# Generated by pormake.
# Topology fnw, (5)-cn, num edge types: 1
# Building blocks:
#     Node 0, Type 0, BuildingBlock: XOMCOT_clean_sbu_0, # of connection points: 5
#     Node 1, Type 0, BuildingBlock: XOMCOT_clean_sbu_0, # of connection points: 5
#     Node 2, Type 0, BuildingBlock: XOMCOT_clean_sbu_0, # of connection points: 5
#     Node 3, Type 0, BuildingBlock: XOMCOT_clean_sbu_0, # of connection points: 5
#     Node 4, Type 0, BuildingBlock: XOMCOT_clean_sbu_0, # of connection points: 5
#     Node 5, Type 0, BuildingBlock: XOMCOT_clean_sbu_0, # of connection points: 5
#     Node 6, Type 0, BuildingBlock: XOMCOT_clean_sbu_0, # of connection points: 5
#     Node 7, Type 0, BuildingBlock: XOMCOT_clean_sbu_0, # of connection points: 5
#     Node 8, Type 0, BuildingBlock: XOMCOT_clean_sbu_0, # of connection points: 5
#     Node 9, Type 0, BuildingBlock: XOMCOT_clean_sbu_0, # of connection points: 5
#     Node 10, Type 0, BuildingBlock: XOMCOT_clean_sbu_0, # of connection points: 5
#     Node 11, Type 0, BuildingBlock: XOMCOT_clean_sbu_0, # of connection points: 5
#     Edge 12, Type (0, 0), BuildingBlock: MIFKUJ_clean_linker_0, # of connection points: 2
#     Edge 13, Type (0, 0), BuildingBlock: MIFKUJ_clean_linker_0, # of connection points: 2
#     Edge 14, Type (0, 0), BuildingBlock: MIFKUJ_clean_linker_0, # of connection points: 2
#     Edge 15, Type (0, 0), BuildingBlock: MIFKUJ_clean_linker_0, # of connection points: 2
#     Edge 16, Type (0, 0), BuildingBlock: MIFKUJ_clean_linker_0, # of connection points: 2
#     Edge 17, Type (0, 0), BuildingBlock: MIFKUJ_clean_linker_0, # of connection points: 2
#     Edge 18, Type (0, 0), BuildingBlock: MIFKUJ_clean_linker_0, # of connection points: 2
#     Edge 19, Type (0, 0), BuildingBlock: MIFKUJ_clean_linker_0, # of connection points: 2
#     Edge 20, Type (0, 0), BuildingBlock: MIFKUJ_clean_linker_0, # of connection points: 2
#     Edge 21, Type (0, 0), BuildingBlock: MIFKUJ_clean_linker_0, # of connection points: 2
#     Edge 22, Type (0, 0), BuildingBlock: MIFKUJ_clean_linker_0, # of connection points: 2
#     Edge 23, Type (0, 0), BuildingBlock: MIFKUJ_clean_linker_0, # of connection points: 2
#     Edge 24, Type (0, 0), BuildingBlock: MIFKUJ_clean_linker_0, # of connection points: 2
#     Edge 25, Type (0, 0), BuildingBlock: MIFKUJ_clean_linker_0, # of connection points: 2
#     Edge 26, Type (0, 0), BuildingBlock: MIFKUJ_clean_linker_0, # of connection points: 2
#     Edge 27, Type (0, 0), BuildingBlock: MIFKUJ_clean_linker_0, # of connection points: 2
#     Edge 28, Type (0, 0), BuildingBlock: MIFKUJ_clean_linker_0, # of connection points: 2
#     Edge 29, Type (0, 0), BuildingBlock: MIFKUJ_clean_linker_0, # of connection points: 2
#     Edge 30, Type (0, 0), BuildingBlock: MIFKUJ_clean_linker_0, # of connection points: 2
#     Edge 31, Type (0, 0), BuildingBlock: MIFKUJ_clean_linker_0, # of connection points: 2
#     Edge 32, Type (0, 0), BuildingBlock: MIFKUJ_clean_linker_0, # of connection points: 2
#     Edge 33, Type (0, 0), BuildingBlock: MIFKUJ_clean_linker_0, # of connection points: 2
#     Edge 34, Type (0, 0), BuildingBlock: MIFKUJ_clean_linker_0, # of connection points: 2
#     Edge 35, Type (0, 0), BuildingBlock: MIFKUJ_clean_linker_0, # of connection points: 2
#     Edge 36, Type (0, 0), BuildingBlock: MIFKUJ_clean_linker_0, # of connection points: 2
#     Edge 37, Type (0, 0), BuildingBlock: MIFKUJ_clean_linker_0, # of connection points: 2
#     Edge 38, Type (0, 0), BuildingBlock: MIFKUJ_clean_linker_0, # of connection points: 2
#     Edge 39, Type (0, 0), BuildingBlock: MIFKUJ_clean_linker_0, # of connection points: 2
#     Edge 40, Type (0, 0), BuildingBlock: MIFKUJ_clean_linker_0, # of connection points: 2
#     Edge 41, Type (0, 0), BuildingBlock: MIFKUJ_clean_linker_0, # of connection points: 2
# Relax obj value: 0.261
# Max RMSD: 0.155
# Mean RMSD: 0.155
data_MOF--net-fnw--node1-XOMCOT_clean_sbu_0--edge1-MIFKUJ_clean_linker_0
_symmetry_space_group_name_H-M    P1
_symmetry_Int_Tables_number       1
_symmetry_cell_setting            triclinic
loop_
_symmetry_equiv_pos_as_xyz
'x, y, z'
_cell_length_a     64.395374
_cell_length_b     64.385243
_cell_length_c     39.929858
_cell_angle_alpha  90.025484
_cell_angle_beta   89.988989
_cell_angle_gamma 120.01776
loop_
_atom_site_label
_atom_site_type_symbol
_atom_site_fract_x
_atom_site_fract_y
_atom_site_fract_z
_atom_type_partial_charge
Co0 Co 0.26697 0.46293 0.27777 0.0
C1 C 0.28614 0.42977 0.27871 0.0
C2 C 0.31316 0.46616 0.28944 0.0
C3 C 0.32351 0.452 0.2909 0.0
N4 N 0.28984 0.45222 0.28171 0.0
N5 N 0.30651 0.42912 0.28423 0.0
H6 H 0.26887 0.41429 0.27313 0.0
H7 H 0.32199 0.48529 0.29386 0.0
C8 C 0.29131 0.50534 0.23069 0.0
O9 O 0.27119 0.49848 0.21435 0.0
N10 N 0.24434 0.47447 0.2748 0.0
C11 C 0.22032 0.46213 0.27073 0.0
C12 C 0.21199 0.47808 0.26989 0.0
C13 C 0.24997 0.49756 0.27826 0.0
N14 N 0.23075 0.5004 0.27424 0.0
C15 C 0.23326 0.42561 0.2344 0.0
C16 C 0.2612 0.44079 0.17734 0.0
C17 C 0.23708 0.42277 0.17454 0.0
C18 C 0.22339 0.41444 0.20387 0.0
C19 C 0.27028 0.45144 0.20842 0.0
N20 N 0.25568 0.44526 0.23583 0.0
H21 H 0.22268 0.41865 0.25682 0.0
H22 H 0.28898 0.46497 0.21012 0.0
H23 H 0.20925 0.44296 0.26874 0.0
H24 H 0.26795 0.51209 0.2832 0.0
O25 O 0.24601 0.43835 0.30914 0.0
O26 O 0.27435 0.47526 0.32258 0.0
O27 O 0.29225 0.49276 0.25474 0.0
C28 C 0.25737 0.45434 0.33233 0.0
H29 H 0.34221 0.45819 0.29602 0.0
H30 H 0.19365 0.47361 0.2653 0.0
H31 H 0.27274 0.44736 0.15557 0.0
H32 H 0.20508 0.39968 0.20318 0.0
Co33 Co 0.80826 0.26511 0.78371 0.0
C34 C 0.86006 0.28324 0.77331 0.0
C35 C 0.85274 0.31086 0.78929 0.0
C36 C 0.8769 0.32115 0.78325 0.0
N37 N 0.84222 0.28722 0.78265 0.0
N38 N 0.8814 0.3038 0.77323 0.0
H39 H 0.85737 0.26597 0.76547 0.0
H40 H 0.8434 0.32003 0.79733 0.0
C41 C 0.79007 0.29192 0.74152 0.0
O42 O 0.77611 0.27257 0.72401 0.0
N43 N 0.77371 0.24312 0.78586 0.0
C44 C 0.76188 0.21899 0.78845 0.0
C45 C 0.7376 0.21064 0.7886 0.0
C46 C 0.75634 0.24902 0.78704 0.0
N47 N 0.73409 0.22959 0.78713 0.0
C48 C 0.80382 0.23034 0.73492 0.0
C49 C 0.81863 0.26083 0.68042 0.0
C50 C 0.80929 0.2362 0.67511 0.0
C51 C 0.80274 0.22105 0.70303 0.0
C52 C 0.8194 0.26933 0.71284 0.0
N53 N 0.81025 0.25382 0.73924 0.0
H54 H 0.7995 0.21859 0.7561 0.0
H55 H 0.82688 0.28838 0.71656 0.0
H56 H 0.77004 0.20797 0.7909 0.0
H57 H 0.75986 0.26723 0.78761 0.0
O58 O 0.81359 0.24322 0.81052 0.0
O59 O 0.80783 0.27219 0.83035 0.0
O60 O 0.80322 0.29137 0.76507 0.0
C61 C 0.81172 0.25456 0.83633 0.0
H62 H 0.89016 0.33998 0.78575 0.0
H63 H 0.7237 0.19199 0.78978 0.0
H64 H 0.82449 0.27332 0.65967 0.0
H65 H 0.79663 0.20211 0.70024 0.0
Co66 Co 0.54021 0.80512 0.28225 0.0
C67 C 0.57173 0.85793 0.28157 0.0
C68 C 0.54103 0.84664 0.31339 0.0
C69 C 0.55458 0.87128 0.31445 0.0
N70 N 0.55181 0.83835 0.29279 0.0
N71 N 0.57376 0.87828 0.29432 0.0
H72 H 0.58444 0.8574 0.26437 0.0
H73 H 0.52429 0.83553 0.32635 0.0
C74 C 0.49443 0.7902 0.24365 0.0
O75 O 0.49992 0.77833 0.22198 0.0
N76 N 0.52805 0.77138 0.27269 0.0
C77 C 0.53969 0.76044 0.26052 0.0
C78 C 0.52356 0.73637 0.25678 0.0
C79 C 0.50535 0.75351 0.27796 0.0
N80 N 0.50191 0.73211 0.26741 0.0
C81 C 0.57471 0.81271 0.23151 0.0
C82 C 0.55488 0.82645 0.18098 0.0
C83 C 0.57311 0.82137 0.17305 0.0
C84 C 0.58389 0.81567 0.19918 0.0
C85 C 0.54636 0.82338 0.21386 0.0
N86 N 0.5548 0.8144 0.23792 0.0
H87 H 0.58329 0.8083 0.25123 0.0
H88 H 0.53267 0.82781 0.2196 0.0
H89 H 0.55852 0.76892 0.25486 0.0
H90 H 0.49134 0.75633 0.28796 0.0
O91 O 0.5668 0.80648 0.30685 0.0
O92 O 0.53124 0.79665 0.32825 0.0
O93 O 0.50899 0.8023 0.26715 0.0
C94 C 0.55264 0.79986 0.33274 0.0
H95 H 0.55024 0.88318 0.328 0.0
H96 H 0.52748 0.72307 0.2468 0.0
H97 H 0.54655 0.83173 0.16182 0.0
H98 H 0.5989 0.8129 0.19456 0.0
Co99 Co 0.73947 0.5427 0.77714 0.0
C100 C 0.71834 0.57418 0.77554 0.0
C101 C 0.694 0.53927 0.79556 0.0
C102 C 0.68222 0.55209 0.79349 0.0
N103 N 0.71647 0.55303 0.78394 0.0
N104 N 0.69756 0.57395 0.78092 0.0
H105 H 0.7341 0.58891 0.76419 0.0
H106 H 0.68649 0.52093 0.80399 0.0
C107 C 0.71134 0.49629 0.73886 0.0
O108 O 0.72957 0.50229 0.71861 0.0
N109 N 0.76232 0.53158 0.77134 0.0
C110 C 0.78555 0.54367 0.76186 0.0
C111 C 0.79421 0.52797 0.76083 0.0
C112 C 0.75773 0.5091 0.77777 0.0
N113 N 0.77654 0.50615 0.77043 0.0
C114 C 0.76677 0.57509 0.72401 0.0
C115 C 0.73178 0.55422 0.67541 0.0
C116 C 0.75504 0.57162 0.66586 0.0
C117 C 0.77237 0.58296 0.69092 0.0
C118 C 0.72704 0.54694 0.70878 0.0
N119 N 0.74505 0.55581 0.73196 0.0
H120 H 0.78008 0.58431 0.74313 0.0
H121 H 0.70893 0.53385 0.71573 0.0
H122 H 0.79589 0.56252 0.7563 0.0
H123 H 0.74075 0.49502 0.78727 0.0
O124 O 0.76329 0.5706 0.80131 0.0
O125 O 0.73799 0.53524 0.82384 0.0
O126 O 0.71251 0.51052 0.76205 0.0
C127 C 0.75541 0.55714 0.8279 0.0
H128 H 0.66368 0.54573 0.80005 0.0
H129 H 0.81193 0.53221 0.7527 0.0
H130 H 0.71747 0.54595 0.65715 0.0
H131 H 0.79037 0.59707 0.68495 0.0
Co132 Co 0.18831 0.73159 0.27275 0.0
C133 C 0.13602 0.71195 0.2635 0.0
C134 C 0.14468 0.68537 0.28 0.0
C135 C 0.12041 0.67428 0.27445 0.0
N136 N 0.15445 0.70884 0.2727 0.0
N137 N 0.11506 0.69098 0.26409 0.0
H138 H 0.13804 0.72885 0.25514 0.0
H139 H 0.15462 0.67683 0.28806 0.0
C140 C 0.20681 0.70606 0.22905 0.0
O141 O 0.21974 0.72569 0.21153 0.0
N142 N 0.22281 0.75402 0.27425 0.0
C143 C 0.23443 0.77805 0.27865 0.0
C144 C 0.25874 0.78651 0.28049 0.0
C145 C 0.24026 0.74821 0.27574 0.0
N146 N 0.26231 0.76766 0.27822 0.0
C147 C 0.19289 0.7659 0.22247 0.0
C148 C 0.17497 0.73342 0.17026 0.0
C149 C 0.18519 0.75792 0.16322 0.0
C150 C 0.19332 0.77419 0.18999 0.0
C151 C 0.17487 0.72596 0.20305 0.0
N152 N 0.18539 0.74231 0.22828 0.0
H153 H 0.19876 0.77852 0.2428 0.0
H154 H 0.16694 0.70699 0.20798 0.0
H155 H 0.22604 0.78885 0.2816 0.0
H156 H 0.23705 0.73007 0.27616 0.0
O157 O 0.1827 0.75316 0.30004 0.0
O158 O 0.18964 0.72478 0.31912 0.0
O159 O 0.19392 0.7059 0.2535 0.0
C160 C 0.18534 0.74209 0.32559 0.0
H161 H 0.10765 0.65535 0.27739 0.0
H162 H 0.27269 0.80508 0.28297 0.0
H163 H 0.16754 0.72014 0.15049 0.0
H164 H 0.20075 0.79323 0.1858 0.0
Co165 Co 0.46102 0.19249 0.77509 0.0
C166 C 0.42813 0.13997 0.77186 0.0
C167 C 0.45993 0.1494 0.80039 0.0
C168 C 0.44575 0.12481 0.80021 0.0
N169 N 0.44885 0.15881 0.78263 0.0
N170 N 0.42588 0.11899 0.78214 0.0
H171 H 0.41501 0.1415 0.75675 0.0
H172 H 0.47725 0.15972 0.8123 0.0
C173 C 0.5055 0.20762 0.7336 0.0
O174 O 0.49958 0.21999 0.71351 0.0
N175 N 0.47396 0.2267 0.76867 0.0
C176 C 0.46253 0.23888 0.76122 0.0
C177 C 0.47903 0.26304 0.76058 0.0
C178 C 0.49699 0.24378 0.774 0.0
N179 N 0.50071 0.26602 0.76832 0.0
C180 C 0.4267 0.18842 0.72592 0.0
C181 C 0.44356 0.17257 0.674 0.0
C182 C 0.42603 0.17886 0.66724 0.0
C183 C 0.41686 0.18586 0.69404 0.0
C184 C 0.45282 0.17535 0.70635 0.0
N185 N 0.4458 0.18515 0.73115 0.0
H186 H 0.41903 0.19326 0.74636 0.0
H187 H 0.46586 0.16987 0.71119 0.0
H188 H 0.44356 0.2312 0.7572 0.0
H189 H 0.5108 0.24001 0.78213 0.0
O190 O 0.43517 0.19081 0.80204 0.0
O191 O 0.47086 0.19892 0.82099 0.0
O192 O 0.49155 0.1952 0.75742 0.0
C193 C 0.44976 0.19598 0.82728 0.0
H194 H 0.45008 0.11216 0.81149 0.0
H195 H 0.47537 0.27726 0.75438 0.0
H196 H 0.45074 0.1664 0.65432 0.0
H197 H 0.40241 0.18963 0.69036 0.0
Co198 Co 0.54313 0.73697 0.72398 0.0
C199 C 0.57474 0.71585 0.7233 0.0
C200 C 0.53857 0.69067 0.70864 0.0
C201 C 0.55182 0.67936 0.70748 0.0
N202 N 0.5529 0.71343 0.71869 0.0
N203 N 0.5746 0.69517 0.71661 0.0
H204 H 0.59035 0.73242 0.73102 0.0
H205 H 0.51976 0.68285 0.70256 0.0
C206 C 0.49802 0.7107 0.7662 0.0
O207 O 0.50377 0.72986 0.78436 0.0
N208 N 0.53263 0.76039 0.72844 0.0
C209 C 0.54564 0.78397 0.73593 0.0
C210 C 0.53053 0.79323 0.73799 0.0
C211 C 0.51003 0.75613 0.72403 0.0
N212 N 0.5081 0.77562 0.73088 0.0
C213 C 0.57909 0.76732 0.77134 0.0
C214 C 0.55926 0.73789 0.8263 0.0
C215 C 0.57763 0.76164 0.83126 0.0
C216 C 0.58844 0.77599 0.80309 0.0
C217 C 0.55046 0.73002 0.79401 0.0
N218 N 0.55884 0.74554 0.76756 0.0
H219 H 0.58769 0.77855 0.7499 0.0
H220 H 0.53649 0.71164 0.79064 0.0
H221 H 0.56476 0.79412 0.7394 0.0
H222 H 0.49506 0.73878 0.71734 0.0
O223 O 0.56949 0.75902 0.69572 0.0
O224 O 0.53303 0.73236 0.6781 0.0
O225 O 0.51194 0.71105 0.74317 0.0
C226 C 0.55465 0.74921 0.67082 0.0
H227 H 0.54498 0.66074 0.70096 0.0
H228 H 0.53566 0.81153 0.74433 0.0
H229 H 0.55091 0.72584 0.84723 0.0
H230 H 0.60354 0.79402 0.80563 0.0
Co231 Co 0.79804 0.54184 0.21597 0.0
C232 C 0.85033 0.57136 0.20846 0.0
C233 C 0.83724 0.5354 0.19081 0.0
C234 C 0.86179 0.54805 0.18734 0.0
N235 N 0.8302 0.55004 0.20423 0.0
N236 N 0.87006 0.57069 0.19849 0.0
H237 H 0.85039 0.58691 0.21881 0.0
H238 H 0.82539 0.51677 0.18447 0.0
C239 C 0.78024 0.49569 0.2552 0.0
O240 O 0.77201 0.50349 0.27931 0.0
N241 N 0.76531 0.53324 0.22717 0.0
C242 C 0.75683 0.54688 0.24034 0.0
C243 C 0.73258 0.53272 0.24584 0.0
C244 C 0.74579 0.51134 0.22311 0.0
N245 N 0.72578 0.51043 0.23504 0.0
C246 C 0.80997 0.57653 0.26851 0.0
C247 C 0.82328 0.55376 0.31515 0.0
C248 C 0.81948 0.57237 0.32572 0.0
C249 C 0.81422 0.5848 0.30149 0.0
C250 C 0.8189 0.54621 0.28183 0.0
N251 N 0.8097 0.55587 0.26004 0.0
H252 H 0.80602 0.58628 0.25006 0.0
H253 H 0.82211 0.53202 0.27399 0.0
H254 H 0.76708 0.56578 0.24555 0.0
H255 H 0.74633 0.49606 0.21285 0.0
O256 O 0.80227 0.5699 0.19191 0.0
O257 O 0.78846 0.53357 0.17033 0.0
O258 O 0.7914 0.50899 0.23017 0.0
C259 C 0.79445 0.55586 0.16583 0.0
H260 H 0.87266 0.54078 0.17822 0.0
H261 H 0.72085 0.53831 0.25705 0.0
H262 H 0.82869 0.54454 0.33273 0.0
H263 H 0.81198 0.59986 0.30821 0.0
Co264 Co 0.26029 0.80159 0.71438 0.0
C265 C 0.28126 0.85428 0.71088 0.0
C266 C 0.29953 0.84181 0.6788 0.0
C267 C 0.31023 0.86632 0.67546 0.0
N268 N 0.28141 0.83434 0.70097 0.0
N269 N 0.29876 0.87403 0.69577 0.0
H270 H 0.26874 0.85447 0.72879 0.0
H271 H 0.30474 0.83023 0.6662 0.0
C272 C 0.29303 0.7895 0.75368 0.0
O273 O 0.27682 0.77918 0.77731 0.0
N274 N 0.23916 0.76826 0.72677 0.0
C275 C 0.21597 0.75729 0.73648 0.0
C276 C 0.20791 0.73328 0.74138 0.0
C277 C 0.24436 0.75044 0.72428 0.0
N278 N 0.22591 0.7291 0.734 0.0
C279 C 0.23488 0.80994 0.76706 0.0
C280 C 0.27212 0.82882 0.81265 0.0
C281 C 0.24908 0.8228 0.82348 0.0
C282 C 0.23057 0.81443 0.79979 0.0
C283 C 0.2756 0.82417 0.7796 0.0
N284 N 0.25659 0.81272 0.75822 0.0
H285 H 0.22057 0.80378 0.749 0.0
H286 H 0.29354 0.82934 0.77155 0.0
H287 H 0.20517 0.76564 0.73904 0.0
H288 H 0.26126 0.75294 0.71509 0.0
O289 O 0.23426 0.80187 0.69013 0.0
O290 O 0.25959 0.79131 0.66924 0.0
O291 O 0.2892 0.79959 0.72878 0.0
C292 C 0.24142 0.79449 0.66454 0.0
H293 H 0.32572 0.87771 0.66021 0.0
H294 H 0.19025 0.72 0.75007 0.0
H295 H 0.28718 0.83644 0.82979 0.0
H296 H 0.21263 0.81022 0.8068 0.0
Co297 Co 0.45799 0.2656 0.21785 0.0
C298 C 0.42501 0.28481 0.22473 0.0
C299 C 0.46025 0.31157 0.20853 0.0
C300 C 0.44677 0.32243 0.21338 0.0
N301 N 0.44669 0.28812 0.21603 0.0
N302 N 0.42471 0.3056 0.22356 0.0
H303 H 0.41022 0.2679 0.23329 0.0
H304 H 0.47888 0.32029 0.20103 0.0
C305 C 0.50234 0.293 0.26143 0.0
O306 O 0.49565 0.27485 0.28206 0.0
N307 N 0.47017 0.24335 0.21883 0.0
C308 C 0.45793 0.21912 0.21833 0.0
C309 C 0.47403 0.21093 0.21916 0.0
C310 C 0.49348 0.24937 0.2179 0.0
N311 N 0.49636 0.23007 0.21933 0.0
C312 C 0.42518 0.23207 0.26562 0.0
C313 C 0.44085 0.26246 0.32021 0.0
C314 C 0.42444 0.23801 0.32529 0.0
C315 C 0.41572 0.22304 0.29715 0.0
C316 C 0.44955 0.27077 0.28801 0.0
N317 N 0.44329 0.25515 0.26178 0.0
H318 H 0.41787 0.2204 0.24429 0.0
H319 H 0.46186 0.28968 0.28442 0.0
H320 H 0.43872 0.20792 0.21677 0.0
H321 H 0.50821 0.26752 0.21554 0.0
O322 O 0.4314 0.24354 0.1901 0.0
O323 O 0.46698 0.27176 0.17162 0.0
O324 O 0.48919 0.29177 0.23671 0.0
C325 C 0.44557 0.25423 0.16482 0.0
H326 H 0.45278 0.34131 0.21023 0.0
H327 H 0.4696 0.19236 0.22025 0.0
H328 H 0.4477 0.27496 0.34094 0.0
H329 H 0.40194 0.20438 0.29947 0.0
Co330 Co 0.1962 0.45914 0.7297 0.0
C331 C 0.14424 0.42563 0.72201 0.0
C332 C 0.15426 0.46176 0.70855 0.0
C333 C 0.1299 0.44751 0.7046 0.0
N334 N 0.16312 0.44804 0.7196 0.0
N335 N 0.12358 0.42476 0.71303 0.0
H336 H 0.1457 0.41039 0.73017 0.0
H337 H 0.16476 0.48086 0.70403 0.0
C338 C 0.21052 0.50175 0.77518 0.0
O339 O 0.2233 0.49563 0.79407 0.0
N340 N 0.22991 0.47101 0.73888 0.0
C341 C 0.24123 0.45895 0.74761 0.0
C342 C 0.26544 0.47494 0.75005 0.0
C343 C 0.24758 0.49392 0.73468 0.0
N344 N 0.26934 0.49695 0.7422 0.0
C345 C 0.18872 0.42158 0.77549 0.0
C346 C 0.172 0.43691 0.82819 0.0
C347 C 0.17745 0.41866 0.83381 0.0
C348 C 0.18487 0.41026 0.80653 0.0
C349 C 0.17614 0.44769 0.79671 0.0
N350 N 0.18643 0.4414 0.77172 0.0
H351 H 0.19408 0.41468 0.75463 0.0
H352 H 0.1714 0.46136 0.7928 0.0
H353 H 0.23296 0.4399 0.75138 0.0
H354 H 0.24451 0.50813 0.72622 0.0
O355 O 0.19557 0.43481 0.70038 0.0
O356 O 0.20483 0.4716 0.68513 0.0
O357 O 0.19849 0.48875 0.75039 0.0
C358 C 0.20212 0.45087 0.67679 0.0
H359 H 0.11777 0.45367 0.69699 0.0
H360 H 0.27905 0.47069 0.75753 0.0
H361 H 0.16558 0.44358 0.84823 0.0
H362 H 0.18812 0.3954 0.80931 0.0
Co363 Co 0.73746 0.19723 0.22258 0.0
C364 C 0.71496 0.14421 0.22177 0.0
C365 C 0.69617 0.15677 0.1909 0.0
C366 C 0.68465 0.13216 0.18874 0.0
N367 N 0.71514 0.16426 0.21154 0.0
N368 N 0.69644 0.12436 0.20826 0.0
H369 H 0.72803 0.14406 0.23862 0.0
H370 H 0.691 0.16842 0.17849 0.0
C371 C 0.70762 0.21313 0.26138 0.0
O372 O 0.72529 0.22502 0.28261 0.0
N373 N 0.75967 0.23078 0.23262 0.0
C374 C 0.78174 0.24106 0.24647 0.0
C375 C 0.79029 0.26526 0.25003 0.0
C376 C 0.75575 0.24915 0.22637 0.0
N377 N 0.77381 0.27025 0.23765 0.0
C378 C 0.76321 0.18795 0.27348 0.0
C379 C 0.72896 0.17427 0.32308 0.0
C380 C 0.75182 0.17827 0.33155 0.0
C381 C 0.76862 0.18395 0.3058 0.0
C382 C 0.72428 0.17825 0.29027 0.0
N383 N 0.74208 0.18722 0.26675 0.0
H384 H 0.7764 0.19235 0.25404 0.0
H385 H 0.70641 0.17443 0.28416 0.0
H386 H 0.79135 0.23205 0.25346 0.0
H387 H 0.73944 0.2469 0.21519 0.0
O388 O 0.76239 0.19536 0.19791 0.0
O389 O 0.73721 0.20593 0.17668 0.0
O390 O 0.70959 0.2008 0.23781 0.0
C391 C 0.75488 0.20196 0.17194 0.0
H392 H 0.66848 0.1208 0.17468 0.0
H393 H 0.8073 0.27818 0.26098 0.0
H394 H 0.71505 0.16908 0.34178 0.0
H395 H 0.78604 0.18588 0.3107 0.0
H396 H 0.37754 0.27863 0.20894 0.0
H397 H 0.34596 0.28822 0.22298 0.0
H398 H 0.39803 0.35124 0.27624 0.0
H399 H 0.42941 0.34198 0.26171 0.0
H400 H 0.35139 0.32291 0.30941 0.0
H401 H 0.38822 0.35887 0.20046 0.0
H402 H 0.39803 0.35556 0.14168 0.0
H403 H 0.32335 0.30864 0.12032 0.0
H404 H 0.31316 0.31145 0.17915 0.0
H405 H 0.3402 0.42356 0.31681 0.0
H406 H 0.34887 0.39122 0.30994 0.0
H407 H 0.28874 0.355 0.2426 0.0
H408 H 0.28061 0.38818 0.2482 0.0
H409 H 0.3262 0.35632 0.21617 0.0
H410 H 0.28858 0.33056 0.32068 0.0
H411 H 0.27789 0.33328 0.37914 0.0
H412 H 0.35042 0.35785 0.40986 0.0
H413 H 0.36168 0.35565 0.35152 0.0
C414 C 0.382 0.2943 0.224 0.0
C415 C 0.4058 0.30975 0.23402 0.0
C416 C 0.36407 0.29974 0.23198 0.0
C417 C 0.36975 0.32041 0.25066 0.0
C418 C 0.39331 0.33516 0.26195 0.0
C419 C 0.41122 0.33001 0.25343 0.0
C420 C 0.35206 0.32827 0.2562 0.0
C421 C 0.34564 0.33009 0.28915 0.0
C422 C 0.34383 0.33666 0.22951 0.0
C423 C 0.34998 0.3351 0.19422 0.0
C424 C 0.37393 0.34768 0.18328 0.0
C425 C 0.37955 0.34593 0.14996 0.0
C426 C 0.36133 0.33182 0.1273 0.0
C427 C 0.33744 0.3195 0.13791 0.0
C428 C 0.33174 0.32117 0.17123 0.0
C429 C 0.32876 0.40875 0.30055 0.0
C430 C 0.30988 0.40863 0.28277 0.0
C431 C 0.33349 0.38999 0.29708 0.0
C432 C 0.31923 0.37042 0.27616 0.0
C433 C 0.29987 0.36983 0.25908 0.0
C434 C 0.29518 0.38874 0.26245 0.0
C435 C 0.3264 0.35216 0.26978 0.0
C436 C 0.33095 0.34838 0.23659 0.0
C437 C 0.3326 0.34167 0.29631 0.0
C438 C 0.32598 0.34297 0.33161 0.0
C439 C 0.3023 0.33668 0.33985 0.0
C440 C 0.29613 0.33812 0.37299 0.0
C441 C 0.31347 0.34574 0.3982 0.0
C442 C 0.337 0.35192 0.39031 0.0
C443 C 0.34328 0.35052 0.35721 0.0
H444 H 0.30865 0.34685 0.42384 0.0
H445 H 0.36571 0.33049 0.10151 0.0
H446 H 0.91301 0.3389 0.73341 0.0
H447 H 0.95341 0.34733 0.71902 0.0
H448 H 0.94205 0.28541 0.77554 0.0
H449 H 0.9011 0.27664 0.78944 0.0
H450 H 0.9847 0.33136 0.7924 0.0
H451 H 0.94791 0.28081 0.6986 0.0
H452 H 0.92062 0.26471 0.6502 0.0
H453 H 0.95845 0.33319 0.60139 0.0
H454 H 0.98575 0.34984 0.64972 0.0
H455 H 0.10758 0.38362 0.74924 0.0
H456 H 0.06607 0.35128 0.75502 0.0
H457 H 0.04335 0.38788 0.68656 0.0
H458 H 0.08472 0.41933 0.67906 0.0
H459 H 0.01705 0.34191 0.677 0.0
H460 H 0.04404 0.39445 0.77494 0.0
H461 H 0.07021 0.41361 0.82381 0.0
H462 H 0.04974 0.34433 0.86484 0.0
H463 H 0.02364 0.32478 0.81597 0.0
C464 C 0.91907 0.32696 0.74238 0.0
C465 C 0.90417 0.30724 0.76259 0.0
C466 C 0.94202 0.33166 0.73401 0.0
C467 C 0.95059 0.31689 0.74608 0.0
C468 C 0.93561 0.29688 0.76584 0.0
C469 C 0.91235 0.29187 0.77367 0.0
C470 C 0.97595 0.32406 0.74012 0.0
C471 C 0.99181 0.333 0.76729 0.0
C472 C 0.98508 0.32655 0.70728 0.0
C473 C 0.96887 0.31659 0.6779 0.0
C474 C 0.95034 0.29249 0.67765 0.0
C475 C 0.93487 0.28326 0.6502 0.0
C476 C 0.93779 0.29792 0.62275 0.0
C477 C 0.95622 0.32185 0.62266 0.0
C478 C 0.97173 0.33118 0.65006 0.0
C479 C 0.09386 0.38455 0.73479 0.0
C480 C 0.09954 0.40443 0.71416 0.0
C481 C 0.07007 0.36608 0.73834 0.0
C482 C 0.0515 0.36737 0.72178 0.0
C483 C 0.05731 0.3865 0.69977 0.0
C484 C 0.08103 0.40473 0.69588 0.0
C485 C 0.02589 0.35024 0.72916 0.0
C486 C 0.00998 0.33949 0.70225 0.0
C487 C 0.01667 0.34645 0.76222 0.0
C488 C 0.03217 0.35818 0.79166 0.0
C489 C 0.04525 0.38333 0.79431 0.0
C490 C 0.06005 0.39425 0.822 0.0
C491 C 0.06171 0.38019 0.84736 0.0
C492 C 0.04849 0.35519 0.84514 0.0
C493 C 0.03369 0.34418 0.81746 0.0
H494 H 0.07319 0.38868 0.86877 0.0
H495 H 0.92579 0.29075 0.60153 0.0
H496 H 0.69815 0.10554 0.26784 0.0
H497 H 0.68197 0.06306 0.28073 0.0
H498 H 0.66301 0.04529 0.17669 0.0
H499 H 0.67826 0.08773 0.16425 0.0
H500 H 0.62734 0.01708 0.21171 0.0
H501 H 0.71015 0.04099 0.2175 0.0
H502 H 0.75242 0.0653 0.2349 0.0
H503 H 0.73212 0.04583 0.33753 0.0
H504 H 0.68966 0.02165 0.3208 0.0
H505 H 0.59359 0.89461 0.23351 0.0
H506 H 0.61979 0.93663 0.21734 0.0
H507 H 0.61944 0.95873 0.3192 0.0
H508 H 0.59297 0.91672 0.33538 0.0
H509 H 0.66666 0.98343 0.28266 0.0
H510 H 0.58283 0.96228 0.27394 0.0
H511 H 0.5413 0.93696 0.25396 0.0
H512 H 0.56583 0.95069 0.15205 0.0
H513 H 0.60758 0.9758 0.17149 0.0
C514 C 0.69088 0.09255 0.24772 0.0
C515 C 0.68937 0.09979 0.21509 0.0
C516 C 0.68172 0.06827 0.25502 0.0
C517 C 0.67147 0.05088 0.22962 0.0
C518 C 0.67073 0.0583 0.19676 0.0
C519 C 0.67944 0.0825 0.18963 0.0
C520 C 0.65985 0.02488 0.23772 0.0
C521 C 0.63623 0.00976 0.22666 0.0
C522 C 0.67115 0.01519 0.25772 0.0
C523 C 0.69668 0.02966 0.26791 0.0
C524 C 0.71467 0.04203 0.24381 0.0
C525 C 0.73867 0.05576 0.25355 0.0
C526 C 0.74494 0.05715 0.2873 0.0
C527 C 0.72723 0.04475 0.31139 0.0
C528 C 0.7032 0.031 0.30179 0.0
C529 C 0.59951 0.90841 0.25253 0.0
C530 C 0.59121 0.90253 0.28564 0.0
C531 C 0.61439 0.93234 0.24328 0.0
C532 C 0.62145 0.95068 0.26711 0.0
C533 C 0.61421 0.94477 0.30053 0.0
C534 C 0.599 0.92087 0.30967 0.0
C535 C 0.63446 0.97609 0.2566 0.0
C536 C 0.65813 0.99096 0.26734 0.0
C537 C 0.62343 0.98554 0.23585 0.0
C538 C 0.59833 0.97067 0.22416 0.0
C539 C 0.57938 0.95972 0.24728 0.0
C540 C 0.55581 0.94544 0.23606 0.0
C541 C 0.55094 0.94215 0.20176 0.0
C542 C 0.56964 0.95321 0.17861 0.0
C543 C 0.59325 0.96747 0.18971 0.0
H544 H 0.53268 0.9311 0.19311 0.0
H545 H 0.76353 0.0678 0.29479 0.0
H546 H 0.72457 0.6217 0.79135 0.0
H547 H 0.7134 0.65223 0.77777 0.0
H548 H 0.64692 0.59718 0.73513 0.0
H549 H 0.65772 0.56682 0.74943 0.0
H550 H 0.67579 0.64339 0.69581 0.0
H551 H 0.64207 0.61025 0.80749 0.0
H552 H 0.64716 0.60245 0.86654 0.0
H553 H 0.69509 0.67771 0.88241 0.0
H554 H 0.69051 0.68588 0.82325 0.0
H555 H 0.57852 0.65992 0.68541 0.0
H556 H 0.60906 0.64906 0.69409 0.0
H557 H 0.64695 0.70929 0.76087 0.0
H558 H 0.61531 0.71945 0.75392 0.0
H559 H 0.64497 0.67225 0.78802 0.0
H560 H 0.67027 0.7071 0.68177 0.0
H561 H 0.66722 0.7167 0.62287 0.0
H562 H 0.64004 0.64308 0.59543 0.0
H563 H 0.64255 0.63291 0.65423 0.0
C564 C 0.7077 0.61632 0.77888 0.0
C565 C 0.69186 0.59203 0.77163 0.0
C566 C 0.70137 0.63365 0.77115 0.0
C567 C 0.6794 0.62685 0.7554 0.0
C568 C 0.66399 0.60272 0.74717 0.0
C569 C 0.67005 0.58542 0.75555 0.0
C570 C 0.67137 0.64432 0.74904 0.0
C571 C 0.66913 0.64989 0.71582 0.0
C572 C 0.66374 0.65356 0.77537 0.0
C573 C 0.66621 0.64863 0.81092 0.0
C574 C 0.65386 0.62509 0.82351 0.0
C575 C 0.65661 0.62061 0.857 0.0
C576 C 0.67151 0.63956 0.87819 0.0
C577 C 0.68361 0.66305 0.86595 0.0
C578 C 0.68093 0.66761 0.83246 0.0
C579 C 0.59323 0.67089 0.70207 0.0
C580 C 0.59419 0.69042 0.71926 0.0
C581 C 0.61103 0.6649 0.70654 0.0
C582 C 0.63064 0.6786 0.72768 0.0
C583 C 0.63209 0.69853 0.74425 0.0
C584 C 0.61404 0.70442 0.74006 0.0
C585 C 0.6482 0.67052 0.73439 0.0
C586 C 0.65229 0.66663 0.76776 0.0
C587 C 0.65798 0.66326 0.70811 0.0
C588 C 0.65656 0.66923 0.67253 0.0
C589 C 0.66351 0.69291 0.66322 0.0
C590 C 0.66189 0.69846 0.62983 0.0
C591 C 0.65343 0.68051 0.60543 0.0
C592 C 0.64662 0.65697 0.61436 0.0
C593 C 0.64819 0.65131 0.64772 0.0
H594 H 0.65217 0.68484 0.57959 0.0
H595 H 0.67364 0.63606 0.90411 0.0
H596 H 0.08442 0.65504 0.22448 0.0
H597 H 0.0435 0.64482 0.20983 0.0
H598 H 0.0521 0.706 0.26571 0.0
H599 H 0.09357 0.71658 0.27985 0.0
H600 H 0.01028 0.6591 0.28235 0.0
H601 H 0.04685 0.71027 0.18897 0.0
H602 H 0.07434 0.72702 0.14088 0.0
H603 H 0.03824 0.65855 0.09169 0.0
H604 H 0.01076 0.64126 0.13973 0.0
H605 H 0.88829 0.61115 0.23698 0.0
H606 H 0.93036 0.64122 0.24434 0.0
H607 H 0.95054 0.60281 0.17533 0.0
H608 H 0.90856 0.57353 0.16614 0.0
H609 H 0.97866 0.64872 0.16652 0.0
H610 H 0.94975 0.59592 0.26341 0.0
H611 H 0.9233 0.57686 0.31203 0.0
H612 H 0.94595 0.64616 0.35485 0.0
H613 H 0.97233 0.66563 0.30623 0.0
C614 C 0.07763 0.66643 0.23327 0.0
C615 C 0.09192 0.68648 0.25334 0.0
C616 C 0.05438 0.66069 0.22478 0.0
C617 C 0.04489 0.67473 0.23659 0.0
C618 C 0.05923 0.69506 0.25625 0.0
C619 C 0.0828 0.70111 0.26419 0.0
C620 C 0.01935 0.66668 0.2302 0.0
C621 C 0.00331 0.65743 0.25714 0.0
C622 C 0.01042 0.6641 0.19723 0.0
C623 C 0.02679 0.67443 0.16808 0.0
C624 C 0.04487 0.69872 0.16802 0.0
C625 C 0.06044 0.70833 0.14074 0.0
C626 C 0.05805 0.69385 0.11326 0.0
C627 C 0.04006 0.66975 0.11299 0.0
C628 C 0.02445 0.66004 0.14022 0.0
C629 C 0.90153 0.60925 0.22277 0.0
C630 C 0.89482 0.58951 0.20128 0.0
C631 C 0.9257 0.62644 0.22729 0.0
C632 C 0.94368 0.62404 0.21094 0.0
C633 C 0.93702 0.60501 0.1884 0.0
C634 C 0.9129 0.58802 0.18351 0.0
C635 C 0.96947 0.64029 0.21857 0.0
C636 C 0.98556 0.65101 0.19185 0.0
C637 C 0.97848 0.64392 0.25174 0.0
C638 C 0.96275 0.63223 0.28102 0.0
C639 C 0.94896 0.60708 0.2831 0.0
C640 C 0.934 0.59621 0.31066 0.0
C641 C 0.93288 0.61029 0.33646 0.0
C642 C 0.94679 0.63528 0.3348 0.0
C643 C 0.96175 0.64624 0.30726 0.0
H644 H 0.92128 0.60184 0.35777 0.0
H645 H 0.07013 0.70132 0.09217 0.0
H646 H 0.3115 0.9094 0.65061 0.0
H647 H 0.32689 0.95198 0.66254 0.0
H648 H 0.31846 0.93648 0.76852 0.0
H649 H 0.30177 0.89378 0.75628 0.0
H650 H 0.30917 0.97008 0.7578 0.0
H651 H 0.37361 0.95723 0.72449 0.0
H652 H 0.39519 0.94367 0.68752 0.0
H653 H 0.39761 0.99113 0.61014 0.0
H654 H 0.37576 0.00475 0.64654 0.0
H655 H 0.40738 0.0795 0.82102 0.0
H656 H 0.37919 0.03821 0.80368 0.0
H657 H 0.37528 0.06338 0.7051 0.0
H658 H 0.40329 0.10476 0.72251 0.0
H659 H 0.38836 0.02654 0.70807 0.0
H660 H 0.32789 0.04288 0.74901 0.0
H661 H 0.309 0.05658 0.79054 0.0
H662 H 0.30262 0.00251 0.85946 0.0
H663 H 0.3218 0.98871 0.81853 0.0
C664 C 0.31268 0.91519 0.67635 0.0
C665 C 0.30568 0.89853 0.70257 0.0
C666 C 0.32156 0.93946 0.68321 0.0
C667 C 0.32446 0.94759 0.7165 0.0
C668 C 0.31648 0.93073 0.74264 0.0
C669 C 0.30699 0.90636 0.7357 0.0
C670 C 0.33703 0.97367 0.72425 0.0
C671 C 0.32655 0.98237 0.74706 0.0
C672 C 0.35961 0.98988 0.70995 0.0
C673 C 0.37282 0.98179 0.68808 0.0
C674 C 0.37861 0.96465 0.69951 0.0
C675 C 0.3909 0.95697 0.67867 0.0
C676 C 0.3977 0.96648 0.64647 0.0
C677 C 0.39229 0.98374 0.63507 0.0
C678 C 0.37996 0.99145 0.65579 0.0
C679 C 0.40022 0.07619 0.79582 0.0
C680 C 0.40749 0.09521 0.77306 0.0
C681 C 0.38406 0.0527 0.78602 0.0
C682 C 0.37514 0.04785 0.75318 0.0
C683 C 0.38191 0.06686 0.73061 0.0
C684 C 0.39777 0.09042 0.74059 0.0
C685 C 0.36058 0.02274 0.74173 0.0
C686 C 0.3708 0.01426 0.71835 0.0
C687 C 0.33812 0.00669 0.75616 0.0
C688 C 0.32646 0.01488 0.78077 0.0
C689 C 0.32265 0.03404 0.77313 0.0
C690 C 0.31185 0.0418 0.79654 0.0
C691 C 0.30466 0.03046 0.82765 0.0
C692 C 0.30821 0.01129 0.83536 0.0
C693 C 0.31901 0.00347 0.81204 0.0
H694 H 0.2963 0.03649 0.84574 0.0
H695 H 0.40722 0.96051 0.63037 0.0
H696 H 0.14447 0.40877 0.88386 0.0
H697 H 0.14835 0.40105 0.9429 0.0
H698 H 0.2142 0.4016 0.92083 0.0
H699 H 0.21052 0.40937 0.86199 0.0
H700 H 0.18837 0.36842 0.96879 0.0
H701 H 0.21589 0.45188 0.94636 0.0
H702 H 0.21183 0.48571 0.92542 0.0
H703 H 0.15373 0.46744 0.99382 0.0
H704 H 0.1572 0.43325 0.01481 0.0
H705 H 0.25608 0.41258 0.1195 0.0
H706 H 0.23962 0.40368 0.06271 0.0
H707 H 0.17645 0.40429 0.09722 0.0
H708 H 0.19302 0.41382 0.15376 0.0
H709 H 0.19621 0.43316 0.04437 0.0
H710 H 0.173 0.35227 0.072 0.0
H711 H 0.17859 0.3193 0.09263 0.0
H712 H 0.23019 0.33354 0.01502 0.0
H713 H 0.22518 0.36683 0.9942 0.0
C714 C 0.15961 0.40695 0.89153 0.0
C715 C 0.17733 0.40997 0.8683 0.0
C716 C 0.16176 0.40246 0.92522 0.0
C717 C 0.18177 0.40113 0.9363 0.0
C718 C 0.1986 0.40252 0.91281 0.0
C719 C 0.19644 0.40693 0.87914 0.0
C720 C 0.18658 0.40085 0.97256 0.0
C721 C 0.19016 0.38258 0.98537 0.0
C722 C 0.18859 0.41918 0.99422 0.0
C723 C 0.18661 0.43985 0.98186 0.0
C724 C 0.20213 0.45497 0.95676 0.0
C725 C 0.19995 0.47422 0.9449 0.0
C726 C 0.18248 0.47868 0.95821 0.0
C727 C 0.16721 0.46393 0.98348 0.0
C728 C 0.16928 0.44462 0.99537 0.0
C729 C 0.23859 0.4106 0.11505 0.0
C730 C 0.22592 0.41402 0.14114 0.0
C731 C 0.22909 0.40528 0.08265 0.0
C732 C 0.20674 0.4032 0.07577 0.0
C733 C 0.19368 0.40573 0.10201 0.0
C734 C 0.20312 0.411 0.13438 0.0
C735 C 0.19809 0.40074 0.04078 0.0
C736 C 0.19397 0.41868 0.02809 0.0
C737 C 0.1958 0.38222 0.01929 0.0
C738 C 0.19885 0.36219 0.0317 0.0
C739 C 0.18569 0.3485 0.05949 0.0
C740 C 0.18872 0.32973 0.07119 0.0
C741 C 0.20477 0.32436 0.05519 0.0
C742 C 0.21778 0.33773 0.02741 0.0
C743 C 0.21483 0.35653 0.01562 0.0
H744 H 0.20709 0.30981 0.06429 0.0
H745 H 0.18083 0.49359 0.949 0.0
H746 H 0.79471 0.20876 0.36108 0.0
H747 H 0.80483 0.21234 0.42028 0.0
H748 H 0.73461 0.15277 0.44251 0.0
H749 H 0.72441 0.1486 0.38288 0.0
H750 H 0.74583 0.19249 0.48019 0.0
H751 H 0.78295 0.1465 0.45223 0.0
H752 H 0.80891 0.13581 0.41998 0.0
H753 H 0.87058 0.20325 0.44583 0.0
H754 H 0.84494 0.21452 0.47786 0.0
H755 H 0.77018 0.19559 0.65229 0.0
H756 H 0.76135 0.18066 0.59489 0.0
H757 H 0.82939 0.23939 0.56241 0.0
H758 H 0.83867 0.25421 0.62015 0.0
H759 H 0.81791 0.19622 0.53117 0.0
H760 H 0.78158 0.24419 0.55287 0.0
H761 H 0.75663 0.25689 0.58372 0.0
H762 H 0.69453 0.1876 0.56796 0.0
H763 H 0.71922 0.17436 0.5374 0.0
C764 C 0.7816 0.1959 0.3783 0.0
C765 C 0.75871 0.17837 0.36711 0.0
C766 C 0.78742 0.19805 0.41224 0.0
C767 C 0.77052 0.18274 0.43575 0.0
C768 C 0.7479 0.16476 0.4247 0.0
C769 C 0.74207 0.1625 0.39065 0.0
C770 C 0.77585 0.18706 0.47198 0.0
C771 C 0.76127 0.19274 0.49152 0.0
C772 C 0.79646 0.18817 0.48641 0.0
C773 C 0.81197 0.18143 0.46726 0.0
C774 C 0.80202 0.15914 0.45083 0.0
C775 C 0.81669 0.15296 0.43262 0.0
C776 C 0.84137 0.16886 0.4308 0.0
C777 C 0.85145 0.19096 0.44725 0.0
C778 C 0.83686 0.19724 0.46548 0.0
C779 C 0.78352 0.20507 0.6331 0.0
C780 C 0.8051 0.22615 0.64073 0.0
C781 C 0.77836 0.1966 0.60028 0.0
C782 C 0.7946 0.20908 0.57442 0.0
C783 C 0.81661 0.22955 0.58207 0.0
C784 C 0.82178 0.2381 0.61496 0.0
C785 C 0.7879 0.20164 0.53918 0.0
C786 C 0.80227 0.19554 0.51987 0.0
C787 C 0.76721 0.20035 0.52478 0.0
C788 C 0.7523 0.2082 0.54318 0.0
C789 C 0.76265 0.23159 0.55625 0.0
C790 C 0.74855 0.23889 0.57363 0.0
C791 C 0.72403 0.22305 0.57785 0.0
C792 C 0.71354 0.19985 0.5647 0.0
C793 C 0.72758 0.19243 0.54734 0.0
H794 H 0.71315 0.2288 0.5912 0.0
H795 H 0.8527 0.16404 0.4167 0.0
H796 H 0.57851 0.85161 0.12087 0.0
H797 H 0.58539 0.84665 0.06176 0.0
H798 H 0.58882 0.78321 0.08643 0.0
H799 H 0.58195 0.78797 0.14518 0.0
H800 H 0.62174 0.80908 0.04008 0.0
H801 H 0.5374 0.77899 0.05746 0.0
H802 H 0.50196 0.78133 0.07527 0.0
H803 H 0.51978 0.83839 0.00516 0.0
H804 H 0.55555 0.83661 0.98727 0.0
H805 H 0.58381 0.74129 0.8881 0.0
H806 H 0.58933 0.75682 0.94542 0.0
H807 H 0.59083 0.82059 0.90889 0.0
H808 H 0.58499 0.8051 0.85177 0.0
H809 H 0.55852 0.79881 0.95974 0.0
H810 H 0.64105 0.82472 0.93812 0.0
H811 H 0.67524 0.82016 0.92042 0.0
H812 H 0.65944 0.76844 0.99839 0.0
H813 H 0.62492 0.77242 0.01627 0.0
C814 C 0.58087 0.83669 0.11368 0.0
C815 C 0.57962 0.82015 0.13772 0.0
C816 C 0.58485 0.83392 0.07995 0.0
C817 C 0.58737 0.81441 0.06968 0.0
C818 C 0.58705 0.79845 0.0938 0.0
C819 C 0.58317 0.80125 0.12743 0.0
C820 C 0.58876 0.80956 0.0337 0.0
C821 C 0.60788 0.80673 0.02252 0.0
C822 C 0.57083 0.80682 0.0107 0.0
C823 C 0.5493 0.80787 0.02133 0.0
C824 C 0.53387 0.79217 0.04604 0.0
C825 C 0.51371 0.79337 0.05612 0.0
C826 C 0.50867 0.81005 0.04144 0.0
C827 C 0.52374 0.82552 0.01657 0.0
C828 C 0.54396 0.82442 0.00644 0.0
C829 C 0.58557 0.75872 0.89229 0.0
C830 C 0.58398 0.77197 0.86544 0.0
C831 C 0.58889 0.76764 0.92497 0.0
C832 C 0.59058 0.7899 0.93132 0.0
C833 C 0.58964 0.80342 0.90448 0.0
C834 C 0.5865 0.79461 0.87184 0.0
C835 C 0.59142 0.7982 0.96614 0.0
C836 C 0.57261 0.80154 0.97714 0.0
C837 C 0.60947 0.80112 0.98897 0.0
C838 C 0.63027 0.79873 0.97835 0.0
C839 C 0.64474 0.81222 0.95132 0.0
C840 C 0.6642 0.80977 0.94129 0.0
C841 C 0.66948 0.79398 0.95822 0.0
C842 C 0.65532 0.78065 0.98528 0.0
C843 C 0.63582 0.78302 0.9954 0.0
H844 H 0.68456 0.79211 0.95042 0.0
H845 H 0.49304 0.81096 0.04926 0.0
H846 H 0.83725 0.61563 0.3585 0.0
H847 H 0.82886 0.62185 0.41657 0.0
H848 H 0.78931 0.5453 0.43182 0.0
H849 H 0.79741 0.53893 0.37425 0.0
H850 H 0.76386 0.56975 0.44767 0.0
H851 H 0.84145 0.57578 0.46655 0.0
H852 H 0.88498 0.59371 0.45757 0.0
H853 H 0.89626 0.66207 0.49065 0.0
H854 H 0.85272 0.64459 0.49936 0.0
H855 H 0.74138 0.53905 0.61547 0.0
H856 H 0.75414 0.546 0.55728 0.0
H857 H 0.7969 0.62198 0.57642 0.0
H858 H 0.78413 0.61509 0.63525 0.0
H859 H 0.82184 0.60651 0.5411 0.0
H860 H 0.74584 0.60032 0.52996 0.0
H861 H 0.70246 0.58375 0.53855 0.0
H862 H 0.68791 0.5184 0.48972 0.0
H863 H 0.73123 0.53442 0.48126 0.0
C864 C 0.82705 0.60018 0.37444 0.0
C865 C 0.81802 0.57679 0.36185 0.0
C866 C 0.82233 0.60376 0.40753 0.0
C867 C 0.80837 0.584 0.42827 0.0
C868 C 0.80007 0.56075 0.4161 0.0
C869 C 0.80495 0.55716 0.38329 0.0
C870 C 0.80102 0.58714 0.46209 0.0
C871 C 0.77648 0.57769 0.46819 0.0
C872 C 0.81767 0.59852 0.48831 0.0
C873 C 0.84381 0.60896 0.48318 0.0
C874 C 0.85319 0.59469 0.47158 0.0
C875 C 0.87787 0.60475 0.46662 0.0
C876 C 0.89337 0.62904 0.47342 0.0
C877 C 0.88423 0.64328 0.48531 0.0
C878 C 0.85955 0.6333 0.49028 0.0
C879 C 0.75308 0.55733 0.60724 0.0
C880 C 0.76155 0.57655 0.62994 0.0
C881 C 0.76042 0.56127 0.57392 0.0
C882 C 0.7762 0.58456 0.56235 0.0
C883 C 0.78465 0.60388 0.58482 0.0
C884 C 0.77736 0.59992 0.61837 0.0
C885 C 0.78448 0.58816 0.52708 0.0
C886 C 0.80918 0.59897 0.52056 0.0
C887 C 0.76798 0.5783 0.50026 0.0
C888 C 0.74184 0.56856 0.50512 0.0
C889 C 0.73341 0.58236 0.52124 0.0
C890 C 0.70882 0.57307 0.52606 0.0
C891 C 0.69244 0.55003 0.51472 0.0
C892 C 0.70062 0.53625 0.49848 0.0
C893 C 0.72519 0.54544 0.49362 0.0
H894 H 0.67342 0.54287 0.51848 0.0
H895 H 0.91247 0.6368 0.46956 0.0
H896 H 0.26417 0.80575 0.87437 0.0
H897 H 0.25081 0.79961 0.93254 0.0
H898 H 0.20817 0.83274 0.91273 0.0
H899 H 0.22143 0.83891 0.85396 0.0
H900 H 0.23908 0.84369 0.98097 0.0
H901 H 0.17586 0.78235 0.91212 0.0
H902 H 0.16144 0.7524 0.86666 0.0
H903 H 0.19102 0.71405 0.91675 0.0
H904 H 0.20598 0.74403 0.96224 0.0
H905 H 0.17739 0.79261 0.13576 0.0
H906 H 0.18531 0.80747 0.07791 0.0
H907 H 0.20967 0.75773 0.05423 0.0
H908 H 0.20154 0.74273 0.11146 0.0
H909 H 0.18268 0.75785 0.00585 0.0
H910 H 0.24874 0.81837 0.07059 0.0
H911 H 0.26733 0.84862 0.11533 0.0
H912 H 0.2364 0.88851 0.07374 0.0
H913 H 0.21736 0.85829 0.02898 0.0
C914 C 0.25248 0.81235 0.88252 0.0
C915 C 0.24382 0.82279 0.85961 0.0
C916 C 0.2448 0.80874 0.91571 0.0
C917 C 0.22851 0.81568 0.92671 0.0
C918 C 0.22083 0.82736 0.90456 0.0
C919 C 0.22829 0.83072 0.87107 0.0
C920 C 0.21783 0.80828 0.96036 0.0
C921 C 0.22629 0.82506 0.98647 0.0
C922 C 0.20163 0.78388 0.96734 0.0
C923 C 0.19219 0.76553 0.94043 0.0
C924 C 0.17944 0.76763 0.9133 0.0
C925 C 0.17115 0.75063 0.88755 0.0
C926 C 0.17535 0.73135 0.88878 0.0
C927 C 0.18779 0.72899 0.91582 0.0
C928 C 0.19615 0.74597 0.94161 0.0
C929 C 0.18439 0.78487 0.11811 0.0
C930 C 0.18875 0.76644 0.12807 0.0
C931 C 0.18893 0.79337 0.08512 0.0
C932 C 0.19826 0.78383 0.06177 0.0
C933 C 0.20233 0.76526 0.07169 0.0
C934 C 0.19761 0.75665 0.10442 0.0
C935 C 0.20422 0.79316 0.02703 0.0
C936 C 0.19495 0.77664 0.00053 0.0
C937 C 0.21993 0.81776 0.01988 0.0
C938 C 0.23138 0.83593 0.04672 0.0
C939 C 0.24575 0.83349 0.07116 0.0
C940 C 0.25639 0.85064 0.09648 0.0
C941 C 0.25298 0.87043 0.09745 0.0
C942 C 0.23898 0.87314 0.07301 0.0
C943 C 0.22826 0.85601 0.04766 0.0
H944 H 0.26125 0.8837 0.11707 0.0
H945 H 0.16894 0.71822 0.8688 0.0
H946 H 0.4181 0.21288 0.63924 0.0
H947 H 0.41032 0.217 0.58066 0.0
H948 H 0.41002 0.15146 0.55706 0.0
H949 H 0.41765 0.14706 0.61598 0.0
H950 H 0.43959 0.18732 0.51692 0.0
H951 H 0.35845 0.15427 0.55239 0.0
H952 H 0.32519 0.15016 0.58769 0.0
H953 H 0.34183 0.22148 0.5612 0.0
H954 H 0.37543 0.22617 0.52611 0.0
H955 H 0.41682 0.19455 0.3473 0.0
H956 H 0.40957 0.17927 0.40433 0.0
H957 H 0.41094 0.24342 0.43885 0.0
H958 H 0.41689 0.2584 0.38132 0.0
H959 H 0.37748 0.204 0.47231 0.0
H960 H 0.46097 0.23848 0.44254 0.0
H961 H 0.49462 0.2432 0.40752 0.0
H962 H 0.47371 0.1694 0.42428 0.0
H963 H 0.43972 0.16416 0.45906 0.0
C964 C 0.41575 0.19896 0.62182 0.0
C965 C 0.41853 0.17964 0.63231 0.0
C966 C 0.4113 0.20137 0.58827 0.0
C967 C 0.4094 0.18445 0.56452 0.0
C968 C 0.41143 0.16473 0.57502 0.0
C969 C 0.41589 0.1623 0.60864 0.0
C970 C 0.4076 0.18868 0.52843 0.0
C971 C 0.42568 0.19042 0.50703 0.0
C972 C 0.38984 0.19339 0.51575 0.0
C973 C 0.36959 0.19063 0.53679 0.0
C974 C 0.35515 0.16915 0.55429 0.0
C975 C 0.3362 0.1667 0.57423 0.0
C976 C 0.33143 0.18556 0.57674 0.0
C977 C 0.34556 0.20689 0.55925 0.0
C978 C 0.36454 0.20944 0.53929 0.0
C979 C 0.41493 0.2052 0.36675 0.0
C980 C 0.41764 0.22785 0.35963 0.0
C981 C 0.41102 0.1965 0.39947 0.0
C982 C 0.41019 0.21041 0.42589 0.0
C983 C 0.41169 0.23247 0.4188 0.0
C984 C 0.41537 0.24112 0.38596 0.0
C985 C 0.40953 0.20275 0.46104 0.0
C986 C 0.39113 0.20051 0.48221 0.0
C987 C 0.42705 0.19765 0.47365 0.0
C988 C 0.44767 0.20087 0.45311 0.0
C989 C 0.46346 0.22322 0.43858 0.0
C990 C 0.4826 0.226 0.4188 0.0
C991 C 0.48626 0.2066 0.4136 0.0
C992 C 0.47083 0.1844 0.42828 0.0
C993 C 0.45164 0.18152 0.44805 0.0
H994 H 0.50107 0.20877 0.39825 0.0
H995 H 0.31675 0.18363 0.59219 0.0
H996 H 0.77948 0.5296 0.10895 0.0
H997 H 0.78151 0.54378 0.05206 0.0
H998 H 0.80991 0.61613 0.08818 0.0
H999 H 0.8081 0.60197 0.14606 0.0
H1000 H 0.77109 0.59842 0.03504 0.0
H1001 H 0.84873 0.61027 0.05406 0.0
H1002 H 0.87869 0.60065 0.0761 0.0
H1003 H 0.84993 0.53797 0.01374 0.0
H1004 H 0.81949 0.54693 0.99178 0.0
H1005 H 0.77919 0.60349 0.85104 0.0
H1006 H 0.79439 0.61682 0.90831 0.0
H1007 H 0.77052 0.54357 0.93629 0.0
H1008 H 0.75493 0.5302 0.87997 0.0
H1009 H 0.81952 0.57972 0.95695 0.0
H1010 H 0.73557 0.5628 0.95445 0.0
H1011 H 0.70433 0.57098 0.93346 0.0
H1012 H 0.74634 0.64444 0.96478 0.0
H1013 H 0.77798 0.63671 0.98554 0.0
C1014 C 0.78602 0.54852 0.10504 0.0
C1015 C 0.79379 0.56471 0.13198 0.0
C1016 C 0.7872 0.5566 0.07245 0.0
C1017 C 0.79615 0.581 0.066 0.0
C1018 C 0.80306 0.59723 0.0928 0.0
C1019 C 0.80202 0.58912 0.12571 0.0
C1020 C 0.79861 0.58885 0.03076 0.0
C1021 C 0.78231 0.59525 0.01794 0.0
C1022 C 0.81327 0.58468 0.00859 0.0
C1023 C 0.83178 0.5793 0.02127 0.0
C1024 C 0.8487 0.59436 0.04516 0.0
C1025 C 0.86577 0.58902 0.05765 0.0
C1026 C 0.86621 0.56871 0.04633 0.0
C1027 C 0.84959 0.55372 0.02246 0.0
C1028 C 0.83244 0.55895 0.00993 0.0
C1029 C 0.7774 0.59035 0.86947 0.0
C1030 C 0.76582 0.56583 0.86128 0.0
C1031 C 0.78604 0.59797 0.90201 0.0
C1032 C 0.78361 0.58114 0.9263 0.0
C1033 C 0.77266 0.5568 0.91777 0.0
C1034 C 0.76364 0.54918 0.88568 0.0
C1035 C 0.79121 0.58809 0.96134 0.0
C1036 C 0.80928 0.58424 0.97405 0.0
C1037 C 0.77832 0.59476 0.98331 0.0
C1038 C 0.75924 0.59928 0.97109 0.0
C1039 C 0.73822 0.58074 0.95657 0.0
C1040 C 0.72044 0.58528 0.94478 0.0
C1041 C 0.72339 0.60824 0.94766 0.0
C1042 C 0.74411 0.62668 0.96247 0.0
C1043 C 0.76197 0.62223 0.97425 0.0
H1044 H 0.7096 0.61173 0.93852 0.0
H1045 H 0.87944 0.56461 0.05604 0.0
H1046 H 0.21276 0.8113 0.63954 0.0
H1047 H 0.19869 0.80789 0.58137 0.0
H1048 H 0.23137 0.76541 0.55671 0.0
H1049 H 0.24569 0.76914 0.61388 0.0
H1050 H 0.244 0.80044 0.51279 0.0
H1051 H 0.17008 0.74089 0.56714 0.0
H1052 H 0.1368 0.72776 0.60745 0.0
H1053 H 0.11741 0.77664 0.5638 0.0
H1054 H 0.15078 0.79027 0.52347 0.0
H1055 H 0.19142 0.72226 0.38194 0.0
H1056 H 0.19547 0.73684 0.43918 0.0
H1057 H 0.18236 0.79296 0.40607 0.0
H1058 H 0.17846 0.77857 0.34803 0.0
H1059 H 0.1591 0.76187 0.47605 0.0
H1060 H 0.23168 0.81665 0.41552 0.0
H1061 H 0.26313 0.82475 0.37384 0.0
H1062 H 0.2842 0.78134 0.42975 0.0
H1063 H 0.25254 0.7726 0.47141 0.0
C1064 C 0.21664 0.80104 0.62167 0.0
C1065 C 0.23045 0.79063 0.63108 0.0
C1066 C 0.20865 0.79913 0.58853 0.0
C1067 C 0.21416 0.78655 0.56466 0.0
C1068 C 0.22718 0.77548 0.57456 0.0
C1069 C 0.23529 0.77755 0.60731 0.0
C1070 C 0.20726 0.78516 0.52896 0.0
C1071 C 0.22544 0.79225 0.50484 0.0
C1072 C 0.18312 0.77504 0.51843 0.0
C1073 C 0.16309 0.76682 0.54263 0.0
C1074 C 0.15884 0.74898 0.56634 0.0
C1075 C 0.13994 0.74142 0.58915 0.0
C1076 C 0.12505 0.75142 0.58827 0.0
C1077 C 0.12899 0.76896 0.56451 0.0
C1078 C 0.14789 0.7766 0.54167 0.0
C1079 C 0.18903 0.73749 0.38674 0.0
C1080 C 0.18488 0.74944 0.36044 0.0
C1081 C 0.19122 0.7457 0.4195 0.0
C1082 C 0.18921 0.76591 0.42666 0.0
C1083 C 0.1838 0.77722 0.40088 0.0
C1084 C 0.18173 0.76907 0.36783 0.0
C1085 C 0.19579 0.77643 0.46046 0.0
C1086 C 0.17768 0.77098 0.48411 0.0
C1087 C 0.21999 0.78791 0.47076 0.0
C1088 C 0.23966 0.79388 0.44647 0.0
C1089 C 0.24294 0.80873 0.41882 0.0
C1090 C 0.2608 0.81344 0.3952 0.0
C1091 C 0.27563 0.80353 0.39912 0.0
C1092 C 0.2727 0.789 0.42675 0.0
C1093 C 0.25482 0.78419 0.45039 0.0
H1094 H 0.2894 0.80714 0.38076 0.0
H1095 H 0.11042 0.74554 0.60594 0.0
H1096 H 0.40474 0.17955 0.85337 0.0
H1097 H 0.39467 0.183 0.91173 0.0
H1098 H 0.47011 0.22264 0.93606 0.0
H1099 H 0.48007 0.21846 0.8787 0.0
H1100 H 0.4478 0.19089 0.98181 0.0
H1101 H 0.43379 0.2492 0.9229 0.0
H1102 H 0.41383 0.26148 0.88105 0.0
H1103 H 0.34538 0.21385 0.92537 0.0
H1104 H 0.36495 0.2011 0.96726 0.0
H1105 H 0.47294 0.27213 0.10911 0.0
H1106 H 0.46339 0.25608 0.05243 0.0
H1107 H 0.39285 0.20199 0.08456 0.0
H1108 H 0.40235 0.21785 0.14201 0.0
H1109 H 0.40165 0.23063 0.01396 0.0
H1110 H 0.41981 0.17832 0.07965 0.0
H1111 H 0.44334 0.17157 0.12258 0.0
H1112 H 0.50744 0.21243 0.0647 0.0
H1113 H 0.48435 0.2198 0.02174 0.0
C1114 C 0.41908 0.18901 0.87129 0.0
C1115 C 0.44316 0.19866 0.86165 0.0
C1116 C 0.41333 0.19101 0.90454 0.0
C1117 C 0.43164 0.20311 0.9283 0.0
C1118 C 0.45565 0.21299 0.91833 0.0
C1119 C 0.46134 0.21067 0.88547 0.0
C1120 C 0.42639 0.20574 0.96371 0.0
C1121 C 0.43752 0.1994 0.98874 0.0
C1122 C 0.41247 0.21627 0.973 0.0
C1123 C 0.40077 0.22398 0.94789 0.0
C1124 C 0.41446 0.24122 0.92354 0.0
C1125 C 0.40323 0.24829 0.89985 0.0
C1126 C 0.37834 0.23839 0.90048 0.0
C1127 C 0.36465 0.22146 0.92486 0.0
C1128 C 0.37579 0.21431 0.94858 0.0
C1129 C 0.45525 0.25703 0.10417 0.0
C1130 C 0.43847 0.24608 0.13006 0.0
C1131 C 0.44982 0.24796 0.07175 0.0
C1132 C 0.42749 0.22788 0.06456 0.0
C1133 C 0.41014 0.21759 0.08981 0.0
C1134 C 0.41565 0.22658 0.12252 0.0
C1135 C 0.42381 0.2166 0.03135 0.0
C1136 C 0.41112 0.22131 0.00691 0.0
C1137 C 0.43656 0.20487 0.0224 0.0
C1138 C 0.45035 0.1997 0.04757 0.0
C1139 C 0.43894 0.18596 0.07617 0.0
C1140 C 0.4522 0.18202 0.10051 0.0
C1141 C 0.47687 0.19159 0.0964 0.0
C1142 C 0.48832 0.20502 0.06786 0.0
C1143 C 0.47515 0.20906 0.04348 0.0
H1144 H 0.48712 0.18857 0.11531 0.0
H1145 H 0.36968 0.24388 0.88212 0.0
H1146 H 0.22993 0.41078 0.36298 0.0
H1147 H 0.22057 0.4034 0.42288 0.0
H1148 H 0.26121 0.47962 0.44167 0.0
H1149 H 0.27128 0.48693 0.38252 0.0
H1150 H 0.27094 0.45797 0.48779 0.0
H1151 H 0.19779 0.44633 0.43604 0.0
H1152 H 0.1635 0.42743 0.39711 0.0
H1153 H 0.14073 0.35874 0.44201 0.0
H1154 H 0.1751 0.37722 0.48095 0.0
H1155 H 0.22282 0.48367 0.62721 0.0
H1156 H 0.23184 0.47713 0.57026 0.0
H1157 H 0.20151 0.40166 0.59065 0.0
H1158 H 0.19248 0.4081 0.64836 0.0
H1159 H 0.18665 0.41425 0.52759 0.0
H1160 H 0.25802 0.43087 0.5873 0.0
H1161 H 0.29107 0.45344 0.62717 0.0
H1162 H 0.31637 0.51693 0.56724 0.0
H1163 H 0.28327 0.49484 0.52723 0.0
C1164 C 0.23686 0.4259 0.38 0.0
C1165 C 0.25129 0.44942 0.36814 0.0
C1166 C 0.23146 0.42168 0.41417 0.0
C1167 C 0.24003 0.44097 0.43681 0.0
C1168 C 0.25451 0.46442 0.42481 0.0
C1169 C 0.26017 0.46859 0.39092 0.0
C1170 C 0.23383 0.43722 0.47297 0.0
C1171 C 0.25249 0.44839 0.49642 0.0
C1172 C 0.2098 0.4242 0.48443 0.0
C1173 C 0.18916 0.41309 0.46108 0.0
C1174 C 0.18557 0.42717 0.43742 0.0
C1175 C 0.16611 0.41654 0.41539 0.0
C1176 C 0.15 0.39188 0.417 0.0
C1177 C 0.15327 0.37782 0.44073 0.0
C1178 C 0.17272 0.38836 0.46279 0.0
C1179 C 0.218 0.46564 0.61968 0.0
C1180 C 0.20699 0.44639 0.64225 0.0
C1181 C 0.22324 0.46197 0.58715 0.0
C1182 C 0.21753 0.43898 0.57646 0.0
C1183 C 0.20611 0.41955 0.59861 0.0
C1184 C 0.20105 0.42326 0.63148 0.0
C1185 C 0.2237 0.43574 0.54194 0.0
C1186 C 0.20509 0.42326 0.5189 0.0
C1187 C 0.24774 0.44798 0.53074 0.0
C1188 C 0.26808 0.46119 0.55431 0.0
C1189 C 0.27056 0.44967 0.58268 0.0
C1190 C 0.28932 0.46238 0.60531 0.0
C1191 C 0.3058 0.48661 0.59976 0.0
C1192 C 0.30361 0.49815 0.57149 0.0
C1193 C 0.28487 0.48553 0.54879 0.0
H1194 H 0.32027 0.49644 0.61734 0.0
H1195 H 0.13494 0.38369 0.39993 0.0
H1196 H 0.81465 0.27872 0.89358 0.0
H1197 H 0.81317 0.26531 0.95104 0.0
H1198 H 0.80997 0.20056 0.91511 0.0
H1199 H 0.81139 0.21392 0.85718 0.0
H1200 H 0.7749 0.1911 0.95944 0.0
H1201 H 0.85892 0.24028 0.95733 0.0
H1202 H 0.89795 0.27624 0.94562 0.0
H1203 H 0.88074 0.31756 0.01276 0.0
H1204 H 0.84144 0.28195 0.0245 0.0
H1205 H 0.795 0.19984 0.15434 0.0
H1206 H 0.81146 0.20345 0.09766 0.0
H1207 H 0.75438 0.21264 0.05752 0.0
H1208 H 0.73801 0.20916 0.11351 0.0
H1209 H 0.8272 0.24159 0.0521 0.0
H1210 H 0.73528 0.1823 0.98576 0.0
H1211 H 0.69677 0.14576 0.99776 0.0
H1212 H 0.73179 0.12248 0.0673 0.0
H1213 H 0.77059 0.15868 0.05534 0.0
C1214 C 0.81395 0.26177 0.89786 0.0
C1215 C 0.81302 0.2473 0.87092 0.0
C1216 C 0.81331 0.25422 0.93074 0.0
C1217 C 0.81173 0.23206 0.93735 0.0
C1218 C 0.81136 0.21779 0.91051 0.0
C1219 C 0.81217 0.22544 0.8775 0.0
C1220 C 0.80796 0.22304 0.97219 0.0
C1221 C 0.78652 0.20191 0.97969 0.0
C1222 C 0.82346 0.23686 0.99851 0.0
C1223 C 0.84716 0.2584 0.99173 0.0
C1224 C 0.86338 0.25706 0.96945 0.0
C1225 C 0.88557 0.27739 0.96282 0.0
C1226 C 0.89181 0.29917 0.97842 0.0
C1227 C 0.87589 0.30066 0.00072 0.0
C1228 C 0.85366 0.28039 0.00742 0.0
C1229 C 0.786 0.20259 0.13335 0.0
C1230 C 0.76523 0.20421 0.1383 0.0
C1231 C 0.79541 0.20466 0.1011 0.0
C1232 C 0.78392 0.20797 0.07346 0.0
C1233 C 0.76328 0.20969 0.07849 0.0
C1234 C 0.75403 0.20784 0.11055 0.0
C1235 C 0.79354 0.21049 0.03916 0.0
C1236 C 0.81598 0.2304 0.0318 0.0
C1237 C 0.77911 0.1954 0.01292 0.0
C1238 C 0.75587 0.17329 0.0197 0.0
C1239 C 0.73482 0.1693 0.00341 0.0
C1240 C 0.71292 0.14866 0.01026 0.0
C1241 C 0.71183 0.13182 0.03331 0.0
C1242 C 0.73265 0.13556 0.0495 0.0
C1243 C 0.7546 0.15615 0.04272 0.0
H1244 H 0.69485 0.11588 0.03861 0.0
H1245 H 0.909 0.31489 0.97325 0.0
H1246 H 0.52684 0.73069 0.61567 0.0
H1247 H 0.53792 0.74163 0.55751 0.0
H1248 H 0.60963 0.79446 0.58758 0.0
H1249 H 0.59848 0.78366 0.64659 0.0
H1250 H 0.59171 0.81212 0.54088 0.0
H1251 H 0.60203 0.74511 0.5488 0.0
H1252 H 0.59316 0.70457 0.56514 0.0
H1253 H 0.52937 0.67352 0.50494 0.0
H1254 H 0.53761 0.71386 0.48863 0.0
H1255 H 0.59824 0.81864 0.3575 0.0
H1256 H 0.60971 0.81246 0.41391 0.0
H1257 H 0.53518 0.76496 0.43766 0.0
H1258 H 0.52364 0.77148 0.38214 0.0
H1259 H 0.56956 0.74839 0.45546 0.0
H1260 H 0.55639 0.81764 0.46271 0.0
H1261 H 0.56636 0.85858 0.44656 0.0
H1262 H 0.63923 0.88565 0.47792 0.0
H1263 H 0.62972 0.84475 0.49381 0.0
C1264 C 0.54502 0.74459 0.61006 0.0
C1265 C 0.56182 0.75628 0.63571 0.0
C1266 C 0.55138 0.75072 0.57672 0.0
C1267 C 0.57474 0.76852 0.56817 0.0
C1268 C 0.59158 0.78051 0.59368 0.0
C1269 C 0.58518 0.77434 0.62729 0.0
C1270 C 0.58068 0.77493 0.53245 0.0
C1271 C 0.5876 0.79836 0.5222 0.0
C1272 C 0.57551 0.75702 0.50805 0.0
C1273 C 0.57044 0.73259 0.51752 0.0
C1274 C 0.58603 0.72965 0.53917 0.0
C1275 C 0.58112 0.70669 0.54843 0.0
C1276 C 0.56071 0.68648 0.53609 0.0
C1277 C 0.54519 0.68919 0.51444 0.0
C1278 C 0.55 0.71211 0.50512 0.0
C1279 C 0.58439 0.8068 0.3748 0.0
C1280 C 0.56006 0.79563 0.36569 0.0
C1281 C 0.59095 0.8033 0.40685 0.0
C1282 C 0.57325 0.78821 0.4297 0.0
C1283 C 0.54906 0.77657 0.42021 0.0
C1284 C 0.5425 0.78044 0.38862 0.0
C1285 C 0.57929 0.78511 0.46429 0.0
C1286 C 0.5746 0.7623 0.47421 0.0
C1287 C 0.58685 0.80363 0.48829 0.0
C1288 C 0.59244 0.82815 0.47899 0.0
C1289 C 0.57458 0.8323 0.46586 0.0
C1290 C 0.58014 0.85549 0.45681 0.0
C1291 C 0.60344 0.8747 0.46109 0.0
C1292 C 0.62121 0.87075 0.47453 0.0
C1293 C 0.61575 0.84758 0.48356 0.0
H1294 H 0.60771 0.89264 0.45408 0.0
H1295 H 0.55693 0.66872 0.54329 0.0
H1296 H 0.1938 0.50828 0.28583 0.0
H1297 H 0.19246 0.54465 0.27285 0.0
H1298 H 0.26618 0.57932 0.24023 0.0
H1299 H 0.26772 0.54314 0.25361 0.0
H1300 H 0.25788 0.61011 0.27377 0.0
H1301 H 0.22088 0.55589 0.1831 0.0
H1302 H 0.19326 0.5174 0.15583 0.0
H1303 H 0.13287 0.52084 0.19468 0.0
H1304 H 0.16014 0.5592 0.22262 0.0
H1305 H 0.24442 0.70401 0.20037 0.0
H1306 H 0.25114 0.66968 0.20107 0.0
H1307 H 0.18213 0.62627 0.24779 0.0
H1308 H 0.17535 0.66028 0.24723 0.0
H1309 H 0.19222 0.60155 0.19951 0.0
H1310 H 0.23122 0.65541 0.29347 0.0
H1311 H 0.25983 0.69466 0.31798 0.0
H1312 H 0.31822 0.69221 0.26999 0.0
H1313 H 0.2899 0.65335 0.24423 0.0
C1314 C 0.20974 0.52365 0.276 0.0
C1315 C 0.23075 0.52265 0.27029 0.0
C1316 C 0.20896 0.54442 0.26854 0.0
C1317 C 0.22905 0.56449 0.25479 0.0
C1318 C 0.25041 0.56399 0.2506 0.0
C1319 C 0.25127 0.54327 0.25833 0.0
C1320 C 0.22744 0.58567 0.24397 0.0
C1321 C 0.24378 0.60831 0.25708 0.0
C1322 C 0.20907 0.58334 0.22212 0.0
C1323 C 0.19257 0.56035 0.20516 0.0
C1324 C 0.20171 0.54837 0.18602 0.0
C1325 C 0.18612 0.52658 0.17042 0.0
C1326 C 0.16133 0.51666 0.17357 0.0
C1327 C 0.15208 0.52854 0.19228 0.0
C1328 C 0.1676 0.55032 0.20797 0.0
C1329 C 0.23051 0.68699 0.21014 0.0
C1330 C 0.20949 0.68484 0.22412 0.0
C1331 C 0.23441 0.66747 0.21064 0.0
C1332 C 0.21724 0.64558 0.22486 0.0
C1333 C 0.19561 0.64304 0.23679 0.0
C1334 C 0.19183 0.66251 0.2366 0.0
C1335 C 0.22222 0.62575 0.23 0.0
C1336 C 0.20653 0.60336 0.21579 0.0
C1337 C 0.24133 0.6284 0.25052 0.0
C1338 C 0.25839 0.65162 0.2665 0.0
C1339 C 0.25014 0.66337 0.28781 0.0
C1340 C 0.26631 0.68557 0.30192 0.0
C1341 C 0.29084 0.69601 0.29539 0.0
C1342 C 0.29923 0.68422 0.27482 0.0
C1343 C 0.28312 0.66212 0.26041 0.0
H1344 H 0.30333 0.71317 0.30639 0.0
H1345 H 0.14928 0.49979 0.16148 0.0
H1346 H 0.69156 0.19189 0.76652 0.0
H1347 H 0.65497 0.19229 0.75317 0.0
H1348 H 0.68888 0.26706 0.78025 0.0
H1349 H 0.72528 0.26664 0.79538 0.0
H1350 H 0.64486 0.24454 0.80273 0.0
H1351 H 0.68155 0.24935 0.69742 0.0
H1352 H 0.70095 0.2378 0.65375 0.0
H1353 H 0.63716 0.16898 0.64437 0.0
H1354 H 0.6175 0.17996 0.68835 0.0
H1355 H 0.54317 0.23717 0.69257 0.0
H1356 H 0.58459 0.24502 0.69599 0.0
H1357 H 0.5639 0.19275 0.77504 0.0
H1358 H 0.52275 0.18455 0.77164 0.0
H1359 H 0.60511 0.21262 0.69312 0.0
H1360 H 0.6048 0.22216 0.83752 0.0
H1361 H 0.58583 0.23536 0.87971 0.0
H1362 H 0.57961 0.28102 0.80694 0.0
H1363 H 0.59886 0.26842 0.76448 0.0
C1364 C 0.69129 0.20838 0.77029 0.0
C1365 C 0.7117 0.22927 0.78192 0.0
C1366 C 0.67035 0.20864 0.76211 0.0
C1367 C 0.66936 0.22986 0.7649 0.0
C1368 C 0.68932 0.25054 0.77753 0.0
C1369 C 0.71024 0.25026 0.786 0.0
C1370 C 0.64734 0.23024 0.75502 0.0
C1371 C 0.63633 0.23776 0.77866 0.0
C1372 C 0.63645 0.22198 0.72323 0.0
C1373 C 0.64809 0.21544 0.69636 0.0
C1374 C 0.6717 0.23171 0.68618 0.0
C1375 C 0.68274 0.22526 0.66135 0.0
C1376 C 0.6703 0.20265 0.64635 0.0
C1377 C 0.64677 0.18648 0.65603 0.0
C1378 C 0.63566 0.19282 0.68088 0.0
C1379 C 0.54737 0.22703 0.71021 0.0
C1380 C 0.52969 0.21035 0.73198 0.0
C1381 C 0.571 0.23154 0.71212 0.0
C1382 C 0.57722 0.21963 0.73602 0.0
C1383 C 0.55942 0.20226 0.75665 0.0
C1384 C 0.5359 0.19761 0.75461 0.0
C1385 C 0.60245 0.22604 0.74131 0.0
C1386 C 0.61398 0.21979 0.7169 0.0
C1387 C 0.6141 0.23596 0.77206 0.0
C1388 C 0.60313 0.24418 0.79776 0.0
C1389 C 0.59953 0.23514 0.83058 0.0
C1390 C 0.58869 0.2425 0.85453 0.0
C1391 C 0.58145 0.25896 0.84597 0.0
C1392 C 0.58513 0.2682 0.81349 0.0
C1393 C 0.59599 0.26093 0.78947 0.0
H1394 H 0.57303 0.2646 0.86453 0.0
H1395 H 0.67887 0.19764 0.62721 0.0
H1396 H 0.49029 0.69745 0.22086 0.0
H1397 H 0.45145 0.66145 0.21281 0.0
H1398 H 0.42299 0.68119 0.29703 0.0
H1399 H 0.46206 0.71721 0.30555 0.0
H1400 H 0.40784 0.63565 0.29935 0.0
H1401 H 0.40885 0.68796 0.21726 0.0
H1402 H 0.42408 0.71718 0.17109 0.0
H1403 H 0.42473 0.66432 0.10614 0.0
H1404 H 0.40975 0.63482 0.15213 0.0
H1405 H 0.29224 0.54513 0.20419 0.0
H1406 H 0.32555 0.58663 0.20802 0.0
H1407 H 0.37091 0.56118 0.24845 0.0
H1408 H 0.33767 0.52004 0.24586 0.0
H1409 H 0.37107 0.6139 0.1862 0.0
H1410 H 0.40074 0.5934 0.31452 0.0
H1411 H 0.38183 0.56583 0.36211 0.0
H1412 H 0.31401 0.55965 0.33782 0.0
H1413 H 0.33258 0.58752 0.29051 0.0
C1414 C 0.47587 0.69406 0.23791 0.0
C1415 C 0.47929 0.71023 0.26385 0.0
C1416 C 0.45355 0.67362 0.23297 0.0
C1417 C 0.4341 0.66895 0.25374 0.0
C1418 C 0.43759 0.68469 0.28027 0.0
C1419 C 0.45993 0.70525 0.28512 0.0
C1420 C 0.41042 0.64719 0.24812 0.0
C1421 C 0.39976 0.631 0.27466 0.0
C1422 C 0.39927 0.64152 0.21621 0.0
C1423 C 0.40821 0.65915 0.18828 0.0
C1424 C 0.41231 0.68256 0.19321 0.0
C1425 C 0.42091 0.69919 0.16704 0.0
C1426 C 0.42539 0.69262 0.13569 0.0
C1427 C 0.42123 0.66938 0.13045 0.0
C1428 C 0.41264 0.65267 0.15656 0.0
C1429 C 0.30946 0.54842 0.21333 0.0
C1430 C 0.31225 0.52945 0.22544 0.0
C1431 C 0.32845 0.57211 0.2155 0.0
C1432 C 0.35047 0.577 0.22942 0.0
C1433 C 0.35385 0.55785 0.2385 0.0
C1434 C 0.33488 0.53433 0.23686 0.0
C1435 C 0.36951 0.60193 0.23693 0.0
C1436 C 0.37911 0.61874 0.21089 0.0
C1437 C 0.37918 0.6086 0.26961 0.0
C1438 C 0.36806 0.59245 0.2988 0.0
C1439 C 0.38184 0.58633 0.3195 0.0
C1440 C 0.37117 0.57061 0.3464 0.0
C1441 C 0.34673 0.56095 0.35294 0.0
C1442 C 0.33293 0.5671 0.3327 0.0
C1443 C 0.34352 0.58286 0.30583 0.0
H1444 H 0.33849 0.54873 0.37371 0.0
H1445 H 0.43207 0.70552 0.11545 0.0
H1446 H 0.75069 0.29519 0.72452 0.0
H1447 H 0.74673 0.33108 0.72766 0.0
H1448 H 0.8217 0.3736 0.75359 0.0
H1449 H 0.82541 0.3377 0.75172 0.0
H1450 H 0.79666 0.38268 0.79527 0.0
H1451 H 0.79767 0.37664 0.67482 0.0
H1452 H 0.78392 0.35642 0.62019 0.0
H1453 H 0.71382 0.34668 0.63786 0.0
H1454 H 0.72707 0.36659 0.69281 0.0
H1455 H 0.81509 0.50004 0.77625 0.0
H1456 H 0.81564 0.46255 0.76983 0.0
H1457 H 0.73901 0.42417 0.75505 0.0
H1458 H 0.73839 0.46162 0.76073 0.0
H1459 H 0.76203 0.4117 0.70868 0.0
H1460 H 0.76159 0.41914 0.82793 0.0
H1461 H 0.77532 0.43949 0.88246 0.0
H1462 H 0.84457 0.44662 0.86677 0.0
H1463 H 0.83135 0.4266 0.8119 0.0
C1464 C 0.7664 0.31232 0.73016 0.0
C1465 C 0.78836 0.31376 0.73785 0.0
C1466 C 0.76414 0.33282 0.73198 0.0
C1467 C 0.78396 0.35512 0.74077 0.0
C1468 C 0.80612 0.35661 0.74699 0.0
C1469 C 0.80826 0.33613 0.74576 0.0
C1470 C 0.78149 0.37667 0.74565 0.0
C1471 C 0.7894 0.38919 0.77608 0.0
C1472 C 0.77123 0.38473 0.72117 0.0
C1473 C 0.7633 0.37289 0.68806 0.0
C1474 C 0.77928 0.37003 0.66716 0.0
C1475 C 0.77158 0.35865 0.63612 0.0
C1476 C 0.748 0.35021 0.6256 0.0
C1477 C 0.73207 0.3532 0.64606 0.0
C1478 C 0.73967 0.36455 0.67713 0.0
C1479 C 0.79837 0.48364 0.77164 0.0
C1480 C 0.77671 0.48386 0.76907 0.0
C1481 C 0.79868 0.4622 0.76817 0.0
C1482 C 0.77733 0.44056 0.76215 0.0
C1483 C 0.75567 0.44067 0.75973 0.0
C1484 C 0.75534 0.46208 0.76332 0.0
C1485 C 0.77774 0.4179 0.75789 0.0
C1486 C 0.76931 0.40513 0.72776 0.0
C1487 C 0.78757 0.4096 0.78259 0.0
C1488 C 0.79554 0.42155 0.81566 0.0
C1489 C 0.7798 0.42521 0.83599 0.0
C1490 C 0.78748 0.43666 0.86698 0.0
C1491 C 0.81082 0.4444 0.87804 0.0
C1492 C 0.8265 0.44064 0.85816 0.0
C1493 C 0.81892 0.42922 0.82712 0.0
H1494 H 0.81673 0.45326 0.90204 0.0
H1495 H 0.74207 0.3414 0.60157 0.0
H1496 H 0.30441 0.79928 0.30752 0.0
H1497 H 0.34328 0.80178 0.29957 0.0
H1498 H 0.31027 0.74018 0.23411 0.0
H1499 H 0.27137 0.73723 0.2429 0.0
H1500 H 0.34154 0.73708 0.26946 0.0
H1501 H 0.34343 0.79991 0.20419 0.0
H1502 H 0.33956 0.83544 0.19262 0.0
H1503 H 0.39528 0.87646 0.26377 0.0
H1504 H 0.39927 0.84107 0.27611 0.0
H1505 H 0.45528 0.75984 0.20562 0.0
H1506 H 0.41493 0.7547 0.20825 0.0
H1507 H 0.43899 0.81011 0.2835 0.0
H1508 H 0.47921 0.81561 0.28067 0.0
H1509 H 0.41157 0.8153 0.23781 0.0
H1510 H 0.40705 0.74909 0.30327 0.0
H1511 H 0.40913 0.71227 0.31226 0.0
H1512 H 0.35724 0.67665 0.23435 0.0
H1513 H 0.35511 0.71338 0.22456 0.0
C1514 C 0.30549 0.78628 0.29152 0.0
C1515 C 0.2849 0.76821 0.27561 0.0
C1516 C 0.32771 0.78775 0.28684 0.0
C1517 C 0.32989 0.77156 0.26548 0.0
C1518 C 0.30916 0.753 0.25052 0.0
C1519 C 0.28689 0.75128 0.25563 0.0
C1520 C 0.35379 0.77417 0.25838 0.0
C1521 C 0.35674 0.75411 0.26205 0.0
C1522 C 0.37375 0.7964 0.24875 0.0
C1523 C 0.3715 0.81777 0.24128 0.0
C1524 C 0.35475 0.81646 0.21753 0.0
C1525 C 0.35255 0.83658 0.21082 0.0
C1526 C 0.36713 0.85818 0.22751 0.0
C1527 C 0.38399 0.85972 0.25089 0.0
C1528 C 0.38624 0.83964 0.25773 0.0
C1529 C 0.45202 0.77111 0.22244 0.0
C1530 C 0.47047 0.78813 0.24295 0.0
C1531 C 0.42891 0.76801 0.22412 0.0
C1532 C 0.42387 0.78182 0.2464 0.0
C1533 C 0.44243 0.79922 0.26618 0.0
C1534 C 0.46544 0.80231 0.26455 0.0
C1535 C 0.39934 0.77832 0.24957 0.0
C1536 C 0.39627 0.79824 0.24501 0.0
C1537 C 0.3792 0.75585 0.25771 0.0
C1538 C 0.38105 0.73403 0.26304 0.0
C1539 C 0.39626 0.73348 0.28784 0.0
C1540 C 0.3974 0.7126 0.29313 0.0
C1541 C 0.38326 0.69211 0.27395 0.0
C1542 C 0.36812 0.69251 0.24924 0.0
C1543 C 0.36698 0.71336 0.24379 0.0
H1544 H 0.38401 0.6759 0.27817 0.0
H1545 H 0.3654 0.87374 0.22228 0.0
H1546 H 0.66646 0.48277 0.76089 0.0
H1547 H 0.63229 0.44218 0.76484 0.0
H1548 H 0.67408 0.41427 0.71916 0.0
H1549 H 0.70815 0.45519 0.7138 0.0
H1550 H 0.62974 0.3899 0.69762 0.0
H1551 H 0.66581 0.41245 0.80503 0.0
H1552 H 0.68298 0.43825 0.85472 0.0
H1553 H 0.61498 0.43271 0.87563 0.0
H1554 H 0.59748 0.40717 0.82575 0.0
H1555 H 0.54427 0.27164 0.75316 0.0
H1556 H 0.58223 0.30952 0.74873 0.0
H1557 H 0.54641 0.34828 0.77736 0.0
H1558 H 0.50848 0.31045 0.7823 0.0
H1559 H 0.5908 0.36481 0.80906 0.0
H1560 H 0.55684 0.34414 0.69669 0.0
H1561 H 0.54095 0.3171 0.64792 0.0
H1562 H 0.60744 0.31721 0.63871 0.0
H1563 H 0.62362 0.34404 0.68771 0.0
C1564 C 0.66829 0.46802 0.75134 0.0
C1565 C 0.69003 0.47208 0.73738 0.0
C1566 C 0.6488 0.4448 0.75381 0.0
C1567 C 0.65083 0.42509 0.74322 0.0
C1568 C 0.67216 0.42918 0.72777 0.0
C1569 C 0.6916 0.45255 0.72471 0.0
C1570 C 0.63082 0.4003 0.7492 0.0
C1571 C 0.62151 0.38431 0.72212 0.0
C1572 C 0.62002 0.3929 0.78119 0.0
C1573 C 0.63038 0.40802 0.81149 0.0
C1574 C 0.65455 0.41684 0.82011 0.0
C1575 C 0.66434 0.43142 0.84832 0.0
C1576 C 0.65009 0.43715 0.86829 0.0
C1577 C 0.626 0.42826 0.86013 0.0
C1578 C 0.61612 0.41371 0.83191 0.0
C1579 C 0.54455 0.2882 0.75901 0.0
C1580 C 0.52335 0.2881 0.76795 0.0
C1581 C 0.56621 0.30982 0.75622 0.0
C1582 C 0.56703 0.33168 0.76238 0.0
C1583 C 0.5461 0.33158 0.7724 0.0
C1584 C 0.52443 0.31 0.77499 0.0
C1585 C 0.58946 0.35482 0.75735 0.0
C1586 C 0.59925 0.37042 0.78468 0.0
C1587 C 0.60093 0.36166 0.72579 0.0
C1588 C 0.59135 0.3459 0.69601 0.0
C1589 C 0.56801 0.33828 0.68437 0.0
C1590 C 0.55896 0.32302 0.65668 0.0
C1591 C 0.57316 0.3154 0.64028 0.0
C1592 C 0.59646 0.32311 0.65146 0.0
C1593 C 0.60559 0.33836 0.67916 0.0
H1594 H 0.56611 0.30356 0.61887 0.0
H1595 H 0.65771 0.44844 0.89011 0.0
H1596 H 0.32844 0.80691 0.70678 0.0
H1597 H 0.36406 0.80306 0.70509 0.0
H1598 H 0.34434 0.7656 0.79964 0.0
H1599 H 0.30796 0.76878 0.80108 0.0
H1600 H 0.40142 0.81985 0.74263 0.0
H1601 H 0.36581 0.72609 0.80178 0.0
H1602 H 0.328 0.6875 0.80724 0.0
H1603 H 0.30126 0.70239 0.71731 0.0
H1604 H 0.33895 0.74094 0.71117 0.0
H1605 H 0.49979 0.80318 0.77365 0.0
H1606 H 0.46272 0.80436 0.78003 0.0
H1607 H 0.42974 0.75124 0.70209 0.0
H1608 H 0.46684 0.74975 0.69597 0.0
H1609 H 0.39887 0.74177 0.75167 0.0
H1610 H 0.45106 0.81112 0.68653 0.0
H1611 H 0.48842 0.84863 0.67339 0.0
H1612 H 0.48036 0.88125 0.76256 0.0
H1613 H 0.4431 0.84381 0.77645 0.0
C1614 C 0.33159 0.79786 0.72733 0.0
C1615 C 0.3153 0.78814 0.7541 0.0
C1616 C 0.35206 0.79572 0.72633 0.0
C1617 C 0.35683 0.7839 0.75209 0.0
C1618 C 0.34084 0.77449 0.77922 0.0
C1619 C 0.32016 0.77648 0.78013 0.0
C1620 C 0.37874 0.78181 0.75025 0.0
C1621 C 0.40083 0.80277 0.74477 0.0
C1622 C 0.37799 0.7595 0.75254 0.0
C1623 C 0.35512 0.7365 0.75623 0.0
C1624 C 0.35186 0.72111 0.78318 0.0
C1625 C 0.33046 0.69925 0.78639 0.0
C1626 C 0.31226 0.6925 0.76264 0.0
C1627 C 0.31536 0.70766 0.73572 0.0
C1628 C 0.33671 0.72954 0.73242 0.0
C1629 C 0.48475 0.79194 0.75761 0.0
C1630 C 0.48634 0.77661 0.73397 0.0
C1631 C 0.46351 0.79254 0.76139 0.0
C1632 C 0.44354 0.77812 0.74123 0.0
C1633 C 0.44492 0.76251 0.71794 0.0
C1634 C 0.46613 0.76172 0.71439 0.0
C1635 C 0.42143 0.7798 0.74395 0.0
C1636 C 0.39941 0.75884 0.74977 0.0
C1637 C 0.42207 0.80202 0.74103 0.0
C1638 C 0.44443 0.82459 0.73269 0.0
C1639 C 0.45735 0.82624 0.70346 0.0
C1640 C 0.47849 0.8475 0.69585 0.0
C1641 C 0.48679 0.86729 0.71717 0.0
C1642 C 0.47393 0.86589 0.74609 0.0
C1643 C 0.45279 0.84466 0.75383 0.0
H1644 H 0.50316 0.88374 0.71124 0.0
H1645 H 0.2958 0.67549 0.765 0.0
H1646 H 0.52831 0.31595 0.31753 0.0
H1647 H 0.56798 0.35277 0.31904 0.0
H1648 H 0.57068 0.35299 0.21112 0.0
H1649 H 0.53107 0.31706 0.20942 0.0
H1650 H 0.61511 0.36181 0.24931 0.0
H1651 H 0.55467 0.38634 0.23725 0.0
H1652 H 0.51849 0.38699 0.25595 0.0
H1653 H 0.55221 0.41713 0.35026 0.0
H1654 H 0.58846 0.41627 0.33226 0.0
H1655 H 0.70263 0.47448 0.19077 0.0
H1656 H 0.66472 0.4371 0.19983 0.0
H1657 H 0.66012 0.46087 0.29929 0.0
H1658 H 0.69735 0.49872 0.2894 0.0
H1659 H 0.61776 0.43866 0.27408 0.0
H1660 H 0.68179 0.42215 0.28138 0.0
H1661 H 0.71831 0.42278 0.26168 0.0
H1662 H 0.67897 0.37615 0.18007 0.0
H1663 H 0.64247 0.37635 0.19811 0.0
C1664 C 0.53754 0.32386 0.29426 0.0
C1665 C 0.52666 0.31393 0.26339 0.0
C1666 C 0.56009 0.34476 0.29513 0.0
C1667 C 0.57212 0.35545 0.26515 0.0
C1668 C 0.56165 0.34492 0.23446 0.0
C1669 C 0.53899 0.32453 0.23355 0.0
C1670 C 0.59495 0.37845 0.26511 0.0
C1671 C 0.61585 0.37869 0.25471 0.0
C1672 C 0.59578 0.40023 0.27293 0.0
C1673 C 0.57411 0.40093 0.28361 0.0
C1674 C 0.55426 0.39287 0.2621 0.0
C1675 C 0.53377 0.39332 0.27254 0.0
C1676 C 0.53302 0.40202 0.30432 0.0
C1677 C 0.55279 0.41034 0.32569 0.0
C1678 C 0.57331 0.40987 0.31538 0.0
C1679 C 0.69331 0.4717 0.21437 0.0
C1680 C 0.70279 0.4893 0.23942 0.0
C1681 C 0.67178 0.45036 0.21966 0.0
C1682 C 0.65985 0.44588 0.25061 0.0
C1683 C 0.669 0.46383 0.27528 0.0
C1684 C 0.69022 0.48543 0.26964 0.0
C1685 C 0.63818 0.42232 0.25747 0.0
C1686 C 0.61741 0.42191 0.26922 0.0
C1687 C 0.6376 0.40033 0.2512 0.0
C1688 C 0.65936 0.39945 0.24097 0.0
C1689 C 0.68093 0.41221 0.25903 0.0
C1690 C 0.70168 0.41253 0.24804 0.0
C1691 C 0.70095 0.39949 0.21965 0.0
C1692 C 0.6795 0.38626 0.20204 0.0
C1693 C 0.6588 0.38627 0.21253 0.0
H1694 H 0.71695 0.3995 0.21137 0.0
H1695 H 0.51714 0.40237 0.31236 0.0
H1696 H 0.17622 0.51296 0.76052 0.0
H1697 H 0.18087 0.55292 0.75762 0.0
H1698 H 0.25348 0.58375 0.79406 0.0
H1699 H 0.24839 0.54345 0.79868 0.0
H1700 H 0.23451 0.60893 0.81681 0.0
H1701 H 0.24164 0.58133 0.70976 0.0
H1702 H 0.23032 0.55297 0.6626 0.0
H1703 H 0.16599 0.55624 0.64763 0.0
H1704 H 0.17672 0.58433 0.6951 0.0
H1705 H 0.26387 0.7238 0.74994 0.0
H1706 H 0.2635 0.6861 0.75938 0.0
H1707 H 0.18784 0.6465 0.7373 0.0
H1708 H 0.1881 0.68416 0.72749 0.0
H1709 H 0.21313 0.62781 0.70596 0.0
H1710 H 0.2082 0.65581 0.81766 0.0
H1711 H 0.22325 0.68586 0.86303 0.0
H1712 H 0.28916 0.68435 0.86562 0.0
H1713 H 0.27454 0.6544 0.82013 0.0
C1714 C 0.193 0.52823 0.76859 0.0
C1715 C 0.21206 0.52521 0.77942 0.0
C1716 C 0.19571 0.55107 0.7667 0.0
C1717 C 0.2178 0.57142 0.77454 0.0
C1718 C 0.23636 0.56833 0.78755 0.0
C1719 C 0.23344 0.54533 0.79019 0.0
C1720 C 0.22175 0.59573 0.76706 0.0
C1721 C 0.23013 0.61315 0.79245 0.0
C1722 C 0.21627 0.60139 0.73514 0.0
C1723 C 0.20991 0.58481 0.70618 0.0
C1724 C 0.22501 0.57591 0.69654 0.0
C1725 C 0.2187 0.55988 0.66975 0.0
C1726 C 0.19742 0.55278 0.65217 0.0
C1727 C 0.18245 0.56175 0.66129 0.0
C1728 C 0.18865 0.57774 0.68813 0.0
C1729 C 0.24722 0.70706 0.74665 0.0
C1730 C 0.22598 0.70692 0.73795 0.0
C1731 C 0.24703 0.68555 0.7523 0.0
C1732 C 0.22564 0.66354 0.74927 0.0
C1733 C 0.20453 0.66333 0.73987 0.0
C1734 C 0.20467 0.68482 0.73446 0.0
C1735 C 0.22506 0.64062 0.75601 0.0
C1736 C 0.21754 0.62355 0.73029 0.0
C1737 C 0.23191 0.63557 0.7873 0.0
C1738 C 0.24038 0.65307 0.81526 0.0
C1739 C 0.22594 0.66198 0.82781 0.0
C1740 C 0.23438 0.67896 0.85358 0.0
C1741 C 0.25717 0.68706 0.86714 0.0
C1742 C 0.27152 0.67809 0.85508 0.0
C1743 C 0.26315 0.66108 0.82935 0.0
H1744 H 0.26369 0.70024 0.88705 0.0
H1745 H 0.19256 0.54035 0.63145 0.0
H1746 H 0.50676 0.19614 0.19909 0.0
H1747 H 0.54358 0.19514 0.21051 0.0
H1748 H 0.57289 0.26293 0.26221 0.0
H1749 H 0.5363 0.26414 0.25048 0.0
H1750 H 0.60672 0.26242 0.22663 0.0
H1751 H 0.54982 0.21027 0.30586 0.0
H1752 H 0.51122 0.17751 0.32671 0.0
H1753 H 0.52105 0.12642 0.26991 0.0
H1754 H 0.55959 0.15894 0.24833 0.0
H1755 H 0.70056 0.24591 0.29594 0.0
H1756 H 0.66501 0.25058 0.2941 0.0
H1757 H 0.62987 0.18924 0.22861 0.0
H1758 H 0.66503 0.18438 0.23043 0.0
H1759 H 0.6 0.18923 0.27835 0.0
H1760 H 0.65847 0.24578 0.19831 0.0
H1761 H 0.69795 0.28021 0.18354 0.0
H1762 H 0.68577 0.32542 0.25014 0.0
H1763 H 0.6464 0.29113 0.26581 0.0
C1764 C 0.52108 0.21082 0.21283 0.0
C1765 C 0.51858 0.23014 0.22397 0.0
C1766 C 0.54209 0.21024 0.21941 0.0
C1767 C 0.56085 0.22877 0.23776 0.0
C1768 C 0.55868 0.24843 0.24805 0.0
C1769 C 0.53776 0.24912 0.24122 0.0
C1770 C 0.5825 0.22735 0.24671 0.0
C1771 C 0.60526 0.24655 0.23837 0.0
C1772 C 0.58067 0.20676 0.26233 0.0
C1773 C 0.5575 0.18709 0.27524 0.0
C1774 C 0.54367 0.19207 0.29761 0.0
C1775 C 0.52181 0.17354 0.30959 0.0
C1776 C 0.51366 0.1499 0.29958 0.0
C1777 C 0.52738 0.14475 0.27761 0.0
C1778 C 0.54925 0.16322 0.26552 0.0
C1779 C 0.68511 0.23325 0.28154 0.0
C1780 C 0.68562 0.21485 0.26321 0.0
C1781 C 0.66491 0.23602 0.28037 0.0
C1782 C 0.64494 0.2204 0.26093 0.0
C1783 C 0.64511 0.20151 0.2437 0.0
C1784 C 0.66527 0.19881 0.24469 0.0
C1785 C 0.62403 0.22392 0.25731 0.0
C1786 C 0.6014 0.20515 0.26682 0.0
C1787 C 0.62609 0.24513 0.24353 0.0
C1788 C 0.64959 0.26581 0.23353 0.0
C1789 C 0.66428 0.26301 0.21 0.0
C1790 C 0.68663 0.28251 0.20145 0.0
C1791 C 0.69438 0.30497 0.21596 0.0
C1792 C 0.67976 0.308 0.23897 0.0
C1793 C 0.65743 0.28854 0.2477 0.0
H1794 H 0.71166 0.32005 0.20929 0.0
H1795 H 0.49673 0.13557 0.30889 0.0
H1796 H 0.45598 0.7072 0.78753 0.0
H1797 H 0.41589 0.67155 0.78501 0.0
H1798 H 0.44687 0.6295 0.75023 0.0
H1799 H 0.48667 0.66509 0.75172 0.0
H1800 H 0.41104 0.62138 0.71209 0.0
H1801 H 0.42342 0.62442 0.83142 0.0
H1802 H 0.43244 0.64298 0.88749 0.0
H1803 H 0.37177 0.65349 0.88054 0.0
H1804 H 0.36256 0.63524 0.82422 0.0
H1805 H 0.31391 0.50343 0.73349 0.0
H1806 H 0.35196 0.541 0.73915 0.0
H1807 H 0.31373 0.57863 0.76025 0.0
H1808 H 0.27561 0.54104 0.75515 0.0
H1809 H 0.35142 0.59044 0.80429 0.0
H1810 H 0.33798 0.58467 0.68571 0.0
H1811 H 0.32846 0.56412 0.63102 0.0
H1812 H 0.39145 0.55751 0.63759 0.0
H1813 H 0.40115 0.57767 0.69261 0.0
C1814 C 0.45421 0.69022 0.78 0.0
C1815 C 0.47437 0.68887 0.7698 0.0
C1816 C 0.43131 0.66987 0.77851 0.0
C1817 C 0.42834 0.64779 0.76746 0.0
C1818 C 0.44866 0.64634 0.75857 0.0
C1819 C 0.4714 0.66666 0.75958 0.0
C1820 C 0.40412 0.62639 0.76348 0.0
C1821 C 0.39814 0.61449 0.73243 0.0
C1822 C 0.38696 0.61775 0.78962 0.0
C1823 C 0.39246 0.6287 0.82347 0.0
C1824 C 0.41212 0.63086 0.84174 0.0
C1825 C 0.41724 0.64129 0.87359 0.0
C1826 C 0.40273 0.64947 0.88753 0.0
C1827 C 0.38302 0.64718 0.86969 0.0
C1828 C 0.37783 0.63678 0.83782 0.0
C1829 C 0.3136 0.51968 0.73942 0.0
C1830 C 0.29174 0.51925 0.74386 0.0
C1831 C 0.33533 0.54115 0.74246 0.0
C1832 C 0.33561 0.56259 0.74994 0.0
C1833 C 0.31386 0.56226 0.75443 0.0
C1834 C 0.29211 0.54081 0.7512 0.0
C1835 C 0.3587 0.58531 0.75324 0.0
C1836 C 0.36436 0.59747 0.78401 0.0
C1837 C 0.37565 0.59412 0.72693 0.0
C1838 C 0.37019 0.58252 0.69343 0.0
C1839 C 0.34973 0.57871 0.67559 0.0
C1840 C 0.3443 0.56714 0.64452 0.0
C1841 C 0.35931 0.55946 0.63088 0.0
C1842 C 0.37983 0.56345 0.64821 0.0
C1843 C 0.38532 0.57497 0.67932 0.0
H1844 H 0.35504 0.55046 0.60686 0.0
H1845 H 0.40673 0.65754 0.91219 0.0
H1846 H 0.75339 0.28716 0.19435 0.0
H1847 H 0.75313 0.325 0.19878 0.0
H1848 H 0.79424 0.3418 0.29006 0.0
H1849 H 0.79454 0.30406 0.28579 0.0
H1850 H 0.75449 0.34914 0.29395 0.0
H1851 H 0.82227 0.36909 0.22179 0.0
H1852 H 0.8421 0.36374 0.17237 0.0
H1853 H 0.79468 0.37378 0.10746 0.0
H1854 H 0.77434 0.37886 0.15654 0.0
H1855 H 0.78525 0.47183 0.30833 0.0
H1856 H 0.78294 0.4327 0.30719 0.0
H1857 H 0.7625 0.42474 0.20284 0.0
H1858 H 0.76668 0.46452 0.20355 0.0
H1859 H 0.79203 0.41204 0.20674 0.0
H1860 H 0.71971 0.38445 0.27483 0.0
H1861 H 0.69666 0.3879 0.32191 0.0
H1862 H 0.74821 0.38925 0.39149 0.0
H1863 H 0.77163 0.38628 0.34459 0.0
C1864 C 0.76233 0.29892 0.21534 0.0
C1865 C 0.77416 0.29275 0.23956 0.0
C1866 C 0.76222 0.32052 0.21782 0.0
C1867 C 0.77372 0.33618 0.24472 0.0
C1868 C 0.78529 0.32995 0.26911 0.0
C1869 C 0.78565 0.30852 0.26644 0.0
C1870 C 0.77389 0.35919 0.24735 0.0
C1871 C 0.76286 0.36303 0.27507 0.0
C1872 C 0.7843 0.377 0.22233 0.0
C1873 C 0.79665 0.37414 0.19283 0.0
C1874 C 0.81596 0.36998 0.19698 0.0
C1875 C 0.8273 0.36703 0.16903 0.0
C1876 C 0.81961 0.36836 0.13679 0.0
C1877 C 0.8006 0.37272 0.13244 0.0
C1878 C 0.78917 0.37566 0.16031 0.0
C1879 C 0.77999 0.46147 0.28536 0.0
C1880 C 0.77623 0.47109 0.25601 0.0
C1881 C 0.7784 0.43896 0.28473 0.0
C1882 C 0.77209 0.42529 0.25504 0.0
C1883 C 0.76751 0.43477 0.22608 0.0
C1884 C 0.76983 0.4575 0.22646 0.0
C1885 C 0.77203 0.40207 0.25311 0.0
C1886 C 0.78335 0.39819 0.22561 0.0
C1887 C 0.76148 0.38403 0.27802 0.0
C1888 C 0.74758 0.38576 0.30626 0.0
C1889 C 0.72623 0.38594 0.30016 0.0
C1890 C 0.71308 0.38767 0.32678 0.0
C1891 C 0.72106 0.38897 0.35968 0.0
C1892 C 0.74211 0.38837 0.36599 0.0
C1893 C 0.7553 0.38664 0.3394 0.0
H1894 H 0.71087 0.39031 0.38029 0.0
H1895 H 0.82842 0.36606 0.11518 0.0
loop_
_geom_bond_atom_site_label_1
_geom_bond_atom_site_label_2
_geom_bond_distance
_geom_bond_site_symmetry_2
_ccdc_geom_bond_type
Co0 N4 2.148 . S
Co0 N10 2.128 . S
Co0 N20 2.194 . S
Co0 O25 2.351 . S
Co0 O26 2.155 . S
Co0 O27 2.096 . S
C1 N4 1.301 . S
C1 N5 1.328 . S
C1 H6 0.930 . S
C2 C3 1.333 . S
C2 N4 1.317 . S
C2 H7 0.930 . S
C3 C2 1.333 . S
C3 N5 1.350 . S
C3 H29 0.931 . S
N4 Co0 2.148 . S
N4 C1 1.301 . S
N4 C2 1.317 . S
N5 C1 1.328 . S
N5 C3 1.350 . S
H6 C1 0.930 . S
H7 C2 0.930 . S
C8 O9 1.224 . S
C8 O27 1.247 . S
O9 C8 1.224 . S
N10 Co0 2.128 . S
N10 C11 1.355 . S
N10 C13 1.311 . S
C11 N10 1.355 . S
C11 C12 1.363 . S
C11 H23 0.929 . S
C12 C11 1.363 . S
C12 N14 1.375 . S
C12 H30 0.931 . S
C13 N10 1.311 . S
C13 N14 1.347 . S
C13 H24 0.929 . S
N14 C12 1.375 . S
N14 C13 1.347 . S
C15 C18 1.365 . S
C15 N20 1.328 . S
C15 H21 0.929 . S
C16 C17 1.362 . S
C16 C19 1.378 . S
C16 H31 0.929 . S
C17 C16 1.362 . S
C17 C18 1.366 . S
C18 C15 1.365 . S
C18 C17 1.366 . S
C18 H32 0.930 . S
C19 C16 1.378 . S
C19 N20 1.315 . S
C19 H22 0.930 . S
N20 Co0 2.194 . S
N20 C15 1.328 . S
N20 C19 1.315 . S
H21 C15 0.929 . S
H22 C19 0.930 . S
H23 C11 0.929 . S
H24 C13 0.929 . S
O25 Co0 2.351 . S
O25 C28 1.244 . S
O26 Co0 2.155 . S
O26 C28 1.240 . S
O27 Co0 2.096 . S
O27 C8 1.247 . S
C28 O25 1.244 . S
C28 O26 1.240 . S
H29 C3 0.931 . S
H30 C12 0.931 . S
H31 C16 0.929 . S
H32 C18 0.930 . S
Co33 N37 2.148 . S
Co33 N43 2.128 . S
Co33 N53 2.194 . S
Co33 O58 2.351 . S
Co33 O59 2.155 . S
Co33 O60 2.096 . S
C34 N37 1.301 . S
C34 N38 1.328 . S
C34 H39 0.930 . S
C35 C36 1.333 . S
C35 N37 1.317 . S
C35 H40 0.930 . S
C36 C35 1.333 . S
C36 N38 1.350 . S
C36 H62 0.931 . S
N37 Co33 2.148 . S
N37 C34 1.301 . S
N37 C35 1.317 . S
N38 C34 1.328 . S
N38 C36 1.350 . S
H39 C34 0.930 . S
H40 C35 0.930 . S
C41 O42 1.224 . S
C41 O60 1.247 . S
O42 C41 1.224 . S
N43 Co33 2.128 . S
N43 C44 1.355 . S
N43 C46 1.311 . S
C44 N43 1.355 . S
C44 C45 1.363 . S
C44 H56 0.929 . S
C45 C44 1.363 . S
C45 N47 1.375 . S
C45 H63 0.931 . S
C46 N43 1.311 . S
C46 N47 1.347 . S
C46 H57 0.929 . S
N47 C45 1.375 . S
N47 C46 1.347 . S
C48 C51 1.365 . S
C48 N53 1.328 . S
C48 H54 0.929 . S
C49 C50 1.362 . S
C49 C52 1.378 . S
C49 H64 0.929 . S
C50 C49 1.362 . S
C50 C51 1.366 . S
C51 C48 1.365 . S
C51 C50 1.366 . S
C51 H65 0.930 . S
C52 C49 1.378 . S
C52 N53 1.315 . S
C52 H55 0.930 . S
N53 Co33 2.194 . S
N53 C48 1.328 . S
N53 C52 1.315 . S
H54 C48 0.929 . S
H55 C52 0.930 . S
H56 C44 0.929 . S
H57 C46 0.929 . S
O58 Co33 2.351 . S
O58 C61 1.244 . S
O59 Co33 2.155 . S
O59 C61 1.240 . S
O60 Co33 2.096 . S
O60 C41 1.247 . S
C61 O58 1.244 . S
C61 O59 1.240 . S
H62 C36 0.931 . S
H63 C45 0.931 . S
H64 C49 0.929 . S
H65 C51 0.930 . S
Co66 N70 2.148 . S
Co66 N76 2.128 . S
Co66 N86 2.194 . S
Co66 O91 2.351 . S
Co66 O92 2.155 . S
Co66 O93 2.096 . S
C67 N70 1.301 . S
C67 N71 1.328 . S
C67 H72 0.930 . S
C68 C69 1.333 . S
C68 N70 1.317 . S
C68 H73 0.930 . S
C69 C68 1.333 . S
C69 N71 1.350 . S
C69 H95 0.931 . S
N70 Co66 2.148 . S
N70 C67 1.301 . S
N70 C68 1.317 . S
N71 C67 1.328 . S
N71 C69 1.350 . S
H72 C67 0.930 . S
H73 C68 0.930 . S
C74 O75 1.224 . S
C74 O93 1.247 . S
O75 C74 1.224 . S
N76 Co66 2.128 . S
N76 C77 1.355 . S
N76 C79 1.311 . S
C77 N76 1.355 . S
C77 C78 1.363 . S
C77 H89 0.929 . S
C78 C77 1.363 . S
C78 N80 1.375 . S
C78 H96 0.931 . S
C79 N76 1.311 . S
C79 N80 1.347 . S
C79 H90 0.929 . S
N80 C78 1.375 . S
N80 C79 1.347 . S
C81 C84 1.365 . S
C81 N86 1.328 . S
C81 H87 0.929 . S
C82 C83 1.362 . S
C82 C85 1.378 . S
C82 H97 0.929 . S
C83 C82 1.362 . S
C83 C84 1.366 . S
C84 C81 1.365 . S
C84 C83 1.366 . S
C84 H98 0.930 . S
C85 C82 1.378 . S
C85 N86 1.315 . S
C85 H88 0.930 . S
N86 Co66 2.194 . S
N86 C81 1.328 . S
N86 C85 1.315 . S
H87 C81 0.929 . S
H88 C85 0.930 . S
H89 C77 0.929 . S
H90 C79 0.929 . S
O91 Co66 2.351 . S
O91 C94 1.244 . S
O92 Co66 2.155 . S
O92 C94 1.240 . S
O93 Co66 2.096 . S
O93 C74 1.247 . S
C94 O91 1.244 . S
C94 O92 1.240 . S
H95 C69 0.931 . S
H96 C78 0.931 . S
H97 C82 0.929 . S
H98 C84 0.930 . S
Co99 N103 2.148 . S
Co99 N109 2.128 . S
Co99 N119 2.194 . S
Co99 O124 2.351 . S
Co99 O125 2.155 . S
Co99 O126 2.096 . S
C100 N103 1.301 . S
C100 N104 1.328 . S
C100 H105 0.930 . S
C101 C102 1.333 . S
C101 N103 1.317 . S
C101 H106 0.930 . S
C102 C101 1.333 . S
C102 N104 1.350 . S
C102 H128 0.931 . S
N103 Co99 2.148 . S
N103 C100 1.301 . S
N103 C101 1.317 . S
N104 C100 1.328 . S
N104 C102 1.350 . S
H105 C100 0.930 . S
H106 C101 0.930 . S
C107 O108 1.224 . S
C107 O126 1.247 . S
O108 C107 1.224 . S
N109 Co99 2.128 . S
N109 C110 1.355 . S
N109 C112 1.311 . S
C110 N109 1.355 . S
C110 C111 1.363 . S
C110 H122 0.929 . S
C111 C110 1.363 . S
C111 N113 1.375 . S
C111 H129 0.931 . S
C112 N109 1.311 . S
C112 N113 1.347 . S
C112 H123 0.929 . S
N113 C111 1.375 . S
N113 C112 1.347 . S
C114 C117 1.365 . S
C114 N119 1.328 . S
C114 H120 0.929 . S
C115 C116 1.362 . S
C115 C118 1.378 . S
C115 H130 0.929 . S
C116 C115 1.362 . S
C116 C117 1.366 . S
C117 C114 1.365 . S
C117 C116 1.366 . S
C117 H131 0.930 . S
C118 C115 1.378 . S
C118 N119 1.315 . S
C118 H121 0.930 . S
N119 Co99 2.194 . S
N119 C114 1.328 . S
N119 C118 1.315 . S
H120 C114 0.929 . S
H121 C118 0.930 . S
H122 C110 0.929 . S
H123 C112 0.929 . S
O124 Co99 2.351 . S
O124 C127 1.244 . S
O125 Co99 2.155 . S
O125 C127 1.240 . S
O126 Co99 2.096 . S
O126 C107 1.247 . S
C127 O124 1.244 . S
C127 O125 1.240 . S
H128 C102 0.931 . S
H129 C111 0.931 . S
H130 C115 0.929 . S
H131 C117 0.930 . S
Co132 N136 2.148 . S
Co132 N142 2.128 . S
Co132 N152 2.194 . S
Co132 O157 2.351 . S
Co132 O158 2.155 . S
Co132 O159 2.096 . S
C133 N136 1.301 . S
C133 N137 1.328 . S
C133 H138 0.930 . S
C134 C135 1.333 . S
C134 N136 1.317 . S
C134 H139 0.930 . S
C135 C134 1.333 . S
C135 N137 1.350 . S
C135 H161 0.931 . S
N136 Co132 2.148 . S
N136 C133 1.301 . S
N136 C134 1.317 . S
N137 C133 1.328 . S
N137 C135 1.350 . S
H138 C133 0.930 . S
H139 C134 0.930 . S
C140 O141 1.224 . S
C140 O159 1.247 . S
O141 C140 1.224 . S
N142 Co132 2.128 . S
N142 C143 1.355 . S
N142 C145 1.311 . S
C143 N142 1.355 . S
C143 C144 1.363 . S
C143 H155 0.929 . S
C144 C143 1.363 . S
C144 N146 1.375 . S
C144 H162 0.931 . S
C145 N142 1.311 . S
C145 N146 1.347 . S
C145 H156 0.929 . S
N146 C144 1.375 . S
N146 C145 1.347 . S
C147 C150 1.365 . S
C147 N152 1.328 . S
C147 H153 0.929 . S
C148 C149 1.362 . S
C148 C151 1.378 . S
C148 H163 0.929 . S
C149 C148 1.362 . S
C149 C150 1.366 . S
C150 C147 1.365 . S
C150 C149 1.366 . S
C150 H164 0.930 . S
C151 C148 1.378 . S
C151 N152 1.315 . S
C151 H154 0.930 . S
N152 Co132 2.194 . S
N152 C147 1.328 . S
N152 C151 1.315 . S
H153 C147 0.929 . S
H154 C151 0.930 . S
H155 C143 0.929 . S
H156 C145 0.929 . S
O157 Co132 2.351 . S
O157 C160 1.244 . S
O158 Co132 2.155 . S
O158 C160 1.240 . S
O159 Co132 2.096 . S
O159 C140 1.247 . S
C160 O157 1.244 . S
C160 O158 1.240 . S
H161 C135 0.931 . S
H162 C144 0.931 . S
H163 C148 0.929 . S
H164 C150 0.930 . S
Co165 N169 2.148 . S
Co165 N175 2.128 . S
Co165 N185 2.194 . S
Co165 O190 2.351 . S
Co165 O191 2.155 . S
Co165 O192 2.096 . S
C166 N169 1.301 . S
C166 N170 1.328 . S
C166 H171 0.930 . S
C167 C168 1.333 . S
C167 N169 1.317 . S
C167 H172 0.930 . S
C168 C167 1.333 . S
C168 N170 1.350 . S
C168 H194 0.931 . S
N169 Co165 2.148 . S
N169 C166 1.301 . S
N169 C167 1.317 . S
N170 C166 1.328 . S
N170 C168 1.350 . S
H171 C166 0.930 . S
H172 C167 0.930 . S
C173 O174 1.224 . S
C173 O192 1.247 . S
O174 C173 1.224 . S
N175 Co165 2.128 . S
N175 C176 1.355 . S
N175 C178 1.311 . S
C176 N175 1.355 . S
C176 C177 1.363 . S
C176 H188 0.929 . S
C177 C176 1.363 . S
C177 N179 1.375 . S
C177 H195 0.931 . S
C178 N175 1.311 . S
C178 N179 1.347 . S
C178 H189 0.929 . S
N179 C177 1.375 . S
N179 C178 1.347 . S
C180 C183 1.365 . S
C180 N185 1.328 . S
C180 H186 0.929 . S
C181 C182 1.362 . S
C181 C184 1.378 . S
C181 H196 0.929 . S
C182 C181 1.362 . S
C182 C183 1.366 . S
C183 C180 1.365 . S
C183 C182 1.366 . S
C183 H197 0.930 . S
C184 C181 1.378 . S
C184 N185 1.315 . S
C184 H187 0.930 . S
N185 Co165 2.194 . S
N185 C180 1.328 . S
N185 C184 1.315 . S
H186 C180 0.929 . S
H187 C184 0.930 . S
H188 C176 0.929 . S
H189 C178 0.929 . S
O190 Co165 2.351 . S
O190 C193 1.244 . S
O191 Co165 2.155 . S
O191 C193 1.240 . S
O192 Co165 2.096 . S
O192 C173 1.247 . S
C193 O190 1.244 . S
C193 O191 1.240 . S
H194 C168 0.931 . S
H195 C177 0.931 . S
H196 C181 0.929 . S
H197 C183 0.930 . S
Co198 N202 2.148 . S
Co198 N208 2.128 . S
Co198 N218 2.194 . S
Co198 O223 2.351 . S
Co198 O224 2.155 . S
Co198 O225 2.096 . S
C199 N202 1.301 . S
C199 N203 1.328 . S
C199 H204 0.930 . S
C200 C201 1.333 . S
C200 N202 1.317 . S
C200 H205 0.930 . S
C201 C200 1.333 . S
C201 N203 1.350 . S
C201 H227 0.931 . S
N202 Co198 2.148 . S
N202 C199 1.301 . S
N202 C200 1.317 . S
N203 C199 1.328 . S
N203 C201 1.350 . S
H204 C199 0.930 . S
H205 C200 0.930 . S
C206 O207 1.224 . S
C206 O225 1.247 . S
O207 C206 1.224 . S
N208 Co198 2.128 . S
N208 C209 1.355 . S
N208 C211 1.311 . S
C209 N208 1.355 . S
C209 C210 1.363 . S
C209 H221 0.929 . S
C210 C209 1.363 . S
C210 N212 1.375 . S
C210 H228 0.931 . S
C211 N208 1.311 . S
C211 N212 1.347 . S
C211 H222 0.929 . S
N212 C210 1.375 . S
N212 C211 1.347 . S
C213 C216 1.365 . S
C213 N218 1.328 . S
C213 H219 0.929 . S
C214 C215 1.362 . S
C214 C217 1.378 . S
C214 H229 0.929 . S
C215 C214 1.362 . S
C215 C216 1.366 . S
C216 C213 1.365 . S
C216 C215 1.366 . S
C216 H230 0.930 . S
C217 C214 1.378 . S
C217 N218 1.315 . S
C217 H220 0.930 . S
N218 Co198 2.194 . S
N218 C213 1.328 . S
N218 C217 1.315 . S
H219 C213 0.929 . S
H220 C217 0.930 . S
H221 C209 0.929 . S
H222 C211 0.929 . S
O223 Co198 2.351 . S
O223 C226 1.244 . S
O224 Co198 2.155 . S
O224 C226 1.240 . S
O225 Co198 2.096 . S
O225 C206 1.247 . S
C226 O223 1.244 . S
C226 O224 1.240 . S
H227 C201 0.931 . S
H228 C210 0.931 . S
H229 C214 0.929 . S
H230 C216 0.930 . S
Co231 N235 2.148 . S
Co231 N241 2.128 . S
Co231 N251 2.194 . S
Co231 O256 2.351 . S
Co231 O257 2.155 . S
Co231 O258 2.096 . S
C232 N235 1.301 . S
C232 N236 1.328 . S
C232 H237 0.930 . S
C233 C234 1.333 . S
C233 N235 1.317 . S
C233 H238 0.930 . S
C234 C233 1.333 . S
C234 N236 1.350 . S
C234 H260 0.931 . S
N235 Co231 2.148 . S
N235 C232 1.301 . S
N235 C233 1.317 . S
N236 C232 1.328 . S
N236 C234 1.350 . S
H237 C232 0.930 . S
H238 C233 0.930 . S
C239 O240 1.224 . S
C239 O258 1.247 . S
O240 C239 1.224 . S
N241 Co231 2.128 . S
N241 C242 1.355 . S
N241 C244 1.311 . S
C242 N241 1.355 . S
C242 C243 1.363 . S
C242 H254 0.929 . S
C243 C242 1.363 . S
C243 N245 1.375 . S
C243 H261 0.931 . S
C244 N241 1.311 . S
C244 N245 1.347 . S
C244 H255 0.929 . S
N245 C243 1.375 . S
N245 C244 1.347 . S
C246 C249 1.365 . S
C246 N251 1.328 . S
C246 H252 0.929 . S
C247 C248 1.362 . S
C247 C250 1.378 . S
C247 H262 0.929 . S
C248 C247 1.362 . S
C248 C249 1.366 . S
C249 C246 1.365 . S
C249 C248 1.366 . S
C249 H263 0.930 . S
C250 C247 1.378 . S
C250 N251 1.315 . S
C250 H253 0.930 . S
N251 Co231 2.194 . S
N251 C246 1.328 . S
N251 C250 1.315 . S
H252 C246 0.929 . S
H253 C250 0.930 . S
H254 C242 0.929 . S
H255 C244 0.929 . S
O256 Co231 2.351 . S
O256 C259 1.244 . S
O257 Co231 2.155 . S
O257 C259 1.240 . S
O258 Co231 2.096 . S
O258 C239 1.247 . S
C259 O256 1.244 . S
C259 O257 1.240 . S
H260 C234 0.931 . S
H261 C243 0.931 . S
H262 C247 0.929 . S
H263 C249 0.930 . S
Co264 N268 2.148 . S
Co264 N274 2.128 . S
Co264 N284 2.194 . S
Co264 O289 2.351 . S
Co264 O290 2.155 . S
Co264 O291 2.096 . S
C265 N268 1.301 . S
C265 N269 1.328 . S
C265 H270 0.930 . S
C266 C267 1.333 . S
C266 N268 1.317 . S
C266 H271 0.930 . S
C267 C266 1.333 . S
C267 N269 1.350 . S
C267 H293 0.931 . S
N268 Co264 2.148 . S
N268 C265 1.301 . S
N268 C266 1.317 . S
N269 C265 1.328 . S
N269 C267 1.350 . S
H270 C265 0.930 . S
H271 C266 0.930 . S
C272 O273 1.224 . S
C272 O291 1.247 . S
O273 C272 1.224 . S
N274 Co264 2.128 . S
N274 C275 1.355 . S
N274 C277 1.311 . S
C275 N274 1.355 . S
C275 C276 1.363 . S
C275 H287 0.929 . S
C276 C275 1.363 . S
C276 N278 1.375 . S
C276 H294 0.931 . S
C277 N274 1.311 . S
C277 N278 1.347 . S
C277 H288 0.929 . S
N278 C276 1.375 . S
N278 C277 1.347 . S
C279 C282 1.365 . S
C279 N284 1.328 . S
C279 H285 0.929 . S
C280 C281 1.362 . S
C280 C283 1.378 . S
C280 H295 0.929 . S
C281 C280 1.362 . S
C281 C282 1.366 . S
C282 C279 1.365 . S
C282 C281 1.366 . S
C282 H296 0.930 . S
C283 C280 1.378 . S
C283 N284 1.315 . S
C283 H286 0.930 . S
N284 Co264 2.194 . S
N284 C279 1.328 . S
N284 C283 1.315 . S
H285 C279 0.929 . S
H286 C283 0.930 . S
H287 C275 0.929 . S
H288 C277 0.929 . S
O289 Co264 2.351 . S
O289 C292 1.244 . S
O290 Co264 2.155 . S
O290 C292 1.240 . S
O291 Co264 2.096 . S
O291 C272 1.247 . S
C292 O289 1.244 . S
C292 O290 1.240 . S
H293 C267 0.931 . S
H294 C276 0.931 . S
H295 C280 0.929 . S
H296 C282 0.930 . S
Co297 N301 2.148 . S
Co297 N307 2.128 . S
Co297 N317 2.194 . S
Co297 O322 2.351 . S
Co297 O323 2.155 . S
Co297 O324 2.096 . S
C298 N301 1.301 . S
C298 N302 1.328 . S
C298 H303 0.930 . S
C299 C300 1.333 . S
C299 N301 1.317 . S
C299 H304 0.930 . S
C300 C299 1.333 . S
C300 N302 1.350 . S
C300 H326 0.931 . S
N301 Co297 2.148 . S
N301 C298 1.301 . S
N301 C299 1.317 . S
N302 C298 1.328 . S
N302 C300 1.350 . S
H303 C298 0.930 . S
H304 C299 0.930 . S
C305 O306 1.224 . S
C305 O324 1.247 . S
O306 C305 1.224 . S
N307 Co297 2.128 . S
N307 C308 1.355 . S
N307 C310 1.311 . S
C308 N307 1.355 . S
C308 C309 1.363 . S
C308 H320 0.929 . S
C309 C308 1.363 . S
C309 N311 1.375 . S
C309 H327 0.931 . S
C310 N307 1.311 . S
C310 N311 1.347 . S
C310 H321 0.929 . S
N311 C309 1.375 . S
N311 C310 1.347 . S
C312 C315 1.365 . S
C312 N317 1.328 . S
C312 H318 0.929 . S
C313 C314 1.362 . S
C313 C316 1.378 . S
C313 H328 0.929 . S
C314 C313 1.362 . S
C314 C315 1.366 . S
C315 C312 1.365 . S
C315 C314 1.366 . S
C315 H329 0.930 . S
C316 C313 1.378 . S
C316 N317 1.315 . S
C316 H319 0.930 . S
N317 Co297 2.194 . S
N317 C312 1.328 . S
N317 C316 1.315 . S
H318 C312 0.929 . S
H319 C316 0.930 . S
H320 C308 0.929 . S
H321 C310 0.929 . S
O322 Co297 2.351 . S
O322 C325 1.244 . S
O323 Co297 2.155 . S
O323 C325 1.240 . S
O324 Co297 2.096 . S
O324 C305 1.247 . S
C325 O322 1.244 . S
C325 O323 1.240 . S
H326 C300 0.931 . S
H327 C309 0.931 . S
H328 C313 0.929 . S
H329 C315 0.930 . S
Co330 N334 2.148 . S
Co330 N340 2.128 . S
Co330 N350 2.194 . S
Co330 O355 2.351 . S
Co330 O356 2.155 . S
Co330 O357 2.096 . S
C331 N334 1.301 . S
C331 N335 1.328 . S
C331 H336 0.930 . S
C332 C333 1.333 . S
C332 N334 1.317 . S
C332 H337 0.930 . S
C333 C332 1.333 . S
C333 N335 1.350 . S
C333 H359 0.931 . S
N334 Co330 2.148 . S
N334 C331 1.301 . S
N334 C332 1.317 . S
N335 C331 1.328 . S
N335 C333 1.350 . S
H336 C331 0.930 . S
H337 C332 0.930 . S
C338 O339 1.224 . S
C338 O357 1.247 . S
O339 C338 1.224 . S
N340 Co330 2.128 . S
N340 C341 1.355 . S
N340 C343 1.311 . S
C341 N340 1.355 . S
C341 C342 1.363 . S
C341 H353 0.929 . S
C342 C341 1.363 . S
C342 N344 1.375 . S
C342 H360 0.931 . S
C343 N340 1.311 . S
C343 N344 1.347 . S
C343 H354 0.929 . S
N344 C342 1.375 . S
N344 C343 1.347 . S
C345 C348 1.365 . S
C345 N350 1.328 . S
C345 H351 0.929 . S
C346 C347 1.362 . S
C346 C349 1.378 . S
C346 H361 0.929 . S
C347 C346 1.362 . S
C347 C348 1.366 . S
C348 C345 1.365 . S
C348 C347 1.366 . S
C348 H362 0.930 . S
C349 C346 1.378 . S
C349 N350 1.315 . S
C349 H352 0.930 . S
N350 Co330 2.194 . S
N350 C345 1.328 . S
N350 C349 1.315 . S
H351 C345 0.929 . S
H352 C349 0.930 . S
H353 C341 0.929 . S
H354 C343 0.929 . S
O355 Co330 2.351 . S
O355 C358 1.244 . S
O356 Co330 2.155 . S
O356 C358 1.240 . S
O357 Co330 2.096 . S
O357 C338 1.247 . S
C358 O355 1.244 . S
C358 O356 1.240 . S
H359 C333 0.931 . S
H360 C342 0.931 . S
H361 C346 0.929 . S
H362 C348 0.930 . S
Co363 N367 2.148 . S
Co363 N373 2.128 . S
Co363 N383 2.194 . S
Co363 O388 2.351 . S
Co363 O389 2.155 . S
Co363 O390 2.096 . S
C364 N367 1.301 . S
C364 N368 1.328 . S
C364 H369 0.930 . S
C365 C366 1.333 . S
C365 N367 1.317 . S
C365 H370 0.930 . S
C366 C365 1.333 . S
C366 N368 1.350 . S
C366 H392 0.931 . S
N367 Co363 2.148 . S
N367 C364 1.301 . S
N367 C365 1.317 . S
N368 C364 1.328 . S
N368 C366 1.350 . S
H369 C364 0.930 . S
H370 C365 0.930 . S
C371 O372 1.224 . S
C371 O390 1.247 . S
O372 C371 1.224 . S
N373 Co363 2.128 . S
N373 C374 1.355 . S
N373 C376 1.311 . S
C374 N373 1.355 . S
C374 C375 1.363 . S
C374 H386 0.929 . S
C375 C374 1.363 . S
C375 N377 1.375 . S
C375 H393 0.931 . S
C376 N373 1.311 . S
C376 N377 1.347 . S
C376 H387 0.929 . S
N377 C375 1.375 . S
N377 C376 1.347 . S
C378 C381 1.365 . S
C378 N383 1.328 . S
C378 H384 0.929 . S
C379 C380 1.362 . S
C379 C382 1.378 . S
C379 H394 0.929 . S
C380 C379 1.362 . S
C380 C381 1.366 . S
C381 C378 1.365 . S
C381 C380 1.366 . S
C381 H395 0.930 . S
C382 C379 1.378 . S
C382 N383 1.315 . S
C382 H385 0.930 . S
N383 Co363 2.194 . S
N383 C378 1.328 . S
N383 C382 1.315 . S
H384 C378 0.929 . S
H385 C382 0.930 . S
H386 C374 0.929 . S
H387 C376 0.929 . S
O388 Co363 2.351 . S
O388 C391 1.244 . S
O389 Co363 2.155 . S
O389 C391 1.240 . S
O390 Co363 2.096 . S
O390 C371 1.247 . S
C391 O388 1.244 . S
C391 O389 1.240 . S
H392 C366 0.931 . S
H393 C375 0.931 . S
H394 C379 0.929 . S
H395 C381 0.930 . S
H396 C414 0.951 . S
H397 C416 0.951 . S
H398 C418 0.950 . S
H399 C419 0.950 . S
H400 C421 0.950 . S
H401 C424 0.950 . S
H402 C425 0.950 . S
H403 C427 0.950 . S
H404 C428 0.950 . S
H405 C429 0.951 . S
H406 C431 0.951 . S
H407 C433 0.950 . S
H408 C434 0.950 . S
H409 C436 0.950 . S
H410 C439 0.950 . S
H411 C440 0.950 . S
H412 C442 0.950 . S
H413 C443 0.950 . S
C414 H396 0.951 . S
C414 C415 1.366 . S
C414 C416 1.388 . S
C415 C414 1.366 . S
C415 C419 1.385 . S
C416 H397 0.951 . S
C416 C414 1.388 . S
C416 C417 1.366 . S
C417 C416 1.366 . S
C417 C418 1.414 . S
C417 C420 1.499 . S
C418 H398 0.950 . S
C418 C417 1.414 . S
C418 C419 1.374 . S
C419 H399 0.950 . S
C419 C415 1.385 . S
C419 C418 1.374 . S
C420 C417 1.499 . S
C420 C421 1.373 . S
C420 C422 1.389 . S
C421 H400 0.950 . S
C421 C420 1.373 . S
C421 C437 1.377 . S
C422 C420 1.389 . S
C422 C423 1.524 . S
C422 C436 1.377 . S
C423 C422 1.524 . S
C423 C424 1.397 . S
C423 C428 1.363 . S
C424 H401 0.950 . S
C424 C423 1.397 . S
C424 C425 1.334 . S
C425 H402 0.950 . S
C425 C424 1.334 . S
C425 C426 1.287 . S
C426 C425 1.287 . S
C426 C427 1.524 . S
C426 H445 0.913 . S
C427 H403 0.950 . S
C427 C426 1.524 . S
C427 C428 1.415 . S
C428 H404 0.950 . S
C428 C423 1.363 . S
C428 C427 1.415 . S
C429 H405 0.951 . S
C429 C430 1.366 . S
C429 C431 1.388 . S
C430 C429 1.366 . S
C430 C434 1.385 . S
C431 H406 0.951 . S
C431 C429 1.388 . S
C431 C432 1.366 . S
C432 C431 1.366 . S
C432 C433 1.414 . S
C432 C435 1.499 . S
C433 H407 0.950 . S
C433 C432 1.414 . S
C433 C434 1.374 . S
C434 H408 0.950 . S
C434 C430 1.385 . S
C434 C433 1.374 . S
C435 C432 1.499 . S
C435 C436 1.373 . S
C435 C437 1.389 . S
C436 H409 0.950 . S
C436 C422 1.377 . S
C436 C435 1.373 . S
C437 C421 1.377 . S
C437 C435 1.389 . S
C437 C438 1.524 . S
C438 C437 1.524 . S
C438 C439 1.397 . S
C438 C443 1.363 . S
C439 H410 0.950 . S
C439 C438 1.397 . S
C439 C440 1.334 . S
C440 H411 0.950 . S
C440 C439 1.334 . S
C440 C441 1.287 . S
C441 C440 1.287 . S
C441 C442 1.524 . S
C441 H444 0.999 . S
C442 H412 0.950 . S
C442 C441 1.524 . S
C442 C443 1.415 . S
C443 H413 0.950 . S
C443 C438 1.363 . S
C443 C442 1.415 . S
H444 C441 0.999 . S
H445 C426 0.913 . S
H446 C464 0.951 . S
H447 C466 0.951 . S
H448 C468 0.950 . S
H449 C469 0.950 . S
H450 C471 0.950 . S
H451 C474 0.950 . S
H452 C475 0.950 . S
H453 C477 0.950 . S
H454 C478 0.950 . S
H455 C479 0.951 . S
H456 C481 0.951 . S
H457 C483 0.950 . S
H458 C484 0.950 . S
H459 C486 0.950 . S
H460 C489 0.950 . S
H461 C490 0.950 . S
H462 C492 0.950 . S
H463 C493 0.950 . S
C464 H446 0.951 . S
C464 C465 1.366 . S
C464 C466 1.388 . S
C465 C464 1.366 . S
C465 C469 1.385 . S
C466 H447 0.951 . S
C466 C464 1.388 . S
C466 C467 1.366 . S
C467 C466 1.366 . S
C467 C468 1.414 . S
C467 C470 1.499 . S
C468 H448 0.950 . S
C468 C467 1.414 . S
C468 C469 1.374 . S
C469 H449 0.950 . S
C469 C465 1.385 . S
C469 C468 1.374 . S
C470 C467 1.499 . S
C470 C471 1.373 . S
C470 C472 1.389 . S
C471 H450 0.950 . S
C471 C470 1.373 . S
C471 C487 1.377 1_655 S
C472 C470 1.389 . S
C472 C473 1.524 . S
C472 C486 1.377 1_655 S
C473 C472 1.524 . S
C473 C474 1.397 . S
C473 C478 1.363 . S
C474 H451 0.950 . S
C474 C473 1.397 . S
C474 C475 1.334 . S
C475 H452 0.950 . S
C475 C474 1.334 . S
C475 C476 1.287 . S
C476 C475 1.287 . S
C476 C477 1.524 . S
C476 H495 0.913 . S
C477 H453 0.950 . S
C477 C476 1.524 . S
C477 C478 1.415 . S
C478 H454 0.950 . S
C478 C473 1.363 . S
C478 C477 1.415 . S
C479 H455 0.951 . S
C479 C480 1.366 . S
C479 C481 1.388 . S
C480 C479 1.366 . S
C480 C484 1.385 . S
C481 H456 0.951 . S
C481 C479 1.388 . S
C481 C482 1.366 . S
C482 C481 1.366 . S
C482 C483 1.414 . S
C482 C485 1.499 . S
C483 H457 0.950 . S
C483 C482 1.414 . S
C483 C484 1.374 . S
C484 H458 0.950 . S
C484 C480 1.385 . S
C484 C483 1.374 . S
C485 C482 1.499 . S
C485 C486 1.373 . S
C485 C487 1.389 . S
C486 H459 0.950 . S
C486 C472 1.377 1_455 S
C486 C485 1.373 . S
C487 C471 1.377 1_455 S
C487 C485 1.389 . S
C487 C488 1.524 . S
C488 C487 1.524 . S
C488 C489 1.397 . S
C488 C493 1.363 . S
C489 H460 0.950 . S
C489 C488 1.397 . S
C489 C490 1.334 . S
C490 H461 0.950 . S
C490 C489 1.334 . S
C490 C491 1.287 . S
C491 C490 1.287 . S
C491 C492 1.524 . S
C491 H494 0.999 . S
C492 H462 0.950 . S
C492 C491 1.524 . S
C492 C493 1.415 . S
C493 H463 0.950 . S
C493 C488 1.363 . S
C493 C492 1.415 . S
H494 C491 0.999 . S
H495 C476 0.913 . S
H496 C514 0.951 . S
H497 C516 0.951 . S
H498 C518 0.950 . S
H499 C519 0.950 . S
H500 C521 0.950 . S
H501 C524 0.950 . S
H502 C525 0.950 . S
H503 C527 0.950 . S
H504 C528 0.950 . S
H505 C529 0.951 . S
H506 C531 0.951 . S
H507 C533 0.950 . S
H508 C534 0.950 . S
H509 C536 0.950 . S
H510 C539 0.950 . S
H511 C540 0.950 . S
H512 C542 0.950 . S
H513 C543 0.950 . S
C514 H496 0.951 . S
C514 C515 1.366 . S
C514 C516 1.388 . S
C515 C514 1.366 . S
C515 C519 1.385 . S
C516 H497 0.951 . S
C516 C514 1.388 . S
C516 C517 1.366 . S
C517 C516 1.366 . S
C517 C518 1.414 . S
C517 C520 1.499 . S
C518 H498 0.950 . S
C518 C517 1.414 . S
C518 C519 1.374 . S
C519 H499 0.950 . S
C519 C515 1.385 . S
C519 C518 1.374 . S
C520 C517 1.499 . S
C520 C521 1.373 . S
C520 C522 1.389 . S
C521 H500 0.950 . S
C521 C520 1.373 . S
C521 C537 1.377 1_545 S
C522 C520 1.389 . S
C522 C523 1.524 . S
C522 C536 1.377 1_545 S
C523 C522 1.524 . S
C523 C524 1.397 . S
C523 C528 1.363 . S
C524 H501 0.950 . S
C524 C523 1.397 . S
C524 C525 1.334 . S
C525 H502 0.950 . S
C525 C524 1.334 . S
C525 C526 1.287 . S
C526 C525 1.287 . S
C526 C527 1.524 . S
C526 H545 0.913 . S
C527 H503 0.950 . S
C527 C526 1.524 . S
C527 C528 1.415 . S
C528 H504 0.950 . S
C528 C523 1.363 . S
C528 C527 1.415 . S
C529 H505 0.951 . S
C529 C530 1.366 . S
C529 C531 1.388 . S
C530 C529 1.366 . S
C530 C534 1.385 . S
C531 H506 0.951 . S
C531 C529 1.388 . S
C531 C532 1.366 . S
C532 C531 1.366 . S
C532 C533 1.414 . S
C532 C535 1.499 . S
C533 H507 0.950 . S
C533 C532 1.414 . S
C533 C534 1.374 . S
C534 H508 0.950 . S
C534 C530 1.385 . S
C534 C533 1.374 . S
C535 C532 1.499 . S
C535 C536 1.373 . S
C535 C537 1.389 . S
C536 H509 0.950 . S
C536 C522 1.377 1_565 S
C536 C535 1.373 . S
C537 C521 1.377 1_565 S
C537 C535 1.389 . S
C537 C538 1.524 . S
C538 C537 1.524 . S
C538 C539 1.397 . S
C538 C543 1.363 . S
C539 H510 0.950 . S
C539 C538 1.397 . S
C539 C540 1.334 . S
C540 H511 0.950 . S
C540 C539 1.334 . S
C540 C541 1.287 . S
C541 C540 1.287 . S
C541 C542 1.524 . S
C541 H544 0.999 . S
C542 H512 0.950 . S
C542 C541 1.524 . S
C542 C543 1.415 . S
C543 H513 0.950 . S
C543 C538 1.363 . S
C543 C542 1.415 . S
H544 C541 0.999 . S
H545 C526 0.913 . S
H546 C564 0.951 . S
H547 C566 0.951 . S
H548 C568 0.950 . S
H549 C569 0.950 . S
H550 C571 0.950 . S
H551 C574 0.950 . S
H552 C575 0.950 . S
H553 C577 0.950 . S
H554 C578 0.950 . S
H555 C579 0.951 . S
H556 C581 0.951 . S
H557 C583 0.950 . S
H558 C584 0.950 . S
H559 C586 0.950 . S
H560 C589 0.950 . S
H561 C590 0.950 . S
H562 C592 0.950 . S
H563 C593 0.950 . S
C564 H546 0.951 . S
C564 C565 1.366 . S
C564 C566 1.388 . S
C565 C564 1.366 . S
C565 C569 1.385 . S
C566 H547 0.951 . S
C566 C564 1.388 . S
C566 C567 1.366 . S
C567 C566 1.366 . S
C567 C568 1.414 . S
C567 C570 1.499 . S
C568 H548 0.950 . S
C568 C567 1.414 . S
C568 C569 1.374 . S
C569 H549 0.950 . S
C569 C565 1.385 . S
C569 C568 1.374 . S
C570 C567 1.499 . S
C570 C571 1.373 . S
C570 C572 1.389 . S
C571 H550 0.950 . S
C571 C570 1.373 . S
C571 C587 1.377 . S
C572 C570 1.389 . S
C572 C573 1.524 . S
C572 C586 1.377 . S
C573 C572 1.524 . S
C573 C574 1.397 . S
C573 C578 1.363 . S
C574 H551 0.950 . S
C574 C573 1.397 . S
C574 C575 1.334 . S
C575 H552 0.950 . S
C575 C574 1.334 . S
C575 C576 1.287 . S
C576 C575 1.287 . S
C576 C577 1.524 . S
C576 H595 0.913 . S
C577 H553 0.950 . S
C577 C576 1.524 . S
C577 C578 1.415 . S
C578 H554 0.950 . S
C578 C573 1.363 . S
C578 C577 1.415 . S
C579 H555 0.951 . S
C579 C580 1.366 . S
C579 C581 1.388 . S
C580 C579 1.366 . S
C580 C584 1.385 . S
C581 H556 0.951 . S
C581 C579 1.388 . S
C581 C582 1.366 . S
C582 C581 1.366 . S
C582 C583 1.414 . S
C582 C585 1.499 . S
C583 H557 0.950 . S
C583 C582 1.414 . S
C583 C584 1.374 . S
C584 H558 0.950 . S
C584 C580 1.385 . S
C584 C583 1.374 . S
C585 C582 1.499 . S
C585 C586 1.373 . S
C585 C587 1.389 . S
C586 H559 0.950 . S
C586 C572 1.377 . S
C586 C585 1.373 . S
C587 C571 1.377 . S
C587 C585 1.389 . S
C587 C588 1.524 . S
C588 C587 1.524 . S
C588 C589 1.397 . S
C588 C593 1.363 . S
C589 H560 0.950 . S
C589 C588 1.397 . S
C589 C590 1.334 . S
C590 H561 0.950 . S
C590 C589 1.334 . S
C590 C591 1.287 . S
C591 C590 1.287 . S
C591 C592 1.524 . S
C591 H594 0.999 . S
C592 H562 0.950 . S
C592 C591 1.524 . S
C592 C593 1.415 . S
C593 H563 0.950 . S
C593 C588 1.363 . S
C593 C592 1.415 . S
H594 C591 0.999 . S
H595 C576 0.913 . S
H596 C614 0.951 . S
H597 C616 0.951 . S
H598 C618 0.950 . S
H599 C619 0.950 . S
H600 C621 0.950 . S
H601 C624 0.950 . S
H602 C625 0.950 . S
H603 C627 0.950 . S
H604 C628 0.950 . S
H605 C629 0.951 . S
H606 C631 0.951 . S
H607 C633 0.950 . S
H608 C634 0.950 . S
H609 C636 0.950 . S
H610 C639 0.950 . S
H611 C640 0.950 . S
H612 C642 0.950 . S
H613 C643 0.950 . S
C614 H596 0.951 . S
C614 C615 1.366 . S
C614 C616 1.388 . S
C615 C614 1.366 . S
C615 C619 1.385 . S
C616 H597 0.951 . S
C616 C614 1.388 . S
C616 C617 1.366 . S
C617 C616 1.366 . S
C617 C618 1.414 . S
C617 C620 1.499 . S
C618 H598 0.950 . S
C618 C617 1.414 . S
C618 C619 1.374 . S
C619 H599 0.950 . S
C619 C615 1.385 . S
C619 C618 1.374 . S
C620 C617 1.499 . S
C620 C621 1.373 . S
C620 C622 1.389 . S
C621 H600 0.950 . S
C621 C620 1.373 . S
C621 C637 1.377 1_455 S
C622 C620 1.389 . S
C622 C623 1.524 . S
C622 C636 1.377 1_455 S
C623 C622 1.524 . S
C623 C624 1.397 . S
C623 C628 1.363 . S
C624 H601 0.950 . S
C624 C623 1.397 . S
C624 C625 1.334 . S
C625 H602 0.950 . S
C625 C624 1.334 . S
C625 C626 1.287 . S
C626 C625 1.287 . S
C626 C627 1.524 . S
C626 H645 0.913 . S
C627 H603 0.950 . S
C627 C626 1.524 . S
C627 C628 1.415 . S
C628 H604 0.950 . S
C628 C623 1.363 . S
C628 C627 1.415 . S
C629 H605 0.951 . S
C629 C630 1.366 . S
C629 C631 1.388 . S
C630 C629 1.366 . S
C630 C634 1.385 . S
C631 H606 0.951 . S
C631 C629 1.388 . S
C631 C632 1.366 . S
C632 C631 1.366 . S
C632 C633 1.414 . S
C632 C635 1.499 . S
C633 H607 0.950 . S
C633 C632 1.414 . S
C633 C634 1.374 . S
C634 H608 0.950 . S
C634 C630 1.385 . S
C634 C633 1.374 . S
C635 C632 1.499 . S
C635 C636 1.373 . S
C635 C637 1.389 . S
C636 H609 0.950 . S
C636 C622 1.377 1_655 S
C636 C635 1.373 . S
C637 C621 1.377 1_655 S
C637 C635 1.389 . S
C637 C638 1.524 . S
C638 C637 1.524 . S
C638 C639 1.397 . S
C638 C643 1.363 . S
C639 H610 0.950 . S
C639 C638 1.397 . S
C639 C640 1.334 . S
C640 H611 0.950 . S
C640 C639 1.334 . S
C640 C641 1.287 . S
C641 C640 1.287 . S
C641 C642 1.524 . S
C641 H644 0.999 . S
C642 H612 0.950 . S
C642 C641 1.524 . S
C642 C643 1.415 . S
C643 H613 0.950 . S
C643 C638 1.363 . S
C643 C642 1.415 . S
H644 C641 0.999 . S
H645 C626 0.913 . S
H646 C664 0.951 . S
H647 C666 0.951 . S
H648 C668 0.950 . S
H649 C669 0.950 . S
H650 C671 0.950 . S
H651 C674 0.950 . S
H652 C675 0.950 . S
H653 C677 0.950 . S
H654 C678 0.950 1_545 S
H655 C679 0.951 . S
H656 C681 0.951 . S
H657 C683 0.950 . S
H658 C684 0.950 . S
H659 C686 0.950 . S
H660 C689 0.950 . S
H661 C690 0.950 . S
H662 C692 0.950 . S
H663 C693 0.950 1_565 S
C664 H646 0.951 . S
C664 C665 1.366 . S
C664 C666 1.388 . S
C665 C664 1.366 . S
C665 C669 1.385 . S
C666 H647 0.951 . S
C666 C664 1.388 . S
C666 C667 1.366 . S
C667 C666 1.366 . S
C667 C668 1.414 . S
C667 C670 1.499 . S
C668 H648 0.950 . S
C668 C667 1.414 . S
C668 C669 1.374 . S
C669 H649 0.950 . S
C669 C665 1.385 . S
C669 C668 1.374 . S
C670 C667 1.499 . S
C670 C671 1.373 . S
C670 C672 1.389 . S
C671 H650 0.950 . S
C671 C670 1.373 . S
C671 C687 1.377 1_565 S
C672 C670 1.389 . S
C672 C673 1.524 . S
C672 C686 1.377 1_565 S
C673 C672 1.524 . S
C673 C674 1.397 . S
C673 C678 1.363 . S
C674 H651 0.950 . S
C674 C673 1.397 . S
C674 C675 1.334 . S
C675 H652 0.950 . S
C675 C674 1.334 . S
C675 C676 1.287 . S
C676 C675 1.287 . S
C676 C677 1.524 . S
C676 H695 0.913 . S
C677 H653 0.950 . S
C677 C676 1.524 . S
C677 C678 1.415 . S
C678 H654 0.950 1_565 S
C678 C673 1.363 . S
C678 C677 1.415 . S
C679 H655 0.951 . S
C679 C680 1.366 . S
C679 C681 1.388 . S
C680 C679 1.366 . S
C680 C684 1.385 . S
C681 H656 0.951 . S
C681 C679 1.388 . S
C681 C682 1.366 . S
C682 C681 1.366 . S
C682 C683 1.414 . S
C682 C685 1.499 . S
C683 H657 0.950 . S
C683 C682 1.414 . S
C683 C684 1.374 . S
C684 H658 0.950 . S
C684 C680 1.385 . S
C684 C683 1.374 . S
C685 C682 1.499 . S
C685 C686 1.373 . S
C685 C687 1.389 . S
C686 H659 0.950 . S
C686 C672 1.377 1_545 S
C686 C685 1.373 . S
C687 C671 1.377 1_545 S
C687 C685 1.389 . S
C687 C688 1.524 . S
C688 C687 1.524 . S
C688 C689 1.397 . S
C688 C693 1.363 . S
C689 H660 0.950 . S
C689 C688 1.397 . S
C689 C690 1.334 . S
C690 H661 0.950 . S
C690 C689 1.334 . S
C690 C691 1.287 . S
C691 C690 1.287 . S
C691 C692 1.524 . S
C691 H694 0.999 . S
C692 H662 0.950 . S
C692 C691 1.524 . S
C692 C693 1.415 . S
C693 H663 0.950 1_545 S
C693 C688 1.363 . S
C693 C692 1.415 . S
H694 C691 0.999 . S
H695 C676 0.913 . S
H696 C714 0.951 . S
H697 C716 0.951 . S
H698 C718 0.950 . S
H699 C719 0.950 . S
H700 C721 0.950 . S
H701 C724 0.950 . S
H702 C725 0.950 . S
H703 C727 0.950 . S
H704 C728 0.950 . S
H705 C729 0.951 . S
H706 C731 0.951 . S
H707 C733 0.950 . S
H708 C734 0.950 . S
H709 C736 0.950 . S
H710 C739 0.950 . S
H711 C740 0.950 . S
H712 C742 0.950 . S
H713 C743 0.950 . S
C714 H696 0.951 . S
C714 C715 1.366 . S
C714 C716 1.388 . S
C715 C714 1.366 . S
C715 C719 1.385 . S
C716 H697 0.951 . S
C716 C714 1.388 . S
C716 C717 1.366 . S
C717 C716 1.366 . S
C717 C718 1.414 . S
C717 C720 1.499 . S
C718 H698 0.950 . S
C718 C717 1.414 . S
C718 C719 1.374 . S
C719 H699 0.950 . S
C719 C715 1.385 . S
C719 C718 1.374 . S
C720 C717 1.499 . S
C720 C721 1.373 . S
C720 C722 1.389 . S
C721 H700 0.950 . S
C721 C720 1.373 . S
C721 C737 1.377 1_556 S
C722 C720 1.389 . S
C722 C723 1.524 . S
C722 C736 1.377 1_556 S
C723 C722 1.524 . S
C723 C724 1.397 . S
C723 C728 1.363 . S
C724 H701 0.950 . S
C724 C723 1.397 . S
C724 C725 1.334 . S
C725 H702 0.950 . S
C725 C724 1.334 . S
C725 C726 1.287 . S
C726 C725 1.287 . S
C726 C727 1.524 . S
C726 H745 0.913 . S
C727 H703 0.950 . S
C727 C726 1.524 . S
C727 C728 1.415 . S
C728 H704 0.950 . S
C728 C723 1.363 . S
C728 C727 1.415 . S
C729 H705 0.951 . S
C729 C730 1.366 . S
C729 C731 1.388 . S
C730 C729 1.366 . S
C730 C734 1.385 . S
C731 H706 0.951 . S
C731 C729 1.388 . S
C731 C732 1.366 . S
C732 C731 1.366 . S
C732 C733 1.414 . S
C732 C735 1.499 . S
C733 H707 0.950 . S
C733 C732 1.414 . S
C733 C734 1.374 . S
C734 H708 0.950 . S
C734 C730 1.385 . S
C734 C733 1.374 . S
C735 C732 1.499 . S
C735 C736 1.373 . S
C735 C737 1.389 . S
C736 H709 0.950 . S
C736 C722 1.377 1_554 S
C736 C735 1.373 . S
C737 C721 1.377 1_554 S
C737 C735 1.389 . S
C737 C738 1.524 . S
C738 C737 1.524 . S
C738 C739 1.397 . S
C738 C743 1.363 . S
C739 H710 0.950 . S
C739 C738 1.397 . S
C739 C740 1.334 . S
C740 H711 0.950 . S
C740 C739 1.334 . S
C740 C741 1.287 . S
C741 C740 1.287 . S
C741 C742 1.524 . S
C741 H744 0.999 . S
C742 H712 0.950 . S
C742 C741 1.524 . S
C742 C743 1.415 . S
C743 H713 0.950 . S
C743 C738 1.363 . S
C743 C742 1.415 . S
H744 C741 0.999 . S
H745 C726 0.913 . S
H746 C764 0.951 . S
H747 C766 0.951 . S
H748 C768 0.950 . S
H749 C769 0.950 . S
H750 C771 0.950 . S
H751 C774 0.950 . S
H752 C775 0.950 . S
H753 C777 0.950 . S
H754 C778 0.950 . S
H755 C779 0.951 . S
H756 C781 0.951 . S
H757 C783 0.950 . S
H758 C784 0.950 . S
H759 C786 0.950 . S
H760 C789 0.950 . S
H761 C790 0.950 . S
H762 C792 0.950 . S
H763 C793 0.950 . S
C764 H746 0.951 . S
C764 C765 1.366 . S
C764 C766 1.388 . S
C765 C764 1.366 . S
C765 C769 1.385 . S
C766 H747 0.951 . S
C766 C764 1.388 . S
C766 C767 1.366 . S
C767 C766 1.366 . S
C767 C768 1.414 . S
C767 C770 1.499 . S
C768 H748 0.950 . S
C768 C767 1.414 . S
C768 C769 1.374 . S
C769 H749 0.950 . S
C769 C765 1.385 . S
C769 C768 1.374 . S
C770 C767 1.499 . S
C770 C771 1.373 . S
C770 C772 1.389 . S
C771 H750 0.950 . S
C771 C770 1.373 . S
C771 C787 1.377 . S
C772 C770 1.389 . S
C772 C773 1.524 . S
C772 C786 1.377 . S
C773 C772 1.524 . S
C773 C774 1.397 . S
C773 C778 1.363 . S
C774 H751 0.950 . S
C774 C773 1.397 . S
C774 C775 1.334 . S
C775 H752 0.950 . S
C775 C774 1.334 . S
C775 C776 1.287 . S
C776 C775 1.287 . S
C776 C777 1.524 . S
C776 H795 0.913 . S
C777 H753 0.950 . S
C777 C776 1.524 . S
C777 C778 1.415 . S
C778 H754 0.950 . S
C778 C773 1.363 . S
C778 C777 1.415 . S
C779 H755 0.951 . S
C779 C780 1.366 . S
C779 C781 1.388 . S
C780 C779 1.366 . S
C780 C784 1.385 . S
C781 H756 0.951 . S
C781 C779 1.388 . S
C781 C782 1.366 . S
C782 C781 1.366 . S
C782 C783 1.414 . S
C782 C785 1.499 . S
C783 H757 0.950 . S
C783 C782 1.414 . S
C783 C784 1.374 . S
C784 H758 0.950 . S
C784 C780 1.385 . S
C784 C783 1.374 . S
C785 C782 1.499 . S
C785 C786 1.373 . S
C785 C787 1.389 . S
C786 H759 0.950 . S
C786 C772 1.377 . S
C786 C785 1.373 . S
C787 C771 1.377 . S
C787 C785 1.389 . S
C787 C788 1.524 . S
C788 C787 1.524 . S
C788 C789 1.397 . S
C788 C793 1.363 . S
C789 H760 0.950 . S
C789 C788 1.397 . S
C789 C790 1.334 . S
C790 H761 0.950 . S
C790 C789 1.334 . S
C790 C791 1.287 . S
C791 C790 1.287 . S
C791 C792 1.524 . S
C791 H794 0.999 . S
C792 H762 0.950 . S
C792 C791 1.524 . S
C792 C793 1.415 . S
C793 H763 0.950 . S
C793 C788 1.363 . S
C793 C792 1.415 . S
H794 C791 0.999 . S
H795 C776 0.913 . S
H796 C814 0.951 . S
H797 C816 0.951 . S
H798 C818 0.950 . S
H799 C819 0.950 . S
H800 C821 0.950 . S
H801 C824 0.950 . S
H802 C825 0.950 . S
H803 C827 0.950 . S
H804 C828 0.950 . S
H805 C829 0.951 . S
H806 C831 0.951 . S
H807 C833 0.950 . S
H808 C834 0.950 . S
H809 C836 0.950 . S
H810 C839 0.950 . S
H811 C840 0.950 . S
H812 C842 0.950 . S
H813 C843 0.950 . S
C814 H796 0.951 . S
C814 C815 1.366 . S
C814 C816 1.388 . S
C815 C814 1.366 . S
C815 C819 1.385 . S
C816 H797 0.951 . S
C816 C814 1.388 . S
C816 C817 1.366 . S
C817 C816 1.366 . S
C817 C818 1.414 . S
C817 C820 1.499 . S
C818 H798 0.950 . S
C818 C817 1.414 . S
C818 C819 1.374 . S
C819 H799 0.950 . S
C819 C815 1.385 . S
C819 C818 1.374 . S
C820 C817 1.499 . S
C820 C821 1.373 . S
C820 C822 1.389 . S
C821 H800 0.950 . S
C821 C820 1.373 . S
C821 C837 1.377 1_554 S
C822 C820 1.389 . S
C822 C823 1.524 . S
C822 C836 1.377 1_554 S
C823 C822 1.524 . S
C823 C824 1.397 . S
C823 C828 1.363 . S
C824 H801 0.950 . S
C824 C823 1.397 . S
C824 C825 1.334 . S
C825 H802 0.950 . S
C825 C824 1.334 . S
C825 C826 1.287 . S
C826 C825 1.287 . S
C826 C827 1.524 . S
C826 H845 0.913 . S
C827 H803 0.950 . S
C827 C826 1.524 . S
C827 C828 1.415 . S
C828 H804 0.950 . S
C828 C823 1.363 . S
C828 C827 1.415 . S
C829 H805 0.951 . S
C829 C830 1.366 . S
C829 C831 1.388 . S
C830 C829 1.366 . S
C830 C834 1.385 . S
C831 H806 0.951 . S
C831 C829 1.388 . S
C831 C832 1.366 . S
C832 C831 1.366 . S
C832 C833 1.414 . S
C832 C835 1.499 . S
C833 H807 0.950 . S
C833 C832 1.414 . S
C833 C834 1.374 . S
C834 H808 0.950 . S
C834 C830 1.385 . S
C834 C833 1.374 . S
C835 C832 1.499 . S
C835 C836 1.373 . S
C835 C837 1.389 . S
C836 H809 0.950 . S
C836 C822 1.377 1_556 S
C836 C835 1.373 . S
C837 C821 1.377 1_556 S
C837 C835 1.389 . S
C837 C838 1.524 . S
C838 C837 1.524 . S
C838 C839 1.397 . S
C838 C843 1.363 . S
C839 H810 0.950 . S
C839 C838 1.397 . S
C839 C840 1.334 . S
C840 H811 0.950 . S
C840 C839 1.334 . S
C840 C841 1.287 . S
C841 C840 1.287 . S
C841 C842 1.524 . S
C841 H844 0.999 . S
C842 H812 0.950 . S
C842 C841 1.524 . S
C842 C843 1.415 . S
C843 H813 0.950 . S
C843 C838 1.363 . S
C843 C842 1.415 . S
H844 C841 0.999 . S
H845 C826 0.913 . S
H846 C864 0.951 . S
H847 C866 0.951 . S
H848 C868 0.950 . S
H849 C869 0.950 . S
H850 C871 0.950 . S
H851 C874 0.950 . S
H852 C875 0.950 . S
H853 C877 0.950 . S
H854 C878 0.950 . S
H855 C879 0.951 . S
H856 C881 0.951 . S
H857 C883 0.950 . S
H858 C884 0.950 . S
H859 C886 0.950 . S
H860 C889 0.950 . S
H861 C890 0.950 . S
H862 C892 0.950 . S
H863 C893 0.950 . S
C864 H846 0.951 . S
C864 C865 1.366 . S
C864 C866 1.388 . S
C865 C864 1.366 . S
C865 C869 1.385 . S
C866 H847 0.951 . S
C866 C864 1.388 . S
C866 C867 1.366 . S
C867 C866 1.366 . S
C867 C868 1.414 . S
C867 C870 1.499 . S
C868 H848 0.950 . S
C868 C867 1.414 . S
C868 C869 1.374 . S
C869 H849 0.950 . S
C869 C865 1.385 . S
C869 C868 1.374 . S
C870 C867 1.499 . S
C870 C871 1.373 . S
C870 C872 1.389 . S
C871 H850 0.950 . S
C871 C870 1.373 . S
C871 C887 1.377 . S
C872 C870 1.389 . S
C872 C873 1.524 . S
C872 C886 1.377 . S
C873 C872 1.524 . S
C873 C874 1.397 . S
C873 C878 1.363 . S
C874 H851 0.950 . S
C874 C873 1.397 . S
C874 C875 1.334 . S
C875 H852 0.950 . S
C875 C874 1.334 . S
C875 C876 1.287 . S
C876 C875 1.287 . S
C876 C877 1.524 . S
C876 H895 0.913 . S
C877 H853 0.950 . S
C877 C876 1.524 . S
C877 C878 1.415 . S
C878 H854 0.950 . S
C878 C873 1.363 . S
C878 C877 1.415 . S
C879 H855 0.951 . S
C879 C880 1.366 . S
C879 C881 1.388 . S
C880 C879 1.366 . S
C880 C884 1.385 . S
C881 H856 0.951 . S
C881 C879 1.388 . S
C881 C882 1.366 . S
C882 C881 1.366 . S
C882 C883 1.414 . S
C882 C885 1.499 . S
C883 H857 0.950 . S
C883 C882 1.414 . S
C883 C884 1.374 . S
C884 H858 0.950 . S
C884 C880 1.385 . S
C884 C883 1.374 . S
C885 C882 1.499 . S
C885 C886 1.373 . S
C885 C887 1.389 . S
C886 H859 0.950 . S
C886 C872 1.377 . S
C886 C885 1.373 . S
C887 C871 1.377 . S
C887 C885 1.389 . S
C887 C888 1.524 . S
C888 C887 1.524 . S
C888 C889 1.397 . S
C888 C893 1.363 . S
C889 H860 0.950 . S
C889 C888 1.397 . S
C889 C890 1.334 . S
C890 H861 0.950 . S
C890 C889 1.334 . S
C890 C891 1.287 . S
C891 C890 1.287 . S
C891 C892 1.524 . S
C891 H894 0.999 . S
C892 H862 0.950 . S
C892 C891 1.524 . S
C892 C893 1.415 . S
C893 H863 0.950 . S
C893 C888 1.363 . S
C893 C892 1.415 . S
H894 C891 0.999 . S
H895 C876 0.913 . S
H896 C914 0.951 . S
H897 C916 0.951 . S
H898 C918 0.950 . S
H899 C919 0.950 . S
H900 C921 0.950 . S
H901 C924 0.950 . S
H902 C925 0.950 . S
H903 C927 0.950 . S
H904 C928 0.950 . S
H905 C929 0.951 . S
H906 C931 0.951 . S
H907 C933 0.950 . S
H908 C934 0.950 . S
H909 C936 0.950 . S
H910 C939 0.950 . S
H911 C940 0.950 . S
H912 C942 0.950 . S
H913 C943 0.950 . S
C914 H896 0.951 . S
C914 C915 1.366 . S
C914 C916 1.388 . S
C915 C914 1.366 . S
C915 C919 1.385 . S
C916 H897 0.951 . S
C916 C914 1.388 . S
C916 C917 1.366 . S
C917 C916 1.366 . S
C917 C918 1.414 . S
C917 C920 1.499 . S
C918 H898 0.950 . S
C918 C917 1.414 . S
C918 C919 1.374 . S
C919 H899 0.950 . S
C919 C915 1.385 . S
C919 C918 1.374 . S
C920 C917 1.499 . S
C920 C921 1.373 . S
C920 C922 1.389 . S
C921 H900 0.950 . S
C921 C920 1.373 . S
C921 C937 1.377 1_556 S
C922 C920 1.389 . S
C922 C923 1.524 . S
C922 C936 1.377 1_556 S
C923 C922 1.524 . S
C923 C924 1.397 . S
C923 C928 1.363 . S
C924 H901 0.950 . S
C924 C923 1.397 . S
C924 C925 1.334 . S
C925 H902 0.950 . S
C925 C924 1.334 . S
C925 C926 1.287 . S
C926 C925 1.287 . S
C926 C927 1.524 . S
C926 H945 0.913 . S
C927 H903 0.950 . S
C927 C926 1.524 . S
C927 C928 1.415 . S
C928 H904 0.950 . S
C928 C923 1.363 . S
C928 C927 1.415 . S
C929 H905 0.951 . S
C929 C930 1.366 . S
C929 C931 1.388 . S
C930 C929 1.366 . S
C930 C934 1.385 . S
C931 H906 0.951 . S
C931 C929 1.388 . S
C931 C932 1.366 . S
C932 C931 1.366 . S
C932 C933 1.414 . S
C932 C935 1.499 . S
C933 H907 0.950 . S
C933 C932 1.414 . S
C933 C934 1.374 . S
C934 H908 0.950 . S
C934 C930 1.385 . S
C934 C933 1.374 . S
C935 C932 1.499 . S
C935 C936 1.373 . S
C935 C937 1.389 . S
C936 H909 0.950 . S
C936 C922 1.377 1_554 S
C936 C935 1.373 . S
C937 C921 1.377 1_554 S
C937 C935 1.389 . S
C937 C938 1.524 . S
C938 C937 1.524 . S
C938 C939 1.397 . S
C938 C943 1.363 . S
C939 H910 0.950 . S
C939 C938 1.397 . S
C939 C940 1.334 . S
C940 H911 0.950 . S
C940 C939 1.334 . S
C940 C941 1.287 . S
C941 C940 1.287 . S
C941 C942 1.524 . S
C941 H944 0.999 . S
C942 H912 0.950 . S
C942 C941 1.524 . S
C942 C943 1.415 . S
C943 H913 0.950 . S
C943 C938 1.363 . S
C943 C942 1.415 . S
H944 C941 0.999 . S
H945 C926 0.913 . S
H946 C964 0.951 . S
H947 C966 0.951 . S
H948 C968 0.950 . S
H949 C969 0.950 . S
H950 C971 0.950 . S
H951 C974 0.950 . S
H952 C975 0.950 . S
H953 C977 0.950 . S
H954 C978 0.950 . S
H955 C979 0.951 . S
H956 C981 0.951 . S
H957 C983 0.950 . S
H958 C984 0.950 . S
H959 C986 0.950 . S
H960 C989 0.950 . S
H961 C990 0.950 . S
H962 C992 0.950 . S
H963 C993 0.950 . S
C964 H946 0.951 . S
C964 C965 1.366 . S
C964 C966 1.388 . S
C965 C964 1.366 . S
C965 C969 1.385 . S
C966 H947 0.951 . S
C966 C964 1.388 . S
C966 C967 1.366 . S
C967 C966 1.366 . S
C967 C968 1.414 . S
C967 C970 1.499 . S
C968 H948 0.950 . S
C968 C967 1.414 . S
C968 C969 1.374 . S
C969 H949 0.950 . S
C969 C965 1.385 . S
C969 C968 1.374 . S
C970 C967 1.499 . S
C970 C971 1.373 . S
C970 C972 1.389 . S
C971 H950 0.950 . S
C971 C970 1.373 . S
C971 C987 1.377 . S
C972 C970 1.389 . S
C972 C973 1.524 . S
C972 C986 1.377 . S
C973 C972 1.524 . S
C973 C974 1.397 . S
C973 C978 1.363 . S
C974 H951 0.950 . S
C974 C973 1.397 . S
C974 C975 1.334 . S
C975 H952 0.950 . S
C975 C974 1.334 . S
C975 C976 1.287 . S
C976 C975 1.287 . S
C976 C977 1.524 . S
C976 H995 0.913 . S
C977 H953 0.950 . S
C977 C976 1.524 . S
C977 C978 1.415 . S
C978 H954 0.950 . S
C978 C973 1.363 . S
C978 C977 1.415 . S
C979 H955 0.951 . S
C979 C980 1.366 . S
C979 C981 1.388 . S
C980 C979 1.366 . S
C980 C984 1.385 . S
C981 H956 0.951 . S
C981 C979 1.388 . S
C981 C982 1.366 . S
C982 C981 1.366 . S
C982 C983 1.414 . S
C982 C985 1.499 . S
C983 H957 0.950 . S
C983 C982 1.414 . S
C983 C984 1.374 . S
C984 H958 0.950 . S
C984 C980 1.385 . S
C984 C983 1.374 . S
C985 C982 1.499 . S
C985 C986 1.373 . S
C985 C987 1.389 . S
C986 H959 0.950 . S
C986 C972 1.377 . S
C986 C985 1.373 . S
C987 C971 1.377 . S
C987 C985 1.389 . S
C987 C988 1.524 . S
C988 C987 1.524 . S
C988 C989 1.397 . S
C988 C993 1.363 . S
C989 H960 0.950 . S
C989 C988 1.397 . S
C989 C990 1.334 . S
C990 H961 0.950 . S
C990 C989 1.334 . S
C990 C991 1.287 . S
C991 C990 1.287 . S
C991 C992 1.524 . S
C991 H994 0.999 . S
C992 H962 0.950 . S
C992 C991 1.524 . S
C992 C993 1.415 . S
C993 H963 0.950 . S
C993 C988 1.363 . S
C993 C992 1.415 . S
H994 C991 0.999 . S
H995 C976 0.913 . S
H996 C1014 0.951 . S
H997 C1016 0.951 . S
H998 C1018 0.950 . S
H999 C1019 0.950 . S
H1000 C1021 0.950 . S
H1001 C1024 0.950 . S
H1002 C1025 0.950 . S
H1003 C1027 0.950 . S
H1004 C1028 0.950 . S
H1005 C1029 0.951 . S
H1006 C1031 0.951 . S
H1007 C1033 0.950 . S
H1008 C1034 0.950 . S
H1009 C1036 0.950 . S
H1010 C1039 0.950 . S
H1011 C1040 0.950 . S
H1012 C1042 0.950 . S
H1013 C1043 0.950 . S
C1014 H996 0.951 . S
C1014 C1015 1.366 . S
C1014 C1016 1.388 . S
C1015 C1014 1.366 . S
C1015 C1019 1.385 . S
C1016 H997 0.951 . S
C1016 C1014 1.388 . S
C1016 C1017 1.366 . S
C1017 C1016 1.366 . S
C1017 C1018 1.414 . S
C1017 C1020 1.499 . S
C1018 H998 0.950 . S
C1018 C1017 1.414 . S
C1018 C1019 1.374 . S
C1019 H999 0.950 . S
C1019 C1015 1.385 . S
C1019 C1018 1.374 . S
C1020 C1017 1.499 . S
C1020 C1021 1.373 . S
C1020 C1022 1.389 . S
C1021 H1000 0.950 . S
C1021 C1020 1.373 . S
C1021 C1037 1.377 1_554 S
C1022 C1020 1.389 . S
C1022 C1023 1.524 . S
C1022 C1036 1.377 1_554 S
C1023 C1022 1.524 . S
C1023 C1024 1.397 . S
C1023 C1028 1.363 . S
C1024 H1001 0.950 . S
C1024 C1023 1.397 . S
C1024 C1025 1.334 . S
C1025 H1002 0.950 . S
C1025 C1024 1.334 . S
C1025 C1026 1.287 . S
C1026 C1025 1.287 . S
C1026 C1027 1.524 . S
C1026 H1045 0.913 . S
C1027 H1003 0.950 . S
C1027 C1026 1.524 . S
C1027 C1028 1.415 . S
C1028 H1004 0.950 . S
C1028 C1023 1.363 . S
C1028 C1027 1.415 . S
C1029 H1005 0.951 . S
C1029 C1030 1.366 . S
C1029 C1031 1.388 . S
C1030 C1029 1.366 . S
C1030 C1034 1.385 . S
C1031 H1006 0.951 . S
C1031 C1029 1.388 . S
C1031 C1032 1.366 . S
C1032 C1031 1.366 . S
C1032 C1033 1.414 . S
C1032 C1035 1.499 . S
C1033 H1007 0.950 . S
C1033 C1032 1.414 . S
C1033 C1034 1.374 . S
C1034 H1008 0.950 . S
C1034 C1030 1.385 . S
C1034 C1033 1.374 . S
C1035 C1032 1.499 . S
C1035 C1036 1.373 . S
C1035 C1037 1.389 . S
C1036 H1009 0.950 . S
C1036 C1022 1.377 1_556 S
C1036 C1035 1.373 . S
C1037 C1021 1.377 1_556 S
C1037 C1035 1.389 . S
C1037 C1038 1.524 . S
C1038 C1037 1.524 . S
C1038 C1039 1.397 . S
C1038 C1043 1.363 . S
C1039 H1010 0.950 . S
C1039 C1038 1.397 . S
C1039 C1040 1.334 . S
C1040 H1011 0.950 . S
C1040 C1039 1.334 . S
C1040 C1041 1.287 . S
C1041 C1040 1.287 . S
C1041 C1042 1.524 . S
C1041 H1044 0.999 . S
C1042 H1012 0.950 . S
C1042 C1041 1.524 . S
C1042 C1043 1.415 . S
C1043 H1013 0.950 . S
C1043 C1038 1.363 . S
C1043 C1042 1.415 . S
H1044 C1041 0.999 . S
H1045 C1026 0.913 . S
H1046 C1064 0.951 . S
H1047 C1066 0.951 . S
H1048 C1068 0.950 . S
H1049 C1069 0.950 . S
H1050 C1071 0.950 . S
H1051 C1074 0.950 . S
H1052 C1075 0.950 . S
H1053 C1077 0.950 . S
H1054 C1078 0.950 . S
H1055 C1079 0.951 . S
H1056 C1081 0.951 . S
H1057 C1083 0.950 . S
H1058 C1084 0.950 . S
H1059 C1086 0.950 . S
H1060 C1089 0.950 . S
H1061 C1090 0.950 . S
H1062 C1092 0.950 . S
H1063 C1093 0.950 . S
C1064 H1046 0.951 . S
C1064 C1065 1.366 . S
C1064 C1066 1.388 . S
C1065 C1064 1.366 . S
C1065 C1069 1.385 . S
C1066 H1047 0.951 . S
C1066 C1064 1.388 . S
C1066 C1067 1.366 . S
C1067 C1066 1.366 . S
C1067 C1068 1.414 . S
C1067 C1070 1.499 . S
C1068 H1048 0.950 . S
C1068 C1067 1.414 . S
C1068 C1069 1.374 . S
C1069 H1049 0.950 . S
C1069 C1065 1.385 . S
C1069 C1068 1.374 . S
C1070 C1067 1.499 . S
C1070 C1071 1.373 . S
C1070 C1072 1.389 . S
C1071 H1050 0.950 . S
C1071 C1070 1.373 . S
C1071 C1087 1.377 . S
C1072 C1070 1.389 . S
C1072 C1073 1.524 . S
C1072 C1086 1.377 . S
C1073 C1072 1.524 . S
C1073 C1074 1.397 . S
C1073 C1078 1.363 . S
C1074 H1051 0.950 . S
C1074 C1073 1.397 . S
C1074 C1075 1.334 . S
C1075 H1052 0.950 . S
C1075 C1074 1.334 . S
C1075 C1076 1.287 . S
C1076 C1075 1.287 . S
C1076 C1077 1.524 . S
C1076 H1095 0.913 . S
C1077 H1053 0.950 . S
C1077 C1076 1.524 . S
C1077 C1078 1.415 . S
C1078 H1054 0.950 . S
C1078 C1073 1.363 . S
C1078 C1077 1.415 . S
C1079 H1055 0.951 . S
C1079 C1080 1.366 . S
C1079 C1081 1.388 . S
C1080 C1079 1.366 . S
C1080 C1084 1.385 . S
C1081 H1056 0.951 . S
C1081 C1079 1.388 . S
C1081 C1082 1.366 . S
C1082 C1081 1.366 . S
C1082 C1083 1.414 . S
C1082 C1085 1.499 . S
C1083 H1057 0.950 . S
C1083 C1082 1.414 . S
C1083 C1084 1.374 . S
C1084 H1058 0.950 . S
C1084 C1080 1.385 . S
C1084 C1083 1.374 . S
C1085 C1082 1.499 . S
C1085 C1086 1.373 . S
C1085 C1087 1.389 . S
C1086 H1059 0.950 . S
C1086 C1072 1.377 . S
C1086 C1085 1.373 . S
C1087 C1071 1.377 . S
C1087 C1085 1.389 . S
C1087 C1088 1.524 . S
C1088 C1087 1.524 . S
C1088 C1089 1.397 . S
C1088 C1093 1.363 . S
C1089 H1060 0.950 . S
C1089 C1088 1.397 . S
C1089 C1090 1.334 . S
C1090 H1061 0.950 . S
C1090 C1089 1.334 . S
C1090 C1091 1.287 . S
C1091 C1090 1.287 . S
C1091 C1092 1.524 . S
C1091 H1094 0.999 . S
C1092 H1062 0.950 . S
C1092 C1091 1.524 . S
C1092 C1093 1.415 . S
C1093 H1063 0.950 . S
C1093 C1088 1.363 . S
C1093 C1092 1.415 . S
H1094 C1091 0.999 . S
H1095 C1076 0.913 . S
H1096 C1114 0.951 . S
H1097 C1116 0.951 . S
H1098 C1118 0.950 . S
H1099 C1119 0.950 . S
H1100 C1121 0.950 . S
H1101 C1124 0.950 . S
H1102 C1125 0.950 . S
H1103 C1127 0.950 . S
H1104 C1128 0.950 . S
H1105 C1129 0.951 . S
H1106 C1131 0.951 . S
H1107 C1133 0.950 . S
H1108 C1134 0.950 . S
H1109 C1136 0.950 . S
H1110 C1139 0.950 . S
H1111 C1140 0.950 . S
H1112 C1142 0.950 . S
H1113 C1143 0.950 . S
C1114 H1096 0.951 . S
C1114 C1115 1.366 . S
C1114 C1116 1.388 . S
C1115 C1114 1.366 . S
C1115 C1119 1.385 . S
C1116 H1097 0.951 . S
C1116 C1114 1.388 . S
C1116 C1117 1.366 . S
C1117 C1116 1.366 . S
C1117 C1118 1.414 . S
C1117 C1120 1.499 . S
C1118 H1098 0.950 . S
C1118 C1117 1.414 . S
C1118 C1119 1.374 . S
C1119 H1099 0.950 . S
C1119 C1115 1.385 . S
C1119 C1118 1.374 . S
C1120 C1117 1.499 . S
C1120 C1121 1.373 . S
C1120 C1122 1.389 . S
C1121 H1100 0.950 . S
C1121 C1120 1.373 . S
C1121 C1137 1.377 1_556 S
C1122 C1120 1.389 . S
C1122 C1123 1.524 . S
C1122 C1136 1.377 1_556 S
C1123 C1122 1.524 . S
C1123 C1124 1.397 . S
C1123 C1128 1.363 . S
C1124 H1101 0.950 . S
C1124 C1123 1.397 . S
C1124 C1125 1.334 . S
C1125 H1102 0.950 . S
C1125 C1124 1.334 . S
C1125 C1126 1.287 . S
C1126 C1125 1.287 . S
C1126 C1127 1.524 . S
C1126 H1145 0.913 . S
C1127 H1103 0.950 . S
C1127 C1126 1.524 . S
C1127 C1128 1.415 . S
C1128 H1104 0.950 . S
C1128 C1123 1.363 . S
C1128 C1127 1.415 . S
C1129 H1105 0.951 . S
C1129 C1130 1.366 . S
C1129 C1131 1.388 . S
C1130 C1129 1.366 . S
C1130 C1134 1.385 . S
C1131 H1106 0.951 . S
C1131 C1129 1.388 . S
C1131 C1132 1.366 . S
C1132 C1131 1.366 . S
C1132 C1133 1.414 . S
C1132 C1135 1.499 . S
C1133 H1107 0.950 . S
C1133 C1132 1.414 . S
C1133 C1134 1.374 . S
C1134 H1108 0.950 . S
C1134 C1130 1.385 . S
C1134 C1133 1.374 . S
C1135 C1132 1.499 . S
C1135 C1136 1.373 . S
C1135 C1137 1.389 . S
C1136 H1109 0.950 . S
C1136 C1122 1.377 1_554 S
C1136 C1135 1.373 . S
C1137 C1121 1.377 1_554 S
C1137 C1135 1.389 . S
C1137 C1138 1.524 . S
C1138 C1137 1.524 . S
C1138 C1139 1.397 . S
C1138 C1143 1.363 . S
C1139 H1110 0.950 . S
C1139 C1138 1.397 . S
C1139 C1140 1.334 . S
C1140 H1111 0.950 . S
C1140 C1139 1.334 . S
C1140 C1141 1.287 . S
C1141 C1140 1.287 . S
C1141 C1142 1.524 . S
C1141 H1144 0.999 . S
C1142 H1112 0.950 . S
C1142 C1141 1.524 . S
C1142 C1143 1.415 . S
C1143 H1113 0.950 . S
C1143 C1138 1.363 . S
C1143 C1142 1.415 . S
H1144 C1141 0.999 . S
H1145 C1126 0.913 . S
H1146 C1164 0.951 . S
H1147 C1166 0.951 . S
H1148 C1168 0.950 . S
H1149 C1169 0.950 . S
H1150 C1171 0.950 . S
H1151 C1174 0.950 . S
H1152 C1175 0.950 . S
H1153 C1177 0.950 . S
H1154 C1178 0.950 . S
H1155 C1179 0.951 . S
H1156 C1181 0.951 . S
H1157 C1183 0.950 . S
H1158 C1184 0.950 . S
H1159 C1186 0.950 . S
H1160 C1189 0.950 . S
H1161 C1190 0.950 . S
H1162 C1192 0.950 . S
H1163 C1193 0.950 . S
C1164 H1146 0.951 . S
C1164 C1165 1.366 . S
C1164 C1166 1.388 . S
C1165 C1164 1.366 . S
C1165 C1169 1.385 . S
C1166 H1147 0.951 . S
C1166 C1164 1.388 . S
C1166 C1167 1.366 . S
C1167 C1166 1.366 . S
C1167 C1168 1.414 . S
C1167 C1170 1.499 . S
C1168 H1148 0.950 . S
C1168 C1167 1.414 . S
C1168 C1169 1.374 . S
C1169 H1149 0.950 . S
C1169 C1165 1.385 . S
C1169 C1168 1.374 . S
C1170 C1167 1.499 . S
C1170 C1171 1.373 . S
C1170 C1172 1.389 . S
C1171 H1150 0.950 . S
C1171 C1170 1.373 . S
C1171 C1187 1.377 . S
C1172 C1170 1.389 . S
C1172 C1173 1.524 . S
C1172 C1186 1.377 . S
C1173 C1172 1.524 . S
C1173 C1174 1.397 . S
C1173 C1178 1.363 . S
C1174 H1151 0.950 . S
C1174 C1173 1.397 . S
C1174 C1175 1.334 . S
C1175 H1152 0.950 . S
C1175 C1174 1.334 . S
C1175 C1176 1.287 . S
C1176 C1175 1.287 . S
C1176 C1177 1.524 . S
C1176 H1195 0.913 . S
C1177 H1153 0.950 . S
C1177 C1176 1.524 . S
C1177 C1178 1.415 . S
C1178 H1154 0.950 . S
C1178 C1173 1.363 . S
C1178 C1177 1.415 . S
C1179 H1155 0.951 . S
C1179 C1180 1.366 . S
C1179 C1181 1.388 . S
C1180 C1179 1.366 . S
C1180 C1184 1.385 . S
C1181 H1156 0.951 . S
C1181 C1179 1.388 . S
C1181 C1182 1.366 . S
C1182 C1181 1.366 . S
C1182 C1183 1.414 . S
C1182 C1185 1.499 . S
C1183 H1157 0.950 . S
C1183 C1182 1.414 . S
C1183 C1184 1.374 . S
C1184 H1158 0.950 . S
C1184 C1180 1.385 . S
C1184 C1183 1.374 . S
C1185 C1182 1.499 . S
C1185 C1186 1.373 . S
C1185 C1187 1.389 . S
C1186 H1159 0.950 . S
C1186 C1172 1.377 . S
C1186 C1185 1.373 . S
C1187 C1171 1.377 . S
C1187 C1185 1.389 . S
C1187 C1188 1.524 . S
C1188 C1187 1.524 . S
C1188 C1189 1.397 . S
C1188 C1193 1.363 . S
C1189 H1160 0.950 . S
C1189 C1188 1.397 . S
C1189 C1190 1.334 . S
C1190 H1161 0.950 . S
C1190 C1189 1.334 . S
C1190 C1191 1.287 . S
C1191 C1190 1.287 . S
C1191 C1192 1.524 . S
C1191 H1194 0.999 . S
C1192 H1162 0.950 . S
C1192 C1191 1.524 . S
C1192 C1193 1.415 . S
C1193 H1163 0.950 . S
C1193 C1188 1.363 . S
C1193 C1192 1.415 . S
H1194 C1191 0.999 . S
H1195 C1176 0.913 . S
H1196 C1214 0.951 . S
H1197 C1216 0.951 . S
H1198 C1218 0.950 . S
H1199 C1219 0.950 . S
H1200 C1221 0.950 . S
H1201 C1224 0.950 . S
H1202 C1225 0.950 . S
H1203 C1227 0.950 . S
H1204 C1228 0.950 . S
H1205 C1229 0.951 . S
H1206 C1231 0.951 . S
H1207 C1233 0.950 . S
H1208 C1234 0.950 . S
H1209 C1236 0.950 . S
H1210 C1239 0.950 . S
H1211 C1240 0.950 . S
H1212 C1242 0.950 . S
H1213 C1243 0.950 . S
C1214 H1196 0.951 . S
C1214 C1215 1.366 . S
C1214 C1216 1.388 . S
C1215 C1214 1.366 . S
C1215 C1219 1.385 . S
C1216 H1197 0.951 . S
C1216 C1214 1.388 . S
C1216 C1217 1.366 . S
C1217 C1216 1.366 . S
C1217 C1218 1.414 . S
C1217 C1220 1.499 . S
C1218 H1198 0.950 . S
C1218 C1217 1.414 . S
C1218 C1219 1.374 . S
C1219 H1199 0.950 . S
C1219 C1215 1.385 . S
C1219 C1218 1.374 . S
C1220 C1217 1.499 . S
C1220 C1221 1.373 . S
C1220 C1222 1.389 . S
C1221 H1200 0.950 . S
C1221 C1220 1.373 . S
C1221 C1237 1.377 1_556 S
C1222 C1220 1.389 . S
C1222 C1223 1.524 . S
C1222 C1236 1.377 1_556 S
C1223 C1222 1.524 . S
C1223 C1224 1.397 . S
C1223 C1228 1.363 . S
C1224 H1201 0.950 . S
C1224 C1223 1.397 . S
C1224 C1225 1.334 . S
C1225 H1202 0.950 . S
C1225 C1224 1.334 . S
C1225 C1226 1.287 . S
C1226 C1225 1.287 . S
C1226 C1227 1.524 . S
C1226 H1245 0.913 . S
C1227 H1203 0.950 . S
C1227 C1226 1.524 . S
C1227 C1228 1.415 . S
C1228 H1204 0.950 . S
C1228 C1223 1.363 . S
C1228 C1227 1.415 . S
C1229 H1205 0.951 . S
C1229 C1230 1.366 . S
C1229 C1231 1.388 . S
C1230 C1229 1.366 . S
C1230 C1234 1.385 . S
C1231 H1206 0.951 . S
C1231 C1229 1.388 . S
C1231 C1232 1.366 . S
C1232 C1231 1.366 . S
C1232 C1233 1.414 . S
C1232 C1235 1.499 . S
C1233 H1207 0.950 . S
C1233 C1232 1.414 . S
C1233 C1234 1.374 . S
C1234 H1208 0.950 . S
C1234 C1230 1.385 . S
C1234 C1233 1.374 . S
C1235 C1232 1.499 . S
C1235 C1236 1.373 . S
C1235 C1237 1.389 . S
C1236 H1209 0.950 . S
C1236 C1222 1.377 1_554 S
C1236 C1235 1.373 . S
C1237 C1221 1.377 1_554 S
C1237 C1235 1.389 . S
C1237 C1238 1.524 . S
C1238 C1237 1.524 . S
C1238 C1239 1.397 . S
C1238 C1243 1.363 . S
C1239 H1210 0.950 . S
C1239 C1238 1.397 . S
C1239 C1240 1.334 . S
C1240 H1211 0.950 . S
C1240 C1239 1.334 . S
C1240 C1241 1.287 . S
C1241 C1240 1.287 . S
C1241 C1242 1.524 . S
C1241 H1244 0.999 . S
C1242 H1212 0.950 . S
C1242 C1241 1.524 . S
C1242 C1243 1.415 . S
C1243 H1213 0.950 . S
C1243 C1238 1.363 . S
C1243 C1242 1.415 . S
H1244 C1241 0.999 . S
H1245 C1226 0.913 . S
H1246 C1264 0.951 . S
H1247 C1266 0.951 . S
H1248 C1268 0.950 . S
H1249 C1269 0.950 . S
H1250 C1271 0.950 . S
H1251 C1274 0.950 . S
H1252 C1275 0.950 . S
H1253 C1277 0.950 . S
H1254 C1278 0.950 . S
H1255 C1279 0.951 . S
H1256 C1281 0.951 . S
H1257 C1283 0.950 . S
H1258 C1284 0.950 . S
H1259 C1286 0.950 . S
H1260 C1289 0.950 . S
H1261 C1290 0.950 . S
H1262 C1292 0.950 . S
H1263 C1293 0.950 . S
C1264 H1246 0.951 . S
C1264 C1265 1.366 . S
C1264 C1266 1.388 . S
C1265 C1264 1.366 . S
C1265 C1269 1.385 . S
C1266 H1247 0.951 . S
C1266 C1264 1.388 . S
C1266 C1267 1.366 . S
C1267 C1266 1.366 . S
C1267 C1268 1.414 . S
C1267 C1270 1.499 . S
C1268 H1248 0.950 . S
C1268 C1267 1.414 . S
C1268 C1269 1.374 . S
C1269 H1249 0.950 . S
C1269 C1265 1.385 . S
C1269 C1268 1.374 . S
C1270 C1267 1.499 . S
C1270 C1271 1.373 . S
C1270 C1272 1.389 . S
C1271 H1250 0.950 . S
C1271 C1270 1.373 . S
C1271 C1287 1.377 . S
C1272 C1270 1.389 . S
C1272 C1273 1.524 . S
C1272 C1286 1.377 . S
C1273 C1272 1.524 . S
C1273 C1274 1.397 . S
C1273 C1278 1.363 . S
C1274 H1251 0.950 . S
C1274 C1273 1.397 . S
C1274 C1275 1.334 . S
C1275 H1252 0.950 . S
C1275 C1274 1.334 . S
C1275 C1276 1.287 . S
C1276 C1275 1.287 . S
C1276 C1277 1.524 . S
C1276 H1295 0.913 . S
C1277 H1253 0.950 . S
C1277 C1276 1.524 . S
C1277 C1278 1.415 . S
C1278 H1254 0.950 . S
C1278 C1273 1.363 . S
C1278 C1277 1.415 . S
C1279 H1255 0.951 . S
C1279 C1280 1.366 . S
C1279 C1281 1.388 . S
C1280 C1279 1.366 . S
C1280 C1284 1.385 . S
C1281 H1256 0.951 . S
C1281 C1279 1.388 . S
C1281 C1282 1.366 . S
C1282 C1281 1.366 . S
C1282 C1283 1.414 . S
C1282 C1285 1.499 . S
C1283 H1257 0.950 . S
C1283 C1282 1.414 . S
C1283 C1284 1.374 . S
C1284 H1258 0.950 . S
C1284 C1280 1.385 . S
C1284 C1283 1.374 . S
C1285 C1282 1.499 . S
C1285 C1286 1.373 . S
C1285 C1287 1.389 . S
C1286 H1259 0.950 . S
C1286 C1272 1.377 . S
C1286 C1285 1.373 . S
C1287 C1271 1.377 . S
C1287 C1285 1.389 . S
C1287 C1288 1.524 . S
C1288 C1287 1.524 . S
C1288 C1289 1.397 . S
C1288 C1293 1.363 . S
C1289 H1260 0.950 . S
C1289 C1288 1.397 . S
C1289 C1290 1.334 . S
C1290 H1261 0.950 . S
C1290 C1289 1.334 . S
C1290 C1291 1.287 . S
C1291 C1290 1.287 . S
C1291 C1292 1.524 . S
C1291 H1294 0.999 . S
C1292 H1262 0.950 . S
C1292 C1291 1.524 . S
C1292 C1293 1.415 . S
C1293 H1263 0.950 . S
C1293 C1288 1.363 . S
C1293 C1292 1.415 . S
H1294 C1291 0.999 . S
H1295 C1276 0.913 . S
H1296 C1314 0.951 . S
H1297 C1316 0.951 . S
H1298 C1318 0.950 . S
H1299 C1319 0.950 . S
H1300 C1321 0.950 . S
H1301 C1324 0.950 . S
H1302 C1325 0.950 . S
H1303 C1327 0.950 . S
H1304 C1328 0.950 . S
H1305 C1329 0.951 . S
H1306 C1331 0.951 . S
H1307 C1333 0.950 . S
H1308 C1334 0.950 . S
H1309 C1336 0.950 . S
H1310 C1339 0.950 . S
H1311 C1340 0.950 . S
H1312 C1342 0.950 . S
H1313 C1343 0.950 . S
C1314 H1296 0.951 . S
C1314 C1315 1.366 . S
C1314 C1316 1.388 . S
C1315 C1314 1.366 . S
C1315 C1319 1.385 . S
C1316 H1297 0.951 . S
C1316 C1314 1.388 . S
C1316 C1317 1.366 . S
C1317 C1316 1.366 . S
C1317 C1318 1.414 . S
C1317 C1320 1.499 . S
C1318 H1298 0.950 . S
C1318 C1317 1.414 . S
C1318 C1319 1.374 . S
C1319 H1299 0.950 . S
C1319 C1315 1.385 . S
C1319 C1318 1.374 . S
C1320 C1317 1.499 . S
C1320 C1321 1.373 . S
C1320 C1322 1.389 . S
C1321 H1300 0.950 . S
C1321 C1320 1.373 . S
C1321 C1337 1.377 . S
C1322 C1320 1.389 . S
C1322 C1323 1.524 . S
C1322 C1336 1.377 . S
C1323 C1322 1.524 . S
C1323 C1324 1.397 . S
C1323 C1328 1.363 . S
C1324 H1301 0.950 . S
C1324 C1323 1.397 . S
C1324 C1325 1.334 . S
C1325 H1302 0.950 . S
C1325 C1324 1.334 . S
C1325 C1326 1.287 . S
C1326 C1325 1.287 . S
C1326 C1327 1.524 . S
C1326 H1345 0.913 . S
C1327 H1303 0.950 . S
C1327 C1326 1.524 . S
C1327 C1328 1.415 . S
C1328 H1304 0.950 . S
C1328 C1323 1.363 . S
C1328 C1327 1.415 . S
C1329 H1305 0.951 . S
C1329 C1330 1.366 . S
C1329 C1331 1.388 . S
C1330 C1329 1.366 . S
C1330 C1334 1.385 . S
C1331 H1306 0.951 . S
C1331 C1329 1.388 . S
C1331 C1332 1.366 . S
C1332 C1331 1.366 . S
C1332 C1333 1.414 . S
C1332 C1335 1.499 . S
C1333 H1307 0.950 . S
C1333 C1332 1.414 . S
C1333 C1334 1.374 . S
C1334 H1308 0.950 . S
C1334 C1330 1.385 . S
C1334 C1333 1.374 . S
C1335 C1332 1.499 . S
C1335 C1336 1.373 . S
C1335 C1337 1.389 . S
C1336 H1309 0.950 . S
C1336 C1322 1.377 . S
C1336 C1335 1.373 . S
C1337 C1321 1.377 . S
C1337 C1335 1.389 . S
C1337 C1338 1.524 . S
C1338 C1337 1.524 . S
C1338 C1339 1.397 . S
C1338 C1343 1.363 . S
C1339 H1310 0.950 . S
C1339 C1338 1.397 . S
C1339 C1340 1.334 . S
C1340 H1311 0.950 . S
C1340 C1339 1.334 . S
C1340 C1341 1.287 . S
C1341 C1340 1.287 . S
C1341 C1342 1.524 . S
C1341 H1344 0.999 . S
C1342 H1312 0.950 . S
C1342 C1341 1.524 . S
C1342 C1343 1.415 . S
C1343 H1313 0.950 . S
C1343 C1338 1.363 . S
C1343 C1342 1.415 . S
H1344 C1341 0.999 . S
H1345 C1326 0.913 . S
H1346 C1364 0.951 . S
H1347 C1366 0.951 . S
H1348 C1368 0.950 . S
H1349 C1369 0.950 . S
H1350 C1371 0.950 . S
H1351 C1374 0.950 . S
H1352 C1375 0.950 . S
H1353 C1377 0.950 . S
H1354 C1378 0.950 . S
H1355 C1379 0.951 . S
H1356 C1381 0.951 . S
H1357 C1383 0.950 . S
H1358 C1384 0.950 . S
H1359 C1386 0.950 . S
H1360 C1389 0.950 . S
H1361 C1390 0.950 . S
H1362 C1392 0.950 . S
H1363 C1393 0.950 . S
C1364 H1346 0.951 . S
C1364 C1365 1.366 . S
C1364 C1366 1.388 . S
C1365 C1364 1.366 . S
C1365 C1369 1.385 . S
C1366 H1347 0.951 . S
C1366 C1364 1.388 . S
C1366 C1367 1.366 . S
C1367 C1366 1.366 . S
C1367 C1368 1.414 . S
C1367 C1370 1.499 . S
C1368 H1348 0.950 . S
C1368 C1367 1.414 . S
C1368 C1369 1.374 . S
C1369 H1349 0.950 . S
C1369 C1365 1.385 . S
C1369 C1368 1.374 . S
C1370 C1367 1.499 . S
C1370 C1371 1.373 . S
C1370 C1372 1.389 . S
C1371 H1350 0.950 . S
C1371 C1370 1.373 . S
C1371 C1387 1.377 . S
C1372 C1370 1.389 . S
C1372 C1373 1.524 . S
C1372 C1386 1.377 . S
C1373 C1372 1.524 . S
C1373 C1374 1.397 . S
C1373 C1378 1.363 . S
C1374 H1351 0.950 . S
C1374 C1373 1.397 . S
C1374 C1375 1.334 . S
C1375 H1352 0.950 . S
C1375 C1374 1.334 . S
C1375 C1376 1.287 . S
C1376 C1375 1.287 . S
C1376 C1377 1.524 . S
C1376 H1395 0.913 . S
C1377 H1353 0.950 . S
C1377 C1376 1.524 . S
C1377 C1378 1.415 . S
C1378 H1354 0.950 . S
C1378 C1373 1.363 . S
C1378 C1377 1.415 . S
C1379 H1355 0.951 . S
C1379 C1380 1.366 . S
C1379 C1381 1.388 . S
C1380 C1379 1.366 . S
C1380 C1384 1.385 . S
C1381 H1356 0.951 . S
C1381 C1379 1.388 . S
C1381 C1382 1.366 . S
C1382 C1381 1.366 . S
C1382 C1383 1.414 . S
C1382 C1385 1.499 . S
C1383 H1357 0.950 . S
C1383 C1382 1.414 . S
C1383 C1384 1.374 . S
C1384 H1358 0.950 . S
C1384 C1380 1.385 . S
C1384 C1383 1.374 . S
C1385 C1382 1.499 . S
C1385 C1386 1.373 . S
C1385 C1387 1.389 . S
C1386 H1359 0.950 . S
C1386 C1372 1.377 . S
C1386 C1385 1.373 . S
C1387 C1371 1.377 . S
C1387 C1385 1.389 . S
C1387 C1388 1.524 . S
C1388 C1387 1.524 . S
C1388 C1389 1.397 . S
C1388 C1393 1.363 . S
C1389 H1360 0.950 . S
C1389 C1388 1.397 . S
C1389 C1390 1.334 . S
C1390 H1361 0.950 . S
C1390 C1389 1.334 . S
C1390 C1391 1.287 . S
C1391 C1390 1.287 . S
C1391 C1392 1.524 . S
C1391 H1394 0.999 . S
C1392 H1362 0.950 . S
C1392 C1391 1.524 . S
C1392 C1393 1.415 . S
C1393 H1363 0.950 . S
C1393 C1388 1.363 . S
C1393 C1392 1.415 . S
H1394 C1391 0.999 . S
H1395 C1376 0.913 . S
H1396 C1414 0.951 . S
H1397 C1416 0.951 . S
H1398 C1418 0.950 . S
H1399 C1419 0.950 . S
H1400 C1421 0.950 . S
H1401 C1424 0.950 . S
H1402 C1425 0.950 . S
H1403 C1427 0.950 . S
H1404 C1428 0.950 . S
H1405 C1429 0.951 . S
H1406 C1431 0.951 . S
H1407 C1433 0.950 . S
H1408 C1434 0.950 . S
H1409 C1436 0.950 . S
H1410 C1439 0.950 . S
H1411 C1440 0.950 . S
H1412 C1442 0.950 . S
H1413 C1443 0.950 . S
C1414 H1396 0.951 . S
C1414 C1415 1.366 . S
C1414 C1416 1.388 . S
C1415 C1414 1.366 . S
C1415 C1419 1.385 . S
C1416 H1397 0.951 . S
C1416 C1414 1.388 . S
C1416 C1417 1.366 . S
C1417 C1416 1.366 . S
C1417 C1418 1.414 . S
C1417 C1420 1.499 . S
C1418 H1398 0.950 . S
C1418 C1417 1.414 . S
C1418 C1419 1.374 . S
C1419 H1399 0.950 . S
C1419 C1415 1.385 . S
C1419 C1418 1.374 . S
C1420 C1417 1.499 . S
C1420 C1421 1.373 . S
C1420 C1422 1.389 . S
C1421 H1400 0.950 . S
C1421 C1420 1.373 . S
C1421 C1437 1.377 . S
C1422 C1420 1.389 . S
C1422 C1423 1.524 . S
C1422 C1436 1.377 . S
C1423 C1422 1.524 . S
C1423 C1424 1.397 . S
C1423 C1428 1.363 . S
C1424 H1401 0.950 . S
C1424 C1423 1.397 . S
C1424 C1425 1.334 . S
C1425 H1402 0.950 . S
C1425 C1424 1.334 . S
C1425 C1426 1.287 . S
C1426 C1425 1.287 . S
C1426 C1427 1.524 . S
C1426 H1445 0.913 . S
C1427 H1403 0.950 . S
C1427 C1426 1.524 . S
C1427 C1428 1.415 . S
C1428 H1404 0.950 . S
C1428 C1423 1.363 . S
C1428 C1427 1.415 . S
C1429 H1405 0.951 . S
C1429 C1430 1.366 . S
C1429 C1431 1.388 . S
C1430 C1429 1.366 . S
C1430 C1434 1.385 . S
C1431 H1406 0.951 . S
C1431 C1429 1.388 . S
C1431 C1432 1.366 . S
C1432 C1431 1.366 . S
C1432 C1433 1.414 . S
C1432 C1435 1.499 . S
C1433 H1407 0.950 . S
C1433 C1432 1.414 . S
C1433 C1434 1.374 . S
C1434 H1408 0.950 . S
C1434 C1430 1.385 . S
C1434 C1433 1.374 . S
C1435 C1432 1.499 . S
C1435 C1436 1.373 . S
C1435 C1437 1.389 . S
C1436 H1409 0.950 . S
C1436 C1422 1.377 . S
C1436 C1435 1.373 . S
C1437 C1421 1.377 . S
C1437 C1435 1.389 . S
C1437 C1438 1.524 . S
C1438 C1437 1.524 . S
C1438 C1439 1.397 . S
C1438 C1443 1.363 . S
C1439 H1410 0.950 . S
C1439 C1438 1.397 . S
C1439 C1440 1.334 . S
C1440 H1411 0.950 . S
C1440 C1439 1.334 . S
C1440 C1441 1.287 . S
C1441 C1440 1.287 . S
C1441 C1442 1.524 . S
C1441 H1444 0.999 . S
C1442 H1412 0.950 . S
C1442 C1441 1.524 . S
C1442 C1443 1.415 . S
C1443 H1413 0.950 . S
C1443 C1438 1.363 . S
C1443 C1442 1.415 . S
H1444 C1441 0.999 . S
H1445 C1426 0.913 . S
H1446 C1464 0.951 . S
H1447 C1466 0.951 . S
H1448 C1468 0.950 . S
H1449 C1469 0.950 . S
H1450 C1471 0.950 . S
H1451 C1474 0.950 . S
H1452 C1475 0.950 . S
H1453 C1477 0.950 . S
H1454 C1478 0.950 . S
H1455 C1479 0.951 . S
H1456 C1481 0.951 . S
H1457 C1483 0.950 . S
H1458 C1484 0.950 . S
H1459 C1486 0.950 . S
H1460 C1489 0.950 . S
H1461 C1490 0.950 . S
H1462 C1492 0.950 . S
H1463 C1493 0.950 . S
C1464 H1446 0.951 . S
C1464 C1465 1.366 . S
C1464 C1466 1.388 . S
C1465 C1464 1.366 . S
C1465 C1469 1.385 . S
C1466 H1447 0.951 . S
C1466 C1464 1.388 . S
C1466 C1467 1.366 . S
C1467 C1466 1.366 . S
C1467 C1468 1.414 . S
C1467 C1470 1.499 . S
C1468 H1448 0.950 . S
C1468 C1467 1.414 . S
C1468 C1469 1.374 . S
C1469 H1449 0.950 . S
C1469 C1465 1.385 . S
C1469 C1468 1.374 . S
C1470 C1467 1.499 . S
C1470 C1471 1.373 . S
C1470 C1472 1.389 . S
C1471 H1450 0.950 . S
C1471 C1470 1.373 . S
C1471 C1487 1.377 . S
C1472 C1470 1.389 . S
C1472 C1473 1.524 . S
C1472 C1486 1.377 . S
C1473 C1472 1.524 . S
C1473 C1474 1.397 . S
C1473 C1478 1.363 . S
C1474 H1451 0.950 . S
C1474 C1473 1.397 . S
C1474 C1475 1.334 . S
C1475 H1452 0.950 . S
C1475 C1474 1.334 . S
C1475 C1476 1.287 . S
C1476 C1475 1.287 . S
C1476 C1477 1.524 . S
C1476 H1495 0.913 . S
C1477 H1453 0.950 . S
C1477 C1476 1.524 . S
C1477 C1478 1.415 . S
C1478 H1454 0.950 . S
C1478 C1473 1.363 . S
C1478 C1477 1.415 . S
C1479 H1455 0.951 . S
C1479 C1480 1.366 . S
C1479 C1481 1.388 . S
C1480 C1479 1.366 . S
C1480 C1484 1.385 . S
C1481 H1456 0.951 . S
C1481 C1479 1.388 . S
C1481 C1482 1.366 . S
C1482 C1481 1.366 . S
C1482 C1483 1.414 . S
C1482 C1485 1.499 . S
C1483 H1457 0.950 . S
C1483 C1482 1.414 . S
C1483 C1484 1.374 . S
C1484 H1458 0.950 . S
C1484 C1480 1.385 . S
C1484 C1483 1.374 . S
C1485 C1482 1.499 . S
C1485 C1486 1.373 . S
C1485 C1487 1.389 . S
C1486 H1459 0.950 . S
C1486 C1472 1.377 . S
C1486 C1485 1.373 . S
C1487 C1471 1.377 . S
C1487 C1485 1.389 . S
C1487 C1488 1.524 . S
C1488 C1487 1.524 . S
C1488 C1489 1.397 . S
C1488 C1493 1.363 . S
C1489 H1460 0.950 . S
C1489 C1488 1.397 . S
C1489 C1490 1.334 . S
C1490 H1461 0.950 . S
C1490 C1489 1.334 . S
C1490 C1491 1.287 . S
C1491 C1490 1.287 . S
C1491 C1492 1.524 . S
C1491 H1494 0.999 . S
C1492 H1462 0.950 . S
C1492 C1491 1.524 . S
C1492 C1493 1.415 . S
C1493 H1463 0.950 . S
C1493 C1488 1.363 . S
C1493 C1492 1.415 . S
H1494 C1491 0.999 . S
H1495 C1476 0.913 . S
H1496 C1514 0.951 . S
H1497 C1516 0.951 . S
H1498 C1518 0.950 . S
H1499 C1519 0.950 . S
H1500 C1521 0.950 . S
H1501 C1524 0.950 . S
H1502 C1525 0.950 . S
H1503 C1527 0.950 . S
H1504 C1528 0.950 . S
H1505 C1529 0.951 . S
H1506 C1531 0.951 . S
H1507 C1533 0.950 . S
H1508 C1534 0.950 . S
H1509 C1536 0.950 . S
H1510 C1539 0.950 . S
H1511 C1540 0.950 . S
H1512 C1542 0.950 . S
H1513 C1543 0.950 . S
C1514 H1496 0.951 . S
C1514 C1515 1.366 . S
C1514 C1516 1.388 . S
C1515 C1514 1.366 . S
C1515 C1519 1.385 . S
C1516 H1497 0.951 . S
C1516 C1514 1.388 . S
C1516 C1517 1.366 . S
C1517 C1516 1.366 . S
C1517 C1518 1.414 . S
C1517 C1520 1.499 . S
C1518 H1498 0.950 . S
C1518 C1517 1.414 . S
C1518 C1519 1.374 . S
C1519 H1499 0.950 . S
C1519 C1515 1.385 . S
C1519 C1518 1.374 . S
C1520 C1517 1.499 . S
C1520 C1521 1.373 . S
C1520 C1522 1.389 . S
C1521 H1500 0.950 . S
C1521 C1520 1.373 . S
C1521 C1537 1.377 . S
C1522 C1520 1.389 . S
C1522 C1523 1.524 . S
C1522 C1536 1.377 . S
C1523 C1522 1.524 . S
C1523 C1524 1.397 . S
C1523 C1528 1.363 . S
C1524 H1501 0.950 . S
C1524 C1523 1.397 . S
C1524 C1525 1.334 . S
C1525 H1502 0.950 . S
C1525 C1524 1.334 . S
C1525 C1526 1.287 . S
C1526 C1525 1.287 . S
C1526 C1527 1.524 . S
C1526 H1545 0.913 . S
C1527 H1503 0.950 . S
C1527 C1526 1.524 . S
C1527 C1528 1.415 . S
C1528 H1504 0.950 . S
C1528 C1523 1.363 . S
C1528 C1527 1.415 . S
C1529 H1505 0.951 . S
C1529 C1530 1.366 . S
C1529 C1531 1.388 . S
C1530 C1529 1.366 . S
C1530 C1534 1.385 . S
C1531 H1506 0.951 . S
C1531 C1529 1.388 . S
C1531 C1532 1.366 . S
C1532 C1531 1.366 . S
C1532 C1533 1.414 . S
C1532 C1535 1.499 . S
C1533 H1507 0.950 . S
C1533 C1532 1.414 . S
C1533 C1534 1.374 . S
C1534 H1508 0.950 . S
C1534 C1530 1.385 . S
C1534 C1533 1.374 . S
C1535 C1532 1.499 . S
C1535 C1536 1.373 . S
C1535 C1537 1.389 . S
C1536 H1509 0.950 . S
C1536 C1522 1.377 . S
C1536 C1535 1.373 . S
C1537 C1521 1.377 . S
C1537 C1535 1.389 . S
C1537 C1538 1.524 . S
C1538 C1537 1.524 . S
C1538 C1539 1.397 . S
C1538 C1543 1.363 . S
C1539 H1510 0.950 . S
C1539 C1538 1.397 . S
C1539 C1540 1.334 . S
C1540 H1511 0.950 . S
C1540 C1539 1.334 . S
C1540 C1541 1.287 . S
C1541 C1540 1.287 . S
C1541 C1542 1.524 . S
C1541 H1544 0.999 . S
C1542 H1512 0.950 . S
C1542 C1541 1.524 . S
C1542 C1543 1.415 . S
C1543 H1513 0.950 . S
C1543 C1538 1.363 . S
C1543 C1542 1.415 . S
H1544 C1541 0.999 . S
H1545 C1526 0.913 . S
H1546 C1564 0.951 . S
H1547 C1566 0.951 . S
H1548 C1568 0.950 . S
H1549 C1569 0.950 . S
H1550 C1571 0.950 . S
H1551 C1574 0.950 . S
H1552 C1575 0.950 . S
H1553 C1577 0.950 . S
H1554 C1578 0.950 . S
H1555 C1579 0.951 . S
H1556 C1581 0.951 . S
H1557 C1583 0.950 . S
H1558 C1584 0.950 . S
H1559 C1586 0.950 . S
H1560 C1589 0.950 . S
H1561 C1590 0.950 . S
H1562 C1592 0.950 . S
H1563 C1593 0.950 . S
C1564 H1546 0.951 . S
C1564 C1565 1.366 . S
C1564 C1566 1.388 . S
C1565 C1564 1.366 . S
C1565 C1569 1.385 . S
C1566 H1547 0.951 . S
C1566 C1564 1.388 . S
C1566 C1567 1.366 . S
C1567 C1566 1.366 . S
C1567 C1568 1.414 . S
C1567 C1570 1.499 . S
C1568 H1548 0.950 . S
C1568 C1567 1.414 . S
C1568 C1569 1.374 . S
C1569 H1549 0.950 . S
C1569 C1565 1.385 . S
C1569 C1568 1.374 . S
C1570 C1567 1.499 . S
C1570 C1571 1.373 . S
C1570 C1572 1.389 . S
C1571 H1550 0.950 . S
C1571 C1570 1.373 . S
C1571 C1587 1.377 . S
C1572 C1570 1.389 . S
C1572 C1573 1.524 . S
C1572 C1586 1.377 . S
C1573 C1572 1.524 . S
C1573 C1574 1.397 . S
C1573 C1578 1.363 . S
C1574 H1551 0.950 . S
C1574 C1573 1.397 . S
C1574 C1575 1.334 . S
C1575 H1552 0.950 . S
C1575 C1574 1.334 . S
C1575 C1576 1.287 . S
C1576 C1575 1.287 . S
C1576 C1577 1.524 . S
C1576 H1595 0.913 . S
C1577 H1553 0.950 . S
C1577 C1576 1.524 . S
C1577 C1578 1.415 . S
C1578 H1554 0.950 . S
C1578 C1573 1.363 . S
C1578 C1577 1.415 . S
C1579 H1555 0.951 . S
C1579 C1580 1.366 . S
C1579 C1581 1.388 . S
C1580 C1579 1.366 . S
C1580 C1584 1.385 . S
C1581 H1556 0.951 . S
C1581 C1579 1.388 . S
C1581 C1582 1.366 . S
C1582 C1581 1.366 . S
C1582 C1583 1.414 . S
C1582 C1585 1.499 . S
C1583 H1557 0.950 . S
C1583 C1582 1.414 . S
C1583 C1584 1.374 . S
C1584 H1558 0.950 . S
C1584 C1580 1.385 . S
C1584 C1583 1.374 . S
C1585 C1582 1.499 . S
C1585 C1586 1.373 . S
C1585 C1587 1.389 . S
C1586 H1559 0.950 . S
C1586 C1572 1.377 . S
C1586 C1585 1.373 . S
C1587 C1571 1.377 . S
C1587 C1585 1.389 . S
C1587 C1588 1.524 . S
C1588 C1587 1.524 . S
C1588 C1589 1.397 . S
C1588 C1593 1.363 . S
C1589 H1560 0.950 . S
C1589 C1588 1.397 . S
C1589 C1590 1.334 . S
C1590 H1561 0.950 . S
C1590 C1589 1.334 . S
C1590 C1591 1.287 . S
C1591 C1590 1.287 . S
C1591 C1592 1.524 . S
C1591 H1594 0.999 . S
C1592 H1562 0.950 . S
C1592 C1591 1.524 . S
C1592 C1593 1.415 . S
C1593 H1563 0.950 . S
C1593 C1588 1.363 . S
C1593 C1592 1.415 . S
H1594 C1591 0.999 . S
H1595 C1576 0.913 . S
H1596 C1614 0.951 . S
H1597 C1616 0.951 . S
H1598 C1618 0.950 . S
H1599 C1619 0.950 . S
H1600 C1621 0.950 . S
H1601 C1624 0.950 . S
H1602 C1625 0.950 . S
H1603 C1627 0.950 . S
H1604 C1628 0.950 . S
H1605 C1629 0.951 . S
H1606 C1631 0.951 . S
H1607 C1633 0.950 . S
H1608 C1634 0.950 . S
H1609 C1636 0.950 . S
H1610 C1639 0.950 . S
H1611 C1640 0.950 . S
H1612 C1642 0.950 . S
H1613 C1643 0.950 . S
C1614 H1596 0.951 . S
C1614 C1615 1.366 . S
C1614 C1616 1.388 . S
C1615 C1614 1.366 . S
C1615 C1619 1.385 . S
C1616 H1597 0.951 . S
C1616 C1614 1.388 . S
C1616 C1617 1.366 . S
C1617 C1616 1.366 . S
C1617 C1618 1.414 . S
C1617 C1620 1.499 . S
C1618 H1598 0.950 . S
C1618 C1617 1.414 . S
C1618 C1619 1.374 . S
C1619 H1599 0.950 . S
C1619 C1615 1.385 . S
C1619 C1618 1.374 . S
C1620 C1617 1.499 . S
C1620 C1621 1.373 . S
C1620 C1622 1.389 . S
C1621 H1600 0.950 . S
C1621 C1620 1.373 . S
C1621 C1637 1.377 . S
C1622 C1620 1.389 . S
C1622 C1623 1.524 . S
C1622 C1636 1.377 . S
C1623 C1622 1.524 . S
C1623 C1624 1.397 . S
C1623 C1628 1.363 . S
C1624 H1601 0.950 . S
C1624 C1623 1.397 . S
C1624 C1625 1.334 . S
C1625 H1602 0.950 . S
C1625 C1624 1.334 . S
C1625 C1626 1.287 . S
C1626 C1625 1.287 . S
C1626 C1627 1.524 . S
C1626 H1645 0.913 . S
C1627 H1603 0.950 . S
C1627 C1626 1.524 . S
C1627 C1628 1.415 . S
C1628 H1604 0.950 . S
C1628 C1623 1.363 . S
C1628 C1627 1.415 . S
C1629 H1605 0.951 . S
C1629 C1630 1.366 . S
C1629 C1631 1.388 . S
C1630 C1629 1.366 . S
C1630 C1634 1.385 . S
C1631 H1606 0.951 . S
C1631 C1629 1.388 . S
C1631 C1632 1.366 . S
C1632 C1631 1.366 . S
C1632 C1633 1.414 . S
C1632 C1635 1.499 . S
C1633 H1607 0.950 . S
C1633 C1632 1.414 . S
C1633 C1634 1.374 . S
C1634 H1608 0.950 . S
C1634 C1630 1.385 . S
C1634 C1633 1.374 . S
C1635 C1632 1.499 . S
C1635 C1636 1.373 . S
C1635 C1637 1.389 . S
C1636 H1609 0.950 . S
C1636 C1622 1.377 . S
C1636 C1635 1.373 . S
C1637 C1621 1.377 . S
C1637 C1635 1.389 . S
C1637 C1638 1.524 . S
C1638 C1637 1.524 . S
C1638 C1639 1.397 . S
C1638 C1643 1.363 . S
C1639 H1610 0.950 . S
C1639 C1638 1.397 . S
C1639 C1640 1.334 . S
C1640 H1611 0.950 . S
C1640 C1639 1.334 . S
C1640 C1641 1.287 . S
C1641 C1640 1.287 . S
C1641 C1642 1.524 . S
C1641 H1644 0.999 . S
C1642 H1612 0.950 . S
C1642 C1641 1.524 . S
C1642 C1643 1.415 . S
C1643 H1613 0.950 . S
C1643 C1638 1.363 . S
C1643 C1642 1.415 . S
H1644 C1641 0.999 . S
H1645 C1626 0.913 . S
H1646 C1664 0.951 . S
H1647 C1666 0.951 . S
H1648 C1668 0.950 . S
H1649 C1669 0.950 . S
H1650 C1671 0.950 . S
H1651 C1674 0.950 . S
H1652 C1675 0.950 . S
H1653 C1677 0.950 . S
H1654 C1678 0.950 . S
H1655 C1679 0.951 . S
H1656 C1681 0.951 . S
H1657 C1683 0.950 . S
H1658 C1684 0.950 . S
H1659 C1686 0.950 . S
H1660 C1689 0.950 . S
H1661 C1690 0.950 . S
H1662 C1692 0.950 . S
H1663 C1693 0.950 . S
C1664 H1646 0.951 . S
C1664 C1665 1.366 . S
C1664 C1666 1.388 . S
C1665 C1664 1.366 . S
C1665 C1669 1.385 . S
C1666 H1647 0.951 . S
C1666 C1664 1.388 . S
C1666 C1667 1.366 . S
C1667 C1666 1.366 . S
C1667 C1668 1.414 . S
C1667 C1670 1.499 . S
C1668 H1648 0.950 . S
C1668 C1667 1.414 . S
C1668 C1669 1.374 . S
C1669 H1649 0.950 . S
C1669 C1665 1.385 . S
C1669 C1668 1.374 . S
C1670 C1667 1.499 . S
C1670 C1671 1.373 . S
C1670 C1672 1.389 . S
C1671 H1650 0.950 . S
C1671 C1670 1.373 . S
C1671 C1687 1.377 . S
C1672 C1670 1.389 . S
C1672 C1673 1.524 . S
C1672 C1686 1.377 . S
C1673 C1672 1.524 . S
C1673 C1674 1.397 . S
C1673 C1678 1.363 . S
C1674 H1651 0.950 . S
C1674 C1673 1.397 . S
C1674 C1675 1.334 . S
C1675 H1652 0.950 . S
C1675 C1674 1.334 . S
C1675 C1676 1.287 . S
C1676 C1675 1.287 . S
C1676 C1677 1.524 . S
C1676 H1695 0.913 . S
C1677 H1653 0.950 . S
C1677 C1676 1.524 . S
C1677 C1678 1.415 . S
C1678 H1654 0.950 . S
C1678 C1673 1.363 . S
C1678 C1677 1.415 . S
C1679 H1655 0.951 . S
C1679 C1680 1.366 . S
C1679 C1681 1.388 . S
C1680 C1679 1.366 . S
C1680 C1684 1.385 . S
C1681 H1656 0.951 . S
C1681 C1679 1.388 . S
C1681 C1682 1.366 . S
C1682 C1681 1.366 . S
C1682 C1683 1.414 . S
C1682 C1685 1.499 . S
C1683 H1657 0.950 . S
C1683 C1682 1.414 . S
C1683 C1684 1.374 . S
C1684 H1658 0.950 . S
C1684 C1680 1.385 . S
C1684 C1683 1.374 . S
C1685 C1682 1.499 . S
C1685 C1686 1.373 . S
C1685 C1687 1.389 . S
C1686 H1659 0.950 . S
C1686 C1672 1.377 . S
C1686 C1685 1.373 . S
C1687 C1671 1.377 . S
C1687 C1685 1.389 . S
C1687 C1688 1.524 . S
C1688 C1687 1.524 . S
C1688 C1689 1.397 . S
C1688 C1693 1.363 . S
C1689 H1660 0.950 . S
C1689 C1688 1.397 . S
C1689 C1690 1.334 . S
C1690 H1661 0.950 . S
C1690 C1689 1.334 . S
C1690 C1691 1.287 . S
C1691 C1690 1.287 . S
C1691 C1692 1.524 . S
C1691 H1694 0.999 . S
C1692 H1662 0.950 . S
C1692 C1691 1.524 . S
C1692 C1693 1.415 . S
C1693 H1663 0.950 . S
C1693 C1688 1.363 . S
C1693 C1692 1.415 . S
H1694 C1691 0.999 . S
H1695 C1676 0.913 . S
H1696 C1714 0.951 . S
H1697 C1716 0.951 . S
H1698 C1718 0.950 . S
H1699 C1719 0.950 . S
H1700 C1721 0.950 . S
H1701 C1724 0.950 . S
H1702 C1725 0.950 . S
H1703 C1727 0.950 . S
H1704 C1728 0.950 . S
H1705 C1729 0.951 . S
H1706 C1731 0.951 . S
H1707 C1733 0.950 . S
H1708 C1734 0.950 . S
H1709 C1736 0.950 . S
H1710 C1739 0.950 . S
H1711 C1740 0.950 . S
H1712 C1742 0.950 . S
H1713 C1743 0.950 . S
C1714 H1696 0.951 . S
C1714 C1715 1.366 . S
C1714 C1716 1.388 . S
C1715 C1714 1.366 . S
C1715 C1719 1.385 . S
C1716 H1697 0.951 . S
C1716 C1714 1.388 . S
C1716 C1717 1.366 . S
C1717 C1716 1.366 . S
C1717 C1718 1.414 . S
C1717 C1720 1.499 . S
C1718 H1698 0.950 . S
C1718 C1717 1.414 . S
C1718 C1719 1.374 . S
C1719 H1699 0.950 . S
C1719 C1715 1.385 . S
C1719 C1718 1.374 . S
C1720 C1717 1.499 . S
C1720 C1721 1.373 . S
C1720 C1722 1.389 . S
C1721 H1700 0.950 . S
C1721 C1720 1.373 . S
C1721 C1737 1.377 . S
C1722 C1720 1.389 . S
C1722 C1723 1.524 . S
C1722 C1736 1.377 . S
C1723 C1722 1.524 . S
C1723 C1724 1.397 . S
C1723 C1728 1.363 . S
C1724 H1701 0.950 . S
C1724 C1723 1.397 . S
C1724 C1725 1.334 . S
C1725 H1702 0.950 . S
C1725 C1724 1.334 . S
C1725 C1726 1.287 . S
C1726 C1725 1.287 . S
C1726 C1727 1.524 . S
C1726 H1745 0.913 . S
C1727 H1703 0.950 . S
C1727 C1726 1.524 . S
C1727 C1728 1.415 . S
C1728 H1704 0.950 . S
C1728 C1723 1.363 . S
C1728 C1727 1.415 . S
C1729 H1705 0.951 . S
C1729 C1730 1.366 . S
C1729 C1731 1.388 . S
C1730 C1729 1.366 . S
C1730 C1734 1.385 . S
C1731 H1706 0.951 . S
C1731 C1729 1.388 . S
C1731 C1732 1.366 . S
C1732 C1731 1.366 . S
C1732 C1733 1.414 . S
C1732 C1735 1.499 . S
C1733 H1707 0.950 . S
C1733 C1732 1.414 . S
C1733 C1734 1.374 . S
C1734 H1708 0.950 . S
C1734 C1730 1.385 . S
C1734 C1733 1.374 . S
C1735 C1732 1.499 . S
C1735 C1736 1.373 . S
C1735 C1737 1.389 . S
C1736 H1709 0.950 . S
C1736 C1722 1.377 . S
C1736 C1735 1.373 . S
C1737 C1721 1.377 . S
C1737 C1735 1.389 . S
C1737 C1738 1.524 . S
C1738 C1737 1.524 . S
C1738 C1739 1.397 . S
C1738 C1743 1.363 . S
C1739 H1710 0.950 . S
C1739 C1738 1.397 . S
C1739 C1740 1.334 . S
C1740 H1711 0.950 . S
C1740 C1739 1.334 . S
C1740 C1741 1.287 . S
C1741 C1740 1.287 . S
C1741 C1742 1.524 . S
C1741 H1744 0.999 . S
C1742 H1712 0.950 . S
C1742 C1741 1.524 . S
C1742 C1743 1.415 . S
C1743 H1713 0.950 . S
C1743 C1738 1.363 . S
C1743 C1742 1.415 . S
H1744 C1741 0.999 . S
H1745 C1726 0.913 . S
H1746 C1764 0.951 . S
H1747 C1766 0.951 . S
H1748 C1768 0.950 . S
H1749 C1769 0.950 . S
H1750 C1771 0.950 . S
H1751 C1774 0.950 . S
H1752 C1775 0.950 . S
H1753 C1777 0.950 . S
H1754 C1778 0.950 . S
H1755 C1779 0.951 . S
H1756 C1781 0.951 . S
H1757 C1783 0.950 . S
H1758 C1784 0.950 . S
H1759 C1786 0.950 . S
H1760 C1789 0.950 . S
H1761 C1790 0.950 . S
H1762 C1792 0.950 . S
H1763 C1793 0.950 . S
C1764 H1746 0.951 . S
C1764 C1765 1.366 . S
C1764 C1766 1.388 . S
C1765 C1764 1.366 . S
C1765 C1769 1.385 . S
C1766 H1747 0.951 . S
C1766 C1764 1.388 . S
C1766 C1767 1.366 . S
C1767 C1766 1.366 . S
C1767 C1768 1.414 . S
C1767 C1770 1.499 . S
C1768 H1748 0.950 . S
C1768 C1767 1.414 . S
C1768 C1769 1.374 . S
C1769 H1749 0.950 . S
C1769 C1765 1.385 . S
C1769 C1768 1.374 . S
C1770 C1767 1.499 . S
C1770 C1771 1.373 . S
C1770 C1772 1.389 . S
C1771 H1750 0.950 . S
C1771 C1770 1.373 . S
C1771 C1787 1.377 . S
C1772 C1770 1.389 . S
C1772 C1773 1.524 . S
C1772 C1786 1.377 . S
C1773 C1772 1.524 . S
C1773 C1774 1.397 . S
C1773 C1778 1.363 . S
C1774 H1751 0.950 . S
C1774 C1773 1.397 . S
C1774 C1775 1.334 . S
C1775 H1752 0.950 . S
C1775 C1774 1.334 . S
C1775 C1776 1.287 . S
C1776 C1775 1.287 . S
C1776 C1777 1.524 . S
C1776 H1795 0.913 . S
C1777 H1753 0.950 . S
C1777 C1776 1.524 . S
C1777 C1778 1.415 . S
C1778 H1754 0.950 . S
C1778 C1773 1.363 . S
C1778 C1777 1.415 . S
C1779 H1755 0.951 . S
C1779 C1780 1.366 . S
C1779 C1781 1.388 . S
C1780 C1779 1.366 . S
C1780 C1784 1.385 . S
C1781 H1756 0.951 . S
C1781 C1779 1.388 . S
C1781 C1782 1.366 . S
C1782 C1781 1.366 . S
C1782 C1783 1.414 . S
C1782 C1785 1.499 . S
C1783 H1757 0.950 . S
C1783 C1782 1.414 . S
C1783 C1784 1.374 . S
C1784 H1758 0.950 . S
C1784 C1780 1.385 . S
C1784 C1783 1.374 . S
C1785 C1782 1.499 . S
C1785 C1786 1.373 . S
C1785 C1787 1.389 . S
C1786 H1759 0.950 . S
C1786 C1772 1.377 . S
C1786 C1785 1.373 . S
C1787 C1771 1.377 . S
C1787 C1785 1.389 . S
C1787 C1788 1.524 . S
C1788 C1787 1.524 . S
C1788 C1789 1.397 . S
C1788 C1793 1.363 . S
C1789 H1760 0.950 . S
C1789 C1788 1.397 . S
C1789 C1790 1.334 . S
C1790 H1761 0.950 . S
C1790 C1789 1.334 . S
C1790 C1791 1.287 . S
C1791 C1790 1.287 . S
C1791 C1792 1.524 . S
C1791 H1794 0.999 . S
C1792 H1762 0.950 . S
C1792 C1791 1.524 . S
C1792 C1793 1.415 . S
C1793 H1763 0.950 . S
C1793 C1788 1.363 . S
C1793 C1792 1.415 . S
H1794 C1791 0.999 . S
H1795 C1776 0.913 . S
H1796 C1814 0.951 . S
H1797 C1816 0.951 . S
H1798 C1818 0.950 . S
H1799 C1819 0.950 . S
H1800 C1821 0.950 . S
H1801 C1824 0.950 . S
H1802 C1825 0.950 . S
H1803 C1827 0.950 . S
H1804 C1828 0.950 . S
H1805 C1829 0.951 . S
H1806 C1831 0.951 . S
H1807 C1833 0.950 . S
H1808 C1834 0.950 . S
H1809 C1836 0.950 . S
H1810 C1839 0.950 . S
H1811 C1840 0.950 . S
H1812 C1842 0.950 . S
H1813 C1843 0.950 . S
C1814 H1796 0.951 . S
C1814 C1815 1.366 . S
C1814 C1816 1.388 . S
C1815 C1814 1.366 . S
C1815 C1819 1.385 . S
C1816 H1797 0.951 . S
C1816 C1814 1.388 . S
C1816 C1817 1.366 . S
C1817 C1816 1.366 . S
C1817 C1818 1.414 . S
C1817 C1820 1.499 . S
C1818 H1798 0.950 . S
C1818 C1817 1.414 . S
C1818 C1819 1.374 . S
C1819 H1799 0.950 . S
C1819 C1815 1.385 . S
C1819 C1818 1.374 . S
C1820 C1817 1.499 . S
C1820 C1821 1.373 . S
C1820 C1822 1.389 . S
C1821 H1800 0.950 . S
C1821 C1820 1.373 . S
C1821 C1837 1.377 . S
C1822 C1820 1.389 . S
C1822 C1823 1.524 . S
C1822 C1836 1.377 . S
C1823 C1822 1.524 . S
C1823 C1824 1.397 . S
C1823 C1828 1.363 . S
C1824 H1801 0.950 . S
C1824 C1823 1.397 . S
C1824 C1825 1.334 . S
C1825 H1802 0.950 . S
C1825 C1824 1.334 . S
C1825 C1826 1.287 . S
C1826 C1825 1.287 . S
C1826 C1827 1.524 . S
C1826 H1845 0.913 . S
C1827 H1803 0.950 . S
C1827 C1826 1.524 . S
C1827 C1828 1.415 . S
C1828 H1804 0.950 . S
C1828 C1823 1.363 . S
C1828 C1827 1.415 . S
C1829 H1805 0.951 . S
C1829 C1830 1.366 . S
C1829 C1831 1.388 . S
C1830 C1829 1.366 . S
C1830 C1834 1.385 . S
C1831 H1806 0.951 . S
C1831 C1829 1.388 . S
C1831 C1832 1.366 . S
C1832 C1831 1.366 . S
C1832 C1833 1.414 . S
C1832 C1835 1.499 . S
C1833 H1807 0.950 . S
C1833 C1832 1.414 . S
C1833 C1834 1.374 . S
C1834 H1808 0.950 . S
C1834 C1830 1.385 . S
C1834 C1833 1.374 . S
C1835 C1832 1.499 . S
C1835 C1836 1.373 . S
C1835 C1837 1.389 . S
C1836 H1809 0.950 . S
C1836 C1822 1.377 . S
C1836 C1835 1.373 . S
C1837 C1821 1.377 . S
C1837 C1835 1.389 . S
C1837 C1838 1.524 . S
C1838 C1837 1.524 . S
C1838 C1839 1.397 . S
C1838 C1843 1.363 . S
C1839 H1810 0.950 . S
C1839 C1838 1.397 . S
C1839 C1840 1.334 . S
C1840 H1811 0.950 . S
C1840 C1839 1.334 . S
C1840 C1841 1.287 . S
C1841 C1840 1.287 . S
C1841 C1842 1.524 . S
C1841 H1844 0.999 . S
C1842 H1812 0.950 . S
C1842 C1841 1.524 . S
C1842 C1843 1.415 . S
C1843 H1813 0.950 . S
C1843 C1838 1.363 . S
C1843 C1842 1.415 . S
H1844 C1841 0.999 . S
H1845 C1826 0.913 . S
H1846 C1864 0.951 . S
H1847 C1866 0.951 . S
H1848 C1868 0.950 . S
H1849 C1869 0.950 . S
H1850 C1871 0.950 . S
H1851 C1874 0.950 . S
H1852 C1875 0.950 . S
H1853 C1877 0.950 . S
H1854 C1878 0.950 . S
H1855 C1879 0.951 . S
H1856 C1881 0.951 . S
H1857 C1883 0.950 . S
H1858 C1884 0.950 . S
H1859 C1886 0.950 . S
H1860 C1889 0.950 . S
H1861 C1890 0.950 . S
H1862 C1892 0.950 . S
H1863 C1893 0.950 . S
C1864 H1846 0.951 . S
C1864 C1865 1.366 . S
C1864 C1866 1.388 . S
C1865 C1864 1.366 . S
C1865 C1869 1.385 . S
C1866 H1847 0.951 . S
C1866 C1864 1.388 . S
C1866 C1867 1.366 . S
C1867 C1866 1.366 . S
C1867 C1868 1.414 . S
C1867 C1870 1.499 . S
C1868 H1848 0.950 . S
C1868 C1867 1.414 . S
C1868 C1869 1.374 . S
C1869 H1849 0.950 . S
C1869 C1865 1.385 . S
C1869 C1868 1.374 . S
C1870 C1867 1.499 . S
C1870 C1871 1.373 . S
C1870 C1872 1.389 . S
C1871 H1850 0.950 . S
C1871 C1870 1.373 . S
C1871 C1887 1.377 . S
C1872 C1870 1.389 . S
C1872 C1873 1.524 . S
C1872 C1886 1.377 . S
C1873 C1872 1.524 . S
C1873 C1874 1.397 . S
C1873 C1878 1.363 . S
C1874 H1851 0.950 . S
C1874 C1873 1.397 . S
C1874 C1875 1.334 . S
C1875 H1852 0.950 . S
C1875 C1874 1.334 . S
C1875 C1876 1.287 . S
C1876 C1875 1.287 . S
C1876 C1877 1.524 . S
C1876 H1895 0.913 . S
C1877 H1853 0.950 . S
C1877 C1876 1.524 . S
C1877 C1878 1.415 . S
C1878 H1854 0.950 . S
C1878 C1873 1.363 . S
C1878 C1877 1.415 . S
C1879 H1855 0.951 . S
C1879 C1880 1.366 . S
C1879 C1881 1.388 . S
C1880 C1879 1.366 . S
C1880 C1884 1.385 . S
C1881 H1856 0.951 . S
C1881 C1879 1.388 . S
C1881 C1882 1.366 . S
C1882 C1881 1.366 . S
C1882 C1883 1.414 . S
C1882 C1885 1.499 . S
C1883 H1857 0.950 . S
C1883 C1882 1.414 . S
C1883 C1884 1.374 . S
C1884 H1858 0.950 . S
C1884 C1880 1.385 . S
C1884 C1883 1.374 . S
C1885 C1882 1.499 . S
C1885 C1886 1.373 . S
C1885 C1887 1.389 . S
C1886 H1859 0.950 . S
C1886 C1872 1.377 . S
C1886 C1885 1.373 . S
C1887 C1871 1.377 . S
C1887 C1885 1.389 . S
C1887 C1888 1.524 . S
C1888 C1887 1.524 . S
C1888 C1889 1.397 . S
C1888 C1893 1.363 . S
C1889 H1860 0.950 . S
C1889 C1888 1.397 . S
C1889 C1890 1.334 . S
C1890 H1861 0.950 . S
C1890 C1889 1.334 . S
C1890 C1891 1.287 . S
C1891 C1890 1.287 . S
C1891 C1892 1.524 . S
C1891 H1894 0.999 . S
C1892 H1862 0.950 . S
C1892 C1891 1.524 . S
C1892 C1893 1.415 . S
C1893 H1863 0.950 . S
C1893 C1888 1.363 . S
C1893 C1892 1.415 . S
H1894 C1891 0.999 . S
H1895 C1876 0.913 . S
C415 N302 1.685 . S
C430 N5 1.684 . S
C465 N38 1.684 . S
C480 N335 1.685 . S
C515 N368 1.684 . S
C530 N71 1.685 . S
C565 N104 1.684 . S
C580 N203 1.684 . S
C615 N137 1.684 . S
C630 N236 1.685 . S
C665 N269 1.685 . S
C680 N170 1.684 . S
C715 C347 0.829 . S
C730 C17 0.828 . S
C765 C380 0.828 . S
C780 C50 0.829 . S
C815 C83 0.829 . S
C830 C215 0.828 . S
C865 C248 0.829 . S
C880 C116 0.829 . S
C915 C281 0.828 . S
C930 C149 0.828 . S
C965 C182 0.828 . S
C980 C314 0.829 . S
C1015 C259 1.442 . S
C1030 C127 1.442 . S
C1065 C292 1.441 . S
C1080 C160 1.442 . S
C1115 C193 1.441 . S
C1130 C325 1.442 . S
C1165 C28 1.441 . S
C1180 C358 1.442 . S
C1215 C61 1.441 . S
C1230 C391 1.442 . S
C1265 C226 1.442 . S
C1280 C94 1.442 . S
C1315 N14 1.405 . S
C1330 C140 1.408 . S
C1365 N47 1.406 . S
C1380 C173 1.408 . S
C1415 N80 1.405 . S
C1430 C8 1.408 . S
C1465 C41 1.408 . S
C1480 N113 1.406 . S
C1515 N146 1.406 . S
C1530 C74 1.408 . S
C1565 C107 1.408 . S
C1580 N179 1.405 . S
C1615 C272 1.408 . S
C1630 N212 1.406 . S
C1665 C305 1.408 . S
C1680 N245 1.405 . S
C1715 C338 1.408 . S
C1730 N278 1.406 . S
C1765 N311 1.406 . S
C1780 C371 1.408 . S
C1815 C206 1.408 . S
C1830 N344 1.405 . S
C1865 N377 1.406 . S
C1880 C239 1.408 . S
