# Generated by pormake.
# Topology uoo, (4)-cn, num edge types: 1
# Building blocks:
#     Node 0, Type 0, BuildingBlock: QUQFOY_clean_sbu_3, # of connection points: 4
#     Node 1, Type 0, BuildingBlock: QUQFOY_clean_sbu_3, # of connection points: 4
#     Node 2, Type 0, BuildingBlock: QUQFOY_clean_sbu_3, # of connection points: 4
#     Node 3, Type 0, BuildingBlock: QUQFOY_clean_sbu_3, # of connection points: 4
#     Node 4, Type 0, BuildingBlock: QUQFOY_clean_sbu_3, # of connection points: 4
#     Node 5, Type 0, BuildingBlock: QUQFOY_clean_sbu_3, # of connection points: 4
#     Edge 6, Type (0, 0), BuildingBlock: KIFKEQ_clean_linker_1, # of connection points: 2
#     Edge 7, Type (0, 0), BuildingBlock: KIFKEQ_clean_linker_1, # of connection points: 2
#     Edge 8, Type (0, 0), BuildingBlock: KIFKEQ_clean_linker_1, # of connection points: 2
#     Edge 9, Type (0, 0), BuildingBlock: KIFKEQ_clean_linker_1, # of connection points: 2
#     Edge 10, Type (0, 0), BuildingBlock: KIFKEQ_clean_linker_1, # of connection points: 2
#     Edge 11, Type (0, 0), BuildingBlock: KIFKEQ_clean_linker_1, # of connection points: 2
#     Edge 12, Type (0, 0), BuildingBlock: KIFKEQ_clean_linker_1, # of connection points: 2
#     Edge 13, Type (0, 0), BuildingBlock: KIFKEQ_clean_linker_1, # of connection points: 2
#     Edge 14, Type (0, 0), BuildingBlock: KIFKEQ_clean_linker_1, # of connection points: 2
#     Edge 15, Type (0, 0), BuildingBlock: KIFKEQ_clean_linker_1, # of connection points: 2
#     Edge 16, Type (0, 0), BuildingBlock: KIFKEQ_clean_linker_1, # of connection points: 2
#     Edge 17, Type (0, 0), BuildingBlock: KIFKEQ_clean_linker_1, # of connection points: 2
# Relax obj value: 0.206
# Max RMSD: 0.153
# Mean RMSD: 0.152
data_MOF--net-uoo--node1-QUQFOY_clean_sbu_3--edge1-KIFKEQ_clean_linker_1
_symmetry_space_group_name_H-M    P1
_symmetry_Int_Tables_number       1
_symmetry_cell_setting            triclinic
loop_
_symmetry_equiv_pos_as_xyz
'x, y, z'
_cell_length_a     25.729212
_cell_length_b     25.338078
_cell_length_c     43.124005
_cell_angle_alpha  89.649662
_cell_angle_beta   90.725077
_cell_angle_gamma 120.08535
loop_
_atom_site_label
_atom_site_type_symbol
_atom_site_fract_x
_atom_site_fract_y
_atom_site_fract_z
_atom_type_partial_charge
C0 C 0.22705 0.35672 0.98554 0.0
O1 O 0.20729 0.37705 0.96422 0.0
Cd2 Cd 0.10546 0.34331 0.95342 0.0
O3 O 0.19123 0.31115 0.00219 0.0
Cd4 Cd 0.07875 0.24492 0.00478 0.0
C5 C 0.06185 0.19936 0.92934 0.0
O6 O 0.07699 0.3377 0.00596 0.0
O7 O -0.01142 0.26065 0.00163 0.0
O8 O 0.09492 0.2295 0.05958 0.0
C9 C 0.02142 0.31736 0.00673 0.0
O10 O 0.06583 0.25018 0.92263 0.0
C11 C 0.04916 0.17655 0.06169 0.0
O12 O 0.07 0.18733 0.95707 0.0
O13 O 0.01911 0.15391 0.0369 0.0
C14 C 0.67497 0.07503 0.33093 0.0
O15 O 0.68769 0.1181 0.34986 0.0
Cd16 Cd 0.78366 0.18805 0.36912 0.0
O17 O 0.71528 0.06493 0.32012 0.0
Cd18 Cd 0.82836 0.11532 0.32357 0.0
C19 C 0.82526 0.08839 0.4012 0.0
O20 O 0.82912 0.20874 0.32016 0.0
O21 O 0.91701 0.22257 0.32891 0.0
O22 O 0.81835 0.08333 0.2694 0.0
C23 C 0.8844 0.24571 0.32261 0.0
O24 O 0.81145 0.12985 0.40411 0.0
C25 C 0.8656 0.07943 0.26886 0.0
O26 O 0.83158 0.07148 0.37439 0.0
O27 O 0.89397 0.08848 0.29441 0.0
C28 C 0.56148 0.85218 0.65482 0.0
O29 O 0.53853 0.8121 0.6336 0.0
Cd30 Cd 0.56777 0.74144 0.62016 0.0
O31 O 0.60864 0.86132 0.66978 0.0
Cd32 Cd 0.67625 0.8156 0.66932 0.0
C33 C 0.70776 0.84155 0.59205 0.0
O34 O 0.58401 0.72346 0.6722 0.0
O35 O 0.65732 0.70708 0.66807 0.0
O36 O 0.70176 0.85557 0.72286 0.0
C37 C 0.60193 0.68571 0.67317 0.0
O38 O 0.65472 0.79753 0.58733 0.0
C39 C 0.7493 0.85221 0.72475 0.0
O40 O 0.72662 0.86028 0.61953 0.0
O41 O 0.76488 0.83634 0.70032 0.0
C42 C 0.67418 0.58232 -0.01299 0.0
O43 O 0.69315 0.56096 0.96626 0.0
Cd44 Cd 0.79443 0.59477 0.95548 0.0
O45 O 0.71058 0.62887 0.00314 0.0
Cd46 Cd 0.82325 0.69557 0.00569 0.0
C47 C 0.83589 0.7378 0.92979 0.0
O48 O 0.82588 0.6033 0.00798 0.0
O49 O 0.91362 0.68041 0.00234 0.0
O50 O 0.80921 0.71179 0.06035 0.0
C51 C 0.88153 0.62396 0.00823 0.0
O52 O 0.83167 0.6867 0.92385 0.0
C53 C 0.85514 0.76469 0.06244 0.0
O54 O 0.82923 0.75128 0.9573 0.0
O55 O 0.88426 0.78709 0.03766 0.0
C56 C 0.23421 0.85942 0.33314 0.0
O57 O 0.22069 0.81612 0.35216 0.0
Cd58 Cd 0.12464 0.74864 0.3711 0.0
O59 O 0.19474 0.8714 0.32225 0.0
Cd60 Cd 0.08199 0.8246 0.32561 0.0
C61 C 0.08865 0.85139 0.40332 0.0
O62 O 0.0787 0.73026 0.32178 0.0
O63 O -0.00821 0.71794 0.33055 0.0
O64 O 0.09161 0.85774 0.27152 0.0
C65 C 0.02332 0.69406 0.3239 0.0
O66 O 0.10058 0.8085 0.40613 0.0
C67 C 0.04448 0.86188 0.27059 0.0
O68 O 0.08233 0.86928 0.37654 0.0
O69 O 0.01655 0.85273 0.29593 0.0
C70 C 0.34205 0.07768 0.6693 0.0
O71 O 0.36936 0.12229 0.65084 0.0
Cd72 Cd 0.33784 0.1899 0.63458 0.0
O73 O 0.29083 0.0638 0.68045 0.0
Cd74 Cd 0.22346 0.10996 0.67738 0.0
C75 C 0.20291 0.08783 0.59948 0.0
O76 O 0.31242 0.20438 0.68498 0.0
O77 O 0.23883 0.21663 0.67214 0.0
O78 O 0.19417 0.07006 0.73045 0.0
C79 C 0.2925 0.24029 0.68202 0.0
O80 O 0.25626 0.13264 0.59746 0.0
C81 C 0.14563 0.07164 0.73007 0.0
O82 O 0.17979 0.06727 0.62594 0.0
O83 O 0.13108 0.08612 0.70453 0.0
H84 H 0.07349 0.11891 0.74094 0.0
H85 H 0.14707 0.017 0.78494 0.0
H86 H 0.04085 0.13437 0.79052 0.0
H87 H 0.1098 0.0277 0.83485 0.0
H88 H 0.1281 0.14485 0.9201 0.0
H89 H 0.13511 0.09819 0.87254 0.0
H90 H -0.01401 0.11145 0.83363 0.0
H91 H -0.0163 0.16361 0.8804 0.0
C92 C 0.08064 0.09772 0.76118 0.0
C93 C 0.11351 0.06739 0.75907 0.0
C94 C 0.06146 0.10625 0.78992 0.0
C95 C 0.07319 0.08325 0.81736 0.0
C96 C 0.10153 0.04811 0.81466 0.0
C97 C 0.12229 0.04113 0.78593 0.0
C98 C 0.09618 0.1366 0.90151 0.0
C99 C 0.05579 0.15826 0.90371 0.0
C100 C 0.09984 0.10942 0.87409 0.0
C101 C 0.06194 0.10171 0.84847 0.0
C102 C 0.01771 0.11852 0.85208 0.0
C103 C 0.01562 0.14769 0.8791 0.0
H104 H 0.81215 0.05583 0.21167 0.0
H105 H -0.0248 0.08948 0.25867 0.0
H106 H 0.85927 0.06544 0.16185 0.0
H107 H 0.02232 0.09826 0.20857 0.0
H108 H 0.10182 0.21721 0.1186 0.0
H109 H 0.05741 0.17805 0.16905 0.0
H110 H 0.90333 0.02792 0.12446 0.0
H111 H 0.94743 0.0678 0.07382 0.0
C112 C 0.85761 0.06376 0.21138 0.0
C113 C 0.89013 0.07266 0.23916 0.0
C114 C 0.8846 0.06893 0.18274 0.0
C115 C 0.94488 0.08329 0.18115 0.0
C116 C -0.02388 0.08808 0.20898 0.0
C117 C 0.94897 0.08265 0.23769 0.0
C118 C 0.05907 0.17513 0.11954 0.0
C119 C 0.02782 0.14614 0.09215 0.0
C120 C 0.03368 0.1524 0.14854 0.0
C121 C -0.02359 0.10016 0.15084 0.0
C122 C 0.94706 0.06881 0.12349 0.0
C123 C -0.02749 0.09152 0.09447 0.0
H124 H 0.82799 0.12217 0.46139 0.0
H125 H 0.82921 -0.01795 0.40531 0.0
H126 H 0.81612 0.06257 0.50771 0.0
H127 H 0.81841 0.92253 0.45211 0.0
H128 H 0.68842 0.80417 0.53177 0.0
H129 H 0.73351 0.86593 0.48603 0.0
H130 H 0.85497 0.01722 0.54421 0.0
H131 H 0.80871 0.95537 0.59033 0.0
C132 C 0.82695 0.07912 0.45897 0.0
C133 C 0.82853 0.05646 0.42951 0.0
C134 C 0.82073 0.04512 0.48568 0.0
C135 C 0.81582 -0.01255 0.48368 0.0
C136 C 0.82125 0.96644 0.45441 0.0
C137 C 0.82771 0.00067 0.4276 0.0
C138 C 0.72555 0.85022 0.53489 0.0
C139 C 0.74419 0.87514 0.56477 0.0
C140 C 0.75183 0.88558 0.50856 0.0
C141 C 0.79742 0.94687 0.51139 0.0
C142 C 0.81925 -0.02957 0.54124 0.0
C143 C 0.79301 0.93487 0.56768 0.0
H144 H 0.76536 0.78697 0.91762 0.0
H145 H 0.91504 0.77518 0.88226 0.0
H146 H 0.75627 0.82986 0.86869 0.0
H147 H 0.91045 0.82359 0.83414 0.0
H148 H 0.82282 0.80753 0.73936 0.0
H149 H 0.85513 0.79534 0.79031 0.0
H150 H 0.77956 0.89854 0.82983 0.0
H151 H 0.74296 0.9062 0.77849 0.0
C152 C 0.79792 0.79603 0.89969 0.0
C153 C 0.84054 0.77742 0.9035 0.0
C154 C 0.79303 0.82099 0.87149 0.0
C155 C 0.83178 0.8294 0.8467 0.0
C156 C 0.87808 0.81581 0.85193 0.0
C157 C 0.8815 0.78886 0.87972 0.0
C158 C 0.814 0.82858 0.75884 0.0
C159 C 0.77972 0.85721 0.75491 0.0
C160 C 0.83303 0.82199 0.78835 0.0
C161 C 0.81965 0.84522 0.81483 0.0
C162 C 0.78932 0.87821 0.8104 0.0
C163 C 0.76886 0.88336 0.78086 0.0
H164 H 0.93501 0.85266 0.25956 0.0
H165 H 0.09657 0.88482 0.21366 0.0
H166 H 0.88679 0.84382 0.20914 0.0
H167 H 0.04833 0.87511 0.16351 0.0
H168 H -0.0419 0.8728 0.07474 0.0
H169 H 0.00388 0.91264 0.12549 0.0
H170 H 0.85008 0.76392 0.16978 0.0
H171 H 0.80402 0.72483 0.11923 0.0
C172 C -0.03931 0.85916 0.23875 0.0
C173 C 0.01943 0.86878 0.24064 0.0
C174 C 0.9329 0.85367 0.20985 0.0
C175 C -0.03663 0.85799 0.18223 0.0
C176 C 0.02357 0.87197 0.18422 0.0
C177 C 0.05121 0.87722 0.21306 0.0
C178 C 0.93346 0.8494 0.09533 0.0
C179 C 0.87769 0.79519 0.09291 0.0
C180 C -0.04012 0.87206 0.12443 0.0
C181 C 0.93107 0.8411 0.15174 0.0
C182 C 0.87343 0.78928 0.1493 0.0
C183 C 0.84709 0.76659 0.12024 0.0
H184 H 0.09975 -0.02354 0.59335 0.0
H185 H 0.23333 0.12751 0.53993 0.0
H186 H 0.05698 0.91869 0.54549 0.0
H187 H 0.19139 0.06969 0.49245 0.0
H188 H 0.09438 0.96243 0.40807 0.0
H189 H 0.10761 0.02063 0.45551 0.0
H190 H 0.09483 0.87121 0.51016 0.0
H191 H 0.08084 0.81311 0.46316 0.0
C192 C 0.11934 -0.00221 0.57142 0.0
C193 C 0.17052 0.05632 0.57056 0.0
C194 C 0.09503 0.96456 0.544 0.0
C195 C 0.12112 -0.01071 0.51513 0.0
C196 C 0.16979 0.04932 0.51419 0.0
C197 C 0.19421 0.08235 0.54153 0.0
C198 C 0.09315 0.94159 0.43026 0.0
C199 C 0.08734 0.88342 0.43177 0.0
C200 C 0.10105 -0.02495 0.45743 0.0
C201 C 0.10277 0.95081 0.48665 0.0
C202 C 0.09319 0.89117 0.48815 0.0
C203 C 0.0857 0.858 0.46108 0.0
H204 H 0.30635 0.47412 0.97098 0.0
H205 H 0.29483 0.31494 0.01504 0.0
H206 H 0.41456 0.52919 0.97864 0.0
H207 H 0.40436 0.37067 0.02251 0.0
H208 H 0.59502 0.46365 0.97476 0.0
H209 H 0.48691 0.40899 0.98159 0.0
H210 H 0.4974 0.57074 0.02048 0.0
H211 H 0.60686 0.62606 0.01384 0.0
C212 C 0.32697 0.45092 0.98245 0.0
C213 C 0.29227 0.38981 -0.00803 0.0
C214 C 0.38888 0.48286 -0.0128 0.0
C215 C 0.41766 0.45423 0.00123 0.0
C216 C 0.383 0.39365 0.0116 0.0
C217 C 0.32058 0.36181 0.00728 0.0
C218 C 0.57448 0.48763 0.98499 0.0
C219 C 0.60921 0.54948 -0.00669 0.0
C220 C 0.51264 0.45597 -0.01074 0.0
C221 C 0.48396 0.48561 0.00159 0.0
C222 C 0.51869 0.54697 0.01087 0.0
C223 C 0.58106 0.57857 0.00705 0.0
H224 H -0.00409 0.33938 0.33984 0.0
H225 H 0.82135 0.30073 0.30616 0.0
H226 H 0.02811 0.4481 0.34181 0.0
H227 H 0.85367 0.4085 0.3074 0.0
H228 H 0.91256 0.60082 0.34173 0.0
H229 H 0.87969 0.49179 0.34312 0.0
H230 H 0.05047 0.53034 0.30596 0.0
H231 H 0.08344 0.6382 0.30526 0.0
C232 C -0.0353 0.35414 0.33269 0.0
C233 C 0.90625 0.31169 0.32289 0.0
C234 C -0.017 0.41624 0.33377 0.0
C235 C 0.9432 0.43677 0.3249 0.0
C236 C 0.88496 0.39411 0.31496 0.0
C237 C 0.8667 0.33236 0.314 0.0
C238 C 0.94276 0.58571 0.33382 0.0
C239 C 0.00049 0.62789 0.32351 0.0
C240 C 0.92409 0.52347 0.33458 0.0
C241 C -0.0372 0.5026 0.32489 0.0
C242 C 0.02013 0.54497 0.31423 0.0
C243 C 0.03874 0.6068 0.31358 0.0
H244 H 0.46159 0.12224 0.67343 0.0
H245 H 0.29118 0.95646 0.68449 0.0
H246 H 0.51379 0.06504 0.6781 0.0
H247 H 0.34397 0.89859 0.68943 0.0
H248 H 0.45191 0.82818 0.63375 0.0
H249 H 0.39692 0.87893 0.64698 0.0
H250 H 0.5403 -0.00141 0.7093 0.0
H251 H 0.59648 0.94738 0.69588 0.0
C252 C 0.43537 0.07352 0.67746 0.0
C253 C 0.37229 0.04339 0.67791 0.0
C254 C 0.46541 0.04091 0.68052 0.0
C255 C 0.43293 -0.02263 0.68382 0.0
C256 C 0.36997 0.94763 0.68659 0.0
C257 C 0.3398 -0.01944 0.68385 0.0
C258 C 0.47202 0.86516 0.65038 0.0
C259 C 0.52915 0.88431 0.66344 0.0
C260 C 0.43983 0.89359 0.65834 0.0
C261 C 0.46398 0.94222 0.67942 0.0
C262 C 0.52065 0.96101 0.69299 0.0
C263 C 0.55289 0.93201 0.6852 0.0
H264 H 0.27736 0.33289 0.65864 0.0
H265 H 0.40373 0.29649 0.70755 0.0
H266 H 0.3537 0.44119 0.65622 0.0
H267 H 0.47907 0.40398 0.70562 0.0
H268 H 0.61902 0.58793 0.66476 0.0
H269 H 0.54212 0.4797 0.66713 0.0
H270 H 0.40891 0.52889 0.69026 0.0
H271 H 0.48463 0.63589 0.68733 0.0
C272 C 0.32103 0.34816 0.66921 0.0
C273 C 0.33475 0.30641 0.68311 0.0
C274 C 0.36474 0.40998 0.66782 0.0
C275 C 0.4226 0.43082 0.68043 0.0
C276 C 0.43544 0.38911 0.69509 0.0
C277 C 0.39202 0.32764 0.69642 0.0
C278 C 0.57334 0.57536 0.6704 0.0
C279 C 0.55779 0.62021 0.6757 0.0
C280 C 0.52937 0.5136 0.67183 0.0
C281 C 0.4694 0.49596 0.67869 0.0
C282 C 0.45436 0.54101 0.68434 0.0
C283 C 0.49799 0.60235 0.68285 0.0
H284 H 0.82128 0.5072 0.02806 0.0
H285 H -0.00688 0.64366 -0.00773 0.0
H286 H 0.85406 0.43261 0.02841 0.0
H287 H 0.02577 0.56799 -0.00816 0.0
H288 H 0.08411 0.4349 0.02529 0.0
H289 H 0.0515 0.50956 0.02645 0.0
H290 H 0.87575 0.3732 -0.00693 0.0
H291 H 0.90831 0.29744 -0.00729 0.0
C292 C 0.86621 0.52125 0.0202 0.0
C293 C 0.90469 0.58128 0.01004 0.0
C294 C 0.88475 0.47823 0.02016 0.0
C295 C 0.94221 0.49404 0.00986 0.0
C296 C -0.01872 0.55448 0.00017 0.0
C297 C -0.03727 0.59785 0.00037 0.0
C298 C 0.03836 0.42066 0.01827 0.0
C299 C -0.0013 0.36031 0.0088 0.0
C300 C 0.01988 0.46371 0.01871 0.0
C301 C -0.0387 0.44763 0.00957 0.0
C302 C 0.92114 0.38692 0.00052 0.0
C303 C 0.93965 0.34352 0.00025 0.0
H304 H 0.59835 0.95309 0.33708 0.0
H305 H 0.61156 0.119 0.30204 0.0
H306 H 0.48947 0.90063 0.33011 0.0
H307 H 0.5033 0.06637 0.29308 0.0
H308 H 0.31164 -0.0177 0.33305 0.0
H309 H 0.41988 0.03313 0.32479 0.0
H310 H 0.40317 0.86025 0.29926 0.0
H311 H 0.29597 0.80973 0.30954 0.0
C312 C 0.57787 -0.02253 0.32676 0.0
C313 C 0.61258 0.03969 0.32015 0.0
C314 C 0.51553 0.94762 0.32265 0.0
C315 C 0.48723 -0.02052 0.31136 0.0
C316 C 0.52317 0.04079 0.30256 0.0
C317 C 0.58516 0.07078 0.30732 0.0
C318 C 0.33132 0.95579 0.32508 0.0
C319 C 0.29623 0.89242 0.32218 0.0
C320 C 0.39326 -0.0153 0.32018 0.0
C321 C 0.42066 0.95064 0.31174 0.0
C322 C 0.38411 0.8877 0.30657 0.0
C323 C 0.32268 0.85882 0.31216 0.0
loop_
_geom_bond_atom_site_label_1
_geom_bond_atom_site_label_2
_geom_bond_distance
_geom_bond_site_symmetry_2
_ccdc_geom_bond_type
C0 O1 1.288 1_554 S
C0 O3 1.160 . S
O1 C0 1.288 1_556 S
O1 Cd2 2.252 . S
Cd2 O1 2.252 . S
Cd2 O6 2.273 1_556 S
Cd2 O10 2.277 . S
O3 C0 1.160 . S
O3 Cd4 2.203 . S
Cd4 O3 2.203 . S
Cd4 O6 2.411 . S
Cd4 O7 2.333 . S
Cd4 O8 2.352 . S
Cd4 O12 2.277 1_554 S
Cd4 O13 2.356 . S
C5 O10 1.209 . S
C5 O12 1.226 . S
O6 Cd2 2.273 1_554 S
O6 Cd4 2.411 . S
O6 C9 1.323 . S
O7 Cd4 2.333 . S
O7 C9 1.219 . S
O8 Cd4 2.352 . S
O8 C11 1.258 . S
C9 O6 1.323 . S
C9 O7 1.219 . S
O10 Cd2 2.277 . S
O10 C5 1.209 . S
C11 O8 1.258 . S
C11 O13 1.282 . S
O12 Cd4 2.277 1_556 S
O12 C5 1.226 . S
O13 Cd4 2.356 . S
O13 C11 1.282 . S
C14 O15 1.306 . S
C14 O17 1.160 . S
O15 C14 1.306 . S
O15 Cd16 2.228 . S
Cd16 O15 2.228 . S
Cd16 O20 2.273 . S
Cd16 O24 2.277 . S
O17 C14 1.160 . S
O17 Cd18 2.203 . S
Cd18 O17 2.203 . S
Cd18 O20 2.411 . S
Cd18 O21 2.333 . S
Cd18 O22 2.352 . S
Cd18 O26 2.277 . S
Cd18 O27 2.356 . S
C19 O24 1.209 . S
C19 O26 1.226 . S
O20 Cd16 2.273 . S
O20 Cd18 2.411 . S
O20 C23 1.320 . S
O21 Cd18 2.333 . S
O21 C23 1.214 . S
O22 Cd18 2.352 . S
O22 C25 1.258 . S
C23 O20 1.320 . S
C23 O21 1.214 . S
O24 Cd16 2.277 . S
O24 C19 1.209 . S
C25 O22 1.258 . S
C25 O27 1.282 . S
O26 Cd18 2.277 . S
O26 C19 1.226 . S
O27 Cd18 2.356 . S
O27 C25 1.282 . S
C28 O29 1.306 . S
C28 O31 1.160 . S
O29 C28 1.306 . S
O29 Cd30 2.228 . S
Cd30 O29 2.228 . S
Cd30 O34 2.273 . S
Cd30 O38 2.277 . S
O31 C28 1.160 . S
O31 Cd32 2.203 . S
Cd32 O31 2.203 . S
Cd32 O34 2.411 . S
Cd32 O35 2.333 . S
Cd32 O36 2.352 . S
Cd32 O40 2.277 . S
Cd32 O41 2.356 . S
C33 O38 1.209 . S
C33 O40 1.226 . S
O34 Cd30 2.273 . S
O34 Cd32 2.411 . S
O34 C37 1.320 . S
O35 Cd32 2.333 . S
O35 C37 1.214 . S
O36 Cd32 2.352 . S
O36 C39 1.258 . S
C37 O34 1.320 . S
C37 O35 1.214 . S
O38 Cd30 2.277 . S
O38 C33 1.209 . S
C39 O36 1.258 . S
C39 O41 1.282 . S
O40 Cd32 2.277 . S
O40 C33 1.226 . S
O41 Cd32 2.356 . S
O41 C39 1.282 . S
C42 O43 1.288 1_554 S
C42 O45 1.160 . S
O43 C42 1.288 1_556 S
O43 Cd44 2.252 . S
Cd44 O43 2.252 . S
Cd44 O48 2.273 1_556 S
Cd44 O52 2.277 . S
O45 C42 1.160 . S
O45 Cd46 2.203 . S
Cd46 O45 2.203 . S
Cd46 O48 2.411 . S
Cd46 O49 2.333 . S
Cd46 O50 2.352 . S
Cd46 O54 2.277 1_554 S
Cd46 O55 2.356 . S
C47 O52 1.209 . S
C47 O54 1.226 . S
O48 Cd44 2.273 1_554 S
O48 Cd46 2.411 . S
O48 C51 1.323 . S
O49 Cd46 2.333 . S
O49 C51 1.219 . S
O50 Cd46 2.352 . S
O50 C53 1.258 . S
C51 O48 1.323 . S
C51 O49 1.219 . S
O52 Cd44 2.277 . S
O52 C47 1.209 . S
C53 O50 1.258 . S
C53 O55 1.282 . S
O54 Cd46 2.277 1_556 S
O54 C47 1.226 . S
O55 Cd46 2.356 . S
O55 C53 1.282 . S
C56 O57 1.306 . S
C56 O59 1.160 . S
O57 C56 1.306 . S
O57 Cd58 2.228 . S
Cd58 O57 2.228 . S
Cd58 O62 2.273 . S
Cd58 O66 2.277 . S
O59 C56 1.160 . S
O59 Cd60 2.203 . S
Cd60 O59 2.203 . S
Cd60 O62 2.411 . S
Cd60 O63 2.333 . S
Cd60 O64 2.352 . S
Cd60 O68 2.277 . S
Cd60 O69 2.356 . S
C61 O66 1.209 . S
C61 O68 1.226 . S
O62 Cd58 2.273 . S
O62 Cd60 2.411 . S
O62 C65 1.320 . S
O63 Cd60 2.333 . S
O63 C65 1.214 . S
O64 Cd60 2.352 . S
O64 C67 1.258 . S
C65 O62 1.320 . S
C65 O63 1.214 . S
O66 Cd58 2.277 . S
O66 C61 1.209 . S
C67 O64 1.258 . S
C67 O69 1.282 . S
O68 Cd60 2.277 . S
O68 C61 1.226 . S
O69 Cd60 2.356 . S
O69 C67 1.282 . S
C70 O71 1.306 . S
C70 O73 1.160 . S
O71 C70 1.306 . S
O71 Cd72 2.228 . S
Cd72 O71 2.228 . S
Cd72 O76 2.273 . S
Cd72 O80 2.277 . S
O73 C70 1.160 . S
O73 Cd74 2.203 . S
Cd74 O73 2.203 . S
Cd74 O76 2.411 . S
Cd74 O77 2.333 . S
Cd74 O78 2.352 . S
Cd74 O82 2.277 . S
Cd74 O83 2.356 . S
C75 O80 1.209 . S
C75 O82 1.226 . S
O76 Cd72 2.273 . S
O76 Cd74 2.411 . S
O76 C79 1.320 . S
O77 Cd74 2.333 . S
O77 C79 1.214 . S
O78 Cd74 2.352 . S
O78 C81 1.258 . S
C79 O76 1.320 . S
C79 O77 1.214 . S
O80 Cd72 2.277 . S
O80 C75 1.209 . S
C81 O78 1.258 . S
C81 O83 1.282 . S
O82 Cd74 2.277 . S
O82 C75 1.226 . S
O83 Cd74 2.356 . S
O83 C81 1.282 . S
H84 C92 0.950 . S
H85 C97 0.950 . S
H86 C94 0.950 . S
H87 C96 0.950 . S
H88 C98 0.950 . S
H89 C100 0.950 . S
H90 C102 0.950 . S
H91 C103 0.950 . S
C92 H84 0.950 . S
C92 C93 1.386 . S
C92 C94 1.391 . S
C93 C92 1.386 . S
C93 C97 1.393 . S
C94 H86 0.950 . S
C94 C92 1.391 . S
C94 C95 1.400 . S
C95 C94 1.400 . S
C95 C96 1.398 . S
C95 C101 1.491 . S
C96 H87 0.950 . S
C96 C95 1.398 . S
C96 C97 1.391 . S
C97 H85 0.950 . S
C97 C93 1.393 . S
C97 C96 1.391 . S
C98 H88 0.950 . S
C98 C99 1.386 . S
C98 C100 1.391 . S
C99 C98 1.386 . S
C99 C103 1.393 . S
C100 H89 0.950 . S
C100 C98 1.391 . S
C100 C101 1.400 . S
C101 C95 1.491 . S
C101 C100 1.400 . S
C101 C102 1.398 . S
C102 H90 0.950 . S
C102 C101 1.398 . S
C102 C103 1.391 . S
C103 H91 0.950 . S
C103 C99 1.393 . S
C103 C102 1.391 . S
H104 C112 0.950 . S
H105 C117 0.950 1_455 S
H106 C114 0.950 . S
H107 C116 0.950 . S
H108 C118 0.950 . S
H109 C120 0.950 . S
H110 C122 0.950 . S
H111 C123 0.950 . S
C112 H104 0.950 . S
C112 C113 1.386 . S
C112 C114 1.391 . S
C113 C112 1.386 . S
C113 C117 1.393 . S
C114 H106 0.950 . S
C114 C112 1.391 . S
C114 C115 1.400 . S
C115 C114 1.400 . S
C115 C116 1.398 1_655 S
C115 C121 1.491 1_655 S
C116 H107 0.950 . S
C116 C115 1.398 1_455 S
C116 C117 1.391 1_455 S
C117 H105 0.950 1_655 S
C117 C113 1.393 . S
C117 C116 1.391 1_655 S
C118 H108 0.950 . S
C118 C119 1.386 . S
C118 C120 1.391 . S
C119 C118 1.386 . S
C119 C123 1.393 1_455 S
C120 H109 0.950 . S
C120 C118 1.391 . S
C120 C121 1.400 . S
C121 C115 1.491 1_455 S
C121 C120 1.400 . S
C121 C122 1.398 1_455 S
C122 H110 0.950 . S
C122 C121 1.398 1_655 S
C122 C123 1.391 . S
C123 H111 0.950 . S
C123 C119 1.393 1_655 S
C123 C122 1.391 . S
H124 C132 0.950 . S
H125 C137 0.950 . S
H126 C134 0.950 . S
H127 C136 0.950 . S
H128 C138 0.950 . S
H129 C140 0.950 . S
H130 C142 0.950 . S
H131 C143 0.950 . S
C132 H124 0.950 . S
C132 C133 1.386 . S
C132 C134 1.391 . S
C133 C132 1.386 . S
C133 C137 1.393 . S
C134 H126 0.950 . S
C134 C132 1.391 . S
C134 C135 1.400 . S
C135 C134 1.400 . S
C135 C136 1.398 1_545 S
C135 C141 1.491 1_545 S
C136 H127 0.950 . S
C136 C135 1.398 1_565 S
C136 C137 1.391 1_565 S
C137 H125 0.950 . S
C137 C133 1.393 . S
C137 C136 1.391 1_545 S
C138 H128 0.950 . S
C138 C139 1.386 . S
C138 C140 1.391 . S
C139 C138 1.386 . S
C139 C143 1.393 . S
C140 H129 0.950 . S
C140 C138 1.391 . S
C140 C141 1.400 . S
C141 C135 1.491 1_565 S
C141 C140 1.400 . S
C141 C142 1.398 1_565 S
C142 H130 0.950 . S
C142 C141 1.398 1_545 S
C142 C143 1.391 1_545 S
C143 H131 0.950 . S
C143 C139 1.393 . S
C143 C142 1.391 1_565 S
H144 C152 0.950 . S
H145 C157 0.950 . S
H146 C154 0.950 . S
H147 C156 0.950 . S
H148 C158 0.950 . S
H149 C160 0.950 . S
H150 C162 0.950 . S
H151 C163 0.950 . S
C152 H144 0.950 . S
C152 C153 1.386 . S
C152 C154 1.391 . S
C153 C152 1.386 . S
C153 C157 1.393 . S
C154 H146 0.950 . S
C154 C152 1.391 . S
C154 C155 1.400 . S
C155 C154 1.400 . S
C155 C156 1.398 . S
C155 C161 1.491 . S
C156 H147 0.950 . S
C156 C155 1.398 . S
C156 C157 1.391 . S
C157 H145 0.950 . S
C157 C153 1.393 . S
C157 C156 1.391 . S
C158 H148 0.950 . S
C158 C159 1.386 . S
C158 C160 1.391 . S
C159 C158 1.386 . S
C159 C163 1.393 . S
C160 H149 0.950 . S
C160 C158 1.391 . S
C160 C161 1.400 . S
C161 C155 1.491 . S
C161 C160 1.400 . S
C161 C162 1.398 . S
C162 H150 0.950 . S
C162 C161 1.398 . S
C162 C163 1.391 . S
C163 H151 0.950 . S
C163 C159 1.393 . S
C163 C162 1.391 . S
H164 C172 0.950 1_655 S
H165 C177 0.950 . S
H166 C174 0.950 . S
H167 C176 0.950 . S
H168 C178 0.950 1_455 S
H169 C180 0.950 . S
H170 C182 0.950 . S
H171 C183 0.950 . S
C172 H164 0.950 1_455 S
C172 C173 1.386 . S
C172 C174 1.391 1_455 S
C173 C172 1.386 . S
C173 C177 1.393 . S
C174 H166 0.950 . S
C174 C172 1.391 1_655 S
C174 C175 1.400 1_655 S
C175 C174 1.400 1_455 S
C175 C176 1.398 . S
C175 C181 1.491 1_455 S
C176 H167 0.950 . S
C176 C175 1.398 . S
C176 C177 1.391 . S
C177 H165 0.950 . S
C177 C173 1.393 . S
C177 C176 1.391 . S
C178 H168 0.950 1_655 S
C178 C179 1.386 . S
C178 C180 1.391 1_655 S
C179 C178 1.386 . S
C179 C183 1.393 . S
C180 H169 0.950 . S
C180 C178 1.391 1_455 S
C180 C181 1.400 1_455 S
C181 C175 1.491 1_655 S
C181 C180 1.400 1_655 S
C181 C182 1.398 . S
C182 H170 0.950 . S
C182 C181 1.398 . S
C182 C183 1.391 . S
C183 H171 0.950 . S
C183 C179 1.393 . S
C183 C182 1.391 . S
H184 C192 0.950 1_565 S
H185 C197 0.950 . S
H186 C194 0.950 . S
H187 C196 0.950 . S
H188 C198 0.950 1_545 S
H189 C200 0.950 . S
H190 C202 0.950 . S
H191 C203 0.950 . S
C192 H184 0.950 1_545 S
C192 C193 1.386 . S
C192 C194 1.391 1_545 S
C193 C192 1.386 . S
C193 C197 1.393 . S
C194 H186 0.950 . S
C194 C192 1.391 1_565 S
C194 C195 1.400 1_565 S
C195 C194 1.400 1_545 S
C195 C196 1.398 . S
C195 C201 1.491 1_545 S
C196 H187 0.950 . S
C196 C195 1.398 . S
C196 C197 1.391 . S
C197 H185 0.950 . S
C197 C193 1.393 . S
C197 C196 1.391 . S
C198 H188 0.950 1_565 S
C198 C199 1.386 . S
C198 C200 1.391 1_565 S
C199 C198 1.386 . S
C199 C203 1.393 . S
C200 H189 0.950 . S
C200 C198 1.391 1_545 S
C200 C201 1.400 1_545 S
C201 C195 1.491 1_565 S
C201 C200 1.400 1_565 S
C201 C202 1.398 . S
C202 H190 0.950 . S
C202 C201 1.398 . S
C202 C203 1.391 . S
C203 H191 0.950 . S
C203 C199 1.393 . S
C203 C202 1.391 . S
H204 C212 0.929 1_556 S
H205 C217 0.950 . S
H206 C214 0.937 1_556 S
H207 C216 0.950 . S
H208 C218 0.950 . S
H209 C220 0.950 . S
H210 C222 0.950 . S
H211 C223 0.950 . S
C212 H204 0.929 1_554 S
C212 C213 1.407 . S
C212 C214 1.391 . S
C213 C212 1.407 . S
C213 C217 1.393 . S
C214 H206 0.937 1_554 S
C214 C212 1.391 . S
C214 C215 1.413 . S
C215 C214 1.413 . S
C215 C216 1.398 . S
C215 C221 1.491 . S
C216 H207 0.950 . S
C216 C215 1.398 . S
C216 C217 1.391 . S
C217 H205 0.950 . S
C217 C213 1.393 . S
C217 C216 1.391 . S
C218 H208 0.950 . S
C218 C219 1.386 . S
C218 C220 1.391 . S
C219 C218 1.386 . S
C219 C223 1.393 1_554 S
C220 H209 0.950 . S
C220 C218 1.391 . S
C220 C221 1.400 . S
C221 C215 1.491 . S
C221 C220 1.400 . S
C221 C222 1.398 1_554 S
C222 H210 0.950 . S
C222 C221 1.398 1_556 S
C222 C223 1.391 . S
C223 H211 0.950 . S
C223 C219 1.393 1_556 S
C223 C222 1.391 . S
H224 C232 0.950 . S
H225 C237 0.950 . S
H226 C234 0.950 . S
H227 C236 0.950 . S
H228 C238 0.950 . S
H229 C240 0.950 . S
H230 C242 0.950 . S
H231 C243 0.950 . S
C232 H224 0.950 . S
C232 C233 1.386 1_455 S
C232 C234 1.391 . S
C233 C232 1.386 1_655 S
C233 C237 1.393 . S
C234 H226 0.950 . S
C234 C232 1.391 . S
C234 C235 1.400 1_455 S
C235 C234 1.400 1_655 S
C235 C236 1.398 . S
C235 C241 1.491 1_655 S
C236 H227 0.950 . S
C236 C235 1.398 . S
C236 C237 1.391 . S
C237 H225 0.950 . S
C237 C233 1.393 . S
C237 C236 1.391 . S
C238 H228 0.950 . S
C238 C239 1.386 1_655 S
C238 C240 1.391 . S
C239 C238 1.386 1_455 S
C239 C243 1.393 . S
C240 H229 0.950 . S
C240 C238 1.391 . S
C240 C241 1.400 1_655 S
C241 C235 1.491 1_455 S
C241 C240 1.400 1_455 S
C241 C242 1.398 . S
C242 H230 0.950 . S
C242 C241 1.398 . S
C242 C243 1.391 . S
C243 H231 0.950 . S
C243 C239 1.393 . S
C243 C242 1.391 . S
H244 C252 0.950 . S
H245 C257 0.950 . S
H246 C254 0.958 . S
H247 C256 0.950 . S
H248 C258 0.950 . S
H249 C260 0.958 . S
H250 C262 0.950 . S
H251 C263 0.950 . S
C252 H244 0.950 . S
C252 C253 1.386 . S
C252 C254 1.381 1_545 S
C253 C252 1.386 . S
C253 C257 1.393 . S
C254 H246 0.958 . S
C254 C252 1.381 1_565 S
C254 C255 1.403 1_565 S
C255 C254 1.403 1_545 S
C255 C256 1.398 . S
C255 C261 1.491 1_545 S
C256 H247 0.950 . S
C256 C255 1.398 . S
C256 C257 1.391 . S
C257 H245 0.950 . S
C257 C253 1.393 . S
C257 C256 1.391 . S
C258 H248 0.950 . S
C258 C259 1.386 . S
C258 C260 1.381 1_565 S
C259 C258 1.386 . S
C259 C263 1.393 . S
C260 H249 0.958 . S
C260 C258 1.381 1_545 S
C260 C261 1.403 1_545 S
C261 C255 1.491 1_565 S
C261 C260 1.403 1_565 S
C261 C262 1.398 . S
C262 H250 0.950 . S
C262 C261 1.398 . S
C262 C263 1.391 . S
C263 H251 0.950 . S
C263 C259 1.393 . S
C263 C262 1.391 . S
H264 C272 0.950 . S
H265 C277 0.950 . S
H266 C274 0.950 . S
H267 C276 0.950 . S
H268 C278 0.950 . S
H269 C280 0.950 . S
H270 C282 0.950 . S
H271 C283 0.950 . S
C272 H264 0.950 . S
C272 C273 1.386 . S
C272 C274 1.391 . S
C273 C272 1.386 . S
C273 C277 1.393 . S
C274 H266 0.950 . S
C274 C272 1.391 . S
C274 C275 1.400 . S
C275 C274 1.400 . S
C275 C276 1.398 . S
C275 C281 1.491 . S
C276 H267 0.950 . S
C276 C275 1.398 . S
C276 C277 1.391 . S
C277 H265 0.950 . S
C277 C273 1.393 . S
C277 C276 1.391 . S
C278 H268 0.950 . S
C278 C279 1.386 . S
C278 C280 1.391 . S
C279 C278 1.386 . S
C279 C283 1.393 . S
C280 H269 0.950 . S
C280 C278 1.391 . S
C280 C281 1.400 . S
C281 C275 1.491 . S
C281 C280 1.400 . S
C281 C282 1.398 . S
C282 H270 0.950 . S
C282 C281 1.398 . S
C282 C283 1.391 . S
C283 H271 0.950 . S
C283 C279 1.393 . S
C283 C282 1.391 . S
H284 C292 0.950 . S
H285 C297 0.950 1_455 S
H286 C294 0.950 . S
H287 C296 0.950 . S
H288 C298 0.950 . S
H289 C300 0.950 . S
H290 C302 0.950 . S
H291 C303 0.950 1_655 S
C292 H284 0.950 . S
C292 C293 1.386 . S
C292 C294 1.391 . S
C293 C292 1.386 . S
C293 C297 1.393 1_556 S
C294 H286 0.950 . S
C294 C292 1.391 . S
C294 C295 1.400 . S
C295 C294 1.400 . S
C295 C296 1.398 1_656 S
C295 C301 1.491 1_655 S
C296 H287 0.950 . S
C296 C295 1.398 1_454 S
C296 C297 1.391 1_455 S
C297 H285 0.950 1_655 S
C297 C293 1.393 1_554 S
C297 C296 1.391 1_655 S
C298 H288 0.950 . S
C298 C299 1.386 1_554 S
C298 C300 1.391 . S
C299 C298 1.386 1_556 S
C299 C303 1.393 . S
C300 H289 0.950 . S
C300 C298 1.391 . S
C300 C301 1.400 1_554 S
C301 C295 1.491 1_455 S
C301 C300 1.400 1_556 S
C301 C302 1.398 1_455 S
C302 H290 0.950 . S
C302 C301 1.398 1_655 S
C302 C303 1.391 1_655 S
C303 H291 0.950 1_455 S
C303 C299 1.393 . S
C303 C302 1.391 1_455 S
H304 C312 0.950 . S
H305 C317 0.950 . S
H306 C314 0.950 . S
H307 C316 0.950 . S
H308 C318 0.950 . S
H309 C320 0.950 . S
H310 C322 0.950 . S
H311 C323 0.950 . S
C312 H304 0.950 . S
C312 C313 1.386 1_565 S
C312 C314 1.391 . S
C313 C312 1.386 1_545 S
C313 C317 1.393 . S
C314 H306 0.950 . S
C314 C312 1.391 . S
C314 C315 1.400 1_565 S
C315 C314 1.400 1_545 S
C315 C316 1.398 . S
C315 C321 1.491 1_545 S
C316 H307 0.950 . S
C316 C315 1.398 . S
C316 C317 1.391 . S
C317 H305 0.950 . S
C317 C313 1.393 . S
C317 C316 1.391 . S
C318 H308 0.950 . S
C318 C319 1.386 1_545 S
C318 C320 1.391 . S
C319 C318 1.386 1_565 S
C319 C323 1.393 . S
C320 H309 0.950 . S
C320 C318 1.391 . S
C320 C321 1.400 1_545 S
C321 C315 1.491 1_565 S
C321 C320 1.400 1_565 S
C321 C322 1.398 . S
C322 H310 0.950 . S
C322 C321 1.398 . S
C322 C323 1.391 . S
C323 H311 0.950 . S
C323 C319 1.393 . S
C323 C322 1.391 . S
C93 C81 1.274 . S
C99 C5 1.258 . S
C113 C25 1.277 . S
C119 C11 1.289 . S
C133 C19 1.243 . S
C139 C33 1.251 . S
C153 C47 1.271 . S
C159 C39 1.263 . S
C173 C67 1.288 . S
C179 C53 1.276 . S
C193 C75 1.256 . S
C199 C61 1.240 . S
C213 C0 1.420 . S
C219 C42 1.409 . S
C233 C23 1.421 . S
C239 C65 1.434 . S
C253 C70 1.388 . S
C259 C28 1.394 . S
C273 C79 1.380 . S
C279 C37 1.393 . S
C293 C51 1.426 1_556 S
C299 C9 1.423 1_556 S
C313 C14 1.368 . S
C319 C56 1.382 . S
