# Generated by pormake.
# Topology vmf, (6)-cn, num edge types: 1
# Building blocks:
#     Node 0, Type 0, BuildingBlock: OJICUG_clean_sbu_0, # of connection points: 6
#     Node 1, Type 0, BuildingBlock: OJICUG_clean_sbu_0, # of connection points: 6
#     Node 2, Type 0, BuildingBlock: OJICUG_clean_sbu_0, # of connection points: 6
#     Node 3, Type 0, BuildingBlock: OJICUG_clean_sbu_0, # of connection points: 6
#     Node 4, Type 0, BuildingBlock: OJICUG_clean_sbu_0, # of connection points: 6
#     Node 5, Type 0, BuildingBlock: OJICUG_clean_sbu_0, # of connection points: 6
#     Node 6, Type 0, BuildingBlock: OJICUG_clean_sbu_0, # of connection points: 6
#     Node 7, Type 0, BuildingBlock: OJICUG_clean_sbu_0, # of connection points: 6
#     Edge 8, Type (0, 0), BuildingBlock: KIFKEQ_clean_linker_1, # of connection points: 2
#     Edge 9, Type (0, 0), BuildingBlock: KIFKEQ_clean_linker_1, # of connection points: 2
#     Edge 10, Type (0, 0), BuildingBlock: KIFKEQ_clean_linker_1, # of connection points: 2
#     Edge 11, Type (0, 0), BuildingBlock: KIFKEQ_clean_linker_1, # of connection points: 2
#     Edge 12, Type (0, 0), BuildingBlock: KIFKEQ_clean_linker_1, # of connection points: 2
#     Edge 13, Type (0, 0), BuildingBlock: KIFKEQ_clean_linker_1, # of connection points: 2
#     Edge 14, Type (0, 0), BuildingBlock: KIFKEQ_clean_linker_1, # of connection points: 2
#     Edge 15, Type (0, 0), BuildingBlock: KIFKEQ_clean_linker_1, # of connection points: 2
#     Edge 16, Type (0, 0), BuildingBlock: KIFKEQ_clean_linker_1, # of connection points: 2
#     Edge 17, Type (0, 0), BuildingBlock: KIFKEQ_clean_linker_1, # of connection points: 2
#     Edge 18, Type (0, 0), BuildingBlock: KIFKEQ_clean_linker_1, # of connection points: 2
#     Edge 19, Type (0, 0), BuildingBlock: KIFKEQ_clean_linker_1, # of connection points: 2
#     Edge 20, Type (0, 0), BuildingBlock: KIFKEQ_clean_linker_1, # of connection points: 2
#     Edge 21, Type (0, 0), BuildingBlock: KIFKEQ_clean_linker_1, # of connection points: 2
#     Edge 22, Type (0, 0), BuildingBlock: KIFKEQ_clean_linker_1, # of connection points: 2
#     Edge 23, Type (0, 0), BuildingBlock: KIFKEQ_clean_linker_1, # of connection points: 2
#     Edge 24, Type (0, 0), BuildingBlock: KIFKEQ_clean_linker_1, # of connection points: 2
#     Edge 25, Type (0, 0), BuildingBlock: KIFKEQ_clean_linker_1, # of connection points: 2
#     Edge 26, Type (0, 0), BuildingBlock: KIFKEQ_clean_linker_1, # of connection points: 2
#     Edge 27, Type (0, 0), BuildingBlock: KIFKEQ_clean_linker_1, # of connection points: 2
#     Edge 28, Type (0, 0), BuildingBlock: KIFKEQ_clean_linker_1, # of connection points: 2
#     Edge 29, Type (0, 0), BuildingBlock: KIFKEQ_clean_linker_1, # of connection points: 2
#     Edge 30, Type (0, 0), BuildingBlock: KIFKEQ_clean_linker_1, # of connection points: 2
#     Edge 31, Type (0, 0), BuildingBlock: KIFKEQ_clean_linker_1, # of connection points: 2
# Relax obj value: 0.306
# Max RMSD: 0.281
# Mean RMSD: 0.281
data_MOF--net-vmf--node1-OJICUG_clean_sbu_0--edge1-KIFKEQ_clean_linker_1
_symmetry_space_group_name_H-M    P1
_symmetry_Int_Tables_number       1
_symmetry_cell_setting            triclinic
loop_
_symmetry_equiv_pos_as_xyz
'x, y, z'
_cell_length_a     30.87734
_cell_length_b     45.637216
_cell_length_c     30.0544
_cell_angle_alpha  90.00866
_cell_angle_beta   105.58383
_cell_angle_gamma 89.956244
loop_
_atom_site_label
_atom_site_type_symbol
_atom_site_fract_x
_atom_site_fract_y
_atom_site_fract_z
_atom_type_partial_charge
Sc0 Sc 0.19676 0.3292 0.20021 0.0
Sc1 Sc 0.1798 0.26055 0.24559 0.0
Sc2 Sc 0.11576 0.32159 0.26225 0.0
O3 O 0.16432 0.30384 0.23651 0.0
C4 C 0.18206 0.37645 0.27305 0.0
C5 C 0.27712 0.2898 0.25262 0.0
C6 C 0.17537 0.28153 0.34539 0.0
C7 C 0.18355 0.26882 0.14379 0.0
C8 C 0.09288 0.34518 0.15709 0.0
C9 C 0.07454 0.25772 0.23793 0.0
O10 O 0.20255 0.36689 0.24463 0.0
O11 O 0.25087 0.26859 0.25464 0.0
O12 O 0.14774 0.30284 0.33136 0.0
O13 O 0.19569 0.29537 0.15066 0.0
O14 O 0.08051 0.33914 0.19354 0.0
O15 O 0.11121 0.24517 0.23755 0.0
O16 O 0.13371 0.34371 0.15593 0.0
O17 O 0.17178 0.25313 0.17344 0.0
O18 O 0.07217 0.28485 0.24531 0.0
O19 O 0.2627 0.3153 0.23915 0.0
O20 O 0.15044 0.36239 0.28291 0.0
O21 O 0.18986 0.2652 0.31823 0.0
Sc22 Sc 0.83617 0.32081 0.74034 0.0
Sc23 Sc 0.77482 0.2598 0.76277 0.0
Sc24 Sc 0.75603 0.32934 0.80266 0.0
O25 O 0.78884 0.30336 0.76791 0.0
C26 C 0.85954 0.34586 0.84484 0.0
C27 C 0.87958 0.25774 0.76793 0.0
C28 C 0.77102 0.27087 0.86345 0.0
C29 C 0.7769 0.27803 0.6609 0.0
C30 C 0.76967 0.37567 0.7283 0.0
C31 C 0.6769 0.28896 0.75384 0.0
O32 O 0.87143 0.34011 0.80795 0.0
O33 O 0.84347 0.24499 0.76962 0.0
O34 O 0.75614 0.2965 0.85267 0.0
O35 O 0.80408 0.29978 0.67311 0.0
O36 O 0.75109 0.36656 0.75843 0.0
O37 O 0.70372 0.26749 0.75519 0.0
O38 O 0.79996 0.36106 0.71675 0.0
O39 O 0.76294 0.2625 0.68942 0.0
O40 O 0.6907 0.3151 0.76303 0.0
O41 O 0.88109 0.28477 0.75927 0.0
O42 O 0.81898 0.34384 0.84674 0.0
O43 O 0.78538 0.25452 0.83623 0.0
Sc44 Sc 0.84213 0.64744 0.73384 0.0
Sc45 Sc 0.77845 0.70768 0.75346 0.0
Sc46 Sc 0.76418 0.63848 0.7991 0.0
O47 O 0.79466 0.66455 0.76176 0.0
C48 C 0.77755 0.59159 0.72641 0.0
C49 C 0.77979 0.68616 0.65223 0.0
C50 C 0.68212 0.67811 0.74851 0.0
C51 C 0.8809 0.71242 0.75336 0.0
C52 C 0.86928 0.62362 0.83845 0.0
C53 C 0.77814 0.69835 0.85673 0.0
O54 O 0.81071 0.60508 0.71877 0.0
O55 O 0.76881 0.70352 0.68055 0.0
O56 O 0.6973 0.65325 0.76453 0.0
O57 O 0.88268 0.68583 0.74232 0.0
O58 O 0.8283 0.62234 0.83933 0.0
O59 O 0.78595 0.71465 0.82552 0.0
O60 O 0.88103 0.63278 0.803 0.0
O61 O 0.84656 0.72367 0.76225 0.0
O62 O 0.7688 0.67129 0.85104 0.0
O63 O 0.8053 0.66368 0.66489 0.0
O64 O 0.75476 0.602 0.75208 0.0
O65 O 0.70763 0.6991 0.74367 0.0
Sc66 Sc 0.19839 0.63647 0.1907 0.0
Sc67 Sc 0.1787 0.70726 0.22636 0.0
Sc68 Sc 0.12152 0.6467 0.25658 0.0
O69 O 0.16648 0.66347 0.22515 0.0
C70 C 0.09461 0.6191 0.15364 0.0
C71 C 0.18096 0.69307 0.12548 0.0
C72 C 0.0754 0.70886 0.22535 0.0
C73 C 0.27722 0.67888 0.23586 0.0
C74 C 0.18873 0.59196 0.26878 0.0
C75 C 0.18029 0.69192 0.33117 0.0
O76 O 0.13496 0.61969 0.15066 0.0
O77 O 0.16865 0.71051 0.15273 0.0
O78 O 0.07627 0.68272 0.23944 0.0
O79 O 0.26395 0.65268 0.22616 0.0
O80 O 0.15769 0.60629 0.27939 0.0
O81 O 0.18983 0.7073 0.29972 0.0
O82 O 0.20728 0.60095 0.23857 0.0
O83 O 0.25009 0.70009 0.23526 0.0
O84 O 0.15671 0.66829 0.32244 0.0
O85 O 0.19467 0.66731 0.13694 0.0
O86 O 0.08378 0.62723 0.19016 0.0
O87 O 0.10951 0.72125 0.21766 0.0
Sc88 Sc 0.69961 0.83206 0.19481 0.0
Sc89 Sc 0.67957 0.76042 0.22688 0.0
Sc90 Sc 0.61925 0.81962 0.25594 0.0
O91 O 0.66646 0.80405 0.22648 0.0
C92 C 0.68533 0.87495 0.27291 0.0
C93 C 0.77821 0.78958 0.2409 0.0
C94 C 0.6773 0.77447 0.33095 0.0
C95 C 0.68577 0.77623 0.12788 0.0
C96 C 0.59544 0.84824 0.15401 0.0
C97 C 0.57555 0.75735 0.22188 0.0
O98 O 0.70664 0.8667 0.24454 0.0
O99 O 0.75111 0.76821 0.23881 0.0
O100 O 0.65339 0.79798 0.32206 0.0
O101 O 0.69848 0.80206 0.14032 0.0
O102 O 0.5832 0.83911 0.18919 0.0
O103 O 0.61044 0.74557 0.21497 0.0
O104 O 0.63649 0.84885 0.15316 0.0
O105 O 0.6723 0.75839 0.15375 0.0
O106 O 0.57538 0.7832 0.23682 0.0
O107 O 0.76489 0.81582 0.23153 0.0
O108 O 0.653 0.86033 0.28015 0.0
O109 O 0.68801 0.75949 0.29975 0.0
Sc110 Sc 0.34035 0.82133 0.73324 0.0
Sc111 Sc 0.27815 0.76013 0.75285 0.0
Sc112 Sc 0.26529 0.82831 0.80238 0.0
O113 O 0.2944 0.80325 0.76246 0.0
C114 C 0.36995 0.84415 0.83893 0.0
C115 C 0.38067 0.75654 0.75172 0.0
C116 C 0.27933 0.76739 0.85694 0.0
C117 C 0.27825 0.78231 0.65161 0.0
C118 C 0.2751 0.87658 0.72963 0.0
C119 C 0.18243 0.78971 0.75081 0.0
O120 O 0.38034 0.83657 0.80192 0.0
O121 O 0.34641 0.74473 0.76001 0.0
O122 O 0.27031 0.79452 0.85261 0.0
O123 O 0.3037 0.80476 0.66442 0.0
O124 O 0.25574 0.86594 0.75817 0.0
O125 O 0.20743 0.76875 0.74449 0.0
O126 O 0.30639 0.86313 0.71801 0.0
O127 O 0.26731 0.76494 0.67986 0.0
O128 O 0.19813 0.81421 0.76794 0.0
O129 O 0.38211 0.78337 0.74167 0.0
O130 O 0.3297 0.84366 0.8421 0.0
O131 O 0.28648 0.75167 0.82479 0.0
Sc132 Sc 0.33741 0.14791 0.74156 0.0
Sc133 Sc 0.2771 0.20708 0.77074 0.0
Sc134 Sc 0.25798 0.13548 0.8038 0.0
O135 O 0.29054 0.16348 0.77147 0.0
C136 C 0.27184 0.09232 0.72592 0.0
C137 C 0.27777 0.19248 0.66635 0.0
C138 C 0.17879 0.1777 0.75799 0.0
C139 C 0.38079 0.21049 0.77418 0.0
C140 C 0.36242 0.11939 0.84366 0.0
C141 C 0.27262 0.19146 0.87048 0.0
O142 O 0.30393 0.107 0.71826 0.0
O143 O 0.26745 0.20766 0.6976 0.0
O144 O 0.19233 0.15152 0.76759 0.0
O145 O 0.38104 0.18455 0.75968 0.0
O146 O 0.32147 0.11877 0.84489 0.0
O147 O 0.28543 0.2093 0.84411 0.0
O148 O 0.37429 0.12866 0.80832 0.0
O149 O 0.34599 0.22222 0.78138 0.0
O150 O 0.25979 0.16561 0.85831 0.0
O151 O 0.30225 0.16921 0.67535 0.0
O152 O 0.25058 0.10068 0.75427 0.0
O153 O 0.20575 0.19911 0.75978 0.0
Sc154 Sc 0.69402 0.13658 0.19418 0.0
Sc155 Sc 0.67671 0.20587 0.23748 0.0
Sc156 Sc 0.61826 0.14441 0.2624 0.0
O157 O 0.66323 0.16225 0.23178 0.0
C158 C 0.59014 0.1192 0.15766 0.0
C159 C 0.67788 0.19572 0.13505 0.0
C160 C 0.57313 0.2074 0.23588 0.0
C161 C 0.7744 0.17735 0.24356 0.0
C162 C 0.68533 0.08996 0.27021 0.0
C163 C 0.67805 0.18718 0.34064 0.0
O164 O 0.63019 0.12058 0.15396 0.0
O165 O 0.66757 0.21196 0.16493 0.0
O166 O 0.5734 0.1808 0.24774 0.0
O167 O 0.76031 0.15184 0.22976 0.0
O168 O 0.65473 0.10388 0.2823 0.0
O169 O 0.68775 0.20345 0.31037 0.0
O170 O 0.70315 0.09965 0.2398 0.0
O171 O 0.74793 0.19835 0.24628 0.0
O172 O 0.65367 0.16401 0.33009 0.0
O173 O 0.68981 0.1692 0.14233 0.0
O174 O 0.57985 0.12633 0.19493 0.0
O175 O 0.60766 0.22004 0.22955 0.0
H176 H 0.48862 0.1856 0.21311 0.0
H177 H 0.56234 0.26611 0.2526 0.0
H178 H 0.42068 0.20896 0.22149 0.0
H179 H 0.4935 0.28972 0.26154 0.0
H180 H 0.34042 0.3222 0.22501 0.0
H181 H 0.41414 0.30534 0.21983 0.0
H182 H 0.39687 0.22512 0.28918 0.0
H183 H 0.32331 0.24159 0.29378 0.0
C184 C 0.4902 0.20846 0.2232 0.0
C185 C 0.53101 0.22391 0.23268 0.0
C186 C 0.45128 0.22178 0.22843 0.0
C187 C 0.45196 0.25094 0.24353 0.0
C188 C 0.49203 0.26713 0.25021 0.0
C189 C 0.53133 0.25369 0.24483 0.0
C190 C 0.35282 0.30127 0.24018 0.0
C191 C 0.32555 0.28306 0.25923 0.0
C192 C 0.39507 0.29161 0.23707 0.0
C193 C 0.41082 0.26358 0.25299 0.0
C194 C 0.38512 0.24648 0.27537 0.0
C195 C 0.34303 0.25604 0.27835 0.0
H196 H 0.63213 0.23844 0.72172 0.0
H197 H 0.6127 0.32386 0.77546 0.0
H198 H 0.55884 0.22325 0.72875 0.0
H199 H 0.53917 0.30833 0.78307 0.0
H200 H 0.39081 0.26807 0.75141 0.0
H201 H 0.46033 0.29064 0.74238 0.0
H202 H 0.53418 0.21258 0.79843 0.0
H203 H 0.46541 0.19021 0.8067 0.0
C204 C 0.61197 0.25417 0.73438 0.0
C205 C 0.6287 0.28225 0.74858 0.0
C206 C 0.57006 0.24537 0.7388 0.0
C207 C 0.54375 0.26433 0.75771 0.0
C208 C 0.55878 0.29317 0.76865 0.0
C209 C 0.60089 0.30206 0.76413 0.0
C210 C 0.42223 0.2562 0.76295 0.0
C211 C 0.42274 0.22734 0.77943 0.0
C212 C 0.4619 0.26899 0.75746 0.0
C213 C 0.50246 0.25303 0.76841 0.0
C214 C 0.50326 0.2251 0.78826 0.0
C215 C 0.46394 0.2124 0.79352 0.0
H216 H 0.41525 0.75578 0.67904 0.0
H217 H 0.43157 0.71669 0.81317 0.0
H218 H 0.48336 0.73178 0.67206 0.0
H219 H 0.50171 0.69334 0.80733 0.0
H220 H 0.61775 0.64431 0.77205 0.0
H221 H 0.54066 0.65851 0.7693 0.0
H222 H 0.56034 0.74097 0.70687 0.0
H223 H 0.63617 0.72662 0.7084 0.0
C224 C 0.43354 0.74184 0.70702 0.0
C225 C 0.41865 0.73834 0.7469 0.0
C226 C 0.47272 0.72821 0.70316 0.0
C227 C 0.49871 0.71115 0.73954 0.0
C228 C 0.48246 0.70627 0.77857 0.0
C229 C 0.44247 0.71966 0.78209 0.0
C230 C 0.60523 0.6652 0.7568 0.0
C231 C 0.63334 0.68432 0.74045 0.0
C232 C 0.56118 0.67346 0.75573 0.0
C233 C 0.54419 0.70092 0.73802 0.0
C234 C 0.57185 0.71946 0.72015 0.0
C235 C 0.61565 0.71126 0.72122 0.0
H236 H 0.32095 0.72989 0.26741 0.0
H237 H 0.34238 0.64424 0.2156 0.0
H238 H 0.39464 0.74522 0.26178 0.0
H239 H 0.41624 0.65993 0.20932 0.0
H240 H 0.56445 0.69982 0.24392 0.0
H241 H 0.49413 0.67749 0.25108 0.0
H242 H 0.42178 0.75586 0.194 0.0
H243 H 0.4914 0.77803 0.1877 0.0
C244 C 0.34158 0.71416 0.25541 0.0
C245 C 0.32535 0.68595 0.24141 0.0
C246 C 0.38374 0.72305 0.25178 0.0
C247 C 0.41077 0.70403 0.23388 0.0
C248 C 0.3961 0.67513 0.22299 0.0
C249 C 0.35377 0.66616 0.22672 0.0
C250 C 0.53321 0.71181 0.23176 0.0
C251 C 0.53332 0.7407 0.21556 0.0
C252 C 0.49307 0.69916 0.23617 0.0
C253 C 0.45265 0.71527 0.22438 0.0
C254 C 0.45255 0.74323 0.20483 0.0
C255 C 0.49234 0.75581 0.20068 0.0
H256 H -0.00884 0.68697 0.19904 0.0
H257 H 0.06405 0.76712 0.24369 0.0
H258 H 0.92245 0.70968 0.20676 0.0
H259 H -0.00537 0.79003 0.25232 0.0
H260 H 0.84276 0.82297 0.21742 0.0
H261 H 0.91651 0.80643 0.21193 0.0
H262 H 0.89647 0.72374 0.27329 0.0
H263 H 0.82276 0.73989 0.27792 0.0
C264 C -0.00768 0.70965 0.21002 0.0
C265 C 0.03305 0.7252 0.2211 0.0
C266 C 0.95301 0.72258 0.21496 0.0
C267 C 0.95331 0.75139 0.23153 0.0
C268 C -0.00661 0.76772 0.23979 0.0
C269 C 0.03303 0.7547 0.23457 0.0
C270 C 0.85455 0.80152 0.23075 0.0
C271 C 0.82652 0.78259 0.24754 0.0
C272 C 0.89681 0.79203 0.22745 0.0
C273 C 0.91184 0.76349 0.24099 0.0
C274 C 0.88529 0.74554 0.2612 0.0
C275 C 0.84315 0.75491 0.26426 0.0
H276 H 0.93339 0.75026 0.81711 0.0
H277 H 0.91316 0.71593 0.67935 0.0
H278 H 0.00363 0.77357 0.81166 0.0
H279 H -0.01845 0.73983 0.67296 0.0
H280 H 0.13491 0.74233 0.70833 0.0
H281 H 0.05874 0.72859 0.70669 0.0
H282 H 0.04234 0.80962 0.77473 0.0
H283 H 0.11956 0.82324 0.77737 0.0
C284 C 0.94341 0.74841 0.78535 0.0
C285 C 0.91846 0.73106 0.7489 0.0
C286 C -0.01653 0.76174 0.78207 0.0
C287 C -0.0013 0.75808 0.74213 0.0
C288 C 0.9716 0.74244 0.70466 0.0
C289 C 0.93228 0.72891 0.70819 0.0
C290 C 0.11501 0.75751 0.72235 0.0
C291 C 0.13361 0.78388 0.74305 0.0
C292 C 0.07107 0.74967 0.72124 0.0
C293 C 0.04428 0.76799 0.74065 0.0
C294 C 0.0622 0.79488 0.75993 0.0
C295 C 0.10633 0.8028 0.76096 0.0
H296 H 0.96448 0.27786 0.80088 0.0
H297 H 0.88999 0.20025 0.74409 0.0
H298 H 0.03358 0.25513 0.79439 0.0
H299 H 0.96005 0.17729 0.73717 0.0
H300 H 0.13484 0.22791 0.72271 0.0
H301 H 0.06051 0.24355 0.72597 0.0
H302 H 0.03843 0.15946 0.78183 0.0
H303 H 0.11312 0.14347 0.77812 0.0
C304 C 0.96298 0.25571 0.78751 0.0
C305 C 0.92168 0.24097 0.77255 0.0
C306 C 0.00257 0.24278 0.78339 0.0
C307 C 0.00209 0.21475 0.764 0.0
C308 C 0.96137 0.19903 0.75192 0.0
C309 C 0.92137 0.21207 0.75614 0.0
C310 C 0.11398 0.21249 0.73495 0.0
C311 C 0.13033 0.18457 0.75076 0.0
C312 C 0.07143 0.22154 0.73713 0.0
C313 C 0.04407 0.203 0.75533 0.0
C314 C 0.05883 0.17428 0.76788 0.0
C315 C 0.10161 0.16514 0.76562 0.0
H316 H -0.01042 0.27724 0.20281 0.0
H317 H 0.06439 0.20026 0.26243 0.0
H318 H 0.92028 0.25432 0.20807 0.0
H319 H -0.00602 0.17706 0.26786 0.0
H320 H 0.84009 0.14337 0.22255 0.0
H321 H 0.91513 0.15924 0.21998 0.0
H322 H 0.89323 0.24282 0.27754 0.0
H323 H 0.81865 0.2273 0.27995 0.0
C324 C -0.00886 0.25519 0.21655 0.0
C325 C 0.03259 0.24071 0.23275 0.0
C326 C 0.9514 0.24215 0.21989 0.0
C327 C 0.95184 0.21424 0.2396 0.0
C328 C -0.00726 0.19872 0.25286 0.0
C329 C 0.03293 0.2119 0.2495 0.0
C330 C 0.85164 0.1649 0.23561 0.0
C331 C 0.82291 0.18422 0.25081 0.0
C332 C 0.89465 0.17396 0.23406 0.0
C333 C 0.9096 0.20249 0.24753 0.0
C334 C 0.88218 0.22093 0.26583 0.0
C335 C 0.83945 0.21194 0.26746 0.0
H336 H 0.94948 0.36183 0.86126 0.0
H337 H 0.84804 0.34178 0.93138 0.0
H338 H 0.00502 0.36699 0.93606 0.0
H339 H 0.90313 0.34485 0.00496 0.0
H340 H 0.00394 0.36327 0.14005 0.0
H341 H 0.94891 0.36897 0.06509 0.0
H342 H 0.04946 0.34241 0.99692 0.0
H343 H 0.10427 0.3388 0.07083 0.0
C344 C 0.93894 0.3586 0.89249 0.0
C345 C 0.89399 0.35157 0.88978 0.0
C346 C 0.97097 0.36122 0.93572 0.0
C347 C 0.95926 0.35619 0.97757 0.0
C348 C 0.91402 0.34963 0.97441 0.0
C349 C 0.88208 0.34765 0.93155 0.0
C350 C 0.0143 0.35911 0.10894 0.0
C351 C 0.05879 0.35075 0.11191 0.0
C352 C -0.01744 0.36207 0.06562 0.0
C353 C -0.00598 0.35599 0.02394 0.0
C354 C 0.03883 0.34801 0.02734 0.0
C355 C 0.07057 0.34572 0.07033 0.0
H356 H 0.10621 0.59473 0.07439 0.0
H357 H 0.00302 0.62986 0.1319 0.0
H358 H 0.05299 0.59278 -0.00157 0.0
H359 H 0.94947 0.6278 0.05532 0.0
H360 H 0.85504 0.60044 0.91739 0.0
H361 H 0.90764 0.59578 0.99324 0.0
H362 H 0.01455 0.62762 0.93863 0.0
H363 H 0.96159 0.63237 0.86198 0.0
C364 C 0.07193 0.60165 0.07114 0.0
C365 C 0.05919 0.61253 0.10977 0.0
C366 C 0.04145 0.60078 0.0272 0.0
C367 C -0.00303 0.61052 0.02027 0.0
C368 C -0.0166 0.61998 0.05922 0.0
C369 C 0.01411 0.62104 0.10336 0.0
C370 C 0.88984 0.60623 0.92107 0.0
C371 C 0.90377 0.6169 0.883 0.0
C372 C 0.92003 0.60373 0.965 0.0
C373 C 0.96538 0.61159 0.97253 0.0
C374 C -0.02009 0.62117 0.93422 0.0
C375 C 0.94952 0.62386 0.89009 0.0
H376 H 0.50336 0.83971 0.13119 0.0
H377 H 0.60963 0.8698 0.07387 0.0
H378 H 0.4506 0.84202 0.05434 0.0
H379 H 0.55704 0.87205 0.99751 0.0
H380 H 0.46184 0.83348 0.86139 0.0
H381 H 0.51568 0.83806 0.93769 0.0
H382 H 0.41154 0.87458 0.9922 0.0
H383 H 0.35819 0.87007 0.91679 0.0
C384 C 0.51538 0.84744 0.10259 0.0
C385 C 0.56102 0.85457 0.10926 0.0
C386 C 0.48508 0.84868 0.05829 0.0
C387 C 0.49954 0.85693 0.01931 0.0
C388 C 0.54474 0.86509 0.02633 0.0
C389 C 0.57488 0.86405 0.0705 0.0
C390 C 0.45067 0.84304 0.88939 0.0
C391 C 0.4054 0.85122 0.88256 0.0
C392 C 0.48153 0.8456 0.93331 0.0
C393 C 0.4679 0.85632 0.97156 0.0
C394 C 0.42317 0.86565 0.96407 0.0
C395 C 0.39257 0.86323 0.92042 0.0
H396 H 0.6014 0.09445 0.07864 0.0
H397 H 0.49821 0.12915 0.13648 0.0
H398 H 0.54756 0.09098 0.00327 0.0
H399 H 0.44394 0.12566 0.06036 0.0
H400 H 0.34887 0.09671 0.92339 0.0
H401 H 0.40201 0.09311 -0.00074 0.0
H402 H 0.50797 0.12418 0.94254 0.0
H403 H 0.45461 0.12779 0.86611 0.0
C404 C 0.56701 0.10102 0.07557 0.0
C405 C 0.55445 0.1122 0.11413 0.0
C406 C 0.53611 0.09925 0.03194 0.0
C407 C 0.49136 0.10841 0.02517 0.0
C408 C 0.47805 0.11824 0.06411 0.0
C409 C 0.50917 0.12015 0.10797 0.0
C410 C 0.38361 0.10244 0.92665 0.0
C411 C 0.39714 0.11258 0.88804 0.0
C412 C 0.4141 0.10061 0.97057 0.0
C413 C 0.45936 0.10863 0.97753 0.0
C414 C 0.47347 0.11759 0.93866 0.0
C415 C 0.44282 0.1196 0.8946 0.0
H416 H 0.15511 0.56182 0.33182 0.0
H417 H 0.24616 0.55301 0.24568 0.0
H418 H 0.16205 0.50942 0.34841 0.0
H419 H 0.25094 0.50104 0.25972 0.0
H420 H 0.26066 0.40721 0.28714 0.0
H421 H 0.27166 0.45947 0.30263 0.0
H422 H 0.13392 0.46684 0.30963 0.0
H423 H 0.12432 0.41447 0.2974 0.0
C424 C 0.17709 0.54885 0.31694 0.0
C425 C 0.19948 0.56169 0.28682 0.0
C426 C 0.18073 0.51867 0.32605 0.0
C427 C 0.20637 0.50056 0.30477 0.0
C428 C 0.2312 0.51393 0.27734 0.0
C429 C 0.22812 0.54401 0.26886 0.0
C430 C 0.23318 0.41997 0.29317 0.0
C431 C 0.19151 0.40678 0.29055 0.0
C432 C 0.23927 0.45004 0.30164 0.0
C433 C 0.20339 0.46784 0.30632 0.0
C434 C 0.16263 0.45413 0.3067 0.0
C435 C 0.15694 0.42395 0.29938 0.0
H436 H 0.69882 0.56075 0.71112 0.0
H437 H 0.83624 0.5533 0.70417 0.0
H438 H 0.68803 0.50848 0.69559 0.0
H439 H 0.82663 0.50096 0.69164 0.0
H440 H 0.80436 0.40624 0.66651 0.0
H441 H 0.79815 0.45878 0.65101 0.0
H442 H 0.70855 0.46677 0.73901 0.0
H443 H 0.71274 0.41467 0.75212 0.0
C444 C 0.72661 0.54797 0.70586 0.0
C445 C 0.76851 0.56111 0.70942 0.0
C446 C 0.7206 0.5179 0.6973 0.0
C447 C 0.7567 0.50009 0.69332 0.0
C448 C 0.79777 0.51372 0.69399 0.0
C449 C 0.80345 0.54388 0.70152 0.0
C450 C 0.78243 0.41915 0.68151 0.0
C451 C 0.75965 0.40617 0.71116 0.0
C452 C 0.77918 0.4494 0.67301 0.0
C453 C 0.7535 0.4674 0.69438 0.0
C454 C 0.72834 0.45393 0.72137 0.0
C455 C 0.73109 0.42379 0.72931 0.0
H456 H 0.62674 0.91148 0.29925 0.0
H457 H 0.76346 0.90636 0.28942 0.0
H458 H 0.63479 0.96394 0.31194 0.0
H459 H 0.77267 0.95871 0.30488 0.0
H460 H 0.74176 0.05141 0.2444 0.0
H461 H 0.74854 -0.00054 0.25921 0.0
H462 H 0.66284 0.00699 0.35125 0.0
H463 H 0.65423 0.05931 0.33441 0.0
C464 C 0.65914 0.9214 0.30156 0.0
C465 C 0.69422 0.90484 0.29253 0.0
C466 C 0.66389 0.95163 0.30904 0.0
C467 C 0.70414 0.96594 0.30846 0.0
C468 C 0.74066 0.94873 0.30404 0.0
C469 C 0.73559 0.91862 0.29561 0.0
C470 C 0.72489 0.04223 0.26847 0.0
C471 C 0.69676 0.05962 0.28751 0.0
C472 C 0.72913 0.01221 0.27737 0.0
C473 C 0.70585 -0.00136 0.30613 0.0
C474 C 0.68046 0.01645 0.32806 0.0
C475 C 0.6758 0.04656 0.31871 0.0
H476 H 0.30545 0.90787 0.6656 0.0
H477 H 0.22033 0.91507 0.75814 0.0
H478 H 0.29617 0.96021 0.64919 0.0
H479 H 0.21289 0.96709 0.74371 0.0
H480 H 0.19472 0.06 0.71173 0.0
H481 H 0.18679 0.00745 0.69764 0.0
H482 H 0.32382 0.0036 0.68759 0.0
H483 H 0.33057 0.05621 0.69896 0.0
C484 C 0.28437 0.9205 0.68206 0.0
C485 C 0.2641 0.90721 0.71363 0.0
C486 C 0.27929 0.95061 0.67291 0.0
C487 C 0.25421 0.96821 0.69548 0.0
C488 C 0.23194 0.95447 0.72499 0.0
C489 C 0.23656 0.92443 0.73366 0.0
C490 C 0.22266 0.04799 0.70518 0.0
C491 C 0.26343 0.06222 0.70703 0.0
C492 C 0.21833 0.01777 0.69755 0.0
C493 C 0.25503 0.00092 0.69268 0.0
C494 C 0.29462 0.01563 0.69089 0.0
C495 C 0.29861 0.04595 0.69759 0.0
H496 H 0.29741 0.17432 0.58545 0.0
H497 H 0.21891 0.23756 0.63758 0.0
H498 H 0.27171 0.19684 0.50876 0.0
H499 H 0.19524 0.2604 0.56273 0.0
H500 H 0.12748 0.28083 0.41068 0.0
H501 H 0.15011 0.2574 0.48673 0.0
H502 H 0.28131 0.23942 0.46735 0.0
H503 H 0.25804 0.26185 0.39127 0.0
C504 C 0.27471 0.19285 0.58071 0.0
C505 C 0.26066 0.20402 0.61815 0.0
C506 C 0.26024 0.20604 0.5368 0.0
C507 C 0.23145 0.23074 0.52926 0.0
C508 C 0.21678 0.24132 0.56656 0.0
C509 C 0.23092 0.22817 0.61 0.0
C510 C 0.16142 0.27246 0.42325 0.0
C511 C 0.19096 0.27335 0.39503 0.0
C512 C 0.17446 0.25879 0.46678 0.0
C513 C 0.21753 0.24597 0.48329 0.0
C514 C 0.24755 0.24818 0.45563 0.0
C515 C 0.2344 0.26151 0.41218 0.0
H516 H 0.82533 0.27622 0.59641 0.0
H517 H 0.6953 0.25589 0.61588 0.0
H518 H 0.80436 0.25136 0.52171 0.0
H519 H 0.67324 0.23232 0.54055 0.0
H520 H 0.65652 0.16866 0.42062 0.0
H521 H 0.68158 0.19072 0.49778 0.0
H522 H 0.76186 0.25302 0.44637 0.0
H523 H 0.7394 0.23036 0.37164 0.0
C524 C 0.79179 0.26721 0.58407 0.0
C525 C 0.76194 0.26826 0.61193 0.0
C526 C 0.77963 0.25276 0.5412 0.0
C527 C 0.73697 0.23938 0.52471 0.0
C528 C 0.7067 0.24151 0.55215 0.0
C529 C 0.71912 0.25551 0.59517 0.0
C530 C 0.68011 0.18671 0.42618 0.0
C531 C 0.69548 0.19765 0.38944 0.0
C532 C 0.69415 0.1997 0.47033 0.0
C533 C 0.72371 0.22402 0.47874 0.0
C534 C 0.73978 0.23422 0.44212 0.0
C535 C 0.72627 0.22119 0.39861 0.0
H536 H 0.66387 0.79576 0.41311 0.0
H537 H 0.72684 0.72496 0.35786 0.0
H538 H 0.68891 0.77331 0.48992 0.0
H539 H 0.74983 0.70243 0.43286 0.0
H540 H 0.82274 0.68189 0.58322 0.0
H541 H 0.79951 0.70476 0.50682 0.0
H542 H 0.67533 0.73282 0.53402 0.0
H543 H 0.69933 0.71088 0.61044 0.0
C544 C 0.68292 0.77555 0.41715 0.0
C545 C 0.69311 0.76239 0.37889 0.0
C546 C 0.69704 0.76247 0.46115 0.0
C547 C 0.72151 0.73587 0.46789 0.0
C548 C 0.73188 0.72305 0.42963 0.0
C549 C 0.71815 0.73607 0.38612 0.0
C550 C 0.79012 0.69239 0.57235 0.0
C551 C 0.76286 0.69444 0.60279 0.0
C552 C 0.77676 0.70571 0.52862 0.0
C553 C 0.7356 0.72112 0.51414 0.0
C554 C 0.70768 0.72196 0.54411 0.0
C555 C 0.7212 0.70895 0.58778 0.0
H556 H 0.19804 0.75762 0.60861 0.0
H557 H 0.32273 0.78594 0.58382 0.0
H558 H 0.17556 0.73508 0.53252 0.0
H559 H 0.30119 0.76239 0.50796 0.0
H560 H 0.2324 0.74031 0.35861 0.0
H561 H 0.2542 0.76347 0.43321 0.0
H562 H 0.18914 0.69441 0.48953 0.0
H563 H 0.16511 0.67151 0.41304 0.0
C564 C 0.2205 0.7593 0.58652 0.0
C565 C 0.26205 0.77384 0.60213 0.0
C566 C 0.20788 0.74592 0.54306 0.0
C567 C 0.23666 0.74632 0.51391 0.0
C568 C 0.27773 0.76175 0.52899 0.0
C569 C 0.29013 0.77548 0.57246 0.0
C570 C 0.22256 0.72975 0.38665 0.0
C571 C 0.19652 0.70387 0.37922 0.0
C572 C 0.23561 0.74312 0.42997 0.0
C573 C 0.22361 0.73107 0.46792 0.0
C574 C 0.19846 0.70475 0.46104 0.0
C575 C 0.18499 0.69136 0.41722 0.0
H576 H 0.17131 0.29348 0.05926 0.0
H577 H 0.21341 0.21375 0.13614 0.0
H578 H 0.1966 0.27398 0.99501 0.0
H579 H 0.24092 0.19475 0.07319 0.0
H580 H 0.24353 0.15927 0.93283 0.0
H581 H 0.21931 0.17703 -0.00231 0.0
H582 H 0.26522 0.26407 0.97611 0.0
H583 H 0.28733 0.2465 0.90871 0.0
C584 C 0.18552 0.27162 0.06202 0.0
C585 C 0.19021 0.25496 0.10225 0.0
C586 C 0.2007 0.26065 0.02568 0.0
C587 C 0.22158 0.23306 0.02936 0.0
C588 C 0.22465 0.21599 0.06905 0.0
C589 C 0.20867 0.22674 0.10502 0.0
C590 C 0.24897 0.1822 0.94196 0.0
C591 C 0.26674 0.20161 0.91504 0.0
C592 C 0.23522 0.19234 0.97952 0.0
C593 C 0.23968 0.22204 0.9917 0.0
C594 C 0.2602 0.24117 0.96673 0.0
C595 C 0.27344 0.23106 0.92853 0.0
H596 H 0.65919 0.17274 0.04863 0.0
H597 H 0.71729 0.24775 0.1305 0.0
H598 H 0.68674 0.19073 0.98477 0.0
H599 H 0.74781 0.26466 0.06875 0.0
H600 H 0.75536 0.30287 0.93318 0.0
H601 H 0.73005 0.28542 0.99719 0.0
H602 H 0.75315 0.19599 0.96126 0.0
H603 H 0.77534 0.21373 0.89383 0.0
C604 C 0.6773 0.19332 0.05248 0.0
C605 C 0.68548 0.20925 0.09379 0.0
C606 C 0.69393 0.2033 0.01646 0.0
C607 C 0.72005 0.22895 0.02177 0.0
C608 C 0.72719 0.24512 0.06297 0.0
C609 C 0.70948 0.23558 0.09835 0.0
C610 C 0.7554 0.27942 0.93889 0.0
C611 C 0.76644 0.25961 0.90781 0.0
C612 C 0.7412 0.26939 0.97611 0.0
C613 C 0.73891 0.23926 0.98418 0.0
C614 C 0.75329 0.21937 0.95519 0.0
C615 C 0.76676 0.22947 0.91706 0.0
H616 H 0.74981 0.75371 0.86532 0.0
H617 H 0.78977 0.67333 0.94129 0.0
H618 H 0.72248 0.77274 0.92811 0.0
H619 H 0.7645 0.69295 0.00551 0.0
H620 H 0.67117 0.72127 0.08941 0.0
H621 H 0.69521 0.70345 0.02328 0.0
H622 H 0.7439 0.79006 0.00378 0.0
H623 H 0.71782 0.8081 0.06731 0.0
C624 C 0.75416 0.74053 0.8962 0.0
C625 C 0.77187 0.7121 0.89861 0.0
C626 C 0.73828 0.75136 0.93213 0.0
C627 C 0.7407 0.73416 0.97153 0.0
C628 C 0.76096 0.70638 0.97503 0.0
C629 C 0.7761 0.69533 0.93869 0.0
C630 C 0.68611 0.73657 0.07029 0.0
C631 C 0.69292 0.76599 0.08393 0.0
C632 C 0.70047 0.7263 0.03287 0.0
C633 C 0.72221 0.74525 0.00883 0.0
C634 C 0.72702 0.77491 0.02124 0.0
C635 C 0.71215 0.78522 0.05799 0.0
H636 H 0.19652 0.65992 0.05654 0.0
H637 H 0.17737 0.7497 0.0935 0.0
H638 H 0.22357 0.67652 0.99289 0.0
H639 H 0.20168 0.76648 0.02695 0.0
H640 H 0.29936 0.78858 0.94454 0.0
H641 H 0.27061 0.77019 0.00726 0.0
H642 H 0.2082 0.69764 0.92079 0.0
H643 H 0.23942 0.71509 0.85973 0.0
C644 C 0.19697 0.68329 0.05035 0.0
C645 C 0.18572 0.70355 0.08071 0.0
C646 C 0.2123 0.69282 0.01347 0.0
C647 C 0.21571 0.72286 0.00528 0.0
C648 C 0.20081 0.74316 0.03328 0.0
C649 C 0.18612 0.73358 0.0709 0.0
C650 C 0.28066 0.76821 0.93978 0.0
C651 C 0.27194 0.75301 0.89775 0.0
C652 C 0.26339 0.75799 0.9752 0.0
C653 C 0.23626 0.73278 0.96873 0.0
C654 C 0.22929 0.71697 0.92723 0.0
C655 C 0.24745 0.72681 0.89228 0.0
loop_
_geom_bond_atom_site_label_1
_geom_bond_atom_site_label_2
_geom_bond_distance
_geom_bond_site_symmetry_2
_ccdc_geom_bond_type
Sc0 O3 2.025 . S
Sc0 O10 2.105 . S
Sc0 O13 2.105 . S
Sc0 O16 2.105 . S
Sc0 O19 2.105 . S
Sc1 O3 2.025 . S
Sc1 O11 2.105 . S
Sc1 O15 2.105 . S
Sc1 O17 2.105 . S
Sc1 O21 2.105 . S
Sc2 O3 2.025 . S
Sc2 O12 2.105 . S
Sc2 O14 2.105 . S
Sc2 O18 2.105 . S
Sc2 O20 2.105 . S
O3 Sc0 2.025 . S
O3 Sc1 2.025 . S
O3 Sc2 2.025 . S
C4 O10 1.268 . S
C4 O20 1.268 . S
C5 O11 1.268 . S
C5 O19 1.268 . S
C6 O12 1.268 . S
C6 O21 1.268 . S
C7 O13 1.268 . S
C7 O17 1.268 . S
C8 O14 1.268 . S
C8 O16 1.268 . S
C9 O15 1.268 . S
C9 O18 1.268 . S
O10 Sc0 2.105 . S
O10 C4 1.268 . S
O11 Sc1 2.105 . S
O11 C5 1.268 . S
O12 Sc2 2.105 . S
O12 C6 1.268 . S
O13 Sc0 2.105 . S
O13 C7 1.268 . S
O14 Sc2 2.105 . S
O14 C8 1.268 . S
O15 Sc1 2.105 . S
O15 C9 1.268 . S
O16 Sc0 2.105 . S
O16 C8 1.268 . S
O17 Sc1 2.105 . S
O17 C7 1.268 . S
O18 Sc2 2.105 . S
O18 C9 1.268 . S
O19 Sc0 2.105 . S
O19 C5 1.268 . S
O20 Sc2 2.105 . S
O20 C4 1.268 . S
O21 Sc1 2.105 . S
O21 C6 1.268 . S
Sc22 O25 2.025 . S
Sc22 O32 2.105 . S
Sc22 O35 2.105 . S
Sc22 O38 2.105 . S
Sc22 O41 2.105 . S
Sc23 O25 2.025 . S
Sc23 O33 2.105 . S
Sc23 O37 2.105 . S
Sc23 O39 2.105 . S
Sc23 O43 2.105 . S
Sc24 O25 2.025 . S
Sc24 O34 2.105 . S
Sc24 O36 2.105 . S
Sc24 O40 2.105 . S
Sc24 O42 2.105 . S
O25 Sc22 2.025 . S
O25 Sc23 2.025 . S
O25 Sc24 2.025 . S
C26 O32 1.268 . S
C26 O42 1.268 . S
C27 O33 1.268 . S
C27 O41 1.268 . S
C28 O34 1.268 . S
C28 O43 1.268 . S
C29 O35 1.268 . S
C29 O39 1.268 . S
C30 O36 1.268 . S
C30 O38 1.268 . S
C31 O37 1.268 . S
C31 O40 1.268 . S
O32 Sc22 2.105 . S
O32 C26 1.268 . S
O33 Sc23 2.105 . S
O33 C27 1.268 . S
O34 Sc24 2.105 . S
O34 C28 1.268 . S
O35 Sc22 2.105 . S
O35 C29 1.268 . S
O36 Sc24 2.105 . S
O36 C30 1.268 . S
O37 Sc23 2.105 . S
O37 C31 1.268 . S
O38 Sc22 2.105 . S
O38 C30 1.268 . S
O39 Sc23 2.105 . S
O39 C29 1.268 . S
O40 Sc24 2.105 . S
O40 C31 1.268 . S
O41 Sc22 2.105 . S
O41 C27 1.268 . S
O42 Sc24 2.105 . S
O42 C26 1.268 . S
O43 Sc23 2.105 . S
O43 C28 1.268 . S
Sc44 O47 2.025 . S
Sc44 O54 2.105 . S
Sc44 O57 2.105 . S
Sc44 O60 2.105 . S
Sc44 O63 2.105 . S
Sc45 O47 2.025 . S
Sc45 O55 2.105 . S
Sc45 O59 2.105 . S
Sc45 O61 2.105 . S
Sc45 O65 2.105 . S
Sc46 O47 2.025 . S
Sc46 O56 2.105 . S
Sc46 O58 2.105 . S
Sc46 O62 2.105 . S
Sc46 O64 2.105 . S
O47 Sc44 2.025 . S
O47 Sc45 2.025 . S
O47 Sc46 2.025 . S
C48 O54 1.268 . S
C48 O64 1.268 . S
C49 O55 1.268 . S
C49 O63 1.268 . S
C50 O56 1.268 . S
C50 O65 1.268 . S
C51 O57 1.268 . S
C51 O61 1.268 . S
C52 O58 1.268 . S
C52 O60 1.268 . S
C53 O59 1.268 . S
C53 O62 1.268 . S
O54 Sc44 2.105 . S
O54 C48 1.268 . S
O55 Sc45 2.105 . S
O55 C49 1.268 . S
O56 Sc46 2.105 . S
O56 C50 1.268 . S
O57 Sc44 2.105 . S
O57 C51 1.268 . S
O58 Sc46 2.105 . S
O58 C52 1.268 . S
O59 Sc45 2.105 . S
O59 C53 1.268 . S
O60 Sc44 2.105 . S
O60 C52 1.268 . S
O61 Sc45 2.105 . S
O61 C51 1.268 . S
O62 Sc46 2.105 . S
O62 C53 1.268 . S
O63 Sc44 2.105 . S
O63 C49 1.268 . S
O64 Sc46 2.105 . S
O64 C48 1.268 . S
O65 Sc45 2.105 . S
O65 C50 1.268 . S
Sc66 O69 2.025 . S
Sc66 O76 2.105 . S
Sc66 O79 2.105 . S
Sc66 O82 2.105 . S
Sc66 O85 2.105 . S
Sc67 O69 2.025 . S
Sc67 O77 2.105 . S
Sc67 O81 2.105 . S
Sc67 O83 2.105 . S
Sc67 O87 2.105 . S
Sc68 O69 2.025 . S
Sc68 O78 2.105 . S
Sc68 O80 2.105 . S
Sc68 O84 2.105 . S
Sc68 O86 2.105 . S
O69 Sc66 2.025 . S
O69 Sc67 2.025 . S
O69 Sc68 2.025 . S
C70 O76 1.268 . S
C70 O86 1.268 . S
C71 O77 1.268 . S
C71 O85 1.268 . S
C72 O78 1.268 . S
C72 O87 1.268 . S
C73 O79 1.268 . S
C73 O83 1.268 . S
C74 O80 1.268 . S
C74 O82 1.268 . S
C75 O81 1.268 . S
C75 O84 1.268 . S
O76 Sc66 2.105 . S
O76 C70 1.268 . S
O77 Sc67 2.105 . S
O77 C71 1.268 . S
O78 Sc68 2.105 . S
O78 C72 1.268 . S
O79 Sc66 2.105 . S
O79 C73 1.268 . S
O80 Sc68 2.105 . S
O80 C74 1.268 . S
O81 Sc67 2.105 . S
O81 C75 1.268 . S
O82 Sc66 2.105 . S
O82 C74 1.268 . S
O83 Sc67 2.105 . S
O83 C73 1.268 . S
O84 Sc68 2.105 . S
O84 C75 1.268 . S
O85 Sc66 2.105 . S
O85 C71 1.268 . S
O86 Sc68 2.105 . S
O86 C70 1.268 . S
O87 Sc67 2.105 . S
O87 C72 1.268 . S
Sc88 O91 2.025 . S
Sc88 O98 2.105 . S
Sc88 O101 2.105 . S
Sc88 O104 2.105 . S
Sc88 O107 2.105 . S
Sc89 O91 2.025 . S
Sc89 O99 2.105 . S
Sc89 O103 2.105 . S
Sc89 O105 2.105 . S
Sc89 O109 2.105 . S
Sc90 O91 2.025 . S
Sc90 O100 2.105 . S
Sc90 O102 2.105 . S
Sc90 O106 2.105 . S
Sc90 O108 2.105 . S
O91 Sc88 2.025 . S
O91 Sc89 2.025 . S
O91 Sc90 2.025 . S
C92 O98 1.268 . S
C92 O108 1.268 . S
C93 O99 1.268 . S
C93 O107 1.268 . S
C94 O100 1.268 . S
C94 O109 1.268 . S
C95 O101 1.268 . S
C95 O105 1.268 . S
C96 O102 1.268 . S
C96 O104 1.268 . S
C97 O103 1.268 . S
C97 O106 1.268 . S
O98 Sc88 2.105 . S
O98 C92 1.268 . S
O99 Sc89 2.105 . S
O99 C93 1.268 . S
O100 Sc90 2.105 . S
O100 C94 1.268 . S
O101 Sc88 2.105 . S
O101 C95 1.268 . S
O102 Sc90 2.105 . S
O102 C96 1.268 . S
O103 Sc89 2.105 . S
O103 C97 1.268 . S
O104 Sc88 2.105 . S
O104 C96 1.268 . S
O105 Sc89 2.105 . S
O105 C95 1.268 . S
O106 Sc90 2.105 . S
O106 C97 1.268 . S
O107 Sc88 2.105 . S
O107 C93 1.268 . S
O108 Sc90 2.105 . S
O108 C92 1.268 . S
O109 Sc89 2.105 . S
O109 C94 1.268 . S
Sc110 O113 2.025 . S
Sc110 O120 2.105 . S
Sc110 O123 2.105 . S
Sc110 O126 2.105 . S
Sc110 O129 2.105 . S
Sc111 O113 2.025 . S
Sc111 O121 2.105 . S
Sc111 O125 2.105 . S
Sc111 O127 2.105 . S
Sc111 O131 2.105 . S
Sc112 O113 2.025 . S
Sc112 O122 2.105 . S
Sc112 O124 2.105 . S
Sc112 O128 2.105 . S
Sc112 O130 2.105 . S
O113 Sc110 2.025 . S
O113 Sc111 2.025 . S
O113 Sc112 2.025 . S
C114 O120 1.268 . S
C114 O130 1.268 . S
C115 O121 1.268 . S
C115 O129 1.268 . S
C116 O122 1.268 . S
C116 O131 1.268 . S
C117 O123 1.268 . S
C117 O127 1.268 . S
C118 O124 1.268 . S
C118 O126 1.268 . S
C119 O125 1.268 . S
C119 O128 1.268 . S
O120 Sc110 2.105 . S
O120 C114 1.268 . S
O121 Sc111 2.105 . S
O121 C115 1.268 . S
O122 Sc112 2.105 . S
O122 C116 1.268 . S
O123 Sc110 2.105 . S
O123 C117 1.268 . S
O124 Sc112 2.105 . S
O124 C118 1.268 . S
O125 Sc111 2.105 . S
O125 C119 1.268 . S
O126 Sc110 2.105 . S
O126 C118 1.268 . S
O127 Sc111 2.105 . S
O127 C117 1.268 . S
O128 Sc112 2.105 . S
O128 C119 1.268 . S
O129 Sc110 2.105 . S
O129 C115 1.268 . S
O130 Sc112 2.105 . S
O130 C114 1.268 . S
O131 Sc111 2.105 . S
O131 C116 1.268 . S
Sc132 O135 2.025 . S
Sc132 O142 2.105 . S
Sc132 O145 2.105 . S
Sc132 O148 2.105 . S
Sc132 O151 2.105 . S
Sc133 O135 2.025 . S
Sc133 O143 2.105 . S
Sc133 O147 2.105 . S
Sc133 O149 2.105 . S
Sc133 O153 2.105 . S
Sc134 O135 2.025 . S
Sc134 O144 2.105 . S
Sc134 O146 2.105 . S
Sc134 O150 2.105 . S
Sc134 O152 2.105 . S
O135 Sc132 2.025 . S
O135 Sc133 2.025 . S
O135 Sc134 2.025 . S
C136 O142 1.268 . S
C136 O152 1.268 . S
C137 O143 1.268 . S
C137 O151 1.268 . S
C138 O144 1.268 . S
C138 O153 1.268 . S
C139 O145 1.268 . S
C139 O149 1.268 . S
C140 O146 1.268 . S
C140 O148 1.268 . S
C141 O147 1.268 . S
C141 O150 1.268 . S
O142 Sc132 2.105 . S
O142 C136 1.268 . S
O143 Sc133 2.105 . S
O143 C137 1.268 . S
O144 Sc134 2.105 . S
O144 C138 1.268 . S
O145 Sc132 2.105 . S
O145 C139 1.268 . S
O146 Sc134 2.105 . S
O146 C140 1.268 . S
O147 Sc133 2.105 . S
O147 C141 1.268 . S
O148 Sc132 2.105 . S
O148 C140 1.268 . S
O149 Sc133 2.105 . S
O149 C139 1.268 . S
O150 Sc134 2.105 . S
O150 C141 1.268 . S
O151 Sc132 2.105 . S
O151 C137 1.268 . S
O152 Sc134 2.105 . S
O152 C136 1.268 . S
O153 Sc133 2.105 . S
O153 C138 1.268 . S
Sc154 O157 2.025 . S
Sc154 O164 2.105 . S
Sc154 O167 2.105 . S
Sc154 O170 2.105 . S
Sc154 O173 2.105 . S
Sc155 O157 2.025 . S
Sc155 O165 2.105 . S
Sc155 O169 2.105 . S
Sc155 O171 2.105 . S
Sc155 O175 2.105 . S
Sc156 O157 2.025 . S
Sc156 O166 2.105 . S
Sc156 O168 2.105 . S
Sc156 O172 2.105 . S
Sc156 O174 2.105 . S
O157 Sc154 2.025 . S
O157 Sc155 2.025 . S
O157 Sc156 2.025 . S
C158 O164 1.268 . S
C158 O174 1.268 . S
C159 O165 1.268 . S
C159 O173 1.268 . S
C160 O166 1.268 . S
C160 O175 1.268 . S
C161 O167 1.268 . S
C161 O171 1.268 . S
C162 O168 1.268 . S
C162 O170 1.268 . S
C163 O169 1.268 . S
C163 O172 1.268 . S
O164 Sc154 2.105 . S
O164 C158 1.268 . S
O165 Sc155 2.105 . S
O165 C159 1.268 . S
O166 Sc156 2.105 . S
O166 C160 1.268 . S
O167 Sc154 2.105 . S
O167 C161 1.268 . S
O168 Sc156 2.105 . S
O168 C162 1.268 . S
O169 Sc155 2.105 . S
O169 C163 1.268 . S
O170 Sc154 2.105 . S
O170 C162 1.268 . S
O171 Sc155 2.105 . S
O171 C161 1.268 . S
O172 Sc156 2.105 . S
O172 C163 1.268 . S
O173 Sc154 2.105 . S
O173 C159 1.268 . S
O174 Sc156 2.105 . S
O174 C158 1.268 . S
O175 Sc155 2.105 . S
O175 C160 1.268 . S
H176 C184 0.950 . S
H177 C189 0.950 . S
H178 C186 0.950 . S
H179 C188 0.950 . S
H180 C190 0.950 . S
H181 C192 0.950 . S
H182 C194 0.950 . S
H183 C195 0.950 . S
C184 H176 0.950 . S
C184 C185 1.386 . S
C184 C186 1.391 . S
C185 C184 1.386 . S
C185 C189 1.393 . S
C186 H178 0.950 . S
C186 C184 1.391 . S
C186 C187 1.400 . S
C187 C186 1.400 . S
C187 C188 1.398 . S
C187 C193 1.491 . S
C188 H179 0.950 . S
C188 C187 1.398 . S
C188 C189 1.391 . S
C189 H177 0.950 . S
C189 C185 1.393 . S
C189 C188 1.391 . S
C190 H180 0.950 . S
C190 C191 1.386 . S
C190 C192 1.391 . S
C191 C190 1.386 . S
C191 C195 1.393 . S
C192 H181 0.950 . S
C192 C190 1.391 . S
C192 C193 1.400 . S
C193 C187 1.491 . S
C193 C192 1.400 . S
C193 C194 1.398 . S
C194 H182 0.950 . S
C194 C193 1.398 . S
C194 C195 1.391 . S
C195 H183 0.950 . S
C195 C191 1.393 . S
C195 C194 1.391 . S
H196 C204 0.950 . S
H197 C209 0.950 . S
H198 C206 0.950 . S
H199 C208 0.950 . S
H200 C210 0.950 . S
H201 C212 0.950 . S
H202 C214 0.950 . S
H203 C215 0.950 . S
C204 H196 0.950 . S
C204 C205 1.386 . S
C204 C206 1.391 . S
C205 C204 1.386 . S
C205 C209 1.393 . S
C206 H198 0.950 . S
C206 C204 1.391 . S
C206 C207 1.400 . S
C207 C206 1.400 . S
C207 C208 1.398 . S
C207 C213 1.491 . S
C208 H199 0.950 . S
C208 C207 1.398 . S
C208 C209 1.391 . S
C209 H197 0.950 . S
C209 C205 1.393 . S
C209 C208 1.391 . S
C210 H200 0.950 . S
C210 C211 1.386 . S
C210 C212 1.391 . S
C211 C210 1.386 . S
C211 C215 1.393 . S
C212 H201 0.950 . S
C212 C210 1.391 . S
C212 C213 1.400 . S
C213 C207 1.491 . S
C213 C212 1.400 . S
C213 C214 1.398 . S
C214 H202 0.950 . S
C214 C213 1.398 . S
C214 C215 1.391 . S
C215 H203 0.950 . S
C215 C211 1.393 . S
C215 C214 1.391 . S
H216 C224 0.950 . S
H217 C229 0.950 . S
H218 C226 0.950 . S
H219 C228 0.950 . S
H220 C230 0.950 . S
H221 C232 0.950 . S
H222 C234 0.950 . S
H223 C235 0.950 . S
C224 H216 0.950 . S
C224 C225 1.386 . S
C224 C226 1.391 . S
C225 C224 1.386 . S
C225 C229 1.393 . S
C226 H218 0.950 . S
C226 C224 1.391 . S
C226 C227 1.400 . S
C227 C226 1.400 . S
C227 C228 1.398 . S
C227 C233 1.491 . S
C228 H219 0.950 . S
C228 C227 1.398 . S
C228 C229 1.391 . S
C229 H217 0.950 . S
C229 C225 1.393 . S
C229 C228 1.391 . S
C230 H220 0.950 . S
C230 C231 1.386 . S
C230 C232 1.391 . S
C231 C230 1.386 . S
C231 C235 1.393 . S
C232 H221 0.950 . S
C232 C230 1.391 . S
C232 C233 1.400 . S
C233 C227 1.491 . S
C233 C232 1.400 . S
C233 C234 1.398 . S
C234 H222 0.950 . S
C234 C233 1.398 . S
C234 C235 1.391 . S
C235 H223 0.950 . S
C235 C231 1.393 . S
C235 C234 1.391 . S
H236 C244 0.950 . S
H237 C249 0.950 . S
H238 C246 0.950 . S
H239 C248 0.950 . S
H240 C250 0.950 . S
H241 C252 0.950 . S
H242 C254 0.950 . S
H243 C255 0.950 . S
C244 H236 0.950 . S
C244 C245 1.386 . S
C244 C246 1.391 . S
C245 C244 1.386 . S
C245 C249 1.393 . S
C246 H238 0.950 . S
C246 C244 1.391 . S
C246 C247 1.400 . S
C247 C246 1.400 . S
C247 C248 1.398 . S
C247 C253 1.491 . S
C248 H239 0.950 . S
C248 C247 1.398 . S
C248 C249 1.391 . S
C249 H237 0.950 . S
C249 C245 1.393 . S
C249 C248 1.391 . S
C250 H240 0.950 . S
C250 C251 1.386 . S
C250 C252 1.391 . S
C251 C250 1.386 . S
C251 C255 1.393 . S
C252 H241 0.950 . S
C252 C250 1.391 . S
C252 C253 1.400 . S
C253 C247 1.491 . S
C253 C252 1.400 . S
C253 C254 1.398 . S
C254 H242 0.950 . S
C254 C253 1.398 . S
C254 C255 1.391 . S
C255 H243 0.950 . S
C255 C251 1.393 . S
C255 C254 1.391 . S
H256 C264 0.950 . S
H257 C269 0.950 . S
H258 C266 0.950 1_655 S
H259 C268 0.950 . S
H260 C270 0.950 . S
H261 C272 0.950 . S
H262 C274 0.950 . S
H263 C275 0.950 . S
C264 H256 0.950 . S
C264 C265 1.386 . S
C264 C266 1.391 . S
C265 C264 1.386 . S
C265 C269 1.393 . S
C266 H258 0.950 1_455 S
C266 C264 1.391 . S
C266 C267 1.400 . S
C267 C266 1.400 . S
C267 C268 1.398 . S
C267 C273 1.491 1_455 S
C268 H259 0.950 . S
C268 C267 1.398 . S
C268 C269 1.391 . S
C269 H257 0.950 . S
C269 C265 1.393 . S
C269 C268 1.391 . S
C270 H260 0.950 . S
C270 C271 1.386 . S
C270 C272 1.391 . S
C271 C270 1.386 . S
C271 C275 1.393 . S
C272 H261 0.950 . S
C272 C270 1.391 . S
C272 C273 1.400 . S
C273 C267 1.491 1_655 S
C273 C272 1.400 . S
C273 C274 1.398 . S
C274 H262 0.950 . S
C274 C273 1.398 . S
C274 C275 1.391 . S
C275 H263 0.950 . S
C275 C271 1.393 . S
C275 C274 1.391 . S
H276 C284 0.950 . S
H277 C289 0.950 . S
H278 C286 0.950 1_455 S
H279 C288 0.950 . S
H280 C290 0.950 . S
H281 C292 0.950 . S
H282 C294 0.950 . S
H283 C295 0.950 . S
C284 H276 0.950 . S
C284 C285 1.386 . S
C284 C286 1.391 . S
C285 C284 1.386 . S
C285 C289 1.393 . S
C286 H278 0.950 1_655 S
C286 C284 1.391 . S
C286 C287 1.397 1_655 S
C287 C286 1.397 1_455 S
C287 C288 1.392 1_455 S
C287 C293 1.500 . S
C288 H279 0.950 . S
C288 C287 1.392 1_655 S
C288 C289 1.391 . S
C289 H277 0.950 . S
C289 C285 1.393 . S
C289 C288 1.391 . S
C290 H280 0.950 . S
C290 C291 1.386 . S
C290 C292 1.391 . S
C291 C290 1.386 . S
C291 C295 1.393 . S
C292 H281 0.950 . S
C292 C290 1.391 . S
C292 C293 1.400 . S
C293 C287 1.500 . S
C293 C292 1.400 . S
C293 C294 1.398 . S
C294 H282 0.950 . S
C294 C293 1.398 . S
C294 C295 1.391 . S
C295 H283 0.950 . S
C295 C291 1.393 . S
C295 C294 1.391 . S
H296 C304 0.950 . S
H297 C309 0.950 . S
H298 C306 0.950 1_455 S
H299 C308 0.950 . S
H300 C310 0.950 . S
H301 C312 0.950 . S
H302 C314 0.950 . S
H303 C315 0.950 . S
C304 H296 0.950 . S
C304 C305 1.386 . S
C304 C306 1.391 . S
C305 C304 1.386 . S
C305 C309 1.393 . S
C306 H298 0.950 1_655 S
C306 C304 1.391 . S
C306 C307 1.399 . S
C307 C306 1.399 . S
C307 C308 1.396 . S
C307 C313 1.493 1_655 S
C308 H299 0.950 . S
C308 C307 1.396 . S
C308 C309 1.391 . S
C309 H297 0.950 . S
C309 C305 1.393 . S
C309 C308 1.391 . S
C310 H300 0.950 . S
C310 C311 1.386 . S
C310 C312 1.391 . S
C311 C310 1.386 . S
C311 C315 1.393 . S
C312 H301 0.950 . S
C312 C310 1.391 . S
C312 C313 1.400 . S
C313 C307 1.493 1_455 S
C313 C312 1.400 . S
C313 C314 1.398 . S
C314 H302 0.950 . S
C314 C313 1.398 . S
C314 C315 1.391 . S
C315 H303 0.950 . S
C315 C311 1.393 . S
C315 C314 1.391 . S
H316 C324 0.950 . S
H317 C329 0.950 . S
H318 C326 0.950 1_655 S
H319 C328 0.950 . S
H320 C330 0.950 . S
H321 C332 0.950 . S
H322 C334 0.950 . S
H323 C335 0.950 . S
C324 H316 0.950 . S
C324 C325 1.386 . S
C324 C326 1.391 . S
C325 C324 1.386 . S
C325 C329 1.393 . S
C326 H318 0.950 1_455 S
C326 C324 1.391 . S
C326 C327 1.397 1_455 S
C327 C326 1.397 1_655 S
C327 C328 1.390 1_655 S
C327 C333 1.502 . S
C328 H319 0.950 . S
C328 C327 1.390 1_455 S
C328 C329 1.391 . S
C329 H317 0.950 . S
C329 C325 1.393 . S
C329 C328 1.391 . S
C330 H320 0.950 . S
C330 C331 1.386 . S
C330 C332 1.391 . S
C331 C330 1.386 . S
C331 C335 1.393 . S
C332 H321 0.950 . S
C332 C330 1.391 . S
C332 C333 1.400 . S
C333 C327 1.502 . S
C333 C332 1.400 . S
C333 C334 1.398 . S
C334 H322 0.950 . S
C334 C333 1.398 . S
C334 C335 1.391 . S
C335 H323 0.950 . S
C335 C331 1.393 . S
C335 C334 1.391 . S
H336 C344 0.950 . S
H337 C349 0.950 . S
H338 C346 0.950 1_455 S
H339 C348 0.950 1_554 S
H340 C350 0.950 . S
H341 C352 0.950 1_655 S
H342 C354 0.950 1_556 S
H343 C355 0.950 . S
C344 H336 0.950 . S
C344 C345 1.386 . S
C344 C346 1.391 . S
C345 C344 1.386 . S
C345 C349 1.393 . S
C346 H338 0.950 1_655 S
C346 C344 1.391 . S
C346 C347 1.400 . S
C347 C346 1.400 . S
C347 C348 1.398 . S
C347 C353 1.491 1_656 S
C348 H339 0.950 1_556 S
C348 C347 1.398 . S
C348 C349 1.391 . S
C349 H337 0.950 . S
C349 C345 1.393 . S
C349 C348 1.391 . S
C350 H340 0.950 . S
C350 C351 1.386 . S
C350 C352 1.391 . S
C351 C350 1.386 . S
C351 C355 1.393 . S
C352 H341 0.950 1_455 S
C352 C350 1.391 . S
C352 C353 1.400 . S
C353 C347 1.491 1_454 S
C353 C352 1.400 . S
C353 C354 1.398 . S
C354 H342 0.950 1_554 S
C354 C353 1.398 . S
C354 C355 1.391 . S
C355 H343 0.950 . S
C355 C351 1.393 . S
C355 C354 1.391 . S
H356 C364 0.950 . S
H357 C369 0.950 . S
H358 C366 0.950 1_556 S
H359 C368 0.950 1_655 S
H360 C370 0.950 . S
H361 C372 0.950 1_554 S
H362 C374 0.950 1_455 S
H363 C375 0.950 . S
C364 H356 0.950 . S
C364 C365 1.386 . S
C364 C366 1.391 . S
C365 C364 1.386 . S
C365 C369 1.393 . S
C366 H358 0.950 1_554 S
C366 C364 1.391 . S
C366 C367 1.400 . S
C367 C366 1.400 . S
C367 C368 1.398 . S
C367 C373 1.491 1_454 S
C368 H359 0.950 1_455 S
C368 C367 1.398 . S
C368 C369 1.391 . S
C369 H357 0.950 . S
C369 C365 1.393 . S
C369 C368 1.391 . S
C370 H360 0.950 . S
C370 C371 1.386 . S
C370 C372 1.391 . S
C371 C370 1.386 . S
C371 C375 1.393 . S
C372 H361 0.950 1_556 S
C372 C370 1.391 . S
C372 C373 1.400 . S
C373 C367 1.491 1_656 S
C373 C372 1.400 . S
C373 C374 1.398 . S
C374 H362 0.950 1_655 S
C374 C373 1.398 . S
C374 C375 1.391 . S
C375 H363 0.950 . S
C375 C371 1.393 . S
C375 C374 1.391 . S
H376 C384 0.950 . S
H377 C389 0.950 . S
H378 C386 0.950 . S
H379 C388 0.950 1_556 S
H380 C390 0.950 . S
H381 C392 0.950 . S
H382 C394 0.950 1_554 S
H383 C395 0.950 . S
C384 H376 0.950 . S
C384 C385 1.386 . S
C384 C386 1.391 . S
C385 C384 1.386 . S
C385 C389 1.393 . S
C386 H378 0.950 . S
C386 C384 1.391 . S
C386 C387 1.400 . S
C387 C386 1.400 . S
C387 C388 1.398 . S
C387 C393 1.491 1_554 S
C388 H379 0.950 1_554 S
C388 C387 1.398 . S
C388 C389 1.391 . S
C389 H377 0.950 . S
C389 C385 1.393 . S
C389 C388 1.391 . S
C390 H380 0.950 . S
C390 C391 1.386 . S
C390 C392 1.391 . S
C391 C390 1.386 . S
C391 C395 1.393 . S
C392 H381 0.950 . S
C392 C390 1.391 . S
C392 C393 1.400 . S
C393 C387 1.491 1_556 S
C393 C392 1.400 . S
C393 C394 1.398 . S
C394 H382 0.950 1_556 S
C394 C393 1.398 . S
C394 C395 1.391 . S
C395 H383 0.950 . S
C395 C391 1.393 . S
C395 C394 1.391 . S
H396 C404 0.950 . S
H397 C409 0.950 . S
H398 C406 0.950 1_556 S
H399 C408 0.950 . S
H400 C410 0.950 . S
H401 C412 0.950 1_554 S
H402 C414 0.950 . S
H403 C415 0.950 . S
C404 H396 0.950 . S
C404 C405 1.386 . S
C404 C406 1.391 . S
C405 C404 1.386 . S
C405 C409 1.393 . S
C406 H398 0.950 1_554 S
C406 C404 1.391 . S
C406 C407 1.400 . S
C407 C406 1.400 . S
C407 C408 1.398 . S
C407 C413 1.491 1_554 S
C408 H399 0.950 . S
C408 C407 1.398 . S
C408 C409 1.391 . S
C409 H397 0.950 . S
C409 C405 1.393 . S
C409 C408 1.391 . S
C410 H400 0.950 . S
C410 C411 1.386 . S
C410 C412 1.391 . S
C411 C410 1.386 . S
C411 C415 1.393 . S
C412 H401 0.950 1_556 S
C412 C410 1.391 . S
C412 C413 1.400 . S
C413 C407 1.491 1_556 S
C413 C412 1.400 . S
C413 C414 1.398 . S
C414 H402 0.950 . S
C414 C413 1.398 . S
C414 C415 1.391 . S
C415 H403 0.950 . S
C415 C411 1.393 . S
C415 C414 1.391 . S
H416 C424 0.950 . S
H417 C429 0.950 . S
H418 C426 0.950 . S
H419 C428 0.950 . S
H420 C430 0.950 . S
H421 C432 0.950 . S
H422 C434 0.950 . S
H423 C435 0.950 . S
C424 H416 0.950 . S
C424 C425 1.386 . S
C424 C426 1.391 . S
C425 C424 1.386 . S
C425 C429 1.393 . S
C426 H418 0.950 . S
C426 C424 1.391 . S
C426 C427 1.400 . S
C427 C426 1.400 . S
C427 C428 1.398 . S
C427 C433 1.491 . S
C428 H419 0.950 . S
C428 C427 1.398 . S
C428 C429 1.391 . S
C429 H417 0.950 . S
C429 C425 1.393 . S
C429 C428 1.391 . S
C430 H420 0.950 . S
C430 C431 1.386 . S
C430 C432 1.391 . S
C431 C430 1.386 . S
C431 C435 1.393 . S
C432 H421 0.950 . S
C432 C430 1.391 . S
C432 C433 1.400 . S
C433 C427 1.491 . S
C433 C432 1.400 . S
C433 C434 1.398 . S
C434 H422 0.950 . S
C434 C433 1.398 . S
C434 C435 1.391 . S
C435 H423 0.950 . S
C435 C431 1.393 . S
C435 C434 1.391 . S
H436 C444 0.950 . S
H437 C449 0.950 . S
H438 C446 0.950 . S
H439 C448 0.950 . S
H440 C450 0.950 . S
H441 C452 0.950 . S
H442 C454 0.950 . S
H443 C455 0.950 . S
C444 H436 0.950 . S
C444 C445 1.386 . S
C444 C446 1.391 . S
C445 C444 1.386 . S
C445 C449 1.393 . S
C446 H438 0.950 . S
C446 C444 1.391 . S
C446 C447 1.400 . S
C447 C446 1.400 . S
C447 C448 1.398 . S
C447 C453 1.491 . S
C448 H439 0.950 . S
C448 C447 1.398 . S
C448 C449 1.391 . S
C449 H437 0.950 . S
C449 C445 1.393 . S
C449 C448 1.391 . S
C450 H440 0.950 . S
C450 C451 1.386 . S
C450 C452 1.391 . S
C451 C450 1.386 . S
C451 C455 1.393 . S
C452 H441 0.950 . S
C452 C450 1.391 . S
C452 C453 1.400 . S
C453 C447 1.491 . S
C453 C452 1.400 . S
C453 C454 1.398 . S
C454 H442 0.950 . S
C454 C453 1.398 . S
C454 C455 1.391 . S
C455 H443 0.950 . S
C455 C451 1.393 . S
C455 C454 1.391 . S
H456 C464 0.950 . S
H457 C469 0.950 . S
H458 C466 0.950 . S
H459 C468 0.950 . S
H460 C470 0.950 . S
H461 C472 0.950 . S
H462 C474 0.950 . S
H463 C475 0.950 . S
C464 H456 0.950 . S
C464 C465 1.386 . S
C464 C466 1.391 . S
C465 C464 1.386 . S
C465 C469 1.393 . S
C466 H458 0.950 . S
C466 C464 1.391 . S
C466 C467 1.400 . S
C467 C466 1.400 . S
C467 C468 1.398 . S
C467 C473 1.491 1_565 S
C468 H459 0.950 . S
C468 C467 1.398 . S
C468 C469 1.391 . S
C469 H457 0.950 . S
C469 C465 1.393 . S
C469 C468 1.391 . S
C470 H460 0.950 . S
C470 C471 1.386 . S
C470 C472 1.391 . S
C471 C470 1.386 . S
C471 C475 1.393 . S
C472 H461 0.950 . S
C472 C470 1.391 . S
C472 C473 1.400 . S
C473 C467 1.491 1_545 S
C473 C472 1.400 . S
C473 C474 1.398 . S
C474 H462 0.950 . S
C474 C473 1.398 . S
C474 C475 1.391 . S
C475 H463 0.950 . S
C475 C471 1.393 . S
C475 C474 1.391 . S
H476 C484 0.950 . S
H477 C489 0.950 . S
H478 C486 0.950 . S
H479 C488 0.950 . S
H480 C490 0.950 . S
H481 C492 0.950 . S
H482 C494 0.950 . S
H483 C495 0.950 . S
C484 H476 0.950 . S
C484 C485 1.386 . S
C484 C486 1.391 . S
C485 C484 1.386 . S
C485 C489 1.393 . S
C486 H478 0.950 . S
C486 C484 1.391 . S
C486 C487 1.400 . S
C487 C486 1.400 . S
C487 C488 1.398 . S
C487 C493 1.491 1_565 S
C488 H479 0.950 . S
C488 C487 1.398 . S
C488 C489 1.391 . S
C489 H477 0.950 . S
C489 C485 1.393 . S
C489 C488 1.391 . S
C490 H480 0.950 . S
C490 C491 1.386 . S
C490 C492 1.391 . S
C491 C490 1.386 . S
C491 C495 1.393 . S
C492 H481 0.950 . S
C492 C490 1.391 . S
C492 C493 1.400 . S
C493 C487 1.491 1_545 S
C493 C492 1.400 . S
C493 C494 1.398 . S
C494 H482 0.950 . S
C494 C493 1.398 . S
C494 C495 1.391 . S
C495 H483 0.950 . S
C495 C491 1.393 . S
C495 C494 1.391 . S
H496 C504 0.950 . S
H497 C509 0.950 . S
H498 C506 0.950 . S
H499 C508 0.950 . S
H500 C510 0.950 . S
H501 C512 0.950 . S
H502 C514 0.950 . S
H503 C515 0.950 . S
C504 H496 0.950 . S
C504 C505 1.386 . S
C504 C506 1.391 . S
C505 C504 1.386 . S
C505 C509 1.393 . S
C506 H498 0.950 . S
C506 C504 1.391 . S
C506 C507 1.400 . S
C507 C506 1.400 . S
C507 C508 1.398 . S
C507 C513 1.491 . S
C508 H499 0.950 . S
C508 C507 1.398 . S
C508 C509 1.391 . S
C509 H497 0.950 . S
C509 C505 1.393 . S
C509 C508 1.391 . S
C510 H500 0.950 . S
C510 C511 1.386 . S
C510 C512 1.391 . S
C511 C510 1.386 . S
C511 C515 1.393 . S
C512 H501 0.950 . S
C512 C510 1.391 . S
C512 C513 1.400 . S
C513 C507 1.491 . S
C513 C512 1.400 . S
C513 C514 1.398 . S
C514 H502 0.950 . S
C514 C513 1.398 . S
C514 C515 1.391 . S
C515 H503 0.950 . S
C515 C511 1.393 . S
C515 C514 1.391 . S
H516 C524 0.950 . S
H517 C529 0.950 . S
H518 C526 0.950 . S
H519 C528 0.950 . S
H520 C530 0.950 . S
H521 C532 0.950 . S
H522 C534 0.950 . S
H523 C535 0.950 . S
C524 H516 0.950 . S
C524 C525 1.386 . S
C524 C526 1.391 . S
C525 C524 1.386 . S
C525 C529 1.393 . S
C526 H518 0.950 . S
C526 C524 1.391 . S
C526 C527 1.400 . S
C527 C526 1.400 . S
C527 C528 1.398 . S
C527 C533 1.491 . S
C528 H519 0.950 . S
C528 C527 1.398 . S
C528 C529 1.391 . S
C529 H517 0.950 . S
C529 C525 1.393 . S
C529 C528 1.391 . S
C530 H520 0.950 . S
C530 C531 1.386 . S
C530 C532 1.391 . S
C531 C530 1.386 . S
C531 C535 1.393 . S
C532 H521 0.950 . S
C532 C530 1.391 . S
C532 C533 1.400 . S
C533 C527 1.491 . S
C533 C532 1.400 . S
C533 C534 1.398 . S
C534 H522 0.950 . S
C534 C533 1.398 . S
C534 C535 1.391 . S
C535 H523 0.950 . S
C535 C531 1.393 . S
C535 C534 1.391 . S
H536 C544 0.950 . S
H537 C549 0.950 . S
H538 C546 0.950 . S
H539 C548 0.950 . S
H540 C550 0.950 . S
H541 C552 0.950 . S
H542 C554 0.950 . S
H543 C555 0.950 . S
C544 H536 0.950 . S
C544 C545 1.386 . S
C544 C546 1.391 . S
C545 C544 1.386 . S
C545 C549 1.393 . S
C546 H538 0.950 . S
C546 C544 1.391 . S
C546 C547 1.400 . S
C547 C546 1.400 . S
C547 C548 1.398 . S
C547 C553 1.491 . S
C548 H539 0.950 . S
C548 C547 1.398 . S
C548 C549 1.391 . S
C549 H537 0.950 . S
C549 C545 1.393 . S
C549 C548 1.391 . S
C550 H540 0.950 . S
C550 C551 1.386 . S
C550 C552 1.391 . S
C551 C550 1.386 . S
C551 C555 1.393 . S
C552 H541 0.950 . S
C552 C550 1.391 . S
C552 C553 1.400 . S
C553 C547 1.491 . S
C553 C552 1.400 . S
C553 C554 1.398 . S
C554 H542 0.950 . S
C554 C553 1.398 . S
C554 C555 1.391 . S
C555 H543 0.950 . S
C555 C551 1.393 . S
C555 C554 1.391 . S
H556 C564 0.950 . S
H557 C569 0.950 . S
H558 C566 0.950 . S
H559 C568 0.950 . S
H560 C570 0.950 . S
H561 C572 0.950 . S
H562 C574 0.950 . S
H563 C575 0.950 . S
C564 H556 0.950 . S
C564 C565 1.386 . S
C564 C566 1.391 . S
C565 C564 1.386 . S
C565 C569 1.393 . S
C566 H558 0.950 . S
C566 C564 1.391 . S
C566 C567 1.400 . S
C567 C566 1.400 . S
C567 C568 1.398 . S
C567 C573 1.491 . S
C568 H559 0.950 . S
C568 C567 1.398 . S
C568 C569 1.391 . S
C569 H557 0.950 . S
C569 C565 1.393 . S
C569 C568 1.391 . S
C570 H560 0.950 . S
C570 C571 1.386 . S
C570 C572 1.391 . S
C571 C570 1.386 . S
C571 C575 1.393 . S
C572 H561 0.950 . S
C572 C570 1.391 . S
C572 C573 1.400 . S
C573 C567 1.491 . S
C573 C572 1.400 . S
C573 C574 1.398 . S
C574 H562 0.950 . S
C574 C573 1.398 . S
C574 C575 1.391 . S
C575 H563 0.950 . S
C575 C571 1.393 . S
C575 C574 1.391 . S
H576 C584 0.950 . S
H577 C589 0.950 . S
H578 C586 0.950 . S
H579 C588 0.950 . S
H580 C590 0.950 . S
H581 C592 0.950 . S
H582 C594 0.950 . S
H583 C595 0.950 . S
C584 H576 0.950 . S
C584 C585 1.386 . S
C584 C586 1.391 . S
C585 C584 1.386 . S
C585 C589 1.393 . S
C586 H578 0.950 . S
C586 C584 1.391 . S
C586 C587 1.400 . S
C587 C586 1.400 . S
C587 C588 1.398 . S
C587 C593 1.491 1_554 S
C588 H579 0.950 . S
C588 C587 1.398 . S
C588 C589 1.391 . S
C589 H577 0.950 . S
C589 C585 1.393 . S
C589 C588 1.391 . S
C590 H580 0.950 . S
C590 C591 1.386 . S
C590 C592 1.391 . S
C591 C590 1.386 . S
C591 C595 1.393 . S
C592 H581 0.950 . S
C592 C590 1.391 . S
C592 C593 1.400 . S
C593 C587 1.491 1_556 S
C593 C592 1.400 . S
C593 C594 1.398 . S
C594 H582 0.950 . S
C594 C593 1.398 . S
C594 C595 1.391 . S
C595 H583 0.950 . S
C595 C591 1.393 . S
C595 C594 1.391 . S
H596 C604 0.950 . S
H597 C609 0.950 . S
H598 C606 0.950 . S
H599 C608 0.950 . S
H600 C610 0.950 . S
H601 C612 0.950 . S
H602 C614 0.950 . S
H603 C615 0.950 . S
C604 H596 0.950 . S
C604 C605 1.386 . S
C604 C606 1.391 . S
C605 C604 1.386 . S
C605 C609 1.393 . S
C606 H598 0.950 . S
C606 C604 1.391 . S
C606 C607 1.400 . S
C607 C606 1.400 . S
C607 C608 1.398 . S
C607 C613 1.491 1_554 S
C608 H599 0.950 . S
C608 C607 1.398 . S
C608 C609 1.391 . S
C609 H597 0.950 . S
C609 C605 1.393 . S
C609 C608 1.391 . S
C610 H600 0.950 . S
C610 C611 1.386 . S
C610 C612 1.391 . S
C611 C610 1.386 . S
C611 C615 1.393 . S
C612 H601 0.950 . S
C612 C610 1.391 . S
C612 C613 1.400 . S
C613 C607 1.491 1_556 S
C613 C612 1.400 . S
C613 C614 1.398 . S
C614 H602 0.950 . S
C614 C613 1.398 . S
C614 C615 1.391 . S
C615 H603 0.950 . S
C615 C611 1.393 . S
C615 C614 1.391 . S
H616 C624 0.950 . S
H617 C629 0.950 . S
H618 C626 0.950 . S
H619 C628 0.950 . S
H620 C630 0.950 . S
H621 C632 0.950 . S
H622 C634 0.950 . S
H623 C635 0.950 . S
C624 H616 0.950 . S
C624 C625 1.386 . S
C624 C626 1.391 . S
C625 C624 1.386 . S
C625 C629 1.393 . S
C626 H618 0.950 . S
C626 C624 1.391 . S
C626 C627 1.400 . S
C627 C626 1.400 . S
C627 C628 1.398 . S
C627 C633 1.491 1_556 S
C628 H619 0.950 . S
C628 C627 1.398 . S
C628 C629 1.391 . S
C629 H617 0.950 . S
C629 C625 1.393 . S
C629 C628 1.391 . S
C630 H620 0.950 . S
C630 C631 1.386 . S
C630 C632 1.391 . S
C631 C630 1.386 . S
C631 C635 1.393 . S
C632 H621 0.950 . S
C632 C630 1.391 . S
C632 C633 1.400 . S
C633 C627 1.491 1_554 S
C633 C632 1.400 . S
C633 C634 1.398 . S
C634 H622 0.950 . S
C634 C633 1.398 . S
C634 C635 1.391 . S
C635 H623 0.950 . S
C635 C631 1.393 . S
C635 C634 1.391 . S
H636 C644 0.950 . S
H637 C649 0.950 . S
H638 C646 0.950 . S
H639 C648 0.950 . S
H640 C650 0.950 . S
H641 C652 0.950 . S
H642 C654 0.950 . S
H643 C655 0.950 . S
C644 H636 0.950 . S
C644 C645 1.386 . S
C644 C646 1.391 . S
C645 C644 1.386 . S
C645 C649 1.393 . S
C646 H638 0.950 . S
C646 C644 1.391 . S
C646 C647 1.400 . S
C647 C646 1.400 . S
C647 C648 1.398 . S
C647 C653 1.491 1_554 S
C648 H639 0.950 . S
C648 C647 1.398 . S
C648 C649 1.391 . S
C649 H637 0.950 . S
C649 C645 1.393 . S
C649 C648 1.391 . S
C650 H640 0.950 . S
C650 C651 1.386 . S
C650 C652 1.391 . S
C651 C650 1.386 . S
C651 C655 1.393 . S
C652 H641 0.950 . S
C652 C650 1.391 . S
C652 C653 1.400 . S
C653 C647 1.491 1_556 S
C653 C652 1.400 . S
C653 C654 1.398 . S
C654 H642 0.950 . S
C654 C653 1.398 . S
C654 C655 1.391 . S
C655 H643 0.950 . S
C655 C651 1.393 . S
C655 C654 1.391 . S
C185 C160 1.278 . S
C191 C5 1.212 . S
C205 C31 1.218 . S
C211 C139 1.268 . S
C225 C115 1.268 . S
C231 C50 1.241 . S
C245 C73 1.247 . S
C251 C97 1.283 . S
C265 C72 1.274 . S
C271 C93 1.213 . S
C285 C51 1.266 . S
C291 C119 1.237 . S
C305 C27 1.287 . S
C311 C138 1.223 . S
C325 C9 1.280 . S
C331 C161 1.249 . S
C345 C26 1.851 . S
C351 C8 1.848 . S
C365 C70 1.852 . S
C371 C52 1.849 . S
C385 C96 1.852 . S
C391 C114 1.848 . S
C405 C158 1.852 . S
C411 C140 1.848 . S
C425 C74 1.433 . S
C431 C4 1.462 . S
C445 C48 1.458 . S
C451 C30 1.437 . S
C465 C92 1.460 . S
C471 C162 1.435 . S
C485 C118 1.456 . S
C491 C136 1.439 . S
C505 C137 1.777 . S
C511 C6 1.777 . S
C525 C29 1.762 . S
C531 C163 1.762 . S
C545 C94 1.774 . S
C551 C49 1.774 . S
C565 C117 1.781 . S
C571 C75 1.781 . S
C585 C7 0.766 . S
C591 C141 0.766 . S
C605 C159 0.810 . S
C611 C28 0.810 . S
C625 C53 0.775 . S
C631 C95 0.775 . S
C645 C71 0.802 . S
C651 C116 0.802 . S
