# Generated by pormake.
# Topology uon, (4)-cn, num edge types: 1
# Building blocks:
#     Node 0, Type 0, BuildingBlock: KOZSID_clean_sbu_0, # of connection points: 4
#     Node 1, Type 0, BuildingBlock: KOZSID_clean_sbu_0, # of connection points: 4
#     Node 2, Type 0, BuildingBlock: KOZSID_clean_sbu_0, # of connection points: 4
#     Node 3, Type 0, BuildingBlock: KOZSID_clean_sbu_0, # of connection points: 4
#     Node 4, Type 0, BuildingBlock: KOZSID_clean_sbu_0, # of connection points: 4
#     Node 5, Type 0, BuildingBlock: KOZSID_clean_sbu_0, # of connection points: 4
#     Edge 6, Type (0, 0), BuildingBlock: ZUJKAS_clean_linker_0, # of connection points: 2
#     Edge 7, Type (0, 0), BuildingBlock: ZUJKAS_clean_linker_0, # of connection points: 2
#     Edge 8, Type (0, 0), BuildingBlock: ZUJKAS_clean_linker_0, # of connection points: 2
#     Edge 9, Type (0, 0), BuildingBlock: ZUJKAS_clean_linker_0, # of connection points: 2
#     Edge 10, Type (0, 0), BuildingBlock: ZUJKAS_clean_linker_0, # of connection points: 2
#     Edge 11, Type (0, 0), BuildingBlock: ZUJKAS_clean_linker_0, # of connection points: 2
#     Edge 12, Type (0, 0), BuildingBlock: ZUJKAS_clean_linker_0, # of connection points: 2
#     Edge 13, Type (0, 0), BuildingBlock: ZUJKAS_clean_linker_0, # of connection points: 2
#     Edge 14, Type (0, 0), BuildingBlock: ZUJKAS_clean_linker_0, # of connection points: 2
#     Edge 15, Type (0, 0), BuildingBlock: ZUJKAS_clean_linker_0, # of connection points: 2
#     Edge 16, Type (0, 0), BuildingBlock: ZUJKAS_clean_linker_0, # of connection points: 2
#     Edge 17, Type (0, 0), BuildingBlock: ZUJKAS_clean_linker_0, # of connection points: 2
# Relax obj value: 0.068
# Max RMSD: 0.128
# Mean RMSD: 0.128
data_MOF--net-uon--node1-KOZSID_clean_sbu_0--edge1-ZUJKAS_clean_linker_0
_symmetry_space_group_name_H-M    P1
_symmetry_Int_Tables_number       1
_symmetry_cell_setting            triclinic
loop_
_symmetry_equiv_pos_as_xyz
'x, y, z'
_cell_length_a     47.636886
_cell_length_b     47.638637
_cell_length_c     42.144273
_cell_angle_alpha  90.016478
_cell_angle_beta   89.981879
_cell_angle_gamma 119.99535
loop_
_atom_site_label
_atom_site_type_symbol
_atom_site_fract_x
_atom_site_fract_y
_atom_site_fract_z
_atom_type_partial_charge
C0 C 0.14487 0.37158 0.01962 0.0
C1 C 0.11359 0.35831 0.00784 0.0
C2 C 0.11585 0.37384 0.97995 0.0
C3 C 0.14827 0.39547 0.97625 0.0
N4 N 0.16691 0.39428 0.99981 0.0
Co5 Co 0.21512 0.42165 0.0042 0.0
N6 N 0.21789 0.44806 0.96602 0.0
C7 C 0.19292 0.44527 0.94833 0.0
C8 C 0.20233 0.46685 0.92367 0.0
C9 C 0.23533 0.48422 0.92545 0.0
C10 C 0.24414 0.47199 0.95109 0.0
N11 N 0.26355 0.44847 0.00799 0.0
C12 C 0.28554 0.47162 0.98838 0.0
C13 C 0.31707 0.48263 0.99853 0.0
C14 C 0.31498 0.46565 0.02535 0.0
C15 C 0.28245 0.44521 0.02995 0.0
N16 N 0.21208 0.39587 0.04308 0.0
C17 C 0.23686 0.3995 0.06164 0.0
C18 C 0.22709 0.38019 0.08809 0.0
C19 C 0.19405 0.36374 0.08678 0.0
C20 C 0.18557 0.37387 0.05937 0.0
N21 N 0.22076 0.39085 0.97666 0.0
C22 C 0.23554 0.35348 0.93515 0.0
C23 C 0.24715 0.35963 0.96627 0.0
C24 C 0.2395 0.37809 0.9864 0.0
C25 C 0.21498 0.36496 0.92568 0.0
C26 C 0.20783 0.3833 0.9467 0.0
N27 N 0.20967 0.45246 0.0317 0.0
C28 C 0.22384 0.48523 0.07919 0.0
C29 C 0.19953 0.49283 0.07347 0.0
C30 C 0.18087 0.48052 0.04599 0.0
C31 C 0.18626 0.46048 0.02559 0.0
C32 C 0.22852 0.46533 0.05817 0.0
H33 H 0.17095 0.45141 0.00527 0.0
H34 H 0.24739 0.46048 0.06404 0.0
H35 H 0.24962 0.38215 0.00953 0.0
H36 H 0.1924 0.39171 0.93788 0.0
C37 C 0.16132 0.42003 0.95349 0.0
C38 C 0.15214 0.36358 0.05076 0.0
C39 C 0.27776 0.4827 0.95916 0.0
C40 C 0.26894 0.42242 0.05436 0.0
H41 H 0.09135 0.34016 0.01892 0.0
H42 H 0.09608 0.3709 0.96501 0.0
H43 H 0.18711 0.4689 0.90583 0.0
H44 H 0.25118 0.50312 0.90917 0.0
H45 H 0.33932 0.50061 0.98737 0.0
H46 H 0.33483 0.46753 0.03946 0.0
H47 H 0.24217 0.37904 0.10667 0.0
H48 H 0.17807 0.34691 0.1045 0.0
H49 H 0.2624 0.35048 0.9751 0.0
H50 H 0.20524 0.36078 0.90184 0.0
H51 H 0.23942 0.49476 0.09978 0.0
H52 H 0.1617 0.48571 0.04056 0.0
C53 C 0.77678 0.14507 0.35532 0.0
C54 C 0.75747 0.11366 0.34429 0.0
C55 C 0.74377 0.11593 0.31669 0.0
C56 C 0.75555 0.14847 0.31244 0.0
N57 N 0.77634 0.16715 0.33541 0.0
Co58 Co 0.79882 0.21557 0.33886 0.0
N59 N 0.77478 0.21856 0.30114 0.0
C60 C 0.75151 0.19362 0.28424 0.0
C61 C 0.73924 0.20318 0.25979 0.0
C62 C 0.75585 0.23621 0.26094 0.0
C63 C 0.77752 0.24491 0.28603 0.0
N64 N 0.82221 0.26415 0.34158 0.0
C65 C 0.82125 0.2862 0.32192 0.0
C66 C 0.84294 0.31772 0.33126 0.0
C67 C 0.85839 0.31555 0.35761 0.0
C68 C 0.84542 0.28298 0.36276 0.0
N69 N 0.82183 0.21236 0.37742 0.0
C70 C 0.84394 0.23711 0.39537 0.0
C71 C 0.85365 0.22725 0.42166 0.0
C72 C 0.83617 0.19419 0.42086 0.0
C73 C 0.81686 0.18584 0.39397 0.0
N74 N 0.83396 0.21906 0.31066 0.0
C75 C 0.88442 0.23035 0.26825 0.0
C76 C 0.89112 0.24243 0.29918 0.0
C77 C 0.8658 0.23652 0.31978 0.0
C78 C 0.85196 0.21134 0.25932 0.0
C79 C 0.82732 0.2058 0.28081 0.0
N80 N 0.76384 0.21227 0.36701 0.0
C81 C 0.74724 0.22996 0.41353 0.0
C82 C 0.71494 0.20588 0.40919 0.0
C83 C 0.70747 0.1854 0.38292 0.0
C84 C 0.73208 0.18904 0.36225 0.0
C85 C 0.77103 0.23267 0.39243 0.0
H86 H 0.72489 0.17257 0.34278 0.0
H87 H 0.79513 0.25136 0.39735 0.0
H88 H 0.87276 0.24703 0.34271 0.0
H89 H 0.80313 0.19119 0.27249 0.0
C90 C 0.74416 0.16178 0.28985 0.0
C91 C 0.79304 0.15253 0.38595 0.0
C92 C 0.80119 0.27845 0.29356 0.0
C93 C 0.85431 0.26931 0.38736 0.0
H94 H 0.75285 0.09138 0.35568 0.0
H95 H 0.72605 0.09615 0.30233 0.0
H96 H 0.72119 0.18798 0.24251 0.0
H97 H 0.75294 0.25214 0.24464 0.0
H98 H 0.84746 0.33998 0.31992 0.0
H99 H 0.87712 0.33536 0.37118 0.0
H100 H 0.87076 0.24231 0.43968 0.0
H101 H 0.83698 0.17803 0.43842 0.0
H102 H 0.91587 0.25742 0.30723 0.0
H103 H 0.84555 0.20089 0.23578 0.0
H104 H 0.75427 0.24694 0.43307 0.0
H105 H 0.68285 0.16622 0.37857 0.0
C106 C 0.63196 0.77498 0.68867 0.0
C107 C 0.64445 0.75597 0.67763 0.0
C108 C 0.6297 0.74334 0.64931 0.0
C109 C 0.60911 0.75523 0.64472 0.0
N110 N 0.61013 0.77514 0.66814 0.0
Co111 Co 0.58302 0.79644 0.67177 0.0
N112 N 0.5582 0.77433 0.63228 0.0
C113 C 0.56259 0.75375 0.61356 0.0
C114 C 0.543 0.74343 0.58738 0.0
C115 C 0.52497 0.75831 0.58935 0.0
C116 C 0.53445 0.77676 0.61696 0.0
N117 N 0.55609 0.81796 0.67532 0.0
C118 C 0.53218 0.81591 0.65624 0.0
C119 C 0.51953 0.83466 0.66764 0.0
C120 C 0.53648 0.84963 0.69443 0.0
C121 C 0.55827 0.83908 0.69804 0.0
N122 N 0.6076 0.81819 0.71149 0.0
C123 C 0.60415 0.83962 0.72978 0.0
C124 C 0.62331 0.84914 0.75636 0.0
C125 C 0.63958 0.83235 0.75533 0.0
C126 C 0.62929 0.81349 0.72809 0.0
N127 N 0.61508 0.8336 0.64568 0.0
C128 C 0.65339 0.8862 0.60504 0.0
C129 C 0.64391 0.8912 0.63486 0.0
C130 C 0.62517 0.86489 0.65465 0.0
C131 C 0.64505 0.85459 0.59667 0.0
C132 C 0.62611 0.82887 0.61723 0.0
N133 N 0.55087 0.75952 0.6977 0.0
C134 C 0.51556 0.7397 0.7434 0.0
C135 C 0.50539 0.70762 0.73524 0.0
C136 C 0.51858 0.70192 0.708 0.0
C137 C 0.54103 0.72805 0.68962 0.0
C138 C 0.5381 0.76498 0.72455 0.0
H139 H 0.55012 0.72228 0.66897 0.0
H140 H 0.54492 0.78877 0.73232 0.0
H141 H 0.6186 0.87055 0.67679 0.0
H142 H 0.62008 0.80535 0.60918 0.0
C143 C 0.58648 0.74585 0.62027 0.0
C144 C 0.63985 0.79055 0.7197 0.0
C145 C 0.52091 0.79694 0.62701 0.0
C146 C 0.58091 0.84839 0.72263 0.0
H147 H 0.66165 0.75088 0.68928 0.0
H148 H 0.63266 0.72645 0.63446 0.0
H149 H 0.54242 0.72757 0.56868 0.0
H150 H 0.50733 0.7562 0.57197 0.0
H151 H 0.50011 0.83736 0.6576 0.0
H152 H 0.53331 0.86626 0.70947 0.0
H153 H 0.62448 0.86548 0.77483 0.0
H154 H 0.65652 0.83324 0.77297 0.0
H155 H 0.65058 0.91538 0.64282 0.0
H156 H 0.65199 0.84948 0.57386 0.0
H157 H 0.50651 0.74541 0.76458 0.0
H158 H 0.51129 0.67743 0.70063 0.0
C159 C 0.85721 0.63005 0.02106 0.0
C160 C 0.88849 0.64328 0.00924 0.0
C161 C 0.88612 0.62823 0.98101 0.0
C162 C 0.85365 0.60693 0.97714 0.0
N163 N 0.83508 0.60782 1.00095 0.0
Co164 Co 0.78678 0.58104 0.00492 0.0
N165 N 0.7838 0.55538 0.96605 0.0
C166 C 0.80871 0.5582 0.94824 0.0
C167 C 0.79923 0.53698 0.92326 0.0
C168 C 0.76624 0.5197 0.92504 0.0
C169 C 0.75749 0.53162 0.95101 0.0
N170 N 0.73827 0.55494 0.00825 0.0
C171 C 0.7162 0.53202 0.98851 0.0
C172 C 0.68469 0.52135 0.99853 0.0
C173 C 0.68688 0.53825 0.02545 0.0
C174 C 0.71944 0.5583 0.03023 0.0
N175 N 0.79003 0.60595 0.04457 0.0
C176 C 0.76528 0.60224 0.06323 0.0
C177 C 0.77511 0.62083 0.09017 0.0
C178 C 0.80815 0.63692 0.08903 0.0
C179 C 0.81659 0.62734 0.06121 0.0
N180 N 0.78209 0.61303 0.97835 0.0
C181 C 0.76787 0.65155 0.93791 0.0
C182 C 0.75669 0.64538 0.96917 0.0
C183 C 0.76408 0.62638 0.98878 0.0
C184 C 0.78791 0.63964 0.9278 0.0
C185 C 0.79479 0.62074 0.9483 0.0
N186 N 0.79115 0.54897 0.03138 0.0
C187 C 0.77416 0.5129 0.07655 0.0
C188 C 0.79778 0.50444 0.07031 0.0
C189 C 0.81809 0.51871 0.04414 0.0
C190 C 0.81433 0.54068 0.02507 0.0
C191 C 0.77129 0.53493 0.05701 0.0
H192 H 0.83046 0.55073 0.0054 0.0
H193 H 0.75294 0.54041 0.06331 0.0
H194 H 0.75432 0.62237 0.01207 0.0
H195 H 0.80979 0.61202 0.93899 0.0
C196 C 0.84042 0.58297 0.95383 0.0
C197 C 0.85002 0.63777 0.05239 0.0
C198 C 0.72389 0.52054 0.95951 0.0
C199 C 0.7331 0.58023 0.05532 0.0
H200 H 0.9108 0.66115 0.02044 0.0
H201 H 0.90583 0.63133 0.96588 0.0
H202 H 0.81442 0.53499 0.90533 0.0
H203 H 0.75036 0.50096 0.90864 0.0
H204 H 0.66241 0.50349 0.98732 0.0
H205 H 0.66708 0.53636 0.03967 0.0
H206 H 0.76005 0.62185 0.10886 0.0
H207 H 0.82415 0.65323 0.10706 0.0
H208 H 0.7419 0.65488 0.97849 0.0
H209 H 0.79735 0.64387 0.90383 0.0
H210 H 0.75818 0.50298 0.09683 0.0
H211 H 0.83659 0.51272 0.03815 0.0
C212 C 0.22934 0.8575 0.35243 0.0
C213 C 0.25062 0.88838 0.34111 0.0
C214 C 0.26403 0.88448 0.31408 0.0
C215 C 0.25033 0.85163 0.31051 0.0
N216 N 0.22852 0.8342 0.33331 0.0
Co217 Co 0.20444 0.78584 0.33837 0.0
N218 N 0.22682 0.78031 0.30048 0.0
C219 C 0.249 0.80403 0.2816 0.0
C220 C 0.25922 0.79285 0.25676 0.0
C221 C 0.24236 0.75997 0.25969 0.0
C222 C 0.22282 0.75297 0.28638 0.0
N223 N 0.18053 0.73748 0.3436 0.0
C224 C 0.18096 0.71419 0.32541 0.0
C225 C 0.16031 0.68339 0.33722 0.0
C226 C 0.14597 0.68729 0.36358 0.0
C227 C 0.15869 0.72011 0.36643 0.0
N228 N 0.18194 0.79142 0.37614 0.0
C229 C 0.15876 0.76773 0.3943 0.0
C230 C 0.1488 0.77913 0.4192 0.0
C231 C 0.16706 0.81208 0.41718 0.0
C232 C 0.18722 0.81883 0.3911 0.0
N233 N 0.16924 0.78216 0.31013 0.0
C234 C 0.119 0.77188 0.26789 0.0
C235 C 0.11213 0.75704 0.29762 0.0
C236 C 0.13733 0.76241 0.31811 0.0
C237 C 0.15144 0.79283 0.26002 0.0
C238 C 0.17596 0.79785 0.28147 0.0
N239 N 0.2395 0.78934 0.36657 0.0
C240 C 0.25651 0.77839 0.41689 0.0
C241 C 0.28894 0.79612 0.40788 0.0
C242 C 0.29638 0.81009 0.37774 0.0
C243 C 0.27146 0.80674 0.35771 0.0
C244 C 0.23236 0.77495 0.39589 0.0
H245 H 0.27863 0.81867 0.33533 0.0
H246 H 0.2081 0.76065 0.40403 0.0
H247 H 0.13028 0.7497 0.33998 0.0
H248 H 0.20015 0.81416 0.2741 0.0
C249 C 0.25904 0.83656 0.28727 0.0
C250 C 0.21208 0.85157 0.38246 0.0
C251 C 0.19994 0.71998 0.29651 0.0
C252 C 0.14919 0.73515 0.38911 0.0
H253 H 0.25656 0.91137 0.35174 0.0
H254 H 0.28241 0.90336 0.29939 0.0
H255 H 0.27641 0.80692 0.23837 0.0
H256 H 0.24387 0.74308 0.24358 0.0
H257 H 0.15577 0.66046 0.32749 0.0
H258 H 0.1279 0.6684 0.3785 0.0
H259 H 0.13126 0.76516 0.43738 0.0
H260 H 0.16632 0.82923 0.43352 0.0
H261 H 0.08738 0.74039 0.30473 0.0
H262 H 0.15791 0.80527 0.23739 0.0
H263 H 0.24977 0.76687 0.43998 0.0
H264 H 0.32135 0.8241 0.36995 0.0
C265 C 0.37125 0.22915 0.68496 0.0
C266 C 0.35951 0.2485 0.67311 0.0
C267 C 0.37531 0.26112 0.64519 0.0
C268 C 0.3957 0.24883 0.64159 0.0
N269 N 0.39359 0.22877 0.66532 0.0
Co270 Co 0.41923 0.20604 0.66978 0.0
N271 N 0.44618 0.2288 0.63159 0.0
C272 C 0.44459 0.25166 0.61389 0.0
C273 C 0.46684 0.26373 0.58979 0.0
C274 C 0.48356 0.24748 0.59206 0.0
C275 C 0.47023 0.2261 0.61735 0.0
N276 N 0.44401 0.18231 0.67352 0.0
C277 C 0.46717 0.1828 0.65437 0.0
C278 C 0.4763 0.16071 0.66429 0.0
C279 C 0.4583 0.14574 0.69058 0.0
C280 C 0.43911 0.15927 0.69512 0.0
N281 N 0.39325 0.18448 0.7089 0.0
C282 C 0.39565 0.16266 0.72754 0.0
C283 C 0.37629 0.1539 0.75396 0.0
C284 C 0.3611 0.17172 0.7525 0.0
C285 C 0.37212 0.19031 0.72514 0.0
N286 N 0.38717 0.17019 0.64245 0.0
C287 C 0.34872 0.11831 0.60108 0.0
C288 C 0.35309 0.11273 0.63273 0.0
C289 C 0.3721 0.13871 0.65279 0.0
C290 C 0.3623 0.15047 0.59101 0.0
C291 C 0.3811 0.17583 0.61197 0.0
N292 N 0.45134 0.24162 0.697 0.0
C293 C 0.48667 0.25919 0.74273 0.0
C294 C 0.49599 0.29156 0.73693 0.0
C295 C 0.48252 0.29851 0.7107 0.0
C296 C 0.46047 0.27337 0.69113 0.0
C297 C 0.46458 0.23489 0.72269 0.0
H298 H 0.45105 0.28014 0.67145 0.0
H299 H 0.45839 0.21075 0.72863 0.0
H300 H 0.3747 0.13248 0.67636 0.0
H301 H 0.39108 0.19973 0.6027 0.0
C302 C 0.42024 0.25931 0.61891 0.0
C303 C 0.36249 0.2138 0.71607 0.0
C304 C 0.48041 0.20288 0.62607 0.0
C305 C 0.41682 0.15139 0.71981 0.0
H306 H 0.34226 0.25397 0.68408 0.0
H307 H 0.37343 0.27855 0.63019 0.0
H308 H 0.47 0.28163 0.5722 0.0
H309 H 0.50296 0.2506 0.57646 0.0
H310 H 0.49386 0.15562 0.65345 0.0
H311 H 0.45896 0.12704 0.70461 0.0
H312 H 0.374 0.13707 0.7724 0.0
H313 H 0.3442 0.1715 0.76983 0.0
H314 H 0.3422 0.0883 0.64203 0.0
H315 H 0.35947 0.15615 0.56676 0.0
H316 H 0.49597 0.25245 0.76303 0.0
H317 H 0.4892 0.32326 0.70503 0.0
H318 H 0.19888 0.30797 0.89005 0.0
H319 H 0.21661 0.28008 0.85314 0.0
H320 H 0.31302 0.3322 0.89233 0.0
H321 H 0.29575 0.36037 0.92888 0.0
H322 H 0.26661 0.30742 0.80724 0.0
H323 H 0.29108 0.23728 0.89701 0.0
H324 H 0.26724 0.25625 0.90562 0.0
H325 H 0.31078 0.27993 0.90527 0.0
C326 C 0.22388 0.31356 0.89073 0.0
C327 C 0.2458 0.33618 0.91268 0.0
C328 C 0.23391 0.29749 0.86974 0.0
C329 C 0.26596 0.30361 0.87045 0.0
C330 C 0.28796 0.32648 0.89196 0.0
H331 H 0.3903 0.2542 0.766 0.0
H332 H 0.36464 0.27417 0.80338 0.0
C333 C 0.27801 0.34254 0.91287 0.0
C334 C 0.2769 0.28698 0.84808 0.0
H335 H 0.31209 0.23973 0.84504 0.0
C336 C 0.27619 0.29229 0.81541 0.0
C337 C 0.28942 0.2673 0.85888 0.0
C338 C 0.28944 0.25955 0.89359 0.0
C339 C 0.28885 0.27945 0.7933 0.0
C340 C 0.30201 0.26033 0.80417 0.0
C341 C 0.30206 0.25446 0.83679 0.0
C342 C 0.31697 0.24723 0.78218 0.0
C343 C 0.28917 0.28747 0.75861 0.0
C344 C 0.29852 0.225 0.75833 0.0
C345 C 0.31316 0.21365 0.73707 0.0
C346 C 0.34637 0.22432 0.73949 0.0
C347 C 0.36463 0.24582 0.76381 0.0
C348 C 0.35002 0.25716 0.78505 0.0
H349 H 0.285 0.30821 0.75503 0.0
H350 H 0.31262 0.29341 0.74745 0.0
H351 H 0.26961 0.26612 0.74614 0.0
H352 H 0.27286 0.21654 0.75609 0.0
H353 H 0.29872 0.19686 0.71852 0.0
H354 H 0.88745 0.24848 0.20623 0.0
H355 H 0.93317 0.26683 0.16968 0.0
H356 H 0.9878 0.25054 0.24166 0.0
H357 H 0.94216 0.23225 0.27843 0.0
H358 H 0.0223 0.31013 0.21485 0.0
H359 H 0.96743 0.21697 0.12065 0.0
H360 H 0.94404 0.23609 0.12937 0.0
H361 H 0.94909 0.21201 0.15927 0.0
C362 C 0.90894 0.24815 0.21407 0.0
C363 C 0.91115 0.23884 0.24523 0.0
C364 C 0.93506 0.25863 0.19313 0.0
C365 C 0.96377 0.25965 0.20277 0.0
C366 C 0.96585 0.24987 0.23368 0.0
H367 H 0.12427 0.30175 0.07369 0.0
H368 H 0.07953 0.27575 0.1121 0.0
C369 C 0.9398 0.23952 0.25469 0.0
C370 C 0.99232 0.27293 0.18136 0.0
H371 H 0.0172 0.26489 0.10759 0.0
C372 C 0.02127 0.30005 0.1915 0.0
C373 C 0.9911 0.25955 0.15106 0.0
C374 C 0.96135 0.22935 0.13953 0.0
C375 C 0.04871 0.31472 0.17184 0.0
C376 C 0.04698 0.30231 0.14095 0.0
C377 C 0.01837 0.2746 0.13115 0.0
C378 C 0.07439 0.31809 0.11827 0.0
C379 C 0.07937 0.34325 0.18445 0.0
C380 C 0.08605 0.35032 0.10879 0.0
C381 C 0.11161 0.36512 0.08717 0.0
C382 C 0.12577 0.34787 0.07454 0.0
C383 C 0.11389 0.31553 0.08358 0.0
C384 C 0.08835 0.30072 0.10532 0.0
H385 H 0.07975 0.34365 0.21081 0.0
H386 H 0.10119 0.34285 0.17581 0.0
H387 H 0.08079 0.36604 0.17616 0.0
H388 H 0.07514 0.36393 0.11786 0.0
H389 H 0.12024 0.38999 0.0801 0.0
H390 H 0.74125 0.13079 0.42498 0.0
H391 H 0.72104 0.08548 0.46265 0.0
H392 H 0.79999 0.06986 0.43731 0.0
H393 H 0.82044 0.11566 0.4 0.0
H394 H 0.70092 0.0218 0.44834 0.0
H395 H 0.80319 0.06993 0.53405 0.0
H396 H 0.7984 0.09539 0.50539 0.0
H397 H 0.8145 0.07003 0.49337 0.0
C398 C 0.75442 0.11787 0.42793 0.0
C399 C 0.78243 0.1266 0.41009 0.0
C400 C 0.7429 0.09203 0.44928 0.0
C401 C 0.75923 0.07454 0.4531 0.0
C402 C 0.7874 0.08344 0.43527 0.0
H403 H 0.70511 0.89991 0.56622 0.0
H404 H 0.73182 0.94476 0.52814 0.0
C405 C 0.79899 0.1094 0.41395 0.0
C406 C 0.74567 0.04603 0.47456 0.0
H407 H 0.76132 0.01557 0.54142 0.0
C408 C 0.71415 0.02046 0.46868 0.0
C409 C 0.76305 0.04422 0.50098 0.0
C410 C 0.79656 0.07144 0.50909 0.0
C411 C 0.69943 0.99326 0.48861 0.0
C412 C 0.71656 0.99172 0.5153 0.0
C413 C 0.74833 0.01688 0.52086 0.0
C414 C 0.70106 0.96497 0.53859 0.0
C415 C 0.66563 0.96632 0.48099 0.0
C416 C 0.67528 0.96183 0.55724 0.0
C417 C 0.66009 0.93642 0.57891 0.0
C418 C 0.67039 0.91359 0.58243 0.0
C419 C 0.69646 0.91694 0.56386 0.0
C420 C 0.71182 0.94259 0.54226 0.0
H421 H 0.65885 0.96751 0.45601 0.0
H422 H 0.66339 0.94226 0.48516 0.0
H423 H 0.64807 0.96838 0.49674 0.0
H424 H 0.66682 0.97903 0.55493 0.0
H425 H 0.63984 0.93432 0.59255 0.0
H426 H 0.80432 0.69721 0.89285 0.0
H427 H 0.78648 0.72545 0.85654 0.0
H428 H 0.69042 0.6736 0.89661 0.0
H429 H 0.70783 0.6452 0.93263 0.0
H430 H 0.73686 0.69884 0.81109 0.0
H431 H 0.71173 0.76797 0.90148 0.0
H432 H 0.73539 0.74882 0.91001 0.0
H433 H 0.69184 0.72527 0.90942 0.0
C434 C 0.77939 0.6918 0.89389 0.0
C435 C 0.7576 0.66918 0.91591 0.0
C436 C 0.76928 0.70806 0.87323 0.0
C437 C 0.7373 0.7021 0.87433 0.0
C438 C 0.71544 0.67924 0.89595 0.0
H439 H 0.61212 0.75017 0.76968 0.0
H440 H 0.63805 0.73078 0.80735 0.0
C441 C 0.72547 0.66303 0.91655 0.0
C442 C 0.72623 0.71878 0.85216 0.0
H443 H 0.69047 0.76554 0.84959 0.0
C444 C 0.72709 0.71377 0.81944 0.0
C445 C 0.71346 0.73819 0.86315 0.0
C446 C 0.71329 0.74568 0.89791 0.0
C447 C 0.71436 0.72664 0.79746 0.0
C448 C 0.70093 0.74547 0.80852 0.0
C449 C 0.70071 0.75104 0.84119 0.0
C450 C 0.68588 0.75854 0.78664 0.0
C451 C 0.71425 0.71896 0.7627 0.0
C452 C 0.70433 0.78111 0.76304 0.0
C453 C 0.68955 0.79215 0.74163 0.0
C454 C 0.65618 0.78082 0.74365 0.0
C455 C 0.63791 0.75909 0.76781 0.0
C456 C 0.65268 0.74806 0.78921 0.0
H457 H 0.71875 0.69846 0.7589 0.0
H458 H 0.69074 0.71284 0.75154 0.0
H459 H 0.73366 0.74055 0.75038 0.0
H460 H 0.73009 0.78996 0.76103 0.0
H461 H 0.70398 0.80909 0.72319 0.0
H462 H 0.88339 0.61236 0.08061 0.0
H463 H 0.92889 0.63901 0.11782 0.0
H464 H 0.92201 0.72589 0.11382 0.0
H465 H 0.87691 0.69934 0.07588 0.0
H466 H 0.98471 0.73865 0.10861 0.0
H467 H 0.92467 0.65771 0.21109 0.0
H468 H 0.92405 0.63601 0.17605 0.0
H469 H 0.90256 0.65815 0.17649 0.0
C470 C 0.89155 0.63706 0.08795 0.0
C471 C 0.87658 0.65378 0.07595 0.0
C472 C 0.91735 0.6522 0.10926 0.0
C473 C 0.92843 0.68423 0.1191 0.0
C474 C 0.91366 0.70108 0.10677 0.0
H475 H 0.06056 0.7678 0.2794 0.0
H476 H 0.01489 0.75006 0.2428 0.0
C477 C 0.8879 0.68595 0.08531 0.0
C478 C 0.95599 0.70032 0.14158 0.0
H479 H 0.98204 0.69214 0.2146 0.0
C480 C 0.98406 0.72866 0.13191 0.0
C481 C 0.95494 0.68756 0.17215 0.0
C482 C 0.92482 0.65838 0.18473 0.0
C483 C 0.01147 0.74403 0.15161 0.0
C484 C 0.01098 0.7303 0.18153 0.0
C485 C 0.98255 0.70251 0.19154 0.0
C486 C 0.03974 0.74389 0.20273 0.0
C487 C 0.04054 0.77496 0.14028 0.0
C488 C 0.06901 0.74657 0.19236 0.0
C489 C 0.0952 0.75688 0.21319 0.0
C490 C 0.09245 0.76423 0.24495 0.0
C491 C 0.06331 0.76206 0.25514 0.0
C492 C 0.03724 0.752 0.23423 0.0
H493 H 0.03363 0.7874 0.12221 0.0
H494 H 0.05282 0.79194 0.16027 0.0
H495 H 0.0581 0.76913 0.12912 0.0
H496 H 0.07128 0.73966 0.16843 0.0
H497 H 0.11714 0.75779 0.2048 0.0
H498 H 0.30626 0.11146 0.55335 0.0
H499 H 0.2785 0.06595 0.51631 0.0
H500 H 0.32418 0.01762 0.56091 0.0
H501 H 0.35223 0.0629 0.59759 0.0
H502 H 0.30644 0.04113 0.47341 0.0
H503 H 0.22784 0.94795 0.56099 0.0
H504 H 0.24808 0.99083 0.5695 0.0
H505 H 0.26995 0.96917 0.57172 0.0
C506 C 0.31044 0.09117 0.55522 0.0
C507 C 0.33124 0.09071 0.57869 0.0
C508 C 0.29444 0.06514 0.53414 0.0
C509 C 0.2988 0.03815 0.53628 0.0
C510 C 0.3198 0.03781 0.55939 0.0
H511 H 0.24869 0.86268 0.43517 0.0
H512 H 0.26783 0.90846 0.47223 0.0
C513 C 0.33579 0.06374 0.58038 0.0
C514 C 0.28246 0.01075 0.5137 0.0
H515 H 0.23256 0.92869 0.51008 0.0
C516 C 0.28995 0.01659 0.48131 0.0
C517 C 0.26102 0.97877 0.52414 0.0
C518 C 0.25096 0.97126 0.55845 0.0
C519 C 0.27757 0.99109 0.45921 0.0
C520 C 0.2567 0.95901 0.46977 0.0
C521 C 0.24863 0.95329 0.50206 0.0
C522 C 0.24404 0.93089 0.4479 0.0
C523 C 0.28796 0.99854 0.42496 0.0
C524 C 0.22382 0.92802 0.42236 0.0
C525 C 0.21295 0.90194 0.40128 0.0
C526 C 0.22208 0.8784 0.40556 0.0
C527 C 0.24153 0.88074 0.43153 0.0
C528 C 0.2524 0.90679 0.45259 0.0
H529 H 0.30958 0.02302 0.42209 0.0
H530 H 0.29358 0.98032 0.41501 0.0
H531 H 0.26789 0.99769 0.41084 0.0
H532 H 0.21656 0.94599 0.41869 0.0
H533 H 0.19774 0.90029 0.38144 0.0
H534 H 0.23985 0.69482 0.29056 0.0
H535 H 0.23503 0.65351 0.25252 0.0
H536 H 0.14471 0.64272 0.2186 0.0
H537 H 0.14955 0.68402 0.25679 0.0
H538 H 0.14514 0.58267 0.22714 0.0
H539 H 0.24921 0.6734 0.15593 0.0
H540 H 0.25768 0.67299 0.19742 0.0
H541 H 0.22888 0.6847 0.18513 0.0
C542 C 0.21883 0.68322 0.27521 0.0
C543 C 0.19509 0.69241 0.27629 0.0
C544 C 0.21616 0.65988 0.25344 0.0
C545 C 0.18977 0.64549 0.23244 0.0
C546 C 0.16531 0.65367 0.23451 0.0
H547 H 0.18822 0.54265 0.06007 0.0
H548 H 0.18216 0.57841 0.09789 0.0
C549 C 0.16802 0.6771 0.25626 0.0
C550 C 0.18836 0.62278 0.20762 0.0
H551 H 0.22859 0.61806 0.14261 0.0
C552 C 0.16326 0.59037 0.20855 0.0
C553 C 0.21171 0.63309 0.18309 0.0
C554 C 0.23825 0.668 0.18002 0.0
C555 C 0.16155 0.56771 0.18614 0.0
C556 C 0.18573 0.57774 0.16243 0.0
C557 C 0.2102 0.61038 0.16094 0.0
C558 C 0.18686 0.55462 0.13961 0.0
C559 C 0.13382 0.53327 0.18794 0.0
C560 C 0.19148 0.52942 0.15054 0.0
C561 C 0.19492 0.509 0.12906 0.0
C562 C 0.19396 0.51346 0.09615 0.0
C563 C 0.18877 0.5384 0.08525 0.0
C564 C 0.18546 0.55893 0.1068 0.0
H565 H 0.11298 0.53161 0.20139 0.0
H566 H 0.12543 0.52303 0.16385 0.0
H567 H 0.14208 0.51814 0.20032 0.0
H568 H 0.19319 0.52599 0.17573 0.0
H569 H 0.19856 0.48981 0.13822 0.0
H570 H 0.46932 0.17833 0.56626 0.0
H571 H 0.50818 0.17566 0.52993 0.0
H572 H 0.58172 0.21605 0.60264 0.0
H573 H 0.54299 0.21958 0.63863 0.0
H574 H 0.60354 0.24657 0.54634 0.0
H575 H 0.54284 0.11378 0.52739 0.0
H576 H 0.51718 0.13038 0.5188 0.0
H577 H 0.53114 0.13169 0.55873 0.0
C578 C 0.49372 0.18625 0.57445 0.0
C579 C 0.5033 0.19893 0.60513 0.0
C580 C 0.51581 0.18453 0.55384 0.0
C581 C 0.54772 0.1951 0.56374 0.0
C582 C 0.55717 0.20753 0.59459 0.0
H583 H 0.71956 0.21225 0.47388 0.0
H584 H 0.67884 0.2093 0.5111 0.0
C585 C 0.53512 0.20944 0.61513 0.0
C586 C 0.57178 0.19508 0.54133 0.0
H587 H 0.58662 0.14664 0.49249 0.0
C588 C 0.59994 0.22467 0.53477 0.0
C589 C 0.56701 0.1665 0.52614 0.0
C590 C 0.53806 0.13374 0.53332 0.0
C591 C 0.6232 0.22654 0.51311 0.0
C592 C 0.61829 0.19804 0.49778 0.0
C593 C 0.59018 0.16845 0.50424 0.0
C594 C 0.64241 0.19861 0.47523 0.0
C595 C 0.65263 0.25908 0.50633 0.0
C596 C 0.63512 0.19289 0.44281 0.0
C597 C 0.65847 0.19485 0.42134 0.0
C598 C 0.68947 0.20236 0.432 0.0
C599 C 0.69624 0.20715 0.46471 0.0
C600 C 0.67296 0.20533 0.48607 0.0
H601 H 0.64966 0.27943 0.51513 0.0
H602 H 0.67405 0.26045 0.51826 0.0
H603 H 0.65768 0.26225 0.48045 0.0
H604 H 0.61159 0.1876 0.43404 0.0
H605 H 0.65248 0.19128 0.39634 0.0
H606 H 0.50626 0.65302 0.75438 0.0
H607 H 0.46792 0.61029 0.79007 0.0
H608 H 0.41269 0.65921 0.79791 0.0
H609 H 0.4503 0.70143 0.76184 0.0
H610 H 0.45331 0.61836 0.85295 0.0
H611 H 0.34337 0.56565 0.77744 0.0
H612 H 0.38358 0.59145 0.76176 0.0
H613 H 0.36241 0.60886 0.78156 0.0
C614 C 0.48562 0.65433 0.76329 0.0
C615 C 0.48132 0.68061 0.7553 0.0
C616 C 0.46388 0.63004 0.78381 0.0
C617 C 0.43728 0.63141 0.79636 0.0
C618 C 0.43274 0.65739 0.78811 0.0
H619 H 0.32205 0.54701 0.96434 0.0
H620 H 0.36246 0.5817 0.92473 0.0
C621 C 0.45446 0.68168 0.76774 0.0
C622 C 0.41501 0.60663 0.81926 0.0
H623 H 0.33519 0.55192 0.83252 0.0
C624 C 0.42753 0.60356 0.84839 0.0
C625 C 0.38146 0.58711 0.81312 0.0
C626 C 0.3669 0.58814 0.78165 0.0
C627 C 0.40717 0.58231 0.872 0.0
C628 C 0.37339 0.564 0.86645 0.0
C629 C 0.36106 0.56622 0.83688 0.0
C630 C 0.35027 0.54284 0.89113 0.0
C631 C 0.42202 0.57961 0.90264 0.0
C632 C 0.32971 0.50966 0.88519 0.0
C633 C 0.30666 0.49 0.90768 0.0
C634 C 0.30375 0.50326 0.93638 0.0
C635 C 0.32431 0.53635 0.94247 0.0
C636 C 0.34739 0.55603 0.91996 0.0
H637 H 0.44817 0.58775 0.89973 0.0
H638 H 0.41983 0.59526 0.92082 0.0
H639 H 0.40936 0.55429 0.91159 0.0
H640 H 0.33136 0.49905 0.86302 0.0
H641 H 0.29075 0.46453 0.90255 0.0
H642 H 0.74929 0.44851 0.09626 0.0
H643 H 0.75436 0.41209 0.13357 0.0
H644 H 0.85852 0.47007 0.12833 0.0
H645 H 0.85367 0.5074 0.09172 0.0
H646 H 0.78389 0.37526 0.12698 0.0
H647 H 0.84108 0.46561 0.22383 0.0
H648 H 0.82212 0.47244 0.18993 0.0
H649 H 0.86194 0.47738 0.18644 0.0
C650 C 0.77331 0.45372 0.10322 0.0
C651 C 0.80108 0.48111 0.09126 0.0
C652 C 0.77615 0.43274 0.12439 0.0
C653 C 0.80679 0.43866 0.13415 0.0
C654 C 0.83462 0.4654 0.12158 0.0
H655 H 0.83318 0.29384 0.2373 0.0
H656 H 0.83717 0.33399 0.19826 0.0
C657 C 0.83181 0.48648 0.10037 0.0
C658 C 0.80927 0.41671 0.15754 0.0
H659 H 0.83497 0.41382 0.23253 0.0
C660 C 0.79518 0.38369 0.15001 0.0
C661 C 0.82364 0.42773 0.18772 0.0
C662 C 0.83783 0.46265 0.1977 0.0
C663 C 0.79494 0.36133 0.17187 0.0
C664 C 0.80974 0.37242 0.20188 0.0
C665 C 0.82391 0.40545 0.2094 0.0
C666 C 0.80951 0.34983 0.22625 0.0
C667 C 0.77793 0.32589 0.16299 0.0
C668 C 0.79371 0.34631 0.25538 0.0
C669 C 0.79175 0.32369 0.27771 0.0
C670 C 0.8057 0.30445 0.27125 0.0
C671 C 0.82229 0.30855 0.24259 0.0
C672 C 0.82435 0.33124 0.2203 0.0
H673 H 0.76118 0.32049 0.14262 0.0
H674 H 0.79626 0.31914 0.15607 0.0
H675 H 0.76391 0.31045 0.18336 0.0
H676 H 0.78218 0.36048 0.26047 0.0
H677 H 0.77875 0.32066 0.2997 0.0
H678 H 0.30074 0.82191 0.46718 0.0
H679 H 0.34208 0.82659 0.50479 0.0
H680 H 0.37447 0.78103 0.43679 0.0
H681 H 0.33434 0.77814 0.39859 0.0
H682 H 0.34912 0.78343 0.53341 0.0
H683 H 0.45964 0.85421 0.46159 0.0
H684 H 0.42077 0.84826 0.44942 0.0
H685 H 0.4316 0.81768 0.44147 0.0
C686 C 0.31708 0.81336 0.46023 0.0
C687 C 0.31469 0.79994 0.43002 0.0
C688 C 0.34062 0.81595 0.48169 0.0
C689 C 0.36192 0.80471 0.47353 0.0
C690 C 0.3592 0.79092 0.44336 0.0
H691 H 0.45986 0.74879 0.61221 0.0
H692 H 0.42136 0.75152 0.57563 0.0
C693 C 0.33612 0.78903 0.42161 0.0
C694 C 0.38572 0.80591 0.4972 0.0
H695 H 0.46503 0.827 0.50702 0.0
C696 C 0.37455 0.79331 0.52769 0.0
C697 C 0.41908 0.81931 0.49013 0.0
C698 C 0.43352 0.83595 0.45899 0.0
C699 C 0.39553 0.79312 0.55099 0.0
C700 C 0.42842 0.80454 0.54321 0.0
C701 C 0.43976 0.8178 0.51296 0.0
C702 C 0.4515 0.80286 0.5659 0.0
C703 C 0.38219 0.78131 0.58383 0.0
C704 C 0.48181 0.83044 0.57186 0.0
C705 C 0.50421 0.82857 0.5919 0.0
C706 C 0.49656 0.79919 0.60665 0.0
C707 C 0.46615 0.77173 0.60114 0.0
C708 C 0.44405 0.7734 0.58054 0.0
H709 H 0.3611 0.7846 0.58883 0.0
H710 H 0.37366 0.75501 0.58556 0.0
H711 H 0.40083 0.79426 0.60238 0.0
H712 H 0.48826 0.85342 0.5608 0.0
H713 H 0.52763 0.85 0.59572 0.0
H714 H 0.551 0.29726 0.7634 0.0
H715 H 0.58778 0.33811 0.80105 0.0
H716 H 0.53174 0.38636 0.79583 0.0
H717 H 0.4941 0.34488 0.75885 0.0
H718 H 0.62574 0.40462 0.79431 0.0
H719 H 0.53588 0.37288 0.89142 0.0
H720 H 0.52861 0.34693 0.85754 0.0
H721 H 0.52422 0.38213 0.85405 0.0
C722 C 0.54629 0.31638 0.77046 0.0
C723 C 0.51939 0.3176 0.75835 0.0
C724 C 0.56747 0.33983 0.79182 0.0
C725 C 0.56221 0.36497 0.80163 0.0
C726 C 0.5359 0.36681 0.78902 0.0
H727 H 0.70764 0.53643 0.90335 0.0
H728 H 0.66721 0.49973 0.86478 0.0
C729 C 0.51464 0.34331 0.76761 0.0
C730 C 0.58446 0.38916 0.825 0.0
H731 H 0.58796 0.41834 0.89985 0.0
C732 C 0.61748 0.40773 0.81735 0.0
C733 C 0.57366 0.39282 0.8552 0.0
C734 C 0.53873 0.37247 0.86528 0.0
C735 C 0.64004 0.42987 0.83905 0.0
C736 C 0.62916 0.43395 0.86903 0.0
C737 C 0.59615 0.41536 0.87673 0.0
C738 C 0.65194 0.45656 0.89311 0.0
C739 C 0.67545 0.44803 0.83002 0.0
C740 C 0.65589 0.44461 0.92224 0.0
C741 C 0.67871 0.46556 0.94428 0.0
C742 C 0.6977 0.49872 0.93753 0.0
C743 C 0.69313 0.51085 0.90886 0.0
C744 C 0.67029 0.48994 0.88685 0.0
H745 H 0.68065 0.43648 0.80968 0.0
H746 H 0.68235 0.47312 0.82301 0.0
H747 H 0.69091 0.44943 0.85036 0.0
H748 H 0.6419 0.41896 0.92755 0.0
H749 H 0.68208 0.45584 0.96627 0.0
loop_
_geom_bond_atom_site_label_1
_geom_bond_atom_site_label_2
_geom_bond_distance
_geom_bond_site_symmetry_2
_ccdc_geom_bond_type
C0 C1 1.443 . S
C0 N4 1.376 . S
C0 C38 1.389 . S
C1 C0 1.443 . S
C1 C2 1.340 1_554 S
C1 H41 0.951 . S
C2 C1 1.340 1_556 S
C2 C3 1.439 . S
C2 H42 0.950 . S
C3 C2 1.439 . S
C3 N4 1.374 1_556 S
C3 C37 1.395 . S
N4 C0 1.376 . S
N4 C3 1.374 1_554 S
N4 Co5 2.008 . S
Co5 N4 2.008 . S
Co5 N6 1.995 1_554 S
Co5 N11 2.008 . S
Co5 N16 1.995 . S
Co5 N21 2.282 1_554 S
Co5 N27 2.282 . S
N6 Co5 1.995 1_556 S
N6 C7 1.376 . S
N6 C10 1.383 . S
C7 N6 1.376 . S
C7 C8 1.446 . S
C7 C37 1.391 . S
C8 C7 1.446 . S
C8 C9 1.339 . S
C8 H43 0.949 . S
C9 C8 1.339 . S
C9 C10 1.439 . S
C9 H44 0.950 . S
C10 N6 1.383 . S
C10 C9 1.439 . S
C10 C39 1.392 . S
N11 Co5 2.008 . S
N11 C12 1.376 1_554 S
N11 C15 1.374 . S
C12 N11 1.376 1_556 S
C12 C13 1.443 . S
C12 C39 1.389 . S
C13 C12 1.443 . S
C13 C14 1.340 1_556 S
C13 H45 0.951 . S
C14 C13 1.340 1_554 S
C14 C15 1.439 . S
C14 H46 0.950 . S
C15 N11 1.374 . S
C15 C14 1.439 . S
C15 C40 1.395 . S
N16 Co5 1.995 . S
N16 C17 1.376 . S
N16 C20 1.383 . S
C17 N16 1.376 . S
C17 C18 1.446 . S
C17 C40 1.391 . S
C18 C17 1.446 . S
C18 C19 1.339 . S
C18 H47 0.949 . S
C19 C18 1.339 . S
C19 C20 1.439 . S
C19 H48 0.950 . S
C20 N16 1.383 . S
C20 C19 1.439 . S
C20 C38 1.392 . S
N21 Co5 2.282 1_556 S
N21 C24 1.332 . S
N21 C26 1.332 . S
C22 C23 1.386 . S
C22 C25 1.388 . S
C23 C22 1.386 . S
C23 C24 1.382 . S
C23 H49 0.950 . S
C24 N21 1.332 . S
C24 C23 1.382 . S
C24 H35 0.952 1_556 S
C25 C22 1.388 . S
C25 C26 1.382 . S
C25 H50 0.950 . S
C26 N21 1.332 . S
C26 C25 1.382 . S
C26 H36 0.948 . S
N27 Co5 2.282 . S
N27 C31 1.332 . S
N27 C32 1.332 . S
C28 C29 1.388 . S
C28 C32 1.382 . S
C28 H51 0.950 . S
C29 C28 1.388 . S
C29 C30 1.386 . S
C30 C29 1.386 . S
C30 C31 1.382 . S
C30 H52 0.950 . S
C31 N27 1.332 . S
C31 C30 1.382 . S
C31 H33 0.952 . S
C32 N27 1.332 . S
C32 C28 1.382 . S
C32 H34 0.948 . S
H33 C31 0.952 . S
H34 C32 0.948 . S
H35 C24 0.952 1_554 S
H36 C26 0.948 . S
C37 C3 1.395 . S
C37 C7 1.391 . S
C38 C0 1.389 . S
C38 C20 1.392 . S
C39 C10 1.392 . S
C39 C12 1.389 . S
C40 C15 1.395 . S
C40 C17 1.391 . S
H41 C1 0.951 . S
H42 C2 0.950 . S
H43 C8 0.949 . S
H44 C9 0.950 . S
H45 C13 0.951 . S
H46 C14 0.950 . S
H47 C18 0.949 . S
H48 C19 0.950 . S
H49 C23 0.950 . S
H50 C25 0.950 . S
H51 C28 0.950 . S
H52 C30 0.950 . S
C53 C54 1.443 . S
C53 N57 1.376 . S
C53 C91 1.389 . S
C54 C53 1.443 . S
C54 C55 1.340 . S
C54 H94 0.951 . S
C55 C54 1.340 . S
C55 C56 1.439 . S
C55 H95 0.950 . S
C56 C55 1.439 . S
C56 N57 1.374 . S
C56 C90 1.395 . S
N57 C53 1.376 . S
N57 C56 1.374 . S
N57 Co58 2.008 . S
Co58 N57 2.008 . S
Co58 N59 1.995 . S
Co58 N64 2.008 . S
Co58 N69 1.995 . S
Co58 N74 2.282 . S
Co58 N80 2.282 . S
N59 Co58 1.995 . S
N59 C60 1.376 . S
N59 C63 1.383 . S
C60 N59 1.376 . S
C60 C61 1.446 . S
C60 C90 1.391 . S
C61 C60 1.446 . S
C61 C62 1.339 . S
C61 H96 0.949 . S
C62 C61 1.339 . S
C62 C63 1.439 . S
C62 H97 0.950 . S
C63 N59 1.383 . S
C63 C62 1.439 . S
C63 C92 1.392 . S
N64 Co58 2.008 . S
N64 C65 1.376 . S
N64 C68 1.374 . S
C65 N64 1.376 . S
C65 C66 1.443 . S
C65 C92 1.389 . S
C66 C65 1.443 . S
C66 C67 1.340 . S
C66 H98 0.951 . S
C67 C66 1.340 . S
C67 C68 1.439 . S
C67 H99 0.950 . S
C68 N64 1.374 . S
C68 C67 1.439 . S
C68 C93 1.395 . S
N69 Co58 1.995 . S
N69 C70 1.376 . S
N69 C73 1.383 . S
C70 N69 1.376 . S
C70 C71 1.446 . S
C70 C93 1.391 . S
C71 C70 1.446 . S
C71 C72 1.339 . S
C71 H100 0.949 . S
C72 C71 1.339 . S
C72 C73 1.439 . S
C72 H101 0.950 . S
C73 N69 1.383 . S
C73 C72 1.439 . S
C73 C91 1.392 . S
N74 Co58 2.282 . S
N74 C77 1.332 . S
N74 C79 1.332 . S
C75 C76 1.386 . S
C75 C78 1.388 . S
C76 C75 1.386 . S
C76 C77 1.382 . S
C76 H102 0.950 . S
C77 N74 1.332 . S
C77 C76 1.382 . S
C77 H88 0.952 . S
C78 C75 1.388 . S
C78 C79 1.382 . S
C78 H103 0.950 . S
C79 N74 1.332 . S
C79 C78 1.382 . S
C79 H89 0.948 . S
N80 Co58 2.282 . S
N80 C84 1.332 . S
N80 C85 1.332 . S
C81 C82 1.388 . S
C81 C85 1.382 . S
C81 H104 0.950 . S
C82 C81 1.388 . S
C82 C83 1.386 . S
C83 C82 1.386 . S
C83 C84 1.382 . S
C83 H105 0.950 . S
C84 N80 1.332 . S
C84 C83 1.382 . S
C84 H86 0.952 . S
C85 N80 1.332 . S
C85 C81 1.382 . S
C85 H87 0.948 . S
H86 C84 0.952 . S
H87 C85 0.948 . S
H88 C77 0.952 . S
H89 C79 0.948 . S
C90 C56 1.395 . S
C90 C60 1.391 . S
C91 C53 1.389 . S
C91 C73 1.392 . S
C92 C63 1.392 . S
C92 C65 1.389 . S
C93 C68 1.395 . S
C93 C70 1.391 . S
H94 C54 0.951 . S
H95 C55 0.950 . S
H96 C61 0.949 . S
H97 C62 0.950 . S
H98 C66 0.951 . S
H99 C67 0.950 . S
H100 C71 0.949 . S
H101 C72 0.950 . S
H102 C76 0.950 . S
H103 C78 0.950 . S
H104 C81 0.950 . S
H105 C83 0.950 . S
C106 C107 1.443 . S
C106 N110 1.376 . S
C106 C144 1.389 . S
C107 C106 1.443 . S
C107 C108 1.340 . S
C107 H147 0.951 . S
C108 C107 1.340 . S
C108 C109 1.439 . S
C108 H148 0.950 . S
C109 C108 1.439 . S
C109 N110 1.374 . S
C109 C143 1.395 . S
N110 C106 1.376 . S
N110 C109 1.374 . S
N110 Co111 2.008 . S
Co111 N110 2.008 . S
Co111 N112 1.995 . S
Co111 N117 2.008 . S
Co111 N122 1.995 . S
Co111 N127 2.282 . S
Co111 N133 2.282 . S
N112 Co111 1.995 . S
N112 C113 1.376 . S
N112 C116 1.383 . S
C113 N112 1.376 . S
C113 C114 1.446 . S
C113 C143 1.391 . S
C114 C113 1.446 . S
C114 C115 1.339 . S
C114 H149 0.949 . S
C115 C114 1.339 . S
C115 C116 1.439 . S
C115 H150 0.950 . S
C116 N112 1.383 . S
C116 C115 1.439 . S
C116 C145 1.392 . S
N117 Co111 2.008 . S
N117 C118 1.376 . S
N117 C121 1.374 . S
C118 N117 1.376 . S
C118 C119 1.443 . S
C118 C145 1.389 . S
C119 C118 1.443 . S
C119 C120 1.340 . S
C119 H151 0.951 . S
C120 C119 1.340 . S
C120 C121 1.439 . S
C120 H152 0.950 . S
C121 N117 1.374 . S
C121 C120 1.439 . S
C121 C146 1.395 . S
N122 Co111 1.995 . S
N122 C123 1.376 . S
N122 C126 1.383 . S
C123 N122 1.376 . S
C123 C124 1.446 . S
C123 C146 1.391 . S
C124 C123 1.446 . S
C124 C125 1.339 . S
C124 H153 0.949 . S
C125 C124 1.339 . S
C125 C126 1.439 . S
C125 H154 0.950 . S
C126 N122 1.383 . S
C126 C125 1.439 . S
C126 C144 1.392 . S
N127 Co111 2.282 . S
N127 C130 1.332 . S
N127 C132 1.332 . S
C128 C129 1.386 . S
C128 C131 1.388 . S
C129 C128 1.386 . S
C129 C130 1.382 . S
C129 H155 0.950 . S
C130 N127 1.332 . S
C130 C129 1.382 . S
C130 H141 0.952 . S
C131 C128 1.388 . S
C131 C132 1.382 . S
C131 H156 0.950 . S
C132 N127 1.332 . S
C132 C131 1.382 . S
C132 H142 0.948 . S
N133 Co111 2.282 . S
N133 C137 1.332 . S
N133 C138 1.332 . S
C134 C135 1.388 . S
C134 C138 1.382 . S
C134 H157 0.950 . S
C135 C134 1.388 . S
C135 C136 1.386 . S
C136 C135 1.386 . S
C136 C137 1.382 . S
C136 H158 0.950 . S
C137 N133 1.332 . S
C137 C136 1.382 . S
C137 H139 0.952 . S
C138 N133 1.332 . S
C138 C134 1.382 . S
C138 H140 0.948 . S
H139 C137 0.952 . S
H140 C138 0.948 . S
H141 C130 0.952 . S
H142 C132 0.948 . S
C143 C109 1.395 . S
C143 C113 1.391 . S
C144 C106 1.389 . S
C144 C126 1.392 . S
C145 C116 1.392 . S
C145 C118 1.389 . S
C146 C121 1.395 . S
C146 C123 1.391 . S
H147 C107 0.951 . S
H148 C108 0.950 . S
H149 C114 0.949 . S
H150 C115 0.950 . S
H151 C119 0.951 . S
H152 C120 0.950 . S
H153 C124 0.949 . S
H154 C125 0.950 . S
H155 C129 0.950 . S
H156 C131 0.950 . S
H157 C134 0.950 . S
H158 C136 0.950 . S
C159 C160 1.443 . S
C159 N163 1.376 . S
C159 C197 1.389 . S
C160 C159 1.443 . S
C160 C161 1.340 1_554 S
C160 H200 0.951 . S
C161 C160 1.340 1_556 S
C161 C162 1.439 . S
C161 H201 0.950 . S
C162 C161 1.439 . S
C162 N163 1.374 1_556 S
C162 C196 1.395 . S
N163 C159 1.376 . S
N163 C162 1.374 1_554 S
N163 Co164 2.008 . S
Co164 N163 2.008 . S
Co164 N165 1.995 1_554 S
Co164 N170 2.008 . S
Co164 N175 1.995 . S
Co164 N180 2.282 1_554 S
Co164 N186 2.282 . S
N165 Co164 1.995 1_556 S
N165 C166 1.376 . S
N165 C169 1.383 . S
C166 N165 1.376 . S
C166 C167 1.446 . S
C166 C196 1.391 . S
C167 C166 1.446 . S
C167 C168 1.339 . S
C167 H202 0.949 . S
C168 C167 1.339 . S
C168 C169 1.439 . S
C168 H203 0.950 . S
C169 N165 1.383 . S
C169 C168 1.439 . S
C169 C198 1.392 . S
N170 Co164 2.008 . S
N170 C171 1.376 1_554 S
N170 C174 1.374 . S
C171 N170 1.376 1_556 S
C171 C172 1.443 . S
C171 C198 1.389 . S
C172 C171 1.443 . S
C172 C173 1.340 1_556 S
C172 H204 0.951 . S
C173 C172 1.340 1_554 S
C173 C174 1.439 . S
C173 H205 0.950 . S
C174 N170 1.374 . S
C174 C173 1.439 . S
C174 C199 1.395 . S
N175 Co164 1.995 . S
N175 C176 1.376 . S
N175 C179 1.383 . S
C176 N175 1.376 . S
C176 C177 1.446 . S
C176 C199 1.391 . S
C177 C176 1.446 . S
C177 C178 1.339 . S
C177 H206 0.949 . S
C178 C177 1.339 . S
C178 C179 1.439 . S
C178 H207 0.950 . S
C179 N175 1.383 . S
C179 C178 1.439 . S
C179 C197 1.392 . S
N180 Co164 2.282 1_556 S
N180 C183 1.332 . S
N180 C185 1.332 . S
C181 C182 1.386 . S
C181 C184 1.388 . S
C182 C181 1.386 . S
C182 C183 1.382 . S
C182 H208 0.950 . S
C183 N180 1.332 . S
C183 C182 1.382 . S
C183 H194 0.952 1_556 S
C184 C181 1.388 . S
C184 C185 1.382 . S
C184 H209 0.950 . S
C185 N180 1.332 . S
C185 C184 1.382 . S
C185 H195 0.948 . S
N186 Co164 2.282 . S
N186 C190 1.332 . S
N186 C191 1.332 . S
C187 C188 1.388 . S
C187 C191 1.382 . S
C187 H210 0.950 . S
C188 C187 1.388 . S
C188 C189 1.386 . S
C189 C188 1.386 . S
C189 C190 1.382 . S
C189 H211 0.950 . S
C190 N186 1.332 . S
C190 C189 1.382 . S
C190 H192 0.952 . S
C191 N186 1.332 . S
C191 C187 1.382 . S
C191 H193 0.948 . S
H192 C190 0.952 . S
H193 C191 0.948 . S
H194 C183 0.952 1_554 S
H195 C185 0.948 . S
C196 C162 1.395 . S
C196 C166 1.391 . S
C197 C159 1.389 . S
C197 C179 1.392 . S
C198 C169 1.392 . S
C198 C171 1.389 . S
C199 C174 1.395 . S
C199 C176 1.391 . S
H200 C160 0.951 . S
H201 C161 0.950 . S
H202 C167 0.949 . S
H203 C168 0.950 . S
H204 C172 0.951 . S
H205 C173 0.950 . S
H206 C177 0.949 . S
H207 C178 0.950 . S
H208 C182 0.950 . S
H209 C184 0.950 . S
H210 C187 0.950 . S
H211 C189 0.950 . S
C212 C213 1.443 . S
C212 N216 1.376 . S
C212 C250 1.389 . S
C213 C212 1.443 . S
C213 C214 1.340 . S
C213 H253 0.951 . S
C214 C213 1.340 . S
C214 C215 1.439 . S
C214 H254 0.950 . S
C215 C214 1.439 . S
C215 N216 1.374 . S
C215 C249 1.395 . S
N216 C212 1.376 . S
N216 C215 1.374 . S
N216 Co217 2.008 . S
Co217 N216 2.008 . S
Co217 N218 1.995 . S
Co217 N223 2.008 . S
Co217 N228 1.995 . S
Co217 N233 2.282 . S
Co217 N239 2.282 . S
N218 Co217 1.995 . S
N218 C219 1.376 . S
N218 C222 1.383 . S
C219 N218 1.376 . S
C219 C220 1.446 . S
C219 C249 1.391 . S
C220 C219 1.446 . S
C220 C221 1.339 . S
C220 H255 0.949 . S
C221 C220 1.339 . S
C221 C222 1.439 . S
C221 H256 0.950 . S
C222 N218 1.383 . S
C222 C221 1.439 . S
C222 C251 1.392 . S
N223 Co217 2.008 . S
N223 C224 1.376 . S
N223 C227 1.374 . S
C224 N223 1.376 . S
C224 C225 1.443 . S
C224 C251 1.389 . S
C225 C224 1.443 . S
C225 C226 1.340 . S
C225 H257 0.951 . S
C226 C225 1.340 . S
C226 C227 1.439 . S
C226 H258 0.950 . S
C227 N223 1.374 . S
C227 C226 1.439 . S
C227 C252 1.395 . S
N228 Co217 1.995 . S
N228 C229 1.376 . S
N228 C232 1.383 . S
C229 N228 1.376 . S
C229 C230 1.446 . S
C229 C252 1.391 . S
C230 C229 1.446 . S
C230 C231 1.339 . S
C230 H259 0.949 . S
C231 C230 1.339 . S
C231 C232 1.439 . S
C231 H260 0.950 . S
C232 N228 1.383 . S
C232 C231 1.439 . S
C232 C250 1.392 . S
N233 Co217 2.282 . S
N233 C236 1.332 . S
N233 C238 1.332 . S
C234 C235 1.386 . S
C234 C237 1.388 . S
C235 C234 1.386 . S
C235 C236 1.382 . S
C235 H261 0.950 . S
C236 N233 1.332 . S
C236 C235 1.382 . S
C236 H247 0.952 . S
C237 C234 1.388 . S
C237 C238 1.382 . S
C237 H262 0.950 . S
C238 N233 1.332 . S
C238 C237 1.382 . S
C238 H248 0.948 . S
N239 Co217 2.282 . S
N239 C243 1.332 . S
N239 C244 1.332 . S
C240 C241 1.388 . S
C240 C244 1.382 . S
C240 H263 0.950 . S
C241 C240 1.388 . S
C241 C242 1.386 . S
C242 C241 1.386 . S
C242 C243 1.382 . S
C242 H264 0.950 . S
C243 N239 1.332 . S
C243 C242 1.382 . S
C243 H245 0.952 . S
C244 N239 1.332 . S
C244 C240 1.382 . S
C244 H246 0.948 . S
H245 C243 0.952 . S
H246 C244 0.948 . S
H247 C236 0.952 . S
H248 C238 0.948 . S
C249 C215 1.395 . S
C249 C219 1.391 . S
C250 C212 1.389 . S
C250 C232 1.392 . S
C251 C222 1.392 . S
C251 C224 1.389 . S
C252 C227 1.395 . S
C252 C229 1.391 . S
H253 C213 0.951 . S
H254 C214 0.950 . S
H255 C220 0.949 . S
H256 C221 0.950 . S
H257 C225 0.951 . S
H258 C226 0.950 . S
H259 C230 0.949 . S
H260 C231 0.950 . S
H261 C235 0.950 . S
H262 C237 0.950 . S
H263 C240 0.950 . S
H264 C242 0.950 . S
C265 C266 1.443 . S
C265 N269 1.376 . S
C265 C303 1.389 . S
C266 C265 1.443 . S
C266 C267 1.340 . S
C266 H306 0.951 . S
C267 C266 1.340 . S
C267 C268 1.439 . S
C267 H307 0.950 . S
C268 C267 1.439 . S
C268 N269 1.374 . S
C268 C302 1.395 . S
N269 C265 1.376 . S
N269 C268 1.374 . S
N269 Co270 2.008 . S
Co270 N269 2.008 . S
Co270 N271 1.995 . S
Co270 N276 2.008 . S
Co270 N281 1.995 . S
Co270 N286 2.282 . S
Co270 N292 2.282 . S
N271 Co270 1.995 . S
N271 C272 1.376 . S
N271 C275 1.383 . S
C272 N271 1.376 . S
C272 C273 1.446 . S
C272 C302 1.391 . S
C273 C272 1.446 . S
C273 C274 1.339 . S
C273 H308 0.949 . S
C274 C273 1.339 . S
C274 C275 1.439 . S
C274 H309 0.950 . S
C275 N271 1.383 . S
C275 C274 1.439 . S
C275 C304 1.392 . S
N276 Co270 2.008 . S
N276 C277 1.376 . S
N276 C280 1.374 . S
C277 N276 1.376 . S
C277 C278 1.443 . S
C277 C304 1.389 . S
C278 C277 1.443 . S
C278 C279 1.340 . S
C278 H310 0.951 . S
C279 C278 1.340 . S
C279 C280 1.439 . S
C279 H311 0.950 . S
C280 N276 1.374 . S
C280 C279 1.439 . S
C280 C305 1.395 . S
N281 Co270 1.995 . S
N281 C282 1.376 . S
N281 C285 1.383 . S
C282 N281 1.376 . S
C282 C283 1.446 . S
C282 C305 1.391 . S
C283 C282 1.446 . S
C283 C284 1.339 . S
C283 H312 0.949 . S
C284 C283 1.339 . S
C284 C285 1.439 . S
C284 H313 0.950 . S
C285 N281 1.383 . S
C285 C284 1.439 . S
C285 C303 1.392 . S
N286 Co270 2.282 . S
N286 C289 1.332 . S
N286 C291 1.332 . S
C287 C288 1.386 . S
C287 C290 1.388 . S
C288 C287 1.386 . S
C288 C289 1.382 . S
C288 H314 0.950 . S
C289 N286 1.332 . S
C289 C288 1.382 . S
C289 H300 0.952 . S
C290 C287 1.388 . S
C290 C291 1.382 . S
C290 H315 0.950 . S
C291 N286 1.332 . S
C291 C290 1.382 . S
C291 H301 0.948 . S
N292 Co270 2.282 . S
N292 C296 1.332 . S
N292 C297 1.332 . S
C293 C294 1.388 . S
C293 C297 1.382 . S
C293 H316 0.950 . S
C294 C293 1.388 . S
C294 C295 1.386 . S
C295 C294 1.386 . S
C295 C296 1.382 . S
C295 H317 0.950 . S
C296 N292 1.332 . S
C296 C295 1.382 . S
C296 H298 0.952 . S
C297 N292 1.332 . S
C297 C293 1.382 . S
C297 H299 0.948 . S
H298 C296 0.952 . S
H299 C297 0.948 . S
H300 C289 0.952 . S
H301 C291 0.948 . S
C302 C268 1.395 . S
C302 C272 1.391 . S
C303 C265 1.389 . S
C303 C285 1.392 . S
C304 C275 1.392 . S
C304 C277 1.389 . S
C305 C280 1.395 . S
C305 C282 1.391 . S
H306 C266 0.951 . S
H307 C267 0.950 . S
H308 C273 0.949 . S
H309 C274 0.950 . S
H310 C278 0.951 . S
H311 C279 0.950 . S
H312 C283 0.949 . S
H313 C284 0.950 . S
H314 C288 0.950 . S
H315 C290 0.950 . S
H316 C293 0.950 . S
H317 C295 0.950 . S
H318 C326 0.929 . S
H319 C328 0.930 . S
H320 C330 0.930 . S
H321 C333 0.929 . S
H322 C336 0.930 . S
H323 C338 0.960 . S
H324 C338 0.960 . S
H325 C338 0.960 . S
C326 H318 0.929 . S
C326 C327 1.377 . S
C326 C328 1.384 . S
C327 C326 1.377 . S
C327 C333 1.390 . S
C328 H319 0.930 . S
C328 C326 1.384 . S
C328 C329 1.372 . S
C329 C328 1.372 . S
C329 C330 1.400 . S
C329 C334 1.490 . S
C330 H320 0.930 . S
C330 C329 1.400 . S
C330 C333 1.386 . S
H331 C347 0.930 . S
H332 C348 0.931 . S
C333 H321 0.929 . S
C333 C327 1.390 . S
C333 C330 1.386 . S
C334 C329 1.490 . S
C334 C336 1.395 . S
C334 C337 1.403 . S
H335 C341 0.930 . S
C336 H322 0.930 . S
C336 C334 1.395 . S
C336 C339 1.403 . S
C337 C334 1.403 . S
C337 C338 1.524 . S
C337 C341 1.400 . S
C338 H323 0.960 . S
C338 H324 0.960 . S
C338 H325 0.960 . S
C338 C337 1.524 . S
C339 C336 1.403 . S
C339 C340 1.392 . S
C339 C343 1.495 . S
C340 C339 1.392 . S
C340 C341 1.385 . S
C340 C342 1.478 . S
C341 H335 0.930 . S
C341 C337 1.400 . S
C341 C340 1.385 . S
C342 C340 1.478 . S
C342 C344 1.381 . S
C342 C348 1.383 . S
C343 C339 1.495 . S
C343 H349 0.959 . S
C343 H350 0.961 . S
C343 H351 0.960 . S
C344 C342 1.381 . S
C344 C345 1.394 . S
C344 H352 0.930 . S
C345 C344 1.394 . S
C345 C346 1.383 . S
C345 H353 0.929 . S
C346 C345 1.383 . S
C346 C347 1.377 . S
C347 H331 0.930 . S
C347 C346 1.377 . S
C347 C348 1.379 . S
C348 H332 0.931 . S
C348 C342 1.383 . S
C348 C347 1.379 . S
H349 C343 0.959 . S
H350 C343 0.961 . S
H351 C343 0.960 . S
H352 C344 0.930 . S
H353 C345 0.929 . S
H354 C362 0.929 . S
H355 C364 0.930 . S
H356 C366 0.930 . S
H357 C369 0.929 . S
H358 C372 0.930 1_655 S
H359 C374 0.960 . S
H360 C374 0.960 . S
H361 C374 0.960 . S
C362 H354 0.929 . S
C362 C363 1.377 . S
C362 C364 1.384 . S
C363 C362 1.377 . S
C363 C369 1.390 . S
C364 H355 0.930 . S
C364 C362 1.384 . S
C364 C365 1.372 . S
C365 C364 1.372 . S
C365 C366 1.400 . S
C365 C370 1.490 . S
C366 H356 0.930 . S
C366 C365 1.400 . S
C366 C369 1.386 . S
H367 C383 0.930 . S
H368 C384 0.931 . S
C369 H357 0.929 . S
C369 C363 1.390 . S
C369 C366 1.386 . S
C370 C365 1.490 . S
C370 C372 1.395 1_655 S
C370 C373 1.427 . S
H371 C377 0.930 . S
C372 H358 0.930 1_455 S
C372 C370 1.395 1_455 S
C372 C375 1.403 . S
C373 C370 1.427 . S
C373 C374 1.522 . S
C373 C377 1.378 1_655 S
C374 H359 0.960 . S
C374 H360 0.960 . S
C374 H361 0.960 . S
C374 C373 1.522 . S
C375 C372 1.403 . S
C375 C376 1.392 . S
C375 C379 1.495 . S
C376 C375 1.392 . S
C376 C377 1.385 . S
C376 C378 1.478 . S
C377 H371 0.930 . S
C377 C373 1.378 1_455 S
C377 C376 1.385 . S
C378 C376 1.478 . S
C378 C380 1.381 . S
C378 C384 1.383 . S
C379 C375 1.495 . S
C379 H385 0.959 . S
C379 H386 0.961 . S
C379 H387 0.960 . S
C380 C378 1.381 . S
C380 C381 1.394 . S
C380 H388 0.930 . S
C381 C380 1.394 . S
C381 C382 1.383 . S
C381 H389 0.929 . S
C382 C381 1.383 . S
C382 C383 1.377 . S
C383 H367 0.930 . S
C383 C382 1.377 . S
C383 C384 1.379 . S
C384 H368 0.931 . S
C384 C378 1.383 . S
C384 C383 1.379 . S
H385 C379 0.959 . S
H386 C379 0.961 . S
H387 C379 0.960 . S
H388 C380 0.930 . S
H389 C381 0.929 . S
H390 C398 0.929 . S
H391 C400 0.930 . S
H392 C402 0.930 . S
H393 C405 0.929 . S
H394 C408 0.930 . S
H395 C410 0.960 . S
H396 C410 0.960 . S
H397 C410 0.960 . S
C398 H390 0.929 . S
C398 C399 1.377 . S
C398 C400 1.384 . S
C399 C398 1.377 . S
C399 C405 1.390 . S
C400 H391 0.930 . S
C400 C398 1.384 . S
C400 C401 1.372 . S
C401 C400 1.372 . S
C401 C402 1.400 . S
C401 C406 1.490 . S
C402 H392 0.930 . S
C402 C401 1.400 . S
C402 C405 1.386 . S
H403 C419 0.930 . S
H404 C420 0.931 . S
C405 H393 0.929 . S
C405 C399 1.390 . S
C405 C402 1.386 . S
C406 C401 1.490 . S
C406 C408 1.395 . S
C406 C409 1.403 . S
H407 C413 0.930 . S
C408 H394 0.930 . S
C408 C406 1.395 . S
C408 C411 1.403 1_545 S
C409 C406 1.403 . S
C409 C410 1.524 . S
C409 C413 1.400 . S
C410 H395 0.960 . S
C410 H396 0.960 . S
C410 H397 0.960 . S
C410 C409 1.524 . S
C411 C408 1.403 1_565 S
C411 C412 1.392 . S
C411 C415 1.495 . S
C412 C411 1.392 . S
C412 C413 1.385 1_565 S
C412 C414 1.478 . S
C413 H407 0.930 . S
C413 C409 1.400 . S
C413 C412 1.385 1_545 S
C414 C412 1.478 . S
C414 C416 1.381 . S
C414 C420 1.383 . S
C415 C411 1.495 . S
C415 H421 0.959 . S
C415 H422 0.961 . S
C415 H423 0.960 . S
C416 C414 1.381 . S
C416 C417 1.394 . S
C416 H424 0.930 . S
C417 C416 1.394 . S
C417 C418 1.383 . S
C417 H425 0.929 . S
C418 C417 1.383 . S
C418 C419 1.377 . S
C419 H403 0.930 . S
C419 C418 1.377 . S
C419 C420 1.379 . S
C420 H404 0.931 . S
C420 C414 1.383 . S
C420 C419 1.379 . S
H421 C415 0.959 . S
H422 C415 0.961 . S
H423 C415 0.960 . S
H424 C416 0.930 . S
H425 C417 0.929 . S
H426 C434 0.929 . S
H427 C436 0.930 . S
H428 C438 0.930 . S
H429 C441 0.929 . S
H430 C444 0.930 . S
H431 C446 0.960 . S
H432 C446 0.960 . S
H433 C446 0.960 . S
C434 H426 0.929 . S
C434 C435 1.377 . S
C434 C436 1.384 . S
C435 C434 1.377 . S
C435 C441 1.390 . S
C436 H427 0.930 . S
C436 C434 1.384 . S
C436 C437 1.372 . S
C437 C436 1.372 . S
C437 C438 1.400 . S
C437 C442 1.490 . S
C438 H428 0.930 . S
C438 C437 1.400 . S
C438 C441 1.386 . S
H439 C455 0.930 . S
H440 C456 0.931 . S
C441 H429 0.929 . S
C441 C435 1.390 . S
C441 C438 1.386 . S
C442 C437 1.490 . S
C442 C444 1.395 . S
C442 C445 1.403 . S
H443 C449 0.930 . S
C444 H430 0.930 . S
C444 C442 1.395 . S
C444 C447 1.403 . S
C445 C442 1.403 . S
C445 C446 1.524 . S
C445 C449 1.400 . S
C446 H431 0.960 . S
C446 H432 0.960 . S
C446 H433 0.960 . S
C446 C445 1.524 . S
C447 C444 1.403 . S
C447 C448 1.392 . S
C447 C451 1.495 . S
C448 C447 1.392 . S
C448 C449 1.385 . S
C448 C450 1.478 . S
C449 H443 0.930 . S
C449 C445 1.400 . S
C449 C448 1.385 . S
C450 C448 1.478 . S
C450 C452 1.381 . S
C450 C456 1.383 . S
C451 C447 1.495 . S
C451 H457 0.959 . S
C451 H458 0.961 . S
C451 H459 0.960 . S
C452 C450 1.381 . S
C452 C453 1.394 . S
C452 H460 0.930 . S
C453 C452 1.394 . S
C453 C454 1.383 . S
C453 H461 0.929 . S
C454 C453 1.383 . S
C454 C455 1.377 . S
C455 H439 0.930 . S
C455 C454 1.377 . S
C455 C456 1.379 . S
C456 H440 0.931 . S
C456 C450 1.383 . S
C456 C455 1.379 . S
H457 C451 0.959 . S
H458 C451 0.961 . S
H459 C451 0.960 . S
H460 C452 0.930 . S
H461 C453 0.929 . S
H462 C470 0.929 . S
H463 C472 0.930 . S
H464 C474 0.930 . S
H465 C477 0.929 . S
H466 C480 0.930 . S
H467 C482 0.960 . S
H468 C482 0.960 . S
H469 C482 0.960 . S
C470 H462 0.929 . S
C470 C471 1.377 . S
C470 C472 1.384 . S
C471 C470 1.377 . S
C471 C477 1.390 . S
C472 H463 0.930 . S
C472 C470 1.384 . S
C472 C473 1.372 . S
C473 C472 1.372 . S
C473 C474 1.400 . S
C473 C478 1.490 . S
C474 H464 0.930 . S
C474 C473 1.400 . S
C474 C477 1.386 . S
H475 C491 0.930 . S
H476 C492 0.931 . S
C477 H465 0.929 . S
C477 C471 1.390 . S
C477 C474 1.386 . S
C478 C473 1.490 . S
C478 C480 1.395 . S
C478 C481 1.403 . S
H479 C485 0.930 . S
C480 H466 0.930 . S
C480 C478 1.395 . S
C480 C483 1.403 1_655 S
C481 C478 1.403 . S
C481 C482 1.524 . S
C481 C485 1.400 . S
C482 H467 0.960 . S
C482 H468 0.960 . S
C482 H469 0.960 . S
C482 C481 1.524 . S
C483 C480 1.403 1_455 S
C483 C484 1.392 . S
C483 C487 1.495 . S
C484 C483 1.392 . S
C484 C485 1.385 1_455 S
C484 C486 1.478 . S
C485 H479 0.930 . S
C485 C481 1.400 . S
C485 C484 1.385 1_655 S
C486 C484 1.478 . S
C486 C488 1.381 . S
C486 C492 1.383 . S
C487 C483 1.495 . S
C487 H493 0.959 . S
C487 H494 0.961 . S
C487 H495 0.960 . S
C488 C486 1.381 . S
C488 C489 1.394 . S
C488 H496 0.930 . S
C489 C488 1.394 . S
C489 C490 1.383 . S
C489 H497 0.929 . S
C490 C489 1.383 . S
C490 C491 1.377 . S
C491 H475 0.930 . S
C491 C490 1.377 . S
C491 C492 1.379 . S
C492 H476 0.931 . S
C492 C486 1.383 . S
C492 C491 1.379 . S
H493 C487 0.959 . S
H494 C487 0.961 . S
H495 C487 0.960 . S
H496 C488 0.930 . S
H497 C489 0.929 . S
H498 C506 0.929 . S
H499 C508 0.930 . S
H500 C510 0.930 . S
H501 C513 0.929 . S
H502 C516 0.930 . S
H503 C518 0.960 . S
H504 C518 0.960 . S
H505 C518 0.960 . S
C506 H498 0.929 . S
C506 C507 1.377 . S
C506 C508 1.384 . S
C507 C506 1.377 . S
C507 C513 1.390 . S
C508 H499 0.930 . S
C508 C506 1.384 . S
C508 C509 1.372 . S
C509 C508 1.372 . S
C509 C510 1.400 . S
C509 C514 1.490 . S
C510 H500 0.930 . S
C510 C509 1.400 . S
C510 C513 1.386 . S
H511 C527 0.930 . S
H512 C528 0.931 . S
C513 H501 0.929 . S
C513 C507 1.390 . S
C513 C510 1.386 . S
C514 C509 1.490 . S
C514 C516 1.395 . S
C514 C517 1.403 1_545 S
H515 C521 0.930 . S
C516 H502 0.930 . S
C516 C514 1.395 . S
C516 C519 1.403 1_545 S
C517 C514 1.403 1_565 S
C517 C518 1.524 . S
C517 C521 1.400 . S
C518 H503 0.960 . S
C518 H504 0.960 . S
C518 H505 0.960 . S
C518 C517 1.524 . S
C519 C516 1.403 1_565 S
C519 C520 1.392 . S
C519 C523 1.495 1_565 S
C520 C519 1.392 . S
C520 C521 1.385 . S
C520 C522 1.478 . S
C521 H515 0.930 . S
C521 C517 1.400 . S
C521 C520 1.385 . S
C522 C520 1.478 . S
C522 C524 1.381 . S
C522 C528 1.383 . S
C523 C519 1.495 1_545 S
C523 H529 0.959 . S
C523 H530 0.961 1_545 S
C523 H531 0.960 1_545 S
C524 C522 1.381 . S
C524 C525 1.394 . S
C524 H532 0.930 . S
C525 C524 1.394 . S
C525 C526 1.383 . S
C525 H533 0.929 . S
C526 C525 1.383 . S
C526 C527 1.377 . S
C527 H511 0.930 . S
C527 C526 1.377 . S
C527 C528 1.379 . S
C528 H512 0.931 . S
C528 C522 1.383 . S
C528 C527 1.379 . S
H529 C523 0.959 . S
H530 C523 0.961 1_565 S
H531 C523 0.960 1_565 S
H532 C524 0.930 . S
H533 C525 0.929 . S
H534 C542 0.929 . S
H535 C544 0.930 . S
H536 C546 0.930 . S
H537 C549 0.929 . S
H538 C552 0.930 . S
H539 C554 0.960 . S
H540 C554 0.960 . S
H541 C554 0.960 . S
C542 H534 0.929 . S
C542 C543 1.377 . S
C542 C544 1.384 . S
C543 C542 1.377 . S
C543 C549 1.390 . S
C544 H535 0.930 . S
C544 C542 1.384 . S
C544 C545 1.372 . S
C545 C544 1.372 . S
C545 C546 1.400 . S
C545 C550 1.490 . S
C546 H536 0.930 . S
C546 C545 1.400 . S
C546 C549 1.386 . S
H547 C563 0.930 . S
H548 C564 0.931 . S
C549 H537 0.929 . S
C549 C543 1.390 . S
C549 C546 1.386 . S
C550 C545 1.490 . S
C550 C552 1.395 . S
C550 C553 1.403 . S
H551 C557 0.930 . S
C552 H538 0.930 . S
C552 C550 1.395 . S
C552 C555 1.403 . S
C553 C550 1.403 . S
C553 C554 1.524 . S
C553 C557 1.400 . S
C554 H539 0.960 . S
C554 H540 0.960 . S
C554 H541 0.960 . S
C554 C553 1.524 . S
C555 C552 1.403 . S
C555 C556 1.392 . S
C555 C559 1.495 . S
C556 C555 1.392 . S
C556 C557 1.385 . S
C556 C558 1.478 . S
C557 H551 0.930 . S
C557 C553 1.400 . S
C557 C556 1.385 . S
C558 C556 1.478 . S
C558 C560 1.381 . S
C558 C564 1.383 . S
C559 C555 1.495 . S
C559 H565 0.959 . S
C559 H566 0.961 . S
C559 H567 0.960 . S
C560 C558 1.381 . S
C560 C561 1.394 . S
C560 H568 0.930 . S
C561 C560 1.394 . S
C561 C562 1.383 . S
C561 H569 0.929 . S
C562 C561 1.383 . S
C562 C563 1.377 . S
C563 H547 0.930 . S
C563 C562 1.377 . S
C563 C564 1.379 . S
C564 H548 0.931 . S
C564 C558 1.383 . S
C564 C563 1.379 . S
H565 C559 0.959 . S
H566 C559 0.961 . S
H567 C559 0.960 . S
H568 C560 0.930 . S
H569 C561 0.929 . S
H570 C578 0.929 . S
H571 C580 0.930 . S
H572 C582 0.930 . S
H573 C585 0.929 . S
H574 C588 0.930 . S
H575 C590 0.960 . S
H576 C590 0.960 . S
H577 C590 0.960 . S
C578 H570 0.929 . S
C578 C579 1.377 . S
C578 C580 1.384 . S
C579 C578 1.377 . S
C579 C585 1.390 . S
C580 H571 0.930 . S
C580 C578 1.384 . S
C580 C581 1.372 . S
C581 C580 1.372 . S
C581 C582 1.400 . S
C581 C586 1.490 . S
C582 H572 0.930 . S
C582 C581 1.400 . S
C582 C585 1.386 . S
H583 C599 0.930 . S
H584 C600 0.931 . S
C585 H573 0.929 . S
C585 C579 1.390 . S
C585 C582 1.386 . S
C586 C581 1.490 . S
C586 C588 1.395 . S
C586 C589 1.403 . S
H587 C593 0.930 . S
C588 H574 0.930 . S
C588 C586 1.395 . S
C588 C591 1.403 . S
C589 C586 1.403 . S
C589 C590 1.524 . S
C589 C593 1.400 . S
C590 H575 0.960 . S
C590 H576 0.960 . S
C590 H577 0.960 . S
C590 C589 1.524 . S
C591 C588 1.403 . S
C591 C592 1.392 . S
C591 C595 1.495 . S
C592 C591 1.392 . S
C592 C593 1.385 . S
C592 C594 1.478 . S
C593 H587 0.930 . S
C593 C589 1.400 . S
C593 C592 1.385 . S
C594 C592 1.478 . S
C594 C596 1.381 . S
C594 C600 1.383 . S
C595 C591 1.495 . S
C595 H601 0.959 . S
C595 H602 0.961 . S
C595 H603 0.960 . S
C596 C594 1.381 . S
C596 C597 1.394 . S
C596 H604 0.930 . S
C597 C596 1.394 . S
C597 C598 1.383 . S
C597 H605 0.929 . S
C598 C597 1.383 . S
C598 C599 1.377 . S
C599 H583 0.930 . S
C599 C598 1.377 . S
C599 C600 1.379 . S
C600 H584 0.931 . S
C600 C594 1.383 . S
C600 C599 1.379 . S
H601 C595 0.959 . S
H602 C595 0.961 . S
H603 C595 0.960 . S
H604 C596 0.930 . S
H605 C597 0.929 . S
H606 C614 0.929 . S
H607 C616 0.930 . S
H608 C618 0.930 . S
H609 C621 0.929 . S
H610 C624 0.930 . S
H611 C626 0.960 . S
H612 C626 0.960 . S
H613 C626 0.960 . S
C614 H606 0.929 . S
C614 C615 1.377 . S
C614 C616 1.384 . S
C615 C614 1.377 . S
C615 C621 1.390 . S
C616 H607 0.930 . S
C616 C614 1.384 . S
C616 C617 1.372 . S
C617 C616 1.372 . S
C617 C618 1.400 . S
C617 C622 1.490 . S
C618 H608 0.930 . S
C618 C617 1.400 . S
C618 C621 1.386 . S
H619 C635 0.930 . S
H620 C636 0.931 . S
C621 H609 0.929 . S
C621 C615 1.390 . S
C621 C618 1.386 . S
C622 C617 1.490 . S
C622 C624 1.395 . S
C622 C625 1.403 . S
H623 C629 0.930 . S
C624 H610 0.930 . S
C624 C622 1.395 . S
C624 C627 1.403 . S
C625 C622 1.403 . S
C625 C626 1.524 . S
C625 C629 1.400 . S
C626 H611 0.960 . S
C626 H612 0.960 . S
C626 H613 0.960 . S
C626 C625 1.524 . S
C627 C624 1.403 . S
C627 C628 1.392 . S
C627 C631 1.495 . S
C628 C627 1.392 . S
C628 C629 1.385 . S
C628 C630 1.478 . S
C629 H623 0.930 . S
C629 C625 1.400 . S
C629 C628 1.385 . S
C630 C628 1.478 . S
C630 C632 1.381 . S
C630 C636 1.383 . S
C631 C627 1.495 . S
C631 H637 0.959 . S
C631 H638 0.961 . S
C631 H639 0.960 . S
C632 C630 1.381 . S
C632 C633 1.394 . S
C632 H640 0.930 . S
C633 C632 1.394 . S
C633 C634 1.383 . S
C633 H641 0.929 . S
C634 C633 1.383 . S
C634 C635 1.377 . S
C635 H619 0.930 . S
C635 C634 1.377 . S
C635 C636 1.379 . S
C636 H620 0.931 . S
C636 C630 1.383 . S
C636 C635 1.379 . S
H637 C631 0.959 . S
H638 C631 0.961 . S
H639 C631 0.960 . S
H640 C632 0.930 . S
H641 C633 0.929 . S
H642 C650 0.929 . S
H643 C652 0.930 . S
H644 C654 0.930 . S
H645 C657 0.929 . S
H646 C660 0.930 . S
H647 C662 0.960 . S
H648 C662 0.960 . S
H649 C662 0.960 . S
C650 H642 0.929 . S
C650 C651 1.377 . S
C650 C652 1.384 . S
C651 C650 1.377 . S
C651 C657 1.390 . S
C652 H643 0.930 . S
C652 C650 1.384 . S
C652 C653 1.372 . S
C653 C652 1.372 . S
C653 C654 1.400 . S
C653 C658 1.490 . S
C654 H644 0.930 . S
C654 C653 1.400 . S
C654 C657 1.386 . S
H655 C671 0.930 . S
H656 C672 0.931 . S
C657 H645 0.929 . S
C657 C651 1.390 . S
C657 C654 1.386 . S
C658 C653 1.490 . S
C658 C660 1.395 . S
C658 C661 1.403 . S
H659 C665 0.930 . S
C660 H646 0.930 . S
C660 C658 1.395 . S
C660 C663 1.403 . S
C661 C658 1.403 . S
C661 C662 1.524 . S
C661 C665 1.400 . S
C662 H647 0.960 . S
C662 H648 0.960 . S
C662 H649 0.960 . S
C662 C661 1.524 . S
C663 C660 1.403 . S
C663 C664 1.392 . S
C663 C667 1.495 . S
C664 C663 1.392 . S
C664 C665 1.385 . S
C664 C666 1.478 . S
C665 H659 0.930 . S
C665 C661 1.400 . S
C665 C664 1.385 . S
C666 C664 1.478 . S
C666 C668 1.381 . S
C666 C672 1.383 . S
C667 C663 1.495 . S
C667 H673 0.959 . S
C667 H674 0.961 . S
C667 H675 0.960 . S
C668 C666 1.381 . S
C668 C669 1.394 . S
C668 H676 0.930 . S
C669 C668 1.394 . S
C669 C670 1.383 . S
C669 H677 0.929 . S
C670 C669 1.383 . S
C670 C671 1.377 . S
C671 H655 0.930 . S
C671 C670 1.377 . S
C671 C672 1.379 . S
C672 H656 0.931 . S
C672 C666 1.383 . S
C672 C671 1.379 . S
H673 C667 0.959 . S
H674 C667 0.961 . S
H675 C667 0.960 . S
H676 C668 0.930 . S
H677 C669 0.929 . S
H678 C686 0.929 . S
H679 C688 0.930 . S
H680 C690 0.930 . S
H681 C693 0.929 . S
H682 C696 0.930 . S
H683 C698 0.960 . S
H684 C698 0.960 . S
H685 C698 0.960 . S
C686 H678 0.929 . S
C686 C687 1.377 . S
C686 C688 1.384 . S
C687 C686 1.377 . S
C687 C693 1.390 . S
C688 H679 0.930 . S
C688 C686 1.384 . S
C688 C689 1.372 . S
C689 C688 1.372 . S
C689 C690 1.400 . S
C689 C694 1.490 . S
C690 H680 0.930 . S
C690 C689 1.400 . S
C690 C693 1.386 . S
H691 C707 0.930 . S
H692 C708 0.931 . S
C693 H681 0.929 . S
C693 C687 1.390 . S
C693 C690 1.386 . S
C694 C689 1.490 . S
C694 C696 1.395 . S
C694 C697 1.403 . S
H695 C701 0.930 . S
C696 H682 0.930 . S
C696 C694 1.395 . S
C696 C699 1.403 . S
C697 C694 1.403 . S
C697 C698 1.524 . S
C697 C701 1.400 . S
C698 H683 0.960 . S
C698 H684 0.960 . S
C698 H685 0.960 . S
C698 C697 1.524 . S
C699 C696 1.403 . S
C699 C700 1.392 . S
C699 C703 1.495 . S
C700 C699 1.392 . S
C700 C701 1.385 . S
C700 C702 1.478 . S
C701 H695 0.930 . S
C701 C697 1.400 . S
C701 C700 1.385 . S
C702 C700 1.478 . S
C702 C704 1.381 . S
C702 C708 1.383 . S
C703 C699 1.495 . S
C703 H709 0.959 . S
C703 H710 0.961 . S
C703 H711 0.960 . S
C704 C702 1.381 . S
C704 C705 1.394 . S
C704 H712 0.930 . S
C705 C704 1.394 . S
C705 C706 1.383 . S
C705 H713 0.929 . S
C706 C705 1.383 . S
C706 C707 1.377 . S
C707 H691 0.930 . S
C707 C706 1.377 . S
C707 C708 1.379 . S
C708 H692 0.931 . S
C708 C702 1.383 . S
C708 C707 1.379 . S
H709 C703 0.959 . S
H710 C703 0.961 . S
H711 C703 0.960 . S
H712 C704 0.930 . S
H713 C705 0.929 . S
H714 C722 0.929 . S
H715 C724 0.930 . S
H716 C726 0.930 . S
H717 C729 0.929 . S
H718 C732 0.930 . S
H719 C734 0.960 . S
H720 C734 0.960 . S
H721 C734 0.960 . S
C722 H714 0.929 . S
C722 C723 1.377 . S
C722 C724 1.384 . S
C723 C722 1.377 . S
C723 C729 1.390 . S
C724 H715 0.930 . S
C724 C722 1.384 . S
C724 C725 1.372 . S
C725 C724 1.372 . S
C725 C726 1.400 . S
C725 C730 1.490 . S
C726 H716 0.930 . S
C726 C725 1.400 . S
C726 C729 1.386 . S
H727 C743 0.930 . S
H728 C744 0.931 . S
C729 H717 0.929 . S
C729 C723 1.390 . S
C729 C726 1.386 . S
C730 C725 1.490 . S
C730 C732 1.395 . S
C730 C733 1.403 . S
H731 C737 0.930 . S
C732 H718 0.930 . S
C732 C730 1.395 . S
C732 C735 1.403 . S
C733 C730 1.403 . S
C733 C734 1.524 . S
C733 C737 1.400 . S
C734 H719 0.960 . S
C734 H720 0.960 . S
C734 H721 0.960 . S
C734 C733 1.524 . S
C735 C732 1.403 . S
C735 C736 1.392 . S
C735 C739 1.495 . S
C736 C735 1.392 . S
C736 C737 1.385 . S
C736 C738 1.478 . S
C737 H731 0.930 . S
C737 C733 1.400 . S
C737 C736 1.385 . S
C738 C736 1.478 . S
C738 C740 1.381 . S
C738 C744 1.383 . S
C739 C735 1.495 . S
C739 H745 0.959 . S
C739 H746 0.961 . S
C739 H747 0.960 . S
C740 C738 1.381 . S
C740 C741 1.394 . S
C740 H748 0.930 . S
C741 C740 1.394 . S
C741 C742 1.383 . S
C741 H749 0.929 . S
C742 C741 1.383 . S
C742 C743 1.377 . S
C743 H727 0.930 . S
C743 C742 1.377 . S
C743 C744 1.379 . S
C744 H728 0.931 . S
C744 C738 1.383 . S
C744 C743 1.379 . S
H745 C739 0.959 . S
H746 C739 0.961 . S
H747 C739 0.960 . S
H748 C740 0.930 . S
H749 C741 0.929 . S
C327 C22 1.401 . S
C346 C303 1.394 . S
C363 C75 1.399 . S
C382 C38 1.391 . S
C399 C91 1.403 . S
C418 C128 1.389 . S
C435 C181 1.400 . S
C454 C144 1.400 . S
C471 C197 1.401 . S
C490 C234 1.401 . S
C507 C287 1.401 . S
C526 C250 1.397 . S
C543 C251 1.494 . S
C562 C29 1.500 . S
C579 C304 1.497 . S
C598 C82 1.479 . S
C615 C135 1.494 . S
C634 C39 1.490 . S
C651 C188 1.491 . S
C670 C92 1.494 . S
C687 C241 1.494 . S
C706 C145 1.486 . S
C723 C294 1.491 . S
C742 C198 1.493 . S
