# Generated by pormake.
# Topology whk, (6)-cn, num edge types: 1
# Building blocks:
#     Node 0, Type 0, BuildingBlock: UKALOJ_clean_sbu_0, # of connection points: 6
#     Node 1, Type 0, BuildingBlock: UKALOJ_clean_sbu_0, # of connection points: 6
#     Node 2, Type 0, BuildingBlock: UKALOJ_clean_sbu_0, # of connection points: 6
#     Node 3, Type 0, BuildingBlock: UKALOJ_clean_sbu_0, # of connection points: 6
#     Node 4, Type 0, BuildingBlock: UKALOJ_clean_sbu_0, # of connection points: 6
#     Node 5, Type 0, BuildingBlock: UKALOJ_clean_sbu_0, # of connection points: 6
#     Node 6, Type 0, BuildingBlock: UKALOJ_clean_sbu_0, # of connection points: 6
#     Node 7, Type 0, BuildingBlock: UKALOJ_clean_sbu_0, # of connection points: 6
#     Node 8, Type 0, BuildingBlock: UKALOJ_clean_sbu_0, # of connection points: 6
#     Node 9, Type 0, BuildingBlock: UKALOJ_clean_sbu_0, # of connection points: 6
#     Node 10, Type 0, BuildingBlock: UKALOJ_clean_sbu_0, # of connection points: 6
#     Node 11, Type 0, BuildingBlock: UKALOJ_clean_sbu_0, # of connection points: 6
#     Node 12, Type 0, BuildingBlock: UKALOJ_clean_sbu_0, # of connection points: 6
#     Node 13, Type 0, BuildingBlock: UKALOJ_clean_sbu_0, # of connection points: 6
#     Node 14, Type 0, BuildingBlock: UKALOJ_clean_sbu_0, # of connection points: 6
#     Node 15, Type 0, BuildingBlock: UKALOJ_clean_sbu_0, # of connection points: 6
#     Edge 16, Type (0, 0), BuildingBlock: XIVTED_clean_linker_0, # of connection points: 2
#     Edge 17, Type (0, 0), BuildingBlock: XIVTED_clean_linker_0, # of connection points: 2
#     Edge 18, Type (0, 0), BuildingBlock: XIVTED_clean_linker_0, # of connection points: 2
#     Edge 19, Type (0, 0), BuildingBlock: XIVTED_clean_linker_0, # of connection points: 2
#     Edge 20, Type (0, 0), BuildingBlock: XIVTED_clean_linker_0, # of connection points: 2
#     Edge 21, Type (0, 0), BuildingBlock: XIVTED_clean_linker_0, # of connection points: 2
#     Edge 22, Type (0, 0), BuildingBlock: XIVTED_clean_linker_0, # of connection points: 2
#     Edge 23, Type (0, 0), BuildingBlock: XIVTED_clean_linker_0, # of connection points: 2
#     Edge 24, Type (0, 0), BuildingBlock: XIVTED_clean_linker_0, # of connection points: 2
#     Edge 25, Type (0, 0), BuildingBlock: XIVTED_clean_linker_0, # of connection points: 2
#     Edge 26, Type (0, 0), BuildingBlock: XIVTED_clean_linker_0, # of connection points: 2
#     Edge 27, Type (0, 0), BuildingBlock: XIVTED_clean_linker_0, # of connection points: 2
#     Edge 28, Type (0, 0), BuildingBlock: XIVTED_clean_linker_0, # of connection points: 2
#     Edge 29, Type (0, 0), BuildingBlock: XIVTED_clean_linker_0, # of connection points: 2
#     Edge 30, Type (0, 0), BuildingBlock: XIVTED_clean_linker_0, # of connection points: 2
#     Edge 31, Type (0, 0), BuildingBlock: XIVTED_clean_linker_0, # of connection points: 2
#     Edge 32, Type (0, 0), BuildingBlock: XIVTED_clean_linker_0, # of connection points: 2
#     Edge 33, Type (0, 0), BuildingBlock: XIVTED_clean_linker_0, # of connection points: 2
#     Edge 34, Type (0, 0), BuildingBlock: XIVTED_clean_linker_0, # of connection points: 2
#     Edge 35, Type (0, 0), BuildingBlock: XIVTED_clean_linker_0, # of connection points: 2
#     Edge 36, Type (0, 0), BuildingBlock: XIVTED_clean_linker_0, # of connection points: 2
#     Edge 37, Type (0, 0), BuildingBlock: XIVTED_clean_linker_0, # of connection points: 2
#     Edge 38, Type (0, 0), BuildingBlock: XIVTED_clean_linker_0, # of connection points: 2
#     Edge 39, Type (0, 0), BuildingBlock: XIVTED_clean_linker_0, # of connection points: 2
#     Edge 40, Type (0, 0), BuildingBlock: XIVTED_clean_linker_0, # of connection points: 2
#     Edge 41, Type (0, 0), BuildingBlock: XIVTED_clean_linker_0, # of connection points: 2
#     Edge 42, Type (0, 0), BuildingBlock: XIVTED_clean_linker_0, # of connection points: 2
#     Edge 43, Type (0, 0), BuildingBlock: XIVTED_clean_linker_0, # of connection points: 2
#     Edge 44, Type (0, 0), BuildingBlock: XIVTED_clean_linker_0, # of connection points: 2
#     Edge 45, Type (0, 0), BuildingBlock: XIVTED_clean_linker_0, # of connection points: 2
#     Edge 46, Type (0, 0), BuildingBlock: XIVTED_clean_linker_0, # of connection points: 2
#     Edge 47, Type (0, 0), BuildingBlock: XIVTED_clean_linker_0, # of connection points: 2
#     Edge 48, Type (0, 0), BuildingBlock: XIVTED_clean_linker_0, # of connection points: 2
#     Edge 49, Type (0, 0), BuildingBlock: XIVTED_clean_linker_0, # of connection points: 2
#     Edge 50, Type (0, 0), BuildingBlock: XIVTED_clean_linker_0, # of connection points: 2
#     Edge 51, Type (0, 0), BuildingBlock: XIVTED_clean_linker_0, # of connection points: 2
#     Edge 52, Type (0, 0), BuildingBlock: XIVTED_clean_linker_0, # of connection points: 2
#     Edge 53, Type (0, 0), BuildingBlock: XIVTED_clean_linker_0, # of connection points: 2
#     Edge 54, Type (0, 0), BuildingBlock: XIVTED_clean_linker_0, # of connection points: 2
#     Edge 55, Type (0, 0), BuildingBlock: XIVTED_clean_linker_0, # of connection points: 2
#     Edge 56, Type (0, 0), BuildingBlock: XIVTED_clean_linker_0, # of connection points: 2
#     Edge 57, Type (0, 0), BuildingBlock: XIVTED_clean_linker_0, # of connection points: 2
#     Edge 58, Type (0, 0), BuildingBlock: XIVTED_clean_linker_0, # of connection points: 2
#     Edge 59, Type (0, 0), BuildingBlock: XIVTED_clean_linker_0, # of connection points: 2
#     Edge 60, Type (0, 0), BuildingBlock: XIVTED_clean_linker_0, # of connection points: 2
#     Edge 61, Type (0, 0), BuildingBlock: XIVTED_clean_linker_0, # of connection points: 2
#     Edge 62, Type (0, 0), BuildingBlock: XIVTED_clean_linker_0, # of connection points: 2
#     Edge 63, Type (0, 0), BuildingBlock: XIVTED_clean_linker_0, # of connection points: 2
# Relax obj value: 0.436
# Max RMSD: 0.275
# Mean RMSD: 0.275
data_MOF--net-whk--node1-UKALOJ_clean_sbu_0--edge1-XIVTED_clean_linker_0
_symmetry_space_group_name_H-M    P1
_symmetry_Int_Tables_number       1
_symmetry_cell_setting            triclinic
loop_
_symmetry_equiv_pos_as_xyz
'x, y, z'
_cell_length_a     38.35973
_cell_length_b     38.365958
_cell_length_c     53.510813
_cell_angle_alpha  90.0306
_cell_angle_beta   90.017259
_cell_angle_gamma 90.003238
loop_
_atom_site_label
_atom_site_type_symbol
_atom_site_fract_x
_atom_site_fract_y
_atom_site_fract_z
_atom_type_partial_charge
Zn0 Zn 0.54916 0.19493 0.37276 0.0
O1 O 0.55683 0.17271 0.33767 0.0
C2 C 0.4982 0.13806 0.3833 0.0
Zn3 Zn 0.57367 0.14834 0.39025 0.0
C4 C 0.57155 0.14336 0.3348 0.0
O5 O 0.58208 0.12658 0.3539 0.0
C6 C 0.55043 0.20171 0.42782 0.0
O7 O 0.62172 0.17309 0.38745 0.0
O8 O 0.59903 0.21972 0.37037 0.0
N9 N 0.59776 0.10638 0.40657 0.0
C10 C 0.62504 0.10524 0.42248 0.0
C11 C 0.6095 0.05278 0.41556 0.0
N12 N 0.58818 0.07374 0.40226 0.0
N13 N 0.63315 0.07195 0.42811 0.0
C14 C 0.4987 0.25656 0.36258 0.0
C15 C 0.52572 0.28398 0.33387 0.0
N16 N 0.527 0.2375 0.35649 0.0
N17 N 0.54352 0.25441 0.33847 0.0
N18 N 0.49735 0.2858 0.34863 0.0
H19 H 0.44768 0.24323 0.37555 0.0
H20 H 0.47177 0.27098 0.3962 0.0
H21 H 0.48189 0.22506 0.39419 0.0
C22 C 0.47393 0.24826 0.38345 0.0
C23 C 0.6425 0.13657 0.43377 0.0
H24 H 0.66649 0.14254 0.42303 0.0
H25 H 0.65012 0.13127 0.45341 0.0
H26 H 0.62553 0.15977 0.43344 0.0
O27 O 0.56427 0.1716 0.42653 0.0
O28 O 0.5419 0.21716 0.40783 0.0
C29 C 0.62561 0.20311 0.37808 0.0
O30 O 0.5002 0.16899 0.37488 0.0
O31 O 0.52534 0.12305 0.39164 0.0
Zn32 Zn 0.34781 0.57616 0.38956 0.0
O33 O 0.32041 0.62318 0.38853 0.0
C34 C 0.29681 0.55114 0.42731 0.0
Zn35 Zn 0.30173 0.55104 0.37166 0.0
C36 C 0.29055 0.62643 0.37875 0.0
O37 O 0.27554 0.60005 0.36929 0.0
C38 C 0.35998 0.50116 0.38163 0.0
O39 O 0.32297 0.55925 0.33636 0.0
O40 O 0.3678 0.58651 0.35286 0.0
N41 N 0.25935 0.52755 0.35593 0.0
C42 C 0.24073 0.49922 0.36262 0.0
C43 C 0.21258 0.52488 0.33364 0.0
N44 N 0.24199 0.5432 0.33772 0.0
N45 N 0.21131 0.49701 0.34891 0.0
C46 C 0.38995 0.62902 0.42132 0.0
C47 C 0.44282 0.61643 0.41309 0.0
N48 N 0.38948 0.6017 0.40542 0.0
N49 N 0.42239 0.59391 0.40033 0.0
N50 N 0.42297 0.63902 0.42608 0.0
H51 H 0.35043 0.66823 0.42253 0.0
H52 H 0.36436 0.65336 0.45272 0.0
H53 H 0.33622 0.62657 0.43399 0.0
C54 C 0.35836 0.6449 0.43336 0.0
C55 C 0.24953 0.47536 0.38392 0.0
H56 H 0.25258 0.44841 0.37676 0.0
H57 H 0.22775 0.47518 0.39756 0.0
H58 H 0.27393 0.48284 0.39344 0.0
O59 O 0.32888 0.50305 0.37349 0.0
O60 O 0.37488 0.52845 0.38991 0.0
C61 C 0.35156 0.57546 0.33364 0.0
O62 O 0.32681 0.56506 0.42573 0.0
O63 O 0.28055 0.54322 0.40746 0.0
Zn64 Zn 0.94563 0.30157 0.37141 0.0
O65 O 0.93688 0.3255 0.33691 0.0
C66 C -0.00169 0.35684 0.38324 0.0
Zn67 Zn 0.92284 0.3477 0.39071 0.0
C68 C 0.92303 0.35549 0.33534 0.0
O69 O 0.91434 0.37157 0.35521 0.0
C70 C 0.94559 0.29226 0.42645 0.0
O71 O 0.87415 0.32379 0.38732 0.0
O72 O 0.89572 0.27739 0.36919 0.0
N73 N 0.89929 0.38892 0.40852 0.0
C74 C 0.87191 0.3891 0.42437 0.0
C75 C 0.8873 0.44196 0.41906 0.0
N76 N 0.90881 0.42181 0.40524 0.0
N77 N 0.86362 0.42201 0.43094 0.0
C78 C 0.9949 0.23963 0.35957 0.0
C79 C 0.96702 0.21356 0.33061 0.0
N80 N 0.96695 0.25943 0.35391 0.0
N81 N 0.94989 0.24337 0.33573 0.0
N82 N 0.99548 0.21072 0.34522 0.0
H83 H 0.04641 0.25087 0.37265 0.0
H84 H 0.02123 0.22393 0.39315 0.0
H85 H 0.01299 0.27024 0.39133 0.0
C86 C 0.01998 0.2468 0.38049 0.0
C87 C 0.85442 0.35714 0.43467 0.0
H88 H 0.83054 0.35167 0.42366 0.0
H89 H 0.8466 0.36138 0.4544 0.0
H90 H 0.87141 0.33399 0.43381 0.0
O91 O 0.93216 0.32256 0.42599 0.0
O92 O 0.95364 0.27762 0.40603 0.0
C93 C 0.86957 0.29417 0.37741 0.0
O94 O 0.99479 0.32689 0.37333 0.0
O95 O 0.97196 0.37187 0.39284 0.0
Zn96 Zn 0.14514 0.92196 0.39065 0.0
O97 O 0.17137 0.87424 0.39055 0.0
C98 C 0.19621 0.94735 0.42827 0.0
Zn99 Zn 0.19195 0.94572 0.37257 0.0
C100 C 0.2013 0.87014 0.38107 0.0
O101 O 0.21698 0.896 0.37147 0.0
C102 C 0.13409 -0.00317 0.38122 0.0
O103 O 0.17164 0.93662 0.33716 0.0
O104 O 0.12577 0.91108 0.35372 0.0
N105 N 0.23622 0.96718 0.35773 0.0
C106 C 0.25264 -0.00264 0.36302 0.0
C107 C 0.28768 0.96639 0.34155 0.0
N108 N 0.25796 0.94808 0.34424 0.0
N109 N 0.28519 -0.00267 0.35336 0.0
C110 C 0.10123 0.87123 0.42305 0.0
C111 C 0.04879 0.88511 0.41448 0.0
N112 N 0.10259 0.89789 0.40663 0.0
N113 N 0.06994 0.9065 0.40135 0.0
N114 N 0.0679 0.86246 0.42797 0.0
H115 H 0.13966 0.83101 0.42485 0.0
H116 H 0.12589 0.84689 0.45483 0.0
H117 H 0.15488 0.87256 0.43596 0.0
C118 C 0.13228 0.85477 0.43541 0.0
C119 C 0.23527 0.02787 0.37531 0.0
H120 H 0.21275 0.03558 0.36368 0.0
H121 H 0.2523 0.05106 0.37657 0.0
H122 H 0.22566 0.02048 0.39412 0.0
O123 O 0.16526 0.99425 0.37329 0.0
O124 O 0.11889 0.97009 0.39003 0.0
C125 C 0.14268 0.92101 0.33446 0.0
O126 O 0.16605 0.9337 0.42685 0.0
O127 O 0.21239 0.95479 0.40831 0.0
Zn128 Zn 0.04855 0.80257 0.12286 0.0
O129 O 0.05872 0.82432 0.158 0.0
C130 C -0.00216 0.85986 0.11394 0.0
Zn131 Zn 0.07338 0.84933 0.10551 0.0
C132 C 0.07372 0.85363 0.16079 0.0
O133 O 0.08335 0.87088 0.14161 0.0
C134 C 0.04761 0.79641 0.06803 0.0
O135 O 0.12176 0.82386 0.10681 0.0
O136 O 0.09824 0.77729 0.12349 0.0
N137 N 0.09543 0.89095 0.08717 0.0
C138 C 0.12871 0.90209 0.08565 0.0
C139 C 0.10033 0.92766 0.05686 0.0
N140 N 0.07776 0.90727 0.06943 0.0
N141 N 0.13268 0.92471 0.06648 0.0
C142 C -0.00301 0.74224 0.13389 0.0
C143 C 0.02843 0.70811 0.15574 0.0
N144 N 0.02715 0.75901 0.13876 0.0
N145 N 0.04649 0.73787 0.15254 0.0
N146 N -0.00261 0.70994 0.144 0.0
H147 H 0.9588 0.78262 0.13151 0.0
H148 H 0.94304 0.74178 0.12097 0.0
H149 H 0.97337 0.76634 0.10178 0.0
C150 C 0.96632 0.75881 0.12113 0.0
C151 C 0.15684 0.89208 0.10363 0.0
H152 H 0.14563 0.88582 0.12219 0.0
H153 H 0.17614 0.91347 0.10554 0.0
H154 H 0.17049 0.86875 0.09644 0.0
O155 O 0.06287 0.82583 0.06948 0.0
O156 O 0.03851 0.78112 0.08795 0.0
C157 C 0.12505 0.79346 0.11577 0.0
O158 O 0.00012 0.82891 0.12218 0.0
O159 O 0.02473 0.87492 0.1053 0.0
Zn160 Zn 0.68951 0.04843 0.12477 0.0
O161 O 0.66948 0.05931 0.16019 0.0
C162 C 0.63343 0.99551 0.11571 0.0
Zn163 Zn 0.64239 0.07035 0.10614 0.0
C164 C 0.63907 0.07207 0.16226 0.0
O165 O 0.62155 0.07895 0.14265 0.0
C166 C 0.69453 0.04582 0.06911 0.0
O167 O 0.66603 0.11945 0.10782 0.0
O168 O 0.71402 0.09844 0.124 0.0
N169 N 0.59939 0.09373 0.09059 0.0
C170 C 0.59684 0.11477 0.07049 0.0
C171 C 0.54726 0.11502 0.0885 0.0
N172 N 0.56854 0.09393 0.10176 0.0
N173 N 0.56448 0.12814 0.06873 0.0
C174 C 0.75121 -0.00194 0.13505 0.0
C175 C 0.78525 0.03021 0.15647 0.0
N176 N 0.73405 0.02798 0.13996 0.0
N177 N 0.75516 0.04778 0.15345 0.0
N178 N 0.78369 -0.00095 0.14489 0.0
H179 H 0.71109 0.95952 0.1328 0.0
H180 H 0.75212 0.94394 0.12256 0.0
H181 H 0.72745 0.97376 0.10305 0.0
C182 C 0.73491 0.96707 0.12248 0.0
C183 C 0.62631 0.12401 0.05327 0.0
H184 H 0.62252 0.15029 0.04506 0.0
H185 H 0.62695 0.10485 0.03776 0.0
H186 H 0.65171 0.12349 0.06299 0.0
O187 O 0.66489 0.06066 0.07008 0.0
O188 O 0.70969 0.03755 0.0893 0.0
C189 C 0.69661 0.12433 0.11602 0.0
O190 O 0.66332 -0.0002 0.12556 0.0
O191 O 0.61838 0.0211 0.10515 0.0
Zn192 Zn 0.41763 0.63853 0.10368 0.0
O193 O 0.37034 0.66514 0.10642 0.0
C194 C 0.44111 0.68826 0.06376 0.0
Zn195 Zn 0.4432 0.68622 0.11908 0.0
C196 C 0.36706 0.69589 0.11468 0.0
O197 O 0.39409 0.71265 0.12139 0.0
C198 C 0.493 0.62751 0.10952 0.0
O199 O 0.43555 0.66613 0.15522 0.0
O200 O 0.40954 0.61943 0.14051 0.0
N201 N 0.46743 0.72883 0.13425 0.0
C202 C 0.49279 0.74967 0.12531 0.0
C203 C 0.4767 0.77092 0.16025 0.0
N204 N 0.45763 0.74195 0.15606 0.0
N205 N 0.49885 0.77631 0.14114 0.0
C206 C 0.36323 0.5961 0.07373 0.0
C207 C 0.37537 0.54329 0.08247 0.0
N208 N 0.39126 0.59659 0.08898 0.0
N209 N 0.39877 0.56372 0.0944 0.0
N210 N 0.35252 0.56313 0.06971 0.0
H211 H 0.36518 0.65002 0.06111 0.0
H212 H 0.32344 0.63513 0.07168 0.0
H213 H 0.33967 0.62126 0.04192 0.0
C214 C 0.34733 0.62752 0.06141 0.0
C215 C 0.51252 0.74351 0.10158 0.0
H216 H 0.5396 0.75344 0.10328 0.0
H217 H 0.49953 0.758 0.0863 0.0
H218 H 0.51325 0.71545 0.09678 0.0
O219 O 0.4913 0.65901 0.11688 0.0
O220 O 0.46552 0.6118 0.10242 0.0
C221 C 0.42035 0.63721 0.15905 0.0
O222 O 0.42658 0.65877 0.06676 0.0
O223 O 0.45046 0.70567 0.08278 0.0
Zn224 Zn 0.80443 0.44223 0.12157 0.0
O225 O 0.8231 0.43313 0.1578 0.0
C226 C 0.86273 0.49279 0.11392 0.0
Zn227 Zn 0.8527 0.41753 0.10645 0.0
C228 C 0.85258 0.4191 0.16185 0.0
O229 O 0.87134 0.40947 0.14346 0.0
C230 C 0.80324 0.44192 0.0665 0.0
O231 O 0.82747 0.3695 0.10843 0.0
O232 O 0.77876 0.39252 0.12176 0.0
N233 N 0.89553 0.39276 0.09166 0.0
C234 C 0.89696 0.36524 0.07598 0.0
C235 C 0.94936 0.37958 0.08434 0.0
N236 N 0.92814 0.40164 0.09685 0.0
N237 N 0.9303 0.3562 0.07144 0.0
C238 C 0.74245 0.49344 0.12972 0.0
C239 C 0.70897 0.46283 0.15268 0.0
N240 N 0.7598 0.46395 0.13557 0.0
N241 N 0.73904 0.44516 0.15 0.0
N242 N 0.71018 0.49309 0.13994 0.0
H243 H 0.78298 0.5312 0.12523 0.0
H244 H 0.74148 0.54681 0.11585 0.0
H245 H 0.76462 0.51564 0.09645 0.0
C246 C 0.75844 0.52348 0.11589 0.0
C247 C 0.86599 0.34827 0.06377 0.0
H248 H 0.84307 0.36558 0.06326 0.0
H249 H 0.85898 0.32442 0.07433 0.0
H250 H 0.87236 0.34043 0.04434 0.0
O251 O 0.83248 0.42679 0.06943 0.0
O252 O 0.78611 0.45145 0.08555 0.0
C253 C 0.79621 0.36578 0.11547 0.0
O254 O 0.83128 0.49058 0.12129 0.0
O255 O 0.87841 0.46583 0.10592 0.0
Zn256 Zn 0.44326 0.79945 0.62595 0.0
O257 O 0.43352 0.82002 0.66119 0.0
C258 C 0.49314 0.85849 0.61735 0.0
Zn259 Zn 0.41875 0.84571 0.60781 0.0
C260 C 0.41701 0.84843 0.66388 0.0
O261 O 0.4067 0.86503 0.6446 0.0
C262 C 0.44532 0.79516 0.57022 0.0
O263 O 0.37209 0.81766 0.60773 0.0
O264 O 0.39458 0.77264 0.62722 0.0
N265 N 0.39328 0.88727 0.59166 0.0
C266 C 0.3666 0.88767 0.57519 0.0
C267 C 0.37875 0.94056 0.58372 0.0
N268 N 0.40079 0.92018 0.59691 0.0
N269 N 0.35675 0.9207 0.5702 0.0
C270 C 0.4948 0.73844 0.63418 0.0
C271 C 0.47368 0.71292 0.66613 0.0
N272 N 0.46716 0.75734 0.64178 0.0
N273 N 0.4542 0.74157 0.66176 0.0
N274 N 0.49926 0.71051 0.64902 0.0
H275 H 0.54601 0.74501 0.61895 0.0
H276 H 0.51451 0.72865 0.59746 0.0
H277 H 0.514 0.77417 0.60578 0.0
C278 C 0.51846 0.74752 0.61285 0.0
C279 C 0.35132 0.856 0.56284 0.0
H280 H 0.37009 0.83422 0.56214 0.0
H281 H 0.32808 0.84744 0.57353 0.0
H282 H 0.34294 0.86208 0.54348 0.0
O283 O 0.43146 0.82521 0.57166 0.0
O284 O 0.45254 0.77884 0.59017 0.0
C285 C 0.36857 0.78766 0.61724 0.0
O286 O 0.49094 0.82729 0.62521 0.0
O287 O 0.46619 0.87345 0.60859 0.0
Zn288 Zn 0.64726 0.42235 0.60984 0.0
O289 O 0.67058 0.37342 0.61344 0.0
C290 C 0.70241 0.44355 0.57321 0.0
Zn291 Zn 0.69475 0.44379 0.62825 0.0
C292 C 0.70045 0.36807 0.62272 0.0
O293 O 0.71835 0.39377 0.63039 0.0
C294 C 0.63991 0.49762 0.61719 0.0
O295 O 0.67182 0.43604 0.66293 0.0
O296 O 0.62411 0.41489 0.64592 0.0
N297 N 0.73742 0.46488 0.64509 0.0
C298 C 0.75676 0.49313 0.63944 0.0
C299 C 0.78367 0.46528 0.66799 0.0
N300 N 0.754 0.44782 0.66302 0.0
N301 N 0.78586 0.49395 0.65357 0.0
C302 C 0.60553 0.37076 0.57688 0.0
C303 C 0.55258 0.38564 0.58237 0.0
N304 N 0.60562 0.39848 0.59246 0.0
N305 N 0.57266 0.40768 0.59585 0.0
N306 N 0.57265 0.36193 0.57062 0.0
H307 H 0.64311 0.3295 0.57749 0.0
H308 H 0.63307 0.34534 0.54679 0.0
H309 H 0.66063 0.37031 0.56715 0.0
C310 C 0.6375 0.35331 0.56648 0.0
C311 C 0.74886 0.51841 0.61878 0.0
H312 H 0.74324 0.54435 0.62699 0.0
H313 H 0.77194 0.52119 0.60643 0.0
H314 H 0.72612 0.51057 0.60751 0.0
O315 O 0.67002 0.49296 0.62659 0.0
O316 O 0.62371 0.47193 0.6076 0.0
C317 C 0.64141 0.4235 0.66532 0.0
O318 O 0.67179 0.4309 0.57414 0.0
O319 O 0.71787 0.45116 0.5934 0.0
Zn320 Zn 0.07097 0.64723 0.60462 0.0
O321 O 0.11846 0.67338 0.60324 0.0
C322 C 0.04403 0.70031 0.56873 0.0
Zn323 Zn 0.04807 0.69323 0.62395 0.0
C324 C 0.12341 0.70253 0.6137 0.0
O325 O 0.09818 0.71762 0.62459 0.0
C326 C -0.00354 0.6361 0.6155 0.0
O327 O 0.05847 0.67095 0.65838 0.0
O328 O 0.08386 0.6258 0.64066 0.0
N329 N 0.02791 0.73678 0.64059 0.0
C330 C -0.00262 0.75332 0.63681 0.0
C331 C 0.03021 0.78792 0.65721 0.0
N332 N 0.04816 0.75821 0.65346 0.0
N333 N -0.00166 0.78569 0.64673 0.0
C334 C 0.12644 0.59606 0.58373 0.0
C335 C 0.09787 0.57011 0.55515 0.0
N336 N 0.09287 0.60614 0.58583 0.0
N337 N 0.07511 0.58964 0.56823 0.0
N338 N 0.13043 0.57385 0.5643 0.0
H339 H 0.1438 0.61101 0.62051 0.0
H340 H 0.17481 0.58543 0.60274 0.0
H341 H 0.16756 0.63051 0.59525 0.0
C342 C 0.15475 0.60623 0.60165 0.0
C343 C 0.96583 0.73631 0.62564 0.0
H344 H 0.95911 0.71341 0.63721 0.0
H345 H 0.9426 0.75339 0.62574 0.0
H346 H 0.97155 0.7274 0.60635 0.0
O347 O -0.00075 0.6671 0.6237 0.0
O348 O 0.02293 0.62115 0.6061 0.0
C349 C 0.07424 0.64199 0.66034 0.0
O350 O 0.05766 0.67008 0.56929 0.0
O351 O 0.03747 0.71576 0.58913 0.0
Zn352 Zn 0.84587 0.07181 0.60763 0.0
O353 O 0.8213 0.11981 0.61029 0.0
C354 C 0.79236 0.0478 0.57062 0.0
Zn355 Zn 0.79912 0.04806 0.62564 0.0
C356 C 0.79134 0.12421 0.61965 0.0
O357 O 0.77438 0.09796 0.6275 0.0
C358 C 0.85575 -0.0033 0.61537 0.0
O359 O 0.82167 0.05679 0.66061 0.0
O360 O 0.86799 0.08077 0.64361 0.0
N361 N 0.7565 0.0264 0.64237 0.0
C362 C 0.73688 -0.00161 0.63649 0.0
C363 C 0.71014 0.02617 0.66516 0.0
N364 N 0.74 0.04339 0.66038 0.0
N365 N 0.70767 -0.00228 0.65051 0.0
C366 C 0.88795 0.12316 0.57478 0.0
C367 C 0.94078 0.10834 0.58101 0.0
N368 N 0.88752 0.09582 0.59065 0.0
N369 N 0.9204 0.08664 0.59449 0.0
N370 N 0.92097 0.13176 0.56877 0.0
H371 H 0.85004 0.16409 0.57485 0.0
H372 H 0.86112 0.14838 0.54428 0.0
H373 H 0.83323 0.12305 0.5642 0.0
C374 C 0.85619 0.14035 0.56388 0.0
C375 C 0.74459 0.97333 0.61567 0.0
H376 H 0.74788 0.94679 0.62349 0.0
H377 H 0.72224 0.97254 0.6025 0.0
H378 H 0.76862 0.98009 0.60543 0.0
O379 O 0.82498 -0.00079 0.62405 0.0
O380 O 0.87093 0.02342 0.60651 0.0
C381 C 0.85128 0.07121 0.663 0.0
O382 O 0.82234 0.0619 0.57174 0.0
O383 O 0.77681 0.03968 0.59066 0.0
Zn384 Zn 0.94338 0.19119 0.87299 0.0
O385 O 0.93502 0.16839 0.83824 0.0
C386 C 0.99438 0.13407 0.88259 0.0
Zn387 Zn 0.9195 0.14547 0.89195 0.0
C388 C 0.91822 0.14004 0.83623 0.0
O389 O 0.90718 0.1248 0.85585 0.0
C390 C 0.94545 0.19788 0.9284 0.0
O391 O 0.87207 0.17233 0.89224 0.0
O392 O 0.89348 0.21586 0.87063 0.0
N393 N 0.89556 0.10365 0.90877 0.0
C394 C 0.86898 0.10291 0.92528 0.0
C395 C 0.88156 0.05017 0.91658 0.0
N396 N 0.90338 0.07083 0.90343 0.0
N397 N 0.85945 0.06979 0.93016 0.0
C398 C 0.99291 0.25346 0.86203 0.0
C399 C 0.9653 0.2797 0.83304 0.0
N400 N 0.96505 0.23365 0.85614 0.0
N401 N 0.94816 0.24983 0.83794 0.0
N402 N 0.9936 0.28245 0.8478 0.0
H403 H 0.04448 0.24316 0.87538 0.0
H404 H 0.01819 0.26866 0.8961 0.0
H405 H 0.01112 0.22219 0.89334 0.0
C406 C 0.01779 0.24619 0.88303 0.0
C407 C 0.85332 0.13436 0.93765 0.0
H408 H 0.8298 0.14243 0.92709 0.0
H409 H 0.84524 0.12815 0.95705 0.0
H410 H 0.87176 0.15645 0.93819 0.0
O411 O 0.9328 0.16724 0.92762 0.0
O412 O 0.95132 0.21393 0.90813 0.0
C413 C 0.86782 0.20132 0.88139 0.0
O414 O 0.99245 0.1654 0.87493 0.0
O415 O 0.96727 0.11881 0.89075 0.0
Zn416 Zn 0.35072 0.91921 0.89378 0.0
O417 O 0.32474 0.8714 0.89609 0.0
C418 C 0.30183 0.94706 0.93271 0.0
Zn419 Zn 0.30262 0.94278 0.87756 0.0
C420 C 0.29382 0.86719 0.88833 0.0
O421 O 0.27749 0.89306 0.87922 0.0
C422 C 0.36067 0.99374 0.88258 0.0
O423 O 0.32098 0.93113 0.84168 0.0
O424 O 0.36839 0.9069 0.85697 0.0
N425 N 0.25778 0.9635 0.86309 0.0
C426 C 0.24168 0.99424 0.86719 0.0
C427 C 0.20622 0.96187 0.84715 0.0
N428 N 0.23579 0.94357 0.85047 0.0
N429 N 0.20902 0.99368 0.85766 0.0
C430 C 0.40454 0.86362 0.91051 0.0
C431 C 0.42957 0.88953 0.94074 0.0
N432 N 0.39348 0.897 0.91034 0.0
N433 N 0.40949 0.91316 0.92894 0.0
N434 N 0.42673 0.85804 0.92971 0.0
H435 H 0.39115 0.8497 0.87266 0.0
H436 H 0.41677 0.81756 0.88924 0.0
H437 H 0.37147 0.82311 0.89621 0.0
C438 C 0.39553 0.83706 0.89098 0.0
C439 C 0.25927 0.02546 0.87849 0.0
H440 H 0.28227 0.03233 0.867 0.0
H441 H 0.24241 0.04884 0.87875 0.0
H442 H 0.26833 0.0193 0.89767 0.0
O443 O 0.32896 0.99107 0.87601 0.0
O444 O 0.37674 0.96733 0.89106 0.0
C445 C 0.3499 0.91571 0.8382 0.0
O446 O 0.3313 0.93216 0.93037 0.0
O447 O 0.28443 0.95453 0.91331 0.0
Zn448 Zn 0.57182 0.34568 0.89337 0.0
O449 O 0.61852 0.31817 0.8948 0.0
C450 C 0.54465 0.29241 0.92881 0.0
Zn451 Zn 0.54829 0.30041 0.87368 0.0
C452 C 0.62334 0.28952 0.88361 0.0
O453 O 0.59819 0.27538 0.87197 0.0
C454 C 0.49776 0.35816 0.88301 0.0
O455 O 0.55772 0.32335 0.8394 0.0
O456 O 0.58511 0.36705 0.85742 0.0
N457 N 0.5268 0.25768 0.85683 0.0
C458 C 0.49669 0.24071 0.8614 0.0
C459 C 0.52781 0.20773 0.83841 0.0
N460 N 0.54594 0.23728 0.84234 0.0
N461 N 0.49693 0.209 0.85038 0.0
C462 C 0.62885 0.39555 0.91376 0.0
C463 C 0.60133 0.42314 0.94206 0.0
N464 N 0.59502 0.38616 0.91207 0.0
N465 N 0.57792 0.40364 0.92952 0.0
N466 N 0.63361 0.41837 0.9327 0.0
H467 H 0.6456 0.37855 0.87728 0.0
H468 H 0.6773 0.40419 0.89435 0.0
H469 H 0.66908 0.35969 0.90296 0.0
C470 C 0.65677 0.38393 0.89598 0.0
C471 C 0.46622 0.25661 0.87484 0.0
H472 H 0.45848 0.28088 0.86514 0.0
H473 H 0.44297 0.23954 0.87477 0.0
H474 H 0.47361 0.26323 0.89431 0.0
O475 O 0.49974 0.32693 0.87518 0.0
O476 O 0.52466 0.3731 0.89173 0.0
C477 C 0.57434 0.35185 0.83765 0.0
O478 O 0.55776 0.3229 0.92874 0.0
O479 O 0.53875 0.27733 0.90817 0.0
Zn480 Zn 0.19051 0.54914 0.87287 0.0
O481 O 0.17165 0.56068 0.83729 0.0
C482 C 0.13214 0.49766 0.88016 0.0
Zn483 Zn 0.14257 0.57219 0.88971 0.0
C484 C 0.14168 0.57397 0.83399 0.0
O485 O 0.12287 0.58162 0.85288 0.0
C486 C 0.19315 0.54579 0.928 0.0
O487 O 0.16754 0.6202 0.88809 0.0
O488 O 0.21663 0.5986 0.87427 0.0
N489 N 0.10036 0.5969 0.90574 0.0
C490 C 0.0999 0.62421 0.92169 0.0
C491 C 0.04703 0.6111 0.91392 0.0
N492 N 0.06744 0.58878 0.90096 0.0
N493 N 0.06687 0.63389 0.92677 0.0
C494 C 0.25163 0.49789 0.86324 0.0
C495 C 0.2861 0.52916 0.84154 0.0
N496 N 0.23486 0.52791 0.85803 0.0
N497 N 0.25624 0.54717 0.84439 0.0
N498 N 0.28409 0.49824 0.8534 0.0
H499 H 0.2111 0.46018 0.8654 0.0
H500 H 0.25165 0.44386 0.87594 0.0
H501 H 0.22724 0.47422 0.89522 0.0
C502 C 0.23484 0.4673 0.87587 0.0
C503 C 0.13156 0.64044 0.9335 0.0
H504 H 0.13922 0.66382 0.92262 0.0
H505 H 0.12576 0.64885 0.9529 0.0
H506 H 0.1539 0.62237 0.93401 0.0
O507 O 0.164 0.56144 0.92625 0.0
O508 O 0.20928 0.53738 0.90826 0.0
C509 C 0.1987 0.62472 0.88117 0.0
O510 O 0.16293 0.50098 0.87157 0.0
O511 O 0.11706 0.52378 0.89003 0.0
H512 H 0.54385 0.16871 0.29165 0.0
H513 H 0.57549 0.10022 0.1741 0.0
H514 H 0.6115 0.08767 0.31961 0.0
H515 H 0.66976 0.06013 0.20758 0.0
H516 H 0.55362 0.11432 0.21569 0.0
H517 H 0.55577 0.14967 0.24929 0.0
C518 C 0.56088 0.14652 0.28888 0.0
C519 C 0.57678 0.12979 0.30924 0.0
C520 C 0.5793 0.10292 0.21397 0.0
C521 C 0.58999 0.10717 0.2605 0.0
C522 C 0.59166 0.09456 0.1902 0.0
C523 C 0.62472 0.07948 0.18732 0.0
C524 C 0.6003 0.09641 0.23501 0.0
C525 C 0.64429 0.07215 0.20888 0.0
C526 C 0.56737 0.13535 0.26458 0.0
C527 C 0.59865 0.10126 0.30446 0.0
N528 N 0.63183 0.08081 0.2318 0.0
N529 N 0.60492 0.09108 0.28052 0.0
H530 H 0.44555 0.66588 0.20222 0.0
H531 H 0.3289 0.54584 0.29031 0.0
H532 H 0.38129 0.58163 0.17495 0.0
H533 H 0.40485 0.61878 0.31885 0.0
H534 H 0.34878 0.55802 0.24803 0.0
H535 H 0.43215 0.64842 0.245 0.0
C536 C 0.42876 0.64357 0.20522 0.0
C537 C 0.4143 0.62532 0.18495 0.0
C538 C 0.36129 0.57124 0.2635 0.0
C539 C 0.39876 0.60533 0.23394 0.0
C540 C 0.34988 0.56439 0.2877 0.0
C541 C 0.36508 0.58154 0.30816 0.0
C542 C 0.38793 0.59569 0.25961 0.0
C543 C 0.39236 0.60505 0.30361 0.0
C544 C 0.42119 0.63359 0.22967 0.0
C545 C 0.39291 0.59652 0.18999 0.0
N546 N 0.40273 0.61167 0.27977 0.0
N547 N 0.38557 0.58759 0.21398 0.0
H548 H 0.88744 0.41553 0.32389 0.0
H549 H 0.82107 0.44182 0.20459 0.0
H550 H 0.94213 0.32928 0.28995 0.0
H551 H 0.9111 0.38496 0.17843 0.0
H552 H 0.83935 0.4315 0.24742 0.0
H553 H 0.87201 0.43659 0.28226 0.0
C554 C 0.89617 0.40102 0.30769 0.0
C555 C 0.91564 0.37032 0.31042 0.0
C556 C 0.85565 0.42195 0.23242 0.0
C557 C 0.89728 0.39364 0.26272 0.0
C558 C 0.84496 0.42748 0.20786 0.0
C559 C 0.86455 0.41416 0.18786 0.0
C560 C 0.88624 0.40294 0.23709 0.0
C561 C 0.8952 0.3957 0.19327 0.0
C562 C 0.88701 0.41283 0.28389 0.0
C563 C 0.92667 0.35282 0.28876 0.0
N564 N 0.90492 0.39036 0.2174 0.0
N565 N 0.91722 0.36466 0.26585 0.0
H566 H 0.16761 0.94753 0.29071 0.0
H567 H 0.04714 0.82852 0.20448 0.0
H568 H 0.08794 0.87933 0.31997 0.0
H569 H 0.11542 0.90823 0.17539 0.0
H570 H 0.06089 0.8475 0.2468 0.0
H571 H 0.14811 0.93421 0.24846 0.0
C572 C 0.1459 0.9298 0.28826 0.0
C573 C 0.12952 0.9143 0.30894 0.0
C574 C 0.07271 0.86102 0.2312 0.0
C575 C 0.10713 0.89887 0.26044 0.0
C576 C 0.06495 0.85015 0.20698 0.0
C577 C 0.08037 0.86668 0.18634 0.0
C578 C 0.09633 0.88845 0.23489 0.0
C579 C 0.10301 0.89471 0.19076 0.0
C580 C 0.13472 0.9223 0.26409 0.0
C581 C 0.10137 0.89178 0.30458 0.0
N582 N 0.11053 0.90454 0.21458 0.0
N583 N 0.09122 0.88452 0.28078 0.0
H584 H 0.32074 0.93868 0.79465 0.0
H585 H 0.445 0.82487 0.7075 0.0
H586 H 0.40544 0.87589 0.8229 0.0
H587 H 0.37234 0.90072 0.67854 0.0
H588 H 0.43069 0.84326 0.7498 0.0
H589 H 0.33892 0.925 0.7521 0.0
C590 C 0.34323 0.92203 0.79192 0.0
C591 C 0.36152 0.90824 0.81241 0.0
C592 C 0.41798 0.85606 0.73424 0.0
C593 C 0.38241 0.89246 0.76362 0.0
C594 C 0.42607 0.84552 0.71002 0.0
C595 C 0.40966 0.86116 0.68941 0.0
C596 C 0.39304 0.88225 0.738 0.0
C597 C 0.38557 0.88794 0.69388 0.0
C598 C 0.35364 0.91434 0.76758 0.0
C599 C 0.39055 0.88703 0.80769 0.0
N600 N 0.37777 0.89748 0.71773 0.0
N601 N 0.39997 0.87962 0.78377 0.0
H602 H 0.54379 0.3323 0.79397 0.0
H603 H 0.66722 0.44928 0.709 0.0
H604 H 0.61887 0.40487 0.82415 0.0
H605 H 0.58407 0.38542 0.67959 0.0
H606 H 0.64775 0.43604 0.75125 0.0
H607 H 0.55617 0.35386 0.7522 0.0
C608 C 0.56288 0.35289 0.79183 0.0
C609 C 0.58064 0.36657 0.81259 0.0
C610 C 0.63355 0.42514 0.73559 0.0
C611 C 0.59495 0.39138 0.7646 0.0
C612 C 0.64468 0.43261 0.71142 0.0
C613 C 0.62744 0.41809 0.69072 0.0
C614 C 0.60514 0.40272 0.73917 0.0
C615 C 0.5982 0.39702 0.69501 0.0
C616 C 0.56982 0.36528 0.76792 0.0
C617 C 0.60473 0.39349 0.80865 0.0
N618 N 0.58818 0.38968 0.7188 0.0
N619 N 0.61143 0.40482 0.78505 0.0
H620 H 0.04369 0.66195 0.70386 0.0
H621 H 0.17182 0.55236 0.79047 0.0
H622 H 0.12038 0.59058 0.67438 0.0
H623 H 0.08365 0.61016 0.81874 0.0
H624 H 0.15308 0.56521 0.74793 0.0
H625 H 0.05748 0.64236 0.74593 0.0
C626 C 0.06342 0.64201 0.70623 0.0
C627 C 0.08117 0.62807 0.68557 0.0
C628 C 0.1377 0.57491 0.76341 0.0
C629 C 0.09718 0.60559 0.73389 0.0
C630 C 0.14843 0.56771 0.78775 0.0
C631 C 0.12939 0.58046 0.80824 0.0
C632 C 0.10786 0.59527 0.75946 0.0
C633 C 0.09917 0.59992 0.80352 0.0
C634 C 0.07118 0.63076 0.73031 0.0
C635 C 0.10615 0.60205 0.68979 0.0
N636 N 0.08949 0.60696 0.77961 0.0
N637 N 0.11368 0.59187 0.71355 0.0
H638 H 0.90852 0.10984 0.67644 0.0
H639 H 0.87529 0.08563 0.82328 0.0
H640 H 0.82567 0.04692 0.70724 0.0
H641 H 0.94572 0.16178 0.79195 0.0
H642 H 0.86225 0.06505 0.78096 0.0
H643 H 0.92813 0.12305 0.71894 0.0
C644 C 0.89463 0.09861 0.69211 0.0
C645 C 0.86523 0.07755 0.68831 0.0
C646 C 0.88068 0.08616 0.78341 0.0
C647 C 0.88743 0.09251 0.73687 0.0
C648 C 0.88815 0.09785 0.80754 0.0
C649 C 0.91134 0.12566 0.81112 0.0
C650 C 0.89666 0.1023 0.76279 0.0
C651 C 0.92738 0.14049 0.79006 0.0
C652 C 0.90576 0.1062 0.71635 0.0
C653 C 0.84826 0.06359 0.7093 0.0
N654 N 0.91964 0.12871 0.76681 0.0
N655 N 0.85952 0.07144 0.73267 0.0
H656 H 0.49217 0.06926 0.37289 0.0
H657 H 0.30134 0.03097 0.39665 0.0
H658 H 0.43088 0.16165 0.3866 0.0
H659 H 0.33643 0.01412 0.32104 0.0
H660 H 0.3517 0.06899 0.40388 0.0
H661 H 0.43831 0.03671 0.36465 0.0
C662 C 0.46733 0.08252 0.37454 0.0
C663 C 0.46575 0.11807 0.38054 0.0
C664 C 0.34781 0.05743 0.38561 0.0
C665 C 0.40473 0.08106 0.37145 0.0
C666 C 0.31892 0.03623 0.3813 0.0
C667 C 0.31373 0.0209 0.35773 0.0
C668 C 0.37247 0.06177 0.36665 0.0
C669 C 0.33909 0.02619 0.33923 0.0
C670 C 0.43686 0.06405 0.36962 0.0
C671 C 0.433 0.13422 0.38205 0.0
N672 N 0.36768 0.04595 0.34415 0.0
N673 N 0.40351 0.11541 0.3778 0.0
H674 H 0.42928 0.49031 0.39064 0.0
H675 H 0.42687 0.28974 0.34957 0.0
H676 H 0.33553 0.43707 0.36731 0.0
H677 H 0.52049 0.35074 0.35715 0.0
H678 H 0.39212 0.34168 0.35963 0.0
H679 H 0.46242 0.43714 0.38291 0.0
C680 C 0.41559 0.46735 0.38412 0.0
C681 C 0.3796 0.4682 0.37948 0.0
C682 C 0.42027 0.34371 0.35906 0.0
C683 C 0.41747 0.4073 0.37041 0.0
C684 C 0.43997 0.31413 0.35344 0.0
C685 C 0.47641 0.31619 0.35277 0.0
C686 C 0.43729 0.37536 0.36418 0.0
C687 C 0.49238 0.34836 0.35741 0.0
C688 C 0.43458 0.43705 0.37956 0.0
C689 C 0.36328 0.43762 0.37101 0.0
N690 N 0.47273 0.37669 0.36307 0.0
N691 N 0.38237 0.4084 0.36668 0.0
H692 H 0.06121 0.33151 0.36693 0.0
H693 H 0.14706 0.5205 0.35908 0.0
H694 H 0.01168 0.42493 0.39464 0.0
H695 H 0.20704 0.42652 0.35002 0.0
H696 H 0.09588 0.48538 0.36964 0.0
H697 H 0.11442 0.3651 0.35921 0.0
C698 C 0.06163 0.35898 0.37163 0.0
C699 C 0.03189 0.3755 0.38133 0.0
C700 C 0.12022 0.47234 0.36544 0.0
C701 C 0.09239 0.41403 0.37221 0.0
C702 C 0.14922 0.49236 0.35923 0.0
C703 C 0.18106 0.47621 0.35387 0.0
C704 C 0.12302 0.43584 0.36599 0.0
C705 C 0.18291 0.43975 0.35441 0.0
C706 C 0.09198 0.37811 0.36719 0.0
C707 C 0.03393 0.41111 0.38712 0.0
N708 N 0.15418 0.42067 0.36031 0.0
N709 N 0.06353 0.42923 0.38224 0.0
H710 H 0.15965 0.06152 0.36923 0.0
H711 H 0.97064 0.14611 0.35267 0.0
H712 H 0.06385 0.00716 0.38559 0.0
H713 H 0.06585 0.2049 0.34644 0.0
H714 H 0.00467 0.09394 0.36264 0.0
H715 H 0.12617 0.11391 0.3599 0.0
C716 C 0.13163 0.06058 0.37098 0.0
C717 C 0.1146 0.02977 0.37806 0.0
C718 C 0.01819 0.11823 0.35914 0.0
C719 C 0.07598 0.08968 0.36721 0.0
C720 C -0.00119 0.14781 0.35325 0.0
C721 C 0.0156 0.17967 0.34904 0.0
C722 C 0.05468 0.12053 0.36061 0.0
C723 C 0.05206 0.18085 0.35009 0.0
C724 C 0.11249 0.09057 0.36564 0.0
C725 C 0.07814 0.03031 0.38023 0.0
N726 N 0.07046 0.15165 0.35581 0.0
N727 N 0.06004 0.05972 0.37465 0.0
H728 H 0.93118 0.83655 0.10682 0.0
H729 H 0.83519 0.98482 0.1776 0.0
H730 H 0.99061 0.92715 0.12841 0.0
H731 H 0.80106 0.96431 0.10221 0.0
H732 H 0.88789 0.94999 0.16947 0.0
H733 H 0.87702 0.86969 0.11429 0.0
C734 C 0.93273 0.86337 0.11307 0.0
C735 C 0.96515 0.87941 0.11682 0.0
C736 C 0.8683 0.95266 0.15501 0.0
C737 C 0.90412 0.91639 0.12619 0.0
C738 C 0.83838 0.97232 0.1596 0.0
C739 C 0.81297 0.97621 0.14094 0.0
C740 C 0.87249 0.93644 0.13175 0.0
C741 C 0.81881 0.96028 0.11764 0.0
C742 C 0.90205 0.88209 0.11728 0.0
C743 C 0.96601 0.91412 0.12502 0.0
N744 N 0.84781 0.94067 0.11377 0.0
N745 N 0.93585 0.9314 0.1298 0.0
H746 H 0.54631 0.80353 0.17281 0.0
H747 H 0.5768 0.97283 0.08932 0.0
H748 H 0.49807 0.81859 0.10098 0.0
H749 H 0.64865 0.9414 0.14719 0.0
H750 H 0.54498 0.91824 0.09504 0.0
H751 H 0.58143 0.85638 0.16588 0.0
C752 C 0.54339 0.81798 0.15556 0.0
C753 C 0.51996 0.80665 0.13723 0.0
C754 C 0.56786 0.92319 0.10637 0.0
C755 C 0.5592 0.86684 0.12926 0.0
C756 C 0.58599 0.95435 0.10314 0.0
C757 C 0.61542 0.96164 0.11779 0.0
C758 C 0.57891 0.89936 0.12464 0.0
C759 C 0.6262 0.93674 0.1354 0.0
C760 C 0.56339 0.8479 0.15154 0.0
C761 C 0.51659 0.82616 0.11524 0.0
N762 N 0.60776 0.9068 0.13849 0.0
N763 N 0.53589 0.85542 0.11189 0.0
H764 H 0.55889 0.6516 0.10056 0.0
H765 H 0.65926 0.5085 0.17278 0.0
H766 H 0.50192 0.56044 0.12419 0.0
H767 H 0.69181 0.52589 0.09665 0.0
H768 H 0.60582 0.54186 0.16424 0.0
H769 H 0.61389 0.61966 0.10743 0.0
C770 C 0.55804 0.62486 0.10705 0.0
C771 C 0.52605 0.60837 0.11163 0.0
C772 C 0.62521 0.53885 0.14968 0.0
C773 C 0.58809 0.57277 0.12034 0.0
C774 C 0.65557 0.52004 0.1545 0.0
C775 C 0.68071 0.5156 0.13573 0.0
C776 C 0.62028 0.55372 0.12606 0.0
C777 C 0.67425 0.53035 0.11211 0.0
C778 C 0.58921 0.60683 0.11094 0.0
C779 C 0.52614 0.57382 0.12017 0.0
N780 N 0.64477 0.54915 0.108 0.0
N781 N 0.55679 0.55725 0.12466 0.0
H782 H 0.9636 0.69272 0.10091 0.0
H783 H 0.92923 0.50014 0.13004 0.0
H784 H 0.98236 0.65834 0.17645 0.0
H785 H 0.83986 0.55942 0.10581 0.0
H786 H 0.9603 0.5549 0.13845 0.0
H787 H 0.92744 0.64104 0.09386 0.0
C788 C 0.95911 0.67502 0.11631 0.0
C789 C 0.97448 0.68079 0.1398 0.0
C790 C 0.93394 0.55572 0.13119 0.0
C791 C 0.93582 0.62043 0.13102 0.0
C792 C 0.91638 0.52471 0.12619 0.0
C793 C 0.88208 0.52551 0.11717 0.0
C794 C 0.91741 0.58754 0.12637 0.0
C795 C 0.8663 0.55791 0.11279 0.0
C796 C 0.939 0.64533 0.11208 0.0
C797 C 0.97025 0.65525 0.15832 0.0
N798 N 0.88433 0.58786 0.11713 0.0
N799 N 0.95159 0.6259 0.15347 0.0
H800 H 0.64319 0.02225 0.64215 0.0
H801 H 0.55691 0.83315 0.63147 0.0
H802 H 0.70201 0.9273 0.64989 0.0
H803 H 0.50441 0.92819 0.6102 0.0
H804 H 0.60984 0.86677 0.63969 0.0
H805 H 0.59098 0.98791 0.63281 0.0
C806 C 0.6449 0.99407 0.64198 0.0
C807 C 0.67677 0.97743 0.6465 0.0
C808 C 0.58679 0.88021 0.63308 0.0
C809 C 0.61753 0.93797 0.63575 0.0
C810 C 0.55658 0.86105 0.62835 0.0
C811 C 0.52615 0.87792 0.62019 0.0
C812 C 0.58649 0.91651 0.62983 0.0
C813 C 0.52725 0.91409 0.61644 0.0
C814 C 0.61529 0.9745 0.63647 0.0
C815 C 0.67796 0.94095 0.646 0.0
N816 N 0.55686 0.9322 0.62145 0.0
N817 N 0.64869 0.92235 0.64072 0.0
H818 H 0.66345 0.55474 0.64268 0.0
H819 H 0.54807 0.68507 0.6803 0.0
H820 H 0.57683 0.51829 0.59819 0.0
H821 H 0.49965 0.66883 0.6087 0.0
H822 H 0.58598 0.63452 0.67251 0.0
H823 H 0.63163 0.60855 0.65107 0.0
C824 C 0.63779 0.5581 0.63458 0.0
C825 C 0.6226 0.53179 0.61991 0.0
C826 C 0.56759 0.64242 0.65826 0.0
C827 C 0.58575 0.59297 0.62998 0.0
C828 C 0.54583 0.6709 0.66287 0.0
C829 C 0.52151 0.68115 0.64487 0.0
C830 C 0.56447 0.62406 0.63558 0.0
C831 C 0.51884 0.66197 0.62267 0.0
C832 C 0.61946 0.58866 0.63968 0.0
C833 C 0.58941 0.53774 0.60976 0.0
N834 N 0.53997 0.63416 0.61868 0.0
N835 N 0.57208 0.56775 0.61499 0.0
H836 H 0.93202 0.66089 0.62911 0.0
H837 H 0.85086 0.47046 0.64579 0.0
H838 H 0.98658 0.56601 0.61041 0.0
H839 H 0.79021 0.56441 0.65259 0.0
H840 H 0.90215 0.50556 0.63545 0.0
H841 H 0.88033 0.62658 0.63919 0.0
C842 C 0.93314 0.63291 0.62701 0.0
C843 C 0.9638 0.61634 0.61907 0.0
C844 C 0.87765 0.51859 0.63917 0.0
C845 C 0.90481 0.57686 0.63075 0.0
C846 C 0.84858 0.49859 0.64528 0.0
C847 C 0.81645 0.51472 0.64973 0.0
C848 C 0.87455 0.55501 0.63774 0.0
C849 C 0.8145 0.55114 0.64877 0.0
C850 C 0.90358 0.61331 0.63277 0.0
C851 C 0.96353 0.57994 0.61645 0.0
N852 N 0.84321 0.57016 0.64283 0.0
N853 N 0.93459 0.56141 0.62245 0.0
H854 H 0.83165 0.92976 0.61158 0.0
H855 H 0.984 0.83706 0.67955 0.0
H856 H 0.92397 0.99023 0.62726 0.0
H857 H 0.96233 0.80197 0.60455 0.0
H858 H 0.9476 0.88886 0.67172 0.0
H859 H 0.8653 0.87607 0.61971 0.0
C860 C 0.85895 0.93163 0.61663 0.0
C861 C 0.87536 0.96417 0.61848 0.0
C862 C 0.95033 0.86918 0.65732 0.0
C863 C 0.91285 0.90388 0.62871 0.0
C864 C 0.97089 0.83984 0.66174 0.0
C865 C 0.97488 0.81447 0.64308 0.0
C866 C 0.9334 0.87272 0.63427 0.0
C867 C 0.95825 0.81973 0.61997 0.0
C868 C 0.87791 0.90125 0.62128 0.0
C869 C 0.91064 0.9655 0.62528 0.0
N870 N 0.93782 0.84814 0.61629 0.0
N871 N 0.92821 0.9357 0.63049 0.0
H872 H 0.00111 0.06635 0.86915 0.0
H873 H 0.19289 0.03143 0.89924 0.0
H874 H 0.06134 0.15723 0.88898 0.0
H875 H 0.15799 0.00763 0.82454 0.0
H876 H 0.14207 0.0694 0.90475 0.0
H877 H 0.0555 0.03419 0.86189 0.0
C878 C 0.02581 0.07935 0.87225 0.0
C879 C 0.02697 0.11435 0.87974 0.0
C880 C 0.1461 0.05634 0.88703 0.0
C881 C 0.08862 0.07777 0.87187 0.0
C882 C 0.17528 0.03517 0.88367 0.0
C883 C 0.1806 0.01778 0.86087 0.0
C884 C 0.12127 0.05861 0.86795 0.0
C885 C 0.15521 0.02124 0.84215 0.0
C886 C 0.05662 0.06114 0.86792 0.0
C887 C 0.05956 0.13023 0.88321 0.0
N888 N 0.12634 0.04097 0.84619 0.0
N889 N 0.08933 0.11161 0.87956 0.0
H890 H 0.3376 0.05995 0.89125 0.0
H891 H 0.48075 0.15938 0.8166 0.0
H892 H 0.42591 0.00163 0.86402 0.0
H893 H 0.46435 0.18958 0.89335 0.0
H894 H 0.44621 0.10632 0.82426 0.0
H895 H 0.36964 0.11446 0.88285 0.0
C896 C 0.36366 0.05873 0.88349 0.0
C897 C 0.37946 0.02655 0.8785 0.0
C898 C 0.44968 0.12517 0.83914 0.0
C899 C 0.41508 0.08796 0.8681 0.0
C900 C 0.46916 0.15528 0.83481 0.0
C901 C 0.47411 0.17967 0.85403 0.0
C902 C 0.43472 0.11983 0.8627 0.0
C903 C 0.45942 0.17267 0.87757 0.0
C904 C 0.38174 0.0896 0.87874 0.0
C905 C 0.41316 0.02607 0.86837 0.0
N906 N 0.43998 0.14355 0.88119 0.0
N907 N 0.42981 0.05644 0.86319 0.0
H908 H 0.49221 0.4254 0.8683 0.0
H909 H 0.30076 0.46401 0.89636 0.0
H910 H 0.43045 0.33612 0.88929 0.0
H911 H 0.33547 0.48264 0.82089 0.0
H912 H 0.35152 0.42643 0.90313 0.0
H913 H 0.43834 0.45799 0.85995 0.0
C914 C 0.46727 0.41287 0.87143 0.0
C915 C 0.46551 0.37819 0.87955 0.0
C916 C 0.3475 0.43831 0.88499 0.0
C917 C 0.40452 0.41522 0.87045 0.0
C918 C 0.31836 0.45926 0.88094 0.0
C919 C 0.31293 0.47496 0.85753 0.0
C920 C 0.37219 0.43461 0.86597 0.0
C921 C 0.33832 0.4703 0.83895 0.0
C922 C 0.43678 0.4313 0.86647 0.0
C923 C 0.43268 0.36285 0.88302 0.0
N924 N 0.36715 0.45078 0.84364 0.0
N925 N 0.40324 0.38171 0.87876 0.0
H926 H 0.1567 0.43535 0.86199 0.0
H927 H 0.96885 0.34666 0.85675 0.0
H928 H 0.0636 0.48442 0.89058 0.0
H929 H 0.06393 0.28845 0.84762 0.0
H930 H 0.00314 0.39907 0.86575 0.0
H931 H 0.12336 0.38235 0.85411 0.0
C932 C 0.12938 0.43496 0.86685 0.0
C933 C 0.11303 0.46445 0.87704 0.0
C934 C 0.01657 0.37485 0.86185 0.0
C935 C 0.07453 0.40396 0.86762 0.0
C936 C -0.00297 0.34515 0.85653 0.0
C937 C 0.01377 0.31343 0.85168 0.0
C938 C 0.05312 0.37284 0.86198 0.0
C939 C 0.05025 0.31244 0.85169 0.0
C940 C 0.11032 0.40465 0.86228 0.0
C941 C 0.07737 0.46233 0.88276 0.0
N942 N 0.06882 0.3418 0.85674 0.0
N943 N 0.05928 0.4327 0.87781 0.0
H944 H 0.64525 0.27109 0.36999 0.0
H945 H 0.84928 0.22678 0.36827 0.0
H946 H 0.68673 0.16753 0.38062 0.0
H947 H 0.80869 0.33017 0.38128 0.0
H948 H 0.78935 0.20472 0.36619 0.0
H949 H 0.7051 0.29355 0.36761 0.0
C950 C 0.6669 0.25313 0.37173 0.0
C951 C 0.66109 0.21751 0.37577 0.0
C952 C 0.79366 0.23225 0.36948 0.0
C953 C 0.72921 0.24279 0.37286 0.0
C954 C 0.82779 0.2448 0.3706 0.0
C955 C 0.8339 0.28022 0.37524 0.0
C956 C 0.7656 0.25539 0.3727 0.0
C957 C 0.80514 0.30254 0.37804 0.0
C958 C 0.70097 0.26591 0.37043 0.0
C959 C 0.69004 0.19528 0.37783 0.0
N960 N 0.77222 0.28976 0.37672 0.0
N961 N 0.72283 0.20827 0.37634 0.0
H962 H 0.25944 0.66036 0.33972 0.0
H963 H 0.20396 0.82517 0.41984 0.0
H964 H 0.28532 0.67069 0.41777 0.0
H965 H 0.23266 0.83584 0.34235 0.0
H966 H 0.22399 0.76463 0.419 0.0
H967 H 0.23858 0.7212 0.33977 0.0
C968 C 0.26022 0.67534 0.35688 0.0
C969 C 0.27408 0.66089 0.37876 0.0
C970 C 0.22606 0.78027 0.40222 0.0
C971 C 0.25055 0.72955 0.37898 0.0
C972 C 0.21463 0.81466 0.40268 0.0
C973 C 0.21684 0.83524 0.38115 0.0
C974 C 0.23901 0.76618 0.37989 0.0
C975 C 0.23098 0.82069 0.35937 0.0
C976 C 0.24876 0.70995 0.35684 0.0
C977 C 0.27504 0.6812 0.4005 0.0
N978 N 0.24125 0.78673 0.35917 0.0
N979 N 0.26325 0.7145 0.40012 0.0
H980 H 0.34838 0.76404 0.12374 0.0
H981 H 0.14333 0.72452 0.11283 0.0
H982 H 0.30514 0.66169 0.11088 0.0
H983 H 0.1862 0.82705 0.12461 0.0
H984 H 0.20253 0.70039 0.1143 0.0
H985 H 0.289 0.78752 0.12599 0.0
C986 C 0.32645 0.74655 0.1214 0.0
C987 C 0.33173 0.71098 0.11676 0.0
C988 C 0.19897 0.72823 0.11646 0.0
C989 C 0.2639 0.73748 0.11938 0.0
C990 C 0.16522 0.74191 0.11569 0.0
C991 C 0.16007 0.77793 0.11783 0.0
C992 C 0.22761 0.75076 0.11964 0.0
C993 C 0.1892 0.79935 0.12177 0.0
C994 C 0.29258 0.75991 0.12267 0.0
C995 C 0.30236 0.68941 0.114 0.0
N996 N 0.22172 0.78549 0.12244 0.0
N997 N 0.26978 0.703 0.11528 0.0
H998 H 0.83146 0.3043 0.11526 0.0
H999 H 0.66203 0.18521 0.10712 0.0
H1000 H 0.72723 0.3465 0.11849 0.0
H1001 H 0.76372 0.14492 0.12621 0.0
H1002 H 0.68568 0.24423 0.10805 0.0
H1003 H 0.80728 0.24562 0.11612 0.0
C1004 C 0.80341 0.30123 0.11609 0.0
C1005 C 0.78127 0.33036 0.11663 0.0
C1006 C 0.70278 0.2225 0.11212 0.0
C1007 C 0.75345 0.26307 0.11767 0.0
C1008 C 0.68938 0.18875 0.1115 0.0
C1009 C 0.71099 0.16004 0.11657 0.0
C1010 C 0.73815 0.22763 0.11757 0.0
C1011 C 0.74614 0.16627 0.1222 0.0
C1012 C 0.78967 0.26767 0.11672 0.0
C1013 C 0.7452 0.32475 0.11803 0.0
N1014 N 0.75869 0.19942 0.12242 0.0
N1015 N 0.73236 0.29169 0.11833 0.0
H1016 H 0.15447 0.74095 0.65062 0.0
H1017 H 0.32809 0.77862 0.57654 0.0
H1018 H 0.17285 0.6963 0.57779 0.0
H1019 H 0.33079 0.76122 0.65608 0.0
H1020 H 0.26759 0.75811 0.57562 0.0
H1021 H 0.21589 0.75956 0.65207 0.0
C1022 C 0.17131 0.73556 0.63484 0.0
C1023 C 0.15878 0.71723 0.61402 0.0
C1024 C 0.28154 0.75849 0.59322 0.0
C1025 C 0.22828 0.73827 0.61555 0.0
C1026 C 0.3159 0.77008 0.59374 0.0
C1027 C 0.33418 0.77117 0.61637 0.0
C1028 C 0.26516 0.74897 0.61561 0.0
C1029 C 0.31745 0.76018 0.63825 0.0
C1030 C 0.20626 0.74577 0.6358 0.0
C1031 C 0.18163 0.71038 0.59417 0.0
N1032 N 0.28351 0.74991 0.63742 0.0
N1033 N 0.21527 0.72115 0.59533 0.0
H1034 H 0.82827 0.18444 0.61714 0.0
H1035 H 0.66251 0.30826 0.61997 0.0
H1036 H 0.72378 0.14536 0.62787 0.0
H1037 H 0.76767 0.34588 0.62997 0.0
H1038 H 0.68414 0.24854 0.62116 0.0
H1039 H 0.80624 0.24373 0.61997 0.0
C1040 C 0.80059 0.18835 0.62002 0.0
C1041 C 0.7777 0.15993 0.62201 0.0
C1042 C 0.70246 0.26983 0.62323 0.0
C1043 C 0.75238 0.22792 0.6254 0.0
C1044 C 0.69021 0.30394 0.62239 0.0
C1045 C 0.71345 0.33206 0.6246 0.0
C1046 C 0.73827 0.26375 0.62605 0.0
C1047 C 0.74893 0.32494 0.62812 0.0
C1048 C 0.78811 0.22225 0.62182 0.0
C1049 C 0.74225 0.16657 0.62616 0.0
N1050 N 0.76032 0.29141 0.62852 0.0
N1051 N 0.73058 0.19999 0.62752 0.0
H1052 H 0.83285 0.23039 0.84204 0.0
H1053 H 0.6703 0.29178 0.92132 0.0
H1054 H 0.82374 0.20712 0.92057 0.0
H1055 H 0.65638 0.25382 0.84608 0.0
H1056 H 0.7307 0.27133 0.92048 0.0
H1057 H 0.77181 0.25066 0.84209 0.0
C1058 C 0.8181 0.23005 0.85929 0.0
C1059 C 0.833 0.21714 0.88134 0.0
C1060 C 0.71434 0.2673 0.90423 0.0
C1061 C 0.7641 0.24012 0.88155 0.0
C1062 C 0.67998 0.27887 0.90469 0.0
C1063 C 0.65843 0.27414 0.8838 0.0
C1064 C 0.7275 0.25174 0.88249 0.0
C1065 C 0.67218 0.25749 0.86265 0.0
C1066 C 0.78337 0.24117 0.85925 0.0
C1067 C 0.81293 0.21671 0.90319 0.0
N1068 N 0.70614 0.24718 0.86239 0.0
N1069 N 0.77953 0.22828 0.90281 0.0
H1070 H 0.31821 0.80933 0.91241 0.0
H1071 H 0.16226 0.68485 0.87631 0.0
H1072 H 0.23354 0.84473 0.86571 0.0
H1073 H 0.2669 0.64575 0.88585 0.0
H1074 H 0.18466 0.74438 0.87822 0.0
H1075 H 0.29615 0.74989 0.90917 0.0
C1076 C 0.29517 0.80462 0.90127 0.0
C1077 C 0.27826 0.83196 0.88871 0.0
C1078 C 0.20271 0.72278 0.87976 0.0
C1079 C 0.25229 0.7641 0.88571 0.0
C1080 C 0.19001 0.68883 0.87876 0.0
C1081 C 0.21285 0.6604 0.88097 0.0
C1082 C 0.23839 0.72836 0.88352 0.0
C1083 C 0.24852 0.667 0.88398 0.0
C1084 C 0.28256 0.77067 0.89955 0.0
C1085 C 0.24755 0.82442 0.87553 0.0
N1086 N 0.26022 0.70042 0.88545 0.0
N1087 N 0.23548 0.79113 0.87439 0.0
H1088 H 0.62333 0.026 0.46537 0.0
H1089 H 0.74278 -0.00051 0.56005 0.0
H1090 H 0.70143 0.08966 0.4301 0.0
H1091 H 0.80038 0.08402 0.52673 0.0
H1092 H 0.70673 0.99587 0.52294 0.0
H1093 H 0.66447 0.01177 0.4984 0.0
C1094 C 0.64957 0.03633 0.46443 0.0
C1095 C 0.6589 0.05952 0.44544 0.0
C1096 C 0.72682 0.01558 0.52359 0.0
C1097 C 0.70691 0.04316 0.48296 0.0
C1098 C 0.74777 0.01735 0.5448 0.0
C1099 C 0.77417 0.04251 0.54663 0.0
C1100 C 0.73166 0.03981 0.5042 0.0
C1101 C 0.7801 0.06441 0.52612 0.0
C1102 C 0.67334 0.02818 0.4833 0.0
C1103 C 0.69309 0.0724 0.44491 0.0
N1104 N 0.75863 0.06289 0.50589 0.0
N1105 N 0.71573 0.06441 0.46358 0.0
H1106 H 0.4849 0.73779 0.56061 0.0
H1107 H 0.40209 0.70631 0.4262 0.0
H1108 H 0.41735 0.81209 0.52441 0.0
H1109 H 0.47024 0.63366 0.46317 0.0
H1110 H 0.41435 0.74952 0.4588 0.0
H1111 H 0.4871 0.7039 0.52231 0.0
C1112 C 0.47086 0.74726 0.54449 0.0
C1113 C 0.45064 0.77767 0.54587 0.0
C1114 C 0.427 0.72432 0.45967 0.0
C1115 C 0.45258 0.73851 0.50176 0.0
C1116 C 0.4199 0.6997 0.44115 0.0
C1117 C 0.43455 0.66627 0.44251 0.0
C1118 C 0.44893 0.71534 0.47968 0.0
C1119 C 0.45825 0.65911 0.46171 0.0
C1120 C 0.47211 0.72782 0.52255 0.0
C1121 C 0.43318 0.78874 0.52422 0.0
N1122 N 0.46431 0.68327 0.47979 0.0
N1123 N 0.43414 0.76887 0.50314 0.0
H1124 H 0.8713 0.46666 0.46945 0.0
H1125 H 0.68519 0.41739 0.52691 0.0
H1126 H 0.79549 0.40357 0.43104 0.0
H1127 H 0.76297 0.47883 0.56515 0.0
H1128 H 0.72137 0.4189 0.48915 0.0
H1129 H 0.82806 0.47898 0.50203 0.0
C1130 C 0.84534 0.45582 0.4678 0.0
C1131 C 0.83709 0.43336 0.44806 0.0
C1132 C 0.73028 0.43239 0.50574 0.0
C1133 C 0.78762 0.44688 0.48511 0.0
C1134 C 0.70959 0.4316 0.52726 0.0
C1135 C 0.72127 0.44762 0.54929 0.0
C1136 C 0.7628 0.44934 0.50632 0.0
C1137 C 0.75311 0.4657 0.54869 0.0
C1138 C 0.82072 0.46264 0.48639 0.0
C1139 C 0.80308 0.42008 0.4465 0.0
N1140 N 0.77285 0.4658 0.52767 0.0
N1141 N 0.77968 0.42665 0.46497 0.0
H1142 H 0.0672 0.68238 0.52184 0.0
H1143 H 0.0211 0.86985 0.46523 0.0
H1144 H 0.0091 0.76146 0.56136 0.0
H1145 H 0.08632 0.79453 0.42827 0.0
H1146 H 0.00719 0.82625 0.49733 0.0
H1147 H 0.06551 0.71879 0.48429 0.0
C1148 C 0.05361 0.70711 0.52252 0.0
C1149 C 0.03871 0.71909 0.54487 0.0
C1150 C 0.02427 0.81909 0.48206 0.0
C1151 C 0.03689 0.76099 0.50207 0.0
C1152 C 0.03199 0.84389 0.46375 0.0
C1153 C 0.05543 0.83581 0.44457 0.0
C1154 C 0.04007 0.78601 0.48102 0.0
C1155 C 0.06885 0.80187 0.44323 0.0
C1156 C 0.05275 0.72796 0.5011 0.0
C1157 C 0.02137 0.75136 0.54463 0.0
N1158 N 0.06133 0.7783 0.46139 0.0
N1159 N 0.02126 0.77131 0.52368 0.0
H1160 H 0.31675 0.9139 0.97685 0.0
H1161 H 0.14328 0.98542 0.04218 0.0
H1162 H 0.24954 0.99213 0.94469 0.0
H1163 H 0.19241 0.88742 0.05972 0.0
H1164 H 0.19171 -0.00133 0.01372 0.0
H1165 H 0.28131 0.91516 0.01499 0.0
C1166 C 0.29508 0.93193 0.97804 0.0
C1167 C 0.2857 0.95252 0.95747 0.0
C1168 C 0.19228 0.97472 0.02441 0.0
C1169 C 0.24512 0.95402 0.00085 0.0
C1170 C 0.16476 0.96723 0.04066 0.0
C1171 C 0.16403 0.93563 0.05384 0.0
C1172 C 0.21921 0.95029 0.02121 0.0
C1173 C 0.19229 0.91266 0.0509 0.0
C1174 C 0.27476 0.9325 -0.00027 0.0
C1175 C 0.25733 0.97541 0.96 0.0
N1176 N 0.21852 0.92033 0.03479 0.0
N1177 N 0.23783 0.97527 0.98117 0.0
H1178 H 0.54733 0.19507 0.07788 0.0
H1179 H 0.56133 0.31143 0.97711 0.0
H1180 H 0.5554 0.11833 0.01956 0.0
H1181 H 0.51557 0.2281 0.93384 0.0
H1182 H 0.55931 0.27391 0.01416 0.0
H1183 H 0.53543 0.24005 0.04612 0.0
C1184 C 0.54591 0.18779 0.05835 0.0
C1185 C 0.55219 0.1533 0.05105 0.0
C1186 C 0.54886 0.26421 0.9967 0.0
C1187 C 0.5396 0.20403 0.01486 0.0
C1188 C 0.55019 0.28558 0.97551 0.0
C1189 C 0.53895 0.27281 0.95228 0.0
C1190 C 0.53637 0.22986 0.99449 0.0
C1191 C 0.5249 0.239 0.95127 0.0
C1192 C 0.53966 0.21338 0.04027 0.0
C1193 C 0.55056 0.14478 0.02569 0.0
N1194 N 0.52457 0.21858 0.97194 0.0
N1195 N 0.54442 0.17 0.00846 0.0
H1196 H 0.2468 0.50148 0.93777 0.0
H1197 H 0.28547 0.58455 0.07135 0.0
H1198 H 0.17871 0.57583 0.97358 0.0
H1199 H 0.35557 0.51561 0.03263 0.0
H1200 H 0.24079 0.57321 0.03961 0.0
H1201 H 0.28108 0.49774 0.97593 0.0
C1202 C 0.23877 0.51673 0.95381 0.0
C1203 C 0.21011 0.53942 0.95237 0.0
C1204 C 0.26575 0.56018 0.03818 0.0
C1205 C 0.24966 0.5355 0.99619 0.0
C1206 C 0.2912 0.56674 0.0562 0.0
C1207 C 0.32434 0.55163 0.05407 0.0
C1208 C 0.27359 0.5383 0.0179 0.0
C1209 C 0.33035 0.52792 0.03468 0.0
C1210 C 0.25841 0.51456 0.97563 0.0
C1211 C 0.20071 0.55817 0.97385 0.0
N1212 N 0.30538 0.52237 0.01708 0.0
N1213 N 0.22078 0.55619 0.99479 0.0
H1214 H 0.97608 0.36363 0.03362 0.0
H1215 H 0.92367 0.17888 0.97544 0.0
H1216 H 0.9124 0.28813 0.0717 0.0
H1217 H 0.981 0.25848 0.93596 0.0
H1218 H 0.92827 0.21375 0.01371 0.0
H1219 H 0.988 0.3205 0.00082 0.0
C1220 C 0.96524 0.33767 0.03523 0.0
C1221 C 0.94269 0.32945 0.0549 0.0
C1222 C 0.94022 0.22334 0.99672 0.0
C1223 C 0.95557 0.28025 0.01759 0.0
C1224 C 0.93765 0.2034 0.9749 0.0
C1225 C 0.95156 0.216 0.95241 0.0
C1226 C 0.95684 0.25602 0.99598 0.0
C1227 C 0.96947 0.24793 0.95279 0.0
C1228 C 0.97176 0.31315 0.0165 0.0
C1229 C 0.92922 0.29554 0.05637 0.0
N1230 N 0.9713 0.26694 0.97414 0.0
N1231 N 0.93544 0.27228 0.03775 0.0
H1232 H 0.3628 0.96962 0.53429 0.0
H1233 H 0.17844 0.91972 0.47392 0.0
H1234 H 0.28973 0.89887 0.56821 0.0
H1235 H 0.25556 0.98424 0.43773 0.0
H1236 H 0.21421 0.91984 0.51186 0.0
H1237 H 0.31928 0.98358 0.50216 0.0
C1238 C 0.33737 0.95741 0.53506 0.0
C1239 C 0.33 0.93245 0.55338 0.0
C1240 C 0.22306 0.93435 0.49571 0.0
C1241 C 0.28022 0.94794 0.51689 0.0
C1242 C 0.20255 0.93441 0.47409 0.0
C1243 C 0.21423 0.95163 0.45253 0.0
C1244 C 0.2554 0.95165 0.49574 0.0
C1245 C 0.24574 0.97022 0.45381 0.0
C1246 C 0.3126 0.96519 0.51674 0.0
C1247 C 0.29665 0.91746 0.55386 0.0
N1248 N 0.26535 0.96945 0.47493 0.0
N1249 N 0.27311 0.9251 0.53569 0.0
H1250 H 0.59137 0.29394 0.57191 0.0
H1251 H 0.51047 0.25895 0.43676 0.0
H1252 H 0.52844 0.36787 0.53163 0.0
H1253 H 0.58032 0.18722 0.47354 0.0
H1254 H 0.50902 0.29447 0.4744 0.0
H1255 H 0.58002 0.25037 0.53937 0.0
C1256 C 0.57498 0.30083 0.5562 0.0
C1257 C 0.56154 0.33468 0.55395 0.0
C1258 C 0.52441 0.27081 0.47441 0.0
C1259 C 0.54805 0.28509 0.51691 0.0
C1260 C 0.52527 0.25044 0.45288 0.0
C1261 C 0.54592 0.22024 0.45187 0.0
C1262 C 0.54456 0.26121 0.49517 0.0
C1263 C 0.56417 0.21037 0.47347 0.0
C1264 C 0.56839 0.27598 0.53772 0.0
C1265 C 0.53949 0.3421 0.53381 0.0
N1266 N 0.56342 0.23106 0.49416 0.0
N1267 N 0.53379 0.31764 0.51586 0.0
H1268 H 0.24342 0.50701 0.4385 0.0
H1269 H 0.18947 0.61239 0.55775 0.0
H1270 H 0.30996 0.58523 0.4714 0.0
H1271 H 0.14131 0.51454 0.5383 0.0
H1272 H 0.23672 0.5999 0.52904 0.0
H1273 H 0.20862 0.50611 0.47663 0.0
C1274 C 0.25099 0.52367 0.45391 0.0
C1275 C 0.27936 0.54655 0.45168 0.0
C1276 C 0.21638 0.58064 0.53151 0.0
C1277 C 0.23931 0.54602 0.49532 0.0
C1278 C 0.18948 0.58752 0.54833 0.0
C1279 C 0.16163 0.56403 0.55102 0.0
C1280 C 0.215 0.55054 0.51665 0.0
C1281 C 0.16237 0.53321 0.5369 0.0
C1282 C 0.23116 0.52306 0.47573 0.0
C1283 C 0.2882 0.5673 0.47232 0.0
N1284 N 0.18832 0.52757 0.52007 0.0
N1285 N 0.26784 0.56702 0.49313 0.0
H1286 H 0.90301 0.19983 0.56969 0.0
H1287 H 0.98202 0.23214 0.43384 0.0
H1288 H 0.96519 0.12471 0.52992 0.0
H1289 H 0.91867 0.30759 0.47281 0.0
H1290 H 0.98306 0.19609 0.47126 0.0
H1291 H 0.91531 0.243 0.53713 0.0
C1292 C 0.91948 0.19263 0.55409 0.0
C1293 C 0.93249 0.15861 0.55201 0.0
C1294 C 0.96922 0.22068 0.47178 0.0
C1295 C 0.9469 0.20763 0.51486 0.0
C1296 C 0.96859 0.24133 0.45038 0.0
C1297 C 0.94987 0.27278 0.45009 0.0
C1298 C 0.95076 0.23132 0.49309 0.0
C1299 C 0.93329 0.28347 0.47217 0.0
C1300 C 0.92661 0.21722 0.53559 0.0
C1301 C 0.95452 0.15066 0.53196 0.0
N1302 N 0.93377 0.26255 0.4927 0.0
N1303 N 0.96066 0.17486 0.51393 0.0
H1304 H 0.86456 0.02147 0.96657 0.0
H1305 H 0.6782 0.07227 0.02277 0.0
H1306 H 0.79219 0.09064 0.93029 0.0
H1307 H 0.75384 0.00828 0.06102 0.0
H1308 H 0.71501 0.07093 0.98543 0.0
H1309 H 0.81985 0.00769 0.99789 0.0
C1310 C 0.83903 0.03333 0.9651 0.0
C1311 C 0.83214 0.05784 0.94639 0.0
C1312 C 0.72331 0.05681 0.00191 0.0
C1313 C 0.78106 0.0426 0.98192 0.0
C1314 C 0.70222 0.05749 0.02321 0.0
C1315 C 0.71318 0.04085 0.04518 0.0
C1316 C 0.75555 0.03936 0.00263 0.0
C1317 C 0.74455 0.02195 0.04462 0.0
C1318 C 0.81358 0.02566 0.98295 0.0
C1319 C 0.79868 0.07242 0.94498 0.0
N1320 N 0.76478 0.02204 0.02381 0.0
N1321 N 0.77448 0.06492 0.96271 0.0
H1322 H 0.48663 0.84259 0.95365 0.0
H1323 H 0.39877 0.68035 0.02289 0.0
H1324 H 0.38541 0.80109 0.93539 0.0
H1325 H 0.49274 0.73138 0.0476 0.0
H1326 H 0.40051 0.71508 0.9844 0.0
H1327 H 0.49608 0.79318 0.98192 0.0
C1328 C 0.46691 0.82249 0.95502 0.0
C1329 C 0.43552 0.82568 0.9418 0.0
C1330 C 0.421 0.71835 0.99813 0.0
C1331 C 0.44558 0.76959 0.97447 0.0
C1332 C 0.42009 0.69842 0.02001 0.0
C1333 C 0.44514 0.70378 0.0387 0.0
C1334 C 0.44728 0.74357 0.99496 0.0
C1335 C 0.47227 0.72738 0.03402 0.0
C1336 C 0.47216 0.79441 0.97121 0.0
C1337 C 0.41046 0.79922 0.9445 0.0
N1338 N 0.47243 0.74669 0.01277 0.0
N1339 N 0.41586 0.77255 0.96072 0.0
H1340 H 0.8162 0.40402 0.02397 0.0
H1341 H 0.64679 0.47962 0.95556 0.0
H1342 H 0.75311 0.48818 0.05256 0.0
H1343 H 0.69148 0.37874 0.94047 0.0
H1344 H 0.69563 0.49208 0.98382 0.0
H1345 H 0.78087 0.40394 0.98571 0.0
C1346 C 0.79547 0.42299 0.02195 0.0
C1347 C 0.7872 0.44579 0.04157 0.0
C1348 C 0.69516 0.46758 0.97376 0.0
C1349 C 0.74681 0.4458 0.99808 0.0
C1350 C 0.6674 0.46056 0.95763 0.0
C1351 C 0.66532 0.42841 0.94524 0.0
C1352 C 0.72091 0.44211 0.9777 0.0
C1353 C 0.69248 0.40432 0.9488 0.0
C1354 C 0.77522 0.42281 0.00021 0.0
C1355 C 0.76003 0.46981 0.03802 0.0
N1356 N 0.71895 0.41155 0.96485 0.0
N1357 N 0.74061 0.46896 0.01683 0.0
H1358 H 0.07575 0.81245 0.02209 0.0
H1359 H 0.01978 0.62863 0.96401 0.0
H1360 H 0.00837 0.73853 0.05902 0.0
H1361 H 0.08759 0.70128 0.92674 0.0
H1362 H 0.0077 0.67284 0.99604 0.0
H1363 H 0.07341 0.77644 0.98425 0.0
C1364 C 0.06004 0.78899 0.02213 0.0
C1365 C 0.04265 0.77826 0.04386 0.0
C1366 C 0.02498 0.67931 0.98073 0.0
C1367 C 0.04002 0.73684 0.00077 0.0
C1368 C 0.03165 0.65415 0.96245 0.0
C1369 C 0.05533 0.66119 0.94322 0.0
C1370 C 0.04215 0.71172 0.97967 0.0
C1371 C 0.06999 0.69464 0.94179 0.0
C1372 C 0.05879 0.76837 0.00056 0.0
C1373 C 0.02263 0.74761 0.04282 0.0
N1374 N 0.06356 0.71854 0.95997 0.0
N1375 N 0.02216 0.72785 0.02177 0.0
loop_
_geom_bond_atom_site_label_1
_geom_bond_atom_site_label_2
_geom_bond_distance
_geom_bond_site_symmetry_2
_ccdc_geom_bond_type
Zn0 O1 2.055 . S
Zn0 O8 2.046 . S
Zn0 N16 2.036 . S
Zn0 O28 2.053 . S
Zn0 O30 2.066 . S
O1 Zn0 2.055 . S
O1 C4 1.259 . S
C2 O30 1.256 . S
C2 O31 1.244 . S
Zn3 O5 2.046 . S
Zn3 O7 2.055 . S
Zn3 N9 2.036 . S
Zn3 O27 2.066 . S
Zn3 O31 2.053 . S
C4 O1 1.259 . S
C4 O5 1.254 . S
O5 Zn3 2.046 . S
O5 C4 1.254 . S
C6 O27 1.256 . S
C6 O28 1.244 . S
O7 Zn3 2.055 . S
O7 C29 1.259 . S
O8 Zn0 2.046 . S
O8 C29 1.254 . S
N9 Zn3 2.036 . S
N9 C10 1.298 . S
N9 N12 1.398 . S
C10 N9 1.298 . S
C10 N13 1.367 . S
C10 C23 1.481 . S
C11 N12 1.299 . S
C11 N13 1.379 . S
N12 N9 1.398 . S
N12 C11 1.299 . S
N13 C10 1.367 . S
N13 C11 1.379 . S
C14 N16 1.298 . S
C14 N18 1.367 . S
C14 C22 1.481 . S
C15 N17 1.299 . S
C15 N18 1.379 . S
N16 Zn0 2.036 . S
N16 C14 1.298 . S
N16 N17 1.398 . S
N17 C15 1.299 . S
N17 N16 1.398 . S
N18 C14 1.367 . S
N18 C15 1.379 . S
H19 C22 0.980 . S
H20 C22 0.981 . S
H21 C22 0.981 . S
C22 C14 1.481 . S
C22 H19 0.980 . S
C22 H20 0.981 . S
C22 H21 0.981 . S
C23 C10 1.481 . S
C23 H24 0.980 . S
C23 H25 0.981 . S
C23 H26 0.981 . S
H24 C23 0.980 . S
H25 C23 0.981 . S
H26 C23 0.981 . S
O27 Zn3 2.066 . S
O27 C6 1.256 . S
O28 Zn0 2.053 . S
O28 C6 1.244 . S
C29 O7 1.259 . S
C29 O8 1.254 . S
O30 Zn0 2.066 . S
O30 C2 1.256 . S
O31 C2 1.244 . S
O31 Zn3 2.053 . S
Zn32 O33 2.055 . S
Zn32 O40 2.046 . S
Zn32 N48 2.036 . S
Zn32 O60 2.053 . S
Zn32 O62 2.066 . S
O33 Zn32 2.055 . S
O33 C36 1.259 . S
C34 O62 1.256 . S
C34 O63 1.244 . S
Zn35 O37 2.046 . S
Zn35 O39 2.055 . S
Zn35 N41 2.036 . S
Zn35 O59 2.066 . S
Zn35 O63 2.053 . S
C36 O33 1.259 . S
C36 O37 1.254 . S
O37 Zn35 2.046 . S
O37 C36 1.254 . S
C38 O59 1.256 . S
C38 O60 1.244 . S
O39 Zn35 2.055 . S
O39 C61 1.259 . S
O40 Zn32 2.046 . S
O40 C61 1.254 . S
N41 Zn35 2.036 . S
N41 C42 1.298 . S
N41 N44 1.398 . S
C42 N41 1.298 . S
C42 N45 1.367 . S
C42 C55 1.481 . S
C43 N44 1.299 . S
C43 N45 1.379 . S
N44 N41 1.398 . S
N44 C43 1.299 . S
N45 C42 1.367 . S
N45 C43 1.379 . S
C46 N48 1.298 . S
C46 N50 1.367 . S
C46 C54 1.481 . S
C47 N49 1.299 . S
C47 N50 1.379 . S
N48 Zn32 2.036 . S
N48 C46 1.298 . S
N48 N49 1.398 . S
N49 C47 1.299 . S
N49 N48 1.398 . S
N50 C46 1.367 . S
N50 C47 1.379 . S
H51 C54 0.980 . S
H52 C54 0.981 . S
H53 C54 0.981 . S
C54 C46 1.481 . S
C54 H51 0.980 . S
C54 H52 0.981 . S
C54 H53 0.981 . S
C55 C42 1.481 . S
C55 H56 0.980 . S
C55 H57 0.981 . S
C55 H58 0.981 . S
H56 C55 0.980 . S
H57 C55 0.981 . S
H58 C55 0.981 . S
O59 Zn35 2.066 . S
O59 C38 1.256 . S
O60 Zn32 2.053 . S
O60 C38 1.244 . S
C61 O39 1.259 . S
C61 O40 1.254 . S
O62 Zn32 2.066 . S
O62 C34 1.256 . S
O63 C34 1.244 . S
O63 Zn35 2.053 . S
Zn64 O65 2.055 . S
Zn64 O72 2.046 . S
Zn64 N80 2.036 . S
Zn64 O92 2.053 . S
Zn64 O94 2.066 . S
O65 Zn64 2.055 . S
O65 C68 1.259 . S
C66 O94 1.256 . S
C66 O95 1.244 . S
Zn67 O69 2.046 . S
Zn67 O71 2.055 . S
Zn67 N73 2.036 . S
Zn67 O91 2.066 . S
Zn67 O95 2.053 . S
C68 O65 1.259 . S
C68 O69 1.254 . S
O69 Zn67 2.046 . S
O69 C68 1.254 . S
C70 O91 1.256 . S
C70 O92 1.244 . S
O71 Zn67 2.055 . S
O71 C93 1.259 . S
O72 Zn64 2.046 . S
O72 C93 1.254 . S
N73 Zn67 2.036 . S
N73 C74 1.298 . S
N73 N76 1.398 . S
C74 N73 1.298 . S
C74 N77 1.367 . S
C74 C87 1.481 . S
C75 N76 1.299 . S
C75 N77 1.379 . S
N76 N73 1.398 . S
N76 C75 1.299 . S
N77 C74 1.367 . S
N77 C75 1.379 . S
C78 N80 1.298 . S
C78 N82 1.367 1_655 S
C78 C86 1.477 1_655 S
C79 N81 1.299 . S
C79 N82 1.379 1_655 S
N80 Zn64 2.036 . S
N80 C78 1.298 . S
N80 N81 1.398 . S
N81 C79 1.299 . S
N81 N80 1.398 . S
N82 C78 1.367 1_455 S
N82 C79 1.379 1_455 S
H83 C86 0.965 1_655 S
H84 C86 0.984 . S
H85 C86 0.997 . S
C86 C78 1.477 1_455 S
C86 H83 0.965 1_455 S
C86 H84 0.984 . S
C86 H85 0.997 . S
C87 C74 1.481 . S
C87 H88 0.980 . S
C87 H89 0.981 . S
C87 H90 0.981 . S
H88 C87 0.980 . S
H89 C87 0.981 . S
H90 C87 0.981 . S
O91 Zn67 2.066 . S
O91 C70 1.256 . S
O92 Zn64 2.053 . S
O92 C70 1.244 . S
C93 O71 1.259 . S
C93 O72 1.254 . S
O94 Zn64 2.066 . S
O94 C66 1.256 . S
O95 C66 1.244 . S
O95 Zn67 2.053 . S
Zn96 O97 2.055 . S
Zn96 O104 2.046 . S
Zn96 N112 2.036 . S
Zn96 O124 2.053 . S
Zn96 O126 2.066 . S
O97 Zn96 2.055 . S
O97 C100 1.259 . S
C98 O126 1.256 . S
C98 O127 1.244 . S
Zn99 O101 2.046 . S
Zn99 O103 2.055 . S
Zn99 N105 2.036 . S
Zn99 O123 2.066 . S
Zn99 O127 2.053 . S
C100 O97 1.259 . S
C100 O101 1.254 . S
O101 Zn99 2.046 . S
O101 C100 1.254 . S
C102 O123 1.256 . S
C102 O124 1.244 . S
O103 Zn99 2.055 . S
O103 C125 1.259 . S
O104 Zn96 2.046 . S
O104 C125 1.254 . S
N105 Zn99 2.036 . S
N105 C106 1.298 . S
N105 N108 1.398 . S
C106 N105 1.298 . S
C106 N109 1.367 1_565 S
C106 C119 1.477 1_565 S
C107 N108 1.299 . S
C107 N109 1.379 1_565 S
N108 N105 1.398 . S
N108 C107 1.299 . S
N109 C106 1.367 1_545 S
N109 C107 1.379 1_545 S
C110 N112 1.298 . S
C110 N114 1.367 . S
C110 C118 1.481 . S
C111 N113 1.299 . S
C111 N114 1.379 . S
N112 Zn96 2.036 . S
N112 C110 1.298 . S
N112 N113 1.398 . S
N113 C111 1.299 . S
N113 N112 1.398 . S
N114 C110 1.367 . S
N114 C111 1.379 . S
H115 C118 0.980 . S
H116 C118 0.981 . S
H117 C118 0.981 . S
C118 C110 1.481 . S
C118 H115 0.980 . S
C118 H116 0.981 . S
C118 H117 0.981 . S
C119 C106 1.477 1_545 S
C119 H120 0.965 1_545 S
C119 H121 0.984 . S
C119 H122 0.997 . S
H120 C119 0.965 1_565 S
H121 C119 0.984 . S
H122 C119 0.997 . S
O123 Zn99 2.066 . S
O123 C102 1.256 . S
O124 Zn96 2.053 . S
O124 C102 1.244 . S
C125 O103 1.259 . S
C125 O104 1.254 . S
O126 Zn96 2.066 . S
O126 C98 1.256 . S
O127 C98 1.244 . S
O127 Zn99 2.053 . S
Zn128 O129 2.055 . S
Zn128 O136 2.046 . S
Zn128 N144 2.036 . S
Zn128 O156 2.053 . S
Zn128 O158 2.066 . S
O129 Zn128 2.055 . S
O129 C132 1.259 . S
C130 O158 1.256 . S
C130 O159 1.244 . S
Zn131 O133 2.046 . S
Zn131 O135 2.055 . S
Zn131 N137 2.036 . S
Zn131 O155 2.066 . S
Zn131 O159 2.053 . S
C132 O129 1.259 . S
C132 O133 1.254 . S
O133 Zn131 2.046 . S
O133 C132 1.254 . S
C134 O155 1.256 . S
C134 O156 1.244 . S
O135 Zn131 2.055 . S
O135 C157 1.259 . S
O136 Zn128 2.046 . S
O136 C157 1.254 . S
N137 Zn131 2.036 . S
N137 C138 1.298 . S
N137 N140 1.398 . S
C138 N137 1.298 . S
C138 N141 1.367 . S
C138 C151 1.481 . S
C139 N140 1.299 . S
C139 N141 1.379 . S
N140 N137 1.398 . S
N140 C139 1.299 . S
N141 C138 1.367 . S
N141 C139 1.379 . S
C142 N144 1.298 . S
C142 N146 1.367 1_455 S
C142 C150 1.477 1_455 S
C143 N145 1.299 . S
C143 N146 1.379 1_455 S
N144 Zn128 2.036 . S
N144 C142 1.298 . S
N144 N145 1.398 . S
N145 C143 1.299 . S
N145 N144 1.398 . S
N146 C142 1.367 1_655 S
N146 C143 1.379 1_655 S
H147 C150 0.965 1_455 S
H148 C150 0.984 . S
H149 C150 0.997 . S
C150 C142 1.477 1_655 S
C150 H147 0.965 1_655 S
C150 H148 0.984 . S
C150 H149 0.997 . S
C151 C138 1.481 . S
C151 H152 0.980 . S
C151 H153 0.981 . S
C151 H154 0.981 . S
H152 C151 0.980 . S
H153 C151 0.981 . S
H154 C151 0.981 . S
O155 Zn131 2.066 . S
O155 C134 1.256 . S
O156 Zn128 2.053 . S
O156 C134 1.244 . S
C157 O135 1.259 . S
C157 O136 1.254 . S
O158 Zn128 2.066 . S
O158 C130 1.256 . S
O159 C130 1.244 . S
O159 Zn131 2.053 . S
Zn160 O161 2.055 . S
Zn160 O168 2.046 . S
Zn160 N176 2.036 . S
Zn160 O188 2.053 . S
Zn160 O190 2.066 . S
O161 Zn160 2.055 . S
O161 C164 1.259 . S
C162 O190 1.256 . S
C162 O191 1.244 . S
Zn163 O165 2.046 . S
Zn163 O167 2.055 . S
Zn163 N169 2.036 . S
Zn163 O187 2.066 . S
Zn163 O191 2.053 . S
C164 O161 1.259 . S
C164 O165 1.254 . S
O165 Zn163 2.046 . S
O165 C164 1.254 . S
C166 O187 1.256 . S
C166 O188 1.244 . S
O167 Zn163 2.055 . S
O167 C189 1.259 . S
O168 Zn160 2.046 . S
O168 C189 1.254 . S
N169 Zn163 2.036 . S
N169 C170 1.298 . S
N169 N172 1.398 . S
C170 N169 1.298 . S
C170 N173 1.367 . S
C170 C183 1.481 . S
C171 N172 1.299 . S
C171 N173 1.379 . S
N172 N169 1.398 . S
N172 C171 1.299 . S
N173 C170 1.367 . S
N173 C171 1.379 . S
C174 N176 1.298 . S
C174 N178 1.367 1_545 S
C174 C182 1.477 1_545 S
C175 N177 1.299 . S
C175 N178 1.379 1_545 S
N176 Zn160 2.036 . S
N176 C174 1.298 . S
N176 N177 1.398 . S
N177 C175 1.299 . S
N177 N176 1.398 . S
N178 C174 1.367 1_565 S
N178 C175 1.379 1_565 S
H179 C182 0.965 1_545 S
H180 C182 0.984 . S
H181 C182 0.997 . S
C182 C174 1.477 1_565 S
C182 H179 0.965 1_565 S
C182 H180 0.984 . S
C182 H181 0.997 . S
C183 C170 1.481 . S
C183 H184 0.980 . S
C183 H185 0.981 . S
C183 H186 0.981 . S
H184 C183 0.980 . S
H185 C183 0.981 . S
H186 C183 0.981 . S
O187 Zn163 2.066 . S
O187 C166 1.256 . S
O188 Zn160 2.053 . S
O188 C166 1.244 . S
C189 O167 1.259 . S
C189 O168 1.254 . S
O190 Zn160 2.066 . S
O190 C162 1.256 . S
O191 C162 1.244 . S
O191 Zn163 2.053 . S
Zn192 O193 2.055 . S
Zn192 O200 2.046 . S
Zn192 N208 2.036 . S
Zn192 O220 2.053 . S
Zn192 O222 2.066 . S
O193 Zn192 2.055 . S
O193 C196 1.259 . S
C194 O222 1.256 . S
C194 O223 1.244 . S
Zn195 O197 2.046 . S
Zn195 O199 2.055 . S
Zn195 N201 2.036 . S
Zn195 O219 2.066 . S
Zn195 O223 2.053 . S
C196 O193 1.259 . S
C196 O197 1.254 . S
O197 Zn195 2.046 . S
O197 C196 1.254 . S
C198 O219 1.256 . S
C198 O220 1.244 . S
O199 Zn195 2.055 . S
O199 C221 1.259 . S
O200 Zn192 2.046 . S
O200 C221 1.254 . S
N201 Zn195 2.036 . S
N201 C202 1.298 . S
N201 N204 1.398 . S
C202 N201 1.298 . S
C202 N205 1.367 . S
C202 C215 1.481 . S
C203 N204 1.299 . S
C203 N205 1.379 . S
N204 N201 1.398 . S
N204 C203 1.299 . S
N205 C202 1.367 . S
N205 C203 1.379 . S
C206 N208 1.298 . S
C206 N210 1.367 . S
C206 C214 1.481 . S
C207 N209 1.299 . S
C207 N210 1.379 . S
N208 Zn192 2.036 . S
N208 C206 1.298 . S
N208 N209 1.398 . S
N209 C207 1.299 . S
N209 N208 1.398 . S
N210 C206 1.367 . S
N210 C207 1.379 . S
H211 C214 0.980 . S
H212 C214 0.981 . S
H213 C214 0.981 . S
C214 C206 1.481 . S
C214 H211 0.980 . S
C214 H212 0.981 . S
C214 H213 0.981 . S
C215 C202 1.481 . S
C215 H216 0.980 . S
C215 H217 0.981 . S
C215 H218 0.981 . S
H216 C215 0.980 . S
H217 C215 0.981 . S
H218 C215 0.981 . S
O219 Zn195 2.066 . S
O219 C198 1.256 . S
O220 Zn192 2.053 . S
O220 C198 1.244 . S
C221 O199 1.259 . S
C221 O200 1.254 . S
O222 Zn192 2.066 . S
O222 C194 1.256 . S
O223 C194 1.244 . S
O223 Zn195 2.053 . S
Zn224 O225 2.055 . S
Zn224 O232 2.046 . S
Zn224 N240 2.036 . S
Zn224 O252 2.053 . S
Zn224 O254 2.066 . S
O225 Zn224 2.055 . S
O225 C228 1.259 . S
C226 O254 1.256 . S
C226 O255 1.244 . S
Zn227 O229 2.046 . S
Zn227 O231 2.055 . S
Zn227 N233 2.036 . S
Zn227 O251 2.066 . S
Zn227 O255 2.053 . S
C228 O225 1.259 . S
C228 O229 1.254 . S
O229 Zn227 2.046 . S
O229 C228 1.254 . S
C230 O251 1.256 . S
C230 O252 1.244 . S
O231 Zn227 2.055 . S
O231 C253 1.259 . S
O232 Zn224 2.046 . S
O232 C253 1.254 . S
N233 Zn227 2.036 . S
N233 C234 1.298 . S
N233 N236 1.398 . S
C234 N233 1.298 . S
C234 N237 1.367 . S
C234 C247 1.481 . S
C235 N236 1.299 . S
C235 N237 1.379 . S
N236 N233 1.398 . S
N236 C235 1.299 . S
N237 C234 1.367 . S
N237 C235 1.379 . S
C238 N240 1.298 . S
C238 N242 1.367 . S
C238 C246 1.481 . S
C239 N241 1.299 . S
C239 N242 1.379 . S
N240 Zn224 2.036 . S
N240 C238 1.298 . S
N240 N241 1.398 . S
N241 C239 1.299 . S
N241 N240 1.398 . S
N242 C238 1.367 . S
N242 C239 1.379 . S
H243 C246 0.980 . S
H244 C246 0.981 . S
H245 C246 0.981 . S
C246 C238 1.481 . S
C246 H243 0.980 . S
C246 H244 0.981 . S
C246 H245 0.981 . S
C247 C234 1.481 . S
C247 H248 0.980 . S
C247 H249 0.981 . S
C247 H250 0.981 . S
H248 C247 0.980 . S
H249 C247 0.981 . S
H250 C247 0.981 . S
O251 Zn227 2.066 . S
O251 C230 1.256 . S
O252 Zn224 2.053 . S
O252 C230 1.244 . S
C253 O231 1.259 . S
C253 O232 1.254 . S
O254 Zn224 2.066 . S
O254 C226 1.256 . S
O255 C226 1.244 . S
O255 Zn227 2.053 . S
Zn256 O257 2.055 . S
Zn256 O264 2.046 . S
Zn256 N272 2.036 . S
Zn256 O284 2.053 . S
Zn256 O286 2.066 . S
O257 Zn256 2.055 . S
O257 C260 1.259 . S
C258 O286 1.256 . S
C258 O287 1.244 . S
Zn259 O261 2.046 . S
Zn259 O263 2.055 . S
Zn259 N265 2.036 . S
Zn259 O283 2.066 . S
Zn259 O287 2.053 . S
C260 O257 1.259 . S
C260 O261 1.254 . S
O261 Zn259 2.046 . S
O261 C260 1.254 . S
C262 O283 1.256 . S
C262 O284 1.244 . S
O263 Zn259 2.055 . S
O263 C285 1.259 . S
O264 Zn256 2.046 . S
O264 C285 1.254 . S
N265 Zn259 2.036 . S
N265 C266 1.298 . S
N265 N268 1.398 . S
C266 N265 1.298 . S
C266 N269 1.367 . S
C266 C279 1.481 . S
C267 N268 1.299 . S
C267 N269 1.379 . S
N268 N265 1.398 . S
N268 C267 1.299 . S
N269 C266 1.367 . S
N269 C267 1.379 . S
C270 N272 1.298 . S
C270 N274 1.367 . S
C270 C278 1.481 . S
C271 N273 1.299 . S
C271 N274 1.379 . S
N272 Zn256 2.036 . S
N272 C270 1.298 . S
N272 N273 1.398 . S
N273 C271 1.299 . S
N273 N272 1.398 . S
N274 C270 1.367 . S
N274 C271 1.379 . S
H275 C278 0.980 . S
H276 C278 0.981 . S
H277 C278 0.981 . S
C278 C270 1.481 . S
C278 H275 0.980 . S
C278 H276 0.981 . S
C278 H277 0.981 . S
C279 C266 1.481 . S
C279 H280 0.980 . S
C279 H281 0.981 . S
C279 H282 0.981 . S
H280 C279 0.980 . S
H281 C279 0.981 . S
H282 C279 0.981 . S
O283 Zn259 2.066 . S
O283 C262 1.256 . S
O284 Zn256 2.053 . S
O284 C262 1.244 . S
C285 O263 1.259 . S
C285 O264 1.254 . S
O286 Zn256 2.066 . S
O286 C258 1.256 . S
O287 C258 1.244 . S
O287 Zn259 2.053 . S
Zn288 O289 2.055 . S
Zn288 O296 2.046 . S
Zn288 N304 2.036 . S
Zn288 O316 2.053 . S
Zn288 O318 2.066 . S
O289 Zn288 2.055 . S
O289 C292 1.259 . S
C290 O318 1.256 . S
C290 O319 1.244 . S
Zn291 O293 2.046 . S
Zn291 O295 2.055 . S
Zn291 N297 2.036 . S
Zn291 O315 2.066 . S
Zn291 O319 2.053 . S
C292 O289 1.259 . S
C292 O293 1.254 . S
O293 Zn291 2.046 . S
O293 C292 1.254 . S
C294 O315 1.256 . S
C294 O316 1.244 . S
O295 Zn291 2.055 . S
O295 C317 1.259 . S
O296 Zn288 2.046 . S
O296 C317 1.254 . S
N297 Zn291 2.036 . S
N297 C298 1.298 . S
N297 N300 1.398 . S
C298 N297 1.298 . S
C298 N301 1.367 . S
C298 C311 1.481 . S
C299 N300 1.299 . S
C299 N301 1.379 . S
N300 N297 1.398 . S
N300 C299 1.299 . S
N301 C298 1.367 . S
N301 C299 1.379 . S
C302 N304 1.298 . S
C302 N306 1.367 . S
C302 C310 1.481 . S
C303 N305 1.299 . S
C303 N306 1.379 . S
N304 Zn288 2.036 . S
N304 C302 1.298 . S
N304 N305 1.398 . S
N305 C303 1.299 . S
N305 N304 1.398 . S
N306 C302 1.367 . S
N306 C303 1.379 . S
H307 C310 0.980 . S
H308 C310 0.981 . S
H309 C310 0.981 . S
C310 C302 1.481 . S
C310 H307 0.980 . S
C310 H308 0.981 . S
C310 H309 0.981 . S
C311 C298 1.481 . S
C311 H312 0.980 . S
C311 H313 0.981 . S
C311 H314 0.981 . S
H312 C311 0.980 . S
H313 C311 0.981 . S
H314 C311 0.981 . S
O315 Zn291 2.066 . S
O315 C294 1.256 . S
O316 Zn288 2.053 . S
O316 C294 1.244 . S
C317 O295 1.259 . S
C317 O296 1.254 . S
O318 Zn288 2.066 . S
O318 C290 1.256 . S
O319 C290 1.244 . S
O319 Zn291 2.053 . S
Zn320 O321 2.055 . S
Zn320 O328 2.046 . S
Zn320 N336 2.036 . S
Zn320 O348 2.053 . S
Zn320 O350 2.066 . S
O321 Zn320 2.055 . S
O321 C324 1.259 . S
C322 O350 1.256 . S
C322 O351 1.244 . S
Zn323 O325 2.046 . S
Zn323 O327 2.055 . S
Zn323 N329 2.036 . S
Zn323 O347 2.066 . S
Zn323 O351 2.053 . S
C324 O321 1.259 . S
C324 O325 1.254 . S
O325 Zn323 2.046 . S
O325 C324 1.254 . S
C326 O347 1.256 . S
C326 O348 1.244 . S
O327 Zn323 2.055 . S
O327 C349 1.259 . S
O328 Zn320 2.046 . S
O328 C349 1.254 . S
N329 Zn323 2.036 . S
N329 C330 1.298 . S
N329 N332 1.398 . S
C330 N329 1.298 . S
C330 N333 1.367 1_455 S
C330 C343 1.477 1_455 S
C331 N332 1.299 . S
C331 N333 1.379 1_455 S
N332 N329 1.398 . S
N332 C331 1.299 . S
N333 C330 1.367 1_655 S
N333 C331 1.379 1_655 S
C334 N336 1.298 . S
C334 N338 1.367 . S
C334 C342 1.481 . S
C335 N337 1.299 . S
C335 N338 1.379 . S
N336 Zn320 2.036 . S
N336 C334 1.298 . S
N336 N337 1.398 . S
N337 C335 1.299 . S
N337 N336 1.398 . S
N338 C334 1.367 . S
N338 C335 1.379 . S
H339 C342 0.980 . S
H340 C342 0.981 . S
H341 C342 0.981 . S
C342 C334 1.481 . S
C342 H339 0.980 . S
C342 H340 0.981 . S
C342 H341 0.981 . S
C343 C330 1.477 1_655 S
C343 H344 0.965 1_655 S
C343 H345 0.984 . S
C343 H346 0.997 . S
H344 C343 0.965 1_455 S
H345 C343 0.984 . S
H346 C343 0.997 . S
O347 Zn323 2.066 . S
O347 C326 1.256 . S
O348 Zn320 2.053 . S
O348 C326 1.244 . S
C349 O327 1.259 . S
C349 O328 1.254 . S
O350 Zn320 2.066 . S
O350 C322 1.256 . S
O351 C322 1.244 . S
O351 Zn323 2.053 . S
Zn352 O353 2.055 . S
Zn352 O360 2.046 . S
Zn352 N368 2.036 . S
Zn352 O380 2.053 . S
Zn352 O382 2.066 . S
O353 Zn352 2.055 . S
O353 C356 1.259 . S
C354 O382 1.256 . S
C354 O383 1.244 . S
Zn355 O357 2.046 . S
Zn355 O359 2.055 . S
Zn355 N361 2.036 . S
Zn355 O379 2.066 . S
Zn355 O383 2.053 . S
C356 O353 1.259 . S
C356 O357 1.254 . S
O357 Zn355 2.046 . S
O357 C356 1.254 . S
C358 O379 1.256 . S
C358 O380 1.244 . S
O359 Zn355 2.055 . S
O359 C381 1.259 . S
O360 Zn352 2.046 . S
O360 C381 1.254 . S
N361 Zn355 2.036 . S
N361 C362 1.298 . S
N361 N364 1.398 . S
C362 N361 1.298 . S
C362 N365 1.367 1_545 S
C362 C375 1.477 1_545 S
C363 N364 1.299 . S
C363 N365 1.379 1_545 S
N364 N361 1.398 . S
N364 C363 1.299 . S
N365 C362 1.367 1_565 S
N365 C363 1.379 1_565 S
C366 N368 1.298 . S
C366 N370 1.367 . S
C366 C374 1.481 . S
C367 N369 1.299 . S
C367 N370 1.379 . S
N368 Zn352 2.036 . S
N368 C366 1.298 . S
N368 N369 1.398 . S
N369 C367 1.299 . S
N369 N368 1.398 . S
N370 C366 1.367 . S
N370 C367 1.379 . S
H371 C374 0.980 . S
H372 C374 0.981 . S
H373 C374 0.981 . S
C374 C366 1.481 . S
C374 H371 0.980 . S
C374 H372 0.981 . S
C374 H373 0.981 . S
C375 C362 1.477 1_565 S
C375 H376 0.965 1_565 S
C375 H377 0.984 . S
C375 H378 0.997 . S
H376 C375 0.965 1_545 S
H377 C375 0.984 . S
H378 C375 0.997 . S
O379 Zn355 2.066 . S
O379 C358 1.256 . S
O380 Zn352 2.053 . S
O380 C358 1.244 . S
C381 O359 1.259 . S
C381 O360 1.254 . S
O382 Zn352 2.066 . S
O382 C354 1.256 . S
O383 C354 1.244 . S
O383 Zn355 2.053 . S
Zn384 O385 2.055 . S
Zn384 O392 2.046 . S
Zn384 N400 2.036 . S
Zn384 O412 2.053 . S
Zn384 O414 2.066 . S
O385 Zn384 2.055 . S
O385 C388 1.259 . S
C386 O414 1.256 . S
C386 O415 1.244 . S
Zn387 O389 2.046 . S
Zn387 O391 2.055 . S
Zn387 N393 2.036 . S
Zn387 O411 2.066 . S
Zn387 O415 2.053 . S
C388 O385 1.259 . S
C388 O389 1.254 . S
O389 Zn387 2.046 . S
O389 C388 1.254 . S
C390 O411 1.256 . S
C390 O412 1.244 . S
O391 Zn387 2.055 . S
O391 C413 1.259 . S
O392 Zn384 2.046 . S
O392 C413 1.254 . S
N393 Zn387 2.036 . S
N393 C394 1.298 . S
N393 N396 1.398 . S
C394 N393 1.298 . S
C394 N397 1.367 . S
C394 C407 1.481 . S
C395 N396 1.299 . S
C395 N397 1.379 . S
N396 N393 1.398 . S
N396 C395 1.299 . S
N397 C394 1.367 . S
N397 C395 1.379 . S
C398 N400 1.298 . S
C398 N402 1.367 1_655 S
C398 C406 1.477 1_655 S
C399 N401 1.299 . S
C399 N402 1.379 1_655 S
N400 Zn384 2.036 . S
N400 C398 1.298 . S
N400 N401 1.398 . S
N401 C399 1.299 . S
N401 N400 1.398 . S
N402 C398 1.367 1_455 S
N402 C399 1.379 1_455 S
H403 C406 0.965 1_655 S
H404 C406 0.984 . S
H405 C406 0.997 . S
C406 C398 1.477 1_455 S
C406 H403 0.965 1_455 S
C406 H404 0.984 . S
C406 H405 0.997 . S
C407 C394 1.481 . S
C407 H408 0.980 . S
C407 H409 0.981 . S
C407 H410 0.981 . S
H408 C407 0.980 . S
H409 C407 0.981 . S
H410 C407 0.981 . S
O411 Zn387 2.066 . S
O411 C390 1.256 . S
O412 Zn384 2.053 . S
O412 C390 1.244 . S
C413 O391 1.259 . S
C413 O392 1.254 . S
O414 Zn384 2.066 . S
O414 C386 1.256 . S
O415 C386 1.244 . S
O415 Zn387 2.053 . S
Zn416 O417 2.055 . S
Zn416 O424 2.046 . S
Zn416 N432 2.036 . S
Zn416 O444 2.053 . S
Zn416 O446 2.066 . S
O417 Zn416 2.055 . S
O417 C420 1.259 . S
C418 O446 1.256 . S
C418 O447 1.244 . S
Zn419 O421 2.046 . S
Zn419 O423 2.055 . S
Zn419 N425 2.036 . S
Zn419 O443 2.066 . S
Zn419 O447 2.053 . S
C420 O417 1.259 . S
C420 O421 1.254 . S
O421 Zn419 2.046 . S
O421 C420 1.254 . S
C422 O443 1.256 . S
C422 O444 1.244 . S
O423 Zn419 2.055 . S
O423 C445 1.259 . S
O424 Zn416 2.046 . S
O424 C445 1.254 . S
N425 Zn419 2.036 . S
N425 C426 1.298 . S
N425 N428 1.398 . S
C426 N425 1.298 . S
C426 N429 1.367 1_565 S
C426 C439 1.477 1_565 S
C427 N428 1.299 . S
C427 N429 1.379 1_565 S
N428 N425 1.398 . S
N428 C427 1.299 . S
N429 C426 1.367 1_545 S
N429 C427 1.379 1_545 S
C430 N432 1.298 . S
C430 N434 1.367 . S
C430 C438 1.481 . S
C431 N433 1.299 . S
C431 N434 1.379 . S
N432 Zn416 2.036 . S
N432 C430 1.298 . S
N432 N433 1.398 . S
N433 C431 1.299 . S
N433 N432 1.398 . S
N434 C430 1.367 . S
N434 C431 1.379 . S
H435 C438 0.980 . S
H436 C438 0.981 . S
H437 C438 0.981 . S
C438 C430 1.481 . S
C438 H435 0.980 . S
C438 H436 0.981 . S
C438 H437 0.981 . S
C439 C426 1.477 1_545 S
C439 H440 0.965 1_545 S
C439 H441 0.984 . S
C439 H442 0.997 . S
H440 C439 0.965 1_565 S
H441 C439 0.984 . S
H442 C439 0.997 . S
O443 Zn419 2.066 . S
O443 C422 1.256 . S
O444 Zn416 2.053 . S
O444 C422 1.244 . S
C445 O423 1.259 . S
C445 O424 1.254 . S
O446 Zn416 2.066 . S
O446 C418 1.256 . S
O447 C418 1.244 . S
O447 Zn419 2.053 . S
Zn448 O449 2.055 . S
Zn448 O456 2.046 . S
Zn448 N464 2.036 . S
Zn448 O476 2.053 . S
Zn448 O478 2.066 . S
O449 Zn448 2.055 . S
O449 C452 1.259 . S
C450 O478 1.256 . S
C450 O479 1.244 . S
Zn451 O453 2.046 . S
Zn451 O455 2.055 . S
Zn451 N457 2.036 . S
Zn451 O475 2.066 . S
Zn451 O479 2.053 . S
C452 O449 1.259 . S
C452 O453 1.254 . S
O453 Zn451 2.046 . S
O453 C452 1.254 . S
C454 O475 1.256 . S
C454 O476 1.244 . S
O455 Zn451 2.055 . S
O455 C477 1.259 . S
O456 Zn448 2.046 . S
O456 C477 1.254 . S
N457 Zn451 2.036 . S
N457 C458 1.298 . S
N457 N460 1.398 . S
C458 N457 1.298 . S
C458 N461 1.367 . S
C458 C471 1.481 . S
C459 N460 1.299 . S
C459 N461 1.379 . S
N460 N457 1.398 . S
N460 C459 1.299 . S
N461 C458 1.367 . S
N461 C459 1.379 . S
C462 N464 1.298 . S
C462 N466 1.367 . S
C462 C470 1.481 . S
C463 N465 1.299 . S
C463 N466 1.379 . S
N464 Zn448 2.036 . S
N464 C462 1.298 . S
N464 N465 1.398 . S
N465 C463 1.299 . S
N465 N464 1.398 . S
N466 C462 1.367 . S
N466 C463 1.379 . S
H467 C470 0.980 . S
H468 C470 0.981 . S
H469 C470 0.981 . S
C470 C462 1.481 . S
C470 H467 0.980 . S
C470 H468 0.981 . S
C470 H469 0.981 . S
C471 C458 1.481 . S
C471 H472 0.980 . S
C471 H473 0.981 . S
C471 H474 0.981 . S
H472 C471 0.980 . S
H473 C471 0.981 . S
H474 C471 0.981 . S
O475 Zn451 2.066 . S
O475 C454 1.256 . S
O476 Zn448 2.053 . S
O476 C454 1.244 . S
C477 O455 1.259 . S
C477 O456 1.254 . S
O478 Zn448 2.066 . S
O478 C450 1.256 . S
O479 C450 1.244 . S
O479 Zn451 2.053 . S
Zn480 O481 2.055 . S
Zn480 O488 2.046 . S
Zn480 N496 2.036 . S
Zn480 O508 2.053 . S
Zn480 O510 2.066 . S
O481 Zn480 2.055 . S
O481 C484 1.259 . S
C482 O510 1.256 . S
C482 O511 1.244 . S
Zn483 O485 2.046 . S
Zn483 O487 2.055 . S
Zn483 N489 2.036 . S
Zn483 O507 2.066 . S
Zn483 O511 2.053 . S
C484 O481 1.259 . S
C484 O485 1.254 . S
O485 Zn483 2.046 . S
O485 C484 1.254 . S
C486 O507 1.256 . S
C486 O508 1.244 . S
O487 Zn483 2.055 . S
O487 C509 1.259 . S
O488 Zn480 2.046 . S
O488 C509 1.254 . S
N489 Zn483 2.036 . S
N489 C490 1.298 . S
N489 N492 1.398 . S
C490 N489 1.298 . S
C490 N493 1.367 . S
C490 C503 1.481 . S
C491 N492 1.299 . S
C491 N493 1.379 . S
N492 N489 1.398 . S
N492 C491 1.299 . S
N493 C490 1.367 . S
N493 C491 1.379 . S
C494 N496 1.298 . S
C494 N498 1.367 . S
C494 C502 1.481 . S
C495 N497 1.299 . S
C495 N498 1.379 . S
N496 Zn480 2.036 . S
N496 C494 1.298 . S
N496 N497 1.398 . S
N497 C495 1.299 . S
N497 N496 1.398 . S
N498 C494 1.367 . S
N498 C495 1.379 . S
H499 C502 0.980 . S
H500 C502 0.981 . S
H501 C502 0.981 . S
C502 C494 1.481 . S
C502 H499 0.980 . S
C502 H500 0.981 . S
C502 H501 0.981 . S
C503 C490 1.481 . S
C503 H504 0.980 . S
C503 H505 0.981 . S
C503 H506 0.981 . S
H504 C503 0.980 . S
H505 C503 0.981 . S
H506 C503 0.981 . S
O507 Zn483 2.066 . S
O507 C486 1.256 . S
O508 Zn480 2.053 . S
O508 C486 1.244 . S
C509 O487 1.259 . S
C509 O488 1.254 . S
O510 Zn480 2.066 . S
O510 C482 1.256 . S
O511 C482 1.244 . S
O511 Zn483 2.053 . S
H512 C518 0.930 . S
H513 C522 0.930 . S
H514 C527 0.929 . S
H515 C525 0.929 . S
H516 C520 0.929 . S
H517 C526 0.929 . S
C518 H512 0.930 . S
C518 C519 1.367 . S
C518 C526 1.378 . S
C519 C518 1.367 . S
C519 C527 1.433 . S
C520 H516 0.929 . S
C520 C522 1.378 . S
C520 C524 1.350 . S
C521 C524 1.463 . S
C521 C526 1.350 . S
C521 N529 1.427 . S
C522 H513 0.930 . S
C522 C520 1.378 . S
C522 C523 1.367 . S
C523 C522 1.367 . S
C523 C525 1.433 . S
C524 C520 1.350 . S
C524 C521 1.463 . S
C524 N528 1.427 . S
C525 H515 0.929 . S
C525 C523 1.433 . S
C525 N528 1.384 . S
C526 H517 0.929 . S
C526 C518 1.378 . S
C526 C521 1.350 . S
C527 H514 0.929 . S
C527 C519 1.433 . S
C527 N529 1.384 . S
N528 C524 1.427 . S
N528 C525 1.384 . S
N529 C521 1.427 . S
N529 C527 1.384 . S
H530 C536 0.930 . S
H531 C540 0.930 . S
H532 C545 0.929 . S
H533 C543 0.929 . S
H534 C538 0.929 . S
H535 C544 0.929 . S
C536 H530 0.930 . S
C536 C537 1.367 . S
C536 C544 1.378 . S
C537 C536 1.367 . S
C537 C545 1.433 . S
C538 H534 0.929 . S
C538 C540 1.378 . S
C538 C542 1.350 . S
C539 C542 1.463 . S
C539 C544 1.350 . S
C539 N547 1.427 . S
C540 H531 0.930 . S
C540 C538 1.378 . S
C540 C541 1.367 . S
C541 C540 1.367 . S
C541 C543 1.433 . S
C542 C538 1.350 . S
C542 C539 1.463 . S
C542 N546 1.427 . S
C543 H533 0.929 . S
C543 C541 1.433 . S
C543 N546 1.384 . S
C544 H535 0.929 . S
C544 C536 1.378 . S
C544 C539 1.350 . S
C545 H532 0.929 . S
C545 C537 1.433 . S
C545 N547 1.384 . S
N546 C542 1.427 . S
N546 C543 1.384 . S
N547 C539 1.427 . S
N547 C545 1.384 . S
H548 C554 0.930 . S
H549 C558 0.930 . S
H550 C563 0.929 . S
H551 C561 0.929 . S
H552 C556 0.929 . S
H553 C562 0.929 . S
C554 H548 0.930 . S
C554 C555 1.367 . S
C554 C562 1.378 . S
C555 C554 1.367 . S
C555 C563 1.433 . S
C556 H552 0.929 . S
C556 C558 1.378 . S
C556 C560 1.350 . S
C557 C560 1.463 . S
C557 C562 1.350 . S
C557 N565 1.427 . S
C558 H549 0.930 . S
C558 C556 1.378 . S
C558 C559 1.367 . S
C559 C558 1.367 . S
C559 C561 1.433 . S
C560 C556 1.350 . S
C560 C557 1.463 . S
C560 N564 1.427 . S
C561 H551 0.929 . S
C561 C559 1.433 . S
C561 N564 1.384 . S
C562 H553 0.929 . S
C562 C554 1.378 . S
C562 C557 1.350 . S
C563 H550 0.929 . S
C563 C555 1.433 . S
C563 N565 1.384 . S
N564 C560 1.427 . S
N564 C561 1.384 . S
N565 C557 1.427 . S
N565 C563 1.384 . S
H566 C572 0.930 . S
H567 C576 0.930 . S
H568 C581 0.929 . S
H569 C579 0.929 . S
H570 C574 0.929 . S
H571 C580 0.929 . S
C572 H566 0.930 . S
C572 C573 1.367 . S
C572 C580 1.378 . S
C573 C572 1.367 . S
C573 C581 1.433 . S
C574 H570 0.929 . S
C574 C576 1.378 . S
C574 C578 1.350 . S
C575 C578 1.463 . S
C575 C580 1.350 . S
C575 N583 1.427 . S
C576 H567 0.930 . S
C576 C574 1.378 . S
C576 C577 1.367 . S
C577 C576 1.367 . S
C577 C579 1.433 . S
C578 C574 1.350 . S
C578 C575 1.463 . S
C578 N582 1.427 . S
C579 H569 0.929 . S
C579 C577 1.433 . S
C579 N582 1.384 . S
C580 H571 0.929 . S
C580 C572 1.378 . S
C580 C575 1.350 . S
C581 H568 0.929 . S
C581 C573 1.433 . S
C581 N583 1.384 . S
N582 C578 1.427 . S
N582 C579 1.384 . S
N583 C575 1.427 . S
N583 C581 1.384 . S
H584 C590 0.930 . S
H585 C594 0.930 . S
H586 C599 0.929 . S
H587 C597 0.929 . S
H588 C592 0.929 . S
H589 C598 0.929 . S
C590 H584 0.930 . S
C590 C591 1.367 . S
C590 C598 1.378 . S
C591 C590 1.367 . S
C591 C599 1.433 . S
C592 H588 0.929 . S
C592 C594 1.378 . S
C592 C596 1.350 . S
C593 C596 1.463 . S
C593 C598 1.350 . S
C593 N601 1.427 . S
C594 H585 0.930 . S
C594 C592 1.378 . S
C594 C595 1.367 . S
C595 C594 1.367 . S
C595 C597 1.433 . S
C596 C592 1.350 . S
C596 C593 1.463 . S
C596 N600 1.427 . S
C597 H587 0.929 . S
C597 C595 1.433 . S
C597 N600 1.384 . S
C598 H589 0.929 . S
C598 C590 1.378 . S
C598 C593 1.350 . S
C599 H586 0.929 . S
C599 C591 1.433 . S
C599 N601 1.384 . S
N600 C596 1.427 . S
N600 C597 1.384 . S
N601 C593 1.427 . S
N601 C599 1.384 . S
H602 C608 0.930 . S
H603 C612 0.930 . S
H604 C617 0.929 . S
H605 C615 0.929 . S
H606 C610 0.929 . S
H607 C616 0.929 . S
C608 H602 0.930 . S
C608 C609 1.367 . S
C608 C616 1.378 . S
C609 C608 1.367 . S
C609 C617 1.433 . S
C610 H606 0.929 . S
C610 C612 1.378 . S
C610 C614 1.350 . S
C611 C614 1.463 . S
C611 C616 1.350 . S
C611 N619 1.427 . S
C612 H603 0.930 . S
C612 C610 1.378 . S
C612 C613 1.367 . S
C613 C612 1.367 . S
C613 C615 1.433 . S
C614 C610 1.350 . S
C614 C611 1.463 . S
C614 N618 1.427 . S
C615 H605 0.929 . S
C615 C613 1.433 . S
C615 N618 1.384 . S
C616 H607 0.929 . S
C616 C608 1.378 . S
C616 C611 1.350 . S
C617 H604 0.929 . S
C617 C609 1.433 . S
C617 N619 1.384 . S
N618 C614 1.427 . S
N618 C615 1.384 . S
N619 C611 1.427 . S
N619 C617 1.384 . S
H620 C626 0.930 . S
H621 C630 0.930 . S
H622 C635 0.929 . S
H623 C633 0.929 . S
H624 C628 0.929 . S
H625 C634 0.929 . S
C626 H620 0.930 . S
C626 C627 1.367 . S
C626 C634 1.378 . S
C627 C626 1.367 . S
C627 C635 1.433 . S
C628 H624 0.929 . S
C628 C630 1.378 . S
C628 C632 1.350 . S
C629 C632 1.463 . S
C629 C634 1.350 . S
C629 N637 1.427 . S
C630 H621 0.930 . S
C630 C628 1.378 . S
C630 C631 1.367 . S
C631 C630 1.367 . S
C631 C633 1.433 . S
C632 C628 1.350 . S
C632 C629 1.463 . S
C632 N636 1.427 . S
C633 H623 0.929 . S
C633 C631 1.433 . S
C633 N636 1.384 . S
C634 H625 0.929 . S
C634 C626 1.378 . S
C634 C629 1.350 . S
C635 H622 0.929 . S
C635 C627 1.433 . S
C635 N637 1.384 . S
N636 C632 1.427 . S
N636 C633 1.384 . S
N637 C629 1.427 . S
N637 C635 1.384 . S
H638 C644 0.930 . S
H639 C648 0.930 . S
H640 C653 0.929 . S
H641 C651 0.929 . S
H642 C646 0.929 . S
H643 C652 0.929 . S
C644 H638 0.930 . S
C644 C645 1.367 . S
C644 C652 1.378 . S
C645 C644 1.367 . S
C645 C653 1.433 . S
C646 H642 0.929 . S
C646 C648 1.378 . S
C646 C650 1.350 . S
C647 C650 1.463 . S
C647 C652 1.350 . S
C647 N655 1.427 . S
C648 H639 0.930 . S
C648 C646 1.378 . S
C648 C649 1.367 . S
C649 C648 1.367 . S
C649 C651 1.433 . S
C650 C646 1.350 . S
C650 C647 1.463 . S
C650 N654 1.427 . S
C651 H641 0.929 . S
C651 C649 1.433 . S
C651 N654 1.384 . S
C652 H643 0.929 . S
C652 C644 1.378 . S
C652 C647 1.350 . S
C653 H640 0.929 . S
C653 C645 1.433 . S
C653 N655 1.384 . S
N654 C650 1.427 . S
N654 C651 1.384 . S
N655 C647 1.427 . S
N655 C653 1.384 . S
H656 C662 0.930 . S
H657 C666 0.930 . S
H658 C671 0.929 . S
H659 C669 0.929 . S
H660 C664 0.929 . S
H661 C670 0.929 . S
C662 H656 0.930 . S
C662 C663 1.367 . S
C662 C670 1.378 . S
C663 C662 1.367 . S
C663 C671 1.433 . S
C664 H660 0.929 . S
C664 C666 1.378 . S
C664 C668 1.350 . S
C665 C668 1.463 . S
C665 C670 1.350 . S
C665 N673 1.427 . S
C666 H657 0.930 . S
C666 C664 1.378 . S
C666 C667 1.367 . S
C667 C666 1.367 . S
C667 C669 1.433 . S
C668 C664 1.350 . S
C668 C665 1.463 . S
C668 N672 1.427 . S
C669 H659 0.929 . S
C669 C667 1.433 . S
C669 N672 1.384 . S
C670 H661 0.929 . S
C670 C662 1.378 . S
C670 C665 1.350 . S
C671 H658 0.929 . S
C671 C663 1.433 . S
C671 N673 1.384 . S
N672 C668 1.427 . S
N672 C669 1.384 . S
N673 C665 1.427 . S
N673 C671 1.384 . S
H674 C680 0.930 . S
H675 C684 0.930 . S
H676 C689 0.929 . S
H677 C687 0.929 . S
H678 C682 0.929 . S
H679 C688 0.929 . S
C680 H674 0.930 . S
C680 C681 1.367 . S
C680 C688 1.378 . S
C681 C680 1.367 . S
C681 C689 1.433 . S
C682 H678 0.929 . S
C682 C684 1.378 . S
C682 C686 1.350 . S
C683 C686 1.463 . S
C683 C688 1.350 . S
C683 N691 1.427 . S
C684 H675 0.930 . S
C684 C682 1.378 . S
C684 C685 1.367 . S
C685 C684 1.367 . S
C685 C687 1.433 . S
C686 C682 1.350 . S
C686 C683 1.463 . S
C686 N690 1.427 . S
C687 H677 0.929 . S
C687 C685 1.433 . S
C687 N690 1.384 . S
C688 H679 0.929 . S
C688 C680 1.378 . S
C688 C683 1.350 . S
C689 H676 0.929 . S
C689 C681 1.433 . S
C689 N691 1.384 . S
N690 C686 1.427 . S
N690 C687 1.384 . S
N691 C683 1.427 . S
N691 C689 1.384 . S
H692 C698 0.930 . S
H693 C702 0.930 . S
H694 C707 0.929 . S
H695 C705 0.929 . S
H696 C700 0.929 . S
H697 C706 0.929 . S
C698 H692 0.930 . S
C698 C699 1.367 . S
C698 C706 1.378 . S
C699 C698 1.367 . S
C699 C707 1.433 . S
C700 H696 0.929 . S
C700 C702 1.378 . S
C700 C704 1.350 . S
C701 C704 1.463 . S
C701 C706 1.350 . S
C701 N709 1.427 . S
C702 H693 0.930 . S
C702 C700 1.378 . S
C702 C703 1.367 . S
C703 C702 1.367 . S
C703 C705 1.433 . S
C704 C700 1.350 . S
C704 C701 1.463 . S
C704 N708 1.427 . S
C705 H695 0.929 . S
C705 C703 1.433 . S
C705 N708 1.384 . S
C706 H697 0.929 . S
C706 C698 1.378 . S
C706 C701 1.350 . S
C707 H694 0.929 . S
C707 C699 1.433 . S
C707 N709 1.384 . S
N708 C704 1.427 . S
N708 C705 1.384 . S
N709 C701 1.427 . S
N709 C707 1.384 . S
H710 C716 0.930 . S
H711 C720 0.930 . S
H712 C725 0.929 . S
H713 C723 0.929 . S
H714 C718 0.929 . S
H715 C724 0.929 . S
C716 H710 0.930 . S
C716 C717 1.367 . S
C716 C724 1.378 . S
C717 C716 1.367 . S
C717 C725 1.433 . S
C718 H714 0.929 . S
C718 C720 1.378 . S
C718 C722 1.350 . S
C719 C722 1.463 . S
C719 C724 1.350 . S
C719 N727 1.427 . S
C720 H711 0.930 . S
C720 C718 1.378 . S
C720 C721 1.367 . S
C721 C720 1.367 . S
C721 C723 1.433 . S
C722 C718 1.350 . S
C722 C719 1.463 . S
C722 N726 1.427 . S
C723 H713 0.929 . S
C723 C721 1.433 . S
C723 N726 1.384 . S
C724 H715 0.929 . S
C724 C716 1.378 . S
C724 C719 1.350 . S
C725 H712 0.929 . S
C725 C717 1.433 . S
C725 N727 1.384 . S
N726 C722 1.427 . S
N726 C723 1.384 . S
N727 C719 1.427 . S
N727 C725 1.384 . S
H728 C734 0.930 . S
H729 C738 0.930 . S
H730 C743 0.929 . S
H731 C741 0.929 . S
H732 C736 0.929 . S
H733 C742 0.929 . S
C734 H728 0.930 . S
C734 C735 1.367 . S
C734 C742 1.378 . S
C735 C734 1.367 . S
C735 C743 1.433 . S
C736 H732 0.929 . S
C736 C738 1.378 . S
C736 C740 1.350 . S
C737 C740 1.463 . S
C737 C742 1.350 . S
C737 N745 1.427 . S
C738 H729 0.930 . S
C738 C736 1.378 . S
C738 C739 1.367 . S
C739 C738 1.367 . S
C739 C741 1.433 . S
C740 C736 1.350 . S
C740 C737 1.463 . S
C740 N744 1.427 . S
C741 H731 0.929 . S
C741 C739 1.433 . S
C741 N744 1.384 . S
C742 H733 0.929 . S
C742 C734 1.378 . S
C742 C737 1.350 . S
C743 H730 0.929 . S
C743 C735 1.433 . S
C743 N745 1.384 . S
N744 C740 1.427 . S
N744 C741 1.384 . S
N745 C737 1.427 . S
N745 C743 1.384 . S
H746 C752 0.930 . S
H747 C756 0.930 . S
H748 C761 0.929 . S
H749 C759 0.929 . S
H750 C754 0.929 . S
H751 C760 0.929 . S
C752 H746 0.930 . S
C752 C753 1.367 . S
C752 C760 1.378 . S
C753 C752 1.367 . S
C753 C761 1.433 . S
C754 H750 0.929 . S
C754 C756 1.378 . S
C754 C758 1.350 . S
C755 C758 1.463 . S
C755 C760 1.350 . S
C755 N763 1.427 . S
C756 H747 0.930 . S
C756 C754 1.378 . S
C756 C757 1.367 . S
C757 C756 1.367 . S
C757 C759 1.433 . S
C758 C754 1.350 . S
C758 C755 1.463 . S
C758 N762 1.427 . S
C759 H749 0.929 . S
C759 C757 1.433 . S
C759 N762 1.384 . S
C760 H751 0.929 . S
C760 C752 1.378 . S
C760 C755 1.350 . S
C761 H748 0.929 . S
C761 C753 1.433 . S
C761 N763 1.384 . S
N762 C758 1.427 . S
N762 C759 1.384 . S
N763 C755 1.427 . S
N763 C761 1.384 . S
H764 C770 0.930 . S
H765 C774 0.930 . S
H766 C779 0.929 . S
H767 C777 0.929 . S
H768 C772 0.929 . S
H769 C778 0.929 . S
C770 H764 0.930 . S
C770 C771 1.367 . S
C770 C778 1.378 . S
C771 C770 1.367 . S
C771 C779 1.433 . S
C772 H768 0.929 . S
C772 C774 1.378 . S
C772 C776 1.350 . S
C773 C776 1.463 . S
C773 C778 1.350 . S
C773 N781 1.427 . S
C774 H765 0.930 . S
C774 C772 1.378 . S
C774 C775 1.367 . S
C775 C774 1.367 . S
C775 C777 1.433 . S
C776 C772 1.350 . S
C776 C773 1.463 . S
C776 N780 1.427 . S
C777 H767 0.929 . S
C777 C775 1.433 . S
C777 N780 1.384 . S
C778 H769 0.929 . S
C778 C770 1.378 . S
C778 C773 1.350 . S
C779 H766 0.929 . S
C779 C771 1.433 . S
C779 N781 1.384 . S
N780 C776 1.427 . S
N780 C777 1.384 . S
N781 C773 1.427 . S
N781 C779 1.384 . S
H782 C788 0.930 . S
H783 C792 0.930 . S
H784 C797 0.929 . S
H785 C795 0.929 . S
H786 C790 0.929 . S
H787 C796 0.929 . S
C788 H782 0.930 . S
C788 C789 1.367 . S
C788 C796 1.378 . S
C789 C788 1.367 . S
C789 C797 1.433 . S
C790 H786 0.929 . S
C790 C792 1.378 . S
C790 C794 1.350 . S
C791 C794 1.463 . S
C791 C796 1.350 . S
C791 N799 1.427 . S
C792 H783 0.930 . S
C792 C790 1.378 . S
C792 C793 1.367 . S
C793 C792 1.367 . S
C793 C795 1.433 . S
C794 C790 1.350 . S
C794 C791 1.463 . S
C794 N798 1.427 . S
C795 H785 0.929 . S
C795 C793 1.433 . S
C795 N798 1.384 . S
C796 H787 0.929 . S
C796 C788 1.378 . S
C796 C791 1.350 . S
C797 H784 0.929 . S
C797 C789 1.433 . S
C797 N799 1.384 . S
N798 C794 1.427 . S
N798 C795 1.384 . S
N799 C791 1.427 . S
N799 C797 1.384 . S
H800 C806 0.930 . S
H801 C810 0.930 . S
H802 C815 0.929 . S
H803 C813 0.929 . S
H804 C808 0.929 . S
H805 C814 0.929 . S
C806 H800 0.930 . S
C806 C807 1.367 . S
C806 C814 1.378 . S
C807 C806 1.367 . S
C807 C815 1.433 . S
C808 H804 0.929 . S
C808 C810 1.378 . S
C808 C812 1.350 . S
C809 C812 1.463 . S
C809 C814 1.350 . S
C809 N817 1.427 . S
C810 H801 0.930 . S
C810 C808 1.378 . S
C810 C811 1.367 . S
C811 C810 1.367 . S
C811 C813 1.433 . S
C812 C808 1.350 . S
C812 C809 1.463 . S
C812 N816 1.427 . S
C813 H803 0.929 . S
C813 C811 1.433 . S
C813 N816 1.384 . S
C814 H805 0.929 . S
C814 C806 1.378 . S
C814 C809 1.350 . S
C815 H802 0.929 . S
C815 C807 1.433 . S
C815 N817 1.384 . S
N816 C812 1.427 . S
N816 C813 1.384 . S
N817 C809 1.427 . S
N817 C815 1.384 . S
H818 C824 0.930 . S
H819 C828 0.930 . S
H820 C833 0.929 . S
H821 C831 0.929 . S
H822 C826 0.929 . S
H823 C832 0.929 . S
C824 H818 0.930 . S
C824 C825 1.367 . S
C824 C832 1.378 . S
C825 C824 1.367 . S
C825 C833 1.433 . S
C826 H822 0.929 . S
C826 C828 1.378 . S
C826 C830 1.350 . S
C827 C830 1.463 . S
C827 C832 1.350 . S
C827 N835 1.427 . S
C828 H819 0.930 . S
C828 C826 1.378 . S
C828 C829 1.367 . S
C829 C828 1.367 . S
C829 C831 1.433 . S
C830 C826 1.350 . S
C830 C827 1.463 . S
C830 N834 1.427 . S
C831 H821 0.929 . S
C831 C829 1.433 . S
C831 N834 1.384 . S
C832 H823 0.929 . S
C832 C824 1.378 . S
C832 C827 1.350 . S
C833 H820 0.929 . S
C833 C825 1.433 . S
C833 N835 1.384 . S
N834 C830 1.427 . S
N834 C831 1.384 . S
N835 C827 1.427 . S
N835 C833 1.384 . S
H836 C842 0.930 . S
H837 C846 0.930 . S
H838 C851 0.929 . S
H839 C849 0.929 . S
H840 C844 0.929 . S
H841 C850 0.929 . S
C842 H836 0.930 . S
C842 C843 1.367 . S
C842 C850 1.378 . S
C843 C842 1.367 . S
C843 C851 1.433 . S
C844 H840 0.929 . S
C844 C846 1.378 . S
C844 C848 1.350 . S
C845 C848 1.463 . S
C845 C850 1.350 . S
C845 N853 1.427 . S
C846 H837 0.930 . S
C846 C844 1.378 . S
C846 C847 1.367 . S
C847 C846 1.367 . S
C847 C849 1.433 . S
C848 C844 1.350 . S
C848 C845 1.463 . S
C848 N852 1.427 . S
C849 H839 0.929 . S
C849 C847 1.433 . S
C849 N852 1.384 . S
C850 H841 0.929 . S
C850 C842 1.378 . S
C850 C845 1.350 . S
C851 H838 0.929 . S
C851 C843 1.433 . S
C851 N853 1.384 . S
N852 C848 1.427 . S
N852 C849 1.384 . S
N853 C845 1.427 . S
N853 C851 1.384 . S
H854 C860 0.930 . S
H855 C864 0.930 . S
H856 C869 0.929 . S
H857 C867 0.929 . S
H858 C862 0.929 . S
H859 C868 0.929 . S
C860 H854 0.930 . S
C860 C861 1.367 . S
C860 C868 1.378 . S
C861 C860 1.367 . S
C861 C869 1.433 . S
C862 H858 0.929 . S
C862 C864 1.378 . S
C862 C866 1.350 . S
C863 C866 1.463 . S
C863 C868 1.350 . S
C863 N871 1.427 . S
C864 H855 0.930 . S
C864 C862 1.378 . S
C864 C865 1.367 . S
C865 C864 1.367 . S
C865 C867 1.433 . S
C866 C862 1.350 . S
C866 C863 1.463 . S
C866 N870 1.427 . S
C867 H857 0.929 . S
C867 C865 1.433 . S
C867 N870 1.384 . S
C868 H859 0.929 . S
C868 C860 1.378 . S
C868 C863 1.350 . S
C869 H856 0.929 . S
C869 C861 1.433 . S
C869 N871 1.384 . S
N870 C866 1.427 . S
N870 C867 1.384 . S
N871 C863 1.427 . S
N871 C869 1.384 . S
H872 C878 0.933 . S
H873 C882 0.930 . S
H874 C887 0.929 . S
H875 C885 0.929 . S
H876 C880 0.929 . S
H877 C886 0.929 . S
C878 H872 0.933 . S
C878 C879 1.367 . S
C878 C886 1.378 . S
C879 C878 1.367 . S
C879 C887 1.433 . S
C880 H876 0.929 . S
C880 C882 1.378 . S
C880 C884 1.350 . S
C881 C884 1.463 . S
C881 C886 1.350 . S
C881 N889 1.427 . S
C882 H873 0.930 . S
C882 C880 1.378 . S
C882 C883 1.367 . S
C883 C882 1.367 . S
C883 C885 1.433 . S
C884 C880 1.350 . S
C884 C881 1.463 . S
C884 N888 1.427 . S
C885 H875 0.929 . S
C885 C883 1.433 . S
C885 N888 1.384 . S
C886 H877 0.929 . S
C886 C878 1.378 . S
C886 C881 1.350 . S
C887 H874 0.929 . S
C887 C879 1.433 . S
C887 N889 1.384 . S
N888 C884 1.427 . S
N888 C885 1.384 . S
N889 C881 1.427 . S
N889 C887 1.384 . S
H890 C896 0.930 . S
H891 C900 0.930 . S
H892 C905 0.929 . S
H893 C903 0.929 . S
H894 C898 0.929 . S
H895 C904 0.929 . S
C896 H890 0.930 . S
C896 C897 1.367 . S
C896 C904 1.378 . S
C897 C896 1.367 . S
C897 C905 1.433 . S
C898 H894 0.929 . S
C898 C900 1.378 . S
C898 C902 1.350 . S
C899 C902 1.463 . S
C899 C904 1.350 . S
C899 N907 1.427 . S
C900 H891 0.930 . S
C900 C898 1.378 . S
C900 C901 1.367 . S
C901 C900 1.367 . S
C901 C903 1.433 . S
C902 C898 1.350 . S
C902 C899 1.463 . S
C902 N906 1.427 . S
C903 H893 0.929 . S
C903 C901 1.433 . S
C903 N906 1.384 . S
C904 H895 0.929 . S
C904 C896 1.378 . S
C904 C899 1.350 . S
C905 H892 0.929 . S
C905 C897 1.433 . S
C905 N907 1.384 . S
N906 C902 1.427 . S
N906 C903 1.384 . S
N907 C899 1.427 . S
N907 C905 1.384 . S
H908 C914 0.930 . S
H909 C918 0.930 . S
H910 C923 0.929 . S
H911 C921 0.929 . S
H912 C916 0.929 . S
H913 C922 0.929 . S
C914 H908 0.930 . S
C914 C915 1.367 . S
C914 C922 1.378 . S
C915 C914 1.367 . S
C915 C923 1.433 . S
C916 H912 0.929 . S
C916 C918 1.378 . S
C916 C920 1.350 . S
C917 C920 1.463 . S
C917 C922 1.350 . S
C917 N925 1.427 . S
C918 H909 0.930 . S
C918 C916 1.378 . S
C918 C919 1.367 . S
C919 C918 1.367 . S
C919 C921 1.433 . S
C920 C916 1.350 . S
C920 C917 1.463 . S
C920 N924 1.427 . S
C921 H911 0.929 . S
C921 C919 1.433 . S
C921 N924 1.384 . S
C922 H913 0.929 . S
C922 C914 1.378 . S
C922 C917 1.350 . S
C923 H910 0.929 . S
C923 C915 1.433 . S
C923 N925 1.384 . S
N924 C920 1.427 . S
N924 C921 1.384 . S
N925 C917 1.427 . S
N925 C923 1.384 . S
H926 C932 0.930 . S
H927 C936 0.930 . S
H928 C941 0.929 . S
H929 C939 0.929 . S
H930 C934 0.929 . S
H931 C940 0.929 . S
C932 H926 0.930 . S
C932 C933 1.367 . S
C932 C940 1.378 . S
C933 C932 1.367 . S
C933 C941 1.433 . S
C934 H930 0.929 . S
C934 C936 1.378 . S
C934 C938 1.350 . S
C935 C938 1.463 . S
C935 C940 1.350 . S
C935 N943 1.427 . S
C936 H927 0.930 . S
C936 C934 1.378 . S
C936 C937 1.367 . S
C937 C936 1.367 . S
C937 C939 1.433 . S
C938 C934 1.350 . S
C938 C935 1.463 . S
C938 N942 1.427 . S
C939 H929 0.929 . S
C939 C937 1.433 . S
C939 N942 1.384 . S
C940 H931 0.929 . S
C940 C932 1.378 . S
C940 C935 1.350 . S
C941 H928 0.929 . S
C941 C933 1.433 . S
C941 N943 1.384 . S
N942 C938 1.427 . S
N942 C939 1.384 . S
N943 C935 1.427 . S
N943 C941 1.384 . S
H944 C950 0.930 . S
H945 C954 0.930 . S
H946 C959 0.929 . S
H947 C957 0.929 . S
H948 C952 0.929 . S
H949 C958 0.929 . S
C950 H944 0.930 . S
C950 C951 1.367 . S
C950 C958 1.378 . S
C951 C950 1.367 . S
C951 C959 1.433 . S
C952 H948 0.929 . S
C952 C954 1.378 . S
C952 C956 1.350 . S
C953 C956 1.463 . S
C953 C958 1.350 . S
C953 N961 1.427 . S
C954 H945 0.930 . S
C954 C952 1.378 . S
C954 C955 1.367 . S
C955 C954 1.367 . S
C955 C957 1.433 . S
C956 C952 1.350 . S
C956 C953 1.463 . S
C956 N960 1.427 . S
C957 H947 0.929 . S
C957 C955 1.433 . S
C957 N960 1.384 . S
C958 H949 0.929 . S
C958 C950 1.378 . S
C958 C953 1.350 . S
C959 H946 0.929 . S
C959 C951 1.433 . S
C959 N961 1.384 . S
N960 C956 1.427 . S
N960 C957 1.384 . S
N961 C953 1.427 . S
N961 C959 1.384 . S
H962 C968 0.930 . S
H963 C972 0.930 . S
H964 C977 0.929 . S
H965 C975 0.929 . S
H966 C970 0.929 . S
H967 C976 0.929 . S
C968 H962 0.930 . S
C968 C969 1.367 . S
C968 C976 1.378 . S
C969 C968 1.367 . S
C969 C977 1.433 . S
C970 H966 0.929 . S
C970 C972 1.378 . S
C970 C974 1.350 . S
C971 C974 1.463 . S
C971 C976 1.350 . S
C971 N979 1.427 . S
C972 H963 0.930 . S
C972 C970 1.378 . S
C972 C973 1.367 . S
C973 C972 1.367 . S
C973 C975 1.433 . S
C974 C970 1.350 . S
C974 C971 1.463 . S
C974 N978 1.427 . S
C975 H965 0.929 . S
C975 C973 1.433 . S
C975 N978 1.384 . S
C976 H967 0.929 . S
C976 C968 1.378 . S
C976 C971 1.350 . S
C977 H964 0.929 . S
C977 C969 1.433 . S
C977 N979 1.384 . S
N978 C974 1.427 . S
N978 C975 1.384 . S
N979 C971 1.427 . S
N979 C977 1.384 . S
H980 C986 0.930 . S
H981 C990 0.930 . S
H982 C995 0.929 . S
H983 C993 0.929 . S
H984 C988 0.929 . S
H985 C994 0.929 . S
C986 H980 0.930 . S
C986 C987 1.367 . S
C986 C994 1.378 . S
C987 C986 1.367 . S
C987 C995 1.433 . S
C988 H984 0.929 . S
C988 C990 1.378 . S
C988 C992 1.350 . S
C989 C992 1.463 . S
C989 C994 1.350 . S
C989 N997 1.427 . S
C990 H981 0.930 . S
C990 C988 1.378 . S
C990 C991 1.367 . S
C991 C990 1.367 . S
C991 C993 1.433 . S
C992 C988 1.350 . S
C992 C989 1.463 . S
C992 N996 1.427 . S
C993 H983 0.929 . S
C993 C991 1.433 . S
C993 N996 1.384 . S
C994 H985 0.929 . S
C994 C986 1.378 . S
C994 C989 1.350 . S
C995 H982 0.929 . S
C995 C987 1.433 . S
C995 N997 1.384 . S
N996 C992 1.427 . S
N996 C993 1.384 . S
N997 C989 1.427 . S
N997 C995 1.384 . S
H998 C1004 0.930 . S
H999 C1008 0.930 . S
H1000 C1013 0.929 . S
H1001 C1011 0.929 . S
H1002 C1006 0.929 . S
H1003 C1012 0.929 . S
C1004 H998 0.930 . S
C1004 C1005 1.367 . S
C1004 C1012 1.378 . S
C1005 C1004 1.367 . S
C1005 C1013 1.433 . S
C1006 H1002 0.929 . S
C1006 C1008 1.378 . S
C1006 C1010 1.350 . S
C1007 C1010 1.463 . S
C1007 C1012 1.350 . S
C1007 N1015 1.427 . S
C1008 H999 0.930 . S
C1008 C1006 1.378 . S
C1008 C1009 1.367 . S
C1009 C1008 1.367 . S
C1009 C1011 1.433 . S
C1010 C1006 1.350 . S
C1010 C1007 1.463 . S
C1010 N1014 1.427 . S
C1011 H1001 0.929 . S
C1011 C1009 1.433 . S
C1011 N1014 1.384 . S
C1012 H1003 0.929 . S
C1012 C1004 1.378 . S
C1012 C1007 1.350 . S
C1013 H1000 0.929 . S
C1013 C1005 1.433 . S
C1013 N1015 1.384 . S
N1014 C1010 1.427 . S
N1014 C1011 1.384 . S
N1015 C1007 1.427 . S
N1015 C1013 1.384 . S
H1016 C1022 0.930 . S
H1017 C1026 0.930 . S
H1018 C1031 0.929 . S
H1019 C1029 0.929 . S
H1020 C1024 0.929 . S
H1021 C1030 0.929 . S
C1022 H1016 0.930 . S
C1022 C1023 1.367 . S
C1022 C1030 1.378 . S
C1023 C1022 1.367 . S
C1023 C1031 1.433 . S
C1024 H1020 0.929 . S
C1024 C1026 1.378 . S
C1024 C1028 1.350 . S
C1025 C1028 1.463 . S
C1025 C1030 1.350 . S
C1025 N1033 1.427 . S
C1026 H1017 0.930 . S
C1026 C1024 1.378 . S
C1026 C1027 1.367 . S
C1027 C1026 1.367 . S
C1027 C1029 1.433 . S
C1028 C1024 1.350 . S
C1028 C1025 1.463 . S
C1028 N1032 1.427 . S
C1029 H1019 0.929 . S
C1029 C1027 1.433 . S
C1029 N1032 1.384 . S
C1030 H1021 0.929 . S
C1030 C1022 1.378 . S
C1030 C1025 1.350 . S
C1031 H1018 0.929 . S
C1031 C1023 1.433 . S
C1031 N1033 1.384 . S
N1032 C1028 1.427 . S
N1032 C1029 1.384 . S
N1033 C1025 1.427 . S
N1033 C1031 1.384 . S
H1034 C1040 0.930 . S
H1035 C1044 0.930 . S
H1036 C1049 0.929 . S
H1037 C1047 0.929 . S
H1038 C1042 0.929 . S
H1039 C1048 0.929 . S
C1040 H1034 0.930 . S
C1040 C1041 1.367 . S
C1040 C1048 1.378 . S
C1041 C1040 1.367 . S
C1041 C1049 1.433 . S
C1042 H1038 0.929 . S
C1042 C1044 1.378 . S
C1042 C1046 1.350 . S
C1043 C1046 1.463 . S
C1043 C1048 1.350 . S
C1043 N1051 1.427 . S
C1044 H1035 0.930 . S
C1044 C1042 1.378 . S
C1044 C1045 1.367 . S
C1045 C1044 1.367 . S
C1045 C1047 1.433 . S
C1046 C1042 1.350 . S
C1046 C1043 1.463 . S
C1046 N1050 1.427 . S
C1047 H1037 0.929 . S
C1047 C1045 1.433 . S
C1047 N1050 1.384 . S
C1048 H1039 0.929 . S
C1048 C1040 1.378 . S
C1048 C1043 1.350 . S
C1049 H1036 0.929 . S
C1049 C1041 1.433 . S
C1049 N1051 1.384 . S
N1050 C1046 1.427 . S
N1050 C1047 1.384 . S
N1051 C1043 1.427 . S
N1051 C1049 1.384 . S
H1052 C1058 0.930 . S
H1053 C1062 0.930 . S
H1054 C1067 0.929 . S
H1055 C1065 0.929 . S
H1056 C1060 0.929 . S
H1057 C1066 0.929 . S
C1058 H1052 0.930 . S
C1058 C1059 1.367 . S
C1058 C1066 1.378 . S
C1059 C1058 1.367 . S
C1059 C1067 1.433 . S
C1060 H1056 0.929 . S
C1060 C1062 1.378 . S
C1060 C1064 1.350 . S
C1061 C1064 1.463 . S
C1061 C1066 1.350 . S
C1061 N1069 1.427 . S
C1062 H1053 0.930 . S
C1062 C1060 1.378 . S
C1062 C1063 1.367 . S
C1063 C1062 1.367 . S
C1063 C1065 1.433 . S
C1064 C1060 1.350 . S
C1064 C1061 1.463 . S
C1064 N1068 1.427 . S
C1065 H1055 0.929 . S
C1065 C1063 1.433 . S
C1065 N1068 1.384 . S
C1066 H1057 0.929 . S
C1066 C1058 1.378 . S
C1066 C1061 1.350 . S
C1067 H1054 0.929 . S
C1067 C1059 1.433 . S
C1067 N1069 1.384 . S
N1068 C1064 1.427 . S
N1068 C1065 1.384 . S
N1069 C1061 1.427 . S
N1069 C1067 1.384 . S
H1070 C1076 0.930 . S
H1071 C1080 0.930 . S
H1072 C1085 0.929 . S
H1073 C1083 0.929 . S
H1074 C1078 0.929 . S
H1075 C1084 0.929 . S
C1076 H1070 0.930 . S
C1076 C1077 1.367 . S
C1076 C1084 1.378 . S
C1077 C1076 1.367 . S
C1077 C1085 1.433 . S
C1078 H1074 0.929 . S
C1078 C1080 1.378 . S
C1078 C1082 1.350 . S
C1079 C1082 1.463 . S
C1079 C1084 1.350 . S
C1079 N1087 1.427 . S
C1080 H1071 0.930 . S
C1080 C1078 1.378 . S
C1080 C1081 1.367 . S
C1081 C1080 1.367 . S
C1081 C1083 1.433 . S
C1082 C1078 1.350 . S
C1082 C1079 1.463 . S
C1082 N1086 1.427 . S
C1083 H1073 0.929 . S
C1083 C1081 1.433 . S
C1083 N1086 1.384 . S
C1084 H1075 0.929 . S
C1084 C1076 1.378 . S
C1084 C1079 1.350 . S
C1085 H1072 0.929 . S
C1085 C1077 1.433 . S
C1085 N1087 1.384 . S
N1086 C1082 1.427 . S
N1086 C1083 1.384 . S
N1087 C1079 1.427 . S
N1087 C1085 1.384 . S
H1088 C1094 0.930 . S
H1089 C1098 0.930 . S
H1090 C1103 0.929 . S
H1091 C1101 0.929 . S
H1092 C1096 0.929 . S
H1093 C1102 0.929 . S
C1094 H1088 0.930 . S
C1094 C1095 1.367 . S
C1094 C1102 1.378 . S
C1095 C1094 1.367 . S
C1095 C1103 1.433 . S
C1096 H1092 0.929 . S
C1096 C1098 1.378 . S
C1096 C1100 1.350 . S
C1097 C1100 1.463 . S
C1097 C1102 1.350 . S
C1097 N1105 1.427 . S
C1098 H1089 0.930 . S
C1098 C1096 1.378 . S
C1098 C1099 1.367 . S
C1099 C1098 1.367 . S
C1099 C1101 1.433 . S
C1100 C1096 1.350 . S
C1100 C1097 1.463 . S
C1100 N1104 1.427 . S
C1101 H1091 0.929 . S
C1101 C1099 1.433 . S
C1101 N1104 1.384 . S
C1102 H1093 0.929 . S
C1102 C1094 1.378 . S
C1102 C1097 1.350 . S
C1103 H1090 0.929 . S
C1103 C1095 1.433 . S
C1103 N1105 1.384 . S
N1104 C1100 1.427 . S
N1104 C1101 1.384 . S
N1105 C1097 1.427 . S
N1105 C1103 1.384 . S
H1106 C1112 0.930 . S
H1107 C1116 0.930 . S
H1108 C1121 0.929 . S
H1109 C1119 0.929 . S
H1110 C1114 0.929 . S
H1111 C1120 0.929 . S
C1112 H1106 0.930 . S
C1112 C1113 1.367 . S
C1112 C1120 1.378 . S
C1113 C1112 1.367 . S
C1113 C1121 1.433 . S
C1114 H1110 0.929 . S
C1114 C1116 1.378 . S
C1114 C1118 1.350 . S
C1115 C1118 1.463 . S
C1115 C1120 1.350 . S
C1115 N1123 1.427 . S
C1116 H1107 0.930 . S
C1116 C1114 1.378 . S
C1116 C1117 1.367 . S
C1117 C1116 1.367 . S
C1117 C1119 1.433 . S
C1118 C1114 1.350 . S
C1118 C1115 1.463 . S
C1118 N1122 1.427 . S
C1119 H1109 0.929 . S
C1119 C1117 1.433 . S
C1119 N1122 1.384 . S
C1120 H1111 0.929 . S
C1120 C1112 1.378 . S
C1120 C1115 1.350 . S
C1121 H1108 0.929 . S
C1121 C1113 1.433 . S
C1121 N1123 1.384 . S
N1122 C1118 1.427 . S
N1122 C1119 1.384 . S
N1123 C1115 1.427 . S
N1123 C1121 1.384 . S
H1124 C1130 0.930 . S
H1125 C1134 0.930 . S
H1126 C1139 0.929 . S
H1127 C1137 0.929 . S
H1128 C1132 0.929 . S
H1129 C1138 0.929 . S
C1130 H1124 0.930 . S
C1130 C1131 1.367 . S
C1130 C1138 1.378 . S
C1131 C1130 1.367 . S
C1131 C1139 1.433 . S
C1132 H1128 0.929 . S
C1132 C1134 1.378 . S
C1132 C1136 1.350 . S
C1133 C1136 1.463 . S
C1133 C1138 1.350 . S
C1133 N1141 1.427 . S
C1134 H1125 0.930 . S
C1134 C1132 1.378 . S
C1134 C1135 1.367 . S
C1135 C1134 1.367 . S
C1135 C1137 1.433 . S
C1136 C1132 1.350 . S
C1136 C1133 1.463 . S
C1136 N1140 1.427 . S
C1137 H1127 0.929 . S
C1137 C1135 1.433 . S
C1137 N1140 1.384 . S
C1138 H1129 0.929 . S
C1138 C1130 1.378 . S
C1138 C1133 1.350 . S
C1139 H1126 0.929 . S
C1139 C1131 1.433 . S
C1139 N1141 1.384 . S
N1140 C1136 1.427 . S
N1140 C1137 1.384 . S
N1141 C1133 1.427 . S
N1141 C1139 1.384 . S
H1142 C1148 0.930 . S
H1143 C1152 0.930 . S
H1144 C1157 0.929 . S
H1145 C1155 0.929 . S
H1146 C1150 0.929 . S
H1147 C1156 0.929 . S
C1148 H1142 0.930 . S
C1148 C1149 1.367 . S
C1148 C1156 1.378 . S
C1149 C1148 1.367 . S
C1149 C1157 1.433 . S
C1150 H1146 0.929 . S
C1150 C1152 1.378 . S
C1150 C1154 1.350 . S
C1151 C1154 1.463 . S
C1151 C1156 1.350 . S
C1151 N1159 1.427 . S
C1152 H1143 0.930 . S
C1152 C1150 1.378 . S
C1152 C1153 1.367 . S
C1153 C1152 1.367 . S
C1153 C1155 1.433 . S
C1154 C1150 1.350 . S
C1154 C1151 1.463 . S
C1154 N1158 1.427 . S
C1155 H1145 0.929 . S
C1155 C1153 1.433 . S
C1155 N1158 1.384 . S
C1156 H1147 0.929 . S
C1156 C1148 1.378 . S
C1156 C1151 1.350 . S
C1157 H1144 0.929 . S
C1157 C1149 1.433 . S
C1157 N1159 1.384 . S
N1158 C1154 1.427 . S
N1158 C1155 1.384 . S
N1159 C1151 1.427 . S
N1159 C1157 1.384 . S
H1160 C1166 0.930 . S
H1161 C1170 0.930 . S
H1162 C1175 0.929 . S
H1163 C1173 0.929 . S
H1164 C1168 0.929 . S
H1165 C1174 0.929 . S
C1166 H1160 0.930 . S
C1166 C1167 1.367 . S
C1166 C1174 1.378 . S
C1167 C1166 1.367 . S
C1167 C1175 1.433 . S
C1168 H1164 0.929 . S
C1168 C1170 1.378 . S
C1168 C1172 1.350 . S
C1169 C1172 1.463 1_556 S
C1169 C1174 1.350 . S
C1169 N1177 1.427 . S
C1170 H1161 0.930 . S
C1170 C1168 1.378 . S
C1170 C1171 1.367 . S
C1171 C1170 1.367 . S
C1171 C1173 1.433 . S
C1172 C1168 1.350 . S
C1172 C1169 1.463 1_554 S
C1172 N1176 1.427 . S
C1173 H1163 0.929 . S
C1173 C1171 1.433 . S
C1173 N1176 1.384 . S
C1174 H1165 0.929 . S
C1174 C1166 1.378 . S
C1174 C1169 1.350 . S
C1175 H1162 0.929 . S
C1175 C1167 1.433 . S
C1175 N1177 1.384 . S
N1176 C1172 1.427 . S
N1176 C1173 1.384 . S
N1177 C1169 1.427 . S
N1177 C1175 1.384 . S
H1178 C1184 0.930 . S
H1179 C1188 0.930 . S
H1180 C1193 0.929 . S
H1181 C1191 0.929 . S
H1182 C1186 0.929 . S
H1183 C1192 0.929 . S
C1184 H1178 0.930 . S
C1184 C1185 1.367 . S
C1184 C1192 1.378 . S
C1185 C1184 1.367 . S
C1185 C1193 1.433 . S
C1186 H1182 0.929 . S
C1186 C1188 1.378 . S
C1186 C1190 1.350 . S
C1187 C1190 1.463 1_554 S
C1187 C1192 1.350 . S
C1187 N1195 1.427 . S
C1188 H1179 0.930 . S
C1188 C1186 1.378 . S
C1188 C1189 1.367 . S
C1189 C1188 1.367 . S
C1189 C1191 1.433 . S
C1190 C1186 1.350 . S
C1190 C1187 1.463 1_556 S
C1190 N1194 1.427 . S
C1191 H1181 0.929 . S
C1191 C1189 1.433 . S
C1191 N1194 1.384 . S
C1192 H1183 0.929 . S
C1192 C1184 1.378 . S
C1192 C1187 1.350 . S
C1193 H1180 0.929 . S
C1193 C1185 1.433 . S
C1193 N1195 1.384 . S
N1194 C1190 1.427 . S
N1194 C1191 1.384 . S
N1195 C1187 1.427 . S
N1195 C1193 1.384 . S
H1196 C1202 0.930 . S
H1197 C1206 0.930 . S
H1198 C1211 0.929 . S
H1199 C1209 0.929 . S
H1200 C1204 0.929 . S
H1201 C1210 0.929 . S
C1202 H1196 0.930 . S
C1202 C1203 1.367 . S
C1202 C1210 1.378 . S
C1203 C1202 1.367 . S
C1203 C1211 1.433 . S
C1204 H1200 0.929 . S
C1204 C1206 1.378 . S
C1204 C1208 1.350 . S
C1205 C1208 1.463 1_556 S
C1205 C1210 1.350 . S
C1205 N1213 1.427 . S
C1206 H1197 0.930 . S
C1206 C1204 1.378 . S
C1206 C1207 1.367 . S
C1207 C1206 1.367 . S
C1207 C1209 1.433 . S
C1208 C1204 1.350 . S
C1208 C1205 1.463 1_554 S
C1208 N1212 1.427 . S
C1209 H1199 0.929 . S
C1209 C1207 1.433 . S
C1209 N1212 1.384 . S
C1210 H1201 0.929 . S
C1210 C1202 1.378 . S
C1210 C1205 1.350 . S
C1211 H1198 0.929 . S
C1211 C1203 1.433 . S
C1211 N1213 1.384 . S
N1212 C1208 1.427 . S
N1212 C1209 1.384 . S
N1213 C1205 1.427 . S
N1213 C1211 1.384 . S
H1214 C1220 0.930 . S
H1215 C1224 0.930 . S
H1216 C1229 0.929 . S
H1217 C1227 0.929 . S
H1218 C1222 0.929 . S
H1219 C1228 0.929 1_556 S
C1220 H1214 0.930 . S
C1220 C1221 1.367 . S
C1220 C1228 1.378 . S
C1221 C1220 1.367 . S
C1221 C1229 1.433 . S
C1222 H1218 0.929 . S
C1222 C1224 1.378 . S
C1222 C1226 1.350 . S
C1223 C1226 1.463 1_554 S
C1223 C1228 1.350 . S
C1223 N1231 1.427 . S
C1224 H1215 0.930 . S
C1224 C1222 1.378 . S
C1224 C1225 1.367 . S
C1225 C1224 1.367 . S
C1225 C1227 1.433 . S
C1226 C1222 1.350 . S
C1226 C1223 1.463 1_556 S
C1226 N1230 1.427 . S
C1227 H1217 0.929 . S
C1227 C1225 1.433 . S
C1227 N1230 1.384 . S
C1228 H1219 0.929 1_554 S
C1228 C1220 1.378 . S
C1228 C1223 1.350 . S
C1229 H1216 0.929 . S
C1229 C1221 1.433 . S
C1229 N1231 1.384 . S
N1230 C1226 1.427 . S
N1230 C1227 1.384 . S
N1231 C1223 1.427 . S
N1231 C1229 1.384 . S
H1232 C1238 0.930 . S
H1233 C1242 0.930 . S
H1234 C1247 0.929 . S
H1235 C1245 0.929 . S
H1236 C1240 0.929 . S
H1237 C1246 0.929 . S
C1238 H1232 0.930 . S
C1238 C1239 1.367 . S
C1238 C1246 1.378 . S
C1239 C1238 1.367 . S
C1239 C1247 1.433 . S
C1240 H1236 0.929 . S
C1240 C1242 1.378 . S
C1240 C1244 1.350 . S
C1241 C1244 1.463 . S
C1241 C1246 1.350 . S
C1241 N1249 1.427 . S
C1242 H1233 0.930 . S
C1242 C1240 1.378 . S
C1242 C1243 1.367 . S
C1243 C1242 1.367 . S
C1243 C1245 1.433 . S
C1244 C1240 1.350 . S
C1244 C1241 1.463 . S
C1244 N1248 1.427 . S
C1245 H1235 0.929 . S
C1245 C1243 1.433 . S
C1245 N1248 1.384 . S
C1246 H1237 0.929 . S
C1246 C1238 1.378 . S
C1246 C1241 1.350 . S
C1247 H1234 0.929 . S
C1247 C1239 1.433 . S
C1247 N1249 1.384 . S
N1248 C1244 1.427 . S
N1248 C1245 1.384 . S
N1249 C1241 1.427 . S
N1249 C1247 1.384 . S
H1250 C1256 0.930 . S
H1251 C1260 0.930 . S
H1252 C1265 0.929 . S
H1253 C1263 0.929 . S
H1254 C1258 0.929 . S
H1255 C1264 0.929 . S
C1256 H1250 0.930 . S
C1256 C1257 1.367 . S
C1256 C1264 1.378 . S
C1257 C1256 1.367 . S
C1257 C1265 1.433 . S
C1258 H1254 0.929 . S
C1258 C1260 1.378 . S
C1258 C1262 1.350 . S
C1259 C1262 1.463 . S
C1259 C1264 1.350 . S
C1259 N1267 1.427 . S
C1260 H1251 0.930 . S
C1260 C1258 1.378 . S
C1260 C1261 1.367 . S
C1261 C1260 1.367 . S
C1261 C1263 1.433 . S
C1262 C1258 1.350 . S
C1262 C1259 1.463 . S
C1262 N1266 1.427 . S
C1263 H1253 0.929 . S
C1263 C1261 1.433 . S
C1263 N1266 1.384 . S
C1264 H1255 0.929 . S
C1264 C1256 1.378 . S
C1264 C1259 1.350 . S
C1265 H1252 0.929 . S
C1265 C1257 1.433 . S
C1265 N1267 1.384 . S
N1266 C1262 1.427 . S
N1266 C1263 1.384 . S
N1267 C1259 1.427 . S
N1267 C1265 1.384 . S
H1268 C1274 0.930 . S
H1269 C1278 0.930 . S
H1270 C1283 0.929 . S
H1271 C1281 0.929 . S
H1272 C1276 0.929 . S
H1273 C1282 0.929 . S
C1274 H1268 0.930 . S
C1274 C1275 1.367 . S
C1274 C1282 1.378 . S
C1275 C1274 1.367 . S
C1275 C1283 1.433 . S
C1276 H1272 0.929 . S
C1276 C1278 1.378 . S
C1276 C1280 1.350 . S
C1277 C1280 1.463 . S
C1277 C1282 1.350 . S
C1277 N1285 1.427 . S
C1278 H1269 0.930 . S
C1278 C1276 1.378 . S
C1278 C1279 1.367 . S
C1279 C1278 1.367 . S
C1279 C1281 1.433 . S
C1280 C1276 1.350 . S
C1280 C1277 1.463 . S
C1280 N1284 1.427 . S
C1281 H1271 0.929 . S
C1281 C1279 1.433 . S
C1281 N1284 1.384 . S
C1282 H1273 0.929 . S
C1282 C1274 1.378 . S
C1282 C1277 1.350 . S
C1283 H1270 0.929 . S
C1283 C1275 1.433 . S
C1283 N1285 1.384 . S
N1284 C1280 1.427 . S
N1284 C1281 1.384 . S
N1285 C1277 1.427 . S
N1285 C1283 1.384 . S
H1286 C1292 0.930 . S
H1287 C1296 0.930 . S
H1288 C1301 0.929 . S
H1289 C1299 0.929 . S
H1290 C1294 0.929 . S
H1291 C1300 0.929 . S
C1292 H1286 0.930 . S
C1292 C1293 1.367 . S
C1292 C1300 1.378 . S
C1293 C1292 1.367 . S
C1293 C1301 1.433 . S
C1294 H1290 0.929 . S
C1294 C1296 1.378 . S
C1294 C1298 1.350 . S
C1295 C1298 1.463 . S
C1295 C1300 1.350 . S
C1295 N1303 1.427 . S
C1296 H1287 0.930 . S
C1296 C1294 1.378 . S
C1296 C1297 1.367 . S
C1297 C1296 1.367 . S
C1297 C1299 1.433 . S
C1298 C1294 1.350 . S
C1298 C1295 1.463 . S
C1298 N1302 1.427 . S
C1299 H1289 0.929 . S
C1299 C1297 1.433 . S
C1299 N1302 1.384 . S
C1300 H1291 0.929 . S
C1300 C1292 1.378 . S
C1300 C1295 1.350 . S
C1301 H1288 0.929 . S
C1301 C1293 1.433 . S
C1301 N1303 1.384 . S
N1302 C1298 1.427 . S
N1302 C1299 1.384 . S
N1303 C1295 1.427 . S
N1303 C1301 1.384 . S
H1304 C1310 0.930 . S
H1305 C1314 0.930 . S
H1306 C1319 0.929 . S
H1307 C1317 0.929 . S
H1308 C1312 0.954 . S
H1309 C1318 0.929 1_554 S
C1310 H1304 0.930 . S
C1310 C1311 1.367 . S
C1310 C1318 1.378 . S
C1311 C1310 1.367 . S
C1311 C1319 1.433 . S
C1312 H1308 0.954 . S
C1312 C1314 1.378 . S
C1312 C1316 1.350 . S
C1313 C1316 1.463 1_556 S
C1313 C1318 1.350 . S
C1313 N1321 1.427 . S
C1314 H1305 0.930 . S
C1314 C1312 1.378 . S
C1314 C1315 1.367 . S
C1315 C1314 1.367 . S
C1315 C1317 1.433 . S
C1316 C1312 1.350 . S
C1316 C1313 1.463 1_554 S
C1316 N1320 1.427 . S
C1317 H1307 0.929 . S
C1317 C1315 1.433 . S
C1317 N1320 1.384 . S
C1318 H1309 0.929 1_556 S
C1318 C1310 1.378 . S
C1318 C1313 1.350 . S
C1319 H1306 0.929 . S
C1319 C1311 1.433 . S
C1319 N1321 1.384 . S
N1320 C1316 1.427 . S
N1320 C1317 1.384 . S
N1321 C1313 1.427 . S
N1321 C1319 1.384 . S
H1322 C1328 0.930 . S
H1323 C1332 0.930 . S
H1324 C1337 0.929 . S
H1325 C1335 0.929 . S
H1326 C1330 0.929 . S
H1327 C1336 0.929 . S
C1328 H1322 0.930 . S
C1328 C1329 1.367 . S
C1328 C1336 1.378 . S
C1329 C1328 1.367 . S
C1329 C1337 1.433 . S
C1330 H1326 0.929 . S
C1330 C1332 1.378 . S
C1330 C1334 1.350 . S
C1331 C1334 1.463 1_556 S
C1331 C1336 1.350 . S
C1331 N1339 1.427 . S
C1332 H1323 0.930 . S
C1332 C1330 1.378 . S
C1332 C1333 1.367 . S
C1333 C1332 1.367 . S
C1333 C1335 1.433 . S
C1334 C1330 1.350 . S
C1334 C1331 1.463 1_554 S
C1334 N1338 1.427 . S
C1335 H1325 0.929 . S
C1335 C1333 1.433 . S
C1335 N1338 1.384 . S
C1336 H1327 0.929 . S
C1336 C1328 1.378 . S
C1336 C1331 1.350 . S
C1337 H1324 0.929 . S
C1337 C1329 1.433 . S
C1337 N1339 1.384 . S
N1338 C1334 1.427 . S
N1338 C1335 1.384 . S
N1339 C1331 1.427 . S
N1339 C1337 1.384 . S
H1340 C1346 0.930 . S
H1341 C1350 0.930 . S
H1342 C1355 0.929 . S
H1343 C1353 0.929 . S
H1344 C1348 0.929 . S
H1345 C1354 0.929 . S
C1346 H1340 0.930 . S
C1346 C1347 1.367 . S
C1346 C1354 1.378 . S
C1347 C1346 1.367 . S
C1347 C1355 1.433 . S
C1348 H1344 0.929 . S
C1348 C1350 1.378 . S
C1348 C1352 1.350 . S
C1349 C1352 1.463 1_554 S
C1349 C1354 1.350 . S
C1349 N1357 1.427 . S
C1350 H1341 0.930 . S
C1350 C1348 1.378 . S
C1350 C1351 1.367 . S
C1351 C1350 1.367 . S
C1351 C1353 1.433 . S
C1352 C1348 1.350 . S
C1352 C1349 1.463 1_556 S
C1352 N1356 1.427 . S
C1353 H1343 0.929 . S
C1353 C1351 1.433 . S
C1353 N1356 1.384 . S
C1354 H1345 0.929 . S
C1354 C1346 1.378 . S
C1354 C1349 1.350 . S
C1355 H1342 0.929 . S
C1355 C1347 1.433 . S
C1355 N1357 1.384 . S
N1356 C1352 1.427 . S
N1356 C1353 1.384 . S
N1357 C1349 1.427 . S
N1357 C1355 1.384 . S
H1358 C1364 0.930 . S
H1359 C1368 0.930 . S
H1360 C1373 0.929 . S
H1361 C1371 0.929 . S
H1362 C1366 0.929 1_554 S
H1363 C1372 0.929 . S
C1364 H1358 0.930 . S
C1364 C1365 1.367 . S
C1364 C1372 1.378 . S
C1365 C1364 1.367 . S
C1365 C1373 1.433 . S
C1366 H1362 0.929 1_556 S
C1366 C1368 1.378 . S
C1366 C1370 1.350 . S
C1367 C1370 1.463 1_554 S
C1367 C1372 1.350 . S
C1367 N1375 1.427 . S
C1368 H1359 0.930 . S
C1368 C1366 1.378 . S
C1368 C1369 1.367 . S
C1369 C1368 1.367 . S
C1369 C1371 1.433 . S
C1370 C1366 1.350 . S
C1370 C1367 1.463 1_556 S
C1370 N1374 1.427 . S
C1371 H1361 0.929 . S
C1371 C1369 1.433 . S
C1371 N1374 1.384 . S
C1372 H1363 0.929 . S
C1372 C1364 1.378 . S
C1372 C1367 1.350 . S
C1373 H1360 0.929 . S
C1373 C1365 1.433 . S
C1373 N1375 1.384 . S
N1374 C1370 1.427 . S
N1374 C1371 1.384 . S
N1375 C1367 1.427 . S
N1375 C1373 1.384 . S
C519 C4 1.594 . S
C523 C164 1.607 . S
C537 C221 1.606 . S
C541 C61 1.597 . S
C555 C68 1.606 . S
C559 C228 1.594 . S
C573 C125 1.605 . S
C577 C132 1.599 . S
C591 C445 1.607 . S
C595 C260 1.595 . S
C609 C477 1.599 . S
C613 C317 1.605 . S
C627 C349 1.600 . S
C631 C484 1.604 . S
C645 C381 1.594 . S
C649 C388 1.605 . S
C663 C2 1.957 . S
C667 N109 1.729 . S
C681 C38 1.962 . S
C685 N18 1.733 . S
C699 C66 1.954 1_455 S
C703 N45 1.714 . S
C717 C102 1.954 1_545 S
C721 N82 1.714 . S
C735 C130 1.958 1_655 S
C739 N178 1.716 . S
C753 N205 1.733 . S
C757 C162 1.962 1_565 S
C771 C198 1.958 . S
C775 N242 1.718 . S
C789 N146 1.733 . S
C793 C226 1.960 . S
C807 N365 1.713 . S
C811 C258 1.954 . S
C825 C294 1.956 . S
C829 N274 1.713 . S
C843 C326 1.954 1_655 S
C847 N301 1.715 . S
C861 C358 1.958 1_565 S
C865 N333 1.716 . S
C879 C386 1.958 1_455 S
C883 N429 1.730 . S
C897 C422 1.957 1_545 S
C901 N461 1.715 . S
C915 C454 1.958 . S
C919 N498 1.731 . S
C933 C482 1.955 . S
C937 N402 1.713 . S
C951 C29 1.038 . S
C955 C93 1.038 . S
C969 C36 1.030 . S
C973 C100 1.031 . S
C987 C196 1.038 . S
C991 C157 1.038 . S
C1005 C253 1.022 . S
C1009 C189 1.023 . S
C1023 C324 1.027 . S
C1027 C285 1.028 . S
C1041 C356 1.022 . S
C1045 C292 1.021 . S
C1059 C413 1.031 . S
C1063 C452 1.032 . S
C1077 C420 1.024 . S
C1081 C509 1.022 . S
C1095 N13 1.244 . S
C1099 C354 1.265 . S
C1113 C262 1.265 . S
C1117 N50 1.252 . S
C1131 N77 1.243 . S
C1135 C290 1.265 . S
C1149 C322 1.265 . S
C1153 N114 1.243 . S
C1167 C418 1.265 . S
C1171 N141 1.252 . S
C1185 N173 1.254 . S
C1189 C450 1.265 . S
C1203 C486 1.265 . S
C1207 N210 1.247 . S
C1221 N237 1.247 . S
C1225 C390 1.265 . S
C1239 N269 1.249 . S
C1243 C98 1.265 . S
C1257 N306 1.253 . S
C1261 C6 1.265 . S
C1275 C34 1.265 . S
C1279 N338 1.245 . S
C1293 N370 1.254 . S
C1297 C70 1.265 . S
C1311 N397 1.244 . S
C1315 C166 1.265 . S
C1329 N434 1.251 . S
C1333 C194 1.265 . S
C1347 C230 1.265 . S
C1351 N466 1.252 . S
C1365 C134 1.265 . S
C1369 N493 1.243 . S
