# Generated by pormake.
# Topology gan, (5)-cn, num edge types: 1
# Building blocks:
#     Node 0, Type 0, BuildingBlock: BEQFEK_clean_sbu_0, # of connection points: 5
#     Node 1, Type 0, BuildingBlock: BEQFEK_clean_sbu_0, # of connection points: 5
#     Node 2, Type 0, BuildingBlock: BEQFEK_clean_sbu_0, # of connection points: 5
#     Node 3, Type 0, BuildingBlock: BEQFEK_clean_sbu_0, # of connection points: 5
#     Node 4, Type 0, BuildingBlock: BEQFEK_clean_sbu_0, # of connection points: 5
#     Node 5, Type 0, BuildingBlock: BEQFEK_clean_sbu_0, # of connection points: 5
#     Node 6, Type 0, BuildingBlock: BEQFEK_clean_sbu_0, # of connection points: 5
#     Node 7, Type 0, BuildingBlock: BEQFEK_clean_sbu_0, # of connection points: 5
#     Node 8, Type 0, BuildingBlock: BEQFEK_clean_sbu_0, # of connection points: 5
#     Node 9, Type 0, BuildingBlock: BEQFEK_clean_sbu_0, # of connection points: 5
#     Node 10, Type 0, BuildingBlock: BEQFEK_clean_sbu_0, # of connection points: 5
#     Node 11, Type 0, BuildingBlock: BEQFEK_clean_sbu_0, # of connection points: 5
#     Node 12, Type 0, BuildingBlock: BEQFEK_clean_sbu_0, # of connection points: 5
#     Node 13, Type 0, BuildingBlock: BEQFEK_clean_sbu_0, # of connection points: 5
#     Node 14, Type 0, BuildingBlock: BEQFEK_clean_sbu_0, # of connection points: 5
#     Node 15, Type 0, BuildingBlock: BEQFEK_clean_sbu_0, # of connection points: 5
#     Edge 16, Type (0, 0), BuildingBlock: CIFDUS_clean_linker_0, # of connection points: 2
#     Edge 17, Type (0, 0), BuildingBlock: CIFDUS_clean_linker_0, # of connection points: 2
#     Edge 18, Type (0, 0), BuildingBlock: CIFDUS_clean_linker_0, # of connection points: 2
#     Edge 19, Type (0, 0), BuildingBlock: CIFDUS_clean_linker_0, # of connection points: 2
#     Edge 20, Type (0, 0), BuildingBlock: CIFDUS_clean_linker_0, # of connection points: 2
#     Edge 21, Type (0, 0), BuildingBlock: CIFDUS_clean_linker_0, # of connection points: 2
#     Edge 22, Type (0, 0), BuildingBlock: CIFDUS_clean_linker_0, # of connection points: 2
#     Edge 23, Type (0, 0), BuildingBlock: CIFDUS_clean_linker_0, # of connection points: 2
#     Edge 24, Type (0, 0), BuildingBlock: CIFDUS_clean_linker_0, # of connection points: 2
#     Edge 25, Type (0, 0), BuildingBlock: CIFDUS_clean_linker_0, # of connection points: 2
#     Edge 26, Type (0, 0), BuildingBlock: CIFDUS_clean_linker_0, # of connection points: 2
#     Edge 27, Type (0, 0), BuildingBlock: CIFDUS_clean_linker_0, # of connection points: 2
#     Edge 28, Type (0, 0), BuildingBlock: CIFDUS_clean_linker_0, # of connection points: 2
#     Edge 29, Type (0, 0), BuildingBlock: CIFDUS_clean_linker_0, # of connection points: 2
#     Edge 30, Type (0, 0), BuildingBlock: CIFDUS_clean_linker_0, # of connection points: 2
#     Edge 31, Type (0, 0), BuildingBlock: CIFDUS_clean_linker_0, # of connection points: 2
#     Edge 32, Type (0, 0), BuildingBlock: CIFDUS_clean_linker_0, # of connection points: 2
#     Edge 33, Type (0, 0), BuildingBlock: CIFDUS_clean_linker_0, # of connection points: 2
#     Edge 34, Type (0, 0), BuildingBlock: CIFDUS_clean_linker_0, # of connection points: 2
#     Edge 35, Type (0, 0), BuildingBlock: CIFDUS_clean_linker_0, # of connection points: 2
#     Edge 36, Type (0, 0), BuildingBlock: CIFDUS_clean_linker_0, # of connection points: 2
#     Edge 37, Type (0, 0), BuildingBlock: CIFDUS_clean_linker_0, # of connection points: 2
#     Edge 38, Type (0, 0), BuildingBlock: CIFDUS_clean_linker_0, # of connection points: 2
#     Edge 39, Type (0, 0), BuildingBlock: CIFDUS_clean_linker_0, # of connection points: 2
#     Edge 40, Type (0, 0), BuildingBlock: CIFDUS_clean_linker_0, # of connection points: 2
#     Edge 41, Type (0, 0), BuildingBlock: CIFDUS_clean_linker_0, # of connection points: 2
#     Edge 42, Type (0, 0), BuildingBlock: CIFDUS_clean_linker_0, # of connection points: 2
#     Edge 43, Type (0, 0), BuildingBlock: CIFDUS_clean_linker_0, # of connection points: 2
#     Edge 44, Type (0, 0), BuildingBlock: CIFDUS_clean_linker_0, # of connection points: 2
#     Edge 45, Type (0, 0), BuildingBlock: CIFDUS_clean_linker_0, # of connection points: 2
#     Edge 46, Type (0, 0), BuildingBlock: CIFDUS_clean_linker_0, # of connection points: 2
#     Edge 47, Type (0, 0), BuildingBlock: CIFDUS_clean_linker_0, # of connection points: 2
#     Edge 48, Type (0, 0), BuildingBlock: CIFDUS_clean_linker_0, # of connection points: 2
#     Edge 49, Type (0, 0), BuildingBlock: CIFDUS_clean_linker_0, # of connection points: 2
#     Edge 50, Type (0, 0), BuildingBlock: CIFDUS_clean_linker_0, # of connection points: 2
#     Edge 51, Type (0, 0), BuildingBlock: CIFDUS_clean_linker_0, # of connection points: 2
#     Edge 52, Type (0, 0), BuildingBlock: CIFDUS_clean_linker_0, # of connection points: 2
#     Edge 53, Type (0, 0), BuildingBlock: CIFDUS_clean_linker_0, # of connection points: 2
#     Edge 54, Type (0, 0), BuildingBlock: CIFDUS_clean_linker_0, # of connection points: 2
#     Edge 55, Type (0, 0), BuildingBlock: CIFDUS_clean_linker_0, # of connection points: 2
# Relax obj value: 0.119
# Max RMSD: 0.208
# Mean RMSD: 0.185
data_MOF--net-gan--node1-BEQFEK_clean_sbu_0--edge1-CIFDUS_clean_linker_0
_symmetry_space_group_name_H-M    P1
_symmetry_Int_Tables_number       1
_symmetry_cell_setting            triclinic
loop_
_symmetry_equiv_pos_as_xyz
'x, y, z'
_cell_length_a     39.60406
_cell_length_b     39.808844
_cell_length_c     38.928343
_cell_angle_alpha  91.784834
_cell_angle_beta   91.620322
_cell_angle_gamma 93.291154
loop_
_atom_site_label
_atom_site_type_symbol
_atom_site_fract_x
_atom_site_fract_y
_atom_site_fract_z
_atom_type_partial_charge
Co0 Co 0.10987 0.12877 0.09252 0.0
Co1 Co 0.15443 0.17764 0.13653 0.0
C2 C 0.14212 0.11081 0.16244 0.0
O3 O 0.12598 0.10478 0.13388 0.0
O4 O 0.15536 0.14022 0.16996 0.0
C5 C 0.05143 0.08746 0.09144 0.0
O6 O 0.05221 0.0961 0.12432 0.0
C7 C 0.20207 0.22519 0.17435 0.0
C8 C 0.19629 0.27032 0.14321 0.0
C9 C 0.21478 0.25796 0.17013 0.0
N10 N 0.17751 0.21837 0.15046 0.0
N11 N 0.17412 0.24535 0.13199 0.0
C12 C 0.21229 0.20085 0.20072 0.0
H13 H 0.18999 0.18482 0.20801 0.0
H14 H 0.22367 0.21419 0.22408 0.0
H15 H 0.23104 0.18426 0.1896 0.0
C16 C 0.06003 0.1817 0.10111 0.0
N17 N 0.09084 0.16937 0.10543 0.0
N18 N 0.10894 0.18871 0.12756 0.0
C19 C 0.08977 0.21319 0.1396 0.0
C20 C 0.05793 0.20991 0.12302 0.0
C21 C 0.03389 0.16752 0.07526 0.0
H22 H 0.04614 0.15455 0.05371 0.0
H23 H 0.01662 0.14899 0.0877 0.0
H24 H 0.01871 0.18776 0.06501 0.0
O25 O 0.14582 0.13489 0.05899 0.0
O26 O 0.18039 0.16565 0.0943 0.0
H27 H 0.11144 0.26062 0.15925 0.0
H28 H 0.07866 0.24233 0.18512 0.0
C29 C 0.10057 0.23667 0.1692 0.0
H30 H 0.12016 0.22548 0.18547 0.0
H31 H 0.15727 0.24636 0.11099 0.0
O32 O 0.07434 0.09919 0.0723 0.0
C33 C 0.17444 0.1501 0.06549 0.0
Co34 Co 0.11352 0.92747 0.40071 0.0
Co35 Co 0.15257 0.88318 0.35126 0.0
C36 C 0.18276 0.9021 0.4203 0.0
O37 O 0.15576 0.91678 0.42691 0.0
O38 O 0.18648 0.8876 0.39096 0.0
C39 C 0.10622 0.98344 0.44732 0.0
O40 O 0.13928 0.98784 0.44589 0.0
C41 C 0.1882 0.83337 0.30978 0.0
C42 C 0.16145 0.83767 0.2596 0.0
C43 C 0.18526 0.8195 0.27643 0.0
N44 N 0.16732 0.85879 0.31211 0.0
N45 N 0.15135 0.861 0.28207 0.0
C46 C 0.20641 0.81987 0.3401 0.0
H47 H 0.19353 0.82633 0.36416 0.0
H48 H 0.23257 0.83149 0.34188 0.0
H49 H 0.20768 0.79213 0.3374 0.0
C50 C 0.12107 0.97636 0.34431 0.0
N51 N 0.12471 0.9459 0.35782 0.0
N52 N 0.14297 0.92786 0.33739 0.0
C53 C 0.15276 0.94694 0.31085 0.0
C54 C 0.13881 0.97821 0.31398 0.0
C55 C 0.10058 1.00294 0.36001 0.0
H56 H 0.07848 0.99116 0.37289 0.0
H57 H 0.11648 0.01789 0.37955 0.0
H58 H 0.0916 0.02013 0.34026 0.0
O59 O 0.08084 0.88812 0.39474 0.0
O60 O 0.11086 0.85461 0.36316 0.0
H61 H 0.16603 0.92702 0.26169 0.0
H62 H 0.19476 0.9601 0.27896 0.0
C63 C 0.17881 0.93755 0.28569 0.0
H64 H 0.19521 0.91859 0.29651 0.0
H65 H 0.13212 0.87728 0.27744 0.0
O66 O 0.09076 0.95999 0.42925 0.0
C67 C 0.08415 0.85993 0.37941 0.0
Co68 Co 0.38114 0.95209 0.60718 0.0
Co69 Co 0.34119 0.9008 0.64939 0.0
C70 C 0.36214 0.96741 0.68154 0.0
O71 O 0.37425 0.97609 0.65289 0.0
O72 O 0.34806 0.93812 0.68467 0.0
C73 C 0.43915 0.99543 0.60098 0.0
O74 O 0.44073 0.99315 0.63457 0.0
C75 C 0.32091 0.85231 0.70121 0.0
C76 C 0.29921 0.81053 0.66711 0.0
C77 C 0.30811 0.81927 0.70095 0.0
N78 N 0.32022 0.86246 0.66863 0.0
N79 N 0.30649 0.83771 0.64853 0.0
C80 C 0.33727 0.87244 0.73092 0.0
H81 H 0.36129 0.88525 0.72299 0.0
H82 H 0.34226 0.85641 0.75312 0.0
H83 H 0.32022 0.89222 0.73893 0.0
C84 C 0.42816 0.89597 0.60188 0.0
N85 N 0.4 0.90969 0.61332 0.0
N86 N 0.38391 0.88827 0.63294 0.0
C87 C 0.40208 0.86068 0.63582 0.0
C88 C 0.43068 0.86437 0.6159 0.0
C89 C 0.45096 0.91195 0.57623 0.0
H90 H 0.43597 0.92597 0.5576 0.0
H91 H 0.46956 0.92994 0.58986 0.0
H92 H 0.46486 0.89279 0.562 0.0
O93 O 0.33961 0.94538 0.57694 0.0
O94 O 0.30974 0.91127 0.61001 0.0
H95 H 0.37329 0.81572 0.64791 0.0
H96 H 0.41614 0.81799 0.66531 0.0
C97 C 0.39387 0.83275 0.65964 0.0
H98 H 0.38533 0.84332 0.68427 0.0
H99 H 0.30398 0.83874 0.62183 0.0
O100 O 0.41465 0.98046 0.58385 0.0
C101 C 0.31257 0.92782 0.58261 0.0
Co102 Co 0.38284 0.1828 0.85714 0.0
Co103 Co 0.42458 0.13373 0.89785 0.0
C104 C 0.39954 0.11379 0.82727 0.0
O105 O 0.38817 0.14304 0.82506 0.0
O106 O 0.41405 0.10484 0.85498 0.0
C107 C 0.32363 0.19769 0.82126 0.0
O108 O 0.31748 0.16501 0.82306 0.0
C109 C 0.46086 0.08096 0.93473 0.0
C110 C 0.47741 0.11118 0.9815 0.0
C111 C 0.47914 0.07975 0.96569 0.0
N112 N 0.44882 0.1118 0.93266 0.0
N113 N 0.45885 0.12959 0.9607 0.0
C114 C 0.45716 0.05455 0.90649 0.0
H115 H 0.45789 0.06645 0.88114 0.0
H116 H 0.43228 0.04053 0.90835 0.0
H117 H 0.47751 0.03659 0.90829 0.0
C118 C 0.33782 0.17565 0.91725 0.0
N119 N 0.36583 0.16896 0.89988 0.0
N120 N 0.38311 0.14736 0.91697 0.0
C121 C 0.36617 0.13907 0.94548 0.0
C122 C 0.33691 0.15679 0.94667 0.0
C123 C 0.31316 0.20086 0.90686 0.0
H124 H 0.2942 0.18867 0.88824 0.0
H125 H 0.29963 0.2104 0.92941 0.0
H126 H 0.32647 0.22232 0.89448 0.0
O127 O 0.42529 0.2108 0.86392 0.0
O128 O 0.4567 0.17362 0.88846 0.0
H129 H 0.39505 0.12466 0.98917 0.0
H130 H 0.35433 0.10237 0.9837 0.0
C131 C 0.37645 0.11295 0.9699 0.0
H132 H 0.3884 0.09233 0.95583 0.0
H133 H 0.45336 0.15462 0.96537 0.0
O134 O 0.35081 0.21116 0.83473 0.0
C135 C 0.45355 0.20269 0.87633 0.0
Co136 Co 0.61507 0.43111 0.90342 0.0
Co137 Co 0.65759 0.38488 0.85966 0.0
C138 C 0.68235 0.40835 0.93048 0.0
O139 O 0.65516 0.42346 0.93491 0.0
O140 O 0.6874 0.39286 0.90205 0.0
C141 C 0.59892 0.48619 0.94785 0.0
O142 O 0.63161 0.48934 0.95486 0.0
C143 C 0.70744 0.34224 0.82794 0.0
C144 C 0.6812 0.32894 0.77801 0.0
C145 C 0.70982 0.32321 0.79769 0.0
N146 N 0.67884 0.35879 0.82587 0.0
N147 N 0.66327 0.35061 0.79606 0.0
C148 C 0.72913 0.34134 0.85999 0.0
H149 H 0.744 0.36572 0.86374 0.0
H150 H 0.74656 0.32054 0.85895 0.0
H151 H 0.71285 0.33798 0.88248 0.0
C152 C 0.62206 0.47471 0.8424 0.0
N153 N 0.62831 0.44673 0.85974 0.0
N154 N 0.6468 0.42732 0.84094 0.0
C155 C 0.6536 0.44285 0.81127 0.0
C156 C 0.63787 0.47328 0.81091 0.0
C157 C 0.59952 0.50108 0.85497 0.0
H158 H 0.57632 0.48888 0.86548 0.0
H159 H 0.6129 0.51629 0.87609 0.0
H160 H 0.59226 0.51792 0.83419 0.0
O161 O 0.58428 0.39021 0.89773 0.0
O162 O 0.61585 0.35572 0.86909 0.0
H163 H 0.66152 0.41313 0.76589 0.0
H164 H 0.6882 0.45116 0.77017 0.0
C165 C 0.67648 0.43004 0.78451 0.0
H166 H 0.69671 0.41586 0.79657 0.0
H167 H 0.63977 0.35898 0.78855 0.0
O168 O 0.58742 0.46389 0.92597 0.0
C169 C 0.58838 0.36154 0.88374 0.0
Co170 Co 0.82871 0.38734 0.16858 0.0
Co171 Co 0.87266 0.43641 0.1274 0.0
C172 C 0.80472 0.41552 0.09954 0.0
O173 O 0.79979 0.39898 0.12681 0.0
O174 O 0.83286 0.43172 0.09505 0.0
C175 C 0.80134 0.34544 0.22129 0.0
O176 O 0.8122 0.37001 0.24283 0.0
C177 C 0.92005 0.46882 0.07988 0.0
C178 C 0.95839 0.49 0.11839 0.0
C179 C 0.95198 0.48466 0.08355 0.0
N180 N 0.9084 0.46417 0.11151 0.0
N181 N 0.93093 0.47785 0.13428 0.0
C182 C 0.90308 0.45449 0.04738 0.0
H183 H 0.88353 0.43451 0.05301 0.0
H184 H 0.92195 0.44422 0.02995 0.0
H185 H 0.89074 0.47491 0.03395 0.0
C186 C 0.88955 0.34583 0.16138 0.0
N187 N 0.87187 0.37322 0.15518 0.0
N188 N 0.88973 0.39354 0.13586 0.0
C189 C 0.91882 0.3793 0.12815 0.0
C190 C 0.92012 0.34879 0.14448 0.0
C191 C 0.87836 0.31885 0.18517 0.0
H192 H 0.86917 0.33054 0.20911 0.0
H193 H 0.85703 0.30323 0.17278 0.0
H194 H 0.89918 0.30254 0.19189 0.0
O195 O 0.83512 0.42506 0.20395 0.0
O196 O 0.86327 0.46049 0.17128 0.0
H197 H 0.9589 0.4149 0.11611 0.0
H198 H 0.96124 0.37429 0.09462 0.0
C199 C 0.94386 0.39337 0.10353 0.0
H200 H 0.93021 0.40211 0.08068 0.0
H201 H 0.92864 0.47664 0.16085 0.0
O202 O 0.80526 0.34848 0.18926 0.0
C203 C 0.85007 0.45373 0.19979 0.0
Co204 Co 0.8799 0.6779 0.35623 0.0
Co205 Co 0.92118 0.63278 0.40286 0.0
C206 C 0.89888 0.60733 0.33351 0.0
O207 O 0.88761 0.63615 0.32838 0.0
O208 O 0.91255 0.60062 0.36237 0.0
C209 C 0.82098 0.68318 0.31705 0.0
O210 O 0.81845 0.65098 0.32366 0.0
C211 C 0.95042 0.58045 0.44587 0.0
C212 C 0.97061 0.61253 0.49001 0.0
C213 C 0.96741 0.57953 0.47754 0.0
N214 N 0.94399 0.61265 0.44002 0.0
N215 N 0.95628 0.63161 0.46643 0.0
C216 C 0.93829 0.55127 0.42273 0.0
H217 H 0.91332 0.55605 0.41081 0.0
H218 H 0.93617 0.5276 0.43705 0.0
H219 H 0.9565 0.54834 0.40185 0.0
C220 C 0.83184 0.6721 0.41374 0.0
N221 N 0.86164 0.66656 0.39922 0.0
N222 N 0.87862 0.6466 0.4187 0.0
C223 C 0.85975 0.63821 0.4459 0.0
C224 C 0.82941 0.65406 0.44357 0.0
C225 C 0.80613 0.69462 0.39978 0.0
H226 H 0.81872 0.71576 0.38625 0.0
H227 H 0.78864 0.67991 0.38147 0.0
H228 H 0.79092 0.70485 0.42078 0.0
O229 O 0.92162 0.70749 0.36257 0.0
O230 O 0.95271 0.67272 0.39145 0.0
H231 H 0.8893 0.62457 0.48943 0.0
H232 H 0.84719 0.60461 0.48694 0.0
C233 C 0.86918 0.61302 0.4717 0.0
H234 H 0.87929 0.5909 0.45838 0.0
H235 H 0.95452 0.65765 0.46851 0.0
O236 O 0.84637 0.70115 0.32912 0.0
C237 C 0.94959 0.70071 0.37685 0.0
Co238 Co 0.86115 0.83522 0.86049 0.0
Co239 Co 0.89403 0.88681 0.91155 0.0
C240 C 0.87655 0.90895 0.84223 0.0
O241 O 0.86416 0.87906 0.83595 0.0
O242 O 0.89053 0.91686 0.87143 0.0
C243 C 0.86831 0.80513 0.79699 0.0
O244 O 0.89378 0.82775 0.79704 0.0
C245 C 0.92751 0.94168 0.95253 0.0
C246 C 0.93714 0.91666 1.00158 0.0
C247 C 0.94175 0.94685 0.98521 0.0
N248 N 0.91564 0.90956 0.94944 0.0
N249 N 0.92092 0.89482 0.9789 0.0
C250 C 0.92249 0.96723 0.92568 0.0
H251 H 0.93921 0.96231 0.9039 0.0
H252 H 0.92789 0.9933 0.93604 0.0
H253 H 0.8959 0.96488 0.9158 0.0
C254 C 0.92363 0.79903 0.8764 0.0
N255 N 0.90349 0.82505 0.88036 0.0
N256 N 0.91894 0.8483 0.90069 0.0
C257 C 0.94995 0.83825 0.90961 0.0
C258 C 0.95402 0.80655 0.89456 0.0
C259 C 0.91322 0.7667 0.85733 0.0
H260 H 0.88541 0.76172 0.85793 0.0
H261 H 0.92074 0.7685 0.83019 0.0
H262 H 0.92591 0.74533 0.86871 0.0
O263 O 0.8239 0.83501 0.89445 0.0
O264 O 0.84841 0.87457 0.92924 0.0
H265 H 0.97294 0.85487 0.95791 0.0
H266 H 1.00199 0.85294 0.92332 0.0
C267 C 0.97611 0.85947 0.9302 0.0
H268 H 0.97313 0.88654 0.92578 0.0
H269 H 0.91372 0.86974 0.98335 0.0
O270 O 0.85032 0.80256 0.82337 0.0
C271 C 0.82334 0.85414 0.92129 0.0
Co272 Co 0.84788 0.1463 0.66127 0.0
Co273 Co 0.90442 0.11057 0.62417 0.0
C274 C 0.83725 0.11892 0.58829 0.0
O275 O 0.8263 0.13309 0.6153 0.0
O276 O 0.86733 0.10902 0.58763 0.0
C277 C 0.82234 0.1857 0.71438 0.0
O278 O 0.85481 0.19171 0.72141 0.0
C279 C 0.94782 0.07265 0.57869 0.0
C280 C 0.99474 0.07299 0.61101 0.0
C281 C 0.98084 0.06261 0.57916 0.0
N282 N 0.94239 0.08775 0.60921 0.0
N283 N 0.97056 0.08806 0.62827 0.0
C284 C 0.92337 0.07224 0.54861 0.0
H285 H 0.91411 0.09779 0.54572 0.0
H286 H 0.90127 0.05481 0.55349 0.0
H287 H 0.93502 0.06462 0.52424 0.0
C288 C 0.85829 0.09182 0.71169 0.0
N289 N 0.86565 0.10804 0.68259 0.0
N290 N 0.88852 0.09176 0.66601 0.0
C291 C 0.89588 0.06425 0.68373 0.0
C292 C 0.87723 0.0635 0.71354 0.0
C293 C 0.83237 0.10233 0.73644 0.0
H294 H 0.84229 0.12536 0.75101 0.0
H295 H 0.809 0.10839 0.72213 0.0
H296 H 0.82615 0.08231 0.75484 0.0
O297 O 0.88276 0.18429 0.65637 0.0
O298 O 0.92346 0.15752 0.63185 0.0
H299 H 0.94676 0.04979 0.68064 0.0
H300 H 0.91661 0.01506 0.6851 0.0
C301 C 0.92096 0.03959 0.67281 0.0
H302 H 0.91961 0.03562 0.64448 0.0
H303 H 0.97352 0.09937 0.6528 0.0
O304 O 0.81301 0.16524 0.68979 0.0
C305 C 0.91226 0.18443 0.6443 0.0
Co306 Co 0.61936 0.07454 0.41652 0.0
Co307 Co 0.66533 0.11905 0.37181 0.0
C308 C 0.6897 0.0993 0.44159 0.0
O309 O 0.66133 0.08327 0.44534 0.0
O310 O 0.69613 0.11424 0.41372 0.0
C311 C 0.58365 0.05874 0.4767 0.0
O312 O 0.60562 0.08082 0.49179 0.0
C313 C 0.70853 0.17447 0.34332 0.0
C314 C 0.68809 0.17188 0.28976 0.0
C315 C 0.71101 0.18983 0.31182 0.0
N316 N 0.68469 0.14902 0.33992 0.0
N317 N 0.67289 0.14748 0.3078 0.0
C318 C 0.72907 0.18283 0.37563 0.0
H319 H 0.73453 0.15949 0.38896 0.0
H320 H 0.71446 0.19864 0.39309 0.0
H321 H 0.75336 0.1966 0.37008 0.0
C322 C 0.57533 0.13287 0.4113 0.0
N323 N 0.60302 0.11639 0.4031 0.0
N324 N 0.62315 0.13618 0.38533 0.0
C325 C 0.60895 0.16609 0.38195 0.0
C326 C 0.57816 0.16506 0.39844 0.0
C327 C 0.54647 0.1181 0.43098 0.0
H328 H 0.54124 0.09125 0.42318 0.0
H329 H 0.55324 0.11985 0.45884 0.0
H330 H 0.52322 0.13184 0.4265 0.0
O331 O 0.62576 0.0432 0.37669 0.0
O332 O 0.65749 0.0757 0.34393 0.0
H333 H 0.62705 0.19121 0.3378 0.0
H334 H 0.61233 0.21921 0.37083 0.0
C335 C 0.62593 0.19603 0.36595 0.0
H336 H 0.65217 0.19999 0.3765 0.0
H337 H 0.65388 0.1301 0.29837 0.0
O338 O 0.58557 0.05203 0.44478 0.0
C339 C 0.64145 0.04774 0.34901 0.0
Co340 Co 0.59654 0.90072 0.11116 0.0
Co341 Co 0.63659 0.85311 0.15643 0.0
C342 C 0.62453 0.9221 0.18307 0.0
O343 O 0.60886 0.92772 0.1549 0.0
O344 O 0.63683 0.89369 0.18804 0.0
C345 C 0.59123 0.96159 0.07683 0.0
O346 O 0.61851 0.96995 0.0959 0.0
C347 C 0.68531 0.81889 0.20066 0.0
C348 C 0.67791 0.76715 0.17821 0.0
C349 C 0.69625 0.78648 0.20319 0.0
N350 N 0.66195 0.81862 0.17489 0.0
N351 N 0.65753 0.7876 0.16181 0.0
C352 C 0.69494 0.84906 0.22352 0.0
H353 H 0.67211 0.86258 0.22972 0.0
H354 H 0.71239 0.86644 0.20978 0.0
H355 H 0.7073 0.84193 0.24793 0.0
C356 C 0.6524 0.88634 0.06256 0.0
N357 N 0.63608 0.88246 0.09239 0.0
N358 N 0.65402 0.86408 0.11271 0.0
C359 C 0.68266 0.85652 0.09689 0.0
C360 C 0.6825 0.87002 0.06441 0.0
C361 C 0.64062 0.90708 0.03369 0.0
H362 H 0.64768 0.93399 0.0399 0.0
H363 H 0.65263 0.89992 1.00931 0.0
H364 H 0.61271 0.90392 0.03035 0.0
O365 O 0.56034 0.86464 0.11923 0.0
O366 O 0.59032 0.8315 0.15113 0.0
H367 H 0.7336 0.83917 0.09798 0.0
H368 H 0.71581 0.84727 0.13958 0.0
C369 C 0.71018 0.83745 0.11294 0.0
H370 H 0.70147 0.81055 0.11403 0.0
H371 H 0.64065 0.78047 0.14147 0.0
O372 O 0.57737 0.93216 0.07869 0.0
C373 C 0.5626 0.83796 0.13618 0.0
Co374 Co 0.36098 0.65343 0.17075 0.0
Co375 Co 0.41034 0.60666 0.13593 0.0
C376 C 0.34589 0.62173 0.09898 0.0
O377 O 0.33742 0.63967 0.12487 0.0
O378 O 0.37394 0.60737 0.09919 0.0
C379 C 0.29922 0.68067 0.19552 0.0
O380 O 0.2834 0.66311 0.17018 0.0
C381 C 0.45872 0.57391 0.09265 0.0
C382 C 0.4965 0.56018 0.13194 0.0
C383 C 0.49035 0.56087 0.09682 0.0
N384 N 0.44659 0.57991 0.12399 0.0
N385 N 0.46946 0.57197 0.14729 0.0
C386 C 0.44312 0.58637 0.0603 0.0
H387 H 0.4292 0.60917 0.06605 0.0
H388 H 0.42484 0.56659 0.04904 0.0
H389 H 0.46258 0.59254 0.04118 0.0
C390 C 0.36561 0.60191 0.22561 0.0
N391 N 0.37378 0.61442 0.19482 0.0
N392 N 0.39184 0.59276 0.17833 0.0
C393 C 0.39411 0.56502 0.19725 0.0
C394 C 0.37829 0.57012 0.22828 0.0
C395 C 0.34439 0.61934 0.25101 0.0
H396 H 0.31859 0.62122 0.23962 0.0
H397 H 0.34257 0.6056 0.27531 0.0
H398 H 0.35528 0.64533 0.25643 0.0
O399 O 0.40031 0.68646 0.16405 0.0
O400 O 0.43491 0.65111 0.14129 0.0
H401 H 0.43513 0.53232 0.19923 0.0
H402 H 0.39457 0.51096 0.1921 0.0
C403 C 0.41027 0.53366 0.18563 0.0
H404 H 0.4135 0.53313 0.15747 0.0
H405 H 0.46775 0.57693 0.17363 0.0
O406 O 0.33094 0.67901 0.19987 0.0
C407 C 0.42892 0.68051 0.15201 0.0
Co408 Co 0.13155 0.58517 0.91871 0.0
Co409 Co 0.18458 0.61962 0.8751 0.0
C410 C 0.20042 0.60346 0.94936 0.0
O411 O 0.17026 0.59126 0.95257 0.0
O412 O 0.21007 0.61447 0.92054 0.0
C413 C 0.08853 0.53856 0.95087 0.0
O414 O 0.11313 0.51835 0.94587 0.0
C415 C 0.2317 0.67338 0.85347 0.0
C416 C 0.23757 0.65804 0.79897 0.0
C417 C 0.24742 0.68278 0.82362 0.0
N418 N 0.21328 0.64449 0.84651 0.0
N419 N 0.21715 0.63526 0.81406 0.0
C420 C 0.23564 0.68983 0.88857 0.0
H421 H 0.25199 0.67455 0.90474 0.0
H422 H 0.21073 0.69006 0.90089 0.0
H423 H 0.24756 0.71567 0.88794 0.0
C424 C 0.09402 0.64562 0.90323 0.0
N425 N 0.12136 0.62715 0.90053 0.0
N426 N 0.14368 0.64262 0.88131 0.0
C427 C 0.13076 0.67138 0.87041 0.0
C428 C 0.09895 0.67447 0.88441 0.0
C429 C 0.06286 0.63456 0.9217 0.0
H430 H 0.05292 0.6098 0.91069 0.0
H431 H 0.06947 0.63138 0.94925 0.0
H432 H 0.04273 0.65266 0.91947 0.0
O433 O 0.13745 0.54989 0.88207 0.0
O434 O 0.17378 0.57607 0.8486 0.0
H435 H 0.1603 0.68138 0.82615 0.0
H436 H 0.13095 0.71329 0.83616 0.0
C437 C 0.14848 0.69547 0.84721 0.0
H438 H 0.16874 0.71031 0.86211 0.0
H439 H 0.20528 0.61378 0.80201 0.0
O440 O 0.092 0.56896 0.94244 0.0
C441 C 0.15452 0.5505 0.85493 0.0
Co442 Co 0.08525 0.3997 0.62368 0.0
Co443 Co 0.13143 0.3538 0.66421 0.0
C444 C 0.11714 0.41987 0.69513 0.0
O445 O 0.09891 0.42499 0.66834 0.0
O446 O 0.13173 0.39234 0.69838 0.0
C447 C 0.04027 0.44907 0.60752 0.0
O448 O 0.03362 0.44534 0.6401 0.0
C449 C 0.17567 0.31256 0.70636 0.0
C450 C 0.17433 0.26687 0.67224 0.0
C451 C 0.1864 0.27998 0.70381 0.0
N452 N 0.15811 0.31832 0.67733 0.0
N453 N 0.15745 0.29095 0.65715 0.0
C454 C 0.17889 0.33648 0.73684 0.0
H455 H 0.15472 0.34872 0.74039 0.0
H456 H 0.19875 0.35647 0.7321 0.0
H457 H 0.18567 0.32349 0.76065 0.0
C458 C 0.14069 0.394 0.57277 0.0
N459 N 0.1256 0.3864 0.60249 0.0
N460 N 0.14602 0.36879 0.62104 0.0
C461 C 0.1749 0.3652 0.60414 0.0
C462 C 0.1724 0.38064 0.57282 0.0
C463 C 0.12595 0.41555 0.5461 0.0
H464 H 0.09953 0.40622 0.53959 0.0
H465 H 0.12517 0.44166 0.55679 0.0
H466 H 0.14113 0.41574 0.52255 0.0
O467 O 0.05201 0.35995 0.62957 0.0
O468 O 0.08696 0.32957 0.65882 0.0
H469 H 0.20156 0.32098 0.61275 0.0
H470 H 0.22862 0.35778 0.60619 0.0
C471 C 0.20499 0.34848 0.61827 0.0
H472 H 0.20745 0.35299 0.64651 0.0
H473 H 0.14462 0.28847 0.63334 0.0
O474 O 0.06242 0.43145 0.59399 0.0
C475 C 0.05813 0.33306 0.64485 0.0
Co476 Co 0.61463 0.63165 0.59962 0.0
Co477 Co 0.65199 0.68679 0.64382 0.0
C478 C 0.63731 0.62189 0.67517 0.0
O479 O 0.62451 0.61128 0.64599 0.0
O480 O 0.64893 0.65235 0.67962 0.0
C481 C 0.5588 0.58565 0.58827 0.0
O482 O 0.55394 0.59207 0.62102 0.0
C483 C 0.69868 0.73364 0.68109 0.0
C484 C 0.69963 0.77631 0.64586 0.0
C485 C 0.71615 0.76372 0.67398 0.0
N486 N 0.67357 0.72831 0.65757 0.0
N487 N 0.67395 0.754 0.63683 0.0
C488 C 0.70603 0.70945 0.70865 0.0
H489 H 0.68196 0.6983 0.71832 0.0
H490 H 0.72087 0.7221 0.73045 0.0
H491 H 0.72034 0.68869 0.69768 0.0
C492 C 0.56371 0.68523 0.59396 0.0
N493 N 0.59329 0.67326 0.60489 0.0
N494 N 0.6086 0.69548 0.62642 0.0
C495 C 0.58882 0.7215 0.63137 0.0
C496 C 0.55981 0.71646 0.61038 0.0
C497 C 0.54026 0.66748 0.56764 0.0
H498 H 0.55475 0.65241 0.54938 0.0
H499 H 0.52222 0.65017 0.58074 0.0
H500 H 0.52569 0.68574 0.55322 0.0
O501 O 0.65619 0.63608 0.57216 0.0
O502 O 0.68356 0.67252 0.60812 0.0
H503 H 0.60829 0.77083 0.64809 0.0
H504 H 0.57143 0.75579 0.67013 0.0
C505 C 0.5955 0.74827 0.65905 0.0
H506 H 0.61201 0.73912 0.67984 0.0
H507 H 0.65848 0.75498 0.61478 0.0
O508 O 0.58374 0.60008 0.57391 0.0
C509 C 0.68288 0.65373 0.58114 0.0
Co510 Co 0.35007 0.34339 0.37158 0.0
Co511 Co 0.38869 0.38892 0.42501 0.0
C512 C 0.37127 0.41744 0.35889 0.0
O513 O 0.35629 0.38878 0.35211 0.0
O514 O 0.38773 0.42291 0.38736 0.0
C515 C 0.35369 0.31831 0.30544 0.0
O516 O 0.38137 0.33814 0.30652 0.0
C517 C 0.42377 0.43714 0.47389 0.0
C518 C 0.4333 0.40432 0.51761 0.0
C519 C 0.43753 0.4371 0.50704 0.0
N520 N 0.41237 0.40563 0.46513 0.0
N521 N 0.41781 0.3862 0.49141 0.0
C522 C 0.4184 0.46681 0.45208 0.0
H523 H 0.39273 0.46432 0.43981 0.0
H524 H 0.43711 0.46736 0.43139 0.0
H525 H 0.42109 0.49081 0.46743 0.0
C526 C 0.40862 0.30094 0.38119 0.0
N527 N 0.39113 0.3281 0.38894 0.0
N528 N 0.4094 0.34854 0.41011 0.0
C529 C 0.43975 0.33527 0.4158 0.0
C530 C 0.44023 0.3046 0.39757 0.0
C531 C 0.39519 0.27143 0.35912 0.0
H532 H 0.36724 0.26848 0.3603 0.0
H533 H 0.4023 0.27537 0.33213 0.0
H534 H 0.40634 0.24798 0.36757 0.0
O535 O 0.31424 0.34325 0.40585 0.0
O536 O 0.34152 0.37994 0.44197 0.0
H537 H 0.4677 0.34495 0.46304 0.0
H538 H 0.49323 0.34549 0.42564 0.0
C539 C 0.46872 0.3527 0.43595 0.0
H540 H 0.46714 0.3804 0.43532 0.0
H541 H 0.41062 0.36057 0.49152 0.0
O542 O 0.33558 0.31576 0.33171 0.0
C543 C 0.31505 0.36158 0.43324 0.0
H544 H 0.27455 0.23417 0.19028 0.0
H545 H 0.21805 0.32362 0.1905 0.0
H546 H 0.26145 0.35309 0.22792 0.0
H547 H 0.30999 0.34998 0.26771 0.0
H548 H 0.36327 0.25889 0.27237 0.0
H549 H 0.32665 0.23303 0.22567 0.0
C550 C 0.2717 0.26001 0.19881 0.0
C551 C 0.2427 0.27642 0.18915 0.0
C552 C 0.29612 0.27628 0.22099 0.0
C553 C 0.24 0.31044 0.19845 0.0
C554 C 0.26469 0.32721 0.21979 0.0
C555 C 0.31403 0.32484 0.25759 0.0
C556 C 0.33888 0.3061 0.27271 0.0
C557 C 0.29209 0.30993 0.2322 0.0
C558 C 0.34421 0.27352 0.26038 0.0
C559 C 0.32317 0.25877 0.23409 0.0
H560 H 0.04568 0.07561 0.562 0.0
H561 H 0.95705 1.01072 0.53614 0.0
H562 H 0.98766 0.98218 0.49129 0.0
H563 H 0.03985 0.97447 0.46107 0.0
H564 H 0.12971 0.0373 0.48843 0.0
H565 H 0.09828 0.06801 0.53122 0.0
C566 C 0.03312 0.05528 0.54641 0.0
C567 C 0.99901 0.04574 0.55168 0.0
C568 C 0.05105 0.03866 0.52113 0.0
C569 C 0.98299 0.01919 0.5317 0.0
C570 C 1.00055 1.00268 0.50632 0.0
C571 C 0.0526 0.99503 0.47618 0.0
C572 C 0.08709 1.00358 0.47162 0.0
C573 C 0.03459 0.01216 0.50093 0.0
C574 C 0.10318 0.03021 0.4915 0.0
C575 C 0.08526 0.04772 0.51599 0.0
H576 H 0.30238 0.69028 0.78598 0.0
H577 H 0.22956 0.74638 0.84028 0.0
H578 H 0.24778 0.79734 0.81095 0.0
H579 H 0.27559 0.82214 0.7609 0.0
H580 H 0.34254 0.76306 0.70191 0.0
H581 H 0.33579 0.71713 0.74179 0.0
C582 C 0.29141 0.71402 0.79218 0.0
C583 C 0.26505 0.71481 0.81535 0.0
C584 C 0.30046 0.74247 0.77365 0.0
C585 C 0.2506 0.74543 0.82318 0.0
C586 C 0.26056 0.77442 0.80589 0.0
C587 C 0.28929 0.79949 0.75756 0.0
C588 C 0.30916 0.79542 0.7287 0.0
C589 C 0.28415 0.77273 0.77978 0.0
C590 C 0.32683 0.7662 0.72401 0.0
C591 C 0.32298 0.74005 0.74671 0.0
H592 H 0.5388 0.08626 1.00035 0.0
H593 H 0.46108 0.01208 0.96458 0.0
H594 H 0.49035 0.96823 0.99415 0.0
H595 H 0.53597 0.95206 0.03355 0.0
H596 H 0.61266 0.02724 0.07022 0.0
H597 H 0.58575 0.06969 0.03692 0.0
C598 C 0.52843 0.06041 0.9988 0.0
C599 C 0.49806 0.0523 0.9801 0.0
C600 C 0.54504 0.03563 0.01626 0.0
C601 C 0.48485 0.01878 0.97819 0.0
C602 C 0.50138 0.99381 0.9954 0.0
C603 C 0.54692 0.97768 0.03408 0.0
C604 C 0.57612 0.98652 0.05461 0.0
C605 C 0.53121 1.00208 0.01498 0.0
C606 C 0.59012 0.01976 0.05481 0.0
C607 C 0.57474 0.04409 0.03579 0.0
H608 H 0.23334 0.69614 0.18921 0.0
H609 H 0.32505 0.71983 0.24991 0.0
H610 H 0.29751 0.76383 0.28158 0.0
H611 H 0.2488 0.79847 0.28904 0.0
H612 H 0.15711 0.77471 0.22851 0.0
H613 H 0.18342 0.72822 0.19951 0.0
C614 C 0.24721 0.71067 0.2096 0.0
C615 C 0.28127 0.70486 0.21691 0.0
C616 C 0.23134 0.73619 0.22757 0.0
C617 C 0.29883 0.7239 0.24352 0.0
C618 C 0.28314 0.74915 0.26166 0.0
C619 C 0.23427 0.78261 0.2702 0.0
C620 C 0.20094 0.78986 0.26125 0.0
C621 C 0.24958 0.7559 0.25353 0.0
C622 C 0.18288 0.76971 0.23583 0.0
C623 C 0.19786 0.74305 0.21927 0.0
H624 H 0.45078 0.98991 0.53318 0.0
H625 H 0.49166 0.03624 0.62833 0.0
H626 H 0.54045 0.05997 0.59822 0.0
H627 H 0.57169 0.06667 0.54487 0.0
H628 H 0.53066 0.0186 0.45047 0.0
H629 H 0.48174 0.9962 0.48052 0.0
C630 C 0.47019 1.00544 0.54734 0.0
C631 C 0.46758 1.01148 0.58284 0.0
C632 C 0.49825 0.01842 0.53009 0.0
C633 C 0.49313 0.0313 0.60091 0.0
C634 C 0.52103 0.04479 0.58375 0.0
C635 C 0.55207 0.05123 0.53092 0.0
C636 C 0.55485 0.04429 0.49554 0.0
C637 C 0.52393 0.03832 0.54836 0.0
C638 C 0.52924 0.02424 0.47777 0.0
C639 C 0.50116 1.01149 0.49487 0.0
H640 H 0.26327 0.1771 0.79099 0.0
H641 H 0.33013 0.26536 0.81185 0.0
H642 H 0.29199 0.29944 0.77944 0.0
H643 H 0.24172 0.30325 0.74173 0.0
H644 H 0.17567 0.21479 0.71997 0.0
H645 H 0.21149 0.1816 0.75621 0.0
C646 C 0.26941 0.20382 0.78862 0.0
C647 C 0.29958 0.21859 0.80349 0.0
C648 C 0.24757 0.2232 0.76977 0.0
C649 C 0.3071 0.25331 0.80042 0.0
C650 C 0.28534 0.27284 0.78191 0.0
C651 C 0.2348 0.27693 0.74568 0.0
C652 C 0.20607 0.26146 0.72868 0.0
C653 C 0.25575 0.25795 0.76607 0.0
C654 C 0.19778 0.22711 0.73298 0.0
C655 C 0.21821 0.20816 0.75361 0.0
H656 H 0.04315 0.0683 0.02497 0.0
H657 H 1.00113 0.05272 0.12481 0.0
H658 H 0.96125 1.00876 0.0998 0.0
H659 H 0.94147 0.9723 0.05007 0.0
H660 H 0.98734 0.98633 0.95189 0.0
H661 H 0.02265 0.03382 0.97582 0.0
C662 C 0.02518 0.05548 0.04134 0.0
C663 C 0.02526 0.06335 0.07668 0.0
C664 C 1.00308 0.03009 0.02706 0.0
C665 C 1.0016 0.04683 0.09748 0.0
C666 C 0.97892 0.02171 0.08325 0.0
C667 C 0.95903 0.98608 0.034 0.0
C668 C 0.96132 0.97664 0.9992 0.0
C669 C 0.97994 0.01273 0.04818 0.0
C670 C 0.98432 0.99409 0.97847 0.0
C671 C 1.00478 0.02093 0.9922 0.0
H672 H 0.83439 0.24129 0.75595 0.0
H673 H 0.75378 0.17441 0.71191 0.0
H674 H 0.71184 0.21048 0.73569 0.0
H675 H 0.6982 0.26277 0.76558 0.0
H676 H 0.77854 0.33111 0.80721 0.0
H677 H 0.82061 0.29253 0.78801 0.0
C678 C 0.80765 0.23436 0.75194 0.0
C679 C 0.79718 0.20535 0.73204 0.0
C680 C 0.7837 0.25552 0.76512 0.0
C681 C 0.76246 0.19676 0.72696 0.0
C682 C 0.73847 0.21737 0.74048 0.0
C683 C 0.72494 0.26906 0.7706 0.0
C684 C 0.73535 0.29939 0.78814 0.0
C685 C 0.74884 0.24712 0.75898 0.0
C686 C 0.76997 0.30745 0.79448 0.0
C687 C 0.794 0.28556 0.78325 0.0
H688 H 0.08263 0.49011 0.99743 0.0
H689 H 0.02602 0.56213 0.94289 0.0
H690 H 0.97649 0.54859 0.97686 0.0
H691 H 0.95146 0.52062 0.02631 0.0
H692 H 1.01007 0.45282 0.08418 0.0
H693 H 0.05663 0.4599 0.04459 0.0
C694 C 0.05923 0.50234 0.99267 0.0
C695 C 0.05783 0.52717 0.96813 0.0
C696 C 0.03139 0.49536 0.01309 0.0
C697 C 0.0276 0.54316 0.96212 0.0
C698 C 0.99933 0.53545 0.98146 0.0
C699 C 0.97434 0.5072 0.02973 0.0
C700 C 0.97792 0.48659 0.05781 0.0
C701 C 1.00127 0.51232 1.00767 0.0
C702 C 1.00737 0.46915 0.06262 0.0
C703 C 0.03383 0.47314 0.04009 0.0
H704 H 0.82142 0.7467 0.29344 0.0
H705 H 0.75988 0.6537 0.29598 0.0
H706 H 0.71531 0.67834 0.26233 0.0
H707 H 0.69436 0.72565 0.23115 0.0
H708 H 0.75682 0.81761 0.2257 0.0
H709 H 0.80031 0.79423 0.2621 0.0
C710 C 0.79821 0.73187 0.28672 0.0
C711 C 0.794 0.69841 0.29709 0.0
C712 C 0.77277 0.74608 0.26714 0.0
C713 C 0.76383 0.67947 0.28815 0.0
C714 C 0.73829 0.69353 0.26897 0.0
C715 C 0.71744 0.74062 0.23811 0.0
C716 C 0.72203 0.77357 0.22658 0.0
C717 C 0.7426 0.72671 0.25819 0.0
C718 C 0.75214 0.79263 0.23539 0.0
C719 C 0.7772 0.7791 0.2558 0.0
H720 H 0.96399 0.56879 0.54516 0.0
H721 H 1.00005 0.5262 0.45086 0.0
H722 H 0.02525 0.4813 0.48273 0.0
H723 H 0.03927 0.4559 0.53799 0.0
H724 H 1.00223 0.49877 0.63197 0.0
H725 H 0.97528 0.54189 0.59965 0.0
C726 C 0.97716 0.54949 0.5316 0.0
C727 C 0.97995 0.55054 0.49578 0.0
C728 C 0.99162 0.52401 0.55006 0.0
C729 C 0.997 0.52547 0.47839 0.0
C730 C 0.01168 0.50002 0.49664 0.0
C731 C 0.02522 0.47463 0.55136 0.0
C732 C 0.02297 0.47425 0.58738 0.0
C733 C 1.00948 0.49928 0.53256 0.0
C734 C 1.0044 0.49849 0.60429 0.0
C735 C 0.98899 0.52321 0.58585 0.0
H736 H 0.61283 0.52368 1.00654 0.0
H737 H 0.53089 0.48828 0.93668 0.0
H738 H 0.48989 0.50975 0.97606 0.0
H739 H 0.47714 0.53325 0.03274 0.0
H740 H 0.55883 0.56875 0.10268 0.0
H741 H 0.60012 0.55184 0.06111 0.0
C742 C 0.58605 0.52118 0.99966 0.0
C743 C 0.57492 0.5041 0.96896 0.0
C744 C 0.56253 0.53306 0.02266 0.0
C745 C 0.54012 0.50107 0.96037 0.0
C746 C 0.51661 0.51323 0.9829 0.0
C747 C 0.50393 0.53817 0.0385 0.0
C748 C 0.5149 0.55257 0.07052 0.0
C749 C 0.5275 0.52848 0.01449 0.0
C750 C 0.54977 0.5576 0.07815 0.0
C751 C 0.57339 0.54808 0.05438 0.0
H752 H 0.77008 0.72896 0.69302 0.0
H753 H 0.73603 0.8295 0.68521 0.0
H754 H 0.78766 0.85233 0.71554 0.0
H755 H 0.83584 0.8423 0.75365 0.0
H756 H 0.86349 0.74104 0.77079 0.0
H757 H 0.82102 0.7193 0.72732 0.0
C758 C 0.77364 0.75578 0.69856 0.0
C759 C 0.74863 0.77746 0.68885 0.0
C760 C 0.80233 0.76835 0.71739 0.0
C761 C 0.75468 0.81237 0.69356 0.0
C762 C 0.78409 0.82536 0.7108 0.0
C763 C 0.83332 0.81565 0.74671 0.0
C764 C 0.85255 0.79311 0.76456 0.0
C765 C 0.80725 0.80343 0.72411 0.0
C766 C 0.84895 0.75856 0.75661 0.0
C767 C 0.82449 0.74625 0.73223 0.0
H768 H 0.7375 0.2013 0.25041 0.0
H769 H 0.72776 0.24735 0.35115 0.0
H770 H 0.75674 0.29912 0.33247 0.0
H771 H 0.78178 0.3324 0.28628 0.0
H772 H 0.78781 0.28671 0.18467 0.0
H773 H 0.76284 0.23391 0.20482 0.0
C774 C 0.74199 0.22259 0.26837 0.0
C775 C 0.73126 0.2202 0.3023 0.0
C776 C 0.75754 0.25253 0.25714 0.0
C777 C 0.73693 0.24803 0.32525 0.0
C778 C 0.75302 0.27786 0.31442 0.0
C779 C 0.77771 0.31085 0.26861 0.0
C780 C 0.78643 0.31357 0.23401 0.0
C781 C 0.76304 0.28052 0.28028 0.0
C782 C 0.78103 0.28542 0.21138 0.0
C783 C 0.76687 0.25515 0.22287 0.0
H784 H 0.48174 0.48404 0.48318 0.0
H785 H 0.43444 0.45102 0.57562 0.0
H786 H 0.46684 0.49552 0.60928 0.0
H787 H 0.51004 0.54248 0.61224 0.0
H788 H 0.5572 0.57453 0.51907 0.0
H789 H 0.52262 0.53214 0.4856 0.0
C790 C 0.47784 0.48718 0.51052 0.0
C791 C 0.45531 0.46499 0.5269 0.0
C792 C 0.49654 0.51251 0.5295 0.0
C793 C 0.45157 0.46819 0.56257 0.0
C794 C 0.47001 0.49356 0.58174 0.0
C795 C 0.51251 0.54035 0.58459 0.0
C796 C 0.53624 0.56139 0.56819 0.0
C797 C 0.49278 0.51569 0.56547 0.0
C798 C 0.53927 0.55838 0.53235 0.0
C799 C 0.51953 0.53419 0.51315 0.0
H800 H 0.15505 0.11417 0.23264 0.0
H801 H 0.13265 0.04391 0.14719 0.0
H802 H 0.13053 0.99726 0.18604 0.0
H803 H 0.13229 0.97602 0.24441 0.0
H804 H 0.15391 0.04504 0.33065 0.0
H805 H 0.15863 0.09224 0.29174 0.0
C806 C 0.15008 0.08862 0.22254 0.0
C807 C 0.14397 0.08278 0.1869 0.0
C808 C 0.14832 0.06155 0.24527 0.0
C809 C 0.13728 0.0494 0.1744 0.0
C810 C 0.13603 0.02255 0.19664 0.0
C811 C 0.13843 1.00134 0.25466 0.0
C812 C 0.14258 1.00697 0.2904 0.0
C813 C 0.14108 0.0283 0.23213 0.0
C814 C 0.15007 0.04004 0.30328 0.0
C815 C 0.15298 0.06704 0.28098 0.0
H816 H 0.17834 0.91182 0.48967 0.0
H817 H 0.25064 0.89766 0.41044 0.0
H818 H 0.29716 0.90642 0.45316 0.0
H819 H 0.31751 0.91902 0.51326 0.0
H820 H 0.24489 0.92804 0.59291 0.0
H821 H 0.19842 0.92077 0.54996 0.0
C822 C 0.20428 0.91047 0.48173 0.0
C823 C 0.2109 0.90421 0.44675 0.0
C824 C 0.23091 0.91499 0.50657 0.0
C825 C 0.24471 0.90224 0.43711 0.0
C826 C 0.27137 0.90748 0.46154 0.0
C827 C 0.29148 0.91967 0.52109 0.0
C828 C 0.28463 0.92469 0.55617 0.0
C829 C 0.26482 0.91415 0.49632 0.0
C830 C 0.2508 0.92455 0.56608 0.0
C831 C 0.22423 0.92028 0.54152 0.0
H832 H 0.37776 0.03539 0.68334 0.0
H833 H 0.35818 0.95189 0.74939 0.0
H834 H 0.37003 0.98888 0.80007 0.0
H835 H 0.38624 0.04536 0.82613 0.0
H836 H 0.40152 0.12936 0.75991 0.0
H837 H 0.39149 0.09197 0.70922 0.0
C838 C 0.37591 0.02528 0.70881 0.0
C839 C 0.36702 0.99077 0.71233 0.0
C840 C 0.38233 0.04686 0.73803 0.0
C841 C 0.36468 0.9783 0.7457 0.0
C842 C 0.37167 0.99945 0.77481 0.0
C843 C 0.38764 0.05536 0.80057 0.0
C844 C 0.395 0.09011 0.79687 0.0
C845 C 0.38068 0.03379 0.77136 0.0
C846 C 0.39603 0.10275 0.76355 0.0
C847 C 0.39022 0.08137 0.73449 0.0
H848 H 0.26899 0.14505 0.93681 0.0
H849 H 0.34608 0.16653 0.01595 0.0
H850 H 0.30281 0.16703 0.05975 0.0
H851 H 0.24277 0.16192 0.07543 0.0
H852 H 0.16598 0.13759 0.99631 0.0
H853 H 0.20918 0.13777 0.95274 0.0
C854 C 0.2762 0.14988 0.96367 0.0
C855 C 0.3106 0.15592 0.9732 0.0
C856 C 0.25119 0.14969 0.98871 0.0
C857 C 0.31975 0.1617 1.00808 0.0
C858 C 0.295 0.16211 0.03307 0.0
C859 C 0.23548 0.15672 0.04865 0.0
C860 C 0.20106 0.14994 0.03922 0.0
C861 C 0.2606 0.15625 0.02369 0.0
C862 C 0.1922 0.14285 1.00439 0.0
C863 C 0.21692 0.14299 0.97939 0.0
H864 H 0.05821 0.27794 0.13483 0.0
H865 H 0.99048 0.18923 0.12403 0.0
H866 H 0.94193 0.22384 0.12934 0.0
H867 H 0.91841 0.28003 0.13562 0.0
H868 H 0.98685 0.36719 0.15481 0.0
H869 H 0.03526 0.33248 0.14869 0.0
C870 C 0.03295 0.26596 0.13439 0.0
C871 C 0.02827 0.23093 0.12833 0.0
C872 C 1.00509 0.28587 0.13907 0.0
C873 C 0.99506 0.21618 0.12733 0.0
C874 C 0.96716 0.23597 0.13086 0.0
C875 C 0.94391 0.29127 0.1391 0.0
C876 C 0.94897 0.3263 0.14494 0.0
C877 C 0.97182 0.27093 0.13648 0.0
C878 C 0.98223 0.34044 0.14939 0.0
C879 C 1.00997 0.32059 0.14603 0.0
H880 H 0.59141 0.29279 0.87904 0.0
H881 H 0.52125 0.3715 0.88705 0.0
H882 H 0.47375 0.32962 0.88445 0.0
H883 H 0.45175 0.27075 0.87969 0.0
H884 H 0.5212 0.19129 0.87618 0.0
H885 H 0.56917 0.23313 0.87729 0.0
C886 C 0.56571 0.30072 0.88022 0.0
C887 C 0.55997 0.33533 0.8831 0.0
C888 C 0.53832 0.27632 0.87949 0.0
C889 C 0.52649 0.34511 0.88498 0.0
C890 C 0.49924 0.32115 0.88338 0.0
C891 C 0.47738 0.26256 0.87905 0.0
C892 C 0.48283 0.2279 0.8775 0.0
C893 C 0.50481 0.28672 0.88058 0.0
C894 C 0.51627 0.21778 0.87732 0.0
C895 C 0.54371 0.24172 0.87791 0.0
H896 H 0.94749 0.76889 0.37791 0.0
H897 H 0.01721 0.68964 0.37683 0.0
H898 H 0.06505 0.73152 0.37628 0.0
H899 H 0.08718 0.79117 0.3761 0.0
H900 H 0.01701 0.86992 0.38248 0.0
H901 H 0.9695 0.82798 0.38099 0.0
C902 C 0.97316 0.76077 0.37744 0.0
C903 C 0.97872 0.72613 0.37706 0.0
C904 C 1.00057 0.78503 0.37814 0.0
C905 C 0.0122 0.71611 0.3771 0.0
C906 C 0.03957 0.74008 0.37673 0.0
C907 C 0.06147 0.79908 0.37713 0.0
C908 C 0.05572 0.83372 0.37922 0.0
C909 C 0.03411 0.77467 0.37723 0.0
C910 C 0.02224 0.84351 0.38098 0.0
C911 C 0.99499 0.81951 0.38004 0.0
H912 H 0.56413 0.78475 0.60825 0.0
H913 H 0.49139 0.69981 0.60607 0.0
H914 H 0.44512 0.73794 0.60441 0.0
H915 H 0.42531 0.79577 0.60656 0.0
H916 H 0.4987 0.88007 0.61717 0.0
H917 H 0.54463 0.84202 0.61269 0.0
C918 C 0.53819 0.7745 0.60788 0.0
C919 C 0.53139 0.73936 0.60741 0.0
C920 C 0.51175 0.7966 0.60848 0.0
C921 C 0.4975 0.72665 0.60587 0.0
C922 C 0.47098 0.7485 0.6053 0.0
C923 C 0.45137 0.80578 0.60822 0.0
C924 C 0.45846 0.84084 0.61213 0.0
C925 C 0.4778 0.78355 0.60707 0.0
C926 C 0.49239 0.85335 0.61355 0.0
C927 C 0.51873 0.83154 0.61131 0.0
H928 H 0.86212 0.99582 0.70896 0.0
H929 H 0.89399 0.07627 0.78118 0.0
H930 H 0.89696 0.03606 0.82754 0.0
H931 H 0.89109 0.97752 0.84743 0.0
H932 H 0.85818 0.8975 0.77464 0.0
H933 H 0.8553 0.93769 0.72892 0.0
C934 C 0.86993 1.00443 0.73483 0.0
C935 C 0.87823 0.03887 0.7416 0.0
C936 C 0.87143 0.98114 0.76134 0.0
C937 C 0.88759 0.04984 0.77536 0.0
C938 C 0.88935 0.02683 0.80184 0.0
C939 C 0.88331 0.96885 0.82158 0.0
C940 C 0.87489 0.93429 0.81473 0.0
C941 C 0.88145 0.99232 0.79515 0.0
C942 C 0.86471 0.92378 0.78094 0.0
C943 C 0.86309 0.94682 0.75462 0.0
H944 H 0.76851 0.11399 0.58538 0.0
H945 H 0.8551 0.11382 0.52076 0.0
H946 H 0.81767 0.10895 0.4694 0.0
H947 H 0.75958 0.10519 0.4426 0.0
H948 H 0.67388 0.10117 0.50867 0.0
H949 H 0.71145 0.10732 0.55927 0.0
C950 C 0.77924 0.11289 0.56007 0.0
C951 C 0.81461 0.11449 0.55703 0.0
C952 C 0.75758 0.10937 0.5307 0.0
C953 C 0.82799 0.11255 0.52395 0.0
C954 C 0.80655 0.10989 0.49451 0.0
C955 C 0.74924 0.10567 0.46809 0.0
C956 C 0.71387 0.10273 0.4717 0.0
C957 C 0.77121 0.10837 0.49751 0.0
C958 C 0.70092 0.10311 0.505 0.0
C959 C 0.72242 0.10674 0.53408 0.0
H960 H 0.64081 0.05393 0.27942 0.0
H961 H 0.63824 0.97996 0.358 0.0
H962 H 0.63448 0.93459 0.3139 0.0
H963 H 0.63064 0.91574 0.25271 0.0
H964 H 0.62775 0.98989 0.17439 0.0
H965 H 0.63484 0.03513 0.21838 0.0
C966 C 0.63967 0.02786 0.28685 0.0
C967 C 0.64011 0.02037 0.32199 0.0
C968 C 0.63635 1.00185 0.26129 0.0
C969 C 0.63798 0.98644 0.33117 0.0
C970 C 0.63583 0.96046 0.30593 0.0
C971 C 0.63168 0.94181 0.2453 0.0
C972 C 0.62881 0.94935 0.21023 0.0
C973 C 0.6348 0.96782 0.27088 0.0
C974 C 0.62978 0.98331 0.20114 0.0
C975 C 0.63392 1.00924 0.22631 0.0
H976 H 0.6858 0.83754 1.00181 0.0
H977 H 0.74251 0.90541 0.07317 0.0
H978 H 0.79082 0.90667 0.03524 0.0
H979 H 0.81726 0.88782 0.98255 0.0
H980 H 0.76179 0.81873 0.91102 0.0
H981 H 0.71284 0.81842 0.94816 0.0
C982 C 0.70874 0.8527 1.00877 0.0
C983 C 0.71073 0.87148 0.0401 0.0
C984 C 0.73665 0.8529 0.98693 0.0
C985 C 0.74053 0.89086 0.04913 0.0
C986 C 0.76811 0.89151 0.02749 0.0
C987 C 0.79451 0.87265 0.97491 0.0
C988 C 0.7934 0.8533 0.94385 0.0
C989 C 0.76655 0.8725 0.99644 0.0
C990 C 0.76355 0.8338 0.93471 0.0
C991 C 0.73547 0.83367 0.95596 0.0
H992 H 0.07308 0.71376 0.93417 0.0
H993 H 0.06972 0.69438 0.82465 0.0
H994 H 0.02546 0.73451 0.81779 0.0
H995 H 0.98565 0.77316 0.84346 0.0
H996 H 0.98842 0.79156 0.95322 0.0
H997 H 0.03495 0.75414 0.95956 0.0
C998 C 0.06283 0.71868 0.9088 0.0
C999 C 0.07473 0.70135 0.87991 0.0
C1000 C 0.03712 0.74148 0.90518 0.0
C1001 C 0.06127 0.70777 0.84718 0.0
C1002 C 0.03578 0.73051 0.84332 0.0
C1003 C 0.99645 0.76891 0.86875 0.0
C1004 C 0.98349 0.78505 0.89787 0.0
C1005 C 0.02316 0.74717 0.87218 0.0
C1006 C 0.9981 0.77971 0.9304 0.0
C1007 C 0.0246 0.75815 0.93405 0.0
H1008 H 0.42467 0.7483 0.1417 0.0
H1009 H 0.49575 0.67228 0.16066 0.0
H1010 H 0.54279 0.71422 0.1583 0.0
H1011 H 0.56419 0.7719 0.14989 0.0
H1012 H 0.49479 0.84826 0.12679 0.0
H1013 H 0.44683 0.80694 0.13146 0.0
C1014 C 0.45047 0.74109 0.14553 0.0
C1015 C 0.45666 0.70721 0.15153 0.0
C1016 C 0.47775 0.76535 0.14317 0.0
C1017 C 0.49025 0.69812 0.15593 0.0
C1018 C 0.51722 0.7221 0.1546 0.0
C1019 C 0.53857 0.77964 0.14598 0.0
C1020 C 0.53314 0.81323 0.13822 0.0
C1021 C 0.51131 0.7557 0.14806 0.0
C1022 C 0.49974 0.82257 0.13275 0.0
C1023 C 0.47229 0.79895 0.13552 0.0
H1024 H 0.98032 0.19026 0.63899 0.0
H1025 H 0.89367 0.24989 0.65096 0.0
H1026 H 0.93043 0.30163 0.65054 0.0
H1027 H 0.98814 0.3301 0.64713 0.0
H1028 H 0.07392 0.26844 0.63897 0.0
H1029 H 0.0367 0.21773 0.63731 0.0
C1030 C 0.96936 0.21455 0.64142 0.0
C1031 C 0.93423 0.21609 0.64479 0.0
C1032 C 0.99063 0.24404 0.64179 0.0
C1033 C 0.92064 0.24789 0.64836 0.0
C1034 C 0.94167 0.27753 0.64803 0.0
C1035 C 0.99851 0.30554 0.64485 0.0
C1036 C 0.03381 0.30316 0.64319 0.0
C1037 C 0.97682 0.27598 0.64477 0.0
C1038 C 0.04691 0.27109 0.64056 0.0
C1039 C 0.02564 0.24196 0.63954 0.0
H1040 H 0.47629 0.27326 0.44679 0.0
H1041 H 0.46743 0.28551 0.33743 0.0
H1042 H 0.51035 0.2447 0.32787 0.0
H1043 H 0.54846 0.20303 0.35039 0.0
H1044 H 0.5559 0.18897 0.45952 0.0
H1045 H 0.51578 0.23258 0.46949 0.0
C1046 C 0.48416 0.26722 0.42097 0.0
C1047 C 0.46872 0.28227 0.39284 0.0
C1048 C 0.50845 0.24311 0.41562 0.0
C1049 C 0.47883 0.27404 0.35945 0.0
C1050 C 0.50337 0.2507 0.35397 0.0
C1051 C 0.54147 0.20981 0.37633 0.0
C1052 C 0.55501 0.19278 0.40417 0.0
C1053 C 0.51803 0.23467 0.3818 0.0
C1054 C 0.54557 0.20156 0.43765 0.0
C1055 C 0.5227 0.22657 0.44337 0.0
H1056 H 0.65119 0.54157 0.81322 0.0
H1057 H 0.62056 0.45824 0.74388 0.0
H1058 H 0.61737 0.49642 0.69601 0.0
H1059 H 0.62314 0.55362 0.67365 0.0
H1060 H 0.65503 0.63708 0.74272 0.0
H1061 H 0.65762 0.599 0.79059 0.0
C1062 C 0.64368 0.53189 0.78763 0.0
C1063 C 0.63611 0.49709 0.78213 0.0
C1064 C 0.64207 0.55408 0.76008 0.0
C1065 C 0.62678 0.48484 0.74875 0.0
C1066 C 0.62482 0.50671 0.72138 0.0
C1067 C 0.63062 0.56357 0.69916 0.0
C1068 C 0.63878 0.59837 0.70435 0.0
C1069 C 0.6324 0.54141 0.72668 0.0
C1070 C 0.64859 0.61053 0.73773 0.0
C1071 C 0.65008 0.58872 0.76524 0.0
H1072 H 0.67426 0.41214 1.00018 0.0
H1073 H 0.75055 0.40706 0.92361 0.0
H1074 H 0.79495 0.41051 0.96874 0.0
H1075 H 0.81242 0.41485 0.03019 0.0
H1076 H 0.7362 0.41406 0.10705 0.0
H1077 H 0.69168 0.41308 0.06192 0.0
C1078 C 0.70062 0.41183 0.99341 0.0
C1079 C 0.70901 0.40959 0.95844 0.0
C1080 C 0.72611 0.41281 0.01966 0.0
C1081 C 0.7433 0.40871 0.95021 0.0
C1082 C 0.76876 0.41078 0.97605 0.0
C1083 C 0.78605 0.41461 0.03704 0.0
C1084 C 0.77769 0.41492 0.07202 0.0
C1085 C 0.76052 0.41287 1.01088 0.0
C1086 C 0.74335 0.41392 0.0804 0.0
C1087 C 0.71788 0.41338 0.05456 0.0
H1088 H 0.87237 0.5194 0.19683 0.0
H1089 H 0.84124 0.44424 0.2688 0.0
H1090 H 0.85614 0.48411 0.31681 0.0
H1091 H 0.87853 0.54078 0.33848 0.0
H1092 H 0.90629 0.61604 0.26548 0.0
H1093 H 0.89288 0.57558 0.21792 0.0
C1094 C 0.8686 0.51168 0.22299 0.0
C1095 C 0.85561 0.47875 0.22905 0.0
C1096 C 0.87717 0.53471 0.25041 0.0
C1097 C 0.85089 0.46943 0.26324 0.0
C1098 C 0.85968 0.49218 0.29077 0.0
C1099 C 0.88207 0.54805 0.31214 0.0
C1100 C 0.89391 0.58123 0.3055 0.0
C1101 C 0.87311 0.52486 0.2847 0.0
C1102 C 0.89753 0.59061 0.27124 0.0
C1103 C 0.88968 0.56753 0.24403 0.0
H1104 H 0.68756 0.63459 0.51335 0.0
H1105 H 0.74769 0.67207 0.60204 0.0
H1106 H 0.79851 0.67374 0.56803 0.0
H1107 H 0.82597 0.66654 0.51236 0.0
H1108 H 0.76561 0.63225 0.42299 0.0
H1109 H 0.71506 0.62729 0.4577 0.0
C1110 C 0.71182 0.64287 0.52527 0.0
C1111 C 0.71371 0.65314 0.56023 0.0
C1112 C 0.74101 0.64449 0.50532 0.0
C1113 C 0.74538 0.66414 0.57516 0.0
C1114 C 0.77455 0.66509 0.55573 0.0
C1115 C 0.80173 0.65776 0.50069 0.0
C1116 C 0.79938 0.64976 0.46529 0.0
C1117 C 0.77266 0.65562 0.52072 0.0
C1118 C 0.76788 0.63871 0.45023 0.0
C1119 C 0.73902 0.63583 0.47007 0.0
H1120 H 0.34882 0.50694 0.22926 0.0
H1121 H 0.40489 0.58185 0.29334 0.0
H1122 H 0.4077 0.54195 0.34014 0.0
H1123 H 0.39622 0.48419 0.36187 0.0
H1124 H 0.34096 0.40989 0.29543 0.0
H1125 H 0.3365 0.4506 0.25083 0.0
C1126 C 0.36179 0.51444 0.25344 0.0
C1127 C 0.37696 0.5471 0.25773 0.0
C1128 C 0.36374 0.49123 0.27988 0.0
C1129 C 0.39296 0.55679 0.28948 0.0
C1130 C 0.39475 0.53389 0.31614 0.0
C1131 C 0.3832 0.47695 0.33766 0.0
C1132 C 0.36909 0.44372 0.33235 0.0
C1133 C 0.3806 0.50077 0.31153 0.0
C1134 C 0.35218 0.43505 0.30065 0.0
C1135 C 0.34952 0.45841 0.27488 0.0
H1136 H 0.27003 0.60484 0.95262 0.0
H1137 H 0.18292 0.60973 0.01623 0.0
H1138 H 0.21968 0.61706 0.0676 0.0
H1139 H 0.27679 0.62222 0.09504 0.0
H1140 H 0.36388 0.61234 0.03232 0.0
H1141 H 0.32726 0.60686 0.98052 0.0
C1142 C 0.25913 0.60746 0.97774 0.0
C1143 C 0.22364 0.60679 0.98038 0.0
C1144 C 0.28053 0.61083 1.00754 0.0
C1145 C 0.21004 0.60994 0.01328 0.0
C1146 C 0.2311 0.61427 0.04278 0.0
C1147 C 0.28775 0.61893 0.07003 0.0
C1148 C 0.32313 0.61795 0.06767 0.0
C1149 C 0.2664 0.61479 0.0403 0.0
C1150 C 0.33678 0.61316 0.035 0.0
C1151 C 0.31582 0.61007 1.00528 0.0
H1152 H 0.14596 0.5541 0.7858 0.0
H1153 H 0.15117 0.48316 0.86683 0.0
H1154 H 0.14125 0.43621 0.82472 0.0
H1155 H 0.13016 0.41531 0.76446 0.0
H1156 H 0.11862 0.48713 0.68486 0.0
H1157 H 0.13162 0.5335 0.72652 0.0
C1158 C 0.14522 0.52832 0.79413 0.0
C1159 C 0.14987 0.52205 0.82928 0.0
C1160 C 0.13803 0.50156 0.76996 0.0
C1161 C 0.14795 0.48858 0.83987 0.0
C1162 C 0.1422 0.46176 0.81579 0.0
C1163 C 0.13043 0.44112 0.75631 0.0
C1164 C 0.12349 0.44765 0.72149 0.0
C1165 C 0.13702 0.4679 0.78072 0.0
C1166 C 0.12364 0.48131 0.71146 0.0
C1167 C 0.13125 0.5079 0.73527 0.0
H1168 H 0.30542 0.40251 0.48931 0.0
H1169 H 0.25614 0.32194 0.42626 0.0
H1170 H 0.20668 0.32234 0.46234 0.0
H1171 H 0.178 0.34417 0.51346 0.0
H1172 H 0.22754 0.42413 0.57647 0.0
H1173 H 0.27606 0.42571 0.53869 0.0
C1174 C 0.28389 0.38501 0.48337 0.0
C1175 C 0.28477 0.36206 0.45511 0.0
C1176 C 0.2554 0.38544 0.50418 0.0
C1177 C 0.25638 0.33981 0.44783 0.0
C1178 C 0.22798 0.34003 0.46846 0.0
C1179 C 0.19926 0.36225 0.51841 0.0
C1180 C 0.19928 0.38426 0.54733 0.0
C1181 C 0.22725 0.3626 0.49682 0.0
C1182 C 0.22701 0.40727 0.55404 0.0
C1183 C 0.25478 0.40799 0.5326 0.0
loop_
_geom_bond_atom_site_label_1
_geom_bond_atom_site_label_2
_geom_bond_distance
_geom_bond_site_symmetry_2
_ccdc_geom_bond_type
Co0 O3 1.970 . S
Co0 N17 1.989 . S
Co0 O25 1.967 . S
Co0 O32 1.920 . S
Co1 O4 1.966 . S
Co1 N10 2.022 . S
Co1 N18 1.993 . S
Co1 O26 1.941 . S
C2 O3 1.258 . S
C2 O4 1.263 . S
O3 Co0 1.970 . S
O3 C2 1.258 . S
O4 Co1 1.966 . S
O4 C2 1.263 . S
C5 O6 1.235 . S
C5 O32 1.289 . S
O6 C5 1.235 . S
C7 C9 1.400 . S
C7 N10 1.351 . S
C7 C12 1.501 . S
C8 C9 1.387 . S
C8 N11 1.341 . S
C9 C7 1.400 . S
C9 C8 1.387 . S
N10 Co1 2.022 . S
N10 C7 1.351 . S
N10 N11 1.365 . S
N11 C8 1.341 . S
N11 N10 1.365 . S
N11 H31 0.862 . S
C12 C7 1.501 . S
C12 H13 0.961 . S
C12 H14 0.961 . S
C12 H15 0.960 . S
H13 C12 0.961 . S
H14 C12 0.961 . S
H15 C12 0.960 . S
C16 N17 1.342 . S
C16 C20 1.401 . S
C16 C21 1.499 . S
N17 Co0 1.989 . S
N17 C16 1.342 . S
N17 N18 1.388 . S
N18 Co1 1.993 . S
N18 N17 1.388 . S
N18 C19 1.346 . S
C19 N18 1.346 . S
C19 C20 1.396 . S
C19 C29 1.510 . S
C20 C16 1.401 . S
C20 C19 1.396 . S
C21 C16 1.499 . S
C21 H22 0.959 . S
C21 H23 0.960 . S
C21 H24 0.961 . S
H22 C21 0.959 . S
H23 C21 0.960 . S
H24 C21 0.961 . S
O25 Co0 1.967 . S
O25 C33 1.258 . S
O26 Co1 1.941 . S
O26 C33 1.266 . S
H27 C29 0.959 . S
H28 C29 0.961 . S
C29 C19 1.510 . S
C29 H27 0.959 . S
C29 H28 0.961 . S
C29 H30 0.960 . S
H30 C29 0.960 . S
H31 N11 0.862 . S
O32 Co0 1.920 . S
O32 C5 1.289 . S
C33 O25 1.258 . S
C33 O26 1.266 . S
Co34 O37 1.970 . S
Co34 N51 1.989 . S
Co34 O59 1.967 . S
Co34 O66 1.920 . S
Co35 O38 1.966 . S
Co35 N44 2.022 . S
Co35 N52 1.993 . S
Co35 O60 1.941 . S
C36 O37 1.258 . S
C36 O38 1.263 . S
O37 Co34 1.970 . S
O37 C36 1.258 . S
O38 Co35 1.966 . S
O38 C36 1.263 . S
C39 O40 1.235 . S
C39 O66 1.289 . S
O40 C39 1.235 . S
C41 C43 1.400 . S
C41 N44 1.351 . S
C41 C46 1.501 . S
C42 C43 1.387 . S
C42 N45 1.341 . S
C43 C41 1.400 . S
C43 C42 1.387 . S
N44 Co35 2.022 . S
N44 C41 1.351 . S
N44 N45 1.365 . S
N45 C42 1.341 . S
N45 N44 1.365 . S
N45 H65 0.862 . S
C46 C41 1.501 . S
C46 H47 0.961 . S
C46 H48 0.961 . S
C46 H49 0.960 . S
H47 C46 0.961 . S
H48 C46 0.961 . S
H49 C46 0.960 . S
C50 N51 1.342 . S
C50 C54 1.401 . S
C50 C55 1.499 . S
N51 Co34 1.989 . S
N51 C50 1.342 . S
N51 N52 1.388 . S
N52 Co35 1.993 . S
N52 N51 1.388 . S
N52 C53 1.346 . S
C53 N52 1.346 . S
C53 C54 1.396 . S
C53 C63 1.510 . S
C54 C50 1.401 . S
C54 C53 1.396 . S
C55 C50 1.499 . S
C55 H56 0.959 . S
C55 H57 0.960 . S
C55 H58 0.961 . S
H56 C55 0.959 . S
H57 C55 0.960 . S
H58 C55 0.961 . S
O59 Co34 1.967 . S
O59 C67 1.258 . S
O60 Co35 1.941 . S
O60 C67 1.266 . S
H61 C63 0.959 . S
H62 C63 0.961 . S
C63 C53 1.510 . S
C63 H61 0.959 . S
C63 H62 0.961 . S
C63 H64 0.960 . S
H64 C63 0.960 . S
H65 N45 0.862 . S
O66 Co34 1.920 . S
O66 C39 1.289 . S
C67 O59 1.258 . S
C67 O60 1.266 . S
Co68 O71 1.970 . S
Co68 N85 1.989 . S
Co68 O93 1.967 . S
Co68 O100 1.920 . S
Co69 O72 1.966 . S
Co69 N78 2.022 . S
Co69 N86 1.993 . S
Co69 O94 1.941 . S
C70 O71 1.258 . S
C70 O72 1.263 . S
O71 Co68 1.970 . S
O71 C70 1.258 . S
O72 Co69 1.966 . S
O72 C70 1.263 . S
C73 O74 1.235 . S
C73 O100 1.289 . S
O74 C73 1.235 . S
C75 C77 1.400 . S
C75 N78 1.351 . S
C75 C80 1.501 . S
C76 C77 1.387 . S
C76 N79 1.341 . S
C77 C75 1.400 . S
C77 C76 1.387 . S
N78 Co69 2.022 . S
N78 C75 1.351 . S
N78 N79 1.365 . S
N79 C76 1.341 . S
N79 N78 1.365 . S
N79 H99 0.862 . S
C80 C75 1.501 . S
C80 H81 0.961 . S
C80 H82 0.961 . S
C80 H83 0.960 . S
H81 C80 0.961 . S
H82 C80 0.961 . S
H83 C80 0.960 . S
C84 N85 1.342 . S
C84 C88 1.401 . S
C84 C89 1.499 . S
N85 Co68 1.989 . S
N85 C84 1.342 . S
N85 N86 1.388 . S
N86 Co69 1.993 . S
N86 N85 1.388 . S
N86 C87 1.346 . S
C87 N86 1.346 . S
C87 C88 1.396 . S
C87 C97 1.510 . S
C88 C84 1.401 . S
C88 C87 1.396 . S
C89 C84 1.499 . S
C89 H90 0.959 . S
C89 H91 0.960 . S
C89 H92 0.961 . S
H90 C89 0.959 . S
H91 C89 0.960 . S
H92 C89 0.961 . S
O93 Co68 1.967 . S
O93 C101 1.258 . S
O94 Co69 1.941 . S
O94 C101 1.266 . S
H95 C97 0.959 . S
H96 C97 0.961 . S
C97 C87 1.510 . S
C97 H95 0.959 . S
C97 H96 0.961 . S
C97 H98 0.960 . S
H98 C97 0.960 . S
H99 N79 0.862 . S
O100 Co68 1.920 . S
O100 C73 1.289 . S
C101 O93 1.258 . S
C101 O94 1.266 . S
Co102 O105 1.970 . S
Co102 N119 1.989 . S
Co102 O127 1.967 . S
Co102 O134 1.920 . S
Co103 O106 1.966 . S
Co103 N112 2.022 . S
Co103 N120 1.993 . S
Co103 O128 1.941 . S
C104 O105 1.258 . S
C104 O106 1.263 . S
O105 Co102 1.970 . S
O105 C104 1.258 . S
O106 Co103 1.966 . S
O106 C104 1.263 . S
C107 O108 1.235 . S
C107 O134 1.289 . S
O108 C107 1.235 . S
C109 C111 1.400 . S
C109 N112 1.351 . S
C109 C114 1.501 . S
C110 C111 1.387 . S
C110 N113 1.341 . S
C111 C109 1.400 . S
C111 C110 1.387 . S
N112 Co103 2.022 . S
N112 C109 1.351 . S
N112 N113 1.365 . S
N113 C110 1.341 . S
N113 N112 1.365 . S
N113 H133 0.862 . S
C114 C109 1.501 . S
C114 H115 0.961 . S
C114 H116 0.961 . S
C114 H117 0.960 . S
H115 C114 0.961 . S
H116 C114 0.961 . S
H117 C114 0.960 . S
C118 N119 1.342 . S
C118 C122 1.401 . S
C118 C123 1.499 . S
N119 Co102 1.989 . S
N119 C118 1.342 . S
N119 N120 1.388 . S
N120 Co103 1.993 . S
N120 N119 1.388 . S
N120 C121 1.346 . S
C121 N120 1.346 . S
C121 C122 1.396 . S
C121 C131 1.510 . S
C122 C118 1.401 . S
C122 C121 1.396 . S
C123 C118 1.499 . S
C123 H124 0.959 . S
C123 H125 0.960 . S
C123 H126 0.961 . S
H124 C123 0.959 . S
H125 C123 0.960 . S
H126 C123 0.961 . S
O127 Co102 1.967 . S
O127 C135 1.258 . S
O128 Co103 1.941 . S
O128 C135 1.266 . S
H129 C131 0.959 . S
H130 C131 0.961 . S
C131 C121 1.510 . S
C131 H129 0.959 . S
C131 H130 0.961 . S
C131 H132 0.960 . S
H132 C131 0.960 . S
H133 N113 0.862 . S
O134 Co102 1.920 . S
O134 C107 1.289 . S
C135 O127 1.258 . S
C135 O128 1.266 . S
Co136 O139 1.970 . S
Co136 N153 1.989 . S
Co136 O161 1.967 . S
Co136 O168 1.920 . S
Co137 O140 1.966 . S
Co137 N146 2.022 . S
Co137 N154 1.993 . S
Co137 O162 1.941 . S
C138 O139 1.258 . S
C138 O140 1.263 . S
O139 Co136 1.970 . S
O139 C138 1.258 . S
O140 Co137 1.966 . S
O140 C138 1.263 . S
C141 O142 1.235 . S
C141 O168 1.289 . S
O142 C141 1.235 . S
C143 C145 1.400 . S
C143 N146 1.351 . S
C143 C148 1.501 . S
C144 C145 1.387 . S
C144 N147 1.341 . S
C145 C143 1.400 . S
C145 C144 1.387 . S
N146 Co137 2.022 . S
N146 C143 1.351 . S
N146 N147 1.365 . S
N147 C144 1.341 . S
N147 N146 1.365 . S
N147 H167 0.862 . S
C148 C143 1.501 . S
C148 H149 0.961 . S
C148 H150 0.961 . S
C148 H151 0.960 . S
H149 C148 0.961 . S
H150 C148 0.961 . S
H151 C148 0.960 . S
C152 N153 1.342 . S
C152 C156 1.401 . S
C152 C157 1.499 . S
N153 Co136 1.989 . S
N153 C152 1.342 . S
N153 N154 1.388 . S
N154 Co137 1.993 . S
N154 N153 1.388 . S
N154 C155 1.346 . S
C155 N154 1.346 . S
C155 C156 1.396 . S
C155 C165 1.510 . S
C156 C152 1.401 . S
C156 C155 1.396 . S
C157 C152 1.499 . S
C157 H158 0.959 . S
C157 H159 0.960 . S
C157 H160 0.961 . S
H158 C157 0.959 . S
H159 C157 0.960 . S
H160 C157 0.961 . S
O161 Co136 1.967 . S
O161 C169 1.258 . S
O162 Co137 1.941 . S
O162 C169 1.266 . S
H163 C165 0.959 . S
H164 C165 0.961 . S
C165 C155 1.510 . S
C165 H163 0.959 . S
C165 H164 0.961 . S
C165 H166 0.960 . S
H166 C165 0.960 . S
H167 N147 0.862 . S
O168 Co136 1.920 . S
O168 C141 1.289 . S
C169 O161 1.258 . S
C169 O162 1.266 . S
Co170 O173 1.970 . S
Co170 N187 1.989 . S
Co170 O195 1.967 . S
Co170 O202 1.920 . S
Co171 O174 1.966 . S
Co171 N180 2.022 . S
Co171 N188 1.993 . S
Co171 O196 1.941 . S
C172 O173 1.258 . S
C172 O174 1.263 . S
O173 Co170 1.970 . S
O173 C172 1.258 . S
O174 Co171 1.966 . S
O174 C172 1.263 . S
C175 O176 1.235 . S
C175 O202 1.289 . S
O176 C175 1.235 . S
C177 C179 1.400 . S
C177 N180 1.351 . S
C177 C182 1.501 . S
C178 C179 1.387 . S
C178 N181 1.341 . S
C179 C177 1.400 . S
C179 C178 1.387 . S
N180 Co171 2.022 . S
N180 C177 1.351 . S
N180 N181 1.365 . S
N181 C178 1.341 . S
N181 N180 1.365 . S
N181 H201 0.862 . S
C182 C177 1.501 . S
C182 H183 0.961 . S
C182 H184 0.961 . S
C182 H185 0.960 . S
H183 C182 0.961 . S
H184 C182 0.961 . S
H185 C182 0.960 . S
C186 N187 1.342 . S
C186 C190 1.401 . S
C186 C191 1.499 . S
N187 Co170 1.989 . S
N187 C186 1.342 . S
N187 N188 1.388 . S
N188 Co171 1.993 . S
N188 N187 1.388 . S
N188 C189 1.346 . S
C189 N188 1.346 . S
C189 C190 1.396 . S
C189 C199 1.510 . S
C190 C186 1.401 . S
C190 C189 1.396 . S
C191 C186 1.499 . S
C191 H192 0.959 . S
C191 H193 0.960 . S
C191 H194 0.961 . S
H192 C191 0.959 . S
H193 C191 0.960 . S
H194 C191 0.961 . S
O195 Co170 1.967 . S
O195 C203 1.258 . S
O196 Co171 1.941 . S
O196 C203 1.266 . S
H197 C199 0.959 . S
H198 C199 0.961 . S
C199 C189 1.510 . S
C199 H197 0.959 . S
C199 H198 0.961 . S
C199 H200 0.960 . S
H200 C199 0.960 . S
H201 N181 0.862 . S
O202 Co170 1.920 . S
O202 C175 1.289 . S
C203 O195 1.258 . S
C203 O196 1.266 . S
Co204 O207 1.970 . S
Co204 N221 1.989 . S
Co204 O229 1.967 . S
Co204 O236 1.920 . S
Co205 O208 1.966 . S
Co205 N214 2.022 . S
Co205 N222 1.993 . S
Co205 O230 1.941 . S
C206 O207 1.258 . S
C206 O208 1.263 . S
O207 Co204 1.970 . S
O207 C206 1.258 . S
O208 Co205 1.966 . S
O208 C206 1.263 . S
C209 O210 1.235 . S
C209 O236 1.289 . S
O210 C209 1.235 . S
C211 C213 1.400 . S
C211 N214 1.351 . S
C211 C216 1.501 . S
C212 C213 1.387 . S
C212 N215 1.341 . S
C213 C211 1.400 . S
C213 C212 1.387 . S
N214 Co205 2.022 . S
N214 C211 1.351 . S
N214 N215 1.365 . S
N215 C212 1.341 . S
N215 N214 1.365 . S
N215 H235 0.862 . S
C216 C211 1.501 . S
C216 H217 0.961 . S
C216 H218 0.961 . S
C216 H219 0.960 . S
H217 C216 0.961 . S
H218 C216 0.961 . S
H219 C216 0.960 . S
C220 N221 1.342 . S
C220 C224 1.401 . S
C220 C225 1.499 . S
N221 Co204 1.989 . S
N221 C220 1.342 . S
N221 N222 1.388 . S
N222 Co205 1.993 . S
N222 N221 1.388 . S
N222 C223 1.346 . S
C223 N222 1.346 . S
C223 C224 1.396 . S
C223 C233 1.510 . S
C224 C220 1.401 . S
C224 C223 1.396 . S
C225 C220 1.499 . S
C225 H226 0.959 . S
C225 H227 0.960 . S
C225 H228 0.961 . S
H226 C225 0.959 . S
H227 C225 0.960 . S
H228 C225 0.961 . S
O229 Co204 1.967 . S
O229 C237 1.258 . S
O230 Co205 1.941 . S
O230 C237 1.266 . S
H231 C233 0.959 . S
H232 C233 0.961 . S
C233 C223 1.510 . S
C233 H231 0.959 . S
C233 H232 0.961 . S
C233 H234 0.960 . S
H234 C233 0.960 . S
H235 N215 0.862 . S
O236 Co204 1.920 . S
O236 C209 1.289 . S
C237 O229 1.258 . S
C237 O230 1.266 . S
Co238 O241 1.970 . S
Co238 N255 1.989 . S
Co238 O263 1.967 . S
Co238 O270 1.920 . S
Co239 O242 1.966 . S
Co239 N248 2.022 . S
Co239 N256 1.993 . S
Co239 O264 1.941 . S
C240 O241 1.258 . S
C240 O242 1.263 . S
O241 Co238 1.970 . S
O241 C240 1.258 . S
O242 Co239 1.966 . S
O242 C240 1.263 . S
C243 O244 1.235 . S
C243 O270 1.289 . S
O244 C243 1.235 . S
C245 C247 1.400 . S
C245 N248 1.351 . S
C245 C250 1.501 . S
C246 C247 1.387 . S
C246 N249 1.341 . S
C247 C245 1.400 . S
C247 C246 1.387 . S
N248 Co239 2.022 . S
N248 C245 1.351 . S
N248 N249 1.365 . S
N249 C246 1.341 . S
N249 N248 1.365 . S
N249 H269 0.862 . S
C250 C245 1.501 . S
C250 H251 0.961 . S
C250 H252 0.961 . S
C250 H253 0.960 . S
H251 C250 0.961 . S
H252 C250 0.961 . S
H253 C250 0.960 . S
C254 N255 1.342 . S
C254 C258 1.401 . S
C254 C259 1.499 . S
N255 Co238 1.989 . S
N255 C254 1.342 . S
N255 N256 1.388 . S
N256 Co239 1.993 . S
N256 N255 1.388 . S
N256 C257 1.346 . S
C257 N256 1.346 . S
C257 C258 1.396 . S
C257 C267 1.510 . S
C258 C254 1.401 . S
C258 C257 1.396 . S
C259 C254 1.499 . S
C259 H260 0.959 . S
C259 H261 0.960 . S
C259 H262 0.961 . S
H260 C259 0.959 . S
H261 C259 0.960 . S
H262 C259 0.961 . S
O263 Co238 1.967 . S
O263 C271 1.258 . S
O264 Co239 1.941 . S
O264 C271 1.266 . S
H265 C267 0.959 . S
H266 C267 0.961 . S
C267 C257 1.510 . S
C267 H265 0.959 . S
C267 H266 0.961 . S
C267 H268 0.960 . S
H268 C267 0.960 . S
H269 N249 0.862 . S
O270 Co238 1.920 . S
O270 C243 1.289 . S
C271 O263 1.258 . S
C271 O264 1.266 . S
Co272 O275 1.970 . S
Co272 N289 1.989 . S
Co272 O297 1.967 . S
Co272 O304 1.920 . S
Co273 O276 1.966 . S
Co273 N282 2.022 . S
Co273 N290 1.993 . S
Co273 O298 1.941 . S
C274 O275 1.258 . S
C274 O276 1.263 . S
O275 Co272 1.970 . S
O275 C274 1.258 . S
O276 Co273 1.966 . S
O276 C274 1.263 . S
C277 O278 1.235 . S
C277 O304 1.289 . S
O278 C277 1.235 . S
C279 C281 1.400 . S
C279 N282 1.351 . S
C279 C284 1.501 . S
C280 C281 1.387 . S
C280 N283 1.341 . S
C281 C279 1.400 . S
C281 C280 1.387 . S
N282 Co273 2.022 . S
N282 C279 1.351 . S
N282 N283 1.365 . S
N283 C280 1.341 . S
N283 N282 1.365 . S
N283 H303 0.862 . S
C284 C279 1.501 . S
C284 H285 0.961 . S
C284 H286 0.961 . S
C284 H287 0.960 . S
H285 C284 0.961 . S
H286 C284 0.961 . S
H287 C284 0.960 . S
C288 N289 1.342 . S
C288 C292 1.401 . S
C288 C293 1.499 . S
N289 Co272 1.989 . S
N289 C288 1.342 . S
N289 N290 1.388 . S
N290 Co273 1.993 . S
N290 N289 1.388 . S
N290 C291 1.346 . S
C291 N290 1.346 . S
C291 C292 1.396 . S
C291 C301 1.510 . S
C292 C288 1.401 . S
C292 C291 1.396 . S
C293 C288 1.499 . S
C293 H294 0.959 . S
C293 H295 0.960 . S
C293 H296 0.961 . S
H294 C293 0.959 . S
H295 C293 0.960 . S
H296 C293 0.961 . S
O297 Co272 1.967 . S
O297 C305 1.258 . S
O298 Co273 1.941 . S
O298 C305 1.266 . S
H299 C301 0.959 . S
H300 C301 0.961 . S
C301 C291 1.510 . S
C301 H299 0.959 . S
C301 H300 0.961 . S
C301 H302 0.960 . S
H302 C301 0.960 . S
H303 N283 0.862 . S
O304 Co272 1.920 . S
O304 C277 1.289 . S
C305 O297 1.258 . S
C305 O298 1.266 . S
Co306 O309 1.970 . S
Co306 N323 1.989 . S
Co306 O331 1.967 . S
Co306 O338 1.920 . S
Co307 O310 1.966 . S
Co307 N316 2.022 . S
Co307 N324 1.993 . S
Co307 O332 1.941 . S
C308 O309 1.258 . S
C308 O310 1.263 . S
O309 Co306 1.970 . S
O309 C308 1.258 . S
O310 Co307 1.966 . S
O310 C308 1.263 . S
C311 O312 1.235 . S
C311 O338 1.289 . S
O312 C311 1.235 . S
C313 C315 1.400 . S
C313 N316 1.351 . S
C313 C318 1.501 . S
C314 C315 1.387 . S
C314 N317 1.341 . S
C315 C313 1.400 . S
C315 C314 1.387 . S
N316 Co307 2.022 . S
N316 C313 1.351 . S
N316 N317 1.365 . S
N317 C314 1.341 . S
N317 N316 1.365 . S
N317 H337 0.862 . S
C318 C313 1.501 . S
C318 H319 0.961 . S
C318 H320 0.961 . S
C318 H321 0.960 . S
H319 C318 0.961 . S
H320 C318 0.961 . S
H321 C318 0.960 . S
C322 N323 1.342 . S
C322 C326 1.401 . S
C322 C327 1.499 . S
N323 Co306 1.989 . S
N323 C322 1.342 . S
N323 N324 1.388 . S
N324 Co307 1.993 . S
N324 N323 1.388 . S
N324 C325 1.346 . S
C325 N324 1.346 . S
C325 C326 1.396 . S
C325 C335 1.510 . S
C326 C322 1.401 . S
C326 C325 1.396 . S
C327 C322 1.499 . S
C327 H328 0.959 . S
C327 H329 0.960 . S
C327 H330 0.961 . S
H328 C327 0.959 . S
H329 C327 0.960 . S
H330 C327 0.961 . S
O331 Co306 1.967 . S
O331 C339 1.258 . S
O332 Co307 1.941 . S
O332 C339 1.266 . S
H333 C335 0.959 . S
H334 C335 0.961 . S
C335 C325 1.510 . S
C335 H333 0.959 . S
C335 H334 0.961 . S
C335 H336 0.960 . S
H336 C335 0.960 . S
H337 N317 0.862 . S
O338 Co306 1.920 . S
O338 C311 1.289 . S
C339 O331 1.258 . S
C339 O332 1.266 . S
Co340 O343 1.970 . S
Co340 N357 1.989 . S
Co340 O365 1.967 . S
Co340 O372 1.920 . S
Co341 O344 1.966 . S
Co341 N350 2.022 . S
Co341 N358 1.993 . S
Co341 O366 1.941 . S
C342 O343 1.258 . S
C342 O344 1.263 . S
O343 Co340 1.970 . S
O343 C342 1.258 . S
O344 Co341 1.966 . S
O344 C342 1.263 . S
C345 O346 1.235 . S
C345 O372 1.289 . S
O346 C345 1.235 . S
C347 C349 1.400 . S
C347 N350 1.351 . S
C347 C352 1.501 . S
C348 C349 1.387 . S
C348 N351 1.341 . S
C349 C347 1.400 . S
C349 C348 1.387 . S
N350 Co341 2.022 . S
N350 C347 1.351 . S
N350 N351 1.365 . S
N351 C348 1.341 . S
N351 N350 1.365 . S
N351 H371 0.862 . S
C352 C347 1.501 . S
C352 H353 0.961 . S
C352 H354 0.961 . S
C352 H355 0.960 . S
H353 C352 0.961 . S
H354 C352 0.961 . S
H355 C352 0.960 . S
C356 N357 1.342 . S
C356 C360 1.401 . S
C356 C361 1.499 . S
N357 Co340 1.989 . S
N357 C356 1.342 . S
N357 N358 1.388 . S
N358 Co341 1.993 . S
N358 N357 1.388 . S
N358 C359 1.346 . S
C359 N358 1.346 . S
C359 C360 1.396 . S
C359 C369 1.510 . S
C360 C356 1.401 . S
C360 C359 1.396 . S
C361 C356 1.499 . S
C361 H362 0.959 . S
C361 H363 0.960 . S
C361 H364 0.961 . S
H362 C361 0.959 . S
H363 C361 0.960 . S
H364 C361 0.961 . S
O365 Co340 1.967 . S
O365 C373 1.258 . S
O366 Co341 1.941 . S
O366 C373 1.266 . S
H367 C369 0.959 . S
H368 C369 0.961 . S
C369 C359 1.510 . S
C369 H367 0.959 . S
C369 H368 0.961 . S
C369 H370 0.960 . S
H370 C369 0.960 . S
H371 N351 0.862 . S
O372 Co340 1.920 . S
O372 C345 1.289 . S
C373 O365 1.258 . S
C373 O366 1.266 . S
Co374 O377 1.970 . S
Co374 N391 1.989 . S
Co374 O399 1.967 . S
Co374 O406 1.920 . S
Co375 O378 1.966 . S
Co375 N384 2.022 . S
Co375 N392 1.993 . S
Co375 O400 1.941 . S
C376 O377 1.258 . S
C376 O378 1.263 . S
O377 Co374 1.970 . S
O377 C376 1.258 . S
O378 Co375 1.966 . S
O378 C376 1.263 . S
C379 O380 1.235 . S
C379 O406 1.289 . S
O380 C379 1.235 . S
C381 C383 1.400 . S
C381 N384 1.351 . S
C381 C386 1.501 . S
C382 C383 1.387 . S
C382 N385 1.341 . S
C383 C381 1.400 . S
C383 C382 1.387 . S
N384 Co375 2.022 . S
N384 C381 1.351 . S
N384 N385 1.365 . S
N385 C382 1.341 . S
N385 N384 1.365 . S
N385 H405 0.862 . S
C386 C381 1.501 . S
C386 H387 0.961 . S
C386 H388 0.961 . S
C386 H389 0.960 . S
H387 C386 0.961 . S
H388 C386 0.961 . S
H389 C386 0.960 . S
C390 N391 1.342 . S
C390 C394 1.401 . S
C390 C395 1.499 . S
N391 Co374 1.989 . S
N391 C390 1.342 . S
N391 N392 1.388 . S
N392 Co375 1.993 . S
N392 N391 1.388 . S
N392 C393 1.346 . S
C393 N392 1.346 . S
C393 C394 1.396 . S
C393 C403 1.510 . S
C394 C390 1.401 . S
C394 C393 1.396 . S
C395 C390 1.499 . S
C395 H396 0.959 . S
C395 H397 0.960 . S
C395 H398 0.961 . S
H396 C395 0.959 . S
H397 C395 0.960 . S
H398 C395 0.961 . S
O399 Co374 1.967 . S
O399 C407 1.258 . S
O400 Co375 1.941 . S
O400 C407 1.266 . S
H401 C403 0.959 . S
H402 C403 0.961 . S
C403 C393 1.510 . S
C403 H401 0.959 . S
C403 H402 0.961 . S
C403 H404 0.960 . S
H404 C403 0.960 . S
H405 N385 0.862 . S
O406 Co374 1.920 . S
O406 C379 1.289 . S
C407 O399 1.258 . S
C407 O400 1.266 . S
Co408 O411 1.970 . S
Co408 N425 1.989 . S
Co408 O433 1.967 . S
Co408 O440 1.920 . S
Co409 O412 1.966 . S
Co409 N418 2.022 . S
Co409 N426 1.993 . S
Co409 O434 1.941 . S
C410 O411 1.258 . S
C410 O412 1.263 . S
O411 Co408 1.970 . S
O411 C410 1.258 . S
O412 Co409 1.966 . S
O412 C410 1.263 . S
C413 O414 1.235 . S
C413 O440 1.289 . S
O414 C413 1.235 . S
C415 C417 1.400 . S
C415 N418 1.351 . S
C415 C420 1.501 . S
C416 C417 1.387 . S
C416 N419 1.341 . S
C417 C415 1.400 . S
C417 C416 1.387 . S
N418 Co409 2.022 . S
N418 C415 1.351 . S
N418 N419 1.365 . S
N419 C416 1.341 . S
N419 N418 1.365 . S
N419 H439 0.862 . S
C420 C415 1.501 . S
C420 H421 0.961 . S
C420 H422 0.961 . S
C420 H423 0.960 . S
H421 C420 0.961 . S
H422 C420 0.961 . S
H423 C420 0.960 . S
C424 N425 1.342 . S
C424 C428 1.401 . S
C424 C429 1.499 . S
N425 Co408 1.989 . S
N425 C424 1.342 . S
N425 N426 1.388 . S
N426 Co409 1.993 . S
N426 N425 1.388 . S
N426 C427 1.346 . S
C427 N426 1.346 . S
C427 C428 1.396 . S
C427 C437 1.510 . S
C428 C424 1.401 . S
C428 C427 1.396 . S
C429 C424 1.499 . S
C429 H430 0.959 . S
C429 H431 0.960 . S
C429 H432 0.961 . S
H430 C429 0.959 . S
H431 C429 0.960 . S
H432 C429 0.961 . S
O433 Co408 1.967 . S
O433 C441 1.258 . S
O434 Co409 1.941 . S
O434 C441 1.266 . S
H435 C437 0.959 . S
H436 C437 0.961 . S
C437 C427 1.510 . S
C437 H435 0.959 . S
C437 H436 0.961 . S
C437 H438 0.960 . S
H438 C437 0.960 . S
H439 N419 0.862 . S
O440 Co408 1.920 . S
O440 C413 1.289 . S
C441 O433 1.258 . S
C441 O434 1.266 . S
Co442 O445 1.970 . S
Co442 N459 1.989 . S
Co442 O467 1.967 . S
Co442 O474 1.920 . S
Co443 O446 1.966 . S
Co443 N452 2.022 . S
Co443 N460 1.993 . S
Co443 O468 1.941 . S
C444 O445 1.258 . S
C444 O446 1.263 . S
O445 Co442 1.970 . S
O445 C444 1.258 . S
O446 Co443 1.966 . S
O446 C444 1.263 . S
C447 O448 1.235 . S
C447 O474 1.289 . S
O448 C447 1.235 . S
C449 C451 1.400 . S
C449 N452 1.351 . S
C449 C454 1.501 . S
C450 C451 1.387 . S
C450 N453 1.341 . S
C451 C449 1.400 . S
C451 C450 1.387 . S
N452 Co443 2.022 . S
N452 C449 1.351 . S
N452 N453 1.365 . S
N453 C450 1.341 . S
N453 N452 1.365 . S
N453 H473 0.862 . S
C454 C449 1.501 . S
C454 H455 0.961 . S
C454 H456 0.961 . S
C454 H457 0.960 . S
H455 C454 0.961 . S
H456 C454 0.961 . S
H457 C454 0.960 . S
C458 N459 1.342 . S
C458 C462 1.401 . S
C458 C463 1.499 . S
N459 Co442 1.989 . S
N459 C458 1.342 . S
N459 N460 1.388 . S
N460 Co443 1.993 . S
N460 N459 1.388 . S
N460 C461 1.346 . S
C461 N460 1.346 . S
C461 C462 1.396 . S
C461 C471 1.510 . S
C462 C458 1.401 . S
C462 C461 1.396 . S
C463 C458 1.499 . S
C463 H464 0.959 . S
C463 H465 0.960 . S
C463 H466 0.961 . S
H464 C463 0.959 . S
H465 C463 0.960 . S
H466 C463 0.961 . S
O467 Co442 1.967 . S
O467 C475 1.258 . S
O468 Co443 1.941 . S
O468 C475 1.266 . S
H469 C471 0.959 . S
H470 C471 0.961 . S
C471 C461 1.510 . S
C471 H469 0.959 . S
C471 H470 0.961 . S
C471 H472 0.960 . S
H472 C471 0.960 . S
H473 N453 0.862 . S
O474 Co442 1.920 . S
O474 C447 1.289 . S
C475 O467 1.258 . S
C475 O468 1.266 . S
Co476 O479 1.970 . S
Co476 N493 1.989 . S
Co476 O501 1.967 . S
Co476 O508 1.920 . S
Co477 O480 1.966 . S
Co477 N486 2.022 . S
Co477 N494 1.993 . S
Co477 O502 1.941 . S
C478 O479 1.258 . S
C478 O480 1.263 . S
O479 Co476 1.970 . S
O479 C478 1.258 . S
O480 Co477 1.966 . S
O480 C478 1.263 . S
C481 O482 1.235 . S
C481 O508 1.289 . S
O482 C481 1.235 . S
C483 C485 1.400 . S
C483 N486 1.351 . S
C483 C488 1.501 . S
C484 C485 1.387 . S
C484 N487 1.341 . S
C485 C483 1.400 . S
C485 C484 1.387 . S
N486 Co477 2.022 . S
N486 C483 1.351 . S
N486 N487 1.365 . S
N487 C484 1.341 . S
N487 N486 1.365 . S
N487 H507 0.862 . S
C488 C483 1.501 . S
C488 H489 0.961 . S
C488 H490 0.961 . S
C488 H491 0.960 . S
H489 C488 0.961 . S
H490 C488 0.961 . S
H491 C488 0.960 . S
C492 N493 1.342 . S
C492 C496 1.401 . S
C492 C497 1.499 . S
N493 Co476 1.989 . S
N493 C492 1.342 . S
N493 N494 1.388 . S
N494 Co477 1.993 . S
N494 N493 1.388 . S
N494 C495 1.346 . S
C495 N494 1.346 . S
C495 C496 1.396 . S
C495 C505 1.510 . S
C496 C492 1.401 . S
C496 C495 1.396 . S
C497 C492 1.499 . S
C497 H498 0.959 . S
C497 H499 0.960 . S
C497 H500 0.961 . S
H498 C497 0.959 . S
H499 C497 0.960 . S
H500 C497 0.961 . S
O501 Co476 1.967 . S
O501 C509 1.258 . S
O502 Co477 1.941 . S
O502 C509 1.266 . S
H503 C505 0.959 . S
H504 C505 0.961 . S
C505 C495 1.510 . S
C505 H503 0.959 . S
C505 H504 0.961 . S
C505 H506 0.960 . S
H506 C505 0.960 . S
H507 N487 0.862 . S
O508 Co476 1.920 . S
O508 C481 1.289 . S
C509 O501 1.258 . S
C509 O502 1.266 . S
Co510 O513 1.970 . S
Co510 N527 1.989 . S
Co510 O535 1.967 . S
Co510 O542 1.920 . S
Co511 O514 1.966 . S
Co511 N520 2.022 . S
Co511 N528 1.993 . S
Co511 O536 1.941 . S
C512 O513 1.258 . S
C512 O514 1.263 . S
O513 Co510 1.970 . S
O513 C512 1.258 . S
O514 Co511 1.966 . S
O514 C512 1.263 . S
C515 O516 1.235 . S
C515 O542 1.289 . S
O516 C515 1.235 . S
C517 C519 1.400 . S
C517 N520 1.351 . S
C517 C522 1.501 . S
C518 C519 1.387 . S
C518 N521 1.341 . S
C519 C517 1.400 . S
C519 C518 1.387 . S
N520 Co511 2.022 . S
N520 C517 1.351 . S
N520 N521 1.365 . S
N521 C518 1.341 . S
N521 N520 1.365 . S
N521 H541 0.862 . S
C522 C517 1.501 . S
C522 H523 0.961 . S
C522 H524 0.961 . S
C522 H525 0.960 . S
H523 C522 0.961 . S
H524 C522 0.961 . S
H525 C522 0.960 . S
C526 N527 1.342 . S
C526 C530 1.401 . S
C526 C531 1.499 . S
N527 Co510 1.989 . S
N527 C526 1.342 . S
N527 N528 1.388 . S
N528 Co511 1.993 . S
N528 N527 1.388 . S
N528 C529 1.346 . S
C529 N528 1.346 . S
C529 C530 1.396 . S
C529 C539 1.510 . S
C530 C526 1.401 . S
C530 C529 1.396 . S
C531 C526 1.499 . S
C531 H532 0.959 . S
C531 H533 0.960 . S
C531 H534 0.961 . S
H532 C531 0.959 . S
H533 C531 0.960 . S
H534 C531 0.961 . S
O535 Co510 1.967 . S
O535 C543 1.258 . S
O536 Co511 1.941 . S
O536 C543 1.266 . S
H537 C539 0.959 . S
H538 C539 0.961 . S
C539 C529 1.510 . S
C539 H537 0.959 . S
C539 H538 0.961 . S
C539 H540 0.960 . S
H540 C539 0.960 . S
H541 N521 0.862 . S
O542 Co510 1.920 . S
O542 C515 1.289 . S
C543 O535 1.258 . S
C543 O536 1.266 . S
H544 C550 0.930 . S
H545 C553 0.930 . S
H546 C554 0.930 . S
H547 C555 0.930 . S
H548 C558 0.930 . S
H549 C559 0.930 . S
C550 H544 0.930 . S
C550 C551 1.355 . S
C550 C552 1.415 . S
C551 C550 1.355 . S
C551 C553 1.419 . S
C552 C550 1.415 . S
C552 C557 1.425 . S
C552 C559 1.409 . S
C553 H545 0.930 . S
C553 C551 1.419 . S
C553 C554 1.362 . S
C554 H546 0.930 . S
C554 C553 1.362 . S
C554 C557 1.409 . S
C555 H547 0.930 . S
C555 C556 1.355 . S
C555 C557 1.415 . S
C556 C555 1.355 . S
C556 C558 1.419 . S
C557 C552 1.425 . S
C557 C554 1.409 . S
C557 C555 1.415 . S
C558 H548 0.930 . S
C558 C556 1.419 . S
C558 C559 1.362 . S
C559 H549 0.930 . S
C559 C552 1.409 . S
C559 C558 1.362 . S
H560 C566 0.930 . S
H561 C569 0.930 . S
H562 C570 0.930 . S
H563 C571 0.930 . S
H564 C574 0.930 1_545 S
H565 C575 0.930 . S
C566 H560 0.930 . S
C566 C567 1.355 . S
C566 C568 1.415 1_655 S
C567 C566 1.355 . S
C567 C569 1.419 1_545 S
C568 C566 1.415 1_455 S
C568 C573 1.425 1_445 S
C568 C575 1.409 . S
C569 H561 0.930 . S
C569 C567 1.419 1_565 S
C569 C570 1.362 . S
C570 H562 0.930 . S
C570 C569 1.362 . S
C570 C573 1.409 . S
C571 H563 0.930 . S
C571 C572 1.355 . S
C571 C573 1.415 1_455 S
C572 C571 1.355 . S
C572 C574 1.419 . S
C573 C568 1.425 1_665 S
C573 C570 1.409 . S
C573 C571 1.415 1_655 S
C574 H564 0.930 1_565 S
C574 C572 1.419 . S
C574 C575 1.362 1_565 S
C575 H565 0.930 . S
C575 C568 1.409 . S
C575 C574 1.362 1_545 S
H576 C582 0.930 . S
H577 C585 0.930 . S
H578 C586 0.930 . S
H579 C587 0.930 . S
H580 C590 0.930 . S
H581 C591 0.930 . S
C582 H576 0.930 . S
C582 C583 1.355 . S
C582 C584 1.415 . S
C583 C582 1.355 . S
C583 C585 1.419 . S
C584 C582 1.415 . S
C584 C589 1.425 . S
C584 C591 1.409 . S
C585 H577 0.930 . S
C585 C583 1.419 . S
C585 C586 1.362 . S
C586 H578 0.930 . S
C586 C585 1.362 . S
C586 C589 1.409 . S
C587 H579 0.930 . S
C587 C588 1.355 . S
C587 C589 1.415 . S
C588 C587 1.355 . S
C588 C590 1.419 . S
C589 C584 1.425 . S
C589 C586 1.409 . S
C589 C587 1.415 . S
C590 H580 0.930 . S
C590 C588 1.419 . S
C590 C591 1.362 . S
C591 H581 0.930 . S
C591 C584 1.409 . S
C591 C590 1.362 . S
H592 C598 0.930 . S
H593 C601 0.930 . S
H594 C602 0.930 . S
H595 C603 0.930 . S
H596 C606 0.930 . S
H597 C607 0.930 . S
C598 H592 0.930 . S
C598 C599 1.355 . S
C598 C600 1.415 1_556 S
C599 C598 1.355 . S
C599 C601 1.419 1_545 S
C600 C598 1.415 1_554 S
C600 C605 1.425 1_545 S
C600 C607 1.409 . S
C601 H593 0.930 . S
C601 C599 1.419 1_565 S
C601 C602 1.362 1_556 S
C602 H594 0.930 . S
C602 C601 1.362 1_554 S
C602 C605 1.409 . S
C603 H595 0.930 . S
C603 C604 1.355 . S
C603 C605 1.415 . S
C604 C603 1.355 . S
C604 C606 1.419 . S
C605 C600 1.425 1_565 S
C605 C602 1.409 . S
C605 C603 1.415 . S
C606 H596 0.930 . S
C606 C604 1.419 . S
C606 C607 1.362 1_565 S
C607 H597 0.930 . S
C607 C600 1.409 . S
C607 C606 1.362 1_545 S
H608 C614 0.930 . S
H609 C617 0.930 . S
H610 C618 0.930 . S
H611 C619 0.930 . S
H612 C622 0.930 . S
H613 C623 0.930 . S
C614 H608 0.930 . S
C614 C615 1.355 . S
C614 C616 1.415 . S
C615 C614 1.355 . S
C615 C617 1.419 . S
C616 C614 1.415 . S
C616 C621 1.425 . S
C616 C623 1.409 . S
C617 H609 0.930 . S
C617 C615 1.419 . S
C617 C618 1.362 . S
C618 H610 0.930 . S
C618 C617 1.362 . S
C618 C621 1.409 . S
C619 H611 0.930 . S
C619 C620 1.355 . S
C619 C621 1.415 . S
C620 C619 1.355 . S
C620 C622 1.419 . S
C621 C616 1.425 . S
C621 C618 1.409 . S
C621 C619 1.415 . S
C622 H612 0.930 . S
C622 C620 1.419 . S
C622 C623 1.362 . S
C623 H613 0.930 . S
C623 C616 1.409 . S
C623 C622 1.362 . S
H624 C630 0.930 . S
H625 C633 0.930 . S
H626 C634 0.930 . S
H627 C635 0.930 . S
H628 C638 0.930 . S
H629 C639 0.930 . S
C630 H624 0.930 . S
C630 C631 1.355 1_545 S
C630 C632 1.415 . S
C631 C630 1.355 1_565 S
C631 C633 1.419 . S
C632 C630 1.415 . S
C632 C637 1.425 . S
C632 C639 1.409 . S
C633 H625 0.930 . S
C633 C631 1.419 . S
C633 C634 1.362 . S
C634 H626 0.930 . S
C634 C633 1.362 . S
C634 C637 1.409 1_565 S
C635 H627 0.930 . S
C635 C636 1.355 . S
C635 C637 1.415 . S
C636 C635 1.355 . S
C636 C638 1.419 . S
C637 C632 1.425 . S
C637 C634 1.409 1_545 S
C637 C635 1.415 . S
C638 H628 0.930 . S
C638 C636 1.419 . S
C638 C639 1.362 . S
C639 H629 0.930 . S
C639 C632 1.409 . S
C639 C638 1.362 . S
H640 C646 0.930 . S
H641 C649 0.930 . S
H642 C650 0.930 . S
H643 C651 0.930 . S
H644 C654 0.930 . S
H645 C655 0.930 . S
C646 H640 0.930 . S
C646 C647 1.355 . S
C646 C648 1.415 . S
C647 C646 1.355 . S
C647 C649 1.419 . S
C648 C646 1.415 . S
C648 C653 1.425 . S
C648 C655 1.409 . S
C649 H641 0.930 . S
C649 C647 1.419 . S
C649 C650 1.362 . S
C650 H642 0.930 . S
C650 C649 1.362 . S
C650 C653 1.409 . S
C651 H643 0.930 . S
C651 C652 1.355 . S
C651 C653 1.415 . S
C652 C651 1.355 . S
C652 C654 1.419 . S
C653 C648 1.425 . S
C653 C650 1.409 . S
C653 C651 1.415 . S
C654 H644 0.930 . S
C654 C652 1.419 . S
C654 C655 1.362 . S
C655 H645 0.930 . S
C655 C648 1.409 . S
C655 C654 1.362 . S
H656 C662 0.930 . S
H657 C665 0.930 . S
H658 C666 0.930 1_656 S
H659 C667 0.930 . S
H660 C670 0.930 . S
H661 C671 0.930 . S
C662 H656 0.930 . S
C662 C663 1.355 . S
C662 C664 1.415 . S
C663 C662 1.355 . S
C663 C665 1.419 . S
C664 C662 1.415 . S
C664 C669 1.425 1_554 S
C664 C671 1.409 1_545 S
C665 H657 0.930 . S
C665 C663 1.419 . S
C665 C666 1.362 . S
C666 H658 0.930 1_454 S
C666 C665 1.362 . S
C666 C669 1.409 1_554 S
C667 H659 0.930 . S
C667 C668 1.355 1_545 S
C667 C669 1.415 1_655 S
C668 C667 1.355 1_565 S
C668 C670 1.419 1_655 S
C669 C664 1.425 1_556 S
C669 C666 1.409 1_556 S
C669 C667 1.415 1_455 S
C670 H660 0.930 . S
C670 C668 1.419 1_455 S
C670 C671 1.362 1_556 S
C671 H661 0.930 . S
C671 C664 1.409 1_565 S
C671 C670 1.362 1_554 S
H672 C678 0.930 . S
H673 C681 0.930 . S
H674 C682 0.930 . S
H675 C683 0.930 . S
H676 C686 0.930 . S
H677 C687 0.930 . S
C678 H672 0.930 . S
C678 C679 1.355 . S
C678 C680 1.415 . S
C679 C678 1.355 . S
C679 C681 1.419 . S
C680 C678 1.415 . S
C680 C685 1.425 . S
C680 C687 1.409 . S
C681 H673 0.930 . S
C681 C679 1.419 . S
C681 C682 1.362 . S
C682 H674 0.930 . S
C682 C681 1.362 . S
C682 C685 1.409 . S
C683 H675 0.930 . S
C683 C684 1.355 . S
C683 C685 1.415 . S
C684 C683 1.355 . S
C684 C686 1.419 . S
C685 C680 1.425 . S
C685 C682 1.409 . S
C685 C683 1.415 . S
C686 H676 0.930 . S
C686 C684 1.419 . S
C686 C687 1.362 . S
C687 H677 0.930 . S
C687 C680 1.409 . S
C687 C686 1.362 . S
H688 C694 0.930 1_554 S
H689 C697 0.930 . S
H690 C698 0.930 . S
H691 C699 0.930 . S
H692 C702 0.930 . S
H693 C703 0.930 . S
C694 H688 0.930 1_556 S
C694 C695 1.355 . S
C694 C696 1.415 1_556 S
C695 C694 1.355 . S
C695 C697 1.419 . S
C696 C694 1.415 1_554 S
C696 C701 1.425 1_454 S
C696 C703 1.409 . S
C697 H689 0.930 . S
C697 C695 1.419 . S
C697 C698 1.362 1_455 S
C698 H690 0.930 . S
C698 C697 1.362 1_655 S
C698 C701 1.409 . S
C699 H691 0.930 . S
C699 C700 1.355 1_556 S
C699 C701 1.415 . S
C700 C699 1.355 1_554 S
C700 C702 1.419 . S
C701 C696 1.425 1_656 S
C701 C698 1.409 . S
C701 C699 1.415 . S
C702 H692 0.930 . S
C702 C700 1.419 . S
C702 C703 1.362 1_655 S
C703 H693 0.930 . S
C703 C696 1.409 . S
C703 C702 1.362 1_455 S
H704 C710 0.930 . S
H705 C713 0.930 . S
H706 C714 0.930 . S
H707 C715 0.930 . S
H708 C718 0.930 . S
H709 C719 0.930 . S
C710 H704 0.930 . S
C710 C711 1.355 . S
C710 C712 1.415 . S
C711 C710 1.355 . S
C711 C713 1.419 . S
C712 C710 1.415 . S
C712 C717 1.425 . S
C712 C719 1.409 . S
C713 H705 0.930 . S
C713 C711 1.419 . S
C713 C714 1.362 . S
C714 H706 0.930 . S
C714 C713 1.362 . S
C714 C717 1.409 . S
C715 H707 0.930 . S
C715 C716 1.355 . S
C715 C717 1.415 . S
C716 C715 1.355 . S
C716 C718 1.419 . S
C717 C712 1.425 . S
C717 C714 1.409 . S
C717 C715 1.415 . S
C718 H708 0.930 . S
C718 C716 1.419 . S
C718 C719 1.362 . S
C719 H709 0.930 . S
C719 C712 1.409 . S
C719 C718 1.362 . S
H720 C726 0.930 . S
H721 C729 0.930 . S
H722 C730 0.930 . S
H723 C731 0.930 . S
H724 C734 0.930 . S
H725 C735 0.921 1_655 S
C726 H720 0.930 . S
C726 C727 1.355 . S
C726 C728 1.415 . S
C727 C726 1.355 . S
C727 C729 1.419 . S
C728 C726 1.415 . S
C728 C733 1.438 . S
C728 C735 1.401 1_655 S
C729 H721 0.930 . S
C729 C727 1.419 . S
C729 C730 1.362 . S
C730 H722 0.930 . S
C730 C729 1.362 . S
C730 C733 1.420 . S
C731 H723 0.930 . S
C731 C732 1.355 . S
C731 C733 1.392 1_455 S
C732 C731 1.355 . S
C732 C734 1.419 . S
C733 C728 1.438 . S
C733 C730 1.420 . S
C733 C731 1.392 1_655 S
C734 H724 0.930 . S
C734 C732 1.419 . S
C734 C735 1.380 . S
C735 H725 0.921 1_455 S
C735 C728 1.401 1_455 S
C735 C734 1.380 . S
H736 C742 0.930 . S
H737 C745 0.930 . S
H738 C746 0.930 . S
H739 C747 0.930 . S
H740 C750 0.930 . S
H741 C751 0.930 . S
C742 H736 0.930 . S
C742 C743 1.355 . S
C742 C744 1.415 . S
C743 C742 1.355 . S
C743 C745 1.419 . S
C744 C742 1.415 . S
C744 C749 1.425 . S
C744 C751 1.409 1_556 S
C745 H737 0.930 . S
C745 C743 1.419 . S
C745 C746 1.362 . S
C746 H738 0.930 . S
C746 C745 1.362 . S
C746 C749 1.409 . S
C747 H739 0.930 . S
C747 C748 1.355 1_556 S
C747 C749 1.415 . S
C748 C747 1.355 1_554 S
C748 C750 1.419 . S
C749 C744 1.425 . S
C749 C746 1.409 . S
C749 C747 1.415 . S
C750 H740 0.930 . S
C750 C748 1.419 . S
C750 C751 1.362 . S
C751 H741 0.930 . S
C751 C744 1.409 1_554 S
C751 C750 1.362 . S
H752 C758 0.930 . S
H753 C761 0.930 . S
H754 C762 0.930 . S
H755 C763 0.930 . S
H756 C766 0.930 . S
H757 C767 0.930 . S
C758 H752 0.930 . S
C758 C759 1.355 . S
C758 C760 1.415 . S
C759 C758 1.355 . S
C759 C761 1.419 . S
C760 C758 1.415 . S
C760 C765 1.425 . S
C760 C767 1.409 . S
C761 H753 0.930 . S
C761 C759 1.419 . S
C761 C762 1.362 . S
C762 H754 0.930 . S
C762 C761 1.362 . S
C762 C765 1.409 . S
C763 H755 0.930 . S
C763 C764 1.355 . S
C763 C765 1.415 . S
C764 C763 1.355 . S
C764 C766 1.419 . S
C765 C760 1.425 . S
C765 C762 1.409 . S
C765 C763 1.415 . S
C766 H756 0.930 . S
C766 C764 1.419 . S
C766 C767 1.362 . S
C767 H757 0.930 . S
C767 C760 1.409 . S
C767 C766 1.362 . S
H768 C774 0.930 . S
H769 C777 0.930 . S
H770 C778 0.930 . S
H771 C779 0.930 . S
H772 C782 0.930 . S
H773 C783 0.930 . S
C774 H768 0.930 . S
C774 C775 1.355 . S
C774 C776 1.415 . S
C775 C774 1.355 . S
C775 C777 1.419 . S
C776 C774 1.415 . S
C776 C781 1.425 . S
C776 C783 1.409 . S
C777 H769 0.930 . S
C777 C775 1.419 . S
C777 C778 1.362 . S
C778 H770 0.930 . S
C778 C777 1.362 . S
C778 C781 1.409 . S
C779 H771 0.930 . S
C779 C780 1.355 . S
C779 C781 1.415 . S
C780 C779 1.355 . S
C780 C782 1.419 . S
C781 C776 1.425 . S
C781 C778 1.409 . S
C781 C779 1.415 . S
C782 H772 0.930 . S
C782 C780 1.419 . S
C782 C783 1.362 . S
C783 H773 0.930 . S
C783 C776 1.409 . S
C783 C782 1.362 . S
H784 C790 0.930 . S
H785 C793 0.930 . S
H786 C794 0.930 . S
H787 C795 0.930 . S
H788 C798 0.930 . S
H789 C799 0.930 . S
C790 H784 0.930 . S
C790 C791 1.355 . S
C790 C792 1.415 . S
C791 C790 1.355 . S
C791 C793 1.419 . S
C792 C790 1.415 . S
C792 C797 1.425 . S
C792 C799 1.409 . S
C793 H785 0.930 . S
C793 C791 1.419 . S
C793 C794 1.362 . S
C794 H786 0.930 . S
C794 C793 1.362 . S
C794 C797 1.409 . S
C795 H787 0.930 . S
C795 C796 1.355 . S
C795 C797 1.415 . S
C796 C795 1.355 . S
C796 C798 1.419 . S
C797 C792 1.425 . S
C797 C794 1.409 . S
C797 C795 1.415 . S
C798 H788 0.930 . S
C798 C796 1.419 . S
C798 C799 1.362 . S
C799 H789 0.930 . S
C799 C792 1.409 . S
C799 C798 1.362 . S
H800 C806 0.930 . S
H801 C809 0.930 . S
H802 C810 0.930 . S
H803 C811 0.930 . S
H804 C814 0.930 . S
H805 C815 0.930 . S
C806 H800 0.930 . S
C806 C807 1.355 . S
C806 C808 1.415 . S
C807 C806 1.355 . S
C807 C809 1.419 . S
C808 C806 1.415 . S
C808 C813 1.425 1_545 S
C808 C815 1.409 . S
C809 H801 0.930 . S
C809 C807 1.419 . S
C809 C810 1.362 1_545 S
C810 H802 0.930 . S
C810 C809 1.362 1_565 S
C810 C813 1.409 . S
C811 H803 0.930 . S
C811 C812 1.355 . S
C811 C813 1.415 . S
C812 C811 1.355 . S
C812 C814 1.419 . S
C813 C808 1.425 1_565 S
C813 C810 1.409 . S
C813 C811 1.415 . S
C814 H804 0.930 . S
C814 C812 1.419 . S
C814 C815 1.362 1_565 S
C815 H805 0.930 . S
C815 C808 1.409 . S
C815 C814 1.362 1_545 S
H816 C822 0.930 . S
H817 C825 0.930 . S
H818 C826 0.930 . S
H819 C827 0.930 . S
H820 C830 0.930 . S
H821 C831 0.930 . S
C822 H816 0.930 . S
C822 C823 1.355 . S
C822 C824 1.415 . S
C823 C822 1.355 . S
C823 C825 1.419 . S
C824 C822 1.415 . S
C824 C829 1.425 . S
C824 C831 1.409 . S
C825 H817 0.930 . S
C825 C823 1.419 . S
C825 C826 1.362 . S
C826 H818 0.930 . S
C826 C825 1.362 . S
C826 C829 1.409 . S
C827 H819 0.930 . S
C827 C828 1.355 . S
C827 C829 1.415 . S
C828 C827 1.355 . S
C828 C830 1.419 . S
C829 C824 1.425 . S
C829 C826 1.409 . S
C829 C827 1.415 . S
C830 H820 0.930 . S
C830 C828 1.419 . S
C830 C831 1.362 . S
C831 H821 0.930 . S
C831 C824 1.409 . S
C831 C830 1.362 . S
H832 C838 0.930 . S
H833 C841 0.930 . S
H834 C842 0.930 . S
H835 C843 0.930 . S
H836 C846 0.930 . S
H837 C847 0.930 . S
C838 H832 0.930 . S
C838 C839 1.355 1_545 S
C838 C840 1.415 . S
C839 C838 1.355 1_565 S
C839 C841 1.419 . S
C840 C838 1.415 . S
C840 C845 1.425 . S
C840 C847 1.409 . S
C841 H833 0.930 . S
C841 C839 1.419 . S
C841 C842 1.362 . S
C842 H834 0.930 . S
C842 C841 1.362 . S
C842 C845 1.409 1_565 S
C843 H835 0.930 . S
C843 C844 1.355 . S
C843 C845 1.415 . S
C844 C843 1.355 . S
C844 C846 1.419 . S
C845 C840 1.425 . S
C845 C842 1.409 1_545 S
C845 C843 1.415 . S
C846 H836 0.930 . S
C846 C844 1.419 . S
C846 C847 1.362 . S
C847 H837 0.930 . S
C847 C840 1.409 . S
C847 C846 1.362 . S
H848 C854 0.930 . S
H849 C857 0.930 . S
H850 C858 0.930 . S
H851 C859 0.930 . S
H852 C862 0.930 . S
H853 C863 0.930 . S
C854 H848 0.930 . S
C854 C855 1.355 . S
C854 C856 1.415 1_556 S
C855 C854 1.355 . S
C855 C857 1.419 . S
C856 C854 1.415 1_554 S
C856 C861 1.425 . S
C856 C863 1.409 . S
C857 H849 0.930 . S
C857 C855 1.419 . S
C857 C858 1.362 . S
C858 H850 0.930 . S
C858 C857 1.362 . S
C858 C861 1.409 1_556 S
C859 H851 0.930 . S
C859 C860 1.355 . S
C859 C861 1.415 . S
C860 C859 1.355 . S
C860 C862 1.419 . S
C861 C856 1.425 . S
C861 C858 1.409 1_554 S
C861 C859 1.415 . S
C862 H852 0.930 . S
C862 C860 1.419 . S
C862 C863 1.362 . S
C863 H853 0.930 . S
C863 C856 1.409 . S
C863 C862 1.362 . S
H864 C870 0.930 . S
H865 C873 0.930 . S
H866 C874 0.930 . S
H867 C875 0.930 . S
H868 C878 0.930 1_455 S
H869 C879 0.930 . S
C870 H864 0.930 . S
C870 C871 1.355 . S
C870 C872 1.415 . S
C871 C870 1.355 . S
C871 C873 1.419 . S
C872 C870 1.415 . S
C872 C877 1.425 1_455 S
C872 C879 1.409 . S
C873 H865 0.930 . S
C873 C871 1.419 . S
C873 C874 1.362 1_455 S
C874 H866 0.930 . S
C874 C873 1.362 1_655 S
C874 C877 1.409 . S
C875 H867 0.930 . S
C875 C876 1.355 . S
C875 C877 1.415 . S
C876 C875 1.355 . S
C876 C878 1.419 . S
C877 C872 1.425 1_655 S
C877 C874 1.409 . S
C877 C875 1.415 . S
C878 H868 0.930 1_655 S
C878 C876 1.419 . S
C878 C879 1.362 1_655 S
C879 H869 0.930 . S
C879 C872 1.409 . S
C879 C878 1.362 1_455 S
H880 C886 0.930 . S
H881 C889 0.930 . S
H882 C890 0.930 . S
H883 C891 0.930 . S
H884 C894 0.930 . S
H885 C895 0.930 . S
C886 H880 0.930 . S
C886 C887 1.355 . S
C886 C888 1.415 . S
C887 C886 1.355 . S
C887 C889 1.419 . S
C888 C886 1.415 . S
C888 C893 1.425 . S
C888 C895 1.409 . S
C889 H881 0.930 . S
C889 C887 1.419 . S
C889 C890 1.362 . S
C890 H882 0.930 . S
C890 C889 1.362 . S
C890 C893 1.409 . S
C891 H883 0.930 . S
C891 C892 1.355 . S
C891 C893 1.415 . S
C892 C891 1.355 . S
C892 C894 1.419 . S
C893 C888 1.425 . S
C893 C890 1.409 . S
C893 C891 1.415 . S
C894 H884 0.930 . S
C894 C892 1.419 . S
C894 C895 1.362 . S
C895 H885 0.930 . S
C895 C888 1.409 . S
C895 C894 1.362 . S
H896 C902 0.930 . S
H897 C905 0.930 . S
H898 C906 0.929 1_455 S
H899 C907 0.930 . S
H900 C910 0.930 . S
H901 C911 0.930 . S
C902 H896 0.930 . S
C902 C903 1.355 . S
C902 C904 1.415 . S
C903 C902 1.355 . S
C903 C905 1.419 . S
C904 C902 1.415 . S
C904 C909 1.425 1_655 S
C904 C911 1.409 1_655 S
C905 H897 0.930 . S
C905 C903 1.419 . S
C905 C906 1.362 . S
C906 H898 0.929 1_655 S
C906 C905 1.362 . S
C906 C909 1.409 1_655 S
C907 H899 0.930 . S
C907 C908 1.355 . S
C907 C909 1.415 . S
C908 C907 1.355 . S
C908 C910 1.419 . S
C909 C904 1.425 1_455 S
C909 C906 1.409 1_455 S
C909 C907 1.415 . S
C910 H900 0.930 . S
C910 C908 1.419 . S
C910 C911 1.362 . S
C911 H901 0.930 . S
C911 C904 1.409 1_455 S
C911 C910 1.362 . S
H912 C918 0.930 . S
H913 C921 0.930 . S
H914 C922 0.930 . S
H915 C923 0.930 . S
H916 C926 0.930 . S
H917 C927 0.930 . S
C918 H912 0.930 . S
C918 C919 1.355 . S
C918 C920 1.415 . S
C919 C918 1.355 . S
C919 C921 1.419 . S
C920 C918 1.415 . S
C920 C925 1.425 . S
C920 C927 1.409 . S
C921 H913 0.930 . S
C921 C919 1.419 . S
C921 C922 1.362 . S
C922 H914 0.930 . S
C922 C921 1.362 . S
C922 C925 1.409 . S
C923 H915 0.930 . S
C923 C924 1.355 . S
C923 C925 1.415 . S
C924 C923 1.355 . S
C924 C926 1.419 . S
C925 C920 1.425 . S
C925 C922 1.409 . S
C925 C923 1.415 . S
C926 H916 0.930 . S
C926 C924 1.419 . S
C926 C927 1.362 . S
C927 H917 0.930 . S
C927 C920 1.409 . S
C927 C926 1.362 . S
H928 C934 0.930 . S
H929 C937 0.930 . S
H930 C938 0.930 1_565 S
H931 C939 0.930 . S
H932 C942 0.930 . S
H933 C943 0.932 1_545 S
C934 H928 0.930 . S
C934 C935 1.355 . S
C934 C936 1.415 . S
C935 C934 1.355 . S
C935 C937 1.419 . S
C936 C934 1.415 . S
C936 C941 1.425 1_545 S
C936 C943 1.409 1_545 S
C937 H929 0.930 . S
C937 C935 1.419 . S
C937 C938 1.362 . S
C938 H930 0.930 1_545 S
C938 C937 1.362 . S
C938 C941 1.409 1_545 S
C939 H931 0.930 . S
C939 C940 1.355 . S
C939 C941 1.415 . S
C940 C939 1.355 . S
C940 C942 1.419 . S
C941 C936 1.425 1_565 S
C941 C938 1.409 1_565 S
C941 C939 1.415 . S
C942 H932 0.930 . S
C942 C940 1.419 . S
C942 C943 1.362 . S
C943 H933 0.932 1_565 S
C943 C936 1.409 1_565 S
C943 C942 1.362 . S
H944 C950 0.930 . S
H945 C953 0.930 . S
H946 C954 0.930 . S
H947 C955 0.930 . S
H948 C958 0.930 . S
H949 C959 0.930 . S
C950 H944 0.930 . S
C950 C951 1.355 . S
C950 C952 1.415 . S
C951 C950 1.355 . S
C951 C953 1.419 . S
C952 C950 1.415 . S
C952 C957 1.425 . S
C952 C959 1.409 . S
C953 H945 0.930 . S
C953 C951 1.419 . S
C953 C954 1.362 . S
C954 H946 0.930 . S
C954 C953 1.362 . S
C954 C957 1.409 . S
C955 H947 0.930 . S
C955 C956 1.355 . S
C955 C957 1.415 . S
C956 C955 1.355 . S
C956 C958 1.419 . S
C957 C952 1.425 . S
C957 C954 1.409 . S
C957 C955 1.415 . S
C958 H948 0.930 . S
C958 C956 1.419 . S
C958 C959 1.362 . S
C959 H949 0.930 . S
C959 C952 1.409 . S
C959 C958 1.362 . S
H960 C966 0.930 . S
H961 C969 0.930 . S
H962 C970 0.930 . S
H963 C971 0.930 . S
H964 C974 0.930 . S
H965 C975 0.930 1_545 S
C966 H960 0.930 . S
C966 C967 1.355 . S
C966 C968 1.415 1_545 S
C967 C966 1.355 . S
C967 C969 1.419 . S
C968 C966 1.415 1_565 S
C968 C973 1.425 . S
C968 C975 1.409 . S
C969 H961 0.930 . S
C969 C967 1.419 . S
C969 C970 1.362 1_545 S
C970 H962 0.930 . S
C970 C969 1.362 1_565 S
C970 C973 1.409 . S
C971 H963 0.930 . S
C971 C972 1.355 . S
C971 C973 1.415 . S
C972 C971 1.355 . S
C972 C974 1.419 . S
C973 C968 1.425 . S
C973 C970 1.409 . S
C973 C971 1.415 . S
C974 H964 0.930 . S
C974 C972 1.419 . S
C974 C975 1.362 . S
C975 H965 0.930 1_565 S
C975 C968 1.409 . S
C975 C974 1.362 . S
H976 C982 0.930 1_556 S
H977 C985 0.930 . S
H978 C986 0.930 . S
H979 C987 0.930 . S
H980 C990 0.930 . S
H981 C991 0.930 . S
C982 H976 0.930 1_554 S
C982 C983 1.355 . S
C982 C984 1.415 1_554 S
C983 C982 1.355 . S
C983 C985 1.419 . S
C984 C982 1.415 1_556 S
C984 C989 1.425 1_556 S
C984 C991 1.409 . S
C985 H977 0.930 . S
C985 C983 1.419 . S
C985 C986 1.362 . S
C986 H978 0.930 . S
C986 C985 1.362 . S
C986 C989 1.409 . S
C987 H979 0.930 . S
C987 C988 1.355 . S
C987 C989 1.415 1_556 S
C988 C987 1.355 . S
C988 C990 1.419 . S
C989 C984 1.425 1_554 S
C989 C986 1.409 . S
C989 C987 1.415 1_554 S
C990 H980 0.930 . S
C990 C988 1.419 . S
C990 C991 1.362 . S
C991 H981 0.930 . S
C991 C984 1.409 . S
C991 C990 1.362 . S
H992 C998 0.930 . S
H993 C1001 0.930 . S
H994 C1002 0.930 . S
H995 C1003 0.930 . S
H996 C1006 0.930 . S
H997 C1007 0.930 . S
C998 H992 0.930 . S
C998 C999 1.355 . S
C998 C1000 1.415 . S
C999 C998 1.355 . S
C999 C1001 1.419 . S
C1000 C998 1.415 . S
C1000 C1005 1.425 1_455 S
C1000 C1007 1.409 . S
C1001 H993 0.930 . S
C1001 C999 1.419 . S
C1001 C1002 1.362 1_455 S
C1002 H994 0.930 . S
C1002 C1001 1.362 1_655 S
C1002 C1005 1.409 . S
C1003 H995 0.930 . S
C1003 C1004 1.355 . S
C1003 C1005 1.415 . S
C1004 C1003 1.355 . S
C1004 C1006 1.419 . S
C1005 C1000 1.425 1_655 S
C1005 C1002 1.409 . S
C1005 C1003 1.415 . S
C1006 H996 0.930 . S
C1006 C1004 1.419 . S
C1006 C1007 1.362 1_655 S
C1007 H997 0.930 . S
C1007 C1000 1.409 . S
C1007 C1006 1.362 1_455 S
H1008 C1014 0.930 . S
H1009 C1017 0.930 . S
H1010 C1018 0.930 . S
H1011 C1019 0.930 . S
H1012 C1022 0.930 . S
H1013 C1023 0.930 . S
C1014 H1008 0.930 . S
C1014 C1015 1.355 . S
C1014 C1016 1.415 . S
C1015 C1014 1.355 . S
C1015 C1017 1.419 . S
C1016 C1014 1.415 . S
C1016 C1021 1.425 . S
C1016 C1023 1.409 . S
C1017 H1009 0.930 . S
C1017 C1015 1.419 . S
C1017 C1018 1.362 . S
C1018 H1010 0.930 . S
C1018 C1017 1.362 . S
C1018 C1021 1.409 . S
C1019 H1011 0.930 . S
C1019 C1020 1.355 . S
C1019 C1021 1.415 . S
C1020 C1019 1.355 . S
C1020 C1022 1.419 . S
C1021 C1016 1.425 . S
C1021 C1018 1.409 . S
C1021 C1019 1.415 . S
C1022 H1012 0.930 . S
C1022 C1020 1.419 . S
C1022 C1023 1.362 . S
C1023 H1013 0.930 . S
C1023 C1016 1.409 . S
C1023 C1022 1.362 . S
H1024 C1030 0.930 . S
H1025 C1033 0.930 . S
H1026 C1034 0.930 . S
H1027 C1035 0.930 . S
H1028 C1038 0.930 . S
H1029 C1039 0.930 . S
C1030 H1024 0.930 . S
C1030 C1031 1.355 . S
C1030 C1032 1.415 . S
C1031 C1030 1.355 . S
C1031 C1033 1.419 . S
C1032 C1030 1.415 . S
C1032 C1037 1.425 . S
C1032 C1039 1.409 1_655 S
C1033 H1025 0.930 . S
C1033 C1031 1.419 . S
C1033 C1034 1.362 . S
C1034 H1026 0.930 . S
C1034 C1033 1.362 . S
C1034 C1037 1.409 . S
C1035 H1027 0.930 . S
C1035 C1036 1.355 1_655 S
C1035 C1037 1.415 . S
C1036 C1035 1.355 1_455 S
C1036 C1038 1.419 . S
C1037 C1032 1.425 . S
C1037 C1034 1.409 . S
C1037 C1035 1.415 . S
C1038 H1028 0.930 . S
C1038 C1036 1.419 . S
C1038 C1039 1.362 . S
C1039 H1029 0.930 . S
C1039 C1032 1.409 1_455 S
C1039 C1038 1.362 . S
H1040 C1046 0.930 . S
H1041 C1049 0.930 . S
H1042 C1050 0.930 . S
H1043 C1051 0.930 . S
H1044 C1054 0.930 . S
H1045 C1055 0.930 . S
C1046 H1040 0.930 . S
C1046 C1047 1.355 . S
C1046 C1048 1.415 . S
C1047 C1046 1.355 . S
C1047 C1049 1.419 . S
C1048 C1046 1.415 . S
C1048 C1053 1.425 . S
C1048 C1055 1.409 . S
C1049 H1041 0.930 . S
C1049 C1047 1.419 . S
C1049 C1050 1.362 . S
C1050 H1042 0.930 . S
C1050 C1049 1.362 . S
C1050 C1053 1.409 . S
C1051 H1043 0.930 . S
C1051 C1052 1.355 . S
C1051 C1053 1.415 . S
C1052 C1051 1.355 . S
C1052 C1054 1.419 . S
C1053 C1048 1.425 . S
C1053 C1050 1.409 . S
C1053 C1051 1.415 . S
C1054 H1044 0.930 . S
C1054 C1052 1.419 . S
C1054 C1055 1.362 . S
C1055 H1045 0.930 . S
C1055 C1048 1.409 . S
C1055 C1054 1.362 . S
H1056 C1062 0.930 . S
H1057 C1065 0.930 . S
H1058 C1066 0.930 . S
H1059 C1067 0.930 . S
H1060 C1070 0.930 . S
H1061 C1071 0.930 . S
C1062 H1056 0.930 . S
C1062 C1063 1.355 . S
C1062 C1064 1.415 . S
C1063 C1062 1.355 . S
C1063 C1065 1.419 . S
C1064 C1062 1.415 . S
C1064 C1069 1.425 . S
C1064 C1071 1.409 . S
C1065 H1057 0.930 . S
C1065 C1063 1.419 . S
C1065 C1066 1.362 . S
C1066 H1058 0.930 . S
C1066 C1065 1.362 . S
C1066 C1069 1.409 . S
C1067 H1059 0.930 . S
C1067 C1068 1.355 . S
C1067 C1069 1.415 . S
C1068 C1067 1.355 . S
C1068 C1070 1.419 . S
C1069 C1064 1.425 . S
C1069 C1066 1.409 . S
C1069 C1067 1.415 . S
C1070 H1060 0.930 . S
C1070 C1068 1.419 . S
C1070 C1071 1.362 . S
C1071 H1061 0.930 . S
C1071 C1064 1.409 . S
C1071 C1070 1.362 . S
H1072 C1078 0.930 . S
H1073 C1081 0.930 . S
H1074 C1082 0.923 1_554 S
H1075 C1083 0.930 . S
H1076 C1086 0.930 . S
H1077 C1087 0.935 . S
C1078 H1072 0.930 . S
C1078 C1079 1.355 . S
C1078 C1080 1.415 . S
C1079 C1078 1.355 . S
C1079 C1081 1.419 . S
C1080 C1078 1.415 . S
C1080 C1085 1.425 1_556 S
C1080 C1087 1.409 1_556 S
C1081 H1073 0.930 . S
C1081 C1079 1.419 . S
C1081 C1082 1.377 . S
C1082 H1074 0.923 1_556 S
C1082 C1081 1.377 . S
C1082 C1085 1.402 1_556 S
C1083 H1075 0.930 . S
C1083 C1084 1.355 . S
C1083 C1085 1.415 . S
C1084 C1083 1.355 . S
C1084 C1086 1.419 . S
C1085 C1080 1.425 1_554 S
C1085 C1082 1.402 1_554 S
C1085 C1083 1.415 . S
C1086 H1076 0.930 . S
C1086 C1084 1.419 . S
C1086 C1087 1.362 . S
C1087 H1077 0.935 . S
C1087 C1080 1.409 1_554 S
C1087 C1086 1.362 . S
H1088 C1094 0.930 . S
H1089 C1097 0.930 . S
H1090 C1098 0.930 . S
H1091 C1099 0.930 . S
H1092 C1102 0.930 . S
H1093 C1103 0.930 . S
C1094 H1088 0.930 . S
C1094 C1095 1.355 . S
C1094 C1096 1.415 . S
C1095 C1094 1.355 . S
C1095 C1097 1.419 . S
C1096 C1094 1.415 . S
C1096 C1101 1.425 . S
C1096 C1103 1.409 . S
C1097 H1089 0.930 . S
C1097 C1095 1.419 . S
C1097 C1098 1.362 . S
C1098 H1090 0.930 . S
C1098 C1097 1.362 . S
C1098 C1101 1.409 . S
C1099 H1091 0.930 . S
C1099 C1100 1.355 . S
C1099 C1101 1.415 . S
C1100 C1099 1.355 . S
C1100 C1102 1.419 . S
C1101 C1096 1.425 . S
C1101 C1098 1.409 . S
C1101 C1099 1.415 . S
C1102 H1092 0.930 . S
C1102 C1100 1.419 . S
C1102 C1103 1.362 . S
C1103 H1093 0.930 . S
C1103 C1096 1.409 . S
C1103 C1102 1.362 . S
H1104 C1110 0.930 . S
H1105 C1113 0.930 . S
H1106 C1114 0.930 . S
H1107 C1115 0.930 . S
H1108 C1118 0.930 . S
H1109 C1119 0.930 . S
C1110 H1104 0.930 . S
C1110 C1111 1.355 . S
C1110 C1112 1.415 . S
C1111 C1110 1.355 . S
C1111 C1113 1.419 . S
C1112 C1110 1.415 . S
C1112 C1117 1.425 . S
C1112 C1119 1.409 . S
C1113 H1105 0.930 . S
C1113 C1111 1.419 . S
C1113 C1114 1.362 . S
C1114 H1106 0.930 . S
C1114 C1113 1.362 . S
C1114 C1117 1.409 . S
C1115 H1107 0.930 . S
C1115 C1116 1.355 . S
C1115 C1117 1.415 . S
C1116 C1115 1.355 . S
C1116 C1118 1.419 . S
C1117 C1112 1.425 . S
C1117 C1114 1.409 . S
C1117 C1115 1.415 . S
C1118 H1108 0.930 . S
C1118 C1116 1.419 . S
C1118 C1119 1.362 . S
C1119 H1109 0.930 . S
C1119 C1112 1.409 . S
C1119 C1118 1.362 . S
H1120 C1126 0.930 . S
H1121 C1129 0.930 . S
H1122 C1130 0.930 . S
H1123 C1131 0.930 . S
H1124 C1134 0.930 . S
H1125 C1135 0.930 . S
C1126 H1120 0.930 . S
C1126 C1127 1.355 . S
C1126 C1128 1.415 . S
C1127 C1126 1.355 . S
C1127 C1129 1.419 . S
C1128 C1126 1.415 . S
C1128 C1133 1.425 . S
C1128 C1135 1.409 . S
C1129 H1121 0.930 . S
C1129 C1127 1.419 . S
C1129 C1130 1.362 . S
C1130 H1122 0.930 . S
C1130 C1129 1.362 . S
C1130 C1133 1.409 . S
C1131 H1123 0.930 . S
C1131 C1132 1.355 . S
C1131 C1133 1.415 . S
C1132 C1131 1.355 . S
C1132 C1134 1.419 . S
C1133 C1128 1.425 . S
C1133 C1130 1.409 . S
C1133 C1131 1.415 . S
C1134 H1124 0.930 . S
C1134 C1132 1.419 . S
C1134 C1135 1.362 . S
C1135 H1125 0.930 . S
C1135 C1128 1.409 . S
C1135 C1134 1.362 . S
H1136 C1142 0.930 . S
H1137 C1145 0.930 . S
H1138 C1146 0.930 . S
H1139 C1147 0.930 . S
H1140 C1150 0.928 1_556 S
H1141 C1151 0.930 . S
C1142 H1136 0.930 . S
C1142 C1143 1.355 . S
C1142 C1144 1.415 . S
C1143 C1142 1.355 . S
C1143 C1145 1.419 . S
C1144 C1142 1.415 . S
C1144 C1149 1.425 1_556 S
C1144 C1151 1.409 . S
C1145 H1137 0.930 . S
C1145 C1143 1.419 . S
C1145 C1146 1.362 1_556 S
C1146 H1138 0.930 . S
C1146 C1145 1.362 1_554 S
C1146 C1149 1.409 . S
C1147 H1139 0.930 . S
C1147 C1148 1.355 . S
C1147 C1149 1.415 . S
C1148 C1147 1.355 . S
C1148 C1150 1.437 . S
C1149 C1144 1.425 1_554 S
C1149 C1146 1.409 . S
C1149 C1147 1.415 . S
C1150 H1140 0.928 1_554 S
C1150 C1148 1.437 . S
C1150 C1151 1.346 1_554 S
C1151 H1141 0.930 . S
C1151 C1144 1.409 . S
C1151 C1150 1.346 1_556 S
H1152 C1158 0.930 . S
H1153 C1161 0.930 . S
H1154 C1162 0.930 . S
H1155 C1163 0.930 . S
H1156 C1166 0.930 . S
H1157 C1167 0.930 . S
C1158 H1152 0.930 . S
C1158 C1159 1.355 . S
C1158 C1160 1.415 . S
C1159 C1158 1.355 . S
C1159 C1161 1.419 . S
C1160 C1158 1.415 . S
C1160 C1165 1.425 . S
C1160 C1167 1.409 . S
C1161 H1153 0.930 . S
C1161 C1159 1.419 . S
C1161 C1162 1.362 . S
C1162 H1154 0.930 . S
C1162 C1161 1.362 . S
C1162 C1165 1.409 . S
C1163 H1155 0.930 . S
C1163 C1164 1.355 . S
C1163 C1165 1.415 . S
C1164 C1163 1.355 . S
C1164 C1166 1.419 . S
C1165 C1160 1.425 . S
C1165 C1162 1.409 . S
C1165 C1163 1.415 . S
C1166 H1156 0.930 . S
C1166 C1164 1.419 . S
C1166 C1167 1.362 . S
C1167 H1157 0.930 . S
C1167 C1160 1.409 . S
C1167 C1166 1.362 . S
H1168 C1174 0.930 . S
H1169 C1177 0.930 . S
H1170 C1178 0.930 . S
H1171 C1179 0.930 . S
H1172 C1182 0.930 . S
H1173 C1183 0.930 . S
C1174 H1168 0.930 . S
C1174 C1175 1.355 . S
C1174 C1176 1.415 . S
C1175 C1174 1.355 . S
C1175 C1177 1.419 . S
C1176 C1174 1.415 . S
C1176 C1181 1.425 . S
C1176 C1183 1.409 . S
C1177 H1169 0.930 . S
C1177 C1175 1.419 . S
C1177 C1178 1.362 . S
C1178 H1170 0.930 . S
C1178 C1177 1.362 . S
C1178 C1181 1.409 . S
C1179 H1171 0.930 . S
C1179 C1180 1.355 . S
C1179 C1181 1.415 . S
C1180 C1179 1.355 . S
C1180 C1182 1.419 . S
C1181 C1176 1.425 . S
C1181 C1178 1.409 . S
C1181 C1179 1.415 . S
C1182 H1172 0.930 . S
C1182 C1180 1.419 . S
C1182 C1183 1.362 . S
C1183 H1173 0.930 . S
C1183 C1176 1.409 . S
C1183 C1182 1.362 . S
C551 C9 0.869 . S
C556 C515 0.938 . S
C567 C281 1.687 . S
C572 C39 1.855 . S
C583 C417 1.180 . S
C588 C77 1.082 . S
C599 C111 1.624 . S
C604 C345 1.709 . S
C615 C379 1.558 . S
C620 C43 1.340 . S
C631 C73 1.425 . S
C636 C311 1.409 . S
C647 C107 1.712 . S
C652 C451 1.541 . S
C663 C5 1.135 . S
C668 C247 0.991 . S
C679 C277 1.612 . S
C684 C145 1.393 . S
C695 C413 1.200 . S
C700 C179 1.024 . S
C711 C209 1.795 . S
C716 C349 1.666 . S
C727 C213 1.533 . S
C732 C447 1.653 . S
C743 C141 1.757 . S
C748 C383 1.514 . S
C759 C485 0.963 . S
C764 C243 1.008 . S
C775 C315 1.367 . S
C780 C175 1.564 . S
C791 C519 0.901 . S
C796 C481 1.053 . S
C807 C2 1.725 . S
C812 C54 1.706 . S
C823 C36 1.999 . S
C828 C101 2.022 . S
C839 C70 1.905 . S
C844 C104 1.929 . S
C855 C122 1.376 . S
C860 C33 1.388 . S
C871 C20 1.636 . S
C876 C190 1.654 . S
C887 C169 1.507 . S
C892 C135 1.507 . S
C903 C237 1.745 . S
C908 C67 1.744 . S
C919 C496 1.621 . S
C924 C88 1.634 . S
C935 C292 1.921 . S
C940 C240 1.902 . S
C951 C274 1.907 . S
C956 C308 1.898 . S
C967 C339 1.976 . S
C972 C342 1.926 . S
C983 C360 1.680 . S
C988 C271 1.703 . S
C999 C428 1.597 . S
C1004 C258 1.587 . S
C1015 C407 1.414 . S
C1020 C373 1.433 . S
C1031 C305 1.419 . S
C1036 C475 1.401 . S
C1047 C530 1.507 . S
C1052 C326 1.510 . S
C1063 C156 1.867 . S
C1068 C478 1.858 . S
C1079 C138 2.192 . S
C1084 C172 2.183 . S
C1095 C203 1.762 . S
C1100 C206 1.756 . S
C1111 C509 1.243 . S
C1116 C224 1.226 . S
C1127 C394 1.886 . S
C1132 C512 1.853 . S
C1143 C410 1.837 . S
C1148 C376 1.859 . S
C1159 C441 1.919 . S
C1164 C444 1.861 . S
C1175 C543 1.662 . S
C1180 C462 1.650 . S
