# Generated by pormake.
# Topology unb, (4)-cn, num edge types: 1
# Building blocks:
#     Node 0, Type 0, BuildingBlock: AZAVOO_clean_sbu_0, # of connection points: 4
#     Node 1, Type 0, BuildingBlock: AZAVOO_clean_sbu_0, # of connection points: 4
#     Node 2, Type 0, BuildingBlock: AZAVOO_clean_sbu_0, # of connection points: 4
#     Node 3, Type 0, BuildingBlock: AZAVOO_clean_sbu_0, # of connection points: 4
#     Node 4, Type 0, BuildingBlock: AZAVOO_clean_sbu_0, # of connection points: 4
#     Node 5, Type 0, BuildingBlock: AZAVOO_clean_sbu_0, # of connection points: 4
#     Node 6, Type 0, BuildingBlock: AZAVOO_clean_sbu_0, # of connection points: 4
#     Node 7, Type 0, BuildingBlock: AZAVOO_clean_sbu_0, # of connection points: 4
#     Node 8, Type 0, BuildingBlock: AZAVOO_clean_sbu_0, # of connection points: 4
#     Node 9, Type 0, BuildingBlock: AZAVOO_clean_sbu_0, # of connection points: 4
#     Node 10, Type 0, BuildingBlock: AZAVOO_clean_sbu_0, # of connection points: 4
#     Node 11, Type 0, BuildingBlock: AZAVOO_clean_sbu_0, # of connection points: 4
#     Node 12, Type 0, BuildingBlock: AZAVOO_clean_sbu_0, # of connection points: 4
#     Node 13, Type 0, BuildingBlock: AZAVOO_clean_sbu_0, # of connection points: 4
#     Node 14, Type 0, BuildingBlock: AZAVOO_clean_sbu_0, # of connection points: 4
#     Node 15, Type 0, BuildingBlock: AZAVOO_clean_sbu_0, # of connection points: 4
#     Node 16, Type 0, BuildingBlock: AZAVOO_clean_sbu_0, # of connection points: 4
#     Node 17, Type 0, BuildingBlock: AZAVOO_clean_sbu_0, # of connection points: 4
#     Edge 18, Type (0, 0), BuildingBlock: ZUJKAS_clean_linker_0, # of connection points: 2
#     Edge 19, Type (0, 0), BuildingBlock: ZUJKAS_clean_linker_0, # of connection points: 2
#     Edge 20, Type (0, 0), BuildingBlock: ZUJKAS_clean_linker_0, # of connection points: 2
#     Edge 21, Type (0, 0), BuildingBlock: ZUJKAS_clean_linker_0, # of connection points: 2
#     Edge 22, Type (0, 0), BuildingBlock: ZUJKAS_clean_linker_0, # of connection points: 2
#     Edge 23, Type (0, 0), BuildingBlock: ZUJKAS_clean_linker_0, # of connection points: 2
#     Edge 24, Type (0, 0), BuildingBlock: ZUJKAS_clean_linker_0, # of connection points: 2
#     Edge 25, Type (0, 0), BuildingBlock: ZUJKAS_clean_linker_0, # of connection points: 2
#     Edge 26, Type (0, 0), BuildingBlock: ZUJKAS_clean_linker_0, # of connection points: 2
#     Edge 27, Type (0, 0), BuildingBlock: ZUJKAS_clean_linker_0, # of connection points: 2
#     Edge 28, Type (0, 0), BuildingBlock: ZUJKAS_clean_linker_0, # of connection points: 2
#     Edge 29, Type (0, 0), BuildingBlock: ZUJKAS_clean_linker_0, # of connection points: 2
#     Edge 30, Type (0, 0), BuildingBlock: ZUJKAS_clean_linker_0, # of connection points: 2
#     Edge 31, Type (0, 0), BuildingBlock: ZUJKAS_clean_linker_0, # of connection points: 2
#     Edge 32, Type (0, 0), BuildingBlock: ZUJKAS_clean_linker_0, # of connection points: 2
#     Edge 33, Type (0, 0), BuildingBlock: ZUJKAS_clean_linker_0, # of connection points: 2
#     Edge 34, Type (0, 0), BuildingBlock: ZUJKAS_clean_linker_0, # of connection points: 2
#     Edge 35, Type (0, 0), BuildingBlock: ZUJKAS_clean_linker_0, # of connection points: 2
#     Edge 36, Type (0, 0), BuildingBlock: ZUJKAS_clean_linker_0, # of connection points: 2
#     Edge 37, Type (0, 0), BuildingBlock: ZUJKAS_clean_linker_0, # of connection points: 2
#     Edge 38, Type (0, 0), BuildingBlock: ZUJKAS_clean_linker_0, # of connection points: 2
#     Edge 39, Type (0, 0), BuildingBlock: ZUJKAS_clean_linker_0, # of connection points: 2
#     Edge 40, Type (0, 0), BuildingBlock: ZUJKAS_clean_linker_0, # of connection points: 2
#     Edge 41, Type (0, 0), BuildingBlock: ZUJKAS_clean_linker_0, # of connection points: 2
#     Edge 42, Type (0, 0), BuildingBlock: ZUJKAS_clean_linker_0, # of connection points: 2
#     Edge 43, Type (0, 0), BuildingBlock: ZUJKAS_clean_linker_0, # of connection points: 2
#     Edge 44, Type (0, 0), BuildingBlock: ZUJKAS_clean_linker_0, # of connection points: 2
#     Edge 45, Type (0, 0), BuildingBlock: ZUJKAS_clean_linker_0, # of connection points: 2
#     Edge 46, Type (0, 0), BuildingBlock: ZUJKAS_clean_linker_0, # of connection points: 2
#     Edge 47, Type (0, 0), BuildingBlock: ZUJKAS_clean_linker_0, # of connection points: 2
#     Edge 48, Type (0, 0), BuildingBlock: ZUJKAS_clean_linker_0, # of connection points: 2
#     Edge 49, Type (0, 0), BuildingBlock: ZUJKAS_clean_linker_0, # of connection points: 2
#     Edge 50, Type (0, 0), BuildingBlock: ZUJKAS_clean_linker_0, # of connection points: 2
#     Edge 51, Type (0, 0), BuildingBlock: ZUJKAS_clean_linker_0, # of connection points: 2
#     Edge 52, Type (0, 0), BuildingBlock: ZUJKAS_clean_linker_0, # of connection points: 2
#     Edge 53, Type (0, 0), BuildingBlock: ZUJKAS_clean_linker_0, # of connection points: 2
# Relax obj value: 0.018
# Max RMSD: 0.023
# Mean RMSD: 0.023
data_MOF--net-unb--node1-AZAVOO_clean_sbu_0--edge1-ZUJKAS_clean_linker_0
_symmetry_space_group_name_H-M    P1
_symmetry_Int_Tables_number       1
_symmetry_cell_setting            triclinic
loop_
_symmetry_equiv_pos_as_xyz
'x, y, z'
_cell_length_a     88.389087
_cell_length_b     88.425229
_cell_length_c     30.563581
_cell_angle_alpha  90.003865
_cell_angle_beta   90.007537
_cell_angle_gamma 120.01146
loop_
_atom_site_label
_atom_site_type_symbol
_atom_site_fract_x
_atom_site_fract_y
_atom_site_fract_z
_atom_type_partial_charge
Mg0 Mg 0.11997 0.24769 0.08297 0.0
O1 O 0.12582 0.26746 0.02743 0.0
O2 O 0.10873 0.27908 0.03828 0.0
Mg3 Mg 0.09215 0.26691 0.09928 0.0
C4 C 0.12039 0.27789 0.01638 0.0
C5 C 0.14154 0.2304 0.07133 0.0
O6 O 0.12651 0.21832 0.08737 0.0
O7 O 0.13546 0.26994 0.13062 0.0
O8 O 0.11718 0.28018 0.14107 0.0
O9 O 0.09873 0.22659 0.04372 0.0
O10 O 0.09471 0.24369 0.08913 0.0
C11 C 0.13151 0.28045 0.14913 0.0
C12 C 0.08833 0.23142 0.06027 0.0
O13 O 0.14388 0.24564 0.06537 0.0
Mg14 Mg 0.7531 0.87551 0.08327 0.0
O15 O 0.73194 0.86091 0.0312 0.0
O16 O 0.72078 0.8323 0.04255 0.0
Mg17 Mg 0.73452 0.82864 0.10155 0.0
C18 C 0.72135 0.84499 0.02116 0.0
C19 C 0.77003 0.91397 0.06476 0.0
O20 O 0.78292 0.91115 0.07427 0.0
O21 O 0.7321 0.86917 0.13453 0.0
O22 O 0.72211 0.84071 0.14526 0.0
O23 O 0.77296 0.87466 0.04008 0.0
O24 O 0.7573 0.85444 0.08908 0.0
C25 C 0.722 0.8548 0.15396 0.0
C26 C 0.76865 0.85977 0.05801 0.0
O27 O 0.7545 0.90115 0.06557 0.0
Mg28 Mg 0.12512 0.87793 0.08337 0.0
O29 O 0.13969 0.87229 0.02916 0.0
O30 O 0.16828 0.88868 0.0433 0.0
Mg31 Mg 0.17197 0.9054 0.10357 0.0
C32 C 0.15565 0.87734 0.02021 0.0
C33 C 0.08606 0.85237 0.08336 0.0
O34 O 0.08807 0.86388 0.11337 0.0
O35 O 0.13123 0.86221 0.1318 0.0
O36 O 0.15964 0.88023 0.14464 0.0
O37 O 0.12583 0.89933 0.04377 0.0
O38 O 0.14638 0.90305 0.09085 0.0
C39 C 0.14541 0.86593 0.15147 0.0
C40 C 0.1409 0.90958 0.06132 0.0
O41 O 0.09952 0.854 0.06408 0.0
Mg42 Mg 0.24625 0.12235 0.91721 0.0
O43 O 0.26619 0.12786 0.9722 0.0
O44 O 0.27841 0.11149 0.95835 0.0
Mg45 Mg 0.26578 0.09497 0.89756 0.0
C46 C 0.27701 0.12274 0.9815 0.0
C47 C 0.23201 0.1472 0.91765 0.0
O48 O 0.2223 0.13521 0.88881 0.0
O49 O 0.2683 0.13823 0.86926 0.0
O50 O 0.27859 0.12014 0.85668 0.0
O51 O 0.22538 0.10077 0.95623 0.0
O52 O 0.24249 0.09726 0.90967 0.0
C53 C 0.27875 0.13447 0.84971 0.0
C54 C 0.23037 0.09062 0.93889 0.0
O55 O 0.24431 0.14617 0.93623 0.0
Mg56 Mg 0.87481 0.12465 0.91901 0.0
O57 O 0.87027 0.1395 0.9745 0.0
O58 O 0.88697 0.16804 0.96049 0.0
Mg59 Mg 0.90284 0.17139 0.89866 0.0
C60 C 0.87576 0.15549 0.984 0.0
C61 C 0.84596 0.08628 0.91449 0.0
O62 O 0.85474 0.08825 0.87821 0.0
O63 O 0.85894 0.13124 0.87222 0.0
O64 O 0.87735 0.15948 0.8588 0.0
O65 O 0.89639 0.12483 0.95671 0.0
O66 O 0.90009 0.14556 0.91027 0.0
C67 C 0.8628 0.14544 0.85255 0.0
C68 C 0.90671 0.13985 0.939 0.0
O69 O 0.85065 0.09941 0.9393 0.0
Mg70 Mg 0.87512 0.75431 0.90753 0.0
O71 O 0.86116 0.73433 0.96275 0.0
O72 O 0.83243 0.72334 0.95399 0.0
Mg73 Mg 0.82798 0.73521 0.89266 0.0
C74 C 0.84537 0.72424 0.97485 0.0
C75 C 0.9139 0.77151 0.92114 0.0
O76 O 0.91108 0.78387 0.90663 0.0
O77 O 0.86826 0.73222 0.85939 0.0
O78 O 0.83936 0.72115 0.85273 0.0
O79 O 0.87476 0.77501 0.94799 0.0
O80 O 0.85392 0.7583 0.9013 0.0
C81 C 0.85345 0.72111 0.84351 0.0
C82 C 0.8596 0.77023 0.931 0.0
O83 O 0.90096 0.75616 0.92523 0.0
Mg84 Mg 0.78791 0.57849 0.40837 0.0
O85 O 0.79417 0.59936 0.3556 0.0
O86 O 0.77581 0.60959 0.36454 0.0
Mg87 Mg 0.75845 0.59595 0.42346 0.0
C88 C 0.78836 0.60943 0.34427 0.0
C89 C 0.8162 0.56846 0.4158 0.0
O90 O 0.80595 0.56041 0.44923 0.0
O91 O 0.80176 0.5997 0.45964 0.0
O92 O 0.7829 0.60947 0.46706 0.0
O93 O 0.7677 0.55815 0.36499 0.0
O94 O 0.76236 0.57358 0.41303 0.0
C95 C 0.79716 0.60991 0.47705 0.0
C96 C 0.75676 0.56214 0.38217 0.0
O97 O 0.81277 0.57811 0.39187 0.0
Mg98 Mg 0.41942 0.20875 0.42127 0.0
O99 O 0.39855 0.19328 0.36925 0.0
O100 O 0.38714 0.16489 0.38444 0.0
Mg101 Mg 0.40131 0.16225 0.44399 0.0
C102 C 0.38783 0.17721 0.36118 0.0
C103 C 0.43217 0.24758 0.41884 0.0
O104 O 0.44226 0.2461 0.44806 0.0
O105 O 0.3982 0.20275 0.47166 0.0
O106 O 0.38865 0.17459 0.48569 0.0
O107 O 0.43961 0.2078 0.37982 0.0
O108 O 0.42395 0.18802 0.42975 0.0
C109 C 0.38827 0.18867 0.49239 0.0
C110 C 0.43541 0.19315 0.39895 0.0
O111 O 0.42021 0.23383 0.40086 0.0
Mg112 Mg 0.78686 0.20918 0.42136 0.0
O113 O 0.80322 0.20405 0.37147 0.0
O114 O 0.83146 0.22134 0.38785 0.0
Mg115 Mg 0.83317 0.23785 0.44719 0.0
C116 C 0.81938 0.2096 0.36423 0.0
C117 C 0.75848 0.18251 0.35826 0.0
O118 O 0.76971 0.19373 0.3301 0.0
O119 O 0.79233 0.19397 0.47323 0.0
O120 O 0.8204 0.21273 0.48821 0.0
O121 O 0.78836 0.23036 0.37891 0.0
O122 O 0.80749 0.23451 0.43073 0.0
C123 C 0.80632 0.19824 0.49461 0.0
C124 C 0.8028 0.2408 0.39893 0.0
O125 O 0.76206 0.18484 0.39885 0.0
Mg126 Mg 0.91234 0.45254 0.24788 0.0
O127 O 0.93345 0.45926 0.30027 0.0
O128 O 0.94475 0.44191 0.28937 0.0
Mg129 Mg 0.9313 0.42455 0.23016 0.0
C130 C 0.94405 0.45399 0.31062 0.0
C131 C 0.89499 0.47358 0.26672 0.0
O132 O 0.88233 0.45776 0.25722 0.0
O133 O 0.9334 0.46732 0.19688 0.0
O134 O 0.9438 0.44915 0.18671 0.0
O135 O 0.89256 0.4319 0.29106 0.0
O136 O 0.90832 0.42729 0.24244 0.0
C137 C 0.94374 0.46326 0.1779 0.0
C138 C 0.89699 0.42134 0.27359 0.0
O139 O 0.91064 0.47664 0.26551 0.0
Mg140 Mg 0.54381 0.456 0.23853 0.0
O141 O 0.53825 0.46986 0.2948 0.0
O142 O 0.55635 0.49858 0.28746 0.0
Mg143 Mg 0.57212 0.50314 0.22494 0.0
C144 C 0.54425 0.48556 0.30795 0.0
C145 C 0.5209 0.41691 0.24847 0.0
O146 O 0.5353 0.41902 0.23024 0.0
O147 O 0.52854 0.46329 0.19169 0.0
O148 O 0.54649 0.49217 0.18565 0.0
O149 O 0.56515 0.45603 0.27733 0.0
O150 O 0.56904 0.47703 0.23154 0.0
C151 C 0.53227 0.47818 0.17638 0.0
C152 C 0.57551 0.47114 0.2601 0.0
O153 O 0.51966 0.43034 0.25642 0.0
Mg154 Mg 0.54352 0.08872 0.253 0.0
O155 O 0.52955 0.06757 0.3056 0.0
O156 O 0.5008 0.05645 0.29688 0.0
Mg157 Mg 0.49632 0.06992 0.23883 0.0
C158 C 0.51377 0.05701 0.31684 0.0
C159 C 0.58005 0.09288 0.23753 0.0
O160 O 0.57543 0.09391 0.19726 0.0
O161 O 0.53652 0.06765 0.20137 0.0
O162 O 0.50775 0.05715 0.19443 0.0
O163 O 0.543 0.1087 0.29673 0.0
O164 O 0.52232 0.09274 0.24903 0.0
C165 C 0.52177 0.05719 0.18406 0.0
C166 C 0.52792 0.10423 0.27973 0.0
O167 O 0.56935 0.09006 0.26845 0.0
Mg168 Mg 0.45402 0.91297 0.75476 0.0
O169 O 0.46041 0.93229 0.69768 0.0
O170 O 0.44322 0.94399 0.70442 0.0
Mg171 Mg 0.42646 0.93281 0.76534 0.0
C172 C 0.45512 0.94257 0.6844 0.0
C173 C 0.47758 0.89706 0.75206 0.0
O174 O 0.46385 0.88554 0.7741 0.0
O175 O 0.46926 0.93563 0.80134 0.0
O176 O 0.45168 0.94702 0.80616 0.0
O177 O 0.43293 0.89162 0.71582 0.0
O178 O 0.42884 0.90929 0.75902 0.0
C179 C 0.4657 0.94697 0.81617 0.0
C180 C 0.42255 0.89674 0.7309 0.0
O181 O 0.47808 0.91097 0.73925 0.0
Mg182 Mg 0.08614 0.54041 0.75205 0.0
O183 O 0.06623 0.52612 0.69714 0.0
O184 O 0.05507 0.49746 0.70757 0.0
Mg185 Mg 0.06754 0.49346 0.76867 0.0
C186 C 0.05599 0.51025 0.68595 0.0
C187 C 0.10293 0.57913 0.73922 0.0
O188 O 0.1152 0.57645 0.75515 0.0
O189 O 0.06397 0.53346 0.80006 0.0
O190 O 0.05386 0.50493 0.80994 0.0
O191 O 0.10708 0.54021 0.71213 0.0
O192 O 0.09047 0.51944 0.75899 0.0
C193 C 0.05345 0.5189 0.81815 0.0
C194 C 0.10252 0.52519 0.7296 0.0
O195 O 0.08774 0.56608 0.73378 0.0
Mg196 Mg 0.45579 0.54378 0.74066 0.0
O197 O 0.46974 0.53742 0.6859 0.0
O198 O 0.49843 0.55549 0.69446 0.0
Mg199 Mg 0.50296 0.57245 0.75449 0.0
C200 C 0.48556 0.54321 0.67395 0.0
C201 C 0.41932 0.51142 0.75594 0.0
O202 O 0.42403 0.51706 0.79618 0.0
O203 O 0.4632 0.52935 0.79011 0.0
O204 O 0.49191 0.5478 0.79728 0.0
O205 O 0.45559 0.56456 0.69966 0.0
O206 O 0.47684 0.56916 0.74529 0.0
C207 C 0.478 0.53361 0.80708 0.0
C208 C 0.47079 0.57521 0.71602 0.0
O209 O 0.42999 0.51929 0.72494 0.0
Mg210 Mg 0.57908 0.78904 0.57957 0.0
O211 O 0.59852 0.79436 0.6356 0.0
O212 O 0.60995 0.77711 0.62498 0.0
Mg213 Mg 0.59782 0.76077 0.56358 0.0
C214 C 0.6088 0.78879 0.64687 0.0
C215 C 0.56381 0.81291 0.5848 0.0
O216 O 0.55249 0.79957 0.56131 0.0
O217 O 0.60167 0.80446 0.53275 0.0
O218 O 0.61159 0.78592 0.52251 0.0
O219 O 0.55755 0.76771 0.61775 0.0
O220 O 0.57477 0.76373 0.57267 0.0
C221 C 0.61214 0.80038 0.51458 0.0
C222 C 0.56228 0.75728 0.60092 0.0
O223 O 0.57757 0.81314 0.59783 0.0
Mg224 Mg 0.21041 0.79033 0.57771 0.0
O225 O 0.2049 0.80511 0.63163 0.0
O226 O 0.22162 0.83365 0.61752 0.0
Mg227 Mg 0.23836 0.8371 0.55744 0.0
C228 C 0.21014 0.8211 0.64053 0.0
C229 C 0.18498 0.75135 0.57845 0.0
O230 O 0.19688 0.75335 0.54964 0.0
O231 O 0.19499 0.79663 0.5288 0.0
O232 O 0.21328 0.82497 0.51599 0.0
O233 O 0.23158 0.79079 0.61779 0.0
O234 O 0.23568 0.8114 0.57051 0.0
C235 C 0.19891 0.81083 0.50901 0.0
C236 C 0.24202 0.80581 0.60029 0.0
O237 O 0.18628 0.76484 0.59676 0.0
Mg238 Mg 0.2113 0.42174 0.5807 0.0
O239 O 0.19535 0.40054 0.63165 0.0
O240 O 0.167 0.39066 0.61952 0.0
Mg241 Mg 0.16476 0.40496 0.55977 0.0
C242 C 0.17927 0.39056 0.64133 0.0
C243 C 0.24013 0.42321 0.64134 0.0
O244 O 0.2293 0.42357 0.67018 0.0
O245 O 0.20461 0.40068 0.52908 0.0
O246 O 0.17638 0.39174 0.51756 0.0
O247 O 0.21086 0.44186 0.62376 0.0
O248 O 0.19094 0.42699 0.57342 0.0
C249 C 0.19017 0.39097 0.5094 0.0
C250 C 0.19625 0.4381 0.60503 0.0
O251 O 0.23613 0.42176 0.60099 0.0
H252 H 0.21725 0.38995 0.46761 0.0
H253 H 0.21505 0.37104 0.40609 0.0
H254 H 0.15885 0.34568 0.41209 0.0
H255 H 0.16084 0.36426 0.47311 0.0
H256 H 0.17351 0.32265 0.40122 0.0
H257 H 0.19845 0.37778 0.28211 0.0
H258 H 0.21113 0.38005 0.33035 0.0
H259 H 0.19056 0.3793 0.33547 0.0
C260 C 0.20443 0.3802 0.4561 0.0
C261 C 0.18922 0.37874 0.47497 0.0
C262 C 0.20322 0.36947 0.42093 0.0
C263 C 0.18679 0.3571 0.40446 0.0
C264 C 0.17165 0.35516 0.42438 0.0
H265 H 0.12961 0.30739 0.18689 0.0
H266 H 0.14741 0.32625 0.24629 0.0
C267 C 0.17283 0.36588 0.45915 0.0
C268 C 0.18493 0.34669 0.36489 0.0
H269 H 0.18496 0.3494 0.25352 0.0
C270 C 0.17643 0.32846 0.36884 0.0
C271 C 0.18872 0.35441 0.32287 0.0
C272 C 0.19766 0.37395 0.31702 0.0
C273 C 0.17054 0.31765 0.33179 0.0
C274 C 0.17337 0.32535 0.28986 0.0
C275 C 0.1829 0.3436 0.2858 0.0
C276 C 0.16406 0.31487 0.25096 0.0
C277 C 0.16019 0.2981 0.33787 0.0
C278 C 0.16778 0.30244 0.23331 0.0
C279 C 0.15756 0.29155 0.19916 0.0
C280 C 0.14345 0.29291 0.18236 0.0
C281 C 0.14025 0.30585 0.19921 0.0
C282 C 0.15048 0.31672 0.23306 0.0
H283 H 0.15774 0.2943 0.37292 0.0
H284 H 0.14742 0.29259 0.32076 0.0
H285 H 0.16745 0.29211 0.32329 0.0
H286 H 0.17833 0.30095 0.2465 0.0
H287 H 0.16042 0.28177 0.18681 0.0
H288 H 0.61368 0.82917 0.47568 0.0
H289 H 0.63305 0.84674 0.41589 0.0
H290 H 0.6584 0.81588 0.41937 0.0
H291 H 0.63936 0.79844 0.47888 0.0
H292 H 0.68155 0.85324 0.40982 0.0
H293 H 0.62618 0.82486 0.29109 0.0
H294 H 0.62417 0.8352 0.33973 0.0
H295 H 0.6245 0.81514 0.3441 0.0
C296 C 0.62353 0.82629 0.46408 0.0
C297 C 0.62483 0.81226 0.48172 0.0
C298 C 0.63454 0.8363 0.42987 0.0
C299 C 0.647 0.83246 0.41304 0.0
C300 C 0.64884 0.81903 0.43195 0.0
H301 H 0.69542 0.82601 0.19268 0.0
H302 H 0.67721 0.82495 0.25365 0.0
C303 C 0.63787 0.80901 0.46585 0.0
C304 C 0.65742 0.84133 0.37374 0.0
H305 H 0.65449 0.84002 0.26235 0.0
C306 C 0.67569 0.85081 0.37755 0.0
C307 C 0.64963 0.83801 0.33183 0.0
C308 C 0.63005 0.8277 0.32603 0.0
C309 C 0.68642 0.85603 0.34033 0.0
C310 C 0.67861 0.85172 0.29844 0.0
C311 C 0.66036 0.84333 0.29463 0.0
C312 C 0.68889 0.85298 0.2591 0.0
C313 C 0.70597 0.86491 0.34602 0.0
C314 C 0.70129 0.86914 0.24149 0.0
C315 C 0.7118 0.86983 0.20638 0.0
C316 C 0.71008 0.85434 0.18865 0.0
C317 C 0.69723 0.8382 0.20569 0.0
C318 C 0.68673 0.83755 0.24045 0.0
H319 H 0.70987 0.86611 0.38097 0.0
H320 H 0.7112 0.8575 0.32845 0.0
H321 H 0.71214 0.8782 0.33162 0.0
H322 H 0.70302 0.88119 0.25532 0.0
H323 H 0.72155 0.88247 0.19393 0.0
H324 H 0.1987 0.83924 0.47548 0.0
H325 H 0.18067 0.84 0.41628 0.0
H326 H 0.15378 0.78381 0.40747 0.0
H327 H 0.17188 0.78287 0.4672 0.0
H328 H 0.16779 0.8015 0.32743 0.0
H329 H 0.1289 0.8265 0.40896 0.0
H330 H 0.15156 0.83889 0.42374 0.0
H331 H 0.13901 0.81618 0.43866 0.0
C332 C 0.18881 0.82699 0.46145 0.0
C333 C 0.18678 0.811 0.47592 0.0
C334 C 0.17839 0.82745 0.42787 0.0
C335 C 0.16573 0.81194 0.40799 0.0
C336 C 0.16337 0.79589 0.42281 0.0
H337 H 0.11729 0.83866 0.19217 0.0
H338 H 0.11801 0.82023 0.25128 0.0
C339 C 0.17371 0.7954 0.45687 0.0
C340 C 0.15651 0.81301 0.3688 0.0
H341 H 0.13517 0.83365 0.33172 0.0
C342 C 0.1602 0.80806 0.32837 0.0
C343 C 0.14637 0.82129 0.37011 0.0
C344 C 0.14107 0.82585 0.4128 0.0
C345 C 0.1555 0.81276 0.289 0.0
C346 C 0.14709 0.82278 0.29036 0.0
C347 C 0.14183 0.82616 0.33075 0.0
C348 C 0.14616 0.83218 0.25138 0.0
C349 C 0.16038 0.80777 0.24631 0.0
C350 C 0.16174 0.84496 0.23206 0.0
C351 C 0.16141 0.85557 0.19882 0.0
C352 C 0.14546 0.85362 0.18417 0.0
C353 C 0.12978 0.84044 0.20266 0.0
C354 C 0.13015 0.8299 0.23636 0.0
H355 H 0.16104 0.79561 0.24984 0.0
H356 H 0.15089 0.80587 0.22009 0.0
H357 H 0.1735 0.81835 0.23609 0.0
H358 H 0.17426 0.84719 0.24383 0.0
H359 H 0.17371 0.86553 0.18522 0.0
H360 H 0.38733 0.21669 0.52865 0.0
H361 H 0.3685 0.21601 0.58861 0.0
H362 H 0.34329 0.15981 0.59208 0.0
H363 H 0.36179 0.16028 0.53258 0.0
H364 H 0.32017 0.17463 0.59742 0.0
H365 H 0.37548 0.20281 0.71639 0.0
H366 H 0.37755 0.21413 0.66576 0.0
H367 H 0.37703 0.1936 0.66504 0.0
C368 C 0.37765 0.20418 0.54192 0.0
C369 C 0.37619 0.18854 0.52612 0.0
C370 C 0.36695 0.20384 0.57618 0.0
C371 C 0.35463 0.18787 0.59484 0.0
C372 C 0.35273 0.17227 0.57803 0.0
H373 H 0.30633 0.13358 0.81292 0.0
H374 H 0.32493 0.15153 0.75344 0.0
C375 C 0.3634 0.17259 0.54414 0.0
C376 C 0.34426 0.187 0.63364 0.0
H377 H 0.34711 0.18924 0.74499 0.0
C378 C 0.32601 0.17828 0.6297 0.0
C379 C 0.35202 0.19178 0.67553 0.0
C380 C 0.37159 0.20106 0.68136 0.0
C381 C 0.31524 0.17298 0.66683 0.0
C382 C 0.32301 0.17662 0.7088 0.0
C383 C 0.34125 0.18655 0.71267 0.0
C384 C 0.31274 0.16742 0.748 0.0
C385 C 0.29569 0.16225 0.66101 0.0
C386 C 0.29994 0.17069 0.76526 0.0
C387 C 0.28919 0.16038 0.7995 0.0
C388 C 0.29107 0.14662 0.81666 0.0
C389 C 0.30439 0.14393 0.80025 0.0
C390 C 0.31512 0.15424 0.76638 0.0
H391 H 0.29184 0.15951 0.62604 0.0
H392 H 0.29048 0.14963 0.67863 0.0
H393 H 0.28946 0.16935 0.67523 0.0
H394 H 0.29803 0.18092 0.75164 0.0
H395 H 0.27908 0.16282 0.81152 0.0
H396 H 0.77822 0.17025 0.53394 0.0
H397 H 0.77906 0.15266 0.5952 0.0
H398 H 0.83537 0.18208 0.59343 0.0
H399 H 0.83473 0.19954 0.53276 0.0
H400 H 0.81933 0.14401 0.60252 0.0
H401 H 0.79498 0.17507 0.72068 0.0
H402 H 0.78278 0.16531 0.67138 0.0
H403 H 0.8037 0.18482 0.66808 0.0
C404 C 0.79077 0.17281 0.54632 0.0
C405 C 0.80641 0.18643 0.52879 0.0
C406 C 0.79121 0.16279 0.58132 0.0
C407 C 0.80728 0.1662 0.59889 0.0
C408 C 0.82284 0.17927 0.58026 0.0
H409 H 0.86441 0.17392 0.81353 0.0
H410 H 0.846 0.17444 0.755 0.0
C411 C 0.82243 0.1893 0.5457 0.0
C412 C 0.80839 0.15718 0.63843 0.0
H413 H 0.8084 0.16018 0.7497 0.0
C414 C 0.81646 0.14703 0.63479 0.0
C415 C 0.80466 0.16128 0.6803 0.0
C416 C 0.79609 0.17225 0.68578 0.0
C417 C 0.82216 0.14201 0.67202 0.0
C418 C 0.81958 0.14723 0.71378 0.0
C419 C 0.81029 0.1562 0.71755 0.0
C420 C 0.82916 0.14639 0.75249 0.0
C421 C 0.83219 0.13247 0.66627 0.0
C422 C 0.82553 0.13042 0.77111 0.0
C423 C 0.8361 0.13006 0.80477 0.0
C424 C 0.85048 0.14567 0.82006 0.0
C425 C 0.85357 0.16164 0.80234 0.0
C426 C 0.843 0.16198 0.769 0.0
H427 H 0.83428 0.13065 0.63126 0.0
H428 H 0.84512 0.13976 0.68261 0.0
H429 H 0.8249 0.11942 0.68185 0.0
H430 H 0.81479 0.11827 0.75899 0.0
H431 H 0.83332 0.11754 0.81784 0.0
H432 H 0.82994 0.68654 0.84314 0.0
H433 H 0.82506 0.66558 0.78505 0.0
H434 H 0.8685 0.70594 0.71274 0.0
H435 H 0.8741 0.72654 0.77248 0.0
H436 H 0.81455 0.66768 0.71028 0.0
H437 H 0.8757 0.66643 0.68411 0.0
H438 H 0.87219 0.67615 0.73213 0.0
H439 H 0.87974 0.68838 0.68189 0.0
C440 C 0.83875 0.69072 0.81539 0.0
C441 C 0.85236 0.70806 0.812 0.0
C442 C 0.83597 0.67878 0.78221 0.0
C443 C 0.84644 0.68409 0.74442 0.0
C444 C 0.86052 0.70132 0.74192 0.0
H445 H 0.80181 0.64206 0.4938 0.0
H446 H 0.81598 0.66042 0.55754 0.0
C447 C 0.86364 0.71314 0.77587 0.0
C448 C 0.84095 0.67247 0.70551 0.0
H449 H 0.85553 0.65693 0.62296 0.0
C450 C 0.82352 0.66515 0.69174 0.0
C451 C 0.85252 0.66897 0.68125 0.0
C452 C 0.87102 0.67526 0.69594 0.0
C453 C 0.81743 0.65482 0.65411 0.0
C454 C 0.82928 0.65239 0.62812 0.0
C455 C 0.84658 0.65916 0.64243 0.0
C456 C 0.82372 0.64289 0.58597 0.0
C457 C 0.79825 0.64651 0.64293 0.0
C458 C 0.82456 0.62762 0.57923 0.0
C459 C 0.81684 0.61731 0.54212 0.0
C460 C 0.80802 0.62208 0.51175 0.0
C461 C 0.80826 0.63795 0.51717 0.0
C462 C 0.81628 0.6484 0.55361 0.0
H463 H 0.79026 0.64499 0.67243 0.0
H464 H 0.79634 0.65501 0.61953 0.0
H465 H 0.79328 0.63347 0.62772 0.0
H466 H 0.83039 0.62323 0.60365 0.0
H467 H 0.81686 0.60513 0.53857 0.0
H468 H 0.97205 0.4629 0.14401 0.0
H469 H 0.99066 0.48036 0.08389 0.0
H470 H 0.9615 0.50735 0.07345 0.0
H471 H 0.94265 0.48982 0.13407 0.0
H472 H 0.96531 0.49296 0.99373 0.0
H473 H 0.02897 0.53221 0.07647 0.0
H474 H 0.01862 0.50955 0.09126 0.0
H475 H 0.00843 0.52212 0.10569 0.0
C476 C 0.96967 0.47267 0.12937 0.0
C477 C 0.95582 0.47492 0.14376 0.0
C478 C 0.98044 0.48276 0.09524 0.0
C479 C 0.97761 0.49531 0.07471 0.0
C480 C 0.96398 0.49784 0.08926 0.0
H481 H 0.05328 0.54613 0.86099 0.0
H482 H 0.03365 0.54419 0.92024 0.0
C483 C 0.95325 0.48782 0.12385 0.0
C484 C 0.98799 0.50442 0.03553 0.0
H485 H 0.03009 0.52644 -0.00075 0.0
C486 C 0.97946 0.50069 0.99493 0.0
C487 C 0.0064 0.51474 0.0372 0.0
C488 C 0.01613 0.52005 0.08008 0.0
C489 C 0.98899 0.50566 0.95573 0.0
C490 C 0.00744 0.51439 0.95741 0.0
C491 C 0.01593 0.51954 0.99802 0.0
C492 C 0.01803 0.516 0.91836 0.0
C493 C 0.97923 0.50083 0.91286 0.0
C494 C 0.0157 0.50081 0.8978 0.0
C495 C 0.02692 0.50184 0.86442 0.0
C496 C 0.04073 0.51812 0.85087 0.0
C497 C 0.04273 0.5334 0.87059 0.0
C498 C 0.03154 0.53233 0.90439 0.0
H499 H 0.96623 0.49979 0.91634 0.0
H500 H 0.98674 0.51056 0.88701 0.0
H501 H 0.97707 0.48791 0.9021 0.0
H502 H 0.00559 0.48806 0.90872 0.0
H503 H 0.02496 0.48982 0.84988 0.0
H504 H 0.52219 0.50249 0.17428 0.0
H505 H 0.50628 0.50736 0.1157 0.0
H506 H 0.50148 0.46258 0.04647 0.0
H507 H 0.51628 0.45701 0.10668 0.0
H508 H 0.5185 0.51683 0.04036 0.0
H509 H 0.4552 0.45635 0.01792 0.0
H510 H 0.46858 0.46001 0.06573 0.0
H511 H 0.47271 0.45169 0.01599 0.0
C512 C 0.51722 0.4934 0.14712 0.0
C513 C 0.5204 0.4794 0.14475 0.0
C514 C 0.50816 0.49617 0.11365 0.0
C515 C 0.50256 0.4853 0.07657 0.0
C516 C 0.50517 0.47087 0.0751 0.0
H517 H 0.50515 0.5283 0.82336 0.0
H518 H 0.50926 0.51427 0.88753 0.0
C519 C 0.51377 0.46777 0.10934 0.0
C520 C 0.49647 0.49062 0.03722 0.0
H521 H 0.46604 0.47577 0.95534 0.0
C522 C 0.50685 0.50785 0.02232 0.0
C523 C 0.48121 0.47905 0.01359 0.0
C524 C 0.46871 0.46082 0.02947 0.0
C525 C 0.50268 0.51373 0.98421 0.0
C526 C 0.48817 0.50183 0.95886 0.0
C527 C 0.4774 0.48475 0.97428 0.0
C528 C 0.48419 0.50713 0.91638 0.0
C529 C 0.51383 0.53275 0.97189 0.0
C530 C 0.46817 0.50651 0.90968 0.0
C531 C 0.46561 0.51412 0.87232 0.0
C532 C 0.47913 0.52261 0.84162 0.0
C533 C 0.49464 0.52209 0.84694 0.0
C534 C 0.49702 0.51417 0.88365 0.0
H535 H 0.52053 0.54096 0.00091 0.0
H536 H 0.52406 0.5342 0.94846 0.0
H537 H 0.50591 0.53782 0.95629 0.0
H538 H 0.45803 0.50099 0.93437 0.0
H539 H 0.45351 0.51433 0.86888 0.0
H540 H 0.54606 0.06301 0.12102 0.0
H541 H 0.5415 0.04529 0.05514 0.0
H542 H 0.49084 0.00662 0.10348 0.0
H543 H 0.49499 0.02456 0.16804 0.0
H544 H 0.53361 0.01172 0.03396 0.0
H545 H 0.47881 0.02232 0.99104 0.0
H546 H 0.49375 0.03391 0.03505 0.0
H547 H 0.47567 0.01215 0.04356 0.0
C548 C 0.5341 0.05058 0.11779 0.0
C549 C 0.52071 0.04526 0.14903 0.0
C550 C 0.53151 0.04049 0.08024 0.0
C551 C 0.51562 0.02491 0.07393 0.0
C552 C 0.50297 0.01886 0.10713 0.0
H553 H 0.48196 0.942 0.88567 0.0
H554 H 0.49729 0.96267 0.94501 0.0
C555 C 0.50537 0.02907 0.14403 0.0
C556 C 0.51148 0.01567 0.03141 0.0
H557 H 0.48055 7e-05 0.95135 0.0
C558 C 0.52213 0.0093 0.0155 0.0
C559 C 0.4968 0.01299 0.00673 0.0
C560 C 0.48573 0.02088 0.0197 0.0
C561 C 0.51801 -0.00037 0.97641 0.0
C562 C 0.50256 0.99585 0.95352 0.0
C563 C 0.49234 0.00281 0.96883 0.0
C564 C 0.49613 0.98423 0.91462 0.0
C565 C 0.53034 0.99376 0.96 0.0
C566 C 0.49029 0.98934 0.87772 0.0
C567 C 0.48093 0.97734 0.84479 0.0
C568 C 0.47767 0.96014 0.84753 0.0
C569 C 0.48451 0.95528 0.88276 0.0
C570 C 0.49342 0.96715 0.91646 0.0
H571 H 0.54395 0.00283 0.97087 0.0
H572 H 0.5264 0.98069 0.97373 0.0
H573 H 0.53017 0.99291 0.92375 0.0
H574 H 0.49223 0.00243 0.8754 0.0
H575 H 0.47584 0.98137 0.81773 0.0
H576 H 0.1131 0.30252 0.98527 0.0
H577 H 0.12525 0.32101 0.92091 0.0
H578 H 0.1569 0.29758 0.89421 0.0
H579 H 0.14471 0.27881 0.95865 0.0
H580 H 0.16102 0.34526 0.9028 0.0
H581 H 0.13057 0.29263 0.77772 0.0
H582 H 0.12307 0.28952 0.8337 0.0
H583 H 0.14283 0.28952 0.82023 0.0
C584 C 0.12261 0.3012 0.96577 0.0
C585 C 0.12786 0.28909 0.97714 0.0
C586 C 0.12956 0.31184 0.92901 0.0
C587 C 0.14184 0.31055 0.90265 0.0
C588 C 0.14725 0.29859 0.91386 0.0
H589 H 0.20148 0.3874 0.6986 0.0
H590 H 0.19363 0.36784 0.76168 0.0
C591 C 0.14031 0.28793 0.95079 0.0
C592 C 0.14896 0.3219 0.86366 0.0
H593 H 0.14872 0.32132 0.75195 0.0
C594 C 0.15847 0.34005 0.86979 0.0
C595 C 0.14545 0.31501 0.82074 0.0
C596 C 0.13482 0.29562 0.81239 0.0
C597 C 0.16438 0.35156 0.83405 0.0
C598 C 0.16083 0.34468 0.79112 0.0
C599 C 0.15151 0.32651 0.78497 0.0
C600 C 0.16574 0.35615 0.7522 0.0
C601 C 0.17385 0.37098 0.84245 0.0
C602 C 0.15266 0.35578 0.72554 0.0
C603 C 0.15706 0.36689 0.68949 0.0
C604 C 0.17468 0.37855 0.6792 0.0
C605 C 0.18778 0.37866 0.70564 0.0
C606 C 0.18334 0.36754 0.7418 0.0
H607 H 0.17257 0.37408 0.87701 0.0
H608 H 0.18794 0.37653 0.83519 0.0
H609 H 0.16877 0.37752 0.8208 0.0
H610 H 0.139 0.34704 0.73302 0.0
H611 H 0.14661 0.36638 0.66983 0.0
H612 H 0.60939 0.81275 0.70521 0.0
H613 H 0.62846 0.82529 0.76907 0.0
H614 H 0.65253 0.79431 0.74124 0.0
H615 H 0.63372 0.78179 0.67752 0.0
H616 H 0.63184 0.80739 0.84277 0.0
H617 H 0.69425 0.84457 0.75233 0.0
H618 H 0.67319 0.83642 0.72651 0.0
H619 H 0.68172 0.82204 0.73637 0.0
C620 C 0.61877 0.80863 0.71259 0.0
C621 C 0.62005 0.7963 0.68605 0.0
C622 C 0.62964 0.81581 0.74908 0.0
C623 C 0.64208 0.81093 0.75938 0.0
C624 C 0.64325 0.79851 0.73332 0.0
H625 H 0.69573 0.8129 0.99308 0.0
H626 H 0.67614 0.80627 0.93084 0.0
C627 C 0.63238 0.79128 0.69703 0.0
C628 C 0.65357 0.81836 0.79804 0.0
H629 H 0.69644 0.84032 0.82884 0.0
C630 C 0.64596 0.81477 0.83978 0.0
C631 C 0.67196 0.82819 0.79397 0.0
C632 C 0.68079 0.8332 0.74988 0.0
C633 C 0.65631 0.82008 0.8777 0.0
C634 C 0.67472 0.82901 0.87361 0.0
C635 C 0.68232 0.83331 0.83186 0.0
C636 C 0.68632 0.83325 0.91214 0.0
C637 C 0.64747 0.81596 0.9218 0.0
C638 C 0.69882 0.85063 0.92172 0.0
C639 C 0.71015 0.8545 0.95729 0.0
C640 C 0.70928 0.84103 0.98364 0.0
C641 C 0.69677 0.82363 0.97367 0.0
C642 C 0.68544 0.8198 0.93825 0.0
H643 H 0.63395 0.81372 0.91948 0.0
H644 H 0.64669 0.80388 0.93483 0.0
H645 H 0.65496 0.82669 0.94546 0.0
H646 H 0.6998 0.86118 0.90169 0.0
H647 H 0.71965 0.86803 0.96391 0.0
H648 H 0.13644 0.86376 0.94551 0.0
H649 H 0.14434 0.85268 0.88119 0.0
H650 H 0.19172 0.86206 0.94571 0.0
H651 H 0.18431 0.87394 0.00891 0.0
H652 H 0.19893 0.87377 0.86722 0.0
H653 H 0.14157 0.80711 0.85856 0.0
H654 H 0.13538 0.82355 0.85622 0.0
H655 H 0.14558 0.82127 0.90487 0.0
C656 C 0.14846 0.86332 0.946 0.0
C657 C 0.15978 0.86975 0.98214 0.0
C658 C 0.1529 0.85684 0.90938 0.0
C659 C 0.16849 0.85622 0.90881 0.0
C660 C 0.17962 0.86238 0.94529 0.0
H661 H 0.19601 0.80167 0.71465 0.0
H662 H 0.18577 0.81 0.77993 0.0
C663 C 0.17538 0.86918 0.98141 0.0
C664 C 0.17384 0.85019 0.86942 0.0
H665 H 0.16035 0.81673 0.79605 0.0
C666 C 0.19051 0.86123 0.85191 0.0
C667 C 0.16299 0.83372 0.84969 0.0
C668 C 0.14547 0.82066 0.86859 0.0
C669 C 0.1966 0.85637 0.81522 0.0
C670 C 0.18542 0.84031 0.79411 0.0
C671 C 0.16882 0.82915 0.81185 0.0
C672 C 0.19082 0.83487 0.75382 0.0
C673 C 0.21515 0.86835 0.8003 0.0
C674 C 0.19663 0.84585 0.71706 0.0
C675 C 0.20281 0.84129 0.68023 0.0
C676 C 0.20282 0.82541 0.67889 0.0
C677 C 0.19619 0.81401 0.71482 0.0
C678 C 0.19033 0.81875 0.75209 0.0
H679 H 0.22345 0.87678 0.82745 0.0
H680 H 0.22117 0.86087 0.78724 0.0
H681 H 0.21518 0.87706 0.77411 0.0
H682 H 0.19656 0.85806 0.71697 0.0
H683 H 0.20753 0.8502 0.65271 0.0
H684 H 0.39229 0.19603 0.2865 0.0
H685 H 0.37262 0.18766 0.22354 0.0
H686 H 0.33597 0.14008 0.28951 0.0
H687 H 0.35598 0.14796 0.35143 0.0
H688 H 0.33948 0.13287 0.21056 0.0
H689 H 0.3293 0.18963 0.20431 0.0
H690 H 0.35202 0.19632 0.20044 0.0
H691 H 0.3401 0.18592 0.24965 0.0
C692 C 0.37997 0.18385 0.28764 0.0
C693 C 0.37567 0.17263 0.32384 0.0
C694 C 0.36865 0.17914 0.25179 0.0
C695 C 0.3526 0.1634 0.25203 0.0
C696 C 0.34824 0.15232 0.28851 0.0
H697 H 0.27086 0.13625 0.05565 0.0
H698 H 0.28874 0.14599 0.1222 0.0
C699 C 0.35969 0.15682 0.32388 0.0
C700 C 0.34083 0.15787 0.21334 0.0
H701 H 0.32061 0.17133 0.14061 0.0
C702 C 0.33524 0.14125 0.19559 0.0
C703 C 0.335 0.16863 0.19408 0.0
C704 C 0.33926 0.18603 0.21342 0.0
C705 C 0.3243 0.13521 0.15885 0.0
C706 C 0.31938 0.14639 0.13793 0.0
C707 C 0.32461 0.16286 0.15618 0.0
C708 C 0.30888 0.14121 0.09706 0.0
C709 C 0.31787 0.11674 0.1435 0.0
C710 C 0.31447 0.13575 0.06042 0.0
C711 C 0.30415 0.12988 0.02285 0.0
C712 C 0.28824 0.12983 0.02063 0.0
C713 C 0.28304 0.13611 0.05648 0.0
C714 C 0.29325 0.14168 0.09448 0.0
H715 H 0.31783 0.10835 0.17061 0.0
H716 H 0.30445 0.11077 0.12984 0.0
H717 H 0.32675 0.11685 0.1177 0.0
H718 H 0.32678 0.13587 0.06098 0.0
H719 H 0.30866 0.12542 0.99545 0.0
H720 H 0.87406 0.18492 -0.00027 0.0
H721 H 0.86369 0.19241 0.06572 0.0
H722 H 0.85253 0.14354 0.12465 0.0
H723 H 0.86214 0.1356 0.05767 0.0
H724 H 0.82739 0.15003 0.14272 0.0
H725 H 0.89015 0.20996 0.17688 0.0
H726 H 0.88205 0.21092 0.12383 0.0
H727 H 0.88802 0.19458 0.13524 0.0
C728 C 0.86942 0.17577 0.02677 0.0
C729 C 0.86907 0.15974 0.02371 0.0
C730 C 0.86361 0.18012 0.06462 0.0
C731 C 0.85781 0.16878 0.1007 0.0
C732 C 0.85709 0.15258 0.09738 0.0
H733 H 0.84885 0.20728 0.35599 0.0
H734 H 0.8574 0.19565 0.29424 0.0
C735 C 0.86258 0.14806 0.05912 0.0
C736 C 0.85235 0.17378 0.14163 0.0
H737 H 0.86527 0.2068 0.21586 0.0
C738 C 0.83574 0.16238 0.15899 0.0
C739 C 0.86336 0.18971 0.16347 0.0
C740 C 0.88195 0.20188 0.14916 0.0
C741 C 0.82968 0.16665 0.19687 0.0
C742 C 0.84026 0.1831 0.21701 0.0
C743 C 0.85703 0.1943 0.2002 0.0
C744 C 0.83436 0.18904 0.25557 0.0
C745 C 0.81215 0.15332 0.21524 0.0
C746 C 0.81855 0.18921 0.2546 0.0
C747 C 0.81346 0.19551 0.29033 0.0
C748 C 0.82435 0.20226 0.32716 0.0
C749 C 0.84023 0.20224 0.32795 0.0
C750 C 0.84512 0.19558 0.29267 0.0
H751 H 0.80872 0.13984 0.20575 0.0
H752 H 0.81195 0.15403 0.25149 0.0
H753 H 0.80191 0.15577 0.20184 0.0
H754 H 0.81028 0.1848 0.22588 0.0
H755 H 0.80124 0.19555 0.2886 0.0
H756 H 0.81355 0.69982 0.00688 0.0
H757 H 0.80743 0.68089 0.07021 0.0
H758 H 0.86263 0.70364 0.09441 0.0
H759 H 0.869 0.72283 0.03087 0.0
H760 H 0.81929 0.65628 0.08504 0.0
H761 H 0.84147 0.70797 0.21287 0.0
H762 H 0.83659 0.71139 0.15759 0.0
H763 H 0.85649 0.71138 0.16915 0.0
C764 C 0.82445 0.70091 0.02561 0.0
C765 C 0.84179 0.71293 0.01377 0.0
C766 C 0.8209 0.69001 0.06176 0.0
C767 C 0.83456 0.69096 0.08706 0.0
C768 C 0.8519 0.70287 0.07549 0.0
H769 H 0.8144 0.6123 0.28976 0.0
H770 H 0.82746 0.63219 0.22761 0.0
C771 C 0.8555 0.71378 0.03912 0.0
C772 C 0.83042 0.67932 0.12538 0.0
H773 H 0.82997 0.679 0.23705 0.0
C774 C 0.82179 0.66122 0.11831 0.0
C775 C 0.83361 0.68587 0.16861 0.0
C776 C 0.84245 0.7052 0.17785 0.0
C777 C 0.81588 0.64942 0.15346 0.0
C778 C 0.81885 0.65596 0.19671 0.0
C779 C 0.82783 0.67408 0.20378 0.0
C780 C 0.81148 0.64422 0.2349 0.0
C781 C 0.80588 0.63007 0.14411 0.0
C782 C 0.79839 0.64462 0.25989 0.0
C783 C 0.79091 0.63332 0.29531 0.0
C784 C 0.79645 0.62143 0.30667 0.0
C785 C 0.80976 0.62123 0.28184 0.0
C786 C 0.81722 0.63254 0.24625 0.0
H787 H 0.80216 0.62725 0.10908 0.0
H788 H 0.81411 0.62429 0.15267 0.0
H789 H 0.79384 0.62353 0.16435 0.0
H790 H 0.7938 0.65356 0.25161 0.0
H791 H 0.78076 0.63393 0.31372 0.0
H792 H 0.9454 0.47857 0.36792 0.0
H793 H 0.96502 0.49154 0.43058 0.0
H794 H 0.98908 0.46062 0.40181 0.0
H795 H 0.96972 0.44769 0.33916 0.0
H796 H 0.9683 0.47393 0.50351 0.0
H797 H 0.03099 0.51039 0.41398 0.0
H798 H 0.01003 0.50229 0.38767 0.0
H799 H 0.01842 0.48785 0.39823 0.0
C800 C 0.95494 0.4746 0.37473 0.0
C801 C 0.95599 0.4621 0.34837 0.0
C802 C 0.96613 0.48204 0.41055 0.0
C803 C 0.97867 0.47724 0.42036 0.0
C804 C 0.97973 0.46477 0.39424 0.0
H805 H 0.03099 0.47831 0.65558 0.0
H806 H 0.01212 0.47198 0.59192 0.0
C807 C 0.96854 0.4573 0.35858 0.0
C808 C 0.99014 0.48458 0.4591 0.0
H809 H 0.03294 0.506 0.49065 0.0
C810 C 0.98243 0.48112 0.50073 0.0
C811 C 0.00856 0.49417 0.45533 0.0
C812 C 0.01752 0.49906 0.41138 0.0
C813 C 0.99269 0.48631 0.5388 0.0
C814 C 0.01109 0.49499 0.53503 0.0
C815 C 0.01881 0.49917 0.49341 0.0
C816 C 0.02251 0.49905 0.57384 0.0
C817 C 0.98373 0.48233 0.58275 0.0
C818 C 0.03491 0.51637 0.58418 0.0
C819 C 0.04581 0.52008 0.6206 0.0
C820 C 0.0446 0.50648 0.64706 0.0
C821 C 0.03227 0.48912 0.63612 0.0
C822 C 0.02137 0.48546 0.59988 0.0
H823 H 0.97026 0.48018 0.58012 0.0
H824 H 0.98284 0.47024 0.59608 0.0
H825 H 0.99123 0.49309 0.60633 0.0
H826 H 0.03607 0.52703 0.56421 0.0
H827 H 0.05518 0.53358 0.62794 0.0
H828 H 0.51658 0.55572 0.63096 0.0
H829 H 0.52342 0.54251 0.56985 0.0
H830 H 0.47041 0.49945 0.56957 0.0
H831 H 0.46327 0.51283 0.63048 0.0
H832 H 0.52189 0.51094 0.56766 0.0
H833 H 0.47797 0.51365 0.44137 0.0
H834 H 0.48278 0.52562 0.49212 0.0
H835 H 0.46744 0.50258 0.49113 0.0
C836 C 0.50629 0.54349 0.61784 0.0
C837 C 0.48935 0.53535 0.63565 0.0
C838 C 0.51025 0.53594 0.58287 0.0
C839 C 0.49741 0.52008 0.56489 0.0
C840 C 0.48045 0.51188 0.5824 0.0
H841 H 0.51394 0.46299 0.35099 0.0
H842 H 0.50129 0.46928 0.41513 0.0
C843 C 0.47641 0.51951 0.61732 0.0
C844 C 0.50217 0.51208 0.52867 0.0
H845 H 0.4948 0.5009 0.42053 0.0
C846 C 0.51587 0.50863 0.5356 0.0
C847 C 0.49426 0.50902 0.48687 0.0
C848 C 0.47989 0.51302 0.47711 0.0
C849 C 0.52218 0.50265 0.50159 0.0
C850 C 0.51461 0.50008 0.45963 0.0
C851 C 0.50049 0.50286 0.45294 0.0
C852 C 0.52223 0.49601 0.42154 0.0
C853 C 0.53713 0.49944 0.51038 0.0
C854 C 0.53812 0.50899 0.40409 0.0
C855 C 0.54531 0.50552 0.36746 0.0
C856 C 0.53678 0.48893 0.34767 0.0
C857 C 0.52089 0.47587 0.36557 0.0
C858 C 0.51361 0.47943 0.40206 0.0
H859 H 0.53925 0.49871 0.54598 0.0
H860 H 0.53471 0.48711 0.49458 0.0
H861 H 0.54929 0.51028 0.4962 0.0
H862 H 0.54489 0.5219 0.41863 0.0
H863 H 0.55757 0.51588 0.35465 0.0
H864 H 0.47975 0.94264 0.62917 0.0
H865 H 0.49375 0.96188 0.56622 0.0
H866 H 0.46317 0.98679 0.58873 0.0
H867 H 0.44918 0.96782 0.65132 0.0
H868 H 0.47712 0.96625 0.48972 0.0
H869 H 0.51438 0.02772 0.58363 0.0
H870 H 0.50552 0.00641 0.60846 0.0
H871 H 0.49166 0.01551 0.59814 0.0
C872 C 0.47601 0.95223 0.62075 0.0
C873 C 0.46337 0.95371 0.64548 0.0
C874 C 0.48403 0.9632 0.58482 0.0
C875 C 0.47969 0.97593 0.57341 0.0
C876 C 0.46694 0.97726 0.59758 0.0
H877 H 0.48204 0.03098 0.3454 0.0
H878 H 0.47606 0.0109 0.4061 0.0
C879 C 0.45887 0.9663 0.63322 0.0
C880 C 0.48799 0.98761 0.53553 0.0
H881 H 0.51053 0.03068 0.50705 0.0
C882 C 0.48467 0.98032 0.49345 0.0
C883 C 0.49805 0.00594 0.54059 0.0
C884 C 0.50278 0.01438 0.58517 0.0
C885 C 0.49028 0.99098 0.4561 0.0
C886 C 0.49926 0.00935 0.46115 0.0
C887 C 0.50348 0.0166 0.50327 0.0
C888 C 0.50321 0.02123 0.42339 0.0
C889 C 0.48627 0.98251 0.41154 0.0
C890 C 0.52047 0.03399 0.41361 0.0
C891 C 0.52398 0.04561 0.37889 0.0
C892 C 0.51024 0.04478 0.3537 0.0
C893 C 0.49296 0.03201 0.36395 0.0
C894 C 0.4895 0.0204 0.39846 0.0
H895 H 0.48421 0.96905 0.41308 0.0
H896 H 0.47411 0.98165 0.39884 0.0
H897 H 0.49698 0.99028 0.38805 0.0
H898 H 0.53121 0.03494 0.43282 0.0
H899 H 0.53744 0.05529 0.37199 0.0
H900 H 0.17469 0.25215 0.03999 0.0
H901 H 0.19606 0.24385 0.01607 0.0
H902 H 0.15971 0.19014 0.04866 0.0
H903 H 0.13862 0.1983 0.07348 0.0
H904 H 0.19285 0.2004 0.07611 0.0
H905 H 0.19268 0.21864 0.90184 0.0
H906 H 0.19862 0.23573 0.9414 0.0
H907 H 0.17677 0.2174 0.94077 0.0
C908 C 0.17132 0.23859 0.04221 0.0
C909 C 0.15492 0.22586 0.05839 0.0
C910 C 0.18349 0.23387 0.02832 0.0
C911 C 0.17937 0.21634 0.03001 0.0
C912 C 0.16317 0.20374 0.04705 0.0
H913 H 0.20391 0.14979 0.89177 0.0
H914 H 0.19463 0.16971 0.91932 0.0
C915 C 0.15109 0.20844 0.06113 0.0
C916 C 0.19152 0.2107 0.01337 0.0
H917 H 0.2089 0.20506 0.91923 0.0
C918 C 0.1966 0.20162 0.04194 0.0
C919 C 0.1963 0.21228 0.96872 0.0
C920 C 0.19074 0.22142 0.9362 0.0
C921 C 0.20552 0.19325 0.0267 0.0
C922 C 0.20988 0.19442 0.9818 0.0
C923 C 0.2056 0.20427 0.95366 0.0
C924 C 0.2168 0.18371 0.96246 0.0
C925 C 0.20915 0.18233 0.05831 0.0
C926 C 0.23262 0.18525 0.97671 0.0
C927 C 0.23788 0.17368 0.96135 0.0
C928 C 0.22751 0.16055 0.93107 0.0
C929 C 0.21217 0.15967 0.91524 0.0
C930 C 0.20686 0.17111 0.93086 0.0
H931 H 0.20186 0.18003 0.0895 0.0
H932 H 0.20559 0.16947 0.04368 0.0
H933 H 0.22331 0.18919 0.06613 0.0
H934 H 0.2407 0.19515 0.00035 0.0
H935 H 0.24988 0.17481 0.97381 0.0
H936 H 0.837 0.05509 0.87603 0.0
H937 H 0.8174 0.02599 0.90449 0.0
H938 H 0.80405 0.04832 0.01299 0.0
H939 H 0.82418 0.07765 0.98534 0.0
H940 H 0.81332 0.02635 0.04139 0.0
H941 H 0.76591 0.99355 0.90845 0.0
H942 H 0.78766 0.00313 0.88718 0.0
H943 H 0.78005 0.01696 0.90997 0.0
C944 C 0.82966 0.05384 0.90551 0.0
C945 C 0.83224 0.06869 0.92858 0.0
C946 C 0.81828 0.03714 0.92154 0.0
C947 C 0.809 0.0349 0.96053 0.0
C948 C 0.811 0.04971 0.9827 0.0
H949 H 0.7467 0.92518 0.04743 0.0
H950 H 0.75354 0.95481 0.02703 0.0
C951 C 0.82252 0.06646 0.96688 0.0
C952 C 0.7991 0.01732 0.98071 0.0
H953 H 0.77126 0.97447 0.95605 0.0
C954 C 0.80382 0.01506 0.02305 0.0
C955 C 0.78642 0.00258 0.95734 0.0
C956 C 0.77959 0.00423 0.91342 0.0
C957 C 0.79722 0.99839 0.04124 0.0
C958 C 0.78598 0.98356 0.01596 0.0
C959 C 0.78017 0.98584 0.97507 0.0
C960 C 0.78157 0.96573 0.02954 0.0
C961 C 0.80273 0.99683 0.08698 0.0
C962 C 0.79504 0.96203 0.03699 0.0
C963 C 0.79121 0.94526 0.04874 0.0
C964 C 0.7738 0.93172 0.05275 0.0
C965 C 0.76026 0.93536 0.04475 0.0
C966 C 0.76413 0.95225 0.03311 0.0
H967 H 0.80577 0.00854 0.10686 0.0
H968 H 0.79242 0.98506 0.10391 0.0
H969 H 0.81476 0.99587 0.08528 0.0
H970 H 0.80858 0.9721 0.03316 0.0
H971 H 0.80196 0.94289 0.05424 0.0
H972 H 0.92503 0.74917 0.94947 0.0
H973 H 0.95445 0.75699 0.9744 0.0
H974 H 0.97207 0.8113 0.94906 0.0
H975 H 0.94305 0.80363 0.92324 0.0
H976 H 0.99523 0.80164 0.92008 0.0
H977 H 0.97514 0.77979 0.0918 0.0
H978 H 0.96438 0.76355 0.05003 0.0
H979 H 0.96083 0.78183 0.05317 0.0
C980 C 0.93522 0.76276 0.94906 0.0
C981 C 0.93168 0.7758 0.93462 0.0
C982 C 0.95198 0.76721 0.96352 0.0
C983 C 0.96537 0.78476 0.96416 0.0
C984 C 0.96192 0.79768 0.94886 0.0
H985 H 0.05504 0.84885 0.10987 0.0
H986 H 0.02607 0.82918 0.08049 0.0
C987 C 0.94529 0.79326 0.9342 0.0
C988 C 0.983 0.79005 0.98144 0.0
H989 H 0.00511 0.79383 0.07613 0.0
C990 C 0.99743 0.79973 0.95405 0.0
C991 C 0.98577 0.78757 0.02582 0.0
C992 C 0.97076 0.77774 0.05714 0.0
C993 C 0.01456 0.80782 0.9703 0.0
C994 C 0.01733 0.80575 0.015 0.0
C995 C 0.00293 0.7953 0.04186 0.0
C996 C 0.03475 0.81612 0.03563 0.0
C997 C 0.02942 0.81942 0.94011 0.0
C998 C 0.04921 0.81498 0.02109 0.0
C999 C 0.06591 0.82642 0.0375 0.0
C1000 C 0.06833 0.839 0.06915 0.0
C1001 C 0.05366 0.83939 0.08536 0.0
C1002 C 0.03706 0.8281 0.06868 0.0
H1003 H 0.02471 0.82232 0.90926 0.0
H1004 H 0.03852 0.83198 0.95636 0.0
H1005 H 0.03684 0.81279 0.93142 0.0
H1006 H 0.04766 0.80555 0.99632 0.0
H1007 H 0.07694 0.82566 0.02472 0.0
H1008 H 0.86462 0.79014 0.00373 0.0
H1009 H 0.84759 0.80362 0.02687 0.0
H1010 H 0.81415 0.78174 0.91418 0.0
H1011 H 0.83075 0.76777 0.89167 0.0
H1012 H 0.8434 0.82766 0.98589 0.0
H1013 H 0.77844 0.76884 0.00914 0.0
H1014 H 0.79808 0.76763 0.00234 0.0
H1015 H 0.78705 0.76989 0.9554 0.0
C1016 C 0.85351 0.78804 0.98417 0.0
C1017 C 0.84895 0.77782 0.94603 0.0
C1018 C 0.8438 0.79576 0.99741 0.0
C1019 C 0.82942 0.79347 0.97265 0.0
C1020 C 0.82488 0.78329 0.93449 0.0
H1021 H 0.78788 0.8642 0.98421 0.0
H1022 H 0.80206 0.84766 0.9624 0.0
C1023 C 0.83445 0.77539 0.92151 0.0
C1024 C 0.81983 0.80256 0.98545 0.0
H1025 H 0.77917 0.7962 0.00719 0.0
C1026 C 0.82937 0.82076 0.99081 0.0
C1027 C 0.80155 0.79353 0.99239 0.0
C1028 C 0.79071 0.77388 0.98997 0.0
C1029 C 0.82112 0.83022 0.0024 0.0
C1030 C 0.80274 0.82129 0.00742 0.0
C1031 C 0.79322 0.80306 0.00269 0.0
C1032 C 0.79323 0.83059 0.01886 0.0
C1033 C 0.83227 0.84963 0.01012 0.0
C1034 C 0.78288 0.82594 0.05672 0.0
C1035 C 0.7745 0.83515 0.06881 0.0
C1036 C 0.77639 0.84922 0.04333 0.0
C1037 C 0.78634 0.85353 0.00474 0.0
C1038 C 0.79455 0.84418 0.99241 0.0
H1039 H 0.84604 0.85343 0.01745 0.0
H1040 H 0.83228 0.85672 0.98017 0.0
H1041 H 0.82713 0.85394 0.03764 0.0
H1042 H 0.7816 0.81543 0.07749 0.0
H1043 H 0.76694 0.83153 0.09876 0.0
H1044 H 0.13142 0.92733 0.0051 0.0
H1045 H 0.1483 0.95805 0.98433 0.0
H1046 H 0.19127 0.9642 0.06418 0.0
H1047 H 0.17418 0.93368 0.08662 0.0
H1048 H 0.18527 0.99022 0.07754 0.0
H1049 H 0.18774 0.98139 0.89905 0.0
H1050 H 0.16571 0.97077 0.91891 0.0
H1051 H 0.1804 0.96348 0.93711 0.0
C1052 C 0.14452 0.93517 0.01798 0.0
C1053 C 0.15151 0.92798 0.04719 0.0
C1054 C 0.15421 0.95272 0.0058 0.0
C1055 C 0.17121 0.96335 0.02191 0.0
C1056 C 0.17823 0.9562 0.05105 0.0
H1057 H 0.23995 0.06681 0.91395 0.0
H1058 H 0.22691 0.03638 0.93668 0.0
C1059 C 0.16846 0.93871 0.06369 0.0
C1060 C 0.18132 0.98211 0.01002 0.0
H1061 H 0.19523 0.01008 0.92311 0.0
C1062 C 0.1876 0.99456 0.04376 0.0
C1063 C 0.18462 0.98779 0.96598 0.0
C1064 C 0.17943 0.97514 0.92823 0.0
C1065 C 0.19668 0.01252 0.03469 0.0
C1066 C 0.19906 0.01819 0.99063 0.0
C1067 C 0.1932 0.00574 0.9569 0.0
C1068 C 0.20747 0.03693 0.97867 0.0
C1069 C 0.20382 0.0252 0.07245 0.0
C1070 C 0.20085 0.04738 0.99451 0.0
C1071 C 0.2085 0.0649 0.98217 0.0
C1072 C 0.22272 0.07224 0.95307 0.0
C1073 C 0.22918 0.06169 0.93681 0.0
C1074 C 0.22167 0.04423 0.94962 0.0
H1075 H 0.20596 0.01907 0.10178 0.0
H1076 H 0.21636 0.03701 0.06374 0.0
H1077 H 0.19425 0.02931 0.08145 0.0
H1078 H 0.18957 0.04192 0.01588 0.0
H1079 H 0.20306 0.0726 0.99487 0.0
H1080 H 0.93101 0.17308 0.91388 0.0
H1081 H 0.96176 0.18963 0.93469 0.0
H1082 H 0.95551 0.14619 0.01259 0.0
H1083 H 0.92455 0.12982 0.99343 0.0
H1084 H 0.97438 0.17616 0.05505 0.0
H1085 H 0.00027 0.18296 0.88664 0.0
H1086 H 0.98602 0.19181 0.89257 0.0
H1087 H 0.97753 0.16874 0.89963 0.0
C1088 C 0.93611 0.16707 0.93567 0.0
C1089 C 0.92529 0.15013 0.95203 0.0
C1090 C 0.95377 0.1765 0.94717 0.0
C1091 C 0.96104 0.16902 0.97446 0.0
C1092 C 0.95021 0.1522 0.99131 0.0
H1093 H 0.07088 0.20352 0.00571 0.0
H1094 H 0.04 0.18876 0.98565 0.0
C1095 C 0.93251 0.14285 0.98028 0.0
C1096 C 0.97987 0.17874 0.98595 0.0
H1097 H 0.02089 0.19936 0.94205 0.0
C1098 C 0.98456 0.1812 0.03035 0.0
C1099 C 0.99314 0.18509 0.95368 0.0
C1100 C 0.98902 0.18187 0.90549 0.0
C1101 C 0.00213 0.18988 0.04342 0.0
C1102 C 0.0154 0.19678 0.01115 0.0
C1103 C 0.01071 0.19425 0.96675 0.0
C1104 C 0.03422 0.20613 0.0227 0.0
C1105 C 0.00627 0.1911 0.09166 0.0
C1106 C 0.04133 0.221 0.04956 0.0
C1107 C 0.05895 0.22933 0.06158 0.0
C1108 C 0.06987 0.22317 0.04617 0.0
C1109 C 0.06283 0.20861 0.01815 0.0
C1110 C 0.04518 0.20016 0.0066 0.0
H1111 H 0.99507 0.18097 0.11073 0.0
H1112 H 0.01784 0.18962 0.09786 0.0
H1113 H 0.00914 0.20406 0.10406 0.0
H1114 H 0.03324 0.22612 0.06144 0.0
H1115 H 0.06391 0.2405 0.08315 0.0
H1116 H 0.84042 0.58333 0.35011 0.0
H1117 H 0.86032 0.57367 0.32316 0.0
H1118 H 0.84236 0.53441 0.42424 0.0
H1119 H 0.82293 0.54428 0.45212 0.0
H1120 H 0.87742 0.54901 0.40946 0.0
H1121 H 0.84033 0.52894 0.2528 0.0
H1122 H 0.85024 0.55171 0.26613 0.0
H1123 H 0.83285 0.53576 0.29962 0.0
C1124 C 0.84091 0.57281 0.36697 0.0
C1125 C 0.8299 0.56439 0.40284 0.0
C1126 C 0.85223 0.56726 0.35141 0.0
C1127 C 0.85251 0.55305 0.37107 0.0
C1128 C 0.84229 0.54534 0.40843 0.0
H1129 H 0.86275 0.46951 0.27963 0.0
H1130 H 0.85541 0.49138 0.30279 0.0
C1131 C 0.83114 0.55098 0.42425 0.0
C1132 C 0.86222 0.54513 0.35119 0.0
H1133 H 0.86226 0.52179 0.26229 0.0
C1134 C 0.87432 0.54326 0.37704 0.0
C1135 C 0.85802 0.53754 0.30897 0.0
C1136 C 0.84456 0.53842 0.28029 0.0
C1137 C 0.88174 0.53332 0.36262 0.0
C1138 C 0.87717 0.52536 0.32089 0.0
C1139 C 0.86576 0.52798 0.29421 0.0
C1140 C 0.88221 0.5125 0.30639 0.0
C1141 C 0.89357 0.53057 0.39315 0.0
C1142 C 0.89976 0.51712 0.30045 0.0
C1143 C 0.90405 0.50453 0.28744 0.0
C1144 C 0.89081 0.48718 0.2798 0.0
C1145 C 0.87328 0.48273 0.28519 0.0
C1146 C 0.86904 0.49524 0.29838 0.0
H1147 H 0.89328 0.53503 0.42696 0.0
H1148 H 0.88978 0.51656 0.39428 0.0
H1149 H 0.90721 0.53806 0.381 0.0
H1150 H 0.91011 0.53045 0.30572 0.0
H1151 H 0.91767 0.50837 0.28331 0.0
H1152 H 0.52132 0.38644 0.24173 0.0
H1153 H 0.49951 0.3577 0.26793 0.0
H1154 H 0.46705 0.37843 0.31125 0.0
H1155 H 0.48916 0.40755 0.28591 0.0
H1156 H 0.47026 0.35904 0.37353 0.0
H1157 H 0.45307 0.32183 0.21929 0.0
H1158 H 0.47629 0.33336 0.22654 0.0
H1159 H 0.46492 0.34541 0.22037 0.0
C1160 C 0.50947 0.3849 0.25633 0.0
C1161 C 0.50698 0.39929 0.2617 0.0
C1162 C 0.49691 0.36839 0.27096 0.0
C1163 C 0.48146 0.36581 0.29068 0.0
C1164 C 0.47881 0.3801 0.2957 0.0
H1165 H 0.41347 0.25559 0.361 0.0
H1166 H 0.42138 0.28452 0.33242 0.0
C1167 C 0.49145 0.39671 0.28123 0.0
C1168 C 0.46896 0.34846 0.30917 0.0
H1169 H 0.44913 0.30499 0.28569 0.0
C1170 C 0.4653 0.34722 0.35414 0.0
C1171 C 0.46207 0.33304 0.2838 0.0
C1172 C 0.46413 0.3335 0.23474 0.0
C1173 C 0.45616 0.33093 0.37498 0.0
C1174 C 0.45099 0.31555 0.35036 0.0
C1175 C 0.45337 0.31678 0.30481 0.0
C1176 C 0.44486 0.29834 0.37146 0.0
C1177 C 0.45251 0.33043 0.42333 0.0
C1178 C 0.45536 0.2965 0.40304 0.0
C1179 C 0.45082 0.28007 0.4196 0.0
C1180 C 0.43584 0.26506 0.40435 0.0
C1181 C 0.42511 0.26692 0.37337 0.0
C1182 C 0.4296 0.28343 0.35704 0.0
H1183 H 0.45086 0.34163 0.43304 0.0
H1184 H 0.44059 0.31812 0.43282 0.0
H1185 H 0.46379 0.3315 0.44193 0.0
H1186 H 0.46747 0.30769 0.41372 0.0
H1187 H 0.45944 0.27911 0.44322 0.0
H1188 H 0.59471 0.09471 0.31772 0.0
H1189 H 0.62561 0.1058 0.33393 0.0
H1190 H 0.63733 0.11185 0.19598 0.0
H1191 H 0.60651 0.10095 0.17935 0.0
H1192 H 0.65093 0.09583 0.3054 0.0
H1193 H 0.66613 0.16173 0.24838 0.0
H1194 H 0.64413 0.14456 0.25988 0.0
H1195 H 0.65468 0.14425 0.20992 0.0
C1196 C 0.60381 0.09817 0.29077 0.0
C1197 C 0.59819 0.09719 0.24725 0.0
C1198 C 0.62144 0.10446 0.30012 0.0
C1199 C 0.63373 0.10988 0.26617 0.0
C1200 C 0.62804 0.10796 0.22263 0.0
H1201 H 0.74686 0.174 0.27412 0.0
H1202 H 0.71702 0.15402 0.24974 0.0
C1203 C 0.61042 0.10169 0.21323 0.0
C1204 C 0.65261 0.11882 0.27647 0.0
H1205 H 0.68976 0.15863 0.27169 0.0
C1206 C 0.65948 0.10954 0.2979 0.0
C1207 C 0.66366 0.13671 0.2667 0.0
C1208 C 0.65682 0.14749 0.24527 0.0
C1209 C 0.67721 0.1177 0.30968 0.0
C1210 C 0.6882 0.13566 0.30042 0.0
C1211 C 0.68133 0.14484 0.27849 0.0
C1212 C 0.70666 0.14558 0.31492 0.0
C1213 C 0.68405 0.10703 0.33158 0.0
C1214 C 0.7108 0.14724 0.35965 0.0
C1215 C 0.72787 0.15863 0.37371 0.0
C1216 C 0.74105 0.16871 0.34329 0.0
C1217 C 0.73701 0.16648 0.29842 0.0
C1218 C 0.71996 0.15506 0.2844 0.0
H1219 H 0.67566 0.09288 0.32438 0.0
H1220 H 0.69761 0.11128 0.32099 0.0
H1221 H 0.6841 0.10877 0.36755 0.0
H1222 H 0.70069 0.14036 0.38385 0.0
H1223 H 0.73053 0.16007 0.40851 0.0
H1224 H 0.49908 0.10176 0.24066 0.0
H1225 H 0.48273 0.11605 0.26244 0.0
H1226 H 0.51613 0.13803 0.37513 0.0
H1227 H 0.53293 0.12416 0.35276 0.0
H1228 H 0.46408 0.11365 0.33382 0.0
H1229 H 0.52014 0.18109 0.31873 0.0
H1230 H 0.52099 0.1623 0.29907 0.0
H1231 H 0.52405 0.16782 0.3563 0.0
C1232 C 0.50292 0.10957 0.27021 0.0
C1233 C 0.51737 0.11194 0.29487 0.0
C1234 C 0.49355 0.11774 0.2826 0.0
C1235 C 0.49841 0.12838 0.31994 0.0
C1236 C 0.51245 0.13025 0.34555 0.0
H1237 H 0.43401 0.16549 0.44222 0.0
H1238 H 0.44872 0.14926 0.42277 0.0
C1239 C 0.52196 0.12223 0.3329 0.0
C1240 C 0.48882 0.1376 0.33154 0.0
H1241 H 0.49412 0.17807 0.34928 0.0
C1242 C 0.47064 0.12774 0.33715 0.0
C1243 C 0.49735 0.15601 0.33507 0.0
C1244 C 0.51667 0.16745 0.32655 0.0
C1245 C 0.46075 0.13577 0.34653 0.0
C1246 C 0.46937 0.15413 0.3516 0.0
C1247 C 0.48754 0.16399 0.3457 0.0
C1248 C 0.45986 0.16348 0.36265 0.0
C1249 C 0.44115 0.12453 0.34977 0.0
C1250 C 0.46152 0.17713 0.33585 0.0
C1251 C 0.45336 0.18662 0.34727 0.0
C1252 C 0.44332 0.18257 0.38563 0.0
C1253 C 0.44149 0.16877 0.41217 0.0
C1254 C 0.44982 0.15942 0.40097 0.0
H1255 H 0.43631 0.11193 0.33223 0.0
H1256 H 0.43739 0.12153 0.38467 0.0
H1257 H 0.4345 0.13132 0.3361 0.0
H1258 H 0.46926 0.18053 0.30619 0.0
H1259 H 0.45502 0.19719 0.32618 0.0
H1260 H 0.83068 0.26688 0.44211 0.0
H1261 H 0.84779 0.29765 0.42146 0.0
H1262 H 0.81715 0.28702 0.30377 0.0
H1263 H 0.79968 0.25628 0.32474 0.0
H1264 H 0.86811 0.31402 0.35095 0.0
H1265 H 0.81235 0.32608 0.35834 0.0
H1266 H 0.81102 0.30638 0.37926 0.0
H1267 H 0.80872 0.30877 0.32156 0.0
C1268 C 0.82762 0.27107 0.41174 0.0
C1269 C 0.81375 0.25919 0.38518 0.0
C1270 C 0.83741 0.28866 0.4 0.0
C1271 C 0.83354 0.29468 0.3615 0.0
C1272 C 0.82008 0.28273 0.33418 0.0
H1273 H 0.89901 0.3946 0.2347 0.0
H1274 H 0.8845 0.36403 0.25752 0.0
C1275 C 0.81017 0.26516 0.34608 0.0
C1276 C 0.84349 0.3135 0.35026 0.0
H1277 H 0.83877 0.34874 0.32816 0.0
C1278 C 0.86172 0.32165 0.34611 0.0
C1279 C 0.83515 0.32349 0.34475 0.0
C1280 C 0.81576 0.3158 0.35163 0.0
C1281 C 0.87184 0.33947 0.33588 0.0
C1282 C 0.86341 0.34928 0.32861 0.0
C1283 C 0.8452 0.34117 0.3334 0.0
C1284 C 0.87312 0.36798 0.31607 0.0
C1285 C 0.89145 0.34767 0.33382 0.0
C1286 C 0.87132 0.38034 0.34096 0.0
C1287 C 0.87937 0.39776 0.32762 0.0
C1288 C 0.88943 0.40318 0.28919 0.0
C1289 C 0.8915 0.39087 0.26472 0.0
C1290 C 0.88329 0.37339 0.27786 0.0
H1291 H 0.89603 0.34002 0.35286 0.0
H1292 H 0.89547 0.34801 0.29929 0.0
H1293 H 0.89808 0.36125 0.34653 0.0
H1294 H 0.86349 0.37644 0.37049 0.0
H1295 H 0.87755 0.40695 0.34718 0.0
H1296 H 0.60146 0.49972 0.21899 0.0
H1297 H 0.63251 0.51568 0.23739 0.0
H1298 H 0.62257 0.48217 0.34915 0.0
H1299 H 0.59154 0.46575 0.33005 0.0
H1300 H 0.64985 0.53425 0.30694 0.0
H1301 H 0.66089 0.47817 0.28945 0.0
H1302 H 0.64097 0.47724 0.2718 0.0
H1303 H 0.64414 0.47408 0.32855 0.0
C1304 C 0.60587 0.49576 0.24754 0.0
C1305 C 0.59408 0.4814 0.27292 0.0
C1306 C 0.62363 0.50489 0.25799 0.0
C1307 C 0.62993 0.4999 0.29411 0.0
C1308 C 0.61809 0.48593 0.32038 0.0
H1309 H 0.72961 0.56307 0.42165 0.0
H1310 H 0.69915 0.54859 0.39824 0.0
C1311 C 0.60034 0.47665 0.30964 0.0
C1312 C 0.64888 0.50943 0.30436 0.0
H1313 H 0.68385 0.5038 0.32256 0.0
C1314 C 0.65731 0.52761 0.31011 0.0
C1315 C 0.65869 0.50082 0.30759 0.0
C1316 C 0.65076 0.48154 0.29856 0.0
C1317 C 0.6752 0.53736 0.31995 0.0
C1318 C 0.68479 0.52861 0.32547 0.0
C1319 C 0.67645 0.51049 0.31878 0.0
C1320 C 0.70343 0.5379 0.33884 0.0
C1321 C 0.68365 0.55695 0.32355 0.0
C1322 C 0.71592 0.53633 0.3139 0.0
C1323 C 0.73333 0.54436 0.32764 0.0
C1324 C 0.73855 0.55417 0.36649 0.0
C1325 C 0.72605 0.55581 0.39125 0.0
C1326 C 0.70863 0.54762 0.37777 0.0
H1327 H 0.67628 0.56193 0.30475 0.0
H1328 H 0.68374 0.56057 0.35836 0.0
H1329 H 0.69733 0.56358 0.31149 0.0
H1330 H 0.71218 0.52881 0.28387 0.0
H1331 H 0.74267 0.54285 0.30793 0.0
H1332 H 0.53426 0.81421 0.56767 0.0
H1333 H 0.52623 0.83499 0.59571 0.0
H1334 H 0.576 0.86335 0.66119 0.0
H1335 H 0.58403 0.84223 0.63398 0.0
H1336 H 0.54977 0.85698 0.71525 0.0
H1337 H 0.54028 0.88415 0.5622 0.0
H1338 H 0.52799 0.86077 0.56062 0.0
H1339 H 0.55151 0.87181 0.56357 0.0
C1340 C 0.54364 0.82499 0.58751 0.0
C1341 C 0.55978 0.82655 0.59862 0.0
C1342 C 0.53908 0.83698 0.60322 0.0
C1343 C 0.55065 0.85094 0.62985 0.0
C1344 C 0.56694 0.85276 0.64036 0.0
H1345 H 0.50781 0.91786 0.7067 0.0
H1346 H 0.52932 0.91011 0.68105 0.0
C1347 C 0.5715 0.84068 0.62479 0.0
C1348 C 0.54488 0.86251 0.64972 0.0
H1349 H 0.52373 0.8848 0.62513 0.0
C1350 C 0.54442 0.8634 0.69553 0.0
C1351 C 0.53827 0.87125 0.62413 0.0
C1352 C 0.53973 0.87211 0.57491 0.0
C1353 C 0.53632 0.87162 0.71634 0.0
C1354 C 0.52808 0.87874 0.69063 0.0
C1355 C 0.52975 0.87907 0.64491 0.0
C1356 C 0.51627 0.88431 0.71002 0.0
C1357 C 0.53634 0.87224 0.76567 0.0
C1358 C 0.50182 0.87242 0.73487 0.0
C1359 C 0.4896 0.87683 0.7497 0.0
C1360 C 0.49142 0.89315 0.73945 0.0
C1361 C 0.50605 0.90519 0.71517 0.0
C1362 C 0.51835 0.90078 0.7005 0.0
H1363 H 0.54813 0.87251 0.77927 0.0
H1364 H 0.53591 0.88386 0.77782 0.0
H1365 H 0.52473 0.86032 0.77829 0.0
H1366 H 0.49964 0.85945 0.74156 0.0
H1367 H 0.47845 0.86721 0.7681 0.0
H1368 H 0.15759 0.74221 0.63495 0.0
H1369 H 0.13718 0.71293 0.6628 0.0
H1370 H 0.16193 0.69142 0.58235 0.0
H1371 H 0.18191 0.72038 0.5535 0.0
H1372 H 0.12658 0.67048 0.58372 0.0
H1373 H 0.15265 0.68985 0.75281 0.0
H1374 H 0.1434 0.70196 0.72895 0.0
H1375 H 0.16297 0.70374 0.70622 0.0
C1376 C 0.15854 0.7312 0.62287 0.0
C1377 C 0.17151 0.73364 0.59241 0.0
C1378 C 0.14693 0.7145 0.63897 0.0
C1379 C 0.14827 0.70005 0.62531 0.0
C1380 C 0.16069 0.70239 0.59346 0.0
H1381 H 0.13489 0.60851 0.73983 0.0
H1382 H 0.14262 0.63752 0.714 0.0
C1383 C 0.17215 0.71899 0.57709 0.0
C1384 C 0.13762 0.68261 0.64559 0.0
H1385 H 0.13229 0.66037 0.74092 0.0
C1386 C 0.12759 0.66825 0.61822 0.0
C1387 C 0.13907 0.67977 0.69061 0.0
C1388 C 0.15019 0.69459 0.72142 0.0
C1389 C 0.11971 0.65106 0.63412 0.0
C1390 C 0.12161 0.64823 0.67885 0.0
C1391 C 0.13083 0.66262 0.70668 0.0
C1392 C 0.11623 0.6306 0.69621 0.0
C1393 C 0.1104 0.63611 0.60235 0.0
C1394 C 0.09873 0.61707 0.69536 0.0
C1395 C 0.09426 0.6003 0.70981 0.0
C1396 C 0.1072 0.5969 0.72575 0.0
C1397 C 0.12459 0.61064 0.7277 0.0
C1398 C 0.12904 0.62728 0.71303 0.0
H1399 H 0.1129 0.64057 0.56776 0.0
H1400 H 0.11453 0.62626 0.60713 0.0
H1401 H 0.09611 0.62963 0.60819 0.0
H1402 H 0.08859 0.61943 0.68329 0.0
H1403 H 0.08072 0.59001 0.70822 0.0
H1404 H 0.40448 0.49862 0.67586 0.0
H1405 H 0.37351 0.479 0.65997 0.0
H1406 H 0.36204 0.4735 0.79805 0.0
H1407 H 0.39292 0.4932 0.81436 0.0
H1408 H 0.34795 0.44373 0.68907 0.0
H1409 H 0.33357 0.49504 0.74567 0.0
H1410 H 0.35546 0.49961 0.73377 0.0
H1411 H 0.34504 0.489 0.78405 0.0
C1412 C 0.39542 0.49305 0.70291 0.0
C1413 C 0.40114 0.49768 0.74637 0.0
C1414 C 0.37774 0.48182 0.69374 0.0
C1415 C 0.3655 0.47505 0.72782 0.0
C1416 C 0.37129 0.47881 0.7713 0.0
H1417 H 0.25251 0.42657 0.72472 0.0
H1418 H 0.28255 0.43645 0.74734 0.0
C1419 C 0.38895 0.49004 0.78052 0.0
C1420 C 0.3466 0.46526 0.71778 0.0
H1421 H 0.30966 0.46828 0.7235 0.0
C1422 C 0.33952 0.44902 0.69669 0.0
C1423 C 0.33571 0.47227 0.72768 0.0
C1424 C 0.34279 0.49 0.74872 0.0
C1425 C 0.32171 0.43951 0.68551 0.0
C1426 C 0.31088 0.44663 0.69504 0.0
C1427 C 0.31797 0.46279 0.7165 0.0
C1428 C 0.29229 0.43806 0.68157 0.0
C1429 C 0.31464 0.42189 0.66402 0.0
C1430 C 0.28774 0.43538 0.6371 0.0
C1431 C 0.27055 0.42969 0.62403 0.0
C1432 C 0.25766 0.42677 0.65522 0.0
C1433 C 0.26213 0.42877 0.69985 0.0
C1434 C 0.27929 0.4344 0.71286 0.0
H1435 H 0.32306 0.41613 0.67069 0.0
H1436 H 0.30117 0.41266 0.67546 0.0
H1437 H 0.31422 0.42341 0.62808 0.0
H1438 H 0.29762 0.43847 0.61232 0.0
H1439 H 0.26756 0.42832 0.58939 0.0
H1440 H 0.20023 0.45638 0.68042 0.0
H1441 H 0.18298 0.46953 0.70452 0.0
H1442 H 0.1517 0.45088 0.5874 0.0
H1443 H 0.16852 0.4373 0.56378 0.0
H1444 H 0.17949 0.49472 0.66681 0.0
H1445 H 0.11426 0.43543 0.67891 0.0
H1446 H 0.13404 0.43441 0.67304 0.0
H1447 H 0.12383 0.43771 0.62586 0.0
C1448 C 0.18956 0.45494 0.66004 0.0
C1449 C 0.18564 0.4457 0.62036 0.0
C1450 C 0.17972 0.46246 0.67384 0.0
C1451 C 0.16584 0.46093 0.64815 0.0
C1452 C 0.162 0.4518 0.60839 0.0
H1453 H 0.12379 0.53088 0.65929 0.0
H1454 H 0.13875 0.5149 0.63958 0.0
C1455 C 0.1717 0.44413 0.5948 0.0
C1456 C 0.156 0.46967 0.66177 0.0
H1457 H 0.11487 0.46279 0.67916 0.0
C1458 C 0.16537 0.48771 0.66985 0.0
C1459 C 0.13759 0.46048 0.66631 0.0
C1460 C 0.12686 0.44091 0.66103 0.0
C1461 C 0.15682 0.49689 0.68145 0.0
C1462 C 0.13835 0.48786 0.68377 0.0
C1463 C 0.129 0.46974 0.67669 0.0
C1464 C 0.12852 0.49693 0.69418 0.0
C1465 C 0.16772 0.51611 0.69182 0.0
C1466 C 0.11717 0.49164 0.73022 0.0
C1467 C 0.10837 0.50056 0.7411 0.0
C1468 C 0.1108 0.51497 0.71618 0.0
C1469 C 0.12179 0.51994 0.67938 0.0
C1470 C 0.13045 0.5109 0.66826 0.0
H1471 H 0.18127 0.51973 0.70124 0.0
H1472 H 0.16852 0.5238 0.66235 0.0
H1473 H 0.16186 0.51987 0.71881 0.0
H1474 H 0.11541 0.48082 0.75049 0.0
H1475 H 0.1 0.49642 0.76968 0.0
H1476 H 0.46055 0.59231 0.65931 0.0
H1477 H 0.47669 0.62317 0.63892 0.0
H1478 H 0.52009 0.63048 0.71879 0.0
H1479 H 0.50378 0.59997 0.74088 0.0
H1480 H 0.51283 0.65549 0.73349 0.0
H1481 H 0.51627 0.64816 0.5544 0.0
H1482 H 0.49425 0.63704 0.57447 0.0
H1483 H 0.50928 0.63006 0.5917 0.0
C1484 C 0.47359 0.60045 0.67221 0.0
C1485 C 0.48094 0.5936 0.70137 0.0
C1486 C 0.48286 0.61808 0.66027 0.0
C1487 C 0.49975 0.62908 0.67665 0.0
C1488 C 0.50712 0.62222 0.70551 0.0
H1489 H 0.57098 0.7328 0.57642 0.0
H1490 H 0.55645 0.70204 0.59701 0.0
C1491 C 0.4978 0.60469 0.7179 0.0
C1492 C 0.50944 0.64794 0.66558 0.0
H1493 H 0.52427 0.67665 0.58019 0.0
C1494 C 0.51543 0.66012 0.69996 0.0
C1495 C 0.51304 0.65398 0.62185 0.0
C1496 C 0.50804 0.64162 0.58352 0.0
C1497 C 0.52474 0.67814 0.69186 0.0
C1498 C 0.52765 0.68418 0.64811 0.0
C1499 C 0.52186 0.67202 0.61372 0.0
C1500 C 0.53681 0.70305 0.63718 0.0
C1501 C 0.53167 0.69049 0.73032 0.0
C1502 C 0.53059 0.71387 0.65279 0.0
C1503 C 0.53909 0.73157 0.64173 0.0
C1504 C 0.55379 0.73872 0.61416 0.0
C1505 C 0.55986 0.72781 0.59815 0.0
C1506 C 0.55148 0.71017 0.60968 0.0
H1507 H 0.53312 0.68397 0.7598 0.0
H1508 H 0.54453 0.7021 0.72276 0.0
H1509 H 0.52233 0.69499 0.73849 0.0
H1510 H 0.51899 0.70858 0.67303 0.0
H1511 H 0.53394 0.73957 0.65416 0.0
H1512 H 0.26659 0.83891 0.57491 0.0
H1513 H 0.29716 0.85552 0.59741 0.0
H1514 H 0.28998 0.81254 0.6787 0.0
H1515 H 0.25922 0.79613 0.65777 0.0
H1516 H 0.30868 0.84291 0.72013 0.0
H1517 H 0.33576 0.84796 0.5537 0.0
H1518 H 0.32159 0.85698 0.55742 0.0
H1519 H 0.3129 0.83396 0.56596 0.0
C1520 C 0.27145 0.83303 0.59782 0.0
C1521 C 0.26044 0.81619 0.61456 0.0
C1522 C 0.289 0.84248 0.6103 0.0
C1523 C 0.29596 0.83513 0.63902 0.0
C1524 C 0.28492 0.81844 0.65632 0.0
H1525 H 0.40516 0.86838 0.67765 0.0
H1526 H 0.37444 0.85383 0.6561 0.0
C1527 C 0.26733 0.80907 0.64428 0.0
C1528 C 0.31469 0.8448 0.65138 0.0
H1529 H 0.35603 0.86448 0.60952 0.0
C1530 C 0.31904 0.8476 0.69596 0.0
C1531 C 0.32819 0.85069 0.61982 0.0
C1532 C 0.32441 0.8471 0.57159 0.0
C1533 C 0.33651 0.85616 0.7099 0.0
C1534 C 0.35002 0.86258 0.67827 0.0
C1535 C 0.34567 0.85973 0.6337 0.0
C1536 C 0.36875 0.87177 0.69074 0.0
C1537 C 0.34025 0.85775 0.7584 0.0
C1538 C 0.37585 0.88686 0.71674 0.0
C1539 C 0.39336 0.89507 0.72963 0.0
C1540 C 0.4042 0.88856 0.71592 0.0
C1541 C 0.39718 0.87375 0.68875 0.0
C1542 C 0.37962 0.86542 0.67637 0.0
H1543 H 0.32883 0.8479 0.77737 0.0
H1544 H 0.35164 0.85612 0.76594 0.0
H1545 H 0.34323 0.87088 0.7697 0.0
H1546 H 0.36784 0.89227 0.72728 0.0
H1547 H 0.39831 0.90643 0.75053 0.0
loop_
_geom_bond_atom_site_label_1
_geom_bond_atom_site_label_2
_geom_bond_distance
_geom_bond_site_symmetry_2
_ccdc_geom_bond_type
Mg0 O1 2.028 . S
Mg0 O7 1.986 . S
Mg0 O9 2.114 . S
Mg0 O10 2.251 . S
Mg0 O13 2.010 . S
O1 Mg0 2.028 . S
O1 C4 1.250 . S
O2 Mg3 2.028 . S
O2 C4 1.248 . S
Mg3 O2 2.028 . S
Mg3 O8 2.032 . S
Mg3 O10 2.079 . S
C4 O1 1.250 . S
C4 O2 1.248 . S
C5 O6 1.264 . S
C5 O13 1.249 . S
O6 C5 1.264 . S
O7 Mg0 1.986 . S
O7 C11 1.246 . S
O8 Mg3 2.032 . S
O8 C11 1.259 . S
O9 Mg0 2.114 . S
O9 C12 1.252 . S
O10 Mg0 2.251 . S
O10 Mg3 2.079 . S
O10 C12 1.273 . S
C11 O7 1.246 . S
C11 O8 1.259 . S
C12 O9 1.252 . S
C12 O10 1.273 . S
O13 Mg0 2.010 . S
O13 C5 1.249 . S
Mg14 O15 2.028 . S
Mg14 O21 1.986 . S
Mg14 O23 2.114 . S
Mg14 O24 2.251 . S
Mg14 O27 2.010 . S
O15 Mg14 2.028 . S
O15 C18 1.250 . S
O16 Mg17 2.028 . S
O16 C18 1.248 . S
Mg17 O16 2.028 . S
Mg17 O22 2.032 . S
Mg17 O24 2.079 . S
C18 O15 1.250 . S
C18 O16 1.248 . S
C19 O20 1.264 . S
C19 O27 1.249 . S
O20 C19 1.264 . S
O21 Mg14 1.986 . S
O21 C25 1.246 . S
O22 Mg17 2.032 . S
O22 C25 1.259 . S
O23 Mg14 2.114 . S
O23 C26 1.252 . S
O24 Mg14 2.251 . S
O24 Mg17 2.079 . S
O24 C26 1.273 . S
C25 O21 1.246 . S
C25 O22 1.259 . S
C26 O23 1.252 . S
C26 O24 1.273 . S
O27 Mg14 2.010 . S
O27 C19 1.249 . S
Mg28 O29 2.028 . S
Mg28 O35 1.986 . S
Mg28 O37 2.114 . S
Mg28 O38 2.251 . S
Mg28 O41 2.010 . S
O29 Mg28 2.028 . S
O29 C32 1.250 . S
O30 Mg31 2.028 . S
O30 C32 1.248 . S
Mg31 O30 2.028 . S
Mg31 O36 2.032 . S
Mg31 O38 2.079 . S
C32 O29 1.250 . S
C32 O30 1.248 . S
C33 O34 1.264 . S
C33 O41 1.249 . S
O34 C33 1.264 . S
O35 Mg28 1.986 . S
O35 C39 1.246 . S
O36 Mg31 2.032 . S
O36 C39 1.259 . S
O37 Mg28 2.114 . S
O37 C40 1.252 . S
O38 Mg28 2.251 . S
O38 Mg31 2.079 . S
O38 C40 1.273 . S
C39 O35 1.246 . S
C39 O36 1.259 . S
C40 O37 1.252 . S
C40 O38 1.273 . S
O41 Mg28 2.010 . S
O41 C33 1.249 . S
Mg42 O43 2.028 . S
Mg42 O49 1.986 . S
Mg42 O51 2.114 . S
Mg42 O52 2.251 . S
Mg42 O55 2.010 . S
O43 Mg42 2.028 . S
O43 C46 1.250 . S
O44 Mg45 2.028 . S
O44 C46 1.248 . S
Mg45 O44 2.028 . S
Mg45 O50 2.032 . S
Mg45 O52 2.079 . S
C46 O43 1.250 . S
C46 O44 1.248 . S
C47 O48 1.264 . S
C47 O55 1.249 . S
O48 C47 1.264 . S
O49 Mg42 1.986 . S
O49 C53 1.246 . S
O50 Mg45 2.032 . S
O50 C53 1.259 . S
O51 Mg42 2.114 . S
O51 C54 1.252 . S
O52 Mg42 2.251 . S
O52 Mg45 2.079 . S
O52 C54 1.273 . S
C53 O49 1.246 . S
C53 O50 1.259 . S
C54 O51 1.252 . S
C54 O52 1.273 . S
O55 Mg42 2.010 . S
O55 C47 1.249 . S
Mg56 O57 2.028 . S
Mg56 O63 1.986 . S
Mg56 O65 2.114 . S
Mg56 O66 2.251 . S
Mg56 O69 2.010 . S
O57 Mg56 2.028 . S
O57 C60 1.250 . S
O58 Mg59 2.028 . S
O58 C60 1.248 . S
Mg59 O58 2.028 . S
Mg59 O64 2.032 . S
Mg59 O66 2.079 . S
C60 O57 1.250 . S
C60 O58 1.248 . S
C61 O62 1.264 . S
C61 O69 1.249 . S
O62 C61 1.264 . S
O63 Mg56 1.986 . S
O63 C67 1.246 . S
O64 Mg59 2.032 . S
O64 C67 1.259 . S
O65 Mg56 2.114 . S
O65 C68 1.252 . S
O66 Mg56 2.251 . S
O66 Mg59 2.079 . S
O66 C68 1.273 . S
C67 O63 1.246 . S
C67 O64 1.259 . S
C68 O65 1.252 . S
C68 O66 1.273 . S
O69 Mg56 2.010 . S
O69 C61 1.249 . S
Mg70 O71 2.028 . S
Mg70 O77 1.986 . S
Mg70 O79 2.114 . S
Mg70 O80 2.251 . S
Mg70 O83 2.010 . S
O71 Mg70 2.028 . S
O71 C74 1.250 . S
O72 Mg73 2.028 . S
O72 C74 1.248 . S
Mg73 O72 2.028 . S
Mg73 O78 2.032 . S
Mg73 O80 2.079 . S
C74 O71 1.250 . S
C74 O72 1.248 . S
C75 O76 1.264 . S
C75 O83 1.249 . S
O76 C75 1.264 . S
O77 Mg70 1.986 . S
O77 C81 1.246 . S
O78 Mg73 2.032 . S
O78 C81 1.259 . S
O79 Mg70 2.114 . S
O79 C82 1.252 . S
O80 Mg70 2.251 . S
O80 Mg73 2.079 . S
O80 C82 1.273 . S
C81 O77 1.246 . S
C81 O78 1.259 . S
C82 O79 1.252 . S
C82 O80 1.273 . S
O83 Mg70 2.010 . S
O83 C75 1.249 . S
Mg84 O85 2.028 . S
Mg84 O91 1.986 . S
Mg84 O93 2.114 . S
Mg84 O94 2.251 . S
Mg84 O97 2.010 . S
O85 Mg84 2.028 . S
O85 C88 1.250 . S
O86 Mg87 2.028 . S
O86 C88 1.248 . S
Mg87 O86 2.028 . S
Mg87 O92 2.032 . S
Mg87 O94 2.079 . S
C88 O85 1.250 . S
C88 O86 1.248 . S
C89 O90 1.264 . S
C89 O97 1.249 . S
O90 C89 1.264 . S
O91 Mg84 1.986 . S
O91 C95 1.246 . S
O92 Mg87 2.032 . S
O92 C95 1.259 . S
O93 Mg84 2.114 . S
O93 C96 1.252 . S
O94 Mg84 2.251 . S
O94 Mg87 2.079 . S
O94 C96 1.273 . S
C95 O91 1.246 . S
C95 O92 1.259 . S
C96 O93 1.252 . S
C96 O94 1.273 . S
O97 Mg84 2.010 . S
O97 C89 1.249 . S
Mg98 O99 2.028 . S
Mg98 O105 1.986 . S
Mg98 O107 2.114 . S
Mg98 O108 2.251 . S
Mg98 O111 2.010 . S
O99 Mg98 2.028 . S
O99 C102 1.250 . S
O100 Mg101 2.028 . S
O100 C102 1.248 . S
Mg101 O100 2.028 . S
Mg101 O106 2.032 . S
Mg101 O108 2.079 . S
C102 O99 1.250 . S
C102 O100 1.248 . S
C103 O104 1.264 . S
C103 O111 1.249 . S
O104 C103 1.264 . S
O105 Mg98 1.986 . S
O105 C109 1.246 . S
O106 Mg101 2.032 . S
O106 C109 1.259 . S
O107 Mg98 2.114 . S
O107 C110 1.252 . S
O108 Mg98 2.251 . S
O108 Mg101 2.079 . S
O108 C110 1.273 . S
C109 O105 1.246 . S
C109 O106 1.259 . S
C110 O107 1.252 . S
C110 O108 1.273 . S
O111 Mg98 2.010 . S
O111 C103 1.249 . S
Mg112 O113 2.028 . S
Mg112 O119 1.986 . S
Mg112 O121 2.114 . S
Mg112 O122 2.251 . S
Mg112 O125 2.010 . S
O113 Mg112 2.028 . S
O113 C116 1.250 . S
O114 Mg115 2.028 . S
O114 C116 1.248 . S
Mg115 O114 2.028 . S
Mg115 O120 2.032 . S
Mg115 O122 2.079 . S
C116 O113 1.250 . S
C116 O114 1.248 . S
C117 O118 1.264 . S
C117 O125 1.249 . S
O118 C117 1.264 . S
O119 Mg112 1.986 . S
O119 C123 1.246 . S
O120 Mg115 2.032 . S
O120 C123 1.259 . S
O121 Mg112 2.114 . S
O121 C124 1.252 . S
O122 Mg112 2.251 . S
O122 Mg115 2.079 . S
O122 C124 1.273 . S
C123 O119 1.246 . S
C123 O120 1.259 . S
C124 O121 1.252 . S
C124 O122 1.273 . S
O125 Mg112 2.010 . S
O125 C117 1.249 . S
Mg126 O127 2.028 . S
Mg126 O133 1.986 . S
Mg126 O135 2.114 . S
Mg126 O136 2.251 . S
Mg126 O139 2.010 . S
O127 Mg126 2.028 . S
O127 C130 1.250 . S
O128 Mg129 2.028 . S
O128 C130 1.248 . S
Mg129 O128 2.028 . S
Mg129 O134 2.032 . S
Mg129 O136 2.079 . S
C130 O127 1.250 . S
C130 O128 1.248 . S
C131 O132 1.264 . S
C131 O139 1.249 . S
O132 C131 1.264 . S
O133 Mg126 1.986 . S
O133 C137 1.246 . S
O134 Mg129 2.032 . S
O134 C137 1.259 . S
O135 Mg126 2.114 . S
O135 C138 1.252 . S
O136 Mg126 2.251 . S
O136 Mg129 2.079 . S
O136 C138 1.273 . S
C137 O133 1.246 . S
C137 O134 1.259 . S
C138 O135 1.252 . S
C138 O136 1.273 . S
O139 Mg126 2.010 . S
O139 C131 1.249 . S
Mg140 O141 2.028 . S
Mg140 O147 1.986 . S
Mg140 O149 2.114 . S
Mg140 O150 2.251 . S
Mg140 O153 2.010 . S
O141 Mg140 2.028 . S
O141 C144 1.250 . S
O142 Mg143 2.028 . S
O142 C144 1.248 . S
Mg143 O142 2.028 . S
Mg143 O148 2.032 . S
Mg143 O150 2.079 . S
C144 O141 1.250 . S
C144 O142 1.248 . S
C145 O146 1.264 . S
C145 O153 1.249 . S
O146 C145 1.264 . S
O147 Mg140 1.986 . S
O147 C151 1.246 . S
O148 Mg143 2.032 . S
O148 C151 1.259 . S
O149 Mg140 2.114 . S
O149 C152 1.252 . S
O150 Mg140 2.251 . S
O150 Mg143 2.079 . S
O150 C152 1.273 . S
C151 O147 1.246 . S
C151 O148 1.259 . S
C152 O149 1.252 . S
C152 O150 1.273 . S
O153 Mg140 2.010 . S
O153 C145 1.249 . S
Mg154 O155 2.028 . S
Mg154 O161 1.986 . S
Mg154 O163 2.114 . S
Mg154 O164 2.251 . S
Mg154 O167 2.010 . S
O155 Mg154 2.028 . S
O155 C158 1.250 . S
O156 Mg157 2.028 . S
O156 C158 1.248 . S
Mg157 O156 2.028 . S
Mg157 O162 2.032 . S
Mg157 O164 2.079 . S
C158 O155 1.250 . S
C158 O156 1.248 . S
C159 O160 1.264 . S
C159 O167 1.249 . S
O160 C159 1.264 . S
O161 Mg154 1.986 . S
O161 C165 1.246 . S
O162 Mg157 2.032 . S
O162 C165 1.259 . S
O163 Mg154 2.114 . S
O163 C166 1.252 . S
O164 Mg154 2.251 . S
O164 Mg157 2.079 . S
O164 C166 1.273 . S
C165 O161 1.246 . S
C165 O162 1.259 . S
C166 O163 1.252 . S
C166 O164 1.273 . S
O167 Mg154 2.010 . S
O167 C159 1.249 . S
Mg168 O169 2.028 . S
Mg168 O175 1.986 . S
Mg168 O177 2.114 . S
Mg168 O178 2.251 . S
Mg168 O181 2.010 . S
O169 Mg168 2.028 . S
O169 C172 1.250 . S
O170 Mg171 2.028 . S
O170 C172 1.248 . S
Mg171 O170 2.028 . S
Mg171 O176 2.032 . S
Mg171 O178 2.079 . S
C172 O169 1.250 . S
C172 O170 1.248 . S
C173 O174 1.264 . S
C173 O181 1.249 . S
O174 C173 1.264 . S
O175 Mg168 1.986 . S
O175 C179 1.246 . S
O176 Mg171 2.032 . S
O176 C179 1.259 . S
O177 Mg168 2.114 . S
O177 C180 1.252 . S
O178 Mg168 2.251 . S
O178 Mg171 2.079 . S
O178 C180 1.273 . S
C179 O175 1.246 . S
C179 O176 1.259 . S
C180 O177 1.252 . S
C180 O178 1.273 . S
O181 Mg168 2.010 . S
O181 C173 1.249 . S
Mg182 O183 2.028 . S
Mg182 O189 1.986 . S
Mg182 O191 2.114 . S
Mg182 O192 2.251 . S
Mg182 O195 2.010 . S
O183 Mg182 2.028 . S
O183 C186 1.250 . S
O184 Mg185 2.028 . S
O184 C186 1.248 . S
Mg185 O184 2.028 . S
Mg185 O190 2.032 . S
Mg185 O192 2.079 . S
C186 O183 1.250 . S
C186 O184 1.248 . S
C187 O188 1.264 . S
C187 O195 1.249 . S
O188 C187 1.264 . S
O189 Mg182 1.986 . S
O189 C193 1.246 . S
O190 Mg185 2.032 . S
O190 C193 1.259 . S
O191 Mg182 2.114 . S
O191 C194 1.252 . S
O192 Mg182 2.251 . S
O192 Mg185 2.079 . S
O192 C194 1.273 . S
C193 O189 1.246 . S
C193 O190 1.259 . S
C194 O191 1.252 . S
C194 O192 1.273 . S
O195 Mg182 2.010 . S
O195 C187 1.249 . S
Mg196 O197 2.028 . S
Mg196 O203 1.986 . S
Mg196 O205 2.114 . S
Mg196 O206 2.251 . S
Mg196 O209 2.010 . S
O197 Mg196 2.028 . S
O197 C200 1.250 . S
O198 Mg199 2.028 . S
O198 C200 1.248 . S
Mg199 O198 2.028 . S
Mg199 O204 2.032 . S
Mg199 O206 2.079 . S
C200 O197 1.250 . S
C200 O198 1.248 . S
C201 O202 1.264 . S
C201 O209 1.249 . S
O202 C201 1.264 . S
O203 Mg196 1.986 . S
O203 C207 1.246 . S
O204 Mg199 2.032 . S
O204 C207 1.259 . S
O205 Mg196 2.114 . S
O205 C208 1.252 . S
O206 Mg196 2.251 . S
O206 Mg199 2.079 . S
O206 C208 1.273 . S
C207 O203 1.246 . S
C207 O204 1.259 . S
C208 O205 1.252 . S
C208 O206 1.273 . S
O209 Mg196 2.010 . S
O209 C201 1.249 . S
Mg210 O211 2.028 . S
Mg210 O217 1.986 . S
Mg210 O219 2.114 . S
Mg210 O220 2.251 . S
Mg210 O223 2.010 . S
O211 Mg210 2.028 . S
O211 C214 1.250 . S
O212 Mg213 2.028 . S
O212 C214 1.248 . S
Mg213 O212 2.028 . S
Mg213 O218 2.032 . S
Mg213 O220 2.079 . S
C214 O211 1.250 . S
C214 O212 1.248 . S
C215 O216 1.264 . S
C215 O223 1.249 . S
O216 C215 1.264 . S
O217 Mg210 1.986 . S
O217 C221 1.246 . S
O218 Mg213 2.032 . S
O218 C221 1.259 . S
O219 Mg210 2.114 . S
O219 C222 1.252 . S
O220 Mg210 2.251 . S
O220 Mg213 2.079 . S
O220 C222 1.273 . S
C221 O217 1.246 . S
C221 O218 1.259 . S
C222 O219 1.252 . S
C222 O220 1.273 . S
O223 Mg210 2.010 . S
O223 C215 1.249 . S
Mg224 O225 2.028 . S
Mg224 O231 1.986 . S
Mg224 O233 2.114 . S
Mg224 O234 2.251 . S
Mg224 O237 2.010 . S
O225 Mg224 2.028 . S
O225 C228 1.250 . S
O226 Mg227 2.028 . S
O226 C228 1.248 . S
Mg227 O226 2.028 . S
Mg227 O232 2.032 . S
Mg227 O234 2.079 . S
C228 O225 1.250 . S
C228 O226 1.248 . S
C229 O230 1.264 . S
C229 O237 1.249 . S
O230 C229 1.264 . S
O231 Mg224 1.986 . S
O231 C235 1.246 . S
O232 Mg227 2.032 . S
O232 C235 1.259 . S
O233 Mg224 2.114 . S
O233 C236 1.252 . S
O234 Mg224 2.251 . S
O234 Mg227 2.079 . S
O234 C236 1.273 . S
C235 O231 1.246 . S
C235 O232 1.259 . S
C236 O233 1.252 . S
C236 O234 1.273 . S
O237 Mg224 2.010 . S
O237 C229 1.249 . S
Mg238 O239 2.028 . S
Mg238 O245 1.986 . S
Mg238 O247 2.114 . S
Mg238 O248 2.251 . S
Mg238 O251 2.010 . S
O239 Mg238 2.028 . S
O239 C242 1.250 . S
O240 Mg241 2.028 . S
O240 C242 1.248 . S
Mg241 O240 2.028 . S
Mg241 O246 2.032 . S
Mg241 O248 2.079 . S
C242 O239 1.250 . S
C242 O240 1.248 . S
C243 O244 1.264 . S
C243 O251 1.249 . S
O244 C243 1.264 . S
O245 Mg238 1.986 . S
O245 C249 1.246 . S
O246 Mg241 2.032 . S
O246 C249 1.259 . S
O247 Mg238 2.114 . S
O247 C250 1.252 . S
O248 Mg238 2.251 . S
O248 Mg241 2.079 . S
O248 C250 1.273 . S
C249 O245 1.246 . S
C249 O246 1.259 . S
C250 O247 1.252 . S
C250 O248 1.273 . S
O251 Mg238 2.010 . S
O251 C243 1.249 . S
H252 C260 0.929 . S
H253 C262 0.930 . S
H254 C264 0.930 . S
H255 C267 0.929 . S
H256 C270 0.930 . S
H257 C272 0.960 . S
H258 C272 0.960 . S
H259 C272 0.960 . S
C260 H252 0.929 . S
C260 C261 1.377 . S
C260 C262 1.384 . S
C261 C260 1.377 . S
C261 C267 1.390 . S
C262 H253 0.930 . S
C262 C260 1.384 . S
C262 C263 1.372 . S
C263 C262 1.372 . S
C263 C264 1.400 . S
C263 C268 1.490 . S
C264 H254 0.930 . S
C264 C263 1.400 . S
C264 C267 1.386 . S
H265 C281 0.930 . S
H266 C282 0.931 . S
C267 H255 0.929 . S
C267 C261 1.390 . S
C267 C264 1.386 . S
C268 C263 1.490 . S
C268 C270 1.395 . S
C268 C271 1.403 . S
H269 C275 0.930 . S
C270 H256 0.930 . S
C270 C268 1.395 . S
C270 C273 1.403 . S
C271 C268 1.403 . S
C271 C272 1.524 . S
C271 C275 1.400 . S
C272 H257 0.960 . S
C272 H258 0.960 . S
C272 H259 0.960 . S
C272 C271 1.524 . S
C273 C270 1.403 . S
C273 C274 1.392 . S
C273 C277 1.495 . S
C274 C273 1.392 . S
C274 C275 1.385 . S
C274 C276 1.478 . S
C275 H269 0.930 . S
C275 C271 1.400 . S
C275 C274 1.385 . S
C276 C274 1.478 . S
C276 C278 1.381 . S
C276 C282 1.383 . S
C277 C273 1.495 . S
C277 H283 0.959 . S
C277 H284 0.961 . S
C277 H285 0.960 . S
C278 C276 1.381 . S
C278 C279 1.394 . S
C278 H286 0.930 . S
C279 C278 1.394 . S
C279 C280 1.383 . S
C279 H287 0.929 . S
C280 C279 1.383 . S
C280 C281 1.377 . S
C281 H265 0.930 . S
C281 C280 1.377 . S
C281 C282 1.379 . S
C282 H266 0.931 . S
C282 C276 1.383 . S
C282 C281 1.379 . S
H283 C277 0.959 . S
H284 C277 0.961 . S
H285 C277 0.960 . S
H286 C278 0.930 . S
H287 C279 0.929 . S
H288 C296 0.929 . S
H289 C298 0.930 . S
H290 C300 0.930 . S
H291 C303 0.929 . S
H292 C306 0.930 . S
H293 C308 0.960 . S
H294 C308 0.960 . S
H295 C308 0.960 . S
C296 H288 0.929 . S
C296 C297 1.377 . S
C296 C298 1.384 . S
C297 C296 1.377 . S
C297 C303 1.390 . S
C298 H289 0.930 . S
C298 C296 1.384 . S
C298 C299 1.372 . S
C299 C298 1.372 . S
C299 C300 1.400 . S
C299 C304 1.490 . S
C300 H290 0.930 . S
C300 C299 1.400 . S
C300 C303 1.386 . S
H301 C317 0.930 . S
H302 C318 0.931 . S
C303 H291 0.929 . S
C303 C297 1.390 . S
C303 C300 1.386 . S
C304 C299 1.490 . S
C304 C306 1.395 . S
C304 C307 1.403 . S
H305 C311 0.930 . S
C306 H292 0.930 . S
C306 C304 1.395 . S
C306 C309 1.403 . S
C307 C304 1.403 . S
C307 C308 1.524 . S
C307 C311 1.400 . S
C308 H293 0.960 . S
C308 H294 0.960 . S
C308 H295 0.960 . S
C308 C307 1.524 . S
C309 C306 1.403 . S
C309 C310 1.392 . S
C309 C313 1.495 . S
C310 C309 1.392 . S
C310 C311 1.385 . S
C310 C312 1.478 . S
C311 H305 0.930 . S
C311 C307 1.400 . S
C311 C310 1.385 . S
C312 C310 1.478 . S
C312 C314 1.381 . S
C312 C318 1.383 . S
C313 C309 1.495 . S
C313 H319 0.959 . S
C313 H320 0.961 . S
C313 H321 0.960 . S
C314 C312 1.381 . S
C314 C315 1.394 . S
C314 H322 0.930 . S
C315 C314 1.394 . S
C315 C316 1.383 . S
C315 H323 0.929 . S
C316 C315 1.383 . S
C316 C317 1.377 . S
C317 H301 0.930 . S
C317 C316 1.377 . S
C317 C318 1.379 . S
C318 H302 0.931 . S
C318 C312 1.383 . S
C318 C317 1.379 . S
H319 C313 0.959 . S
H320 C313 0.961 . S
H321 C313 0.960 . S
H322 C314 0.930 . S
H323 C315 0.929 . S
H324 C332 0.929 . S
H325 C334 0.930 . S
H326 C336 0.930 . S
H327 C339 0.929 . S
H328 C342 0.930 . S
H329 C344 0.960 . S
H330 C344 0.960 . S
H331 C344 0.960 . S
C332 H324 0.929 . S
C332 C333 1.377 . S
C332 C334 1.384 . S
C333 C332 1.377 . S
C333 C339 1.390 . S
C334 H325 0.930 . S
C334 C332 1.384 . S
C334 C335 1.372 . S
C335 C334 1.372 . S
C335 C336 1.400 . S
C335 C340 1.490 . S
C336 H326 0.930 . S
C336 C335 1.400 . S
C336 C339 1.386 . S
H337 C353 0.930 . S
H338 C354 0.931 . S
C339 H327 0.929 . S
C339 C333 1.390 . S
C339 C336 1.386 . S
C340 C335 1.490 . S
C340 C342 1.395 . S
C340 C343 1.403 . S
H341 C347 0.930 . S
C342 H328 0.930 . S
C342 C340 1.395 . S
C342 C345 1.403 . S
C343 C340 1.403 . S
C343 C344 1.524 . S
C343 C347 1.400 . S
C344 H329 0.960 . S
C344 H330 0.960 . S
C344 H331 0.960 . S
C344 C343 1.524 . S
C345 C342 1.403 . S
C345 C346 1.392 . S
C345 C349 1.495 . S
C346 C345 1.392 . S
C346 C347 1.385 . S
C346 C348 1.478 . S
C347 H341 0.930 . S
C347 C343 1.400 . S
C347 C346 1.385 . S
C348 C346 1.478 . S
C348 C350 1.381 . S
C348 C354 1.383 . S
C349 C345 1.495 . S
C349 H355 0.959 . S
C349 H356 0.961 . S
C349 H357 0.960 . S
C350 C348 1.381 . S
C350 C351 1.394 . S
C350 H358 0.930 . S
C351 C350 1.394 . S
C351 C352 1.383 . S
C351 H359 0.929 . S
C352 C351 1.383 . S
C352 C353 1.377 . S
C353 H337 0.930 . S
C353 C352 1.377 . S
C353 C354 1.379 . S
C354 H338 0.931 . S
C354 C348 1.383 . S
C354 C353 1.379 . S
H355 C349 0.959 . S
H356 C349 0.961 . S
H357 C349 0.960 . S
H358 C350 0.930 . S
H359 C351 0.929 . S
H360 C368 0.929 . S
H361 C370 0.930 . S
H362 C372 0.930 . S
H363 C375 0.929 . S
H364 C378 0.930 . S
H365 C380 0.960 . S
H366 C380 0.960 . S
H367 C380 0.960 . S
C368 H360 0.929 . S
C368 C369 1.377 . S
C368 C370 1.384 . S
C369 C368 1.377 . S
C369 C375 1.390 . S
C370 H361 0.930 . S
C370 C368 1.384 . S
C370 C371 1.372 . S
C371 C370 1.372 . S
C371 C372 1.400 . S
C371 C376 1.490 . S
C372 H362 0.930 . S
C372 C371 1.400 . S
C372 C375 1.386 . S
H373 C389 0.930 . S
H374 C390 0.931 . S
C375 H363 0.929 . S
C375 C369 1.390 . S
C375 C372 1.386 . S
C376 C371 1.490 . S
C376 C378 1.395 . S
C376 C379 1.403 . S
H377 C383 0.930 . S
C378 H364 0.930 . S
C378 C376 1.395 . S
C378 C381 1.403 . S
C379 C376 1.403 . S
C379 C380 1.524 . S
C379 C383 1.400 . S
C380 H365 0.960 . S
C380 H366 0.960 . S
C380 H367 0.960 . S
C380 C379 1.524 . S
C381 C378 1.403 . S
C381 C382 1.392 . S
C381 C385 1.495 . S
C382 C381 1.392 . S
C382 C383 1.385 . S
C382 C384 1.478 . S
C383 H377 0.930 . S
C383 C379 1.400 . S
C383 C382 1.385 . S
C384 C382 1.478 . S
C384 C386 1.381 . S
C384 C390 1.383 . S
C385 C381 1.495 . S
C385 H391 0.959 . S
C385 H392 0.961 . S
C385 H393 0.960 . S
C386 C384 1.381 . S
C386 C387 1.394 . S
C386 H394 0.930 . S
C387 C386 1.394 . S
C387 C388 1.383 . S
C387 H395 0.929 . S
C388 C387 1.383 . S
C388 C389 1.377 . S
C389 H373 0.930 . S
C389 C388 1.377 . S
C389 C390 1.379 . S
C390 H374 0.931 . S
C390 C384 1.383 . S
C390 C389 1.379 . S
H391 C385 0.959 . S
H392 C385 0.961 . S
H393 C385 0.960 . S
H394 C386 0.930 . S
H395 C387 0.929 . S
H396 C404 0.929 . S
H397 C406 0.930 . S
H398 C408 0.930 . S
H399 C411 0.929 . S
H400 C414 0.930 . S
H401 C416 0.960 . S
H402 C416 0.960 . S
H403 C416 0.960 . S
C404 H396 0.929 . S
C404 C405 1.377 . S
C404 C406 1.384 . S
C405 C404 1.377 . S
C405 C411 1.390 . S
C406 H397 0.930 . S
C406 C404 1.384 . S
C406 C407 1.372 . S
C407 C406 1.372 . S
C407 C408 1.400 . S
C407 C412 1.490 . S
C408 H398 0.930 . S
C408 C407 1.400 . S
C408 C411 1.386 . S
H409 C425 0.930 . S
H410 C426 0.931 . S
C411 H399 0.929 . S
C411 C405 1.390 . S
C411 C408 1.386 . S
C412 C407 1.490 . S
C412 C414 1.395 . S
C412 C415 1.403 . S
H413 C419 0.930 . S
C414 H400 0.930 . S
C414 C412 1.395 . S
C414 C417 1.403 . S
C415 C412 1.403 . S
C415 C416 1.524 . S
C415 C419 1.400 . S
C416 H401 0.960 . S
C416 H402 0.960 . S
C416 H403 0.960 . S
C416 C415 1.524 . S
C417 C414 1.403 . S
C417 C418 1.392 . S
C417 C421 1.495 . S
C418 C417 1.392 . S
C418 C419 1.385 . S
C418 C420 1.478 . S
C419 H413 0.930 . S
C419 C415 1.400 . S
C419 C418 1.385 . S
C420 C418 1.478 . S
C420 C422 1.381 . S
C420 C426 1.383 . S
C421 C417 1.495 . S
C421 H427 0.959 . S
C421 H428 0.961 . S
C421 H429 0.960 . S
C422 C420 1.381 . S
C422 C423 1.394 . S
C422 H430 0.930 . S
C423 C422 1.394 . S
C423 C424 1.383 . S
C423 H431 0.929 . S
C424 C423 1.383 . S
C424 C425 1.377 . S
C425 H409 0.930 . S
C425 C424 1.377 . S
C425 C426 1.379 . S
C426 H410 0.931 . S
C426 C420 1.383 . S
C426 C425 1.379 . S
H427 C421 0.959 . S
H428 C421 0.961 . S
H429 C421 0.960 . S
H430 C422 0.930 . S
H431 C423 0.929 . S
H432 C440 0.929 . S
H433 C442 0.930 . S
H434 C444 0.930 . S
H435 C447 0.929 . S
H436 C450 0.930 . S
H437 C452 0.960 . S
H438 C452 0.960 . S
H439 C452 0.960 . S
C440 H432 0.929 . S
C440 C441 1.377 . S
C440 C442 1.384 . S
C441 C440 1.377 . S
C441 C447 1.390 . S
C442 H433 0.930 . S
C442 C440 1.384 . S
C442 C443 1.372 . S
C443 C442 1.372 . S
C443 C444 1.400 . S
C443 C448 1.490 . S
C444 H434 0.930 . S
C444 C443 1.400 . S
C444 C447 1.386 . S
H445 C461 0.930 . S
H446 C462 0.931 . S
C447 H435 0.929 . S
C447 C441 1.390 . S
C447 C444 1.386 . S
C448 C443 1.490 . S
C448 C450 1.395 . S
C448 C451 1.403 . S
H449 C455 0.930 . S
C450 H436 0.930 . S
C450 C448 1.395 . S
C450 C453 1.403 . S
C451 C448 1.403 . S
C451 C452 1.524 . S
C451 C455 1.400 . S
C452 H437 0.960 . S
C452 H438 0.960 . S
C452 H439 0.960 . S
C452 C451 1.524 . S
C453 C450 1.403 . S
C453 C454 1.392 . S
C453 C457 1.495 . S
C454 C453 1.392 . S
C454 C455 1.385 . S
C454 C456 1.478 . S
C455 H449 0.930 . S
C455 C451 1.400 . S
C455 C454 1.385 . S
C456 C454 1.478 . S
C456 C458 1.381 . S
C456 C462 1.383 . S
C457 C453 1.495 . S
C457 H463 0.959 . S
C457 H464 0.961 . S
C457 H465 0.960 . S
C458 C456 1.381 . S
C458 C459 1.394 . S
C458 H466 0.930 . S
C459 C458 1.394 . S
C459 C460 1.383 . S
C459 H467 0.929 . S
C460 C459 1.383 . S
C460 C461 1.377 . S
C461 H445 0.930 . S
C461 C460 1.377 . S
C461 C462 1.379 . S
C462 H446 0.931 . S
C462 C456 1.383 . S
C462 C461 1.379 . S
H463 C457 0.959 . S
H464 C457 0.961 . S
H465 C457 0.960 . S
H466 C458 0.930 . S
H467 C459 0.929 . S
H468 C476 0.929 . S
H469 C478 0.930 . S
H470 C480 0.930 . S
H471 C483 0.929 . S
H472 C486 0.930 . S
H473 C488 0.960 . S
H474 C488 0.960 . S
H475 C488 0.960 . S
C476 H468 0.929 . S
C476 C477 1.377 . S
C476 C478 1.384 . S
C477 C476 1.377 . S
C477 C483 1.390 . S
C478 H469 0.930 . S
C478 C476 1.384 . S
C478 C479 1.372 . S
C479 C478 1.372 . S
C479 C480 1.400 . S
C479 C484 1.490 . S
C480 H470 0.930 . S
C480 C479 1.400 . S
C480 C483 1.386 . S
H481 C497 0.930 . S
H482 C498 0.931 . S
C483 H471 0.929 . S
C483 C477 1.390 . S
C483 C480 1.386 . S
C484 C479 1.490 . S
C484 C486 1.395 1_554 S
C484 C487 1.403 1_655 S
H485 C491 0.931 . S
C486 H472 0.930 . S
C486 C484 1.395 1_556 S
C486 C489 1.403 . S
C487 C484 1.403 1_455 S
C487 C488 1.524 . S
C487 C491 1.400 1_554 S
C488 H473 0.960 . S
C488 H474 0.960 . S
C488 H475 0.960 . S
C488 C487 1.524 . S
C489 C486 1.403 . S
C489 C490 1.392 1_655 S
C489 C493 1.495 . S
C490 C489 1.392 1_455 S
C490 C491 1.385 . S
C490 C492 1.478 . S
C491 H485 0.931 . S
C491 C487 1.400 1_556 S
C491 C490 1.385 . S
C492 C490 1.478 . S
C492 C494 1.381 . S
C492 C498 1.383 . S
C493 C489 1.495 . S
C493 H499 0.959 . S
C493 H500 0.961 . S
C493 H501 0.960 . S
C494 C492 1.381 . S
C494 C495 1.394 . S
C494 H502 0.930 . S
C495 C494 1.394 . S
C495 C496 1.383 . S
C495 H503 0.929 . S
C496 C495 1.383 . S
C496 C497 1.377 . S
C497 H481 0.930 . S
C497 C496 1.377 . S
C497 C498 1.379 . S
C498 H482 0.931 . S
C498 C492 1.383 . S
C498 C497 1.379 . S
H499 C493 0.959 . S
H500 C493 0.961 . S
H501 C493 0.960 . S
H502 C494 0.930 . S
H503 C495 0.929 . S
H504 C512 0.929 . S
H505 C514 0.930 . S
H506 C516 0.930 . S
H507 C519 0.929 . S
H508 C522 0.930 . S
H509 C524 0.960 1_556 S
H510 C524 0.960 . S
H511 C524 0.960 . S
C512 H504 0.929 . S
C512 C513 1.377 . S
C512 C514 1.384 . S
C513 C512 1.377 . S
C513 C519 1.390 . S
C514 H505 0.930 . S
C514 C512 1.384 . S
C514 C515 1.372 . S
C515 C514 1.372 . S
C515 C516 1.400 . S
C515 C520 1.490 . S
C516 H506 0.930 . S
C516 C515 1.400 . S
C516 C519 1.386 . S
H517 C533 0.930 . S
H518 C534 0.931 . S
C519 H507 0.929 . S
C519 C513 1.390 . S
C519 C516 1.386 . S
C520 C515 1.490 . S
C520 C522 1.395 . S
C520 C523 1.403 . S
H521 C527 0.930 . S
C522 H508 0.930 . S
C522 C520 1.395 . S
C522 C525 1.391 1_554 S
C523 C520 1.403 . S
C523 C524 1.524 . S
C523 C527 1.400 1_554 S
C524 H509 0.960 1_554 S
C524 H510 0.960 . S
C524 H511 0.960 . S
C524 C523 1.524 . S
C525 C522 1.391 1_556 S
C525 C526 1.404 . S
C525 C529 1.496 . S
C526 C525 1.404 . S
C526 C527 1.385 . S
C526 C528 1.478 . S
C527 H521 0.930 . S
C527 C523 1.400 1_556 S
C527 C526 1.385 . S
C528 C526 1.478 . S
C528 C530 1.381 . S
C528 C534 1.383 . S
C529 C525 1.496 . S
C529 H535 0.959 1_556 S
C529 H536 0.961 . S
C529 H537 0.960 . S
C530 C528 1.381 . S
C530 C531 1.394 . S
C530 H538 0.930 . S
C531 C530 1.394 . S
C531 C532 1.383 . S
C531 H539 0.929 . S
C532 C531 1.383 . S
C532 C533 1.377 . S
C533 H517 0.930 . S
C533 C532 1.377 . S
C533 C534 1.379 . S
C534 H518 0.931 . S
C534 C528 1.383 . S
C534 C533 1.379 . S
H535 C529 0.959 1_554 S
H536 C529 0.961 . S
H537 C529 0.960 . S
H538 C530 0.930 . S
H539 C531 0.929 . S
H540 C548 0.929 . S
H541 C550 0.930 . S
H542 C552 0.930 . S
H543 C555 0.929 . S
H544 C558 0.930 . S
H545 C560 0.960 . S
H546 C560 0.960 . S
H547 C560 0.960 . S
C548 H540 0.929 . S
C548 C549 1.377 . S
C548 C550 1.384 . S
C549 C548 1.377 . S
C549 C555 1.390 . S
C550 H541 0.930 . S
C550 C548 1.384 . S
C550 C551 1.372 . S
C551 C550 1.372 . S
C551 C552 1.400 . S
C551 C556 1.490 . S
C552 H542 0.930 . S
C552 C551 1.400 . S
C552 C555 1.386 . S
H553 C569 0.930 . S
H554 C570 0.931 . S
C555 H543 0.929 . S
C555 C549 1.390 . S
C555 C552 1.386 . S
C556 C551 1.490 . S
C556 C558 1.395 . S
C556 C559 1.403 . S
H557 C563 0.930 . S
C558 H544 0.930 . S
C558 C556 1.395 . S
C558 C561 1.403 1_544 S
C559 C556 1.403 . S
C559 C560 1.524 . S
C559 C563 1.400 1_544 S
C560 H545 0.960 . S
C560 H546 0.960 . S
C560 H547 0.960 . S
C560 C559 1.524 . S
C561 C558 1.403 1_566 S
C561 C562 1.392 . S
C561 C565 1.495 . S
C562 C561 1.392 . S
C562 C563 1.385 . S
C562 C564 1.478 . S
C563 H557 0.930 . S
C563 C559 1.400 1_566 S
C563 C562 1.385 . S
C564 C562 1.478 . S
C564 C566 1.381 . S
C564 C570 1.383 . S
C565 C561 1.495 . S
C565 H571 0.959 . S
C565 H572 0.961 . S
C565 H573 0.960 . S
C566 C564 1.381 . S
C566 C567 1.394 . S
C566 H574 0.930 . S
C567 C566 1.394 . S
C567 C568 1.383 . S
C567 H575 0.929 . S
C568 C567 1.383 . S
C568 C569 1.377 . S
C569 H553 0.930 . S
C569 C568 1.377 . S
C569 C570 1.379 . S
C570 H554 0.931 . S
C570 C564 1.383 . S
C570 C569 1.379 . S
H571 C565 0.959 . S
H572 C565 0.961 . S
H573 C565 0.960 . S
H574 C566 0.930 . S
H575 C567 0.929 . S
H576 C584 0.929 . S
H577 C586 0.930 . S
H578 C588 0.930 . S
H579 C591 0.929 . S
H580 C594 0.930 . S
H581 C596 0.960 . S
H582 C596 0.960 . S
H583 C596 0.960 . S
C584 H576 0.929 . S
C584 C585 1.377 . S
C584 C586 1.384 . S
C585 C584 1.377 . S
C585 C591 1.390 . S
C586 H577 0.930 . S
C586 C584 1.384 . S
C586 C587 1.372 . S
C587 C586 1.372 . S
C587 C588 1.400 . S
C587 C592 1.490 . S
C588 H578 0.930 . S
C588 C587 1.400 . S
C588 C591 1.386 . S
H589 C605 0.930 . S
H590 C606 0.931 . S
C591 H579 0.929 . S
C591 C585 1.390 . S
C591 C588 1.386 . S
C592 C587 1.490 . S
C592 C594 1.395 . S
C592 C595 1.403 . S
H593 C599 0.930 . S
C594 H580 0.930 . S
C594 C592 1.395 . S
C594 C597 1.403 . S
C595 C592 1.403 . S
C595 C596 1.524 . S
C595 C599 1.400 . S
C596 H581 0.960 . S
C596 H582 0.960 . S
C596 H583 0.960 . S
C596 C595 1.524 . S
C597 C594 1.403 . S
C597 C598 1.392 . S
C597 C601 1.495 . S
C598 C597 1.392 . S
C598 C599 1.385 . S
C598 C600 1.478 . S
C599 H593 0.930 . S
C599 C595 1.400 . S
C599 C598 1.385 . S
C600 C598 1.478 . S
C600 C602 1.381 . S
C600 C606 1.383 . S
C601 C597 1.495 . S
C601 H607 0.959 . S
C601 H608 0.961 . S
C601 H609 0.960 . S
C602 C600 1.381 . S
C602 C603 1.394 . S
C602 H610 0.930 . S
C603 C602 1.394 . S
C603 C604 1.383 . S
C603 H611 0.929 . S
C604 C603 1.383 . S
C604 C605 1.377 . S
C605 H589 0.930 . S
C605 C604 1.377 . S
C605 C606 1.379 . S
C606 H590 0.931 . S
C606 C600 1.383 . S
C606 C605 1.379 . S
H607 C601 0.959 . S
H608 C601 0.961 . S
H609 C601 0.960 . S
H610 C602 0.930 . S
H611 C603 0.929 . S
H612 C620 0.929 . S
H613 C622 0.930 . S
H614 C624 0.930 . S
H615 C627 0.929 . S
H616 C630 0.930 . S
H617 C632 0.960 . S
H618 C632 0.960 . S
H619 C632 0.960 . S
C620 H612 0.929 . S
C620 C621 1.377 . S
C620 C622 1.384 . S
C621 C620 1.377 . S
C621 C627 1.390 . S
C622 H613 0.930 . S
C622 C620 1.384 . S
C622 C623 1.372 . S
C623 C622 1.372 . S
C623 C624 1.400 . S
C623 C628 1.490 . S
C624 H614 0.930 . S
C624 C623 1.400 . S
C624 C627 1.386 . S
H625 C641 0.930 . S
H626 C642 0.931 . S
C627 H615 0.929 . S
C627 C621 1.390 . S
C627 C624 1.386 . S
C628 C623 1.490 . S
C628 C630 1.395 . S
C628 C631 1.403 . S
H629 C635 0.930 . S
C630 H616 0.930 . S
C630 C628 1.395 . S
C630 C633 1.403 . S
C631 C628 1.403 . S
C631 C632 1.524 . S
C631 C635 1.400 . S
C632 H617 0.960 . S
C632 H618 0.960 . S
C632 H619 0.960 . S
C632 C631 1.524 . S
C633 C630 1.403 . S
C633 C634 1.392 . S
C633 C637 1.495 . S
C634 C633 1.392 . S
C634 C635 1.385 . S
C634 C636 1.478 . S
C635 H629 0.930 . S
C635 C631 1.400 . S
C635 C634 1.385 . S
C636 C634 1.478 . S
C636 C638 1.381 . S
C636 C642 1.383 . S
C637 C633 1.495 . S
C637 H643 0.959 . S
C637 H644 0.961 . S
C637 H645 0.960 . S
C638 C636 1.381 . S
C638 C639 1.394 . S
C638 H646 0.930 . S
C639 C638 1.394 . S
C639 C640 1.383 . S
C639 H647 0.929 . S
C640 C639 1.383 . S
C640 C641 1.377 . S
C641 H625 0.930 . S
C641 C640 1.377 . S
C641 C642 1.379 . S
C642 H626 0.931 . S
C642 C636 1.383 . S
C642 C641 1.379 . S
H643 C637 0.959 . S
H644 C637 0.961 . S
H645 C637 0.960 . S
H646 C638 0.930 . S
H647 C639 0.929 . S
H648 C656 0.929 . S
H649 C658 0.930 . S
H650 C660 0.930 . S
H651 C663 0.929 1_554 S
H652 C666 0.930 . S
H653 C668 0.960 . S
H654 C668 0.960 . S
H655 C668 0.960 . S
C656 H648 0.929 . S
C656 C657 1.377 . S
C656 C658 1.384 . S
C657 C656 1.377 . S
C657 C663 1.390 . S
C658 H649 0.930 . S
C658 C656 1.384 . S
C658 C659 1.372 . S
C659 C658 1.372 . S
C659 C660 1.400 . S
C659 C664 1.490 . S
C660 H650 0.930 . S
C660 C659 1.400 . S
C660 C663 1.386 . S
H661 C677 0.930 . S
H662 C678 0.931 . S
C663 H651 0.929 1_556 S
C663 C657 1.390 . S
C663 C660 1.386 . S
C664 C659 1.490 . S
C664 C666 1.395 . S
C664 C667 1.403 . S
H665 C671 0.930 . S
C666 H652 0.930 . S
C666 C664 1.395 . S
C666 C669 1.403 . S
C667 C664 1.403 . S
C667 C668 1.524 . S
C667 C671 1.400 . S
C668 H653 0.960 . S
C668 H654 0.960 . S
C668 H655 0.960 . S
C668 C667 1.524 . S
C669 C666 1.403 . S
C669 C670 1.392 . S
C669 C673 1.495 . S
C670 C669 1.392 . S
C670 C671 1.385 . S
C670 C672 1.478 . S
C671 H665 0.930 . S
C671 C667 1.400 . S
C671 C670 1.385 . S
C672 C670 1.478 . S
C672 C674 1.381 . S
C672 C678 1.383 . S
C673 C669 1.495 . S
C673 H679 0.959 . S
C673 H680 0.961 . S
C673 H681 0.960 . S
C674 C672 1.381 . S
C674 C675 1.394 . S
C674 H682 0.930 . S
C675 C674 1.394 . S
C675 C676 1.383 . S
C675 H683 0.929 . S
C676 C675 1.383 . S
C676 C677 1.377 . S
C677 H661 0.930 . S
C677 C676 1.377 . S
C677 C678 1.379 . S
C678 H662 0.931 . S
C678 C672 1.383 . S
C678 C677 1.379 . S
H679 C673 0.959 . S
H680 C673 0.961 . S
H681 C673 0.960 . S
H682 C674 0.930 . S
H683 C675 0.929 . S
H684 C692 0.929 . S
H685 C694 0.930 . S
H686 C696 0.930 . S
H687 C699 0.929 . S
H688 C702 0.930 . S
H689 C704 0.960 . S
H690 C704 0.960 . S
H691 C704 0.960 . S
C692 H684 0.929 . S
C692 C693 1.377 . S
C692 C694 1.384 . S
C693 C692 1.377 . S
C693 C699 1.390 . S
C694 H685 0.930 . S
C694 C692 1.384 . S
C694 C695 1.372 . S
C695 C694 1.372 . S
C695 C696 1.400 . S
C695 C700 1.490 . S
C696 H686 0.930 . S
C696 C695 1.400 . S
C696 C699 1.386 . S
H697 C713 0.930 . S
H698 C714 0.931 . S
C699 H687 0.929 . S
C699 C693 1.390 . S
C699 C696 1.386 . S
C700 C695 1.490 . S
C700 C702 1.395 . S
C700 C703 1.403 . S
H701 C707 0.930 . S
C702 H688 0.930 . S
C702 C700 1.395 . S
C702 C705 1.403 . S
C703 C700 1.403 . S
C703 C704 1.524 . S
C703 C707 1.400 . S
C704 H689 0.960 . S
C704 H690 0.960 . S
C704 H691 0.960 . S
C704 C703 1.524 . S
C705 C702 1.403 . S
C705 C706 1.392 . S
C705 C709 1.495 . S
C706 C705 1.392 . S
C706 C707 1.385 . S
C706 C708 1.478 . S
C707 H701 0.930 . S
C707 C703 1.400 . S
C707 C706 1.385 . S
C708 C706 1.478 . S
C708 C710 1.381 . S
C708 C714 1.383 . S
C709 C705 1.495 . S
C709 H715 0.959 . S
C709 H716 0.961 . S
C709 H717 0.960 . S
C710 C708 1.381 . S
C710 C711 1.394 . S
C710 H718 0.930 . S
C711 C710 1.394 . S
C711 C712 1.383 . S
C711 H719 0.929 1_554 S
C712 C711 1.383 . S
C712 C713 1.377 . S
C713 H697 0.930 . S
C713 C712 1.377 . S
C713 C714 1.379 . S
C714 H698 0.931 . S
C714 C708 1.383 . S
C714 C713 1.379 . S
H715 C709 0.959 . S
H716 C709 0.961 . S
H717 C709 0.960 . S
H718 C710 0.930 . S
H719 C711 0.929 1_556 S
H720 C728 0.929 1_556 S
H721 C730 0.930 . S
H722 C732 0.930 . S
H723 C735 0.929 . S
H724 C738 0.930 . S
H725 C740 0.960 . S
H726 C740 0.960 . S
H727 C740 0.960 . S
C728 H720 0.929 1_554 S
C728 C729 1.377 . S
C728 C730 1.384 . S
C729 C728 1.377 . S
C729 C735 1.390 . S
C730 H721 0.930 . S
C730 C728 1.384 . S
C730 C731 1.372 . S
C731 C730 1.372 . S
C731 C732 1.400 . S
C731 C736 1.490 . S
C732 H722 0.930 . S
C732 C731 1.400 . S
C732 C735 1.386 . S
H733 C749 0.930 . S
H734 C750 0.931 . S
C735 H723 0.929 . S
C735 C729 1.390 . S
C735 C732 1.386 . S
C736 C731 1.490 . S
C736 C738 1.395 . S
C736 C739 1.403 . S
H737 C743 0.930 . S
C738 H724 0.930 . S
C738 C736 1.395 . S
C738 C741 1.403 . S
C739 C736 1.403 . S
C739 C740 1.524 . S
C739 C743 1.400 . S
C740 H725 0.960 . S
C740 H726 0.960 . S
C740 H727 0.960 . S
C740 C739 1.524 . S
C741 C738 1.403 . S
C741 C742 1.392 . S
C741 C745 1.495 . S
C742 C741 1.392 . S
C742 C743 1.385 . S
C742 C744 1.478 . S
C743 H737 0.930 . S
C743 C739 1.400 . S
C743 C742 1.385 . S
C744 C742 1.478 . S
C744 C746 1.381 . S
C744 C750 1.383 . S
C745 C741 1.495 . S
C745 H751 0.959 . S
C745 H752 0.961 . S
C745 H753 0.960 . S
C746 C744 1.381 . S
C746 C747 1.394 . S
C746 H754 0.930 . S
C747 C746 1.394 . S
C747 C748 1.383 . S
C747 H755 0.929 . S
C748 C747 1.383 . S
C748 C749 1.377 . S
C749 H733 0.930 . S
C749 C748 1.377 . S
C749 C750 1.379 . S
C750 H734 0.931 . S
C750 C744 1.383 . S
C750 C749 1.379 . S
H751 C745 0.959 . S
H752 C745 0.961 . S
H753 C745 0.960 . S
H754 C746 0.930 . S
H755 C747 0.929 . S
H756 C764 0.929 1_556 S
H757 C766 0.930 . S
H758 C768 0.930 . S
H759 C771 0.929 . S
H760 C774 0.930 . S
H761 C776 0.960 . S
H762 C776 0.960 . S
H763 C776 0.960 . S
C764 H756 0.929 1_554 S
C764 C765 1.377 . S
C764 C766 1.384 . S
C765 C764 1.377 . S
C765 C771 1.390 . S
C766 H757 0.930 . S
C766 C764 1.384 . S
C766 C767 1.372 . S
C767 C766 1.372 . S
C767 C768 1.400 . S
C767 C772 1.490 . S
C768 H758 0.930 . S
C768 C767 1.400 . S
C768 C771 1.386 . S
H769 C785 0.930 . S
H770 C786 0.931 . S
C771 H759 0.929 . S
C771 C765 1.390 . S
C771 C768 1.386 . S
C772 C767 1.490 . S
C772 C774 1.395 . S
C772 C775 1.403 . S
H773 C779 0.930 . S
C774 H760 0.930 . S
C774 C772 1.395 . S
C774 C777 1.403 . S
C775 C772 1.403 . S
C775 C776 1.524 . S
C775 C779 1.400 . S
C776 H761 0.960 . S
C776 H762 0.960 . S
C776 H763 0.960 . S
C776 C775 1.524 . S
C777 C774 1.403 . S
C777 C778 1.392 . S
C777 C781 1.495 . S
C778 C777 1.392 . S
C778 C779 1.385 . S
C778 C780 1.478 . S
C779 H773 0.930 . S
C779 C775 1.400 . S
C779 C778 1.385 . S
C780 C778 1.478 . S
C780 C782 1.381 . S
C780 C786 1.383 . S
C781 C777 1.495 . S
C781 H787 0.959 . S
C781 H788 0.961 . S
C781 H789 0.960 . S
C782 C780 1.381 . S
C782 C783 1.394 . S
C782 H790 0.930 . S
C783 C782 1.394 . S
C783 C784 1.383 . S
C783 H791 0.929 . S
C784 C783 1.383 . S
C784 C785 1.377 . S
C785 H769 0.930 . S
C785 C784 1.377 . S
C785 C786 1.379 . S
C786 H770 0.931 . S
C786 C780 1.383 . S
C786 C785 1.379 . S
H787 C781 0.959 . S
H788 C781 0.961 . S
H789 C781 0.960 . S
H790 C782 0.930 . S
H791 C783 0.929 . S
H792 C800 0.929 . S
H793 C802 0.930 . S
H794 C804 0.930 . S
H795 C807 0.929 . S
H796 C810 0.930 . S
H797 C812 0.960 . S
H798 C812 0.960 . S
H799 C812 0.960 . S
C800 H792 0.929 . S
C800 C801 1.377 . S
C800 C802 1.384 . S
C801 C800 1.377 . S
C801 C807 1.390 . S
C802 H793 0.930 . S
C802 C800 1.384 . S
C802 C803 1.372 . S
C803 C802 1.372 . S
C803 C804 1.400 . S
C803 C808 1.490 . S
C804 H794 0.930 . S
C804 C803 1.400 . S
C804 C807 1.386 . S
H805 C821 0.930 . S
H806 C822 0.931 . S
C807 H795 0.929 . S
C807 C801 1.390 . S
C807 C804 1.386 . S
C808 C803 1.490 . S
C808 C810 1.395 . S
C808 C811 1.403 1_655 S
H809 C815 0.930 . S
C810 H796 0.930 . S
C810 C808 1.395 . S
C810 C813 1.403 . S
C811 C808 1.403 1_455 S
C811 C812 1.524 . S
C811 C815 1.400 . S
C812 H797 0.960 . S
C812 H798 0.960 . S
C812 H799 0.960 . S
C812 C811 1.524 . S
C813 C810 1.403 . S
C813 C814 1.392 1_655 S
C813 C817 1.495 . S
C814 C813 1.392 1_455 S
C814 C815 1.385 . S
C814 C816 1.478 . S
C815 H809 0.930 . S
C815 C811 1.400 . S
C815 C814 1.385 . S
C816 C814 1.478 . S
C816 C818 1.381 . S
C816 C822 1.383 . S
C817 C813 1.495 . S
C817 H823 0.959 . S
C817 H824 0.961 . S
C817 H825 0.960 . S
C818 C816 1.381 . S
C818 C819 1.394 . S
C818 H826 0.930 . S
C819 C818 1.394 . S
C819 C820 1.383 . S
C819 H827 0.929 . S
C820 C819 1.383 . S
C820 C821 1.377 . S
C821 H805 0.930 . S
C821 C820 1.377 . S
C821 C822 1.379 . S
C822 H806 0.931 . S
C822 C816 1.383 . S
C822 C821 1.379 . S
H823 C817 0.959 . S
H824 C817 0.961 . S
H825 C817 0.960 . S
H826 C818 0.930 . S
H827 C819 0.929 . S
H828 C836 0.929 . S
H829 C838 0.930 . S
H830 C840 0.930 . S
H831 C843 0.929 . S
H832 C846 0.930 . S
H833 C848 0.960 . S
H834 C848 0.960 . S
H835 C848 0.960 . S
C836 H828 0.929 . S
C836 C837 1.377 . S
C836 C838 1.384 . S
C837 C836 1.377 . S
C837 C843 1.390 . S
C838 H829 0.930 . S
C838 C836 1.384 . S
C838 C839 1.372 . S
C839 C838 1.372 . S
C839 C840 1.400 . S
C839 C844 1.490 . S
C840 H830 0.930 . S
C840 C839 1.400 . S
C840 C843 1.386 . S
H841 C857 0.930 . S
H842 C858 0.931 . S
C843 H831 0.929 . S
C843 C837 1.390 . S
C843 C840 1.386 . S
C844 C839 1.490 . S
C844 C846 1.395 . S
C844 C847 1.403 . S
H845 C851 0.930 . S
C846 H832 0.930 . S
C846 C844 1.395 . S
C846 C849 1.403 . S
C847 C844 1.403 . S
C847 C848 1.524 . S
C847 C851 1.400 . S
C848 H833 0.960 . S
C848 H834 0.960 . S
C848 H835 0.960 . S
C848 C847 1.524 . S
C849 C846 1.403 . S
C849 C850 1.392 . S
C849 C853 1.495 . S
C850 C849 1.392 . S
C850 C851 1.385 . S
C850 C852 1.478 . S
C851 H845 0.930 . S
C851 C847 1.400 . S
C851 C850 1.385 . S
C852 C850 1.478 . S
C852 C854 1.381 . S
C852 C858 1.383 . S
C853 C849 1.495 . S
C853 H859 0.959 . S
C853 H860 0.961 . S
C853 H861 0.960 . S
C854 C852 1.381 . S
C854 C855 1.394 . S
C854 H862 0.930 . S
C855 C854 1.394 . S
C855 C856 1.383 . S
C855 H863 0.929 . S
C856 C855 1.383 . S
C856 C857 1.377 . S
C857 H841 0.930 . S
C857 C856 1.377 . S
C857 C858 1.379 . S
C858 H842 0.931 . S
C858 C852 1.383 . S
C858 C857 1.379 . S
H859 C853 0.959 . S
H860 C853 0.961 . S
H861 C853 0.960 . S
H862 C854 0.930 . S
H863 C855 0.929 . S
H864 C872 0.929 . S
H865 C874 0.930 . S
H866 C876 0.930 . S
H867 C879 0.929 . S
H868 C882 0.930 . S
H869 C884 0.960 . S
H870 C884 0.960 . S
H871 C884 0.960 . S
C872 H864 0.929 . S
C872 C873 1.377 . S
C872 C874 1.384 . S
C873 C872 1.377 . S
C873 C879 1.390 . S
C874 H865 0.930 . S
C874 C872 1.384 . S
C874 C875 1.372 . S
C875 C874 1.372 . S
C875 C876 1.400 . S
C875 C880 1.490 . S
C876 H866 0.930 . S
C876 C875 1.400 . S
C876 C879 1.386 . S
H877 C893 0.930 . S
H878 C894 0.931 . S
C879 H867 0.929 . S
C879 C873 1.390 . S
C879 C876 1.386 . S
C880 C875 1.490 . S
C880 C882 1.395 . S
C880 C883 1.403 1_565 S
H881 C887 0.930 . S
C882 H868 0.930 . S
C882 C880 1.395 . S
C882 C885 1.403 . S
C883 C880 1.403 1_545 S
C883 C884 1.524 . S
C883 C887 1.400 . S
C884 H869 0.960 . S
C884 H870 0.960 . S
C884 H871 0.960 . S
C884 C883 1.524 . S
C885 C882 1.403 . S
C885 C886 1.392 1_565 S
C885 C889 1.495 . S
C886 C885 1.392 1_545 S
C886 C887 1.385 . S
C886 C888 1.478 . S
C887 H881 0.930 . S
C887 C883 1.400 . S
C887 C886 1.385 . S
C888 C886 1.478 . S
C888 C890 1.381 . S
C888 C894 1.383 . S
C889 C885 1.495 . S
C889 H895 0.959 . S
C889 H896 0.961 . S
C889 H897 0.960 . S
C890 C888 1.381 . S
C890 C891 1.394 . S
C890 H898 0.930 . S
C891 C890 1.394 . S
C891 C892 1.383 . S
C891 H899 0.929 . S
C892 C891 1.383 . S
C892 C893 1.377 . S
C893 H877 0.930 . S
C893 C892 1.377 . S
C893 C894 1.379 . S
C894 H878 0.931 . S
C894 C888 1.383 . S
C894 C893 1.379 . S
H895 C889 0.959 . S
H896 C889 0.961 . S
H897 C889 0.960 . S
H898 C890 0.930 . S
H899 C891 0.929 . S
H900 C908 0.929 . S
H901 C910 0.930 . S
H902 C912 0.930 . S
H903 C915 0.929 1_556 S
H904 C918 0.930 . S
H905 C920 0.960 . S
H906 C920 0.960 . S
H907 C920 0.960 . S
C908 H900 0.929 . S
C908 C909 1.377 . S
C908 C910 1.384 . S
C909 C908 1.377 . S
C909 C915 1.390 . S
C910 H901 0.930 . S
C910 C908 1.384 . S
C910 C911 1.372 . S
C911 C910 1.372 . S
C911 C912 1.400 1_554 S
C911 C916 1.490 . S
C912 H902 0.930 . S
C912 C911 1.400 1_556 S
C912 C915 1.386 1_556 S
H913 C929 0.930 . S
H914 C930 0.931 . S
C915 H903 0.929 1_554 S
C915 C909 1.390 . S
C915 C912 1.386 1_554 S
C916 C911 1.490 . S
C916 C918 1.395 . S
C916 C919 1.403 1_554 S
H917 C923 0.930 . S
C918 H904 0.930 . S
C918 C916 1.395 . S
C918 C921 1.403 . S
C919 C916 1.403 1_556 S
C919 C920 1.524 . S
C919 C923 1.400 . S
C920 H905 0.960 . S
C920 H906 0.960 . S
C920 H907 0.960 . S
C920 C919 1.524 . S
C921 C918 1.403 . S
C921 C922 1.389 1_554 S
C921 C925 1.495 . S
C922 C921 1.389 1_556 S
C922 C923 1.388 . S
C922 C924 1.478 . S
C923 H917 0.930 . S
C923 C919 1.400 . S
C923 C922 1.388 . S
C924 C922 1.478 . S
C924 C926 1.381 1_556 S
C924 C930 1.383 . S
C925 C921 1.495 . S
C925 H931 0.959 . S
C925 H932 0.961 . S
C925 H933 0.960 . S
C926 C924 1.381 1_554 S
C926 C927 1.394 1_554 S
C926 H934 0.930 . S
C927 C926 1.394 1_556 S
C927 C928 1.383 . S
C927 H935 0.929 1_556 S
C928 C927 1.383 . S
C928 C929 1.377 . S
C929 H913 0.930 . S
C929 C928 1.377 . S
C929 C930 1.379 . S
C930 H914 0.931 . S
C930 C924 1.383 . S
C930 C929 1.379 . S
H931 C925 0.959 . S
H932 C925 0.961 . S
H933 C925 0.960 . S
H934 C926 0.930 . S
H935 C927 0.929 1_554 S
H936 C944 0.929 . S
H937 C946 0.930 . S
H938 C948 0.930 . S
H939 C951 0.929 1_554 S
H940 C954 0.930 . S
H941 C956 0.960 . S
H942 C956 0.960 . S
H943 C956 0.960 . S
C944 H936 0.929 . S
C944 C945 1.377 . S
C944 C946 1.384 . S
C945 C944 1.377 . S
C945 C951 1.390 . S
C946 H937 0.930 . S
C946 C944 1.384 . S
C946 C947 1.372 . S
C947 C946 1.372 . S
C947 C948 1.400 1_556 S
C947 C952 1.490 . S
C948 H938 0.930 . S
C948 C947 1.400 1_554 S
C948 C951 1.386 1_554 S
H949 C965 0.930 . S
H950 C966 0.931 . S
C951 H939 0.929 1_556 S
C951 C945 1.390 . S
C951 C948 1.386 1_556 S
C952 C947 1.490 . S
C952 C954 1.395 1_556 S
C952 C955 1.403 . S
H953 C959 0.930 . S
C954 H940 0.930 . S
C954 C952 1.395 1_554 S
C954 C957 1.403 1_545 S
C955 C952 1.403 . S
C955 C956 1.524 . S
C955 C959 1.400 1_545 S
C956 H941 0.960 . S
C956 H942 0.960 . S
C956 H943 0.960 . S
C956 C955 1.524 . S
C957 C954 1.403 1_565 S
C957 C958 1.392 . S
C957 C961 1.495 . S
C958 C957 1.392 . S
C958 C959 1.385 1_554 S
C958 C960 1.478 . S
C959 H953 0.930 . S
C959 C955 1.400 1_565 S
C959 C958 1.385 1_556 S
C960 C958 1.478 . S
C960 C962 1.381 1_554 S
C960 C966 1.383 . S
C961 C957 1.495 . S
C961 H967 0.959 . S
C961 H968 0.961 . S
C961 H969 0.960 . S
C962 C960 1.381 1_556 S
C962 C963 1.394 1_556 S
C962 H970 0.930 . S
C963 C962 1.394 1_554 S
C963 C964 1.383 . S
C963 H971 0.929 1_554 S
C964 C963 1.383 . S
C964 C965 1.377 . S
C965 H949 0.930 . S
C965 C964 1.377 . S
C965 C966 1.379 . S
C966 H950 0.931 . S
C966 C960 1.383 . S
C966 C965 1.379 . S
H967 C961 0.959 . S
H968 C961 0.961 . S
H969 C961 0.960 . S
H970 C962 0.930 . S
H971 C963 0.929 1_556 S
H972 C980 0.929 . S
H973 C982 0.930 . S
H974 C984 0.942 . S
H975 C987 0.929 1_554 S
H976 C990 0.930 . S
H977 C992 0.960 . S
H978 C992 0.960 . S
H979 C992 0.960 . S
C980 H972 0.929 . S
C980 C981 1.377 . S
C980 C982 1.384 . S
C981 C980 1.377 . S
C981 C987 1.390 . S
C982 H973 0.930 . S
C982 C980 1.384 . S
C982 C983 1.372 . S
C983 C982 1.372 . S
C983 C984 1.392 1_556 S
C983 C988 1.490 . S
C984 H974 0.942 . S
C984 C983 1.392 1_554 S
C984 C987 1.382 1_554 S
H985 C1001 0.930 . S
H986 C1002 0.931 . S
C987 H975 0.929 1_556 S
C987 C981 1.390 . S
C987 C984 1.382 1_556 S
C988 C983 1.490 . S
C988 C990 1.395 . S
C988 C991 1.403 1_556 S
H989 C995 0.930 . S
C990 H976 0.930 . S
C990 C988 1.395 . S
C990 C993 1.403 1_655 S
C991 C988 1.403 1_554 S
C991 C992 1.524 . S
C991 C995 1.400 1_655 S
C992 H977 0.960 . S
C992 H978 0.960 . S
C992 H979 0.960 . S
C992 C991 1.524 . S
C993 C990 1.403 1_455 S
C993 C994 1.389 1_556 S
C993 C997 1.495 . S
C994 C993 1.389 1_554 S
C994 C995 1.388 . S
C994 C996 1.478 . S
C995 H989 0.930 . S
C995 C991 1.400 1_455 S
C995 C994 1.388 . S
C996 C994 1.478 . S
C996 C998 1.381 1_554 S
C996 C1002 1.383 . S
C997 C993 1.495 . S
C997 H1003 0.959 . S
C997 H1004 0.961 . S
C997 H1005 0.960 . S
C998 C996 1.381 1_556 S
C998 C999 1.394 1_556 S
C998 H1006 0.930 . S
C999 C998 1.394 1_554 S
C999 C1000 1.383 . S
C999 H1007 0.929 1_554 S
C1000 C999 1.383 . S
C1000 C1001 1.377 . S
C1001 H985 0.930 . S
C1001 C1000 1.377 . S
C1001 C1002 1.379 . S
C1002 H986 0.931 . S
C1002 C996 1.383 . S
C1002 C1001 1.379 . S
H1003 C997 0.959 . S
H1004 C997 0.961 . S
H1005 C997 0.960 . S
H1006 C998 0.930 . S
H1007 C999 0.929 1_556 S
H1008 C1016 0.929 1_554 S
H1009 C1018 0.930 . S
H1010 C1020 0.930 . S
H1011 C1023 0.929 . S
H1012 C1026 0.930 . S
H1013 C1028 0.960 . S
H1014 C1028 0.960 . S
H1015 C1028 0.960 1_556 S
C1016 H1008 0.929 1_556 S
C1016 C1017 1.377 . S
C1016 C1018 1.384 1_556 S
C1017 C1016 1.377 . S
C1017 C1023 1.390 . S
C1018 H1009 0.930 . S
C1018 C1016 1.384 1_554 S
C1018 C1019 1.372 1_554 S
C1019 C1018 1.372 1_556 S
C1019 C1020 1.400 . S
C1019 C1024 1.490 . S
C1020 H1010 0.930 . S
C1020 C1019 1.400 . S
C1020 C1023 1.386 . S
H1021 C1037 0.930 1_556 S
H1022 C1038 0.931 . S
C1023 H1011 0.929 . S
C1023 C1017 1.390 . S
C1023 C1020 1.386 . S
C1024 C1019 1.490 . S
C1024 C1026 1.395 . S
C1024 C1027 1.403 1_556 S
H1025 C1031 0.930 . S
C1026 H1012 0.930 . S
C1026 C1024 1.395 . S
C1026 C1029 1.403 . S
C1027 C1024 1.403 1_554 S
C1027 C1028 1.524 . S
C1027 C1031 1.400 . S
C1028 H1013 0.960 . S
C1028 H1014 0.960 . S
C1028 H1015 0.960 1_554 S
C1028 C1027 1.524 . S
C1029 C1026 1.403 . S
C1029 C1030 1.392 1_556 S
C1029 C1033 1.495 . S
C1030 C1029 1.392 1_554 S
C1030 C1031 1.385 . S
C1030 C1032 1.478 . S
C1031 H1025 0.930 . S
C1031 C1027 1.400 . S
C1031 C1030 1.385 . S
C1032 C1030 1.478 . S
C1032 C1034 1.381 . S
C1032 C1038 1.383 1_554 S
C1033 C1029 1.495 . S
C1033 H1039 0.959 . S
C1033 H1040 0.961 . S
C1033 H1041 0.960 1_556 S
C1034 C1032 1.381 . S
C1034 C1035 1.394 . S
C1034 H1042 0.930 . S
C1035 C1034 1.394 . S
C1035 C1036 1.383 . S
C1035 H1043 0.929 . S
C1036 C1035 1.383 . S
C1036 C1037 1.377 . S
C1037 H1021 0.930 1_554 S
C1037 C1036 1.377 . S
C1037 C1038 1.379 1_554 S
C1038 H1022 0.931 . S
C1038 C1032 1.383 1_556 S
C1038 C1037 1.379 1_556 S
H1039 C1033 0.959 . S
H1040 C1033 0.961 . S
H1041 C1033 0.960 1_554 S
H1042 C1034 0.930 . S
H1043 C1035 0.929 . S
H1044 C1052 0.929 . S
H1045 C1054 0.930 1_556 S
H1046 C1056 0.930 . S
H1047 C1059 0.929 . S
H1048 C1062 0.930 . S
H1049 C1064 0.960 . S
H1050 C1064 0.960 . S
H1051 C1064 0.960 . S
C1052 H1044 0.929 . S
C1052 C1053 1.377 . S
C1052 C1054 1.384 . S
C1053 C1052 1.377 . S
C1053 C1059 1.390 . S
C1054 H1045 0.930 1_554 S
C1054 C1052 1.384 . S
C1054 C1055 1.372 . S
C1055 C1054 1.372 . S
C1055 C1056 1.400 . S
C1055 C1060 1.490 . S
C1056 H1046 0.930 . S
C1056 C1055 1.400 . S
C1056 C1059 1.386 . S
H1057 C1073 0.922 1_554 S
H1058 C1074 0.941 . S
C1059 H1047 0.929 . S
C1059 C1053 1.390 . S
C1059 C1056 1.386 . S
C1060 C1055 1.490 . S
C1060 C1062 1.395 . S
C1060 C1063 1.403 1_554 S
H1061 C1067 0.930 . S
C1062 H1048 0.930 . S
C1062 C1060 1.395 . S
C1062 C1065 1.403 1_565 S
C1063 C1060 1.403 1_556 S
C1063 C1064 1.524 . S
C1063 C1067 1.400 1_565 S
C1064 H1049 0.960 . S
C1064 H1050 0.960 . S
C1064 H1051 0.960 . S
C1064 C1063 1.524 . S
C1065 C1062 1.403 1_545 S
C1065 C1066 1.392 1_554 S
C1065 C1069 1.495 . S
C1066 C1065 1.392 1_556 S
C1066 C1067 1.385 . S
C1066 C1068 1.478 . S
C1067 H1061 0.930 . S
C1067 C1063 1.400 1_545 S
C1067 C1066 1.385 . S
C1068 C1066 1.478 . S
C1068 C1070 1.381 . S
C1068 C1074 1.377 1_556 S
C1069 C1065 1.495 . S
C1069 H1075 0.959 . S
C1069 H1076 0.961 . S
C1069 H1077 0.960 . S
C1070 C1068 1.381 . S
C1070 C1071 1.394 . S
C1070 H1078 0.930 . S
C1071 C1070 1.394 . S
C1071 C1072 1.383 . S
C1071 H1079 0.929 . S
C1072 C1071 1.383 . S
C1072 C1073 1.377 . S
C1073 H1057 0.922 1_556 S
C1073 C1072 1.377 . S
C1073 C1074 1.376 1_556 S
C1074 H1058 0.941 . S
C1074 C1068 1.377 1_554 S
C1074 C1073 1.376 1_554 S
H1075 C1069 0.959 . S
H1076 C1069 0.961 . S
H1077 C1069 0.960 . S
H1078 C1070 0.930 . S
H1079 C1071 0.929 . S
H1080 C1088 0.929 1_554 S
H1081 C1090 0.942 . S
H1082 C1092 0.930 . S
H1083 C1095 0.929 . S
H1084 C1098 0.930 . S
H1085 C1100 0.960 1_455 S
H1086 C1100 0.960 . S
H1087 C1100 0.960 . S
C1088 H1080 0.929 1_556 S
C1088 C1089 1.377 . S
C1088 C1090 1.380 1_556 S
C1089 C1088 1.377 . S
C1089 C1095 1.390 . S
C1090 H1081 0.942 . S
C1090 C1088 1.380 1_554 S
C1090 C1091 1.365 1_554 S
C1091 C1090 1.365 1_556 S
C1091 C1092 1.400 . S
C1091 C1096 1.490 . S
C1092 H1082 0.930 . S
C1092 C1091 1.400 . S
C1092 C1095 1.386 . S
H1093 C1109 0.930 . S
H1094 C1110 0.931 1_556 S
C1095 H1083 0.929 . S
C1095 C1089 1.390 . S
C1095 C1092 1.386 . S
C1096 C1091 1.490 . S
C1096 C1098 1.395 1_556 S
C1096 C1099 1.403 . S
H1097 C1103 0.930 . S
C1098 H1084 0.930 . S
C1098 C1096 1.395 1_554 S
C1098 C1101 1.403 1_655 S
C1099 C1096 1.403 . S
C1099 C1100 1.524 . S
C1099 C1103 1.400 1_655 S
C1100 H1085 0.960 1_655 S
C1100 H1086 0.960 . S
C1100 H1087 0.960 . S
C1100 C1099 1.524 . S
C1101 C1098 1.403 1_455 S
C1101 C1102 1.392 . S
C1101 C1105 1.495 . S
C1102 C1101 1.392 . S
C1102 C1103 1.385 1_554 S
C1102 C1104 1.478 . S
C1103 H1097 0.930 . S
C1103 C1099 1.400 1_455 S
C1103 C1102 1.385 1_556 S
C1104 C1102 1.478 . S
C1104 C1106 1.381 . S
C1104 C1110 1.383 . S
C1105 C1101 1.495 . S
C1105 H1111 0.959 1_455 S
C1105 H1112 0.961 . S
C1105 H1113 0.960 . S
C1106 C1104 1.381 . S
C1106 C1107 1.394 . S
C1106 H1114 0.930 . S
C1107 C1106 1.394 . S
C1107 C1108 1.383 . S
C1107 H1115 0.929 . S
C1108 C1107 1.383 . S
C1108 C1109 1.377 . S
C1109 H1093 0.930 . S
C1109 C1108 1.377 . S
C1109 C1110 1.379 . S
C1110 H1094 0.931 1_554 S
C1110 C1104 1.383 . S
C1110 C1109 1.379 . S
H1111 C1105 0.959 1_655 S
H1112 C1105 0.961 . S
H1113 C1105 0.960 . S
H1114 C1106 0.930 . S
H1115 C1107 0.929 . S
H1116 C1124 0.929 . S
H1117 C1126 0.930 . S
H1118 C1128 0.930 . S
H1119 C1131 0.929 . S
H1120 C1134 0.930 . S
H1121 C1136 0.960 . S
H1122 C1136 0.960 . S
H1123 C1136 0.960 . S
C1124 H1116 0.929 . S
C1124 C1125 1.377 . S
C1124 C1126 1.384 . S
C1125 C1124 1.377 . S
C1125 C1131 1.390 . S
C1126 H1117 0.930 . S
C1126 C1124 1.384 . S
C1126 C1127 1.372 . S
C1127 C1126 1.372 . S
C1127 C1128 1.400 . S
C1127 C1132 1.490 . S
C1128 H1118 0.930 . S
C1128 C1127 1.400 . S
C1128 C1131 1.386 . S
H1129 C1145 0.930 . S
H1130 C1146 0.931 . S
C1131 H1119 0.929 . S
C1131 C1125 1.390 . S
C1131 C1128 1.386 . S
C1132 C1127 1.490 . S
C1132 C1134 1.395 . S
C1132 C1135 1.403 . S
H1133 C1139 0.930 . S
C1134 H1120 0.930 . S
C1134 C1132 1.395 . S
C1134 C1137 1.403 . S
C1135 C1132 1.403 . S
C1135 C1136 1.524 . S
C1135 C1139 1.400 . S
C1136 H1121 0.960 . S
C1136 H1122 0.960 . S
C1136 H1123 0.960 . S
C1136 C1135 1.524 . S
C1137 C1134 1.403 . S
C1137 C1138 1.392 . S
C1137 C1141 1.495 . S
C1138 C1137 1.392 . S
C1138 C1139 1.385 . S
C1138 C1140 1.478 . S
C1139 H1133 0.930 . S
C1139 C1135 1.400 . S
C1139 C1138 1.385 . S
C1140 C1138 1.478 . S
C1140 C1142 1.381 . S
C1140 C1146 1.383 . S
C1141 C1137 1.495 . S
C1141 H1147 0.959 . S
C1141 H1148 0.961 . S
C1141 H1149 0.960 . S
C1142 C1140 1.381 . S
C1142 C1143 1.394 . S
C1142 H1150 0.930 . S
C1143 C1142 1.394 . S
C1143 C1144 1.383 . S
C1143 H1151 0.929 . S
C1144 C1143 1.383 . S
C1144 C1145 1.377 . S
C1145 H1129 0.930 . S
C1145 C1144 1.377 . S
C1145 C1146 1.379 . S
C1146 H1130 0.931 . S
C1146 C1140 1.383 . S
C1146 C1145 1.379 . S
H1147 C1141 0.959 . S
H1148 C1141 0.961 . S
H1149 C1141 0.960 . S
H1150 C1142 0.930 . S
H1151 C1143 0.929 . S
H1152 C1160 0.929 . S
H1153 C1162 0.930 . S
H1154 C1164 0.930 . S
H1155 C1167 0.929 . S
H1156 C1170 0.930 . S
H1157 C1172 0.960 . S
H1158 C1172 0.960 . S
H1159 C1172 0.960 . S
C1160 H1152 0.929 . S
C1160 C1161 1.377 . S
C1160 C1162 1.384 . S
C1161 C1160 1.377 . S
C1161 C1167 1.390 . S
C1162 H1153 0.930 . S
C1162 C1160 1.384 . S
C1162 C1163 1.372 . S
C1163 C1162 1.372 . S
C1163 C1164 1.400 . S
C1163 C1168 1.490 . S
C1164 H1154 0.930 . S
C1164 C1163 1.400 . S
C1164 C1167 1.386 . S
H1165 C1181 0.930 . S
H1166 C1182 0.931 . S
C1167 H1155 0.929 . S
C1167 C1161 1.390 . S
C1167 C1164 1.386 . S
C1168 C1163 1.490 . S
C1168 C1170 1.395 . S
C1168 C1171 1.403 . S
H1169 C1175 0.930 . S
C1170 H1156 0.930 . S
C1170 C1168 1.395 . S
C1170 C1173 1.403 . S
C1171 C1168 1.403 . S
C1171 C1172 1.524 . S
C1171 C1175 1.400 . S
C1172 H1157 0.960 . S
C1172 H1158 0.960 . S
C1172 H1159 0.960 . S
C1172 C1171 1.524 . S
C1173 C1170 1.403 . S
C1173 C1174 1.392 . S
C1173 C1177 1.495 . S
C1174 C1173 1.392 . S
C1174 C1175 1.385 . S
C1174 C1176 1.478 . S
C1175 H1169 0.930 . S
C1175 C1171 1.400 . S
C1175 C1174 1.385 . S
C1176 C1174 1.478 . S
C1176 C1178 1.381 . S
C1176 C1182 1.383 . S
C1177 C1173 1.495 . S
C1177 H1183 0.959 . S
C1177 H1184 0.961 . S
C1177 H1185 0.960 . S
C1178 C1176 1.381 . S
C1178 C1179 1.394 . S
C1178 H1186 0.930 . S
C1179 C1178 1.394 . S
C1179 C1180 1.383 . S
C1179 H1187 0.929 . S
C1180 C1179 1.383 . S
C1180 C1181 1.377 . S
C1181 H1165 0.930 . S
C1181 C1180 1.377 . S
C1181 C1182 1.379 . S
C1182 H1166 0.931 . S
C1182 C1176 1.383 . S
C1182 C1181 1.379 . S
H1183 C1177 0.959 . S
H1184 C1177 0.961 . S
H1185 C1177 0.960 . S
H1186 C1178 0.930 . S
H1187 C1179 0.929 . S
H1188 C1196 0.929 . S
H1189 C1198 0.930 . S
H1190 C1200 0.930 . S
H1191 C1203 0.929 . S
H1192 C1206 0.930 . S
H1193 C1208 0.960 . S
H1194 C1208 0.960 . S
H1195 C1208 0.960 . S
C1196 H1188 0.929 . S
C1196 C1197 1.377 . S
C1196 C1198 1.384 . S
C1197 C1196 1.377 . S
C1197 C1203 1.390 . S
C1198 H1189 0.930 . S
C1198 C1196 1.384 . S
C1198 C1199 1.372 . S
C1199 C1198 1.372 . S
C1199 C1200 1.400 . S
C1199 C1204 1.490 . S
C1200 H1190 0.930 . S
C1200 C1199 1.400 . S
C1200 C1203 1.386 . S
H1201 C1217 0.930 . S
H1202 C1218 0.931 . S
C1203 H1191 0.929 . S
C1203 C1197 1.390 . S
C1203 C1200 1.386 . S
C1204 C1199 1.490 . S
C1204 C1206 1.395 . S
C1204 C1207 1.403 . S
H1205 C1211 0.930 . S
C1206 H1192 0.930 . S
C1206 C1204 1.395 . S
C1206 C1209 1.403 . S
C1207 C1204 1.403 . S
C1207 C1208 1.524 . S
C1207 C1211 1.400 . S
C1208 H1193 0.960 . S
C1208 H1194 0.960 . S
C1208 H1195 0.960 . S
C1208 C1207 1.524 . S
C1209 C1206 1.403 . S
C1209 C1210 1.392 . S
C1209 C1213 1.495 . S
C1210 C1209 1.392 . S
C1210 C1211 1.385 . S
C1210 C1212 1.478 . S
C1211 H1205 0.930 . S
C1211 C1207 1.400 . S
C1211 C1210 1.385 . S
C1212 C1210 1.478 . S
C1212 C1214 1.381 . S
C1212 C1218 1.383 . S
C1213 C1209 1.495 . S
C1213 H1219 0.959 . S
C1213 H1220 0.961 . S
C1213 H1221 0.960 . S
C1214 C1212 1.381 . S
C1214 C1215 1.394 . S
C1214 H1222 0.930 . S
C1215 C1214 1.394 . S
C1215 C1216 1.383 . S
C1215 H1223 0.929 . S
C1216 C1215 1.383 . S
C1216 C1217 1.377 . S
C1217 H1201 0.930 . S
C1217 C1216 1.377 . S
C1217 C1218 1.379 . S
C1218 H1202 0.931 . S
C1218 C1212 1.383 . S
C1218 C1217 1.379 . S
H1219 C1213 0.959 . S
H1220 C1213 0.961 . S
H1221 C1213 0.960 . S
H1222 C1214 0.930 . S
H1223 C1215 0.929 . S
H1224 C1232 0.929 . S
H1225 C1234 0.930 . S
H1226 C1236 0.930 . S
H1227 C1239 0.929 . S
H1228 C1242 0.930 . S
H1229 C1244 0.960 . S
H1230 C1244 0.960 . S
H1231 C1244 0.960 . S
C1232 H1224 0.929 . S
C1232 C1233 1.377 . S
C1232 C1234 1.384 . S
C1233 C1232 1.377 . S
C1233 C1239 1.390 . S
C1234 H1225 0.930 . S
C1234 C1232 1.384 . S
C1234 C1235 1.372 . S
C1235 C1234 1.372 . S
C1235 C1236 1.400 . S
C1235 C1240 1.490 . S
C1236 H1226 0.930 . S
C1236 C1235 1.400 . S
C1236 C1239 1.386 . S
H1237 C1253 0.930 . S
H1238 C1254 0.931 . S
C1239 H1227 0.929 . S
C1239 C1233 1.390 . S
C1239 C1236 1.386 . S
C1240 C1235 1.490 . S
C1240 C1242 1.395 . S
C1240 C1243 1.403 . S
H1241 C1247 0.930 . S
C1242 H1228 0.930 . S
C1242 C1240 1.395 . S
C1242 C1245 1.403 . S
C1243 C1240 1.403 . S
C1243 C1244 1.524 . S
C1243 C1247 1.400 . S
C1244 H1229 0.960 . S
C1244 H1230 0.960 . S
C1244 H1231 0.960 . S
C1244 C1243 1.524 . S
C1245 C1242 1.403 . S
C1245 C1246 1.392 . S
C1245 C1249 1.495 . S
C1246 C1245 1.392 . S
C1246 C1247 1.385 . S
C1246 C1248 1.478 . S
C1247 H1241 0.930 . S
C1247 C1243 1.400 . S
C1247 C1246 1.385 . S
C1248 C1246 1.478 . S
C1248 C1250 1.381 . S
C1248 C1254 1.383 . S
C1249 C1245 1.495 . S
C1249 H1255 0.959 . S
C1249 H1256 0.961 . S
C1249 H1257 0.960 . S
C1250 C1248 1.381 . S
C1250 C1251 1.394 . S
C1250 H1258 0.930 . S
C1251 C1250 1.394 . S
C1251 C1252 1.383 . S
C1251 H1259 0.929 . S
C1252 C1251 1.383 . S
C1252 C1253 1.377 . S
C1253 H1237 0.930 . S
C1253 C1252 1.377 . S
C1253 C1254 1.379 . S
C1254 H1238 0.931 . S
C1254 C1248 1.383 . S
C1254 C1253 1.379 . S
H1255 C1249 0.959 . S
H1256 C1249 0.961 . S
H1257 C1249 0.960 . S
H1258 C1250 0.930 . S
H1259 C1251 0.929 . S
H1260 C1268 0.929 . S
H1261 C1270 0.930 . S
H1262 C1272 0.930 . S
H1263 C1275 0.929 . S
H1264 C1278 0.930 . S
H1265 C1280 0.960 . S
H1266 C1280 0.960 . S
H1267 C1280 0.960 . S
C1268 H1260 0.929 . S
C1268 C1269 1.377 . S
C1268 C1270 1.384 . S
C1269 C1268 1.377 . S
C1269 C1275 1.390 . S
C1270 H1261 0.930 . S
C1270 C1268 1.384 . S
C1270 C1271 1.372 . S
C1271 C1270 1.372 . S
C1271 C1272 1.400 . S
C1271 C1276 1.490 . S
C1272 H1262 0.930 . S
C1272 C1271 1.400 . S
C1272 C1275 1.386 . S
H1273 C1289 0.930 . S
H1274 C1290 0.931 . S
C1275 H1263 0.929 . S
C1275 C1269 1.390 . S
C1275 C1272 1.386 . S
C1276 C1271 1.490 . S
C1276 C1278 1.395 . S
C1276 C1279 1.403 . S
H1277 C1283 0.930 . S
C1278 H1264 0.930 . S
C1278 C1276 1.395 . S
C1278 C1281 1.403 . S
C1279 C1276 1.403 . S
C1279 C1280 1.524 . S
C1279 C1283 1.400 . S
C1280 H1265 0.960 . S
C1280 H1266 0.960 . S
C1280 H1267 0.960 . S
C1280 C1279 1.524 . S
C1281 C1278 1.403 . S
C1281 C1282 1.392 . S
C1281 C1285 1.495 . S
C1282 C1281 1.392 . S
C1282 C1283 1.385 . S
C1282 C1284 1.478 . S
C1283 H1277 0.930 . S
C1283 C1279 1.400 . S
C1283 C1282 1.385 . S
C1284 C1282 1.478 . S
C1284 C1286 1.381 . S
C1284 C1290 1.383 . S
C1285 C1281 1.495 . S
C1285 H1291 0.959 . S
C1285 H1292 0.961 . S
C1285 H1293 0.960 . S
C1286 C1284 1.381 . S
C1286 C1287 1.394 . S
C1286 H1294 0.930 . S
C1287 C1286 1.394 . S
C1287 C1288 1.383 . S
C1287 H1295 0.929 . S
C1288 C1287 1.383 . S
C1288 C1289 1.377 . S
C1289 H1273 0.930 . S
C1289 C1288 1.377 . S
C1289 C1290 1.379 . S
C1290 H1274 0.931 . S
C1290 C1284 1.383 . S
C1290 C1289 1.379 . S
H1291 C1285 0.959 . S
H1292 C1285 0.961 . S
H1293 C1285 0.960 . S
H1294 C1286 0.930 . S
H1295 C1287 0.929 . S
H1296 C1304 0.929 . S
H1297 C1306 0.930 . S
H1298 C1308 0.930 . S
H1299 C1311 0.929 . S
H1300 C1314 0.930 . S
H1301 C1316 0.960 . S
H1302 C1316 0.960 . S
H1303 C1316 0.960 . S
C1304 H1296 0.929 . S
C1304 C1305 1.377 . S
C1304 C1306 1.384 . S
C1305 C1304 1.377 . S
C1305 C1311 1.390 . S
C1306 H1297 0.930 . S
C1306 C1304 1.384 . S
C1306 C1307 1.372 . S
C1307 C1306 1.372 . S
C1307 C1308 1.400 . S
C1307 C1312 1.490 . S
C1308 H1298 0.930 . S
C1308 C1307 1.400 . S
C1308 C1311 1.386 . S
H1309 C1325 0.930 . S
H1310 C1326 0.931 . S
C1311 H1299 0.929 . S
C1311 C1305 1.390 . S
C1311 C1308 1.386 . S
C1312 C1307 1.490 . S
C1312 C1314 1.395 . S
C1312 C1315 1.403 . S
H1313 C1319 0.930 . S
C1314 H1300 0.930 . S
C1314 C1312 1.395 . S
C1314 C1317 1.403 . S
C1315 C1312 1.403 . S
C1315 C1316 1.524 . S
C1315 C1319 1.400 . S
C1316 H1301 0.960 . S
C1316 H1302 0.960 . S
C1316 H1303 0.960 . S
C1316 C1315 1.524 . S
C1317 C1314 1.403 . S
C1317 C1318 1.392 . S
C1317 C1321 1.495 . S
C1318 C1317 1.392 . S
C1318 C1319 1.385 . S
C1318 C1320 1.478 . S
C1319 H1313 0.930 . S
C1319 C1315 1.400 . S
C1319 C1318 1.385 . S
C1320 C1318 1.478 . S
C1320 C1322 1.381 . S
C1320 C1326 1.383 . S
C1321 C1317 1.495 . S
C1321 H1327 0.959 . S
C1321 H1328 0.961 . S
C1321 H1329 0.960 . S
C1322 C1320 1.381 . S
C1322 C1323 1.394 . S
C1322 H1330 0.930 . S
C1323 C1322 1.394 . S
C1323 C1324 1.383 . S
C1323 H1331 0.929 . S
C1324 C1323 1.383 . S
C1324 C1325 1.377 . S
C1325 H1309 0.930 . S
C1325 C1324 1.377 . S
C1325 C1326 1.379 . S
C1326 H1310 0.931 . S
C1326 C1320 1.383 . S
C1326 C1325 1.379 . S
H1327 C1321 0.959 . S
H1328 C1321 0.961 . S
H1329 C1321 0.960 . S
H1330 C1322 0.930 . S
H1331 C1323 0.929 . S
H1332 C1340 0.929 . S
H1333 C1342 0.930 . S
H1334 C1344 0.930 . S
H1335 C1347 0.929 . S
H1336 C1350 0.930 . S
H1337 C1352 0.960 . S
H1338 C1352 0.960 . S
H1339 C1352 0.960 . S
C1340 H1332 0.929 . S
C1340 C1341 1.377 . S
C1340 C1342 1.384 . S
C1341 C1340 1.377 . S
C1341 C1347 1.390 . S
C1342 H1333 0.930 . S
C1342 C1340 1.384 . S
C1342 C1343 1.372 . S
C1343 C1342 1.372 . S
C1343 C1344 1.400 . S
C1343 C1348 1.490 . S
C1344 H1334 0.930 . S
C1344 C1343 1.400 . S
C1344 C1347 1.386 . S
H1345 C1361 0.930 . S
H1346 C1362 0.931 . S
C1347 H1335 0.929 . S
C1347 C1341 1.390 . S
C1347 C1344 1.386 . S
C1348 C1343 1.490 . S
C1348 C1350 1.395 . S
C1348 C1351 1.403 . S
H1349 C1355 0.930 . S
C1350 H1336 0.930 . S
C1350 C1348 1.395 . S
C1350 C1353 1.403 . S
C1351 C1348 1.403 . S
C1351 C1352 1.524 . S
C1351 C1355 1.400 . S
C1352 H1337 0.960 . S
C1352 H1338 0.960 . S
C1352 H1339 0.960 . S
C1352 C1351 1.524 . S
C1353 C1350 1.403 . S
C1353 C1354 1.392 . S
C1353 C1357 1.495 . S
C1354 C1353 1.392 . S
C1354 C1355 1.385 . S
C1354 C1356 1.478 . S
C1355 H1349 0.930 . S
C1355 C1351 1.400 . S
C1355 C1354 1.385 . S
C1356 C1354 1.478 . S
C1356 C1358 1.381 . S
C1356 C1362 1.383 . S
C1357 C1353 1.495 . S
C1357 H1363 0.959 . S
C1357 H1364 0.961 . S
C1357 H1365 0.960 . S
C1358 C1356 1.381 . S
C1358 C1359 1.394 . S
C1358 H1366 0.930 . S
C1359 C1358 1.394 . S
C1359 C1360 1.383 . S
C1359 H1367 0.929 . S
C1360 C1359 1.383 . S
C1360 C1361 1.377 . S
C1361 H1345 0.930 . S
C1361 C1360 1.377 . S
C1361 C1362 1.379 . S
C1362 H1346 0.931 . S
C1362 C1356 1.383 . S
C1362 C1361 1.379 . S
H1363 C1357 0.959 . S
H1364 C1357 0.961 . S
H1365 C1357 0.960 . S
H1366 C1358 0.930 . S
H1367 C1359 0.929 . S
H1368 C1376 0.929 . S
H1369 C1378 0.930 . S
H1370 C1380 0.930 . S
H1371 C1383 0.929 . S
H1372 C1386 0.930 . S
H1373 C1388 0.960 . S
H1374 C1388 0.960 . S
H1375 C1388 0.960 . S
C1376 H1368 0.929 . S
C1376 C1377 1.377 . S
C1376 C1378 1.384 . S
C1377 C1376 1.377 . S
C1377 C1383 1.390 . S
C1378 H1369 0.930 . S
C1378 C1376 1.384 . S
C1378 C1379 1.372 . S
C1379 C1378 1.372 . S
C1379 C1380 1.400 . S
C1379 C1384 1.490 . S
C1380 H1370 0.930 . S
C1380 C1379 1.400 . S
C1380 C1383 1.386 . S
H1381 C1397 0.930 . S
H1382 C1398 0.931 . S
C1383 H1371 0.929 . S
C1383 C1377 1.390 . S
C1383 C1380 1.386 . S
C1384 C1379 1.490 . S
C1384 C1386 1.395 . S
C1384 C1387 1.403 . S
H1385 C1391 0.930 . S
C1386 H1372 0.930 . S
C1386 C1384 1.395 . S
C1386 C1389 1.403 . S
C1387 C1384 1.403 . S
C1387 C1388 1.524 . S
C1387 C1391 1.400 . S
C1388 H1373 0.960 . S
C1388 H1374 0.960 . S
C1388 H1375 0.960 . S
C1388 C1387 1.524 . S
C1389 C1386 1.403 . S
C1389 C1390 1.392 . S
C1389 C1393 1.495 . S
C1390 C1389 1.392 . S
C1390 C1391 1.385 . S
C1390 C1392 1.478 . S
C1391 H1385 0.930 . S
C1391 C1387 1.400 . S
C1391 C1390 1.385 . S
C1392 C1390 1.478 . S
C1392 C1394 1.381 . S
C1392 C1398 1.383 . S
C1393 C1389 1.495 . S
C1393 H1399 0.959 . S
C1393 H1400 0.961 . S
C1393 H1401 0.960 . S
C1394 C1392 1.381 . S
C1394 C1395 1.394 . S
C1394 H1402 0.930 . S
C1395 C1394 1.394 . S
C1395 C1396 1.383 . S
C1395 H1403 0.929 . S
C1396 C1395 1.383 . S
C1396 C1397 1.377 . S
C1397 H1381 0.930 . S
C1397 C1396 1.377 . S
C1397 C1398 1.379 . S
C1398 H1382 0.931 . S
C1398 C1392 1.383 . S
C1398 C1397 1.379 . S
H1399 C1393 0.959 . S
H1400 C1393 0.961 . S
H1401 C1393 0.960 . S
H1402 C1394 0.930 . S
H1403 C1395 0.929 . S
H1404 C1412 0.929 . S
H1405 C1414 0.930 . S
H1406 C1416 0.930 . S
H1407 C1419 0.929 . S
H1408 C1422 0.930 . S
H1409 C1424 0.960 . S
H1410 C1424 0.960 . S
H1411 C1424 0.960 . S
C1412 H1404 0.929 . S
C1412 C1413 1.377 . S
C1412 C1414 1.384 . S
C1413 C1412 1.377 . S
C1413 C1419 1.390 . S
C1414 H1405 0.930 . S
C1414 C1412 1.384 . S
C1414 C1415 1.372 . S
C1415 C1414 1.372 . S
C1415 C1416 1.400 . S
C1415 C1420 1.490 . S
C1416 H1406 0.930 . S
C1416 C1415 1.400 . S
C1416 C1419 1.386 . S
H1417 C1433 0.930 . S
H1418 C1434 0.931 . S
C1419 H1407 0.929 . S
C1419 C1413 1.390 . S
C1419 C1416 1.386 . S
C1420 C1415 1.490 . S
C1420 C1422 1.395 . S
C1420 C1423 1.403 . S
H1421 C1427 0.930 . S
C1422 H1408 0.930 . S
C1422 C1420 1.395 . S
C1422 C1425 1.403 . S
C1423 C1420 1.403 . S
C1423 C1424 1.524 . S
C1423 C1427 1.400 . S
C1424 H1409 0.960 . S
C1424 H1410 0.960 . S
C1424 H1411 0.960 . S
C1424 C1423 1.524 . S
C1425 C1422 1.403 . S
C1425 C1426 1.392 . S
C1425 C1429 1.495 . S
C1426 C1425 1.392 . S
C1426 C1427 1.385 . S
C1426 C1428 1.478 . S
C1427 H1421 0.930 . S
C1427 C1423 1.400 . S
C1427 C1426 1.385 . S
C1428 C1426 1.478 . S
C1428 C1430 1.381 . S
C1428 C1434 1.383 . S
C1429 C1425 1.495 . S
C1429 H1435 0.959 . S
C1429 H1436 0.961 . S
C1429 H1437 0.960 . S
C1430 C1428 1.381 . S
C1430 C1431 1.394 . S
C1430 H1438 0.930 . S
C1431 C1430 1.394 . S
C1431 C1432 1.383 . S
C1431 H1439 0.929 . S
C1432 C1431 1.383 . S
C1432 C1433 1.377 . S
C1433 H1417 0.930 . S
C1433 C1432 1.377 . S
C1433 C1434 1.379 . S
C1434 H1418 0.931 . S
C1434 C1428 1.383 . S
C1434 C1433 1.379 . S
H1435 C1429 0.959 . S
H1436 C1429 0.961 . S
H1437 C1429 0.960 . S
H1438 C1430 0.930 . S
H1439 C1431 0.929 . S
H1440 C1448 0.929 . S
H1441 C1450 0.930 . S
H1442 C1452 0.930 . S
H1443 C1455 0.929 . S
H1444 C1458 0.930 . S
H1445 C1460 0.960 . S
H1446 C1460 0.960 . S
H1447 C1460 0.960 . S
C1448 H1440 0.929 . S
C1448 C1449 1.377 . S
C1448 C1450 1.384 . S
C1449 C1448 1.377 . S
C1449 C1455 1.390 . S
C1450 H1441 0.930 . S
C1450 C1448 1.384 . S
C1450 C1451 1.372 . S
C1451 C1450 1.372 . S
C1451 C1452 1.400 . S
C1451 C1456 1.490 . S
C1452 H1442 0.930 . S
C1452 C1451 1.400 . S
C1452 C1455 1.386 . S
H1453 C1469 0.930 . S
H1454 C1470 0.931 . S
C1455 H1443 0.929 . S
C1455 C1449 1.390 . S
C1455 C1452 1.386 . S
C1456 C1451 1.490 . S
C1456 C1458 1.395 . S
C1456 C1459 1.403 . S
H1457 C1463 0.930 . S
C1458 H1444 0.930 . S
C1458 C1456 1.395 . S
C1458 C1461 1.403 . S
C1459 C1456 1.403 . S
C1459 C1460 1.524 . S
C1459 C1463 1.400 . S
C1460 H1445 0.960 . S
C1460 H1446 0.960 . S
C1460 H1447 0.960 . S
C1460 C1459 1.524 . S
C1461 C1458 1.403 . S
C1461 C1462 1.392 . S
C1461 C1465 1.495 . S
C1462 C1461 1.392 . S
C1462 C1463 1.385 . S
C1462 C1464 1.478 . S
C1463 H1457 0.930 . S
C1463 C1459 1.400 . S
C1463 C1462 1.385 . S
C1464 C1462 1.478 . S
C1464 C1466 1.381 . S
C1464 C1470 1.383 . S
C1465 C1461 1.495 . S
C1465 H1471 0.959 . S
C1465 H1472 0.961 . S
C1465 H1473 0.960 . S
C1466 C1464 1.381 . S
C1466 C1467 1.394 . S
C1466 H1474 0.930 . S
C1467 C1466 1.394 . S
C1467 C1468 1.383 . S
C1467 H1475 0.929 . S
C1468 C1467 1.383 . S
C1468 C1469 1.377 . S
C1469 H1453 0.930 . S
C1469 C1468 1.377 . S
C1469 C1470 1.379 . S
C1470 H1454 0.931 . S
C1470 C1464 1.383 . S
C1470 C1469 1.379 . S
H1471 C1465 0.959 . S
H1472 C1465 0.961 . S
H1473 C1465 0.960 . S
H1474 C1466 0.930 . S
H1475 C1467 0.929 . S
H1476 C1484 0.929 . S
H1477 C1486 0.930 . S
H1478 C1488 0.930 . S
H1479 C1491 0.929 . S
H1480 C1494 0.930 . S
H1481 C1496 0.960 . S
H1482 C1496 0.960 . S
H1483 C1496 0.960 . S
C1484 H1476 0.929 . S
C1484 C1485 1.377 . S
C1484 C1486 1.384 . S
C1485 C1484 1.377 . S
C1485 C1491 1.390 . S
C1486 H1477 0.930 . S
C1486 C1484 1.384 . S
C1486 C1487 1.372 . S
C1487 C1486 1.372 . S
C1487 C1488 1.400 . S
C1487 C1492 1.490 . S
C1488 H1478 0.930 . S
C1488 C1487 1.400 . S
C1488 C1491 1.386 . S
H1489 C1505 0.930 . S
H1490 C1506 0.931 . S
C1491 H1479 0.929 . S
C1491 C1485 1.390 . S
C1491 C1488 1.386 . S
C1492 C1487 1.490 . S
C1492 C1494 1.395 . S
C1492 C1495 1.403 . S
H1493 C1499 0.930 . S
C1494 H1480 0.930 . S
C1494 C1492 1.395 . S
C1494 C1497 1.403 . S
C1495 C1492 1.403 . S
C1495 C1496 1.524 . S
C1495 C1499 1.400 . S
C1496 H1481 0.960 . S
C1496 H1482 0.960 . S
C1496 H1483 0.960 . S
C1496 C1495 1.524 . S
C1497 C1494 1.403 . S
C1497 C1498 1.392 . S
C1497 C1501 1.495 . S
C1498 C1497 1.392 . S
C1498 C1499 1.385 . S
C1498 C1500 1.478 . S
C1499 H1493 0.930 . S
C1499 C1495 1.400 . S
C1499 C1498 1.385 . S
C1500 C1498 1.478 . S
C1500 C1502 1.381 . S
C1500 C1506 1.383 . S
C1501 C1497 1.495 . S
C1501 H1507 0.959 . S
C1501 H1508 0.961 . S
C1501 H1509 0.960 . S
C1502 C1500 1.381 . S
C1502 C1503 1.394 . S
C1502 H1510 0.930 . S
C1503 C1502 1.394 . S
C1503 C1504 1.383 . S
C1503 H1511 0.929 . S
C1504 C1503 1.383 . S
C1504 C1505 1.377 . S
C1505 H1489 0.930 . S
C1505 C1504 1.377 . S
C1505 C1506 1.379 . S
C1506 H1490 0.931 . S
C1506 C1500 1.383 . S
C1506 C1505 1.379 . S
H1507 C1501 0.959 . S
H1508 C1501 0.961 . S
H1509 C1501 0.960 . S
H1510 C1502 0.930 . S
H1511 C1503 0.929 . S
H1512 C1520 0.929 . S
H1513 C1522 0.930 . S
H1514 C1524 0.930 . S
H1515 C1527 0.929 . S
H1516 C1530 0.930 . S
H1517 C1532 0.960 . S
H1518 C1532 0.960 . S
H1519 C1532 0.960 . S
C1520 H1512 0.929 . S
C1520 C1521 1.377 . S
C1520 C1522 1.384 . S
C1521 C1520 1.377 . S
C1521 C1527 1.390 . S
C1522 H1513 0.930 . S
C1522 C1520 1.384 . S
C1522 C1523 1.372 . S
C1523 C1522 1.372 . S
C1523 C1524 1.400 . S
C1523 C1528 1.490 . S
C1524 H1514 0.930 . S
C1524 C1523 1.400 . S
C1524 C1527 1.386 . S
H1525 C1541 0.930 . S
H1526 C1542 0.931 . S
C1527 H1515 0.929 . S
C1527 C1521 1.390 . S
C1527 C1524 1.386 . S
C1528 C1523 1.490 . S
C1528 C1530 1.395 . S
C1528 C1531 1.403 . S
H1529 C1535 0.930 . S
C1530 H1516 0.930 . S
C1530 C1528 1.395 . S
C1530 C1533 1.403 . S
C1531 C1528 1.403 . S
C1531 C1532 1.524 . S
C1531 C1535 1.400 . S
C1532 H1517 0.960 . S
C1532 H1518 0.960 . S
C1532 H1519 0.960 . S
C1532 C1531 1.524 . S
C1533 C1530 1.403 . S
C1533 C1534 1.392 . S
C1533 C1537 1.495 . S
C1534 C1533 1.392 . S
C1534 C1535 1.385 . S
C1534 C1536 1.478 . S
C1535 H1529 0.930 . S
C1535 C1531 1.400 . S
C1535 C1534 1.385 . S
C1536 C1534 1.478 . S
C1536 C1538 1.381 . S
C1536 C1542 1.383 . S
C1537 C1533 1.495 . S
C1537 H1543 0.959 . S
C1537 H1544 0.961 . S
C1537 H1545 0.960 . S
C1538 C1536 1.381 . S
C1538 C1539 1.394 . S
C1538 H1546 0.930 . S
C1539 C1538 1.394 . S
C1539 C1540 1.383 . S
C1539 H1547 0.929 . S
C1540 C1539 1.383 . S
C1540 C1541 1.377 . S
C1541 H1525 0.930 . S
C1541 C1540 1.377 . S
C1541 C1542 1.379 . S
C1542 H1526 0.931 . S
C1542 C1536 1.383 . S
C1542 C1541 1.379 . S
H1543 C1537 0.959 . S
H1544 C1537 0.961 . S
H1545 C1537 0.960 . S
H1546 C1538 0.930 . S
H1547 C1539 0.929 . S
C261 C249 1.699 . S
C280 C11 1.708 . S
C297 C221 1.699 . S
C316 C25 1.709 . S
C333 C235 1.692 . S
C352 C39 1.677 . S
C369 C109 1.699 . S
C388 C53 1.706 . S
C405 C123 1.699 . S
C424 C67 1.708 . S
C441 C81 1.695 . S
C460 C95 1.680 . S
C477 C137 1.692 . S
C496 C193 1.682 . S
C513 C151 1.697 . S
C532 C207 1.687 . S
C549 C165 1.697 . S
C568 C179 1.704 . S
C585 C4 1.054 1_556 S
C604 C242 1.063 . S
C621 C214 1.059 . S
C640 C18 1.046 1_556 S
C657 C32 1.062 1_556 S
C676 C228 1.023 . S
C693 C102 1.062 . S
C712 C46 1.024 1_554 S
C729 C60 1.050 1_554 S
C748 C116 1.085 . S
C765 C74 1.051 1_554 S
C784 C88 1.078 . S
C801 C130 1.058 . S
C820 C186 1.050 . S
C837 C200 1.058 . S
C856 C144 1.042 . S
C873 C172 1.060 . S
C892 C158 1.040 . S
C909 C5 1.324 . S
C928 C47 1.342 . S
C945 C61 1.309 . S
C964 C19 1.270 . S
C981 C75 1.324 . S
C1000 C33 1.344 . S
C1017 C82 1.435 . S
C1036 C26 1.431 . S
C1053 C40 1.435 . S
C1072 C54 1.429 . S
C1089 C68 1.436 . S
C1108 C12 1.438 . S
C1125 C89 1.325 . S
C1144 C131 1.361 . S
C1161 C145 1.306 . S
C1180 C103 1.274 . S
C1197 C159 1.320 . S
C1216 C117 1.344 . S
C1233 C166 1.437 . S
C1252 C110 1.430 . S
C1269 C124 1.437 . S
C1288 C138 1.431 . S
C1305 C152 1.437 . S
C1324 C96 1.432 . S
C1341 C215 1.307 . S
C1360 C173 1.279 . S
C1377 C229 1.326 . S
C1396 C187 1.363 . S
C1413 C201 1.321 . S
C1432 C243 1.348 . S
C1449 C250 1.435 . S
C1468 C194 1.433 . S
C1485 C208 1.435 . S
C1504 C222 1.429 . S
C1521 C236 1.437 . S
C1540 C180 1.435 . S
