# Generated by pormake.
# Topology uol, (4)-cn, num edge types: 1
# Building blocks:
#     Node 0, Type 0, BuildingBlock: CEKHIL_clean_sbu_0, # of connection points: 4
#     Node 1, Type 0, BuildingBlock: CEKHIL_clean_sbu_0, # of connection points: 4
#     Node 2, Type 0, BuildingBlock: CEKHIL_clean_sbu_0, # of connection points: 4
#     Node 3, Type 0, BuildingBlock: CEKHIL_clean_sbu_0, # of connection points: 4
#     Node 4, Type 0, BuildingBlock: CEKHIL_clean_sbu_0, # of connection points: 4
#     Node 5, Type 0, BuildingBlock: CEKHIL_clean_sbu_0, # of connection points: 4
#     Node 6, Type 0, BuildingBlock: CEKHIL_clean_sbu_0, # of connection points: 4
#     Node 7, Type 0, BuildingBlock: CEKHIL_clean_sbu_0, # of connection points: 4
#     Node 8, Type 0, BuildingBlock: CEKHIL_clean_sbu_0, # of connection points: 4
#     Node 9, Type 0, BuildingBlock: CEKHIL_clean_sbu_0, # of connection points: 4
#     Node 10, Type 0, BuildingBlock: CEKHIL_clean_sbu_0, # of connection points: 4
#     Node 11, Type 0, BuildingBlock: CEKHIL_clean_sbu_0, # of connection points: 4
#     Edge 12, Type (0, 0), BuildingBlock: AJUNOK_clean_linker_0, # of connection points: 2
#     Edge 13, Type (0, 0), BuildingBlock: AJUNOK_clean_linker_0, # of connection points: 2
#     Edge 14, Type (0, 0), BuildingBlock: AJUNOK_clean_linker_0, # of connection points: 2
#     Edge 15, Type (0, 0), BuildingBlock: AJUNOK_clean_linker_0, # of connection points: 2
#     Edge 16, Type (0, 0), BuildingBlock: AJUNOK_clean_linker_0, # of connection points: 2
#     Edge 17, Type (0, 0), BuildingBlock: AJUNOK_clean_linker_0, # of connection points: 2
#     Edge 18, Type (0, 0), BuildingBlock: AJUNOK_clean_linker_0, # of connection points: 2
#     Edge 19, Type (0, 0), BuildingBlock: AJUNOK_clean_linker_0, # of connection points: 2
#     Edge 20, Type (0, 0), BuildingBlock: AJUNOK_clean_linker_0, # of connection points: 2
#     Edge 21, Type (0, 0), BuildingBlock: AJUNOK_clean_linker_0, # of connection points: 2
#     Edge 22, Type (0, 0), BuildingBlock: AJUNOK_clean_linker_0, # of connection points: 2
#     Edge 23, Type (0, 0), BuildingBlock: AJUNOK_clean_linker_0, # of connection points: 2
#     Edge 24, Type (0, 0), BuildingBlock: AJUNOK_clean_linker_0, # of connection points: 2
#     Edge 25, Type (0, 0), BuildingBlock: AJUNOK_clean_linker_0, # of connection points: 2
#     Edge 26, Type (0, 0), BuildingBlock: AJUNOK_clean_linker_0, # of connection points: 2
#     Edge 27, Type (0, 0), BuildingBlock: AJUNOK_clean_linker_0, # of connection points: 2
#     Edge 28, Type (0, 0), BuildingBlock: AJUNOK_clean_linker_0, # of connection points: 2
#     Edge 29, Type (0, 0), BuildingBlock: AJUNOK_clean_linker_0, # of connection points: 2
#     Edge 30, Type (0, 0), BuildingBlock: AJUNOK_clean_linker_0, # of connection points: 2
#     Edge 31, Type (0, 0), BuildingBlock: AJUNOK_clean_linker_0, # of connection points: 2
#     Edge 32, Type (0, 0), BuildingBlock: AJUNOK_clean_linker_0, # of connection points: 2
#     Edge 33, Type (0, 0), BuildingBlock: AJUNOK_clean_linker_0, # of connection points: 2
#     Edge 34, Type (0, 0), BuildingBlock: AJUNOK_clean_linker_0, # of connection points: 2
#     Edge 35, Type (0, 0), BuildingBlock: AJUNOK_clean_linker_0, # of connection points: 2
# Relax obj value: 0.132
# Max RMSD: 0.172
# Mean RMSD: 0.172
data_MOF--net-uol--node1-CEKHIL_clean_sbu_0--edge1-AJUNOK_clean_linker_0
_symmetry_space_group_name_H-M    P1
_symmetry_Int_Tables_number       1
_symmetry_cell_setting            triclinic
loop_
_symmetry_equiv_pos_as_xyz
'x, y, z'
_cell_length_a     24.037327
_cell_length_b     24.054992
_cell_length_c     47.007587
_cell_angle_alpha  90.01888
_cell_angle_beta   90.003506
_cell_angle_gamma 119.98896
loop_
_atom_site_label
_atom_site_type_symbol
_atom_site_fract_x
_atom_site_fract_y
_atom_site_fract_z
_atom_type_partial_charge
Co0 Co 0.14349 0.35743 0.09552 0.0
O1 O 0.10879 0.40355 0.07575 0.0
O2 O 0.16891 0.43786 0.1146 0.0
C3 C 0.17849 0.33085 0.05569 0.0
O4 O 0.18966 0.32527 0.12133 0.0
Co5 Co 0.09245 0.21283 0.08533 0.0
O6 O 0.17021 0.22837 0.10662 0.0
C7 C 0.0231 0.25321 0.12508 0.0
C8 C 0.13727 0.44805 0.09479 0.0
C9 C 0.19954 0.27745 0.12259 0.0
O10 O 0.0649 0.31265 0.1207 0.0
O11 O 0.02409 0.2071 0.11185 0.0
O12 O 0.21292 0.3868 0.06744 0.0
O13 O 0.12286 0.29499 0.06711 0.0
Co14 Co 0.78575 0.14358 0.2616 0.0
O15 O 0.70478 0.1078 0.24184 0.0
O16 O 0.73002 0.1685 0.28046 0.0
C17 C 0.84708 0.17826 0.2217 0.0
O18 O 0.86427 0.19081 0.28732 0.0
Co19 Co 0.88031 0.09356 0.2517 0.0
O20 O 0.9423 0.17225 0.27249 0.0
C21 C 0.77032 0.02365 0.29127 0.0
C22 C 0.68826 0.13616 0.26072 0.0
C23 C 0.92234 0.2015 0.2884 0.0
O24 O 0.75261 0.06545 0.28702 0.0
O25 O 0.81746 0.02481 0.27797 0.0
O26 O 0.82515 0.21253 0.23328 0.0
O27 O 0.82786 0.12298 0.23334 0.0
Co28 Co 0.64771 0.78662 0.42785 0.0
O29 O 0.60257 0.70558 0.40807 0.0
O30 O 0.56819 0.7301 0.44723 0.0
C31 C 0.67158 0.84751 0.38783 0.0
O32 O 0.67836 0.86433 0.45388 0.0
Co33 Co 0.79095 0.88549 0.41673 0.0
O34 O 0.77432 0.94471 0.43983 0.0
C35 C 0.75599 0.77561 0.45609 0.0
C36 C 0.55822 0.6887 0.42727 0.0
C37 C 0.72528 0.92232 0.45598 0.0
O38 O 0.69557 0.75521 0.45257 0.0
O39 O 0.79975 0.82339 0.44228 0.0
O40 O 0.61585 0.82506 0.39995 0.0
O41 O 0.70902 0.82974 0.3992 0.0
Co42 Co 0.86611 0.64924 0.59321 0.0
O43 O 0.90283 0.60443 0.5739 0.0
O44 O 0.83956 0.56772 0.61163 0.0
C45 C 0.8343 0.67645 0.55246 0.0
O46 O 0.81765 0.68002 0.61834 0.0
Co47 Co 0.91447 0.79381 0.58275 0.0
O48 O 0.836 0.77671 0.60385 0.0
C49 C 0.98337 0.75466 0.62376 0.0
C50 C 0.87206 0.55828 0.59198 0.0
C51 C 0.80697 0.72732 0.61966 0.0
O52 O 0.94302 0.69456 0.61958 0.0
O53 O 0.9821 0.79949 0.60957 0.0
O54 O 0.79876 0.62032 0.56385 0.0
O55 O 0.88827 0.71222 0.5651 0.0
Co56 Co 0.21949 0.85999 0.76138 0.0
O57 O 0.30046 0.897 0.74158 0.0
O58 O 0.27496 0.83295 0.779 0.0
C59 C 0.15854 0.82943 0.72114 0.0
O60 O 0.14091 0.81123 0.78686 0.0
Co61 Co 0.12458 0.91078 0.75297 0.0
O62 O 0.06293 0.8309 0.77303 0.0
C63 C 0.23445 0.9776 0.79303 0.0
C64 C 0.31656 0.86628 0.75938 0.0
C65 C 0.08298 0.8008 0.78832 0.0
O66 O 0.2525 0.9362 0.7881 0.0
O67 O 0.18764 0.97736 0.77986 0.0
O68 O 0.17977 0.79359 0.73168 0.0
O69 O 0.17784 0.88319 0.73415 0.0
Co70 Co 0.35981 0.21537 0.92953 0.0
O71 O 0.40321 0.29496 0.90883 0.0
O72 O 0.44125 0.27303 0.94751 0.0
C73 C 0.33293 0.15221 0.89022 0.0
O74 O 0.33008 0.13842 0.95603 0.0
Co75 Co 0.21522 0.11913 0.92042 0.0
O76 O 0.23417 0.05887 0.94131 0.0
C77 C 0.25494 0.23003 0.95943 0.0
C78 C 0.44951 0.31294 0.92708 0.0
C79 C 0.28342 0.08007 0.95729 0.0
O80 O 0.3146 0.24881 0.95471 0.0
O81 O 0.20898 0.18189 0.94663 0.0
O82 O 0.38945 0.17524 0.90159 0.0
O83 O 0.29658 0.17132 0.90171 0.0
Co84 Co 0.64897 0.86076 0.74834 0.0
O85 O 0.60313 0.89559 0.76847 0.0
O86 O 0.56753 0.83445 0.73001 0.0
C87 C 0.67803 0.82803 0.78835 0.0
O88 O 0.67999 0.81433 0.7221 0.0
Co89 Co 0.79404 0.90978 0.75746 0.0
O90 O 0.77802 0.8335 0.73489 0.0
C91 C 0.75289 0.98114 0.71895 0.0
C92 C 0.55776 0.86632 0.74982 0.0
C93 C 0.72794 0.80493 0.71945 0.0
O94 O 0.69311 0.93914 0.72282 0.0
O95 O 0.79844 0.97916 0.7322 0.0
O96 O 0.62156 0.79238 0.77717 0.0
O97 O 0.71287 0.88244 0.77595 0.0
Co98 Co 0.78775 0.64325 0.91479 0.0
O99 O 0.70659 0.59918 0.9345 0.0
O100 O 0.7311 0.56305 0.8959 0.0
C101 C 0.84847 0.66819 0.95494 0.0
O102 O 0.86575 0.67293 0.88904 0.0
Co103 Co 0.88663 0.78674 0.92539 0.0
O104 O 0.94605 0.76904 0.90301 0.0
C105 C 0.77767 0.75073 0.88522 0.0
C106 C 0.68968 0.55395 0.91575 0.0
C107 C 0.92388 0.71969 0.88706 0.0
O108 O 0.75673 0.6904 0.88928 0.0
O109 O 0.8251 0.79478 0.89913 0.0
O110 O 0.82583 0.6121 0.9432 0.0
O111 O 0.8308 0.70532 0.94318 0.0
Co112 Co 0.14141 0.78469 0.08373 0.0
O113 O 0.10458 0.70406 0.10375 0.0
O114 O 0.16874 0.7294 0.06635 0.0
C115 C 0.17184 0.84594 0.1238 0.0
O116 O 0.19018 0.86263 0.05799 0.0
Co117 Co 0.09102 0.8798 0.09137 0.0
O118 O 0.16995 0.94089 0.0705 0.0
C119 C 0.0235 0.76864 0.05197 0.0
C120 C 0.13546 0.68798 0.08602 0.0
C121 C 0.2 0.92015 0.0556 0.0
O122 O 0.06513 0.75096 0.05702 0.0
O123 O 0.02387 0.8158 0.06487 0.0
O124 O 0.20784 0.82484 0.1133 0.0
O125 O 0.11802 0.82666 0.11079 0.0
Co126 Co 0.35504 0.13933 0.25018 0.0
O127 O 0.39868 0.10228 0.27022 0.0
O128 O 0.43546 0.16228 0.23152 0.0
C129 C 0.33045 0.17604 0.2901 0.0
O130 O 0.32568 0.18742 0.22411 0.0
Co131 Co 0.21156 0.09553 0.26065 0.0
O132 O 0.22965 0.17225 0.23793 0.0
C133 C 0.24716 0.02177 0.22082 0.0
C134 C 0.44443 0.13059 0.2517 0.0
C135 C 0.27899 0.19891 0.22196 0.0
O136 O 0.30757 0.06088 0.22497 0.0
O137 O 0.20312 0.02566 0.23449 0.0
O138 O 0.38657 0.20903 0.27832 0.0
O139 O 0.29299 0.12111 0.2785 0.0
Co140 Co 0.21747 0.36003 0.41584 0.0
O141 O 0.29737 0.40332 0.43646 0.0
O142 O 0.2753 0.44119 0.3978 0.0
C143 C 0.15443 0.33329 0.45523 0.0
O144 O 0.14066 0.33068 0.38923 0.0
Co145 Co 0.12015 0.21573 0.42484 0.0
O146 O 0.06079 0.23376 0.40262 0.0
C147 C 0.23164 0.25489 0.38616 0.0
C148 C 0.31553 0.44938 0.41809 0.0
C149 C 0.08276 0.28348 0.38694 0.0
O150 O 0.25062 0.3146 0.39069 0.0
O151 O 0.18337 0.20925 0.39901 0.0
O152 O 0.17752 0.38979 0.44387 0.0
O153 O 0.1732 0.29681 0.44363 0.0
Co154 Co 0.85926 0.21705 0.58223 0.0
O155 O 0.89388 0.29795 0.60193 0.0
O156 O 0.83266 0.27158 0.56344 0.0
C157 C 0.8265 0.1567 0.62242 0.0
O158 O 0.81319 0.13836 0.55658 0.0
Co159 Co 0.91159 0.12441 0.59229 0.0
O160 O 0.83376 0.06161 0.57125 0.0
C161 C 0.97938 0.23383 0.55222 0.0
C162 C 0.86471 0.31365 0.58312 0.0
C163 C 0.8039 0.08087 0.55533 0.0
O164 O 0.93732 0.25117 0.55665 0.0
O165 O 0.97907 0.1872 0.56556 0.0
O166 O 0.79059 0.1766 0.61076 0.0
O167 O 0.88158 0.17649 0.61047 0.0
C168 C 0.13926 0.59498 0.06437 0.0
C169 C 0.13439 0.62619 0.08873 0.0
C170 C 0.13879 0.53655 0.06654 0.0
C171 C 0.13551 0.50844 0.09318 0.0
H172 H 0.14276 0.61547 0.04347 0.0
H173 H 0.1424 0.51391 0.04724 0.0
S174 S 0.12197 0.57078 0.16336 0.0
N175 N 0.12493 0.62401 0.14031 0.0
N176 N 0.1266 0.5155 0.14433 0.0
C177 C 0.13095 0.53923 0.11768 0.0
C178 C 0.12966 0.59778 0.11546 0.0
C179 C 0.59985 0.1348 0.23235 0.0
C180 C 0.6255 0.13323 0.25905 0.0
C181 C 0.54127 0.13409 0.2301 0.0
C182 C 0.50533 0.12971 0.25444 0.0
H183 H 0.62596 0.13803 0.21305 0.0
H184 H 0.52379 0.13652 0.20916 0.0
S185 S 0.55041 0.12162 0.32925 0.0
N186 N 0.61042 0.12637 0.31025 0.0
N187 N 0.49918 0.12259 0.30611 0.0
C188 C 0.52984 0.12664 0.28125 0.0
C189 C 0.59028 0.1291 0.28354 0.0
C190 C 0.46984 0.60178 0.39877 0.0
C191 C 0.4977 0.62656 0.42548 0.0
C192 C 0.41064 0.54458 0.3965 0.0
C193 C 0.37825 0.50921 0.42083 0.0
H194 H 0.49318 0.62762 0.37949 0.0
H195 H 0.39037 0.52769 0.37555 0.0
S196 S 0.43255 0.55224 0.49563 0.0
N197 N 0.48915 0.61114 0.47666 0.0
N198 N 0.37919 0.50247 0.47247 0.0
C199 C 0.40646 0.53276 0.44763 0.0
C200 C 0.46584 0.5918 0.44994 0.0
C201 C 0.8656 0.46013 0.61362 0.0
C202 C 0.87143 0.49664 0.5893 0.0
C203 C 0.86445 0.40135 0.6114 0.0
C204 C 0.86692 0.37605 0.58473 0.0
H205 H 0.86268 0.47745 0.63453 0.0
H206 H 0.86044 0.37494 0.63069 0.0
S207 S 0.88178 0.45238 0.51459 0.0
N208 N 0.88043 0.50347 0.53768 0.0
N209 N 0.87571 0.39186 0.53359 0.0
C210 C 0.87212 0.41167 0.56026 0.0
C211 C 0.8751 0.47231 0.56253 0.0
C212 C 0.47072 0.86744 0.77852 0.0
C213 C 0.497 0.86763 0.75173 0.0
C214 C 0.41187 0.86627 0.78091 0.0
C215 C 0.37841 0.86737 0.75659 0.0
H216 H 0.49513 0.86682 0.79779 0.0
H217 H 0.39286 0.86532 0.80192 0.0
S218 S 0.42778 0.86993 0.68158 0.0
N219 N 0.48527 0.86905 0.70047 0.0
N220 N 0.37614 0.86946 0.7049 0.0
C221 C 0.40482 0.86879 0.72971 0.0
C222 C 0.46374 0.86819 0.72729 0.0
C223 C 0.54395 0.4101 0.94785 0.0
C224 C 0.50986 0.37484 0.92381 0.0
C225 C 0.60133 0.46894 0.94498 0.0
C226 C 0.62755 0.49348 0.918 0.0
H227 H 0.52583 0.39248 0.96901 0.0
H228 H 0.6261 0.49467 0.96407 0.0
S229 S 0.55716 0.41906 0.84842 0.0
N230 N 0.50602 0.36888 0.87213 0.0
N231 N 0.61501 0.47815 0.86685 0.0
C232 C 0.59414 0.45845 0.89382 0.0
C233 C 0.53494 0.39947 0.8967 0.0
C234 C 0.24516 0.27074 0.19872 0.0
C235 C 0.27559 0.23388 0.19672 0.0
C236 C 0.22651 0.29064 0.17424 0.0
C237 C 0.23601 0.27276 0.14693 0.0
H238 H 0.23248 0.2812 0.21936 0.0
H239 H 0.19965 0.31548 0.17685 0.0
S240 S 0.31949 0.18243 0.13003 0.0
N241 N 0.32018 0.18592 0.16512 0.0
N242 N 0.28317 0.22156 0.11922 0.0
C243 C 0.27028 0.23979 0.1446 0.0
C244 C 0.29063 0.22083 0.16948 0.0
C245 C 0.93726 0.2299 0.33991 0.0
C246 C 0.96396 0.23894 0.31249 0.0
C247 C 0.97649 0.24928 0.36421 0.0
C248 C 0.04378 0.27999 0.3619 0.0
H249 H 0.88565 0.20278 0.34278 0.0
H250 H 0.95388 0.23681 0.38496 0.0
S251 S 0.13745 0.32323 0.29477 0.0
N252 N 0.0617 0.28623 0.28431 0.0
N253 N 0.13553 0.32456 0.32988 0.0
C254 C 0.07115 0.29471 0.33453 0.0
C255 C 0.03118 0.27363 0.30983 0.0
C256 C 0.77735 0.06671 0.50365 0.0
C257 C 0.76775 0.0395 0.53098 0.0
C258 C 0.75911 0.02808 0.47918 0.0
C259 C 0.729 0.96085 0.48122 0.0
H260 H 0.80391 0.11837 0.50101 0.0
H261 H 0.77174 0.05112 0.45853 0.0
S262 S 0.68529 0.86586 0.54798 0.0
N263 N 0.72109 0.94129 0.55875 0.0
N264 N 0.6848 0.86851 0.51288 0.0
C265 C 0.714 0.9329 0.50848 0.0
C266 C 0.73394 0.97229 0.53335 0.0
C267 C 0.78098 0.71416 0.67137 0.0
C268 C 0.77044 0.73145 0.64412 0.0
C269 C 0.76262 0.73399 0.69597 0.0
C270 C 0.73141 0.77011 0.69416 0.0
H271 H 0.80845 0.68992 0.67382 0.0
H272 H 0.7761 0.72405 0.71654 0.0
S273 S 0.68498 0.8201 0.62777 0.0
N274 N 0.72176 0.78158 0.61671 0.0
N275 N 0.68516 0.8169 0.66286 0.0
C276 C 0.71542 0.7826 0.66702 0.0
C277 C 0.73552 0.7638 0.642 0.0
C278 C 0.03008 0.75398 0.8642 0.0
C279 C 0.96277 0.72312 0.86201 0.0
C280 C 0.06899 0.77286 0.83981 0.0
C281 C 0.0419 0.76313 0.81244 0.0
H282 H 0.05293 0.76694 0.8849 0.0
H283 H 0.12063 0.80026 0.84256 0.0
S284 S 0.86829 0.6783 0.79504 0.0
N285 N 0.87062 0.67767 0.83015 0.0
N286 N 0.94391 0.71517 0.78445 0.0
C287 C 0.9747 0.72827 0.80992 0.0
C288 C 0.93506 0.70769 0.83469 0.0
C289 C 0.27158 0.02724 0.03349 0.0
C290 C 0.23751 0.95991 0.03111 0.0
C291 C 0.29297 0.06645 0.00923 0.0
C292 C 0.27942 0.0396 0.98175 0.0
H293 H 0.27837 0.04972 0.05415 0.0
H294 H 0.31511 0.11792 0.01201 0.0
S295 S 0.19852 0.86641 0.964 0.0
N296 N 0.19754 0.86831 0.99911 0.0
N297 N 0.23585 0.94211 0.95359 0.0
C298 C 0.24971 0.97259 0.97915 0.0
C299 C 0.22928 0.93269 1.00383 0.0
C300 C 0.15524 0.25388 0.01581 0.0
C301 C 0.20017 0.30889 0.03065 0.0
C302 C 0.17323 0.23065 0.99232 0.0
C303 C 0.23733 0.26087 0.98264 0.0
H304 H 0.10538 0.22808 0.0224 0.0
H305 H 0.13637 0.18745 0.98216 0.0
S306 S 0.37373 0.40808 0.01372 0.0
N307 N 0.31153 0.39442 0.03362 0.0
N308 N 0.34584 0.35038 0.98963 0.0
C309 C 0.28282 0.31672 0.99706 0.0
C310 C 0.26417 0.34078 0.02097 0.0
C311 C 0.89996 0.15438 0.18168 0.0
C312 C 0.89042 0.1996 0.19658 0.0
C313 C 0.94087 0.172 0.1581 0.0
C314 C 0.97499 0.236 0.1484 0.0
H315 H 0.87569 0.10458 0.1883 0.0
H316 H 0.94683 0.13496 0.14789 0.0
S317 S 0.96579 0.37314 0.17964 0.0
N318 N 0.91712 0.31118 0.1996 0.0
N319 N 0.99494 0.3448 0.15544 0.0
C320 C 0.96524 0.28181 0.16289 0.0
C321 C 0.92281 0.26354 0.18688 0.0
C322 C 0.76906 0.94041 0.32364 0.0
C323 C 0.73952 0.97527 0.31449 0.0
C324 C 0.74622 0.89938 0.34715 0.0
C325 C 0.69225 0.8904 0.36258 0.0
H326 H 0.81152 0.94589 0.31305 0.0
H327 H 0.77163 0.87465 0.35334 0.0
S328 S 0.59479 0.96731 0.34707 0.0
N329 N 0.65151 0.99622 0.32251 0.0
N330 N 0.60813 0.91804 0.36659 0.0
C331 C 0.6608 0.92328 0.35338 0.0
C332 C 0.68454 0.9659 0.32943 0.0
C333 C 0.75045 0.66941 0.51801 0.0
C334 C 0.81495 0.69927 0.52694 0.0
C335 C 0.73178 0.693 0.49462 0.0
C336 C 0.77703 0.74686 0.47899 0.0
H337 H 0.71386 0.62848 0.52957 0.0
H338 H 0.6813 0.6694 0.48909 0.0
S339 S 0.95321 0.83942 0.49279 0.0
N340 N 0.92454 0.78352 0.51759 0.0
N341 N 0.89041 0.82733 0.47385 0.0
C342 C 0.84215 0.77565 0.48731 0.0
C343 C 0.8608 0.75207 0.5112 0.0
C344 C 0.08762 0.74878 0.6841 0.0
C345 C 0.11488 0.81069 0.69607 0.0
C346 C 0.04578 0.73086 0.66054 0.0
C347 C 0.0303 0.77446 0.64778 0.0
H348 H 0.09813 0.71365 0.69315 0.0
H349 H 0.02543 0.6825 0.6523 0.0
S350 S 0.08875 0.94261 0.67133 0.0
N351 N 0.12306 0.91549 0.69335 0.0
N352 N 0.04539 0.8825 0.64956 0.0
C353 C 0.05775 0.83669 0.65958 0.0
C354 C 0.09969 0.85459 0.68355 0.0
C355 C 0.25606 0.09816 0.85043 0.0
C356 C 0.31123 0.10855 0.86522 0.0
C357 C 0.23341 0.05758 0.82676 0.0
C358 C 0.26436 0.0246 0.81682 0.0
H359 H 0.2298 0.12166 0.85714 0.0
H360 H 0.19015 0.05114 0.8166 0.0
S361 S 0.41182 0.03593 0.84787 0.0
N362 N 0.39744 0.08362 0.86804 0.0
N363 N 0.35432 0.00625 0.82366 0.0
C364 C 0.32013 0.03492 0.83129 0.0
C365 C 0.34368 0.07709 0.85539 0.0
C366 C 0.66882 0.74573 0.8244 0.0
C367 C 0.70217 0.80871 0.81353 0.0
C368 C 0.69253 0.72731 0.84787 0.0
C369 C 0.7501 0.7714 0.86166 0.0
H370 H 0.62453 0.7101 0.81447 0.0
H371 H 0.6657 0.67803 0.85512 0.0
S372 S 0.85518 0.94295 0.84159 0.0
N373 N 0.7954 0.91539 0.81864 0.0
N374 N 0.83957 0.88159 0.86231 0.0
C375 C 0.78326 0.83488 0.8511 0.0
C376 C 0.75945 0.85327 0.8272 0.0
C377 C 0.90034 0.7438 0.99529 0.0
C378 C 0.89148 0.68956 0.98018 0.0
C379 C 0.94116 0.76705 0.01887 0.0
C380 C 0.97596 0.73771 0.02842 0.0
H381 H 0.87559 0.769 0.98884 0.0
H382 H 0.94639 0.80961 0.02924 0.0
S383 S 0.96869 0.5928 0.99656 0.0
N384 N 0.91945 0.60564 0.97674 0.0
N385 N 0.99733 0.6499 0.02095 0.0
C386 C 0.96693 0.68264 0.01371 0.0
C387 C 0.92447 0.65845 0.98969 0.0
C388 C 0.25332 0.91911 0.15994 0.0
C389 C 0.19027 0.88886 0.14908 0.0
C390 C 0.27126 0.96086 0.18349 0.0
C391 C 0.22661 0.97335 0.19737 0.0
H392 H 0.28942 0.91132 0.14991 0.0
H393 H 0.32066 0.98392 0.19066 0.0
S394 S 0.05437 0.90408 0.17762 0.0
N395 N 0.08275 0.87316 0.1544 0.0
N396 N 0.11559 0.95042 0.19835 0.0
C397 C 0.16294 0.94214 0.18692 0.0
C398 C 0.14505 0.90033 0.16289 0.0
C399 C 0.2546 0.15399 0.33023 0.0
C400 C 0.3095 0.19845 0.31519 0.0
C401 C 0.23178 0.17253 0.35365 0.0
C402 C 0.2623 0.23677 0.36307 0.0
H403 H 0.22849 0.10404 0.32381 0.0
H404 H 0.1886 0.13599 0.36394 0.0
S405 S 0.40954 0.3721 0.33149 0.0
N406 N 0.39543 0.30948 0.31181 0.0
N407 N 0.35209 0.34493 0.3557 0.0
C408 C 0.31814 0.28181 0.3485 0.0
C409 C 0.34183 0.26257 0.32466 0.0
C410 C 0.10145 0.25696 0.49529 0.0
C411 C 0.11108 0.31165 0.48035 0.0
C412 C 0.06082 0.23408 0.51895 0.0
C413 C 0.02702 0.26431 0.52871 0.0
H414 H 0.12551 0.23118 0.48867 0.0
H415 H 0.05485 0.19113 0.5292 0.0
S416 S 0.03646 0.41058 0.49734 0.0
N417 N 0.0848 0.39685 0.4773 0.0
N418 N 0.00734 0.35332 0.52163 0.0
C419 C 0.03677 0.31975 0.51415 0.0
C420 C 0.07899 0.34354 0.49007 0.0
C421 C 0.72473 0.03009 0.67767 0.0
C422 C 0.77128 0.03111 0.69632 0.0
C423 C 0.74242 0.07192 0.65416 0.0
C424 C 0.80734 0.11562 0.64818 0.0
H425 H 0.67429 0.99562 0.68074 0.0
H426 H 0.70518 0.06854 0.64008 0.0
S427 S 0.94775 0.14335 0.69166 0.0
N428 N 0.88543 0.0848 0.70814 0.0
N429 N 0.91785 0.16127 0.66387 0.0
C430 C 0.85407 0.11887 0.6671 0.0
C431 C 0.83629 0.0773 0.69118 0.0
loop_
_geom_bond_atom_site_label_1
_geom_bond_atom_site_label_2
_geom_bond_distance
_geom_bond_site_symmetry_2
_ccdc_geom_bond_type
Co0 O1 2.216 . S
Co0 O2 2.091 . S
Co0 O4 2.004 . S
Co0 O10 2.021 . S
Co0 O12 2.137 . S
Co0 O13 2.244 . S
O1 Co0 2.216 . S
O1 C8 1.247 . S
O2 Co0 2.091 . S
O2 C8 1.261 . S
C3 O12 1.247 . S
C3 O13 1.272 . S
O4 Co0 2.004 . S
O4 C9 1.259 . S
Co5 O6 2.061 . S
Co5 O11 2.052 . S
Co5 O13 2.135 . S
O6 Co5 2.061 . S
O6 C9 1.235 . S
C7 O10 1.238 . S
C7 O11 1.241 . S
C8 O1 1.247 . S
C8 O2 1.261 . S
C9 O4 1.259 . S
C9 O6 1.235 . S
O10 Co0 2.021 . S
O10 C7 1.238 . S
O11 Co5 2.052 . S
O11 C7 1.241 . S
O12 Co0 2.137 . S
O12 C3 1.247 . S
O13 Co0 2.244 . S
O13 C3 1.272 . S
O13 Co5 2.135 . S
Co14 O15 2.216 . S
Co14 O16 2.091 . S
Co14 O18 2.004 . S
Co14 O24 2.021 . S
Co14 O26 2.137 . S
Co14 O27 2.244 . S
O15 Co14 2.216 . S
O15 C22 1.247 . S
O16 Co14 2.091 . S
O16 C22 1.261 . S
C17 O26 1.247 . S
C17 O27 1.272 . S
O18 Co14 2.004 . S
O18 C23 1.259 . S
Co19 O20 2.061 . S
Co19 O25 2.052 . S
Co19 O27 2.135 . S
O20 Co19 2.061 . S
O20 C23 1.235 . S
C21 O24 1.238 . S
C21 O25 1.241 . S
C22 O15 1.247 . S
C22 O16 1.261 . S
C23 O18 1.259 . S
C23 O20 1.235 . S
O24 Co14 2.021 . S
O24 C21 1.238 . S
O25 Co19 2.052 . S
O25 C21 1.241 . S
O26 Co14 2.137 . S
O26 C17 1.247 . S
O27 Co14 2.244 . S
O27 C17 1.272 . S
O27 Co19 2.135 . S
Co28 O29 2.216 . S
Co28 O30 2.091 . S
Co28 O32 2.004 . S
Co28 O38 2.021 . S
Co28 O40 2.137 . S
Co28 O41 2.244 . S
O29 Co28 2.216 . S
O29 C36 1.247 . S
O30 Co28 2.091 . S
O30 C36 1.261 . S
C31 O40 1.247 . S
C31 O41 1.272 . S
O32 Co28 2.004 . S
O32 C37 1.259 . S
Co33 O34 2.061 . S
Co33 O39 2.052 . S
Co33 O41 2.135 . S
O34 Co33 2.061 . S
O34 C37 1.235 . S
C35 O38 1.238 . S
C35 O39 1.241 . S
C36 O29 1.247 . S
C36 O30 1.261 . S
C37 O32 1.259 . S
C37 O34 1.235 . S
O38 Co28 2.021 . S
O38 C35 1.238 . S
O39 Co33 2.052 . S
O39 C35 1.241 . S
O40 Co28 2.137 . S
O40 C31 1.247 . S
O41 Co28 2.244 . S
O41 C31 1.272 . S
O41 Co33 2.135 . S
Co42 O43 2.216 . S
Co42 O44 2.091 . S
Co42 O46 2.004 . S
Co42 O52 2.021 . S
Co42 O54 2.137 . S
Co42 O55 2.244 . S
O43 Co42 2.216 . S
O43 C50 1.247 . S
O44 Co42 2.091 . S
O44 C50 1.261 . S
C45 O54 1.247 . S
C45 O55 1.272 . S
O46 Co42 2.004 . S
O46 C51 1.259 . S
Co47 O48 2.061 . S
Co47 O53 2.052 . S
Co47 O55 2.135 . S
O48 Co47 2.061 . S
O48 C51 1.235 . S
C49 O52 1.238 . S
C49 O53 1.241 . S
C50 O43 1.247 . S
C50 O44 1.261 . S
C51 O46 1.259 . S
C51 O48 1.235 . S
O52 Co42 2.021 . S
O52 C49 1.238 . S
O53 Co47 2.052 . S
O53 C49 1.241 . S
O54 Co42 2.137 . S
O54 C45 1.247 . S
O55 Co42 2.244 . S
O55 C45 1.272 . S
O55 Co47 2.135 . S
Co56 O57 2.216 . S
Co56 O58 2.091 . S
Co56 O60 2.004 . S
Co56 O66 2.021 . S
Co56 O68 2.137 . S
Co56 O69 2.244 . S
O57 Co56 2.216 . S
O57 C64 1.247 . S
O58 Co56 2.091 . S
O58 C64 1.261 . S
C59 O68 1.247 . S
C59 O69 1.272 . S
O60 Co56 2.004 . S
O60 C65 1.259 . S
Co61 O62 2.061 . S
Co61 O67 2.052 . S
Co61 O69 2.135 . S
O62 Co61 2.061 . S
O62 C65 1.235 . S
C63 O66 1.238 . S
C63 O67 1.241 . S
C64 O57 1.247 . S
C64 O58 1.261 . S
C65 O60 1.259 . S
C65 O62 1.235 . S
O66 Co56 2.021 . S
O66 C63 1.238 . S
O67 Co61 2.052 . S
O67 C63 1.241 . S
O68 Co56 2.137 . S
O68 C59 1.247 . S
O69 Co56 2.244 . S
O69 C59 1.272 . S
O69 Co61 2.135 . S
Co70 O71 2.216 . S
Co70 O72 2.091 . S
Co70 O74 2.004 . S
Co70 O80 2.021 . S
Co70 O82 2.137 . S
Co70 O83 2.244 . S
O71 Co70 2.216 . S
O71 C78 1.247 . S
O72 Co70 2.091 . S
O72 C78 1.261 . S
C73 O82 1.247 . S
C73 O83 1.272 . S
O74 Co70 2.004 . S
O74 C79 1.259 . S
Co75 O76 2.061 . S
Co75 O81 2.052 . S
Co75 O83 2.135 . S
O76 Co75 2.061 . S
O76 C79 1.235 . S
C77 O80 1.238 . S
C77 O81 1.241 . S
C78 O71 1.247 . S
C78 O72 1.261 . S
C79 O74 1.259 . S
C79 O76 1.235 . S
O80 Co70 2.021 . S
O80 C77 1.238 . S
O81 Co75 2.052 . S
O81 C77 1.241 . S
O82 Co70 2.137 . S
O82 C73 1.247 . S
O83 Co70 2.244 . S
O83 C73 1.272 . S
O83 Co75 2.135 . S
Co84 O85 2.216 . S
Co84 O86 2.091 . S
Co84 O88 2.004 . S
Co84 O94 2.021 . S
Co84 O96 2.137 . S
Co84 O97 2.244 . S
O85 Co84 2.216 . S
O85 C92 1.247 . S
O86 Co84 2.091 . S
O86 C92 1.261 . S
C87 O96 1.247 . S
C87 O97 1.272 . S
O88 Co84 2.004 . S
O88 C93 1.259 . S
Co89 O90 2.061 . S
Co89 O95 2.052 . S
Co89 O97 2.135 . S
O90 Co89 2.061 . S
O90 C93 1.235 . S
C91 O94 1.238 . S
C91 O95 1.241 . S
C92 O85 1.247 . S
C92 O86 1.261 . S
C93 O88 1.259 . S
C93 O90 1.235 . S
O94 Co84 2.021 . S
O94 C91 1.238 . S
O95 Co89 2.052 . S
O95 C91 1.241 . S
O96 Co84 2.137 . S
O96 C87 1.247 . S
O97 Co84 2.244 . S
O97 C87 1.272 . S
O97 Co89 2.135 . S
Co98 O99 2.216 . S
Co98 O100 2.091 . S
Co98 O102 2.004 . S
Co98 O108 2.021 . S
Co98 O110 2.137 . S
Co98 O111 2.244 . S
O99 Co98 2.216 . S
O99 C106 1.247 . S
O100 Co98 2.091 . S
O100 C106 1.261 . S
C101 O110 1.247 . S
C101 O111 1.272 . S
O102 Co98 2.004 . S
O102 C107 1.259 . S
Co103 O104 2.061 . S
Co103 O109 2.052 . S
Co103 O111 2.135 . S
O104 Co103 2.061 . S
O104 C107 1.235 . S
C105 O108 1.238 . S
C105 O109 1.241 . S
C106 O99 1.247 . S
C106 O100 1.261 . S
C107 O102 1.259 . S
C107 O104 1.235 . S
O108 Co98 2.021 . S
O108 C105 1.238 . S
O109 Co103 2.052 . S
O109 C105 1.241 . S
O110 Co98 2.137 . S
O110 C101 1.247 . S
O111 Co98 2.244 . S
O111 C101 1.272 . S
O111 Co103 2.135 . S
Co112 O113 2.216 . S
Co112 O114 2.091 . S
Co112 O116 2.004 . S
Co112 O122 2.021 . S
Co112 O124 2.137 . S
Co112 O125 2.244 . S
O113 Co112 2.216 . S
O113 C120 1.247 . S
O114 Co112 2.091 . S
O114 C120 1.261 . S
C115 O124 1.247 . S
C115 O125 1.272 . S
O116 Co112 2.004 . S
O116 C121 1.259 . S
Co117 O118 2.061 . S
Co117 O123 2.052 . S
Co117 O125 2.135 . S
O118 Co117 2.061 . S
O118 C121 1.235 . S
C119 O122 1.238 . S
C119 O123 1.241 . S
C120 O113 1.247 . S
C120 O114 1.261 . S
C121 O116 1.259 . S
C121 O118 1.235 . S
O122 Co112 2.021 . S
O122 C119 1.238 . S
O123 Co117 2.052 . S
O123 C119 1.241 . S
O124 Co112 2.137 . S
O124 C115 1.247 . S
O125 Co112 2.244 . S
O125 C115 1.272 . S
O125 Co117 2.135 . S
Co126 O127 2.216 . S
Co126 O128 2.091 . S
Co126 O130 2.004 . S
Co126 O136 2.021 . S
Co126 O138 2.137 . S
Co126 O139 2.244 . S
O127 Co126 2.216 . S
O127 C134 1.247 . S
O128 Co126 2.091 . S
O128 C134 1.261 . S
C129 O138 1.247 . S
C129 O139 1.272 . S
O130 Co126 2.004 . S
O130 C135 1.259 . S
Co131 O132 2.061 . S
Co131 O137 2.052 . S
Co131 O139 2.135 . S
O132 Co131 2.061 . S
O132 C135 1.235 . S
C133 O136 1.238 . S
C133 O137 1.241 . S
C134 O127 1.247 . S
C134 O128 1.261 . S
C135 O130 1.259 . S
C135 O132 1.235 . S
O136 Co126 2.021 . S
O136 C133 1.238 . S
O137 Co131 2.052 . S
O137 C133 1.241 . S
O138 Co126 2.137 . S
O138 C129 1.247 . S
O139 Co126 2.244 . S
O139 C129 1.272 . S
O139 Co131 2.135 . S
Co140 O141 2.216 . S
Co140 O142 2.091 . S
Co140 O144 2.004 . S
Co140 O150 2.021 . S
Co140 O152 2.137 . S
Co140 O153 2.244 . S
O141 Co140 2.216 . S
O141 C148 1.247 . S
O142 Co140 2.091 . S
O142 C148 1.261 . S
C143 O152 1.247 . S
C143 O153 1.272 . S
O144 Co140 2.004 . S
O144 C149 1.259 . S
Co145 O146 2.061 . S
Co145 O151 2.052 . S
Co145 O153 2.135 . S
O146 Co145 2.061 . S
O146 C149 1.235 . S
C147 O150 1.238 . S
C147 O151 1.241 . S
C148 O141 1.247 . S
C148 O142 1.261 . S
C149 O144 1.259 . S
C149 O146 1.235 . S
O150 Co140 2.021 . S
O150 C147 1.238 . S
O151 Co145 2.052 . S
O151 C147 1.241 . S
O152 Co140 2.137 . S
O152 C143 1.247 . S
O153 Co140 2.244 . S
O153 C143 1.272 . S
O153 Co145 2.135 . S
Co154 O155 2.216 . S
Co154 O156 2.091 . S
Co154 O158 2.004 . S
Co154 O164 2.021 . S
Co154 O166 2.137 . S
Co154 O167 2.244 . S
O155 Co154 2.216 . S
O155 C162 1.247 . S
O156 Co154 2.091 . S
O156 C162 1.261 . S
C157 O166 1.247 . S
C157 O167 1.272 . S
O158 Co154 2.004 . S
O158 C163 1.259 . S
Co159 O160 2.061 . S
Co159 O165 2.052 . S
Co159 O167 2.135 . S
O160 Co159 2.061 . S
O160 C163 1.235 . S
C161 O164 1.238 . S
C161 O165 1.241 . S
C162 O155 1.247 . S
C162 O156 1.261 . S
C163 O158 1.259 . S
C163 O160 1.235 . S
O164 Co154 2.021 . S
O164 C161 1.238 . S
O165 Co159 2.052 . S
O165 C161 1.241 . S
O166 Co154 2.137 . S
O166 C157 1.247 . S
O167 Co154 2.244 . S
O167 C157 1.272 . S
O167 Co159 2.135 . S
C168 C169 1.369 . S
C168 C170 1.419 . S
C168 H172 0.930 . S
C169 C168 1.369 . S
C169 C178 1.429 . S
C170 C168 1.419 . S
C170 C171 1.363 . S
C170 H173 0.929 . S
C171 C170 1.363 . S
C171 C177 1.428 . S
H172 C168 0.930 . S
H173 C170 0.929 . S
S174 N175 1.613 . S
S174 N176 1.610 . S
N175 S174 1.613 . S
N175 C178 1.350 . S
N176 S174 1.610 . S
N176 C177 1.351 . S
C177 C171 1.428 . S
C177 N176 1.351 . S
C177 C178 1.434 . S
C178 C169 1.429 . S
C178 N175 1.350 . S
C178 C177 1.434 . S
C179 C180 1.369 . S
C179 C181 1.419 . S
C179 H183 0.930 . S
C180 C179 1.369 . S
C180 C189 1.429 . S
C181 C179 1.419 . S
C181 C182 1.363 . S
C181 H184 0.929 . S
C182 C181 1.363 . S
C182 C188 1.428 . S
H183 C179 0.930 . S
H184 C181 0.929 . S
S185 N186 1.613 . S
S185 N187 1.610 . S
N186 S185 1.613 . S
N186 C189 1.350 . S
N187 S185 1.610 . S
N187 C188 1.351 . S
C188 C182 1.428 . S
C188 N187 1.351 . S
C188 C189 1.434 . S
C189 C180 1.429 . S
C189 N186 1.350 . S
C189 C188 1.434 . S
C190 C191 1.369 . S
C190 C192 1.419 . S
C190 H194 0.930 . S
C191 C190 1.369 . S
C191 C200 1.429 . S
C192 C190 1.419 . S
C192 C193 1.363 . S
C192 H195 0.929 . S
C193 C192 1.363 . S
C193 C199 1.428 . S
H194 C190 0.930 . S
H195 C192 0.929 . S
S196 N197 1.613 . S
S196 N198 1.610 . S
N197 S196 1.613 . S
N197 C200 1.350 . S
N198 S196 1.610 . S
N198 C199 1.351 . S
C199 C193 1.428 . S
C199 N198 1.351 . S
C199 C200 1.434 . S
C200 C191 1.429 . S
C200 N197 1.350 . S
C200 C199 1.434 . S
C201 C202 1.369 . S
C201 C203 1.419 . S
C201 H205 0.930 . S
C202 C201 1.369 . S
C202 C211 1.429 . S
C203 C201 1.419 . S
C203 C204 1.363 . S
C203 H206 0.929 . S
C204 C203 1.363 . S
C204 C210 1.428 . S
H205 C201 0.930 . S
H206 C203 0.929 . S
S207 N208 1.613 . S
S207 N209 1.610 . S
N208 S207 1.613 . S
N208 C211 1.350 . S
N209 S207 1.610 . S
N209 C210 1.351 . S
C210 C204 1.428 . S
C210 N209 1.351 . S
C210 C211 1.434 . S
C211 C202 1.429 . S
C211 N208 1.350 . S
C211 C210 1.434 . S
C212 C213 1.369 . S
C212 C214 1.419 . S
C212 H216 0.930 . S
C213 C212 1.369 . S
C213 C222 1.429 . S
C214 C212 1.419 . S
C214 C215 1.363 . S
C214 H217 0.929 . S
C215 C214 1.363 . S
C215 C221 1.428 . S
H216 C212 0.930 . S
H217 C214 0.929 . S
S218 N219 1.613 . S
S218 N220 1.610 . S
N219 S218 1.613 . S
N219 C222 1.350 . S
N220 S218 1.610 . S
N220 C221 1.351 . S
C221 C215 1.428 . S
C221 N220 1.351 . S
C221 C222 1.434 . S
C222 C213 1.429 . S
C222 N219 1.350 . S
C222 C221 1.434 . S
C223 C224 1.369 . S
C223 C225 1.419 . S
C223 H227 0.930 . S
C224 C223 1.369 . S
C224 C233 1.429 . S
C225 C223 1.419 . S
C225 C226 1.363 . S
C225 H228 0.929 . S
C226 C225 1.363 . S
C226 C232 1.428 . S
H227 C223 0.930 . S
H228 C225 0.929 . S
S229 N230 1.613 . S
S229 N231 1.610 . S
N230 S229 1.613 . S
N230 C233 1.350 . S
N231 S229 1.610 . S
N231 C232 1.351 . S
C232 C226 1.428 . S
C232 N231 1.351 . S
C232 C233 1.434 . S
C233 C224 1.429 . S
C233 N230 1.350 . S
C233 C232 1.434 . S
C234 C235 1.369 . S
C234 C236 1.419 . S
C234 H238 0.930 . S
C235 C234 1.369 . S
C235 C244 1.429 . S
C236 C234 1.419 . S
C236 C237 1.363 . S
C236 H239 0.929 . S
C237 C236 1.363 . S
C237 C243 1.428 . S
H238 C234 0.930 . S
H239 C236 0.929 . S
S240 N241 1.613 . S
S240 N242 1.610 . S
N241 S240 1.613 . S
N241 C244 1.350 . S
N242 S240 1.610 . S
N242 C243 1.351 . S
C243 C237 1.428 . S
C243 N242 1.351 . S
C243 C244 1.434 . S
C244 C235 1.429 . S
C244 N241 1.350 . S
C244 C243 1.434 . S
C245 C246 1.369 . S
C245 C247 1.428 . S
C245 H249 0.930 . S
C246 C245 1.369 . S
C246 C255 1.429 1_655 S
C247 C245 1.428 . S
C247 C248 1.353 1_655 S
C247 H250 0.930 . S
C248 C247 1.353 1_455 S
C248 C254 1.428 . S
H249 C245 0.930 . S
H250 C247 0.930 . S
S251 N252 1.613 . S
S251 N253 1.610 . S
N252 S251 1.613 . S
N252 C255 1.350 . S
N253 S251 1.610 . S
N253 C254 1.351 . S
C254 C248 1.428 . S
C254 N253 1.351 . S
C254 C255 1.434 . S
C255 C246 1.429 1_455 S
C255 N252 1.350 . S
C255 C254 1.434 . S
C256 C257 1.369 . S
C256 C258 1.419 1_545 S
C256 H260 0.930 . S
C257 C256 1.369 . S
C257 C266 1.429 . S
C258 C256 1.419 1_565 S
C258 C259 1.363 . S
C258 H261 0.929 . S
C259 C258 1.363 . S
C259 C265 1.428 . S
H260 C256 0.930 . S
H261 C258 0.929 . S
S262 N263 1.613 1_565 S
S262 N264 1.610 . S
N263 S262 1.613 1_545 S
N263 C266 1.350 . S
N264 S262 1.610 . S
N264 C265 1.351 . S
C265 C259 1.428 . S
C265 N264 1.351 . S
C265 C266 1.434 1_565 S
C266 C257 1.429 . S
C266 N263 1.350 . S
C266 C265 1.434 1_545 S
C267 C268 1.369 . S
C267 C269 1.419 . S
C267 H271 0.930 . S
C268 C267 1.369 . S
C268 C277 1.429 . S
C269 C267 1.419 . S
C269 C270 1.363 . S
C269 H272 0.929 . S
C270 C269 1.363 . S
C270 C276 1.428 . S
H271 C267 0.930 . S
H272 C269 0.929 . S
S273 N274 1.613 . S
S273 N275 1.610 . S
N274 S273 1.613 . S
N274 C277 1.350 . S
N275 S273 1.610 . S
N275 C276 1.351 . S
C276 C270 1.428 . S
C276 N275 1.351 . S
C276 C277 1.434 . S
C277 C268 1.429 . S
C277 N274 1.350 . S
C277 C276 1.434 . S
C278 C279 1.369 . S
C278 C280 1.419 1_655 S
C278 H282 0.930 . S
C279 C278 1.369 . S
C279 C288 1.429 . S
C280 C278 1.419 1_455 S
C280 C281 1.363 . S
C280 H283 0.929 . S
C281 C280 1.363 . S
C281 C287 1.428 . S
H282 C278 0.930 . S
H283 C280 0.929 . S
S284 N285 1.613 . S
S284 N286 1.610 . S
N285 S284 1.613 . S
N285 C288 1.350 . S
N286 S284 1.610 . S
N286 C287 1.351 1_655 S
C287 C281 1.428 . S
C287 N286 1.351 1_455 S
C287 C288 1.434 1_455 S
C288 C279 1.429 . S
C288 N285 1.350 . S
C288 C287 1.434 1_655 S
C289 C290 1.369 . S
C289 C291 1.419 1_565 S
C289 H293 0.930 . S
C290 C289 1.369 . S
C290 C299 1.429 1_554 S
C291 C289 1.419 1_545 S
C291 C292 1.363 1_554 S
C291 H294 0.929 . S
C292 C291 1.363 1_556 S
C292 C298 1.428 . S
H293 C289 0.930 . S
H294 C291 0.929 . S
S295 N296 1.613 . S
S295 N297 1.610 1_565 S
N296 S295 1.613 . S
N296 C299 1.350 . S
N297 S295 1.610 1_545 S
N297 C298 1.351 . S
C298 C292 1.428 . S
C298 N297 1.351 . S
C298 C299 1.434 1_545 S
C299 C290 1.429 1_556 S
C299 N296 1.350 . S
C299 C298 1.434 1_565 S
C300 C301 1.369 . S
C300 C302 1.419 1_554 S
C300 H304 0.930 . S
C301 C300 1.369 . S
C301 C310 1.429 . S
C302 C300 1.419 1_556 S
C302 C303 1.363 . S
C302 H305 0.929 . S
C303 C302 1.363 . S
C303 C309 1.428 1_556 S
H304 C300 0.930 . S
H305 C302 0.929 . S
S306 N307 1.613 . S
S306 N308 1.610 . S
N307 S306 1.613 . S
N307 C310 1.350 . S
N308 S306 1.610 . S
N308 C309 1.351 . S
C309 C303 1.428 1_554 S
C309 N308 1.351 . S
C309 C310 1.434 . S
C310 C301 1.429 . S
C310 N307 1.350 . S
C310 C309 1.434 . S
C311 C312 1.369 . S
C311 C313 1.419 . S
C311 H315 0.930 . S
C312 C311 1.369 . S
C312 C321 1.429 . S
C313 C311 1.419 . S
C313 C314 1.363 . S
C313 H316 0.929 1_655 S
C314 C313 1.363 . S
C314 C320 1.428 . S
H315 C311 0.930 . S
H316 C313 0.929 1_455 S
S317 N318 1.613 . S
S317 N319 1.610 . S
N318 S317 1.613 . S
N318 C321 1.350 . S
N319 S317 1.610 . S
N319 C320 1.351 . S
C320 C314 1.428 . S
C320 N319 1.351 . S
C320 C321 1.434 . S
C321 C312 1.429 . S
C321 N318 1.350 . S
C321 C320 1.434 . S
C322 C323 1.369 . S
C322 C324 1.419 . S
C322 H326 0.930 . S
C323 C322 1.369 . S
C323 C332 1.429 . S
C324 C322 1.419 . S
C324 C325 1.363 . S
C324 H327 0.929 . S
C325 C324 1.363 . S
C325 C331 1.428 . S
H326 C322 0.930 . S
H327 C324 0.929 . S
S328 N329 1.613 . S
S328 N330 1.610 1_545 S
N329 S328 1.613 . S
N329 C332 1.350 1_545 S
N330 S328 1.610 1_565 S
N330 C331 1.351 . S
C331 C325 1.428 . S
C331 N330 1.351 . S
C331 C332 1.434 . S
C332 C323 1.429 . S
C332 N329 1.350 1_565 S
C332 C331 1.434 . S
C333 C334 1.369 . S
C333 C335 1.419 . S
C333 H337 0.930 . S
C334 C333 1.369 . S
C334 C343 1.429 . S
C335 C333 1.419 . S
C335 C336 1.363 . S
C335 H338 0.929 . S
C336 C335 1.363 . S
C336 C342 1.428 . S
H337 C333 0.930 . S
H338 C335 0.929 . S
S339 N340 1.613 . S
S339 N341 1.610 . S
N340 S339 1.613 . S
N340 C343 1.350 . S
N341 S339 1.610 . S
N341 C342 1.351 . S
C342 C336 1.428 . S
C342 N341 1.351 . S
C342 C343 1.434 . S
C343 C334 1.429 . S
C343 N340 1.350 . S
C343 C342 1.434 . S
C344 C345 1.369 . S
C344 C346 1.419 . S
C344 H348 0.930 . S
C345 C344 1.369 . S
C345 C354 1.429 . S
C346 C344 1.419 . S
C346 C347 1.363 . S
C346 H349 0.929 . S
C347 C346 1.363 . S
C347 C353 1.428 . S
H348 C344 0.930 . S
H349 C346 0.929 . S
S350 N351 1.613 1_655 S
S350 N352 1.610 . S
N351 S350 1.613 1_455 S
N351 C354 1.350 . S
N352 S350 1.610 . S
N352 C353 1.351 1_655 S
C353 C347 1.428 . S
C353 N352 1.351 1_455 S
C353 C354 1.434 . S
C354 C345 1.429 . S
C354 N351 1.350 . S
C354 C353 1.434 . S
C355 C356 1.369 . S
C355 C357 1.419 . S
C355 H359 0.930 . S
C356 C355 1.369 . S
C356 C365 1.429 . S
C357 C355 1.419 . S
C357 C358 1.363 . S
C357 H360 0.929 . S
C358 C357 1.363 . S
C358 C364 1.428 . S
H359 C355 0.930 . S
H360 C357 0.929 . S
S361 N362 1.613 . S
S361 N363 1.610 1_545 S
N362 S361 1.613 . S
N362 C365 1.350 . S
N363 S361 1.610 1_565 S
N363 C364 1.351 1_565 S
C364 C358 1.428 . S
C364 N363 1.351 1_545 S
C364 C365 1.434 . S
C365 C356 1.429 . S
C365 N362 1.350 . S
C365 C364 1.434 . S
C366 C367 1.369 . S
C366 C368 1.419 . S
C366 H370 0.930 . S
C367 C366 1.369 . S
C367 C376 1.429 . S
C368 C366 1.419 . S
C368 C369 1.363 . S
C368 H371 0.929 . S
C369 C368 1.363 . S
C369 C375 1.428 . S
H370 C366 0.930 . S
H371 C368 0.929 . S
S372 N373 1.613 . S
S372 N374 1.610 . S
N373 S372 1.613 . S
N373 C376 1.350 . S
N374 S372 1.610 . S
N374 C375 1.351 . S
C375 C369 1.428 . S
C375 N374 1.351 . S
C375 C376 1.434 . S
C376 C367 1.429 . S
C376 N373 1.350 . S
C376 C375 1.434 . S
C377 C378 1.369 . S
C377 C379 1.419 1_556 S
C377 H381 0.939 . S
C378 C377 1.369 . S
C378 C387 1.429 . S
C379 C377 1.419 1_554 S
C379 C380 1.363 . S
C379 H382 0.929 . S
C380 C379 1.363 . S
C380 C386 1.428 1_554 S
H381 C377 0.939 . S
H382 C379 0.929 . S
S383 N384 1.613 1_455 S
S383 N385 1.610 . S
N384 S383 1.613 1_655 S
N384 C387 1.350 . S
N385 S383 1.610 . S
N385 C386 1.351 1_455 S
C386 C380 1.428 1_556 S
C386 N385 1.351 1_655 S
C386 C387 1.434 . S
C387 C378 1.429 . S
C387 N384 1.350 . S
C387 C386 1.434 . S
C388 C389 1.369 . S
C388 C390 1.419 . S
C388 H392 0.930 . S
C389 C388 1.369 . S
C389 C398 1.429 . S
C390 C388 1.419 . S
C390 C391 1.363 . S
C390 H393 0.929 . S
C391 C390 1.363 . S
C391 C397 1.428 . S
H392 C388 0.930 . S
H393 C390 0.929 . S
S394 N395 1.613 . S
S394 N396 1.610 1_565 S
N395 S394 1.613 . S
N395 C398 1.350 . S
N396 S394 1.610 1_545 S
N396 C397 1.351 1_545 S
C397 C391 1.428 . S
C397 N396 1.351 1_565 S
C397 C398 1.434 . S
C398 C389 1.429 . S
C398 N395 1.350 . S
C398 C397 1.434 . S
C399 C400 1.369 . S
C399 C401 1.419 . S
C399 H403 0.930 . S
C400 C399 1.369 . S
C400 C409 1.429 . S
C401 C399 1.419 . S
C401 C402 1.363 . S
C401 H404 0.929 . S
C402 C401 1.363 . S
C402 C408 1.428 . S
H403 C399 0.930 . S
H404 C401 0.929 . S
S405 N406 1.613 . S
S405 N407 1.610 . S
N406 S405 1.613 . S
N406 C409 1.350 . S
N407 S405 1.610 . S
N407 C408 1.351 . S
C408 C402 1.428 . S
C408 N407 1.351 . S
C408 C409 1.434 . S
C409 C400 1.429 . S
C409 N406 1.350 . S
C409 C408 1.434 . S
C410 C411 1.369 . S
C410 C412 1.419 . S
C410 H414 0.930 . S
C411 C410 1.369 . S
C411 C420 1.429 . S
C412 C410 1.419 . S
C412 C413 1.363 . S
C412 H415 0.929 . S
C413 C412 1.363 . S
C413 C419 1.428 . S
H414 C410 0.930 . S
H415 C412 0.929 . S
S416 N417 1.613 1_655 S
S416 N418 1.610 . S
N417 S416 1.613 1_455 S
N417 C420 1.350 . S
N418 S416 1.610 . S
N418 C419 1.351 1_655 S
C419 C413 1.428 . S
C419 N418 1.351 1_455 S
C419 C420 1.434 . S
C420 C411 1.429 . S
C420 N417 1.350 . S
C420 C419 1.434 . S
C421 C422 1.369 . S
C421 C423 1.419 . S
C421 H425 0.930 . S
C422 C421 1.369 . S
C422 C431 1.429 . S
C423 C421 1.419 . S
C423 C424 1.363 . S
C423 H426 0.929 . S
C424 C423 1.363 . S
C424 C430 1.428 . S
H425 C421 0.930 . S
H426 C423 0.929 . S
S427 N428 1.613 . S
S427 N429 1.610 . S
N428 S427 1.613 . S
N428 C431 1.350 . S
N429 S427 1.610 . S
N429 C430 1.351 . S
C430 C424 1.428 . S
C430 N429 1.351 . S
C430 C431 1.434 . S
C431 C422 1.429 . S
C431 N428 1.350 . S
C431 C430 1.434 . S
C169 C120 1.357 . S
C171 C8 1.356 . S
C180 C22 1.356 . S
C182 C134 1.357 . S
C191 C36 1.357 . S
C193 C148 1.357 . S
C202 C50 1.357 . S
C204 C162 1.356 . S
C213 C92 1.356 . S
C215 C64 1.357 . S
C224 C78 1.357 . S
C226 C106 1.356 . S
C235 C135 1.110 . S
C237 C9 1.108 . S
C246 C23 1.101 . S
C248 C149 1.106 . S
C257 C163 1.106 . S
C259 C37 1.109 . S
C268 C51 1.100 . S
C270 C93 1.104 . S
C279 C107 1.106 . S
C281 C65 1.102 . S
C290 C121 1.110 . S
C292 C79 1.108 . S
C301 C3 1.487 . S
C303 C77 1.443 . S
C312 C17 1.493 . S
C314 C7 1.444 1_655 S
C323 C21 1.441 1_565 S
C325 C31 1.489 . S
C334 C45 1.493 . S
C336 C35 1.438 . S
C345 C59 1.490 . S
C347 C49 1.440 1_455 S
C356 C73 1.487 . S
C358 C63 1.446 1_545 S
C367 C87 1.489 . S
C369 C105 1.440 . S
C378 C101 1.487 . S
C380 C119 1.444 1_655 S
C389 C115 1.492 . S
C391 C133 1.438 1_565 S
C400 C129 1.487 . S
C402 C147 1.444 . S
C411 C143 1.487 . S
C413 C161 1.445 1_455 S
C422 C91 1.441 1_545 S
C424 C157 1.494 . S
