# Generated by pormake.
# Topology wmb, (6)-cn, num edge types: 1
# Building blocks:
#     Node 0, Type 0, BuildingBlock: IZENUY_clean_sbu_0, # of connection points: 6
#     Node 1, Type 0, BuildingBlock: IZENUY_clean_sbu_0, # of connection points: 6
#     Node 2, Type 0, BuildingBlock: IZENUY_clean_sbu_0, # of connection points: 6
#     Node 3, Type 0, BuildingBlock: IZENUY_clean_sbu_0, # of connection points: 6
#     Node 4, Type 0, BuildingBlock: IZENUY_clean_sbu_0, # of connection points: 6
#     Node 5, Type 0, BuildingBlock: IZENUY_clean_sbu_0, # of connection points: 6
#     Edge 6, Type (0, 0), BuildingBlock: CIFDUS_clean_linker_0, # of connection points: 2
#     Edge 7, Type (0, 0), BuildingBlock: CIFDUS_clean_linker_0, # of connection points: 2
#     Edge 8, Type (0, 0), BuildingBlock: CIFDUS_clean_linker_0, # of connection points: 2
#     Edge 9, Type (0, 0), BuildingBlock: CIFDUS_clean_linker_0, # of connection points: 2
#     Edge 10, Type (0, 0), BuildingBlock: CIFDUS_clean_linker_0, # of connection points: 2
#     Edge 11, Type (0, 0), BuildingBlock: CIFDUS_clean_linker_0, # of connection points: 2
#     Edge 12, Type (0, 0), BuildingBlock: CIFDUS_clean_linker_0, # of connection points: 2
#     Edge 13, Type (0, 0), BuildingBlock: CIFDUS_clean_linker_0, # of connection points: 2
#     Edge 14, Type (0, 0), BuildingBlock: CIFDUS_clean_linker_0, # of connection points: 2
#     Edge 15, Type (0, 0), BuildingBlock: CIFDUS_clean_linker_0, # of connection points: 2
#     Edge 16, Type (0, 0), BuildingBlock: CIFDUS_clean_linker_0, # of connection points: 2
#     Edge 17, Type (0, 0), BuildingBlock: CIFDUS_clean_linker_0, # of connection points: 2
#     Edge 18, Type (0, 0), BuildingBlock: CIFDUS_clean_linker_0, # of connection points: 2
#     Edge 19, Type (0, 0), BuildingBlock: CIFDUS_clean_linker_0, # of connection points: 2
#     Edge 20, Type (0, 0), BuildingBlock: CIFDUS_clean_linker_0, # of connection points: 2
#     Edge 21, Type (0, 0), BuildingBlock: CIFDUS_clean_linker_0, # of connection points: 2
#     Edge 22, Type (0, 0), BuildingBlock: CIFDUS_clean_linker_0, # of connection points: 2
#     Edge 23, Type (0, 0), BuildingBlock: CIFDUS_clean_linker_0, # of connection points: 2
# Relax obj value: 0.257
# Max RMSD: 0.258
# Mean RMSD: 0.258
data_MOF--net-wmb--node1-IZENUY_clean_sbu_0--edge1-CIFDUS_clean_linker_0
_symmetry_space_group_name_H-M    P1
_symmetry_Int_Tables_number       1
_symmetry_cell_setting            triclinic
loop_
_symmetry_equiv_pos_as_xyz
'x, y, z'
_cell_length_a     23.454676
_cell_length_b     23.471193
_cell_length_c     37.345594
_cell_angle_alpha  89.858122
_cell_angle_beta   88.773823
_cell_angle_gamma 119.412
loop_
_atom_site_label
_atom_site_type_symbol
_atom_site_fract_x
_atom_site_fract_y
_atom_site_fract_z
_atom_type_partial_charge
Fe0 Fe 0.48262 0.15483 0.0498 0.0
Fe1 Fe 0.5923 0.15483 0.00416 0.0
O2 O 0.55566 0.19849 0.02338 0.0
Fe3 Fe 0.59273 0.28432 0.01713 0.0
O4 O 0.57353 0.29935 0.0629 0.0
O5 O 0.52146 0.20127 0.08877 0.0
O6 O 0.50289 0.09335 0.06612 0.0
C7 C 0.5591 0.10042 0.0711 0.0
C8 C 0.46407 0.25388 0.01676 0.0
O9 O 0.60519 0.13121 0.04858 0.0
C10 C 0.60373 0.23574 0.94848 0.0
O11 O 0.43868 0.10469 0.01213 0.0
O12 O 0.51494 0.07917 0.99933 0.0
O13 O 0.51833 0.27944 0.99984 0.0
O14 O 0.44974 0.20915 0.03978 0.0
C15 C 0.70281 0.27156 0.02343 0.0
O16 O 0.58267 0.17753 0.95932 0.0
O17 O 0.61811 0.28219 0.97029 0.0
C18 C 0.45666 0.06808 0.99674 0.0
O19 O 0.67633 0.22133 0.00453 0.0
O20 O 0.67043 0.29803 0.03448 0.0
C21 C 0.55322 0.26268 0.09057 0.0
Fe22 Fe 0.89712 0.4674 0.67929 0.0
Fe23 Fe 0.76291 0.34391 0.68283 0.0
O24 O 0.8473 0.38424 0.69228 0.0
Fe25 Fe 0.88135 0.34178 0.7148 0.0
O26 O 0.9088 0.40059 0.75066 0.0
O27 O 0.95253 0.48926 0.71676 0.0
O28 O 0.84828 0.49344 0.7058 0.0
C29 C 0.78788 0.47122 0.70142 0.0
C30 C 0.98158 0.42232 0.66305 0.0
O31 O 0.75425 0.41749 0.68568 0.0
C32 C 0.79496 0.24142 0.67426 0.0
O33 O 0.85133 0.46062 0.63945 0.0
O34 O 0.78109 0.35584 0.6347 0.0
O35 O 0.96223 0.38572 0.69093 0.0
O36 O 0.94892 0.44776 0.65164 0.0
C37 C 0.76022 0.30201 0.75147 0.0
O38 O 0.75461 0.26208 0.67899 0.0
O39 O 0.85478 0.278 0.68097 0.0
C40 C 0.81648 0.41182 0.62045 0.0
O41 O 0.74123 0.33085 0.73022 0.0
O42 O 0.80744 0.29229 0.74298 0.0
C43 C 0.94458 0.46155 0.74683 0.0
Fe44 Fe 0.7329 0.53465 0.38085 0.0
Fe45 Fe 0.60654 0.44055 0.34331 0.0
O46 O 0.68593 0.46183 0.35671 0.0
Fe47 Fe 0.71886 0.41085 0.34536 0.0
O48 O 0.72426 0.39533 0.39206 0.0
O49 O 0.7744 0.49926 0.40671 0.0
O50 O 0.67226 0.50621 0.41696 0.0
C51 C 0.61338 0.49145 0.41339 0.0
C52 C 0.82984 0.53844 0.3378 0.0
O53 O 0.58714 0.4761 0.38297 0.0
C54 C 0.66126 0.41035 0.28319 0.0
O55 O 0.69578 0.58124 0.36012 0.0
O56 O 0.64027 0.51544 0.31759 0.0
O57 O 0.80404 0.47718 0.34279 0.0
O58 O 0.79875 0.56793 0.34665 0.0
C59 C 0.58572 0.32012 0.36191 0.0
O60 O 0.61181 0.40202 0.30173 0.0
O61 O 0.71427 0.42394 0.29791 0.0
C62 C 0.66124 0.56963 0.33243 0.0
O63 O 0.5691 0.36296 0.36758 0.0
O64 O 0.63968 0.3348 0.34618 0.0
C65 C 0.7543 0.43948 0.4145 0.0
Fe66 Fe 0.30008 0.57746 0.98827 0.0
Fe67 Fe 0.18247 0.47642 0.94657 0.0
O68 O 0.21697 0.54311 0.97622 0.0
Fe69 Fe 0.16795 0.57569 0.9928 0.0
O70 O 0.23412 0.66027 0.99459 0.0
O71 O 0.31937 0.65749 0.97146 0.0
O72 O 0.32779 0.56515 0.94361 0.0
C73 C 0.30055 0.55781 0.91361 0.0
C74 C 0.23372 0.58064 0.05308 0.0
O75 O 0.23903 0.52687 0.91123 0.0
C76 C 0.08314 0.43856 0.99592 0.0
O77 O 0.28798 0.49931 0.00539 0.0
O78 O 0.23625 0.44368 0.95849 0.0
O79 O 0.1796 0.55929 0.03816 0.0
O80 O 0.28603 0.59707 0.03473 0.0
C81 C 0.12535 0.55104 0.92489 0.0
O82 O 0.12277 0.42345 0.98076 0.0
O83 O 0.09319 0.49673 0.99446 0.0
C84 C 0.27062 0.45053 0.98542 0.0
O85 O 0.1232 0.49657 0.92808 0.0
O86 O 0.15211 0.5944 0.94807 0.0
C87 C 0.28957 0.68838 0.97896 0.0
Fe88 Fe 0.45635 0.73736 0.6522 0.0
Fe89 Fe 0.58346 0.75145 0.6188 0.0
O90 O 0.50987 0.70517 0.6447 0.0
Fe91 Fe 0.48975 0.62688 0.66225 0.0
O92 O 0.41134 0.5858 0.64039 0.0
O93 O 0.3807 0.65826 0.65314 0.0
O94 O 0.44538 0.74115 0.60435 0.0
C95 C 0.49164 0.77272 0.58204 0.0
C96 C 0.45166 0.68427 0.71845 0.0
O97 O 0.55019 0.79122 0.5902 0.0
C98 C 0.62118 0.68752 0.6711 0.0
O99 O 0.52244 0.82305 0.65294 0.0
O100 O 0.61467 0.81978 0.64992 0.0
O101 O 0.45175 0.63576 0.7037 0.0
O102 O 0.46256 0.73457 0.70052 0.0
C103 C 0.53987 0.62849 0.59198 0.0
O104 O 0.63071 0.71899 0.64191 0.0
O105 O 0.56542 0.66021 0.68614 0.0
C106 C 0.58381 0.85013 0.65736 0.0
O107 O 0.55684 0.6876 0.58559 0.0
O108 O 0.5247 0.60475 0.62353 0.0
C109 C 0.3673 0.60159 0.6434 0.0
Fe110 Fe 0.33089 0.73039 0.32355 0.0
Fe111 Fe 0.3215 0.83296 0.27765 0.0
O112 O 0.3661 0.81186 0.30744 0.0
Fe113 Fe 0.44545 0.87103 0.32043 0.0
O114 O 0.48248 0.8237 0.30411 0.0
O115 O 0.40889 0.73099 0.32885 0.0
O116 O 0.33029 0.70182 0.27839 0.0
C117 C 0.30215 0.71223 0.25287 0.0
C118 C 0.38361 0.79724 0.38452 0.0
O119 O 0.28061 0.75211 0.25632 0.0
C120 C 0.38684 0.9466 0.32058 0.0
O121 O 0.24522 0.71368 0.32128 0.0
O122 O 0.25486 0.80991 0.31033 0.0
O123 O 0.43429 0.83669 0.36615 0.0
O124 O 0.33189 0.75609 0.36941 0.0
C125 C 0.44405 0.89507 0.24608 0.0
O126 O 0.35625 0.91842 0.29266 0.0
O127 O 0.41556 0.923 0.33823 0.0
C128 C 0.22096 0.75165 0.32153 0.0
O129 O 0.38394 0.85565 0.24337 0.0
O130 O 0.46928 0.9148 0.27648 0.0
C131 C 0.46522 0.76652 0.3148 0.0
H132 H 0.292 0.39062 0.04249 0.0
H133 H 0.33087 0.42893 0.92913 0.0
H134 H 0.39493 0.37261 0.92822 0.0
H135 H 0.44163 0.3132 0.95984 0.0
H136 H 0.3946 0.26624 0.07212 0.0
H137 H 0.33215 0.32414 0.07323 0.0
C138 C 0.3144 0.38627 0.01769 0.0
C139 C 0.30688 0.41385 0.98601 0.0
C140 C 0.34969 0.35195 0.01709 0.0
C141 C 0.33569 0.40762 0.95387 0.0
C142 C 0.3725 0.37559 0.95331 0.0
C143 C 0.4173 0.31538 0.98441 0.0
C144 C 0.42269 0.28538 0.01574 0.0
C145 C 0.38001 0.34758 0.98475 0.0
C146 C 0.39064 0.28831 0.04745 0.0
C147 C 0.35517 0.32179 0.04822 0.0
H148 H 0.67158 0.14509 0.68913 0.0
H149 H 0.85801 0.17556 0.6484 0.0
H150 H 0.81116 0.05676 0.64131 0.0
H151 H 0.71469 0.94335 0.64538 0.0
H152 H 0.53116 0.91799 0.68855 0.0
H153 H 0.57979 0.03515 0.69635 0.0
C154 C 0.70223 0.12617 0.67839 0.0
C155 C 0.76812 0.16972 0.6687 0.0
C156 C 0.67542 0.05818 0.67513 0.0
C157 C 0.80702 0.14348 0.65574 0.0
C158 C 0.7802 0.07542 0.6518 0.0
C159 C 0.68571 0.96344 0.65697 0.0
C160 C 0.61889 0.92128 0.66612 0.0
C161 C 0.71418 0.03206 0.66135 0.0
C162 C 0.5823 0.94869 0.68095 0.0
C163 C 0.61004 1.016 0.68537 0.0
H164 H 0.12714 0.6297 0.30512 0.0
H165 H 0.15304 0.81117 0.34759 0.0
H166 H 0.03372 0.76372 0.35426 0.0
H167 H 0.92125 0.66794 0.34981 0.0
H168 H 0.89921 0.48958 0.3041 0.0
H169 H 1.01716 0.53886 0.29636 0.0
C170 C 0.10677 0.65882 0.31611 0.0
C171 C 0.14897 0.72343 0.32655 0.0
C172 C 0.03845 0.63187 0.31891 0.0
C173 C 0.1216 0.76103 0.33974 0.0
C174 C 0.05336 0.73394 0.34342 0.0
C175 C 0.94225 0.64038 0.33756 0.0
C176 C 0.90097 0.57475 0.32787 0.0
C177 C 1.01108 0.66915 0.33319 0.0
C178 C 0.92942 0.53985 0.31215 0.0
C179 C 0.99711 0.56789 0.3078 0.0
H180 H 0.54089 0.02075 0.23104 0.0
H181 H 0.42915 0.8299 0.18484 0.0
H182 H 0.46635 0.87632 0.12496 0.0
H183 H 0.51229 0.97308 0.08562 0.0
H184 H 0.62165 0.1648 0.13034 0.0
H185 H 0.605 0.11674 0.19067 0.0
C186 C 0.52666 0.98931 0.2079 0.0
C187 C 0.48152 0.92232 0.2122 0.0
C188 C 0.54719 1.01668 0.1732 0.0
C189 C 0.46314 0.88189 0.18205 0.0
C190 C 0.48422 0.90835 0.14777 0.0
C191 C 0.53472 1.00388 0.1085 0.0
C192 C 0.56856 0.07191 0.10387 0.0
C193 C 0.52357 0.97596 0.14295 0.0
C194 C 0.59643 0.11202 0.1335 0.0
C195 C 0.58616 0.08458 0.16798 0.0
H196 H 0.9066 0.45168 0.8161 0.0
H197 H 0.07234 0.55584 0.74373 0.0
H198 H 0.14384 0.60647 0.79438 0.0
H199 H 0.16119 0.60531 0.8592 0.0
H200 H 0.99528 0.50032 0.93114 0.0
H201 H 0.92102 0.46753 0.8809 0.0
C202 C 0.95818 0.4864 0.81158 0.0
C203 C 0.98484 0.49928 0.77666 0.0
C204 C 0.99859 0.5155 0.8407 0.0
C205 C 0.05123 0.5451 0.77065 0.0
C206 C 0.09202 0.57392 0.79952 0.0
C207 C 0.10854 0.57801 0.8638 0.0
C208 C 0.0831 0.55565 0.89842 0.0
C209 C 0.0666 0.55765 0.83468 0.0
C210 C 1.0152 0.51883 0.90449 0.0
C211 C 0.97301 0.49925 0.87579 0.0
H212 H 0.62157 0.47368 0.48427 0.0
H213 H 0.53643 0.54819 0.40904 0.0
H214 H 0.50361 0.59578 0.45814 0.0
H215 H 0.50912 0.62537 0.52203 0.0
H216 H 0.58856 0.54515 0.59745 0.0
H217 H 0.61349 0.49044 0.54886 0.0
C218 C 0.59457 0.49917 0.47879 0.0
C219 C 0.58158 0.50765 0.44317 0.0
C220 C 0.57563 0.52604 0.50714 0.0
C221 C 0.54642 0.54052 0.43629 0.0
C222 C 0.52826 0.5683 0.46433 0.0
C223 C 0.53119 0.59523 0.52775 0.0
C224 C 0.54768 0.58974 0.5631 0.0
C225 C 0.54418 0.56286 0.49975 0.0
C226 C 0.57542 0.54996 0.57041 0.0
C227 C 0.58987 0.51889 0.54264 0.0
H228 H 0.47888 0.98832 0.95442 0.0
H229 H 0.32543 0.99888 0.01472 0.0
H230 H 0.25607 0.88021 0.01087 0.0
H231 H 0.24729 0.77308 0.99926 0.0
H232 H 0.40522 0.76386 0.94273 0.0
H233 H 0.46495 0.88262 0.93662 0.0
C234 C 0.42967 0.96482 0.96608 0.0
C235 C 0.40777 1.00202 0.98543 0.0
C236 C 0.39162 0.89672 0.96526 0.0
C237 C 0.34354 0.97128 0.99979 0.0
C238 C 0.30423 0.90333 0.998 0.0
C239 C 0.29448 0.79696 0.98528 0.0
C240 C 0.32246 0.75971 0.97225 0.0
C241 C 0.32911 0.86542 0.98232 0.0
C242 C 0.38316 0.79139 0.9537 0.0
C243 C 0.41725 0.85929 0.95003 0.0
H244 H 0.27049 0.60618 0.60789 0.0
H245 H 0.30815 0.48483 0.67927 0.0
H246 H 0.19018 0.41285 0.68947 0.0
H247 H 0.07677 0.39336 0.68384 0.0
H248 H 0.04098 0.51274 0.60929 0.0
H249 H 0.15698 0.57516 0.59414 0.0
C250 C 0.25264 0.56295 0.62492 0.0
C251 C 0.2976 0.55074 0.64285 0.0
C252 C 0.18491 0.52164 0.6304 0.0
C253 C 0.27423 0.49472 0.6649 0.0
C254 C 0.2068 0.45393 0.67098 0.0
C255 C 0.0941 0.43202 0.66369 0.0
C256 C 0.04978 0.44889 0.64846 0.0
C257 C 0.16161 0.46807 0.65472 0.0
C258 C 0.07351 0.49886 0.62202 0.0
C259 C 0.1402 0.53503 0.6133 0.0
H260 H 0.4383 0.64156 0.31446 0.0
H261 H 0.59983 0.83858 0.31676 0.0
H262 H 0.67667 0.79663 0.3233 0.0
H263 H 0.69692 0.70162 0.33026 0.0
H264 H 0.53133 0.50639 0.32478 0.0
H265 H 0.4579 0.54989 0.31808 0.0
C266 C 0.49038 0.67543 0.31625 0.0
C267 C 0.51323 0.74286 0.31532 0.0
C268 C 0.53386 0.65115 0.31971 0.0
C269 C 0.58098 0.7862 0.31724 0.0
C270 C 0.6249 0.76223 0.32121 0.0
C271 C 0.64487 0.66901 0.32747 0.0
C272 C 0.6201 0.60088 0.32781 0.0
C273 C 0.60185 0.69451 0.32282 0.0
C274 C 0.55228 0.55909 0.32414 0.0
C275 C 0.5098 0.58377 0.32041 0.0
H276 H 1.00411 0.45479 0.04271 0.0
H277 H 1.01225 0.3107 0.97453 0.0
H278 H 0.89316 0.24173 0.98091 0.0
H279 H 0.78681 0.23194 0.99766 0.0
H280 H 0.77948 0.38142 0.06172 0.0
H281 H 0.89872 0.43933 0.06484 0.0
C282 C 0.97996 0.40758 0.02982 0.0
C283 C 1.01666 0.38823 0.00771 0.0
C284 C 0.91168 0.37014 0.03216 0.0
C285 C 0.9851 0.32664 0.99168 0.0
C286 C 0.91695 0.2877 0.99495 0.0
C287 C 0.81111 0.27687 0.01265 0.0
C288 C 0.77424 0.30307 0.02882 0.0
C289 C 0.87967 0.31051 0.01374 0.0
C290 C 0.80662 0.36075 0.04854 0.0
C291 C 0.87477 0.39378 0.05041 0.0
H292 H 0.59894 0.58714 0.7161 0.0
H293 H 0.75018 0.7392 0.64963 0.0
H294 H 0.82031 0.69031 0.65803 0.0
H295 H 0.83216 0.59562 0.67736 0.0
H296 H 0.67477 0.43816 0.73765 0.0
H297 H 0.61375 0.49793 0.73891 0.0
C298 C 0.64781 0.61068 0.70405 0.0
C299 C 0.66903 0.66685 0.68212 0.0
C300 C 0.68656 0.58068 0.70765 0.0
C301 C 0.73244 0.696 0.66658 0.0
C302 C 0.77246 0.6678 0.67122 0.0
C303 C 0.78531 0.5755 0.69158 0.0
C304 C 0.75805 0.51303 0.70776 0.0
C305 C 0.74917 0.6089 0.6907 0.0
C306 C 0.69665 0.48639 0.72529 0.0
C307 C 0.66173 0.52042 0.72584 0.0
H308 H 0.48784 0.24897 0.31731 0.0
H309 H 0.5795 0.2361 0.41336 0.0
H310 H 0.51592 0.11644 0.41215 0.0
H311 H 0.44718 1.01717 0.37907 0.0
H312 H 0.36215 0.02952 0.27995 0.0
H313 H 0.40875 0.14748 0.2874 0.0
C314 C 0.492 0.21962 0.33852 0.0
C315 C 0.53715 0.25053 0.36572 0.0
C316 C 0.45713 0.15096 0.33678 0.0
C317 C 0.54409 0.2128 0.39258 0.0
C318 C 0.50818 0.14459 0.39168 0.0
C319 C 0.43773 0.04531 0.35934 0.0
C320 C 0.40198 1.01448 0.32868 0.0
C321 C 0.46641 0.11325 0.3632 0.0
C322 C 0.38967 0.05183 0.30371 0.0
C323 C 0.41671 0.11945 0.30784 0.0
H324 H 0.66697 0.35277 0.1186 0.0
H325 H 0.45995 0.23456 0.14143 0.0
H326 H 0.47518 0.2737 0.20295 0.0
H327 H 0.54757 0.33574 0.25061 0.0
H328 H 0.75626 0.44744 0.23041 0.0
H329 H 0.74052 0.41645 0.16724 0.0
C330 C 0.62541 0.3367 0.13708 0.0
C331 C 0.56249 0.29163 0.12595 0.0
C332 C 0.63496 0.35753 0.17269 0.0
C333 C 0.50871 0.26953 0.14984 0.0
C334 C 0.51742 0.2917 0.18486 0.0
C335 C 0.58968 0.3539 0.23237 0.0
C336 C 0.65294 0.39388 0.245 0.0
C337 C 0.58039 0.33481 0.19666 0.0
C338 C 0.70708 0.4163 0.22119 0.0
C339 C 0.69809 0.39877 0.18515 0.0
H340 H 0.64145 0.1715 0.90203 0.0
H341 H 0.60955 0.33713 0.90952 0.0
H342 H 0.65012 0.36924 0.84768 0.0
H343 H 0.7015 0.35407 0.7929 0.0
H344 H 0.74229 0.19391 0.78805 0.0
H345 H 0.69118 0.15555 0.84738 0.0
C346 C 0.64242 0.21405 0.88995 0.0
C347 C 0.62219 0.25171 0.91019 0.0
C348 C 0.66789 0.23342 0.85495 0.0
C349 C 0.62489 0.30741 0.89441 0.0
C350 C 0.64815 0.3258 0.85912 0.0
C351 C 0.69839 0.31033 0.80473 0.0
C352 C 0.72538 0.2767 0.7862 0.0
C353 C 0.67078 0.28977 0.83933 0.0
C354 C 0.72205 0.2207 0.80194 0.0
C355 C 0.6928 0.19873 0.83581 0.0
H356 H 0.83327 0.52045 0.4647 0.0
H357 H 0.69766 0.31718 0.44517 0.0
H358 H 0.70556 0.28921 0.50727 0.0
H359 H 0.74664 0.3242 0.56831 0.0
H360 H 0.88236 0.5288 0.58582 0.0
H361 H 0.87834 0.554 0.52352 0.0
C362 C 0.80583 0.46992 0.47389 0.0
C363 C 0.76484 0.42118 0.45049 0.0
C364 C 0.81004 0.4543 0.50948 0.0
C365 C 0.7299 0.35576 0.46273 0.0
C366 C 0.73403 0.33972 0.49828 0.0
C367 C 0.77531 0.37414 0.55841 0.0
C368 C 0.81389 0.42436 0.58195 0.0
C369 C 0.77317 0.38884 0.52211 0.0
C370 C 0.85148 0.48891 0.56856 0.0
C371 C 0.84951 0.50368 0.5328 0.0
H372 H 0.29044 0.6337 0.86301 0.0
H373 H 0.40045 0.53804 0.89066 0.0
H374 H 0.46034 0.57209 0.83287 0.0
H375 H 0.4755 0.62294 0.77286 0.0
H376 H 0.3713 0.72585 0.74744 0.0
H377 H 0.31557 0.69616 0.80622 0.0
C378 C 0.32795 0.62087 0.85634 0.0
C379 C 0.34068 0.58277 0.8805 0.0
C380 C 0.36315 0.6421 0.82364 0.0
C381 C 0.38994 0.56716 0.8722 0.0
C382 C 0.42396 0.58652 0.83922 0.0
C383 C 0.44138 0.63971 0.78053 0.0
C384 C 0.42719 0.67622 0.75591 0.0
C385 C 0.41024 0.62317 0.81452 0.0
C386 C 0.38331 0.69813 0.76608 0.0
C387 C 0.35107 0.6807 0.79955 0.0
H388 H 0.37533 0.71991 0.54755 0.0
H389 H 0.57943 0.86627 0.53614 0.0
H390 H 0.56215 0.89064 0.47527 0.0
H391 H 0.49187 0.86537 0.42394 0.0
H392 H 0.2886 0.71613 0.43335 0.0
H393 H 0.3027 0.69872 0.4964 0.0
C394 C 0.41577 0.75769 0.53187 0.0
C395 C 0.47864 0.79091 0.54637 0.0
C396 C 0.40581 0.77084 0.49645 0.0
C397 C 0.53063 0.83952 0.52561 0.0
C398 C 0.52084 0.8536 0.49075 0.0
C399 C 0.45029 0.82944 0.43976 0.0
C400 C 0.3894 0.79178 0.42372 0.0
C401 C 0.45901 0.81874 0.47569 0.0
C402 C 0.33618 0.74565 0.44488 0.0
C403 C 0.34423 0.7355 0.48094 0.0
H404 H 0.33102 0.6083 0.10145 0.0
H405 H 0.13948 0.59009 0.09154 0.0
H406 H 0.14273 0.62639 0.15239 0.0
H407 H 0.20171 0.66999 0.20758 0.0
H408 H 0.38969 0.6829 0.22071 0.0
H409 H 0.38587 0.6418 0.15999 0.0
C410 C 0.28989 0.61175 0.11277 0.0
C411 C 0.2355 0.59687 0.0916 0.0
C412 C 0.29131 0.63196 0.14847 0.0
C413 C 0.18221 0.60107 0.10693 0.0
C414 C 0.18389 0.62212 0.14186 0.0
C415 C 0.24143 0.66304 0.19723 0.0
C416 C 0.29587 0.67954 0.21834 0.0
C417 C 0.23846 0.63863 0.16268 0.0
C418 C 0.34693 0.66993 0.20489 0.0
C419 C 0.34497 0.64689 0.17011 0.0
loop_
_geom_bond_atom_site_label_1
_geom_bond_atom_site_label_2
_geom_bond_distance
_geom_bond_site_symmetry_2
_ccdc_geom_bond_type
Fe0 O2 1.918 . S
Fe0 O5 1.997 . S
Fe0 O6 2.002 . S
Fe0 O11 1.976 . S
Fe0 O14 1.996 . S
Fe1 O2 1.918 . S
Fe1 O9 1.997 . S
Fe1 O12 1.996 1_554 S
Fe1 O16 1.976 1_554 S
Fe1 O19 2.002 . S
O2 Fe0 1.918 . S
O2 Fe1 1.918 . S
O2 Fe3 1.918 . S
Fe3 O2 1.918 . S
Fe3 O4 2.002 . S
Fe3 O13 1.976 . S
Fe3 O17 1.996 1_554 S
Fe3 O20 1.997 . S
O4 Fe3 2.002 . S
O4 C21 1.295 . S
O5 Fe0 1.997 . S
O5 C21 1.235 . S
O6 Fe0 2.002 . S
O6 C7 1.295 . S
C7 O6 1.295 . S
C7 O9 1.235 . S
C8 O13 1.287 . S
C8 O14 1.255 . S
O9 Fe1 1.997 . S
O9 C7 1.235 . S
C10 O16 1.287 . S
C10 O17 1.255 . S
O11 Fe0 1.976 . S
O11 C18 1.287 . S
O12 Fe1 1.996 1_556 S
O12 C18 1.255 1_556 S
O13 Fe3 1.976 . S
O13 C8 1.287 . S
O14 Fe0 1.996 . S
O14 C8 1.255 . S
C15 O19 1.295 . S
C15 O20 1.235 . S
O16 Fe1 1.976 1_556 S
O16 C10 1.287 . S
O17 Fe3 1.996 1_556 S
O17 C10 1.255 . S
C18 O11 1.287 . S
C18 O12 1.255 1_554 S
O19 Fe1 2.002 . S
O19 C15 1.295 . S
O20 Fe3 1.997 . S
O20 C15 1.235 . S
C21 O4 1.295 . S
C21 O5 1.235 . S
Fe22 O24 1.918 . S
Fe22 O27 1.997 . S
Fe22 O28 2.002 . S
Fe22 O33 1.976 . S
Fe22 O36 1.996 . S
Fe23 O24 1.918 . S
Fe23 O31 1.997 . S
Fe23 O34 1.996 . S
Fe23 O38 1.976 . S
Fe23 O41 2.002 . S
O24 Fe22 1.918 . S
O24 Fe23 1.918 . S
O24 Fe25 1.918 . S
Fe25 O24 1.918 . S
Fe25 O26 2.002 . S
Fe25 O35 1.976 . S
Fe25 O39 1.996 . S
Fe25 O42 1.997 . S
O26 Fe25 2.002 . S
O26 C43 1.295 . S
O27 Fe22 1.997 . S
O27 C43 1.235 . S
O28 Fe22 2.002 . S
O28 C29 1.295 . S
C29 O28 1.295 . S
C29 O31 1.235 . S
C30 O35 1.287 . S
C30 O36 1.255 . S
O31 Fe23 1.997 . S
O31 C29 1.235 . S
C32 O38 1.287 . S
C32 O39 1.255 . S
O33 Fe22 1.976 . S
O33 C40 1.287 . S
O34 Fe23 1.996 . S
O34 C40 1.255 . S
O35 Fe25 1.976 . S
O35 C30 1.287 . S
O36 Fe22 1.996 . S
O36 C30 1.255 . S
C37 O41 1.295 . S
C37 O42 1.235 . S
O38 Fe23 1.976 . S
O38 C32 1.287 . S
O39 Fe25 1.996 . S
O39 C32 1.255 . S
C40 O33 1.287 . S
C40 O34 1.255 . S
O41 Fe23 2.002 . S
O41 C37 1.295 . S
O42 Fe25 1.997 . S
O42 C37 1.235 . S
C43 O26 1.295 . S
C43 O27 1.235 . S
Fe44 O46 1.918 . S
Fe44 O49 1.997 . S
Fe44 O50 2.002 . S
Fe44 O55 1.976 . S
Fe44 O58 1.996 . S
Fe45 O46 1.918 . S
Fe45 O53 1.997 . S
Fe45 O56 1.996 . S
Fe45 O60 1.976 . S
Fe45 O63 2.002 . S
O46 Fe44 1.918 . S
O46 Fe45 1.918 . S
O46 Fe47 1.918 . S
Fe47 O46 1.918 . S
Fe47 O48 2.002 . S
Fe47 O57 1.976 . S
Fe47 O61 1.996 . S
Fe47 O64 1.997 . S
O48 Fe47 2.002 . S
O48 C65 1.295 . S
O49 Fe44 1.997 . S
O49 C65 1.235 . S
O50 Fe44 2.002 . S
O50 C51 1.295 . S
C51 O50 1.295 . S
C51 O53 1.235 . S
C52 O57 1.287 . S
C52 O58 1.255 . S
O53 Fe45 1.997 . S
O53 C51 1.235 . S
C54 O60 1.287 . S
C54 O61 1.255 . S
O55 Fe44 1.976 . S
O55 C62 1.287 . S
O56 Fe45 1.996 . S
O56 C62 1.255 . S
O57 Fe47 1.976 . S
O57 C52 1.287 . S
O58 Fe44 1.996 . S
O58 C52 1.255 . S
C59 O63 1.295 . S
C59 O64 1.235 . S
O60 Fe45 1.976 . S
O60 C54 1.287 . S
O61 Fe47 1.996 . S
O61 C54 1.255 . S
C62 O55 1.287 . S
C62 O56 1.255 . S
O63 Fe45 2.002 . S
O63 C59 1.295 . S
O64 Fe47 1.997 . S
O64 C59 1.235 . S
C65 O48 1.295 . S
C65 O49 1.235 . S
Fe66 O68 1.918 . S
Fe66 O71 1.997 . S
Fe66 O72 2.002 . S
Fe66 O77 1.976 . S
Fe66 O80 1.996 1_556 S
Fe67 O68 1.918 . S
Fe67 O75 1.997 . S
Fe67 O78 1.996 . S
Fe67 O82 1.976 . S
Fe67 O85 2.002 . S
O68 Fe66 1.918 . S
O68 Fe67 1.918 . S
O68 Fe69 1.918 . S
Fe69 O68 1.918 . S
Fe69 O70 2.002 . S
Fe69 O79 1.976 1_556 S
Fe69 O83 1.996 1_556 S
Fe69 O86 1.997 . S
O70 Fe69 2.002 . S
O70 C87 1.295 . S
O71 Fe66 1.997 . S
O71 C87 1.235 . S
O72 Fe66 2.002 . S
O72 C73 1.295 . S
C73 O72 1.295 . S
C73 O75 1.235 . S
C74 O79 1.287 . S
C74 O80 1.255 . S
O75 Fe67 1.997 . S
O75 C73 1.235 . S
C76 O82 1.287 . S
C76 O83 1.255 1_556 S
O77 Fe66 1.976 . S
O77 C84 1.287 . S
O78 Fe67 1.996 . S
O78 C84 1.255 . S
O79 Fe69 1.976 1_554 S
O79 C74 1.287 . S
O80 Fe66 1.996 1_554 S
O80 C74 1.255 . S
C81 O85 1.295 . S
C81 O86 1.235 . S
O82 Fe67 1.976 . S
O82 C76 1.287 . S
O83 Fe69 1.996 1_554 S
O83 C76 1.255 1_554 S
C84 O77 1.287 . S
C84 O78 1.255 . S
O85 Fe67 2.002 . S
O85 C81 1.295 . S
O86 Fe69 1.997 . S
O86 C81 1.235 . S
C87 O70 1.295 . S
C87 O71 1.235 . S
Fe88 O90 1.918 . S
Fe88 O93 1.997 . S
Fe88 O94 2.002 . S
Fe88 O99 1.976 . S
Fe88 O102 1.996 . S
Fe89 O90 1.918 . S
Fe89 O97 1.997 . S
Fe89 O100 1.996 . S
Fe89 O104 1.976 . S
Fe89 O107 2.002 . S
O90 Fe88 1.918 . S
O90 Fe89 1.918 . S
O90 Fe91 1.918 . S
Fe91 O90 1.918 . S
Fe91 O92 2.002 . S
Fe91 O101 1.976 . S
Fe91 O105 1.996 . S
Fe91 O108 1.997 . S
O92 Fe91 2.002 . S
O92 C109 1.295 . S
O93 Fe88 1.997 . S
O93 C109 1.235 . S
O94 Fe88 2.002 . S
O94 C95 1.295 . S
C95 O94 1.295 . S
C95 O97 1.235 . S
C96 O101 1.287 . S
C96 O102 1.255 . S
O97 Fe89 1.997 . S
O97 C95 1.235 . S
C98 O104 1.287 . S
C98 O105 1.255 . S
O99 Fe88 1.976 . S
O99 C106 1.287 . S
O100 Fe89 1.996 . S
O100 C106 1.255 . S
O101 Fe91 1.976 . S
O101 C96 1.287 . S
O102 Fe88 1.996 . S
O102 C96 1.255 . S
C103 O107 1.295 . S
C103 O108 1.235 . S
O104 Fe89 1.976 . S
O104 C98 1.287 . S
O105 Fe91 1.996 . S
O105 C98 1.255 . S
C106 O99 1.287 . S
C106 O100 1.255 . S
O107 Fe89 2.002 . S
O107 C103 1.295 . S
O108 Fe91 1.997 . S
O108 C103 1.235 . S
C109 O92 1.295 . S
C109 O93 1.235 . S
Fe110 O112 1.918 . S
Fe110 O115 1.997 . S
Fe110 O116 2.002 . S
Fe110 O121 1.976 . S
Fe110 O124 1.996 . S
Fe111 O112 1.918 . S
Fe111 O119 1.997 . S
Fe111 O122 1.996 . S
Fe111 O126 1.976 . S
Fe111 O129 2.002 . S
O112 Fe110 1.918 . S
O112 Fe111 1.918 . S
O112 Fe113 1.918 . S
Fe113 O112 1.918 . S
Fe113 O114 2.002 . S
Fe113 O123 1.976 . S
Fe113 O127 1.996 . S
Fe113 O130 1.997 . S
O114 Fe113 2.002 . S
O114 C131 1.295 . S
O115 Fe110 1.997 . S
O115 C131 1.235 . S
O116 Fe110 2.002 . S
O116 C117 1.295 . S
C117 O116 1.295 . S
C117 O119 1.235 . S
C118 O123 1.287 . S
C118 O124 1.255 . S
O119 Fe111 1.997 . S
O119 C117 1.235 . S
C120 O126 1.287 . S
C120 O127 1.255 . S
O121 Fe110 1.976 . S
O121 C128 1.287 . S
O122 Fe111 1.996 . S
O122 C128 1.255 . S
O123 Fe113 1.976 . S
O123 C118 1.287 . S
O124 Fe110 1.996 . S
O124 C118 1.255 . S
C125 O129 1.295 . S
C125 O130 1.235 . S
O126 Fe111 1.976 . S
O126 C120 1.287 . S
O127 Fe113 1.996 . S
O127 C120 1.255 . S
C128 O121 1.287 . S
C128 O122 1.255 . S
O129 Fe111 2.002 . S
O129 C125 1.295 . S
O130 Fe113 1.997 . S
O130 C125 1.235 . S
C131 O114 1.295 . S
C131 O115 1.235 . S
H132 C138 0.930 . S
H133 C141 0.930 . S
H134 C142 0.930 . S
H135 C143 0.930 . S
H136 C146 0.930 . S
H137 C147 0.930 . S
C138 H132 0.930 . S
C138 C139 1.355 1_554 S
C138 C140 1.415 . S
C139 C138 1.355 1_556 S
C139 C141 1.419 . S
C140 C138 1.415 . S
C140 C145 1.425 1_554 S
C140 C147 1.409 . S
C141 H133 0.930 . S
C141 C139 1.419 . S
C141 C142 1.362 . S
C142 H134 0.930 . S
C142 C141 1.362 . S
C142 C145 1.409 . S
C143 H135 0.930 . S
C143 C144 1.355 1_556 S
C143 C145 1.415 . S
C144 C143 1.355 1_554 S
C144 C146 1.419 . S
C145 C140 1.425 1_556 S
C145 C142 1.409 . S
C145 C143 1.415 . S
C146 H136 0.930 . S
C146 C144 1.419 . S
C146 C147 1.362 . S
C147 H137 0.930 . S
C147 C140 1.409 . S
C147 C146 1.362 . S
H148 C154 0.930 . S
H149 C157 0.930 . S
H150 C158 0.930 . S
H151 C159 0.930 . S
H152 C162 0.930 . S
H153 C163 0.930 . S
C154 H148 0.930 . S
C154 C155 1.355 . S
C154 C156 1.415 . S
C155 C154 1.355 . S
C155 C157 1.419 . S
C156 C154 1.415 . S
C156 C161 1.425 1_545 S
C156 C163 1.409 1_545 S
C157 H149 0.930 . S
C157 C155 1.419 . S
C157 C158 1.362 . S
C158 H150 0.930 . S
C158 C157 1.362 . S
C158 C161 1.409 1_545 S
C159 H151 0.930 . S
C159 C160 1.355 . S
C159 C161 1.415 . S
C160 C159 1.355 . S
C160 C162 1.419 . S
C161 C156 1.425 1_565 S
C161 C158 1.409 1_565 S
C161 C159 1.415 . S
C162 H152 0.930 . S
C162 C160 1.419 . S
C162 C163 1.362 . S
C163 H153 0.930 . S
C163 C156 1.409 1_565 S
C163 C162 1.362 . S
H164 C170 0.930 . S
H165 C173 0.930 . S
H166 C174 0.930 . S
H167 C175 0.930 . S
H168 C178 0.930 . S
H169 C179 0.930 . S
C170 H164 0.930 . S
C170 C171 1.355 . S
C170 C172 1.415 . S
C171 C170 1.355 . S
C171 C173 1.419 . S
C172 C170 1.415 . S
C172 C177 1.425 1_455 S
C172 C179 1.409 1_455 S
C173 H165 0.930 . S
C173 C171 1.419 . S
C173 C174 1.362 . S
C174 H166 0.930 . S
C174 C173 1.362 . S
C174 C177 1.409 1_455 S
C175 H167 0.930 . S
C175 C176 1.355 . S
C175 C177 1.415 . S
C176 C175 1.355 . S
C176 C178 1.419 . S
C177 C172 1.425 1_655 S
C177 C174 1.409 1_655 S
C177 C175 1.415 . S
C178 H168 0.930 . S
C178 C176 1.419 . S
C178 C179 1.362 . S
C179 H169 0.930 . S
C179 C172 1.409 1_655 S
C179 C178 1.362 . S
H180 C186 0.916 1_545 S
H181 C189 0.930 . S
H182 C190 0.930 . S
H183 C191 0.916 1_565 S
H184 C194 0.930 . S
H185 C195 0.930 . S
C186 H180 0.916 1_565 S
C186 C187 1.374 . S
C186 C188 1.409 1_565 S
C187 C186 1.374 . S
C187 C189 1.419 . S
C188 C186 1.409 1_545 S
C188 C193 1.425 1_545 S
C188 C195 1.409 . S
C189 H181 0.930 . S
C189 C187 1.419 . S
C189 C190 1.362 . S
C190 H182 0.930 . S
C190 C189 1.362 . S
C190 C193 1.409 . S
C191 H183 0.916 1_545 S
C191 C192 1.374 . S
C191 C193 1.409 1_545 S
C192 C191 1.374 . S
C192 C194 1.419 . S
C193 C188 1.425 1_565 S
C193 C190 1.409 . S
C193 C191 1.409 1_565 S
C194 H184 0.930 . S
C194 C192 1.419 . S
C194 C195 1.362 . S
C195 H185 0.930 . S
C195 C188 1.409 . S
C195 C194 1.362 . S
H196 C202 0.930 . S
H197 C205 0.930 . S
H198 C206 0.930 . S
H199 C207 0.930 . S
H200 C210 0.930 . S
H201 C211 0.930 . S
C202 H196 0.930 . S
C202 C203 1.355 . S
C202 C204 1.415 . S
C203 C202 1.355 . S
C203 C205 1.419 1_655 S
C204 C202 1.415 . S
C204 C209 1.425 1_655 S
C204 C211 1.409 . S
C205 H197 0.930 . S
C205 C203 1.419 1_455 S
C205 C206 1.362 . S
C206 H198 0.930 . S
C206 C205 1.362 . S
C206 C209 1.409 . S
C207 H199 0.930 . S
C207 C208 1.355 . S
C207 C209 1.415 . S
C208 C207 1.355 . S
C208 C210 1.419 1_455 S
C209 C204 1.425 1_455 S
C209 C206 1.409 . S
C209 C207 1.415 . S
C210 H200 0.930 . S
C210 C208 1.419 1_655 S
C210 C211 1.362 . S
C211 H201 0.930 . S
C211 C204 1.409 . S
C211 C210 1.362 . S
H212 C218 0.930 . S
H213 C221 0.930 . S
H214 C222 0.930 . S
H215 C223 0.930 . S
H216 C226 0.930 . S
H217 C227 0.930 . S
C218 H212 0.930 . S
C218 C219 1.355 . S
C218 C220 1.415 . S
C219 C218 1.355 . S
C219 C221 1.419 . S
C220 C218 1.415 . S
C220 C225 1.425 . S
C220 C227 1.409 . S
C221 H213 0.930 . S
C221 C219 1.419 . S
C221 C222 1.362 . S
C222 H214 0.930 . S
C222 C221 1.362 . S
C222 C225 1.409 . S
C223 H215 0.930 . S
C223 C224 1.355 . S
C223 C225 1.415 . S
C224 C223 1.355 . S
C224 C226 1.419 . S
C225 C220 1.425 . S
C225 C222 1.409 . S
C225 C223 1.415 . S
C226 H216 0.930 . S
C226 C224 1.419 . S
C226 C227 1.362 . S
C227 H217 0.930 . S
C227 C220 1.409 . S
C227 C226 1.362 . S
H228 C234 0.930 1_554 S
H229 C237 0.930 . S
H230 C238 0.930 . S
H231 C239 0.930 . S
H232 C242 0.930 . S
H233 C243 0.930 1_554 S
C234 H228 0.930 1_556 S
C234 C235 1.355 . S
C234 C236 1.415 . S
C235 C234 1.355 . S
C235 C237 1.419 . S
C236 C234 1.415 . S
C236 C241 1.425 . S
C236 C243 1.409 . S
C237 H229 0.930 . S
C237 C235 1.419 . S
C237 C238 1.362 . S
C238 H230 0.930 . S
C238 C237 1.362 . S
C238 C241 1.409 . S
C239 H231 0.930 . S
C239 C240 1.355 . S
C239 C241 1.415 . S
C240 C239 1.355 . S
C240 C242 1.419 . S
C241 C236 1.425 . S
C241 C238 1.409 . S
C241 C239 1.415 . S
C242 H232 0.930 . S
C242 C240 1.419 . S
C242 C243 1.362 . S
C243 H233 0.930 1_556 S
C243 C236 1.409 . S
C243 C242 1.362 . S
H244 C250 0.930 . S
H245 C253 0.930 . S
H246 C254 0.930 . S
H247 C255 0.930 . S
H248 C258 0.930 . S
H249 C259 0.930 . S
C250 H244 0.930 . S
C250 C251 1.355 . S
C250 C252 1.415 . S
C251 C250 1.355 . S
C251 C253 1.419 . S
C252 C250 1.415 . S
C252 C257 1.425 . S
C252 C259 1.409 . S
C253 H245 0.930 . S
C253 C251 1.419 . S
C253 C254 1.362 . S
C254 H246 0.930 . S
C254 C253 1.362 . S
C254 C257 1.409 . S
C255 H247 0.930 . S
C255 C256 1.355 . S
C255 C257 1.415 . S
C256 C255 1.355 . S
C256 C258 1.419 . S
C257 C252 1.425 . S
C257 C254 1.409 . S
C257 C255 1.415 . S
C258 H248 0.930 . S
C258 C256 1.419 . S
C258 C259 1.362 . S
C259 H249 0.930 . S
C259 C252 1.409 . S
C259 C258 1.362 . S
H260 C266 0.930 . S
H261 C269 0.930 . S
H262 C270 0.930 . S
H263 C271 0.930 . S
H264 C274 0.930 . S
H265 C275 0.930 . S
C266 H260 0.930 . S
C266 C267 1.355 . S
C266 C268 1.415 . S
C267 C266 1.355 . S
C267 C269 1.419 . S
C268 C266 1.415 . S
C268 C273 1.425 . S
C268 C275 1.409 . S
C269 H261 0.930 . S
C269 C267 1.419 . S
C269 C270 1.362 . S
C270 H262 0.930 . S
C270 C269 1.362 . S
C270 C273 1.409 . S
C271 H263 0.930 . S
C271 C272 1.355 . S
C271 C273 1.415 . S
C272 C271 1.355 . S
C272 C274 1.419 . S
C273 C268 1.425 . S
C273 C270 1.409 . S
C273 C271 1.415 . S
C274 H264 0.930 . S
C274 C272 1.419 . S
C274 C275 1.362 . S
C275 H265 0.930 . S
C275 C268 1.409 . S
C275 C274 1.362 . S
H276 C282 0.930 . S
H277 C285 0.930 . S
H278 C286 0.930 . S
H279 C287 0.930 1_556 S
H280 C290 0.930 . S
H281 C291 0.930 . S
C282 H276 0.930 . S
C282 C283 1.355 . S
C282 C284 1.415 . S
C283 C282 1.355 . S
C283 C285 1.419 1_554 S
C284 C282 1.415 . S
C284 C289 1.425 . S
C284 C291 1.409 . S
C285 H277 0.930 . S
C285 C283 1.419 1_556 S
C285 C286 1.362 . S
C286 H278 0.930 . S
C286 C285 1.362 . S
C286 C289 1.409 1_556 S
C287 H279 0.930 1_554 S
C287 C288 1.355 . S
C287 C289 1.415 . S
C288 C287 1.355 . S
C288 C290 1.419 . S
C289 C284 1.425 . S
C289 C286 1.409 1_554 S
C289 C287 1.415 . S
C290 H280 0.930 . S
C290 C288 1.419 . S
C290 C291 1.362 . S
C291 H281 0.930 . S
C291 C284 1.409 . S
C291 C290 1.362 . S
H292 C298 0.930 . S
H293 C301 0.930 . S
H294 C302 0.930 . S
H295 C303 0.930 . S
H296 C306 0.930 . S
H297 C307 0.930 . S
C298 H292 0.930 . S
C298 C299 1.355 . S
C298 C300 1.415 . S
C299 C298 1.355 . S
C299 C301 1.419 . S
C300 C298 1.415 . S
C300 C305 1.425 . S
C300 C307 1.409 . S
C301 H293 0.930 . S
C301 C299 1.419 . S
C301 C302 1.362 . S
C302 H294 0.930 . S
C302 C301 1.362 . S
C302 C305 1.409 . S
C303 H295 0.930 . S
C303 C304 1.355 . S
C303 C305 1.415 . S
C304 C303 1.355 . S
C304 C306 1.419 . S
C305 C300 1.425 . S
C305 C302 1.409 . S
C305 C303 1.415 . S
C306 H296 0.930 . S
C306 C304 1.419 . S
C306 C307 1.362 . S
C307 H297 0.930 . S
C307 C300 1.409 . S
C307 C306 1.362 . S
H308 C314 0.930 . S
H309 C317 0.930 . S
H310 C318 0.930 . S
H311 C319 0.930 . S
H312 C322 0.930 . S
H313 C323 0.930 . S
C314 H308 0.930 . S
C314 C315 1.355 . S
C314 C316 1.415 . S
C315 C314 1.355 . S
C315 C317 1.419 . S
C316 C314 1.415 . S
C316 C321 1.425 . S
C316 C323 1.409 . S
C317 H309 0.930 . S
C317 C315 1.419 . S
C317 C318 1.362 . S
C318 H310 0.930 . S
C318 C317 1.362 . S
C318 C321 1.409 . S
C319 H311 0.930 . S
C319 C320 1.355 . S
C319 C321 1.415 . S
C320 C319 1.355 . S
C320 C322 1.419 . S
C321 C316 1.425 . S
C321 C318 1.409 . S
C321 C319 1.415 . S
C322 H312 0.930 . S
C322 C320 1.419 . S
C322 C323 1.362 . S
C323 H313 0.930 . S
C323 C316 1.409 . S
C323 C322 1.362 . S
H324 C330 0.930 . S
H325 C333 0.930 . S
H326 C334 0.930 . S
H327 C335 0.930 . S
H328 C338 0.930 . S
H329 C339 0.930 . S
C330 H324 0.930 . S
C330 C331 1.355 . S
C330 C332 1.415 . S
C331 C330 1.355 . S
C331 C333 1.419 . S
C332 C330 1.415 . S
C332 C337 1.425 . S
C332 C339 1.409 . S
C333 H325 0.930 . S
C333 C331 1.419 . S
C333 C334 1.362 . S
C334 H326 0.930 . S
C334 C333 1.362 . S
C334 C337 1.409 . S
C335 H327 0.930 . S
C335 C336 1.355 . S
C335 C337 1.415 . S
C336 C335 1.355 . S
C336 C338 1.419 . S
C337 C332 1.425 . S
C337 C334 1.409 . S
C337 C335 1.415 . S
C338 H328 0.930 . S
C338 C336 1.419 . S
C338 C339 1.362 . S
C339 H329 0.930 . S
C339 C332 1.409 . S
C339 C338 1.362 . S
H340 C346 0.930 . S
H341 C349 0.930 . S
H342 C350 0.930 . S
H343 C351 0.930 . S
H344 C354 0.930 . S
H345 C355 0.930 . S
C346 H340 0.930 . S
C346 C347 1.355 . S
C346 C348 1.415 . S
C347 C346 1.355 . S
C347 C349 1.419 . S
C348 C346 1.415 . S
C348 C353 1.425 . S
C348 C355 1.409 . S
C349 H341 0.930 . S
C349 C347 1.419 . S
C349 C350 1.362 . S
C350 H342 0.930 . S
C350 C349 1.362 . S
C350 C353 1.409 . S
C351 H343 0.930 . S
C351 C352 1.355 . S
C351 C353 1.415 . S
C352 C351 1.355 . S
C352 C354 1.419 . S
C353 C348 1.425 . S
C353 C350 1.409 . S
C353 C351 1.415 . S
C354 H344 0.930 . S
C354 C352 1.419 . S
C354 C355 1.362 . S
C355 H345 0.930 . S
C355 C348 1.409 . S
C355 C354 1.362 . S
H356 C362 0.930 . S
H357 C365 0.930 . S
H358 C366 0.930 . S
H359 C367 0.930 . S
H360 C370 0.930 . S
H361 C371 0.930 . S
C362 H356 0.930 . S
C362 C363 1.355 . S
C362 C364 1.415 . S
C363 C362 1.355 . S
C363 C365 1.419 . S
C364 C362 1.415 . S
C364 C369 1.425 . S
C364 C371 1.409 . S
C365 H357 0.930 . S
C365 C363 1.419 . S
C365 C366 1.362 . S
C366 H358 0.930 . S
C366 C365 1.362 . S
C366 C369 1.409 . S
C367 H359 0.930 . S
C367 C368 1.355 . S
C367 C369 1.415 . S
C368 C367 1.355 . S
C368 C370 1.419 . S
C369 C364 1.425 . S
C369 C366 1.409 . S
C369 C367 1.415 . S
C370 H360 0.930 . S
C370 C368 1.419 . S
C370 C371 1.362 . S
C371 H361 0.930 . S
C371 C364 1.409 . S
C371 C370 1.362 . S
H372 C378 0.930 . S
H373 C381 0.930 . S
H374 C382 0.930 . S
H375 C383 0.930 . S
H376 C386 0.930 . S
H377 C387 0.930 . S
C378 H372 0.930 . S
C378 C379 1.355 . S
C378 C380 1.415 . S
C379 C378 1.355 . S
C379 C381 1.419 . S
C380 C378 1.415 . S
C380 C385 1.425 . S
C380 C387 1.409 . S
C381 H373 0.930 . S
C381 C379 1.419 . S
C381 C382 1.362 . S
C382 H374 0.930 . S
C382 C381 1.362 . S
C382 C385 1.409 . S
C383 H375 0.930 . S
C383 C384 1.355 . S
C383 C385 1.415 . S
C384 C383 1.355 . S
C384 C386 1.419 . S
C385 C380 1.425 . S
C385 C382 1.409 . S
C385 C383 1.415 . S
C386 H376 0.930 . S
C386 C384 1.419 . S
C386 C387 1.362 . S
C387 H377 0.930 . S
C387 C380 1.409 . S
C387 C386 1.362 . S
H388 C394 0.930 . S
H389 C397 0.930 . S
H390 C398 0.930 . S
H391 C399 0.930 . S
H392 C402 0.930 . S
H393 C403 0.930 . S
C394 H388 0.930 . S
C394 C395 1.355 . S
C394 C396 1.415 . S
C395 C394 1.355 . S
C395 C397 1.419 . S
C396 C394 1.415 . S
C396 C401 1.425 . S
C396 C403 1.409 . S
C397 H389 0.930 . S
C397 C395 1.419 . S
C397 C398 1.362 . S
C398 H390 0.930 . S
C398 C397 1.362 . S
C398 C401 1.409 . S
C399 H391 0.930 . S
C399 C400 1.355 . S
C399 C401 1.415 . S
C400 C399 1.355 . S
C400 C402 1.419 . S
C401 C396 1.425 . S
C401 C398 1.409 . S
C401 C399 1.415 . S
C402 H392 0.930 . S
C402 C400 1.419 . S
C402 C403 1.362 . S
C403 H393 0.930 . S
C403 C396 1.409 . S
C403 C402 1.362 . S
H404 C410 0.930 . S
H405 C413 0.930 . S
H406 C414 0.930 . S
H407 C415 0.930 . S
H408 C418 0.930 . S
H409 C419 0.930 . S
C410 H404 0.930 . S
C410 C411 1.355 . S
C410 C412 1.415 . S
C411 C410 1.355 . S
C411 C413 1.419 . S
C412 C410 1.415 . S
C412 C417 1.425 . S
C412 C419 1.409 . S
C413 H405 0.930 . S
C413 C411 1.419 . S
C413 C414 1.362 . S
C414 H406 0.930 . S
C414 C413 1.362 . S
C414 C417 1.409 . S
C415 H407 0.930 . S
C415 C416 1.355 . S
C415 C417 1.415 . S
C416 C415 1.355 . S
C416 C418 1.419 . S
C417 C412 1.425 . S
C417 C414 1.409 . S
C417 C415 1.415 . S
C418 H408 0.930 . S
C418 C416 1.419 . S
C418 C419 1.362 . S
C419 H409 0.930 . S
C419 C412 1.409 . S
C419 C418 1.362 . S
C139 C84 1.751 . S
C144 C8 1.760 . S
C155 C32 1.774 . S
C160 C106 1.757 . S
C171 C128 1.781 . S
C176 C52 1.763 . S
C187 C125 0.963 . S
C192 C7 0.987 . S
C203 C43 0.967 . S
C208 C81 0.989 . S
C219 C51 0.939 . S
C224 C103 1.015 . S
C235 C18 1.448 1_566 S
C240 C87 1.396 . S
C251 C109 1.419 . S
C256 C30 1.382 1_455 S
C267 C131 1.423 . S
C272 C62 1.381 . S
C283 C76 1.398 1_654 S
C288 C15 1.452 . S
C299 C98 1.446 . S
C304 C29 1.414 . S
C315 C59 1.415 . S
C320 C120 1.384 1_545 S
C331 C21 1.315 . S
C336 C54 1.327 . S
C347 C10 1.336 . S
C352 C37 1.317 . S
C363 C65 1.318 . S
C368 C40 1.315 . S
C379 C73 1.336 . S
C384 C96 1.313 . S
C395 C95 1.326 . S
C400 C118 1.335 . S
C411 C74 1.319 . S
C416 C117 1.317 . S
