# Generated by pormake.
# Topology vcf, (6)-cn, num edge types: 1
# Building blocks:
#     Node 0, Type 0, BuildingBlock: IZENUY_clean_sbu_0, # of connection points: 6
#     Node 1, Type 0, BuildingBlock: IZENUY_clean_sbu_0, # of connection points: 6
#     Node 2, Type 0, BuildingBlock: IZENUY_clean_sbu_0, # of connection points: 6
#     Node 3, Type 0, BuildingBlock: IZENUY_clean_sbu_0, # of connection points: 6
#     Node 4, Type 0, BuildingBlock: IZENUY_clean_sbu_0, # of connection points: 6
#     Node 5, Type 0, BuildingBlock: IZENUY_clean_sbu_0, # of connection points: 6
#     Node 6, Type 0, BuildingBlock: IZENUY_clean_sbu_0, # of connection points: 6
#     Node 7, Type 0, BuildingBlock: IZENUY_clean_sbu_0, # of connection points: 6
#     Node 8, Type 0, BuildingBlock: IZENUY_clean_sbu_0, # of connection points: 6
#     Node 9, Type 0, BuildingBlock: IZENUY_clean_sbu_0, # of connection points: 6
#     Node 10, Type 0, BuildingBlock: IZENUY_clean_sbu_0, # of connection points: 6
#     Node 11, Type 0, BuildingBlock: IZENUY_clean_sbu_0, # of connection points: 6
#     Node 12, Type 0, BuildingBlock: IZENUY_clean_sbu_0, # of connection points: 6
#     Node 13, Type 0, BuildingBlock: IZENUY_clean_sbu_0, # of connection points: 6
#     Node 14, Type 0, BuildingBlock: IZENUY_clean_sbu_0, # of connection points: 6
#     Node 15, Type 0, BuildingBlock: IZENUY_clean_sbu_0, # of connection points: 6
#     Node 16, Type 0, BuildingBlock: IZENUY_clean_sbu_0, # of connection points: 6
#     Node 17, Type 0, BuildingBlock: IZENUY_clean_sbu_0, # of connection points: 6
#     Node 18, Type 0, BuildingBlock: IZENUY_clean_sbu_0, # of connection points: 6
#     Node 19, Type 0, BuildingBlock: IZENUY_clean_sbu_0, # of connection points: 6
#     Node 20, Type 0, BuildingBlock: IZENUY_clean_sbu_0, # of connection points: 6
#     Node 21, Type 0, BuildingBlock: IZENUY_clean_sbu_0, # of connection points: 6
#     Node 22, Type 0, BuildingBlock: IZENUY_clean_sbu_0, # of connection points: 6
#     Node 23, Type 0, BuildingBlock: IZENUY_clean_sbu_0, # of connection points: 6
#     Node 24, Type 0, BuildingBlock: IZENUY_clean_sbu_0, # of connection points: 6
#     Node 25, Type 0, BuildingBlock: IZENUY_clean_sbu_0, # of connection points: 6
#     Node 26, Type 0, BuildingBlock: IZENUY_clean_sbu_0, # of connection points: 6
#     Node 27, Type 0, BuildingBlock: IZENUY_clean_sbu_0, # of connection points: 6
#     Node 28, Type 0, BuildingBlock: IZENUY_clean_sbu_0, # of connection points: 6
#     Node 29, Type 0, BuildingBlock: IZENUY_clean_sbu_0, # of connection points: 6
#     Node 30, Type 0, BuildingBlock: IZENUY_clean_sbu_0, # of connection points: 6
#     Node 31, Type 0, BuildingBlock: IZENUY_clean_sbu_0, # of connection points: 6
#     Edge 32, Type (0, 0), BuildingBlock: CIFDUS_clean_linker_0, # of connection points: 2
#     Edge 33, Type (0, 0), BuildingBlock: CIFDUS_clean_linker_0, # of connection points: 2
#     Edge 34, Type (0, 0), BuildingBlock: CIFDUS_clean_linker_0, # of connection points: 2
#     Edge 35, Type (0, 0), BuildingBlock: CIFDUS_clean_linker_0, # of connection points: 2
#     Edge 36, Type (0, 0), BuildingBlock: CIFDUS_clean_linker_0, # of connection points: 2
#     Edge 37, Type (0, 0), BuildingBlock: CIFDUS_clean_linker_0, # of connection points: 2
#     Edge 38, Type (0, 0), BuildingBlock: CIFDUS_clean_linker_0, # of connection points: 2
#     Edge 39, Type (0, 0), BuildingBlock: CIFDUS_clean_linker_0, # of connection points: 2
#     Edge 40, Type (0, 0), BuildingBlock: CIFDUS_clean_linker_0, # of connection points: 2
#     Edge 41, Type (0, 0), BuildingBlock: CIFDUS_clean_linker_0, # of connection points: 2
#     Edge 42, Type (0, 0), BuildingBlock: CIFDUS_clean_linker_0, # of connection points: 2
#     Edge 43, Type (0, 0), BuildingBlock: CIFDUS_clean_linker_0, # of connection points: 2
#     Edge 44, Type (0, 0), BuildingBlock: CIFDUS_clean_linker_0, # of connection points: 2
#     Edge 45, Type (0, 0), BuildingBlock: CIFDUS_clean_linker_0, # of connection points: 2
#     Edge 46, Type (0, 0), BuildingBlock: CIFDUS_clean_linker_0, # of connection points: 2
#     Edge 47, Type (0, 0), BuildingBlock: CIFDUS_clean_linker_0, # of connection points: 2
#     Edge 48, Type (0, 0), BuildingBlock: CIFDUS_clean_linker_0, # of connection points: 2
#     Edge 49, Type (0, 0), BuildingBlock: CIFDUS_clean_linker_0, # of connection points: 2
#     Edge 50, Type (0, 0), BuildingBlock: CIFDUS_clean_linker_0, # of connection points: 2
#     Edge 51, Type (0, 0), BuildingBlock: CIFDUS_clean_linker_0, # of connection points: 2
#     Edge 52, Type (0, 0), BuildingBlock: CIFDUS_clean_linker_0, # of connection points: 2
#     Edge 53, Type (0, 0), BuildingBlock: CIFDUS_clean_linker_0, # of connection points: 2
#     Edge 54, Type (0, 0), BuildingBlock: CIFDUS_clean_linker_0, # of connection points: 2
#     Edge 55, Type (0, 0), BuildingBlock: CIFDUS_clean_linker_0, # of connection points: 2
#     Edge 56, Type (0, 0), BuildingBlock: CIFDUS_clean_linker_0, # of connection points: 2
#     Edge 57, Type (0, 0), BuildingBlock: CIFDUS_clean_linker_0, # of connection points: 2
#     Edge 58, Type (0, 0), BuildingBlock: CIFDUS_clean_linker_0, # of connection points: 2
#     Edge 59, Type (0, 0), BuildingBlock: CIFDUS_clean_linker_0, # of connection points: 2
#     Edge 60, Type (0, 0), BuildingBlock: CIFDUS_clean_linker_0, # of connection points: 2
#     Edge 61, Type (0, 0), BuildingBlock: CIFDUS_clean_linker_0, # of connection points: 2
#     Edge 62, Type (0, 0), BuildingBlock: CIFDUS_clean_linker_0, # of connection points: 2
#     Edge 63, Type (0, 0), BuildingBlock: CIFDUS_clean_linker_0, # of connection points: 2
#     Edge 64, Type (0, 0), BuildingBlock: CIFDUS_clean_linker_0, # of connection points: 2
#     Edge 65, Type (0, 0), BuildingBlock: CIFDUS_clean_linker_0, # of connection points: 2
#     Edge 66, Type (0, 0), BuildingBlock: CIFDUS_clean_linker_0, # of connection points: 2
#     Edge 67, Type (0, 0), BuildingBlock: CIFDUS_clean_linker_0, # of connection points: 2
#     Edge 68, Type (0, 0), BuildingBlock: CIFDUS_clean_linker_0, # of connection points: 2
#     Edge 69, Type (0, 0), BuildingBlock: CIFDUS_clean_linker_0, # of connection points: 2
#     Edge 70, Type (0, 0), BuildingBlock: CIFDUS_clean_linker_0, # of connection points: 2
#     Edge 71, Type (0, 0), BuildingBlock: CIFDUS_clean_linker_0, # of connection points: 2
#     Edge 72, Type (0, 0), BuildingBlock: CIFDUS_clean_linker_0, # of connection points: 2
#     Edge 73, Type (0, 0), BuildingBlock: CIFDUS_clean_linker_0, # of connection points: 2
#     Edge 74, Type (0, 0), BuildingBlock: CIFDUS_clean_linker_0, # of connection points: 2
#     Edge 75, Type (0, 0), BuildingBlock: CIFDUS_clean_linker_0, # of connection points: 2
#     Edge 76, Type (0, 0), BuildingBlock: CIFDUS_clean_linker_0, # of connection points: 2
#     Edge 77, Type (0, 0), BuildingBlock: CIFDUS_clean_linker_0, # of connection points: 2
#     Edge 78, Type (0, 0), BuildingBlock: CIFDUS_clean_linker_0, # of connection points: 2
#     Edge 79, Type (0, 0), BuildingBlock: CIFDUS_clean_linker_0, # of connection points: 2
#     Edge 80, Type (0, 0), BuildingBlock: CIFDUS_clean_linker_0, # of connection points: 2
#     Edge 81, Type (0, 0), BuildingBlock: CIFDUS_clean_linker_0, # of connection points: 2
#     Edge 82, Type (0, 0), BuildingBlock: CIFDUS_clean_linker_0, # of connection points: 2
#     Edge 83, Type (0, 0), BuildingBlock: CIFDUS_clean_linker_0, # of connection points: 2
#     Edge 84, Type (0, 0), BuildingBlock: CIFDUS_clean_linker_0, # of connection points: 2
#     Edge 85, Type (0, 0), BuildingBlock: CIFDUS_clean_linker_0, # of connection points: 2
#     Edge 86, Type (0, 0), BuildingBlock: CIFDUS_clean_linker_0, # of connection points: 2
#     Edge 87, Type (0, 0), BuildingBlock: CIFDUS_clean_linker_0, # of connection points: 2
#     Edge 88, Type (0, 0), BuildingBlock: CIFDUS_clean_linker_0, # of connection points: 2
#     Edge 89, Type (0, 0), BuildingBlock: CIFDUS_clean_linker_0, # of connection points: 2
#     Edge 90, Type (0, 0), BuildingBlock: CIFDUS_clean_linker_0, # of connection points: 2
#     Edge 91, Type (0, 0), BuildingBlock: CIFDUS_clean_linker_0, # of connection points: 2
#     Edge 92, Type (0, 0), BuildingBlock: CIFDUS_clean_linker_0, # of connection points: 2
#     Edge 93, Type (0, 0), BuildingBlock: CIFDUS_clean_linker_0, # of connection points: 2
#     Edge 94, Type (0, 0), BuildingBlock: CIFDUS_clean_linker_0, # of connection points: 2
#     Edge 95, Type (0, 0), BuildingBlock: CIFDUS_clean_linker_0, # of connection points: 2
#     Edge 96, Type (0, 0), BuildingBlock: CIFDUS_clean_linker_0, # of connection points: 2
#     Edge 97, Type (0, 0), BuildingBlock: CIFDUS_clean_linker_0, # of connection points: 2
#     Edge 98, Type (0, 0), BuildingBlock: CIFDUS_clean_linker_0, # of connection points: 2
#     Edge 99, Type (0, 0), BuildingBlock: CIFDUS_clean_linker_0, # of connection points: 2
#     Edge 100, Type (0, 0), BuildingBlock: CIFDUS_clean_linker_0, # of connection points: 2
#     Edge 101, Type (0, 0), BuildingBlock: CIFDUS_clean_linker_0, # of connection points: 2
#     Edge 102, Type (0, 0), BuildingBlock: CIFDUS_clean_linker_0, # of connection points: 2
#     Edge 103, Type (0, 0), BuildingBlock: CIFDUS_clean_linker_0, # of connection points: 2
#     Edge 104, Type (0, 0), BuildingBlock: CIFDUS_clean_linker_0, # of connection points: 2
#     Edge 105, Type (0, 0), BuildingBlock: CIFDUS_clean_linker_0, # of connection points: 2
#     Edge 106, Type (0, 0), BuildingBlock: CIFDUS_clean_linker_0, # of connection points: 2
#     Edge 107, Type (0, 0), BuildingBlock: CIFDUS_clean_linker_0, # of connection points: 2
#     Edge 108, Type (0, 0), BuildingBlock: CIFDUS_clean_linker_0, # of connection points: 2
#     Edge 109, Type (0, 0), BuildingBlock: CIFDUS_clean_linker_0, # of connection points: 2
#     Edge 110, Type (0, 0), BuildingBlock: CIFDUS_clean_linker_0, # of connection points: 2
#     Edge 111, Type (0, 0), BuildingBlock: CIFDUS_clean_linker_0, # of connection points: 2
#     Edge 112, Type (0, 0), BuildingBlock: CIFDUS_clean_linker_0, # of connection points: 2
#     Edge 113, Type (0, 0), BuildingBlock: CIFDUS_clean_linker_0, # of connection points: 2
#     Edge 114, Type (0, 0), BuildingBlock: CIFDUS_clean_linker_0, # of connection points: 2
#     Edge 115, Type (0, 0), BuildingBlock: CIFDUS_clean_linker_0, # of connection points: 2
#     Edge 116, Type (0, 0), BuildingBlock: CIFDUS_clean_linker_0, # of connection points: 2
#     Edge 117, Type (0, 0), BuildingBlock: CIFDUS_clean_linker_0, # of connection points: 2
#     Edge 118, Type (0, 0), BuildingBlock: CIFDUS_clean_linker_0, # of connection points: 2
#     Edge 119, Type (0, 0), BuildingBlock: CIFDUS_clean_linker_0, # of connection points: 2
#     Edge 120, Type (0, 0), BuildingBlock: CIFDUS_clean_linker_0, # of connection points: 2
#     Edge 121, Type (0, 0), BuildingBlock: CIFDUS_clean_linker_0, # of connection points: 2
#     Edge 122, Type (0, 0), BuildingBlock: CIFDUS_clean_linker_0, # of connection points: 2
#     Edge 123, Type (0, 0), BuildingBlock: CIFDUS_clean_linker_0, # of connection points: 2
#     Edge 124, Type (0, 0), BuildingBlock: CIFDUS_clean_linker_0, # of connection points: 2
#     Edge 125, Type (0, 0), BuildingBlock: CIFDUS_clean_linker_0, # of connection points: 2
#     Edge 126, Type (0, 0), BuildingBlock: CIFDUS_clean_linker_0, # of connection points: 2
#     Edge 127, Type (0, 0), BuildingBlock: CIFDUS_clean_linker_0, # of connection points: 2
# Relax obj value: 0.263
# Max RMSD: 0.251
# Mean RMSD: 0.250
data_MOF--net-vcf--node1-IZENUY_clean_sbu_0--edge1-CIFDUS_clean_linker_0
_symmetry_space_group_name_H-M    P1
_symmetry_Int_Tables_number       1
_symmetry_cell_setting            triclinic
loop_
_symmetry_equiv_pos_as_xyz
'x, y, z'
_cell_length_a     36.97454
_cell_length_b     31.491216
_cell_length_c     76.608391
_cell_angle_alpha  89.942981
_cell_angle_beta   90.050981
_cell_angle_gamma 89.861277
loop_
_atom_site_label
_atom_site_type_symbol
_atom_site_fract_x
_atom_site_fract_y
_atom_site_fract_z
_atom_type_partial_charge
Fe0 Fe 0.04185 0.2722 0.07529 0.0
Fe1 Fe 0.05662 0.36612 0.06968 0.0
O2 O 0.05459 0.31406 0.06116 0.0
Fe3 Fe 0.06429 0.30431 0.03879 0.0
O4 O 0.02012 0.27967 0.03487 0.0
O5 O 0.01997 0.23967 0.05833 0.0
O6 O 0.99779 0.29666 0.07908 0.0
C7 C 0.99389 0.33404 0.08472 0.0
C8 C 0.09734 0.23602 0.05723 0.0
O9 O 0.02106 0.35805 0.08595 0.0
C10 C 0.11526 0.36563 0.04547 0.0
O11 O 0.06228 0.29606 0.09504 0.0
O12 O 0.09168 0.35147 0.08497 0.0
O13 O 0.0855 0.25222 0.04312 0.0
O14 O 0.08462 0.24621 0.07191 0.0
C15 C 0.02405 0.38162 0.03868 0.0
O16 O 0.0924 0.38467 0.05495 0.0
O17 O 0.10936 0.32807 0.04036 0.0
C18 C 0.08749 0.3232 0.09645 0.0
O19 O 0.02157 0.38321 0.05501 0.0
O20 O 0.04503 0.3553 0.03122 0.0
C21 C 1.00807 0.24798 0.04318 0.0
Fe22 Fe 0.21375 0.93513 0.03915 0.0
Fe23 Fe 0.24136 0.96555 0.07495 0.0
O24 O 0.22136 0.92545 0.06177 0.0
Fe25 Fe 0.20938 0.8753 0.0708 0.0
O26 O 0.22115 0.84604 0.0512 0.0
O27 O 0.24472 0.89262 0.03298 0.0
O28 O 0.25034 0.97307 0.03607 0.0
C29 C 0.27864 0.98062 0.04461 0.0
C30 C 0.15382 0.8825 0.04779 0.0
O31 O 0.2804 0.9711 0.06057 0.0
C32 C 0.19089 0.93268 0.09815 0.0
O33 O 0.18246 0.97771 0.04409 0.0
O34 O 0.21692 0.00865 0.06395 0.0
O35 O 0.16205 0.87976 0.0638 0.0
O36 O 0.17549 0.89954 0.03723 0.0
C37 C 0.27694 0.8899 0.08556 0.0
O38 O 0.20438 0.96468 0.0907 0.0
O39 O 0.19617 0.89572 0.09225 0.0
C40 C 0.1902 0.00936 0.05352 0.0
O41 O 0.26939 0.92876 0.08791 0.0
O42 O 0.25528 0.86553 0.07782 0.0
C43 C 0.24118 0.85479 0.03833 0.0
Fe44 Fe 0.03826 0.96043 0.213 0.0
Fe45 Fe 0.06428 0.86847 0.21749 0.0
O46 O 0.05593 0.91929 0.22639 0.0
Fe47 Fe 0.06473 0.92901 0.24874 0.0
O48 O 0.01776 0.94189 0.25274 0.0
O49 O 1.01249 0.98658 0.23085 0.0
O50 O 0.99787 0.93002 0.20855 0.0
C51 C 0.99718 0.8925 0.20284 0.0
C52 C 0.08739 0.00451 0.23205 0.0
O53 O 0.02596 0.87052 0.20207 0.0
C54 C 0.12324 0.8801 0.24143 0.0
O55 O 0.06088 0.94204 0.19262 0.0
O56 O 0.09555 0.88981 0.20173 0.0
O57 O 0.07695 0.98486 0.24554 0.0
O58 O 0.07743 0.99307 0.21701 0.0
C59 C 0.03762 0.84482 0.24888 0.0
O60 O 0.10358 0.8571 0.23166 0.0
O61 O 0.11228 0.91615 0.24631 0.0
C62 C 0.08764 0.91717 0.19035 0.0
O63 O 0.03374 0.84332 0.23259 0.0
O64 O 0.05449 0.87505 0.256 0.0
C65 C 1.00122 0.97185 0.24531 0.0
Fe66 Fe 0.21417 0.29711 0.24381 0.0
Fe67 Fe 0.24626 0.26507 0.20927 0.0
O68 O 0.22679 0.30646 0.22183 0.0
Fe69 Fe 0.22059 0.35715 0.21228 0.0
O70 O 0.24982 0.38151 0.22822 0.0
O71 O 0.22603 0.3505 0.25128 0.0
O72 O 0.25976 0.28172 0.24968 0.0
C73 C 0.27737 0.25203 0.24278 0.0
C74 C 0.15892 0.34951 0.23458 0.0
O75 O 0.26841 0.23781 0.22792 0.0
C76 C 0.19977 0.30677 0.18531 0.0
O77 O 0.19981 0.24176 0.2398 0.0
O78 O 0.20615 0.234 0.21138 0.0
O79 O 0.18029 0.37085 0.22514 0.0
O80 O 0.16768 0.31308 0.24 0.0
C81 C 0.28887 0.33144 0.19991 0.0
O82 O 0.22729 0.28369 0.1883 0.0
O83 O 0.19082 0.33584 0.19575 0.0
C84 C 0.1914 0.22376 0.22553 0.0
O85 O 0.28755 0.29477 0.20647 0.0
O86 O 0.26034 0.35331 0.19796 0.0
C87 C 0.24471 0.37983 0.24447 0.0
Fe88 Fe 0.96667 0.68134 0.99404 0.0
Fe89 Fe 0.97398 0.61897 0.96339 0.0
O90 O 0.97759 0.67133 0.97183 0.0
Fe91 Fe 0.99286 0.71321 0.95816 0.0
O92 O 0.03034 0.72577 0.97278 0.0
O93 O 0.99953 0.72378 0.99724 0.0
O94 O 1.00096 0.64402 1.00177 0.0
C95 C 1.00211 0.60569 0.99702 0.0
C96 C 0.93711 0.75126 0.97839 0.0
O97 O 0.98522 0.59304 0.98375 0.0
C98 C 0.94934 0.66943 0.9352 0.0
O99 O 0.93163 0.64086 0.9951 0.0
O100 O 0.92563 0.61575 0.96847 0.0
O101 O 0.96415 0.75318 0.96832 0.0
O102 O 0.93178 0.71933 0.98804 0.0
C103 C 0.03931 0.64529 0.94985 0.0
O104 O 0.96223 0.63529 0.94126 0.0
O105 O 0.95635 0.70451 0.94242 0.0
C106 C 0.91362 0.62042 0.98386 0.0
O107 O 0.02194 0.61784 0.9584 0.0
O108 O 0.02482 0.68036 0.94575 0.0
C109 C 0.02732 0.73455 0.98882 0.0
Fe110 Fe 0.7852 0.01653 0.96063 0.0
Fe111 Fe 0.81576 0.04714 0.99595 0.0
O112 O 0.80237 0.05771 0.97404 0.0
Fe113 Fe 0.80531 0.10939 0.96513 0.0
O114 O 0.76518 0.10383 0.95102 0.0
O115 O 0.74164 0.04288 0.95891 0.0
O116 O 0.76627 0.98445 0.97849 0.0
C117 C 0.75725 -0.00656 0.99398 0.0
C118 C 0.82742 0.06422 0.937 0.0
O119 O 0.77169 0.02458 1.00162 0.0
C120 C 0.8676 0.10657 0.98746 0.0
O121 O 0.82767 0.98878 0.96192 0.0
O122 O 0.8346 -0.00567 0.99058 0.0
O123 O 0.83619 0.09169 0.94816 0.0
O124 O 0.80104 0.03963 0.93987 0.0
C125 C 0.78017 0.12744 0.99768 0.0
O126 O 0.86114 0.06941 0.99297 0.0
O127 O 0.84498 0.12567 0.97785 0.0
C128 C 0.8428 0.97762 0.97598 0.0
O129 O 0.79937 0.0982 1.00436 0.0
O130 O 0.77511 0.12979 0.98145 0.0
C131 C 0.73783 0.08008 0.95301 0.0
Fe132 Fe 0.96778 0.10999 0.82169 0.0
Fe133 Fe 0.99206 0.01868 0.82759 0.0
O134 O 0.97389 0.05805 0.81359 0.0
Fe135 Fe 0.96231 0.04531 0.79178 0.0
O136 O 0.97537 0.09744 0.78283 0.0
O137 O 0.9978 0.1312 0.80551 0.0
O138 O 1.0076 0.1078 0.83624 0.0
C139 C 0.03606 0.08545 0.8346 0.0
C140 C 0.90709 0.10012 0.79867 0.0
O141 O 0.03409 0.04754 0.82937 0.0
C142 C 0.93722 0.97591 0.81203 0.0
O143 O 0.937 0.09145 0.83856 0.0
O144 O 0.97433 0.04227 0.84789 0.0
O145 O 0.91586 0.0627 0.79462 0.0
O146 O 0.92799 0.12245 0.80803 0.0
C147 C 0.02296 -0.00337 0.79478 0.0
O148 O 0.95082 0.98859 0.8262 0.0
O149 O 0.94682 0.99141 0.79742 0.0
C150 C 0.94669 0.06542 0.85017 0.0
O151 O 1.01317 0.98697 0.81012 0.0
O152 O 1.00787 0.02699 0.78689 0.0
C153 C 0.9931 0.12811 0.7893 0.0
Fe154 Fe 0.80916 0.62586 0.82172 0.0
Fe155 Fe 0.77797 0.71676 0.82473 0.0
O156 O 0.7984 0.67577 0.81218 0.0
Fe157 Fe 0.80759 0.68436 0.78964 0.0
O158 O 0.77631 0.64277 0.78335 0.0
O159 O 0.79811 0.59614 0.80212 0.0
O160 O 0.76284 0.61738 0.82817 0.0
C161 C 0.74126 0.64243 0.83563 0.0
C162 C 0.86657 0.63126 0.79972 0.0
O163 O 0.74902 0.68126 0.83769 0.0
C164 C 0.83143 0.758 0.80411 0.0
O165 O 0.82147 0.64715 0.8431 0.0
O166 O 0.81402 0.71621 0.84091 0.0
O167 O 0.84565 0.64754 0.78853 0.0
O168 O 0.85684 0.6291 0.81551 0.0
C169 C 0.74238 0.72997 0.79374 0.0
O170 O 0.80342 0.75888 0.8137 0.0
O171 O 0.83917 0.72606 0.79486 0.0
C172 C 0.82719 0.68435 0.84863 0.0
O173 O 0.73988 0.72154 0.80977 0.0
O174 O 0.77154 0.72308 0.78576 0.0
C175 C 0.7787 0.60516 0.78902 0.0
Fe176 Fe 0.06638 0.86873 0.56818 0.0
Fe177 Fe 0.06218 0.80824 0.53698 0.0
O178 O 0.05376 0.81882 0.55937 0.0
Fe179 Fe 0.03273 0.77939 0.57246 0.0
O180 O 1.00526 0.81704 0.58524 0.0
O181 O 0.02077 0.87976 0.57501 0.0
O182 O 0.05512 0.89762 0.54824 0.0
C183 C 0.03504 0.88841 0.53538 0.0
C184 C 0.08383 0.81105 0.59557 0.0
O185 O 0.03095 0.85034 0.53035 0.0
C186 C 0.08594 0.73579 0.55269 0.0
O187 O 0.11361 0.86273 0.56157 0.0
O188 O 0.10033 0.84439 0.53489 0.0
O189 O 0.06934 0.77942 0.58833 0.0
O190 O 0.07906 0.84821 0.5897 0.0
C191 C 0.99641 0.76487 0.54204 0.0
O192 O 0.09385 0.76685 0.54296 0.0
O193 O 0.05702 0.73541 0.56169 0.0
C194 C 0.12211 0.86062 0.54563 0.0
O195 O 0.02587 0.76929 0.53402 0.0
O196 O 0.99393 0.7755 0.55781 0.0
C197 C 0.99881 0.85622 0.58295 0.0
Fe198 Fe 0.20874 0.43967 0.54001 0.0
Fe199 Fe 0.24157 0.46953 0.57474 0.0
O200 O 0.21969 0.4296 0.56222 0.0
Fe201 Fe 0.20896 0.37944 0.57149 0.0
O202 O 0.21764 0.3507 0.55141 0.0
O203 O 0.23918 0.39762 0.53274 0.0
O204 O 0.24492 0.47865 0.53586 0.0
C205 C 0.27497 0.4841 0.54335 0.0
C206 C 0.14985 0.38709 0.55064 0.0
O207 O 0.27881 0.47416 0.55917 0.0
C208 C 0.19401 0.43661 0.59929 0.0
O209 O 0.17773 0.48108 0.54648 0.0
O210 O 0.21573 0.51316 0.56446 0.0
O211 O 0.16078 0.38412 0.56625 0.0
O212 O 0.17015 0.40343 0.5392 0.0
C213 C 0.27813 0.39347 0.58428 0.0
O214 O 0.2065 0.46873 0.5915 0.0
O215 O 0.19907 0.39962 0.59337 0.0
C216 C 0.18631 0.51244 0.55585 0.0
O217 O 0.271 0.43239 0.5869 0.0
O218 O 0.25569 0.36947 0.57688 0.0
C219 C 0.23621 0.35963 0.53805 0.0
Fe220 Fe 0.03736 0.46719 0.71098 0.0
Fe221 Fe 0.05796 0.37429 0.71718 0.0
O222 O 0.05165 0.42632 0.72535 0.0
Fe223 Fe 0.05922 0.43731 0.74776 0.0
O224 O 1.01329 0.45638 0.75096 0.0
O225 O 1.01213 0.49705 0.72768 0.0
O226 O 0.9956 0.43936 0.7064 0.0
C227 C 0.99355 0.40152 0.70118 0.0
C228 C 0.08748 0.50931 0.73024 0.0
O229 O 0.02161 0.37831 0.70078 0.0
C230 C 0.11501 0.38242 0.74226 0.0
O231 O 0.06044 0.44529 0.69146 0.0
O232 O 0.0921 0.392 0.70194 0.0
O233 O 0.07594 0.49111 0.74388 0.0
O234 O 0.07784 0.49741 0.7152 0.0
C235 C 0.0263 0.35563 0.74812 0.0
O236 O 0.0949 0.36032 0.7324 0.0
O237 O 0.10576 0.41951 0.74651 0.0
C238 C 0.08677 0.41946 0.69022 0.0
O239 O 0.02435 0.35326 0.73177 0.0
O240 O 0.04409 0.38503 0.75542 0.0
C241 C 0.99992 0.48716 0.7426 0.0
Fe242 Fe 0.20705 0.80547 0.74342 0.0
Fe243 Fe 0.23461 0.76832 0.70897 0.0
O244 O 0.22186 0.81282 0.72165 0.0
Fe245 Fe 0.22424 0.86448 0.71275 0.0
O246 O 0.25571 0.88101 0.72936 0.0
O247 O 0.22426 0.85633 0.75135 0.0
O248 O 0.25009 0.78309 0.74952 0.0
C249 C 0.26457 0.75118 0.74255 0.0
C250 C 0.15971 0.86677 0.73363 0.0
O251 O 0.25338 0.73756 0.72784 0.0
C252 C 0.19684 0.82153 0.68484 0.0
O253 O 0.1871 0.75279 0.73947 0.0
O254 O 0.19035 0.74594 0.71106 0.0
O255 O 0.185 0.88497 0.72523 0.0
O256 O 0.16326 0.82878 0.7387 0.0
C257 C 0.28756 0.82412 0.69992 0.0
O258 O 0.21845 0.79095 0.68795 0.0
O259 O 0.19297 0.85131 0.69562 0.0
C260 C 0.17584 0.73671 0.72534 0.0
O261 O 0.2795 0.78834 0.70602 0.0
O262 O 0.26409 0.85349 0.69887 0.0
C263 C 0.24819 0.88094 0.74536 0.0
Fe264 Fe 0.96416 0.18725 0.49131 0.0
Fe265 Fe 0.98323 0.13152 0.45947 0.0
O266 O 0.97929 0.18206 0.46944 0.0
Fe267 Fe 0.99065 0.22781 0.45731 0.0
O268 O 1.00563 0.259 0.47625 0.0
O269 O 1.00567 0.21413 0.49814 0.0
O270 O 0.98441 0.13667 0.49862 0.0
C271 C 1.00827 0.11282 0.49186 0.0
C272 C 0.92978 0.25542 0.47334 0.0
O273 O 0.01513 0.1142 0.4758 0.0
C274 C 0.95439 0.17769 0.43252 0.0
O275 O 0.92176 0.1608 0.48641 0.0
O276 O 0.94483 0.10755 0.47153 0.0
O277 O 0.94512 0.2475 0.45904 0.0
O278 O 0.94073 0.2385 0.48747 0.0
C279 C 0.04652 0.17492 0.44891 0.0
O280 O 0.95109 0.14584 0.44238 0.0
O281 O 0.97762 0.2059 0.43599 0.0
C282 C 0.91952 0.1232 0.48075 0.0
O283 O 0.02325 0.14598 0.4461 0.0
O284 O 0.03682 0.21012 0.45518 0.0
C285 C 0.0166 0.24831 0.4913 0.0
Fe286 Fe 0.78694 0.52275 0.45955 0.0
Fe287 Fe 0.8079 0.55573 0.49602 0.0
O288 O 0.80014 0.56473 0.4735 0.0
Fe289 Fe 0.80483 0.61643 0.46475 0.0
O290 O 0.77036 0.60967 0.44774 0.0
O291 O 0.74467 0.54953 0.45443 0.0
O292 O 0.76179 0.49335 0.47637 0.0
C293 C 0.74945 0.50373 0.4912 0.0
C294 C 0.83676 0.5702 0.43906 0.0
O295 O 0.7625 0.53499 0.49937 0.0
C296 C 0.86144 0.61304 0.48994 0.0
O297 O 0.82772 0.4934 0.46429 0.0
O298 O 0.82642 0.50192 0.49288 0.0
O299 O 0.84062 0.59899 0.45037 0.0
O300 O 0.81056 0.5442 0.44012 0.0
C301 C 0.77087 0.63535 0.49498 0.0
O302 O 0.85405 0.57559 0.49455 0.0
O303 O 0.83986 0.63374 0.48031 0.0
C304 C 0.83738 0.48223 0.47943 0.0
O305 O 0.79066 0.60834 0.50284 0.0
O306 O 0.76922 0.63608 0.47858 0.0
C307 C 0.7424 0.58678 0.44852 0.0
Fe308 Fe 0.97728 0.60056 0.32519 0.0
Fe309 Fe 0.99849 0.50608 0.3276 0.0
O310 O 0.98316 0.55019 0.31514 0.0
Fe311 Fe 0.97417 0.54419 0.29251 0.0
O312 O 1.00832 0.58314 0.2867 0.0
O313 O 0.99028 0.63038 0.30594 0.0
O314 O 0.02447 0.60182 0.33139 0.0
C315 C 0.04197 0.57324 0.33927 0.0
C316 C 0.91913 0.60213 0.30327 0.0
O317 O 0.02842 0.53695 0.34178 0.0
C318 C 0.94492 0.47147 0.30531 0.0
O319 O 0.96354 0.57958 0.34646 0.0
O320 O 0.96058 0.51058 0.34269 0.0
O321 O 0.93869 0.58431 0.29189 0.0
O322 O 0.92943 0.60386 0.31904 0.0
C323 C 0.03536 0.49063 0.2972 0.0
O324 O 0.97167 0.46789 0.3155 0.0
O325 O 0.93942 0.50508 0.29673 0.0
C326 C 0.95188 0.54356 0.35105 0.0
O327 O 0.03749 0.4972 0.31344 0.0
O328 O 1.00793 0.50275 0.28872 0.0
C329 C 1.00812 0.62068 0.29247 0.0
Fe330 Fe 0.7893 0.21769 0.32357 0.0
Fe331 Fe 0.81328 0.18262 0.28825 0.0
O332 O 0.80149 0.17396 0.31035 0.0
Fe333 Fe 0.80161 0.12192 0.31891 0.0
O334 O 0.76246 0.13085 0.33358 0.0
O335 O 0.74527 0.19625 0.32765 0.0
O336 O 0.76774 0.24807 0.30531 0.0
C337 C 0.75479 0.23414 0.29099 0.0
C338 C 0.83049 0.16486 0.3466 0.0
O339 O 0.7687 0.20249 0.28356 0.0
C340 C 0.86435 0.12446 0.29661 0.0
O341 O 0.8328 0.24138 0.32028 0.0
O342 O 0.83131 0.23624 0.29178 0.0
O343 O 0.8339 0.13536 0.33564 0.0
O344 O 0.80829 0.19513 0.34402 0.0
C345 C 0.77578 0.10464 0.2868 0.0
O346 O 0.85836 0.1623 0.29193 0.0
O347 O 0.84069 0.10403 0.30535 0.0
C348 C 0.84499 0.2512 0.30556 0.0
O349 O 0.79787 0.13088 0.28042 0.0
O350 O 0.76915 0.10476 0.30287 0.0
C351 C 0.73834 0.15974 0.33335 0.0
Fe352 Fe 0.53656 0.2746 0.5779 0.0
Fe353 Fe 0.5511 0.36892 0.57354 0.0
O354 O 0.54969 0.31745 0.56441 0.0
Fe355 Fe 0.56092 0.30929 0.54215 0.0
O356 O 0.51742 0.28524 0.53727 0.0
O357 O 0.51566 0.24349 0.56021 0.0
O358 O 0.49232 0.29842 0.58152 0.0
C359 C 0.48771 0.33521 0.58762 0.0
C360 C 0.5929 0.23913 0.56009 0.0
O361 O 0.51465 0.35955 0.58943 0.0
C362 C 0.61058 0.37046 0.54991 0.0
O363 O 0.55619 0.29734 0.59815 0.0
O364 O 0.58607 0.35282 0.58864 0.0
O365 O 0.58219 0.25673 0.54603 0.0
O366 O 0.5795 0.24883 0.57468 0.0
C367 C 0.52022 0.38665 0.54242 0.0
O368 O 0.58724 0.38887 0.55931 0.0
O369 O 0.60552 0.33287 0.54476 0.0
C370 C 0.58255 0.32302 0.59948 0.0
O371 O 0.51658 0.38694 0.55874 0.0
O372 O 0.54167 0.36068 0.53498 0.0
C373 C 0.50513 0.25289 0.54492 0.0
Fe374 Fe 0.71971 0.93863 0.53847 0.0
Fe375 Fe 0.74503 0.97883 0.57305 0.0
O376 O 0.72999 0.93411 0.5611 0.0
Fe377 Fe 0.72612 0.88478 0.5721 0.0
O378 O 0.7589 0.86064 0.55784 0.0
O379 O 0.73686 0.88522 0.53304 0.0
O380 O 0.76458 0.95972 0.53309 0.0
C381 C 0.77779 0.99284 0.53983 0.0
C382 C 0.6669 0.88191 0.548 0.0
O383 O 0.76688 0.00536 0.55459 0.0
C384 C 0.69908 0.93715 0.59714 0.0
O385 O 0.70036 0.99275 0.54055 0.0
O386 O 0.70326 0.0064 0.56883 0.0
O387 O 0.68841 0.86488 0.5588 0.0
O388 O 0.67408 0.91766 0.54132 0.0
C389 C 0.79137 0.91759 0.58482 0.0
O390 O 0.72539 0.96178 0.59405 0.0
O391 O 0.6929 0.90614 0.58717 0.0
C392 C 0.69115 0.01473 0.55378 0.0
O393 O 0.78812 0.95332 0.57753 0.0
O394 O 0.76379 0.8946 0.58726 0.0
C395 C 0.75581 0.85849 0.54151 0.0
Fe396 Fe 0.55244 0.87261 0.7124 0.0
Fe397 Fe 0.55737 0.93464 0.74319 0.0
O398 O 0.54872 0.92511 0.72068 0.0
Fe399 Fe 0.53573 0.96769 0.70675 0.0
O400 O 0.50385 0.93648 0.69372 0.0
O401 O 0.50562 0.87297 0.70571 0.0
O402 O 0.53723 0.84756 0.73241 0.0
C403 C 0.51815 0.86151 0.74478 0.0
C404 C 0.57971 0.92231 0.68439 0.0
O405 O 0.52064 0.89959 0.74977 0.0
C406 C 0.59113 0.00238 0.72824 0.0
O407 O 0.59989 0.86778 0.71908 0.0
O408 O 0.59033 0.89194 0.74553 0.0
O409 O 0.57292 0.95751 0.69158 0.0
O410 O 0.56758 0.88814 0.69068 0.0
C411 C 0.49937 0.99116 0.73659 0.0
O412 O 0.59439 0.97035 0.73809 0.0
O413 O 0.56504 0.00578 0.7176 0.0
C414 C 0.6093 0.87079 0.73493 0.0
O415 O 0.52622 0.97916 0.74546 0.0
O416 O 0.4973 0.98234 0.72054 0.0
C417 C 0.48942 0.90094 0.69688 0.0
Fe418 Fe 0.71164 0.29864 0.74572 0.0
Fe419 Fe 0.74359 0.26814 0.71087 0.0
O420 O 0.72445 0.30888 0.72389 0.0
Fe421 Fe 0.71833 0.36 0.71481 0.0
O422 O 0.74829 0.38304 0.73062 0.0
O423 O 0.72401 0.3518 0.75355 0.0
O424 O 0.75696 0.28234 0.75148 0.0
C425 C 0.77408 0.25237 0.74446 0.0
C426 C 0.65683 0.35247 0.73732 0.0
O427 O 0.76574 0.23964 0.72927 0.0
C428 C 0.69571 0.31042 0.688 0.0
O429 O 0.69714 0.24349 0.74136 0.0
O430 O 0.70338 0.23698 0.71284 0.0
O431 O 0.67858 0.37404 0.72815 0.0
O432 O 0.66513 0.31513 0.74185 0.0
C433 C 0.7866 0.33483 0.70216 0.0
O434 O 0.72424 0.28841 0.6901 0.0
O435 O 0.68747 0.33921 0.69866 0.0
C436 C 0.68921 0.22567 0.72701 0.0
O437 O 0.78509 0.29776 0.70831 0.0
O438 O 0.75785 0.35642 0.70013 0.0
C439 C 0.74288 0.38118 0.74683 0.0
Fe440 Fe 0.46821 0.68907 0.49656 0.0
Fe441 Fe 0.47192 0.62714 0.46547 0.0
O442 O 0.47694 0.67891 0.47418 0.0
Fe443 Fe 0.49129 0.72022 0.46018 0.0
O444 O 0.51471 0.75103 0.47707 0.0
O445 O 0.51345 0.71072 0.50039 0.0
O446 O 0.48551 0.63694 0.50391 0.0
C447 C 0.50491 0.60925 0.49626 0.0
C448 C 0.43776 0.75937 0.47852 0.0
O449 O 0.50635 0.60716 0.47988 0.0
C450 C 0.44245 0.6741 0.43923 0.0
O451 O 0.42213 0.66856 0.49495 0.0
O452 O 0.43574 0.6104 0.48061 0.0
O453 O 0.44982 0.74872 0.46378 0.0
O454 O 0.44926 0.74247 0.49254 0.0
C455 C 0.53604 0.65583 0.45022 0.0
O456 O 0.43713 0.64491 0.45026 0.0
O457 O 0.46977 0.69814 0.44056 0.0
C458 C 0.4145 0.63109 0.49041 0.0
O459 O 0.50786 0.63322 0.44909 0.0
O460 O 0.53391 0.69316 0.45612 0.0
C461 C 0.52661 0.74176 0.49209 0.0
Fe462 Fe 0.29055 0.02345 0.4602 0.0
Fe463 Fe 0.31677 0.05955 0.49518 0.0
O464 O 0.30857 0.06613 0.4725 0.0
Fe465 Fe 0.31732 0.11573 0.46228 0.0
O466 O 0.27005 0.12101 0.45598 0.0
O467 O 0.26304 0.05675 0.44566 0.0
O468 O 0.25101 0.01937 0.47419 0.0
C469 C 0.25236 0.01213 0.49038 0.0
C470 C 0.33957 0.05553 0.43677 0.0
O471 O 0.28045 0.02112 0.499 0.0
C472 C 0.37508 0.1131 0.48452 0.0
O473 O 0.31457 0.98277 0.47258 0.0
O474 O 0.34917 0.0172 0.49119 0.0
O475 O 0.33018 0.09276 0.44113 0.0
O476 O 0.32879 0.02375 0.44532 0.0
C477 C 0.28723 0.13906 0.49467 0.0
O478 O 0.3546 0.09653 0.49584 0.0
O479 O 0.36518 0.11531 0.46867 0.0
C480 C 0.34181 0.98414 0.48258 0.0
O481 O 0.2849 0.10165 0.50058 0.0
O482 O 0.30593 0.14714 0.48132 0.0
C483 C 0.25089 0.09375 0.44828 0.0
Fe484 Fe 0.49159 0.01278 0.32358 0.0
Fe485 Fe 0.47144 0.04974 0.28796 0.0
O486 O 0.48022 0.0569 0.31042 0.0
Fe487 Fe 0.47792 0.10824 0.31948 0.0
O488 O 0.51471 0.09911 0.33552 0.0
O489 O 0.53457 0.03515 0.32914 0.0
O490 O 0.51587 0.98405 0.3058 0.0
C491 C 0.52992 -0.00147 0.29183 0.0
C492 C 0.44632 0.06318 0.34567 0.0
O493 O 0.51677 0.03073 0.2844 0.0
C494 C 0.41842 0.10606 0.29523 0.0
O495 O 0.44925 0.98786 0.31862 0.0
O496 O 0.45369 -0.00453 0.29027 0.0
O497 O 0.44324 0.09249 0.33458 0.0
O498 O 0.4697 0.03387 0.34364 0.0
C499 C 0.50956 0.12732 0.28885 0.0
O500 O 0.42574 0.06872 0.29047 0.0
O501 O 0.4408 0.12672 0.30465 0.0
C502 C 0.44052 0.97679 0.30344 0.0
O503 O 0.48749 0.10263 0.28138 0.0
O504 O 0.51287 0.12686 0.30511 0.0
C505 C 0.53981 0.07143 0.33543 0.0
Fe506 Fe 0.29395 0.71318 0.32587 0.0
Fe507 Fe 0.32312 0.68066 0.29108 0.0
O508 O 0.30844 0.67055 0.31264 0.0
Fe509 Fe 0.30809 0.61798 0.3207 0.0
O510 O 0.26742 0.62546 0.33452 0.0
O511 O 0.24987 0.69058 0.32838 0.0
O512 O 0.27441 0.74448 0.30741 0.0
C513 C 0.26399 0.73175 0.29245 0.0
C514 C 0.33283 0.65965 0.3495 0.0
O515 O 0.27928 0.70078 0.28515 0.0
C516 C 0.37303 0.62207 0.30004 0.0
O517 O 0.33736 0.73815 0.32421 0.0
O518 O 0.34044 0.73415 0.29573 0.0
O519 O 0.33836 0.63097 0.33836 0.0
O520 O 0.31051 0.68957 0.34654 0.0
C521 C 0.28561 0.60286 0.28777 0.0
O522 O 0.36768 0.66038 0.29597 0.0
O523 O 0.34849 0.60108 0.30791 0.0
C524 C 0.35111 0.74975 0.31003 0.0
O525 O 0.30861 0.62928 0.28224 0.0
O526 O 0.27758 0.60155 0.30369 0.0
C527 C 0.24303 0.65396 0.33399 0.0
Fe528 Fe 0.53624 0.77419 0.08164 0.0
Fe529 Fe 0.55354 0.86803 0.07591 0.0
O530 O 0.55193 0.81538 0.06779 0.0
Fe531 Fe 0.56511 0.80396 0.04595 0.0
O532 O 0.52107 0.78128 0.04059 0.0
O533 O 0.51635 0.74166 0.064 0.0
O534 O 0.4923 0.7995 0.08376 0.0
C535 C 0.48731 0.83713 0.08885 0.0
C536 C 0.59309 0.7348 0.06597 0.0
O537 O 0.51388 0.86225 0.09029 0.0
C538 C 0.61614 0.8642 0.05379 0.0
O539 O 0.55373 0.79811 0.10204 0.0
O540 O 0.58476 0.85334 0.09306 0.0
O541 O 0.58413 0.75133 0.05144 0.0
O542 O 0.57889 0.74683 0.08007 0.0
C543 C 0.52847 0.88338 0.04325 0.0
O544 O 0.59294 0.88415 0.06281 0.0
O545 O 0.61022 0.82638 0.04898 0.0
C546 C 0.57861 0.82525 0.10437 0.0
O547 O 0.52265 0.88619 0.05938 0.0
O548 O 0.54863 0.85454 0.03704 0.0
C549 C 0.50679 0.75043 0.0485 0.0
Fe550 Fe 0.71528 0.43688 0.03855 0.0
Fe551 Fe 0.74142 0.46688 0.07471 0.0
O552 O 0.72573 0.42605 0.06076 0.0
Fe553 Fe 0.72156 0.37388 0.0691 0.0
O554 O 0.75418 0.35427 0.05368 0.0
O555 O 0.73065 0.38501 0.03055 0.0
O556 O 0.7604 0.45682 0.03411 0.0
C557 C 0.7749 0.48717 0.04218 0.0
C558 C 0.66166 0.38044 0.04594 0.0
O559 O 0.76446 0.49696 0.05741 0.0
C560 C 0.69496 0.41814 0.09652 0.0
O561 O 0.69789 0.49055 0.04296 0.0
O562 O 0.70032 0.49709 0.07163 0.0
O563 O 0.68374 0.35902 0.05496 0.0
O564 O 0.66929 0.41744 0.04083 0.0
C565 C 0.78667 0.40136 0.08361 0.0
O566 O 0.72059 0.44457 0.09468 0.0
O567 O 0.68875 0.39052 0.08505 0.0
C568 C 0.68849 0.50911 0.05696 0.0
O569 O 0.78403 0.4391 0.07822 0.0
O570 O 0.75883 0.3784 0.08473 0.0
C571 C 0.75002 0.35624 0.03741 0.0
Fe572 Fe 0.53482 0.46479 0.20913 0.0
Fe573 Fe 0.56097 0.37298 0.21117 0.0
O574 O 0.55366 0.42252 0.22131 0.0
Fe575 Fe 0.5649 0.42966 0.24351 0.0
O576 O 0.5189 0.4437 0.249 0.0
O577 O 0.51168 0.49014 0.22793 0.0
O578 O 0.49399 0.43504 0.20536 0.0
C579 C 0.49346 0.39903 0.19821 0.0
C580 C 0.58873 0.50397 0.22674 0.0
O581 O 0.52251 0.37822 0.196 0.0
C582 C 0.62118 0.37947 0.23461 0.0
O583 O 0.55525 0.448 0.18826 0.0
O584 O 0.59224 0.39621 0.19575 0.0
O585 O 0.57874 0.48553 0.24066 0.0
O586 O 0.57463 0.49553 0.21226 0.0
C587 C 0.53323 0.34793 0.24215 0.0
O588 O 0.60019 0.3578 0.22499 0.0
O589 O 0.61169 0.41576 0.23969 0.0
C590 C 0.58362 0.42612 0.18556 0.0
O591 O 0.52989 0.34786 0.22584 0.0
O592 O 0.55315 0.37486 0.24984 0.0
C593 C 0.50201 0.47448 0.24246 0.0
Fe594 Fe 0.7247 0.79179 0.24906 0.0
Fe595 Fe 0.74773 0.75888 0.21301 0.0
O596 O 0.73272 0.80085 0.22651 0.0
Fe597 Fe 0.72609 0.85194 0.21734 0.0
O598 O 0.75909 0.87469 0.23186 0.0
O599 O 0.73916 0.84472 0.2559 0.0
O600 O 0.77072 0.77354 0.25293 0.0
C601 C 0.78455 0.7423 0.24509 0.0
C602 C 0.66862 0.84548 0.24222 0.0
O603 O 0.77259 0.73094 0.23032 0.0
C604 C 0.6982 0.80314 0.19121 0.0
O605 O 0.70841 0.7376 0.24603 0.0
O606 O 0.7073 0.72897 0.21746 0.0
O607 O 0.68871 0.8668 0.23207 0.0
O608 O 0.67805 0.80896 0.24719 0.0
C609 C 0.79115 0.82395 0.20221 0.0
O610 O 0.72509 0.77844 0.19306 0.0
O611 O 0.69245 0.83245 0.20207 0.0
C612 C 0.69686 0.71874 0.23257 0.0
O613 O 0.78939 0.78671 0.2082 0.0
O614 O 0.76292 0.8468 0.20129 0.0
C615 C 0.75673 0.87367 0.24824 0.0
Fe616 Fe 0.46739 0.18549 0.99671 0.0
Fe617 Fe 0.46215 0.12429 0.96568 0.0
O618 O 0.47478 0.17456 0.97423 0.0
Fe619 Fe 0.495 0.21366 0.96066 0.0
O620 O 0.53446 0.21892 0.97474 0.0
O621 O 0.50445 0.2232 0.9992 0.0
O622 O 0.49817 0.14322 1.00318 0.0
C623 C 0.49431 0.10518 0.99822 0.0
C624 C 0.44474 0.25929 0.98178 0.0
O625 O 0.47384 0.09584 0.98556 0.0
C626 C 0.44345 0.1809 0.9382 0.0
O627 O 0.42875 0.15007 0.99911 0.0
O628 O 0.41511 0.13027 0.97259 0.0
O629 O 0.47159 0.25768 0.97147 0.0
O630 O 0.43637 0.22807 0.99135 0.0
C631 C 0.52924 0.13695 0.95055 0.0
O632 O 0.44901 0.14399 0.94412 0.0
O633 O 0.45751 0.21292 0.9453 0.0
C634 C 0.40696 0.13302 0.98857 0.0
O635 O 0.5077 0.11338 0.95873 0.0
O636 O 0.522 0.17575 0.9478 0.0
C637 C 0.53284 0.22978 0.99054 0.0
Fe638 Fe 0.30035 0.51796 0.96005 0.0
Fe639 Fe 0.32066 0.5537 0.99591 0.0
O640 O 0.30925 0.56223 0.97363 0.0
Fe641 Fe 0.3061 0.61427 0.96496 0.0
O642 O 0.26727 0.60193 0.95048 0.0
O643 O 0.25459 0.53525 0.95652 0.0
O644 O 0.28231 0.48386 0.97766 0.0
C645 C 0.26788 0.4936 0.99214 0.0
C646 C 0.33697 0.57403 0.93705 0.0
O647 O 0.27786 0.52674 1.00006 0.0
C648 C 0.36744 0.61858 0.98831 0.0
O649 O 0.34579 0.49869 0.9631 0.0
O650 O 0.34428 0.50311 0.99174 0.0
O651 O 0.33924 0.60341 0.94812 0.0
O652 O 0.31621 0.54279 0.93966 0.0
C653 C 0.27823 0.62915 0.99709 0.0
O654 O 0.36387 0.58068 0.99358 0.0
O655 O 0.34374 0.63554 0.9784 0.0
C656 C 0.35837 0.48885 0.97783 0.0
O657 O 0.29985 0.60279 1.00392 0.0
O658 O 0.27287 0.6296 0.98091 0.0
C659 C 0.24479 0.57141 0.95129 0.0
Fe660 Fe 0.49079 0.52129 0.82181 0.0
Fe661 Fe 0.46346 0.55864 0.78728 0.0
O662 O 0.47317 0.56454 0.80977 0.0
Fe663 Fe 0.46587 0.61388 0.82024 0.0
O664 O 0.50445 0.60813 0.83548 0.0
O665 O 0.53181 0.55012 0.82651 0.0
O666 O 0.51497 0.49677 0.80319 0.0
C667 C 0.52538 0.512 0.7887 0.0
C668 C 0.44231 0.56069 0.84577 0.0
O669 O 0.50991 0.54423 0.78233 0.0
C670 C 0.40626 0.60802 0.79614 0.0
O671 O 0.45094 0.49059 0.81753 0.0
O672 O 0.44963 0.5025 0.7892 0.0
O673 O 0.43425 0.59085 0.83562 0.0
O674 O 0.46946 0.53708 0.84265 0.0
C675 C 0.49394 0.64119 0.78967 0.0
O676 O 0.41649 0.57237 0.79058 0.0
O677 O 0.42656 0.62932 0.80631 0.0
C678 C 0.44016 0.48093 0.80244 0.0
O679 O 0.47513 0.61404 0.78151 0.0
O680 O 0.49728 0.63956 0.80593 0.0
C681 C 0.53307 0.58615 0.83364 0.0
Fe682 Fe 0.28854 0.21532 0.82558 0.0
Fe683 Fe 0.31806 0.1862 0.79 0.0
O684 O 0.3059 0.17479 0.81189 0.0
Fe685 Fe 0.31014 0.12264 0.82005 0.0
O686 O 0.27108 0.12633 0.83483 0.0
O687 O 0.24612 0.18747 0.82825 0.0
O688 O 0.26629 0.24561 0.8077 0.0
C689 C 0.25633 0.23326 0.79267 0.0
C690 C 0.33388 0.16671 0.8482 0.0
O691 O 0.27279 0.2037 0.78504 0.0
C692 C 0.37195 0.13088 0.79787 0.0
O693 O 0.32969 0.24496 0.82353 0.0
O694 O 0.33361 0.24055 0.79489 0.0
O695 O 0.34122 0.13952 0.8367 0.0
O696 O 0.308 0.19289 0.846 0.0
C697 C 0.285 0.1052 0.7877 0.0
O698 O 0.36424 0.16822 0.79315 0.0
O699 O 0.34967 0.10894 0.80659 0.0
C700 C 0.34307 0.25712 0.80928 0.0
O701 O 0.30487 0.13412 0.78144 0.0
O702 O 0.2793 0.10284 0.80386 0.0
C703 C 0.24333 0.14981 0.83363 0.0
H704 H 0.09511 0.16991 0.03476 0.0
H705 H 0.15244 0.21953 0.07931 0.0
H706 H 0.18704 0.1536 0.08177 0.0
H707 H 0.19786 0.08088 0.07255 0.0
H708 H 0.13851 0.02876 0.029 0.0
H709 H 0.10731 0.09663 0.02498 0.0
C710 C 0.11578 0.16644 0.04473 0.0
C711 C 0.12169 0.19932 0.05674 0.0
C712 C 0.13455 0.1279 0.04645 0.0
C713 C 0.14779 0.19446 0.06989 0.0
C714 C 0.16733 0.1568 0.07136 0.0
C715 C 0.17819 0.08425 0.06212 0.0
C716 C 0.17047 0.04975 0.05113 0.0
C717 C 0.16035 0.12306 0.05995 0.0
C718 C 0.1448 0.05475 0.03773 0.0
C719 C 0.12709 0.09359 0.03536 0.0
H720 H 0.17773 0.16729 0.25168 0.0
H721 H 0.15113 0.1979 0.19822 0.0
H722 H 0.11652 0.13268 0.19557 0.0
H723 H 0.09643 0.06565 0.20776 0.0
H724 H 0.12243 0.03344 0.26111 0.0
H725 H 0.15484 0.10054 0.26445 0.0
C726 C 0.16387 0.15984 0.23958 0.0
C727 C 0.16714 0.18699 0.22515 0.0
C728 C 0.14438 0.12186 0.23803 0.0
C729 C 0.14927 0.17709 0.20947 0.0
C730 C 0.12953 0.13984 0.20791 0.0
C731 C 0.10926 0.07318 0.22012 0.0
C732 C 0.10733 0.04456 0.2341 0.0
C733 C 0.12751 0.11166 0.22198 0.0
C734 C 0.12368 0.05503 0.25011 0.0
C735 C 0.14214 0.09337 0.25205 0.0
H736 H 0.93715 0.81944 0.95724 0.0
H737 H 0.88793 0.77045 1.00419 0.0
H738 H 0.85642 0.83821 1.00848 0.0
H739 H 0.84318 0.91159 0.9987 0.0
H740 H 0.89183 0.95817 0.95125 0.0
H741 H 0.9243 0.89118 0.9476 0.0
C742 C 0.91952 0.8234 0.96844 0.0
C743 C 0.91498 0.79001 0.98041 0.0
C744 C 0.90197 0.86221 0.97088 0.0
C745 C 0.89173 0.79562 0.99473 0.0
C746 C 0.87397 0.83443 0.99726 0.0
C747 C 0.86147 0.90715 0.98778 0.0
C748 C 0.86567 0.93963 0.97536 0.0
C749 C 0.87916 0.86807 0.98548 0.0
C750 C 0.88858 0.93349 0.961 0.0
C751 C 0.90688 0.89522 0.95885 0.0
H752 H 0.93188 0.91417 0.78766 0.0
H753 H 0.89071 0.95394 0.83775 0.0
H754 H 0.85376 0.88988 0.83954 0.0
H755 H 0.83447 0.82222 0.82723 0.0
H756 H 0.87786 0.78011 0.77788 0.0
H757 H 0.91308 0.84548 0.77548 0.0
C758 C 0.9145 0.9089 0.79885 0.0
C759 C 0.91369 0.93856 0.81251 0.0
C760 C 0.89411 0.87159 0.79999 0.0
C761 C 0.89165 0.9313 0.82711 0.0
C762 C 0.87061 0.89478 0.82815 0.0
C763 C 0.85152 0.82742 0.81591 0.0
C764 C 0.85347 0.79663 0.80271 0.0
C765 C 0.87187 0.86463 0.81473 0.0
C766 C 0.87604 0.80341 0.78823 0.0
C767 C 0.89603 0.84079 0.78682 0.0
H768 H 0.06561 0.65362 0.55521 0.0
H769 H 0.15913 0.73425 0.5503 0.0
H770 H 0.19897 0.67212 0.55163 0.0
H771 H 0.20702 0.5947 0.55428 0.0
H772 H 0.1132 0.51388 0.55654 0.0
H773 H 0.07349 0.57617 0.5562 0.0
C774 C 0.09472 0.65744 0.55444 0.0
C775 C 0.10958 0.6982 0.55276 0.0
C776 C 0.11729 0.62162 0.55478 0.0
C777 C 0.14723 0.70298 0.55152 0.0
C778 C 0.16996 0.66757 0.55235 0.0
C779 C 0.17788 0.59094 0.55478 0.0
C780 C 0.16287 0.55012 0.5556 0.0
C781 C 0.15529 0.62675 0.55402 0.0
C782 C 0.12515 0.54523 0.5559 0.0
C783 C 0.10252 0.58073 0.55573 0.0
H784 H 0.17082 0.67611 0.75026 0.0
H785 H 0.12875 0.71437 0.70008 0.0
H786 H 0.09815 0.64626 0.69697 0.0
H787 H 0.08688 0.57463 0.70756 0.0
H788 H 0.12878 0.5353 0.75764 0.0
H789 H 0.15662 0.60504 0.76166 0.0
C790 C 0.15421 0.66979 0.73888 0.0
C791 C 0.15186 0.69987 0.72542 0.0
C792 C 0.13756 0.63019 0.73696 0.0
C793 C 0.13079 0.69138 0.71058 0.0
C794 C 0.11359 0.65245 0.70873 0.0
C795 C 0.10241 0.58118 0.71927 0.0
C796 C 0.10635 0.54991 0.73216 0.0
C797 C 0.11762 0.62128 0.72161 0.0
C798 C 0.12575 0.55901 0.74748 0.0
C799 C 0.14144 0.59883 0.74982 0.0
H800 H 0.83897 0.41767 0.45634 0.0
H801 H 0.87643 0.45394 0.50755 0.0
H802 H 0.90511 0.38424 0.51119 0.0
H803 H 0.9218 0.3142 0.49905 0.0
H804 H 0.88387 0.27947 0.44773 0.0
H805 H 0.85219 0.34717 0.44508 0.0
C806 C 0.85363 0.41054 0.46827 0.0
C807 C 0.85613 0.44113 0.48154 0.0
C808 C 0.8694 0.37046 0.47035 0.0
C809 C 0.87447 0.43098 0.49708 0.0
C810 C 0.89068 0.39112 0.49919 0.0
C811 C 0.90583 0.32113 0.4875 0.0
C812 C 0.90502 0.29202 0.47361 0.0
C813 C 0.88843 0.36065 0.48587 0.0
C814 C 0.88477 0.30151 0.45858 0.0
C815 C 0.86693 0.34028 0.457 0.0
H816 H 0.95363 0.39572 0.3207 0.0
H817 H 0.8878 0.46129 0.28256 0.0
H818 H 0.85322 0.39605 0.27757 0.0
H819 H 0.84016 0.32135 0.28543 0.0
H820 H 0.90513 0.25923 0.32472 0.0
H821 H 0.94269 0.32244 0.32756 0.0
C822 C 0.93181 0.39603 0.31122 0.0
C823 C 0.92313 0.43333 0.30208 0.0
C824 C 0.91237 0.35895 0.30848 0.0
C825 C 0.8948 0.43294 0.28985 0.0
C826 C 0.8752 0.39569 0.28694 0.0
C827 C 0.86312 0.32164 0.29427 0.0
C828 C 0.87044 0.28617 0.30478 0.0
C829 C 0.88365 0.3586 0.29629 0.0
C830 C 0.8995 0.28652 0.3165 0.0
C831 C 0.92068 0.32255 0.3182 0.0
H832 H 0.59971 0.17884 0.53458 0.0
H833 H 0.64027 0.21621 0.58513 0.0
H834 H 0.67391 0.14994 0.5875 0.0
H835 H 0.68887 0.08032 0.57629 0.0
H836 H 0.64959 0.04061 0.52583 0.0
H837 H 0.61805 0.10884 0.52239 0.0
C838 C 0.61654 0.1727 0.54591 0.0
C839 C 0.61752 0.20227 0.55968 0.0
C840 C 0.63539 0.13393 0.54736 0.0
C841 C 0.63902 0.19382 0.57441 0.0
C842 C 0.65811 0.15588 0.57582 0.0
C843 C 0.67327 0.08627 0.56453 0.0
C844 C 0.67112 0.05511 0.55145 0.0
C845 C 0.65581 0.1254 0.56258 0.0
C846 C 0.65139 0.06394 0.53617 0.0
C847 C 0.63349 0.10298 0.53418 0.0
H848 H 0.59349 0.07067 0.70743 0.0
H849 H 0.64024 0.01894 0.75456 0.0
H850 H 0.67318 0.08557 0.75929 0.0
H851 H 0.68811 0.15907 0.74977 0.0
H852 H 0.64008 0.20789 0.70245 0.0
H853 H 0.60701 0.14198 0.69837 0.0
C854 C 0.61083 0.07371 0.7188 0.0
C855 C 0.6143 0.03998 0.73066 0.0
C856 C 0.62885 0.11187 0.72155 0.0
C857 C 0.63726 0.04446 0.74518 0.0
C858 C 0.6558 0.08262 0.74796 0.0
C859 C 0.66983 0.15529 0.7388 0.0
C860 C 0.66609 0.1881 0.72648 0.0
C861 C 0.65151 0.11673 0.73629 0.0
C862 C 0.64306 0.18293 0.71209 0.0
C863 C 0.6244 0.14525 0.70969 0.0
H864 H 0.44067 0.82606 0.50088 0.0
H865 H 0.38218 0.77524 0.45688 0.0
H866 H 0.3468 0.84049 0.45466 0.0
H867 H 0.33531 0.9125 0.46388 0.0
H868 H 0.39483 0.96673 0.50693 0.0
H869 H 0.42763 0.89953 0.51074 0.0
C870 C 0.41963 0.82921 0.49108 0.0
C871 C 0.41359 0.79615 0.47914 0.0
C872 C 0.40024 0.86741 0.48951 0.0
C873 C 0.38697 0.80048 0.46621 0.0
C874 C 0.36695 0.83772 0.46489 0.0
C875 C 0.3553 0.9098 0.4742 0.0
C876 C 0.36261 0.94457 0.48512 0.0
C877 C 0.37388 0.87156 0.47624 0.0
C878 C 0.38883 0.94044 0.4983 0.0
C879 C 0.40743 0.90202 0.50053 0.0
H880 H 0.35995 0.80737 0.284 0.0
H881 H 0.39218 0.77748 0.33683 0.0
H882 H 0.42219 0.8459 0.33935 0.0
H883 H 0.43612 0.91483 0.32735 0.0
H884 H 0.40517 0.94653 0.27457 0.0
H885 H 0.37716 0.87643 0.27125 0.0
C886 C 0.37413 0.81563 0.29592 0.0
C887 C 0.37379 0.78777 0.31025 0.0
C888 C 0.39078 0.85535 0.2974 0.0
C889 C 0.39197 0.79872 0.32569 0.0
C890 C 0.40894 0.83781 0.32717 0.0
C891 C 0.42301 0.90669 0.31513 0.0
C892 C 0.42212 0.9359 0.30131 0.0
C893 C 0.40776 0.86661 0.31327 0.0
C894 C 0.40581 0.92451 0.28544 0.0
C895 C 0.39001 0.8845 0.28353 0.0
H896 H 0.60455 0.67867 0.0396 0.0
H897 H 0.63053 0.70321 0.09361 0.0
H898 H 0.66121 0.63477 0.09572 0.0
H899 H 0.6791 0.56743 0.08258 0.0
H900 H 0.65323 0.54209 0.02861 0.0
H901 H 0.62357 0.61126 0.02623 0.0
C902 C 0.61741 0.66928 0.05174 0.0
C903 C 0.61535 0.69594 0.06641 0.0
C904 C 0.63447 0.62954 0.05297 0.0
C905 C 0.63172 0.68316 0.08214 0.0
C906 C 0.64913 0.64399 0.08339 0.0
C907 C 0.66677 0.57681 0.07031 0.0
C908 C 0.66824 0.54952 0.05583 0.0
C909 C 0.65021 0.61671 0.06897 0.0
C910 C 0.6524 0.56246 0.03999 0.0
C911 C 0.63558 0.60208 0.03858 0.0
H912 H 0.69208 0.65395 0.21004 0.0
H913 H 0.65478 0.69689 0.26039 0.0
H914 H 0.62013 0.63132 0.26409 0.0
H915 H 0.59835 0.56319 0.2521 0.0
H916 H 0.63658 0.52212 0.20161 0.0
H917 H 0.67371 0.58542 0.19901 0.0
C918 C 0.67622 0.64909 0.22179 0.0
C919 C 0.67545 0.68014 0.23481 0.0
C920 C 0.65694 0.61155 0.22387 0.0
C921 C 0.65547 0.67322 0.25014 0.0
C922 C 0.6358 0.63582 0.25228 0.0
C923 C 0.61539 0.56795 0.24074 0.0
C924 C 0.61473 0.53865 0.22702 0.0
C925 C 0.63619 0.60485 0.23916 0.0
C926 C 0.63658 0.54481 0.21225 0.0
C927 C 0.65767 0.58092 0.21071 0.0
H928 H 0.35427 0.42306 1.00023 0.0
H929 H 0.41437 0.47143 0.95631 0.0
H930 H 0.44726 0.40421 0.954 0.0
H931 H 0.45533 0.33077 0.96302 0.0
H932 H 0.39286 0.28026 1.00588 0.0
H933 H 0.36385 0.3494 1.0099 0.0
C934 C 0.37524 0.41909 0.99046 0.0
C935 C 0.3824 0.45193 0.97857 0.0
C936 C 0.39285 0.3799 0.98878 0.0
C937 C 0.40883 0.44641 0.96565 0.0
C938 C 0.42733 0.40801 0.96425 0.0
C939 C 0.43544 0.33476 0.97329 0.0
C940 C 0.42618 0.30037 0.98409 0.0
C941 C 0.4189 0.37429 0.97548 0.0
C942 C 0.4003 0.30617 0.99731 0.0
C943 C 0.38386 0.34571 0.99968 0.0
H944 H 0.35432 0.3143 0.78308 0.0
H945 H 0.38276 0.28524 0.83649 0.0
H946 H 0.41518 0.35205 0.83888 0.0
H947 H 0.43288 0.41941 0.82655 0.0
H948 H 0.40547 0.45067 0.77326 0.0
H949 H 0.37488 0.38209 0.7701 0.0
C950 C 0.36808 0.32244 0.79512 0.0
C951 C 0.36601 0.29513 0.80962 0.0
C952 C 0.38633 0.36132 0.79652 0.0
C953 C 0.38373 0.306 0.82521 0.0
C954 C 0.4022 0.34418 0.82661 0.0
C955 C 0.42015 0.41148 0.81421 0.0
C956 C 0.42111 0.44024 0.80021 0.0
C957 C 0.40309 0.3723 0.81248 0.0
C958 C 0.4049 0.42908 0.78427 0.0
C959 C 0.38752 0.3899 0.78245 0.0
H960 H 0.92934 0.29197 0.08682 0.0
H961 H 0.97657 0.41698 0.09021 0.0
H962 H 0.91669 0.44888 0.09146 0.0
H963 H 0.85079 0.4421 0.0888 0.0
H964 H 0.80323 0.31724 0.0861 0.0
H965 H 0.86305 0.28479 0.08758 0.0
C966 C 0.92652 0.32611 0.08813 0.0
C967 C 0.9575 0.35191 0.08829 0.0
C968 C 0.89183 0.3445 0.08886 0.0
C969 C 0.95329 0.39617 0.09006 0.0
C970 C 0.91898 0.41461 0.09069 0.0
C971 C 0.85349 0.40779 0.08881 0.0
C972 C 0.82256 0.38227 0.08723 0.0
C973 C 0.88805 0.38919 0.08968 0.0
C974 C 0.82655 0.33778 0.08736 0.0
C975 C 0.86081 0.31909 0.0881 0.0
H976 H 0.42483 0.79113 0.08963 0.0
H977 H 0.46552 0.91864 0.09563 0.0
H978 H 0.40377 0.94595 0.09724 0.0
H979 H 0.33814 0.93457 0.09381 0.0
H980 H 0.29801 0.80692 0.08724 0.0
H981 H 0.35934 0.779 0.08924 0.0
C982 C 0.42028 0.82484 0.09156 0.0
C983 C 0.44997 0.85271 0.09239 0.0
C984 C 0.38461 0.84048 0.0923 0.0
C985 C 0.44333 0.89631 0.09495 0.0
C986 C 0.40793 0.91206 0.0958 0.0
C987 C 0.34269 0.90057 0.09323 0.0
C988 C 0.31331 0.87303 0.09029 0.0
C989 C 0.37832 0.88458 0.09407 0.0
C990 C 0.31996 0.82902 0.08943 0.0
C991 C 0.35514 0.81293 0.0905 0.0
H992 H 0.8557 0.78254 0.19864 0.0
H993 H 0.80724 0.90731 0.19628 0.0
H994 H 0.86703 0.93946 0.1944 0.0
H995 H 0.93302 0.93274 0.1969 0.0
H996 H 0.98167 0.80813 0.19928 0.0
H997 H 0.92196 0.77549 0.19742 0.0
C998 C 0.85816 0.81673 0.19739 0.0
C999 C 0.82691 0.84241 0.19777 0.0
C1000 C 0.89274 0.83515 0.19645 0.0
C1001 C 0.83071 0.88666 0.19602 0.0
C1002 C 0.86497 0.90517 0.19505 0.0
C1003 C 0.93065 0.89842 0.1967 0.0
C1004 C 0.96185 0.87299 0.19839 0.0
C1005 C 0.89617 0.87981 0.19577 0.0
C1006 C 0.9582 0.82855 0.19797 0.0
C1007 C 0.92399 0.80981 0.19703 0.0
H1008 H 0.35262 0.28976 0.19548 0.0
H1009 H 0.30432 0.4147 0.19394 0.0
H1010 H 0.36398 0.44669 0.19101 0.0
H1011 H 0.42988 0.43962 0.19264 0.0
H1012 H 0.47838 0.3149 0.19442 0.0
H1013 H 0.41856 0.28235 0.19321 0.0
C1014 C 0.35512 0.32394 0.19423 0.0
C1015 C 0.32417 0.34984 0.19516 0.0
C1016 C 0.38952 0.34218 0.19267 0.0
C1017 C 0.32775 0.39404 0.1933 0.0
C1018 C 0.36187 0.41241 0.19171 0.0
C1019 C 0.42735 0.4053 0.19243 0.0
C1020 C 0.45838 0.3797 0.19381 0.0
C1021 C 0.39294 0.38685 0.19194 0.0
C1022 C 0.45485 0.33529 0.19333 0.0
C1023 C 0.42065 0.31666 0.19278 0.0
H1024 H 0.07487 0.56965 0.9489 0.0
H1025 H 0.09096 0.70426 0.94204 0.0
H1026 H 0.15628 0.69325 0.94013 0.0
H1027 H 0.20934 0.64601 0.94361 0.0
H1028 H 0.19209 0.51127 0.95017 0.0
H1029 H 0.12711 0.52183 0.94879 0.0
C1030 C 0.0926 0.59652 0.9467 0.0
C1031 C 0.07799 0.63769 0.94574 0.0
C1032 C 0.13015 0.59003 0.94568 0.0
C1033 C 0.1014 0.67214 0.94276 0.0
C1034 C 0.13885 0.66592 0.94178 0.0
C1035 C 0.19141 0.61888 0.94438 0.0
C1036 C 0.20585 0.578 0.9472 0.0
C1037 C 0.15364 0.62509 0.94367 0.0
C1038 C 0.182 0.54322 0.94814 0.0
C1039 C 0.14465 0.54916 0.94741 0.0
H1040 H 0.59143 0.18058 0.94377 0.0
H1041 H 0.5486 0.05363 0.94826 0.0
H1042 H 0.60963 0.02437 0.94795 0.0
H1043 H 0.67514 0.03523 0.95004 0.0
H1044 H 0.71832 0.16209 0.94609 0.0
H1045 H 0.6574 0.19072 0.94244 0.0
C1046 C 0.59539 0.14646 0.94419 0.0
C1047 C 0.56539 0.11945 0.94616 0.0
C1048 C 0.63075 0.12974 0.9444 0.0
C1049 C 0.57115 0.07526 0.94684 0.0
C1050 C 0.6061 0.05843 0.94676 0.0
C1051 C 0.67129 0.06908 0.94815 0.0
C1052 C 0.7013 0.09643 0.94852 0.0
C1053 C 0.63612 0.08545 0.94616 0.0
C1054 C 0.69576 0.14021 0.94589 0.0
C1055 C 0.66086 0.1567 0.94385 0.0
H1056 H 0.17937 0.19254 0.83663 0.0
H1057 H 0.22594 0.0668 0.8393 0.0
H1058 H 0.16572 0.03595 0.84145 0.0
H1059 H 0.09985 0.04406 0.83961 0.0
H1060 H 0.05301 0.16958 0.83694 0.0
H1061 H 0.11329 0.20103 0.83797 0.0
C1062 C 0.17639 0.15843 0.83794 0.0
C1063 C 0.20719 0.13207 0.83765 0.0
C1064 C 0.1416 0.14078 0.83908 0.0
C1065 C 0.20278 0.08793 0.83948 0.0
C1066 C 0.1683 0.07017 0.84063 0.0
C1067 C 0.10278 0.07833 0.83951 0.0
C1068 C 0.07197 0.10439 0.83807 0.0
C1069 C 0.13751 0.09621 0.83999 0.0
C1070 C 0.07625 0.14875 0.8381 0.0
C1071 C 0.11075 0.16678 0.83858 0.0
H1072 H 0.5952 0.5423 0.83936 0.0
H1073 H 0.55153 0.66943 0.83887 0.0
H1074 H 0.61253 0.6986 0.84183 0.0
H1075 H 0.67885 0.68787 0.84073 0.0
H1076 H 0.72152 0.56011 0.84043 0.0
H1077 H 0.66049 0.53151 0.84185 0.0
C1078 C 0.59892 0.5764 0.84021 0.0
C1079 C 0.56882 0.6036 0.83876 0.0
C1080 C 0.63405 0.59293 0.84166 0.0
C1081 C 0.57417 0.6477 0.84002 0.0
C1082 C 0.60912 0.66444 0.84159 0.0
C1083 C 0.67483 0.65381 0.84145 0.0
C1084 C 0.70484 0.62623 0.84034 0.0
C1085 C 0.63938 0.63737 0.84191 0.0
C1086 C 0.69901 0.58213 0.84114 0.0
C1087 C 0.66405 0.56567 0.84189 0.0
H1088 H 0.85475 0.9613 0.5864 0.0
H1089 H 0.80996 0.83585 0.59286 0.0
H1090 H 0.87071 0.80592 0.59516 0.0
H1091 H 0.9366 0.81429 0.59167 0.0
H1092 H 0.98083 0.94001 0.58485 0.0
H1093 H 0.9205 0.97068 0.58665 0.0
C1094 C 0.85823 0.92751 0.58862 0.0
C1095 C 0.82779 0.90091 0.5893 0.0
C1096 C 0.89329 0.91038 0.58977 0.0
C1097 C 0.83287 0.85718 0.5923 0.0
C1098 C 0.86767 0.83993 0.59353 0.0
C1099 C 0.93315 0.84847 0.59102 0.0
C1100 C 0.96329 0.87464 0.58793 0.0
C1101 C 0.89812 0.86606 0.59178 0.0
C1102 C 0.95817 0.91893 0.58706 0.0
C1103 C 0.9236 0.9366 0.58803 0.0
H1104 H 0.34031 0.43631 0.5928 0.0
H1105 H 0.29797 0.31007 0.58498 0.0
H1106 H 0.35867 0.28049 0.58687 0.0
H1107 H 0.42438 0.29077 0.58769 0.0
H1108 H 0.46736 0.41672 0.59523 0.0
H1109 H 0.40615 0.44567 0.59667 0.0
C1110 C 0.34426 0.40226 0.59189 0.0
C1111 C 0.31441 0.37565 0.58862 0.0
C1112 C 0.37957 0.38523 0.59276 0.0
C1113 C 0.32028 0.33153 0.58738 0.0
C1114 C 0.35511 0.31445 0.58841 0.0
C1115 C 0.42042 0.32446 0.58994 0.0
C1116 C 0.4506 0.35142 0.59126 0.0
C1117 C 0.38506 0.34108 0.59061 0.0
C1118 C 0.44476 0.39504 0.5942 0.0
C1119 C 0.40967 0.41175 0.59495 0.0
H1120 H 0.9292 0.4431 0.69702 0.0
H1121 H 0.97681 0.31776 0.69681 0.0
H1122 H 0.91677 0.28603 0.69555 0.0
H1123 H 0.85077 0.2936 0.6977 0.0
H1124 H 0.80296 0.41875 0.69785 0.0
H1125 H 0.86297 0.45066 0.69576 0.0
C1126 C 0.92651 0.40885 0.69639 0.0
C1127 C 0.9576 0.38293 0.69714 0.0
C1128 C 0.89179 0.39069 0.6958 0.0
C1129 C 0.95348 0.33859 0.69621 0.0
C1130 C 0.91908 0.32033 0.69561 0.0
C1131 C 0.85342 0.32786 0.69701 0.0
C1132 C 0.82236 0.35371 0.69807 0.0
C1133 C 0.88804 0.34604 0.69588 0.0
C1134 C 0.82633 0.39804 0.69702 0.0
C1135 C 0.8607 0.41636 0.69593 0.0
H1136 H 0.45603 0.82521 0.69331 0.0
H1137 H 0.43732 0.9602 0.6897 0.0
H1138 H 0.37211 0.94816 0.68809 0.0
H1139 H 0.32037 0.89963 0.69208 0.0
H1140 H 0.34041 0.76474 0.69616 0.0
H1141 H 0.40494 0.7765 0.69306 0.0
C1142 C 0.43773 0.85196 0.6918 0.0
C1143 C 0.45141 0.89347 0.69184 0.0
C1144 C 0.40038 0.84489 0.69119 0.0
C1145 C 0.42744 0.92784 0.68968 0.0
C1146 C 0.39011 0.92101 0.68891 0.0
C1147 C 0.33879 0.87278 0.69191 0.0
C1148 C 0.32554 0.83149 0.69468 0.0
C1149 C 0.37622 0.87973 0.69031 0.0
C1150 C 0.34982 0.79699 0.69433 0.0
C1151 C 0.38683 0.80361 0.69257 0.0
H1152 H 0.217 0.17081 0.44932 0.0
H1153 H 0.19792 0.03859 0.43789 0.0
H1154 H 0.1331 0.05236 0.43555 0.0
H1155 H 0.08097 0.10071 0.43967 0.0
H1156 H 0.10094 0.23283 0.45119 0.0
H1157 H 0.16579 0.22025 0.4504 0.0
C1158 C 0.19879 0.14509 0.44601 0.0
C1159 C 0.21254 0.1037 0.44387 0.0
C1160 C 0.16139 0.1531 0.44483 0.0
C1161 C 0.18832 0.07085 0.43956 0.0
C1162 C 0.15109 0.07863 0.43832 0.0
C1163 C 0.09949 0.12691 0.44169 0.0
C1164 C 0.08578 0.16759 0.44562 0.0
C1165 C 0.13716 0.11946 0.44135 0.0
C1166 C 0.11042 0.20108 0.44823 0.0
C1167 C 0.1477 0.19395 0.44783 0.0
H1168 H 0.67788 0.54596 0.44479 0.0
H1169 H 0.72618 0.67062 0.44401 0.0
H1170 H 0.6664 0.70326 0.443 0.0
H1171 H 0.60033 0.69668 0.4455 0.0
H1172 H 0.55207 0.572 0.44596 0.0
H1173 H 0.61171 0.53936 0.44376 0.0
C1174 C 0.67535 0.58024 0.44407 0.0
C1175 C 0.70654 0.6057 0.4446 0.0
C1176 C 0.6408 0.59895 0.44357 0.0
C1177 C 0.70271 0.65013 0.44357 0.0
C1178 C 0.66847 0.66893 0.44311 0.0
C1179 C 0.60283 0.6624 0.44482 0.0
C1180 C 0.57173 0.63692 0.44601 0.0
C1181 C 0.63731 0.64369 0.44358 0.0
C1182 C 0.57548 0.59249 0.44502 0.0
C1183 C 0.60964 0.5737 0.44386 0.0
H1184 H 0.075 0.64906 0.3436 0.0
H1185 H 0.09533 0.51414 0.34414 0.0
H1186 H 0.16049 0.52697 0.34457 0.0
H1187 H 0.2115 0.57677 0.34058 0.0
H1188 H 0.18971 0.71163 0.33981 0.0
H1189 H 0.12565 0.69845 0.34382 0.0
C1190 C 0.09368 0.62246 0.34419 0.0
C1191 C 0.08036 0.5808 0.34364 0.0
C1192 C 0.13101 0.63002 0.34415 0.0
C1193 C 0.10488 0.54661 0.34458 0.0
C1194 C 0.14219 0.55391 0.34467 0.0
C1195 C 0.19282 0.60323 0.34165 0.0
C1196 C 0.20544 0.64503 0.33955 0.0
C1197 C 0.15559 0.59551 0.34382 0.0
C1198 C 0.1808 0.67902 0.34108 0.0
C1199 C 0.14404 0.67161 0.34338 0.0
H1200 H 0.70812 0.08304 0.34155 0.0
H1201 H 0.68318 0.21663 0.33695 0.0
H1202 H 0.61904 0.20167 0.33992 0.0
H1203 H 0.56948 0.14999 0.33944 0.0
H1204 H 0.5942 0.01634 0.34347 0.0
H1205 H 0.6585 0.03214 0.34548 0.0
C1206 C 0.68875 0.10895 0.3416 0.0
C1207 C 0.70057 0.15074 0.33872 0.0
C1208 C 0.65158 0.10017 0.34308 0.0
C1209 C 0.67496 0.18398 0.3389 0.0
C1210 C 0.63812 0.17553 0.34058 0.0
C1211 C 0.58883 0.12443 0.34127 0.0
C1212 C 0.57702 0.08209 0.34105 0.0
C1213 C 0.626 0.13362 0.34204 0.0
C1214 C 0.60256 0.04929 0.34339 0.0
C1215 C 0.63943 0.05824 0.34447 0.0
H1216 H 0.11544 0.25898 0.11614 0.0
H1217 H 0.10585 0.39533 0.11348 0.0
H1218 H 0.13882 0.40223 0.14097 0.0
H1219 H 0.17028 0.36968 0.16583 0.0
H1220 H 0.18512 0.23395 0.16748 0.0
H1221 H 0.15044 0.22646 0.14035 0.0
C1222 C 0.1206 0.2901 0.12165 0.0
C1223 C 0.10808 0.32658 0.11291 0.0
C1224 C 0.14057 0.29391 0.13724 0.0
C1225 C 0.11533 0.36682 0.11998 0.0
C1226 C 0.1341 0.37079 0.13571 0.0
C1227 C 0.16587 0.33848 0.16024 0.0
C1228 C 0.17995 0.30238 0.16865 0.0
C1229 C 0.14682 0.3346 0.14445 0.0
C1230 C 0.17457 0.26218 0.16116 0.0
C1231 C 0.15467 0.2579 0.14571 0.0
H1232 H 0.09916 0.9805 0.16586 0.0
H1233 H 0.11982 0.84791 0.17641 0.0
H1234 H 0.15229 0.84112 0.14904 0.0
H1235 H 0.17573 0.872 0.1222 0.0
H1236 H 0.15908 0.00504 0.11143 0.0
H1237 H 0.12452 0.01239 0.1386 0.0
C1238 C 0.1107 0.95018 0.1621 0.0
C1239 C 0.10695 0.91482 0.17329 0.0
C1240 C 0.13025 0.94647 0.14626 0.0
C1241 C 0.1224 0.87581 0.16823 0.0
C1242 C 0.14098 0.87176 0.15249 0.0
C1243 C 0.16448 0.90267 0.12571 0.0
C1244 C 0.16995 0.93783 0.11467 0.0
C1245 C 0.14521 0.9068 0.14144 0.0
C1246 C 0.1554 0.97738 0.11965 0.0
C1247 C 0.13554 0.98159 0.1352 0.0
H1248 H 0.91712 0.73449 0.91641 0.0
H1249 H 0.9317 0.59823 0.91722 0.0
H1250 H 0.8957 0.59139 0.89099 0.0
H1251 H 0.85995 0.62284 0.86777 0.0
H1252 H 0.84421 0.75859 0.86588 0.0
H1253 H 0.88062 0.76662 0.89242 0.0
C1254 C 0.91247 0.70336 0.91081 0.0
C1255 C 0.92738 0.66703 0.91891 0.0
C1256 C 0.89141 0.69936 0.89548 0.0
C1257 C 0.92085 0.62692 0.91141 0.0
C1258 C 0.90013 0.62282 0.89633 0.0
C1259 C 0.86432 0.6543 0.87311 0.0
C1260 C 0.84914 0.68998 0.86479 0.0
C1261 C 0.88526 0.6587 0.88828 0.0
C1262 C 0.85543 0.73044 0.87198 0.0
C1263 C 0.8763 0.73508 0.88718 0.0
H1264 H 0.87502 0.0635 0.85772 0.0
H1265 H 0.9805 0.06999 0.8815 0.0
H1266 H 0.95299 0.07256 0.91054 0.0
H1267 H 0.89868 0.07199 0.92927 0.0
H1268 H 0.79364 0.05745 0.90565 0.0
H1269 H 0.8209 0.05893 0.87655 0.0
C1270 C 0.89182 0.06564 0.86931 0.0
C1271 C 0.92961 0.06692 0.86756 0.0
C1272 C 0.87584 0.06555 0.88598 0.0
C1273 C 0.9513 0.06895 0.8826 0.0
C1274 C 0.93559 0.07048 0.89918 0.0
C1275 C 0.88188 0.0693 0.91771 0.0
C1276 C 0.84427 0.06495 0.91953 0.0
C1277 C 0.89789 0.06868 0.90105 0.0
C1278 C 0.8227 0.06077 0.90452 0.0
C1279 C 0.83826 0.0617 0.88789 0.0
H1280 H 0.17571 0.75803 0.66239 0.0
H1281 H 0.17483 0.89413 0.66912 0.0
H1282 H 0.14078 0.90266 0.6422 0.0
H1283 H 0.10977 0.87219 0.61715 0.0
H1284 H 0.10785 0.73625 0.6102 0.0
H1285 H 0.14419 0.72707 0.63668 0.0
C1286 C 0.1683 0.78949 0.65784 0.0
C1287 C 0.17787 0.82534 0.66781 0.0
C1288 C 0.14794 0.7943 0.64234 0.0
C1289 C 0.1677 0.86592 0.66181 0.0
C1290 C 0.1482 0.87091 0.64638 0.0
C1291 C 0.1173 0.84047 0.62135 0.0
C1292 C 0.10594 0.80502 0.61164 0.0
C1293 C 0.13789 0.83539 0.63662 0.0
C1294 C 0.116 0.76419 0.61742 0.0
C1295 C 0.1369 0.75889 0.63257 0.0
H1296 H 0.1835 0.3771 0.62444 0.0
H1297 H 0.15876 0.50739 0.61169 0.0
H1298 H 0.12301 0.51388 0.63851 0.0
H1299 H 0.09772 0.48168 0.66553 0.0
H1300 H 0.1258 0.35217 0.67834 0.0
H1301 H 0.16106 0.34639 0.65165 0.0
C1302 C 0.17033 0.407 0.62749 0.0
C1303 C 0.17371 0.44162 0.61596 0.0
C1304 C 0.15025 0.41064 0.64301 0.0
C1305 C 0.15675 0.48023 0.62032 0.0
C1306 C 0.13617 0.4839 0.63564 0.0
C1307 C 0.11157 0.45223 0.66245 0.0
C1308 C 0.10884 0.41737 0.67397 0.0
C1309 C 0.13253 0.44921 0.64707 0.0
C1310 C 0.12736 0.3796 0.66983 0.0
C1311 C 0.14755 0.37616 0.65451 0.0
H1312 H 0.86155 0.22831 0.36584 0.0
H1313 H 0.84572 0.09276 0.36453 0.0
H1314 H 0.88156 0.08453 0.3911 0.0
H1315 H 0.91885 0.11545 0.41448 0.0
H1316 H 0.93845 0.2504 0.41477 0.0
H1317 H 0.90016 0.25917 0.38901 0.0
C1318 C 0.86573 0.19709 0.3715 0.0
C1319 C 0.85078 0.16126 0.36328 0.0
C1320 C 0.88741 0.19238 0.38658 0.0
C1321 C 0.85694 0.12087 0.37059 0.0
C1322 C 0.87748 0.1161 0.3858 0.0
C1323 C 0.91475 0.14676 0.4089 0.0
C1324 C 0.93168 0.18213 0.41655 0.0
C1325 C 0.89313 0.15155 0.39385 0.0
C1326 C 0.92611 0.22249 0.40907 0.0
C1327 C 0.90403 0.22761 0.39436 0.0
H1328 H 0.84569 0.50775 0.41444 0.0
H1329 H 0.88186 0.63346 0.42854 0.0
H1330 H 0.92032 0.63584 0.40283 0.0
H1331 H 0.94329 0.60329 0.37618 0.0
H1332 H 0.90958 0.4769 0.36196 0.0
H1333 H 0.8708 0.47373 0.38786 0.0
C1334 C 0.86197 0.53565 0.41187 0.0
C1335 C 0.8606 0.57045 0.42343 0.0
C1336 C 0.88456 0.53674 0.39703 0.0
C1337 C 0.88224 0.60616 0.41995 0.0
C1338 C 0.90429 0.60764 0.4052 0.0
C1339 C 0.9275 0.57496 0.3787 0.0
C1340 C 0.92927 0.54047 0.36705 0.0
C1341 C 0.90557 0.57325 0.39363 0.0
C1342 C 0.90882 0.50391 0.3707 0.0
C1343 C 0.88655 0.50213 0.38549 0.0
H1344 H 0.57183 0.28946 0.63207 0.0
H1345 H 0.6521 0.34999 0.59973 0.0
H1346 H 0.69558 0.34774 0.62369 0.0
H1347 H 0.71015 0.33196 0.65446 0.0
H1348 H 0.62846 0.27764 0.68759 0.0
H1349 H 0.58648 0.27352 0.66287 0.0
C1350 C 0.59891 0.30187 0.63027 0.0
C1351 C 0.60861 0.32002 0.61416 0.0
C1352 C 0.62363 0.30146 0.64429 0.0
C1353 C 0.64378 0.33624 0.61206 0.0
C1354 C 0.66876 0.33485 0.62574 0.0
C1355 C 0.68333 0.31864 0.6561 0.0
C1356 C 0.67243 0.30434 0.67261 0.0
C1357 C 0.65892 0.31798 0.64198 0.0
C1358 C 0.63742 0.28813 0.67484 0.0
C1359 C 0.61339 0.28604 0.66075 0.0
H1360 H 0.65408 0.87963 0.61226 0.0
H1361 H 0.69706 0.00576 0.6191 0.0
H1362 H 0.66348 0.01327 0.64644 0.0
H1363 H 0.62229 0.98329 0.66882 0.0
H1364 H 0.58179 0.85587 0.66185 0.0
H1365 H 0.61388 0.84985 0.63434 0.0
C1366 C 0.65605 0.90887 0.61967 0.0
C1367 C 0.67812 0.94202 0.61358 0.0
C1368 C 0.63709 0.91279 0.63549 0.0
C1369 C 0.68041 0.97958 0.62348 0.0
C1370 C 0.66116 0.98395 0.63913 0.0
C1371 C 0.62044 0.9543 0.66125 0.0
C1372 C 0.59959 0.92014 0.66752 0.0
C1373 C 0.63948 0.95066 0.64534 0.0
C1374 C 0.59772 0.88269 0.65751 0.0
C1375 C 0.61604 0.87914 0.64168 0.0
H1376 H 0.41196 0.61076 0.42 0.0
H1377 H 0.42162 0.74688 0.42325 0.0
H1378 H 0.3864 0.75499 0.3964 0.0
H1379 H 0.35512 0.72317 0.37112 0.0
H1380 H 0.35044 0.58682 0.36658 0.0
H1381 H 0.38121 0.57896 0.39462 0.0
C1382 C 0.40597 0.64214 0.41489 0.0
C1383 C 0.41918 0.67816 0.42359 0.0
C1384 C 0.38675 0.64651 0.3991 0.0
C1385 C 0.41177 0.71867 0.41671 0.0
C1386 C 0.39164 0.72333 0.40137 0.0
C1387 C 0.36062 0.69181 0.37638 0.0
C1388 C 0.35045 0.65567 0.36681 0.0
C1389 C 0.37934 0.68747 0.39232 0.0
C1390 C 0.35817 0.61517 0.37365 0.0
C1391 C 0.3757 0.61062 0.38971 0.0
H1392 H 0.3515 0.11286 0.41102 0.0
H1393 H 0.37592 0.98389 0.42603 0.0
H1394 H 0.41145 0.97438 0.39932 0.0
H1395 H 0.43582 0.00326 0.37149 0.0
H1396 H 0.40842 0.13193 0.35681 0.0
H1397 H 0.37402 0.14069 0.38348 0.0
C1398 C 0.36464 0.08264 0.40852 0.0
C1399 C 0.36111 0.04925 0.42059 0.0
C1400 C 0.38458 0.07723 0.3931 0.0
C1401 C 0.37811 0.01018 0.41697 0.0
C1402 C 0.39849 0.00473 0.40169 0.0
C1403 C 0.42232 0.03316 0.37415 0.0
C1404 C 0.42492 0.0668 0.36205 0.0
C1405 C 0.40196 0.03809 0.38962 0.0
C1406 C 0.40696 0.10529 0.36573 0.0
C1407 C 0.38724 0.1105 0.38106 0.0
H1408 H 0.60729 0.75977 0.12322 0.0
H1409 H 0.59458 0.89585 0.12306 0.0
H1410 H 0.62867 0.90097 0.15034 0.0
H1411 H 0.66366 0.86707 0.1739 0.0
H1412 H 0.68169 0.73181 0.17272 0.0
H1413 H 0.64426 0.72596 0.14644 0.0
C1414 C 0.61179 0.79042 0.12929 0.0
C1415 C 0.59818 0.82735 0.12125 0.0
C1416 C 0.6326 0.79327 0.14471 0.0
C1417 C 0.60477 0.86699 0.12902 0.0
C1418 C 0.62426 0.86994 0.14462 0.0
C1419 C 0.65923 0.83629 0.16794 0.0
C1420 C 0.6753 0.7999 0.17532 0.0
C1421 C 0.63854 0.83335 0.15253 0.0
C1422 C 0.66973 0.76033 0.16727 0.0
C1423 C 0.64824 0.75695 0.15226 0.0
H1424 H 0.66589 0.4808 0.1167 0.0
H1425 H 0.68254 0.34539 0.11409 0.0
H1426 H 0.65117 0.3361 0.14184 0.0
H1427 H 0.61774 0.366 0.16651 0.0
H1428 H 0.59566 0.50037 0.16821 0.0
H1429 H 0.63019 0.51072 0.14122 0.0
C1430 C 0.66271 0.44941 0.12233 0.0
C1431 C 0.67652 0.41384 0.11348 0.0
C1432 C 0.64354 0.44413 0.13806 0.0
C1433 C 0.67193 0.37318 0.12069 0.0
C1434 C 0.65407 0.36784 0.13655 0.0
C1435 C 0.62065 0.39756 0.161 0.0
C1436 C 0.60439 0.4324 0.16931 0.0
C1437 C 0.63957 0.40301 0.14529 0.0
C1438 C 0.60787 0.47306 0.16194 0.0
C1439 C 0.62767 0.47898 0.14656 0.0
H1440 H 0.34939 0.23005 0.87167 0.0
H1441 H 0.3617 0.09548 0.8627 0.0
H1442 H 0.39554 0.08809 0.88976 0.0
H1443 H 0.42302 0.11936 0.91557 0.0
H1444 H 0.41422 0.2542 0.92459 0.0
H1445 H 0.3779 0.26193 0.898 0.0
C1446 C 0.35929 0.19915 0.87576 0.0
C1447 C 0.35298 0.1634 0.86517 0.0
C1448 C 0.37959 0.19513 0.8913 0.0
C1449 C 0.36633 0.12359 0.87052 0.0
C1450 C 0.38568 0.11925 0.88603 0.0
C1451 C 0.4131 0.15049 0.91181 0.0
C1452 C 0.42136 0.18609 0.92211 0.0
C1453 C 0.39272 0.15478 0.89644 0.0
C1454 C 0.40842 0.22621 0.91688 0.0
C1455 C 0.38755 0.23065 0.90168 0.0
H1456 H 0.3632 0.51081 0.91623 0.0
H1457 H 0.35375 0.64705 0.91982 0.0
H1458 H 0.38382 0.65487 0.8916 0.0
H1459 H 0.41318 0.62313 0.86587 0.0
H1460 H 0.42765 0.48742 0.86334 0.0
H1461 H 0.39532 0.47917 0.89105 0.0
C1462 C 0.36769 0.54217 0.91079 0.0
C1463 C 0.35603 0.57829 0.92007 0.0
C1464 C 0.38591 0.5465 0.89472 0.0
C1465 C 0.36252 0.61875 0.91298 0.0
C1466 C 0.37963 0.62325 0.89681 0.0
C1467 C 0.40906 0.59175 0.87135 0.0
C1468 C 0.42248 0.55589 0.86249 0.0
C1469 C 0.39144 0.58738 0.88755 0.0
C1470 C 0.41755 0.51549 0.86992 0.0
C1471 C 0.39905 0.51077 0.88575 0.0
H1472 H 0.0683 0.43665 0.02313 0.0
H1473 H 0.95668 0.41464 0.03642 0.0
H1474 H 0.94112 0.48724 0.02753 0.0
H1475 H 0.9595 0.55606 1.01566 0.0
H1476 H 0.07091 0.57857 1.00233 0.0
H1477 H 0.08721 0.50711 1.01257 0.0
C1478 C 0.04045 0.44759 0.02357 0.0
C1479 C 1.01324 0.42033 0.02965 0.0
C1480 C 0.03222 0.48973 0.01928 0.0
C1481 C 0.97756 0.43498 0.0311 0.0
C1482 C 0.9689 0.47653 0.02638 0.0
C1483 C 0.98755 0.54569 1.01568 0.0
C1484 C 1.01428 0.57239 1.00881 0.0
C1485 C 0.9961 0.50421 0.02065 0.0
C1486 C 0.05032 0.55872 1.00819 0.0
C1487 C 0.05936 0.51766 1.01361 0.0
H1488 H 0.26846 0.70853 0.98457 0.0
H1489 H 0.26827 0.63495 0.03217 0.0
H1490 H 0.26083 0.69998 0.04923 0.0
H1491 H 0.25476 0.77686 0.05049 0.0
H1492 H 0.25482 0.85112 1.00311 0.0
H1493 H 0.26376 0.78623 0.98593 0.0
C1494 C 0.26608 0.70663 0.99866 0.0
C1495 C 0.26818 0.66701 1.00715 0.0
C1496 C 0.26295 0.74409 1.00834 0.0
C1497 C 0.26617 0.66509 0.02541 0.0
C1498 C 0.26232 0.70219 0.03513 0.0
C1499 C 0.25703 0.77892 0.03639 0.0
C1500 C 0.25394 0.8185 0.02801 0.0
C1501 C 0.26099 0.74174 0.02671 0.0
C1502 C 0.25743 0.82096 1.00981 0.0
C1503 C 0.26198 0.78388 1.00001 0.0
H1504 H 0.03182 0.76397 0.23701 0.0
H1505 H 0.03 0.83981 0.28398 0.0
H1506 H 0.0263 0.77561 0.30168 0.0
H1507 H 0.02253 0.69905 0.30376 0.0
H1508 H 0.02158 0.62214 0.25715 0.0
H1509 H 0.02938 0.68603 0.23924 0.0
C1510 C 0.03008 0.76644 0.25111 0.0
C1511 C 0.03072 0.80649 0.25922 0.0
C1512 C 0.02852 0.72943 0.2612 0.0
C1513 C 0.02924 0.80927 0.27749 0.0
C1514 C 0.02745 0.77267 0.2876 0.0
C1515 C 0.02436 0.69613 0.28967 0.0
C1516 C 0.0211 0.65615 0.28174 0.0
C1517 C 0.02719 0.73273 0.27957 0.0
C1518 C 0.02416 0.65266 0.26354 0.0
C1519 C 0.02807 0.68917 0.25331 0.0
H1520 H 0.26934 0.45606 0.23307 0.0
H1521 H 0.23919 0.3876 0.27976 0.0
H1522 H 0.24624 0.45203 0.29698 0.0
H1523 H 0.26005 0.52724 0.29871 0.0
H1524 H 0.29145 0.59604 0.25235 0.0
H1525 H 0.28372 0.53173 0.23488 0.0
C1526 C 0.26469 0.45506 0.24704 0.0
C1527 C 0.25375 0.41712 0.25513 0.0
C1528 C 0.26825 0.49227 0.25682 0.0
C1529 C 0.24768 0.41642 0.27323 0.0
C1530 C 0.25144 0.45326 0.28307 0.0
C1531 C 0.26474 0.52846 0.28474 0.0
C1532 C 0.27611 0.56634 0.27679 0.0
C1533 C 0.26127 0.49137 0.27495 0.0
C1534 C 0.28252 0.56719 0.25872 0.0
C1535 C 0.27839 0.53044 0.24878 0.0
H1536 H 0.77279 0.28017 0.04976 0.0
H1537 H 0.74504 0.34643 1.00211 0.0
H1538 H 0.74835 0.27984 0.98595 0.0
H1539 H 0.75738 0.20349 0.98559 0.0
H1540 H 0.78558 0.13692 0.03309 0.0
H1541 H 0.78213 0.20352 0.04935 0.0
C1542 C 0.76795 0.28029 0.03579 0.0
C1543 C 0.75868 0.3182 0.02713 0.0
C1544 C 0.76889 0.24191 0.02671 0.0
C1545 C 0.75235 0.31767 1.00905 0.0
C1546 C 0.75384 0.2796 0.99986 0.0
C1547 C 0.76233 0.20324 0.99955 0.0
C1548 C 0.77168 0.16527 1.00814 0.0
C1549 C 0.76147 0.24155 1.00863 0.0
C1550 C 0.77817 0.16573 0.0262 0.0
C1551 C 0.77661 0.20379 0.03545 0.0
H1552 H 1.0121 0.20561 0.80108 0.0
H1553 H 0.98905 0.13639 0.75369 0.0
H1554 H 0.99392 0.20223 0.73685 0.0
H1555 H 1.00458 0.27894 0.73582 0.0
H1556 H 0.02661 0.34738 0.78354 0.0
H1557 H 0.02077 0.28182 0.80021 0.0
C1558 C 1.00847 0.20459 0.78704 0.0
C1559 C 1.00051 0.16603 0.77862 0.0
C1560 C 1.01025 0.24242 0.7776 0.0
C1561 C 0.99551 0.16561 0.76045 0.0
C1562 C 0.99795 0.20325 0.75086 0.0
C1563 C 1.0076 0.27973 0.7499 0.0
C1564 C 0.01618 0.318 0.75843 0.0
C1565 C 1.005 0.24184 0.75935 0.0
C1566 C 0.02003 0.31836 0.77666 0.0
C1567 C 0.01702 0.28086 0.78618 0.0
H1568 H 0.74926 0.46133 0.73486 0.0
H1569 H 0.751 0.3861 0.78205 0.0
H1570 H 0.75775 0.45061 0.79947 0.0
H1571 H 0.7646 0.5273 0.80105 0.0
H1572 H 0.76361 0.60282 0.75399 0.0
H1573 H 0.75339 0.53873 0.73659 0.0
C1574 C 0.75162 0.45897 0.74895 0.0
C1575 C 0.75036 0.41913 0.75722 0.0
C1576 C 0.75469 0.49601 0.75881 0.0
C1577 C 0.75238 0.41653 0.77547 0.0
C1578 C 0.75594 0.45329 0.78539 0.0
C1579 C 0.76185 0.52979 0.78698 0.0
C1580 C 0.76528 0.56939 0.77872 0.0
C1581 C 0.75714 0.49304 0.77717 0.0
C1582 C 0.76097 0.57254 0.76058 0.0
C1583 C 0.75561 0.53594 0.75065 0.0
H1584 H 0.07823 0.94639 0.52137 0.0
H1585 H 0.9662 0.91142 0.5265 0.0
H1586 H 0.94778 0.98083 0.51465 0.0
H1587 H 0.96427 0.05259 0.50431 0.0
H1588 H 0.07659 0.08536 0.49793 0.0
H1589 H 0.0947 0.01562 0.50929 0.0
C1590 C 0.04981 0.95372 0.51947 0.0
C1591 C 0.02348 0.92412 0.5245 0.0
C1592 C 0.03974 -0.00648 0.51302 0.0
C1593 C 0.98674 0.93367 0.5223 0.0
C1594 C 0.97633 0.97346 0.51583 0.0
C1595 C 0.99267 0.04456 0.50578 0.0
C1596 C 0.01928 0.07414 0.50099 0.0
C1597 C 1.00265 0.00393 0.51155 0.0
C1598 C 0.05594 0.06322 0.50211 0.0
C1599 C 0.06617 0.02335 0.50836 0.0
H1600 H 0.28776 0.2212 0.48461 0.0
H1601 H 0.25625 0.13895 0.52717 0.0
H1602 H 0.23917 0.20105 0.54444 0.0
H1603 H 0.23504 0.27748 0.54757 0.0
H1604 H 0.26615 0.3603 0.50515 0.0
H1605 H 0.28295 0.29816 0.48767 0.0
C1606 C 0.27707 0.21667 0.49766 0.0
C1607 C 0.27344 0.17548 0.50467 0.0
C1608 C 0.2679 0.25231 0.50752 0.0
C1609 C 0.25924 0.17026 0.5215 0.0
C1610 C 0.24973 0.20571 0.53138 0.0
C1611 C 0.24544 0.28224 0.53448 0.0
C1612 C 0.24919 0.32351 0.52759 0.0
C1613 C 0.25434 0.24672 0.52455 0.0
C1614 C 0.26309 0.3289 0.51072 0.0
C1615 C 0.27244 0.29343 0.50073 0.0
H1616 H 0.2636 0.02826 0.79919 0.0
H1617 H 0.28971 0.09796 0.75225 0.0
H1618 H 0.28438 0.03286 0.73512 0.0
H1619 H 0.2724 0.95671 0.73366 0.0
H1620 H 0.24644 0.88747 0.78071 0.0
H1621 H 0.25306 0.95227 0.79785 0.0
C1622 C 0.26772 0.02947 0.78518 0.0
C1623 C 0.2768 0.06788 0.77696 0.0
C1624 C 0.26557 0.99202 0.77556 0.0
C1625 C 0.28245 0.06874 0.75884 0.0
C1626 C 0.27975 0.03154 0.74908 0.0
C1627 C 0.26886 0.95558 0.74771 0.0
C1628 C 0.25899 0.91748 0.75596 0.0
C1629 C 0.27169 0.993 0.75736 0.0
C1630 C 0.2541 0.91655 0.77412 0.0
C1631 C 0.25753 0.95356 0.78388 0.0
H1632 H 0.72068 0.81856 0.51541 0.0
H1633 H 0.81159 0.80637 0.55043 0.0
H1634 H 0.82123 0.73323 0.54074 0.0
H1635 H 0.80364 0.67301 0.52239 0.0
H1636 H 0.71361 0.68581 0.48689 0.0
H1637 H 0.70275 0.75814 0.49726 0.0
C1638 C 0.74313 0.80021 0.5206 0.0
C1639 C 0.76583 0.81792 0.53335 0.0
C1640 C 0.74789 0.758 0.51532 0.0
C1641 C 0.79413 0.79344 0.5404 0.0
C1642 C 0.79937 0.75156 0.53502 0.0
C1643 C 0.78119 0.69135 0.5172 0.0
C1644 C 0.75927 0.67418 0.50402 0.0
C1645 C 0.77615 0.73339 0.52265 0.0
C1646 C 0.73061 0.69842 0.49718 0.0
C1647 C 0.72472 0.73987 0.50292 0.0
H1648 H 0.7681 0.95198 0.23488 0.0
H1649 H 0.76226 0.88259 0.28349 0.0
H1650 H 0.764 0.94919 0.29973 0.0
H1651 H 0.7653 0.02644 0.29999 0.0
H1652 H 0.77189 0.09605 0.25152 0.0
H1653 H 0.77031 0.02938 0.23516 0.0
C1654 C 0.76785 0.95129 0.24904 0.0
C1655 C 0.76509 0.91248 0.258 0.0
C1656 C 0.76783 0.98953 0.25822 0.0
C1657 C 0.76447 0.91216 0.27633 0.0
C1658 C 0.76507 0.95015 0.28559 0.0
C1659 C 0.76565 0.02713 0.28583 0.0
C1660 C 0.7682 0.06595 0.2769 0.0
C1661 C 0.76601 0.98894 0.27664 0.0
C1662 C 0.76951 0.06638 0.25859 0.0
C1663 C 0.76904 0.02838 0.24929 0.0
H1664 H 0.55766 0.42801 0.51758 0.0
H1665 H 0.46012 0.43405 0.54837 0.0
H1666 H 0.44957 0.50705 0.53865 0.0
H1667 H 0.46875 0.56919 0.52181 0.0
H1668 H 0.56532 0.5625 0.49042 0.0
H1669 H 0.57667 0.49001 0.50063 0.0
C1670 C 0.53354 0.4449 0.52173 0.0
C1671 C 0.50928 0.42564 0.53337 0.0
C1672 C 0.5283 0.48709 0.51655 0.0
C1673 C 0.47875 0.44823 0.53914 0.0
C1674 C 0.47301 0.49003 0.5338 0.0
C1675 C 0.49269 0.55214 0.51755 0.0
C1676 C 0.51649 0.57104 0.50564 0.0
C1677 C 0.49795 0.50997 0.52276 0.0
C1678 C 0.54702 0.54851 0.49984 0.0
C1679 C 0.55315 0.50697 0.50544 0.0
H1680 H 0.55324 0.82026 0.76959 0.0
H1681 H 0.45081 0.82789 0.74311 0.0
H1682 H 0.43455 0.75706 0.75398 0.0
H1683 H 0.45261 0.69049 0.76879 0.0
H1684 H 0.55684 0.68274 0.79392 0.0
H1685 H 0.5704 0.7556 0.7851 0.0
C1686 C 0.52686 0.8069 0.76681 0.0
C1687 C 0.50272 0.82925 0.75612 0.0
C1688 C 0.51899 0.76549 0.77208 0.0
C1689 C 0.46911 0.81148 0.7519 0.0
C1690 C 0.46029 0.77072 0.75773 0.0
C1691 C 0.47854 0.70461 0.77194 0.0
C1692 C 0.50422 0.68131 0.78149 0.0
C1693 C 0.48563 0.74686 0.76729 0.0
C1694 C 0.5372 0.7001 0.78617 0.0
C1695 C 0.54468 0.7418 0.78139 0.0
H1696 H 0.57103 0.30371 0.26604 0.0
H1697 H 0.47074 0.30553 0.23724 0.0
H1698 H 0.45608 0.23449 0.24797 0.0
H1699 H 0.47256 0.17177 0.26494 0.0
H1700 H 0.57253 0.16958 0.29399 0.0
H1701 H 0.58751 0.24063 0.28317 0.0
C1702 C 0.54563 0.2888 0.26249 0.0
C1703 C 0.52161 0.30959 0.25119 0.0
C1704 C 0.53806 0.24762 0.26821 0.0
C1705 C 0.48924 0.2899 0.24617 0.0
C1706 C 0.48111 0.24927 0.2521 0.0
C1707 C 0.49801 0.1865 0.26854 0.0
C1708 C 0.52182 0.16559 0.2799 0.0
C1709 C 0.50563 0.22762 0.26286 0.0
C1710 C 0.55419 0.18524 0.285 0.0
C1711 C 0.56248 0.22588 0.27902 0.0
H1712 H 0.52156 0.96424 0.05418 0.0
H1713 H 0.51937 0.88576 1.00799 0.0
H1714 H 0.51268 0.94917 0.98976 0.0
H1715 H 0.50684 0.02602 0.98719 0.0
H1716 H 0.50919 0.10473 0.03328 0.0
H1717 H 0.51815 0.04155 0.05149 0.0
C1718 C 0.51902 0.96092 0.04014 0.0
C1719 C 0.52018 0.92047 0.03238 0.0
C1720 C 0.51624 -0.00267 0.02981 0.0
C1721 C 0.518 0.91665 1.01418 0.0
C1722 C 0.51452 0.95278 1.0038 0.0
C1723 C 0.50965 0.02938 1.00123 0.0
C1724 C 0.50709 0.06969 1.00898 0.0
C1725 C 0.51375 0.99316 1.01151 0.0
C1726 C 0.51132 0.07392 0.02708 0.0
C1727 C 0.51592 0.03785 0.03746 0.0
H1728 H 0.15613 0.35134 1.01593 0.0
H1729 H 0.14385 0.43768 0.05923 0.0
H1730 H 0.18981 0.4842 0.04693 0.0
H1731 H 0.23199 0.50248 0.02329 0.0
H1732 H 0.2437 0.41731 0.97955 0.0
H1733 H 0.19986 0.36885 0.99253 0.0
C1734 C 0.1639 0.37999 0.0228 0.0
C1735 C 0.14642 0.39072 0.03856 0.0
C1736 C 0.19018 0.40731 1.01546 0.0
C1737 C 0.15666 0.42844 0.0471 0.0
C1738 C 0.18297 0.45526 0.04004 0.0
C1739 C 0.22511 0.47327 1.01659 0.0
C1740 C 0.24134 0.46388 1.00039 0.0
C1741 C 0.19962 0.44538 0.02411 0.0
C1742 C 0.2318 0.4257 0.99199 0.0
C1743 C 0.20665 0.39778 0.99943 0.0
H1744 H 0.14659 0.86291 1.01369 0.0
H1745 H 0.09707 0.84014 0.06388 0.0
H1746 H 0.05368 0.79168 0.04995 0.0
H1747 H 0.031 0.7552 0.02346 0.0
H1748 H 0.08411 0.77661 0.97399 0.0
H1749 H 0.12571 0.82596 0.98798 0.0
C1750 C 0.12619 0.84786 0.02174 0.0
C1751 C 0.12495 0.85574 0.0399 0.0
C1752 C 0.10237 0.81937 1.01379 0.0
C1753 C 0.09851 0.83508 0.04992 0.0
C1754 C 0.07387 0.8072 0.04195 0.0
C1755 C 0.05174 0.77056 1.01572 0.0
C1756 C 0.05424 0.76224 0.9976 0.0
C1757 C 0.07578 0.79891 0.02389 0.0
C1758 C 0.08147 0.78227 0.98788 0.0
C1759 C 0.10518 0.81067 0.99587 0.0
H1760 H 0.24721 0.81697 0.29264 0.0
H1761 H 0.21806 0.69733 0.26915 0.0
H1762 H 0.17428 0.73294 0.25042 0.0
H1763 H 0.14384 0.79734 0.24073 0.0
H1764 H 0.17178 0.91795 0.26373 0.0
H1765 H 0.21686 0.88291 0.28224 0.0
C1766 C 0.23098 0.79881 0.28352 0.0
C1767 C 0.2358 0.75454 0.28234 0.0
C1768 C 0.20604 0.81969 0.27247 0.0
C1769 C 0.21495 0.73144 0.27029 0.0
C1770 C 0.18995 0.75177 0.25952 0.0
C1771 C 0.16008 0.81623 0.24959 0.0
C1772 C 0.15435 0.86032 0.25074 0.0
C1773 C 0.18541 0.79585 0.26041 0.0
C1774 C 0.17561 0.88398 0.26248 0.0
C1775 C 0.20126 0.8639 0.27318 0.0
H1776 H 0.14959 0.35661 0.26936 0.0
H1777 H 0.10601 0.39811 0.22001 0.0
H1778 H 0.0643 0.44618 0.23517 0.0
H1779 H 0.042 0.478 0.2623 0.0
H1780 H 0.08831 0.4402 0.3117 0.0
H1781 H 0.12791 0.38974 0.29665 0.0
C1782 C 0.13027 0.37546 0.26199 0.0
C1783 C 0.12992 0.37299 0.24363 0.0
C1784 C 0.1076 0.40433 0.27078 0.0
C1785 C 0.10601 0.39884 0.23415 0.0
C1786 C 0.08251 0.42657 0.24281 0.0
C1787 C 0.06079 0.45883 0.26983 0.0
C1788 C 0.06202 0.46289 0.28816 0.0
C1789 C 0.08342 0.42995 0.2611 0.0
C1790 C 0.08683 0.43796 0.29761 0.0
C1791 C 0.10929 0.40883 0.28901 0.0
H1792 H 0.88261 0.62719 1.01552 0.0
H1793 H 0.87616 0.55485 0.96781 0.0
H1794 H 0.83247 0.50669 0.98164 0.0
H1795 H 0.79866 0.48324 1.00808 0.0
H1796 H 0.80961 0.55552 0.05574 0.0
H1797 H 0.84981 0.60487 0.04115 0.0
C1798 C 0.87162 0.60109 1.00798 0.0
C1799 C 0.88288 0.59472 0.9906 0.0
C1800 C 0.84776 0.57297 1.01615 0.0
C1801 C 0.8679 0.56079 0.98114 0.0
C1802 C 0.84319 0.53299 0.98913 0.0
C1803 C 0.80997 0.50969 1.01528 0.0
C1804 C 0.801 0.51542 0.03307 0.0
C1805 C 0.83343 0.53833 1.00676 0.0
C1806 C 0.8159 0.55005 0.04212 0.0
C1807 C 0.83885 0.57853 0.03376 0.0
H1808 H 0.90003 0.10117 0.0197 0.0
H1809 H 0.90322 0.17133 0.97139 0.0
H1810 H 0.94649 0.22118 0.98403 0.0
H1811 H 0.98153 0.24744 1.00938 0.0
H1812 H 0.97659 0.17821 0.05797 0.0
H1813 H 0.93621 0.12636 0.04478 0.0
C1814 C 0.91081 0.12678 1.01181 0.0
C1815 C 0.89855 0.13197 0.99449 0.0
C1816 C 0.93511 0.15629 0.01936 0.0
C1817 C 0.91228 0.1662 0.98469 0.0
C1818 C 0.93692 0.195 0.99196 0.0
C1819 C 0.97161 0.22109 1.01712 0.0
C1820 C 0.9823 0.21727 0.03476 0.0
C1821 C 0.94811 0.19091 1.0094 0.0
C1822 C 0.96903 0.18247 0.04442 0.0
C1823 C 0.94587 0.15249 0.03686 0.0
H1824 H 0.88905 0.18417 0.7987 0.0
H1825 H 0.85864 0.06414 0.77589 0.0
H1826 H 0.81633 0.10054 0.75641 0.0
H1827 H 0.78912 0.16714 0.74507 0.0
H1828 H 0.81894 0.28639 0.7686 0.0
H1829 H 0.86065 0.24975 0.78825 0.0
C1830 C 0.87283 0.16575 0.78967 0.0
C1831 C 0.87717 0.12131 0.78888 0.0
C1832 C 0.84884 0.18692 0.77832 0.0
C1833 C 0.85591 0.0983 0.77692 0.0
C1834 C 0.83185 0.11915 0.76564 0.0
C1835 C 0.80509 0.18504 0.75438 0.0
C1836 C 0.80126 0.2295 0.75522 0.0
C1837 C 0.82848 0.16356 0.76601 0.0
C1838 C 0.82153 0.25219 0.76762 0.0
C1839 C 0.84528 0.23123 0.77893 0.0
H1840 H 0.98112 0.49137 0.77737 0.0
H1841 H 0.96067 0.5499 0.72727 0.0
H1842 H 0.92142 0.60205 0.74102 0.0
H1843 H 0.89213 0.63056 0.76674 0.0
H1844 H 0.909 0.57201 0.81707 0.0
H1845 H 0.9514 0.52132 0.80381 0.0
C1846 C 0.96783 0.51532 0.76945 0.0
C1847 C 0.97384 0.51642 0.75124 0.0
C1848 C 0.94518 0.54571 0.7775 0.0
C1849 C 0.95663 0.54807 0.74126 0.0
C1850 C 0.93424 0.57812 0.74912 0.0
C1851 C 0.90522 0.60702 0.77496 0.0
C1852 C 0.89717 0.60521 0.79293 0.0
C1853 C 0.9284 0.57729 0.76719 0.0
C1854 C 0.91476 0.57447 0.80325 0.0
C1855 C 0.93871 0.54514 0.79561 0.0
H1856 H 0.12722 0.88855 0.51245 0.0
H1857 H 0.18102 0.89624 0.56239 0.0
H1858 H 0.22551 0.9454 0.54979 0.0
H1859 H 0.24873 0.98581 0.52441 0.0
H1860 H 0.19163 0.97948 0.47522 0.0
H1861 H 0.14802 0.93069 0.488 0.0
C1862 C 0.14881 0.9005 0.52067 0.0
C1863 C 0.15104 0.8881 0.53835 0.0
C1864 C 0.1733 0.92949 0.51353 0.0
C1865 C 0.17886 0.90486 0.54874 0.0
C1866 C 0.20413 0.93313 0.54154 0.0
C1867 C 0.22661 0.97401 0.5165 0.0
C1868 C 0.22373 0.98618 0.49878 0.0
C1869 C 0.20151 0.94575 0.52394 0.0
C1870 C 0.1947 0.97069 0.48882 0.0
C1871 C 0.16982 0.94257 0.4961 0.0
H1872 H 0.11625 0.39552 0.51959 0.0
H1873 H 0.11413 0.32014 0.56658 0.0
H1874 H 0.07203 0.27032 0.55262 0.0
H1875 H 0.03955 0.24515 0.52587 0.0
H1876 H 0.04553 0.32147 0.47903 0.0
H1877 H 0.08269 0.37306 0.49403 0.0
C1878 C 0.10626 0.36853 0.52695 0.0
C1879 C 0.11854 0.36172 0.54414 0.0
C1880 C 0.08315 0.33948 0.51869 0.0
C1881 C 0.105 0.32656 0.5534 0.0
C1882 C 0.08123 0.29772 0.54532 0.0
C1883 C 0.04898 0.27307 0.51897 0.0
C1884 C 0.03964 0.27894 0.50121 0.0
C1885 C 0.0708 0.30325 0.52776 0.0
C1886 C 0.05208 0.31565 0.49261 0.0
C1887 C 0.07339 0.34547 0.5012 0.0
H1888 H 0.23857 0.3178 0.79335 0.0
H1889 H 0.21013 0.19852 0.76942 0.0
H1890 H 0.16547 0.23419 0.75108 0.0
H1891 H 0.13449 0.29897 0.74169 0.0
H1892 H 0.16321 0.4191 0.76491 0.0
H1893 H 0.20804 0.38363 0.78333 0.0
C1894 C 0.22226 0.29969 0.78425 0.0
C1895 C 0.22746 0.25555 0.78284 0.0
C1896 C 0.19704 0.32062 0.77339 0.0
C1897 C 0.20661 0.23253 0.77077 0.0
C1898 C 0.18114 0.25291 0.76022 0.0
C1899 C 0.1508 0.31758 0.75062 0.0
C1900 C 0.14537 0.36173 0.75183 0.0
C1901 C 0.1763 0.29696 0.76131 0.0
C1902 C 0.16675 0.3851 0.76361 0.0
C1903 C 0.1923 0.36479 0.77426 0.0
H1904 H 0.12418 0.85284 0.76408 0.0
H1905 H 0.13186 0.94185 0.72144 0.0
H1906 H 0.09008 0.99004 0.73646 0.0
H1907 H 0.05318 0.00806 0.76236 0.0
H1908 H 0.04914 0.91993 0.80555 0.0
H1909 H 0.08792 0.87069 0.78975 0.0
C1910 C 0.11624 0.88242 0.75789 0.0
C1911 C 0.13079 0.8934 0.74152 0.0
C1912 C 0.09326 0.91056 0.76686 0.0
C1913 C 0.12083 0.93242 0.73395 0.0
C1914 C 0.09711 0.96011 0.74259 0.0
C1915 C 0.06082 0.97812 0.76833 0.0
C1916 C 0.04815 0.96795 0.7852 0.0
C1917 C 0.08353 0.94979 0.75918 0.0
C1918 C 0.05851 0.92893 0.79268 0.0
C1919 C 0.0806 0.90051 0.7836 0.0
H1920 H 0.8167 0.9766 0.50946 0.0
H1921 H 0.7947 0.07443 0.54755 0.0
H1922 H 0.8335 0.12334 0.532 0.0
H1923 H 0.875 0.13899 0.50825 0.0
H1924 H 0.90122 0.04198 0.47061 0.0
H1925 H 0.8595 0.99287 0.48511 0.0
C1926 C 0.82041 0.0086 0.51433 0.0
C1927 C 0.80261 0.02137 0.5298 0.0
C1928 C 0.84349 0.03712 0.50533 0.0
C1929 C 0.80801 0.06315 0.53584 0.0
C1930 C 0.8302 0.0915 0.52689 0.0
C1931 C 0.87133 0.10733 0.50299 0.0
C1932 C 0.89113 0.0946 0.48818 0.0
C1933 C 0.84815 0.0789 0.51167 0.0
C1934 C 0.88622 0.05299 0.48188 0.0
C1935 C 0.86245 0.02472 0.49025 0.0
H1936 H 0.85821 0.69133 0.50431 0.0
H1937 H 0.93044 0.58566 0.49605 0.0
H1938 H 0.97896 0.62385 0.51125 0.0
H1939 H 1.00069 0.68766 0.52685 0.0
H1940 H 0.92618 0.78935 0.53816 0.0
H1941 H 0.87838 0.75239 0.52195 0.0
C1942 C 0.88461 0.67673 0.50584 0.0
C1943 C 0.89101 0.63601 0.49888 0.0
C1944 C 0.91173 0.6981 0.51523 0.0
C1945 C 0.92507 0.61708 0.5012 0.0
C1946 C 0.95271 0.63888 0.5099 0.0
C1947 C 0.97386 0.70148 0.5258 0.0
C1948 C 0.96683 0.74122 0.53351 0.0
C1949 C 0.94633 0.67939 0.51698 0.0
C1950 C 0.93202 0.75875 0.53234 0.0
C1951 C 0.90481 0.73768 0.52304 0.0
H1952 H 0.89113 0.59991 0.27091 0.0
H1953 H 0.87952 0.66509 0.32011 0.0
H1954 H 0.83697 0.71529 0.30644 0.0
H1955 H 0.80551 0.74252 0.27976 0.0
H1956 H 0.8224 0.67748 0.23075 0.0
H1957 H 0.86141 0.62626 0.24509 0.0
C1958 C 0.87929 0.6249 0.27881 0.0
C1959 C 0.88875 0.62865 0.29655 0.0
C1960 C 0.8563 0.65431 0.27076 0.0
C1961 C 0.87263 0.66115 0.30647 0.0
C1962 C 0.84861 0.69016 0.29858 0.0
C1963 C 0.818 0.71735 0.27222 0.0
C1964 C 0.81087 0.71405 0.25413 0.0
C1965 C 0.84078 0.68753 0.28061 0.0
C1966 C 0.82718 0.68098 0.24463 0.0
C1967 C 0.84945 0.65142 0.25283 0.0
H1968 H 0.87615 0.03852 0.29457 0.0
H1969 H 0.92062 0.15911 0.27857 0.0
H1970 H 0.96506 0.12284 0.26045 0.0
H1971 H 0.99057 0.05693 0.24828 0.0
H1972 H 0.94878 0.93624 0.26534 0.0
H1973 H 0.90387 0.97234 0.2836 0.0
C1974 C 0.89593 0.05689 0.28736 0.0
C1975 C 0.8948 0.10161 0.28799 0.0
C1976 C 0.92155 0.03578 0.27683 0.0
C1977 C 0.92064 0.12471 0.27839 0.0
C1978 C 0.94603 0.104 0.26789 0.0
C1979 C 0.97132 0.03863 0.25585 0.0
C1980 C 0.97252 -0.00596 0.25525 0.0
C1981 C 0.9464 0.05959 0.26678 0.0
C1982 C 0.9481 0.97064 0.26549 0.0
C1983 C 0.92257 0.99126 0.27599 0.0
H1984 H 0.72074 0.5104 0.52413 0.0
H1985 H 0.71874 0.43177 0.47798 0.0
H1986 H 0.67836 0.382 0.49249 0.0
H1987 H 0.64268 0.36078 0.51813 0.0
H1988 H 0.64262 0.4404 0.56388 0.0
H1989 H 0.68497 0.48913 0.54981 0.0
C1990 C 0.71138 0.4825 0.51719 0.0
C1991 C 0.72292 0.47512 0.49992 0.0
C1992 C 0.68802 0.45372 0.52564 0.0
C1993 C 0.7104 0.43857 0.49124 0.0
C1994 C 0.68735 0.40985 0.49956 0.0
C1995 C 0.65245 0.38838 0.52513 0.0
C1996 C 0.63982 0.39661 0.54213 0.0
C1997 C 0.67606 0.41696 0.51677 0.0
C1998 C 0.65211 0.43314 0.55084 0.0
C1999 C 0.67618 0.46117 0.54276 0.0
H2000 H 0.63599 0.88606 0.5156 0.0
H2001 H 0.6318 0.81634 0.56401 0.0
H2002 H 0.58864 0.76648 0.55123 0.0
H2003 H 0.5533 0.74093 0.52583 0.0
H2004 H 0.55982 0.80997 0.4772 0.0
H2005 H 0.60071 0.86099 0.49044 0.0
C2006 C 0.62513 0.86045 0.52347 0.0
C2007 C 0.6369 0.85543 0.54085 0.0
C2008 C 0.60099 0.83109 0.51588 0.0
C2009 C 0.62308 0.82129 0.55066 0.0
C2010 C 0.59851 0.79252 0.54331 0.0
C2011 C 0.56375 0.76701 0.5181 0.0
C2012 C 0.55324 0.77121 0.50046 0.0
C2013 C 0.58757 0.7967 0.52583 0.0
C2014 C 0.5672 0.80554 0.49076 0.0
C2015 C 0.59063 0.83504 0.49835 0.0
H2016 H 0.61437 0.84653 0.76856 0.0
H2017 H 0.66675 0.83038 0.71867 0.0
H2018 H 0.71212 0.78386 0.73245 0.0
H2019 H 0.73726 0.74951 0.759 0.0
H2020 H 0.68143 0.76414 0.80819 0.0
H2021 H 0.63623 0.80897 0.79409 0.0
C2022 C 0.63559 0.83291 0.76056 0.0
C2023 C 0.63734 0.84241 0.74257 0.0
C2024 C 0.66072 0.8057 0.76844 0.0
C2025 C 0.6649 0.82387 0.73252 0.0
C2026 C 0.69075 0.79725 0.74042 0.0
C2027 C 0.7151 0.76232 0.76664 0.0
C2028 C 0.71306 0.75376 0.78473 0.0
C2029 C 0.68898 0.78814 0.75841 0.0
C2030 C 0.68388 0.77025 0.79432 0.0
C2031 C 0.65807 0.79607 0.78628 0.0
H2032 H 0.5397 0.42692 0.78932 0.0
H2033 H 0.56896 0.54298 0.76297 0.0
H2034 H 0.61 0.50349 0.74391 0.0
H2035 H 0.63849 0.43637 0.73508 0.0
H2036 H 0.60847 0.31983 0.76098 0.0
H2037 H 0.56629 0.35901 0.77952 0.0
C2038 C 0.55529 0.44362 0.77949 0.0
C2039 C 0.55157 0.48801 0.77774 0.0
C2040 C 0.57832 0.42053 0.7683 0.0
C2041 C 0.57142 0.50894 0.76468 0.0
C2042 C 0.59481 0.48633 0.75373 0.0
C2043 C 0.62239 0.41928 0.74459 0.0
C2044 C 0.62686 0.37499 0.74655 0.0
C2045 C 0.59846 0.44211 0.75539 0.0
C2046 C 0.60568 0.35376 0.75906 0.0
C2047 C 0.58169 0.37624 0.7698 0.0
H2048 H 0.41436 0.55107 0.50384 0.0
H2049 H 0.34637 0.66114 0.49697 0.0
H2050 H 0.29671 0.62485 0.51207 0.0
H2051 H 0.2728 0.56177 0.52772 0.0
H2052 H 0.34359 0.45572 0.53784 0.0
H2053 H 0.39193 0.49018 0.52113 0.0
C2054 C 0.38862 0.56704 0.5056 0.0
C2055 C 0.38392 0.60863 0.49907 0.0
C2056 C 0.36077 0.54666 0.51501 0.0
C2057 C 0.3506 0.62912 0.50175 0.0
C2058 C 0.32224 0.60837 0.51042 0.0
C2059 C 0.2989 0.54636 0.52626 0.0
C2060 C 0.3046 0.50609 0.53387 0.0
C2061 C 0.32702 0.56719 0.51719 0.0
C2062 C 0.33862 0.48668 0.53212 0.0
C2063 C 0.36622 0.50639 0.52254 0.0
H2064 H 0.48413 0.2548 0.51029 0.0
H2065 H 0.47351 0.18147 0.55772 0.0
H2066 H 0.43697 0.12943 0.54241 0.0
H2067 H 0.40601 0.10574 0.51626 0.0
H2068 H 0.41251 0.17906 0.46878 0.0
H2069 H 0.45372 0.22908 0.48323 0.0
C2070 C 0.47372 0.22752 0.51729 0.0
C2071 C 0.48154 0.22248 0.53527 0.0
C2072 C 0.45242 0.19727 0.50833 0.0
C2073 C 0.46797 0.18658 0.54399 0.0
C2074 C 0.44712 0.15655 0.53521 0.0
C2075 C 0.41668 0.13238 0.5089 0.0
C2076 C 0.40594 0.13855 0.49141 0.0
C2077 C 0.43906 0.16167 0.51745 0.0
C2078 C 0.42045 0.17316 0.48217 0.0
C2079 C 0.44366 0.20211 0.49053 0.0
H2080 H 0.40357 0.19166 0.2931 0.0
H2081 H 0.36422 0.06903 0.27666 0.0
H2082 H 0.31889 0.10297 0.25831 0.0
H2083 H 0.29105 0.16746 0.24601 0.0
H2084 H 0.3272 0.29014 0.26357 0.0
H2085 H 0.37312 0.25645 0.28208 0.0
C2086 C 0.38472 0.17236 0.28574 0.0
C2087 C 0.38762 0.12774 0.2863 0.0
C2088 C 0.35838 0.19215 0.27509 0.0
C2089 C 0.36292 0.1034 0.2765 0.0
C2090 C 0.33696 0.12278 0.26589 0.0
C2091 C 0.30921 0.18673 0.25379 0.0
C2092 C 0.30613 0.23118 0.25324 0.0
C2093 C 0.33475 0.1671 0.26485 0.0
C2094 C 0.32925 0.25581 0.26371 0.0
C2095 C 0.35542 0.23656 0.27434 0.0
H2096 H 0.49607 0.55877 0.24915 0.0
H2097 H 0.44825 0.43759 0.26109 0.0
H2098 H 0.4056 0.4718 0.28113 0.0
H2099 H 0.38132 0.53655 0.29491 0.0
H2100 H 0.43162 0.6573 0.28403 0.0
H2101 H 0.47433 0.62284 0.26437 0.0
C2102 C 0.47598 0.54006 0.25601 0.0
C2103 C 0.47468 0.49595 0.25342 0.0
C2104 C 0.45244 0.55976 0.26797 0.0
C2105 C 0.44933 0.47174 0.26274 0.0
C2106 C 0.42515 0.49123 0.27428 0.0
C2107 C 0.40206 0.55524 0.28853 0.0
C2108 C 0.40305 0.59956 0.29099 0.0
C2109 C 0.42651 0.53524 0.27706 0.0
C2110 C 0.43007 0.62318 0.28242 0.0
C2111 C 0.45441 0.60355 0.27104 0.0
H2112 H 0.65075 0.85123 0.02264 0.0
H2113 H 0.64902 0.93447 0.06727 0.0
H2114 H 0.69267 0.98145 0.0531 0.0
H2115 H 0.72929 0.00118 0.02728 0.0
H2116 H 0.72844 0.91898 0.98221 0.0
H2117 H 0.6881 0.87008 0.99717 0.0
C2118 C 0.66046 0.87918 0.02942 0.0
C2119 C 0.64677 0.88889 0.04613 0.0
C2120 C 0.68486 0.90689 0.02096 0.0
C2121 C 0.65917 0.92593 0.05448 0.0
C2122 C 0.68404 0.95303 0.04633 0.0
C2123 C 0.72034 0.97257 0.02072 0.0
C2124 C 0.73207 0.96422 1.00352 0.0
C2125 C 0.69667 0.94428 0.02942 0.0
C2126 C 0.71996 0.92674 0.99535 0.0
C2127 C 0.69686 0.89846 1.00395 0.0
H2128 H 0.65656 0.35832 1.01213 0.0
H2129 H 0.60274 0.34717 0.06175 0.0
H2130 H 0.5586 0.2982 0.04897 0.0
H2131 H 0.53683 0.25714 0.02403 0.0
H2132 H 0.59219 0.26511 0.97453 0.0
H2133 H 0.6349 0.31606 0.98701 0.0
C2134 C 0.63453 0.34588 0.01995 0.0
C2135 C 0.63189 0.35717 0.03766 0.0
C2136 C 0.61023 0.31653 1.01266 0.0
C2137 C 0.60444 0.33965 0.04798 0.0
C2138 C 0.57957 0.31137 0.04072 0.0
C2139 C 0.55828 0.26983 1.01593 0.0
C2140 C 0.56117 0.25727 0.99832 0.0
C2141 C 0.58249 0.29923 0.02314 0.0
C2142 C 0.58935 0.274 0.98812 0.0
C2143 C 0.61362 0.30341 0.99521 0.0
H2144 H 0.74802 0.31944 0.28465 0.0
H2145 H 0.69751 0.1984 0.27518 0.0
H2146 H 0.65318 0.23195 0.25593 0.0
H2147 H 0.62936 0.29524 0.24128 0.0
H2148 H 0.67937 0.41683 0.25033 0.0
H2149 H 0.72373 0.38356 0.26978 0.0
C2150 C 0.7269 0.30071 0.27857 0.0
C2151 C 0.72571 0.25664 0.28145 0.0
C2152 C 0.70198 0.32011 0.26706 0.0
C2153 C 0.69875 0.23246 0.27321 0.0
C2154 C 0.67358 0.25154 0.2621 0.0
C2155 C 0.65038 0.31438 0.24721 0.0
C2156 C 0.65131 0.3584 0.24412 0.0
C2157 C 0.67525 0.29522 0.2587 0.0
C2158 C 0.67826 0.3828 0.25233 0.0
C2159 C 0.70346 0.36385 0.26358 0.0
H2160 H 0.54308 0.91281 0.29131 0.0
H2161 H 0.58107 0.03242 0.27094 0.0
H2162 H 0.62561 -0.00437 0.25302 0.0
H2163 H 0.65363 0.92992 0.24291 0.0
H2164 H 0.61637 0.80953 0.26287 0.0
H2165 H 0.57137 0.84605 0.28085 0.0
C2166 C 0.56144 0.93071 0.2831 0.0
C2167 C 0.55889 0.97528 0.28252 0.0
C2168 C 0.58672 0.90922 0.2725 0.0
C2169 C 0.58248 -0.00192 0.27161 0.0
C2170 C 0.60788 0.97708 0.26129 0.0
C2171 C 0.63538 0.9115 0.25099 0.0
C2172 C 0.63833 0.86697 0.25141 0.0
C2173 C 0.61002 0.93268 0.2615 0.0
C2174 C 0.61465 0.84384 0.2622 0.0
C2175 C 0.58904 0.86472 0.27258 0.0
H2176 H 0.28181 0.00709 1.01071 0.0
H2177 H 0.33932 0.01428 0.05975 0.0
H2178 H 0.38256 0.06344 0.04672 0.0
H2179 H 0.40312 0.1052 0.02191 0.0
H2180 H 0.34772 0.09706 0.97238 0.0
H2181 H 0.30392 0.04765 0.98531 0.0
C2182 C 0.30391 0.01917 0.01857 0.0
C2183 C 0.30712 0.00702 0.03628 0.0
C2184 C 0.32862 0.04765 1.011 0.0
C2185 C 0.3361 0.02293 0.04615 0.0
C2186 C 0.36073 0.05127 0.03872 0.0
C2187 C 0.38126 0.09317 1.01388 0.0
C2188 C 0.3784 0.10551 0.99619 0.0
C2189 C 0.35696 0.06417 0.02125 0.0
C2190 C 0.35034 0.08853 0.98603 0.0
C2191 C 0.32546 0.06013 0.99341 0.0
H2192 H 0.4748 0.76105 1.01619 0.0
H2193 H 0.48177 0.67324 0.05939 0.0
H2194 H 0.44203 0.62399 0.04417 0.0
H2195 H 0.40402 0.60579 0.01892 0.0
H2196 H 0.39407 0.69442 0.97623 0.0
H2197 H 0.43625 0.74272 0.99076 0.0
C2198 C 0.46766 0.73115 0.02229 0.0
C2199 C 0.4815 0.72121 0.03903 0.0
C2200 C 0.44428 0.70275 1.01347 0.0
C2201 C 0.47162 0.68218 0.04663 0.0
C2202 C 0.44889 0.65374 0.03788 0.0
C2203 C 0.41143 0.63537 1.01263 0.0
C2204 C 0.39602 0.64602 0.99633 0.0
C2205 C 0.435 0.66362 0.02131 0.0
C2206 C 0.40556 0.68508 0.98867 0.0
C2207 C 0.42963 0.71288 0.99704 0.0
H2208 H 0.39179 0.69276 0.79239 0.0
H2209 H 0.35111 0.5689 0.77874 0.0
H2210 H 0.30502 0.60138 0.76011 0.0
H2211 H 0.27678 0.66546 0.74691 0.0
H2212 H 0.31729 0.7889 0.76117 0.0
H2213 H 0.363 0.75629 0.77989 0.0
C2214 C 0.37242 0.67286 0.78563 0.0
C2215 C 0.37488 0.62838 0.78715 0.0
C2216 C 0.34624 0.69173 0.77466 0.0
C2217 C 0.34984 0.60322 0.77793 0.0
C2218 C 0.32356 0.62177 0.76714 0.0
C2219 C 0.29589 0.68505 0.75399 0.0
C2220 C 0.29378 0.72954 0.75253 0.0
C2221 C 0.32175 0.66602 0.76518 0.0
C2222 C 0.31836 0.75457 0.76204 0.0
C2223 C 0.34444 0.73596 0.77284 0.0
H2224 H 0.49139 0.00466 0.77126 0.0
H2225 H 0.44747 0.0421 0.72132 0.0
H2226 H 0.40669 0.09222 0.73595 0.0
H2227 H 0.38297 0.12457 0.76311 0.0
H2228 H 0.42452 0.08296 0.81285 0.0
H2229 H 0.4676 0.03591 0.79809 0.0
C2230 C 0.47296 0.02378 0.7635 0.0
C2231 C 0.47266 0.01967 0.74516 0.0
C2232 C 0.44964 0.05227 0.77198 0.0
C2233 C 0.44824 0.04444 0.73542 0.0
C2234 C 0.42509 0.07331 0.74378 0.0
C2235 C 0.40214 0.10591 0.77064 0.0
C2236 C 0.4015 0.10799 0.78901 0.0
C2237 C 0.42569 0.07762 0.76205 0.0
C2238 C 0.42525 0.08246 0.79871 0.0
C2239 C 0.44955 0.05534 0.79027 0.0
loop_
_geom_bond_atom_site_label_1
_geom_bond_atom_site_label_2
_geom_bond_distance
_geom_bond_site_symmetry_2
_ccdc_geom_bond_type
Fe0 O2 1.918 . S
Fe0 O5 1.997 . S
Fe0 O6 2.002 1_455 S
Fe0 O11 1.976 . S
Fe0 O14 1.996 . S
Fe1 O2 1.918 . S
Fe1 O9 1.997 . S
Fe1 O12 1.996 . S
Fe1 O16 1.976 . S
Fe1 O19 2.002 . S
O2 Fe0 1.918 . S
O2 Fe1 1.918 . S
O2 Fe3 1.918 . S
Fe3 O2 1.918 . S
Fe3 O4 2.002 . S
Fe3 O13 1.976 . S
Fe3 O17 1.996 . S
Fe3 O20 1.997 . S
O4 Fe3 2.002 . S
O4 C21 1.295 . S
O5 Fe0 1.997 . S
O5 C21 1.235 . S
O6 Fe0 2.002 1_655 S
O6 C7 1.295 . S
C7 O6 1.295 . S
C7 O9 1.235 1_655 S
C8 O13 1.287 . S
C8 O14 1.255 . S
O9 Fe1 1.997 . S
O9 C7 1.235 1_455 S
C10 O16 1.287 . S
C10 O17 1.255 . S
O11 Fe0 1.976 . S
O11 C18 1.287 . S
O12 Fe1 1.996 . S
O12 C18 1.255 . S
O13 Fe3 1.976 . S
O13 C8 1.287 . S
O14 Fe0 1.996 . S
O14 C8 1.255 . S
C15 O19 1.295 . S
C15 O20 1.235 . S
O16 Fe1 1.976 . S
O16 C10 1.287 . S
O17 Fe3 1.996 . S
O17 C10 1.255 . S
C18 O11 1.287 . S
C18 O12 1.255 . S
O19 Fe1 2.002 . S
O19 C15 1.295 . S
O20 Fe3 1.997 . S
O20 C15 1.235 . S
C21 O4 1.295 . S
C21 O5 1.235 . S
Fe22 O24 1.918 . S
Fe22 O27 1.997 . S
Fe22 O28 2.002 . S
Fe22 O33 1.976 . S
Fe22 O36 1.996 . S
Fe23 O24 1.918 . S
Fe23 O31 1.997 . S
Fe23 O34 1.996 1_565 S
Fe23 O38 1.976 . S
Fe23 O41 2.002 . S
O24 Fe22 1.918 . S
O24 Fe23 1.918 . S
O24 Fe25 1.918 . S
Fe25 O24 1.918 . S
Fe25 O26 2.002 . S
Fe25 O35 1.976 . S
Fe25 O39 1.996 . S
Fe25 O42 1.997 . S
O26 Fe25 2.002 . S
O26 C43 1.295 . S
O27 Fe22 1.997 . S
O27 C43 1.235 . S
O28 Fe22 2.002 . S
O28 C29 1.295 . S
C29 O28 1.295 . S
C29 O31 1.235 . S
C30 O35 1.287 . S
C30 O36 1.255 . S
O31 Fe23 1.997 . S
O31 C29 1.235 . S
C32 O38 1.287 . S
C32 O39 1.255 . S
O33 Fe22 1.976 . S
O33 C40 1.287 1_565 S
O34 Fe23 1.996 1_545 S
O34 C40 1.255 . S
O35 Fe25 1.976 . S
O35 C30 1.287 . S
O36 Fe22 1.996 . S
O36 C30 1.255 . S
C37 O41 1.295 . S
C37 O42 1.235 . S
O38 Fe23 1.976 . S
O38 C32 1.287 . S
O39 Fe25 1.996 . S
O39 C32 1.255 . S
C40 O33 1.287 1_545 S
C40 O34 1.255 . S
O41 Fe23 2.002 . S
O41 C37 1.295 . S
O42 Fe25 1.997 . S
O42 C37 1.235 . S
C43 O26 1.295 . S
C43 O27 1.235 . S
Fe44 O46 1.918 . S
Fe44 O49 1.997 . S
Fe44 O50 2.002 1_455 S
Fe44 O55 1.976 . S
Fe44 O58 1.996 1_565 S
Fe45 O46 1.918 . S
Fe45 O53 1.997 . S
Fe45 O56 1.996 . S
Fe45 O60 1.976 . S
Fe45 O63 2.002 . S
O46 Fe44 1.918 . S
O46 Fe45 1.918 . S
O46 Fe47 1.918 . S
Fe47 O46 1.918 . S
Fe47 O48 2.002 . S
Fe47 O57 1.976 . S
Fe47 O61 1.996 . S
Fe47 O64 1.997 . S
O48 Fe47 2.002 . S
O48 C65 1.295 . S
O49 Fe44 1.997 . S
O49 C65 1.235 . S
O50 Fe44 2.002 1_655 S
O50 C51 1.295 . S
C51 O50 1.295 . S
C51 O53 1.235 1_655 S
C52 O57 1.287 1_545 S
C52 O58 1.255 . S
O53 Fe45 1.997 . S
O53 C51 1.235 1_455 S
C54 O60 1.287 . S
C54 O61 1.255 . S
O55 Fe44 1.976 . S
O55 C62 1.287 . S
O56 Fe45 1.996 . S
O56 C62 1.255 . S
O57 Fe47 1.976 . S
O57 C52 1.287 1_565 S
O58 Fe44 1.996 1_545 S
O58 C52 1.255 . S
C59 O63 1.295 . S
C59 O64 1.235 . S
O60 Fe45 1.976 . S
O60 C54 1.287 . S
O61 Fe47 1.996 . S
O61 C54 1.255 . S
C62 O55 1.287 . S
C62 O56 1.255 . S
O63 Fe45 2.002 . S
O63 C59 1.295 . S
O64 Fe47 1.997 . S
O64 C59 1.235 . S
C65 O48 1.295 . S
C65 O49 1.235 . S
Fe66 O68 1.918 . S
Fe66 O71 1.997 . S
Fe66 O72 2.002 . S
Fe66 O77 1.976 . S
Fe66 O80 1.996 . S
Fe67 O68 1.918 . S
Fe67 O75 1.997 . S
Fe67 O78 1.996 . S
Fe67 O82 1.976 . S
Fe67 O85 2.002 . S
O68 Fe66 1.918 . S
O68 Fe67 1.918 . S
O68 Fe69 1.918 . S
Fe69 O68 1.918 . S
Fe69 O70 2.002 . S
Fe69 O79 1.976 . S
Fe69 O83 1.996 . S
Fe69 O86 1.997 . S
O70 Fe69 2.002 . S
O70 C87 1.295 . S
O71 Fe66 1.997 . S
O71 C87 1.235 . S
O72 Fe66 2.002 . S
O72 C73 1.295 . S
C73 O72 1.295 . S
C73 O75 1.235 . S
C74 O79 1.287 . S
C74 O80 1.255 . S
O75 Fe67 1.997 . S
O75 C73 1.235 . S
C76 O82 1.287 . S
C76 O83 1.255 . S
O77 Fe66 1.976 . S
O77 C84 1.287 . S
O78 Fe67 1.996 . S
O78 C84 1.255 . S
O79 Fe69 1.976 . S
O79 C74 1.287 . S
O80 Fe66 1.996 . S
O80 C74 1.255 . S
C81 O85 1.295 . S
C81 O86 1.235 . S
O82 Fe67 1.976 . S
O82 C76 1.287 . S
O83 Fe69 1.996 . S
O83 C76 1.255 . S
C84 O77 1.287 . S
C84 O78 1.255 . S
O85 Fe67 2.002 . S
O85 C81 1.295 . S
O86 Fe69 1.997 . S
O86 C81 1.235 . S
C87 O70 1.295 . S
C87 O71 1.235 . S
Fe88 O90 1.918 . S
Fe88 O93 1.997 . S
Fe88 O94 2.002 . S
Fe88 O99 1.976 . S
Fe88 O102 1.996 . S
Fe89 O90 1.918 . S
Fe89 O97 1.997 . S
Fe89 O100 1.996 . S
Fe89 O104 1.976 . S
Fe89 O107 2.002 . S
O90 Fe88 1.918 . S
O90 Fe89 1.918 . S
O90 Fe91 1.918 . S
Fe91 O90 1.918 . S
Fe91 O92 1.995 1_655 S
Fe91 O101 1.976 . S
Fe91 O105 1.996 . S
Fe91 O108 1.997 1_655 S
O92 Fe91 1.995 1_455 S
O92 C109 1.295 1_455 S
O93 Fe88 1.997 . S
O93 C109 1.235 . S
O94 Fe88 2.002 . S
O94 C95 1.295 . S
C95 O94 1.295 . S
C95 O97 1.235 . S
C96 O101 1.287 . S
C96 O102 1.255 . S
O97 Fe89 1.997 . S
O97 C95 1.235 . S
C98 O104 1.287 . S
C98 O105 1.255 . S
O99 Fe88 1.976 . S
O99 C106 1.287 . S
O100 Fe89 1.996 . S
O100 C106 1.255 . S
O101 Fe91 1.976 . S
O101 C96 1.287 . S
O102 Fe88 1.996 . S
O102 C96 1.255 . S
C103 O107 1.295 1_455 S
C103 O108 1.235 . S
O104 Fe89 1.976 . S
O104 C98 1.287 . S
O105 Fe91 1.996 . S
O105 C98 1.255 . S
C106 O99 1.287 . S
C106 O100 1.255 . S
O107 Fe89 2.002 . S
O107 C103 1.295 1_655 S
O108 Fe91 1.997 1_455 S
O108 C103 1.235 . S
C109 O92 1.295 1_655 S
C109 O93 1.235 . S
Fe110 O112 1.918 . S
Fe110 O115 1.997 . S
Fe110 O116 2.002 . S
Fe110 O121 1.976 1_545 S
Fe110 O124 1.996 . S
Fe111 O112 1.918 . S
Fe111 O119 1.997 . S
Fe111 O122 1.996 . S
Fe111 O126 1.976 . S
Fe111 O129 2.002 . S
O112 Fe110 1.918 . S
O112 Fe111 1.918 . S
O112 Fe113 1.918 . S
Fe113 O112 1.918 . S
Fe113 O114 2.002 . S
Fe113 O123 1.976 . S
Fe113 O127 1.996 . S
Fe113 O130 1.997 . S
O114 Fe113 2.002 . S
O114 C131 1.295 . S
O115 Fe110 1.997 . S
O115 C131 1.235 . S
O116 Fe110 2.002 . S
O116 C117 1.295 . S
C117 O116 1.295 . S
C117 O119 1.235 . S
C118 O123 1.287 . S
C118 O124 1.255 . S
O119 Fe111 1.997 . S
O119 C117 1.235 . S
C120 O126 1.287 . S
C120 O127 1.255 . S
O121 Fe110 1.976 1_565 S
O121 C128 1.287 . S
O122 Fe111 1.996 . S
O122 C128 1.255 1_545 S
O123 Fe113 1.976 . S
O123 C118 1.287 . S
O124 Fe110 1.996 . S
O124 C118 1.255 . S
C125 O129 1.295 . S
C125 O130 1.235 . S
O126 Fe111 1.976 . S
O126 C120 1.287 . S
O127 Fe113 1.996 . S
O127 C120 1.255 . S
C128 O121 1.287 . S
C128 O122 1.255 1_565 S
O129 Fe111 2.002 . S
O129 C125 1.295 . S
O130 Fe113 1.997 . S
O130 C125 1.235 . S
C131 O114 1.295 . S
C131 O115 1.235 . S
Fe132 O134 1.918 . S
Fe132 O137 1.997 . S
Fe132 O138 2.002 . S
Fe132 O143 1.976 . S
Fe132 O146 1.996 . S
Fe133 O134 1.918 . S
Fe133 O141 1.997 1_655 S
Fe133 O144 1.996 . S
Fe133 O148 1.976 1_545 S
Fe133 O151 1.995 1_655 S
O134 Fe132 1.918 . S
O134 Fe133 1.918 . S
O134 Fe135 1.918 . S
Fe135 O134 1.918 . S
Fe135 O136 2.002 . S
Fe135 O145 1.976 . S
Fe135 O149 1.996 . S
Fe135 O152 1.997 . S
O136 Fe135 2.002 . S
O136 C153 1.295 . S
O137 Fe132 1.997 . S
O137 C153 1.235 . S
O138 Fe132 2.002 . S
O138 C139 1.295 1_655 S
C139 O138 1.295 1_455 S
C139 O141 1.235 . S
C140 O145 1.287 . S
C140 O146 1.255 . S
O141 Fe133 1.997 1_455 S
O141 C139 1.235 . S
C142 O148 1.287 . S
C142 O149 1.255 1_565 S
O143 Fe132 1.976 . S
O143 C150 1.287 . S
O144 Fe133 1.996 . S
O144 C150 1.255 . S
O145 Fe135 1.976 . S
O145 C140 1.287 . S
O146 Fe132 1.996 . S
O146 C140 1.255 . S
C147 O151 1.295 1_655 S
C147 O152 1.235 . S
O148 Fe133 1.976 1_565 S
O148 C142 1.287 . S
O149 Fe135 1.996 . S
O149 C142 1.255 1_545 S
C150 O143 1.287 . S
C150 O144 1.255 . S
O151 Fe133 1.995 1_455 S
O151 C147 1.295 1_455 S
O152 Fe135 1.997 . S
O152 C147 1.235 . S
C153 O136 1.295 . S
C153 O137 1.235 . S
Fe154 O156 1.918 . S
Fe154 O159 1.997 . S
Fe154 O160 2.002 . S
Fe154 O165 1.976 . S
Fe154 O168 1.996 . S
Fe155 O156 1.918 . S
Fe155 O163 1.997 . S
Fe155 O166 1.996 . S
Fe155 O170 1.976 . S
Fe155 O173 2.002 . S
O156 Fe154 1.918 . S
O156 Fe155 1.918 . S
O156 Fe157 1.918 . S
Fe157 O156 1.918 . S
Fe157 O158 2.002 . S
Fe157 O167 1.976 . S
Fe157 O171 1.996 . S
Fe157 O174 1.997 . S
O158 Fe157 2.002 . S
O158 C175 1.295 . S
O159 Fe154 1.997 . S
O159 C175 1.235 . S
O160 Fe154 2.002 . S
O160 C161 1.295 . S
C161 O160 1.295 . S
C161 O163 1.235 . S
C162 O167 1.287 . S
C162 O168 1.255 . S
O163 Fe155 1.997 . S
O163 C161 1.235 . S
C164 O170 1.287 . S
C164 O171 1.255 . S
O165 Fe154 1.976 . S
O165 C172 1.287 . S
O166 Fe155 1.996 . S
O166 C172 1.255 . S
O167 Fe157 1.976 . S
O167 C162 1.287 . S
O168 Fe154 1.996 . S
O168 C162 1.255 . S
C169 O173 1.295 . S
C169 O174 1.235 . S
O170 Fe155 1.976 . S
O170 C164 1.287 . S
O171 Fe157 1.996 . S
O171 C164 1.255 . S
C172 O165 1.287 . S
C172 O166 1.255 . S
O173 Fe155 2.002 . S
O173 C169 1.295 . S
O174 Fe157 1.997 . S
O174 C169 1.235 . S
C175 O158 1.295 . S
C175 O159 1.235 . S
Fe176 O178 1.918 . S
Fe176 O181 1.997 . S
Fe176 O182 2.002 . S
Fe176 O187 1.976 . S
Fe176 O190 1.996 . S
Fe177 O178 1.918 . S
Fe177 O185 1.997 . S
Fe177 O188 1.996 . S
Fe177 O192 1.976 . S
Fe177 O195 2.002 . S
O178 Fe176 1.918 . S
O178 Fe177 1.918 . S
O178 Fe179 1.918 . S
Fe179 O178 1.918 . S
Fe179 O180 2.002 1_455 S
Fe179 O189 1.976 . S
Fe179 O193 1.996 . S
Fe179 O196 1.997 . S
O180 Fe179 2.002 1_655 S
O180 C197 1.295 . S
O181 Fe176 1.997 . S
O181 C197 1.235 1_455 S
O182 Fe176 2.002 . S
O182 C183 1.295 . S
C183 O182 1.295 . S
C183 O185 1.235 . S
C184 O189 1.287 . S
C184 O190 1.255 . S
O185 Fe177 1.997 . S
O185 C183 1.235 . S
C186 O192 1.287 . S
C186 O193 1.255 . S
O187 Fe176 1.976 . S
O187 C194 1.287 . S
O188 Fe177 1.996 . S
O188 C194 1.255 . S
O189 Fe179 1.976 . S
O189 C184 1.287 . S
O190 Fe176 1.996 . S
O190 C184 1.255 . S
C191 O195 1.295 . S
C191 O196 1.235 . S
O192 Fe177 1.976 . S
O192 C186 1.287 . S
O193 Fe179 1.996 . S
O193 C186 1.255 . S
C194 O187 1.287 . S
C194 O188 1.255 . S
O195 Fe177 2.002 . S
O195 C191 1.295 . S
O196 Fe179 1.997 . S
O196 C191 1.235 . S
C197 O180 1.295 . S
C197 O181 1.235 1_655 S
Fe198 O200 1.918 . S
Fe198 O203 1.997 . S
Fe198 O204 2.002 . S
Fe198 O209 1.976 . S
Fe198 O212 1.996 . S
Fe199 O200 1.918 . S
Fe199 O207 1.997 . S
Fe199 O210 1.996 . S
Fe199 O214 1.976 . S
Fe199 O217 2.002 . S
O200 Fe198 1.918 . S
O200 Fe199 1.918 . S
O200 Fe201 1.918 . S
Fe201 O200 1.918 . S
Fe201 O202 2.002 . S
Fe201 O211 1.976 . S
Fe201 O215 1.996 . S
Fe201 O218 1.997 . S
O202 Fe201 2.002 . S
O202 C219 1.295 . S
O203 Fe198 1.997 . S
O203 C219 1.235 . S
O204 Fe198 2.002 . S
O204 C205 1.295 . S
C205 O204 1.295 . S
C205 O207 1.235 . S
C206 O211 1.287 . S
C206 O212 1.255 . S
O207 Fe199 1.997 . S
O207 C205 1.235 . S
C208 O214 1.287 . S
C208 O215 1.255 . S
O209 Fe198 1.976 . S
O209 C216 1.287 . S
O210 Fe199 1.996 . S
O210 C216 1.255 . S
O211 Fe201 1.976 . S
O211 C206 1.287 . S
O212 Fe198 1.996 . S
O212 C206 1.255 . S
C213 O217 1.295 . S
C213 O218 1.235 . S
O214 Fe199 1.976 . S
O214 C208 1.287 . S
O215 Fe201 1.996 . S
O215 C208 1.255 . S
C216 O209 1.287 . S
C216 O210 1.255 . S
O217 Fe199 2.002 . S
O217 C213 1.295 . S
O218 Fe201 1.997 . S
O218 C213 1.235 . S
C219 O202 1.295 . S
C219 O203 1.235 . S
Fe220 O222 1.918 . S
Fe220 O225 1.997 . S
Fe220 O226 2.002 1_455 S
Fe220 O231 1.976 . S
Fe220 O234 1.996 . S
Fe221 O222 1.918 . S
Fe221 O229 1.997 . S
Fe221 O232 1.996 . S
Fe221 O236 1.976 . S
Fe221 O239 2.002 . S
O222 Fe220 1.918 . S
O222 Fe221 1.918 . S
O222 Fe223 1.918 . S
Fe223 O222 1.918 . S
Fe223 O224 2.002 . S
Fe223 O233 1.976 . S
Fe223 O237 1.996 . S
Fe223 O240 1.997 . S
O224 Fe223 2.002 . S
O224 C241 1.295 . S
O225 Fe220 1.997 . S
O225 C241 1.235 . S
O226 Fe220 2.002 1_655 S
O226 C227 1.295 . S
C227 O226 1.295 . S
C227 O229 1.235 1_655 S
C228 O233 1.287 . S
C228 O234 1.255 . S
O229 Fe221 1.997 . S
O229 C227 1.235 1_455 S
C230 O236 1.287 . S
C230 O237 1.255 . S
O231 Fe220 1.976 . S
O231 C238 1.287 . S
O232 Fe221 1.996 . S
O232 C238 1.255 . S
O233 Fe223 1.976 . S
O233 C228 1.287 . S
O234 Fe220 1.996 . S
O234 C228 1.255 . S
C235 O239 1.295 . S
C235 O240 1.235 . S
O236 Fe221 1.976 . S
O236 C230 1.287 . S
O237 Fe223 1.996 . S
O237 C230 1.255 . S
C238 O231 1.287 . S
C238 O232 1.255 . S
O239 Fe221 2.002 . S
O239 C235 1.295 . S
O240 Fe223 1.997 . S
O240 C235 1.235 . S
C241 O224 1.295 . S
C241 O225 1.235 . S
Fe242 O244 1.918 . S
Fe242 O247 1.997 . S
Fe242 O248 2.002 . S
Fe242 O253 1.976 . S
Fe242 O256 1.996 . S
Fe243 O244 1.918 . S
Fe243 O251 1.997 . S
Fe243 O254 1.996 . S
Fe243 O258 1.976 . S
Fe243 O261 2.002 . S
O244 Fe242 1.918 . S
O244 Fe243 1.918 . S
O244 Fe245 1.918 . S
Fe245 O244 1.918 . S
Fe245 O246 2.002 . S
Fe245 O255 1.976 . S
Fe245 O259 1.996 . S
Fe245 O262 1.997 . S
O246 Fe245 2.002 . S
O246 C263 1.295 . S
O247 Fe242 1.997 . S
O247 C263 1.235 . S
O248 Fe242 2.002 . S
O248 C249 1.295 . S
C249 O248 1.295 . S
C249 O251 1.235 . S
C250 O255 1.287 . S
C250 O256 1.255 . S
O251 Fe243 1.997 . S
O251 C249 1.235 . S
C252 O258 1.287 . S
C252 O259 1.255 . S
O253 Fe242 1.976 . S
O253 C260 1.287 . S
O254 Fe243 1.996 . S
O254 C260 1.255 . S
O255 Fe245 1.976 . S
O255 C250 1.287 . S
O256 Fe242 1.996 . S
O256 C250 1.255 . S
C257 O261 1.295 . S
C257 O262 1.235 . S
O258 Fe243 1.976 . S
O258 C252 1.287 . S
O259 Fe245 1.996 . S
O259 C252 1.255 . S
C260 O253 1.287 . S
C260 O254 1.255 . S
O261 Fe243 2.002 . S
O261 C257 1.295 . S
O262 Fe245 1.997 . S
O262 C257 1.235 . S
C263 O246 1.295 . S
C263 O247 1.235 . S
Fe264 O266 1.918 . S
Fe264 O269 1.997 . S
Fe264 O270 2.002 . S
Fe264 O275 1.976 . S
Fe264 O278 1.996 . S
Fe265 O266 1.918 . S
Fe265 O273 1.997 . S
Fe265 O276 1.996 . S
Fe265 O280 1.976 . S
Fe265 O283 2.002 . S
O266 Fe264 1.918 . S
O266 Fe265 1.918 . S
O266 Fe267 1.918 . S
Fe267 O266 1.918 . S
Fe267 O268 1.995 1_655 S
Fe267 O277 1.976 . S
Fe267 O281 1.996 . S
Fe267 O284 1.997 1_655 S
O268 Fe267 1.995 1_455 S
O268 C285 1.295 1_455 S
O269 Fe264 1.997 . S
O269 C285 1.235 . S
O270 Fe264 2.002 . S
O270 C271 1.295 . S
C271 O270 1.295 . S
C271 O273 1.235 . S
C272 O277 1.287 . S
C272 O278 1.255 . S
O273 Fe265 1.997 . S
O273 C271 1.235 . S
C274 O280 1.287 . S
C274 O281 1.255 . S
O275 Fe264 1.976 . S
O275 C282 1.287 . S
O276 Fe265 1.996 . S
O276 C282 1.255 . S
O277 Fe267 1.976 . S
O277 C272 1.287 . S
O278 Fe264 1.996 . S
O278 C272 1.255 . S
C279 O283 1.295 1_455 S
C279 O284 1.235 . S
O280 Fe265 1.976 . S
O280 C274 1.287 . S
O281 Fe267 1.996 . S
O281 C274 1.255 . S
C282 O275 1.287 . S
C282 O276 1.255 . S
O283 Fe265 2.002 . S
O283 C279 1.295 1_655 S
O284 Fe267 1.997 1_455 S
O284 C279 1.235 . S
C285 O268 1.295 1_655 S
C285 O269 1.235 . S
Fe286 O288 1.918 . S
Fe286 O291 1.997 . S
Fe286 O292 2.002 . S
Fe286 O297 1.976 . S
Fe286 O300 1.996 . S
Fe287 O288 1.918 . S
Fe287 O295 1.997 . S
Fe287 O298 1.996 . S
Fe287 O302 1.976 . S
Fe287 O305 2.002 . S
O288 Fe286 1.918 . S
O288 Fe287 1.918 . S
O288 Fe289 1.918 . S
Fe289 O288 1.918 . S
Fe289 O290 2.002 . S
Fe289 O299 1.976 . S
Fe289 O303 1.996 . S
Fe289 O306 1.997 . S
O290 Fe289 2.002 . S
O290 C307 1.295 . S
O291 Fe286 1.997 . S
O291 C307 1.235 . S
O292 Fe286 2.002 . S
O292 C293 1.295 . S
C293 O292 1.295 . S
C293 O295 1.235 . S
C294 O299 1.287 . S
C294 O300 1.255 . S
O295 Fe287 1.997 . S
O295 C293 1.235 . S
C296 O302 1.287 . S
C296 O303 1.255 . S
O297 Fe286 1.976 . S
O297 C304 1.287 . S
O298 Fe287 1.996 . S
O298 C304 1.255 . S
O299 Fe289 1.976 . S
O299 C294 1.287 . S
O300 Fe286 1.996 . S
O300 C294 1.255 . S
C301 O305 1.295 . S
C301 O306 1.235 . S
O302 Fe287 1.976 . S
O302 C296 1.287 . S
O303 Fe289 1.996 . S
O303 C296 1.255 . S
C304 O297 1.287 . S
C304 O298 1.255 . S
O305 Fe287 2.002 . S
O305 C301 1.295 . S
O306 Fe289 1.997 . S
O306 C301 1.235 . S
C307 O290 1.295 . S
C307 O291 1.235 . S
Fe308 O310 1.918 . S
Fe308 O313 1.997 . S
Fe308 O314 2.002 . S
Fe308 O319 1.976 . S
Fe308 O322 1.996 . S
Fe309 O310 1.918 . S
Fe309 O317 1.997 1_655 S
Fe309 O320 1.996 . S
Fe309 O324 1.976 . S
Fe309 O327 1.995 1_655 S
O310 Fe308 1.918 . S
O310 Fe309 1.918 . S
O310 Fe311 1.918 . S
Fe311 O310 1.918 . S
Fe311 O312 2.002 . S
Fe311 O321 1.976 . S
Fe311 O325 1.996 . S
Fe311 O328 1.997 . S
O312 Fe311 2.002 . S
O312 C329 1.295 . S
O313 Fe308 1.997 . S
O313 C329 1.235 . S
O314 Fe308 2.002 . S
O314 C315 1.295 1_655 S
C315 O314 1.295 1_455 S
C315 O317 1.235 . S
C316 O321 1.287 . S
C316 O322 1.255 . S
O317 Fe309 1.997 1_455 S
O317 C315 1.235 . S
C318 O324 1.287 . S
C318 O325 1.255 . S
O319 Fe308 1.976 . S
O319 C326 1.287 . S
O320 Fe309 1.996 . S
O320 C326 1.255 . S
O321 Fe311 1.976 . S
O321 C316 1.287 . S
O322 Fe308 1.996 . S
O322 C316 1.255 . S
C323 O327 1.295 1_655 S
C323 O328 1.235 . S
O324 Fe309 1.976 . S
O324 C318 1.287 . S
O325 Fe311 1.996 . S
O325 C318 1.255 . S
C326 O319 1.287 . S
C326 O320 1.255 . S
O327 Fe309 1.995 1_455 S
O327 C323 1.295 1_455 S
O328 Fe311 1.997 . S
O328 C323 1.235 . S
C329 O312 1.295 . S
C329 O313 1.235 . S
Fe330 O332 1.918 . S
Fe330 O335 1.997 . S
Fe330 O336 2.002 . S
Fe330 O341 1.976 . S
Fe330 O344 1.996 . S
Fe331 O332 1.918 . S
Fe331 O339 1.997 . S
Fe331 O342 1.996 . S
Fe331 O346 1.976 . S
Fe331 O349 2.002 . S
O332 Fe330 1.918 . S
O332 Fe331 1.918 . S
O332 Fe333 1.918 . S
Fe333 O332 1.918 . S
Fe333 O334 2.002 . S
Fe333 O343 1.976 . S
Fe333 O347 1.996 . S
Fe333 O350 1.997 . S
O334 Fe333 2.002 . S
O334 C351 1.295 . S
O335 Fe330 1.997 . S
O335 C351 1.235 . S
O336 Fe330 2.002 . S
O336 C337 1.295 . S
C337 O336 1.295 . S
C337 O339 1.235 . S
C338 O343 1.287 . S
C338 O344 1.255 . S
O339 Fe331 1.997 . S
O339 C337 1.235 . S
C340 O346 1.287 . S
C340 O347 1.255 . S
O341 Fe330 1.976 . S
O341 C348 1.287 . S
O342 Fe331 1.996 . S
O342 C348 1.255 . S
O343 Fe333 1.976 . S
O343 C338 1.287 . S
O344 Fe330 1.996 . S
O344 C338 1.255 . S
C345 O349 1.295 . S
C345 O350 1.235 . S
O346 Fe331 1.976 . S
O346 C340 1.287 . S
O347 Fe333 1.996 . S
O347 C340 1.255 . S
C348 O341 1.287 . S
C348 O342 1.255 . S
O349 Fe331 2.002 . S
O349 C345 1.295 . S
O350 Fe333 1.997 . S
O350 C345 1.235 . S
C351 O334 1.295 . S
C351 O335 1.235 . S
Fe352 O354 1.918 . S
Fe352 O357 1.997 . S
Fe352 O358 2.002 . S
Fe352 O363 1.976 . S
Fe352 O366 1.996 . S
Fe353 O354 1.918 . S
Fe353 O361 1.997 . S
Fe353 O364 1.996 . S
Fe353 O368 1.976 . S
Fe353 O371 2.002 . S
O354 Fe352 1.918 . S
O354 Fe353 1.918 . S
O354 Fe355 1.918 . S
Fe355 O354 1.918 . S
Fe355 O356 2.002 . S
Fe355 O365 1.976 . S
Fe355 O369 1.996 . S
Fe355 O372 1.997 . S
O356 Fe355 2.002 . S
O356 C373 1.295 . S
O357 Fe352 1.997 . S
O357 C373 1.235 . S
O358 Fe352 2.002 . S
O358 C359 1.295 . S
C359 O358 1.295 . S
C359 O361 1.235 . S
C360 O365 1.287 . S
C360 O366 1.255 . S
O361 Fe353 1.997 . S
O361 C359 1.235 . S
C362 O368 1.287 . S
C362 O369 1.255 . S
O363 Fe352 1.976 . S
O363 C370 1.287 . S
O364 Fe353 1.996 . S
O364 C370 1.255 . S
O365 Fe355 1.976 . S
O365 C360 1.287 . S
O366 Fe352 1.996 . S
O366 C360 1.255 . S
C367 O371 1.295 . S
C367 O372 1.235 . S
O368 Fe353 1.976 . S
O368 C362 1.287 . S
O369 Fe355 1.996 . S
O369 C362 1.255 . S
C370 O363 1.287 . S
C370 O364 1.255 . S
O371 Fe353 2.002 . S
O371 C367 1.295 . S
O372 Fe355 1.997 . S
O372 C367 1.235 . S
C373 O356 1.295 . S
C373 O357 1.235 . S
Fe374 O376 1.918 . S
Fe374 O379 1.997 . S
Fe374 O380 2.002 . S
Fe374 O385 1.976 . S
Fe374 O388 1.996 . S
Fe375 O376 1.918 . S
Fe375 O383 1.997 . S
Fe375 O386 1.996 1_565 S
Fe375 O390 1.976 . S
Fe375 O393 2.002 . S
O376 Fe374 1.918 . S
O376 Fe375 1.918 . S
O376 Fe377 1.918 . S
Fe377 O376 1.918 . S
Fe377 O378 2.002 . S
Fe377 O387 1.976 . S
Fe377 O391 1.996 . S
Fe377 O394 1.997 . S
O378 Fe377 2.002 . S
O378 C395 1.295 . S
O379 Fe374 1.997 . S
O379 C395 1.235 . S
O380 Fe374 2.002 . S
O380 C381 1.295 . S
C381 O380 1.295 . S
C381 O383 1.235 . S
C382 O387 1.287 . S
C382 O388 1.255 . S
O383 Fe375 1.997 . S
O383 C381 1.235 . S
C384 O390 1.287 . S
C384 O391 1.255 . S
O385 Fe374 1.976 . S
O385 C392 1.287 1_565 S
O386 Fe375 1.996 1_545 S
O386 C392 1.255 . S
O387 Fe377 1.976 . S
O387 C382 1.287 . S
O388 Fe374 1.996 . S
O388 C382 1.255 . S
C389 O393 1.295 . S
C389 O394 1.235 . S
O390 Fe375 1.976 . S
O390 C384 1.287 . S
O391 Fe377 1.996 . S
O391 C384 1.255 . S
C392 O385 1.287 1_545 S
C392 O386 1.255 . S
O393 Fe375 2.002 . S
O393 C389 1.295 . S
O394 Fe377 1.997 . S
O394 C389 1.235 . S
C395 O378 1.295 . S
C395 O379 1.235 . S
Fe396 O398 1.918 . S
Fe396 O401 1.997 . S
Fe396 O402 2.002 . S
Fe396 O407 1.976 . S
Fe396 O410 1.996 . S
Fe397 O398 1.918 . S
Fe397 O405 1.997 . S
Fe397 O408 1.996 . S
Fe397 O412 1.976 . S
Fe397 O415 2.002 . S
O398 Fe396 1.918 . S
O398 Fe397 1.918 . S
O398 Fe399 1.918 . S
Fe399 O398 1.918 . S
Fe399 O400 2.002 . S
Fe399 O409 1.976 . S
Fe399 O413 1.996 1_565 S
Fe399 O416 1.997 . S
O400 Fe399 2.002 . S
O400 C417 1.295 . S
O401 Fe396 1.997 . S
O401 C417 1.235 . S
O402 Fe396 2.002 . S
O402 C403 1.295 . S
C403 O402 1.295 . S
C403 O405 1.235 . S
C404 O409 1.287 . S
C404 O410 1.255 . S
O405 Fe397 1.997 . S
O405 C403 1.235 . S
C406 O412 1.287 1_545 S
C406 O413 1.255 . S
O407 Fe396 1.976 . S
O407 C414 1.287 . S
O408 Fe397 1.996 . S
O408 C414 1.255 . S
O409 Fe399 1.976 . S
O409 C404 1.287 . S
O410 Fe396 1.996 . S
O410 C404 1.255 . S
C411 O415 1.295 . S
C411 O416 1.235 . S
O412 Fe397 1.976 . S
O412 C406 1.287 1_565 S
O413 Fe399 1.996 1_545 S
O413 C406 1.255 . S
C414 O407 1.287 . S
C414 O408 1.255 . S
O415 Fe397 2.002 . S
O415 C411 1.295 . S
O416 Fe399 1.997 . S
O416 C411 1.235 . S
C417 O400 1.295 . S
C417 O401 1.235 . S
Fe418 O420 1.918 . S
Fe418 O423 1.997 . S
Fe418 O424 2.002 . S
Fe418 O429 1.976 . S
Fe418 O432 1.996 . S
Fe419 O420 1.918 . S
Fe419 O427 1.997 . S
Fe419 O430 1.996 . S
Fe419 O434 1.976 . S
Fe419 O437 2.002 . S
O420 Fe418 1.918 . S
O420 Fe419 1.918 . S
O420 Fe421 1.918 . S
Fe421 O420 1.918 . S
Fe421 O422 2.002 . S
Fe421 O431 1.976 . S
Fe421 O435 1.996 . S
Fe421 O438 1.997 . S
O422 Fe421 2.002 . S
O422 C439 1.295 . S
O423 Fe418 1.997 . S
O423 C439 1.235 . S
O424 Fe418 2.002 . S
O424 C425 1.295 . S
C425 O424 1.295 . S
C425 O427 1.235 . S
C426 O431 1.287 . S
C426 O432 1.255 . S
O427 Fe419 1.997 . S
O427 C425 1.235 . S
C428 O434 1.287 . S
C428 O435 1.255 . S
O429 Fe418 1.976 . S
O429 C436 1.287 . S
O430 Fe419 1.996 . S
O430 C436 1.255 . S
O431 Fe421 1.976 . S
O431 C426 1.287 . S
O432 Fe418 1.996 . S
O432 C426 1.255 . S
C433 O437 1.295 . S
C433 O438 1.235 . S
O434 Fe419 1.976 . S
O434 C428 1.287 . S
O435 Fe421 1.996 . S
O435 C428 1.255 . S
C436 O429 1.287 . S
C436 O430 1.255 . S
O437 Fe419 2.002 . S
O437 C433 1.295 . S
O438 Fe421 1.997 . S
O438 C433 1.235 . S
C439 O422 1.295 . S
C439 O423 1.235 . S
Fe440 O442 1.918 . S
Fe440 O445 1.997 . S
Fe440 O446 2.002 . S
Fe440 O451 1.976 . S
Fe440 O454 1.996 . S
Fe441 O442 1.918 . S
Fe441 O449 1.997 . S
Fe441 O452 1.996 . S
Fe441 O456 1.976 . S
Fe441 O459 2.002 . S
O442 Fe440 1.918 . S
O442 Fe441 1.918 . S
O442 Fe443 1.918 . S
Fe443 O442 1.918 . S
Fe443 O444 2.002 . S
Fe443 O453 1.976 . S
Fe443 O457 1.996 . S
Fe443 O460 1.997 . S
O444 Fe443 2.002 . S
O444 C461 1.295 . S
O445 Fe440 1.997 . S
O445 C461 1.235 . S
O446 Fe440 2.002 . S
O446 C447 1.295 . S
C447 O446 1.295 . S
C447 O449 1.235 . S
C448 O453 1.287 . S
C448 O454 1.255 . S
O449 Fe441 1.997 . S
O449 C447 1.235 . S
C450 O456 1.287 . S
C450 O457 1.255 . S
O451 Fe440 1.976 . S
O451 C458 1.287 . S
O452 Fe441 1.996 . S
O452 C458 1.255 . S
O453 Fe443 1.976 . S
O453 C448 1.287 . S
O454 Fe440 1.996 . S
O454 C448 1.255 . S
C455 O459 1.295 . S
C455 O460 1.235 . S
O456 Fe441 1.976 . S
O456 C450 1.287 . S
O457 Fe443 1.996 . S
O457 C450 1.255 . S
C458 O451 1.287 . S
C458 O452 1.255 . S
O459 Fe441 2.002 . S
O459 C455 1.295 . S
O460 Fe443 1.997 . S
O460 C455 1.235 . S
C461 O444 1.295 . S
C461 O445 1.235 . S
Fe462 O464 1.918 . S
Fe462 O467 1.997 . S
Fe462 O468 2.002 . S
Fe462 O473 1.976 1_545 S
Fe462 O476 1.996 . S
Fe463 O464 1.918 . S
Fe463 O471 1.997 . S
Fe463 O474 1.996 . S
Fe463 O478 1.976 . S
Fe463 O481 2.002 . S
O464 Fe462 1.918 . S
O464 Fe463 1.918 . S
O464 Fe465 1.918 . S
Fe465 O464 1.918 . S
Fe465 O466 2.002 . S
Fe465 O475 1.976 . S
Fe465 O479 1.996 . S
Fe465 O482 1.997 . S
O466 Fe465 2.002 . S
O466 C483 1.295 . S
O467 Fe462 1.997 . S
O467 C483 1.235 . S
O468 Fe462 2.002 . S
O468 C469 1.295 . S
C469 O468 1.295 . S
C469 O471 1.235 . S
C470 O475 1.287 . S
C470 O476 1.255 . S
O471 Fe463 1.997 . S
O471 C469 1.235 . S
C472 O478 1.287 . S
C472 O479 1.255 . S
O473 Fe462 1.976 1_565 S
O473 C480 1.287 . S
O474 Fe463 1.996 . S
O474 C480 1.255 1_545 S
O475 Fe465 1.976 . S
O475 C470 1.287 . S
O476 Fe462 1.996 . S
O476 C470 1.255 . S
C477 O481 1.295 . S
C477 O482 1.235 . S
O478 Fe463 1.976 . S
O478 C472 1.287 . S
O479 Fe465 1.996 . S
O479 C472 1.255 . S
C480 O473 1.287 . S
C480 O474 1.255 1_565 S
O481 Fe463 2.002 . S
O481 C477 1.295 . S
O482 Fe465 1.997 . S
O482 C477 1.235 . S
C483 O466 1.295 . S
C483 O467 1.235 . S
Fe484 O486 1.918 . S
Fe484 O489 1.997 . S
Fe484 O490 2.002 . S
Fe484 O495 1.976 1_545 S
Fe484 O498 1.996 . S
Fe485 O486 1.918 . S
Fe485 O493 1.997 . S
Fe485 O496 1.996 . S
Fe485 O500 1.976 . S
Fe485 O503 2.002 . S
O486 Fe484 1.918 . S
O486 Fe485 1.918 . S
O486 Fe487 1.918 . S
Fe487 O486 1.918 . S
Fe487 O488 2.002 . S
Fe487 O497 1.976 . S
Fe487 O501 1.996 . S
Fe487 O504 1.997 . S
O488 Fe487 2.002 . S
O488 C505 1.295 . S
O489 Fe484 1.997 . S
O489 C505 1.235 . S
O490 Fe484 2.002 . S
O490 C491 1.295 . S
C491 O490 1.295 . S
C491 O493 1.235 . S
C492 O497 1.287 . S
C492 O498 1.255 . S
O493 Fe485 1.997 . S
O493 C491 1.235 . S
C494 O500 1.287 . S
C494 O501 1.255 . S
O495 Fe484 1.976 1_565 S
O495 C502 1.287 . S
O496 Fe485 1.996 . S
O496 C502 1.255 1_545 S
O497 Fe487 1.976 . S
O497 C492 1.287 . S
O498 Fe484 1.996 . S
O498 C492 1.255 . S
C499 O503 1.295 . S
C499 O504 1.235 . S
O500 Fe485 1.976 . S
O500 C494 1.287 . S
O501 Fe487 1.996 . S
O501 C494 1.255 . S
C502 O495 1.287 . S
C502 O496 1.255 1_565 S
O503 Fe485 2.002 . S
O503 C499 1.295 . S
O504 Fe487 1.997 . S
O504 C499 1.235 . S
C505 O488 1.295 . S
C505 O489 1.235 . S
Fe506 O508 1.918 . S
Fe506 O511 1.997 . S
Fe506 O512 2.002 . S
Fe506 O517 1.976 . S
Fe506 O520 1.996 . S
Fe507 O508 1.918 . S
Fe507 O515 1.997 . S
Fe507 O518 1.996 . S
Fe507 O522 1.976 . S
Fe507 O525 2.002 . S
O508 Fe506 1.918 . S
O508 Fe507 1.918 . S
O508 Fe509 1.918 . S
Fe509 O508 1.918 . S
Fe509 O510 2.002 . S
Fe509 O519 1.976 . S
Fe509 O523 1.996 . S
Fe509 O526 1.997 . S
O510 Fe509 2.002 . S
O510 C527 1.295 . S
O511 Fe506 1.997 . S
O511 C527 1.235 . S
O512 Fe506 2.002 . S
O512 C513 1.295 . S
C513 O512 1.295 . S
C513 O515 1.235 . S
C514 O519 1.287 . S
C514 O520 1.255 . S
O515 Fe507 1.997 . S
O515 C513 1.235 . S
C516 O522 1.287 . S
C516 O523 1.255 . S
O517 Fe506 1.976 . S
O517 C524 1.287 . S
O518 Fe507 1.996 . S
O518 C524 1.255 . S
O519 Fe509 1.976 . S
O519 C514 1.287 . S
O520 Fe506 1.996 . S
O520 C514 1.255 . S
C521 O525 1.295 . S
C521 O526 1.235 . S
O522 Fe507 1.976 . S
O522 C516 1.287 . S
O523 Fe509 1.996 . S
O523 C516 1.255 . S
C524 O517 1.287 . S
C524 O518 1.255 . S
O525 Fe507 2.002 . S
O525 C521 1.295 . S
O526 Fe509 1.997 . S
O526 C521 1.235 . S
C527 O510 1.295 . S
C527 O511 1.235 . S
Fe528 O530 1.918 . S
Fe528 O533 1.997 . S
Fe528 O534 2.002 . S
Fe528 O539 1.976 . S
Fe528 O542 1.996 . S
Fe529 O530 1.918 . S
Fe529 O537 1.997 . S
Fe529 O540 1.996 . S
Fe529 O544 1.976 . S
Fe529 O547 2.002 . S
O530 Fe528 1.918 . S
O530 Fe529 1.918 . S
O530 Fe531 1.918 . S
Fe531 O530 1.918 . S
Fe531 O532 2.002 . S
Fe531 O541 1.976 . S
Fe531 O545 1.996 . S
Fe531 O548 1.997 . S
O532 Fe531 2.002 . S
O532 C549 1.295 . S
O533 Fe528 1.997 . S
O533 C549 1.235 . S
O534 Fe528 2.002 . S
O534 C535 1.295 . S
C535 O534 1.295 . S
C535 O537 1.235 . S
C536 O541 1.287 . S
C536 O542 1.255 . S
O537 Fe529 1.997 . S
O537 C535 1.235 . S
C538 O544 1.287 . S
C538 O545 1.255 . S
O539 Fe528 1.976 . S
O539 C546 1.287 . S
O540 Fe529 1.996 . S
O540 C546 1.255 . S
O541 Fe531 1.976 . S
O541 C536 1.287 . S
O542 Fe528 1.996 . S
O542 C536 1.255 . S
C543 O547 1.295 . S
C543 O548 1.235 . S
O544 Fe529 1.976 . S
O544 C538 1.287 . S
O545 Fe531 1.996 . S
O545 C538 1.255 . S
C546 O539 1.287 . S
C546 O540 1.255 . S
O547 Fe529 2.002 . S
O547 C543 1.295 . S
O548 Fe531 1.997 . S
O548 C543 1.235 . S
C549 O532 1.295 . S
C549 O533 1.235 . S
Fe550 O552 1.918 . S
Fe550 O555 1.997 . S
Fe550 O556 2.002 . S
Fe550 O561 1.976 . S
Fe550 O564 1.996 . S
Fe551 O552 1.918 . S
Fe551 O559 1.997 . S
Fe551 O562 1.996 . S
Fe551 O566 1.976 . S
Fe551 O569 2.002 . S
O552 Fe550 1.918 . S
O552 Fe551 1.918 . S
O552 Fe553 1.918 . S
Fe553 O552 1.918 . S
Fe553 O554 2.002 . S
Fe553 O563 1.976 . S
Fe553 O567 1.996 . S
Fe553 O570 1.997 . S
O554 Fe553 2.002 . S
O554 C571 1.295 . S
O555 Fe550 1.997 . S
O555 C571 1.235 . S
O556 Fe550 2.002 . S
O556 C557 1.295 . S
C557 O556 1.295 . S
C557 O559 1.235 . S
C558 O563 1.287 . S
C558 O564 1.255 . S
O559 Fe551 1.997 . S
O559 C557 1.235 . S
C560 O566 1.287 . S
C560 O567 1.255 . S
O561 Fe550 1.976 . S
O561 C568 1.287 . S
O562 Fe551 1.996 . S
O562 C568 1.255 . S
O563 Fe553 1.976 . S
O563 C558 1.287 . S
O564 Fe550 1.996 . S
O564 C558 1.255 . S
C565 O569 1.295 . S
C565 O570 1.235 . S
O566 Fe551 1.976 . S
O566 C560 1.287 . S
O567 Fe553 1.996 . S
O567 C560 1.255 . S
C568 O561 1.287 . S
C568 O562 1.255 . S
O569 Fe551 2.002 . S
O569 C565 1.295 . S
O570 Fe553 1.997 . S
O570 C565 1.235 . S
C571 O554 1.295 . S
C571 O555 1.235 . S
Fe572 O574 1.918 . S
Fe572 O577 1.997 . S
Fe572 O578 2.002 . S
Fe572 O583 1.976 . S
Fe572 O586 1.996 . S
Fe573 O574 1.918 . S
Fe573 O581 1.997 . S
Fe573 O584 1.996 . S
Fe573 O588 1.976 . S
Fe573 O591 2.002 . S
O574 Fe572 1.918 . S
O574 Fe573 1.918 . S
O574 Fe575 1.918 . S
Fe575 O574 1.918 . S
Fe575 O576 2.002 . S
Fe575 O585 1.976 . S
Fe575 O589 1.996 . S
Fe575 O592 1.997 . S
O576 Fe575 2.002 . S
O576 C593 1.295 . S
O577 Fe572 1.997 . S
O577 C593 1.235 . S
O578 Fe572 2.002 . S
O578 C579 1.295 . S
C579 O578 1.295 . S
C579 O581 1.235 . S
C580 O585 1.287 . S
C580 O586 1.255 . S
O581 Fe573 1.997 . S
O581 C579 1.235 . S
C582 O588 1.287 . S
C582 O589 1.255 . S
O583 Fe572 1.976 . S
O583 C590 1.287 . S
O584 Fe573 1.996 . S
O584 C590 1.255 . S
O585 Fe575 1.976 . S
O585 C580 1.287 . S
O586 Fe572 1.996 . S
O586 C580 1.255 . S
C587 O591 1.295 . S
C587 O592 1.235 . S
O588 Fe573 1.976 . S
O588 C582 1.287 . S
O589 Fe575 1.996 . S
O589 C582 1.255 . S
C590 O583 1.287 . S
C590 O584 1.255 . S
O591 Fe573 2.002 . S
O591 C587 1.295 . S
O592 Fe575 1.997 . S
O592 C587 1.235 . S
C593 O576 1.295 . S
C593 O577 1.235 . S
Fe594 O596 1.918 . S
Fe594 O599 1.997 . S
Fe594 O600 2.002 . S
Fe594 O605 1.976 . S
Fe594 O608 1.996 . S
Fe595 O596 1.918 . S
Fe595 O603 1.997 . S
Fe595 O606 1.996 . S
Fe595 O610 1.976 . S
Fe595 O613 2.002 . S
O596 Fe594 1.918 . S
O596 Fe595 1.918 . S
O596 Fe597 1.918 . S
Fe597 O596 1.918 . S
Fe597 O598 2.002 . S
Fe597 O607 1.976 . S
Fe597 O611 1.996 . S
Fe597 O614 1.997 . S
O598 Fe597 2.002 . S
O598 C615 1.295 . S
O599 Fe594 1.997 . S
O599 C615 1.235 . S
O600 Fe594 2.002 . S
O600 C601 1.295 . S
C601 O600 1.295 . S
C601 O603 1.235 . S
C602 O607 1.287 . S
C602 O608 1.255 . S
O603 Fe595 1.997 . S
O603 C601 1.235 . S
C604 O610 1.287 . S
C604 O611 1.255 . S
O605 Fe594 1.976 . S
O605 C612 1.287 . S
O606 Fe595 1.996 . S
O606 C612 1.255 . S
O607 Fe597 1.976 . S
O607 C602 1.287 . S
O608 Fe594 1.996 . S
O608 C602 1.255 . S
C609 O613 1.295 . S
C609 O614 1.235 . S
O610 Fe595 1.976 . S
O610 C604 1.287 . S
O611 Fe597 1.996 . S
O611 C604 1.255 . S
C612 O605 1.287 . S
C612 O606 1.255 . S
O613 Fe595 2.002 . S
O613 C609 1.295 . S
O614 Fe597 1.997 . S
O614 C609 1.235 . S
C615 O598 1.295 . S
C615 O599 1.235 . S
Fe616 O618 1.918 . S
Fe616 O621 1.997 . S
Fe616 O622 2.002 . S
Fe616 O627 1.976 . S
Fe616 O630 1.996 . S
Fe617 O618 1.918 . S
Fe617 O625 1.997 . S
Fe617 O628 1.996 . S
Fe617 O632 1.976 . S
Fe617 O635 2.002 . S
O618 Fe616 1.918 . S
O618 Fe617 1.918 . S
O618 Fe619 1.918 . S
Fe619 O618 1.918 . S
Fe619 O620 2.002 . S
Fe619 O629 1.976 . S
Fe619 O633 1.996 . S
Fe619 O636 1.997 . S
O620 Fe619 2.002 . S
O620 C637 1.295 . S
O621 Fe616 1.997 . S
O621 C637 1.235 . S
O622 Fe616 2.002 . S
O622 C623 1.295 . S
C623 O622 1.295 . S
C623 O625 1.235 . S
C624 O629 1.287 . S
C624 O630 1.255 . S
O625 Fe617 1.997 . S
O625 C623 1.235 . S
C626 O632 1.287 . S
C626 O633 1.255 . S
O627 Fe616 1.976 . S
O627 C634 1.287 . S
O628 Fe617 1.996 . S
O628 C634 1.255 . S
O629 Fe619 1.976 . S
O629 C624 1.287 . S
O630 Fe616 1.996 . S
O630 C624 1.255 . S
C631 O635 1.295 . S
C631 O636 1.235 . S
O632 Fe617 1.976 . S
O632 C626 1.287 . S
O633 Fe619 1.996 . S
O633 C626 1.255 . S
C634 O627 1.287 . S
C634 O628 1.255 . S
O635 Fe617 2.002 . S
O635 C631 1.295 . S
O636 Fe619 1.997 . S
O636 C631 1.235 . S
C637 O620 1.295 . S
C637 O621 1.235 . S
Fe638 O640 1.918 . S
Fe638 O643 1.997 . S
Fe638 O644 2.002 . S
Fe638 O649 1.976 . S
Fe638 O652 1.996 . S
Fe639 O640 1.918 . S
Fe639 O647 1.997 . S
Fe639 O650 1.996 . S
Fe639 O654 1.976 . S
Fe639 O657 2.002 . S
O640 Fe638 1.918 . S
O640 Fe639 1.918 . S
O640 Fe641 1.918 . S
Fe641 O640 1.918 . S
Fe641 O642 2.002 . S
Fe641 O651 1.976 . S
Fe641 O655 1.996 . S
Fe641 O658 1.997 . S
O642 Fe641 2.002 . S
O642 C659 1.295 . S
O643 Fe638 1.997 . S
O643 C659 1.235 . S
O644 Fe638 2.002 . S
O644 C645 1.295 . S
C645 O644 1.295 . S
C645 O647 1.235 . S
C646 O651 1.287 . S
C646 O652 1.255 . S
O647 Fe639 1.997 . S
O647 C645 1.235 . S
C648 O654 1.287 . S
C648 O655 1.255 . S
O649 Fe638 1.976 . S
O649 C656 1.287 . S
O650 Fe639 1.996 . S
O650 C656 1.255 . S
O651 Fe641 1.976 . S
O651 C646 1.287 . S
O652 Fe638 1.996 . S
O652 C646 1.255 . S
C653 O657 1.295 . S
C653 O658 1.235 . S
O654 Fe639 1.976 . S
O654 C648 1.287 . S
O655 Fe641 1.996 . S
O655 C648 1.255 . S
C656 O649 1.287 . S
C656 O650 1.255 . S
O657 Fe639 2.002 . S
O657 C653 1.295 . S
O658 Fe641 1.997 . S
O658 C653 1.235 . S
C659 O642 1.295 . S
C659 O643 1.235 . S
Fe660 O662 1.918 . S
Fe660 O665 1.997 . S
Fe660 O666 2.002 . S
Fe660 O671 1.976 . S
Fe660 O674 1.996 . S
Fe661 O662 1.918 . S
Fe661 O669 1.997 . S
Fe661 O672 1.996 . S
Fe661 O676 1.976 . S
Fe661 O679 2.002 . S
O662 Fe660 1.918 . S
O662 Fe661 1.918 . S
O662 Fe663 1.918 . S
Fe663 O662 1.918 . S
Fe663 O664 2.002 . S
Fe663 O673 1.976 . S
Fe663 O677 1.996 . S
Fe663 O680 1.997 . S
O664 Fe663 2.002 . S
O664 C681 1.295 . S
O665 Fe660 1.997 . S
O665 C681 1.235 . S
O666 Fe660 2.002 . S
O666 C667 1.295 . S
C667 O666 1.295 . S
C667 O669 1.235 . S
C668 O673 1.287 . S
C668 O674 1.255 . S
O669 Fe661 1.997 . S
O669 C667 1.235 . S
C670 O676 1.287 . S
C670 O677 1.255 . S
O671 Fe660 1.976 . S
O671 C678 1.287 . S
O672 Fe661 1.996 . S
O672 C678 1.255 . S
O673 Fe663 1.976 . S
O673 C668 1.287 . S
O674 Fe660 1.996 . S
O674 C668 1.255 . S
C675 O679 1.295 . S
C675 O680 1.235 . S
O676 Fe661 1.976 . S
O676 C670 1.287 . S
O677 Fe663 1.996 . S
O677 C670 1.255 . S
C678 O671 1.287 . S
C678 O672 1.255 . S
O679 Fe661 2.002 . S
O679 C675 1.295 . S
O680 Fe663 1.997 . S
O680 C675 1.235 . S
C681 O664 1.295 . S
C681 O665 1.235 . S
Fe682 O684 1.918 . S
Fe682 O687 1.997 . S
Fe682 O688 2.002 . S
Fe682 O693 1.976 . S
Fe682 O696 1.996 . S
Fe683 O684 1.918 . S
Fe683 O691 1.997 . S
Fe683 O694 1.996 . S
Fe683 O698 1.976 . S
Fe683 O701 2.002 . S
O684 Fe682 1.918 . S
O684 Fe683 1.918 . S
O684 Fe685 1.918 . S
Fe685 O684 1.918 . S
Fe685 O686 2.002 . S
Fe685 O695 1.976 . S
Fe685 O699 1.996 . S
Fe685 O702 1.997 . S
O686 Fe685 2.002 . S
O686 C703 1.295 . S
O687 Fe682 1.997 . S
O687 C703 1.235 . S
O688 Fe682 2.002 . S
O688 C689 1.295 . S
C689 O688 1.295 . S
C689 O691 1.235 . S
C690 O695 1.287 . S
C690 O696 1.255 . S
O691 Fe683 1.997 . S
O691 C689 1.235 . S
C692 O698 1.287 . S
C692 O699 1.255 . S
O693 Fe682 1.976 . S
O693 C700 1.287 . S
O694 Fe683 1.996 . S
O694 C700 1.255 . S
O695 Fe685 1.976 . S
O695 C690 1.287 . S
O696 Fe682 1.996 . S
O696 C690 1.255 . S
C697 O701 1.295 . S
C697 O702 1.235 . S
O698 Fe683 1.976 . S
O698 C692 1.287 . S
O699 Fe685 1.996 . S
O699 C692 1.255 . S
C700 O693 1.287 . S
C700 O694 1.255 . S
O701 Fe683 2.002 . S
O701 C697 1.295 . S
O702 Fe685 1.997 . S
O702 C697 1.235 . S
C703 O686 1.295 . S
C703 O687 1.235 . S
H704 C710 0.930 . S
H705 C713 0.930 . S
H706 C714 0.930 . S
H707 C715 0.930 . S
H708 C718 0.930 . S
H709 C719 0.930 . S
C710 H704 0.930 . S
C710 C711 1.355 . S
C710 C712 1.415 . S
C711 C710 1.355 . S
C711 C713 1.419 . S
C712 C710 1.415 . S
C712 C717 1.425 . S
C712 C719 1.409 . S
C713 H705 0.930 . S
C713 C711 1.419 . S
C713 C714 1.362 . S
C714 H706 0.930 . S
C714 C713 1.362 . S
C714 C717 1.409 . S
C715 H707 0.930 . S
C715 C716 1.355 . S
C715 C717 1.415 . S
C716 C715 1.355 . S
C716 C718 1.419 . S
C717 C712 1.425 . S
C717 C714 1.409 . S
C717 C715 1.415 . S
C718 H708 0.930 . S
C718 C716 1.419 . S
C718 C719 1.362 . S
C719 H709 0.930 . S
C719 C712 1.409 . S
C719 C718 1.362 . S
H720 C726 0.930 . S
H721 C729 0.930 . S
H722 C730 0.930 . S
H723 C731 0.930 . S
H724 C734 0.930 . S
H725 C735 0.930 . S
C726 H720 0.930 . S
C726 C727 1.355 . S
C726 C728 1.415 . S
C727 C726 1.355 . S
C727 C729 1.419 . S
C728 C726 1.415 . S
C728 C733 1.425 . S
C728 C735 1.409 . S
C729 H721 0.930 . S
C729 C727 1.419 . S
C729 C730 1.362 . S
C730 H722 0.930 . S
C730 C729 1.362 . S
C730 C733 1.409 . S
C731 H723 0.930 . S
C731 C732 1.355 . S
C731 C733 1.415 . S
C732 C731 1.355 . S
C732 C734 1.419 . S
C733 C728 1.425 . S
C733 C730 1.409 . S
C733 C731 1.415 . S
C734 H724 0.930 . S
C734 C732 1.419 . S
C734 C735 1.362 . S
C735 H725 0.930 . S
C735 C728 1.409 . S
C735 C734 1.362 . S
H736 C742 0.930 . S
H737 C745 0.930 . S
H738 C746 0.930 . S
H739 C747 0.930 . S
H740 C750 0.930 . S
H741 C751 0.930 . S
C742 H736 0.930 . S
C742 C743 1.355 . S
C742 C744 1.415 . S
C743 C742 1.355 . S
C743 C745 1.419 . S
C744 C742 1.415 . S
C744 C749 1.425 . S
C744 C751 1.409 . S
C745 H737 0.930 . S
C745 C743 1.419 . S
C745 C746 1.362 . S
C746 H738 0.930 . S
C746 C745 1.362 . S
C746 C749 1.409 . S
C747 H739 0.930 . S
C747 C748 1.355 . S
C747 C749 1.415 . S
C748 C747 1.355 . S
C748 C750 1.419 . S
C749 C744 1.425 . S
C749 C746 1.409 . S
C749 C747 1.415 . S
C750 H740 0.930 . S
C750 C748 1.419 . S
C750 C751 1.362 . S
C751 H741 0.930 . S
C751 C744 1.409 . S
C751 C750 1.362 . S
H752 C758 0.930 . S
H753 C761 0.930 . S
H754 C762 0.930 . S
H755 C763 0.930 . S
H756 C766 0.930 . S
H757 C767 0.930 . S
C758 H752 0.930 . S
C758 C759 1.355 . S
C758 C760 1.415 . S
C759 C758 1.355 . S
C759 C761 1.419 . S
C760 C758 1.415 . S
C760 C765 1.425 . S
C760 C767 1.409 . S
C761 H753 0.930 . S
C761 C759 1.419 . S
C761 C762 1.362 . S
C762 H754 0.930 . S
C762 C761 1.362 . S
C762 C765 1.409 . S
C763 H755 0.930 . S
C763 C764 1.355 . S
C763 C765 1.415 . S
C764 C763 1.355 . S
C764 C766 1.419 . S
C765 C760 1.425 . S
C765 C762 1.409 . S
C765 C763 1.415 . S
C766 H756 0.930 . S
C766 C764 1.419 . S
C766 C767 1.362 . S
C767 H757 0.930 . S
C767 C760 1.409 . S
C767 C766 1.362 . S
H768 C774 0.930 . S
H769 C777 0.930 . S
H770 C778 0.930 . S
H771 C779 0.930 . S
H772 C782 0.930 . S
H773 C783 0.930 . S
C774 H768 0.930 . S
C774 C775 1.355 . S
C774 C776 1.415 . S
C775 C774 1.355 . S
C775 C777 1.419 . S
C776 C774 1.415 . S
C776 C781 1.425 . S
C776 C783 1.409 . S
C777 H769 0.930 . S
C777 C775 1.419 . S
C777 C778 1.362 . S
C778 H770 0.930 . S
C778 C777 1.362 . S
C778 C781 1.409 . S
C779 H771 0.930 . S
C779 C780 1.355 . S
C779 C781 1.415 . S
C780 C779 1.355 . S
C780 C782 1.419 . S
C781 C776 1.425 . S
C781 C778 1.409 . S
C781 C779 1.415 . S
C782 H772 0.930 . S
C782 C780 1.419 . S
C782 C783 1.362 . S
C783 H773 0.930 . S
C783 C776 1.409 . S
C783 C782 1.362 . S
H784 C790 0.930 . S
H785 C793 0.930 . S
H786 C794 0.930 . S
H787 C795 0.930 . S
H788 C798 0.930 . S
H789 C799 0.930 . S
C790 H784 0.930 . S
C790 C791 1.355 . S
C790 C792 1.415 . S
C791 C790 1.355 . S
C791 C793 1.419 . S
C792 C790 1.415 . S
C792 C797 1.425 . S
C792 C799 1.409 . S
C793 H785 0.930 . S
C793 C791 1.419 . S
C793 C794 1.362 . S
C794 H786 0.930 . S
C794 C793 1.362 . S
C794 C797 1.409 . S
C795 H787 0.930 . S
C795 C796 1.355 . S
C795 C797 1.415 . S
C796 C795 1.355 . S
C796 C798 1.419 . S
C797 C792 1.425 . S
C797 C794 1.409 . S
C797 C795 1.415 . S
C798 H788 0.930 . S
C798 C796 1.419 . S
C798 C799 1.362 . S
C799 H789 0.930 . S
C799 C792 1.409 . S
C799 C798 1.362 . S
H800 C806 0.930 . S
H801 C809 0.930 . S
H802 C810 0.930 . S
H803 C811 0.930 . S
H804 C814 0.930 . S
H805 C815 0.930 . S
C806 H800 0.930 . S
C806 C807 1.355 . S
C806 C808 1.415 . S
C807 C806 1.355 . S
C807 C809 1.419 . S
C808 C806 1.415 . S
C808 C813 1.425 . S
C808 C815 1.409 . S
C809 H801 0.930 . S
C809 C807 1.419 . S
C809 C810 1.362 . S
C810 H802 0.930 . S
C810 C809 1.362 . S
C810 C813 1.409 . S
C811 H803 0.930 . S
C811 C812 1.355 . S
C811 C813 1.415 . S
C812 C811 1.355 . S
C812 C814 1.419 . S
C813 C808 1.425 . S
C813 C810 1.409 . S
C813 C811 1.415 . S
C814 H804 0.930 . S
C814 C812 1.419 . S
C814 C815 1.362 . S
C815 H805 0.930 . S
C815 C808 1.409 . S
C815 C814 1.362 . S
H816 C822 0.930 . S
H817 C825 0.930 . S
H818 C826 0.930 . S
H819 C827 0.930 . S
H820 C830 0.930 . S
H821 C831 0.930 . S
C822 H816 0.930 . S
C822 C823 1.355 . S
C822 C824 1.415 . S
C823 C822 1.355 . S
C823 C825 1.419 . S
C824 C822 1.415 . S
C824 C829 1.425 . S
C824 C831 1.409 . S
C825 H817 0.930 . S
C825 C823 1.419 . S
C825 C826 1.362 . S
C826 H818 0.930 . S
C826 C825 1.362 . S
C826 C829 1.409 . S
C827 H819 0.930 . S
C827 C828 1.355 . S
C827 C829 1.415 . S
C828 C827 1.355 . S
C828 C830 1.419 . S
C829 C824 1.425 . S
C829 C826 1.409 . S
C829 C827 1.415 . S
C830 H820 0.930 . S
C830 C828 1.419 . S
C830 C831 1.362 . S
C831 H821 0.930 . S
C831 C824 1.409 . S
C831 C830 1.362 . S
H832 C838 0.930 . S
H833 C841 0.930 . S
H834 C842 0.930 . S
H835 C843 0.930 . S
H836 C846 0.930 . S
H837 C847 0.930 . S
C838 H832 0.930 . S
C838 C839 1.355 . S
C838 C840 1.415 . S
C839 C838 1.355 . S
C839 C841 1.419 . S
C840 C838 1.415 . S
C840 C845 1.425 . S
C840 C847 1.409 . S
C841 H833 0.930 . S
C841 C839 1.419 . S
C841 C842 1.362 . S
C842 H834 0.930 . S
C842 C841 1.362 . S
C842 C845 1.409 . S
C843 H835 0.930 . S
C843 C844 1.355 . S
C843 C845 1.415 . S
C844 C843 1.355 . S
C844 C846 1.419 . S
C845 C840 1.425 . S
C845 C842 1.409 . S
C845 C843 1.415 . S
C846 H836 0.930 . S
C846 C844 1.419 . S
C846 C847 1.362 . S
C847 H837 0.930 . S
C847 C840 1.409 . S
C847 C846 1.362 . S
H848 C854 0.930 . S
H849 C857 0.930 . S
H850 C858 0.930 . S
H851 C859 0.930 . S
H852 C862 0.930 . S
H853 C863 0.930 . S
C854 H848 0.930 . S
C854 C855 1.355 . S
C854 C856 1.415 . S
C855 C854 1.355 . S
C855 C857 1.419 . S
C856 C854 1.415 . S
C856 C861 1.425 . S
C856 C863 1.409 . S
C857 H849 0.930 . S
C857 C855 1.419 . S
C857 C858 1.362 . S
C858 H850 0.930 . S
C858 C857 1.362 . S
C858 C861 1.409 . S
C859 H851 0.930 . S
C859 C860 1.355 . S
C859 C861 1.415 . S
C860 C859 1.355 . S
C860 C862 1.419 . S
C861 C856 1.425 . S
C861 C858 1.409 . S
C861 C859 1.415 . S
C862 H852 0.930 . S
C862 C860 1.419 . S
C862 C863 1.362 . S
C863 H853 0.930 . S
C863 C856 1.409 . S
C863 C862 1.362 . S
H864 C870 0.930 . S
H865 C873 0.930 . S
H866 C874 0.930 . S
H867 C875 0.930 . S
H868 C878 0.930 . S
H869 C879 0.930 . S
C870 H864 0.930 . S
C870 C871 1.355 . S
C870 C872 1.415 . S
C871 C870 1.355 . S
C871 C873 1.419 . S
C872 C870 1.415 . S
C872 C877 1.425 . S
C872 C879 1.409 . S
C873 H865 0.930 . S
C873 C871 1.419 . S
C873 C874 1.362 . S
C874 H866 0.930 . S
C874 C873 1.362 . S
C874 C877 1.409 . S
C875 H867 0.930 . S
C875 C876 1.355 . S
C875 C877 1.415 . S
C876 C875 1.355 . S
C876 C878 1.419 . S
C877 C872 1.425 . S
C877 C874 1.409 . S
C877 C875 1.415 . S
C878 H868 0.930 . S
C878 C876 1.419 . S
C878 C879 1.362 . S
C879 H869 0.930 . S
C879 C872 1.409 . S
C879 C878 1.362 . S
H880 C886 0.930 . S
H881 C889 0.930 . S
H882 C890 0.930 . S
H883 C891 0.930 . S
H884 C894 0.930 . S
H885 C895 0.930 . S
C886 H880 0.930 . S
C886 C887 1.355 . S
C886 C888 1.415 . S
C887 C886 1.355 . S
C887 C889 1.419 . S
C888 C886 1.415 . S
C888 C893 1.425 . S
C888 C895 1.409 . S
C889 H881 0.930 . S
C889 C887 1.419 . S
C889 C890 1.362 . S
C890 H882 0.930 . S
C890 C889 1.362 . S
C890 C893 1.409 . S
C891 H883 0.930 . S
C891 C892 1.355 . S
C891 C893 1.415 . S
C892 C891 1.355 . S
C892 C894 1.419 . S
C893 C888 1.425 . S
C893 C890 1.409 . S
C893 C891 1.415 . S
C894 H884 0.930 . S
C894 C892 1.419 . S
C894 C895 1.362 . S
C895 H885 0.930 . S
C895 C888 1.409 . S
C895 C894 1.362 . S
H896 C902 0.930 . S
H897 C905 0.930 . S
H898 C906 0.930 . S
H899 C907 0.930 . S
H900 C910 0.930 . S
H901 C911 0.930 . S
C902 H896 0.930 . S
C902 C903 1.355 . S
C902 C904 1.415 . S
C903 C902 1.355 . S
C903 C905 1.419 . S
C904 C902 1.415 . S
C904 C909 1.425 . S
C904 C911 1.409 . S
C905 H897 0.930 . S
C905 C903 1.419 . S
C905 C906 1.362 . S
C906 H898 0.930 . S
C906 C905 1.362 . S
C906 C909 1.409 . S
C907 H899 0.930 . S
C907 C908 1.355 . S
C907 C909 1.415 . S
C908 C907 1.355 . S
C908 C910 1.419 . S
C909 C904 1.425 . S
C909 C906 1.409 . S
C909 C907 1.415 . S
C910 H900 0.930 . S
C910 C908 1.419 . S
C910 C911 1.362 . S
C911 H901 0.930 . S
C911 C904 1.409 . S
C911 C910 1.362 . S
H912 C918 0.930 . S
H913 C921 0.930 . S
H914 C922 0.930 . S
H915 C923 0.930 . S
H916 C926 0.930 . S
H917 C927 0.930 . S
C918 H912 0.930 . S
C918 C919 1.355 . S
C918 C920 1.415 . S
C919 C918 1.355 . S
C919 C921 1.419 . S
C920 C918 1.415 . S
C920 C925 1.425 . S
C920 C927 1.409 . S
C921 H913 0.930 . S
C921 C919 1.419 . S
C921 C922 1.362 . S
C922 H914 0.930 . S
C922 C921 1.362 . S
C922 C925 1.409 . S
C923 H915 0.930 . S
C923 C924 1.355 . S
C923 C925 1.415 . S
C924 C923 1.355 . S
C924 C926 1.419 . S
C925 C920 1.425 . S
C925 C922 1.409 . S
C925 C923 1.415 . S
C926 H916 0.930 . S
C926 C924 1.419 . S
C926 C927 1.362 . S
C927 H917 0.930 . S
C927 C920 1.409 . S
C927 C926 1.362 . S
H928 C934 0.930 . S
H929 C937 0.930 . S
H930 C938 0.930 . S
H931 C939 0.930 . S
H932 C942 0.930 . S
H933 C943 0.930 . S
C934 H928 0.930 . S
C934 C935 1.355 . S
C934 C936 1.415 . S
C935 C934 1.355 . S
C935 C937 1.419 . S
C936 C934 1.415 . S
C936 C941 1.425 . S
C936 C943 1.409 . S
C937 H929 0.930 . S
C937 C935 1.419 . S
C937 C938 1.362 . S
C938 H930 0.930 . S
C938 C937 1.362 . S
C938 C941 1.409 . S
C939 H931 0.930 . S
C939 C940 1.355 . S
C939 C941 1.415 . S
C940 C939 1.355 . S
C940 C942 1.419 . S
C941 C936 1.425 . S
C941 C938 1.409 . S
C941 C939 1.415 . S
C942 H932 0.930 . S
C942 C940 1.419 . S
C942 C943 1.362 . S
C943 H933 0.930 . S
C943 C936 1.409 . S
C943 C942 1.362 . S
H944 C950 0.930 . S
H945 C953 0.930 . S
H946 C954 0.930 . S
H947 C955 0.930 . S
H948 C958 0.930 . S
H949 C959 0.930 . S
C950 H944 0.930 . S
C950 C951 1.355 . S
C950 C952 1.415 . S
C951 C950 1.355 . S
C951 C953 1.419 . S
C952 C950 1.415 . S
C952 C957 1.425 . S
C952 C959 1.409 . S
C953 H945 0.930 . S
C953 C951 1.419 . S
C953 C954 1.362 . S
C954 H946 0.930 . S
C954 C953 1.362 . S
C954 C957 1.409 . S
C955 H947 0.930 . S
C955 C956 1.355 . S
C955 C957 1.415 . S
C956 C955 1.355 . S
C956 C958 1.419 . S
C957 C952 1.425 . S
C957 C954 1.409 . S
C957 C955 1.415 . S
C958 H948 0.930 . S
C958 C956 1.419 . S
C958 C959 1.362 . S
C959 H949 0.930 . S
C959 C952 1.409 . S
C959 C958 1.362 . S
H960 C966 0.930 . S
H961 C969 0.930 . S
H962 C970 0.930 . S
H963 C971 0.930 . S
H964 C974 0.930 . S
H965 C975 0.930 . S
C966 H960 0.930 . S
C966 C967 1.355 . S
C966 C968 1.415 . S
C967 C966 1.355 . S
C967 C969 1.419 . S
C968 C966 1.415 . S
C968 C973 1.425 . S
C968 C975 1.409 . S
C969 H961 0.930 . S
C969 C967 1.419 . S
C969 C970 1.362 . S
C970 H962 0.930 . S
C970 C969 1.362 . S
C970 C973 1.409 . S
C971 H963 0.930 . S
C971 C972 1.355 . S
C971 C973 1.415 . S
C972 C971 1.355 . S
C972 C974 1.419 . S
C973 C968 1.425 . S
C973 C970 1.409 . S
C973 C971 1.415 . S
C974 H964 0.930 . S
C974 C972 1.419 . S
C974 C975 1.362 . S
C975 H965 0.930 . S
C975 C968 1.409 . S
C975 C974 1.362 . S
H976 C982 0.930 . S
H977 C985 0.930 . S
H978 C986 0.930 . S
H979 C987 0.930 . S
H980 C990 0.930 . S
H981 C991 0.930 . S
C982 H976 0.930 . S
C982 C983 1.355 . S
C982 C984 1.415 . S
C983 C982 1.355 . S
C983 C985 1.419 . S
C984 C982 1.415 . S
C984 C989 1.425 . S
C984 C991 1.409 . S
C985 H977 0.930 . S
C985 C983 1.419 . S
C985 C986 1.362 . S
C986 H978 0.930 . S
C986 C985 1.362 . S
C986 C989 1.409 . S
C987 H979 0.930 . S
C987 C988 1.355 . S
C987 C989 1.415 . S
C988 C987 1.355 . S
C988 C990 1.419 . S
C989 C984 1.425 . S
C989 C986 1.409 . S
C989 C987 1.415 . S
C990 H980 0.930 . S
C990 C988 1.419 . S
C990 C991 1.362 . S
C991 H981 0.930 . S
C991 C984 1.409 . S
C991 C990 1.362 . S
H992 C998 0.930 . S
H993 C1001 0.930 . S
H994 C1002 0.930 . S
H995 C1003 0.930 . S
H996 C1006 0.930 . S
H997 C1007 0.930 . S
C998 H992 0.930 . S
C998 C999 1.355 . S
C998 C1000 1.415 . S
C999 C998 1.355 . S
C999 C1001 1.419 . S
C1000 C998 1.415 . S
C1000 C1005 1.425 . S
C1000 C1007 1.409 . S
C1001 H993 0.930 . S
C1001 C999 1.419 . S
C1001 C1002 1.362 . S
C1002 H994 0.930 . S
C1002 C1001 1.362 . S
C1002 C1005 1.409 . S
C1003 H995 0.930 . S
C1003 C1004 1.355 . S
C1003 C1005 1.415 . S
C1004 C1003 1.355 . S
C1004 C1006 1.419 . S
C1005 C1000 1.425 . S
C1005 C1002 1.409 . S
C1005 C1003 1.415 . S
C1006 H996 0.930 . S
C1006 C1004 1.419 . S
C1006 C1007 1.362 . S
C1007 H997 0.930 . S
C1007 C1000 1.409 . S
C1007 C1006 1.362 . S
H1008 C1014 0.930 . S
H1009 C1017 0.930 . S
H1010 C1018 0.930 . S
H1011 C1019 0.930 . S
H1012 C1022 0.930 . S
H1013 C1023 0.930 . S
C1014 H1008 0.930 . S
C1014 C1015 1.355 . S
C1014 C1016 1.415 . S
C1015 C1014 1.355 . S
C1015 C1017 1.419 . S
C1016 C1014 1.415 . S
C1016 C1021 1.425 . S
C1016 C1023 1.409 . S
C1017 H1009 0.930 . S
C1017 C1015 1.419 . S
C1017 C1018 1.362 . S
C1018 H1010 0.930 . S
C1018 C1017 1.362 . S
C1018 C1021 1.409 . S
C1019 H1011 0.930 . S
C1019 C1020 1.355 . S
C1019 C1021 1.415 . S
C1020 C1019 1.355 . S
C1020 C1022 1.419 . S
C1021 C1016 1.425 . S
C1021 C1018 1.409 . S
C1021 C1019 1.415 . S
C1022 H1012 0.930 . S
C1022 C1020 1.419 . S
C1022 C1023 1.362 . S
C1023 H1013 0.930 . S
C1023 C1016 1.409 . S
C1023 C1022 1.362 . S
H1024 C1030 0.930 . S
H1025 C1033 0.930 . S
H1026 C1034 0.930 . S
H1027 C1035 0.930 . S
H1028 C1038 0.930 . S
H1029 C1039 0.930 . S
C1030 H1024 0.930 . S
C1030 C1031 1.355 . S
C1030 C1032 1.415 . S
C1031 C1030 1.355 . S
C1031 C1033 1.419 . S
C1032 C1030 1.415 . S
C1032 C1037 1.425 . S
C1032 C1039 1.409 . S
C1033 H1025 0.930 . S
C1033 C1031 1.419 . S
C1033 C1034 1.362 . S
C1034 H1026 0.930 . S
C1034 C1033 1.362 . S
C1034 C1037 1.409 . S
C1035 H1027 0.930 . S
C1035 C1036 1.355 . S
C1035 C1037 1.415 . S
C1036 C1035 1.355 . S
C1036 C1038 1.419 . S
C1037 C1032 1.425 . S
C1037 C1034 1.409 . S
C1037 C1035 1.415 . S
C1038 H1028 0.930 . S
C1038 C1036 1.419 . S
C1038 C1039 1.362 . S
C1039 H1029 0.930 . S
C1039 C1032 1.409 . S
C1039 C1038 1.362 . S
H1040 C1046 0.930 . S
H1041 C1049 0.930 . S
H1042 C1050 0.930 . S
H1043 C1051 0.930 . S
H1044 C1054 0.930 . S
H1045 C1055 0.930 . S
C1046 H1040 0.930 . S
C1046 C1047 1.355 . S
C1046 C1048 1.415 . S
C1047 C1046 1.355 . S
C1047 C1049 1.419 . S
C1048 C1046 1.415 . S
C1048 C1053 1.425 . S
C1048 C1055 1.409 . S
C1049 H1041 0.930 . S
C1049 C1047 1.419 . S
C1049 C1050 1.362 . S
C1050 H1042 0.930 . S
C1050 C1049 1.362 . S
C1050 C1053 1.409 . S
C1051 H1043 0.930 . S
C1051 C1052 1.355 . S
C1051 C1053 1.415 . S
C1052 C1051 1.355 . S
C1052 C1054 1.419 . S
C1053 C1048 1.425 . S
C1053 C1050 1.409 . S
C1053 C1051 1.415 . S
C1054 H1044 0.930 . S
C1054 C1052 1.419 . S
C1054 C1055 1.362 . S
C1055 H1045 0.930 . S
C1055 C1048 1.409 . S
C1055 C1054 1.362 . S
H1056 C1062 0.930 . S
H1057 C1065 0.930 . S
H1058 C1066 0.930 . S
H1059 C1067 0.930 . S
H1060 C1070 0.930 . S
H1061 C1071 0.930 . S
C1062 H1056 0.930 . S
C1062 C1063 1.355 . S
C1062 C1064 1.415 . S
C1063 C1062 1.355 . S
C1063 C1065 1.419 . S
C1064 C1062 1.415 . S
C1064 C1069 1.425 . S
C1064 C1071 1.409 . S
C1065 H1057 0.930 . S
C1065 C1063 1.419 . S
C1065 C1066 1.362 . S
C1066 H1058 0.930 . S
C1066 C1065 1.362 . S
C1066 C1069 1.409 . S
C1067 H1059 0.930 . S
C1067 C1068 1.355 . S
C1067 C1069 1.415 . S
C1068 C1067 1.355 . S
C1068 C1070 1.419 . S
C1069 C1064 1.425 . S
C1069 C1066 1.409 . S
C1069 C1067 1.415 . S
C1070 H1060 0.930 . S
C1070 C1068 1.419 . S
C1070 C1071 1.362 . S
C1071 H1061 0.930 . S
C1071 C1064 1.409 . S
C1071 C1070 1.362 . S
H1072 C1078 0.930 . S
H1073 C1081 0.930 . S
H1074 C1082 0.930 . S
H1075 C1083 0.930 . S
H1076 C1086 0.930 . S
H1077 C1087 0.930 . S
C1078 H1072 0.930 . S
C1078 C1079 1.355 . S
C1078 C1080 1.415 . S
C1079 C1078 1.355 . S
C1079 C1081 1.419 . S
C1080 C1078 1.415 . S
C1080 C1085 1.425 . S
C1080 C1087 1.409 . S
C1081 H1073 0.930 . S
C1081 C1079 1.419 . S
C1081 C1082 1.362 . S
C1082 H1074 0.930 . S
C1082 C1081 1.362 . S
C1082 C1085 1.409 . S
C1083 H1075 0.930 . S
C1083 C1084 1.355 . S
C1083 C1085 1.415 . S
C1084 C1083 1.355 . S
C1084 C1086 1.419 . S
C1085 C1080 1.425 . S
C1085 C1082 1.409 . S
C1085 C1083 1.415 . S
C1086 H1076 0.930 . S
C1086 C1084 1.419 . S
C1086 C1087 1.362 . S
C1087 H1077 0.930 . S
C1087 C1080 1.409 . S
C1087 C1086 1.362 . S
H1088 C1094 0.930 . S
H1089 C1097 0.930 . S
H1090 C1098 0.930 . S
H1091 C1099 0.930 . S
H1092 C1102 0.930 . S
H1093 C1103 0.930 . S
C1094 H1088 0.930 . S
C1094 C1095 1.355 . S
C1094 C1096 1.415 . S
C1095 C1094 1.355 . S
C1095 C1097 1.419 . S
C1096 C1094 1.415 . S
C1096 C1101 1.425 . S
C1096 C1103 1.409 . S
C1097 H1089 0.930 . S
C1097 C1095 1.419 . S
C1097 C1098 1.362 . S
C1098 H1090 0.930 . S
C1098 C1097 1.362 . S
C1098 C1101 1.409 . S
C1099 H1091 0.930 . S
C1099 C1100 1.355 . S
C1099 C1101 1.415 . S
C1100 C1099 1.355 . S
C1100 C1102 1.419 . S
C1101 C1096 1.425 . S
C1101 C1098 1.409 . S
C1101 C1099 1.415 . S
C1102 H1092 0.930 . S
C1102 C1100 1.419 . S
C1102 C1103 1.362 . S
C1103 H1093 0.930 . S
C1103 C1096 1.409 . S
C1103 C1102 1.362 . S
H1104 C1110 0.930 . S
H1105 C1113 0.930 . S
H1106 C1114 0.930 . S
H1107 C1115 0.930 . S
H1108 C1118 0.930 . S
H1109 C1119 0.930 . S
C1110 H1104 0.930 . S
C1110 C1111 1.355 . S
C1110 C1112 1.415 . S
C1111 C1110 1.355 . S
C1111 C1113 1.419 . S
C1112 C1110 1.415 . S
C1112 C1117 1.425 . S
C1112 C1119 1.409 . S
C1113 H1105 0.930 . S
C1113 C1111 1.419 . S
C1113 C1114 1.362 . S
C1114 H1106 0.930 . S
C1114 C1113 1.362 . S
C1114 C1117 1.409 . S
C1115 H1107 0.930 . S
C1115 C1116 1.355 . S
C1115 C1117 1.415 . S
C1116 C1115 1.355 . S
C1116 C1118 1.419 . S
C1117 C1112 1.425 . S
C1117 C1114 1.409 . S
C1117 C1115 1.415 . S
C1118 H1108 0.930 . S
C1118 C1116 1.419 . S
C1118 C1119 1.362 . S
C1119 H1109 0.930 . S
C1119 C1112 1.409 . S
C1119 C1118 1.362 . S
H1120 C1126 0.930 . S
H1121 C1129 0.930 . S
H1122 C1130 0.930 . S
H1123 C1131 0.930 . S
H1124 C1134 0.930 . S
H1125 C1135 0.930 . S
C1126 H1120 0.930 . S
C1126 C1127 1.355 . S
C1126 C1128 1.415 . S
C1127 C1126 1.355 . S
C1127 C1129 1.419 . S
C1128 C1126 1.415 . S
C1128 C1133 1.425 . S
C1128 C1135 1.409 . S
C1129 H1121 0.930 . S
C1129 C1127 1.419 . S
C1129 C1130 1.362 . S
C1130 H1122 0.930 . S
C1130 C1129 1.362 . S
C1130 C1133 1.409 . S
C1131 H1123 0.930 . S
C1131 C1132 1.355 . S
C1131 C1133 1.415 . S
C1132 C1131 1.355 . S
C1132 C1134 1.419 . S
C1133 C1128 1.425 . S
C1133 C1130 1.409 . S
C1133 C1131 1.415 . S
C1134 H1124 0.930 . S
C1134 C1132 1.419 . S
C1134 C1135 1.362 . S
C1135 H1125 0.930 . S
C1135 C1128 1.409 . S
C1135 C1134 1.362 . S
H1136 C1142 0.930 . S
H1137 C1145 0.930 . S
H1138 C1146 0.930 . S
H1139 C1147 0.930 . S
H1140 C1150 0.930 . S
H1141 C1151 0.930 . S
C1142 H1136 0.930 . S
C1142 C1143 1.355 . S
C1142 C1144 1.415 . S
C1143 C1142 1.355 . S
C1143 C1145 1.419 . S
C1144 C1142 1.415 . S
C1144 C1149 1.425 . S
C1144 C1151 1.409 . S
C1145 H1137 0.930 . S
C1145 C1143 1.419 . S
C1145 C1146 1.362 . S
C1146 H1138 0.930 . S
C1146 C1145 1.362 . S
C1146 C1149 1.409 . S
C1147 H1139 0.930 . S
C1147 C1148 1.355 . S
C1147 C1149 1.415 . S
C1148 C1147 1.355 . S
C1148 C1150 1.419 . S
C1149 C1144 1.425 . S
C1149 C1146 1.409 . S
C1149 C1147 1.415 . S
C1150 H1140 0.930 . S
C1150 C1148 1.419 . S
C1150 C1151 1.362 . S
C1151 H1141 0.930 . S
C1151 C1144 1.409 . S
C1151 C1150 1.362 . S
H1152 C1158 0.930 . S
H1153 C1161 0.930 . S
H1154 C1162 0.930 . S
H1155 C1163 0.930 . S
H1156 C1166 0.930 . S
H1157 C1167 0.930 . S
C1158 H1152 0.930 . S
C1158 C1159 1.355 . S
C1158 C1160 1.415 . S
C1159 C1158 1.355 . S
C1159 C1161 1.419 . S
C1160 C1158 1.415 . S
C1160 C1165 1.425 . S
C1160 C1167 1.409 . S
C1161 H1153 0.930 . S
C1161 C1159 1.419 . S
C1161 C1162 1.362 . S
C1162 H1154 0.930 . S
C1162 C1161 1.362 . S
C1162 C1165 1.409 . S
C1163 H1155 0.930 . S
C1163 C1164 1.355 . S
C1163 C1165 1.415 . S
C1164 C1163 1.355 . S
C1164 C1166 1.419 . S
C1165 C1160 1.425 . S
C1165 C1162 1.409 . S
C1165 C1163 1.415 . S
C1166 H1156 0.930 . S
C1166 C1164 1.419 . S
C1166 C1167 1.362 . S
C1167 H1157 0.930 . S
C1167 C1160 1.409 . S
C1167 C1166 1.362 . S
H1168 C1174 0.930 . S
H1169 C1177 0.930 . S
H1170 C1178 0.930 . S
H1171 C1179 0.930 . S
H1172 C1182 0.930 . S
H1173 C1183 0.930 . S
C1174 H1168 0.930 . S
C1174 C1175 1.355 . S
C1174 C1176 1.415 . S
C1175 C1174 1.355 . S
C1175 C1177 1.419 . S
C1176 C1174 1.415 . S
C1176 C1181 1.425 . S
C1176 C1183 1.409 . S
C1177 H1169 0.930 . S
C1177 C1175 1.419 . S
C1177 C1178 1.362 . S
C1178 H1170 0.930 . S
C1178 C1177 1.362 . S
C1178 C1181 1.409 . S
C1179 H1171 0.930 . S
C1179 C1180 1.355 . S
C1179 C1181 1.415 . S
C1180 C1179 1.355 . S
C1180 C1182 1.419 . S
C1181 C1176 1.425 . S
C1181 C1178 1.409 . S
C1181 C1179 1.415 . S
C1182 H1172 0.930 . S
C1182 C1180 1.419 . S
C1182 C1183 1.362 . S
C1183 H1173 0.930 . S
C1183 C1176 1.409 . S
C1183 C1182 1.362 . S
H1184 C1190 0.930 . S
H1185 C1193 0.930 . S
H1186 C1194 0.930 . S
H1187 C1195 0.930 . S
H1188 C1198 0.930 . S
H1189 C1199 0.930 . S
C1190 H1184 0.930 . S
C1190 C1191 1.355 . S
C1190 C1192 1.415 . S
C1191 C1190 1.355 . S
C1191 C1193 1.419 . S
C1192 C1190 1.415 . S
C1192 C1197 1.425 . S
C1192 C1199 1.409 . S
C1193 H1185 0.930 . S
C1193 C1191 1.419 . S
C1193 C1194 1.362 . S
C1194 H1186 0.930 . S
C1194 C1193 1.362 . S
C1194 C1197 1.409 . S
C1195 H1187 0.930 . S
C1195 C1196 1.355 . S
C1195 C1197 1.415 . S
C1196 C1195 1.355 . S
C1196 C1198 1.419 . S
C1197 C1192 1.425 . S
C1197 C1194 1.409 . S
C1197 C1195 1.415 . S
C1198 H1188 0.930 . S
C1198 C1196 1.419 . S
C1198 C1199 1.362 . S
C1199 H1189 0.930 . S
C1199 C1192 1.409 . S
C1199 C1198 1.362 . S
H1200 C1206 0.930 . S
H1201 C1209 0.930 . S
H1202 C1210 0.930 . S
H1203 C1211 0.930 . S
H1204 C1214 0.930 . S
H1205 C1215 0.930 . S
C1206 H1200 0.930 . S
C1206 C1207 1.355 . S
C1206 C1208 1.415 . S
C1207 C1206 1.355 . S
C1207 C1209 1.419 . S
C1208 C1206 1.415 . S
C1208 C1213 1.425 . S
C1208 C1215 1.409 . S
C1209 H1201 0.930 . S
C1209 C1207 1.419 . S
C1209 C1210 1.362 . S
C1210 H1202 0.930 . S
C1210 C1209 1.362 . S
C1210 C1213 1.409 . S
C1211 H1203 0.930 . S
C1211 C1212 1.355 . S
C1211 C1213 1.415 . S
C1212 C1211 1.355 . S
C1212 C1214 1.419 . S
C1213 C1208 1.425 . S
C1213 C1210 1.409 . S
C1213 C1211 1.415 . S
C1214 H1204 0.930 . S
C1214 C1212 1.419 . S
C1214 C1215 1.362 . S
C1215 H1205 0.930 . S
C1215 C1208 1.409 . S
C1215 C1214 1.362 . S
H1216 C1222 0.930 . S
H1217 C1225 0.930 . S
H1218 C1226 0.930 . S
H1219 C1227 0.930 . S
H1220 C1230 0.930 . S
H1221 C1231 0.930 . S
C1222 H1216 0.930 . S
C1222 C1223 1.355 . S
C1222 C1224 1.415 . S
C1223 C1222 1.355 . S
C1223 C1225 1.419 . S
C1224 C1222 1.415 . S
C1224 C1229 1.425 . S
C1224 C1231 1.409 . S
C1225 H1217 0.930 . S
C1225 C1223 1.419 . S
C1225 C1226 1.362 . S
C1226 H1218 0.930 . S
C1226 C1225 1.362 . S
C1226 C1229 1.409 . S
C1227 H1219 0.930 . S
C1227 C1228 1.355 . S
C1227 C1229 1.415 . S
C1228 C1227 1.355 . S
C1228 C1230 1.419 . S
C1229 C1224 1.425 . S
C1229 C1226 1.409 . S
C1229 C1227 1.415 . S
C1230 H1220 0.930 . S
C1230 C1228 1.419 . S
C1230 C1231 1.362 . S
C1231 H1221 0.930 . S
C1231 C1224 1.409 . S
C1231 C1230 1.362 . S
H1232 C1238 0.930 . S
H1233 C1241 0.930 . S
H1234 C1242 0.930 . S
H1235 C1243 0.930 . S
H1236 C1246 0.930 . S
H1237 C1247 0.930 . S
C1238 H1232 0.930 . S
C1238 C1239 1.355 . S
C1238 C1240 1.415 . S
C1239 C1238 1.355 . S
C1239 C1241 1.419 . S
C1240 C1238 1.415 . S
C1240 C1245 1.425 . S
C1240 C1247 1.409 . S
C1241 H1233 0.930 . S
C1241 C1239 1.419 . S
C1241 C1242 1.362 . S
C1242 H1234 0.930 . S
C1242 C1241 1.362 . S
C1242 C1245 1.409 . S
C1243 H1235 0.930 . S
C1243 C1244 1.355 . S
C1243 C1245 1.415 . S
C1244 C1243 1.355 . S
C1244 C1246 1.419 . S
C1245 C1240 1.425 . S
C1245 C1242 1.409 . S
C1245 C1243 1.415 . S
C1246 H1236 0.930 . S
C1246 C1244 1.419 . S
C1246 C1247 1.362 . S
C1247 H1237 0.930 . S
C1247 C1240 1.409 . S
C1247 C1246 1.362 . S
H1248 C1254 0.930 . S
H1249 C1257 0.930 . S
H1250 C1258 0.930 . S
H1251 C1259 0.930 . S
H1252 C1262 0.930 . S
H1253 C1263 0.930 . S
C1254 H1248 0.930 . S
C1254 C1255 1.355 . S
C1254 C1256 1.415 . S
C1255 C1254 1.355 . S
C1255 C1257 1.419 . S
C1256 C1254 1.415 . S
C1256 C1261 1.425 . S
C1256 C1263 1.409 . S
C1257 H1249 0.930 . S
C1257 C1255 1.419 . S
C1257 C1258 1.362 . S
C1258 H1250 0.930 . S
C1258 C1257 1.362 . S
C1258 C1261 1.409 . S
C1259 H1251 0.930 . S
C1259 C1260 1.355 . S
C1259 C1261 1.415 . S
C1260 C1259 1.355 . S
C1260 C1262 1.419 . S
C1261 C1256 1.425 . S
C1261 C1258 1.409 . S
C1261 C1259 1.415 . S
C1262 H1252 0.930 . S
C1262 C1260 1.419 . S
C1262 C1263 1.362 . S
C1263 H1253 0.930 . S
C1263 C1256 1.409 . S
C1263 C1262 1.362 . S
H1264 C1270 0.930 . S
H1265 C1273 0.930 . S
H1266 C1274 0.930 . S
H1267 C1275 0.930 . S
H1268 C1278 0.930 . S
H1269 C1279 0.930 . S
C1270 H1264 0.930 . S
C1270 C1271 1.355 . S
C1270 C1272 1.415 . S
C1271 C1270 1.355 . S
C1271 C1273 1.419 . S
C1272 C1270 1.415 . S
C1272 C1277 1.425 . S
C1272 C1279 1.409 . S
C1273 H1265 0.930 . S
C1273 C1271 1.419 . S
C1273 C1274 1.362 . S
C1274 H1266 0.930 . S
C1274 C1273 1.362 . S
C1274 C1277 1.409 . S
C1275 H1267 0.930 . S
C1275 C1276 1.355 . S
C1275 C1277 1.415 . S
C1276 C1275 1.355 . S
C1276 C1278 1.419 . S
C1277 C1272 1.425 . S
C1277 C1274 1.409 . S
C1277 C1275 1.415 . S
C1278 H1268 0.930 . S
C1278 C1276 1.419 . S
C1278 C1279 1.362 . S
C1279 H1269 0.930 . S
C1279 C1272 1.409 . S
C1279 C1278 1.362 . S
H1280 C1286 0.930 . S
H1281 C1289 0.930 . S
H1282 C1290 0.930 . S
H1283 C1291 0.930 . S
H1284 C1294 0.930 . S
H1285 C1295 0.930 . S
C1286 H1280 0.930 . S
C1286 C1287 1.355 . S
C1286 C1288 1.415 . S
C1287 C1286 1.355 . S
C1287 C1289 1.419 . S
C1288 C1286 1.415 . S
C1288 C1293 1.425 . S
C1288 C1295 1.409 . S
C1289 H1281 0.930 . S
C1289 C1287 1.419 . S
C1289 C1290 1.362 . S
C1290 H1282 0.930 . S
C1290 C1289 1.362 . S
C1290 C1293 1.409 . S
C1291 H1283 0.930 . S
C1291 C1292 1.355 . S
C1291 C1293 1.415 . S
C1292 C1291 1.355 . S
C1292 C1294 1.419 . S
C1293 C1288 1.425 . S
C1293 C1290 1.409 . S
C1293 C1291 1.415 . S
C1294 H1284 0.930 . S
C1294 C1292 1.419 . S
C1294 C1295 1.362 . S
C1295 H1285 0.930 . S
C1295 C1288 1.409 . S
C1295 C1294 1.362 . S
H1296 C1302 0.930 . S
H1297 C1305 0.930 . S
H1298 C1306 0.930 . S
H1299 C1307 0.930 . S
H1300 C1310 0.930 . S
H1301 C1311 0.930 . S
C1302 H1296 0.930 . S
C1302 C1303 1.355 . S
C1302 C1304 1.415 . S
C1303 C1302 1.355 . S
C1303 C1305 1.419 . S
C1304 C1302 1.415 . S
C1304 C1309 1.425 . S
C1304 C1311 1.409 . S
C1305 H1297 0.930 . S
C1305 C1303 1.419 . S
C1305 C1306 1.362 . S
C1306 H1298 0.930 . S
C1306 C1305 1.362 . S
C1306 C1309 1.409 . S
C1307 H1299 0.930 . S
C1307 C1308 1.355 . S
C1307 C1309 1.415 . S
C1308 C1307 1.355 . S
C1308 C1310 1.419 . S
C1309 C1304 1.425 . S
C1309 C1306 1.409 . S
C1309 C1307 1.415 . S
C1310 H1300 0.930 . S
C1310 C1308 1.419 . S
C1310 C1311 1.362 . S
C1311 H1301 0.930 . S
C1311 C1304 1.409 . S
C1311 C1310 1.362 . S
H1312 C1318 0.930 . S
H1313 C1321 0.930 . S
H1314 C1322 0.930 . S
H1315 C1323 0.930 . S
H1316 C1326 0.930 . S
H1317 C1327 0.930 . S
C1318 H1312 0.930 . S
C1318 C1319 1.355 . S
C1318 C1320 1.415 . S
C1319 C1318 1.355 . S
C1319 C1321 1.419 . S
C1320 C1318 1.415 . S
C1320 C1325 1.425 . S
C1320 C1327 1.409 . S
C1321 H1313 0.930 . S
C1321 C1319 1.419 . S
C1321 C1322 1.362 . S
C1322 H1314 0.930 . S
C1322 C1321 1.362 . S
C1322 C1325 1.409 . S
C1323 H1315 0.930 . S
C1323 C1324 1.355 . S
C1323 C1325 1.415 . S
C1324 C1323 1.355 . S
C1324 C1326 1.419 . S
C1325 C1320 1.425 . S
C1325 C1322 1.409 . S
C1325 C1323 1.415 . S
C1326 H1316 0.930 . S
C1326 C1324 1.419 . S
C1326 C1327 1.362 . S
C1327 H1317 0.930 . S
C1327 C1320 1.409 . S
C1327 C1326 1.362 . S
H1328 C1334 0.930 . S
H1329 C1337 0.930 . S
H1330 C1338 0.930 . S
H1331 C1339 0.930 . S
H1332 C1342 0.930 . S
H1333 C1343 0.930 . S
C1334 H1328 0.930 . S
C1334 C1335 1.355 . S
C1334 C1336 1.415 . S
C1335 C1334 1.355 . S
C1335 C1337 1.419 . S
C1336 C1334 1.415 . S
C1336 C1341 1.425 . S
C1336 C1343 1.409 . S
C1337 H1329 0.930 . S
C1337 C1335 1.419 . S
C1337 C1338 1.362 . S
C1338 H1330 0.930 . S
C1338 C1337 1.362 . S
C1338 C1341 1.409 . S
C1339 H1331 0.930 . S
C1339 C1340 1.355 . S
C1339 C1341 1.415 . S
C1340 C1339 1.355 . S
C1340 C1342 1.419 . S
C1341 C1336 1.425 . S
C1341 C1338 1.409 . S
C1341 C1339 1.415 . S
C1342 H1332 0.930 . S
C1342 C1340 1.419 . S
C1342 C1343 1.362 . S
C1343 H1333 0.930 . S
C1343 C1336 1.409 . S
C1343 C1342 1.362 . S
H1344 C1350 0.930 . S
H1345 C1353 0.930 . S
H1346 C1354 0.930 . S
H1347 C1355 0.930 . S
H1348 C1358 0.930 . S
H1349 C1359 0.930 . S
C1350 H1344 0.930 . S
C1350 C1351 1.355 . S
C1350 C1352 1.415 . S
C1351 C1350 1.355 . S
C1351 C1353 1.419 . S
C1352 C1350 1.415 . S
C1352 C1357 1.425 . S
C1352 C1359 1.409 . S
C1353 H1345 0.930 . S
C1353 C1351 1.419 . S
C1353 C1354 1.362 . S
C1354 H1346 0.930 . S
C1354 C1353 1.362 . S
C1354 C1357 1.409 . S
C1355 H1347 0.930 . S
C1355 C1356 1.355 . S
C1355 C1357 1.415 . S
C1356 C1355 1.355 . S
C1356 C1358 1.419 . S
C1357 C1352 1.425 . S
C1357 C1354 1.409 . S
C1357 C1355 1.415 . S
C1358 H1348 0.930 . S
C1358 C1356 1.419 . S
C1358 C1359 1.362 . S
C1359 H1349 0.930 . S
C1359 C1352 1.409 . S
C1359 C1358 1.362 . S
H1360 C1366 0.930 . S
H1361 C1369 0.930 . S
H1362 C1370 0.930 . S
H1363 C1371 0.930 . S
H1364 C1374 0.930 . S
H1365 C1375 0.930 . S
C1366 H1360 0.930 . S
C1366 C1367 1.355 . S
C1366 C1368 1.415 . S
C1367 C1366 1.355 . S
C1367 C1369 1.419 . S
C1368 C1366 1.415 . S
C1368 C1373 1.425 . S
C1368 C1375 1.409 . S
C1369 H1361 0.930 . S
C1369 C1367 1.419 . S
C1369 C1370 1.362 . S
C1370 H1362 0.930 . S
C1370 C1369 1.362 . S
C1370 C1373 1.409 . S
C1371 H1363 0.930 . S
C1371 C1372 1.355 . S
C1371 C1373 1.415 . S
C1372 C1371 1.355 . S
C1372 C1374 1.419 . S
C1373 C1368 1.425 . S
C1373 C1370 1.409 . S
C1373 C1371 1.415 . S
C1374 H1364 0.930 . S
C1374 C1372 1.419 . S
C1374 C1375 1.362 . S
C1375 H1365 0.930 . S
C1375 C1368 1.409 . S
C1375 C1374 1.362 . S
H1376 C1382 0.930 . S
H1377 C1385 0.930 . S
H1378 C1386 0.930 . S
H1379 C1387 0.930 . S
H1380 C1390 0.930 . S
H1381 C1391 0.930 . S
C1382 H1376 0.930 . S
C1382 C1383 1.355 . S
C1382 C1384 1.415 . S
C1383 C1382 1.355 . S
C1383 C1385 1.419 . S
C1384 C1382 1.415 . S
C1384 C1389 1.425 . S
C1384 C1391 1.409 . S
C1385 H1377 0.930 . S
C1385 C1383 1.419 . S
C1385 C1386 1.362 . S
C1386 H1378 0.930 . S
C1386 C1385 1.362 . S
C1386 C1389 1.409 . S
C1387 H1379 0.930 . S
C1387 C1388 1.355 . S
C1387 C1389 1.415 . S
C1388 C1387 1.355 . S
C1388 C1390 1.419 . S
C1389 C1384 1.425 . S
C1389 C1386 1.409 . S
C1389 C1387 1.415 . S
C1390 H1380 0.930 . S
C1390 C1388 1.419 . S
C1390 C1391 1.362 . S
C1391 H1381 0.930 . S
C1391 C1384 1.409 . S
C1391 C1390 1.362 . S
H1392 C1398 0.930 . S
H1393 C1401 0.930 . S
H1394 C1402 0.930 . S
H1395 C1403 0.930 . S
H1396 C1406 0.930 . S
H1397 C1407 0.930 . S
C1398 H1392 0.930 . S
C1398 C1399 1.355 . S
C1398 C1400 1.415 . S
C1399 C1398 1.355 . S
C1399 C1401 1.419 . S
C1400 C1398 1.415 . S
C1400 C1405 1.425 . S
C1400 C1407 1.409 . S
C1401 H1393 0.930 . S
C1401 C1399 1.419 . S
C1401 C1402 1.362 . S
C1402 H1394 0.930 . S
C1402 C1401 1.362 . S
C1402 C1405 1.409 . S
C1403 H1395 0.930 . S
C1403 C1404 1.355 . S
C1403 C1405 1.415 . S
C1404 C1403 1.355 . S
C1404 C1406 1.419 . S
C1405 C1400 1.425 . S
C1405 C1402 1.409 . S
C1405 C1403 1.415 . S
C1406 H1396 0.930 . S
C1406 C1404 1.419 . S
C1406 C1407 1.362 . S
C1407 H1397 0.930 . S
C1407 C1400 1.409 . S
C1407 C1406 1.362 . S
H1408 C1414 0.930 . S
H1409 C1417 0.930 . S
H1410 C1418 0.930 . S
H1411 C1419 0.930 . S
H1412 C1422 0.930 . S
H1413 C1423 0.930 . S
C1414 H1408 0.930 . S
C1414 C1415 1.355 . S
C1414 C1416 1.415 . S
C1415 C1414 1.355 . S
C1415 C1417 1.419 . S
C1416 C1414 1.415 . S
C1416 C1421 1.425 . S
C1416 C1423 1.409 . S
C1417 H1409 0.930 . S
C1417 C1415 1.419 . S
C1417 C1418 1.362 . S
C1418 H1410 0.930 . S
C1418 C1417 1.362 . S
C1418 C1421 1.409 . S
C1419 H1411 0.930 . S
C1419 C1420 1.355 . S
C1419 C1421 1.415 . S
C1420 C1419 1.355 . S
C1420 C1422 1.419 . S
C1421 C1416 1.425 . S
C1421 C1418 1.409 . S
C1421 C1419 1.415 . S
C1422 H1412 0.930 . S
C1422 C1420 1.419 . S
C1422 C1423 1.362 . S
C1423 H1413 0.930 . S
C1423 C1416 1.409 . S
C1423 C1422 1.362 . S
H1424 C1430 0.930 . S
H1425 C1433 0.930 . S
H1426 C1434 0.930 . S
H1427 C1435 0.930 . S
H1428 C1438 0.930 . S
H1429 C1439 0.930 . S
C1430 H1424 0.930 . S
C1430 C1431 1.355 . S
C1430 C1432 1.415 . S
C1431 C1430 1.355 . S
C1431 C1433 1.419 . S
C1432 C1430 1.415 . S
C1432 C1437 1.425 . S
C1432 C1439 1.409 . S
C1433 H1425 0.930 . S
C1433 C1431 1.419 . S
C1433 C1434 1.362 . S
C1434 H1426 0.930 . S
C1434 C1433 1.362 . S
C1434 C1437 1.409 . S
C1435 H1427 0.930 . S
C1435 C1436 1.355 . S
C1435 C1437 1.415 . S
C1436 C1435 1.355 . S
C1436 C1438 1.419 . S
C1437 C1432 1.425 . S
C1437 C1434 1.409 . S
C1437 C1435 1.415 . S
C1438 H1428 0.930 . S
C1438 C1436 1.419 . S
C1438 C1439 1.362 . S
C1439 H1429 0.930 . S
C1439 C1432 1.409 . S
C1439 C1438 1.362 . S
H1440 C1446 0.930 . S
H1441 C1449 0.930 . S
H1442 C1450 0.930 . S
H1443 C1451 0.930 . S
H1444 C1454 0.930 . S
H1445 C1455 0.930 . S
C1446 H1440 0.930 . S
C1446 C1447 1.355 . S
C1446 C1448 1.415 . S
C1447 C1446 1.355 . S
C1447 C1449 1.419 . S
C1448 C1446 1.415 . S
C1448 C1453 1.425 . S
C1448 C1455 1.409 . S
C1449 H1441 0.930 . S
C1449 C1447 1.419 . S
C1449 C1450 1.362 . S
C1450 H1442 0.930 . S
C1450 C1449 1.362 . S
C1450 C1453 1.409 . S
C1451 H1443 0.930 . S
C1451 C1452 1.355 . S
C1451 C1453 1.415 . S
C1452 C1451 1.355 . S
C1452 C1454 1.419 . S
C1453 C1448 1.425 . S
C1453 C1450 1.409 . S
C1453 C1451 1.415 . S
C1454 H1444 0.930 . S
C1454 C1452 1.419 . S
C1454 C1455 1.362 . S
C1455 H1445 0.930 . S
C1455 C1448 1.409 . S
C1455 C1454 1.362 . S
H1456 C1462 0.930 . S
H1457 C1465 0.930 . S
H1458 C1466 0.930 . S
H1459 C1467 0.930 . S
H1460 C1470 0.930 . S
H1461 C1471 0.930 . S
C1462 H1456 0.930 . S
C1462 C1463 1.355 . S
C1462 C1464 1.415 . S
C1463 C1462 1.355 . S
C1463 C1465 1.419 . S
C1464 C1462 1.415 . S
C1464 C1469 1.425 . S
C1464 C1471 1.409 . S
C1465 H1457 0.930 . S
C1465 C1463 1.419 . S
C1465 C1466 1.362 . S
C1466 H1458 0.930 . S
C1466 C1465 1.362 . S
C1466 C1469 1.409 . S
C1467 H1459 0.930 . S
C1467 C1468 1.355 . S
C1467 C1469 1.415 . S
C1468 C1467 1.355 . S
C1468 C1470 1.419 . S
C1469 C1464 1.425 . S
C1469 C1466 1.409 . S
C1469 C1467 1.415 . S
C1470 H1460 0.930 . S
C1470 C1468 1.419 . S
C1470 C1471 1.362 . S
C1471 H1461 0.930 . S
C1471 C1464 1.409 . S
C1471 C1470 1.362 . S
H1472 C1478 0.930 . S
H1473 C1481 0.930 . S
H1474 C1482 0.930 . S
H1475 C1483 0.930 . S
H1476 C1486 0.930 . S
H1477 C1487 0.930 . S
C1478 H1472 0.930 . S
C1478 C1479 1.355 . S
C1478 C1480 1.412 1_554 S
C1479 C1478 1.355 . S
C1479 C1481 1.419 1_455 S
C1480 C1478 1.412 1_556 S
C1480 C1485 1.424 1_456 S
C1480 C1487 1.412 . S
C1481 H1473 0.930 . S
C1481 C1479 1.419 1_655 S
C1481 C1482 1.362 . S
C1482 H1474 0.930 . S
C1482 C1481 1.362 . S
C1482 C1485 1.419 . S
C1483 H1475 0.930 . S
C1483 C1484 1.355 . S
C1483 C1485 1.407 1_556 S
C1484 C1483 1.355 . S
C1484 C1486 1.419 1_655 S
C1485 C1480 1.424 1_654 S
C1485 C1482 1.419 . S
C1485 C1483 1.407 1_554 S
C1486 H1476 0.930 . S
C1486 C1484 1.419 1_455 S
C1486 C1487 1.362 . S
C1487 H1477 0.930 . S
C1487 C1480 1.412 . S
C1487 C1486 1.362 . S
H1488 C1494 0.930 . S
H1489 C1497 0.930 . S
H1490 C1498 0.930 . S
H1491 C1499 0.930 . S
H1492 C1502 0.930 . S
H1493 C1503 0.930 . S
C1494 H1488 0.930 . S
C1494 C1495 1.355 . S
C1494 C1496 1.415 . S
C1495 C1494 1.355 . S
C1495 C1497 1.419 1_556 S
C1496 C1494 1.415 . S
C1496 C1501 1.425 1_556 S
C1496 C1503 1.409 . S
C1497 H1489 0.930 . S
C1497 C1495 1.419 1_554 S
C1497 C1498 1.362 . S
C1498 H1490 0.930 . S
C1498 C1497 1.362 . S
C1498 C1501 1.409 . S
C1499 H1491 0.930 . S
C1499 C1500 1.355 . S
C1499 C1501 1.415 . S
C1500 C1499 1.355 . S
C1500 C1502 1.419 1_554 S
C1501 C1496 1.425 1_554 S
C1501 C1498 1.409 . S
C1501 C1499 1.415 . S
C1502 H1492 0.930 . S
C1502 C1500 1.419 1_556 S
C1502 C1503 1.362 . S
C1503 H1493 0.930 . S
C1503 C1496 1.409 . S
C1503 C1502 1.362 . S
H1504 C1510 0.930 . S
H1505 C1513 0.930 . S
H1506 C1514 0.930 . S
H1507 C1515 0.930 . S
H1508 C1518 0.930 . S
H1509 C1519 0.930 . S
C1510 H1504 0.930 . S
C1510 C1511 1.355 . S
C1510 C1512 1.415 . S
C1511 C1510 1.355 . S
C1511 C1513 1.419 1_455 S
C1512 C1510 1.415 . S
C1512 C1517 1.425 1_455 S
C1512 C1519 1.409 . S
C1513 H1505 0.930 . S
C1513 C1511 1.419 1_655 S
C1513 C1514 1.362 . S
C1514 H1506 0.930 . S
C1514 C1513 1.362 . S
C1514 C1517 1.409 . S
C1515 H1507 0.930 . S
C1515 C1516 1.355 . S
C1515 C1517 1.415 . S
C1516 C1515 1.355 . S
C1516 C1518 1.419 1_655 S
C1517 C1512 1.425 1_655 S
C1517 C1514 1.409 . S
C1517 C1515 1.415 . S
C1518 H1508 0.930 . S
C1518 C1516 1.419 1_455 S
C1518 C1519 1.362 . S
C1519 H1509 0.930 . S
C1519 C1512 1.409 . S
C1519 C1518 1.362 . S
H1520 C1526 0.930 . S
H1521 C1529 0.930 . S
H1522 C1530 0.930 . S
H1523 C1531 0.930 . S
H1524 C1534 0.930 . S
H1525 C1535 0.930 . S
C1526 H1520 0.930 . S
C1526 C1527 1.355 . S
C1526 C1528 1.415 . S
C1527 C1526 1.355 . S
C1527 C1529 1.419 . S
C1528 C1526 1.415 . S
C1528 C1533 1.425 . S
C1528 C1535 1.409 . S
C1529 H1521 0.930 . S
C1529 C1527 1.419 . S
C1529 C1530 1.362 . S
C1530 H1522 0.930 . S
C1530 C1529 1.362 . S
C1530 C1533 1.409 . S
C1531 H1523 0.930 . S
C1531 C1532 1.355 . S
C1531 C1533 1.415 . S
C1532 C1531 1.355 . S
C1532 C1534 1.419 . S
C1533 C1528 1.425 . S
C1533 C1530 1.409 . S
C1533 C1531 1.415 . S
C1534 H1524 0.930 . S
C1534 C1532 1.419 . S
C1534 C1535 1.362 . S
C1535 H1525 0.930 . S
C1535 C1528 1.409 . S
C1535 C1534 1.362 . S
H1536 C1542 0.930 . S
H1537 C1545 0.930 . S
H1538 C1546 0.930 . S
H1539 C1547 0.930 . S
H1540 C1550 0.930 . S
H1541 C1551 0.930 . S
C1542 H1536 0.930 . S
C1542 C1543 1.355 . S
C1542 C1544 1.415 . S
C1543 C1542 1.355 . S
C1543 C1545 1.419 1_554 S
C1544 C1542 1.415 . S
C1544 C1549 1.425 1_554 S
C1544 C1551 1.409 . S
C1545 H1537 0.930 . S
C1545 C1543 1.419 1_556 S
C1545 C1546 1.362 . S
C1546 H1538 0.930 . S
C1546 C1545 1.362 . S
C1546 C1549 1.409 . S
C1547 H1539 0.930 . S
C1547 C1548 1.355 . S
C1547 C1549 1.415 . S
C1548 C1547 1.355 . S
C1548 C1550 1.419 1_556 S
C1549 C1544 1.425 1_556 S
C1549 C1546 1.409 . S
C1549 C1547 1.415 . S
C1550 H1540 0.930 . S
C1550 C1548 1.419 1_554 S
C1550 C1551 1.362 . S
C1551 H1541 0.930 . S
C1551 C1544 1.409 . S
C1551 C1550 1.362 . S
H1552 C1558 0.930 . S
H1553 C1561 0.930 . S
H1554 C1562 0.930 . S
H1555 C1563 0.930 . S
H1556 C1566 0.931 . S
H1557 C1567 0.930 . S
C1558 H1552 0.930 . S
C1558 C1559 1.355 . S
C1558 C1560 1.415 . S
C1559 C1558 1.355 . S
C1559 C1561 1.418 1_655 S
C1560 C1558 1.415 . S
C1560 C1565 1.425 1_655 S
C1560 C1567 1.409 . S
C1561 H1553 0.930 . S
C1561 C1559 1.418 1_455 S
C1561 C1562 1.363 . S
C1562 H1554 0.930 . S
C1562 C1561 1.363 . S
C1562 C1565 1.409 . S
C1563 H1555 0.930 . S
C1563 C1564 1.355 . S
C1563 C1565 1.415 . S
C1564 C1563 1.355 . S
C1564 C1566 1.415 1_455 S
C1565 C1560 1.425 1_455 S
C1565 C1562 1.409 . S
C1565 C1563 1.415 . S
C1566 H1556 0.931 . S
C1566 C1564 1.415 1_655 S
C1566 C1567 1.365 . S
C1567 H1557 0.930 . S
C1567 C1560 1.409 . S
C1567 C1566 1.365 . S
H1568 C1574 0.930 . S
H1569 C1577 0.930 . S
H1570 C1578 0.930 . S
H1571 C1579 0.930 . S
H1572 C1582 0.930 . S
H1573 C1583 0.930 . S
C1574 H1568 0.930 . S
C1574 C1575 1.355 . S
C1574 C1576 1.415 . S
C1575 C1574 1.355 . S
C1575 C1577 1.419 . S
C1576 C1574 1.415 . S
C1576 C1581 1.425 . S
C1576 C1583 1.409 . S
C1577 H1569 0.930 . S
C1577 C1575 1.419 . S
C1577 C1578 1.362 . S
C1578 H1570 0.930 . S
C1578 C1577 1.362 . S
C1578 C1581 1.409 . S
C1579 H1571 0.930 . S
C1579 C1580 1.355 . S
C1579 C1581 1.415 . S
C1580 C1579 1.355 . S
C1580 C1582 1.419 . S
C1581 C1576 1.425 . S
C1581 C1578 1.409 . S
C1581 C1579 1.415 . S
C1582 H1572 0.930 . S
C1582 C1580 1.419 . S
C1582 C1583 1.362 . S
C1583 H1573 0.930 . S
C1583 C1576 1.409 . S
C1583 C1582 1.362 . S
H1584 C1590 0.930 . S
H1585 C1593 0.930 . S
H1586 C1594 0.930 1_545 S
H1587 C1595 0.930 . S
H1588 C1598 0.930 . S
H1589 C1599 0.930 1_565 S
C1590 H1584 0.930 . S
C1590 C1591 1.355 . S
C1590 C1592 1.415 . S
C1591 C1590 1.355 . S
C1591 C1593 1.419 . S
C1592 C1590 1.415 . S
C1592 C1597 1.425 1_465 S
C1592 C1599 1.409 1_465 S
C1593 H1585 0.930 . S
C1593 C1591 1.419 . S
C1593 C1594 1.362 . S
C1594 H1586 0.930 1_565 S
C1594 C1593 1.362 . S
C1594 C1597 1.409 1_465 S
C1595 H1587 0.930 . S
C1595 C1596 1.355 . S
C1595 C1597 1.415 . S
C1596 C1595 1.355 . S
C1596 C1598 1.419 . S
C1597 C1592 1.425 1_645 S
C1597 C1594 1.409 1_645 S
C1597 C1595 1.415 . S
C1598 H1588 0.930 . S
C1598 C1596 1.419 . S
C1598 C1599 1.362 . S
C1599 H1589 0.930 1_545 S
C1599 C1592 1.409 1_645 S
C1599 C1598 1.362 . S
H1600 C1606 0.930 . S
H1601 C1609 0.930 . S
H1602 C1610 0.930 . S
H1603 C1611 0.930 . S
H1604 C1614 0.930 . S
H1605 C1615 0.930 . S
C1606 H1600 0.930 . S
C1606 C1607 1.355 . S
C1606 C1608 1.415 . S
C1607 C1606 1.355 . S
C1607 C1609 1.419 . S
C1608 C1606 1.415 . S
C1608 C1613 1.425 . S
C1608 C1615 1.409 . S
C1609 H1601 0.930 . S
C1609 C1607 1.419 . S
C1609 C1610 1.362 . S
C1610 H1602 0.930 . S
C1610 C1609 1.362 . S
C1610 C1613 1.409 . S
C1611 H1603 0.930 . S
C1611 C1612 1.355 . S
C1611 C1613 1.415 . S
C1612 C1611 1.355 . S
C1612 C1614 1.419 . S
C1613 C1608 1.425 . S
C1613 C1610 1.409 . S
C1613 C1611 1.415 . S
C1614 H1604 0.930 . S
C1614 C1612 1.419 . S
C1614 C1615 1.362 . S
C1615 H1605 0.930 . S
C1615 C1608 1.409 . S
C1615 C1614 1.362 . S
H1616 C1622 0.930 . S
H1617 C1625 0.930 . S
H1618 C1626 0.930 . S
H1619 C1627 0.930 . S
H1620 C1630 0.930 . S
H1621 C1631 0.930 . S
C1622 H1616 0.930 . S
C1622 C1623 1.355 . S
C1622 C1624 1.430 . S
C1623 C1622 1.355 . S
C1623 C1625 1.419 . S
C1624 C1622 1.430 . S
C1624 C1629 1.425 . S
C1624 C1631 1.394 1_545 S
C1625 H1617 0.930 . S
C1625 C1623 1.419 . S
C1625 C1626 1.362 . S
C1626 H1618 0.930 . S
C1626 C1625 1.362 . S
C1626 C1629 1.417 . S
C1627 H1619 0.930 . S
C1627 C1628 1.355 . S
C1627 C1629 1.407 1_565 S
C1628 C1627 1.355 . S
C1628 C1630 1.419 . S
C1629 C1624 1.425 . S
C1629 C1626 1.417 . S
C1629 C1627 1.407 1_545 S
C1630 H1620 0.930 . S
C1630 C1628 1.419 . S
C1630 C1631 1.362 . S
C1631 H1621 0.930 . S
C1631 C1624 1.394 1_565 S
C1631 C1630 1.362 . S
H1632 C1638 0.930 . S
H1633 C1641 0.930 . S
H1634 C1642 0.930 . S
H1635 C1643 0.930 . S
H1636 C1646 0.930 . S
H1637 C1647 0.930 . S
C1638 H1632 0.930 . S
C1638 C1639 1.355 . S
C1638 C1640 1.415 . S
C1639 C1638 1.355 . S
C1639 C1641 1.419 . S
C1640 C1638 1.415 . S
C1640 C1645 1.425 . S
C1640 C1647 1.409 . S
C1641 H1633 0.930 . S
C1641 C1639 1.419 . S
C1641 C1642 1.362 . S
C1642 H1634 0.930 . S
C1642 C1641 1.362 . S
C1642 C1645 1.409 . S
C1643 H1635 0.930 . S
C1643 C1644 1.355 . S
C1643 C1645 1.415 . S
C1644 C1643 1.355 . S
C1644 C1646 1.419 . S
C1645 C1640 1.425 . S
C1645 C1642 1.409 . S
C1645 C1643 1.415 . S
C1646 H1636 0.930 . S
C1646 C1644 1.419 . S
C1646 C1647 1.362 . S
C1647 H1637 0.930 . S
C1647 C1640 1.409 . S
C1647 C1646 1.362 . S
H1648 C1654 0.930 . S
H1649 C1657 0.930 . S
H1650 C1658 0.930 . S
H1651 C1659 0.930 . S
H1652 C1662 0.930 . S
H1653 C1663 0.930 . S
C1654 H1648 0.930 . S
C1654 C1655 1.355 . S
C1654 C1656 1.415 1_565 S
C1655 C1654 1.355 . S
C1655 C1657 1.419 . S
C1656 C1654 1.415 1_545 S
C1656 C1661 1.425 1_545 S
C1656 C1663 1.409 . S
C1657 H1649 0.930 . S
C1657 C1655 1.419 . S
C1657 C1658 1.362 . S
C1658 H1650 0.930 . S
C1658 C1657 1.362 . S
C1658 C1661 1.413 . S
C1659 H1651 0.930 . S
C1659 C1660 1.355 . S
C1659 C1661 1.411 1_545 S
C1660 C1659 1.355 . S
C1660 C1662 1.419 . S
C1661 C1656 1.425 1_565 S
C1661 C1658 1.413 . S
C1661 C1659 1.411 1_565 S
C1662 H1652 0.930 . S
C1662 C1660 1.419 . S
C1662 C1663 1.362 . S
C1663 H1653 0.930 . S
C1663 C1656 1.409 . S
C1663 C1662 1.362 . S
H1664 C1670 0.930 . S
H1665 C1673 0.930 . S
H1666 C1674 0.930 . S
H1667 C1675 0.930 . S
H1668 C1678 0.930 . S
H1669 C1679 0.930 . S
C1670 H1664 0.930 . S
C1670 C1671 1.355 . S
C1670 C1672 1.415 . S
C1671 C1670 1.355 . S
C1671 C1673 1.419 . S
C1672 C1670 1.415 . S
C1672 C1677 1.425 . S
C1672 C1679 1.409 . S
C1673 H1665 0.930 . S
C1673 C1671 1.419 . S
C1673 C1674 1.362 . S
C1674 H1666 0.930 . S
C1674 C1673 1.362 . S
C1674 C1677 1.409 . S
C1675 H1667 0.930 . S
C1675 C1676 1.355 . S
C1675 C1677 1.415 . S
C1676 C1675 1.355 . S
C1676 C1678 1.419 . S
C1677 C1672 1.425 . S
C1677 C1674 1.409 . S
C1677 C1675 1.415 . S
C1678 H1668 0.930 . S
C1678 C1676 1.419 . S
C1678 C1679 1.362 . S
C1679 H1669 0.930 . S
C1679 C1672 1.409 . S
C1679 C1678 1.362 . S
H1680 C1686 0.930 . S
H1681 C1689 0.930 . S
H1682 C1690 0.930 . S
H1683 C1691 0.930 . S
H1684 C1694 0.930 . S
H1685 C1695 0.930 . S
C1686 H1680 0.930 . S
C1686 C1687 1.355 . S
C1686 C1688 1.415 . S
C1687 C1686 1.355 . S
C1687 C1689 1.419 . S
C1688 C1686 1.415 . S
C1688 C1693 1.425 . S
C1688 C1695 1.409 . S
C1689 H1681 0.930 . S
C1689 C1687 1.419 . S
C1689 C1690 1.362 . S
C1690 H1682 0.930 . S
C1690 C1689 1.362 . S
C1690 C1693 1.409 . S
C1691 H1683 0.930 . S
C1691 C1692 1.355 . S
C1691 C1693 1.415 . S
C1692 C1691 1.355 . S
C1692 C1694 1.419 . S
C1693 C1688 1.425 . S
C1693 C1690 1.409 . S
C1693 C1691 1.415 . S
C1694 H1684 0.930 . S
C1694 C1692 1.419 . S
C1694 C1695 1.362 . S
C1695 H1685 0.930 . S
C1695 C1688 1.409 . S
C1695 C1694 1.362 . S
H1696 C1702 0.930 . S
H1697 C1705 0.930 . S
H1698 C1706 0.930 . S
H1699 C1707 0.930 . S
H1700 C1710 0.930 . S
H1701 C1711 0.930 . S
C1702 H1696 0.930 . S
C1702 C1703 1.355 . S
C1702 C1704 1.415 . S
C1703 C1702 1.355 . S
C1703 C1705 1.419 . S
C1704 C1702 1.415 . S
C1704 C1709 1.425 . S
C1704 C1711 1.409 . S
C1705 H1697 0.930 . S
C1705 C1703 1.419 . S
C1705 C1706 1.362 . S
C1706 H1698 0.930 . S
C1706 C1705 1.362 . S
C1706 C1709 1.409 . S
C1707 H1699 0.930 . S
C1707 C1708 1.355 . S
C1707 C1709 1.415 . S
C1708 C1707 1.355 . S
C1708 C1710 1.419 . S
C1709 C1704 1.425 . S
C1709 C1706 1.409 . S
C1709 C1707 1.415 . S
C1710 H1700 0.930 . S
C1710 C1708 1.419 . S
C1710 C1711 1.362 . S
C1711 H1701 0.930 . S
C1711 C1704 1.409 . S
C1711 C1710 1.362 . S
H1712 C1718 0.930 . S
H1713 C1721 0.930 . S
H1714 C1722 0.930 . S
H1715 C1723 0.930 . S
H1716 C1726 0.930 . S
H1717 C1727 0.930 . S
C1718 H1712 0.930 . S
C1718 C1719 1.355 . S
C1718 C1720 1.395 1_565 S
C1719 C1718 1.355 . S
C1719 C1721 1.419 1_554 S
C1720 C1718 1.395 1_545 S
C1720 C1725 1.425 1_554 S
C1720 C1727 1.429 . S
C1721 H1713 0.930 . S
C1721 C1719 1.419 1_556 S
C1721 C1722 1.362 . S
C1722 H1714 0.930 . S
C1722 C1721 1.362 . S
C1722 C1725 1.405 1_565 S
C1723 H1715 0.930 . S
C1723 C1724 1.355 . S
C1723 C1725 1.419 . S
C1724 C1723 1.355 . S
C1724 C1726 1.419 1_556 S
C1725 C1720 1.425 1_556 S
C1725 C1722 1.405 1_545 S
C1725 C1723 1.419 . S
C1726 H1716 0.930 . S
C1726 C1724 1.419 1_554 S
C1726 C1727 1.362 . S
C1727 H1717 0.930 . S
C1727 C1720 1.429 . S
C1727 C1726 1.362 . S
H1728 C1734 0.930 . S
H1729 C1737 0.930 . S
H1730 C1738 0.930 . S
H1731 C1739 0.930 . S
H1732 C1742 0.930 . S
H1733 C1743 0.930 . S
C1734 H1728 0.930 . S
C1734 C1735 1.355 . S
C1734 C1736 1.415 . S
C1735 C1734 1.355 . S
C1735 C1737 1.419 . S
C1736 C1734 1.415 . S
C1736 C1741 1.425 . S
C1736 C1743 1.409 1_554 S
C1737 H1729 0.930 . S
C1737 C1735 1.419 . S
C1737 C1738 1.362 . S
C1738 H1730 0.930 . S
C1738 C1737 1.362 . S
C1738 C1741 1.409 . S
C1739 H1731 0.930 . S
C1739 C1740 1.355 1_554 S
C1739 C1741 1.415 . S
C1740 C1739 1.355 1_556 S
C1740 C1742 1.419 . S
C1741 C1736 1.425 . S
C1741 C1738 1.409 . S
C1741 C1739 1.415 . S
C1742 H1732 0.930 . S
C1742 C1740 1.419 . S
C1742 C1743 1.362 . S
C1743 H1733 0.930 . S
C1743 C1736 1.409 1_556 S
C1743 C1742 1.362 . S
H1744 C1750 0.930 . S
H1745 C1753 0.930 . S
H1746 C1754 0.930 . S
H1747 C1755 0.930 . S
H1748 C1758 0.930 . S
H1749 C1759 0.930 . S
C1750 H1744 0.930 . S
C1750 C1751 1.355 . S
C1750 C1752 1.415 . S
C1751 C1750 1.355 . S
C1751 C1753 1.419 . S
C1752 C1750 1.415 . S
C1752 C1757 1.425 . S
C1752 C1759 1.409 1_554 S
C1753 H1745 0.930 . S
C1753 C1751 1.419 . S
C1753 C1754 1.362 . S
C1754 H1746 0.930 . S
C1754 C1753 1.362 . S
C1754 C1757 1.409 . S
C1755 H1747 0.930 . S
C1755 C1756 1.355 1_554 S
C1755 C1757 1.415 . S
C1756 C1755 1.355 1_556 S
C1756 C1758 1.419 . S
C1757 C1752 1.425 . S
C1757 C1754 1.409 . S
C1757 C1755 1.415 . S
C1758 H1748 0.930 . S
C1758 C1756 1.419 . S
C1758 C1759 1.362 . S
C1759 H1749 0.930 . S
C1759 C1752 1.409 1_556 S
C1759 C1758 1.362 . S
H1760 C1766 0.930 . S
H1761 C1769 0.930 . S
H1762 C1770 0.930 . S
H1763 C1771 0.930 . S
H1764 C1774 0.930 . S
H1765 C1775 0.930 . S
C1766 H1760 0.930 . S
C1766 C1767 1.355 . S
C1766 C1768 1.415 . S
C1767 C1766 1.355 . S
C1767 C1769 1.419 . S
C1768 C1766 1.415 . S
C1768 C1773 1.425 . S
C1768 C1775 1.409 . S
C1769 H1761 0.930 . S
C1769 C1767 1.419 . S
C1769 C1770 1.362 . S
C1770 H1762 0.930 . S
C1770 C1769 1.362 . S
C1770 C1773 1.409 . S
C1771 H1763 0.930 . S
C1771 C1772 1.355 . S
C1771 C1773 1.415 . S
C1772 C1771 1.355 . S
C1772 C1774 1.419 . S
C1773 C1768 1.425 . S
C1773 C1770 1.409 . S
C1773 C1771 1.415 . S
C1774 H1764 0.930 . S
C1774 C1772 1.419 . S
C1774 C1775 1.362 . S
C1775 H1765 0.930 . S
C1775 C1768 1.409 . S
C1775 C1774 1.362 . S
H1776 C1782 0.930 . S
H1777 C1785 0.930 . S
H1778 C1786 0.930 . S
H1779 C1787 0.930 1_655 S
H1780 C1790 0.930 . S
H1781 C1791 0.930 . S
C1782 H1776 0.930 . S
C1782 C1783 1.355 . S
C1782 C1784 1.415 . S
C1783 C1782 1.355 . S
C1783 C1785 1.419 . S
C1784 C1782 1.415 . S
C1784 C1789 1.425 . S
C1784 C1791 1.409 . S
C1785 H1777 0.930 . S
C1785 C1783 1.419 . S
C1785 C1786 1.362 . S
C1786 H1778 0.930 . S
C1786 C1785 1.362 . S
C1786 C1789 1.409 . S
C1787 H1779 0.930 1_455 S
C1787 C1788 1.355 . S
C1787 C1789 1.415 . S
C1788 C1787 1.355 . S
C1788 C1790 1.419 . S
C1789 C1784 1.425 . S
C1789 C1786 1.409 . S
C1789 C1787 1.415 . S
C1790 H1780 0.930 . S
C1790 C1788 1.419 . S
C1790 C1791 1.362 . S
C1791 H1781 0.930 . S
C1791 C1784 1.409 . S
C1791 C1790 1.362 . S
H1792 C1798 0.930 . S
H1793 C1801 0.930 . S
H1794 C1802 0.930 1_554 S
H1795 C1803 0.930 . S
H1796 C1806 0.932 . S
H1797 C1807 0.930 . S
C1798 H1792 0.930 . S
C1798 C1799 1.355 . S
C1798 C1800 1.415 . S
C1799 C1798 1.355 . S
C1799 C1801 1.419 . S
C1800 C1798 1.415 . S
C1800 C1805 1.425 . S
C1800 C1807 1.409 . S
C1801 H1793 0.930 . S
C1801 C1799 1.419 . S
C1801 C1802 1.362 . S
C1802 H1794 0.930 1_556 S
C1802 C1801 1.362 . S
C1802 C1805 1.409 . S
C1803 H1795 0.930 . S
C1803 C1804 1.355 . S
C1803 C1805 1.415 1_554 S
C1804 C1803 1.355 . S
C1804 C1806 1.430 . S
C1805 C1800 1.425 . S
C1805 C1802 1.409 . S
C1805 C1803 1.415 1_556 S
C1806 H1796 0.932 . S
C1806 C1804 1.430 . S
C1806 C1807 1.350 1_554 S
C1807 H1797 0.930 . S
C1807 C1800 1.409 . S
C1807 C1806 1.350 1_556 S
H1808 C1814 0.930 . S
H1809 C1817 0.930 . S
H1810 C1818 0.930 . S
H1811 C1819 0.930 . S
H1812 C1822 0.930 . S
H1813 C1823 0.930 . S
C1814 H1808 0.930 . S
C1814 C1815 1.355 . S
C1814 C1816 1.415 . S
C1815 C1814 1.355 . S
C1815 C1817 1.419 . S
C1816 C1814 1.415 . S
C1816 C1821 1.425 . S
C1816 C1823 1.409 1_556 S
C1817 H1809 0.930 . S
C1817 C1815 1.419 . S
C1817 C1818 1.362 . S
C1818 H1810 0.930 . S
C1818 C1817 1.362 . S
C1818 C1821 1.409 . S
C1819 H1811 0.930 . S
C1819 C1820 1.355 1_556 S
C1819 C1821 1.415 . S
C1820 C1819 1.355 1_554 S
C1820 C1822 1.419 . S
C1821 C1816 1.425 . S
C1821 C1818 1.409 . S
C1821 C1819 1.415 . S
C1822 H1812 0.930 . S
C1822 C1820 1.419 . S
C1822 C1823 1.362 . S
C1823 H1813 0.930 . S
C1823 C1816 1.409 1_554 S
C1823 C1822 1.362 . S
H1824 C1830 0.930 . S
H1825 C1833 0.930 . S
H1826 C1834 0.930 . S
H1827 C1835 0.930 . S
H1828 C1838 0.930 . S
H1829 C1839 0.930 . S
C1830 H1824 0.930 . S
C1830 C1831 1.355 . S
C1830 C1832 1.415 . S
C1831 C1830 1.355 . S
C1831 C1833 1.419 . S
C1832 C1830 1.415 . S
C1832 C1837 1.425 . S
C1832 C1839 1.409 . S
C1833 H1825 0.930 . S
C1833 C1831 1.419 . S
C1833 C1834 1.362 . S
C1834 H1826 0.930 . S
C1834 C1833 1.362 . S
C1834 C1837 1.409 . S
C1835 H1827 0.930 . S
C1835 C1836 1.355 . S
C1835 C1837 1.415 . S
C1836 C1835 1.355 . S
C1836 C1838 1.419 . S
C1837 C1832 1.425 . S
C1837 C1834 1.409 . S
C1837 C1835 1.415 . S
C1838 H1828 0.930 . S
C1838 C1836 1.419 . S
C1838 C1839 1.362 . S
C1839 H1829 0.930 . S
C1839 C1832 1.409 . S
C1839 C1838 1.362 . S
H1840 C1846 0.930 . S
H1841 C1849 0.924 1_455 S
H1842 C1850 0.930 . S
H1843 C1851 0.930 . S
H1844 C1854 0.930 . S
H1845 C1855 0.930 . S
C1846 H1840 0.930 . S
C1846 C1847 1.355 . S
C1846 C1848 1.415 . S
C1847 C1846 1.355 . S
C1847 C1849 1.422 . S
C1848 C1846 1.415 . S
C1848 C1853 1.425 . S
C1848 C1855 1.409 . S
C1849 H1841 0.924 1_655 S
C1849 C1847 1.422 . S
C1849 C1850 1.365 . S
C1850 H1842 0.930 . S
C1850 C1849 1.365 . S
C1850 C1853 1.409 . S
C1851 H1843 0.930 . S
C1851 C1852 1.355 . S
C1851 C1853 1.415 . S
C1852 C1851 1.355 . S
C1852 C1854 1.419 . S
C1853 C1848 1.425 . S
C1853 C1850 1.409 . S
C1853 C1851 1.415 . S
C1854 H1844 0.930 . S
C1854 C1852 1.419 . S
C1854 C1855 1.362 . S
C1855 H1845 0.930 . S
C1855 C1848 1.409 . S
C1855 C1854 1.362 . S
H1856 C1862 0.930 . S
H1857 C1865 0.930 . S
H1858 C1866 0.930 . S
H1859 C1867 0.930 . S
H1860 C1870 0.930 1_545 S
H1861 C1871 0.930 . S
C1862 H1856 0.930 . S
C1862 C1863 1.355 . S
C1862 C1864 1.415 . S
C1863 C1862 1.355 . S
C1863 C1865 1.419 . S
C1864 C1862 1.415 . S
C1864 C1869 1.425 . S
C1864 C1871 1.409 . S
C1865 H1857 0.930 . S
C1865 C1863 1.419 . S
C1865 C1866 1.362 . S
C1866 H1858 0.930 . S
C1866 C1865 1.362 . S
C1866 C1869 1.409 . S
C1867 H1859 0.930 . S
C1867 C1868 1.355 . S
C1867 C1869 1.415 . S
C1868 C1867 1.355 . S
C1868 C1870 1.419 . S
C1869 C1864 1.425 . S
C1869 C1866 1.409 . S
C1869 C1867 1.415 . S
C1870 H1860 0.930 1_565 S
C1870 C1868 1.419 . S
C1870 C1871 1.362 . S
C1871 H1861 0.930 . S
C1871 C1864 1.409 . S
C1871 C1870 1.362 . S
H1872 C1878 0.930 . S
H1873 C1881 0.930 . S
H1874 C1882 0.930 . S
H1875 C1883 0.930 . S
H1876 C1886 0.930 1_655 S
H1877 C1887 0.930 . S
C1878 H1872 0.930 . S
C1878 C1879 1.355 . S
C1878 C1880 1.415 . S
C1879 C1878 1.355 . S
C1879 C1881 1.419 . S
C1880 C1878 1.415 . S
C1880 C1885 1.425 . S
C1880 C1887 1.409 . S
C1881 H1873 0.930 . S
C1881 C1879 1.419 . S
C1881 C1882 1.362 . S
C1882 H1874 0.930 . S
C1882 C1881 1.362 . S
C1882 C1885 1.409 . S
C1883 H1875 0.930 . S
C1883 C1884 1.355 . S
C1883 C1885 1.415 . S
C1884 C1883 1.355 . S
C1884 C1886 1.419 . S
C1885 C1880 1.425 . S
C1885 C1882 1.409 . S
C1885 C1883 1.415 . S
C1886 H1876 0.930 1_455 S
C1886 C1884 1.419 . S
C1886 C1887 1.362 . S
C1887 H1877 0.930 . S
C1887 C1880 1.409 . S
C1887 C1886 1.362 . S
H1888 C1894 0.930 . S
H1889 C1897 0.930 . S
H1890 C1898 0.930 . S
H1891 C1899 0.930 . S
H1892 C1902 0.930 . S
H1893 C1903 0.930 . S
C1894 H1888 0.930 . S
C1894 C1895 1.355 . S
C1894 C1896 1.415 . S
C1895 C1894 1.355 . S
C1895 C1897 1.419 . S
C1896 C1894 1.415 . S
C1896 C1901 1.425 . S
C1896 C1903 1.409 . S
C1897 H1889 0.930 . S
C1897 C1895 1.419 . S
C1897 C1898 1.362 . S
C1898 H1890 0.930 . S
C1898 C1897 1.362 . S
C1898 C1901 1.409 . S
C1899 H1891 0.930 . S
C1899 C1900 1.355 . S
C1899 C1901 1.415 . S
C1900 C1899 1.355 . S
C1900 C1902 1.419 . S
C1901 C1896 1.425 . S
C1901 C1898 1.409 . S
C1901 C1899 1.415 . S
C1902 H1892 0.930 . S
C1902 C1900 1.419 . S
C1902 C1903 1.362 . S
C1903 H1893 0.930 . S
C1903 C1896 1.409 . S
C1903 C1902 1.362 . S
H1904 C1910 0.930 . S
H1905 C1913 0.930 . S
H1906 C1914 0.930 . S
H1907 C1915 0.930 1_655 S
H1908 C1918 0.930 . S
H1909 C1919 0.930 . S
C1910 H1904 0.930 . S
C1910 C1911 1.355 . S
C1910 C1912 1.415 . S
C1911 C1910 1.355 . S
C1911 C1913 1.419 . S
C1912 C1910 1.415 . S
C1912 C1917 1.425 . S
C1912 C1919 1.409 . S
C1913 H1905 0.930 . S
C1913 C1911 1.419 . S
C1913 C1914 1.362 . S
C1914 H1906 0.930 . S
C1914 C1913 1.362 . S
C1914 C1917 1.409 . S
C1915 H1907 0.930 1_455 S
C1915 C1916 1.355 . S
C1915 C1917 1.415 . S
C1916 C1915 1.355 . S
C1916 C1918 1.419 1_565 S
C1917 C1912 1.425 . S
C1917 C1914 1.409 . S
C1917 C1915 1.415 . S
C1918 H1908 0.930 . S
C1918 C1916 1.419 1_545 S
C1918 C1919 1.362 1_545 S
C1919 H1909 0.930 . S
C1919 C1912 1.409 . S
C1919 C1918 1.362 1_565 S
H1920 C1926 0.930 1_565 S
H1921 C1929 0.930 . S
H1922 C1930 0.930 . S
H1923 C1931 0.930 . S
H1924 C1934 0.930 . S
H1925 C1935 0.930 1_565 S
C1926 H1920 0.930 1_545 S
C1926 C1927 1.355 . S
C1926 C1928 1.415 . S
C1927 C1926 1.355 . S
C1927 C1929 1.419 . S
C1928 C1926 1.415 . S
C1928 C1933 1.425 . S
C1928 C1935 1.409 . S
C1929 H1921 0.930 . S
C1929 C1927 1.419 . S
C1929 C1930 1.362 . S
C1930 H1922 0.930 . S
C1930 C1929 1.362 . S
C1930 C1933 1.409 . S
C1931 H1923 0.930 . S
C1931 C1932 1.355 . S
C1931 C1933 1.415 . S
C1932 C1931 1.355 . S
C1932 C1934 1.419 . S
C1933 C1928 1.425 . S
C1933 C1930 1.409 . S
C1933 C1931 1.415 . S
C1934 H1924 0.930 . S
C1934 C1932 1.419 . S
C1934 C1935 1.362 . S
C1935 H1925 0.930 1_545 S
C1935 C1928 1.409 . S
C1935 C1934 1.362 . S
H1936 C1942 0.930 . S
H1937 C1945 0.930 . S
H1938 C1946 0.930 . S
H1939 C1947 0.930 . S
H1940 C1950 0.930 1_455 S
H1941 C1951 0.930 . S
C1942 H1936 0.930 . S
C1942 C1943 1.355 . S
C1942 C1944 1.415 . S
C1943 C1942 1.355 . S
C1943 C1945 1.419 . S
C1944 C1942 1.415 . S
C1944 C1949 1.425 . S
C1944 C1951 1.409 . S
C1945 H1937 0.930 . S
C1945 C1943 1.419 . S
C1945 C1946 1.362 . S
C1946 H1938 0.930 . S
C1946 C1945 1.362 . S
C1946 C1949 1.409 . S
C1947 H1939 0.930 . S
C1947 C1948 1.355 . S
C1947 C1949 1.415 . S
C1948 C1947 1.355 . S
C1948 C1950 1.419 . S
C1949 C1944 1.425 . S
C1949 C1946 1.409 . S
C1949 C1947 1.415 . S
C1950 H1940 0.930 1_655 S
C1950 C1948 1.419 . S
C1950 C1951 1.362 . S
C1951 H1941 0.930 . S
C1951 C1944 1.409 . S
C1951 C1950 1.362 . S
H1952 C1958 0.930 . S
H1953 C1961 0.930 . S
H1954 C1962 0.930 . S
H1955 C1963 0.930 . S
H1956 C1966 0.930 . S
H1957 C1967 0.930 . S
C1958 H1952 0.930 . S
C1958 C1959 1.355 . S
C1958 C1960 1.415 . S
C1959 C1958 1.355 . S
C1959 C1961 1.419 . S
C1960 C1958 1.415 . S
C1960 C1965 1.425 . S
C1960 C1967 1.409 . S
C1961 H1953 0.930 . S
C1961 C1959 1.419 . S
C1961 C1962 1.362 . S
C1962 H1954 0.930 . S
C1962 C1961 1.362 . S
C1962 C1965 1.409 . S
C1963 H1955 0.930 . S
C1963 C1964 1.355 . S
C1963 C1965 1.415 . S
C1964 C1963 1.355 . S
C1964 C1966 1.419 . S
C1965 C1960 1.425 . S
C1965 C1962 1.409 . S
C1965 C1963 1.415 . S
C1966 H1956 0.930 . S
C1966 C1964 1.419 . S
C1966 C1967 1.362 . S
C1967 H1957 0.930 . S
C1967 C1960 1.409 . S
C1967 C1966 1.362 . S
H1968 C1974 0.930 . S
H1969 C1977 0.930 . S
H1970 C1978 0.930 . S
H1971 C1979 0.930 . S
H1972 C1982 0.908 1_455 S
H1973 C1983 0.930 . S
C1974 H1968 0.930 . S
C1974 C1975 1.355 . S
C1974 C1976 1.415 . S
C1975 C1974 1.355 . S
C1975 C1977 1.419 . S
C1976 C1974 1.415 . S
C1976 C1981 1.425 . S
C1976 C1983 1.409 . S
C1977 H1969 0.930 . S
C1977 C1975 1.419 . S
C1977 C1978 1.362 . S
C1978 H1970 0.930 . S
C1978 C1977 1.362 . S
C1978 C1981 1.409 . S
C1979 H1971 0.930 . S
C1979 C1980 1.355 . S
C1979 C1981 1.415 . S
C1980 C1979 1.355 . S
C1980 C1982 1.419 1_545 S
C1981 C1976 1.425 . S
C1981 C1978 1.409 . S
C1981 C1979 1.415 . S
C1982 H1972 0.908 1_655 S
C1982 C1980 1.419 1_565 S
C1982 C1983 1.362 1_565 S
C1983 H1973 0.930 . S
C1983 C1976 1.409 . S
C1983 C1982 1.362 1_545 S
H1984 C1990 0.930 . S
H1985 C1993 0.930 . S
H1986 C1994 0.930 . S
H1987 C1995 0.930 . S
H1988 C1998 0.930 . S
H1989 C1999 0.930 . S
C1990 H1984 0.930 . S
C1990 C1991 1.355 . S
C1990 C1992 1.415 . S
C1991 C1990 1.355 . S
C1991 C1993 1.419 . S
C1992 C1990 1.415 . S
C1992 C1997 1.425 . S
C1992 C1999 1.409 . S
C1993 H1985 0.930 . S
C1993 C1991 1.419 . S
C1993 C1994 1.362 . S
C1994 H1986 0.930 . S
C1994 C1993 1.362 . S
C1994 C1997 1.409 . S
C1995 H1987 0.930 . S
C1995 C1996 1.355 . S
C1995 C1997 1.415 . S
C1996 C1995 1.355 . S
C1996 C1998 1.419 . S
C1997 C1992 1.425 . S
C1997 C1994 1.409 . S
C1997 C1995 1.415 . S
C1998 H1988 0.930 . S
C1998 C1996 1.419 . S
C1998 C1999 1.362 . S
C1999 H1989 0.930 . S
C1999 C1992 1.409 . S
C1999 C1998 1.362 . S
H2000 C2006 0.930 . S
H2001 C2009 0.930 . S
H2002 C2010 0.930 . S
H2003 C2011 0.930 . S
H2004 C2014 0.930 . S
H2005 C2015 0.930 . S
C2006 H2000 0.930 . S
C2006 C2007 1.355 . S
C2006 C2008 1.415 . S
C2007 C2006 1.355 . S
C2007 C2009 1.419 . S
C2008 C2006 1.415 . S
C2008 C2013 1.425 . S
C2008 C2015 1.409 . S
C2009 H2001 0.930 . S
C2009 C2007 1.419 . S
C2009 C2010 1.362 . S
C2010 H2002 0.930 . S
C2010 C2009 1.362 . S
C2010 C2013 1.409 . S
C2011 H2003 0.930 . S
C2011 C2012 1.355 . S
C2011 C2013 1.415 . S
C2012 C2011 1.355 . S
C2012 C2014 1.419 . S
C2013 C2008 1.425 . S
C2013 C2010 1.409 . S
C2013 C2011 1.415 . S
C2014 H2004 0.930 . S
C2014 C2012 1.419 . S
C2014 C2015 1.362 . S
C2015 H2005 0.930 . S
C2015 C2008 1.409 . S
C2015 C2014 1.362 . S
H2016 C2022 0.930 . S
H2017 C2025 0.930 . S
H2018 C2026 0.930 . S
H2019 C2027 0.930 . S
H2020 C2030 0.930 . S
H2021 C2031 0.930 . S
C2022 H2016 0.930 . S
C2022 C2023 1.355 . S
C2022 C2024 1.415 . S
C2023 C2022 1.355 . S
C2023 C2025 1.419 . S
C2024 C2022 1.415 . S
C2024 C2029 1.425 . S
C2024 C2031 1.409 . S
C2025 H2017 0.930 . S
C2025 C2023 1.419 . S
C2025 C2026 1.362 . S
C2026 H2018 0.930 . S
C2026 C2025 1.362 . S
C2026 C2029 1.409 . S
C2027 H2019 0.930 . S
C2027 C2028 1.355 . S
C2027 C2029 1.415 . S
C2028 C2027 1.355 . S
C2028 C2030 1.419 . S
C2029 C2024 1.425 . S
C2029 C2026 1.409 . S
C2029 C2027 1.415 . S
C2030 H2020 0.930 . S
C2030 C2028 1.419 . S
C2030 C2031 1.362 . S
C2031 H2021 0.930 . S
C2031 C2024 1.409 . S
C2031 C2030 1.362 . S
H2032 C2038 0.930 . S
H2033 C2041 0.930 . S
H2034 C2042 0.930 . S
H2035 C2043 0.930 . S
H2036 C2046 0.930 . S
H2037 C2047 0.930 . S
C2038 H2032 0.930 . S
C2038 C2039 1.355 . S
C2038 C2040 1.415 . S
C2039 C2038 1.355 . S
C2039 C2041 1.419 . S
C2040 C2038 1.415 . S
C2040 C2045 1.425 . S
C2040 C2047 1.409 . S
C2041 H2033 0.930 . S
C2041 C2039 1.419 . S
C2041 C2042 1.362 . S
C2042 H2034 0.930 . S
C2042 C2041 1.362 . S
C2042 C2045 1.409 . S
C2043 H2035 0.930 . S
C2043 C2044 1.355 . S
C2043 C2045 1.415 . S
C2044 C2043 1.355 . S
C2044 C2046 1.419 . S
C2045 C2040 1.425 . S
C2045 C2042 1.409 . S
C2045 C2043 1.415 . S
C2046 H2036 0.930 . S
C2046 C2044 1.419 . S
C2046 C2047 1.362 . S
C2047 H2037 0.930 . S
C2047 C2040 1.409 . S
C2047 C2046 1.362 . S
H2048 C2054 0.930 . S
H2049 C2057 0.930 . S
H2050 C2058 0.930 . S
H2051 C2059 0.930 . S
H2052 C2062 0.930 . S
H2053 C2063 0.930 . S
C2054 H2048 0.930 . S
C2054 C2055 1.355 . S
C2054 C2056 1.415 . S
C2055 C2054 1.355 . S
C2055 C2057 1.419 . S
C2056 C2054 1.415 . S
C2056 C2061 1.425 . S
C2056 C2063 1.409 . S
C2057 H2049 0.930 . S
C2057 C2055 1.419 . S
C2057 C2058 1.362 . S
C2058 H2050 0.930 . S
C2058 C2057 1.362 . S
C2058 C2061 1.409 . S
C2059 H2051 0.930 . S
C2059 C2060 1.355 . S
C2059 C2061 1.415 . S
C2060 C2059 1.355 . S
C2060 C2062 1.419 . S
C2061 C2056 1.425 . S
C2061 C2058 1.409 . S
C2061 C2059 1.415 . S
C2062 H2052 0.930 . S
C2062 C2060 1.419 . S
C2062 C2063 1.362 . S
C2063 H2053 0.930 . S
C2063 C2056 1.409 . S
C2063 C2062 1.362 . S
H2064 C2070 0.930 . S
H2065 C2073 0.930 . S
H2066 C2074 0.930 . S
H2067 C2075 0.930 . S
H2068 C2078 0.930 . S
H2069 C2079 0.930 . S
C2070 H2064 0.930 . S
C2070 C2071 1.355 . S
C2070 C2072 1.415 . S
C2071 C2070 1.355 . S
C2071 C2073 1.419 . S
C2072 C2070 1.415 . S
C2072 C2077 1.425 . S
C2072 C2079 1.409 . S
C2073 H2065 0.930 . S
C2073 C2071 1.419 . S
C2073 C2074 1.362 . S
C2074 H2066 0.930 . S
C2074 C2073 1.362 . S
C2074 C2077 1.409 . S
C2075 H2067 0.930 . S
C2075 C2076 1.355 . S
C2075 C2077 1.415 . S
C2076 C2075 1.355 . S
C2076 C2078 1.419 . S
C2077 C2072 1.425 . S
C2077 C2074 1.409 . S
C2077 C2075 1.415 . S
C2078 H2068 0.930 . S
C2078 C2076 1.419 . S
C2078 C2079 1.362 . S
C2079 H2069 0.930 . S
C2079 C2072 1.409 . S
C2079 C2078 1.362 . S
H2080 C2086 0.930 . S
H2081 C2089 0.930 . S
H2082 C2090 0.930 . S
H2083 C2091 0.930 . S
H2084 C2094 0.930 . S
H2085 C2095 0.930 . S
C2086 H2080 0.930 . S
C2086 C2087 1.355 . S
C2086 C2088 1.415 . S
C2087 C2086 1.355 . S
C2087 C2089 1.419 . S
C2088 C2086 1.415 . S
C2088 C2093 1.425 . S
C2088 C2095 1.409 . S
C2089 H2081 0.930 . S
C2089 C2087 1.419 . S
C2089 C2090 1.362 . S
C2090 H2082 0.930 . S
C2090 C2089 1.362 . S
C2090 C2093 1.409 . S
C2091 H2083 0.930 . S
C2091 C2092 1.355 . S
C2091 C2093 1.415 . S
C2092 C2091 1.355 . S
C2092 C2094 1.419 . S
C2093 C2088 1.425 . S
C2093 C2090 1.409 . S
C2093 C2091 1.415 . S
C2094 H2084 0.930 . S
C2094 C2092 1.419 . S
C2094 C2095 1.362 . S
C2095 H2085 0.930 . S
C2095 C2088 1.409 . S
C2095 C2094 1.362 . S
H2096 C2102 0.930 . S
H2097 C2105 0.930 . S
H2098 C2106 0.930 . S
H2099 C2107 0.930 . S
H2100 C2110 0.930 . S
H2101 C2111 0.930 . S
C2102 H2096 0.930 . S
C2102 C2103 1.355 . S
C2102 C2104 1.415 . S
C2103 C2102 1.355 . S
C2103 C2105 1.419 . S
C2104 C2102 1.415 . S
C2104 C2109 1.425 . S
C2104 C2111 1.409 . S
C2105 H2097 0.930 . S
C2105 C2103 1.419 . S
C2105 C2106 1.362 . S
C2106 H2098 0.930 . S
C2106 C2105 1.362 . S
C2106 C2109 1.409 . S
C2107 H2099 0.930 . S
C2107 C2108 1.355 . S
C2107 C2109 1.415 . S
C2108 C2107 1.355 . S
C2108 C2110 1.419 . S
C2109 C2104 1.425 . S
C2109 C2106 1.409 . S
C2109 C2107 1.415 . S
C2110 H2100 0.930 . S
C2110 C2108 1.419 . S
C2110 C2111 1.362 . S
C2111 H2101 0.930 . S
C2111 C2104 1.409 . S
C2111 C2110 1.362 . S
H2112 C2118 0.930 . S
H2113 C2121 0.930 . S
H2114 C2122 0.930 . S
H2115 C2123 0.930 1_545 S
H2116 C2126 0.930 . S
H2117 C2127 0.930 . S
C2118 H2112 0.930 . S
C2118 C2119 1.355 . S
C2118 C2120 1.415 . S
C2119 C2118 1.355 . S
C2119 C2121 1.419 . S
C2120 C2118 1.415 . S
C2120 C2125 1.425 . S
C2120 C2127 1.409 1_554 S
C2121 H2113 0.930 . S
C2121 C2119 1.419 . S
C2121 C2122 1.362 . S
C2122 H2114 0.930 . S
C2122 C2121 1.362 . S
C2122 C2125 1.409 . S
C2123 H2115 0.930 1_565 S
C2123 C2124 1.355 1_554 S
C2123 C2125 1.415 . S
C2124 C2123 1.355 1_556 S
C2124 C2126 1.419 . S
C2125 C2120 1.425 . S
C2125 C2122 1.409 . S
C2125 C2123 1.415 . S
C2126 H2116 0.930 . S
C2126 C2124 1.419 . S
C2126 C2127 1.362 . S
C2127 H2117 0.930 . S
C2127 C2120 1.409 1_556 S
C2127 C2126 1.362 . S
H2128 C2134 0.930 . S
H2129 C2137 0.930 . S
H2130 C2138 0.930 . S
H2131 C2139 0.930 . S
H2132 C2142 0.930 . S
H2133 C2143 0.930 . S
C2134 H2128 0.930 . S
C2134 C2135 1.355 . S
C2134 C2136 1.415 . S
C2135 C2134 1.355 . S
C2135 C2137 1.419 . S
C2136 C2134 1.415 . S
C2136 C2141 1.425 . S
C2136 C2143 1.409 . S
C2137 H2129 0.930 . S
C2137 C2135 1.419 . S
C2137 C2138 1.362 . S
C2138 H2130 0.930 . S
C2138 C2137 1.362 . S
C2138 C2141 1.409 . S
C2139 H2131 0.930 . S
C2139 C2140 1.355 . S
C2139 C2141 1.415 1_556 S
C2140 C2139 1.355 . S
C2140 C2142 1.419 . S
C2141 C2136 1.425 . S
C2141 C2138 1.409 . S
C2141 C2139 1.415 1_554 S
C2142 H2132 0.930 . S
C2142 C2140 1.419 . S
C2142 C2143 1.362 1_556 S
C2143 H2133 0.930 . S
C2143 C2136 1.409 . S
C2143 C2142 1.362 1_554 S
H2144 C2150 0.930 . S
H2145 C2153 0.930 . S
H2146 C2154 0.930 . S
H2147 C2155 0.930 . S
H2148 C2158 0.930 . S
H2149 C2159 0.930 . S
C2150 H2144 0.930 . S
C2150 C2151 1.355 . S
C2150 C2152 1.415 . S
C2151 C2150 1.355 . S
C2151 C2153 1.419 . S
C2152 C2150 1.415 . S
C2152 C2157 1.425 . S
C2152 C2159 1.409 . S
C2153 H2145 0.930 . S
C2153 C2151 1.419 . S
C2153 C2154 1.362 . S
C2154 H2146 0.930 . S
C2154 C2153 1.362 . S
C2154 C2157 1.409 . S
C2155 H2147 0.930 . S
C2155 C2156 1.355 . S
C2155 C2157 1.415 . S
C2156 C2155 1.355 . S
C2156 C2158 1.419 . S
C2157 C2152 1.425 . S
C2157 C2154 1.409 . S
C2157 C2155 1.415 . S
C2158 H2148 0.930 . S
C2158 C2156 1.419 . S
C2158 C2159 1.362 . S
C2159 H2149 0.930 . S
C2159 C2152 1.409 . S
C2159 C2158 1.362 . S
H2160 C2166 0.930 . S
H2161 C2169 0.930 . S
H2162 C2170 0.930 . S
H2163 C2171 0.930 . S
H2164 C2174 0.930 . S
H2165 C2175 0.930 . S
C2166 H2160 0.930 . S
C2166 C2167 1.355 . S
C2166 C2168 1.415 . S
C2167 C2166 1.355 . S
C2167 C2169 1.419 1_565 S
C2168 C2166 1.415 . S
C2168 C2173 1.425 . S
C2168 C2175 1.409 . S
C2169 H2161 0.930 . S
C2169 C2167 1.419 1_545 S
C2169 C2170 1.362 . S
C2170 H2162 0.930 . S
C2170 C2169 1.362 . S
C2170 C2173 1.409 1_545 S
C2171 H2163 0.930 . S
C2171 C2172 1.355 . S
C2171 C2173 1.415 . S
C2172 C2171 1.355 . S
C2172 C2174 1.419 . S
C2173 C2168 1.425 . S
C2173 C2170 1.409 1_565 S
C2173 C2171 1.415 . S
C2174 H2164 0.930 . S
C2174 C2172 1.419 . S
C2174 C2175 1.362 . S
C2175 H2165 0.930 . S
C2175 C2168 1.409 . S
C2175 C2174 1.362 . S
H2176 C2182 0.930 1_565 S
H2177 C2185 0.930 . S
H2178 C2186 0.930 . S
H2179 C2187 0.930 . S
H2180 C2190 0.930 . S
H2181 C2191 0.930 1_565 S
C2182 H2176 0.930 1_545 S
C2182 C2183 1.351 1_556 S
C2182 C2184 1.417 . S
C2183 C2182 1.351 1_554 S
C2183 C2185 1.419 . S
C2184 C2182 1.417 . S
C2184 C2189 1.425 . S
C2184 C2191 1.409 . S
C2185 H2177 0.930 . S
C2185 C2183 1.419 . S
C2185 C2186 1.362 . S
C2186 H2178 0.930 . S
C2186 C2185 1.362 . S
C2186 C2189 1.409 1_554 S
C2187 H2179 0.930 . S
C2187 C2188 1.355 . S
C2187 C2189 1.415 . S
C2188 C2187 1.355 . S
C2188 C2190 1.419 . S
C2189 C2184 1.425 . S
C2189 C2186 1.409 1_556 S
C2189 C2187 1.415 . S
C2190 H2180 0.930 . S
C2190 C2188 1.419 . S
C2190 C2191 1.362 . S
C2191 H2181 0.930 1_545 S
C2191 C2184 1.409 . S
C2191 C2190 1.362 . S
H2192 C2198 0.930 . S
H2193 C2201 0.930 . S
H2194 C2202 0.930 . S
H2195 C2203 0.930 . S
H2196 C2206 0.930 . S
H2197 C2207 0.930 . S
C2198 H2192 0.930 . S
C2198 C2199 1.355 . S
C2198 C2200 1.415 1_554 S
C2199 C2198 1.355 . S
C2199 C2201 1.419 . S
C2200 C2198 1.415 1_556 S
C2200 C2205 1.425 . S
C2200 C2207 1.409 . S
C2201 H2193 0.930 . S
C2201 C2199 1.419 . S
C2201 C2202 1.362 1_554 S
C2202 H2194 0.930 . S
C2202 C2201 1.362 1_556 S
C2202 C2205 1.409 . S
C2203 H2195 0.930 . S
C2203 C2204 1.355 . S
C2203 C2205 1.415 . S
C2204 C2203 1.355 . S
C2204 C2206 1.419 . S
C2205 C2200 1.425 . S
C2205 C2202 1.409 . S
C2205 C2203 1.415 . S
C2206 H2196 0.930 . S
C2206 C2204 1.419 . S
C2206 C2207 1.362 . S
C2207 H2197 0.930 . S
C2207 C2200 1.409 . S
C2207 C2206 1.362 . S
H2208 C2214 0.930 . S
H2209 C2217 0.930 . S
H2210 C2218 0.930 . S
H2211 C2219 0.930 . S
H2212 C2222 0.930 . S
H2213 C2223 0.930 . S
C2214 H2208 0.930 . S
C2214 C2215 1.355 . S
C2214 C2216 1.415 . S
C2215 C2214 1.355 . S
C2215 C2217 1.419 . S
C2216 C2214 1.415 . S
C2216 C2221 1.425 . S
C2216 C2223 1.409 . S
C2217 H2209 0.930 . S
C2217 C2215 1.419 . S
C2217 C2218 1.362 . S
C2218 H2210 0.930 . S
C2218 C2217 1.362 . S
C2218 C2221 1.409 . S
C2219 H2211 0.930 . S
C2219 C2220 1.355 . S
C2219 C2221 1.415 . S
C2220 C2219 1.355 . S
C2220 C2222 1.419 . S
C2221 C2216 1.425 . S
C2221 C2218 1.409 . S
C2221 C2219 1.415 . S
C2222 H2212 0.930 . S
C2222 C2220 1.419 . S
C2222 C2223 1.362 . S
C2223 H2213 0.930 . S
C2223 C2216 1.409 . S
C2223 C2222 1.362 . S
H2224 C2230 0.930 1_565 S
H2225 C2233 0.930 . S
H2226 C2234 0.930 . S
H2227 C2235 0.930 . S
H2228 C2238 0.930 . S
H2229 C2239 0.930 . S
C2230 H2224 0.930 1_545 S
C2230 C2231 1.355 . S
C2230 C2232 1.415 . S
C2231 C2230 1.355 . S
C2231 C2233 1.419 . S
C2232 C2230 1.415 . S
C2232 C2237 1.425 . S
C2232 C2239 1.409 . S
C2233 H2225 0.930 . S
C2233 C2231 1.419 . S
C2233 C2234 1.362 . S
C2234 H2226 0.930 . S
C2234 C2233 1.362 . S
C2234 C2237 1.409 . S
C2235 H2227 0.930 . S
C2235 C2236 1.355 . S
C2235 C2237 1.415 . S
C2236 C2235 1.355 . S
C2236 C2238 1.419 . S
C2237 C2232 1.425 . S
C2237 C2234 1.409 . S
C2237 C2235 1.415 . S
C2238 H2228 0.930 . S
C2238 C2236 1.419 . S
C2238 C2239 1.362 . S
C2239 H2229 0.930 . S
C2239 C2232 1.409 . S
C2239 C2238 1.362 . S
C711 C8 1.251 . S
C716 C40 1.254 . S
C727 C84 1.199 . S
C732 C52 1.200 . S
C743 C96 1.213 . S
C748 C128 1.218 . S
C759 C142 1.233 . S
C764 C164 1.229 . S
C775 C186 1.242 . S
C780 C216 1.246 . S
C791 C260 1.205 . S
C796 C228 1.208 . S
C807 C304 1.197 . S
C812 C272 1.197 . S
C823 C318 1.228 . S
C828 C348 1.232 . S
C839 C360 1.211 . S
C844 C392 1.215 . S
C855 C406 1.232 . S
C860 C436 1.227 . S
C871 C448 1.241 . S
C876 C480 1.238 . S
C887 C524 1.234 . S
C892 C502 1.229 . S
C903 C536 1.228 . S
C908 C568 1.233 . S
C919 C612 1.247 . S
C924 C580 1.244 . S
C935 C656 1.210 . S
C940 C624 1.207 . S
C951 C700 1.212 . S
C956 C678 1.208 . S
C967 C7 1.581 . S
C972 C565 1.594 . S
C983 C535 1.583 . S
C988 C37 1.593 . S
C999 C609 1.576 . S
C1004 C51 1.596 . S
C1015 C81 1.593 . S
C1020 C579 1.583 . S
C1031 C103 1.595 . S
C1036 C659 1.565 . S
C1047 C631 1.566 . S
C1052 C131 1.601 . S
C1063 C703 1.602 . S
C1068 C139 1.576 . S
C1079 C681 1.580 . S
C1084 C161 1.601 . S
C1095 C389 1.590 . S
C1100 C197 1.587 . S
C1111 C213 1.595 . S
C1116 C359 1.578 . S
C1127 C227 1.566 . S
C1132 C433 1.597 . S
C1143 C417 1.575 . S
C1148 C257 1.558 . S
C1159 C483 1.572 . S
C1164 C279 1.581 . S
C1175 C307 1.601 . S
C1180 C455 1.580 . S
C1191 C315 1.574 . S
C1196 C527 1.578 . S
C1207 C351 1.569 . S
C1212 C505 1.585 . S
C1223 C18 1.558 . S
C1228 C76 1.560 . S
C1239 C62 1.566 . S
C1244 C32 1.567 . S
C1255 C98 1.546 . S
C1260 C172 1.542 . S
C1271 C150 1.568 . S
C1276 C118 1.569 . S
C1287 C252 1.539 . S
C1292 C184 1.539 . S
C1303 C208 1.563 . S
C1308 C238 1.561 . S
C1319 C338 1.568 . S
C1324 C274 1.564 . S
C1335 C294 1.560 . S
C1340 C326 1.554 . S
C1351 C370 1.539 . S
C1356 C428 1.539 . S
C1367 C384 1.556 . S
C1372 C404 1.554 . S
C1383 C450 1.545 . S
C1388 C514 1.551 . S
C1399 C470 1.542 . S
C1404 C492 1.546 . S
C1415 C546 1.565 . S
C1420 C604 1.566 . S
C1431 C560 1.562 . S
C1436 C590 1.563 . S
C1447 C690 1.559 . S
C1452 C626 1.552 . S
C1463 C646 1.565 . S
C1468 C668 1.560 . S
C1479 C15 1.056 . S
C1484 C95 1.065 . S
C1495 C653 1.081 . S
C1500 C43 1.078 . S
C1511 C59 1.080 . S
C1516 C329 1.087 . S
C1527 C87 1.041 . S
C1532 C521 1.046 . S
C1543 C571 1.100 . S
C1548 C125 1.104 . S
C1559 C153 1.104 . S
C1564 C235 1.103 . S
C1575 C439 1.099 . S
C1580 C175 1.100 . S
C1591 C183 0.998 . S
C1596 C271 1.009 . S
C1607 C477 1.028 . S
C1612 C219 1.017 . S
C1623 C697 1.102 . S
C1628 C263 1.100 . S
C1639 C395 1.005 . S
C1644 C301 1.015 . S
C1655 C615 1.096 . S
C1660 C345 1.101 . S
C1671 C367 1.066 . S
C1676 C447 1.074 . S
C1687 C403 1.061 . S
C1692 C675 1.069 . S
C1703 C587 1.003 . S
C1708 C499 1.013 . S
C1719 C543 1.103 . S
C1724 C623 1.106 . S
C1735 C10 1.375 . S
C1740 C645 1.407 . S
C1751 C30 1.384 . S
C1756 C109 1.404 1_455 S
C1767 C513 1.407 . S
C1772 C54 1.370 . S
C1783 C74 1.369 . S
C1788 C323 1.407 1_455 S
C1799 C106 1.316 . S
C1804 C557 1.385 . S
C1815 C120 1.364 . S
C1820 C21 1.396 1_655 S
C1831 C140 1.380 . S
C1836 C425 1.413 . S
C1847 C241 1.384 1_655 S
C1852 C162 1.320 . S
C1863 C194 1.379 . S
C1868 C469 1.406 1_565 S
C1879 C206 1.352 . S
C1884 C285 1.386 1_455 S
C1895 C689 1.404 . S
C1900 C230 1.348 . S
C1911 C250 1.372 . S
C1916 C147 1.407 1_465 S
C1927 C381 1.390 1_545 S
C1932 C282 1.346 . S
C1943 C296 1.321 . S
C1948 C191 1.390 1_655 S
C1959 C316 1.387 . S
C1964 C601 1.407 . S
C1975 C340 1.337 . S
C1980 C65 1.398 1_645 S
C1991 C293 1.380 . S
C1996 C362 1.323 . S
C2007 C382 1.322 . S
C2012 C461 1.380 . S
C2023 C414 1.324 . S
C2028 C169 1.380 . S
C2039 C667 1.385 . S
C2044 C426 1.302 . S
C2055 C458 1.381 . S
C2060 C205 1.413 . S
C2071 C373 1.405 . S
C2076 C472 1.383 . S
C2087 C494 1.320 . S
C2092 C73 1.389 . S
C2103 C593 1.390 . S
C2108 C516 1.322 . S
C2119 C538 1.380 . S
C2124 C117 1.398 1_565 S
C2135 C558 1.332 . S
C2140 C637 1.381 . S
C2151 C337 1.390 . S
C2156 C582 1.308 . S
C2167 C491 1.406 1_565 S
C2172 C602 1.359 . S
C2183 C29 1.397 1_545 S
C2188 C634 1.366 . S
C2199 C549 1.385 . S
C2204 C648 1.330 . S
C2215 C670 1.373 . S
C2220 C249 1.411 . S
C2231 C411 1.385 1_545 S
C2236 C692 1.326 . S
