# Generated by pormake.
# Topology wgu, (5)-cn, num edge types: 1
# Building blocks:
#     Node 0, Type 0, BuildingBlock: XOMCOT_clean_sbu_0, # of connection points: 5
#     Node 1, Type 0, BuildingBlock: XOMCOT_clean_sbu_0, # of connection points: 5
#     Node 2, Type 0, BuildingBlock: XOMCOT_clean_sbu_0, # of connection points: 5
#     Node 3, Type 0, BuildingBlock: XOMCOT_clean_sbu_0, # of connection points: 5
#     Node 4, Type 0, BuildingBlock: XOMCOT_clean_sbu_0, # of connection points: 5
#     Node 5, Type 0, BuildingBlock: XOMCOT_clean_sbu_0, # of connection points: 5
#     Node 6, Type 0, BuildingBlock: XOMCOT_clean_sbu_0, # of connection points: 5
#     Node 7, Type 0, BuildingBlock: XOMCOT_clean_sbu_0, # of connection points: 5
#     Edge 8, Type (0, 0), BuildingBlock: KIFKEQ_clean_linker_1, # of connection points: 2
#     Edge 9, Type (0, 0), BuildingBlock: KIFKEQ_clean_linker_1, # of connection points: 2
#     Edge 10, Type (0, 0), BuildingBlock: KIFKEQ_clean_linker_1, # of connection points: 2
#     Edge 11, Type (0, 0), BuildingBlock: KIFKEQ_clean_linker_1, # of connection points: 2
#     Edge 12, Type (0, 0), BuildingBlock: KIFKEQ_clean_linker_1, # of connection points: 2
#     Edge 13, Type (0, 0), BuildingBlock: KIFKEQ_clean_linker_1, # of connection points: 2
#     Edge 14, Type (0, 0), BuildingBlock: KIFKEQ_clean_linker_1, # of connection points: 2
#     Edge 15, Type (0, 0), BuildingBlock: KIFKEQ_clean_linker_1, # of connection points: 2
#     Edge 16, Type (0, 0), BuildingBlock: KIFKEQ_clean_linker_1, # of connection points: 2
#     Edge 17, Type (0, 0), BuildingBlock: KIFKEQ_clean_linker_1, # of connection points: 2
#     Edge 18, Type (0, 0), BuildingBlock: KIFKEQ_clean_linker_1, # of connection points: 2
#     Edge 19, Type (0, 0), BuildingBlock: KIFKEQ_clean_linker_1, # of connection points: 2
#     Edge 20, Type (0, 0), BuildingBlock: KIFKEQ_clean_linker_1, # of connection points: 2
#     Edge 21, Type (0, 0), BuildingBlock: KIFKEQ_clean_linker_1, # of connection points: 2
#     Edge 22, Type (0, 0), BuildingBlock: KIFKEQ_clean_linker_1, # of connection points: 2
#     Edge 23, Type (0, 0), BuildingBlock: KIFKEQ_clean_linker_1, # of connection points: 2
#     Edge 24, Type (0, 0), BuildingBlock: KIFKEQ_clean_linker_1, # of connection points: 2
#     Edge 25, Type (0, 0), BuildingBlock: KIFKEQ_clean_linker_1, # of connection points: 2
#     Edge 26, Type (0, 0), BuildingBlock: KIFKEQ_clean_linker_1, # of connection points: 2
#     Edge 27, Type (0, 0), BuildingBlock: KIFKEQ_clean_linker_1, # of connection points: 2
# Relax obj value: 0.157
# Max RMSD: 0.151
# Mean RMSD: 0.151
data_MOF--net-wgu--node1-XOMCOT_clean_sbu_0--edge1-KIFKEQ_clean_linker_1
_symmetry_space_group_name_H-M    P1
_symmetry_Int_Tables_number       1
_symmetry_cell_setting            triclinic
loop_
_symmetry_equiv_pos_as_xyz
'x, y, z'
_cell_length_a     33.135251
_cell_length_b     33.12003
_cell_length_c     29.802696
_cell_angle_alpha  90.057039
_cell_angle_beta   90.026505
_cell_angle_gamma 90.158818
loop_
_atom_site_label
_atom_site_type_symbol
_atom_site_fract_x
_atom_site_fract_y
_atom_site_fract_z
_atom_type_partial_charge
Co0 Co 0.31893 0.37865 0.09307 0.0
C1 C 0.33312 0.29788 0.05787 0.0
C2 C 0.38322 0.31738 0.09788 0.0
C3 C 0.38795 0.27697 0.08809 0.0
N4 N 0.34906 0.33056 0.07828 0.0
N5 N 0.35607 0.2646 0.06329 0.0
H6 H 0.30322 0.29757 0.0435 0.0
H7 H 0.40198 0.33521 0.12009 0.0
C8 C 0.39892 0.40948 0.05587 0.0
O9 O 0.4038 0.37606 0.03278 0.0
N10 N 0.28727 0.4259 0.10837 0.0
C11 C 0.25846 0.42894 0.14024 0.0
C12 C 0.24217 0.46687 0.13886 0.0
C13 C 0.28762 0.46216 0.08764 0.0
N14 N 0.26045 0.48781 0.10588 0.0
C15 C 0.25719 0.3648 0.02855 0.0
C16 C 0.3003 0.38357 0.95227 0.0
C17 C 0.26304 0.36369 0.94763 0.0
C18 C 0.24074 0.35589 0.98661 0.0
C19 C 0.31583 0.39163 0.99506 0.0
N20 N 0.2955 0.37975 0.0327 0.0
H21 H 0.23956 0.35755 0.05784 0.0
H22 H 0.34421 0.40699 0.99702 0.0
H23 H 0.2487 0.40528 0.16262 0.0
H24 H 0.30713 0.46949 0.05968 0.0
O25 O 0.27979 0.34355 0.12116 0.0
O26 O 0.33215 0.3709 0.15605 0.0
O27 O 0.36626 0.41567 0.0779 0.0
C28 C 0.30062 0.3474 0.1578 0.0
H29 H 0.41194 0.2579 0.10045 0.0
H30 H 0.2177 0.47773 0.15964 0.0
H31 H 0.31781 0.39214 0.9231 0.0
H32 H 0.21164 0.34102 0.9852 0.0
Co33 Co 0.63941 0.31095 0.56079 0.0
C34 C 0.72048 0.32487 0.52516 0.0
C35 C 0.70373 0.37161 0.57123 0.0
C36 C 0.74419 0.37548 0.56181 0.0
N37 N 0.68859 0.34033 0.54749 0.0
N38 N 0.7548 0.34574 0.53324 0.0
H39 H 0.71927 0.29686 0.50653 0.0
H40 H 0.68718 0.38854 0.5962 0.0
C41 C 0.61068 0.39479 0.5321 0.0
O42 O 0.64629 0.40328 0.51531 0.0
N43 N 0.59095 0.27995 0.57511 0.0
C44 C 0.58221 0.26192 0.61455 0.0
C45 C 0.54648 0.24141 0.61061 0.0
C46 C 0.55965 0.27033 0.54781 0.0
N47 N 0.53206 0.24656 0.56871 0.0
C48 C 0.64525 0.25026 0.49344 0.0
C49 C 0.64223 0.30037 0.41955 0.0
C50 C 0.65304 0.25979 0.41323 0.0
C51 C 0.65313 0.23437 0.45087 0.0
C52 C 0.63485 0.3151 0.46277 0.0
N53 N 0.63786 0.29047 0.49932 0.0
H54 H 0.64698 0.23047 0.52216 0.0
H55 H 0.62836 0.34657 0.46637 0.0
H56 H 0.60033 0.2628 0.64458 0.0
H57 H 0.55721 0.28049 0.51344 0.0
O58 O 0.67342 0.26967 0.58691 0.0
O59 O 0.64809 0.32174 0.62409 0.0
O60 O 0.60301 0.3593 0.5473 0.0
C61 C 0.67092 0.28977 0.62428 0.0
H62 H 0.76487 0.39624 0.57801 0.0
H63 H 0.53283 0.22324 0.63667 0.0
H64 H 0.64055 0.321 0.39146 0.0
H65 H 0.6613 0.20284 0.448 0.0
Co66 Co 0.7047 0.64911 0.08429 0.0
C67 C 0.69042 0.7286 0.04637 0.0
C68 C 0.64402 0.71357 0.0935 0.0
C69 C 0.64093 0.754 0.08311 0.0
N70 N 0.67484 0.69753 0.06993 0.0
N71 N 0.67045 0.7634 0.05373 0.0
H72 H 0.71869 0.7268 0.02838 0.0
H73 H 0.62697 0.69773 0.11898 0.0
C74 C 0.62192 0.61828 0.05412 0.0
O75 O 0.61268 0.65362 0.03719 0.0
N76 N 0.73616 0.60156 0.09926 0.0
C77 C 0.76372 0.59764 0.13236 0.0
C78 C 0.77994 0.55966 0.13054 0.0
C79 C 0.73637 0.56573 0.07751 0.0
N80 N 0.76278 0.53953 0.09615 0.0
C81 C 0.76601 0.65351 0.01762 0.0
C82 C 0.71642 0.65154 0.94318 0.0
C83 C 0.7572 0.66182 0.93735 0.0
C84 C 0.78238 0.6613 0.97522 0.0
C85 C 0.70125 0.64418 0.98618 0.0
N86 N 0.72561 0.64683 0.02304 0.0
H87 H 0.78556 0.65503 0.0466 0.0
H88 H 0.66965 0.63825 0.98934 0.0
H89 H 0.77254 0.62065 0.15606 0.0
H90 H 0.71769 0.5591 0.04862 0.0
O91 O 0.7453 0.68427 0.11009 0.0
O92 O 0.69365 0.65803 0.14742 0.0
O93 O 0.65697 0.61184 0.07093 0.0
C94 C 0.72524 0.68153 0.14748 0.0
H95 H 0.62014 0.77521 0.09814 0.0
H96 H 0.80352 0.54822 0.15218 0.0
H97 H 0.69596 0.65037 0.91486 0.0
H98 H 0.81407 0.66899 0.97265 0.0
Co99 Co 0.37263 0.70182 0.57397 0.0
C100 C 0.29282 0.68853 0.5369 0.0
C101 C 0.30931 0.6396 0.58005 0.0
C102 C 0.26872 0.63646 0.57057 0.0
N103 N 0.32457 0.67193 0.55818 0.0
N104 N 0.2585 0.66766 0.54401 0.0
H105 H 0.29381 0.71781 0.52086 0.0
H106 H 0.32572 0.62176 0.60432 0.0
C107 C 0.40295 0.61969 0.5417 0.0
O108 O 0.36801 0.61238 0.52259 0.0
N109 N 0.41969 0.73362 0.59079 0.0
C110 C 0.42147 0.76237 0.62295 0.0
C111 C 0.45925 0.77899 0.6235 0.0
C112 C 0.45675 0.7337 0.57175 0.0
N113 N 0.48154 0.76103 0.5915 0.0
C114 C 0.36657 0.76419 0.50881 0.0
C115 C 0.37518 0.71728 0.43289 0.0
C116 C 0.36227 0.75741 0.42783 0.0
C117 C 0.3593 0.78123 0.46667 0.0
C118 C 0.38157 0.70126 0.47576 0.0
N119 N 0.37563 0.72419 0.51329 0.0
H120 H 0.36289 0.7829 0.5382 0.0
H121 H 0.39012 0.67022 0.47806 0.0
H122 H 0.39708 0.77197 0.64432 0.0
H123 H 0.46526 0.71441 0.54401 0.0
O124 O 0.33723 0.74176 0.60007 0.0
O125 O 0.36242 0.68963 0.63688 0.0
O126 O 0.41001 0.65419 0.55995 0.0
C127 C 0.33923 0.72136 0.63722 0.0
H128 H 0.24762 0.61562 0.58591 0.0
H129 H 0.46912 0.80349 0.64495 0.0
H130 H 0.37951 0.69793 0.40401 0.0
H131 H 0.34954 0.81234 0.46505 0.0
Co132 Co 0.82059 0.14929 0.9699 0.0
C133 C 0.83424 0.22978 1.00667 0.0
C134 C 0.87965 0.21521 0.95825 0.0
C135 C 0.88266 0.2557 0.96843 0.0
N136 N 0.84965 0.19877 0.9829 0.0
N137 N 0.85378 0.26483 0.99864 0.0
H138 H 0.80648 0.22766 0.02559 0.0
H139 H 0.8964 0.19948 0.93249 0.0
C140 C 0.90411 0.12118 1.00029 0.0
O141 O 0.91324 0.1578 1.01372 0.0
N142 N 0.78972 0.10081 0.956 0.0
C143 C 0.76145 0.09636 0.92366 0.0
C144 C 0.74582 0.05813 0.9257 0.0
C145 C 0.7904 0.06493 0.97766 0.0
N146 N 0.76397 0.03827 0.95951 0.0
C147 C 0.75883 0.1521 0.03607 0.0
C148 C 0.80805 0.15381 0.11087 0.0
C149 C 0.76654 0.16071 0.11647 0.0
C150 C 0.74174 0.15865 0.07834 0.0
C151 C 0.82394 0.1476 0.06794 0.0
N152 N 0.79955 0.14795 0.03101 0.0
H153 H 0.73943 0.15216 1.00692 0.0
H154 H 0.85599 0.14444 0.06474 0.0
H155 H 0.75163 0.11921 0.90038 0.0
H156 H 0.80966 0.05859 1.00612 0.0
O157 O 0.77965 0.18305 0.94299 0.0
O158 O 0.83166 0.15676 0.90649 0.0
O159 O 0.86869 0.11315 0.98514 0.0
C160 C 0.79971 0.1796 0.90567 0.0
H161 H 0.90305 0.27707 0.95287 0.0
H162 H 0.72191 0.04628 0.90468 0.0
H163 H 0.82839 0.1542 0.13932 0.0
H164 H 0.7096 0.164 0.08063 0.0
Co165 Co 0.87181 0.82599 0.49298 0.0
C166 C 0.79224 0.84345 0.52768 0.0
C167 C 0.80971 0.88848 0.47999 0.0
C168 C 0.76892 0.89222 0.48819 0.0
N169 N 0.82438 0.85801 0.5052 0.0
N170 N 0.75802 0.8635 0.51791 0.0
H171 H 0.79288 0.81537 0.54615 0.0
H172 H 0.82667 0.90451 0.45459 0.0
C173 C 0.90456 0.90746 0.52466 0.0
O174 O 0.86866 0.91787 0.53904 0.0
N175 N 0.91792 0.79187 0.48008 0.0
C176 C 0.91782 0.75778 0.45502 0.0
C177 C 0.9544 0.73901 0.4592 0.0
C178 C 0.95494 0.79331 0.49907 0.0
N179 N 0.97753 0.76131 0.48678 0.0
C180 C 0.86402 0.76477 0.55936 0.0
C181 C 0.86733 0.8136 0.6344 0.0
C182 C 0.85754 0.77263 0.63994 0.0
C183 C 0.85696 0.74797 0.60165 0.0
C184 C 0.87408 0.82922 0.59143 0.0
N185 N 0.87133 0.80512 0.55433 0.0
H186 H 0.86199 0.74546 0.53022 0.0
H187 H 0.88001 0.86087 0.58856 0.0
H188 H 0.89259 0.74586 0.43627 0.0
H189 H 0.96445 0.81595 0.52309 0.0
O190 O 0.83556 0.78705 0.46604 0.0
O191 O 0.8658 0.83687 0.42933 0.0
O192 O 0.91066 0.87221 0.50805 0.0
C193 C 0.84109 0.80623 0.42847 0.0
H194 H 0.74852 0.91255 0.47118 0.0
H195 H 0.96316 0.71067 0.44394 0.0
H196 H 0.86903 0.83375 0.66298 0.0
H197 H 0.8493 0.71624 0.60393 0.0
Co198 Co 0.20651 0.87791 0.9834 0.0
C199 C 0.19104 0.7979 0.02004 0.0
C200 C 0.14576 0.81353 0.97186 0.0
C201 C 0.14184 0.77312 0.98196 0.0
N202 N 0.17631 0.82921 0.99635 0.0
N203 N 0.17063 0.76335 1.01203 0.0
H204 H 0.21896 0.79933 0.0388 0.0
H205 H 0.12931 0.82966 0.94618 0.0
C206 C 0.12345 0.90781 1.01306 0.0
O207 O 0.11395 0.87185 0.02821 0.0
N208 N 0.2384 0.9257 0.9698 0.0
C209 C 0.26821 0.92913 0.93906 0.0
C210 C 0.28682 0.96587 0.9441 0.0
C211 C 0.2393 0.96083 0.99298 0.0
N212 N 0.26878 0.98567 0.97799 0.0
C213 C 0.26801 0.87321 0.0494 0.0
C214 C 0.21921 0.87226 0.12455 0.0
C215 C 0.26033 0.86328 0.12941 0.0
C216 C 0.28498 0.86501 0.09129 0.0
C217 C 0.20329 0.87988 0.0818 0.0
N218 N 0.22744 0.87896 0.04465 0.0
H219 H 0.28733 0.87303 0.02021 0.0
H220 H 0.17137 0.88436 0.07881 0.0
H221 H 0.27731 0.90628 0.91535 0.0
H222 H 0.22019 0.96724 0.02155 0.0
O223 O 0.24706 0.84343 0.95693 0.0
O224 O 0.19555 0.86991 0.91996 0.0
O225 O 0.15899 0.91494 0.99779 0.0
C226 C 0.22716 0.84657 0.91947 0.0
H227 H 0.12097 0.75218 0.9664 0.0
H228 H 0.31216 0.97699 0.92475 0.0
H229 H 0.19908 0.87122 0.15316 0.0
H230 H 0.31703 0.85898 0.09364 0.0
Co231 Co 0.15081 0.2055 0.50146 0.0
C232 C 0.23531 0.18038 0.48818 0.0
C233 C 0.19828 0.12773 0.49291 0.0
C234 C 0.23807 0.11585 0.48773 0.0
N235 N 0.1967 0.16852 0.49502 0.0
N236 N 0.26101 0.1493 0.48439 0.0
H237 H 0.24523 0.21144 0.48707 0.0
H238 H 0.17276 0.10752 0.49413 0.0
C239 C 0.11224 0.13133 0.54245 0.0
O240 O 0.14063 0.13079 0.57323 0.0
N241 N 0.10684 0.24356 0.50663 0.0
C242 C 0.11197 0.28236 0.51899 0.0
C243 C 0.07501 0.30046 0.52201 0.0
C244 C 0.06653 0.23848 0.50206 0.0
N245 N 0.04635 0.27296 0.51174 0.0
C246 C 0.19938 0.22508 0.57837 0.0
C247 C 0.13746 0.22608 0.64041 0.0
C248 C 0.17637 0.23743 0.65396 0.0
C249 C 0.20755 0.23632 0.62246 0.0
C250 C 0.13073 0.214 0.59594 0.0
N251 N 0.16162 0.2133 0.56541 0.0
H252 H 0.22324 0.22824 0.5544 0.0
H253 H 0.10035 0.20641 0.58568 0.0
H254 H 0.14073 0.29635 0.52644 0.0
H255 H 0.05227 0.21009 0.49342 0.0
O256 O 0.18403 0.24861 0.47843 0.0
O257 O 0.14661 0.20747 0.43674 0.0
O258 O 0.11222 0.15876 0.51221 0.0
C259 C 0.17231 0.23727 0.43874 0.0
H260 H 0.2492 0.08518 0.48634 0.0
H261 H 0.06967 0.33159 0.53131 0.0
H262 H 0.11244 0.22707 0.66375 0.0
H263 H 0.23775 0.2462 0.63124 0.0
H264 H 0.22014 0.04622 1.00551 0.0
H265 H 0.34484 0.01226 0.98948 0.0
H266 H 0.24141 0.11442 0.02829 0.0
H267 H 0.36615 0.07988 1.0124 0.0
H268 H 0.38535 0.19457 0.09879 0.0
H269 H 0.36335 0.1261 0.08158 0.0
H270 H 0.27788 0.17242 0.98547 0.0
H271 H 0.30063 0.24088 1.00115 0.0
C272 C 0.25202 0.05327 1.00752 0.0
C273 C 0.28088 0.02429 0.99551 0.0
C274 C 0.26418 0.09219 0.02016 0.0
C275 C 0.30542 0.10237 0.02186 0.0
C276 C 0.33421 0.07281 1.01154 0.0
C277 C 0.32204 0.03427 0.99818 0.0
C278 C 0.36228 0.19042 0.07354 0.0
C279 C 0.34472 0.22369 0.05164 0.0
C280 C 0.34949 0.15107 0.06395 0.0
C281 C 0.31857 0.14407 0.03264 0.0
C282 C 0.30121 0.17706 1.01044 0.0
C283 C 0.31435 0.21634 0.01952 0.0
H284 H 0.98792 0.23658 0.46154 0.0
H285 H 1.00721 0.3246 0.56638 0.0
H286 H 0.91562 0.2531 0.46121 0.0
H287 H 0.93604 0.34113 0.56585 0.0
H288 H 0.81903 0.39507 0.52305 0.0
H289 H 0.88938 0.37526 0.51427 0.0
H290 H 0.85362 0.24984 0.51023 0.0
H291 H 0.78317 0.26968 0.51908 0.0
C292 C 0.97672 0.25914 0.48466 0.0
C293 C 1.00341 0.2798 0.51337 0.0
C294 C 0.93545 0.26868 0.48441 0.0
C295 C 0.92032 0.29907 0.51282 0.0
C296 C 0.94689 0.31849 0.54256 0.0
C297 C 0.98777 0.30896 0.54287 0.0
C298 C 0.82615 0.36331 0.51998 0.0
C299 C 0.79551 0.33404 0.5222 0.0
C300 C 0.86642 0.35192 0.51501 0.0
C301 C 0.8771 0.31092 0.51223 0.0
C302 C 0.84633 0.28165 0.51206 0.0
C303 C 0.80592 0.29309 0.51705 0.0
H304 H 0.76841 1.00714 0.04373 0.0
H305 H 0.73839 0.97724 0.90668 0.0
H306 H 0.74698 0.93955 0.06731 0.0
H307 H 0.71558 0.91091 0.93014 0.0
H308 H 0.7125 0.78195 0.97884 0.0
H309 H 0.73941 0.84761 0.95768 0.0
H310 H 0.68427 0.90093 0.0749 0.0
H311 H 0.65888 0.83475 0.09716 0.0
C312 C 0.75759 0.98607 0.01866 0.0
C313 C 0.7548 0.99763 0.97342 0.0
C314 C 0.74483 0.94758 0.03217 0.0
C315 C 0.7293 0.9199 1.00064 0.0
C316 C 0.72767 0.93124 0.95529 0.0
C317 C 0.74035 0.9695 0.94189 0.0
C318 C 0.70628 0.80761 1.00024 0.0
C319 C 0.6835 0.803 0.03968 0.0
C320 C 0.72147 0.84535 0.98795 0.0
C321 C 0.71406 0.87957 1.01464 0.0
C322 C 0.69099 0.87509 0.05391 0.0
C323 C 0.67584 0.83724 0.06628 0.0
H324 H 0.04416 0.80779 0.48386 0.0
H325 H 0.99974 0.69048 0.52192 0.0
H326 H 0.1134 0.78567 0.49808 0.0
H327 H 0.06819 0.66859 0.53904 0.0
H328 H 0.19519 0.62476 0.51367 0.0
H329 H 0.12646 0.64913 0.50202 0.0
H330 H 0.16258 0.76729 0.54988 0.0
H331 H 0.23143 0.74302 0.55885 0.0
C332 C 0.04941 0.7776 0.49646 0.0
C333 C 0.01715 0.75066 0.50166 0.0
C334 C 0.08892 0.76481 0.50471 0.0
C335 C 0.09664 0.72502 0.51917 0.0
C336 C 0.06372 0.69896 0.52662 0.0
C337 C 0.02449 0.71152 0.51741 0.0
C338 C 0.18814 0.65594 0.52125 0.0
C339 C 0.21835 0.68217 0.53648 0.0
C340 C 0.1488 0.66994 0.51511 0.0
C341 C 0.1387 0.71028 0.52521 0.0
C342 C 0.1692 0.73634 0.54087 0.0
C343 C 0.20865 0.72249 0.54609 0.0
H344 H 0.79022 0.47891 0.14841 0.0
H345 H 0.75776 0.50826 1.01197 0.0
H346 H 0.81259 0.41261 0.12443 0.0
H347 H 0.77869 0.44084 0.98802 0.0
H348 H 0.81336 0.28322 0.07477 0.0
H349 H 0.78783 0.34902 0.09726 0.0
H350 H 0.84091 0.40246 0.9789 0.0
H351 H 0.86491 0.33629 0.9554 0.0
C352 C 0.7877 0.47114 0.11325 0.0
C353 C 0.77256 0.49908 0.08204 0.0
C354 C 0.80011 0.43288 0.09956 0.0
C355 C 0.79757 0.4214 0.05428 0.0
C356 C 0.78155 0.44895 0.02309 0.0
C357 C 0.76908 0.48739 0.03686 0.0
C358 C 0.81939 0.30894 0.0534 0.0
C359 C 0.8412 0.30437 1.01328 0.0
C360 C 0.80503 0.34676 0.06647 0.0
C361 C 0.81224 0.38104 0.03983 0.0
C362 C 0.83435 0.37659 0.99989 0.0
C363 C 0.84869 0.33871 0.98677 0.0
H364 H 0.53824 0.78843 0.64874 0.0
H365 H 0.5179 0.75746 0.50981 0.0
H366 H 0.60462 0.81419 0.63028 0.0
H367 H 0.58587 0.78167 0.4913 0.0
H368 H 0.68934 0.87287 0.46888 0.0
H369 H 0.62275 0.84536 0.48609 0.0
H370 H 0.67 0.79358 0.6083 0.0
H371 H 0.7357 0.82283 0.5923 0.0
C372 C 0.54815 0.78684 0.61418 0.0
C373 C 0.52262 0.77136 0.58063 0.0
C374 C 0.58648 0.80123 0.60365 0.0
C375 C 0.6006 0.80017 0.55926 0.0
C376 C 0.57563 0.78346 0.52574 0.0
C377 C 0.53697 0.76908 0.53637 0.0
C378 C 0.6853 0.85631 0.49983 0.0
C379 C 0.71786 0.85018 0.52932 0.0
C380 C 0.64729 0.8399 0.50929 0.0
C381 C 0.64105 0.81703 0.54843 0.0
C382 C 0.67356 0.81134 0.57806 0.0
C383 C 0.71136 0.82787 0.56874 0.0
H384 H 0.26689 0.5203 0.02253 0.0
H385 H 0.23192 0.54737 0.15881 0.0
H386 H 0.24588 0.58796 0.9995 0.0
H387 H 0.20959 0.61394 0.13573 0.0
H388 H 0.21012 0.74406 0.08834 0.0
H389 H 0.23531 0.67794 0.11006 0.0
H390 H 0.18292 0.62593 0.99037 0.0
H391 H 0.15914 0.69245 0.96773 0.0
C392 C 0.25503 0.54075 0.04758 0.0
C393 C 0.25083 0.5284 0.09242 0.0
C394 C 0.24253 0.57929 0.03433 0.0
C395 C 0.22582 0.60623 0.06575 0.0
C396 C 0.22259 0.5941 0.11073 0.0
C397 C 0.235 0.55574 0.12389 0.0
C398 C 0.20411 0.71856 0.06658 0.0
C399 C 0.1826 0.72359 0.02633 0.0
C400 C 0.2183 0.6806 0.07917 0.0
C401 C 0.21121 0.64667 0.05187 0.0
C402 C 0.18934 0.65157 1.01183 0.0
C403 C 0.17514 0.68961 0.99922 0.0
H404 H 0.31447 0.10548 0.53222 0.0
H405 H 0.30488 0.20327 0.43751 0.0
H406 H 0.38484 0.12419 0.5469 0.0
H407 H 0.37494 0.22232 0.45228 0.0
H408 H 0.51167 0.23486 0.48071 0.0
H409 H 0.44955 0.20384 0.452 0.0
H410 H 0.40743 0.1869 0.58768 0.0
H411 H 0.46794 0.21861 0.61621 0.0
C412 C 0.32788 0.13004 0.51343 0.0
C413 C 0.30426 0.15319 0.48413 0.0
C414 C 0.36795 0.14106 0.52211 0.0
C415 C 0.38516 0.17515 0.50126 0.0
C416 C 0.36261 0.19592 0.46881 0.0
C417 C 0.32249 0.18513 0.4605 0.0
C418 C 0.48909 0.22475 0.5044 0.0
C419 C 0.4953 0.22907 0.55092 0.0
C420 C 0.45366 0.2067 0.48792 0.0
C421 C 0.42401 0.19218 0.51764 0.0
C422 C 0.4302 0.19664 0.56393 0.0
C423 C 0.46511 0.21501 0.5803 0.0
H424 H 0.61233 0.5553 0.1128 0.0
H425 H 0.5615 0.60811 0.99311 0.0
H426 H 0.55765 0.50496 0.11367 0.0
H427 H 0.5079 0.55708 0.99328 0.0
H428 H 0.45474 0.42238 0.99007 0.0
H429 H 0.50958 0.47212 0.98928 0.0
H430 H 0.47212 0.51567 0.11909 0.0
H431 H 0.41626 0.46674 0.11942 0.0
C432 C 0.58985 0.55581 0.08641 0.0
C433 C 0.59117 0.58566 0.05291 0.0
C434 C 0.5585 0.52724 0.08709 0.0
C435 C 0.52859 0.52735 0.05362 0.0
C436 C 0.5306 0.5564 0.01944 0.0
C437 C 0.56125 0.58556 0.01941 0.0
C438 C 0.45803 0.4427 0.01836 0.0
C439 C 0.43109 0.44073 0.05477 0.0
C440 C 0.4894 0.47111 0.01785 0.0
C441 C 0.49516 0.49743 0.05425 0.0
C442 C 0.46842 0.49545 0.09078 0.0
C443 C 0.43636 0.4677 0.09079 0.0
H444 H 0.62018 0.4742 0.50964 0.0
H445 H 0.53107 0.3895 0.55844 0.0
H446 H 0.57084 0.52831 0.51344 0.0
H447 H 0.48157 0.44409 0.56259 0.0
H448 H 0.3937 0.54191 0.51336 0.0
H449 H 0.44326 0.48804 0.51215 0.0
H450 H 0.53252 0.56911 0.5677 0.0
H451 H 0.48267 0.62364 0.56859 0.0
C452 C 0.59001 0.467 0.52115 0.0
C453 C 0.57964 0.42725 0.53352 0.0
C454 C 0.56178 0.49826 0.52371 0.0
C455 C 0.52222 0.49072 0.53846 0.0
C456 C 0.5117 0.45095 0.55069 0.0
C457 C 0.5401 0.41962 0.54842 0.0
C458 C 0.42389 0.5485 0.5253 0.0
C459 C 0.43413 0.58735 0.54094 0.0
C460 C 0.45227 0.51733 0.52494 0.0
C461 C 0.49189 0.52405 0.53997 0.0
C462 C 0.50233 0.56294 0.55553 0.0
C463 C 0.47373 0.59419 0.5562 0.0
H464 H 0.13042 0.98711 0.98625 0.0
H465 H 0.04458 0.90089 0.03886 0.0
H466 H 0.07719 0.03799 0.98279 0.0
H467 H 0.99181 0.95171 0.03597 0.0
H468 H 0.98229 0.12984 0.02779 0.0
H469 H 0.03488 0.07898 0.03135 0.0
H470 H 0.95095 0.98922 0.98231 0.0
H471 H 0.89777 0.04028 0.9793 0.0
C472 C 0.10034 0.97904 0.99736 0.0
C473 C 0.09195 0.93981 1.01286 0.0
C474 C 0.06979 1.00826 0.99551 0.0
C475 C 0.03004 0.99896 1.00894 0.0
C476 C 0.02182 0.95982 0.0247 0.0
C477 C 0.05231 0.93073 0.02672 0.0
C478 C 0.97482 0.09926 0.01784 0.0
C479 C 0.93559 0.08926 1.00327 0.0
C480 C 1.00523 0.0701 0.01956 0.0
C481 C 0.99737 0.02996 1.00693 0.0
C482 C 0.95804 0.01977 0.99269 0.0
C483 C 0.92754 0.04908 0.99079 0.0
H484 H 0.91124 0.96804 0.58588 0.0
H485 H 0.97309 0.91445 0.47321 0.0
H486 H 0.96291 0.02056 0.59045 0.0
H487 H 0.02458 0.96797 0.47723 0.0
H488 H 0.0688 0.10519 0.46965 0.0
H489 H 0.02149 0.04827 0.46589 0.0
H490 H 0.04095 0.02465 0.60655 0.0
H491 H 0.08891 0.08092 0.61023 0.0
C492 C 0.93601 0.96737 0.56219 0.0
C493 C 0.93805 0.93708 0.52914 0.0
C494 C 0.96565 0.99741 0.56493 0.0
C495 C 0.99765 0.99846 0.5341 0.0
C496 C 1.00007 0.96798 0.50126 0.0
C497 C 0.97081 0.93725 0.49916 0.0
C498 C 0.06298 0.08788 0.49979 0.0
C499 C 0.08254 0.09768 0.5403 0.0
C500 C 0.03618 0.05509 0.4975 0.0
C501 C 0.02769 0.03194 0.53588 0.0
C502 C 0.04692 0.04198 0.57645 0.0
C503 C 0.07436 0.07419 0.57852 0.0
H504 H 0.31174 0.37514 0.24306 0.0
H505 H 0.25597 0.27931 0.16678 0.0
H506 H 0.27999 0.34975 0.31124 0.0
H507 H 0.22617 0.25216 0.23501 0.0
H508 H 0.14248 0.23713 0.35329 0.0
H509 H 0.17487 0.26383 0.28607 0.0
H510 H 0.27814 0.30003 0.36563 0.0
H511 H 0.24448 0.27571 0.43276 0.0
C512 C 0.29346 0.34802 0.2412 0.0
C513 C 0.28618 0.32918 0.19985 0.0
C514 C 0.27525 0.33333 0.28026 0.0
C515 C 0.25005 0.29897 0.27885 0.0
C516 C 0.24433 0.27929 0.23744 0.0
C517 C 0.2618 0.29452 0.19834 0.0
C518 C 0.17193 0.25118 0.35624 0.0
C519 C 0.19084 0.25464 0.39815 0.0
C520 C 0.19079 0.26613 0.31769 0.0
C521 C 0.22943 0.28398 0.3201 0.0
C522 C 0.24818 0.28729 0.36231 0.0
C523 C 0.22892 0.27316 0.40089 0.0
H524 H 0.8067 0.15078 0.82046 0.0
H525 H 0.75867 0.24999 0.89723 0.0
H526 H 0.77634 0.17808 0.75263 0.0
H527 H 0.73085 0.27943 0.82916 0.0
H528 H 0.64752 0.30045 0.71102 0.0
H529 H 0.67995 0.27462 0.77832 0.0
H530 H 0.77587 0.22484 0.69675 0.0
H531 H 0.74131 0.24813 0.62953 0.0
C532 C 0.79036 0.17901 0.82249 0.0
C533 C 0.78482 0.19823 0.86394 0.0
C534 C 0.77305 0.19494 0.78351 0.0
C535 C 0.75071 0.23114 0.78489 0.0
C536 C 0.74668 0.25101 0.82651 0.0
C537 C 0.76301 0.23441 0.86561 0.0
C538 C 0.67555 0.28395 0.70771 0.0
C539 C 0.6918 0.27601 0.6652 0.0
C540 C 0.69449 0.26936 0.74636 0.0
C541 C 0.73086 0.24743 0.74353 0.0
C542 C 0.74751 0.24057 0.70067 0.0
C543 C 0.72791 0.2542 0.66199 0.0
H544 H 0.7689 0.76814 0.42021 0.0
H545 H 0.8698 0.81232 0.34308 0.0
H546 H 0.7379 0.74161 0.35223 0.0
H547 H 0.84064 0.78334 0.27524 0.0
H548 H 0.76789 0.75156 0.15274 0.0
H549 H 0.79267 0.78537 0.21996 0.0
H550 H 0.74131 0.69004 0.30143 0.0
H551 H 0.71425 0.65823 0.23418 0.0
C552 C 0.78451 0.77191 0.38854 0.0
C553 C 0.82167 0.79221 0.38675 0.0
C554 C 0.76698 0.75636 0.3495 0.0
C555 C 0.78676 0.75973 0.30782 0.0
C556 C 0.8239 0.78062 0.30626 0.0
C557 C 0.84088 0.79711 0.34521 0.0
C558 C 0.76172 0.73817 0.18518 0.0
C559 C 0.73918 0.70238 0.1884 0.0
C560 C 0.77621 0.75733 0.22382 0.0
C561 C 0.76939 0.74055 0.2666 0.0
C562 C 0.74659 0.70461 0.26948 0.0
C563 C 0.73123 0.68607 0.23087 0.0
H564 H 0.18952 0.84293 0.83776 0.0
H565 H 0.29586 0.80271 0.9084 0.0
H566 H 0.21313 0.809 0.76991 0.0
H567 H 0.32006 0.7699 0.84052 0.0
H568 H 0.33957 0.68754 0.72122 0.0
H569 H 0.30932 0.71489 0.78959 0.0
H570 H 0.26427 0.8167 0.71422 0.0
H571 H 0.29329 0.78881 0.64612 0.0
C572 C 0.21798 0.82694 0.83875 0.0
C573 C 0.24089 0.82565 0.87835 0.0
C574 C 0.23163 0.8076 0.79983 0.0
C575 C 0.2686 0.78671 0.7996 0.0
C576 C 0.29118 0.78509 0.83952 0.0
C577 C 0.27745 0.80423 0.87842 0.0
C578 C 0.32284 0.71553 0.7193 0.0
C579 C 0.31896 0.73606 0.67833 0.0
C580 C 0.30572 0.73139 0.7585 0.0
C581 C 0.28447 0.76817 0.75756 0.0
C582 C 0.27989 0.78808 0.71624 0.0
C583 C 0.29682 0.77219 0.67715 0.0
H584 H 0.8312 0.64726 0.89829 0.0
H585 H 0.71829 0.70898 0.87574 0.0
H586 H 0.85724 0.67434 0.8278 0.0
H587 H 0.74347 0.73422 0.8046 0.0
H588 H 0.81267 0.80981 0.70508 0.0
H589 H 0.79049 0.78263 0.77664 0.0
H590 H 0.85073 0.67018 0.74718 0.0
H591 H 0.87474 0.69819 0.67632 0.0
C592 C 0.81182 0.66639 0.87826 0.0
C593 C 0.77256 0.67581 0.89287 0.0
C594 C 0.82663 0.68161 0.83756 0.0
C595 C 0.80259 0.7067 0.81047 0.0
C596 C 0.76315 0.71556 0.82481 0.0
C597 C 0.74842 0.70046 0.86542 0.0
C598 C 0.82191 0.77955 0.7141 0.0
C599 C 0.84563 0.7563 0.68474 0.0
C600 C 0.8086 0.76368 0.75497 0.0
C601 C 0.81841 0.72399 0.76765 0.0
C602 C 0.84276 0.70093 0.73872 0.0
C603 C 0.85618 0.71687 0.6978 0.0
H604 H 0.32571 0.7166 0.35837 0.0
H605 H 0.36971 0.83521 0.39511 0.0
H606 H 0.30305 0.74305 0.28658 0.0
H607 H 0.34523 0.86177 0.32375 0.0
H608 H 0.24977 0.89665 0.213 0.0
H609 H 0.27618 0.87187 0.28481 0.0
H610 H 0.3342 0.77312 0.21595 0.0
H611 H 0.30803 0.79785 0.14448 0.0
C612 C 0.33112 0.74817 0.35114 0.0
C613 C 0.34988 0.77356 0.38294 0.0
C614 C 0.31779 0.76338 0.30995 0.0
C615 C 0.32225 0.8045 0.29956 0.0
C616 C 0.34094 0.83001 0.33106 0.0
C617 C 0.35487 0.8147 0.37207 0.0
C618 C 0.26825 0.86973 0.21331 0.0
C619 C 0.27699 0.84932 0.1731 0.0
C620 C 0.28357 0.8557 0.2543 0.0
C621 C 0.30726 0.82054 0.25599 0.0
C622 C 0.31588 0.80016 0.21577 0.0
C623 C 0.30116 0.81451 0.17482 0.0
H624 H 0.137 0.29783 0.69813 0.0
H625 H 0.23517 0.21349 0.71168 0.0
H626 H 0.15698 0.33041 0.76834 0.0
H627 H 0.25432 0.24463 0.78269 0.0
H628 H 0.30858 0.33357 0.87867 0.0
H629 H 0.28554 0.30376 0.80888 0.0
H630 H 0.16179 0.326 0.84723 0.0
H631 H 0.18502 0.35866 0.9157 0.0
C632 C 0.16226 0.2857 0.7168 0.0
C633 C 0.18463 0.25326 0.69956 0.0
C634 C 0.1738 0.30434 0.75702 0.0
C635 C 0.20769 0.2906 0.78107 0.0
C636 C 0.22881 0.25687 0.76459 0.0
C637 C 0.21762 0.23867 0.72415 0.0
C638 C 0.27648 0.33309 0.87188 0.0
C639 C 0.24875 0.34856 0.90316 0.0
C640 C 0.26316 0.31516 0.83208 0.0
C641 C 0.22168 0.31169 0.82256 0.0
C642 C 0.19395 0.32816 0.85321 0.0
C643 C 0.20731 0.34652 0.89286 0.0
H644 H 0.80145 0.20905 0.18039 0.0
H645 H 0.69311 0.14017 0.15362 0.0
H646 H 0.77343 0.23104 0.25151 0.0
H647 H 0.66404 0.16419 0.22388 0.0
H648 H 0.64026 0.18519 0.37438 0.0
H649 H 0.66792 0.15967 0.30406 0.0
H650 H 0.72366 0.27564 0.2795 0.0
H651 H 0.69812 0.3003 0.35067 0.0
C652 C 0.77174 0.19828 0.18973 0.0
C653 C 0.74969 0.17264 0.16105 0.0
C654 C 0.75533 0.21152 0.23035 0.0
C655 C 0.7162 0.19983 0.24342 0.0
C656 C 0.69434 0.17366 0.21514 0.0
C657 C 0.71087 0.16022 0.17452 0.0
C658 C 0.65863 0.20518 0.35413 0.0
C659 C 0.66691 0.24487 0.36849 0.0
C660 C 0.67416 0.19065 0.31348 0.0
C661 C 0.69833 0.21544 0.28605 0.0
C662 C 0.70582 0.25536 0.29999 0.0
C663 C 0.6905 0.26979 0.34063 0.0
loop_
_geom_bond_atom_site_label_1
_geom_bond_atom_site_label_2
_geom_bond_distance
_geom_bond_site_symmetry_2
_ccdc_geom_bond_type
Co0 N4 2.148 . S
Co0 N10 2.128 . S
Co0 N20 2.194 1_554 S
Co0 O25 2.351 . S
Co0 O26 2.155 . S
Co0 O27 2.096 . S
C1 N4 1.301 . S
C1 N5 1.328 . S
C1 H6 0.930 . S
C2 C3 1.333 . S
C2 N4 1.317 . S
C2 H7 0.930 . S
C3 C2 1.333 . S
C3 N5 1.350 . S
C3 H29 0.931 . S
N4 Co0 2.148 . S
N4 C1 1.301 . S
N4 C2 1.317 . S
N5 C1 1.328 . S
N5 C3 1.350 . S
H6 C1 0.930 . S
H7 C2 0.930 . S
C8 O9 1.224 1_554 S
C8 O27 1.247 . S
O9 C8 1.224 1_556 S
N10 Co0 2.128 . S
N10 C11 1.355 . S
N10 C13 1.311 . S
C11 N10 1.355 . S
C11 C12 1.363 . S
C11 H23 0.929 . S
C12 C11 1.363 . S
C12 N14 1.375 . S
C12 H30 0.931 . S
C13 N10 1.311 . S
C13 N14 1.347 . S
C13 H24 0.929 . S
N14 C12 1.375 . S
N14 C13 1.347 . S
C15 C18 1.365 . S
C15 N20 1.328 . S
C15 H21 0.931 1_556 S
C16 C17 1.362 . S
C16 C19 1.378 . S
C16 H31 0.929 . S
C17 C16 1.362 . S
C17 C18 1.366 . S
C18 C15 1.365 . S
C18 C17 1.366 . S
C18 H32 0.930 . S
C19 C16 1.378 . S
C19 N20 1.315 . S
C19 H22 0.930 . S
N20 Co0 2.194 1_556 S
N20 C15 1.328 . S
N20 C19 1.315 . S
H21 C15 0.931 1_554 S
H22 C19 0.930 . S
H23 C11 0.929 . S
H24 C13 0.929 . S
O25 Co0 2.351 . S
O25 C28 1.244 . S
O26 Co0 2.155 . S
O26 C28 1.240 . S
O27 Co0 2.096 . S
O27 C8 1.247 . S
C28 O25 1.244 . S
C28 O26 1.240 . S
H29 C3 0.931 . S
H30 C12 0.931 . S
H31 C16 0.929 . S
H32 C18 0.930 . S
Co33 N37 2.148 . S
Co33 N43 2.128 . S
Co33 N53 2.194 . S
Co33 O58 2.351 . S
Co33 O59 2.155 . S
Co33 O60 2.096 . S
C34 N37 1.301 . S
C34 N38 1.328 . S
C34 H39 0.930 . S
C35 C36 1.333 . S
C35 N37 1.317 . S
C35 H40 0.930 . S
C36 C35 1.333 . S
C36 N38 1.350 . S
C36 H62 0.931 . S
N37 Co33 2.148 . S
N37 C34 1.301 . S
N37 C35 1.317 . S
N38 C34 1.328 . S
N38 C36 1.350 . S
H39 C34 0.930 . S
H40 C35 0.930 . S
C41 O42 1.224 . S
C41 O60 1.247 . S
O42 C41 1.224 . S
N43 Co33 2.128 . S
N43 C44 1.355 . S
N43 C46 1.311 . S
C44 N43 1.355 . S
C44 C45 1.363 . S
C44 H56 0.929 . S
C45 C44 1.363 . S
C45 N47 1.375 . S
C45 H63 0.931 . S
C46 N43 1.311 . S
C46 N47 1.347 . S
C46 H57 0.929 . S
N47 C45 1.375 . S
N47 C46 1.347 . S
C48 C51 1.365 . S
C48 N53 1.328 . S
C48 H54 0.929 . S
C49 C50 1.362 . S
C49 C52 1.378 . S
C49 H64 0.929 . S
C50 C49 1.362 . S
C50 C51 1.366 . S
C51 C48 1.365 . S
C51 C50 1.366 . S
C51 H65 0.930 . S
C52 C49 1.378 . S
C52 N53 1.315 . S
C52 H55 0.930 . S
N53 Co33 2.194 . S
N53 C48 1.328 . S
N53 C52 1.315 . S
H54 C48 0.929 . S
H55 C52 0.930 . S
H56 C44 0.929 . S
H57 C46 0.929 . S
O58 Co33 2.351 . S
O58 C61 1.244 . S
O59 Co33 2.155 . S
O59 C61 1.240 . S
O60 Co33 2.096 . S
O60 C41 1.247 . S
C61 O58 1.244 . S
C61 O59 1.240 . S
H62 C36 0.931 . S
H63 C45 0.931 . S
H64 C49 0.929 . S
H65 C51 0.930 . S
Co66 N70 2.148 . S
Co66 N76 2.128 . S
Co66 N86 2.194 1_554 S
Co66 O91 2.351 . S
Co66 O92 2.155 . S
Co66 O93 2.096 . S
C67 N70 1.301 . S
C67 N71 1.328 . S
C67 H72 0.930 . S
C68 C69 1.333 . S
C68 N70 1.317 . S
C68 H73 0.930 . S
C69 C68 1.333 . S
C69 N71 1.350 . S
C69 H95 0.931 . S
N70 Co66 2.148 . S
N70 C67 1.301 . S
N70 C68 1.317 . S
N71 C67 1.328 . S
N71 C69 1.350 . S
H72 C67 0.930 . S
H73 C68 0.930 . S
C74 O75 1.224 1_554 S
C74 O93 1.247 . S
O75 C74 1.224 1_556 S
N76 Co66 2.128 . S
N76 C77 1.355 . S
N76 C79 1.311 . S
C77 N76 1.355 . S
C77 C78 1.363 . S
C77 H89 0.929 . S
C78 C77 1.363 . S
C78 N80 1.375 . S
C78 H96 0.931 . S
C79 N76 1.311 . S
C79 N80 1.347 . S
C79 H90 0.929 . S
N80 C78 1.375 . S
N80 C79 1.347 . S
C81 C84 1.365 . S
C81 N86 1.328 . S
C81 H87 0.931 1_556 S
C82 C83 1.362 . S
C82 C85 1.378 . S
C82 H97 0.929 . S
C83 C82 1.362 . S
C83 C84 1.366 . S
C84 C81 1.365 . S
C84 C83 1.366 . S
C84 H98 0.930 . S
C85 C82 1.378 . S
C85 N86 1.315 . S
C85 H88 0.930 . S
N86 Co66 2.194 1_556 S
N86 C81 1.328 . S
N86 C85 1.315 . S
H87 C81 0.931 1_554 S
H88 C85 0.930 . S
H89 C77 0.929 . S
H90 C79 0.929 . S
O91 Co66 2.351 . S
O91 C94 1.244 . S
O92 Co66 2.155 . S
O92 C94 1.240 . S
O93 Co66 2.096 . S
O93 C74 1.247 . S
C94 O91 1.244 . S
C94 O92 1.240 . S
H95 C69 0.931 . S
H96 C78 0.931 . S
H97 C82 0.929 . S
H98 C84 0.930 . S
Co99 N103 2.148 . S
Co99 N109 2.128 . S
Co99 N119 2.194 . S
Co99 O124 2.351 . S
Co99 O125 2.155 . S
Co99 O126 2.096 . S
C100 N103 1.301 . S
C100 N104 1.328 . S
C100 H105 0.930 . S
C101 C102 1.333 . S
C101 N103 1.317 . S
C101 H106 0.930 . S
C102 C101 1.333 . S
C102 N104 1.350 . S
C102 H128 0.931 . S
N103 Co99 2.148 . S
N103 C100 1.301 . S
N103 C101 1.317 . S
N104 C100 1.328 . S
N104 C102 1.350 . S
H105 C100 0.930 . S
H106 C101 0.930 . S
C107 O108 1.224 . S
C107 O126 1.247 . S
O108 C107 1.224 . S
N109 Co99 2.128 . S
N109 C110 1.355 . S
N109 C112 1.311 . S
C110 N109 1.355 . S
C110 C111 1.363 . S
C110 H122 0.929 . S
C111 C110 1.363 . S
C111 N113 1.375 . S
C111 H129 0.931 . S
C112 N109 1.311 . S
C112 N113 1.347 . S
C112 H123 0.929 . S
N113 C111 1.375 . S
N113 C112 1.347 . S
C114 C117 1.365 . S
C114 N119 1.328 . S
C114 H120 0.929 . S
C115 C116 1.362 . S
C115 C118 1.378 . S
C115 H130 0.929 . S
C116 C115 1.362 . S
C116 C117 1.366 . S
C117 C114 1.365 . S
C117 C116 1.366 . S
C117 H131 0.930 . S
C118 C115 1.378 . S
C118 N119 1.315 . S
C118 H121 0.930 . S
N119 Co99 2.194 . S
N119 C114 1.328 . S
N119 C118 1.315 . S
H120 C114 0.929 . S
H121 C118 0.930 . S
H122 C110 0.929 . S
H123 C112 0.929 . S
O124 Co99 2.351 . S
O124 C127 1.244 . S
O125 Co99 2.155 . S
O125 C127 1.240 . S
O126 Co99 2.096 . S
O126 C107 1.247 . S
C127 O124 1.244 . S
C127 O125 1.240 . S
H128 C102 0.931 . S
H129 C111 0.931 . S
H130 C115 0.929 . S
H131 C117 0.930 . S
Co132 N136 2.148 . S
Co132 N142 2.128 . S
Co132 N152 2.194 1_556 S
Co132 O157 2.351 . S
Co132 O158 2.155 . S
Co132 O159 2.096 . S
C133 N136 1.301 . S
C133 N137 1.328 . S
C133 H138 0.930 . S
C134 C135 1.333 . S
C134 N136 1.317 . S
C134 H139 0.930 . S
C135 C134 1.333 . S
C135 N137 1.350 . S
C135 H161 0.931 . S
N136 Co132 2.148 . S
N136 C133 1.301 . S
N136 C134 1.317 . S
N137 C133 1.328 . S
N137 C135 1.350 . S
H138 C133 0.930 . S
H139 C134 0.930 . S
C140 O141 1.224 . S
C140 O159 1.247 1_554 S
O141 C140 1.224 . S
N142 Co132 2.128 . S
N142 C143 1.355 1_556 S
N142 C145 1.311 1_545 S
C143 N142 1.355 1_554 S
C143 C144 1.363 1_545 S
C143 H155 0.929 . S
C144 C143 1.363 1_565 S
C144 N146 1.370 1_554 S
C144 H162 0.931 . S
C145 N142 1.311 1_565 S
C145 N146 1.352 . S
C145 H156 0.929 . S
N146 C144 1.370 1_556 S
N146 C145 1.352 . S
C147 C150 1.365 . S
C147 N152 1.328 . S
C147 H153 0.929 . S
C148 C149 1.362 . S
C148 C151 1.378 . S
C148 H163 0.929 . S
C149 C148 1.362 . S
C149 C150 1.366 . S
C150 C147 1.365 . S
C150 C149 1.366 . S
C150 H164 0.930 . S
C151 C148 1.378 . S
C151 N152 1.315 . S
C151 H154 0.930 . S
N152 Co132 2.194 1_554 S
N152 C147 1.328 . S
N152 C151 1.315 . S
H153 C147 0.929 . S
H154 C151 0.930 . S
H155 C143 0.929 . S
H156 C145 0.929 . S
O157 Co132 2.351 . S
O157 C160 1.244 . S
O158 Co132 2.155 . S
O158 C160 1.240 . S
O159 Co132 2.096 . S
O159 C140 1.247 1_556 S
C160 O157 1.244 . S
C160 O158 1.240 . S
H161 C135 0.931 . S
H162 C144 0.931 . S
H163 C148 0.929 . S
H164 C150 0.930 . S
Co165 N169 2.148 . S
Co165 N175 2.128 . S
Co165 N185 2.194 . S
Co165 O190 2.351 . S
Co165 O191 2.155 . S
Co165 O192 2.096 . S
C166 N169 1.301 . S
C166 N170 1.328 . S
C166 H171 0.930 . S
C167 C168 1.333 . S
C167 N169 1.317 . S
C167 H172 0.930 . S
C168 C167 1.333 . S
C168 N170 1.350 . S
C168 H194 0.931 . S
N169 Co165 2.148 . S
N169 C166 1.301 . S
N169 C167 1.317 . S
N170 C166 1.328 . S
N170 C168 1.350 . S
H171 C166 0.930 . S
H172 C167 0.930 . S
C173 O174 1.224 . S
C173 O192 1.247 . S
O174 C173 1.224 . S
N175 Co165 2.128 . S
N175 C176 1.355 . S
N175 C178 1.311 1_655 S
C176 N175 1.355 . S
C176 C177 1.363 1_655 S
C176 H188 0.929 . S
C177 C176 1.363 1_455 S
C177 N179 1.375 . S
C177 H195 0.931 . S
C178 N175 1.311 1_455 S
C178 N179 1.347 . S
C178 H189 0.929 . S
N179 C177 1.375 . S
N179 C178 1.347 . S
C180 C183 1.365 . S
C180 N185 1.328 . S
C180 H186 0.929 . S
C181 C182 1.362 . S
C181 C184 1.378 . S
C181 H196 0.929 . S
C182 C181 1.362 . S
C182 C183 1.366 . S
C183 C180 1.365 . S
C183 C182 1.366 . S
C183 H197 0.930 . S
C184 C181 1.378 . S
C184 N185 1.315 . S
C184 H187 0.930 . S
N185 Co165 2.194 . S
N185 C180 1.328 . S
N185 C184 1.315 . S
H186 C180 0.929 . S
H187 C184 0.930 . S
H188 C176 0.929 . S
H189 C178 0.929 . S
O190 Co165 2.351 . S
O190 C193 1.244 . S
O191 Co165 2.155 . S
O191 C193 1.240 . S
O192 Co165 2.096 . S
O192 C173 1.247 . S
C193 O190 1.244 . S
C193 O191 1.240 . S
H194 C168 0.931 . S
H195 C177 0.931 . S
H196 C181 0.929 . S
H197 C183 0.930 . S
Co198 N202 2.148 . S
Co198 N208 2.128 . S
Co198 N218 2.194 1_556 S
Co198 O223 2.351 . S
Co198 O224 2.155 . S
Co198 O225 2.096 . S
C199 N202 1.301 . S
C199 N203 1.328 . S
C199 H204 0.930 . S
C200 C201 1.333 . S
C200 N202 1.317 . S
C200 H205 0.930 . S
C201 C200 1.333 . S
C201 N203 1.350 . S
C201 H227 0.931 . S
N202 Co198 2.148 . S
N202 C199 1.301 . S
N202 C200 1.317 . S
N203 C199 1.328 . S
N203 C201 1.350 . S
H204 C199 0.930 . S
H205 C200 0.930 . S
C206 O207 1.224 . S
C206 O225 1.247 1_554 S
O207 C206 1.224 . S
N208 Co198 2.128 . S
N208 C209 1.355 1_556 S
N208 C211 1.311 1_565 S
C209 N208 1.355 1_554 S
C209 C210 1.363 1_565 S
C209 H221 0.929 . S
C210 C209 1.363 1_545 S
C210 N212 1.370 1_554 S
C210 H228 0.931 . S
C211 N208 1.311 1_545 S
C211 N212 1.352 . S
C211 H222 0.929 . S
N212 C210 1.370 1_556 S
N212 C211 1.352 . S
C213 C216 1.365 . S
C213 N218 1.328 . S
C213 H219 0.929 . S
C214 C215 1.362 . S
C214 C217 1.378 . S
C214 H229 0.929 . S
C215 C214 1.362 . S
C215 C216 1.366 . S
C216 C213 1.365 . S
C216 C215 1.366 . S
C216 H230 0.930 . S
C217 C214 1.378 . S
C217 N218 1.315 . S
C217 H220 0.930 . S
N218 Co198 2.194 1_554 S
N218 C213 1.328 . S
N218 C217 1.315 . S
H219 C213 0.929 . S
H220 C217 0.930 . S
H221 C209 0.929 . S
H222 C211 0.929 . S
O223 Co198 2.351 . S
O223 C226 1.244 . S
O224 Co198 2.155 . S
O224 C226 1.240 . S
O225 Co198 2.096 . S
O225 C206 1.247 1_556 S
C226 O223 1.244 . S
C226 O224 1.240 . S
H227 C201 0.931 . S
H228 C210 0.931 . S
H229 C214 0.929 . S
H230 C216 0.930 . S
Co231 N235 2.148 . S
Co231 N241 2.128 . S
Co231 N251 2.194 . S
Co231 O256 2.351 . S
Co231 O257 2.155 . S
Co231 O258 2.096 . S
C232 N235 1.301 . S
C232 N236 1.328 . S
C232 H237 0.930 . S
C233 C234 1.333 . S
C233 N235 1.317 . S
C233 H238 0.930 . S
C234 C233 1.333 . S
C234 N236 1.350 . S
C234 H260 0.931 . S
N235 Co231 2.148 . S
N235 C232 1.301 . S
N235 C233 1.317 . S
N236 C232 1.328 . S
N236 C234 1.350 . S
H237 C232 0.930 . S
H238 C233 0.930 . S
C239 O240 1.224 . S
C239 O258 1.247 . S
O240 C239 1.224 . S
N241 Co231 2.128 . S
N241 C242 1.355 . S
N241 C244 1.311 1_455 S
C242 N241 1.355 . S
C242 C243 1.363 1_455 S
C242 H254 0.929 . S
C243 C242 1.363 1_655 S
C243 N245 1.375 . S
C243 H261 0.931 . S
C244 N241 1.311 1_655 S
C244 N245 1.347 . S
C244 H255 0.929 . S
N245 C243 1.375 . S
N245 C244 1.347 . S
C246 C249 1.365 . S
C246 N251 1.328 . S
C246 H252 0.929 . S
C247 C248 1.362 . S
C247 C250 1.378 . S
C247 H262 0.929 . S
C248 C247 1.362 . S
C248 C249 1.366 . S
C249 C246 1.365 . S
C249 C248 1.366 . S
C249 H263 0.930 . S
C250 C247 1.378 . S
C250 N251 1.315 . S
C250 H253 0.930 . S
N251 Co231 2.194 . S
N251 C246 1.328 . S
N251 C250 1.315 . S
H252 C246 0.929 . S
H253 C250 0.930 . S
H254 C242 0.929 . S
H255 C244 0.929 . S
O256 Co231 2.351 . S
O256 C259 1.244 . S
O257 Co231 2.155 . S
O257 C259 1.240 . S
O258 Co231 2.096 . S
O258 C239 1.247 . S
C259 O256 1.244 . S
C259 O257 1.240 . S
H260 C234 0.931 . S
H261 C243 0.931 . S
H262 C247 0.929 . S
H263 C249 0.930 . S
H264 C272 0.950 . S
H265 C277 0.950 . S
H266 C274 0.949 1_556 S
H267 C276 0.950 . S
H268 C278 0.950 . S
H269 C280 0.950 . S
H270 C282 0.950 . S
H271 C283 0.950 . S
C272 H264 0.950 . S
C272 C273 1.386 1_556 S
C272 C274 1.391 1_556 S
C273 C272 1.386 1_554 S
C273 C277 1.393 . S
C274 H266 0.949 1_554 S
C274 C272 1.391 1_554 S
C274 C275 1.400 . S
C275 C274 1.400 . S
C275 C276 1.398 . S
C275 C281 1.491 . S
C276 H267 0.950 . S
C276 C275 1.398 . S
C276 C277 1.391 . S
C277 H265 0.950 . S
C277 C273 1.393 . S
C277 C276 1.391 . S
C278 H268 0.950 . S
C278 C279 1.386 . S
C278 C280 1.391 . S
C279 C278 1.386 . S
C279 C283 1.393 . S
C280 H269 0.950 . S
C280 C278 1.391 . S
C280 C281 1.400 . S
C281 C275 1.491 . S
C281 C280 1.400 . S
C281 C282 1.398 . S
C282 H270 0.950 . S
C282 C281 1.398 . S
C282 C283 1.391 . S
C283 H271 0.950 . S
C283 C279 1.393 . S
C283 C282 1.391 . S
H284 C292 0.950 . S
H285 C297 0.950 . S
H286 C294 0.950 . S
H287 C296 0.950 . S
H288 C298 0.950 . S
H289 C300 0.950 . S
H290 C302 0.950 . S
H291 C303 0.950 . S
C292 H284 0.950 . S
C292 C293 1.386 . S
C292 C294 1.391 . S
C293 C292 1.386 . S
C293 C297 1.393 . S
C294 H286 0.950 . S
C294 C292 1.391 . S
C294 C295 1.400 . S
C295 C294 1.400 . S
C295 C296 1.398 . S
C295 C301 1.491 . S
C296 H287 0.950 . S
C296 C295 1.398 . S
C296 C297 1.391 . S
C297 H285 0.950 . S
C297 C293 1.393 . S
C297 C296 1.391 . S
C298 H288 0.950 . S
C298 C299 1.386 . S
C298 C300 1.391 . S
C299 C298 1.386 . S
C299 C303 1.393 . S
C300 H289 0.950 . S
C300 C298 1.391 . S
C300 C301 1.400 . S
C301 C295 1.491 . S
C301 C300 1.400 . S
C301 C302 1.398 . S
C302 H290 0.950 . S
C302 C301 1.398 . S
C302 C303 1.391 . S
C303 H291 0.950 . S
C303 C299 1.393 . S
C303 C302 1.391 . S
H304 C312 0.950 . S
H305 C317 0.950 . S
H306 C314 0.950 . S
H307 C316 0.950 . S
H308 C318 0.950 1_556 S
H309 C320 0.950 . S
H310 C322 0.950 . S
H311 C323 0.950 . S
C312 H304 0.950 . S
C312 C313 1.363 1_554 S
C312 C314 1.391 . S
C313 C312 1.363 1_556 S
C313 C317 1.411 . S
C314 H306 0.950 . S
C314 C312 1.391 . S
C314 C315 1.400 . S
C315 C314 1.400 . S
C315 C316 1.398 1_554 S
C315 C321 1.491 . S
C316 H307 0.950 . S
C316 C315 1.398 1_556 S
C316 C317 1.391 . S
C317 H305 0.950 . S
C317 C313 1.411 . S
C317 C316 1.391 . S
C318 H308 0.950 1_554 S
C318 C319 1.386 . S
C318 C320 1.391 1_554 S
C319 C318 1.386 . S
C319 C323 1.393 . S
C320 H309 0.950 . S
C320 C318 1.391 1_556 S
C320 C321 1.400 1_556 S
C321 C315 1.491 . S
C321 C320 1.400 1_554 S
C321 C322 1.398 . S
C322 H310 0.950 . S
C322 C321 1.398 . S
C322 C323 1.391 . S
C323 H311 0.950 . S
C323 C319 1.393 . S
C323 C322 1.391 . S
H324 C332 0.950 . S
H325 C337 0.950 . S
H326 C334 0.950 . S
H327 C336 0.950 . S
H328 C338 0.950 . S
H329 C340 0.950 . S
H330 C342 0.950 . S
H331 C343 0.950 . S
C332 H324 0.950 . S
C332 C333 1.386 . S
C332 C334 1.391 . S
C333 C332 1.386 . S
C333 C337 1.393 . S
C334 H326 0.950 . S
C334 C332 1.391 . S
C334 C335 1.400 . S
C335 C334 1.400 . S
C335 C336 1.398 . S
C335 C341 1.491 . S
C336 H327 0.950 . S
C336 C335 1.398 . S
C336 C337 1.391 . S
C337 H325 0.950 . S
C337 C333 1.393 . S
C337 C336 1.391 . S
C338 H328 0.950 . S
C338 C339 1.386 . S
C338 C340 1.391 . S
C339 C338 1.386 . S
C339 C343 1.393 . S
C340 H329 0.950 . S
C340 C338 1.391 . S
C340 C341 1.400 . S
C341 C335 1.491 . S
C341 C340 1.400 . S
C341 C342 1.398 . S
C342 H330 0.950 . S
C342 C341 1.398 . S
C342 C343 1.391 . S
C343 H331 0.950 . S
C343 C339 1.393 . S
C343 C342 1.391 . S
H344 C352 0.950 . S
H345 C357 0.950 . S
H346 C354 0.950 1_556 S
H347 C356 0.950 . S
H348 C358 0.952 . S
H349 C360 0.950 . S
H350 C362 0.950 . S
H351 C363 0.950 . S
C352 H344 0.950 . S
C352 C353 1.386 . S
C352 C354 1.391 . S
C353 C352 1.386 . S
C353 C357 1.393 . S
C354 H346 0.950 1_554 S
C354 C352 1.391 . S
C354 C355 1.400 . S
C355 C354 1.400 . S
C355 C356 1.398 . S
C355 C361 1.491 . S
C356 H347 0.950 . S
C356 C355 1.398 . S
C356 C357 1.391 . S
C357 H345 0.950 . S
C357 C353 1.393 . S
C357 C356 1.391 . S
C358 H348 0.952 . S
C358 C359 1.381 1_554 S
C358 C360 1.395 . S
C359 C358 1.381 1_556 S
C359 C363 1.393 . S
C360 H349 0.950 . S
C360 C358 1.395 . S
C360 C361 1.400 . S
C361 C355 1.491 . S
C361 C360 1.400 . S
C361 C362 1.398 1_554 S
C362 H350 0.950 . S
C362 C361 1.398 1_556 S
C362 C363 1.391 . S
C363 H351 0.950 . S
C363 C359 1.393 . S
C363 C362 1.391 . S
H364 C372 0.950 . S
H365 C377 0.950 . S
H366 C374 0.950 . S
H367 C376 0.950 . S
H368 C378 0.950 . S
H369 C380 0.950 . S
H370 C382 0.950 . S
H371 C383 0.950 . S
C372 H364 0.950 . S
C372 C373 1.386 . S
C372 C374 1.391 . S
C373 C372 1.386 . S
C373 C377 1.393 . S
C374 H366 0.950 . S
C374 C372 1.391 . S
C374 C375 1.400 . S
C375 C374 1.400 . S
C375 C376 1.398 . S
C375 C381 1.491 . S
C376 H367 0.950 . S
C376 C375 1.398 . S
C376 C377 1.391 . S
C377 H365 0.950 . S
C377 C373 1.393 . S
C377 C376 1.391 . S
C378 H368 0.950 . S
C378 C379 1.386 . S
C378 C380 1.391 . S
C379 C378 1.386 . S
C379 C383 1.393 . S
C380 H369 0.950 . S
C380 C378 1.391 . S
C380 C381 1.400 . S
C381 C375 1.491 . S
C381 C380 1.400 . S
C381 C382 1.398 . S
C382 H370 0.950 . S
C382 C381 1.398 . S
C382 C383 1.391 . S
C383 H371 0.950 . S
C383 C379 1.393 . S
C383 C382 1.391 . S
H384 C392 0.950 . S
H385 C397 0.950 . S
H386 C394 0.950 . S
H387 C396 0.950 . S
H388 C398 0.950 . S
H389 C400 0.950 . S
H390 C402 0.950 . S
H391 C403 0.950 . S
C392 H384 0.950 . S
C392 C393 1.386 1_556 S
C392 C394 1.391 . S
C393 C392 1.386 1_554 S
C393 C397 1.393 . S
C394 H386 0.950 . S
C394 C392 1.391 . S
C394 C395 1.400 1_556 S
C395 C394 1.400 1_554 S
C395 C396 1.398 . S
C395 C401 1.491 . S
C396 H387 0.950 . S
C396 C395 1.398 . S
C396 C397 1.391 . S
C397 H385 0.950 . S
C397 C393 1.393 . S
C397 C396 1.391 . S
C398 H388 0.950 . S
C398 C399 1.386 1_554 S
C398 C400 1.391 . S
C399 C398 1.386 1_556 S
C399 C403 1.393 . S
C400 H389 0.950 . S
C400 C398 1.391 . S
C400 C401 1.400 . S
C401 C395 1.491 . S
C401 C400 1.400 . S
C401 C402 1.398 1_554 S
C402 H390 0.950 . S
C402 C401 1.398 1_556 S
C402 C403 1.391 . S
C403 H391 0.950 . S
C403 C399 1.393 . S
C403 C402 1.391 . S
H404 C412 0.950 . S
H405 C417 0.950 . S
H406 C414 0.950 . S
H407 C416 0.950 . S
H408 C418 0.950 . S
H409 C420 0.950 . S
H410 C422 0.950 . S
H411 C423 0.950 . S
C412 H404 0.950 . S
C412 C413 1.386 . S
C412 C414 1.391 . S
C413 C412 1.386 . S
C413 C417 1.393 . S
C414 H406 0.950 . S
C414 C412 1.391 . S
C414 C415 1.400 . S
C415 C414 1.400 . S
C415 C416 1.398 . S
C415 C421 1.491 . S
C416 H407 0.950 . S
C416 C415 1.398 . S
C416 C417 1.391 . S
C417 H405 0.950 . S
C417 C413 1.393 . S
C417 C416 1.391 . S
C418 H408 0.950 . S
C418 C419 1.386 . S
C418 C420 1.391 . S
C419 C418 1.386 . S
C419 C423 1.393 . S
C420 H409 0.950 . S
C420 C418 1.391 . S
C420 C421 1.400 . S
C421 C415 1.491 . S
C421 C420 1.400 . S
C421 C422 1.398 . S
C422 H410 0.950 . S
C422 C421 1.398 . S
C422 C423 1.391 . S
C423 H411 0.950 . S
C423 C419 1.393 . S
C423 C422 1.391 . S
H424 C432 0.950 . S
H425 C437 0.950 . S
H426 C434 0.950 . S
H427 C436 0.950 . S
H428 C438 0.950 . S
H429 C440 0.950 . S
H430 C442 0.950 . S
H431 C443 0.950 . S
C432 H424 0.950 . S
C432 C433 1.386 . S
C432 C434 1.391 . S
C433 C432 1.386 . S
C433 C437 1.393 1_554 S
C434 H426 0.950 . S
C434 C432 1.391 . S
C434 C435 1.400 . S
C435 C434 1.400 . S
C435 C436 1.398 1_554 S
C435 C441 1.491 . S
C436 H427 0.950 . S
C436 C435 1.398 1_556 S
C436 C437 1.391 . S
C437 H425 0.950 . S
C437 C433 1.393 1_556 S
C437 C436 1.391 . S
C438 H428 0.950 . S
C438 C439 1.386 1_556 S
C438 C440 1.391 . S
C439 C438 1.386 1_554 S
C439 C443 1.393 . S
C440 H429 0.950 . S
C440 C438 1.391 . S
C440 C441 1.400 1_556 S
C441 C435 1.491 . S
C441 C440 1.400 1_554 S
C441 C442 1.398 . S
C442 H430 0.950 . S
C442 C441 1.398 . S
C442 C443 1.391 . S
C443 H431 0.950 . S
C443 C439 1.393 . S
C443 C442 1.391 . S
H444 C452 0.950 . S
H445 C457 0.950 . S
H446 C454 0.950 . S
H447 C456 0.950 . S
H448 C458 0.950 . S
H449 C460 0.950 . S
H450 C462 0.950 . S
H451 C463 0.950 . S
C452 H444 0.950 . S
C452 C453 1.386 . S
C452 C454 1.391 . S
C453 C452 1.386 . S
C453 C457 1.393 . S
C454 H446 0.950 . S
C454 C452 1.391 . S
C454 C455 1.400 . S
C455 C454 1.400 . S
C455 C456 1.398 . S
C455 C461 1.491 . S
C456 H447 0.950 . S
C456 C455 1.398 . S
C456 C457 1.391 . S
C457 H445 0.950 . S
C457 C453 1.393 . S
C457 C456 1.391 . S
C458 H448 0.950 . S
C458 C459 1.386 . S
C458 C460 1.391 . S
C459 C458 1.386 . S
C459 C463 1.393 . S
C460 H449 0.950 . S
C460 C458 1.391 . S
C460 C461 1.400 . S
C461 C455 1.491 . S
C461 C460 1.400 . S
C461 C462 1.398 . S
C462 H450 0.950 . S
C462 C461 1.398 . S
C462 C463 1.391 . S
C463 H451 0.950 . S
C463 C459 1.393 . S
C463 C462 1.391 . S
H464 C472 0.950 . S
H465 C477 0.950 . S
H466 C474 0.950 1_545 S
H467 C476 0.950 . S
H468 C478 0.950 . S
H469 C480 0.950 1_565 S
H470 C482 0.950 . S
H471 C483 0.950 . S
C472 H464 0.950 . S
C472 C473 1.386 1_556 S
C472 C474 1.391 . S
C473 C472 1.386 1_554 S
C473 C477 1.393 . S
C474 H466 0.950 1_565 S
C474 C472 1.391 . S
C474 C475 1.400 1_556 S
C475 C474 1.400 1_554 S
C475 C476 1.398 . S
C475 C481 1.491 1_465 S
C476 H467 0.950 . S
C476 C475 1.398 . S
C476 C477 1.391 . S
C477 H465 0.950 . S
C477 C473 1.393 . S
C477 C476 1.391 . S
C478 H468 0.950 . S
C478 C479 1.386 . S
C478 C480 1.391 . S
C479 C478 1.386 . S
C479 C483 1.393 1_554 S
C480 H469 0.950 1_545 S
C480 C478 1.391 . S
C480 C481 1.400 . S
C481 C475 1.491 1_645 S
C481 C480 1.400 . S
C481 C482 1.398 1_554 S
C482 H470 0.950 . S
C482 C481 1.398 1_556 S
C482 C483 1.391 . S
C483 H471 0.950 . S
C483 C479 1.393 1_556 S
C483 C482 1.391 . S
H484 C492 0.950 . S
H485 C497 0.950 1_455 S
H486 C494 0.950 . S
H487 C496 0.950 . S
H488 C498 0.950 . S
H489 C500 0.950 . S
H490 C502 0.950 . S
H491 C503 0.950 1_655 S
C492 H484 0.950 . S
C492 C493 1.386 . S
C492 C494 1.391 . S
C493 C492 1.386 . S
C493 C497 1.393 . S
C494 H486 0.950 . S
C494 C492 1.391 . S
C494 C495 1.400 . S
C495 C494 1.400 . S
C495 C496 1.398 1_655 S
C495 C501 1.491 1_665 S
C496 H487 0.950 . S
C496 C495 1.398 1_455 S
C496 C497 1.391 1_455 S
C497 H485 0.950 1_655 S
C497 C493 1.393 . S
C497 C496 1.391 1_655 S
C498 H488 0.950 . S
C498 C499 1.386 . S
C498 C500 1.391 . S
C499 C498 1.386 . S
C499 C503 1.393 . S
C500 H489 0.950 . S
C500 C498 1.391 . S
C500 C501 1.400 . S
C501 C495 1.491 1_445 S
C501 C500 1.400 . S
C501 C502 1.398 1_455 S
C502 H490 0.950 . S
C502 C501 1.398 1_655 S
C502 C503 1.391 1_655 S
C503 H491 0.950 1_455 S
C503 C499 1.393 . S
C503 C502 1.391 1_455 S
H504 C512 0.950 . S
H505 C517 0.950 . S
H506 C514 0.950 . S
H507 C516 0.950 . S
H508 C518 0.950 . S
H509 C520 0.950 . S
H510 C522 0.950 . S
H511 C523 0.950 . S
C512 H504 0.950 . S
C512 C513 1.386 . S
C512 C514 1.391 . S
C513 C512 1.386 . S
C513 C517 1.393 . S
C514 H506 0.950 . S
C514 C512 1.391 . S
C514 C515 1.400 . S
C515 C514 1.400 . S
C515 C516 1.398 . S
C515 C521 1.491 . S
C516 H507 0.950 . S
C516 C515 1.398 . S
C516 C517 1.391 . S
C517 H505 0.950 . S
C517 C513 1.393 . S
C517 C516 1.391 . S
C518 H508 0.950 . S
C518 C519 1.386 . S
C518 C520 1.391 . S
C519 C518 1.386 . S
C519 C523 1.393 . S
C520 H509 0.950 . S
C520 C518 1.391 . S
C520 C521 1.400 . S
C521 C515 1.491 . S
C521 C520 1.400 . S
C521 C522 1.398 . S
C522 H510 0.950 . S
C522 C521 1.398 . S
C522 C523 1.391 . S
C523 H511 0.950 . S
C523 C519 1.393 . S
C523 C522 1.391 . S
H524 C532 0.950 . S
H525 C537 0.950 . S
H526 C534 0.950 . S
H527 C536 0.950 . S
H528 C538 0.950 . S
H529 C540 0.950 . S
H530 C542 0.950 . S
H531 C543 0.950 . S
C532 H524 0.950 . S
C532 C533 1.386 . S
C532 C534 1.391 . S
C533 C532 1.386 . S
C533 C537 1.393 . S
C534 H526 0.950 . S
C534 C532 1.391 . S
C534 C535 1.400 . S
C535 C534 1.400 . S
C535 C536 1.398 . S
C535 C541 1.491 . S
C536 H527 0.950 . S
C536 C535 1.398 . S
C536 C537 1.391 . S
C537 H525 0.950 . S
C537 C533 1.393 . S
C537 C536 1.391 . S
C538 H528 0.950 . S
C538 C539 1.386 . S
C538 C540 1.391 . S
C539 C538 1.386 . S
C539 C543 1.393 . S
C540 H529 0.950 . S
C540 C538 1.391 . S
C540 C541 1.400 . S
C541 C535 1.491 . S
C541 C540 1.400 . S
C541 C542 1.398 . S
C542 H530 0.950 . S
C542 C541 1.398 . S
C542 C543 1.391 . S
C543 H531 0.950 . S
C543 C539 1.393 . S
C543 C542 1.391 . S
H544 C552 0.950 . S
H545 C557 0.950 . S
H546 C554 0.950 . S
H547 C556 0.950 . S
H548 C558 0.950 . S
H549 C560 0.950 . S
H550 C562 0.950 . S
H551 C563 0.950 . S
C552 H544 0.950 . S
C552 C553 1.386 . S
C552 C554 1.391 . S
C553 C552 1.386 . S
C553 C557 1.393 . S
C554 H546 0.950 . S
C554 C552 1.391 . S
C554 C555 1.400 . S
C555 C554 1.400 . S
C555 C556 1.398 . S
C555 C561 1.491 . S
C556 H547 0.950 . S
C556 C555 1.398 . S
C556 C557 1.391 . S
C557 H545 0.950 . S
C557 C553 1.393 . S
C557 C556 1.391 . S
C558 H548 0.950 . S
C558 C559 1.386 . S
C558 C560 1.391 . S
C559 C558 1.386 . S
C559 C563 1.393 . S
C560 H549 0.950 . S
C560 C558 1.391 . S
C560 C561 1.400 . S
C561 C555 1.491 . S
C561 C560 1.400 . S
C561 C562 1.398 . S
C562 H550 0.950 . S
C562 C561 1.398 . S
C562 C563 1.391 . S
C563 H551 0.950 . S
C563 C559 1.393 . S
C563 C562 1.391 . S
H564 C572 0.950 . S
H565 C577 0.950 . S
H566 C574 0.950 . S
H567 C576 0.950 . S
H568 C578 0.950 . S
H569 C580 0.950 . S
H570 C582 0.950 . S
H571 C583 0.950 . S
C572 H564 0.950 . S
C572 C573 1.386 . S
C572 C574 1.391 . S
C573 C572 1.386 . S
C573 C577 1.393 . S
C574 H566 0.950 . S
C574 C572 1.391 . S
C574 C575 1.400 . S
C575 C574 1.400 . S
C575 C576 1.398 . S
C575 C581 1.491 . S
C576 H567 0.950 . S
C576 C575 1.398 . S
C576 C577 1.391 . S
C577 H565 0.950 . S
C577 C573 1.393 . S
C577 C576 1.391 . S
C578 H568 0.950 . S
C578 C579 1.386 . S
C578 C580 1.391 . S
C579 C578 1.386 . S
C579 C583 1.393 . S
C580 H569 0.950 . S
C580 C578 1.391 . S
C580 C581 1.400 . S
C581 C575 1.491 . S
C581 C580 1.400 . S
C581 C582 1.398 . S
C582 H570 0.950 . S
C582 C581 1.398 . S
C582 C583 1.391 . S
C583 H571 0.950 . S
C583 C579 1.393 . S
C583 C582 1.391 . S
H584 C592 0.950 . S
H585 C597 0.950 . S
H586 C594 0.950 . S
H587 C596 0.950 . S
H588 C598 0.950 . S
H589 C600 0.950 . S
H590 C602 0.950 . S
H591 C603 0.950 . S
C592 H584 0.950 . S
C592 C593 1.386 . S
C592 C594 1.391 . S
C593 C592 1.386 . S
C593 C597 1.393 . S
C594 H586 0.950 . S
C594 C592 1.391 . S
C594 C595 1.400 . S
C595 C594 1.400 . S
C595 C596 1.398 . S
C595 C601 1.491 . S
C596 H587 0.950 . S
C596 C595 1.398 . S
C596 C597 1.391 . S
C597 H585 0.950 . S
C597 C593 1.393 . S
C597 C596 1.391 . S
C598 H588 0.950 . S
C598 C599 1.386 . S
C598 C600 1.391 . S
C599 C598 1.386 . S
C599 C603 1.393 . S
C600 H589 0.950 . S
C600 C598 1.391 . S
C600 C601 1.400 . S
C601 C595 1.491 . S
C601 C600 1.400 . S
C601 C602 1.398 . S
C602 H590 0.950 . S
C602 C601 1.398 . S
C602 C603 1.391 . S
C603 H591 0.950 . S
C603 C599 1.393 . S
C603 C602 1.391 . S
H604 C612 0.950 . S
H605 C617 0.950 . S
H606 C614 0.950 . S
H607 C616 0.950 . S
H608 C618 0.950 . S
H609 C620 0.950 . S
H610 C622 0.950 . S
H611 C623 0.950 . S
C612 H604 0.950 . S
C612 C613 1.386 . S
C612 C614 1.391 . S
C613 C612 1.386 . S
C613 C617 1.393 . S
C614 H606 0.950 . S
C614 C612 1.391 . S
C614 C615 1.400 . S
C615 C614 1.400 . S
C615 C616 1.398 . S
C615 C621 1.491 . S
C616 H607 0.950 . S
C616 C615 1.398 . S
C616 C617 1.391 . S
C617 H605 0.950 . S
C617 C613 1.393 . S
C617 C616 1.391 . S
C618 H608 0.950 . S
C618 C619 1.386 . S
C618 C620 1.391 . S
C619 C618 1.386 . S
C619 C623 1.393 . S
C620 H609 0.950 . S
C620 C618 1.391 . S
C620 C621 1.400 . S
C621 C615 1.491 . S
C621 C620 1.400 . S
C621 C622 1.398 . S
C622 H610 0.950 . S
C622 C621 1.398 . S
C622 C623 1.391 . S
C623 H611 0.950 . S
C623 C619 1.393 . S
C623 C622 1.391 . S
H624 C632 0.950 . S
H625 C637 0.950 . S
H626 C634 0.950 . S
H627 C636 0.950 . S
H628 C638 0.950 . S
H629 C640 0.950 . S
H630 C642 0.950 . S
H631 C643 0.950 . S
C632 H624 0.950 . S
C632 C633 1.386 . S
C632 C634 1.391 . S
C633 C632 1.386 . S
C633 C637 1.393 . S
C634 H626 0.950 . S
C634 C632 1.391 . S
C634 C635 1.400 . S
C635 C634 1.400 . S
C635 C636 1.398 . S
C635 C641 1.491 . S
C636 H627 0.950 . S
C636 C635 1.398 . S
C636 C637 1.391 . S
C637 H625 0.950 . S
C637 C633 1.393 . S
C637 C636 1.391 . S
C638 H628 0.950 . S
C638 C639 1.386 . S
C638 C640 1.391 . S
C639 C638 1.386 . S
C639 C643 1.393 . S
C640 H629 0.950 . S
C640 C638 1.391 . S
C640 C641 1.400 . S
C641 C635 1.491 . S
C641 C640 1.400 . S
C641 C642 1.398 . S
C642 H630 0.950 . S
C642 C641 1.398 . S
C642 C643 1.391 . S
C643 H631 0.950 . S
C643 C639 1.393 . S
C643 C642 1.391 . S
H644 C652 0.950 . S
H645 C657 0.950 . S
H646 C654 0.950 . S
H647 C656 0.950 . S
H648 C658 0.950 . S
H649 C660 0.950 . S
H650 C662 0.950 . S
H651 C663 0.950 . S
C652 H644 0.950 . S
C652 C653 1.386 . S
C652 C654 1.391 . S
C653 C652 1.386 . S
C653 C657 1.393 . S
C654 H646 0.950 . S
C654 C652 1.391 . S
C654 C655 1.400 . S
C655 C654 1.400 . S
C655 C656 1.398 . S
C655 C661 1.491 . S
C656 H647 0.950 . S
C656 C655 1.398 . S
C656 C657 1.391 . S
C657 H645 0.950 . S
C657 C653 1.393 . S
C657 C656 1.391 . S
C658 H648 0.950 . S
C658 C659 1.386 . S
C658 C660 1.391 . S
C659 C658 1.386 . S
C659 C663 1.393 . S
C660 H649 0.950 . S
C660 C658 1.391 . S
C660 C661 1.400 . S
C661 C655 1.491 . S
C661 C660 1.400 . S
C661 C662 1.398 . S
C662 H650 0.950 . S
C662 C661 1.398 . S
C662 C663 1.391 . S
C663 H651 0.950 . S
C663 C659 1.393 . S
C663 C662 1.391 . S
C273 N212 0.773 1_554 S
C279 N5 0.767 . S
C293 N245 0.780 . S
C299 N38 0.765 . S
C313 N146 0.769 . S
C319 N71 0.796 . S
C333 N179 0.783 . S
C339 N104 0.764 . S
C353 N80 0.785 . S
C359 N137 0.793 . S
C373 N113 0.785 . S
C379 N170 0.764 . S
C393 N14 0.771 . S
C399 N203 0.796 . S
C413 N236 0.776 . S
C419 N47 0.797 . S
C433 C74 2.543 . S
C439 C8 2.542 . S
C453 C41 2.541 . S
C459 C107 2.543 . S
C473 C206 2.543 . S
C479 C140 2.542 . S
C493 C173 2.541 . S
C499 C239 2.542 . S
C513 C28 1.965 . S
C519 C259 1.964 . S
C533 C160 1.963 . S
C539 C61 1.960 . S
C553 C193 1.963 . S
C559 C94 1.966 . S
C573 C226 1.964 . S
C579 C127 1.959 . S
C593 C83 1.111 . S
C599 C182 1.106 . S
C613 C116 1.093 . S
C619 C215 1.109 . S
C633 C248 1.098 . S
C639 C17 1.116 . S
C653 C149 1.100 . S
C659 C50 1.100 . S
