# Generated by pormake.
# Topology reo-e, (6)-cn, num edge types: 1
# Building blocks:
#     Node 0, Type 0, BuildingBlock: IZENUY_clean_sbu_0, # of connection points: 6
#     Node 1, Type 0, BuildingBlock: IZENUY_clean_sbu_0, # of connection points: 6
#     Node 2, Type 0, BuildingBlock: IZENUY_clean_sbu_0, # of connection points: 6
#     Node 3, Type 0, BuildingBlock: IZENUY_clean_sbu_0, # of connection points: 6
#     Node 4, Type 0, BuildingBlock: IZENUY_clean_sbu_0, # of connection points: 6
#     Node 5, Type 0, BuildingBlock: IZENUY_clean_sbu_0, # of connection points: 6
#     Node 6, Type 0, BuildingBlock: IZENUY_clean_sbu_0, # of connection points: 6
#     Node 7, Type 0, BuildingBlock: IZENUY_clean_sbu_0, # of connection points: 6
#     Node 8, Type 0, BuildingBlock: IZENUY_clean_sbu_0, # of connection points: 6
#     Node 9, Type 0, BuildingBlock: IZENUY_clean_sbu_0, # of connection points: 6
#     Node 10, Type 0, BuildingBlock: IZENUY_clean_sbu_0, # of connection points: 6
#     Node 11, Type 0, BuildingBlock: IZENUY_clean_sbu_0, # of connection points: 6
#     Edge 12, Type (0, 0), BuildingBlock: XIVTED_clean_linker_0, # of connection points: 2
#     Edge 13, Type (0, 0), BuildingBlock: XIVTED_clean_linker_0, # of connection points: 2
#     Edge 14, Type (0, 0), BuildingBlock: XIVTED_clean_linker_0, # of connection points: 2
#     Edge 15, Type (0, 0), BuildingBlock: XIVTED_clean_linker_0, # of connection points: 2
#     Edge 16, Type (0, 0), BuildingBlock: XIVTED_clean_linker_0, # of connection points: 2
#     Edge 17, Type (0, 0), BuildingBlock: XIVTED_clean_linker_0, # of connection points: 2
#     Edge 18, Type (0, 0), BuildingBlock: XIVTED_clean_linker_0, # of connection points: 2
#     Edge 19, Type (0, 0), BuildingBlock: XIVTED_clean_linker_0, # of connection points: 2
#     Edge 20, Type (0, 0), BuildingBlock: XIVTED_clean_linker_0, # of connection points: 2
#     Edge 21, Type (0, 0), BuildingBlock: XIVTED_clean_linker_0, # of connection points: 2
#     Edge 22, Type (0, 0), BuildingBlock: XIVTED_clean_linker_0, # of connection points: 2
#     Edge 23, Type (0, 0), BuildingBlock: XIVTED_clean_linker_0, # of connection points: 2
#     Edge 24, Type (0, 0), BuildingBlock: XIVTED_clean_linker_0, # of connection points: 2
#     Edge 25, Type (0, 0), BuildingBlock: XIVTED_clean_linker_0, # of connection points: 2
#     Edge 26, Type (0, 0), BuildingBlock: XIVTED_clean_linker_0, # of connection points: 2
#     Edge 27, Type (0, 0), BuildingBlock: XIVTED_clean_linker_0, # of connection points: 2
#     Edge 28, Type (0, 0), BuildingBlock: XIVTED_clean_linker_0, # of connection points: 2
#     Edge 29, Type (0, 0), BuildingBlock: XIVTED_clean_linker_0, # of connection points: 2
#     Edge 30, Type (0, 0), BuildingBlock: XIVTED_clean_linker_0, # of connection points: 2
#     Edge 31, Type (0, 0), BuildingBlock: XIVTED_clean_linker_0, # of connection points: 2
#     Edge 32, Type (0, 0), BuildingBlock: XIVTED_clean_linker_0, # of connection points: 2
#     Edge 33, Type (0, 0), BuildingBlock: XIVTED_clean_linker_0, # of connection points: 2
#     Edge 34, Type (0, 0), BuildingBlock: XIVTED_clean_linker_0, # of connection points: 2
#     Edge 35, Type (0, 0), BuildingBlock: XIVTED_clean_linker_0, # of connection points: 2
#     Edge 36, Type (0, 0), BuildingBlock: XIVTED_clean_linker_0, # of connection points: 2
#     Edge 37, Type (0, 0), BuildingBlock: XIVTED_clean_linker_0, # of connection points: 2
#     Edge 38, Type (0, 0), BuildingBlock: XIVTED_clean_linker_0, # of connection points: 2
#     Edge 39, Type (0, 0), BuildingBlock: XIVTED_clean_linker_0, # of connection points: 2
#     Edge 40, Type (0, 0), BuildingBlock: XIVTED_clean_linker_0, # of connection points: 2
#     Edge 41, Type (0, 0), BuildingBlock: XIVTED_clean_linker_0, # of connection points: 2
#     Edge 42, Type (0, 0), BuildingBlock: XIVTED_clean_linker_0, # of connection points: 2
#     Edge 43, Type (0, 0), BuildingBlock: XIVTED_clean_linker_0, # of connection points: 2
#     Edge 44, Type (0, 0), BuildingBlock: XIVTED_clean_linker_0, # of connection points: 2
#     Edge 45, Type (0, 0), BuildingBlock: XIVTED_clean_linker_0, # of connection points: 2
#     Edge 46, Type (0, 0), BuildingBlock: XIVTED_clean_linker_0, # of connection points: 2
#     Edge 47, Type (0, 0), BuildingBlock: XIVTED_clean_linker_0, # of connection points: 2
# Relax obj value: 0.074
# Max RMSD: 0.096
# Mean RMSD: 0.095
data_MOF--net-reo-e--node1-IZENUY_clean_sbu_0--edge1-XIVTED_clean_linker_0
_symmetry_space_group_name_H-M    P1
_symmetry_Int_Tables_number       1
_symmetry_cell_setting            triclinic
loop_
_symmetry_equiv_pos_as_xyz
'x, y, z'
_cell_length_a     38.347613
_cell_length_b     38.342408
_cell_length_c     38.343648
_cell_angle_alpha  89.912241
_cell_angle_beta   89.937252
_cell_angle_gamma 90.139701
loop_
_atom_site_label
_atom_site_type_symbol
_atom_site_fract_x
_atom_site_fract_y
_atom_site_fract_z
_atom_type_partial_charge
Fe0 Fe 0.20058 0.20245 0.55135 0.0
Fe1 Fe 0.25021 0.25032 0.51036 0.0
O2 O 0.21694 0.21824 0.51086 0.0
Fe3 Fe 0.20001 0.2019 0.4709 0.0
O4 O 0.15632 0.21611 0.48193 0.0
O5 O 0.15599 0.19543 0.53544 0.0
O6 O 0.18678 0.24573 0.56497 0.0
C7 C 0.2066 0.27203 0.56606 0.0
C8 C 0.20416 0.14178 0.51387 0.0
O9 O 0.23548 0.27221 0.55008 0.0
C10 C 0.26949 0.20542 0.45479 0.0
O11 O 0.24212 0.20659 0.57476 0.0
O12 O 0.27981 0.22245 0.53456 0.0
O13 O 0.19183 0.15775 0.48772 0.0
O14 O 0.21334 0.15818 0.54084 0.0
C15 C 0.20916 0.27419 0.45706 0.0
O16 O 0.27103 0.23436 0.47054 0.0
O17 O 0.24257 0.18653 0.45667 0.0
C18 C 0.27323 0.20919 0.56398 0.0
O19 O 0.22311 0.28057 0.48616 0.0
O20 O 0.20512 0.24307 0.44679 0.0
C21 C 0.14004 0.20776 0.5093 0.0
Fe22 Fe 0.76926 0.25023 0.50762 0.0
Fe23 Fe 0.8177 0.20122 0.54829 0.0
O24 O 0.80173 0.21747 0.50793 0.0
Fe25 Fe 0.81822 0.20102 0.46787 0.0
O26 O 0.83315 0.24387 0.45391 0.0
O27 O 0.78488 0.27135 0.46777 0.0
O28 O 0.79683 0.28022 0.53158 0.0
C29 C 0.81002 0.27385 0.561 0.0
C30 C 0.7458 0.20901 0.45452 0.0
O31 O 0.81312 0.24274 0.57172 0.0
C32 C 0.81305 0.14071 0.50597 0.0
O33 O 0.74762 0.23518 0.54742 0.0
O34 O 0.77459 0.18679 0.56198 0.0
O35 O 0.77695 0.20566 0.44403 0.0
O36 O 0.7393 0.22264 0.48369 0.0
C37 C 0.87829 0.20589 0.51059 0.0
O38 O 0.8251 0.15673 0.53222 0.0
O39 O 0.80452 0.15703 0.47871 0.0
C40 C 0.74811 0.20622 0.56322 0.0
O41 O 0.86185 0.21456 0.53772 0.0
O42 O 0.86246 0.19348 0.48441 0.0
C43 C 0.81403 0.27054 0.45235 0.0
Fe44 Fe 0.81993 0.81826 0.55023 0.0
Fe45 Fe 0.81825 0.81838 0.46976 0.0
O46 O 0.80255 0.80221 0.51035 0.0
Fe47 Fe 0.76938 0.77001 0.51112 0.0
O48 O 0.74041 0.79815 0.53561 0.0
O49 O 0.77897 0.81413 0.5748 0.0
O50 O 0.80683 0.86243 0.53977 0.0
C51 C 0.81493 0.87877 0.51234 0.0
C52 C 0.81441 0.74878 0.56577 0.0
O53 O 0.82638 0.8628 0.4858 0.0
C54 C 0.80913 0.74581 0.45713 0.0
O55 O 0.86404 0.82545 0.53297 0.0
O56 O 0.8624 0.80461 0.47963 0.0
O57 O 0.78507 0.74859 0.55073 0.0
O58 O 0.83422 0.77506 0.56384 0.0
C59 C 0.74839 0.81416 0.45556 0.0
O60 O 0.81283 0.7769 0.44644 0.0
O61 O 0.79593 0.73956 0.48664 0.0
C62 C 0.8794 0.81329 0.5064 0.0
O63 O 0.77519 0.83328 0.45652 0.0
O64 O 0.74751 0.78536 0.47165 0.0
C65 C 0.74763 0.81159 0.56473 0.0
Fe66 Fe 0.20253 0.81981 0.47034 0.0
Fe67 Fe 0.2508 0.77018 0.51043 0.0
O68 O 0.21832 0.80293 0.51048 0.0
Fe69 Fe 0.20167 0.81872 0.55069 0.0
O70 O 0.15745 0.82659 0.53411 0.0
O71 O 0.15827 0.8064 0.48051 0.0
O72 O 0.20705 0.77862 0.44649 0.0
C73 C 0.20964 0.74741 0.45702 0.0
C74 C 0.20697 0.87965 0.51366 0.0
O75 O 0.22309 0.74056 0.48622 0.0
C76 C 0.27403 0.81094 0.56392 0.0
O77 O 0.24578 0.83432 0.45693 0.0
O78 O 0.27239 0.78554 0.47073 0.0
O79 O 0.21544 0.86285 0.54062 0.0
O80 O 0.19511 0.86407 0.48705 0.0
C81 C 0.20618 0.74908 0.56551 0.0
O82 O 0.28072 0.79758 0.53465 0.0
O83 O 0.24286 0.81375 0.57448 0.0
C84 C 0.27211 0.81468 0.45528 0.0
O85 O 0.23534 0.74862 0.55011 0.0
O86 O 0.18679 0.77558 0.56394 0.0
C87 C 0.14166 0.81483 0.5076 0.0
Fe88 Fe 0.54697 0.2016 0.20107 0.0
Fe89 Fe 0.50676 0.25015 0.25025 0.0
O90 O 0.50676 0.21769 0.21745 0.0
Fe91 Fe 0.46656 0.2014 0.20104 0.0
O92 O 0.48281 0.15702 0.19357 0.0
O93 O 0.53623 0.15749 0.21442 0.0
O94 O 0.57052 0.20612 0.24251 0.0
C95 C 0.55987 0.20905 0.27365 0.0
C96 C 0.50459 0.20624 0.14061 0.0
O97 O 0.53055 0.22235 0.28015 0.0
C98 C 0.45392 0.2739 0.2089 0.0
O99 O 0.56085 0.2447 0.18663 0.0
O100 O 0.54671 0.27154 0.23522 0.0
O101 O 0.47743 0.215 0.15696 0.0
O102 O 0.53075 0.19411 0.15667 0.0
C103 C 0.45104 0.20586 0.27062 0.0
O104 O 0.48305 0.28026 0.2227 0.0
O105 O 0.44312 0.24283 0.20564 0.0
C106 C 0.56239 0.27111 0.2062 0.0
O107 O 0.46679 0.23486 0.27139 0.0
O108 O 0.45245 0.18665 0.24397 0.0
C109 C 0.50902 0.14112 0.20578 0.0
Fe110 Fe 0.81875 0.46912 0.20017 0.0
Fe111 Fe 0.76867 0.50675 0.25001 0.0
O112 O 0.80127 0.50846 0.21731 0.0
Fe113 Fe 0.81635 0.54948 0.20174 0.0
O114 O 0.82417 0.53438 0.15697 0.0
O115 O 0.80485 0.48033 0.15641 0.0
O116 O 0.77803 0.44398 0.20441 0.0
C117 C 0.74665 0.45367 0.20778 0.0
C118 C 0.87788 0.51342 0.20554 0.0
O119 O 0.73948 0.48246 0.2219 0.0
C120 C 0.80813 0.56082 0.27457 0.0
O121 O 0.83389 0.45487 0.24281 0.0
O122 O 0.78515 0.46697 0.27042 0.0
O123 O 0.86075 0.53985 0.21489 0.0
O124 O 0.86262 0.48703 0.19277 0.0
C125 C 0.74641 0.56268 0.2071 0.0
O126 O 0.79547 0.53101 0.28052 0.0
O127 O 0.81118 0.57205 0.24362 0.0
C128 C 0.81466 0.45235 0.26942 0.0
O129 O 0.74614 0.5462 0.23568 0.0
O130 O 0.77295 0.56235 0.1876 0.0
C131 C 0.8127 0.50811 0.14055 0.0
Fe132 Fe 0.5514 0.81905 0.20219 0.0
Fe133 Fe 0.47093 0.81881 0.20138 0.0
O134 O 0.511 0.80263 0.21814 0.0
Fe135 Fe 0.51071 0.77002 0.25086 0.0
O136 O 0.55043 0.78535 0.27247 0.0
O137 O 0.5649 0.83372 0.24522 0.0
O138 O 0.5352 0.8634 0.19443 0.0
C139 C 0.50884 0.87929 0.20632 0.0
C140 C 0.5643 0.74658 0.21003 0.0
O141 O 0.48155 0.86289 0.21473 0.0
C142 C 0.45528 0.7493 0.20636 0.0
O143 O 0.54111 0.80547 0.15814 0.0
O144 O 0.48774 0.82625 0.15708 0.0
O145 O 0.53498 0.74005 0.22352 0.0
O146 O 0.575 0.77771 0.207 0.0
C147 C 0.45725 0.81123 0.27386 0.0
O148 O 0.45705 0.77579 0.18686 0.0
O149 O 0.47095 0.7486 0.23537 0.0
C150 C 0.51417 0.81412 0.14144 0.0
O151 O 0.44687 0.81436 0.24265 0.0
O152 O 0.48643 0.79765 0.28053 0.0
C153 C 0.56633 0.8143 0.27177 0.0
Fe154 Fe 0.20052 0.55182 0.20172 0.0
Fe155 Fe 0.25013 0.51205 0.25026 0.0
O156 O 0.21714 0.51177 0.218 0.0
Fe157 Fe 0.20087 0.47142 0.20213 0.0
O158 O 0.21388 0.48209 0.15791 0.0
O159 O 0.19279 0.53538 0.15739 0.0
O160 O 0.24335 0.56613 0.18673 0.0
C161 C 0.26995 0.568 0.206 0.0
C162 C 0.14024 0.51355 0.20693 0.0
O163 O 0.27083 0.55229 0.23501 0.0
C164 C 0.20671 0.45603 0.27158 0.0
O165 O 0.20527 0.57534 0.24315 0.0
O166 O 0.22248 0.53541 0.28048 0.0
O167 O 0.1563 0.48734 0.19491 0.0
O168 O 0.15658 0.54079 0.21554 0.0
C169 C 0.27357 0.45927 0.20887 0.0
O170 O 0.23566 0.47188 0.27167 0.0
O171 O 0.18682 0.45758 0.2454 0.0
C172 C 0.20859 0.5645 0.27421 0.0
O173 O 0.28 0.48863 0.22219 0.0
O174 O 0.2425 0.44825 0.20639 0.0
C175 C 0.20493 0.50913 0.14146 0.0
Fe176 Fe 0.55084 0.81781 0.81868 0.0
Fe177 Fe 0.47043 0.81866 0.81912 0.0
O178 O 0.51037 0.80183 0.80277 0.0
Fe179 Fe 0.50985 0.76897 0.77039 0.0
O180 O 0.53328 0.73885 0.79819 0.0
O181 O 0.57382 0.77603 0.81431 0.0
O182 O 0.5401 0.80477 0.8629 0.0
C183 C 0.51313 0.81394 0.87932 0.0
C184 C 0.56578 0.81234 0.74911 0.0
O185 O 0.487 0.82629 0.86337 0.0
C186 C 0.45741 0.81071 0.74666 0.0
O187 O 0.53522 0.8625 0.82588 0.0
O188 O 0.48169 0.86255 0.80535 0.0
O189 O 0.54991 0.78341 0.74889 0.0
O190 O 0.56469 0.83194 0.77549 0.0
C191 C 0.45414 0.74924 0.81488 0.0
O192 O 0.44672 0.81407 0.77776 0.0
O193 O 0.48645 0.79677 0.74031 0.0
C194 C 0.50911 0.87869 0.8138 0.0
O195 O 0.45597 0.77588 0.83409 0.0
O196 O 0.46966 0.74836 0.78578 0.0
C197 C 0.56273 0.74501 0.81143 0.0
Fe198 Fe 0.2012 0.55035 0.81931 0.0
Fe199 Fe 0.25048 0.51134 0.76975 0.0
O200 O 0.21797 0.51055 0.80256 0.0
Fe201 Fe 0.20216 0.46997 0.81855 0.0
O202 O 0.1576 0.48555 0.82637 0.0
O203 O 0.15733 0.53911 0.80578 0.0
O204 O 0.20544 0.57461 0.77812 0.0
C205 C 0.20857 0.56428 0.74692 0.0
C206 C 0.20649 0.50723 0.87927 0.0
O207 O 0.22242 0.53525 0.74022 0.0
C208 C 0.27481 0.45787 0.81008 0.0
O209 O 0.244 0.56468 0.83396 0.0
O210 O 0.27136 0.55136 0.78537 0.0
O211 O 0.2157 0.48045 0.86261 0.0
O212 O 0.19385 0.53338 0.86355 0.0
C213 C 0.20688 0.45517 0.74893 0.0
O214 O 0.28094 0.48739 0.79685 0.0
O215 O 0.24379 0.44697 0.81354 0.0
C216 C 0.27049 0.56682 0.8145 0.0
O217 O 0.23559 0.47148 0.74811 0.0
O218 O 0.18756 0.45631 0.77555 0.0
C219 C 0.14133 0.51158 0.81422 0.0
Fe220 Fe 0.51278 0.25007 0.76859 0.0
Fe221 Fe 0.47028 0.20194 0.81661 0.0
O222 O 0.51124 0.21763 0.80149 0.0
Fe223 Fe 0.55071 0.20091 0.81914 0.0
O224 O 0.56486 0.24385 0.83379 0.0
O225 O 0.55258 0.27073 0.78469 0.0
O226 O 0.48861 0.28069 0.79524 0.0
C227 C 0.45888 0.27475 0.80807 0.0
C228 C 0.56578 0.20774 0.74692 0.0
O229 O 0.44765 0.24379 0.81126 0.0
C230 C 0.51199 0.1409 0.81356 0.0
O231 O 0.47325 0.23557 0.74625 0.0
O232 O 0.45737 0.18753 0.77326 0.0
O233 O 0.57565 0.20484 0.77832 0.0
O234 O 0.53695 0.22172 0.73964 0.0
C235 C 0.50632 0.20626 0.87822 0.0
O236 O 0.48552 0.15723 0.82463 0.0
O237 O 0.53972 0.15689 0.80578 0.0
C238 C 0.45689 0.20692 0.74664 0.0
O239 O 0.47984 0.21527 0.86097 0.0
O240 O 0.53293 0.19386 0.86311 0.0
C241 C 0.56724 0.27023 0.8142 0.0
Fe242 Fe 0.81942 0.46933 0.81828 0.0
Fe243 Fe 0.77013 0.50934 0.76951 0.0
O244 O 0.80291 0.50946 0.80202 0.0
Fe245 Fe 0.81915 0.54973 0.81829 0.0
O246 O 0.86357 0.53369 0.82564 0.0
O247 O 0.86339 0.48036 0.80463 0.0
O248 O 0.81474 0.44574 0.7769 0.0
C249 C 0.81121 0.45627 0.74578 0.0
C250 C 0.81458 0.51161 0.87866 0.0
O251 O 0.79763 0.4855 0.73938 0.0
C252 C 0.74661 0.56242 0.81073 0.0
O253 O 0.77659 0.45515 0.83308 0.0
O254 O 0.74897 0.46932 0.78492 0.0
O255 O 0.80582 0.53883 0.86238 0.0
O256 O 0.827 0.48558 0.86264 0.0
C257 C 0.81412 0.56541 0.74883 0.0
O258 O 0.74016 0.53316 0.7972 0.0
O259 O 0.77771 0.57313 0.81384 0.0
C260 C 0.74997 0.45341 0.81385 0.0
O261 O 0.78525 0.54936 0.74811 0.0
O262 O 0.8336 0.5638 0.77529 0.0
C263 C 0.87961 0.50766 0.81326 0.0
H264 H 0.22378 0.34378 0.46552 0.0
H265 H 0.1647 0.39754 0.27223 0.0
H266 H 0.17788 0.27116 0.39274 0.0
H267 H 0.23172 0.45983 0.33772 0.0
H268 H 0.15934 0.35474 0.31975 0.0
H269 H 0.21681 0.39025 0.42251 0.0
C270 C 0.21194 0.33761 0.44064 0.0
C271 C 0.20184 0.30333 0.43263 0.0
C272 C 0.17492 0.37798 0.32375 0.0
C273 C 0.19379 0.35659 0.38315 0.0
C274 C 0.17781 0.40247 0.29674 0.0
C275 C 0.199 0.43207 0.30092 0.0
C276 C 0.19301 0.38342 0.35518 0.0
C277 C 0.21549 0.43714 0.33321 0.0
C278 C 0.20804 0.36419 0.41603 0.0
C279 C 0.18642 0.29709 0.39995 0.0
N280 N 0.21227 0.41303 0.35897 0.0
N281 N 0.18308 0.32339 0.37633 0.0
H282 H 0.5503 0.2204 0.34381 0.0
H283 H 0.74949 0.18001 0.38943 0.0
H284 H 0.62543 0.18134 0.26961 0.0
H285 H 0.67582 0.22121 0.46392 0.0
H286 H 0.70237 0.17376 0.34726 0.0
H287 H 0.59381 0.21433 0.38998 0.0
C288 C 0.57579 0.21022 0.33724 0.0
C289 C 0.58433 0.20182 0.30263 0.0
C290 C 0.69642 0.18393 0.37291 0.0
C291 C 0.63429 0.19492 0.35539 0.0
C292 C 0.72336 0.1875 0.39705 0.0
C293 C 0.71675 0.20161 0.43017 0.0
C294 C 0.66256 0.19465 0.38179 0.0
C295 C 0.68224 0.21051 0.43861 0.0
C296 C 0.60065 0.2068 0.36364 0.0
C297 C 0.61775 0.18853 0.2958 0.0
N298 N 0.65651 0.2072 0.41446 0.0
N299 N 0.64154 0.18579 0.32185 0.0
H300 H 0.83912 0.74906 0.39245 0.0
H301 H 0.79439 0.55101 0.34441 0.0
H302 H 0.79414 0.67608 0.46577 0.0
H303 H 0.83685 0.62611 0.27174 0.0
H304 H 0.80001 0.59417 0.39105 0.0
H305 H 0.84443 0.70216 0.35 0.0
C306 C 0.83057 0.72311 0.39976 0.0
C307 C 0.81576 0.71667 0.43265 0.0
C308 C 0.80835 0.60107 0.36494 0.0
C309 C 0.82164 0.66267 0.38389 0.0
C310 C 0.80522 0.57641 0.33829 0.0
C311 C 0.81477 0.58504 0.30395 0.0
C312 C 0.82116 0.63458 0.35723 0.0
C313 C 0.82877 0.61835 0.29768 0.0
C314 C 0.83361 0.69629 0.37545 0.0
C315 C 0.80549 0.68236 0.44066 0.0
N316 N 0.83129 0.64191 0.32397 0.0
N317 N 0.80832 0.65672 0.41633 0.0
H318 H 0.2722 0.85601 0.39637 0.0
H319 H 0.46624 0.79894 0.34379 0.0
H320 H 0.33875 0.79138 0.45992 0.0
H321 H 0.39255 0.84157 0.27017 0.0
H322 H 0.42337 0.8067 0.3902 0.0
H323 H 0.3197 0.86156 0.3536 0.0
C324 C 0.29695 0.84352 0.4016 0.0
C325 C 0.30144 0.82288 0.43152 0.0
C326 C 0.41666 0.8146 0.36393 0.0
C327 C 0.35566 0.82907 0.38292 0.0
C328 C 0.44118 0.81023 0.33738 0.0
C329 C 0.43287 0.81914 0.30285 0.0
C330 C 0.38356 0.82811 0.35605 0.0
C331 C 0.39999 0.83393 0.2963 0.0
C332 C 0.32395 0.8465 0.37713 0.0
C333 C 0.33401 0.80716 0.43697 0.0
N334 N 0.37645 0.83772 0.3226 0.0
N335 N 0.35975 0.81043 0.41286 0.0
H336 H 0.16463 0.74929 0.62418 0.0
H337 H 0.22023 0.55493 0.67698 0.0
H338 H 0.229 0.68227 0.56091 0.0
H339 H 0.17849 0.62911 0.75059 0.0
H340 H 0.2125 0.59771 0.63048 0.0
H341 H 0.15853 0.7018 0.66691 0.0
C342 C 0.17695 0.72443 0.61901 0.0
C343 C 0.19769 0.7198 0.5892 0.0
C344 C 0.20478 0.60454 0.65677 0.0
C345 C 0.19086 0.66562 0.63773 0.0
C346 C 0.20914 0.58008 0.68337 0.0
C347 C 0.2005 0.58857 0.71791 0.0
C348 C 0.19158 0.63776 0.66462 0.0
C349 C 0.18593 0.62155 0.72443 0.0
C350 C 0.17364 0.69745 0.64345 0.0
C351 C 0.21317 0.68711 0.58379 0.0
N352 N 0.18218 0.64504 0.69809 0.0
N353 N 0.20959 0.66139 0.60787 0.0
H354 H 0.26954 0.17689 0.62772 0.0
H355 H 0.46294 0.23009 0.6799 0.0
H356 H 0.34305 0.22324 0.55586 0.0
H357 H 0.39724 0.16668 0.74598 0.0
H358 H 0.42048 0.22438 0.63301 0.0
H359 H 0.31653 0.16956 0.67007 0.0
C360 C 0.29561 0.18527 0.62069 0.0
C361 C 0.30221 0.20113 0.58827 0.0
C362 C 0.41543 0.21134 0.65757 0.0
C363 C 0.35616 0.19291 0.63683 0.0
C364 C 0.43967 0.21463 0.68442 0.0
C365 C 0.43344 0.19913 0.71702 0.0
C366 C 0.38435 0.19282 0.66341 0.0
C367 C 0.40304 0.17911 0.72127 0.0
C368 C 0.32246 0.18097 0.6449 0.0
C369 C 0.33662 0.21112 0.58057 0.0
N370 N 0.37933 0.17695 0.69491 0.0
N371 N 0.36217 0.20721 0.60481 0.0
H372 H 0.84077 0.39149 0.74949 0.0
H373 H 0.79832 0.34389 0.55104 0.0
H374 H 0.79761 0.46496 0.67587 0.0
H375 H 0.83761 0.27034 0.62673 0.0
H376 H 0.80438 0.3904 0.59418 0.0
H377 H 0.84637 0.34891 0.70271 0.0
C378 C 0.83271 0.39882 0.72342 0.0
C379 C 0.81827 0.43178 0.71676 0.0
C380 C 0.81195 0.36413 0.60123 0.0
C381 C 0.82449 0.38288 0.66293 0.0
C382 C 0.80855 0.33754 0.57659 0.0
C383 C 0.81706 0.303 0.58537 0.0
C384 C 0.82397 0.35619 0.63491 0.0
C385 C 0.83037 0.29646 0.61885 0.0
C386 C 0.83591 0.37442 0.69668 0.0
C387 C 0.80863 0.4398 0.68233 0.0
N388 N 0.83314 0.32271 0.64243 0.0
N389 N 0.8116 0.41541 0.65678 0.0
H390 H 0.75255 0.84243 0.62906 0.0
H391 H 0.5593 0.79011 0.6823 0.0
H392 H 0.67756 0.79924 0.55703 0.0
H393 H 0.6255 0.85244 0.74855 0.0
H394 H 0.60139 0.79654 0.63509 0.0
H395 H 0.706 0.84965 0.67205 0.0
C396 C 0.72626 0.83475 0.62213 0.0
C397 C 0.7191 0.81973 0.5895 0.0
C398 C 0.60664 0.80919 0.65977 0.0
C399 C 0.66572 0.82783 0.63871 0.0
C400 C 0.58263 0.80546 0.68678 0.0
C401 C 0.58913 0.82045 0.7195 0.0
C402 C 0.63777 0.8276 0.66556 0.0
C403 C 0.61955 0.8404 0.72374 0.0
C404 C 0.69968 0.83897 0.6467 0.0
C405 C 0.68445 0.81062 0.58192 0.0
N406 N 0.64307 0.84296 0.6972 0.0
N407 N 0.65918 0.81443 0.60648 0.0
H408 H 0.45753 0.22735 0.33752 0.0
H409 H 0.26831 0.16236 0.39705 0.0
H410 H 0.3917 0.16476 0.27115 0.0
H411 H 0.33633 0.22851 0.45755 0.0
H412 H 0.31524 0.15526 0.35382 0.0
H413 H 0.41599 0.22001 0.38484 0.0
C414 C 0.43434 0.2118 0.333 0.0
C415 C 0.42783 0.19706 0.30021 0.0
C416 C 0.31993 0.17096 0.3768 0.0
C417 C 0.37957 0.18883 0.35443 0.0
C418 C 0.29324 0.1749 0.40152 0.0
C419 C 0.29829 0.19645 0.43069 0.0
C420 C 0.35183 0.1885 0.38157 0.0
C421 C 0.33106 0.21211 0.4352 0.0
C422 C 0.41055 0.20758 0.36009 0.0
C423 C 0.39761 0.17669 0.29603 0.0
N424 N 0.35637 0.208 0.41085 0.0
N425 N 0.37426 0.17357 0.32273 0.0
H426 H 0.85816 0.39502 0.26893 0.0
H427 H 0.79286 0.33754 0.45847 0.0
H428 H 0.79214 0.45628 0.33622 0.0
H429 H 0.85562 0.27064 0.39352 0.0
H430 H 0.80078 0.38466 0.41677 0.0
H431 H 0.86565 0.35257 0.31655 0.0
C432 C 0.84576 0.39982 0.29385 0.0
C433 C 0.82406 0.4289 0.29852 0.0
C434 C 0.81313 0.35983 0.41158 0.0
C435 C 0.83246 0.38074 0.35278 0.0
C436 C 0.80858 0.33287 0.43545 0.0
C437 C 0.82316 0.3 0.42918 0.0
C438 C 0.83205 0.35392 0.38077 0.0
C439 C 0.84378 0.29559 0.39921 0.0
C440 C 0.84992 0.37556 0.32093 0.0
C441 C 0.8086 0.43392 0.33127 0.0
N442 N 0.84719 0.32215 0.37575 0.0
N443 N 0.8129 0.41001 0.35695 0.0
H444 H 0.62318 0.85875 0.27247 0.0
H445 H 0.68171 0.79113 0.46097 0.0
H446 H 0.56377 0.78862 0.33774 0.0
H447 H 0.74784 0.85602 0.39678 0.0
H448 H 0.63489 0.7979 0.41889 0.0
H449 H 0.66573 0.86558 0.31998 0.0
C450 C 0.61881 0.84522 0.29691 0.0
C451 C 0.59012 0.82271 0.301 0.0
C452 C 0.65949 0.81095 0.41395 0.0
C453 C 0.63849 0.8304 0.35523 0.0
C454 C 0.68629 0.80708 0.43806 0.0
C455 C 0.7189 0.82264 0.43216 0.0
C456 C 0.66523 0.83022 0.3833 0.0
C457 C 0.72312 0.84346 0.40225 0.0
C458 C 0.64315 0.84903 0.32394 0.0
C459 C 0.58574 0.80583 0.33319 0.0
N460 N 0.69671 0.84627 0.37861 0.0
N461 N 0.6097 0.80985 0.35885 0.0
H462 H 0.17953 0.75202 0.39259 0.0
H463 H 0.21934 0.55365 0.34418 0.0
H464 H 0.22142 0.67727 0.46568 0.0
H465 H 0.18072 0.63006 0.27098 0.0
H466 H 0.21292 0.59627 0.39102 0.0
H467 H 0.17242 0.70546 0.35 0.0
C468 C 0.187 0.72576 0.39981 0.0
C469 C 0.20161 0.71867 0.43261 0.0
C470 C 0.20555 0.60359 0.36475 0.0
C471 C 0.19363 0.66517 0.38378 0.0
C472 C 0.20918 0.57925 0.33797 0.0
C473 C 0.20106 0.58845 0.30346 0.0
C474 C 0.19374 0.63736 0.35698 0.0
C475 C 0.18773 0.62192 0.29709 0.0
C476 C 0.18291 0.69915 0.37544 0.0
C477 C 0.21037 0.68403 0.4406 0.0
N478 N 0.1848 0.64524 0.32353 0.0
N479 N 0.20659 0.65862 0.4162 0.0
H480 H 0.26972 0.84079 0.62848 0.0
H481 H 0.46802 0.79999 0.67665 0.0
H482 H 0.34408 0.79856 0.55526 0.0
H483 H 0.39184 0.83855 0.75005 0.0
H484 H 0.42529 0.8065 0.6299 0.0
H485 H 0.31634 0.84738 0.6711 0.0
C486 C 0.29591 0.83313 0.62124 0.0
C487 C 0.30286 0.8186 0.58838 0.0
C488 C 0.41804 0.81382 0.65619 0.0
C489 C 0.35645 0.82598 0.63725 0.0
C490 C 0.44244 0.81014 0.68292 0.0
C491 C 0.43336 0.81824 0.71747 0.0
C492 C 0.38431 0.82567 0.66403 0.0
C493 C 0.3999 0.83157 0.72391 0.0
C494 C 0.32256 0.83692 0.64563 0.0
C495 C 0.33743 0.80957 0.58038 0.0
N496 N 0.37653 0.83456 0.69752 0.0
N497 N 0.36288 0.81307 0.60479 0.0
H498 H 0.23171 0.33801 0.56111 0.0
H499 H 0.16219 0.39852 0.74814 0.0
H500 H 0.1639 0.27372 0.62415 0.0
H501 H 0.23321 0.45722 0.68318 0.0
H502 H 0.15554 0.35577 0.70084 0.0
H503 H 0.22528 0.38511 0.6029 0.0
C504 C 0.21522 0.33389 0.58372 0.0
C505 C 0.1987 0.30171 0.58938 0.0
C506 C 0.17226 0.37824 0.6969 0.0
C507 C 0.19146 0.35571 0.63789 0.0
C508 C 0.17597 0.40269 0.72382 0.0
C509 C 0.19866 0.43124 0.71977 0.0
C510 C 0.19121 0.38262 0.66577 0.0
C511 C 0.21585 0.43536 0.68771 0.0
C512 C 0.21153 0.36086 0.60765 0.0
C513 C 0.17721 0.29809 0.61888 0.0
N514 N 0.21194 0.41127 0.66216 0.0
N515 N 0.17457 0.32465 0.64236 0.0
H516 H 0.63062 0.17784 0.75177 0.0
H517 H 0.68097 0.22745 0.55709 0.0
H518 H 0.55724 0.21857 0.67678 0.0
H519 H 0.74864 0.16682 0.62331 0.0
H520 H 0.63433 0.22105 0.59982 0.0
H521 H 0.67316 0.17024 0.70483 0.0
C522 C 0.6233 0.18489 0.72542 0.0
C523 C 0.59042 0.19936 0.71834 0.0
C524 C 0.65919 0.20874 0.60494 0.0
C525 C 0.63909 0.19081 0.66454 0.0
C526 C 0.68587 0.21245 0.58055 0.0
C527 C 0.7188 0.19794 0.58686 0.0
C528 C 0.66556 0.19087 0.63626 0.0
C529 C 0.72362 0.17846 0.61749 0.0
C530 C 0.64761 0.18045 0.69862 0.0
C531 C 0.58234 0.20768 0.68361 0.0
N532 N 0.69741 0.17594 0.64137 0.0
N533 N 0.60663 0.20367 0.65814 0.0
H534 H 0.8588 0.62211 0.74816 0.0
H535 H 0.79073 0.68243 0.56043 0.0
H536 H 0.78803 0.56364 0.68306 0.0
H537 H 0.85671 0.74758 0.62414 0.0
H538 H 0.79729 0.63533 0.60232 0.0
H539 H 0.86569 0.66499 0.70082 0.0
C540 C 0.84512 0.61802 0.7238 0.0
C541 C 0.82243 0.58948 0.71971 0.0
C542 C 0.81062 0.65976 0.6072 0.0
C543 C 0.83021 0.63824 0.66568 0.0
C544 C 0.80688 0.68673 0.58321 0.0
C545 C 0.82282 0.71914 0.58903 0.0
C546 C 0.83014 0.66516 0.63769 0.0
C547 C 0.84388 0.72301 0.61874 0.0
C548 C 0.84898 0.64255 0.69687 0.0
C549 C 0.80538 0.58548 0.68762 0.0
N550 N 0.84655 0.69644 0.6423 0.0
N551 N 0.80946 0.60961 0.66205 0.0
H552 H 0.38951 0.27053 0.17848 0.0
H553 H 0.34365 0.4692 0.2203 0.0
H554 H 0.46347 0.34378 0.22162 0.0
H555 H 0.2698 0.39417 0.18011 0.0
H556 H 0.38997 0.42599 0.21379 0.0
H557 H 0.34766 0.31777 0.17172 0.0
C558 C 0.39709 0.2966 0.1863 0.0
C559 C 0.42991 0.30305 0.20114 0.0
C560 C 0.36368 0.41912 0.2061 0.0
C561 C 0.38192 0.35736 0.19359 0.0
C562 C 0.33721 0.4438 0.20976 0.0
C563 C 0.30264 0.43515 0.20123 0.0
C564 C 0.35554 0.38557 0.19383 0.0
C565 C 0.29595 0.40189 0.18746 0.0
C566 C 0.37313 0.3236 0.18242 0.0
C567 C 0.43835 0.3375 0.21038 0.0
N568 N 0.32207 0.37826 0.1845 0.0
N569 N 0.41436 0.36329 0.2068 0.0
H570 H 0.27043 0.62384 0.85854 0.0
H571 H 0.46011 0.68228 0.7936 0.0
H572 H 0.33676 0.56442 0.78989 0.0
H573 H 0.39465 0.74927 0.85574 0.0
H574 H 0.41797 0.63539 0.80054 0.0
H575 H 0.31785 0.6666 0.86581 0.0
C576 C 0.29508 0.61952 0.84544 0.0
C577 C 0.29953 0.59077 0.8232 0.0
C578 C 0.41275 0.66019 0.81295 0.0
C579 C 0.35362 0.63933 0.83141 0.0
C580 C 0.43688 0.68702 0.80899 0.0
C581 C 0.43064 0.71987 0.8237 0.0
C582 C 0.3817 0.66615 0.83144 0.0
C583 C 0.40036 0.72433 0.84385 0.0
C584 C 0.32204 0.64396 0.8495 0.0
C585 C 0.33196 0.58644 0.80686 0.0
N586 N 0.37667 0.69787 0.84673 0.0
N587 N 0.35755 0.61049 0.81114 0.0
H588 H 0.27172 0.39357 0.84082 0.0
H589 H 0.46899 0.34456 0.79444 0.0
H590 H 0.34445 0.46634 0.79454 0.0
H591 H 0.39369 0.27211 0.83697 0.0
H592 H 0.42619 0.39142 0.80046 0.0
H593 H 0.31847 0.35098 0.84592 0.0
C594 C 0.2976 0.40074 0.83196 0.0
C595 C 0.304 0.4335 0.81682 0.0
C596 C 0.41917 0.36531 0.80873 0.0
C597 C 0.35782 0.38456 0.82244 0.0
C598 C 0.44362 0.33852 0.80535 0.0
C599 C 0.43482 0.30419 0.81482 0.0
C600 C 0.38571 0.35774 0.8217 0.0
C601 C 0.40157 0.29805 0.82896 0.0
C602 C 0.32433 0.37634 0.83487 0.0
C603 C 0.33821 0.44134 0.80616 0.0
N604 N 0.37821 0.32446 0.83172 0.0
N605 N 0.36377 0.41691 0.80886 0.0
H606 H 0.75 0.3964 0.85804 0.0
H607 H 0.56102 0.33709 0.79262 0.0
H608 H 0.68373 0.45564 0.78912 0.0
H609 H 0.62622 0.27064 0.85565 0.0
H610 H 0.60284 0.38424 0.7996 0.0
H611 H 0.70269 0.35353 0.86541 0.0
C612 C 0.72538 0.40066 0.84489 0.0
C613 C 0.72094 0.42939 0.82255 0.0
C614 C 0.60807 0.35951 0.81221 0.0
C615 C 0.66695 0.38069 0.83088 0.0
C616 C 0.58412 0.33253 0.80823 0.0
C617 C 0.5904 0.29976 0.82317 0.0
C618 C 0.63898 0.35376 0.83093 0.0
C619 C 0.62049 0.29552 0.84359 0.0
C620 C 0.69847 0.37615 0.84902 0.0
C621 C 0.68855 0.43363 0.80617 0.0
N622 N 0.64402 0.32211 0.84647 0.0
N623 N 0.663 0.40951 0.8105 0.0
H624 H 0.75043 0.62667 0.84136 0.0
H625 H 0.55224 0.67507 0.7995 0.0
H626 H 0.67665 0.55381 0.79727 0.0
H627 H 0.62824 0.74801 0.83952 0.0
H628 H 0.59508 0.62831 0.8054 0.0
H629 H 0.70372 0.66912 0.8478 0.0
C630 C 0.72434 0.61945 0.83326 0.0
C631 C 0.71761 0.58673 0.8183 0.0
C632 C 0.60225 0.6545 0.81318 0.0
C633 C 0.66386 0.63547 0.82548 0.0
C634 C 0.57778 0.68123 0.80987 0.0
C635 C 0.58677 0.71568 0.81859 0.0
C636 C 0.63594 0.66223 0.8253 0.0
C637 C 0.62022 0.72198 0.83208 0.0
C638 C 0.69764 0.64377 0.83696 0.0
C639 C 0.68315 0.57881 0.80868 0.0
N640 N 0.64363 0.6956 0.83474 0.0
N641 N 0.65763 0.60314 0.81211 0.0
H642 H 0.62787 0.75009 0.17741 0.0
H643 H 0.67986 0.5568 0.23084 0.0
H644 H 0.55616 0.67687 0.22455 0.0
H645 H 0.74559 0.62217 0.16673 0.0
H646 H 0.63306 0.59932 0.22538 0.0
H647 H 0.67003 0.70299 0.16996 0.0
C648 C 0.62084 0.72406 0.18596 0.0
C649 C 0.58853 0.71757 0.20207 0.0
C650 C 0.65753 0.60428 0.21214 0.0
C651 C 0.63684 0.66352 0.19369 0.0
C652 C 0.68431 0.58001 0.21529 0.0
C653 C 0.7168 0.58614 0.19952 0.0
C654 C 0.66331 0.63529 0.19348 0.0
C655 C 0.72097 0.61646 0.17937 0.0
C656 C 0.64493 0.69716 0.18159 0.0
C657 C 0.5808 0.68323 0.21226 0.0
N658 N 0.69468 0.64019 0.17735 0.0
N659 N 0.60492 0.65762 0.20826 0.0
H660 H 0.4596 0.68269 0.22966 0.0
H661 H 0.27037 0.62575 0.1626 0.0
H662 H 0.39666 0.74922 0.16442 0.0
H663 H 0.33624 0.56457 0.23016 0.0
H664 H 0.31816 0.66827 0.15587 0.0
H665 H 0.41703 0.6362 0.22274 0.0
C666 C 0.43684 0.68742 0.21361 0.0
C667 C 0.43148 0.72003 0.19796 0.0
C668 C 0.32218 0.6453 0.17181 0.0
C669 C 0.38201 0.66675 0.19021 0.0
C670 C 0.29499 0.62099 0.17555 0.0
C671 C 0.29919 0.59182 0.19736 0.0
C672 C 0.3537 0.64013 0.18983 0.0
C673 C 0.33161 0.58694 0.21354 0.0
C674 C 0.41246 0.66081 0.20964 0.0
C675 C 0.40174 0.72447 0.17703 0.0
N676 N 0.35739 0.61088 0.20962 0.0
N677 N 0.3778 0.69825 0.17414 0.0
H678 H 0.55659 0.33816 0.22778 0.0
H679 H 0.75128 0.38885 0.17766 0.0
H680 H 0.62256 0.2706 0.16685 0.0
H681 H 0.67661 0.46183 0.21953 0.0
H682 H 0.70431 0.34619 0.17029 0.0
H683 H 0.59951 0.38472 0.22173 0.0
C684 C 0.58004 0.33327 0.21279 0.0
C685 C 0.58619 0.30038 0.19806 0.0
C686 C 0.69818 0.37168 0.18072 0.0
C687 C 0.63585 0.35356 0.1914 0.0
C688 C 0.72499 0.39606 0.18502 0.0
C689 C 0.71802 0.42889 0.19969 0.0
C690 C 0.66418 0.38006 0.19141 0.0
C691 C 0.68337 0.4368 0.20844 0.0
C692 C 0.60454 0.3599 0.20929 0.0
C693 C 0.61684 0.29558 0.17862 0.0
N694 N 0.65789 0.41245 0.20452 0.0
N695 N 0.64083 0.32176 0.17629 0.0
H696 H 0.22786 0.92286 0.56687 0.0
H697 H 0.18577 0.09785 0.46075 0.0
H698 H 0.18863 0.92471 0.46134 0.0
H699 H 0.22554 0.09746 0.56609 0.0
H700 H 0.18748 0.03434 0.46055 0.0
H701 H 0.22811 0.98664 0.56706 0.0
C702 C 0.21934 0.93662 0.54372 0.0
C703 C 0.20807 0.9183 0.51408 0.0
C704 C 0.19585 0.0481 0.48374 0.0
C705 C 0.20832 0.99138 0.51417 0.0
C706 C 0.19486 0.08445 0.48389 0.0
C707 C 0.2054 0.10314 0.51354 0.0
C708 C 0.20747 0.0301 0.51344 0.0
C709 C 0.21706 0.0842 0.54267 0.0
C710 C 0.21949 0.97306 0.54387 0.0
C711 C 0.19743 0.93762 0.48484 0.0
N712 N 0.21773 0.04873 0.5419 0.0
N713 N 0.19776 0.97303 0.48566 0.0
H714 H 0.09689 0.20247 0.56593 0.0
H715 H 0.92163 0.2004 0.45419 0.0
H716 H 0.09524 0.21696 0.45425 0.0
H717 H 0.9229 0.21588 0.5657 0.0
H718 H 0.9853 0.20256 0.45376 0.0
H719 H 0.03318 0.20359 0.56645 0.0
C720 C 0.08315 0.2059 0.5415 0.0
C721 C 0.10147 0.20948 0.50996 0.0
C722 C 0.97164 0.2056 0.4783 0.0
C723 C 0.02849 0.21063 0.51041 0.0
C724 C 0.93528 0.20422 0.47861 0.0
C725 C 0.91686 0.20781 0.51007 0.0
C726 C 0.98982 0.21022 0.50971 0.0
C727 C 0.93599 0.21298 0.54085 0.0
C728 C 0.04677 0.20666 0.54186 0.0
C729 C 0.08223 0.2141 0.47916 0.0
N730 N 0.97144 0.2138 0.53993 0.0
N731 N 0.04679 0.2143 0.48013 0.0
H732 H 0.80345 0.09615 0.45077 0.0
H733 H 0.8061 0.92321 0.56771 0.0
H734 H 0.81942 0.09714 0.56222 0.0
H735 H 0.81995 0.92243 0.45594 0.0
H736 H 0.80435 0.98695 0.5662 0.0
H737 H 0.80278 0.03235 0.45226 0.0
C738 C 0.80671 0.083 0.47557 0.0
C739 C 0.81168 0.10208 0.50641 0.0
C740 C 0.80779 0.9728 0.54202 0.0
C741 C 0.81074 0.02905 0.50827 0.0
C742 C 0.8087 0.9364 0.54284 0.0
C743 C 0.81336 0.91739 0.51191 0.0
C744 C 0.81114 0.99038 0.51002 0.0
C745 C 0.81657 0.93597 0.48046 0.0
C746 C 0.80643 0.04657 0.47637 0.0
C747 C 0.81576 0.08354 0.53777 0.0
N748 N 0.81531 0.97141 0.48031 0.0
N749 N 0.81513 0.0481 0.5379 0.0
H750 H 0.09733 0.83199 0.56083 0.0
H751 H 0.92272 0.79263 0.453 0.0
H752 H 0.09766 0.79451 0.45467 0.0
H753 H 0.92441 0.83082 0.55889 0.0
H754 H 0.98656 0.7919 0.45308 0.0
H755 H 0.03383 0.8305 0.56052 0.0
C756 C 0.08409 0.82344 0.5374 0.0
C757 C 0.10299 0.8135 0.50767 0.0
C758 C 0.97292 0.8004 0.47628 0.0
C759 C 0.02992 0.8117 0.50718 0.0
C760 C 0.93645 0.80082 0.47628 0.0
C761 C 0.91806 0.81194 0.50595 0.0
C762 C 0.99117 0.81113 0.50618 0.0
C763 C 0.93734 0.82216 0.53535 0.0
C764 C 0.04773 0.82258 0.53726 0.0
C765 C 0.08423 0.80251 0.47817 0.0
N766 N 0.97275 0.82155 0.53468 0.0
N767 N 0.04875 0.80197 0.47865 0.0
H768 H 0.45277 0.22779 0.92088 0.0
H769 H 0.55812 0.18843 0.09694 0.0
H770 H 0.55803 0.18815 0.92393 0.0
H771 H 0.45239 0.22695 0.09589 0.0
H772 H 0.55854 0.1895 0.03343 0.0
H773 H 0.45214 0.22895 0.98471 0.0
C774 C 0.47576 0.21936 0.9349 0.0
C775 C 0.50546 0.20772 0.9169 0.0
C776 C 0.53522 0.19775 0.04703 0.0
C777 C 0.50489 0.20904 0.99003 0.0
C778 C 0.53494 0.19714 0.08339 0.0
C779 C 0.5051 0.20748 0.10193 0.0
C780 C 0.50546 0.20878 0.02881 0.0
C781 C 0.47595 0.21864 0.08277 0.0
C782 C 0.47537 0.22003 0.97138 0.0
C783 C 0.53449 0.19721 0.93657 0.0
N784 N 0.47684 0.21893 0.04727 0.0
N785 N 0.53343 0.19808 0.97197 0.0
H786 H 0.82056 0.45497 0.92164 0.0
H787 H 0.81768 0.56526 0.09791 0.0
H788 H 0.80448 0.56637 0.9237 0.0
H789 H 0.8045 0.45343 0.09515 0.0
H790 H 0.81673 0.56637 0.03416 0.0
H791 H 0.81866 0.45407 0.98529 0.0
C792 C 0.81666 0.47928 0.93546 0.0
C793 C 0.81281 0.51083 0.91725 0.0
C794 C 0.81393 0.54162 0.04753 0.0
C795 C 0.81071 0.50994 0.99024 0.0
C796 C 0.81459 0.54092 0.08392 0.0
C797 C 0.8113 0.50917 0.10196 0.0
C798 C 0.81033 0.5103 0.02894 0.0
C799 C 0.80713 0.4785 0.0824 0.0
C800 C 0.81544 0.47869 0.97182 0.0
C801 C 0.80757 0.54145 0.93661 0.0
N802 N 0.80699 0.47982 0.04696 0.0
N803 N 0.80689 0.54026 0.97207 0.0
H804 H 0.567 0.79248 0.09814 0.0
H805 H 0.46011 0.83256 0.92331 0.0
H806 H 0.4618 0.83241 0.09651 0.0
H807 H 0.5654 0.79281 0.92359 0.0
H808 H 0.4602 0.83159 0.98685 0.0
H809 H 0.56681 0.79135 0.03438 0.0
C810 C 0.54385 0.80099 0.08443 0.0
C811 C 0.51441 0.8127 0.10281 0.0
C812 C 0.4833 0.82305 0.97306 0.0
C813 C 0.51404 0.81142 0.02974 0.0
C814 C 0.48329 0.8236 0.9367 0.0
C815 C 0.51286 0.81288 0.91797 0.0
C816 C 0.51309 0.81169 0.99102 0.0
C817 C 0.54204 0.80141 0.93688 0.0
C818 C 0.54377 0.80033 0.048 0.0
C819 C 0.48515 0.82329 0.08355 0.0
N820 N 0.54144 0.80119 0.97236 0.0
N821 N 0.48575 0.82244 0.04814 0.0
H822 H 0.2284 0.45473 0.92295 0.0
H823 H 0.18628 0.56196 0.09713 0.0
H824 H 0.18745 0.55955 0.92388 0.0
H825 H 0.22643 0.45682 0.0975 0.0
H826 H 0.18768 0.56166 0.03357 0.0
H827 H 0.22904 0.45515 0.98673 0.0
C828 C 0.21957 0.47785 0.93651 0.0
C829 C 0.20771 0.5071 0.91793 0.0
C830 C 0.19621 0.53864 0.04752 0.0
C831 C 0.20842 0.50774 0.99101 0.0
C832 C 0.19541 0.53877 0.08389 0.0
C833 C 0.20613 0.50931 0.1028 0.0
C834 C 0.20782 0.50883 0.02974 0.0
C835 C 0.21782 0.4801 0.08407 0.0
C836 C 0.21995 0.47806 0.97296 0.0
C837 C 0.19669 0.53633 0.937 0.0
N838 N 0.2183 0.48059 0.04859 0.0
N839 N 0.19727 0.53586 0.97242 0.0
H840 H 0.09633 0.46017 0.18885 0.0
H841 H 0.92087 0.56655 0.22766 0.0
H842 H 0.09576 0.56586 0.2276 0.0
H843 H 0.92325 0.46159 0.18704 0.0
H844 H 0.98469 0.56669 0.2292 0.0
H845 H 0.03279 0.46011 0.18951 0.0
C846 C 0.08288 0.4834 0.19754 0.0
C847 C 0.10155 0.51312 0.20805 0.0
C848 C 0.97121 0.54364 0.21997 0.0
C849 C 0.02844 0.5132 0.20887 0.0
C850 C 0.93475 0.54353 0.21907 0.0
C851 C 0.91655 0.51405 0.20706 0.0
C852 C 0.98967 0.51406 0.20884 0.0
C853 C 0.93603 0.48497 0.19638 0.0
C854 C 0.04651 0.48333 0.19791 0.0
C855 C 0.08253 0.54237 0.21917 0.0
N856 N 0.97143 0.48575 0.1975 0.0
N857 N 0.04704 0.54169 0.21922 0.0
H858 H 0.92241 0.56449 0.81867 0.0
H859 H 0.09866 0.45453 0.81982 0.0
H860 H 0.92475 0.45288 0.80408 0.0
H861 H 0.09608 0.5661 0.80458 0.0
H862 H 0.03496 0.45331 0.818 0.0
H863 H 0.98607 0.56551 0.81744 0.0
C864 C 0.9363 0.54017 0.81521 0.0
C865 C 0.91818 0.50852 0.81161 0.0
C866 C 0.04835 0.47803 0.81494 0.0
C867 C 0.99115 0.50954 0.8103 0.0
C868 C 0.08472 0.47879 0.81612 0.0
C869 C 0.10278 0.5105 0.81249 0.0
C870 C 0.02982 0.50924 0.8105 0.0
C871 C 0.08329 0.54106 0.8075 0.0
C872 C 0.97266 0.54082 0.81438 0.0
C873 C 0.93761 0.47788 0.80695 0.0
N874 N 0.04787 0.53969 0.80688 0.0
N875 N 0.97306 0.47912 0.80666 0.0
H876 H 0.45504 0.09787 0.81841 0.0
H877 H 0.56581 0.92177 0.81991 0.0
H878 H 0.56689 0.0957 0.80561 0.0
H879 H 0.45436 0.92381 0.80418 0.0
H880 H 0.56663 0.9855 0.81863 0.0
H881 H 0.45418 0.03413 0.81717 0.0
C882 C 0.47944 0.08402 0.81536 0.0
C883 C 0.51111 0.10225 0.81222 0.0
C884 C 0.54201 0.972 0.81535 0.0
C885 C 0.51027 0.02916 0.81091 0.0
C886 C 0.54149 0.93559 0.81619 0.0
C887 C 0.50994 0.91733 0.81226 0.0
C888 C 0.51073 0.99042 0.81091 0.0
C889 C 0.47929 0.93672 0.80731 0.0
C890 C 0.47889 0.04761 0.81453 0.0
C891 C 0.54186 0.08282 0.80811 0.0
N892 N 0.48043 0.97219 0.80699 0.0
N893 N 0.54068 0.04736 0.80779 0.0
H894 H 0.56521 0.92283 0.20085 0.0
H895 H 0.45272 0.09758 0.19981 0.0
H896 H 0.45351 0.92375 0.21509 0.0
H897 H 0.56422 0.09665 0.21536 0.0
H898 H 0.45251 0.03386 0.20129 0.0
H899 H 0.56539 0.98655 0.20206 0.0
C900 C 0.5407 0.93641 0.20421 0.0
C901 C 0.50927 0.91788 0.20775 0.0
C902 C 0.47699 0.04761 0.20449 0.0
C903 C 0.50933 0.99087 0.20903 0.0
C904 C 0.47718 0.08399 0.20351 0.0
C905 C 0.50857 0.10253 0.20734 0.0
C906 C 0.50847 0.02954 0.20894 0.0
C907 C 0.53941 0.08349 0.21231 0.0
C908 C 0.54087 0.97279 0.20503 0.0
C909 C 0.47836 0.93692 0.21227 0.0
N910 N 0.53861 0.04803 0.21274 0.0
N911 N 0.47914 0.97237 0.21256 0.0
loop_
_geom_bond_atom_site_label_1
_geom_bond_atom_site_label_2
_geom_bond_distance
_geom_bond_site_symmetry_2
_ccdc_geom_bond_type
Fe0 O2 1.918 . S
Fe0 O5 1.997 . S
Fe0 O6 2.002 . S
Fe0 O11 1.976 . S
Fe0 O14 1.996 . S
Fe1 O2 1.918 . S
Fe1 O9 1.997 . S
Fe1 O12 1.996 . S
Fe1 O16 1.976 . S
Fe1 O19 2.002 . S
O2 Fe0 1.918 . S
O2 Fe1 1.918 . S
O2 Fe3 1.918 . S
Fe3 O2 1.918 . S
Fe3 O4 2.002 . S
Fe3 O13 1.976 . S
Fe3 O17 1.996 . S
Fe3 O20 1.997 . S
O4 Fe3 2.002 . S
O4 C21 1.295 . S
O5 Fe0 1.997 . S
O5 C21 1.235 . S
O6 Fe0 2.002 . S
O6 C7 1.295 . S
C7 O6 1.295 . S
C7 O9 1.235 . S
C8 O13 1.287 . S
C8 O14 1.255 . S
O9 Fe1 1.997 . S
O9 C7 1.235 . S
C10 O16 1.287 . S
C10 O17 1.255 . S
O11 Fe0 1.976 . S
O11 C18 1.287 . S
O12 Fe1 1.996 . S
O12 C18 1.255 . S
O13 Fe3 1.976 . S
O13 C8 1.287 . S
O14 Fe0 1.996 . S
O14 C8 1.255 . S
C15 O19 1.295 . S
C15 O20 1.235 . S
O16 Fe1 1.976 . S
O16 C10 1.287 . S
O17 Fe3 1.996 . S
O17 C10 1.255 . S
C18 O11 1.287 . S
C18 O12 1.255 . S
O19 Fe1 2.002 . S
O19 C15 1.295 . S
O20 Fe3 1.997 . S
O20 C15 1.235 . S
C21 O4 1.295 . S
C21 O5 1.235 . S
Fe22 O24 1.918 . S
Fe22 O27 1.997 . S
Fe22 O28 2.002 . S
Fe22 O33 1.976 . S
Fe22 O36 1.996 . S
Fe23 O24 1.918 . S
Fe23 O31 1.997 . S
Fe23 O34 1.996 . S
Fe23 O38 1.976 . S
Fe23 O41 2.002 . S
O24 Fe22 1.918 . S
O24 Fe23 1.918 . S
O24 Fe25 1.918 . S
Fe25 O24 1.918 . S
Fe25 O26 2.002 . S
Fe25 O35 1.976 . S
Fe25 O39 1.996 . S
Fe25 O42 1.997 . S
O26 Fe25 2.002 . S
O26 C43 1.295 . S
O27 Fe22 1.997 . S
O27 C43 1.235 . S
O28 Fe22 2.002 . S
O28 C29 1.295 . S
C29 O28 1.295 . S
C29 O31 1.235 . S
C30 O35 1.287 . S
C30 O36 1.255 . S
O31 Fe23 1.997 . S
O31 C29 1.235 . S
C32 O38 1.287 . S
C32 O39 1.255 . S
O33 Fe22 1.976 . S
O33 C40 1.287 . S
O34 Fe23 1.996 . S
O34 C40 1.255 . S
O35 Fe25 1.976 . S
O35 C30 1.287 . S
O36 Fe22 1.996 . S
O36 C30 1.255 . S
C37 O41 1.295 . S
C37 O42 1.235 . S
O38 Fe23 1.976 . S
O38 C32 1.287 . S
O39 Fe25 1.996 . S
O39 C32 1.255 . S
C40 O33 1.287 . S
C40 O34 1.255 . S
O41 Fe23 2.002 . S
O41 C37 1.295 . S
O42 Fe25 1.997 . S
O42 C37 1.235 . S
C43 O26 1.295 . S
C43 O27 1.235 . S
Fe44 O46 1.918 . S
Fe44 O49 1.997 . S
Fe44 O50 2.002 . S
Fe44 O55 1.976 . S
Fe44 O58 1.996 . S
Fe45 O46 1.918 . S
Fe45 O53 1.997 . S
Fe45 O56 1.996 . S
Fe45 O60 1.976 . S
Fe45 O63 2.002 . S
O46 Fe44 1.918 . S
O46 Fe45 1.918 . S
O46 Fe47 1.918 . S
Fe47 O46 1.918 . S
Fe47 O48 2.002 . S
Fe47 O57 1.976 . S
Fe47 O61 1.996 . S
Fe47 O64 1.997 . S
O48 Fe47 2.002 . S
O48 C65 1.295 . S
O49 Fe44 1.997 . S
O49 C65 1.235 . S
O50 Fe44 2.002 . S
O50 C51 1.295 . S
C51 O50 1.295 . S
C51 O53 1.235 . S
C52 O57 1.287 . S
C52 O58 1.255 . S
O53 Fe45 1.997 . S
O53 C51 1.235 . S
C54 O60 1.287 . S
C54 O61 1.255 . S
O55 Fe44 1.976 . S
O55 C62 1.287 . S
O56 Fe45 1.996 . S
O56 C62 1.255 . S
O57 Fe47 1.976 . S
O57 C52 1.287 . S
O58 Fe44 1.996 . S
O58 C52 1.255 . S
C59 O63 1.295 . S
C59 O64 1.235 . S
O60 Fe45 1.976 . S
O60 C54 1.287 . S
O61 Fe47 1.996 . S
O61 C54 1.255 . S
C62 O55 1.287 . S
C62 O56 1.255 . S
O63 Fe45 2.002 . S
O63 C59 1.295 . S
O64 Fe47 1.997 . S
O64 C59 1.235 . S
C65 O48 1.295 . S
C65 O49 1.235 . S
Fe66 O68 1.918 . S
Fe66 O71 1.997 . S
Fe66 O72 2.002 . S
Fe66 O77 1.976 . S
Fe66 O80 1.996 . S
Fe67 O68 1.918 . S
Fe67 O75 1.997 . S
Fe67 O78 1.996 . S
Fe67 O82 1.976 . S
Fe67 O85 2.002 . S
O68 Fe66 1.918 . S
O68 Fe67 1.918 . S
O68 Fe69 1.918 . S
Fe69 O68 1.918 . S
Fe69 O70 2.002 . S
Fe69 O79 1.976 . S
Fe69 O83 1.996 . S
Fe69 O86 1.997 . S
O70 Fe69 2.002 . S
O70 C87 1.295 . S
O71 Fe66 1.997 . S
O71 C87 1.235 . S
O72 Fe66 2.002 . S
O72 C73 1.295 . S
C73 O72 1.295 . S
C73 O75 1.235 . S
C74 O79 1.287 . S
C74 O80 1.255 . S
O75 Fe67 1.997 . S
O75 C73 1.235 . S
C76 O82 1.287 . S
C76 O83 1.255 . S
O77 Fe66 1.976 . S
O77 C84 1.287 . S
O78 Fe67 1.996 . S
O78 C84 1.255 . S
O79 Fe69 1.976 . S
O79 C74 1.287 . S
O80 Fe66 1.996 . S
O80 C74 1.255 . S
C81 O85 1.295 . S
C81 O86 1.235 . S
O82 Fe67 1.976 . S
O82 C76 1.287 . S
O83 Fe69 1.996 . S
O83 C76 1.255 . S
C84 O77 1.287 . S
C84 O78 1.255 . S
O85 Fe67 2.002 . S
O85 C81 1.295 . S
O86 Fe69 1.997 . S
O86 C81 1.235 . S
C87 O70 1.295 . S
C87 O71 1.235 . S
Fe88 O90 1.918 . S
Fe88 O93 1.997 . S
Fe88 O94 2.002 . S
Fe88 O99 1.976 . S
Fe88 O102 1.996 . S
Fe89 O90 1.918 . S
Fe89 O97 1.997 . S
Fe89 O100 1.996 . S
Fe89 O104 1.976 . S
Fe89 O107 2.002 . S
O90 Fe88 1.918 . S
O90 Fe89 1.918 . S
O90 Fe91 1.918 . S
Fe91 O90 1.918 . S
Fe91 O92 2.002 . S
Fe91 O101 1.976 . S
Fe91 O105 1.996 . S
Fe91 O108 1.997 . S
O92 Fe91 2.002 . S
O92 C109 1.295 . S
O93 Fe88 1.997 . S
O93 C109 1.235 . S
O94 Fe88 2.002 . S
O94 C95 1.295 . S
C95 O94 1.295 . S
C95 O97 1.235 . S
C96 O101 1.287 . S
C96 O102 1.255 . S
O97 Fe89 1.997 . S
O97 C95 1.235 . S
C98 O104 1.287 . S
C98 O105 1.255 . S
O99 Fe88 1.976 . S
O99 C106 1.287 . S
O100 Fe89 1.996 . S
O100 C106 1.255 . S
O101 Fe91 1.976 . S
O101 C96 1.287 . S
O102 Fe88 1.996 . S
O102 C96 1.255 . S
C103 O107 1.295 . S
C103 O108 1.235 . S
O104 Fe89 1.976 . S
O104 C98 1.287 . S
O105 Fe91 1.996 . S
O105 C98 1.255 . S
C106 O99 1.287 . S
C106 O100 1.255 . S
O107 Fe89 2.002 . S
O107 C103 1.295 . S
O108 Fe91 1.997 . S
O108 C103 1.235 . S
C109 O92 1.295 . S
C109 O93 1.235 . S
Fe110 O112 1.918 . S
Fe110 O115 1.997 . S
Fe110 O116 2.002 . S
Fe110 O121 1.976 . S
Fe110 O124 1.996 . S
Fe111 O112 1.918 . S
Fe111 O119 1.997 . S
Fe111 O122 1.996 . S
Fe111 O126 1.976 . S
Fe111 O129 2.002 . S
O112 Fe110 1.918 . S
O112 Fe111 1.918 . S
O112 Fe113 1.918 . S
Fe113 O112 1.918 . S
Fe113 O114 2.002 . S
Fe113 O123 1.976 . S
Fe113 O127 1.996 . S
Fe113 O130 1.997 . S
O114 Fe113 2.002 . S
O114 C131 1.295 . S
O115 Fe110 1.997 . S
O115 C131 1.235 . S
O116 Fe110 2.002 . S
O116 C117 1.295 . S
C117 O116 1.295 . S
C117 O119 1.235 . S
C118 O123 1.287 . S
C118 O124 1.255 . S
O119 Fe111 1.997 . S
O119 C117 1.235 . S
C120 O126 1.287 . S
C120 O127 1.255 . S
O121 Fe110 1.976 . S
O121 C128 1.287 . S
O122 Fe111 1.996 . S
O122 C128 1.255 . S
O123 Fe113 1.976 . S
O123 C118 1.287 . S
O124 Fe110 1.996 . S
O124 C118 1.255 . S
C125 O129 1.295 . S
C125 O130 1.235 . S
O126 Fe111 1.976 . S
O126 C120 1.287 . S
O127 Fe113 1.996 . S
O127 C120 1.255 . S
C128 O121 1.287 . S
C128 O122 1.255 . S
O129 Fe111 2.002 . S
O129 C125 1.295 . S
O130 Fe113 1.997 . S
O130 C125 1.235 . S
C131 O114 1.295 . S
C131 O115 1.235 . S
Fe132 O134 1.918 . S
Fe132 O137 1.997 . S
Fe132 O138 2.002 . S
Fe132 O143 1.976 . S
Fe132 O146 1.996 . S
Fe133 O134 1.918 . S
Fe133 O141 1.997 . S
Fe133 O144 1.996 . S
Fe133 O148 1.976 . S
Fe133 O151 2.002 . S
O134 Fe132 1.918 . S
O134 Fe133 1.918 . S
O134 Fe135 1.918 . S
Fe135 O134 1.918 . S
Fe135 O136 2.002 . S
Fe135 O145 1.976 . S
Fe135 O149 1.996 . S
Fe135 O152 1.997 . S
O136 Fe135 2.002 . S
O136 C153 1.295 . S
O137 Fe132 1.997 . S
O137 C153 1.235 . S
O138 Fe132 2.002 . S
O138 C139 1.295 . S
C139 O138 1.295 . S
C139 O141 1.235 . S
C140 O145 1.287 . S
C140 O146 1.255 . S
O141 Fe133 1.997 . S
O141 C139 1.235 . S
C142 O148 1.287 . S
C142 O149 1.255 . S
O143 Fe132 1.976 . S
O143 C150 1.287 . S
O144 Fe133 1.996 . S
O144 C150 1.255 . S
O145 Fe135 1.976 . S
O145 C140 1.287 . S
O146 Fe132 1.996 . S
O146 C140 1.255 . S
C147 O151 1.295 . S
C147 O152 1.235 . S
O148 Fe133 1.976 . S
O148 C142 1.287 . S
O149 Fe135 1.996 . S
O149 C142 1.255 . S
C150 O143 1.287 . S
C150 O144 1.255 . S
O151 Fe133 2.002 . S
O151 C147 1.295 . S
O152 Fe135 1.997 . S
O152 C147 1.235 . S
C153 O136 1.295 . S
C153 O137 1.235 . S
Fe154 O156 1.918 . S
Fe154 O159 1.997 . S
Fe154 O160 2.002 . S
Fe154 O165 1.976 . S
Fe154 O168 1.996 . S
Fe155 O156 1.918 . S
Fe155 O163 1.997 . S
Fe155 O166 1.996 . S
Fe155 O170 1.976 . S
Fe155 O173 2.002 . S
O156 Fe154 1.918 . S
O156 Fe155 1.918 . S
O156 Fe157 1.918 . S
Fe157 O156 1.918 . S
Fe157 O158 2.002 . S
Fe157 O167 1.976 . S
Fe157 O171 1.996 . S
Fe157 O174 1.997 . S
O158 Fe157 2.002 . S
O158 C175 1.295 . S
O159 Fe154 1.997 . S
O159 C175 1.235 . S
O160 Fe154 2.002 . S
O160 C161 1.295 . S
C161 O160 1.295 . S
C161 O163 1.235 . S
C162 O167 1.287 . S
C162 O168 1.255 . S
O163 Fe155 1.997 . S
O163 C161 1.235 . S
C164 O170 1.287 . S
C164 O171 1.255 . S
O165 Fe154 1.976 . S
O165 C172 1.287 . S
O166 Fe155 1.996 . S
O166 C172 1.255 . S
O167 Fe157 1.976 . S
O167 C162 1.287 . S
O168 Fe154 1.996 . S
O168 C162 1.255 . S
C169 O173 1.295 . S
C169 O174 1.235 . S
O170 Fe155 1.976 . S
O170 C164 1.287 . S
O171 Fe157 1.996 . S
O171 C164 1.255 . S
C172 O165 1.287 . S
C172 O166 1.255 . S
O173 Fe155 2.002 . S
O173 C169 1.295 . S
O174 Fe157 1.997 . S
O174 C169 1.235 . S
C175 O158 1.295 . S
C175 O159 1.235 . S
Fe176 O178 1.918 . S
Fe176 O181 1.997 . S
Fe176 O182 2.002 . S
Fe176 O187 1.976 . S
Fe176 O190 1.996 . S
Fe177 O178 1.918 . S
Fe177 O185 1.997 . S
Fe177 O188 1.996 . S
Fe177 O192 1.976 . S
Fe177 O195 2.002 . S
O178 Fe176 1.918 . S
O178 Fe177 1.918 . S
O178 Fe179 1.918 . S
Fe179 O178 1.918 . S
Fe179 O180 2.002 . S
Fe179 O189 1.976 . S
Fe179 O193 1.996 . S
Fe179 O196 1.997 . S
O180 Fe179 2.002 . S
O180 C197 1.295 . S
O181 Fe176 1.997 . S
O181 C197 1.235 . S
O182 Fe176 2.002 . S
O182 C183 1.295 . S
C183 O182 1.295 . S
C183 O185 1.235 . S
C184 O189 1.287 . S
C184 O190 1.255 . S
O185 Fe177 1.997 . S
O185 C183 1.235 . S
C186 O192 1.287 . S
C186 O193 1.255 . S
O187 Fe176 1.976 . S
O187 C194 1.287 . S
O188 Fe177 1.996 . S
O188 C194 1.255 . S
O189 Fe179 1.976 . S
O189 C184 1.287 . S
O190 Fe176 1.996 . S
O190 C184 1.255 . S
C191 O195 1.295 . S
C191 O196 1.235 . S
O192 Fe177 1.976 . S
O192 C186 1.287 . S
O193 Fe179 1.996 . S
O193 C186 1.255 . S
C194 O187 1.287 . S
C194 O188 1.255 . S
O195 Fe177 2.002 . S
O195 C191 1.295 . S
O196 Fe179 1.997 . S
O196 C191 1.235 . S
C197 O180 1.295 . S
C197 O181 1.235 . S
Fe198 O200 1.918 . S
Fe198 O203 1.997 . S
Fe198 O204 2.002 . S
Fe198 O209 1.976 . S
Fe198 O212 1.996 . S
Fe199 O200 1.918 . S
Fe199 O207 1.997 . S
Fe199 O210 1.996 . S
Fe199 O214 1.976 . S
Fe199 O217 2.002 . S
O200 Fe198 1.918 . S
O200 Fe199 1.918 . S
O200 Fe201 1.918 . S
Fe201 O200 1.918 . S
Fe201 O202 2.002 . S
Fe201 O211 1.976 . S
Fe201 O215 1.996 . S
Fe201 O218 1.997 . S
O202 Fe201 2.002 . S
O202 C219 1.295 . S
O203 Fe198 1.997 . S
O203 C219 1.235 . S
O204 Fe198 2.002 . S
O204 C205 1.295 . S
C205 O204 1.295 . S
C205 O207 1.235 . S
C206 O211 1.287 . S
C206 O212 1.255 . S
O207 Fe199 1.997 . S
O207 C205 1.235 . S
C208 O214 1.287 . S
C208 O215 1.255 . S
O209 Fe198 1.976 . S
O209 C216 1.287 . S
O210 Fe199 1.996 . S
O210 C216 1.255 . S
O211 Fe201 1.976 . S
O211 C206 1.287 . S
O212 Fe198 1.996 . S
O212 C206 1.255 . S
C213 O217 1.295 . S
C213 O218 1.235 . S
O214 Fe199 1.976 . S
O214 C208 1.287 . S
O215 Fe201 1.996 . S
O215 C208 1.255 . S
C216 O209 1.287 . S
C216 O210 1.255 . S
O217 Fe199 2.002 . S
O217 C213 1.295 . S
O218 Fe201 1.997 . S
O218 C213 1.235 . S
C219 O202 1.295 . S
C219 O203 1.235 . S
Fe220 O222 1.918 . S
Fe220 O225 1.997 . S
Fe220 O226 2.002 . S
Fe220 O231 1.976 . S
Fe220 O234 1.996 . S
Fe221 O222 1.918 . S
Fe221 O229 1.997 . S
Fe221 O232 1.996 . S
Fe221 O236 1.976 . S
Fe221 O239 2.002 . S
O222 Fe220 1.918 . S
O222 Fe221 1.918 . S
O222 Fe223 1.918 . S
Fe223 O222 1.918 . S
Fe223 O224 2.002 . S
Fe223 O233 1.976 . S
Fe223 O237 1.996 . S
Fe223 O240 1.997 . S
O224 Fe223 2.002 . S
O224 C241 1.295 . S
O225 Fe220 1.997 . S
O225 C241 1.235 . S
O226 Fe220 2.002 . S
O226 C227 1.295 . S
C227 O226 1.295 . S
C227 O229 1.235 . S
C228 O233 1.287 . S
C228 O234 1.255 . S
O229 Fe221 1.997 . S
O229 C227 1.235 . S
C230 O236 1.287 . S
C230 O237 1.255 . S
O231 Fe220 1.976 . S
O231 C238 1.287 . S
O232 Fe221 1.996 . S
O232 C238 1.255 . S
O233 Fe223 1.976 . S
O233 C228 1.287 . S
O234 Fe220 1.996 . S
O234 C228 1.255 . S
C235 O239 1.295 . S
C235 O240 1.235 . S
O236 Fe221 1.976 . S
O236 C230 1.287 . S
O237 Fe223 1.996 . S
O237 C230 1.255 . S
C238 O231 1.287 . S
C238 O232 1.255 . S
O239 Fe221 2.002 . S
O239 C235 1.295 . S
O240 Fe223 1.997 . S
O240 C235 1.235 . S
C241 O224 1.295 . S
C241 O225 1.235 . S
Fe242 O244 1.918 . S
Fe242 O247 1.997 . S
Fe242 O248 2.002 . S
Fe242 O253 1.976 . S
Fe242 O256 1.996 . S
Fe243 O244 1.918 . S
Fe243 O251 1.997 . S
Fe243 O254 1.996 . S
Fe243 O258 1.976 . S
Fe243 O261 2.002 . S
O244 Fe242 1.918 . S
O244 Fe243 1.918 . S
O244 Fe245 1.918 . S
Fe245 O244 1.918 . S
Fe245 O246 2.002 . S
Fe245 O255 1.976 . S
Fe245 O259 1.996 . S
Fe245 O262 1.997 . S
O246 Fe245 2.002 . S
O246 C263 1.295 . S
O247 Fe242 1.997 . S
O247 C263 1.235 . S
O248 Fe242 2.002 . S
O248 C249 1.295 . S
C249 O248 1.295 . S
C249 O251 1.235 . S
C250 O255 1.287 . S
C250 O256 1.255 . S
O251 Fe243 1.997 . S
O251 C249 1.235 . S
C252 O258 1.287 . S
C252 O259 1.255 . S
O253 Fe242 1.976 . S
O253 C260 1.287 . S
O254 Fe243 1.996 . S
O254 C260 1.255 . S
O255 Fe245 1.976 . S
O255 C250 1.287 . S
O256 Fe242 1.996 . S
O256 C250 1.255 . S
C257 O261 1.295 . S
C257 O262 1.235 . S
O258 Fe243 1.976 . S
O258 C252 1.287 . S
O259 Fe245 1.996 . S
O259 C252 1.255 . S
C260 O253 1.287 . S
C260 O254 1.255 . S
O261 Fe243 2.002 . S
O261 C257 1.295 . S
O262 Fe245 1.997 . S
O262 C257 1.235 . S
C263 O246 1.295 . S
C263 O247 1.235 . S
H264 C270 0.930 . S
H265 C274 0.930 . S
H266 C279 0.929 . S
H267 C277 0.929 . S
H268 C272 0.929 . S
H269 C278 0.929 . S
C270 H264 0.930 . S
C270 C271 1.367 . S
C270 C278 1.378 . S
C271 C270 1.367 . S
C271 C279 1.433 . S
C272 H268 0.929 . S
C272 C274 1.378 . S
C272 C276 1.350 . S
C273 C276 1.463 . S
C273 C278 1.350 . S
C273 N281 1.427 . S
C274 H265 0.930 . S
C274 C272 1.378 . S
C274 C275 1.367 . S
C275 C274 1.367 . S
C275 C277 1.433 . S
C276 C272 1.350 . S
C276 C273 1.463 . S
C276 N280 1.427 . S
C277 H267 0.929 . S
C277 C275 1.433 . S
C277 N280 1.384 . S
C278 H269 0.929 . S
C278 C270 1.378 . S
C278 C273 1.350 . S
C279 H266 0.929 . S
C279 C271 1.433 . S
C279 N281 1.384 . S
N280 C276 1.427 . S
N280 C277 1.384 . S
N281 C273 1.427 . S
N281 C279 1.384 . S
H282 C288 0.930 . S
H283 C292 0.930 . S
H284 C297 0.929 . S
H285 C295 0.929 . S
H286 C290 0.929 . S
H287 C296 0.929 . S
C288 H282 0.930 . S
C288 C289 1.367 . S
C288 C296 1.378 . S
C289 C288 1.367 . S
C289 C297 1.433 . S
C290 H286 0.929 . S
C290 C292 1.378 . S
C290 C294 1.350 . S
C291 C294 1.463 . S
C291 C296 1.350 . S
C291 N299 1.427 . S
C292 H283 0.930 . S
C292 C290 1.378 . S
C292 C293 1.367 . S
C293 C292 1.367 . S
C293 C295 1.433 . S
C294 C290 1.350 . S
C294 C291 1.463 . S
C294 N298 1.427 . S
C295 H285 0.929 . S
C295 C293 1.433 . S
C295 N298 1.384 . S
C296 H287 0.929 . S
C296 C288 1.378 . S
C296 C291 1.350 . S
C297 H284 0.929 . S
C297 C289 1.433 . S
C297 N299 1.384 . S
N298 C294 1.427 . S
N298 C295 1.384 . S
N299 C291 1.427 . S
N299 C297 1.384 . S
H300 C306 0.930 . S
H301 C310 0.930 . S
H302 C315 0.929 . S
H303 C313 0.929 . S
H304 C308 0.929 . S
H305 C314 0.929 . S
C306 H300 0.930 . S
C306 C307 1.367 . S
C306 C314 1.378 . S
C307 C306 1.367 . S
C307 C315 1.433 . S
C308 H304 0.929 . S
C308 C310 1.378 . S
C308 C312 1.350 . S
C309 C312 1.463 . S
C309 C314 1.350 . S
C309 N317 1.427 . S
C310 H301 0.930 . S
C310 C308 1.378 . S
C310 C311 1.367 . S
C311 C310 1.367 . S
C311 C313 1.433 . S
C312 C308 1.350 . S
C312 C309 1.463 . S
C312 N316 1.427 . S
C313 H303 0.929 . S
C313 C311 1.433 . S
C313 N316 1.384 . S
C314 H305 0.929 . S
C314 C306 1.378 . S
C314 C309 1.350 . S
C315 H302 0.929 . S
C315 C307 1.433 . S
C315 N317 1.384 . S
N316 C312 1.427 . S
N316 C313 1.384 . S
N317 C309 1.427 . S
N317 C315 1.384 . S
H318 C324 0.930 . S
H319 C328 0.930 . S
H320 C333 0.929 . S
H321 C331 0.929 . S
H322 C326 0.929 . S
H323 C332 0.929 . S
C324 H318 0.930 . S
C324 C325 1.367 . S
C324 C332 1.378 . S
C325 C324 1.367 . S
C325 C333 1.433 . S
C326 H322 0.929 . S
C326 C328 1.378 . S
C326 C330 1.350 . S
C327 C330 1.463 . S
C327 C332 1.350 . S
C327 N335 1.427 . S
C328 H319 0.930 . S
C328 C326 1.378 . S
C328 C329 1.367 . S
C329 C328 1.367 . S
C329 C331 1.433 . S
C330 C326 1.350 . S
C330 C327 1.463 . S
C330 N334 1.427 . S
C331 H321 0.929 . S
C331 C329 1.433 . S
C331 N334 1.384 . S
C332 H323 0.929 . S
C332 C324 1.378 . S
C332 C327 1.350 . S
C333 H320 0.929 . S
C333 C325 1.433 . S
C333 N335 1.384 . S
N334 C330 1.427 . S
N334 C331 1.384 . S
N335 C327 1.427 . S
N335 C333 1.384 . S
H336 C342 0.930 . S
H337 C346 0.930 . S
H338 C351 0.929 . S
H339 C349 0.929 . S
H340 C344 0.929 . S
H341 C350 0.929 . S
C342 H336 0.930 . S
C342 C343 1.367 . S
C342 C350 1.378 . S
C343 C342 1.367 . S
C343 C351 1.433 . S
C344 H340 0.929 . S
C344 C346 1.378 . S
C344 C348 1.350 . S
C345 C348 1.463 . S
C345 C350 1.350 . S
C345 N353 1.427 . S
C346 H337 0.930 . S
C346 C344 1.378 . S
C346 C347 1.367 . S
C347 C346 1.367 . S
C347 C349 1.433 . S
C348 C344 1.350 . S
C348 C345 1.463 . S
C348 N352 1.427 . S
C349 H339 0.929 . S
C349 C347 1.433 . S
C349 N352 1.384 . S
C350 H341 0.929 . S
C350 C342 1.378 . S
C350 C345 1.350 . S
C351 H338 0.929 . S
C351 C343 1.433 . S
C351 N353 1.384 . S
N352 C348 1.427 . S
N352 C349 1.384 . S
N353 C345 1.427 . S
N353 C351 1.384 . S
H354 C360 0.930 . S
H355 C364 0.930 . S
H356 C369 0.929 . S
H357 C367 0.929 . S
H358 C362 0.929 . S
H359 C368 0.929 . S
C360 H354 0.930 . S
C360 C361 1.367 . S
C360 C368 1.378 . S
C361 C360 1.367 . S
C361 C369 1.433 . S
C362 H358 0.929 . S
C362 C364 1.378 . S
C362 C366 1.350 . S
C363 C366 1.463 . S
C363 C368 1.350 . S
C363 N371 1.427 . S
C364 H355 0.930 . S
C364 C362 1.378 . S
C364 C365 1.367 . S
C365 C364 1.367 . S
C365 C367 1.433 . S
C366 C362 1.350 . S
C366 C363 1.463 . S
C366 N370 1.427 . S
C367 H357 0.929 . S
C367 C365 1.433 . S
C367 N370 1.384 . S
C368 H359 0.929 . S
C368 C360 1.378 . S
C368 C363 1.350 . S
C369 H356 0.929 . S
C369 C361 1.433 . S
C369 N371 1.384 . S
N370 C366 1.427 . S
N370 C367 1.384 . S
N371 C363 1.427 . S
N371 C369 1.384 . S
H372 C378 0.930 . S
H373 C382 0.930 . S
H374 C387 0.929 . S
H375 C385 0.929 . S
H376 C380 0.929 . S
H377 C386 0.929 . S
C378 H372 0.930 . S
C378 C379 1.367 . S
C378 C386 1.378 . S
C379 C378 1.367 . S
C379 C387 1.433 . S
C380 H376 0.929 . S
C380 C382 1.378 . S
C380 C384 1.350 . S
C381 C384 1.463 . S
C381 C386 1.350 . S
C381 N389 1.427 . S
C382 H373 0.930 . S
C382 C380 1.378 . S
C382 C383 1.367 . S
C383 C382 1.367 . S
C383 C385 1.433 . S
C384 C380 1.350 . S
C384 C381 1.463 . S
C384 N388 1.427 . S
C385 H375 0.929 . S
C385 C383 1.433 . S
C385 N388 1.384 . S
C386 H377 0.929 . S
C386 C378 1.378 . S
C386 C381 1.350 . S
C387 H374 0.929 . S
C387 C379 1.433 . S
C387 N389 1.384 . S
N388 C384 1.427 . S
N388 C385 1.384 . S
N389 C381 1.427 . S
N389 C387 1.384 . S
H390 C396 0.930 . S
H391 C400 0.930 . S
H392 C405 0.929 . S
H393 C403 0.929 . S
H394 C398 0.929 . S
H395 C404 0.929 . S
C396 H390 0.930 . S
C396 C397 1.367 . S
C396 C404 1.378 . S
C397 C396 1.367 . S
C397 C405 1.433 . S
C398 H394 0.929 . S
C398 C400 1.378 . S
C398 C402 1.350 . S
C399 C402 1.463 . S
C399 C404 1.350 . S
C399 N407 1.427 . S
C400 H391 0.930 . S
C400 C398 1.378 . S
C400 C401 1.367 . S
C401 C400 1.367 . S
C401 C403 1.433 . S
C402 C398 1.350 . S
C402 C399 1.463 . S
C402 N406 1.427 . S
C403 H393 0.929 . S
C403 C401 1.433 . S
C403 N406 1.384 . S
C404 H395 0.929 . S
C404 C396 1.378 . S
C404 C399 1.350 . S
C405 H392 0.929 . S
C405 C397 1.433 . S
C405 N407 1.384 . S
N406 C402 1.427 . S
N406 C403 1.384 . S
N407 C399 1.427 . S
N407 C405 1.384 . S
H408 C414 0.930 . S
H409 C418 0.930 . S
H410 C423 0.929 . S
H411 C421 0.929 . S
H412 C416 0.929 . S
H413 C422 0.929 . S
C414 H408 0.930 . S
C414 C415 1.367 . S
C414 C422 1.378 . S
C415 C414 1.367 . S
C415 C423 1.433 . S
C416 H412 0.929 . S
C416 C418 1.378 . S
C416 C420 1.350 . S
C417 C420 1.463 . S
C417 C422 1.350 . S
C417 N425 1.427 . S
C418 H409 0.930 . S
C418 C416 1.378 . S
C418 C419 1.367 . S
C419 C418 1.367 . S
C419 C421 1.433 . S
C420 C416 1.350 . S
C420 C417 1.463 . S
C420 N424 1.427 . S
C421 H411 0.929 . S
C421 C419 1.433 . S
C421 N424 1.384 . S
C422 H413 0.929 . S
C422 C414 1.378 . S
C422 C417 1.350 . S
C423 H410 0.929 . S
C423 C415 1.433 . S
C423 N425 1.384 . S
N424 C420 1.427 . S
N424 C421 1.384 . S
N425 C417 1.427 . S
N425 C423 1.384 . S
H426 C432 0.930 . S
H427 C436 0.930 . S
H428 C441 0.929 . S
H429 C439 0.929 . S
H430 C434 0.929 . S
H431 C440 0.929 . S
C432 H426 0.930 . S
C432 C433 1.367 . S
C432 C440 1.378 . S
C433 C432 1.367 . S
C433 C441 1.433 . S
C434 H430 0.929 . S
C434 C436 1.378 . S
C434 C438 1.350 . S
C435 C438 1.463 . S
C435 C440 1.350 . S
C435 N443 1.427 . S
C436 H427 0.930 . S
C436 C434 1.378 . S
C436 C437 1.367 . S
C437 C436 1.367 . S
C437 C439 1.433 . S
C438 C434 1.350 . S
C438 C435 1.463 . S
C438 N442 1.427 . S
C439 H429 0.929 . S
C439 C437 1.433 . S
C439 N442 1.384 . S
C440 H431 0.929 . S
C440 C432 1.378 . S
C440 C435 1.350 . S
C441 H428 0.929 . S
C441 C433 1.433 . S
C441 N443 1.384 . S
N442 C438 1.427 . S
N442 C439 1.384 . S
N443 C435 1.427 . S
N443 C441 1.384 . S
H444 C450 0.930 . S
H445 C454 0.930 . S
H446 C459 0.929 . S
H447 C457 0.929 . S
H448 C452 0.929 . S
H449 C458 0.929 . S
C450 H444 0.930 . S
C450 C451 1.367 . S
C450 C458 1.378 . S
C451 C450 1.367 . S
C451 C459 1.433 . S
C452 H448 0.929 . S
C452 C454 1.378 . S
C452 C456 1.350 . S
C453 C456 1.463 . S
C453 C458 1.350 . S
C453 N461 1.427 . S
C454 H445 0.930 . S
C454 C452 1.378 . S
C454 C455 1.367 . S
C455 C454 1.367 . S
C455 C457 1.433 . S
C456 C452 1.350 . S
C456 C453 1.463 . S
C456 N460 1.427 . S
C457 H447 0.929 . S
C457 C455 1.433 . S
C457 N460 1.384 . S
C458 H449 0.929 . S
C458 C450 1.378 . S
C458 C453 1.350 . S
C459 H446 0.929 . S
C459 C451 1.433 . S
C459 N461 1.384 . S
N460 C456 1.427 . S
N460 C457 1.384 . S
N461 C453 1.427 . S
N461 C459 1.384 . S
H462 C468 0.930 . S
H463 C472 0.930 . S
H464 C477 0.929 . S
H465 C475 0.929 . S
H466 C470 0.929 . S
H467 C476 0.929 . S
C468 H462 0.930 . S
C468 C469 1.367 . S
C468 C476 1.378 . S
C469 C468 1.367 . S
C469 C477 1.433 . S
C470 H466 0.929 . S
C470 C472 1.378 . S
C470 C474 1.350 . S
C471 C474 1.463 . S
C471 C476 1.350 . S
C471 N479 1.427 . S
C472 H463 0.930 . S
C472 C470 1.378 . S
C472 C473 1.367 . S
C473 C472 1.367 . S
C473 C475 1.433 . S
C474 C470 1.350 . S
C474 C471 1.463 . S
C474 N478 1.427 . S
C475 H465 0.929 . S
C475 C473 1.433 . S
C475 N478 1.384 . S
C476 H467 0.929 . S
C476 C468 1.378 . S
C476 C471 1.350 . S
C477 H464 0.929 . S
C477 C469 1.433 . S
C477 N479 1.384 . S
N478 C474 1.427 . S
N478 C475 1.384 . S
N479 C471 1.427 . S
N479 C477 1.384 . S
H480 C486 0.930 . S
H481 C490 0.930 . S
H482 C495 0.929 . S
H483 C493 0.929 . S
H484 C488 0.929 . S
H485 C494 0.929 . S
C486 H480 0.930 . S
C486 C487 1.367 . S
C486 C494 1.378 . S
C487 C486 1.367 . S
C487 C495 1.433 . S
C488 H484 0.929 . S
C488 C490 1.378 . S
C488 C492 1.350 . S
C489 C492 1.463 . S
C489 C494 1.350 . S
C489 N497 1.427 . S
C490 H481 0.930 . S
C490 C488 1.378 . S
C490 C491 1.367 . S
C491 C490 1.367 . S
C491 C493 1.433 . S
C492 C488 1.350 . S
C492 C489 1.463 . S
C492 N496 1.427 . S
C493 H483 0.929 . S
C493 C491 1.433 . S
C493 N496 1.384 . S
C494 H485 0.929 . S
C494 C486 1.378 . S
C494 C489 1.350 . S
C495 H482 0.929 . S
C495 C487 1.433 . S
C495 N497 1.384 . S
N496 C492 1.427 . S
N496 C493 1.384 . S
N497 C489 1.427 . S
N497 C495 1.384 . S
H498 C504 0.930 . S
H499 C508 0.930 . S
H500 C513 0.929 . S
H501 C511 0.929 . S
H502 C506 0.929 . S
H503 C512 0.929 . S
C504 H498 0.930 . S
C504 C505 1.367 . S
C504 C512 1.378 . S
C505 C504 1.367 . S
C505 C513 1.433 . S
C506 H502 0.929 . S
C506 C508 1.378 . S
C506 C510 1.350 . S
C507 C510 1.463 . S
C507 C512 1.350 . S
C507 N515 1.427 . S
C508 H499 0.930 . S
C508 C506 1.378 . S
C508 C509 1.367 . S
C509 C508 1.367 . S
C509 C511 1.433 . S
C510 C506 1.350 . S
C510 C507 1.463 . S
C510 N514 1.427 . S
C511 H501 0.929 . S
C511 C509 1.433 . S
C511 N514 1.384 . S
C512 H503 0.929 . S
C512 C504 1.378 . S
C512 C507 1.350 . S
C513 H500 0.929 . S
C513 C505 1.433 . S
C513 N515 1.384 . S
N514 C510 1.427 . S
N514 C511 1.384 . S
N515 C507 1.427 . S
N515 C513 1.384 . S
H516 C522 0.930 . S
H517 C526 0.930 . S
H518 C531 0.929 . S
H519 C529 0.929 . S
H520 C524 0.929 . S
H521 C530 0.929 . S
C522 H516 0.930 . S
C522 C523 1.367 . S
C522 C530 1.378 . S
C523 C522 1.367 . S
C523 C531 1.433 . S
C524 H520 0.929 . S
C524 C526 1.378 . S
C524 C528 1.350 . S
C525 C528 1.463 . S
C525 C530 1.350 . S
C525 N533 1.427 . S
C526 H517 0.930 . S
C526 C524 1.378 . S
C526 C527 1.367 . S
C527 C526 1.367 . S
C527 C529 1.433 . S
C528 C524 1.350 . S
C528 C525 1.463 . S
C528 N532 1.427 . S
C529 H519 0.929 . S
C529 C527 1.433 . S
C529 N532 1.384 . S
C530 H521 0.929 . S
C530 C522 1.378 . S
C530 C525 1.350 . S
C531 H518 0.929 . S
C531 C523 1.433 . S
C531 N533 1.384 . S
N532 C528 1.427 . S
N532 C529 1.384 . S
N533 C525 1.427 . S
N533 C531 1.384 . S
H534 C540 0.930 . S
H535 C544 0.930 . S
H536 C549 0.929 . S
H537 C547 0.929 . S
H538 C542 0.929 . S
H539 C548 0.929 . S
C540 H534 0.930 . S
C540 C541 1.367 . S
C540 C548 1.378 . S
C541 C540 1.367 . S
C541 C549 1.433 . S
C542 H538 0.929 . S
C542 C544 1.378 . S
C542 C546 1.350 . S
C543 C546 1.463 . S
C543 C548 1.350 . S
C543 N551 1.427 . S
C544 H535 0.930 . S
C544 C542 1.378 . S
C544 C545 1.367 . S
C545 C544 1.367 . S
C545 C547 1.433 . S
C546 C542 1.350 . S
C546 C543 1.463 . S
C546 N550 1.427 . S
C547 H537 0.929 . S
C547 C545 1.433 . S
C547 N550 1.384 . S
C548 H539 0.929 . S
C548 C540 1.378 . S
C548 C543 1.350 . S
C549 H536 0.929 . S
C549 C541 1.433 . S
C549 N551 1.384 . S
N550 C546 1.427 . S
N550 C547 1.384 . S
N551 C543 1.427 . S
N551 C549 1.384 . S
H552 C558 0.930 . S
H553 C562 0.930 . S
H554 C567 0.929 . S
H555 C565 0.929 . S
H556 C560 0.929 . S
H557 C566 0.929 . S
C558 H552 0.930 . S
C558 C559 1.367 . S
C558 C566 1.378 . S
C559 C558 1.367 . S
C559 C567 1.433 . S
C560 H556 0.929 . S
C560 C562 1.378 . S
C560 C564 1.350 . S
C561 C564 1.463 . S
C561 C566 1.350 . S
C561 N569 1.427 . S
C562 H553 0.930 . S
C562 C560 1.378 . S
C562 C563 1.367 . S
C563 C562 1.367 . S
C563 C565 1.433 . S
C564 C560 1.350 . S
C564 C561 1.463 . S
C564 N568 1.427 . S
C565 H555 0.929 . S
C565 C563 1.433 . S
C565 N568 1.384 . S
C566 H557 0.929 . S
C566 C558 1.378 . S
C566 C561 1.350 . S
C567 H554 0.929 . S
C567 C559 1.433 . S
C567 N569 1.384 . S
N568 C564 1.427 . S
N568 C565 1.384 . S
N569 C561 1.427 . S
N569 C567 1.384 . S
H570 C576 0.930 . S
H571 C580 0.930 . S
H572 C585 0.929 . S
H573 C583 0.929 . S
H574 C578 0.929 . S
H575 C584 0.929 . S
C576 H570 0.930 . S
C576 C577 1.367 . S
C576 C584 1.378 . S
C577 C576 1.367 . S
C577 C585 1.433 . S
C578 H574 0.929 . S
C578 C580 1.378 . S
C578 C582 1.350 . S
C579 C582 1.463 . S
C579 C584 1.350 . S
C579 N587 1.427 . S
C580 H571 0.930 . S
C580 C578 1.378 . S
C580 C581 1.367 . S
C581 C580 1.367 . S
C581 C583 1.433 . S
C582 C578 1.350 . S
C582 C579 1.463 . S
C582 N586 1.427 . S
C583 H573 0.929 . S
C583 C581 1.433 . S
C583 N586 1.384 . S
C584 H575 0.929 . S
C584 C576 1.378 . S
C584 C579 1.350 . S
C585 H572 0.929 . S
C585 C577 1.433 . S
C585 N587 1.384 . S
N586 C582 1.427 . S
N586 C583 1.384 . S
N587 C579 1.427 . S
N587 C585 1.384 . S
H588 C594 0.930 . S
H589 C598 0.930 . S
H590 C603 0.929 . S
H591 C601 0.929 . S
H592 C596 0.929 . S
H593 C602 0.929 . S
C594 H588 0.930 . S
C594 C595 1.367 . S
C594 C602 1.378 . S
C595 C594 1.367 . S
C595 C603 1.433 . S
C596 H592 0.929 . S
C596 C598 1.378 . S
C596 C600 1.350 . S
C597 C600 1.463 . S
C597 C602 1.350 . S
C597 N605 1.427 . S
C598 H589 0.930 . S
C598 C596 1.378 . S
C598 C599 1.367 . S
C599 C598 1.367 . S
C599 C601 1.433 . S
C600 C596 1.350 . S
C600 C597 1.463 . S
C600 N604 1.427 . S
C601 H591 0.929 . S
C601 C599 1.433 . S
C601 N604 1.384 . S
C602 H593 0.929 . S
C602 C594 1.378 . S
C602 C597 1.350 . S
C603 H590 0.929 . S
C603 C595 1.433 . S
C603 N605 1.384 . S
N604 C600 1.427 . S
N604 C601 1.384 . S
N605 C597 1.427 . S
N605 C603 1.384 . S
H606 C612 0.930 . S
H607 C616 0.930 . S
H608 C621 0.929 . S
H609 C619 0.929 . S
H610 C614 0.929 . S
H611 C620 0.929 . S
C612 H606 0.930 . S
C612 C613 1.367 . S
C612 C620 1.378 . S
C613 C612 1.367 . S
C613 C621 1.433 . S
C614 H610 0.929 . S
C614 C616 1.378 . S
C614 C618 1.350 . S
C615 C618 1.463 . S
C615 C620 1.350 . S
C615 N623 1.427 . S
C616 H607 0.930 . S
C616 C614 1.378 . S
C616 C617 1.367 . S
C617 C616 1.367 . S
C617 C619 1.433 . S
C618 C614 1.350 . S
C618 C615 1.463 . S
C618 N622 1.427 . S
C619 H609 0.929 . S
C619 C617 1.433 . S
C619 N622 1.384 . S
C620 H611 0.929 . S
C620 C612 1.378 . S
C620 C615 1.350 . S
C621 H608 0.929 . S
C621 C613 1.433 . S
C621 N623 1.384 . S
N622 C618 1.427 . S
N622 C619 1.384 . S
N623 C615 1.427 . S
N623 C621 1.384 . S
H624 C630 0.930 . S
H625 C634 0.930 . S
H626 C639 0.929 . S
H627 C637 0.929 . S
H628 C632 0.929 . S
H629 C638 0.929 . S
C630 H624 0.930 . S
C630 C631 1.367 . S
C630 C638 1.378 . S
C631 C630 1.367 . S
C631 C639 1.433 . S
C632 H628 0.929 . S
C632 C634 1.378 . S
C632 C636 1.350 . S
C633 C636 1.463 . S
C633 C638 1.350 . S
C633 N641 1.427 . S
C634 H625 0.930 . S
C634 C632 1.378 . S
C634 C635 1.367 . S
C635 C634 1.367 . S
C635 C637 1.433 . S
C636 C632 1.350 . S
C636 C633 1.463 . S
C636 N640 1.427 . S
C637 H627 0.929 . S
C637 C635 1.433 . S
C637 N640 1.384 . S
C638 H629 0.929 . S
C638 C630 1.378 . S
C638 C633 1.350 . S
C639 H626 0.929 . S
C639 C631 1.433 . S
C639 N641 1.384 . S
N640 C636 1.427 . S
N640 C637 1.384 . S
N641 C633 1.427 . S
N641 C639 1.384 . S
H642 C648 0.930 . S
H643 C652 0.930 . S
H644 C657 0.929 . S
H645 C655 0.929 . S
H646 C650 0.929 . S
H647 C656 0.929 . S
C648 H642 0.930 . S
C648 C649 1.367 . S
C648 C656 1.378 . S
C649 C648 1.367 . S
C649 C657 1.433 . S
C650 H646 0.929 . S
C650 C652 1.378 . S
C650 C654 1.350 . S
C651 C654 1.463 . S
C651 C656 1.350 . S
C651 N659 1.427 . S
C652 H643 0.930 . S
C652 C650 1.378 . S
C652 C653 1.367 . S
C653 C652 1.367 . S
C653 C655 1.433 . S
C654 C650 1.350 . S
C654 C651 1.463 . S
C654 N658 1.427 . S
C655 H645 0.929 . S
C655 C653 1.433 . S
C655 N658 1.384 . S
C656 H647 0.929 . S
C656 C648 1.378 . S
C656 C651 1.350 . S
C657 H644 0.929 . S
C657 C649 1.433 . S
C657 N659 1.384 . S
N658 C654 1.427 . S
N658 C655 1.384 . S
N659 C651 1.427 . S
N659 C657 1.384 . S
H660 C666 0.930 . S
H661 C670 0.930 . S
H662 C675 0.929 . S
H663 C673 0.929 . S
H664 C668 0.929 . S
H665 C674 0.929 . S
C666 H660 0.930 . S
C666 C667 1.367 . S
C666 C674 1.378 . S
C667 C666 1.367 . S
C667 C675 1.433 . S
C668 H664 0.929 . S
C668 C670 1.378 . S
C668 C672 1.350 . S
C669 C672 1.463 . S
C669 C674 1.350 . S
C669 N677 1.427 . S
C670 H661 0.930 . S
C670 C668 1.378 . S
C670 C671 1.367 . S
C671 C670 1.367 . S
C671 C673 1.433 . S
C672 C668 1.350 . S
C672 C669 1.463 . S
C672 N676 1.427 . S
C673 H663 0.929 . S
C673 C671 1.433 . S
C673 N676 1.384 . S
C674 H665 0.929 . S
C674 C666 1.378 . S
C674 C669 1.350 . S
C675 H662 0.929 . S
C675 C667 1.433 . S
C675 N677 1.384 . S
N676 C672 1.427 . S
N676 C673 1.384 . S
N677 C669 1.427 . S
N677 C675 1.384 . S
H678 C684 0.930 . S
H679 C688 0.930 . S
H680 C693 0.929 . S
H681 C691 0.929 . S
H682 C686 0.929 . S
H683 C692 0.929 . S
C684 H678 0.930 . S
C684 C685 1.367 . S
C684 C692 1.378 . S
C685 C684 1.367 . S
C685 C693 1.433 . S
C686 H682 0.929 . S
C686 C688 1.378 . S
C686 C690 1.350 . S
C687 C690 1.463 . S
C687 C692 1.350 . S
C687 N695 1.427 . S
C688 H679 0.930 . S
C688 C686 1.378 . S
C688 C689 1.367 . S
C689 C688 1.367 . S
C689 C691 1.433 . S
C690 C686 1.350 . S
C690 C687 1.463 . S
C690 N694 1.427 . S
C691 H681 0.929 . S
C691 C689 1.433 . S
C691 N694 1.384 . S
C692 H683 0.929 . S
C692 C684 1.378 . S
C692 C687 1.350 . S
C693 H680 0.929 . S
C693 C685 1.433 . S
C693 N695 1.384 . S
N694 C690 1.427 . S
N694 C691 1.384 . S
N695 C687 1.427 . S
N695 C693 1.384 . S
H696 C702 0.930 . S
H697 C706 0.930 . S
H698 C711 0.929 . S
H699 C709 0.929 . S
H700 C704 0.929 . S
H701 C710 0.929 . S
C702 H696 0.930 . S
C702 C703 1.367 . S
C702 C710 1.378 . S
C703 C702 1.367 . S
C703 C711 1.433 . S
C704 H700 0.929 . S
C704 C706 1.378 . S
C704 C708 1.350 . S
C705 C708 1.463 1_565 S
C705 C710 1.350 . S
C705 N713 1.427 . S
C706 H697 0.930 . S
C706 C704 1.378 . S
C706 C707 1.367 . S
C707 C706 1.367 . S
C707 C709 1.433 . S
C708 C704 1.350 . S
C708 C705 1.463 1_545 S
C708 N712 1.427 . S
C709 H699 0.929 . S
C709 C707 1.433 . S
C709 N712 1.384 . S
C710 H701 0.929 . S
C710 C702 1.378 . S
C710 C705 1.350 . S
C711 H698 0.929 . S
C711 C703 1.433 . S
C711 N713 1.384 . S
N712 C708 1.427 . S
N712 C709 1.384 . S
N713 C705 1.427 . S
N713 C711 1.384 . S
H714 C720 0.930 . S
H715 C724 0.930 . S
H716 C729 0.929 . S
H717 C727 0.929 . S
H718 C722 0.929 . S
H719 C728 0.929 . S
C720 H714 0.930 . S
C720 C721 1.367 . S
C720 C728 1.378 . S
C721 C720 1.367 . S
C721 C729 1.433 . S
C722 H718 0.929 . S
C722 C724 1.378 . S
C722 C726 1.350 . S
C723 C726 1.463 1_455 S
C723 C728 1.350 . S
C723 N731 1.427 . S
C724 H715 0.930 . S
C724 C722 1.378 . S
C724 C725 1.367 . S
C725 C724 1.367 . S
C725 C727 1.433 . S
C726 C722 1.350 . S
C726 C723 1.463 1_655 S
C726 N730 1.427 . S
C727 H717 0.929 . S
C727 C725 1.433 . S
C727 N730 1.384 . S
C728 H719 0.929 . S
C728 C720 1.378 . S
C728 C723 1.350 . S
C729 H716 0.929 . S
C729 C721 1.433 . S
C729 N731 1.384 . S
N730 C726 1.427 . S
N730 C727 1.384 . S
N731 C723 1.427 . S
N731 C729 1.384 . S
H732 C738 0.930 . S
H733 C742 0.930 . S
H734 C747 0.929 . S
H735 C745 0.929 . S
H736 C740 0.929 . S
H737 C746 0.929 . S
C738 H732 0.930 . S
C738 C739 1.367 . S
C738 C746 1.378 . S
C739 C738 1.367 . S
C739 C747 1.433 . S
C740 H736 0.929 . S
C740 C742 1.378 . S
C740 C744 1.350 . S
C741 C744 1.463 1_545 S
C741 C746 1.350 . S
C741 N749 1.427 . S
C742 H733 0.930 . S
C742 C740 1.378 . S
C742 C743 1.367 . S
C743 C742 1.367 . S
C743 C745 1.433 . S
C744 C740 1.350 . S
C744 C741 1.463 1_565 S
C744 N748 1.427 . S
C745 H735 0.929 . S
C745 C743 1.433 . S
C745 N748 1.384 . S
C746 H737 0.929 . S
C746 C738 1.378 . S
C746 C741 1.350 . S
C747 H734 0.929 . S
C747 C739 1.433 . S
C747 N749 1.384 . S
N748 C744 1.427 . S
N748 C745 1.384 . S
N749 C741 1.427 . S
N749 C747 1.384 . S
H750 C756 0.930 . S
H751 C760 0.930 . S
H752 C765 0.929 . S
H753 C763 0.929 . S
H754 C758 0.929 . S
H755 C764 0.929 . S
C756 H750 0.930 . S
C756 C757 1.367 . S
C756 C764 1.378 . S
C757 C756 1.367 . S
C757 C765 1.433 . S
C758 H754 0.929 . S
C758 C760 1.378 . S
C758 C762 1.350 . S
C759 C762 1.463 1_455 S
C759 C764 1.350 . S
C759 N767 1.427 . S
C760 H751 0.930 . S
C760 C758 1.378 . S
C760 C761 1.367 . S
C761 C760 1.367 . S
C761 C763 1.433 . S
C762 C758 1.350 . S
C762 C759 1.463 1_655 S
C762 N766 1.427 . S
C763 H753 0.929 . S
C763 C761 1.433 . S
C763 N766 1.384 . S
C764 H755 0.929 . S
C764 C756 1.378 . S
C764 C759 1.350 . S
C765 H752 0.929 . S
C765 C757 1.433 . S
C765 N767 1.384 . S
N766 C762 1.427 . S
N766 C763 1.384 . S
N767 C759 1.427 . S
N767 C765 1.384 . S
H768 C774 0.930 . S
H769 C778 0.930 . S
H770 C783 0.929 . S
H771 C781 0.929 . S
H772 C776 0.929 . S
H773 C782 0.929 . S
C774 H768 0.930 . S
C774 C775 1.367 . S
C774 C782 1.378 . S
C775 C774 1.367 . S
C775 C783 1.433 . S
C776 H772 0.929 . S
C776 C778 1.378 . S
C776 C780 1.350 . S
C777 C780 1.463 1_556 S
C777 C782 1.350 . S
C777 N785 1.427 . S
C778 H769 0.930 . S
C778 C776 1.378 . S
C778 C779 1.367 . S
C779 C778 1.367 . S
C779 C781 1.433 . S
C780 C776 1.350 . S
C780 C777 1.463 1_554 S
C780 N784 1.427 . S
C781 H771 0.929 . S
C781 C779 1.433 . S
C781 N784 1.384 . S
C782 H773 0.929 . S
C782 C774 1.378 . S
C782 C777 1.350 . S
C783 H770 0.929 . S
C783 C775 1.433 . S
C783 N785 1.384 . S
N784 C780 1.427 . S
N784 C781 1.384 . S
N785 C777 1.427 . S
N785 C783 1.384 . S
H786 C792 0.930 . S
H787 C796 0.930 . S
H788 C801 0.929 . S
H789 C799 0.929 . S
H790 C794 0.929 . S
H791 C800 0.929 . S
C792 H786 0.930 . S
C792 C793 1.367 . S
C792 C800 1.378 . S
C793 C792 1.367 . S
C793 C801 1.433 . S
C794 H790 0.929 . S
C794 C796 1.378 . S
C794 C798 1.350 . S
C795 C798 1.463 1_556 S
C795 C800 1.350 . S
C795 N803 1.427 . S
C796 H787 0.930 . S
C796 C794 1.378 . S
C796 C797 1.367 . S
C797 C796 1.367 . S
C797 C799 1.433 . S
C798 C794 1.350 . S
C798 C795 1.463 1_554 S
C798 N802 1.427 . S
C799 H789 0.929 . S
C799 C797 1.433 . S
C799 N802 1.384 . S
C800 H791 0.929 . S
C800 C792 1.378 . S
C800 C795 1.350 . S
C801 H788 0.929 . S
C801 C793 1.433 . S
C801 N803 1.384 . S
N802 C798 1.427 . S
N802 C799 1.384 . S
N803 C795 1.427 . S
N803 C801 1.384 . S
H804 C810 0.930 . S
H805 C814 0.930 . S
H806 C819 0.929 . S
H807 C817 0.929 . S
H808 C812 0.929 . S
H809 C818 0.929 . S
C810 H804 0.930 . S
C810 C811 1.367 . S
C810 C818 1.378 . S
C811 C810 1.367 . S
C811 C819 1.433 . S
C812 H808 0.929 . S
C812 C814 1.378 . S
C812 C816 1.350 . S
C813 C816 1.463 1_554 S
C813 C818 1.350 . S
C813 N821 1.427 . S
C814 H805 0.930 . S
C814 C812 1.378 . S
C814 C815 1.367 . S
C815 C814 1.367 . S
C815 C817 1.433 . S
C816 C812 1.350 . S
C816 C813 1.463 1_556 S
C816 N820 1.427 . S
C817 H807 0.929 . S
C817 C815 1.433 . S
C817 N820 1.384 . S
C818 H809 0.929 . S
C818 C810 1.378 . S
C818 C813 1.350 . S
C819 H806 0.929 . S
C819 C811 1.433 . S
C819 N821 1.384 . S
N820 C816 1.427 . S
N820 C817 1.384 . S
N821 C813 1.427 . S
N821 C819 1.384 . S
H822 C828 0.930 . S
H823 C832 0.930 . S
H824 C837 0.929 . S
H825 C835 0.929 . S
H826 C830 0.929 . S
H827 C836 0.929 . S
C828 H822 0.930 . S
C828 C829 1.367 . S
C828 C836 1.378 . S
C829 C828 1.367 . S
C829 C837 1.433 . S
C830 H826 0.929 . S
C830 C832 1.378 . S
C830 C834 1.350 . S
C831 C834 1.463 1_556 S
C831 C836 1.350 . S
C831 N839 1.427 . S
C832 H823 0.930 . S
C832 C830 1.378 . S
C832 C833 1.367 . S
C833 C832 1.367 . S
C833 C835 1.433 . S
C834 C830 1.350 . S
C834 C831 1.463 1_554 S
C834 N838 1.427 . S
C835 H825 0.929 . S
C835 C833 1.433 . S
C835 N838 1.384 . S
C836 H827 0.929 . S
C836 C828 1.378 . S
C836 C831 1.350 . S
C837 H824 0.929 . S
C837 C829 1.433 . S
C837 N839 1.384 . S
N838 C834 1.427 . S
N838 C835 1.384 . S
N839 C831 1.427 . S
N839 C837 1.384 . S
H840 C846 0.930 . S
H841 C850 0.930 . S
H842 C855 0.929 . S
H843 C853 0.929 . S
H844 C848 0.929 . S
H845 C854 0.929 . S
C846 H840 0.930 . S
C846 C847 1.367 . S
C846 C854 1.378 . S
C847 C846 1.367 . S
C847 C855 1.433 . S
C848 H844 0.929 . S
C848 C850 1.378 . S
C848 C852 1.350 . S
C849 C852 1.463 1_455 S
C849 C854 1.350 . S
C849 N857 1.427 . S
C850 H841 0.930 . S
C850 C848 1.378 . S
C850 C851 1.367 . S
C851 C850 1.367 . S
C851 C853 1.433 . S
C852 C848 1.350 . S
C852 C849 1.463 1_655 S
C852 N856 1.427 . S
C853 H843 0.929 . S
C853 C851 1.433 . S
C853 N856 1.384 . S
C854 H845 0.929 . S
C854 C846 1.378 . S
C854 C849 1.350 . S
C855 H842 0.929 . S
C855 C847 1.433 . S
C855 N857 1.384 . S
N856 C852 1.427 . S
N856 C853 1.384 . S
N857 C849 1.427 . S
N857 C855 1.384 . S
H858 C864 0.930 . S
H859 C868 0.930 . S
H860 C873 0.929 . S
H861 C871 0.929 . S
H862 C866 0.929 . S
H863 C872 0.929 . S
C864 H858 0.930 . S
C864 C865 1.367 . S
C864 C872 1.378 . S
C865 C864 1.367 . S
C865 C873 1.433 . S
C866 H862 0.929 . S
C866 C868 1.378 . S
C866 C870 1.350 . S
C867 C870 1.463 1_655 S
C867 C872 1.350 . S
C867 N875 1.427 . S
C868 H859 0.930 . S
C868 C866 1.378 . S
C868 C869 1.367 . S
C869 C868 1.367 . S
C869 C871 1.433 . S
C870 C866 1.350 . S
C870 C867 1.463 1_455 S
C870 N874 1.427 . S
C871 H861 0.929 . S
C871 C869 1.433 . S
C871 N874 1.384 . S
C872 H863 0.929 . S
C872 C864 1.378 . S
C872 C867 1.350 . S
C873 H860 0.929 . S
C873 C865 1.433 . S
C873 N875 1.384 . S
N874 C870 1.427 . S
N874 C871 1.384 . S
N875 C867 1.427 . S
N875 C873 1.384 . S
H876 C882 0.930 . S
H877 C886 0.930 . S
H878 C891 0.929 . S
H879 C889 0.929 . S
H880 C884 0.929 . S
H881 C890 0.929 . S
C882 H876 0.930 . S
C882 C883 1.367 . S
C882 C890 1.378 . S
C883 C882 1.367 . S
C883 C891 1.433 . S
C884 H880 0.929 . S
C884 C886 1.378 . S
C884 C888 1.350 . S
C885 C888 1.463 1_545 S
C885 C890 1.350 . S
C885 N893 1.427 . S
C886 H877 0.930 . S
C886 C884 1.378 . S
C886 C887 1.367 . S
C887 C886 1.367 . S
C887 C889 1.433 . S
C888 C884 1.350 . S
C888 C885 1.463 1_565 S
C888 N892 1.427 . S
C889 H879 0.929 . S
C889 C887 1.433 . S
C889 N892 1.384 . S
C890 H881 0.929 . S
C890 C882 1.378 . S
C890 C885 1.350 . S
C891 H878 0.929 . S
C891 C883 1.433 . S
C891 N893 1.384 . S
N892 C888 1.427 . S
N892 C889 1.384 . S
N893 C885 1.427 . S
N893 C891 1.384 . S
H894 C900 0.930 . S
H895 C904 0.930 . S
H896 C909 0.929 . S
H897 C907 0.929 . S
H898 C902 0.929 . S
H899 C908 0.929 . S
C900 H894 0.930 . S
C900 C901 1.367 . S
C900 C908 1.378 . S
C901 C900 1.367 . S
C901 C909 1.433 . S
C902 H898 0.929 . S
C902 C904 1.378 . S
C902 C906 1.350 . S
C903 C906 1.463 1_565 S
C903 C908 1.350 . S
C903 N911 1.427 . S
C904 H895 0.930 . S
C904 C902 1.378 . S
C904 C905 1.367 . S
C905 C904 1.367 . S
C905 C907 1.433 . S
C906 C902 1.350 . S
C906 C903 1.463 1_545 S
C906 N910 1.427 . S
C907 H897 0.929 . S
C907 C905 1.433 . S
C907 N910 1.384 . S
C908 H899 0.929 . S
C908 C900 1.378 . S
C908 C903 1.350 . S
C909 H896 0.929 . S
C909 C901 1.433 . S
C909 N911 1.384 . S
N910 C906 1.427 . S
N910 C907 1.384 . S
N911 C903 1.427 . S
N911 C909 1.384 . S
C271 C15 1.436 . S
C275 C164 1.455 . S
C289 C95 1.466 . S
C293 C30 1.489 . S
C307 C54 1.401 . S
C311 C120 1.400 . S
C325 C84 1.476 . S
C329 C147 1.468 . S
C343 C81 1.514 . S
C347 C205 1.520 . S
C361 C18 1.414 . S
C365 C238 1.416 . S
C379 C249 1.520 . S
C383 C29 1.527 . S
C397 C65 1.449 . S
C401 C184 1.470 . S
C415 C103 1.470 . S
C419 C10 1.494 . S
C433 C128 1.468 . S
C437 C43 1.443 . S
C451 C153 1.531 . S
C455 C59 1.523 . S
C469 C73 1.436 . S
C473 C172 1.460 . S
C487 C76 1.405 . S
C491 C186 1.401 . S
C505 C7 1.508 . S
C509 C213 1.517 . S
C523 C228 1.406 . S
C527 C40 1.415 . S
C541 C257 1.463 . S
C545 C52 1.475 . S
C559 C98 1.471 . S
C563 C169 1.459 . S
C577 C216 1.484 . S
C581 C191 1.458 . S
C595 C208 1.475 . S
C599 C227 1.451 . S
C613 C260 1.467 . S
C617 C241 1.443 . S
C631 C252 1.473 . S
C635 C197 1.454 . S
C649 C140 1.471 . S
C653 C125 1.459 . S
C667 C142 1.476 . S
C671 C161 1.469 . S
C685 C106 1.461 . S
C689 C117 1.452 . S
C703 C74 1.458 . S
C707 C8 1.459 . S
C721 C21 1.535 . S
C725 C37 1.533 . S
C739 C32 1.511 . S
C743 C51 1.509 . S
C757 C87 1.479 . S
C761 C62 1.483 . S
C775 C235 1.474 . S
C779 C96 1.476 . S
C793 C250 1.495 . S
C797 C131 1.492 . S
C811 C150 1.498 . S
C815 C183 1.494 . S
C829 C206 1.519 . S
C833 C175 1.515 . S
C847 C162 1.407 . S
C851 C118 1.406 . S
C865 C263 1.556 . S
C869 C219 1.553 . S
C883 C230 1.437 . S
C887 C194 1.437 . S
C901 C139 1.586 . S
C905 C109 1.584 . S
