# Generated by pormake.
# Topology msp, (4)-cn, num edge types: 1
# Building blocks:
#     Node 0, Type 0, BuildingBlock: ICAMEG_clean_sbu_1, # of connection points: 4
#     Node 1, Type 0, BuildingBlock: ICAMEG_clean_sbu_1, # of connection points: 4
#     Node 2, Type 0, BuildingBlock: ICAMEG_clean_sbu_1, # of connection points: 4
#     Node 3, Type 0, BuildingBlock: ICAMEG_clean_sbu_1, # of connection points: 4
#     Node 4, Type 0, BuildingBlock: ICAMEG_clean_sbu_1, # of connection points: 4
#     Node 5, Type 0, BuildingBlock: ICAMEG_clean_sbu_1, # of connection points: 4
#     Node 6, Type 0, BuildingBlock: ICAMEG_clean_sbu_1, # of connection points: 4
#     Node 7, Type 0, BuildingBlock: ICAMEG_clean_sbu_1, # of connection points: 4
#     Edge 8, Type (0, 0), BuildingBlock: AJUNOK_clean_linker_0, # of connection points: 2
#     Edge 9, Type (0, 0), BuildingBlock: AJUNOK_clean_linker_0, # of connection points: 2
#     Edge 10, Type (0, 0), BuildingBlock: AJUNOK_clean_linker_0, # of connection points: 2
#     Edge 11, Type (0, 0), BuildingBlock: AJUNOK_clean_linker_0, # of connection points: 2
#     Edge 12, Type (0, 0), BuildingBlock: AJUNOK_clean_linker_0, # of connection points: 2
#     Edge 13, Type (0, 0), BuildingBlock: AJUNOK_clean_linker_0, # of connection points: 2
#     Edge 14, Type (0, 0), BuildingBlock: AJUNOK_clean_linker_0, # of connection points: 2
#     Edge 15, Type (0, 0), BuildingBlock: AJUNOK_clean_linker_0, # of connection points: 2
#     Edge 16, Type (0, 0), BuildingBlock: AJUNOK_clean_linker_0, # of connection points: 2
#     Edge 17, Type (0, 0), BuildingBlock: AJUNOK_clean_linker_0, # of connection points: 2
#     Edge 18, Type (0, 0), BuildingBlock: AJUNOK_clean_linker_0, # of connection points: 2
#     Edge 19, Type (0, 0), BuildingBlock: AJUNOK_clean_linker_0, # of connection points: 2
#     Edge 20, Type (0, 0), BuildingBlock: AJUNOK_clean_linker_0, # of connection points: 2
#     Edge 21, Type (0, 0), BuildingBlock: AJUNOK_clean_linker_0, # of connection points: 2
#     Edge 22, Type (0, 0), BuildingBlock: AJUNOK_clean_linker_0, # of connection points: 2
#     Edge 23, Type (0, 0), BuildingBlock: AJUNOK_clean_linker_0, # of connection points: 2
# Relax obj value: 0.047
# Max RMSD: 0.153
# Mean RMSD: 0.153
data_MOF--net-msp--node1-ICAMEG_clean_sbu_1--edge1-AJUNOK_clean_linker_0
_symmetry_space_group_name_H-M    P1
_symmetry_Int_Tables_number       1
_symmetry_cell_setting            triclinic
loop_
_symmetry_equiv_pos_as_xyz
'x, y, z'
_cell_length_a     20.147295
_cell_length_b     13.873114
_cell_length_c     33.296141
_cell_angle_alpha  89.956442
_cell_angle_beta   104.65857
_cell_angle_gamma 90.130564
loop_
_atom_site_label
_atom_site_type_symbol
_atom_site_fract_x
_atom_site_fract_y
_atom_site_fract_z
_atom_type_partial_charge
Co0 Co 0.07884 0.37291 0.35926 0.0
Co1 Co 0.9517 0.23007 0.38025 0.0
O2 O 0.996 0.29423 0.34113 0.0
C3 C 0.17184 0.27829 0.31581 0.0
O4 O 0.21453 0.27063 0.35268 0.0
C5 C 0.83721 0.30397 0.3094 0.0
O6 O 0.87492 0.37889 0.30569 0.0
O7 O 0.94304 0.35689 0.40744 0.0
O8 O 0.04484 0.42491 0.40699 0.0
H9 H 0.92415 0.13531 0.52142 0.0
H10 H 0.98883 0.39005 0.27307 0.0
O11 O 0.11352 0.31918 0.31188 0.0
H12 H 0.0281 0.72049 0.3283 0.0
H13 H 0.26445 0.59644 0.33737 0.0
H14 H 0.16991 0.42907 0.44128 0.0
H15 H 0.07202 0.58245 0.37191 0.0
H16 H 0.16573 0.48653 0.31535 0.0
O17 O 0.8587 0.24339 0.33873 0.0
H18 H 0.97473 0.22464 0.47267 0.0
H19 H 0.83505 0.09107 0.37042 0.0
H20 H 0.26757 0.54018 0.4645 0.0
H21 H 0.93723 0.52804 0.22865 0.0
H22 H 0.31486 0.626 0.41246 0.0
H23 H 0.96423 0.69488 0.25525 0.0
O24 O 0.12474 0.26646 0.39497 0.0
H25 H 0.93714 0.00505 0.26092 0.0
H26 H 0.00664 0.03796 0.41311 0.0
H27 H 0.022 0.88186 0.38115 0.0
H28 H 0.98686 0.86556 0.30423 0.0
H29 H 0.92509 0.15993 0.29373 0.0
H30 H 0.78195 0.00226 0.41834 0.0
H31 H 0.82614 0.02461 0.49442 0.0
O32 O 0.04117 0.21409 0.42236 0.0
C33 C 0.99149 0.41828 0.42122 0.0
C34 C 0.90394 0.12582 0.4883 0.0
C35 C 0.82389 0.05162 0.43044 0.0
N36 N 0.90729 0.16499 0.41845 0.0
C37 C 0.93238 0.17641 0.46038 0.0
C38 C 0.85391 0.10289 0.40343 0.0
C39 C 0.84902 0.06357 0.47313 0.0
C40 C 0.99621 0.46255 0.28532 0.0
N41 N 0.03386 0.4783 0.32497 0.0
C42 C 0.96767 0.54017 0.26 0.0
C43 C 0.98112 0.63377 0.27505 0.0
C44 C 0.01759 0.64866 0.31589 0.0
C45 C 0.04238 0.56966 0.34069 0.0
C46 C 0.24406 0.55984 0.36038 0.0
C47 C 0.19041 0.46525 0.41838 0.0
C48 C 0.18868 0.49644 0.34814 0.0
N49 N 0.16189 0.45085 0.37703 0.0
C50 C 0.2453 0.52903 0.43174 0.0
C51 C 0.27205 0.57683 0.40249 0.0
C52 C 0.10409 0.22305 0.42302 0.0
C53 C 0.95248 0.0115 0.29428 0.0
C54 C 0.99166 0.03109 0.37969 0.0
C55 C 1.00024 0.94249 0.36182 0.0
C56 C 0.98035 0.93304 0.31879 0.0
N57 N 0.96408 0.1077 0.35532 0.0
C58 C 0.9454 0.09902 0.31312 0.0
Co59 Co 0.38696 0.41564 0.62694 0.0
Co60 Co 0.4786 0.21969 0.60975 0.0
O61 O 0.44657 0.30619 0.6472 0.0
C62 C 0.31434 0.31947 0.68196 0.0
O63 O 0.3148 0.24304 0.65891 0.0
C64 C 0.60303 0.26302 0.67868 0.0
O65 O 0.58473 0.35387 0.67591 0.0
O66 O 0.5165 0.33353 0.5861 0.0
O67 O 0.42703 0.43408 0.57823 0.0
H68 H 0.5471 0.14523 0.47862 0.0
H69 H 0.47514 0.42006 0.71366 0.0
O70 O 0.34419 0.39682 0.67508 0.0
H71 H 0.53371 0.71349 0.64597 0.0
H72 H 0.26197 0.71977 0.64475 0.0
H73 H 0.30754 0.48459 0.54401 0.0
H74 H 0.44555 0.60105 0.60793 0.0
H75 H 0.33361 0.57685 0.66872 0.0
O76 O 0.56722 0.20114 0.65415 0.0
H77 H 0.478 0.22485 0.52038 0.0
H78 H 0.56211 0.04043 0.6221 0.0
H79 H 0.23791 0.62802 0.51893 0.0
H80 H 0.56692 0.53038 0.75257 0.0
H81 H 0.21388 0.74667 0.56935 0.0
H82 H 0.59465 0.67848 0.71905 0.0
O83 O 0.32009 0.32663 0.59244 0.0
H84 H 0.38597 0.04349 0.71591 0.0
H85 H 0.41014 0.03814 0.57261 0.0
H86 H 0.34312 0.91107 0.59583 0.0
H87 H 0.32946 0.91424 0.66788 0.0
H88 H 0.45747 0.16534 0.69225 0.0
H89 H 0.63334 0.96128 0.58225 0.0
H90 H 0.6256 0.0117 0.50949 0.0
O91 O 0.38859 0.23182 0.56551 0.0
C92 C 0.48045 0.40443 0.56825 0.0
C93 C 0.5503 0.12126 0.51 0.0
C94 C 0.598 0.01693 0.5678 0.0
N95 N 0.51598 0.13778 0.57364 0.0
C96 C 0.51074 0.16562 0.53363 0.0
C97 C 0.5577 0.06275 0.59042 0.0
C98 C 0.5943 0.0464 0.52731 0.0
C99 C 0.48743 0.48505 0.69914 0.0
N100 N 0.45476 0.50442 0.65887 0.0
C101 C 0.53893 0.54686 0.72121 0.0
C102 C 0.55532 0.62986 0.70219 0.0
C103 C 0.52123 0.64951 0.66122 0.0
C104 C 0.47125 0.58536 0.63986 0.0
C105 C 0.27125 0.6681 0.62249 0.0
C106 C 0.29763 0.53577 0.56625 0.0
C107 C 0.31154 0.58675 0.63584 0.0
N108 N 0.32515 0.52264 0.60776 0.0
C109 C 0.2576 0.61663 0.55183 0.0
C110 C 0.24442 0.68324 0.58015 0.0
C111 C 0.3291 0.26408 0.56624 0.0
C112 C 0.3924 0.04067 0.68466 0.0
C113 C 0.40677 0.03844 0.60441 0.0
C114 C 0.36809 0.96651 0.61729 0.0
C115 C 0.36037 0.96834 0.65764 0.0
N116 N 0.43818 0.10943 0.6311 0.0
C117 C 0.43275 0.1096 0.6711 0.0
Co118 Co 0.9146 0.62909 0.64125 0.0
Co119 Co 0.02399 0.80327 0.62284 0.0
O120 O 0.98588 0.72453 0.66039 0.0
C121 C 0.85155 0.73716 0.69932 0.0
O122 O 0.85955 0.81698 0.67986 0.0
C123 C 0.14548 0.72604 0.68508 0.0
O124 O 0.12022 0.63955 0.67491 0.0
O125 O 0.04554 0.68425 0.59383 0.0
O126 O 0.95129 0.59624 0.59266 0.0
H127 H 0.0533 0.92321 0.48537 0.0
H128 H 0.00299 0.62663 0.7264 0.0
O129 O 0.87444 0.65774 0.68923 0.0
H130 H 0.01877 0.29936 0.67214 0.0
H131 H 0.75566 0.36031 0.65933 0.0
H132 H 0.81484 0.58883 0.56021 0.0
H133 H 0.95409 0.42634 0.62679 0.0
H134 H 0.85529 0.46843 0.68124 0.0
O135 O 0.11463 0.79943 0.66595 0.0
H136 H 0.00423 0.82126 0.53122 0.0
H137 H 0.13233 0.95579 0.63733 0.0
H138 H 0.71204 0.48609 0.5378 0.0
H139 H 0.07163 0.50367 0.772 0.0
H140 H 0.6826 0.36956 0.58715 0.0
H141 H 0.07416 0.3376 0.74615 0.0
O142 O 0.85706 0.72963 0.60755 0.0
H143 H 0.96797 0.99952 0.73739 0.0
H144 H 0.96984 0.99527 0.59011 0.0
H145 H 0.93156 0.14084 0.61951 0.0
H146 H 0.93122 0.14424 0.69396 0.0
H147 H 0.01324 0.85819 0.70784 0.0
H148 H 0.18492 0.05629 0.59279 0.0
H149 H 0.1447 0.041 0.51622 0.0
O150 O 0.9337 0.80879 0.58101 0.0
C151 C 0.00307 0.61636 0.57861 0.0
C152 C 0.07131 0.93023 0.51875 0.0
C153 C 0.14534 0.00463 0.57901 0.0
N154 N 0.06561 0.8813 0.58701 0.0
C155 C 0.04339 0.87291 0.54488 0.0
C156 C 0.11591 0.94646 0.60413 0.0
C157 C 0.12269 0.99628 0.53604 0.0
C158 C 0.00735 0.55542 0.71416 0.0
N159 N 0.97337 0.53283 0.67434 0.0
C160 C 0.0461 0.48616 0.74015 0.0
C161 C 0.0485 0.39292 0.72534 0.0
C162 C 0.01652 0.37144 0.68408 0.0
C163 C 0.97992 0.44346 0.65858 0.0
C164 C 0.76817 0.41039 0.63737 0.0
C165 C 0.80205 0.53924 0.58214 0.0
C166 C 0.82478 0.47173 0.64958 0.0
N167 N 0.84105 0.53555 0.62219 0.0
C168 C 0.74401 0.48068 0.56913 0.0
C169 C 0.72726 0.41557 0.59691 0.0
C170 C 0.87227 0.78606 0.58095 0.0
C171 C 0.9714 0.0005 0.70553 0.0
C172 C 0.97306 0.99705 0.62297 0.0
C173 C 0.95007 0.07953 0.63927 0.0
C174 C 0.94966 0.08128 0.68096 0.0
N175 N 0.99782 0.91958 0.64777 0.0
C176 C 0.99659 0.92049 0.68853 0.0
Co177 Co 0.64133 0.58288 0.37333 0.0
Co178 Co 0.52745 0.76271 0.37447 0.0
O179 O 0.57271 0.67388 0.34427 0.0
C180 C 0.71775 0.68488 0.32092 0.0
O181 O 0.70886 0.76354 0.34074 0.0
C182 C 0.41174 0.69219 0.30707 0.0
O183 O 0.43388 0.60465 0.31795 0.0
O184 O 0.49244 0.64997 0.40123 0.0
O185 O 0.58967 0.56212 0.41648 0.0
H186 H 0.46775 0.89663 0.50058 0.0
H187 H 0.58814 0.54868 0.28347 0.0
O188 O 0.69508 0.60404 0.33036 0.0
H189 H 0.52325 0.25916 0.35051 0.0
H190 H 0.78346 0.28323 0.38565 0.0
H191 H 0.71455 0.55333 0.4616 0.0
H192 H 0.58224 0.39464 0.39271 0.0
H193 H 0.71505 0.41714 0.34741 0.0
O194 O 0.44414 0.76411 0.32628 0.0
H195 H 0.5072 0.77105 0.45972 0.0
H196 H 0.44696 0.94247 0.35106 0.0
H197 H 0.78925 0.42526 0.50017 0.0
H198 H 0.5432 0.40809 0.24111 0.0
H199 H 0.81855 0.28595 0.46234 0.0
H200 H 0.50343 0.26454 0.27379 0.0
O201 O 0.69369 0.68761 0.40766 0.0
H202 H 0.61192 0.92099 0.26151 0.0
H203 H 0.59886 0.94726 0.40694 0.0
H204 H 0.66531 0.06741 0.3788 0.0
H205 H 0.67567 0.05045 0.30648 0.0
H206 H 0.54433 0.80382 0.29062 0.0
H207 H 0.40759 0.07092 0.39102 0.0
H208 H 0.42234 0.0504 0.46641 0.0
O209 O 0.60778 0.76798 0.42332 0.0
C210 C 0.53074 0.58311 0.42157 0.0
C211 C 0.46264 0.90697 0.46771 0.0
C212 C 0.42859 0.00463 0.40606 0.0
N213 N 0.48138 0.85097 0.4034 0.0
C214 C 0.48489 0.83621 0.44444 0.0
C215 C 0.45068 0.93176 0.38369 0.0
C216 C 0.43622 0.99268 0.44845 0.0
C217 C 0.57582 0.48451 0.29837 0.0
N218 N 0.5895 0.47951 0.34051 0.0
C219 C 0.54762 0.406 0.274 0.0
C220 C 0.52689 0.32518 0.29257 0.0
C221 C 0.53798 0.32215 0.33557 0.0
C222 C 0.57049 0.3999 0.35928 0.0
C223 C 0.77002 0.34356 0.40225 0.0
C224 C 0.73096 0.49558 0.44462 0.0
C225 C 0.73106 0.41931 0.38093 0.0
N226 N 0.70944 0.49178 0.40227 0.0
C227 C 0.77215 0.42278 0.46674 0.0
C228 C 0.78968 0.3449 0.44538 0.0
C229 C 0.67091 0.74815 0.42947 0.0
C230 C 0.60824 0.92827 0.29324 0.0
C231 C 0.60012 0.94242 0.37473 0.0
C232 C 0.6384 0.01023 0.35912 0.0
C233 C 0.64353 0.00158 0.31837 0.0
N234 N 0.56685 0.86905 0.35019 0.0
C235 C 0.56967 0.86254 0.30977 0.0
Co236 Co 0.62111 0.86336 0.87445 0.0
Co237 Co 0.50513 0.69572 0.88991 0.0
O238 O 0.55057 0.76484 0.85221 0.0
C239 C 0.68763 0.74924 0.82063 0.0
O240 O 0.66882 0.67123 0.83728 0.0
C241 C 0.39244 0.76753 0.82221 0.0
O242 O 0.42519 0.85022 0.82882 0.0
O243 O 0.47876 0.82012 0.91129 0.0
O244 O 0.57721 0.89982 0.92005 0.0
H245 H 0.44666 0.64221 0.02597 0.0
H246 H 0.56406 0.87898 0.78364 0.0
O247 O 0.6704 0.83176 0.83104 0.0
H248 H 0.50183 0.18319 0.84099 0.0
H249 H 0.77835 0.14132 0.86627 0.0
H250 H 0.7022 0.91382 0.95924 0.0
H251 H 0.56321 0.05706 0.88722 0.0
H252 H 0.69324 0.01534 0.83752 0.0
O253 O 0.41665 0.69515 0.84481 0.0
H254 H 0.5076 0.71697 0.97858 0.0
H255 H 0.40348 0.53439 0.88043 0.0
H256 H 0.78776 0.03858 0.98901 0.0
H257 H 0.51515 0.00962 0.73653 0.0
H258 H 0.826 0.15315 0.94246 0.0
H259 H 0.48007 0.16317 0.7649 0.0
O260 O 0.67512 0.76449 0.9104 0.0
H261 H 0.50409 0.43196 0.78543 0.0
H262 H 0.57959 0.52403 0.93225 0.0
H263 H 0.61136 0.36578 0.91037 0.0
H264 H 0.57403 0.31914 0.8361 0.0
H265 H 0.48256 0.59699 0.80712 0.0
H266 H 0.34164 0.45671 0.9269 0.0
H267 H 0.36184 0.51348 0.00018 0.0
O268 O 0.5929 0.69522 0.93524 0.0
C269 C 0.51982 0.88648 0.92854 0.0
C270 C 0.43701 0.61784 0.99413 0.0
C271 C 0.37789 0.51392 0.93852 0.0
N272 N 0.45933 0.63005 0.92682 0.0
C273 C 0.47173 0.6595 0.96719 0.0
C274 C 0.41326 0.55792 0.91235 0.0
C275 C 0.38946 0.54507 0.97956 0.0
C276 C 0.5518 0.94609 0.7965 0.0
N277 N 0.56726 0.95995 0.8384 0.0
C278 C 0.52239 0.01969 0.76946 0.0
C279 C 0.50377 0.10556 0.78539 0.0
C280 C 0.51628 0.11724 0.82814 0.0
C281 C 0.54966 0.04419 0.85431 0.0
C282 C 0.76198 0.09157 0.88681 0.0
C283 C 0.71855 0.96365 0.93867 0.0
C284 C 0.71377 0.02001 0.87076 0.0
N285 N 0.6918 0.95813 0.89669 0.0
C286 C 0.76674 0.03442 0.95578 0.0
C287 C 0.78839 0.09871 0.92959 0.0
C288 C 0.65584 0.71021 0.93603 0.0
C289 C 0.52353 0.45411 0.81725 0.0
C290 C 0.56595 0.50704 0.89956 0.0
C291 C 0.58304 0.41604 0.88751 0.0
C292 C 0.5617 0.38965 0.84597 0.0
N293 N 0.53099 0.57194 0.87089 0.0
C294 C 0.5104 0.54665 0.82998 0.0
Co295 Co 0.93173 0.85571 0.14234 0.0
Co296 Co 0.03967 0.69944 0.11038 0.0
O297 O 0.00212 0.75559 0.15381 0.0
C298 C 0.85886 0.72681 0.18914 0.0
O299 O 0.85711 0.65903 0.16142 0.0
C300 C 0.1619 0.76468 0.17581 0.0
O301 O 0.13515 0.85143 0.17224 0.0
O302 O 0.05855 0.82951 0.09026 0.0
O303 O 0.96543 0.91091 0.09522 0.0
H304 H 0.06806 0.66579 0.96532 0.0
H305 H 0.02108 0.82678 0.22589 0.0
O306 O 0.89271 0.80436 0.18817 0.0
H307 H 0.05042 0.16848 0.19366 0.0
H308 H 0.77285 0.09824 0.18115 0.0
H309 H 0.83794 0.93351 0.06562 0.0
H310 H 0.97364 0.06295 0.1424 0.0
H311 H 0.86779 0.98124 0.19488 0.0
O312 O 0.13228 0.69752 0.1516 0.0
H313 H 0.01135 0.71962 0.01864 0.0
H314 H 0.15506 0.56336 0.11096 0.0
H315 H 0.74249 0.04915 0.05051 0.0
H316 H 0.10078 0.92811 0.27703 0.0
H317 H 0.70924 0.13296 0.10834 0.0
H318 H 0.11288 0.10017 0.26199 0.0
O319 O 0.87291 0.76935 0.10264 0.0
H320 H 0.03764 0.43733 0.21388 0.0
H321 H 0.97707 0.52323 0.06595 0.0
H322 H 0.95132 0.35994 0.08698 0.0
H323 H 0.9822 0.3157 0.16165 0.0
H324 H 0.06098 0.60061 0.19205 0.0
H325 H 0.21762 0.51678 0.0595 0.0
H326 H 0.17388 0.5672 0.98592 0.0
O327 O 0.9455 0.69804 0.07047 0.0
C328 C 0.01655 0.89888 0.07979 0.0
C329 C 0.08756 0.6432 0.99726 0.0
C330 C 0.1714 0.55943 0.05007 0.0
N331 N 0.07974 0.64536 0.06807 0.0
C332 C 0.05506 0.67257 0.02758 0.0
C333 C 0.13612 0.58721 0.07924 0.0
C334 C 0.14688 0.58776 0.00883 0.0
C335 C 0.02759 0.90155 0.21864 0.0
N336 N 0.99228 0.9394 0.18152 0.0
C337 C 0.07286 0.9584 0.24765 0.0
C338 C 0.0802 0.05524 0.23893 0.0
C339 C 0.04462 0.09338 0.20081 0.0
C340 C 1.00108 0.03356 0.17202 0.0
C341 C 0.7871 0.06299 0.15558 0.0
C342 C 0.82452 0.97032 0.09106 0.0
C343 C 0.84102 0.99684 0.16321 0.0
N344 N 0.85947 0.95195 0.13115 0.0
C345 C 0.77013 0.03563 0.08227 0.0
C346 C 0.75145 0.08238 0.11477 0.0
C347 C 0.88494 0.7159 0.07432 0.0
C348 C 0.02444 0.45542 0.18147 0.0
C349 C 0.99029 0.50489 0.09857 0.0
C350 C 0.9757 0.41211 0.11021 0.0
C351 C 0.99314 0.38728 0.15204 0.0
N352 N 0.02091 0.57136 0.12781 0.0
C353 C 0.03761 0.54784 0.16888 0.0
Co354 Co 0.35189 0.10227 0.11858 0.0
Co355 Co 0.46569 0.28217 0.11135 0.0
O356 O 0.42138 0.19799 0.14493 0.0
C357 C 0.27963 0.2035 0.17327 0.0
O358 O 0.28867 0.28319 0.15406 0.0
C359 C 0.57921 0.22119 0.18596 0.0
O360 O 0.54291 0.14597 0.19138 0.0
O361 O 0.49466 0.16662 0.08481 0.0
O362 O 0.39876 0.0783 0.07324 0.0
H363 H 0.52189 0.38692 0.979 0.0
H364 H 0.41634 0.07592 0.20782 0.0
O365 O 0.30231 0.12336 0.16345 0.0
H366 H 0.45917 0.77257 0.14174 0.0
H367 H 0.20793 0.80146 0.10951 0.0
H368 H 0.27326 0.07195 0.03221 0.0
H369 H 0.40372 0.90952 0.09929 0.0
H370 H 0.28022 0.93405 0.14693 0.0
O371 O 0.55562 0.27999 0.15623 0.0
H372 H 0.46076 0.29301 0.02141 0.0
H373 H 0.56769 0.44298 0.12974 0.0
H374 H 0.19813 0.94447 0.99422 0.0
H375 H 0.46504 0.9384 0.2515 0.0
H376 H 0.16604 0.80708 0.03311 0.0
H377 H 0.48815 0.78463 0.2185 0.0
O378 O 0.29729 0.20545 0.08552 0.0
H379 H 0.41326 0.47372 0.22756 0.0
H380 H 0.40845 0.47339 0.07902 0.0
H381 H 0.36834 0.61671 0.10949 0.0
H382 H 0.37147 0.61828 0.18445 0.0
H383 H 0.45254 0.3315 0.19561 0.0
H384 H 0.6321 0.53509 0.08892 0.0
H385 H 0.60888 0.50838 0.01278 0.0
O386 O 0.37806 0.29131 0.06605 0.0
C387 C 0.45628 0.09887 0.06597 0.0
C388 C 0.53235 0.39955 0.01209 0.0
C389 C 0.59405 0.48303 0.07369 0.0
N390 N 0.51074 0.36216 0.07811 0.0
C391 C 0.4975 0.3471 0.03626 0.0
C392 C 0.55786 0.42984 0.09679 0.0
C393 C 0.58114 0.4677 0.03105 0.0
C394 C 0.42479 0.00917 0.19329 0.0
N395 N 0.40576 0.00036 0.15117 0.0
C396 C 0.45372 0.93167 0.21818 0.0
C397 C 0.46621 0.84579 0.19965 0.0
C398 C 0.44988 0.83887 0.15653 0.0
C399 C 0.41937 0.91731 0.13261 0.0
C400 C 0.22073 0.86207 0.09266 0.0
C401 C 0.25825 0.01377 0.04945 0.0
C402 C 0.26188 0.93696 0.11351 0.0
N403 N 0.28229 0.00971 0.09166 0.0
C404 C 0.21602 0.94133 0.02772 0.0
C405 C 0.19783 0.86445 0.04956 0.0
C406 C 0.31537 0.27185 0.06425 0.0
C407 C 0.41239 0.47459 0.19499 0.0
C408 C 0.41072 0.4736 0.11179 0.0
C409 C 0.38745 0.55489 0.12879 0.0
C410 C 0.38888 0.55552 0.17081 0.0
N411 N 0.43569 0.39549 0.13604 0.0
C412 C 0.43523 0.39452 0.17687 0.0
Co413 Co 0.10935 0.17282 0.87074 0.0
Co414 Co 0.95785 0.2711 0.8783 0.0
O415 O 0.0154 0.21533 0.8438 0.0
C416 C 0.19051 0.27671 0.82114 0.0
O417 O 0.22456 0.31434 0.85657 0.0
C418 C 0.85743 0.17689 0.80392 0.0
O419 O 0.90587 0.12257 0.796 0.0
O420 O 0.96389 0.14467 0.90741 0.0
O421 O 0.07889 0.12828 0.92164 0.0
H422 H 0.88922 0.32646 0.01172 0.0
H423 H 0.0707 0.08912 0.78521 0.0
O424 O 0.14033 0.2192 0.82046 0.0
H425 H 0.12205 0.81203 0.88055 0.0
H426 H 0.34401 0.05085 0.87002 0.0
H427 H 0.19986 0.17656 0.95757 0.0
H428 H 0.11738 0.97481 0.90755 0.0
H429 H 0.22081 0.07784 0.84081 0.0
O430 O 0.87086 0.232 0.83571 0.0
H431 H 0.95966 0.25971 0.9678 0.0
H432 H 0.82912 0.38834 0.86107 0.0
H433 H 0.3245 0.15482 0.98755 0.0
H434 H 0.09388 0.93026 0.75887 0.0
H435 H 0.39728 0.09586 0.9431 0.0
H436 H 0.11328 0.78866 0.80545 0.0
O437 O 0.12719 0.30372 0.89415 0.0
H438 H 0.90973 0.49099 0.75458 0.0
H439 H 0.98313 0.47497 0.90709 0.0
H440 H 0.97163 0.63326 0.87254 0.0
H441 H 0.93321 0.64226 0.7956 0.0
H442 H 0.92792 0.33443 0.78996 0.0
H443 H 0.75586 0.45378 0.90356 0.0
H444 H 0.78624 0.42413 0.9796 0.0
O445 O 0.04026 0.31542 0.92289 0.0
C446 C 0.02051 0.10902 0.92884 0.0
C447 C 0.87586 0.34083 0.97871 0.0
C448 C 0.80083 0.4118 0.91799 0.0
N449 N 0.89972 0.32166 0.91203 0.0
C450 C 0.91605 0.30394 0.95373 0.0
C451 C 0.84243 0.3741 0.89404 0.0
C452 C 0.81794 0.39526 0.96064 0.0
C453 C 0.08264 0.02916 0.80633 0.0
N454 N 0.0927 0.04308 0.84796 0.0
C455 C 0.09315 0.93846 0.79085 0.0
C456 C 0.10586 0.85937 0.81733 0.0
C457 C 0.11078 0.8725 0.85936 0.0
C458 C 0.10581 0.96548 0.87435 0.0
C459 C 0.31286 0.07912 0.88943 0.0
C460 C 0.23136 0.15061 0.93813 0.0
C461 C 0.2428 0.0945 0.87313 0.0
N462 N 0.20346 0.13413 0.89691 0.0
C463 C 0.3016 0.1372 0.95542 0.0
C464 C 0.34261 0.10326 0.93057 0.0
C465 C 0.10196 0.33513 0.92271 0.0
C466 C 0.92693 0.48825 0.788 0.0
C467 C 0.96883 0.47788 0.87356 0.0
C468 C 0.96158 0.56797 0.85419 0.0
C469 C 0.9399 0.57301 0.81108 0.0
N470 N 0.95544 0.39498 0.85062 0.0
C471 C 0.93663 0.39946 0.8083 0.0
C472 C 0.95809 0.43835 0.48861 0.0
C473 C 0.99249 0.47405 0.4599 0.0
C474 C 0.9648 0.48213 0.5274 0.0
C475 C 0.00665 0.56419 0.5398 0.0
H476 H 0.92661 0.37468 0.48159 0.0
H477 H 0.93599 0.45133 0.5477 0.0
S478 S 0.10534 0.69028 0.47521 0.0
N479 N 0.06807 0.59959 0.4461 0.0
N480 N 0.08278 0.67961 0.51931 0.0
C481 C 0.04205 0.60031 0.51157 0.0
C482 C 0.03432 0.55622 0.47167 0.0
C483 C 0.56137 0.54986 0.49714 0.0
C484 C 0.51428 0.53875 0.45813 0.0
C485 C 0.55089 0.50555 0.53287 0.0
C486 C 0.49393 0.44598 0.53044 0.0
H487 H 0.60739 0.59203 0.49989 0.0
H488 H 0.58723 0.51827 0.56249 0.0
S489 S 0.36679 0.37062 0.43427 0.0
N490 N 0.41587 0.44984 0.41818 0.0
N491 N 0.39531 0.3662 0.48533 0.0
C492 C 0.44844 0.42954 0.4913 0.0
C493 C 0.45898 0.47552 0.45499 0.0
C494 C 0.43588 0.96508 0.01356 0.0
C495 C 0.4759 0.04456 0.03213 0.0
C496 C 0.44954 0.91608 0.97976 0.0
C497 C 0.50409 0.94377 0.96292 0.0
H498 H 0.39263 0.94083 0.0247 0.0
H499 H 0.41674 0.85598 0.9668 0.0
S500 S 0.62307 0.14982 0.99889 0.0
N501 N 0.57194 0.14964 0.0305 0.0
N502 N 0.5976 0.05832 0.96712 0.0
C503 C 0.54462 0.02329 0.98117 0.0
C504 C 0.53067 0.0732 0.0157 0.0
C505 C 0.06792 0.02326 0.04136 0.0
C506 C 0.01746 0.95353 0.04172 0.0
C507 C 0.06934 0.07205 0.00444 0.0
C508 C 0.01995 0.05339 0.96685 0.0
H509 H 0.1065 0.03995 0.06965 0.0
H510 H 0.10903 0.12538 0.00539 0.0
S511 S 0.88333 0.86795 0.95063 0.0
N512 N 0.92025 0.86331 0.00088 0.0
N513 N 0.92353 0.95405 0.93179 0.0
C514 C 0.97028 0.98246 0.96683 0.0
C515 C 0.96885 0.93293 0.00423 0.0
C516 C 0.65463 0.21947 0.25866 0.0
C517 C 0.64603 0.24164 0.21643 0.0
C518 C 0.71608 0.24054 0.28851 0.0
C519 C 0.77183 0.28464 0.27738 0.0
H520 H 0.6131 0.18623 0.26887 0.0
H521 H 0.71967 0.22229 0.32058 0.0
S522 S 0.78043 0.34162 0.16978 0.0
N523 N 0.7016 0.30039 0.16435 0.0
N524 N 0.81696 0.33982 0.22016 0.0
C525 C 0.76487 0.3042 0.23496 0.0
C526 C 0.70216 0.28268 0.20458 0.0
C527 C 0.67956 0.27424 0.75067 0.0
C528 C 0.66494 0.23235 0.711 0.0
C529 C 0.74012 0.25218 0.78093 0.0
C530 C 0.78929 0.18754 0.77286 0.0
H531 H 0.64422 0.3257 0.75829 0.0
H532 H 0.749 0.28846 0.81057 0.0
S533 S 0.77145 0.05099 0.67461 0.0
N534 N 0.70142 0.1175 0.66603 0.0
N535 N 0.81542 0.0764 0.72243 0.0
C536 C 0.77338 0.14155 0.73377 0.0
C537 C 0.71124 0.16369 0.70304 0.0
C538 C 0.24372 0.65711 0.74022 0.0
C539 C 0.20864 0.73841 0.71982 0.0
C540 C 0.30252 0.66674 0.77348 0.0
C541 C 0.32899 0.75812 0.78771 0.0
H542 H 0.22579 0.58508 0.73049 0.0
H543 H 0.32771 0.60191 0.78783 0.0
S544 S 0.25609 0.99388 0.74633 0.0
N545 N 0.20494 0.91379 0.71734 0.0
N546 N 0.31468 0.9313 0.77946 0.0
C547 C 0.29436 0.83982 0.76781 0.0
C548 C 0.23455 0.83017 0.73404 0.0
C549 C 0.32872 0.80294 0.2593 0.0
C550 C 0.34858 0.70859 0.27299 0.0
C551 C 0.26879 0.82055 0.2278 0.0
C552 C 0.22647 0.74443 0.2082 0.0
H553 H 0.35954 0.86407 0.27315 0.0
H554 H 0.25572 0.89452 0.21876 0.0
S555 S 0.25446 0.48477 0.23312 0.0
N556 N 0.31946 0.53871 0.26529 0.0
N557 N 0.2087 0.57096 0.20519 0.0
C558 C 0.24596 0.64981 0.2214 0.0
C559 C 0.30635 0.63215 0.25397 0.0
C560 C 0.19044 0.2709 0.20515 0.0
C561 C 0.24667 0.20932 0.20807 0.0
C562 C 0.16483 0.28946 0.23981 0.0
C563 C 0.19515 0.24898 0.27875 0.0
H564 H 0.16747 0.30758 0.17623 0.0
H565 H 0.12318 0.33942 0.23666 0.0
S566 S 0.33621 0.06992 0.30068 0.0
N567 N 0.3261 0.0976 0.25133 0.0
N568 N 0.27922 0.13444 0.31678 0.0
C569 C 0.24873 0.18241 0.28135 0.0
C570 C 0.27391 0.16188 0.24584 0.0
C571 C 0.30194 0.36803 0.75215 0.0
C572 C 0.2786 0.31425 0.71559 0.0
C573 C 0.27186 0.35689 0.78557 0.0
C574 C 0.2171 0.29181 0.78368 0.0
H575 H 0.34503 0.41692 0.75547 0.0
H576 H 0.29274 0.39867 0.81339 0.0
S577 S 0.13047 0.1457 0.69165 0.0
N578 N 0.19266 0.20246 0.67721 0.0
N579 N 0.13751 0.17901 0.74012 0.0
C580 C 0.19172 0.24053 0.74641 0.0
C581 C 0.22202 0.25255 0.71235 0.0
C582 C 0.76311 0.82667 0.78037 0.0
C583 C 0.7305 0.74323 0.79044 0.0
C584 C 0.80307 0.82375 0.75148 0.0
C585 C 0.81146 0.73774 0.73112 0.0
H586 H 0.75815 0.89503 0.79503 0.0
H587 H 0.82781 0.8893 0.74519 0.0
S588 S 0.73515 0.50018 0.74521 0.0
N589 N 0.70983 0.57204 0.77782 0.0
N590 N 0.78173 0.56786 0.72213 0.0
C591 C 0.77896 0.65403 0.74083 0.0
C592 C 0.73937 0.65645 0.77081 0.0
C593 C 0.83721 0.77409 0.25731 0.0
C594 C 0.822 0.7136 0.22223 0.0
C595 C 0.80412 0.76309 0.28932 0.0
C596 C 0.75375 0.69172 0.28737 0.0
H597 H 0.87527 0.83032 0.26016 0.0
H598 H 0.81821 0.81101 0.31583 0.0
S599 S 0.68354 0.52992 0.1983 0.0
N600 N 0.74588 0.58893 0.18491 0.0
N601 N 0.68394 0.56818 0.24521 0.0
C602 C 0.73598 0.63321 0.25183 0.0
C603 C 0.76977 0.64439 0.21916 0.0
C604 C 0.20761 0.29353 0.528 0.0
C605 C 0.26776 0.2381 0.5327 0.0
C606 C 0.15164 0.28113 0.49392 0.0
C607 C 0.15396 0.21392 0.463 0.0
H608 H 0.20441 0.35044 0.54968 0.0
H609 H 0.1083 0.3294 0.49026 0.0
S610 S 0.28611 0.02945 0.46664 0.0
N611 N 0.31789 0.0974 0.50784 0.0
N612 N 0.21212 0.07791 0.4426 0.0
C613 C 0.20998 0.15216 0.46873 0.0
C614 C 0.26702 0.16319 0.50396 0.0
C615 C 0.83555 0.81557 0.50519 0.0
C616 C 0.81798 0.80679 0.54337 0.0
C617 C 0.78635 0.80302 0.46774 0.0
C618 C 0.71792 0.78433 0.46738 0.0
H619 H 0.88832 0.82364 0.50398 0.0
H620 H 0.8026 0.80264 0.4391 0.0
S621 S 0.64364 0.76977 0.55837 0.0
N622 N 0.72626 0.78901 0.57832 0.0
N623 N 0.63297 0.77112 0.50761 0.0
C624 C 0.69823 0.78696 0.50496 0.0
C625 C 0.74858 0.79695 0.54316 0.0
C626 C 0.83175 0.65883 0.00232 0.0
C627 C 0.82448 0.68509 0.04172 0.0
C628 C 0.77483 0.65775 0.96808 0.0
C629 C 0.70917 0.68096 0.97253 0.0
H630 H 0.88208 0.64742 0.99709 0.0
H631 H 0.78295 0.64563 0.93752 0.0
S632 S 0.66091 0.73533 0.07026 0.0
N633 N 0.74454 0.71807 0.08431 0.0
N634 N 0.63846 0.71782 0.01966 0.0
C635 C 0.70005 0.69567 0.01235 0.0
C636 C 0.75768 0.69701 0.04716 0.0
C637 C 0.27446 0.35379 0.99582 0.0
C638 C 0.2607 0.31907 0.03245 0.0
C639 C 0.22091 0.37671 0.96136 0.0
C640 C 0.15196 0.36186 0.96202 0.0
H641 H 0.32633 0.35352 0.99217 0.0
H642 H 0.23372 0.39384 0.93252 0.0
S643 S 0.09024 0.31029 0.0558 0.0
N644 N 0.17436 0.2989 0.07139 0.0
N645 N 0.07368 0.34051 0.00631 0.0
C646 C 0.13801 0.34342 0.00059 0.0
C647 C 0.19251 0.3208 0.0358 0.0
loop_
_geom_bond_atom_site_label_1
_geom_bond_atom_site_label_2
_geom_bond_distance
_geom_bond_site_symmetry_2
_ccdc_geom_bond_type
Co0 O2 2.143 . S
Co0 O8 2.074 . S
Co0 O11 2.093 . S
Co0 O24 2.097 . S
Co0 N41 2.151 . S
Co0 N49 2.214 . S
Co1 O2 2.160 . S
Co1 O7 2.058 1_455 S
Co1 O17 2.057 1_455 S
Co1 O32 2.037 . S
Co1 N36 2.144 1_455 S
Co1 N57 2.257 . S
O2 Co0 2.143 . S
O2 Co1 2.160 . S
C3 O4 1.278 . S
C3 O11 1.224 . S
O4 C3 1.278 . S
C5 O6 1.245 . S
C5 O17 1.232 . S
O6 C5 1.245 . S
O7 Co1 2.058 1_655 S
O7 C33 1.269 1_655 S
O8 Co0 2.074 . S
O8 C33 1.257 . S
H9 C34 0.930 . S
H10 C40 0.930 . S
O11 Co0 2.093 . S
O11 C3 1.224 . S
H12 C44 0.929 . S
H13 C46 0.930 . S
H14 C47 0.930 . S
H15 C45 0.929 . S
H16 C48 0.928 . S
O17 Co1 2.057 1_655 S
O17 C5 1.232 . S
H18 C37 0.929 1_455 S
H19 C38 0.929 . S
H20 C50 0.931 . S
H21 C42 0.929 . S
H22 C51 0.930 . S
H23 C43 0.931 . S
O24 Co0 2.097 . S
O24 C52 1.214 . S
H25 C53 0.929 . S
H26 C54 0.929 . S
H27 C55 0.930 . S
H28 C56 0.929 . S
H29 C58 0.930 1_655 S
H30 C35 0.930 . S
H31 C39 0.930 . S
O32 Co1 2.037 . S
O32 C52 1.234 . S
C33 O7 1.269 1_455 S
C33 O8 1.257 . S
C34 H9 0.930 . S
C34 C37 1.388 . S
C34 C39 1.418 1_545 S
C35 H30 0.930 . S
C35 C38 1.404 1_565 S
C35 C39 1.353 . S
N36 Co1 2.144 1_655 S
N36 C37 1.397 . S
N36 C38 1.334 . S
C37 H18 0.929 1_655 S
C37 C34 1.388 . S
C37 N36 1.397 . S
C38 H19 0.929 . S
C38 C35 1.404 1_545 S
C38 N36 1.334 . S
C39 H31 0.930 . S
C39 C34 1.418 1_565 S
C39 C35 1.353 . S
C40 H10 0.930 . S
C40 N41 1.330 . S
C40 C42 1.446 . S
N41 Co0 2.151 . S
N41 C40 1.330 . S
N41 C45 1.418 . S
C42 H21 0.929 . S
C42 C40 1.446 . S
C42 C43 1.332 . S
C43 H23 0.931 . S
C43 C42 1.332 . S
C43 C44 1.267 . S
C44 H12 0.929 . S
C44 C43 1.267 . S
C44 C45 1.251 . S
C45 H15 0.929 . S
C45 N41 1.418 . S
C45 C44 1.251 . S
C46 H13 0.930 . S
C46 C48 1.406 . S
C46 C51 1.261 . S
C47 H14 0.930 . S
C47 N49 1.325 . S
C47 C50 1.357 . S
C48 H16 0.928 . S
C48 C46 1.406 . S
C48 N49 1.261 . S
N49 Co0 2.214 . S
N49 C47 1.325 . S
N49 C48 1.261 . S
C50 H20 0.931 . S
C50 C47 1.357 . S
C50 C51 1.312 . S
C51 H22 0.930 . S
C51 C46 1.261 . S
C51 C50 1.312 . S
C52 O24 1.214 . S
C52 O32 1.234 . S
C53 H25 0.929 . S
C53 C56 1.391 . S
C53 C58 1.391 1_565 S
C54 H26 0.929 . S
C54 C55 1.390 . S
C54 N57 1.391 1_565 S
C55 H27 0.930 . S
C55 C54 1.390 . S
C55 C56 1.392 . S
C56 H28 0.929 . S
C56 C53 1.391 . S
C56 C55 1.392 . S
N57 Co1 2.257 . S
N57 C54 1.391 1_545 S
N57 C58 1.388 . S
C58 H29 0.930 1_455 S
C58 C53 1.391 1_545 S
C58 N57 1.388 . S
Co59 O61 2.143 . S
Co59 O67 2.074 . S
Co59 O70 2.093 . S
Co59 O83 2.097 . S
Co59 N100 2.151 . S
Co59 N108 2.214 . S
Co60 O61 2.160 . S
Co60 O66 2.058 . S
Co60 O76 2.057 . S
Co60 O91 2.037 . S
Co60 N95 2.145 . S
Co60 N116 2.257 . S
O61 Co59 2.143 . S
O61 Co60 2.160 . S
C62 O63 1.278 . S
C62 O70 1.224 . S
O63 C62 1.278 . S
C64 O65 1.245 . S
C64 O76 1.232 . S
O65 C64 1.245 . S
O66 Co60 2.058 . S
O66 C92 1.269 . S
O67 Co59 2.074 . S
O67 C92 1.257 . S
H68 C93 0.930 . S
H69 C99 0.930 . S
O70 Co59 2.093 . S
O70 C62 1.224 . S
H71 C103 0.929 . S
H72 C105 0.930 . S
H73 C106 0.930 . S
H74 C104 0.929 . S
H75 C107 0.928 . S
O76 Co60 2.057 . S
O76 C64 1.232 . S
H77 C96 0.929 . S
H78 C97 0.929 . S
H79 C109 0.931 . S
H80 C101 0.929 . S
H81 C110 0.930 . S
H82 C102 0.931 . S
O83 Co59 2.097 . S
O83 C111 1.214 . S
H84 C112 0.929 . S
H85 C113 0.929 . S
H86 C114 0.930 . S
H87 C115 0.929 . S
H88 C117 0.930 . S
H89 C94 0.930 . S
H90 C98 0.930 . S
O91 Co60 2.037 . S
O91 C111 1.234 . S
C92 O66 1.269 . S
C92 O67 1.257 . S
C93 H68 0.930 . S
C93 C96 1.388 . S
C93 C98 1.418 1_545 S
C94 H89 0.930 . S
C94 C97 1.404 1_565 S
C94 C98 1.353 . S
N95 Co60 2.145 . S
N95 C96 1.397 . S
N95 C97 1.334 . S
C96 H77 0.929 . S
C96 C93 1.388 . S
C96 N95 1.397 . S
C97 H78 0.929 . S
C97 C94 1.404 1_545 S
C97 N95 1.334 . S
C98 H90 0.930 . S
C98 C93 1.418 1_565 S
C98 C94 1.353 . S
C99 H69 0.930 . S
C99 N100 1.330 . S
C99 C101 1.446 . S
N100 Co59 2.151 . S
N100 C99 1.330 . S
N100 C104 1.418 . S
C101 H80 0.929 . S
C101 C99 1.446 . S
C101 C102 1.332 . S
C102 H82 0.931 . S
C102 C101 1.332 . S
C102 C103 1.267 . S
C103 H71 0.929 . S
C103 C102 1.267 . S
C103 C104 1.251 . S
C104 H74 0.929 . S
C104 N100 1.418 . S
C104 C103 1.251 . S
C105 H72 0.930 . S
C105 C107 1.406 . S
C105 C110 1.261 . S
C106 H73 0.930 . S
C106 N108 1.325 . S
C106 C109 1.357 . S
C107 H75 0.928 . S
C107 C105 1.406 . S
C107 N108 1.261 . S
N108 Co59 2.214 . S
N108 C106 1.325 . S
N108 C107 1.261 . S
C109 H79 0.931 . S
C109 C106 1.357 . S
C109 C110 1.312 . S
C110 H81 0.930 . S
C110 C105 1.261 . S
C110 C109 1.312 . S
C111 O83 1.214 . S
C111 O91 1.234 . S
C112 H84 0.929 . S
C112 C115 1.391 . S
C112 C117 1.391 1_565 S
C113 H85 0.929 . S
C113 C114 1.390 . S
C113 N116 1.391 1_565 S
C114 H86 0.930 . S
C114 C113 1.390 . S
C114 C115 1.392 . S
C115 H87 0.929 . S
C115 C112 1.391 . S
C115 C114 1.392 . S
N116 Co60 2.257 . S
N116 C113 1.391 1_545 S
N116 C117 1.388 . S
C117 H88 0.930 . S
C117 C112 1.391 1_545 S
C117 N116 1.388 . S
Co118 O120 2.143 . S
Co118 O126 2.074 . S
Co118 O129 2.093 . S
Co118 O142 2.097 . S
Co118 N159 2.151 . S
Co118 N167 2.214 . S
Co119 O120 2.160 . S
Co119 O125 2.058 1_655 S
Co119 O135 2.057 1_655 S
Co119 O150 2.037 . S
Co119 N154 2.144 1_655 S
Co119 N175 2.257 . S
O120 Co118 2.143 . S
O120 Co119 2.160 . S
C121 O122 1.278 . S
C121 O129 1.224 . S
O122 C121 1.278 . S
C123 O124 1.245 . S
C123 O135 1.232 . S
O124 C123 1.245 . S
O125 Co119 2.058 1_455 S
O125 C151 1.269 1_455 S
O126 Co118 2.074 . S
O126 C151 1.257 . S
H127 C152 0.930 . S
H128 C158 0.930 . S
O129 Co118 2.093 . S
O129 C121 1.224 . S
H130 C162 0.929 . S
H131 C164 0.930 . S
H132 C165 0.930 . S
H133 C163 0.929 . S
H134 C166 0.928 . S
O135 Co119 2.057 1_455 S
O135 C123 1.232 . S
H136 C155 0.929 1_655 S
H137 C156 0.929 . S
H138 C168 0.931 . S
H139 C160 0.929 . S
H140 C169 0.930 . S
H141 C161 0.931 . S
O142 Co118 2.097 . S
O142 C170 1.214 . S
H143 C171 0.929 . S
H144 C172 0.929 . S
H145 C173 0.930 . S
H146 C174 0.929 . S
H147 C176 0.930 1_455 S
H148 C153 0.930 . S
H149 C157 0.930 . S
O150 Co119 2.037 . S
O150 C170 1.234 . S
C151 O125 1.269 1_655 S
C151 O126 1.257 . S
C152 H127 0.930 . S
C152 C155 1.388 . S
C152 C157 1.418 1_565 S
C153 H148 0.930 . S
C153 C156 1.404 1_545 S
C153 C157 1.353 . S
N154 Co119 2.144 1_455 S
N154 C155 1.397 . S
N154 C156 1.334 . S
C155 H136 0.929 1_455 S
C155 C152 1.388 . S
C155 N154 1.397 . S
C156 H137 0.929 . S
C156 C153 1.404 1_565 S
C156 N154 1.334 . S
C157 H149 0.930 . S
C157 C152 1.418 1_545 S
C157 C153 1.353 . S
C158 H128 0.930 . S
C158 N159 1.330 . S
C158 C160 1.446 . S
N159 Co118 2.151 . S
N159 C158 1.330 . S
N159 C163 1.418 . S
C160 H139 0.929 . S
C160 C158 1.446 . S
C160 C161 1.332 . S
C161 H141 0.931 . S
C161 C160 1.332 . S
C161 C162 1.267 . S
C162 H130 0.929 . S
C162 C161 1.267 . S
C162 C163 1.251 . S
C163 H133 0.929 . S
C163 N159 1.418 . S
C163 C162 1.251 . S
C164 H131 0.930 . S
C164 C166 1.406 . S
C164 C169 1.261 . S
C165 H132 0.930 . S
C165 N167 1.325 . S
C165 C168 1.357 . S
C166 H134 0.928 . S
C166 C164 1.406 . S
C166 N167 1.261 . S
N167 Co118 2.214 . S
N167 C165 1.325 . S
N167 C166 1.261 . S
C168 H138 0.931 . S
C168 C165 1.357 . S
C168 C169 1.312 . S
C169 H140 0.930 . S
C169 C164 1.261 . S
C169 C168 1.312 . S
C170 O142 1.214 . S
C170 O150 1.234 . S
C171 H143 0.929 . S
C171 C174 1.391 . S
C171 C176 1.391 1_545 S
C172 H144 0.929 . S
C172 C173 1.390 . S
C172 N175 1.391 1_545 S
C173 H145 0.930 . S
C173 C172 1.390 . S
C173 C174 1.392 . S
C174 H146 0.929 . S
C174 C171 1.391 . S
C174 C173 1.392 . S
N175 Co119 2.257 . S
N175 C172 1.391 1_565 S
N175 C176 1.388 . S
C176 H147 0.930 1_655 S
C176 C171 1.391 1_565 S
C176 N175 1.388 . S
Co177 O179 2.143 . S
Co177 O185 2.074 . S
Co177 O188 2.093 . S
Co177 O201 2.097 . S
Co177 N218 2.151 . S
Co177 N226 2.214 . S
Co178 O179 2.160 . S
Co178 O184 2.058 . S
Co178 O194 2.057 . S
Co178 O209 2.037 . S
Co178 N213 2.145 . S
Co178 N234 2.257 . S
O179 Co177 2.143 . S
O179 Co178 2.160 . S
C180 O181 1.278 . S
C180 O188 1.224 . S
O181 C180 1.278 . S
C182 O183 1.245 . S
C182 O194 1.232 . S
O183 C182 1.245 . S
O184 Co178 2.058 . S
O184 C210 1.269 . S
O185 Co177 2.074 . S
O185 C210 1.257 . S
H186 C211 0.930 . S
H187 C217 0.930 . S
O188 Co177 2.093 . S
O188 C180 1.224 . S
H189 C221 0.929 . S
H190 C223 0.930 . S
H191 C224 0.930 . S
H192 C222 0.929 . S
H193 C225 0.928 . S
O194 Co178 2.057 . S
O194 C182 1.232 . S
H195 C214 0.929 . S
H196 C215 0.929 . S
H197 C227 0.931 . S
H198 C219 0.929 . S
H199 C228 0.930 . S
H200 C220 0.931 . S
O201 Co177 2.097 . S
O201 C229 1.214 . S
H202 C230 0.929 . S
H203 C231 0.929 . S
H204 C232 0.930 . S
H205 C233 0.929 . S
H206 C235 0.930 . S
H207 C212 0.930 . S
H208 C216 0.930 . S
O209 Co178 2.037 . S
O209 C229 1.234 . S
C210 O184 1.269 . S
C210 O185 1.257 . S
C211 H186 0.930 . S
C211 C214 1.388 . S
C211 C216 1.418 1_565 S
C212 H207 0.930 . S
C212 C215 1.404 1_545 S
C212 C216 1.353 . S
N213 Co178 2.145 . S
N213 C214 1.397 . S
N213 C215 1.334 . S
C214 H195 0.929 . S
C214 C211 1.388 . S
C214 N213 1.397 . S
C215 H196 0.929 . S
C215 C212 1.404 1_565 S
C215 N213 1.334 . S
C216 H208 0.930 . S
C216 C211 1.418 1_545 S
C216 C212 1.353 . S
C217 H187 0.930 . S
C217 N218 1.330 . S
C217 C219 1.446 . S
N218 Co177 2.151 . S
N218 C217 1.330 . S
N218 C222 1.418 . S
C219 H198 0.929 . S
C219 C217 1.446 . S
C219 C220 1.332 . S
C220 H200 0.931 . S
C220 C219 1.332 . S
C220 C221 1.267 . S
C221 H189 0.929 . S
C221 C220 1.267 . S
C221 C222 1.251 . S
C222 H192 0.929 . S
C222 N218 1.418 . S
C222 C221 1.251 . S
C223 H190 0.930 . S
C223 C225 1.406 . S
C223 C228 1.261 . S
C224 H191 0.930 . S
C224 N226 1.325 . S
C224 C227 1.357 . S
C225 H193 0.928 . S
C225 C223 1.406 . S
C225 N226 1.261 . S
N226 Co177 2.214 . S
N226 C224 1.325 . S
N226 C225 1.261 . S
C227 H197 0.931 . S
C227 C224 1.357 . S
C227 C228 1.312 . S
C228 H199 0.930 . S
C228 C223 1.261 . S
C228 C227 1.312 . S
C229 O201 1.214 . S
C229 O209 1.234 . S
C230 H202 0.929 . S
C230 C233 1.391 . S
C230 C235 1.391 1_545 S
C231 H203 0.929 . S
C231 C232 1.390 . S
C231 N234 1.391 1_545 S
C232 H204 0.930 . S
C232 C231 1.390 . S
C232 C233 1.392 . S
C233 H205 0.929 . S
C233 C230 1.391 . S
C233 C232 1.392 . S
N234 Co178 2.257 . S
N234 C231 1.391 1_565 S
N234 C235 1.388 . S
C235 H206 0.930 . S
C235 C230 1.391 1_565 S
C235 N234 1.388 . S
Co236 O238 2.143 . S
Co236 O244 2.074 . S
Co236 O247 2.093 . S
Co236 O260 2.097 . S
Co236 N277 2.151 . S
Co236 N285 2.214 . S
Co237 O238 2.160 . S
Co237 O243 2.058 . S
Co237 O253 2.057 . S
Co237 O268 2.037 . S
Co237 N272 2.145 . S
Co237 N293 2.257 . S
O238 Co236 2.143 . S
O238 Co237 2.160 . S
C239 O240 1.278 . S
C239 O247 1.224 . S
O240 C239 1.278 . S
C241 O242 1.245 . S
C241 O253 1.232 . S
O242 C241 1.245 . S
O243 Co237 2.058 . S
O243 C269 1.269 . S
O244 Co236 2.074 . S
O244 C269 1.257 . S
H245 C270 0.930 . S
H246 C276 0.930 . S
O247 Co236 2.093 . S
O247 C239 1.224 . S
H248 C280 0.929 . S
H249 C282 0.930 . S
H250 C283 0.930 . S
H251 C281 0.929 . S
H252 C284 0.928 . S
O253 Co237 2.057 . S
O253 C241 1.232 . S
H254 C273 0.929 . S
H255 C274 0.929 . S
H256 C286 0.931 1_554 S
H257 C278 0.929 . S
H258 C287 0.930 . S
H259 C279 0.931 . S
O260 Co236 2.097 . S
O260 C288 1.214 . S
H261 C289 0.929 . S
H262 C290 0.929 . S
H263 C291 0.930 . S
H264 C292 0.929 . S
H265 C294 0.930 . S
H266 C271 0.930 . S
H267 C275 0.930 1_554 S
O268 Co237 2.037 . S
O268 C288 1.234 . S
C269 O243 1.269 . S
C269 O244 1.257 . S
C270 H245 0.930 . S
C270 C273 1.388 1_554 S
C270 C275 1.418 1_554 S
C271 H266 0.930 . S
C271 C274 1.404 . S
C271 C275 1.353 . S
N272 Co237 2.145 . S
N272 C273 1.397 . S
N272 C274 1.334 . S
C273 H254 0.929 . S
C273 C270 1.388 1_556 S
C273 N272 1.397 . S
C274 H255 0.929 . S
C274 C271 1.404 . S
C274 N272 1.334 . S
C275 H267 0.930 1_556 S
C275 C270 1.418 1_556 S
C275 C271 1.353 . S
C276 H246 0.930 . S
C276 N277 1.330 . S
C276 C278 1.446 1_565 S
N277 Co236 2.151 . S
N277 C276 1.330 . S
N277 C281 1.418 1_565 S
C278 H257 0.929 . S
C278 C276 1.446 1_545 S
C278 C279 1.332 . S
C279 H259 0.931 . S
C279 C278 1.332 . S
C279 C280 1.267 . S
C280 H248 0.929 . S
C280 C279 1.267 . S
C280 C281 1.251 . S
C281 H251 0.929 . S
C281 N277 1.418 1_545 S
C281 C280 1.251 . S
C282 H249 0.930 . S
C282 C284 1.406 . S
C282 C287 1.261 . S
C283 H250 0.930 . S
C283 N285 1.325 . S
C283 C286 1.357 1_565 S
C284 H252 0.928 . S
C284 C282 1.406 . S
C284 N285 1.261 1_545 S
N285 Co236 2.214 . S
N285 C283 1.325 . S
N285 C284 1.261 1_565 S
C286 H256 0.931 1_556 S
C286 C283 1.357 1_545 S
C286 C287 1.312 . S
C287 H258 0.930 . S
C287 C282 1.261 . S
C287 C286 1.312 . S
C288 O260 1.214 . S
C288 O268 1.234 . S
C289 H261 0.929 . S
C289 C292 1.391 . S
C289 C294 1.391 . S
C290 H262 0.929 . S
C290 C291 1.390 . S
C290 N293 1.391 . S
C291 H263 0.930 . S
C291 C290 1.390 . S
C291 C292 1.392 . S
C292 H264 0.929 . S
C292 C289 1.391 . S
C292 C291 1.392 . S
N293 Co237 2.257 . S
N293 C290 1.391 . S
N293 C294 1.388 . S
C294 H265 0.930 . S
C294 C289 1.391 . S
C294 N293 1.388 . S
Co295 O297 2.143 . S
Co295 O303 2.074 . S
Co295 O306 2.093 . S
Co295 O319 2.097 . S
Co295 N336 2.151 . S
Co295 N344 2.214 . S
Co296 O297 2.160 . S
Co296 O302 2.058 1_655 S
Co296 O312 2.057 1_655 S
Co296 O327 2.037 . S
Co296 N331 2.144 1_655 S
Co296 N352 2.257 . S
O297 Co295 2.143 . S
O297 Co296 2.160 . S
C298 O299 1.278 . S
C298 O306 1.224 . S
O299 C298 1.278 . S
C300 O301 1.245 . S
C300 O312 1.232 . S
O301 C300 1.245 . S
O302 Co296 2.058 1_455 S
O302 C328 1.269 1_455 S
O303 Co295 2.074 . S
O303 C328 1.257 . S
H304 C329 0.930 . S
H305 C335 0.930 . S
O306 Co295 2.093 . S
O306 C298 1.224 . S
H307 C339 0.929 . S
H308 C341 0.930 . S
H309 C342 0.930 . S
H310 C340 0.929 . S
H311 C343 0.928 . S
O312 Co296 2.057 1_455 S
O312 C300 1.232 . S
H313 C332 0.929 1_655 S
H314 C333 0.929 . S
H315 C345 0.931 1_556 S
H316 C337 0.929 . S
H317 C346 0.930 . S
H318 C338 0.931 . S
O319 Co295 2.097 . S
O319 C347 1.214 . S
H320 C348 0.929 . S
H321 C349 0.929 . S
H322 C350 0.930 . S
H323 C351 0.929 . S
H324 C353 0.930 1_455 S
H325 C330 0.930 . S
H326 C334 0.930 1_556 S
O327 Co296 2.037 . S
O327 C347 1.234 . S
C328 O302 1.269 1_655 S
C328 O303 1.257 . S
C329 H304 0.930 . S
C329 C332 1.388 1_556 S
C329 C334 1.418 1_556 S
C330 H325 0.930 . S
C330 C333 1.404 . S
C330 C334 1.353 . S
N331 Co296 2.144 1_455 S
N331 C332 1.397 . S
N331 C333 1.334 . S
C332 H313 0.929 1_455 S
C332 C329 1.388 1_554 S
C332 N331 1.397 . S
C333 H314 0.929 . S
C333 C330 1.404 . S
C333 N331 1.334 . S
C334 H326 0.930 1_554 S
C334 C329 1.418 1_554 S
C334 C330 1.353 . S
C335 H305 0.930 . S
C335 N336 1.330 . S
C335 C337 1.446 1_565 S
N336 Co295 2.151 . S
N336 C335 1.330 . S
N336 C340 1.418 1_565 S
C337 H316 0.929 . S
C337 C335 1.446 1_545 S
C337 C338 1.332 . S
C338 H318 0.931 . S
C338 C337 1.332 . S
C338 C339 1.267 . S
C339 H307 0.929 . S
C339 C338 1.267 . S
C339 C340 1.251 . S
C340 H310 0.929 . S
C340 N336 1.418 1_545 S
C340 C339 1.251 . S
C341 H308 0.930 . S
C341 C343 1.406 . S
C341 C346 1.261 . S
C342 H309 0.930 . S
C342 N344 1.325 . S
C342 C345 1.357 1_565 S
C343 H311 0.928 . S
C343 C341 1.406 . S
C343 N344 1.261 1_545 S
N344 Co295 2.214 . S
N344 C342 1.325 . S
N344 C343 1.261 1_565 S
C345 H315 0.931 1_554 S
C345 C342 1.357 1_545 S
C345 C346 1.312 . S
C346 H317 0.930 . S
C346 C341 1.261 . S
C346 C345 1.312 . S
C347 O319 1.214 . S
C347 O327 1.234 . S
C348 H320 0.929 . S
C348 C351 1.391 . S
C348 C353 1.391 . S
C349 H321 0.929 . S
C349 C350 1.390 . S
C349 N352 1.391 . S
C350 H322 0.930 . S
C350 C349 1.390 . S
C350 C351 1.392 . S
C351 H323 0.929 . S
C351 C348 1.391 . S
C351 C350 1.392 . S
N352 Co296 2.257 . S
N352 C349 1.391 . S
N352 C353 1.388 . S
C353 H324 0.930 1_655 S
C353 C348 1.391 . S
C353 N352 1.388 . S
Co354 O356 2.143 . S
Co354 O362 2.074 . S
Co354 O365 2.093 . S
Co354 O378 2.097 . S
Co354 N395 2.151 . S
Co354 N403 2.214 . S
Co355 O356 2.160 . S
Co355 O361 2.058 . S
Co355 O371 2.057 . S
Co355 O386 2.037 . S
Co355 N390 2.145 . S
Co355 N411 2.257 . S
O356 Co354 2.143 . S
O356 Co355 2.160 . S
C357 O358 1.278 . S
C357 O365 1.224 . S
O358 C357 1.278 . S
C359 O360 1.245 . S
C359 O371 1.232 . S
O360 C359 1.245 . S
O361 Co355 2.058 . S
O361 C387 1.269 . S
O362 Co354 2.074 . S
O362 C387 1.257 . S
H363 C388 0.930 . S
H364 C394 0.930 . S
O365 Co354 2.093 . S
O365 C357 1.224 . S
H366 C398 0.929 . S
H367 C400 0.930 . S
H368 C401 0.930 . S
H369 C399 0.929 . S
H370 C402 0.928 . S
O371 Co355 2.057 . S
O371 C359 1.232 . S
H372 C391 0.929 . S
H373 C392 0.929 . S
H374 C404 0.931 1_556 S
H375 C396 0.929 . S
H376 C405 0.930 . S
H377 C397 0.931 . S
O378 Co354 2.097 . S
O378 C406 1.214 . S
H379 C407 0.929 . S
H380 C408 0.929 . S
H381 C409 0.930 . S
H382 C410 0.929 . S
H383 C412 0.930 . S
H384 C389 0.930 . S
H385 C393 0.930 1_556 S
O386 Co355 2.037 . S
O386 C406 1.234 . S
C387 O361 1.269 . S
C387 O362 1.257 . S
C388 H363 0.930 . S
C388 C391 1.388 1_556 S
C388 C393 1.418 1_556 S
C389 H384 0.930 . S
C389 C392 1.404 . S
C389 C393 1.353 . S
N390 Co355 2.145 . S
N390 C391 1.397 . S
N390 C392 1.334 . S
C391 H372 0.929 . S
C391 C388 1.388 1_554 S
C391 N390 1.397 . S
C392 H373 0.929 . S
C392 C389 1.404 . S
C392 N390 1.334 . S
C393 H385 0.930 1_554 S
C393 C388 1.418 1_554 S
C393 C389 1.353 . S
C394 H364 0.930 . S
C394 N395 1.330 . S
C394 C396 1.446 1_545 S
N395 Co354 2.151 . S
N395 C394 1.330 . S
N395 C399 1.418 1_545 S
C396 H375 0.929 . S
C396 C394 1.446 1_565 S
C396 C397 1.332 . S
C397 H377 0.931 . S
C397 C396 1.332 . S
C397 C398 1.267 . S
C398 H366 0.929 . S
C398 C397 1.267 . S
C398 C399 1.251 . S
C399 H369 0.929 . S
C399 N395 1.418 1_565 S
C399 C398 1.251 . S
C400 H367 0.930 . S
C400 C402 1.406 . S
C400 C405 1.261 . S
C401 H368 0.930 . S
C401 N403 1.325 . S
C401 C404 1.357 1_545 S
C402 H370 0.928 . S
C402 C400 1.406 . S
C402 N403 1.261 1_565 S
N403 Co354 2.214 . S
N403 C401 1.325 . S
N403 C402 1.261 1_545 S
C404 H374 0.931 1_554 S
C404 C401 1.357 1_565 S
C404 C405 1.312 . S
C405 H376 0.930 . S
C405 C400 1.261 . S
C405 C404 1.312 . S
C406 O378 1.214 . S
C406 O386 1.234 . S
C407 H379 0.929 . S
C407 C410 1.391 . S
C407 C412 1.391 . S
C408 H380 0.929 . S
C408 C409 1.390 . S
C408 N411 1.391 . S
C409 H381 0.930 . S
C409 C408 1.390 . S
C409 C410 1.392 . S
C410 H382 0.929 . S
C410 C407 1.391 . S
C410 C409 1.392 . S
N411 Co355 2.257 . S
N411 C408 1.391 . S
N411 C412 1.388 . S
C412 H383 0.930 . S
C412 C407 1.391 . S
C412 N411 1.388 . S
Co413 O415 2.143 . S
Co413 O421 2.074 . S
Co413 O424 2.093 . S
Co413 O437 2.097 . S
Co413 N454 2.151 . S
Co413 N462 2.214 . S
Co414 O415 2.160 . S
Co414 O420 2.058 1_455 S
Co414 O430 2.057 1_455 S
Co414 O445 2.037 . S
Co414 N449 2.144 1_455 S
Co414 N470 2.257 . S
O415 Co413 2.143 . S
O415 Co414 2.160 . S
C416 O417 1.278 . S
C416 O424 1.224 . S
O417 C416 1.278 . S
C418 O419 1.245 . S
C418 O430 1.232 . S
O419 C418 1.245 . S
O420 Co414 2.058 1_655 S
O420 C446 1.269 1_655 S
O421 Co413 2.074 . S
O421 C446 1.257 . S
H422 C447 0.930 . S
H423 C453 0.930 . S
O424 Co413 2.093 . S
O424 C416 1.224 . S
H425 C457 0.929 . S
H426 C459 0.930 . S
H427 C460 0.930 . S
H428 C458 0.929 . S
H429 C461 0.928 . S
O430 Co414 2.057 1_655 S
O430 C418 1.232 . S
H431 C450 0.929 1_455 S
H432 C451 0.929 . S
H433 C463 0.931 1_554 S
H434 C455 0.929 . S
H435 C464 0.930 . S
H436 C456 0.931 . S
O437 Co413 2.097 . S
O437 C465 1.214 . S
H438 C466 0.929 . S
H439 C467 0.929 . S
H440 C468 0.930 . S
H441 C469 0.929 . S
H442 C471 0.930 1_655 S
H443 C448 0.930 . S
H444 C452 0.930 1_554 S
O445 Co414 2.037 . S
O445 C465 1.234 . S
C446 O420 1.269 1_455 S
C446 O421 1.257 . S
C447 H422 0.930 . S
C447 C450 1.388 1_554 S
C447 C452 1.418 1_554 S
C448 H443 0.930 . S
C448 C451 1.404 . S
C448 C452 1.353 . S
N449 Co414 2.144 1_655 S
N449 C450 1.397 . S
N449 C451 1.334 . S
C450 H431 0.929 1_655 S
C450 C447 1.388 1_556 S
C450 N449 1.397 . S
C451 H432 0.929 . S
C451 C448 1.404 . S
C451 N449 1.334 . S
C452 H444 0.930 1_556 S
C452 C447 1.418 1_556 S
C452 C448 1.353 . S
C453 H423 0.930 . S
C453 N454 1.330 . S
C453 C455 1.446 1_545 S
N454 Co413 2.151 . S
N454 C453 1.330 . S
N454 C458 1.418 1_545 S
C455 H434 0.929 . S
C455 C453 1.446 1_565 S
C455 C456 1.332 . S
C456 H436 0.931 . S
C456 C455 1.332 . S
C456 C457 1.267 . S
C457 H425 0.929 . S
C457 C456 1.267 . S
C457 C458 1.251 . S
C458 H428 0.929 . S
C458 N454 1.418 1_565 S
C458 C457 1.251 . S
C459 H426 0.930 . S
C459 C461 1.406 . S
C459 C464 1.261 . S
C460 H427 0.930 . S
C460 N462 1.325 . S
C460 C463 1.357 1_545 S
C461 H429 0.928 . S
C461 C459 1.406 . S
C461 N462 1.261 1_565 S
N462 Co413 2.214 . S
N462 C460 1.325 . S
N462 C461 1.261 1_545 S
C463 H433 0.931 1_556 S
C463 C460 1.357 1_565 S
C463 C464 1.312 . S
C464 H435 0.930 . S
C464 C459 1.261 . S
C464 C463 1.312 . S
C465 O437 1.214 . S
C465 O445 1.234 . S
C466 H438 0.929 . S
C466 C469 1.391 . S
C466 C471 1.391 . S
C467 H439 0.929 . S
C467 C468 1.390 . S
C467 N470 1.391 . S
C468 H440 0.930 . S
C468 C467 1.390 . S
C468 C469 1.392 . S
C469 H441 0.929 . S
C469 C466 1.391 . S
C469 C468 1.392 . S
N470 Co414 2.257 . S
N470 C467 1.391 . S
N470 C471 1.388 . S
C471 H442 0.930 1_455 S
C471 C466 1.391 . S
C471 N470 1.388 . S
C472 C473 1.369 . S
C472 C474 1.419 . S
C472 H476 0.930 . S
C473 C472 1.369 . S
C473 C482 1.429 1_455 S
C474 C472 1.419 . S
C474 C475 1.363 1_455 S
C474 H477 0.929 . S
C475 C474 1.363 1_655 S
C475 C481 1.428 . S
H476 C472 0.930 . S
H477 C474 0.929 . S
S478 N479 1.613 . S
S478 N480 1.610 . S
N479 S478 1.613 . S
N479 C482 1.350 . S
N480 S478 1.610 . S
N480 C481 1.351 . S
C481 C475 1.428 . S
C481 N480 1.351 . S
C481 C482 1.434 . S
C482 C473 1.429 1_655 S
C482 N479 1.350 . S
C482 C481 1.434 . S
C483 C484 1.369 . S
C483 C485 1.419 . S
C483 H487 0.930 . S
C484 C483 1.369 . S
C484 C493 1.429 . S
C485 C483 1.419 . S
C485 C486 1.363 . S
C485 H488 0.929 . S
C486 C485 1.363 . S
C486 C492 1.428 . S
H487 C483 0.930 . S
H488 C485 0.929 . S
S489 N490 1.613 . S
S489 N491 1.610 . S
N490 S489 1.613 . S
N490 C493 1.350 . S
N491 S489 1.610 . S
N491 C492 1.351 . S
C492 C486 1.428 . S
C492 N491 1.351 . S
C492 C493 1.434 . S
C493 C484 1.429 . S
C493 N490 1.350 . S
C493 C492 1.434 . S
C494 C495 1.369 1_565 S
C494 C496 1.419 1_554 S
C494 H498 0.930 . S
C495 C494 1.369 1_545 S
C495 C504 1.429 . S
C496 C494 1.419 1_556 S
C496 C497 1.363 . S
C496 H499 0.929 . S
C497 C496 1.363 . S
C497 C503 1.428 1_565 S
H498 C494 0.930 . S
H499 C496 0.929 . S
S500 N501 1.613 1_556 S
S500 N502 1.610 . S
N501 S500 1.613 1_554 S
N501 C504 1.350 . S
N502 S500 1.610 . S
N502 C503 1.351 . S
C503 C497 1.428 1_545 S
C503 N502 1.351 . S
C503 C504 1.434 1_556 S
C504 C495 1.429 . S
C504 N501 1.350 . S
C504 C503 1.434 1_554 S
C505 C506 1.369 1_445 S
C505 C507 1.419 . S
C505 H509 0.930 . S
C506 C505 1.369 1_665 S
C506 C515 1.429 1_554 S
C507 C505 1.419 . S
C507 C508 1.363 1_554 S
C507 H510 0.929 . S
C508 C507 1.363 1_556 S
C508 C514 1.428 1_445 S
H509 C505 0.930 . S
H510 C507 0.929 . S
S511 N512 1.613 . S
S511 N513 1.610 . S
N512 S511 1.613 . S
N512 C515 1.350 . S
N513 S511 1.610 . S
N513 C514 1.351 . S
C514 C508 1.428 1_665 S
C514 N513 1.351 . S
C514 C515 1.434 . S
C515 C506 1.429 1_556 S
C515 N512 1.350 . S
C515 C514 1.434 . S
C516 C517 1.369 . S
C516 C518 1.419 . S
C516 H520 0.930 . S
C517 C516 1.369 . S
C517 C526 1.429 . S
C518 C516 1.419 . S
C518 C519 1.363 . S
C518 H521 0.929 . S
C519 C518 1.363 . S
C519 C525 1.428 . S
H520 C516 0.930 . S
H521 C518 0.929 . S
S522 N523 1.613 . S
S522 N524 1.610 . S
N523 S522 1.613 . S
N523 C526 1.350 . S
N524 S522 1.610 . S
N524 C525 1.351 . S
C525 C519 1.428 . S
C525 N524 1.351 . S
C525 C526 1.434 . S
C526 C517 1.429 . S
C526 N523 1.350 . S
C526 C525 1.434 . S
C527 C528 1.369 . S
C527 C529 1.419 . S
C527 H531 0.930 . S
C528 C527 1.369 . S
C528 C537 1.429 . S
C529 C527 1.419 . S
C529 C530 1.363 . S
C529 H532 0.929 . S
C530 C529 1.363 . S
C530 C536 1.428 . S
H531 C527 0.930 . S
H532 C529 0.929 . S
S533 N534 1.613 . S
S533 N535 1.610 . S
N534 S533 1.613 . S
N534 C537 1.350 . S
N535 S533 1.610 . S
N535 C536 1.351 . S
C536 C530 1.428 . S
C536 N535 1.351 . S
C536 C537 1.434 . S
C537 C528 1.429 . S
C537 N534 1.350 . S
C537 C536 1.434 . S
C538 C539 1.369 . S
C538 C540 1.419 . S
C538 H542 0.930 . S
C539 C538 1.369 . S
C539 C548 1.429 . S
C540 C538 1.419 . S
C540 C541 1.363 . S
C540 H543 0.929 . S
C541 C540 1.363 . S
C541 C547 1.428 . S
H542 C538 0.930 . S
H543 C540 0.929 . S
S544 N545 1.613 . S
S544 N546 1.610 . S
N545 S544 1.613 . S
N545 C548 1.350 . S
N546 S544 1.610 . S
N546 C547 1.351 . S
C547 C541 1.428 . S
C547 N546 1.351 . S
C547 C548 1.434 . S
C548 C539 1.429 . S
C548 N545 1.350 . S
C548 C547 1.434 . S
C549 C550 1.369 . S
C549 C551 1.419 . S
C549 H553 0.930 . S
C550 C549 1.369 . S
C550 C559 1.429 . S
C551 C549 1.419 . S
C551 C552 1.363 . S
C551 H554 0.929 . S
C552 C551 1.363 . S
C552 C558 1.428 . S
H553 C549 0.930 . S
H554 C551 0.929 . S
S555 N556 1.613 . S
S555 N557 1.610 . S
N556 S555 1.613 . S
N556 C559 1.350 . S
N557 S555 1.610 . S
N557 C558 1.351 . S
C558 C552 1.428 . S
C558 N557 1.351 . S
C558 C559 1.434 . S
C559 C550 1.429 . S
C559 N556 1.350 . S
C559 C558 1.434 . S
C560 C561 1.369 . S
C560 C562 1.419 . S
C560 H564 0.930 . S
C561 C560 1.369 . S
C561 C570 1.429 . S
C562 C560 1.419 . S
C562 C563 1.363 . S
C562 H565 0.929 . S
C563 C562 1.363 . S
C563 C569 1.428 . S
H564 C560 0.930 . S
H565 C562 0.929 . S
S566 N567 1.613 . S
S566 N568 1.610 . S
N567 S566 1.613 . S
N567 C570 1.350 . S
N568 S566 1.610 . S
N568 C569 1.351 . S
C569 C563 1.428 . S
C569 N568 1.351 . S
C569 C570 1.434 . S
C570 C561 1.429 . S
C570 N567 1.350 . S
C570 C569 1.434 . S
C571 C572 1.369 . S
C571 C573 1.419 . S
C571 H575 0.930 . S
C572 C571 1.369 . S
C572 C581 1.429 . S
C573 C571 1.419 . S
C573 C574 1.363 . S
C573 H576 0.929 . S
C574 C573 1.363 . S
C574 C580 1.428 . S
H575 C571 0.930 . S
H576 C573 0.929 . S
S577 N578 1.613 . S
S577 N579 1.610 . S
N578 S577 1.613 . S
N578 C581 1.350 . S
N579 S577 1.610 . S
N579 C580 1.351 . S
C580 C574 1.428 . S
C580 N579 1.351 . S
C580 C581 1.434 . S
C581 C572 1.429 . S
C581 N578 1.350 . S
C581 C580 1.434 . S
C582 C583 1.369 . S
C582 C584 1.419 . S
C582 H586 0.930 . S
C583 C582 1.369 . S
C583 C592 1.429 . S
C584 C582 1.419 . S
C584 C585 1.363 . S
C584 H587 0.929 . S
C585 C584 1.363 . S
C585 C591 1.428 . S
H586 C582 0.930 . S
H587 C584 0.929 . S
S588 N589 1.613 . S
S588 N590 1.610 . S
N589 S588 1.613 . S
N589 C592 1.350 . S
N590 S588 1.610 . S
N590 C591 1.351 . S
C591 C585 1.428 . S
C591 N590 1.351 . S
C591 C592 1.434 . S
C592 C583 1.429 . S
C592 N589 1.350 . S
C592 C591 1.434 . S
C593 C594 1.369 . S
C593 C595 1.419 . S
C593 H597 0.930 . S
C594 C593 1.369 . S
C594 C603 1.429 . S
C595 C593 1.419 . S
C595 C596 1.363 . S
C595 H598 0.929 . S
C596 C595 1.363 . S
C596 C602 1.428 . S
H597 C593 0.930 . S
H598 C595 0.929 . S
S599 N600 1.613 . S
S599 N601 1.610 . S
N600 S599 1.613 . S
N600 C603 1.350 . S
N601 S599 1.610 . S
N601 C602 1.351 . S
C602 C596 1.428 . S
C602 N601 1.351 . S
C602 C603 1.434 . S
C603 C594 1.429 . S
C603 N600 1.350 . S
C603 C602 1.434 . S
C604 C605 1.369 . S
C604 C606 1.419 . S
C604 H608 0.930 . S
C605 C604 1.369 . S
C605 C614 1.429 . S
C606 C604 1.419 . S
C606 C607 1.363 . S
C606 H609 0.929 . S
C607 C606 1.363 . S
C607 C613 1.428 . S
H608 C604 0.930 . S
H609 C606 0.929 . S
S610 N611 1.613 1_565 S
S610 N612 1.610 1_565 S
N611 S610 1.613 1_545 S
N611 C614 1.350 . S
N612 S610 1.610 1_545 S
N612 C613 1.351 . S
C613 C607 1.428 . S
C613 N612 1.351 . S
C613 C614 1.434 . S
C614 C605 1.429 . S
C614 N611 1.350 . S
C614 C613 1.434 . S
C615 C616 1.369 . S
C615 C617 1.419 . S
C615 H619 0.930 . S
C616 C615 1.369 . S
C616 C625 1.429 . S
C617 C615 1.419 . S
C617 C618 1.363 . S
C617 H620 0.929 . S
C618 C617 1.363 . S
C618 C624 1.428 . S
H619 C615 0.930 . S
H620 C617 0.929 . S
S621 N622 1.613 . S
S621 N623 1.610 . S
N622 S621 1.613 . S
N622 C625 1.350 . S
N623 S621 1.610 . S
N623 C624 1.351 . S
C624 C618 1.428 . S
C624 N623 1.351 . S
C624 C625 1.434 . S
C625 C616 1.429 . S
C625 N622 1.350 . S
C625 C624 1.434 . S
C626 C627 1.369 1_556 S
C626 C628 1.419 . S
C626 H630 0.930 . S
C627 C626 1.369 1_554 S
C627 C636 1.429 . S
C628 C626 1.419 . S
C628 C629 1.363 . S
C628 H631 0.929 . S
C629 C628 1.363 . S
C629 C635 1.428 1_556 S
H630 C626 0.930 . S
H631 C628 0.929 . S
S632 N633 1.613 . S
S632 N634 1.610 . S
N633 S632 1.613 . S
N633 C636 1.350 . S
N634 S632 1.610 . S
N634 C635 1.351 . S
C635 C629 1.428 1_554 S
C635 N634 1.351 . S
C635 C636 1.434 . S
C636 C627 1.429 . S
C636 N633 1.350 . S
C636 C635 1.434 . S
C637 C638 1.369 1_556 S
C637 C639 1.419 . S
C637 H641 0.930 . S
C638 C637 1.369 1_554 S
C638 C647 1.429 . S
C639 C637 1.419 . S
C639 C640 1.363 . S
C639 H642 0.929 . S
C640 C639 1.363 . S
C640 C646 1.428 1_556 S
H641 C637 0.930 . S
H642 C639 0.929 . S
S643 N644 1.613 . S
S643 N645 1.610 . S
N644 S643 1.613 . S
N644 C647 1.350 . S
N645 S643 1.610 . S
N645 C646 1.351 . S
C646 C640 1.428 1_554 S
C646 N645 1.351 . S
C646 C647 1.434 . S
C647 C638 1.429 . S
C647 N644 1.350 . S
C647 C646 1.434 . S
C473 C33 1.531 . S
C475 C151 1.527 . S
C484 C210 1.532 . S
C486 C92 1.527 . S
C495 C387 1.527 . S
C497 C269 1.530 . S
C506 C328 1.527 . S
C508 C446 1.530 . S
C517 C359 1.716 . S
C519 C5 1.717 . S
C528 C64 1.720 . S
C530 C418 1.714 . S
C539 C123 1.721 . S
C541 C241 1.714 . S
C550 C182 1.713 . S
C552 C300 1.720 . S
C561 C357 1.511 . S
C563 C3 1.506 . S
C572 C62 1.505 . S
C574 C416 1.511 . S
C583 C239 1.510 . S
C585 C121 1.507 . S
C594 C298 1.505 . S
C596 C180 1.511 . S
C605 C111 1.011 . S
C607 C52 1.007 . S
C616 C170 1.003 . S
C618 C229 1.004 . S
C627 C347 1.007 . S
C629 C288 1.010 . S
C638 C406 1.004 . S
C640 C465 1.008 . S
