# Generated by pormake.
# Topology snz, (6)-cn, num edge types: 1
# Building blocks:
#     Node 0, Type 0, BuildingBlock: KUMBUR_clean_sbu_0, # of connection points: 6
#     Node 1, Type 0, BuildingBlock: KUMBUR_clean_sbu_0, # of connection points: 6
#     Node 2, Type 0, BuildingBlock: KUMBUR_clean_sbu_0, # of connection points: 6
#     Node 3, Type 0, BuildingBlock: KUMBUR_clean_sbu_0, # of connection points: 6
#     Node 4, Type 0, BuildingBlock: KUMBUR_clean_sbu_0, # of connection points: 6
#     Node 5, Type 0, BuildingBlock: KUMBUR_clean_sbu_0, # of connection points: 6
#     Node 6, Type 0, BuildingBlock: KUMBUR_clean_sbu_0, # of connection points: 6
#     Node 7, Type 0, BuildingBlock: KUMBUR_clean_sbu_0, # of connection points: 6
#     Node 8, Type 0, BuildingBlock: KUMBUR_clean_sbu_0, # of connection points: 6
#     Edge 9, Type (0, 0), BuildingBlock: XIVTED_clean_linker_0, # of connection points: 2
#     Edge 10, Type (0, 0), BuildingBlock: XIVTED_clean_linker_0, # of connection points: 2
#     Edge 11, Type (0, 0), BuildingBlock: XIVTED_clean_linker_0, # of connection points: 2
#     Edge 12, Type (0, 0), BuildingBlock: XIVTED_clean_linker_0, # of connection points: 2
#     Edge 13, Type (0, 0), BuildingBlock: XIVTED_clean_linker_0, # of connection points: 2
#     Edge 14, Type (0, 0), BuildingBlock: XIVTED_clean_linker_0, # of connection points: 2
#     Edge 15, Type (0, 0), BuildingBlock: XIVTED_clean_linker_0, # of connection points: 2
#     Edge 16, Type (0, 0), BuildingBlock: XIVTED_clean_linker_0, # of connection points: 2
#     Edge 17, Type (0, 0), BuildingBlock: XIVTED_clean_linker_0, # of connection points: 2
#     Edge 18, Type (0, 0), BuildingBlock: XIVTED_clean_linker_0, # of connection points: 2
#     Edge 19, Type (0, 0), BuildingBlock: XIVTED_clean_linker_0, # of connection points: 2
#     Edge 20, Type (0, 0), BuildingBlock: XIVTED_clean_linker_0, # of connection points: 2
#     Edge 21, Type (0, 0), BuildingBlock: XIVTED_clean_linker_0, # of connection points: 2
#     Edge 22, Type (0, 0), BuildingBlock: XIVTED_clean_linker_0, # of connection points: 2
#     Edge 23, Type (0, 0), BuildingBlock: XIVTED_clean_linker_0, # of connection points: 2
#     Edge 24, Type (0, 0), BuildingBlock: XIVTED_clean_linker_0, # of connection points: 2
#     Edge 25, Type (0, 0), BuildingBlock: XIVTED_clean_linker_0, # of connection points: 2
#     Edge 26, Type (0, 0), BuildingBlock: XIVTED_clean_linker_0, # of connection points: 2
#     Edge 27, Type (0, 0), BuildingBlock: XIVTED_clean_linker_0, # of connection points: 2
#     Edge 28, Type (0, 0), BuildingBlock: XIVTED_clean_linker_0, # of connection points: 2
#     Edge 29, Type (0, 0), BuildingBlock: XIVTED_clean_linker_0, # of connection points: 2
#     Edge 30, Type (0, 0), BuildingBlock: XIVTED_clean_linker_0, # of connection points: 2
#     Edge 31, Type (0, 0), BuildingBlock: XIVTED_clean_linker_0, # of connection points: 2
#     Edge 32, Type (0, 0), BuildingBlock: XIVTED_clean_linker_0, # of connection points: 2
#     Edge 33, Type (0, 0), BuildingBlock: XIVTED_clean_linker_0, # of connection points: 2
#     Edge 34, Type (0, 0), BuildingBlock: XIVTED_clean_linker_0, # of connection points: 2
#     Edge 35, Type (0, 0), BuildingBlock: XIVTED_clean_linker_0, # of connection points: 2
# Relax obj value: 0.277
# Max RMSD: 0.306
# Mean RMSD: 0.207
data_MOF--net-snz--node1-KUMBUR_clean_sbu_0--edge1-XIVTED_clean_linker_0
_symmetry_space_group_name_H-M    P1
_symmetry_Int_Tables_number       1
_symmetry_cell_setting            triclinic
loop_
_symmetry_equiv_pos_as_xyz
'x, y, z'
_cell_length_a     60.853137
_cell_length_b     55.893828
_cell_length_c     16.547606
_cell_angle_alpha  93.610296
_cell_angle_beta   94.558291
_cell_angle_gamma 120.39734
loop_
_atom_site_label
_atom_site_type_symbol
_atom_site_fract_x
_atom_site_fract_y
_atom_site_fract_z
_atom_type_partial_charge
Tb0 Tb 0.11699 0.48067 0.21802 0.0
C1 C 0.01409 0.44156 0.30023 0.0
C2 C 0.98787 0.39531 0.22593 0.0
C3 C 0.97775 0.40569 0.35792 0.0
C4 C 0.00928 0.42273 0.23333 0.0
C5 C 0.99757 0.43366 0.36113 0.0
C6 C 0.97296 0.38648 0.29047 0.0
C7 C 0.01859 0.48237 0.41552 0.0
N8 N 0.03313 0.46856 0.30012 0.0
C9 C 0.0345 0.48923 0.35386 0.0
C10 C 1.0004 0.45441 0.42021 0.0
Tb11 Tb 0.05741 0.4775 0.19336 0.0
N12 N 0.0232 0.43252 0.17044 0.0
C13 C 0.01446 0.41725 0.09508 0.0
C14 C 0.98084 0.37838 0.15145 0.0
C15 C 0.9937 0.38972 0.08496 0.0
H16 H 0.04878 0.51088 0.35125 0.0
H17 H 0.98755 0.37736 1.02577 0.0
H18 H 0.95672 0.36535 0.28651 0.0
H19 H 0.0204 0.49864 0.45948 0.0
H20 H 0.02385 0.42606 1.0428 0.0
H21 H 0.18175 0.58154 0.39087 0.0
H22 H 0.96453 0.3572 0.14318 0.0
H23 H 0.12596 0.44857 1.05863 0.0
H24 H 0.14488 0.53344 0.36779 0.0
H25 H 0.15627 0.46126 0.95601 0.0
H26 H 0.96517 0.39906 0.40498 0.0
H27 H 0.20984 0.60086 0.28326 0.0
H28 H 0.22193 0.59262 0.14687 0.0
H29 H 0.98799 0.4492 0.46773 0.0
H30 H 0.21518 0.55962 1.02846 0.0
N31 N 0.15092 0.52567 0.24614 0.0
C32 C 0.15677 0.54145 0.31986 0.0
C33 C 0.19348 0.57972 0.27236 0.0
C34 C 0.18863 0.56269 0.19961 0.0
C35 C 0.17775 0.56885 0.33338 0.0
C36 C 0.16701 0.53537 0.18845 0.0
H37 H 0.19117 0.51036 0.95803 0.0
N38 N 0.14317 0.49029 0.11689 0.0
C39 C 0.15833 0.47716 1.002 0.0
C40 C 0.1632 0.51694 0.12187 0.0
C41 C 0.14133 0.47003 1.06046 0.0
C42 C 0.17795 0.50492 1.00316 0.0
C43 C 0.18089 0.52511 0.06451 0.0
O44 O 0.12717 0.44948 0.21313 0.0
O45 O 0.07679 0.45552 0.16449 0.0
O46 O 0.06598 0.47244 0.32873 0.0
O47 O 0.10905 0.4863 0.34785 0.0
O48 O 0.09146 0.43609 0.22711 0.0
O49 O 0.14273 0.48199 0.31367 0.0
O50 O 0.04802 0.5092 0.19766 0.0
O51 O 0.09804 0.50394 0.24387 0.0
O52 O 0.10951 0.4871 0.08324 0.0
O53 O 0.0658 0.4713 0.06358 0.0
O54 O 0.0823 0.52024 0.16916 0.0
O55 O 0.02895 0.47419 0.10432 0.0
C56 C 0.07121 0.43185 0.18437 0.0
C57 C 0.16838 0.46233 0.28249 0.0
C58 C 0.19639 0.44288 0.31112 0.0
C59 C 0.17159 0.43973 0.30188 0.0
C60 C 0.21756 0.46863 0.29873 0.0
C61 C 0.19006 0.48757 0.27022 0.0
C62 C 0.21436 0.4906 0.2779 0.0
C63 C 0.0872 0.47885 0.37971 0.0
C64 C 0.14291 0.46026 0.28074 0.0
C65 C 0.20155 0.55281 0.07245 0.0
C66 C 0.20538 0.57161 0.13985 0.0
C67 C 0.10295 0.52614 0.21305 0.0
C68 C 0.00506 0.49476 0.14529 0.0
C69 C 0.99975 0.51498 0.11761 0.0
C70 C 0.97613 0.5132 0.1281 0.0
C71 C 0.95814 0.49117 0.16685 0.0
C72 C 0.98617 0.47242 0.18052 0.0
C73 C 0.96308 0.47085 0.19223 0.0
C74 C 0.08806 0.48001 1.03194 0.0
C75 C 0.02997 0.49674 0.13587 0.0
H76 H 0.15506 0.42015 0.312 0.0
H77 H 0.2367 0.4717 0.30441 0.0
H78 H 0.18835 0.50522 0.25616 0.0
H79 H 0.23091 0.51025 0.26847 0.0
H80 H 0.01389 0.53197 0.0883 0.0
H81 H 0.93983 0.48917 0.17525 0.0
H82 H 0.989 0.4559 0.19807 0.0
H83 H 0.94878 0.45358 0.22014 0.0
Tb84 Tb 0.61978 0.53405 0.10126 0.0
C85 C 0.65237 0.45729 0.21088 0.0
C86 C 0.69438 0.47435 0.16809 0.0
C87 C 0.68387 0.45065 0.28989 0.0
C88 C 0.66981 0.47126 0.15777 0.0
C89 C 0.65881 0.44582 0.27563 0.0
C90 C 0.70168 0.46498 0.23627 0.0
C91 C 0.61429 0.42223 0.29912 0.0
N92 N 0.62825 0.45275 0.19431 0.0
C93 C 0.60883 0.43399 0.23402 0.0
C94 C 0.6395 0.42862 0.32112 0.0
Tb95 Tb 0.62102 0.47201 0.08416 0.0
N96 N 0.66163 0.47892 0.09095 0.0
C97 C 0.67598 0.48669 1.02762 0.0
C98 C 0.71022 0.48512 0.10698 0.0
C99 C 0.70071 0.49067 1.0355 0.0
H100 H 0.58932 0.42896 0.21697 0.0
H101 H 0.71236 0.49788 0.98628 0.0
H102 H 0.72059 0.46749 0.24585 0.0
H103 H 0.59906 0.40819 0.33211 0.0
H104 H 0.66868 0.49051 0.9714 0.0
H105 H 0.52485 0.50638 0.16599 0.0
H106 H 0.72925 0.48788 0.11256 0.0
H107 H 0.65603 0.57597 0.97389 0.0
H108 H 0.56806 0.51262 0.19347 0.0
H109 H 0.65081 0.59948 0.85812 0.0
H110 H 0.68934 0.44237 0.34005 0.0
H111 H 0.51279 0.52063 1.03928 0.0
H112 H 0.52668 0.54502 0.91391 0.0
H113 H 0.64364 0.41931 0.37118 0.0
H114 H 0.56147 0.57151 0.83158 0.0
N115 N 0.5791 0.52684 0.07914 0.0
C116 C 0.56251 0.51763 0.13626 0.0
C117 C 0.53147 0.52263 1.05001 0.0
C118 C 0.54962 0.53493 0.99598 0.0
C119 C 0.53821 0.51457 0.12158 0.0
C120 C 0.57365 0.53704 1.01308 0.0
H121 H 0.60808 0.59257 0.81161 0.0
N122 N 0.61648 0.55528 0.9903 0.0
C123 C 0.63442 0.58614 0.88817 0.0
C124 C 0.59321 0.55233 0.96788 0.0
C125 C 0.63733 0.57286 0.95358 0.0
C126 C 0.61026 0.58216 0.86203 0.0
C127 C 0.58933 0.56537 0.90267 0.0
O128 O 0.64697 0.5774 0.12754 0.0
O129 O 0.64237 0.51565 0.06739 0.0
O130 O 0.62819 0.48721 0.22315 0.0
O131 O 0.61454 0.5191 0.22788 0.0
O132 O 0.66096 0.55251 0.13854 0.0
O133 O 0.61529 0.55698 0.19703 0.0
O134 O 0.5891 0.43095 1.06052 0.0
O135 O 0.59904 0.49083 0.12032 0.0
O136 O 0.61256 0.51838 0.96257 0.0
O137 O 0.62674 0.48691 0.95786 0.0
O138 O 0.58023 0.45575 1.04301 0.0
O139 O 0.62261 0.44293 1.00066 0.0
C140 C 0.66443 0.53405 0.10266 0.0
C141 C 0.62955 0.60415 0.17936 0.0
C142 C 0.64486 0.65412 0.20522 0.0
C143 C 0.64979 0.63197 0.20167 0.0
C144 C 0.61961 0.64813 0.18417 0.0
C145 C 0.60448 0.59885 0.15905 0.0
C146 C 0.59964 0.62071 0.16083 0.0
C147 C 0.62236 0.5039 0.26789 0.0
C148 C 0.63445 0.58081 0.18303 0.0
C149 C 0.56495 0.56186 0.88192 0.0
C150 C 0.54511 0.54667 0.92857 0.0
C151 C 0.57673 0.47303 0.08594 0.0
C152 C 0.5971 0.39504 1.02215 0.0
C153 C 0.57423 0.37042 0.98785 0.0
C154 C 0.57049 0.34384 0.99935 0.0
C155 C 0.59006 0.34242 1.04608 0.0
C156 C 0.61641 0.39296 0.06741 0.0
C157 C 0.61282 0.36679 0.07954 0.0
C158 C 0.61905 0.50224 0.91806 0.0
C159 C 0.60001 0.4225 1.01122 0.0
H160 H 0.66914 0.63629 0.21854 0.0
H161 H 0.61534 0.66475 0.18521 0.0
H162 H 0.58844 0.57781 0.14333 0.0
H163 H 0.58025 0.61633 0.14497 0.0
H164 H 0.55925 0.372 0.95305 0.0
H165 H 0.58803 0.32242 1.05542 0.0
H166 H 0.63427 0.41149 0.09328 0.0
H167 H 0.62781 0.36537 0.1147 0.0
Tb168 Tb 0.56684 0.02929 0.87554 0.0
C169 C 0.61071 0.15019 0.98111 0.0
C170 C 0.58752 0.16194 0.88148 0.0
C171 C 0.60112 0.1865 1.01858 0.0
C172 C 0.59827 0.14556 0.9033 0.0
C173 C 0.61301 0.17138 1.03878 0.0
C174 C 0.58832 0.18172 0.94008 0.0
C175 C 0.64085 0.16327 0.12969 0.0
N176 N 0.62211 0.13534 0.99866 0.0
C177 C 0.63794 0.14245 0.07097 0.0
C178 C 0.62798 0.17749 0.11413 0.0
Tb179 Tb 0.61491 0.10018 0.9 0.0
N180 N 0.59807 0.12635 0.84784 0.0
C181 C 0.58926 0.12483 0.76725 0.0
C182 C 0.57698 0.15868 0.80079 0.0
C183 C 0.57831 0.14045 0.74326 0.0
H184 H 0.64707 0.13083 0.08613 0.0
H185 H 0.57072 0.13821 0.68003 0.0
H186 H 0.57985 0.19412 0.92448 0.0
H187 H 0.65275 0.16802 0.18744 0.0
H188 H 0.58918 0.11102 0.71936 0.0
H189 H 0.60026 0.97371 1.05828 0.0
H190 H 0.56846 0.17073 0.78183 0.0
H191 H 0.52419 0.99867 0.70542 0.0
H192 H 0.58438 0.00531 1.03629 0.0
H193 H 0.51582 0.96477 0.58781 0.0
H194 H 0.60238 0.20252 0.06244 0.0
H195 H 0.60474 0.94769 0.94071 0.0
H196 H 0.59506 0.93248 0.78981 0.0
H197 H 0.63022 0.1936 0.15982 0.0
H198 H 0.57137 0.92986 0.65886 0.0
N199 N 0.58167 -0.00017 0.90582 0.0
C200 C 0.58654 0.99489 0.98343 0.0
C201 C 0.59797 0.96195 0.93022 0.0
C202 C 0.5897 0.96422 0.85137 0.0
C203 C 0.59538 0.97653 0.99668 0.0
C204 C 0.58083 0.98296 0.84134 0.0
H205 H 0.54061 0.94086 0.58402 0.0
N206 N 0.55493 0.99573 0.76632 0.0
C207 C 0.53054 0.9694 0.63769 0.0
C208 C 0.56704 0.98098 0.7684 0.0
C209 C 0.53546 0.98876 0.70465 0.0
C210 C 0.54469 0.95609 0.63553 0.0
C211 C 0.56248 0.96097 0.70277 0.0
O212 O 0.53432 0.99035 0.88771 0.0
O213 O 0.5733 0.07153 0.88309 0.0
O214 O 0.60228 0.09012 1.02824 0.0
O215 O 0.57822 0.04165 1.01344 0.0
O216 O 0.54582 0.04173 0.79427 0.0
O217 O 0.53957 0.02824 0.94825 0.0
O218 O 0.65041 0.13818 0.90457 0.0
O219 O 0.60777 0.05794 0.89465 0.0
O220 O 0.57795 0.03846 0.74631 0.0
O221 O 0.60628 0.08657 0.76267 0.0
O222 O 0.63446 0.08737 0.98718 0.0
O223 O 0.64436 0.10166 0.83526 0.0
C224 C 0.55594 0.06728 0.82522 0.0
C225 C 0.49716 0.98991 0.9227 0.0
C226 C 0.45611 0.96486 0.97677 0.0
C227 C 0.48279 0.97581 0.98419 0.0
C228 C 0.44406 0.96845 0.90622 0.0
C229 C 0.48491 0.99335 0.85293 0.0
C230 C 0.45841 0.9826 0.84489 0.0
C231 C 0.58978 0.06606 1.06224 0.0
C232 C 0.52496 0.00131 0.93524 0.0
C233 C 0.57421 0.94493 0.70917 0.0
C234 C 0.58775 0.94647 0.78368 0.0
C235 C 0.62432 0.06203 0.95424 0.0
C236 C 0.687 0.1327 0.90242 0.0
C237 C 0.70748 0.1376 0.8563 0.0
C238 C 0.73165 0.14347 0.89637 0.0
C239 C 0.73453 0.14342 0.9814 0.0
C240 C 0.69129 0.1334 0.98739 0.0
C241 C 0.71457 0.13839 1.02617 0.0
C242 C 0.59241 0.06227 0.71341 0.0
C243 C 0.66134 0.12723 0.86422 0.0
H244 H 0.49261 0.97386 1.03873 0.0
H245 H 0.42352 0.96006 0.89793 0.0
H246 H 0.49576 0.00434 0.80518 0.0
H247 H 0.44894 0.98523 0.79091 0.0
H248 H 0.70487 0.1375 0.79075 0.0
H249 H 0.75249 0.14743 1.01371 0.0
H250 H 0.6767 0.13026 1.02482 0.0
H251 H 0.71726 0.13865 0.09176 0.0
Tb252 Tb 0.81233 0.90533 0.37425 0.0
C253 C 0.70299 0.86095 0.42542 0.0
C254 C 0.68063 0.81819 0.33218 0.0
C255 C 0.66363 0.82123 0.45774 0.0
C256 C 0.70166 0.84571 0.35417 0.0
C257 C 0.68344 0.84924 0.47632 0.0
C258 C 0.66223 0.80572 0.38574 0.0
C259 C 0.70205 0.89486 0.55262 0.0
N260 N 0.72204 0.88812 0.44057 0.0
C261 C 0.7209 0.90555 0.50027 0.0
C262 C 0.68359 0.86642 0.54185 0.0
Tb263 Tb 0.753 0.90313 0.35414 0.0
N264 N 0.71973 0.85857 0.30339 0.0
C265 C 0.716 0.84568 0.22591 0.0
C266 C 0.67804 0.80442 0.25552 0.0
C267 C 0.69548 0.81847 0.20157 0.0
H268 H 0.73503 0.92761 0.50908 0.0
H269 H 0.69332 0.80825 0.14125 0.0
H270 H 0.64624 0.78448 0.37039 0.0
H271 H 0.70178 0.90856 0.60124 0.0
H272 H 0.72917 0.85531 0.18245 0.0
H273 H 0.87293 0.99261 0.61255 0.0
H274 H 0.66221 0.78331 0.23644 0.0
H275 H 0.83053 0.88597 0.20919 0.0
H276 H 0.83676 0.94734 0.55982 0.0
H277 H 0.86511 0.90751 0.12309 0.0
H278 H 0.64868 0.81175 0.49678 0.0
H279 H 0.90538 0.02055 0.52463 0.0
H280 H 0.92244 0.02367 0.39101 0.0
H281 H 0.66889 0.85821 0.58219 0.0
H282 H 0.92031 0.00054 0.25691 0.0
N283 N 0.84646 0.948 0.43722 0.0
C284 C 0.85001 0.95823 0.518 0.0
C285 C 0.88919 0.00021 0.49983 0.0
C286 C 0.8869 0.98899 0.41978 0.0
C287 C 0.87096 0.98448 0.54957 0.0
C288 C 0.86534 0.96238 0.39027 0.0
H289 H 0.89949 0.95699 0.1578 0.0
N290 N 0.84454 0.92299 0.29195 0.0
C291 C 0.86503 0.91967 0.17652 0.0
C292 C 0.86421 0.9495 0.31487 0.0
C293 C 0.8455 0.90748 0.226 0.0
C294 C 0.88429 0.94761 0.19604 0.0
C295 C 0.88445 0.96269 0.26699 0.0
O296 O 0.80631 0.87343 0.44822 0.0
O297 O 0.77102 0.87829 0.3584 0.0
O298 O 0.76034 0.89849 0.48952 0.0
O299 O 0.80226 0.90722 0.50382 0.0
O300 O 0.79164 0.86932 0.28233 0.0
O301 O 0.84025 0.89353 0.39132 0.0
O302 O 0.72251 0.91047 0.3287 0.0
O303 O 0.79448 0.93027 0.37133 0.0
O304 O 0.80478 0.91133 0.23985 0.0
O305 O 0.76207 0.8999 0.2239 0.0
O306 O 0.77347 0.94095 0.4407 0.0
O307 O 0.75768 0.93481 0.281 0.0
C308 C 0.76918 0.86026 0.30354 0.0
C309 C 0.82342 0.84545 0.40703 0.0
C310 C 0.82113 0.8019 0.43974 0.0
C311 C 0.82542 0.82882 0.46509 0.0
C312 C 0.81477 0.79202 0.35603 0.0
C313 C 0.81786 0.83509 0.32384 0.0
C314 C 0.81329 0.80854 0.2988 0.0
C315 C 0.78119 0.9025 0.53772 0.0
C316 C 0.82679 0.87325 0.43309 0.0
C317 C 0.90484 0.98993 0.29344 0.0
C318 C 0.90606 0.00307 0.36979 0.0
C319 C 0.79632 0.9487 0.42495 0.0
C320 C 0.7197 0.92688 0.20277 0.0
C321 C 0.71402 0.94757 0.18281 0.0
C322 C 0.69937 0.94423 0.10736 0.0
C323 C 0.69064 0.91985 1.05303 0.0
C324 C 0.71049 0.9029 0.14724 0.0
C325 C 0.69623 0.89948 0.07286 0.0
C326 C 0.78358 0.90608 0.19072 0.0
C327 C 0.73442 0.92972 0.28226 0.0
H328 H 0.83009 0.83667 0.52944 0.0
H329 H 0.81165 0.7717 0.33438 0.0
H330 H 0.81714 0.84743 0.27753 0.0
H331 H 0.80884 0.80082 0.23443 0.0
H332 H 0.72101 0.96612 0.22574 0.0
H333 H 0.67888 0.91609 0.99565 0.0
H334 H 0.71418 0.88667 0.16158 0.0
H335 H 0.68921 0.88077 1.03069 0.0
Tb336 Tb 0.17625 0.78594 0.44447 0.0
C337 C 0.24522 0.76007 0.58491 0.0
C338 C 0.2629 0.79338 0.70735 0.0
C339 C 0.25692 0.7472 0.7124 0.0
C340 C 0.25246 0.78609 0.624 0.0
C341 C 0.24793 0.74057 0.62858 0.0
C342 C 0.26457 0.77362 0.75157 0.0
C343 C 0.23684 0.71115 0.50151 0.0
N344 N 0.23757 0.75475 0.50308 0.0
C345 C 0.23522 0.73142 0.46065 0.0
C346 C 0.24273 0.71548 0.58612 0.0
Tb347 Tb 0.23468 0.78972 0.44398 0.0
N348 N 0.25043 0.80472 0.57975 0.0
C349 C 0.25999 0.83156 0.61474 0.0
C350 C 0.27152 0.82038 0.74386 0.0
C351 C 0.27026 0.8396 0.69709 0.0
H352 H 0.23243 0.72842 0.39465 0.0
H353 H 0.27735 0.86074 0.72432 0.0
H354 H 0.27212 0.77873 0.81582 0.0
H355 H 0.23416 0.69249 0.4674 0.0
H356 H 0.25994 0.8472 0.58054 0.0
H357 H 0.13773 0.73508 0.13615 0.0
H358 H 0.27952 0.8267 0.80768 0.0
H359 H 0.17117 0.83685 0.54228 0.0
H360 H 0.15444 0.73934 0.28009 0.0
H361 H 0.16302 0.87413 0.50583 0.0
H362 H 0.25888 0.73238 0.74685 0.0
H363 H 0.13474 0.77391 0.0835 0.0
H364 H 0.1391 0.82089 0.11225 0.0
H365 H 0.2445 0.69998 0.61752 0.0
H366 H 0.14639 0.85918 0.21345 0.0
N367 N 0.1619 0.78067 0.30871 0.0
C368 C 0.15347 0.75656 0.25802 0.0
C369 C 0.14226 0.77598 0.14676 0.0
C370 C 0.14945 0.79992 0.20007 0.0
C371 C 0.14384 0.75399 0.1763 0.0
C372 C 0.15905 0.80151 0.28198 0.0
H373 H 0.15472 0.87886 0.36069 0.0
N374 N 0.16895 0.82157 0.41865 0.0
C375 C 0.16308 0.85996 0.45826 0.0
C376 C 0.16276 0.82278 0.339 0.0
C377 C 0.16755 0.83875 0.47861 0.0
C378 C 0.15854 0.86265 0.37628 0.0
C379 C 0.15756 0.84344 0.31552 0.0
O380 O 0.14713 0.7826 0.51296 0.0
O381 O 0.20688 0.78733 0.5324 0.0
O382 O 0.20626 0.74807 0.38633 0.0
O383 O 0.16976 0.74272 0.43449 0.0
O384 O 0.18056 0.7925 0.5811 0.0
O385 O 0.13901 0.74996 0.42005 0.0
O386 O 0.26659 0.78588 0.42281 0.0
O387 O 0.20393 0.78797 0.35576 0.0
O388 O 0.20546 0.83148 0.45902 0.0
O389 O 0.24321 0.83237 0.44216 0.0
O390 O 0.23094 0.78354 0.30746 0.0
O391 O 0.26792 0.82498 0.41717 0.0
C392 C 0.19953 0.7895 0.60609 0.0
C393 C 0.10408 0.75593 0.44921 0.0
C394 C 0.0613 0.7453 0.48094 0.0
C395 C 0.08514 0.74709 0.5033 0.0
C396 C 0.05691 0.75234 0.4035 0.0
C397 C 0.0987 0.76233 0.37233 0.0
C398 C 0.07535 0.7606 0.34987 0.0
C399 C 0.18251 0.73214 0.4007 0.0
C400 C 0.12942 0.75881 0.47379 0.0
C401 C 0.15015 0.84329 0.23282 0.0
C402 C 0.14601 0.82149 0.17518 0.0
C403 C 0.21195 0.7867 0.28235 0.0
C404 C 0.30777 0.82763 0.43937 0.0
C405 C 0.3244 0.84528 0.38764 0.0
C406 C 0.35107 0.86085 0.41108 0.0
C407 C 0.36097 0.85844 0.48788 0.0
C408 C 0.31777 0.82563 0.51617 0.0
C409 C 0.34435 0.84103 0.54017 0.0
C410 C 0.23028 0.84514 0.45155 0.0
C411 C 0.28025 0.8118 0.40936 0.0
H412 H 0.08913 0.74208 0.56286 0.0
H413 H 0.03899 0.75113 0.38356 0.0
H414 H 0.11249 0.76862 0.32932 0.0
H415 H 0.07147 0.76567 0.29034 0.0
H416 H 0.31647 0.84646 0.32793 0.0
H417 H 0.38145 0.8702 0.50778 0.0
H418 H 0.30516 0.81219 0.55703 0.0
H419 H 0.35212 0.83945 0.5994 0.0
Tb420 Tb 0.24889 0.25626 0.43293 0.0
C421 C 0.32467 0.37277 0.57347 0.0
C422 C 0.31056 0.39923 0.49731 0.0
C423 C 0.33074 0.41648 0.63753 0.0
C424 C 0.31241 0.37518 0.50311 0.0
C425 C 0.33493 0.39402 0.64016 0.0
C426 C 0.3186 0.4191 0.56607 0.0
C427 C 0.35669 0.3722 0.70062 0.0
N428 N 0.32915 0.35131 0.57275 0.0
C429 C 0.34627 0.35174 0.633 0.0
C430 C 0.35047 0.39304 0.70524 0.0
Tb431 Tb 0.30955 0.31808 0.46048 0.0
N432 N 0.30532 0.35582 0.43724 0.0
C433 C 0.30009 0.36172 0.36137 0.0
C434 C 0.30236 0.40357 0.42125 0.0
C435 C 0.29785 0.38516 0.35262 0.0
H436 H 0.35094 0.33555 0.63143 0.0
H437 H 0.29259 0.38895 0.29282 0.0
H438 H 0.3168 0.43736 0.56317 0.0
H439 H 0.36941 0.37179 0.74934 0.0
H440 H 0.29664 0.34815 0.30687 0.0
H441 H 0.26254 0.18727 0.62407 0.0
H442 H 0.30071 0.42176 0.41419 0.0
H443 H 0.20998 0.23595 0.25625 0.0
H444 H 0.25821 0.22697 0.59974 0.0
H445 H 0.19393 0.19868 0.14137 0.0
H446 H 0.33808 0.43273 0.68872 0.0
H447 H 0.25688 0.1535 0.50909 0.0
H448 H 0.24376 0.13641 0.3599 0.0
H449 H 0.35874 0.40898 0.75746 0.0
H450 H 0.22482 0.13946 0.22691 0.0
N451 N 0.25176 0.21833 0.46874 0.0
C452 C 0.25593 0.21335 0.54714 0.0
C453 C 0.2551 0.17133 0.49716 0.0
C454 C 0.24817 0.17471 0.41812 0.0
C455 C 0.25825 0.19031 0.56212 0.0
C456 C 0.24615 0.19838 0.40595 0.0
H457 H 0.20516 0.16197 0.14589 0.0
N458 N 0.23087 0.22116 0.3252 0.0
C459 C 0.20578 0.1989 0.19409 0.0
C460 C 0.23543 0.19996 0.33134 0.0
C461 C 0.21483 0.21993 0.25973 0.0
C462 C 0.2123 0.17834 0.19665 0.0
C463 C 0.22662 0.17817 0.26681 0.0
O464 O 0.22603 0.26501 0.50572 0.0
O465 O 0.2683 0.3017 0.44575 0.0
O466 O 0.29813 0.31165 0.59035 0.0
O467 O 0.26148 0.26724 0.57068 0.0
O468 O 0.23842 0.27935 0.35355 0.0
O469 O 0.20954 0.2259 0.43301 0.0
O470 O 0.33499 0.31106 0.3963 0.0
O471 O 0.29011 0.27257 0.44759 0.0
O472 O 0.26137 0.26284 0.30383 0.0
O473 O 0.29706 0.30775 0.32284 0.0
O474 O 0.32217 0.29506 0.53316 0.0
O475 O 0.34486 0.35242 0.43842 0.0
C476 C 0.25415 0.30408 0.38945 0.0
C477 C 0.1816 0.24341 0.45496 0.0
C478 C 0.14067 0.23978 0.48145 0.0
C479 C 0.16215 0.2371 0.50651 0.0
C480 C 0.13902 0.24878 0.40514 0.0
C481 C 0.17875 0.25171 0.37838 0.0
C482 C 0.1578 0.25452 0.35409 0.0
C483 C 0.2796 0.2896 0.62166 0.0
C484 C 0.20485 0.24166 0.48074 0.0
C485 C 0.23097 0.15608 0.2763 0.0
C486 C 0.24175 0.15434 0.35199 0.0
C487 C 0.30491 0.27011 0.50175 0.0
C488 C 0.3796 0.34533 0.42393 0.0
C489 C 0.39859 0.35979 0.37221 0.0
C490 C 0.42476 0.36832 0.39585 0.0
C491 C 0.43122 0.36269 0.47336 0.0
C492 C 0.38683 0.33909 0.49841 0.0
C493 C 0.41246 0.34799 0.52322 0.0
C494 C 0.27957 0.28505 0.27208 0.0
C495 C 0.35245 0.33734 0.40108 0.0
H496 H 0.16379 0.23039 0.56556 0.0
H497 H 0.12288 0.25103 0.38447 0.0
H498 H 0.19257 0.25598 0.33652 0.0
H499 H 0.15607 0.26113 0.29501 0.0
H500 H 0.39286 0.36399 0.31369 0.0
H501 H 0.45093 0.36979 0.49655 0.0
H502 H 0.37269 0.32746 0.53779 0.0
H503 H 0.41787 0.34356 0.58181 0.0
Tb504 Tb 0.40081 0.11568 0.56401 0.0
C505 C 0.32638 0.12637 0.71412 0.0
C506 C 0.33801 0.16072 0.83072 0.0
C507 C 0.30246 0.15023 0.72854 0.0
C508 C 0.34205 0.14132 0.78546 0.0
C509 C 0.3062 0.13046 0.68504 0.0
C510 C 0.31838 0.16539 0.80123 0.0
C511 C 0.29522 0.09567 0.5712 0.0
N512 N 0.33126 0.10825 0.67225 0.0
C513 C 0.31568 0.09266 0.60172 0.0
C514 C 0.29053 0.11476 0.61275 0.0
Tb515 Tb 0.36464 0.1038 0.73016 0.0
N516 N 0.36099 0.1365 0.81126 0.0
C517 C 0.3753 0.14894 0.88624 0.0
C518 C 0.35356 0.17456 0.90482 0.0
C519 C 0.37206 0.16833 0.93328 0.0
H520 H 0.31913 0.07835 0.56659 0.0
H521 H 0.38375 0.17835 0.99163 0.0
H522 H 0.31511 0.18034 0.83481 0.0
H523 H 0.28329 0.08349 0.51488 0.0
H524 H 0.3894 0.1439 0.90962 0.0
H525 H 0.41225 0.02455 0.56252 0.0
H526 H 0.3511 0.18964 0.94118 0.0
H527 H 0.44316 0.18111 0.53605 0.0
H528 H 0.38836 0.04808 0.56757 0.0
H529 H 0.48991 0.21073 0.53823 0.0
H530 H 0.28725 0.15386 0.70668 0.0
H531 H 0.45938 0.05139 0.56754 0.0
H532 H 0.49982 0.09758 0.57593 0.0
H533 H 0.27488 0.11732 0.58834 0.0
H534 H 0.52115 0.14835 0.57415 0.0
N535 N 0.42079 0.08953 0.56751 0.0
C536 C 0.40854 0.06095 0.5652 0.0
C537 C 0.44882 0.06224 0.56711 0.0
C538 C 0.46149 0.09125 0.57043 0.0
C539 C 0.42224 0.04705 0.56388 0.0
C540 C 0.44683 0.10443 0.5693 0.0
H541 H 0.51765 0.19063 0.55953 0.0
N542 N 0.4442 0.14476 0.56183 0.0
C543 C 0.48153 0.18898 0.54759 0.0
C544 C 0.45892 0.13299 0.56803 0.0
C545 C 0.455 0.17209 0.54681 0.0
C546 C 0.49709 0.17756 0.5597 0.0
C547 C 0.48581 0.14913 0.568 0.0
O548 O 0.37435 0.10705 0.46007 0.0
O549 O 0.37053 0.12001 0.61354 0.0
O550 O 0.34449 0.06507 0.64579 0.0
O551 O 0.36849 0.07171 0.53749 0.0
O552 O 0.39851 0.15362 0.56538 0.0
O553 O 0.41334 0.11986 0.44769 0.0
O554 O 0.33878 0.06151 0.74131 0.0
O555 O 0.39272 0.09699 0.67582 0.0
O556 O 0.42518 0.1508 0.66073 0.0
O557 O 0.39946 0.14547 0.76452 0.0
O558 O 0.39803 0.10568 0.80051 0.0
O559 O 0.35303 0.09216 0.84527 0.0
C560 C 0.37793 0.14504 0.59931 0.0
C561 C 0.39434 0.14054 0.36976 0.0
C562 C 0.37339 0.16328 0.30414 0.0
C563 C 0.37202 0.1399 0.33686 0.0
C564 C 0.39761 0.18767 0.30698 0.0
C565 C 0.41836 0.16454 0.3665 0.0
C566 C 0.4199 0.18808 0.33691 0.0
C567 C 0.34848 0.05595 0.57598 0.0
C568 C 0.39218 0.11706 0.41264 0.0
C569 C 0.50048 0.13626 0.57315 0.0
C570 C 0.48833 0.10735 0.57394 0.0
C571 C 0.40754 0.10034 0.73993 0.0
C572 C 0.30911 0.05599 0.83145 0.0
C573 C 0.30209 0.07356 0.8712 0.0
C574 C 0.27671 0.06327 0.88754 0.0
C575 C 0.25806 0.0352 0.86225 0.0
C576 C 0.29016 0.02795 0.80592 0.0
C577 C 0.26476 0.01773 0.82065 0.0
C578 C 0.42092 0.15958 0.73102 0.0
C579 C 0.33593 0.06668 0.81571 0.0
H580 H 0.35365 0.12081 0.33537 0.0
H581 H 0.39946 0.20624 0.28414 0.0
H582 H 0.43601 0.16537 0.38777 0.0
H583 H 0.43848 0.2067 0.33665 0.0
H584 H 0.31662 0.09505 0.893 0.0
H585 H 0.23855 0.02675 0.87603 0.0
H586 H 0.29505 0.01393 0.77506 0.0
H587 H 0.25034 0.99605 0.80122 0.0
Tb588 Tb 0.94964 0.18079 0.80498 0.0
C589 C 0.87773 0.20135 0.61023 0.0
C590 C 0.86042 0.17138 0.482 0.0
C591 C 0.83322 0.183 0.55447 0.0
C592 C 0.88085 0.18762 0.54476 0.0
C593 C 0.85426 0.20044 0.61402 0.0
C594 C 0.83624 0.16824 0.48876 0.0
C595 C 0.87497 0.23589 0.73013 0.0
N596 N 0.89839 0.21731 0.66717 0.0
C597 C 0.89755 0.23524 0.72539 0.0
C598 C 0.85301 0.21787 0.67552 0.0
Tb599 Tb 0.93476 0.21515 0.65432 0.0
N600 N 0.9046 0.19159 0.54056 0.0
C601 C 0.91002 0.18287 0.46937 0.0
C602 C 0.86523 0.15983 0.41311 0.0
C603 C 0.89031 0.16626 0.40574 0.0
H604 H 0.91404 0.24887 0.7696 0.0
H605 H 0.89445 0.15826 0.35143 0.0
H606 H 0.82016 0.1556 0.44167 0.0
H607 H 0.87438 0.24983 0.77718 0.0
H608 H 0.92924 0.18729 0.46375 0.0
H609 H 0.05407 0.23312 0.85899 0.0
H610 H 0.84993 0.1468 0.36419 0.0
H611 H 0.90679 0.1123 0.79706 0.0
H612 H 0.01293 0.22979 0.86582 0.0
H613 H 0.90551 0.0681 0.76298 0.0
H614 H 0.81485 0.18152 0.55719 0.0
H615 H 0.05609 0.19237 0.80317 0.0
H616 H 0.03283 0.14149 0.75079 0.0
H617 H 0.83543 0.21802 0.68027 0.0
H618 H 0.99223 0.09632 0.72434 0.0
N619 N 0.99031 0.18733 0.8091 0.0
C620 C 0.01269 0.21157 0.83953 0.0
C621 C 0.03759 0.19063 0.80525 0.0
C622 C 0.01476 0.16527 0.78046 0.0
C623 C 0.03651 0.21365 0.83682 0.0
C624 C 0.99114 0.16413 0.78422 0.0
H625 H 0.94473 0.06865 0.73067 0.0
N626 N 0.94616 0.13805 0.77961 0.0
C627 C 0.92324 0.0878 0.76356 0.0
C628 C 0.96833 0.13866 0.76904 0.0
C629 C 0.92407 0.11299 0.78274 0.0
C630 C 0.94541 0.08821 0.74515 0.0
C631 C 0.96848 0.11379 0.75 0.0
O632 O 0.95633 0.16564 0.91227 0.0
O633 O 0.92382 0.19498 0.76324 0.0
O634 O 0.95012 0.24211 0.77276 0.0
O635 O 0.97417 0.22612 0.83973 0.0
O636 O 0.90745 0.15578 0.79917 0.0
O637 O 0.94177 0.19323 0.91638 0.0
O638 O 0.95299 0.23994 0.56207 0.0
O639 O 0.96436 0.20832 0.71252 0.0
O640 O 0.93434 0.15299 0.68854 0.0
O641 O 0.91124 0.16955 0.61743 0.0
O642 O 0.9617 0.20839 0.58932 0.0
O643 O 0.9474 0.25801 0.67024 0.0
C644 C 0.90245 0.17383 0.77262 0.0
C645 C 0.92305 0.15555 0.99412 0.0
C646 C 0.88494 0.14531 1.05872 0.0
C647 C 0.90705 0.16407 1.02554 0.0
C648 C 0.87912 0.11769 1.06175 0.0
C649 C 0.91691 0.12778 0.99731 0.0
C650 C 0.89505 0.10902 1.03095 0.0
C651 C 0.96839 0.24572 0.83007 0.0
C652 C 0.9451 0.17557 0.95467 0.0
C653 C 0.99177 0.11515 0.74028 0.0
C654 C 0.01489 0.14087 0.75541 0.0
C655 C 0.97372 0.20493 0.65024 0.0
C656 C 0.94366 0.27608 0.55001 0.0
C657 C 0.92218 0.26059 0.49094 0.0
C658 C 0.91159 0.27371 0.4461 0.0
C659 C 0.92278 0.30278 0.4609 0.0
C660 C 0.9544 0.30507 0.56535 0.0
C661 C 0.94398 0.31833 0.52091 0.0
C662 C 0.91685 0.14992 0.62933 0.0
C663 C 0.95425 0.26205 0.59805 0.0
H664 H 0.91211 0.18566 1.02519 0.0
H665 H 0.86238 0.10293 0.08803 0.0
H666 H 0.92882 0.12047 0.97343 0.0
H667 H 0.89045 0.08768 1.03321 0.0
H668 H 0.91415 0.23833 0.47776 0.0
H669 H 0.91523 0.31338 0.42592 0.0
H670 H 0.97082 0.31742 0.61157 0.0
H671 H 0.95249 0.34074 0.53256 0.0
Tb672 Tb 0.85243 0.61354 0.75901 0.0
C673 C 0.92752 0.73319 0.87397 0.0
C674 C 0.969 0.73785 0.86687 0.0
C675 C 0.96345 0.77714 0.84536 0.0
C676 C 0.94275 0.72151 0.87642 0.0
C677 C 0.93785 0.7614 0.86092 0.0
C678 C 0.97903 0.76538 0.84845 0.0
C679 C 0.89805 0.75754 0.89068 0.0
N680 N 0.90313 0.7175 0.89122 0.0
C681 C 0.88876 0.72974 0.90385 0.0
C682 C 0.92255 0.77332 0.86768 0.0
Tb683 Tb 0.88952 0.67185 0.91129 0.0
N684 N 0.93239 0.69491 0.89506 0.0
C685 C 0.94811 0.68459 0.91355 0.0
C686 C 0.98467 0.72654 0.8802 0.0
C687 C 0.97429 0.70007 0.90568 0.0
H688 H 0.86972 0.7176 0.92131 0.0
H689 H 0.98641 0.69143 0.91877 0.0
H690 H 0.99904 0.77808 0.83966 0.0
H691 H 0.88631 0.76676 0.89826 0.0
H692 H 0.9409 0.66435 0.93373 0.0
H693 H 0.78406 0.60661 0.51443 0.0
H694 H 0.00495 0.73843 0.87388 0.0
H695 H 0.84434 0.57847 0.92024 0.0
H696 H 0.82728 0.62278 0.58609 0.0
H697 H 0.80849 0.54189 0.98056 0.0
H698 H 0.97166 0.79874 0.83417 0.0
H699 H 0.7454 0.57392 0.57469 0.0
H700 H 0.7266 0.54349 0.68545 0.0
H701 H 0.92979 0.79492 0.85809 0.0
H702 H 0.73326 0.52512 0.81056 0.0
N703 N 0.81326 0.6011 0.68909 0.0
C704 C 0.81049 0.60884 0.61364 0.0
C705 C 0.76431 0.58121 0.60686 0.0
C706 C 0.76723 0.57152 0.68052 0.0
C707 C 0.78607 0.59966 0.57267 0.0
C708 C 0.79228 0.58174 0.72001 0.0
H709 H 0.76369 0.52393 0.91984 0.0
N710 N 0.82045 0.58147 0.82502 0.0
C711 C 0.80469 0.54999 0.92688 0.0
C712 C 0.79602 0.57127 0.78971 0.0
C713 C 0.82506 0.57084 0.89225 0.0
C714 C 0.77944 0.53988 0.89242 0.0
C715 C 0.77482 0.55045 0.82284 0.0
O716 O 0.84994 0.57453 0.74067 0.0
O717 O 0.89067 0.6486 0.80411 0.0
O718 O 0.87776 0.68595 0.80402 0.0
O719 O 0.84214 0.64549 0.73544 0.0
O720 O 0.8794 0.64176 0.68055 0.0
O721 O 0.85238 0.59791 0.64021 0.0
O722 O 0.89316 0.69702 1.01821 0.0
O723 O 0.85344 0.63238 0.87871 0.0
O724 O 0.87818 0.60413 0.83314 0.0
O725 O 0.89712 0.63894 0.94386 0.0
O726 O 0.8518 0.66473 0.93576 0.0
O727 O 0.9015 0.66427 1.02415 0.0
C728 C 0.89814 0.65738 0.73704 0.0
C729 C 0.87408 0.5726 0.63809 0.0
C730 C 0.91263 0.58891 0.56965 0.0
C731 C 0.89121 0.5906 0.58793 0.0
C732 C 0.91585 0.56763 0.59864 0.0
C733 C 0.87749 0.5513 0.66557 0.0
C734 C 0.8982 0.5488 0.64559 0.0
C735 C 0.85669 0.67312 0.75056 0.0
C736 C 0.85338 0.5767 0.66428 0.0
C737 C 0.74978 0.54085 0.78547 0.0
C738 C 0.74599 0.5514 0.71447 0.0
C739 C 0.83794 0.63932 0.90298 0.0
C740 C 0.93066 0.70649 0.1035 0.0
C741 C 0.94293 0.69572 0.15072 0.0
C742 C 0.9687 0.71261 0.18521 0.0
C743 C 0.98226 0.74088 0.17288 0.0
C744 C 0.94448 0.73481 0.0909 0.0
C745 C 0.97017 0.75184 0.12537 0.0
C746 C 0.89277 0.6153 0.90453 0.0
C747 C 0.90446 0.68692 1.06202 0.0
H748 H 0.88792 0.6062 0.56359 0.0
H749 H 0.93221 0.56583 0.58658 0.0
H750 H 0.86441 0.53693 0.70371 0.0
H751 H 0.90087 0.53255 0.66798 0.0
H752 H 0.93213 0.67399 0.16159 0.0
H753 H 0.002 0.75443 0.2005 0.0
H754 H 0.93562 0.74374 1.05396 0.0
H755 H 0.9807 0.77362 0.1155 0.0
H756 H 0.12969 0.50215 0.93543 0.0
H757 H 0.04575 0.45568 0.47651 0.0
H758 H 0.04723 0.45839 0.89938 0.0
H759 H 0.12816 0.50105 0.51221 0.0
H760 H 0.04585 0.4564 0.62615 0.0
H761 H 0.12962 0.50163 0.78571 0.0
C762 C 0.11138 0.49213 0.89717 0.0
C763 C 0.08844 0.48006 0.93513 0.0
C764 C 0.06408 0.46641 0.60217 0.0
C765 C 0.08819 0.4797 0.75462 0.0
C766 C 0.06404 0.46625 0.51471 0.0
C767 C 0.08692 0.47878 0.4766 0.0
C768 C 0.0873 0.47911 0.65718 0.0
C769 C 0.10969 0.49106 0.53464 0.0
C770 C 0.11138 0.492 0.80969 0.0
C771 C 0.06572 0.4681 0.87704 0.0
N772 N 0.10922 0.49091 0.61903 0.0
N773 N 0.06625 0.46823 0.79269 0.0
H774 H 0.63763 0.47785 0.80681 0.0
H775 H 0.604 0.52851 0.37926 0.0
H776 H 0.60148 0.52684 0.80021 0.0
H777 H 0.64 0.47938 0.3858 0.0
H778 H 0.60309 0.52828 0.52837 0.0
H779 H 0.6386 0.47814 0.65775 0.0
C780 C 0.6298 0.48881 0.77521 0.0
C781 C 0.61952 0.50246 0.82133 0.0
C782 C 0.6112 0.5174 0.49799 0.0
C783 C 0.62064 0.50286 0.64145 0.0
C784 C 0.61179 0.51751 0.41085 0.0
C785 C 0.62197 0.50377 0.36469 0.0
C786 C 0.62094 0.50345 0.54461 0.0
C787 C 0.63156 0.49014 0.4145 0.0
C788 C 0.63042 0.48896 0.6881 0.0
C789 C 0.60994 0.51609 0.77151 0.0
N790 N 0.63079 0.49038 0.49888 0.0
N791 N 0.61074 0.51588 0.68716 0.0
H792 H 0.56916 0.01754 0.58196 0.0
H793 H 0.61179 0.1108 0.19385 0.0
H794 H 0.61542 0.10711 0.61499 0.0
H795 H 0.56874 0.0211 0.1607 0.0
H796 H 0.6128 0.10993 0.34316 0.0
H797 H 0.56826 0.01831 0.43248 0.0
C798 C 0.57913 0.03756 0.55918 0.0
C799 C 0.59222 0.06225 0.61637 0.0
C800 C 0.60307 0.09026 0.30392 0.0
C801 C 0.59135 0.06337 0.43614 0.0
C802 C 0.60251 0.09073 0.21651 0.0
C803 C 0.59026 0.06604 0.15933 0.0
C804 C 0.5912 0.0648 0.33953 0.0
C805 C 0.57861 0.04106 0.19843 0.0
C806 C 0.57865 0.03797 0.47174 0.0
C807 C 0.60482 0.08715 0.57728 0.0
N808 N 0.57937 0.04118 0.28318 0.0
N809 N 0.60399 0.08698 0.49253 0.0
H810 H 0.82159 0.91496 0.66388 0.0
H811 H 0.74248 0.88942 0.06316 0.0
H812 H 0.74193 0.89045 0.64185 0.0
H813 H 0.82368 0.92151 0.08754 0.0
H814 H 0.74174 0.88878 0.91374 0.0
H815 H 0.82248 0.91623 0.81368 0.0
C816 C 0.80408 0.90987 0.68917 0.0
C817 C 0.78165 0.90284 0.63489 0.0
C818 C 0.75988 0.89601 0.95101 0.0
C819 C 0.78257 0.90403 0.81568 0.0
C820 C 0.7604 0.89654 1.03856 0.0
C821 C 0.78322 0.90566 0.09351 0.0
C822 C 0.7824 0.90448 0.91271 0.0
C823 C 0.8053 0.91402 1.0518 0.0
C824 C 0.80467 0.9106 0.77682 0.0
C825 C 0.75999 0.89635 0.67715 0.0
N826 N 0.80427 0.91317 0.96679 0.0
N827 N 0.76104 0.89706 0.76212 0.0
H828 H 0.20467 0.75076 0.71237 0.0
H829 H 0.20485 0.82432 0.17565 0.0
H830 H 0.20428 0.82716 0.74231 0.0
H831 H 0.20887 0.75003 0.14651 0.0
H832 H 0.20348 0.82522 1.02493 0.0
H833 H 0.20618 0.74997 0.86302 0.0
C834 C 0.20582 0.76821 0.74884 0.0
C835 C 0.20602 0.79015 0.7065 0.0
C836 C 0.20423 0.80819 1.05 0.0
C837 C 0.20588 0.78822 0.89358 0.0
C838 C 0.20456 0.80735 0.13936 0.0
C839 C 0.20552 0.78602 0.18189 0.0
C840 C 0.2055 0.78797 0.99483 0.0
C841 C 0.20699 0.7666 0.12289 0.0
C842 C 0.20622 0.76743 0.83818 0.0
C843 C 0.20541 0.81013 0.76574 0.0
N844 N 0.20676 0.76798 1.03755 0.0
N845 N 0.20551 0.80872 0.85108 0.0
H846 H 0.24648 0.24712 0.71397 0.0
H847 H 0.31181 0.32806 0.18004 0.0
H848 H 0.31187 0.33053 0.75872 0.0
H849 H 0.24798 0.24371 0.13494 0.0
H850 H 0.31198 0.32944 1.03103 0.0
H851 H 0.24649 0.24572 0.86287 0.0
C852 C 0.26108 0.26535 0.75391 0.0
C853 C 0.27939 0.28898 0.71844 0.0
C854 C 0.29779 0.31048 1.05287 0.0
C855 C 0.27933 0.28744 0.89835 0.0
C856 C 0.29765 0.30959 0.13995 0.0
C857 C 0.27977 0.28567 0.17532 0.0
C858 C 0.27986 0.28727 0.99545 0.0
C859 C 0.26225 0.26292 0.11489 0.0
C860 C 0.261 0.26447 0.84099 0.0
C861 C 0.2973 0.31152 0.77884 0.0
N862 N 0.26278 0.26434 1.03087 0.0
N863 N 0.29676 0.31014 0.86288 0.0
H864 H 0.37059 0.18735 0.167 0.0
H865 H 0.28431 0.11506 0.86894 0.0
H866 H 0.32268 0.13354 0.33417 0.0
H867 H 0.25859 0.05241 1.03389 0.0
H868 H 0.29681 0.15095 0.98403 0.0
H869 H 0.33318 0.17148 0.06997 0.0
C870 C 0.35209 0.17289 0.18498 0.0
C871 C 0.35014 0.16076 0.25786 0.0
C872 C 0.28799 0.12934 0.99529 0.0
C873 C 0.3066 0.14144 0.14389 0.0
C874 C 0.28049 0.10886 0.9293 0.0
C875 C 0.27167 0.08113 0.94305 0.0
C876 C 0.28748 0.12183 0.07503 0.0
C877 C 0.26616 0.07379 1.02137 0.0
C878 C 0.33037 0.16365 0.12859 0.0
C879 C 0.32538 0.14231 0.27686 0.0
N880 N 0.27504 0.09419 0.08517 0.0
N881 N 0.30468 0.13244 0.21903 0.0
H882 H 0.91042 0.28335 0.28686 0.0
H883 H 0.86873 0.17875 0.99735 0.0
H884 H 0.86641 0.2253 0.45046 0.0
H885 H 0.86716 0.13656 0.20736 0.0
H886 H 0.8584 0.20908 0.07797 0.0
H887 H 0.88669 0.24709 0.17242 0.0
C888 C 0.89485 0.26324 0.29818 0.0
C889 C 0.89091 0.25679 0.37807 0.0
C890 C 0.85977 0.19282 0.10602 0.0
C891 C 0.86392 0.21488 0.24789 0.0
C892 C 0.86548 0.17541 1.05984 0.0
C893 C 0.86988 0.15603 0.09668 0.0
C894 C 0.85893 0.19096 0.18995 0.0
C895 C 0.86464 0.15178 0.17706 0.0
C896 C 0.88118 0.24236 0.23261 0.0
C897 C 0.87051 0.23049 0.38949 0.0
N898 N 0.86013 0.1697 0.22176 0.0
N899 N 0.85839 0.21008 0.32541 0.0
H900 H 0.92712 0.64383 0.57341 0.0
H901 H 0.96931 0.66409 0.16022 0.0
H902 H 0.94152 0.58264 0.45728 0.0
H903 H 0.99091 0.73356 0.34181 0.0
H904 H 0.9675 0.63576 0.26901 0.0
H905 H 0.95528 0.67775 0.49193 0.0
C906 C 0.93666 0.63757 0.53227 0.0
C907 C 0.93182 0.61015 0.52319 0.0
C908 C 0.97383 0.65757 0.28507 0.0
C909 C 0.96475 0.64964 0.42822 0.0
C910 C 0.97491 0.67376 0.22302 0.0
C911 C 0.97939 0.70082 0.24263 0.0
C912 C 0.9769 0.66861 0.36642 0.0
C913 C 0.98686 0.71258 0.32432 0.0
C914 C 0.95317 0.65726 0.48613 0.0
C915 C 0.94476 0.60356 0.46715 0.0
N916 N 0.98462 0.69611 0.3836 0.0
N917 N 0.96025 0.62304 0.42028 0.0
H918 H 0.25752 0.34275 0.51368 0.0
H919 H 0.17462 0.38935 0.23325 0.0
H920 H 0.23038 0.31222 0.25887 0.0
H921 H 0.22986 0.44472 0.43648 0.0
H922 H 0.18791 0.35519 0.25747 0.0
H923 H 0.24161 0.37544 0.50099 0.0
C924 C 0.24855 0.34315 0.45502 0.0
C925 C 0.24611 0.32536 0.38653 0.0
C926 C 0.19692 0.3747 0.29739 0.0
C927 C 0.22659 0.36155 0.37257 0.0
C928 C 0.18914 0.39408 0.28401 0.0
C929 C 0.20107 0.41997 0.33286 0.0
C930 C 0.21653 0.38092 0.36103 0.0
C931 C 0.22013 0.42505 0.39719 0.0
C932 C 0.23924 0.3616 0.44792 0.0
C933 C 0.23321 0.32594 0.31288 0.0
N934 N 0.22723 0.40581 0.40943 0.0
N935 N 0.22398 0.34358 0.30791 0.0
H936 H 0.6916 0.68272 0.14925 0.0
H937 H 0.73759 0.82899 0.4142 0.0
H938 H 0.64532 0.69258 0.31732 0.0
H939 H 0.76227 0.82193 0.1814 0.0
H940 H 0.70879 0.77783 0.39808 0.0
H941 H 0.72357 0.73276 0.18063 0.0
C942 C 0.68838 0.69534 0.19363 0.0
C943 C 0.66573 0.68358 0.23025 0.0
C944 C 0.72055 0.78757 0.35068 0.0
C945 C 0.70209 0.7407 0.26639 0.0
C946 C 0.73677 0.81668 0.35958 0.0
C947 C 0.75158 0.82966 0.29764 0.0
C948 C 0.71983 0.77143 0.28059 0.0
C949 C 0.75071 0.81272 0.22968 0.0
C950 C 0.70649 0.72389 0.21107 0.0
C951 C 0.66241 0.70094 0.28702 0.0
N952 N 0.73507 0.78454 0.22284 0.0
N953 N 0.68036 0.72863 0.30328 0.0
H954 H 0.46191 0.9286 0.0684 0.0
H955 H 0.34489 0.89675 0.32 0.0
H956 H 0.41615 0.9671 1.03648 0.0
H957 H 0.39598 0.86572 0.37091 0.0
H958 H 0.37085 0.9228 0.2164 0.0
H959 H 0.43802 0.9054 0.17893 0.0
C960 C 0.44695 0.93235 0.08484 0.0
C961 C 0.44114 0.94997 1.04288 0.0
C962 C 0.3765 0.91044 0.25046 0.0
C963 C 0.41339 0.92306 0.1693 0.0
C964 C 0.36165 0.8955 0.30951 0.0
C965 C 0.36818 0.87887 0.35383 0.0
C966 C 0.39802 0.90866 0.23498 0.0
C967 C 0.39032 0.87838 0.33853 0.0
C968 C 0.43323 0.91897 0.14791 0.0
C969 C 0.42114 0.95347 0.06616 0.0
N970 N 0.40432 0.89287 0.27995 0.0
N971 N 0.40801 0.94014 0.12766 0.0
H972 H 0.54824 0.10164 0.9387 0.0
H973 H 0.45796 0.14376 0.77853 0.0
H974 H 0.52305 0.059 0.69362 0.0
H975 H 0.41203 0.05405 0.73721 0.0
H976 H 0.49674 0.14043 0.80767 0.0
H977 H 0.51416 0.11369 0.92081 0.0
C978 C 0.53608 0.09538 0.88077 0.0
C979 C 0.53902 0.07971 0.81703 0.0
C980 C 0.47816 0.12153 0.79168 0.0
C981 C 0.49908 0.09192 0.7981 0.0
C982 C 0.45602 0.12338 0.77388 0.0
C983 C 0.43172 0.09914 0.75031 0.0
C984 C 0.47605 0.09522 0.78664 0.0
C985 C 0.43043 0.07331 0.75036 0.0
C986 C 0.51647 0.10201 0.87086 0.0
C987 C 0.52182 0.0713 0.74436 0.0
N988 N 0.4522 0.07204 0.76619 0.0
N989 N 0.50251 0.07699 0.73757 0.0
H990 H 0.99356 0.25623 0.98531 0.0
H991 H 0.0646 0.4219 1.01621 0.0
H992 H 0.97738 0.29743 0.79792 0.0
H993 H 0.04387 0.3797 0.231 0.0
H994 H 0.03909 0.37667 0.93089 0.0
H995 H 0.01821 0.30134 0.07239 0.0
C996 C 0.99521 0.27472 0.96231 0.0
C997 C 0.98325 0.27291 0.88402 0.0
C998 C 0.03996 0.37733 0.99667 0.0
C999 C 0.01193 0.32474 0.98299 0.0
C1000 C 0.05443 0.40318 1.04545 0.0
C1001 C 0.05545 0.40473 0.13091 0.0
C1002 C 0.02731 0.35262 1.03348 0.0
C1003 C 0.04296 0.37951 0.16534 0.0
C1004 C 0.00921 0.30043 1.01222 0.0
C1005 C 0.98607 0.29767 0.85782 0.0
N1006 N 0.02943 0.35453 0.11668 0.0
N1007 N 1.0003 0.32252 0.90667 0.0
H1008 H 0.79156 0.62863 0.82687 0.0
H1009 H 0.71124 0.54984 0.18406 0.0
H1010 H 0.82505 0.61043 1.03527 0.0
H1011 H 0.67451 0.5444 0.94472 0.0
H1012 H 0.75318 0.57366 0.13312 0.0
H1013 H 0.74883 0.6004 0.87117 0.0
C1014 C 0.78983 0.61836 0.88138 0.0
C1015 C 0.81171 0.62079 0.92543 0.0
C1016 C 0.73596 0.56698 0.0913 0.0
C1017 C 0.76302 0.58945 0.97881 0.0
C1018 C 0.712 0.55327 0.12037 0.0
C1019 C 0.68925 0.54449 0.06824 0.0
C1020 C 0.73746 0.57295 1.00983 0.0
C1021 C 0.69146 0.55019 0.98664 0.0
C1022 C 0.76546 0.60231 0.90682 0.0
C1023 C 0.80855 0.60817 0.99778 0.0
N1024 N 0.71506 0.56418 0.9602 0.0
N1025 N 0.78477 0.59307 1.02204 0.0
H1026 H 0.91488 0.62268 0.06267 0.0
H1027 H 0.97483 0.52628 0.97152 0.0
H1028 H 0.90295 0.57796 0.8259 0.0
H1029 H 0.96023 0.54427 0.21176 0.0
H1030 H 0.95608 0.55286 0.91658 0.0
H1031 H 0.93841 0.60112 0.11766 0.0
C1032 C 0.91711 0.60827 1.02218 0.0
C1033 C 0.90653 0.60183 0.93957 0.0
C1034 C 0.95726 0.55124 0.98147 0.0
C1035 C 0.93394 0.57745 1.00204 0.0
C1036 C 0.96821 0.53635 1.01289 0.0
C1037 C 0.96911 0.53312 0.09627 0.0
C1038 C 0.94749 0.56332 1.03401 0.0
C1039 C 0.95987 0.54625 0.14706 0.0
C1040 C 0.93057 0.59598 1.05369 0.0
C1041 C 0.91032 0.58317 0.89012 0.0
N1042 N 0.94945 0.56073 0.11522 0.0
N1043 N 0.92375 0.57174 0.92195 0.0
H1044 H 0.54475 0.33227 0.8446 0.0
H1045 H 0.4372 0.17463 0.89554 0.0
H1046 H 0.54185 0.29535 0.06767 0.0
H1047 H 0.45081 0.2074 0.66422 0.0
H1048 H 0.47234 0.22007 0.9635 0.0
H1049 H 0.5072 0.28812 0.78135 0.0
C1050 C 0.53607 0.31499 0.88062 0.0
C1051 C 0.54662 0.31759 0.96159 0.0
C1052 C 0.46767 0.21727 0.89779 0.0
C1053 C 0.50357 0.26672 0.88916 0.0
C1054 C 0.44754 0.1914 0.8591 0.0
C1055 C 0.44142 0.18706 0.77387 0.0
C1056 C 0.4815 0.23911 0.85095 0.0
C1057 C 0.45543 0.2095 0.72959 0.0
C1058 C 0.51472 0.28968 0.84425 0.0
C1059 C 0.53463 0.29426 1.00479 0.0
N1060 N 0.47475 0.23448 0.76849 0.0
N1061 N 0.51381 0.26987 0.96815 0.0
H1062 H 0.8922 0.20627 0.87429 0.0
H1063 H 0.73832 0.11133 0.77705 0.0
H1064 H 0.85506 0.13494 0.69087 0.0
H1065 H 0.77866 0.19094 0.92649 0.0
H1066 H 0.7798 0.11958 0.73841 0.0
H1067 H 0.85023 0.20058 0.89192 0.0
C1068 C 0.87519 0.18974 0.83641 0.0
C1069 C 0.87727 0.17191 0.77827 0.0
C1070 C 0.77951 0.13547 0.77851 0.0
C1071 C 0.82866 0.16434 0.8003 0.0
C1072 C 0.75576 0.13089 0.7997 0.0
C1073 C 0.7549 0.15057 0.8546 0.0
C1074 C 0.80261 0.15977 0.81313 0.0
C1075 C 0.77831 0.17525 0.88367 0.0
C1076 C 0.85113 0.18632 0.84678 0.0
C1077 C 0.8544 0.14981 0.73419 0.0
N1078 N 0.80102 0.17896 0.86342 0.0
N1079 N 0.8311 0.14671 0.74574 0.0
H1080 H 0.64033 0.05701 0.1049 0.0
H1081 H 0.69612 0.9613 0.95644 0.0
H1082 H 0.63724 0.03139 0.85125 0.0
H1083 H 0.68562 0.97483 0.20659 0.0
H1084 H 0.67915 0.99087 0.91769 0.0
H1085 H 0.66153 0.03136 0.14344 0.0
C1086 C 0.64403 0.04577 1.05731 0.0
C1087 C 0.63615 0.04535 0.97495 0.0
C1088 C 0.68068 0.9875 0.9811 0.0
C1089 C 0.66116 0.01655 1.01845 0.0
C1090 C 0.69031 0.9705 1.00348 0.0
C1091 C 0.69207 0.96512 0.08507 0.0
C1092 C 0.6729 -0.0004 1.04065 0.0
C1093 C 0.68483 0.97837 0.14316 0.0
C1094 C 0.65619 0.03119 0.07933 0.0
C1095 C 0.64217 0.03132 0.91551 0.0
N1096 N 0.67546 0.99481 0.11977 0.0
N1097 N 0.65423 0.01735 0.93844 0.0
H1098 H 0.19363 0.70701 0.27735 0.0
H1099 H 0.10255 0.54824 0.36646 0.0
H1100 H 0.1438 0.6867 0.46492 0.0
H1101 H 0.13731 0.57125 0.14592 0.0
H1102 H 0.12155 0.59829 0.41541 0.0
H1103 H 0.1768 0.6574 0.23933 0.0
C1104 C 0.17906 0.6921 0.31072 0.0
C1105 C 0.17022 0.70133 0.37476 0.0
C1106 C 0.12537 0.5924 0.35693 0.0
C1107 C 0.15073 0.64363 0.33118 0.0
C1108 C 0.11485 0.56385 0.32955 0.0
C1109 C 0.11897 0.55556 0.25291 0.0
C1110 C 0.14011 0.61288 0.3073 0.0
C1111 C 0.13414 0.57667 0.2061 0.0
C1112 C 0.16941 0.66361 0.28875 0.0
C1113 C 0.15112 0.6807 0.41488 0.0
N1114 N 0.14417 0.60415 0.23399 0.0
N1115 N 0.14214 0.6529 0.39284 0.0
H1116 H 0.52648 0.45378 1.02546 0.0
H1117 H 0.46845 0.36535 0.38633 0.0
H1118 H 0.57371 0.46123 0.24461 0.0
H1119 H 0.42922 0.40439 0.27941 0.0
H1120 H 0.50441 0.39256 0.31238 0.0
H1121 H 0.48803 0.42881 0.09613 0.0
C1122 C 0.52881 0.4505 0.08863 0.0
C1123 C 0.55352 0.46036 0.1298 0.0
C1124 C 0.48793 0.39519 0.30517 0.0
C1125 C 0.50967 0.43076 0.20946 0.0
C1126 C 0.46727 0.37978 0.34812 0.0
C1127 C 0.44566 0.38297 0.34215 0.0
C1128 C 0.48707 0.41353 0.25288 0.0
C1129 C 0.44528 0.4011 0.28699 0.0
C1130 C 0.50691 0.4363 0.12877 0.0
C1131 C 0.55533 0.45492 0.21103 0.0
N1132 N 0.46562 0.41564 0.2445 0.0
N1133 N 0.5338 0.44028 0.24762 0.0
H1134 H 0.80957 0.66033 0.67133 0.0
H1135 H 0.86117 0.81669 0.55996 0.0
H1136 H 0.8886 0.72724 0.72424 0.0
H1137 H 0.78856 0.74616 0.44969 0.0
H1138 H 0.86897 0.78521 0.63822 0.0
H1139 H 0.79941 0.69198 0.60253 0.0
C1140 C 0.82479 0.68159 0.66842 0.0
C1141 C 0.84993 0.69116 0.70476 0.0
C1142 C 0.85121 0.77664 0.59739 0.0
C1143 C 0.83836 0.72769 0.62751 0.0
C1144 C 0.84664 0.79469 0.55343 0.0
C1145 C 0.82423 0.78408 0.49791 0.0
C1146 C 0.83315 0.74774 0.58647 0.0
C1147 C 0.80621 0.75523 0.49127 0.0
C1148 C 0.81895 0.69972 0.62962 0.0
C1149 C 0.86881 0.71905 0.69925 0.0
N1150 N 0.81108 0.73811 0.53462 0.0
N1151 N 0.86264 0.73627 0.662 0.0
H1152 H 0.35137 0.02279 0.4493 0.0
H1153 H 0.27605 0.87734 0.39397 0.0
H1154 H 0.30225 0.01929 0.62781 0.0
H1155 H 0.22105 0.8855 0.52358 0.0
H1156 H 0.30417 0.92753 0.41388 0.0
H1157 H 0.32236 0.97282 0.40757 0.0
C1158 C 0.33457 0.01158 0.48012 0.0
C1159 C 0.32984 0.02562 0.54368 0.0
C1160 C 0.28582 0.91882 0.43672 0.0
C1161 C 0.2962 0.96722 0.4973 0.0
C1162 C 0.26959 0.8897 0.42588 0.0
C1163 C 0.2458 0.87664 0.45685 0.0
C1164 C 0.27856 0.93579 0.47924 0.0
C1165 C 0.23892 0.89432 0.49758 0.0
C1166 C 0.31794 0.98267 0.4568 0.0
C1167 C 0.30729 0.0096 0.57992 0.0
N1168 N 0.25525 0.92279 0.50815 0.0
N1169 N 0.29157 0.98154 0.55669 0.0
H1170 H 0.02055 0.25212 0.69716 0.0
H1171 H 0.10066 0.18848 0.50539 0.0
H1172 H 0.98549 0.16721 0.58553 0.0
H1173 H 0.13078 0.27656 0.56344 0.0
H1174 H 0.06056 0.17883 0.55816 0.0
H1175 H 0.06282 0.26009 0.67039 0.0
C1176 C 0.02188 0.23498 0.66866 0.0
C1177 C 0.99961 0.2087 0.64599 0.0
C1178 C 0.07611 0.20026 0.56083 0.0
C1179 C 0.04791 0.21778 0.61309 0.0
C1180 C 0.09914 0.20574 0.53174 0.0
C1181 C 0.11932 0.23335 0.53149 0.0
C1182 C 0.07313 0.22257 0.58986 0.0
C1183 C 0.11592 0.25497 0.56387 0.0
C1184 C 0.04597 0.23957 0.65277 0.0
C1185 C 0.00228 0.18755 0.606 0.0
N1186 N 0.09336 0.24915 0.59136 0.0
N1187 N 0.02592 0.19246 0.59132 0.0
H1188 H 0.38266 0.18874 0.69937 0.0
H1189 H 0.30181 0.22892 0.38614 0.0
H1190 H 0.34107 0.13626 0.47455 0.0
H1191 H 0.32243 0.25989 0.642 0.0
H1192 H 0.31693 0.196 0.41103 0.0
H1193 H 0.36221 0.21636 0.67496 0.0
C1194 C 0.36879 0.18268 0.64555 0.0
C1195 C 0.36273 0.15934 0.59082 0.0
C1196 C 0.31781 0.20976 0.46186 0.0
C1197 C 0.34014 0.1921 0.55927 0.0
C1198 C 0.30894 0.2284 0.44768 0.0
C1199 C 0.3101 0.24676 0.51247 0.0
C1200 C 0.3286 0.20997 0.541 0.0
C1201 C 0.32066 0.24586 0.59035 0.0
C1202 C 0.3572 0.1986 0.63114 0.0
C1203 C 0.34558 0.15345 0.5198 0.0
N1204 N 0.32946 0.22806 0.60219 0.0
N1205 N 0.33498 0.16965 0.50593 0.0
H1206 H 0.83304 0.98371 0.33072 0.0
H1207 H 0.86698 0.1252 0.55734 0.0
H1208 H 0.80476 0.98197 0.56228 0.0
H1209 H 0.92996 0.11047 0.59238 0.0
H1210 H 0.83895 0.07639 0.49641 0.0
H1211 H 0.86446 0.03433 0.36799 0.0
C1212 C 0.83372 0.99385 0.38962 0.0
C1213 C 0.8169 0.97851 0.44476 0.0
C1214 C 0.85906 0.08415 0.51605 0.0
C1215 C 0.85147 0.03602 0.48526 0.0
C1216 C 0.87507 0.11194 0.55075 0.0
C1217 C 0.90081 0.12188 0.58109 0.0
C1218 C 0.86896 0.06635 0.50975 0.0
C1219 C 0.91016 0.10357 0.5709 0.0
C1220 C 0.85139 0.02262 0.41036 0.0
C1221 C 0.81774 0.99291 0.51876 0.0
N1222 N 0.8942 0.07659 0.5366 0.0
N1223 N 0.83464 0.02079 0.53675 0.0
H1224 H 0.9366 0.64578 0.76263 0.0
H1225 H 0.03084 0.76731 0.50942 0.0
H1226 H 0.91992 0.70506 0.66364 0.0
H1227 H 0.04403 0.70198 0.57761 0.0
H1228 H 0.99372 0.74887 0.58431 0.0
H1229 H 0.9792 0.67013 0.71542 0.0
C1230 C 0.94223 0.66438 0.73276 0.0
C1231 C 0.92505 0.67394 0.71897 0.0
C1232 C 0.0048 0.73864 0.58369 0.0
C1233 C 0.97339 0.70137 0.66215 0.0
C1234 C 0.02606 0.74913 0.54056 0.0
C1235 C 0.04062 0.73607 0.53602 0.0
C1236 C 0.99773 0.71474 0.62334 0.0
C1237 C 0.03355 0.71287 0.57935 0.0
C1238 C 0.96647 0.67817 0.70534 0.0
C1239 C 0.93279 0.69734 0.67674 0.0
N1240 N 0.01253 0.70282 0.6204 0.0
N1241 N 0.9563 0.71021 0.64995 0.0
loop_
_geom_bond_atom_site_label_1
_geom_bond_atom_site_label_2
_geom_bond_distance
_geom_bond_site_symmetry_2
_ccdc_geom_bond_type
Tb0 N31 2.660 . S
Tb0 N38 2.600 . S
Tb0 O44 2.546 . S
Tb0 O45 2.610 . S
Tb0 O47 2.320 . S
Tb0 O48 2.552 . S
Tb0 O49 2.413 . S
Tb0 O51 2.362 . S
Tb0 O52 2.421 . S
Tb0 C64 2.833 . S
C1 C4 1.432 . S
C1 C5 1.414 . S
C1 N8 1.359 . S
C2 C4 1.417 . S
C2 C6 1.432 . S
C2 C14 1.410 1_554 S
C3 C5 1.444 . S
C3 C6 1.317 . S
C3 H26 0.929 . S
C4 C1 1.432 . S
C4 C2 1.417 . S
C4 N12 1.360 . S
C5 C1 1.414 . S
C5 C3 1.444 . S
C5 C10 1.385 . S
C6 C2 1.432 . S
C6 C3 1.317 . S
C6 H18 0.930 . S
C7 C9 1.392 . S
C7 C10 1.370 . S
C7 H19 0.931 . S
N8 C1 1.359 . S
N8 C9 1.327 . S
N8 Tb11 2.600 1_655 S
C9 C7 1.392 . S
C9 N8 1.327 . S
C9 H16 0.930 . S
C10 C5 1.385 . S
C10 C7 1.370 . S
C10 H29 0.930 . S
Tb11 N8 2.600 1_455 S
Tb11 N12 2.660 1_455 S
Tb11 O45 2.362 . S
Tb11 O46 2.421 . S
Tb11 O50 2.546 1_455 S
Tb11 O51 2.610 . S
Tb11 O53 2.320 . S
Tb11 O54 2.552 . S
Tb11 O55 2.413 1_455 S
Tb11 C75 2.833 1_455 S
N12 C4 1.360 . S
N12 Tb11 2.660 1_655 S
N12 C13 1.305 . S
C13 N12 1.305 . S
C13 C15 1.407 1_554 S
C13 H20 0.930 . S
C14 C2 1.410 1_556 S
C14 C15 1.345 . S
C14 H22 0.930 . S
C15 C13 1.407 1_556 S
C15 C14 1.345 . S
C15 H17 0.930 . S
H16 C9 0.930 . S
H17 C15 0.930 . S
H18 C6 0.930 . S
H19 C7 0.931 . S
H20 C13 0.930 . S
H21 C35 0.930 . S
H22 C14 0.930 . S
H23 C41 0.930 . S
H24 C32 0.930 . S
H25 C39 0.931 . S
H26 C3 0.929 . S
H27 C33 0.930 . S
H28 C66 0.930 . S
H29 C10 0.930 . S
H30 C65 0.929 . S
N31 Tb0 2.660 . S
N31 C32 1.305 . S
N31 C36 1.360 . S
C32 H24 0.930 . S
C32 N31 1.305 . S
C32 C35 1.407 . S
C33 H27 0.930 . S
C33 C34 1.410 . S
C33 C35 1.345 . S
C34 C33 1.410 . S
C34 C36 1.417 . S
C34 C66 1.432 . S
C35 H21 0.930 . S
C35 C32 1.407 . S
C35 C33 1.345 . S
C36 N31 1.360 . S
C36 C34 1.417 . S
C36 C40 1.432 . S
H37 C42 0.930 . S
N38 Tb0 2.600 . S
N38 C40 1.359 . S
N38 C41 1.327 . S
C39 H25 0.931 . S
C39 C41 1.392 . S
C39 C42 1.370 . S
C40 C36 1.432 . S
C40 N38 1.359 . S
C40 C43 1.414 . S
C41 H23 0.930 . S
C41 N38 1.327 . S
C41 C39 1.392 . S
C42 H37 0.930 . S
C42 C39 1.370 . S
C42 C43 1.385 . S
C43 C40 1.414 . S
C43 C42 1.385 . S
C43 C65 1.444 . S
O44 Tb0 2.546 . S
O44 C64 1.251 . S
O45 Tb0 2.610 . S
O45 Tb11 2.362 . S
O45 C56 1.283 . S
O46 Tb11 2.421 . S
O46 C63 1.262 . S
O47 Tb0 2.320 . S
O47 C63 1.260 . S
O48 Tb0 2.552 . S
O48 C56 1.243 . S
O49 Tb0 2.413 . S
O49 C64 1.256 . S
O50 Tb11 2.546 1_655 S
O50 C75 1.251 . S
O51 Tb0 2.362 . S
O51 Tb11 2.610 . S
O51 C67 1.283 . S
O52 Tb0 2.421 . S
O52 C74 1.262 . S
O53 Tb11 2.320 . S
O53 C74 1.260 . S
O54 Tb11 2.552 . S
O54 C67 1.243 . S
O55 Tb11 2.413 1_655 S
O55 C75 1.256 . S
C56 O45 1.283 . S
C56 O48 1.243 . S
C57 C59 1.382 . S
C57 C61 1.393 . S
C57 C64 1.500 . S
C58 C59 1.400 . S
C58 C60 1.384 . S
C59 C57 1.382 . S
C59 C58 1.400 . S
C59 H76 0.930 . S
C60 C58 1.384 . S
C60 C62 1.392 . S
C60 H77 0.931 . S
C61 C57 1.393 . S
C61 C62 1.401 . S
C61 H78 0.930 . S
C62 C60 1.392 . S
C62 C61 1.401 . S
C62 H79 0.930 . S
C63 O46 1.262 . S
C63 O47 1.260 . S
C64 Tb0 2.833 . S
C64 O44 1.251 . S
C64 O49 1.256 . S
C64 C57 1.500 . S
C65 H30 0.929 . S
C65 C43 1.444 . S
C65 C66 1.317 . S
C66 H28 0.930 . S
C66 C34 1.432 . S
C66 C65 1.317 . S
C67 O51 1.283 . S
C67 O54 1.243 . S
C68 C69 1.382 . S
C68 C72 1.393 . S
C68 C75 1.500 . S
C69 C68 1.382 . S
C69 C70 1.400 . S
C69 H80 0.930 . S
C70 C69 1.400 . S
C70 C71 1.384 . S
C71 C70 1.384 . S
C71 C73 1.392 . S
C71 H81 0.931 . S
C72 C68 1.393 . S
C72 C73 1.401 . S
C72 H82 0.930 . S
C73 C71 1.392 . S
C73 C72 1.401 . S
C73 H83 0.930 . S
C74 O52 1.262 . S
C74 O53 1.260 . S
C75 Tb11 2.833 1_655 S
C75 O50 1.251 . S
C75 O55 1.256 . S
C75 C68 1.500 . S
H76 C59 0.930 . S
H77 C60 0.931 . S
H78 C61 0.930 . S
H79 C62 0.930 . S
H80 C69 0.930 . S
H81 C71 0.931 . S
H82 C72 0.930 . S
H83 C73 0.930 . S
Tb84 N115 2.660 . S
Tb84 N122 2.600 . S
Tb84 O128 2.546 . S
Tb84 O129 2.610 . S
Tb84 O131 2.320 . S
Tb84 O132 2.552 . S
Tb84 O133 2.413 . S
Tb84 O135 2.362 . S
Tb84 O136 2.421 . S
Tb84 C148 2.833 . S
C85 C88 1.432 . S
C85 C89 1.414 . S
C85 N92 1.359 . S
C86 C88 1.417 . S
C86 C90 1.432 . S
C86 C98 1.410 1_554 S
C87 C89 1.444 . S
C87 C90 1.317 . S
C87 H110 0.929 . S
C88 C85 1.432 . S
C88 C86 1.417 . S
C88 N96 1.360 . S
C89 C85 1.414 . S
C89 C87 1.444 . S
C89 C94 1.385 . S
C90 C86 1.432 . S
C90 C87 1.317 . S
C90 H102 0.930 . S
C91 C93 1.392 . S
C91 C94 1.370 . S
C91 H103 0.931 . S
N92 C85 1.359 . S
N92 C93 1.327 . S
N92 Tb95 2.600 . S
C93 C91 1.392 . S
C93 N92 1.327 . S
C93 H100 0.930 . S
C94 C89 1.385 . S
C94 C91 1.370 . S
C94 H113 0.930 . S
Tb95 N92 2.600 . S
Tb95 N96 2.660 . S
Tb95 O129 2.362 . S
Tb95 O130 2.421 . S
Tb95 O134 2.546 . S
Tb95 O135 2.610 . S
Tb95 O137 2.320 . S
Tb95 O138 2.552 . S
Tb95 O139 2.413 . S
Tb95 C159 2.833 . S
N96 C88 1.360 . S
N96 Tb95 2.660 . S
N96 C97 1.305 1_554 S
C97 N96 1.305 1_556 S
C97 C99 1.407 . S
C97 H104 0.930 . S
C98 C86 1.410 1_556 S
C98 C99 1.345 . S
C98 H106 0.930 . S
C99 C97 1.407 . S
C99 C98 1.345 . S
C99 H101 0.930 . S
H100 C93 0.930 . S
H101 C99 0.930 . S
H102 C90 0.930 . S
H103 C91 0.931 . S
H104 C97 0.930 . S
H105 C119 0.930 . S
H106 C98 0.930 . S
H107 C125 0.930 . S
H108 C116 0.930 . S
H109 C123 0.931 . S
H110 C87 0.929 . S
H111 C117 0.930 . S
H112 C150 0.930 . S
H113 C94 0.930 . S
H114 C149 0.929 . S
N115 Tb84 2.660 . S
N115 C116 1.305 . S
N115 C120 1.360 . S
C116 H108 0.930 . S
C116 N115 1.305 . S
C116 C119 1.407 . S
C117 H111 0.930 . S
C117 C118 1.410 . S
C117 C119 1.345 . S
C118 C117 1.410 . S
C118 C120 1.417 . S
C118 C150 1.432 . S
C119 H105 0.930 . S
C119 C116 1.407 . S
C119 C117 1.345 . S
C120 N115 1.360 . S
C120 C118 1.417 . S
C120 C124 1.432 . S
H121 C126 0.930 . S
N122 Tb84 2.600 . S
N122 C124 1.359 . S
N122 C125 1.327 1_554 S
C123 H109 0.931 . S
C123 C125 1.392 . S
C123 C126 1.370 . S
C124 C120 1.432 . S
C124 N122 1.359 . S
C124 C127 1.414 . S
C125 H107 0.930 . S
C125 N122 1.327 1_556 S
C125 C123 1.392 . S
C126 H121 0.930 . S
C126 C123 1.370 . S
C126 C127 1.385 1_556 S
C127 C124 1.414 . S
C127 C126 1.385 1_554 S
C127 C149 1.444 . S
O128 Tb84 2.546 . S
O128 C148 1.251 . S
O129 Tb84 2.610 . S
O129 Tb95 2.362 . S
O129 C140 1.283 . S
O130 Tb95 2.421 . S
O130 C147 1.262 . S
O131 Tb84 2.320 . S
O131 C147 1.260 . S
O132 Tb84 2.552 . S
O132 C140 1.243 . S
O133 Tb84 2.413 . S
O133 C148 1.256 . S
O134 Tb95 2.546 . S
O134 C159 1.251 . S
O135 Tb84 2.362 . S
O135 Tb95 2.610 . S
O135 C151 1.283 . S
O136 Tb84 2.421 . S
O136 C158 1.262 1_554 S
O137 Tb95 2.320 . S
O137 C158 1.260 1_554 S
O138 Tb95 2.552 . S
O138 C151 1.243 . S
O139 Tb95 2.413 . S
O139 C159 1.256 . S
C140 O129 1.283 . S
C140 O132 1.243 . S
C141 C143 1.382 . S
C141 C145 1.393 . S
C141 C148 1.500 . S
C142 C143 1.400 . S
C142 C144 1.384 . S
C143 C141 1.382 . S
C143 C142 1.400 . S
C143 H160 0.930 . S
C144 C142 1.384 . S
C144 C146 1.392 . S
C144 H161 0.931 . S
C145 C141 1.393 . S
C145 C146 1.401 . S
C145 H162 0.930 . S
C146 C144 1.392 . S
C146 C145 1.401 . S
C146 H163 0.930 . S
C147 O130 1.262 . S
C147 O131 1.260 . S
C148 Tb84 2.833 . S
C148 O128 1.251 . S
C148 O133 1.256 . S
C148 C141 1.500 . S
C149 H114 0.929 . S
C149 C127 1.444 . S
C149 C150 1.317 . S
C150 H112 0.930 . S
C150 C118 1.432 . S
C150 C149 1.317 . S
C151 O135 1.283 . S
C151 O138 1.243 . S
C152 C153 1.377 1_554 S
C152 C156 1.393 . S
C152 C159 1.500 . S
C153 C152 1.377 1_556 S
C153 C154 1.401 . S
C153 H164 0.934 . S
C154 C153 1.401 . S
C154 C155 1.384 1_556 S
C155 C154 1.384 1_554 S
C155 C157 1.392 . S
C155 H165 0.931 . S
C156 C152 1.393 . S
C156 C157 1.401 . S
C156 H166 0.930 . S
C157 C155 1.392 . S
C157 C156 1.401 . S
C157 H167 0.930 . S
C158 O136 1.262 1_556 S
C158 O137 1.260 1_556 S
C159 Tb95 2.833 . S
C159 O134 1.251 . S
C159 O139 1.256 . S
C159 C152 1.500 . S
H160 C143 0.930 . S
H161 C144 0.931 . S
H162 C145 0.930 . S
H163 C146 0.930 . S
H164 C153 0.934 . S
H165 C155 0.931 . S
H166 C156 0.930 . S
H167 C157 0.930 . S
Tb168 N199 2.660 1_556 S
Tb168 N206 2.600 . S
Tb168 O212 2.546 . S
Tb168 O213 2.610 . S
Tb168 O215 2.320 1_556 S
Tb168 O216 2.552 . S
Tb168 O217 2.413 1_556 S
Tb168 O219 2.362 1_556 S
Tb168 O220 2.421 . S
Tb168 C232 2.833 . S
C169 C172 1.432 1_554 S
C169 C173 1.414 . S
C169 N176 1.359 . S
C170 C172 1.417 . S
C170 C174 1.432 . S
C170 C182 1.410 . S
C171 C173 1.444 . S
C171 C174 1.317 1_554 S
C171 H194 0.929 . S
C172 C169 1.432 1_556 S
C172 C170 1.417 . S
C172 N180 1.360 . S
C173 C169 1.414 . S
C173 C171 1.444 . S
C173 C178 1.385 . S
C174 C170 1.432 . S
C174 C171 1.317 1_556 S
C174 H186 0.930 . S
C175 C177 1.392 . S
C175 C178 1.370 . S
C175 H187 0.931 . S
N176 C169 1.359 . S
N176 C177 1.327 . S
N176 Tb179 2.600 . S
C177 C175 1.392 . S
C177 N176 1.327 . S
C177 H184 0.930 . S
C178 C173 1.385 . S
C178 C175 1.370 . S
C178 H197 0.930 . S
Tb179 N176 2.600 . S
Tb179 N180 2.660 1_554 S
Tb179 O213 2.362 1_554 S
Tb179 O214 2.421 . S
Tb179 O218 2.546 . S
Tb179 O219 2.610 . S
Tb179 O221 2.320 1_554 S
Tb179 O222 2.552 . S
Tb179 O223 2.413 1_554 S
Tb179 C243 2.833 . S
N180 C172 1.360 . S
N180 Tb179 2.660 1_556 S
N180 C181 1.305 . S
C181 N180 1.305 . S
C181 C183 1.407 . S
C181 H188 0.930 . S
C182 C170 1.410 . S
C182 C183 1.345 . S
C182 H190 0.930 . S
C183 C181 1.407 . S
C183 C182 1.345 . S
C183 H185 0.930 . S
H184 C177 0.930 . S
H185 C183 0.930 . S
H186 C174 0.930 . S
H187 C175 0.931 . S
H188 C181 0.930 . S
H189 C203 0.930 . S
H190 C182 0.930 . S
H191 C209 0.930 . S
H192 C200 0.930 . S
H193 C207 0.931 . S
H194 C171 0.929 . S
H195 C201 0.930 . S
H196 C234 0.930 . S
H197 C178 0.930 . S
H198 C233 0.929 . S
N199 Tb168 2.660 1_554 S
N199 C200 1.305 . S
N199 C204 1.318 1_545 S
C200 H192 0.930 . S
C200 N199 1.305 . S
C200 C203 1.407 . S
C201 H195 0.930 . S
C201 C202 1.410 . S
C201 C203 1.345 1_565 S
C202 C201 1.410 . S
C202 C204 1.458 . S
C202 C234 1.432 . S
C203 H189 0.930 . S
C203 C200 1.407 . S
C203 C201 1.345 1_545 S
C204 N199 1.318 1_565 S
C204 C202 1.458 . S
C204 C208 1.433 1_554 S
H205 C210 0.930 . S
N206 Tb168 2.600 . S
N206 C208 1.359 1_545 S
N206 C209 1.327 . S
C207 H193 0.931 . S
C207 C209 1.392 1_565 S
C207 C210 1.370 . S
C208 C204 1.433 1_556 S
C208 N206 1.359 1_565 S
C208 C211 1.414 . S
C209 H191 0.930 . S
C209 N206 1.327 . S
C209 C207 1.392 1_545 S
C210 H205 0.930 . S
C210 C207 1.370 . S
C210 C211 1.385 . S
C211 C208 1.414 . S
C211 C210 1.385 . S
C211 C233 1.444 . S
O212 Tb168 2.546 . S
O212 C232 1.251 . S
O213 Tb168 2.610 . S
O213 Tb179 2.362 1_556 S
O213 C224 1.283 . S
O214 Tb179 2.421 . S
O214 C231 1.262 . S
O215 Tb168 2.320 1_554 S
O215 C231 1.260 . S
O216 Tb168 2.552 . S
O216 C224 1.243 . S
O217 Tb168 2.413 1_554 S
O217 C232 1.256 1_554 S
O218 Tb179 2.546 . S
O218 C243 1.251 . S
O219 Tb168 2.362 1_554 S
O219 Tb179 2.610 . S
O219 C235 1.283 . S
O220 Tb168 2.421 . S
O220 C242 1.262 . S
O221 Tb179 2.320 1_556 S
O221 C242 1.260 . S
O222 Tb179 2.552 . S
O222 C235 1.243 . S
O223 Tb179 2.413 1_556 S
O223 C243 1.256 1_556 S
C224 O213 1.283 . S
C224 O216 1.243 . S
C225 C227 1.382 1_556 S
C225 C229 1.393 1_545 S
C225 C232 1.500 . S
C226 C227 1.400 1_565 S
C226 C228 1.384 . S
C227 C225 1.382 1_554 S
C227 C226 1.400 1_545 S
C227 H244 0.930 . S
C228 C226 1.384 . S
C228 C230 1.392 1_554 S
C228 H245 0.931 . S
C229 C225 1.393 1_565 S
C229 C230 1.401 . S
C229 H246 0.930 . S
C230 C228 1.392 1_556 S
C230 C229 1.401 . S
C230 H247 0.930 . S
C231 O214 1.262 . S
C231 O215 1.260 . S
C232 Tb168 2.833 . S
C232 O212 1.251 . S
C232 O217 1.256 1_556 S
C232 C225 1.500 . S
C233 H198 0.929 . S
C233 C211 1.444 . S
C233 C234 1.317 1_556 S
C234 H196 0.930 . S
C234 C202 1.432 . S
C234 C233 1.317 1_554 S
C235 O219 1.283 . S
C235 O222 1.243 . S
C236 C237 1.382 1_554 S
C236 C240 1.393 . S
C236 C243 1.500 . S
C237 C236 1.382 1_556 S
C237 C238 1.400 . S
C237 H248 0.930 . S
C238 C237 1.400 . S
C238 C239 1.384 . S
C239 C238 1.384 . S
C239 C241 1.392 1_556 S
C239 H249 0.931 . S
C240 C236 1.393 . S
C240 C241 1.401 . S
C240 H250 0.930 . S
C241 C239 1.392 1_554 S
C241 C240 1.401 . S
C241 H251 0.930 . S
C242 O220 1.262 . S
C242 O221 1.260 . S
C243 Tb179 2.833 . S
C243 O218 1.251 . S
C243 O223 1.256 1_554 S
C243 C236 1.500 . S
H244 C227 0.930 . S
H245 C228 0.931 . S
H246 C229 0.930 . S
H247 C230 0.930 . S
H248 C237 0.930 . S
H249 C239 0.931 . S
H250 C240 0.930 . S
H251 C241 0.930 . S
Tb252 N283 2.660 . S
Tb252 N290 2.600 . S
Tb252 O296 2.546 . S
Tb252 O297 2.610 . S
Tb252 O299 2.320 . S
Tb252 O300 2.552 . S
Tb252 O301 2.413 . S
Tb252 O303 2.362 . S
Tb252 O304 2.421 . S
Tb252 C316 2.833 . S
C253 C256 1.432 . S
C253 C257 1.414 . S
C253 N260 1.359 . S
C254 C256 1.417 . S
C254 C258 1.432 . S
C254 C266 1.410 . S
C255 C257 1.444 . S
C255 C258 1.317 . S
C255 H278 0.929 . S
C256 C253 1.432 . S
C256 C254 1.417 . S
C256 N264 1.360 . S
C257 C253 1.414 . S
C257 C255 1.444 . S
C257 C262 1.385 . S
C258 C254 1.432 . S
C258 C255 1.317 . S
C258 H270 0.930 . S
C259 C261 1.392 . S
C259 C262 1.370 . S
C259 H271 0.931 . S
N260 C253 1.359 . S
N260 C261 1.327 . S
N260 Tb263 2.600 . S
C261 C259 1.392 . S
C261 N260 1.327 . S
C261 H268 0.930 . S
C262 C257 1.385 . S
C262 C259 1.370 . S
C262 H281 0.930 . S
Tb263 N260 2.600 . S
Tb263 N264 2.660 . S
Tb263 O297 2.362 . S
Tb263 O298 2.421 . S
Tb263 O302 2.546 . S
Tb263 O303 2.610 . S
Tb263 O305 2.320 . S
Tb263 O306 2.552 . S
Tb263 O307 2.413 . S
Tb263 C327 2.833 . S
N264 C256 1.360 . S
N264 Tb263 2.660 . S
N264 C265 1.305 . S
C265 N264 1.305 . S
C265 C267 1.407 . S
C265 H272 0.930 . S
C266 C254 1.410 . S
C266 C267 1.345 . S
C266 H274 0.930 . S
C267 C265 1.407 . S
C267 C266 1.345 . S
C267 H269 0.930 . S
H268 C261 0.930 . S
H269 C267 0.930 . S
H270 C258 0.930 . S
H271 C259 0.931 . S
H272 C265 0.930 . S
H273 C287 0.930 . S
H274 C266 0.930 . S
H275 C293 0.930 . S
H276 C284 0.930 . S
H277 C291 0.931 . S
H278 C255 0.929 . S
H279 C285 0.930 . S
H280 C318 0.930 . S
H281 C262 0.930 . S
H282 C317 0.929 . S
N283 Tb252 2.660 . S
N283 C284 1.305 . S
N283 C288 1.360 . S
C284 H276 0.930 . S
C284 N283 1.305 . S
C284 C287 1.407 . S
C285 H279 0.930 . S
C285 C286 1.416 . S
C285 C287 1.345 1_545 S
C286 C285 1.416 . S
C286 C288 1.407 1_545 S
C286 C318 1.434 . S
C287 H273 0.930 . S
C287 C284 1.407 . S
C287 C285 1.345 1_565 S
C288 N283 1.360 . S
C288 C286 1.407 1_565 S
C288 C292 1.432 . S
H289 C294 0.930 . S
N290 Tb252 2.600 . S
N290 C292 1.359 . S
N290 C293 1.327 . S
C291 H277 0.931 . S
C291 C293 1.392 . S
C291 C294 1.370 . S
C292 C288 1.432 . S
C292 N290 1.359 . S
C292 C295 1.414 . S
C293 H275 0.930 . S
C293 N290 1.327 . S
C293 C291 1.392 . S
C294 H289 0.930 . S
C294 C291 1.370 . S
C294 C295 1.385 . S
C295 C292 1.414 . S
C295 C294 1.385 . S
C295 C317 1.444 1_565 S
O296 Tb252 2.546 . S
O296 C316 1.251 . S
O297 Tb252 2.610 . S
O297 Tb263 2.362 . S
O297 C308 1.283 . S
O298 Tb263 2.421 . S
O298 C315 1.262 . S
O299 Tb252 2.320 . S
O299 C315 1.260 . S
O300 Tb252 2.552 . S
O300 C308 1.243 . S
O301 Tb252 2.413 . S
O301 C316 1.256 . S
O302 Tb263 2.546 . S
O302 C327 1.251 . S
O303 Tb252 2.362 . S
O303 Tb263 2.610 . S
O303 C319 1.283 . S
O304 Tb252 2.421 . S
O304 C326 1.262 . S
O305 Tb263 2.320 . S
O305 C326 1.260 . S
O306 Tb263 2.552 . S
O306 C319 1.243 . S
O307 Tb263 2.413 . S
O307 C327 1.256 . S
C308 O297 1.283 . S
C308 O300 1.243 . S
C309 C311 1.382 . S
C309 C313 1.393 . S
C309 C316 1.500 . S
C310 C311 1.400 . S
C310 C312 1.384 . S
C311 C309 1.382 . S
C311 C310 1.400 . S
C311 H328 0.930 . S
C312 C310 1.384 . S
C312 C314 1.392 . S
C312 H329 0.931 . S
C313 C309 1.393 . S
C313 C314 1.401 . S
C313 H330 0.930 . S
C314 C312 1.392 . S
C314 C313 1.401 . S
C314 H331 0.930 . S
C315 O298 1.262 . S
C315 O299 1.260 . S
C316 Tb252 2.833 . S
C316 O296 1.251 . S
C316 O301 1.256 . S
C316 C309 1.500 . S
C317 H282 0.929 . S
C317 C295 1.444 1_545 S
C317 C318 1.317 . S
C318 H280 0.930 . S
C318 C286 1.434 . S
C318 C317 1.317 . S
C319 O303 1.283 . S
C319 O306 1.243 . S
C320 C321 1.382 . S
C320 C324 1.393 . S
C320 C327 1.500 . S
C321 C320 1.382 . S
C321 C322 1.400 . S
C321 H332 0.930 . S
C322 C321 1.400 . S
C322 C323 1.384 . S
C323 C322 1.384 . S
C323 C325 1.392 . S
C323 H333 0.931 1_565 S
C324 C320 1.393 . S
C324 C325 1.401 . S
C324 H334 0.930 . S
C325 C323 1.392 . S
C325 C324 1.401 . S
C325 H335 0.930 . S
C326 O304 1.262 . S
C326 O305 1.260 . S
C327 Tb263 2.833 . S
C327 O302 1.251 . S
C327 O307 1.256 . S
C327 C320 1.500 . S
H328 C311 0.930 . S
H329 C312 0.931 . S
H330 C313 0.930 . S
H331 C314 0.930 . S
H332 C321 0.930 . S
H333 C323 0.931 1_545 S
H334 C324 0.930 . S
H335 C325 0.930 . S
Tb336 N367 2.660 . S
Tb336 N374 2.600 . S
Tb336 O380 2.546 . S
Tb336 O381 2.610 . S
Tb336 O383 2.320 . S
Tb336 O384 2.552 . S
Tb336 O385 2.413 . S
Tb336 O387 2.362 . S
Tb336 O388 2.421 . S
Tb336 C400 2.833 . S
C337 C340 1.432 . S
C337 C341 1.414 . S
C337 N344 1.359 . S
C338 C340 1.417 . S
C338 C342 1.432 . S
C338 C350 1.410 . S
C339 C341 1.444 . S
C339 C342 1.317 . S
C339 H362 0.929 . S
C340 C337 1.432 . S
C340 C338 1.417 . S
C340 N348 1.360 . S
C341 C337 1.414 . S
C341 C339 1.444 . S
C341 C346 1.385 . S
C342 C338 1.432 . S
C342 C339 1.317 . S
C342 H354 0.930 . S
C343 C345 1.392 . S
C343 C346 1.370 . S
C343 H355 0.931 . S
N344 C337 1.359 . S
N344 C345 1.327 . S
N344 Tb347 2.600 . S
C345 C343 1.392 . S
C345 N344 1.327 . S
C345 H352 0.930 . S
C346 C341 1.385 . S
C346 C343 1.370 . S
C346 H365 0.930 . S
Tb347 N344 2.600 . S
Tb347 N348 2.660 . S
Tb347 O381 2.362 . S
Tb347 O382 2.421 . S
Tb347 O386 2.546 . S
Tb347 O387 2.610 . S
Tb347 O389 2.320 . S
Tb347 O390 2.552 . S
Tb347 O391 2.413 . S
Tb347 C411 2.833 . S
N348 C340 1.360 . S
N348 Tb347 2.660 . S
N348 C349 1.305 . S
C349 N348 1.305 . S
C349 C351 1.407 . S
C349 H356 0.930 . S
C350 C338 1.410 . S
C350 C351 1.345 . S
C350 H358 0.930 . S
C351 C349 1.407 . S
C351 C350 1.345 . S
C351 H353 0.930 . S
H352 C345 0.930 . S
H353 C351 0.930 . S
H354 C342 0.930 . S
H355 C343 0.931 . S
H356 C349 0.930 . S
H357 C371 0.929 . S
H358 C350 0.930 . S
H359 C377 0.930 . S
H360 C368 0.930 . S
H361 C375 0.931 . S
H362 C339 0.929 . S
H363 C369 0.930 . S
H364 C402 0.930 . S
H365 C346 0.930 . S
H366 C401 0.929 . S
N367 Tb336 2.660 . S
N367 C368 1.305 . S
N367 C372 1.360 . S
C368 H360 0.930 . S
C368 N367 1.305 . S
C368 C371 1.408 1_554 S
C369 H363 0.930 . S
C369 C370 1.410 . S
C369 C371 1.345 . S
C370 C369 1.410 . S
C370 C372 1.417 1_556 S
C370 C402 1.432 . S
C371 H357 0.929 . S
C371 C368 1.408 1_556 S
C371 C369 1.345 . S
C372 N367 1.360 . S
C372 C370 1.417 1_554 S
C372 C376 1.432 . S
H373 C378 0.930 . S
N374 Tb336 2.600 . S
N374 C376 1.359 . S
N374 C377 1.327 . S
C375 H361 0.931 . S
C375 C377 1.392 . S
C375 C378 1.370 . S
C376 C372 1.432 . S
C376 N374 1.359 . S
C376 C379 1.414 . S
C377 H359 0.930 . S
C377 N374 1.327 . S
C377 C375 1.392 . S
C378 H373 0.930 . S
C378 C375 1.370 . S
C378 C379 1.385 . S
C379 C376 1.414 . S
C379 C378 1.385 . S
C379 C401 1.444 1_554 S
O380 Tb336 2.546 . S
O380 C400 1.251 . S
O381 Tb336 2.610 . S
O381 Tb347 2.362 . S
O381 C392 1.283 . S
O382 Tb347 2.421 . S
O382 C399 1.262 . S
O383 Tb336 2.320 . S
O383 C399 1.260 . S
O384 Tb336 2.552 . S
O384 C392 1.243 . S
O385 Tb336 2.413 . S
O385 C400 1.256 . S
O386 Tb347 2.546 . S
O386 C411 1.251 . S
O387 Tb336 2.362 . S
O387 Tb347 2.610 . S
O387 C403 1.283 . S
O388 Tb336 2.421 . S
O388 C410 1.262 . S
O389 Tb347 2.320 . S
O389 C410 1.260 . S
O390 Tb347 2.552 . S
O390 C403 1.243 . S
O391 Tb347 2.413 . S
O391 C411 1.256 . S
C392 O381 1.283 . S
C392 O384 1.243 . S
C393 C395 1.382 . S
C393 C397 1.393 . S
C393 C400 1.500 . S
C394 C395 1.400 . S
C394 C396 1.384 . S
C395 C393 1.382 . S
C395 C394 1.400 . S
C395 H412 0.930 . S
C396 C394 1.384 . S
C396 C398 1.392 . S
C396 H413 0.931 1_455 S
C397 C393 1.393 . S
C397 C398 1.401 . S
C397 H414 0.930 . S
C398 C396 1.392 . S
C398 C397 1.401 . S
C398 H415 0.930 . S
C399 O382 1.262 . S
C399 O383 1.260 . S
C400 Tb336 2.833 . S
C400 O380 1.251 . S
C400 O385 1.256 . S
C400 C393 1.500 . S
C401 H366 0.929 . S
C401 C379 1.444 1_556 S
C401 C402 1.317 . S
C402 H364 0.930 . S
C402 C370 1.432 . S
C402 C401 1.317 . S
C403 O387 1.283 . S
C403 O390 1.243 . S
C404 C405 1.382 . S
C404 C408 1.393 . S
C404 C411 1.500 . S
C405 C404 1.382 . S
C405 C406 1.400 . S
C405 H416 0.930 . S
C406 C405 1.400 . S
C406 C407 1.384 . S
C407 C406 1.384 . S
C407 C409 1.392 . S
C407 H417 0.931 . S
C408 C404 1.393 . S
C408 C409 1.401 . S
C408 H418 0.930 . S
C409 C407 1.392 . S
C409 C408 1.401 . S
C409 H419 0.930 . S
C410 O388 1.262 . S
C410 O389 1.260 . S
C411 Tb347 2.833 . S
C411 O386 1.251 . S
C411 O391 1.256 . S
C411 C404 1.500 . S
H412 C395 0.930 . S
H413 C396 0.931 1_655 S
H414 C397 0.930 . S
H415 C398 0.930 . S
H416 C405 0.930 . S
H417 C407 0.931 . S
H418 C408 0.930 . S
H419 C409 0.930 . S
Tb420 N451 2.660 . S
Tb420 N458 2.600 . S
Tb420 O464 2.546 . S
Tb420 O465 2.610 . S
Tb420 O467 2.320 . S
Tb420 O468 2.552 . S
Tb420 O469 2.413 . S
Tb420 O471 2.362 . S
Tb420 O472 2.421 . S
Tb420 C484 2.833 . S
C421 C424 1.432 . S
C421 C425 1.414 . S
C421 N428 1.359 . S
C422 C424 1.417 . S
C422 C426 1.432 . S
C422 C434 1.410 . S
C423 C425 1.444 . S
C423 C426 1.317 . S
C423 H446 0.929 . S
C424 C421 1.432 . S
C424 C422 1.417 . S
C424 N432 1.360 . S
C425 C421 1.414 . S
C425 C423 1.444 . S
C425 C430 1.385 . S
C426 C422 1.432 . S
C426 C423 1.317 . S
C426 H438 0.930 . S
C427 C429 1.392 . S
C427 C430 1.370 . S
C427 H439 0.931 . S
N428 C421 1.359 . S
N428 C429 1.327 . S
N428 Tb431 2.600 . S
C429 C427 1.392 . S
C429 N428 1.327 . S
C429 H436 0.930 . S
C430 C425 1.385 . S
C430 C427 1.370 . S
C430 H449 0.930 . S
Tb431 N428 2.600 . S
Tb431 N432 2.660 . S
Tb431 O465 2.362 . S
Tb431 O466 2.421 . S
Tb431 O470 2.546 . S
Tb431 O471 2.610 . S
Tb431 O473 2.320 . S
Tb431 O474 2.552 . S
Tb431 O475 2.413 . S
Tb431 C495 2.833 . S
N432 C424 1.360 . S
N432 Tb431 2.660 . S
N432 C433 1.305 . S
C433 N432 1.305 . S
C433 C435 1.407 . S
C433 H440 0.930 . S
C434 C422 1.410 . S
C434 C435 1.345 . S
C434 H442 0.930 . S
C435 C433 1.407 . S
C435 C434 1.345 . S
C435 H437 0.930 . S
H436 C429 0.930 . S
H437 C435 0.930 . S
H438 C426 0.930 . S
H439 C427 0.931 . S
H440 C433 0.930 . S
H441 C455 0.930 . S
H442 C434 0.930 . S
H443 C461 0.930 . S
H444 C452 0.930 . S
H445 C459 0.931 1_556 S
H446 C423 0.929 . S
H447 C453 0.930 . S
H448 C486 0.930 . S
H449 C430 0.930 . S
H450 C485 0.929 . S
N451 Tb420 2.660 . S
N451 C452 1.305 . S
N451 C456 1.360 . S
C452 H444 0.930 . S
C452 N451 1.305 . S
C452 C455 1.407 . S
C453 H447 0.930 . S
C453 C454 1.410 . S
C453 C455 1.345 . S
C454 C453 1.410 . S
C454 C456 1.417 . S
C454 C486 1.432 . S
C455 H441 0.930 . S
C455 C452 1.407 . S
C455 C453 1.345 . S
C456 N451 1.360 . S
C456 C454 1.417 . S
C456 C460 1.432 . S
H457 C462 0.930 . S
N458 Tb420 2.600 . S
N458 C460 1.359 . S
N458 C461 1.327 . S
C459 H445 0.931 1_554 S
C459 C461 1.392 . S
C459 C462 1.370 . S
C460 C456 1.432 . S
C460 N458 1.359 . S
C460 C463 1.414 . S
C461 H443 0.930 . S
C461 N458 1.327 . S
C461 C459 1.392 . S
C462 H457 0.930 . S
C462 C459 1.370 . S
C462 C463 1.385 . S
C463 C460 1.414 . S
C463 C462 1.385 . S
C463 C485 1.444 . S
O464 Tb420 2.546 . S
O464 C484 1.251 . S
O465 Tb420 2.610 . S
O465 Tb431 2.362 . S
O465 C476 1.283 . S
O466 Tb431 2.421 . S
O466 C483 1.262 . S
O467 Tb420 2.320 . S
O467 C483 1.260 . S
O468 Tb420 2.552 . S
O468 C476 1.243 . S
O469 Tb420 2.413 . S
O469 C484 1.256 . S
O470 Tb431 2.546 . S
O470 C495 1.251 . S
O471 Tb420 2.362 . S
O471 Tb431 2.610 . S
O471 C487 1.283 . S
O472 Tb420 2.421 . S
O472 C494 1.262 . S
O473 Tb431 2.320 . S
O473 C494 1.260 . S
O474 Tb431 2.552 . S
O474 C487 1.243 . S
O475 Tb431 2.413 . S
O475 C495 1.256 . S
C476 O465 1.283 . S
C476 O468 1.243 . S
C477 C479 1.382 . S
C477 C481 1.393 . S
C477 C484 1.500 . S
C478 C479 1.400 . S
C478 C480 1.384 . S
C479 C477 1.382 . S
C479 C478 1.400 . S
C479 H496 0.930 . S
C480 C478 1.384 . S
C480 C482 1.392 . S
C480 H497 0.931 . S
C481 C477 1.393 . S
C481 C482 1.401 . S
C481 H498 0.930 . S
C482 C480 1.392 . S
C482 C481 1.401 . S
C482 H499 0.930 . S
C483 O466 1.262 . S
C483 O467 1.260 . S
C484 Tb420 2.833 . S
C484 O464 1.251 . S
C484 O469 1.256 . S
C484 C477 1.500 . S
C485 H450 0.929 . S
C485 C463 1.444 . S
C485 C486 1.317 . S
C486 H448 0.930 . S
C486 C454 1.432 . S
C486 C485 1.317 . S
C487 O471 1.283 . S
C487 O474 1.243 . S
C488 C489 1.382 . S
C488 C492 1.393 . S
C488 C495 1.500 . S
C489 C488 1.382 . S
C489 C490 1.400 . S
C489 H500 0.930 . S
C490 C489 1.400 . S
C490 C491 1.384 . S
C491 C490 1.384 . S
C491 C493 1.392 . S
C491 H501 0.931 . S
C492 C488 1.393 . S
C492 C493 1.401 . S
C492 H502 0.930 . S
C493 C491 1.392 . S
C493 C492 1.401 . S
C493 H503 0.930 . S
C494 O472 1.262 . S
C494 O473 1.260 . S
C495 Tb431 2.833 . S
C495 O470 1.251 . S
C495 O475 1.256 . S
C495 C488 1.500 . S
H496 C479 0.930 . S
H497 C480 0.931 . S
H498 C481 0.930 . S
H499 C482 0.930 . S
H500 C489 0.930 . S
H501 C491 0.931 . S
H502 C492 0.930 . S
H503 C493 0.930 . S
Tb504 N535 2.660 . S
Tb504 N542 2.600 . S
Tb504 O548 2.546 . S
Tb504 O549 2.610 . S
Tb504 O551 2.320 . S
Tb504 O552 2.552 . S
Tb504 O553 2.413 . S
Tb504 O555 2.362 . S
Tb504 O556 2.421 . S
Tb504 C568 2.833 . S
C505 C508 1.432 . S
C505 C509 1.414 . S
C505 N512 1.359 . S
C506 C508 1.417 . S
C506 C510 1.432 . S
C506 C518 1.410 . S
C507 C509 1.444 . S
C507 C510 1.317 . S
C507 H530 0.929 . S
C508 C505 1.432 . S
C508 C506 1.417 . S
C508 N516 1.360 . S
C509 C505 1.414 . S
C509 C507 1.444 . S
C509 C514 1.385 . S
C510 C506 1.432 . S
C510 C507 1.317 . S
C510 H522 0.930 . S
C511 C513 1.392 . S
C511 C514 1.370 . S
C511 H523 0.931 . S
N512 C505 1.359 . S
N512 C513 1.327 . S
N512 Tb515 2.600 . S
C513 C511 1.392 . S
C513 N512 1.327 . S
C513 H520 0.930 . S
C514 C509 1.385 . S
C514 C511 1.370 . S
C514 H533 0.930 . S
Tb515 N512 2.600 . S
Tb515 N516 2.660 . S
Tb515 O549 2.362 . S
Tb515 O550 2.421 . S
Tb515 O554 2.546 . S
Tb515 O555 2.610 . S
Tb515 O557 2.320 . S
Tb515 O558 2.552 . S
Tb515 O559 2.413 . S
Tb515 C579 2.833 . S
N516 C508 1.360 . S
N516 Tb515 2.660 . S
N516 C517 1.305 . S
C517 N516 1.305 . S
C517 C519 1.407 . S
C517 H524 0.930 . S
C518 C506 1.410 . S
C518 C519 1.345 . S
C518 H526 0.930 . S
C519 C517 1.407 . S
C519 C518 1.345 . S
C519 H521 0.930 . S
H520 C513 0.930 . S
H521 C519 0.930 . S
H522 C510 0.930 . S
H523 C511 0.931 . S
H524 C517 0.930 . S
H525 C539 0.930 . S
H526 C518 0.930 . S
H527 C545 0.930 . S
H528 C536 0.930 . S
H529 C543 0.931 . S
H530 C507 0.929 . S
H531 C537 0.930 . S
H532 C570 0.930 . S
H533 C514 0.930 . S
H534 C569 0.929 . S
N535 Tb504 2.660 . S
N535 C536 1.305 . S
N535 C540 1.360 . S
C536 H528 0.930 . S
C536 N535 1.305 . S
C536 C539 1.407 . S
C537 H531 0.930 . S
C537 C538 1.410 . S
C537 C539 1.345 . S
C538 C537 1.410 . S
C538 C540 1.417 . S
C538 C570 1.432 . S
C539 H525 0.930 . S
C539 C536 1.407 . S
C539 C537 1.345 . S
C540 N535 1.360 . S
C540 C538 1.417 . S
C540 C544 1.432 . S
H541 C546 0.930 . S
N542 Tb504 2.600 . S
N542 C544 1.359 . S
N542 C545 1.327 . S
C543 H529 0.931 . S
C543 C545 1.392 . S
C543 C546 1.370 . S
C544 C540 1.432 . S
C544 N542 1.359 . S
C544 C547 1.414 . S
C545 H527 0.930 . S
C545 N542 1.327 . S
C545 C543 1.392 . S
C546 H541 0.930 . S
C546 C543 1.370 . S
C546 C547 1.385 . S
C547 C544 1.414 . S
C547 C546 1.385 . S
C547 C569 1.444 . S
O548 Tb504 2.546 . S
O548 C568 1.251 . S
O549 Tb504 2.610 . S
O549 Tb515 2.362 . S
O549 C560 1.283 . S
O550 Tb515 2.421 . S
O550 C567 1.262 . S
O551 Tb504 2.320 . S
O551 C567 1.260 . S
O552 Tb504 2.552 . S
O552 C560 1.243 . S
O553 Tb504 2.413 . S
O553 C568 1.256 . S
O554 Tb515 2.546 . S
O554 C579 1.251 . S
O555 Tb504 2.362 . S
O555 Tb515 2.610 . S
O555 C571 1.283 . S
O556 Tb504 2.421 . S
O556 C578 1.262 . S
O557 Tb515 2.320 . S
O557 C578 1.260 . S
O558 Tb515 2.552 . S
O558 C571 1.243 . S
O559 Tb515 2.413 . S
O559 C579 1.256 . S
C560 O549 1.283 . S
C560 O552 1.243 . S
C561 C563 1.382 . S
C561 C565 1.393 . S
C561 C568 1.500 . S
C562 C563 1.400 . S
C562 C564 1.384 . S
C563 C561 1.382 . S
C563 C562 1.400 . S
C563 H580 0.930 . S
C564 C562 1.384 . S
C564 C566 1.392 . S
C564 H581 0.931 . S
C565 C561 1.393 . S
C565 C566 1.401 . S
C565 H582 0.930 . S
C566 C564 1.392 . S
C566 C565 1.401 . S
C566 H583 0.930 . S
C567 O550 1.262 . S
C567 O551 1.260 . S
C568 Tb504 2.833 . S
C568 O548 1.251 . S
C568 O553 1.256 . S
C568 C561 1.500 . S
C569 H534 0.929 . S
C569 C547 1.444 . S
C569 C570 1.317 . S
C570 H532 0.930 . S
C570 C538 1.432 . S
C570 C569 1.317 . S
C571 O555 1.283 . S
C571 O558 1.243 . S
C572 C573 1.382 . S
C572 C576 1.393 . S
C572 C579 1.500 . S
C573 C572 1.382 . S
C573 C574 1.400 . S
C573 H584 0.930 . S
C574 C573 1.400 . S
C574 C575 1.376 1_556 S
C575 C574 1.376 1_554 S
C575 C577 1.384 1_554 S
C575 H585 0.947 . S
C576 C572 1.393 . S
C576 C577 1.401 . S
C576 H586 0.930 . S
C577 C575 1.384 1_556 S
C577 C576 1.401 . S
C577 H587 0.930 . S
C578 O556 1.262 . S
C578 O557 1.260 . S
C579 Tb515 2.833 . S
C579 O554 1.251 . S
C579 O559 1.256 . S
C579 C572 1.500 . S
H580 C563 0.930 . S
H581 C564 0.931 . S
H582 C565 0.930 . S
H583 C566 0.930 . S
H584 C573 0.930 . S
H585 C575 0.947 . S
H586 C576 0.930 . S
H587 C577 0.930 . S
Tb588 N619 2.660 1_655 S
Tb588 N626 2.600 . S
Tb588 O632 2.546 . S
Tb588 O633 2.610 . S
Tb588 O635 2.320 . S
Tb588 O636 2.552 . S
Tb588 O637 2.413 . S
Tb588 O639 2.362 . S
Tb588 O640 2.421 . S
Tb588 C652 2.833 . S
C589 C592 1.432 . S
C589 C593 1.414 . S
C589 N596 1.359 . S
C590 C592 1.417 . S
C590 C594 1.432 . S
C590 C602 1.410 . S
C591 C593 1.444 . S
C591 C594 1.317 . S
C591 H614 0.929 . S
C592 C589 1.432 . S
C592 C590 1.417 . S
C592 N600 1.360 . S
C593 C589 1.414 . S
C593 C591 1.444 . S
C593 C598 1.385 . S
C594 C590 1.432 . S
C594 C591 1.317 . S
C594 H606 0.930 . S
C595 C597 1.392 . S
C595 C598 1.370 . S
C595 H607 0.931 . S
N596 C589 1.359 . S
N596 C597 1.327 . S
N596 Tb599 2.600 . S
C597 C595 1.392 . S
C597 N596 1.327 . S
C597 H604 0.930 . S
C598 C593 1.385 . S
C598 C595 1.370 . S
C598 H617 0.930 . S
Tb599 N596 2.600 . S
Tb599 N600 2.660 . S
Tb599 O633 2.362 . S
Tb599 O634 2.421 . S
Tb599 O638 2.546 . S
Tb599 O639 2.610 . S
Tb599 O641 2.320 . S
Tb599 O642 2.552 . S
Tb599 O643 2.413 . S
Tb599 C663 2.833 . S
N600 C592 1.360 . S
N600 Tb599 2.660 . S
N600 C601 1.305 . S
C601 N600 1.305 . S
C601 C603 1.407 . S
C601 H608 0.930 . S
C602 C590 1.410 . S
C602 C603 1.345 . S
C602 H610 0.930 . S
C603 C601 1.407 . S
C603 C602 1.345 . S
C603 H605 0.930 . S
H604 C597 0.930 . S
H605 C603 0.930 . S
H606 C594 0.930 . S
H607 C595 0.931 . S
H608 C601 0.930 . S
H609 C623 0.930 . S
H610 C602 0.930 . S
H611 C629 0.930 . S
H612 C620 0.930 . S
H613 C627 0.931 . S
H614 C591 0.929 . S
H615 C621 0.930 . S
H616 C654 0.930 . S
H617 C598 0.930 . S
H618 C653 0.929 . S
N619 Tb588 2.660 1_455 S
N619 C620 1.305 . S
N619 C624 1.360 . S
C620 H612 0.930 . S
C620 N619 1.305 . S
C620 C623 1.407 . S
C621 H615 0.930 . S
C621 C622 1.410 . S
C621 C623 1.345 . S
C622 C621 1.410 . S
C622 C624 1.417 . S
C622 C654 1.432 . S
C623 H609 0.930 . S
C623 C620 1.407 . S
C623 C621 1.345 . S
C624 N619 1.360 . S
C624 C622 1.417 . S
C624 C628 1.432 1_455 S
H625 C630 0.931 1_455 S
N626 Tb588 2.600 . S
N626 C628 1.359 . S
N626 C629 1.327 . S
C627 H613 0.931 . S
C627 C629 1.392 . S
C627 C630 1.370 . S
C628 C624 1.432 1_655 S
C628 N626 1.359 . S
C628 C631 1.414 1_655 S
C629 H611 0.930 . S
C629 N626 1.327 . S
C629 C627 1.392 . S
C630 H625 0.931 1_655 S
C630 C627 1.370 . S
C630 C631 1.385 1_655 S
C631 C628 1.414 1_455 S
C631 C630 1.385 1_455 S
C631 C653 1.444 . S
O632 Tb588 2.546 . S
O632 C652 1.251 . S
O633 Tb588 2.610 . S
O633 Tb599 2.362 . S
O633 C644 1.283 . S
O634 Tb599 2.421 . S
O634 C651 1.262 . S
O635 Tb588 2.320 . S
O635 C651 1.260 . S
O636 Tb588 2.552 . S
O636 C644 1.243 . S
O637 Tb588 2.413 . S
O637 C652 1.256 . S
O638 Tb599 2.546 . S
O638 C663 1.251 . S
O639 Tb588 2.362 . S
O639 Tb599 2.610 . S
O639 C655 1.283 . S
O640 Tb588 2.421 . S
O640 C662 1.262 . S
O641 Tb599 2.320 . S
O641 C662 1.260 . S
O642 Tb599 2.552 . S
O642 C655 1.243 . S
O643 Tb599 2.413 . S
O643 C663 1.256 . S
C644 O633 1.283 . S
C644 O636 1.243 . S
C645 C647 1.382 1_556 S
C645 C649 1.393 1_556 S
C645 C652 1.500 . S
C646 C647 1.400 . S
C646 C648 1.384 . S
C647 C645 1.382 1_554 S
C647 C646 1.400 . S
C647 H664 0.930 . S
C648 C646 1.384 . S
C648 C650 1.392 . S
C648 H665 0.931 . S
C649 C645 1.393 1_554 S
C649 C650 1.401 . S
C649 H666 0.930 1_554 S
C650 C648 1.392 . S
C650 C649 1.401 . S
C650 H667 0.930 . S
C651 O634 1.262 . S
C651 O635 1.260 . S
C652 Tb588 2.833 . S
C652 O632 1.251 . S
C652 O637 1.256 . S
C652 C645 1.500 . S
C653 H618 0.929 . S
C653 C631 1.444 . S
C653 C654 1.317 . S
C654 H616 0.930 . S
C654 C622 1.432 . S
C654 C653 1.317 . S
C655 O639 1.283 . S
C655 O642 1.243 . S
C656 C657 1.382 . S
C656 C660 1.393 . S
C656 C663 1.500 . S
C657 C656 1.382 . S
C657 C658 1.400 . S
C657 H668 0.930 . S
C658 C657 1.400 . S
C658 C659 1.384 . S
C659 C658 1.384 . S
C659 C661 1.392 . S
C659 H669 0.931 . S
C660 C656 1.393 . S
C660 C661 1.401 . S
C660 H670 0.930 . S
C661 C659 1.392 . S
C661 C660 1.401 . S
C661 H671 0.930 . S
C662 O640 1.262 . S
C662 O641 1.260 . S
C663 Tb599 2.833 . S
C663 O638 1.251 . S
C663 O643 1.256 . S
C663 C656 1.500 . S
H664 C647 0.930 . S
H665 C648 0.931 . S
H666 C649 0.930 1_556 S
H667 C650 0.930 . S
H668 C657 0.930 . S
H669 C659 0.931 . S
H670 C660 0.930 . S
H671 C661 0.930 . S
Tb672 N703 2.660 . S
Tb672 N710 2.600 . S
Tb672 O716 2.546 . S
Tb672 O717 2.610 . S
Tb672 O719 2.320 . S
Tb672 O720 2.552 . S
Tb672 O721 2.413 . S
Tb672 O723 2.362 . S
Tb672 O724 2.421 . S
Tb672 C736 2.833 . S
C673 C676 1.432 . S
C673 C677 1.414 . S
C673 N680 1.359 . S
C674 C676 1.417 . S
C674 C678 1.432 1_655 S
C674 C686 1.406 . S
C675 C677 1.444 . S
C675 C678 1.317 1_655 S
C675 H698 0.929 1_655 S
C676 C673 1.432 . S
C676 C674 1.417 . S
C676 N684 1.360 . S
C677 C673 1.414 . S
C677 C675 1.444 . S
C677 C682 1.385 . S
C678 C674 1.432 1_455 S
C678 C675 1.317 1_455 S
C678 H690 0.930 . S
C679 C681 1.392 . S
C679 C682 1.370 . S
C679 H691 0.931 . S
N680 C673 1.359 . S
N680 C681 1.327 . S
N680 Tb683 2.600 . S
C681 C679 1.392 . S
C681 N680 1.327 . S
C681 H688 0.930 . S
C682 C677 1.385 . S
C682 C679 1.370 . S
C682 H701 0.930 . S
Tb683 N680 2.600 . S
Tb683 N684 2.660 . S
Tb683 O717 2.362 . S
Tb683 O718 2.421 . S
Tb683 O722 2.546 1_556 S
Tb683 O723 2.610 . S
Tb683 O725 2.320 . S
Tb683 O726 2.552 . S
Tb683 O727 2.413 1_556 S
Tb683 C747 2.833 1_556 S
N684 C676 1.360 . S
N684 Tb683 2.660 . S
N684 C685 1.305 . S
C685 N684 1.305 . S
C685 C687 1.407 . S
C685 H692 0.930 . S
C686 C674 1.406 . S
C686 C687 1.345 . S
C686 H694 0.934 1_655 S
C687 C685 1.407 . S
C687 C686 1.345 . S
C687 H689 0.930 . S
H688 C681 0.930 . S
H689 C687 0.930 . S
H690 C678 0.930 . S
H691 C679 0.931 . S
H692 C685 0.930 . S
H693 C707 0.930 . S
H694 C686 0.934 1_455 S
H695 C713 0.930 . S
H696 C704 0.930 . S
H697 C711 0.931 . S
H698 C675 0.929 1_455 S
H699 C705 0.930 . S
H700 C738 0.930 . S
H701 C682 0.930 . S
H702 C737 0.929 . S
N703 Tb672 2.660 . S
N703 C704 1.305 . S
N703 C708 1.360 . S
C704 H696 0.930 . S
C704 N703 1.305 . S
C704 C707 1.407 . S
C705 H699 0.930 . S
C705 C706 1.410 . S
C705 C707 1.345 . S
C706 C705 1.410 . S
C706 C708 1.417 . S
C706 C738 1.432 . S
C707 H693 0.930 . S
C707 C704 1.407 . S
C707 C705 1.345 . S
C708 N703 1.360 . S
C708 C706 1.417 . S
C708 C712 1.432 . S
H709 C714 0.930 . S
N710 Tb672 2.600 . S
N710 C712 1.359 . S
N710 C713 1.327 . S
C711 H697 0.931 . S
C711 C713 1.392 . S
C711 C714 1.370 . S
C712 C708 1.432 . S
C712 N710 1.359 . S
C712 C715 1.414 . S
C713 H695 0.930 . S
C713 N710 1.327 . S
C713 C711 1.392 . S
C714 H709 0.930 . S
C714 C711 1.370 . S
C714 C715 1.385 . S
C715 C712 1.414 . S
C715 C714 1.385 . S
C715 C737 1.444 . S
O716 Tb672 2.546 . S
O716 C736 1.251 . S
O717 Tb672 2.610 . S
O717 Tb683 2.362 . S
O717 C728 1.283 . S
O718 Tb683 2.421 . S
O718 C735 1.262 . S
O719 Tb672 2.320 . S
O719 C735 1.260 . S
O720 Tb672 2.552 . S
O720 C728 1.243 . S
O721 Tb672 2.413 . S
O721 C736 1.256 . S
O722 Tb683 2.546 1_554 S
O722 C747 1.251 . S
O723 Tb672 2.362 . S
O723 Tb683 2.610 . S
O723 C739 1.283 . S
O724 Tb672 2.421 . S
O724 C746 1.262 . S
O725 Tb683 2.320 . S
O725 C746 1.260 . S
O726 Tb683 2.552 . S
O726 C739 1.243 . S
O727 Tb683 2.413 1_554 S
O727 C747 1.256 . S
C728 O717 1.283 . S
C728 O720 1.243 . S
C729 C731 1.382 . S
C729 C733 1.393 . S
C729 C736 1.500 . S
C730 C731 1.400 . S
C730 C732 1.384 . S
C731 C729 1.382 . S
C731 C730 1.400 . S
C731 H748 0.930 . S
C732 C730 1.384 . S
C732 C734 1.392 . S
C732 H749 0.931 . S
C733 C729 1.393 . S
C733 C734 1.401 . S
C733 H750 0.930 . S
C734 C732 1.392 . S
C734 C733 1.401 . S
C734 H751 0.930 . S
C735 O718 1.262 . S
C735 O719 1.260 . S
C736 Tb672 2.833 . S
C736 O716 1.251 . S
C736 O721 1.256 . S
C736 C729 1.500 . S
C737 H702 0.929 . S
C737 C715 1.444 . S
C737 C738 1.317 . S
C738 H700 0.930 . S
C738 C706 1.432 . S
C738 C737 1.317 . S
C739 O723 1.283 . S
C739 O726 1.243 . S
C740 C741 1.382 . S
C740 C744 1.393 . S
C740 C747 1.500 . S
C741 C740 1.382 . S
C741 C742 1.400 . S
C741 H752 0.930 . S
C742 C741 1.400 . S
C742 C743 1.384 . S
C743 C742 1.384 . S
C743 C745 1.392 . S
C743 H753 0.931 . S
C744 C740 1.393 . S
C744 C745 1.401 . S
C744 H754 0.930 . S
C745 C743 1.392 . S
C745 C744 1.401 . S
C745 H755 0.930 . S
C746 O724 1.262 . S
C746 O725 1.260 . S
C747 Tb683 2.833 1_554 S
C747 O722 1.251 . S
C747 O727 1.256 . S
C747 C740 1.500 . S
H748 C731 0.930 . S
H749 C732 0.931 . S
H750 C733 0.930 . S
H751 C734 0.930 . S
H752 C741 0.930 . S
H753 C743 0.931 . S
H754 C744 0.930 . S
H755 C745 0.930 . S
H756 C762 0.930 . S
H757 C766 0.949 . S
H758 C771 0.929 . S
H759 C769 0.929 . S
H760 C764 0.929 . S
H761 C770 0.929 . S
C762 H756 0.930 . S
C762 C763 1.367 . S
C762 C770 1.378 . S
C763 C762 1.367 . S
C763 C771 1.433 . S
C764 H760 0.929 . S
C764 C766 1.378 . S
C764 C768 1.350 . S
C765 C768 1.463 . S
C765 C770 1.350 . S
C765 N773 1.427 . S
C766 H757 0.949 . S
C766 C764 1.378 . S
C766 C767 1.367 . S
C767 C766 1.367 . S
C767 C769 1.433 . S
C768 C764 1.350 . S
C768 C765 1.463 . S
C768 N772 1.427 . S
C769 H759 0.929 . S
C769 C767 1.433 . S
C769 N772 1.384 . S
C770 H761 0.929 . S
C770 C762 1.378 . S
C770 C765 1.350 . S
C771 H758 0.929 . S
C771 C763 1.433 . S
C771 N773 1.384 . S
N772 C768 1.427 . S
N772 C769 1.384 . S
N773 C765 1.427 . S
N773 C771 1.384 . S
H774 C780 0.930 . S
H775 C784 0.930 . S
H776 C789 0.929 . S
H777 C787 0.929 . S
H778 C782 0.929 . S
H779 C788 0.929 . S
C780 H774 0.930 . S
C780 C781 1.367 . S
C780 C788 1.378 . S
C781 C780 1.367 . S
C781 C789 1.433 . S
C782 H778 0.929 . S
C782 C784 1.378 . S
C782 C786 1.350 . S
C783 C786 1.463 . S
C783 C788 1.350 . S
C783 N791 1.427 . S
C784 H775 0.930 . S
C784 C782 1.378 . S
C784 C785 1.367 . S
C785 C784 1.367 . S
C785 C787 1.433 . S
C786 C782 1.350 . S
C786 C783 1.463 . S
C786 N790 1.427 . S
C787 H777 0.929 . S
C787 C785 1.433 . S
C787 N790 1.384 . S
C788 H779 0.929 . S
C788 C780 1.378 . S
C788 C783 1.350 . S
C789 H776 0.929 . S
C789 C781 1.433 . S
C789 N791 1.384 . S
N790 C786 1.427 . S
N790 C787 1.384 . S
N791 C783 1.427 . S
N791 C789 1.384 . S
H792 C798 0.930 . S
H793 C802 0.930 . S
H794 C807 0.929 . S
H795 C805 0.929 . S
H796 C800 0.929 . S
H797 C806 0.929 . S
C798 H792 0.930 . S
C798 C799 1.367 . S
C798 C806 1.378 . S
C799 C798 1.367 . S
C799 C807 1.433 . S
C800 H796 0.929 . S
C800 C802 1.378 . S
C800 C804 1.350 . S
C801 C804 1.463 . S
C801 C806 1.350 . S
C801 N809 1.427 . S
C802 H793 0.930 . S
C802 C800 1.378 . S
C802 C803 1.367 . S
C803 C802 1.367 . S
C803 C805 1.433 . S
C804 C800 1.350 . S
C804 C801 1.463 . S
C804 N808 1.427 . S
C805 H795 0.929 . S
C805 C803 1.433 . S
C805 N808 1.384 . S
C806 H797 0.929 . S
C806 C798 1.378 . S
C806 C801 1.350 . S
C807 H794 0.929 . S
C807 C799 1.433 . S
C807 N809 1.384 . S
N808 C804 1.427 . S
N808 C805 1.384 . S
N809 C801 1.427 . S
N809 C807 1.384 . S
H810 C816 0.930 . S
H811 C820 0.930 . S
H812 C825 0.929 . S
H813 C823 0.929 . S
H814 C818 0.929 . S
H815 C824 0.929 . S
C816 H810 0.930 . S
C816 C817 1.367 . S
C816 C824 1.378 . S
C817 C816 1.367 . S
C817 C825 1.433 . S
C818 H814 0.929 . S
C818 C820 1.378 . S
C818 C822 1.350 . S
C819 C822 1.463 . S
C819 C824 1.350 . S
C819 N827 1.427 . S
C820 H811 0.930 . S
C820 C818 1.378 . S
C820 C821 1.367 . S
C821 C820 1.367 . S
C821 C823 1.433 . S
C822 C818 1.350 . S
C822 C819 1.463 . S
C822 N826 1.427 . S
C823 H813 0.929 . S
C823 C821 1.433 . S
C823 N826 1.384 . S
C824 H815 0.929 . S
C824 C816 1.378 . S
C824 C819 1.350 . S
C825 H812 0.929 . S
C825 C817 1.433 . S
C825 N827 1.384 . S
N826 C822 1.427 . S
N826 C823 1.384 . S
N827 C819 1.427 . S
N827 C825 1.384 . S
H828 C834 0.930 . S
H829 C838 0.930 . S
H830 C843 0.929 . S
H831 C841 0.929 . S
H832 C836 0.929 . S
H833 C842 0.929 . S
C834 H828 0.930 . S
C834 C835 1.367 . S
C834 C842 1.378 . S
C835 C834 1.367 . S
C835 C843 1.433 . S
C836 H832 0.929 . S
C836 C838 1.378 . S
C836 C840 1.350 . S
C837 C840 1.463 . S
C837 C842 1.350 . S
C837 N845 1.427 . S
C838 H829 0.930 . S
C838 C836 1.378 . S
C838 C839 1.367 . S
C839 C838 1.367 . S
C839 C841 1.433 . S
C840 C836 1.350 . S
C840 C837 1.463 . S
C840 N844 1.427 . S
C841 H831 0.929 . S
C841 C839 1.433 . S
C841 N844 1.384 . S
C842 H833 0.929 . S
C842 C834 1.378 . S
C842 C837 1.350 . S
C843 H830 0.929 . S
C843 C835 1.433 . S
C843 N845 1.384 . S
N844 C840 1.427 . S
N844 C841 1.384 . S
N845 C837 1.427 . S
N845 C843 1.384 . S
H846 C852 0.930 . S
H847 C856 0.930 . S
H848 C861 0.929 . S
H849 C859 0.929 . S
H850 C854 0.929 . S
H851 C860 0.929 . S
C852 H846 0.930 . S
C852 C853 1.367 . S
C852 C860 1.378 . S
C853 C852 1.367 . S
C853 C861 1.433 . S
C854 H850 0.929 . S
C854 C856 1.378 . S
C854 C858 1.350 . S
C855 C858 1.463 . S
C855 C860 1.350 . S
C855 N863 1.427 . S
C856 H847 0.930 . S
C856 C854 1.378 . S
C856 C857 1.367 . S
C857 C856 1.367 . S
C857 C859 1.433 . S
C858 C854 1.350 . S
C858 C855 1.463 . S
C858 N862 1.427 . S
C859 H849 0.929 . S
C859 C857 1.433 . S
C859 N862 1.384 . S
C860 H851 0.929 . S
C860 C852 1.378 . S
C860 C855 1.350 . S
C861 H848 0.929 . S
C861 C853 1.433 . S
C861 N863 1.384 . S
N862 C858 1.427 . S
N862 C859 1.384 . S
N863 C855 1.427 . S
N863 C861 1.384 . S
H864 C870 0.930 . S
H865 C874 0.930 . S
H866 C879 0.929 . S
H867 C877 0.929 . S
H868 C872 0.929 . S
H869 C878 0.929 . S
C870 H864 0.930 . S
C870 C871 1.367 . S
C870 C878 1.378 . S
C871 C870 1.367 . S
C871 C879 1.433 . S
C872 H868 0.929 . S
C872 C874 1.378 . S
C872 C876 1.350 1_556 S
C873 C876 1.463 . S
C873 C878 1.350 . S
C873 N881 1.427 . S
C874 H865 0.930 . S
C874 C872 1.378 . S
C874 C875 1.367 . S
C875 C874 1.367 . S
C875 C877 1.433 . S
C876 C872 1.350 1_554 S
C876 C873 1.463 . S
C876 N880 1.427 . S
C877 H867 0.929 . S
C877 C875 1.433 . S
C877 N880 1.384 1_556 S
C878 H869 0.929 . S
C878 C870 1.378 . S
C878 C873 1.350 . S
C879 H866 0.929 . S
C879 C871 1.433 . S
C879 N881 1.384 . S
N880 C876 1.427 . S
N880 C877 1.384 1_554 S
N881 C873 1.427 . S
N881 C879 1.384 . S
H882 C888 0.930 . S
H883 C892 0.930 1_556 S
H884 C897 0.929 . S
H885 C895 0.929 . S
H886 C890 0.929 . S
H887 C896 0.929 . S
C888 H882 0.930 . S
C888 C889 1.367 . S
C888 C896 1.378 . S
C889 C888 1.367 . S
C889 C897 1.433 . S
C890 H886 0.929 . S
C890 C892 1.378 . S
C890 C894 1.350 . S
C891 C894 1.463 . S
C891 C896 1.350 . S
C891 N899 1.427 . S
C892 H883 0.930 1_554 S
C892 C890 1.378 . S
C892 C893 1.367 1_554 S
C893 C892 1.367 1_556 S
C893 C895 1.433 1_556 S
C894 C890 1.350 . S
C894 C891 1.463 . S
C894 N898 1.427 . S
C895 H885 0.929 . S
C895 C893 1.433 1_554 S
C895 N898 1.384 . S
C896 H887 0.929 . S
C896 C888 1.378 . S
C896 C891 1.350 . S
C897 H884 0.929 . S
C897 C889 1.433 . S
C897 N899 1.384 . S
N898 C894 1.427 . S
N898 C895 1.384 . S
N899 C891 1.427 . S
N899 C897 1.384 . S
H900 C906 0.930 . S
H901 C910 0.930 . S
H902 C915 0.929 . S
H903 C913 0.929 . S
H904 C908 0.929 . S
H905 C914 0.929 . S
C906 H900 0.930 . S
C906 C907 1.367 . S
C906 C914 1.378 . S
C907 C906 1.367 . S
C907 C915 1.433 . S
C908 H904 0.929 . S
C908 C910 1.378 . S
C908 C912 1.350 . S
C909 C912 1.463 . S
C909 C914 1.350 . S
C909 N917 1.427 . S
C910 H901 0.930 . S
C910 C908 1.378 . S
C910 C911 1.367 . S
C911 C910 1.367 . S
C911 C913 1.433 . S
C912 C908 1.350 . S
C912 C909 1.463 . S
C912 N916 1.427 . S
C913 H903 0.929 . S
C913 C911 1.433 . S
C913 N916 1.384 . S
C914 H905 0.929 . S
C914 C906 1.378 . S
C914 C909 1.350 . S
C915 H902 0.929 . S
C915 C907 1.433 . S
C915 N917 1.384 . S
N916 C912 1.427 . S
N916 C913 1.384 . S
N917 C909 1.427 . S
N917 C915 1.384 . S
H918 C924 0.930 . S
H919 C928 0.930 . S
H920 C933 0.929 . S
H921 C931 0.929 . S
H922 C926 0.929 . S
H923 C932 0.929 . S
C924 H918 0.930 . S
C924 C925 1.367 . S
C924 C932 1.378 . S
C925 C924 1.367 . S
C925 C933 1.433 . S
C926 H922 0.929 . S
C926 C928 1.378 . S
C926 C930 1.350 . S
C927 C930 1.463 . S
C927 C932 1.350 . S
C927 N935 1.427 . S
C928 H919 0.930 . S
C928 C926 1.378 . S
C928 C929 1.367 . S
C929 C928 1.367 . S
C929 C931 1.433 . S
C930 C926 1.350 . S
C930 C927 1.463 . S
C930 N934 1.427 . S
C931 H921 0.929 . S
C931 C929 1.433 . S
C931 N934 1.384 . S
C932 H923 0.929 . S
C932 C924 1.378 . S
C932 C927 1.350 . S
C933 H920 0.929 . S
C933 C925 1.433 . S
C933 N935 1.384 . S
N934 C930 1.427 . S
N934 C931 1.384 . S
N935 C927 1.427 . S
N935 C933 1.384 . S
H936 C942 0.930 . S
H937 C946 0.930 . S
H938 C951 0.929 . S
H939 C949 0.929 . S
H940 C944 0.929 . S
H941 C950 0.929 . S
C942 H936 0.930 . S
C942 C943 1.367 . S
C942 C950 1.378 . S
C943 C942 1.367 . S
C943 C951 1.433 . S
C944 H940 0.929 . S
C944 C946 1.378 . S
C944 C948 1.350 . S
C945 C948 1.463 . S
C945 C950 1.350 . S
C945 N953 1.427 . S
C946 H937 0.930 . S
C946 C944 1.378 . S
C946 C947 1.367 . S
C947 C946 1.367 . S
C947 C949 1.433 . S
C948 C944 1.350 . S
C948 C945 1.463 . S
C948 N952 1.427 . S
C949 H939 0.929 . S
C949 C947 1.433 . S
C949 N952 1.384 . S
C950 H941 0.929 . S
C950 C942 1.378 . S
C950 C945 1.350 . S
C951 H938 0.929 . S
C951 C943 1.433 . S
C951 N953 1.384 . S
N952 C948 1.427 . S
N952 C949 1.384 . S
N953 C945 1.427 . S
N953 C951 1.384 . S
H954 C960 0.930 . S
H955 C964 0.930 . S
H956 C969 0.929 1_545 S
H957 C967 0.929 . S
H958 C962 0.929 . S
H959 C968 0.929 . S
C960 H954 0.930 . S
C960 C961 1.367 . S
C960 C968 1.378 . S
C961 C960 1.367 . S
C961 C969 1.433 . S
C962 H958 0.929 . S
C962 C964 1.378 . S
C962 C966 1.350 . S
C963 C966 1.463 . S
C963 C968 1.350 . S
C963 N971 1.427 . S
C964 H955 0.930 . S
C964 C962 1.378 . S
C964 C965 1.367 . S
C965 C964 1.367 . S
C965 C967 1.433 . S
C966 C962 1.350 . S
C966 C963 1.463 . S
C966 N970 1.427 . S
C967 H957 0.929 . S
C967 C965 1.433 . S
C967 N970 1.384 . S
C968 H959 0.929 . S
C968 C960 1.378 . S
C968 C963 1.350 . S
C969 H956 0.929 1_565 S
C969 C961 1.433 . S
C969 N971 1.384 . S
N970 C966 1.427 . S
N970 C967 1.384 . S
N971 C963 1.427 . S
N971 C969 1.384 . S
H972 C978 0.930 . S
H973 C982 0.930 . S
H974 C987 0.929 . S
H975 C985 0.929 . S
H976 C980 0.929 . S
H977 C986 0.929 . S
C978 H972 0.930 . S
C978 C979 1.367 . S
C978 C986 1.378 . S
C979 C978 1.367 . S
C979 C987 1.433 . S
C980 H976 0.929 . S
C980 C982 1.378 . S
C980 C984 1.350 . S
C981 C984 1.463 . S
C981 C986 1.350 . S
C981 N989 1.427 . S
C982 H973 0.930 . S
C982 C980 1.378 . S
C982 C983 1.367 . S
C983 C982 1.367 . S
C983 C985 1.433 . S
C984 C980 1.350 . S
C984 C981 1.463 . S
C984 N988 1.427 . S
C985 H975 0.929 . S
C985 C983 1.433 . S
C985 N988 1.384 . S
C986 H977 0.929 . S
C986 C978 1.378 . S
C986 C981 1.350 . S
C987 H974 0.929 . S
C987 C979 1.433 . S
C987 N989 1.384 . S
N988 C984 1.427 . S
N988 C985 1.384 . S
N989 C981 1.427 . S
N989 C987 1.384 . S
H990 C996 0.930 . S
H991 C1000 0.965 1_455 S
H992 C1005 0.929 . S
H993 C1003 0.929 . S
H994 C998 0.929 . S
H995 C1004 0.929 . S
C996 H990 0.930 . S
C996 C997 1.367 . S
C996 C1004 1.378 . S
C997 C996 1.367 . S
C997 C1005 1.433 . S
C998 H994 0.929 . S
C998 C1000 1.370 1_556 S
C998 C1002 1.350 1_556 S
C999 C1002 1.463 1_556 S
C999 C1004 1.350 . S
C999 N1007 1.427 . S
C1000 H991 0.965 1_655 S
C1000 C998 1.370 1_554 S
C1000 C1001 1.356 1_655 S
C1001 C1000 1.356 1_455 S
C1001 C1003 1.433 . S
C1002 C998 1.350 1_554 S
C1002 C999 1.463 1_554 S
C1002 N1006 1.427 . S
C1003 H993 0.929 . S
C1003 C1001 1.433 . S
C1003 N1006 1.384 1_455 S
C1004 H995 0.929 . S
C1004 C996 1.378 . S
C1004 C999 1.350 . S
C1005 H992 0.929 . S
C1005 C997 1.433 . S
C1005 N1007 1.384 . S
N1006 C1002 1.427 . S
N1006 C1003 1.384 1_655 S
N1007 C999 1.427 . S
N1007 C1005 1.384 . S
H1008 C1014 0.930 . S
H1009 C1018 0.930 . S
H1010 C1023 0.929 . S
H1011 C1021 0.929 . S
H1012 C1016 0.929 . S
H1013 C1022 0.929 1_554 S
C1014 H1008 0.930 . S
C1014 C1015 1.367 . S
C1014 C1022 1.378 . S
C1015 C1014 1.367 . S
C1015 C1023 1.433 . S
C1016 H1012 0.929 . S
C1016 C1018 1.378 . S
C1016 C1020 1.350 . S
C1017 C1020 1.463 1_556 S
C1017 C1022 1.350 . S
C1017 N1025 1.427 . S
C1018 H1009 0.930 . S
C1018 C1016 1.378 . S
C1018 C1019 1.367 . S
C1019 C1018 1.367 . S
C1019 C1021 1.433 . S
C1020 C1016 1.350 . S
C1020 C1017 1.463 1_554 S
C1020 N1024 1.427 . S
C1021 H1011 0.929 . S
C1021 C1019 1.433 . S
C1021 N1024 1.384 . S
C1022 H1013 0.929 1_556 S
C1022 C1014 1.378 . S
C1022 C1017 1.350 . S
C1023 H1010 0.929 . S
C1023 C1015 1.433 . S
C1023 N1025 1.384 . S
N1024 C1020 1.427 . S
N1024 C1021 1.384 . S
N1025 C1017 1.427 . S
N1025 C1023 1.384 . S
H1026 C1032 0.930 . S
H1027 C1036 0.930 . S
H1028 C1041 0.929 . S
H1029 C1039 0.929 . S
H1030 C1034 0.929 . S
H1031 C1040 0.929 1_554 S
C1032 H1026 0.930 . S
C1032 C1033 1.367 . S
C1032 C1040 1.378 . S
C1033 C1032 1.367 . S
C1033 C1041 1.433 . S
C1034 H1030 0.929 . S
C1034 C1036 1.378 . S
C1034 C1038 1.350 . S
C1035 C1038 1.463 . S
C1035 C1040 1.350 . S
C1035 N1043 1.427 . S
C1036 H1027 0.930 . S
C1036 C1034 1.378 . S
C1036 C1037 1.367 1_556 S
C1037 C1036 1.367 1_554 S
C1037 C1039 1.433 . S
C1038 C1034 1.350 . S
C1038 C1035 1.463 . S
C1038 N1042 1.427 1_556 S
C1039 H1029 0.929 . S
C1039 C1037 1.433 . S
C1039 N1042 1.384 . S
C1040 H1031 0.929 1_556 S
C1040 C1032 1.378 . S
C1040 C1035 1.350 . S
C1041 H1028 0.929 . S
C1041 C1033 1.433 . S
C1041 N1043 1.384 . S
N1042 C1038 1.427 1_554 S
N1042 C1039 1.384 . S
N1043 C1035 1.427 . S
N1043 C1041 1.384 . S
H1044 C1050 0.930 . S
H1045 C1054 0.930 . S
H1046 C1059 0.929 . S
H1047 C1057 0.929 . S
H1048 C1052 0.929 . S
H1049 C1058 0.929 . S
C1050 H1044 0.930 . S
C1050 C1051 1.367 . S
C1050 C1058 1.378 . S
C1051 C1050 1.367 . S
C1051 C1059 1.433 . S
C1052 H1048 0.929 . S
C1052 C1054 1.378 . S
C1052 C1056 1.350 . S
C1053 C1056 1.463 . S
C1053 C1058 1.350 . S
C1053 N1061 1.427 . S
C1054 H1045 0.930 . S
C1054 C1052 1.378 . S
C1054 C1055 1.367 . S
C1055 C1054 1.367 . S
C1055 C1057 1.433 . S
C1056 C1052 1.350 . S
C1056 C1053 1.463 . S
C1056 N1060 1.427 . S
C1057 H1047 0.929 . S
C1057 C1055 1.433 . S
C1057 N1060 1.384 . S
C1058 H1049 0.929 . S
C1058 C1050 1.378 . S
C1058 C1053 1.350 . S
C1059 H1046 0.929 . S
C1059 C1051 1.433 . S
C1059 N1061 1.384 . S
N1060 C1056 1.427 . S
N1060 C1057 1.384 . S
N1061 C1053 1.427 . S
N1061 C1059 1.384 . S
H1062 C1068 0.930 . S
H1063 C1072 0.930 . S
H1064 C1077 0.929 . S
H1065 C1075 0.929 . S
H1066 C1070 0.929 . S
H1067 C1076 0.929 . S
C1068 H1062 0.930 . S
C1068 C1069 1.367 . S
C1068 C1076 1.378 . S
C1069 C1068 1.367 . S
C1069 C1077 1.433 . S
C1070 H1066 0.929 . S
C1070 C1072 1.378 . S
C1070 C1074 1.350 . S
C1071 C1074 1.463 . S
C1071 C1076 1.350 . S
C1071 N1079 1.427 . S
C1072 H1063 0.930 . S
C1072 C1070 1.378 . S
C1072 C1073 1.367 . S
C1073 C1072 1.367 . S
C1073 C1075 1.433 . S
C1074 C1070 1.350 . S
C1074 C1071 1.463 . S
C1074 N1078 1.427 . S
C1075 H1065 0.929 . S
C1075 C1073 1.433 . S
C1075 N1078 1.384 . S
C1076 H1067 0.929 . S
C1076 C1068 1.378 . S
C1076 C1071 1.350 . S
C1077 H1064 0.929 . S
C1077 C1069 1.433 . S
C1077 N1079 1.384 . S
N1078 C1074 1.427 . S
N1078 C1075 1.384 . S
N1079 C1071 1.427 . S
N1079 C1077 1.384 . S
H1080 C1086 0.930 . S
H1081 C1090 0.930 1_556 S
H1082 C1095 0.929 . S
H1083 C1093 0.929 . S
H1084 C1088 0.929 1_556 S
H1085 C1094 0.929 . S
C1086 H1080 0.930 . S
C1086 C1087 1.367 . S
C1086 C1094 1.378 . S
C1087 C1086 1.367 . S
C1087 C1095 1.433 1_554 S
C1088 H1084 0.929 1_554 S
C1088 C1090 1.378 . S
C1088 C1092 1.350 . S
C1089 C1092 1.463 . S
C1089 C1094 1.350 . S
C1089 N1097 1.427 1_554 S
C1090 H1081 0.930 1_554 S
C1090 C1088 1.378 . S
C1090 C1091 1.367 . S
C1091 C1090 1.367 . S
C1091 C1093 1.433 . S
C1092 C1088 1.350 . S
C1092 C1089 1.463 . S
C1092 N1096 1.427 . S
C1093 H1083 0.929 . S
C1093 C1091 1.433 . S
C1093 N1096 1.384 . S
C1094 H1085 0.929 . S
C1094 C1086 1.378 . S
C1094 C1089 1.350 . S
C1095 H1082 0.929 . S
C1095 C1087 1.433 1_556 S
C1095 N1097 1.384 . S
N1096 C1092 1.427 . S
N1096 C1093 1.384 . S
N1097 C1089 1.427 1_556 S
N1097 C1095 1.384 . S
H1098 C1104 0.930 . S
H1099 C1108 0.930 . S
H1100 C1113 0.929 . S
H1101 C1111 0.929 . S
H1102 C1106 0.929 . S
H1103 C1112 0.929 . S
C1104 H1098 0.930 . S
C1104 C1105 1.367 . S
C1104 C1112 1.378 . S
C1105 C1104 1.367 . S
C1105 C1113 1.433 . S
C1106 H1102 0.929 . S
C1106 C1108 1.378 . S
C1106 C1110 1.350 . S
C1107 C1110 1.463 . S
C1107 C1112 1.350 . S
C1107 N1115 1.427 . S
C1108 H1099 0.930 . S
C1108 C1106 1.378 . S
C1108 C1109 1.367 . S
C1109 C1108 1.367 . S
C1109 C1111 1.433 . S
C1110 C1106 1.350 . S
C1110 C1107 1.463 . S
C1110 N1114 1.427 . S
C1111 H1101 0.929 . S
C1111 C1109 1.433 . S
C1111 N1114 1.384 . S
C1112 H1103 0.929 . S
C1112 C1104 1.378 . S
C1112 C1107 1.350 . S
C1113 H1100 0.929 . S
C1113 C1105 1.433 . S
C1113 N1115 1.384 . S
N1114 C1110 1.427 . S
N1114 C1111 1.384 . S
N1115 C1107 1.427 . S
N1115 C1113 1.384 . S
H1116 C1122 0.930 . S
H1117 C1126 0.930 . S
H1118 C1131 0.929 . S
H1119 C1129 0.929 . S
H1120 C1124 0.929 . S
H1121 C1130 0.929 . S
C1122 H1116 0.930 . S
C1122 C1123 1.367 . S
C1122 C1130 1.378 . S
C1123 C1122 1.367 . S
C1123 C1131 1.433 . S
C1124 H1120 0.929 . S
C1124 C1126 1.378 . S
C1124 C1128 1.350 . S
C1125 C1128 1.463 . S
C1125 C1130 1.350 . S
C1125 N1133 1.427 . S
C1126 H1117 0.930 . S
C1126 C1124 1.378 . S
C1126 C1127 1.367 . S
C1127 C1126 1.367 . S
C1127 C1129 1.433 . S
C1128 C1124 1.350 . S
C1128 C1125 1.463 . S
C1128 N1132 1.427 . S
C1129 H1119 0.929 . S
C1129 C1127 1.433 . S
C1129 N1132 1.384 . S
C1130 H1121 0.929 . S
C1130 C1122 1.378 . S
C1130 C1125 1.350 . S
C1131 H1118 0.929 . S
C1131 C1123 1.433 . S
C1131 N1133 1.384 . S
N1132 C1128 1.427 . S
N1132 C1129 1.384 . S
N1133 C1125 1.427 . S
N1133 C1131 1.384 . S
H1134 C1140 0.930 . S
H1135 C1144 0.930 . S
H1136 C1149 0.929 . S
H1137 C1147 0.929 . S
H1138 C1142 0.929 . S
H1139 C1148 0.929 . S
C1140 H1134 0.930 . S
C1140 C1141 1.367 . S
C1140 C1148 1.378 . S
C1141 C1140 1.367 . S
C1141 C1149 1.433 . S
C1142 H1138 0.929 . S
C1142 C1144 1.378 . S
C1142 C1146 1.350 . S
C1143 C1146 1.463 . S
C1143 C1148 1.350 . S
C1143 N1151 1.427 . S
C1144 H1135 0.930 . S
C1144 C1142 1.378 . S
C1144 C1145 1.367 . S
C1145 C1144 1.367 . S
C1145 C1147 1.433 . S
C1146 C1142 1.350 . S
C1146 C1143 1.463 . S
C1146 N1150 1.427 . S
C1147 H1137 0.929 . S
C1147 C1145 1.433 . S
C1147 N1150 1.384 . S
C1148 H1139 0.929 . S
C1148 C1140 1.378 . S
C1148 C1143 1.350 . S
C1149 H1136 0.929 . S
C1149 C1141 1.433 . S
C1149 N1151 1.384 . S
N1150 C1146 1.427 . S
N1150 C1147 1.384 . S
N1151 C1143 1.427 . S
N1151 C1149 1.384 . S
H1152 C1158 0.930 . S
H1153 C1162 0.930 . S
H1154 C1167 0.929 . S
H1155 C1165 0.929 . S
H1156 C1160 0.929 . S
H1157 C1166 0.929 . S
C1158 H1152 0.930 . S
C1158 C1159 1.367 . S
C1158 C1166 1.378 1_545 S
C1159 C1158 1.367 . S
C1159 C1167 1.433 . S
C1160 H1156 0.929 . S
C1160 C1162 1.378 . S
C1160 C1164 1.350 . S
C1161 C1164 1.463 . S
C1161 C1166 1.350 . S
C1161 N1169 1.427 . S
C1162 H1153 0.930 . S
C1162 C1160 1.378 . S
C1162 C1163 1.367 . S
C1163 C1162 1.367 . S
C1163 C1165 1.433 . S
C1164 C1160 1.350 . S
C1164 C1161 1.463 . S
C1164 N1168 1.427 . S
C1165 H1155 0.929 . S
C1165 C1163 1.433 . S
C1165 N1168 1.384 . S
C1166 H1157 0.929 . S
C1166 C1158 1.378 1_565 S
C1166 C1161 1.350 . S
C1167 H1154 0.929 . S
C1167 C1159 1.433 . S
C1167 N1169 1.384 1_545 S
N1168 C1164 1.427 . S
N1168 C1165 1.384 . S
N1169 C1161 1.427 . S
N1169 C1167 1.384 1_565 S
H1170 C1176 0.930 . S
H1171 C1180 0.930 . S
H1172 C1185 0.918 1_655 S
H1173 C1183 0.929 . S
H1174 C1178 0.929 . S
H1175 C1184 0.929 . S
C1176 H1170 0.930 . S
C1176 C1177 1.367 . S
C1176 C1184 1.378 . S
C1177 C1176 1.367 . S
C1177 C1185 1.418 . S
C1178 H1174 0.929 . S
C1178 C1180 1.378 . S
C1178 C1182 1.350 . S
C1179 C1182 1.463 . S
C1179 C1184 1.350 . S
C1179 N1187 1.427 . S
C1180 H1171 0.930 . S
C1180 C1178 1.378 . S
C1180 C1181 1.367 . S
C1181 C1180 1.367 . S
C1181 C1183 1.433 . S
C1182 C1178 1.350 . S
C1182 C1179 1.463 . S
C1182 N1186 1.427 . S
C1183 H1173 0.929 . S
C1183 C1181 1.433 . S
C1183 N1186 1.384 . S
C1184 H1175 0.929 . S
C1184 C1176 1.378 . S
C1184 C1179 1.350 . S
C1185 H1172 0.918 1_455 S
C1185 C1177 1.418 . S
C1185 N1187 1.411 . S
N1186 C1182 1.427 . S
N1186 C1183 1.384 . S
N1187 C1179 1.427 . S
N1187 C1185 1.411 . S
H1188 C1194 0.930 . S
H1189 C1198 0.930 . S
H1190 C1203 0.929 . S
H1191 C1201 0.929 . S
H1192 C1196 0.929 . S
H1193 C1202 0.929 . S
C1194 H1188 0.930 . S
C1194 C1195 1.367 . S
C1194 C1202 1.378 . S
C1195 C1194 1.367 . S
C1195 C1203 1.433 . S
C1196 H1192 0.929 . S
C1196 C1198 1.378 . S
C1196 C1200 1.350 . S
C1197 C1200 1.463 . S
C1197 C1202 1.350 . S
C1197 N1205 1.427 . S
C1198 H1189 0.930 . S
C1198 C1196 1.378 . S
C1198 C1199 1.367 . S
C1199 C1198 1.367 . S
C1199 C1201 1.433 . S
C1200 C1196 1.350 . S
C1200 C1197 1.463 . S
C1200 N1204 1.427 . S
C1201 H1191 0.929 . S
C1201 C1199 1.433 . S
C1201 N1204 1.384 . S
C1202 H1193 0.929 . S
C1202 C1194 1.378 . S
C1202 C1197 1.350 . S
C1203 H1190 0.929 . S
C1203 C1195 1.433 . S
C1203 N1205 1.384 . S
N1204 C1200 1.427 . S
N1204 C1201 1.384 . S
N1205 C1197 1.427 . S
N1205 C1203 1.384 . S
H1206 C1212 0.930 1_565 S
H1207 C1216 0.930 . S
H1208 C1221 0.929 . S
H1209 C1219 0.929 . S
H1210 C1214 0.929 . S
H1211 C1220 0.929 . S
C1212 H1206 0.930 1_545 S
C1212 C1213 1.367 1_545 S
C1212 C1220 1.378 . S
C1213 C1212 1.367 1_565 S
C1213 C1221 1.433 1_565 S
C1214 H1210 0.929 . S
C1214 C1216 1.378 . S
C1214 C1218 1.350 . S
C1215 C1218 1.463 . S
C1215 C1220 1.350 . S
C1215 N1223 1.427 . S
C1216 H1207 0.930 . S
C1216 C1214 1.378 . S
C1216 C1217 1.367 . S
C1217 C1216 1.367 . S
C1217 C1219 1.433 . S
C1218 C1214 1.350 . S
C1218 C1215 1.463 . S
C1218 N1222 1.427 . S
C1219 H1209 0.929 . S
C1219 C1217 1.433 . S
C1219 N1222 1.384 . S
C1220 H1211 0.929 . S
C1220 C1212 1.378 . S
C1220 C1215 1.350 . S
C1221 H1208 0.929 . S
C1221 C1213 1.433 1_545 S
C1221 N1223 1.384 . S
N1222 C1218 1.427 . S
N1222 C1219 1.384 . S
N1223 C1215 1.427 . S
N1223 C1221 1.384 . S
H1224 C1230 0.930 . S
H1225 C1234 0.930 . S
H1226 C1239 0.929 . S
H1227 C1237 0.929 . S
H1228 C1232 0.939 1_455 S
H1229 C1238 0.929 . S
C1230 H1224 0.930 . S
C1230 C1231 1.367 . S
C1230 C1238 1.378 . S
C1231 C1230 1.367 . S
C1231 C1239 1.433 . S
C1232 H1228 0.939 1_655 S
C1232 C1234 1.378 1_655 S
C1232 C1236 1.350 . S
C1233 C1236 1.463 . S
C1233 C1238 1.350 . S
C1233 N1241 1.427 . S
C1234 H1225 0.930 . S
C1234 C1232 1.378 1_455 S
C1234 C1235 1.367 . S
C1235 C1234 1.367 . S
C1235 C1237 1.433 1_455 S
C1236 C1232 1.350 . S
C1236 C1233 1.463 . S
C1236 N1240 1.427 . S
C1237 H1227 0.929 . S
C1237 C1235 1.433 1_655 S
C1237 N1240 1.384 . S
C1238 H1229 0.929 . S
C1238 C1230 1.378 . S
C1238 C1233 1.350 . S
C1239 H1226 0.929 . S
C1239 C1231 1.433 . S
C1239 N1241 1.384 . S
N1240 C1236 1.427 . S
N1240 C1237 1.384 . S
N1241 C1233 1.427 . S
N1241 C1239 1.384 . S
C763 C74 3.305 1_556 S
C767 C63 3.305 . S
C781 C158 3.365 . S
C785 C147 3.365 . S
C799 C242 3.345 . S
C803 C231 3.345 . S
C817 C315 3.269 . S
C821 C326 3.269 1_556 S
C835 C392 3.407 . S
C839 C403 3.407 1_556 S
C853 C483 3.266 . S
C857 C494 3.266 1_556 S
C871 C562 2.567 . S
C875 C574 2.567 . S
C889 C658 1.996 . S
C893 C646 1.996 1_556 S
C907 C730 1.515 . S
C911 C742 1.515 . S
C925 C476 1.964 . S
C929 C58 1.642 . S
C943 C142 1.470 . S
C947 C308 1.816 . S
C961 C226 1.140 . S
C965 C406 1.280 . S
C979 C224 2.027 . S
C983 C571 2.289 . S
C997 C651 1.810 . S
C1001 C56 1.581 . S
C1015 C739 1.828 . S
C1019 C140 1.691 . S
C1033 C746 0.975 . S
C1037 C70 0.957 . S
C1051 C154 1.404 . S
C1055 C578 1.431 . S
C1069 C644 1.593 . S
C1073 C238 1.584 . S
C1087 C235 1.825 . S
C1091 C322 1.581 1_545 S
C1105 C399 2.520 . S
C1109 C67 2.449 . S
C1123 C151 1.989 . S
C1127 C490 1.767 . S
C1141 C735 1.599 . S
C1145 C310 1.579 . S
C1159 C567 1.810 . S
C1163 C410 1.711 . S
C1177 C655 1.731 1_455 S
C1181 C478 1.809 . S
C1195 C560 2.066 . S
C1199 C487 2.039 . S
C1213 C319 1.307 . S
C1217 C662 1.423 . S
C1231 C728 1.322 . S
C1235 C394 1.364 . S
