# Generated by pormake.
# Topology neb, (4)-cn, num edge types: 1
# Building blocks:
#     Node 0, Type 0, BuildingBlock: ICAMEG_clean_sbu_1, # of connection points: 4
#     Node 1, Type 0, BuildingBlock: ICAMEG_clean_sbu_1, # of connection points: 4
#     Node 2, Type 0, BuildingBlock: ICAMEG_clean_sbu_1, # of connection points: 4
#     Node 3, Type 0, BuildingBlock: ICAMEG_clean_sbu_1, # of connection points: 4
#     Node 4, Type 0, BuildingBlock: ICAMEG_clean_sbu_1, # of connection points: 4
#     Node 5, Type 0, BuildingBlock: ICAMEG_clean_sbu_1, # of connection points: 4
#     Node 6, Type 0, BuildingBlock: ICAMEG_clean_sbu_1, # of connection points: 4
#     Node 7, Type 0, BuildingBlock: ICAMEG_clean_sbu_1, # of connection points: 4
#     Node 8, Type 0, BuildingBlock: ICAMEG_clean_sbu_1, # of connection points: 4
#     Node 9, Type 0, BuildingBlock: ICAMEG_clean_sbu_1, # of connection points: 4
#     Node 10, Type 0, BuildingBlock: ICAMEG_clean_sbu_1, # of connection points: 4
#     Node 11, Type 0, BuildingBlock: ICAMEG_clean_sbu_1, # of connection points: 4
#     Node 12, Type 0, BuildingBlock: ICAMEG_clean_sbu_1, # of connection points: 4
#     Node 13, Type 0, BuildingBlock: ICAMEG_clean_sbu_1, # of connection points: 4
#     Node 14, Type 0, BuildingBlock: ICAMEG_clean_sbu_1, # of connection points: 4
#     Node 15, Type 0, BuildingBlock: ICAMEG_clean_sbu_1, # of connection points: 4
#     Edge 16, Type (0, 0), BuildingBlock: CIFDUS_clean_linker_0, # of connection points: 2
#     Edge 17, Type (0, 0), BuildingBlock: CIFDUS_clean_linker_0, # of connection points: 2
#     Edge 18, Type (0, 0), BuildingBlock: CIFDUS_clean_linker_0, # of connection points: 2
#     Edge 19, Type (0, 0), BuildingBlock: CIFDUS_clean_linker_0, # of connection points: 2
#     Edge 20, Type (0, 0), BuildingBlock: CIFDUS_clean_linker_0, # of connection points: 2
#     Edge 21, Type (0, 0), BuildingBlock: CIFDUS_clean_linker_0, # of connection points: 2
#     Edge 22, Type (0, 0), BuildingBlock: CIFDUS_clean_linker_0, # of connection points: 2
#     Edge 23, Type (0, 0), BuildingBlock: CIFDUS_clean_linker_0, # of connection points: 2
#     Edge 24, Type (0, 0), BuildingBlock: CIFDUS_clean_linker_0, # of connection points: 2
#     Edge 25, Type (0, 0), BuildingBlock: CIFDUS_clean_linker_0, # of connection points: 2
#     Edge 26, Type (0, 0), BuildingBlock: CIFDUS_clean_linker_0, # of connection points: 2
#     Edge 27, Type (0, 0), BuildingBlock: CIFDUS_clean_linker_0, # of connection points: 2
#     Edge 28, Type (0, 0), BuildingBlock: CIFDUS_clean_linker_0, # of connection points: 2
#     Edge 29, Type (0, 0), BuildingBlock: CIFDUS_clean_linker_0, # of connection points: 2
#     Edge 30, Type (0, 0), BuildingBlock: CIFDUS_clean_linker_0, # of connection points: 2
#     Edge 31, Type (0, 0), BuildingBlock: CIFDUS_clean_linker_0, # of connection points: 2
#     Edge 32, Type (0, 0), BuildingBlock: CIFDUS_clean_linker_0, # of connection points: 2
#     Edge 33, Type (0, 0), BuildingBlock: CIFDUS_clean_linker_0, # of connection points: 2
#     Edge 34, Type (0, 0), BuildingBlock: CIFDUS_clean_linker_0, # of connection points: 2
#     Edge 35, Type (0, 0), BuildingBlock: CIFDUS_clean_linker_0, # of connection points: 2
#     Edge 36, Type (0, 0), BuildingBlock: CIFDUS_clean_linker_0, # of connection points: 2
#     Edge 37, Type (0, 0), BuildingBlock: CIFDUS_clean_linker_0, # of connection points: 2
#     Edge 38, Type (0, 0), BuildingBlock: CIFDUS_clean_linker_0, # of connection points: 2
#     Edge 39, Type (0, 0), BuildingBlock: CIFDUS_clean_linker_0, # of connection points: 2
#     Edge 40, Type (0, 0), BuildingBlock: CIFDUS_clean_linker_0, # of connection points: 2
#     Edge 41, Type (0, 0), BuildingBlock: CIFDUS_clean_linker_0, # of connection points: 2
#     Edge 42, Type (0, 0), BuildingBlock: CIFDUS_clean_linker_0, # of connection points: 2
#     Edge 43, Type (0, 0), BuildingBlock: CIFDUS_clean_linker_0, # of connection points: 2
#     Edge 44, Type (0, 0), BuildingBlock: CIFDUS_clean_linker_0, # of connection points: 2
#     Edge 45, Type (0, 0), BuildingBlock: CIFDUS_clean_linker_0, # of connection points: 2
#     Edge 46, Type (0, 0), BuildingBlock: CIFDUS_clean_linker_0, # of connection points: 2
#     Edge 47, Type (0, 0), BuildingBlock: CIFDUS_clean_linker_0, # of connection points: 2
# Relax obj value: 0.005
# Max RMSD: 0.055
# Mean RMSD: 0.055
data_MOF--net-neb--node1-ICAMEG_clean_sbu_1--edge1-CIFDUS_clean_linker_0
_symmetry_space_group_name_H-M    P1
_symmetry_Int_Tables_number       1
_symmetry_cell_setting            triclinic
loop_
_symmetry_equiv_pos_as_xyz
'x, y, z'
_cell_length_a     36.559391
_cell_length_b     21.729505
_cell_length_c     73.133627
_cell_angle_alpha  90.233588
_cell_angle_beta   102.04769
_cell_angle_gamma 89.846946
loop_
_atom_site_label
_atom_site_type_symbol
_atom_site_fract_x
_atom_site_fract_y
_atom_site_fract_z
_atom_type_partial_charge
Co0 Co 0.15563 0.11141 0.42842 0.0
Co1 Co 0.08562 0.19201 0.44206 0.0
O2 O 0.10515 0.11513 0.43368 0.0
C3 C 0.10834 0.02287 0.40079 0.0
O4 O 0.07749 0.04095 0.40568 0.0
C5 C 0.06511 0.1017 0.46899 0.0
O6 O 0.0999 0.08222 0.47291 0.0
O7 O 0.12872 0.19539 0.46373 0.0
O8 O 0.17475 0.17286 0.44883 0.0
H9 H 0.09587 0.40886 0.46672 0.0
H10 H 0.11723 0.9979 0.43761 0.0
O11 O 0.13957 0.04822 0.40792 0.0
H12 H 0.23723 1.00469 0.48317 0.0
H13 H 0.26804 0.00688 0.41226 0.0
H14 H 0.21258 0.20538 0.42513 0.0
H15 H 0.22096 0.08561 0.45937 0.0
H16 H 0.20528 0.01084 0.41963 0.0
O17 O 0.05543 0.14438 0.45709 0.0
H18 H 0.11926 0.31223 0.45554 0.0
H19 H 0.01079 0.23371 0.44762 0.0
H20 H 0.27561 0.2034 0.41804 0.0
H21 H 0.1326 0.91577 0.46099 0.0
H22 H 0.30374 0.10362 0.41153 0.0
H23 H 0.19299 0.91875 0.48405 0.0
O24 O 0.14241 0.17968 0.4099 0.0
H25 H 0.97805 0.08984 0.39861 0.0
H26 H 0.05047 0.28159 0.41264 0.0
H27 H 0.99812 0.27733 0.3853 0.0
H28 H 0.96141 0.18099 0.37815 0.0
H29 H 0.03094 0.09587 0.42571 0.0
H30 H 0.9863 0.32932 0.45888 0.0
H31 H 0.02893 0.41786 0.46845 0.0
O32 O 0.11439 0.24267 0.42706 0.0
C33 C 0.16326 0.19425 0.46294 0.0
C34 C 0.07699 0.37067 0.46254 0.0
C35 C 0.01551 0.326 0.45816 0.0
N36 N 0.06638 0.26752 0.45078 0.0
C37 C 0.09006 0.31587 0.45615 0.0
C38 C 0.02957 0.27191 0.45183 0.0
C39 C 0.03944 0.37567 0.46352 0.0
C40 C 0.14384 0.99917 0.44729 0.0
N41 N 0.16846 0.04599 0.44675 0.0
C42 C 0.15228 0.95265 0.46064 0.0
C43 C 0.18611 0.95443 0.47361 0.0
C44 C 0.21094 1.00262 0.47312 0.0
C45 C 0.20154 0.04833 0.45958 0.0
C46 C 0.25609 0.05064 0.41508 0.0
C47 C 0.22468 0.16174 0.4224 0.0
C48 C 0.22049 0.05322 0.4192 0.0
N49 N 0.2053 0.1083 0.42289 0.0
C50 C 0.26036 0.16092 0.41835 0.0
C51 C 0.27612 0.10493 0.41469 0.0
C52 C 0.13047 0.23285 0.41343 0.0
C53 C 0.99385 0.13208 0.40157 0.0
C54 C 0.03493 0.23925 0.40953 0.0
C55 C 1.00516 0.23725 0.39407 0.0
C56 C 0.98455 0.18321 0.39009 0.0
N57 N 0.04396 0.18883 0.42071 0.0
C58 C 0.02379 0.13579 0.41691 0.0
Co59 Co 0.08091 0.06632 0.82213 0.0
Co60 Co 0.1465 0.15502 0.80701 0.0
O61 O 0.12963 0.07525 0.81496 0.0
C62 C 0.13363 0.98093 0.84848 0.0
O63 O 0.16215 0.9925 0.84073 0.0
C64 C 0.16813 0.06377 0.77959 0.0
O65 O 0.13787 0.03126 0.77945 0.0
O66 O 0.10004 0.16177 0.78707 0.0
O67 O 0.05744 0.12655 0.80248 0.0
H68 H 0.12978 0.37629 0.78723 0.0
H69 H 0.12062 0.95504 0.81143 0.0
O70 O 0.10183 1.00605 0.84251 0.0
H71 H 0.99658 0.95455 0.76927 0.0
H72 H 0.97682 0.95056 0.84225 0.0
H73 H 0.02201 0.15447 0.82764 0.0
H74 H 0.01373 0.03651 0.79281 0.0
H75 H 0.0372 0.96089 0.83256 0.0
O76 O 0.174 0.1131 0.78922 0.0
H77 H 0.11006 0.27621 0.79762 0.0
H78 H 0.2183 0.20227 0.79905 0.0
H79 H 0.96134 0.14613 0.83712 0.0
H80 H 0.10441 0.87178 0.78839 0.0
H81 H 0.93837 0.0436 0.84451 0.0
H82 H 0.04198 0.87108 0.76701 0.0
O83 O 0.09353 0.13424 0.8407 0.0
H84 H 0.25917 0.04635 0.84419 0.0
H85 H 0.18701 0.23981 0.83674 0.0
H86 H 0.24314 0.23121 0.86195 0.0
H87 H 0.27977 0.13395 0.86578 0.0
H88 H 0.20253 0.05673 0.81931 0.0
H89 H 0.23908 0.30142 0.78854 0.0
H90 H 0.19472 0.3894 0.78262 0.0
O91 O 0.12118 0.20105 0.82475 0.0
C92 C 0.06621 0.1557 0.78892 0.0
C93 C 0.14939 0.33833 0.78978 0.0
C94 C 0.21071 0.29628 0.79049 0.0
N95 N 0.163 0.23339 0.79898 0.0
C96 C 0.1384 0.28153 0.79569 0.0
C97 C 0.19873 0.24015 0.79638 0.0
C98 C 0.18581 0.34563 0.78719 0.0
C99 C 0.09318 0.95471 0.80256 0.0
N100 N 0.068 1.00023 0.80387 0.0
C101 C 0.08424 0.90756 0.78935 0.0
C102 C 0.04926 0.90729 0.77732 0.0
C103 C 0.0238 0.9541 0.77858 0.0
C104 C 0.03374 1.0005 0.79195 0.0
C105 C 0.9865 0.99548 0.83904 0.0
C106 C 0.01212 0.10963 0.83072 0.0
C107 C 0.02071 1.00164 0.83358 0.0
N108 N 0.03301 0.0582 0.8294 0.0
C109 C 0.97778 0.10522 0.83613 0.0
C110 C 0.96493 0.04769 0.84029 0.0
C111 C 0.10557 0.18795 0.83829 0.0
C112 C 0.24345 0.08896 0.84268 0.0
C113 C 0.20246 0.19711 0.83843 0.0
C114 C 0.2344 0.19263 0.85268 0.0
C115 C 0.25496 0.13809 0.8548 0.0
N116 N 0.19128 0.14868 0.82662 0.0
C117 C 0.21137 0.09515 0.82859 0.0
Co118 Co 0.84603 0.93986 0.57049 0.0
Co119 Co 0.91605 0.85215 0.55886 0.0
O120 O 0.89662 0.9315 0.56552 0.0
C121 C 0.89536 0.02661 0.5976 0.0
O122 O 0.92546 1.00566 0.5926 0.0
C123 C 0.93561 0.93565 0.52999 0.0
O124 O 0.90093 0.95569 0.5262 0.0
O125 O 0.87262 0.84358 0.53752 0.0
O126 O 0.82613 0.87656 0.55083 0.0
H127 H 0.90586 0.62924 0.53997 0.0
H128 H 0.88695 0.0496 0.56062 0.0
O129 O 0.86324 1.00438 0.59046 0.0
H130 H 0.7685 0.04315 0.5139 0.0
H131 H 0.7355 0.05554 0.58464 0.0
H132 H 0.78678 0.85104 0.57452 0.0
H133 H 0.78234 0.96492 0.53868 0.0
H134 H 0.79848 0.04547 0.57777 0.0
O135 O 0.94559 0.89476 0.54245 0.0
H136 H 0.88256 0.72925 0.54884 0.0
H137 H 0.99057 0.80737 0.55373 0.0
H138 H 0.72355 0.85908 0.58117 0.0
H139 H 0.87404 0.12901 0.53625 0.0
H140 H 0.69751 0.96191 0.5863 0.0
H141 H 0.81444 0.12617 0.51261 0.0
O142 O 0.85697 0.87404 0.58979 0.0
H143 H 0.02494 0.96285 0.59871 0.0
H144 H 0.95205 0.77054 0.59035 0.0
H145 H 1.00514 0.78095 0.61714 0.0
H146 H 0.04211 0.87762 0.62144 0.0
H147 H 0.97123 0.95084 0.57227 0.0
H148 H 0.01496 0.70832 0.54477 0.0
H149 H 0.97252 0.61829 0.53789 0.0
O150 O 0.88786 0.80673 0.57528 0.0
C151 C 0.83795 0.84831 0.53784 0.0
C152 C 0.92465 0.66808 0.54298 0.0
C153 C 0.98587 0.71249 0.54565 0.0
N154 N 0.93521 0.77403 0.55192 0.0
C155 C 0.91163 0.72482 0.54804 0.0
C156 C 0.97187 0.76852 0.55067 0.0
C157 C 0.96205 0.66199 0.5418 0.0
C158 C 0.86068 0.04846 0.55067 0.0
N159 N 0.83515 1.00322 0.55141 0.0
C160 C 0.85364 0.0934 0.53676 0.0
C161 C 0.82025 0.09169 0.52347 0.0
C162 C 0.79446 0.04514 0.52419 0.0
C163 C 0.80249 1.00095 0.53828 0.0
C164 C 0.74652 0.01048 0.58241 0.0
C165 C 0.77558 0.89598 0.57662 0.0
C166 C 0.78221 1.00447 0.57856 0.0
N167 N 0.79622 0.94772 0.57562 0.0
C168 C 0.73979 0.90023 0.58044 0.0
C169 C 0.72521 0.95794 0.58333 0.0
C170 C 0.86978 0.8202 0.58791 0.0
C171 C 0.00901 0.92055 0.59702 0.0
C172 C 0.9676 0.81308 0.59225 0.0
C173 C 0.99783 0.81855 0.60739 0.0
C174 C 0.0186 0.87274 0.60977 0.0
N175 N 0.95821 0.86031 0.57984 0.0
C176 C 0.9786 0.91341 0.58204 0.0
Co177 Co 0.92372 0.92759 0.1844 0.0
Co178 Co 0.85387 0.84507 0.19708 0.0
O179 O 0.87313 0.92181 0.18904 0.0
C180 C 0.8808 0.98545 0.14931 0.0
O181 O 0.86278 0.93354 0.14483 0.0
C182 C 0.83348 0.93642 0.22398 0.0
O183 O 0.86825 0.95581 0.22756 0.0
O184 O 0.89696 0.84058 0.2188 0.0
O185 O 0.94356 0.86717 0.20478 0.0
H186 H 0.86372 0.62742 0.2206 0.0
H187 H 0.88307 0.04077 0.19131 0.0
O188 O 0.90554 0.98985 0.16434 0.0
H189 H 0.99848 0.03961 0.24026 0.0
H190 H 0.03386 0.04025 0.16929 0.0
H191 H 0.98369 0.83783 0.18176 0.0
H192 H 0.98608 0.95665 0.2167 0.0
H193 H 0.97064 0.03153 0.1759 0.0
O194 O 0.8236 0.89286 0.2123 0.0
H195 H 0.8873 0.72416 0.2099 0.0
H196 H 0.77902 0.80389 0.20244 0.0
H197 H 0.04718 0.84455 0.17539 0.0
H198 H 0.89456 0.125 0.21449 0.0
H199 H 0.07266 0.94633 0.16909 0.0
H200 H 0.95257 0.12467 0.23923 0.0
O201 O 0.91322 0.85805 0.16599 0.0
H202 H 0.74949 0.95139 0.15282 0.0
H203 H 0.81797 0.75597 0.16759 0.0
H204 H 0.76651 0.76194 0.13985 0.0
H205 H 0.73181 0.86017 0.13233 0.0
H206 H 0.80135 0.94352 0.18035 0.0
H207 H 0.75433 0.70818 0.21323 0.0
H208 H 0.79678 0.61898 0.22232 0.0
O209 O 0.88277 0.79484 0.18186 0.0
C210 C 0.93167 0.84311 0.21834 0.0
C211 C 0.84492 0.66589 0.21662 0.0
C212 C 0.78354 0.71125 0.21251 0.0
N213 N 0.83451 0.76946 0.20541 0.0
C214 C 0.85809 0.72075 0.2105 0.0
C215 C 0.7977 0.76539 0.20646 0.0
C216 C 0.80737 0.66121 0.2176 0.0
C217 C 0.90854 0.04059 0.20193 0.0
N218 N 0.93394 0.99396 0.20259 0.0
C219 C 0.91483 0.08829 0.21506 0.0
C220 C 0.94736 0.08803 0.22895 0.0
C221 C 0.97311 0.0403 0.22955 0.0
C222 C 0.96588 0.99334 0.21619 0.0
C223 C 0.02309 0.99565 0.17203 0.0
C224 C 0.99464 0.88232 0.17912 0.0
C225 C 0.98727 0.99039 0.17574 0.0
N226 N 0.97357 0.93425 0.17933 0.0
C227 C 0.03058 0.88582 0.17548 0.0
C228 C 0.04485 0.94294 0.17193 0.0
C229 C 0.90055 0.80501 0.1689 0.0
C230 C 0.76431 0.90829 0.15598 0.0
C231 C 0.80306 0.79892 0.1644 0.0
C232 C 0.7739 0.80199 0.14869 0.0
C233 C 0.75444 0.8571 0.14448 0.0
N234 N 0.81249 0.84928 0.17565 0.0
C235 C 0.79361 0.90351 0.17159 0.0
Co236 Co 0.16932 0.56733 0.93179 0.0
Co237 Co 0.10383 0.65808 0.9465 0.0
O238 O 0.12034 0.57782 0.93852 0.0
C239 C 0.11685 0.48225 0.90508 0.0
O240 O 0.08806 0.49445 0.9126 0.0
C241 C 0.0842 0.57188 0.97517 0.0
O242 O 0.11701 0.54504 0.97717 0.0
O243 O 0.14981 0.66397 0.96675 0.0
O244 O 0.19267 0.62701 0.95167 0.0
H245 H 0.12125 0.87917 0.9668 0.0
H246 H 0.12764 0.45896 0.94245 0.0
O247 O 0.1486 0.5072 0.91122 0.0
H248 H 0.25135 0.45364 0.98487 0.0
H249 H 0.27357 0.44822 0.91243 0.0
H250 H 0.22927 0.65366 0.92694 0.0
H251 H 0.23584 0.53511 0.96121 0.0
H252 H 0.21272 0.46045 0.92157 0.0
O253 O 0.07578 0.61661 0.96388 0.0
H254 H 0.14074 0.77859 0.95632 0.0
H255 H 0.03199 0.70676 0.95422 0.0
H256 H 0.29044 0.64341 0.91804 0.0
H257 H 0.14213 0.37634 0.96564 0.0
H258 H 0.31296 0.5401 0.9107 0.0
H259 H 0.20441 0.37318 0.98715 0.0
O260 O 0.15776 0.63536 0.91329 0.0
H261 H 0.99119 0.55165 0.9085 0.0
H262 H 0.06452 0.74346 0.91676 0.0
H263 H 0.00888 0.73582 0.89121 0.0
H264 H 0.97168 0.63938 0.88698 0.0
H265 H 0.04735 0.56108 0.93374 0.0
H266 H 0.01142 0.80643 0.96482 0.0
H267 H 0.05616 0.8936 0.97111 0.0
O268 O 0.12997 0.70322 0.92909 0.0
C269 C 0.18372 0.65637 0.96523 0.0
C270 C 0.10147 0.84158 0.96407 0.0
C271 C 0.03985 0.80073 0.96298 0.0
N272 N 0.08752 0.73684 0.9546 0.0
C273 C 0.11233 0.78452 0.9581 0.0
C274 C 0.05171 0.74431 0.95705 0.0
C275 C 0.06496 0.84962 0.9665 0.0
C276 C 0.15502 0.45751 0.95136 0.0
N277 N 0.18108 0.50127 0.95002 0.0
C278 C 0.16299 0.41074 0.96466 0.0
C279 C 0.19787 0.40909 0.97676 0.0
C280 C 0.2242 0.45421 0.97549 0.0
C281 C 0.21522 0.50028 0.96203 0.0
C282 C 0.26409 0.49347 0.91563 0.0
C283 C 0.23896 0.60849 0.92388 0.0
C284 C 0.22961 0.50071 0.92076 0.0
N285 N 0.21755 0.55768 0.92493 0.0
C286 C 0.27358 0.603 0.9188 0.0
C287 C 0.28619 0.54503 0.91467 0.0
C288 C 0.14587 0.68941 0.91567 0.0
C289 C 0.00718 0.59388 0.91019 0.0
C290 C 0.04881 0.70112 0.91489 0.0
C291 C 0.01716 0.69718 0.90046 0.0
C292 C 0.99628 0.6431 0.8981 0.0
N293 N 0.05942 0.65258 0.92665 0.0
C294 C 0.03899 0.59953 0.92447 0.0
Co295 Co 0.1119 0.61156 0.32408 0.0
Co296 Co 0.18567 0.68008 0.30935 0.0
O297 O 0.16156 0.60898 0.31803 0.0
C298 C 0.12692 0.55747 0.36206 0.0
O299 O 0.1133 0.60864 0.36759 0.0
C300 C 0.19104 0.58569 0.28009 0.0
O301 O 0.15526 0.57393 0.27836 0.0
O302 O 0.14011 0.69725 0.28957 0.0
O303 O 0.09293 0.66936 0.3031 0.0
H304 H 0.19205 0.89898 0.28841 0.0
H305 H 0.14677 0.49126 0.31853 0.0
O306 O 0.13022 0.552 0.34511 0.0
H307 H 0.02923 0.4976 0.27104 0.0
H308 H 0.99869 0.51755 0.34223 0.0
H309 H 0.05693 0.70981 0.32694 0.0
H310 H 0.04673 0.58395 0.29306 0.0
H311 H 0.06105 0.51594 0.33432 0.0
O312 O 0.20671 0.62634 0.29167 0.0
H313 H 0.16276 0.80891 0.2999 0.0
H314 H 0.25995 0.70177 0.29953 0.0
H315 H 0.99451 0.7135 0.33473 0.0
H316 H 0.1301 0.4036 0.29691 0.0
H317 H 0.96498 0.61686 0.34246 0.0
H318 H 0.071 0.40649 0.27291 0.0
O319 O 0.12649 0.68424 0.34107 0.0
H320 H 0.28406 0.5439 0.34729 0.0
H321 H 0.23797 0.75689 0.33711 0.0
H322 H 0.29321 0.73553 0.36202 0.0
H323 H 0.31671 0.6283 0.36719 0.0
H324 H 0.22859 0.56741 0.32273 0.0
H325 H 0.29013 0.79048 0.28786 0.0
H326 H 0.25619 0.89007 0.28231 0.0
O327 O 0.16639 0.73562 0.32711 0.0
C328 C 0.10538 0.69563 0.29008 0.0
C329 C 0.20717 0.85589 0.29083 0.0
C330 C 0.26219 0.79496 0.29049 0.0
N331 N 0.2097 0.75025 0.30051 0.0
C332 C 0.19077 0.80478 0.29739 0.0
C333 C 0.2449 0.74482 0.29704 0.0
C334 C 0.24314 0.85084 0.28739 0.0
C335 C 0.1208 0.49262 0.30826 0.0
N336 N 0.09764 0.54253 0.30717 0.0
C337 C 0.1116 0.44294 0.29599 0.0
C338 C 0.07847 0.44464 0.28252 0.0
C339 C 0.05503 0.49576 0.28145 0.0
C340 C 0.06515 0.54461 0.29393 0.0
C341 C 0.01127 0.55997 0.3389 0.0
C342 C 0.04429 0.66757 0.3303 0.0
C343 C 0.04659 0.55937 0.33443 0.0
N344 N 0.06267 0.61278 0.33022 0.0
C345 C 0.00892 0.66994 0.33469 0.0
C346 C 0.99237 0.61571 0.33903 0.0
C347 C 0.14587 0.73186 0.33922 0.0
C348 C 0.27405 0.59079 0.34521 0.0
C349 C 0.24765 0.71013 0.33948 0.0
C350 C 0.27913 0.6983 0.35351 0.0
C351 C 0.29233 0.63815 0.35638 0.0
N352 N 0.2298 0.66347 0.32861 0.0
C353 C 0.24265 0.6044 0.33132 0.0
Co354 Co 0.86803 0.42547 0.07969 0.0
Co355 Co 0.92659 0.32738 0.06275 0.0
O356 O 0.91566 0.40828 0.07244 0.0
C357 C 0.89211 0.48091 0.11719 0.0
O358 O 0.87481 0.43456 0.12313 0.0
C359 C 0.94963 0.41452 0.03552 0.0
O360 O 0.91754 0.44342 0.03397 0.0
O361 O 0.88018 0.33198 0.04283 0.0
O362 O 0.84026 0.36986 0.05953 0.0
H363 H 0.89519 0.11347 0.03811 0.0
H364 H 0.91468 0.52955 0.07204 0.0
O365 O 0.89446 0.48306 0.10001 0.0
H366 H 0.79457 0.55296 0.02711 0.0
H367 H 0.77072 0.56061 0.0995 0.0
H368 H 0.80472 0.34839 0.08551 0.0
H369 H 0.80425 0.46758 0.04971 0.0
H370 H 0.83028 0.53916 0.0899 0.0
O371 O 0.95678 0.36775 0.04611 0.0
H372 H 0.88237 0.21432 0.051 0.0
H373 H 0.99446 0.27004 0.05307 0.0
H374 H 0.74482 0.36783 0.09498 0.0
H375 H 0.90603 0.6161 0.04982 0.0
H376 H 0.72749 0.47458 0.10207 0.0
H377 H 0.84565 0.62811 0.02711 0.0
O378 O 0.87692 0.35402 0.09722 0.0
H379 H 0.04516 0.40922 0.10287 0.0
H380 H 0.96019 0.23112 0.09026 0.0
H381 H 0.01624 0.22529 0.11566 0.0
H382 H 0.05927 0.3147 0.12206 0.0
H383 H 0.98855 0.41335 0.07771 0.0
H384 H 0.00842 0.16986 0.04008 0.0
H385 H 0.95861 0.09067 0.03256 0.0
O386 O 0.89785 0.28375 0.07933 0.0
C387 C 0.84699 0.34179 0.04521 0.0
C388 C 0.91715 0.14755 0.04136 0.0
C389 C 0.98068 0.17924 0.04244 0.0
N390 N 0.93764 0.24805 0.05284 0.0
C391 C 0.91008 0.20475 0.0487 0.0
C392 C 0.97257 0.23597 0.04974 0.0
C393 C 0.95273 0.13482 0.03823 0.0
C394 C 0.8882 0.53483 0.06232 0.0
N395 N 0.85995 0.49373 0.06225 0.0
C396 C 0.88352 0.58377 0.04972 0.0
C397 C 0.84966 0.59042 0.03697 0.0
C398 C 0.821 0.54824 0.03695 0.0
C399 C 0.8267 0.49984 0.04974 0.0
C400 C 0.77794 0.5139 0.09644 0.0
C401 C 0.79735 0.39498 0.08853 0.0
C402 C 0.81163 0.50146 0.091 0.0
N403 N 0.82095 0.44255 0.0871 0.0
C404 C 0.7634 0.40571 0.0939 0.0
C405 C 0.7537 0.46561 0.09788 0.0
C406 C 0.88471 0.29863 0.09357 0.0
C407 C 0.02668 0.36991 0.10018 0.0
C408 C 0.97867 0.27035 0.093 0.0
C409 C 0.01043 0.2667 0.10738 0.0
C410 C 0.03456 0.31688 0.11096 0.0
N411 N 0.9712 0.32245 0.08244 0.0
C412 C 0.99465 0.37191 0.08592 0.0
Co413 Co 0.91239 0.43053 0.67674 0.0
Co414 Co 0.84258 0.3698 0.69633 0.0
O415 O 0.86562 0.43842 0.68556 0.0
C416 C 0.86445 0.51965 0.6498 0.0
O417 O 0.83668 0.51646 0.65856 0.0
C418 C 0.8229 0.42566 0.73063 0.0
O419 O 0.83842 0.37811 0.74032 0.0
O420 O 0.89041 0.35482 0.71513 0.0
O421 O 0.93302 0.37415 0.6978 0.0
H422 H 0.83865 0.15739 0.72273 0.0
H423 H 0.88271 0.55267 0.68652 0.0
O424 O 0.894 0.4875 0.65507 0.0
H425 H 0.01229 0.54257 0.72258 0.0
H426 H 0.01947 0.50531 0.6491 0.0
H427 H 0.96236 0.32551 0.67304 0.0
H428 H 0.98575 0.45677 0.70206 0.0
H429 H 0.9615 0.5167 0.66101 0.0
O430 O 0.82477 0.43086 0.71347 0.0
H431 H 0.86676 0.2441 0.70897 0.0
H432 H 0.76825 0.35044 0.70673 0.0
H433 H 0.02053 0.31223 0.66142 0.0
H434 H 0.90827 0.63973 0.70657 0.0
H435 H 0.04948 0.40255 0.64933 0.0
H436 H 0.97358 0.63526 0.72485 0.0
O437 O 0.89196 0.35865 0.66082 0.0
H438 H 0.73853 0.50011 0.66005 0.0
H439 H 0.78945 0.28996 0.66988 0.0
H440 H 0.73201 0.30785 0.64608 0.0
H441 H 0.70602 0.41363 0.64109 0.0
H442 H 0.79633 0.48023 0.68341 0.0
H443 H 0.73907 0.26479 0.72043 0.0
H444 H 0.77435 0.16742 0.72856 0.0
O445 O 0.85906 0.30885 0.67891 0.0
C446 C 0.92386 0.35236 0.71236 0.0
C447 C 0.82301 0.19962 0.71928 0.0
C448 C 0.76712 0.25987 0.71797 0.0
N449 N 0.8193 0.30245 0.70712 0.0
C450 C 0.83881 0.24893 0.7115 0.0
C451 C 0.7838 0.30821 0.71021 0.0
C452 C 0.78693 0.20526 0.72253 0.0
C453 C 0.91128 0.55039 0.69403 0.0
N454 N 0.93286 0.49986 0.69259 0.0
C455 C 0.92557 0.59987 0.70556 0.0
C456 C 0.96217 0.59729 0.71585 0.0
C457 C 0.98388 0.54533 0.71458 0.0
C458 C 0.96864 0.49677 0.7029 0.0
C459 C 0.00714 0.46562 0.65434 0.0
C460 C 0.97487 0.36513 0.6679 0.0
C461 C 0.97422 0.47172 0.66104 0.0
N462 N 0.95859 0.42184 0.66779 0.0
C463 C 0.00778 0.35728 0.66129 0.0
C464 C 0.02398 0.40796 0.65449 0.0
C465 C 0.87491 0.31103 0.66491 0.0
C466 C 0.74962 0.45383 0.66205 0.0
C467 C 0.77884 0.33619 0.66753 0.0
C468 C 0.74604 0.34601 0.65416 0.0
C469 C 0.73143 0.40532 0.6514 0.0
N470 N 0.7967 0.38401 0.67787 0.0
C471 C 0.78235 0.44222 0.6753 0.0
Co472 Co 0.67761 0.06318 0.93783 0.0
Co473 Co 0.6135 0.15251 0.95485 0.0
O474 O 0.62977 0.07262 0.94612 0.0
C475 C 0.62317 0.98121 0.91092 0.0
O476 O 0.59493 0.99375 0.91883 0.0
C477 C 0.58866 0.0578 0.9805 0.0
O478 O 0.60807 0.01364 0.97474 0.0
O479 O 0.66167 0.16089 0.97356 0.0
O480 O 0.7026 0.12148 0.9577 0.0
H481 H 0.63092 0.37497 0.97368 0.0
H482 H 0.63829 0.95104 0.94753 0.0
O483 O 0.65533 1.00464 0.91707 0.0
H484 H 0.76335 0.94578 0.98873 0.0
H485 H 0.77904 0.94694 0.91504 0.0
H486 H 0.73631 0.15065 0.93208 0.0
H487 H 0.7457 0.03006 0.96621 0.0
H488 H 0.71972 0.95764 0.92577 0.0
O489 O 0.5896 0.11232 0.97425 0.0
H490 H 0.64962 0.27457 0.96272 0.0
H491 H 0.54374 0.19941 0.96548 0.0
H492 H 0.79596 0.1419 0.92158 0.0
H493 H 0.65495 0.86544 0.96956 0.0
H494 H 0.81769 0.03947 0.91296 0.0
H495 H 0.71789 0.86237 0.99046 0.0
O496 O 0.6645 0.13254 0.91994 0.0
H497 H 0.49898 0.04136 0.92023 0.0
H498 H 0.5687 0.2367 0.92654 0.0
H499 H 0.5102 0.22758 0.90287 0.0
H500 H 0.47475 0.12941 0.89965 0.0
H501 H 0.55789 0.0522 0.94347 0.0
H502 H 0.52407 0.29888 0.97663 0.0
H503 H 0.56774 0.38762 0.98073 0.0
O504 O 0.63551 0.19766 0.93602 0.0
C505 C 0.69504 0.15249 0.97128 0.0
C506 C 0.61162 0.33668 0.97192 0.0
C507 C 0.55167 0.29395 0.9736 0.0
N508 N 0.59779 0.23114 0.96339 0.0
C509 C 0.62202 0.27971 0.96568 0.0
C510 C 0.56303 0.23765 0.96734 0.0
C511 C 0.57618 0.34373 0.97589 0.0
C512 C 0.66587 0.94984 0.95627 0.0
N513 N 0.69102 0.99548 0.95532 0.0
C514 C 0.6751 0.90131 0.96887 0.0
C515 C 0.71037 0.89968 0.98062 0.0
C516 C 0.73585 0.94647 0.97967 0.0
C517 C 0.72562 0.99428 0.96691 0.0
C518 C 0.7699 0.99181 0.91879 0.0
C519 C 0.74566 0.10585 0.92847 0.0
C520 C 0.73628 0.99819 0.92483 0.0
N521 N 0.72465 0.05469 0.92968 0.0
C522 C 0.77943 0.10121 0.92248 0.0
C523 C 0.79158 0.04374 0.91763 0.0
C524 C 0.65124 0.18546 0.92245 0.0
C525 C 0.5141 0.08446 0.92154 0.0
C526 C 0.5537 0.19366 0.92514 0.0
C527 C 0.52045 0.18887 0.91176 0.0
C528 C 0.50055 0.13382 0.90997 0.0
N529 N 0.5668 0.14512 0.9365 0.0
C530 C 0.54745 0.09099 0.93477 0.0
Co531 Co 0.61463 0.10978 0.32144 0.0
Co532 Co 0.68473 0.20102 0.31193 0.0
O533 O 0.66575 0.12142 0.31804 0.0
C534 C 0.62627 0.04205 0.3572 0.0
O535 O 0.60712 0.08635 0.36315 0.0
C536 C 0.70502 0.11737 0.28316 0.0
O537 O 0.67026 0.09794 0.27942 0.0
O538 O 0.64181 0.21055 0.29025 0.0
O539 O 0.59451 0.17197 0.3018 0.0
H540 H 0.67436 0.42472 0.29445 0.0
H541 H 0.65931 1.00145 0.31432 0.0
O542 O 0.63394 0.04585 0.34101 0.0
H543 H 0.54866 1.00273 0.26253 0.0
H544 H 0.50403 0.98366 0.33027 0.0
H545 H 0.55219 0.19319 0.32501 0.0
H546 H 0.55619 0.08178 0.28729 0.0
H547 H 0.56823 0.99946 0.32562 0.0
O548 O 0.71508 0.15877 0.29557 0.0
H549 H 0.65109 0.32422 0.30261 0.0
H550 H 0.75934 0.24627 0.30743 0.0
H551 H 0.48779 0.17946 0.3296 0.0
H552 H 0.65264 0.9211 0.28996 0.0
H553 H 0.46332 0.07408 0.33227 0.0
H554 H 0.59705 0.92152 0.26379 0.0
O555 O 0.62166 0.17692 0.34071 0.0
H556 H 0.79007 0.08657 0.35309 0.0
H557 H 0.72059 0.28261 0.34353 0.0
H558 H 0.77259 0.27097 0.37082 0.0
H559 H 0.80784 0.17245 0.3757 0.0
H560 H 0.7376 0.10001 0.32608 0.0
H561 H 0.78372 0.34581 0.29916 0.0
H562 H 0.74113 0.43598 0.29268 0.0
O563 O 0.6556 0.24521 0.32839 0.0
C564 C 0.60694 0.203 0.28964 0.0
C565 C 0.69322 0.38581 0.29729 0.0
C566 C 0.75458 0.3415 0.29991 0.0
N567 N 0.70387 0.27955 0.30561 0.0
C568 C 0.68022 0.32883 0.30196 0.0
C569 C 0.74059 0.28521 0.30453 0.0
C570 C 0.73068 0.39208 0.29628 0.0
C571 C 0.63481 1.00155 0.30311 0.0
N572 N 0.60806 0.04607 0.30233 0.0
C573 C 0.63128 0.95609 0.2893 0.0
C574 C 0.60013 0.95643 0.2746 0.0
C575 C 0.57298 1.00201 0.27388 0.0
C576 C 0.57747 0.04678 0.28792 0.0
C577 C 0.51436 0.02981 0.32911 0.0
C578 C 0.54175 0.14717 0.32614 0.0
C579 C 0.55069 0.03905 0.32648 0.0
N580 N 0.56396 0.09722 0.32502 0.0
C581 C 0.50525 0.13969 0.32874 0.0
C582 C 0.49154 0.08056 0.33024 0.0
C583 C 0.63519 0.23086 0.33993 0.0
C584 C 0.77498 0.12977 0.3511 0.0
C585 C 0.73563 0.23948 0.34561 0.0
C586 C 0.76514 0.23322 0.36106 0.0
C587 C 0.78491 0.17795 0.36378 0.0
N588 N 0.72614 0.1921 0.33319 0.0
C589 C 0.74531 0.13769 0.3358 0.0
Co590 Co 0.3446 0.92806 0.07769 0.0
Co591 Co 0.40849 0.83914 0.06137 0.0
O592 O 0.39287 0.91967 0.06993 0.0
C593 C 0.39601 0.01851 0.10337 0.0
O594 O 0.42493 0.00865 0.09572 0.0
C595 C 0.43846 0.93374 0.0375 0.0
O596 O 0.41805 0.97793 0.0425 0.0
O597 O 0.36218 0.83611 0.04143 0.0
O598 O 0.32082 0.86629 0.05834 0.0
H599 H 0.38748 0.6197 0.03975 0.0
H600 H 0.38167 0.03991 0.0661 0.0
O601 O 0.3652 0.99026 0.09762 0.0
H602 H 0.25602 0.03546 0.02551 0.0
H603 H 0.2403 0.04138 0.09894 0.0
H604 H 0.28784 0.83835 0.08434 0.0
H605 H 0.2755 0.95512 0.04918 0.0
H606 H 0.29993 0.03263 0.08841 0.0
O607 O 0.43648 0.87916 0.04354 0.0
H608 H 0.36973 0.72021 0.05103 0.0
H609 H 0.47928 0.78842 0.05292 0.0
H610 H 0.22788 0.84512 0.09463 0.0
H611 H 0.36319 0.12163 0.0429 0.0
H612 H 0.20375 0.94719 0.10202 0.0
H613 H 0.29992 0.11983 0.0223 0.0
O614 O 0.35979 0.86178 0.09649 0.0
H615 H 0.52208 0.94003 0.10061 0.0
H616 H 0.44701 0.75011 0.09008 0.0
H617 H 0.50293 0.75384 0.11557 0.0
H618 H 0.54101 0.84923 0.12094 0.0
H619 H 0.46574 0.93455 0.07543 0.0
H620 H 0.49809 0.68873 0.04152 0.0
H621 H 0.45207 0.60343 0.03492 0.0
O622 O 0.38217 0.79352 0.07865 0.0
C623 C 0.32873 0.84052 0.04393 0.0
C624 C 0.40781 0.65647 0.04262 0.0
C625 C 0.46987 0.69524 0.04359 0.0
N626 N 0.42344 0.76017 0.05271 0.0
C627 C 0.39794 0.71351 0.04904 0.0
C628 C 0.459 0.75167 0.04999 0.0
C629 C 0.44404 0.64739 0.03989 0.0
C630 C 0.35398 0.03899 0.0575 0.0
N631 N 0.32969 0.99285 0.05928 0.0
C632 C 0.34371 0.08534 0.04423 0.0
C633 C 0.30825 0.08423 0.03265 0.0
C634 C 0.28364 0.03691 0.03443 0.0
C635 C 0.29492 0.99135 0.04785 0.0
C636 C 0.2505 0.99664 0.09573 0.0
C637 C 0.27744 0.88298 0.08742 0.0
C638 C 0.28431 0.99136 0.08982 0.0
N639 N 0.29728 0.93503 0.08564 0.0
C640 C 0.2435 0.88651 0.09329 0.0
C641 C 0.22999 0.94379 0.09745 0.0
C642 C 0.36998 0.80748 0.09322 0.0
C643 C 0.50582 0.8981 0.09836 0.0
C644 C 0.46334 0.7919 0.09233 0.0
C645 C 0.49504 0.79366 0.10678 0.0
C646 C 0.51639 0.84718 0.10978 0.0
N647 N 0.45323 0.84194 0.08111 0.0
C648 C 0.47394 0.89464 0.08404 0.0
Co649 Co 0.39754 0.91073 0.68299 0.0
Co650 Co 0.33547 0.8132 0.69734 0.0
O651 O 0.34897 0.89456 0.68934 0.0
C652 C 0.37709 0.97548 0.64679 0.0
O653 O 0.39507 0.9313 0.64003 0.0
C654 C 0.31205 0.9001 0.72505 0.0
O655 O 0.34299 0.93156 0.72603 0.0
O656 O 0.38187 0.81123 0.71749 0.0
O657 O 0.42349 0.85151 0.70233 0.0
H658 H 0.36082 0.5936 0.71739 0.0
H659 H 0.35216 0.01622 0.69156 0.0
O660 O 0.37268 0.97202 0.66361 0.0
H661 H 0.47045 0.02754 0.7384 0.0
H662 H 0.49874 0.04544 0.6672 0.0
H663 H 0.46019 0.83251 0.6765 0.0
H664 H 0.46041 0.94562 0.71449 0.0
H665 H 0.43807 0.02462 0.6756 0.0
O666 O 0.30605 0.85206 0.71482 0.0
H667 H 0.37654 0.69593 0.70682 0.0
H668 H 0.2658 0.75823 0.70553 0.0
H669 H 0.52111 0.85129 0.66814 0.0
H670 H 0.36131 0.09953 0.71505 0.0
H671 H 0.54074 0.9584 0.66341 0.0
H672 H 0.42075 0.10543 0.73874 0.0
O673 O 0.38892 0.84194 0.66425 0.0
H674 H 0.22031 0.91129 0.65885 0.0
H675 H 0.29834 0.72408 0.66809 0.0
H676 H 0.24233 0.72702 0.64262 0.0
H677 H 0.20276 0.82109 0.63791 0.0
H678 H 0.27685 0.90657 0.68401 0.0
H679 H 0.24897 0.6567 0.71623 0.0
H680 H 0.29663 0.57345 0.72216 0.0
O681 O 0.36298 0.77107 0.67977 0.0
C682 C 0.41553 0.82111 0.71586 0.0
C683 C 0.33979 0.62946 0.71481 0.0
C684 C 0.27703 0.66491 0.71419 0.0
N685 N 0.3221 0.73298 0.70549 0.0
C686 C 0.3485 0.68749 0.7088 0.0
C687 C 0.28677 0.72239 0.7082 0.0
C688 C 0.30378 0.6182 0.71751 0.0
C689 C 0.37829 0.01887 0.70167 0.0
N690 N 0.40576 0.97617 0.70157 0.0
C691 C 0.38323 0.06598 0.715 0.0
C692 C 0.41655 0.06919 0.72832 0.0
C693 C 0.44443 0.02546 0.72815 0.0
C694 C 0.4385 0.97897 0.71462 0.0
C695 C 0.49051 0.99856 0.66923 0.0
C696 C 0.46852 0.87926 0.67449 0.0
C697 C 0.45619 0.98647 0.67399 0.0
N698 N 0.44555 0.92736 0.67655 0.0
C699 C 0.50306 0.88961 0.66975 0.0
C700 C 0.51406 0.94971 0.6671 0.0
C701 C 0.37879 0.78666 0.66648 0.0
C702 C 0.23729 0.87001 0.66077 0.0
C703 C 0.28147 0.76532 0.66605 0.0
C704 C 0.24968 0.76664 0.65164 0.0
C705 C 0.22748 0.8194 0.64902 0.0
N706 N 0.29086 0.81505 0.67756 0.0
C707 C 0.26929 0.86701 0.67503 0.0
Co708 Co 0.65851 0.62209 0.43069 0.0
Co709 Co 0.58573 0.6775 0.44884 0.0
O710 O 0.6101 0.61011 0.4379 0.0
C711 C 0.6166 0.52877 0.40254 0.0
O712 O 0.58716 0.5293 0.41018 0.0
C713 C 0.57865 0.57765 0.47602 0.0
O714 O 0.61483 0.56755 0.47877 0.0
O715 O 0.63104 0.68732 0.46919 0.0
O716 O 0.67556 0.67936 0.45237 0.0
H717 H 0.58053 0.88599 0.47821 0.0
H718 H 0.63112 0.49724 0.43921 0.0
O719 O 0.64438 0.56412 0.40863 0.0
H720 H 0.75664 0.51753 0.47928 0.0
H721 H 0.77268 0.55603 0.4071 0.0
H722 H 0.70614 0.73102 0.42849 0.0
H723 H 0.72994 0.60143 0.45814 0.0
H724 H 0.71282 0.54007 0.41686 0.0
O725 O 0.56341 0.61786 0.46426 0.0
H726 H 0.60977 0.80137 0.46382 0.0
H727 H 0.51042 0.69559 0.45789 0.0
H728 H 0.76613 0.74886 0.41905 0.0
H729 H 0.65692 0.41212 0.45988 0.0
H730 H 0.79983 0.66099 0.40825 0.0
H731 H 0.7202 0.42172 0.48018 0.0
O732 O 0.63768 0.69344 0.41447 0.0
H733 H 0.4844 0.55766 0.40665 0.0
H734 H 0.53781 0.76401 0.42239 0.0
H735 H 0.4829 0.75225 0.39658 0.0
H736 H 0.45574 0.64848 0.38859 0.0
H737 H 0.53957 0.57148 0.43226 0.0
H738 H 0.48021 0.7789 0.47235 0.0
H739 H 0.51528 0.87507 0.48257 0.0
O740 O 0.60612 0.73998 0.43373 0.0
C741 C 0.66469 0.69455 0.46727 0.0
C742 C 0.56493 0.84437 0.47378 0.0
C743 C 0.50865 0.78424 0.47051 0.0
N744 N 0.5618 0.74365 0.45992 0.0
C745 C 0.58132 0.7963 0.46559 0.0
C746 C 0.52595 0.73714 0.46237 0.0
C747 C 0.52833 0.83819 0.47624 0.0
C748 C 0.65891 0.50168 0.44755 0.0
N749 N 0.6793 0.55393 0.44687 0.0
C750 C 0.6733 0.45331 0.45945 0.0
C751 C 0.70873 0.45878 0.47087 0.0
C752 C 0.72919 0.51249 0.47037 0.0
C753 C 0.71388 0.55988 0.45831 0.0
C754 C 0.75827 0.59468 0.41179 0.0
C755 C 0.7207 0.69246 0.4239 0.0
C756 C 0.72428 0.58598 0.41727 0.0
N757 N 0.70603 0.63454 0.42333 0.0
C758 C 0.75463 0.70289 0.41853 0.0
C759 C 0.77351 0.65358 0.41245 0.0
C760 C 0.62153 0.74071 0.41963 0.0
C761 C 0.49598 0.60311 0.40999 0.0
C762 C 0.52641 0.71863 0.41889 0.0
C763 C 0.49518 0.7123 0.40432 0.0
C764 C 0.47994 0.65408 0.39985 0.0
N765 N 0.54202 0.66839 0.42877 0.0
C766 C 0.52718 0.61122 0.42449 0.0
Co767 Co 0.57881 0.56282 0.82973 0.0
Co768 Co 0.64504 0.64403 0.81286 0.0
O769 O 0.6269 0.56817 0.82225 0.0
C770 C 0.6319 0.48082 0.85669 0.0
O771 O 0.65976 0.49164 0.84843 0.0
C772 C 0.67316 0.59765 0.77936 0.0
O773 O 0.65613 0.64347 0.76936 0.0
O774 O 0.59812 0.6502 0.79299 0.0
O775 O 0.55551 0.61916 0.80906 0.0
H776 H 0.63364 0.86028 0.78826 0.0
H777 H 0.61856 0.45053 0.81967 0.0
O778 O 0.59997 0.50586 0.851 0.0
H779 H 0.49189 0.44119 0.78022 0.0
H780 H 0.47504 0.45685 0.8531 0.0
H781 H 0.52071 0.65447 0.8337 0.0
H782 H 0.50997 0.52704 0.80226 0.0
H783 H 0.535 0.46213 0.84277 0.0
O784 O 0.66981 0.59079 0.79625 0.0
H785 H 0.61144 0.76485 0.80045 0.0
H786 H 0.71859 0.6832 0.80477 0.0
H787 H 0.46043 0.65112 0.84374 0.0
H788 H 0.60152 0.36359 0.79808 0.0
H789 H 0.43722 0.55177 0.85354 0.0
H790 H 0.53774 0.3583 0.7781 0.0
O791 O 0.59253 0.63429 0.84682 0.0
H792 H 0.7571 0.53591 0.8511 0.0
H793 H 0.68732 0.73143 0.84121 0.0
H794 H 0.74365 0.72432 0.86633 0.0
H795 H 0.77911 0.62604 0.87137 0.0
H796 H 0.70022 0.54471 0.82637 0.0
H797 H 0.74196 0.77781 0.79266 0.0
H798 H 0.69935 0.86719 0.78429 0.0
O799 O 0.62127 0.69693 0.82993 0.0
C800 C 0.56426 0.64506 0.79495 0.0
C801 C 0.65247 0.82162 0.79183 0.0
C802 C 0.71326 0.77535 0.79431 0.0
N803 N 0.66361 0.71839 0.80326 0.0
C804 C 0.64004 0.76743 0.79872 0.0
C805 C 0.69986 0.7219 0.80117 0.0
C806 C 0.68934 0.82548 0.78962 0.0
C807 C 0.59058 0.44839 0.8114 0.0
N808 N 0.56509 0.49341 0.81274 0.0
C809 C 0.58115 0.39907 0.79902 0.0
C810 C 0.54541 0.3962 0.78777 0.0
C811 C 0.51969 0.44266 0.78896 0.0
C812 C 0.53013 0.49125 0.8015 0.0
C813 C 0.48482 0.50039 0.84883 0.0
C814 C 0.5107 0.61098 0.83782 0.0
C815 C 0.51882 0.50372 0.84303 0.0
N816 N 0.53123 0.5585 0.8375 0.0
C817 C 0.47659 0.60941 0.84355 0.0
C818 C 0.46361 0.55366 0.84907 0.0
C819 C 0.60542 0.68684 0.84367 0.0
C820 C 0.74186 0.57897 0.84907 0.0
C821 C 0.70213 0.68822 0.84349 0.0
C822 C 0.73425 0.68461 0.85765 0.0
C823 C 0.75417 0.62951 0.86045 0.0
N824 N 0.69008 0.63837 0.83241 0.0
C825 C 0.70962 0.58431 0.83503 0.0
Co826 Co 0.34565 0.39859 0.57423 0.0
Co827 Co 0.41724 0.34042 0.55575 0.0
O828 O 0.3943 0.40836 0.56712 0.0
C829 C 0.38978 0.48882 0.60264 0.0
O830 O 0.4188 0.48698 0.59471 0.0
C831 C 0.42631 0.44174 0.52952 0.0
O832 O 0.39035 0.4535 0.52704 0.0
O833 O 0.37189 0.33462 0.53532 0.0
O834 O 0.32734 0.3432 0.55211 0.0
H835 H 0.41789 0.1339 0.52462 0.0
H836 H 0.37556 0.5224 0.56623 0.0
O837 O 0.36119 0.45496 0.59666 0.0
H838 H 0.24945 0.50983 0.52636 0.0
H839 H 0.23307 0.46951 0.59836 0.0
H840 H 0.29568 0.29219 0.5757 0.0
H841 H 0.27462 0.4239 0.54702 0.0
H842 H 0.29326 0.48272 0.5887 0.0
O843 O 0.44096 0.39989 0.54084 0.0
H844 H 0.39044 0.2191 0.53966 0.0
H845 H 0.49219 0.31892 0.54665 0.0
H846 H 0.23531 0.27713 0.58502 0.0
H847 H 0.35131 0.60946 0.54606 0.0
H848 H 0.20358 0.36619 0.59646 0.0
H849 H 0.28775 0.60378 0.52586 0.0
O850 O 0.36501 0.3254 0.59001 0.0
H851 H 0.52128 0.4515 0.59893 0.0
H852 H 0.4627 0.24958 0.58161 0.0
H853 H 0.51769 0.25649 0.60758 0.0
H854 H 0.54743 0.358 0.61637 0.0
H855 H 0.46599 0.44255 0.57315 0.0
H856 H 0.52065 0.23498 0.53157 0.0
H857 H 0.48347 0.14151 0.5205 0.0
O858 O 0.39524 0.27809 0.57031 0.0
C859 C 0.33804 0.32899 0.53708 0.0
C860 C 0.43442 0.17431 0.52944 0.0
C861 C 0.49207 0.23106 0.53332 0.0
N862 N 0.43975 0.27377 0.54416 0.0
C863 C 0.41905 0.22267 0.538 0.0
C864 C 0.47577 0.27851 0.54182 0.0
C865 C 0.4712 0.17863 0.52711 0.0
C866 C 0.34763 0.51966 0.55797 0.0
N867 N 0.32622 0.46846 0.55846 0.0
C868 C 0.33412 0.56912 0.54634 0.0
C869 C 0.29853 0.56585 0.53497 0.0
C870 C 0.27704 0.5132 0.53525 0.0
C871 C 0.29147 0.46465 0.54705 0.0
C872 C 0.24661 0.43035 0.59339 0.0
C873 C 0.28199 0.33126 0.58057 0.0
C874 C 0.28078 0.43749 0.58797 0.0
N875 N 0.29793 0.38831 0.58155 0.0
C876 C 0.24783 0.32241 0.58587 0.0
C877 C 0.23007 0.37238 0.59231 0.0
C878 C 0.37989 0.27745 0.58444 0.0
C879 C 0.50856 0.40701 0.59524 0.0
C880 C 0.47524 0.29402 0.58545 0.0
C881 C 0.5065 0.29759 0.60012 0.0
C882 C 0.5232 0.35454 0.60503 0.0
N883 N 0.46101 0.34572 0.57594 0.0
C884 C 0.47728 0.40166 0.58065 0.0
Co885 Co 0.4248 0.43904 0.18541 0.0
Co886 Co 0.3532 0.35515 0.19681 0.0
O887 O 0.37438 0.43213 0.19016 0.0
C888 C 0.37944 0.49642 0.15117 0.0
O889 O 0.36068 0.44477 0.14768 0.0
C890 C 0.34198 0.44117 0.22667 0.0
O891 O 0.37758 0.45491 0.22879 0.0
O892 O 0.39771 0.34045 0.21734 0.0
O893 O 0.44488 0.37827 0.20547 0.0
H894 H 0.35558 0.13087 0.21348 0.0
H895 H 0.38347 0.55134 0.19252 0.0
O896 O 0.40596 0.50128 0.16547 0.0
H897 H 0.49823 0.54965 0.24189 0.0
H898 H 0.534 0.5553 0.17069 0.0
H899 H 0.48542 0.35094 0.18243 0.0
H900 H 0.48663 0.46777 0.21795 0.0
H901 H 0.47085 0.54456 0.17728 0.0
O902 O 0.3275 0.40126 0.21451 0.0
H903 H 0.38195 0.22824 0.20481 0.0
H904 H 0.27854 0.31926 0.20368 0.0
H905 H 0.54884 0.35965 0.17606 0.0
H906 H 0.39414 0.63446 0.21608 0.0
H907 H 0.57351 0.46242 0.17013 0.0
H908 H 0.4518 0.63383 0.24103 0.0
O909 O 0.41517 0.37016 0.1668 0.0
H910 H 0.24992 0.48196 0.15866 0.0
H911 H 0.31069 0.27808 0.16569 0.0
H912 H 0.25711 0.29608 0.13956 0.0
H913 H 0.22628 0.39861 0.13595 0.0
H914 H 0.3038 0.46208 0.1845 0.0
H915 H 0.25115 0.223 0.2125 0.0
H916 H 0.28972 0.12786 0.21737 0.0
O917 O 0.37791 0.30772 0.17917 0.0
C918 C 0.43254 0.34712 0.21764 0.0
C919 C 0.33846 0.17198 0.21134 0.0
C920 C 0.27986 0.22371 0.21081 0.0
N921 N 0.33173 0.27923 0.20361 0.0
C922 C 0.35321 0.2272 0.20638 0.0
C923 C 0.29555 0.27811 0.20587 0.0
C924 C 0.30151 0.17034 0.21354 0.0
C925 C 0.40883 0.55108 0.20321 0.0
N926 N 0.43448 0.50489 0.20379 0.0
C927 C 0.41463 0.59814 0.21657 0.0
C928 C 0.44696 0.5977 0.23058 0.0
C929 C 0.47301 0.55046 0.23108 0.0
C930 C 0.46624 0.50412 0.21751 0.0
C931 C 0.52358 0.51028 0.17328 0.0
C932 C 0.49603 0.39586 0.17996 0.0
C933 C 0.48781 0.50389 0.17697 0.0
N934 N 0.47457 0.44722 0.18037 0.0
C935 C 0.53193 0.40048 0.17631 0.0
C936 C 0.54574 0.45815 0.17298 0.0
C937 C 0.39881 0.31858 0.16757 0.0
C938 C 0.26305 0.43703 0.16012 0.0
C939 C 0.29751 0.32286 0.16418 0.0
C940 C 0.26712 0.33275 0.14938 0.0
C941 C 0.24983 0.39028 0.14736 0.0
N942 N 0.31024 0.3689 0.17666 0.0
C943 C 0.29348 0.42545 0.17475 0.0
H944 H 0.26321 0.31467 0.53518 0.0
H945 H 0.34916 0.28334 0.50361 0.0
H946 H 0.30276 0.2387 0.47812 0.0
H947 H 0.23809 0.20842 0.46484 0.0
H948 H 0.152 0.24119 0.49622 0.0
H949 H 0.19843 0.28557 0.52174 0.0
C950 C 0.27194 0.29835 0.52272 0.0
C951 C 0.30981 0.30267 0.52138 0.0
C952 C 0.24511 0.27288 0.50808 0.0
C953 C 0.32032 0.28092 0.50508 0.0
C954 C 0.29378 0.25526 0.49048 0.0
C955 C 0.22932 0.22515 0.47724 0.0
C956 C 0.19143 0.22117 0.47855 0.0
C957 C 0.25612 0.25096 0.49184 0.0
C958 C 0.18086 0.24346 0.49477 0.0
C959 C 0.20742 0.26891 0.50939 0.0
H960 H 0.9258 0.02198 0.50223 0.0
H961 H 0.00954 0.90488 0.53542 0.0
H962 H 0.05664 0.9448 0.51949 0.0
H963 H 0.07463 0.01361 0.49624 0.0
H964 H 0.99089 0.13076 0.46307 0.0
H965 H 0.94367 0.09016 0.47881 0.0
C966 C 0.95432 1.00513 0.50597 0.0
C967 C 0.96391 0.9604 0.52002 0.0
C968 C 0.98151 0.02833 0.49673 0.0
C969 C 1.00115 0.93922 0.52466 0.0
C970 C 0.02824 0.96205 0.51554 0.0
C971 C 0.04606 0.0302 0.49242 0.0
C972 C 0.03655 0.07535 0.4785 0.0
C973 C 0.01881 0.00668 0.50157 0.0
C974 C 0.99924 0.09617 0.47376 0.0
C975 C 0.97207 0.07296 0.48276 0.0
H976 H 0.30788 0.01007 0.743 0.0
H977 H 0.24925 0.83844 0.72925 0.0
H978 H 0.19947 0.8737 0.74436 0.0
H979 H 0.17204 0.95347 0.76156 0.0
H980 H 0.23067 0.12528 0.77506 0.0
H981 H 0.28035 0.08989 0.76001 0.0
C982 C 0.28434 0.9802 0.74339 0.0
C983 C 0.2826 0.92153 0.73499 0.0
C984 C 0.25543 1.00095 0.75202 0.0
C985 C 0.25155 0.88383 0.73555 0.0
C986 C 0.22291 0.90399 0.7442 0.0
C987 C 0.19556 0.98333 0.76113 0.0
C988 C 0.19733 0.04208 0.7695 0.0
C989 C 0.22442 0.96257 0.75244 0.0
C990 C 0.22832 0.07982 0.76882 0.0
C991 C 0.25693 0.05959 0.7602 0.0
H992 H 0.07118 0.23243 0.75992 0.0
H993 H 0.99107 0.14987 0.78818 0.0
H994 H 0.94034 0.20459 0.76782 0.0
H995 H 0.91806 0.27669 0.7418 0.0
H996 H 0.99873 0.35624 0.71328 0.0
H997 H 0.04909 0.30291 0.73392 0.0
C998 C 0.04264 0.22601 0.76158 0.0
C999 C 0.03529 0.18673 0.7756 0.0
C1000 C 0.01331 0.25783 0.74983 0.0
C1001 C 0.99791 0.17955 0.77752 0.0
C1002 C 0.96867 0.21108 0.76589 0.0
C1003 C 0.94666 0.28275 0.74021 0.0
C1004 C 0.95422 0.3213 0.72603 0.0
C1005 C 0.97597 0.25065 0.75201 0.0
C1006 C 0.99165 0.32768 0.7241 0.0
C1007 C 0.02074 0.29677 0.73588 0.0
H1008 H 0.76331 0.83334 0.53652 0.0
H1009 H 0.84937 0.79389 0.50563 0.0
H1010 H 0.80338 0.7429 0.48134 0.0
H1011 H 0.73915 0.71004 0.46882 0.0
H1012 H 0.65305 0.74694 0.49987 0.0
H1013 H 0.69895 0.79845 0.5242 0.0
C1014 C 0.77212 0.81376 0.52447 0.0
C1015 C 0.8099 0.81782 0.52294 0.0
C1016 C 0.74558 0.7839 0.51061 0.0
C1017 C 0.8206 0.79166 0.50723 0.0
C1018 C 0.7943 0.76242 0.49331 0.0
C1019 C 0.73025 0.72897 0.48092 0.0
C1020 C 0.69252 0.72429 0.48246 0.0
C1021 C 0.75676 0.75827 0.49487 0.0
C1022 C 0.68181 0.7495 0.49829 0.0
C1023 C 0.70806 0.77914 0.5122 0.0
H1024 H 0.69521 0.02493 0.25711 0.0
H1025 H 0.77856 0.14935 0.28723 0.0
H1026 H 0.82537 0.10508 0.27167 0.0
H1027 H 0.84315 0.03043 0.2496 0.0
H1028 H 0.7597 0.90597 0.21956 0.0
H1029 H 0.71285 0.95083 0.23493 0.0
C1030 C 0.72357 0.04253 0.26025 0.0
C1031 C 0.73315 0.09055 0.27334 0.0
C1032 C 0.75057 0.01673 0.25125 0.0
C1033 C 0.7702 0.11249 0.27722 0.0
C1034 C 0.79711 0.08715 0.26832 0.0
C1035 C 0.81473 0.01309 0.24641 0.0
C1036 C 0.80519 0.96469 0.23343 0.0
C1037 C 0.78768 0.03915 0.25533 0.0
C1038 C 0.76807 0.94305 0.22949 0.0
C1039 C 0.74112 0.96871 0.23828 0.0
H1040 H 0.00736 0.83814 0.22174 0.0
H1041 H 0.91914 0.78217 0.24924 0.0
H1042 H 0.96511 0.73179 0.27365 0.0
H1043 H 0.02988 0.70281 0.28696 0.0
H1044 H 0.11822 0.75835 0.25948 0.0
H1045 H 0.07231 0.80961 0.23519 0.0
C1046 C 0.99803 0.81513 0.23307 0.0
C1047 C 0.95964 0.81419 0.23359 0.0
C1048 C 0.02459 0.78594 0.24703 0.0
C1049 C 0.94837 0.78394 0.24845 0.0
C1050 C 0.97467 0.75494 0.26241 0.0
C1051 C 0.03929 0.72597 0.27568 0.0
C1052 C 0.07765 0.72635 0.2751 0.0
C1053 C 0.0128 0.75547 0.26179 0.0
C1054 C 0.089 0.75697 0.26032 0.0
C1055 C 0.06274 0.78643 0.24642 0.0
H1056 H 0.33294 0.76473 0.01445 0.0
H1057 H 0.25375 0.84945 0.04315 0.0
H1058 H 0.20226 0.80001 0.02176 0.0
H1059 H 0.17912 0.73217 0.99481 0.0
H1060 H 0.25873 0.64594 0.96663 0.0
H1061 H 0.30999 0.69583 0.98791 0.0
C1062 C 0.30444 0.77273 0.01598 0.0
C1063 C 0.2975 0.81145 0.03034 0.0
C1064 C 0.2747 0.74333 0.00376 0.0
C1065 C 0.26021 0.82047 0.03217 0.0
C1066 C 0.23056 0.79193 0.01996 0.0
C1067 C 0.20766 0.72397 0.99338 0.0
C1068 C 0.21471 0.68507 0.97907 0.0
C1069 C 0.23742 0.75309 0.00571 0.0
C1070 C 0.25209 0.67542 0.97746 0.0
C1071 C 0.28166 0.70413 0.98963 0.0
H1072 H 0.08806 0.4724 0.99856 0.0
H1073 H 0.01581 0.62248 0.97522 0.0
H1074 H 0.96821 0.58757 0.99156 0.0
H1075 H 0.94635 0.51426 0.01245 0.0
H1076 H 0.01827 0.36385 0.03579 0.0
H1077 H 0.06616 0.39896 0.01956 0.0
C1078 C 0.06197 0.49758 0.99709 0.0
C1079 C 0.05581 0.55012 0.98563 0.0
C1080 C 0.03432 0.47709 0.00653 0.0
C1081 C 0.0216 0.5819 0.98389 0.0
C1082 C 0.99417 0.56196 0.99325 0.0
C1083 C 0.97245 0.48906 0.01397 0.0
C1084 C 0.97843 0.43634 0.02534 0.0
C1085 C 1.00012 0.50954 0.00458 0.0
C1086 C 0.01263 0.40452 0.02714 0.0
C1087 C 0.0402 0.4246 0.01785 0.0
H1088 H 0.26756 0.42391 0.22608 0.0
H1089 H 0.36348 0.53024 0.25313 0.0
H1090 H 0.32535 0.58344 0.27191 0.0
H1091 H 0.26511 0.60044 0.28064 0.0
H1092 H 0.16866 0.49517 0.25379 0.0
H1093 H 0.20676 0.44097 0.235 0.0
C1094 C 0.28017 0.45866 0.23609 0.0
C1095 C 0.31848 0.47284 0.23816 0.0
C1096 C 0.258 0.48937 0.2469 0.0
C1097 C 0.3342 0.51813 0.25122 0.0
C1098 C 0.31238 0.54871 0.26199 0.0
C1099 C 0.25225 0.56568 0.27068 0.0
C1100 C 0.21391 0.55214 0.26864 0.0
C1101 C 0.27429 0.53478 0.25993 0.0
C1102 C 0.19801 0.50673 0.25567 0.0
C1103 C 0.21982 0.47567 0.2449 0.0
H1104 H 0.69338 0.23802 0.9989 0.0
H1105 H 0.76948 0.1349 0.97248 0.0
H1106 H 0.8225 0.18577 0.99216 0.0
H1107 H 0.84802 0.25945 0.01694 0.0
H1108 H 0.77254 0.36259 0.04368 0.0
H1109 H 0.71911 0.31272 0.0237 0.0
C1110 C 0.72154 0.22632 0.99753 0.0
C1111 C 0.72708 0.18207 0.98424 0.0
C1112 C 0.75232 0.25638 0.00884 0.0
C1113 C 0.76399 0.16825 0.98261 0.0
C1114 C 0.79456 0.19762 0.99383 0.0
C1115 C 0.81992 0.27149 0.01833 0.0
C1116 C 0.81459 0.31497 0.03183 0.0
C1117 C 0.78912 0.24191 0.00696 0.0
C1118 C 0.77776 0.32946 0.03342 0.0
C1119 C 0.74702 0.30071 0.02202 0.0
H1120 H 0.70316 0.61599 0.74845 0.0
H1121 H 0.7054 0.49072 0.79432 0.0
H1122 H 0.7532 0.4289 0.78407 0.0
H1123 H 0.79442 0.40953 0.76201 0.0
H1124 H 0.79216 0.53428 0.71603 0.0
H1125 H 0.74492 0.59705 0.7265 0.0
C1126 C 0.71385 0.57489 0.75612 0.0
C1127 C 0.7004 0.55811 0.77211 0.0
C1128 C 0.74179 0.53959 0.75024 0.0
C1129 C 0.71506 0.50494 0.78196 0.0
C1130 C 0.74256 0.46951 0.77614 0.0
C1131 C 0.78398 0.45086 0.7544 0.0
C1132 C 0.79713 0.4671 0.73828 0.0
C1133 C 0.7563 0.48648 0.76035 0.0
C1134 C 0.78275 0.52054 0.7285 0.0
C1135 C 0.75553 0.55645 0.73444 0.0
H1136 H 0.56497 0.94509 0.99006 0.0
H1137 H 0.55058 0.14 0.99788 0.0
H1138 H 0.50241 0.11937 0.01557 0.0
H1139 H 0.46339 0.04622 0.0286 0.0
H1140 H 0.47789 0.85129 0.02091 0.0
H1141 H 0.52647 0.87184 1.00344 0.0
C1142 C 0.55156 0.98306 0.99577 0.0
C1143 C 0.56155 0.04401 0.99257 0.0
C1144 C 0.52348 0.97096 0.00588 0.0
C1145 C 0.54353 0.09255 1.00002 0.0
C1146 C 0.51583 0.08086 0.01015 0.0
C1147 C 0.47699 0.00822 0.02301 0.0
C1148 C 0.46675 0.94731 0.02608 0.0
C1149 C 0.50531 0.02028 0.01305 0.0
C1150 C 0.48507 0.89871 0.01883 0.0
C1151 C 0.513 0.91037 0.00883 0.0
H1152 H 0.50856 0.35057 0.22263 0.0
H1153 H 0.41963 0.27389 0.24611 0.0
H1154 H 0.46577 0.22214 0.27013 0.0
H1155 H 0.53097 0.19875 0.28442 0.0
H1156 H 0.61996 0.27563 0.26103 0.0
H1157 H 0.57381 0.32703 0.2369 0.0
C1158 C 0.49908 0.32269 0.23299 0.0
C1159 C 0.46048 0.31644 0.23252 0.0
C1160 C 0.52574 0.29289 0.24674 0.0
C1161 C 0.44903 0.27984 0.24611 0.0
C1162 C 0.47543 0.25008 0.25985 0.0
C1163 C 0.54046 0.22656 0.27405 0.0
C1164 C 0.57908 0.23304 0.27459 0.0
C1165 C 0.51382 0.25626 0.26028 0.0
C1166 C 0.59054 0.26953 0.26098 0.0
C1167 C 0.56414 0.29909 0.24719 0.0
H1168 H 0.41292 0.74314 0.74491 0.0
H1169 H 0.4904 0.83727 0.71752 0.0
H1170 H 0.54294 0.79035 0.73887 0.0
H1171 H 0.56758 0.7221 0.76552 0.0
H1172 H 0.4895 0.62973 0.79299 0.0
H1173 H 0.43733 0.67571 0.77145 0.0
C1174 C 0.44126 0.75373 0.74364 0.0
C1175 C 0.44735 0.79403 0.72959 0.0
C1176 C 0.47166 0.72632 0.75596 0.0
C1177 C 0.48451 0.80666 0.72819 0.0
C1178 C 0.5148 0.77965 0.7404 0.0
C1179 C 0.53918 0.71167 0.76671 0.0
C1180 C 0.53288 0.67187 0.78088 0.0
C1181 C 0.50878 0.73918 0.75433 0.0
C1182 C 0.49564 0.65964 0.78223 0.0
C1183 C 0.46551 0.68622 0.76992 0.0
H1184 H 0.50049 0.42356 0.53036 0.0
H1185 H 0.40567 0.53282 0.50356 0.0
H1186 H 0.44431 0.58322 0.48453 0.0
H1187 H 0.50462 0.59571 0.47533 0.0
H1188 H 0.59962 0.48693 0.50215 0.0
H1189 H 0.56101 0.43644 0.52123 0.0
C1190 C 0.48817 0.4585 0.5204 0.0
C1191 C 0.45006 0.47427 0.51843 0.0
C1192 C 0.51052 0.48711 0.50942 0.0
C1193 C 0.43481 0.51971 0.50542 0.0
C1194 C 0.4569 0.54848 0.49449 0.0
C1195 C 0.51701 0.56088 0.48531 0.0
C1196 C 0.55513 0.54521 0.48725 0.0
C1197 C 0.49473 0.53237 0.49632 0.0
C1198 C 0.57047 0.49996 0.50032 0.0
C1199 C 0.54839 0.47113 0.51126 0.0
H1200 H 0.08934 0.76893 0.35649 0.0
H1201 H 0.19877 0.82078 0.34848 0.0
H1202 H 0.19662 0.91423 0.36643 0.0
H1203 H 0.16383 0.98288 0.3841 0.0
H1204 H 0.05288 0.93647 0.39101 0.0
H1205 H 0.0552 0.84056 0.37359 0.0
C1206 C 0.1128 0.80044 0.3588 0.0
C1207 C 0.1444 0.78696 0.35124 0.0
C1208 C 0.11094 0.85585 0.36877 0.0
C1209 C 0.17424 0.82914 0.35417 0.0
C1210 C 0.17299 0.88308 0.36441 0.0
C1211 C 0.14003 0.95199 0.38176 0.0
C1212 C 0.10826 0.96708 0.3889 0.0
C1213 C 0.14145 0.89715 0.37167 0.0
C1214 C 0.07766 0.92641 0.3856 0.0
C1215 C 0.07905 0.87124 0.37572 0.0
H1216 H 0.12708 0.35301 0.42275 0.0
H1217 H 0.1457 0.23479 0.37802 0.0
H1218 H 0.14887 0.32537 0.35846 0.0
H1219 H 0.14216 0.43812 0.35352 0.0
H1220 H 0.12338 0.55398 0.39884 0.0
H1221 H 0.12467 0.46407 0.41871 0.0
C1222 C 0.13195 0.3467 0.40874 0.0
C1223 C 0.13567 0.2869 0.40181 0.0
C1224 C 0.13366 0.3987 0.39765 0.0
C1225 C 0.14262 0.28014 0.38371 0.0
C1226 C 0.14433 0.33198 0.37251 0.0
C1227 C 0.13886 0.44382 0.36783 0.0
C1228 C 0.13245 0.50302 0.3746 0.0
C1229 C 0.13933 0.39151 0.37925 0.0
C1230 C 0.12818 0.50925 0.39318 0.0
C1231 C 0.12883 0.45775 0.40458 0.0
H1232 H 0.13492 0.30313 0.83988 0.0
H1233 H 0.06627 0.18658 0.86657 0.0
H1234 H 0.06076 0.26944 0.88863 0.0
H1235 H 0.07801 0.37409 0.90127 0.0
H1236 H 0.15098 0.4853 0.87572 0.0
H1237 H 0.15217 0.40546 0.85227 0.0
C1238 C 0.11884 0.29537 0.85054 0.0
C1239 C 0.10138 0.23816 0.85161 0.0
C1240 C 0.11647 0.34256 0.86339 0.0
C1241 C 0.08031 0.22982 0.86546 0.0
C1242 C 0.07708 0.27729 0.87808 0.0
C1243 C 0.09367 0.38098 0.89038 0.0
C1244 C 0.11411 0.43566 0.89008 0.0
C1245 C 0.09531 0.33376 0.87728 0.0
C1246 C 0.13495 0.44365 0.87617 0.0
C1247 C 0.13572 0.39798 0.8628 0.0
H1248 H 0.11737 0.8053 0.91428 0.0
H1249 H 0.18468 0.68621 0.88717 0.0
H1250 H 0.18984 0.76806 0.86492 0.0
H1251 H 0.17236 0.87238 0.85217 0.0
H1252 H 0.1006 0.98592 0.87819 0.0
H1253 H 0.10008 0.90727 0.90186 0.0
C1254 C 0.1331 0.79674 0.9035 0.0
C1255 C 0.15024 0.73912 0.90235 0.0
C1256 C 0.13521 0.8433 0.89054 0.0
C1257 C 0.17089 0.72979 0.88834 0.0
C1258 C 0.1739 0.77667 0.87561 0.0
C1259 C 0.15711 0.88002 0.86321 0.0
C1260 C 0.13679 0.93499 0.86357 0.0
C1261 C 0.15585 0.83348 0.87645 0.0
C1262 C 0.1165 0.94401 0.87768 0.0
C1263 C 0.11613 0.89903 0.89119 0.0
H1264 H 0.9217 0.27935 0.64161 0.0
H1265 H 0.8268 0.21374 0.66242 0.0
H1266 H 0.8242 0.12159 0.64326 0.0
H1267 H 0.84868 0.05873 0.62048 0.0
H1268 H 0.94746 0.11817 0.60208 0.0
H1269 H 0.94908 0.21266 0.62055 0.0
C1270 C 0.90036 0.24505 0.64191 0.0
C1271 C 0.8739 0.25466 0.65317 0.0
C1272 C 0.89993 0.19047 0.63139 0.0
C1273 C 0.84702 0.20874 0.65365 0.0
C1274 C 0.84563 0.15554 0.64275 0.0
C1275 C 0.87065 0.09228 0.62059 0.0
C1276 C 0.89781 0.08154 0.60988 0.0
C1277 C 0.87188 0.14589 0.63155 0.0
C1278 C 0.92632 0.12515 0.61029 0.0
C1279 C 0.92715 0.17938 0.62077 0.0
H1280 H 0.82941 0.63137 0.64663 0.0
H1281 H 0.90132 0.51571 0.62129 0.0
H1282 H 0.90818 0.59795 0.59965 0.0
H1283 H 0.8964 0.70325 0.58895 0.0
H1284 H 0.82735 0.82267 0.61496 0.0
H1285 H 0.8168 0.73832 0.63536 0.0
C1286 C 0.84605 0.62396 0.63615 0.0
C1287 C 0.86461 0.56736 0.63545 0.0
C1288 C 0.8508 0.67226 0.62407 0.0
C1289 C 0.88668 0.55876 0.62206 0.0
C1290 C 0.89073 0.60583 0.60974 0.0
C1291 C 0.87904 0.7113 0.59907 0.0
C1292 C 0.86298 0.76971 0.60046 0.0
C1293 C 0.87342 0.66299 0.61082 0.0
C1294 C 0.84037 0.77849 0.61364 0.0
C1295 C 0.83421 0.73017 0.62528 0.0
H1296 H 0.90485 0.60009 0.10755 0.0
H1297 H 0.90025 0.48427 0.15487 0.0
H1298 H 0.90518 0.5743 0.17512 0.0
H1299 H 0.90485 0.68558 0.17898 0.0
H1300 H 0.90919 0.80404 0.13234 0.0
H1301 H 0.91081 0.71342 0.11231 0.0
C1302 C 0.90572 0.59451 0.12236 0.0
C1303 C 0.90187 0.53529 0.12962 0.0
C1304 C 0.90811 0.64698 0.13402 0.0
C1305 C 0.90286 0.52909 0.14885 0.0
C1306 C 0.90559 0.58065 0.16046 0.0
C1307 C 0.90641 0.69177 0.16445 0.0
C1308 C 0.90637 0.75153 0.1571 0.0
C1309 C 0.90719 0.63977 0.15311 0.0
C1310 C 0.90913 0.75856 0.13834 0.0
C1311 C 0.90988 0.70672 0.12688 0.0
H1312 H 0.88961 0.1065 0.15843 0.0
H1313 H 0.8583 0.98366 0.11131 0.0
H1314 H 0.85499 0.07063 0.08984 0.0
H1315 H 0.86532 0.18044 0.08451 0.0
H1316 H 0.89328 0.30428 0.13156 0.0
H1317 H 0.89316 0.21816 0.15306 0.0
C1318 C 0.88172 0.0989 0.14345 0.0
C1319 C 0.8746 0.03866 0.13643 0.0
C1320 C 0.87935 0.14923 0.13122 0.0
C1321 C 0.8639 0.02955 0.11704 0.0
C1322 C 0.86217 0.07922 0.10477 0.0
C1323 C 0.87099 0.18863 0.09948 0.0
C1324 C 0.87961 0.24853 0.10646 0.0
C1325 C 0.87047 0.13907 0.1117 0.0
C1326 C 0.88643 0.25867 0.12585 0.0
C1327 C 0.8866 0.20938 0.13814 0.0
H1328 H 0.63854 0.79985 0.84551 0.0
H1329 H 0.564 0.69115 0.87091 0.0
H1330 H 0.55999 0.77476 0.89283 0.0
H1331 H 0.5804 0.87717 0.90601 0.0
H1332 H 0.65906 0.981 0.88207 0.0
H1333 H 0.65867 0.90114 0.85844 0.0
C1334 C 0.62146 0.79413 0.85584 0.0
C1335 C 0.60197 0.73868 0.8566 0.0
C1336 C 0.61997 0.84182 0.86872 0.0
C1337 C 0.57965 0.7329 0.87004 0.0
C1338 C 0.57726 0.78083 0.8826 0.0
C1339 C 0.59697 0.88257 0.89543 0.0
C1340 C 0.6195 0.9351 0.89568 0.0
C1341 C 0.59763 0.8353 0.88222 0.0
C1342 C 0.64143 0.94102 0.88213 0.0
C1343 C 0.64129 0.89532 0.86863 0.0
H1344 H 0.61926 0.29857 0.92139 0.0
H1345 H 0.68953 0.187 0.89377 0.0
H1346 H 0.6925 0.27099 0.87189 0.0
H1347 H 0.67269 0.37492 0.8598 0.0
H1348 H 0.59827 0.48102 0.88632 0.0
H1349 H 0.59942 0.40012 0.90951 0.0
C1350 C 0.63514 0.29207 0.91056 0.0
C1351 C 0.65381 0.23601 0.90916 0.0
C1352 C 0.63606 0.33981 0.89786 0.0
C1353 C 0.67459 0.22934 0.89511 0.0
C1354 C 0.67637 0.27743 0.88261 0.0
C1355 C 0.65721 0.3805 0.87084 0.0
C1356 C 0.63569 0.43397 0.87151 0.0
C1357 C 0.65696 0.33274 0.88377 0.0
C1358 C 0.6151 0.4403 0.8856 0.0
C1359 C 0.61568 0.39405 0.89881 0.0
H1360 H 0.66307 0.34739 0.34379 0.0
H1361 H 0.58707 0.22688 0.36434 0.0
H1362 H 0.57245 0.30965 0.3845 0.0
H1363 H 0.5826 0.41602 0.39695 0.0
H1364 H 0.66086 0.53333 0.37699 0.0
H1365 H 0.67287 0.45215 0.35585 0.0
C1366 C 0.64331 0.33879 0.35267 0.0
C1367 C 0.62641 0.28044 0.35254 0.0
C1368 C 0.63523 0.38637 0.3643 0.0
C1369 C 0.60078 0.27095 0.36418 0.0
C1370 C 0.59228 0.31843 0.37569 0.0
C1371 C 0.60186 0.42406 0.38777 0.0
C1372 C 0.62057 0.48101 0.38847 0.0
C1373 C 0.60942 0.37637 0.37591 0.0
C1374 C 0.64598 0.49016 0.37672 0.0
C1375 C 0.65298 0.44364 0.36466 0.0
H1376 H 0.65247 0.77054 0.38929 0.0
H1377 H 0.58977 0.84758 0.42798 0.0
H1378 H 0.5883 0.94665 0.41306 0.0
H1379 H 0.60268 0.01218 0.38874 0.0
H1380 H 0.66343 0.93853 0.34895 0.0
H1381 H 0.66805 0.83858 0.36467 0.0
C1382 C 0.63845 0.80897 0.39441 0.0
C1383 C 0.62113 0.8007 0.40975 0.0
C1384 C 0.63745 0.86704 0.38564 0.0
C1385 C 0.6033 0.85159 0.41621 0.0
C1386 C 0.60243 0.90884 0.4077 0.0
C1387 C 0.6173 0.9746 0.38355 0.0
C1388 C 0.63271 0.98317 0.3677 0.0
C1389 C 0.61922 0.91712 0.39239 0.0
C1390 C 0.65135 0.93347 0.36118 0.0
C1391 C 0.65386 0.8761 0.37012 0.0
H1392 H 0.36642 0.20559 0.16447 0.0
H1393 H 0.44401 0.31625 0.1417 0.0
H1394 H 0.45256 0.23149 0.12078 0.0
H1395 H 0.43608 0.12631 0.10815 0.0
H1396 H 0.35651 0.0197 0.13072 0.0
H1397 H 0.35111 0.10225 0.15263 0.0
C1398 C 0.38526 0.2116 0.15497 0.0
C1399 C 0.40433 0.26774 0.15466 0.0
C1400 C 0.38989 0.16299 0.14296 0.0
C1401 C 0.42872 0.27389 0.14221 0.0
C1402 C 0.43372 0.22528 0.13026 0.0
C1403 C 0.41806 0.12095 0.11808 0.0
C1404 C 0.39686 0.06675 0.11786 0.0
C1405 C 0.4143 0.16959 0.13044 0.0
C1406 C 0.37313 0.06087 0.1306 0.0
C1407 C 0.36991 0.10815 0.1431 0.0
H1408 H 0.38772 0.618 0.15956 0.0
H1409 H 0.35316 0.49213 0.11348 0.0
H1410 H 0.34572 0.57804 0.09145 0.0
H1411 H 0.35284 0.68809 0.08522 0.0
H1412 H 0.38345 0.81507 0.1313 0.0
H1413 H 0.38826 0.72966 0.1535 0.0
C1414 C 0.37829 0.60954 0.1447 0.0
C1415 C 0.3714 0.54881 0.13809 0.0
C1416 C 0.37341 0.65927 0.13217 0.0
C1417 C 0.35864 0.53845 0.11886 0.0
C1418 C 0.35452 0.58752 0.10628 0.0
C1419 C 0.36019 0.69706 0.10015 0.0
C1420 C 0.3681 0.7576 0.10667 0.0
C1421 C 0.36237 0.64795 0.11276 0.0
C1422 C 0.37712 0.76884 0.126 0.0
C1423 C 0.38008 0.72001 0.13865 0.0
H1424 H 0.35347 0.6685 0.66444 0.0
H1425 H 0.42072 0.79235 0.63927 0.0
H1426 H 0.43243 0.70986 0.61828 0.0
H1427 H 0.422 0.60281 0.60645 0.0
H1428 H 0.35091 0.48289 0.63047 0.0
H1429 H 0.34238 0.56363 0.65256 0.0
C1430 C 0.37057 0.67796 0.65434 0.0
C1431 C 0.38594 0.73713 0.65345 0.0
C1432 C 0.37666 0.63069 0.64213 0.0
C1433 C 0.40826 0.74764 0.64026 0.0
C1434 C 0.41507 0.70033 0.62827 0.0
C1435 C 0.40508 0.59416 0.6167 0.0
C1436 C 0.38747 0.53654 0.61696 0.0
C1437 C 0.3993 0.64167 0.62902 0.0
C1438 C 0.36493 0.52657 0.63004 0.0
C1439 C 0.35995 0.57282 0.64264 0.0
H1440 H 0.35373 0.24944 0.61643 0.0
H1441 H 0.40349 0.16738 0.57343 0.0
H1442 H 0.40368 0.06774 0.58789 0.0
H1443 H 0.39279 1.00323 0.61318 0.0
H1444 H 0.34549 0.0817 0.65735 0.0
H1445 H 0.34086 0.18214 0.64191 0.0
C1446 C 0.36454 0.20975 0.61023 0.0
C1447 C 0.37879 0.21684 0.59385 0.0
C1448 C 0.36493 0.15133 0.61878 0.0
C1449 C 0.39251 0.16434 0.58604 0.0
C1450 C 0.39261 0.10676 0.59429 0.0
C1451 C 0.38103 0.04197 0.6194 0.0
C1452 C 0.36952 0.03457 0.63642 0.0
C1453 C 0.37924 0.09972 0.61071 0.0
C1454 C 0.35449 0.08576 0.64421 0.0
C1455 C 0.35203 0.14344 0.63543 0.0
loop_
_geom_bond_atom_site_label_1
_geom_bond_atom_site_label_2
_geom_bond_distance
_geom_bond_site_symmetry_2
_ccdc_geom_bond_type
Co0 O2 2.143 . S
Co0 O8 2.074 . S
Co0 O11 2.093 . S
Co0 O24 2.097 . S
Co0 N41 2.151 . S
Co0 N49 2.214 . S
Co1 O2 2.160 . S
Co1 O7 2.058 . S
Co1 O17 2.057 . S
Co1 O32 2.037 . S
Co1 N36 2.145 . S
Co1 N57 2.257 . S
O2 Co0 2.143 . S
O2 Co1 2.160 . S
C3 O4 1.278 1_565 S
C3 O11 1.224 1_565 S
O4 C3 1.278 1_545 S
C5 O6 1.245 . S
C5 O17 1.232 . S
O6 C5 1.245 . S
O7 Co1 2.058 . S
O7 C33 1.269 . S
O8 Co0 2.074 . S
O8 C33 1.257 . S
H9 C34 0.930 . S
H10 C40 0.930 . S
O11 Co0 2.093 . S
O11 C3 1.224 1_545 S
H12 C44 0.929 . S
H13 C46 0.930 . S
H14 C47 0.930 . S
H15 C45 0.929 . S
H16 C48 0.928 . S
O17 Co1 2.057 . S
O17 C5 1.232 . S
H18 C37 0.929 . S
H19 C38 0.929 . S
H20 C50 0.931 . S
H21 C42 0.929 . S
H22 C51 0.930 . S
H23 C43 0.931 . S
O24 Co0 2.097 . S
O24 C52 1.214 . S
H25 C53 0.929 . S
H26 C54 0.929 . S
H27 C55 0.930 . S
H28 C56 0.929 . S
H29 C58 0.930 . S
H30 C35 0.909 1_655 S
H31 C39 0.930 . S
O32 Co1 2.037 . S
O32 C52 1.234 . S
C33 O7 1.269 . S
C33 O8 1.257 . S
C34 H9 0.930 . S
C34 C37 1.388 . S
C34 C39 1.418 . S
C35 H30 0.909 1_455 S
C35 C38 1.404 . S
C35 C39 1.353 . S
N36 Co1 2.145 . S
N36 C37 1.397 . S
N36 C38 1.334 . S
C37 H18 0.929 . S
C37 C34 1.388 . S
C37 N36 1.397 . S
C38 H19 0.929 . S
C38 C35 1.404 . S
C38 N36 1.334 . S
C39 H31 0.930 . S
C39 C34 1.418 . S
C39 C35 1.353 . S
C40 H10 0.930 . S
C40 N41 1.330 1_565 S
C40 C42 1.446 . S
N41 Co0 2.151 . S
N41 C40 1.330 1_545 S
N41 C45 1.418 . S
C42 H21 0.929 . S
C42 C40 1.446 . S
C42 C43 1.332 . S
C43 H23 0.931 . S
C43 C42 1.332 . S
C43 C44 1.267 . S
C44 H12 0.929 . S
C44 C43 1.267 . S
C44 C45 1.251 1_565 S
C45 H15 0.929 . S
C45 N41 1.418 . S
C45 C44 1.251 1_545 S
C46 H13 0.930 . S
C46 C48 1.406 . S
C46 C51 1.261 . S
C47 H14 0.930 . S
C47 N49 1.325 . S
C47 C50 1.357 . S
C48 H16 0.928 . S
C48 C46 1.406 . S
C48 N49 1.261 . S
N49 Co0 2.214 . S
N49 C47 1.325 . S
N49 C48 1.261 . S
C50 H20 0.931 . S
C50 C47 1.357 . S
C50 C51 1.312 . S
C51 H22 0.930 . S
C51 C46 1.261 . S
C51 C50 1.312 . S
C52 O24 1.214 . S
C52 O32 1.234 . S
C53 H25 0.929 . S
C53 C56 1.391 . S
C53 C58 1.391 1_655 S
C54 H26 0.929 . S
C54 C55 1.390 1_455 S
C54 N57 1.391 . S
C55 H27 0.930 . S
C55 C54 1.390 1_655 S
C55 C56 1.392 . S
C56 H28 0.929 . S
C56 C53 1.391 . S
C56 C55 1.392 . S
N57 Co1 2.257 . S
N57 C54 1.391 . S
N57 C58 1.388 . S
C58 H29 0.930 . S
C58 C53 1.391 1_455 S
C58 N57 1.388 . S
Co59 O61 2.143 . S
Co59 O67 2.074 . S
Co59 O70 2.093 . S
Co59 O83 2.097 . S
Co59 N100 2.151 . S
Co59 N108 2.214 . S
Co60 O61 2.160 . S
Co60 O66 2.058 . S
Co60 O76 2.057 . S
Co60 O91 2.037 . S
Co60 N95 2.145 . S
Co60 N116 2.257 . S
O61 Co59 2.143 . S
O61 Co60 2.160 . S
C62 O63 1.278 1_565 S
C62 O70 1.224 1_565 S
O63 C62 1.278 1_545 S
C64 O65 1.245 . S
C64 O76 1.232 . S
O65 C64 1.245 . S
O66 Co60 2.058 . S
O66 C92 1.269 . S
O67 Co59 2.074 . S
O67 C92 1.257 . S
H68 C93 0.930 . S
H69 C99 0.930 . S
O70 Co59 2.093 . S
O70 C62 1.224 1_545 S
H71 C103 0.929 1_655 S
H72 C105 0.930 . S
H73 C106 0.930 . S
H74 C104 0.929 . S
H75 C107 0.928 . S
O76 Co60 2.057 . S
O76 C64 1.232 . S
H77 C96 0.929 . S
H78 C97 0.929 . S
H79 C109 0.931 . S
H80 C101 0.929 . S
H81 C110 0.930 . S
H82 C102 0.931 1_655 S
O83 Co59 2.097 . S
O83 C111 1.214 . S
H84 C112 0.929 . S
H85 C113 0.929 . S
H86 C114 0.930 . S
H87 C115 0.929 . S
H88 C117 0.930 . S
H89 C94 0.930 . S
H90 C98 0.930 . S
O91 Co60 2.037 . S
O91 C111 1.234 . S
C92 O66 1.269 . S
C92 O67 1.257 . S
C93 H68 0.930 . S
C93 C96 1.388 . S
C93 C98 1.418 . S
C94 H89 0.930 . S
C94 C97 1.404 . S
C94 C98 1.353 . S
N95 Co60 2.145 . S
N95 C96 1.397 . S
N95 C97 1.334 . S
C96 H77 0.929 . S
C96 C93 1.388 . S
C96 N95 1.397 . S
C97 H78 0.929 . S
C97 C94 1.404 . S
C97 N95 1.334 . S
C98 H90 0.930 . S
C98 C93 1.418 . S
C98 C94 1.353 . S
C99 H69 0.930 . S
C99 N100 1.330 1_565 S
C99 C101 1.446 . S
N100 Co59 2.151 . S
N100 C99 1.330 1_545 S
N100 C104 1.418 . S
C101 H80 0.929 . S
C101 C99 1.446 . S
C101 C102 1.332 . S
C102 H82 0.931 1_455 S
C102 C101 1.332 . S
C102 C103 1.267 . S
C103 H71 0.929 1_455 S
C103 C102 1.267 . S
C103 C104 1.251 1_565 S
C104 H74 0.929 . S
C104 N100 1.418 . S
C104 C103 1.251 1_545 S
C105 H72 0.930 . S
C105 C107 1.406 1_655 S
C105 C110 1.261 . S
C106 H73 0.930 . S
C106 N108 1.325 . S
C106 C109 1.357 1_455 S
C107 H75 0.928 . S
C107 C105 1.406 1_455 S
C107 N108 1.261 . S
N108 Co59 2.214 . S
N108 C106 1.325 . S
N108 C107 1.261 . S
C109 H79 0.931 . S
C109 C106 1.357 1_655 S
C109 C110 1.312 . S
C110 H81 0.930 . S
C110 C105 1.261 . S
C110 C109 1.312 . S
C111 O83 1.214 . S
C111 O91 1.234 . S
C112 H84 0.929 . S
C112 C115 1.391 . S
C112 C117 1.391 . S
C113 H85 0.929 . S
C113 C114 1.390 . S
C113 N116 1.391 . S
C114 H86 0.930 . S
C114 C113 1.390 . S
C114 C115 1.392 . S
C115 H87 0.929 . S
C115 C112 1.391 . S
C115 C114 1.392 . S
N116 Co60 2.257 . S
N116 C113 1.391 . S
N116 C117 1.388 . S
C117 H88 0.930 . S
C117 C112 1.391 . S
C117 N116 1.388 . S
Co118 O120 2.143 . S
Co118 O126 2.074 . S
Co118 O129 2.093 . S
Co118 O142 2.097 . S
Co118 N159 2.151 . S
Co118 N167 2.214 . S
Co119 O120 2.160 . S
Co119 O125 2.058 . S
Co119 O135 2.057 . S
Co119 O150 2.037 . S
Co119 N154 2.145 . S
Co119 N175 2.257 . S
O120 Co118 2.143 . S
O120 Co119 2.160 . S
C121 O122 1.278 1_545 S
C121 O129 1.224 1_545 S
O122 C121 1.278 1_565 S
C123 O124 1.245 . S
C123 O135 1.232 . S
O124 C123 1.245 . S
O125 Co119 2.058 . S
O125 C151 1.269 . S
O126 Co118 2.074 . S
O126 C151 1.257 . S
H127 C152 0.930 . S
H128 C158 0.930 . S
O129 Co118 2.093 . S
O129 C121 1.224 1_565 S
H130 C162 0.929 . S
H131 C164 0.930 . S
H132 C165 0.930 . S
H133 C163 0.929 . S
H134 C166 0.928 . S
O135 Co119 2.057 . S
O135 C123 1.232 . S
H136 C155 0.929 . S
H137 C156 0.929 . S
H138 C168 0.931 . S
H139 C160 0.929 . S
H140 C169 0.930 . S
H141 C161 0.931 . S
O142 Co118 2.097 . S
O142 C170 1.214 . S
H143 C171 0.929 . S
H144 C172 0.929 . S
H145 C173 0.930 . S
H146 C174 0.929 . S
H147 C176 0.930 . S
H148 C153 0.909 1_455 S
H149 C157 0.930 . S
O150 Co119 2.037 . S
O150 C170 1.234 . S
C151 O125 1.269 . S
C151 O126 1.257 . S
C152 H127 0.930 . S
C152 C155 1.388 . S
C152 C157 1.418 . S
C153 H148 0.909 1_655 S
C153 C156 1.404 . S
C153 C157 1.353 . S
N154 Co119 2.145 . S
N154 C155 1.397 . S
N154 C156 1.334 . S
C155 H136 0.929 . S
C155 C152 1.388 . S
C155 N154 1.397 . S
C156 H137 0.929 . S
C156 C153 1.404 . S
C156 N154 1.334 . S
C157 H149 0.930 . S
C157 C152 1.418 . S
C157 C153 1.353 . S
C158 H128 0.930 . S
C158 N159 1.330 1_545 S
C158 C160 1.446 . S
N159 Co118 2.151 . S
N159 C158 1.330 1_565 S
N159 C163 1.418 . S
C160 H139 0.929 . S
C160 C158 1.446 . S
C160 C161 1.332 . S
C161 H141 0.931 . S
C161 C160 1.332 . S
C161 C162 1.267 . S
C162 H130 0.929 . S
C162 C161 1.267 . S
C162 C163 1.251 1_545 S
C163 H133 0.929 . S
C163 N159 1.418 . S
C163 C162 1.251 1_565 S
C164 H131 0.930 . S
C164 C166 1.406 . S
C164 C169 1.261 . S
C165 H132 0.930 . S
C165 N167 1.325 . S
C165 C168 1.357 . S
C166 H134 0.928 . S
C166 C164 1.406 . S
C166 N167 1.261 . S
N167 Co118 2.214 . S
N167 C165 1.325 . S
N167 C166 1.261 . S
C168 H138 0.931 . S
C168 C165 1.357 . S
C168 C169 1.312 . S
C169 H140 0.930 . S
C169 C164 1.261 . S
C169 C168 1.312 . S
C170 O142 1.214 . S
C170 O150 1.234 . S
C171 H143 0.929 . S
C171 C174 1.391 . S
C171 C176 1.391 1_455 S
C172 H144 0.929 . S
C172 C173 1.390 1_655 S
C172 N175 1.391 . S
C173 H145 0.930 . S
C173 C172 1.390 1_455 S
C173 C174 1.392 . S
C174 H146 0.929 . S
C174 C171 1.391 . S
C174 C173 1.392 . S
N175 Co119 2.257 . S
N175 C172 1.391 . S
N175 C176 1.388 . S
C176 H147 0.930 . S
C176 C171 1.391 1_655 S
C176 N175 1.388 . S
Co177 O179 2.143 . S
Co177 O185 2.074 . S
Co177 O188 2.093 . S
Co177 O201 2.097 . S
Co177 N218 2.151 . S
Co177 N226 2.214 . S
Co178 O179 2.160 . S
Co178 O184 2.058 . S
Co178 O194 2.057 . S
Co178 O209 2.037 . S
Co178 N213 2.145 . S
Co178 N234 2.257 . S
O179 Co177 2.143 . S
O179 Co178 2.160 . S
C180 O181 1.278 1_545 S
C180 O188 1.224 1_545 S
O181 C180 1.278 1_565 S
C182 O183 1.245 . S
C182 O194 1.232 . S
O183 C182 1.245 . S
O184 Co178 2.058 . S
O184 C210 1.269 . S
O185 Co177 2.074 . S
O185 C210 1.257 . S
H186 C211 0.930 . S
H187 C217 0.930 . S
O188 Co177 2.093 . S
O188 C180 1.224 1_565 S
H189 C221 0.929 1_455 S
H190 C223 0.930 . S
H191 C224 0.930 . S
H192 C222 0.929 . S
H193 C225 0.928 . S
O194 Co178 2.057 . S
O194 C182 1.232 . S
H195 C214 0.929 . S
H196 C215 0.929 . S
H197 C227 0.931 . S
H198 C219 0.929 . S
H199 C228 0.930 . S
H200 C220 0.931 1_455 S
O201 Co177 2.097 . S
O201 C229 1.214 . S
H202 C230 0.929 . S
H203 C231 0.929 . S
H204 C232 0.930 . S
H205 C233 0.929 . S
H206 C235 0.930 . S
H207 C212 0.930 . S
H208 C216 0.930 . S
O209 Co178 2.037 . S
O209 C229 1.234 . S
C210 O184 1.269 . S
C210 O185 1.257 . S
C211 H186 0.930 . S
C211 C214 1.388 . S
C211 C216 1.418 . S
C212 H207 0.930 . S
C212 C215 1.404 . S
C212 C216 1.353 . S
N213 Co178 2.145 . S
N213 C214 1.397 . S
N213 C215 1.334 . S
C214 H195 0.929 . S
C214 C211 1.388 . S
C214 N213 1.397 . S
C215 H196 0.929 . S
C215 C212 1.404 . S
C215 N213 1.334 . S
C216 H208 0.930 . S
C216 C211 1.418 . S
C216 C212 1.353 . S
C217 H187 0.930 . S
C217 N218 1.330 1_545 S
C217 C219 1.446 . S
N218 Co177 2.151 . S
N218 C217 1.330 1_565 S
N218 C222 1.418 . S
C219 H198 0.929 . S
C219 C217 1.446 . S
C219 C220 1.332 . S
C220 H200 0.931 1_655 S
C220 C219 1.332 . S
C220 C221 1.267 . S
C221 H189 0.929 1_655 S
C221 C220 1.267 . S
C221 C222 1.251 1_545 S
C222 H192 0.929 . S
C222 N218 1.418 . S
C222 C221 1.251 1_565 S
C223 H190 0.930 . S
C223 C225 1.406 1_455 S
C223 C228 1.261 . S
C224 H191 0.930 . S
C224 N226 1.325 . S
C224 C227 1.357 1_655 S
C225 H193 0.928 . S
C225 C223 1.406 1_655 S
C225 N226 1.261 . S
N226 Co177 2.214 . S
N226 C224 1.325 . S
N226 C225 1.261 . S
C227 H197 0.931 . S
C227 C224 1.357 1_455 S
C227 C228 1.312 . S
C228 H199 0.930 . S
C228 C223 1.261 . S
C228 C227 1.312 . S
C229 O201 1.214 . S
C229 O209 1.234 . S
C230 H202 0.929 . S
C230 C233 1.391 . S
C230 C235 1.391 . S
C231 H203 0.929 . S
C231 C232 1.390 . S
C231 N234 1.391 . S
C232 H204 0.930 . S
C232 C231 1.390 . S
C232 C233 1.392 . S
C233 H205 0.929 . S
C233 C230 1.391 . S
C233 C232 1.392 . S
N234 Co178 2.257 . S
N234 C231 1.391 . S
N234 C235 1.388 . S
C235 H206 0.930 . S
C235 C230 1.391 . S
C235 N234 1.388 . S
Co236 O238 2.143 . S
Co236 O244 2.074 . S
Co236 O247 2.093 . S
Co236 O260 2.097 . S
Co236 N277 2.151 . S
Co236 N285 2.214 . S
Co237 O238 2.160 . S
Co237 O243 2.058 . S
Co237 O253 2.057 . S
Co237 O268 2.037 . S
Co237 N272 2.145 . S
Co237 N293 2.257 . S
O238 Co236 2.143 . S
O238 Co237 2.160 . S
C239 O240 1.278 . S
C239 O247 1.224 . S
O240 C239 1.278 . S
C241 O242 1.245 . S
C241 O253 1.232 . S
O242 C241 1.245 . S
O243 Co237 2.058 . S
O243 C269 1.269 . S
O244 Co236 2.074 . S
O244 C269 1.257 . S
H245 C270 0.930 . S
H246 C276 0.930 . S
O247 Co236 2.093 . S
O247 C239 1.224 . S
H248 C280 0.929 . S
H249 C282 0.930 . S
H250 C283 0.930 . S
H251 C281 0.929 . S
H252 C284 0.928 . S
O253 Co237 2.057 . S
O253 C241 1.232 . S
H254 C273 0.929 . S
H255 C274 0.929 . S
H256 C286 0.931 . S
H257 C278 0.929 . S
H258 C287 0.930 . S
H259 C279 0.931 . S
O260 Co236 2.097 . S
O260 C288 1.214 . S
H261 C289 0.929 . S
H262 C290 0.929 . S
H263 C291 0.930 . S
H264 C292 0.929 . S
H265 C294 0.930 . S
H266 C271 0.909 1_655 S
H267 C275 0.930 . S
O268 Co237 2.037 . S
O268 C288 1.234 . S
C269 O243 1.269 . S
C269 O244 1.257 . S
C270 H245 0.930 . S
C270 C273 1.388 . S
C270 C275 1.418 . S
C271 H266 0.909 1_455 S
C271 C274 1.404 . S
C271 C275 1.353 . S
N272 Co237 2.145 . S
N272 C273 1.397 . S
N272 C274 1.334 . S
C273 H254 0.929 . S
C273 C270 1.388 . S
C273 N272 1.397 . S
C274 H255 0.929 . S
C274 C271 1.404 . S
C274 N272 1.334 . S
C275 H267 0.930 . S
C275 C270 1.418 . S
C275 C271 1.353 . S
C276 H246 0.930 . S
C276 N277 1.330 . S
C276 C278 1.446 . S
N277 Co236 2.151 . S
N277 C276 1.330 . S
N277 C281 1.418 . S
C278 H257 0.929 . S
C278 C276 1.446 . S
C278 C279 1.332 . S
C279 H259 0.931 . S
C279 C278 1.332 . S
C279 C280 1.267 . S
C280 H248 0.929 . S
C280 C279 1.267 . S
C280 C281 1.251 . S
C281 H251 0.929 . S
C281 N277 1.418 . S
C281 C280 1.251 . S
C282 H249 0.930 . S
C282 C284 1.406 . S
C282 C287 1.261 . S
C283 H250 0.930 . S
C283 N285 1.325 . S
C283 C286 1.357 . S
C284 H252 0.928 . S
C284 C282 1.406 . S
C284 N285 1.261 . S
N285 Co236 2.214 . S
N285 C283 1.325 . S
N285 C284 1.261 . S
C286 H256 0.931 . S
C286 C283 1.357 . S
C286 C287 1.312 . S
C287 H258 0.930 . S
C287 C282 1.261 . S
C287 C286 1.312 . S
C288 O260 1.214 . S
C288 O268 1.234 . S
C289 H261 0.929 . S
C289 C292 1.391 . S
C289 C294 1.391 1_655 S
C290 H262 0.929 . S
C290 C291 1.390 1_455 S
C290 N293 1.391 . S
C291 H263 0.930 . S
C291 C290 1.390 1_655 S
C291 C292 1.392 . S
C292 H264 0.929 . S
C292 C289 1.391 . S
C292 C291 1.392 . S
N293 Co237 2.257 . S
N293 C290 1.391 . S
N293 C294 1.388 . S
C294 H265 0.930 . S
C294 C289 1.391 1_455 S
C294 N293 1.388 . S
Co295 O297 2.143 . S
Co295 O303 2.074 . S
Co295 O306 2.093 . S
Co295 O319 2.097 . S
Co295 N336 2.151 . S
Co295 N344 2.214 . S
Co296 O297 2.160 . S
Co296 O302 2.058 . S
Co296 O312 2.057 . S
Co296 O327 2.037 . S
Co296 N331 2.145 . S
Co296 N352 2.257 . S
O297 Co295 2.143 . S
O297 Co296 2.160 . S
C298 O299 1.278 . S
C298 O306 1.224 . S
O299 C298 1.278 . S
C300 O301 1.245 . S
C300 O312 1.232 . S
O301 C300 1.245 . S
O302 Co296 2.058 . S
O302 C328 1.269 . S
O303 Co295 2.074 . S
O303 C328 1.257 . S
H304 C329 0.930 . S
H305 C335 0.930 . S
O306 Co295 2.093 . S
O306 C298 1.224 . S
H307 C339 0.929 1_655 S
H308 C341 0.930 . S
H309 C342 0.930 . S
H310 C340 0.929 . S
H311 C343 0.928 . S
O312 Co296 2.057 . S
O312 C300 1.232 . S
H313 C332 0.929 . S
H314 C333 0.929 . S
H315 C345 0.931 . S
H316 C337 0.929 . S
H317 C346 0.930 . S
H318 C338 0.931 1_655 S
O319 Co295 2.097 . S
O319 C347 1.214 . S
H320 C348 0.929 . S
H321 C349 0.929 . S
H322 C350 0.930 . S
H323 C351 0.929 . S
H324 C353 0.930 . S
H325 C330 0.930 . S
H326 C334 0.930 . S
O327 Co296 2.037 . S
O327 C347 1.234 . S
C328 O302 1.269 . S
C328 O303 1.257 . S
C329 H304 0.930 . S
C329 C332 1.388 . S
C329 C334 1.418 . S
C330 H325 0.930 . S
C330 C333 1.404 . S
C330 C334 1.353 . S
N331 Co296 2.145 . S
N331 C332 1.397 . S
N331 C333 1.334 . S
C332 H313 0.929 . S
C332 C329 1.388 . S
C332 N331 1.397 . S
C333 H314 0.929 . S
C333 C330 1.404 . S
C333 N331 1.334 . S
C334 H326 0.930 . S
C334 C329 1.418 . S
C334 C330 1.353 . S
C335 H305 0.930 . S
C335 N336 1.330 . S
C335 C337 1.446 . S
N336 Co295 2.151 . S
N336 C335 1.330 . S
N336 C340 1.418 . S
C337 H316 0.929 . S
C337 C335 1.446 . S
C337 C338 1.332 . S
C338 H318 0.931 1_455 S
C338 C337 1.332 . S
C338 C339 1.267 . S
C339 H307 0.929 1_455 S
C339 C338 1.267 . S
C339 C340 1.251 . S
C340 H310 0.929 . S
C340 N336 1.418 . S
C340 C339 1.251 . S
C341 H308 0.930 . S
C341 C343 1.406 1_655 S
C341 C346 1.261 . S
C342 H309 0.930 . S
C342 N344 1.325 . S
C342 C345 1.357 1_455 S
C343 H311 0.928 . S
C343 C341 1.406 1_455 S
C343 N344 1.261 . S
N344 Co295 2.214 . S
N344 C342 1.325 . S
N344 C343 1.261 . S
C345 H315 0.931 . S
C345 C342 1.357 1_655 S
C345 C346 1.312 . S
C346 H317 0.930 . S
C346 C341 1.261 . S
C346 C345 1.312 . S
C347 O319 1.214 . S
C347 O327 1.234 . S
C348 H320 0.929 . S
C348 C351 1.391 . S
C348 C353 1.391 . S
C349 H321 0.929 . S
C349 C350 1.390 . S
C349 N352 1.391 . S
C350 H322 0.930 . S
C350 C349 1.390 . S
C350 C351 1.392 . S
C351 H323 0.929 . S
C351 C348 1.391 . S
C351 C350 1.392 . S
N352 Co296 2.257 . S
N352 C349 1.391 . S
N352 C353 1.388 . S
C353 H324 0.930 . S
C353 C348 1.391 . S
C353 N352 1.388 . S
Co354 O356 2.143 . S
Co354 O362 2.074 . S
Co354 O365 2.093 . S
Co354 O378 2.097 . S
Co354 N395 2.151 . S
Co354 N403 2.214 . S
Co355 O356 2.160 . S
Co355 O361 2.058 . S
Co355 O371 2.057 . S
Co355 O386 2.037 . S
Co355 N390 2.145 . S
Co355 N411 2.257 . S
O356 Co354 2.143 . S
O356 Co355 2.160 . S
C357 O358 1.278 . S
C357 O365 1.224 . S
O358 C357 1.278 . S
C359 O360 1.245 . S
C359 O371 1.232 . S
O360 C359 1.245 . S
O361 Co355 2.058 . S
O361 C387 1.269 . S
O362 Co354 2.074 . S
O362 C387 1.257 . S
H363 C388 0.930 . S
H364 C394 0.930 . S
O365 Co354 2.093 . S
O365 C357 1.224 . S
H366 C398 0.929 . S
H367 C400 0.930 . S
H368 C401 0.930 . S
H369 C399 0.929 . S
H370 C402 0.928 . S
O371 Co355 2.057 . S
O371 C359 1.232 . S
H372 C391 0.929 . S
H373 C392 0.929 . S
H374 C404 0.931 . S
H375 C396 0.929 . S
H376 C405 0.930 . S
H377 C397 0.931 . S
O378 Co354 2.097 . S
O378 C406 1.214 . S
H379 C407 0.929 . S
H380 C408 0.929 . S
H381 C409 0.930 . S
H382 C410 0.929 . S
H383 C412 0.930 . S
H384 C389 0.909 1_455 S
H385 C393 0.930 . S
O386 Co355 2.037 . S
O386 C406 1.234 . S
C387 O361 1.269 . S
C387 O362 1.257 . S
C388 H363 0.930 . S
C388 C391 1.388 . S
C388 C393 1.418 . S
C389 H384 0.909 1_655 S
C389 C392 1.404 . S
C389 C393 1.353 . S
N390 Co355 2.145 . S
N390 C391 1.397 . S
N390 C392 1.334 . S
C391 H372 0.929 . S
C391 C388 1.388 . S
C391 N390 1.397 . S
C392 H373 0.929 . S
C392 C389 1.404 . S
C392 N390 1.334 . S
C393 H385 0.930 . S
C393 C388 1.418 . S
C393 C389 1.353 . S
C394 H364 0.930 . S
C394 N395 1.330 . S
C394 C396 1.446 . S
N395 Co354 2.151 . S
N395 C394 1.330 . S
N395 C399 1.418 . S
C396 H375 0.929 . S
C396 C394 1.446 . S
C396 C397 1.332 . S
C397 H377 0.931 . S
C397 C396 1.332 . S
C397 C398 1.267 . S
C398 H366 0.929 . S
C398 C397 1.267 . S
C398 C399 1.251 . S
C399 H369 0.929 . S
C399 N395 1.418 . S
C399 C398 1.251 . S
C400 H367 0.930 . S
C400 C402 1.406 . S
C400 C405 1.261 . S
C401 H368 0.930 . S
C401 N403 1.325 . S
C401 C404 1.357 . S
C402 H370 0.928 . S
C402 C400 1.406 . S
C402 N403 1.261 . S
N403 Co354 2.214 . S
N403 C401 1.325 . S
N403 C402 1.261 . S
C404 H374 0.931 . S
C404 C401 1.357 . S
C404 C405 1.312 . S
C405 H376 0.930 . S
C405 C400 1.261 . S
C405 C404 1.312 . S
C406 O378 1.214 . S
C406 O386 1.234 . S
C407 H379 0.929 . S
C407 C410 1.391 . S
C407 C412 1.391 1_455 S
C408 H380 0.929 . S
C408 C409 1.390 1_655 S
C408 N411 1.391 . S
C409 H381 0.930 . S
C409 C408 1.390 1_455 S
C409 C410 1.392 . S
C410 H382 0.929 . S
C410 C407 1.391 . S
C410 C409 1.392 . S
N411 Co355 2.257 . S
N411 C408 1.391 . S
N411 C412 1.388 . S
C412 H383 0.930 . S
C412 C407 1.391 1_655 S
C412 N411 1.388 . S
Co413 O415 2.143 . S
Co413 O421 2.074 . S
Co413 O424 2.093 . S
Co413 O437 2.097 . S
Co413 N454 2.151 . S
Co413 N462 2.214 . S
Co414 O415 2.160 . S
Co414 O420 2.058 . S
Co414 O430 2.057 . S
Co414 O445 2.037 . S
Co414 N449 2.145 . S
Co414 N470 2.257 . S
O415 Co413 2.143 . S
O415 Co414 2.160 . S
C416 O417 1.278 . S
C416 O424 1.224 . S
O417 C416 1.278 . S
C418 O419 1.245 . S
C418 O430 1.232 . S
O419 C418 1.245 . S
O420 Co414 2.058 . S
O420 C446 1.269 . S
O421 Co413 2.074 . S
O421 C446 1.257 . S
H422 C447 0.930 . S
H423 C453 0.930 . S
O424 Co413 2.093 . S
O424 C416 1.224 . S
H425 C457 0.929 1_455 S
H426 C459 0.930 . S
H427 C460 0.930 . S
H428 C458 0.929 . S
H429 C461 0.928 . S
O430 Co414 2.057 . S
O430 C418 1.232 . S
H431 C450 0.929 . S
H432 C451 0.929 . S
H433 C463 0.931 . S
H434 C455 0.929 . S
H435 C464 0.930 . S
H436 C456 0.931 1_455 S
O437 Co413 2.097 . S
O437 C465 1.214 . S
H438 C466 0.929 . S
H439 C467 0.929 . S
H440 C468 0.930 . S
H441 C469 0.929 . S
H442 C471 0.930 . S
H443 C448 0.930 . S
H444 C452 0.930 . S
O445 Co414 2.037 . S
O445 C465 1.234 . S
C446 O420 1.269 . S
C446 O421 1.257 . S
C447 H422 0.930 . S
C447 C450 1.388 . S
C447 C452 1.418 . S
C448 H443 0.930 . S
C448 C451 1.404 . S
C448 C452 1.353 . S
N449 Co414 2.145 . S
N449 C450 1.397 . S
N449 C451 1.334 . S
C450 H431 0.929 . S
C450 C447 1.388 . S
C450 N449 1.397 . S
C451 H432 0.929 . S
C451 C448 1.404 . S
C451 N449 1.334 . S
C452 H444 0.930 . S
C452 C447 1.418 . S
C452 C448 1.353 . S
C453 H423 0.930 . S
C453 N454 1.330 . S
C453 C455 1.446 . S
N454 Co413 2.151 . S
N454 C453 1.330 . S
N454 C458 1.418 . S
C455 H434 0.929 . S
C455 C453 1.446 . S
C455 C456 1.332 . S
C456 H436 0.931 1_655 S
C456 C455 1.332 . S
C456 C457 1.267 . S
C457 H425 0.929 1_655 S
C457 C456 1.267 . S
C457 C458 1.251 . S
C458 H428 0.929 . S
C458 N454 1.418 . S
C458 C457 1.251 . S
C459 H426 0.930 . S
C459 C461 1.406 1_455 S
C459 C464 1.261 . S
C460 H427 0.930 . S
C460 N462 1.325 . S
C460 C463 1.357 1_655 S
C461 H429 0.928 . S
C461 C459 1.406 1_655 S
C461 N462 1.261 . S
N462 Co413 2.214 . S
N462 C460 1.325 . S
N462 C461 1.261 . S
C463 H433 0.931 . S
C463 C460 1.357 1_455 S
C463 C464 1.312 . S
C464 H435 0.930 . S
C464 C459 1.261 . S
C464 C463 1.312 . S
C465 O437 1.214 . S
C465 O445 1.234 . S
C466 H438 0.929 . S
C466 C469 1.391 . S
C466 C471 1.391 . S
C467 H439 0.929 . S
C467 C468 1.390 . S
C467 N470 1.391 . S
C468 H440 0.930 . S
C468 C467 1.390 . S
C468 C469 1.392 . S
C469 H441 0.929 . S
C469 C466 1.391 . S
C469 C468 1.392 . S
N470 Co414 2.257 . S
N470 C467 1.391 . S
N470 C471 1.388 . S
C471 H442 0.930 . S
C471 C466 1.391 . S
C471 N470 1.388 . S
Co472 O474 2.143 . S
Co472 O480 2.074 . S
Co472 O483 2.093 . S
Co472 O496 2.097 . S
Co472 N513 2.151 . S
Co472 N521 2.214 . S
Co473 O474 2.160 . S
Co473 O479 2.058 . S
Co473 O489 2.057 . S
Co473 O504 2.037 . S
Co473 N508 2.145 . S
Co473 N529 2.257 . S
O474 Co472 2.143 . S
O474 Co473 2.160 . S
C475 O476 1.278 1_565 S
C475 O483 1.224 1_565 S
O476 C475 1.278 1_545 S
C477 O478 1.245 . S
C477 O489 1.232 . S
O478 C477 1.245 . S
O479 Co473 2.058 . S
O479 C505 1.269 . S
O480 Co472 2.074 . S
O480 C505 1.257 . S
H481 C506 0.930 . S
H482 C512 0.930 . S
O483 Co472 2.093 . S
O483 C475 1.224 1_545 S
H484 C516 0.929 . S
H485 C518 0.930 . S
H486 C519 0.930 . S
H487 C517 0.929 . S
H488 C520 0.928 . S
O489 Co473 2.057 . S
O489 C477 1.232 . S
H490 C509 0.929 . S
H491 C510 0.929 . S
H492 C522 0.931 . S
H493 C514 0.929 . S
H494 C523 0.930 . S
H495 C515 0.931 . S
O496 Co472 2.097 . S
O496 C524 1.214 . S
H497 C525 0.929 . S
H498 C526 0.929 . S
H499 C527 0.930 . S
H500 C528 0.929 . S
H501 C530 0.930 . S
H502 C507 0.930 . S
H503 C511 0.930 . S
O504 Co473 2.037 . S
O504 C524 1.234 . S
C505 O479 1.269 . S
C505 O480 1.257 . S
C506 H481 0.930 . S
C506 C509 1.388 . S
C506 C511 1.418 . S
C507 H502 0.930 . S
C507 C510 1.404 . S
C507 C511 1.353 . S
N508 Co473 2.145 . S
N508 C509 1.397 . S
N508 C510 1.334 . S
C509 H490 0.929 . S
C509 C506 1.388 . S
C509 N508 1.397 . S
C510 H491 0.929 . S
C510 C507 1.404 . S
C510 N508 1.334 . S
C511 H503 0.930 . S
C511 C506 1.418 . S
C511 C507 1.353 . S
C512 H482 0.930 . S
C512 N513 1.330 1_565 S
C512 C514 1.446 . S
N513 Co472 2.151 . S
N513 C512 1.330 1_545 S
N513 C517 1.418 . S
C514 H493 0.929 . S
C514 C512 1.446 . S
C514 C515 1.332 . S
C515 H495 0.931 . S
C515 C514 1.332 . S
C515 C516 1.267 . S
C516 H484 0.929 . S
C516 C515 1.267 . S
C516 C517 1.251 1_565 S
C517 H487 0.929 . S
C517 N513 1.418 . S
C517 C516 1.251 1_545 S
C518 H485 0.930 . S
C518 C520 1.406 . S
C518 C523 1.261 . S
C519 H486 0.930 . S
C519 N521 1.325 . S
C519 C522 1.357 . S
C520 H488 0.928 . S
C520 C518 1.406 . S
C520 N521 1.261 . S
N521 Co472 2.214 . S
N521 C519 1.325 . S
N521 C520 1.261 . S
C522 H492 0.931 . S
C522 C519 1.357 . S
C522 C523 1.312 . S
C523 H494 0.930 . S
C523 C518 1.261 . S
C523 C522 1.312 . S
C524 O496 1.214 . S
C524 O504 1.234 . S
C525 H497 0.929 . S
C525 C528 1.391 . S
C525 C530 1.391 . S
C526 H498 0.929 . S
C526 C527 1.390 . S
C526 N529 1.391 . S
C527 H499 0.930 . S
C527 C526 1.390 . S
C527 C528 1.392 . S
C528 H500 0.929 . S
C528 C525 1.391 . S
C528 C527 1.392 . S
N529 Co473 2.257 . S
N529 C526 1.391 . S
N529 C530 1.388 . S
C530 H501 0.930 . S
C530 C525 1.391 . S
C530 N529 1.388 . S
Co531 O533 2.143 . S
Co531 O539 2.074 . S
Co531 O542 2.093 . S
Co531 O555 2.097 . S
Co531 N572 2.151 . S
Co531 N580 2.214 . S
Co532 O533 2.160 . S
Co532 O538 2.058 . S
Co532 O548 2.057 . S
Co532 O563 2.037 . S
Co532 N567 2.145 . S
Co532 N588 2.257 . S
O533 Co531 2.143 . S
O533 Co532 2.160 . S
C534 O535 1.278 1_565 S
C534 O542 1.224 1_565 S
O535 C534 1.278 1_545 S
C536 O537 1.245 . S
C536 O548 1.232 . S
O537 C536 1.245 . S
O538 Co532 2.058 . S
O538 C564 1.269 . S
O539 Co531 2.074 . S
O539 C564 1.257 . S
H540 C565 0.930 . S
H541 C571 0.930 . S
O542 Co531 2.093 . S
O542 C534 1.224 1_545 S
H543 C575 0.929 . S
H544 C577 0.930 . S
H545 C578 0.930 . S
H546 C576 0.929 . S
H547 C579 0.928 . S
O548 Co532 2.057 . S
O548 C536 1.232 . S
H549 C568 0.929 . S
H550 C569 0.929 . S
H551 C581 0.931 . S
H552 C573 0.929 . S
H553 C582 0.930 . S
H554 C574 0.931 . S
O555 Co531 2.097 . S
O555 C583 1.214 . S
H556 C584 0.929 . S
H557 C585 0.929 . S
H558 C586 0.930 . S
H559 C587 0.929 . S
H560 C589 0.930 . S
H561 C566 0.930 . S
H562 C570 0.930 . S
O563 Co532 2.037 . S
O563 C583 1.234 . S
C564 O538 1.269 . S
C564 O539 1.257 . S
C565 H540 0.930 . S
C565 C568 1.388 . S
C565 C570 1.418 . S
C566 H561 0.930 . S
C566 C569 1.404 . S
C566 C570 1.353 . S
N567 Co532 2.145 . S
N567 C568 1.397 . S
N567 C569 1.334 . S
C568 H549 0.929 . S
C568 C565 1.388 . S
C568 N567 1.397 . S
C569 H550 0.929 . S
C569 C566 1.404 . S
C569 N567 1.334 . S
C570 H562 0.930 . S
C570 C565 1.418 . S
C570 C566 1.353 . S
C571 H541 0.930 . S
C571 N572 1.330 1_565 S
C571 C573 1.446 . S
N572 Co531 2.151 . S
N572 C571 1.330 1_545 S
N572 C576 1.418 . S
C573 H552 0.929 . S
C573 C571 1.446 . S
C573 C574 1.332 . S
C574 H554 0.931 . S
C574 C573 1.332 . S
C574 C575 1.267 . S
C575 H543 0.929 . S
C575 C574 1.267 . S
C575 C576 1.251 1_565 S
C576 H546 0.929 . S
C576 N572 1.418 . S
C576 C575 1.251 1_545 S
C577 H544 0.930 . S
C577 C579 1.406 . S
C577 C582 1.261 . S
C578 H545 0.930 . S
C578 N580 1.325 . S
C578 C581 1.357 . S
C579 H547 0.928 . S
C579 C577 1.406 . S
C579 N580 1.261 . S
N580 Co531 2.214 . S
N580 C578 1.325 . S
N580 C579 1.261 . S
C581 H551 0.931 . S
C581 C578 1.357 . S
C581 C582 1.312 . S
C582 H553 0.930 . S
C582 C577 1.261 . S
C582 C581 1.312 . S
C583 O555 1.214 . S
C583 O563 1.234 . S
C584 H556 0.929 . S
C584 C587 1.391 . S
C584 C589 1.391 . S
C585 H557 0.929 . S
C585 C586 1.390 . S
C585 N588 1.391 . S
C586 H558 0.930 . S
C586 C585 1.390 . S
C586 C587 1.392 . S
C587 H559 0.929 . S
C587 C584 1.391 . S
C587 C586 1.392 . S
N588 Co532 2.257 . S
N588 C585 1.391 . S
N588 C589 1.388 . S
C589 H560 0.930 . S
C589 C584 1.391 . S
C589 N588 1.388 . S
Co590 O592 2.143 . S
Co590 O598 2.074 . S
Co590 O601 2.093 . S
Co590 O614 2.097 . S
Co590 N631 2.151 . S
Co590 N639 2.214 . S
Co591 O592 2.160 . S
Co591 O597 2.058 . S
Co591 O607 2.057 . S
Co591 O622 2.037 . S
Co591 N626 2.145 . S
Co591 N647 2.257 . S
O592 Co590 2.143 . S
O592 Co591 2.160 . S
C593 O594 1.278 1_545 S
C593 O601 1.224 1_545 S
O594 C593 1.278 1_565 S
C595 O596 1.245 . S
C595 O607 1.232 . S
O596 C595 1.245 . S
O597 Co591 2.058 . S
O597 C623 1.269 . S
O598 Co590 2.074 . S
O598 C623 1.257 . S
H599 C624 0.930 . S
H600 C630 0.930 . S
O601 Co590 2.093 . S
O601 C593 1.224 1_565 S
H602 C634 0.929 . S
H603 C636 0.930 . S
H604 C637 0.930 . S
H605 C635 0.929 . S
H606 C638 0.928 . S
O607 Co591 2.057 . S
O607 C595 1.232 . S
H608 C627 0.929 . S
H609 C628 0.929 . S
H610 C640 0.931 . S
H611 C632 0.929 . S
H612 C641 0.930 . S
H613 C633 0.931 . S
O614 Co590 2.097 . S
O614 C642 1.214 . S
H615 C643 0.929 . S
H616 C644 0.929 . S
H617 C645 0.930 . S
H618 C646 0.929 . S
H619 C648 0.930 . S
H620 C625 0.930 . S
H621 C629 0.930 . S
O622 Co591 2.037 . S
O622 C642 1.234 . S
C623 O597 1.269 . S
C623 O598 1.257 . S
C624 H599 0.930 . S
C624 C627 1.388 . S
C624 C629 1.418 . S
C625 H620 0.930 . S
C625 C628 1.404 . S
C625 C629 1.353 . S
N626 Co591 2.145 . S
N626 C627 1.397 . S
N626 C628 1.334 . S
C627 H608 0.929 . S
C627 C624 1.388 . S
C627 N626 1.397 . S
C628 H609 0.929 . S
C628 C625 1.404 . S
C628 N626 1.334 . S
C629 H621 0.930 . S
C629 C624 1.418 . S
C629 C625 1.353 . S
C630 H600 0.930 . S
C630 N631 1.330 1_545 S
C630 C632 1.446 . S
N631 Co590 2.151 . S
N631 C630 1.330 1_565 S
N631 C635 1.418 . S
C632 H611 0.929 . S
C632 C630 1.446 . S
C632 C633 1.332 . S
C633 H613 0.931 . S
C633 C632 1.332 . S
C633 C634 1.267 . S
C634 H602 0.929 . S
C634 C633 1.267 . S
C634 C635 1.251 1_545 S
C635 H605 0.929 . S
C635 N631 1.418 . S
C635 C634 1.251 1_565 S
C636 H603 0.930 . S
C636 C638 1.406 . S
C636 C641 1.261 . S
C637 H604 0.930 . S
C637 N639 1.325 . S
C637 C640 1.357 . S
C638 H606 0.928 . S
C638 C636 1.406 . S
C638 N639 1.261 . S
N639 Co590 2.214 . S
N639 C637 1.325 . S
N639 C638 1.261 . S
C640 H610 0.931 . S
C640 C637 1.357 . S
C640 C641 1.312 . S
C641 H612 0.930 . S
C641 C636 1.261 . S
C641 C640 1.312 . S
C642 O614 1.214 . S
C642 O622 1.234 . S
C643 H615 0.929 . S
C643 C646 1.391 . S
C643 C648 1.391 . S
C644 H616 0.929 . S
C644 C645 1.390 . S
C644 N647 1.391 . S
C645 H617 0.930 . S
C645 C644 1.390 . S
C645 C646 1.392 . S
C646 H618 0.929 . S
C646 C643 1.391 . S
C646 C645 1.392 . S
N647 Co591 2.257 . S
N647 C644 1.391 . S
N647 C648 1.388 . S
C648 H619 0.930 . S
C648 C643 1.391 . S
C648 N647 1.388 . S
Co649 O651 2.143 . S
Co649 O657 2.074 . S
Co649 O660 2.093 . S
Co649 O673 2.097 . S
Co649 N690 2.151 . S
Co649 N698 2.214 . S
Co650 O651 2.160 . S
Co650 O656 2.058 . S
Co650 O666 2.057 . S
Co650 O681 2.037 . S
Co650 N685 2.145 . S
Co650 N706 2.257 . S
O651 Co649 2.143 . S
O651 Co650 2.160 . S
C652 O653 1.278 1_545 S
C652 O660 1.224 1_545 S
O653 C652 1.278 1_565 S
C654 O655 1.245 . S
C654 O666 1.232 . S
O655 C654 1.245 . S
O656 Co650 2.058 . S
O656 C682 1.269 . S
O657 Co649 2.074 . S
O657 C682 1.257 . S
H658 C683 0.930 . S
H659 C689 0.930 . S
O660 Co649 2.093 . S
O660 C652 1.224 1_565 S
H661 C693 0.929 . S
H662 C695 0.930 . S
H663 C696 0.930 . S
H664 C694 0.929 . S
H665 C697 0.928 . S
O666 Co650 2.057 . S
O666 C654 1.232 . S
H667 C686 0.929 . S
H668 C687 0.929 . S
H669 C699 0.931 . S
H670 C691 0.929 . S
H671 C700 0.930 . S
H672 C692 0.931 . S
O673 Co649 2.097 . S
O673 C701 1.214 . S
H674 C702 0.929 . S
H675 C703 0.929 . S
H676 C704 0.930 . S
H677 C705 0.929 . S
H678 C707 0.930 . S
H679 C684 0.930 . S
H680 C688 0.930 . S
O681 Co650 2.037 . S
O681 C701 1.234 . S
C682 O656 1.269 . S
C682 O657 1.257 . S
C683 H658 0.930 . S
C683 C686 1.388 . S
C683 C688 1.418 . S
C684 H679 0.930 . S
C684 C687 1.404 . S
C684 C688 1.353 . S
N685 Co650 2.145 . S
N685 C686 1.397 . S
N685 C687 1.334 . S
C686 H667 0.929 . S
C686 C683 1.388 . S
C686 N685 1.397 . S
C687 H668 0.929 . S
C687 C684 1.404 . S
C687 N685 1.334 . S
C688 H680 0.930 . S
C688 C683 1.418 . S
C688 C684 1.353 . S
C689 H659 0.930 . S
C689 N690 1.330 1_545 S
C689 C691 1.446 . S
N690 Co649 2.151 . S
N690 C689 1.330 1_565 S
N690 C694 1.418 . S
C691 H670 0.929 . S
C691 C689 1.446 . S
C691 C692 1.332 . S
C692 H672 0.931 . S
C692 C691 1.332 . S
C692 C693 1.267 . S
C693 H661 0.929 . S
C693 C692 1.267 . S
C693 C694 1.251 1_545 S
C694 H664 0.929 . S
C694 N690 1.418 . S
C694 C693 1.251 1_565 S
C695 H662 0.930 . S
C695 C697 1.406 . S
C695 C700 1.261 . S
C696 H663 0.930 . S
C696 N698 1.325 . S
C696 C699 1.357 . S
C697 H665 0.928 . S
C697 C695 1.406 . S
C697 N698 1.261 . S
N698 Co649 2.214 . S
N698 C696 1.325 . S
N698 C697 1.261 . S
C699 H669 0.931 . S
C699 C696 1.357 . S
C699 C700 1.312 . S
C700 H671 0.930 . S
C700 C695 1.261 . S
C700 C699 1.312 . S
C701 O673 1.214 . S
C701 O681 1.234 . S
C702 H674 0.929 . S
C702 C705 1.391 . S
C702 C707 1.391 . S
C703 H675 0.929 . S
C703 C704 1.390 . S
C703 N706 1.391 . S
C704 H676 0.930 . S
C704 C703 1.390 . S
C704 C705 1.392 . S
C705 H677 0.929 . S
C705 C702 1.391 . S
C705 C704 1.392 . S
N706 Co650 2.257 . S
N706 C703 1.391 . S
N706 C707 1.388 . S
C707 H678 0.930 . S
C707 C702 1.391 . S
C707 N706 1.388 . S
Co708 O710 2.143 . S
Co708 O716 2.074 . S
Co708 O719 2.093 . S
Co708 O732 2.097 . S
Co708 N749 2.151 . S
Co708 N757 2.214 . S
Co709 O710 2.160 . S
Co709 O715 2.058 . S
Co709 O725 2.057 . S
Co709 O740 2.037 . S
Co709 N744 2.145 . S
Co709 N765 2.257 . S
O710 Co708 2.143 . S
O710 Co709 2.160 . S
C711 O712 1.278 . S
C711 O719 1.224 . S
O712 C711 1.278 . S
C713 O714 1.245 . S
C713 O725 1.232 . S
O714 C713 1.245 . S
O715 Co709 2.058 . S
O715 C741 1.269 . S
O716 Co708 2.074 . S
O716 C741 1.257 . S
H717 C742 0.930 . S
H718 C748 0.930 . S
O719 Co708 2.093 . S
O719 C711 1.224 . S
H720 C752 0.929 . S
H721 C754 0.930 . S
H722 C755 0.930 . S
H723 C753 0.929 . S
H724 C756 0.928 . S
O725 Co709 2.057 . S
O725 C713 1.232 . S
H726 C745 0.929 . S
H727 C746 0.929 . S
H728 C758 0.931 . S
H729 C750 0.929 . S
H730 C759 0.930 . S
H731 C751 0.931 . S
O732 Co708 2.097 . S
O732 C760 1.214 . S
H733 C761 0.929 . S
H734 C762 0.929 . S
H735 C763 0.930 . S
H736 C764 0.929 . S
H737 C766 0.930 . S
H738 C743 0.930 . S
H739 C747 0.930 . S
O740 Co709 2.037 . S
O740 C760 1.234 . S
C741 O715 1.269 . S
C741 O716 1.257 . S
C742 H717 0.930 . S
C742 C745 1.388 . S
C742 C747 1.418 . S
C743 H738 0.930 . S
C743 C746 1.404 . S
C743 C747 1.353 . S
N744 Co709 2.145 . S
N744 C745 1.397 . S
N744 C746 1.334 . S
C745 H726 0.929 . S
C745 C742 1.388 . S
C745 N744 1.397 . S
C746 H727 0.929 . S
C746 C743 1.404 . S
C746 N744 1.334 . S
C747 H739 0.930 . S
C747 C742 1.418 . S
C747 C743 1.353 . S
C748 H718 0.930 . S
C748 N749 1.330 . S
C748 C750 1.446 . S
N749 Co708 2.151 . S
N749 C748 1.330 . S
N749 C753 1.418 . S
C750 H729 0.929 . S
C750 C748 1.446 . S
C750 C751 1.332 . S
C751 H731 0.931 . S
C751 C750 1.332 . S
C751 C752 1.267 . S
C752 H720 0.929 . S
C752 C751 1.267 . S
C752 C753 1.251 . S
C753 H723 0.929 . S
C753 N749 1.418 . S
C753 C752 1.251 . S
C754 H721 0.930 . S
C754 C756 1.406 . S
C754 C759 1.261 . S
C755 H722 0.930 . S
C755 N757 1.325 . S
C755 C758 1.357 . S
C756 H724 0.928 . S
C756 C754 1.406 . S
C756 N757 1.261 . S
N757 Co708 2.214 . S
N757 C755 1.325 . S
N757 C756 1.261 . S
C758 H728 0.931 . S
C758 C755 1.357 . S
C758 C759 1.312 . S
C759 H730 0.930 . S
C759 C754 1.261 . S
C759 C758 1.312 . S
C760 O732 1.214 . S
C760 O740 1.234 . S
C761 H733 0.929 . S
C761 C764 1.391 . S
C761 C766 1.391 . S
C762 H734 0.929 . S
C762 C763 1.390 . S
C762 N765 1.391 . S
C763 H735 0.930 . S
C763 C762 1.390 . S
C763 C764 1.392 . S
C764 H736 0.929 . S
C764 C761 1.391 . S
C764 C763 1.392 . S
N765 Co709 2.257 . S
N765 C762 1.391 . S
N765 C766 1.388 . S
C766 H737 0.930 . S
C766 C761 1.391 . S
C766 N765 1.388 . S
Co767 O769 2.143 . S
Co767 O775 2.074 . S
Co767 O778 2.093 . S
Co767 O791 2.097 . S
Co767 N808 2.151 . S
Co767 N816 2.214 . S
Co768 O769 2.160 . S
Co768 O774 2.058 . S
Co768 O784 2.057 . S
Co768 O799 2.037 . S
Co768 N803 2.145 . S
Co768 N824 2.257 . S
O769 Co767 2.143 . S
O769 Co768 2.160 . S
C770 O771 1.278 . S
C770 O778 1.224 . S
O771 C770 1.278 . S
C772 O773 1.245 . S
C772 O784 1.232 . S
O773 C772 1.245 . S
O774 Co768 2.058 . S
O774 C800 1.269 . S
O775 Co767 2.074 . S
O775 C800 1.257 . S
H776 C801 0.930 . S
H777 C807 0.930 . S
O778 Co767 2.093 . S
O778 C770 1.224 . S
H779 C811 0.929 . S
H780 C813 0.930 . S
H781 C814 0.930 . S
H782 C812 0.929 . S
H783 C815 0.928 . S
O784 Co768 2.057 . S
O784 C772 1.232 . S
H785 C804 0.929 . S
H786 C805 0.929 . S
H787 C817 0.931 . S
H788 C809 0.929 . S
H789 C818 0.930 . S
H790 C810 0.931 . S
O791 Co767 2.097 . S
O791 C819 1.214 . S
H792 C820 0.929 . S
H793 C821 0.929 . S
H794 C822 0.930 . S
H795 C823 0.929 . S
H796 C825 0.930 . S
H797 C802 0.930 . S
H798 C806 0.930 . S
O799 Co768 2.037 . S
O799 C819 1.234 . S
C800 O774 1.269 . S
C800 O775 1.257 . S
C801 H776 0.930 . S
C801 C804 1.388 . S
C801 C806 1.418 . S
C802 H797 0.930 . S
C802 C805 1.404 . S
C802 C806 1.353 . S
N803 Co768 2.145 . S
N803 C804 1.397 . S
N803 C805 1.334 . S
C804 H785 0.929 . S
C804 C801 1.388 . S
C804 N803 1.397 . S
C805 H786 0.929 . S
C805 C802 1.404 . S
C805 N803 1.334 . S
C806 H798 0.930 . S
C806 C801 1.418 . S
C806 C802 1.353 . S
C807 H777 0.930 . S
C807 N808 1.330 . S
C807 C809 1.446 . S
N808 Co767 2.151 . S
N808 C807 1.330 . S
N808 C812 1.418 . S
C809 H788 0.929 . S
C809 C807 1.446 . S
C809 C810 1.332 . S
C810 H790 0.931 . S
C810 C809 1.332 . S
C810 C811 1.267 . S
C811 H779 0.929 . S
C811 C810 1.267 . S
C811 C812 1.251 . S
C812 H782 0.929 . S
C812 N808 1.418 . S
C812 C811 1.251 . S
C813 H780 0.930 . S
C813 C815 1.406 . S
C813 C818 1.261 . S
C814 H781 0.930 . S
C814 N816 1.325 . S
C814 C817 1.357 . S
C815 H783 0.928 . S
C815 C813 1.406 . S
C815 N816 1.261 . S
N816 Co767 2.214 . S
N816 C814 1.325 . S
N816 C815 1.261 . S
C817 H787 0.931 . S
C817 C814 1.357 . S
C817 C818 1.312 . S
C818 H789 0.930 . S
C818 C813 1.261 . S
C818 C817 1.312 . S
C819 O791 1.214 . S
C819 O799 1.234 . S
C820 H792 0.929 . S
C820 C823 1.391 . S
C820 C825 1.391 . S
C821 H793 0.929 . S
C821 C822 1.390 . S
C821 N824 1.391 . S
C822 H794 0.930 . S
C822 C821 1.390 . S
C822 C823 1.392 . S
C823 H795 0.929 . S
C823 C820 1.391 . S
C823 C822 1.392 . S
N824 Co768 2.257 . S
N824 C821 1.391 . S
N824 C825 1.388 . S
C825 H796 0.930 . S
C825 C820 1.391 . S
C825 N824 1.388 . S
Co826 O828 2.143 . S
Co826 O834 2.074 . S
Co826 O837 2.093 . S
Co826 O850 2.097 . S
Co826 N867 2.151 . S
Co826 N875 2.214 . S
Co827 O828 2.160 . S
Co827 O833 2.058 . S
Co827 O843 2.057 . S
Co827 O858 2.037 . S
Co827 N862 2.145 . S
Co827 N883 2.257 . S
O828 Co826 2.143 . S
O828 Co827 2.160 . S
C829 O830 1.278 . S
C829 O837 1.224 . S
O830 C829 1.278 . S
C831 O832 1.245 . S
C831 O843 1.232 . S
O832 C831 1.245 . S
O833 Co827 2.058 . S
O833 C859 1.269 . S
O834 Co826 2.074 . S
O834 C859 1.257 . S
H835 C860 0.930 . S
H836 C866 0.930 . S
O837 Co826 2.093 . S
O837 C829 1.224 . S
H838 C870 0.929 . S
H839 C872 0.930 . S
H840 C873 0.930 . S
H841 C871 0.929 . S
H842 C874 0.928 . S
O843 Co827 2.057 . S
O843 C831 1.232 . S
H844 C863 0.929 . S
H845 C864 0.929 . S
H846 C876 0.931 . S
H847 C868 0.929 . S
H848 C877 0.930 . S
H849 C869 0.931 . S
O850 Co826 2.097 . S
O850 C878 1.214 . S
H851 C879 0.929 . S
H852 C880 0.929 . S
H853 C881 0.930 . S
H854 C882 0.929 . S
H855 C884 0.930 . S
H856 C861 0.930 . S
H857 C865 0.930 . S
O858 Co827 2.037 . S
O858 C878 1.234 . S
C859 O833 1.269 . S
C859 O834 1.257 . S
C860 H835 0.930 . S
C860 C863 1.388 . S
C860 C865 1.418 . S
C861 H856 0.930 . S
C861 C864 1.404 . S
C861 C865 1.353 . S
N862 Co827 2.145 . S
N862 C863 1.397 . S
N862 C864 1.334 . S
C863 H844 0.929 . S
C863 C860 1.388 . S
C863 N862 1.397 . S
C864 H845 0.929 . S
C864 C861 1.404 . S
C864 N862 1.334 . S
C865 H857 0.930 . S
C865 C860 1.418 . S
C865 C861 1.353 . S
C866 H836 0.930 . S
C866 N867 1.330 . S
C866 C868 1.446 . S
N867 Co826 2.151 . S
N867 C866 1.330 . S
N867 C871 1.418 . S
C868 H847 0.929 . S
C868 C866 1.446 . S
C868 C869 1.332 . S
C869 H849 0.931 . S
C869 C868 1.332 . S
C869 C870 1.267 . S
C870 H838 0.929 . S
C870 C869 1.267 . S
C870 C871 1.251 . S
C871 H841 0.929 . S
C871 N867 1.418 . S
C871 C870 1.251 . S
C872 H839 0.930 . S
C872 C874 1.406 . S
C872 C877 1.261 . S
C873 H840 0.930 . S
C873 N875 1.325 . S
C873 C876 1.357 . S
C874 H842 0.928 . S
C874 C872 1.406 . S
C874 N875 1.261 . S
N875 Co826 2.214 . S
N875 C873 1.325 . S
N875 C874 1.261 . S
C876 H846 0.931 . S
C876 C873 1.357 . S
C876 C877 1.312 . S
C877 H848 0.930 . S
C877 C872 1.261 . S
C877 C876 1.312 . S
C878 O850 1.214 . S
C878 O858 1.234 . S
C879 H851 0.929 . S
C879 C882 1.391 . S
C879 C884 1.391 . S
C880 H852 0.929 . S
C880 C881 1.390 . S
C880 N883 1.391 . S
C881 H853 0.930 . S
C881 C880 1.390 . S
C881 C882 1.392 . S
C882 H854 0.929 . S
C882 C879 1.391 . S
C882 C881 1.392 . S
N883 Co827 2.257 . S
N883 C880 1.391 . S
N883 C884 1.388 . S
C884 H855 0.930 . S
C884 C879 1.391 . S
C884 N883 1.388 . S
Co885 O887 2.143 . S
Co885 O893 2.074 . S
Co885 O896 2.093 . S
Co885 O909 2.097 . S
Co885 N926 2.151 . S
Co885 N934 2.214 . S
Co886 O887 2.160 . S
Co886 O892 2.058 . S
Co886 O902 2.057 . S
Co886 O917 2.037 . S
Co886 N921 2.145 . S
Co886 N942 2.257 . S
O887 Co885 2.143 . S
O887 Co886 2.160 . S
C888 O889 1.278 . S
C888 O896 1.224 . S
O889 C888 1.278 . S
C890 O891 1.245 . S
C890 O902 1.232 . S
O891 C890 1.245 . S
O892 Co886 2.058 . S
O892 C918 1.269 . S
O893 Co885 2.074 . S
O893 C918 1.257 . S
H894 C919 0.930 . S
H895 C925 0.930 . S
O896 Co885 2.093 . S
O896 C888 1.224 . S
H897 C929 0.929 . S
H898 C931 0.930 . S
H899 C932 0.930 . S
H900 C930 0.929 . S
H901 C933 0.928 . S
O902 Co886 2.057 . S
O902 C890 1.232 . S
H903 C922 0.929 . S
H904 C923 0.929 . S
H905 C935 0.931 . S
H906 C927 0.929 . S
H907 C936 0.930 . S
H908 C928 0.931 . S
O909 Co885 2.097 . S
O909 C937 1.214 . S
H910 C938 0.929 . S
H911 C939 0.929 . S
H912 C940 0.930 . S
H913 C941 0.929 . S
H914 C943 0.930 . S
H915 C920 0.930 . S
H916 C924 0.930 . S
O917 Co886 2.037 . S
O917 C937 1.234 . S
C918 O892 1.269 . S
C918 O893 1.257 . S
C919 H894 0.930 . S
C919 C922 1.388 . S
C919 C924 1.418 . S
C920 H915 0.930 . S
C920 C923 1.404 . S
C920 C924 1.353 . S
N921 Co886 2.145 . S
N921 C922 1.397 . S
N921 C923 1.334 . S
C922 H903 0.929 . S
C922 C919 1.388 . S
C922 N921 1.397 . S
C923 H904 0.929 . S
C923 C920 1.404 . S
C923 N921 1.334 . S
C924 H916 0.930 . S
C924 C919 1.418 . S
C924 C920 1.353 . S
C925 H895 0.930 . S
C925 N926 1.330 . S
C925 C927 1.446 . S
N926 Co885 2.151 . S
N926 C925 1.330 . S
N926 C930 1.418 . S
C927 H906 0.929 . S
C927 C925 1.446 . S
C927 C928 1.332 . S
C928 H908 0.931 . S
C928 C927 1.332 . S
C928 C929 1.267 . S
C929 H897 0.929 . S
C929 C928 1.267 . S
C929 C930 1.251 . S
C930 H900 0.929 . S
C930 N926 1.418 . S
C930 C929 1.251 . S
C931 H898 0.930 . S
C931 C933 1.406 . S
C931 C936 1.261 . S
C932 H899 0.930 . S
C932 N934 1.325 . S
C932 C935 1.357 . S
C933 H901 0.928 . S
C933 C931 1.406 . S
C933 N934 1.261 . S
N934 Co885 2.214 . S
N934 C932 1.325 . S
N934 C933 1.261 . S
C935 H905 0.931 . S
C935 C932 1.357 . S
C935 C936 1.312 . S
C936 H907 0.930 . S
C936 C931 1.261 . S
C936 C935 1.312 . S
C937 O909 1.214 . S
C937 O917 1.234 . S
C938 H910 0.929 . S
C938 C941 1.391 . S
C938 C943 1.391 . S
C939 H911 0.929 . S
C939 C940 1.390 . S
C939 N942 1.391 . S
C940 H912 0.930 . S
C940 C939 1.390 . S
C940 C941 1.392 . S
C941 H913 0.929 . S
C941 C938 1.391 . S
C941 C940 1.392 . S
N942 Co886 2.257 . S
N942 C939 1.391 . S
N942 C943 1.388 . S
C943 H914 0.930 . S
C943 C938 1.391 . S
C943 N942 1.388 . S
H944 C950 0.930 . S
H945 C953 0.930 . S
H946 C954 0.930 . S
H947 C955 0.930 . S
H948 C958 0.930 . S
H949 C959 0.930 . S
C950 H944 0.930 . S
C950 C951 1.355 . S
C950 C952 1.415 . S
C951 C950 1.355 . S
C951 C953 1.419 . S
C952 C950 1.415 . S
C952 C957 1.425 . S
C952 C959 1.409 . S
C953 H945 0.930 . S
C953 C951 1.419 . S
C953 C954 1.362 . S
C954 H946 0.930 . S
C954 C953 1.362 . S
C954 C957 1.409 . S
C955 H947 0.930 . S
C955 C956 1.355 . S
C955 C957 1.415 . S
C956 C955 1.355 . S
C956 C958 1.419 . S
C957 C952 1.425 . S
C957 C954 1.409 . S
C957 C955 1.415 . S
C958 H948 0.930 . S
C958 C956 1.419 . S
C958 C959 1.362 . S
C959 H949 0.930 . S
C959 C952 1.409 . S
C959 C958 1.362 . S
H960 C966 0.930 . S
H961 C969 0.930 . S
H962 C970 0.930 . S
H963 C971 0.930 . S
H964 C974 0.930 . S
H965 C975 0.930 . S
C966 H960 0.930 . S
C966 C967 1.355 1_545 S
C966 C968 1.415 1_655 S
C967 C966 1.355 1_565 S
C967 C969 1.419 . S
C968 C966 1.415 1_455 S
C968 C973 1.425 1_445 S
C968 C975 1.409 . S
C969 H961 0.930 . S
C969 C967 1.419 . S
C969 C970 1.362 . S
C970 H962 0.930 . S
C970 C969 1.362 . S
C970 C973 1.409 . S
C971 H963 0.930 . S
C971 C972 1.355 1_565 S
C971 C973 1.415 1_455 S
C972 C971 1.355 1_545 S
C972 C974 1.419 . S
C973 C968 1.425 1_665 S
C973 C970 1.409 . S
C973 C971 1.415 1_655 S
C974 H964 0.930 . S
C974 C972 1.419 . S
C974 C975 1.362 . S
C975 H965 0.930 . S
C975 C968 1.409 . S
C975 C974 1.362 . S
H976 C982 0.930 . S
H977 C985 0.930 . S
H978 C986 0.930 . S
H979 C987 0.930 . S
H980 C990 0.930 . S
H981 C991 0.930 . S
C982 H976 0.930 . S
C982 C983 1.355 1_545 S
C982 C984 1.415 . S
C983 C982 1.355 1_565 S
C983 C985 1.419 . S
C984 C982 1.415 . S
C984 C989 1.425 1_545 S
C984 C991 1.409 . S
C985 H977 0.930 . S
C985 C983 1.419 . S
C985 C986 1.362 . S
C986 H978 0.930 . S
C986 C985 1.362 . S
C986 C989 1.409 . S
C987 H979 0.930 . S
C987 C988 1.355 1_565 S
C987 C989 1.415 . S
C988 C987 1.355 1_545 S
C988 C990 1.419 . S
C989 C984 1.425 1_565 S
C989 C986 1.409 . S
C989 C987 1.415 . S
C990 H980 0.930 . S
C990 C988 1.419 . S
C990 C991 1.362 . S
C991 H981 0.930 . S
C991 C984 1.409 . S
C991 C990 1.362 . S
H992 C998 0.930 . S
H993 C1001 0.930 . S
H994 C1002 0.930 . S
H995 C1003 0.930 . S
H996 C1006 0.930 . S
H997 C1007 0.930 . S
C998 H992 0.930 . S
C998 C999 1.355 . S
C998 C1000 1.415 . S
C999 C998 1.355 . S
C999 C1001 1.419 . S
C1000 C998 1.415 . S
C1000 C1005 1.425 1_455 S
C1000 C1007 1.409 . S
C1001 H993 0.930 . S
C1001 C999 1.419 . S
C1001 C1002 1.362 1_455 S
C1002 H994 0.930 . S
C1002 C1001 1.362 1_655 S
C1002 C1005 1.409 . S
C1003 H995 0.930 . S
C1003 C1004 1.355 . S
C1003 C1005 1.415 . S
C1004 C1003 1.355 . S
C1004 C1006 1.419 . S
C1005 C1000 1.425 1_655 S
C1005 C1002 1.409 . S
C1005 C1003 1.415 . S
C1006 H996 0.930 . S
C1006 C1004 1.419 . S
C1006 C1007 1.362 1_655 S
C1007 H997 0.930 . S
C1007 C1000 1.409 . S
C1007 C1006 1.362 1_455 S
H1008 C1014 0.930 . S
H1009 C1017 0.930 . S
H1010 C1018 0.930 . S
H1011 C1019 0.930 . S
H1012 C1022 0.930 . S
H1013 C1023 0.930 . S
C1014 H1008 0.930 . S
C1014 C1015 1.355 . S
C1014 C1016 1.415 . S
C1015 C1014 1.355 . S
C1015 C1017 1.419 . S
C1016 C1014 1.415 . S
C1016 C1021 1.425 . S
C1016 C1023 1.409 . S
C1017 H1009 0.930 . S
C1017 C1015 1.419 . S
C1017 C1018 1.362 . S
C1018 H1010 0.930 . S
C1018 C1017 1.362 . S
C1018 C1021 1.409 . S
C1019 H1011 0.930 . S
C1019 C1020 1.355 . S
C1019 C1021 1.415 . S
C1020 C1019 1.355 . S
C1020 C1022 1.419 . S
C1021 C1016 1.425 . S
C1021 C1018 1.409 . S
C1021 C1019 1.415 . S
C1022 H1012 0.930 . S
C1022 C1020 1.419 . S
C1022 C1023 1.362 . S
C1023 H1013 0.930 . S
C1023 C1016 1.409 . S
C1023 C1022 1.362 . S
H1024 C1030 0.930 . S
H1025 C1033 0.930 . S
H1026 C1034 0.930 . S
H1027 C1035 0.930 . S
H1028 C1038 0.930 . S
H1029 C1039 0.930 . S
C1030 H1024 0.930 . S
C1030 C1031 1.355 1_565 S
C1030 C1032 1.415 . S
C1031 C1030 1.355 1_545 S
C1031 C1033 1.419 . S
C1032 C1030 1.415 . S
C1032 C1037 1.425 1_565 S
C1032 C1039 1.409 . S
C1033 H1025 0.930 . S
C1033 C1031 1.419 . S
C1033 C1034 1.362 . S
C1034 H1026 0.930 . S
C1034 C1033 1.362 . S
C1034 C1037 1.409 . S
C1035 H1027 0.930 . S
C1035 C1036 1.355 1_545 S
C1035 C1037 1.415 . S
C1036 C1035 1.355 1_565 S
C1036 C1038 1.419 . S
C1037 C1032 1.425 1_545 S
C1037 C1034 1.409 . S
C1037 C1035 1.415 . S
C1038 H1028 0.930 . S
C1038 C1036 1.419 . S
C1038 C1039 1.362 . S
C1039 H1029 0.930 . S
C1039 C1032 1.409 . S
C1039 C1038 1.362 . S
H1040 C1046 0.930 . S
H1041 C1049 0.930 . S
H1042 C1050 0.930 . S
H1043 C1051 0.930 . S
H1044 C1054 0.930 . S
H1045 C1055 0.930 . S
C1046 H1040 0.930 . S
C1046 C1047 1.355 . S
C1046 C1048 1.415 1_655 S
C1047 C1046 1.355 . S
C1047 C1049 1.419 . S
C1048 C1046 1.415 1_455 S
C1048 C1053 1.425 1_455 S
C1048 C1055 1.409 . S
C1049 H1041 0.930 . S
C1049 C1047 1.419 . S
C1049 C1050 1.362 . S
C1050 H1042 0.930 . S
C1050 C1049 1.362 . S
C1050 C1053 1.409 . S
C1051 H1043 0.930 . S
C1051 C1052 1.355 . S
C1051 C1053 1.415 1_455 S
C1052 C1051 1.355 . S
C1052 C1054 1.419 . S
C1053 C1048 1.425 1_655 S
C1053 C1050 1.409 . S
C1053 C1051 1.415 1_655 S
C1054 H1044 0.930 . S
C1054 C1052 1.419 . S
C1054 C1055 1.362 . S
C1055 H1045 0.930 . S
C1055 C1048 1.409 . S
C1055 C1054 1.362 . S
H1056 C1062 0.930 . S
H1057 C1065 0.930 . S
H1058 C1066 0.930 . S
H1059 C1067 0.930 . S
H1060 C1070 0.930 . S
H1061 C1071 0.930 . S
C1062 H1056 0.930 . S
C1062 C1063 1.355 . S
C1062 C1064 1.415 1_554 S
C1063 C1062 1.355 . S
C1063 C1065 1.419 . S
C1064 C1062 1.415 1_556 S
C1064 C1069 1.425 1_556 S
C1064 C1071 1.409 . S
C1065 H1057 0.930 . S
C1065 C1063 1.419 . S
C1065 C1066 1.362 . S
C1066 H1058 0.930 . S
C1066 C1065 1.362 . S
C1066 C1069 1.409 . S
C1067 H1059 0.930 . S
C1067 C1068 1.355 . S
C1067 C1069 1.415 1_556 S
C1068 C1067 1.355 . S
C1068 C1070 1.419 . S
C1069 C1064 1.425 1_554 S
C1069 C1066 1.409 . S
C1069 C1067 1.415 1_554 S
C1070 H1060 0.930 . S
C1070 C1068 1.419 . S
C1070 C1071 1.362 . S
C1071 H1061 0.930 . S
C1071 C1064 1.409 . S
C1071 C1070 1.362 . S
H1072 C1078 0.930 . S
H1073 C1081 0.930 . S
H1074 C1082 0.930 . S
H1075 C1083 0.930 . S
H1076 C1086 0.930 . S
H1077 C1087 0.930 . S
C1078 H1072 0.930 . S
C1078 C1079 1.355 . S
C1078 C1080 1.415 1_455 S
C1079 C1078 1.355 . S
C1079 C1081 1.419 . S
C1080 C1078 1.415 1_655 S
C1080 C1085 1.425 1_656 S
C1080 C1087 1.409 . S
C1081 H1073 0.930 . S
C1081 C1079 1.419 . S
C1081 C1082 1.362 1_556 S
C1082 H1074 0.930 . S
C1082 C1081 1.362 1_554 S
C1082 C1085 1.409 . S
C1083 H1075 0.930 . S
C1083 C1084 1.355 . S
C1083 C1085 1.415 1_655 S
C1084 C1083 1.355 . S
C1084 C1086 1.419 . S
C1085 C1080 1.425 1_454 S
C1085 C1082 1.409 . S
C1085 C1083 1.415 1_455 S
C1086 H1076 0.930 . S
C1086 C1084 1.419 . S
C1086 C1087 1.362 1_554 S
C1087 H1077 0.930 . S
C1087 C1080 1.409 . S
C1087 C1086 1.362 1_556 S
H1088 C1094 0.930 . S
H1089 C1097 0.930 . S
H1090 C1098 0.930 . S
H1091 C1099 0.930 . S
H1092 C1102 0.930 . S
H1093 C1103 0.930 . S
C1094 H1088 0.930 . S
C1094 C1095 1.355 . S
C1094 C1096 1.415 . S
C1095 C1094 1.355 . S
C1095 C1097 1.419 . S
C1096 C1094 1.415 . S
C1096 C1101 1.425 . S
C1096 C1103 1.409 . S
C1097 H1089 0.930 . S
C1097 C1095 1.419 . S
C1097 C1098 1.362 . S
C1098 H1090 0.930 . S
C1098 C1097 1.362 . S
C1098 C1101 1.409 . S
C1099 H1091 0.930 . S
C1099 C1100 1.355 . S
C1099 C1101 1.415 . S
C1100 C1099 1.355 . S
C1100 C1102 1.419 . S
C1101 C1096 1.425 . S
C1101 C1098 1.409 . S
C1101 C1099 1.415 . S
C1102 H1092 0.930 . S
C1102 C1100 1.419 . S
C1102 C1103 1.362 . S
C1103 H1093 0.930 . S
C1103 C1096 1.409 . S
C1103 C1102 1.362 . S
H1104 C1110 0.946 . S
H1105 C1113 0.930 . S
H1106 C1114 0.930 . S
H1107 C1115 0.946 . S
H1108 C1118 0.930 . S
H1109 C1119 0.930 . S
C1110 H1104 0.946 . S
C1110 C1111 1.355 . S
C1110 C1112 1.415 1_556 S
C1111 C1110 1.355 . S
C1111 C1113 1.419 . S
C1112 C1110 1.415 1_554 S
C1112 C1117 1.425 1_554 S
C1112 C1119 1.409 . S
C1113 H1105 0.930 . S
C1113 C1111 1.419 . S
C1113 C1114 1.362 . S
C1114 H1106 0.930 . S
C1114 C1113 1.362 . S
C1114 C1117 1.409 . S
C1115 H1107 0.946 . S
C1115 C1116 1.355 . S
C1115 C1117 1.415 1_554 S
C1116 C1115 1.355 . S
C1116 C1118 1.419 . S
C1117 C1112 1.425 1_556 S
C1117 C1114 1.409 . S
C1117 C1115 1.415 1_556 S
C1118 H1108 0.930 . S
C1118 C1116 1.419 . S
C1118 C1119 1.362 . S
C1119 H1109 0.930 . S
C1119 C1112 1.409 . S
C1119 C1118 1.362 . S
H1120 C1126 0.930 . S
H1121 C1129 0.930 . S
H1122 C1130 0.930 . S
H1123 C1131 0.930 . S
H1124 C1134 0.930 . S
H1125 C1135 0.930 . S
C1126 H1120 0.930 . S
C1126 C1127 1.355 . S
C1126 C1128 1.415 . S
C1127 C1126 1.355 . S
C1127 C1129 1.419 . S
C1128 C1126 1.415 . S
C1128 C1133 1.425 . S
C1128 C1135 1.409 . S
C1129 H1121 0.930 . S
C1129 C1127 1.419 . S
C1129 C1130 1.362 . S
C1130 H1122 0.930 . S
C1130 C1129 1.362 . S
C1130 C1133 1.409 . S
C1131 H1123 0.930 . S
C1131 C1132 1.355 . S
C1131 C1133 1.415 . S
C1132 C1131 1.355 . S
C1132 C1134 1.419 . S
C1133 C1128 1.425 . S
C1133 C1130 1.409 . S
C1133 C1131 1.415 . S
C1134 H1124 0.930 . S
C1134 C1132 1.419 . S
C1134 C1135 1.362 . S
C1135 H1125 0.930 . S
C1135 C1128 1.409 . S
C1135 C1134 1.362 . S
H1136 C1142 0.930 . S
H1137 C1145 0.930 . S
H1138 C1146 0.930 . S
H1139 C1147 0.930 . S
H1140 C1150 0.930 . S
H1141 C1151 0.930 . S
C1142 H1136 0.930 . S
C1142 C1143 1.355 1_565 S
C1142 C1144 1.415 . S
C1143 C1142 1.355 1_545 S
C1143 C1145 1.419 . S
C1144 C1142 1.415 . S
C1144 C1149 1.425 1_566 S
C1144 C1151 1.409 . S
C1145 H1137 0.930 . S
C1145 C1143 1.419 . S
C1145 C1146 1.362 1_556 S
C1146 H1138 0.930 . S
C1146 C1145 1.362 1_554 S
C1146 C1149 1.409 . S
C1147 H1139 0.930 . S
C1147 C1148 1.355 1_545 S
C1147 C1149 1.415 . S
C1148 C1147 1.355 1_565 S
C1148 C1150 1.419 . S
C1149 C1144 1.425 1_544 S
C1149 C1146 1.409 . S
C1149 C1147 1.415 . S
C1150 H1140 0.930 . S
C1150 C1148 1.419 . S
C1150 C1151 1.362 1_554 S
C1151 H1141 0.930 . S
C1151 C1144 1.409 . S
C1151 C1150 1.362 1_556 S
H1152 C1158 0.930 . S
H1153 C1161 0.930 . S
H1154 C1162 0.930 . S
H1155 C1163 0.930 . S
H1156 C1166 0.930 . S
H1157 C1167 0.930 . S
C1158 H1152 0.930 . S
C1158 C1159 1.355 . S
C1158 C1160 1.415 . S
C1159 C1158 1.355 . S
C1159 C1161 1.419 . S
C1160 C1158 1.415 . S
C1160 C1165 1.425 . S
C1160 C1167 1.409 . S
C1161 H1153 0.930 . S
C1161 C1159 1.419 . S
C1161 C1162 1.362 . S
C1162 H1154 0.930 . S
C1162 C1161 1.362 . S
C1162 C1165 1.409 . S
C1163 H1155 0.930 . S
C1163 C1164 1.355 . S
C1163 C1165 1.415 . S
C1164 C1163 1.355 . S
C1164 C1166 1.419 . S
C1165 C1160 1.425 . S
C1165 C1162 1.409 . S
C1165 C1163 1.415 . S
C1166 H1156 0.930 . S
C1166 C1164 1.419 . S
C1166 C1167 1.362 . S
C1167 H1157 0.930 . S
C1167 C1160 1.409 . S
C1167 C1166 1.362 . S
H1168 C1174 0.930 . S
H1169 C1177 0.930 . S
H1170 C1178 0.930 . S
H1171 C1179 0.930 . S
H1172 C1182 0.930 . S
H1173 C1183 0.930 . S
C1174 H1168 0.930 . S
C1174 C1175 1.355 . S
C1174 C1176 1.415 . S
C1175 C1174 1.355 . S
C1175 C1177 1.419 . S
C1176 C1174 1.415 . S
C1176 C1181 1.425 . S
C1176 C1183 1.409 . S
C1177 H1169 0.930 . S
C1177 C1175 1.419 . S
C1177 C1178 1.362 . S
C1178 H1170 0.930 . S
C1178 C1177 1.362 . S
C1178 C1181 1.409 . S
C1179 H1171 0.930 . S
C1179 C1180 1.355 . S
C1179 C1181 1.415 . S
C1180 C1179 1.355 . S
C1180 C1182 1.419 . S
C1181 C1176 1.425 . S
C1181 C1178 1.409 . S
C1181 C1179 1.415 . S
C1182 H1172 0.930 . S
C1182 C1180 1.419 . S
C1182 C1183 1.362 . S
C1183 H1173 0.930 . S
C1183 C1176 1.409 . S
C1183 C1182 1.362 . S
H1184 C1190 0.930 . S
H1185 C1193 0.930 . S
H1186 C1194 0.930 . S
H1187 C1195 0.930 . S
H1188 C1198 0.930 . S
H1189 C1199 0.930 . S
C1190 H1184 0.930 . S
C1190 C1191 1.355 . S
C1190 C1192 1.415 . S
C1191 C1190 1.355 . S
C1191 C1193 1.419 . S
C1192 C1190 1.415 . S
C1192 C1197 1.425 . S
C1192 C1199 1.409 . S
C1193 H1185 0.930 . S
C1193 C1191 1.419 . S
C1193 C1194 1.362 . S
C1194 H1186 0.930 . S
C1194 C1193 1.362 . S
C1194 C1197 1.409 . S
C1195 H1187 0.930 . S
C1195 C1196 1.355 . S
C1195 C1197 1.415 . S
C1196 C1195 1.355 . S
C1196 C1198 1.419 . S
C1197 C1192 1.425 . S
C1197 C1194 1.409 . S
C1197 C1195 1.415 . S
C1198 H1188 0.930 . S
C1198 C1196 1.419 . S
C1198 C1199 1.362 . S
C1199 H1189 0.930 . S
C1199 C1192 1.409 . S
C1199 C1198 1.362 . S
H1200 C1206 0.930 . S
H1201 C1209 0.930 . S
H1202 C1210 0.930 . S
H1203 C1211 0.930 . S
H1204 C1214 0.930 . S
H1205 C1215 0.930 . S
C1206 H1200 0.930 . S
C1206 C1207 1.355 . S
C1206 C1208 1.415 . S
C1207 C1206 1.355 . S
C1207 C1209 1.419 . S
C1208 C1206 1.415 . S
C1208 C1213 1.425 . S
C1208 C1215 1.409 . S
C1209 H1201 0.930 . S
C1209 C1207 1.419 . S
C1209 C1210 1.362 . S
C1210 H1202 0.930 . S
C1210 C1209 1.362 . S
C1210 C1213 1.409 . S
C1211 H1203 0.930 . S
C1211 C1212 1.355 . S
C1211 C1213 1.415 . S
C1212 C1211 1.355 . S
C1212 C1214 1.419 . S
C1213 C1208 1.425 . S
C1213 C1210 1.409 . S
C1213 C1211 1.415 . S
C1214 H1204 0.930 . S
C1214 C1212 1.419 . S
C1214 C1215 1.362 . S
C1215 H1205 0.930 . S
C1215 C1208 1.409 . S
C1215 C1214 1.362 . S
H1216 C1222 0.930 . S
H1217 C1225 0.930 . S
H1218 C1226 0.930 . S
H1219 C1227 0.930 . S
H1220 C1230 0.930 . S
H1221 C1231 0.930 . S
C1222 H1216 0.930 . S
C1222 C1223 1.355 . S
C1222 C1224 1.415 . S
C1223 C1222 1.355 . S
C1223 C1225 1.419 . S
C1224 C1222 1.415 . S
C1224 C1229 1.425 . S
C1224 C1231 1.409 . S
C1225 H1217 0.930 . S
C1225 C1223 1.419 . S
C1225 C1226 1.362 . S
C1226 H1218 0.930 . S
C1226 C1225 1.362 . S
C1226 C1229 1.409 . S
C1227 H1219 0.930 . S
C1227 C1228 1.355 . S
C1227 C1229 1.415 . S
C1228 C1227 1.355 . S
C1228 C1230 1.419 . S
C1229 C1224 1.425 . S
C1229 C1226 1.409 . S
C1229 C1227 1.415 . S
C1230 H1220 0.930 . S
C1230 C1228 1.419 . S
C1230 C1231 1.362 . S
C1231 H1221 0.930 . S
C1231 C1224 1.409 . S
C1231 C1230 1.362 . S
H1232 C1238 0.930 . S
H1233 C1241 0.930 . S
H1234 C1242 0.930 . S
H1235 C1243 0.930 . S
H1236 C1246 0.930 . S
H1237 C1247 0.930 . S
C1238 H1232 0.930 . S
C1238 C1239 1.355 . S
C1238 C1240 1.415 . S
C1239 C1238 1.355 . S
C1239 C1241 1.419 . S
C1240 C1238 1.415 . S
C1240 C1245 1.425 . S
C1240 C1247 1.409 . S
C1241 H1233 0.930 . S
C1241 C1239 1.419 . S
C1241 C1242 1.362 . S
C1242 H1234 0.930 . S
C1242 C1241 1.362 . S
C1242 C1245 1.409 . S
C1243 H1235 0.930 . S
C1243 C1244 1.355 . S
C1243 C1245 1.415 . S
C1244 C1243 1.355 . S
C1244 C1246 1.419 . S
C1245 C1240 1.425 . S
C1245 C1242 1.409 . S
C1245 C1243 1.415 . S
C1246 H1236 0.930 . S
C1246 C1244 1.419 . S
C1246 C1247 1.362 . S
C1247 H1237 0.930 . S
C1247 C1240 1.409 . S
C1247 C1246 1.362 . S
H1248 C1254 0.930 . S
H1249 C1257 0.930 . S
H1250 C1258 0.930 . S
H1251 C1259 0.930 . S
H1252 C1262 0.930 . S
H1253 C1263 0.930 . S
C1254 H1248 0.930 . S
C1254 C1255 1.355 . S
C1254 C1256 1.415 . S
C1255 C1254 1.355 . S
C1255 C1257 1.419 . S
C1256 C1254 1.415 . S
C1256 C1261 1.425 . S
C1256 C1263 1.409 . S
C1257 H1249 0.930 . S
C1257 C1255 1.419 . S
C1257 C1258 1.362 . S
C1258 H1250 0.930 . S
C1258 C1257 1.362 . S
C1258 C1261 1.409 . S
C1259 H1251 0.930 . S
C1259 C1260 1.355 . S
C1259 C1261 1.415 . S
C1260 C1259 1.355 . S
C1260 C1262 1.419 . S
C1261 C1256 1.425 . S
C1261 C1258 1.409 . S
C1261 C1259 1.415 . S
C1262 H1252 0.930 . S
C1262 C1260 1.419 . S
C1262 C1263 1.362 . S
C1263 H1253 0.930 . S
C1263 C1256 1.409 . S
C1263 C1262 1.362 . S
H1264 C1270 0.930 . S
H1265 C1273 0.930 . S
H1266 C1274 0.930 . S
H1267 C1275 0.930 . S
H1268 C1278 0.930 . S
H1269 C1279 0.930 . S
C1270 H1264 0.930 . S
C1270 C1271 1.355 . S
C1270 C1272 1.415 . S
C1271 C1270 1.355 . S
C1271 C1273 1.419 . S
C1272 C1270 1.415 . S
C1272 C1277 1.425 . S
C1272 C1279 1.409 . S
C1273 H1265 0.930 . S
C1273 C1271 1.419 . S
C1273 C1274 1.362 . S
C1274 H1266 0.930 . S
C1274 C1273 1.362 . S
C1274 C1277 1.409 . S
C1275 H1267 0.930 . S
C1275 C1276 1.355 . S
C1275 C1277 1.415 . S
C1276 C1275 1.355 . S
C1276 C1278 1.419 . S
C1277 C1272 1.425 . S
C1277 C1274 1.409 . S
C1277 C1275 1.415 . S
C1278 H1268 0.930 . S
C1278 C1276 1.419 . S
C1278 C1279 1.362 . S
C1279 H1269 0.930 . S
C1279 C1272 1.409 . S
C1279 C1278 1.362 . S
H1280 C1286 0.930 . S
H1281 C1289 0.930 . S
H1282 C1290 0.930 . S
H1283 C1291 0.930 . S
H1284 C1294 0.930 . S
H1285 C1295 0.930 . S
C1286 H1280 0.930 . S
C1286 C1287 1.355 . S
C1286 C1288 1.415 . S
C1287 C1286 1.355 . S
C1287 C1289 1.419 . S
C1288 C1286 1.415 . S
C1288 C1293 1.425 . S
C1288 C1295 1.409 . S
C1289 H1281 0.930 . S
C1289 C1287 1.419 . S
C1289 C1290 1.362 . S
C1290 H1282 0.930 . S
C1290 C1289 1.362 . S
C1290 C1293 1.409 . S
C1291 H1283 0.930 . S
C1291 C1292 1.355 . S
C1291 C1293 1.415 . S
C1292 C1291 1.355 . S
C1292 C1294 1.419 . S
C1293 C1288 1.425 . S
C1293 C1290 1.409 . S
C1293 C1291 1.415 . S
C1294 H1284 0.930 . S
C1294 C1292 1.419 . S
C1294 C1295 1.362 . S
C1295 H1285 0.930 . S
C1295 C1288 1.409 . S
C1295 C1294 1.362 . S
H1296 C1302 0.930 . S
H1297 C1305 0.930 . S
H1298 C1306 0.930 . S
H1299 C1307 0.930 . S
H1300 C1310 0.930 . S
H1301 C1311 0.930 . S
C1302 H1296 0.930 . S
C1302 C1303 1.355 . S
C1302 C1304 1.415 . S
C1303 C1302 1.355 . S
C1303 C1305 1.419 . S
C1304 C1302 1.415 . S
C1304 C1309 1.425 . S
C1304 C1311 1.409 . S
C1305 H1297 0.930 . S
C1305 C1303 1.419 . S
C1305 C1306 1.362 . S
C1306 H1298 0.930 . S
C1306 C1305 1.362 . S
C1306 C1309 1.409 . S
C1307 H1299 0.930 . S
C1307 C1308 1.355 . S
C1307 C1309 1.415 . S
C1308 C1307 1.355 . S
C1308 C1310 1.419 . S
C1309 C1304 1.425 . S
C1309 C1306 1.409 . S
C1309 C1307 1.415 . S
C1310 H1300 0.930 . S
C1310 C1308 1.419 . S
C1310 C1311 1.362 . S
C1311 H1301 0.930 . S
C1311 C1304 1.409 . S
C1311 C1310 1.362 . S
H1312 C1318 0.930 . S
H1313 C1321 0.930 . S
H1314 C1322 0.930 . S
H1315 C1323 0.930 . S
H1316 C1326 0.930 . S
H1317 C1327 0.930 . S
C1318 H1312 0.930 . S
C1318 C1319 1.355 . S
C1318 C1320 1.415 . S
C1319 C1318 1.355 . S
C1319 C1321 1.419 . S
C1320 C1318 1.415 . S
C1320 C1325 1.425 . S
C1320 C1327 1.409 . S
C1321 H1313 0.930 . S
C1321 C1319 1.419 . S
C1321 C1322 1.362 . S
C1322 H1314 0.930 . S
C1322 C1321 1.362 . S
C1322 C1325 1.409 . S
C1323 H1315 0.930 . S
C1323 C1324 1.355 . S
C1323 C1325 1.415 . S
C1324 C1323 1.355 . S
C1324 C1326 1.419 . S
C1325 C1320 1.425 . S
C1325 C1322 1.409 . S
C1325 C1323 1.415 . S
C1326 H1316 0.930 . S
C1326 C1324 1.419 . S
C1326 C1327 1.362 . S
C1327 H1317 0.930 . S
C1327 C1320 1.409 . S
C1327 C1326 1.362 . S
H1328 C1334 0.930 . S
H1329 C1337 0.930 . S
H1330 C1338 0.930 . S
H1331 C1339 0.930 . S
H1332 C1342 0.930 . S
H1333 C1343 0.930 . S
C1334 H1328 0.930 . S
C1334 C1335 1.355 . S
C1334 C1336 1.415 . S
C1335 C1334 1.355 . S
C1335 C1337 1.419 . S
C1336 C1334 1.415 . S
C1336 C1341 1.425 . S
C1336 C1343 1.409 . S
C1337 H1329 0.930 . S
C1337 C1335 1.419 . S
C1337 C1338 1.362 . S
C1338 H1330 0.930 . S
C1338 C1337 1.362 . S
C1338 C1341 1.409 . S
C1339 H1331 0.930 . S
C1339 C1340 1.355 . S
C1339 C1341 1.415 . S
C1340 C1339 1.355 . S
C1340 C1342 1.419 . S
C1341 C1336 1.425 . S
C1341 C1338 1.409 . S
C1341 C1339 1.415 . S
C1342 H1332 0.930 . S
C1342 C1340 1.419 . S
C1342 C1343 1.362 . S
C1343 H1333 0.930 . S
C1343 C1336 1.409 . S
C1343 C1342 1.362 . S
H1344 C1350 0.930 . S
H1345 C1353 0.930 . S
H1346 C1354 0.930 . S
H1347 C1355 0.930 . S
H1348 C1358 0.930 . S
H1349 C1359 0.930 . S
C1350 H1344 0.930 . S
C1350 C1351 1.355 . S
C1350 C1352 1.415 . S
C1351 C1350 1.355 . S
C1351 C1353 1.419 . S
C1352 C1350 1.415 . S
C1352 C1357 1.425 . S
C1352 C1359 1.409 . S
C1353 H1345 0.930 . S
C1353 C1351 1.419 . S
C1353 C1354 1.362 . S
C1354 H1346 0.930 . S
C1354 C1353 1.362 . S
C1354 C1357 1.409 . S
C1355 H1347 0.930 . S
C1355 C1356 1.355 . S
C1355 C1357 1.415 . S
C1356 C1355 1.355 . S
C1356 C1358 1.419 . S
C1357 C1352 1.425 . S
C1357 C1354 1.409 . S
C1357 C1355 1.415 . S
C1358 H1348 0.930 . S
C1358 C1356 1.419 . S
C1358 C1359 1.362 . S
C1359 H1349 0.930 . S
C1359 C1352 1.409 . S
C1359 C1358 1.362 . S
H1360 C1366 0.930 . S
H1361 C1369 0.930 . S
H1362 C1370 0.930 . S
H1363 C1371 0.930 . S
H1364 C1374 0.930 . S
H1365 C1375 0.930 . S
C1366 H1360 0.930 . S
C1366 C1367 1.355 . S
C1366 C1368 1.415 . S
C1367 C1366 1.355 . S
C1367 C1369 1.419 . S
C1368 C1366 1.415 . S
C1368 C1373 1.425 . S
C1368 C1375 1.409 . S
C1369 H1361 0.930 . S
C1369 C1367 1.419 . S
C1369 C1370 1.362 . S
C1370 H1362 0.930 . S
C1370 C1369 1.362 . S
C1370 C1373 1.409 . S
C1371 H1363 0.930 . S
C1371 C1372 1.355 . S
C1371 C1373 1.415 . S
C1372 C1371 1.355 . S
C1372 C1374 1.419 . S
C1373 C1368 1.425 . S
C1373 C1370 1.409 . S
C1373 C1371 1.415 . S
C1374 H1364 0.930 . S
C1374 C1372 1.419 . S
C1374 C1375 1.362 . S
C1375 H1365 0.930 . S
C1375 C1368 1.409 . S
C1375 C1374 1.362 . S
H1376 C1382 0.930 . S
H1377 C1385 0.930 . S
H1378 C1386 0.930 . S
H1379 C1387 0.930 . S
H1380 C1390 0.930 . S
H1381 C1391 0.930 . S
C1382 H1376 0.930 . S
C1382 C1383 1.355 . S
C1382 C1384 1.415 . S
C1383 C1382 1.355 . S
C1383 C1385 1.419 . S
C1384 C1382 1.415 . S
C1384 C1389 1.425 . S
C1384 C1391 1.409 . S
C1385 H1377 0.930 . S
C1385 C1383 1.419 . S
C1385 C1386 1.362 . S
C1386 H1378 0.930 . S
C1386 C1385 1.362 . S
C1386 C1389 1.409 . S
C1387 H1379 0.930 . S
C1387 C1388 1.355 . S
C1387 C1389 1.415 . S
C1388 C1387 1.355 . S
C1388 C1390 1.419 . S
C1389 C1384 1.425 . S
C1389 C1386 1.409 . S
C1389 C1387 1.415 . S
C1390 H1380 0.930 . S
C1390 C1388 1.419 . S
C1390 C1391 1.362 . S
C1391 H1381 0.930 . S
C1391 C1384 1.409 . S
C1391 C1390 1.362 . S
H1392 C1398 0.930 . S
H1393 C1401 0.930 . S
H1394 C1402 0.930 . S
H1395 C1403 0.930 . S
H1396 C1406 0.930 . S
H1397 C1407 0.930 . S
C1398 H1392 0.930 . S
C1398 C1399 1.355 . S
C1398 C1400 1.415 . S
C1399 C1398 1.355 . S
C1399 C1401 1.419 . S
C1400 C1398 1.415 . S
C1400 C1405 1.425 . S
C1400 C1407 1.409 . S
C1401 H1393 0.930 . S
C1401 C1399 1.419 . S
C1401 C1402 1.362 . S
C1402 H1394 0.930 . S
C1402 C1401 1.362 . S
C1402 C1405 1.409 . S
C1403 H1395 0.930 . S
C1403 C1404 1.355 . S
C1403 C1405 1.415 . S
C1404 C1403 1.355 . S
C1404 C1406 1.419 . S
C1405 C1400 1.425 . S
C1405 C1402 1.409 . S
C1405 C1403 1.415 . S
C1406 H1396 0.930 . S
C1406 C1404 1.419 . S
C1406 C1407 1.362 . S
C1407 H1397 0.930 . S
C1407 C1400 1.409 . S
C1407 C1406 1.362 . S
H1408 C1414 0.930 . S
H1409 C1417 0.930 . S
H1410 C1418 0.930 . S
H1411 C1419 0.930 . S
H1412 C1422 0.930 . S
H1413 C1423 0.930 . S
C1414 H1408 0.930 . S
C1414 C1415 1.355 . S
C1414 C1416 1.415 . S
C1415 C1414 1.355 . S
C1415 C1417 1.419 . S
C1416 C1414 1.415 . S
C1416 C1421 1.425 . S
C1416 C1423 1.409 . S
C1417 H1409 0.930 . S
C1417 C1415 1.419 . S
C1417 C1418 1.362 . S
C1418 H1410 0.930 . S
C1418 C1417 1.362 . S
C1418 C1421 1.409 . S
C1419 H1411 0.930 . S
C1419 C1420 1.355 . S
C1419 C1421 1.415 . S
C1420 C1419 1.355 . S
C1420 C1422 1.419 . S
C1421 C1416 1.425 . S
C1421 C1418 1.409 . S
C1421 C1419 1.415 . S
C1422 H1412 0.930 . S
C1422 C1420 1.419 . S
C1422 C1423 1.362 . S
C1423 H1413 0.930 . S
C1423 C1416 1.409 . S
C1423 C1422 1.362 . S
H1424 C1430 0.930 . S
H1425 C1433 0.930 . S
H1426 C1434 0.930 . S
H1427 C1435 0.930 . S
H1428 C1438 0.930 . S
H1429 C1439 0.930 . S
C1430 H1424 0.930 . S
C1430 C1431 1.355 . S
C1430 C1432 1.415 . S
C1431 C1430 1.355 . S
C1431 C1433 1.419 . S
C1432 C1430 1.415 . S
C1432 C1437 1.425 . S
C1432 C1439 1.409 . S
C1433 H1425 0.930 . S
C1433 C1431 1.419 . S
C1433 C1434 1.362 . S
C1434 H1426 0.930 . S
C1434 C1433 1.362 . S
C1434 C1437 1.409 . S
C1435 H1427 0.930 . S
C1435 C1436 1.355 . S
C1435 C1437 1.415 . S
C1436 C1435 1.355 . S
C1436 C1438 1.419 . S
C1437 C1432 1.425 . S
C1437 C1434 1.409 . S
C1437 C1435 1.415 . S
C1438 H1428 0.930 . S
C1438 C1436 1.419 . S
C1438 C1439 1.362 . S
C1439 H1429 0.930 . S
C1439 C1432 1.409 . S
C1439 C1438 1.362 . S
H1440 C1446 0.930 . S
H1441 C1449 0.930 . S
H1442 C1450 0.930 . S
H1443 C1451 0.930 . S
H1444 C1454 0.930 . S
H1445 C1455 0.930 . S
C1446 H1440 0.930 . S
C1446 C1447 1.355 . S
C1446 C1448 1.415 . S
C1447 C1446 1.355 . S
C1447 C1449 1.419 . S
C1448 C1446 1.415 . S
C1448 C1453 1.425 . S
C1448 C1455 1.409 . S
C1449 H1441 0.930 . S
C1449 C1447 1.419 . S
C1449 C1450 1.362 . S
C1450 H1442 0.930 . S
C1450 C1449 1.362 . S
C1450 C1453 1.409 . S
C1451 H1443 0.930 . S
C1451 C1452 1.355 . S
C1451 C1453 1.415 . S
C1452 C1451 1.355 . S
C1452 C1454 1.419 . S
C1453 C1448 1.425 . S
C1453 C1450 1.409 . S
C1453 C1451 1.415 . S
C1454 H1444 0.930 . S
C1454 C1452 1.419 . S
C1454 C1455 1.362 . S
C1455 H1445 0.930 . S
C1455 C1448 1.409 . S
C1455 C1454 1.362 . S
C951 C859 1.508 . S
C956 C33 1.508 . S
C967 C123 1.496 . S
C972 C5 1.496 . S
C983 C654 1.499 . S
C988 C64 1.499 . S
C999 C92 1.504 . S
C1004 C446 1.504 . S
C1015 C151 1.507 . S
C1020 C741 1.507 . S
C1031 C536 1.495 . S
C1036 C182 1.495 . S
C1047 C210 1.508 . S
C1052 C328 1.508 . S
C1063 C623 1.504 . S
C1068 C269 1.504 . S
C1079 C241 1.494 . S
C1084 C359 1.494 . S
C1095 C890 1.499 . S
C1100 C300 1.499 . S
C1111 C505 1.506 . S
C1116 C387 1.506 . S
C1127 C772 1.509 . S
C1132 C418 1.509 . S
C1143 C477 1.496 . S
C1148 C595 1.496 . S
C1159 C918 1.507 . S
C1164 C564 1.507 . S
C1175 C682 1.505 . S
C1180 C800 1.505 . S
C1191 C831 1.510 . S
C1196 C713 1.510 . S
C1207 C347 1.577 . S
C1212 C3 1.583 . S
C1223 C52 1.578 . S
C1228 C298 1.584 . S
C1239 C111 1.579 . S
C1244 C239 1.556 . S
C1255 C288 1.577 . S
C1260 C62 1.562 . S
C1271 C465 1.579 . S
C1276 C121 1.584 . S
C1287 C416 1.572 . S
C1292 C170 1.582 . S
C1303 C357 1.575 . S
C1308 C229 1.576 . S
C1319 C180 1.583 . S
C1324 C406 1.580 . S
C1335 C819 1.581 . S
C1340 C475 1.557 . S
C1351 C524 1.582 . S
C1356 C770 1.565 . S
C1367 C583 1.582 . S
C1372 C711 1.565 . S
C1383 C760 1.581 . S
C1388 C534 1.578 . S
C1399 C937 1.580 . S
C1404 C593 1.556 . S
C1415 C888 1.581 . S
C1420 C642 1.580 . S
C1431 C701 1.582 . S
C1436 C829 1.562 . S
C1447 C878 1.580 . S
C1452 C652 1.581 . S
