# Generated by pormake.
# Topology ana-e, (6)-cn, num edge types: 1
# Building blocks:
#     Node 0, Type 0, BuildingBlock: BETDEL_clean_sbu_0, # of connection points: 6
#     Node 1, Type 0, BuildingBlock: BETDEL_clean_sbu_0, # of connection points: 6
#     Node 2, Type 0, BuildingBlock: BETDEL_clean_sbu_0, # of connection points: 6
#     Node 3, Type 0, BuildingBlock: BETDEL_clean_sbu_0, # of connection points: 6
#     Node 4, Type 0, BuildingBlock: BETDEL_clean_sbu_0, # of connection points: 6
#     Node 5, Type 0, BuildingBlock: BETDEL_clean_sbu_0, # of connection points: 6
#     Node 6, Type 0, BuildingBlock: BETDEL_clean_sbu_0, # of connection points: 6
#     Node 7, Type 0, BuildingBlock: BETDEL_clean_sbu_0, # of connection points: 6
#     Node 8, Type 0, BuildingBlock: BETDEL_clean_sbu_0, # of connection points: 6
#     Node 9, Type 0, BuildingBlock: BETDEL_clean_sbu_0, # of connection points: 6
#     Node 10, Type 0, BuildingBlock: BETDEL_clean_sbu_0, # of connection points: 6
#     Node 11, Type 0, BuildingBlock: BETDEL_clean_sbu_0, # of connection points: 6
#     Node 12, Type 0, BuildingBlock: BETDEL_clean_sbu_0, # of connection points: 6
#     Node 13, Type 0, BuildingBlock: BETDEL_clean_sbu_0, # of connection points: 6
#     Node 14, Type 0, BuildingBlock: BETDEL_clean_sbu_0, # of connection points: 6
#     Node 15, Type 0, BuildingBlock: BETDEL_clean_sbu_0, # of connection points: 6
#     Node 16, Type 0, BuildingBlock: BETDEL_clean_sbu_0, # of connection points: 6
#     Node 17, Type 0, BuildingBlock: BETDEL_clean_sbu_0, # of connection points: 6
#     Node 18, Type 0, BuildingBlock: BETDEL_clean_sbu_0, # of connection points: 6
#     Node 19, Type 0, BuildingBlock: BETDEL_clean_sbu_0, # of connection points: 6
#     Node 20, Type 0, BuildingBlock: BETDEL_clean_sbu_0, # of connection points: 6
#     Node 21, Type 0, BuildingBlock: BETDEL_clean_sbu_0, # of connection points: 6
#     Node 22, Type 0, BuildingBlock: BETDEL_clean_sbu_0, # of connection points: 6
#     Node 23, Type 0, BuildingBlock: BETDEL_clean_sbu_0, # of connection points: 6
#     Node 24, Type 0, BuildingBlock: BETDEL_clean_sbu_0, # of connection points: 6
#     Node 25, Type 0, BuildingBlock: BETDEL_clean_sbu_0, # of connection points: 6
#     Node 26, Type 0, BuildingBlock: BETDEL_clean_sbu_0, # of connection points: 6
#     Node 27, Type 0, BuildingBlock: BETDEL_clean_sbu_0, # of connection points: 6
#     Node 28, Type 0, BuildingBlock: BETDEL_clean_sbu_0, # of connection points: 6
#     Node 29, Type 0, BuildingBlock: BETDEL_clean_sbu_0, # of connection points: 6
#     Node 30, Type 0, BuildingBlock: BETDEL_clean_sbu_0, # of connection points: 6
#     Node 31, Type 0, BuildingBlock: BETDEL_clean_sbu_0, # of connection points: 6
#     Node 32, Type 0, BuildingBlock: BETDEL_clean_sbu_0, # of connection points: 6
#     Node 33, Type 0, BuildingBlock: BETDEL_clean_sbu_0, # of connection points: 6
#     Node 34, Type 0, BuildingBlock: BETDEL_clean_sbu_0, # of connection points: 6
#     Node 35, Type 0, BuildingBlock: BETDEL_clean_sbu_0, # of connection points: 6
#     Node 36, Type 0, BuildingBlock: BETDEL_clean_sbu_0, # of connection points: 6
#     Node 37, Type 0, BuildingBlock: BETDEL_clean_sbu_0, # of connection points: 6
#     Node 38, Type 0, BuildingBlock: BETDEL_clean_sbu_0, # of connection points: 6
#     Node 39, Type 0, BuildingBlock: BETDEL_clean_sbu_0, # of connection points: 6
#     Node 40, Type 0, BuildingBlock: BETDEL_clean_sbu_0, # of connection points: 6
#     Node 41, Type 0, BuildingBlock: BETDEL_clean_sbu_0, # of connection points: 6
#     Node 42, Type 0, BuildingBlock: BETDEL_clean_sbu_0, # of connection points: 6
#     Node 43, Type 0, BuildingBlock: BETDEL_clean_sbu_0, # of connection points: 6
#     Node 44, Type 0, BuildingBlock: BETDEL_clean_sbu_0, # of connection points: 6
#     Node 45, Type 0, BuildingBlock: BETDEL_clean_sbu_0, # of connection points: 6
#     Node 46, Type 0, BuildingBlock: BETDEL_clean_sbu_0, # of connection points: 6
#     Node 47, Type 0, BuildingBlock: BETDEL_clean_sbu_0, # of connection points: 6
#     Node 48, Type 0, BuildingBlock: BETDEL_clean_sbu_0, # of connection points: 6
#     Node 49, Type 0, BuildingBlock: BETDEL_clean_sbu_0, # of connection points: 6
#     Node 50, Type 0, BuildingBlock: BETDEL_clean_sbu_0, # of connection points: 6
#     Node 51, Type 0, BuildingBlock: BETDEL_clean_sbu_0, # of connection points: 6
#     Node 52, Type 0, BuildingBlock: BETDEL_clean_sbu_0, # of connection points: 6
#     Node 53, Type 0, BuildingBlock: BETDEL_clean_sbu_0, # of connection points: 6
#     Node 54, Type 0, BuildingBlock: BETDEL_clean_sbu_0, # of connection points: 6
#     Node 55, Type 0, BuildingBlock: BETDEL_clean_sbu_0, # of connection points: 6
#     Node 56, Type 0, BuildingBlock: BETDEL_clean_sbu_0, # of connection points: 6
#     Node 57, Type 0, BuildingBlock: BETDEL_clean_sbu_0, # of connection points: 6
#     Node 58, Type 0, BuildingBlock: BETDEL_clean_sbu_0, # of connection points: 6
#     Node 59, Type 0, BuildingBlock: BETDEL_clean_sbu_0, # of connection points: 6
#     Node 60, Type 0, BuildingBlock: BETDEL_clean_sbu_0, # of connection points: 6
#     Node 61, Type 0, BuildingBlock: BETDEL_clean_sbu_0, # of connection points: 6
#     Node 62, Type 0, BuildingBlock: BETDEL_clean_sbu_0, # of connection points: 6
#     Node 63, Type 0, BuildingBlock: BETDEL_clean_sbu_0, # of connection points: 6
#     Node 64, Type 0, BuildingBlock: BETDEL_clean_sbu_0, # of connection points: 6
#     Node 65, Type 0, BuildingBlock: BETDEL_clean_sbu_0, # of connection points: 6
#     Node 66, Type 0, BuildingBlock: BETDEL_clean_sbu_0, # of connection points: 6
#     Node 67, Type 0, BuildingBlock: BETDEL_clean_sbu_0, # of connection points: 6
#     Node 68, Type 0, BuildingBlock: BETDEL_clean_sbu_0, # of connection points: 6
#     Node 69, Type 0, BuildingBlock: BETDEL_clean_sbu_0, # of connection points: 6
#     Node 70, Type 0, BuildingBlock: BETDEL_clean_sbu_0, # of connection points: 6
#     Node 71, Type 0, BuildingBlock: BETDEL_clean_sbu_0, # of connection points: 6
#     Node 72, Type 0, BuildingBlock: BETDEL_clean_sbu_0, # of connection points: 6
#     Node 73, Type 0, BuildingBlock: BETDEL_clean_sbu_0, # of connection points: 6
#     Node 74, Type 0, BuildingBlock: BETDEL_clean_sbu_0, # of connection points: 6
#     Node 75, Type 0, BuildingBlock: BETDEL_clean_sbu_0, # of connection points: 6
#     Node 76, Type 0, BuildingBlock: BETDEL_clean_sbu_0, # of connection points: 6
#     Node 77, Type 0, BuildingBlock: BETDEL_clean_sbu_0, # of connection points: 6
#     Node 78, Type 0, BuildingBlock: BETDEL_clean_sbu_0, # of connection points: 6
#     Node 79, Type 0, BuildingBlock: BETDEL_clean_sbu_0, # of connection points: 6
#     Node 80, Type 0, BuildingBlock: BETDEL_clean_sbu_0, # of connection points: 6
#     Node 81, Type 0, BuildingBlock: BETDEL_clean_sbu_0, # of connection points: 6
#     Node 82, Type 0, BuildingBlock: BETDEL_clean_sbu_0, # of connection points: 6
#     Node 83, Type 0, BuildingBlock: BETDEL_clean_sbu_0, # of connection points: 6
#     Node 84, Type 0, BuildingBlock: BETDEL_clean_sbu_0, # of connection points: 6
#     Node 85, Type 0, BuildingBlock: BETDEL_clean_sbu_0, # of connection points: 6
#     Node 86, Type 0, BuildingBlock: BETDEL_clean_sbu_0, # of connection points: 6
#     Node 87, Type 0, BuildingBlock: BETDEL_clean_sbu_0, # of connection points: 6
#     Node 88, Type 0, BuildingBlock: BETDEL_clean_sbu_0, # of connection points: 6
#     Node 89, Type 0, BuildingBlock: BETDEL_clean_sbu_0, # of connection points: 6
#     Node 90, Type 0, BuildingBlock: BETDEL_clean_sbu_0, # of connection points: 6
#     Node 91, Type 0, BuildingBlock: BETDEL_clean_sbu_0, # of connection points: 6
#     Node 92, Type 0, BuildingBlock: BETDEL_clean_sbu_0, # of connection points: 6
#     Node 93, Type 0, BuildingBlock: BETDEL_clean_sbu_0, # of connection points: 6
#     Node 94, Type 0, BuildingBlock: BETDEL_clean_sbu_0, # of connection points: 6
#     Node 95, Type 0, BuildingBlock: BETDEL_clean_sbu_0, # of connection points: 6
#     Edge 96, Type (0, 0), BuildingBlock: EZIPEK_clean_linker_0, # of connection points: 2
#     Edge 97, Type (0, 0), BuildingBlock: EZIPEK_clean_linker_0, # of connection points: 2
#     Edge 98, Type (0, 0), BuildingBlock: EZIPEK_clean_linker_0, # of connection points: 2
#     Edge 99, Type (0, 0), BuildingBlock: EZIPEK_clean_linker_0, # of connection points: 2
#     Edge 100, Type (0, 0), BuildingBlock: EZIPEK_clean_linker_0, # of connection points: 2
#     Edge 101, Type (0, 0), BuildingBlock: EZIPEK_clean_linker_0, # of connection points: 2
#     Edge 102, Type (0, 0), BuildingBlock: EZIPEK_clean_linker_0, # of connection points: 2
#     Edge 103, Type (0, 0), BuildingBlock: EZIPEK_clean_linker_0, # of connection points: 2
#     Edge 104, Type (0, 0), BuildingBlock: EZIPEK_clean_linker_0, # of connection points: 2
#     Edge 105, Type (0, 0), BuildingBlock: EZIPEK_clean_linker_0, # of connection points: 2
#     Edge 106, Type (0, 0), BuildingBlock: EZIPEK_clean_linker_0, # of connection points: 2
#     Edge 107, Type (0, 0), BuildingBlock: EZIPEK_clean_linker_0, # of connection points: 2
#     Edge 108, Type (0, 0), BuildingBlock: EZIPEK_clean_linker_0, # of connection points: 2
#     Edge 109, Type (0, 0), BuildingBlock: EZIPEK_clean_linker_0, # of connection points: 2
#     Edge 110, Type (0, 0), BuildingBlock: EZIPEK_clean_linker_0, # of connection points: 2
#     Edge 111, Type (0, 0), BuildingBlock: EZIPEK_clean_linker_0, # of connection points: 2
#     Edge 112, Type (0, 0), BuildingBlock: EZIPEK_clean_linker_0, # of connection points: 2
#     Edge 113, Type (0, 0), BuildingBlock: EZIPEK_clean_linker_0, # of connection points: 2
#     Edge 114, Type (0, 0), BuildingBlock: EZIPEK_clean_linker_0, # of connection points: 2
#     Edge 115, Type (0, 0), BuildingBlock: EZIPEK_clean_linker_0, # of connection points: 2
#     Edge 116, Type (0, 0), BuildingBlock: EZIPEK_clean_linker_0, # of connection points: 2
#     Edge 117, Type (0, 0), BuildingBlock: EZIPEK_clean_linker_0, # of connection points: 2
#     Edge 118, Type (0, 0), BuildingBlock: EZIPEK_clean_linker_0, # of connection points: 2
#     Edge 119, Type (0, 0), BuildingBlock: EZIPEK_clean_linker_0, # of connection points: 2
#     Edge 120, Type (0, 0), BuildingBlock: EZIPEK_clean_linker_0, # of connection points: 2
#     Edge 121, Type (0, 0), BuildingBlock: EZIPEK_clean_linker_0, # of connection points: 2
#     Edge 122, Type (0, 0), BuildingBlock: EZIPEK_clean_linker_0, # of connection points: 2
#     Edge 123, Type (0, 0), BuildingBlock: EZIPEK_clean_linker_0, # of connection points: 2
#     Edge 124, Type (0, 0), BuildingBlock: EZIPEK_clean_linker_0, # of connection points: 2
#     Edge 125, Type (0, 0), BuildingBlock: EZIPEK_clean_linker_0, # of connection points: 2
#     Edge 126, Type (0, 0), BuildingBlock: EZIPEK_clean_linker_0, # of connection points: 2
#     Edge 127, Type (0, 0), BuildingBlock: EZIPEK_clean_linker_0, # of connection points: 2
#     Edge 128, Type (0, 0), BuildingBlock: EZIPEK_clean_linker_0, # of connection points: 2
#     Edge 129, Type (0, 0), BuildingBlock: EZIPEK_clean_linker_0, # of connection points: 2
#     Edge 130, Type (0, 0), BuildingBlock: EZIPEK_clean_linker_0, # of connection points: 2
#     Edge 131, Type (0, 0), BuildingBlock: EZIPEK_clean_linker_0, # of connection points: 2
#     Edge 132, Type (0, 0), BuildingBlock: EZIPEK_clean_linker_0, # of connection points: 2
#     Edge 133, Type (0, 0), BuildingBlock: EZIPEK_clean_linker_0, # of connection points: 2
#     Edge 134, Type (0, 0), BuildingBlock: EZIPEK_clean_linker_0, # of connection points: 2
#     Edge 135, Type (0, 0), BuildingBlock: EZIPEK_clean_linker_0, # of connection points: 2
#     Edge 136, Type (0, 0), BuildingBlock: EZIPEK_clean_linker_0, # of connection points: 2
#     Edge 137, Type (0, 0), BuildingBlock: EZIPEK_clean_linker_0, # of connection points: 2
#     Edge 138, Type (0, 0), BuildingBlock: EZIPEK_clean_linker_0, # of connection points: 2
#     Edge 139, Type (0, 0), BuildingBlock: EZIPEK_clean_linker_0, # of connection points: 2
#     Edge 140, Type (0, 0), BuildingBlock: EZIPEK_clean_linker_0, # of connection points: 2
#     Edge 141, Type (0, 0), BuildingBlock: EZIPEK_clean_linker_0, # of connection points: 2
#     Edge 142, Type (0, 0), BuildingBlock: EZIPEK_clean_linker_0, # of connection points: 2
#     Edge 143, Type (0, 0), BuildingBlock: EZIPEK_clean_linker_0, # of connection points: 2
#     Edge 144, Type (0, 0), BuildingBlock: EZIPEK_clean_linker_0, # of connection points: 2
#     Edge 145, Type (0, 0), BuildingBlock: EZIPEK_clean_linker_0, # of connection points: 2
#     Edge 146, Type (0, 0), BuildingBlock: EZIPEK_clean_linker_0, # of connection points: 2
#     Edge 147, Type (0, 0), BuildingBlock: EZIPEK_clean_linker_0, # of connection points: 2
#     Edge 148, Type (0, 0), BuildingBlock: EZIPEK_clean_linker_0, # of connection points: 2
#     Edge 149, Type (0, 0), BuildingBlock: EZIPEK_clean_linker_0, # of connection points: 2
#     Edge 150, Type (0, 0), BuildingBlock: EZIPEK_clean_linker_0, # of connection points: 2
#     Edge 151, Type (0, 0), BuildingBlock: EZIPEK_clean_linker_0, # of connection points: 2
#     Edge 152, Type (0, 0), BuildingBlock: EZIPEK_clean_linker_0, # of connection points: 2
#     Edge 153, Type (0, 0), BuildingBlock: EZIPEK_clean_linker_0, # of connection points: 2
#     Edge 154, Type (0, 0), BuildingBlock: EZIPEK_clean_linker_0, # of connection points: 2
#     Edge 155, Type (0, 0), BuildingBlock: EZIPEK_clean_linker_0, # of connection points: 2
#     Edge 156, Type (0, 0), BuildingBlock: EZIPEK_clean_linker_0, # of connection points: 2
#     Edge 157, Type (0, 0), BuildingBlock: EZIPEK_clean_linker_0, # of connection points: 2
#     Edge 158, Type (0, 0), BuildingBlock: EZIPEK_clean_linker_0, # of connection points: 2
#     Edge 159, Type (0, 0), BuildingBlock: EZIPEK_clean_linker_0, # of connection points: 2
#     Edge 160, Type (0, 0), BuildingBlock: EZIPEK_clean_linker_0, # of connection points: 2
#     Edge 161, Type (0, 0), BuildingBlock: EZIPEK_clean_linker_0, # of connection points: 2
#     Edge 162, Type (0, 0), BuildingBlock: EZIPEK_clean_linker_0, # of connection points: 2
#     Edge 163, Type (0, 0), BuildingBlock: EZIPEK_clean_linker_0, # of connection points: 2
#     Edge 164, Type (0, 0), BuildingBlock: EZIPEK_clean_linker_0, # of connection points: 2
#     Edge 165, Type (0, 0), BuildingBlock: EZIPEK_clean_linker_0, # of connection points: 2
#     Edge 166, Type (0, 0), BuildingBlock: EZIPEK_clean_linker_0, # of connection points: 2
#     Edge 167, Type (0, 0), BuildingBlock: EZIPEK_clean_linker_0, # of connection points: 2
#     Edge 168, Type (0, 0), BuildingBlock: EZIPEK_clean_linker_0, # of connection points: 2
#     Edge 169, Type (0, 0), BuildingBlock: EZIPEK_clean_linker_0, # of connection points: 2
#     Edge 170, Type (0, 0), BuildingBlock: EZIPEK_clean_linker_0, # of connection points: 2
#     Edge 171, Type (0, 0), BuildingBlock: EZIPEK_clean_linker_0, # of connection points: 2
#     Edge 172, Type (0, 0), BuildingBlock: EZIPEK_clean_linker_0, # of connection points: 2
#     Edge 173, Type (0, 0), BuildingBlock: EZIPEK_clean_linker_0, # of connection points: 2
#     Edge 174, Type (0, 0), BuildingBlock: EZIPEK_clean_linker_0, # of connection points: 2
#     Edge 175, Type (0, 0), BuildingBlock: EZIPEK_clean_linker_0, # of connection points: 2
#     Edge 176, Type (0, 0), BuildingBlock: EZIPEK_clean_linker_0, # of connection points: 2
#     Edge 177, Type (0, 0), BuildingBlock: EZIPEK_clean_linker_0, # of connection points: 2
#     Edge 178, Type (0, 0), BuildingBlock: EZIPEK_clean_linker_0, # of connection points: 2
#     Edge 179, Type (0, 0), BuildingBlock: EZIPEK_clean_linker_0, # of connection points: 2
#     Edge 180, Type (0, 0), BuildingBlock: EZIPEK_clean_linker_0, # of connection points: 2
#     Edge 181, Type (0, 0), BuildingBlock: EZIPEK_clean_linker_0, # of connection points: 2
#     Edge 182, Type (0, 0), BuildingBlock: EZIPEK_clean_linker_0, # of connection points: 2
#     Edge 183, Type (0, 0), BuildingBlock: EZIPEK_clean_linker_0, # of connection points: 2
#     Edge 184, Type (0, 0), BuildingBlock: EZIPEK_clean_linker_0, # of connection points: 2
#     Edge 185, Type (0, 0), BuildingBlock: EZIPEK_clean_linker_0, # of connection points: 2
#     Edge 186, Type (0, 0), BuildingBlock: EZIPEK_clean_linker_0, # of connection points: 2
#     Edge 187, Type (0, 0), BuildingBlock: EZIPEK_clean_linker_0, # of connection points: 2
#     Edge 188, Type (0, 0), BuildingBlock: EZIPEK_clean_linker_0, # of connection points: 2
#     Edge 189, Type (0, 0), BuildingBlock: EZIPEK_clean_linker_0, # of connection points: 2
#     Edge 190, Type (0, 0), BuildingBlock: EZIPEK_clean_linker_0, # of connection points: 2
#     Edge 191, Type (0, 0), BuildingBlock: EZIPEK_clean_linker_0, # of connection points: 2
#     Edge 192, Type (0, 0), BuildingBlock: EZIPEK_clean_linker_0, # of connection points: 2
#     Edge 193, Type (0, 0), BuildingBlock: EZIPEK_clean_linker_0, # of connection points: 2
#     Edge 194, Type (0, 0), BuildingBlock: EZIPEK_clean_linker_0, # of connection points: 2
#     Edge 195, Type (0, 0), BuildingBlock: EZIPEK_clean_linker_0, # of connection points: 2
#     Edge 196, Type (0, 0), BuildingBlock: EZIPEK_clean_linker_0, # of connection points: 2
#     Edge 197, Type (0, 0), BuildingBlock: EZIPEK_clean_linker_0, # of connection points: 2
#     Edge 198, Type (0, 0), BuildingBlock: EZIPEK_clean_linker_0, # of connection points: 2
#     Edge 199, Type (0, 0), BuildingBlock: EZIPEK_clean_linker_0, # of connection points: 2
#     Edge 200, Type (0, 0), BuildingBlock: EZIPEK_clean_linker_0, # of connection points: 2
#     Edge 201, Type (0, 0), BuildingBlock: EZIPEK_clean_linker_0, # of connection points: 2
#     Edge 202, Type (0, 0), BuildingBlock: EZIPEK_clean_linker_0, # of connection points: 2
#     Edge 203, Type (0, 0), BuildingBlock: EZIPEK_clean_linker_0, # of connection points: 2
#     Edge 204, Type (0, 0), BuildingBlock: EZIPEK_clean_linker_0, # of connection points: 2
#     Edge 205, Type (0, 0), BuildingBlock: EZIPEK_clean_linker_0, # of connection points: 2
#     Edge 206, Type (0, 0), BuildingBlock: EZIPEK_clean_linker_0, # of connection points: 2
#     Edge 207, Type (0, 0), BuildingBlock: EZIPEK_clean_linker_0, # of connection points: 2
#     Edge 208, Type (0, 0), BuildingBlock: EZIPEK_clean_linker_0, # of connection points: 2
#     Edge 209, Type (0, 0), BuildingBlock: EZIPEK_clean_linker_0, # of connection points: 2
#     Edge 210, Type (0, 0), BuildingBlock: EZIPEK_clean_linker_0, # of connection points: 2
#     Edge 211, Type (0, 0), BuildingBlock: EZIPEK_clean_linker_0, # of connection points: 2
#     Edge 212, Type (0, 0), BuildingBlock: EZIPEK_clean_linker_0, # of connection points: 2
#     Edge 213, Type (0, 0), BuildingBlock: EZIPEK_clean_linker_0, # of connection points: 2
#     Edge 214, Type (0, 0), BuildingBlock: EZIPEK_clean_linker_0, # of connection points: 2
#     Edge 215, Type (0, 0), BuildingBlock: EZIPEK_clean_linker_0, # of connection points: 2
#     Edge 216, Type (0, 0), BuildingBlock: EZIPEK_clean_linker_0, # of connection points: 2
#     Edge 217, Type (0, 0), BuildingBlock: EZIPEK_clean_linker_0, # of connection points: 2
#     Edge 218, Type (0, 0), BuildingBlock: EZIPEK_clean_linker_0, # of connection points: 2
#     Edge 219, Type (0, 0), BuildingBlock: EZIPEK_clean_linker_0, # of connection points: 2
#     Edge 220, Type (0, 0), BuildingBlock: EZIPEK_clean_linker_0, # of connection points: 2
#     Edge 221, Type (0, 0), BuildingBlock: EZIPEK_clean_linker_0, # of connection points: 2
#     Edge 222, Type (0, 0), BuildingBlock: EZIPEK_clean_linker_0, # of connection points: 2
#     Edge 223, Type (0, 0), BuildingBlock: EZIPEK_clean_linker_0, # of connection points: 2
#     Edge 224, Type (0, 0), BuildingBlock: EZIPEK_clean_linker_0, # of connection points: 2
#     Edge 225, Type (0, 0), BuildingBlock: EZIPEK_clean_linker_0, # of connection points: 2
#     Edge 226, Type (0, 0), BuildingBlock: EZIPEK_clean_linker_0, # of connection points: 2
#     Edge 227, Type (0, 0), BuildingBlock: EZIPEK_clean_linker_0, # of connection points: 2
#     Edge 228, Type (0, 0), BuildingBlock: EZIPEK_clean_linker_0, # of connection points: 2
#     Edge 229, Type (0, 0), BuildingBlock: EZIPEK_clean_linker_0, # of connection points: 2
#     Edge 230, Type (0, 0), BuildingBlock: EZIPEK_clean_linker_0, # of connection points: 2
#     Edge 231, Type (0, 0), BuildingBlock: EZIPEK_clean_linker_0, # of connection points: 2
#     Edge 232, Type (0, 0), BuildingBlock: EZIPEK_clean_linker_0, # of connection points: 2
#     Edge 233, Type (0, 0), BuildingBlock: EZIPEK_clean_linker_0, # of connection points: 2
#     Edge 234, Type (0, 0), BuildingBlock: EZIPEK_clean_linker_0, # of connection points: 2
#     Edge 235, Type (0, 0), BuildingBlock: EZIPEK_clean_linker_0, # of connection points: 2
#     Edge 236, Type (0, 0), BuildingBlock: EZIPEK_clean_linker_0, # of connection points: 2
#     Edge 237, Type (0, 0), BuildingBlock: EZIPEK_clean_linker_0, # of connection points: 2
#     Edge 238, Type (0, 0), BuildingBlock: EZIPEK_clean_linker_0, # of connection points: 2
#     Edge 239, Type (0, 0), BuildingBlock: EZIPEK_clean_linker_0, # of connection points: 2
#     Edge 240, Type (0, 0), BuildingBlock: EZIPEK_clean_linker_0, # of connection points: 2
#     Edge 241, Type (0, 0), BuildingBlock: EZIPEK_clean_linker_0, # of connection points: 2
#     Edge 242, Type (0, 0), BuildingBlock: EZIPEK_clean_linker_0, # of connection points: 2
#     Edge 243, Type (0, 0), BuildingBlock: EZIPEK_clean_linker_0, # of connection points: 2
#     Edge 244, Type (0, 0), BuildingBlock: EZIPEK_clean_linker_0, # of connection points: 2
#     Edge 245, Type (0, 0), BuildingBlock: EZIPEK_clean_linker_0, # of connection points: 2
#     Edge 246, Type (0, 0), BuildingBlock: EZIPEK_clean_linker_0, # of connection points: 2
#     Edge 247, Type (0, 0), BuildingBlock: EZIPEK_clean_linker_0, # of connection points: 2
#     Edge 248, Type (0, 0), BuildingBlock: EZIPEK_clean_linker_0, # of connection points: 2
#     Edge 249, Type (0, 0), BuildingBlock: EZIPEK_clean_linker_0, # of connection points: 2
#     Edge 250, Type (0, 0), BuildingBlock: EZIPEK_clean_linker_0, # of connection points: 2
#     Edge 251, Type (0, 0), BuildingBlock: EZIPEK_clean_linker_0, # of connection points: 2
#     Edge 252, Type (0, 0), BuildingBlock: EZIPEK_clean_linker_0, # of connection points: 2
#     Edge 253, Type (0, 0), BuildingBlock: EZIPEK_clean_linker_0, # of connection points: 2
#     Edge 254, Type (0, 0), BuildingBlock: EZIPEK_clean_linker_0, # of connection points: 2
#     Edge 255, Type (0, 0), BuildingBlock: EZIPEK_clean_linker_0, # of connection points: 2
#     Edge 256, Type (0, 0), BuildingBlock: EZIPEK_clean_linker_0, # of connection points: 2
#     Edge 257, Type (0, 0), BuildingBlock: EZIPEK_clean_linker_0, # of connection points: 2
#     Edge 258, Type (0, 0), BuildingBlock: EZIPEK_clean_linker_0, # of connection points: 2
#     Edge 259, Type (0, 0), BuildingBlock: EZIPEK_clean_linker_0, # of connection points: 2
#     Edge 260, Type (0, 0), BuildingBlock: EZIPEK_clean_linker_0, # of connection points: 2
#     Edge 261, Type (0, 0), BuildingBlock: EZIPEK_clean_linker_0, # of connection points: 2
#     Edge 262, Type (0, 0), BuildingBlock: EZIPEK_clean_linker_0, # of connection points: 2
#     Edge 263, Type (0, 0), BuildingBlock: EZIPEK_clean_linker_0, # of connection points: 2
#     Edge 264, Type (0, 0), BuildingBlock: EZIPEK_clean_linker_0, # of connection points: 2
#     Edge 265, Type (0, 0), BuildingBlock: EZIPEK_clean_linker_0, # of connection points: 2
#     Edge 266, Type (0, 0), BuildingBlock: EZIPEK_clean_linker_0, # of connection points: 2
#     Edge 267, Type (0, 0), BuildingBlock: EZIPEK_clean_linker_0, # of connection points: 2
#     Edge 268, Type (0, 0), BuildingBlock: EZIPEK_clean_linker_0, # of connection points: 2
#     Edge 269, Type (0, 0), BuildingBlock: EZIPEK_clean_linker_0, # of connection points: 2
#     Edge 270, Type (0, 0), BuildingBlock: EZIPEK_clean_linker_0, # of connection points: 2
#     Edge 271, Type (0, 0), BuildingBlock: EZIPEK_clean_linker_0, # of connection points: 2
#     Edge 272, Type (0, 0), BuildingBlock: EZIPEK_clean_linker_0, # of connection points: 2
#     Edge 273, Type (0, 0), BuildingBlock: EZIPEK_clean_linker_0, # of connection points: 2
#     Edge 274, Type (0, 0), BuildingBlock: EZIPEK_clean_linker_0, # of connection points: 2
#     Edge 275, Type (0, 0), BuildingBlock: EZIPEK_clean_linker_0, # of connection points: 2
#     Edge 276, Type (0, 0), BuildingBlock: EZIPEK_clean_linker_0, # of connection points: 2
#     Edge 277, Type (0, 0), BuildingBlock: EZIPEK_clean_linker_0, # of connection points: 2
#     Edge 278, Type (0, 0), BuildingBlock: EZIPEK_clean_linker_0, # of connection points: 2
#     Edge 279, Type (0, 0), BuildingBlock: EZIPEK_clean_linker_0, # of connection points: 2
#     Edge 280, Type (0, 0), BuildingBlock: EZIPEK_clean_linker_0, # of connection points: 2
#     Edge 281, Type (0, 0), BuildingBlock: EZIPEK_clean_linker_0, # of connection points: 2
#     Edge 282, Type (0, 0), BuildingBlock: EZIPEK_clean_linker_0, # of connection points: 2
#     Edge 283, Type (0, 0), BuildingBlock: EZIPEK_clean_linker_0, # of connection points: 2
#     Edge 284, Type (0, 0), BuildingBlock: EZIPEK_clean_linker_0, # of connection points: 2
#     Edge 285, Type (0, 0), BuildingBlock: EZIPEK_clean_linker_0, # of connection points: 2
#     Edge 286, Type (0, 0), BuildingBlock: EZIPEK_clean_linker_0, # of connection points: 2
#     Edge 287, Type (0, 0), BuildingBlock: EZIPEK_clean_linker_0, # of connection points: 2
#     Edge 288, Type (0, 0), BuildingBlock: EZIPEK_clean_linker_0, # of connection points: 2
#     Edge 289, Type (0, 0), BuildingBlock: EZIPEK_clean_linker_0, # of connection points: 2
#     Edge 290, Type (0, 0), BuildingBlock: EZIPEK_clean_linker_0, # of connection points: 2
#     Edge 291, Type (0, 0), BuildingBlock: EZIPEK_clean_linker_0, # of connection points: 2
#     Edge 292, Type (0, 0), BuildingBlock: EZIPEK_clean_linker_0, # of connection points: 2
#     Edge 293, Type (0, 0), BuildingBlock: EZIPEK_clean_linker_0, # of connection points: 2
#     Edge 294, Type (0, 0), BuildingBlock: EZIPEK_clean_linker_0, # of connection points: 2
#     Edge 295, Type (0, 0), BuildingBlock: EZIPEK_clean_linker_0, # of connection points: 2
#     Edge 296, Type (0, 0), BuildingBlock: EZIPEK_clean_linker_0, # of connection points: 2
#     Edge 297, Type (0, 0), BuildingBlock: EZIPEK_clean_linker_0, # of connection points: 2
#     Edge 298, Type (0, 0), BuildingBlock: EZIPEK_clean_linker_0, # of connection points: 2
#     Edge 299, Type (0, 0), BuildingBlock: EZIPEK_clean_linker_0, # of connection points: 2
#     Edge 300, Type (0, 0), BuildingBlock: EZIPEK_clean_linker_0, # of connection points: 2
#     Edge 301, Type (0, 0), BuildingBlock: EZIPEK_clean_linker_0, # of connection points: 2
#     Edge 302, Type (0, 0), BuildingBlock: EZIPEK_clean_linker_0, # of connection points: 2
#     Edge 303, Type (0, 0), BuildingBlock: EZIPEK_clean_linker_0, # of connection points: 2
#     Edge 304, Type (0, 0), BuildingBlock: EZIPEK_clean_linker_0, # of connection points: 2
#     Edge 305, Type (0, 0), BuildingBlock: EZIPEK_clean_linker_0, # of connection points: 2
#     Edge 306, Type (0, 0), BuildingBlock: EZIPEK_clean_linker_0, # of connection points: 2
#     Edge 307, Type (0, 0), BuildingBlock: EZIPEK_clean_linker_0, # of connection points: 2
#     Edge 308, Type (0, 0), BuildingBlock: EZIPEK_clean_linker_0, # of connection points: 2
#     Edge 309, Type (0, 0), BuildingBlock: EZIPEK_clean_linker_0, # of connection points: 2
#     Edge 310, Type (0, 0), BuildingBlock: EZIPEK_clean_linker_0, # of connection points: 2
#     Edge 311, Type (0, 0), BuildingBlock: EZIPEK_clean_linker_0, # of connection points: 2
#     Edge 312, Type (0, 0), BuildingBlock: EZIPEK_clean_linker_0, # of connection points: 2
#     Edge 313, Type (0, 0), BuildingBlock: EZIPEK_clean_linker_0, # of connection points: 2
#     Edge 314, Type (0, 0), BuildingBlock: EZIPEK_clean_linker_0, # of connection points: 2
#     Edge 315, Type (0, 0), BuildingBlock: EZIPEK_clean_linker_0, # of connection points: 2
#     Edge 316, Type (0, 0), BuildingBlock: EZIPEK_clean_linker_0, # of connection points: 2
#     Edge 317, Type (0, 0), BuildingBlock: EZIPEK_clean_linker_0, # of connection points: 2
#     Edge 318, Type (0, 0), BuildingBlock: EZIPEK_clean_linker_0, # of connection points: 2
#     Edge 319, Type (0, 0), BuildingBlock: EZIPEK_clean_linker_0, # of connection points: 2
#     Edge 320, Type (0, 0), BuildingBlock: EZIPEK_clean_linker_0, # of connection points: 2
#     Edge 321, Type (0, 0), BuildingBlock: EZIPEK_clean_linker_0, # of connection points: 2
#     Edge 322, Type (0, 0), BuildingBlock: EZIPEK_clean_linker_0, # of connection points: 2
#     Edge 323, Type (0, 0), BuildingBlock: EZIPEK_clean_linker_0, # of connection points: 2
#     Edge 324, Type (0, 0), BuildingBlock: EZIPEK_clean_linker_0, # of connection points: 2
#     Edge 325, Type (0, 0), BuildingBlock: EZIPEK_clean_linker_0, # of connection points: 2
#     Edge 326, Type (0, 0), BuildingBlock: EZIPEK_clean_linker_0, # of connection points: 2
#     Edge 327, Type (0, 0), BuildingBlock: EZIPEK_clean_linker_0, # of connection points: 2
#     Edge 328, Type (0, 0), BuildingBlock: EZIPEK_clean_linker_0, # of connection points: 2
#     Edge 329, Type (0, 0), BuildingBlock: EZIPEK_clean_linker_0, # of connection points: 2
#     Edge 330, Type (0, 0), BuildingBlock: EZIPEK_clean_linker_0, # of connection points: 2
#     Edge 331, Type (0, 0), BuildingBlock: EZIPEK_clean_linker_0, # of connection points: 2
#     Edge 332, Type (0, 0), BuildingBlock: EZIPEK_clean_linker_0, # of connection points: 2
#     Edge 333, Type (0, 0), BuildingBlock: EZIPEK_clean_linker_0, # of connection points: 2
#     Edge 334, Type (0, 0), BuildingBlock: EZIPEK_clean_linker_0, # of connection points: 2
#     Edge 335, Type (0, 0), BuildingBlock: EZIPEK_clean_linker_0, # of connection points: 2
#     Edge 336, Type (0, 0), BuildingBlock: EZIPEK_clean_linker_0, # of connection points: 2
#     Edge 337, Type (0, 0), BuildingBlock: EZIPEK_clean_linker_0, # of connection points: 2
#     Edge 338, Type (0, 0), BuildingBlock: EZIPEK_clean_linker_0, # of connection points: 2
#     Edge 339, Type (0, 0), BuildingBlock: EZIPEK_clean_linker_0, # of connection points: 2
#     Edge 340, Type (0, 0), BuildingBlock: EZIPEK_clean_linker_0, # of connection points: 2
#     Edge 341, Type (0, 0), BuildingBlock: EZIPEK_clean_linker_0, # of connection points: 2
#     Edge 342, Type (0, 0), BuildingBlock: EZIPEK_clean_linker_0, # of connection points: 2
#     Edge 343, Type (0, 0), BuildingBlock: EZIPEK_clean_linker_0, # of connection points: 2
#     Edge 344, Type (0, 0), BuildingBlock: EZIPEK_clean_linker_0, # of connection points: 2
#     Edge 345, Type (0, 0), BuildingBlock: EZIPEK_clean_linker_0, # of connection points: 2
#     Edge 346, Type (0, 0), BuildingBlock: EZIPEK_clean_linker_0, # of connection points: 2
#     Edge 347, Type (0, 0), BuildingBlock: EZIPEK_clean_linker_0, # of connection points: 2
#     Edge 348, Type (0, 0), BuildingBlock: EZIPEK_clean_linker_0, # of connection points: 2
#     Edge 349, Type (0, 0), BuildingBlock: EZIPEK_clean_linker_0, # of connection points: 2
#     Edge 350, Type (0, 0), BuildingBlock: EZIPEK_clean_linker_0, # of connection points: 2
#     Edge 351, Type (0, 0), BuildingBlock: EZIPEK_clean_linker_0, # of connection points: 2
#     Edge 352, Type (0, 0), BuildingBlock: EZIPEK_clean_linker_0, # of connection points: 2
#     Edge 353, Type (0, 0), BuildingBlock: EZIPEK_clean_linker_0, # of connection points: 2
#     Edge 354, Type (0, 0), BuildingBlock: EZIPEK_clean_linker_0, # of connection points: 2
#     Edge 355, Type (0, 0), BuildingBlock: EZIPEK_clean_linker_0, # of connection points: 2
#     Edge 356, Type (0, 0), BuildingBlock: EZIPEK_clean_linker_0, # of connection points: 2
#     Edge 357, Type (0, 0), BuildingBlock: EZIPEK_clean_linker_0, # of connection points: 2
#     Edge 358, Type (0, 0), BuildingBlock: EZIPEK_clean_linker_0, # of connection points: 2
#     Edge 359, Type (0, 0), BuildingBlock: EZIPEK_clean_linker_0, # of connection points: 2
#     Edge 360, Type (0, 0), BuildingBlock: EZIPEK_clean_linker_0, # of connection points: 2
#     Edge 361, Type (0, 0), BuildingBlock: EZIPEK_clean_linker_0, # of connection points: 2
#     Edge 362, Type (0, 0), BuildingBlock: EZIPEK_clean_linker_0, # of connection points: 2
#     Edge 363, Type (0, 0), BuildingBlock: EZIPEK_clean_linker_0, # of connection points: 2
#     Edge 364, Type (0, 0), BuildingBlock: EZIPEK_clean_linker_0, # of connection points: 2
#     Edge 365, Type (0, 0), BuildingBlock: EZIPEK_clean_linker_0, # of connection points: 2
#     Edge 366, Type (0, 0), BuildingBlock: EZIPEK_clean_linker_0, # of connection points: 2
#     Edge 367, Type (0, 0), BuildingBlock: EZIPEK_clean_linker_0, # of connection points: 2
#     Edge 368, Type (0, 0), BuildingBlock: EZIPEK_clean_linker_0, # of connection points: 2
#     Edge 369, Type (0, 0), BuildingBlock: EZIPEK_clean_linker_0, # of connection points: 2
#     Edge 370, Type (0, 0), BuildingBlock: EZIPEK_clean_linker_0, # of connection points: 2
#     Edge 371, Type (0, 0), BuildingBlock: EZIPEK_clean_linker_0, # of connection points: 2
#     Edge 372, Type (0, 0), BuildingBlock: EZIPEK_clean_linker_0, # of connection points: 2
#     Edge 373, Type (0, 0), BuildingBlock: EZIPEK_clean_linker_0, # of connection points: 2
#     Edge 374, Type (0, 0), BuildingBlock: EZIPEK_clean_linker_0, # of connection points: 2
#     Edge 375, Type (0, 0), BuildingBlock: EZIPEK_clean_linker_0, # of connection points: 2
#     Edge 376, Type (0, 0), BuildingBlock: EZIPEK_clean_linker_0, # of connection points: 2
#     Edge 377, Type (0, 0), BuildingBlock: EZIPEK_clean_linker_0, # of connection points: 2
#     Edge 378, Type (0, 0), BuildingBlock: EZIPEK_clean_linker_0, # of connection points: 2
#     Edge 379, Type (0, 0), BuildingBlock: EZIPEK_clean_linker_0, # of connection points: 2
#     Edge 380, Type (0, 0), BuildingBlock: EZIPEK_clean_linker_0, # of connection points: 2
#     Edge 381, Type (0, 0), BuildingBlock: EZIPEK_clean_linker_0, # of connection points: 2
#     Edge 382, Type (0, 0), BuildingBlock: EZIPEK_clean_linker_0, # of connection points: 2
#     Edge 383, Type (0, 0), BuildingBlock: EZIPEK_clean_linker_0, # of connection points: 2
# Relax obj value: 0.398
# Max RMSD: 0.273
# Mean RMSD: 0.253
data_MOF--net-ana-e--node1-BETDEL_clean_sbu_0--edge1-EZIPEK_clean_linker_0
_symmetry_space_group_name_H-M    P1
_symmetry_Int_Tables_number       1
_symmetry_cell_setting            triclinic
loop_
_symmetry_equiv_pos_as_xyz
'x, y, z'
_cell_length_a     57.799006
_cell_length_b     58.76429
_cell_length_c     60.213041
_cell_angle_alpha  90.052738
_cell_angle_beta   90.892874
_cell_angle_gamma 89.275481
loop_
_atom_site_label
_atom_site_type_symbol
_atom_site_fract_x
_atom_site_fract_y
_atom_site_fract_z
_atom_type_partial_charge
Dy0 Dy 0.0244 0.09056 0.36213 0.0
C1 C 0.94308 0.13828 0.39265 0.0
C2 C 0.06706 0.08241 0.34617 0.0
Dy3 Dy 0.98334 0.11988 0.37904 0.0
O4 O 0.04931 0.06945 0.34199 0.0
O5 O 0.06133 0.09942 0.35876 0.0
O6 O 0.01354 0.06027 0.382 0.0
O7 O 0.98901 0.08427 0.37069 0.0
C8 C 0.99208 0.0672 0.38305 0.0
C9 C 0.02217 0.14183 0.36869 0.0
O10 O 0.99862 0.10966 0.4116 0.0
O11 O 0.03468 0.10028 0.39791 0.0
O12 O 0.95803 0.14844 0.38037 0.0
O13 O 0.94941 0.11741 0.39673 0.0
O14 O 0.00808 0.14921 0.38361 0.0
O15 O 0.01351 0.12514 0.35902 0.0
O16 O 0.0035 0.09544 0.32946 0.0
O17 O 0.97146 0.11497 0.34388 0.0
C18 C 0.02091 0.10589 0.41476 0.0
C19 C 0.98269 0.10566 0.32693 0.0
Dy20 Dy 0.16575 0.78975 0.61826 0.0
C21 C 0.10476 0.71516 0.64776 0.0
C22 C 0.17308 0.83174 0.60136 0.0
Dy23 Dy 0.12887 0.753 0.63797 0.0
O24 O 0.18871 0.8154 0.60168 0.0
O25 O 0.154 0.82505 0.61015 0.0
O26 O 0.19522 0.76992 0.63416 0.0
O27 O 0.16405 0.75377 0.62573 0.0
C28 C 0.18322 0.75117 0.63568 0.0
C29 C 0.10946 0.7927 0.62565 0.0
O30 O 0.14205 0.76988 0.66906 0.0
O31 O 0.1654 0.79855 0.65417 0.0
O32 O 0.09895 0.73012 0.63287 0.0
O33 O 0.12404 0.72071 0.65788 0.0
O34 O 0.0974 0.7767 0.63454 0.0
O35 O 0.13007 0.78621 0.62545 0.0
O36 O 0.15714 0.77091 0.58696 0.0
O37 O 0.13315 0.74323 0.60239 0.0
C38 C 0.15533 0.78821 0.67096 0.0
C39 C 0.14376 0.75271 0.58529 0.0
Dy40 Dy 0.49141 0.88374 0.84064 0.0
C41 C 0.46819 0.88153 0.93077 0.0
C42 C 0.51326 0.88648 0.80042 0.0
Dy43 Dy 0.48225 0.88349 0.88843 0.0
O44 O 0.4915 0.8817 0.80294 0.0
O45 O 0.52208 0.89117 0.81972 0.0
O46 O 0.48046 0.84745 0.83635 0.0
O47 O 0.4655 0.86714 0.86063 0.0
C48 C 0.46673 0.84733 0.85311 0.0
C49 C 0.51831 0.91 0.87862 0.0
O50 O 0.50474 0.85265 0.88813 0.0
O51 O 0.52116 0.86263 0.85523 0.0
O52 O 0.47401 0.9001 0.9207 0.0
O53 O 0.46934 0.86419 0.91748 0.0
O54 O 0.51711 0.89664 0.89548 0.0
O55 O 0.4997 0.90898 0.86702 0.0
O56 O 0.45738 0.90413 0.83872 0.0
O57 O 0.44932 0.89984 0.87592 0.0
C58 C 0.52099 0.84998 0.87337 0.0
C59 C 0.44282 0.90667 0.85571 0.0
Dy60 Dy 0.35719 0.22571 0.11156 0.0
C61 C 0.40745 0.2981 0.14911 0.0
C62 C 0.34077 0.18692 0.09203 0.0
Dy63 Dy 0.38893 0.26063 0.1296 0.0
O64 O 0.32964 0.19919 0.10638 0.0
O65 O 0.36038 0.19639 0.08794 0.0
O66 O 0.32625 0.24267 0.1272 0.0
O67 O 0.35371 0.26236 0.11675 0.0
C68 C 0.33527 0.26281 0.12763 0.0
C69 C 0.41101 0.22279 0.11494 0.0
O70 O 0.37688 0.24622 0.16154 0.0
O71 O 0.3621 0.21321 0.1465 0.0
O72 O 0.41669 0.27784 0.14947 0.0
O73 O 0.38816 0.29758 0.13802 0.0
O74 O 0.41891 0.24333 0.11321 0.0
O75 O 0.39224 0.22361 0.12543 0.0
O76 O 0.36872 0.24252 0.07947 0.0
O77 O 0.38707 0.27358 0.09499 0.0
C78 C 0.36799 0.2259 0.16386 0.0
C79 C 0.37943 0.26233 0.07742 0.0
Dy80 Dy 0.02467 0.88839 0.13714 0.0
C81 C 0.94783 0.84408 0.09822 0.0
C82 C 0.06504 0.90503 0.15465 0.0
Dy83 Dy 0.98687 0.86011 0.11824 0.0
O84 O 0.04691 0.90028 0.16619 0.0
O85 O 0.06108 0.90049 0.134 0.0
O86 O 0.00973 0.92094 0.12261 0.0
O87 O 0.98807 0.89452 0.13107 0.0
C88 C 0.9889 0.91314 0.12096 0.0
C89 C 0.02292 0.83528 0.13527 0.0
O90 O 0.00221 0.87157 0.08643 0.0
O91 O 0.03635 0.88495 0.10158 0.0
O92 O 0.96756 0.83331 0.09938 0.0
O93 O 0.9498 0.86366 0.1078 0.0
O94 O 0.00135 0.82947 0.13581 0.0
O95 O 0.02418 0.85361 0.12436 0.0
O96 O 0.00733 0.87436 0.16866 0.0
O97 O 0.97288 0.86289 0.1524 0.0
C98 C 0.02299 0.88011 0.08416 0.0
C99 C 0.98551 0.86707 0.17035 0.0
Dy100 Dy 0.37948 0.76346 0.40608 0.0
C101 C 0.36243 0.78308 0.31858 0.0
C102 C 0.37753 0.74601 0.4484 0.0
Dy103 Dy 0.36872 0.77307 0.36199 0.0
O104 O 0.39624 0.74997 0.43751 0.0
O105 O 0.35998 0.75318 0.43653 0.0
O106 O 0.41675 0.77375 0.40375 0.0
O107 O 0.39185 0.79131 0.38474 0.0
C108 C 0.41335 0.78879 0.38825 0.0
C109 C 0.33786 0.74268 0.37789 0.0
O110 O 0.39706 0.74689 0.35522 0.0
O111 O 0.39489 0.73268 0.39024 0.0
O112 O 0.34673 0.78555 0.33344 0.0
O113 O 0.3817 0.77589 0.32754 0.0
O114 O 0.33252 0.76062 0.36645 0.0
O115 O 0.35945 0.74296 0.38179 0.0
O116 O 0.35585 0.79421 0.41166 0.0
O117 O 0.36053 0.80771 0.37669 0.0
C118 C 0.40286 0.73096 0.36984 0.0
C119 C 0.35365 0.81119 0.39731 0.0
Dy120 Dy 0.48883 0.10939 0.66097 0.0
C121 C 0.45772 0.10713 0.57435 0.0
C122 C 0.51168 0.10789 0.70071 0.0
Dy123 Dy 0.47406 0.1069 0.6163 0.0
O124 O 0.48934 0.10969 0.69844 0.0
O125 O 0.52096 0.10474 0.68153 0.0
O126 O 0.48618 0.14759 0.6624 0.0
O127 O 0.46317 0.12922 0.64277 0.0
C128 C 0.46911 0.14881 0.64832 0.0
C129 C 0.5064 0.07526 0.62479 0.0
O130 O 0.49737 0.13672 0.61365 0.0
O131 O 0.51917 0.12263 0.64178 0.0
O132 O 0.47441 0.11948 0.58184 0.0
O133 O 0.44915 0.09488 0.59002 0.0
O134 O 0.50498 0.08734 0.6071 0.0
O135 O 0.49026 0.08026 0.63794 0.0
O136 O 0.45234 0.09593 0.667 0.0
O137 O 0.44079 0.09476 0.63001 0.0
C138 C 0.51736 0.13608 0.62429 0.0
C139 C 0.43602 0.09277 0.65131 0.0
Dy140 Dy 0.16632 0.21817 0.89551 0.0
C141 C 0.11692 0.29486 0.85794 0.0
C142 C 0.17622 0.17776 0.91571 0.0
Dy143 Dy 0.13706 0.25684 0.87506 0.0
O144 O 0.19062 0.18909 0.90369 0.0
O145 O 0.15701 0.18918 0.91743 0.0
O146 O 0.19885 0.23061 0.8798 0.0
O147 O 0.17189 0.2534 0.88861 0.0
C148 C 0.19072 0.25135 0.87846 0.0
C149 C 0.11372 0.22306 0.89266 0.0
O150 O 0.14793 0.24016 0.84353 0.0
O151 O 0.15876 0.20589 0.85989 0.0
O152 O 0.1104 0.27418 0.85397 0.0
O153 O 0.13555 0.2947 0.87036 0.0
O154 O 0.10583 0.24376 0.89192 0.0
O155 O 0.13191 0.22132 0.88169 0.0
O156 O 0.15968 0.24052 0.9267 0.0
O157 O 0.13234 0.26456 0.91046 0.0
C158 C 0.15336 0.21833 0.84191 0.0
C159 C 0.14453 0.25793 0.92797 0.0
Dy160 Dy 0.3392 0.04589 0.09703 0.0
C161 C 0.37921 0.9666 0.13745 0.0
C162 C 0.32809 0.09046 0.0873 0.0
Dy163 Dy 0.36252 0.00612 0.12115 0.0
O164 O 0.33161 0.07459 0.07268 0.0
O165 O 0.32991 0.0816 0.10698 0.0
O166 O 0.33209 0.02479 0.06693 0.0
O167 O 0.36238 0.01919 0.08717 0.0
C168 C 0.35068 0.01245 0.07057 0.0
C169 C 0.35077 0.04085 0.14759 0.0
O170 O 0.39568 0.02194 0.11379 0.0
O171 O 0.37834 0.05451 0.09921 0.0
O172 O 0.37516 0.98465 0.14905 0.0
O173 O 0.37407 0.96991 0.11661 0.0
O174 O 0.36783 0.02703 0.15179 0.0
O175 O 0.33921 0.0339 0.13105 0.0
O176 O 0.30723 0.02509 0.10717 0.0
O177 O 0.3273 0.99188 0.11665 0.0
C178 C 0.39701 0.04295 0.10666 0.0
C179 C 0.3076 0.00307 0.11331 0.0
Dy180 Dy 0.2075 0.09694 0.34534 0.0
C181 C 0.28861 0.13191 0.38906 0.0
C182 C 0.16327 0.08521 0.33616 0.0
Dy183 Dy 0.24794 0.11758 0.37164 0.0
O184 O 0.17919 0.08682 0.32125 0.0
O185 O 0.17144 0.08996 0.35571 0.0
O186 O 0.23006 0.09157 0.31532 0.0
O187 O 0.23604 0.11859 0.33758 0.0
C188 C 0.24383 0.10796 0.32123 0.0
C189 C 0.21065 0.10886 0.39534 0.0
O190 O 0.23305 0.14968 0.35731 0.0
O191 O 0.1971 0.13437 0.34962 0.0
O192 O 0.2683 0.13804 0.39579 0.0
O193 O 0.28665 0.11819 0.37227 0.0
O194 O 0.22526 0.12443 0.40078 0.0
O195 O 0.2185 0.09675 0.37986 0.0
O196 O 0.22567 0.06406 0.35554 0.0
O197 O 0.259 0.08053 0.37041 0.0
C198 C 0.21055 0.15228 0.35366 0.0
C199 C 0.24692 0.06238 0.36434 0.0
Dy200 Dy 0.14694 0.96945 0.59859 0.0
C201 C 0.11308 0.04528 0.65278 0.0
C202 C 0.16198 0.92669 0.58724 0.0
Dy203 Dy 0.13068 0.0093 0.62954 0.0
O204 O 0.17413 0.94507 0.58523 0.0
O205 O 0.14166 0.93195 0.59446 0.0
O206 O 0.13062 0.98533 0.56804 0.0
O207 O 0.14087 0.00591 0.59485 0.0
C208 C 0.12918 0.00554 0.57696 0.0
C209 C 0.14764 0.97097 0.6495 0.0
O210 O 0.09766 0.9985 0.61388 0.0
O211 O 0.11041 0.96157 0.60764 0.0
O212 O 0.10679 0.02427 0.6546 0.0
O213 O 0.12881 0.04674 0.63766 0.0
O214 O 0.14746 0.99076 0.6589 0.0
O215 O 0.13576 0.97268 0.63211 0.0
O216 O 0.18045 0.98382 0.61281 0.0
O217 O 0.16695 0.01904 0.62536 0.0
C218 C 0.09353 0.97682 0.61016 0.0
C219 C 0.18394 0.00461 0.62102 0.0
Dy220 Dy 0.29531 0.89445 0.85643 0.0
C221 C 0.21138 0.86659 0.90094 0.0
C222 C 0.34165 0.90342 0.84838 0.0
Dy223 Dy 0.25316 0.87667 0.88304 0.0
O224 O 0.32814 0.89134 0.83558 0.0
O225 O 0.32943 0.91098 0.86481 0.0
O226 O 0.27178 0.90246 0.8266 0.0
O227 O 0.26343 0.87646 0.84861 0.0
C228 C 0.25596 0.8879 0.83234 0.0
C229 C 0.29259 0.88124 0.90716 0.0
O230 O 0.26377 0.84525 0.86563 0.0
O231 O 0.30181 0.85659 0.862 0.0
O232 O 0.23052 0.85534 0.90453 0.0
O233 O 0.21509 0.88323 0.88733 0.0
O234 O 0.27608 0.86771 0.91234 0.0
O235 O 0.28565 0.89396 0.89143 0.0
O236 O 0.27849 0.92799 0.86658 0.0
O237 O 0.24352 0.91318 0.87844 0.0
C238 C 0.2859 0.84039 0.8628 0.0
C239 C 0.25685 0.93059 0.87373 0.0
Dy240 Dy 0.35245 0.95541 0.39651 0.0
C241 C 0.37404 0.03733 0.35095 0.0
C242 C 0.34646 0.90969 0.40813 0.0
Dy243 Dy 0.3661 0.99656 0.37007 0.0
O244 O 0.3302 0.92519 0.40649 0.0
O245 O 0.36597 0.9197 0.4047 0.0
O246 O 0.35009 0.97677 0.42828 0.0
O247 O 0.37288 0.98572 0.4038 0.0
C248 C 0.36412 0.99248 0.42156 0.0
C249 C 0.35718 0.95993 0.34429 0.0
O250 O 0.4008 0.98474 0.38038 0.0
O251 O 0.38818 0.94783 0.38242 0.0
O252 O 0.38962 0.02167 0.3543 0.0
O253 O 0.35429 0.03092 0.35848 0.0
O254 O 0.37095 0.97617 0.33933 0.0
O255 O 0.34628 0.96533 0.36163 0.0
O256 O 0.31776 0.972 0.38627 0.0
O257 O 0.3326 0.00803 0.3838 0.0
C258 C 0.40508 0.96275 0.37988 0.0
C259 C 0.3147 0.99451 0.38451 0.0
Dy260 Dy 0.29034 0.10399 0.65548 0.0
C261 C 0.21182 0.14004 0.60265 0.0
C262 C 0.33594 0.09005 0.66162 0.0
Dy263 Dy 0.24866 0.1204 0.62479 0.0
O264 O 0.321 0.09267 0.6776 0.0
O265 O 0.32551 0.09455 0.64291 0.0
O266 O 0.27477 0.12185 0.68517 0.0
O267 O 0.25312 0.11057 0.65936 0.0
C268 C 0.2538 0.1227 0.6767 0.0
C269 C 0.28512 0.10139 0.60481 0.0
O270 O 0.26634 0.15295 0.63175 0.0
O271 O 0.29929 0.14041 0.65128 0.0
O272 O 0.22984 0.13087 0.59358 0.0
O273 O 0.21385 0.13849 0.62419 0.0
O274 O 0.26397 0.09946 0.59752 0.0
O275 O 0.28541 0.11466 0.62126 0.0
O276 O 0.27252 0.07084 0.64679 0.0
O277 O 0.23755 0.08539 0.63189 0.0
C278 C 0.28629 0.15655 0.64207 0.0
C279 C 0.25133 0.06828 0.63803 0.0
Dy280 Dy 0.15496 0.0386 0.9069 0.0
C281 C 0.11675 0.96234 0.85417 0.0
C282 C 0.16868 0.08053 0.9197 0.0
Dy283 Dy 0.1359 0.99844 0.87564 0.0
O284 O 0.15067 0.07022 0.92717 0.0
O285 O 0.17966 0.06752 0.90577 0.0
O286 O 0.14819 0.02054 0.93998 0.0
O287 O 0.14272 0.00538 0.9096 0.0
C288 C 0.14003 0.00267 0.92986 0.0
C289 C 0.15489 0.03429 0.85492 0.0
O290 O 0.10282 0.0152 0.88652 0.0
O291 O 0.11842 0.04954 0.8989 0.0
O292 O 0.11158 0.98365 0.85075 0.0
O293 O 0.13177 0.96077 0.87047 0.0
O294 O 0.15513 0.01367 0.84726 0.0
O295 O 0.14314 0.03462 0.87234 0.0
O296 O 0.18803 0.02026 0.89682 0.0
O297 O 0.17241 0.98709 0.88117 0.0
C298 C 0.10058 0.03679 0.89279 0.0
C299 C 0.19017 -0.00047 0.88789 0.0
Dy300 Dy 0.20359 0.89632 0.15156 0.0
C301 C 0.27861 0.85937 0.10194 0.0
C302 C 0.16155 0.91284 0.16388 0.0
Dy303 Dy 0.2417 0.87872 0.12115 0.0
O304 O 0.17876 0.90885 0.17768 0.0
O305 O 0.16795 0.90902 0.14373 0.0
O306 O 0.21736 0.8738 0.17932 0.0
O307 O 0.2398 0.887 0.15584 0.0
C308 C 0.2382 0.87291 0.17141 0.0
C309 C 0.206 0.89982 0.10105 0.0
O310 O 0.22225 0.84618 0.12658 0.0
O311 O 0.18976 0.86131 0.14383 0.0
O312 O 0.2589 0.86336 0.09214 0.0
O313 O 0.27816 0.86527 0.12272 0.0
O314 O 0.22713 0.90101 0.09408 0.0
O315 O 0.20543 0.8865 0.11729 0.0
O316 O 0.22298 0.92931 0.14311 0.0
O317 O 0.25523 0.91365 0.12562 0.0
C318 C 0.20125 0.84396 0.13489 0.0
C319 C 0.24347 0.9314 0.13312 0.0
Dy320 Dy 0.10517 0.36184 0.03527 0.0
C321 C 0.14917 0.40774 0.96207 0.0
C322 C 0.09763 0.34332 0.07602 0.0
Dy323 Dy 0.13069 0.38518 0.99695 0.0
O324 O 0.08191 0.3451 0.06036 0.0
O325 O 0.11698 0.35118 0.0691 0.0
O326 O 0.07147 0.37927 0.02574 0.0
O327 O 0.09635 0.37186 0.00178 0.0
C328 C 0.07737 0.38207 0.00515 0.0
C329 C 0.15683 0.36361 0.02714 0.0
O330 O 0.12065 0.41609 0.01617 0.0
O331 O 0.11127 0.39764 0.04877 0.0
O332 O 0.16021 0.40161 0.97999 0.0
O333 O 0.12738 0.40277 0.96391 0.0
O334 O 0.16189 0.36433 0.00629 0.0
O335 O 0.13916 0.3756 0.0307 0.0
O336 O 0.11486 0.33062 0.01317 0.0
O337 O 0.12982 0.35029 0.98329 0.0
C338 C 0.11599 0.41655 0.03756 0.0
C339 C 0.12382 0.33091 0.99262 0.0
Dy340 Dy 0.61556 0.16015 0.9863 0.0
C341 C 0.60015 0.06944 0.95314 0.0
C342 C 0.6175 0.20004 0.00872 0.0
Dy343 Dy 0.61665 0.11526 0.97212 0.0
O344 O 0.63489 0.18941 0.00034 0.0
O345 O 0.59849 0.18939 0.00405 0.0
O346 O 0.64103 0.17003 0.96107 0.0
O347 O 0.64503 0.13821 0.97687 0.0
C348 C 0.65301 0.15133 0.96245 0.0
C349 C 0.57732 0.12377 0.99224 0.0
O350 O 0.63934 0.11016 0.00194 0.0
O351 O 0.62304 0.1413 0.01842 0.0
O352 O 0.61865 0.08197 0.95556 0.0
O353 O 0.61868 0.08196 0.95555 0.0
O354 O 0.58968 0.10567 0.9957 0.0
O355 O 0.58661 0.1371 0.97882 0.0
O356 O 0.59651 0.16661 0.95434 0.0
O357 O 0.61154 0.13361 0.93982 0.0
C358 C 0.63629 0.12284 0.01967 0.0
C359 C 0.6009 0.15344 0.93709 0.0
Dy360 Dy 0.12525 0.33981 0.21166 0.0
C361 C 0.1617 0.37888 0.29304 0.0
C362 C 0.11183 0.33448 0.16852 0.0
Dy363 Dy 0.14788 0.36089 0.25299 0.0
O364 O 0.13073 0.34418 0.17523 0.0
O365 O 0.10032 0.32723 0.18541 0.0
O366 O 0.11587 0.30754 0.22903 0.0
O367 O 0.14462 0.32638 0.23986 0.0
C368 C 0.13153 0.31018 0.24451 0.0
C369 C 0.14039 0.3891 0.21813 0.0
O370 O 0.17889 0.34301 0.24039 0.0
O371 O 0.16377 0.34072 0.20474 0.0
O372 O 0.16944 0.38436 0.27372 0.0
O373 O 0.14656 0.36288 0.29033 0.0
O374 O 0.15782 0.39085 0.23171 0.0
O375 O 0.1273 0.37385 0.22478 0.0
O376 O 0.09506 0.35786 0.22807 0.0
O377 O 0.11116 0.35817 0.26339 0.0
C378 C 0.18184 0.34027 0.21884 0.0
C379 C 0.09302 0.36037 0.24993 0.0
Dy380 Dy 0.90769 0.8546 0.46157 0.0
C381 C 0.86276 0.90087 0.53637 0.0
C382 C 0.91251 0.83512 0.41965 0.0
Dy383 Dy 0.88317 0.8779 0.50201 0.0
O384 O 0.92592 0.85054 0.42836 0.0
O385 O 0.89739 0.82961 0.43447 0.0
O386 O 0.94321 0.86617 0.47454 0.0
O387 O 0.91596 0.86093 0.49599 0.0
C388 C 0.93598 0.86878 0.49484 0.0
C389 C 0.85619 0.86146 0.46862 0.0
O390 O 0.89959 0.90755 0.48593 0.0
O391 O 0.89846 0.89102 0.45119 0.0
O392 O 0.85288 0.89522 0.51778 0.0
O393 O 0.88418 0.89371 0.53629 0.0
O394 O 0.85056 0.8612 0.48932 0.0
O395 O 0.87498 0.87161 0.46692 0.0
O396 O 0.89465 0.82462 0.48351 0.0
O397 O 0.88995 0.84421 0.51674 0.0
C398 C 0.89886 0.90947 0.46413 0.0
C399 C 0.88993 0.82493 0.50543 0.0
Dy400 Dy 0.88469 0.14586 0.21311 0.0
C401 C 0.84199 0.1006 0.28658 0.0
C402 C 0.9017 0.15457 0.17155 0.0
Dy403 Dy 0.85826 0.11809 0.24808 0.0
O404 O 0.89501 0.17008 0.18557 0.0
O405 O 0.89935 0.13467 0.18046 0.0
O406 O 0.88729 0.1767 0.23442 0.0
O407 O 0.8589 0.1539 0.23738 0.0
C408 C 0.86859 0.17149 0.24512 0.0
C409 C 0.87432 0.09383 0.21395 0.0
O410 O 0.82685 0.12805 0.22957 0.0
O411 O 0.84639 0.14465 0.20033 0.0
O412 O 0.83587 0.09427 0.2667 0.0
O413 O 0.85555 0.11798 0.28514 0.0
O414 O 0.85728 0.08725 0.22601 0.0
O415 O 0.88384 0.11067 0.22294 0.0
O416 O 0.91494 0.13652 0.23797 0.0
O417 O 0.89368 0.11504 0.26219 0.0
C418 C 0.82712 0.13625 0.20928 0.0
C419 C 0.91356 0.12382 0.2566 0.0
Dy420 Dy 0.41286 0.6297 0.53744 0.0
C421 C 0.3672 0.59634 0.4584 0.0
C422 C 0.42164 0.64233 0.58067 0.0
Dy423 Dy 0.38606 0.61139 0.49717 0.0
O424 O 0.42385 0.6554 0.56349 0.0
O425 O 0.41557 0.62228 0.57411 0.0
O426 O 0.44489 0.63651 0.51713 0.0
O427 O 0.42206 0.61077 0.50797 0.0
C428 C 0.43924 0.62181 0.50186 0.0
C429 C 0.35972 0.6305 0.52958 0.0
O430 O 0.39562 0.57797 0.51156 0.0
O431 O 0.41286 0.59157 0.54401 0.0
O432 O 0.36034 0.59091 0.47813 0.0
O433 O 0.38544 0.60896 0.46004 0.0
O434 O 0.35424 0.63068 0.5087 0.0
O435 O 0.3778 0.61876 0.53174 0.0
O436 O 0.39585 0.66084 0.52077 0.0
O437 O 0.39728 0.64516 0.48655 0.0
C438 C 0.40579 0.57437 0.5311 0.0
C439 C 0.39495 0.66331 0.49882 0.0
Dy440 Dy 0.11367 0.65345 0.30223 0.0
C441 C 0.14693 0.61434 0.2182 0.0
C442 C 0.10273 0.66306 0.34512 0.0
Dy443 Dy 0.13431 0.63194 0.25881 0.0
O444 O 0.0889 0.66622 0.32817 0.0
O445 O 0.12257 0.65525 0.33858 0.0
O446 O 0.10537 0.68623 0.28416 0.0
O447 O 0.1329 0.66524 0.27431 0.0
C448 C 0.121 0.68237 0.26935 0.0
C449 C 0.12815 0.60277 0.29204 0.0
O450 O 0.16582 0.64624 0.27456 0.0
O451 O 0.15125 0.64731 0.31034 0.0
O452 O 0.15675 0.60999 0.23724 0.0
O453 O 0.13062 0.62952 0.22127 0.0
O454 O 0.14399 0.60039 0.27727 0.0
O455 O 0.11531 0.61945 0.28735 0.0
O456 O 0.08226 0.63685 0.28744 0.0
O457 O 0.09621 0.6339 0.25145 0.0
C458 C 0.16878 0.64614 0.29642 0.0
C459 C 0.07903 0.63354 0.26583 0.0
Dy460 Dy 0.38371 0.33853 0.77947 0.0
C461 C 0.34582 0.38845 0.70392 0.0
C462 C 0.4019 0.32755 0.82166 0.0
Dy463 Dy 0.36593 0.36816 0.74014 0.0
O464 O 0.41177 0.33954 0.80638 0.0
O465 O 0.38241 0.32066 0.81299 0.0
O466 O 0.36543 0.3071 0.76507 0.0
O467 O 0.37526 0.33293 0.74437 0.0
C468 C 0.36346 0.31525 0.74494 0.0
C469 C 0.38799 0.39095 0.77258 0.0
O470 O 0.33308 0.36313 0.7587 0.0
O471 O 0.34953 0.35138 0.79214 0.0
O472 O 0.345 0.39585 0.72414 0.0
O473 O 0.35725 0.3693 0.70358 0.0
O474 O 0.38975 0.39564 0.75162 0.0
O475 O 0.37446 0.37449 0.77489 0.0
O476 O 0.417 0.34448 0.75988 0.0
O477 O 0.40088 0.36052 0.72754 0.0
C478 C 0.33144 0.35806 0.77997 0.0
C479 C 0.4188 0.35274 0.73922 0.0
Dy480 Dy 0.01497 0.88093 0.61513 0.0
C481 C 0.93178 0.91851 0.6538 0.0
C482 C 0.05602 0.86623 0.59816 0.0
Dy483 Dy 0.97292 0.90797 0.63389 0.0
O484 O 0.03688 0.85488 0.59806 0.0
O485 O 0.0521 0.88629 0.60648 0.0
O486 O 0.00382 0.84908 0.63263 0.0
O487 O 0.9795 0.87356 0.62323 0.0
C488 C 0.98236 0.85556 0.63439 0.0
C489 C 0.00619 0.93366 0.61728 0.0
O490 O 0.99395 0.89961 0.66579 0.0
O491 O 0.02783 0.88505 0.6503 0.0
O492 O 0.93697 0.92331 0.63349 0.0
O493 O 0.94947 0.90876 0.66353 0.0
O494 O 0.98496 0.94093 0.61914 0.0
O495 O 0.00863 0.91516 0.62744 0.0
O496 O 0.99565 0.88893 0.58302 0.0
O497 O 0.96074 0.90014 0.59844 0.0
C498 C 0.01563 0.89139 0.66778 0.0
C499 C 0.97352 0.89503 0.58079 0.0
Dy500 Dy 0.8617 0.24613 0.36128 0.0
C501 C 0.82321 0.16394 0.39444 0.0
C502 C 0.88732 0.28305 0.35052 0.0
Dy503 Dy 0.83091 0.20716 0.38104 0.0
O504 O 0.89355 0.262 0.34805 0.0
O505 O 0.86624 0.28417 0.35787 0.0
O506 O 0.89193 0.22131 0.36086 0.0
O507 O 0.86624 0.21786 0.38415 0.0
C508 C 0.88416 0.20886 0.37672 0.0
C509 C 0.80804 0.24505 0.36991 0.0
O510 O 0.84507 0.22423 0.41177 0.0
O511 O 0.85361 0.25888 0.39538 0.0
O512 O 0.81007 0.18131 0.39959 0.0
O513 O 0.83999 0.17022 0.38188 0.0
O514 O 0.79979 0.23022 0.38378 0.0
O515 O 0.82546 0.23675 0.36027 0.0
O516 O 0.84927 0.23041 0.32949 0.0
O517 O 0.83423 0.19746 0.345 0.0
C518 C 0.85076 0.24605 0.41323 0.0
C519 C 0.84096 0.20948 0.32761 0.0
Dy520 Dy 0.51704 0.11477 0.10767 0.0
C521 C 0.4852 0.11604 0.19564 0.0
C522 C 0.52476 0.11805 0.06378 0.0
Dy523 Dy 0.50826 0.11467 0.15635 0.0
O524 O 0.51084 0.13121 0.07468 0.0
O525 O 0.53494 0.10343 0.07685 0.0
O526 O 0.50549 0.07844 0.10674 0.0
O527 O 0.48894 0.10132 0.12748 0.0
C528 C 0.48852 0.08124 0.12021 0.0
C529 C 0.53837 0.14818 0.14996 0.0
O530 O 0.54064 0.09168 0.15459 0.0
O531 O 0.55202 0.10819 0.12217 0.0
O532 O 0.49697 0.13226 0.18707 0.0
O533 O 0.48712 0.09782 0.18326 0.0
O534 O 0.53145 0.1416 0.16925 0.0
O535 O 0.52983 0.13529 0.13514 0.0
O536 O 0.49234 0.14403 0.10645 0.0
O537 O 0.48045 0.13824 0.14235 0.0
C538 C 0.55707 0.09526 0.13956 0.0
C539 C 0.47855 0.14886 0.12302 0.0
Dy540 Dy 0.61141 0.73927 0.87225 0.0
C541 C 0.66147 0.8149 0.90552 0.0
C542 C 0.58967 0.70237 0.85516 0.0
Dy543 Dy 0.64339 0.77615 0.88845 0.0
O544 O 0.58367 0.72338 0.8515 0.0
O545 O 0.60809 0.70165 0.86772 0.0
O546 O 0.5817 0.75738 0.88796 0.0
O547 O 0.60817 0.77657 0.87454 0.0
C548 C 0.58951 0.77775 0.88515 0.0
C549 C 0.66455 0.73705 0.87736 0.0
O550 O 0.63126 0.7618 0.92144 0.0
O551 O 0.61323 0.72928 0.90815 0.0
O552 O 0.66928 0.80426 0.88825 0.0
O553 O 0.64413 0.80404 0.91367 0.0
O554 O 0.67515 0.7564 0.877 0.0
O555 O 0.64545 0.73985 0.88636 0.0
O556 O 0.62813 0.75029 0.84048 0.0
O557 O 0.63645 0.78643 0.85287 0.0
C558 C 0.6209 0.74199 0.92483 0.0
C559 C 0.63383 0.77163 0.83639 0.0
Dy560 Dy 0.01219 0.13688 0.87971 0.0
C561 C 0.9344 0.09108 0.84343 0.0
C562 C 0.05199 0.15125 0.89825 0.0
Dy563 Dy 0.97438 0.10612 0.861 0.0
O564 O 0.03218 0.1619 0.89934 0.0
O565 O 0.04961 0.13205 0.88791 0.0
O566 O 0.99679 0.16661 0.86164 0.0
O567 O 0.97468 0.14162 0.87358 0.0
C568 C 0.97538 0.16018 0.86273 0.0
C569 C 0.01262 0.08109 0.87153 0.0
O570 O 0.99073 0.11855 0.829 0.0
O571 O 0.02294 0.13623 0.84427 0.0
O572 O 0.94341 0.08401 0.86208 0.0
O573 O 0.94737 0.10623 0.83435 0.0
O574 O 0.99413 0.0719 0.86313 0.0
O575 O 0.00865 0.10193 0.8729 0.0
O576 O 0.99614 0.12622 0.91157 0.0
O577 O 0.96268 0.11038 0.89659 0.0
C578 C 0.01086 0.12907 0.8269 0.0
C579 C 0.97547 0.11713 0.91393 0.0
Dy580 Dy 0.62343 0.22619 0.6389 0.0
C581 C 0.61691 0.2577 0.55398 0.0
C582 C 0.62637 0.21303 0.68188 0.0
Dy583 Dy 0.61922 0.23454 0.59378 0.0
O584 O 0.62544 0.23384 0.67515 0.0
O585 O 0.62528 0.19919 0.66522 0.0
O586 O 0.64348 0.25672 0.64656 0.0
O587 O 0.64965 0.2405 0.61579 0.0
C588 C 0.65417 0.2577 0.62809 0.0
C589 C 0.58576 0.20573 0.60646 0.0
O590 O 0.63667 0.19986 0.58975 0.0
O591 O 0.6376 0.19276 0.62701 0.0
O592 O 0.63192 0.24175 0.55896 0.0
O593 O 0.60313 0.26021 0.57051 0.0
O594 O 0.59494 0.20584 0.58695 0.0
O595 O 0.59283 0.22268 0.61747 0.0
O596 O 0.59287 0.24985 0.64019 0.0
O597 O 0.60517 0.26697 0.60878 0.0
C598 C 0.64042 0.18553 0.60653 0.0
C599 C 0.59246 0.26749 0.62672 0.0
Dy600 Dy 0.52282 0.89297 0.37924 0.0
C601 C 0.49096 0.88929 0.28905 0.0
C602 C 0.53106 0.89837 0.42389 0.0
Dy603 Dy 0.51031 0.88665 0.33062 0.0
O604 O 0.53866 0.91153 0.40847 0.0
O605 O 0.52037 0.8814 0.41463 0.0
O606 O 0.51419 0.92994 0.37357 0.0
O607 O 0.49469 0.90566 0.3579 0.0
C608 C 0.49583 0.9266 0.36163 0.0
C609 C 0.53647 0.85086 0.34184 0.0
O610 O 0.54378 0.907 0.3299 0.0
O611 O 0.55772 0.89448 0.36401 0.0
O612 O 0.51016 0.87902 0.29426 0.0
O613 O 0.48259 0.89911 0.30658 0.0
O614 O 0.52716 0.85376 0.32236 0.0
O615 O 0.53049 0.86705 0.35454 0.0
O616 O 0.49464 0.86688 0.38297 0.0
O617 O 0.48308 0.86452 0.34572 0.0
C618 C 0.56134 0.9033 0.3442 0.0
C619 C 0.48114 0.85847 0.36689 0.0
Dy620 Dy 0.86143 0.73853 0.12489 0.0
C621 C 0.83181 0.82204 0.08393 0.0
C622 C 0.88359 0.70247 0.14263 0.0
Dy623 Dy 0.83844 0.77886 0.09978 0.0
O624 O 0.89319 0.72089 0.13605 0.0
O625 O 0.86119 0.70327 0.13959 0.0
O626 O 0.89254 0.76029 0.13018 0.0
O627 O 0.87235 0.76401 0.10129 0.0
C628 C 0.8892 0.77175 0.11209 0.0
C629 C 0.80904 0.74825 0.11406 0.0
O630 O 0.85139 0.75578 0.07131 0.0
O631 O 0.85515 0.72238 0.09171 0.0
O632 O 0.81762 0.80535 0.08043 0.0
O633 O 0.84921 0.81505 0.09609 0.0
O634 O 0.80493 0.75998 0.09605 0.0
O635 O 0.82729 0.7546 0.12353 0.0
O636 O 0.85029 0.75671 0.15519 0.0
O637 O 0.84204 0.7905 0.13673 0.0
C638 C 0.855 0.73315 0.07238 0.0
C639 C 0.8452 0.7787 0.15577 0.0
Dy640 Dy 0.63846 0.9939 0.87508 0.0
C641 C 0.6736 0.9106 0.91349 0.0
C642 C 0.61832 0.0311 0.85662 0.0
Dy643 Dy 0.65848 0.95327 0.90254 0.0
O644 O 0.61672 0.01062 0.84875 0.0
O645 O 0.63052 0.03095 0.87483 0.0
O646 O 0.65691 0.98022 0.84537 0.0
O647 O 0.64466 0.95804 0.86943 0.0
C648 C 0.65637 0.9593 0.85214 0.0
C649 C 0.64148 0.98797 0.926 0.0
O650 O 0.69149 0.97266 0.89278 0.0
O651 O 0.67444 0.00592 0.87821 0.0
O652 O 0.66762 0.92611 0.9278 0.0
O653 O 0.67234 0.91903 0.89368 0.0
O654 O 0.64157 0.9672 0.93343 0.0
O655 O 0.65215 0.98849 0.90808 0.0
O656 O 0.60556 0.97896 0.88706 0.0
O657 O 0.62116 0.94337 0.89537 0.0
C658 C 0.69287 0.99368 0.88399 0.0
C659 C 0.60306 0.95713 0.89155 0.0
Dy660 Dy 0.75515 0.88012 0.62078 0.0
C661 C 0.83484 0.9145 0.66092 0.0
C662 C 0.71402 0.86645 0.60281 0.0
Dy663 Dy 0.79132 0.90108 0.64959 0.0
O664 O 0.73378 0.85629 0.59973 0.0
O665 O 0.71721 0.8843 0.61506 0.0
O666 O 0.77794 0.87838 0.59092 0.0
O667 O 0.7831 0.90394 0.61441 0.0
C668 C 0.79189 0.89385 0.59803 0.0
C669 C 0.75515 0.88384 0.67255 0.0
O670 O 0.77265 0.93292 0.63743 0.0
O671 O 0.73899 0.91417 0.62865 0.0
O672 O 0.81694 0.9173 0.6736 0.0
O673 O 0.82891 0.90412 0.64283 0.0
O674 O 0.76595 0.90244 0.67803 0.0
O675 O 0.76496 0.87564 0.6558 0.0
O676 O 0.77165 0.84774 0.63225 0.0
O677 O 0.80506 0.86476 0.64524 0.0
C678 C 0.75038 0.93334 0.63164 0.0
C679 C 0.79356 0.84639 0.63861 0.0
Dy680 Dy 0.86701 0.99004 0.37033 0.0
C681 C 0.83504 0.071 0.41041 0.0
C682 C 0.88559 0.95445 0.34783 0.0
Dy683 Dy 0.85068 0.02868 0.39997 0.0
O684 O 0.89704 0.97219 0.3541 0.0
O685 O 0.8645 0.95573 0.35463 0.0
O686 O 0.84824 0.00603 0.34113 0.0
O687 O 0.86134 0.02644 0.3658 0.0
C688 C 0.84896 0.02657 0.34859 0.0
C689 C 0.8724 0.99458 0.4219 0.0
O690 O 0.81732 0.01235 0.38753 0.0
O691 O 0.83303 0.9768 0.38065 0.0
O692 O 0.8293 0.05272 0.42122 0.0
O693 O 0.84908 0.06602 0.39462 0.0
O694 O 0.87079 0.01523 0.42967 0.0
O695 O 0.8589 0.99262 0.40535 0.0
O696 O 0.90082 0.00392 0.38165 0.0
O697 O 0.88735 0.03878 0.39465 0.0
C698 C 0.81488 0.99046 0.38244 0.0
C699 C 0.90437 0.02493 0.38867 0.0
Dy700 Dy 0.74268 0.12013 0.11227 0.0
C701 C 0.65782 0.08925 0.15096 0.0
C702 C 0.78408 0.13326 0.09556 0.0
Dy703 Dy 0.70198 0.10392 0.14123 0.0
O704 O 0.7645 0.13317 0.08468 0.0
O705 O 0.7808 0.1272 0.116 0.0
O706 O 0.72571 0.1039 0.08274 0.0
O707 O 0.70519 0.1175 0.10767 0.0
C708 C 0.70463 0.10684 0.08946 0.0
C709 C 0.73913 0.12018 0.16373 0.0
O710 O 0.71979 0.06999 0.13257 0.0
O711 O 0.75195 0.08369 0.11409 0.0
O712 O 0.67049 0.10234 0.16354 0.0
O713 O 0.67009 0.08331 0.13392 0.0
O714 O 0.71848 0.11947 0.17211 0.0
O715 O 0.73915 0.10847 0.14614 0.0
O716 O 0.72714 0.15357 0.12229 0.0
O717 O 0.69198 0.14041 0.13542 0.0
C718 C 0.73959 0.06683 0.12165 0.0
C719 C 0.70613 0.15708 0.1303 0.0
Dy720 Dy 0.63333 -0.00055 0.63438 0.0
C721 C 0.64876 0.08674 0.59437 0.0
C722 C 0.62582 0.96018 0.65709 0.0
Dy723 Dy 0.64446 0.04031 0.60277 0.0
O724 O 0.63578 0.97811 0.66503 0.0
O725 O 0.62009 0.96338 0.63634 0.0
O726 O 0.62722 0.0236 0.66224 0.0
O727 O 0.65093 0.03217 0.63772 0.0
C728 C 0.64011 0.03951 0.65449 0.0
C729 C 0.63356 0.00159 0.58104 0.0
O730 O 0.68051 0.02431 0.6069 0.0
O731 O 0.66996 0.99187 0.62678 0.0
O732 O 0.64473 0.07123 0.57927 0.0
O733 O 0.65051 0.07659 0.61345 0.0
O734 O 0.64609 0.01762 0.57233 0.0
O735 O 0.62583 0.00841 0.59956 0.0
O736 O 0.59742 0.01125 0.62955 0.0
O737 O 0.60602 0.04442 0.61011 0.0
C738 C 0.68539 0.00423 0.6165 0.0
C739 C 0.5914 0.031 0.62078 0.0
Dy740 Dy 0.75443 0.87939 0.37272 0.0
C741 C 0.66131 0.90346 0.33984 0.0
C742 C 0.79405 0.86423 0.39311 0.0
Dy743 Dy 0.70782 0.89356 0.34638 0.0
O744 O 0.77354 0.85641 0.39626 0.0
O745 O 0.79322 0.87959 0.37748 0.0
O746 O 0.73943 0.89172 0.4049 0.0
O747 O 0.71787 0.88173 0.37916 0.0
C748 C 0.71819 0.89126 0.39784 0.0
C749 C 0.74399 0.8789 0.32169 0.0
O750 O 0.72204 0.92798 0.35665 0.0
O751 O 0.7592 0.91659 0.36901 0.0
O752 O 0.67704 0.90472 0.32454 0.0
O753 O 0.67111 0.89716 0.35837 0.0
O754 O 0.72244 0.87747 0.31496 0.0
O755 O 0.74474 0.89043 0.33938 0.0
O756 O 0.74308 0.84653 0.35819 0.0
O757 O 0.70413 0.85656 0.35383 0.0
C758 C 0.74328 0.93244 0.36441 0.0
C759 C 0.72102 0.84116 0.35593 0.0
Dy760 Dy 0.86175 0.9964 0.12326 0.0
C761 C 0.83047 0.91955 0.07735 0.0
C762 C 0.88226 0.02852 0.14836 0.0
Dy763 Dy 0.84635 0.96095 0.09155 0.0
O764 O 0.86487 0.01649 0.15429 0.0
O765 O 0.88787 0.02405 0.128 0.0
O766 O 0.83955 0.98141 0.14895 0.0
O767 O 0.85614 0.96002 0.1264 0.0
C768 C 0.84263 0.96058 0.14261 0.0
C769 C 0.86628 0.99516 0.0705 0.0
O770 O 0.81205 0.97954 0.09855 0.0
O771 O 0.82749 0.01187 0.1148 0.0
O772 O 0.84803 0.93008 0.06934 0.0
O773 O 0.82052 0.93263 0.09185 0.0
O774 O 0.8643 0.97492 0.06207 0.0
O775 O 0.85382 0.9972 0.08754 0.0
O776 O 0.89461 0.97645 0.12331 0.0
O777 O 0.88308 0.94908 0.0987 0.0
C778 C 0.80951 0.00028 0.10735 0.0
C779 C 0.89933 0.95828 0.11146 0.0
Dy780 Dy 0.75252 0.11989 0.87456 0.0
C781 C 0.83744 0.08941 0.83791 0.0
C782 C 0.71252 0.1325 0.89281 0.0
Dy783 Dy 0.79365 0.10035 0.8482 0.0
O784 O 0.72807 0.11957 0.90204 0.0
O785 O 0.71832 0.13873 0.87293 0.0
O786 O 0.7732 0.12364 0.90553 0.0
O787 O 0.78267 0.09924 0.88215 0.0
C788 C 0.78932 0.10956 0.89945 0.0
C789 C 0.75756 0.11422 0.82395 0.0
O790 O 0.77636 0.06727 0.85765 0.0
O791 O 0.74135 0.08366 0.8683 0.0
O792 O 0.8207 0.09092 0.82334 0.0
O793 O 0.83018 0.09372 0.8577 0.0
O794 O 0.77051 0.0971 0.81783 0.0
O795 O 0.76534 0.12325 0.84129 0.0
O796 O 0.77162 0.15293 0.86989 0.0
O797 O 0.80466 0.13706 0.85407 0.0
C798 C 0.75453 0.06546 0.86421 0.0
C799 C 0.79306 0.15482 0.86233 0.0
Dy800 Dy 0.86604 0.61062 0.99751 0.0
C801 C 0.89801 0.65339 0.91946 0.0
C802 C 0.85388 0.59604 0.03863 0.0
Dy803 Dy 0.89046 0.63645 0.96044 0.0
O804 O 0.84227 0.5924 0.02035 0.0
O805 O 0.87274 0.60659 0.03398 0.0
O806 O 0.83315 0.609 0.97711 0.0
O807 O 0.85588 0.63603 0.97307 0.0
C808 C 0.83824 0.62652 0.96508 0.0
C809 C 0.9192 0.61949 0.9914 0.0
O810 O 0.88145 0.66677 0.98255 0.0
O811 O 0.86968 0.64559 0.01282 0.0
O812 O 0.91275 0.65462 0.93591 0.0
O813 O 0.87944 0.643 0.92534 0.0
O814 O 0.92315 0.63819 0.98058 0.0
O815 O 0.90088 0.61056 0.9842 0.0
O816 O 0.87589 0.57995 0.97719 0.0
O817 O 0.88841 0.60013 0.94656 0.0
C818 C 0.87467 0.66543 0.00361 0.0
C819 C 0.88333 0.58048 0.95643 0.0
Dy820 Dy 0.38537 0.88464 0.02421 0.0
C821 C 0.37784 0.79807 0.98931 0.0
C822 C 0.3845 0.92772 0.0406 0.0
Dy823 Dy 0.382 0.83805 0.01176 0.0
O824 O 0.38823 0.92268 0.01995 0.0
O825 O 0.38024 0.90932 0.05134 0.0
O826 O 0.42332 0.87938 0.02953 0.0
O827 O 0.40719 0.86382 0.0028 0.0
C828 C 0.42655 0.8676 0.01182 0.0
C829 C 0.34748 0.84965 0.0377 0.0
O830 O 0.4023 0.83428 0.04419 0.0
O831 O 0.38637 0.86732 0.05647 0.0
O832 O 0.36457 0.80501 0.00497 0.0
O833 O 0.39462 0.81229 0.98678 0.0
O834 O 0.35841 0.83031 0.03884 0.0
O835 O 0.35524 0.86229 0.02252 0.0
O836 O 0.36718 0.89259 0.99209 0.0
O837 O 0.3624 0.85479 0.98336 0.0
C838 C 0.3976 0.84832 0.0609 0.0
C839 C 0.3591 0.87665 0.97874 0.0
Dy840 Dy 0.85753 0.63256 0.74714 0.0
C841 C 0.88553 0.66879 0.82846 0.0
C842 C 0.84663 0.61154 0.70872 0.0
Dy843 Dy 0.8743 0.65856 0.78573 0.0
O844 O 0.83244 0.61503 0.72468 0.0
O845 O 0.86657 0.62032 0.71319 0.0
O846 O 0.85198 0.60171 0.76849 0.0
O847 O 0.87885 0.6233 0.7766 0.0
C848 C 0.86766 0.60648 0.78308 0.0
C849 C 0.86299 0.68572 0.75111 0.0
O850 O 0.90688 0.64379 0.7708 0.0
O851 O 0.89173 0.64372 0.73548 0.0
O852 O 0.89626 0.67659 0.81133 0.0
O853 O 0.86869 0.6559 0.82215 0.0
O854 O 0.87923 0.69026 0.76557 0.0
O855 O 0.85267 0.66805 0.75697 0.0
O856 O 0.82368 0.64521 0.75816 0.0
O857 O 0.83715 0.65034 0.79382 0.0
C858 C 0.90969 0.64221 0.74903 0.0
C859 C 0.8199 0.64655 0.77949 0.0
Dy860 Dy 0.1228 0.12191 0.49449 0.0
C861 C 0.09066 0.15674 0.57779 0.0
C862 C 0.14239 0.10433 0.45786 0.0
Dy863 Dy 0.09265 0.14393 0.53363 0.0
O864 O 0.15337 0.11504 0.47355 0.0
O865 O 0.12035 0.1038 0.46164 0.0
O866 O 0.15143 0.1158 0.51964 0.0
O867 O 0.12883 0.14342 0.5239 0.0
C868 C 0.14531 0.13213 0.53281 0.0
C869 C 0.06548 0.12683 0.50055 0.0
O870 O 0.09936 0.17494 0.51133 0.0
O871 O 0.11673 0.15653 0.48089 0.0
O872 O 0.07394 0.16024 0.5632 0.0
O873 O 0.1078 0.14684 0.5679 0.0
O874 O 0.05703 0.13673 0.51824 0.0
O875 O 0.08717 0.12644 0.50303 0.0
O876 O 0.10888 0.09049 0.50843 0.0
O877 O 0.09761 0.10609 0.54221 0.0
C878 C 0.10834 0.17492 0.4908 0.0
C879 C 0.10373 0.08833 0.52948 0.0
Dy880 Dy 0.13772 0.87936 0.74546 0.0
C881 C 0.09899 0.8469 0.82544 0.0
C882 C 0.15463 0.89509 0.7066 0.0
Dy883 Dy 0.11198 0.8563 0.78275 0.0
O884 O 0.15553 0.90557 0.7255 0.0
O885 O 0.14555 0.87516 0.70921 0.0
O886 O 0.14116 0.91029 0.76616 0.0
O887 O 0.11154 0.89047 0.76936 0.0
C888 C 0.12195 0.90766 0.77667 0.0
C889 C 0.12973 0.82705 0.75329 0.0
O890 O 0.08084 0.86779 0.76072 0.0
O891 O 0.102 0.87884 0.73017 0.0
O892 O 0.09263 0.83534 0.80799 0.0
O893 O 0.11138 0.86382 0.81906 0.0
O894 O 0.11097 0.82295 0.7641 0.0
O895 O 0.13845 0.84539 0.75988 0.0
O896 O 0.16902 0.87073 0.76588 0.0
O897 O 0.14799 0.86389 0.79764 0.0
C898 C 0.08186 0.87507 0.73962 0.0
C899 C 0.16797 0.86799 0.78763 0.0
Dy900 Dy 0.61325 0.38733 0.49991 0.0
C901 C 0.57854 0.35635 0.41759 0.0
C902 C 0.62849 0.40517 0.53886 0.0
Dy903 Dy 0.5848 0.36903 0.46063 0.0
O904 O 0.6384 0.40764 0.51981 0.0
O905 O 0.60937 0.39409 0.53604 0.0
O906 O 0.6452 0.37016 0.48721 0.0
O907 O 0.61972 0.3816 0.46501 0.0
C908 C 0.63847 0.3705 0.46653 0.0
C909 C 0.56217 0.37293 0.49928 0.0
O910 O 0.59977 0.33635 0.47439 0.0
O911 O 0.6109 0.35034 0.50889 0.0
O912 O 0.56225 0.36527 0.42982 0.0
O913 O 0.59738 0.35365 0.42926 0.0
O914 O 0.5569 0.35766 0.48432 0.0
O915 O 0.57697 0.38617 0.49167 0.0
O916 O 0.60615 0.42025 0.48252 0.0
O917 O 0.58395 0.40654 0.45286 0.0
C918 C 0.60741 0.33315 0.49499 0.0
C919 C 0.59452 0.42337 0.46358 0.0
Dy920 Dy 0.86759 0.3699 0.73792 0.0
C921 C 0.89759 0.33834 0.65183 0.0
C922 C 0.85605 0.3884 0.7777 0.0
Dy923 Dy 0.88388 0.34519 0.69467 0.0
O924 O 0.84397 0.3901 0.7595 0.0
O925 O 0.87408 0.37543 0.77453 0.0
O926 O 0.86456 0.40343 0.72032 0.0
O927 O 0.88714 0.37885 0.70852 0.0
C928 C 0.87704 0.39716 0.70383 0.0
C929 C 0.87294 0.31725 0.72764 0.0
O930 O 0.91778 0.35192 0.71252 0.0
O931 O 0.90316 0.35964 0.74762 0.0
O932 O 0.87891 0.33009 0.6603 0.0
O933 O 0.9088 0.34964 0.66688 0.0
O934 O 0.8884 0.31203 0.71285 0.0
O935 O 0.86372 0.33618 0.72307 0.0
O936 O 0.83357 0.36108 0.72426 0.0
O937 O 0.84632 0.35578 0.68816 0.0
C938 C 0.92057 0.35639 0.73403 0.0
C939 C 0.82972 0.35984 0.70272 0.0
Dy940 Dy 0.63595 0.63137 0.25356 0.0
C941 C 0.59648 0.67408 0.17507 0.0
C942 C 0.65071 0.60876 0.29099 0.0
Dy943 Dy 0.61283 0.66259 0.21792 0.0
O944 O 0.65923 0.6063 0.27132 0.0
O945 O 0.63449 0.62423 0.29025 0.0
O946 O 0.63637 0.60173 0.22997 0.0
O947 O 0.61079 0.62656 0.22609 0.0
C948 C 0.61982 0.60932 0.21717 0.0
C949 C 0.62748 0.68423 0.25498 0.0
O950 O 0.58119 0.65168 0.23805 0.0
O951 O 0.60178 0.63785 0.26862 0.0
O952 O 0.58438 0.66674 0.19153 0.0
O953 O 0.61726 0.67739 0.18304 0.0
O954 O 0.61083 0.69231 0.24219 0.0
O955 O 0.63704 0.66748 0.24559 0.0
O956 O 0.66814 0.64334 0.23842 0.0
O957 O 0.64923 0.65238 0.20544 0.0
C958 C 0.58194 0.6436 0.25886 0.0
C959 C 0.66852 0.6468 0.21683 0.0
Dy960 Dy 0.52195 0.58605 0.86128 0.0
C961 C 0.44095 0.63058 0.89279 0.0
C962 C 0.56313 0.57243 0.84316 0.0
Dy963 Dy 0.48252 0.61564 0.87829 0.0
O964 O 0.55421 0.56409 0.86098 0.0
O965 O 0.54884 0.5874 0.83472 0.0
O966 O 0.5089 0.55489 0.87864 0.0
O967 O 0.48568 0.58034 0.86822 0.0
C968 C 0.48783 0.56268 0.87986 0.0
C969 C 0.51655 0.63806 0.85866 0.0
O970 O 0.50286 0.61272 0.91056 0.0
O971 O 0.53617 0.59727 0.89537 0.0
O972 O 0.46021 0.64166 0.89438 0.0
O973 O 0.44488 0.61051 0.88461 0.0
O974 O 0.49508 0.645 0.85834 0.0
O975 O 0.51862 0.62103 0.87116 0.0
O976 O 0.50178 0.59422 0.82858 0.0
O977 O 0.47115 0.61537 0.84285 0.0
C978 C 0.52476 0.60595 0.91265 0.0
C979 C 0.48212 0.60641 0.82588 0.0
Dy980 Dy 0.66443 0.28973 0.11615 0.0
C981 C 0.61296 0.21125 0.14807 0.0
C982 C 0.67244 0.33328 0.10296 0.0
Dy983 Dy 0.63728 0.24903 0.13809 0.0
O984 O 0.6865 0.31618 0.09941 0.0
O985 O 0.65465 0.32646 0.11391 0.0
O986 O 0.69498 0.26673 0.10987 0.0
O987 O 0.67277 0.26049 0.13649 0.0
C988 C 0.68919 0.25245 0.12534 0.0
C989 C 0.61261 0.28614 0.12724 0.0
O990 O 0.64964 0.26551 0.16931 0.0
O991 O 0.66283 0.29866 0.15253 0.0
O992 O 0.60474 0.23173 0.14669 0.0
O993 O 0.63527 0.2111 0.1449 0.0
O994 O 0.60707 0.27274 0.14328 0.0
O995 O 0.62934 0.27783 0.11694 0.0
O996 O 0.64778 0.27318 0.08655 0.0
O997 O 0.64346 0.23784 0.10316 0.0
C998 C 0.65697 0.28685 0.17039 0.0
C999 C 0.64343 0.25107 0.08535 0.0
Dy1000 Dy 0.9888 0.38222 0.34069 0.0
C1001 C 0.96988 0.38727 0.42958 0.0
C1002 C 0.01257 0.38063 0.30199 0.0
Dy1003 Dy 0.97961 0.38807 0.38578 0.0
O1004 O 0.00499 0.36319 0.31263 0.0
O1005 O 0.00591 0.39931 0.31181 0.0
O1006 O 0.95728 0.36355 0.33167 0.0
O1007 O 0.97241 0.35835 0.36366 0.0
C1008 C 0.95594 0.35286 0.35045 0.0
C1009 C 0.00834 0.4214 0.37197 0.0
O1010 O 0.0064 0.36148 0.3923 0.0
O1011 O 0.01494 0.3572 0.35527 0.0
O1012 O 0.98817 0.37849 0.42089 0.0
O1013 O 0.9564 0.39586 0.41437 0.0
O1014 O 0.99112 0.42451 0.38506 0.0
O1015 O 0.00832 0.40084 0.36618 0.0
O1016 O 0.95523 0.40345 0.33756 0.0
O1017 O 0.94489 0.39853 0.37362 0.0
C1018 C 0.01855 0.35187 0.37648 0.0
C1019 C 0.93915 0.40391 0.35321 0.0
Dy1020 Dy 0.85788 0.72177 0.60973 0.0
C1021 C 0.91595 0.79116 0.64885 0.0
C1022 C 0.84428 0.68249 0.58963 0.0
Dy1023 Dy 0.89441 0.75631 0.6289 0.0
O1024 O 0.8306 0.69601 0.60064 0.0
O1025 O 0.86494 0.69087 0.58924 0.0
O1026 O 0.82869 0.73998 0.62616 0.0
O1027 O 0.85836 0.75803 0.61698 0.0
C1028 C 0.83975 0.75916 0.62785 0.0
C1029 C 0.91424 0.71541 0.62217 0.0
O1030 O 0.88245 0.74089 0.6601 0.0
O1031 O 0.85981 0.71219 0.64585 0.0
O1032 O 0.92433 0.77902 0.63278 0.0
O1033 O 0.89496 0.78515 0.65339 0.0
O1034 O 0.92586 0.73304 0.6285 0.0
O1035 O 0.89356 0.72148 0.61925 0.0
O1036 O 0.86538 0.74239 0.57869 0.0
O1037 O 0.89214 0.76823 0.59346 0.0
C1038 C 0.86917 0.72316 0.66304 0.0
C1039 C 0.87984 0.75982 0.57656 0.0
Dy1040 Dy 0.52463 0.39072 0.64134 0.0
C1041 C 0.44534 0.34981 0.59775 0.0
C1042 C 0.56544 0.40612 0.65752 0.0
Dy1043 Dy 0.48509 0.36226 0.61788 0.0
O1044 O 0.55028 0.41834 0.64667 0.0
O1045 O 0.55828 0.38536 0.65957 0.0
O1046 O 0.50467 0.42484 0.64166 0.0
O1047 O 0.49111 0.39561 0.62865 0.0
C1048 C 0.48695 0.41618 0.63138 0.0
C1049 C 0.52151 0.33767 0.63341 0.0
O1050 O 0.50239 0.375 0.58767 0.0
O1051 O 0.53509 0.39041 0.6051 0.0
O1052 O 0.46456 0.33805 0.59751 0.0
O1053 O 0.44857 0.36897 0.60794 0.0
O1054 O 0.50035 0.3304 0.63223 0.0
O1055 O 0.52218 0.35733 0.62482 0.0
O1056 O 0.50655 0.37493 0.67089 0.0
O1057 O 0.4725 0.36375 0.65281 0.0
C1058 C 0.52308 0.38433 0.58697 0.0
C1059 C 0.48491 0.36713 0.67123 0.0
Dy1060 Dy 0.87766 0.26354 0.904 0.0
C1061 C 0.86854 0.28942 0.8163 0.0
C1062 C 0.8771 0.24207 0.9441 0.0
Dy1063 Dy 0.87205 0.27414 0.85833 0.0
O1064 O 0.88018 0.26385 0.94172 0.0
O1065 O 0.874 0.23281 0.92489 0.0
O1066 O 0.91553 0.27289 0.90496 0.0
O1067 O 0.89358 0.29012 0.88346 0.0
C1068 C 0.91452 0.28735 0.88876 0.0
C1069 C 0.84497 0.23856 0.86872 0.0
O1070 O 0.90154 0.24894 0.85513 0.0
O1071 O 0.89539 0.23302 0.889 0.0
O1072 O 0.85103 0.28524 0.82884 0.0
O1073 O 0.88795 0.28617 0.82702 0.0
O1074 O 0.85643 0.24068 0.8507 0.0
O1075 O 0.84801 0.25609 0.88102 0.0
O1076 O 0.8549 0.29444 0.90958 0.0
O1077 O 0.85871 0.30718 0.87368 0.0
C1078 C 0.90568 0.23261 0.86968 0.0
C1079 C 0.85284 0.31102 0.89468 0.0
Dy1080 Dy 0.98851 0.60852 0.16398 0.0
C1081 C 0.96162 0.60808 0.07519 0.0
C1082 C 0.01041 0.61124 0.20402 0.0
Dy1083 Dy 0.97668 0.60868 0.11769 0.0
O1084 O 0.00241 0.59244 0.19559 0.0
O1085 O 0.00631 0.62805 0.19072 0.0
O1086 O 0.95789 0.62906 0.17369 0.0
O1087 O 0.97338 0.6351 0.14269 0.0
C1088 C 0.95641 0.63966 0.15489 0.0
C1089 C 0.00907 0.57742 0.12694 0.0
O1090 O 0.00228 0.63642 0.11638 0.0
O1091 O 0.02024 0.62401 0.14841 0.0
O1092 O 0.96065 0.59105 0.08873 0.0
O1093 O 0.97048 0.62568 0.08481 0.0
O1094 O 0.00886 0.59043 0.10976 0.0
O1095 O 0.9918 0.58144 0.13905 0.0
O1096 O 0.95529 0.58863 0.16688 0.0
O1097 O 0.94272 0.59815 0.13176 0.0
C1098 C 0.01993 0.6369 0.13038 0.0
C1099 C 0.93855 0.58936 0.15148 0.0
Dy1100 Dy 0.66539 0.7183 0.39609 0.0
C1101 C 0.61428 0.79529 0.35699 0.0
C1102 C 0.67765 0.67727 0.41466 0.0
Dy1103 Dy 0.63294 0.75623 0.37288 0.0
O1104 O 0.6861 0.68569 0.39666 0.0
O1105 O 0.66382 0.6923 0.42355 0.0
O1106 O 0.69729 0.73303 0.38067 0.0
O1107 O 0.66809 0.75351 0.3859 0.0
C1108 C 0.68724 0.75258 0.37641 0.0
C1109 C 0.60845 0.72042 0.38488 0.0
O1110 O 0.64322 0.73587 0.34303 0.0
O1111 O 0.65728 0.70374 0.36171 0.0
O1112 O 0.60927 0.78577 0.37565 0.0
O1113 O 0.63028 0.78369 0.34679 0.0
O1114 O 0.599 0.73763 0.37457 0.0
O1115 O 0.62969 0.72365 0.38721 0.0
O1116 O 0.6593 0.74175 0.42623 0.0
O1117 O 0.63478 0.76799 0.40816 0.0
C1118 C 0.65146 0.71469 0.343 0.0
C1119 C 0.64608 0.76073 0.42628 0.0
Dy1120 Dy 0.8387 0.54415 0.59305 0.0
C1121 C 0.8737 0.46951 0.64342 0.0
C1122 C 0.8317 0.5867 0.57457 0.0
Dy1123 Dy 0.86064 0.50602 0.61975 0.0
O1124 O 0.84673 0.5716 0.56847 0.0
O1125 O 0.81874 0.57756 0.58955 0.0
O1126 O 0.83223 0.52065 0.56426 0.0
O1127 O 0.86185 0.51676 0.58527 0.0
C1128 C 0.85072 0.50873 0.56909 0.0
C1129 C 0.85081 0.54288 0.64344 0.0
O1130 O 0.89384 0.52083 0.61112 0.0
O1131 O 0.87574 0.55536 0.60371 0.0
O1132 O 0.86318 0.48709 0.65137 0.0
O1133 O 0.87684 0.47126 0.62213 0.0
O1134 O 0.86849 0.52969 0.64723 0.0
O1135 O 0.83808 0.53515 0.62806 0.0
O1136 O 0.80644 0.52444 0.60396 0.0
O1137 O 0.82656 0.49111 0.61222 0.0
C1138 C 0.8948 0.54292 0.60816 0.0
C1139 C 0.80687 0.50237 0.60975 0.0
Dy1140 Dy 0.70523 0.59598 0.84531 0.0
C1141 C 0.7842 0.64032 0.88863 0.0
C1142 C 0.66218 0.57852 0.83916 0.0
Dy1143 Dy 0.74635 0.61804 0.87221 0.0
O1144 O 0.67735 0.58041 0.82343 0.0
O1145 O 0.67099 0.58544 0.85784 0.0
O1146 O 0.71593 0.61432 0.81427 0.0
O1147 O 0.74054 0.60599 0.83892 0.0
C1148 C 0.73687 0.61775 0.82178 0.0
C1149 C 0.71289 0.59978 0.89611 0.0
O1150 O 0.72399 0.64873 0.86401 0.0
O1151 O 0.69131 0.63121 0.84883 0.0
O1152 O 0.7646 0.63818 0.89851 0.0
O1153 O 0.78272 0.63079 0.86915 0.0
O1154 O 0.73434 0.60058 0.90282 0.0
O1155 O 0.71085 0.61014 0.87798 0.0
O1156 O 0.72578 0.56467 0.85616 0.0
O1157 O 0.75955 0.58205 0.86934 0.0
C1158 C 0.70244 0.64938 0.85586 0.0
C1159 C 0.7474 0.56363 0.86424 0.0
Dy1160 Dy 0.64813 0.47131 0.09771 0.0
C1161 C 0.61401 0.54333 0.15272 0.0
C1162 C 0.66678 0.42953 0.08712 0.0
Dy1163 Dy 0.63366 0.5087 0.13002 0.0
O1164 O 0.64912 0.43908 0.07706 0.0
O1165 O 0.67471 0.44351 0.10197 0.0
O1166 O 0.63047 0.48674 0.06818 0.0
O1167 O 0.64192 0.50789 0.09444 0.0
C1168 C 0.6292 0.50693 0.0771 0.0
C1169 C 0.65148 0.47048 0.14807 0.0
O1170 O 0.59953 0.49253 0.12639 0.0
O1171 O 0.61122 0.46243 0.10445 0.0
O1172 O 0.62916 0.52904 0.16078 0.0
O1173 O 0.60974 0.53913 0.13187 0.0
O1174 O 0.65427 0.49047 0.1568 0.0
O1175 O 0.63793 0.47213 0.1317 0.0
O1176 O 0.68214 0.4891 0.10512 0.0
O1177 O 0.6681 0.5218 0.12256 0.0
C1178 C 0.59492 0.47382 0.11536 0.0
C1179 C 0.68522 0.50926 0.1148 0.0
Dy1180 Dy 0.79531 0.39441 0.3546 0.0
C1181 C 0.7117 0.37029 0.40285 0.0
C1182 C 0.8387 0.41022 0.34332 0.0
Dy1183 Dy 0.75466 0.37861 0.38667 0.0
O1184 O 0.82341 0.40181 0.32951 0.0
O1185 O 0.82973 0.41023 0.36297 0.0
O1186 O 0.777 0.37847 0.3251 0.0
O1187 O 0.75771 0.38934 0.35215 0.0
C1188 C 0.75658 0.37828 0.33414 0.0
C1189 C 0.79418 0.38562 0.41018 0.0
O1190 O 0.76779 0.34549 0.37348 0.0
O1191 O 0.80335 0.35718 0.35981 0.0
O1192 O 0.73024 0.35836 0.40747 0.0
O1193 O 0.71659 0.38638 0.38903 0.0
O1194 O 0.77468 0.3801 0.41909 0.0
O1195 O 0.79064 0.38743 0.38951 0.0
O1196 O 0.77669 0.42798 0.36098 0.0
O1197 O 0.74992 0.41622 0.3875 0.0
C1198 C 0.78854 0.3412 0.3655 0.0
C1199 C 0.75962 0.43206 0.37525 0.0
Dy1200 Dy 0.85048 0.45545 0.89468 0.0
C1201 C 0.87761 0.53763 0.84826 0.0
C1202 C 0.8448 0.40986 0.9073 0.0
Dy1203 Dy 0.86484 0.49732 0.86591 0.0
O1204 O 0.8284 0.42502 0.90428 0.0
O1205 O 0.86427 0.42032 0.90477 0.0
O1206 O 0.8487 0.4774 0.92608 0.0
O1207 O 0.86999 0.48633 0.90006 0.0
C1208 C 0.86162 0.49331 0.91795 0.0
C1209 C 0.85685 0.45923 0.84269 0.0
O1210 O 0.89907 0.48457 0.87557 0.0
O1211 O 0.88637 0.44781 0.88131 0.0
O1212 O 0.87496 0.51889 0.83725 0.0
O1213 O 0.87282 0.5345 0.86901 0.0
O1214 O 0.87084 0.47508 0.83684 0.0
O1215 O 0.8458 0.46546 0.85971 0.0
O1216 O 0.81531 0.47123 0.8855 0.0
O1217 O 0.82776 0.50528 0.86971 0.0
C1218 C 0.90293 0.46261 0.87686 0.0
C1219 C 0.81132 0.49198 0.87702 0.0
Dy1220 Dy 0.79248 0.60662 0.15324 0.0
C1221 C 0.70474 0.64207 0.11016 0.0
C1222 C 0.83854 0.59465 0.16002 0.0
Dy1223 Dy 0.74736 0.6278 0.12587 0.0
O1224 O 0.82769 0.61118 0.17009 0.0
O1225 O 0.82382 0.58418 0.14715 0.0
O1226 O 0.77062 0.60199 0.18389 0.0
O1227 O 0.76144 0.62669 0.15994 0.0
C1228 C 0.75484 0.61679 0.1772 0.0
C1229 C 0.78193 0.61246 0.0993 0.0
O1230 O 0.76401 0.65901 0.13843 0.0
O1231 O 0.80082 0.64316 0.14553 0.0
O1232 O 0.72448 0.65116 0.10529 0.0
O1233 O 0.70862 0.62573 0.12442 0.0
O1234 O 0.76324 0.62231 0.09162 0.0
O1235 O 0.78015 0.612 0.11993 0.0
O1236 O 0.77398 0.57555 0.14021 0.0
O1237 O 0.73766 0.59221 0.13261 0.0
C1238 C 0.78653 0.66086 0.1423 0.0
C1239 C 0.75168 0.57432 0.13425 0.0
Dy1240 Dy 0.65357 0.53791 0.40318 0.0
C1241 C 0.62068 0.4597 0.3543 0.0
C1242 C 0.67047 0.57989 0.41368 0.0
Dy1243 Dy 0.6353 0.49759 0.37545 0.0
O1244 O 0.66877 0.56318 0.42775 0.0
O1245 O 0.66301 0.57345 0.39435 0.0
O1246 O 0.63629 0.52449 0.43372 0.0
O1247 O 0.64738 0.50201 0.40936 0.0
C1248 C 0.63598 0.50343 0.42706 0.0
C1249 C 0.65137 0.53273 0.35166 0.0
O1250 O 0.60153 0.51556 0.38209 0.0
O1251 O 0.61627 0.54885 0.39768 0.0
O1252 O 0.6364 0.47327 0.34747 0.0
O1253 O 0.61216 0.4667 0.37307 0.0
O1254 O 0.65182 0.51181 0.34511 0.0
O1255 O 0.64032 0.53374 0.36948 0.0
O1256 O 0.68698 0.52019 0.39254 0.0
O1257 O 0.67089 0.48527 0.38373 0.0
C1258 C 0.59873 0.53648 0.39009 0.0
C1259 C 0.68909 0.49835 0.38678 0.0
Dy1260 Dy 0.70316 0.3972 0.64847 0.0
C1261 C 0.78202 0.36175 0.60139 0.0
C1262 C 0.6632 0.41699 0.66222 0.0
Dy1263 Dy 0.74219 0.37551 0.61888 0.0
O1264 O 0.67319 0.39934 0.67123 0.0
O1265 O 0.67619 0.42489 0.64665 0.0
O1266 O 0.71839 0.3804 0.6791 0.0
O1267 O 0.73938 0.38845 0.65239 0.0
C1268 C 0.73853 0.37749 0.67019 0.0
C1269 C 0.70529 0.38605 0.5938 0.0
O1270 O 0.72225 0.34404 0.62788 0.0
O1271 O 0.68865 0.36259 0.63936 0.0
O1272 O 0.76895 0.37807 0.59379 0.0
O1273 O 0.77353 0.35243 0.61911 0.0
O1274 O 0.72362 0.37659 0.58559 0.0
O1275 O 0.70812 0.3887 0.6143 0.0
O1276 O 0.72342 0.42921 0.64076 0.0
O1277 O 0.75407 0.41198 0.62191 0.0
C1278 C 0.70014 0.34366 0.63382 0.0
C1279 C 0.74333 0.43035 0.62986 0.0
Dy1280 Dy 0.60595 0.86084 0.53535 0.0
C1281 C 0.64266 0.90554 0.45532 0.0
C1282 C 0.60349 0.84449 0.57751 0.0
Dy1283 Dy 0.62919 0.88893 0.49527 0.0
O1284 O 0.59056 0.83756 0.56095 0.0
O1285 O 0.61796 0.85967 0.57083 0.0
O1286 O 0.56852 0.86577 0.52344 0.0
O1287 O 0.59567 0.88191 0.50848 0.0
C1288 C 0.57415 0.8798 0.50769 0.0
C1289 C 0.65706 0.87531 0.52833 0.0
O1290 O 0.61358 0.91801 0.51415 0.0
O1291 O 0.60855 0.89792 0.54694 0.0
O1292 O 0.65071 0.9117 0.47466 0.0
O1293 O 0.62627 0.89083 0.45817 0.0
O1294 O 0.66164 0.89273 0.51592 0.0
O1295 O 0.63956 0.86531 0.52092 0.0
O1296 O 0.61608 0.83126 0.51193 0.0
O1297 O 0.63254 0.85267 0.48359 0.0
C1298 C 0.60889 0.91761 0.53568 0.0
C1299 C 0.62622 0.83274 0.49201 0.0
Dy1300 Dy 0.11834 0.65865 0.48679 0.0
C1301 C 0.10779 0.56763 0.45898 0.0
C1302 C 0.12192 0.69892 0.50886 0.0
Dy1303 Dy 0.11281 0.6115 0.47221 0.0
O1304 O 0.1387 0.68805 0.49954 0.0
O1305 O 0.10283 0.68789 0.50584 0.0
O1306 O 0.14275 0.66674 0.46051 0.0
O1307 O 0.14315 0.63334 0.47419 0.0
C1308 C 0.15116 0.64626 0.45941 0.0
C1309 C 0.07802 0.62634 0.49637 0.0
O1310 O 0.13577 0.6042 0.50145 0.0
O1311 O 0.13006 0.63924 0.51732 0.0
O1312 O 0.09416 0.58424 0.45283 0.0
O1313 O 0.12522 0.5756 0.47008 0.0
O1314 O 0.08746 0.60649 0.49854 0.0
O1315 O 0.08776 0.63783 0.48187 0.0
O1316 O 0.0984 0.66545 0.45539 0.0
O1317 O 0.10785 0.6305 0.44005 0.0
C1318 C 0.13877 0.61832 0.51816 0.0
C1319 C 0.10024 0.6518 0.43799 0.0
Dy1320 Dy 0.62661 0.83804 0.7138 0.0
C1321 C 0.6568 0.87962 0.79844 0.0
C1322 C 0.61285 0.83245 0.67079 0.0
Dy1323 Dy 0.64456 0.8646 0.75746 0.0
O1324 O 0.60685 0.81906 0.68696 0.0
O1325 O 0.62625 0.84837 0.67818 0.0
O1326 O 0.64011 0.80467 0.7285 0.0
O1327 O 0.63073 0.83141 0.74924 0.0
C1328 C 0.64023 0.81209 0.74898 0.0
C1329 C 0.63542 0.89301 0.72348 0.0
O1330 O 0.67774 0.85159 0.7433 0.0
O1331 O 0.66451 0.84168 0.70796 0.0
O1332 O 0.66849 0.88256 0.7805 0.0
O1333 O 0.63939 0.86643 0.79421 0.0
O1334 O 0.64204 0.90027 0.74284 0.0
O1335 O 0.63479 0.87176 0.72428 0.0
O1336 O 0.59279 0.85094 0.72782 0.0
O1337 O 0.6063 0.86604 0.76174 0.0
C1338 C 0.68161 0.84577 0.72239 0.0
C1339 C 0.58943 0.8609 0.74745 0.0
Dy1340 Dy 0.40441 0.35261 0.96159 0.0
C1341 C 0.35847 0.39252 0.03728 0.0
C1342 C 0.40969 0.3379 0.9182 0.0
Dy1343 Dy 0.37554 0.37716 0.99801 0.0
O1344 O 0.42665 0.34094 0.93253 0.0
O1345 O 0.39023 0.34206 0.92796 0.0
O1346 O 0.43532 0.35129 0.98542 0.0
O1347 O 0.41134 0.37775 0.98787 0.0
C1348 C 0.4292 0.36918 0.99709 0.0
C1349 C 0.35049 0.36249 0.9634 0.0
O1350 O 0.38627 0.40772 0.97855 0.0
O1351 O 0.40251 0.38869 0.94868 0.0
O1352 O 0.35003 0.39743 0.01778 0.0
O1353 O 0.37667 0.37957 0.03533 0.0
O1354 O 0.3437 0.37882 0.97632 0.0
O1355 O 0.36836 0.35291 0.97169 0.0
O1356 O 0.39779 0.32197 0.98312 0.0
O1357 O 0.38137 0.34225 0.01249 0.0
C1358 C 0.39593 0.40777 0.95871 0.0
C1359 C 0.38936 0.32312 0.00359 0.0
Dy1360 Dy 0.38357 0.6457 0.71294 0.0
C1361 C 0.34348 0.60426 0.79019 0.0
C1362 C 0.4034 0.65263 0.67268 0.0
Dy1363 Dy 0.36151 0.62107 0.7522 0.0
O1364 O 0.40549 0.66642 0.68956 0.0
O1365 O 0.39077 0.6355 0.67791 0.0
O1366 O 0.36425 0.67832 0.72065 0.0
O1367 O 0.3731 0.65546 0.74626 0.0
C1368 C 0.36142 0.67306 0.74142 0.0
C1369 C 0.38137 0.59392 0.72169 0.0
O1370 O 0.32932 0.62914 0.73219 0.0
O1371 O 0.34692 0.64059 0.69957 0.0
O1372 O 0.33359 0.60315 0.77073 0.0
O1373 O 0.3615 0.617 0.78896 0.0
O1374 O 0.3794 0.58837 0.74238 0.0
O1375 O 0.37043 0.61213 0.71857 0.0
O1376 O 0.41558 0.63421 0.73412 0.0
O1377 O 0.39701 0.62363 0.76637 0.0
C1378 C 0.32819 0.63517 0.71095 0.0
C1379 C 0.41613 0.62688 0.75526 0.0
Dy1380 Dy 0.91103 0.12894 0.03723 0.0
C1381 C 0.86627 0.09969 0.957 0.0
C1382 C 0.92045 0.1471 0.07839 0.0
Dy1383 Dy 0.88163 0.11425 0.99739 0.0
O1384 O 0.9303 0.12894 0.07025 0.0
O1385 O 0.90624 0.15544 0.0636 0.0
O1386 O 0.94402 0.11544 0.02185 0.0
O1387 O 0.91648 0.12687 0.00184 0.0
C1388 C 0.9355 0.11624 0.00166 0.0
C1389 C 0.85759 0.12727 0.03332 0.0
O1390 O 0.89414 0.08063 0.00932 0.0
O1391 O 0.90246 0.09244 0.04489 0.0
O1392 O 0.85516 0.09806 0.97551 0.0
O1393 O 0.8864 0.10848 0.9609 0.0
O1394 O 0.84995 0.12961 0.01303 0.0
O1395 O 0.87627 0.11601 0.03322 0.0
O1396 O 0.90191 0.16318 0.02103 0.0
O1397 O 0.88182 0.15082 0.98958 0.0
C1398 C 0.89969 0.07584 0.03008 0.0
C1399 C 0.89038 0.16718 0.00203 0.0
Dy1400 Dy 0.61427 0.15448 0.80165 0.0
C1401 C 0.65007 0.10591 0.72349 0.0
C1402 C 0.59915 0.16051 0.84377 0.0
Dy1403 Dy 0.63373 0.12791 0.76017 0.0
O1404 O 0.5945 0.17455 0.82745 0.0
O1405 O 0.61123 0.14329 0.8368 0.0
O1406 O 0.62903 0.18727 0.78962 0.0
O1407 O 0.61949 0.16158 0.76687 0.0
C1408 C 0.62977 0.18024 0.7691 0.0
C1409 C 0.61737 0.10316 0.79349 0.0
O1410 O 0.66651 0.13724 0.77758 0.0
O1411 O 0.65192 0.15306 0.81032 0.0
O1412 O 0.64432 0.09643 0.74193 0.0
O1413 O 0.64805 0.128 0.72534 0.0
O1414 O 0.61696 0.09677 0.77293 0.0
O1415 O 0.62862 0.1212 0.79512 0.0
O1416 O 0.58172 0.14162 0.78445 0.0
O1417 O 0.59722 0.13347 0.74967 0.0
C1418 C 0.66918 0.1459 0.79778 0.0
C1419 C 0.57952 0.13526 0.76328 0.0
Dy1420 Dy 0.88651 0.83567 0.28022 0.0
C1421 C 0.84876 0.89028 0.20809 0.0
C1422 C 0.90025 0.82307 0.32323 0.0
Dy1423 Dy 0.86571 0.86818 0.24449 0.0
O1424 O 0.88432 0.81325 0.31114 0.0
O1425 O 0.90963 0.83859 0.31106 0.0
O1426 O 0.88875 0.80649 0.25541 0.0
O1427 O 0.86328 0.83202 0.25137 0.0
C1428 C 0.87289 0.81517 0.24203 0.0
C1429 C 0.87978 0.8888 0.28188 0.0
O1430 O 0.83264 0.85738 0.25945 0.0
O1431 O 0.84997 0.84522 0.29225 0.0
O1432 O 0.84423 0.89552 0.22846 0.0
O1433 O 0.86284 0.87292 0.20757 0.0
O1434 O 0.86388 0.89695 0.26862 0.0
O1435 O 0.88931 0.8718 0.27296 0.0
O1436 O 0.91926 0.84304 0.26046 0.0
O1437 O 0.90252 0.86634 0.23297 0.0
C1438 C 0.8313 0.85197 0.28063 0.0
C1439 C 0.92067 0.85538 0.2418 0.0
Dy1440 Dy 0.51619 0.3769 0.11636 0.0
C1441 C 0.43127 0.41115 0.15059 0.0
C1442 C 0.55969 0.36303 0.10542 0.0
Dy1443 Dy 0.47488 0.40222 0.13608 0.0
O1444 O 0.54064 0.35515 0.09687 0.0
O1445 O 0.55453 0.3789 0.11951 0.0
O1446 O 0.49637 0.34423 0.11466 0.0
O1447 O 0.48951 0.36846 0.13944 0.0
C1448 C 0.48278 0.35043 0.13051 0.0
C1449 C 0.50782 0.4296 0.12093 0.0
O1450 O 0.49498 0.39431 0.16806 0.0
O1451 O 0.52941 0.38393 0.15129 0.0
O1452 O 0.4485 0.42501 0.15276 0.0
O1453 O 0.43776 0.39297 0.14002 0.0
O1454 O 0.49463 0.43484 0.13755 0.0
O1455 O 0.50159 0.41099 0.11263 0.0
O1456 O 0.49757 0.38403 0.08428 0.0
O1457 O 0.46337 0.39624 0.09978 0.0
C1458 C 0.51742 0.38884 0.16932 0.0
C1459 C 0.47576 0.39077 0.08187 0.0
Dy1460 Dy 0.36885 0.74618 0.86408 0.0
C1461 C 0.32313 0.66637 0.89202 0.0
C1462 C 0.39293 0.78328 0.85139 0.0
Dy1463 Dy 0.33294 0.7089 0.87741 0.0
O1464 O 0.40066 0.76243 0.85138 0.0
O1465 O 0.37151 0.78382 0.8577 0.0
O1466 O 0.39617 0.72641 0.88334 0.0
O1467 O 0.36845 0.70989 0.86828 0.0
C1468 C 0.38525 0.70729 0.88141 0.0
C1469 C 0.31439 0.74716 0.86199 0.0
O1470 O 0.34295 0.7248 0.91063 0.0
O1471 O 0.36474 0.75576 0.89899 0.0
O1472 O 0.31006 0.68427 0.89565 0.0
O1473 O 0.34071 0.67171 0.88011 0.0
O1474 O 0.30344 0.72778 0.86108 0.0
O1475 O 0.33268 0.74523 0.87358 0.0
O1476 O 0.3603 0.73174 0.83077 0.0
O1477 O 0.33368 0.70433 0.84044 0.0
C1478 C 0.3554 0.74336 0.91458 0.0
C1479 C 0.34621 0.71492 0.8254 0.0
Dy1480 Dy 0.0199 0.60999 0.61038 0.0
C1481 C 0.98217 0.60871 0.69551 0.0
C1482 C 0.0345 0.61641 0.56926 0.0
Dy1483 Dy 0.00756 0.61108 0.65798 0.0
O1484 O 0.03622 0.59686 0.5794 0.0
O1485 O 0.02574 0.63206 0.58176 0.0
O1486 O 0.98699 0.59492 0.6004 0.0
O1487 O 0.00109 0.58519 0.63155 0.0
C1488 C 0.98367 0.58349 0.61826 0.0
C1489 C 0.03478 0.64725 0.65099 0.0
O1490 O 0.04114 0.59067 0.66085 0.0
O1491 O 0.0533 0.59733 0.62491 0.0
O1492 O 0.00462 0.60682 0.69514 0.0
O1493 O 0.97388 0.61049 0.67551 0.0
O1494 O 0.02609 0.64236 0.67007 0.0
O1495 O 0.028 0.63258 0.63723 0.0
O1496 O 0.99476 0.63832 0.60769 0.0
O1497 O 0.97989 0.63348 0.64239 0.0
C1498 C 0.05764 0.59093 0.64558 0.0
C1499 C 0.97912 0.64309 0.62251 0.0
Dy1500 Dy 0.10829 0.24169 0.36552 0.0
C1501 C 0.16119 0.31357 0.40671 0.0
C1502 C 0.08738 0.20438 0.34916 0.0
Dy1503 Dy 0.1433 0.27599 0.38686 0.0
O1504 O 0.07924 0.21763 0.36446 0.0
O1505 O 0.10738 0.21137 0.34257 0.0
O1506 O 0.07553 0.26303 0.36798 0.0
O1507 O 0.10677 0.27569 0.37901 0.0
C1508 C 0.08548 0.2805 0.37697 0.0
C1509 C 0.16194 0.2389 0.36679 0.0
O1510 O 0.13106 0.25773 0.41773 0.0
O1511 O 0.1133 0.22733 0.39982 0.0
O1512 O 0.17302 0.29499 0.40295 0.0
O1513 O 0.13988 0.31105 0.4006 0.0
O1514 O 0.17214 0.25849 0.36831 0.0
O1515 O 0.14376 0.23979 0.37815 0.0
O1516 O 0.1211 0.25897 0.33516 0.0
O1517 O 0.14074 0.28921 0.35181 0.0
C1518 C 0.12044 0.23772 0.41825 0.0
C1519 C 0.13275 0.2782 0.33409 0.0
Dy1520 Dy 0.51124 0.63336 0.38446 0.0
C1521 C 0.43478 0.59613 0.34246 0.0
C1522 C 0.55279 0.64606 0.40187 0.0
Dy1523 Dy 0.47591 0.61111 0.35915 0.0
O1524 O 0.53318 0.65633 0.40521 0.0
O1525 O 0.5492 0.62828 0.38965 0.0
O1526 O 0.48804 0.66184 0.39457 0.0
O1527 O 0.48324 0.64766 0.36286 0.0
C1528 C 0.47536 0.66215 0.37665 0.0
C1529 C 0.51265 0.58359 0.36738 0.0
O1530 O 0.49535 0.62318 0.32919 0.0
O1531 O 0.52562 0.63772 0.35 0.0
O1532 O 0.45044 0.58334 0.35186 0.0
O1533 O 0.44171 0.61703 0.3421 0.0
O1534 O 0.50076 0.58368 0.34895 0.0
O1535 O 0.50353 0.59745 0.38088 0.0
O1536 O 0.49457 0.6169 0.41342 0.0
O1537 O 0.46083 0.61169 0.39377 0.0
C1538 C 0.51601 0.63273 0.33048 0.0
C1539 C 0.47239 0.61205 0.41292 0.0
Dy1540 Dy 0.12786 0.72292 0.13862 0.0
C1541 C 0.1174 0.74954 0.04779 0.0
C1542 C 0.12975 0.70519 0.1795 0.0
Dy1543 Dy 0.11875 0.73205 0.09029 0.0
O1544 O 0.14662 0.7041 0.16565 0.0
O1545 O 0.11161 0.71533 0.17087 0.0
O1546 O 0.15524 0.7469 0.1479 0.0
O1547 O 0.14326 0.74705 0.11481 0.0
C1548 C 0.15756 0.75605 0.1286 0.0
C1549 C 0.0854 0.70745 0.10944 0.0
O1550 O 0.1373 0.69785 0.08657 0.0
O1551 O 0.14491 0.69178 0.12405 0.0
O1552 O 0.09992 0.74285 0.05914 0.0
O1553 O 0.13613 0.74519 0.05943 0.0
O1554 O 0.08216 0.71959 0.09168 0.0
O1555 O 0.10681 0.7066 0.11347 0.0
O1556 O 0.09829 0.74792 0.14222 0.0
O1557 O 0.10159 0.76215 0.10685 0.0
C1558 C 0.14488 0.68458 0.1032 0.0
C1559 C 0.09268 0.76321 0.12689 0.0
Dy1560 Dy 0.02122 0.39534 0.88231 0.0
C1561 C 0.99368 0.38394 0.79213 0.0
C1562 C 0.02623 0.40356 0.9271 0.0
Dy1563 Dy 0.01171 0.38658 0.83448 0.0
O1564 O 0.02707 0.41869 0.91158 0.0
O1565 O 0.02426 0.38366 0.91775 0.0
O1566 O 0.0106 0.431 0.87543 0.0
O1567 O 0.99267 0.40461 0.86018 0.0
C1568 C 0.99298 0.42576 0.86323 0.0
C1569 C 0.03881 0.35448 0.85301 0.0
O1570 O 0.04323 0.40992 0.83139 0.0
O1571 O 0.05539 0.40386 0.86745 0.0
O1572 O 0.00866 0.36998 0.80104 0.0
O1573 O 0.98968 0.40045 0.80604 0.0
O1574 O 0.02474 0.35096 0.83648 0.0
O1575 O 0.03915 0.37535 0.85747 0.0
O1576 O 0.99676 0.3659 0.88619 0.0
O1577 O 0.98244 0.36747 0.85034 0.0
C1578 C 0.05965 0.41179 0.84719 0.0
C1579 C 0.98201 0.35889 0.87066 0.0
Dy1580 Dy 0.36599 0.24034 0.62563 0.0
C1581 C 0.32586 0.32181 0.58808 0.0
C1582 C 0.38885 0.20361 0.6415 0.0
Dy1583 Dy 0.33697 0.27858 0.60257 0.0
O1584 O 0.39293 0.22445 0.64708 0.0
O1585 O 0.3712 0.2025 0.62783 0.0
O1586 O 0.39411 0.26526 0.6328 0.0
O1587 O 0.37294 0.26894 0.60433 0.0
C1588 C 0.38846 0.27792 0.61594 0.0
C1589 C 0.31272 0.2429 0.61335 0.0
O1590 O 0.34551 0.25579 0.57223 0.0
O1591 O 0.36794 0.22873 0.59076 0.0
O1592 O 0.33722 0.30654 0.57689 0.0
O1593 O 0.31985 0.3131 0.6069 0.0
O1594 O 0.30543 0.25684 0.59781 0.0
O1595 O 0.32982 0.25069 0.62365 0.0
O1596 O 0.34812 0.25311 0.65501 0.0
O1597 O 0.34313 0.28862 0.6398 0.0
C1598 C 0.35812 0.23643 0.57227 0.0
C1599 C 0.34418 0.27496 0.6578 0.0
Dy1600 Dy 0.13754 0.49195 0.37373 0.0
C1601 C 0.16669 0.40812 0.40974 0.0
C1602 C 0.12877 0.53292 0.35549 0.0
Dy1603 Dy 0.15709 0.45231 0.39945 0.0
O1604 O 0.11627 0.51498 0.35235 0.0
O1605 O 0.14514 0.52886 0.36989 0.0
O1606 O 0.13116 0.46985 0.34386 0.0
O1607 O 0.15936 0.46266 0.3651 0.0
C1608 C 0.14733 0.45537 0.34905 0.0
C1609 C 0.14334 0.4864 0.42529 0.0
O1610 O 0.1909 0.47049 0.39034 0.0
O1611 O 0.17354 0.5043 0.37894 0.0
O1612 O 0.17141 0.42518 0.42269 0.0
O1613 O 0.1574 0.41524 0.39129 0.0
O1614 O 0.16021 0.4728 0.43127 0.0
O1615 O 0.13411 0.47993 0.40754 0.0
O1616 O 0.10395 0.48043 0.38649 0.0
O1617 O 0.11845 0.44413 0.39241 0.0
C1618 C 0.19228 0.49223 0.3838 0.0
C1619 C 0.10049 0.45839 0.38855 0.0
Dy1620 Dy 0.25137 0.38615 0.12599 0.0
C1621 C 0.33374 0.41568 0.16709 0.0
C1622 C 0.21516 0.36857 0.10233 0.0
Dy1623 Dy 0.29084 0.40103 0.15408 0.0
O1624 O 0.23228 0.35683 0.11051 0.0
O1625 O 0.21755 0.38972 0.10772 0.0
O1626 O 0.26752 0.40259 0.09638 0.0
O1627 O 0.2887 0.38871 0.12039 0.0
C1628 C 0.28865 0.4004 0.10308 0.0
C1629 C 0.25586 0.38499 0.17824 0.0
O1630 O 0.27459 0.43504 0.143 0.0
O1631 O 0.23875 0.42121 0.13271 0.0
O1632 O 0.32364 0.39771 0.17448 0.0
O1633 O 0.31953 0.42641 0.15372 0.0
O1634 O 0.27739 0.38441 0.18471 0.0
O1635 O 0.25397 0.39679 0.16077 0.0
O1636 O 0.2638 0.35247 0.13899 0.0
O1637 O 0.30087 0.36554 0.14274 0.0
C1638 C 0.25279 0.43843 0.13608 0.0
C1639 C 0.28622 0.34839 0.14073 0.0
Dy1640 Dy 0.36869 0.49166 0.86872 0.0
C1641 C 0.33505 0.57264 0.9127 0.0
C1642 C 0.38257 0.45574 0.84367 0.0
Dy1643 Dy 0.34814 0.5291 0.90254 0.0
O1644 O 0.39257 0.47533 0.84432 0.0
O1645 O 0.36482 0.45578 0.85661 0.0
O1646 O 0.37801 0.52004 0.84604 0.0
O1647 O 0.34982 0.52408 0.86669 0.0
C1648 C 0.3626 0.53424 0.85337 0.0
C1649 C 0.36295 0.49088 0.92321 0.0
O1650 O 0.31539 0.51251 0.89001 0.0
O1651 O 0.33106 0.48367 0.86737 0.0
O1652 O 0.3222 0.55483 0.91555 0.0
O1653 O 0.35504 0.56635 0.90528 0.0
O1654 O 0.35435 0.5081 0.93438 0.0
O1655 O 0.36173 0.49595 0.90312 0.0
O1656 O 0.39877 0.49806 0.89061 0.0
O1657 O 0.38677 0.53454 0.89966 0.0
C1658 C 0.31342 0.49427 0.87696 0.0
C1659 C 0.40341 0.51869 0.89787 0.0
Dy1660 Dy 0.24523 0.62144 0.6115 0.0
C1661 C 0.15739 0.59374 0.64714 0.0
C1662 C 0.28695 0.63103 0.59369 0.0
Dy1663 Dy 0.20336 0.60286 0.64032 0.0
O1664 O 0.26716 0.639 0.5866 0.0
O1665 O 0.28403 0.61805 0.61087 0.0
O1666 O 0.22079 0.62992 0.58352 0.0
O1667 O 0.2125 0.60359 0.60512 0.0
C1668 C 0.2047 0.61624 0.58964 0.0
C1669 C 0.23955 0.61638 0.6668 0.0
O1670 O 0.22139 0.56969 0.63032 0.0
O1671 O 0.25263 0.58431 0.6106 0.0
O1672 O 0.1747 0.58255 0.65635 0.0
O1673 O 0.16529 0.60967 0.63457 0.0
O1674 O 0.22073 0.60748 0.67464 0.0
O1675 O 0.23705 0.61698 0.64599 0.0
O1676 O 0.23383 0.6532 0.62793 0.0
O1677 O 0.19702 0.64079 0.63722 0.0
C1678 C 0.24095 0.56716 0.61888 0.0
C1679 C 0.21221 0.65721 0.63384 0.0
Dy1680 Dy 0.1357 0.50045 0.13591 0.0
C1681 C 0.15436 0.58598 0.09552 0.0
C1682 C 0.12512 0.4604 0.15548 0.0
Dy1683 Dy 0.14481 0.54096 0.105 0.0
O1684 O 0.12973 0.47913 0.16592 0.0
O1685 O 0.12554 0.46361 0.13415 0.0
O1686 O 0.15612 0.51832 0.1626 0.0
O1687 O 0.13627 0.53736 0.13994 0.0
C1688 C 0.15031 0.53874 0.15618 0.0
C1689 C 0.12917 0.50312 0.08428 0.0
O1690 O 0.18142 0.52635 0.11087 0.0
O1691 O 0.17181 0.49224 0.12812 0.0
O1692 O 0.14867 0.57065 0.08075 0.0
O1693 O 0.15521 0.57625 0.11479 0.0
O1694 O 0.12619 0.52364 0.07634 0.0
O1695 O 0.143 0.50401 0.10074 0.0
O1696 O 0.09949 0.51271 0.13088 0.0
O1697 O 0.10709 0.54631 0.11196 0.0
C1698 C 0.18712 0.50622 0.11999 0.0
C1699 C 0.09271 0.53192 0.12129 0.0
Dy1700 Dy 0.2503 0.37388 0.87075 0.0
C1701 C 0.15893 0.40469 0.83411 0.0
C1702 C 0.29155 0.35697 0.88759 0.0
Dy1703 Dy 0.20539 0.39381 0.84179 0.0
O1704 O 0.27112 0.34925 0.89197 0.0
O1705 O 0.2891 0.37387 0.87367 0.0
O1706 O 0.23525 0.38412 0.90456 0.0
O1707 O 0.21851 0.39211 0.87557 0.0
C1708 C 0.21718 0.39448 0.89623 0.0
C1709 C 0.24316 0.38155 0.81916 0.0
O1710 O 0.2254 0.42518 0.85315 0.0
O1711 O 0.26156 0.40721 0.85731 0.0
O1712 O 0.17364 0.39922 0.8187 0.0
O1713 O 0.17005 0.40494 0.85303 0.0
O1714 O 0.22774 0.39621 0.81139 0.0
O1715 O 0.2361 0.37307 0.837 0.0
O1716 O 0.23325 0.34177 0.86038 0.0
O1717 O 0.19785 0.35589 0.84593 0.0
C1718 C 0.24834 0.42582 0.857 0.0
C1719 C 0.21192 0.33886 0.85248 0.0
Dy1720 Dy 0.36472 0.49759 0.6231 0.0
C1721 C 0.32878 0.41917 0.58135 0.0
C1722 C 0.3825 0.53327 0.6469 0.0
Dy1723 Dy 0.34682 0.46075 0.59099 0.0
O1724 O 0.3881 0.51201 0.64953 0.0
O1725 O 0.3676 0.53505 0.63067 0.0
O1726 O 0.34345 0.48237 0.64997 0.0
O1727 O 0.35707 0.46192 0.62554 0.0
C1728 C 0.34424 0.46194 0.64209 0.0
C1729 C 0.37074 0.49454 0.57171 0.0
O1730 O 0.31316 0.47914 0.5993 0.0
O1731 O 0.3291 0.5108 0.61654 0.0
O1732 O 0.33229 0.43498 0.56653 0.0
O1733 O 0.33495 0.42636 0.6008 0.0
O1734 O 0.36932 0.47395 0.56365 0.0
O1735 O 0.35698 0.49659 0.58772 0.0
O1736 O 0.39768 0.47801 0.61598 0.0
O1737 O 0.3823 0.44656 0.59778 0.0
C1738 C 0.31102 0.4995 0.60883 0.0
C1739 C 0.3998 0.45751 0.60709 0.0
Dy1740 Dy 0.25512 0.61959 0.37334 0.0
C1741 C 0.33689 0.58396 0.33366 0.0
C1742 C 0.21981 0.63934 0.39451 0.0
Dy1743 Dy 0.29471 0.60105 0.3463 0.0
O1744 O 0.23949 0.63378 0.40349 0.0
O1745 O 0.21939 0.63483 0.37335 0.0
O1746 O 0.27051 0.6021 0.40306 0.0
O1747 O 0.29237 0.61505 0.37912 0.0
C1748 C 0.29162 0.60337 0.39652 0.0
C1749 C 0.25862 0.61557 0.32258 0.0
O1750 O 0.27568 0.56817 0.35743 0.0
O1751 O 0.24154 0.58426 0.3706 0.0
O1752 O 0.32419 0.59835 0.32237 0.0
O1753 O 0.32558 0.57805 0.35116 0.0
O1754 O 0.27936 0.61579 0.31461 0.0
O1755 O 0.25844 0.60513 0.34068 0.0
O1756 O 0.26881 0.65296 0.36161 0.0
O1757 O 0.30483 0.63786 0.35517 0.0
C1758 C 0.25433 0.56605 0.36593 0.0
C1759 C 0.29116 0.65586 0.35887 0.0
Dy1760 Dy 0.36838 0.11611 0.49936 0.0
C1761 C 0.40305 0.16202 0.42235 0.0
C1762 C 0.35372 0.09731 0.53795 0.0
Dy1763 Dy 0.39297 0.13795 0.45945 0.0
O1764 O 0.34283 0.09667 0.51893 0.0
O1765 O 0.3735 0.10724 0.53546 0.0
O1766 O 0.33498 0.133 0.48773 0.0
O1767 O 0.35995 0.12331 0.4651 0.0
C1768 C 0.34133 0.13397 0.46719 0.0
C1769 C 0.42039 0.11879 0.48923 0.0
O1770 O 0.38562 0.16967 0.48127 0.0
O1771 O 0.37001 0.15137 0.51154 0.0
O1772 O 0.41823 0.15161 0.43495 0.0
O1773 O 0.38248 0.15898 0.43 0.0
O1774 O 0.42609 0.12004 0.46847 0.0
O1775 O 0.4022 0.13001 0.49307 0.0
O1776 O 0.38104 0.08474 0.48198 0.0
O1777 O 0.38471 0.10161 0.44732 0.0
C1778 C 0.37676 0.1701 0.50169 0.0
C1779 C 0.38251 0.08303 0.4601 0.0
Dy1780 Dy 0.88765 0.38423 0.52536 0.0
C1781 C 0.87824 0.29833 0.48842 0.0
C1782 C 0.8897 0.4257 0.5451 0.0
Dy1783 Dy 0.88444 0.338 0.51069 0.0
O1784 O 0.8901 0.42203 0.52397 0.0
O1785 O 0.88707 0.4066 0.55541 0.0
O1786 O 0.91503 0.39254 0.50202 0.0
O1787 O 0.91478 0.35957 0.51577 0.0
C1788 C 0.92475 0.37275 0.5027 0.0
C1789 C 0.85108 0.34894 0.53825 0.0
O1790 O 0.90471 0.33065 0.54205 0.0
O1791 O 0.89597 0.36587 0.55669 0.0
O1792 O 0.86197 0.31182 0.49496 0.0
O1793 O 0.89831 0.30618 0.49453 0.0
O1794 O 0.86176 0.32944 0.53833 0.0
O1795 O 0.85805 0.36175 0.52293 0.0
O1796 O 0.86276 0.39039 0.49749 0.0
O1797 O 0.87348 0.35762 0.47982 0.0
C1798 C 0.90448 0.34501 0.55902 0.0
C1799 C 0.86208 0.37735 0.47972 0.0
Dy1800 Dy 0.35961 0.12949 0.25059 0.0
C1801 C 0.39255 0.17609 0.32947 0.0
C1802 C 0.34344 0.10622 0.2146 0.0
Dy1803 Dy 0.37734 0.16231 0.2887 0.0
O1804 O 0.36494 0.11046 0.21904 0.0
O1805 O 0.33027 0.11504 0.22971 0.0
O1806 O 0.37868 0.1006 0.26626 0.0
O1807 O 0.36614 0.12645 0.28646 0.0
C1808 C 0.37813 0.10836 0.28634 0.0
C1809 C 0.36628 0.18574 0.25106 0.0
O1810 O 0.40994 0.14746 0.27425 0.0
O1811 O 0.39368 0.14105 0.23947 0.0
O1812 O 0.37249 0.18133 0.32076 0.0
O1813 O 0.40437 0.1639 0.31553 0.0
O1814 O 0.37513 0.19551 0.26862 0.0
O1815 O 0.36523 0.16503 0.25549 0.0
O1816 O 0.326 0.13973 0.26523 0.0
O1817 O 0.34044 0.1568 0.2974 0.0
C1818 C 0.41177 0.14191 0.25302 0.0
C1819 C 0.32317 0.14855 0.28526 0.0
Dy1820 Dy 0.62179 0.62443 0.99617 0.0
C1821 C 0.58823 0.65661 0.07894 0.0
C1822 C 0.63976 0.6088 0.95772 0.0
Dy1823 Dy 0.59351 0.6453 0.0345 0.0
O1824 O 0.64595 0.60215 0.97744 0.0
O1825 O 0.62361 0.62431 0.95897 0.0
O1826 O 0.65271 0.61995 0.0194 0.0
O1827 O 0.62927 0.64637 0.02478 0.0
C1828 C 0.64653 0.63588 0.03304 0.0
C1829 C 0.56825 0.6332 0.99773 0.0
O1830 O 0.60498 0.67744 0.0164 0.0
O1831 O 0.61759 0.66003 0.98387 0.0
O1832 O 0.5749 0.66401 0.06266 0.0
O1833 O 0.60363 0.64286 0.07088 0.0
O1834 O 0.56118 0.64846 0.01201 0.0
O1835 O 0.58589 0.62337 0.00589 0.0
O1836 O 0.60584 0.59302 0.00906 0.0
O1837 O 0.60028 0.608 0.04399 0.0
C1838 C 0.61207 0.67847 0.99535 0.0
C1839 C 0.60392 0.59019 0.03064 0.0
Dy1840 Dy 0.64019 0.37913 0.24548 0.0
C1841 C 0.59907 0.34999 0.32543 0.0
C1842 C 0.65538 0.39543 0.20642 0.0
Dy1843 Dy 0.61469 0.35569 0.28336 0.0
O1844 O 0.65847 0.40503 0.2256 0.0
O1845 O 0.64493 0.37619 0.20877 0.0
O1846 O 0.64662 0.40899 0.26811 0.0
O1847 O 0.61649 0.38995 0.2712 0.0
C1848 C 0.6282 0.40571 0.27964 0.0
C1849 C 0.62786 0.32724 0.2515 0.0
O1850 O 0.58381 0.36869 0.26205 0.0
O1851 O 0.60453 0.37824 0.23076 0.0
O1852 O 0.59601 0.33544 0.30938 0.0
O1853 O 0.6104 0.36738 0.31845 0.0
O1854 O 0.60978 0.32341 0.26353 0.0
O1855 O 0.63842 0.34451 0.25833 0.0
O1856 O 0.67132 0.36417 0.26171 0.0
O1857 O 0.65308 0.35717 0.29483 0.0
C1858 C 0.58461 0.37541 0.24079 0.0
C1859 C 0.67255 0.35913 0.28304 0.0
Dy1860 Dy 0.1139 0.88474 -0.0008 0.0
C1861 C 0.07768 0.84924 0.91865 0.0
C1862 C 0.13163 0.90106 0.03798 0.0
Dy1863 Dy 0.08449 0.86823 0.9598 0.0
O1864 O 0.13926 0.90544 0.01832 0.0
O1865 O 0.11347 0.88829 0.03632 0.0
O1866 O 0.14559 0.8679 0.98631 0.0
O1867 O 0.12019 0.88002 0.96396 0.0
C1868 C 0.13892 0.86867 0.96566 0.0
C1869 C 0.06006 0.88119 0.99563 0.0
O1870 O 0.09101 0.83485 0.97786 0.0
O1871 O 0.1163 0.84782 0.00535 0.0
O1872 O 0.06558 0.8661 0.92671 0.0
O1873 O 0.09231 0.84213 0.93375 0.0
O1874 O 0.05124 0.88125 0.9755 0.0
O1875 O 0.0795 0.87152 0.99512 0.0
O1876 O 0.10352 0.918 0.98419 0.0
O1877 O 0.09139 0.90433 0.94994 0.0
C1878 C 0.10479 0.83132 0.99548 0.0
C1879 C 0.09852 0.92112 0.96294 0.0
Dy1880 Dy 0.36935 0.87276 0.23589 0.0
C1881 C 0.39342 0.82754 0.15316 0.0
C1882 C 0.35766 0.89391 0.27436 0.0
Dy1883 Dy 0.3843 0.8415 0.19561 0.0
O1884 O 0.34738 0.89676 0.25528 0.0
O1885 O 0.37421 0.87873 0.27275 0.0
O1886 O 0.36261 0.90267 0.21392 0.0
O1887 O 0.38551 0.87744 0.20383 0.0
C1888 C 0.37362 0.8942 0.19727 0.0
C1889 C 0.3787 0.82056 0.23403 0.0
O1890 O 0.41957 0.85143 0.20888 0.0
O1891 O 0.40777 0.8716 0.24051 0.0
O1892 O 0.38136 0.81611 0.16731 0.0
O1893 O 0.39992 0.84646 0.1623 0.0
O1894 O 0.39271 0.81254 0.21905 0.0
O1895 O 0.36721 0.83722 0.22678 0.0
O1896 O 0.33529 0.85898 0.22556 0.0
O1897 O 0.34586 0.84837 0.1899 0.0
C1898 C 0.42402 0.86317 0.22735 0.0
C1899 C 0.32991 0.85414 0.2047 0.0
Dy1900 Dy 0.13349 0.13283 0.75943 0.0
C1901 C 0.10531 0.16402 0.67425 0.0
C1902 C 0.15041 0.11209 0.79701 0.0
Dy1903 Dy 0.11199 0.15831 0.72007 0.0
O1904 O 0.15745 0.10861 0.77704 0.0
O1905 O 0.13428 0.12777 0.7966 0.0
O1906 O 0.13636 0.10193 0.7383 0.0
O1907 O 0.10842 0.12387 0.73277 0.0
C1908 C 0.11835 0.10609 0.72596 0.0
C1909 C 0.12747 0.18492 0.75386 0.0
O1910 O 0.0792 0.14874 0.73861 0.0
O1911 O 0.09773 0.13987 0.77217 0.0
O1912 O 0.09667 0.17733 0.6896 0.0
O1913 O 0.11613 0.14782 0.68466 0.0
O1914 O 0.11055 0.19109 0.74049 0.0
O1915 O 0.1365 0.16692 0.74666 0.0
O1916 O 0.16591 0.14448 0.7437 0.0
O1917 O 0.14817 0.14699 0.70943 0.0
C1918 C 0.07852 0.14373 0.76029 0.0
C1919 C 0.16721 0.14424 0.72184 0.0
C1920 C 0.08187 0.16768 0.36594 0.0
C1921 C 0.07876 0.18125 0.34687 0.0
C1922 C 0.04103 0.1649 0.33917 0.0
C1923 C 0.04229 0.15429 0.36045 0.0
N1924 N 0.06393 0.14455 0.39385 0.0
N1925 N 0.06041 0.18853 0.31191 0.0
C1926 C 0.06294 0.15499 0.37361 0.0
C1927 C 0.06004 0.17804 0.33213 0.0
N1928 N 0.10225 0.16916 0.37768 0.0
N1929 N 0.02113 0.16385 0.32662 0.0
H1930 H 0.07459 0.19816 0.30718 0.0
H1931 H 0.0479 0.18661 0.29948 0.0
H1932 H 0.00644 0.15526 0.33163 0.0
H1933 H 0.01853 0.17225 0.31159 0.0
H1934 H 0.10573 0.16142 0.39288 0.0
H1935 H 0.11624 0.17819 0.37155 0.0
H1936 H 0.07875 0.1427 0.4037 0.0
H1937 H 0.04926 0.13857 0.40147 0.0
C1938 C 0.08819 0.8534 0.62192 0.0
C1939 C 0.07835 0.85393 0.60038 0.0
C1940 C 0.09476 0.81599 0.59331 0.0
C1941 C 0.10006 0.81408 0.61638 0.0
N1942 N 0.09536 0.82907 0.65327 0.0
N1943 N 0.07439 0.83754 0.56419 0.0
C1944 C 0.09527 0.83229 0.63088 0.0
C1945 C 0.0828 0.83586 0.58545 0.0
N1946 N 0.09024 0.87284 0.63411 0.0
N1947 N 0.09987 0.79834 0.57939 0.0
H1948 H 0.06647 0.85251 0.55836 0.0
H1949 H 0.07494 0.82446 0.55256 0.0
H1950 H 0.10702 0.78303 0.58509 0.0
H1951 H 0.09757 0.79891 0.56225 0.0
H1952 H 0.0983 0.87299 0.64971 0.0
H1953 H 0.08686 0.88889 0.62735 0.0
H1954 H 0.08782 0.84102 0.6638 0.0
H1955 H 0.10034 0.81377 0.66084 0.0
C1956 C 0.44518 0.81543 0.87027 0.0
C1957 C 0.44641 0.83233 0.85357 0.0
C1958 C 0.40872 0.82052 0.83811 0.0
C1959 C 0.40879 0.80259 0.85374 0.0
N1960 N 0.42133 0.78851 0.88954 0.0
N1961 N 0.42899 0.85275 0.82257 0.0
C1962 C 0.42528 0.80177 0.87134 0.0
C1963 C 0.42787 0.83563 0.83791 0.0
N1964 N 0.4635 0.81165 0.88446 0.0
N1965 N 0.39017 0.82315 0.82393 0.0
H1966 H 0.44247 0.86432 0.82215 0.0
H1967 H 0.41695 0.85552 0.80984 0.0
H1968 H 0.37603 0.8123 0.82416 0.0
H1969 H 0.38794 0.83653 0.81279 0.0
H1970 H 0.46465 0.79795 0.89539 0.0
H1971 H 0.47856 0.82106 0.88399 0.0
H1972 H 0.43141 0.78895 0.90401 0.0
H1973 H 0.4064 0.7789 0.8912 0.0
C1974 C 0.42828 0.18592 0.10062 0.0
C1975 C 0.4274 0.20312 0.11717 0.0
C1976 C 0.46117 0.18579 0.13603 0.0
C1977 C 0.4609 0.16748 0.12064 0.0
N1978 N 0.44104 0.14766 0.09101 0.0
N1979 N 0.43958 0.21624 0.15349 0.0
C1980 C 0.44355 0.16682 0.10365 0.0
C1981 C 0.44277 0.20204 0.13577 0.0
N1982 N 0.41505 0.18813 0.08174 0.0
N1983 N 0.47965 0.18841 0.15021 0.0
H1984 H 0.42637 0.22846 0.15407 0.0
H1985 H 0.44865 0.21437 0.16849 0.0
H1986 H 0.494 0.1775 0.15032 0.0
H1987 H 0.48188 0.20273 0.16019 0.0
H1988 H 0.41646 0.17724 0.06817 0.0
H1989 H 0.40403 0.20207 0.07893 0.0
H1990 H 0.42719 0.14525 0.08002 0.0
H1991 H 0.45164 0.13328 0.09301 0.0
C1992 C 0.04082 0.80238 0.1152 0.0
C1993 C 0.04105 0.81712 0.13382 0.0
C1994 C 0.07539 0.79663 0.14882 0.0
C1995 C 0.07414 0.78094 0.13082 0.0
N1996 N 0.05064 0.76523 0.1013 0.0
N1997 N 0.05531 0.82542 0.17066 0.0
C1998 C 0.05551 0.7829 0.11519 0.0
C1999 C 0.05738 0.8134 0.15137 0.0
N2000 N 0.0264 0.80675 0.09744 0.0
N2001 N 0.09411 0.79618 0.16293 0.0
H2002 H 0.04251 0.83786 0.17287 0.0
H2003 H 0.06511 0.82187 0.18493 0.0
H2004 H 0.10763 0.78439 0.16145 0.0
H2005 H 0.09711 0.80859 0.17497 0.0
H2006 H 0.02764 0.79816 0.08235 0.0
H2007 H 0.01469 0.82037 0.09681 0.0
H2008 H 0.03615 0.76469 0.09081 0.0
H2009 H 0.05909 0.74971 0.10283 0.0
C2010 C 0.44497 0.84587 0.38656 0.0
C2011 C 0.46382 0.84056 0.3725 0.0
C2012 C 0.44916 0.80134 0.36814 0.0
C2013 C 0.43089 0.80654 0.38295 0.0
N2014 N 0.41434 0.83202 0.4099 0.0
N2015 N 0.48479 0.81314 0.35053 0.0
C2016 C 0.42959 0.82835 0.39312 0.0
C2017 C 0.46611 0.81822 0.36341 0.0
N2018 N 0.44107 0.86794 0.39279 0.0
N2019 N 0.45034 0.78007 0.35889 0.0
H2020 H 0.49804 0.82456 0.3478 0.0
H2021 H 0.48797 0.79755 0.34299 0.0
H2022 H 0.43851 0.76738 0.36238 0.0
H2023 H 0.4626 0.7747 0.34754 0.0
H2024 H 0.42627 0.87346 0.40095 0.0
H2025 H 0.45163 0.8812 0.38791 0.0
H2026 H 0.41412 0.84664 0.41967 0.0
H2027 H 0.40334 0.81945 0.41557 0.0
C2028 C 0.44636 0.17829 0.62955 0.0
C2029 C 0.45112 0.16636 0.64938 0.0
C2030 C 0.41304 0.17686 0.66368 0.0
C2031 C 0.40758 0.18681 0.64286 0.0
N2032 N 0.41715 0.19331 0.60441 0.0
N2033 N 0.4387 0.15197 0.68484 0.0
C2034 C 0.42363 0.1863 0.62526 0.0
C2035 C 0.43449 0.16519 0.66651 0.0
N2036 N 0.46382 0.18223 0.61505 0.0
N2037 N 0.3977 0.17866 0.68067 0.0
H2038 H 0.45459 0.14401 0.6881 0.0
H2039 H 0.42612 0.14794 0.69633 0.0
H2040 H 0.38111 0.18562 0.67847 0.0
H2041 H 0.40167 0.17413 0.69701 0.0
H2042 H 0.46192 0.19235 0.60093 0.0
H2043 H 0.48091 0.17742 0.61861 0.0
H2044 H 0.42743 0.19104 0.59051 0.0
H2045 H 0.40065 0.19941 0.60051 0.0
C2046 C 0.09876 0.19074 0.91431 0.0
C2047 C 0.09838 0.20399 0.89462 0.0
C2048 C 0.07411 0.17684 0.8756 0.0
C2049 C 0.07267 0.16462 0.89572 0.0
N2050 N 0.0863 0.15603 0.9325 0.0
N2051 N 0.08263 0.21252 0.85803 0.0
C2052 C 0.08591 0.17037 0.91465 0.0
C2053 C 0.08507 0.19796 0.87569 0.0
N2054 N 0.11026 0.19843 0.93279 0.0
N2055 N 0.06545 0.1678 0.85632 0.0
H2056 H 0.09123 0.22794 0.85687 0.0
H2057 H 0.07081 0.21015 0.84504 0.0
H2058 H 0.06054 0.15089 0.85524 0.0
H2059 H 0.06593 0.17571 0.8409 0.0
H2060 H 0.11031 0.19031 0.94813 0.0
H2061 H 0.11903 0.21384 0.93306 0.0
H2062 H 0.09662 0.15823 0.94662 0.0
H2063 H 0.07722 0.14077 0.93234 0.0
C2064 C 0.3525 0.08173 0.15921 0.0
C2065 C 0.34393 0.0595 0.1628 0.0
C2066 C 0.32489 0.07285 0.19663 0.0
C2067 C 0.33631 0.09374 0.19448 0.0
N2068 N 0.35647 0.12044 0.17232 0.0
N2069 N 0.32599 0.03283 0.18749 0.0
C2070 C 0.34845 0.0989 0.17505 0.0
C2071 C 0.33076 0.05479 0.18199 0.0
N2072 N 0.36517 0.08621 0.14095 0.0
N2073 N 0.30911 0.07012 0.21299 0.0
H2074 H 0.33291 0.01906 0.17888 0.0
H2075 H 0.31786 0.0282 0.20209 0.0
H2076 H 0.30451 0.08334 0.22367 0.0
H2077 H 0.29879 0.05579 0.21431 0.0
H2078 H 0.37195 0.10188 0.13685 0.0
H2079 H 0.36881 0.07381 0.12952 0.0
H2080 H 0.36901 0.12535 0.16117 0.0
H2081 H 0.34935 0.13381 0.18129 0.0
C2082 C 0.17466 0.08347 0.44102 0.0
C2083 C 0.15404 0.09632 0.43786 0.0
C2084 C 0.16945 0.11512 0.40584 0.0
C2085 C 0.19071 0.10311 0.40906 0.0
N2086 N 0.21405 0.07561 0.42934 0.0
N2087 N 0.1284 0.1165 0.41291 0.0
C2088 C 0.19331 0.08667 0.42624 0.0
C2089 C 0.15018 0.10906 0.41845 0.0
N2090 N 0.1764 0.06919 0.4589 0.0
N2091 N 0.16833 0.13404 0.39276 0.0
H2092 H 0.11402 0.1122 0.4222 0.0
H2093 H 0.12444 0.12439 0.3978 0.0
H2094 H 0.18309 0.14128 0.38647 0.0
H2095 H 0.15363 0.14439 0.39112 0.0
H2096 H 0.19115 0.05991 0.46344 0.0
H2097 H 0.16233 0.06641 0.4692 0.0
H2098 H 0.21711 0.06286 0.441 0.0
H2099 H 0.2286 0.07923 0.42 0.0
C2100 C 0.13184 0.91631 0.67846 0.0
C2101 C 0.15385 0.90831 0.68585 0.0
C2102 C 0.17235 0.93925 0.66581 0.0
C2103 C 0.15015 0.9493 0.66184 0.0
N2104 N 0.10895 0.94921 0.66779 0.0
N2105 N 0.1952 0.91082 0.68615 0.0
C2106 C 0.12991 0.93819 0.66885 0.0
C2107 C 0.1742 0.91928 0.67913 0.0
N2108 N 0.11268 0.90329 0.68121 0.0
N2109 N 0.19151 0.94871 0.65687 0.0
H2110 H 0.19677 0.8954 0.69469 0.0
H2111 H 0.2108 0.91918 0.68418 0.0
H2112 H 0.19065 0.96316 0.64699 0.0
H2113 H 0.208 0.94144 0.65777 0.0
H2114 H 0.09643 0.90762 0.67467 0.0
H2115 H 0.11347 0.88688 0.68762 0.0
H2116 H 0.094 0.94294 0.67486 0.0
H2117 H 0.10697 0.96582 0.66205 0.0
C2118 C 0.32801 0.89973 0.95713 0.0
C2119 C 0.34562 0.88248 0.95799 0.0
C2120 C 0.3303 0.86643 0.9234 0.0
C2121 C 0.31348 0.8842 0.92175 0.0
N2122 N 0.3018 0.92178 0.93343 0.0
N2123 N 0.36859 0.85599 0.93671 0.0
C2124 C 0.31431 0.90233 0.93731 0.0
C2125 C 0.34847 0.86807 0.93933 0.0
N2126 N 0.32294 0.91249 0.97544 0.0
N2127 N 0.32855 0.84739 0.91056 0.0
H2128 H 0.38284 0.85789 0.9474 0.0
H2129 H 0.37201 0.8464 0.92253 0.0
H2130 H 0.31521 0.8451 0.89908 0.0
H2131 H 0.33916 0.83308 0.91289 0.0
H2132 H 0.30865 0.92346 0.97606 0.0
H2133 H 0.33139 0.91064 0.99071 0.0
H2134 H 0.30287 0.93611 0.94359 0.0
H2135 H 0.29281 0.9245 0.91855 0.0
C2136 C 0.35097 0.91893 0.33242 0.0
C2137 C 0.35053 0.94253 0.32737 0.0
C2138 C 0.35535 0.93385 0.2881 0.0
C2139 C 0.35497 0.91021 0.29287 0.0
N2140 N 0.3475 0.88011 0.3189 0.0
N2141 N 0.3432 0.97136 0.29967 0.0
C2142 C 0.35124 0.90264 0.31486 0.0
C2143 C 0.3496 0.94957 0.30493 0.0
N2144 N 0.35212 0.91212 0.35395 0.0
N2145 N 0.36288 0.94155 0.26807 0.0
H2146 H 0.33796 0.98298 0.31171 0.0
H2147 H 0.34044 0.97688 0.28338 0.0
H2148 H 0.36941 0.93088 0.25576 0.0
H2149 H 0.36539 0.95874 0.26475 0.0
H2150 H 0.35602 0.89549 0.35885 0.0
H2151 H 0.34995 0.92372 0.36673 0.0
H2152 H 0.3425 0.87391 0.33428 0.0
H2153 H 0.34763 0.86784 0.30636 0.0
C2154 C 0.31982 0.0813 0.58891 0.0
C2155 C 0.30448 0.10042 0.5893 0.0
C2156 C 0.32724 0.11949 0.56144 0.0
C2157 C 0.34043 0.09927 0.55854 0.0
N2158 N 0.35062 0.06115 0.56946 0.0
N2159 N 0.29138 0.13632 0.57355 0.0
C2160 C 0.33722 0.0802 0.5724 0.0
C2161 C 0.30753 0.11911 0.57486 0.0
N2162 N 0.31765 0.06437 0.60424 0.0
N2163 N 0.33398 0.13926 0.55174 0.0
H2164 H 0.27714 0.13761 0.5839 0.0
H2165 H 0.29134 0.14876 0.56123 0.0
H2166 H 0.34964 0.14053 0.54371 0.0
H2167 H 0.32577 0.15494 0.554 0.0
H2168 H 0.32909 0.05065 0.60592 0.0
H2169 H 0.30505 0.06482 0.61642 0.0
H2170 H 0.34808 0.04579 0.57758 0.0
H2171 H 0.36417 0.06065 0.55819 0.0
C2172 C 0.16894 0.0913 0.82905 0.0
C2173 C 0.15089 0.09316 0.81298 0.0
C2174 C 0.13593 0.05603 0.82378 0.0
C2175 C 0.15446 0.05381 0.83949 0.0
N2176 N 0.19075 0.06683 0.85454 0.0
N2177 N 0.11929 0.07624 0.7923 0.0
C2178 C 0.17165 0.07073 0.84136 0.0
C2179 C 0.13501 0.0752 0.80955 0.0
N2180 N 0.18319 0.10936 0.83269 0.0
N2181 N 0.11849 0.04044 0.82324 0.0
H2182 H 0.11682 0.09051 0.78224 0.0
H2183 H 0.10958 0.06245 0.78692 0.0
H2184 H 0.118 0.02626 0.83354 0.0
H2185 H 0.10318 0.04258 0.81412 0.0
H2186 H 0.19538 0.11006 0.84556 0.0
H2187 H 0.18156 0.12452 0.82376 0.0
H2188 H 0.20493 0.07754 0.85532 0.0
H2189 H 0.19319 0.05184 0.86359 0.0
C2190 C 0.18429 0.88173 0.07024 0.0
C2191 C 0.18653 0.90022 0.08528 0.0
C2192 C 0.14904 0.91598 0.07314 0.0
C2193 C 0.14811 0.89898 0.05659 0.0
N2194 N 0.16303 0.86458 0.03983 0.0
N2195 N 0.17209 0.93505 0.10144 0.0
C2196 C 0.16514 0.88141 0.05543 0.0
C2197 C 0.1691 0.91732 0.087 0.0
N2198 N 0.2 0.86403 0.07075 0.0
N2199 N 0.13054 0.93039 0.07574 0.0
H2200 H 0.1864 0.93619 0.11211 0.0
H2201 H 0.16109 0.94917 0.10223 0.0
H2202 H 0.11566 0.92938 0.06574 0.0
H2203 H 0.12903 0.94202 0.0887 0.0
H2204 H 0.19816 0.84891 0.06198 0.0
H2205 H 0.21441 0.86338 0.08131 0.0
H2206 H 0.17612 0.85314 0.03564 0.0
H2207 H 0.14801 0.86224 0.03043 0.0
C2208 C 0.17126 0.34491 0.06175 0.0
C2209 C 0.17462 0.36067 0.0443 0.0
C2210 C 0.20973 0.37347 0.06228 0.0
C2211 C 0.20319 0.36217 0.08184 0.0
N2212 N 0.17756 0.33703 0.10088 0.0
N2213 N 0.19567 0.39283 0.02974 0.0
C2214 C 0.18404 0.34755 0.0818 0.0
C2215 C 0.19361 0.37562 0.04483 0.0
N2216 N 0.15631 0.32736 0.05895 0.0
N2217 N 0.23145 0.38194 0.06033 0.0
H2218 H 0.18394 0.39593 0.01681 0.0
H2219 H 0.20797 0.40556 0.03145 0.0
H2220 H 0.24417 0.37886 0.07236 0.0
H2221 H 0.23752 0.38901 0.04568 0.0
H2222 H 0.15452 0.31437 0.07056 0.0
H2223 H 0.14699 0.32509 0.04419 0.0
H2224 H 0.16204 0.32835 0.10227 0.0
H2225 H 0.18726 0.3381 0.11558 0.0
C2226 C 0.69563 0.161 0.91749 0.0
C2227 C 0.69291 0.14045 0.90555 0.0
C2228 C 0.66993 0.12445 0.93491 0.0
C2229 C 0.67082 0.14554 0.94619 0.0
N2230 N 0.68897 0.18166 0.95189 0.0
N2231 N 0.67386 0.10494 0.89979 0.0
C2232 C 0.68486 0.16336 0.9384 0.0
C2233 C 0.67853 0.1231 0.91321 0.0
N2234 N 0.70887 0.17783 0.90882 0.0
N2235 N 0.66302 0.10527 0.94554 0.0
H2236 H 0.68038 0.10372 0.88375 0.0
H2237 H 0.66195 0.09252 0.90376 0.0
H2238 H 0.66003 0.10486 0.9625 0.0
H2239 H 0.66384 0.08911 0.93842 0.0
H2240 H 0.71142 0.19363 0.91616 0.0
H2241 H 0.71638 0.17635 0.89323 0.0
H2242 H 0.69969 0.1951 0.94799 0.0
H2243 H 0.68282 0.18254 0.96809 0.0
C2244 C 0.1469 0.42514 0.16613 0.0
C2245 C 0.12608 0.43814 0.16666 0.0
C2246 C 0.11373 0.41795 0.19975 0.0
C2247 C 0.13482 0.40517 0.19976 0.0
N2248 N 0.16971 0.39372 0.18113 0.0
N2249 N 0.08731 0.44314 0.17947 0.0
C2250 C 0.15083 0.40784 0.18231 0.0
C2251 C 0.10868 0.43317 0.182 0.0
N2252 N 0.16345 0.43019 0.15093 0.0
N2253 N 0.09933 0.41692 0.21749 0.0
H2254 H 0.08336 0.45428 0.16641 0.0
H2255 H 0.07303 0.43873 0.1888 0.0
H2256 H 0.10261 0.40655 0.23115 0.0
H2257 H 0.08516 0.42776 0.21964 0.0
H2258 H 0.18025 0.42365 0.15138 0.0
H2259 H 0.16074 0.44178 0.13805 0.0
H2260 H 0.18057 0.39302 0.16756 0.0
H2261 H 0.1738 0.38156 0.19314 0.0
C2262 C 0.83725 0.84201 0.43627 0.0
C2263 C 0.83895 0.86131 0.45028 0.0
C2264 C 0.81203 0.88282 0.42621 0.0
C2265 C 0.81123 0.86387 0.41149 0.0
N2266 N 0.82342 0.82605 0.40128 0.0
N2267 N 0.82422 0.89787 0.46194 0.0
C2268 C 0.8238 0.84353 0.41628 0.0
C2269 C 0.82543 0.8812 0.4461 0.0
N2270 N 0.84765 0.822 0.44272 0.0
N2271 N 0.79978 0.90235 0.42131 0.0
H2272 H 0.83272 0.89668 0.47723 0.0
H2273 H 0.81324 0.912 0.46115 0.0
H2274 H 0.78769 0.90375 0.40839 0.0
H2275 H 0.80217 0.9178 0.4294 0.0
H2276 H 0.8459 0.80665 0.4343 0.0
H2277 H 0.85688 0.82034 0.45766 0.0
H2278 H 0.83391 0.81158 0.40241 0.0
H2279 H 0.81361 0.82673 0.38659 0.0
C2280 C 0.87295 0.08438 0.17347 0.0
C2281 C 0.88324 0.0807 0.19478 0.0
C2282 C 0.90134 0.04558 0.18118 0.0
C2283 C 0.88898 0.04857 0.16093 0.0
N2284 N 0.86749 0.07235 0.13533 0.0
N2285 N 0.90769 0.05828 0.21928 0.0
C2286 C 0.87647 0.06865 0.15623 0.0
C2287 C 0.89811 0.06165 0.19862 0.0
N2288 N 0.85844 0.10234 0.17021 0.0
N2289 N 0.91583 0.02715 0.1835 0.0
H2290 H 0.90598 0.07014 0.23208 0.0
H2291 H 0.91683 0.04368 0.22403 0.0
H2292 H 0.91831 0.01555 0.17057 0.0
H2293 H 0.92642 0.0241 0.19732 0.0
H2294 H 0.84612 0.10378 0.15749 0.0
H2295 H 0.85903 0.11575 0.18099 0.0
H2296 H 0.8591 0.08728 0.13033 0.0
H2297 H 0.86996 0.06106 0.12221 0.0
C2298 C 0.33046 0.60987 0.5518 0.0
C2299 C 0.34175 0.63054 0.54674 0.0
C2300 C 0.32039 0.65017 0.57613 0.0
C2301 C 0.30749 0.63018 0.57951 0.0
N2302 N 0.29774 0.59182 0.56862 0.0
N2303 N 0.34577 0.67099 0.55192 0.0
C2304 C 0.31201 0.61015 0.56703 0.0
C2305 C 0.3363 0.65089 0.55835 0.0
N2306 N 0.33724 0.5899 0.54197 0.0
N2307 N 0.31763 0.66826 0.59018 0.0
H2308 H 0.35733 0.6721 0.53887 0.0
H2309 H 0.3409 0.68677 0.55831 0.0
H2310 H 0.30612 0.66804 0.60337 0.0
H2311 H 0.32802 0.68259 0.59 0.0
H2312 H 0.33211 0.57397 0.54745 0.0
H2313 H 0.34906 0.58895 0.52911 0.0
H2314 H 0.29829 0.57794 0.55787 0.0
H2315 H 0.28399 0.59105 0.57954 0.0
C2316 C 0.12528 0.56151 0.2999 0.0
C2317 C 0.12204 0.5843 0.30703 0.0
C2318 C 0.12847 0.57361 0.34506 0.0
C2319 C 0.12999 0.5507 0.3387 0.0
N2320 N 0.13633 0.52285 0.30995 0.0
N2321 N 0.10984 0.60911 0.33648 0.0
C2322 C 0.12989 0.54445 0.31598 0.0
C2323 C 0.11992 0.5894 0.32965 0.0
N2324 N 0.12301 0.55637 0.27788 0.0
N2325 N 0.13843 0.58083 0.3643 0.0
H2326 H 0.10121 0.61982 0.32527 0.0
H2327 H 0.1073 0.61269 0.35325 0.0
H2328 H 0.15083 0.57054 0.37219 0.0
H2329 H 0.13842 0.5979 0.36913 0.0
H2330 H 0.12364 0.54 0.27134 0.0
H2331 H 0.11829 0.56874 0.26628 0.0
H2332 H 0.13789 0.51732 0.29363 0.0
H2333 H 0.14246 0.51082 0.3214 0.0
C2334 C 0.40225 0.42244 0.82592 0.0
C2335 C 0.38521 0.43993 0.82502 0.0
C2336 C 0.37257 0.42773 0.78803 0.0
C2337 C 0.38872 0.40925 0.7894 0.0
N2338 N 0.42241 0.39202 0.80661 0.0
N2339 N 0.35268 0.45857 0.80677 0.0
C2340 C 0.40455 0.40743 0.80753 0.0
C2341 C 0.37017 0.44259 0.80638 0.0
N2342 N 0.41535 0.41951 0.84484 0.0
N2343 N 0.35953 0.43128 0.76915 0.0
H2344 H 0.35093 0.47072 0.81927 0.0
H2345 H 0.3389 0.45909 0.79544 0.0
H2346 H 0.3584 0.41975 0.75617 0.0
H2347 H 0.35033 0.44626 0.76581 0.0
H2348 H 0.42627 0.40557 0.84765 0.0
H2349 H 0.41425 0.43044 0.85846 0.0
H2350 H 0.43637 0.39183 0.81772 0.0
H2351 H 0.42436 0.38064 0.79347 0.0
C2352 C 0.96637 0.82461 0.65989 0.0
C2353 C 0.96302 0.84099 0.64249 0.0
C2354 C 0.92195 0.83027 0.63942 0.0
C2355 C 0.92633 0.81281 0.6547 0.0
N2356 N 0.94821 0.79805 0.68525 0.0
N2357 N 0.9368 0.85906 0.61635 0.0
C2358 C 0.94712 0.81176 0.66697 0.0
C2359 C 0.94041 0.8441 0.63304 0.0
N2360 N 0.98782 0.82025 0.66882 0.0
N2361 N 0.9008 0.83157 0.62888 0.0
H2362 H 0.94884 0.85991 0.60377 0.0
H2363 H 0.92107 0.86766 0.61412 0.0
H2364 H 0.88672 0.82214 0.63415 0.0
H2365 H 0.89712 0.84162 0.615 0.0
H2366 H 0.99145 0.80665 0.67943 0.0
H2367 H 0.00248 0.82942 0.66509 0.0
H2368 H 0.96203 0.79772 0.69655 0.0
H2369 H 0.9339 0.78863 0.69008 0.0
C2370 C 0.89707 0.16898 0.36963 0.0
C2371 C 0.89468 0.18726 0.38468 0.0
C2372 C 0.91817 0.16585 0.41189 0.0
C2373 C 0.92018 0.14813 0.39623 0.0
N2374 N 0.90339 0.12852 0.36534 0.0
N2375 N 0.89903 0.20104 0.42246 0.0
C2376 C 0.90607 0.14807 0.37726 0.0
C2377 C 0.90353 0.18488 0.40682 0.0
N2378 N 0.89333 0.17196 0.34754 0.0
N2379 N 0.93164 0.16509 0.4307 0.0
H2380 H 0.88921 0.21554 0.41904 0.0
H2381 H 0.90368 0.19927 0.43915 0.0
H2382 H 0.9418 0.15076 0.43461 0.0
H2383 H 0.93334 0.17864 0.44173 0.0
H2384 H 0.89932 0.15982 0.33643 0.0
H2385 H 0.88686 0.18691 0.34044 0.0
H2386 H 0.89199 0.12749 0.35178 0.0
H2387 H 0.91086 0.11314 0.37064 0.0
C2388 C 0.57164 0.16622 0.12924 0.0
C2389 C 0.55641 0.16598 0.14753 0.0
C2390 C 0.58165 0.19234 0.16784 0.0
C2391 C 0.59737 0.19169 0.15012 0.0
N2392 N 0.60968 0.1754 0.11549 0.0
N2393 N 0.54247 0.18633 0.17965 0.0
C2394 C 0.59315 0.17769 0.13134 0.0
C2395 C 0.56021 0.18107 0.16567 0.0
N2396 N 0.56462 0.15769 0.1092 0.0
N2397 N 0.5875 0.20362 0.18696 0.0
H2398 H 0.52563 0.18071 0.17694 0.0
H2399 H 0.5435 0.19865 0.19205 0.0
H2400 H 0.60336 0.21174 0.18902 0.0
H2401 H 0.57788 0.20295 0.20142 0.0
H2402 H 0.57419 0.15895 0.09478 0.0
H2403 H 0.5478 0.15237 0.1061 0.0
H2404 H 0.60876 0.1636 0.10262 0.0
H2405 H 0.62548 0.1837 0.11641 0.0
C2406 C 0.55579 0.83323 0.89412 0.0
C2407 C 0.53887 0.8317 0.87673 0.0
C2408 C 0.55729 0.79649 0.86365 0.0
C2409 C 0.57292 0.79693 0.88201 0.0
N2410 N 0.58527 0.81375 0.91657 0.0
N2411 N 0.52005 0.80827 0.84917 0.0
C2412 C 0.5717 0.81478 0.8978 0.0
C2413 C 0.53877 0.81243 0.86255 0.0
N2414 N 0.55701 0.85248 0.90677 0.0
N2415 N 0.56 0.78074 0.84717 0.0
H2416 H 0.50524 0.81832 0.84952 0.0
H2417 H 0.51796 0.79337 0.84002 0.0
H2418 H 0.57245 0.76782 0.84791 0.0
H2419 H 0.55109 0.7816 0.83201 0.0
H2420 H 0.57042 0.85572 0.91803 0.0
H2421 H 0.54545 0.86606 0.90481 0.0
H2422 H 0.58361 0.82494 0.92988 0.0
H2423 H 0.59723 0.8006 0.91953 0.0
C2424 C 0.9445 0.2152 0.87892 0.0
C2425 C 0.92398 0.21473 0.86576 0.0
C2426 C 0.93809 0.17911 0.84855 0.0
C2427 C 0.95681 0.17813 0.86417 0.0
N2428 N 0.97553 0.19408 0.89678 0.0
N2429 N 0.90028 0.19529 0.83873 0.0
C2430 C 0.95919 0.19574 0.8802 0.0
C2431 C 0.92049 0.1964 0.85068 0.0
N2432 N 0.95104 0.23498 0.88887 0.0
N2433 N 0.93757 0.16405 0.83127 0.0
H2434 H 0.88752 0.20796 0.83947 0.0
H2435 H 0.8956 0.18125 0.82918 0.0
H2436 H 0.95018 0.15138 0.82933 0.0
H2437 H 0.9257 0.16513 0.81812 0.0
H2438 H 0.96668 0.23698 0.89744 0.0
H2439 H 0.94259 0.25024 0.88532 0.0
H2440 H 0.97586 0.20498 0.91045 0.0
H2441 H 0.98745 0.18071 0.89809 0.0
C2442 C 0.56684 0.17796 0.63243 0.0
C2443 C 0.56606 0.19053 0.6124 0.0
C2444 C 0.53519 0.16549 0.59837 0.0
C2445 C 0.53653 0.15239 0.61836 0.0
N2446 N 0.56217 0.14097 0.64873 0.0
N2447 N 0.54463 0.20062 0.57933 0.0
C2448 C 0.55471 0.15713 0.63388 0.0
C2449 C 0.54884 0.18548 0.59618 0.0
N2450 N 0.57842 0.18627 0.6505 0.0
N2451 N 0.52283 0.15754 0.58052 0.0
H2452 H 0.55347 0.21594 0.57811 0.0
H2453 H 0.5307 0.19944 0.56823 0.0
H2454 H 0.51602 0.14122 0.58007 0.0
H2455 H 0.52235 0.1654 0.56503 0.0
H2456 H 0.57804 0.17863 0.66611 0.0
H2457 H 0.58528 0.20253 0.65065 0.0
H2458 H 0.57587 0.1435 0.65986 0.0
H2459 H 0.55789 0.12388 0.64723 0.0
C2460 C 0.59291 0.83001 0.36311 0.0
C2461 C 0.59905 0.81315 0.34773 0.0
C2462 C 0.56088 0.81733 0.32981 0.0
C2463 C 0.55499 0.83379 0.34621 0.0
N2464 N 0.56111 0.84382 0.38429 0.0
N2465 N 0.59046 0.79208 0.31447 0.0
C2466 C 0.56975 0.83705 0.36448 0.0
C2467 C 0.58355 0.80736 0.33021 0.0
N2468 N 0.60911 0.83877 0.37717 0.0
N2469 N 0.54419 0.80997 0.31529 0.0
H2470 H 0.60738 0.78584 0.31383 0.0
H2471 H 0.58024 0.78667 0.30119 0.0
H2472 H 0.52674 0.81409 0.31726 0.0
H2473 H 0.5469 0.79824 0.30265 0.0
H2474 H 0.60495 0.85233 0.38759 0.0
H2475 H 0.62654 0.83391 0.37645 0.0
H2476 H 0.57089 0.8414 0.39873 0.0
H2477 H 0.54354 0.84701 0.38672 0.0
C2478 C 0.91165 0.79445 0.08473 0.0
C2479 C 0.90159 0.7925 0.10611 0.0
C2480 C 0.91167 0.83167 0.11446 0.0
C2481 C 0.92592 0.83185 0.09576 0.0
N2482 N 0.93664 0.81642 0.06063 0.0
N2483 N 0.89626 0.80836 0.143 0.0
C2484 C 0.92464 0.81423 0.07987 0.0
C2485 C 0.90265 0.81083 0.12143 0.0
N2486 N 0.91005 0.77693 0.06984 0.0
N2487 N 0.9068 0.85131 0.12568 0.0
H2488 H 0.88891 0.79385 0.14945 0.0
H2489 H 0.90066 0.82025 0.15511 0.0
H2490 H 0.91164 0.8672 0.11986 0.0
H2491 H 0.89526 0.85205 0.13881 0.0
H2492 H 0.91587 0.77762 0.05362 0.0
H2493 H 0.90264 0.76136 0.0736 0.0
H2494 H 0.93806 0.80391 0.04849 0.0
H2495 H 0.94525 0.83143 0.05686 0.0
C2496 C 0.67402 0.92237 0.8413 0.0
C2497 C 0.65765 0.93998 0.83693 0.0
C2498 C 0.63982 0.91734 0.80764 0.0
C2499 C 0.65468 0.89879 0.81377 0.0
N2500 N 0.68247 0.88196 0.83911 0.0
N2501 N 0.62296 0.95355 0.81783 0.0
C2502 C 0.67073 0.90077 0.83147 0.0
C2503 C 0.64007 0.93739 0.82051 0.0
N2504 N 0.69326 0.92665 0.85396 0.0
N2505 N 0.62585 0.91613 0.78915 0.0
H2506 H 0.62219 0.96865 0.82684 0.0
H2507 H 0.60814 0.95111 0.80809 0.0
H2508 H 0.62321 0.90127 0.78022 0.0
H2509 H 0.61773 0.93027 0.7819 0.0
H2510 H 0.70679 0.91493 0.85614 0.0
H2511 H 0.69645 0.94265 0.86076 0.0
H2512 H 0.69268 0.88203 0.85353 0.0
H2513 H 0.68005 0.86584 0.83219 0.0
C2514 C 0.81011 0.91795 0.56867 0.0
C2515 C 0.81249 0.9012 0.58554 0.0
C2516 C 0.8533 0.8966 0.57623 0.0
C2517 C 0.84914 0.908 0.55601 0.0
N2518 N 0.82449 0.93247 0.53382 0.0
N2519 N 0.83616 0.87134 0.60226 0.0
C2520 C 0.82785 0.9199 0.55265 0.0
C2521 C 0.83414 0.88982 0.58874 0.0
N2522 N 0.79092 0.93168 0.56783 0.0
N2523 N 0.87534 0.89189 0.58324 0.0
H2524 H 0.82191 0.86429 0.60963 0.0
H2525 H 0.85124 0.86147 0.60366 0.0
H2526 H 0.88942 0.89889 0.57525 0.0
H2527 H 0.87921 0.88428 0.59852 0.0
H2528 H 0.78878 0.9452 0.55681 0.0
H2529 H 0.77809 0.93079 0.5797 0.0
H2530 H 0.80845 0.93899 0.52865 0.0
H2531 H 0.83805 0.93588 0.52315 0.0
C2532 C 0.83298 0.06504 0.338 0.0
C2533 C 0.84807 0.04635 0.33354 0.0
C2534 C 0.86096 0.06477 0.29961 0.0
C2535 C 0.84566 0.08334 0.30401 0.0
N2536 N 0.8223 0.10432 0.3298 0.0
N2537 N 0.88023 0.03063 0.31298 0.0
C2538 C 0.83334 0.08453 0.32405 0.0
C2539 C 0.86316 0.04684 0.31517 0.0
N2540 N 0.81753 0.06369 0.35487 0.0
N2541 N 0.87328 0.06413 0.28037 0.0
H2542 H 0.88252 0.01689 0.32369 0.0
H2543 H 0.89356 0.03164 0.30163 0.0
H2544 H 0.8744 0.07782 0.26954 0.0
H2545 H 0.88174 0.04966 0.27447 0.0
H2546 H 0.80454 0.07577 0.35758 0.0
H2547 H 0.81661 0.04957 0.36524 0.0
H2548 H 0.81503 0.10709 0.34531 0.0
H2549 H 0.82228 0.11874 0.31969 0.0
C2550 C 0.65086 0.09977 0.0525 0.0
C2551 C 0.65221 0.11958 0.03909 0.0
C2552 C 0.6865 0.13195 0.06031 0.0
C2553 C 0.68603 0.11139 0.07274 0.0
N2554 N 0.66972 0.07466 0.07959 0.0
N2555 N 0.67293 0.15312 0.02806 0.0
C2556 C 0.66866 0.09502 0.06862 0.0
C2557 C 0.67032 0.13543 0.04258 0.0
N2558 N 0.63228 0.08577 0.05003 0.0
N2559 N 0.70257 0.14815 0.0654 0.0
H2560 H 0.66192 0.15618 0.01455 0.0
H2561 H 0.68706 0.16389 0.02806 0.0
H2562 H 0.71533 0.14612 0.07766 0.0
H2563 H 0.70233 0.16452 0.05883 0.0
H2564 H 0.62897 0.07215 0.0605 0.0
H2565 H 0.61909 0.08883 0.03835 0.0
H2566 H 0.65912 0.06095 0.0759 0.0
H2567 H 0.68235 0.07089 0.09166 0.0
C2568 C 0.6675 0.07432 0.70113 0.0
C2569 C 0.65122 0.09258 0.70253 0.0
C2570 C 0.6311 0.07857 0.66903 0.0
C2571 C 0.64651 0.05951 0.66844 0.0
N2572 N 0.6775 0.03748 0.68528 0.0
N2573 N 0.617 0.11217 0.68846 0.0
C2574 C 0.66446 0.05709 0.68466 0.0
C2575 C 0.63306 0.09494 0.68644 0.0
N2576 N 0.68589 0.07355 0.71569 0.0
N2577 N 0.61375 0.08017 0.65347 0.0
H2578 H 0.61695 0.12399 0.70128 0.0
H2579 H 0.60304 0.11507 0.67777 0.0
H2580 H 0.61283 0.06924 0.64003 0.0
H2581 H 0.60034 0.09206 0.65332 0.0
H2582 H 0.69951 0.06186 0.71469 0.0
H2583 H 0.68853 0.08591 0.72789 0.0
H2584 H 0.68874 0.03306 0.69828 0.0
H2585 H 0.67613 0.02475 0.67328 0.0
C2586 C 0.69702 0.91546 0.42612 0.0
C2587 C 0.69744 0.89637 0.41148 0.0
C2588 C 0.65643 0.88956 0.41929 0.0
C2589 C 0.6569 0.90735 0.43502 0.0
N2590 N 0.67338 0.94275 0.44612 0.0
N2591 N 0.67876 0.86254 0.39769 0.0
C2592 C 0.67589 0.92208 0.436 0.0
C2593 C 0.67731 0.8828 0.40879 0.0
N2594 N 0.71685 0.92653 0.43196 0.0
N2595 N 0.63611 0.87882 0.41504 0.0
H2596 H 0.69449 0.85412 0.39543 0.0
H2597 H 0.66477 0.85302 0.39226 0.0
H2598 H 0.62022 0.88569 0.41981 0.0
H2599 H 0.63482 0.86422 0.4056 0.0
H2600 H 0.71771 0.93809 0.44506 0.0
H2601 H 0.73292 0.92339 0.42511 0.0
H2602 H 0.68586 0.95538 0.4457 0.0
H2603 H 0.65757 0.94807 0.45266 0.0
C2604 C 0.82658 0.9258 0.15981 0.0
C2605 C 0.84386 0.94264 0.15947 0.0
C2606 C 0.86439 0.92476 0.19085 0.0
C2607 C 0.84752 0.90743 0.19056 0.0
N2608 N 0.81477 0.88897 0.17368 0.0
N2609 N 0.87797 0.96016 0.17545 0.0
C2610 C 0.82918 0.90722 0.17473 0.0
C2611 C 0.8625 0.94267 0.17519 0.0
N2612 N 0.80744 0.92801 0.14627 0.0
N2613 N 0.88261 0.92355 0.20571 0.0
H2614 H 0.87816 0.97297 0.16356 0.0
H2615 H 0.89032 0.96287 0.18785 0.0
H2616 H 0.88462 0.91076 0.21759 0.0
H2617 H 0.89664 0.93443 0.20596 0.0
H2618 H 0.79319 0.91742 0.14691 0.0
H2619 H 0.80512 0.94152 0.13518 0.0
H2620 H 0.80217 0.88674 0.16137 0.0
H2621 H 0.81649 0.87508 0.1844 0.0
C2622 C 0.84749 0.08631 0.92213 0.0
C2623 C 0.85321 0.10423 0.93646 0.0
C2624 C 0.82025 0.12684 0.92362 0.0
C2625 C 0.81241 0.10786 0.91069 0.0
N2626 N 0.81797 0.06809 0.90007 0.0
N2627 N 0.85166 0.14422 0.94401 0.0
C2628 C 0.82616 0.08734 0.91004 0.0
C2629 C 0.84155 0.12528 0.93515 0.0
N2630 N 0.86275 0.06854 0.92006 0.0
N2631 N 0.80746 0.1465 0.92535 0.0
H2632 H 0.86843 0.14391 0.95051 0.0
H2633 H 0.84492 0.16066 0.94236 0.0
H2634 H 0.79631 0.15265 0.91298 0.0
H2635 H 0.80922 0.15768 0.93871 0.0
H2636 H 0.86121 0.05587 0.90804 0.0
H2637 H 0.87839 0.068 0.929 0.0
H2638 H 0.82637 0.05235 0.9009 0.0
H2639 H 0.80171 0.06684 0.89276 0.0
C2640 C 0.8185 0.6547 0.93912 0.0
C2641 C 0.82731 0.63231 0.94326 0.0
C2642 C 0.81876 0.62213 0.90464 0.0
C2643 C 0.80573 0.6423 0.90202 0.0
N2644 N 0.79544 0.67956 0.91463 0.0
N2645 N 0.83112 0.59332 0.93047 0.0
C2646 C 0.80676 0.65939 0.91853 0.0
C2647 C 0.82628 0.61565 0.92617 0.0
N2648 N 0.82 0.67088 0.95536 0.0
N2649 N 0.82358 0.60894 0.8866 0.0
H2650 H 0.83766 0.58721 0.94548 0.0
H2651 H 0.82621 0.58053 0.91949 0.0
H2652 H 0.82012 0.61445 0.87042 0.0
H2653 H 0.83353 0.5941 0.88754 0.0
H2654 H 0.81573 0.68796 0.95298 0.0
H2655 H 0.82583 0.6672 0.97143 0.0
H2656 H 0.79347 0.69245 0.92631 0.0
H2657 H 0.78774 0.68316 0.89919 0.0
C2658 C 0.32458 0.87495 0.06291 0.0
C2659 C 0.32712 0.8541 0.05144 0.0
C2660 C 0.30097 0.83543 0.07687 0.0
C2661 C 0.29936 0.85586 0.08897 0.0
N2662 N 0.31208 0.89405 0.09639 0.0
N2663 N 0.31128 0.8176 0.04216 0.0
C2664 C 0.31199 0.87533 0.08291 0.0
C2665 C 0.31348 0.83513 0.05695 0.0
N2666 N 0.33241 0.8946 0.0538 0.0
N2667 N 0.29091 0.81624 0.08486 0.0
H2668 H 0.31882 0.81799 0.02652 0.0
H2669 H 0.29997 0.80414 0.04422 0.0
H2670 H 0.28207 0.81617 0.09987 0.0
H2671 H 0.2932 0.80016 0.07788 0.0
H2672 H 0.32865 0.91068 0.06014 0.0
H2673 H 0.33973 0.89519 0.03815 0.0
H2674 H 0.32263 0.90795 0.0939 0.0
H2675 H 0.30328 0.89486 0.11133 0.0
C2676 C 0.89697 0.56665 0.8254 0.0
C2677 C 0.87724 0.55977 0.8371 0.0
C2678 C 0.85352 0.58821 0.8178 0.0
C2679 C 0.87226 0.59271 0.80343 0.0
N2680 N 0.91204 0.5858 0.79319 0.0
N2681 N 0.83642 0.5632 0.84453 0.0
C2682 C 0.89426 0.58223 0.80741 0.0
C2683 C 0.85559 0.57077 0.83382 0.0
N2684 N 0.91821 0.55807 0.83151 0.0
N2685 N 0.83346 0.60049 0.81604 0.0
H2686 H 0.83695 0.5509 0.85694 0.0
H2687 H 0.81954 0.56804 0.84027 0.0
H2688 H 0.83014 0.61139 0.80298 0.0
H2689 H 0.82071 0.60082 0.82808 0.0
H2690 H 0.93372 0.5637 0.82505 0.0
H2691 H 0.92036 0.54662 0.84466 0.0
H2692 H 0.92743 0.5764 0.79346 0.0
H2693 H 0.91107 0.59737 0.78017 0.0
C2694 C 0.17354 0.15684 0.55422 0.0
C2695 C 0.15852 0.13786 0.55369 0.0
C2696 C 0.17378 0.12532 0.5903 0.0
C2697 C 0.18988 0.1432 0.5899 0.0
N2698 N 0.20217 0.17878 0.57502 0.0
N2699 N 0.14293 0.10521 0.57212 0.0
C2700 C 0.18865 0.15997 0.57298 0.0
C2701 C 0.1581 0.12267 0.57217 0.0
N2702 N 0.17455 0.17083 0.53613 0.0
N2703 N 0.17486 0.10964 0.60714 0.0
H2704 H 0.13398 0.10085 0.55797 0.0
H2705 H 0.13898 0.09522 0.58575 0.0
H2706 H 0.1845 0.11187 0.62168 0.0
H2707 H 0.16663 0.09401 0.60687 0.0
H2708 H 0.18675 0.18352 0.53427 0.0
H2709 H 0.16383 0.169 0.52218 0.0
H2710 H 0.20123 0.19269 0.56435 0.0
H2711 H 0.21314 0.1812 0.58875 0.0
C2712 C 0.1003 0.91652 0.81243 0.0
C2713 C 0.11445 0.92339 0.79456 0.0
C2714 C 0.1306 0.95373 0.81679 0.0
C2715 C 0.1173 0.94683 0.83505 0.0
N2716 N 0.0916 0.9203 0.85182 0.0
N2717 N 0.13252 0.9552 0.77699 0.0
C2718 C 0.10255 0.92786 0.83334 0.0
C2719 C 0.12621 0.94418 0.79588 0.0
N2720 N 0.08346 0.90086 0.80885 0.0
N2721 N 0.14858 0.96833 0.81971 0.0
H2722 H 0.12762 0.94943 0.76121 0.0
H2723 H 0.13974 0.97137 0.77715 0.0
H2724 H 0.15407 0.97361 0.83542 0.0
H2725 H 0.15991 0.97241 0.80706 0.0
H2726 H 0.07165 0.89601 0.82076 0.0
H2727 H 0.07966 0.89456 0.7931 0.0
H2728 H 0.08251 0.90514 0.85244 0.0
H2729 H 0.09327 0.92845 0.86716 0.0
C2730 C 0.68924 0.38949 0.43262 0.0
C2731 C 0.69142 0.37117 0.41738 0.0
C2732 C 0.65865 0.35214 0.43426 0.0
C2733 C 0.65573 0.37102 0.44871 0.0
N2734 N 0.66479 0.40993 0.45823 0.0
N2735 N 0.67535 0.33782 0.40016 0.0
C2736 C 0.66987 0.39046 0.44673 0.0
C2737 C 0.67521 0.35331 0.41708 0.0
N2738 N 0.70634 0.40531 0.43462 0.0
N2739 N 0.64632 0.33278 0.43746 0.0
H2740 H 0.68732 0.33836 0.3874 0.0
H2741 H 0.66243 0.32584 0.3977 0.0
H2742 H 0.63431 0.33127 0.45006 0.0
H2743 H 0.64928 0.3177 0.4288 0.0
H2744 H 0.7069 0.41742 0.44725 0.0
H2745 H 0.72119 0.40521 0.42504 0.0
H2746 H 0.67278 0.4254 0.45528 0.0
H2747 H 0.65122 0.41127 0.46936 0.0
C2748 C 0.89492 0.45014 0.67417 0.0
C2749 C 0.87822 0.44938 0.6567 0.0
C2750 C 0.86887 0.41078 0.66604 0.0
C2751 C 0.88259 0.41242 0.68552 0.0
N2752 N 0.90751 0.43427 0.7096 0.0
N2753 N 0.84408 0.43187 0.64097 0.0
C2754 C 0.89556 0.43223 0.68996 0.0
C2755 C 0.8637 0.43052 0.65389 0.0
N2756 N 0.90967 0.46808 0.67582 0.0
N2757 N 0.86133 0.39025 0.65883 0.0
H2758 H 0.8388 0.44674 0.6328 0.0
H2759 H 0.83182 0.419 0.64052 0.0
H2760 H 0.86922 0.37558 0.665 0.0
H2761 H 0.85149 0.38807 0.64433 0.0
H2762 H 0.92333 0.46875 0.68727 0.0
H2763 H 0.90926 0.48162 0.66461 0.0
H2764 H 0.91512 0.44932 0.71495 0.0
H2765 H 0.90879 0.42104 0.72112 0.0
C2766 C 0.60934 0.58463 0.15988 0.0
C2767 C 0.60457 0.56211 0.16599 0.0
C2768 C 0.60044 0.5734 0.20485 0.0
C2769 C 0.60906 0.59517 0.19935 0.0
N2770 N 0.61787 0.62221 0.17044 0.0
N2771 N 0.58787 0.53623 0.19172 0.0
C2772 C 0.61163 0.60113 0.17663 0.0
C2773 C 0.59734 0.557 0.18773 0.0
N2774 N 0.61318 0.59024 0.13824 0.0
N2775 N 0.59641 0.56819 0.22652 0.0
H2776 H 0.58522 0.5244 0.179 0.0
H2777 H 0.58108 0.53134 0.20685 0.0
H2778 H 0.59768 0.5803 0.23906 0.0
H2779 H 0.5923 0.55207 0.23223 0.0
H2780 H 0.61758 0.60665 0.13334 0.0
H2781 H 0.61099 0.57885 0.12514 0.0
H2782 H 0.62011 0.63527 0.18178 0.0
H2783 H 0.62011 0.63527 0.18178 0.0
C2784 C 0.53854 0.66976 0.8753 0.0
C2785 C 0.53539 0.65435 0.8574 0.0
C2786 C 0.57052 0.66787 0.83976 0.0
C2787 C 0.57215 0.68476 0.85639 0.0
N2788 N 0.55808 0.70271 0.88986 0.0
N2789 N 0.54725 0.63861 0.82232 0.0
C2790 C 0.55632 0.68591 0.87417 0.0
C2791 C 0.55111 0.6533 0.83954 0.0
N2792 N 0.5252 0.66828 0.89385 0.0
N2793 N 0.5878 0.6655 0.82465 0.0
H2794 H 0.53368 0.62713 0.82214 0.0
H2795 H 0.55665 0.63852 0.80772 0.0
H2796 H 0.60213 0.67614 0.8245 0.0
H2797 H 0.58896 0.65209 0.81341 0.0
H2798 H 0.52885 0.67675 0.90866 0.0
H2799 H 0.51143 0.65716 0.89536 0.0
H2800 H 0.54516 0.70664 0.90114 0.0
H2801 H 0.57207 0.71365 0.89112 0.0
C2802 C 0.59083 0.34652 0.12847 0.0
C2803 C 0.58088 0.34891 0.10711 0.0
C2804 C 0.59323 0.31015 0.09781 0.0
C2805 C 0.59994 0.30693 0.12047 0.0
N2806 N 0.59878 0.32153 0.15828 0.0
N2807 N 0.57771 0.33615 0.0695 0.0
C2808 C 0.59697 0.32475 0.136 0.0
C2809 C 0.58403 0.33168 0.09102 0.0
N2810 N 0.59335 0.36486 0.14216 0.0
N2811 N 0.59366 0.29208 0.0835 0.0
H2812 H 0.57158 0.35224 0.06468 0.0
H2813 H 0.57981 0.32489 0.05634 0.0
H2814 H 0.59797 0.27566 0.08864 0.0
H2815 H 0.5882 0.29274 0.06699 0.0
H2816 H 0.59938 0.36335 0.1585 0.0
H2817 H 0.59155 0.38151 0.13641 0.0
H2818 H 0.60191 0.30592 0.166 0.0
H2819 H 0.60191 0.30592 0.166 0.0
C2820 C 0.91074 0.31256 0.37032 0.0
C2821 C 0.90439 0.30163 0.35015 0.0
C2822 C 0.93788 0.31872 0.33215 0.0
C2823 C 0.94243 0.33136 0.35177 0.0
N2824 N 0.94214 0.32863 0.39148 0.0
N2825 N 0.91155 0.29447 0.31141 0.0
C2826 C 0.9316 0.3249 0.3715 0.0
C2827 C 0.91808 0.30454 0.33096 0.0
N2828 N 0.89678 0.31193 0.38838 0.0
N2829 N 0.95385 0.31864 0.31564 0.0
H2830 H 0.89686 0.2844 0.30991 0.0
H2831 H 0.91943 0.29753 0.2963 0.0
H2832 H 0.96968 0.32686 0.31739 0.0
H2833 H 0.95293 0.3083 0.30163 0.0
H2834 H 0.89937 0.32267 0.40198 0.0
H2835 H 0.88158 0.30269 0.38907 0.0
H2836 H 0.93668 0.32046 0.40578 0.0
H2837 H 0.95798 0.33674 0.39314 0.0
C2838 C 0.9614 0.67795 0.60219 0.0
C2839 C 0.95938 0.65883 0.6168 0.0
C2840 C 0.92289 0.67429 0.63047 0.0
C2841 C 0.92521 0.69344 0.61653 0.0
N2842 N 0.94106 0.70911 0.58342 0.0
N2843 N 0.93223 0.63446 0.63524 0.0
C2844 C 0.94249 0.69357 0.60026 0.0
C2845 C 0.9381 0.65552 0.62776 0.0
N2846 N 0.9815 0.68256 0.59149 0.0
N2847 N 0.90731 0.67446 0.64722 0.0
H2848 H 0.94198 0.61989 0.63165 0.0
H2849 H 0.91631 0.63114 0.64241 0.0
H2850 H 0.89603 0.68805 0.64976 0.0
H2851 H 0.90684 0.66179 0.65932 0.0
H2852 H 0.984 0.69761 0.58276 0.0
H2853 H 0.9966 0.67292 0.59267 0.0
H2854 H 0.95196 0.70878 0.56979 0.0
H2855 H 0.9273 0.72073 0.58198 0.0
C2856 C 0.54124 0.30616 0.61274 0.0
C2857 C 0.54092 0.32099 0.63138 0.0
C2858 C 0.57612 0.30216 0.64617 0.0
C2859 C 0.57464 0.28573 0.62891 0.0
N2860 N 0.55307 0.2695 0.59825 0.0
N2861 N 0.5563 0.33161 0.66725 0.0
C2862 C 0.55646 0.28703 0.61287 0.0
C2863 C 0.55795 0.31865 0.64849 0.0
N2864 N 0.52745 0.31067 0.59457 0.0
N2865 N 0.59514 0.30238 0.65992 0.0
H2866 H 0.54316 0.3437 0.66942 0.0
H2867 H 0.56684 0.32923 0.68126 0.0
H2868 H 0.60855 0.2904 0.65877 0.0
H2869 H 0.59846 0.31537 0.67126 0.0
H2870 H 0.52876 0.30177 0.57966 0.0
H2871 H 0.51642 0.32482 0.59349 0.0
H2872 H 0.53856 0.26837 0.58786 0.0
H2873 H 0.56353 0.25492 0.598 0.0
C2874 C 0.93569 0.32335 0.90011 0.0
C2875 C 0.93257 0.30509 0.88487 0.0
C2876 C 0.96332 0.32088 0.86175 0.0
C2877 C 0.96485 0.34041 0.87571 0.0
N2878 N 0.94857 0.36204 0.90582 0.0
N2879 N 0.94184 0.28813 0.84962 0.0
C2880 C 0.95004 0.34206 0.89435 0.0
C2881 C 0.94584 0.30448 0.86523 0.0
N2882 N 0.92515 0.32281 0.92024 0.0
N2883 N 0.97948 0.31705 0.84585 0.0
H2884 H 0.93132 0.2744 0.85249 0.0
H2885 H 0.94795 0.2889 0.83345 0.0
H2886 H 0.99293 0.32802 0.84298 0.0
H2887 H 0.98104 0.30189 0.83699 0.0
H2888 H 0.92862 0.33437 0.93295 0.0
H2889 H 0.91443 0.30963 0.92501 0.0
H2890 H 0.93625 0.36531 0.9179 0.0
H2891 H 0.95811 0.3762 0.90156 0.0
C2892 C 0.90062 0.66509 0.13447 0.0
C2893 C 0.89795 0.68316 0.14967 0.0
C2894 C 0.93608 0.67499 0.16614 0.0
C2895 C 0.93876 0.65723 0.15051 0.0
N2896 N 0.92754 0.6408 0.11546 0.0
N2897 N 0.91089 0.70418 0.18165 0.0
C2898 C 0.92209 0.65365 0.1335 0.0
C2899 C 0.91506 0.68768 0.16614 0.0
N2900 N 0.88278 0.6592 0.12066 0.0
N2901 N 0.95432 0.68054 0.17975 0.0
H2902 H 0.89519 0.71316 0.18211 0.0
H2903 H 0.92199 0.70799 0.19486 0.0
H2904 H 0.97035 0.67221 0.17893 0.0
H2905 H 0.95445 0.69438 0.19052 0.0
H2906 H 0.88284 0.64471 0.11067 0.0
H2907 H 0.86695 0.66761 0.12105 0.0
H2908 H 0.91687 0.6389 0.1015 0.0
H2909 H 0.94417 0.63462 0.11333 0.0
C2910 C 0.58404 0.66201 0.38025 0.0
C2911 C 0.57418 0.65924 0.40137 0.0
C2912 C 0.59043 0.69564 0.41326 0.0
C2913 C 0.59634 0.69976 0.39086 0.0
N2914 N 0.59311 0.68845 0.35214 0.0
N2915 N 0.56871 0.67224 0.43875 0.0
C2916 C 0.59149 0.68361 0.37414 0.0
C2917 C 0.57791 0.67564 0.41829 0.0
N2918 N 0.58514 0.64445 0.36546 0.0
N2919 N 0.59619 0.71105 0.42937 0.0
H2920 H 0.56077 0.65697 0.44287 0.0
H2921 H 0.56845 0.68443 0.45129 0.0
H2922 H 0.60431 0.72637 0.42588 0.0
H2923 H 0.59386 0.70833 0.44626 0.0
H2924 H 0.59017 0.64669 0.34906 0.0
H2925 H 0.58343 0.62753 0.3703 0.0
H2926 H 0.59768 0.70427 0.34583 0.0
H2927 H 0.59768 0.70427 0.34583 0.0
C2928 C 0.84128 0.60049 0.66952 0.0
C2929 C 0.84327 0.59404 0.69201 0.0
C2930 C 0.843 0.55386 0.68218 0.0
C2931 C 0.84384 0.56023 0.65958 0.0
N2932 N 0.84133 0.58885 0.63119 0.0
N2933 N 0.84925 0.56519 0.72026 0.0
C2934 C 0.84189 0.58335 0.65308 0.0
C2935 C 0.84461 0.57089 0.6986 0.0
N2936 N 0.84052 0.62307 0.66406 0.0
N2937 N 0.84032 0.53152 0.68786 0.0
H2938 H 0.85084 0.57713 0.73296 0.0
H2939 H 0.85349 0.54874 0.72546 0.0
H2940 H 0.83865 0.51864 0.67607 0.0
H2941 H 0.83737 0.52604 0.704 0.0
H2942 H 0.84097 0.62955 0.64803 0.0
H2943 H 0.83991 0.63576 0.67609 0.0
H2944 H 0.8367 0.60474 0.62494 0.0
H2945 H 0.8449 0.57687 0.61914 0.0
C2946 C 0.69245 0.62197 0.92495 0.0
C2947 C 0.69423 0.60177 0.91208 0.0
C2948 C 0.65664 0.58936 0.92502 0.0
C2949 C 0.65641 0.608 0.93985 0.0
N2950 N 0.67494 0.6409 0.95611 0.0
N2951 N 0.67988 0.56495 0.90146 0.0
C2952 C 0.67451 0.62404 0.94039 0.0
C2953 C 0.67679 0.58508 0.91247 0.0
N2954 N 0.70715 0.63971 0.92167 0.0
N2955 N 0.6375 0.5761 0.92278 0.0
H2956 H 0.69471 0.56129 0.89239 0.0
H2957 H 0.66864 0.55131 0.90265 0.0
H2958 H 0.62251 0.57916 0.93182 0.0
H2959 H 0.63575 0.56355 0.91067 0.0
H2960 H 0.70465 0.65579 0.92858 0.0
H2961 H 0.72055 0.63934 0.91034 0.0
H2962 H 0.68934 0.65096 0.95924 0.0
H2963 H 0.66155 0.64401 0.96714 0.0
C2964 C 0.63231 0.4406 0.17005 0.0
C2965 C 0.65292 0.44949 0.16128 0.0
C2966 C 0.67534 0.41825 0.17804 0.0
C2967 C 0.65458 0.40919 0.18614 0.0
N2968 N 0.61298 0.40697 0.18252 0.0
N2969 N 0.69281 0.44335 0.15141 0.0
C2970 C 0.63292 0.41874 0.17968 0.0
C2971 C 0.67416 0.4373 0.16359 0.0
N2972 N 0.61238 0.45339 0.17021 0.0
N2973 N 0.69608 0.40874 0.18438 0.0
H2974 H 0.69199 0.4565 0.13986 0.0
H2975 H 0.70816 0.43389 0.15103 0.0
H2976 H 0.69719 0.39381 0.19376 0.0
H2977 H 0.71196 0.41609 0.18107 0.0
H2978 H 0.59753 0.44831 0.17835 0.0
H2979 H 0.61138 0.47007 0.16438 0.0
H2980 H 0.59706 0.41246 0.17599 0.0
H2981 H 0.61275 0.39045 0.1887 0.0
C2982 C 0.82555 0.39601 0.46303 0.0
C2983 C 0.847 0.38401 0.46006 0.0
C2984 C 0.83688 0.37923 0.42032 0.0
C2985 C 0.8154 0.39051 0.42385 0.0
N2986 N 0.79455 0.41798 0.44542 0.0
N2987 N 0.87589 0.37122 0.43403 0.0
C2988 C 0.81179 0.40194 0.44413 0.0
C2989 C 0.85357 0.37777 0.43808 0.0
N2990 N 0.81682 0.39982 0.48371 0.0
N2991 N 0.84121 0.36959 0.40022 0.0
H2992 H 0.88901 0.37194 0.44608 0.0
H2993 H 0.88208 0.36759 0.41826 0.0
H2994 H 0.83054 0.3726 0.3865 0.0
H2995 H 0.85484 0.35825 0.39738 0.0
H2996 H 0.80057 0.40715 0.48627 0.0
H2997 H 0.82378 0.39292 0.49826 0.0
H2998 H 0.79233 0.42849 0.45921 0.0
H2999 H 0.78424 0.42244 0.43166 0.0
C3000 C 0.85574 0.42911 0.78866 0.0
C3001 C 0.85485 0.40593 0.79511 0.0
C3002 C 0.85119 0.41759 0.83379 0.0
C3003 C 0.85057 0.44071 0.82702 0.0
N3004 N 0.84417 0.46764 0.79736 0.0
N3005 N 0.84949 0.37771 0.82345 0.0
C3006 C 0.85006 0.44614 0.80419 0.0
C3007 C 0.85185 0.4 0.81761 0.0
N3008 N 0.86381 0.43501 0.76827 0.0
N3009 N 0.8522 0.41253 0.85571 0.0
H3010 H 0.85106 0.36447 0.81204 0.0
H3011 H 0.84479 0.37244 0.83925 0.0
H3012 H 0.84913 0.42507 0.86736 0.0
H3013 H 0.85673 0.39654 0.86196 0.0
H3014 H 0.8667 0.45181 0.76365 0.0
H3015 H 0.87055 0.42312 0.75722 0.0
H3016 H 0.842 0.47202 0.78067 0.0
H3017 H 0.83882 0.48024 0.80846 0.0
C3018 C 0.83733 0.62031 0.06779 0.0
C3019 C 0.84201 0.59803 0.06009 0.0
C3020 C 0.80993 0.58409 0.08226 0.0
C3021 C 0.80282 0.60702 0.08625 0.0
N3022 N 0.80797 0.64692 0.07695 0.0
N3023 N 0.83273 0.55834 0.05942 0.0
C3024 C 0.81583 0.62503 0.07737 0.0
C3025 C 0.82848 0.5797 0.06747 0.0
N3026 N 0.85271 0.63745 0.06493 0.0
N3027 N 0.7986 0.56657 0.0919 0.0
H3028 H 0.84705 0.55465 0.04962 0.0
H3029 H 0.82171 0.54468 0.06166 0.0
H3030 H 0.78408 0.56913 0.10148 0.0
H3031 H 0.80433 0.54971 0.09137 0.0
H3032 H 0.84896 0.65428 0.06926 0.0
H3033 H 0.8699 0.63448 0.06076 0.0
H3034 H 0.79208 0.6524 0.0831 0.0
H3035 H 0.79208 0.6524 0.0831 0.0
C3036 C 0.63671 0.57056 0.30193 0.0
C3037 C 0.65057 0.58974 0.30693 0.0
C3038 C 0.66736 0.56995 0.3391 0.0
C3039 C 0.65173 0.55184 0.33564 0.0
N3040 N 0.61926 0.53603 0.31514 0.0
N3041 N 0.67586 0.60961 0.33223 0.0
C3042 C 0.6359 0.55232 0.3173 0.0
C3043 C 0.66489 0.59006 0.32616 0.0
N3044 N 0.62433 0.56972 0.28239 0.0
N3045 N 0.68543 0.5674 0.35379 0.0
H3046 H 0.67446 0.62456 0.32293 0.0
H3047 H 0.6846 0.61146 0.34738 0.0
H3048 H 0.68831 0.55244 0.36277 0.0
H3049 H 0.69861 0.57923 0.35555 0.0
H3050 H 0.6165 0.55506 0.27635 0.0
H3051 H 0.62298 0.58332 0.27136 0.0
H3052 H 0.60572 0.53694 0.30356 0.0
H3053 H 0.61714 0.52285 0.32644 0.0
C3054 C 0.65953 0.42062 0.56283 0.0
C3055 C 0.64289 0.40351 0.55912 0.0
C3056 C 0.66867 0.37494 0.57539 0.0
C3057 C 0.68449 0.3921 0.58095 0.0
N3058 N 0.69875 0.42968 0.57463 0.0
N3059 N 0.62853 0.36646 0.56877 0.0
C3060 C 0.68087 0.41474 0.57355 0.0
C3061 C 0.64642 0.38135 0.56774 0.0
N3062 N 0.65468 0.44231 0.55586 0.0
N3063 N 0.67538 0.35258 0.57581 0.0
H3064 H 0.61131 0.37173 0.56719 0.0
H3065 H 0.63046 0.34972 0.5741 0.0
H3066 H 0.66537 0.33974 0.56877 0.0
H3067 H 0.69171 0.34712 0.58136 0.0
H3068 H 0.66531 0.45617 0.55885 0.0
H3069 H 0.63886 0.44663 0.54827 0.0
H3070 H 0.69827 0.44585 0.56763 0.0
H3071 H 0.71503 0.42509 0.58104 0.0
C3072 C 0.67756 0.88132 0.58752 0.0
C3073 C 0.69288 0.86282 0.58935 0.0
C3074 C 0.67855 0.84826 0.55382 0.0
C3075 C 0.66838 0.87016 0.54974 0.0
N3076 N 0.66113 0.9088 0.56253 0.0
N3077 N 0.70219 0.82455 0.57901 0.0
C3078 C 0.66846 0.88701 0.56655 0.0
C3079 C 0.69145 0.84476 0.57397 0.0
N3080 N 0.67154 0.89333 0.6059 0.0
N3081 N 0.67697 0.83157 0.53806 0.0
H3082 H 0.70983 0.82169 0.59461 0.0
H3083 H 0.70263 0.81044 0.56861 0.0
H3084 H 0.66878 0.83408 0.5227 0.0
H3085 H 0.68373 0.81521 0.53992 0.0
H3086 H 0.65872 0.90582 0.6053 0.0
H3087 H 0.67685 0.88829 0.62182 0.0
H3088 H 0.66464 0.92194 0.57365 0.0
H3089 H 0.65391 0.91434 0.54758 0.0
C3090 C 0.18356 0.62497 0.41005 0.0
C3091 C 0.1998 0.64277 0.40848 0.0
C3092 C 0.18887 0.65703 0.44489 0.0
C3093 C 0.17083 0.64108 0.44521 0.0
N3094 N 0.15085 0.60965 0.42868 0.0
N3095 N 0.21626 0.67743 0.42261 0.0
C3096 C 0.1683 0.62488 0.4281 0.0
C3097 C 0.20187 0.65939 0.42538 0.0
N3098 N 0.18374 0.60711 0.39543 0.0
N3099 N 0.19391 0.66931 0.46359 0.0
H3100 H 0.22569 0.67969 0.40814 0.0
H3101 H 0.21722 0.69108 0.43361 0.0
H3102 H 0.18505 0.66698 0.47839 0.0
H3103 H 0.20818 0.67986 0.46515 0.0
H3104 H 0.17513 0.59196 0.39833 0.0
H3105 H 0.19336 0.60659 0.381 0.0
H3106 H 0.14459 0.60192 0.41431 0.0
H3107 H 0.14229 0.60579 0.44323 0.0
C3108 C 0.61253 0.92599 0.70809 0.0
C3109 C 0.62849 0.90775 0.70471 0.0
C3110 C 0.63248 0.91921 0.66622 0.0
C3111 C 0.62108 0.93997 0.67084 0.0
N3112 N 0.59746 0.96257 0.6951 0.0
N3113 N 0.65722 0.88993 0.68146 0.0
C3114 C 0.61002 0.94309 0.69146 0.0
C3115 C 0.63907 0.90477 0.6839 0.0
N3116 N 0.59979 0.92683 0.72702 0.0
N3117 N 0.63732 0.91329 0.64503 0.0
H3118 H 0.66457 0.88105 0.69475 0.0
H3119 H 0.66675 0.88871 0.66692 0.0
H3120 H 0.63293 0.92384 0.63189 0.0
H3121 H 0.64248 0.8968 0.64082 0.0
H3122 H 0.58661 0.93867 0.72977 0.0
H3123 H 0.60101 0.91436 0.73932 0.0
H3124 H 0.59111 0.96735 0.71051 0.0
H3125 H 0.59386 0.97434 0.68249 0.0
C3126 C 0.31329 0.33473 0.91778 0.0
C3127 C 0.31256 0.35274 0.902 0.0
C3128 C 0.33889 0.37476 0.92487 0.0
C3129 C 0.33932 0.35763 0.94145 0.0
N3130 N 0.32796 0.3204 0.95352 0.0
N3131 N 0.33505 0.38235 0.88569 0.0
C3132 C 0.32724 0.33699 0.93761 0.0
C3133 C 0.32885 0.37021 0.9039 0.0
N3134 N 0.30085 0.31559 0.91346 0.0
N3135 N 0.34626 0.39619 0.9294 0.0
H3136 H 0.32964 0.37789 0.86968 0.0
H3137 H 0.34815 0.39438 0.88632 0.0
H3138 H 0.35341 0.40105 0.94455 0.0
H3139 H 0.34222 0.40968 0.91883 0.0
H3140 H 0.29954 0.30186 0.92421 0.0
H3141 H 0.29252 0.31309 0.89816 0.0
H3142 H 0.31972 0.30484 0.95219 0.0
H3143 H 0.33699 0.32231 0.9685 0.0
C3144 C 0.36692 0.54483 0.68338 0.0
C3145 C 0.38237 0.5491 0.6658 0.0
C3146 C 0.39964 0.58028 0.68673 0.0
C3147 C 0.38327 0.57696 0.70375 0.0
N3148 N 0.34902 0.55818 0.71696 0.0
N3149 N 0.41012 0.57319 0.64841 0.0
C3150 C 0.36652 0.55954 0.70195 0.0
C3151 C 0.39779 0.56753 0.66675 0.0
N3152 N 0.35192 0.52709 0.68189 0.0
N3153 N 0.41743 0.59503 0.69005 0.0
H3154 H 0.40912 0.56395 0.63361 0.0
H3155 H 0.4197 0.58802 0.64723 0.0
H3156 H 0.41964 0.60402 0.70482 0.0
H3157 H 0.43103 0.59685 0.67907 0.0
H3158 H 0.34326 0.52031 0.69534 0.0
H3159 H 0.34841 0.51875 0.66704 0.0
H3160 H 0.33516 0.54713 0.71556 0.0
H3161 H 0.34648 0.56982 0.7297 0.0
C3162 C 0.82981 0.1081 0.05876 0.0
C3163 C 0.84188 0.12795 0.05261 0.0
C3164 C 0.81913 0.15079 0.07884 0.0
C3165 C 0.80653 0.13115 0.08422 0.0
N3166 N 0.80449 0.09021 0.08512 0.0
N3167 N 0.85279 0.16637 0.06107 0.0
C3168 C 0.81346 0.10947 0.07611 0.0
C3169 C 0.83803 0.14877 0.06405 0.0
N3170 N 0.83312 0.0882 0.04737 0.0
N3171 N 0.81265 0.17137 0.08748 0.0
H3172 H 0.86689 0.16499 0.05064 0.0
H3173 H 0.85235 0.1814 0.07022 0.0
H3174 H 0.79969 0.17299 0.09928 0.0
H3175 H 0.8194 0.18683 0.08242 0.0
H3176 H 0.82285 0.07393 0.04931 0.0
H3177 H 0.84519 0.08631 0.0348 0.0
H3178 H 0.81044 0.07385 0.08147 0.0
H3179 H 0.7927 0.09063 0.09801 0.0
C3180 C 0.63827 0.07269 0.81386 0.0
C3181 C 0.61787 0.0861 0.81108 0.0
C3182 C 0.59841 0.06484 0.84009 0.0
C3183 C 0.61824 0.05067 0.84186 0.0
N3184 N 0.65655 0.03928 0.83015 0.0
N3185 N 0.57796 0.09433 0.81941 0.0
C3186 C 0.63813 0.05417 0.82877 0.0
C3187 C 0.59777 0.0821 0.82367 0.0
N3188 N 0.65772 0.07768 0.80215 0.0
N3189 N 0.58046 0.0619 0.85431 0.0
H3190 H 0.5774 0.10819 0.8087 0.0
H3191 H 0.56187 0.09032 0.82575 0.0
H3192 H 0.58055 0.04921 0.86643 0.0
H3193 H 0.56611 0.07271 0.85513 0.0
H3194 H 0.67376 0.06986 0.80461 0.0
H3195 H 0.65852 0.09072 0.79049 0.0
H3196 H 0.67035 0.03901 0.81929 0.0
H3197 H 0.65777 0.02607 0.84162 0.0
C3198 C 0.88625 0.89736 0.32228 0.0
C3199 C 0.89011 0.90287 0.29974 0.0
C3200 C 0.89872 0.94214 0.31021 0.0
C3201 C 0.89356 0.93665 0.33254 0.0
N3202 N 0.88941 0.9084 0.36095 0.0
N3203 N 0.90608 0.92836 0.27292 0.0
C3204 C 0.88991 0.91394 0.33891 0.0
C3205 C 0.89868 0.92454 0.29402 0.0
N3206 N 0.877 0.87702 0.32769 0.0
N3207 N 0.90156 0.96431 0.30407 0.0
H3208 H 0.90547 0.91587 0.26061 0.0
H3209 H 0.91453 0.94308 0.26816 0.0
H3210 H 0.90234 0.97768 0.31539 0.0
H3211 H 0.90205 0.96967 0.28761 0.0
H3212 H 0.86924 0.87409 0.34288 0.0
H3213 H 0.87553 0.86395 0.31627 0.0
H3214 H 0.88872 0.89171 0.36671 0.0
H3215 H 0.89202 0.92045 0.37347 0.0
C3216 C 0.46239 0.32618 0.15765 0.0
C3217 C 0.46209 0.33838 0.13732 0.0
C3218 C 0.42044 0.33419 0.13393 0.0
C3219 C 0.42146 0.31859 0.15165 0.0
N3220 N 0.44 0.30589 0.18516 0.0
N3221 N 0.44184 0.34951 0.10358 0.0
C3222 C 0.44144 0.3168 0.16524 0.0
C3223 C 0.44136 0.34139 0.12478 0.0
N3224 N 0.48296 0.32188 0.16843 0.0
N3225 N 0.39957 0.34179 0.1258 0.0
H3226 H 0.45731 0.35232 0.09548 0.0
H3227 H 0.42727 0.35047 0.09319 0.0
H3228 H 0.3841 0.33784 0.13357 0.0
H3229 H 0.39794 0.3542 0.1135 0.0
H3230 H 0.48473 0.3116 0.18242 0.0
H3231 H 0.49873 0.32757 0.16248 0.0
H3232 H 0.45338 0.30496 0.19689 0.0
H3233 H 0.42432 0.29931 0.19052 0.0
C3234 C 0.40582 0.65064 0.90561 0.0
C3235 C 0.41958 0.64325 0.88796 0.0
C3236 C 0.40935 0.67641 0.8658 0.0
C3237 C 0.3966 0.68499 0.88394 0.0
N3238 N 0.37798 0.6784 0.91899 0.0
N3239 N 0.42549 0.6428 0.84858 0.0
C3240 C 0.39316 0.67141 0.90322 0.0
C3241 C 0.41831 0.65409 0.8671 0.0
N3242 N 0.40502 0.63758 0.92433 0.0
N3243 N 0.41359 0.68974 0.84772 0.0
H3244 H 0.42997 0.62559 0.84914 0.0
H3245 H 0.42386 0.64939 0.83256 0.0
H3246 H 0.40718 0.7063 0.84588 0.0
H3247 H 0.42505 0.68496 0.83531 0.0
H3248 H 0.39611 0.64198 0.93861 0.0
H3249 H 0.41344 0.62176 0.92527 0.0
H3250 H 0.37473 0.66959 0.93354 0.0
H3251 H 0.36759 0.69275 0.91689 0.0
C3252 C 0.0729 0.66127 0.63541 0.0
C3253 C 0.05255 0.66526 0.64805 0.0
C3254 C 0.07048 0.69877 0.6652 0.0
C3255 C 0.09024 0.69526 0.65215 0.0
N3256 N 0.11202 0.67298 0.62633 0.0
N3257 N 0.02977 0.69142 0.66983 0.0
C3258 C 0.09208 0.67618 0.63793 0.0
C3259 C 0.05081 0.68496 0.66165 0.0
N3260 N 0.07355 0.64387 0.62044 0.0
N3261 N 0.07069 0.71534 0.68113 0.0
H3262 H 0.01455 0.68281 0.66595 0.0
H3263 H 0.02686 0.70668 0.67819 0.0
H3264 H 0.08512 0.72549 0.68409 0.0
H3265 H 0.05769 0.71747 0.69276 0.0
H3266 H 0.08844 0.63764 0.61298 0.0
H3267 H 0.0586 0.63676 0.61394 0.0
H3268 H 0.11461 0.66031 0.61459 0.0
H3269 H 0.12652 0.68316 0.62882 0.0
C3270 C 0.07784 0.32315 0.37639 0.0
C3271 C 0.07228 0.30128 0.38433 0.0
C3272 C 0.03389 0.31586 0.39522 0.0
C3273 C 0.03779 0.33579 0.38241 0.0
N3274 N 0.06456 0.36037 0.36399 0.0
N3275 N 0.04792 0.27838 0.40687 0.0
C3276 C 0.06022 0.34014 0.37427 0.0
C3277 C 0.05123 0.29831 0.39578 0.0
N3278 N 0.1001 0.32795 0.37159 0.0
N3279 N 0.01366 0.31351 0.40643 0.0
H3280 H 0.06135 0.26664 0.40927 0.0
H3281 H 0.03241 0.27345 0.41381 0.0
H3282 H -0.00016 0.32495 0.40521 0.0
H3283 H 0.01059 0.30064 0.4178 0.0
H3284 H 0.1061 0.34428 0.36871 0.0
H3285 H 0.11289 0.31548 0.37169 0.0
H3286 H 0.07917 0.36323 0.35453 0.0
H3287 H 0.05317 0.37428 0.36443 0.0
C3288 C 0.44023 0.6845 0.3884 0.0
C3289 C 0.457 0.68018 0.37212 0.0
C3290 C 0.43659 0.70974 0.34921 0.0
C3291 C 0.41849 0.71064 0.36518 0.0
N3292 N 0.39921 0.68746 0.39215 0.0
N3293 N 0.47118 0.68987 0.33584 0.0
C3294 C 0.41888 0.69379 0.38177 0.0
C3295 C 0.45498 0.69286 0.35183 0.0
N3296 N 0.44513 0.68306 0.41051 0.0
N3297 N 0.43665 0.72486 0.33204 0.0
H3298 H 0.48622 0.68025 0.33853 0.0
H3299 H 0.46952 0.69662 0.3199 0.0
H3300 H 0.42261 0.73542 0.32816 0.0
H3301 H 0.4507 0.72699 0.32167 0.0
H3302 H 0.43329 0.68909 0.42214 0.0
H3303 H 0.46127 0.67863 0.41713 0.0
H3304 H 0.39949 0.67499 0.40447 0.0
H3305 H 0.38284 0.69295 0.38662 0.0
C3306 C 0.03911 0.67388 0.13946 0.0
C3307 C 0.03852 0.65368 0.12651 0.0
C3308 C 0.06941 0.66828 0.10284 0.0
C3309 C 0.06943 0.68881 0.11542 0.0
N3310 N 0.05204 0.71282 0.14313 0.0
N3311 N 0.05394 0.63021 0.0974 0.0
C3312 C 0.05383 0.69196 0.13319 0.0
C3313 C 0.05393 0.65051 0.10857 0.0
N3314 N 0.02544 0.6758 0.15774 0.0
N3315 N 0.08394 0.66609 0.08519 0.0
H3316 H 0.04342 0.61674 0.1018 0.0
H3317 H 0.06484 0.62598 0.08443 0.0
H3318 H 0.09541 0.67869 0.08055 0.0
H3319 H 0.08472 0.65212 0.07465 0.0
H3320 H 0.02703 0.68864 0.16955 0.0
H3321 H 0.01328 0.66371 0.16205 0.0
H3322 H 0.03948 0.71724 0.1546 0.0
H3323 H 0.06193 0.72661 0.13847 0.0
C3324 C 0.08204 0.31155 0.87491 0.0
C3325 C 0.0996 0.31324 0.8588 0.0
C3326 C 0.07839 0.34395 0.84004 0.0
C3327 C 0.05989 0.34064 0.85509 0.0
N3328 N 0.0423 0.31956 0.88453 0.0
N3329 N 0.11712 0.33252 0.82842 0.0
C3330 C 0.06126 0.32408 0.872 0.0
C3331 C 0.09863 0.33004 0.84208 0.0
N3332 N 0.08559 0.29839 0.89337 0.0
N3333 N 0.07602 0.35963 0.82332 0.0
H3334 H 0.13218 0.32266 0.83017 0.0
H3335 H 0.11834 0.34484 0.81613 0.0
H3336 H 0.06108 0.36941 0.82073 0.0
H3337 H 0.0884 0.3628 0.81144 0.0
H3338 H 0.07447 0.29816 0.90681 0.0
H3339 H 0.10099 0.28956 0.89638 0.0
H3340 H 0.04131 0.3057 0.89521 0.0
H3341 H 0.0267 0.32859 0.88297 0.0
C3342 C 0.40059 0.3174 0.62448 0.0
C3343 C 0.40034 0.29862 0.6096 0.0
C3344 C 0.42073 0.3205 0.58175 0.0
C3345 C 0.42324 0.338 0.5975 0.0
N3346 N 0.40818 0.35762 0.62937 0.0
N3347 N 0.41149 0.28107 0.57487 0.0
C3348 C 0.41068 0.33793 0.61748 0.0
C3349 C 0.41026 0.29996 0.58817 0.0
N3350 N 0.39165 0.31544 0.6453 0.0
N3351 N 0.42874 0.32383 0.56079 0.0
H3352 H 0.40549 0.26517 0.57957 0.0
H3353 H 0.42018 0.2805 0.55988 0.0
H3354 H 0.43631 0.33916 0.55626 0.0
H3355 H 0.42608 0.31263 0.54763 0.0
H3356 H 0.39276 0.32789 0.65753 0.0
H3357 H 0.38429 0.30063 0.65121 0.0
H3358 H 0.39955 0.35903 0.64433 0.0
H3359 H 0.41227 0.37341 0.62272 0.0
C3360 C 0.14548 0.39429 0.32841 0.0
C3361 C 0.16322 0.39445 0.31255 0.0
C3362 C 0.17201 0.43399 0.32212 0.0
C3363 C 0.15257 0.43455 0.33614 0.0
N3364 N 0.11736 0.41694 0.34807 0.0
N3365 N 0.1989 0.41089 0.30093 0.0
C3366 C 0.13842 0.41511 0.33824 0.0
C3367 C 0.17829 0.41325 0.31153 0.0
N3368 N 0.13595 0.37419 0.3346 0.0
N3369 N 0.183 0.45377 0.31724 0.0
H3370 H 0.20441 0.39529 0.29446 0.0
H3371 H 0.21154 0.42336 0.30087 0.0
H3372 H 0.17744 0.46953 0.32327 0.0
H3373 H 0.19592 0.45501 0.30547 0.0
H3374 H 0.124 0.37294 0.34728 0.0
H3375 H 0.1425 0.35852 0.32927 0.0
H3376 H 0.1055 0.40376 0.34851 0.0
H3377 H 0.11051 0.43251 0.35303 0.0
C3378 C 0.34034 0.41524 0.06776 0.0
C3379 C 0.34435 0.39393 0.05735 0.0
C3380 C 0.31117 0.37779 0.07578 0.0
C3381 C 0.30763 0.39864 0.08711 0.0
N3382 N 0.32029 0.43635 0.0966 0.0
N3383 N 0.33763 0.35337 0.05611 0.0
C3384 C 0.32269 0.41717 0.08394 0.0
C3385 C 0.33119 0.37468 0.063 0.0
N3386 N 0.3532 0.43357 0.06189 0.0
N3387 N 0.29469 0.36135 0.07611 0.0
H3388 H 0.35202 0.35008 0.04641 0.0
H3389 H 0.32999 0.33859 0.06193 0.0
H3390 H 0.27942 0.36316 0.08485 0.0
H3391 H 0.29503 0.34704 0.06589 0.0
H3392 H 0.34971 0.45014 0.06709 0.0
H3393 H 0.36703 0.4322 0.05102 0.0
H3394 H 0.33217 0.44951 0.09686 0.0
H3395 H 0.30704 0.43845 0.10802 0.0
C3396 C 0.34185 0.54667 0.81921 0.0
C3397 C 0.35374 0.55255 0.83901 0.0
C3398 C 0.34991 0.59266 0.82942 0.0
C3399 C 0.34215 0.58664 0.8077 0.0
N3400 N 0.33813 0.55564 0.78068 0.0
N3401 N 0.37239 0.58179 0.86115 0.0
C3402 C 0.3396 0.56308 0.80217 0.0
C3403 C 0.35853 0.57557 0.84378 0.0
N3404 N 0.33363 0.52516 0.81611 0.0
N3405 N 0.35074 0.61488 0.83593 0.0
H3406 H 0.38116 0.57022 0.87146 0.0
H3407 H 0.38116 0.57022 0.87146 0.0
H3408 H 0.34397 0.62805 0.82616 0.0
H3409 H 0.35682 0.61976 0.85163 0.0
H3410 H 0.32308 0.52082 0.80259 0.0
H3411 H 0.33543 0.51232 0.82798 0.0
H3412 H 0.3393 0.53846 0.77643 0.0
H3413 H 0.33861 0.56591 0.76678 0.0
C3414 C 0.18941 0.59717 0.5554 0.0
C3415 C 0.18509 0.61078 0.57434 0.0
C3416 C 0.14658 0.61996 0.55909 0.0
C3417 C 0.15319 0.61153 0.53804 0.0
N3418 N 0.18304 0.5931 0.51592 0.0
N3419 N 0.16023 0.63799 0.59261 0.0
C3420 C 0.17495 0.59985 0.53613 0.0
C3421 C 0.16372 0.62273 0.57593 0.0
N3422 N 0.2078 0.58235 0.55553 0.0
N3423 N 0.12396 0.62541 0.56298 0.0
H3424 H 0.17281 0.64153 0.60454 0.0
H3425 H 0.14572 0.6486 0.59321 0.0
H3426 H 0.11085 0.62273 0.55117 0.0
H3427 H 0.11803 0.63003 0.57864 0.0
H3428 H 0.2105 0.57034 0.54305 0.0
H3429 H 0.21901 0.58055 0.56918 0.0
H3430 H 0.19979 0.58686 0.51368 0.0
H3431 H 0.17423 0.59559 0.50095 0.0
C3432 C 0.16399 0.5773 0.16898 0.0
C3433 C 0.14961 0.55817 0.17212 0.0
C3434 C 0.1324 0.57682 0.20466 0.0
C3435 C 0.14592 0.59643 0.20069 0.0
N3436 N 0.17151 0.61708 0.17727 0.0
N3437 N 0.12022 0.53916 0.19304 0.0
C3438 C 0.16079 0.59719 0.18227 0.0
C3439 C 0.13386 0.55777 0.19005 0.0
N3440 N 0.18166 0.5759 0.15421 0.0
N3441 N 0.11838 0.57637 0.22274 0.0
H3442 H 0.12123 0.52453 0.18333 0.0
H3443 H 0.10668 0.53837 0.20414 0.0
H3444 H 0.11535 0.59052 0.23277 0.0
H3445 H 0.11001 0.56199 0.22836 0.0
H3446 H 0.19422 0.58831 0.15261 0.0
H3447 H 0.1848 0.56138 0.1447 0.0
H3448 H 0.18067 0.61957 0.16273 0.0
H3449 H 0.16944 0.63178 0.18681 0.0
C3450 C 0.19934 0.42034 0.9254 0.0
C3451 C 0.19695 0.40271 0.90939 0.0
C3452 C 0.15915 0.39303 0.92455 0.0
C3453 C 0.16169 0.41013 0.94094 0.0
N3454 N 0.18135 0.4432 0.95444 0.0
N3455 N 0.17246 0.37604 0.89106 0.0
C3456 C 0.1809 0.42491 0.94041 0.0
C3457 C 0.17614 0.39054 0.90809 0.0
N3458 N 0.21939 0.43232 0.92653 0.0
N3459 N 0.14164 0.37764 0.92562 0.0
H3460 H 0.1842 0.37312 0.87864 0.0
H3461 H 0.157 0.36778 0.8887 0.0
H3462 H 0.12674 0.37988 0.93464 0.0
H3463 H 0.14221 0.36165 0.91824 0.0
H3464 H 0.22357 0.44361 0.93925 0.0
H3465 H 0.23224 0.43043 0.91474 0.0
H3466 H 0.19397 0.45566 0.95427 0.0
H3467 H 0.16778 0.44683 0.96519 0.0
C3468 C 0.36372 0.43983 0.67223 0.0
C3469 C 0.34469 0.44239 0.65718 0.0
C3470 C 0.3282 0.40662 0.66997 0.0
C3471 C 0.34657 0.40483 0.68566 0.0
N3472 N 0.38485 0.41549 0.69799 0.0
N3473 N 0.30814 0.42986 0.64218 0.0
C3474 C 0.3652 0.42026 0.68575 0.0
C3475 C 0.32685 0.42606 0.65593 0.0
N3476 N 0.38026 0.45626 0.67382 0.0
N3477 N 0.31249 0.3895 0.66836 0.0
H3478 H 0.30651 0.44426 0.63211 0.0
H3479 H 0.29364 0.41957 0.64147 0.0
H3480 H 0.31304 0.37547 0.67894 0.0
H3481 H 0.29995 0.38835 0.65585 0.0
H3482 H 0.39236 0.45722 0.68675 0.0
H3483 H 0.38148 0.46976 0.66275 0.0
H3484 H 0.40004 0.42473 0.69713 0.0
H3485 H 0.38698 0.40083 0.70753 0.0
C3486 C 0.34755 0.5831 0.42375 0.0
C3487 C 0.35008 0.59973 0.44046 0.0
C3488 C 0.3148 0.61952 0.42766 0.0
C3489 C 0.31128 0.60171 0.41211 0.0
N3490 N 0.3215 0.56472 0.39773 0.0
N3491 N 0.33762 0.63457 0.45821 0.0
C3492 C 0.32699 0.58307 0.41062 0.0
C3493 C 0.33422 0.61833 0.44222 0.0
N3494 N 0.36497 0.56763 0.4203 0.0
N3495 N 0.29945 0.63742 0.42849 0.0
H3496 H 0.35258 0.63528 0.46795 0.0
H3497 H 0.32585 0.64737 0.46223 0.0
H3498 H 0.284 0.6379 0.41944 0.0
H3499 H 0.30188 0.65218 0.43771 0.0
H3500 H 0.36526 0.55648 0.40685 0.0
H3501 H 0.38022 0.56747 0.42982 0.0
H3502 H 0.33123 0.5497 0.39744 0.0
H3503 H 0.30596 0.56374 0.38879 0.0
C3504 C 0.31009 0.11216 0.41826 0.0
C3505 C 0.30805 0.13173 0.40478 0.0
C3506 C 0.32638 0.15459 0.43388 0.0
C3507 C 0.32539 0.13549 0.44818 0.0
N3508 N 0.31055 0.09828 0.45586 0.0
N3509 N 0.31553 0.17109 0.39799 0.0
C3510 C 0.31548 0.11492 0.44093 0.0
C3511 C 0.31677 0.15288 0.41205 0.0
N3512 N 0.30683 0.09098 0.40946 0.0
N3513 N 0.33626 0.17419 0.44141 0.0
H3514 H 0.30969 0.16942 0.38156 0.0
H3515 H 0.32014 0.18757 0.40234 0.0
H3516 H 0.34197 0.176 0.45784 0.0
H3517 H 0.33918 0.18836 0.43156 0.0
H3518 H 0.30982 0.07605 0.41845 0.0
H3519 H 0.30411 0.08825 0.39254 0.0
H3520 H 0.30148 0.08365 0.45162 0.0
H3521 H 0.31316 0.10039 0.47291 0.0
C3522 C 0.82958 0.37422 0.56456 0.0
C3523 C 0.83146 0.35337 0.55294 0.0
C3524 C 0.80472 0.33535 0.57846 0.0
C3525 C 0.8035 0.35597 0.59031 0.0
N3526 N 0.81796 0.39307 0.59849 0.0
N3527 N 0.81484 0.31709 0.54386 0.0
C3528 C 0.81716 0.37473 0.58456 0.0
C3529 C 0.81746 0.33462 0.5586 0.0
N3530 N 0.83785 0.39381 0.55569 0.0
N3531 N 0.7937 0.31662 0.58623 0.0
H3532 H 0.82223 0.31727 0.52815 0.0
H3533 H 0.80331 0.30383 0.54597 0.0
H3534 H 0.78461 0.31682 0.60104 0.0
H3535 H 0.79549 0.30046 0.57932 0.0
H3536 H 0.83423 0.40985 0.56217 0.0
H3537 H 0.84544 0.39456 0.54019 0.0
H3538 H 0.82872 0.4068 0.59614 0.0
H3539 H 0.8093 0.3934 0.61359 0.0
C3540 C 0.39477 0.08966 0.32051 0.0
C3541 C 0.37681 0.09158 0.30426 0.0
C3542 C 0.36103 0.05547 0.31598 0.0
C3543 C 0.37627 0.05549 0.33454 0.0
N3544 N 0.40828 0.07164 0.35483 0.0
N3545 N 0.34048 0.07815 0.28877 0.0
C3546 C 0.39349 0.07227 0.3369 0.0
C3547 C 0.35914 0.0751 0.30276 0.0
N3548 N 0.41289 0.10434 0.32013 0.0
N3549 N 0.34971 0.03607 0.30994 0.0
H3550 H 0.33799 0.09261 0.27895 0.0
H3551 H 0.32631 0.06734 0.28863 0.0
H3552 H 0.3521 0.02067 0.3183 0.0
H3553 H 0.34034 0.03455 0.29509 0.0
H3554 H 0.42767 0.10271 0.33011 0.0
H3555 H 0.41336 0.11809 0.30924 0.0
H3556 H 0.42115 0.08347 0.35779 0.0
H3557 H 0.40727 0.05944 0.36733 0.0
C3558 C 0.65927 0.62149 0.07117 0.0
C3559 C 0.65738 0.63976 0.05561 0.0
C3560 C 0.68048 0.66344 0.08142 0.0
C3561 C 0.68347 0.64438 0.09569 0.0
N3562 N 0.66519 0.61085 0.10963 0.0
N3563 N 0.66308 0.67956 0.04767 0.0
C3564 C 0.66945 0.62519 0.09238 0.0
C3565 C 0.66669 0.66138 0.06149 0.0
N3566 N 0.65207 0.60024 0.06563 0.0
N3567 N 0.69057 0.68349 0.08737 0.0
H3568 H 0.65303 0.67867 0.03325 0.0
H3569 H 0.66934 0.69581 0.0505 0.0
H3570 H 0.69864 0.68561 0.10286 0.0
H3571 H 0.69047 0.69814 0.07773 0.0
H3572 H 0.65572 0.58585 0.07524 0.0
H3573 H 0.64416 0.59674 0.05057 0.0
H3574 H 0.65395 0.59717 0.10836 0.0
H3575 H 0.67 0.61471 0.12596 0.0
C3576 C 0.59891 0.44266 0.3234 0.0
C3577 C 0.61455 0.43947 0.34139 0.0
C3578 C 0.63814 0.4135 0.31969 0.0
C3579 C 0.62301 0.4169 0.30111 0.0
N3580 N 0.58717 0.43232 0.28592 0.0
N3581 N 0.64352 0.41643 0.35953 0.0
C3582 C 0.60251 0.43039 0.30331 0.0
C3583 C 0.63192 0.42255 0.34052 0.0
N3584 N 0.58172 0.4587 0.32524 0.0
N3585 N 0.65928 0.40324 0.31726 0.0
H3586 H 0.64006 0.42424 0.37465 0.0
H3587 H 0.65483 0.4025 0.36054 0.0
H3588 H 0.66577 0.39867 0.30193 0.0
H3589 H 0.6716 0.40182 0.33001 0.0
H3590 H 0.57117 0.46423 0.31212 0.0
H3591 H 0.57852 0.46696 0.34027 0.0
H3592 H 0.57119 0.44057 0.28683 0.0
H3593 H 0.58999 0.42465 0.27063 0.0
C3594 C 0.19241 0.88389 0.93373 0.0
C3595 C 0.19236 0.86693 0.91697 0.0
C3596 C 0.15827 0.84973 0.93337 0.0
C3597 C 0.15657 0.86843 0.94818 0.0
N3598 N 0.17039 0.90497 0.96082 0.0
N3599 N 0.17461 0.83457 0.89943 0.0
C3600 C 0.17315 0.88602 0.94786 0.0
C3601 C 0.17506 0.85008 0.91633 0.0
N3602 N 0.21143 0.8972 0.93698 0.0
N3603 N 0.14462 0.83121 0.93628 0.0
H3604 H 0.187 0.83418 0.887 0.0
H3605 H 0.16106 0.82333 0.89677 0.0
H3606 H 0.13271 0.83028 0.94905 0.0
H3607 H 0.14648 0.81611 0.92739 0.0
H3608 H 0.21354 0.90784 0.95068 0.0
H3609 H 0.22618 0.89599 0.92728 0.0
H3610 H 0.18058 0.91938 0.95937 0.0
H3611 H 0.15653 0.90731 0.97149 0.0
C3612 C 0.39964 0.94121 0.16375 0.0
C3613 C 0.38143 0.94451 0.14812 0.0
C3614 C 0.36337 0.90984 0.1604 0.0
C3615 C 0.37934 0.90856 0.17837 0.0
N3616 N 0.40893 0.9271 0.20039 0.0
N3617 N 0.34206 0.93578 0.1369 0.0
C3618 C 0.39678 0.92514 0.18087 0.0
C3619 C 0.36231 0.92972 0.1475 0.0
N3620 N 0.41909 0.95411 0.16282 0.0
N3621 N 0.34837 0.89264 0.1563 0.0
H3622 H 0.33952 0.95118 0.1287 0.0
H3623 H 0.32681 0.92666 0.13842 0.0
H3624 H 0.34932 0.87759 0.16511 0.0
H3625 H 0.33709 0.89241 0.14264 0.0
H3626 H 0.43353 0.95121 0.17309 0.0
H3627 H 0.42146 0.96622 0.15041 0.0
H3628 H 0.4196 0.94085 0.20392 0.0
H3629 H 0.40687 0.91605 0.21374 0.0
C3630 C 0.11845 0.06703 0.7112 0.0
C3631 C 0.10967 0.08943 0.70921 0.0
C3632 C 0.09832 0.08151 0.67046 0.0
C3633 C 0.11158 0.06105 0.67173 0.0
N3634 N 0.13813 0.03663 0.69248 0.0
N3635 N 0.08296 0.11462 0.68998 0.0
C3636 C 0.12253 0.05431 0.69191 0.0
C3637 C 0.09708 0.09586 0.68966 0.0
N3638 N 0.12215 0.05764 0.7317 0.0
N3639 N 0.08743 0.08722 0.6509 0.0
H3640 H 0.07998 0.1238 0.70442 0.0
H3641 H 0.07282 0.12025 0.67663 0.0
H3642 H 0.08789 0.07668 0.63694 0.0
H3643 H 0.07861 0.10248 0.64804 0.0
H3644 H 0.12692 0.04063 0.73405 0.0
H3645 H 0.1173 0.06607 0.74618 0.0
H3646 H 0.14805 0.03254 0.70655 0.0
H3647 H 0.14327 0.02794 0.67829 0.0
C3648 C 0.94598 0.09751 0.3072 0.0
C3649 C 0.96886 0.10489 0.30542 0.0
C3650 C 0.95786 0.12006 0.26812 0.0
C3651 C 0.9337 0.11818 0.27304 0.0
N3652 N 0.90731 0.11098 0.30389 0.0
N3653 N 0.99709 0.12391 0.28341 0.0
C3654 C 0.92841 0.10828 0.29431 0.0
C3655 C 0.97506 0.11631 0.28557 0.0
N3656 N 0.94066 0.08134 0.32252 0.0
N3657 N 0.96471 0.12434 0.24698 0.0
H3658 H 0.00992 0.12071 0.29543 0.0
H3659 H 0.0021 0.13429 0.27036 0.0
H3660 H 0.95324 0.12559 0.23357 0.0
H3661 H 0.98203 0.12397 0.2424 0.0
H3662 H 0.92422 0.07429 0.32345 0.0
H3663 H 0.95336 0.0734 0.33241 0.0
H3664 H 0.90355 0.10458 0.31955 0.0
H3665 H 0.89508 0.12278 0.29853 0.0
C3666 C 0.12966 0.70373 0.54887 0.0
C3667 C 0.12635 0.71395 0.52779 0.0
C3668 C 0.13668 0.75098 0.54339 0.0
C3669 C 0.14167 0.74013 0.56409 0.0
N3670 N 0.15198 0.70499 0.58283 0.0
N3671 N 0.13193 0.74598 0.50354 0.0
C3672 C 0.14101 0.7161 0.56564 0.0
C3673 C 0.13161 0.73718 0.52453 0.0
N3674 N 0.12201 0.68228 0.55311 0.0
N3675 N 0.13568 0.77414 0.54173 0.0
H3676 H 0.12747 0.73647 0.4895 0.0
H3677 H 0.13819 0.76212 0.50004 0.0
H3678 H 0.13929 0.78507 0.55488 0.0
H3679 H 0.1296 0.78256 0.52753 0.0
H3680 H 0.12203 0.67543 0.56908 0.0
H3681 H 0.11346 0.6723 0.54139 0.0
H3682 H 0.15354 0.68732 0.58357 0.0
H3683 H 0.162 0.71345 0.59471 0.0
C3684 C 0.54104 0.85637 0.78797 0.0
C3685 C 0.52807 0.87649 0.7828 0.0
C3686 C 0.55123 0.88214 0.74941 0.0
C3687 C 0.56566 0.86355 0.75609 0.0
N3688 N 0.57169 0.82972 0.77792 0.0
N3689 N 0.51734 0.90606 0.75707 0.0
C3690 C 0.5596 0.84959 0.77418 0.0
C3691 C 0.53193 0.88848 0.76281 0.0
N3692 N 0.53591 0.84418 0.80655 0.0
N3693 N 0.5566 0.89403 0.73073 0.0
H3694 H 0.50319 0.91068 0.76673 0.0
H3695 H 0.51839 0.91541 0.74249 0.0
H3696 H 0.57 0.88895 0.72035 0.0
H3697 H 0.54806 0.90874 0.72538 0.0
H3698 H 0.54649 0.8315 0.81344 0.0
H3699 H 0.52078 0.84696 0.81536 0.0
H3700 H 0.56774 0.81783 0.79002 0.0
H3701 H 0.585 0.82416 0.76766 0.0
C3702 C 0.36658 0.27463 0.038 0.0
C3703 C 0.38385 0.27294 0.05514 0.0
C3704 C 0.40682 0.3016 0.03585 0.0
C3705 C 0.38998 0.30285 0.01853 0.0
N3706 N 0.35756 0.28578 -0.00012 0.0
N3707 N 0.42401 0.27869 0.06515 0.0
C3708 C 0.37118 0.2876 0.01848 0.0
C3709 C 0.40513 0.28448 0.05235 0.0
N3710 N 0.34521 0.2655 0.04085 0.0
N3711 N 0.42409 0.31723 0.03705 0.0
H3712 H 0.42397 0.26499 0.07614 0.0
H3713 H 0.44035 0.28552 0.06284 0.0
H3714 H 0.42667 0.32931 0.02472 0.0
H3715 H 0.43487 0.31902 0.05097 0.0
H3716 H 0.33139 0.26839 0.02987 0.0
H3717 H 0.34049 0.25677 0.05505 0.0
H3718 H 0.34467 0.27365 0.99805 0.0
H3719 H 0.36103 0.29478 0.98541 0.0
C3720 C 0.97011 0.88069 0.20798 0.0
C3721 C 0.97413 0.86266 0.19257 0.0
C3722 C 0.94936 0.83769 0.21528 0.0
C3723 C 0.94276 0.85648 0.22864 0.0
N3724 N 0.94833 0.89523 0.23963 0.0
N3725 N 0.96724 0.82374 0.18174 0.0
C3726 C 0.95387 0.87773 0.22566 0.0
C3727 C 0.96383 0.84106 0.19651 0.0
N3728 N 0.98131 0.90084 0.20536 0.0
N3729 N 0.94189 0.81644 0.22064 0.0
H3730 H 0.97988 0.82425 0.1697 0.0
H3731 H 0.95711 0.80922 0.18098 0.0
H3732 H 0.93129 0.8134 0.23413 0.0
H3733 H 0.9477 0.80157 0.21305 0.0
H3734 H 0.98074 0.91422 0.21664 0.0
H3735 H 0.99224 0.90401 0.19217 0.0
H3736 H 0.95334 0.912 0.23754 0.0
H3737 H 0.93828 0.89275 0.25365 0.0
C3738 C 0.36741 0.7064 0.45814 0.0
C3739 C 0.37664 0.72735 0.4651 0.0
C3740 C 0.39507 0.70744 0.49695 0.0
C3741 C 0.38979 0.68582 0.4871 0.0
N3742 N 0.37868 0.66816 0.45122 0.0
N3743 N 0.40121 0.74778 0.49046 0.0
C3744 C 0.37814 0.68609 0.46573 0.0
C3745 C 0.39088 0.72789 0.48445 0.0
N3746 N 0.34937 0.70549 0.44323 0.0
N3747 N 0.40485 0.70889 0.51767 0.0
H3748 H 0.39758 0.76314 0.48234 0.0
H3749 H 0.41416 0.74874 0.50265 0.0
H3750 H 0.41223 0.69522 0.52621 0.0
H3751 H 0.4054 0.72412 0.52655 0.0
H3752 H 0.34148 0.69021 0.43884 0.0
H3753 H 0.34013 0.71976 0.43777 0.0
H3754 H 0.37135 0.6691 0.43531 0.0
H3755 H 0.38937 0.654 0.45243 0.0
C3756 C 0.55674 0.1045 0.7467 0.0
C3757 C 0.55715 0.12724 0.75418 0.0
C3758 C 0.52287 0.13567 0.73106 0.0
C3759 C 0.52547 0.11384 0.72073 0.0
N3760 N 0.54852 0.07947 0.71622 0.0
N3761 N 0.54063 0.16486 0.75435 0.0
C3762 C 0.54346 0.09885 0.7278 0.0
C3763 C 0.53987 0.14288 0.74698 0.0
N3764 N 0.56862 0.08808 0.7582 0.0
N3765 N 0.50507 0.14997 0.72489 0.0
H3766 H 0.5524 0.17009 0.76659 0.0
H3767 H 0.53036 0.17803 0.74793 0.0
H3768 H 0.49373 0.14675 0.71172 0.0
H3769 H 0.50085 0.1648 0.73345 0.0
H3770 H 0.56812 0.07085 0.75412 0.0
H3771 H 0.57581 0.09154 0.77373 0.0
H3772 H 0.56368 0.07 0.719 0.0
H3773 H 0.53845 0.07367 0.70299 0.0
C3774 C 0.12677 0.31267 0.95445 0.0
C3775 C 0.12784 0.30977 0.97801 0.0
C3776 C 0.14072 0.26961 0.97007 0.0
C3777 C 0.14279 0.27482 0.94707 0.0
N3778 N 0.14583 0.30532 0.92047 0.0
N3779 N 0.13922 0.28418 0.00801 0.0
C3780 C 0.13845 0.29755 0.9405 0.0
C3781 C 0.13573 0.28777 0.98585 0.0
N3782 N 0.11465 0.32987 0.94443 0.0
N3783 N 0.14293 0.24755 0.97683 0.0
H3784 H 0.1356 0.29643 0.01994 0.0
H3785 H 0.1472 0.26953 0.01438 0.0
H3786 H 0.14683 0.23441 0.96581 0.0
H3787 H 0.13943 0.24225 0.99293 0.0
H3788 H 0.10877 0.32867 0.92797 0.0
H3789 H 0.1123 0.34567 0.95126 0.0
H3790 H 0.14295 0.32194 0.91497 0.0
H3791 H 0.1568 0.29583 0.9104 0.0
C3792 C 0.28674 0.97949 0.14144 0.0
C3793 C 0.2863 0.99001 0.12008 0.0
C3794 C 0.25232 0.96657 0.1102 0.0
C3795 C 0.25497 0.95412 0.13047 0.0
N3796 N 0.27589 0.94774 0.16476 0.0
N3797 N 0.26816 0.99406 0.08415 0.0
C3798 C 0.27234 0.96054 0.14602 0.0
C3799 C 0.26863 0.98396 0.10458 0.0
N3800 N 0.30096 0.98805 0.1576 0.0
N3801 N 0.23438 0.96134 0.09616 0.0
H3802 H 0.27922 0.00724 0.08007 0.0
H3803 H 0.25745 0.98914 0.07102 0.0
H3804 H 0.22261 0.94864 0.09978 0.0
H3805 H 0.23017 0.97029 0.08174 0.0
H3806 H 0.30108 0.98273 0.17409 0.0
H3807 H 0.31095 0.0023 0.15477 0.0
H3808 H 0.29033 0.94924 0.17518 0.0
H3809 H 0.26496 0.93457 0.16928 0.0
C3810 C 0.27528 0.01112 0.39354 0.0
C3811 C 0.29209 0.0053 0.37753 0.0
C3812 C 0.27239 0.03067 0.35033 0.0
C3813 C 0.25841 0.0395 0.36743 0.0
N3814 N 0.24186 0.0348 0.40331 0.0
N3815 N 0.30599 0.0081 0.34014 0.0
C3816 C 0.25834 0.02852 0.38846 0.0
C3817 C 0.29011 0.01437 0.35562 0.0
N3818 N 0.27602 0.00033 0.41363 0.0
N3819 N 0.26835 0.03767 0.32897 0.0
H3820 H 0.31814 0.99516 0.34302 0.0
H3821 H 0.30769 0.01605 0.32484 0.0
H3822 H 0.25491 0.04897 0.32477 0.0
H3823 H 0.27671 0.03094 0.31522 0.0
H3824 H 0.26474 0.00362 0.42655 0.0
H3825 H 0.28789 0.98724 0.41713 0.0
H3826 H 0.24086 0.02867 0.41945 0.0
H3827 H 0.22825 0.04573 0.39876 0.0
C3828 C 0.21068 0.02071 0.64922 0.0
C3829 C 0.20742 0.01255 0.62721 0.0
C3830 C 0.24108 0.03414 0.6155 0.0
C3831 C 0.24101 0.04557 0.63632 0.0
N3832 N 0.22542 0.05065 0.67281 0.0
N3833 N 0.22064 0.00925 0.58966 0.0
C3834 C 0.22609 0.03874 0.65332 0.0
C3835 C 0.2234 0.0181 0.61052 0.0
N3836 N 0.19874 0.01125 0.66616 0.0
N3837 N 0.25744 0.03949 0.60031 0.0
H3838 H 0.20831 0.99701 0.58586 0.0
H3839 H 0.2301 0.01421 0.57597 0.0
H3840 H 0.27 0.05165 0.60353 0.0
H3841 H 0.25961 0.03108 0.58526 0.0
H3842 H 0.20138 0.01533 0.68283 0.0
H3843 H 0.18817 0.99733 0.66361 0.0
H3844 H 0.21241 0.04893 0.68445 0.0
H3845 H 0.23732 0.06326 0.67677 0.0
C3846 C 0.23748 0.95723 0.90051 0.0
C3847 C 0.24662 0.95349 0.8789 0.0
C3848 C 0.22346 0.98587 0.86474 0.0
C3849 C 0.21337 0.98848 0.88597 0.0
N3850 N 0.21564 0.98187 0.92524 0.0
N3851 N 0.25339 0.96823 0.84226 0.0
C3852 C 0.22222 0.97598 0.90428 0.0
C3853 C 0.24146 0.9693 0.86164 0.0
N3854 N 0.24245 0.94212 0.91722 0.0
N3855 N 0.21503 0.99857 0.84736 0.0
H3856 H 0.26644 0.95623 0.8395 0.0
H3857 H 0.25174 0.98029 0.82967 0.0
H3858 H 0.20291 0.01167 0.84952 0.0
H3859 H 0.21933 0.9957 0.83086 0.0
H3860 H 0.23407 0.94206 0.93238 0.0
H3861 H 0.25424 0.92871 0.91554 0.0
H3862 H 0.22266 0.97461 0.93964 0.0
H3863 H 0.20459 0.99565 0.92831 0.0
C3864 C 0.63657 0.23408 0.02463 0.0
C3865 C 0.62076 0.21603 0.02707 0.0
C3866 C 0.61562 0.22604 0.06575 0.0
C3867 C 0.6345 0.24119 0.06452 0.0
N3868 N 0.66531 0.25735 0.04296 0.0
N3869 N 0.60159 0.19038 0.05231 0.0
C3870 C 0.64553 0.2449 0.04394 0.0
C3871 C 0.61178 0.2108 0.04818 0.0
N3872 N 0.64324 0.2406 0.00392 0.0
N3873 N 0.60133 0.226 0.08364 0.0
H3874 H 0.60024 0.17727 0.04078 0.0
H3875 H 0.59701 0.18538 0.06824 0.0
H3876 H 0.60271 0.23752 0.09674 0.0
H3877 H 0.58645 0.21616 0.08415 0.0
H3878 H 0.65326 0.25489 0.00107 0.0
H3879 H 0.63688 0.23297 0.98945 0.0
H3880 H 0.67534 0.2583 0.02878 0.0
H3881 H 0.67296 0.26508 0.05674 0.0
C3882 C 0.07197 0.38573 0.27642 0.0
C3883 C 0.07094 0.36836 0.25996 0.0
C3884 C 0.02953 0.36387 0.26747 0.0
C3885 C 0.03176 0.37862 0.28605 0.0
N3886 N 0.05717 0.39905 0.3113 0.0
N3887 N 0.04882 0.33931 0.24099 0.0
C3888 C 0.05342 0.38857 0.29127 0.0
C3889 C 0.04965 0.35718 0.25553 0.0
N3890 N 0.09067 0.39971 0.27796 0.0
N3891 N 0.00812 0.35625 0.26129 0.0
H3892 H 0.06288 0.33384 0.23173 0.0
H3893 H 0.03461 0.32872 0.23924 0.0
H3894 H 0.99312 0.36081 0.26972 0.0
H3895 H 0.00489 0.34714 0.24675 0.0
H3896 H 0.09103 0.41407 0.28814 0.0
H3897 H 0.10485 0.39847 0.26756 0.0
H3898 H 0.07351 0.40407 0.31681 0.0
H3899 H 0.04481 0.40051 0.32363 0.0
C3900 C 0.86725 0.80883 0.53675 0.0
C3901 C 0.88309 0.80447 0.51922 0.0
C3902 C 0.89156 0.76685 0.53643 0.0
C3903 C 0.87914 0.77366 0.55565 0.0
N3904 N 0.85695 0.80243 0.57487 0.0
N3905 N 0.90715 0.77708 0.50024 0.0
C3906 C 0.86744 0.79495 0.55594 0.0
C3907 C 0.89418 0.78264 0.51826 0.0
N3908 N 0.8512 0.826 0.53465 0.0
N3909 N 0.90156 0.74564 0.53613 0.0
H3910 H 0.90911 0.78788 0.48678 0.0
H3911 H 0.91566 0.76159 0.49805 0.0
H3912 H 0.89965 0.73404 0.54906 0.0
H3913 H 0.91138 0.73913 0.52324 0.0
H3914 H 0.83817 0.82912 0.54607 0.0
H3915 H 0.84894 0.8351 0.51999 0.0
H3916 H 0.85124 0.81916 0.5771 0.0
H3917 H 0.85547 0.7925 0.58906 0.0
C3918 C 0.05762 0.603 0.24755 0.0
C3919 C 0.05696 0.62471 0.25744 0.0
C3920 C 0.02042 0.63303 0.2383 0.0
C3921 C 0.02436 0.61369 0.22452 0.0
N3922 N 0.04995 0.58273 0.21374 0.0
N3923 N 0.0371 0.66004 0.26445 0.0
C3924 C 0.04349 0.5989 0.22878 0.0
C3925 C 0.0379 0.63953 0.25381 0.0
N3926 N 0.07245 0.5867 0.25568 0.0
N3927 N 9e-05 0.64507 0.23646 0.0
H3928 H 0.04896 0.66433 0.27695 0.0
H3929 H 0.0253 0.67298 0.26042 0.0
H3930 H 0.98665 0.64024 0.22576 0.0
H3931 H 0.99564 0.65852 0.24689 0.0
H3932 H 0.0725 0.56994 0.24998 0.0
H3933 H 0.08266 0.58956 0.26983 0.0
H3934 H 0.06519 0.57315 0.21539 0.0
H3935 H 0.04183 0.58088 0.19835 0.0
C3936 C 0.47081 0.37717 0.71034 0.0
C3937 C 0.47338 0.36108 0.69274 0.0
C3938 C 0.44459 0.33639 0.71021 0.0
C3939 C 0.44121 0.35276 0.72717 0.0
N3940 N 0.45262 0.38713 0.74555 0.0
N3941 N 0.46825 0.32251 0.68014 0.0
C3942 C 0.45522 0.37247 0.7281 0.0
C3943 C 0.46196 0.33979 0.69407 0.0
N3944 N 0.48234 0.39733 0.70952 0.0
N3945 N 0.43026 0.31808 0.70885 0.0
H3946 H 0.48188 0.32398 0.66916 0.0
H3947 H 0.46192 0.30605 0.68118 0.0
H3948 H 0.41838 0.31426 0.72115 0.0
H3949 H 0.42924 0.30741 0.69506 0.0
H3950 H 0.48093 0.41028 0.72119 0.0
H3951 H 0.49326 0.40169 0.69669 0.0
H3952 H 0.46207 0.40185 0.74805 0.0
H3953 H 0.44138 0.38385 0.75849 0.0
C3954 C 0.04358 0.90681 0.69693 0.0
C3955 C 0.0278 0.8898 0.6902 0.0
C3956 C 0.04392 0.86443 0.71964 0.0
C3957 C 0.06053 0.8811 0.72575 0.0
N3958 N 0.07243 0.92048 0.72228 0.0
N3959 N 0.00753 0.85623 0.70054 0.0
C3960 C 0.05904 0.9029 0.71525 0.0
C3961 C 0.02631 0.86976 0.70326 0.0
N3962 N 0.04378 0.92713 0.68597 0.0
N3963 N 0.04571 0.84303 0.72835 0.0
H3964 H 0.99399 0.86062 0.68963 0.0
H3965 H 0.00419 0.84235 0.71069 0.0
H3966 H 0.05787 0.83856 0.74059 0.0
H3967 H 0.03608 0.82938 0.72242 0.0
H3968 H 0.05503 0.9402 0.69037 0.0
H3969 H 0.0324 0.93093 0.67282 0.0
H3970 H 0.08359 0.91967 0.73606 0.0
H3971 H 0.08359 0.91967 0.73606 0.0
C3972 C 0.84685 0.25439 0.45421 0.0
C3973 C 0.85987 0.25508 0.43443 0.0
C3974 C 0.88649 0.2821 0.45108 0.0
C3975 C 0.8741 0.28112 0.47114 0.0
N3976 N 0.84588 0.26262 0.49373 0.0
N3977 N 0.89679 0.2626 0.41745 0.0
C3978 C 0.85539 0.26594 0.47336 0.0
C3979 C 0.8814 0.2664 0.43413 0.0
N3980 N 0.82596 0.24378 0.4545 0.0
N3981 N 0.90132 0.29946 0.44708 0.0
H3982 H 0.89386 0.25121 0.40448 0.0
H3983 H 0.91357 0.2689 0.41781 0.0
H3984 H 0.90234 0.31388 0.45702 0.0
H3985 H 0.91032 0.30108 0.43237 0.0
H3986 H 0.81448 0.24522 0.4676 0.0
H3987 H 0.81936 0.23459 0.44111 0.0
H3988 H 0.83349 0.25035 0.49681 0.0
H3989 H 0.85203 0.27069 0.50805 0.0
C3990 C 0.43994 0.15087 0.2248 0.0
C3991 C 0.43434 0.1371 0.24295 0.0
C3992 C 0.46333 0.10865 0.23121 0.0
C3993 C 0.46639 0.12127 0.21147 0.0
N3994 N 0.45047 0.14985 0.18656 0.0
N3995 N 0.43862 0.10149 0.26263 0.0
C3996 C 0.45288 0.14128 0.20751 0.0
C3997 C 0.44561 0.11562 0.24613 0.0
N3998 N 0.43182 0.17279 0.22356 0.0
N3999 N 0.4773 0.09028 0.23575 0.0
H4000 H 0.42631 0.10643 0.27416 0.0
H4001 H 0.44413 0.08461 0.26415 0.0
H4002 H 0.48991 0.08454 0.2248 0.0
H4003 H 0.47732 0.08168 0.25087 0.0
H4004 H 0.43676 0.18409 0.2112 0.0
H4005 H 0.42205 0.1802 0.23616 0.0
H4006 H 0.43955 0.16352 0.18246 0.0
H4007 H 0.45632 0.14081 0.17292 0.0
C4008 C 0.595 0.71275 0.97531 0.0
C4009 C 0.61486 0.70062 0.98332 0.0
C4010 C 0.63929 0.72349 0.95875 0.0
C4011 C 0.61914 0.7322 0.94778 0.0
N4012 N 0.57783 0.73723 0.9466 0.0
N4013 N 0.65615 0.69449 0.98295 0.0
C4014 C 0.59698 0.72766 0.95661 0.0
C4015 C 0.63712 0.70636 0.97538 0.0
N4016 N 0.57422 0.70957 0.98528 0.0
N4017 N 0.66056 0.73134 0.95307 0.0
H4018 H 0.65536 0.68246 0.99561 0.0
H4019 H 0.67245 0.69552 0.97596 0.0
H4020 H 0.66284 0.74369 0.94094 0.0
H4021 H 0.67583 0.72711 0.96154 0.0
H4022 H 0.55914 0.7186 0.98126 0.0
H4023 H 0.57236 0.69876 0.99884 0.0
H4024 H 0.5609 0.73295 0.95024 0.0
H4025 H 0.57898 0.74935 0.93402 0.0
C4026 C 0.02459 0.15352 0.79512 0.0
C4027 C 0.02206 0.13155 0.80464 0.0
C4028 C 0.05236 0.11657 0.78006 0.0
C4029 C 0.05612 0.13889 0.77172 0.0
N4030 N 0.04161 0.17702 0.76641 0.0
N4031 N 0.02861 0.09117 0.80177 0.0
C4032 C 0.04072 0.15684 0.77758 0.0
C4033 C 0.0343 0.11273 0.79554 0.0
N4034 N 0.01201 0.17134 0.80344 0.0
N4035 N 0.06657 0.09912 0.77352 0.0
H4036 H 0.01528 0.0879 0.81274 0.0
H4037 H 0.03565 0.07646 0.79486 0.0
H4038 H 0.07847 0.10085 0.7608 0.0
H4039 H 0.06717 0.08318 0.78102 0.0
H4040 H 0.01473 0.18828 0.79933 0.0
H4041 H 0.99911 0.16907 0.81514 0.0
H4042 H 0.02978 0.19032 0.76847 0.0
H4043 H 0.05317 0.17974 0.75358 0.0
C4044 C 0.63597 0.28303 0.52536 0.0
C4045 C 0.61577 0.27249 0.53375 0.0
C4046 C 0.59173 0.29581 0.50817 0.0
C4047 C 0.61106 0.30952 0.50372 0.0
N4048 N 0.65216 0.3145 0.50458 0.0
N4049 N 0.57407 0.26887 0.5327 0.0
C4050 C 0.63342 0.30239 0.51108 0.0
C4051 C 0.59361 0.27873 0.52482 0.0
N4052 N 0.65751 0.27497 0.53122 0.0
N4053 N 0.57153 0.29892 0.49641 0.0
H4054 H 0.57435 0.25415 0.54235 0.0
H4055 H 0.55754 0.27576 0.53013 0.0
H4056 H 0.56949 0.31115 0.48401 0.0
H4057 H 0.55747 0.2881 0.49755 0.0
H4058 H 0.67271 0.28041 0.52403 0.0
H4059 H 0.66051 0.26164 0.54221 0.0
H4060 H 0.66876 0.31255 0.5113 0.0
H4061 H 0.65088 0.32702 0.49235 0.0
C4062 C 0.45732 0.88862 0.23421 0.0
C4063 C 0.44804 0.8665 0.23526 0.0
C4064 C 0.46846 0.85903 0.27001 0.0
C4065 C 0.47664 0.88175 0.27007 0.0
N4066 N 0.48187 0.91745 0.25135 0.0
N4067 N 0.45334 0.82815 0.24768 0.0
C4068 C 0.47219 0.89634 0.25171 0.0
C4069 C 0.45665 0.85084 0.25099 0.0
N4070 N 0.45176 0.90184 0.21628 0.0
N4071 N 0.47041 0.84577 0.28862 0.0
H4072 H 0.44478 0.82213 0.23348 0.0
H4073 H 0.46074 0.81561 0.25786 0.0
H4074 H 0.47822 0.85125 0.30335 0.0
H4075 H 0.46229 0.83011 0.29006 0.0
H4076 H 0.45674 0.91865 0.21432 0.0
H4077 H 0.44243 0.8952 0.20281 0.0
H4078 H 0.47986 0.92897 0.23835 0.0
H4079 H 0.49252 0.9234 0.26419 0.0
C4080 C 0.84959 0.71901 0.03202 0.0
C4081 C 0.86244 0.71915 0.0524 0.0
C4082 C 0.88604 0.68662 0.03871 0.0
C4083 C 0.87303 0.68626 0.01847 0.0
N4084 N 0.84692 0.70629 0.99356 0.0
N4085 N 0.89744 0.70741 0.07189 0.0
C4086 C 0.85632 0.70388 0.01436 0.0
C4087 C 0.882 0.70418 0.05475 0.0
N4088 N 0.83018 0.73239 0.02988 0.0
N4089 N 0.90241 0.67004 0.0427 0.0
H4090 H 0.89605 0.72084 0.08313 0.0
H4091 H 0.913 0.69843 0.07366 0.0
H4092 H 0.90774 0.65847 0.03059 0.0
H4093 H 0.91001 0.66708 0.05824 0.0
H4094 H 0.81858 0.73132 0.01653 0.0
H4095 H 0.82462 0.74345 0.04228 0.0
H4096 H 0.83611 0.71979 0.98884 0.0
H4097 H 0.85196 0.69611 0.9803 0.0
C4098 C 0.73609 0.02824 0.85205 0.0
C4099 C 0.74453 0.04248 0.86936 0.0
C4100 C 0.7262 0.0177 0.89714 0.0
C4101 C 0.71543 0.00523 0.87976 0.0
N4102 N 0.71298 0.99539 0.84115 0.0
N4103 N 0.75259 0.04781 0.90832 0.0
C4104 C 0.72154 0.00944 0.85732 0.0
C4105 C 0.74121 0.03614 0.89192 0.0
N4106 N 0.74179 0.033 0.83062 0.0
N4107 N 0.72092 0.01262 0.9186 0.0
H4108 H 0.76332 0.06148 0.90502 0.0
H4109 H 0.7527 0.04329 0.92501 0.0
H4110 H 0.71092 0.99861 0.92268 0.0
H4111 H 0.7259 0.02225 0.93232 0.0
H4112 H 0.73517 0.02472 0.81671 0.0
H4113 H 0.7539 0.04532 0.82671 0.0
H4114 H 0.71597 0.99706 0.82427 0.0
H4115 H 0.7034 0.98102 0.84496 0.0
C4116 C 0.71243 0.9765 0.59947 0.0
C4117 C 0.70876 0.99329 0.61591 0.0
C4118 C 0.73638 0.97351 0.64118 0.0
C4119 C 0.73814 0.95529 0.6256 0.0
N4120 N 0.73157 0.94146 0.58818 0.0
N4121 N 0.7194 0.01068 0.65038 0.0
C4122 C 0.72739 0.95751 0.60414 0.0
C4123 C 0.72195 0.99288 0.63595 0.0
N4124 N 0.70015 0.97811 0.57992 0.0
N4125 N 0.74759 0.97175 0.66129 0.0
H4126 H 0.7095 0.02507 0.64615 0.0
H4127 H 0.72732 0.01185 0.66593 0.0
H4128 H 0.75709 0.95738 0.66616 0.0
H4129 H 0.74752 0.98425 0.67348 0.0
H4130 H 0.69913 0.96531 0.56803 0.0
H4131 H 0.69026 0.99255 0.57585 0.0
H4132 H 0.72619 0.94289 0.57168 0.0
H4133 H 0.74169 0.92694 0.59095 0.0
C4134 C 0.76605 0.96284 0.34891 0.0
C4135 C 0.75163 0.9561 0.36602 0.0
C4136 C 0.77398 0.97938 0.39242 0.0
C4137 C 0.7917 0.9811 0.37632 0.0
N4138 N 0.80481 0.97188 0.33909 0.0
N4139 N 0.73687 0.96267 0.40212 0.0
C4140 C 0.78764 0.97253 0.35436 0.0
C4141 C 0.75393 0.9662 0.3872 0.0
N4142 N 0.75929 0.95904 0.32746 0.0
N4143 N 0.77695 0.9892 0.41284 0.0
H4144 H 0.72177 0.95422 0.39738 0.0
H4145 H 0.73714 0.96842 0.41845 0.0
H4146 H 0.7918 0.99808 0.41734 0.0
H4147 H 0.76469 0.98904 0.42528 0.0
H4148 H 0.76824 0.96513 0.31384 0.0
H4149 H 0.74328 0.95181 0.32366 0.0
H4150 H 0.80327 0.96356 0.32386 0.0
H4151 H 0.82138 0.97741 0.3424 0.0
C4152 C 0.75179 0.03283 0.09902 0.0
C4153 C 0.75115 0.0441 0.11995 0.0
C4154 C 0.78181 0.01847 0.1335 0.0
C4155 C 0.78612 0.0108 0.11161 0.0
N4156 N 0.77453 0.01024 0.07305 0.0
N4157 N 0.76859 0.04969 0.15611 0.0
C4158 C 0.7706 0.01746 0.09422 0.0
C4159 C 0.76684 0.03731 0.137 0.0
N4160 N 0.73471 0.03732 0.08369 0.0
N4161 N 0.79164 0.00725 0.1511 0.0
H4162 H 0.75749 0.06329 0.15951 0.0
H4163 H 0.78202 0.04733 0.16768 0.0
H4164 H 0.79984 0.99157 0.14892 0.0
H4165 H 0.78842 0.01153 0.16759 0.0
H4166 H 0.73298 0.02856 0.06873 0.0
H4167 H 0.72107 0.04859 0.08697 0.0
H4168 H 0.76536 0.01632 0.05923 0.0
H4169 H 0.78784 0.99882 0.06923 0.0
C4170 C 0.38365 0.76204 0.96823 0.0
C4171 C 0.3702 0.78182 0.9722 0.0
C4172 C 0.34284 0.77131 0.94243 0.0
C4173 C 0.35763 0.75277 0.93709 0.0
N4174 N 0.39362 0.73211 0.94245 0.0
N4175 N 0.33659 0.80566 0.96397 0.0
C4176 C 0.37826 0.74831 0.94955 0.0
C4177 C 0.34951 0.78648 0.95969 0.0
N4178 N 0.40138 0.75625 0.98252 0.0
N4179 N 0.32333 0.77516 0.9297 0.0
H4180 H 0.34169 0.81829 0.975 0.0
H4181 H 0.32061 0.80955 0.95672 0.0
H4182 H 0.31761 0.76359 0.91775 0.0
H4183 H 0.31265 0.78945 0.93061 0.0
H4184 H 0.41024 0.74073 0.98193 0.0
H4185 H 0.40598 0.76618 0.99623 0.0
H4186 H 0.41027 0.73002 0.94904 0.0
H4187 H 0.39034 0.72178 0.92876 0.0
C4188 C 0.96848 0.63812 0.72253 0.0
C4189 C 0.96828 0.61521 0.71488 0.0
C4190 C 0.93099 0.60925 0.73219 0.0
C4191 C 0.93114 0.63216 0.73998 0.0
N4192 N 0.95176 0.66685 0.74674 0.0
N4193 N 0.95303 0.57756 0.71706 0.0
C4194 C 0.95063 0.646 0.73673 0.0
C4195 C 0.95073 0.6003 0.72137 0.0
N4196 N 0.98473 0.65279 0.71492 0.0
N4197 N 0.91162 0.59633 0.73416 0.0
H4198 H 0.96764 0.57073 0.70938 0.0
H4199 H 0.94177 0.56534 0.72295 0.0
H4200 H 0.89708 0.60166 0.74281 0.0
H4201 H 0.90938 0.58082 0.72609 0.0
H4202 H 0.98389 0.67033 0.71732 0.0
H4203 H 0.99851 0.64757 0.70513 0.0
H4204 H 0.96645 0.67693 0.74665 0.0
H4205 H 0.93859 0.67327 0.75671 0.0
C4206 C 0.13255 0.22352 0.45733 0.0
C4207 C 0.11563 0.22582 0.43991 0.0
C4208 C 0.09222 0.19684 0.45816 0.0
C4209 C 0.10806 0.19569 0.47637 0.0
N4210 N 0.14118 0.21119 0.49526 0.0
N4211 N 0.0759 0.21946 0.42835 0.0
C4212 C 0.12735 0.21042 0.47671 0.0
C4213 C 0.09433 0.21414 0.44193 0.0
N4214 N 0.15423 0.23201 0.45475 0.0
N4215 N 0.07604 0.18034 0.45531 0.0
H4216 H 0.07632 0.23238 0.41658 0.0
H4217 H 0.05948 0.21272 0.43049 0.0
H4218 H 0.07435 0.16701 0.46648 0.0
H4219 H 0.06601 0.17872 0.44087 0.0
H4220 H 0.16787 0.22871 0.46583 0.0
H4221 H 0.15941 0.24044 0.44051 0.0
H4222 H 0.15449 0.22282 0.49737 0.0
H4223 H 0.13779 0.20158 0.50939 0.0
C4224 C 0.95583 0.38041 0.73954 0.0
C4225 C 0.9437 0.36001 0.74401 0.0
C4226 C 0.96316 0.35667 0.77996 0.0
C4227 C 0.97654 0.37619 0.77523 0.0
N4228 N 0.98743 0.40559 0.74977 0.0
N4229 N 0.94 0.32589 0.76549 0.0
C4230 C 0.97353 0.3877 0.75468 0.0
C4231 C 0.94909 0.34711 0.76313 0.0
N4232 N 0.94952 0.39344 0.72161 0.0
N4233 N 0.96225 0.34835 0.80107 0.0
H4234 H 0.9295 0.31853 0.75324 0.0
H4235 H 0.94475 0.31487 0.77837 0.0
H4236 H 0.97131 0.35552 0.81423 0.0
H4237 H 0.95055 0.33604 0.80598 0.0
H4238 H 0.9555 0.40984 0.71895 0.0
H4239 H 0.93739 0.38823 0.70974 0.0
H4240 H 0.98764 0.41343 0.73429 0.0
H4241 H -0.00012 0.41171 0.76092 0.0
C4242 C 0.55054 0.62104 0.30797 0.0
C4243 C 0.53054 0.63498 0.31002 0.0
C4244 C 0.54216 0.65512 0.27577 0.0
C4245 C 0.56086 0.63934 0.27293 0.0
N4246 N 0.57532 0.60179 0.28227 0.0
N4247 N 0.50482 0.66263 0.29284 0.0
C4248 C 0.56248 0.62055 0.2877 0.0
C4249 C 0.5254 0.65105 0.29281 0.0
N4250 N 0.55902 0.60867 0.32548 0.0
N4251 N 0.54095 0.67447 0.26331 0.0
H4252 H 0.49242 0.65993 0.30491 0.0
H4253 H 0.4993 0.67322 0.27988 0.0
H4254 H 0.55274 0.67808 0.25095 0.0
H4255 H 0.5292 0.68765 0.26637 0.0
H4256 H 0.57554 0.60139 0.32525 0.0
H4257 H 0.5509 0.6075 0.34072 0.0
H4258 H 0.5758 0.58706 0.29196 0.0
H4259 H 0.58307 0.6002 0.26686 0.0
C4260 C 0.44049 0.59783 0.77621 0.0
C4261 C 0.43831 0.62038 0.7677 0.0
C4262 C 0.47085 0.63133 0.79256 0.0
C4263 C 0.4703 0.60972 0.80345 0.0
N4264 N 0.45203 0.57335 0.80702 0.0
N4265 N 0.4517 0.65886 0.76778 0.0
C4266 C 0.45455 0.59317 0.79548 0.0
C4267 C 0.45392 0.63711 0.77559 0.0
N4268 N 0.42945 0.58062 0.76537 0.0
N4269 N 0.48744 0.64649 0.79874 0.0
H4270 H 0.44008 0.6633 0.75503 0.0
H4271 H 0.46051 0.67266 0.77445 0.0
H4272 H 0.49923 0.64315 0.81159 0.0
H4273 H 0.49058 0.66154 0.79026 0.0
H4274 H 0.43129 0.56354 0.76973 0.0
H4275 H 0.42104 0.58333 0.75017 0.0
H4276 H 0.43861 0.56206 0.80392 0.0
H4277 H 0.46243 0.56894 0.82071 0.0
C4278 C 0.87334 0.20668 0.9962 0.0
C4279 C 0.89062 0.18995 0.99132 0.0
C4280 C 0.90315 0.21263 0.95965 0.0
C4281 C 0.88463 0.22805 0.96324 0.0
N4282 N 0.8546 0.24289 0.98628 0.0
N4283 N 0.9189 0.17509 0.96576 0.0
C4284 C 0.87065 0.22619 0.98217 0.0
C4285 C 0.90497 0.19262 0.97256 0.0
N4286 N 0.85824 0.20276 0.01293 0.0
N4287 N 0.91909 0.21722 0.94373 0.0
H4288 H 0.92154 0.16033 0.97497 0.0
H4289 H 0.92617 0.17432 0.95006 0.0
H4290 H 0.91849 0.23209 0.93426 0.0
H4291 H 0.93414 0.2076 0.94147 0.0
H4292 H 0.84401 0.21303 0.01651 0.0
H4293 H 0.85935 0.18825 0.02271 0.0
H4294 H 0.84447 0.24365 0.00038 0.0
H4295 H 0.85247 0.25705 0.97596 0.0
C4296 C 0.63047 0.81583 0.45376 0.0
C4297 C 0.63094 0.81212 0.47709 0.0
C4298 C 0.64316 0.7721 0.46862 0.0
C4299 C 0.64505 0.77757 0.44557 0.0
N4300 N 0.651 0.80869 0.42018 0.0
N4301 N 0.6434 0.78665 0.50667 0.0
C4302 C 0.64217 0.80072 0.43955 0.0
C4303 C 0.6389 0.79016 0.48463 0.0
N4304 N 0.61824 0.8335 0.44461 0.0
N4305 N 0.64499 0.75 0.47533 0.0
H4306 H 0.64112 0.79927 0.51861 0.0
H4307 H 0.6514 0.77188 0.51275 0.0
H4308 H 0.64827 0.7367 0.46432 0.0
H4309 H 0.64175 0.74483 0.49152 0.0
H4310 H 0.6157 0.83503 0.42748 0.0
H4311 H 0.60847 0.84478 0.45396 0.0
H4312 H 0.64995 0.82582 0.41582 0.0
H4313 H 0.66182 0.79886 0.41016 0.0
C4314 C 0.7669 0.48446 0.60319 0.0
C4315 C 0.7861 0.48926 0.61732 0.0
C4316 C 0.77517 0.45734 0.64159 0.0
C4317 C 0.75574 0.45272 0.62774 0.0
N4318 N 0.72914 0.46686 0.59982 0.0
N4319 N 0.8033 0.48508 0.65382 0.0
C4320 C 0.75032 0.46793 0.60995 0.0
C4321 C 0.78842 0.47724 0.63781 0.0
N4322 N 0.76505 0.49469 0.5829 0.0
N4323 N 0.78152 0.44237 0.65799 0.0
H4324 H 0.81244 0.50012 0.65186 0.0
H4325 H 0.80459 0.47818 0.66974 0.0
H4326 H 0.77184 0.42807 0.66174 0.0
H4327 H 0.79716 0.44336 0.66675 0.0
H4328 H 0.7529 0.48992 0.57086 0.0
H4329 H 0.77666 0.50695 0.57768 0.0
H4330 H 0.72349 0.47833 0.58765 0.0
H4331 H 0.71635 0.4562 0.60573 0.0
C4332 C 0.76738 0.53555 0.89029 0.0
C4333 C 0.75872 0.54087 0.86853 0.0
C4334 C 0.7781 0.50639 0.8542 0.0
C4335 C 0.78784 0.50228 0.87559 0.0
N4336 N 0.78682 0.50827 0.91484 0.0
N4337 N 0.75246 0.52908 0.83044 0.0
C4338 C 0.7806 0.51528 0.89392 0.0
C4339 C 0.76266 0.52532 0.85076 0.0
N4340 N 0.76363 0.55026 0.90742 0.0
N4341 N 0.78507 0.49294 0.83695 0.0
H4342 H 0.74279 0.54364 0.82659 0.0
H4343 H 0.75263 0.5173 0.81754 0.0
H4344 H 0.79545 0.47847 0.83948 0.0
H4345 H 0.78126 0.49626 0.82032 0.0
H4346 H 0.77269 0.5496 0.9225 0.0
H4347 H 0.75173 0.56358 0.90631 0.0
H4348 H 0.78083 0.51587 0.92931 0.0
H4349 H 0.79653 0.49342 0.91763 0.0
C4350 C 0.73903 0.5341 0.14077 0.0
C4351 C 0.74153 0.55274 0.1262 0.0
C4352 C 0.71333 0.53628 0.09996 0.0
C4353 C 0.70828 0.51965 0.11604 0.0
N4354 N 0.7151 0.50273 0.15201 0.0
N4355 N 0.73582 0.56895 0.08963 0.0
C4356 C 0.72131 0.51809 0.13624 0.0
C4357 C 0.73028 0.55283 0.10495 0.0
N4358 N 0.75302 0.5321 0.15918 0.0
N4359 N 0.70032 0.53735 0.08079 0.0
H4360 H 0.74782 0.58156 0.09288 0.0
H4361 H 0.7299 0.56914 0.07324 0.0
H4362 H 0.68869 0.52467 0.07629 0.0
H4363 H 0.70027 0.55088 0.06966 0.0
H4364 H 0.75366 0.51773 0.16928 0.0
H4365 H 0.76552 0.544 0.16342 0.0
H4366 H 0.72182 0.50232 0.16814 0.0
H4367 H 0.70189 0.49116 0.14934 0.0
C4368 C 0.71443 0.47694 0.36077 0.0
C4369 C 0.71201 0.48759 0.38179 0.0
C4370 C 0.74776 0.46817 0.39443 0.0
C4371 C 0.74714 0.45431 0.37512 0.0
N4372 N 0.72805 0.44393 0.34067 0.0
N4373 N 0.72642 0.49337 0.41907 0.0
C4374 C 0.73019 0.45848 0.35831 0.0
C4375 C 0.72899 0.48361 0.39866 0.0
N4376 N 0.70172 0.48476 0.34304 0.0
N4377 N 0.76619 0.46623 0.40879 0.0
H4378 H 0.71312 0.50492 0.42253 0.0
H4379 H 0.7367 0.48916 0.43285 0.0
H4380 H 0.78007 0.45518 0.4057 0.0
H4381 H 0.76873 0.47688 0.42241 0.0
H4382 H 0.70356 0.47856 0.32693 0.0
H4383 H 0.69174 0.49955 0.3441 0.0
H4384 H 0.71385 0.44423 0.32978 0.0
H4385 H 0.73964 0.43059 0.33772 0.0
C4386 C 0.54602 0.40505 0.19695 0.0
C4387 C 0.53013 0.38781 0.19137 0.0
C4388 C 0.54625 0.36407 0.2221 0.0
C4389 C 0.56319 0.3809 0.22689 0.0
N4390 N 0.57652 0.41937 0.21968 0.0
N4391 N 0.51044 0.35414 0.20266 0.0
C4392 C 0.56204 0.4019 0.21485 0.0
C4393 C 0.52877 0.36834 0.20529 0.0
N4394 N 0.54591 0.42488 0.18509 0.0
N4395 N 0.54772 0.34341 0.23245 0.0
H4396 H 0.49715 0.35755 0.19121 0.0
H4397 H 0.50709 0.3406 0.21322 0.0
H4398 H 0.55978 0.33971 0.245 0.0
H4399 H 0.53796 0.32941 0.2277 0.0
H4400 H 0.5573 0.4381 0.18855 0.0
H4401 H 0.53409 0.42825 0.17219 0.0
H4402 H 0.58891 0.41909 0.23245 0.0
H4403 H 0.58891 0.41909 0.23245 0.0
C4404 C 0.10999 0.78823 0.99702 0.0
C4405 C 0.10503 0.80931 0.00772 0.0
C4406 C 0.11011 0.79117 0.04421 0.0
C4407 C 0.11485 0.77006 0.03356 0.0
N4408 N 0.11462 0.74717 0.00047 0.0
N4409 N 0.09733 0.8304 0.04147 0.0
C4410 C 0.11339 0.76819 0.01013 0.0
C4411 C 0.10387 0.81047 0.03135 0.0
N4412 N 0.11273 0.7875 0.97454 0.0
N4413 N 0.1109 0.79245 0.06687 0.0
H4414 H 0.0893 0.84382 0.03301 0.0
H4415 H 0.09935 0.83409 0.05825 0.0
H4416 H 0.11823 0.77964 0.07651 0.0
H4417 H 0.10499 0.80595 0.07646 0.0
H4418 H 0.11919 0.77333 0.96615 0.0
H4419 H 0.10989 0.80148 0.96424 0.0
H4420 H 0.11086 0.74423 0.98375 0.0
H4421 H 0.11788 0.73235 0.00959 0.0
C4422 C 0.36938 0.19826 0.55592 0.0
C4423 C 0.36226 0.22129 0.55188 0.0
C4424 C 0.36652 0.21241 0.51155 0.0
C4425 C 0.37649 0.19072 0.51688 0.0
N4426 N 0.39639 0.16901 0.54541 0.0
N4427 N 0.35927 0.25125 0.52415 0.0
C4428 C 0.3813 0.18606 0.53948 0.0
C4429 C 0.3623 0.22878 0.52915 0.0
N4430 N 0.36349 0.18702 0.57481 0.0
N4431 N 0.36068 0.21733 0.49007 0.0
H4432 H 0.35712 0.26379 0.53617 0.0
H4433 H 0.36116 0.25765 0.50816 0.0
H4434 H 0.36434 0.20622 0.47705 0.0
H4435 H 0.35118 0.23182 0.4855 0.0
H4436 H 0.36745 0.16983 0.57737 0.0
H4437 H 0.35211 0.1937 0.58636 0.0
H4438 H 0.40103 0.16574 0.56194 0.0
H4439 H 0.40588 0.15998 0.53365 0.0
C4440 C 0.2236 0.50797 0.35909 0.0
C4441 C 0.21489 0.50462 0.3808 0.0
C4442 C 0.23605 0.5385 0.39349 0.0
C4443 C 0.24385 0.54296 0.37143 0.0
N4444 N 0.24794 0.52938 0.33391 0.0
N4445 N 0.21919 0.51198 0.41962 0.0
C4446 C 0.23875 0.52669 0.35449 0.0
C4447 C 0.22319 0.51845 0.39826 0.0
N4448 N 0.21677 0.4933 0.34278 0.0
N4449 N 0.24036 0.55382 0.40999 0.0
H4450 H 0.2105 0.497 0.42327 0.0
H4451 H 0.22633 0.52 0.4335 0.0
H4452 H 0.25194 0.56698 0.40819 0.0
H4453 H 0.23195 0.55382 0.42517 0.0
H4454 H 0.21975 0.49554 0.32594 0.0
H4455 H 0.2079 0.4785 0.34656 0.0
H4456 H 0.24643 0.51758 0.32112 0.0
H4457 H 0.25828 0.54309 0.32982 0.0
C4458 C 0.21647 0.48049 0.10352 0.0
C4459 C 0.21103 0.49677 0.11999 0.0
C4460 C 0.23942 0.47874 0.14567 0.0
C4461 C 0.24355 0.46153 0.12963 0.0
N4462 N 0.2433 0.45158 0.0909 0.0
N4463 N 0.22091 0.51522 0.15428 0.0
C4464 C 0.23439 0.46428 0.10774 0.0
C4465 C 0.22407 0.49731 0.14016 0.0
N4466 N 0.20344 0.47964 0.08442 0.0
N4467 N 0.24898 0.47659 0.16645 0.0
H4468 H 0.20962 0.52866 0.15032 0.0
H4469 H 0.2306 0.51772 0.16876 0.0
H4470 H 0.26052 0.46346 0.17066 0.0
H4471 H 0.24501 0.48725 0.17969 0.0
H4472 H 0.20414 0.46612 0.07322 0.0
H4473 H 0.19108 0.49212 0.0804 0.0
H4474 H 0.2381 0.45323 0.07434 0.0
H4475 H 0.25827 0.44186 0.09335 0.0
C4476 C 0.26006 0.46714 0.85167 0.0
C4477 C 0.26001 0.44704 0.86489 0.0
C4478 C 0.28807 0.4644 0.89087 0.0
C4479 C 0.29115 0.48223 0.87564 0.0
N4480 N 0.27919 0.50293 0.84315 0.0
N4481 N 0.27427 0.42668 0.8976 0.0
C4482 C 0.27652 0.48452 0.85668 0.0
C4483 C 0.27383 0.44591 0.88483 0.0
N4484 N 0.24511 0.46923 0.83398 0.0
N4485 N 0.299 0.46517 0.91119 0.0
H4486 H 0.26262 0.41358 0.89557 0.0
H4487 H 0.28682 0.4232 0.90977 0.0
H4488 H 0.29609 0.45373 0.924 0.0
H4489 H 0.30947 0.47869 0.91606 0.0
H4490 H 0.24292 0.48402 0.82467 0.0
H4491 H 0.23386 0.4564 0.82909 0.0
H4492 H 0.27081 0.50512 0.82788 0.0
H4493 H 0.2904 0.51613 0.84728 0.0
C4494 C 0.27189 0.5419 0.6345 0.0
C4495 C 0.25376 0.54509 0.61875 0.0
C4496 C 0.27052 0.51403 0.59633 0.0
C4497 C 0.28789 0.51047 0.61307 0.0
N4498 N 0.29706 0.51437 0.65209 0.0
N4499 N 0.23289 0.53109 0.58686 0.0
C4500 C 0.28569 0.52209 0.63354 0.0
C4501 C 0.25194 0.52989 0.60047 0.0
N4502 N 0.27746 0.55861 0.64926 0.0
N4503 N 0.2724 0.50365 0.57616 0.0
H4504 H 0.21939 0.54264 0.58971 0.0
H4505 H 0.22961 0.5194 0.57421 0.0
H4506 H 0.28554 0.49203 0.57252 0.0
H4507 H 0.26165 0.50757 0.56263 0.0
H4508 H 0.2925 0.55781 0.65904 0.0
H4509 H 0.26862 0.57414 0.64985 0.0
H4510 H 0.29532 0.52208 0.66761 0.0
H4511 H 0.30531 0.49854 0.65229 0.0
C4512 C 0.02827 0.13252 0.44745 0.0
C4513 C 0.03083 0.11044 0.43771 0.0
C4514 C 0.05306 0.09804 0.47112 0.0
C4515 C 0.05213 0.12064 0.47974 0.0
N4516 N 0.03334 0.15761 0.47895 0.0
N4517 N 0.04327 0.07142 0.44127 0.0
C4518 C 0.03806 0.13726 0.46878 0.0
C4519 C 0.04268 0.09298 0.44984 0.0
N4520 N 0.01746 0.14966 0.43586 0.0
N4521 N 0.0623 0.08117 0.48421 0.0
H4522 H 0.03456 0.06701 0.42662 0.0
H4523 H 0.05223 0.05774 0.44834 0.0
H4524 H 0.06662 0.08396 0.50082 0.0
H4525 H 0.06409 0.06421 0.47962 0.0
H4526 H 0.01961 0.16686 0.43944 0.0
H4527 H 0.00676 0.14695 0.42225 0.0
H4528 H 0.02024 0.16877 0.47368 0.0
H4529 H 0.04176 0.16329 0.49325 0.0
C4530 C 0.12898 0.82478 0.71263 0.0
C4531 C 0.13672 0.81529 0.73282 0.0
C4532 C 0.16177 0.78903 0.71238 0.0
C4533 C 0.15495 0.80029 0.69242 0.0
N4534 N 0.14012 0.83518 0.6758 0.0
N4535 N 0.16182 0.7893 0.7529 0.0
C4536 C 0.14145 0.82043 0.69329 0.0
C4537 C 0.15368 0.79765 0.73308 0.0
N4538 N 0.10867 0.83662 0.7117 0.0
N4539 N 0.17624 0.77057 0.71136 0.0
H4540 H 0.15533 0.79486 0.76809 0.0
H4541 H 0.17539 0.77755 0.75438 0.0
H4542 H 0.18457 0.76618 0.6967 0.0
H4543 H 0.18006 0.75995 0.72479 0.0
H4544 H 0.10213 0.84435 0.69739 0.0
H4545 H 0.09717 0.83602 0.72481 0.0
H4546 H 0.13096 0.85054 0.67649 0.0
H4547 H 0.15008 0.83363 0.66164 0.0
C4548 C 0.44298 0.89564 0.98657 0.0
C4549 C 0.44528 0.87418 0.99711 0.0
C4550 C 0.47009 0.86129 0.96727 0.0
C4551 C 0.46202 0.88007 0.95425 0.0
N4552 N 0.43729 0.91366 0.9511 0.0
N4553 N 0.46207 0.83665 0.99848 0.0
C4554 C 0.44779 0.89712 0.9638 0.0
C4555 C 0.45947 0.85707 0.98789 0.0
N4556 N 0.43571 0.91437 0.99803 0.0
N4557 N 0.48809 0.84797 0.96027 0.0
H4558 H 0.45523 0.8338 0.01418 0.0
H4559 H 0.47011 0.82253 0.99132 0.0
H4560 H 0.49722 0.85144 0.94588 0.0
H4561 H 0.49557 0.8351 0.96997 0.0
H4562 H 0.43496 0.93058 0.991 0.0
H4563 H 0.43378 0.91434 0.01518 0.0
H4564 H 0.42492 0.92491 0.95738 0.0
H4565 H 0.43869 0.91459 0.93392 0.0
C4566 C 0.35655 0.21962 0.22593 0.0
C4567 C 0.36237 0.19626 0.22874 0.0
C4568 C 0.37404 0.1938 0.19023 0.0
C4569 C 0.36648 0.21635 0.18644 0.0
N4570 N 0.34334 0.24811 0.19939 0.0
N4571 N 0.36252 0.16087 0.20847 0.0
C4572 C 0.35584 0.22879 0.20398 0.0
C4573 C 0.36729 0.18319 0.20969 0.0
N4574 N 0.35049 0.23264 0.24373 0.0
N4575 N 0.38657 0.18184 0.17502 0.0
H4576 H 0.35181 0.15299 0.21976 0.0
H4577 H 0.35181 0.15299 0.21976 0.0
H4578 H 0.39342 0.18926 0.16087 0.0
H4579 H 0.39174 0.16497 0.17788 0.0
H4580 H 0.34854 0.25028 0.24284 0.0
H4581 H 0.34792 0.22582 0.25946 0.0
H4582 H 0.3337 0.25685 0.21121 0.0
H4583 H 0.34022 0.2536 0.18318 0.0
C4584 C 0.02977 0.90148 0.04826 0.0
C4585 C 0.03234 0.88136 0.06127 0.0
C4586 C 0.04489 0.86049 0.02832 0.0
C4587 C 0.04625 0.88114 0.01633 0.0
N4588 N 0.03999 0.92162 0.01449 0.0
N4589 N 0.04659 0.84286 0.06459 0.0
C4590 C 0.03846 0.90177 0.02612 0.0
C4591 C 0.04106 0.86116 0.05151 0.0
N4592 N 0.01885 0.92011 0.05698 0.0
N4593 N 0.04698 0.84019 0.01741 0.0
H4594 H 0.04586 0.84361 0.08186 0.0
H4595 H 0.05419 0.82796 0.05861 0.0
H4596 H 0.04898 0.83924 0.00023 0.0
H4597 H 0.04444 0.82451 0.025 0.0
H4598 H 0.0142 0.93443 0.04768 0.0
H4599 H 0.01322 0.92067 0.07335 0.0
H4600 H 0.03698 0.93762 0.02138 0.0
H4601 H 0.04529 0.92203 0.998 0.0
C4602 C 0.35561 0.79421 0.25725 0.0
C4603 C 0.37387 0.81004 0.25544 0.0
C4604 C 0.37624 0.8137 0.29553 0.0
C4605 C 0.36175 0.79483 0.29737 0.0
N4606 N 0.33567 0.7677 0.28118 0.0
N4607 N 0.40404 0.83193 0.27283 0.0
C4608 C 0.35056 0.78532 0.27857 0.0
C4609 C 0.38473 0.81913 0.27459 0.0
N4610 N 0.34318 0.78798 0.23879 0.0
N4611 N 0.38182 0.82638 0.31385 0.0
H4612 H 0.41175 0.83409 0.25762 0.0
H4613 H 0.41379 0.83761 0.28639 0.0
H4614 H 0.37526 0.82291 0.32954 0.0
H4615 H 0.39072 0.84167 0.31297 0.0
H4616 H 0.32829 0.77822 0.23932 0.0
H4617 H 0.34711 0.79363 0.22288 0.0
H4618 H 0.32847 0.75857 0.26802 0.0
H4619 H 0.33108 0.76179 0.29684 0.0
C4620 C 0.44452 0.08898 0.53867 0.0
C4621 C 0.44913 0.10882 0.55154 0.0
C4622 C 0.44486 0.13288 0.51895 0.0
C4623 C 0.43679 0.11392 0.50707 0.0
N4624 N 0.43167 0.07381 0.50285 0.0
N4625 N 0.44868 0.14992 0.55512 0.0
C4626 C 0.43759 0.09179 0.51609 0.0
C4627 C 0.44825 0.13087 0.54198 0.0
N4628 N 0.44694 0.06779 0.54789 0.0
N4629 N 0.44825 0.153 0.50818 0.0
H4630 H 0.44793 0.14934 0.5724 0.0
H4631 H 0.44679 0.16641 0.549 0.0
H4632 H 0.44557 0.15468 0.49106 0.0
H4633 H 0.45586 0.16709 0.51567 0.0
H4634 H 0.44395 0.05266 0.53945 0.0
H4635 H 0.45288 0.065 0.56407 0.0
H4636 H 0.43035 0.05708 0.50823 0.0
H4637 H 0.42824 0.07584 0.48588 0.0
C4638 C 0.15587 0.20533 0.77921 0.0
C4639 C 0.13385 0.19528 0.77585 0.0
C4640 C 0.1288 0.19444 0.81623 0.0
C4641 C 0.14911 0.20734 0.81964 0.0
N4642 N 0.1812 0.22687 0.80374 0.0
N4643 N 0.09681 0.18659 0.79128 0.0
C4644 C 0.1624 0.21335 0.80087 0.0
C4645 C 0.11956 0.19171 0.79438 0.0
N4646 N 0.17053 0.20722 0.76174 0.0
N4647 N 0.11845 0.18419 0.8337 0.0
H4648 H 0.08909 0.18621 0.77556 0.0
H4649 H 0.08519 0.18556 0.8043 0.0
H4650 H 0.12466 0.18536 0.84997 0.0
H4651 H 0.10545 0.17225 0.83144 0.0
H4652 H 0.18774 0.21205 0.76351 0.0
H4653 H 0.16581 0.20274 0.74553 0.0
H4654 H 0.19016 0.23409 0.79068 0.0
H4655 H 0.18702 0.23167 0.81946 0.0
C4656 C 0.45405 0.06053 0.1336 0.0
C4657 C 0.46585 0.07023 0.11568 0.0
C4658 C 0.43279 0.06125 0.09082 0.0
C4659 C 0.42 0.05415 0.10939 0.0
N4660 N 0.4169 0.0532 0.14932 0.0
N4661 N 0.46429 0.08414 0.0777 0.0
C4662 C 0.43025 0.05542 0.13102 0.0
C4663 C 0.45471 0.07175 0.09433 0.0
N4664 N 0.46558 0.05599 0.15312 0.0
N4665 N 0.42435 0.05753 0.06984 0.0
H4666 H 0.4796 0.09312 0.07958 0.0
H4667 H 0.45581 0.08748 0.06265 0.0
H4668 H 0.40823 0.05031 0.06675 0.0
H4669 H 0.43412 0.05991 0.05564 0.0
H4670 H 0.45833 0.04682 0.16602 0.0
H4671 H 0.48313 0.05939 0.1555 0.0
H4672 H 0.42298 0.05585 0.16548 0.0
H4673 H 0.39908 0.05198 0.14804 0.0
C4674 C 0.1719 0.20479 0.34253 0.0
C4675 C 0.17505 0.21721 0.36268 0.0
C4676 C 0.20283 0.18812 0.37611 0.0
C4677 C 0.19979 0.17556 0.35594 0.0
N4678 N 0.18365 0.17293 0.31898 0.0
N4679 N 0.19583 0.22258 0.39727 0.0
C4680 C 0.18487 0.18421 0.33888 0.0
C4681 C 0.19123 0.20941 0.37898 0.0
N4682 N 0.1567 0.21295 0.3268 0.0
N4683 N 0.21563 0.17911 0.39332 0.0
H4684 H 0.18633 0.23714 0.40134 0.0
H4685 H 0.21001 0.21993 0.40786 0.0
H4686 H 0.22575 0.16453 0.39211 0.0
H4687 H 0.21522 0.1853 0.40951 0.0
H4688 H 0.15235 0.20476 0.31205 0.0
H4689 H 0.14778 0.22821 0.32875 0.0
H4690 H 0.17341 0.17786 0.30547 0.0
H4691 H 0.19404 0.1588 0.31538 0.0
C4692 C 0.05529 0.97345 0.62883 0.0
C4693 C 0.06949 0.96889 0.61017 0.0
C4694 C 0.03985 0.94423 0.59417 0.0
C4695 C 0.02603 0.9484 0.61305 0.0
N4696 N 0.01779 0.97067 0.64577 0.0
N4697 N 0.07538 0.95127 0.57441 0.0
C4698 C 0.03277 0.96437 0.62942 0.0
C4699 C 0.06167 0.95481 0.5925 0.0
N4700 N 0.06401 0.98456 0.64703 0.0
N4701 N 0.03167 0.93044 0.57769 0.0
H4702 H 0.09068 0.95998 0.57182 0.0
H4703 H 0.07198 0.93984 0.56165 0.0
H4704 H 0.01549 0.92327 0.57854 0.0
H4705 H 0.03997 0.92664 0.56294 0.0
H4706 H 0.05575 0.98537 0.66226 0.0
H4707 H 0.08053 0.9912 0.64793 0.0
H4708 H 0.02052 0.98449 0.65628 0.0
H4709 H 0.00167 0.96336 0.6479 0.0
C4710 C 0.28904 0.77765 0.87681 0.0
C4711 C 0.30285 0.76939 0.85937 0.0
C4712 C 0.30463 0.80744 0.843 0.0
C4713 C 0.29256 0.81611 0.86163 0.0
N4714 N 0.27673 0.81015 0.89816 0.0
N4715 N 0.31847 0.77399 0.82313 0.0
C4716 C 0.28539 0.80136 0.87891 0.0
C4717 C 0.30926 0.78366 0.84169 0.0
N4718 N 0.27918 0.76277 0.89123 0.0
N4719 N 0.31179 0.82191 0.82677 0.0
H4720 H 0.32001 0.75638 0.82144 0.0
H4721 H 0.32244 0.78283 0.80876 0.0
H4722 H 0.30716 0.83909 0.82617 0.0
H4723 H 0.32303 0.81724 0.8142 0.0
H4724 H 0.26669 0.76753 0.90267 0.0
H4725 H 0.28185 0.74523 0.89053 0.0
H4726 H 0.27372 0.80051 0.91229 0.0
H4727 H 0.27466 0.82748 0.90099 0.0
C4728 C 0.44142 0.96266 0.35733 0.0
C4729 C 0.4292 0.95495 0.37628 0.0
C4730 C 0.46268 0.93162 0.38777 0.0
C4731 C 0.47429 0.93851 0.36819 0.0
N4732 N 0.47814 0.96526 0.33846 0.0
N4733 N 0.42817 0.9335 0.41035 0.0
C4734 C 0.46471 0.95552 0.35426 0.0
C4735 C 0.43991 0.93992 0.39182 0.0
N4736 N 0.43035 0.97551 0.34141 0.0
N4737 N 0.4739 0.91788 0.4029 0.0
H4738 H 0.4127 0.94118 0.41521 0.0
H4739 H 0.43331 0.92041 0.421 0.0
H4740 H 0.49045 0.91141 0.40056 0.0
H4741 H 0.46757 0.91347 0.41834 0.0
H4742 H 0.43744 0.97922 0.32606 0.0
H4743 H 0.41328 0.981 0.34257 0.0
H4744 H 0.47315 0.97964 0.32941 0.0
H4745 H 0.4953 0.96027 0.33594 0.0
C4746 C 0.30654 0.18112 0.61691 0.0
C4747 C 0.2965 0.17857 0.63787 0.0
C4748 C 0.29428 0.21971 0.64229 0.0
C4749 C 0.30186 0.22186 0.62006 0.0
N4750 N 0.30879 0.2048 0.58438 0.0
N4751 N 0.281 0.19446 0.67132 0.0
C4752 C 0.30586 0.2026 0.60672 0.0
C4753 C 0.29036 0.19764 0.6509 0.0
N4754 N 0.31728 0.16302 0.60708 0.0
N4755 N 0.29109 0.23875 0.655 0.0
H4756 H 0.28029 0.17838 0.67861 0.0
H4757 H 0.27377 0.20747 0.6808 0.0
H4758 H 0.29218 0.25515 0.64847 0.0
H4759 H 0.28795 0.23837 0.67197 0.0
H4760 H 0.32634 0.16437 0.59239 0.0
H4761 H 0.31913 0.14724 0.61487 0.0
H4762 H 0.30979 0.19085 0.57371 0.0
H4763 H 0.30799 0.22051 0.57634 0.0
C4764 C 0.05788 0.04211 0.90004 0.0
C4765 C 0.07803 0.04851 0.88847 0.0
C4766 C 0.05539 0.07644 0.86679 0.0
C4767 C 0.03494 0.06939 0.87735 0.0
N4768 N 0.01607 0.04578 0.90411 0.0
N4769 N 0.0957 0.07019 0.85927 0.0
C4770 C 0.03598 0.05219 0.89399 0.0
C4771 C 0.07676 0.06549 0.87171 0.0
N4772 N 0.05997 0.02699 0.91724 0.0
N4773 N 0.05437 0.09359 0.8516 0.0
H4774 H 0.11209 0.06358 0.86258 0.0
H4775 H 0.09512 0.07962 0.84465 0.0
H4776 H 0.03894 0.09849 0.84409 0.0
H4777 H 0.06856 0.103 0.8467 0.0
H4778 H 0.04659 0.02257 0.92767 0.0
H4779 H 0.07576 0.0195 0.92191 0.0
H4780 H 0.01495 0.0323 0.9152 0.0
H4781 H 0.00011 0.05364 0.90091 0.0
C4782 C 0.17574 0.81641 0.11386 0.0
C4783 C 0.18983 0.82137 0.13277 0.0
C4784 C 0.18879 0.78126 0.14364 0.0
C4785 C 0.17265 0.77667 0.12618 0.0
N4786 N 0.1601 0.78731 0.08954 0.0
N4787 N 0.20453 0.80955 0.16858 0.0
C4788 C 0.16861 0.79355 0.10978 0.0
C4789 C 0.19507 0.80404 0.1484 0.0
N4790 N 0.16808 0.83377 0.10051 0.0
N4791 N 0.19927 0.76362 0.15481 0.0
H4792 H 0.20745 0.82637 0.1733 0.0
H4793 H 0.20675 0.79785 0.18146 0.0
H4794 H 0.19689 0.74668 0.15013 0.0
H4795 H 0.21255 0.76585 0.16648 0.0
H4796 H 0.15603 0.8317 0.08764 0.0
H4797 H 0.17199 0.85071 0.10384 0.0
H4798 H 0.15879 0.7983 0.076 0.0
H4799 H 0.15766 0.77028 0.08555 0.0
C4800 C 0.13894 0.45206 0.046 0.0
C4801 C 0.1188 0.43882 0.04956 0.0
C4802 C 0.10501 0.46803 0.07582 0.0
C4803 C 0.12454 0.48174 0.07124 0.0
N4804 N 0.15664 0.48922 0.04738 0.0
N4805 N 0.08063 0.43635 0.06487 0.0
C4806 C 0.14036 0.47452 0.05485 0.0
C4807 C 0.10131 0.44733 0.06378 0.0
N4808 N 0.15751 0.44271 0.03538 0.0
N4809 N 0.08975 0.47491 0.09156 0.0
H4810 H 0.07698 0.42169 0.0558 0.0
H4811 H 0.0663 0.44276 0.07318 0.0
H4812 H 0.0903 0.49102 0.09851 0.0
H4813 H 0.07716 0.4645 0.09818 0.0
H4814 H 0.1734 0.45076 0.03419 0.0
H4815 H 0.15812 0.42585 0.03006 0.0
H4816 H 0.16679 0.48586 0.03358 0.0
H4817 H 0.15857 0.50563 0.05367 0.0
C4818 C 0.63519 0.02934 0.92514 0.0
C4819 C 0.62923 0.00828 0.93487 0.0
C4820 C 0.59677 0.02763 0.95326 0.0
C4821 C 0.60254 0.04759 0.94172 0.0
N4822 N 0.62029 0.0649 0.91042 0.0
N4823 N 0.60412 0.98743 0.95958 0.0
C4824 C 0.61883 0.04701 0.92477 0.0
C4825 C 0.60974 0.00722 0.94923 0.0
N4826 N 0.65719 0.03324 0.91824 0.0
N4827 N 0.57989 0.0288 0.96887 0.0
H4828 H 0.61466 0.97301 0.95987 0.0
H4829 H 0.5887 0.98515 0.96794 0.0
H4830 H 0.56984 0.04352 0.971 0.0
H4831 H 0.57609 0.01572 0.9798 0.0
H4832 H 0.66241 0.04896 0.9122 0.0
H4833 H 0.6708 0.02186 0.92157 0.0
H4834 H 0.63235 0.06559 0.89778 0.0
H4835 H 0.60808 0.07818 0.91043 0.0
C4836 C 0.23824 0.36851 0.21281 0.0
C4837 C 0.23721 0.37186 0.18932 0.0
C4838 C 0.20755 0.34254 0.18655 0.0
C4839 C 0.20557 0.3425 0.2097 0.0
N4840 N 0.22665 0.3454 0.24418 0.0
N4841 N 0.21488 0.36621 0.15541 0.0
C4842 C 0.22335 0.35238 0.22274 0.0
C4843 C 0.22055 0.35973 0.17646 0.0
N4844 N 0.25175 0.38222 0.22582 0.0
N4845 N 0.19652 0.32635 0.17424 0.0
H4846 H 0.22007 0.38155 0.14885 0.0
H4847 H 0.20131 0.35893 0.14645 0.0
H4848 H 0.18744 0.31326 0.18179 0.0
H4849 H 0.19877 0.32452 0.15717 0.0
H4850 H 0.25163 0.38199 0.2431 0.0
H4851 H 0.26104 0.39577 0.21947 0.0
H4852 H 0.24037 0.35063 0.25428 0.0
H4853 H 0.21735 0.33194 0.25077 0.0
C4854 C 0.87285 0.9445 0.46184 0.0
C4855 C 0.89283 0.93216 0.45443 0.0
C4856 C 0.9022 0.96419 0.4304 0.0
C4857 C 0.88069 0.97477 0.43523 0.0
N4858 N 0.84496 0.97511 0.45518 0.0
N4859 N 0.92518 0.92951 0.42959 0.0
C4860 C 0.86597 0.96507 0.45104 0.0
C4861 C 0.90697 0.94168 0.43791 0.0
N4862 N 0.86015 0.93658 0.47904 0.0
N4863 N 0.91888 0.97636 0.42022 0.0
H4864 H 0.93046 0.91368 0.43578 0.0
H4865 H 0.93412 0.93455 0.41557 0.0
H4866 H 0.9171 0.99383 0.41813 0.0
H4867 H 0.93552 0.97016 0.41727 0.0
H4868 H 0.84793 0.94646 0.48729 0.0
H4869 H 0.86219 0.92045 0.48572 0.0
H4870 H 0.83197 0.96742 0.46417 0.0
H4871 H 0.83981 0.99076 0.44847 0.0
C4872 C 0.79556 0.11098 0.19495 0.0
C4873 C 0.8053 0.13312 0.19591 0.0
C4874 C 0.77099 0.14773 0.17577 0.0
C4875 C 0.76066 0.12579 0.1767 0.0
N4876 N 0.76058 0.089 0.1942 0.0
N4877 N 0.80008 0.17344 0.1907 0.0
C4878 C 0.77213 0.10823 0.18854 0.0
C4879 C 0.79244 0.1518 0.18721 0.0
N4880 N 0.8091 0.09225 0.19885 0.0
N4881 N 0.76036 0.16471 0.16401 0.0
H4882 H 0.81569 0.17689 0.19887 0.0
H4883 H 0.79018 0.18792 0.18702 0.0
H4884 H 0.74397 0.16275 0.15725 0.0
H4885 H 0.7681 0.18014 0.16034 0.0
H4886 H 0.80333 0.07564 0.1967 0.0
H4887 H 0.82683 0.09354 0.20088 0.0
H4888 H 0.76769 0.0766 0.20473 0.0
H4889 H 0.74317 0.08655 0.19014 0.0
C4890 C 0.41035 0.54611 0.56254 0.0
C4891 C 0.40568 0.55044 0.53988 0.0
C4892 C 0.38131 0.51677 0.53739 0.0
C4893 C 0.38315 0.51386 0.5608 0.0
N4894 N 0.40275 0.52393 0.59508 0.0
N4895 N 0.39922 0.53215 0.50465 0.0
C4896 C 0.39876 0.52798 0.57318 0.0
C4897 C 0.39517 0.53322 0.52689 0.0
N4898 N 0.42588 0.55935 0.57378 0.0
N4899 N 0.36518 0.50513 0.52523 0.0
H4900 H 0.41108 0.54284 0.49711 0.0
H4901 H 0.3934 0.51891 0.49456 0.0
H4902 H 0.3533 0.4942 0.53228 0.0
H4903 H 0.36187 0.50836 0.50845 0.0
H4904 H 0.42756 0.56016 0.59098 0.0
H4905 H 0.43797 0.56907 0.56544 0.0
H4906 H 0.41626 0.5306 0.60452 0.0
H4907 H 0.3918 0.51398 0.60396 0.0
C4908 C 0.19569 0.61868 0.3147 0.0
C4909 C 0.19207 0.64045 0.305 0.0
C4910 C 0.23404 0.64581 0.30374 0.0
C4911 C 0.2371 0.62315 0.31148 0.0
N4912 N 0.22103 0.58588 0.31599 0.0
N4913 N 0.20746 0.67432 0.28848 0.0
C4914 C 0.21793 0.60891 0.31418 0.0
C4915 C 0.2112 0.65386 0.29879 0.0
N4916 N 0.17829 0.60732 0.32486 0.0
N4917 N 0.25261 0.65981 0.30202 0.0
H4918 H 0.19097 0.68153 0.28651 0.0
H4919 H 0.22052 0.68367 0.28121 0.0
H4920 H 0.26959 0.65427 0.30473 0.0
H4921 H 0.25114 0.6772 0.29889 0.0
H4922 H 0.18116 0.59231 0.33377 0.0
H4923 H 0.16178 0.61398 0.327 0.0
H4924 H 0.20733 0.57452 0.3163 0.0
H4925 H 0.23728 0.57811 0.31446 0.0
C4926 C 0.29386 0.34614 0.79642 0.0
C4927 C 0.30941 0.36359 0.79113 0.0
C4928 C 0.28117 0.39276 0.80254 0.0
C4929 C 0.26567 0.37538 0.80872 0.0
N4930 N 0.25768 0.33532 0.81272 0.0
N4931 N 0.32055 0.40268 0.79417 0.0
C4932 C 0.27228 0.35199 0.80619 0.0
C4933 C 0.30375 0.38667 0.79548 0.0
N4934 N 0.29938 0.32405 0.79128 0.0
N4935 N 0.27458 0.41517 0.80349 0.0
H4936 H 0.33742 0.39848 0.78988 0.0
H4937 H 0.31857 0.41941 0.79959 0.0
H4938 H 0.25921 0.42094 0.8104 0.0
H4939 H 0.28387 0.42819 0.7962 0.0
H4940 H 0.28796 0.31057 0.79241 0.0
H4941 H 0.31529 0.31923 0.78466 0.0
H4942 H 0.26255 0.31834 0.81483 0.0
H4943 H 0.24052 0.33869 0.81635 0.0
C4944 C 0.94466 0.86334 0.53477 0.0
C4945 C 0.94964 0.87528 0.51516 0.0
C4946 C 0.97036 0.90325 0.53862 0.0
C4947 C 0.96221 0.89223 0.55806 0.0
N4948 N 0.92881 0.87209 0.56987 0.0
N4949 N 0.96533 0.90903 0.49861 0.0
C4950 C 0.9459 0.8749 0.55508 0.0
C4951 C 0.96227 0.89592 0.517 0.0
N4952 N 0.93795 0.84121 0.53415 0.0
N4953 N 0.98428 0.92163 0.5409 0.0
H4954 H 0.95974 0.90405 0.48282 0.0
H4955 H 0.97226 0.9253 0.49919 0.0
H4956 H 0.98641 0.92968 0.5562 0.0
H4957 H 0.99303 0.92894 0.52777 0.0
H4958 H 0.93454 0.83217 0.54864 0.0
H4959 H 0.93828 0.83166 0.51952 0.0
H4960 H 0.91571 0.86019 0.56752 0.0
H4961 H 0.92596 0.88437 0.58202 0.0
C4962 C 0.85599 0.17798 0.30425 0.0
C4963 C 0.84243 0.19811 0.30561 0.0
C4964 C 0.84368 0.20053 0.26486 0.0
C4965 C 0.86096 0.18324 0.26518 0.0
N4966 N 0.8905 0.1645 0.28665 0.0
N4967 N 0.82352 0.22943 0.28633 0.0
C4968 C 0.86929 0.17465 0.28533 0.0
C4969 C 0.83628 0.2098 0.28556 0.0
N4970 N 0.85547 0.16141 0.32001 0.0
N4971 N 0.83467 0.2081 0.24508 0.0
H4972 H 0.81653 0.23549 0.30106 0.0
H4973 H 0.82059 0.23989 0.27258 0.0
H4974 H 0.84062 0.20204 0.22987 0.0
H4975 H 0.82064 0.21936 0.24389 0.0
H4976 H 0.8649 0.14626 0.31829 0.0
H4977 H 0.84389 0.1615 0.33306 0.0
H4978 H 0.89808 0.15994 0.30171 0.0
H4979 H 0.90168 0.16408 0.27325 0.0
C4980 C 0.54148 0.10638 0.0047 0.0
C4981 C 0.55403 0.12642 0.00099 0.0
C4982 C 0.54188 0.14292 0.0354 0.0
C4983 C 0.53153 0.12194 0.0409 0.0
N4984 N 0.51701 0.08523 0.02968 0.0
N4985 N 0.55505 0.16676 0.00561 0.0
C4986 C 0.52953 0.10416 0.02499 0.0
C4987 C 0.55005 0.14584 0.01379 0.0
N4988 N 0.54224 0.08946 0.98916 0.0
N4989 N 0.54614 0.1591 0.05118 0.0
H4990 H 0.56032 0.16883 0.98924 0.0
H4991 H 0.55131 0.18181 0.0141 0.0
H4992 H 0.5412 0.15762 0.06763 0.0
H4993 H 0.55627 0.17329 0.04821 0.0
H4994 H 0.53477 0.07357 0.99092 0.0
H4995 H 0.55051 0.09184 0.97403 0.0
H4996 H 0.51454 0.07176 0.01871 0.0
H4997 H 0.50814 0.08344 0.04453 0.0
C4998 C 0.61869 0.77643 0.79677 0.0
C4999 C 0.63675 0.77947 0.81288 0.0
C5000 C 0.65922 0.80021 0.78507 0.0
C5001 C 0.64105 0.79742 0.76924 0.0
N5002 N 0.60581 0.77879 0.75825 0.0
N5003 N 0.67577 0.79126 0.82139 0.0
C5004 C 0.6216 0.78413 0.77453 0.0
C5005 C 0.65744 0.79061 0.80675 0.0
N5006 N 0.598 0.76765 0.80302 0.0
N5007 N 0.67829 0.81211 0.77919 0.0
H5008 H 0.67528 0.78449 0.83734 0.0
H5009 H 0.69209 0.79713 0.81744 0.0
H5010 H 0.68181 0.81556 0.76264 0.0
H5011 H 0.69049 0.81843 0.79042 0.0
H5012 H 0.58307 0.76818 0.79313 0.0
H5013 H 0.59509 0.7613 0.81879 0.0
H5014 H 0.59276 0.76696 0.76028 0.0
H5015 H 0.60682 0.78468 0.742 0.0
C5016 C 0.95791 0.09513 0.94579 0.0
C5017 C 0.96596 0.11599 0.93694 0.0
C5018 C 0.96076 0.13413 0.97345 0.0
C5019 C 0.94953 0.1145 0.98116 0.0
N5020 N 0.9378 0.07583 0.97541 0.0
N5021 N 0.97066 0.15648 0.94146 0.0
C5022 C 0.94826 0.09482 0.96752 0.0
C5023 C 0.96645 0.13575 0.95064 0.0
N5024 N 0.96044 0.07546 0.93389 0.0
N5025 N 0.96562 0.15146 0.98787 0.0
H5026 H 0.97257 0.15861 0.92446 0.0
H5027 H 0.96944 0.1718 0.95009 0.0
H5028 H 0.96124 0.151 0.0046 0.0
H5029 H 0.97575 0.16532 0.98372 0.0
H5030 H 0.95703 0.05938 0.94019 0.0
H5031 H 0.96774 0.07494 0.91819 0.0
H5032 H 0.93325 0.06199 0.96554 0.0
H5033 H 0.93323 0.07427 0.99201 0.0
C5034 C 0.6183 0.21177 0.74387 0.0
C5035 C 0.63445 0.19457 0.7498 0.0
C5036 C 0.64749 0.19142 0.71158 0.0
C5037 C 0.62923 0.20652 0.70516 0.0
N5038 N 0.59516 0.22872 0.71436 0.0
N5039 N 0.66958 0.17455 0.74197 0.0
C5040 C 0.61431 0.21647 0.7211 0.0
C5041 C 0.65056 0.18622 0.73435 0.0
N5042 N 0.607 0.22368 0.75998 0.0
N5043 N 0.66162 0.18183 0.69602 0.0
H5044 H 0.67284 0.173 0.7589 0.0
H5045 H 0.68316 0.16893 0.73215 0.0
H5046 H 0.66175 0.18687 0.67946 0.0
H5047 H 0.67283 0.1682 0.6993 0.0
H5048 H 0.5966 0.23792 0.75675 0.0
H5049 H 0.61017 0.22099 0.77685 0.0
H5050 H 0.58236 0.2343 0.72513 0.0
H5051 H 0.59067 0.2314 0.69773 0.0
C5052 C 0.56243 0.86958 0.46988 0.0
C5053 C 0.55996 0.88458 0.48785 0.0
C5054 C 0.53667 0.91037 0.46419 0.0
C5055 C 0.54226 0.8963 0.44585 0.0
N5056 N 0.5684 0.86882 0.43066 0.0
N5057 N 0.54562 0.92005 0.50278 0.0
C5058 C 0.55744 0.87772 0.44854 0.0
C5059 C 0.54729 0.90536 0.48529 0.0
N5060 N 0.56923 0.8475 0.47308 0.0
N5061 N 0.52145 0.92811 0.4614 0.0
H5062 H 0.55257 0.91617 0.51846 0.0
H5063 H 0.53829 0.93628 0.50154 0.0
H5064 H 0.51425 0.93221 0.44588 0.0
H5065 H 0.5153 0.938 0.47445 0.0
H5066 H 0.56889 0.83559 0.46021 0.0
H5067 H 0.57275 0.84071 0.48878 0.0
H5068 H 0.5803 0.85555 0.43203 0.0
H5069 H 0.56759 0.8766 0.41509 0.0
C5070 C 0.85535 0.81199 0.18097 0.0
C5071 C 0.84591 0.79002 0.17854 0.0
C5072 C 0.85093 0.78522 0.21948 0.0
C5073 C 0.86469 0.80506 0.22029 0.0
N5074 N 0.88597 0.8321 0.19928 0.0
N5075 N 0.83124 0.75674 0.19697 0.0
C5076 C 0.86839 0.8171 0.20036 0.0
C5077 C 0.84266 0.7769 0.19834 0.0
N5078 N 0.85177 0.82824 0.16516 0.0
N5079 N 0.84543 0.77464 0.23887 0.0
H5080 H 0.82174 0.75208 0.18286 0.0
H5081 H 0.83112 0.74475 0.20968 0.0
H5082 H 0.85166 0.78006 0.25432 0.0
H5083 H 0.83378 0.76134 0.23989 0.0
H5084 H 0.85759 0.84487 0.16703 0.0
H5085 H 0.84 0.82608 0.1522 0.0
H5086 H 0.88989 0.84127 0.18505 0.0
H5087 H 0.89849 0.83242 0.21174 0.0
C5088 C 0.5509 0.93125 0.86216 0.0
C5089 C 0.53513 0.92914 0.87948 0.0
C5090 C 0.56198 0.95022 0.90396 0.0
C5091 C 0.57962 0.94724 0.88798 0.0
N5092 N 0.5911 0.93207 0.85243 0.0
N5093 N 0.52334 0.94021 0.91606 0.0
C5094 C 0.57412 0.93701 0.86719 0.0
C5095 C 0.53995 0.93994 0.90017 0.0
N5096 N 0.54331 0.92891 0.84081 0.0
N5097 N 0.56637 0.96271 0.92264 0.0
H5098 H 0.50648 0.9349 0.91266 0.0
H5099 H 0.52614 0.94543 0.93239 0.0
H5100 H 0.58249 0.96981 0.92584 0.0
H5101 H 0.55396 0.96708 0.93428 0.0
H5102 H 0.5538 0.93161 0.82715 0.0
H5103 H 0.52565 0.92782 0.83723 0.0
H5104 H 0.58809 0.92276 0.83794 0.0
H5105 H 0.60846 0.93519 0.85582 0.0
C5106 C 0.80471 0.81252 0.61563 0.0
C5107 C 0.80559 0.82398 0.63649 0.0
C5108 C 0.8285 0.79222 0.65229 0.0
C5109 C 0.82714 0.78089 0.63147 0.0
N5110 N 0.80921 0.7774 0.5952 0.0
N5111 N 0.81616 0.82413 0.67537 0.0
C5112 C 0.81373 0.79014 0.61378 0.0
C5113 C 0.81708 0.81374 0.65504 0.0
N5114 N 0.79658 0.82351 0.59705 0.0
N5115 N 0.84009 0.78193 0.66954 0.0
H5116 H 0.80721 0.83937 0.67805 0.0
H5117 H 0.82317 0.81737 0.68996 0.0
H5118 H 0.84595 0.76515 0.66857 0.0
H5119 H 0.84396 0.78966 0.68465 0.0
H5120 H 0.79843 0.81718 0.581 0.0
H5121 H 0.79009 0.84 0.59724 0.0
H5122 H 0.79677 0.78198 0.58326 0.0
H5123 H 0.81648 0.76136 0.59238 0.0
C5124 C 0.94066 0.03274 0.3683 0.0
C5125 C 0.92823 0.03356 0.38846 0.0
C5126 C 0.96071 0.05264 0.40695 0.0
C5127 C 0.97292 0.05157 0.38679 0.0
N5128 N 0.97775 0.03514 0.35047 0.0
N5129 N 0.92767 0.04045 0.42802 0.0
C5130 C 0.96399 0.03961 0.36826 0.0
C5131 C 0.93862 0.04238 0.40816 0.0
N5132 N 0.9297 0.02713 0.34881 0.0
N5133 N 0.97013 0.06387 0.4247 0.0
H5134 H 0.91147 0.03313 0.42953 0.0
H5135 H 0.93525 0.04453 0.44327 0.0
H5136 H 0.9872 0.0694 0.42486 0.0
H5137 H 0.96103 0.06813 0.43893 0.0
H5138 H 0.93718 0.02876 0.33328 0.0
H5139 H 0.91226 0.02307 0.34785 0.0
H5140 H 0.97285 0.02455 0.33739 0.0
H5141 H 0.99494 0.04023 0.34979 0.0
C5142 C 0.69116 0.21382 0.10791 0.0
C5143 C 0.69586 0.22814 0.12642 0.0
C5144 C 0.7026 0.19445 0.14991 0.0
C5145 C 0.6976 0.1807 0.13121 0.0
N5146 N 0.67684 0.17709 0.09674 0.0
N5147 N 0.70687 0.2327 0.16495 0.0
C5148 C 0.68874 0.19031 0.1115 0.0
C5149 C 0.70166 0.21858 0.14754 0.0
N5150 N 0.68968 0.22224 0.08681 0.0
N5151 N 0.70733 0.18423 0.16987 0.0
H5152 H 0.70783 0.25033 0.16318 0.0
H5153 H 0.71098 0.22728 0.18096 0.0
H5154 H 0.70614 0.16665 0.17193 0.0
H5155 H 0.71162 0.19276 0.18445 0.0
H5156 H 0.68792 0.21182 0.07287 0.0
H5157 H 0.69277 0.23911 0.08286 0.0
H5158 H 0.66781 0.18376 0.08304 0.0
H5159 H 0.67375 0.15992 0.09984 0.0
C5160 C 0.52945 0.04619 0.60515 0.0
C5161 C 0.5219 0.05516 0.62565 0.0
C5162 C 0.55746 0.04271 0.64387 0.0
C5163 C 0.56692 0.03787 0.62259 0.0
N5164 N 0.56161 0.03287 0.58303 0.0
N5165 N 0.52297 0.05076 0.66513 0.0
C5166 C 0.55269 0.03861 0.60322 0.0
C5167 C 0.53404 0.04981 0.64532 0.0
N5168 N 0.51391 0.04452 0.58792 0.0
N5169 N 0.57122 0.04235 0.66249 0.0
H5170 H 0.50555 0.05534 0.66626 0.0
H5171 H 0.53004 0.04389 0.67969 0.0
H5172 H 0.58857 0.03779 0.66219 0.0
H5173 H 0.56588 0.04831 0.6779 0.0
H5174 H 0.51753 0.03677 0.5728 0.0
H5175 H 0.4965 0.04899 0.58981 0.0
H5176 H 0.55291 0.03559 0.56798 0.0
H5177 H 0.57826 0.02616 0.58118 0.0
C5178 C 0.69979 0.80638 0.3445 0.0
C5179 C 0.71452 0.81747 0.35992 0.0
C5180 C 0.71473 0.7841 0.38442 0.0
C5181 C 0.69929 0.77334 0.36941 0.0
N5182 N 0.68103 0.77176 0.33339 0.0
N5183 N 0.73111 0.81947 0.39704 0.0
C5184 C 0.69282 0.78389 0.34901 0.0
C5185 C 0.7211 0.80692 0.3804 0.0
N5186 N 0.6917 0.81763 0.32598 0.0
N5187 N 0.72315 0.77263 0.40264 0.0
H5188 H 0.73408 0.83684 0.3958 0.0
H5189 H 0.73401 0.81349 0.41312 0.0
H5190 H 0.7179 0.75637 0.40701 0.0
H5191 H 0.73678 0.77844 0.41253 0.0
H5192 H 0.67813 0.81193 0.31595 0.0
H5193 H 0.6975 0.83353 0.32111 0.0
H5194 H 0.67745 0.77715 0.31724 0.0
H5195 H 0.67694 0.75503 0.33621 0.0
C5196 C 0.94214 0.95929 0.12388 0.0
C5197 C 0.92323 0.94776 0.11307 0.0
C5198 C 0.9513 0.91914 0.10098 0.0
C5199 C 0.96795 0.9272 0.11629 0.0
N5200 N 0.97701 0.9536 0.14592 0.0
N5201 N 0.91097 0.91122 0.0976 0.0
C5202 C 0.96277 0.94684 0.12892 0.0
C5203 C 0.92802 0.92611 0.10327 0.0
N5204 N 0.94158 0.98211 0.12825 0.0
N5205 N 0.95762 0.90525 0.08399 0.0
H5206 H 0.89416 0.91255 0.10344 0.0
H5207 H 0.91459 0.89539 0.09051 0.0
H5208 H 0.97495 0.90193 0.08076 0.0
H5209 H 0.94595 0.89999 0.07167 0.0
H5210 H 0.95584 0.99065 0.13483 0.0
H5211 H 0.92896 0.99328 0.12229 0.0
H5212 H 0.97245 0.96669 0.15679 0.0
H5213 H 0.99215 0.94488 0.15049 0.0
C5214 C 0.81051 0.2174 0.85171 0.0
C5215 C 0.82606 0.22105 0.87 0.0
C5216 C 0.82236 0.18117 0.88013 0.0
C5217 C 0.80489 0.17758 0.86377 0.0
N5218 N 0.78044 0.19377 0.83491 0.0
N5219 N 0.83587 0.20874 0.90673 0.0
C5220 C 0.79815 0.19628 0.84994 0.0
C5221 C 0.8286 0.20365 0.88582 0.0
N5222 N 0.80768 0.23401 0.83604 0.0
N5223 N 0.83419 0.16335 0.88941 0.0
H5224 H 0.83629 0.22569 0.91183 0.0
H5225 H 0.83724 0.1965 0.91926 0.0
H5226 H 0.8316 0.14659 0.88441 0.0
H5227 H 0.84823 0.16578 0.90024 0.0
H5228 H 0.79885 0.23163 0.82103 0.0
H5229 H 0.81489 0.25011 0.83797 0.0
H5230 H 0.77339 0.20718 0.82564 0.0
H5231 H 0.77196 0.17836 0.83265 0.0
C5232 C 0.87235 0.55632 0.92338 0.0
C5233 C 0.88428 0.55826 0.94386 0.0
C5234 C 0.88457 0.51614 0.94661 0.0
C5235 C 0.86814 0.51532 0.92882 0.0
N5236 N 0.84153 0.5361 0.9054 0.0
N5237 N 0.90794 0.53965 0.97152 0.0
C5238 C 0.86086 0.53581 0.9185 0.0
C5239 C 0.89211 0.53792 0.95463 0.0
N5240 N 0.87236 0.57353 0.90824 0.0
N5241 N 0.89312 0.49627 0.95541 0.0
H5242 H 0.91688 0.55475 0.97407 0.0
H5243 H 0.91309 0.52633 0.9819 0.0
H5244 H 0.88763 0.48035 0.94992 0.0
H5245 H 0.90593 0.49531 0.96771 0.0
H5246 H 0.86546 0.57155 0.89228 0.0
H5247 H 0.88193 0.58826 0.9104 0.0
H5248 H 0.83515 0.55067 0.89746 0.0
H5249 H 0.83034 0.52241 0.90549 0.0
C5250 C 0.36189 0.95233 0.06538 0.0
C5251 C 0.37931 0.95064 0.0493 0.0
C5252 C 0.37732 0.99201 0.04496 0.0
C5253 C 0.35711 0.99214 0.05805 0.0
N5254 N 0.32573 0.9709 0.07304 0.0
N5255 N 0.40513 0.9694 0.02424 0.0
C5256 C 0.34776 0.97172 0.06543 0.0
C5257 C 0.38743 0.97068 0.03894 0.0
N5258 N 0.35983 0.93651 0.08171 0.0
N5259 N 0.38685 0.01214 0.03879 0.0
H5260 H 0.41475 0.9545 0.02187 0.0
H5261 H 0.41014 0.98301 0.01443 0.0
H5262 H 0.37884 0.02779 0.04205 0.0
H5263 H 0.40285 0.01335 0.0312 0.0
H5264 H 0.34723 0.93796 0.09375 0.0
H5265 H 0.37285 0.92465 0.08547 0.0
H5266 H 0.31811 0.95572 0.07789 0.0
H5267 H 0.31459 0.98493 0.07176 0.0
C5268 C 0.76737 0.61143 0.79385 0.0
C5269 C 0.7559 0.62651 0.8083 0.0
C5270 C 0.78571 0.65531 0.80291 0.0
C5271 C 0.7968 0.64057 0.78776 0.0
N5272 N 0.79578 0.60569 0.76579 0.0
N5273 N 0.75107 0.66436 0.82287 0.0
C5274 C 0.78675 0.61914 0.78207 0.0
C5275 C 0.76423 0.64889 0.81181 0.0
N5276 N 0.76061 0.58921 0.79232 0.0
N5277 N 0.79563 0.67552 0.80876 0.0
H5278 H 0.73479 0.66024 0.82814 0.0
H5279 H 0.75489 0.68155 0.82447 0.0
H5280 H 0.8099 0.68217 0.80073 0.0
H5281 H 0.79033 0.68529 0.82223 0.0
H5282 H 0.77047 0.57647 0.78483 0.0
H5283 H 0.74591 0.58295 0.79994 0.0
H5284 H 0.78694 0.59212 0.75864 0.0
H5285 H 0.81152 0.60844 0.75851 0.0
C5286 C 0.09207 0.05248 0.54969 0.0
C5287 C 0.10941 0.06586 0.53996 0.0
C5288 C 0.13941 0.04081 0.55632 0.0
C5289 C 0.12217 0.02624 0.56433 0.0
N5290 N 0.08203 0.01531 0.56376 0.0
N5291 N 0.14918 0.06631 0.52705 0.0
C5292 C 0.09843 0.03115 0.55952 0.0
C5293 C 0.13296 0.05818 0.54115 0.0
N5294 N 0.06958 0.0599 0.54932 0.0
N5295 N 0.16212 0.0379 0.56254 0.0
H5296 H 0.14523 0.07629 0.51331 0.0
H5297 H 0.16614 0.0601 0.5267 0.0
H5298 H 0.16835 0.02421 0.57193 0.0
H5299 H 0.17457 0.05017 0.55954 0.0
H5300 H 0.05655 0.05191 0.55804 0.0
H5301 H 0.06427 0.0749 0.54139 0.0
H5302 H 0.0648 0.01702 0.55862 0.0
H5303 H 0.08616 -0.00051 0.57052 0.0
C5304 C 0.21622 0.89974 0.81788 0.0
C5305 C 0.2338 0.88273 0.81994 0.0
C5306 C 0.20743 0.85495 0.80206 0.0
C5307 C 0.18965 0.87184 0.80108 0.0
N5308 N 0.17539 0.90853 0.81272 0.0
N5309 N 0.24634 0.84385 0.81425 0.0
C5310 C 0.19359 0.89371 0.81034 0.0
C5311 C 0.22936 0.86016 0.81224 0.0
N5312 N 0.22115 0.92185 0.82288 0.0
N5313 N 0.20334 0.83404 0.79291 0.0
H5314 H 0.26335 0.84761 0.81873 0.0
H5315 H 0.24374 0.82655 0.81177 0.0
H5316 H 0.18718 0.82952 0.78643 0.0
H5317 H 0.21583 0.82132 0.79109 0.0
H5318 H 0.21004 0.93547 0.81923 0.0
H5319 H 0.2372 0.92691 0.82898 0.0
H5320 H 0.17646 0.92384 0.82135 0.0
H5321 H 0.15853 0.90437 0.8082 0.0
C5322 C 0.59708 0.46623 0.46442 0.0
C5323 C 0.59795 0.44557 0.45219 0.0
C5324 C 0.62662 0.46184 0.42829 0.0
C5325 C 0.62373 0.4838 0.4378 0.0
N5326 N 0.60243 0.50694 0.46469 0.0
N5327 N 0.60622 0.42853 0.41655 0.0
C5328 C 0.60776 0.48618 0.45576 0.0
C5329 C 0.60988 0.44515 0.43196 0.0
N5330 N 0.58635 0.46669 0.48447 0.0
N5331 N 0.64651 0.45579 0.41782 0.0
H5332 H 0.59279 0.41699 0.41743 0.0
H5333 H 0.61436 0.4287 0.40128 0.0
H5334 H 0.6614 0.46553 0.41918 0.0
H5335 H 0.64938 0.43937 0.41175 0.0
H5336 H 0.58788 0.48012 0.49569 0.0
H5337 H 0.57675 0.45302 0.4902 0.0
H5338 H 0.58891 0.50935 0.47573 0.0
H5339 H 0.61012 0.52211 0.46046 0.0
C5340 C 0.77013 0.34933 0.67894 0.0
C5341 C 0.75963 0.37097 0.68254 0.0
C5342 C 0.79562 0.38544 0.69775 0.0
C5343 C 0.80593 0.3636 0.69496 0.0
N5344 N 0.80222 0.32358 0.68712 0.0
N5345 N 0.76018 0.40741 0.70089 0.0
C5346 C 0.79293 0.34511 0.68689 0.0
C5347 C 0.77163 0.38824 0.69397 0.0
N5348 N 0.75857 0.33311 0.66727 0.0
N5349 N 0.80901 0.40382 0.7025 0.0
H5350 H 0.74251 0.41008 0.69811 0.0
H5351 H 0.76775 0.41962 0.71114 0.0
H5352 H 0.8269 0.40262 0.70354 0.0
H5353 H 0.80272 0.4205 0.70279 0.0
H5354 H 0.76603 0.31796 0.66172 0.0
H5355 H 0.74161 0.33565 0.66213 0.0
H5356 H 0.79265 0.30904 0.68375 0.0
H5357 H 0.81921 0.32001 0.69222 0.0
C5358 C 0.73264 0.64417 0.20144 0.0
C5359 C 0.73348 0.62342 0.18933 0.0
C5360 C 0.69164 0.61898 0.19357 0.0
C5361 C 0.6904 0.64022 0.2051 0.0
N5362 N 0.7092 0.6737 0.21908 0.0
N5363 N 0.71545 0.589 0.17721 0.0
C5364 C 0.71085 0.65294 0.20889 0.0
C5365 C 0.71342 0.6102 0.18647 0.0
N5366 N 0.75292 0.65482 0.20661 0.0
N5367 N 0.67191 0.60704 0.18977 0.0
H5368 H 0.73148 0.58119 0.17471 0.0
H5369 H 0.70181 0.5785 0.17285 0.0
H5370 H 0.65581 0.61377 0.19322 0.0
H5371 H 0.67093 0.59104 0.18254 0.0
H5372 H 0.75423 0.66912 0.2167 0.0
H5373 H 0.769 0.64832 0.2019 0.0
H5374 H 0.72289 0.68484 0.22119 0.0
H5375 H 0.69348 0.68057 0.22437 0.0
C5376 C 0.54068 0.60776 0.97548 0.0
C5377 C 0.5562 0.62635 0.9762 0.0
C5378 C 0.55455 0.62813 0.93512 0.0
C5379 C 0.53731 0.61107 0.93435 0.0
N5380 N 0.51304 0.58522 0.95413 0.0
N5381 N 0.57248 0.6579 0.95684 0.0
C5382 C 0.53006 0.60113 0.9547 0.0
C5383 C 0.56171 0.63743 0.95602 0.0
N5384 N 0.53627 0.59627 0.99465 0.0
N5385 N 0.56411 0.63575 0.91594 0.0
H5386 H 0.57549 0.66612 0.97185 0.0
H5387 H 0.57536 0.66799 0.94296 0.0
H5388 H 0.55894 0.63034 0.9002 0.0
H5389 H 0.5786 0.64612 0.91573 0.0
H5390 H 0.52703 0.5812 0.99524 0.0
H5391 H 0.54297 0.60124 0.01008 0.0
H5392 H 0.50467 0.57939 0.96817 0.0
H5393 H 0.50676 0.5783 0.93932 0.0
C5394 C 0.62783 0.32359 0.21115 0.0
C5395 C 0.63472 0.31436 0.23165 0.0
C5396 C 0.66041 0.28768 0.21236 0.0
C5397 C 0.6549 0.29898 0.192 0.0
N5398 N 0.64196 0.33499 0.17585 0.0
N5399 N 0.6603 0.28967 0.25279 0.0
C5400 C 0.64154 0.31939 0.19255 0.0
C5401 C 0.65196 0.29699 0.23266 0.0
N5402 N 0.60778 0.33589 0.20936 0.0
N5403 N 0.67383 0.2684 0.21226 0.0
H5404 H 0.65369 0.29571 0.26775 0.0
H5405 H 0.67443 0.27862 0.25459 0.0
H5406 H 0.68199 0.26259 0.19796 0.0
H5407 H 0.67635 0.25804 0.22614 0.0
H5408 H 0.60191 0.34346 0.19467 0.0
H5409 H 0.59586 0.33598 0.22216 0.0
H5410 H 0.63303 0.35046 0.17665 0.0
H5411 H 0.65332 0.33413 0.16277 0.0
C5412 C 0.96998 0.39437 0.47043 0.0
C5413 C 0.96252 0.38153 0.45178 0.0
C5414 C 0.94676 0.35309 0.47596 0.0
C5415 C 0.94743 0.36877 0.49316 0.0
N5416 N 0.96518 0.40099 0.51016 0.0
N5417 N 0.9385 0.35163 0.43705 0.0
C5418 C 0.96167 0.38806 0.49162 0.0
C5419 C 0.94982 0.36138 0.45449 0.0
N5420 N 0.98361 0.41294 0.46763 0.0
N5421 N 0.94102 0.33116 0.47999 0.0
H5422 H 0.93789 0.35902 0.42134 0.0
H5423 H 0.92715 0.33824 0.43919 0.0
H5424 H 0.93853 0.3255 0.49622 0.0
H5425 H 0.94158 0.31871 0.46763 0.0
H5426 H 0.99017 0.42267 0.48066 0.0
H5427 H 0.98883 0.41832 0.45198 0.0
H5428 H 0.97391 0.41636 0.5104 0.0
H5429 H 0.95887 0.39583 0.52551 0.0
C5430 C 0.85134 0.69544 0.6905 0.0
C5431 C 0.86459 0.71548 0.68664 0.0
C5432 C 0.86829 0.72041 0.72751 0.0
C5433 C 0.85808 0.69906 0.73038 0.0
N5434 N 0.8281 0.67481 0.71676 0.0
N5435 N 0.88249 0.74926 0.70341 0.0
C5436 C 0.84561 0.68939 0.71251 0.0
C5437 C 0.87195 0.72874 0.70567 0.0
N5438 N 0.84484 0.68162 0.6734 0.0
N5439 N 0.87182 0.73391 0.74575 0.0
H5440 H 0.87845 0.76085 0.69092 0.0
H5441 H 0.89387 0.75574 0.71535 0.0
H5442 H 0.86646 0.72917 0.76154 0.0
H5443 H 0.87716 0.75074 0.74508 0.0
H5444 H 0.8299 0.672 0.67332 0.0
H5445 H 0.85608 0.67751 0.66061 0.0
H5446 H 0.81906 0.66552 0.70484 0.0
H5447 H 0.82023 0.67514 0.73217 0.0
C5448 C 0.52606 0.39701 0.54701 0.0
C5449 C 0.53471 0.38368 0.56511 0.0
C5450 C 0.55808 0.3612 0.53934 0.0
C5451 C 0.55132 0.37581 0.52156 0.0
N5452 N 0.53069 0.40935 0.50882 0.0
N5453 N 0.56152 0.35489 0.57898 0.0
C5454 C 0.53594 0.39435 0.52555 0.0
C5455 C 0.55183 0.36662 0.56145 0.0
N5456 N 0.50791 0.41171 0.5502 0.0
N5457 N 0.56922 0.34125 0.53484 0.0
H5458 H 0.55664 0.35717 0.59539 0.0
H5459 H 0.57575 0.34398 0.57756 0.0
H5460 H 0.57054 0.33561 0.51865 0.0
H5461 H 0.574 0.32905 0.54661 0.0
H5462 H 0.49899 0.41993 0.53731 0.0
H5463 H 0.50079 0.41454 0.56576 0.0
H5464 H 0.5217 0.4246 0.51126 0.0
H5465 H 0.53646 0.40718 0.49262 0.0
C5466 C 0.85034 0.309 0.78368 0.0
C5467 C 0.86668 0.29303 0.79226 0.0
C5468 C 0.88051 0.28506 0.75468 0.0
C5469 C 0.86662 0.30354 0.7472 0.0
N5470 N 0.82886 0.3205 0.75087 0.0
N5471 N 0.89257 0.26106 0.78576 0.0
C5472 C 0.84845 0.31163 0.76053 0.0
C5473 C 0.88039 0.27947 0.77768 0.0
N5474 N 0.83751 0.32253 0.79741 0.0
N5475 N 0.89228 0.27215 0.73962 0.0
H5476 H 0.89054 0.25479 0.80179 0.0
H5477 H 0.90403 0.25123 0.7766 0.0
H5478 H 0.88917 0.27363 0.72258 0.0
H5479 H 0.90354 0.25881 0.74362 0.0
H5480 H 0.82697 0.33579 0.7915 0.0
H5481 H 0.83901 0.32206 0.81467 0.0
H5482 H 0.81434 0.32541 0.75983 0.0
H5483 H 0.82616 0.31965 0.73371 0.0
C5484 C 0.95652 0.61927 0.01361 0.0
C5485 C 0.93423 0.61018 0.00952 0.0
C5486 C 0.93169 0.59733 0.04753 0.0
C5487 C 0.9531 0.60768 0.05232 0.0
N5488 N 0.98959 0.62126 0.03887 0.0
N5489 N 0.91003 0.57857 0.01897 0.0
C5490 C 0.96676 0.61656 0.03504 0.0
C5491 C 0.92471 0.59532 0.02527 0.0
N5492 N 0.96801 0.62986 0.99697 0.0
N5493 N 0.91737 0.59048 0.06404 0.0
H5494 H 0.90713 0.57499 0.00239 0.0
H5495 H 0.904 0.56631 0.02989 0.0
H5496 H 0.92049 0.59388 0.08078 0.0
H5497 H 0.90105 0.58376 0.0609 0.0
H5498 H 0.98266 0.63971 -0.00039 0.0
H5499 H 0.96293 0.62842 0.98034 0.0
H5500 H 0.00093 0.62603 0.02649 0.0
H5501 H 0.99786 0.61831 0.05414 0.0
C5502 C 0.65458 0.70667 0.2802 0.0
C5503 C 0.6346 0.69302 0.2774 0.0
C5504 C 0.63541 0.68516 0.3172 0.0
C5505 C 0.65144 0.70251 0.32098 0.0
N5506 N 0.68206 0.72439 0.30596 0.0
N5507 N 0.60186 0.67652 0.2952 0.0
C5508 C 0.66266 0.71196 0.30231 0.0
C5509 C 0.62394 0.68407 0.29641 0.0
N5510 N 0.66552 0.71456 0.26184 0.0
N5511 N 0.63184 0.66899 0.33287 0.0
H5512 H 0.59152 0.67988 0.28122 0.0
H5513 H 0.59324 0.67032 0.309 0.0
H5514 H 0.64069 0.66877 0.34809 0.0
H5515 H 0.62211 0.65459 0.32926 0.0
H5516 H 0.68053 0.72412 0.26231 0.0
H5517 H 0.6594 0.71141 0.24575 0.0
H5518 H 0.69052 0.73358 0.29385 0.0
H5519 H 0.69041 0.72412 0.32146 0.0
C5520 C 0.93408 0.55136 0.59343 0.0
C5521 C 0.91799 0.5535 0.61088 0.0
C5522 C 0.94937 0.56563 0.63627 0.0
C5523 C 0.96453 0.56658 0.61826 0.0
N5524 N 0.97425 0.55289 0.58197 0.0
N5525 N 0.90958 0.56589 0.64812 0.0
C5526 C 0.95769 0.55711 0.59746 0.0
C5527 C 0.92548 0.5613 0.63218 0.0
N5528 N 0.92646 0.54474 0.57282 0.0
N5529 N 0.95803 0.5678 0.65731 0.0
H5530 H 0.89191 0.56514 0.64482 0.0
H5531 H 0.91371 0.57317 0.66343 0.0
H5532 H 0.97575 0.56927 0.66041 0.0
H5533 H 0.94823 0.56518 0.67143 0.0
H5534 H 0.93663 0.54453 0.55873 0.0
H5535 H 0.9092 0.54088 0.56939 0.0
H5536 H 0.97122 0.54499 0.56676 0.0
H5537 H 0.99179 0.55551 0.58539 0.0
C5538 C 0.69183 0.68888 0.84379 0.0
C5539 C 0.68897 0.67059 0.85856 0.0
C5540 C 0.66887 0.69518 0.88467 0.0
C5541 C 0.67396 0.71434 0.87108 0.0
N5542 N 0.69104 0.72949 0.83773 0.0
N5543 N 0.66729 0.65411 0.88814 0.0
C5544 C 0.6857 0.71125 0.85064 0.0
C5545 C 0.67497 0.67303 0.8774 0.0
N5546 N 0.69794 0.68439 0.8224 0.0
N5547 N 0.66009 0.69827 0.90543 0.0
H5548 H 0.67129 0.6376 0.88307 0.0
H5549 H 0.65511 0.65447 0.90067 0.0
H5550 H 0.65913 0.71413 0.91294 0.0
H5551 H 0.65656 0.68524 0.91649 0.0
H5552 H 0.69874 0.69667 0.80999 0.0
H5553 H 0.69924 0.66773 0.81647 0.0
H5554 H 0.7024 0.72849 0.8245 0.0
H5555 H 0.68508 0.74593 0.84073 0.0
C5556 C 0.56901 0.44056 0.11195 0.0
C5557 C 0.57127 0.46413 0.11631 0.0
C5558 C 0.52876 0.46686 0.11884 0.0
C5559 C 0.52752 0.44347 0.11335 0.0
N5560 N 0.54671 0.4146 0.09124 0.0
N5561 N 0.5513 0.50113 0.11873 0.0
C5562 C 0.54748 0.43236 0.10555 0.0
C5563 C 0.55062 0.47788 0.11836 0.0
N5564 N 0.58718 0.42564 0.11401 0.0
N5565 N 0.509 0.47866 0.12382 0.0
H5566 H 0.56621 0.5107 0.1189 0.0
H5567 H 0.53658 0.51144 0.11713 0.0
H5568 H 0.49258 0.4721 0.12069 0.0
H5569 H 0.50893 0.49471 0.13117 0.0
H5570 H 0.58599 0.40876 0.10881 0.0
H5571 H 0.60203 0.42941 0.12329 0.0
H5572 H 0.5315 0.40927 0.08353 0.0
H5573 H 0.5315 0.40927 0.08353 0.0
C5574 C 0.80242 0.30718 0.38604 0.0
C5575 C 0.79589 0.31713 0.36549 0.0
C5576 C 0.79605 0.27953 0.34782 0.0
C5577 C 0.80127 0.26947 0.36881 0.0
N5578 N 0.80317 0.27363 0.40891 0.0
N5579 N 0.78435 0.31347 0.32712 0.0
C5580 C 0.80262 0.28321 0.38823 0.0
C5581 C 0.79224 0.30351 0.34636 0.0
N5582 N 0.80871 0.32073 0.40353 0.0
N5583 N 0.79415 0.266 0.32944 0.0
H5584 H 0.78229 0.33104 0.32542 0.0
H5585 H 0.77891 0.30447 0.31314 0.0
H5586 H 0.79401 0.24828 0.33044 0.0
H5587 H 0.79309 0.27215 0.31325 0.0
H5588 H 0.8166 0.31452 0.41801 0.0
H5589 H 0.808 0.33843 0.40278 0.0
H5590 H 0.80168 0.28302 0.42351 0.0
H5591 H 0.80271 0.25626 0.41177 0.0
C5592 C 0.93796 0.44324 0.89193 0.0
C5593 C 0.92677 0.45471 0.8741 0.0
C5594 C 0.96191 0.45244 0.85207 0.0
C5595 C 0.97131 0.43744 0.868 0.0
N5596 N 0.96937 0.41845 0.90366 0.0
N5597 N 0.92762 0.47002 0.83666 0.0
C5598 C 0.95976 0.43291 0.88823 0.0
C5599 C 0.93867 0.45952 0.8541 0.0
N5600 N 0.92808 0.4429 0.91246 0.0
N5601 N 0.97539 0.46034 0.83533 0.0
H5602 H 0.91119 0.47707 0.83767 0.0
H5603 H 0.93441 0.47073 0.82075 0.0
H5604 H 0.99266 0.45537 0.8335 0.0
H5605 H 0.9702 0.4734 0.82459 0.0
H5606 H 0.93645 0.43689 0.92675 0.0
H5607 H 0.91219 0.45066 0.91582 0.0
H5608 H 0.96106 0.41321 0.91794 0.0
H5609 H 0.98512 0.41011 0.90152 0.0
C5610 C 0.78606 0.70247 0.15052 0.0
C5611 C 0.79591 0.68367 0.13912 0.0
C5612 C 0.80483 0.70775 0.10804 0.0
C5613 C 0.79806 0.72702 0.12014 0.0
N5614 N 0.78349 0.74368 0.15379 0.0
N5615 N 0.82398 0.67175 0.11226 0.0
C5616 C 0.789 0.72471 0.14177 0.0
C5617 C 0.80821 0.68726 0.11951 0.0
N5618 N 0.77417 0.69894 0.16959 0.0
N5619 N 0.80828 0.70893 0.08572 0.0
H5620 H 0.82792 0.6567 0.12069 0.0
H5621 H 0.83484 0.6754 0.0991 0.0
H5622 H 0.80475 0.72367 0.0766 0.0
H5623 H 0.8124 0.69463 0.07621 0.0
H5624 H 0.76469 0.71159 0.17763 0.0
H5625 H 0.77347 0.68291 0.17695 0.0
H5626 H 0.77891 0.74325 0.17044 0.0
H5627 H 0.78434 0.76002 0.14708 0.0
C5628 C 0.57195 0.55599 0.36331 0.0
C5629 C 0.57624 0.54824 0.38522 0.0
C5630 C 0.53676 0.56005 0.39504 0.0
C5631 C 0.53277 0.56785 0.37283 0.0
N5632 N 0.54352 0.56202 0.33437 0.0
N5633 N 0.5633 0.54278 0.42249 0.0
C5634 C 0.54929 0.56228 0.35645 0.0
C5635 C 0.55873 0.55018 0.40133 0.0
N5636 N 0.58992 0.55877 0.34925 0.0
N5637 N 0.51872 0.56025 0.40933 0.0
H5638 H 0.57918 0.53543 0.42716 0.0
H5639 H 0.55195 0.54439 0.43564 0.0
H5640 H 0.50196 0.56355 0.40359 0.0
H5641 H 0.51966 0.55516 0.42584 0.0
H5642 H 0.58803 0.56576 0.33345 0.0
H5643 H 0.60703 0.55679 0.3545 0.0
H5644 H 0.5548 0.55601 0.32229 0.0
H5645 H 0.52691 0.56487 0.32811 0.0
C5646 C 0.66884 0.31746 0.61838 0.0
C5647 C 0.68779 0.32109 0.63309 0.0
C5648 C 0.68818 0.2799 0.64137 0.0
C5649 C 0.67098 0.27637 0.62462 0.0
N5650 N 0.64964 0.29133 0.59345 0.0
N5651 N 0.7072 0.30705 0.66579 0.0
C5652 C 0.66306 0.29501 0.61185 0.0
C5653 C 0.69569 0.30251 0.64639 0.0
N5654 N 0.65411 0.3349 0.61305 0.0
N5655 N 0.69697 0.26148 0.65262 0.0
H5656 H 0.70825 0.32366 0.67183 0.0
H5657 H 0.71239 0.29475 0.67731 0.0
H5658 H 0.69163 0.24495 0.64899 0.0
H5659 H 0.71071 0.26228 0.66397 0.0
H5660 H 0.63782 0.33193 0.60604 0.0
H5661 H 0.65669 0.35159 0.61812 0.0
H5662 H 0.64443 0.30439 0.58268 0.0
H5663 H 0.64609 0.27489 0.58796 0.0
C5664 C 0.62726 0.95945 0.57906 0.0
C5665 C 0.6248 0.98088 0.5688 0.0
C5666 C 0.60535 0.96161 0.53713 0.0
C5667 C 0.60816 0.94016 0.54819 0.0
N5668 N 0.60842 0.9238 0.58494 0.0
N5669 N 0.6061 0.00313 0.53992 0.0
C5670 C 0.61479 0.94062 0.57085 0.0
C5671 C 0.61225 0.98227 0.54825 0.0
N5672 N 0.64311 0.95644 0.59563 0.0
N5673 N 0.59525 0.96233 0.5165 0.0
H5674 H 0.61049 0.01828 0.54787 0.0
H5675 H 0.5952 0.00548 0.52617 0.0
H5676 H 0.58653 0.94846 0.50974 0.0
H5677 H 0.59529 0.97661 0.50629 0.0
H5678 H 0.64641 0.94075 0.60286 0.0
H5679 H 0.65528 0.96871 0.59925 0.0
H5680 H 0.61181 0.92473 0.60191 0.0
H5681 H 0.59626 0.91159 0.58054 0.0
C5682 C 0.14086 0.52741 0.42853 0.0
C5683 C 0.1347 0.5063 0.43734 0.0
C5684 C 0.10434 0.52526 0.45876 0.0
C5685 C 0.10967 0.54574 0.44775 0.0
N5686 N 0.12568 0.56344 0.41614 0.0
N5687 N 0.10818 0.48395 0.45863 0.0
C5688 C 0.12535 0.54569 0.43045 0.0
C5689 C 0.11557 0.50474 0.45183 0.0
N5690 N 0.16183 0.53016 0.41901 0.0
N5691 N 0.08886 0.52564 0.47561 0.0
H5692 H 0.11682 0.46889 0.45438 0.0
H5693 H 0.0931 0.4817 0.46757 0.0
H5694 H 0.07985 0.54051 0.47984 0.0
H5695 H 0.08555 0.51159 0.48556 0.0
H5696 H 0.16776 0.54588 0.41363 0.0
H5697 H 0.17414 0.5171 0.41933 0.0
H5698 H 0.13693 0.56357 0.40304 0.0
H5699 H 0.11325 0.57649 0.41633 0.0
C5700 C 0.72431 0.85322 0.67765 0.0
C5701 C 0.7392 0.87016 0.68722 0.0
C5702 C 0.72275 0.86098 0.72396 0.0
C5703 C 0.70554 0.84789 0.7132 0.0
N5704 N 0.69942 0.82095 0.68403 0.0
N5705 N 0.75465 0.88696 0.72123 0.0
C5706 C 0.70948 0.84055 0.69137 0.0
C5707 C 0.73912 0.87303 0.71092 0.0
N5708 N 0.7227 0.85021 0.65527 0.0
N5709 N 0.72517 0.85962 0.74653 0.0
H5710 H 0.77007 0.8919 0.71413 0.0
H5711 H 0.75242 0.89327 0.73723 0.0
H5712 H 0.71589 0.84801 0.75586 0.0
H5713 H 0.73843 0.86722 0.75562 0.0
H5714 H 0.71044 0.83994 0.6475 0.0
H5715 H 0.73171 0.85974 0.64413 0.0
H5716 H 0.70312 0.81329 0.66887 0.0
H5717 H 0.68968 0.81082 0.69454 0.0
C5718 C 0.37402 0.44992 0.91904 0.0
C5719 C 0.37505 0.47021 0.93185 0.0
C5720 C 0.39958 0.4503 0.9593 0.0
C5721 C 0.39696 0.42996 0.94687 0.0
N5722 N 0.3941 0.41505 0.9096 0.0
N5723 N 0.39644 0.49152 0.95962 0.0
C5724 C 0.38853 0.43132 0.92484 0.0
C5725 C 0.39013 0.47108 0.95073 0.0
N5726 N 0.35812 0.44771 0.90225 0.0
N5727 N 0.41137 0.44961 0.97909 0.0
H5728 H 0.39114 0.50708 0.95289 0.0
H5729 H 0.40885 0.49314 0.97222 0.0
H5730 H 0.42089 0.43521 0.98399 0.0
H5731 H 0.41152 0.46299 0.99045 0.0
H5732 H 0.35653 0.43304 0.89269 0.0
H5733 H 0.34471 0.45937 0.89961 0.0
H5734 H 0.38915 0.41621 0.89291 0.0
H5735 H 0.40647 0.40242 0.91286 0.0
C5736 C 0.29887 0.60887 0.6943 0.0
C5737 C 0.30565 0.6315 0.69883 0.0
C5738 C 0.26812 0.64499 0.68335 0.0
C5739 C 0.2612 0.62202 0.67988 0.0
N5740 N 0.26702 0.5829 0.69094 0.0
N5741 N 0.29555 0.67126 0.7005 0.0
C5742 C 0.27562 0.6042 0.68813 0.0
C5743 C 0.28992 0.64969 0.69412 0.0
N5744 N 0.31502 0.59178 0.69483 0.0
N5745 N 0.25354 0.66225 0.67697 0.0
H5746 H 0.31163 0.67515 0.70754 0.0
H5747 H 0.28406 0.68503 0.6999 0.0
H5748 H 0.23663 0.65922 0.67181 0.0
H5749 H 0.25814 0.67931 0.67657 0.0
H5750 H 0.31142 0.57516 0.68994 0.0
H5751 H 0.33251 0.59496 0.69755 0.0
H5752 H 0.27635 0.56995 0.699 0.0
H5753 H 0.25002 0.57871 0.68681 0.0
C5754 C 0.90546 0.04538 0.05938 0.0
C5755 C 0.89781 0.05174 0.03778 0.0
C5756 C 0.87152 0.01954 0.03653 0.0
C5757 C 0.87765 0.01418 0.05883 0.0
N5758 N 0.90829 0.01506 0.08622 0.0
N5759 N 0.88568 0.03558 0.00254 0.0
C5760 C 0.89685 0.02517 0.06891 0.0
C5761 C 0.88455 0.03601 0.02517 0.0
N5762 N 0.92163 0.05799 0.07043 0.0
N5763 N 0.85312 0.00941 0.02625 0.0
H5764 H 0.89793 0.0448 0.99391 0.0
H5765 H 0.87732 0.02337 0.99286 0.0
H5766 H 0.84262 0.99773 0.03416 0.0
H5767 H 0.84708 0.01434 0.01054 0.0
H5768 H 0.92513 0.05624 0.08738 0.0
H5769 H 0.93161 0.07008 0.06245 0.0
H5770 H 0.92372 0.02107 0.09304 0.0
H5771 H 0.90379 -0.00098 0.09164 0.0
C5772 C 0.71144 0.153 0.80003 0.0
C5773 C 0.69183 0.14181 0.80831 0.0
C5774 C 0.71556 0.11001 0.8211 0.0
C5775 C 0.73541 0.12134 0.81396 0.0
N5776 N 0.75335 0.15293 0.79598 0.0
N5777 N 0.67616 0.11386 0.83312 0.0
C5778 C 0.73369 0.14277 0.8032 0.0
C5779 C 0.69422 0.12172 0.82104 0.0
N5780 N 0.70852 0.17362 0.78987 0.0
N5781 N 0.71705 0.08767 0.82708 0.0
H5782 H 0.66028 0.12232 0.83407 0.0
H5783 H 0.67768 0.10012 0.84396 0.0
H5784 H 0.73223 0.07831 0.82497 0.0
H5785 H 0.70296 0.07795 0.83163 0.0
H5786 H 0.72155 0.18248 0.78207 0.0
H5787 H 0.69265 0.18229 0.79012 0.0
H5788 H 0.7538 0.16889 0.78859 0.0
H5789 H 0.76957 0.14498 0.79725 0.0
C5790 C 0.80578 0.87944 0.30148 0.0
C5791 C 0.80898 0.85743 0.29214 0.0
C5792 C 0.76847 0.84878 0.30129 0.0
C5793 C 0.76515 0.87151 0.30916 0.0
N5794 N 0.77882 0.90999 0.30934 0.0
N5795 N 0.79242 0.82194 0.2805 0.0
C5796 C 0.78331 0.88723 0.3071 0.0
C5797 C 0.78997 0.84233 0.29118 0.0
N5798 N 0.82435 0.89291 0.30557 0.0
N5799 N 0.75149 0.83318 0.30408 0.0
H5800 H 0.80812 0.81645 0.2739 0.0
H5801 H 0.77871 0.81109 0.27709 0.0
H5802 H 0.7355 0.83746 0.31065 0.0
H5803 H 0.75366 0.81584 0.3011 0.0
H5804 H 0.82338 0.90823 0.31427 0.0
H5805 H 0.84105 0.88731 0.30272 0.0
H5806 H 0.79089 0.92249 0.30597 0.0
H5807 H 0.76215 0.91642 0.3117 0.0
C5808 C 0.43154 0.39389 0.03273 0.0
C5809 C 0.44251 0.37925 0.01695 0.0
C5810 C 0.47811 0.38336 0.03984 0.0
C5811 C 0.46498 0.3907 0.05849 0.0
N5812 N 0.42916 0.40839 0.06998 0.0
N5813 N 0.47924 0.36387 0.00454 0.0
C5814 C 0.44156 0.39714 0.05428 0.0
C5815 C 0.46661 0.37477 0.0204 0.0
N5816 N 0.41339 0.40746 0.02643 0.0
N5817 N 0.50129 0.38748 0.03928 0.0
H5818 H 0.4735 0.36173 0.98823 0.0
H5819 H 0.49577 0.35723 0.00776 0.0
H5820 H 0.50939 0.39815 0.05072 0.0
H5821 H 0.51149 0.38403 0.02554 0.0
H5822 H 0.40605 0.41992 0.03653 0.0
H5823 H 0.40835 0.40921 0.01011 0.0
H5824 H 0.4111 0.40902 0.06963 0.0
H5825 H 0.43701 0.41869 0.08187 0.0
C5826 C 0.33497 0.67982 0.77257 0.0
C5827 C 0.35203 0.68841 0.75865 0.0
C5828 C 0.3566 0.71986 0.78462 0.0
C5829 C 0.34575 0.70682 0.80165 0.0
N5830 N 0.32852 0.66978 0.81023 0.0
N5831 N 0.38037 0.71735 0.75198 0.0
C5832 C 0.33566 0.68558 0.79529 0.0
C5833 C 0.3632 0.70877 0.76469 0.0
N5834 N 0.31809 0.66628 0.76411 0.0
N5835 N 0.35967 0.74276 0.78665 0.0
H5836 H 0.38536 0.71003 0.737 0.0
H5837 H 0.39056 0.73093 0.75722 0.0
H5838 H 0.35249 0.75243 0.7993 0.0
H5839 H 0.36629 0.75262 0.77388 0.0
H5840 H 0.30448 0.66036 0.77362 0.0
H5841 H 0.31591 0.66457 0.747 0.0
H5842 H 0.32133 0.65438 0.8052 0.0
H5843 H 0.33327 0.66952 0.82691 0.0
C5844 C 0.03348 0.6066 0.52881 0.0
C5845 C 0.04084 0.62105 0.54652 0.0
C5846 C 0.05446 0.64838 0.51994 0.0
C5847 C 0.0549 0.63105 0.50433 0.0
N5848 N 0.03816 0.59734 0.48958 0.0
N5849 N 0.0615 0.65482 0.55867 0.0
C5850 C 0.04124 0.61166 0.5072 0.0
C5851 C 0.05176 0.64207 0.5421 0.0
N5852 N 0.01948 0.58849 0.53261 0.0
N5853 N 0.05884 0.6701 0.51372 0.0
H5854 H 0.0625 0.64945 0.57514 0.0
H5855 H 0.07101 0.66939 0.55553 0.0
H5856 H 0.06104 0.67412 0.49699 0.0
H5857 H 0.05797 0.68378 0.52475 0.0
H5858 H 0.01307 0.57797 0.52011 0.0
H5859 H 0.01297 0.58472 0.54819 0.0
H5860 H 0.03034 0.58153 0.49047 0.0
H5861 H 0.04422 0.60166 0.47388 0.0
C5862 C 0.11783 0.30315 0.30393 0.0
C5863 C 0.13539 0.28824 0.31176 0.0
C5864 C 0.1512 0.28677 0.27424 0.0
C5865 C 0.13143 0.29912 0.26639 0.0
N5866 N 0.09231 0.31212 0.27339 0.0
N5867 N 0.16879 0.26468 0.30434 0.0
C5868 C 0.11351 0.30495 0.28104 0.0
C5869 C 0.15213 0.27957 0.29686 0.0
N5870 N 0.10617 0.31673 0.31829 0.0
N5871 N 0.16893 0.28204 0.26014 0.0
H5872 H 0.17096 0.26082 0.32116 0.0
H5873 H 0.17985 0.25572 0.2939 0.0
H5874 H 0.16803 0.28594 0.24324 0.0
H5875 H 0.18479 0.27515 0.26535 0.0
H5876 H 0.09443 0.32938 0.31318 0.0
H5877 H 0.11132 0.31749 0.33476 0.0
H5878 H 0.07845 0.31521 0.28392 0.0
H5879 H 0.08782 0.31243 0.25661 0.0
C5880 C 0.44517 0.63578 0.46341 0.0
C5881 C 0.44978 0.619 0.47969 0.0
C5882 C 0.46541 0.59396 0.45057 0.0
C5883 C 0.46 0.61095 0.43452 0.0
N5884 N 0.43304 0.64091 0.42548 0.0
N5885 N 0.46283 0.58104 0.48901 0.0
C5886 C 0.44641 0.62977 0.4408 0.0
C5887 C 0.45943 0.59761 0.47332 0.0
N5888 N 0.44017 0.65767 0.4693 0.0
N5889 N 0.47475 0.57388 0.44357 0.0
H5890 H 0.45965 0.5838 0.50582 0.0
H5891 H 0.46859 0.5646 0.4856 0.0
H5892 H 0.47477 0.56984 0.42675 0.0
H5893 H 0.48109 0.56107 0.454 0.0
H5894 H 0.43775 0.67059 0.4576 0.0
H5895 H 0.44084 0.66323 0.48573 0.0
H5896 H 0.42038 0.65258 0.43021 0.0
H5897 H 0.43265 0.63663 0.40871 0.0
C5898 C 0.11132 0.68452 0.20916 0.0
C5899 C 0.13059 0.69686 0.20225 0.0
C5900 C 0.14319 0.70185 0.24074 0.0
C5901 C 0.12195 0.6924 0.24737 0.0
N5902 N 0.0834 0.68003 0.23789 0.0
N5903 N 0.16565 0.71745 0.21087 0.0
C5904 C 0.10521 0.68543 0.23158 0.0
C5905 C 0.14701 0.70542 0.21782 0.0
N5906 N 0.09934 0.67139 0.19432 0.0
N5907 N 0.15961 0.70721 0.25643 0.0
H5908 H 0.16974 0.71951 0.19423 0.0
H5909 H 0.17672 0.7262 0.22156 0.0
H5910 H 0.15637 0.70661 0.27343 0.0
H5911 H 0.17655 0.71143 0.25274 0.0
H5912 H 0.08641 0.66025 0.19906 0.0
H5913 H 0.10425 0.66978 0.17776 0.0
H5914 H 0.0702 0.67612 0.22658 0.0
H5915 H 0.07795 0.68195 0.25418 0.0
C5916 C 0.06898 0.38438 0.96508 0.0
C5917 C 0.06209 0.3903 0.98661 0.0
C5918 C 0.02835 0.40923 0.96898 0.0
C5919 C 0.03904 0.40609 0.94812 0.0
N5920 N 0.07435 0.39901 0.92871 0.0
N5921 N 0.03469 0.41177 0.00899 0.0
C5922 C 0.06162 0.39776 0.94744 0.0
C5923 C 0.04155 0.40395 0.98879 0.0
N5924 N 0.07709 0.36322 0.96052 0.0
N5925 N 0.00597 0.41671 0.96976 0.0
H5926 H 0.04413 0.40887 0.02358 0.0
H5927 H 0.02059 0.4228 0.01087 0.0
H5928 H 0.99673 0.42126 0.95536 0.0
H5929 H 0.99659 0.41735 0.98439 0.0
H5930 H 0.07771 0.35761 0.94405 0.0
H5931 H 0.0788 0.35056 0.97259 0.0
H5932 H 0.0908 0.39169 0.92783 0.0
H5933 H 0.06891 0.40881 0.91518 0.0
C5934 C 0.36247 0.28085 0.71884 0.0
C5935 C 0.3549 0.30313 0.72428 0.0
C5936 C 0.3363 0.3062 0.68702 0.0
C5937 C 0.3439 0.2838 0.68165 0.0
N5938 N 0.35127 0.24697 0.69933 0.0
N5939 N 0.32584 0.33171 0.71682 0.0
C5940 C 0.35319 0.27011 0.69951 0.0
C5941 C 0.33949 0.31449 0.70918 0.0
N5942 N 0.37865 0.26978 0.73173 0.0
N5943 N 0.32461 0.31914 0.67167 0.0
H5944 H 0.32466 0.33469 0.73373 0.0
H5945 H 0.31314 0.33999 0.70726 0.0
H5946 H 0.3171 0.31241 0.65732 0.0
H5947 H 0.32209 0.3366 0.67358 0.0
H5948 H 0.38599 0.25421 0.72706 0.0
H5949 H 0.38628 0.27702 0.74579 0.0
H5950 H 0.35705 0.23679 0.71253 0.0
H5951 H 0.34007 0.23846 0.68855 0.0
C5952 C 0.06245 0.45741 0.36662 0.0
C5953 C 0.07631 0.44974 0.38515 0.0
C5954 C 0.04508 0.42399 0.39553 0.0
C5955 C 0.03095 0.43241 0.37759 0.0
N5956 N 0.02416 0.46082 0.34955 0.0
N5957 N 0.07826 0.42968 0.42003 0.0
C5958 C 0.039 0.45035 0.36431 0.0
C5959 C 0.06693 0.43405 0.40034 0.0
N5960 N 0.07196 0.47027 0.3503 0.0
N5961 N 0.03768 0.40622 0.40801 0.0
H5962 H 0.09373 0.43744 0.42463 0.0
H5963 H 0.07127 0.42019 0.43282 0.0
H5964 H 0.02106 0.39989 0.40661 0.0
H5965 H 0.04834 0.39706 0.41897 0.0
H5966 H 0.06347 0.47417 0.33538 0.0
H5967 H 0.08915 0.47513 0.35037 0.0
H5968 H 0.02809 0.47578 0.34122 0.0
H5969 H 0.00706 0.45574 0.3472 0.0
C5970 C 0.31171 0.317 0.15501 0.0
C5971 C 0.2957 0.32477 0.13866 0.0
C5972 C 0.30343 0.29025 0.11644 0.0
C5973 C 0.32151 0.28406 0.13154 0.0
N5974 N 0.34516 0.29364 0.16349 0.0
N5975 N 0.27681 0.31926 0.10296 0.0
C5976 C 0.32622 0.29797 0.15039 0.0
C5977 C 0.2914 0.31135 0.1193 0.0
N5978 N 0.31262 0.32752 0.17528 0.0
N5979 N 0.29795 0.27612 0.09911 0.0
H5980 H 0.26686 0.33388 0.10459 0.0
H5981 H 0.27549 0.31214 0.08716 0.0
H5982 H 0.30772 0.26175 0.09497 0.0
H5983 H 0.28299 0.27789 0.08939 0.0
H5984 H 0.32223 0.32126 0.18877 0.0
H5985 H 0.3018 0.34119 0.17938 0.0
H5986 H 0.35099 0.30448 0.17602 0.0
H5987 H 0.3564 0.28029 0.16028 0.0
C5988 C 0.43355 0.54616 0.91104 0.0
C5989 C 0.42812 0.52555 0.90011 0.0
C5990 C 0.46316 0.52782 0.87816 0.0
C5991 C 0.46796 0.54929 0.88777 0.0
N5992 N 0.46126 0.57592 0.91752 0.0
N5993 N 0.44515 0.49159 0.88403 0.0
C5994 C 0.45418 0.55759 0.90551 0.0
C5995 C 0.4452 0.51462 0.88701 0.0
N5996 N 0.41903 0.55456 0.92685 0.0
N5997 N 0.47492 0.52036 0.85998 0.0
H5998 H 0.43463 0.48094 0.89319 0.0
H5999 H 0.4581 0.48288 0.8755 0.0
H6000 H 0.48775 0.52978 0.8524 0.0
H6001 H 0.47025 0.50579 0.85116 0.0
H6002 H 0.41968 0.57107 0.93307 0.0
H6003 H 0.40611 0.54466 0.93376 0.0
H6004 H 0.45337 0.58186 0.93185 0.0
H6005 H 0.47631 0.58427 0.91381 0.0
C6006 C 0.19452 0.69025 0.65467 0.0
C6007 C 0.20462 0.68132 0.63512 0.0
C6008 C 0.20574 0.71949 0.61887 0.0
C6009 C 0.19381 0.72822 0.63745 0.0
N6010 N 0.17511 0.72208 0.67234 0.0
N6011 N 0.21367 0.68649 0.59645 0.0
C6012 C 0.18775 0.71362 0.6552 0.0
C6013 C 0.20875 0.6957 0.6167 0.0
N6014 N 0.1918 0.6766 0.67283 0.0
N6015 N 0.21375 0.73378 0.60287 0.0
H6016 H 0.21438 0.66906 0.59371 0.0
H6017 H 0.21415 0.69589 0.58182 0.0
H6018 H 0.21094 0.7513 0.60287 0.0
H6019 H 0.22496 0.72844 0.59047 0.0
H6020 H 0.18687 0.6826 0.68833 0.0
H6021 H 0.19591 0.6593 0.67298 0.0
H6022 H 0.16767 0.71213 0.68454 0.0
H6023 H 0.17102 0.73926 0.67365 0.0
C6024 C 0.03047 0.54749 0.10671 0.0
C6025 C 0.02369 0.55671 0.12736 0.0
C6026 C 0.05979 0.54474 0.14463 0.0
C6027 C 0.06827 0.53869 0.12337 0.0
N6028 N 0.06169 0.5327 0.08411 0.0
N6029 N 0.02603 0.55262 0.1668 0.0
C6030 C 0.05345 0.53912 0.10436 0.0
C6031 C 0.0364 0.55149 0.14668 0.0
N6032 N 0.01456 0.54672 0.08972 0.0
N6033 N 0.07455 0.5462 0.16243 0.0
H6034 H 0.00854 0.55685 0.16824 0.0
H6035 H 0.03386 0.54629 0.18127 0.0
H6036 H 0.09219 0.54303 0.16107 0.0
H6037 H 0.06968 0.55274 0.17777 0.0
H6038 H 0.01753 0.53923 0.07436 0.0
H6039 H 0.99743 0.55205 0.09197 0.0
H6040 H 0.05241 0.53439 0.06926 0.0
H6041 H 0.07846 0.52644 0.08197 0.0
C6042 C 0.20145 0.28992 0.887 0.0
C6043 C 0.20397 0.27147 0.87244 0.0
C6044 C 0.20924 0.29771 0.84144 0.0
C6045 C 0.20297 0.31576 0.85578 0.0
N6046 N 0.1842 0.32694 0.8887 0.0
N6047 N 0.21729 0.25701 0.83765 0.0
C6048 C 0.19696 0.3113 0.87777 0.0
C6049 C 0.21013 0.27507 0.85007 0.0
N6050 N 0.20142 0.28646 0.90941 0.0
N6051 N 0.21241 0.30222 0.81952 0.0
H6052 H 0.21898 0.24074 0.84448 0.0
H6053 H 0.22289 0.25824 0.82137 0.0
H6054 H 0.20863 0.31831 0.81299 0.0
H6055 H 0.21669 0.29002 0.8077 0.0
H6056 H 0.20038 0.29973 0.92087 0.0
H6057 H 0.20451 0.27035 0.91625 0.0
H6058 H 0.18143 0.32688 0.90571 0.0
H6059 H 0.17312 0.33687 0.87894 0.0
C6060 C 0.46368 0.44156 0.60576 0.0
C6061 C 0.46513 0.42785 0.62517 0.0
C6062 C 0.42332 0.43009 0.6295 0.0
C6063 C 0.42181 0.44517 0.61117 0.0
N6064 N 0.4393 0.4644 0.5806 0.0
N6065 N 0.44774 0.41376 0.65841 0.0
C6066 C 0.44171 0.45073 0.5989 0.0
C6067 C 0.44533 0.42335 0.63781 0.0
N6068 N 0.48334 0.44586 0.5942 0.0
N6069 N 0.4037 0.42178 0.63872 0.0
H6070 H 0.46385 0.40979 0.66549 0.0
H6071 H 0.43416 0.41213 0.66944 0.0
H6072 H 0.38714 0.42598 0.63292 0.0
H6073 H 0.40385 0.40891 0.65061 0.0
H6074 H 0.48387 0.45522 0.5796 0.0
H6075 H 0.49962 0.43981 0.5993 0.0
H6076 H 0.45284 0.46969 0.57079 0.0
H6077 H 0.42322 0.47048 0.57493 0.0
C6078 C 0.31752 0.68819 0.34754 0.0
C6079 C 0.30175 0.67906 0.36302 0.0
C6080 C 0.30773 0.71315 0.38686 0.0
C6081 C 0.3254 0.72079 0.37273 0.0
N6082 N 0.34757 0.71542 0.33942 0.0
N6083 N 0.28346 0.6824 0.39887 0.0
C6084 C 0.33041 0.70821 0.35303 0.0
C6085 C 0.29712 0.69155 0.38296 0.0
N6086 N 0.31923 0.67839 0.327 0.0
N6087 N 0.30063 0.72686 0.40388 0.0
H6088 H 0.2747 0.66722 0.39694 0.0
H6089 H 0.28206 0.689 0.41485 0.0
H6090 H 0.30846 0.74232 0.40768 0.0
H6091 H 0.28589 0.7239 0.41311 0.0
H6092 H 0.32837 0.68538 0.31397 0.0
H6093 H 0.30966 0.66425 0.32219 0.0
H6094 H 0.3543 0.70569 0.32655 0.0
H6095 H 0.35604 0.73081 0.34163 0.0
C6096 C 0.39153 0.02503 0.43104 0.0
C6097 C 0.36908 0.01525 0.43236 0.0
C6098 C 0.35667 0.04865 0.45417 0.0
C6099 C 0.37792 0.05992 0.44996 0.0
N6100 N 0.41477 0.05924 0.43176 0.0
N6101 N 0.32875 0.02131 0.44106 0.0
C6102 C 0.39498 0.04832 0.43734 0.0
C6103 C 0.35127 0.02796 0.44289 0.0
N6104 N 0.41002 0.01166 0.42534 0.0
N6105 N 0.34135 0.05744 0.46903 0.0
H6106 H 0.3235 0.00708 0.43215 0.0
H6107 H 0.3149 0.03142 0.44625 0.0
H6108 H 0.3432 0.07315 0.47673 0.0
H6109 H 0.32738 0.04826 0.47488 0.0
H6110 H 0.42704 0.0173 0.42576 0.0
H6111 H 0.40879 0.99414 0.42303 0.0
H6112 H 0.42659 0.05258 0.42051 0.0
H6113 H 0.41854 0.07569 0.43712 0.0
C6114 C 0.8919 0.46794 0.54283 0.0
C6115 C 0.88467 0.44824 0.55429 0.0
C6116 C 0.85058 0.46782 0.56684 0.0
C6117 C 0.85849 0.48821 0.55784 0.0
N6118 N 0.88765 0.50894 0.53849 0.0
N6119 N 0.86435 0.43461 0.58611 0.0
C6120 C 0.87954 0.4887 0.54608 0.0
C6121 C 0.86629 0.4497 0.56916 0.0
N6122 N 0.91053 0.4667 0.5292 0.0
N6123 N 0.82821 0.46578 0.5732 0.0
H6124 H 0.87716 0.42251 0.58991 0.0
H6125 H 0.85177 0.43678 0.59809 0.0
H6126 H 0.81602 0.4787 0.57011 0.0
H6127 H 0.82168 0.45052 0.5792 0.0
H6128 H 0.91527 0.47979 0.51862 0.0
H6129 H 0.92105 0.45215 0.52839 0.0
H6130 H 0.90402 0.51086 0.5318 0.0
H6131 H 0.87802 0.52404 0.53967 0.0
C6132 C 0.30274 0.12944 0.31556 0.0
C6133 C 0.30122 0.14325 0.29631 0.0
C6134 C 0.26036 0.13301 0.29197 0.0
C6135 C 0.26367 0.11641 0.30885 0.0
N6136 N 0.29024 0.09409 0.3311 0.0
N6137 N 0.27848 0.15827 0.26564 0.0
C6138 C 0.28564 0.11307 0.31876 0.0
C6139 C 0.27992 0.14506 0.28427 0.0
N6140 N 0.31991 0.13215 0.33115 0.0
N6141 N 0.23864 0.13752 0.28373 0.0
H6142 H 0.29199 0.16873 0.26084 0.0
H6143 H 0.2643 0.15829 0.25474 0.0
H6144 H 0.22425 0.12823 0.28846 0.0
H6145 H 0.23477 0.15105 0.27309 0.0
H6146 H 0.32126 0.12223 0.34546 0.0
H6147 H 0.33037 0.1464 0.33189 0.0
H6148 H 0.30674 0.08999 0.33726 0.0
H6149 H 0.27805 0.08138 0.33274 0.0
C6150 C 0.63608 0.53487 0.04668 0.0
C6151 C 0.62191 0.52719 0.06398 0.0
C6152 C 0.59375 0.55805 0.0563 0.0
C6153 C 0.60888 0.56712 0.0403 0.0
N6154 N 0.64552 0.56447 0.02091 0.0
N6155 N 0.5842 0.52633 0.08006 0.0
C6156 C 0.63004 0.55528 0.03521 0.0
C6157 C 0.59991 0.53741 0.06744 0.0
N6158 N 0.65513 0.52226 0.04076 0.0
N6159 N 0.57349 0.56922 0.0609 0.0
H6160 H 0.58781 0.51048 0.08707 0.0
H6161 H 0.56701 0.53143 0.08166 0.0
H6162 H 0.56707 0.58277 0.05137 0.0
H6163 H 0.56334 0.56559 0.07455 0.0
H6164 H 0.66415 0.52467 0.02615 0.0
H6165 H 0.66115 0.50809 0.0496 0.0
H6166 H 0.66246 0.55866 0.01915 0.0
H6167 H 0.64261 0.57929 0.01205 0.0
C6168 C 0.71474 0.37134 0.28519 0.0
C6169 C 0.69614 0.35894 0.29443 0.0
C6170 C 0.7182 0.35706 0.32977 0.0
C6171 C 0.73454 0.37287 0.32149 0.0
N6172 N 0.74441 0.39904 0.29238 0.0
N6173 N 0.68347 0.33463 0.32374 0.0
C6174 C 0.73163 0.38114 0.29951 0.0
C6175 C 0.69897 0.3501 0.31622 0.0
N6176 N 0.71765 0.37225 0.26275 0.0
N6177 N 0.72115 0.34854 0.35058 0.0
H6178 H 0.67212 0.32618 0.313 0.0
H6179 H 0.68216 0.32958 0.34022 0.0
H6180 H 0.73156 0.35666 0.36208 0.0
H6181 H 0.71308 0.33413 0.35657 0.0
H6182 H 0.73171 0.38016 0.25551 0.0
H6183 H 0.70886 0.36165 0.25172 0.0
H6184 H 0.74129 0.40705 0.27716 0.0
H6185 H 0.75606 0.40762 0.30268 0.0
C6186 C 0.09973 0.96381 0.96145 0.0
C6187 C 0.10697 0.9424 0.95277 0.0
C6188 C 0.13796 0.96093 0.93239 0.0
C6189 C 0.12976 0.98232 0.93979 0.0
N6190 N 0.10161 0.00504 0.95935 0.0
N6191 N 0.1319 0.92089 0.92791 0.0
C6192 C 0.11041 0.98408 0.95394 0.0
C6193 C 0.12547 0.94111 0.93732 0.0
N6194 N 0.08266 0.9647 0.97693 0.0
N6195 N 0.15876 0.95952 0.92187 0.0
H6196 H 0.12566 0.90529 0.93253 0.0
H6197 H 0.14295 0.91935 0.91451 0.0
H6198 H 0.16982 0.97329 0.92104 0.0
H6199 H 0.16657 0.94461 0.91624 0.0
H6200 H 0.0786 0.97917 0.98612 0.0
H6201 H 0.07304 0.95052 0.98125 0.0
H6202 H 0.08609 0.00756 0.96758 0.0
H6203 H 0.10897 0.02022 0.95426 0.0
C6204 C 0.26988 0.88068 0.19798 0.0
C6205 C 0.25892 0.86488 0.18392 0.0
C6206 C 0.29325 0.83973 0.18651 0.0
C6207 C 0.30537 0.85736 0.19753 0.0
N6208 N 0.30609 0.89704 0.20836 0.0
N6209 N 0.2601 0.82944 0.16381 0.0
C6210 C 0.29386 0.8784 0.20207 0.0
C6211 C 0.27054 0.84431 0.178 0.0
N6212 N 0.25753 0.89833 0.20696 0.0
N6213 N 0.30316 0.81858 0.18464 0.0
H6214 H 0.24303 0.83164 0.15869 0.0
H6215 H 0.26856 0.81566 0.1565 0.0
H6216 H 0.31964 0.81463 0.19093 0.0
H6217 H 0.29436 0.80447 0.17857 0.0
H6218 H 0.26442 0.90919 0.21899 0.0
H6219 H 0.23982 0.90066 0.20411 0.0
H6220 H 0.29894 0.9134 0.20916 0.0
H6221 H 0.32385 0.89663 0.21008 0.0
C6222 C 0.20374 0.12003 0.71771 0.0
C6223 C 0.19003 0.13935 0.71101 0.0
C6224 C 0.21988 0.14931 0.68403 0.0
C6225 C 0.23266 0.1292 0.68954 0.0
N6226 N 0.2366 0.09481 0.71099 0.0
N6227 N 0.18449 0.17167 0.68663 0.0
C6228 C 0.22468 0.11458 0.70643 0.0
C6229 C 0.19788 0.15365 0.69372 0.0
N6230 N 0.19659 0.10648 0.73463 0.0
N6231 N 0.22952 0.16509 0.67055 0.0
H6232 H 0.17003 0.17762 0.69507 0.0
H6233 H 0.1872 0.1803 0.67182 0.0
H6234 H 0.24604 0.16297 0.66446 0.0
H6235 H 0.22248 0.18117 0.66737 0.0
H6236 H 0.20727 0.09486 0.74301 0.0
H6237 H 0.17993 0.10701 0.74076 0.0
H6238 H 0.23043 0.08177 0.72086 0.0
H6239 H 0.25241 0.09063 0.70385 0.0
C6240 C 0.10441 0.06056 0.34225 0.0
C6241 C 0.09047 0.07995 0.33709 0.0
C6242 C 0.12455 0.10128 0.3263 0.0
C6243 C 0.13849 0.08206 0.33179 0.0
N6244 N 0.14216 0.04211 0.33977 0.0
N6245 N 0.08596 0.1162 0.3187 0.0
C6246 C 0.12848 0.06117 0.33785 0.0
C6247 C 0.10017 0.09944 0.32715 0.0
N6248 N 0.09511 0.04239 0.35291 0.0
N6249 N 0.13461 0.12165 0.32168 0.0
H6250 H 0.06795 0.11504 0.31871 0.0
H6251 H 0.09188 0.13011 0.30983 0.0
H6252 H 0.15245 0.12347 0.32015 0.0
H6253 H 0.12544 0.137 0.32064 0.0
H6254 H 0.10497 0.02907 0.35964 0.0
H6255 H 0.07753 0.04122 0.35624 0.0
H6256 H 0.13572 0.02588 0.34237 0.0
H6257 H 0.1599 0.04232 0.33672 0.0
C6258 C 0.16097 0.88713 0.57168 0.0
C6259 C 0.17079 0.90284 0.58694 0.0
C6260 C 0.18617 0.87125 0.60968 0.0
C6261 C 0.17639 0.85559 0.59439 0.0
N6262 N 0.15832 0.8479 0.55901 0.0
N6263 N 0.19652 0.9102 0.61801 0.0
C6264 C 0.16515 0.86337 0.57469 0.0
C6265 C 0.18486 0.89497 0.60499 0.0
N6266 N 0.14684 0.89497 0.55486 0.0
N6267 N 0.1952 0.86353 0.62946 0.0
H6268 H 0.19571 0.9277 0.61539 0.0
H6269 H 0.2086 0.90547 0.63021 0.0
H6270 H 0.19717 0.84626 0.63316 0.0
H6271 H 0.19941 0.87412 0.64276 0.0
H6272 H 0.13673 0.88449 0.54483 0.0
H6273 H 0.14447 0.91228 0.55155 0.0
H6274 H 0.15162 0.85233 0.54345 0.0
H6275 H 0.16117 0.83042 0.56094 0.0
C6276 C 0.40246 0.90922 0.87128 0.0
C6277 C 0.41684 0.91166 0.85245 0.0
C6278 C 0.38072 0.9108 0.82916 0.0
C6279 C 0.36781 0.9043 0.84813 0.0
N6280 N 0.36974 0.88937 0.88539 0.0
N6281 N 0.41826 0.92005 0.81332 0.0
C6282 C 0.37971 0.90111 0.86856 0.0
C6283 C 0.40556 0.91382 0.83119 0.0
N6284 N 0.40988 0.91596 0.89185 0.0
N6285 N 0.3692 0.91454 0.8095 0.0
H6286 H 0.4348 0.92671 0.81507 0.0
H6287 H 0.41224 0.91979 0.79697 0.0
H6288 H 0.35139 0.91243 0.80774 0.0
H6289 H 0.37687 0.9202 0.79506 0.0
H6290 H 0.39939 0.91527 0.90578 0.0
H6291 H 0.42489 0.92543 0.89415 0.0
H6292 H 0.37876 0.8852 0.89999 0.0
H6293 H 0.35381 0.88137 0.88351 0.0
C6294 C 0.315 0.12977 0.07439 0.0
C6295 C 0.33224 0.11499 0.08348 0.0
C6296 C 0.35386 0.14706 0.09807 0.0
C6297 C 0.33709 0.16228 0.0889 0.0
N6298 N 0.30268 0.16899 0.06672 0.0
N6299 N 0.3723 0.11045 0.09398 0.0
C6300 C 0.31791 0.1539 0.07641 0.0
C6301 C 0.35299 0.12393 0.09224 0.0
N6302 N 0.29623 0.12062 0.06383 0.0
N6303 N 0.36992 0.1543 0.11335 0.0
H6304 H 0.37256 0.09389 0.08786 0.0
H6305 H 0.38849 0.11664 0.09871 0.0
H6306 H 0.37047 0.17094 0.11936 0.0
H6307 H 0.38105 0.14313 0.12187 0.0
H6308 H 0.2824 0.13007 0.05731 0.0
H6309 H 0.29461 0.1031 0.06156 0.0
H6310 H 0.2887 0.16437 0.0567 0.0
H6311 H 0.30448 0.18658 0.06826 0.0
C6312 C 0.1258 0.89384 0.17656 0.0
C6313 C 0.13674 0.91399 0.16939 0.0
C6314 C 0.09918 0.93052 0.15807 0.0
C6315 C 0.08852 0.90963 0.16349 0.0
N6316 N 0.09145 0.87061 0.17567 0.0
N6317 N 0.13441 0.95287 0.15745 0.0
C6318 C 0.10165 0.89127 0.1727 0.0
C6319 C 0.12349 0.93283 0.16153 0.0
N6320 N 0.13862 0.87691 0.18659 0.0
N6321 N 0.08619 0.94753 0.14838 0.0
H6322 H 0.15216 0.95481 0.16023 0.0
H6323 H 0.12602 0.96794 0.15287 0.0
H6324 H 0.06824 0.94662 0.14651 0.0
H6325 H 0.09298 0.96222 0.14159 0.0
H6326 H 0.1315 0.86273 0.1941 0.0
H6327 H 0.15642 0.87776 0.18919 0.0
H6328 H 0.10052 0.85552 0.17878 0.0
H6329 H 0.07375 0.86811 0.17369 0.0
C6330 C 0.3291 0.87252 0.39325 0.0
C6331 C 0.3437 0.88402 0.40887 0.0
C6332 C 0.35744 0.84635 0.42264 0.0
C6333 C 0.34663 0.83524 0.40417 0.0
N6334 N 0.32066 0.83794 0.37258 0.0
N6335 N 0.37236 0.88141 0.43827 0.0
C6336 C 0.33187 0.84844 0.38985 0.0
C6337 C 0.35791 0.87073 0.42353 0.0
N6338 N 0.31257 0.88442 0.38145 0.0
N6339 N 0.36687 0.83393 0.43977 0.0
H6340 H 0.37177 0.89891 0.44112 0.0
H6341 H 0.38575 0.87304 0.44685 0.0
H6342 H 0.36676 0.81631 0.44059 0.0
H6343 H 0.3727 0.8412 0.45458 0.0
H6344 H 0.29971 0.87674 0.37188 0.0
H6345 H 0.31033 0.90195 0.38233 0.0
H6346 H 0.31289 0.84663 0.35932 0.0
H6347 H 0.31975 0.82028 0.37115 0.0
C6348 C 0.4006 0.07293 0.66729 0.0
C6349 C 0.4107 0.09225 0.65707 0.0
C6350 C 0.3724 0.11126 0.65608 0.0
C6351 C 0.36183 0.09126 0.66381 0.0
N6352 N 0.36525 0.05311 0.67768 0.0
N6353 N 0.40438 0.12806 0.63753 0.0
C6354 C 0.37582 0.0721 0.6699 0.0
C6355 C 0.3961 0.1109 0.65037 0.0
N6356 N 0.41464 0.05511 0.67356 0.0
N6357 N 0.35981 0.13111 0.65478 0.0
H6358 H 0.42166 0.12998 0.6337 0.0
H6359 H 0.39363 0.13966 0.62914 0.0
H6360 H 0.34265 0.13231 0.65973 0.0
H6361 H 0.36706 0.14685 0.65137 0.0
H6362 H 0.409 0.04055 0.68151 0.0
H6363 H 0.43248 0.05511 0.67117 0.0
H6364 H 0.37375 0.03792 0.68163 0.0
H6365 H 0.34741 0.05254 0.68002 0.0
C6366 C 0.17069 0.14033 0.89764 0.0
C6367 C 0.17645 0.15276 0.91713 0.0
C6368 C 0.17525 0.11772 0.93932 0.0
C6369 C 0.17039 0.10545 0.91953 0.0
N6370 N 0.15661 0.10652 0.88116 0.0
N6371 N 0.18358 0.1544 0.95655 0.0
C6372 C 0.1663 0.117 0.89919 0.0
C6373 C 0.1784 0.14177 0.93808 0.0
N6374 N 0.16833 0.15084 0.87745 0.0
N6375 N 0.17623 0.10637 0.95914 0.0
H6376 H 0.18615 0.17193 0.95588 0.0
H6377 H 0.18604 0.14777 0.97241 0.0
H6378 H 0.17411 0.08881 0.96032 0.0
H6379 H 0.17839 0.11409 0.97455 0.0
H6380 H 0.16381 0.14212 0.86293 0.0
H6381 H 0.17132 0.16802 0.87492 0.0
H6382 H 0.15062 0.08984 0.88103 0.0
H6383 H 0.15062 0.08984 0.88103 0.0
C6384 C 0.09504 0.36085 0.11322 0.0
C6385 C 0.09328 0.34102 0.09997 0.0
C6386 C 0.09763 0.3168 0.13285 0.0
C6387 C 0.10246 0.33657 0.14565 0.0
N6388 N 0.10397 0.3775 0.14915 0.0
N6389 N 0.08635 0.30107 0.0968 0.0
C6390 C 0.10031 0.35867 0.1362 0.0
C6391 C 0.09231 0.31923 0.10975 0.0
N6392 N 0.09105 0.3817 0.10368 0.0
N6393 N 0.09974 0.29577 0.14244 0.0
H6394 H 0.0823 0.30286 0.07993 0.0
H6395 H 0.08369 0.28475 0.10283 0.0
H6396 H 0.10359 0.29346 0.15927 0.0
H6397 H 0.09863 0.28052 0.13375 0.0
H6398 H 0.09039 0.39698 0.11238 0.0
H6399 H 0.08639 0.38353 0.08695 0.0
H6400 H 0.10624 0.39381 0.14292 0.0
H6401 H 0.10517 0.37683 0.16643 0.0
C6402 C 0.58204 0.14437 0.87782 0.0
C6403 C 0.59269 0.16311 0.86739 0.0
C6404 C 0.60164 0.17988 0.90393 0.0
C6405 C 0.59365 0.15969 0.91412 0.0
N6406 N 0.57037 0.12609 0.91197 0.0
N6407 N 0.61276 0.19876 0.8699 0.0
C6408 C 0.58196 0.14299 0.90135 0.0
C6409 C 0.60185 0.18128 0.88026 0.0
N6410 N 0.57293 0.12739 0.865 0.0
N6411 N 0.60932 0.19753 0.91675 0.0
H6412 H 0.61284 0.20073 0.85272 0.0
H6413 H 0.62275 0.21084 0.87809 0.0
H6414 H 0.61043 0.19694 0.93398 0.0
H6415 H 0.61297 0.21359 0.91056 0.0
H6416 H 0.56829 0.11154 0.87104 0.0
H6417 H 0.57043 0.12911 0.84789 0.0
H6418 H 0.5603 0.11394 0.90398 0.0
H6419 H 0.56918 0.12534 0.92924 0.0
C6420 C 0.92753 0.82003 0.38239 0.0
C6421 C 0.90968 0.83055 0.39502 0.0
C6422 C 0.88426 0.83066 0.36168 0.0
C6423 C 0.90264 0.82233 0.34835 0.0
N6424 N 0.94127 0.80714 0.3461 0.0
N6425 N 0.87387 0.85203 0.39443 0.0
C6426 C 0.92423 0.81655 0.3588 0.0
C6427 C 0.88876 0.83735 0.38409 0.0
N6428 N 0.94761 0.81356 0.39304 0.0
N6429 N 0.86227 0.8322 0.35313 0.0
H6430 H 0.87691 0.8585 0.41032 0.0
H6431 H 0.85998 0.85999 0.38622 0.0
H6432 H 0.85786 0.82791 0.33687 0.0
H6433 H 0.84797 0.83616 0.36278 0.0
H6434 H 0.96159 0.80567 0.38544 0.0
H6435 H 0.95025 0.81585 0.41007 0.0
H6436 H 0.95773 0.80267 0.35189 0.0
H6437 H 0.93877 0.80348 0.32927 0.0
C6438 C 0.89617 0.14037 0.11127 0.0
C6439 C 0.91619 0.15038 0.10236 0.0
C6440 C 0.92435 0.16862 0.13847 0.0
C6441 C 0.90472 0.15773 0.14725 0.0
N6442 N 0.86743 0.14133 0.13903 0.0
N6443 N 0.94679 0.17761 0.10561 0.0
C6444 C 0.88934 0.14617 0.13284 0.0
C6445 C 0.92954 0.16572 0.1154 0.0
N6446 N 0.88311 0.12553 0.09904 0.0
N6447 N 0.93801 0.18135 0.15223 0.0
H6448 H 0.95113 0.17528 0.08899 0.0
H6449 H 0.95605 0.19046 0.11346 0.0
H6450 H 0.9338 0.18438 0.16877 0.0
H6451 H 0.95353 0.18856 0.14755 0.0
H6452 H 0.86821 0.11814 0.10524 0.0
H6453 H 0.88752 0.11997 0.08319 0.0
H6454 H 0.86027 0.14701 0.15389 0.0
H6455 H 0.86027 0.14701 0.15389 0.0
C6456 C 0.39532 0.66518 0.63369 0.0
C6457 C 0.41132 0.65646 0.64973 0.0
C6458 C 0.43624 0.64189 0.62021 0.0
C6459 C 0.41999 0.65007 0.60409 0.0
N6460 N 0.38607 0.67287 0.59493 0.0
N6461 N 0.4491 0.64159 0.65891 0.0
C6462 C 0.4003 0.66306 0.61067 0.0
C6463 C 0.43256 0.64657 0.64313 0.0
N6464 N 0.37476 0.67437 0.64056 0.0
N6465 N 0.45468 0.6289 0.61363 0.0
H6466 H 0.44665 0.64495 0.67575 0.0
H6467 H 0.46579 0.63605 0.65527 0.0
H6468 H 0.4584 0.62601 0.59695 0.0
H6469 H 0.46565 0.6201 0.62458 0.0
H6470 H 0.36087 0.67826 0.62998 0.0
H6471 H 0.37121 0.67728 0.65727 0.0
H6472 H 0.37281 0.68435 0.59855 0.0
H6473 H 0.38832 0.67079 0.57793 0.0
C6474 C 0.08015 0.65042 0.37798 0.0
C6475 C 0.09665 0.66525 0.36877 0.0
C6476 C 0.10795 0.67814 0.40606 0.0
C6477 C 0.09485 0.66018 0.41522 0.0
N6478 N 0.06709 0.6303 0.4106 0.0
N6479 N 0.126 0.69365 0.37336 0.0
C6480 C 0.08022 0.64691 0.40135 0.0
C6481 C 0.11025 0.67945 0.38264 0.0
N6482 N 0.06482 0.63929 0.36443 0.0
N6483 N 0.1182 0.6939 0.41956 0.0
H6484 H 0.12684 0.69642 0.35627 0.0
H6485 H 0.13893 0.70186 0.3824 0.0
H6486 H 0.11659 0.69412 0.4367 0.0
H6487 H 0.12628 0.70839 0.41369 0.0
H6488 H 0.051 0.62993 0.37022 0.0
H6489 H 0.06474 0.64065 0.3472 0.0
H6490 H 0.0588 0.61764 0.40151 0.0
H6491 H 0.06509 0.62873 0.42773 0.0
C6492 C 0.39734 0.31108 0.86099 0.0
C6493 C 0.40866 0.3264 0.84636 0.0
C6494 C 0.42338 0.34741 0.87929 0.0
C6495 C 0.41156 0.3326 0.89375 0.0
N6496 N 0.39203 0.29717 0.89873 0.0
N6497 N 0.44045 0.35262 0.84326 0.0
C6498 C 0.39987 0.31353 0.88465 0.0
C6499 C 0.42411 0.34259 0.85598 0.0
N6500 N 0.38438 0.29386 0.85232 0.0
N6501 N 0.43322 0.36672 0.8876 0.0
H6502 H 0.45299 0.36348 0.84969 0.0
H6503 H 0.44401 0.34743 0.82715 0.0
H6504 H 0.4336 0.37073 0.90445 0.0
H6505 H 0.43942 0.37966 0.87759 0.0
H6506 H 0.37252 0.2847 0.86145 0.0
H6507 H 0.38566 0.28855 0.83588 0.0
H6508 H 0.38542 0.28165 0.89349 0.0
H6509 H 0.39401 0.29826 0.91595 0.0
C6510 C 0.8727 0.89734 0.67084 0.0
C6511 C 0.85937 0.91733 0.66732 0.0
C6512 C 0.89449 0.93937 0.66161 0.0
C6513 C 0.90767 0.91872 0.6621 0.0
N6514 N 0.9093 0.87773 0.66659 0.0
N6515 N 0.85656 0.95792 0.66468 0.0
C6516 C 0.8969 0.89768 0.66716 0.0
C6517 C 0.87003 0.93863 0.66455 0.0
N6518 N 0.8619 0.87797 0.67753 0.0
N6519 N 0.90537 0.95942 0.65748 0.0
H6520 H 0.83874 0.95738 0.66714 0.0
H6521 H 0.86286 0.97437 0.66372 0.0
H6522 H 0.92331 0.96052 0.65631 0.0
H6523 H 0.89691 0.97495 0.655 0.0
H6524 H 0.87046 0.86305 0.68233 0.0
H6525 H 0.84413 0.87747 0.68032 0.0
H6526 H 0.90195 0.86174 0.66759 0.0
H6527 H 0.927 0.87669 0.66406 0.0
C6528 C 0.80461 0.12585 0.39892 0.0
C6529 C 0.82253 0.14113 0.4046 0.0
C6530 C 0.84548 0.11016 0.42131 0.0
C6531 C 0.82799 0.09472 0.41483 0.0
N6532 N 0.78888 0.0879 0.40289 0.0
N6533 N 0.85706 0.14944 0.42591 0.0
C6534 C 0.8067 0.1027 0.4057 0.0
C6535 C 0.84197 0.13377 0.41748 0.0
N6536 N 0.78658 0.13303 0.38563 0.0
N6537 N 0.86595 0.10197 0.42995 0.0
H6538 H 0.85471 0.16693 0.42362 0.0
H6539 H 0.87072 0.14541 0.43673 0.0
H6540 H 0.86841 0.08487 0.43419 0.0
H6541 H 0.8807 0.11178 0.43208 0.0
H6542 H 0.77451 0.12209 0.37853 0.0
H6543 H 0.78444 0.14992 0.38061 0.0
H6544 H 0.77229 0.09285 0.39777 0.0
H6545 H 0.7903 0.07085 0.40762 0.0
C6546 C 0.59812 0.09542 0.12556 0.0
C6547 C 0.58269 0.08866 0.14257 0.0
C6548 C 0.61762 0.07936 0.16579 0.0
C6549 C 0.63183 0.09014 0.14988 0.0
N6550 N 0.63352 0.11475 0.11789 0.0
N6551 N 0.57882 0.06849 0.17721 0.0
C6552 C 0.62139 0.10019 0.13089 0.0
C6553 C 0.59273 0.07906 0.16241 0.0
N6554 N 0.59122 0.09544 0.10376 0.0
N6555 N 0.62803 0.06921 0.18382 0.0
H6556 H 0.56185 0.06412 0.17331 0.0
H6557 H 0.58422 0.06276 0.19278 0.0
H6558 H 0.64591 0.06957 0.18651 0.0
H6559 H 0.61939 0.06025 0.19596 0.0
H6560 H 0.60237 0.09927 0.09086 0.0
H6561 H 0.57582 0.08798 0.09843 0.0
H6562 H 0.6258 0.12378 0.10477 0.0
H6563 H 0.65036 0.11978 0.12172 0.0
C6564 C 0.68978 0.87143 0.91958 0.0
C6565 C 0.67035 0.88607 0.9168 0.0
C6566 C 0.64599 0.85429 0.90586 0.0
C6567 C 0.66508 0.83928 0.90941 0.0
N6568 N 0.70567 0.8329 0.91704 0.0
N6569 N 0.62895 0.89109 0.91336 0.0
C6570 C 0.68719 0.84762 0.91571 0.0
C6571 C 0.64812 0.87733 0.91196 0.0
N6572 N 0.71037 0.88043 0.92643 0.0
N6573 N 0.62651 0.84703 0.89485 0.0
H6574 H 0.62982 0.90792 0.91868 0.0
H6575 H 0.61208 0.88516 0.91185 0.0
H6576 H 0.62472 0.83065 0.88842 0.0
H6577 H 0.61313 0.85792 0.88968 0.0
H6578 H 0.72523 0.87092 0.93006 0.0
H6579 H 0.71218 0.89776 0.92977 0.0
H6580 H 0.72268 0.83784 0.91976 0.0
H6581 H 0.70409 0.81541 0.9146 0.0
C6582 C 0.87451 0.07051 0.82819 0.0
C6583 C 0.8619 0.09063 0.83287 0.0
C6584 C 0.89664 0.11056 0.84395 0.0
C6585 C 0.90961 0.09057 0.83918 0.0
N6586 N 0.91193 0.051 0.82889 0.0
N6587 N 0.86069 0.1312 0.83841 0.0
C6588 C 0.8989 0.07036 0.83161 0.0
C6589 C 0.87297 0.11115 0.83844 0.0
N6590 N 0.86301 0.05186 0.82046 0.0
N6591 N 0.90642 0.12818 0.85552 0.0
H6592 H 0.84333 0.13209 0.8335 0.0
H6593 H 0.86823 0.14706 0.84072 0.0
H6594 H 0.92355 0.12807 0.8612 0.0
H6595 H 0.89694 0.14196 0.86162 0.0
H6596 H 0.87099 0.03674 0.81563 0.0
H6597 H 0.84514 0.05206 0.81765 0.0
H6598 H 0.90517 0.03514 0.82509 0.0
H6599 H 0.92985 0.05062 0.83127 0.0
C6600 C 0.62801 0.1217 0.60634 0.0
C6601 C 0.64482 0.11211 0.59247 0.0
C6602 C 0.65838 0.15128 0.58508 0.0
C6603 C 0.6442 0.16 0.6026 0.0
N6604 N 0.62261 0.14848 0.63542 0.0
N6605 N 0.67604 0.1178 0.5674 0.0
C6606 C 0.63098 0.14391 0.61481 0.0
C6607 C 0.65995 0.12696 0.58124 0.0
N6608 N 0.60897 0.10948 0.61166 0.0
N6609 N 0.67103 0.16598 0.57279 0.0
H6610 H 0.67668 0.1004 0.56388 0.0
H6611 H 0.68908 0.12711 0.56007 0.0
H6612 H 0.67261 0.18314 0.57684 0.0
H6613 H 0.67961 0.16128 0.55839 0.0
H6614 H 0.59511 0.11667 0.62021 0.0
H6615 H 0.60602 0.09326 0.6052 0.0
H6616 H 0.61403 0.13628 0.64462 0.0
H6617 H 0.62785 0.1619 0.64532 0.0
C6618 C 0.62361 0.92544 0.3436 0.0
C6619 C 0.63556 0.9055 0.33653 0.0
C6620 C 0.59807 0.88787 0.32754 0.0
C6621 C 0.58615 0.90634 0.3377 0.0
N6622 N 0.58754 0.94254 0.35629 0.0
N6623 N 0.63412 0.86661 0.32386 0.0
C6624 C 0.59894 0.9252 0.3458 0.0
C6625 C 0.62276 0.88646 0.32888 0.0
N6626 N 0.6359 0.94466 0.34808 0.0
N6627 N 0.58571 0.87173 0.31638 0.0
H6628 H 0.65213 0.86508 0.32402 0.0
H6629 H 0.62574 0.85127 0.32106 0.0
H6630 H 0.56782 0.87297 0.31428 0.0
H6631 H 0.59325 0.85863 0.30724 0.0
H6632 H 0.62825 0.96042 0.35131 0.0
H6633 H 0.65386 0.94522 0.34672 0.0
H6634 H 0.59587 0.95551 0.36493 0.0
H6635 H 0.56953 0.94332 0.3572 0.0
C6636 C 0.82687 0.8813 0.05806 0.0
C6637 C 0.82909 0.89436 0.07788 0.0
C6638 C 0.82556 0.85997 0.1001 0.0
C6639 C 0.82633 0.8465 0.08077 0.0
N6640 N 0.82773 0.84354 0.04101 0.0
N6641 N 0.83824 0.8936 0.11756 0.0
C6642 C 0.82677 0.85693 0.05953 0.0
C6643 C 0.83041 0.88317 0.09875 0.0
N6644 N 0.82495 0.89218 0.03806 0.0
N6645 N 0.82103 0.85042 0.12017 0.0
H6646 H 0.84527 0.90986 0.11797 0.0
H6647 H 0.84527 0.90986 0.11797 0.0
H6648 H 0.81582 0.83355 0.12166 0.0
H6649 H 0.82068 0.85997 0.1348 0.0
H6650 H 0.82185 0.88393 0.02303 0.0
H6651 H 0.82532 0.90986 0.03663 0.0
H6652 H 0.83011 0.84972 0.02504 0.0
H6653 H 0.82684 0.82583 0.04184 0.0
C6654 C 0.90508 0.64627 0.858 0.0
C6655 C 0.89545 0.66745 0.85099 0.0
C6656 C 0.89708 0.68183 0.88902 0.0
C6657 C 0.90253 0.65951 0.89633 0.0
N6658 N 0.91361 0.62068 0.88877 0.0
N6659 N 0.88262 0.70569 0.85881 0.0
C6660 C 0.90752 0.64185 0.88106 0.0
C6661 C 0.89203 0.68555 0.86614 0.0
N6662 N 0.91158 0.63046 0.84251 0.0
N6663 N 0.89643 0.69922 0.90408 0.0
H6664 H 0.87939 0.70899 0.842 0.0
H6665 H 0.8771 0.71867 0.8693 0.0
H6666 H 0.90008 0.69667 0.92093 0.0
H6667 H 0.89427 0.71626 0.89972 0.0
H6668 H 0.92002 0.61518 0.8463 0.0
H6669 H 0.91011 0.6334 0.82545 0.0
H6670 H 0.91474 0.60622 0.87883 0.0
H6671 H 0.91688 0.61741 0.90557 0.0
C6672 C 0.4116 0.82197 0.09318 0.0
C6673 C 0.39891 0.84137 0.08503 0.0
C6674 C 0.37642 0.84169 0.11886 0.0
C6675 C 0.39134 0.82563 0.12876 0.0
N6676 N 0.42377 0.80003 0.12596 0.0
N6677 N 0.3796 0.87588 0.09835 0.0
C6678 C 0.40905 0.81535 0.116 0.0
C6679 C 0.384 0.85306 0.10002 0.0
N6680 N 0.42689 0.81081 0.07988 0.0
N6681 N 0.35613 0.84773 0.1286 0.0
H6682 H 0.38996 0.8865 0.089 0.0
H6683 H 0.3691 0.88462 0.10954 0.0
H6684 H 0.35036 0.83967 0.1429 0.0
H6685 H 0.34432 0.85886 0.12087 0.0
H6686 H 0.43435 0.79512 0.08397 0.0
H6687 H 0.43231 0.81738 0.0648 0.0
H6688 H 0.43852 0.79343 0.11847 0.0
H6689 H 0.42134 0.79453 0.14224 0.0
C6690 C 0.08502 0.18007 0.61368 0.0
C6691 C 0.09017 0.15916 0.60271 0.0
C6692 C 0.11001 0.14557 0.63629 0.0
C6693 C 0.10215 0.16466 0.64899 0.0
N6694 N 0.08265 0.20143 0.64827 0.0
N6695 N 0.10217 0.11985 0.60635 0.0
C6696 C 0.08956 0.18227 0.63729 0.0
C6697 C 0.10038 0.14122 0.61515 0.0
N6698 N 0.07706 0.19815 0.60142 0.0
N6699 N 0.12806 0.13186 0.64274 0.0
H6700 H 0.0939 0.11525 0.5915 0.0
H6701 H 0.11031 0.10646 0.6149 0.0
H6702 H 0.13957 0.13539 0.65575 0.0
H6703 H 0.13957 0.13539 0.65575 0.0
H6704 H 0.07546 0.21463 0.60763 0.0
H6705 H 0.07321 0.19689 0.5845 0.0
H6706 H 0.0708 0.21319 0.64169 0.0
H6707 H 0.08877 0.20572 0.66403 0.0
C6708 C 0.11078 0.85098 0.86499 0.0
C6709 C 0.09459 0.84215 0.84943 0.0
C6710 C 0.06767 0.83501 0.88 0.0
C6711 C 0.08276 0.84682 0.89465 0.0
N6712 N 0.11646 0.87026 0.89981 0.0
N6713 N 0.06102 0.81877 0.84325 0.0
C6714 C 0.10374 0.85588 0.88681 0.0
C6715 C 0.07392 0.83207 0.85718 0.0
N6716 N 0.13341 0.85345 0.85922 0.0
N6717 N 0.0471 0.82735 0.88781 0.0
H6718 H 0.06592 0.81481 0.82716 0.0
H6719 H 0.04665 0.80967 0.84808 0.0
H6720 H 0.04244 0.82907 0.90442 0.0
H6721 H 0.03406 0.82047 0.87791 0.0
H6722 H 0.14632 0.8586 0.8703 0.0
H6723 H 0.13984 0.84744 0.84418 0.0
H6724 H 0.13034 0.87953 0.89391 0.0
H6725 H 0.11174 0.8747 0.91585 0.0
C6726 C 0.59745 0.33169 0.36308 0.0
C6727 C 0.58943 0.34858 0.34797 0.0
C6728 C 0.57041 0.36927 0.37812 0.0
C6729 C 0.57791 0.35204 0.39328 0.0
N6730 N 0.59338 0.31416 0.39922 0.0
N6731 N 0.56357 0.38 0.33968 0.0
C6732 C 0.58967 0.33231 0.38536 0.0
C6733 C 0.57429 0.36619 0.35507 0.0
N6734 N 0.61358 0.31592 0.35658 0.0
N6735 N 0.56133 0.38939 0.38564 0.0
H6736 H 0.56594 0.37813 0.32263 0.0
H6737 H 0.55064 0.39175 0.34364 0.0
H6738 H 0.55796 0.39276 0.40223 0.0
H6739 H 0.55875 0.40359 0.37551 0.0
H6740 H 0.62232 0.30507 0.36762 0.0
H6741 H 0.61952 0.3148 0.34034 0.0
H6742 H 0.60034 0.29865 0.39401 0.0
H6743 H 0.58724 0.31383 0.41543 0.0
C6744 C 0.90596 0.3178 0.59207 0.0
C6745 C 0.91211 0.33867 0.58198 0.0
C6746 C 0.91099 0.35815 0.61753 0.0
C6747 C 0.90378 0.33781 0.62799 0.0
N6748 N 0.90021 0.29695 0.62648 0.0
N6749 N 0.93157 0.37424 0.58687 0.0
C6750 C 0.90304 0.31713 0.61564 0.0
C6751 C 0.91876 0.35711 0.59553 0.0
N6752 N 0.90278 0.29886 0.57932 0.0
N6753 N 0.90862 0.37887 0.62761 0.0
H6754 H 0.9377 0.37351 0.57064 0.0
H6755 H 0.93795 0.38764 0.59643 0.0
H6756 H 0.90253 0.3811 0.64358 0.0
H6757 H 0.91065 0.39417 0.61912 0.0
H6758 H 0.89518 0.28406 0.58503 0.0
H6759 H 0.90818 0.29781 0.56295 0.0
H6760 H 0.90134 0.28111 0.61883 0.0
H6761 H 0.8986 0.29591 0.64367 0.0
C6762 C 0.59626 0.68351 0.11116 0.0
C6763 C 0.58696 0.66271 0.10324 0.0
C6764 C 0.57916 0.65144 0.14199 0.0
C6765 C 0.5907 0.67131 0.15034 0.0
N6766 N 0.61075 0.70603 0.14221 0.0
N6767 N 0.57247 0.62548 0.11111 0.0
C6768 C 0.59931 0.68727 0.13465 0.0
C6769 C 0.57912 0.64642 0.11868 0.0
N6770 N 0.60221 0.69976 0.09612 0.0
N6771 N 0.56809 0.63702 0.15601 0.0
H6772 H 0.57093 0.62147 0.09428 0.0
H6773 H 0.57004 0.61152 0.12142 0.0
H6774 H 0.56868 0.63781 0.17318 0.0
H6775 H 0.55668 0.62459 0.15047 0.0
H6776 H 0.60697 0.71623 0.10039 0.0
H6777 H 0.60089 0.69729 0.07899 0.0
H6778 H 0.62052 0.7165 0.13217 0.0
H6779 H 0.61112 0.71087 0.15886 0.0
C6780 C 0.60149 0.55439 0.83291 0.0
C6781 C 0.58846 0.57365 0.8401 0.0
C6782 C 0.6234 0.59662 0.84131 0.0
C6783 C 0.63681 0.57712 0.83585 0.0
N6784 N 0.63942 0.53823 0.82391 0.0
N6785 N 0.58805 0.6111 0.85695 0.0
C6786 C 0.62606 0.55616 0.83081 0.0
C6787 C 0.59964 0.59429 0.84575 0.0
N6788 N 0.59037 0.53436 0.82899 0.0
N6789 N 0.63335 0.61761 0.84164 0.0
H6790 H 0.57085 0.60989 0.86171 0.0
H6791 H 0.59615 0.62528 0.86378 0.0
H6792 H 0.65051 0.62009 0.83731 0.0
H6793 H 0.62401 0.63275 0.84356 0.0
H6794 H 0.59859 0.5191 0.82499 0.0
H6795 H 0.57248 0.53282 0.83028 0.0
H6796 H 0.63305 0.52252 0.81902 0.0
H6797 H 0.65731 0.53941 0.82222 0.0
C6798 C 0.68084 0.36631 0.07688 0.0
C6799 C 0.67653 0.35774 0.09851 0.0
C6800 C 0.66383 0.39516 0.11069 0.0
C6801 C 0.6695 0.40456 0.08988 0.0
N6802 N 0.68433 0.39979 0.05307 0.0
N6803 N 0.67331 0.36601 0.13741 0.0
C6804 C 0.67845 0.39034 0.07288 0.0
C6805 C 0.67103 0.37286 0.11583 0.0
N6806 N 0.68662 0.35156 0.06028 0.0
N6807 N 0.65005 0.40683 0.12507 0.0
H6808 H 0.68082 0.35032 0.1416 0.0
H6809 H 0.67059 0.37693 0.1508 0.0
H6810 H 0.64321 0.42295 0.1216 0.0
H6811 H 0.64311 0.39908 0.13898 0.0
H6812 H 0.6885 0.35626 0.04377 0.0
H6813 H 0.68906 0.33418 0.06299 0.0
H6814 H 0.69221 0.39088 0.04026 0.0
H6815 H 0.68201 0.41711 0.04976 0.0
C6816 C 0.90324 0.42498 0.33695 0.0
C6817 C 0.91341 0.40562 0.34788 0.0
C6818 C 0.87495 0.38781 0.34787 0.0
C6819 C 0.86434 0.40816 0.3405 0.0
N6820 N 0.8678 0.44649 0.32748 0.0
N6821 N 0.90546 0.3713 0.36953 0.0
C6822 C 0.87836 0.42688 0.33469 0.0
C6823 C 0.89838 0.3878 0.35489 0.0
N6824 N 0.91721 0.44186 0.32957 0.0
N6825 N 0.86257 0.36814 0.34837 0.0
H6826 H 0.922 0.36914 0.37594 0.0
H6827 H 0.89385 0.36062 0.37734 0.0
H6828 H 0.8453 0.36727 0.34323 0.0
H6829 H 0.8702 0.35225 0.35151 0.0
H6830 H 0.91133 0.45561 0.32009 0.0
H6831 H 0.93508 0.44161 0.33222 0.0
H6832 H 0.87643 0.46161 0.32465 0.0
H6833 H 0.84991 0.44768 0.32497 0.0
C6834 C 0.85557 0.64208 0.5944 0.0
C6835 C 0.83987 0.65816 0.58507 0.0
C6836 C 0.81938 0.62718 0.56587 0.0
C6837 C 0.83637 0.61157 0.57415 0.0
N6838 N 0.87544 0.60654 0.5891 0.0
N6839 N 0.80654 0.66684 0.56204 0.0
C6840 C 0.85602 0.61973 0.58603 0.0
C6841 C 0.82161 0.65097 0.57073 0.0
N6842 N 0.86922 0.64773 0.61229 0.0
N6843 N 0.80176 0.61915 0.55279 0.0
H6844 H 0.80797 0.68418 0.56541 0.0
H6845 H 0.79278 0.66317 0.55138 0.0
H6846 H 0.80079 0.60205 0.5482 0.0
H6847 H 0.78839 0.62912 0.54615 0.0
H6848 H 0.87909 0.63575 0.62115 0.0
H6849 H 0.86826 0.66353 0.62013 0.0
H6850 H 0.89051 0.61258 0.59668 0.0
H6851 H 0.87807 0.59107 0.58117 0.0
C6852 C 0.62439 0.42464 0.67863 0.0
C6853 C 0.63791 0.41777 0.66027 0.0
C6854 C 0.6033 0.40689 0.63938 0.0
C6855 C 0.58995 0.41191 0.65828 0.0
N6856 N 0.58593 0.42884 0.69437 0.0
N6857 N 0.6407 0.39714 0.62536 0.0
C6858 C 0.59995 0.42178 0.67755 0.0
C6859 C 0.62754 0.40781 0.64109 0.0
N6860 N 0.63514 0.43285 0.69732 0.0
N6861 N 0.59281 0.40146 0.61957 0.0
H6862 H 0.65867 0.39628 0.62568 0.0
H6863 H 0.63367 0.38678 0.61304 0.0
H6864 H 0.57502 0.39979 0.6176 0.0
H6865 H 0.60155 0.40071 0.60456 0.0
H6866 H 0.62685 0.43628 0.71217 0.0
H6867 H 0.65292 0.4357 0.69817 0.0
H6868 H 0.5916 0.43766 0.70835 0.0
H6869 H 0.56801 0.42682 0.69379 0.0
C6870 C 0.85934 0.34653 0.91899 0.0
C6871 C 0.84677 0.33534 0.90156 0.0
C6872 C 0.82739 0.37236 0.89265 0.0
C6873 C 0.84262 0.38403 0.90766 0.0
N6874 N 0.87324 0.38178 0.93519 0.0
N6875 N 0.8185 0.33795 0.87185 0.0
C6876 C 0.85844 0.37088 0.92091 0.0
C6877 C 0.83062 0.34841 0.88858 0.0
N6878 N 0.87216 0.33414 0.93406 0.0
N6879 N 0.80971 0.38389 0.88211 0.0
H6880 H 0.81798 0.32031 0.87006 0.0
H6881 H 0.80971 0.34669 0.8592 0.0
H6882 H 0.80673 0.40126 0.88341 0.0
H6883 H 0.79648 0.37594 0.87326 0.0
H6884 H 0.87896 0.34095 0.9487 0.0
H6885 H 0.87478 0.31669 0.9333 0.0
H6886 H 0.888 0.37412 0.94215 0.0
H6887 H 0.87133 0.39889 0.93945 0.0
C6888 C 0.87505 0.5885 0.13842 0.0
C6889 C 0.86442 0.59115 0.15936 0.0
C6890 C 0.90313 0.58613 0.17748 0.0
C6891 C 0.91338 0.58391 0.15611 0.0
N6892 N 0.90655 0.57116 0.11859 0.0
N6893 N 0.86791 0.59118 0.19926 0.0
C6894 C 0.89846 0.58129 0.13739 0.0
C6895 C 0.87839 0.5896 0.1791 0.0
N6896 N 0.86348 0.59459 0.11931 0.0
N6897 N 0.91672 0.58364 0.19611 0.0
H6898 H 0.85003 0.59268 0.20086 0.0
H6899 H 0.87649 0.59078 0.21454 0.0
H6900 H 0.93338 0.57681 0.19567 0.0
H6901 H 0.91124 0.58645 0.21223 0.0
H6902 H 0.87151 0.59501 0.10393 0.0
H6903 H 0.84701 0.60201 0.11913 0.0
H6904 H 0.89583 0.56724 0.10506 0.0
H6905 H 0.92319 0.5641 0.11783 0.0
C6906 C 0.69434 0.61432 0.42206 0.0
C6907 C 0.67233 0.60429 0.41948 0.0
C6908 C 0.6538 0.64194 0.41662 0.0
C6909 C 0.67596 0.65222 0.4181 0.0
N6910 N 0.71745 0.64867 0.421 0.0
N6911 N 0.63093 0.6075 0.41572 0.0
C6912 C 0.6963 0.63852 0.42067 0.0
C6913 C 0.65197 0.61788 0.41773 0.0
N6914 N 0.71325 0.60056 0.42581 0.0
N6915 N 0.63446 0.65508 0.41308 0.0
H6916 H 0.62882 0.59011 0.41837 0.0
H6917 H 0.61549 0.61565 0.41123 0.0
H6918 H 0.63478 0.67149 0.40666 0.0
H6919 H 0.61791 0.64964 0.41649 0.0
H6920 H 0.7298 0.60643 0.42931 0.0
H6921 H 0.71203 0.58288 0.42683 0.0
H6922 H 0.73316 0.63988 0.42049 0.0
H6923 H 0.71937 0.6663 0.42101 0.0
C6924 C 0.6273 0.82446 0.6328 0.0
C6925 C 0.60825 0.82901 0.64677 0.0
C6926 C 0.58399 0.8392 0.61439 0.0
C6927 C 0.60343 0.83563 0.60056 0.0
N6928 N 0.64132 0.81928 0.59531 0.0
N6929 N 0.56745 0.8357 0.6512 0.0
C6930 C 0.62438 0.82644 0.60941 0.0
C6931 C 0.58614 0.83449 0.6376 0.0
N6932 N 0.64841 0.81893 0.64202 0.0
N6933 N 0.56407 0.84849 0.60561 0.0
H6934 H 0.56876 0.83275 0.66825 0.0
H6935 H 0.55047 0.83784 0.64551 0.0
H6936 H 0.56184 0.85187 0.58871 0.0
H6937 H 0.55015 0.85396 0.61507 0.0
H6938 H 0.66376 0.81855 0.6332 0.0
H6939 H 0.65075 0.81553 0.65893 0.0
H6940 H 0.65633 0.81072 0.60044 0.0
H6941 H 0.63942 0.82005 0.57806 0.0
C6942 C 0.39909 0.41906 0.17774 0.0
C6943 C 0.40681 0.41636 0.15557 0.0
C6944 C 0.36732 0.41146 0.14227 0.0
C6945 C 0.35901 0.41602 0.16386 0.0
N6946 N 0.36625 0.42317 0.20265 0.0
N6947 N 0.39786 0.41763 0.11645 0.0
C6948 C 0.37472 0.41969 0.18184 0.0
C6949 C 0.39076 0.41498 0.13778 0.0
N6950 N 0.41504 0.42061 0.19465 0.0
N6951 N 0.35336 0.40185 0.12642 0.0
H6952 H 0.41489 0.42157 0.11277 0.0
H6953 H 0.38634 0.41876 0.10296 0.0
H6954 H 0.33633 0.39722 0.12928 0.0
H6955 H 0.35968 0.39578 0.11137 0.0
H6956 H 0.41099 0.42179 0.21137 0.0
H6957 H 0.43281 0.42046 0.1919 0.0
H6958 H 0.37638 0.42638 0.21669 0.0
H6959 H 0.34856 0.42323 0.20589 0.0
C6960 C 0.31551 0.6026 0.88945 0.0
C6961 C 0.32632 0.59631 0.90998 0.0
C6962 C 0.32734 0.63644 0.92129 0.0
C6963 C 0.31935 0.64281 0.89978 0.0
N6964 N 0.3053 0.63286 0.86334 0.0
N6965 N 0.34396 0.60675 0.94492 0.0
C6966 C 0.31293 0.62609 0.88396 0.0
C6967 C 0.33236 0.61309 0.92591 0.0
N6968 N 0.30834 0.58604 0.87498 0.0
N6969 N 0.33032 0.65281 0.93717 0.0
H6970 H 0.34707 0.58975 0.94914 0.0
H6971 H 0.35156 0.61822 0.95592 0.0
H6972 H 0.32689 0.67 0.93409 0.0
H6973 H 0.33438 0.6493 0.95372 0.0
H6974 H 0.29888 0.58918 0.86046 0.0
H6975 H 0.31075 0.56871 0.87797 0.0
H6976 H 0.30273 0.62196 0.84994 0.0
H6977 H 0.3021 0.6499 0.85933 0.0
C6978 C 0.09595 0.5714 0.63838 0.0
C6979 C 0.08281 0.58705 0.65135 0.0
C6980 C 0.11908 0.60563 0.66331 0.0
C6981 C 0.13212 0.58983 0.65057 0.0
N6982 N 0.13366 0.5561 0.62798 0.0
N6983 N 0.08229 0.61664 0.67926 0.0
C6984 C 0.12073 0.57209 0.6389 0.0
C6985 C 0.09455 0.60323 0.66495 0.0
N6986 N 0.08455 0.55645 0.62482 0.0
N6987 N 0.13007 0.62362 0.6731 0.0
H6988 H 0.06445 0.61588 0.68085 0.0
H6989 H 0.08989 0.62723 0.69107 0.0
H6990 H 0.14802 0.62529 0.67334 0.0
H6991 H 0.12148 0.63764 0.67979 0.0
H6992 H 0.09249 0.5468 0.61254 0.0
H6993 H 0.06668 0.55428 0.62538 0.0
H6994 H 0.12685 0.54156 0.62065 0.0
H6995 H 0.15168 0.55657 0.62743 0.0
C6996 C 0.15936 0.37199 0.4305 0.0
C6997 C 0.17179 0.38389 0.41414 0.0
C6998 C 0.18344 0.34811 0.39658 0.0
C6999 C 0.17033 0.33615 0.41245 0.0
N7000 N 0.15035 0.33548 0.4471 0.0
N7001 N 0.20048 0.38386 0.38566 0.0
C7002 C 0.16004 0.34779 0.43046 0.0
C7003 C 0.1856 0.37204 0.39865 0.0
N7004 N 0.14556 0.38372 0.44489 0.0
N7005 N 0.19206 0.337 0.37848 0.0
H7006 H 0.20244 0.40145 0.38699 0.0
H7007 H 0.21239 0.37613 0.37518 0.0
H7008 H 0.19149 0.31941 0.37654 0.0
H7009 H 0.19867 0.34533 0.36474 0.0
H7010 H 0.1338 0.37603 0.45533 0.0
H7011 H 0.14502 0.40144 0.44564 0.0
H7012 H 0.14379 0.34265 0.46154 0.0
H7013 H 0.15074 0.31771 0.44724 0.0
C7014 C 0.39504 0.60215 0.35516 0.0
C7015 C 0.4102 0.59023 0.34109 0.0
C7016 C 0.37723 0.57228 0.32219 0.0
C7017 C 0.36225 0.58623 0.33495 0.0
N7018 N 0.35753 0.61879 0.35918 0.0
N7019 N 0.41701 0.56069 0.31427 0.0
C7020 C 0.37134 0.60234 0.35019 0.0
C7021 C 0.4017 0.57423 0.32542 0.0
N7022 N 0.40314 0.61234 0.37411 0.0
N7023 N 0.36799 0.55812 0.30649 0.0
H7024 H 0.43488 0.56192 0.31659 0.0
H7025 H 0.41227 0.54756 0.30363 0.0
H7026 H 0.35017 0.55681 0.30383 0.0
H7027 H 0.37769 0.54842 0.29548 0.0
H7028 H 0.39234 0.61913 0.38622 0.0
H7029 H 0.42045 0.61146 0.37903 0.0
H7030 H 0.36388 0.63268 0.36807 0.0
H7031 H 0.33999 0.61971 0.35587 0.0
C7032 C 0.13185 0.62082 0.10507 0.0
C7033 C 0.15062 0.61118 0.09344 0.0
C7034 C 0.16483 0.64991 0.08574 0.0
C7035 C 0.14734 0.65928 0.09962 0.0
N7036 N 0.11679 0.65207 0.1262 0.0
N7037 N 0.18402 0.61578 0.07089 0.0
C7038 C 0.13165 0.64432 0.11033 0.0
C7039 C 0.16682 0.62556 0.08309 0.0
N7040 N 0.11345 0.60754 0.11034 0.0
N7041 N 0.1801 0.66428 0.07605 0.0
H7042 H 0.18528 0.5982 0.06859 0.0
H7043 H 0.19683 0.62468 0.06283 0.0
H7044 H 0.17951 0.68186 0.07845 0.0
H7045 H 0.19343 0.65914 0.06574 0.0
H7046 H 0.09802 0.61403 0.11665 0.0
H7047 H 0.11248 0.59042 0.10593 0.0
H7048 H 0.108 0.64124 0.13676 0.0
H7049 H 0.114 0.66901 0.1302 0.0
C7050 C 0.10122 0.40689 0.85793 0.0
C7051 C 0.08514 0.41506 0.84183 0.0
C7052 C 0.11909 0.41805 0.8169 0.0
C7053 C 0.13282 0.40548 0.83265 0.0
N7054 N 0.12891 0.37681 0.86054 0.0
N7055 N 0.08011 0.42947 0.80435 0.0
C7056 C 0.12143 0.39637 0.85082 0.0
C7057 C 0.09436 0.42079 0.82054 0.0
N7058 N 0.09841 0.41058 0.88001 0.0
N7059 N 0.12945 0.42758 0.79907 0.0
H7060 H 0.06313 0.43453 0.80742 0.0
H7061 H 0.08525 0.43156 0.78798 0.0
H7062 H 0.14705 0.42524 0.7961 0.0
H7063 H 0.12087 0.43848 0.78799 0.0
H7064 H 0.1105 0.40457 0.89176 0.0
H7065 H 0.08641 0.42262 0.88557 0.0
H7066 H 0.11968 0.36931 0.87335 0.0
H7067 H 0.14252 0.36728 0.85383 0.0
C7068 C 0.34667 0.35777 0.57857 0.0
C7069 C 0.32546 0.34671 0.58303 0.0
C7070 C 0.30499 0.3838 0.58155 0.0
C7071 C 0.32625 0.3945 0.57706 0.0
N7072 N 0.36637 0.39201 0.56722 0.0
N7073 N 0.28431 0.34867 0.58874 0.0
C7074 C 0.34669 0.38148 0.57397 0.0
C7075 C 0.30449 0.3596 0.58436 0.0
N7076 N 0.36719 0.34615 0.58091 0.0
N7077 N 0.2854 0.397 0.58291 0.0
H7078 H 0.28329 0.33101 0.58987 0.0
H7079 H 0.26847 0.35674 0.59123 0.0
H7080 H 0.28555 0.41456 0.58028 0.0
H7081 H 0.26894 0.3909 0.58583 0.0
H7082 H 0.36858 0.32939 0.58628 0.0
H7083 H 0.38321 0.35377 0.57977 0.0
H7084 H 0.38127 0.38341 0.56227 0.0
H7085 H 0.36725 0.40948 0.56446 0.0
C7086 C 0.40697 0.14893 0.3841 0.0
C7087 C 0.40656 0.16751 0.39888 0.0
C7088 C 0.39904 0.19341 0.36752 0.0
C7089 C 0.39645 0.17413 0.35359 0.0
N7090 N 0.38819 0.13403 0.35163 0.0
N7091 N 0.40126 0.2076 0.40554 0.0
C7092 C 0.39782 0.15199 0.36262 0.0
C7093 C 0.4024 0.18994 0.39084 0.0
N7094 N 0.41533 0.12812 0.39061 0.0
N7095 N 0.39812 0.21473 0.35852 0.0
H7096 H 0.40486 0.20541 0.42247 0.0
H7097 H 0.39608 0.22404 0.40117 0.0
H7098 H 0.39497 0.21749 0.34162 0.0
H7099 H 0.40159 0.22947 0.3675 0.0
H7100 H 0.41721 0.1147 0.37947 0.0
H7101 H 0.42279 0.12497 0.40617 0.0
H7102 H 0.37937 0.13578 0.33647 0.0
H7103 H 0.38637 0.11815 0.35909 0.0
loop_
_geom_bond_atom_site_label_1
_geom_bond_atom_site_label_2
_geom_bond_distance
_geom_bond_site_symmetry_2
_ccdc_geom_bond_type
Dy0 O4 2.398 . S
Dy0 O5 2.491 . S
Dy0 O6 2.404 1_455 S
Dy0 O7 2.664 1_455 S
Dy0 O11 2.326 . S
Dy0 O15 2.310 . S
Dy0 O16 2.351 1_455 S
C1 O12 1.185 . S
C1 O13 1.355 . S
C2 O4 1.185 . S
C2 O5 1.355 . S
Dy3 O7 2.310 . S
Dy3 O10 2.351 1_655 S
Dy3 O12 2.398 . S
Dy3 O13 2.491 . S
Dy3 O14 2.403 1_655 S
Dy3 O15 2.664 1_655 S
Dy3 O17 2.326 . S
O4 Dy0 2.398 . S
O4 C2 1.185 . S
O5 Dy0 2.491 . S
O5 C2 1.355 . S
O6 Dy0 2.404 1_655 S
O6 C8 1.253 . S
O7 Dy0 2.664 1_655 S
O7 Dy3 2.310 . S
O7 C8 1.268 . S
C8 O6 1.253 . S
C8 O7 1.268 . S
C9 O14 1.254 . S
C9 O15 1.268 . S
O10 Dy3 2.351 1_455 S
O10 C18 1.249 . S
O11 Dy0 2.326 . S
O11 C18 1.267 . S
O12 C1 1.185 . S
O12 Dy3 2.398 . S
O13 C1 1.355 . S
O13 Dy3 2.491 . S
O14 Dy3 2.403 1_455 S
O14 C9 1.254 . S
O15 Dy0 2.310 . S
O15 Dy3 2.664 1_455 S
O15 C9 1.268 . S
O16 Dy0 2.351 1_655 S
O16 C19 1.249 . S
O17 Dy3 2.326 . S
O17 C19 1.267 . S
C18 O10 1.249 . S
C18 O11 1.267 . S
C19 O16 1.249 . S
C19 O17 1.267 . S
Dy20 O24 2.398 . S
Dy20 O25 2.491 . S
Dy20 O26 2.403 . S
Dy20 O27 2.664 . S
Dy20 O31 2.326 . S
Dy20 O35 2.310 . S
Dy20 O36 2.351 . S
C21 O32 1.185 . S
C21 O33 1.355 . S
C22 O24 1.185 . S
C22 O25 1.355 . S
Dy23 O27 2.310 . S
Dy23 O30 2.351 . S
Dy23 O32 2.398 . S
Dy23 O33 2.491 . S
Dy23 O34 2.403 . S
Dy23 O35 2.664 . S
Dy23 O37 2.326 . S
O24 Dy20 2.398 . S
O24 C22 1.185 . S
O25 Dy20 2.491 . S
O25 C22 1.355 . S
O26 Dy20 2.403 . S
O26 C28 1.254 . S
O27 Dy20 2.664 . S
O27 Dy23 2.310 . S
O27 C28 1.268 . S
C28 O26 1.254 . S
C28 O27 1.268 . S
C29 O34 1.254 . S
C29 O35 1.268 . S
O30 Dy23 2.351 . S
O30 C38 1.249 . S
O31 Dy20 2.326 . S
O31 C38 1.267 . S
O32 C21 1.185 . S
O32 Dy23 2.398 . S
O33 C21 1.355 . S
O33 Dy23 2.491 . S
O34 Dy23 2.403 . S
O34 C29 1.254 . S
O35 Dy20 2.310 . S
O35 Dy23 2.664 . S
O35 C29 1.268 . S
O36 Dy20 2.351 . S
O36 C39 1.249 . S
O37 Dy23 2.326 . S
O37 C39 1.267 . S
C38 O30 1.249 . S
C38 O31 1.267 . S
C39 O36 1.249 . S
C39 O37 1.267 . S
Dy40 O44 2.398 . S
Dy40 O45 2.491 . S
Dy40 O46 2.403 . S
Dy40 O47 2.664 . S
Dy40 O51 2.326 . S
Dy40 O55 2.310 . S
Dy40 O56 2.351 . S
C41 O52 1.185 . S
C41 O53 1.355 . S
C42 O44 1.185 . S
C42 O45 1.355 . S
Dy43 O47 2.310 . S
Dy43 O50 2.351 . S
Dy43 O52 2.398 . S
Dy43 O53 2.491 . S
Dy43 O54 2.403 . S
Dy43 O55 2.664 . S
Dy43 O57 2.326 . S
O44 Dy40 2.398 . S
O44 C42 1.185 . S
O45 Dy40 2.491 . S
O45 C42 1.355 . S
O46 Dy40 2.403 . S
O46 C48 1.254 . S
O47 Dy40 2.664 . S
O47 Dy43 2.310 . S
O47 C48 1.268 . S
C48 O46 1.254 . S
C48 O47 1.268 . S
C49 O54 1.254 . S
C49 O55 1.268 . S
O50 Dy43 2.351 . S
O50 C58 1.249 . S
O51 Dy40 2.326 . S
O51 C58 1.267 . S
O52 C41 1.185 . S
O52 Dy43 2.398 . S
O53 C41 1.355 . S
O53 Dy43 2.491 . S
O54 Dy43 2.403 . S
O54 C49 1.254 . S
O55 Dy40 2.310 . S
O55 Dy43 2.664 . S
O55 C49 1.268 . S
O56 Dy40 2.351 . S
O56 C59 1.249 . S
O57 Dy43 2.326 . S
O57 C59 1.267 . S
C58 O50 1.249 . S
C58 O51 1.267 . S
C59 O56 1.249 . S
C59 O57 1.267 . S
Dy60 O64 2.398 . S
Dy60 O65 2.491 . S
Dy60 O66 2.403 . S
Dy60 O67 2.664 . S
Dy60 O71 2.326 . S
Dy60 O75 2.310 . S
Dy60 O76 2.351 . S
C61 O72 1.185 . S
C61 O73 1.355 . S
C62 O64 1.185 . S
C62 O65 1.355 . S
Dy63 O67 2.310 . S
Dy63 O70 2.351 . S
Dy63 O72 2.398 . S
Dy63 O73 2.491 . S
Dy63 O74 2.403 . S
Dy63 O75 2.664 . S
Dy63 O77 2.326 . S
O64 Dy60 2.398 . S
O64 C62 1.185 . S
O65 Dy60 2.491 . S
O65 C62 1.355 . S
O66 Dy60 2.403 . S
O66 C68 1.254 . S
O67 Dy60 2.664 . S
O67 Dy63 2.310 . S
O67 C68 1.268 . S
C68 O66 1.254 . S
C68 O67 1.268 . S
C69 O74 1.254 . S
C69 O75 1.268 . S
O70 Dy63 2.351 . S
O70 C78 1.249 . S
O71 Dy60 2.326 . S
O71 C78 1.267 . S
O72 C61 1.185 . S
O72 Dy63 2.398 . S
O73 C61 1.355 . S
O73 Dy63 2.491 . S
O74 Dy63 2.403 . S
O74 C69 1.254 . S
O75 Dy60 2.310 . S
O75 Dy63 2.664 . S
O75 C69 1.268 . S
O76 Dy60 2.351 . S
O76 C79 1.249 . S
O77 Dy63 2.326 . S
O77 C79 1.267 . S
C78 O70 1.249 . S
C78 O71 1.267 . S
C79 O76 1.249 . S
C79 O77 1.267 . S
Dy80 O84 2.398 . S
Dy80 O85 2.491 . S
Dy80 O86 2.395 1_455 S
Dy80 O87 2.664 1_455 S
Dy80 O91 2.326 . S
Dy80 O95 2.310 . S
Dy80 O96 2.351 1_455 S
C81 O92 1.185 . S
C81 O93 1.355 . S
C82 O84 1.185 . S
C82 O85 1.355 . S
Dy83 O87 2.310 . S
Dy83 O90 2.351 1_655 S
Dy83 O92 2.398 . S
Dy83 O93 2.491 . S
Dy83 O94 2.403 1_655 S
Dy83 O95 2.664 1_655 S
Dy83 O97 2.326 . S
O84 Dy80 2.398 . S
O84 C82 1.185 . S
O85 Dy80 2.491 . S
O85 C82 1.355 . S
O86 Dy80 2.395 1_655 S
O86 C88 1.264 . S
O87 Dy80 2.664 1_655 S
O87 Dy83 2.310 . S
O87 C88 1.268 . S
C88 O86 1.264 . S
C88 O87 1.268 . S
C89 O94 1.254 . S
C89 O95 1.268 . S
O90 Dy83 2.351 1_455 S
O90 C98 1.249 . S
O91 Dy80 2.326 . S
O91 C98 1.267 . S
O92 C81 1.185 . S
O92 Dy83 2.398 . S
O93 C81 1.355 . S
O93 Dy83 2.491 . S
O94 Dy83 2.403 1_455 S
O94 C89 1.254 . S
O95 Dy80 2.310 . S
O95 Dy83 2.664 1_455 S
O95 C89 1.268 . S
O96 Dy80 2.351 1_655 S
O96 C99 1.249 . S
O97 Dy83 2.326 . S
O97 C99 1.267 . S
C98 O90 1.249 . S
C98 O91 1.267 . S
C99 O96 1.249 . S
C99 O97 1.267 . S
Dy100 O104 2.398 . S
Dy100 O105 2.491 . S
Dy100 O106 2.403 . S
Dy100 O107 2.664 . S
Dy100 O111 2.326 . S
Dy100 O115 2.310 . S
Dy100 O116 2.351 . S
C101 O112 1.185 . S
C101 O113 1.355 . S
C102 O104 1.185 . S
C102 O105 1.355 . S
Dy103 O107 2.310 . S
Dy103 O110 2.351 . S
Dy103 O112 2.398 . S
Dy103 O113 2.491 . S
Dy103 O114 2.403 . S
Dy103 O115 2.664 . S
Dy103 O117 2.326 . S
O104 Dy100 2.398 . S
O104 C102 1.185 . S
O105 Dy100 2.491 . S
O105 C102 1.355 . S
O106 Dy100 2.403 . S
O106 C108 1.254 . S
O107 Dy100 2.664 . S
O107 Dy103 2.310 . S
O107 C108 1.268 . S
C108 O106 1.254 . S
C108 O107 1.268 . S
C109 O114 1.254 . S
C109 O115 1.268 . S
O110 Dy103 2.351 . S
O110 C118 1.249 . S
O111 Dy100 2.326 . S
O111 C118 1.267 . S
O112 C101 1.185 . S
O112 Dy103 2.398 . S
O113 C101 1.355 . S
O113 Dy103 2.491 . S
O114 Dy103 2.403 . S
O114 C109 1.254 . S
O115 Dy100 2.310 . S
O115 Dy103 2.664 . S
O115 C109 1.268 . S
O116 Dy100 2.351 . S
O116 C119 1.249 . S
O117 Dy103 2.326 . S
O117 C119 1.267 . S
C118 O110 1.249 . S
C118 O111 1.267 . S
C119 O116 1.249 . S
C119 O117 1.267 . S
Dy120 O124 2.398 . S
Dy120 O125 2.491 . S
Dy120 O126 2.403 . S
Dy120 O127 2.664 . S
Dy120 O131 2.326 . S
Dy120 O135 2.310 . S
Dy120 O136 2.351 . S
C121 O132 1.185 . S
C121 O133 1.355 . S
C122 O124 1.185 . S
C122 O125 1.355 . S
Dy123 O127 2.310 . S
Dy123 O130 2.351 . S
Dy123 O132 2.398 . S
Dy123 O133 2.491 . S
Dy123 O134 2.403 . S
Dy123 O135 2.664 . S
Dy123 O137 2.326 . S
O124 Dy120 2.398 . S
O124 C122 1.185 . S
O125 Dy120 2.491 . S
O125 C122 1.355 . S
O126 Dy120 2.403 . S
O126 C128 1.254 . S
O127 Dy120 2.664 . S
O127 Dy123 2.310 . S
O127 C128 1.268 . S
C128 O126 1.254 . S
C128 O127 1.268 . S
C129 O134 1.254 . S
C129 O135 1.268 . S
O130 Dy123 2.351 . S
O130 C138 1.249 . S
O131 Dy120 2.326 . S
O131 C138 1.267 . S
O132 C121 1.185 . S
O132 Dy123 2.398 . S
O133 C121 1.355 . S
O133 Dy123 2.491 . S
O134 Dy123 2.403 . S
O134 C129 1.254 . S
O135 Dy120 2.310 . S
O135 Dy123 2.664 . S
O135 C129 1.268 . S
O136 Dy120 2.351 . S
O136 C139 1.249 . S
O137 Dy123 2.326 . S
O137 C139 1.267 . S
C138 O130 1.249 . S
C138 O131 1.267 . S
C139 O136 1.249 . S
C139 O137 1.267 . S
Dy140 O144 2.398 . S
Dy140 O145 2.491 . S
Dy140 O146 2.403 . S
Dy140 O147 2.664 . S
Dy140 O151 2.326 . S
Dy140 O155 2.310 . S
Dy140 O156 2.351 . S
C141 O152 1.185 . S
C141 O153 1.355 . S
C142 O144 1.185 . S
C142 O145 1.355 . S
Dy143 O147 2.310 . S
Dy143 O150 2.351 . S
Dy143 O152 2.398 . S
Dy143 O153 2.491 . S
Dy143 O154 2.403 . S
Dy143 O155 2.664 . S
Dy143 O157 2.326 . S
O144 Dy140 2.398 . S
O144 C142 1.185 . S
O145 Dy140 2.491 . S
O145 C142 1.355 . S
O146 Dy140 2.403 . S
O146 C148 1.254 . S
O147 Dy140 2.664 . S
O147 Dy143 2.310 . S
O147 C148 1.268 . S
C148 O146 1.254 . S
C148 O147 1.268 . S
C149 O154 1.254 . S
C149 O155 1.268 . S
O150 Dy143 2.351 . S
O150 C158 1.249 . S
O151 Dy140 2.326 . S
O151 C158 1.267 . S
O152 C141 1.185 . S
O152 Dy143 2.398 . S
O153 C141 1.355 . S
O153 Dy143 2.491 . S
O154 Dy143 2.403 . S
O154 C149 1.254 . S
O155 Dy140 2.310 . S
O155 Dy143 2.664 . S
O155 C149 1.268 . S
O156 Dy140 2.351 . S
O156 C159 1.249 . S
O157 Dy143 2.326 . S
O157 C159 1.267 . S
C158 O150 1.249 . S
C158 O151 1.267 . S
C159 O156 1.249 . S
C159 O157 1.267 . S
Dy160 O164 2.398 . S
Dy160 O165 2.491 . S
Dy160 O166 2.403 . S
Dy160 O167 2.664 . S
Dy160 O171 2.326 . S
Dy160 O175 2.310 . S
Dy160 O176 2.351 . S
C161 O172 1.185 . S
C161 O173 1.355 . S
C162 O164 1.185 . S
C162 O165 1.355 . S
Dy163 O167 2.310 . S
Dy163 O170 2.351 . S
Dy163 O172 2.398 1_545 S
Dy163 O173 2.491 1_545 S
Dy163 O174 2.403 . S
Dy163 O175 2.664 . S
Dy163 O177 2.326 1_545 S
O164 Dy160 2.398 . S
O164 C162 1.185 . S
O165 Dy160 2.491 . S
O165 C162 1.355 . S
O166 Dy160 2.403 . S
O166 C168 1.254 . S
O167 Dy160 2.664 . S
O167 Dy163 2.310 . S
O167 C168 1.268 . S
C168 O166 1.254 . S
C168 O167 1.268 . S
C169 O174 1.254 . S
C169 O175 1.268 . S
O170 Dy163 2.351 . S
O170 C178 1.249 . S
O171 Dy160 2.326 . S
O171 C178 1.267 . S
O172 C161 1.185 . S
O172 Dy163 2.398 1_565 S
O173 C161 1.355 . S
O173 Dy163 2.491 1_565 S
O174 Dy163 2.403 . S
O174 C169 1.254 . S
O175 Dy160 2.310 . S
O175 Dy163 2.664 . S
O175 C169 1.268 . S
O176 Dy160 2.351 . S
O176 C179 1.249 . S
O177 Dy163 2.326 1_565 S
O177 C179 1.267 1_565 S
C178 O170 1.249 . S
C178 O171 1.267 . S
C179 O176 1.249 . S
C179 O177 1.267 1_545 S
Dy180 O184 2.398 . S
Dy180 O185 2.491 . S
Dy180 O186 2.403 . S
Dy180 O187 2.664 . S
Dy180 O191 2.326 . S
Dy180 O195 2.310 . S
Dy180 O196 2.351 . S
C181 O192 1.185 . S
C181 O193 1.355 . S
C182 O184 1.185 . S
C182 O185 1.355 . S
Dy183 O187 2.310 . S
Dy183 O190 2.351 . S
Dy183 O192 2.398 . S
Dy183 O193 2.491 . S
Dy183 O194 2.403 . S
Dy183 O195 2.664 . S
Dy183 O197 2.326 . S
O184 Dy180 2.398 . S
O184 C182 1.185 . S
O185 Dy180 2.491 . S
O185 C182 1.355 . S
O186 Dy180 2.403 . S
O186 C188 1.254 . S
O187 Dy180 2.664 . S
O187 Dy183 2.310 . S
O187 C188 1.268 . S
C188 O186 1.254 . S
C188 O187 1.268 . S
C189 O194 1.254 . S
C189 O195 1.268 . S
O190 Dy183 2.351 . S
O190 C198 1.249 . S
O191 Dy180 2.326 . S
O191 C198 1.267 . S
O192 C181 1.185 . S
O192 Dy183 2.398 . S
O193 C181 1.355 . S
O193 Dy183 2.491 . S
O194 Dy183 2.403 . S
O194 C189 1.254 . S
O195 Dy180 2.310 . S
O195 Dy183 2.664 . S
O195 C189 1.268 . S
O196 Dy180 2.351 . S
O196 C199 1.249 . S
O197 Dy183 2.326 . S
O197 C199 1.267 . S
C198 O190 1.249 . S
C198 O191 1.267 . S
C199 O196 1.249 . S
C199 O197 1.267 . S
Dy200 O204 2.398 . S
Dy200 O205 2.491 . S
Dy200 O206 2.403 . S
Dy200 O207 2.664 1_565 S
Dy200 O211 2.326 . S
Dy200 O215 2.310 . S
Dy200 O216 2.370 . S
C201 O212 1.185 . S
C201 O213 1.355 . S
C202 O204 1.185 . S
C202 O205 1.355 . S
Dy203 O207 2.310 . S
Dy203 O210 2.351 1_545 S
Dy203 O212 2.398 . S
Dy203 O213 2.491 . S
Dy203 O214 2.403 1_545 S
Dy203 O215 2.664 1_545 S
Dy203 O217 2.326 . S
O204 Dy200 2.398 . S
O204 C202 1.185 . S
O205 Dy200 2.491 . S
O205 C202 1.355 . S
O206 Dy200 2.403 . S
O206 C208 1.254 1_565 S
O207 Dy200 2.664 1_545 S
O207 Dy203 2.310 . S
O207 C208 1.268 . S
C208 O206 1.254 1_545 S
C208 O207 1.268 . S
C209 O214 1.254 . S
C209 O215 1.268 . S
O210 Dy203 2.351 1_565 S
O210 C218 1.249 . S
O211 Dy200 2.326 . S
O211 C218 1.267 . S
O212 C201 1.185 . S
O212 Dy203 2.398 . S
O213 C201 1.355 . S
O213 Dy203 2.491 . S
O214 Dy203 2.403 1_565 S
O214 C209 1.254 . S
O215 Dy200 2.310 . S
O215 Dy203 2.664 1_565 S
O215 C209 1.268 . S
O216 Dy200 2.370 . S
O216 C219 1.229 1_565 S
O217 Dy203 2.326 . S
O217 C219 1.267 . S
C218 O210 1.249 . S
C218 O211 1.267 . S
C219 O216 1.229 1_545 S
C219 O217 1.267 . S
Dy220 O224 2.398 . S
Dy220 O225 2.491 . S
Dy220 O226 2.403 . S
Dy220 O227 2.664 . S
Dy220 O231 2.326 . S
Dy220 O235 2.310 . S
Dy220 O236 2.351 . S
C221 O232 1.185 . S
C221 O233 1.355 . S
C222 O224 1.185 . S
C222 O225 1.355 . S
Dy223 O227 2.310 . S
Dy223 O230 2.351 . S
Dy223 O232 2.398 . S
Dy223 O233 2.491 . S
Dy223 O234 2.403 . S
Dy223 O235 2.664 . S
Dy223 O237 2.326 . S
O224 Dy220 2.398 . S
O224 C222 1.185 . S
O225 Dy220 2.491 . S
O225 C222 1.355 . S
O226 Dy220 2.403 . S
O226 C228 1.254 . S
O227 Dy220 2.664 . S
O227 Dy223 2.310 . S
O227 C228 1.268 . S
C228 O226 1.254 . S
C228 O227 1.268 . S
C229 O234 1.254 . S
C229 O235 1.268 . S
O230 Dy223 2.351 . S
O230 C238 1.249 . S
O231 Dy220 2.326 . S
O231 C238 1.267 . S
O232 C221 1.185 . S
O232 Dy223 2.398 . S
O233 C221 1.355 . S
O233 Dy223 2.491 . S
O234 Dy223 2.403 . S
O234 C229 1.254 . S
O235 Dy220 2.310 . S
O235 Dy223 2.664 . S
O235 C229 1.268 . S
O236 Dy220 2.351 . S
O236 C239 1.249 . S
O237 Dy223 2.326 . S
O237 C239 1.267 . S
C238 O230 1.249 . S
C238 O231 1.267 . S
C239 O236 1.249 . S
C239 O237 1.267 . S
Dy240 O244 2.398 . S
Dy240 O245 2.491 . S
Dy240 O246 2.403 . S
Dy240 O247 2.664 . S
Dy240 O251 2.326 . S
Dy240 O255 2.310 . S
Dy240 O256 2.351 . S
C241 O252 1.185 . S
C241 O253 1.355 . S
C242 O244 1.185 . S
C242 O245 1.355 . S
Dy243 O247 2.305 1_545 S
Dy243 O250 2.322 1_545 S
Dy243 O252 2.428 . S
Dy243 O253 2.531 . S
Dy243 O254 2.379 1_545 S
Dy243 O255 2.626 1_545 S
Dy243 O257 2.329 . S
O244 Dy240 2.398 . S
O244 C242 1.185 . S
O245 Dy240 2.491 . S
O245 C242 1.355 . S
O246 Dy240 2.403 . S
O246 C248 1.254 . S
O247 Dy240 2.664 . S
O247 Dy243 2.305 1_565 S
O247 C248 1.268 . S
C248 O246 1.254 . S
C248 O247 1.268 . S
C249 O254 1.254 . S
C249 O255 1.268 . S
O250 Dy243 2.322 1_565 S
O250 C258 1.249 . S
O251 Dy240 2.326 . S
O251 C258 1.267 . S
O252 C241 1.185 . S
O252 Dy243 2.428 . S
O253 C241 1.355 . S
O253 Dy243 2.531 . S
O254 Dy243 2.379 1_565 S
O254 C249 1.254 . S
O255 Dy240 2.310 . S
O255 Dy243 2.626 1_565 S
O255 C249 1.268 . S
O256 Dy240 2.351 . S
O256 C259 1.252 1_565 S
O257 Dy243 2.329 . S
O257 C259 1.267 . S
C258 O250 1.249 . S
C258 O251 1.267 . S
C259 O256 1.252 1_545 S
C259 O257 1.267 . S
Dy260 O264 2.398 . S
Dy260 O265 2.491 . S
Dy260 O266 2.403 . S
Dy260 O267 2.664 . S
Dy260 O271 2.326 . S
Dy260 O275 2.310 . S
Dy260 O276 2.351 . S
C261 O272 1.185 . S
C261 O273 1.355 . S
C262 O264 1.185 . S
C262 O265 1.355 . S
Dy263 O267 2.310 . S
Dy263 O270 2.351 . S
Dy263 O272 2.398 . S
Dy263 O273 2.491 . S
Dy263 O274 2.403 . S
Dy263 O275 2.664 . S
Dy263 O277 2.326 . S
O264 Dy260 2.398 . S
O264 C262 1.185 . S
O265 Dy260 2.491 . S
O265 C262 1.355 . S
O266 Dy260 2.403 . S
O266 C268 1.254 . S
O267 Dy260 2.664 . S
O267 Dy263 2.310 . S
O267 C268 1.268 . S
C268 O266 1.254 . S
C268 O267 1.268 . S
C269 O274 1.254 . S
C269 O275 1.268 . S
O270 Dy263 2.351 . S
O270 C278 1.249 . S
O271 Dy260 2.326 . S
O271 C278 1.267 . S
O272 C261 1.185 . S
O272 Dy263 2.398 . S
O273 C261 1.355 . S
O273 Dy263 2.491 . S
O274 Dy263 2.403 . S
O274 C269 1.254 . S
O275 Dy260 2.310 . S
O275 Dy263 2.664 . S
O275 C269 1.268 . S
O276 Dy260 2.351 . S
O276 C279 1.249 . S
O277 Dy263 2.326 . S
O277 C279 1.267 . S
C278 O270 1.249 . S
C278 O271 1.267 . S
C279 O276 1.249 . S
C279 O277 1.267 . S
Dy280 O284 2.398 . S
Dy280 O285 2.491 . S
Dy280 O286 2.403 . S
Dy280 O287 2.635 1_545 S
Dy280 O291 2.326 . S
Dy280 O295 2.310 . S
Dy280 O296 2.351 . S
C281 O292 1.185 . S
C281 O293 1.355 . S
C282 O284 1.185 . S
C282 O285 1.355 . S
Dy283 O287 2.312 . S
Dy283 O290 2.351 1_565 S
Dy283 O292 2.398 . S
Dy283 O293 2.491 . S
Dy283 O294 2.403 1_565 S
Dy283 O295 2.664 1_565 S
Dy283 O297 2.326 . S
O284 Dy280 2.398 . S
O284 C282 1.185 . S
O285 Dy280 2.491 . S
O285 C282 1.355 . S
O286 Dy280 2.403 . S
O286 C288 1.254 1_545 S
O287 Dy280 2.635 1_565 S
O287 Dy283 2.312 . S
O287 C288 1.269 . S
C288 O286 1.254 1_565 S
C288 O287 1.269 . S
C289 O294 1.254 . S
C289 O295 1.268 . S
O290 Dy283 2.351 1_545 S
O290 C298 1.249 . S
O291 Dy280 2.326 . S
O291 C298 1.267 . S
O292 C281 1.185 . S
O292 Dy283 2.398 . S
O293 C281 1.355 . S
O293 Dy283 2.491 . S
O294 Dy283 2.403 1_545 S
O294 C289 1.254 . S
O295 Dy280 2.310 . S
O295 Dy283 2.664 1_545 S
O295 C289 1.268 . S
O296 Dy280 2.351 . S
O296 C299 1.249 1_545 S
O297 Dy283 2.326 . S
O297 C299 1.267 . S
C298 O290 1.249 . S
C298 O291 1.267 . S
C299 O296 1.249 1_565 S
C299 O297 1.267 . S
Dy300 O304 2.398 . S
Dy300 O305 2.491 . S
Dy300 O306 2.403 . S
Dy300 O307 2.664 . S
Dy300 O311 2.326 . S
Dy300 O315 2.310 . S
Dy300 O316 2.351 . S
C301 O312 1.185 . S
C301 O313 1.355 . S
C302 O304 1.185 . S
C302 O305 1.355 . S
Dy303 O307 2.310 . S
Dy303 O310 2.351 . S
Dy303 O312 2.398 . S
Dy303 O313 2.491 . S
Dy303 O314 2.403 . S
Dy303 O315 2.664 . S
Dy303 O317 2.326 . S
O304 Dy300 2.398 . S
O304 C302 1.185 . S
O305 Dy300 2.491 . S
O305 C302 1.355 . S
O306 Dy300 2.403 . S
O306 C308 1.254 . S
O307 Dy300 2.664 . S
O307 Dy303 2.310 . S
O307 C308 1.268 . S
C308 O306 1.254 . S
C308 O307 1.268 . S
C309 O314 1.254 . S
C309 O315 1.268 . S
O310 Dy303 2.351 . S
O310 C318 1.249 . S
O311 Dy300 2.326 . S
O311 C318 1.267 . S
O312 C301 1.185 . S
O312 Dy303 2.398 . S
O313 C301 1.355 . S
O313 Dy303 2.491 . S
O314 Dy303 2.403 . S
O314 C309 1.254 . S
O315 Dy300 2.310 . S
O315 Dy303 2.664 . S
O315 C309 1.268 . S
O316 Dy300 2.351 . S
O316 C319 1.249 . S
O317 Dy303 2.326 . S
O317 C319 1.267 . S
C318 O310 1.249 . S
C318 O311 1.267 . S
C319 O316 1.249 . S
C319 O317 1.267 . S
Dy320 O324 2.398 . S
Dy320 O325 2.491 . S
Dy320 O326 2.403 . S
Dy320 O327 2.657 1_554 S
Dy320 O331 2.326 . S
Dy320 O335 2.310 . S
Dy320 O336 2.351 . S
C321 O332 1.185 . S
C321 O333 1.355 . S
C322 O324 1.185 . S
C322 O325 1.355 . S
Dy323 O327 2.311 . S
Dy323 O330 2.351 1_556 S
Dy323 O332 2.398 . S
Dy323 O333 2.491 . S
Dy323 O334 2.403 1_556 S
Dy323 O335 2.664 1_556 S
Dy323 O337 2.326 . S
O324 Dy320 2.398 . S
O324 C322 1.185 . S
O325 Dy320 2.491 . S
O325 C322 1.355 . S
O326 Dy320 2.403 . S
O326 C328 1.243 1_554 S
O327 Dy320 2.657 1_556 S
O327 Dy323 2.311 . S
O327 C328 1.268 . S
C328 O326 1.243 1_556 S
C328 O327 1.268 . S
C329 O334 1.254 . S
C329 O335 1.268 . S
O330 Dy323 2.351 1_554 S
O330 C338 1.249 . S
O331 Dy320 2.326 . S
O331 C338 1.267 . S
O332 C321 1.185 . S
O332 Dy323 2.398 . S
O333 C321 1.355 . S
O333 Dy323 2.491 . S
O334 Dy323 2.403 1_554 S
O334 C329 1.254 . S
O335 Dy320 2.310 . S
O335 Dy323 2.664 1_554 S
O335 C329 1.268 . S
O336 Dy320 2.351 . S
O336 C339 1.249 1_554 S
O337 Dy323 2.326 . S
O337 C339 1.267 . S
C338 O330 1.249 . S
C338 O331 1.267 . S
C339 O336 1.249 1_556 S
C339 O337 1.267 . S
Dy340 O344 2.398 1_556 S
Dy340 O345 2.491 1_556 S
Dy340 O346 2.403 . S
Dy340 O347 2.664 . S
Dy340 O351 2.326 1_556 S
Dy340 O355 2.310 . S
Dy340 O356 2.351 . S
C341 O352 1.185 . S
C341 O353 1.355 . S
C342 O344 1.185 . S
C342 O345 1.355 . S
Dy343 O347 2.310 . S
Dy343 O350 2.351 1_556 S
Dy343 O352 2.398 . S
Dy343 O353 2.491 . S
Dy343 O354 2.403 . S
Dy343 O355 2.664 . S
Dy343 O357 2.326 . S
O344 Dy340 2.398 1_554 S
O344 C342 1.185 . S
O345 Dy340 2.491 1_554 S
O345 C342 1.355 . S
O346 Dy340 2.403 . S
O346 C348 1.254 . S
O347 Dy340 2.664 . S
O347 Dy343 2.310 . S
O347 C348 1.268 . S
C348 O346 1.254 . S
C348 O347 1.268 . S
C349 O354 1.254 1_554 S
C349 O355 1.268 1_554 S
O350 Dy343 2.351 1_554 S
O350 C358 1.249 . S
O351 Dy340 2.326 1_554 S
O351 C358 1.267 . S
O352 C341 1.185 . S
O352 Dy343 2.398 . S
O353 C341 1.355 . S
O353 Dy343 2.491 . S
O354 Dy343 2.403 . S
O354 C349 1.254 1_556 S
O355 Dy340 2.310 . S
O355 Dy343 2.664 . S
O355 C349 1.268 1_556 S
O356 Dy340 2.351 . S
O356 C359 1.249 . S
O357 Dy343 2.326 . S
O357 C359 1.267 . S
C358 O350 1.249 . S
C358 O351 1.267 . S
C359 O356 1.249 . S
C359 O357 1.267 . S
Dy360 O364 2.398 . S
Dy360 O365 2.491 . S
Dy360 O366 2.403 . S
Dy360 O367 2.664 . S
Dy360 O371 2.326 . S
Dy360 O375 2.310 . S
Dy360 O376 2.351 . S
C361 O372 1.185 . S
C361 O373 1.355 . S
C362 O364 1.185 . S
C362 O365 1.355 . S
Dy363 O367 2.310 . S
Dy363 O370 2.351 . S
Dy363 O372 2.398 . S
Dy363 O373 2.491 . S
Dy363 O374 2.403 . S
Dy363 O375 2.664 . S
Dy363 O377 2.326 . S
O364 Dy360 2.398 . S
O364 C362 1.185 . S
O365 Dy360 2.491 . S
O365 C362 1.355 . S
O366 Dy360 2.403 . S
O366 C368 1.254 . S
O367 Dy360 2.664 . S
O367 Dy363 2.310 . S
O367 C368 1.268 . S
C368 O366 1.254 . S
C368 O367 1.268 . S
C369 O374 1.254 . S
C369 O375 1.268 . S
O370 Dy363 2.351 . S
O370 C378 1.249 . S
O371 Dy360 2.326 . S
O371 C378 1.267 . S
O372 C361 1.185 . S
O372 Dy363 2.398 . S
O373 C361 1.355 . S
O373 Dy363 2.491 . S
O374 Dy363 2.403 . S
O374 C369 1.254 . S
O375 Dy360 2.310 . S
O375 Dy363 2.664 . S
O375 C369 1.268 . S
O376 Dy360 2.351 . S
O376 C379 1.249 . S
O377 Dy363 2.326 . S
O377 C379 1.267 . S
C378 O370 1.249 . S
C378 O371 1.267 . S
C379 O376 1.249 . S
C379 O377 1.267 . S
Dy380 O384 2.398 . S
Dy380 O385 2.491 . S
Dy380 O386 2.403 . S
Dy380 O387 2.664 . S
Dy380 O391 2.326 . S
Dy380 O395 2.310 . S
Dy380 O396 2.351 . S
C381 O392 1.185 . S
C381 O393 1.355 . S
C382 O384 1.185 . S
C382 O385 1.355 . S
Dy383 O387 2.310 . S
Dy383 O390 2.351 . S
Dy383 O392 2.398 . S
Dy383 O393 2.491 . S
Dy383 O394 2.403 . S
Dy383 O395 2.664 . S
Dy383 O397 2.326 . S
O384 Dy380 2.398 . S
O384 C382 1.185 . S
O385 Dy380 2.491 . S
O385 C382 1.355 . S
O386 Dy380 2.403 . S
O386 C388 1.254 . S
O387 Dy380 2.664 . S
O387 Dy383 2.310 . S
O387 C388 1.268 . S
C388 O386 1.254 . S
C388 O387 1.268 . S
C389 O394 1.254 . S
C389 O395 1.268 . S
O390 Dy383 2.351 . S
O390 C398 1.249 . S
O391 Dy380 2.326 . S
O391 C398 1.267 . S
O392 C381 1.185 . S
O392 Dy383 2.398 . S
O393 C381 1.355 . S
O393 Dy383 2.491 . S
O394 Dy383 2.403 . S
O394 C389 1.254 . S
O395 Dy380 2.310 . S
O395 Dy383 2.664 . S
O395 C389 1.268 . S
O396 Dy380 2.351 . S
O396 C399 1.249 . S
O397 Dy383 2.326 . S
O397 C399 1.267 . S
C398 O390 1.249 . S
C398 O391 1.267 . S
C399 O396 1.249 . S
C399 O397 1.267 . S
Dy400 O404 2.398 . S
Dy400 O405 2.491 . S
Dy400 O406 2.403 . S
Dy400 O407 2.664 . S
Dy400 O411 2.326 . S
Dy400 O415 2.310 . S
Dy400 O416 2.351 . S
C401 O412 1.185 . S
C401 O413 1.355 . S
C402 O404 1.185 . S
C402 O405 1.355 . S
Dy403 O407 2.310 . S
Dy403 O410 2.351 . S
Dy403 O412 2.398 . S
Dy403 O413 2.491 . S
Dy403 O414 2.403 . S
Dy403 O415 2.664 . S
Dy403 O417 2.326 . S
O404 Dy400 2.398 . S
O404 C402 1.185 . S
O405 Dy400 2.491 . S
O405 C402 1.355 . S
O406 Dy400 2.403 . S
O406 C408 1.254 . S
O407 Dy400 2.664 . S
O407 Dy403 2.310 . S
O407 C408 1.268 . S
C408 O406 1.254 . S
C408 O407 1.268 . S
C409 O414 1.254 . S
C409 O415 1.268 . S
O410 Dy403 2.351 . S
O410 C418 1.249 . S
O411 Dy400 2.326 . S
O411 C418 1.267 . S
O412 C401 1.185 . S
O412 Dy403 2.398 . S
O413 C401 1.355 . S
O413 Dy403 2.491 . S
O414 Dy403 2.403 . S
O414 C409 1.254 . S
O415 Dy400 2.310 . S
O415 Dy403 2.664 . S
O415 C409 1.268 . S
O416 Dy400 2.351 . S
O416 C419 1.249 . S
O417 Dy403 2.326 . S
O417 C419 1.267 . S
C418 O410 1.249 . S
C418 O411 1.267 . S
C419 O416 1.249 . S
C419 O417 1.267 . S
Dy420 O424 2.398 . S
Dy420 O425 2.491 . S
Dy420 O426 2.403 . S
Dy420 O427 2.664 . S
Dy420 O431 2.326 . S
Dy420 O435 2.310 . S
Dy420 O436 2.351 . S
C421 O432 1.185 . S
C421 O433 1.355 . S
C422 O424 1.185 . S
C422 O425 1.355 . S
Dy423 O427 2.310 . S
Dy423 O430 2.351 . S
Dy423 O432 2.398 . S
Dy423 O433 2.491 . S
Dy423 O434 2.403 . S
Dy423 O435 2.664 . S
Dy423 O437 2.326 . S
O424 Dy420 2.398 . S
O424 C422 1.185 . S
O425 Dy420 2.491 . S
O425 C422 1.355 . S
O426 Dy420 2.403 . S
O426 C428 1.254 . S
O427 Dy420 2.664 . S
O427 Dy423 2.310 . S
O427 C428 1.268 . S
C428 O426 1.254 . S
C428 O427 1.268 . S
C429 O434 1.254 . S
C429 O435 1.268 . S
O430 Dy423 2.351 . S
O430 C438 1.249 . S
O431 Dy420 2.326 . S
O431 C438 1.267 . S
O432 C421 1.185 . S
O432 Dy423 2.398 . S
O433 C421 1.355 . S
O433 Dy423 2.491 . S
O434 Dy423 2.403 . S
O434 C429 1.254 . S
O435 Dy420 2.310 . S
O435 Dy423 2.664 . S
O435 C429 1.268 . S
O436 Dy420 2.351 . S
O436 C439 1.249 . S
O437 Dy423 2.326 . S
O437 C439 1.267 . S
C438 O430 1.249 . S
C438 O431 1.267 . S
C439 O436 1.249 . S
C439 O437 1.267 . S
Dy440 O444 2.398 . S
Dy440 O445 2.491 . S
Dy440 O446 2.403 . S
Dy440 O447 2.664 . S
Dy440 O451 2.326 . S
Dy440 O455 2.310 . S
Dy440 O456 2.351 . S
C441 O452 1.185 . S
C441 O453 1.355 . S
C442 O444 1.185 . S
C442 O445 1.355 . S
Dy443 O447 2.310 . S
Dy443 O450 2.351 . S
Dy443 O452 2.398 . S
Dy443 O453 2.491 . S
Dy443 O454 2.403 . S
Dy443 O455 2.664 . S
Dy443 O457 2.326 . S
O444 Dy440 2.398 . S
O444 C442 1.185 . S
O445 Dy440 2.491 . S
O445 C442 1.355 . S
O446 Dy440 2.403 . S
O446 C448 1.254 . S
O447 Dy440 2.664 . S
O447 Dy443 2.310 . S
O447 C448 1.268 . S
C448 O446 1.254 . S
C448 O447 1.268 . S
C449 O454 1.254 . S
C449 O455 1.268 . S
O450 Dy443 2.351 . S
O450 C458 1.249 . S
O451 Dy440 2.326 . S
O451 C458 1.267 . S
O452 C441 1.185 . S
O452 Dy443 2.398 . S
O453 C441 1.355 . S
O453 Dy443 2.491 . S
O454 Dy443 2.403 . S
O454 C449 1.254 . S
O455 Dy440 2.310 . S
O455 Dy443 2.664 . S
O455 C449 1.268 . S
O456 Dy440 2.351 . S
O456 C459 1.249 . S
O457 Dy443 2.326 . S
O457 C459 1.267 . S
C458 O450 1.249 . S
C458 O451 1.267 . S
C459 O456 1.249 . S
C459 O457 1.267 . S
Dy460 O464 2.398 . S
Dy460 O465 2.491 . S
Dy460 O466 2.403 . S
Dy460 O467 2.664 . S
Dy460 O471 2.326 . S
Dy460 O475 2.310 . S
Dy460 O476 2.351 . S
C461 O472 1.185 . S
C461 O473 1.355 . S
C462 O464 1.185 . S
C462 O465 1.355 . S
Dy463 O467 2.310 . S
Dy463 O470 2.351 . S
Dy463 O472 2.398 . S
Dy463 O473 2.491 . S
Dy463 O474 2.403 . S
Dy463 O475 2.664 . S
Dy463 O477 2.326 . S
O464 Dy460 2.398 . S
O464 C462 1.185 . S
O465 Dy460 2.491 . S
O465 C462 1.355 . S
O466 Dy460 2.403 . S
O466 C468 1.254 . S
O467 Dy460 2.664 . S
O467 Dy463 2.310 . S
O467 C468 1.268 . S
C468 O466 1.254 . S
C468 O467 1.268 . S
C469 O474 1.254 . S
C469 O475 1.268 . S
O470 Dy463 2.351 . S
O470 C478 1.249 . S
O471 Dy460 2.326 . S
O471 C478 1.267 . S
O472 C461 1.185 . S
O472 Dy463 2.398 . S
O473 C461 1.355 . S
O473 Dy463 2.491 . S
O474 Dy463 2.403 . S
O474 C469 1.254 . S
O475 Dy460 2.310 . S
O475 Dy463 2.664 . S
O475 C469 1.268 . S
O476 Dy460 2.351 . S
O476 C479 1.249 . S
O477 Dy463 2.326 . S
O477 C479 1.267 . S
C478 O470 1.249 . S
C478 O471 1.267 . S
C479 O476 1.249 . S
C479 O477 1.267 . S
Dy480 O484 2.398 . S
Dy480 O485 2.491 . S
Dy480 O486 2.403 1_455 S
Dy480 O487 2.664 1_455 S
Dy480 O491 2.326 . S
Dy480 O495 2.310 . S
Dy480 O496 2.351 1_455 S
C481 O492 1.185 . S
C481 O493 1.355 . S
C482 O484 1.185 . S
C482 O485 1.355 . S
Dy483 O487 2.310 . S
Dy483 O490 2.351 1_655 S
Dy483 O492 2.398 . S
Dy483 O493 2.491 . S
Dy483 O494 2.404 1_655 S
Dy483 O495 2.664 1_655 S
Dy483 O497 2.326 . S
O484 Dy480 2.398 . S
O484 C482 1.185 . S
O485 Dy480 2.491 . S
O485 C482 1.355 . S
O486 Dy480 2.403 1_655 S
O486 C488 1.254 . S
O487 Dy480 2.664 1_655 S
O487 Dy483 2.310 . S
O487 C488 1.268 . S
C488 O486 1.254 . S
C488 O487 1.268 . S
C489 O494 1.253 . S
C489 O495 1.268 . S
O490 Dy483 2.351 1_455 S
O490 C498 1.249 . S
O491 Dy480 2.326 . S
O491 C498 1.267 . S
O492 C481 1.185 . S
O492 Dy483 2.398 . S
O493 C481 1.355 . S
O493 Dy483 2.491 . S
O494 Dy483 2.404 1_455 S
O494 C489 1.253 . S
O495 Dy480 2.310 . S
O495 Dy483 2.664 1_455 S
O495 C489 1.268 . S
O496 Dy480 2.351 1_655 S
O496 C499 1.249 . S
O497 Dy483 2.326 . S
O497 C499 1.267 . S
C498 O490 1.249 . S
C498 O491 1.267 . S
C499 O496 1.249 . S
C499 O497 1.267 . S
Dy500 O504 2.398 . S
Dy500 O505 2.491 . S
Dy500 O506 2.403 . S
Dy500 O507 2.664 . S
Dy500 O511 2.326 . S
Dy500 O515 2.310 . S
Dy500 O516 2.351 . S
C501 O512 1.185 . S
C501 O513 1.355 . S
C502 O504 1.185 . S
C502 O505 1.355 . S
Dy503 O507 2.310 . S
Dy503 O510 2.351 . S
Dy503 O512 2.398 . S
Dy503 O513 2.491 . S
Dy503 O514 2.403 . S
Dy503 O515 2.664 . S
Dy503 O517 2.326 . S
O504 Dy500 2.398 . S
O504 C502 1.185 . S
O505 Dy500 2.491 . S
O505 C502 1.355 . S
O506 Dy500 2.403 . S
O506 C508 1.254 . S
O507 Dy500 2.664 . S
O507 Dy503 2.310 . S
O507 C508 1.268 . S
C508 O506 1.254 . S
C508 O507 1.268 . S
C509 O514 1.254 . S
C509 O515 1.268 . S
O510 Dy503 2.351 . S
O510 C518 1.249 . S
O511 Dy500 2.326 . S
O511 C518 1.267 . S
O512 C501 1.185 . S
O512 Dy503 2.398 . S
O513 C501 1.355 . S
O513 Dy503 2.491 . S
O514 Dy503 2.403 . S
O514 C509 1.254 . S
O515 Dy500 2.310 . S
O515 Dy503 2.664 . S
O515 C509 1.268 . S
O516 Dy500 2.351 . S
O516 C519 1.249 . S
O517 Dy503 2.326 . S
O517 C519 1.267 . S
C518 O510 1.249 . S
C518 O511 1.267 . S
C519 O516 1.249 . S
C519 O517 1.267 . S
Dy520 O524 2.398 . S
Dy520 O525 2.491 . S
Dy520 O526 2.403 . S
Dy520 O527 2.664 . S
Dy520 O531 2.326 . S
Dy520 O535 2.310 . S
Dy520 O536 2.351 . S
C521 O532 1.185 . S
C521 O533 1.355 . S
C522 O524 1.185 . S
C522 O525 1.355 . S
Dy523 O527 2.310 . S
Dy523 O530 2.351 . S
Dy523 O532 2.398 . S
Dy523 O533 2.491 . S
Dy523 O534 2.403 . S
Dy523 O535 2.664 . S
Dy523 O537 2.326 . S
O524 Dy520 2.398 . S
O524 C522 1.185 . S
O525 Dy520 2.491 . S
O525 C522 1.355 . S
O526 Dy520 2.403 . S
O526 C528 1.254 . S
O527 Dy520 2.664 . S
O527 Dy523 2.310 . S
O527 C528 1.268 . S
C528 O526 1.254 . S
C528 O527 1.268 . S
C529 O534 1.254 . S
C529 O535 1.268 . S
O530 Dy523 2.351 . S
O530 C538 1.249 . S
O531 Dy520 2.326 . S
O531 C538 1.267 . S
O532 C521 1.185 . S
O532 Dy523 2.398 . S
O533 C521 1.355 . S
O533 Dy523 2.491 . S
O534 Dy523 2.403 . S
O534 C529 1.254 . S
O535 Dy520 2.310 . S
O535 Dy523 2.664 . S
O535 C529 1.268 . S
O536 Dy520 2.351 . S
O536 C539 1.249 . S
O537 Dy523 2.326 . S
O537 C539 1.267 . S
C538 O530 1.249 . S
C538 O531 1.267 . S
C539 O536 1.249 . S
C539 O537 1.267 . S
Dy540 O544 2.398 . S
Dy540 O545 2.491 . S
Dy540 O546 2.403 . S
Dy540 O547 2.664 . S
Dy540 O551 2.326 . S
Dy540 O555 2.310 . S
Dy540 O556 2.351 . S
C541 O552 1.185 . S
C541 O553 1.355 . S
C542 O544 1.185 . S
C542 O545 1.355 . S
Dy543 O547 2.310 . S
Dy543 O550 2.351 . S
Dy543 O552 2.398 . S
Dy543 O553 2.491 . S
Dy543 O554 2.403 . S
Dy543 O555 2.664 . S
Dy543 O557 2.326 . S
O544 Dy540 2.398 . S
O544 C542 1.185 . S
O545 Dy540 2.491 . S
O545 C542 1.355 . S
O546 Dy540 2.403 . S
O546 C548 1.254 . S
O547 Dy540 2.664 . S
O547 Dy543 2.310 . S
O547 C548 1.268 . S
C548 O546 1.254 . S
C548 O547 1.268 . S
C549 O554 1.254 . S
C549 O555 1.268 . S
O550 Dy543 2.351 . S
O550 C558 1.249 . S
O551 Dy540 2.326 . S
O551 C558 1.267 . S
O552 C541 1.185 . S
O552 Dy543 2.398 . S
O553 C541 1.355 . S
O553 Dy543 2.491 . S
O554 Dy543 2.403 . S
O554 C549 1.254 . S
O555 Dy540 2.310 . S
O555 Dy543 2.664 . S
O555 C549 1.268 . S
O556 Dy540 2.351 . S
O556 C559 1.249 . S
O557 Dy543 2.326 . S
O557 C559 1.267 . S
C558 O550 1.249 . S
C558 O551 1.267 . S
C559 O556 1.249 . S
C559 O557 1.267 . S
Dy560 O564 2.398 . S
Dy560 O565 2.491 . S
Dy560 O566 2.403 1_455 S
Dy560 O567 2.664 1_455 S
Dy560 O571 2.326 . S
Dy560 O575 2.310 . S
Dy560 O576 2.351 1_455 S
C561 O572 1.185 . S
C561 O573 1.355 . S
C562 O564 1.185 . S
C562 O565 1.355 . S
Dy563 O567 2.310 . S
Dy563 O570 2.351 1_655 S
Dy563 O572 2.398 . S
Dy563 O573 2.491 . S
Dy563 O574 2.395 1_655 S
Dy563 O575 2.664 1_655 S
Dy563 O577 2.326 . S
O564 Dy560 2.398 . S
O564 C562 1.185 . S
O565 Dy560 2.491 . S
O565 C562 1.355 . S
O566 Dy560 2.403 1_655 S
O566 C568 1.254 . S
O567 Dy560 2.664 1_655 S
O567 Dy563 2.310 . S
O567 C568 1.268 . S
C568 O566 1.254 . S
C568 O567 1.268 . S
C569 O574 1.264 . S
C569 O575 1.268 . S
O570 Dy563 2.351 1_455 S
O570 C578 1.249 . S
O571 Dy560 2.326 . S
O571 C578 1.267 . S
O572 C561 1.185 . S
O572 Dy563 2.398 . S
O573 C561 1.355 . S
O573 Dy563 2.491 . S
O574 Dy563 2.395 1_455 S
O574 C569 1.264 . S
O575 Dy560 2.310 . S
O575 Dy563 2.664 1_455 S
O575 C569 1.268 . S
O576 Dy560 2.351 1_655 S
O576 C579 1.249 . S
O577 Dy563 2.326 . S
O577 C579 1.267 . S
C578 O570 1.249 . S
C578 O571 1.267 . S
C579 O576 1.249 . S
C579 O577 1.267 . S
Dy580 O584 2.398 . S
Dy580 O585 2.491 . S
Dy580 O586 2.403 . S
Dy580 O587 2.664 . S
Dy580 O591 2.326 . S
Dy580 O595 2.310 . S
Dy580 O596 2.351 . S
C581 O592 1.185 . S
C581 O593 1.355 . S
C582 O584 1.185 . S
C582 O585 1.355 . S
Dy583 O587 2.310 . S
Dy583 O590 2.351 . S
Dy583 O592 2.398 . S
Dy583 O593 2.491 . S
Dy583 O594 2.403 . S
Dy583 O595 2.664 . S
Dy583 O597 2.326 . S
O584 Dy580 2.398 . S
O584 C582 1.185 . S
O585 Dy580 2.491 . S
O585 C582 1.355 . S
O586 Dy580 2.403 . S
O586 C588 1.254 . S
O587 Dy580 2.664 . S
O587 Dy583 2.310 . S
O587 C588 1.268 . S
C588 O586 1.254 . S
C588 O587 1.268 . S
C589 O594 1.254 . S
C589 O595 1.268 . S
O590 Dy583 2.351 . S
O590 C598 1.249 . S
O591 Dy580 2.326 . S
O591 C598 1.267 . S
O592 C581 1.185 . S
O592 Dy583 2.398 . S
O593 C581 1.355 . S
O593 Dy583 2.491 . S
O594 Dy583 2.403 . S
O594 C589 1.254 . S
O595 Dy580 2.310 . S
O595 Dy583 2.664 . S
O595 C589 1.268 . S
O596 Dy580 2.351 . S
O596 C599 1.249 . S
O597 Dy583 2.326 . S
O597 C599 1.267 . S
C598 O590 1.249 . S
C598 O591 1.267 . S
C599 O596 1.249 . S
C599 O597 1.267 . S
Dy600 O604 2.398 . S
Dy600 O605 2.491 . S
Dy600 O606 2.403 . S
Dy600 O607 2.664 . S
Dy600 O611 2.326 . S
Dy600 O615 2.310 . S
Dy600 O616 2.351 . S
C601 O612 1.185 . S
C601 O613 1.355 . S
C602 O604 1.185 . S
C602 O605 1.355 . S
Dy603 O607 2.310 . S
Dy603 O610 2.351 . S
Dy603 O612 2.398 . S
Dy603 O613 2.491 . S
Dy603 O614 2.403 . S
Dy603 O615 2.664 . S
Dy603 O617 2.326 . S
O604 Dy600 2.398 . S
O604 C602 1.185 . S
O605 Dy600 2.491 . S
O605 C602 1.355 . S
O606 Dy600 2.403 . S
O606 C608 1.254 . S
O607 Dy600 2.664 . S
O607 Dy603 2.310 . S
O607 C608 1.268 . S
C608 O606 1.254 . S
C608 O607 1.268 . S
C609 O614 1.254 . S
C609 O615 1.268 . S
O610 Dy603 2.351 . S
O610 C618 1.249 . S
O611 Dy600 2.326 . S
O611 C618 1.267 . S
O612 C601 1.185 . S
O612 Dy603 2.398 . S
O613 C601 1.355 . S
O613 Dy603 2.491 . S
O614 Dy603 2.403 . S
O614 C609 1.254 . S
O615 Dy600 2.310 . S
O615 Dy603 2.664 . S
O615 C609 1.268 . S
O616 Dy600 2.351 . S
O616 C619 1.249 . S
O617 Dy603 2.326 . S
O617 C619 1.267 . S
C618 O610 1.249 . S
C618 O611 1.267 . S
C619 O616 1.249 . S
C619 O617 1.267 . S
Dy620 O624 2.398 . S
Dy620 O625 2.491 . S
Dy620 O626 2.403 . S
Dy620 O627 2.664 . S
Dy620 O631 2.326 . S
Dy620 O635 2.310 . S
Dy620 O636 2.351 . S
C621 O632 1.185 . S
C621 O633 1.355 . S
C622 O624 1.185 . S
C622 O625 1.355 . S
Dy623 O627 2.310 . S
Dy623 O630 2.351 . S
Dy623 O632 2.398 . S
Dy623 O633 2.491 . S
Dy623 O634 2.403 . S
Dy623 O635 2.664 . S
Dy623 O637 2.326 . S
O624 Dy620 2.398 . S
O624 C622 1.185 . S
O625 Dy620 2.491 . S
O625 C622 1.355 . S
O626 Dy620 2.403 . S
O626 C628 1.254 . S
O627 Dy620 2.664 . S
O627 Dy623 2.310 . S
O627 C628 1.268 . S
C628 O626 1.254 . S
C628 O627 1.268 . S
C629 O634 1.254 . S
C629 O635 1.268 . S
O630 Dy623 2.351 . S
O630 C638 1.249 . S
O631 Dy620 2.326 . S
O631 C638 1.267 . S
O632 C621 1.185 . S
O632 Dy623 2.398 . S
O633 C621 1.355 . S
O633 Dy623 2.491 . S
O634 Dy623 2.403 . S
O634 C629 1.254 . S
O635 Dy620 2.310 . S
O635 Dy623 2.664 . S
O635 C629 1.268 . S
O636 Dy620 2.351 . S
O636 C639 1.249 . S
O637 Dy623 2.326 . S
O637 C639 1.267 . S
C638 O630 1.249 . S
C638 O631 1.267 . S
C639 O636 1.249 . S
C639 O637 1.267 . S
Dy640 O644 2.398 1_565 S
Dy640 O645 2.491 1_565 S
Dy640 O646 2.403 . S
Dy640 O647 2.664 . S
Dy640 O651 2.326 1_565 S
Dy640 O655 2.310 . S
Dy640 O656 2.351 . S
C641 O652 1.185 . S
C641 O653 1.355 . S
C642 O644 1.185 . S
C642 O645 1.355 . S
Dy643 O647 2.310 . S
Dy643 O650 2.351 . S
Dy643 O652 2.398 . S
Dy643 O653 2.491 . S
Dy643 O654 2.403 . S
Dy643 O655 2.664 . S
Dy643 O657 2.326 . S
O644 Dy640 2.398 1_545 S
O644 C642 1.185 . S
O645 Dy640 2.491 1_545 S
O645 C642 1.355 . S
O646 Dy640 2.403 . S
O646 C648 1.254 . S
O647 Dy640 2.664 . S
O647 Dy643 2.310 . S
O647 C648 1.268 . S
C648 O646 1.254 . S
C648 O647 1.268 . S
C649 O654 1.254 . S
C649 O655 1.268 . S
O650 Dy643 2.351 . S
O650 C658 1.249 . S
O651 Dy640 2.326 1_545 S
O651 C658 1.267 1_545 S
O652 C641 1.185 . S
O652 Dy643 2.398 . S
O653 C641 1.355 . S
O653 Dy643 2.491 . S
O654 Dy643 2.403 . S
O654 C649 1.254 . S
O655 Dy640 2.310 . S
O655 Dy643 2.664 . S
O655 C649 1.268 . S
O656 Dy640 2.351 . S
O656 C659 1.249 . S
O657 Dy643 2.326 . S
O657 C659 1.267 . S
C658 O650 1.249 . S
C658 O651 1.267 1_565 S
C659 O656 1.249 . S
C659 O657 1.267 . S
Dy660 O664 2.398 . S
Dy660 O665 2.491 . S
Dy660 O666 2.403 . S
Dy660 O667 2.664 . S
Dy660 O671 2.326 . S
Dy660 O675 2.310 . S
Dy660 O676 2.351 . S
C661 O672 1.185 . S
C661 O673 1.355 . S
C662 O664 1.185 . S
C662 O665 1.355 . S
Dy663 O667 2.310 . S
Dy663 O670 2.351 . S
Dy663 O672 2.398 . S
Dy663 O673 2.491 . S
Dy663 O674 2.403 . S
Dy663 O675 2.664 . S
Dy663 O677 2.326 . S
O664 Dy660 2.398 . S
O664 C662 1.185 . S
O665 Dy660 2.491 . S
O665 C662 1.355 . S
O666 Dy660 2.403 . S
O666 C668 1.254 . S
O667 Dy660 2.664 . S
O667 Dy663 2.310 . S
O667 C668 1.268 . S
C668 O666 1.254 . S
C668 O667 1.268 . S
C669 O674 1.254 . S
C669 O675 1.268 . S
O670 Dy663 2.351 . S
O670 C678 1.249 . S
O671 Dy660 2.326 . S
O671 C678 1.267 . S
O672 C661 1.185 . S
O672 Dy663 2.398 . S
O673 C661 1.355 . S
O673 Dy663 2.491 . S
O674 Dy663 2.403 . S
O674 C669 1.254 . S
O675 Dy660 2.310 . S
O675 Dy663 2.664 . S
O675 C669 1.268 . S
O676 Dy660 2.351 . S
O676 C679 1.249 . S
O677 Dy663 2.326 . S
O677 C679 1.267 . S
C678 O670 1.249 . S
C678 O671 1.267 . S
C679 O676 1.249 . S
C679 O677 1.267 . S
Dy680 O684 2.398 . S
Dy680 O685 2.491 . S
Dy680 O686 2.403 1_565 S
Dy680 O687 2.664 1_565 S
Dy680 O691 2.326 . S
Dy680 O695 2.310 . S
Dy680 O696 2.351 1_565 S
C681 O692 1.185 . S
C681 O693 1.355 . S
C682 O684 1.185 . S
C682 O685 1.355 . S
Dy683 O687 2.310 . S
Dy683 O690 2.370 . S
Dy683 O692 2.398 . S
Dy683 O693 2.491 . S
Dy683 O694 2.403 . S
Dy683 O695 2.664 1_545 S
Dy683 O697 2.326 . S
O684 Dy680 2.398 . S
O684 C682 1.185 . S
O685 Dy680 2.491 . S
O685 C682 1.355 . S
O686 Dy680 2.403 1_545 S
O686 C688 1.254 . S
O687 Dy680 2.664 1_545 S
O687 Dy683 2.310 . S
O687 C688 1.268 . S
C688 O686 1.254 . S
C688 O687 1.268 . S
C689 O694 1.254 1_565 S
C689 O695 1.268 . S
O690 Dy683 2.370 . S
O690 C698 1.229 1_545 S
O691 Dy680 2.326 . S
O691 C698 1.267 . S
O692 C681 1.185 . S
O692 Dy683 2.398 . S
O693 C681 1.355 . S
O693 Dy683 2.491 . S
O694 Dy683 2.403 . S
O694 C689 1.254 1_545 S
O695 Dy680 2.310 . S
O695 Dy683 2.664 1_565 S
O695 C689 1.268 . S
O696 Dy680 2.351 1_545 S
O696 C699 1.249 . S
O697 Dy683 2.326 . S
O697 C699 1.267 . S
C698 O690 1.229 1_565 S
C698 O691 1.267 . S
C699 O696 1.249 . S
C699 O697 1.267 . S
Dy700 O704 2.398 . S
Dy700 O705 2.491 . S
Dy700 O706 2.403 . S
Dy700 O707 2.664 . S
Dy700 O711 2.326 . S
Dy700 O715 2.310 . S
Dy700 O716 2.351 . S
C701 O712 1.185 . S
C701 O713 1.355 . S
C702 O704 1.185 . S
C702 O705 1.355 . S
Dy703 O707 2.310 . S
Dy703 O710 2.351 . S
Dy703 O712 2.398 . S
Dy703 O713 2.491 . S
Dy703 O714 2.403 . S
Dy703 O715 2.664 . S
Dy703 O717 2.326 . S
O704 Dy700 2.398 . S
O704 C702 1.185 . S
O705 Dy700 2.491 . S
O705 C702 1.355 . S
O706 Dy700 2.403 . S
O706 C708 1.254 . S
O707 Dy700 2.664 . S
O707 Dy703 2.310 . S
O707 C708 1.268 . S
C708 O706 1.254 . S
C708 O707 1.268 . S
C709 O714 1.254 . S
C709 O715 1.268 . S
O710 Dy703 2.351 . S
O710 C718 1.249 . S
O711 Dy700 2.326 . S
O711 C718 1.267 . S
O712 C701 1.185 . S
O712 Dy703 2.398 . S
O713 C701 1.355 . S
O713 Dy703 2.491 . S
O714 Dy703 2.403 . S
O714 C709 1.254 . S
O715 Dy700 2.310 . S
O715 Dy703 2.664 . S
O715 C709 1.268 . S
O716 Dy700 2.351 . S
O716 C719 1.249 . S
O717 Dy703 2.326 . S
O717 C719 1.267 . S
C718 O710 1.249 . S
C718 O711 1.267 . S
C719 O716 1.249 . S
C719 O717 1.267 . S
Dy720 O724 2.428 . S
Dy720 O725 2.531 . S
Dy720 O726 2.379 1_565 S
Dy720 O727 2.626 1_565 S
Dy720 O731 2.329 . S
Dy720 O735 2.305 1_565 S
Dy720 O736 2.322 1_565 S
C721 O732 1.185 . S
C721 O733 1.355 . S
C722 O724 1.185 . S
C722 O725 1.355 . S
Dy723 O727 2.310 . S
Dy723 O730 2.351 . S
Dy723 O732 2.398 . S
Dy723 O733 2.491 . S
Dy723 O734 2.403 . S
Dy723 O735 2.664 . S
Dy723 O737 2.326 . S
O724 Dy720 2.428 . S
O724 C722 1.185 . S
O725 Dy720 2.531 . S
O725 C722 1.355 . S
O726 Dy720 2.379 1_545 S
O726 C728 1.254 . S
O727 Dy720 2.626 1_545 S
O727 Dy723 2.310 . S
O727 C728 1.268 . S
C728 O726 1.254 . S
C728 O727 1.268 . S
C729 O734 1.254 . S
C729 O735 1.268 . S
O730 Dy723 2.351 . S
O730 C738 1.252 1_545 S
O731 Dy720 2.329 . S
O731 C738 1.267 . S
O732 C721 1.185 . S
O732 Dy723 2.398 . S
O733 C721 1.355 . S
O733 Dy723 2.491 . S
O734 Dy723 2.403 . S
O734 C729 1.254 . S
O735 Dy720 2.305 1_545 S
O735 Dy723 2.664 . S
O735 C729 1.268 . S
O736 Dy720 2.322 1_545 S
O736 C739 1.249 . S
O737 Dy723 2.326 . S
O737 C739 1.267 . S
C738 O730 1.252 1_565 S
C738 O731 1.267 . S
C739 O736 1.249 . S
C739 O737 1.267 . S
Dy740 O744 2.398 . S
Dy740 O745 2.491 . S
Dy740 O746 2.403 . S
Dy740 O747 2.664 . S
Dy740 O751 2.326 . S
Dy740 O755 2.310 . S
Dy740 O756 2.351 . S
C741 O752 1.185 . S
C741 O753 1.355 . S
C742 O744 1.185 . S
C742 O745 1.355 . S
Dy743 O747 2.310 . S
Dy743 O750 2.351 . S
Dy743 O752 2.398 . S
Dy743 O753 2.491 . S
Dy743 O754 2.403 . S
Dy743 O755 2.664 . S
Dy743 O757 2.326 . S
O744 Dy740 2.398 . S
O744 C742 1.185 . S
O745 Dy740 2.491 . S
O745 C742 1.355 . S
O746 Dy740 2.403 . S
O746 C748 1.254 . S
O747 Dy740 2.664 . S
O747 Dy743 2.310 . S
O747 C748 1.268 . S
C748 O746 1.254 . S
C748 O747 1.268 . S
C749 O754 1.254 . S
C749 O755 1.268 . S
O750 Dy743 2.351 . S
O750 C758 1.249 . S
O751 Dy740 2.326 . S
O751 C758 1.267 . S
O752 C741 1.185 . S
O752 Dy743 2.398 . S
O753 C741 1.355 . S
O753 Dy743 2.491 . S
O754 Dy743 2.403 . S
O754 C749 1.254 . S
O755 Dy740 2.310 . S
O755 Dy743 2.664 . S
O755 C749 1.268 . S
O756 Dy740 2.351 . S
O756 C759 1.249 . S
O757 Dy743 2.326 . S
O757 C759 1.267 . S
C758 O750 1.249 . S
C758 O751 1.267 . S
C759 O756 1.249 . S
C759 O757 1.267 . S
Dy760 O764 2.398 . S
Dy760 O765 2.491 . S
Dy760 O766 2.403 1_545 S
Dy760 O767 2.664 1_545 S
Dy760 O771 2.326 . S
Dy760 O775 2.312 . S
Dy760 O776 2.351 1_545 S
C761 O772 1.185 . S
C761 O773 1.355 . S
C762 O764 1.185 . S
C762 O765 1.355 . S
Dy763 O767 2.310 . S
Dy763 O770 2.351 . S
Dy763 O772 2.398 . S
Dy763 O773 2.491 . S
Dy763 O774 2.403 . S
Dy763 O775 2.635 1_565 S
Dy763 O777 2.326 . S
O764 Dy760 2.398 . S
O764 C762 1.185 . S
O765 Dy760 2.491 . S
O765 C762 1.355 . S
O766 Dy760 2.403 1_565 S
O766 C768 1.254 . S
O767 Dy760 2.664 1_565 S
O767 Dy763 2.310 . S
O767 C768 1.268 . S
C768 O766 1.254 . S
C768 O767 1.268 . S
C769 O774 1.254 1_545 S
C769 O775 1.269 . S
O770 Dy763 2.351 . S
O770 C778 1.249 1_565 S
O771 Dy760 2.326 . S
O771 C778 1.267 . S
O772 C761 1.185 . S
O772 Dy763 2.398 . S
O773 C761 1.355 . S
O773 Dy763 2.491 . S
O774 Dy763 2.403 . S
O774 C769 1.254 1_565 S
O775 Dy760 2.312 . S
O775 Dy763 2.635 1_545 S
O775 C769 1.269 . S
O776 Dy760 2.351 1_565 S
O776 C779 1.249 . S
O777 Dy763 2.326 . S
O777 C779 1.267 . S
C778 O770 1.249 1_545 S
C778 O771 1.267 . S
C779 O776 1.249 . S
C779 O777 1.267 . S
Dy780 O784 2.398 . S
Dy780 O785 2.491 . S
Dy780 O786 2.403 . S
Dy780 O787 2.664 . S
Dy780 O791 2.326 . S
Dy780 O795 2.310 . S
Dy780 O796 2.351 . S
C781 O792 1.185 . S
C781 O793 1.355 . S
C782 O784 1.185 . S
C782 O785 1.355 . S
Dy783 O787 2.310 . S
Dy783 O790 2.351 . S
Dy783 O792 2.398 . S
Dy783 O793 2.491 . S
Dy783 O794 2.403 . S
Dy783 O795 2.664 . S
Dy783 O797 2.326 . S
O784 Dy780 2.398 . S
O784 C782 1.185 . S
O785 Dy780 2.491 . S
O785 C782 1.355 . S
O786 Dy780 2.403 . S
O786 C788 1.254 . S
O787 Dy780 2.664 . S
O787 Dy783 2.310 . S
O787 C788 1.268 . S
C788 O786 1.254 . S
C788 O787 1.268 . S
C789 O794 1.254 . S
C789 O795 1.268 . S
O790 Dy783 2.351 . S
O790 C798 1.249 . S
O791 Dy780 2.326 . S
O791 C798 1.267 . S
O792 C781 1.185 . S
O792 Dy783 2.398 . S
O793 C781 1.355 . S
O793 Dy783 2.491 . S
O794 Dy783 2.403 . S
O794 C789 1.254 . S
O795 Dy780 2.310 . S
O795 Dy783 2.664 . S
O795 C789 1.268 . S
O796 Dy780 2.351 . S
O796 C799 1.249 . S
O797 Dy783 2.326 . S
O797 C799 1.267 . S
C798 O790 1.249 . S
C798 O791 1.267 . S
C799 O796 1.249 . S
C799 O797 1.267 . S
Dy800 O804 2.398 . S
Dy800 O805 2.491 . S
Dy800 O806 2.403 1_554 S
Dy800 O807 2.664 1_554 S
Dy800 O811 2.326 . S
Dy800 O815 2.311 . S
Dy800 O816 2.351 1_554 S
C801 O812 1.185 . S
C801 O813 1.355 . S
C802 O804 1.185 . S
C802 O805 1.355 . S
Dy803 O807 2.310 . S
Dy803 O810 2.351 . S
Dy803 O812 2.398 . S
Dy803 O813 2.491 . S
Dy803 O814 2.403 . S
Dy803 O815 2.657 1_556 S
Dy803 O817 2.326 . S
O804 Dy800 2.398 . S
O804 C802 1.185 . S
O805 Dy800 2.491 . S
O805 C802 1.355 . S
O806 Dy800 2.403 1_556 S
O806 C808 1.254 . S
O807 Dy800 2.664 1_556 S
O807 Dy803 2.310 . S
O807 C808 1.268 . S
C808 O806 1.254 . S
C808 O807 1.268 . S
C809 O814 1.243 1_554 S
C809 O815 1.268 . S
O810 Dy803 2.351 . S
O810 C818 1.249 1_556 S
O811 Dy800 2.326 . S
O811 C818 1.267 . S
O812 C801 1.185 . S
O812 Dy803 2.398 . S
O813 C801 1.355 . S
O813 Dy803 2.491 . S
O814 Dy803 2.403 . S
O814 C809 1.243 1_556 S
O815 Dy800 2.311 . S
O815 Dy803 2.657 1_554 S
O815 C809 1.268 . S
O816 Dy800 2.351 1_556 S
O816 C819 1.249 . S
O817 Dy803 2.326 . S
O817 C819 1.267 . S
C818 O810 1.249 1_554 S
C818 O811 1.267 . S
C819 O816 1.249 . S
C819 O817 1.267 . S
Dy820 O824 2.398 . S
Dy820 O825 2.491 . S
Dy820 O826 2.403 . S
Dy820 O827 2.664 . S
Dy820 O831 2.326 . S
Dy820 O835 2.310 . S
Dy820 O836 2.351 1_554 S
C821 O832 1.185 . S
C821 O833 1.355 . S
C822 O824 1.185 . S
C822 O825 1.355 . S
Dy823 O827 2.310 . S
Dy823 O830 2.351 . S
Dy823 O832 2.398 1_554 S
Dy823 O833 2.491 1_554 S
Dy823 O834 2.403 . S
Dy823 O835 2.664 . S
Dy823 O837 2.326 1_554 S
O824 Dy820 2.398 . S
O824 C822 1.185 . S
O825 Dy820 2.491 . S
O825 C822 1.355 . S
O826 Dy820 2.403 . S
O826 C828 1.254 1_554 S
O827 Dy820 2.664 . S
O827 Dy823 2.310 . S
O827 C828 1.268 1_554 S
C828 O826 1.254 1_556 S
C828 O827 1.268 1_556 S
C829 O834 1.254 . S
C829 O835 1.268 . S
O830 Dy823 2.351 . S
O830 C838 1.249 . S
O831 Dy820 2.326 . S
O831 C838 1.267 . S
O832 C821 1.185 . S
O832 Dy823 2.398 1_556 S
O833 C821 1.355 . S
O833 Dy823 2.491 1_556 S
O834 Dy823 2.403 . S
O834 C829 1.254 . S
O835 Dy820 2.310 . S
O835 Dy823 2.664 . S
O835 C829 1.268 . S
O836 Dy820 2.351 1_556 S
O836 C839 1.249 . S
O837 Dy823 2.326 1_556 S
O837 C839 1.267 . S
C838 O830 1.249 . S
C838 O831 1.267 . S
C839 O836 1.249 . S
C839 O837 1.267 . S
Dy840 O844 2.398 . S
Dy840 O845 2.491 . S
Dy840 O846 2.403 . S
Dy840 O847 2.664 . S
Dy840 O851 2.326 . S
Dy840 O855 2.310 . S
Dy840 O856 2.351 . S
C841 O852 1.185 . S
C841 O853 1.355 . S
C842 O844 1.185 . S
C842 O845 1.355 . S
Dy843 O847 2.310 . S
Dy843 O850 2.351 . S
Dy843 O852 2.398 . S
Dy843 O853 2.491 . S
Dy843 O854 2.403 . S
Dy843 O855 2.664 . S
Dy843 O857 2.326 . S
O844 Dy840 2.398 . S
O844 C842 1.185 . S
O845 Dy840 2.491 . S
O845 C842 1.355 . S
O846 Dy840 2.403 . S
O846 C848 1.254 . S
O847 Dy840 2.664 . S
O847 Dy843 2.310 . S
O847 C848 1.268 . S
C848 O846 1.254 . S
C848 O847 1.268 . S
C849 O854 1.254 . S
C849 O855 1.268 . S
O850 Dy843 2.351 . S
O850 C858 1.249 . S
O851 Dy840 2.326 . S
O851 C858 1.267 . S
O852 C841 1.185 . S
O852 Dy843 2.398 . S
O853 C841 1.355 . S
O853 Dy843 2.491 . S
O854 Dy843 2.403 . S
O854 C849 1.254 . S
O855 Dy840 2.310 . S
O855 Dy843 2.664 . S
O855 C849 1.268 . S
O856 Dy840 2.351 . S
O856 C859 1.249 . S
O857 Dy843 2.326 . S
O857 C859 1.267 . S
C858 O850 1.249 . S
C858 O851 1.267 . S
C859 O856 1.249 . S
C859 O857 1.267 . S
Dy860 O864 2.398 . S
Dy860 O865 2.491 . S
Dy860 O866 2.403 . S
Dy860 O867 2.664 . S
Dy860 O871 2.326 . S
Dy860 O875 2.310 . S
Dy860 O876 2.351 . S
C861 O872 1.185 . S
C861 O873 1.355 . S
C862 O864 1.185 . S
C862 O865 1.355 . S
Dy863 O867 2.310 . S
Dy863 O870 2.351 . S
Dy863 O872 2.398 . S
Dy863 O873 2.491 . S
Dy863 O874 2.403 . S
Dy863 O875 2.664 . S
Dy863 O877 2.326 . S
O864 Dy860 2.398 . S
O864 C862 1.185 . S
O865 Dy860 2.491 . S
O865 C862 1.355 . S
O866 Dy860 2.403 . S
O866 C868 1.254 . S
O867 Dy860 2.664 . S
O867 Dy863 2.310 . S
O867 C868 1.268 . S
C868 O866 1.254 . S
C868 O867 1.268 . S
C869 O874 1.254 . S
C869 O875 1.268 . S
O870 Dy863 2.351 . S
O870 C878 1.249 . S
O871 Dy860 2.326 . S
O871 C878 1.267 . S
O872 C861 1.185 . S
O872 Dy863 2.398 . S
O873 C861 1.355 . S
O873 Dy863 2.491 . S
O874 Dy863 2.403 . S
O874 C869 1.254 . S
O875 Dy860 2.310 . S
O875 Dy863 2.664 . S
O875 C869 1.268 . S
O876 Dy860 2.351 . S
O876 C879 1.249 . S
O877 Dy863 2.326 . S
O877 C879 1.267 . S
C878 O870 1.249 . S
C878 O871 1.267 . S
C879 O876 1.249 . S
C879 O877 1.267 . S
Dy880 O884 2.398 . S
Dy880 O885 2.491 . S
Dy880 O886 2.403 . S
Dy880 O887 2.664 . S
Dy880 O891 2.326 . S
Dy880 O895 2.310 . S
Dy880 O896 2.351 . S
C881 O892 1.185 . S
C881 O893 1.355 . S
C882 O884 1.185 . S
C882 O885 1.355 . S
Dy883 O887 2.310 . S
Dy883 O890 2.351 . S
Dy883 O892 2.398 . S
Dy883 O893 2.491 . S
Dy883 O894 2.403 . S
Dy883 O895 2.664 . S
Dy883 O897 2.326 . S
O884 Dy880 2.398 . S
O884 C882 1.185 . S
O885 Dy880 2.491 . S
O885 C882 1.355 . S
O886 Dy880 2.403 . S
O886 C888 1.254 . S
O887 Dy880 2.664 . S
O887 Dy883 2.310 . S
O887 C888 1.268 . S
C888 O886 1.254 . S
C888 O887 1.268 . S
C889 O894 1.254 . S
C889 O895 1.268 . S
O890 Dy883 2.351 . S
O890 C898 1.249 . S
O891 Dy880 2.326 . S
O891 C898 1.267 . S
O892 C881 1.185 . S
O892 Dy883 2.398 . S
O893 C881 1.355 . S
O893 Dy883 2.491 . S
O894 Dy883 2.403 . S
O894 C889 1.254 . S
O895 Dy880 2.310 . S
O895 Dy883 2.664 . S
O895 C889 1.268 . S
O896 Dy880 2.351 . S
O896 C899 1.249 . S
O897 Dy883 2.326 . S
O897 C899 1.267 . S
C898 O890 1.249 . S
C898 O891 1.267 . S
C899 O896 1.249 . S
C899 O897 1.267 . S
Dy900 O904 2.398 . S
Dy900 O905 2.491 . S
Dy900 O906 2.403 . S
Dy900 O907 2.664 . S
Dy900 O911 2.326 . S
Dy900 O915 2.310 . S
Dy900 O916 2.351 . S
C901 O912 1.185 . S
C901 O913 1.355 . S
C902 O904 1.185 . S
C902 O905 1.355 . S
Dy903 O907 2.310 . S
Dy903 O910 2.351 . S
Dy903 O912 2.398 . S
Dy903 O913 2.491 . S
Dy903 O914 2.403 . S
Dy903 O915 2.664 . S
Dy903 O917 2.326 . S
O904 Dy900 2.398 . S
O904 C902 1.185 . S
O905 Dy900 2.491 . S
O905 C902 1.355 . S
O906 Dy900 2.403 . S
O906 C908 1.254 . S
O907 Dy900 2.664 . S
O907 Dy903 2.310 . S
O907 C908 1.268 . S
C908 O906 1.254 . S
C908 O907 1.268 . S
C909 O914 1.254 . S
C909 O915 1.268 . S
O910 Dy903 2.351 . S
O910 C918 1.249 . S
O911 Dy900 2.326 . S
O911 C918 1.267 . S
O912 C901 1.185 . S
O912 Dy903 2.398 . S
O913 C901 1.355 . S
O913 Dy903 2.491 . S
O914 Dy903 2.403 . S
O914 C909 1.254 . S
O915 Dy900 2.310 . S
O915 Dy903 2.664 . S
O915 C909 1.268 . S
O916 Dy900 2.351 . S
O916 C919 1.249 . S
O917 Dy903 2.326 . S
O917 C919 1.267 . S
C918 O910 1.249 . S
C918 O911 1.267 . S
C919 O916 1.249 . S
C919 O917 1.267 . S
Dy920 O924 2.398 . S
Dy920 O925 2.491 . S
Dy920 O926 2.403 . S
Dy920 O927 2.664 . S
Dy920 O931 2.326 . S
Dy920 O935 2.310 . S
Dy920 O936 2.351 . S
C921 O932 1.185 . S
C921 O933 1.355 . S
C922 O924 1.185 . S
C922 O925 1.355 . S
Dy923 O927 2.310 . S
Dy923 O930 2.351 . S
Dy923 O932 2.398 . S
Dy923 O933 2.491 . S
Dy923 O934 2.403 . S
Dy923 O935 2.664 . S
Dy923 O937 2.326 . S
O924 Dy920 2.398 . S
O924 C922 1.185 . S
O925 Dy920 2.491 . S
O925 C922 1.355 . S
O926 Dy920 2.403 . S
O926 C928 1.254 . S
O927 Dy920 2.664 . S
O927 Dy923 2.310 . S
O927 C928 1.268 . S
C928 O926 1.254 . S
C928 O927 1.268 . S
C929 O934 1.254 . S
C929 O935 1.268 . S
O930 Dy923 2.351 . S
O930 C938 1.249 . S
O931 Dy920 2.326 . S
O931 C938 1.267 . S
O932 C921 1.185 . S
O932 Dy923 2.398 . S
O933 C921 1.355 . S
O933 Dy923 2.491 . S
O934 Dy923 2.403 . S
O934 C929 1.254 . S
O935 Dy920 2.310 . S
O935 Dy923 2.664 . S
O935 C929 1.268 . S
O936 Dy920 2.351 . S
O936 C939 1.249 . S
O937 Dy923 2.326 . S
O937 C939 1.267 . S
C938 O930 1.249 . S
C938 O931 1.267 . S
C939 O936 1.249 . S
C939 O937 1.267 . S
Dy940 O944 2.398 . S
Dy940 O945 2.491 . S
Dy940 O946 2.403 . S
Dy940 O947 2.664 . S
Dy940 O951 2.326 . S
Dy940 O955 2.310 . S
Dy940 O956 2.351 . S
C941 O952 1.185 . S
C941 O953 1.355 . S
C942 O944 1.185 . S
C942 O945 1.355 . S
Dy943 O947 2.310 . S
Dy943 O950 2.351 . S
Dy943 O952 2.398 . S
Dy943 O953 2.491 . S
Dy943 O954 2.403 . S
Dy943 O955 2.664 . S
Dy943 O957 2.326 . S
O944 Dy940 2.398 . S
O944 C942 1.185 . S
O945 Dy940 2.491 . S
O945 C942 1.355 . S
O946 Dy940 2.403 . S
O946 C948 1.254 . S
O947 Dy940 2.664 . S
O947 Dy943 2.310 . S
O947 C948 1.268 . S
C948 O946 1.254 . S
C948 O947 1.268 . S
C949 O954 1.254 . S
C949 O955 1.268 . S
O950 Dy943 2.351 . S
O950 C958 1.249 . S
O951 Dy940 2.326 . S
O951 C958 1.267 . S
O952 C941 1.185 . S
O952 Dy943 2.398 . S
O953 C941 1.355 . S
O953 Dy943 2.491 . S
O954 Dy943 2.403 . S
O954 C949 1.254 . S
O955 Dy940 2.310 . S
O955 Dy943 2.664 . S
O955 C949 1.268 . S
O956 Dy940 2.351 . S
O956 C959 1.249 . S
O957 Dy943 2.326 . S
O957 C959 1.267 . S
C958 O950 1.249 . S
C958 O951 1.267 . S
C959 O956 1.249 . S
C959 O957 1.267 . S
Dy960 O964 2.398 . S
Dy960 O965 2.491 . S
Dy960 O966 2.403 . S
Dy960 O967 2.664 . S
Dy960 O971 2.326 . S
Dy960 O975 2.310 . S
Dy960 O976 2.351 . S
C961 O972 1.185 . S
C961 O973 1.355 . S
C962 O964 1.185 . S
C962 O965 1.355 . S
Dy963 O967 2.310 . S
Dy963 O970 2.351 . S
Dy963 O972 2.398 . S
Dy963 O973 2.491 . S
Dy963 O974 2.403 . S
Dy963 O975 2.664 . S
Dy963 O977 2.326 . S
O964 Dy960 2.398 . S
O964 C962 1.185 . S
O965 Dy960 2.491 . S
O965 C962 1.355 . S
O966 Dy960 2.403 . S
O966 C968 1.254 . S
O967 Dy960 2.664 . S
O967 Dy963 2.310 . S
O967 C968 1.268 . S
C968 O966 1.254 . S
C968 O967 1.268 . S
C969 O974 1.254 . S
C969 O975 1.268 . S
O970 Dy963 2.351 . S
O970 C978 1.249 . S
O971 Dy960 2.326 . S
O971 C978 1.267 . S
O972 C961 1.185 . S
O972 Dy963 2.398 . S
O973 C961 1.355 . S
O973 Dy963 2.491 . S
O974 Dy963 2.403 . S
O974 C969 1.254 . S
O975 Dy960 2.310 . S
O975 Dy963 2.664 . S
O975 C969 1.268 . S
O976 Dy960 2.351 . S
O976 C979 1.249 . S
O977 Dy963 2.326 . S
O977 C979 1.267 . S
C978 O970 1.249 . S
C978 O971 1.267 . S
C979 O976 1.249 . S
C979 O977 1.267 . S
Dy980 O984 2.398 . S
Dy980 O985 2.491 . S
Dy980 O986 2.403 . S
Dy980 O987 2.664 . S
Dy980 O991 2.326 . S
Dy980 O995 2.310 . S
Dy980 O996 2.351 . S
C981 O992 1.185 . S
C981 O993 1.355 . S
C982 O984 1.185 . S
C982 O985 1.355 . S
Dy983 O987 2.310 . S
Dy983 O990 2.351 . S
Dy983 O992 2.398 . S
Dy983 O993 2.491 . S
Dy983 O994 2.403 . S
Dy983 O995 2.664 . S
Dy983 O997 2.326 . S
O984 Dy980 2.398 . S
O984 C982 1.185 . S
O985 Dy980 2.491 . S
O985 C982 1.355 . S
O986 Dy980 2.403 . S
O986 C988 1.254 . S
O987 Dy980 2.664 . S
O987 Dy983 2.310 . S
O987 C988 1.268 . S
C988 O986 1.254 . S
C988 O987 1.268 . S
C989 O994 1.254 . S
C989 O995 1.268 . S
O990 Dy983 2.351 . S
O990 C998 1.249 . S
O991 Dy980 2.326 . S
O991 C998 1.267 . S
O992 C981 1.185 . S
O992 Dy983 2.398 . S
O993 C981 1.355 . S
O993 Dy983 2.491 . S
O994 Dy983 2.403 . S
O994 C989 1.254 . S
O995 Dy980 2.310 . S
O995 Dy983 2.664 . S
O995 C989 1.268 . S
O996 Dy980 2.351 . S
O996 C999 1.249 . S
O997 Dy983 2.326 . S
O997 C999 1.267 . S
C998 O990 1.249 . S
C998 O991 1.267 . S
C999 O996 1.249 . S
C999 O997 1.267 . S
Dy1000 O1004 2.398 1_655 S
Dy1000 O1005 2.491 1_655 S
Dy1000 O1006 2.403 . S
Dy1000 O1007 2.664 . S
Dy1000 O1011 2.326 1_655 S
Dy1000 O1015 2.310 1_655 S
Dy1000 O1016 2.351 . S
C1001 O1012 1.185 . S
C1001 O1013 1.355 . S
C1002 O1004 1.185 . S
C1002 O1005 1.355 . S
Dy1003 O1007 2.310 . S
Dy1003 O1010 2.351 1_655 S
Dy1003 O1012 2.398 . S
Dy1003 O1013 2.491 . S
Dy1003 O1014 2.403 1_655 S
Dy1003 O1015 2.664 1_655 S
Dy1003 O1017 2.326 . S
O1004 Dy1000 2.398 1_455 S
O1004 C1002 1.185 . S
O1005 Dy1000 2.491 1_455 S
O1005 C1002 1.355 . S
O1006 Dy1000 2.403 . S
O1006 C1008 1.254 . S
O1007 Dy1000 2.664 . S
O1007 Dy1003 2.310 . S
O1007 C1008 1.268 . S
C1008 O1006 1.254 . S
C1008 O1007 1.268 . S
C1009 O1014 1.254 . S
C1009 O1015 1.268 . S
O1010 Dy1003 2.351 1_455 S
O1010 C1018 1.249 . S
O1011 Dy1000 2.326 1_455 S
O1011 C1018 1.267 . S
O1012 C1001 1.185 . S
O1012 Dy1003 2.398 . S
O1013 C1001 1.355 . S
O1013 Dy1003 2.491 . S
O1014 Dy1003 2.403 1_455 S
O1014 C1009 1.254 . S
O1015 Dy1000 2.310 1_455 S
O1015 Dy1003 2.664 1_455 S
O1015 C1009 1.268 . S
O1016 Dy1000 2.351 . S
O1016 C1019 1.249 . S
O1017 Dy1003 2.326 . S
O1017 C1019 1.267 . S
C1018 O1010 1.249 . S
C1018 O1011 1.267 . S
C1019 O1016 1.249 . S
C1019 O1017 1.267 . S
Dy1020 O1024 2.398 . S
Dy1020 O1025 2.491 . S
Dy1020 O1026 2.403 . S
Dy1020 O1027 2.664 . S
Dy1020 O1031 2.326 . S
Dy1020 O1035 2.310 . S
Dy1020 O1036 2.351 . S
C1021 O1032 1.185 . S
C1021 O1033 1.355 . S
C1022 O1024 1.185 . S
C1022 O1025 1.355 . S
Dy1023 O1027 2.310 . S
Dy1023 O1030 2.351 . S
Dy1023 O1032 2.398 . S
Dy1023 O1033 2.491 . S
Dy1023 O1034 2.403 . S
Dy1023 O1035 2.664 . S
Dy1023 O1037 2.326 . S
O1024 Dy1020 2.398 . S
O1024 C1022 1.185 . S
O1025 Dy1020 2.491 . S
O1025 C1022 1.355 . S
O1026 Dy1020 2.403 . S
O1026 C1028 1.254 . S
O1027 Dy1020 2.664 . S
O1027 Dy1023 2.310 . S
O1027 C1028 1.268 . S
C1028 O1026 1.254 . S
C1028 O1027 1.268 . S
C1029 O1034 1.254 . S
C1029 O1035 1.268 . S
O1030 Dy1023 2.351 . S
O1030 C1038 1.249 . S
O1031 Dy1020 2.326 . S
O1031 C1038 1.267 . S
O1032 C1021 1.185 . S
O1032 Dy1023 2.398 . S
O1033 C1021 1.355 . S
O1033 Dy1023 2.491 . S
O1034 Dy1023 2.403 . S
O1034 C1029 1.254 . S
O1035 Dy1020 2.310 . S
O1035 Dy1023 2.664 . S
O1035 C1029 1.268 . S
O1036 Dy1020 2.351 . S
O1036 C1039 1.249 . S
O1037 Dy1023 2.326 . S
O1037 C1039 1.267 . S
C1038 O1030 1.249 . S
C1038 O1031 1.267 . S
C1039 O1036 1.249 . S
C1039 O1037 1.267 . S
Dy1040 O1044 2.398 . S
Dy1040 O1045 2.491 . S
Dy1040 O1046 2.403 . S
Dy1040 O1047 2.664 . S
Dy1040 O1051 2.326 . S
Dy1040 O1055 2.310 . S
Dy1040 O1056 2.351 . S
C1041 O1052 1.185 . S
C1041 O1053 1.355 . S
C1042 O1044 1.185 . S
C1042 O1045 1.355 . S
Dy1043 O1047 2.310 . S
Dy1043 O1050 2.351 . S
Dy1043 O1052 2.398 . S
Dy1043 O1053 2.491 . S
Dy1043 O1054 2.403 . S
Dy1043 O1055 2.664 . S
Dy1043 O1057 2.326 . S
O1044 Dy1040 2.398 . S
O1044 C1042 1.185 . S
O1045 Dy1040 2.491 . S
O1045 C1042 1.355 . S
O1046 Dy1040 2.403 . S
O1046 C1048 1.254 . S
O1047 Dy1040 2.664 . S
O1047 Dy1043 2.310 . S
O1047 C1048 1.268 . S
C1048 O1046 1.254 . S
C1048 O1047 1.268 . S
C1049 O1054 1.254 . S
C1049 O1055 1.268 . S
O1050 Dy1043 2.351 . S
O1050 C1058 1.249 . S
O1051 Dy1040 2.326 . S
O1051 C1058 1.267 . S
O1052 C1041 1.185 . S
O1052 Dy1043 2.398 . S
O1053 C1041 1.355 . S
O1053 Dy1043 2.491 . S
O1054 Dy1043 2.403 . S
O1054 C1049 1.254 . S
O1055 Dy1040 2.310 . S
O1055 Dy1043 2.664 . S
O1055 C1049 1.268 . S
O1056 Dy1040 2.351 . S
O1056 C1059 1.249 . S
O1057 Dy1043 2.326 . S
O1057 C1059 1.267 . S
C1058 O1050 1.249 . S
C1058 O1051 1.267 . S
C1059 O1056 1.249 . S
C1059 O1057 1.267 . S
Dy1060 O1064 2.398 . S
Dy1060 O1065 2.491 . S
Dy1060 O1066 2.403 . S
Dy1060 O1067 2.664 . S
Dy1060 O1071 2.326 . S
Dy1060 O1075 2.310 . S
Dy1060 O1076 2.351 . S
C1061 O1072 1.185 . S
C1061 O1073 1.355 . S
C1062 O1064 1.185 . S
C1062 O1065 1.355 . S
Dy1063 O1067 2.310 . S
Dy1063 O1070 2.351 . S
Dy1063 O1072 2.398 . S
Dy1063 O1073 2.491 . S
Dy1063 O1074 2.403 . S
Dy1063 O1075 2.664 . S
Dy1063 O1077 2.326 . S
O1064 Dy1060 2.398 . S
O1064 C1062 1.185 . S
O1065 Dy1060 2.491 . S
O1065 C1062 1.355 . S
O1066 Dy1060 2.403 . S
O1066 C1068 1.254 . S
O1067 Dy1060 2.664 . S
O1067 Dy1063 2.310 . S
O1067 C1068 1.268 . S
C1068 O1066 1.254 . S
C1068 O1067 1.268 . S
C1069 O1074 1.254 . S
C1069 O1075 1.268 . S
O1070 Dy1063 2.351 . S
O1070 C1078 1.249 . S
O1071 Dy1060 2.326 . S
O1071 C1078 1.267 . S
O1072 C1061 1.185 . S
O1072 Dy1063 2.398 . S
O1073 C1061 1.355 . S
O1073 Dy1063 2.491 . S
O1074 Dy1063 2.403 . S
O1074 C1069 1.254 . S
O1075 Dy1060 2.310 . S
O1075 Dy1063 2.664 . S
O1075 C1069 1.268 . S
O1076 Dy1060 2.351 . S
O1076 C1079 1.249 . S
O1077 Dy1063 2.326 . S
O1077 C1079 1.267 . S
C1078 O1070 1.249 . S
C1078 O1071 1.267 . S
C1079 O1076 1.249 . S
C1079 O1077 1.267 . S
Dy1080 O1084 2.398 1_655 S
Dy1080 O1085 2.491 1_655 S
Dy1080 O1086 2.403 . S
Dy1080 O1087 2.664 . S
Dy1080 O1091 2.326 1_655 S
Dy1080 O1095 2.310 1_655 S
Dy1080 O1096 2.351 . S
C1081 O1092 1.185 . S
C1081 O1093 1.355 . S
C1082 O1084 1.185 . S
C1082 O1085 1.355 . S
Dy1083 O1087 2.310 . S
Dy1083 O1090 2.351 1_655 S
Dy1083 O1092 2.398 . S
Dy1083 O1093 2.491 . S
Dy1083 O1094 2.403 1_655 S
Dy1083 O1095 2.664 1_655 S
Dy1083 O1097 2.326 . S
O1084 Dy1080 2.398 1_455 S
O1084 C1082 1.185 . S
O1085 Dy1080 2.491 1_455 S
O1085 C1082 1.355 . S
O1086 Dy1080 2.403 . S
O1086 C1088 1.254 . S
O1087 Dy1080 2.664 . S
O1087 Dy1083 2.310 . S
O1087 C1088 1.268 . S
C1088 O1086 1.254 . S
C1088 O1087 1.268 . S
C1089 O1094 1.254 . S
C1089 O1095 1.268 . S
O1090 Dy1083 2.351 1_455 S
O1090 C1098 1.249 . S
O1091 Dy1080 2.326 1_455 S
O1091 C1098 1.267 . S
O1092 C1081 1.185 . S
O1092 Dy1083 2.398 . S
O1093 C1081 1.355 . S
O1093 Dy1083 2.491 . S
O1094 Dy1083 2.403 1_455 S
O1094 C1089 1.254 . S
O1095 Dy1080 2.310 1_455 S
O1095 Dy1083 2.664 1_455 S
O1095 C1089 1.268 . S
O1096 Dy1080 2.351 . S
O1096 C1099 1.249 . S
O1097 Dy1083 2.326 . S
O1097 C1099 1.267 . S
C1098 O1090 1.249 . S
C1098 O1091 1.267 . S
C1099 O1096 1.249 . S
C1099 O1097 1.267 . S
Dy1100 O1104 2.398 . S
Dy1100 O1105 2.491 . S
Dy1100 O1106 2.403 . S
Dy1100 O1107 2.664 . S
Dy1100 O1111 2.326 . S
Dy1100 O1115 2.310 . S
Dy1100 O1116 2.351 . S
C1101 O1112 1.185 . S
C1101 O1113 1.355 . S
C1102 O1104 1.185 . S
C1102 O1105 1.355 . S
Dy1103 O1107 2.310 . S
Dy1103 O1110 2.351 . S
Dy1103 O1112 2.398 . S
Dy1103 O1113 2.491 . S
Dy1103 O1114 2.403 . S
Dy1103 O1115 2.664 . S
Dy1103 O1117 2.326 . S
O1104 Dy1100 2.398 . S
O1104 C1102 1.185 . S
O1105 Dy1100 2.491 . S
O1105 C1102 1.355 . S
O1106 Dy1100 2.403 . S
O1106 C1108 1.254 . S
O1107 Dy1100 2.664 . S
O1107 Dy1103 2.310 . S
O1107 C1108 1.268 . S
C1108 O1106 1.254 . S
C1108 O1107 1.268 . S
C1109 O1114 1.254 . S
C1109 O1115 1.268 . S
O1110 Dy1103 2.351 . S
O1110 C1118 1.249 . S
O1111 Dy1100 2.326 . S
O1111 C1118 1.267 . S
O1112 C1101 1.185 . S
O1112 Dy1103 2.398 . S
O1113 C1101 1.355 . S
O1113 Dy1103 2.491 . S
O1114 Dy1103 2.403 . S
O1114 C1109 1.254 . S
O1115 Dy1100 2.310 . S
O1115 Dy1103 2.664 . S
O1115 C1109 1.268 . S
O1116 Dy1100 2.351 . S
O1116 C1119 1.249 . S
O1117 Dy1103 2.326 . S
O1117 C1119 1.267 . S
C1118 O1110 1.249 . S
C1118 O1111 1.267 . S
C1119 O1116 1.249 . S
C1119 O1117 1.267 . S
Dy1120 O1124 2.398 . S
Dy1120 O1125 2.491 . S
Dy1120 O1126 2.403 . S
Dy1120 O1127 2.664 . S
Dy1120 O1131 2.326 . S
Dy1120 O1135 2.310 . S
Dy1120 O1136 2.351 . S
C1121 O1132 1.185 . S
C1121 O1133 1.355 . S
C1122 O1124 1.185 . S
C1122 O1125 1.355 . S
Dy1123 O1127 2.310 . S
Dy1123 O1130 2.351 . S
Dy1123 O1132 2.398 . S
Dy1123 O1133 2.491 . S
Dy1123 O1134 2.403 . S
Dy1123 O1135 2.664 . S
Dy1123 O1137 2.326 . S
O1124 Dy1120 2.398 . S
O1124 C1122 1.185 . S
O1125 Dy1120 2.491 . S
O1125 C1122 1.355 . S
O1126 Dy1120 2.403 . S
O1126 C1128 1.254 . S
O1127 Dy1120 2.664 . S
O1127 Dy1123 2.310 . S
O1127 C1128 1.268 . S
C1128 O1126 1.254 . S
C1128 O1127 1.268 . S
C1129 O1134 1.254 . S
C1129 O1135 1.268 . S
O1130 Dy1123 2.351 . S
O1130 C1138 1.249 . S
O1131 Dy1120 2.326 . S
O1131 C1138 1.267 . S
O1132 C1121 1.185 . S
O1132 Dy1123 2.398 . S
O1133 C1121 1.355 . S
O1133 Dy1123 2.491 . S
O1134 Dy1123 2.403 . S
O1134 C1129 1.254 . S
O1135 Dy1120 2.310 . S
O1135 Dy1123 2.664 . S
O1135 C1129 1.268 . S
O1136 Dy1120 2.351 . S
O1136 C1139 1.249 . S
O1137 Dy1123 2.326 . S
O1137 C1139 1.267 . S
C1138 O1130 1.249 . S
C1138 O1131 1.267 . S
C1139 O1136 1.249 . S
C1139 O1137 1.267 . S
Dy1140 O1144 2.398 . S
Dy1140 O1145 2.491 . S
Dy1140 O1146 2.403 . S
Dy1140 O1147 2.664 . S
Dy1140 O1151 2.326 . S
Dy1140 O1155 2.310 . S
Dy1140 O1156 2.351 . S
C1141 O1152 1.185 . S
C1141 O1153 1.355 . S
C1142 O1144 1.185 . S
C1142 O1145 1.355 . S
Dy1143 O1147 2.310 . S
Dy1143 O1150 2.351 . S
Dy1143 O1152 2.398 . S
Dy1143 O1153 2.491 . S
Dy1143 O1154 2.403 . S
Dy1143 O1155 2.664 . S
Dy1143 O1157 2.326 . S
O1144 Dy1140 2.398 . S
O1144 C1142 1.185 . S
O1145 Dy1140 2.491 . S
O1145 C1142 1.355 . S
O1146 Dy1140 2.403 . S
O1146 C1148 1.254 . S
O1147 Dy1140 2.664 . S
O1147 Dy1143 2.310 . S
O1147 C1148 1.268 . S
C1148 O1146 1.254 . S
C1148 O1147 1.268 . S
C1149 O1154 1.254 . S
C1149 O1155 1.268 . S
O1150 Dy1143 2.351 . S
O1150 C1158 1.249 . S
O1151 Dy1140 2.326 . S
O1151 C1158 1.267 . S
O1152 C1141 1.185 . S
O1152 Dy1143 2.398 . S
O1153 C1141 1.355 . S
O1153 Dy1143 2.491 . S
O1154 Dy1143 2.403 . S
O1154 C1149 1.254 . S
O1155 Dy1140 2.310 . S
O1155 Dy1143 2.664 . S
O1155 C1149 1.268 . S
O1156 Dy1140 2.351 . S
O1156 C1159 1.249 . S
O1157 Dy1143 2.326 . S
O1157 C1159 1.267 . S
C1158 O1150 1.249 . S
C1158 O1151 1.267 . S
C1159 O1156 1.249 . S
C1159 O1157 1.267 . S
Dy1160 O1164 2.398 . S
Dy1160 O1165 2.491 . S
Dy1160 O1166 2.403 . S
Dy1160 O1167 2.664 . S
Dy1160 O1171 2.326 . S
Dy1160 O1175 2.310 . S
Dy1160 O1176 2.351 . S
C1161 O1172 1.185 . S
C1161 O1173 1.355 . S
C1162 O1164 1.185 . S
C1162 O1165 1.355 . S
Dy1163 O1167 2.310 . S
Dy1163 O1170 2.351 . S
Dy1163 O1172 2.398 . S
Dy1163 O1173 2.491 . S
Dy1163 O1174 2.403 . S
Dy1163 O1175 2.664 . S
Dy1163 O1177 2.326 . S
O1164 Dy1160 2.398 . S
O1164 C1162 1.185 . S
O1165 Dy1160 2.491 . S
O1165 C1162 1.355 . S
O1166 Dy1160 2.403 . S
O1166 C1168 1.254 . S
O1167 Dy1160 2.664 . S
O1167 Dy1163 2.310 . S
O1167 C1168 1.268 . S
C1168 O1166 1.254 . S
C1168 O1167 1.268 . S
C1169 O1174 1.254 . S
C1169 O1175 1.268 . S
O1170 Dy1163 2.351 . S
O1170 C1178 1.249 . S
O1171 Dy1160 2.326 . S
O1171 C1178 1.267 . S
O1172 C1161 1.185 . S
O1172 Dy1163 2.398 . S
O1173 C1161 1.355 . S
O1173 Dy1163 2.491 . S
O1174 Dy1163 2.403 . S
O1174 C1169 1.254 . S
O1175 Dy1160 2.310 . S
O1175 Dy1163 2.664 . S
O1175 C1169 1.268 . S
O1176 Dy1160 2.351 . S
O1176 C1179 1.249 . S
O1177 Dy1163 2.326 . S
O1177 C1179 1.267 . S
C1178 O1170 1.249 . S
C1178 O1171 1.267 . S
C1179 O1176 1.249 . S
C1179 O1177 1.267 . S
Dy1180 O1184 2.398 . S
Dy1180 O1185 2.491 . S
Dy1180 O1186 2.403 . S
Dy1180 O1187 2.664 . S
Dy1180 O1191 2.326 . S
Dy1180 O1195 2.310 . S
Dy1180 O1196 2.351 . S
C1181 O1192 1.185 . S
C1181 O1193 1.355 . S
C1182 O1184 1.185 . S
C1182 O1185 1.355 . S
Dy1183 O1187 2.310 . S
Dy1183 O1190 2.351 . S
Dy1183 O1192 2.398 . S
Dy1183 O1193 2.491 . S
Dy1183 O1194 2.403 . S
Dy1183 O1195 2.664 . S
Dy1183 O1197 2.326 . S
O1184 Dy1180 2.398 . S
O1184 C1182 1.185 . S
O1185 Dy1180 2.491 . S
O1185 C1182 1.355 . S
O1186 Dy1180 2.403 . S
O1186 C1188 1.254 . S
O1187 Dy1180 2.664 . S
O1187 Dy1183 2.310 . S
O1187 C1188 1.268 . S
C1188 O1186 1.254 . S
C1188 O1187 1.268 . S
C1189 O1194 1.254 . S
C1189 O1195 1.268 . S
O1190 Dy1183 2.351 . S
O1190 C1198 1.249 . S
O1191 Dy1180 2.326 . S
O1191 C1198 1.267 . S
O1192 C1181 1.185 . S
O1192 Dy1183 2.398 . S
O1193 C1181 1.355 . S
O1193 Dy1183 2.491 . S
O1194 Dy1183 2.403 . S
O1194 C1189 1.254 . S
O1195 Dy1180 2.310 . S
O1195 Dy1183 2.664 . S
O1195 C1189 1.268 . S
O1196 Dy1180 2.351 . S
O1196 C1199 1.249 . S
O1197 Dy1183 2.326 . S
O1197 C1199 1.267 . S
C1198 O1190 1.249 . S
C1198 O1191 1.267 . S
C1199 O1196 1.249 . S
C1199 O1197 1.267 . S
Dy1200 O1204 2.398 . S
Dy1200 O1205 2.491 . S
Dy1200 O1206 2.403 . S
Dy1200 O1207 2.664 . S
Dy1200 O1211 2.326 . S
Dy1200 O1215 2.310 . S
Dy1200 O1216 2.351 . S
C1201 O1212 1.185 . S
C1201 O1213 1.355 . S
C1202 O1204 1.185 . S
C1202 O1205 1.355 . S
Dy1203 O1207 2.310 . S
Dy1203 O1210 2.351 . S
Dy1203 O1212 2.398 . S
Dy1203 O1213 2.491 . S
Dy1203 O1214 2.403 . S
Dy1203 O1215 2.664 . S
Dy1203 O1217 2.326 . S
O1204 Dy1200 2.398 . S
O1204 C1202 1.185 . S
O1205 Dy1200 2.491 . S
O1205 C1202 1.355 . S
O1206 Dy1200 2.403 . S
O1206 C1208 1.254 . S
O1207 Dy1200 2.664 . S
O1207 Dy1203 2.310 . S
O1207 C1208 1.268 . S
C1208 O1206 1.254 . S
C1208 O1207 1.268 . S
C1209 O1214 1.254 . S
C1209 O1215 1.268 . S
O1210 Dy1203 2.351 . S
O1210 C1218 1.249 . S
O1211 Dy1200 2.326 . S
O1211 C1218 1.267 . S
O1212 C1201 1.185 . S
O1212 Dy1203 2.398 . S
O1213 C1201 1.355 . S
O1213 Dy1203 2.491 . S
O1214 Dy1203 2.403 . S
O1214 C1209 1.254 . S
O1215 Dy1200 2.310 . S
O1215 Dy1203 2.664 . S
O1215 C1209 1.268 . S
O1216 Dy1200 2.351 . S
O1216 C1219 1.249 . S
O1217 Dy1203 2.326 . S
O1217 C1219 1.267 . S
C1218 O1210 1.249 . S
C1218 O1211 1.267 . S
C1219 O1216 1.249 . S
C1219 O1217 1.267 . S
Dy1220 O1224 2.398 . S
Dy1220 O1225 2.491 . S
Dy1220 O1226 2.403 . S
Dy1220 O1227 2.664 . S
Dy1220 O1231 2.326 . S
Dy1220 O1235 2.310 . S
Dy1220 O1236 2.351 . S
C1221 O1232 1.185 . S
C1221 O1233 1.355 . S
C1222 O1224 1.185 . S
C1222 O1225 1.355 . S
Dy1223 O1227 2.310 . S
Dy1223 O1230 2.351 . S
Dy1223 O1232 2.398 . S
Dy1223 O1233 2.491 . S
Dy1223 O1234 2.403 . S
Dy1223 O1235 2.664 . S
Dy1223 O1237 2.326 . S
O1224 Dy1220 2.398 . S
O1224 C1222 1.185 . S
O1225 Dy1220 2.491 . S
O1225 C1222 1.355 . S
O1226 Dy1220 2.403 . S
O1226 C1228 1.254 . S
O1227 Dy1220 2.664 . S
O1227 Dy1223 2.310 . S
O1227 C1228 1.268 . S
C1228 O1226 1.254 . S
C1228 O1227 1.268 . S
C1229 O1234 1.254 . S
C1229 O1235 1.268 . S
O1230 Dy1223 2.351 . S
O1230 C1238 1.249 . S
O1231 Dy1220 2.326 . S
O1231 C1238 1.267 . S
O1232 C1221 1.185 . S
O1232 Dy1223 2.398 . S
O1233 C1221 1.355 . S
O1233 Dy1223 2.491 . S
O1234 Dy1223 2.403 . S
O1234 C1229 1.254 . S
O1235 Dy1220 2.310 . S
O1235 Dy1223 2.664 . S
O1235 C1229 1.268 . S
O1236 Dy1220 2.351 . S
O1236 C1239 1.249 . S
O1237 Dy1223 2.326 . S
O1237 C1239 1.267 . S
C1238 O1230 1.249 . S
C1238 O1231 1.267 . S
C1239 O1236 1.249 . S
C1239 O1237 1.267 . S
Dy1240 O1244 2.398 . S
Dy1240 O1245 2.491 . S
Dy1240 O1246 2.403 . S
Dy1240 O1247 2.664 . S
Dy1240 O1251 2.326 . S
Dy1240 O1255 2.310 . S
Dy1240 O1256 2.351 . S
C1241 O1252 1.185 . S
C1241 O1253 1.355 . S
C1242 O1244 1.185 . S
C1242 O1245 1.355 . S
Dy1243 O1247 2.310 . S
Dy1243 O1250 2.351 . S
Dy1243 O1252 2.398 . S
Dy1243 O1253 2.491 . S
Dy1243 O1254 2.403 . S
Dy1243 O1255 2.664 . S
Dy1243 O1257 2.326 . S
O1244 Dy1240 2.398 . S
O1244 C1242 1.185 . S
O1245 Dy1240 2.491 . S
O1245 C1242 1.355 . S
O1246 Dy1240 2.403 . S
O1246 C1248 1.254 . S
O1247 Dy1240 2.664 . S
O1247 Dy1243 2.310 . S
O1247 C1248 1.268 . S
C1248 O1246 1.254 . S
C1248 O1247 1.268 . S
C1249 O1254 1.254 . S
C1249 O1255 1.268 . S
O1250 Dy1243 2.351 . S
O1250 C1258 1.249 . S
O1251 Dy1240 2.326 . S
O1251 C1258 1.267 . S
O1252 C1241 1.185 . S
O1252 Dy1243 2.398 . S
O1253 C1241 1.355 . S
O1253 Dy1243 2.491 . S
O1254 Dy1243 2.403 . S
O1254 C1249 1.254 . S
O1255 Dy1240 2.310 . S
O1255 Dy1243 2.664 . S
O1255 C1249 1.268 . S
O1256 Dy1240 2.351 . S
O1256 C1259 1.249 . S
O1257 Dy1243 2.326 . S
O1257 C1259 1.267 . S
C1258 O1250 1.249 . S
C1258 O1251 1.267 . S
C1259 O1256 1.249 . S
C1259 O1257 1.267 . S
Dy1260 O1264 2.398 . S
Dy1260 O1265 2.491 . S
Dy1260 O1266 2.403 . S
Dy1260 O1267 2.664 . S
Dy1260 O1271 2.326 . S
Dy1260 O1275 2.310 . S
Dy1260 O1276 2.351 . S
C1261 O1272 1.185 . S
C1261 O1273 1.355 . S
C1262 O1264 1.185 . S
C1262 O1265 1.355 . S
Dy1263 O1267 2.310 . S
Dy1263 O1270 2.351 . S
Dy1263 O1272 2.398 . S
Dy1263 O1273 2.491 . S
Dy1263 O1274 2.403 . S
Dy1263 O1275 2.664 . S
Dy1263 O1277 2.326 . S
O1264 Dy1260 2.398 . S
O1264 C1262 1.185 . S
O1265 Dy1260 2.491 . S
O1265 C1262 1.355 . S
O1266 Dy1260 2.403 . S
O1266 C1268 1.254 . S
O1267 Dy1260 2.664 . S
O1267 Dy1263 2.310 . S
O1267 C1268 1.268 . S
C1268 O1266 1.254 . S
C1268 O1267 1.268 . S
C1269 O1274 1.254 . S
C1269 O1275 1.268 . S
O1270 Dy1263 2.351 . S
O1270 C1278 1.249 . S
O1271 Dy1260 2.326 . S
O1271 C1278 1.267 . S
O1272 C1261 1.185 . S
O1272 Dy1263 2.398 . S
O1273 C1261 1.355 . S
O1273 Dy1263 2.491 . S
O1274 Dy1263 2.403 . S
O1274 C1269 1.254 . S
O1275 Dy1260 2.310 . S
O1275 Dy1263 2.664 . S
O1275 C1269 1.268 . S
O1276 Dy1260 2.351 . S
O1276 C1279 1.249 . S
O1277 Dy1263 2.326 . S
O1277 C1279 1.267 . S
C1278 O1270 1.249 . S
C1278 O1271 1.267 . S
C1279 O1276 1.249 . S
C1279 O1277 1.267 . S
Dy1280 O1284 2.398 . S
Dy1280 O1285 2.491 . S
Dy1280 O1286 2.403 . S
Dy1280 O1287 2.664 . S
Dy1280 O1291 2.326 . S
Dy1280 O1295 2.310 . S
Dy1280 O1296 2.351 . S
C1281 O1292 1.185 . S
C1281 O1293 1.355 . S
C1282 O1284 1.185 . S
C1282 O1285 1.355 . S
Dy1283 O1287 2.310 . S
Dy1283 O1290 2.351 . S
Dy1283 O1292 2.398 . S
Dy1283 O1293 2.491 . S
Dy1283 O1294 2.403 . S
Dy1283 O1295 2.664 . S
Dy1283 O1297 2.326 . S
O1284 Dy1280 2.398 . S
O1284 C1282 1.185 . S
O1285 Dy1280 2.491 . S
O1285 C1282 1.355 . S
O1286 Dy1280 2.403 . S
O1286 C1288 1.254 . S
O1287 Dy1280 2.664 . S
O1287 Dy1283 2.310 . S
O1287 C1288 1.268 . S
C1288 O1286 1.254 . S
C1288 O1287 1.268 . S
C1289 O1294 1.254 . S
C1289 O1295 1.268 . S
O1290 Dy1283 2.351 . S
O1290 C1298 1.249 . S
O1291 Dy1280 2.326 . S
O1291 C1298 1.267 . S
O1292 C1281 1.185 . S
O1292 Dy1283 2.398 . S
O1293 C1281 1.355 . S
O1293 Dy1283 2.491 . S
O1294 Dy1283 2.403 . S
O1294 C1289 1.254 . S
O1295 Dy1280 2.310 . S
O1295 Dy1283 2.664 . S
O1295 C1289 1.268 . S
O1296 Dy1280 2.351 . S
O1296 C1299 1.249 . S
O1297 Dy1283 2.326 . S
O1297 C1299 1.267 . S
C1298 O1290 1.249 . S
C1298 O1291 1.267 . S
C1299 O1296 1.249 . S
C1299 O1297 1.267 . S
Dy1300 O1304 2.398 . S
Dy1300 O1305 2.491 . S
Dy1300 O1306 2.403 . S
Dy1300 O1307 2.664 . S
Dy1300 O1311 2.326 . S
Dy1300 O1315 2.310 . S
Dy1300 O1316 2.351 . S
C1301 O1312 1.185 . S
C1301 O1313 1.355 . S
C1302 O1304 1.185 . S
C1302 O1305 1.355 . S
Dy1303 O1307 2.310 . S
Dy1303 O1310 2.351 . S
Dy1303 O1312 2.398 . S
Dy1303 O1313 2.491 . S
Dy1303 O1314 2.403 . S
Dy1303 O1315 2.664 . S
Dy1303 O1317 2.326 . S
O1304 Dy1300 2.398 . S
O1304 C1302 1.185 . S
O1305 Dy1300 2.491 . S
O1305 C1302 1.355 . S
O1306 Dy1300 2.403 . S
O1306 C1308 1.254 . S
O1307 Dy1300 2.664 . S
O1307 Dy1303 2.310 . S
O1307 C1308 1.268 . S
C1308 O1306 1.254 . S
C1308 O1307 1.268 . S
C1309 O1314 1.254 . S
C1309 O1315 1.268 . S
O1310 Dy1303 2.351 . S
O1310 C1318 1.249 . S
O1311 Dy1300 2.326 . S
O1311 C1318 1.267 . S
O1312 C1301 1.185 . S
O1312 Dy1303 2.398 . S
O1313 C1301 1.355 . S
O1313 Dy1303 2.491 . S
O1314 Dy1303 2.403 . S
O1314 C1309 1.254 . S
O1315 Dy1300 2.310 . S
O1315 Dy1303 2.664 . S
O1315 C1309 1.268 . S
O1316 Dy1300 2.351 . S
O1316 C1319 1.249 . S
O1317 Dy1303 2.326 . S
O1317 C1319 1.267 . S
C1318 O1310 1.249 . S
C1318 O1311 1.267 . S
C1319 O1316 1.249 . S
C1319 O1317 1.267 . S
Dy1320 O1324 2.398 . S
Dy1320 O1325 2.491 . S
Dy1320 O1326 2.403 . S
Dy1320 O1327 2.664 . S
Dy1320 O1331 2.326 . S
Dy1320 O1335 2.310 . S
Dy1320 O1336 2.351 . S
C1321 O1332 1.185 . S
C1321 O1333 1.355 . S
C1322 O1324 1.185 . S
C1322 O1325 1.355 . S
Dy1323 O1327 2.310 . S
Dy1323 O1330 2.351 . S
Dy1323 O1332 2.398 . S
Dy1323 O1333 2.491 . S
Dy1323 O1334 2.403 . S
Dy1323 O1335 2.664 . S
Dy1323 O1337 2.326 . S
O1324 Dy1320 2.398 . S
O1324 C1322 1.185 . S
O1325 Dy1320 2.491 . S
O1325 C1322 1.355 . S
O1326 Dy1320 2.403 . S
O1326 C1328 1.254 . S
O1327 Dy1320 2.664 . S
O1327 Dy1323 2.310 . S
O1327 C1328 1.268 . S
C1328 O1326 1.254 . S
C1328 O1327 1.268 . S
C1329 O1334 1.254 . S
C1329 O1335 1.268 . S
O1330 Dy1323 2.351 . S
O1330 C1338 1.249 . S
O1331 Dy1320 2.326 . S
O1331 C1338 1.267 . S
O1332 C1321 1.185 . S
O1332 Dy1323 2.398 . S
O1333 C1321 1.355 . S
O1333 Dy1323 2.491 . S
O1334 Dy1323 2.403 . S
O1334 C1329 1.254 . S
O1335 Dy1320 2.310 . S
O1335 Dy1323 2.664 . S
O1335 C1329 1.268 . S
O1336 Dy1320 2.351 . S
O1336 C1339 1.249 . S
O1337 Dy1323 2.326 . S
O1337 C1339 1.267 . S
C1338 O1330 1.249 . S
C1338 O1331 1.267 . S
C1339 O1336 1.249 . S
C1339 O1337 1.267 . S
Dy1340 O1344 2.398 . S
Dy1340 O1345 2.491 . S
Dy1340 O1346 2.403 . S
Dy1340 O1347 2.664 1_556 S
Dy1340 O1351 2.326 . S
Dy1340 O1355 2.310 . S
Dy1340 O1356 2.351 . S
C1341 O1352 1.185 . S
C1341 O1353 1.355 . S
C1342 O1344 1.185 . S
C1342 O1345 1.355 . S
Dy1343 O1347 2.310 . S
Dy1343 O1350 2.351 1_554 S
Dy1343 O1352 2.398 . S
Dy1343 O1353 2.491 . S
Dy1343 O1354 2.403 1_554 S
Dy1343 O1355 2.664 1_554 S
Dy1343 O1357 2.326 . S
O1344 Dy1340 2.398 . S
O1344 C1342 1.185 . S
O1345 Dy1340 2.491 . S
O1345 C1342 1.355 . S
O1346 Dy1340 2.403 . S
O1346 C1348 1.254 1_556 S
O1347 Dy1340 2.664 1_554 S
O1347 Dy1343 2.310 . S
O1347 C1348 1.268 . S
C1348 O1346 1.254 1_554 S
C1348 O1347 1.268 . S
C1349 O1354 1.254 . S
C1349 O1355 1.268 . S
O1350 Dy1343 2.351 1_556 S
O1350 C1358 1.249 . S
O1351 Dy1340 2.326 . S
O1351 C1358 1.267 . S
O1352 C1341 1.185 . S
O1352 Dy1343 2.398 . S
O1353 C1341 1.355 . S
O1353 Dy1343 2.491 . S
O1354 Dy1343 2.403 1_556 S
O1354 C1349 1.254 . S
O1355 Dy1340 2.310 . S
O1355 Dy1343 2.664 1_556 S
O1355 C1349 1.268 . S
O1356 Dy1340 2.351 . S
O1356 C1359 1.249 1_556 S
O1357 Dy1343 2.326 . S
O1357 C1359 1.267 . S
C1358 O1350 1.249 . S
C1358 O1351 1.267 . S
C1359 O1356 1.249 1_554 S
C1359 O1357 1.267 . S
Dy1360 O1364 2.398 . S
Dy1360 O1365 2.491 . S
Dy1360 O1366 2.403 . S
Dy1360 O1367 2.664 . S
Dy1360 O1371 2.326 . S
Dy1360 O1375 2.310 . S
Dy1360 O1376 2.351 . S
C1361 O1372 1.185 . S
C1361 O1373 1.355 . S
C1362 O1364 1.185 . S
C1362 O1365 1.355 . S
Dy1363 O1367 2.310 . S
Dy1363 O1370 2.351 . S
Dy1363 O1372 2.398 . S
Dy1363 O1373 2.491 . S
Dy1363 O1374 2.403 . S
Dy1363 O1375 2.664 . S
Dy1363 O1377 2.326 . S
O1364 Dy1360 2.398 . S
O1364 C1362 1.185 . S
O1365 Dy1360 2.491 . S
O1365 C1362 1.355 . S
O1366 Dy1360 2.403 . S
O1366 C1368 1.254 . S
O1367 Dy1360 2.664 . S
O1367 Dy1363 2.310 . S
O1367 C1368 1.268 . S
C1368 O1366 1.254 . S
C1368 O1367 1.268 . S
C1369 O1374 1.254 . S
C1369 O1375 1.268 . S
O1370 Dy1363 2.351 . S
O1370 C1378 1.249 . S
O1371 Dy1360 2.326 . S
O1371 C1378 1.267 . S
O1372 C1361 1.185 . S
O1372 Dy1363 2.398 . S
O1373 C1361 1.355 . S
O1373 Dy1363 2.491 . S
O1374 Dy1363 2.403 . S
O1374 C1369 1.254 . S
O1375 Dy1360 2.310 . S
O1375 Dy1363 2.664 . S
O1375 C1369 1.268 . S
O1376 Dy1360 2.351 . S
O1376 C1379 1.249 . S
O1377 Dy1363 2.326 . S
O1377 C1379 1.267 . S
C1378 O1370 1.249 . S
C1378 O1371 1.267 . S
C1379 O1376 1.249 . S
C1379 O1377 1.267 . S
Dy1380 O1384 2.398 . S
Dy1380 O1385 2.491 . S
Dy1380 O1386 2.403 . S
Dy1380 O1387 2.642 1_554 S
Dy1380 O1391 2.326 . S
Dy1380 O1395 2.310 . S
Dy1380 O1396 2.351 . S
C1381 O1392 1.185 . S
C1381 O1393 1.355 . S
C1382 O1384 1.185 . S
C1382 O1385 1.355 . S
Dy1383 O1387 2.313 . S
Dy1383 O1390 2.351 1_556 S
Dy1383 O1392 2.398 . S
Dy1383 O1393 2.491 . S
Dy1383 O1394 2.403 1_556 S
Dy1383 O1395 2.664 1_556 S
Dy1383 O1397 2.326 . S
O1384 Dy1380 2.398 . S
O1384 C1382 1.185 . S
O1385 Dy1380 2.491 . S
O1385 C1382 1.355 . S
O1386 Dy1380 2.403 . S
O1386 C1388 1.277 . S
O1387 Dy1380 2.642 1_556 S
O1387 Dy1383 2.313 . S
O1387 C1388 1.267 1_556 S
C1388 O1386 1.277 . S
C1388 O1387 1.267 1_554 S
C1389 O1394 1.254 . S
C1389 O1395 1.268 . S
O1390 Dy1383 2.351 1_554 S
O1390 C1398 1.249 . S
O1391 Dy1380 2.326 . S
O1391 C1398 1.267 . S
O1392 C1381 1.185 . S
O1392 Dy1383 2.398 . S
O1393 C1381 1.355 . S
O1393 Dy1383 2.491 . S
O1394 Dy1383 2.403 1_554 S
O1394 C1389 1.254 . S
O1395 Dy1380 2.310 . S
O1395 Dy1383 2.664 1_554 S
O1395 C1389 1.268 . S
O1396 Dy1380 2.351 . S
O1396 C1399 1.249 1_554 S
O1397 Dy1383 2.326 . S
O1397 C1399 1.267 . S
C1398 O1390 1.249 . S
C1398 O1391 1.267 . S
C1399 O1396 1.249 1_556 S
C1399 O1397 1.267 . S
Dy1400 O1404 2.398 . S
Dy1400 O1405 2.491 . S
Dy1400 O1406 2.403 . S
Dy1400 O1407 2.664 . S
Dy1400 O1411 2.326 . S
Dy1400 O1415 2.310 . S
Dy1400 O1416 2.351 . S
C1401 O1412 1.185 . S
C1401 O1413 1.355 . S
C1402 O1404 1.185 . S
C1402 O1405 1.355 . S
Dy1403 O1407 2.310 . S
Dy1403 O1410 2.351 . S
Dy1403 O1412 2.398 . S
Dy1403 O1413 2.491 . S
Dy1403 O1414 2.403 . S
Dy1403 O1415 2.664 . S
Dy1403 O1417 2.326 . S
O1404 Dy1400 2.398 . S
O1404 C1402 1.185 . S
O1405 Dy1400 2.491 . S
O1405 C1402 1.355 . S
O1406 Dy1400 2.403 . S
O1406 C1408 1.254 . S
O1407 Dy1400 2.664 . S
O1407 Dy1403 2.310 . S
O1407 C1408 1.268 . S
C1408 O1406 1.254 . S
C1408 O1407 1.268 . S
C1409 O1414 1.254 . S
C1409 O1415 1.268 . S
O1410 Dy1403 2.351 . S
O1410 C1418 1.249 . S
O1411 Dy1400 2.326 . S
O1411 C1418 1.267 . S
O1412 C1401 1.185 . S
O1412 Dy1403 2.398 . S
O1413 C1401 1.355 . S
O1413 Dy1403 2.491 . S
O1414 Dy1403 2.403 . S
O1414 C1409 1.254 . S
O1415 Dy1400 2.310 . S
O1415 Dy1403 2.664 . S
O1415 C1409 1.268 . S
O1416 Dy1400 2.351 . S
O1416 C1419 1.249 . S
O1417 Dy1403 2.326 . S
O1417 C1419 1.267 . S
C1418 O1410 1.249 . S
C1418 O1411 1.267 . S
C1419 O1416 1.249 . S
C1419 O1417 1.267 . S
Dy1420 O1424 2.398 . S
Dy1420 O1425 2.491 . S
Dy1420 O1426 2.403 . S
Dy1420 O1427 2.664 . S
Dy1420 O1431 2.326 . S
Dy1420 O1435 2.310 . S
Dy1420 O1436 2.351 . S
C1421 O1432 1.185 . S
C1421 O1433 1.355 . S
C1422 O1424 1.185 . S
C1422 O1425 1.355 . S
Dy1423 O1427 2.310 . S
Dy1423 O1430 2.351 . S
Dy1423 O1432 2.398 . S
Dy1423 O1433 2.491 . S
Dy1423 O1434 2.403 . S
Dy1423 O1435 2.664 . S
Dy1423 O1437 2.326 . S
O1424 Dy1420 2.398 . S
O1424 C1422 1.185 . S
O1425 Dy1420 2.491 . S
O1425 C1422 1.355 . S
O1426 Dy1420 2.403 . S
O1426 C1428 1.254 . S
O1427 Dy1420 2.664 . S
O1427 Dy1423 2.310 . S
O1427 C1428 1.268 . S
C1428 O1426 1.254 . S
C1428 O1427 1.268 . S
C1429 O1434 1.254 . S
C1429 O1435 1.268 . S
O1430 Dy1423 2.351 . S
O1430 C1438 1.249 . S
O1431 Dy1420 2.326 . S
O1431 C1438 1.267 . S
O1432 C1421 1.185 . S
O1432 Dy1423 2.398 . S
O1433 C1421 1.355 . S
O1433 Dy1423 2.491 . S
O1434 Dy1423 2.403 . S
O1434 C1429 1.254 . S
O1435 Dy1420 2.310 . S
O1435 Dy1423 2.664 . S
O1435 C1429 1.268 . S
O1436 Dy1420 2.351 . S
O1436 C1439 1.249 . S
O1437 Dy1423 2.326 . S
O1437 C1439 1.267 . S
C1438 O1430 1.249 . S
C1438 O1431 1.267 . S
C1439 O1436 1.249 . S
C1439 O1437 1.267 . S
Dy1440 O1444 2.398 . S
Dy1440 O1445 2.491 . S
Dy1440 O1446 2.403 . S
Dy1440 O1447 2.664 . S
Dy1440 O1451 2.326 . S
Dy1440 O1455 2.310 . S
Dy1440 O1456 2.351 . S
C1441 O1452 1.185 . S
C1441 O1453 1.355 . S
C1442 O1444 1.185 . S
C1442 O1445 1.355 . S
Dy1443 O1447 2.310 . S
Dy1443 O1450 2.351 . S
Dy1443 O1452 2.398 . S
Dy1443 O1453 2.491 . S
Dy1443 O1454 2.403 . S
Dy1443 O1455 2.664 . S
Dy1443 O1457 2.326 . S
O1444 Dy1440 2.398 . S
O1444 C1442 1.185 . S
O1445 Dy1440 2.491 . S
O1445 C1442 1.355 . S
O1446 Dy1440 2.403 . S
O1446 C1448 1.254 . S
O1447 Dy1440 2.664 . S
O1447 Dy1443 2.310 . S
O1447 C1448 1.268 . S
C1448 O1446 1.254 . S
C1448 O1447 1.268 . S
C1449 O1454 1.254 . S
C1449 O1455 1.268 . S
O1450 Dy1443 2.351 . S
O1450 C1458 1.249 . S
O1451 Dy1440 2.326 . S
O1451 C1458 1.267 . S
O1452 C1441 1.185 . S
O1452 Dy1443 2.398 . S
O1453 C1441 1.355 . S
O1453 Dy1443 2.491 . S
O1454 Dy1443 2.403 . S
O1454 C1449 1.254 . S
O1455 Dy1440 2.310 . S
O1455 Dy1443 2.664 . S
O1455 C1449 1.268 . S
O1456 Dy1440 2.351 . S
O1456 C1459 1.249 . S
O1457 Dy1443 2.326 . S
O1457 C1459 1.267 . S
C1458 O1450 1.249 . S
C1458 O1451 1.267 . S
C1459 O1456 1.249 . S
C1459 O1457 1.267 . S
Dy1460 O1464 2.398 . S
Dy1460 O1465 2.491 . S
Dy1460 O1466 2.403 . S
Dy1460 O1467 2.664 . S
Dy1460 O1471 2.326 . S
Dy1460 O1475 2.310 . S
Dy1460 O1476 2.351 . S
C1461 O1472 1.185 . S
C1461 O1473 1.355 . S
C1462 O1464 1.185 . S
C1462 O1465 1.355 . S
Dy1463 O1467 2.310 . S
Dy1463 O1470 2.351 . S
Dy1463 O1472 2.398 . S
Dy1463 O1473 2.491 . S
Dy1463 O1474 2.403 . S
Dy1463 O1475 2.664 . S
Dy1463 O1477 2.326 . S
O1464 Dy1460 2.398 . S
O1464 C1462 1.185 . S
O1465 Dy1460 2.491 . S
O1465 C1462 1.355 . S
O1466 Dy1460 2.403 . S
O1466 C1468 1.254 . S
O1467 Dy1460 2.664 . S
O1467 Dy1463 2.310 . S
O1467 C1468 1.268 . S
C1468 O1466 1.254 . S
C1468 O1467 1.268 . S
C1469 O1474 1.254 . S
C1469 O1475 1.268 . S
O1470 Dy1463 2.351 . S
O1470 C1478 1.249 . S
O1471 Dy1460 2.326 . S
O1471 C1478 1.267 . S
O1472 C1461 1.185 . S
O1472 Dy1463 2.398 . S
O1473 C1461 1.355 . S
O1473 Dy1463 2.491 . S
O1474 Dy1463 2.403 . S
O1474 C1469 1.254 . S
O1475 Dy1460 2.310 . S
O1475 Dy1463 2.664 . S
O1475 C1469 1.268 . S
O1476 Dy1460 2.351 . S
O1476 C1479 1.249 . S
O1477 Dy1463 2.326 . S
O1477 C1479 1.267 . S
C1478 O1470 1.249 . S
C1478 O1471 1.267 . S
C1479 O1476 1.249 . S
C1479 O1477 1.267 . S
Dy1480 O1484 2.398 . S
Dy1480 O1485 2.491 . S
Dy1480 O1486 2.403 1_455 S
Dy1480 O1487 2.664 1_455 S
Dy1480 O1491 2.326 . S
Dy1480 O1495 2.310 . S
Dy1480 O1496 2.351 1_455 S
C1481 O1492 1.185 . S
C1481 O1493 1.355 . S
C1482 O1484 1.185 . S
C1482 O1485 1.355 . S
Dy1483 O1487 2.310 1_455 S
Dy1483 O1490 2.351 . S
Dy1483 O1492 2.398 1_455 S
Dy1483 O1493 2.491 1_455 S
Dy1483 O1494 2.403 . S
Dy1483 O1495 2.664 . S
Dy1483 O1497 2.326 1_455 S
O1484 Dy1480 2.398 . S
O1484 C1482 1.185 . S
O1485 Dy1480 2.491 . S
O1485 C1482 1.355 . S
O1486 Dy1480 2.403 1_655 S
O1486 C1488 1.254 . S
O1487 Dy1480 2.664 1_655 S
O1487 Dy1483 2.310 1_655 S
O1487 C1488 1.268 . S
C1488 O1486 1.254 . S
C1488 O1487 1.268 . S
C1489 O1494 1.254 . S
C1489 O1495 1.268 . S
O1490 Dy1483 2.351 . S
O1490 C1498 1.249 . S
O1491 Dy1480 2.326 . S
O1491 C1498 1.267 . S
O1492 C1481 1.185 . S
O1492 Dy1483 2.398 1_655 S
O1493 C1481 1.355 . S
O1493 Dy1483 2.491 1_655 S
O1494 Dy1483 2.403 . S
O1494 C1489 1.254 . S
O1495 Dy1480 2.310 . S
O1495 Dy1483 2.664 . S
O1495 C1489 1.268 . S
O1496 Dy1480 2.351 1_655 S
O1496 C1499 1.249 . S
O1497 Dy1483 2.326 1_655 S
O1497 C1499 1.267 . S
C1498 O1490 1.249 . S
C1498 O1491 1.267 . S
C1499 O1496 1.249 . S
C1499 O1497 1.267 . S
Dy1500 O1504 2.398 . S
Dy1500 O1505 2.491 . S
Dy1500 O1506 2.403 . S
Dy1500 O1507 2.664 . S
Dy1500 O1511 2.326 . S
Dy1500 O1515 2.310 . S
Dy1500 O1516 2.351 . S
C1501 O1512 1.185 . S
C1501 O1513 1.355 . S
C1502 O1504 1.185 . S
C1502 O1505 1.355 . S
Dy1503 O1507 2.310 . S
Dy1503 O1510 2.351 . S
Dy1503 O1512 2.398 . S
Dy1503 O1513 2.491 . S
Dy1503 O1514 2.403 . S
Dy1503 O1515 2.664 . S
Dy1503 O1517 2.326 . S
O1504 Dy1500 2.398 . S
O1504 C1502 1.185 . S
O1505 Dy1500 2.491 . S
O1505 C1502 1.355 . S
O1506 Dy1500 2.403 . S
O1506 C1508 1.254 . S
O1507 Dy1500 2.664 . S
O1507 Dy1503 2.310 . S
O1507 C1508 1.268 . S
C1508 O1506 1.254 . S
C1508 O1507 1.268 . S
C1509 O1514 1.254 . S
C1509 O1515 1.268 . S
O1510 Dy1503 2.351 . S
O1510 C1518 1.249 . S
O1511 Dy1500 2.326 . S
O1511 C1518 1.267 . S
O1512 C1501 1.185 . S
O1512 Dy1503 2.398 . S
O1513 C1501 1.355 . S
O1513 Dy1503 2.491 . S
O1514 Dy1503 2.403 . S
O1514 C1509 1.254 . S
O1515 Dy1500 2.310 . S
O1515 Dy1503 2.664 . S
O1515 C1509 1.268 . S
O1516 Dy1500 2.351 . S
O1516 C1519 1.249 . S
O1517 Dy1503 2.326 . S
O1517 C1519 1.267 . S
C1518 O1510 1.249 . S
C1518 O1511 1.267 . S
C1519 O1516 1.249 . S
C1519 O1517 1.267 . S
Dy1520 O1524 2.398 . S
Dy1520 O1525 2.491 . S
Dy1520 O1526 2.403 . S
Dy1520 O1527 2.664 . S
Dy1520 O1531 2.326 . S
Dy1520 O1535 2.310 . S
Dy1520 O1536 2.351 . S
C1521 O1532 1.185 . S
C1521 O1533 1.355 . S
C1522 O1524 1.185 . S
C1522 O1525 1.355 . S
Dy1523 O1527 2.310 . S
Dy1523 O1530 2.351 . S
Dy1523 O1532 2.398 . S
Dy1523 O1533 2.491 . S
Dy1523 O1534 2.403 . S
Dy1523 O1535 2.664 . S
Dy1523 O1537 2.326 . S
O1524 Dy1520 2.398 . S
O1524 C1522 1.185 . S
O1525 Dy1520 2.491 . S
O1525 C1522 1.355 . S
O1526 Dy1520 2.403 . S
O1526 C1528 1.254 . S
O1527 Dy1520 2.664 . S
O1527 Dy1523 2.310 . S
O1527 C1528 1.268 . S
C1528 O1526 1.254 . S
C1528 O1527 1.268 . S
C1529 O1534 1.254 . S
C1529 O1535 1.268 . S
O1530 Dy1523 2.351 . S
O1530 C1538 1.249 . S
O1531 Dy1520 2.326 . S
O1531 C1538 1.267 . S
O1532 C1521 1.185 . S
O1532 Dy1523 2.398 . S
O1533 C1521 1.355 . S
O1533 Dy1523 2.491 . S
O1534 Dy1523 2.403 . S
O1534 C1529 1.254 . S
O1535 Dy1520 2.310 . S
O1535 Dy1523 2.664 . S
O1535 C1529 1.268 . S
O1536 Dy1520 2.351 . S
O1536 C1539 1.249 . S
O1537 Dy1523 2.326 . S
O1537 C1539 1.267 . S
C1538 O1530 1.249 . S
C1538 O1531 1.267 . S
C1539 O1536 1.249 . S
C1539 O1537 1.267 . S
Dy1540 O1544 2.398 . S
Dy1540 O1545 2.491 . S
Dy1540 O1546 2.403 . S
Dy1540 O1547 2.664 . S
Dy1540 O1551 2.326 . S
Dy1540 O1555 2.310 . S
Dy1540 O1556 2.351 . S
C1541 O1552 1.185 . S
C1541 O1553 1.355 . S
C1542 O1544 1.185 . S
C1542 O1545 1.355 . S
Dy1543 O1547 2.310 . S
Dy1543 O1550 2.351 . S
Dy1543 O1552 2.398 . S
Dy1543 O1553 2.491 . S
Dy1543 O1554 2.403 . S
Dy1543 O1555 2.664 . S
Dy1543 O1557 2.326 . S
O1544 Dy1540 2.398 . S
O1544 C1542 1.185 . S
O1545 Dy1540 2.491 . S
O1545 C1542 1.355 . S
O1546 Dy1540 2.403 . S
O1546 C1548 1.254 . S
O1547 Dy1540 2.664 . S
O1547 Dy1543 2.310 . S
O1547 C1548 1.268 . S
C1548 O1546 1.254 . S
C1548 O1547 1.268 . S
C1549 O1554 1.254 . S
C1549 O1555 1.268 . S
O1550 Dy1543 2.351 . S
O1550 C1558 1.249 . S
O1551 Dy1540 2.326 . S
O1551 C1558 1.267 . S
O1552 C1541 1.185 . S
O1552 Dy1543 2.398 . S
O1553 C1541 1.355 . S
O1553 Dy1543 2.491 . S
O1554 Dy1543 2.403 . S
O1554 C1549 1.254 . S
O1555 Dy1540 2.310 . S
O1555 Dy1543 2.664 . S
O1555 C1549 1.268 . S
O1556 Dy1540 2.351 . S
O1556 C1559 1.249 . S
O1557 Dy1543 2.326 . S
O1557 C1559 1.267 . S
C1558 O1550 1.249 . S
C1558 O1551 1.267 . S
C1559 O1556 1.249 . S
C1559 O1557 1.267 . S
Dy1560 O1564 2.398 . S
Dy1560 O1565 2.491 . S
Dy1560 O1566 2.403 1_455 S
Dy1560 O1567 2.664 1_455 S
Dy1560 O1571 2.326 . S
Dy1560 O1575 2.310 . S
Dy1560 O1576 2.351 1_455 S
C1561 O1572 1.185 . S
C1561 O1573 1.355 . S
C1562 O1564 1.185 . S
C1562 O1565 1.355 . S
Dy1563 O1567 2.310 1_455 S
Dy1563 O1570 2.351 . S
Dy1563 O1572 2.398 1_455 S
Dy1563 O1573 2.491 1_455 S
Dy1563 O1574 2.403 . S
Dy1563 O1575 2.664 . S
Dy1563 O1577 2.326 1_455 S
O1564 Dy1560 2.398 . S
O1564 C1562 1.185 . S
O1565 Dy1560 2.491 . S
O1565 C1562 1.355 . S
O1566 Dy1560 2.403 1_655 S
O1566 C1568 1.254 . S
O1567 Dy1560 2.664 1_655 S
O1567 Dy1563 2.310 1_655 S
O1567 C1568 1.268 . S
C1568 O1566 1.254 . S
C1568 O1567 1.268 . S
C1569 O1574 1.254 . S
C1569 O1575 1.268 . S
O1570 Dy1563 2.351 . S
O1570 C1578 1.249 . S
O1571 Dy1560 2.326 . S
O1571 C1578 1.267 . S
O1572 C1561 1.185 . S
O1572 Dy1563 2.398 1_655 S
O1573 C1561 1.355 . S
O1573 Dy1563 2.491 1_655 S
O1574 Dy1563 2.403 . S
O1574 C1569 1.254 . S
O1575 Dy1560 2.310 . S
O1575 Dy1563 2.664 . S
O1575 C1569 1.268 . S
O1576 Dy1560 2.351 1_655 S
O1576 C1579 1.249 . S
O1577 Dy1563 2.326 1_655 S
O1577 C1579 1.267 . S
C1578 O1570 1.249 . S
C1578 O1571 1.267 . S
C1579 O1576 1.249 . S
C1579 O1577 1.267 . S
Dy1580 O1584 2.398 . S
Dy1580 O1585 2.491 . S
Dy1580 O1586 2.403 . S
Dy1580 O1587 2.664 . S
Dy1580 O1591 2.326 . S
Dy1580 O1595 2.310 . S
Dy1580 O1596 2.351 . S
C1581 O1592 1.185 . S
C1581 O1593 1.355 . S
C1582 O1584 1.185 . S
C1582 O1585 1.355 . S
Dy1583 O1587 2.310 . S
Dy1583 O1590 2.351 . S
Dy1583 O1592 2.398 . S
Dy1583 O1593 2.491 . S
Dy1583 O1594 2.403 . S
Dy1583 O1595 2.664 . S
Dy1583 O1597 2.326 . S
O1584 Dy1580 2.398 . S
O1584 C1582 1.185 . S
O1585 Dy1580 2.491 . S
O1585 C1582 1.355 . S
O1586 Dy1580 2.403 . S
O1586 C1588 1.254 . S
O1587 Dy1580 2.664 . S
O1587 Dy1583 2.310 . S
O1587 C1588 1.268 . S
C1588 O1586 1.254 . S
C1588 O1587 1.268 . S
C1589 O1594 1.254 . S
C1589 O1595 1.268 . S
O1590 Dy1583 2.351 . S
O1590 C1598 1.249 . S
O1591 Dy1580 2.326 . S
O1591 C1598 1.267 . S
O1592 C1581 1.185 . S
O1592 Dy1583 2.398 . S
O1593 C1581 1.355 . S
O1593 Dy1583 2.491 . S
O1594 Dy1583 2.403 . S
O1594 C1589 1.254 . S
O1595 Dy1580 2.310 . S
O1595 Dy1583 2.664 . S
O1595 C1589 1.268 . S
O1596 Dy1580 2.351 . S
O1596 C1599 1.249 . S
O1597 Dy1583 2.326 . S
O1597 C1599 1.267 . S
C1598 O1590 1.249 . S
C1598 O1591 1.267 . S
C1599 O1596 1.249 . S
C1599 O1597 1.267 . S
Dy1600 O1604 2.398 . S
Dy1600 O1605 2.491 . S
Dy1600 O1606 2.403 . S
Dy1600 O1607 2.664 . S
Dy1600 O1611 2.326 . S
Dy1600 O1615 2.310 . S
Dy1600 O1616 2.351 . S
C1601 O1612 1.185 . S
C1601 O1613 1.355 . S
C1602 O1604 1.185 . S
C1602 O1605 1.355 . S
Dy1603 O1607 2.310 . S
Dy1603 O1610 2.351 . S
Dy1603 O1612 2.398 . S
Dy1603 O1613 2.491 . S
Dy1603 O1614 2.403 . S
Dy1603 O1615 2.664 . S
Dy1603 O1617 2.326 . S
O1604 Dy1600 2.398 . S
O1604 C1602 1.185 . S
O1605 Dy1600 2.491 . S
O1605 C1602 1.355 . S
O1606 Dy1600 2.403 . S
O1606 C1608 1.254 . S
O1607 Dy1600 2.664 . S
O1607 Dy1603 2.310 . S
O1607 C1608 1.268 . S
C1608 O1606 1.254 . S
C1608 O1607 1.268 . S
C1609 O1614 1.254 . S
C1609 O1615 1.268 . S
O1610 Dy1603 2.351 . S
O1610 C1618 1.249 . S
O1611 Dy1600 2.326 . S
O1611 C1618 1.267 . S
O1612 C1601 1.185 . S
O1612 Dy1603 2.398 . S
O1613 C1601 1.355 . S
O1613 Dy1603 2.491 . S
O1614 Dy1603 2.403 . S
O1614 C1609 1.254 . S
O1615 Dy1600 2.310 . S
O1615 Dy1603 2.664 . S
O1615 C1609 1.268 . S
O1616 Dy1600 2.351 . S
O1616 C1619 1.249 . S
O1617 Dy1603 2.326 . S
O1617 C1619 1.267 . S
C1618 O1610 1.249 . S
C1618 O1611 1.267 . S
C1619 O1616 1.249 . S
C1619 O1617 1.267 . S
Dy1620 O1624 2.398 . S
Dy1620 O1625 2.491 . S
Dy1620 O1626 2.403 . S
Dy1620 O1627 2.664 . S
Dy1620 O1631 2.326 . S
Dy1620 O1635 2.310 . S
Dy1620 O1636 2.351 . S
C1621 O1632 1.185 . S
C1621 O1633 1.355 . S
C1622 O1624 1.185 . S
C1622 O1625 1.355 . S
Dy1623 O1627 2.310 . S
Dy1623 O1630 2.351 . S
Dy1623 O1632 2.398 . S
Dy1623 O1633 2.491 . S
Dy1623 O1634 2.403 . S
Dy1623 O1635 2.664 . S
Dy1623 O1637 2.326 . S
O1624 Dy1620 2.398 . S
O1624 C1622 1.185 . S
O1625 Dy1620 2.491 . S
O1625 C1622 1.355 . S
O1626 Dy1620 2.403 . S
O1626 C1628 1.254 . S
O1627 Dy1620 2.664 . S
O1627 Dy1623 2.310 . S
O1627 C1628 1.268 . S
C1628 O1626 1.254 . S
C1628 O1627 1.268 . S
C1629 O1634 1.254 . S
C1629 O1635 1.268 . S
O1630 Dy1623 2.351 . S
O1630 C1638 1.249 . S
O1631 Dy1620 2.326 . S
O1631 C1638 1.267 . S
O1632 C1621 1.185 . S
O1632 Dy1623 2.398 . S
O1633 C1621 1.355 . S
O1633 Dy1623 2.491 . S
O1634 Dy1623 2.403 . S
O1634 C1629 1.254 . S
O1635 Dy1620 2.310 . S
O1635 Dy1623 2.664 . S
O1635 C1629 1.268 . S
O1636 Dy1620 2.351 . S
O1636 C1639 1.249 . S
O1637 Dy1623 2.326 . S
O1637 C1639 1.267 . S
C1638 O1630 1.249 . S
C1638 O1631 1.267 . S
C1639 O1636 1.249 . S
C1639 O1637 1.267 . S
Dy1640 O1644 2.398 . S
Dy1640 O1645 2.491 . S
Dy1640 O1646 2.403 . S
Dy1640 O1647 2.664 . S
Dy1640 O1651 2.326 . S
Dy1640 O1655 2.310 . S
Dy1640 O1656 2.351 . S
C1641 O1652 1.185 . S
C1641 O1653 1.355 . S
C1642 O1644 1.185 . S
C1642 O1645 1.355 . S
Dy1643 O1647 2.310 . S
Dy1643 O1650 2.351 . S
Dy1643 O1652 2.398 . S
Dy1643 O1653 2.491 . S
Dy1643 O1654 2.403 . S
Dy1643 O1655 2.664 . S
Dy1643 O1657 2.326 . S
O1644 Dy1640 2.398 . S
O1644 C1642 1.185 . S
O1645 Dy1640 2.491 . S
O1645 C1642 1.355 . S
O1646 Dy1640 2.403 . S
O1646 C1648 1.254 . S
O1647 Dy1640 2.664 . S
O1647 Dy1643 2.310 . S
O1647 C1648 1.268 . S
C1648 O1646 1.254 . S
C1648 O1647 1.268 . S
C1649 O1654 1.254 . S
C1649 O1655 1.268 . S
O1650 Dy1643 2.351 . S
O1650 C1658 1.249 . S
O1651 Dy1640 2.326 . S
O1651 C1658 1.267 . S
O1652 C1641 1.185 . S
O1652 Dy1643 2.398 . S
O1653 C1641 1.355 . S
O1653 Dy1643 2.491 . S
O1654 Dy1643 2.403 . S
O1654 C1649 1.254 . S
O1655 Dy1640 2.310 . S
O1655 Dy1643 2.664 . S
O1655 C1649 1.268 . S
O1656 Dy1640 2.351 . S
O1656 C1659 1.249 . S
O1657 Dy1643 2.326 . S
O1657 C1659 1.267 . S
C1658 O1650 1.249 . S
C1658 O1651 1.267 . S
C1659 O1656 1.249 . S
C1659 O1657 1.267 . S
Dy1660 O1664 2.398 . S
Dy1660 O1665 2.491 . S
Dy1660 O1666 2.403 . S
Dy1660 O1667 2.664 . S
Dy1660 O1671 2.326 . S
Dy1660 O1675 2.310 . S
Dy1660 O1676 2.351 . S
C1661 O1672 1.185 . S
C1661 O1673 1.355 . S
C1662 O1664 1.185 . S
C1662 O1665 1.355 . S
Dy1663 O1667 2.310 . S
Dy1663 O1670 2.351 . S
Dy1663 O1672 2.398 . S
Dy1663 O1673 2.491 . S
Dy1663 O1674 2.403 . S
Dy1663 O1675 2.664 . S
Dy1663 O1677 2.326 . S
O1664 Dy1660 2.398 . S
O1664 C1662 1.185 . S
O1665 Dy1660 2.491 . S
O1665 C1662 1.355 . S
O1666 Dy1660 2.403 . S
O1666 C1668 1.254 . S
O1667 Dy1660 2.664 . S
O1667 Dy1663 2.310 . S
O1667 C1668 1.268 . S
C1668 O1666 1.254 . S
C1668 O1667 1.268 . S
C1669 O1674 1.254 . S
C1669 O1675 1.268 . S
O1670 Dy1663 2.351 . S
O1670 C1678 1.249 . S
O1671 Dy1660 2.326 . S
O1671 C1678 1.267 . S
O1672 C1661 1.185 . S
O1672 Dy1663 2.398 . S
O1673 C1661 1.355 . S
O1673 Dy1663 2.491 . S
O1674 Dy1663 2.403 . S
O1674 C1669 1.254 . S
O1675 Dy1660 2.310 . S
O1675 Dy1663 2.664 . S
O1675 C1669 1.268 . S
O1676 Dy1660 2.351 . S
O1676 C1679 1.249 . S
O1677 Dy1663 2.326 . S
O1677 C1679 1.267 . S
C1678 O1670 1.249 . S
C1678 O1671 1.267 . S
C1679 O1676 1.249 . S
C1679 O1677 1.267 . S
Dy1680 O1684 2.398 . S
Dy1680 O1685 2.491 . S
Dy1680 O1686 2.403 . S
Dy1680 O1687 2.664 . S
Dy1680 O1691 2.326 . S
Dy1680 O1695 2.310 . S
Dy1680 O1696 2.351 . S
C1681 O1692 1.185 . S
C1681 O1693 1.355 . S
C1682 O1684 1.185 . S
C1682 O1685 1.355 . S
Dy1683 O1687 2.310 . S
Dy1683 O1690 2.351 . S
Dy1683 O1692 2.398 . S
Dy1683 O1693 2.491 . S
Dy1683 O1694 2.403 . S
Dy1683 O1695 2.664 . S
Dy1683 O1697 2.326 . S
O1684 Dy1680 2.398 . S
O1684 C1682 1.185 . S
O1685 Dy1680 2.491 . S
O1685 C1682 1.355 . S
O1686 Dy1680 2.403 . S
O1686 C1688 1.254 . S
O1687 Dy1680 2.664 . S
O1687 Dy1683 2.310 . S
O1687 C1688 1.268 . S
C1688 O1686 1.254 . S
C1688 O1687 1.268 . S
C1689 O1694 1.254 . S
C1689 O1695 1.268 . S
O1690 Dy1683 2.351 . S
O1690 C1698 1.249 . S
O1691 Dy1680 2.326 . S
O1691 C1698 1.267 . S
O1692 C1681 1.185 . S
O1692 Dy1683 2.398 . S
O1693 C1681 1.355 . S
O1693 Dy1683 2.491 . S
O1694 Dy1683 2.403 . S
O1694 C1689 1.254 . S
O1695 Dy1680 2.310 . S
O1695 Dy1683 2.664 . S
O1695 C1689 1.268 . S
O1696 Dy1680 2.351 . S
O1696 C1699 1.249 . S
O1697 Dy1683 2.326 . S
O1697 C1699 1.267 . S
C1698 O1690 1.249 . S
C1698 O1691 1.267 . S
C1699 O1696 1.249 . S
C1699 O1697 1.267 . S
Dy1700 O1704 2.398 . S
Dy1700 O1705 2.491 . S
Dy1700 O1706 2.403 . S
Dy1700 O1707 2.664 . S
Dy1700 O1711 2.326 . S
Dy1700 O1715 2.310 . S
Dy1700 O1716 2.351 . S
C1701 O1712 1.185 . S
C1701 O1713 1.355 . S
C1702 O1704 1.185 . S
C1702 O1705 1.355 . S
Dy1703 O1707 2.310 . S
Dy1703 O1710 2.351 . S
Dy1703 O1712 2.398 . S
Dy1703 O1713 2.491 . S
Dy1703 O1714 2.403 . S
Dy1703 O1715 2.664 . S
Dy1703 O1717 2.326 . S
O1704 Dy1700 2.398 . S
O1704 C1702 1.185 . S
O1705 Dy1700 2.491 . S
O1705 C1702 1.355 . S
O1706 Dy1700 2.403 . S
O1706 C1708 1.254 . S
O1707 Dy1700 2.664 . S
O1707 Dy1703 2.310 . S
O1707 C1708 1.268 . S
C1708 O1706 1.254 . S
C1708 O1707 1.268 . S
C1709 O1714 1.254 . S
C1709 O1715 1.268 . S
O1710 Dy1703 2.351 . S
O1710 C1718 1.249 . S
O1711 Dy1700 2.326 . S
O1711 C1718 1.267 . S
O1712 C1701 1.185 . S
O1712 Dy1703 2.398 . S
O1713 C1701 1.355 . S
O1713 Dy1703 2.491 . S
O1714 Dy1703 2.403 . S
O1714 C1709 1.254 . S
O1715 Dy1700 2.310 . S
O1715 Dy1703 2.664 . S
O1715 C1709 1.268 . S
O1716 Dy1700 2.351 . S
O1716 C1719 1.249 . S
O1717 Dy1703 2.326 . S
O1717 C1719 1.267 . S
C1718 O1710 1.249 . S
C1718 O1711 1.267 . S
C1719 O1716 1.249 . S
C1719 O1717 1.267 . S
Dy1720 O1724 2.398 . S
Dy1720 O1725 2.491 . S
Dy1720 O1726 2.403 . S
Dy1720 O1727 2.664 . S
Dy1720 O1731 2.326 . S
Dy1720 O1735 2.310 . S
Dy1720 O1736 2.351 . S
C1721 O1732 1.185 . S
C1721 O1733 1.355 . S
C1722 O1724 1.185 . S
C1722 O1725 1.355 . S
Dy1723 O1727 2.310 . S
Dy1723 O1730 2.351 . S
Dy1723 O1732 2.398 . S
Dy1723 O1733 2.491 . S
Dy1723 O1734 2.403 . S
Dy1723 O1735 2.664 . S
Dy1723 O1737 2.326 . S
O1724 Dy1720 2.398 . S
O1724 C1722 1.185 . S
O1725 Dy1720 2.491 . S
O1725 C1722 1.355 . S
O1726 Dy1720 2.403 . S
O1726 C1728 1.254 . S
O1727 Dy1720 2.664 . S
O1727 Dy1723 2.310 . S
O1727 C1728 1.268 . S
C1728 O1726 1.254 . S
C1728 O1727 1.268 . S
C1729 O1734 1.254 . S
C1729 O1735 1.268 . S
O1730 Dy1723 2.351 . S
O1730 C1738 1.249 . S
O1731 Dy1720 2.326 . S
O1731 C1738 1.267 . S
O1732 C1721 1.185 . S
O1732 Dy1723 2.398 . S
O1733 C1721 1.355 . S
O1733 Dy1723 2.491 . S
O1734 Dy1723 2.403 . S
O1734 C1729 1.254 . S
O1735 Dy1720 2.310 . S
O1735 Dy1723 2.664 . S
O1735 C1729 1.268 . S
O1736 Dy1720 2.351 . S
O1736 C1739 1.249 . S
O1737 Dy1723 2.326 . S
O1737 C1739 1.267 . S
C1738 O1730 1.249 . S
C1738 O1731 1.267 . S
C1739 O1736 1.249 . S
C1739 O1737 1.267 . S
Dy1740 O1744 2.398 . S
Dy1740 O1745 2.491 . S
Dy1740 O1746 2.403 . S
Dy1740 O1747 2.664 . S
Dy1740 O1751 2.326 . S
Dy1740 O1755 2.310 . S
Dy1740 O1756 2.351 . S
C1741 O1752 1.185 . S
C1741 O1753 1.355 . S
C1742 O1744 1.185 . S
C1742 O1745 1.355 . S
Dy1743 O1747 2.310 . S
Dy1743 O1750 2.351 . S
Dy1743 O1752 2.398 . S
Dy1743 O1753 2.491 . S
Dy1743 O1754 2.403 . S
Dy1743 O1755 2.664 . S
Dy1743 O1757 2.326 . S
O1744 Dy1740 2.398 . S
O1744 C1742 1.185 . S
O1745 Dy1740 2.491 . S
O1745 C1742 1.355 . S
O1746 Dy1740 2.403 . S
O1746 C1748 1.254 . S
O1747 Dy1740 2.664 . S
O1747 Dy1743 2.310 . S
O1747 C1748 1.268 . S
C1748 O1746 1.254 . S
C1748 O1747 1.268 . S
C1749 O1754 1.254 . S
C1749 O1755 1.268 . S
O1750 Dy1743 2.351 . S
O1750 C1758 1.249 . S
O1751 Dy1740 2.326 . S
O1751 C1758 1.267 . S
O1752 C1741 1.185 . S
O1752 Dy1743 2.398 . S
O1753 C1741 1.355 . S
O1753 Dy1743 2.491 . S
O1754 Dy1743 2.403 . S
O1754 C1749 1.254 . S
O1755 Dy1740 2.310 . S
O1755 Dy1743 2.664 . S
O1755 C1749 1.268 . S
O1756 Dy1740 2.351 . S
O1756 C1759 1.249 . S
O1757 Dy1743 2.326 . S
O1757 C1759 1.267 . S
C1758 O1750 1.249 . S
C1758 O1751 1.267 . S
C1759 O1756 1.249 . S
C1759 O1757 1.267 . S
Dy1760 O1764 2.398 . S
Dy1760 O1765 2.491 . S
Dy1760 O1766 2.403 . S
Dy1760 O1767 2.664 . S
Dy1760 O1771 2.326 . S
Dy1760 O1775 2.310 . S
Dy1760 O1776 2.351 . S
C1761 O1772 1.185 . S
C1761 O1773 1.355 . S
C1762 O1764 1.185 . S
C1762 O1765 1.355 . S
Dy1763 O1767 2.310 . S
Dy1763 O1770 2.351 . S
Dy1763 O1772 2.398 . S
Dy1763 O1773 2.491 . S
Dy1763 O1774 2.403 . S
Dy1763 O1775 2.664 . S
Dy1763 O1777 2.326 . S
O1764 Dy1760 2.398 . S
O1764 C1762 1.185 . S
O1765 Dy1760 2.491 . S
O1765 C1762 1.355 . S
O1766 Dy1760 2.403 . S
O1766 C1768 1.254 . S
O1767 Dy1760 2.664 . S
O1767 Dy1763 2.310 . S
O1767 C1768 1.268 . S
C1768 O1766 1.254 . S
C1768 O1767 1.268 . S
C1769 O1774 1.254 . S
C1769 O1775 1.268 . S
O1770 Dy1763 2.351 . S
O1770 C1778 1.249 . S
O1771 Dy1760 2.326 . S
O1771 C1778 1.267 . S
O1772 C1761 1.185 . S
O1772 Dy1763 2.398 . S
O1773 C1761 1.355 . S
O1773 Dy1763 2.491 . S
O1774 Dy1763 2.403 . S
O1774 C1769 1.254 . S
O1775 Dy1760 2.310 . S
O1775 Dy1763 2.664 . S
O1775 C1769 1.268 . S
O1776 Dy1760 2.351 . S
O1776 C1779 1.249 . S
O1777 Dy1763 2.326 . S
O1777 C1779 1.267 . S
C1778 O1770 1.249 . S
C1778 O1771 1.267 . S
C1779 O1776 1.249 . S
C1779 O1777 1.267 . S
Dy1780 O1784 2.398 . S
Dy1780 O1785 2.491 . S
Dy1780 O1786 2.403 . S
Dy1780 O1787 2.664 . S
Dy1780 O1791 2.326 . S
Dy1780 O1795 2.310 . S
Dy1780 O1796 2.351 . S
C1781 O1792 1.185 . S
C1781 O1793 1.355 . S
C1782 O1784 1.185 . S
C1782 O1785 1.355 . S
Dy1783 O1787 2.310 . S
Dy1783 O1790 2.351 . S
Dy1783 O1792 2.398 . S
Dy1783 O1793 2.491 . S
Dy1783 O1794 2.403 . S
Dy1783 O1795 2.664 . S
Dy1783 O1797 2.326 . S
O1784 Dy1780 2.398 . S
O1784 C1782 1.185 . S
O1785 Dy1780 2.491 . S
O1785 C1782 1.355 . S
O1786 Dy1780 2.403 . S
O1786 C1788 1.254 . S
O1787 Dy1780 2.664 . S
O1787 Dy1783 2.310 . S
O1787 C1788 1.268 . S
C1788 O1786 1.254 . S
C1788 O1787 1.268 . S
C1789 O1794 1.254 . S
C1789 O1795 1.268 . S
O1790 Dy1783 2.351 . S
O1790 C1798 1.249 . S
O1791 Dy1780 2.326 . S
O1791 C1798 1.267 . S
O1792 C1781 1.185 . S
O1792 Dy1783 2.398 . S
O1793 C1781 1.355 . S
O1793 Dy1783 2.491 . S
O1794 Dy1783 2.403 . S
O1794 C1789 1.254 . S
O1795 Dy1780 2.310 . S
O1795 Dy1783 2.664 . S
O1795 C1789 1.268 . S
O1796 Dy1780 2.351 . S
O1796 C1799 1.249 . S
O1797 Dy1783 2.326 . S
O1797 C1799 1.267 . S
C1798 O1790 1.249 . S
C1798 O1791 1.267 . S
C1799 O1796 1.249 . S
C1799 O1797 1.267 . S
Dy1800 O1804 2.398 . S
Dy1800 O1805 2.491 . S
Dy1800 O1806 2.403 . S
Dy1800 O1807 2.664 . S
Dy1800 O1811 2.326 . S
Dy1800 O1815 2.310 . S
Dy1800 O1816 2.351 . S
C1801 O1812 1.185 . S
C1801 O1813 1.355 . S
C1802 O1804 1.185 . S
C1802 O1805 1.355 . S
Dy1803 O1807 2.310 . S
Dy1803 O1810 2.351 . S
Dy1803 O1812 2.398 . S
Dy1803 O1813 2.491 . S
Dy1803 O1814 2.403 . S
Dy1803 O1815 2.664 . S
Dy1803 O1817 2.326 . S
O1804 Dy1800 2.398 . S
O1804 C1802 1.185 . S
O1805 Dy1800 2.491 . S
O1805 C1802 1.355 . S
O1806 Dy1800 2.403 . S
O1806 C1808 1.254 . S
O1807 Dy1800 2.664 . S
O1807 Dy1803 2.310 . S
O1807 C1808 1.268 . S
C1808 O1806 1.254 . S
C1808 O1807 1.268 . S
C1809 O1814 1.254 . S
C1809 O1815 1.268 . S
O1810 Dy1803 2.351 . S
O1810 C1818 1.249 . S
O1811 Dy1800 2.326 . S
O1811 C1818 1.267 . S
O1812 C1801 1.185 . S
O1812 Dy1803 2.398 . S
O1813 C1801 1.355 . S
O1813 Dy1803 2.491 . S
O1814 Dy1803 2.403 . S
O1814 C1809 1.254 . S
O1815 Dy1800 2.310 . S
O1815 Dy1803 2.664 . S
O1815 C1809 1.268 . S
O1816 Dy1800 2.351 . S
O1816 C1819 1.249 . S
O1817 Dy1803 2.326 . S
O1817 C1819 1.267 . S
C1818 O1810 1.249 . S
C1818 O1811 1.267 . S
C1819 O1816 1.249 . S
C1819 O1817 1.267 . S
Dy1820 O1824 2.398 . S
Dy1820 O1825 2.491 . S
Dy1820 O1826 2.403 1_556 S
Dy1820 O1827 2.664 1_556 S
Dy1820 O1831 2.326 . S
Dy1820 O1835 2.310 . S
Dy1820 O1836 2.351 1_556 S
C1821 O1832 1.185 . S
C1821 O1833 1.355 . S
C1822 O1824 1.185 . S
C1822 O1825 1.355 . S
Dy1823 O1827 2.310 . S
Dy1823 O1830 2.351 . S
Dy1823 O1832 2.398 . S
Dy1823 O1833 2.491 . S
Dy1823 O1834 2.403 . S
Dy1823 O1835 2.664 1_554 S
Dy1823 O1837 2.326 . S
O1824 Dy1820 2.398 . S
O1824 C1822 1.185 . S
O1825 Dy1820 2.491 . S
O1825 C1822 1.355 . S
O1826 Dy1820 2.403 1_554 S
O1826 C1828 1.254 . S
O1827 Dy1820 2.664 1_554 S
O1827 Dy1823 2.310 . S
O1827 C1828 1.268 . S
C1828 O1826 1.254 . S
C1828 O1827 1.268 . S
C1829 O1834 1.254 1_556 S
C1829 O1835 1.268 . S
O1830 Dy1823 2.351 . S
O1830 C1838 1.249 1_554 S
O1831 Dy1820 2.326 . S
O1831 C1838 1.267 . S
O1832 C1821 1.185 . S
O1832 Dy1823 2.398 . S
O1833 C1821 1.355 . S
O1833 Dy1823 2.491 . S
O1834 Dy1823 2.403 . S
O1834 C1829 1.254 1_554 S
O1835 Dy1820 2.310 . S
O1835 Dy1823 2.664 1_556 S
O1835 C1829 1.268 . S
O1836 Dy1820 2.351 1_554 S
O1836 C1839 1.249 . S
O1837 Dy1823 2.326 . S
O1837 C1839 1.267 . S
C1838 O1830 1.249 1_556 S
C1838 O1831 1.267 . S
C1839 O1836 1.249 . S
C1839 O1837 1.267 . S
Dy1840 O1844 2.398 . S
Dy1840 O1845 2.491 . S
Dy1840 O1846 2.403 . S
Dy1840 O1847 2.664 . S
Dy1840 O1851 2.326 . S
Dy1840 O1855 2.310 . S
Dy1840 O1856 2.351 . S
C1841 O1852 1.185 . S
C1841 O1853 1.355 . S
C1842 O1844 1.185 . S
C1842 O1845 1.355 . S
Dy1843 O1847 2.310 . S
Dy1843 O1850 2.351 . S
Dy1843 O1852 2.398 . S
Dy1843 O1853 2.491 . S
Dy1843 O1854 2.403 . S
Dy1843 O1855 2.664 . S
Dy1843 O1857 2.326 . S
O1844 Dy1840 2.398 . S
O1844 C1842 1.185 . S
O1845 Dy1840 2.491 . S
O1845 C1842 1.355 . S
O1846 Dy1840 2.403 . S
O1846 C1848 1.254 . S
O1847 Dy1840 2.664 . S
O1847 Dy1843 2.310 . S
O1847 C1848 1.268 . S
C1848 O1846 1.254 . S
C1848 O1847 1.268 . S
C1849 O1854 1.254 . S
C1849 O1855 1.268 . S
O1850 Dy1843 2.351 . S
O1850 C1858 1.249 . S
O1851 Dy1840 2.326 . S
O1851 C1858 1.267 . S
O1852 C1841 1.185 . S
O1852 Dy1843 2.398 . S
O1853 C1841 1.355 . S
O1853 Dy1843 2.491 . S
O1854 Dy1843 2.403 . S
O1854 C1849 1.254 . S
O1855 Dy1840 2.310 . S
O1855 Dy1843 2.664 . S
O1855 C1849 1.268 . S
O1856 Dy1840 2.351 . S
O1856 C1859 1.249 . S
O1857 Dy1843 2.326 . S
O1857 C1859 1.267 . S
C1858 O1850 1.249 . S
C1858 O1851 1.267 . S
C1859 O1856 1.249 . S
C1859 O1857 1.267 . S
Dy1860 O1864 2.398 . S
Dy1860 O1865 2.491 . S
Dy1860 O1866 2.403 1_554 S
Dy1860 O1867 2.664 1_554 S
Dy1860 O1871 2.326 . S
Dy1860 O1875 2.313 . S
Dy1860 O1876 2.351 1_554 S
C1861 O1872 1.185 . S
C1861 O1873 1.355 . S
C1862 O1864 1.185 . S
C1862 O1865 1.355 . S
Dy1863 O1867 2.310 . S
Dy1863 O1870 2.351 . S
Dy1863 O1872 2.398 . S
Dy1863 O1873 2.491 . S
Dy1863 O1874 2.403 . S
Dy1863 O1875 2.642 1_556 S
Dy1863 O1877 2.326 . S
O1864 Dy1860 2.398 . S
O1864 C1862 1.185 . S
O1865 Dy1860 2.491 . S
O1865 C1862 1.355 . S
O1866 Dy1860 2.403 1_556 S
O1866 C1868 1.254 . S
O1867 Dy1860 2.664 1_556 S
O1867 Dy1863 2.310 . S
O1867 C1868 1.268 . S
C1868 O1866 1.254 . S
C1868 O1867 1.268 . S
C1869 O1874 1.277 . S
C1869 O1875 1.267 1_556 S
O1870 Dy1863 2.351 . S
O1870 C1878 1.249 1_556 S
O1871 Dy1860 2.326 . S
O1871 C1878 1.267 . S
O1872 C1861 1.185 . S
O1872 Dy1863 2.398 . S
O1873 C1861 1.355 . S
O1873 Dy1863 2.491 . S
O1874 Dy1863 2.403 . S
O1874 C1869 1.277 . S
O1875 Dy1860 2.313 . S
O1875 Dy1863 2.642 1_554 S
O1875 C1869 1.267 1_554 S
O1876 Dy1860 2.351 1_556 S
O1876 C1879 1.249 . S
O1877 Dy1863 2.326 . S
O1877 C1879 1.267 . S
C1878 O1870 1.249 1_554 S
C1878 O1871 1.267 . S
C1879 O1876 1.249 . S
C1879 O1877 1.267 . S
Dy1880 O1884 2.398 . S
Dy1880 O1885 2.491 . S
Dy1880 O1886 2.403 . S
Dy1880 O1887 2.664 . S
Dy1880 O1891 2.326 . S
Dy1880 O1895 2.310 . S
Dy1880 O1896 2.351 . S
C1881 O1892 1.185 . S
C1881 O1893 1.355 . S
C1882 O1884 1.185 . S
C1882 O1885 1.355 . S
Dy1883 O1887 2.310 . S
Dy1883 O1890 2.351 . S
Dy1883 O1892 2.398 . S
Dy1883 O1893 2.491 . S
Dy1883 O1894 2.403 . S
Dy1883 O1895 2.664 . S
Dy1883 O1897 2.326 . S
O1884 Dy1880 2.398 . S
O1884 C1882 1.185 . S
O1885 Dy1880 2.491 . S
O1885 C1882 1.355 . S
O1886 Dy1880 2.403 . S
O1886 C1888 1.254 . S
O1887 Dy1880 2.664 . S
O1887 Dy1883 2.310 . S
O1887 C1888 1.268 . S
C1888 O1886 1.254 . S
C1888 O1887 1.268 . S
C1889 O1894 1.254 . S
C1889 O1895 1.268 . S
O1890 Dy1883 2.351 . S
O1890 C1898 1.249 . S
O1891 Dy1880 2.326 . S
O1891 C1898 1.267 . S
O1892 C1881 1.185 . S
O1892 Dy1883 2.398 . S
O1893 C1881 1.355 . S
O1893 Dy1883 2.491 . S
O1894 Dy1883 2.403 . S
O1894 C1889 1.254 . S
O1895 Dy1880 2.310 . S
O1895 Dy1883 2.664 . S
O1895 C1889 1.268 . S
O1896 Dy1880 2.351 . S
O1896 C1899 1.249 . S
O1897 Dy1883 2.326 . S
O1897 C1899 1.267 . S
C1898 O1890 1.249 . S
C1898 O1891 1.267 . S
C1899 O1896 1.249 . S
C1899 O1897 1.267 . S
Dy1900 O1904 2.398 . S
Dy1900 O1905 2.491 . S
Dy1900 O1906 2.403 . S
Dy1900 O1907 2.664 . S
Dy1900 O1911 2.326 . S
Dy1900 O1915 2.310 . S
Dy1900 O1916 2.351 . S
C1901 O1912 1.185 . S
C1901 O1913 1.355 . S
C1902 O1904 1.185 . S
C1902 O1905 1.355 . S
Dy1903 O1907 2.310 . S
Dy1903 O1910 2.351 . S
Dy1903 O1912 2.398 . S
Dy1903 O1913 2.491 . S
Dy1903 O1914 2.403 . S
Dy1903 O1915 2.664 . S
Dy1903 O1917 2.326 . S
O1904 Dy1900 2.398 . S
O1904 C1902 1.185 . S
O1905 Dy1900 2.491 . S
O1905 C1902 1.355 . S
O1906 Dy1900 2.403 . S
O1906 C1908 1.254 . S
O1907 Dy1900 2.664 . S
O1907 Dy1903 2.310 . S
O1907 C1908 1.268 . S
C1908 O1906 1.254 . S
C1908 O1907 1.268 . S
C1909 O1914 1.254 . S
C1909 O1915 1.268 . S
O1910 Dy1903 2.351 . S
O1910 C1918 1.249 . S
O1911 Dy1900 2.326 . S
O1911 C1918 1.267 . S
O1912 C1901 1.185 . S
O1912 Dy1903 2.398 . S
O1913 C1901 1.355 . S
O1913 Dy1903 2.491 . S
O1914 Dy1903 2.403 . S
O1914 C1909 1.254 . S
O1915 Dy1900 2.310 . S
O1915 Dy1903 2.664 . S
O1915 C1909 1.268 . S
O1916 Dy1900 2.351 . S
O1916 C1919 1.249 . S
O1917 Dy1903 2.326 . S
O1917 C1919 1.267 . S
C1918 O1910 1.249 . S
C1918 O1911 1.267 . S
C1919 O1916 1.249 . S
C1919 O1917 1.267 . S
C1920 C1921 1.363 . S
C1920 C1926 1.379 . S
C1920 N1928 1.356 . S
C1921 C1920 1.363 . S
C1921 C1927 1.363 . S
C1922 C1923 1.363 . S
C1922 C1927 1.379 . S
C1922 N1929 1.356 . S
C1923 C1922 1.363 . S
C1923 C1926 1.363 . S
N1924 C1926 1.356 . S
N1924 H1936 0.984 . S
N1924 H1937 0.985 . S
N1925 C1927 1.356 . S
N1925 H1930 0.984 . S
N1925 H1931 0.985 . S
C1926 C1920 1.379 . S
C1926 C1923 1.363 . S
C1926 N1924 1.356 . S
C1927 C1921 1.363 . S
C1927 C1922 1.379 . S
C1927 N1925 1.356 . S
N1928 C1920 1.356 . S
N1928 H1934 0.984 . S
N1928 H1935 0.984 . S
N1929 C1922 1.356 . S
N1929 H1932 0.984 . S
N1929 H1933 0.985 . S
H1930 N1925 0.984 . S
H1931 N1925 0.985 . S
H1932 N1929 0.984 . S
H1933 N1929 0.985 . S
H1934 N1928 0.984 . S
H1935 N1928 0.984 . S
H1936 N1924 0.984 . S
H1937 N1924 0.985 . S
C1938 C1939 1.363 . S
C1938 C1944 1.379 . S
C1938 N1946 1.356 . S
C1939 C1938 1.363 . S
C1939 C1945 1.363 . S
C1940 C1941 1.363 . S
C1940 C1945 1.379 . S
C1940 N1947 1.356 . S
C1941 C1940 1.363 . S
C1941 C1944 1.363 . S
N1942 C1944 1.356 . S
N1942 H1954 0.984 . S
N1942 H1955 0.985 . S
N1943 C1945 1.356 . S
N1943 H1948 0.984 . S
N1943 H1949 0.985 . S
C1944 C1938 1.379 . S
C1944 C1941 1.363 . S
C1944 N1942 1.356 . S
C1945 C1939 1.363 . S
C1945 C1940 1.379 . S
C1945 N1943 1.356 . S
N1946 C1938 1.356 . S
N1946 H1952 0.984 . S
N1946 H1953 0.984 . S
N1947 C1940 1.356 . S
N1947 H1950 0.984 . S
N1947 H1951 0.985 . S
H1948 N1943 0.984 . S
H1949 N1943 0.985 . S
H1950 N1947 0.984 . S
H1951 N1947 0.985 . S
H1952 N1946 0.984 . S
H1953 N1946 0.984 . S
H1954 N1942 0.984 . S
H1955 N1942 0.985 . S
C1956 C1957 1.363 . S
C1956 C1962 1.379 . S
C1956 N1964 1.356 . S
C1957 C1956 1.363 . S
C1957 C1963 1.363 . S
C1958 C1959 1.363 . S
C1958 C1963 1.379 . S
C1958 N1965 1.356 . S
C1959 C1958 1.363 . S
C1959 C1962 1.363 . S
N1960 C1962 1.356 . S
N1960 H1972 0.984 . S
N1960 H1973 0.985 . S
N1961 C1963 1.356 . S
N1961 H1966 0.984 . S
N1961 H1967 0.985 . S
C1962 C1956 1.379 . S
C1962 C1959 1.363 . S
C1962 N1960 1.356 . S
C1963 C1957 1.363 . S
C1963 C1958 1.379 . S
C1963 N1961 1.356 . S
N1964 C1956 1.356 . S
N1964 H1970 0.984 . S
N1964 H1971 0.984 . S
N1965 C1958 1.356 . S
N1965 H1968 0.984 . S
N1965 H1969 0.985 . S
H1966 N1961 0.984 . S
H1967 N1961 0.985 . S
H1968 N1965 0.984 . S
H1969 N1965 0.985 . S
H1970 N1964 0.984 . S
H1971 N1964 0.984 . S
H1972 N1960 0.984 . S
H1973 N1960 0.985 . S
C1974 C1975 1.363 . S
C1974 C1980 1.379 . S
C1974 N1982 1.356 . S
C1975 C1974 1.363 . S
C1975 C1981 1.363 . S
C1976 C1977 1.363 . S
C1976 C1981 1.379 . S
C1976 N1983 1.356 . S
C1977 C1976 1.363 . S
C1977 C1980 1.363 . S
N1978 C1980 1.356 . S
N1978 H1990 0.984 . S
N1978 H1991 0.985 . S
N1979 C1981 1.356 . S
N1979 H1984 0.984 . S
N1979 H1985 0.985 . S
C1980 C1974 1.379 . S
C1980 C1977 1.363 . S
C1980 N1978 1.356 . S
C1981 C1975 1.363 . S
C1981 C1976 1.379 . S
C1981 N1979 1.356 . S
N1982 C1974 1.356 . S
N1982 H1988 0.984 . S
N1982 H1989 0.984 . S
N1983 C1976 1.356 . S
N1983 H1986 0.984 . S
N1983 H1987 0.985 . S
H1984 N1979 0.984 . S
H1985 N1979 0.985 . S
H1986 N1983 0.984 . S
H1987 N1983 0.985 . S
H1988 N1982 0.984 . S
H1989 N1982 0.984 . S
H1990 N1978 0.984 . S
H1991 N1978 0.985 . S
C1992 C1993 1.363 . S
C1992 C1998 1.379 . S
C1992 N2000 1.356 . S
C1993 C1992 1.363 . S
C1993 C1999 1.363 . S
C1994 C1995 1.363 . S
C1994 C1999 1.379 . S
C1994 N2001 1.356 . S
C1995 C1994 1.363 . S
C1995 C1998 1.363 . S
N1996 C1998 1.356 . S
N1996 H2008 0.984 . S
N1996 H2009 0.985 . S
N1997 C1999 1.356 . S
N1997 H2002 0.984 . S
N1997 H2003 0.985 . S
C1998 C1992 1.379 . S
C1998 C1995 1.363 . S
C1998 N1996 1.356 . S
C1999 C1993 1.363 . S
C1999 C1994 1.379 . S
C1999 N1997 1.356 . S
N2000 C1992 1.356 . S
N2000 H2006 0.984 . S
N2000 H2007 0.984 . S
N2001 C1994 1.356 . S
N2001 H2004 0.984 . S
N2001 H2005 0.985 . S
H2002 N1997 0.984 . S
H2003 N1997 0.985 . S
H2004 N2001 0.984 . S
H2005 N2001 0.985 . S
H2006 N2000 0.984 . S
H2007 N2000 0.984 . S
H2008 N1996 0.984 . S
H2009 N1996 0.985 . S
C2010 C2011 1.363 . S
C2010 C2016 1.379 . S
C2010 N2018 1.356 . S
C2011 C2010 1.363 . S
C2011 C2017 1.363 . S
C2012 C2013 1.363 . S
C2012 C2017 1.379 . S
C2012 N2019 1.356 . S
C2013 C2012 1.363 . S
C2013 C2016 1.363 . S
N2014 C2016 1.356 . S
N2014 H2026 0.984 . S
N2014 H2027 0.985 . S
N2015 C2017 1.356 . S
N2015 H2020 0.984 . S
N2015 H2021 0.985 . S
C2016 C2010 1.379 . S
C2016 C2013 1.363 . S
C2016 N2014 1.356 . S
C2017 C2011 1.363 . S
C2017 C2012 1.379 . S
C2017 N2015 1.356 . S
N2018 C2010 1.356 . S
N2018 H2024 0.984 . S
N2018 H2025 0.984 . S
N2019 C2012 1.356 . S
N2019 H2022 0.984 . S
N2019 H2023 0.985 . S
H2020 N2015 0.984 . S
H2021 N2015 0.985 . S
H2022 N2019 0.984 . S
H2023 N2019 0.985 . S
H2024 N2018 0.984 . S
H2025 N2018 0.984 . S
H2026 N2014 0.984 . S
H2027 N2014 0.985 . S
C2028 C2029 1.363 . S
C2028 C2034 1.379 . S
C2028 N2036 1.356 . S
C2029 C2028 1.363 . S
C2029 C2035 1.363 . S
C2030 C2031 1.363 . S
C2030 C2035 1.379 . S
C2030 N2037 1.356 . S
C2031 C2030 1.363 . S
C2031 C2034 1.363 . S
N2032 C2034 1.356 . S
N2032 H2044 0.984 . S
N2032 H2045 0.985 . S
N2033 C2035 1.356 . S
N2033 H2038 0.984 . S
N2033 H2039 0.985 . S
C2034 C2028 1.379 . S
C2034 C2031 1.363 . S
C2034 N2032 1.356 . S
C2035 C2029 1.363 . S
C2035 C2030 1.379 . S
C2035 N2033 1.356 . S
N2036 C2028 1.356 . S
N2036 H2042 0.984 . S
N2036 H2043 0.984 . S
N2037 C2030 1.356 . S
N2037 H2040 0.984 . S
N2037 H2041 0.985 . S
H2038 N2033 0.984 . S
H2039 N2033 0.985 . S
H2040 N2037 0.984 . S
H2041 N2037 0.985 . S
H2042 N2036 0.984 . S
H2043 N2036 0.984 . S
H2044 N2032 0.984 . S
H2045 N2032 0.985 . S
C2046 C2047 1.363 . S
C2046 C2052 1.379 . S
C2046 N2054 1.356 . S
C2047 C2046 1.363 . S
C2047 C2053 1.363 . S
C2048 C2049 1.363 . S
C2048 C2053 1.379 . S
C2048 N2055 1.356 . S
C2049 C2048 1.363 . S
C2049 C2052 1.363 . S
N2050 C2052 1.356 . S
N2050 H2062 0.984 . S
N2050 H2063 0.985 . S
N2051 C2053 1.356 . S
N2051 H2056 0.984 . S
N2051 H2057 0.985 . S
C2052 C2046 1.379 . S
C2052 C2049 1.363 . S
C2052 N2050 1.356 . S
C2053 C2047 1.363 . S
C2053 C2048 1.379 . S
C2053 N2051 1.356 . S
N2054 C2046 1.356 . S
N2054 H2060 0.984 . S
N2054 H2061 0.984 . S
N2055 C2048 1.356 . S
N2055 H2058 0.984 . S
N2055 H2059 0.985 . S
H2056 N2051 0.984 . S
H2057 N2051 0.985 . S
H2058 N2055 0.984 . S
H2059 N2055 0.985 . S
H2060 N2054 0.984 . S
H2061 N2054 0.984 . S
H2062 N2050 0.984 . S
H2063 N2050 0.985 . S
C2064 C2065 1.363 . S
C2064 C2070 1.379 . S
C2064 N2072 1.356 . S
C2065 C2064 1.363 . S
C2065 C2071 1.363 . S
C2066 C2067 1.363 . S
C2066 C2071 1.379 . S
C2066 N2073 1.356 . S
C2067 C2066 1.363 . S
C2067 C2070 1.363 . S
N2068 C2070 1.356 . S
N2068 H2080 0.984 . S
N2068 H2081 0.985 . S
N2069 C2071 1.356 . S
N2069 H2074 0.984 . S
N2069 H2075 0.985 . S
C2070 C2064 1.379 . S
C2070 C2067 1.363 . S
C2070 N2068 1.356 . S
C2071 C2065 1.363 . S
C2071 C2066 1.379 . S
C2071 N2069 1.356 . S
N2072 C2064 1.356 . S
N2072 H2078 0.984 . S
N2072 H2079 0.984 . S
N2073 C2066 1.356 . S
N2073 H2076 0.984 . S
N2073 H2077 0.985 . S
H2074 N2069 0.984 . S
H2075 N2069 0.985 . S
H2076 N2073 0.984 . S
H2077 N2073 0.985 . S
H2078 N2072 0.984 . S
H2079 N2072 0.984 . S
H2080 N2068 0.984 . S
H2081 N2068 0.985 . S
C2082 C2083 1.363 . S
C2082 C2088 1.379 . S
C2082 N2090 1.356 . S
C2083 C2082 1.363 . S
C2083 C2089 1.363 . S
C2084 C2085 1.363 . S
C2084 C2089 1.379 . S
C2084 N2091 1.356 . S
C2085 C2084 1.363 . S
C2085 C2088 1.363 . S
N2086 C2088 1.356 . S
N2086 H2098 0.984 . S
N2086 H2099 0.985 . S
N2087 C2089 1.356 . S
N2087 H2092 0.984 . S
N2087 H2093 0.985 . S
C2088 C2082 1.379 . S
C2088 C2085 1.363 . S
C2088 N2086 1.356 . S
C2089 C2083 1.363 . S
C2089 C2084 1.379 . S
C2089 N2087 1.356 . S
N2090 C2082 1.356 . S
N2090 H2096 0.984 . S
N2090 H2097 0.984 . S
N2091 C2084 1.356 . S
N2091 H2094 0.984 . S
N2091 H2095 0.985 . S
H2092 N2087 0.984 . S
H2093 N2087 0.985 . S
H2094 N2091 0.984 . S
H2095 N2091 0.985 . S
H2096 N2090 0.984 . S
H2097 N2090 0.984 . S
H2098 N2086 0.984 . S
H2099 N2086 0.985 . S
C2100 C2101 1.363 . S
C2100 C2106 1.379 . S
C2100 N2108 1.356 . S
C2101 C2100 1.363 . S
C2101 C2107 1.363 . S
C2102 C2103 1.363 . S
C2102 C2107 1.379 . S
C2102 N2109 1.356 . S
C2103 C2102 1.363 . S
C2103 C2106 1.363 . S
N2104 C2106 1.356 . S
N2104 H2116 0.984 . S
N2104 H2117 0.985 . S
N2105 C2107 1.356 . S
N2105 H2110 0.984 . S
N2105 H2111 0.985 . S
C2106 C2100 1.379 . S
C2106 C2103 1.363 . S
C2106 N2104 1.356 . S
C2107 C2101 1.363 . S
C2107 C2102 1.379 . S
C2107 N2105 1.356 . S
N2108 C2100 1.356 . S
N2108 H2114 0.984 . S
N2108 H2115 0.984 . S
N2109 C2102 1.356 . S
N2109 H2112 0.984 . S
N2109 H2113 0.985 . S
H2110 N2105 0.984 . S
H2111 N2105 0.985 . S
H2112 N2109 0.984 . S
H2113 N2109 0.985 . S
H2114 N2108 0.984 . S
H2115 N2108 0.984 . S
H2116 N2104 0.984 . S
H2117 N2104 0.985 . S
C2118 C2119 1.363 . S
C2118 C2124 1.379 . S
C2118 N2126 1.356 . S
C2119 C2118 1.363 . S
C2119 C2125 1.363 . S
C2120 C2121 1.363 . S
C2120 C2125 1.379 . S
C2120 N2127 1.356 . S
C2121 C2120 1.363 . S
C2121 C2124 1.363 . S
N2122 C2124 1.356 . S
N2122 H2134 0.984 . S
N2122 H2135 0.985 . S
N2123 C2125 1.356 . S
N2123 H2128 0.984 . S
N2123 H2129 0.985 . S
C2124 C2118 1.379 . S
C2124 C2121 1.363 . S
C2124 N2122 1.356 . S
C2125 C2119 1.363 . S
C2125 C2120 1.379 . S
C2125 N2123 1.356 . S
N2126 C2118 1.356 . S
N2126 H2132 0.984 . S
N2126 H2133 0.984 . S
N2127 C2120 1.356 . S
N2127 H2130 0.984 . S
N2127 H2131 0.985 . S
H2128 N2123 0.984 . S
H2129 N2123 0.985 . S
H2130 N2127 0.984 . S
H2131 N2127 0.985 . S
H2132 N2126 0.984 . S
H2133 N2126 0.984 . S
H2134 N2122 0.984 . S
H2135 N2122 0.985 . S
C2136 C2137 1.363 . S
C2136 C2142 1.379 . S
C2136 N2144 1.356 . S
C2137 C2136 1.363 . S
C2137 C2143 1.363 . S
C2138 C2139 1.363 . S
C2138 C2143 1.379 . S
C2138 N2145 1.356 . S
C2139 C2138 1.363 . S
C2139 C2142 1.363 . S
N2140 C2142 1.356 . S
N2140 H2152 0.984 . S
N2140 H2153 0.985 . S
N2141 C2143 1.356 . S
N2141 H2146 0.984 . S
N2141 H2147 0.985 . S
C2142 C2136 1.379 . S
C2142 C2139 1.363 . S
C2142 N2140 1.356 . S
C2143 C2137 1.363 . S
C2143 C2138 1.379 . S
C2143 N2141 1.356 . S
N2144 C2136 1.356 . S
N2144 H2150 0.984 . S
N2144 H2151 0.984 . S
N2145 C2138 1.356 . S
N2145 H2148 0.984 . S
N2145 H2149 0.985 . S
H2146 N2141 0.984 . S
H2147 N2141 0.985 . S
H2148 N2145 0.984 . S
H2149 N2145 0.985 . S
H2150 N2144 0.984 . S
H2151 N2144 0.984 . S
H2152 N2140 0.984 . S
H2153 N2140 0.985 . S
C2154 C2155 1.363 . S
C2154 C2160 1.379 . S
C2154 N2162 1.356 . S
C2155 C2154 1.363 . S
C2155 C2161 1.363 . S
C2156 C2157 1.363 . S
C2156 C2161 1.379 . S
C2156 N2163 1.356 . S
C2157 C2156 1.363 . S
C2157 C2160 1.363 . S
N2158 C2160 1.356 . S
N2158 H2170 0.984 . S
N2158 H2171 0.985 . S
N2159 C2161 1.356 . S
N2159 H2164 0.984 . S
N2159 H2165 0.985 . S
C2160 C2154 1.379 . S
C2160 C2157 1.363 . S
C2160 N2158 1.356 . S
C2161 C2155 1.363 . S
C2161 C2156 1.379 . S
C2161 N2159 1.356 . S
N2162 C2154 1.356 . S
N2162 H2168 0.984 . S
N2162 H2169 0.984 . S
N2163 C2156 1.356 . S
N2163 H2166 0.984 . S
N2163 H2167 0.985 . S
H2164 N2159 0.984 . S
H2165 N2159 0.985 . S
H2166 N2163 0.984 . S
H2167 N2163 0.985 . S
H2168 N2162 0.984 . S
H2169 N2162 0.984 . S
H2170 N2158 0.984 . S
H2171 N2158 0.985 . S
C2172 C2173 1.363 . S
C2172 C2178 1.379 . S
C2172 N2180 1.356 . S
C2173 C2172 1.363 . S
C2173 C2179 1.363 . S
C2174 C2175 1.363 . S
C2174 C2179 1.379 . S
C2174 N2181 1.356 . S
C2175 C2174 1.363 . S
C2175 C2178 1.363 . S
N2176 C2178 1.356 . S
N2176 H2188 0.984 . S
N2176 H2189 0.985 . S
N2177 C2179 1.356 . S
N2177 H2182 0.984 . S
N2177 H2183 0.985 . S
C2178 C2172 1.379 . S
C2178 C2175 1.363 . S
C2178 N2176 1.356 . S
C2179 C2173 1.363 . S
C2179 C2174 1.379 . S
C2179 N2177 1.356 . S
N2180 C2172 1.356 . S
N2180 H2186 0.984 . S
N2180 H2187 0.984 . S
N2181 C2174 1.356 . S
N2181 H2184 0.984 . S
N2181 H2185 0.985 . S
H2182 N2177 0.984 . S
H2183 N2177 0.985 . S
H2184 N2181 0.984 . S
H2185 N2181 0.985 . S
H2186 N2180 0.984 . S
H2187 N2180 0.984 . S
H2188 N2176 0.984 . S
H2189 N2176 0.985 . S
C2190 C2191 1.363 . S
C2190 C2196 1.379 . S
C2190 N2198 1.356 . S
C2191 C2190 1.363 . S
C2191 C2197 1.363 . S
C2192 C2193 1.363 . S
C2192 C2197 1.379 . S
C2192 N2199 1.356 . S
C2193 C2192 1.363 . S
C2193 C2196 1.363 . S
N2194 C2196 1.356 . S
N2194 H2206 0.984 . S
N2194 H2207 0.985 . S
N2195 C2197 1.356 . S
N2195 H2200 0.984 . S
N2195 H2201 0.985 . S
C2196 C2190 1.379 . S
C2196 C2193 1.363 . S
C2196 N2194 1.356 . S
C2197 C2191 1.363 . S
C2197 C2192 1.379 . S
C2197 N2195 1.356 . S
N2198 C2190 1.356 . S
N2198 H2204 0.984 . S
N2198 H2205 0.984 . S
N2199 C2192 1.356 . S
N2199 H2202 0.984 . S
N2199 H2203 0.985 . S
H2200 N2195 0.984 . S
H2201 N2195 0.985 . S
H2202 N2199 0.984 . S
H2203 N2199 0.985 . S
H2204 N2198 0.984 . S
H2205 N2198 0.984 . S
H2206 N2194 0.984 . S
H2207 N2194 0.985 . S
C2208 C2209 1.363 . S
C2208 C2214 1.379 . S
C2208 N2216 1.356 . S
C2209 C2208 1.363 . S
C2209 C2215 1.363 . S
C2210 C2211 1.363 . S
C2210 C2215 1.379 . S
C2210 N2217 1.356 . S
C2211 C2210 1.363 . S
C2211 C2214 1.363 . S
N2212 C2214 1.356 . S
N2212 H2224 0.984 . S
N2212 H2225 0.985 . S
N2213 C2215 1.356 . S
N2213 H2218 0.984 . S
N2213 H2219 0.985 . S
C2214 C2208 1.379 . S
C2214 C2211 1.363 . S
C2214 N2212 1.356 . S
C2215 C2209 1.363 . S
C2215 C2210 1.379 . S
C2215 N2213 1.356 . S
N2216 C2208 1.356 . S
N2216 H2222 0.984 . S
N2216 H2223 0.984 . S
N2217 C2210 1.356 . S
N2217 H2220 0.984 . S
N2217 H2221 0.985 . S
H2218 N2213 0.984 . S
H2219 N2213 0.985 . S
H2220 N2217 0.984 . S
H2221 N2217 0.985 . S
H2222 N2216 0.984 . S
H2223 N2216 0.984 . S
H2224 N2212 0.984 . S
H2225 N2212 0.985 . S
C2226 C2227 1.363 . S
C2226 C2232 1.379 . S
C2226 N2234 1.356 . S
C2227 C2226 1.363 . S
C2227 C2233 1.363 . S
C2228 C2229 1.363 . S
C2228 C2233 1.379 . S
C2228 N2235 1.356 . S
C2229 C2228 1.363 . S
C2229 C2232 1.363 . S
N2230 C2232 1.356 . S
N2230 H2242 0.984 . S
N2230 H2243 0.985 . S
N2231 C2233 1.356 . S
N2231 H2236 0.984 . S
N2231 H2237 0.985 . S
C2232 C2226 1.379 . S
C2232 C2229 1.363 . S
C2232 N2230 1.356 . S
C2233 C2227 1.363 . S
C2233 C2228 1.379 . S
C2233 N2231 1.356 . S
N2234 C2226 1.356 . S
N2234 H2240 0.984 . S
N2234 H2241 0.984 . S
N2235 C2228 1.356 . S
N2235 H2238 0.984 . S
N2235 H2239 0.985 . S
H2236 N2231 0.984 . S
H2237 N2231 0.985 . S
H2238 N2235 0.984 . S
H2239 N2235 0.985 . S
H2240 N2234 0.984 . S
H2241 N2234 0.984 . S
H2242 N2230 0.984 . S
H2243 N2230 0.985 . S
C2244 C2245 1.363 . S
C2244 C2250 1.379 . S
C2244 N2252 1.356 . S
C2245 C2244 1.363 . S
C2245 C2251 1.363 . S
C2246 C2247 1.363 . S
C2246 C2251 1.379 . S
C2246 N2253 1.356 . S
C2247 C2246 1.363 . S
C2247 C2250 1.363 . S
N2248 C2250 1.356 . S
N2248 H2260 0.984 . S
N2248 H2261 0.985 . S
N2249 C2251 1.356 . S
N2249 H2254 0.984 . S
N2249 H2255 0.985 . S
C2250 C2244 1.379 . S
C2250 C2247 1.363 . S
C2250 N2248 1.356 . S
C2251 C2245 1.363 . S
C2251 C2246 1.379 . S
C2251 N2249 1.356 . S
N2252 C2244 1.356 . S
N2252 H2258 0.984 . S
N2252 H2259 0.984 . S
N2253 C2246 1.356 . S
N2253 H2256 0.984 . S
N2253 H2257 0.985 . S
H2254 N2249 0.984 . S
H2255 N2249 0.985 . S
H2256 N2253 0.984 . S
H2257 N2253 0.985 . S
H2258 N2252 0.984 . S
H2259 N2252 0.984 . S
H2260 N2248 0.984 . S
H2261 N2248 0.985 . S
C2262 C2263 1.363 . S
C2262 C2268 1.379 . S
C2262 N2270 1.356 . S
C2263 C2262 1.363 . S
C2263 C2269 1.363 . S
C2264 C2265 1.363 . S
C2264 C2269 1.379 . S
C2264 N2271 1.356 . S
C2265 C2264 1.363 . S
C2265 C2268 1.363 . S
N2266 C2268 1.356 . S
N2266 H2278 0.984 . S
N2266 H2279 0.985 . S
N2267 C2269 1.356 . S
N2267 H2272 0.984 . S
N2267 H2273 0.985 . S
C2268 C2262 1.379 . S
C2268 C2265 1.363 . S
C2268 N2266 1.356 . S
C2269 C2263 1.363 . S
C2269 C2264 1.379 . S
C2269 N2267 1.356 . S
N2270 C2262 1.356 . S
N2270 H2276 0.984 . S
N2270 H2277 0.984 . S
N2271 C2264 1.356 . S
N2271 H2274 0.984 . S
N2271 H2275 0.985 . S
H2272 N2267 0.984 . S
H2273 N2267 0.985 . S
H2274 N2271 0.984 . S
H2275 N2271 0.985 . S
H2276 N2270 0.984 . S
H2277 N2270 0.984 . S
H2278 N2266 0.984 . S
H2279 N2266 0.985 . S
C2280 C2281 1.363 . S
C2280 C2286 1.379 . S
C2280 N2288 1.356 . S
C2281 C2280 1.363 . S
C2281 C2287 1.363 . S
C2282 C2283 1.363 . S
C2282 C2287 1.379 . S
C2282 N2289 1.356 . S
C2283 C2282 1.363 . S
C2283 C2286 1.363 . S
N2284 C2286 1.356 . S
N2284 H2296 0.984 . S
N2284 H2297 0.985 . S
N2285 C2287 1.356 . S
N2285 H2290 0.984 . S
N2285 H2291 0.985 . S
C2286 C2280 1.379 . S
C2286 C2283 1.363 . S
C2286 N2284 1.356 . S
C2287 C2281 1.363 . S
C2287 C2282 1.379 . S
C2287 N2285 1.356 . S
N2288 C2280 1.356 . S
N2288 H2294 0.984 . S
N2288 H2295 0.984 . S
N2289 C2282 1.356 . S
N2289 H2292 0.984 . S
N2289 H2293 0.985 . S
H2290 N2285 0.984 . S
H2291 N2285 0.985 . S
H2292 N2289 0.984 . S
H2293 N2289 0.985 . S
H2294 N2288 0.984 . S
H2295 N2288 0.984 . S
H2296 N2284 0.984 . S
H2297 N2284 0.985 . S
C2298 C2299 1.363 . S
C2298 C2304 1.379 . S
C2298 N2306 1.356 . S
C2299 C2298 1.363 . S
C2299 C2305 1.363 . S
C2300 C2301 1.363 . S
C2300 C2305 1.379 . S
C2300 N2307 1.356 . S
C2301 C2300 1.363 . S
C2301 C2304 1.363 . S
N2302 C2304 1.356 . S
N2302 H2314 0.984 . S
N2302 H2315 0.985 . S
N2303 C2305 1.356 . S
N2303 H2308 0.984 . S
N2303 H2309 0.985 . S
C2304 C2298 1.379 . S
C2304 C2301 1.363 . S
C2304 N2302 1.356 . S
C2305 C2299 1.363 . S
C2305 C2300 1.379 . S
C2305 N2303 1.356 . S
N2306 C2298 1.356 . S
N2306 H2312 0.984 . S
N2306 H2313 0.984 . S
N2307 C2300 1.356 . S
N2307 H2310 0.984 . S
N2307 H2311 0.985 . S
H2308 N2303 0.984 . S
H2309 N2303 0.985 . S
H2310 N2307 0.984 . S
H2311 N2307 0.985 . S
H2312 N2306 0.984 . S
H2313 N2306 0.984 . S
H2314 N2302 0.984 . S
H2315 N2302 0.985 . S
C2316 C2317 1.363 . S
C2316 C2322 1.379 . S
C2316 N2324 1.356 . S
C2317 C2316 1.363 . S
C2317 C2323 1.363 . S
C2318 C2319 1.363 . S
C2318 C2323 1.379 . S
C2318 N2325 1.356 . S
C2319 C2318 1.363 . S
C2319 C2322 1.363 . S
N2320 C2322 1.356 . S
N2320 H2332 0.984 . S
N2320 H2333 0.985 . S
N2321 C2323 1.356 . S
N2321 H2326 0.984 . S
N2321 H2327 0.985 . S
C2322 C2316 1.379 . S
C2322 C2319 1.363 . S
C2322 N2320 1.356 . S
C2323 C2317 1.363 . S
C2323 C2318 1.379 . S
C2323 N2321 1.356 . S
N2324 C2316 1.356 . S
N2324 H2330 0.984 . S
N2324 H2331 0.984 . S
N2325 C2318 1.356 . S
N2325 H2328 0.984 . S
N2325 H2329 0.985 . S
H2326 N2321 0.984 . S
H2327 N2321 0.985 . S
H2328 N2325 0.984 . S
H2329 N2325 0.985 . S
H2330 N2324 0.984 . S
H2331 N2324 0.984 . S
H2332 N2320 0.984 . S
H2333 N2320 0.985 . S
C2334 C2335 1.363 . S
C2334 C2340 1.379 . S
C2334 N2342 1.356 . S
C2335 C2334 1.363 . S
C2335 C2341 1.363 . S
C2336 C2337 1.363 . S
C2336 C2341 1.379 . S
C2336 N2343 1.356 . S
C2337 C2336 1.363 . S
C2337 C2340 1.363 . S
N2338 C2340 1.356 . S
N2338 H2350 0.984 . S
N2338 H2351 0.985 . S
N2339 C2341 1.356 . S
N2339 H2344 0.984 . S
N2339 H2345 0.985 . S
C2340 C2334 1.379 . S
C2340 C2337 1.363 . S
C2340 N2338 1.356 . S
C2341 C2335 1.363 . S
C2341 C2336 1.379 . S
C2341 N2339 1.356 . S
N2342 C2334 1.356 . S
N2342 H2348 0.984 . S
N2342 H2349 0.984 . S
N2343 C2336 1.356 . S
N2343 H2346 0.984 . S
N2343 H2347 0.985 . S
H2344 N2339 0.984 . S
H2345 N2339 0.985 . S
H2346 N2343 0.984 . S
H2347 N2343 0.985 . S
H2348 N2342 0.984 . S
H2349 N2342 0.984 . S
H2350 N2338 0.984 . S
H2351 N2338 0.985 . S
C2352 C2353 1.363 . S
C2352 C2358 1.379 . S
C2352 N2360 1.356 . S
C2353 C2352 1.363 . S
C2353 C2359 1.363 . S
C2354 C2355 1.363 . S
C2354 C2359 1.379 . S
C2354 N2361 1.356 . S
C2355 C2354 1.363 . S
C2355 C2358 1.363 . S
N2356 C2358 1.356 . S
N2356 H2368 0.984 . S
N2356 H2369 0.985 . S
N2357 C2359 1.356 . S
N2357 H2362 0.984 . S
N2357 H2363 0.985 . S
C2358 C2352 1.379 . S
C2358 C2355 1.363 . S
C2358 N2356 1.356 . S
C2359 C2353 1.363 . S
C2359 C2354 1.379 . S
C2359 N2357 1.356 . S
N2360 C2352 1.356 . S
N2360 H2366 0.984 . S
N2360 H2367 0.984 . S
N2361 C2354 1.356 . S
N2361 H2364 0.984 . S
N2361 H2365 0.985 . S
H2362 N2357 0.984 . S
H2363 N2357 0.985 . S
H2364 N2361 0.984 . S
H2365 N2361 0.985 . S
H2366 N2360 0.984 . S
H2367 N2360 0.984 . S
H2368 N2356 0.984 . S
H2369 N2356 0.985 . S
C2370 C2371 1.363 . S
C2370 C2376 1.379 . S
C2370 N2378 1.356 . S
C2371 C2370 1.363 . S
C2371 C2377 1.363 . S
C2372 C2373 1.363 . S
C2372 C2377 1.379 . S
C2372 N2379 1.356 . S
C2373 C2372 1.363 . S
C2373 C2376 1.363 . S
N2374 C2376 1.356 . S
N2374 H2386 0.984 . S
N2374 H2387 0.985 . S
N2375 C2377 1.356 . S
N2375 H2380 0.984 . S
N2375 H2381 0.985 . S
C2376 C2370 1.379 . S
C2376 C2373 1.363 . S
C2376 N2374 1.356 . S
C2377 C2371 1.363 . S
C2377 C2372 1.379 . S
C2377 N2375 1.356 . S
N2378 C2370 1.356 . S
N2378 H2384 0.984 . S
N2378 H2385 0.984 . S
N2379 C2372 1.356 . S
N2379 H2382 0.984 . S
N2379 H2383 0.985 . S
H2380 N2375 0.984 . S
H2381 N2375 0.985 . S
H2382 N2379 0.984 . S
H2383 N2379 0.985 . S
H2384 N2378 0.984 . S
H2385 N2378 0.984 . S
H2386 N2374 0.984 . S
H2387 N2374 0.985 . S
C2388 C2389 1.363 . S
C2388 C2394 1.379 . S
C2388 N2396 1.356 . S
C2389 C2388 1.363 . S
C2389 C2395 1.363 . S
C2390 C2391 1.363 . S
C2390 C2395 1.379 . S
C2390 N2397 1.356 . S
C2391 C2390 1.363 . S
C2391 C2394 1.363 . S
N2392 C2394 1.356 . S
N2392 H2404 0.984 . S
N2392 H2405 0.985 . S
N2393 C2395 1.356 . S
N2393 H2398 0.984 . S
N2393 H2399 0.985 . S
C2394 C2388 1.379 . S
C2394 C2391 1.363 . S
C2394 N2392 1.356 . S
C2395 C2389 1.363 . S
C2395 C2390 1.379 . S
C2395 N2393 1.356 . S
N2396 C2388 1.356 . S
N2396 H2402 0.984 . S
N2396 H2403 0.984 . S
N2397 C2390 1.356 . S
N2397 H2400 0.984 . S
N2397 H2401 0.985 . S
H2398 N2393 0.984 . S
H2399 N2393 0.985 . S
H2400 N2397 0.984 . S
H2401 N2397 0.985 . S
H2402 N2396 0.984 . S
H2403 N2396 0.984 . S
H2404 N2392 0.984 . S
H2405 N2392 0.985 . S
C2406 C2407 1.363 . S
C2406 C2412 1.379 . S
C2406 N2414 1.356 . S
C2407 C2406 1.363 . S
C2407 C2413 1.363 . S
C2408 C2409 1.363 . S
C2408 C2413 1.379 . S
C2408 N2415 1.356 . S
C2409 C2408 1.363 . S
C2409 C2412 1.363 . S
N2410 C2412 1.356 . S
N2410 H2422 0.984 . S
N2410 H2423 0.985 . S
N2411 C2413 1.356 . S
N2411 H2416 0.984 . S
N2411 H2417 0.985 . S
C2412 C2406 1.379 . S
C2412 C2409 1.363 . S
C2412 N2410 1.356 . S
C2413 C2407 1.363 . S
C2413 C2408 1.379 . S
C2413 N2411 1.356 . S
N2414 C2406 1.356 . S
N2414 H2420 0.984 . S
N2414 H2421 0.984 . S
N2415 C2408 1.356 . S
N2415 H2418 0.984 . S
N2415 H2419 0.985 . S
H2416 N2411 0.984 . S
H2417 N2411 0.985 . S
H2418 N2415 0.984 . S
H2419 N2415 0.985 . S
H2420 N2414 0.984 . S
H2421 N2414 0.984 . S
H2422 N2410 0.984 . S
H2423 N2410 0.985 . S
C2424 C2425 1.363 . S
C2424 C2430 1.379 . S
C2424 N2432 1.356 . S
C2425 C2424 1.363 . S
C2425 C2431 1.363 . S
C2426 C2427 1.363 . S
C2426 C2431 1.379 . S
C2426 N2433 1.356 . S
C2427 C2426 1.363 . S
C2427 C2430 1.363 . S
N2428 C2430 1.356 . S
N2428 H2440 0.984 . S
N2428 H2441 0.985 . S
N2429 C2431 1.356 . S
N2429 H2434 0.984 . S
N2429 H2435 0.985 . S
C2430 C2424 1.379 . S
C2430 C2427 1.363 . S
C2430 N2428 1.356 . S
C2431 C2425 1.363 . S
C2431 C2426 1.379 . S
C2431 N2429 1.356 . S
N2432 C2424 1.356 . S
N2432 H2438 0.984 . S
N2432 H2439 0.984 . S
N2433 C2426 1.356 . S
N2433 H2436 0.984 . S
N2433 H2437 0.985 . S
H2434 N2429 0.984 . S
H2435 N2429 0.985 . S
H2436 N2433 0.984 . S
H2437 N2433 0.985 . S
H2438 N2432 0.984 . S
H2439 N2432 0.984 . S
H2440 N2428 0.984 . S
H2441 N2428 0.985 . S
C2442 C2443 1.363 . S
C2442 C2448 1.379 . S
C2442 N2450 1.356 . S
C2443 C2442 1.363 . S
C2443 C2449 1.363 . S
C2444 C2445 1.363 . S
C2444 C2449 1.379 . S
C2444 N2451 1.356 . S
C2445 C2444 1.363 . S
C2445 C2448 1.363 . S
N2446 C2448 1.356 . S
N2446 H2458 0.984 . S
N2446 H2459 0.985 . S
N2447 C2449 1.356 . S
N2447 H2452 0.984 . S
N2447 H2453 0.985 . S
C2448 C2442 1.379 . S
C2448 C2445 1.363 . S
C2448 N2446 1.356 . S
C2449 C2443 1.363 . S
C2449 C2444 1.379 . S
C2449 N2447 1.356 . S
N2450 C2442 1.356 . S
N2450 H2456 0.984 . S
N2450 H2457 0.984 . S
N2451 C2444 1.356 . S
N2451 H2454 0.984 . S
N2451 H2455 0.985 . S
H2452 N2447 0.984 . S
H2453 N2447 0.985 . S
H2454 N2451 0.984 . S
H2455 N2451 0.985 . S
H2456 N2450 0.984 . S
H2457 N2450 0.984 . S
H2458 N2446 0.984 . S
H2459 N2446 0.985 . S
C2460 C2461 1.363 . S
C2460 C2466 1.379 . S
C2460 N2468 1.356 . S
C2461 C2460 1.363 . S
C2461 C2467 1.363 . S
C2462 C2463 1.363 . S
C2462 C2467 1.379 . S
C2462 N2469 1.356 . S
C2463 C2462 1.363 . S
C2463 C2466 1.363 . S
N2464 C2466 1.356 . S
N2464 H2476 0.984 . S
N2464 H2477 0.985 . S
N2465 C2467 1.356 . S
N2465 H2470 0.984 . S
N2465 H2471 0.985 . S
C2466 C2460 1.379 . S
C2466 C2463 1.363 . S
C2466 N2464 1.356 . S
C2467 C2461 1.363 . S
C2467 C2462 1.379 . S
C2467 N2465 1.356 . S
N2468 C2460 1.356 . S
N2468 H2474 0.984 . S
N2468 H2475 0.984 . S
N2469 C2462 1.356 . S
N2469 H2472 0.984 . S
N2469 H2473 0.985 . S
H2470 N2465 0.984 . S
H2471 N2465 0.985 . S
H2472 N2469 0.984 . S
H2473 N2469 0.985 . S
H2474 N2468 0.984 . S
H2475 N2468 0.984 . S
H2476 N2464 0.984 . S
H2477 N2464 0.985 . S
C2478 C2479 1.363 . S
C2478 C2484 1.379 . S
C2478 N2486 1.356 . S
C2479 C2478 1.363 . S
C2479 C2485 1.363 . S
C2480 C2481 1.363 . S
C2480 C2485 1.379 . S
C2480 N2487 1.356 . S
C2481 C2480 1.363 . S
C2481 C2484 1.363 . S
N2482 C2484 1.356 . S
N2482 H2494 0.984 . S
N2482 H2495 0.985 . S
N2483 C2485 1.356 . S
N2483 H2488 0.984 . S
N2483 H2489 0.985 . S
C2484 C2478 1.379 . S
C2484 C2481 1.363 . S
C2484 N2482 1.356 . S
C2485 C2479 1.363 . S
C2485 C2480 1.379 . S
C2485 N2483 1.356 . S
N2486 C2478 1.356 . S
N2486 H2492 0.984 . S
N2486 H2493 0.984 . S
N2487 C2480 1.356 . S
N2487 H2490 0.984 . S
N2487 H2491 0.985 . S
H2488 N2483 0.984 . S
H2489 N2483 0.985 . S
H2490 N2487 0.984 . S
H2491 N2487 0.985 . S
H2492 N2486 0.984 . S
H2493 N2486 0.984 . S
H2494 N2482 0.984 . S
H2495 N2482 0.985 . S
C2496 C2497 1.363 . S
C2496 C2502 1.379 . S
C2496 N2504 1.356 . S
C2497 C2496 1.363 . S
C2497 C2503 1.363 . S
C2498 C2499 1.363 . S
C2498 C2503 1.379 . S
C2498 N2505 1.356 . S
C2499 C2498 1.363 . S
C2499 C2502 1.363 . S
N2500 C2502 1.356 . S
N2500 H2512 0.984 . S
N2500 H2513 0.985 . S
N2501 C2503 1.356 . S
N2501 H2506 0.984 . S
N2501 H2507 0.985 . S
C2502 C2496 1.379 . S
C2502 C2499 1.363 . S
C2502 N2500 1.356 . S
C2503 C2497 1.363 . S
C2503 C2498 1.379 . S
C2503 N2501 1.356 . S
N2504 C2496 1.356 . S
N2504 H2510 0.984 . S
N2504 H2511 0.984 . S
N2505 C2498 1.356 . S
N2505 H2508 0.984 . S
N2505 H2509 0.985 . S
H2506 N2501 0.984 . S
H2507 N2501 0.985 . S
H2508 N2505 0.984 . S
H2509 N2505 0.985 . S
H2510 N2504 0.984 . S
H2511 N2504 0.984 . S
H2512 N2500 0.984 . S
H2513 N2500 0.985 . S
C2514 C2515 1.363 . S
C2514 C2520 1.379 . S
C2514 N2522 1.356 . S
C2515 C2514 1.363 . S
C2515 C2521 1.363 . S
C2516 C2517 1.363 . S
C2516 C2521 1.379 . S
C2516 N2523 1.356 . S
C2517 C2516 1.363 . S
C2517 C2520 1.363 . S
N2518 C2520 1.356 . S
N2518 H2530 0.984 . S
N2518 H2531 0.985 . S
N2519 C2521 1.356 . S
N2519 H2524 0.984 . S
N2519 H2525 0.985 . S
C2520 C2514 1.379 . S
C2520 C2517 1.363 . S
C2520 N2518 1.356 . S
C2521 C2515 1.363 . S
C2521 C2516 1.379 . S
C2521 N2519 1.356 . S
N2522 C2514 1.356 . S
N2522 H2528 0.984 . S
N2522 H2529 0.984 . S
N2523 C2516 1.356 . S
N2523 H2526 0.984 . S
N2523 H2527 0.985 . S
H2524 N2519 0.984 . S
H2525 N2519 0.985 . S
H2526 N2523 0.984 . S
H2527 N2523 0.985 . S
H2528 N2522 0.984 . S
H2529 N2522 0.984 . S
H2530 N2518 0.984 . S
H2531 N2518 0.985 . S
C2532 C2533 1.363 . S
C2532 C2538 1.379 . S
C2532 N2540 1.356 . S
C2533 C2532 1.363 . S
C2533 C2539 1.363 . S
C2534 C2535 1.363 . S
C2534 C2539 1.379 . S
C2534 N2541 1.356 . S
C2535 C2534 1.363 . S
C2535 C2538 1.363 . S
N2536 C2538 1.356 . S
N2536 H2548 0.984 . S
N2536 H2549 0.985 . S
N2537 C2539 1.356 . S
N2537 H2542 0.984 . S
N2537 H2543 0.985 . S
C2538 C2532 1.379 . S
C2538 C2535 1.363 . S
C2538 N2536 1.356 . S
C2539 C2533 1.363 . S
C2539 C2534 1.379 . S
C2539 N2537 1.356 . S
N2540 C2532 1.356 . S
N2540 H2546 0.984 . S
N2540 H2547 0.984 . S
N2541 C2534 1.356 . S
N2541 H2544 0.984 . S
N2541 H2545 0.985 . S
H2542 N2537 0.984 . S
H2543 N2537 0.985 . S
H2544 N2541 0.984 . S
H2545 N2541 0.985 . S
H2546 N2540 0.984 . S
H2547 N2540 0.984 . S
H2548 N2536 0.984 . S
H2549 N2536 0.985 . S
C2550 C2551 1.363 . S
C2550 C2556 1.379 . S
C2550 N2558 1.356 . S
C2551 C2550 1.363 . S
C2551 C2557 1.363 . S
C2552 C2553 1.363 . S
C2552 C2557 1.379 . S
C2552 N2559 1.356 . S
C2553 C2552 1.363 . S
C2553 C2556 1.363 . S
N2554 C2556 1.356 . S
N2554 H2566 0.984 . S
N2554 H2567 0.985 . S
N2555 C2557 1.356 . S
N2555 H2560 0.984 . S
N2555 H2561 0.985 . S
C2556 C2550 1.379 . S
C2556 C2553 1.363 . S
C2556 N2554 1.356 . S
C2557 C2551 1.363 . S
C2557 C2552 1.379 . S
C2557 N2555 1.356 . S
N2558 C2550 1.356 . S
N2558 H2564 0.984 . S
N2558 H2565 0.984 . S
N2559 C2552 1.356 . S
N2559 H2562 0.984 . S
N2559 H2563 0.985 . S
H2560 N2555 0.984 . S
H2561 N2555 0.985 . S
H2562 N2559 0.984 . S
H2563 N2559 0.985 . S
H2564 N2558 0.984 . S
H2565 N2558 0.984 . S
H2566 N2554 0.984 . S
H2567 N2554 0.985 . S
C2568 C2569 1.363 . S
C2568 C2574 1.379 . S
C2568 N2576 1.356 . S
C2569 C2568 1.363 . S
C2569 C2575 1.363 . S
C2570 C2571 1.363 . S
C2570 C2575 1.379 . S
C2570 N2577 1.356 . S
C2571 C2570 1.363 . S
C2571 C2574 1.363 . S
N2572 C2574 1.356 . S
N2572 H2584 0.984 . S
N2572 H2585 0.985 . S
N2573 C2575 1.356 . S
N2573 H2578 0.984 . S
N2573 H2579 0.985 . S
C2574 C2568 1.379 . S
C2574 C2571 1.363 . S
C2574 N2572 1.356 . S
C2575 C2569 1.363 . S
C2575 C2570 1.379 . S
C2575 N2573 1.356 . S
N2576 C2568 1.356 . S
N2576 H2582 0.984 . S
N2576 H2583 0.984 . S
N2577 C2570 1.356 . S
N2577 H2580 0.984 . S
N2577 H2581 0.985 . S
H2578 N2573 0.984 . S
H2579 N2573 0.985 . S
H2580 N2577 0.984 . S
H2581 N2577 0.985 . S
H2582 N2576 0.984 . S
H2583 N2576 0.984 . S
H2584 N2572 0.984 . S
H2585 N2572 0.985 . S
C2586 C2587 1.363 . S
C2586 C2592 1.379 . S
C2586 N2594 1.356 . S
C2587 C2586 1.363 . S
C2587 C2593 1.363 . S
C2588 C2589 1.363 . S
C2588 C2593 1.379 . S
C2588 N2595 1.356 . S
C2589 C2588 1.363 . S
C2589 C2592 1.363 . S
N2590 C2592 1.356 . S
N2590 H2602 0.984 . S
N2590 H2603 0.985 . S
N2591 C2593 1.356 . S
N2591 H2596 0.984 . S
N2591 H2597 0.985 . S
C2592 C2586 1.379 . S
C2592 C2589 1.363 . S
C2592 N2590 1.356 . S
C2593 C2587 1.363 . S
C2593 C2588 1.379 . S
C2593 N2591 1.356 . S
N2594 C2586 1.356 . S
N2594 H2600 0.984 . S
N2594 H2601 0.984 . S
N2595 C2588 1.356 . S
N2595 H2598 0.984 . S
N2595 H2599 0.985 . S
H2596 N2591 0.984 . S
H2597 N2591 0.985 . S
H2598 N2595 0.984 . S
H2599 N2595 0.985 . S
H2600 N2594 0.984 . S
H2601 N2594 0.984 . S
H2602 N2590 0.984 . S
H2603 N2590 0.985 . S
C2604 C2605 1.363 . S
C2604 C2610 1.379 . S
C2604 N2612 1.356 . S
C2605 C2604 1.363 . S
C2605 C2611 1.363 . S
C2606 C2607 1.363 . S
C2606 C2611 1.379 . S
C2606 N2613 1.356 . S
C2607 C2606 1.363 . S
C2607 C2610 1.363 . S
N2608 C2610 1.356 . S
N2608 H2620 0.984 . S
N2608 H2621 0.985 . S
N2609 C2611 1.356 . S
N2609 H2614 0.984 . S
N2609 H2615 0.985 . S
C2610 C2604 1.379 . S
C2610 C2607 1.363 . S
C2610 N2608 1.356 . S
C2611 C2605 1.363 . S
C2611 C2606 1.379 . S
C2611 N2609 1.356 . S
N2612 C2604 1.356 . S
N2612 H2618 0.984 . S
N2612 H2619 0.984 . S
N2613 C2606 1.356 . S
N2613 H2616 0.984 . S
N2613 H2617 0.985 . S
H2614 N2609 0.984 . S
H2615 N2609 0.985 . S
H2616 N2613 0.984 . S
H2617 N2613 0.985 . S
H2618 N2612 0.984 . S
H2619 N2612 0.984 . S
H2620 N2608 0.984 . S
H2621 N2608 0.985 . S
C2622 C2623 1.363 . S
C2622 C2628 1.379 . S
C2622 N2630 1.356 . S
C2623 C2622 1.363 . S
C2623 C2629 1.363 . S
C2624 C2625 1.363 . S
C2624 C2629 1.379 . S
C2624 N2631 1.356 . S
C2625 C2624 1.363 . S
C2625 C2628 1.363 . S
N2626 C2628 1.356 . S
N2626 H2638 0.984 . S
N2626 H2639 0.985 . S
N2627 C2629 1.356 . S
N2627 H2632 0.984 . S
N2627 H2633 0.985 . S
C2628 C2622 1.379 . S
C2628 C2625 1.363 . S
C2628 N2626 1.356 . S
C2629 C2623 1.363 . S
C2629 C2624 1.379 . S
C2629 N2627 1.356 . S
N2630 C2622 1.356 . S
N2630 H2636 0.984 . S
N2630 H2637 0.984 . S
N2631 C2624 1.356 . S
N2631 H2634 0.984 . S
N2631 H2635 0.985 . S
H2632 N2627 0.984 . S
H2633 N2627 0.985 . S
H2634 N2631 0.984 . S
H2635 N2631 0.985 . S
H2636 N2630 0.984 . S
H2637 N2630 0.984 . S
H2638 N2626 0.984 . S
H2639 N2626 0.985 . S
C2640 C2641 1.363 . S
C2640 C2646 1.379 . S
C2640 N2648 1.356 . S
C2641 C2640 1.363 . S
C2641 C2647 1.363 . S
C2642 C2643 1.363 . S
C2642 C2647 1.379 . S
C2642 N2649 1.356 . S
C2643 C2642 1.363 . S
C2643 C2646 1.363 . S
N2644 C2646 1.356 . S
N2644 H2656 0.984 . S
N2644 H2657 0.985 . S
N2645 C2647 1.356 . S
N2645 H2650 0.984 . S
N2645 H2651 0.985 . S
C2646 C2640 1.379 . S
C2646 C2643 1.363 . S
C2646 N2644 1.356 . S
C2647 C2641 1.363 . S
C2647 C2642 1.379 . S
C2647 N2645 1.356 . S
N2648 C2640 1.356 . S
N2648 H2654 0.984 . S
N2648 H2655 0.984 . S
N2649 C2642 1.356 . S
N2649 H2652 0.984 . S
N2649 H2653 0.985 . S
H2650 N2645 0.984 . S
H2651 N2645 0.985 . S
H2652 N2649 0.984 . S
H2653 N2649 0.985 . S
H2654 N2648 0.984 . S
H2655 N2648 0.984 . S
H2656 N2644 0.984 . S
H2657 N2644 0.985 . S
C2658 C2659 1.363 . S
C2658 C2664 1.379 . S
C2658 N2666 1.356 . S
C2659 C2658 1.363 . S
C2659 C2665 1.363 . S
C2660 C2661 1.363 . S
C2660 C2665 1.379 . S
C2660 N2667 1.356 . S
C2661 C2660 1.363 . S
C2661 C2664 1.363 . S
N2662 C2664 1.356 . S
N2662 H2674 0.984 . S
N2662 H2675 0.985 . S
N2663 C2665 1.356 . S
N2663 H2668 0.984 . S
N2663 H2669 0.985 . S
C2664 C2658 1.379 . S
C2664 C2661 1.363 . S
C2664 N2662 1.356 . S
C2665 C2659 1.363 . S
C2665 C2660 1.379 . S
C2665 N2663 1.356 . S
N2666 C2658 1.356 . S
N2666 H2672 0.984 . S
N2666 H2673 0.984 . S
N2667 C2660 1.356 . S
N2667 H2670 0.984 . S
N2667 H2671 0.985 . S
H2668 N2663 0.984 . S
H2669 N2663 0.985 . S
H2670 N2667 0.984 . S
H2671 N2667 0.985 . S
H2672 N2666 0.984 . S
H2673 N2666 0.984 . S
H2674 N2662 0.984 . S
H2675 N2662 0.985 . S
C2676 C2677 1.363 . S
C2676 C2682 1.379 . S
C2676 N2684 1.356 . S
C2677 C2676 1.363 . S
C2677 C2683 1.363 . S
C2678 C2679 1.363 . S
C2678 C2683 1.379 . S
C2678 N2685 1.356 . S
C2679 C2678 1.363 . S
C2679 C2682 1.363 . S
N2680 C2682 1.356 . S
N2680 H2692 0.984 . S
N2680 H2693 0.985 . S
N2681 C2683 1.356 . S
N2681 H2686 0.984 . S
N2681 H2687 0.985 . S
C2682 C2676 1.379 . S
C2682 C2679 1.363 . S
C2682 N2680 1.356 . S
C2683 C2677 1.363 . S
C2683 C2678 1.379 . S
C2683 N2681 1.356 . S
N2684 C2676 1.356 . S
N2684 H2690 0.984 . S
N2684 H2691 0.984 . S
N2685 C2678 1.356 . S
N2685 H2688 0.984 . S
N2685 H2689 0.985 . S
H2686 N2681 0.984 . S
H2687 N2681 0.985 . S
H2688 N2685 0.984 . S
H2689 N2685 0.985 . S
H2690 N2684 0.984 . S
H2691 N2684 0.984 . S
H2692 N2680 0.984 . S
H2693 N2680 0.985 . S
C2694 C2695 1.363 . S
C2694 C2700 1.379 . S
C2694 N2702 1.356 . S
C2695 C2694 1.363 . S
C2695 C2701 1.363 . S
C2696 C2697 1.363 . S
C2696 C2701 1.379 . S
C2696 N2703 1.356 . S
C2697 C2696 1.363 . S
C2697 C2700 1.363 . S
N2698 C2700 1.356 . S
N2698 H2710 0.984 . S
N2698 H2711 0.985 . S
N2699 C2701 1.356 . S
N2699 H2704 0.984 . S
N2699 H2705 0.985 . S
C2700 C2694 1.379 . S
C2700 C2697 1.363 . S
C2700 N2698 1.356 . S
C2701 C2695 1.363 . S
C2701 C2696 1.379 . S
C2701 N2699 1.356 . S
N2702 C2694 1.356 . S
N2702 H2708 0.984 . S
N2702 H2709 0.984 . S
N2703 C2696 1.356 . S
N2703 H2706 0.984 . S
N2703 H2707 0.985 . S
H2704 N2699 0.984 . S
H2705 N2699 0.985 . S
H2706 N2703 0.984 . S
H2707 N2703 0.985 . S
H2708 N2702 0.984 . S
H2709 N2702 0.984 . S
H2710 N2698 0.984 . S
H2711 N2698 0.985 . S
C2712 C2713 1.363 . S
C2712 C2718 1.379 . S
C2712 N2720 1.356 . S
C2713 C2712 1.363 . S
C2713 C2719 1.363 . S
C2714 C2715 1.363 . S
C2714 C2719 1.379 . S
C2714 N2721 1.356 . S
C2715 C2714 1.363 . S
C2715 C2718 1.363 . S
N2716 C2718 1.356 . S
N2716 H2728 0.984 . S
N2716 H2729 0.985 . S
N2717 C2719 1.356 . S
N2717 H2722 0.984 . S
N2717 H2723 0.985 . S
C2718 C2712 1.379 . S
C2718 C2715 1.363 . S
C2718 N2716 1.356 . S
C2719 C2713 1.363 . S
C2719 C2714 1.379 . S
C2719 N2717 1.356 . S
N2720 C2712 1.356 . S
N2720 H2726 0.984 . S
N2720 H2727 0.984 . S
N2721 C2714 1.356 . S
N2721 H2724 0.984 . S
N2721 H2725 0.985 . S
H2722 N2717 0.984 . S
H2723 N2717 0.985 . S
H2724 N2721 0.984 . S
H2725 N2721 0.985 . S
H2726 N2720 0.984 . S
H2727 N2720 0.984 . S
H2728 N2716 0.984 . S
H2729 N2716 0.985 . S
C2730 C2731 1.363 . S
C2730 C2736 1.379 . S
C2730 N2738 1.356 . S
C2731 C2730 1.363 . S
C2731 C2737 1.363 . S
C2732 C2733 1.363 . S
C2732 C2737 1.379 . S
C2732 N2739 1.356 . S
C2733 C2732 1.363 . S
C2733 C2736 1.363 . S
N2734 C2736 1.356 . S
N2734 H2746 0.984 . S
N2734 H2747 0.985 . S
N2735 C2737 1.356 . S
N2735 H2740 0.984 . S
N2735 H2741 0.985 . S
C2736 C2730 1.379 . S
C2736 C2733 1.363 . S
C2736 N2734 1.356 . S
C2737 C2731 1.363 . S
C2737 C2732 1.379 . S
C2737 N2735 1.356 . S
N2738 C2730 1.356 . S
N2738 H2744 0.984 . S
N2738 H2745 0.984 . S
N2739 C2732 1.356 . S
N2739 H2742 0.984 . S
N2739 H2743 0.985 . S
H2740 N2735 0.984 . S
H2741 N2735 0.985 . S
H2742 N2739 0.984 . S
H2743 N2739 0.985 . S
H2744 N2738 0.984 . S
H2745 N2738 0.984 . S
H2746 N2734 0.984 . S
H2747 N2734 0.985 . S
C2748 C2749 1.363 . S
C2748 C2754 1.379 . S
C2748 N2756 1.356 . S
C2749 C2748 1.363 . S
C2749 C2755 1.363 . S
C2750 C2751 1.363 . S
C2750 C2755 1.379 . S
C2750 N2757 1.356 . S
C2751 C2750 1.363 . S
C2751 C2754 1.363 . S
N2752 C2754 1.356 . S
N2752 H2764 0.984 . S
N2752 H2765 0.985 . S
N2753 C2755 1.356 . S
N2753 H2758 0.984 . S
N2753 H2759 0.985 . S
C2754 C2748 1.379 . S
C2754 C2751 1.363 . S
C2754 N2752 1.356 . S
C2755 C2749 1.363 . S
C2755 C2750 1.379 . S
C2755 N2753 1.356 . S
N2756 C2748 1.356 . S
N2756 H2762 0.984 . S
N2756 H2763 0.984 . S
N2757 C2750 1.356 . S
N2757 H2760 0.984 . S
N2757 H2761 0.985 . S
H2758 N2753 0.984 . S
H2759 N2753 0.985 . S
H2760 N2757 0.984 . S
H2761 N2757 0.985 . S
H2762 N2756 0.984 . S
H2763 N2756 0.984 . S
H2764 N2752 0.984 . S
H2765 N2752 0.985 . S
C2766 C2767 1.363 . S
C2766 C2772 1.379 . S
C2766 N2774 1.356 . S
C2767 C2766 1.363 . S
C2767 C2773 1.363 . S
C2768 C2769 1.363 . S
C2768 C2773 1.379 . S
C2768 N2775 1.356 . S
C2769 C2768 1.363 . S
C2769 C2772 1.363 . S
N2770 C2772 1.356 . S
N2770 H2782 0.984 . S
N2770 H2783 0.985 . S
N2771 C2773 1.356 . S
N2771 H2776 0.984 . S
N2771 H2777 0.985 . S
C2772 C2766 1.379 . S
C2772 C2769 1.363 . S
C2772 N2770 1.356 . S
C2773 C2767 1.363 . S
C2773 C2768 1.379 . S
C2773 N2771 1.356 . S
N2774 C2766 1.356 . S
N2774 H2780 0.984 . S
N2774 H2781 0.984 . S
N2775 C2768 1.356 . S
N2775 H2778 0.984 . S
N2775 H2779 0.985 . S
H2776 N2771 0.984 . S
H2777 N2771 0.985 . S
H2778 N2775 0.984 . S
H2779 N2775 0.985 . S
H2780 N2774 0.984 . S
H2781 N2774 0.984 . S
H2782 N2770 0.984 . S
H2783 N2770 0.985 . S
C2784 C2785 1.363 . S
C2784 C2790 1.379 . S
C2784 N2792 1.356 . S
C2785 C2784 1.363 . S
C2785 C2791 1.363 . S
C2786 C2787 1.363 . S
C2786 C2791 1.379 . S
C2786 N2793 1.356 . S
C2787 C2786 1.363 . S
C2787 C2790 1.363 . S
N2788 C2790 1.356 . S
N2788 H2800 0.984 . S
N2788 H2801 0.985 . S
N2789 C2791 1.356 . S
N2789 H2794 0.984 . S
N2789 H2795 0.985 . S
C2790 C2784 1.379 . S
C2790 C2787 1.363 . S
C2790 N2788 1.356 . S
C2791 C2785 1.363 . S
C2791 C2786 1.379 . S
C2791 N2789 1.356 . S
N2792 C2784 1.356 . S
N2792 H2798 0.984 . S
N2792 H2799 0.984 . S
N2793 C2786 1.356 . S
N2793 H2796 0.984 . S
N2793 H2797 0.985 . S
H2794 N2789 0.984 . S
H2795 N2789 0.985 . S
H2796 N2793 0.984 . S
H2797 N2793 0.985 . S
H2798 N2792 0.984 . S
H2799 N2792 0.984 . S
H2800 N2788 0.984 . S
H2801 N2788 0.985 . S
C2802 C2803 1.363 . S
C2802 C2808 1.379 . S
C2802 N2810 1.356 . S
C2803 C2802 1.363 . S
C2803 C2809 1.363 . S
C2804 C2805 1.363 . S
C2804 C2809 1.379 . S
C2804 N2811 1.356 . S
C2805 C2804 1.363 . S
C2805 C2808 1.363 . S
N2806 C2808 1.356 . S
N2806 H2818 0.984 . S
N2806 H2819 0.985 . S
N2807 C2809 1.356 . S
N2807 H2812 0.984 . S
N2807 H2813 0.985 . S
C2808 C2802 1.379 . S
C2808 C2805 1.363 . S
C2808 N2806 1.356 . S
C2809 C2803 1.363 . S
C2809 C2804 1.379 . S
C2809 N2807 1.356 . S
N2810 C2802 1.356 . S
N2810 H2816 0.984 . S
N2810 H2817 0.984 . S
N2811 C2804 1.356 . S
N2811 H2814 0.984 . S
N2811 H2815 0.985 . S
H2812 N2807 0.984 . S
H2813 N2807 0.985 . S
H2814 N2811 0.984 . S
H2815 N2811 0.985 . S
H2816 N2810 0.984 . S
H2817 N2810 0.984 . S
H2818 N2806 0.984 . S
H2819 N2806 0.985 . S
C2820 C2821 1.363 . S
C2820 C2826 1.379 . S
C2820 N2828 1.356 . S
C2821 C2820 1.363 . S
C2821 C2827 1.363 . S
C2822 C2823 1.363 . S
C2822 C2827 1.379 . S
C2822 N2829 1.356 . S
C2823 C2822 1.363 . S
C2823 C2826 1.363 . S
N2824 C2826 1.356 . S
N2824 H2836 0.984 . S
N2824 H2837 0.985 . S
N2825 C2827 1.356 . S
N2825 H2830 0.984 . S
N2825 H2831 0.985 . S
C2826 C2820 1.379 . S
C2826 C2823 1.363 . S
C2826 N2824 1.356 . S
C2827 C2821 1.363 . S
C2827 C2822 1.379 . S
C2827 N2825 1.356 . S
N2828 C2820 1.356 . S
N2828 H2834 0.984 . S
N2828 H2835 0.984 . S
N2829 C2822 1.356 . S
N2829 H2832 0.984 . S
N2829 H2833 0.985 . S
H2830 N2825 0.984 . S
H2831 N2825 0.985 . S
H2832 N2829 0.984 . S
H2833 N2829 0.985 . S
H2834 N2828 0.984 . S
H2835 N2828 0.984 . S
H2836 N2824 0.984 . S
H2837 N2824 0.985 . S
C2838 C2839 1.363 . S
C2838 C2844 1.379 . S
C2838 N2846 1.356 . S
C2839 C2838 1.363 . S
C2839 C2845 1.363 . S
C2840 C2841 1.363 . S
C2840 C2845 1.379 . S
C2840 N2847 1.356 . S
C2841 C2840 1.363 . S
C2841 C2844 1.363 . S
N2842 C2844 1.356 . S
N2842 H2854 0.984 . S
N2842 H2855 0.985 . S
N2843 C2845 1.356 . S
N2843 H2848 0.984 . S
N2843 H2849 0.985 . S
C2844 C2838 1.379 . S
C2844 C2841 1.363 . S
C2844 N2842 1.356 . S
C2845 C2839 1.363 . S
C2845 C2840 1.379 . S
C2845 N2843 1.356 . S
N2846 C2838 1.356 . S
N2846 H2852 0.984 . S
N2846 H2853 0.984 . S
N2847 C2840 1.356 . S
N2847 H2850 0.984 . S
N2847 H2851 0.985 . S
H2848 N2843 0.984 . S
H2849 N2843 0.985 . S
H2850 N2847 0.984 . S
H2851 N2847 0.985 . S
H2852 N2846 0.984 . S
H2853 N2846 0.984 . S
H2854 N2842 0.984 . S
H2855 N2842 0.985 . S
C2856 C2857 1.363 . S
C2856 C2862 1.379 . S
C2856 N2864 1.356 . S
C2857 C2856 1.363 . S
C2857 C2863 1.363 . S
C2858 C2859 1.363 . S
C2858 C2863 1.379 . S
C2858 N2865 1.356 . S
C2859 C2858 1.363 . S
C2859 C2862 1.363 . S
N2860 C2862 1.356 . S
N2860 H2872 0.984 . S
N2860 H2873 0.985 . S
N2861 C2863 1.356 . S
N2861 H2866 0.984 . S
N2861 H2867 0.985 . S
C2862 C2856 1.379 . S
C2862 C2859 1.363 . S
C2862 N2860 1.356 . S
C2863 C2857 1.363 . S
C2863 C2858 1.379 . S
C2863 N2861 1.356 . S
N2864 C2856 1.356 . S
N2864 H2870 0.984 . S
N2864 H2871 0.984 . S
N2865 C2858 1.356 . S
N2865 H2868 0.984 . S
N2865 H2869 0.985 . S
H2866 N2861 0.984 . S
H2867 N2861 0.985 . S
H2868 N2865 0.984 . S
H2869 N2865 0.985 . S
H2870 N2864 0.984 . S
H2871 N2864 0.984 . S
H2872 N2860 0.984 . S
H2873 N2860 0.985 . S
C2874 C2875 1.363 . S
C2874 C2880 1.379 . S
C2874 N2882 1.356 . S
C2875 C2874 1.363 . S
C2875 C2881 1.363 . S
C2876 C2877 1.363 . S
C2876 C2881 1.379 . S
C2876 N2883 1.356 . S
C2877 C2876 1.363 . S
C2877 C2880 1.363 . S
N2878 C2880 1.356 . S
N2878 H2890 0.984 . S
N2878 H2891 0.985 . S
N2879 C2881 1.356 . S
N2879 H2884 0.984 . S
N2879 H2885 0.985 . S
C2880 C2874 1.379 . S
C2880 C2877 1.363 . S
C2880 N2878 1.356 . S
C2881 C2875 1.363 . S
C2881 C2876 1.379 . S
C2881 N2879 1.356 . S
N2882 C2874 1.356 . S
N2882 H2888 0.984 . S
N2882 H2889 0.984 . S
N2883 C2876 1.356 . S
N2883 H2886 0.984 . S
N2883 H2887 0.985 . S
H2884 N2879 0.984 . S
H2885 N2879 0.985 . S
H2886 N2883 0.984 . S
H2887 N2883 0.985 . S
H2888 N2882 0.984 . S
H2889 N2882 0.984 . S
H2890 N2878 0.984 . S
H2891 N2878 0.985 . S
C2892 C2893 1.363 . S
C2892 C2898 1.379 . S
C2892 N2900 1.356 . S
C2893 C2892 1.363 . S
C2893 C2899 1.363 . S
C2894 C2895 1.363 . S
C2894 C2899 1.379 . S
C2894 N2901 1.356 . S
C2895 C2894 1.363 . S
C2895 C2898 1.363 . S
N2896 C2898 1.356 . S
N2896 H2908 0.984 . S
N2896 H2909 0.985 . S
N2897 C2899 1.356 . S
N2897 H2902 0.984 . S
N2897 H2903 0.985 . S
C2898 C2892 1.379 . S
C2898 C2895 1.363 . S
C2898 N2896 1.356 . S
C2899 C2893 1.363 . S
C2899 C2894 1.379 . S
C2899 N2897 1.356 . S
N2900 C2892 1.356 . S
N2900 H2906 0.984 . S
N2900 H2907 0.984 . S
N2901 C2894 1.356 . S
N2901 H2904 0.984 . S
N2901 H2905 0.985 . S
H2902 N2897 0.984 . S
H2903 N2897 0.985 . S
H2904 N2901 0.984 . S
H2905 N2901 0.985 . S
H2906 N2900 0.984 . S
H2907 N2900 0.984 . S
H2908 N2896 0.984 . S
H2909 N2896 0.985 . S
C2910 C2911 1.363 . S
C2910 C2916 1.379 . S
C2910 N2918 1.356 . S
C2911 C2910 1.363 . S
C2911 C2917 1.363 . S
C2912 C2913 1.363 . S
C2912 C2917 1.379 . S
C2912 N2919 1.356 . S
C2913 C2912 1.363 . S
C2913 C2916 1.363 . S
N2914 C2916 1.356 . S
N2914 H2926 0.984 . S
N2914 H2927 0.985 . S
N2915 C2917 1.356 . S
N2915 H2920 0.984 . S
N2915 H2921 0.985 . S
C2916 C2910 1.379 . S
C2916 C2913 1.363 . S
C2916 N2914 1.356 . S
C2917 C2911 1.363 . S
C2917 C2912 1.379 . S
C2917 N2915 1.356 . S
N2918 C2910 1.356 . S
N2918 H2924 0.984 . S
N2918 H2925 0.984 . S
N2919 C2912 1.356 . S
N2919 H2922 0.984 . S
N2919 H2923 0.985 . S
H2920 N2915 0.984 . S
H2921 N2915 0.985 . S
H2922 N2919 0.984 . S
H2923 N2919 0.985 . S
H2924 N2918 0.984 . S
H2925 N2918 0.984 . S
H2926 N2914 0.984 . S
H2927 N2914 0.985 . S
C2928 C2929 1.363 . S
C2928 C2934 1.379 . S
C2928 N2936 1.356 . S
C2929 C2928 1.363 . S
C2929 C2935 1.363 . S
C2930 C2931 1.363 . S
C2930 C2935 1.379 . S
C2930 N2937 1.356 . S
C2931 C2930 1.363 . S
C2931 C2934 1.363 . S
N2932 C2934 1.356 . S
N2932 H2944 0.984 . S
N2932 H2945 0.985 . S
N2933 C2935 1.356 . S
N2933 H2938 0.984 . S
N2933 H2939 0.985 . S
C2934 C2928 1.379 . S
C2934 C2931 1.363 . S
C2934 N2932 1.356 . S
C2935 C2929 1.363 . S
C2935 C2930 1.379 . S
C2935 N2933 1.356 . S
N2936 C2928 1.356 . S
N2936 H2942 0.984 . S
N2936 H2943 0.984 . S
N2937 C2930 1.356 . S
N2937 H2940 0.984 . S
N2937 H2941 0.985 . S
H2938 N2933 0.984 . S
H2939 N2933 0.985 . S
H2940 N2937 0.984 . S
H2941 N2937 0.985 . S
H2942 N2936 0.984 . S
H2943 N2936 0.984 . S
H2944 N2932 0.984 . S
H2945 N2932 0.985 . S
C2946 C2947 1.363 . S
C2946 C2952 1.379 . S
C2946 N2954 1.356 . S
C2947 C2946 1.363 . S
C2947 C2953 1.363 . S
C2948 C2949 1.363 . S
C2948 C2953 1.379 . S
C2948 N2955 1.356 . S
C2949 C2948 1.363 . S
C2949 C2952 1.363 . S
N2950 C2952 1.356 . S
N2950 H2962 0.984 . S
N2950 H2963 0.985 . S
N2951 C2953 1.356 . S
N2951 H2956 0.984 . S
N2951 H2957 0.985 . S
C2952 C2946 1.379 . S
C2952 C2949 1.363 . S
C2952 N2950 1.356 . S
C2953 C2947 1.363 . S
C2953 C2948 1.379 . S
C2953 N2951 1.356 . S
N2954 C2946 1.356 . S
N2954 H2960 0.984 . S
N2954 H2961 0.984 . S
N2955 C2948 1.356 . S
N2955 H2958 0.984 . S
N2955 H2959 0.985 . S
H2956 N2951 0.984 . S
H2957 N2951 0.985 . S
H2958 N2955 0.984 . S
H2959 N2955 0.985 . S
H2960 N2954 0.984 . S
H2961 N2954 0.984 . S
H2962 N2950 0.984 . S
H2963 N2950 0.985 . S
C2964 C2965 1.363 . S
C2964 C2970 1.379 . S
C2964 N2972 1.356 . S
C2965 C2964 1.363 . S
C2965 C2971 1.363 . S
C2966 C2967 1.363 . S
C2966 C2971 1.379 . S
C2966 N2973 1.356 . S
C2967 C2966 1.363 . S
C2967 C2970 1.363 . S
N2968 C2970 1.356 . S
N2968 H2980 0.984 . S
N2968 H2981 0.985 . S
N2969 C2971 1.356 . S
N2969 H2974 0.984 . S
N2969 H2975 0.985 . S
C2970 C2964 1.379 . S
C2970 C2967 1.363 . S
C2970 N2968 1.356 . S
C2971 C2965 1.363 . S
C2971 C2966 1.379 . S
C2971 N2969 1.356 . S
N2972 C2964 1.356 . S
N2972 H2978 0.984 . S
N2972 H2979 0.984 . S
N2973 C2966 1.356 . S
N2973 H2976 0.984 . S
N2973 H2977 0.985 . S
H2974 N2969 0.984 . S
H2975 N2969 0.985 . S
H2976 N2973 0.984 . S
H2977 N2973 0.985 . S
H2978 N2972 0.984 . S
H2979 N2972 0.984 . S
H2980 N2968 0.984 . S
H2981 N2968 0.985 . S
C2982 C2983 1.363 . S
C2982 C2988 1.379 . S
C2982 N2990 1.356 . S
C2983 C2982 1.363 . S
C2983 C2989 1.363 . S
C2984 C2985 1.363 . S
C2984 C2989 1.379 . S
C2984 N2991 1.356 . S
C2985 C2984 1.363 . S
C2985 C2988 1.363 . S
N2986 C2988 1.356 . S
N2986 H2998 0.984 . S
N2986 H2999 0.985 . S
N2987 C2989 1.356 . S
N2987 H2992 0.984 . S
N2987 H2993 0.985 . S
C2988 C2982 1.379 . S
C2988 C2985 1.363 . S
C2988 N2986 1.356 . S
C2989 C2983 1.363 . S
C2989 C2984 1.379 . S
C2989 N2987 1.356 . S
N2990 C2982 1.356 . S
N2990 H2996 0.984 . S
N2990 H2997 0.984 . S
N2991 C2984 1.356 . S
N2991 H2994 0.984 . S
N2991 H2995 0.985 . S
H2992 N2987 0.984 . S
H2993 N2987 0.985 . S
H2994 N2991 0.984 . S
H2995 N2991 0.985 . S
H2996 N2990 0.984 . S
H2997 N2990 0.984 . S
H2998 N2986 0.984 . S
H2999 N2986 0.985 . S
C3000 C3001 1.363 . S
C3000 C3006 1.379 . S
C3000 N3008 1.356 . S
C3001 C3000 1.363 . S
C3001 C3007 1.363 . S
C3002 C3003 1.363 . S
C3002 C3007 1.379 . S
C3002 N3009 1.356 . S
C3003 C3002 1.363 . S
C3003 C3006 1.363 . S
N3004 C3006 1.356 . S
N3004 H3016 0.984 . S
N3004 H3017 0.985 . S
N3005 C3007 1.356 . S
N3005 H3010 0.984 . S
N3005 H3011 0.985 . S
C3006 C3000 1.379 . S
C3006 C3003 1.363 . S
C3006 N3004 1.356 . S
C3007 C3001 1.363 . S
C3007 C3002 1.379 . S
C3007 N3005 1.356 . S
N3008 C3000 1.356 . S
N3008 H3014 0.984 . S
N3008 H3015 0.984 . S
N3009 C3002 1.356 . S
N3009 H3012 0.984 . S
N3009 H3013 0.985 . S
H3010 N3005 0.984 . S
H3011 N3005 0.985 . S
H3012 N3009 0.984 . S
H3013 N3009 0.985 . S
H3014 N3008 0.984 . S
H3015 N3008 0.984 . S
H3016 N3004 0.984 . S
H3017 N3004 0.985 . S
C3018 C3019 1.363 . S
C3018 C3024 1.379 . S
C3018 N3026 1.356 . S
C3019 C3018 1.363 . S
C3019 C3025 1.363 . S
C3020 C3021 1.363 . S
C3020 C3025 1.379 . S
C3020 N3027 1.356 . S
C3021 C3020 1.363 . S
C3021 C3024 1.363 . S
N3022 C3024 1.356 . S
N3022 H3034 0.984 . S
N3022 H3035 0.985 . S
N3023 C3025 1.356 . S
N3023 H3028 0.984 . S
N3023 H3029 0.985 . S
C3024 C3018 1.379 . S
C3024 C3021 1.363 . S
C3024 N3022 1.356 . S
C3025 C3019 1.363 . S
C3025 C3020 1.379 . S
C3025 N3023 1.356 . S
N3026 C3018 1.356 . S
N3026 H3032 0.984 . S
N3026 H3033 0.984 . S
N3027 C3020 1.356 . S
N3027 H3030 0.984 . S
N3027 H3031 0.985 . S
H3028 N3023 0.984 . S
H3029 N3023 0.985 . S
H3030 N3027 0.984 . S
H3031 N3027 0.985 . S
H3032 N3026 0.984 . S
H3033 N3026 0.984 . S
H3034 N3022 0.984 . S
H3035 N3022 0.985 . S
C3036 C3037 1.363 . S
C3036 C3042 1.379 . S
C3036 N3044 1.356 . S
C3037 C3036 1.363 . S
C3037 C3043 1.363 . S
C3038 C3039 1.363 . S
C3038 C3043 1.379 . S
C3038 N3045 1.356 . S
C3039 C3038 1.363 . S
C3039 C3042 1.363 . S
N3040 C3042 1.356 . S
N3040 H3052 0.984 . S
N3040 H3053 0.985 . S
N3041 C3043 1.356 . S
N3041 H3046 0.984 . S
N3041 H3047 0.985 . S
C3042 C3036 1.379 . S
C3042 C3039 1.363 . S
C3042 N3040 1.356 . S
C3043 C3037 1.363 . S
C3043 C3038 1.379 . S
C3043 N3041 1.356 . S
N3044 C3036 1.356 . S
N3044 H3050 0.984 . S
N3044 H3051 0.984 . S
N3045 C3038 1.356 . S
N3045 H3048 0.984 . S
N3045 H3049 0.985 . S
H3046 N3041 0.984 . S
H3047 N3041 0.985 . S
H3048 N3045 0.984 . S
H3049 N3045 0.985 . S
H3050 N3044 0.984 . S
H3051 N3044 0.984 . S
H3052 N3040 0.984 . S
H3053 N3040 0.985 . S
C3054 C3055 1.363 . S
C3054 C3060 1.379 . S
C3054 N3062 1.356 . S
C3055 C3054 1.363 . S
C3055 C3061 1.363 . S
C3056 C3057 1.363 . S
C3056 C3061 1.379 . S
C3056 N3063 1.356 . S
C3057 C3056 1.363 . S
C3057 C3060 1.363 . S
N3058 C3060 1.356 . S
N3058 H3070 0.984 . S
N3058 H3071 0.985 . S
N3059 C3061 1.356 . S
N3059 H3064 0.984 . S
N3059 H3065 0.985 . S
C3060 C3054 1.379 . S
C3060 C3057 1.363 . S
C3060 N3058 1.356 . S
C3061 C3055 1.363 . S
C3061 C3056 1.379 . S
C3061 N3059 1.356 . S
N3062 C3054 1.356 . S
N3062 H3068 0.984 . S
N3062 H3069 0.984 . S
N3063 C3056 1.356 . S
N3063 H3066 0.984 . S
N3063 H3067 0.985 . S
H3064 N3059 0.984 . S
H3065 N3059 0.985 . S
H3066 N3063 0.984 . S
H3067 N3063 0.985 . S
H3068 N3062 0.984 . S
H3069 N3062 0.984 . S
H3070 N3058 0.984 . S
H3071 N3058 0.985 . S
C3072 C3073 1.363 . S
C3072 C3078 1.379 . S
C3072 N3080 1.356 . S
C3073 C3072 1.363 . S
C3073 C3079 1.363 . S
C3074 C3075 1.363 . S
C3074 C3079 1.379 . S
C3074 N3081 1.356 . S
C3075 C3074 1.363 . S
C3075 C3078 1.363 . S
N3076 C3078 1.356 . S
N3076 H3088 0.984 . S
N3076 H3089 0.985 . S
N3077 C3079 1.356 . S
N3077 H3082 0.984 . S
N3077 H3083 0.985 . S
C3078 C3072 1.379 . S
C3078 C3075 1.363 . S
C3078 N3076 1.356 . S
C3079 C3073 1.363 . S
C3079 C3074 1.379 . S
C3079 N3077 1.356 . S
N3080 C3072 1.356 . S
N3080 H3086 0.984 . S
N3080 H3087 0.984 . S
N3081 C3074 1.356 . S
N3081 H3084 0.984 . S
N3081 H3085 0.985 . S
H3082 N3077 0.984 . S
H3083 N3077 0.985 . S
H3084 N3081 0.984 . S
H3085 N3081 0.985 . S
H3086 N3080 0.984 . S
H3087 N3080 0.984 . S
H3088 N3076 0.984 . S
H3089 N3076 0.985 . S
C3090 C3091 1.363 . S
C3090 C3096 1.379 . S
C3090 N3098 1.356 . S
C3091 C3090 1.363 . S
C3091 C3097 1.363 . S
C3092 C3093 1.363 . S
C3092 C3097 1.379 . S
C3092 N3099 1.356 . S
C3093 C3092 1.363 . S
C3093 C3096 1.363 . S
N3094 C3096 1.356 . S
N3094 H3106 0.984 . S
N3094 H3107 0.985 . S
N3095 C3097 1.356 . S
N3095 H3100 0.984 . S
N3095 H3101 0.985 . S
C3096 C3090 1.379 . S
C3096 C3093 1.363 . S
C3096 N3094 1.356 . S
C3097 C3091 1.363 . S
C3097 C3092 1.379 . S
C3097 N3095 1.356 . S
N3098 C3090 1.356 . S
N3098 H3104 0.984 . S
N3098 H3105 0.984 . S
N3099 C3092 1.356 . S
N3099 H3102 0.984 . S
N3099 H3103 0.985 . S
H3100 N3095 0.984 . S
H3101 N3095 0.985 . S
H3102 N3099 0.984 . S
H3103 N3099 0.985 . S
H3104 N3098 0.984 . S
H3105 N3098 0.984 . S
H3106 N3094 0.984 . S
H3107 N3094 0.985 . S
C3108 C3109 1.363 . S
C3108 C3114 1.379 . S
C3108 N3116 1.356 . S
C3109 C3108 1.363 . S
C3109 C3115 1.363 . S
C3110 C3111 1.363 . S
C3110 C3115 1.379 . S
C3110 N3117 1.356 . S
C3111 C3110 1.363 . S
C3111 C3114 1.363 . S
N3112 C3114 1.356 . S
N3112 H3124 0.984 . S
N3112 H3125 0.985 . S
N3113 C3115 1.356 . S
N3113 H3118 0.984 . S
N3113 H3119 0.985 . S
C3114 C3108 1.379 . S
C3114 C3111 1.363 . S
C3114 N3112 1.356 . S
C3115 C3109 1.363 . S
C3115 C3110 1.379 . S
C3115 N3113 1.356 . S
N3116 C3108 1.356 . S
N3116 H3122 0.984 . S
N3116 H3123 0.984 . S
N3117 C3110 1.356 . S
N3117 H3120 0.984 . S
N3117 H3121 0.985 . S
H3118 N3113 0.984 . S
H3119 N3113 0.985 . S
H3120 N3117 0.984 . S
H3121 N3117 0.985 . S
H3122 N3116 0.984 . S
H3123 N3116 0.984 . S
H3124 N3112 0.984 . S
H3125 N3112 0.985 . S
C3126 C3127 1.363 . S
C3126 C3132 1.379 . S
C3126 N3134 1.356 . S
C3127 C3126 1.363 . S
C3127 C3133 1.363 . S
C3128 C3129 1.363 . S
C3128 C3133 1.379 . S
C3128 N3135 1.356 . S
C3129 C3128 1.363 . S
C3129 C3132 1.363 . S
N3130 C3132 1.356 . S
N3130 H3142 0.984 . S
N3130 H3143 0.985 . S
N3131 C3133 1.356 . S
N3131 H3136 0.984 . S
N3131 H3137 0.985 . S
C3132 C3126 1.379 . S
C3132 C3129 1.363 . S
C3132 N3130 1.356 . S
C3133 C3127 1.363 . S
C3133 C3128 1.379 . S
C3133 N3131 1.356 . S
N3134 C3126 1.356 . S
N3134 H3140 0.984 . S
N3134 H3141 0.984 . S
N3135 C3128 1.356 . S
N3135 H3138 0.984 . S
N3135 H3139 0.985 . S
H3136 N3131 0.984 . S
H3137 N3131 0.985 . S
H3138 N3135 0.984 . S
H3139 N3135 0.985 . S
H3140 N3134 0.984 . S
H3141 N3134 0.984 . S
H3142 N3130 0.984 . S
H3143 N3130 0.985 . S
C3144 C3145 1.363 . S
C3144 C3150 1.379 . S
C3144 N3152 1.356 . S
C3145 C3144 1.363 . S
C3145 C3151 1.363 . S
C3146 C3147 1.363 . S
C3146 C3151 1.379 . S
C3146 N3153 1.356 . S
C3147 C3146 1.363 . S
C3147 C3150 1.363 . S
N3148 C3150 1.356 . S
N3148 H3160 0.984 . S
N3148 H3161 0.985 . S
N3149 C3151 1.356 . S
N3149 H3154 0.984 . S
N3149 H3155 0.985 . S
C3150 C3144 1.379 . S
C3150 C3147 1.363 . S
C3150 N3148 1.356 . S
C3151 C3145 1.363 . S
C3151 C3146 1.379 . S
C3151 N3149 1.356 . S
N3152 C3144 1.356 . S
N3152 H3158 0.984 . S
N3152 H3159 0.984 . S
N3153 C3146 1.356 . S
N3153 H3156 0.984 . S
N3153 H3157 0.985 . S
H3154 N3149 0.984 . S
H3155 N3149 0.985 . S
H3156 N3153 0.984 . S
H3157 N3153 0.985 . S
H3158 N3152 0.984 . S
H3159 N3152 0.984 . S
H3160 N3148 0.984 . S
H3161 N3148 0.985 . S
C3162 C3163 1.363 . S
C3162 C3168 1.379 . S
C3162 N3170 1.356 . S
C3163 C3162 1.363 . S
C3163 C3169 1.363 . S
C3164 C3165 1.363 . S
C3164 C3169 1.379 . S
C3164 N3171 1.356 . S
C3165 C3164 1.363 . S
C3165 C3168 1.363 . S
N3166 C3168 1.356 . S
N3166 H3178 0.984 . S
N3166 H3179 0.985 . S
N3167 C3169 1.356 . S
N3167 H3172 0.984 . S
N3167 H3173 0.985 . S
C3168 C3162 1.379 . S
C3168 C3165 1.363 . S
C3168 N3166 1.356 . S
C3169 C3163 1.363 . S
C3169 C3164 1.379 . S
C3169 N3167 1.356 . S
N3170 C3162 1.356 . S
N3170 H3176 0.984 . S
N3170 H3177 0.984 . S
N3171 C3164 1.356 . S
N3171 H3174 0.984 . S
N3171 H3175 0.985 . S
H3172 N3167 0.984 . S
H3173 N3167 0.985 . S
H3174 N3171 0.984 . S
H3175 N3171 0.985 . S
H3176 N3170 0.984 . S
H3177 N3170 0.984 . S
H3178 N3166 0.984 . S
H3179 N3166 0.985 . S
C3180 C3181 1.363 . S
C3180 C3186 1.379 . S
C3180 N3188 1.356 . S
C3181 C3180 1.363 . S
C3181 C3187 1.363 . S
C3182 C3183 1.363 . S
C3182 C3187 1.379 . S
C3182 N3189 1.356 . S
C3183 C3182 1.363 . S
C3183 C3186 1.363 . S
N3184 C3186 1.356 . S
N3184 H3196 0.984 . S
N3184 H3197 0.985 . S
N3185 C3187 1.356 . S
N3185 H3190 0.984 . S
N3185 H3191 0.985 . S
C3186 C3180 1.379 . S
C3186 C3183 1.363 . S
C3186 N3184 1.356 . S
C3187 C3181 1.363 . S
C3187 C3182 1.379 . S
C3187 N3185 1.356 . S
N3188 C3180 1.356 . S
N3188 H3194 0.984 . S
N3188 H3195 0.984 . S
N3189 C3182 1.356 . S
N3189 H3192 0.984 . S
N3189 H3193 0.985 . S
H3190 N3185 0.984 . S
H3191 N3185 0.985 . S
H3192 N3189 0.984 . S
H3193 N3189 0.985 . S
H3194 N3188 0.984 . S
H3195 N3188 0.984 . S
H3196 N3184 0.984 . S
H3197 N3184 0.985 . S
C3198 C3199 1.363 . S
C3198 C3204 1.379 . S
C3198 N3206 1.356 . S
C3199 C3198 1.363 . S
C3199 C3205 1.363 . S
C3200 C3201 1.363 . S
C3200 C3205 1.379 . S
C3200 N3207 1.356 . S
C3201 C3200 1.363 . S
C3201 C3204 1.363 . S
N3202 C3204 1.356 . S
N3202 H3214 0.984 . S
N3202 H3215 0.985 . S
N3203 C3205 1.356 . S
N3203 H3208 0.984 . S
N3203 H3209 0.985 . S
C3204 C3198 1.379 . S
C3204 C3201 1.363 . S
C3204 N3202 1.356 . S
C3205 C3199 1.363 . S
C3205 C3200 1.379 . S
C3205 N3203 1.356 . S
N3206 C3198 1.356 . S
N3206 H3212 0.984 . S
N3206 H3213 0.984 . S
N3207 C3200 1.356 . S
N3207 H3210 0.984 . S
N3207 H3211 0.985 . S
H3208 N3203 0.984 . S
H3209 N3203 0.985 . S
H3210 N3207 0.984 . S
H3211 N3207 0.985 . S
H3212 N3206 0.984 . S
H3213 N3206 0.984 . S
H3214 N3202 0.984 . S
H3215 N3202 0.985 . S
C3216 C3217 1.363 . S
C3216 C3222 1.379 . S
C3216 N3224 1.356 . S
C3217 C3216 1.363 . S
C3217 C3223 1.363 . S
C3218 C3219 1.363 . S
C3218 C3223 1.379 . S
C3218 N3225 1.356 . S
C3219 C3218 1.363 . S
C3219 C3222 1.363 . S
N3220 C3222 1.356 . S
N3220 H3232 0.984 . S
N3220 H3233 0.985 . S
N3221 C3223 1.356 . S
N3221 H3226 0.984 . S
N3221 H3227 0.985 . S
C3222 C3216 1.379 . S
C3222 C3219 1.363 . S
C3222 N3220 1.356 . S
C3223 C3217 1.363 . S
C3223 C3218 1.379 . S
C3223 N3221 1.356 . S
N3224 C3216 1.356 . S
N3224 H3230 0.984 . S
N3224 H3231 0.984 . S
N3225 C3218 1.356 . S
N3225 H3228 0.984 . S
N3225 H3229 0.985 . S
H3226 N3221 0.984 . S
H3227 N3221 0.985 . S
H3228 N3225 0.984 . S
H3229 N3225 0.985 . S
H3230 N3224 0.984 . S
H3231 N3224 0.984 . S
H3232 N3220 0.984 . S
H3233 N3220 0.985 . S
C3234 C3235 1.363 . S
C3234 C3240 1.379 . S
C3234 N3242 1.356 . S
C3235 C3234 1.363 . S
C3235 C3241 1.363 . S
C3236 C3237 1.363 . S
C3236 C3241 1.379 . S
C3236 N3243 1.356 . S
C3237 C3236 1.363 . S
C3237 C3240 1.363 . S
N3238 C3240 1.356 . S
N3238 H3250 0.984 . S
N3238 H3251 0.985 . S
N3239 C3241 1.356 . S
N3239 H3244 0.984 . S
N3239 H3245 0.985 . S
C3240 C3234 1.379 . S
C3240 C3237 1.363 . S
C3240 N3238 1.356 . S
C3241 C3235 1.363 . S
C3241 C3236 1.379 . S
C3241 N3239 1.356 . S
N3242 C3234 1.356 . S
N3242 H3248 0.984 . S
N3242 H3249 0.984 . S
N3243 C3236 1.356 . S
N3243 H3246 0.984 . S
N3243 H3247 0.985 . S
H3244 N3239 0.984 . S
H3245 N3239 0.985 . S
H3246 N3243 0.984 . S
H3247 N3243 0.985 . S
H3248 N3242 0.984 . S
H3249 N3242 0.984 . S
H3250 N3238 0.984 . S
H3251 N3238 0.985 . S
C3252 C3253 1.363 . S
C3252 C3258 1.379 . S
C3252 N3260 1.356 . S
C3253 C3252 1.363 . S
C3253 C3259 1.363 . S
C3254 C3255 1.363 . S
C3254 C3259 1.379 . S
C3254 N3261 1.356 . S
C3255 C3254 1.363 . S
C3255 C3258 1.363 . S
N3256 C3258 1.356 . S
N3256 H3268 0.984 . S
N3256 H3269 0.985 . S
N3257 C3259 1.356 . S
N3257 H3262 0.984 . S
N3257 H3263 0.985 . S
C3258 C3252 1.379 . S
C3258 C3255 1.363 . S
C3258 N3256 1.356 . S
C3259 C3253 1.363 . S
C3259 C3254 1.379 . S
C3259 N3257 1.356 . S
N3260 C3252 1.356 . S
N3260 H3266 0.984 . S
N3260 H3267 0.984 . S
N3261 C3254 1.356 . S
N3261 H3264 0.984 . S
N3261 H3265 0.985 . S
H3262 N3257 0.984 . S
H3263 N3257 0.985 . S
H3264 N3261 0.984 . S
H3265 N3261 0.985 . S
H3266 N3260 0.984 . S
H3267 N3260 0.984 . S
H3268 N3256 0.984 . S
H3269 N3256 0.985 . S
C3270 C3271 1.363 . S
C3270 C3276 1.379 . S
C3270 N3278 1.356 . S
C3271 C3270 1.363 . S
C3271 C3277 1.363 . S
C3272 C3273 1.363 . S
C3272 C3277 1.379 . S
C3272 N3279 1.356 . S
C3273 C3272 1.363 . S
C3273 C3276 1.363 . S
N3274 C3276 1.356 . S
N3274 H3286 0.984 . S
N3274 H3287 0.985 . S
N3275 C3277 1.356 . S
N3275 H3280 0.984 . S
N3275 H3281 0.985 . S
C3276 C3270 1.379 . S
C3276 C3273 1.363 . S
C3276 N3274 1.356 . S
C3277 C3271 1.363 . S
C3277 C3272 1.379 . S
C3277 N3275 1.356 . S
N3278 C3270 1.356 . S
N3278 H3284 0.984 . S
N3278 H3285 0.984 . S
N3279 C3272 1.356 . S
N3279 H3282 0.984 . S
N3279 H3283 0.985 . S
H3280 N3275 0.984 . S
H3281 N3275 0.985 . S
H3282 N3279 0.984 . S
H3283 N3279 0.985 . S
H3284 N3278 0.984 . S
H3285 N3278 0.984 . S
H3286 N3274 0.984 . S
H3287 N3274 0.985 . S
C3288 C3289 1.363 . S
C3288 C3294 1.379 . S
C3288 N3296 1.356 . S
C3289 C3288 1.363 . S
C3289 C3295 1.363 . S
C3290 C3291 1.363 . S
C3290 C3295 1.379 . S
C3290 N3297 1.356 . S
C3291 C3290 1.363 . S
C3291 C3294 1.363 . S
N3292 C3294 1.356 . S
N3292 H3304 0.984 . S
N3292 H3305 0.985 . S
N3293 C3295 1.356 . S
N3293 H3298 0.984 . S
N3293 H3299 0.985 . S
C3294 C3288 1.379 . S
C3294 C3291 1.363 . S
C3294 N3292 1.356 . S
C3295 C3289 1.363 . S
C3295 C3290 1.379 . S
C3295 N3293 1.356 . S
N3296 C3288 1.356 . S
N3296 H3302 0.984 . S
N3296 H3303 0.984 . S
N3297 C3290 1.356 . S
N3297 H3300 0.984 . S
N3297 H3301 0.985 . S
H3298 N3293 0.984 . S
H3299 N3293 0.985 . S
H3300 N3297 0.984 . S
H3301 N3297 0.985 . S
H3302 N3296 0.984 . S
H3303 N3296 0.984 . S
H3304 N3292 0.984 . S
H3305 N3292 0.985 . S
C3306 C3307 1.363 . S
C3306 C3312 1.379 . S
C3306 N3314 1.356 . S
C3307 C3306 1.363 . S
C3307 C3313 1.363 . S
C3308 C3309 1.363 . S
C3308 C3313 1.379 . S
C3308 N3315 1.356 . S
C3309 C3308 1.363 . S
C3309 C3312 1.363 . S
N3310 C3312 1.356 . S
N3310 H3322 0.984 . S
N3310 H3323 0.985 . S
N3311 C3313 1.356 . S
N3311 H3316 0.984 . S
N3311 H3317 0.985 . S
C3312 C3306 1.379 . S
C3312 C3309 1.363 . S
C3312 N3310 1.356 . S
C3313 C3307 1.363 . S
C3313 C3308 1.379 . S
C3313 N3311 1.356 . S
N3314 C3306 1.356 . S
N3314 H3320 0.984 . S
N3314 H3321 0.984 . S
N3315 C3308 1.356 . S
N3315 H3318 0.984 . S
N3315 H3319 0.985 . S
H3316 N3311 0.984 . S
H3317 N3311 0.985 . S
H3318 N3315 0.984 . S
H3319 N3315 0.985 . S
H3320 N3314 0.984 . S
H3321 N3314 0.984 . S
H3322 N3310 0.984 . S
H3323 N3310 0.985 . S
C3324 C3325 1.363 . S
C3324 C3330 1.379 . S
C3324 N3332 1.356 . S
C3325 C3324 1.363 . S
C3325 C3331 1.363 . S
C3326 C3327 1.363 . S
C3326 C3331 1.379 . S
C3326 N3333 1.356 . S
C3327 C3326 1.363 . S
C3327 C3330 1.363 . S
N3328 C3330 1.356 . S
N3328 H3340 0.984 . S
N3328 H3341 0.985 . S
N3329 C3331 1.356 . S
N3329 H3334 0.984 . S
N3329 H3335 0.985 . S
C3330 C3324 1.379 . S
C3330 C3327 1.363 . S
C3330 N3328 1.356 . S
C3331 C3325 1.363 . S
C3331 C3326 1.379 . S
C3331 N3329 1.356 . S
N3332 C3324 1.356 . S
N3332 H3338 0.984 . S
N3332 H3339 0.984 . S
N3333 C3326 1.356 . S
N3333 H3336 0.984 . S
N3333 H3337 0.985 . S
H3334 N3329 0.984 . S
H3335 N3329 0.985 . S
H3336 N3333 0.984 . S
H3337 N3333 0.985 . S
H3338 N3332 0.984 . S
H3339 N3332 0.984 . S
H3340 N3328 0.984 . S
H3341 N3328 0.985 . S
C3342 C3343 1.363 . S
C3342 C3348 1.379 . S
C3342 N3350 1.356 . S
C3343 C3342 1.363 . S
C3343 C3349 1.363 . S
C3344 C3345 1.363 . S
C3344 C3349 1.379 . S
C3344 N3351 1.356 . S
C3345 C3344 1.363 . S
C3345 C3348 1.363 . S
N3346 C3348 1.356 . S
N3346 H3358 0.984 . S
N3346 H3359 0.985 . S
N3347 C3349 1.356 . S
N3347 H3352 0.984 . S
N3347 H3353 0.985 . S
C3348 C3342 1.379 . S
C3348 C3345 1.363 . S
C3348 N3346 1.356 . S
C3349 C3343 1.363 . S
C3349 C3344 1.379 . S
C3349 N3347 1.356 . S
N3350 C3342 1.356 . S
N3350 H3356 0.984 . S
N3350 H3357 0.984 . S
N3351 C3344 1.356 . S
N3351 H3354 0.984 . S
N3351 H3355 0.985 . S
H3352 N3347 0.984 . S
H3353 N3347 0.985 . S
H3354 N3351 0.984 . S
H3355 N3351 0.985 . S
H3356 N3350 0.984 . S
H3357 N3350 0.984 . S
H3358 N3346 0.984 . S
H3359 N3346 0.985 . S
C3360 C3361 1.363 . S
C3360 C3366 1.379 . S
C3360 N3368 1.356 . S
C3361 C3360 1.363 . S
C3361 C3367 1.363 . S
C3362 C3363 1.363 . S
C3362 C3367 1.379 . S
C3362 N3369 1.356 . S
C3363 C3362 1.363 . S
C3363 C3366 1.363 . S
N3364 C3366 1.356 . S
N3364 H3376 0.984 . S
N3364 H3377 0.985 . S
N3365 C3367 1.356 . S
N3365 H3370 0.984 . S
N3365 H3371 0.985 . S
C3366 C3360 1.379 . S
C3366 C3363 1.363 . S
C3366 N3364 1.356 . S
C3367 C3361 1.363 . S
C3367 C3362 1.379 . S
C3367 N3365 1.356 . S
N3368 C3360 1.356 . S
N3368 H3374 0.984 . S
N3368 H3375 0.984 . S
N3369 C3362 1.356 . S
N3369 H3372 0.984 . S
N3369 H3373 0.985 . S
H3370 N3365 0.984 . S
H3371 N3365 0.985 . S
H3372 N3369 0.984 . S
H3373 N3369 0.985 . S
H3374 N3368 0.984 . S
H3375 N3368 0.984 . S
H3376 N3364 0.984 . S
H3377 N3364 0.985 . S
C3378 C3379 1.363 . S
C3378 C3384 1.379 . S
C3378 N3386 1.356 . S
C3379 C3378 1.363 . S
C3379 C3385 1.363 . S
C3380 C3381 1.363 . S
C3380 C3385 1.379 . S
C3380 N3387 1.356 . S
C3381 C3380 1.363 . S
C3381 C3384 1.363 . S
N3382 C3384 1.356 . S
N3382 H3394 0.984 . S
N3382 H3395 0.985 . S
N3383 C3385 1.356 . S
N3383 H3388 0.984 . S
N3383 H3389 0.985 . S
C3384 C3378 1.379 . S
C3384 C3381 1.363 . S
C3384 N3382 1.356 . S
C3385 C3379 1.363 . S
C3385 C3380 1.379 . S
C3385 N3383 1.356 . S
N3386 C3378 1.356 . S
N3386 H3392 0.984 . S
N3386 H3393 0.984 . S
N3387 C3380 1.356 . S
N3387 H3390 0.984 . S
N3387 H3391 0.985 . S
H3388 N3383 0.984 . S
H3389 N3383 0.985 . S
H3390 N3387 0.984 . S
H3391 N3387 0.985 . S
H3392 N3386 0.984 . S
H3393 N3386 0.984 . S
H3394 N3382 0.984 . S
H3395 N3382 0.985 . S
C3396 C3397 1.363 . S
C3396 C3402 1.379 . S
C3396 N3404 1.356 . S
C3397 C3396 1.363 . S
C3397 C3403 1.363 . S
C3398 C3399 1.363 . S
C3398 C3403 1.379 . S
C3398 N3405 1.356 . S
C3399 C3398 1.363 . S
C3399 C3402 1.363 . S
N3400 C3402 1.356 . S
N3400 H3412 0.984 . S
N3400 H3413 0.985 . S
N3401 C3403 1.356 . S
N3401 H3406 0.984 . S
N3401 H3407 0.985 . S
C3402 C3396 1.379 . S
C3402 C3399 1.363 . S
C3402 N3400 1.356 . S
C3403 C3397 1.363 . S
C3403 C3398 1.379 . S
C3403 N3401 1.356 . S
N3404 C3396 1.356 . S
N3404 H3410 0.984 . S
N3404 H3411 0.984 . S
N3405 C3398 1.356 . S
N3405 H3408 0.984 . S
N3405 H3409 0.985 . S
H3406 N3401 0.984 . S
H3407 N3401 0.985 . S
H3408 N3405 0.984 . S
H3409 N3405 0.985 . S
H3410 N3404 0.984 . S
H3411 N3404 0.984 . S
H3412 N3400 0.984 . S
H3413 N3400 0.985 . S
C3414 C3415 1.363 . S
C3414 C3420 1.379 . S
C3414 N3422 1.356 . S
C3415 C3414 1.363 . S
C3415 C3421 1.363 . S
C3416 C3417 1.363 . S
C3416 C3421 1.379 . S
C3416 N3423 1.356 . S
C3417 C3416 1.363 . S
C3417 C3420 1.363 . S
N3418 C3420 1.356 . S
N3418 H3430 0.984 . S
N3418 H3431 0.985 . S
N3419 C3421 1.356 . S
N3419 H3424 0.984 . S
N3419 H3425 0.985 . S
C3420 C3414 1.379 . S
C3420 C3417 1.363 . S
C3420 N3418 1.356 . S
C3421 C3415 1.363 . S
C3421 C3416 1.379 . S
C3421 N3419 1.356 . S
N3422 C3414 1.356 . S
N3422 H3428 0.984 . S
N3422 H3429 0.984 . S
N3423 C3416 1.356 . S
N3423 H3426 0.984 . S
N3423 H3427 0.985 . S
H3424 N3419 0.984 . S
H3425 N3419 0.985 . S
H3426 N3423 0.984 . S
H3427 N3423 0.985 . S
H3428 N3422 0.984 . S
H3429 N3422 0.984 . S
H3430 N3418 0.984 . S
H3431 N3418 0.985 . S
C3432 C3433 1.363 . S
C3432 C3438 1.379 . S
C3432 N3440 1.356 . S
C3433 C3432 1.363 . S
C3433 C3439 1.363 . S
C3434 C3435 1.363 . S
C3434 C3439 1.379 . S
C3434 N3441 1.356 . S
C3435 C3434 1.363 . S
C3435 C3438 1.363 . S
N3436 C3438 1.356 . S
N3436 H3448 0.984 . S
N3436 H3449 0.985 . S
N3437 C3439 1.356 . S
N3437 H3442 0.984 . S
N3437 H3443 0.985 . S
C3438 C3432 1.379 . S
C3438 C3435 1.363 . S
C3438 N3436 1.356 . S
C3439 C3433 1.363 . S
C3439 C3434 1.379 . S
C3439 N3437 1.356 . S
N3440 C3432 1.356 . S
N3440 H3446 0.984 . S
N3440 H3447 0.984 . S
N3441 C3434 1.356 . S
N3441 H3444 0.984 . S
N3441 H3445 0.985 . S
H3442 N3437 0.984 . S
H3443 N3437 0.985 . S
H3444 N3441 0.984 . S
H3445 N3441 0.985 . S
H3446 N3440 0.984 . S
H3447 N3440 0.984 . S
H3448 N3436 0.984 . S
H3449 N3436 0.985 . S
C3450 C3451 1.363 . S
C3450 C3456 1.379 . S
C3450 N3458 1.356 . S
C3451 C3450 1.363 . S
C3451 C3457 1.363 . S
C3452 C3453 1.363 . S
C3452 C3457 1.379 . S
C3452 N3459 1.356 . S
C3453 C3452 1.363 . S
C3453 C3456 1.363 . S
N3454 C3456 1.356 . S
N3454 H3466 0.984 . S
N3454 H3467 0.985 . S
N3455 C3457 1.356 . S
N3455 H3460 0.984 . S
N3455 H3461 0.985 . S
C3456 C3450 1.379 . S
C3456 C3453 1.363 . S
C3456 N3454 1.356 . S
C3457 C3451 1.363 . S
C3457 C3452 1.379 . S
C3457 N3455 1.356 . S
N3458 C3450 1.356 . S
N3458 H3464 0.984 . S
N3458 H3465 0.984 . S
N3459 C3452 1.356 . S
N3459 H3462 0.984 . S
N3459 H3463 0.985 . S
H3460 N3455 0.984 . S
H3461 N3455 0.985 . S
H3462 N3459 0.984 . S
H3463 N3459 0.985 . S
H3464 N3458 0.984 . S
H3465 N3458 0.984 . S
H3466 N3454 0.984 . S
H3467 N3454 0.985 . S
C3468 C3469 1.363 . S
C3468 C3474 1.379 . S
C3468 N3476 1.356 . S
C3469 C3468 1.363 . S
C3469 C3475 1.363 . S
C3470 C3471 1.363 . S
C3470 C3475 1.379 . S
C3470 N3477 1.356 . S
C3471 C3470 1.363 . S
C3471 C3474 1.363 . S
N3472 C3474 1.356 . S
N3472 H3484 0.984 . S
N3472 H3485 0.985 . S
N3473 C3475 1.356 . S
N3473 H3478 0.984 . S
N3473 H3479 0.985 . S
C3474 C3468 1.379 . S
C3474 C3471 1.363 . S
C3474 N3472 1.356 . S
C3475 C3469 1.363 . S
C3475 C3470 1.379 . S
C3475 N3473 1.356 . S
N3476 C3468 1.356 . S
N3476 H3482 0.984 . S
N3476 H3483 0.984 . S
N3477 C3470 1.356 . S
N3477 H3480 0.984 . S
N3477 H3481 0.985 . S
H3478 N3473 0.984 . S
H3479 N3473 0.985 . S
H3480 N3477 0.984 . S
H3481 N3477 0.985 . S
H3482 N3476 0.984 . S
H3483 N3476 0.984 . S
H3484 N3472 0.984 . S
H3485 N3472 0.985 . S
C3486 C3487 1.363 . S
C3486 C3492 1.379 . S
C3486 N3494 1.356 . S
C3487 C3486 1.363 . S
C3487 C3493 1.363 . S
C3488 C3489 1.363 . S
C3488 C3493 1.379 . S
C3488 N3495 1.356 . S
C3489 C3488 1.363 . S
C3489 C3492 1.363 . S
N3490 C3492 1.356 . S
N3490 H3502 0.984 . S
N3490 H3503 0.985 . S
N3491 C3493 1.356 . S
N3491 H3496 0.984 . S
N3491 H3497 0.985 . S
C3492 C3486 1.379 . S
C3492 C3489 1.363 . S
C3492 N3490 1.356 . S
C3493 C3487 1.363 . S
C3493 C3488 1.379 . S
C3493 N3491 1.356 . S
N3494 C3486 1.356 . S
N3494 H3500 0.984 . S
N3494 H3501 0.984 . S
N3495 C3488 1.356 . S
N3495 H3498 0.984 . S
N3495 H3499 0.985 . S
H3496 N3491 0.984 . S
H3497 N3491 0.985 . S
H3498 N3495 0.984 . S
H3499 N3495 0.985 . S
H3500 N3494 0.984 . S
H3501 N3494 0.984 . S
H3502 N3490 0.984 . S
H3503 N3490 0.985 . S
C3504 C3505 1.363 . S
C3504 C3510 1.379 . S
C3504 N3512 1.356 . S
C3505 C3504 1.363 . S
C3505 C3511 1.363 . S
C3506 C3507 1.363 . S
C3506 C3511 1.379 . S
C3506 N3513 1.356 . S
C3507 C3506 1.363 . S
C3507 C3510 1.363 . S
N3508 C3510 1.356 . S
N3508 H3520 0.984 . S
N3508 H3521 0.985 . S
N3509 C3511 1.356 . S
N3509 H3514 0.984 . S
N3509 H3515 0.985 . S
C3510 C3504 1.379 . S
C3510 C3507 1.363 . S
C3510 N3508 1.356 . S
C3511 C3505 1.363 . S
C3511 C3506 1.379 . S
C3511 N3509 1.356 . S
N3512 C3504 1.356 . S
N3512 H3518 0.984 . S
N3512 H3519 0.984 . S
N3513 C3506 1.356 . S
N3513 H3516 0.984 . S
N3513 H3517 0.985 . S
H3514 N3509 0.984 . S
H3515 N3509 0.985 . S
H3516 N3513 0.984 . S
H3517 N3513 0.985 . S
H3518 N3512 0.984 . S
H3519 N3512 0.984 . S
H3520 N3508 0.984 . S
H3521 N3508 0.985 . S
C3522 C3523 1.363 . S
C3522 C3528 1.379 . S
C3522 N3530 1.356 . S
C3523 C3522 1.363 . S
C3523 C3529 1.363 . S
C3524 C3525 1.363 . S
C3524 C3529 1.379 . S
C3524 N3531 1.356 . S
C3525 C3524 1.363 . S
C3525 C3528 1.363 . S
N3526 C3528 1.356 . S
N3526 H3538 0.984 . S
N3526 H3539 0.985 . S
N3527 C3529 1.356 . S
N3527 H3532 0.984 . S
N3527 H3533 0.985 . S
C3528 C3522 1.379 . S
C3528 C3525 1.363 . S
C3528 N3526 1.356 . S
C3529 C3523 1.363 . S
C3529 C3524 1.379 . S
C3529 N3527 1.356 . S
N3530 C3522 1.356 . S
N3530 H3536 0.984 . S
N3530 H3537 0.984 . S
N3531 C3524 1.356 . S
N3531 H3534 0.984 . S
N3531 H3535 0.985 . S
H3532 N3527 0.984 . S
H3533 N3527 0.985 . S
H3534 N3531 0.984 . S
H3535 N3531 0.985 . S
H3536 N3530 0.984 . S
H3537 N3530 0.984 . S
H3538 N3526 0.984 . S
H3539 N3526 0.985 . S
C3540 C3541 1.363 . S
C3540 C3546 1.379 . S
C3540 N3548 1.356 . S
C3541 C3540 1.363 . S
C3541 C3547 1.363 . S
C3542 C3543 1.363 . S
C3542 C3547 1.379 . S
C3542 N3549 1.356 . S
C3543 C3542 1.363 . S
C3543 C3546 1.363 . S
N3544 C3546 1.356 . S
N3544 H3556 0.984 . S
N3544 H3557 0.985 . S
N3545 C3547 1.356 . S
N3545 H3550 0.984 . S
N3545 H3551 0.985 . S
C3546 C3540 1.379 . S
C3546 C3543 1.363 . S
C3546 N3544 1.356 . S
C3547 C3541 1.363 . S
C3547 C3542 1.379 . S
C3547 N3545 1.356 . S
N3548 C3540 1.356 . S
N3548 H3554 0.984 . S
N3548 H3555 0.984 . S
N3549 C3542 1.356 . S
N3549 H3552 0.984 . S
N3549 H3553 0.985 . S
H3550 N3545 0.984 . S
H3551 N3545 0.985 . S
H3552 N3549 0.984 . S
H3553 N3549 0.985 . S
H3554 N3548 0.984 . S
H3555 N3548 0.984 . S
H3556 N3544 0.984 . S
H3557 N3544 0.985 . S
C3558 C3559 1.363 . S
C3558 C3564 1.379 . S
C3558 N3566 1.356 . S
C3559 C3558 1.363 . S
C3559 C3565 1.363 . S
C3560 C3561 1.363 . S
C3560 C3565 1.379 . S
C3560 N3567 1.356 . S
C3561 C3560 1.363 . S
C3561 C3564 1.363 . S
N3562 C3564 1.356 . S
N3562 H3574 0.984 . S
N3562 H3575 0.985 . S
N3563 C3565 1.356 . S
N3563 H3568 0.984 . S
N3563 H3569 0.985 . S
C3564 C3558 1.379 . S
C3564 C3561 1.363 . S
C3564 N3562 1.356 . S
C3565 C3559 1.363 . S
C3565 C3560 1.379 . S
C3565 N3563 1.356 . S
N3566 C3558 1.356 . S
N3566 H3572 0.984 . S
N3566 H3573 0.984 . S
N3567 C3560 1.356 . S
N3567 H3570 0.984 . S
N3567 H3571 0.985 . S
H3568 N3563 0.984 . S
H3569 N3563 0.985 . S
H3570 N3567 0.984 . S
H3571 N3567 0.985 . S
H3572 N3566 0.984 . S
H3573 N3566 0.984 . S
H3574 N3562 0.984 . S
H3575 N3562 0.985 . S
C3576 C3577 1.363 . S
C3576 C3582 1.379 . S
C3576 N3584 1.356 . S
C3577 C3576 1.363 . S
C3577 C3583 1.363 . S
C3578 C3579 1.363 . S
C3578 C3583 1.379 . S
C3578 N3585 1.356 . S
C3579 C3578 1.363 . S
C3579 C3582 1.363 . S
N3580 C3582 1.356 . S
N3580 H3592 0.984 . S
N3580 H3593 0.985 . S
N3581 C3583 1.356 . S
N3581 H3586 0.984 . S
N3581 H3587 0.985 . S
C3582 C3576 1.379 . S
C3582 C3579 1.363 . S
C3582 N3580 1.356 . S
C3583 C3577 1.363 . S
C3583 C3578 1.379 . S
C3583 N3581 1.356 . S
N3584 C3576 1.356 . S
N3584 H3590 0.984 . S
N3584 H3591 0.984 . S
N3585 C3578 1.356 . S
N3585 H3588 0.984 . S
N3585 H3589 0.985 . S
H3586 N3581 0.984 . S
H3587 N3581 0.985 . S
H3588 N3585 0.984 . S
H3589 N3585 0.985 . S
H3590 N3584 0.984 . S
H3591 N3584 0.984 . S
H3592 N3580 0.984 . S
H3593 N3580 0.985 . S
C3594 C3595 1.363 . S
C3594 C3600 1.379 . S
C3594 N3602 1.356 . S
C3595 C3594 1.363 . S
C3595 C3601 1.363 . S
C3596 C3597 1.363 . S
C3596 C3601 1.379 . S
C3596 N3603 1.356 . S
C3597 C3596 1.363 . S
C3597 C3600 1.363 . S
N3598 C3600 1.356 . S
N3598 H3610 0.984 . S
N3598 H3611 0.985 . S
N3599 C3601 1.356 . S
N3599 H3604 0.984 . S
N3599 H3605 0.985 . S
C3600 C3594 1.379 . S
C3600 C3597 1.363 . S
C3600 N3598 1.356 . S
C3601 C3595 1.363 . S
C3601 C3596 1.379 . S
C3601 N3599 1.356 . S
N3602 C3594 1.356 . S
N3602 H3608 0.984 . S
N3602 H3609 0.984 . S
N3603 C3596 1.356 . S
N3603 H3606 0.984 . S
N3603 H3607 0.985 . S
H3604 N3599 0.984 . S
H3605 N3599 0.985 . S
H3606 N3603 0.984 . S
H3607 N3603 0.985 . S
H3608 N3602 0.984 . S
H3609 N3602 0.984 . S
H3610 N3598 0.984 . S
H3611 N3598 0.985 . S
C3612 C3613 1.363 . S
C3612 C3618 1.379 . S
C3612 N3620 1.356 . S
C3613 C3612 1.363 . S
C3613 C3619 1.363 . S
C3614 C3615 1.363 . S
C3614 C3619 1.379 . S
C3614 N3621 1.356 . S
C3615 C3614 1.363 . S
C3615 C3618 1.363 . S
N3616 C3618 1.356 . S
N3616 H3628 0.984 . S
N3616 H3629 0.985 . S
N3617 C3619 1.356 . S
N3617 H3622 0.984 . S
N3617 H3623 0.985 . S
C3618 C3612 1.379 . S
C3618 C3615 1.363 . S
C3618 N3616 1.356 . S
C3619 C3613 1.363 . S
C3619 C3614 1.379 . S
C3619 N3617 1.356 . S
N3620 C3612 1.356 . S
N3620 H3626 0.984 . S
N3620 H3627 0.984 . S
N3621 C3614 1.356 . S
N3621 H3624 0.984 . S
N3621 H3625 0.985 . S
H3622 N3617 0.984 . S
H3623 N3617 0.985 . S
H3624 N3621 0.984 . S
H3625 N3621 0.985 . S
H3626 N3620 0.984 . S
H3627 N3620 0.984 . S
H3628 N3616 0.984 . S
H3629 N3616 0.985 . S
C3630 C3631 1.363 . S
C3630 C3636 1.379 . S
C3630 N3638 1.356 . S
C3631 C3630 1.363 . S
C3631 C3637 1.363 . S
C3632 C3633 1.363 . S
C3632 C3637 1.379 . S
C3632 N3639 1.356 . S
C3633 C3632 1.363 . S
C3633 C3636 1.363 . S
N3634 C3636 1.356 . S
N3634 H3646 0.984 . S
N3634 H3647 0.985 . S
N3635 C3637 1.356 . S
N3635 H3640 0.984 . S
N3635 H3641 0.985 . S
C3636 C3630 1.379 . S
C3636 C3633 1.363 . S
C3636 N3634 1.356 . S
C3637 C3631 1.363 . S
C3637 C3632 1.379 . S
C3637 N3635 1.356 . S
N3638 C3630 1.356 . S
N3638 H3644 0.984 . S
N3638 H3645 0.984 . S
N3639 C3632 1.356 . S
N3639 H3642 0.984 . S
N3639 H3643 0.985 . S
H3640 N3635 0.984 . S
H3641 N3635 0.985 . S
H3642 N3639 0.984 . S
H3643 N3639 0.985 . S
H3644 N3638 0.984 . S
H3645 N3638 0.984 . S
H3646 N3634 0.984 . S
H3647 N3634 0.985 . S
C3648 C3649 1.363 . S
C3648 C3654 1.379 . S
C3648 N3656 1.356 . S
C3649 C3648 1.363 . S
C3649 C3655 1.363 . S
C3650 C3651 1.363 . S
C3650 C3655 1.379 . S
C3650 N3657 1.356 . S
C3651 C3650 1.363 . S
C3651 C3654 1.363 . S
N3652 C3654 1.356 . S
N3652 H3664 0.984 . S
N3652 H3665 0.985 . S
N3653 C3655 1.356 . S
N3653 H3658 0.984 . S
N3653 H3659 0.985 . S
C3654 C3648 1.379 . S
C3654 C3651 1.363 . S
C3654 N3652 1.356 . S
C3655 C3649 1.363 . S
C3655 C3650 1.379 . S
C3655 N3653 1.356 . S
N3656 C3648 1.356 . S
N3656 H3662 0.984 . S
N3656 H3663 0.984 . S
N3657 C3650 1.356 . S
N3657 H3660 0.984 . S
N3657 H3661 0.985 . S
H3658 N3653 0.984 . S
H3659 N3653 0.985 . S
H3660 N3657 0.984 . S
H3661 N3657 0.985 . S
H3662 N3656 0.984 . S
H3663 N3656 0.984 . S
H3664 N3652 0.984 . S
H3665 N3652 0.985 . S
C3666 C3667 1.363 . S
C3666 C3672 1.379 . S
C3666 N3674 1.356 . S
C3667 C3666 1.363 . S
C3667 C3673 1.363 . S
C3668 C3669 1.363 . S
C3668 C3673 1.379 . S
C3668 N3675 1.356 . S
C3669 C3668 1.363 . S
C3669 C3672 1.363 . S
N3670 C3672 1.356 . S
N3670 H3682 0.984 . S
N3670 H3683 0.985 . S
N3671 C3673 1.356 . S
N3671 H3676 0.984 . S
N3671 H3677 0.985 . S
C3672 C3666 1.379 . S
C3672 C3669 1.363 . S
C3672 N3670 1.356 . S
C3673 C3667 1.363 . S
C3673 C3668 1.379 . S
C3673 N3671 1.356 . S
N3674 C3666 1.356 . S
N3674 H3680 0.984 . S
N3674 H3681 0.984 . S
N3675 C3668 1.356 . S
N3675 H3678 0.984 . S
N3675 H3679 0.985 . S
H3676 N3671 0.984 . S
H3677 N3671 0.985 . S
H3678 N3675 0.984 . S
H3679 N3675 0.985 . S
H3680 N3674 0.984 . S
H3681 N3674 0.984 . S
H3682 N3670 0.984 . S
H3683 N3670 0.985 . S
C3684 C3685 1.363 . S
C3684 C3690 1.379 . S
C3684 N3692 1.356 . S
C3685 C3684 1.363 . S
C3685 C3691 1.363 . S
C3686 C3687 1.363 . S
C3686 C3691 1.379 . S
C3686 N3693 1.356 . S
C3687 C3686 1.363 . S
C3687 C3690 1.363 . S
N3688 C3690 1.356 . S
N3688 H3700 0.984 . S
N3688 H3701 0.985 . S
N3689 C3691 1.356 . S
N3689 H3694 0.984 . S
N3689 H3695 0.985 . S
C3690 C3684 1.379 . S
C3690 C3687 1.363 . S
C3690 N3688 1.356 . S
C3691 C3685 1.363 . S
C3691 C3686 1.379 . S
C3691 N3689 1.356 . S
N3692 C3684 1.356 . S
N3692 H3698 0.984 . S
N3692 H3699 0.984 . S
N3693 C3686 1.356 . S
N3693 H3696 0.984 . S
N3693 H3697 0.985 . S
H3694 N3689 0.984 . S
H3695 N3689 0.985 . S
H3696 N3693 0.984 . S
H3697 N3693 0.985 . S
H3698 N3692 0.984 . S
H3699 N3692 0.984 . S
H3700 N3688 0.984 . S
H3701 N3688 0.985 . S
C3702 C3703 1.363 . S
C3702 C3708 1.379 . S
C3702 N3710 1.356 . S
C3703 C3702 1.363 . S
C3703 C3709 1.363 . S
C3704 C3705 1.363 . S
C3704 C3709 1.379 . S
C3704 N3711 1.356 . S
C3705 C3704 1.363 . S
C3705 C3708 1.363 . S
N3706 C3708 1.356 . S
N3706 H3718 0.984 . S
N3706 H3719 0.985 . S
N3707 C3709 1.356 . S
N3707 H3712 0.984 . S
N3707 H3713 0.985 . S
C3708 C3702 1.379 . S
C3708 C3705 1.363 . S
C3708 N3706 1.356 . S
C3709 C3703 1.363 . S
C3709 C3704 1.379 . S
C3709 N3707 1.356 . S
N3710 C3702 1.356 . S
N3710 H3716 0.984 . S
N3710 H3717 0.984 . S
N3711 C3704 1.356 . S
N3711 H3714 0.984 . S
N3711 H3715 0.985 . S
H3712 N3707 0.984 . S
H3713 N3707 0.985 . S
H3714 N3711 0.984 . S
H3715 N3711 0.985 . S
H3716 N3710 0.984 . S
H3717 N3710 0.984 . S
H3718 N3706 0.984 . S
H3719 N3706 0.985 . S
C3720 C3721 1.363 . S
C3720 C3726 1.379 . S
C3720 N3728 1.356 . S
C3721 C3720 1.363 . S
C3721 C3727 1.363 . S
C3722 C3723 1.363 . S
C3722 C3727 1.379 . S
C3722 N3729 1.356 . S
C3723 C3722 1.363 . S
C3723 C3726 1.363 . S
N3724 C3726 1.356 . S
N3724 H3736 0.984 . S
N3724 H3737 0.985 . S
N3725 C3727 1.356 . S
N3725 H3730 0.984 . S
N3725 H3731 0.985 . S
C3726 C3720 1.379 . S
C3726 C3723 1.363 . S
C3726 N3724 1.356 . S
C3727 C3721 1.363 . S
C3727 C3722 1.379 . S
C3727 N3725 1.356 . S
N3728 C3720 1.356 . S
N3728 H3734 0.984 . S
N3728 H3735 0.984 . S
N3729 C3722 1.356 . S
N3729 H3732 0.984 . S
N3729 H3733 0.985 . S
H3730 N3725 0.984 . S
H3731 N3725 0.985 . S
H3732 N3729 0.984 . S
H3733 N3729 0.985 . S
H3734 N3728 0.984 . S
H3735 N3728 0.984 . S
H3736 N3724 0.984 . S
H3737 N3724 0.985 . S
C3738 C3739 1.363 . S
C3738 C3744 1.379 . S
C3738 N3746 1.356 . S
C3739 C3738 1.363 . S
C3739 C3745 1.363 . S
C3740 C3741 1.363 . S
C3740 C3745 1.379 . S
C3740 N3747 1.356 . S
C3741 C3740 1.363 . S
C3741 C3744 1.363 . S
N3742 C3744 1.356 . S
N3742 H3754 0.984 . S
N3742 H3755 0.985 . S
N3743 C3745 1.356 . S
N3743 H3748 0.984 . S
N3743 H3749 0.985 . S
C3744 C3738 1.379 . S
C3744 C3741 1.363 . S
C3744 N3742 1.356 . S
C3745 C3739 1.363 . S
C3745 C3740 1.379 . S
C3745 N3743 1.356 . S
N3746 C3738 1.356 . S
N3746 H3752 0.984 . S
N3746 H3753 0.984 . S
N3747 C3740 1.356 . S
N3747 H3750 0.984 . S
N3747 H3751 0.985 . S
H3748 N3743 0.984 . S
H3749 N3743 0.985 . S
H3750 N3747 0.984 . S
H3751 N3747 0.985 . S
H3752 N3746 0.984 . S
H3753 N3746 0.984 . S
H3754 N3742 0.984 . S
H3755 N3742 0.985 . S
C3756 C3757 1.363 . S
C3756 C3762 1.379 . S
C3756 N3764 1.356 . S
C3757 C3756 1.363 . S
C3757 C3763 1.363 . S
C3758 C3759 1.363 . S
C3758 C3763 1.379 . S
C3758 N3765 1.356 . S
C3759 C3758 1.363 . S
C3759 C3762 1.363 . S
N3760 C3762 1.356 . S
N3760 H3772 0.984 . S
N3760 H3773 0.985 . S
N3761 C3763 1.356 . S
N3761 H3766 0.984 . S
N3761 H3767 0.985 . S
C3762 C3756 1.379 . S
C3762 C3759 1.363 . S
C3762 N3760 1.356 . S
C3763 C3757 1.363 . S
C3763 C3758 1.379 . S
C3763 N3761 1.356 . S
N3764 C3756 1.356 . S
N3764 H3770 0.984 . S
N3764 H3771 0.984 . S
N3765 C3758 1.356 . S
N3765 H3768 0.984 . S
N3765 H3769 0.985 . S
H3766 N3761 0.984 . S
H3767 N3761 0.985 . S
H3768 N3765 0.984 . S
H3769 N3765 0.985 . S
H3770 N3764 0.984 . S
H3771 N3764 0.984 . S
H3772 N3760 0.984 . S
H3773 N3760 0.985 . S
C3774 C3775 1.363 . S
C3774 C3780 1.379 . S
C3774 N3782 1.356 . S
C3775 C3774 1.363 . S
C3775 C3781 1.363 . S
C3776 C3777 1.363 . S
C3776 C3781 1.379 . S
C3776 N3783 1.356 . S
C3777 C3776 1.363 . S
C3777 C3780 1.363 . S
N3778 C3780 1.356 . S
N3778 H3790 0.984 . S
N3778 H3791 0.985 . S
N3779 C3781 1.382 . S
N3779 H3784 0.971 1_556 S
N3779 H3785 0.972 1_556 S
C3780 C3774 1.379 . S
C3780 C3777 1.363 . S
C3780 N3778 1.356 . S
C3781 C3775 1.363 . S
C3781 C3776 1.379 . S
C3781 N3779 1.382 . S
N3782 C3774 1.356 . S
N3782 H3788 0.984 . S
N3782 H3789 0.984 . S
N3783 C3776 1.356 . S
N3783 H3786 0.984 . S
N3783 H3787 0.985 . S
H3784 N3779 0.971 1_554 S
H3785 N3779 0.972 1_554 S
H3786 N3783 0.984 . S
H3787 N3783 0.985 . S
H3788 N3782 0.984 . S
H3789 N3782 0.984 . S
H3790 N3778 0.984 . S
H3791 N3778 0.985 . S
C3792 C3793 1.363 . S
C3792 C3798 1.379 . S
C3792 N3800 1.356 . S
C3793 C3792 1.363 . S
C3793 C3799 1.363 . S
C3794 C3795 1.363 . S
C3794 C3799 1.379 . S
C3794 N3801 1.356 . S
C3795 C3794 1.363 . S
C3795 C3798 1.363 . S
N3796 C3798 1.356 . S
N3796 H3808 0.984 . S
N3796 H3809 0.985 . S
N3797 C3799 1.356 . S
N3797 H3802 0.984 1_565 S
N3797 H3803 0.985 . S
C3798 C3792 1.379 . S
C3798 C3795 1.363 . S
C3798 N3796 1.356 . S
C3799 C3793 1.363 . S
C3799 C3794 1.379 . S
C3799 N3797 1.356 . S
N3800 C3792 1.356 . S
N3800 H3806 0.984 . S
N3800 H3807 0.984 . S
N3801 C3794 1.356 . S
N3801 H3804 0.984 . S
N3801 H3805 0.985 . S
H3802 N3797 0.984 1_545 S
H3803 N3797 0.985 . S
H3804 N3801 0.984 . S
H3805 N3801 0.985 . S
H3806 N3800 0.984 . S
H3807 N3800 0.984 . S
H3808 N3796 0.984 . S
H3809 N3796 0.985 . S
C3810 C3811 1.363 . S
C3810 C3816 1.379 . S
C3810 N3818 1.356 . S
C3811 C3810 1.363 . S
C3811 C3817 1.363 . S
C3812 C3813 1.363 . S
C3812 C3817 1.379 . S
C3812 N3819 1.356 . S
C3813 C3812 1.363 . S
C3813 C3816 1.363 . S
N3814 C3816 1.356 . S
N3814 H3826 0.984 . S
N3814 H3827 0.985 . S
N3815 C3817 1.356 . S
N3815 H3820 0.984 . S
N3815 H3821 0.985 . S
C3816 C3810 1.379 . S
C3816 C3813 1.363 . S
C3816 N3814 1.356 . S
C3817 C3811 1.363 . S
C3817 C3812 1.379 . S
C3817 N3815 1.356 . S
N3818 C3810 1.356 . S
N3818 H3824 0.994 . S
N3818 H3825 0.984 1_545 S
N3819 C3812 1.356 . S
N3819 H3822 0.984 . S
N3819 H3823 0.985 . S
H3820 N3815 0.984 . S
H3821 N3815 0.985 . S
H3822 N3819 0.984 . S
H3823 N3819 0.985 . S
H3824 N3818 0.994 . S
H3825 N3818 0.984 1_565 S
H3826 N3814 0.984 . S
H3827 N3814 0.985 . S
C3828 C3829 1.363 . S
C3828 C3834 1.379 . S
C3828 N3836 1.356 . S
C3829 C3828 1.363 . S
C3829 C3835 1.363 . S
C3830 C3831 1.363 . S
C3830 C3835 1.379 . S
C3830 N3837 1.356 . S
C3831 C3830 1.363 . S
C3831 C3834 1.363 . S
N3832 C3834 1.356 . S
N3832 H3844 0.984 . S
N3832 H3845 0.985 . S
N3833 C3835 1.356 . S
N3833 H3838 0.984 . S
N3833 H3839 0.985 . S
C3834 C3828 1.379 . S
C3834 C3831 1.363 . S
C3834 N3832 1.356 . S
C3835 C3829 1.363 . S
C3835 C3830 1.379 . S
C3835 N3833 1.356 . S
N3836 C3828 1.356 . S
N3836 H3842 0.984 . S
N3836 H3843 0.984 . S
N3837 C3830 1.356 . S
N3837 H3840 0.984 . S
N3837 H3841 0.985 . S
H3838 N3833 0.984 . S
H3839 N3833 0.985 . S
H3840 N3837 0.984 . S
H3841 N3837 0.985 . S
H3842 N3836 0.984 . S
H3843 N3836 0.984 . S
H3844 N3832 0.984 . S
H3845 N3832 0.985 . S
C3846 C3847 1.363 . S
C3846 C3852 1.379 . S
C3846 N3854 1.356 . S
C3847 C3846 1.363 . S
C3847 C3853 1.363 . S
C3848 C3849 1.363 . S
C3848 C3853 1.379 . S
C3848 N3855 1.356 . S
C3849 C3848 1.363 . S
C3849 C3852 1.363 . S
N3850 C3852 1.356 . S
N3850 H3862 0.984 . S
N3850 H3863 0.985 . S
N3851 C3853 1.356 . S
N3851 H3856 0.984 . S
N3851 H3857 0.985 . S
C3852 C3846 1.379 . S
C3852 C3849 1.363 . S
C3852 N3850 1.356 . S
C3853 C3847 1.363 . S
C3853 C3848 1.379 . S
C3853 N3851 1.356 . S
N3854 C3846 1.356 . S
N3854 H3860 0.984 . S
N3854 H3861 0.984 . S
N3855 C3848 1.356 . S
N3855 H3858 0.987 . S
N3855 H3859 0.985 . S
H3856 N3851 0.984 . S
H3857 N3851 0.985 . S
H3858 N3855 0.987 . S
H3859 N3855 0.985 . S
H3860 N3854 0.984 . S
H3861 N3854 0.984 . S
H3862 N3850 0.984 . S
H3863 N3850 0.985 . S
C3864 C3865 1.363 . S
C3864 C3870 1.379 . S
C3864 N3872 1.356 . S
C3865 C3864 1.363 . S
C3865 C3871 1.363 . S
C3866 C3867 1.363 . S
C3866 C3871 1.379 . S
C3866 N3873 1.356 . S
C3867 C3866 1.363 . S
C3867 C3870 1.363 . S
N3868 C3870 1.356 . S
N3868 H3880 0.984 . S
N3868 H3881 0.985 . S
N3869 C3871 1.356 . S
N3869 H3874 0.984 . S
N3869 H3875 0.985 . S
C3870 C3864 1.379 . S
C3870 C3867 1.363 . S
C3870 N3868 1.356 . S
C3871 C3865 1.363 . S
C3871 C3866 1.379 . S
C3871 N3869 1.356 . S
N3872 C3864 1.356 . S
N3872 H3878 0.984 . S
N3872 H3879 0.984 . S
N3873 C3866 1.356 . S
N3873 H3876 0.984 . S
N3873 H3877 0.985 . S
H3874 N3869 0.984 . S
H3875 N3869 0.985 . S
H3876 N3873 0.984 . S
H3877 N3873 0.985 . S
H3878 N3872 0.984 . S
H3879 N3872 0.984 . S
H3880 N3868 0.984 . S
H3881 N3868 0.985 . S
C3882 C3883 1.363 . S
C3882 C3888 1.379 . S
C3882 N3890 1.356 . S
C3883 C3882 1.363 . S
C3883 C3889 1.363 . S
C3884 C3885 1.363 . S
C3884 C3889 1.379 . S
C3884 N3891 1.356 . S
C3885 C3884 1.363 . S
C3885 C3888 1.363 . S
N3886 C3888 1.356 . S
N3886 H3898 0.984 . S
N3886 H3899 0.985 . S
N3887 C3889 1.356 . S
N3887 H3892 0.984 . S
N3887 H3893 0.985 . S
C3888 C3882 1.379 . S
C3888 C3885 1.363 . S
C3888 N3886 1.356 . S
C3889 C3883 1.363 . S
C3889 C3884 1.379 . S
C3889 N3887 1.356 . S
N3890 C3882 1.356 . S
N3890 H3896 0.984 . S
N3890 H3897 0.984 . S
N3891 C3884 1.356 . S
N3891 H3894 0.984 . S
N3891 H3895 0.985 . S
H3892 N3887 0.984 . S
H3893 N3887 0.985 . S
H3894 N3891 0.984 . S
H3895 N3891 0.985 . S
H3896 N3890 0.984 . S
H3897 N3890 0.984 . S
H3898 N3886 0.984 . S
H3899 N3886 0.985 . S
C3900 C3901 1.363 . S
C3900 C3906 1.379 . S
C3900 N3908 1.356 . S
C3901 C3900 1.363 . S
C3901 C3907 1.363 . S
C3902 C3903 1.363 . S
C3902 C3907 1.379 . S
C3902 N3909 1.356 . S
C3903 C3902 1.363 . S
C3903 C3906 1.363 . S
N3904 C3906 1.356 . S
N3904 H3916 0.984 . S
N3904 H3917 0.985 . S
N3905 C3907 1.356 . S
N3905 H3910 0.984 . S
N3905 H3911 0.985 . S
C3906 C3900 1.379 . S
C3906 C3903 1.363 . S
C3906 N3904 1.356 . S
C3907 C3901 1.363 . S
C3907 C3902 1.379 . S
C3907 N3905 1.356 . S
N3908 C3900 1.356 . S
N3908 H3914 0.984 . S
N3908 H3915 0.984 . S
N3909 C3902 1.356 . S
N3909 H3912 0.984 . S
N3909 H3913 0.985 . S
H3910 N3905 0.984 . S
H3911 N3905 0.985 . S
H3912 N3909 0.984 . S
H3913 N3909 0.985 . S
H3914 N3908 0.984 . S
H3915 N3908 0.984 . S
H3916 N3904 0.984 . S
H3917 N3904 0.985 . S
C3918 C3919 1.363 . S
C3918 C3924 1.379 . S
C3918 N3926 1.356 . S
C3919 C3918 1.363 . S
C3919 C3925 1.363 . S
C3920 C3921 1.363 . S
C3920 C3925 1.379 . S
C3920 N3927 1.356 . S
C3921 C3920 1.363 . S
C3921 C3924 1.363 . S
N3922 C3924 1.356 . S
N3922 H3934 0.984 . S
N3922 H3935 0.985 . S
N3923 C3925 1.356 . S
N3923 H3928 0.984 . S
N3923 H3929 0.985 . S
C3924 C3918 1.379 . S
C3924 C3921 1.363 . S
C3924 N3922 1.356 . S
C3925 C3919 1.363 . S
C3925 C3920 1.379 . S
C3925 N3923 1.356 . S
N3926 C3918 1.356 . S
N3926 H3932 0.984 . S
N3926 H3933 0.984 . S
N3927 C3920 1.356 . S
N3927 H3930 0.984 . S
N3927 H3931 0.985 . S
H3928 N3923 0.984 . S
H3929 N3923 0.985 . S
H3930 N3927 0.984 . S
H3931 N3927 0.985 . S
H3932 N3926 0.984 . S
H3933 N3926 0.984 . S
H3934 N3922 0.984 . S
H3935 N3922 0.985 . S
C3936 C3937 1.363 . S
C3936 C3942 1.379 . S
C3936 N3944 1.356 . S
C3937 C3936 1.363 . S
C3937 C3943 1.363 . S
C3938 C3939 1.363 . S
C3938 C3943 1.379 . S
C3938 N3945 1.356 . S
C3939 C3938 1.363 . S
C3939 C3942 1.363 . S
N3940 C3942 1.356 . S
N3940 H3952 0.984 . S
N3940 H3953 0.985 . S
N3941 C3943 1.356 . S
N3941 H3946 0.984 . S
N3941 H3947 0.985 . S
C3942 C3936 1.379 . S
C3942 C3939 1.363 . S
C3942 N3940 1.356 . S
C3943 C3937 1.363 . S
C3943 C3938 1.379 . S
C3943 N3941 1.356 . S
N3944 C3936 1.356 . S
N3944 H3950 0.984 . S
N3944 H3951 0.984 . S
N3945 C3938 1.356 . S
N3945 H3948 0.984 . S
N3945 H3949 0.985 . S
H3946 N3941 0.984 . S
H3947 N3941 0.985 . S
H3948 N3945 0.984 . S
H3949 N3945 0.985 . S
H3950 N3944 0.984 . S
H3951 N3944 0.984 . S
H3952 N3940 0.984 . S
H3953 N3940 0.985 . S
C3954 C3955 1.363 . S
C3954 C3960 1.379 . S
C3954 N3962 1.356 . S
C3955 C3954 1.363 . S
C3955 C3961 1.363 . S
C3956 C3957 1.363 . S
C3956 C3961 1.379 . S
C3956 N3963 1.356 . S
C3957 C3956 1.363 . S
C3957 C3960 1.363 . S
N3958 C3960 1.356 . S
N3958 H3970 0.984 . S
N3958 H3971 0.985 . S
N3959 C3961 1.356 . S
N3959 H3964 0.984 . S
N3959 H3965 0.985 . S
C3960 C3954 1.379 . S
C3960 C3957 1.363 . S
C3960 N3958 1.356 . S
C3961 C3955 1.363 . S
C3961 C3956 1.379 . S
C3961 N3959 1.356 . S
N3962 C3954 1.356 . S
N3962 H3968 0.984 . S
N3962 H3969 0.984 . S
N3963 C3956 1.356 . S
N3963 H3966 0.984 . S
N3963 H3967 0.985 . S
H3964 N3959 0.984 . S
H3965 N3959 0.985 . S
H3966 N3963 0.984 . S
H3967 N3963 0.985 . S
H3968 N3962 0.984 . S
H3969 N3962 0.984 . S
H3970 N3958 0.984 . S
H3971 N3958 0.985 . S
C3972 C3973 1.363 . S
C3972 C3978 1.379 . S
C3972 N3980 1.356 . S
C3973 C3972 1.363 . S
C3973 C3979 1.363 . S
C3974 C3975 1.363 . S
C3974 C3979 1.379 . S
C3974 N3981 1.356 . S
C3975 C3974 1.363 . S
C3975 C3978 1.363 . S
N3976 C3978 1.356 . S
N3976 H3988 0.984 . S
N3976 H3989 0.985 . S
N3977 C3979 1.356 . S
N3977 H3982 0.984 . S
N3977 H3983 0.985 . S
C3978 C3972 1.379 . S
C3978 C3975 1.363 . S
C3978 N3976 1.356 . S
C3979 C3973 1.363 . S
C3979 C3974 1.379 . S
C3979 N3977 1.356 . S
N3980 C3972 1.356 . S
N3980 H3986 0.984 . S
N3980 H3987 0.984 . S
N3981 C3974 1.356 . S
N3981 H3984 0.984 . S
N3981 H3985 0.985 . S
H3982 N3977 0.984 . S
H3983 N3977 0.985 . S
H3984 N3981 0.984 . S
H3985 N3981 0.985 . S
H3986 N3980 0.984 . S
H3987 N3980 0.984 . S
H3988 N3976 0.984 . S
H3989 N3976 0.985 . S
C3990 C3991 1.363 . S
C3990 C3996 1.379 . S
C3990 N3998 1.356 . S
C3991 C3990 1.363 . S
C3991 C3997 1.363 . S
C3992 C3993 1.363 . S
C3992 C3997 1.379 . S
C3992 N3999 1.356 . S
C3993 C3992 1.363 . S
C3993 C3996 1.363 . S
N3994 C3996 1.356 . S
N3994 H4006 0.984 . S
N3994 H4007 0.985 . S
N3995 C3997 1.356 . S
N3995 H4000 0.984 . S
N3995 H4001 0.985 . S
C3996 C3990 1.379 . S
C3996 C3993 1.363 . S
C3996 N3994 1.356 . S
C3997 C3991 1.363 . S
C3997 C3992 1.379 . S
C3997 N3995 1.356 . S
N3998 C3990 1.356 . S
N3998 H4004 0.984 . S
N3998 H4005 0.984 . S
N3999 C3992 1.356 . S
N3999 H4002 0.984 . S
N3999 H4003 0.985 . S
H4000 N3995 0.984 . S
H4001 N3995 0.985 . S
H4002 N3999 0.984 . S
H4003 N3999 0.985 . S
H4004 N3998 0.984 . S
H4005 N3998 0.984 . S
H4006 N3994 0.984 . S
H4007 N3994 0.985 . S
C4008 C4009 1.363 . S
C4008 C4014 1.379 . S
C4008 N4016 1.356 . S
C4009 C4008 1.363 . S
C4009 C4015 1.363 . S
C4010 C4011 1.363 . S
C4010 C4015 1.379 . S
C4010 N4017 1.356 . S
C4011 C4010 1.363 . S
C4011 C4014 1.363 . S
N4012 C4014 1.356 . S
N4012 H4024 0.984 . S
N4012 H4025 0.985 . S
N4013 C4015 1.356 . S
N4013 H4018 0.984 . S
N4013 H4019 0.985 . S
C4014 C4008 1.379 . S
C4014 C4011 1.363 . S
C4014 N4012 1.356 . S
C4015 C4009 1.363 . S
C4015 C4010 1.379 . S
C4015 N4013 1.356 . S
N4016 C4008 1.356 . S
N4016 H4022 0.984 . S
N4016 H4023 0.984 . S
N4017 C4010 1.356 . S
N4017 H4020 0.984 . S
N4017 H4021 0.985 . S
H4018 N4013 0.984 . S
H4019 N4013 0.985 . S
H4020 N4017 0.984 . S
H4021 N4017 0.985 . S
H4022 N4016 0.984 . S
H4023 N4016 0.984 . S
H4024 N4012 0.984 . S
H4025 N4012 0.985 . S
C4026 C4027 1.363 . S
C4026 C4032 1.379 . S
C4026 N4034 1.356 . S
C4027 C4026 1.363 . S
C4027 C4033 1.363 . S
C4028 C4029 1.363 . S
C4028 C4033 1.379 . S
C4028 N4035 1.356 . S
C4029 C4028 1.363 . S
C4029 C4032 1.363 . S
N4030 C4032 1.356 . S
N4030 H4042 0.984 . S
N4030 H4043 0.985 . S
N4031 C4033 1.356 . S
N4031 H4036 0.984 . S
N4031 H4037 0.985 . S
C4032 C4026 1.379 . S
C4032 C4029 1.363 . S
C4032 N4030 1.356 . S
C4033 C4027 1.363 . S
C4033 C4028 1.379 . S
C4033 N4031 1.356 . S
N4034 C4026 1.356 . S
N4034 H4040 0.984 . S
N4034 H4041 0.984 . S
N4035 C4028 1.356 . S
N4035 H4038 0.984 . S
N4035 H4039 0.985 . S
H4036 N4031 0.984 . S
H4037 N4031 0.985 . S
H4038 N4035 0.984 . S
H4039 N4035 0.985 . S
H4040 N4034 0.984 . S
H4041 N4034 0.984 . S
H4042 N4030 0.984 . S
H4043 N4030 0.985 . S
C4044 C4045 1.363 . S
C4044 C4050 1.379 . S
C4044 N4052 1.356 . S
C4045 C4044 1.363 . S
C4045 C4051 1.363 . S
C4046 C4047 1.363 . S
C4046 C4051 1.379 . S
C4046 N4053 1.356 . S
C4047 C4046 1.363 . S
C4047 C4050 1.363 . S
N4048 C4050 1.356 . S
N4048 H4060 0.984 . S
N4048 H4061 0.985 . S
N4049 C4051 1.356 . S
N4049 H4054 0.984 . S
N4049 H4055 0.985 . S
C4050 C4044 1.379 . S
C4050 C4047 1.363 . S
C4050 N4048 1.356 . S
C4051 C4045 1.363 . S
C4051 C4046 1.379 . S
C4051 N4049 1.356 . S
N4052 C4044 1.356 . S
N4052 H4058 0.984 . S
N4052 H4059 0.984 . S
N4053 C4046 1.356 . S
N4053 H4056 0.984 . S
N4053 H4057 0.985 . S
H4054 N4049 0.984 . S
H4055 N4049 0.985 . S
H4056 N4053 0.984 . S
H4057 N4053 0.985 . S
H4058 N4052 0.984 . S
H4059 N4052 0.984 . S
H4060 N4048 0.984 . S
H4061 N4048 0.985 . S
C4062 C4063 1.363 . S
C4062 C4068 1.379 . S
C4062 N4070 1.356 . S
C4063 C4062 1.363 . S
C4063 C4069 1.363 . S
C4064 C4065 1.363 . S
C4064 C4069 1.379 . S
C4064 N4071 1.356 . S
C4065 C4064 1.363 . S
C4065 C4068 1.363 . S
N4066 C4068 1.356 . S
N4066 H4078 0.984 . S
N4066 H4079 0.985 . S
N4067 C4069 1.356 . S
N4067 H4072 0.984 . S
N4067 H4073 0.985 . S
C4068 C4062 1.379 . S
C4068 C4065 1.363 . S
C4068 N4066 1.356 . S
C4069 C4063 1.363 . S
C4069 C4064 1.379 . S
C4069 N4067 1.356 . S
N4070 C4062 1.356 . S
N4070 H4076 0.984 . S
N4070 H4077 0.984 . S
N4071 C4064 1.356 . S
N4071 H4074 0.984 . S
N4071 H4075 0.985 . S
H4072 N4067 0.984 . S
H4073 N4067 0.985 . S
H4074 N4071 0.984 . S
H4075 N4071 0.985 . S
H4076 N4070 0.984 . S
H4077 N4070 0.984 . S
H4078 N4066 0.984 . S
H4079 N4066 0.985 . S
C4080 C4081 1.363 . S
C4080 C4086 1.379 . S
C4080 N4088 1.356 . S
C4081 C4080 1.363 . S
C4081 C4087 1.363 . S
C4082 C4083 1.363 . S
C4082 C4087 1.379 . S
C4082 N4089 1.356 . S
C4083 C4082 1.363 . S
C4083 C4086 1.363 . S
N4084 C4086 1.356 . S
N4084 H4096 0.984 1_554 S
N4084 H4097 0.985 1_554 S
N4085 C4087 1.356 . S
N4085 H4090 0.984 . S
N4085 H4091 0.985 . S
C4086 C4080 1.379 . S
C4086 C4083 1.363 . S
C4086 N4084 1.356 . S
C4087 C4081 1.363 . S
C4087 C4082 1.379 . S
C4087 N4085 1.356 . S
N4088 C4080 1.356 . S
N4088 H4094 0.984 . S
N4088 H4095 0.984 . S
N4089 C4082 1.356 . S
N4089 H4092 0.984 . S
N4089 H4093 0.985 . S
H4090 N4085 0.984 . S
H4091 N4085 0.985 . S
H4092 N4089 0.984 . S
H4093 N4089 0.985 . S
H4094 N4088 0.984 . S
H4095 N4088 0.984 . S
H4096 N4084 0.984 1_556 S
H4097 N4084 0.985 1_556 S
C4098 C4099 1.363 . S
C4098 C4104 1.379 . S
C4098 N4106 1.356 . S
C4099 C4098 1.363 . S
C4099 C4105 1.363 . S
C4100 C4101 1.363 . S
C4100 C4105 1.379 . S
C4100 N4107 1.356 . S
C4101 C4100 1.363 . S
C4101 C4104 1.363 . S
N4102 C4104 1.356 . S
N4102 H4114 0.984 . S
N4102 H4115 0.985 . S
N4103 C4105 1.356 . S
N4103 H4108 0.984 . S
N4103 H4109 0.985 . S
C4104 C4098 1.379 . S
C4104 C4101 1.363 . S
C4104 N4102 1.356 . S
C4105 C4099 1.363 . S
C4105 C4100 1.379 . S
C4105 N4103 1.356 . S
N4106 C4098 1.356 . S
N4106 H4112 0.984 . S
N4106 H4113 0.984 . S
N4107 C4100 1.356 . S
N4107 H4110 0.961 1_545 S
N4107 H4111 0.985 . S
H4108 N4103 0.984 . S
H4109 N4103 0.985 . S
H4110 N4107 0.961 1_565 S
H4111 N4107 0.985 . S
H4112 N4106 0.984 . S
H4113 N4106 0.984 . S
H4114 N4102 0.984 . S
H4115 N4102 0.985 . S
C4116 C4117 1.363 . S
C4116 C4122 1.379 . S
C4116 N4124 1.356 . S
C4117 C4116 1.363 . S
C4117 C4123 1.363 . S
C4118 C4119 1.363 . S
C4118 C4123 1.379 . S
C4118 N4125 1.356 . S
C4119 C4118 1.363 . S
C4119 C4122 1.363 . S
N4120 C4122 1.356 . S
N4120 H4132 0.984 . S
N4120 H4133 0.985 . S
N4121 C4123 1.356 . S
N4121 H4126 0.984 1_565 S
N4121 H4127 0.985 1_565 S
C4122 C4116 1.379 . S
C4122 C4119 1.363 . S
C4122 N4120 1.356 . S
C4123 C4117 1.363 . S
C4123 C4118 1.379 . S
C4123 N4121 1.356 . S
N4124 C4116 1.356 . S
N4124 H4130 0.984 . S
N4124 H4131 0.984 . S
N4125 C4118 1.356 . S
N4125 H4128 0.984 . S
N4125 H4129 0.985 . S
H4126 N4121 0.984 1_545 S
H4127 N4121 0.985 1_545 S
H4128 N4125 0.984 . S
H4129 N4125 0.985 . S
H4130 N4124 0.984 . S
H4131 N4124 0.984 . S
H4132 N4120 0.984 . S
H4133 N4120 0.985 . S
C4134 C4135 1.363 . S
C4134 C4140 1.379 . S
C4134 N4142 1.356 . S
C4135 C4134 1.363 . S
C4135 C4141 1.363 . S
C4136 C4137 1.363 . S
C4136 C4141 1.379 . S
C4136 N4143 1.356 . S
C4137 C4136 1.363 . S
C4137 C4140 1.363 . S
N4138 C4140 1.356 . S
N4138 H4150 0.984 . S
N4138 H4151 0.985 . S
N4139 C4141 1.356 . S
N4139 H4144 0.984 . S
N4139 H4145 0.985 . S
C4140 C4134 1.379 . S
C4140 C4137 1.363 . S
C4140 N4138 1.356 . S
C4141 C4135 1.363 . S
C4141 C4136 1.379 . S
C4141 N4139 1.356 . S
N4142 C4134 1.356 . S
N4142 H4148 0.984 . S
N4142 H4149 0.984 . S
N4143 C4136 1.356 . S
N4143 H4146 0.984 . S
N4143 H4147 0.985 . S
H4144 N4139 0.984 . S
H4145 N4139 0.985 . S
H4146 N4143 0.984 . S
H4147 N4143 0.985 . S
H4148 N4142 0.984 . S
H4149 N4142 0.984 . S
H4150 N4138 0.984 . S
H4151 N4138 0.985 . S
C4152 C4153 1.363 . S
C4152 C4158 1.379 . S
C4152 N4160 1.356 . S
C4153 C4152 1.363 . S
C4153 C4159 1.363 . S
C4154 C4155 1.363 . S
C4154 C4159 1.379 . S
C4154 N4161 1.356 . S
C4155 C4154 1.363 . S
C4155 C4158 1.363 . S
N4156 C4158 1.356 . S
N4156 H4168 0.984 . S
N4156 H4169 0.985 . S
N4157 C4159 1.356 . S
N4157 H4162 0.984 . S
N4157 H4163 0.985 . S
C4158 C4152 1.379 . S
C4158 C4155 1.363 . S
C4158 N4156 1.356 . S
C4159 C4153 1.363 . S
C4159 C4154 1.379 . S
C4159 N4157 1.356 . S
N4160 C4152 1.356 . S
N4160 H4166 0.984 . S
N4160 H4167 0.984 . S
N4161 C4154 1.356 . S
N4161 H4164 0.984 . S
N4161 H4165 0.985 . S
H4162 N4157 0.984 . S
H4163 N4157 0.985 . S
H4164 N4161 0.984 . S
H4165 N4161 0.985 . S
H4166 N4160 0.984 . S
H4167 N4160 0.984 . S
H4168 N4156 0.984 . S
H4169 N4156 0.985 . S
C4170 C4171 1.363 . S
C4170 C4176 1.379 . S
C4170 N4178 1.356 . S
C4171 C4170 1.363 . S
C4171 C4177 1.363 . S
C4172 C4173 1.363 . S
C4172 C4177 1.379 . S
C4172 N4179 1.356 . S
C4173 C4172 1.363 . S
C4173 C4176 1.363 . S
N4174 C4176 1.356 . S
N4174 H4186 0.984 . S
N4174 H4187 0.985 . S
N4175 C4177 1.356 . S
N4175 H4180 0.984 . S
N4175 H4181 0.985 . S
C4176 C4170 1.379 . S
C4176 C4173 1.363 . S
C4176 N4174 1.356 . S
C4177 C4171 1.363 . S
C4177 C4172 1.379 . S
C4177 N4175 1.356 . S
N4178 C4170 1.356 . S
N4178 H4184 0.984 . S
N4178 H4185 0.984 . S
N4179 C4172 1.356 . S
N4179 H4182 0.984 . S
N4179 H4183 0.985 . S
H4180 N4175 0.984 . S
H4181 N4175 0.985 . S
H4182 N4179 0.984 . S
H4183 N4179 0.985 . S
H4184 N4178 0.984 . S
H4185 N4178 0.984 . S
H4186 N4174 0.984 . S
H4187 N4174 0.985 . S
C4188 C4189 1.363 . S
C4188 C4194 1.379 . S
C4188 N4196 1.356 . S
C4189 C4188 1.363 . S
C4189 C4195 1.363 . S
C4190 C4191 1.363 . S
C4190 C4195 1.379 . S
C4190 N4197 1.356 . S
C4191 C4190 1.363 . S
C4191 C4194 1.363 . S
N4192 C4194 1.356 . S
N4192 H4204 0.984 . S
N4192 H4205 0.985 . S
N4193 C4195 1.356 . S
N4193 H4198 0.984 . S
N4193 H4199 0.985 . S
C4194 C4188 1.379 . S
C4194 C4191 1.363 . S
C4194 N4192 1.356 . S
C4195 C4189 1.363 . S
C4195 C4190 1.379 . S
C4195 N4193 1.356 . S
N4196 C4188 1.356 . S
N4196 H4202 0.984 . S
N4196 H4203 0.984 . S
N4197 C4190 1.356 . S
N4197 H4200 0.984 . S
N4197 H4201 0.985 . S
H4198 N4193 0.984 . S
H4199 N4193 0.985 . S
H4200 N4197 0.984 . S
H4201 N4197 0.985 . S
H4202 N4196 0.984 . S
H4203 N4196 0.984 . S
H4204 N4192 0.984 . S
H4205 N4192 0.985 . S
C4206 C4207 1.363 . S
C4206 C4212 1.379 . S
C4206 N4214 1.356 . S
C4207 C4206 1.363 . S
C4207 C4213 1.363 . S
C4208 C4209 1.363 . S
C4208 C4213 1.379 . S
C4208 N4215 1.356 . S
C4209 C4208 1.363 . S
C4209 C4212 1.363 . S
N4210 C4212 1.356 . S
N4210 H4222 0.984 . S
N4210 H4223 0.985 . S
N4211 C4213 1.356 . S
N4211 H4216 0.984 . S
N4211 H4217 0.985 . S
C4212 C4206 1.379 . S
C4212 C4209 1.363 . S
C4212 N4210 1.356 . S
C4213 C4207 1.363 . S
C4213 C4208 1.379 . S
C4213 N4211 1.356 . S
N4214 C4206 1.356 . S
N4214 H4220 0.984 . S
N4214 H4221 0.984 . S
N4215 C4208 1.356 . S
N4215 H4218 0.984 . S
N4215 H4219 0.985 . S
H4216 N4211 0.984 . S
H4217 N4211 0.985 . S
H4218 N4215 0.984 . S
H4219 N4215 0.985 . S
H4220 N4214 0.984 . S
H4221 N4214 0.984 . S
H4222 N4210 0.984 . S
H4223 N4210 0.985 . S
C4224 C4225 1.363 . S
C4224 C4230 1.379 . S
C4224 N4232 1.356 . S
C4225 C4224 1.363 . S
C4225 C4231 1.363 . S
C4226 C4227 1.363 . S
C4226 C4231 1.379 . S
C4226 N4233 1.356 . S
C4227 C4226 1.363 . S
C4227 C4230 1.363 . S
N4228 C4230 1.356 . S
N4228 H4240 0.984 . S
N4228 H4241 0.985 . S
N4229 C4231 1.356 . S
N4229 H4234 0.984 . S
N4229 H4235 0.985 . S
C4230 C4224 1.379 . S
C4230 C4227 1.363 . S
C4230 N4228 1.356 . S
C4231 C4225 1.363 . S
C4231 C4226 1.379 . S
C4231 N4229 1.356 . S
N4232 C4224 1.356 . S
N4232 H4238 0.984 . S
N4232 H4239 0.984 . S
N4233 C4226 1.356 . S
N4233 H4236 0.984 . S
N4233 H4237 0.985 . S
H4234 N4229 0.984 . S
H4235 N4229 0.985 . S
H4236 N4233 0.984 . S
H4237 N4233 0.985 . S
H4238 N4232 0.984 . S
H4239 N4232 0.984 . S
H4240 N4228 0.984 . S
H4241 N4228 0.985 . S
C4242 C4243 1.363 . S
C4242 C4248 1.379 . S
C4242 N4250 1.356 . S
C4243 C4242 1.363 . S
C4243 C4249 1.363 . S
C4244 C4245 1.363 . S
C4244 C4249 1.379 . S
C4244 N4251 1.356 . S
C4245 C4244 1.363 . S
C4245 C4248 1.363 . S
N4246 C4248 1.356 . S
N4246 H4258 0.984 . S
N4246 H4259 0.985 . S
N4247 C4249 1.356 . S
N4247 H4252 0.984 . S
N4247 H4253 0.985 . S
C4248 C4242 1.379 . S
C4248 C4245 1.363 . S
C4248 N4246 1.356 . S
C4249 C4243 1.363 . S
C4249 C4244 1.379 . S
C4249 N4247 1.356 . S
N4250 C4242 1.356 . S
N4250 H4256 0.984 . S
N4250 H4257 0.984 . S
N4251 C4244 1.356 . S
N4251 H4254 0.984 . S
N4251 H4255 0.985 . S
H4252 N4247 0.984 . S
H4253 N4247 0.985 . S
H4254 N4251 0.984 . S
H4255 N4251 0.985 . S
H4256 N4250 0.984 . S
H4257 N4250 0.984 . S
H4258 N4246 0.984 . S
H4259 N4246 0.985 . S
C4260 C4261 1.363 . S
C4260 C4266 1.379 . S
C4260 N4268 1.356 . S
C4261 C4260 1.363 . S
C4261 C4267 1.363 . S
C4262 C4263 1.363 . S
C4262 C4267 1.379 . S
C4262 N4269 1.356 . S
C4263 C4262 1.363 . S
C4263 C4266 1.363 . S
N4264 C4266 1.356 . S
N4264 H4276 0.984 . S
N4264 H4277 0.985 . S
N4265 C4267 1.356 . S
N4265 H4270 0.984 . S
N4265 H4271 0.985 . S
C4266 C4260 1.379 . S
C4266 C4263 1.363 . S
C4266 N4264 1.356 . S
C4267 C4261 1.363 . S
C4267 C4262 1.379 . S
C4267 N4265 1.356 . S
N4268 C4260 1.356 . S
N4268 H4274 0.984 . S
N4268 H4275 0.984 . S
N4269 C4262 1.356 . S
N4269 H4272 0.984 . S
N4269 H4273 0.985 . S
H4270 N4265 0.984 . S
H4271 N4265 0.985 . S
H4272 N4269 0.984 . S
H4273 N4269 0.985 . S
H4274 N4268 0.984 . S
H4275 N4268 0.984 . S
H4276 N4264 0.984 . S
H4277 N4264 0.985 . S
C4278 C4279 1.363 . S
C4278 C4284 1.379 . S
C4278 N4286 1.385 . S
C4279 C4278 1.363 . S
C4279 C4285 1.363 . S
C4280 C4281 1.363 . S
C4280 C4285 1.379 . S
C4280 N4287 1.356 . S
C4281 C4280 1.363 . S
C4281 C4284 1.363 . S
N4282 C4284 1.356 . S
N4282 H4294 0.984 . S
N4282 H4295 0.985 . S
N4283 C4285 1.356 . S
N4283 H4288 0.984 . S
N4283 H4289 0.985 . S
C4284 C4278 1.379 . S
C4284 C4281 1.363 . S
C4284 N4282 1.356 . S
C4285 C4279 1.363 . S
C4285 C4280 1.379 . S
C4285 N4283 1.356 . S
N4286 C4278 1.385 . S
N4286 H4292 0.972 1_556 S
N4286 H4293 0.970 1_556 S
N4287 C4280 1.356 . S
N4287 H4290 0.984 . S
N4287 H4291 0.985 . S
H4288 N4283 0.984 . S
H4289 N4283 0.985 . S
H4290 N4287 0.984 . S
H4291 N4287 0.985 . S
H4292 N4286 0.972 1_554 S
H4293 N4286 0.970 1_554 S
H4294 N4282 0.984 . S
H4295 N4282 0.985 . S
C4296 C4297 1.363 . S
C4296 C4302 1.379 . S
C4296 N4304 1.356 . S
C4297 C4296 1.363 . S
C4297 C4303 1.363 . S
C4298 C4299 1.363 . S
C4298 C4303 1.379 . S
C4298 N4305 1.356 . S
C4299 C4298 1.363 . S
C4299 C4302 1.363 . S
N4300 C4302 1.356 . S
N4300 H4312 0.984 . S
N4300 H4313 0.985 . S
N4301 C4303 1.356 . S
N4301 H4306 0.984 . S
N4301 H4307 0.985 . S
C4302 C4296 1.379 . S
C4302 C4299 1.363 . S
C4302 N4300 1.356 . S
C4303 C4297 1.363 . S
C4303 C4298 1.379 . S
C4303 N4301 1.356 . S
N4304 C4296 1.356 . S
N4304 H4310 0.984 . S
N4304 H4311 0.984 . S
N4305 C4298 1.356 . S
N4305 H4308 0.984 . S
N4305 H4309 0.985 . S
H4306 N4301 0.984 . S
H4307 N4301 0.985 . S
H4308 N4305 0.984 . S
H4309 N4305 0.985 . S
H4310 N4304 0.984 . S
H4311 N4304 0.984 . S
H4312 N4300 0.984 . S
H4313 N4300 0.985 . S
C4314 C4315 1.363 . S
C4314 C4320 1.379 . S
C4314 N4322 1.356 . S
C4315 C4314 1.363 . S
C4315 C4321 1.363 . S
C4316 C4317 1.363 . S
C4316 C4321 1.379 . S
C4316 N4323 1.356 . S
C4317 C4316 1.363 . S
C4317 C4320 1.363 . S
N4318 C4320 1.356 . S
N4318 H4330 0.984 . S
N4318 H4331 0.985 . S
N4319 C4321 1.356 . S
N4319 H4324 0.984 . S
N4319 H4325 0.985 . S
C4320 C4314 1.379 . S
C4320 C4317 1.363 . S
C4320 N4318 1.356 . S
C4321 C4315 1.363 . S
C4321 C4316 1.379 . S
C4321 N4319 1.356 . S
N4322 C4314 1.356 . S
N4322 H4328 0.984 . S
N4322 H4329 0.984 . S
N4323 C4316 1.356 . S
N4323 H4326 0.984 . S
N4323 H4327 0.985 . S
H4324 N4319 0.984 . S
H4325 N4319 0.985 . S
H4326 N4323 0.984 . S
H4327 N4323 0.985 . S
H4328 N4322 0.984 . S
H4329 N4322 0.984 . S
H4330 N4318 0.984 . S
H4331 N4318 0.985 . S
C4332 C4333 1.363 . S
C4332 C4338 1.379 . S
C4332 N4340 1.356 . S
C4333 C4332 1.363 . S
C4333 C4339 1.363 . S
C4334 C4335 1.363 . S
C4334 C4339 1.379 . S
C4334 N4341 1.356 . S
C4335 C4334 1.363 . S
C4335 C4338 1.363 . S
N4336 C4338 1.356 . S
N4336 H4348 0.984 . S
N4336 H4349 0.985 . S
N4337 C4339 1.356 . S
N4337 H4342 0.984 . S
N4337 H4343 0.985 . S
C4338 C4332 1.379 . S
C4338 C4335 1.363 . S
C4338 N4336 1.356 . S
C4339 C4333 1.363 . S
C4339 C4334 1.379 . S
C4339 N4337 1.356 . S
N4340 C4332 1.356 . S
N4340 H4346 0.984 . S
N4340 H4347 0.984 . S
N4341 C4334 1.356 . S
N4341 H4344 0.984 . S
N4341 H4345 0.985 . S
H4342 N4337 0.984 . S
H4343 N4337 0.985 . S
H4344 N4341 0.984 . S
H4345 N4341 0.985 . S
H4346 N4340 0.984 . S
H4347 N4340 0.984 . S
H4348 N4336 0.984 . S
H4349 N4336 0.985 . S
C4350 C4351 1.363 . S
C4350 C4356 1.379 . S
C4350 N4358 1.356 . S
C4351 C4350 1.363 . S
C4351 C4357 1.363 . S
C4352 C4353 1.363 . S
C4352 C4357 1.379 . S
C4352 N4359 1.356 . S
C4353 C4352 1.363 . S
C4353 C4356 1.363 . S
N4354 C4356 1.356 . S
N4354 H4366 0.984 . S
N4354 H4367 0.985 . S
N4355 C4357 1.356 . S
N4355 H4360 0.984 . S
N4355 H4361 0.985 . S
C4356 C4350 1.379 . S
C4356 C4353 1.363 . S
C4356 N4354 1.356 . S
C4357 C4351 1.363 . S
C4357 C4352 1.379 . S
C4357 N4355 1.356 . S
N4358 C4350 1.356 . S
N4358 H4364 0.984 . S
N4358 H4365 0.984 . S
N4359 C4352 1.356 . S
N4359 H4362 0.984 . S
N4359 H4363 0.985 . S
H4360 N4355 0.984 . S
H4361 N4355 0.985 . S
H4362 N4359 0.984 . S
H4363 N4359 0.985 . S
H4364 N4358 0.984 . S
H4365 N4358 0.984 . S
H4366 N4354 0.984 . S
H4367 N4354 0.985 . S
C4368 C4369 1.363 . S
C4368 C4374 1.379 . S
C4368 N4376 1.356 . S
C4369 C4368 1.363 . S
C4369 C4375 1.363 . S
C4370 C4371 1.363 . S
C4370 C4375 1.379 . S
C4370 N4377 1.356 . S
C4371 C4370 1.363 . S
C4371 C4374 1.363 . S
N4372 C4374 1.356 . S
N4372 H4384 0.984 . S
N4372 H4385 0.985 . S
N4373 C4375 1.356 . S
N4373 H4378 0.984 . S
N4373 H4379 0.985 . S
C4374 C4368 1.379 . S
C4374 C4371 1.363 . S
C4374 N4372 1.356 . S
C4375 C4369 1.363 . S
C4375 C4370 1.379 . S
C4375 N4373 1.356 . S
N4376 C4368 1.356 . S
N4376 H4382 0.984 . S
N4376 H4383 0.984 . S
N4377 C4370 1.356 . S
N4377 H4380 0.984 . S
N4377 H4381 0.985 . S
H4378 N4373 0.984 . S
H4379 N4373 0.985 . S
H4380 N4377 0.984 . S
H4381 N4377 0.985 . S
H4382 N4376 0.984 . S
H4383 N4376 0.984 . S
H4384 N4372 0.984 . S
H4385 N4372 0.985 . S
C4386 C4387 1.363 . S
C4386 C4392 1.379 . S
C4386 N4394 1.356 . S
C4387 C4386 1.363 . S
C4387 C4393 1.363 . S
C4388 C4389 1.363 . S
C4388 C4393 1.379 . S
C4388 N4395 1.356 . S
C4389 C4388 1.363 . S
C4389 C4392 1.363 . S
N4390 C4392 1.356 . S
N4390 H4402 0.984 . S
N4390 H4403 0.985 . S
N4391 C4393 1.356 . S
N4391 H4396 0.984 . S
N4391 H4397 0.985 . S
C4392 C4386 1.379 . S
C4392 C4389 1.363 . S
C4392 N4390 1.356 . S
C4393 C4387 1.363 . S
C4393 C4388 1.379 . S
C4393 N4391 1.356 . S
N4394 C4386 1.356 . S
N4394 H4400 0.984 . S
N4394 H4401 0.984 . S
N4395 C4388 1.356 . S
N4395 H4398 0.984 . S
N4395 H4399 0.985 . S
H4396 N4391 0.984 . S
H4397 N4391 0.985 . S
H4398 N4395 0.984 . S
H4399 N4395 0.985 . S
H4400 N4394 0.984 . S
H4401 N4394 0.984 . S
H4402 N4390 0.984 . S
H4403 N4390 0.985 . S
C4404 C4405 1.363 . S
C4404 C4410 1.379 . S
C4404 N4412 1.356 1_554 S
C4405 C4404 1.363 . S
C4405 C4411 1.363 . S
C4406 C4407 1.363 . S
C4406 C4411 1.379 . S
C4406 N4413 1.356 . S
C4407 C4406 1.363 . S
C4407 C4410 1.363 . S
N4408 C4410 1.356 . S
N4408 H4420 0.984 . S
N4408 H4421 0.985 . S
N4409 C4411 1.356 . S
N4409 H4414 0.984 . S
N4409 H4415 0.985 . S
C4410 C4404 1.379 . S
C4410 C4407 1.363 . S
C4410 N4408 1.356 . S
C4411 C4405 1.363 . S
C4411 C4406 1.379 . S
C4411 N4409 1.356 . S
N4412 C4404 1.356 1_556 S
N4412 H4418 0.984 . S
N4412 H4419 0.984 . S
N4413 C4406 1.356 . S
N4413 H4416 0.984 . S
N4413 H4417 0.985 . S
H4414 N4409 0.984 . S
H4415 N4409 0.985 . S
H4416 N4413 0.984 . S
H4417 N4413 0.985 . S
H4418 N4412 0.984 . S
H4419 N4412 0.984 . S
H4420 N4408 0.984 . S
H4421 N4408 0.985 . S
C4422 C4423 1.363 . S
C4422 C4428 1.379 . S
C4422 N4430 1.356 . S
C4423 C4422 1.363 . S
C4423 C4429 1.363 . S
C4424 C4425 1.363 . S
C4424 C4429 1.379 . S
C4424 N4431 1.356 . S
C4425 C4424 1.363 . S
C4425 C4428 1.363 . S
N4426 C4428 1.356 . S
N4426 H4438 0.984 . S
N4426 H4439 0.985 . S
N4427 C4429 1.356 . S
N4427 H4432 0.984 . S
N4427 H4433 0.985 . S
C4428 C4422 1.379 . S
C4428 C4425 1.363 . S
C4428 N4426 1.356 . S
C4429 C4423 1.363 . S
C4429 C4424 1.379 . S
C4429 N4427 1.356 . S
N4430 C4422 1.356 . S
N4430 H4436 0.984 . S
N4430 H4437 0.984 . S
N4431 C4424 1.356 . S
N4431 H4434 0.984 . S
N4431 H4435 0.985 . S
H4432 N4427 0.984 . S
H4433 N4427 0.985 . S
H4434 N4431 0.984 . S
H4435 N4431 0.985 . S
H4436 N4430 0.984 . S
H4437 N4430 0.984 . S
H4438 N4426 0.984 . S
H4439 N4426 0.985 . S
C4440 C4441 1.363 . S
C4440 C4446 1.379 . S
C4440 N4448 1.356 . S
C4441 C4440 1.363 . S
C4441 C4447 1.363 . S
C4442 C4443 1.363 . S
C4442 C4447 1.379 . S
C4442 N4449 1.356 . S
C4443 C4442 1.363 . S
C4443 C4446 1.363 . S
N4444 C4446 1.356 . S
N4444 H4456 0.984 . S
N4444 H4457 0.985 . S
N4445 C4447 1.356 . S
N4445 H4450 0.984 . S
N4445 H4451 0.985 . S
C4446 C4440 1.379 . S
C4446 C4443 1.363 . S
C4446 N4444 1.356 . S
C4447 C4441 1.363 . S
C4447 C4442 1.379 . S
C4447 N4445 1.356 . S
N4448 C4440 1.356 . S
N4448 H4454 0.984 . S
N4448 H4455 0.984 . S
N4449 C4442 1.356 . S
N4449 H4452 0.984 . S
N4449 H4453 0.985 . S
H4450 N4445 0.984 . S
H4451 N4445 0.985 . S
H4452 N4449 0.984 . S
H4453 N4449 0.985 . S
H4454 N4448 0.984 . S
H4455 N4448 0.984 . S
H4456 N4444 0.984 . S
H4457 N4444 0.985 . S
C4458 C4459 1.363 . S
C4458 C4464 1.379 . S
C4458 N4466 1.356 . S
C4459 C4458 1.363 . S
C4459 C4465 1.363 . S
C4460 C4461 1.363 . S
C4460 C4465 1.379 . S
C4460 N4467 1.356 . S
C4461 C4460 1.363 . S
C4461 C4464 1.363 . S
N4462 C4464 1.356 . S
N4462 H4474 0.984 . S
N4462 H4475 0.985 . S
N4463 C4465 1.356 . S
N4463 H4468 0.984 . S
N4463 H4469 0.985 . S
C4464 C4458 1.379 . S
C4464 C4461 1.363 . S
C4464 N4462 1.356 . S
C4465 C4459 1.363 . S
C4465 C4460 1.379 . S
C4465 N4463 1.356 . S
N4466 C4458 1.356 . S
N4466 H4472 0.984 . S
N4466 H4473 0.984 . S
N4467 C4460 1.356 . S
N4467 H4470 0.984 . S
N4467 H4471 0.985 . S
H4468 N4463 0.984 . S
H4469 N4463 0.985 . S
H4470 N4467 0.984 . S
H4471 N4467 0.985 . S
H4472 N4466 0.984 . S
H4473 N4466 0.984 . S
H4474 N4462 0.984 . S
H4475 N4462 0.985 . S
C4476 C4477 1.363 . S
C4476 C4482 1.379 . S
C4476 N4484 1.356 . S
C4477 C4476 1.363 . S
C4477 C4483 1.363 . S
C4478 C4479 1.363 . S
C4478 C4483 1.379 . S
C4478 N4485 1.356 . S
C4479 C4478 1.363 . S
C4479 C4482 1.363 . S
N4480 C4482 1.356 . S
N4480 H4492 0.984 . S
N4480 H4493 0.985 . S
N4481 C4483 1.356 . S
N4481 H4486 0.984 . S
N4481 H4487 0.985 . S
C4482 C4476 1.379 . S
C4482 C4479 1.363 . S
C4482 N4480 1.356 . S
C4483 C4477 1.363 . S
C4483 C4478 1.379 . S
C4483 N4481 1.356 . S
N4484 C4476 1.356 . S
N4484 H4490 0.984 . S
N4484 H4491 0.984 . S
N4485 C4478 1.356 . S
N4485 H4488 0.984 . S
N4485 H4489 0.985 . S
H4486 N4481 0.984 . S
H4487 N4481 0.985 . S
H4488 N4485 0.984 . S
H4489 N4485 0.985 . S
H4490 N4484 0.984 . S
H4491 N4484 0.984 . S
H4492 N4480 0.984 . S
H4493 N4480 0.985 . S
C4494 C4495 1.363 . S
C4494 C4500 1.379 . S
C4494 N4502 1.356 . S
C4495 C4494 1.363 . S
C4495 C4501 1.363 . S
C4496 C4497 1.363 . S
C4496 C4501 1.379 . S
C4496 N4503 1.356 . S
C4497 C4496 1.363 . S
C4497 C4500 1.363 . S
N4498 C4500 1.356 . S
N4498 H4510 0.984 . S
N4498 H4511 0.985 . S
N4499 C4501 1.356 . S
N4499 H4504 0.984 . S
N4499 H4505 0.985 . S
C4500 C4494 1.379 . S
C4500 C4497 1.363 . S
C4500 N4498 1.356 . S
C4501 C4495 1.363 . S
C4501 C4496 1.379 . S
C4501 N4499 1.356 . S
N4502 C4494 1.356 . S
N4502 H4508 0.984 . S
N4502 H4509 0.984 . S
N4503 C4496 1.356 . S
N4503 H4506 0.984 . S
N4503 H4507 0.985 . S
H4504 N4499 0.984 . S
H4505 N4499 0.985 . S
H4506 N4503 0.984 . S
H4507 N4503 0.985 . S
H4508 N4502 0.984 . S
H4509 N4502 0.984 . S
H4510 N4498 0.984 . S
H4511 N4498 0.985 . S
C4512 C4513 1.363 . S
C4512 C4518 1.379 . S
C4512 N4520 1.356 . S
C4513 C4512 1.363 . S
C4513 C4519 1.363 . S
C4514 C4515 1.363 . S
C4514 C4519 1.379 . S
C4514 N4521 1.356 . S
C4515 C4514 1.363 . S
C4515 C4518 1.363 . S
N4516 C4518 1.356 . S
N4516 H4528 0.984 . S
N4516 H4529 0.985 . S
N4517 C4519 1.356 . S
N4517 H4522 0.984 . S
N4517 H4523 0.985 . S
C4518 C4512 1.379 . S
C4518 C4515 1.363 . S
C4518 N4516 1.356 . S
C4519 C4513 1.363 . S
C4519 C4514 1.379 . S
C4519 N4517 1.356 . S
N4520 C4512 1.356 . S
N4520 H4526 0.984 . S
N4520 H4527 0.984 . S
N4521 C4514 1.356 . S
N4521 H4524 0.984 . S
N4521 H4525 0.985 . S
H4522 N4517 0.984 . S
H4523 N4517 0.985 . S
H4524 N4521 0.984 . S
H4525 N4521 0.985 . S
H4526 N4520 0.984 . S
H4527 N4520 0.984 . S
H4528 N4516 0.984 . S
H4529 N4516 0.985 . S
C4530 C4531 1.363 . S
C4530 C4536 1.379 . S
C4530 N4538 1.356 . S
C4531 C4530 1.363 . S
C4531 C4537 1.363 . S
C4532 C4533 1.363 . S
C4532 C4537 1.379 . S
C4532 N4539 1.356 . S
C4533 C4532 1.363 . S
C4533 C4536 1.363 . S
N4534 C4536 1.356 . S
N4534 H4546 0.984 . S
N4534 H4547 0.985 . S
N4535 C4537 1.356 . S
N4535 H4540 0.984 . S
N4535 H4541 0.985 . S
C4536 C4530 1.379 . S
C4536 C4533 1.363 . S
C4536 N4534 1.356 . S
C4537 C4531 1.363 . S
C4537 C4532 1.379 . S
C4537 N4535 1.356 . S
N4538 C4530 1.356 . S
N4538 H4544 0.984 . S
N4538 H4545 0.984 . S
N4539 C4532 1.356 . S
N4539 H4542 0.984 . S
N4539 H4543 0.985 . S
H4540 N4535 0.984 . S
H4541 N4535 0.985 . S
H4542 N4539 0.984 . S
H4543 N4539 0.985 . S
H4544 N4538 0.984 . S
H4545 N4538 0.984 . S
H4546 N4534 0.984 . S
H4547 N4534 0.985 . S
C4548 C4549 1.363 . S
C4548 C4554 1.379 . S
C4548 N4556 1.356 . S
C4549 C4548 1.363 . S
C4549 C4555 1.363 . S
C4550 C4551 1.363 . S
C4550 C4555 1.379 . S
C4550 N4557 1.356 . S
C4551 C4550 1.363 . S
C4551 C4554 1.363 . S
N4552 C4554 1.356 . S
N4552 H4564 0.984 . S
N4552 H4565 0.985 . S
N4553 C4555 1.356 . S
N4553 H4558 0.984 1_556 S
N4553 H4559 0.985 . S
C4554 C4548 1.379 . S
C4554 C4551 1.363 . S
C4554 N4552 1.356 . S
C4555 C4549 1.363 . S
C4555 C4550 1.379 . S
C4555 N4553 1.356 . S
N4556 C4548 1.356 . S
N4556 H4562 0.984 . S
N4556 H4563 0.984 1_556 S
N4557 C4550 1.356 . S
N4557 H4560 0.984 . S
N4557 H4561 0.985 . S
H4558 N4553 0.984 1_554 S
H4559 N4553 0.985 . S
H4560 N4557 0.984 . S
H4561 N4557 0.985 . S
H4562 N4556 0.984 . S
H4563 N4556 0.984 1_554 S
H4564 N4552 0.984 . S
H4565 N4552 0.985 . S
C4566 C4567 1.363 . S
C4566 C4572 1.379 . S
C4566 N4574 1.356 . S
C4567 C4566 1.363 . S
C4567 C4573 1.363 . S
C4568 C4569 1.363 . S
C4568 C4573 1.379 . S
C4568 N4575 1.356 . S
C4569 C4568 1.363 . S
C4569 C4572 1.363 . S
N4570 C4572 1.356 . S
N4570 H4582 0.984 . S
N4570 H4583 0.985 . S
N4571 C4573 1.356 . S
N4571 H4576 0.984 . S
N4571 H4577 0.985 . S
C4572 C4566 1.379 . S
C4572 C4569 1.363 . S
C4572 N4570 1.356 . S
C4573 C4567 1.363 . S
C4573 C4568 1.379 . S
C4573 N4571 1.356 . S
N4574 C4566 1.356 . S
N4574 H4580 0.984 . S
N4574 H4581 0.984 . S
N4575 C4568 1.356 . S
N4575 H4578 0.984 . S
N4575 H4579 0.985 . S
H4576 N4571 0.984 . S
H4577 N4571 0.985 . S
H4578 N4575 0.984 . S
H4579 N4575 0.985 . S
H4580 N4574 0.984 . S
H4581 N4574 0.984 . S
H4582 N4570 0.984 . S
H4583 N4570 0.985 . S
C4584 C4585 1.363 . S
C4584 C4590 1.379 . S
C4584 N4592 1.356 . S
C4585 C4584 1.363 . S
C4585 C4591 1.363 . S
C4586 C4587 1.363 . S
C4586 C4591 1.379 . S
C4586 N4593 1.356 . S
C4587 C4586 1.363 . S
C4587 C4590 1.363 . S
N4588 C4590 1.356 . S
N4588 H4600 0.984 . S
N4588 H4601 0.985 1_554 S
N4589 C4591 1.356 . S
N4589 H4594 0.984 . S
N4589 H4595 0.985 . S
C4590 C4584 1.379 . S
C4590 C4587 1.363 . S
C4590 N4588 1.356 . S
C4591 C4585 1.363 . S
C4591 C4586 1.379 . S
C4591 N4589 1.356 . S
N4592 C4584 1.356 . S
N4592 H4598 0.984 . S
N4592 H4599 0.984 . S
N4593 C4586 1.356 . S
N4593 H4596 0.984 . S
N4593 H4597 0.985 . S
H4594 N4589 0.984 . S
H4595 N4589 0.985 . S
H4596 N4593 0.984 . S
H4597 N4593 0.985 . S
H4598 N4592 0.984 . S
H4599 N4592 0.984 . S
H4600 N4588 0.984 . S
H4601 N4588 0.985 1_556 S
C4602 C4603 1.363 . S
C4602 C4608 1.379 . S
C4602 N4610 1.356 . S
C4603 C4602 1.363 . S
C4603 C4609 1.363 . S
C4604 C4605 1.363 . S
C4604 C4609 1.379 . S
C4604 N4611 1.356 . S
C4605 C4604 1.363 . S
C4605 C4608 1.363 . S
N4606 C4608 1.356 . S
N4606 H4618 0.984 . S
N4606 H4619 0.985 . S
N4607 C4609 1.356 . S
N4607 H4612 0.984 . S
N4607 H4613 0.985 . S
C4608 C4602 1.379 . S
C4608 C4605 1.363 . S
C4608 N4606 1.356 . S
C4609 C4603 1.363 . S
C4609 C4604 1.379 . S
C4609 N4607 1.356 . S
N4610 C4602 1.356 . S
N4610 H4616 0.984 . S
N4610 H4617 0.984 . S
N4611 C4604 1.356 . S
N4611 H4614 0.984 . S
N4611 H4615 0.985 . S
H4612 N4607 0.984 . S
H4613 N4607 0.985 . S
H4614 N4611 0.984 . S
H4615 N4611 0.985 . S
H4616 N4610 0.984 . S
H4617 N4610 0.984 . S
H4618 N4606 0.984 . S
H4619 N4606 0.985 . S
C4620 C4621 1.363 . S
C4620 C4626 1.379 . S
C4620 N4628 1.356 . S
C4621 C4620 1.363 . S
C4621 C4627 1.363 . S
C4622 C4623 1.363 . S
C4622 C4627 1.379 . S
C4622 N4629 1.356 . S
C4623 C4622 1.363 . S
C4623 C4626 1.363 . S
N4624 C4626 1.356 . S
N4624 H4636 0.984 . S
N4624 H4637 0.985 . S
N4625 C4627 1.356 . S
N4625 H4630 0.984 . S
N4625 H4631 0.985 . S
C4626 C4620 1.379 . S
C4626 C4623 1.363 . S
C4626 N4624 1.356 . S
C4627 C4621 1.363 . S
C4627 C4622 1.379 . S
C4627 N4625 1.356 . S
N4628 C4620 1.356 . S
N4628 H4634 0.984 . S
N4628 H4635 0.984 . S
N4629 C4622 1.356 . S
N4629 H4632 0.984 . S
N4629 H4633 0.985 . S
H4630 N4625 0.984 . S
H4631 N4625 0.985 . S
H4632 N4629 0.984 . S
H4633 N4629 0.985 . S
H4634 N4628 0.984 . S
H4635 N4628 0.984 . S
H4636 N4624 0.984 . S
H4637 N4624 0.985 . S
C4638 C4639 1.363 . S
C4638 C4644 1.379 . S
C4638 N4646 1.356 . S
C4639 C4638 1.363 . S
C4639 C4645 1.363 . S
C4640 C4641 1.363 . S
C4640 C4645 1.379 . S
C4640 N4647 1.356 . S
C4641 C4640 1.363 . S
C4641 C4644 1.363 . S
N4642 C4644 1.356 . S
N4642 H4654 0.984 . S
N4642 H4655 0.985 . S
N4643 C4645 1.356 . S
N4643 H4648 0.984 . S
N4643 H4649 0.985 . S
C4644 C4638 1.379 . S
C4644 C4641 1.363 . S
C4644 N4642 1.356 . S
C4645 C4639 1.363 . S
C4645 C4640 1.379 . S
C4645 N4643 1.356 . S
N4646 C4638 1.356 . S
N4646 H4652 0.984 . S
N4646 H4653 0.984 . S
N4647 C4640 1.356 . S
N4647 H4650 0.984 . S
N4647 H4651 0.985 . S
H4648 N4643 0.984 . S
H4649 N4643 0.985 . S
H4650 N4647 0.984 . S
H4651 N4647 0.985 . S
H4652 N4646 0.984 . S
H4653 N4646 0.984 . S
H4654 N4642 0.984 . S
H4655 N4642 0.985 . S
C4656 C4657 1.363 . S
C4656 C4662 1.379 . S
C4656 N4664 1.356 . S
C4657 C4656 1.363 . S
C4657 C4663 1.363 . S
C4658 C4659 1.363 . S
C4658 C4663 1.379 . S
C4658 N4665 1.356 . S
C4659 C4658 1.363 . S
C4659 C4662 1.363 . S
N4660 C4662 1.356 . S
N4660 H4672 0.984 . S
N4660 H4673 0.985 . S
N4661 C4663 1.356 . S
N4661 H4666 0.984 . S
N4661 H4667 0.985 . S
C4662 C4656 1.379 . S
C4662 C4659 1.363 . S
C4662 N4660 1.356 . S
C4663 C4657 1.363 . S
C4663 C4658 1.379 . S
C4663 N4661 1.356 . S
N4664 C4656 1.356 . S
N4664 H4670 0.984 . S
N4664 H4671 0.984 . S
N4665 C4658 1.356 . S
N4665 H4668 0.984 . S
N4665 H4669 0.985 . S
H4666 N4661 0.984 . S
H4667 N4661 0.985 . S
H4668 N4665 0.984 . S
H4669 N4665 0.985 . S
H4670 N4664 0.984 . S
H4671 N4664 0.984 . S
H4672 N4660 0.984 . S
H4673 N4660 0.985 . S
C4674 C4675 1.363 . S
C4674 C4680 1.379 . S
C4674 N4682 1.356 . S
C4675 C4674 1.363 . S
C4675 C4681 1.363 . S
C4676 C4677 1.363 . S
C4676 C4681 1.379 . S
C4676 N4683 1.356 . S
C4677 C4676 1.363 . S
C4677 C4680 1.363 . S
N4678 C4680 1.356 . S
N4678 H4690 0.984 . S
N4678 H4691 0.985 . S
N4679 C4681 1.356 . S
N4679 H4684 0.984 . S
N4679 H4685 0.985 . S
C4680 C4674 1.379 . S
C4680 C4677 1.363 . S
C4680 N4678 1.356 . S
C4681 C4675 1.363 . S
C4681 C4676 1.379 . S
C4681 N4679 1.356 . S
N4682 C4674 1.356 . S
N4682 H4688 0.984 . S
N4682 H4689 0.984 . S
N4683 C4676 1.356 . S
N4683 H4686 0.984 . S
N4683 H4687 0.985 . S
H4684 N4679 0.984 . S
H4685 N4679 0.985 . S
H4686 N4683 0.984 . S
H4687 N4683 0.985 . S
H4688 N4682 0.984 . S
H4689 N4682 0.984 . S
H4690 N4678 0.984 . S
H4691 N4678 0.985 . S
C4692 C4693 1.363 . S
C4692 C4698 1.379 . S
C4692 N4700 1.356 . S
C4693 C4692 1.363 . S
C4693 C4699 1.363 . S
C4694 C4695 1.363 . S
C4694 C4699 1.379 . S
C4694 N4701 1.356 . S
C4695 C4694 1.363 . S
C4695 C4698 1.363 . S
N4696 C4698 1.356 . S
N4696 H4708 0.984 . S
N4696 H4709 0.985 . S
N4697 C4699 1.356 . S
N4697 H4702 0.984 . S
N4697 H4703 0.985 . S
C4698 C4692 1.379 . S
C4698 C4695 1.363 . S
C4698 N4696 1.356 . S
C4699 C4693 1.363 . S
C4699 C4694 1.379 . S
C4699 N4697 1.356 . S
N4700 C4692 1.356 . S
N4700 H4706 0.984 . S
N4700 H4707 0.984 . S
N4701 C4694 1.356 . S
N4701 H4704 0.984 . S
N4701 H4705 0.985 . S
H4702 N4697 0.984 . S
H4703 N4697 0.985 . S
H4704 N4701 0.984 . S
H4705 N4701 0.985 . S
H4706 N4700 0.984 . S
H4707 N4700 0.984 . S
H4708 N4696 0.984 . S
H4709 N4696 0.985 . S
C4710 C4711 1.363 . S
C4710 C4716 1.379 . S
C4710 N4718 1.356 . S
C4711 C4710 1.363 . S
C4711 C4717 1.363 . S
C4712 C4713 1.363 . S
C4712 C4717 1.379 . S
C4712 N4719 1.356 . S
C4713 C4712 1.363 . S
C4713 C4716 1.363 . S
N4714 C4716 1.356 . S
N4714 H4726 0.984 . S
N4714 H4727 0.985 . S
N4715 C4717 1.356 . S
N4715 H4720 0.984 . S
N4715 H4721 0.985 . S
C4716 C4710 1.379 . S
C4716 C4713 1.363 . S
C4716 N4714 1.356 . S
C4717 C4711 1.363 . S
C4717 C4712 1.379 . S
C4717 N4715 1.356 . S
N4718 C4710 1.356 . S
N4718 H4724 0.984 . S
N4718 H4725 0.984 . S
N4719 C4712 1.356 . S
N4719 H4722 0.984 . S
N4719 H4723 0.985 . S
H4720 N4715 0.984 . S
H4721 N4715 0.985 . S
H4722 N4719 0.984 . S
H4723 N4719 0.985 . S
H4724 N4718 0.984 . S
H4725 N4718 0.984 . S
H4726 N4714 0.984 . S
H4727 N4714 0.985 . S
C4728 C4729 1.363 . S
C4728 C4734 1.379 . S
C4728 N4736 1.356 . S
C4729 C4728 1.363 . S
C4729 C4735 1.363 . S
C4730 C4731 1.363 . S
C4730 C4735 1.379 . S
C4730 N4737 1.356 . S
C4731 C4730 1.363 . S
C4731 C4734 1.363 . S
N4732 C4734 1.356 . S
N4732 H4744 0.984 . S
N4732 H4745 0.985 . S
N4733 C4735 1.356 . S
N4733 H4738 0.984 . S
N4733 H4739 0.985 . S
C4734 C4728 1.379 . S
C4734 C4731 1.363 . S
C4734 N4732 1.356 . S
C4735 C4729 1.363 . S
C4735 C4730 1.379 . S
C4735 N4733 1.356 . S
N4736 C4728 1.356 . S
N4736 H4742 0.984 . S
N4736 H4743 0.984 . S
N4737 C4730 1.356 . S
N4737 H4740 0.984 . S
N4737 H4741 0.985 . S
H4738 N4733 0.984 . S
H4739 N4733 0.985 . S
H4740 N4737 0.984 . S
H4741 N4737 0.985 . S
H4742 N4736 0.984 . S
H4743 N4736 0.984 . S
H4744 N4732 0.984 . S
H4745 N4732 0.985 . S
C4746 C4747 1.363 . S
C4746 C4752 1.379 . S
C4746 N4754 1.356 . S
C4747 C4746 1.363 . S
C4747 C4753 1.363 . S
C4748 C4749 1.363 . S
C4748 C4753 1.379 . S
C4748 N4755 1.356 . S
C4749 C4748 1.363 . S
C4749 C4752 1.363 . S
N4750 C4752 1.356 . S
N4750 H4762 0.984 . S
N4750 H4763 0.985 . S
N4751 C4753 1.356 . S
N4751 H4756 0.984 . S
N4751 H4757 0.985 . S
C4752 C4746 1.379 . S
C4752 C4749 1.363 . S
C4752 N4750 1.356 . S
C4753 C4747 1.363 . S
C4753 C4748 1.379 . S
C4753 N4751 1.356 . S
N4754 C4746 1.356 . S
N4754 H4760 0.984 . S
N4754 H4761 0.984 . S
N4755 C4748 1.356 . S
N4755 H4758 0.984 . S
N4755 H4759 0.985 . S
H4756 N4751 0.984 . S
H4757 N4751 0.985 . S
H4758 N4755 0.984 . S
H4759 N4755 0.985 . S
H4760 N4754 0.984 . S
H4761 N4754 0.984 . S
H4762 N4750 0.984 . S
H4763 N4750 0.985 . S
C4764 C4765 1.363 . S
C4764 C4770 1.379 . S
C4764 N4772 1.356 . S
C4765 C4764 1.363 . S
C4765 C4771 1.363 . S
C4766 C4767 1.363 . S
C4766 C4771 1.379 . S
C4766 N4773 1.356 . S
C4767 C4766 1.363 . S
C4767 C4770 1.363 . S
N4768 C4770 1.356 . S
N4768 H4780 0.984 . S
N4768 H4781 0.985 . S
N4769 C4771 1.356 . S
N4769 H4774 0.984 . S
N4769 H4775 0.985 . S
C4770 C4764 1.379 . S
C4770 C4767 1.363 . S
C4770 N4768 1.356 . S
C4771 C4765 1.363 . S
C4771 C4766 1.379 . S
C4771 N4769 1.356 . S
N4772 C4764 1.356 . S
N4772 H4778 0.984 . S
N4772 H4779 0.984 . S
N4773 C4766 1.356 . S
N4773 H4776 0.984 . S
N4773 H4777 0.985 . S
H4774 N4769 0.984 . S
H4775 N4769 0.985 . S
H4776 N4773 0.984 . S
H4777 N4773 0.985 . S
H4778 N4772 0.984 . S
H4779 N4772 0.984 . S
H4780 N4768 0.984 . S
H4781 N4768 0.985 . S
C4782 C4783 1.363 . S
C4782 C4788 1.379 . S
C4782 N4790 1.356 . S
C4783 C4782 1.363 . S
C4783 C4789 1.363 . S
C4784 C4785 1.363 . S
C4784 C4789 1.379 . S
C4784 N4791 1.356 . S
C4785 C4784 1.363 . S
C4785 C4788 1.363 . S
N4786 C4788 1.356 . S
N4786 H4798 0.984 . S
N4786 H4799 0.985 . S
N4787 C4789 1.356 . S
N4787 H4792 0.984 . S
N4787 H4793 0.985 . S
C4788 C4782 1.379 . S
C4788 C4785 1.363 . S
C4788 N4786 1.356 . S
C4789 C4783 1.363 . S
C4789 C4784 1.379 . S
C4789 N4787 1.356 . S
N4790 C4782 1.356 . S
N4790 H4796 0.984 . S
N4790 H4797 0.984 . S
N4791 C4784 1.356 . S
N4791 H4794 0.984 . S
N4791 H4795 0.985 . S
H4792 N4787 0.984 . S
H4793 N4787 0.985 . S
H4794 N4791 0.984 . S
H4795 N4791 0.985 . S
H4796 N4790 0.984 . S
H4797 N4790 0.984 . S
H4798 N4786 0.984 . S
H4799 N4786 0.985 . S
C4800 C4801 1.363 . S
C4800 C4806 1.379 . S
C4800 N4808 1.356 . S
C4801 C4800 1.363 . S
C4801 C4807 1.363 . S
C4802 C4803 1.363 . S
C4802 C4807 1.379 . S
C4802 N4809 1.356 . S
C4803 C4802 1.363 . S
C4803 C4806 1.363 . S
N4804 C4806 1.356 . S
N4804 H4816 0.984 . S
N4804 H4817 0.985 . S
N4805 C4807 1.356 . S
N4805 H4810 0.984 . S
N4805 H4811 0.985 . S
C4806 C4800 1.379 . S
C4806 C4803 1.363 . S
C4806 N4804 1.356 . S
C4807 C4801 1.363 . S
C4807 C4802 1.379 . S
C4807 N4805 1.356 . S
N4808 C4800 1.356 . S
N4808 H4814 0.984 . S
N4808 H4815 0.984 . S
N4809 C4802 1.356 . S
N4809 H4812 0.984 . S
N4809 H4813 0.985 . S
H4810 N4805 0.984 . S
H4811 N4805 0.985 . S
H4812 N4809 0.984 . S
H4813 N4809 0.985 . S
H4814 N4808 0.984 . S
H4815 N4808 0.984 . S
H4816 N4804 0.984 . S
H4817 N4804 0.985 . S
C4818 C4819 1.363 . S
C4818 C4824 1.379 . S
C4818 N4826 1.356 . S
C4819 C4818 1.363 . S
C4819 C4825 1.363 . S
C4820 C4821 1.363 . S
C4820 C4825 1.379 . S
C4820 N4827 1.356 . S
C4821 C4820 1.363 . S
C4821 C4824 1.363 . S
N4822 C4824 1.356 . S
N4822 H4834 0.984 . S
N4822 H4835 0.985 . S
N4823 C4825 1.356 1_565 S
N4823 H4828 0.984 . S
N4823 H4829 0.985 . S
C4824 C4818 1.379 . S
C4824 C4821 1.363 . S
C4824 N4822 1.356 . S
C4825 C4819 1.363 . S
C4825 C4820 1.379 . S
C4825 N4823 1.356 1_545 S
N4826 C4818 1.356 . S
N4826 H4832 0.984 . S
N4826 H4833 0.984 1_545 S
N4827 C4820 1.356 . S
N4827 H4830 0.984 . S
N4827 H4831 0.985 . S
H4828 N4823 0.984 . S
H4829 N4823 0.985 . S
H4830 N4827 0.984 . S
H4831 N4827 0.985 . S
H4832 N4826 0.984 . S
H4833 N4826 0.984 1_565 S
H4834 N4822 0.984 . S
H4835 N4822 0.985 . S
C4836 C4837 1.363 . S
C4836 C4842 1.379 . S
C4836 N4844 1.356 . S
C4837 C4836 1.363 . S
C4837 C4843 1.363 . S
C4838 C4839 1.363 . S
C4838 C4843 1.379 . S
C4838 N4845 1.356 . S
C4839 C4838 1.363 . S
C4839 C4842 1.363 . S
N4840 C4842 1.356 . S
N4840 H4852 0.984 . S
N4840 H4853 0.985 . S
N4841 C4843 1.356 . S
N4841 H4846 0.984 . S
N4841 H4847 0.985 . S
C4842 C4836 1.379 . S
C4842 C4839 1.363 . S
C4842 N4840 1.356 . S
C4843 C4837 1.363 . S
C4843 C4838 1.379 . S
C4843 N4841 1.356 . S
N4844 C4836 1.356 . S
N4844 H4850 0.984 . S
N4844 H4851 0.984 . S
N4845 C4838 1.356 . S
N4845 H4848 0.984 . S
N4845 H4849 0.985 . S
H4846 N4841 0.984 . S
H4847 N4841 0.985 . S
H4848 N4845 0.984 . S
H4849 N4845 0.985 . S
H4850 N4844 0.984 . S
H4851 N4844 0.984 . S
H4852 N4840 0.984 . S
H4853 N4840 0.985 . S
C4854 C4855 1.363 . S
C4854 C4860 1.379 . S
C4854 N4862 1.356 . S
C4855 C4854 1.363 . S
C4855 C4861 1.363 . S
C4856 C4857 1.363 . S
C4856 C4861 1.379 . S
C4856 N4863 1.356 . S
C4857 C4856 1.363 . S
C4857 C4860 1.363 . S
N4858 C4860 1.356 . S
N4858 H4870 0.984 . S
N4858 H4871 0.985 . S
N4859 C4861 1.356 . S
N4859 H4864 0.984 . S
N4859 H4865 0.985 . S
C4860 C4854 1.379 . S
C4860 C4857 1.363 . S
C4860 N4858 1.356 . S
C4861 C4855 1.363 . S
C4861 C4856 1.379 . S
C4861 N4859 1.356 . S
N4862 C4854 1.356 . S
N4862 H4868 0.984 . S
N4862 H4869 0.984 . S
N4863 C4856 1.356 . S
N4863 H4866 0.984 . S
N4863 H4867 0.985 . S
H4864 N4859 0.984 . S
H4865 N4859 0.985 . S
H4866 N4863 0.984 . S
H4867 N4863 0.985 . S
H4868 N4862 0.984 . S
H4869 N4862 0.984 . S
H4870 N4858 0.984 . S
H4871 N4858 0.985 . S
C4872 C4873 1.363 . S
C4872 C4878 1.379 . S
C4872 N4880 1.356 . S
C4873 C4872 1.363 . S
C4873 C4879 1.363 . S
C4874 C4875 1.363 . S
C4874 C4879 1.379 . S
C4874 N4881 1.356 . S
C4875 C4874 1.363 . S
C4875 C4878 1.363 . S
N4876 C4878 1.356 . S
N4876 H4888 0.984 . S
N4876 H4889 0.985 . S
N4877 C4879 1.356 . S
N4877 H4882 0.984 . S
N4877 H4883 0.985 . S
C4878 C4872 1.379 . S
C4878 C4875 1.363 . S
C4878 N4876 1.356 . S
C4879 C4873 1.363 . S
C4879 C4874 1.379 . S
C4879 N4877 1.356 . S
N4880 C4872 1.356 . S
N4880 H4886 0.984 . S
N4880 H4887 0.984 . S
N4881 C4874 1.356 . S
N4881 H4884 0.984 . S
N4881 H4885 0.985 . S
H4882 N4877 0.984 . S
H4883 N4877 0.985 . S
H4884 N4881 0.984 . S
H4885 N4881 0.985 . S
H4886 N4880 0.984 . S
H4887 N4880 0.984 . S
H4888 N4876 0.984 . S
H4889 N4876 0.985 . S
C4890 C4891 1.363 . S
C4890 C4896 1.379 . S
C4890 N4898 1.356 . S
C4891 C4890 1.363 . S
C4891 C4897 1.363 . S
C4892 C4893 1.363 . S
C4892 C4897 1.379 . S
C4892 N4899 1.356 . S
C4893 C4892 1.363 . S
C4893 C4896 1.363 . S
N4894 C4896 1.356 . S
N4894 H4906 0.984 . S
N4894 H4907 0.985 . S
N4895 C4897 1.356 . S
N4895 H4900 0.984 . S
N4895 H4901 0.985 . S
C4896 C4890 1.379 . S
C4896 C4893 1.363 . S
C4896 N4894 1.356 . S
C4897 C4891 1.363 . S
C4897 C4892 1.379 . S
C4897 N4895 1.356 . S
N4898 C4890 1.356 . S
N4898 H4904 0.984 . S
N4898 H4905 0.984 . S
N4899 C4892 1.356 . S
N4899 H4902 0.984 . S
N4899 H4903 0.985 . S
H4900 N4895 0.984 . S
H4901 N4895 0.985 . S
H4902 N4899 0.984 . S
H4903 N4899 0.985 . S
H4904 N4898 0.984 . S
H4905 N4898 0.984 . S
H4906 N4894 0.984 . S
H4907 N4894 0.985 . S
C4908 C4909 1.363 . S
C4908 C4914 1.379 . S
C4908 N4916 1.356 . S
C4909 C4908 1.363 . S
C4909 C4915 1.363 . S
C4910 C4911 1.363 . S
C4910 C4915 1.379 . S
C4910 N4917 1.356 . S
C4911 C4910 1.363 . S
C4911 C4914 1.363 . S
N4912 C4914 1.356 . S
N4912 H4924 0.984 . S
N4912 H4925 0.985 . S
N4913 C4915 1.356 . S
N4913 H4918 0.984 . S
N4913 H4919 0.985 . S
C4914 C4908 1.379 . S
C4914 C4911 1.363 . S
C4914 N4912 1.356 . S
C4915 C4909 1.363 . S
C4915 C4910 1.379 . S
C4915 N4913 1.356 . S
N4916 C4908 1.356 . S
N4916 H4922 0.984 . S
N4916 H4923 0.984 . S
N4917 C4910 1.356 . S
N4917 H4920 0.984 . S
N4917 H4921 0.985 . S
H4918 N4913 0.984 . S
H4919 N4913 0.985 . S
H4920 N4917 0.984 . S
H4921 N4917 0.985 . S
H4922 N4916 0.984 . S
H4923 N4916 0.984 . S
H4924 N4912 0.984 . S
H4925 N4912 0.985 . S
C4926 C4927 1.363 . S
C4926 C4932 1.379 . S
C4926 N4934 1.356 . S
C4927 C4926 1.363 . S
C4927 C4933 1.363 . S
C4928 C4929 1.363 . S
C4928 C4933 1.379 . S
C4928 N4935 1.356 . S
C4929 C4928 1.363 . S
C4929 C4932 1.363 . S
N4930 C4932 1.356 . S
N4930 H4942 0.984 . S
N4930 H4943 0.985 . S
N4931 C4933 1.356 . S
N4931 H4936 0.984 . S
N4931 H4937 0.985 . S
C4932 C4926 1.379 . S
C4932 C4929 1.363 . S
C4932 N4930 1.356 . S
C4933 C4927 1.363 . S
C4933 C4928 1.379 . S
C4933 N4931 1.356 . S
N4934 C4926 1.356 . S
N4934 H4940 0.984 . S
N4934 H4941 0.984 . S
N4935 C4928 1.356 . S
N4935 H4938 0.984 . S
N4935 H4939 0.985 . S
H4936 N4931 0.984 . S
H4937 N4931 0.985 . S
H4938 N4935 0.984 . S
H4939 N4935 0.985 . S
H4940 N4934 0.984 . S
H4941 N4934 0.984 . S
H4942 N4930 0.984 . S
H4943 N4930 0.985 . S
C4944 C4945 1.363 . S
C4944 C4950 1.379 . S
C4944 N4952 1.356 . S
C4945 C4944 1.363 . S
C4945 C4951 1.363 . S
C4946 C4947 1.363 . S
C4946 C4951 1.379 . S
C4946 N4953 1.356 . S
C4947 C4946 1.363 . S
C4947 C4950 1.363 . S
N4948 C4950 1.356 . S
N4948 H4960 0.984 . S
N4948 H4961 0.985 . S
N4949 C4951 1.356 . S
N4949 H4954 0.984 . S
N4949 H4955 0.985 . S
C4950 C4944 1.379 . S
C4950 C4947 1.363 . S
C4950 N4948 1.356 . S
C4951 C4945 1.363 . S
C4951 C4946 1.379 . S
C4951 N4949 1.356 . S
N4952 C4944 1.356 . S
N4952 H4958 0.984 . S
N4952 H4959 0.984 . S
N4953 C4946 1.356 . S
N4953 H4956 0.984 . S
N4953 H4957 0.985 . S
H4954 N4949 0.984 . S
H4955 N4949 0.985 . S
H4956 N4953 0.984 . S
H4957 N4953 0.985 . S
H4958 N4952 0.984 . S
H4959 N4952 0.984 . S
H4960 N4948 0.984 . S
H4961 N4948 0.985 . S
C4962 C4963 1.363 . S
C4962 C4968 1.379 . S
C4962 N4970 1.356 . S
C4963 C4962 1.363 . S
C4963 C4969 1.363 . S
C4964 C4965 1.363 . S
C4964 C4969 1.379 . S
C4964 N4971 1.356 . S
C4965 C4964 1.363 . S
C4965 C4968 1.363 . S
N4966 C4968 1.356 . S
N4966 H4978 0.984 . S
N4966 H4979 0.985 . S
N4967 C4969 1.356 . S
N4967 H4972 0.984 . S
N4967 H4973 0.985 . S
C4968 C4962 1.379 . S
C4968 C4965 1.363 . S
C4968 N4966 1.356 . S
C4969 C4963 1.363 . S
C4969 C4964 1.379 . S
C4969 N4967 1.356 . S
N4970 C4962 1.356 . S
N4970 H4976 0.984 . S
N4970 H4977 0.984 . S
N4971 C4964 1.356 . S
N4971 H4974 0.984 . S
N4971 H4975 0.985 . S
H4972 N4967 0.984 . S
H4973 N4967 0.985 . S
H4974 N4971 0.984 . S
H4975 N4971 0.985 . S
H4976 N4970 0.984 . S
H4977 N4970 0.984 . S
H4978 N4966 0.984 . S
H4979 N4966 0.985 . S
C4980 C4981 1.363 . S
C4980 C4986 1.379 . S
C4980 N4988 1.356 1_554 S
C4981 C4980 1.363 . S
C4981 C4987 1.363 . S
C4982 C4983 1.363 . S
C4982 C4987 1.379 . S
C4982 N4989 1.356 . S
C4983 C4982 1.363 . S
C4983 C4986 1.363 . S
N4984 C4986 1.356 . S
N4984 H4996 0.984 . S
N4984 H4997 0.985 . S
N4985 C4987 1.356 . S
N4985 H4990 0.990 . S
N4985 H4991 0.985 . S
C4986 C4980 1.379 . S
C4986 C4983 1.363 . S
C4986 N4984 1.356 . S
C4987 C4981 1.363 . S
C4987 C4982 1.379 . S
C4987 N4985 1.356 . S
N4988 C4980 1.356 1_556 S
N4988 H4994 0.984 . S
N4988 H4995 0.984 . S
N4989 C4982 1.356 . S
N4989 H4992 0.984 . S
N4989 H4993 0.985 . S
H4990 N4985 0.990 . S
H4991 N4985 0.985 . S
H4992 N4989 0.984 . S
H4993 N4989 0.985 . S
H4994 N4988 0.984 . S
H4995 N4988 0.984 . S
H4996 N4984 0.984 . S
H4997 N4984 0.985 . S
C4998 C4999 1.363 . S
C4998 C5004 1.379 . S
C4998 N5006 1.356 . S
C4999 C4998 1.363 . S
C4999 C5005 1.363 . S
C5000 C5001 1.363 . S
C5000 C5005 1.379 . S
C5000 N5007 1.356 . S
C5001 C5000 1.363 . S
C5001 C5004 1.363 . S
N5002 C5004 1.356 . S
N5002 H5014 0.984 . S
N5002 H5015 0.985 . S
N5003 C5005 1.356 . S
N5003 H5008 0.984 . S
N5003 H5009 0.985 . S
C5004 C4998 1.379 . S
C5004 C5001 1.363 . S
C5004 N5002 1.356 . S
C5005 C4999 1.363 . S
C5005 C5000 1.379 . S
C5005 N5003 1.356 . S
N5006 C4998 1.356 . S
N5006 H5012 0.984 . S
N5006 H5013 0.984 . S
N5007 C5000 1.356 . S
N5007 H5010 0.984 . S
N5007 H5011 0.985 . S
H5008 N5003 0.984 . S
H5009 N5003 0.985 . S
H5010 N5007 0.984 . S
H5011 N5007 0.985 . S
H5012 N5006 0.984 . S
H5013 N5006 0.984 . S
H5014 N5002 0.984 . S
H5015 N5002 0.985 . S
C5016 C5017 1.363 . S
C5016 C5022 1.379 . S
C5016 N5024 1.356 . S
C5017 C5016 1.363 . S
C5017 C5023 1.363 . S
C5018 C5019 1.363 . S
C5018 C5023 1.379 . S
C5018 N5025 1.356 . S
C5019 C5018 1.363 . S
C5019 C5022 1.363 . S
N5020 C5022 1.356 . S
N5020 H5032 0.984 . S
N5020 H5033 0.985 . S
N5021 C5023 1.356 . S
N5021 H5026 0.984 . S
N5021 H5027 0.985 . S
C5022 C5016 1.379 . S
C5022 C5019 1.363 . S
C5022 N5020 1.356 . S
C5023 C5017 1.363 . S
C5023 C5018 1.379 . S
C5023 N5021 1.356 . S
N5024 C5016 1.356 . S
N5024 H5030 0.984 . S
N5024 H5031 0.984 . S
N5025 C5018 1.356 . S
N5025 H5028 0.984 1_556 S
N5025 H5029 0.985 . S
H5026 N5021 0.984 . S
H5027 N5021 0.985 . S
H5028 N5025 0.984 1_554 S
H5029 N5025 0.985 . S
H5030 N5024 0.984 . S
H5031 N5024 0.984 . S
H5032 N5020 0.984 . S
H5033 N5020 0.985 . S
C5034 C5035 1.363 . S
C5034 C5040 1.379 . S
C5034 N5042 1.356 . S
C5035 C5034 1.363 . S
C5035 C5041 1.363 . S
C5036 C5037 1.363 . S
C5036 C5041 1.379 . S
C5036 N5043 1.356 . S
C5037 C5036 1.363 . S
C5037 C5040 1.363 . S
N5038 C5040 1.356 . S
N5038 H5050 0.984 . S
N5038 H5051 0.985 . S
N5039 C5041 1.356 . S
N5039 H5044 0.984 . S
N5039 H5045 0.985 . S
C5040 C5034 1.379 . S
C5040 C5037 1.363 . S
C5040 N5038 1.356 . S
C5041 C5035 1.363 . S
C5041 C5036 1.379 . S
C5041 N5039 1.356 . S
N5042 C5034 1.356 . S
N5042 H5048 0.984 . S
N5042 H5049 0.984 . S
N5043 C5036 1.356 . S
N5043 H5046 0.984 . S
N5043 H5047 0.985 . S
H5044 N5039 0.984 . S
H5045 N5039 0.985 . S
H5046 N5043 0.984 . S
H5047 N5043 0.985 . S
H5048 N5042 0.984 . S
H5049 N5042 0.984 . S
H5050 N5038 0.984 . S
H5051 N5038 0.985 . S
C5052 C5053 1.363 . S
C5052 C5058 1.379 . S
C5052 N5060 1.356 . S
C5053 C5052 1.363 . S
C5053 C5059 1.363 . S
C5054 C5055 1.363 . S
C5054 C5059 1.379 . S
C5054 N5061 1.356 . S
C5055 C5054 1.363 . S
C5055 C5058 1.363 . S
N5056 C5058 1.356 . S
N5056 H5068 0.984 . S
N5056 H5069 0.985 . S
N5057 C5059 1.356 . S
N5057 H5062 0.984 . S
N5057 H5063 0.985 . S
C5058 C5052 1.379 . S
C5058 C5055 1.363 . S
C5058 N5056 1.356 . S
C5059 C5053 1.363 . S
C5059 C5054 1.379 . S
C5059 N5057 1.356 . S
N5060 C5052 1.356 . S
N5060 H5066 0.984 . S
N5060 H5067 0.984 . S
N5061 C5054 1.356 . S
N5061 H5064 0.984 . S
N5061 H5065 0.985 . S
H5062 N5057 0.984 . S
H5063 N5057 0.985 . S
H5064 N5061 0.984 . S
H5065 N5061 0.985 . S
H5066 N5060 0.984 . S
H5067 N5060 0.984 . S
H5068 N5056 0.984 . S
H5069 N5056 0.985 . S
C5070 C5071 1.363 . S
C5070 C5076 1.379 . S
C5070 N5078 1.356 . S
C5071 C5070 1.363 . S
C5071 C5077 1.363 . S
C5072 C5073 1.363 . S
C5072 C5077 1.379 . S
C5072 N5079 1.356 . S
C5073 C5072 1.363 . S
C5073 C5076 1.363 . S
N5074 C5076 1.356 . S
N5074 H5086 0.984 . S
N5074 H5087 0.985 . S
N5075 C5077 1.356 . S
N5075 H5080 0.984 . S
N5075 H5081 0.985 . S
C5076 C5070 1.379 . S
C5076 C5073 1.363 . S
C5076 N5074 1.356 . S
C5077 C5071 1.363 . S
C5077 C5072 1.379 . S
C5077 N5075 1.356 . S
N5078 C5070 1.356 . S
N5078 H5084 0.984 . S
N5078 H5085 0.984 . S
N5079 C5072 1.356 . S
N5079 H5082 0.984 . S
N5079 H5083 0.985 . S
H5080 N5075 0.984 . S
H5081 N5075 0.985 . S
H5082 N5079 0.984 . S
H5083 N5079 0.985 . S
H5084 N5078 0.984 . S
H5085 N5078 0.984 . S
H5086 N5074 0.984 . S
H5087 N5074 0.985 . S
C5088 C5089 1.363 . S
C5088 C5094 1.379 . S
C5088 N5096 1.356 . S
C5089 C5088 1.363 . S
C5089 C5095 1.363 . S
C5090 C5091 1.363 . S
C5090 C5095 1.379 . S
C5090 N5097 1.356 . S
C5091 C5090 1.363 . S
C5091 C5094 1.363 . S
N5092 C5094 1.356 . S
N5092 H5104 0.984 . S
N5092 H5105 0.985 . S
N5093 C5095 1.356 . S
N5093 H5098 0.984 . S
N5093 H5099 0.985 . S
C5094 C5088 1.379 . S
C5094 C5091 1.363 . S
C5094 N5092 1.356 . S
C5095 C5089 1.363 . S
C5095 C5090 1.379 . S
C5095 N5093 1.356 . S
N5096 C5088 1.356 . S
N5096 H5102 0.984 . S
N5096 H5103 0.984 . S
N5097 C5090 1.356 . S
N5097 H5100 0.984 . S
N5097 H5101 0.985 . S
H5098 N5093 0.984 . S
H5099 N5093 0.985 . S
H5100 N5097 0.984 . S
H5101 N5097 0.985 . S
H5102 N5096 0.984 . S
H5103 N5096 0.984 . S
H5104 N5092 0.984 . S
H5105 N5092 0.985 . S
C5106 C5107 1.363 . S
C5106 C5112 1.379 . S
C5106 N5114 1.356 . S
C5107 C5106 1.363 . S
C5107 C5113 1.363 . S
C5108 C5109 1.363 . S
C5108 C5113 1.379 . S
C5108 N5115 1.356 . S
C5109 C5108 1.363 . S
C5109 C5112 1.363 . S
N5110 C5112 1.356 . S
N5110 H5122 0.984 . S
N5110 H5123 0.985 . S
N5111 C5113 1.356 . S
N5111 H5116 0.984 . S
N5111 H5117 0.985 . S
C5112 C5106 1.379 . S
C5112 C5109 1.363 . S
C5112 N5110 1.356 . S
C5113 C5107 1.363 . S
C5113 C5108 1.379 . S
C5113 N5111 1.356 . S
N5114 C5106 1.356 . S
N5114 H5120 0.984 . S
N5114 H5121 0.984 . S
N5115 C5108 1.356 . S
N5115 H5118 0.984 . S
N5115 H5119 0.985 . S
H5116 N5111 0.984 . S
H5117 N5111 0.985 . S
H5118 N5115 0.984 . S
H5119 N5115 0.985 . S
H5120 N5114 0.984 . S
H5121 N5114 0.984 . S
H5122 N5110 0.984 . S
H5123 N5110 0.985 . S
C5124 C5125 1.363 . S
C5124 C5130 1.379 . S
C5124 N5132 1.356 . S
C5125 C5124 1.363 . S
C5125 C5131 1.363 . S
C5126 C5127 1.363 . S
C5126 C5131 1.379 . S
C5126 N5133 1.356 . S
C5127 C5126 1.363 . S
C5127 C5130 1.363 . S
N5128 C5130 1.356 . S
N5128 H5140 0.984 . S
N5128 H5141 0.985 . S
N5129 C5131 1.356 . S
N5129 H5134 0.984 . S
N5129 H5135 0.985 . S
C5130 C5124 1.379 . S
C5130 C5127 1.363 . S
C5130 N5128 1.356 . S
C5131 C5125 1.363 . S
C5131 C5126 1.379 . S
C5131 N5129 1.356 . S
N5132 C5124 1.356 . S
N5132 H5138 0.984 . S
N5132 H5139 0.984 . S
N5133 C5126 1.356 . S
N5133 H5136 0.984 . S
N5133 H5137 0.985 . S
H5134 N5129 0.984 . S
H5135 N5129 0.985 . S
H5136 N5133 0.984 . S
H5137 N5133 0.985 . S
H5138 N5132 0.984 . S
H5139 N5132 0.984 . S
H5140 N5128 0.984 . S
H5141 N5128 0.985 . S
C5142 C5143 1.363 . S
C5142 C5148 1.379 . S
C5142 N5150 1.356 . S
C5143 C5142 1.363 . S
C5143 C5149 1.363 . S
C5144 C5145 1.363 . S
C5144 C5149 1.379 . S
C5144 N5151 1.356 . S
C5145 C5144 1.363 . S
C5145 C5148 1.363 . S
N5146 C5148 1.356 . S
N5146 H5158 0.984 . S
N5146 H5159 0.985 . S
N5147 C5149 1.356 . S
N5147 H5152 0.984 . S
N5147 H5153 0.985 . S
C5148 C5142 1.379 . S
C5148 C5145 1.363 . S
C5148 N5146 1.356 . S
C5149 C5143 1.363 . S
C5149 C5144 1.379 . S
C5149 N5147 1.356 . S
N5150 C5142 1.356 . S
N5150 H5156 0.984 . S
N5150 H5157 0.984 . S
N5151 C5144 1.356 . S
N5151 H5154 0.984 . S
N5151 H5155 0.985 . S
H5152 N5147 0.984 . S
H5153 N5147 0.985 . S
H5154 N5151 0.984 . S
H5155 N5151 0.985 . S
H5156 N5150 0.984 . S
H5157 N5150 0.984 . S
H5158 N5146 0.984 . S
H5159 N5146 0.985 . S
C5160 C5161 1.363 . S
C5160 C5166 1.379 . S
C5160 N5168 1.356 . S
C5161 C5160 1.363 . S
C5161 C5167 1.363 . S
C5162 C5163 1.363 . S
C5162 C5167 1.379 . S
C5162 N5169 1.356 . S
C5163 C5162 1.363 . S
C5163 C5166 1.363 . S
N5164 C5166 1.356 . S
N5164 H5176 0.984 . S
N5164 H5177 0.985 . S
N5165 C5167 1.356 . S
N5165 H5170 0.984 . S
N5165 H5171 0.985 . S
C5166 C5160 1.379 . S
C5166 C5163 1.363 . S
C5166 N5164 1.356 . S
C5167 C5161 1.363 . S
C5167 C5162 1.379 . S
C5167 N5165 1.356 . S
N5168 C5160 1.356 . S
N5168 H5174 0.984 . S
N5168 H5175 0.984 . S
N5169 C5162 1.356 . S
N5169 H5172 0.984 . S
N5169 H5173 0.985 . S
H5170 N5165 0.984 . S
H5171 N5165 0.985 . S
H5172 N5169 0.984 . S
H5173 N5169 0.985 . S
H5174 N5168 0.984 . S
H5175 N5168 0.984 . S
H5176 N5164 0.984 . S
H5177 N5164 0.985 . S
C5178 C5179 1.363 . S
C5178 C5184 1.379 . S
C5178 N5186 1.356 . S
C5179 C5178 1.363 . S
C5179 C5185 1.363 . S
C5180 C5181 1.363 . S
C5180 C5185 1.379 . S
C5180 N5187 1.356 . S
C5181 C5180 1.363 . S
C5181 C5184 1.363 . S
N5182 C5184 1.356 . S
N5182 H5194 0.984 . S
N5182 H5195 0.985 . S
N5183 C5185 1.356 . S
N5183 H5188 0.984 . S
N5183 H5189 0.985 . S
C5184 C5178 1.379 . S
C5184 C5181 1.363 . S
C5184 N5182 1.356 . S
C5185 C5179 1.363 . S
C5185 C5180 1.379 . S
C5185 N5183 1.356 . S
N5186 C5178 1.356 . S
N5186 H5192 0.984 . S
N5186 H5193 0.984 . S
N5187 C5180 1.356 . S
N5187 H5190 0.984 . S
N5187 H5191 0.985 . S
H5188 N5183 0.984 . S
H5189 N5183 0.985 . S
H5190 N5187 0.984 . S
H5191 N5187 0.985 . S
H5192 N5186 0.984 . S
H5193 N5186 0.984 . S
H5194 N5182 0.984 . S
H5195 N5182 0.985 . S
C5196 C5197 1.363 . S
C5196 C5202 1.379 . S
C5196 N5204 1.356 . S
C5197 C5196 1.363 . S
C5197 C5203 1.363 . S
C5198 C5199 1.363 . S
C5198 C5203 1.379 . S
C5198 N5205 1.356 . S
C5199 C5198 1.363 . S
C5199 C5202 1.363 . S
N5200 C5202 1.356 . S
N5200 H5212 0.984 . S
N5200 H5213 0.985 . S
N5201 C5203 1.356 . S
N5201 H5206 0.984 . S
N5201 H5207 0.985 . S
C5202 C5196 1.379 . S
C5202 C5199 1.363 . S
C5202 N5200 1.356 . S
C5203 C5197 1.363 . S
C5203 C5198 1.379 . S
C5203 N5201 1.356 . S
N5204 C5196 1.356 . S
N5204 H5210 0.984 . S
N5204 H5211 0.984 . S
N5205 C5198 1.356 . S
N5205 H5208 0.984 . S
N5205 H5209 0.985 . S
H5206 N5201 0.984 . S
H5207 N5201 0.985 . S
H5208 N5205 0.984 . S
H5209 N5205 0.985 . S
H5210 N5204 0.984 . S
H5211 N5204 0.984 . S
H5212 N5200 0.984 . S
H5213 N5200 0.985 . S
C5214 C5215 1.363 . S
C5214 C5220 1.379 . S
C5214 N5222 1.356 . S
C5215 C5214 1.363 . S
C5215 C5221 1.363 . S
C5216 C5217 1.363 . S
C5216 C5221 1.379 . S
C5216 N5223 1.356 . S
C5217 C5216 1.363 . S
C5217 C5220 1.363 . S
N5218 C5220 1.356 . S
N5218 H5230 0.984 . S
N5218 H5231 0.985 . S
N5219 C5221 1.356 . S
N5219 H5224 0.984 . S
N5219 H5225 0.985 . S
C5220 C5214 1.379 . S
C5220 C5217 1.363 . S
C5220 N5218 1.356 . S
C5221 C5215 1.363 . S
C5221 C5216 1.379 . S
C5221 N5219 1.356 . S
N5222 C5214 1.356 . S
N5222 H5228 0.984 . S
N5222 H5229 0.984 . S
N5223 C5216 1.356 . S
N5223 H5226 0.984 . S
N5223 H5227 0.985 . S
H5224 N5219 0.984 . S
H5225 N5219 0.985 . S
H5226 N5223 0.984 . S
H5227 N5223 0.985 . S
H5228 N5222 0.984 . S
H5229 N5222 0.984 . S
H5230 N5218 0.984 . S
H5231 N5218 0.985 . S
C5232 C5233 1.363 . S
C5232 C5238 1.379 . S
C5232 N5240 1.356 . S
C5233 C5232 1.363 . S
C5233 C5239 1.363 . S
C5234 C5235 1.363 . S
C5234 C5239 1.379 . S
C5234 N5241 1.356 . S
C5235 C5234 1.363 . S
C5235 C5238 1.363 . S
N5236 C5238 1.356 . S
N5236 H5248 0.984 . S
N5236 H5249 0.985 . S
N5237 C5239 1.356 . S
N5237 H5242 0.984 . S
N5237 H5243 0.985 . S
C5238 C5232 1.379 . S
C5238 C5235 1.363 . S
C5238 N5236 1.356 . S
C5239 C5233 1.363 . S
C5239 C5234 1.379 . S
C5239 N5237 1.356 . S
N5240 C5232 1.356 . S
N5240 H5246 0.984 . S
N5240 H5247 0.984 . S
N5241 C5234 1.356 . S
N5241 H5244 0.984 . S
N5241 H5245 0.985 . S
H5242 N5237 0.984 . S
H5243 N5237 0.985 . S
H5244 N5241 0.984 . S
H5245 N5241 0.985 . S
H5246 N5240 0.984 . S
H5247 N5240 0.984 . S
H5248 N5236 0.984 . S
H5249 N5236 0.985 . S
C5250 C5251 1.363 . S
C5250 C5256 1.379 . S
C5250 N5258 1.356 . S
C5251 C5250 1.363 . S
C5251 C5257 1.363 . S
C5252 C5253 1.363 . S
C5252 C5257 1.379 . S
C5252 N5259 1.356 1_565 S
C5253 C5252 1.363 . S
C5253 C5256 1.363 . S
N5254 C5256 1.356 . S
N5254 H5266 0.984 . S
N5254 H5267 0.985 1_565 S
N5255 C5257 1.356 . S
N5255 H5260 0.984 . S
N5255 H5261 0.985 . S
C5256 C5250 1.379 . S
C5256 C5253 1.363 . S
C5256 N5254 1.356 . S
C5257 C5251 1.363 . S
C5257 C5252 1.379 . S
C5257 N5255 1.356 . S
N5258 C5250 1.356 . S
N5258 H5264 0.984 . S
N5258 H5265 0.984 . S
N5259 C5252 1.356 1_545 S
N5259 H5262 0.984 . S
N5259 H5263 0.985 . S
H5260 N5255 0.984 . S
H5261 N5255 0.985 . S
H5262 N5259 0.984 . S
H5263 N5259 0.985 . S
H5264 N5258 0.984 . S
H5265 N5258 0.984 . S
H5266 N5254 0.984 . S
H5267 N5254 0.985 1_545 S
C5268 C5269 1.363 . S
C5268 C5274 1.379 . S
C5268 N5276 1.356 . S
C5269 C5268 1.363 . S
C5269 C5275 1.363 . S
C5270 C5271 1.363 . S
C5270 C5275 1.379 . S
C5270 N5277 1.356 . S
C5271 C5270 1.363 . S
C5271 C5274 1.363 . S
N5272 C5274 1.356 . S
N5272 H5284 0.984 . S
N5272 H5285 0.985 . S
N5273 C5275 1.356 . S
N5273 H5278 0.984 . S
N5273 H5279 0.985 . S
C5274 C5268 1.379 . S
C5274 C5271 1.363 . S
C5274 N5272 1.356 . S
C5275 C5269 1.363 . S
C5275 C5270 1.379 . S
C5275 N5273 1.356 . S
N5276 C5268 1.356 . S
N5276 H5282 0.984 . S
N5276 H5283 0.984 . S
N5277 C5270 1.356 . S
N5277 H5280 0.984 . S
N5277 H5281 0.985 . S
H5278 N5273 0.984 . S
H5279 N5273 0.985 . S
H5280 N5277 0.984 . S
H5281 N5277 0.985 . S
H5282 N5276 0.984 . S
H5283 N5276 0.984 . S
H5284 N5272 0.984 . S
H5285 N5272 0.985 . S
C5286 C5287 1.363 . S
C5286 C5292 1.379 . S
C5286 N5294 1.356 . S
C5287 C5286 1.363 . S
C5287 C5293 1.363 . S
C5288 C5289 1.363 . S
C5288 C5293 1.379 . S
C5288 N5295 1.356 . S
C5289 C5288 1.363 . S
C5289 C5292 1.363 . S
N5290 C5292 1.356 . S
N5290 H5302 0.984 . S
N5290 H5303 1.006 . S
N5291 C5293 1.356 . S
N5291 H5296 0.984 . S
N5291 H5297 0.985 . S
C5292 C5286 1.379 . S
C5292 C5289 1.363 . S
C5292 N5290 1.356 . S
C5293 C5287 1.363 . S
C5293 C5288 1.379 . S
C5293 N5291 1.356 . S
N5294 C5286 1.356 . S
N5294 H5300 0.984 . S
N5294 H5301 0.984 . S
N5295 C5288 1.356 . S
N5295 H5298 0.984 . S
N5295 H5299 0.985 . S
H5296 N5291 0.984 . S
H5297 N5291 0.985 . S
H5298 N5295 0.984 . S
H5299 N5295 0.985 . S
H5300 N5294 0.984 . S
H5301 N5294 0.984 . S
H5302 N5290 0.984 . S
H5303 N5290 1.006 . S
C5304 C5305 1.363 . S
C5304 C5310 1.379 . S
C5304 N5312 1.356 . S
C5305 C5304 1.363 . S
C5305 C5311 1.363 . S
C5306 C5307 1.363 . S
C5306 C5311 1.379 . S
C5306 N5313 1.356 . S
C5307 C5306 1.363 . S
C5307 C5310 1.363 . S
N5308 C5310 1.356 . S
N5308 H5320 0.984 . S
N5308 H5321 0.985 . S
N5309 C5311 1.356 . S
N5309 H5314 0.984 . S
N5309 H5315 0.985 . S
C5310 C5304 1.379 . S
C5310 C5307 1.363 . S
C5310 N5308 1.356 . S
C5311 C5305 1.363 . S
C5311 C5306 1.379 . S
C5311 N5309 1.356 . S
N5312 C5304 1.356 . S
N5312 H5318 0.984 . S
N5312 H5319 0.984 . S
N5313 C5306 1.356 . S
N5313 H5316 0.984 . S
N5313 H5317 0.985 . S
H5314 N5309 0.984 . S
H5315 N5309 0.985 . S
H5316 N5313 0.984 . S
H5317 N5313 0.985 . S
H5318 N5312 0.984 . S
H5319 N5312 0.984 . S
H5320 N5308 0.984 . S
H5321 N5308 0.985 . S
C5322 C5323 1.363 . S
C5322 C5328 1.379 . S
C5322 N5330 1.356 . S
C5323 C5322 1.363 . S
C5323 C5329 1.363 . S
C5324 C5325 1.363 . S
C5324 C5329 1.379 . S
C5324 N5331 1.356 . S
C5325 C5324 1.363 . S
C5325 C5328 1.363 . S
N5326 C5328 1.356 . S
N5326 H5338 0.984 . S
N5326 H5339 0.985 . S
N5327 C5329 1.356 . S
N5327 H5332 0.984 . S
N5327 H5333 0.985 . S
C5328 C5322 1.379 . S
C5328 C5325 1.363 . S
C5328 N5326 1.356 . S
C5329 C5323 1.363 . S
C5329 C5324 1.379 . S
C5329 N5327 1.356 . S
N5330 C5322 1.356 . S
N5330 H5336 0.984 . S
N5330 H5337 0.984 . S
N5331 C5324 1.356 . S
N5331 H5334 0.984 . S
N5331 H5335 0.985 . S
H5332 N5327 0.984 . S
H5333 N5327 0.985 . S
H5334 N5331 0.984 . S
H5335 N5331 0.985 . S
H5336 N5330 0.984 . S
H5337 N5330 0.984 . S
H5338 N5326 0.984 . S
H5339 N5326 0.985 . S
C5340 C5341 1.363 . S
C5340 C5346 1.379 . S
C5340 N5348 1.356 . S
C5341 C5340 1.363 . S
C5341 C5347 1.363 . S
C5342 C5343 1.363 . S
C5342 C5347 1.379 . S
C5342 N5349 1.356 . S
C5343 C5342 1.363 . S
C5343 C5346 1.363 . S
N5344 C5346 1.356 . S
N5344 H5356 0.984 . S
N5344 H5357 0.985 . S
N5345 C5347 1.356 . S
N5345 H5350 0.984 . S
N5345 H5351 0.985 . S
C5346 C5340 1.379 . S
C5346 C5343 1.363 . S
C5346 N5344 1.356 . S
C5347 C5341 1.363 . S
C5347 C5342 1.379 . S
C5347 N5345 1.356 . S
N5348 C5340 1.356 . S
N5348 H5354 0.984 . S
N5348 H5355 0.984 . S
N5349 C5342 1.356 . S
N5349 H5352 0.984 . S
N5349 H5353 0.985 . S
H5350 N5345 0.984 . S
H5351 N5345 0.985 . S
H5352 N5349 0.984 . S
H5353 N5349 0.985 . S
H5354 N5348 0.984 . S
H5355 N5348 0.984 . S
H5356 N5344 0.984 . S
H5357 N5344 0.985 . S
C5358 C5359 1.363 . S
C5358 C5364 1.379 . S
C5358 N5366 1.356 . S
C5359 C5358 1.363 . S
C5359 C5365 1.363 . S
C5360 C5361 1.363 . S
C5360 C5365 1.379 . S
C5360 N5367 1.356 . S
C5361 C5360 1.363 . S
C5361 C5364 1.363 . S
N5362 C5364 1.356 . S
N5362 H5374 0.984 . S
N5362 H5375 0.985 . S
N5363 C5365 1.356 . S
N5363 H5368 0.984 . S
N5363 H5369 0.985 . S
C5364 C5358 1.379 . S
C5364 C5361 1.363 . S
C5364 N5362 1.356 . S
C5365 C5359 1.363 . S
C5365 C5360 1.379 . S
C5365 N5363 1.356 . S
N5366 C5358 1.356 . S
N5366 H5372 0.984 . S
N5366 H5373 0.984 . S
N5367 C5360 1.356 . S
N5367 H5370 0.984 . S
N5367 H5371 0.985 . S
H5368 N5363 0.984 . S
H5369 N5363 0.985 . S
H5370 N5367 0.984 . S
H5371 N5367 0.985 . S
H5372 N5366 0.984 . S
H5373 N5366 0.984 . S
H5374 N5362 0.984 . S
H5375 N5362 0.985 . S
C5376 C5377 1.363 . S
C5376 C5382 1.379 . S
C5376 N5384 1.356 . S
C5377 C5376 1.363 . S
C5377 C5383 1.363 . S
C5378 C5379 1.363 . S
C5378 C5383 1.379 . S
C5378 N5385 1.356 . S
C5379 C5378 1.363 . S
C5379 C5382 1.363 . S
N5380 C5382 1.356 . S
N5380 H5392 0.984 . S
N5380 H5393 0.985 . S
N5381 C5383 1.356 . S
N5381 H5386 0.984 . S
N5381 H5387 0.985 . S
C5382 C5376 1.379 . S
C5382 C5379 1.363 . S
C5382 N5380 1.356 . S
C5383 C5377 1.363 . S
C5383 C5378 1.379 . S
C5383 N5381 1.356 . S
N5384 C5376 1.356 . S
N5384 H5390 0.982 1_556 S
N5384 H5391 0.984 1_556 S
N5385 C5378 1.356 . S
N5385 H5388 0.984 . S
N5385 H5389 0.985 . S
H5386 N5381 0.984 . S
H5387 N5381 0.985 . S
H5388 N5385 0.984 . S
H5389 N5385 0.985 . S
H5390 N5384 0.982 1_554 S
H5391 N5384 0.984 1_554 S
H5392 N5380 0.984 . S
H5393 N5380 0.985 . S
C5394 C5395 1.363 . S
C5394 C5400 1.379 . S
C5394 N5402 1.356 . S
C5395 C5394 1.363 . S
C5395 C5401 1.363 . S
C5396 C5397 1.363 . S
C5396 C5401 1.379 . S
C5396 N5403 1.356 . S
C5397 C5396 1.363 . S
C5397 C5400 1.363 . S
N5398 C5400 1.356 . S
N5398 H5410 0.984 . S
N5398 H5411 0.985 . S
N5399 C5401 1.356 . S
N5399 H5404 0.984 . S
N5399 H5405 0.985 . S
C5400 C5394 1.379 . S
C5400 C5397 1.363 . S
C5400 N5398 1.356 . S
C5401 C5395 1.363 . S
C5401 C5396 1.379 . S
C5401 N5399 1.356 . S
N5402 C5394 1.356 . S
N5402 H5408 0.984 . S
N5402 H5409 0.984 . S
N5403 C5396 1.356 . S
N5403 H5406 0.984 . S
N5403 H5407 0.985 . S
H5404 N5399 0.984 . S
H5405 N5399 0.985 . S
H5406 N5403 0.984 . S
H5407 N5403 0.985 . S
H5408 N5402 0.984 . S
H5409 N5402 0.984 . S
H5410 N5398 0.984 . S
H5411 N5398 0.985 . S
C5412 C5413 1.363 . S
C5412 C5418 1.379 . S
C5412 N5420 1.356 . S
C5413 C5412 1.363 . S
C5413 C5419 1.363 . S
C5414 C5415 1.363 . S
C5414 C5419 1.379 . S
C5414 N5421 1.356 . S
C5415 C5414 1.363 . S
C5415 C5418 1.363 . S
N5416 C5418 1.356 . S
N5416 H5428 0.984 . S
N5416 H5429 0.985 . S
N5417 C5419 1.356 . S
N5417 H5422 0.984 . S
N5417 H5423 0.985 . S
C5418 C5412 1.379 . S
C5418 C5415 1.363 . S
C5418 N5416 1.356 . S
C5419 C5413 1.363 . S
C5419 C5414 1.379 . S
C5419 N5417 1.356 . S
N5420 C5412 1.356 . S
N5420 H5426 0.984 . S
N5420 H5427 0.984 . S
N5421 C5414 1.356 . S
N5421 H5424 0.984 . S
N5421 H5425 0.985 . S
H5422 N5417 0.984 . S
H5423 N5417 0.985 . S
H5424 N5421 0.984 . S
H5425 N5421 0.985 . S
H5426 N5420 0.984 . S
H5427 N5420 0.984 . S
H5428 N5416 0.984 . S
H5429 N5416 0.985 . S
C5430 C5431 1.363 . S
C5430 C5436 1.379 . S
C5430 N5438 1.356 . S
C5431 C5430 1.363 . S
C5431 C5437 1.363 . S
C5432 C5433 1.363 . S
C5432 C5437 1.379 . S
C5432 N5439 1.356 . S
C5433 C5432 1.363 . S
C5433 C5436 1.363 . S
N5434 C5436 1.356 . S
N5434 H5446 0.984 . S
N5434 H5447 0.985 . S
N5435 C5437 1.356 . S
N5435 H5440 0.984 . S
N5435 H5441 0.985 . S
C5436 C5430 1.379 . S
C5436 C5433 1.363 . S
C5436 N5434 1.356 . S
C5437 C5431 1.363 . S
C5437 C5432 1.379 . S
C5437 N5435 1.356 . S
N5438 C5430 1.356 . S
N5438 H5444 0.984 . S
N5438 H5445 0.984 . S
N5439 C5432 1.356 . S
N5439 H5442 0.984 . S
N5439 H5443 0.985 . S
H5440 N5435 0.984 . S
H5441 N5435 0.985 . S
H5442 N5439 0.984 . S
H5443 N5439 0.985 . S
H5444 N5438 0.984 . S
H5445 N5438 0.984 . S
H5446 N5434 0.984 . S
H5447 N5434 0.985 . S
C5448 C5449 1.363 . S
C5448 C5454 1.379 . S
C5448 N5456 1.356 . S
C5449 C5448 1.363 . S
C5449 C5455 1.363 . S
C5450 C5451 1.363 . S
C5450 C5455 1.379 . S
C5450 N5457 1.356 . S
C5451 C5450 1.363 . S
C5451 C5454 1.363 . S
N5452 C5454 1.356 . S
N5452 H5464 0.984 . S
N5452 H5465 0.985 . S
N5453 C5455 1.356 . S
N5453 H5458 0.984 . S
N5453 H5459 0.985 . S
C5454 C5448 1.379 . S
C5454 C5451 1.363 . S
C5454 N5452 1.356 . S
C5455 C5449 1.363 . S
C5455 C5450 1.379 . S
C5455 N5453 1.356 . S
N5456 C5448 1.356 . S
N5456 H5462 0.984 . S
N5456 H5463 0.984 . S
N5457 C5450 1.356 . S
N5457 H5460 0.984 . S
N5457 H5461 0.985 . S
H5458 N5453 0.984 . S
H5459 N5453 0.985 . S
H5460 N5457 0.984 . S
H5461 N5457 0.985 . S
H5462 N5456 0.984 . S
H5463 N5456 0.984 . S
H5464 N5452 0.984 . S
H5465 N5452 0.985 . S
C5466 C5467 1.363 . S
C5466 C5472 1.379 . S
C5466 N5474 1.356 . S
C5467 C5466 1.363 . S
C5467 C5473 1.363 . S
C5468 C5469 1.363 . S
C5468 C5473 1.379 . S
C5468 N5475 1.356 . S
C5469 C5468 1.363 . S
C5469 C5472 1.363 . S
N5470 C5472 1.356 . S
N5470 H5482 0.984 . S
N5470 H5483 0.985 . S
N5471 C5473 1.356 . S
N5471 H5476 0.984 . S
N5471 H5477 0.985 . S
C5472 C5466 1.379 . S
C5472 C5469 1.363 . S
C5472 N5470 1.356 . S
C5473 C5467 1.363 . S
C5473 C5468 1.379 . S
C5473 N5471 1.356 . S
N5474 C5466 1.356 . S
N5474 H5480 0.984 . S
N5474 H5481 0.984 . S
N5475 C5468 1.356 . S
N5475 H5478 0.984 . S
N5475 H5479 0.985 . S
H5476 N5471 0.984 . S
H5477 N5471 0.985 . S
H5478 N5475 0.984 . S
H5479 N5475 0.985 . S
H5480 N5474 0.984 . S
H5481 N5474 0.984 . S
H5482 N5470 0.984 . S
H5483 N5470 0.985 . S
C5484 C5485 1.363 . S
C5484 C5490 1.379 . S
C5484 N5492 1.356 . S
C5485 C5484 1.363 . S
C5485 C5491 1.363 . S
C5486 C5487 1.363 . S
C5486 C5491 1.379 . S
C5486 N5493 1.356 . S
C5487 C5486 1.363 . S
C5487 C5490 1.363 . S
N5488 C5490 1.356 . S
N5488 H5500 0.984 . S
N5488 H5501 0.985 . S
N5489 C5491 1.356 . S
N5489 H5494 0.984 1_554 S
N5489 H5495 0.985 . S
C5490 C5484 1.379 . S
C5490 C5487 1.363 . S
C5490 N5488 1.356 . S
C5491 C5485 1.363 . S
C5491 C5486 1.379 . S
C5491 N5489 1.356 . S
N5492 C5484 1.356 . S
N5492 H5498 0.984 . S
N5492 H5499 0.984 1_554 S
N5493 C5486 1.356 . S
N5493 H5496 0.984 . S
N5493 H5497 0.985 . S
H5494 N5489 0.984 1_556 S
H5495 N5489 0.985 . S
H5496 N5493 0.984 . S
H5497 N5493 0.985 . S
H5498 N5492 0.984 . S
H5499 N5492 0.984 1_556 S
H5500 N5488 0.984 . S
H5501 N5488 0.985 . S
C5502 C5503 1.363 . S
C5502 C5508 1.379 . S
C5502 N5510 1.356 . S
C5503 C5502 1.363 . S
C5503 C5509 1.363 . S
C5504 C5505 1.363 . S
C5504 C5509 1.379 . S
C5504 N5511 1.356 . S
C5505 C5504 1.363 . S
C5505 C5508 1.363 . S
N5506 C5508 1.356 . S
N5506 H5518 0.984 . S
N5506 H5519 0.985 . S
N5507 C5509 1.356 . S
N5507 H5512 0.984 . S
N5507 H5513 0.985 . S
C5508 C5502 1.379 . S
C5508 C5505 1.363 . S
C5508 N5506 1.356 . S
C5509 C5503 1.363 . S
C5509 C5504 1.379 . S
C5509 N5507 1.356 . S
N5510 C5502 1.356 . S
N5510 H5516 0.984 . S
N5510 H5517 0.984 . S
N5511 C5504 1.356 . S
N5511 H5514 0.984 . S
N5511 H5515 0.985 . S
H5512 N5507 0.984 . S
H5513 N5507 0.985 . S
H5514 N5511 0.984 . S
H5515 N5511 0.985 . S
H5516 N5510 0.984 . S
H5517 N5510 0.984 . S
H5518 N5506 0.984 . S
H5519 N5506 0.985 . S
C5520 C5521 1.363 . S
C5520 C5526 1.379 . S
C5520 N5528 1.356 . S
C5521 C5520 1.363 . S
C5521 C5527 1.363 . S
C5522 C5523 1.363 . S
C5522 C5527 1.379 . S
C5522 N5529 1.356 . S
C5523 C5522 1.363 . S
C5523 C5526 1.363 . S
N5524 C5526 1.356 . S
N5524 H5536 0.984 . S
N5524 H5537 0.985 . S
N5525 C5527 1.356 . S
N5525 H5530 0.984 . S
N5525 H5531 0.985 . S
C5526 C5520 1.379 . S
C5526 C5523 1.363 . S
C5526 N5524 1.356 . S
C5527 C5521 1.363 . S
C5527 C5522 1.379 . S
C5527 N5525 1.356 . S
N5528 C5520 1.356 . S
N5528 H5534 0.984 . S
N5528 H5535 0.984 . S
N5529 C5522 1.356 . S
N5529 H5532 0.984 . S
N5529 H5533 0.985 . S
H5530 N5525 0.984 . S
H5531 N5525 0.985 . S
H5532 N5529 0.984 . S
H5533 N5529 0.985 . S
H5534 N5528 0.984 . S
H5535 N5528 0.984 . S
H5536 N5524 0.984 . S
H5537 N5524 0.985 . S
C5538 C5539 1.363 . S
C5538 C5544 1.379 . S
C5538 N5546 1.356 . S
C5539 C5538 1.363 . S
C5539 C5545 1.363 . S
C5540 C5541 1.363 . S
C5540 C5545 1.379 . S
C5540 N5547 1.356 . S
C5541 C5540 1.363 . S
C5541 C5544 1.363 . S
N5542 C5544 1.356 . S
N5542 H5554 0.984 . S
N5542 H5555 0.985 . S
N5543 C5545 1.356 . S
N5543 H5548 0.984 . S
N5543 H5549 0.985 . S
C5544 C5538 1.379 . S
C5544 C5541 1.363 . S
C5544 N5542 1.356 . S
C5545 C5539 1.363 . S
C5545 C5540 1.379 . S
C5545 N5543 1.356 . S
N5546 C5538 1.356 . S
N5546 H5552 0.984 . S
N5546 H5553 0.984 . S
N5547 C5540 1.356 . S
N5547 H5550 0.984 . S
N5547 H5551 0.985 . S
H5548 N5543 0.984 . S
H5549 N5543 0.985 . S
H5550 N5547 0.984 . S
H5551 N5547 0.985 . S
H5552 N5546 0.984 . S
H5553 N5546 0.984 . S
H5554 N5542 0.984 . S
H5555 N5542 0.985 . S
C5556 C5557 1.363 . S
C5556 C5562 1.379 . S
C5556 N5564 1.356 . S
C5557 C5556 1.363 . S
C5557 C5563 1.363 . S
C5558 C5559 1.363 . S
C5558 C5563 1.379 . S
C5558 N5565 1.356 . S
C5559 C5558 1.363 . S
C5559 C5562 1.363 . S
N5560 C5562 1.356 . S
N5560 H5572 0.984 . S
N5560 H5573 0.985 . S
N5561 C5563 1.356 . S
N5561 H5566 0.984 . S
N5561 H5567 0.985 . S
C5562 C5556 1.379 . S
C5562 C5559 1.363 . S
C5562 N5560 1.356 . S
C5563 C5557 1.363 . S
C5563 C5558 1.379 . S
C5563 N5561 1.356 . S
N5564 C5556 1.356 . S
N5564 H5570 0.984 . S
N5564 H5571 0.984 . S
N5565 C5558 1.356 . S
N5565 H5568 0.984 . S
N5565 H5569 0.985 . S
H5566 N5561 0.984 . S
H5567 N5561 0.985 . S
H5568 N5565 0.984 . S
H5569 N5565 0.985 . S
H5570 N5564 0.984 . S
H5571 N5564 0.984 . S
H5572 N5560 0.984 . S
H5573 N5560 0.985 . S
C5574 C5575 1.363 . S
C5574 C5580 1.379 . S
C5574 N5582 1.356 . S
C5575 C5574 1.363 . S
C5575 C5581 1.363 . S
C5576 C5577 1.363 . S
C5576 C5581 1.379 . S
C5576 N5583 1.356 . S
C5577 C5576 1.363 . S
C5577 C5580 1.363 . S
N5578 C5580 1.356 . S
N5578 H5590 0.984 . S
N5578 H5591 0.985 . S
N5579 C5581 1.356 . S
N5579 H5584 0.984 . S
N5579 H5585 0.985 . S
C5580 C5574 1.379 . S
C5580 C5577 1.363 . S
C5580 N5578 1.356 . S
C5581 C5575 1.363 . S
C5581 C5576 1.379 . S
C5581 N5579 1.356 . S
N5582 C5574 1.356 . S
N5582 H5588 0.984 . S
N5582 H5589 0.984 . S
N5583 C5576 1.356 . S
N5583 H5586 0.984 . S
N5583 H5587 0.985 . S
H5584 N5579 0.984 . S
H5585 N5579 0.985 . S
H5586 N5583 0.984 . S
H5587 N5583 0.985 . S
H5588 N5582 0.984 . S
H5589 N5582 0.984 . S
H5590 N5578 0.984 . S
H5591 N5578 0.985 . S
C5592 C5593 1.363 . S
C5592 C5598 1.379 . S
C5592 N5600 1.356 . S
C5593 C5592 1.363 . S
C5593 C5599 1.363 . S
C5594 C5595 1.363 . S
C5594 C5599 1.379 . S
C5594 N5601 1.356 . S
C5595 C5594 1.363 . S
C5595 C5598 1.363 . S
N5596 C5598 1.356 . S
N5596 H5608 0.984 . S
N5596 H5609 0.985 . S
N5597 C5599 1.356 . S
N5597 H5602 0.984 . S
N5597 H5603 0.985 . S
C5598 C5592 1.379 . S
C5598 C5595 1.363 . S
C5598 N5596 1.356 . S
C5599 C5593 1.363 . S
C5599 C5594 1.379 . S
C5599 N5597 1.356 . S
N5600 C5592 1.356 . S
N5600 H5606 0.984 . S
N5600 H5607 0.984 . S
N5601 C5594 1.356 . S
N5601 H5604 0.984 . S
N5601 H5605 0.985 . S
H5602 N5597 0.984 . S
H5603 N5597 0.985 . S
H5604 N5601 0.984 . S
H5605 N5601 0.985 . S
H5606 N5600 0.984 . S
H5607 N5600 0.984 . S
H5608 N5596 0.984 . S
H5609 N5596 0.985 . S
C5610 C5611 1.363 . S
C5610 C5616 1.379 . S
C5610 N5618 1.356 . S
C5611 C5610 1.363 . S
C5611 C5617 1.363 . S
C5612 C5613 1.363 . S
C5612 C5617 1.379 . S
C5612 N5619 1.356 . S
C5613 C5612 1.363 . S
C5613 C5616 1.363 . S
N5614 C5616 1.356 . S
N5614 H5626 0.984 . S
N5614 H5627 0.985 . S
N5615 C5617 1.356 . S
N5615 H5620 0.984 . S
N5615 H5621 0.985 . S
C5616 C5610 1.379 . S
C5616 C5613 1.363 . S
C5616 N5614 1.356 . S
C5617 C5611 1.363 . S
C5617 C5612 1.379 . S
C5617 N5615 1.356 . S
N5618 C5610 1.356 . S
N5618 H5624 0.984 . S
N5618 H5625 0.984 . S
N5619 C5612 1.356 . S
N5619 H5622 0.984 . S
N5619 H5623 0.985 . S
H5620 N5615 0.984 . S
H5621 N5615 0.985 . S
H5622 N5619 0.984 . S
H5623 N5619 0.985 . S
H5624 N5618 0.984 . S
H5625 N5618 0.984 . S
H5626 N5614 0.984 . S
H5627 N5614 0.985 . S
C5628 C5629 1.363 . S
C5628 C5634 1.379 . S
C5628 N5636 1.356 . S
C5629 C5628 1.363 . S
C5629 C5635 1.363 . S
C5630 C5631 1.363 . S
C5630 C5635 1.379 . S
C5630 N5637 1.356 . S
C5631 C5630 1.363 . S
C5631 C5634 1.363 . S
N5632 C5634 1.356 . S
N5632 H5644 0.984 . S
N5632 H5645 0.985 . S
N5633 C5635 1.356 . S
N5633 H5638 0.984 . S
N5633 H5639 0.985 . S
C5634 C5628 1.379 . S
C5634 C5631 1.363 . S
C5634 N5632 1.356 . S
C5635 C5629 1.363 . S
C5635 C5630 1.379 . S
C5635 N5633 1.356 . S
N5636 C5628 1.356 . S
N5636 H5642 0.984 . S
N5636 H5643 0.984 . S
N5637 C5630 1.356 . S
N5637 H5640 0.984 . S
N5637 H5641 0.985 . S
H5638 N5633 0.984 . S
H5639 N5633 0.985 . S
H5640 N5637 0.984 . S
H5641 N5637 0.985 . S
H5642 N5636 0.984 . S
H5643 N5636 0.984 . S
H5644 N5632 0.984 . S
H5645 N5632 0.985 . S
C5646 C5647 1.363 . S
C5646 C5652 1.379 . S
C5646 N5654 1.356 . S
C5647 C5646 1.363 . S
C5647 C5653 1.363 . S
C5648 C5649 1.363 . S
C5648 C5653 1.379 . S
C5648 N5655 1.356 . S
C5649 C5648 1.363 . S
C5649 C5652 1.363 . S
N5650 C5652 1.356 . S
N5650 H5662 0.984 . S
N5650 H5663 0.985 . S
N5651 C5653 1.356 . S
N5651 H5656 0.984 . S
N5651 H5657 0.985 . S
C5652 C5646 1.379 . S
C5652 C5649 1.363 . S
C5652 N5650 1.356 . S
C5653 C5647 1.363 . S
C5653 C5648 1.379 . S
C5653 N5651 1.356 . S
N5654 C5646 1.356 . S
N5654 H5660 0.984 . S
N5654 H5661 0.984 . S
N5655 C5648 1.356 . S
N5655 H5658 0.984 . S
N5655 H5659 0.985 . S
H5656 N5651 0.984 . S
H5657 N5651 0.985 . S
H5658 N5655 0.984 . S
H5659 N5655 0.985 . S
H5660 N5654 0.984 . S
H5661 N5654 0.984 . S
H5662 N5650 0.984 . S
H5663 N5650 0.985 . S
C5664 C5665 1.363 . S
C5664 C5670 1.379 . S
C5664 N5672 1.356 . S
C5665 C5664 1.363 . S
C5665 C5671 1.363 . S
C5666 C5667 1.363 . S
C5666 C5671 1.379 . S
C5666 N5673 1.356 . S
C5667 C5666 1.363 . S
C5667 C5670 1.363 . S
N5668 C5670 1.356 . S
N5668 H5680 0.984 . S
N5668 H5681 0.985 . S
N5669 C5671 1.321 1_545 S
N5669 H5674 1.013 . S
N5669 H5675 0.992 . S
C5670 C5664 1.379 . S
C5670 C5667 1.363 . S
C5670 N5668 1.356 . S
C5671 C5665 1.363 . S
C5671 C5666 1.379 . S
C5671 N5669 1.321 1_565 S
N5672 C5664 1.356 . S
N5672 H5678 0.984 . S
N5672 H5679 0.984 . S
N5673 C5666 1.356 . S
N5673 H5676 0.984 . S
N5673 H5677 0.985 . S
H5674 N5669 1.013 . S
H5675 N5669 0.992 . S
H5676 N5673 0.984 . S
H5677 N5673 0.985 . S
H5678 N5672 0.984 . S
H5679 N5672 0.984 . S
H5680 N5668 0.984 . S
H5681 N5668 0.985 . S
C5682 C5683 1.363 . S
C5682 C5688 1.379 . S
C5682 N5690 1.356 . S
C5683 C5682 1.363 . S
C5683 C5689 1.363 . S
C5684 C5685 1.363 . S
C5684 C5689 1.379 . S
C5684 N5691 1.356 . S
C5685 C5684 1.363 . S
C5685 C5688 1.363 . S
N5686 C5688 1.356 . S
N5686 H5698 0.984 . S
N5686 H5699 0.985 . S
N5687 C5689 1.356 . S
N5687 H5692 0.984 . S
N5687 H5693 0.985 . S
C5688 C5682 1.379 . S
C5688 C5685 1.363 . S
C5688 N5686 1.356 . S
C5689 C5683 1.363 . S
C5689 C5684 1.379 . S
C5689 N5687 1.356 . S
N5690 C5682 1.356 . S
N5690 H5696 0.984 . S
N5690 H5697 0.984 . S
N5691 C5684 1.356 . S
N5691 H5694 0.984 . S
N5691 H5695 0.985 . S
H5692 N5687 0.984 . S
H5693 N5687 0.985 . S
H5694 N5691 0.984 . S
H5695 N5691 0.985 . S
H5696 N5690 0.984 . S
H5697 N5690 0.984 . S
H5698 N5686 0.984 . S
H5699 N5686 0.985 . S
C5700 C5701 1.363 . S
C5700 C5706 1.379 . S
C5700 N5708 1.356 . S
C5701 C5700 1.363 . S
C5701 C5707 1.363 . S
C5702 C5703 1.363 . S
C5702 C5707 1.379 . S
C5702 N5709 1.356 . S
C5703 C5702 1.363 . S
C5703 C5706 1.363 . S
N5704 C5706 1.356 . S
N5704 H5716 0.984 . S
N5704 H5717 0.985 . S
N5705 C5707 1.356 . S
N5705 H5710 0.984 . S
N5705 H5711 0.985 . S
C5706 C5700 1.379 . S
C5706 C5703 1.363 . S
C5706 N5704 1.356 . S
C5707 C5701 1.363 . S
C5707 C5702 1.379 . S
C5707 N5705 1.356 . S
N5708 C5700 1.356 . S
N5708 H5714 0.984 . S
N5708 H5715 0.984 . S
N5709 C5702 1.356 . S
N5709 H5712 0.984 . S
N5709 H5713 0.985 . S
H5710 N5705 0.984 . S
H5711 N5705 0.985 . S
H5712 N5709 0.984 . S
H5713 N5709 0.985 . S
H5714 N5708 0.984 . S
H5715 N5708 0.984 . S
H5716 N5704 0.984 . S
H5717 N5704 0.985 . S
C5718 C5719 1.363 . S
C5718 C5724 1.379 . S
C5718 N5726 1.356 . S
C5719 C5718 1.363 . S
C5719 C5725 1.363 . S
C5720 C5721 1.363 . S
C5720 C5725 1.379 . S
C5720 N5727 1.356 . S
C5721 C5720 1.363 . S
C5721 C5724 1.363 . S
N5722 C5724 1.356 . S
N5722 H5734 0.984 . S
N5722 H5735 0.985 . S
N5723 C5725 1.356 . S
N5723 H5728 0.984 . S
N5723 H5729 0.985 . S
C5724 C5718 1.379 . S
C5724 C5721 1.363 . S
C5724 N5722 1.356 . S
C5725 C5719 1.363 . S
C5725 C5720 1.379 . S
C5725 N5723 1.356 . S
N5726 C5718 1.356 . S
N5726 H5732 0.984 . S
N5726 H5733 0.984 . S
N5727 C5720 1.356 . S
N5727 H5730 0.984 . S
N5727 H5731 0.985 . S
H5728 N5723 0.984 . S
H5729 N5723 0.985 . S
H5730 N5727 0.984 . S
H5731 N5727 0.985 . S
H5732 N5726 0.984 . S
H5733 N5726 0.984 . S
H5734 N5722 0.984 . S
H5735 N5722 0.985 . S
C5736 C5737 1.363 . S
C5736 C5742 1.379 . S
C5736 N5744 1.356 . S
C5737 C5736 1.363 . S
C5737 C5743 1.363 . S
C5738 C5739 1.363 . S
C5738 C5743 1.379 . S
C5738 N5745 1.356 . S
C5739 C5738 1.363 . S
C5739 C5742 1.363 . S
N5740 C5742 1.356 . S
N5740 H5752 0.984 . S
N5740 H5753 0.985 . S
N5741 C5743 1.356 . S
N5741 H5746 0.984 . S
N5741 H5747 0.985 . S
C5742 C5736 1.379 . S
C5742 C5739 1.363 . S
C5742 N5740 1.356 . S
C5743 C5737 1.363 . S
C5743 C5738 1.379 . S
C5743 N5741 1.356 . S
N5744 C5736 1.356 . S
N5744 H5750 0.984 . S
N5744 H5751 0.984 . S
N5745 C5738 1.356 . S
N5745 H5748 0.984 . S
N5745 H5749 0.985 . S
H5746 N5741 0.984 . S
H5747 N5741 0.985 . S
H5748 N5745 0.984 . S
H5749 N5745 0.985 . S
H5750 N5744 0.984 . S
H5751 N5744 0.984 . S
H5752 N5740 0.984 . S
H5753 N5740 0.985 . S
C5754 C5755 1.363 . S
C5754 C5760 1.379 . S
C5754 N5762 1.356 . S
C5755 C5754 1.363 . S
C5755 C5761 1.363 . S
C5756 C5757 1.363 . S
C5756 C5761 1.379 . S
C5756 N5763 1.356 . S
C5757 C5756 1.363 . S
C5757 C5760 1.363 . S
N5758 C5760 1.356 . S
N5758 H5770 0.984 . S
N5758 H5771 0.985 . S
N5759 C5761 1.356 . S
N5759 H5764 0.984 . S
N5759 H5765 0.985 . S
C5760 C5754 1.379 . S
C5760 C5757 1.363 . S
C5760 N5758 1.356 . S
C5761 C5755 1.363 . S
C5761 C5756 1.379 . S
C5761 N5759 1.356 . S
N5762 C5754 1.356 . S
N5762 H5768 0.984 . S
N5762 H5769 0.984 . S
N5763 C5756 1.356 . S
N5763 H5766 0.984 1_545 S
N5763 H5767 0.985 . S
H5764 N5759 0.984 . S
H5765 N5759 0.985 . S
H5766 N5763 0.984 1_565 S
H5767 N5763 0.985 . S
H5768 N5762 0.984 . S
H5769 N5762 0.984 . S
H5770 N5758 0.984 . S
H5771 N5758 0.985 . S
C5772 C5773 1.363 . S
C5772 C5778 1.379 . S
C5772 N5780 1.356 . S
C5773 C5772 1.363 . S
C5773 C5779 1.363 . S
C5774 C5775 1.363 . S
C5774 C5779 1.379 . S
C5774 N5781 1.356 . S
C5775 C5774 1.363 . S
C5775 C5778 1.363 . S
N5776 C5778 1.356 . S
N5776 H5788 0.984 . S
N5776 H5789 0.985 . S
N5777 C5779 1.356 . S
N5777 H5782 0.984 . S
N5777 H5783 0.985 . S
C5778 C5772 1.379 . S
C5778 C5775 1.363 . S
C5778 N5776 1.356 . S
C5779 C5773 1.363 . S
C5779 C5774 1.379 . S
C5779 N5777 1.356 . S
N5780 C5772 1.356 . S
N5780 H5786 0.984 . S
N5780 H5787 0.984 . S
N5781 C5774 1.356 . S
N5781 H5784 0.984 . S
N5781 H5785 0.985 . S
H5782 N5777 0.984 . S
H5783 N5777 0.985 . S
H5784 N5781 0.984 . S
H5785 N5781 0.985 . S
H5786 N5780 0.984 . S
H5787 N5780 0.984 . S
H5788 N5776 0.984 . S
H5789 N5776 0.985 . S
C5790 C5791 1.363 . S
C5790 C5796 1.379 . S
C5790 N5798 1.356 . S
C5791 C5790 1.363 . S
C5791 C5797 1.363 . S
C5792 C5793 1.363 . S
C5792 C5797 1.379 . S
C5792 N5799 1.356 . S
C5793 C5792 1.363 . S
C5793 C5796 1.363 . S
N5794 C5796 1.356 . S
N5794 H5806 0.984 . S
N5794 H5807 0.985 . S
N5795 C5797 1.356 . S
N5795 H5800 0.984 . S
N5795 H5801 0.985 . S
C5796 C5790 1.379 . S
C5796 C5793 1.363 . S
C5796 N5794 1.356 . S
C5797 C5791 1.363 . S
C5797 C5792 1.379 . S
C5797 N5795 1.356 . S
N5798 C5790 1.356 . S
N5798 H5804 0.984 . S
N5798 H5805 0.984 . S
N5799 C5792 1.356 . S
N5799 H5802 0.984 . S
N5799 H5803 0.985 . S
H5800 N5795 0.984 . S
H5801 N5795 0.985 . S
H5802 N5799 0.984 . S
H5803 N5799 0.985 . S
H5804 N5798 0.984 . S
H5805 N5798 0.984 . S
H5806 N5794 0.984 . S
H5807 N5794 0.985 . S
C5808 C5809 1.363 . S
C5808 C5814 1.379 . S
C5808 N5816 1.356 . S
C5809 C5808 1.363 . S
C5809 C5815 1.363 . S
C5810 C5811 1.363 . S
C5810 C5815 1.379 . S
C5810 N5817 1.356 . S
C5811 C5810 1.363 . S
C5811 C5814 1.363 . S
N5812 C5814 1.356 . S
N5812 H5824 0.984 . S
N5812 H5825 0.985 . S
N5813 C5815 1.356 . S
N5813 H5818 0.984 1_554 S
N5813 H5819 0.985 . S
C5814 C5808 1.379 . S
C5814 C5811 1.363 . S
C5814 N5812 1.356 . S
C5815 C5809 1.363 . S
C5815 C5810 1.379 . S
C5815 N5813 1.356 . S
N5816 C5808 1.356 . S
N5816 H5822 0.984 . S
N5816 H5823 0.984 . S
N5817 C5810 1.356 . S
N5817 H5820 0.984 . S
N5817 H5821 0.985 . S
H5818 N5813 0.984 1_556 S
H5819 N5813 0.985 . S
H5820 N5817 0.984 . S
H5821 N5817 0.985 . S
H5822 N5816 0.984 . S
H5823 N5816 0.984 . S
H5824 N5812 0.984 . S
H5825 N5812 0.985 . S
C5826 C5827 1.363 . S
C5826 C5832 1.379 . S
C5826 N5834 1.356 . S
C5827 C5826 1.363 . S
C5827 C5833 1.363 . S
C5828 C5829 1.363 . S
C5828 C5833 1.379 . S
C5828 N5835 1.356 . S
C5829 C5828 1.363 . S
C5829 C5832 1.363 . S
N5830 C5832 1.356 . S
N5830 H5842 0.984 . S
N5830 H5843 0.985 . S
N5831 C5833 1.356 . S
N5831 H5836 0.984 . S
N5831 H5837 0.985 . S
C5832 C5826 1.379 . S
C5832 C5829 1.363 . S
C5832 N5830 1.356 . S
C5833 C5827 1.363 . S
C5833 C5828 1.379 . S
C5833 N5831 1.356 . S
N5834 C5826 1.356 . S
N5834 H5840 0.984 . S
N5834 H5841 0.984 . S
N5835 C5828 1.356 . S
N5835 H5838 0.984 . S
N5835 H5839 0.985 . S
H5836 N5831 0.984 . S
H5837 N5831 0.985 . S
H5838 N5835 0.984 . S
H5839 N5835 0.985 . S
H5840 N5834 0.984 . S
H5841 N5834 0.984 . S
H5842 N5830 0.984 . S
H5843 N5830 0.985 . S
C5844 C5845 1.363 . S
C5844 C5850 1.379 . S
C5844 N5852 1.356 . S
C5845 C5844 1.363 . S
C5845 C5851 1.363 . S
C5846 C5847 1.363 . S
C5846 C5851 1.379 . S
C5846 N5853 1.356 . S
C5847 C5846 1.363 . S
C5847 C5850 1.363 . S
N5848 C5850 1.356 . S
N5848 H5860 0.984 . S
N5848 H5861 0.985 . S
N5849 C5851 1.356 . S
N5849 H5854 0.984 . S
N5849 H5855 0.985 . S
C5850 C5844 1.379 . S
C5850 C5847 1.363 . S
C5850 N5848 1.356 . S
C5851 C5845 1.363 . S
C5851 C5846 1.379 . S
C5851 N5849 1.356 . S
N5852 C5844 1.356 . S
N5852 H5858 0.984 . S
N5852 H5859 0.984 . S
N5853 C5846 1.356 . S
N5853 H5856 0.984 . S
N5853 H5857 0.985 . S
H5854 N5849 0.984 . S
H5855 N5849 0.985 . S
H5856 N5853 0.984 . S
H5857 N5853 0.985 . S
H5858 N5852 0.984 . S
H5859 N5852 0.984 . S
H5860 N5848 0.984 . S
H5861 N5848 0.985 . S
C5862 C5863 1.363 . S
C5862 C5868 1.379 . S
C5862 N5870 1.356 . S
C5863 C5862 1.363 . S
C5863 C5869 1.363 . S
C5864 C5865 1.363 . S
C5864 C5869 1.379 . S
C5864 N5871 1.356 . S
C5865 C5864 1.363 . S
C5865 C5868 1.363 . S
N5866 C5868 1.356 . S
N5866 H5878 0.984 . S
N5866 H5879 0.985 . S
N5867 C5869 1.356 . S
N5867 H5872 0.984 . S
N5867 H5873 0.985 . S
C5868 C5862 1.379 . S
C5868 C5865 1.363 . S
C5868 N5866 1.356 . S
C5869 C5863 1.363 . S
C5869 C5864 1.379 . S
C5869 N5867 1.356 . S
N5870 C5862 1.356 . S
N5870 H5876 0.984 . S
N5870 H5877 0.984 . S
N5871 C5864 1.356 . S
N5871 H5874 0.984 . S
N5871 H5875 0.985 . S
H5872 N5867 0.984 . S
H5873 N5867 0.985 . S
H5874 N5871 0.984 . S
H5875 N5871 0.985 . S
H5876 N5870 0.984 . S
H5877 N5870 0.984 . S
H5878 N5866 0.984 . S
H5879 N5866 0.985 . S
C5880 C5881 1.363 . S
C5880 C5886 1.379 . S
C5880 N5888 1.356 . S
C5881 C5880 1.363 . S
C5881 C5887 1.363 . S
C5882 C5883 1.363 . S
C5882 C5887 1.379 . S
C5882 N5889 1.356 . S
C5883 C5882 1.363 . S
C5883 C5886 1.363 . S
N5884 C5886 1.356 . S
N5884 H5896 0.984 . S
N5884 H5897 0.985 . S
N5885 C5887 1.356 . S
N5885 H5890 0.984 . S
N5885 H5891 0.985 . S
C5886 C5880 1.379 . S
C5886 C5883 1.363 . S
C5886 N5884 1.356 . S
C5887 C5881 1.363 . S
C5887 C5882 1.379 . S
C5887 N5885 1.356 . S
N5888 C5880 1.356 . S
N5888 H5894 0.984 . S
N5888 H5895 0.984 . S
N5889 C5882 1.356 . S
N5889 H5892 0.984 . S
N5889 H5893 0.985 . S
H5890 N5885 0.984 . S
H5891 N5885 0.985 . S
H5892 N5889 0.984 . S
H5893 N5889 0.985 . S
H5894 N5888 0.984 . S
H5895 N5888 0.984 . S
H5896 N5884 0.984 . S
H5897 N5884 0.985 . S
C5898 C5899 1.363 . S
C5898 C5904 1.379 . S
C5898 N5906 1.356 . S
C5899 C5898 1.363 . S
C5899 C5905 1.363 . S
C5900 C5901 1.363 . S
C5900 C5905 1.379 . S
C5900 N5907 1.356 . S
C5901 C5900 1.363 . S
C5901 C5904 1.363 . S
N5902 C5904 1.356 . S
N5902 H5914 0.984 . S
N5902 H5915 0.985 . S
N5903 C5905 1.356 . S
N5903 H5908 0.984 . S
N5903 H5909 0.985 . S
C5904 C5898 1.379 . S
C5904 C5901 1.363 . S
C5904 N5902 1.356 . S
C5905 C5899 1.363 . S
C5905 C5900 1.379 . S
C5905 N5903 1.356 . S
N5906 C5898 1.356 . S
N5906 H5912 0.984 . S
N5906 H5913 0.984 . S
N5907 C5900 1.356 . S
N5907 H5910 0.984 . S
N5907 H5911 0.985 . S
H5908 N5903 0.984 . S
H5909 N5903 0.985 . S
H5910 N5907 0.984 . S
H5911 N5907 0.985 . S
H5912 N5906 0.984 . S
H5913 N5906 0.984 . S
H5914 N5902 0.984 . S
H5915 N5902 0.985 . S
C5916 C5917 1.363 . S
C5916 C5922 1.379 . S
C5916 N5924 1.356 . S
C5917 C5916 1.363 . S
C5917 C5923 1.363 . S
C5918 C5919 1.363 . S
C5918 C5923 1.379 . S
C5918 N5925 1.356 . S
C5919 C5918 1.363 . S
C5919 C5922 1.363 . S
N5920 C5922 1.356 . S
N5920 H5932 0.984 . S
N5920 H5933 0.985 . S
N5921 C5923 1.320 1_554 S
N5921 H5926 1.019 . S
N5921 H5927 0.987 . S
C5922 C5916 1.379 . S
C5922 C5919 1.363 . S
C5922 N5920 1.356 . S
C5923 C5917 1.363 . S
C5923 C5918 1.379 . S
C5923 N5921 1.320 1_556 S
N5924 C5916 1.356 . S
N5924 H5930 0.984 . S
N5924 H5931 0.988 1_556 S
N5925 C5918 1.356 . S
N5925 H5928 0.984 . S
N5925 H5929 0.985 . S
H5926 N5921 1.019 . S
H5927 N5921 0.987 . S
H5928 N5925 0.984 . S
H5929 N5925 0.985 . S
H5930 N5924 0.984 . S
H5931 N5924 0.988 1_554 S
H5932 N5920 0.984 . S
H5933 N5920 0.985 . S
C5934 C5935 1.363 . S
C5934 C5940 1.379 . S
C5934 N5942 1.356 . S
C5935 C5934 1.363 . S
C5935 C5941 1.363 . S
C5936 C5937 1.363 . S
C5936 C5941 1.379 . S
C5936 N5943 1.356 . S
C5937 C5936 1.363 . S
C5937 C5940 1.363 . S
N5938 C5940 1.356 . S
N5938 H5950 0.984 . S
N5938 H5951 0.985 . S
N5939 C5941 1.356 . S
N5939 H5944 0.984 . S
N5939 H5945 0.985 . S
C5940 C5934 1.379 . S
C5940 C5937 1.363 . S
C5940 N5938 1.356 . S
C5941 C5935 1.363 . S
C5941 C5936 1.379 . S
C5941 N5939 1.356 . S
N5942 C5934 1.356 . S
N5942 H5948 0.984 . S
N5942 H5949 0.984 . S
N5943 C5936 1.356 . S
N5943 H5946 0.984 . S
N5943 H5947 0.985 . S
H5944 N5939 0.984 . S
H5945 N5939 0.985 . S
H5946 N5943 0.984 . S
H5947 N5943 0.985 . S
H5948 N5942 0.984 . S
H5949 N5942 0.984 . S
H5950 N5938 0.984 . S
H5951 N5938 0.985 . S
C5952 C5953 1.363 . S
C5952 C5958 1.379 . S
C5952 N5960 1.356 . S
C5953 C5952 1.363 . S
C5953 C5959 1.363 . S
C5954 C5955 1.363 . S
C5954 C5959 1.379 . S
C5954 N5961 1.356 . S
C5955 C5954 1.363 . S
C5955 C5958 1.363 . S
N5956 C5958 1.356 . S
N5956 H5968 0.984 . S
N5956 H5969 0.985 . S
N5957 C5959 1.356 . S
N5957 H5962 0.984 . S
N5957 H5963 0.985 . S
C5958 C5952 1.379 . S
C5958 C5955 1.363 . S
C5958 N5956 1.356 . S
C5959 C5953 1.363 . S
C5959 C5954 1.379 . S
C5959 N5957 1.356 . S
N5960 C5952 1.356 . S
N5960 H5966 0.984 . S
N5960 H5967 0.984 . S
N5961 C5954 1.356 . S
N5961 H5964 0.984 . S
N5961 H5965 0.985 . S
H5962 N5957 0.984 . S
H5963 N5957 0.985 . S
H5964 N5961 0.984 . S
H5965 N5961 0.985 . S
H5966 N5960 0.984 . S
H5967 N5960 0.984 . S
H5968 N5956 0.984 . S
H5969 N5956 0.985 . S
C5970 C5971 1.363 . S
C5970 C5976 1.379 . S
C5970 N5978 1.356 . S
C5971 C5970 1.363 . S
C5971 C5977 1.363 . S
C5972 C5973 1.363 . S
C5972 C5977 1.379 . S
C5972 N5979 1.356 . S
C5973 C5972 1.363 . S
C5973 C5976 1.363 . S
N5974 C5976 1.356 . S
N5974 H5986 0.984 . S
N5974 H5987 0.985 . S
N5975 C5977 1.356 . S
N5975 H5980 0.984 . S
N5975 H5981 0.985 . S
C5976 C5970 1.379 . S
C5976 C5973 1.363 . S
C5976 N5974 1.356 . S
C5977 C5971 1.363 . S
C5977 C5972 1.379 . S
C5977 N5975 1.356 . S
N5978 C5970 1.356 . S
N5978 H5984 0.984 . S
N5978 H5985 0.984 . S
N5979 C5972 1.356 . S
N5979 H5982 0.984 . S
N5979 H5983 0.985 . S
H5980 N5975 0.984 . S
H5981 N5975 0.985 . S
H5982 N5979 0.984 . S
H5983 N5979 0.985 . S
H5984 N5978 0.984 . S
H5985 N5978 0.984 . S
H5986 N5974 0.984 . S
H5987 N5974 0.985 . S
C5988 C5989 1.363 . S
C5988 C5994 1.379 . S
C5988 N5996 1.356 . S
C5989 C5988 1.363 . S
C5989 C5995 1.363 . S
C5990 C5991 1.363 . S
C5990 C5995 1.379 . S
C5990 N5997 1.356 . S
C5991 C5990 1.363 . S
C5991 C5994 1.363 . S
N5992 C5994 1.356 . S
N5992 H6004 0.984 . S
N5992 H6005 0.985 . S
N5993 C5995 1.356 . S
N5993 H5998 0.984 . S
N5993 H5999 0.985 . S
C5994 C5988 1.379 . S
C5994 C5991 1.363 . S
C5994 N5992 1.356 . S
C5995 C5989 1.363 . S
C5995 C5990 1.379 . S
C5995 N5993 1.356 . S
N5996 C5988 1.356 . S
N5996 H6002 0.984 . S
N5996 H6003 0.984 . S
N5997 C5990 1.356 . S
N5997 H6000 0.984 . S
N5997 H6001 0.985 . S
H5998 N5993 0.984 . S
H5999 N5993 0.985 . S
H6000 N5997 0.984 . S
H6001 N5997 0.985 . S
H6002 N5996 0.984 . S
H6003 N5996 0.984 . S
H6004 N5992 0.984 . S
H6005 N5992 0.985 . S
C6006 C6007 1.363 . S
C6006 C6012 1.379 . S
C6006 N6014 1.356 . S
C6007 C6006 1.363 . S
C6007 C6013 1.363 . S
C6008 C6009 1.363 . S
C6008 C6013 1.379 . S
C6008 N6015 1.356 . S
C6009 C6008 1.363 . S
C6009 C6012 1.363 . S
N6010 C6012 1.356 . S
N6010 H6022 0.984 . S
N6010 H6023 0.985 . S
N6011 C6013 1.356 . S
N6011 H6016 0.984 . S
N6011 H6017 0.985 . S
C6012 C6006 1.379 . S
C6012 C6009 1.363 . S
C6012 N6010 1.356 . S
C6013 C6007 1.363 . S
C6013 C6008 1.379 . S
C6013 N6011 1.356 . S
N6014 C6006 1.356 . S
N6014 H6020 0.984 . S
N6014 H6021 0.984 . S
N6015 C6008 1.356 . S
N6015 H6018 0.984 . S
N6015 H6019 0.985 . S
H6016 N6011 0.984 . S
H6017 N6011 0.985 . S
H6018 N6015 0.984 . S
H6019 N6015 0.985 . S
H6020 N6014 0.984 . S
H6021 N6014 0.984 . S
H6022 N6010 0.984 . S
H6023 N6010 0.985 . S
C6024 C6025 1.363 . S
C6024 C6030 1.379 . S
C6024 N6032 1.356 . S
C6025 C6024 1.363 . S
C6025 C6031 1.363 . S
C6026 C6027 1.363 . S
C6026 C6031 1.379 . S
C6026 N6033 1.356 . S
C6027 C6026 1.363 . S
C6027 C6030 1.363 . S
N6028 C6030 1.356 . S
N6028 H6040 0.984 . S
N6028 H6041 0.985 . S
N6029 C6031 1.356 . S
N6029 H6034 0.984 . S
N6029 H6035 0.985 . S
C6030 C6024 1.379 . S
C6030 C6027 1.363 . S
C6030 N6028 1.356 . S
C6031 C6025 1.363 . S
C6031 C6026 1.379 . S
C6031 N6029 1.356 . S
N6032 C6024 1.356 . S
N6032 H6038 0.984 . S
N6032 H6039 0.984 1_455 S
N6033 C6026 1.356 . S
N6033 H6036 0.984 . S
N6033 H6037 0.985 . S
H6034 N6029 0.984 . S
H6035 N6029 0.985 . S
H6036 N6033 0.984 . S
H6037 N6033 0.985 . S
H6038 N6032 0.984 . S
H6039 N6032 0.984 1_655 S
H6040 N6028 0.984 . S
H6041 N6028 0.985 . S
C6042 C6043 1.363 . S
C6042 C6048 1.379 . S
C6042 N6050 1.356 . S
C6043 C6042 1.363 . S
C6043 C6049 1.363 . S
C6044 C6045 1.363 . S
C6044 C6049 1.379 . S
C6044 N6051 1.356 . S
C6045 C6044 1.363 . S
C6045 C6048 1.363 . S
N6046 C6048 1.356 . S
N6046 H6058 0.984 . S
N6046 H6059 0.985 . S
N6047 C6049 1.356 . S
N6047 H6052 0.984 . S
N6047 H6053 0.985 . S
C6048 C6042 1.379 . S
C6048 C6045 1.363 . S
C6048 N6046 1.356 . S
C6049 C6043 1.363 . S
C6049 C6044 1.379 . S
C6049 N6047 1.356 . S
N6050 C6042 1.356 . S
N6050 H6056 0.984 . S
N6050 H6057 0.984 . S
N6051 C6044 1.356 . S
N6051 H6054 0.984 . S
N6051 H6055 0.985 . S
H6052 N6047 0.984 . S
H6053 N6047 0.985 . S
H6054 N6051 0.984 . S
H6055 N6051 0.985 . S
H6056 N6050 0.984 . S
H6057 N6050 0.984 . S
H6058 N6046 0.984 . S
H6059 N6046 0.985 . S
C6060 C6061 1.363 . S
C6060 C6066 1.379 . S
C6060 N6068 1.356 . S
C6061 C6060 1.363 . S
C6061 C6067 1.363 . S
C6062 C6063 1.363 . S
C6062 C6067 1.379 . S
C6062 N6069 1.356 . S
C6063 C6062 1.363 . S
C6063 C6066 1.363 . S
N6064 C6066 1.356 . S
N6064 H6076 0.984 . S
N6064 H6077 0.985 . S
N6065 C6067 1.356 . S
N6065 H6070 0.984 . S
N6065 H6071 0.985 . S
C6066 C6060 1.379 . S
C6066 C6063 1.363 . S
C6066 N6064 1.356 . S
C6067 C6061 1.363 . S
C6067 C6062 1.379 . S
C6067 N6065 1.356 . S
N6068 C6060 1.356 . S
N6068 H6074 0.984 . S
N6068 H6075 0.984 . S
N6069 C6062 1.356 . S
N6069 H6072 0.984 . S
N6069 H6073 0.985 . S
H6070 N6065 0.984 . S
H6071 N6065 0.985 . S
H6072 N6069 0.984 . S
H6073 N6069 0.985 . S
H6074 N6068 0.984 . S
H6075 N6068 0.984 . S
H6076 N6064 0.984 . S
H6077 N6064 0.985 . S
C6078 C6079 1.363 . S
C6078 C6084 1.379 . S
C6078 N6086 1.356 . S
C6079 C6078 1.363 . S
C6079 C6085 1.363 . S
C6080 C6081 1.363 . S
C6080 C6085 1.379 . S
C6080 N6087 1.356 . S
C6081 C6080 1.363 . S
C6081 C6084 1.363 . S
N6082 C6084 1.356 . S
N6082 H6094 0.984 . S
N6082 H6095 0.985 . S
N6083 C6085 1.356 . S
N6083 H6088 0.984 . S
N6083 H6089 0.985 . S
C6084 C6078 1.379 . S
C6084 C6081 1.363 . S
C6084 N6082 1.356 . S
C6085 C6079 1.363 . S
C6085 C6080 1.379 . S
C6085 N6083 1.356 . S
N6086 C6078 1.356 . S
N6086 H6092 0.984 . S
N6086 H6093 0.984 . S
N6087 C6080 1.356 . S
N6087 H6090 0.984 . S
N6087 H6091 0.985 . S
H6088 N6083 0.984 . S
H6089 N6083 0.985 . S
H6090 N6087 0.984 . S
H6091 N6087 0.985 . S
H6092 N6086 0.984 . S
H6093 N6086 0.984 . S
H6094 N6082 0.984 . S
H6095 N6082 0.985 . S
C6096 C6097 1.363 . S
C6096 C6102 1.379 . S
C6096 N6104 1.356 . S
C6097 C6096 1.363 . S
C6097 C6103 1.363 . S
C6098 C6099 1.363 . S
C6098 C6103 1.379 . S
C6098 N6105 1.356 . S
C6099 C6098 1.363 . S
C6099 C6102 1.363 . S
N6100 C6102 1.356 . S
N6100 H6112 0.984 . S
N6100 H6113 0.985 . S
N6101 C6103 1.356 . S
N6101 H6106 0.984 1_545 S
N6101 H6107 0.985 . S
C6102 C6096 1.379 . S
C6102 C6099 1.363 . S
C6102 N6100 1.356 . S
C6103 C6097 1.363 . S
C6103 C6098 1.379 . S
C6103 N6101 1.356 . S
N6104 C6096 1.356 . S
N6104 H6110 0.984 . S
N6104 H6111 0.954 1_545 S
N6105 C6098 1.356 . S
N6105 H6108 0.984 . S
N6105 H6109 0.985 . S
H6106 N6101 0.984 1_565 S
H6107 N6101 0.985 . S
H6108 N6105 0.984 . S
H6109 N6105 0.985 . S
H6110 N6104 0.984 . S
H6111 N6104 0.954 1_565 S
H6112 N6100 0.984 . S
H6113 N6100 0.985 . S
C6114 C6115 1.363 . S
C6114 C6120 1.379 . S
C6114 N6122 1.356 . S
C6115 C6114 1.363 . S
C6115 C6121 1.363 . S
C6116 C6117 1.363 . S
C6116 C6121 1.379 . S
C6116 N6123 1.356 . S
C6117 C6116 1.363 . S
C6117 C6120 1.363 . S
N6118 C6120 1.356 . S
N6118 H6130 0.984 . S
N6118 H6131 0.985 . S
N6119 C6121 1.356 . S
N6119 H6124 0.984 . S
N6119 H6125 0.985 . S
C6120 C6114 1.379 . S
C6120 C6117 1.363 . S
C6120 N6118 1.356 . S
C6121 C6115 1.363 . S
C6121 C6116 1.379 . S
C6121 N6119 1.356 . S
N6122 C6114 1.356 . S
N6122 H6128 0.984 . S
N6122 H6129 0.984 . S
N6123 C6116 1.356 . S
N6123 H6126 0.984 . S
N6123 H6127 0.985 . S
H6124 N6119 0.984 . S
H6125 N6119 0.985 . S
H6126 N6123 0.984 . S
H6127 N6123 0.985 . S
H6128 N6122 0.984 . S
H6129 N6122 0.984 . S
H6130 N6118 0.984 . S
H6131 N6118 0.985 . S
C6132 C6133 1.363 . S
C6132 C6138 1.379 . S
C6132 N6140 1.356 . S
C6133 C6132 1.363 . S
C6133 C6139 1.363 . S
C6134 C6135 1.363 . S
C6134 C6139 1.379 . S
C6134 N6141 1.356 . S
C6135 C6134 1.363 . S
C6135 C6138 1.363 . S
N6136 C6138 1.356 . S
N6136 H6148 0.984 . S
N6136 H6149 0.985 . S
N6137 C6139 1.356 . S
N6137 H6142 0.984 . S
N6137 H6143 0.985 . S
C6138 C6132 1.379 . S
C6138 C6135 1.363 . S
C6138 N6136 1.356 . S
C6139 C6133 1.363 . S
C6139 C6134 1.379 . S
C6139 N6137 1.356 . S
N6140 C6132 1.356 . S
N6140 H6146 0.984 . S
N6140 H6147 0.984 . S
N6141 C6134 1.356 . S
N6141 H6144 0.984 . S
N6141 H6145 0.985 . S
H6142 N6137 0.984 . S
H6143 N6137 0.985 . S
H6144 N6141 0.984 . S
H6145 N6141 0.985 . S
H6146 N6140 0.984 . S
H6147 N6140 0.984 . S
H6148 N6136 0.984 . S
H6149 N6136 0.985 . S
C6150 C6151 1.363 . S
C6150 C6156 1.379 . S
C6150 N6158 1.356 . S
C6151 C6150 1.363 . S
C6151 C6157 1.363 . S
C6152 C6153 1.363 . S
C6152 C6157 1.379 . S
C6152 N6159 1.356 . S
C6153 C6152 1.363 . S
C6153 C6156 1.363 . S
N6154 C6156 1.356 . S
N6154 H6166 0.984 . S
N6154 H6167 0.985 . S
N6155 C6157 1.356 . S
N6155 H6160 0.984 . S
N6155 H6161 0.985 . S
C6156 C6150 1.379 . S
C6156 C6153 1.363 . S
C6156 N6154 1.356 . S
C6157 C6151 1.363 . S
C6157 C6152 1.379 . S
C6157 N6155 1.356 . S
N6158 C6150 1.356 . S
N6158 H6164 0.984 . S
N6158 H6165 0.984 . S
N6159 C6152 1.356 . S
N6159 H6162 0.984 . S
N6159 H6163 0.985 . S
H6160 N6155 0.984 . S
H6161 N6155 0.985 . S
H6162 N6159 0.984 . S
H6163 N6159 0.985 . S
H6164 N6158 0.984 . S
H6165 N6158 0.984 . S
H6166 N6154 0.984 . S
H6167 N6154 0.985 . S
C6168 C6169 1.363 . S
C6168 C6174 1.379 . S
C6168 N6176 1.356 . S
C6169 C6168 1.363 . S
C6169 C6175 1.363 . S
C6170 C6171 1.363 . S
C6170 C6175 1.379 . S
C6170 N6177 1.356 . S
C6171 C6170 1.363 . S
C6171 C6174 1.363 . S
N6172 C6174 1.356 . S
N6172 H6184 0.984 . S
N6172 H6185 0.985 . S
N6173 C6175 1.356 . S
N6173 H6178 0.984 . S
N6173 H6179 0.985 . S
C6174 C6168 1.379 . S
C6174 C6171 1.363 . S
C6174 N6172 1.356 . S
C6175 C6169 1.363 . S
C6175 C6170 1.379 . S
C6175 N6173 1.356 . S
N6176 C6168 1.356 . S
N6176 H6182 0.984 . S
N6176 H6183 0.984 . S
N6177 C6170 1.356 . S
N6177 H6180 0.984 . S
N6177 H6181 0.985 . S
H6178 N6173 0.984 . S
H6179 N6173 0.985 . S
H6180 N6177 0.984 . S
H6181 N6177 0.985 . S
H6182 N6176 0.984 . S
H6183 N6176 0.984 . S
H6184 N6172 0.984 . S
H6185 N6172 0.985 . S
C6186 C6187 1.363 . S
C6186 C6192 1.379 . S
C6186 N6194 1.356 . S
C6187 C6186 1.363 . S
C6187 C6193 1.363 . S
C6188 C6189 1.363 . S
C6188 C6193 1.379 . S
C6188 N6195 1.356 . S
C6189 C6188 1.363 . S
C6189 C6192 1.363 . S
N6190 C6192 1.356 1_545 S
N6190 H6202 0.984 . S
N6190 H6203 0.985 . S
N6191 C6193 1.356 . S
N6191 H6196 0.984 . S
N6191 H6197 0.985 . S
C6192 C6186 1.379 . S
C6192 C6189 1.363 . S
C6192 N6190 1.356 1_565 S
C6193 C6187 1.363 . S
C6193 C6188 1.379 . S
C6193 N6191 1.356 . S
N6194 C6186 1.356 . S
N6194 H6200 0.984 . S
N6194 H6201 0.984 . S
N6195 C6188 1.356 . S
N6195 H6198 0.984 . S
N6195 H6199 0.985 . S
H6196 N6191 0.984 . S
H6197 N6191 0.985 . S
H6198 N6195 0.984 . S
H6199 N6195 0.985 . S
H6200 N6194 0.984 . S
H6201 N6194 0.984 . S
H6202 N6190 0.984 . S
H6203 N6190 0.985 . S
C6204 C6205 1.363 . S
C6204 C6210 1.379 . S
C6204 N6212 1.356 . S
C6205 C6204 1.363 . S
C6205 C6211 1.363 . S
C6206 C6207 1.363 . S
C6206 C6211 1.379 . S
C6206 N6213 1.356 . S
C6207 C6206 1.363 . S
C6207 C6210 1.363 . S
N6208 C6210 1.356 . S
N6208 H6220 0.984 . S
N6208 H6221 0.985 . S
N6209 C6211 1.356 . S
N6209 H6214 0.984 . S
N6209 H6215 0.985 . S
C6210 C6204 1.379 . S
C6210 C6207 1.363 . S
C6210 N6208 1.356 . S
C6211 C6205 1.363 . S
C6211 C6206 1.379 . S
C6211 N6209 1.356 . S
N6212 C6204 1.356 . S
N6212 H6218 0.984 . S
N6212 H6219 0.984 . S
N6213 C6206 1.356 . S
N6213 H6216 0.984 . S
N6213 H6217 0.985 . S
H6214 N6209 0.984 . S
H6215 N6209 0.985 . S
H6216 N6213 0.984 . S
H6217 N6213 0.985 . S
H6218 N6212 0.984 . S
H6219 N6212 0.984 . S
H6220 N6208 0.984 . S
H6221 N6208 0.985 . S
C6222 C6223 1.363 . S
C6222 C6228 1.379 . S
C6222 N6230 1.356 . S
C6223 C6222 1.363 . S
C6223 C6229 1.363 . S
C6224 C6225 1.363 . S
C6224 C6229 1.379 . S
C6224 N6231 1.356 . S
C6225 C6224 1.363 . S
C6225 C6228 1.363 . S
N6226 C6228 1.356 . S
N6226 H6238 0.984 . S
N6226 H6239 0.985 . S
N6227 C6229 1.356 . S
N6227 H6232 0.984 . S
N6227 H6233 0.985 . S
C6228 C6222 1.379 . S
C6228 C6225 1.363 . S
C6228 N6226 1.356 . S
C6229 C6223 1.363 . S
C6229 C6224 1.379 . S
C6229 N6227 1.356 . S
N6230 C6222 1.356 . S
N6230 H6236 0.984 . S
N6230 H6237 0.984 . S
N6231 C6224 1.356 . S
N6231 H6234 0.984 . S
N6231 H6235 0.985 . S
H6232 N6227 0.984 . S
H6233 N6227 0.985 . S
H6234 N6231 0.984 . S
H6235 N6231 0.985 . S
H6236 N6230 0.984 . S
H6237 N6230 0.984 . S
H6238 N6226 0.984 . S
H6239 N6226 0.985 . S
C6240 C6241 1.363 . S
C6240 C6246 1.379 . S
C6240 N6248 1.356 . S
C6241 C6240 1.363 . S
C6241 C6247 1.363 . S
C6242 C6243 1.363 . S
C6242 C6247 1.379 . S
C6242 N6249 1.356 . S
C6243 C6242 1.363 . S
C6243 C6246 1.363 . S
N6244 C6246 1.356 . S
N6244 H6256 0.984 . S
N6244 H6257 0.985 . S
N6245 C6247 1.356 . S
N6245 H6250 0.984 . S
N6245 H6251 0.985 . S
C6246 C6240 1.379 . S
C6246 C6243 1.363 . S
C6246 N6244 1.356 . S
C6247 C6241 1.363 . S
C6247 C6242 1.379 . S
C6247 N6245 1.356 . S
N6248 C6240 1.356 . S
N6248 H6254 0.984 . S
N6248 H6255 0.984 . S
N6249 C6242 1.356 . S
N6249 H6252 0.984 . S
N6249 H6253 0.985 . S
H6250 N6245 0.984 . S
H6251 N6245 0.985 . S
H6252 N6249 0.984 . S
H6253 N6249 0.985 . S
H6254 N6248 0.984 . S
H6255 N6248 0.984 . S
H6256 N6244 0.984 . S
H6257 N6244 0.985 . S
C6258 C6259 1.363 . S
C6258 C6264 1.379 . S
C6258 N6266 1.356 . S
C6259 C6258 1.363 . S
C6259 C6265 1.363 . S
C6260 C6261 1.363 . S
C6260 C6265 1.379 . S
C6260 N6267 1.356 . S
C6261 C6260 1.363 . S
C6261 C6264 1.363 . S
N6262 C6264 1.356 . S
N6262 H6274 0.984 . S
N6262 H6275 0.985 . S
N6263 C6265 1.356 . S
N6263 H6268 0.984 . S
N6263 H6269 0.985 . S
C6264 C6258 1.379 . S
C6264 C6261 1.363 . S
C6264 N6262 1.356 . S
C6265 C6259 1.363 . S
C6265 C6260 1.379 . S
C6265 N6263 1.356 . S
N6266 C6258 1.356 . S
N6266 H6272 0.984 . S
N6266 H6273 0.984 . S
N6267 C6260 1.356 . S
N6267 H6270 0.984 . S
N6267 H6271 0.985 . S
H6268 N6263 0.984 . S
H6269 N6263 0.985 . S
H6270 N6267 0.984 . S
H6271 N6267 0.985 . S
H6272 N6266 0.984 . S
H6273 N6266 0.984 . S
H6274 N6262 0.984 . S
H6275 N6262 0.985 . S
C6276 C6277 1.363 . S
C6276 C6282 1.379 . S
C6276 N6284 1.356 . S
C6277 C6276 1.363 . S
C6277 C6283 1.363 . S
C6278 C6279 1.363 . S
C6278 C6283 1.379 . S
C6278 N6285 1.356 . S
C6279 C6278 1.363 . S
C6279 C6282 1.363 . S
N6280 C6282 1.356 . S
N6280 H6292 0.984 . S
N6280 H6293 0.985 . S
N6281 C6283 1.356 . S
N6281 H6286 0.984 . S
N6281 H6287 0.985 . S
C6282 C6276 1.379 . S
C6282 C6279 1.363 . S
C6282 N6280 1.356 . S
C6283 C6277 1.363 . S
C6283 C6278 1.379 . S
C6283 N6281 1.356 . S
N6284 C6276 1.356 . S
N6284 H6290 0.984 . S
N6284 H6291 0.984 . S
N6285 C6278 1.356 . S
N6285 H6288 0.984 . S
N6285 H6289 0.985 . S
H6286 N6281 0.984 . S
H6287 N6281 0.985 . S
H6288 N6285 0.984 . S
H6289 N6285 0.985 . S
H6290 N6284 0.984 . S
H6291 N6284 0.984 . S
H6292 N6280 0.984 . S
H6293 N6280 0.985 . S
C6294 C6295 1.363 . S
C6294 C6300 1.379 . S
C6294 N6302 1.356 . S
C6295 C6294 1.363 . S
C6295 C6301 1.363 . S
C6296 C6297 1.363 . S
C6296 C6301 1.379 . S
C6296 N6303 1.356 . S
C6297 C6296 1.363 . S
C6297 C6300 1.363 . S
N6298 C6300 1.356 . S
N6298 H6310 0.984 . S
N6298 H6311 0.985 . S
N6299 C6301 1.356 . S
N6299 H6304 0.984 . S
N6299 H6305 0.985 . S
C6300 C6294 1.379 . S
C6300 C6297 1.363 . S
C6300 N6298 1.356 . S
C6301 C6295 1.363 . S
C6301 C6296 1.379 . S
C6301 N6299 1.356 . S
N6302 C6294 1.356 . S
N6302 H6308 0.984 . S
N6302 H6309 0.984 . S
N6303 C6296 1.356 . S
N6303 H6306 0.984 . S
N6303 H6307 0.985 . S
H6304 N6299 0.984 . S
H6305 N6299 0.985 . S
H6306 N6303 0.984 . S
H6307 N6303 0.985 . S
H6308 N6302 0.984 . S
H6309 N6302 0.984 . S
H6310 N6298 0.984 . S
H6311 N6298 0.985 . S
C6312 C6313 1.363 . S
C6312 C6318 1.379 . S
C6312 N6320 1.356 . S
C6313 C6312 1.363 . S
C6313 C6319 1.363 . S
C6314 C6315 1.363 . S
C6314 C6319 1.379 . S
C6314 N6321 1.356 . S
C6315 C6314 1.363 . S
C6315 C6318 1.363 . S
N6316 C6318 1.356 . S
N6316 H6328 0.984 . S
N6316 H6329 0.985 . S
N6317 C6319 1.356 . S
N6317 H6322 0.984 . S
N6317 H6323 0.985 . S
C6318 C6312 1.379 . S
C6318 C6315 1.363 . S
C6318 N6316 1.356 . S
C6319 C6313 1.363 . S
C6319 C6314 1.379 . S
C6319 N6317 1.356 . S
N6320 C6312 1.356 . S
N6320 H6326 0.984 . S
N6320 H6327 0.984 . S
N6321 C6314 1.356 . S
N6321 H6324 0.984 . S
N6321 H6325 0.985 . S
H6322 N6317 0.984 . S
H6323 N6317 0.985 . S
H6324 N6321 0.984 . S
H6325 N6321 0.985 . S
H6326 N6320 0.984 . S
H6327 N6320 0.984 . S
H6328 N6316 0.984 . S
H6329 N6316 0.985 . S
C6330 C6331 1.363 . S
C6330 C6336 1.379 . S
C6330 N6338 1.356 . S
C6331 C6330 1.363 . S
C6331 C6337 1.363 . S
C6332 C6333 1.363 . S
C6332 C6337 1.379 . S
C6332 N6339 1.356 . S
C6333 C6332 1.363 . S
C6333 C6336 1.363 . S
N6334 C6336 1.356 . S
N6334 H6346 0.984 . S
N6334 H6347 0.985 . S
N6335 C6337 1.356 . S
N6335 H6340 0.984 . S
N6335 H6341 0.985 . S
C6336 C6330 1.379 . S
C6336 C6333 1.363 . S
C6336 N6334 1.356 . S
C6337 C6331 1.363 . S
C6337 C6332 1.379 . S
C6337 N6335 1.356 . S
N6338 C6330 1.356 . S
N6338 H6344 0.984 . S
N6338 H6345 0.984 . S
N6339 C6332 1.356 . S
N6339 H6342 0.984 . S
N6339 H6343 0.985 . S
H6340 N6335 0.984 . S
H6341 N6335 0.985 . S
H6342 N6339 0.984 . S
H6343 N6339 0.985 . S
H6344 N6338 0.984 . S
H6345 N6338 0.984 . S
H6346 N6334 0.984 . S
H6347 N6334 0.985 . S
C6348 C6349 1.363 . S
C6348 C6354 1.379 . S
C6348 N6356 1.356 . S
C6349 C6348 1.363 . S
C6349 C6355 1.363 . S
C6350 C6351 1.363 . S
C6350 C6355 1.379 . S
C6350 N6357 1.356 . S
C6351 C6350 1.363 . S
C6351 C6354 1.363 . S
N6352 C6354 1.356 . S
N6352 H6364 0.984 . S
N6352 H6365 0.985 . S
N6353 C6355 1.356 . S
N6353 H6358 0.984 . S
N6353 H6359 0.985 . S
C6354 C6348 1.379 . S
C6354 C6351 1.363 . S
C6354 N6352 1.356 . S
C6355 C6349 1.363 . S
C6355 C6350 1.379 . S
C6355 N6353 1.356 . S
N6356 C6348 1.356 . S
N6356 H6362 0.984 . S
N6356 H6363 0.984 . S
N6357 C6350 1.356 . S
N6357 H6360 0.984 . S
N6357 H6361 0.985 . S
H6358 N6353 0.984 . S
H6359 N6353 0.985 . S
H6360 N6357 0.984 . S
H6361 N6357 0.985 . S
H6362 N6356 0.984 . S
H6363 N6356 0.984 . S
H6364 N6352 0.984 . S
H6365 N6352 0.985 . S
C6366 C6367 1.363 . S
C6366 C6372 1.379 . S
C6366 N6374 1.356 . S
C6367 C6366 1.363 . S
C6367 C6373 1.363 . S
C6368 C6369 1.363 . S
C6368 C6373 1.379 . S
C6368 N6375 1.356 . S
C6369 C6368 1.363 . S
C6369 C6372 1.363 . S
N6370 C6372 1.356 . S
N6370 H6382 0.984 . S
N6370 H6383 0.985 . S
N6371 C6373 1.356 . S
N6371 H6376 0.984 . S
N6371 H6377 0.985 . S
C6372 C6366 1.379 . S
C6372 C6369 1.363 . S
C6372 N6370 1.356 . S
C6373 C6367 1.363 . S
C6373 C6368 1.379 . S
C6373 N6371 1.356 . S
N6374 C6366 1.356 . S
N6374 H6380 0.984 . S
N6374 H6381 0.984 . S
N6375 C6368 1.356 . S
N6375 H6378 0.984 . S
N6375 H6379 0.985 . S
H6376 N6371 0.984 . S
H6377 N6371 0.985 . S
H6378 N6375 0.984 . S
H6379 N6375 0.985 . S
H6380 N6374 0.984 . S
H6381 N6374 0.984 . S
H6382 N6370 0.984 . S
H6383 N6370 0.985 . S
C6384 C6385 1.363 . S
C6384 C6390 1.379 . S
C6384 N6392 1.356 . S
C6385 C6384 1.363 . S
C6385 C6391 1.363 . S
C6386 C6387 1.363 . S
C6386 C6391 1.379 . S
C6386 N6393 1.356 . S
C6387 C6386 1.363 . S
C6387 C6390 1.363 . S
N6388 C6390 1.356 . S
N6388 H6400 0.984 . S
N6388 H6401 0.985 . S
N6389 C6391 1.356 . S
N6389 H6394 0.984 . S
N6389 H6395 0.985 . S
C6390 C6384 1.379 . S
C6390 C6387 1.363 . S
C6390 N6388 1.356 . S
C6391 C6385 1.363 . S
C6391 C6386 1.379 . S
C6391 N6389 1.356 . S
N6392 C6384 1.356 . S
N6392 H6398 0.984 . S
N6392 H6399 0.984 . S
N6393 C6386 1.356 . S
N6393 H6396 0.984 . S
N6393 H6397 0.985 . S
H6394 N6389 0.984 . S
H6395 N6389 0.985 . S
H6396 N6393 0.984 . S
H6397 N6393 0.985 . S
H6398 N6392 0.984 . S
H6399 N6392 0.984 . S
H6400 N6388 0.984 . S
H6401 N6388 0.985 . S
C6402 C6403 1.363 . S
C6402 C6408 1.379 . S
C6402 N6410 1.356 . S
C6403 C6402 1.363 . S
C6403 C6409 1.363 . S
C6404 C6405 1.363 . S
C6404 C6409 1.379 . S
C6404 N6411 1.356 . S
C6405 C6404 1.363 . S
C6405 C6408 1.363 . S
N6406 C6408 1.356 . S
N6406 H6418 0.984 . S
N6406 H6419 0.985 . S
N6407 C6409 1.356 . S
N6407 H6412 0.984 . S
N6407 H6413 0.985 . S
C6408 C6402 1.379 . S
C6408 C6405 1.363 . S
C6408 N6406 1.356 . S
C6409 C6403 1.363 . S
C6409 C6404 1.379 . S
C6409 N6407 1.356 . S
N6410 C6402 1.356 . S
N6410 H6416 0.984 . S
N6410 H6417 0.984 . S
N6411 C6404 1.356 . S
N6411 H6414 0.984 . S
N6411 H6415 0.985 . S
H6412 N6407 0.984 . S
H6413 N6407 0.985 . S
H6414 N6411 0.984 . S
H6415 N6411 0.985 . S
H6416 N6410 0.984 . S
H6417 N6410 0.984 . S
H6418 N6406 0.984 . S
H6419 N6406 0.985 . S
C6420 C6421 1.363 . S
C6420 C6426 1.379 . S
C6420 N6428 1.356 . S
C6421 C6420 1.363 . S
C6421 C6427 1.363 . S
C6422 C6423 1.363 . S
C6422 C6427 1.379 . S
C6422 N6429 1.356 . S
C6423 C6422 1.363 . S
C6423 C6426 1.363 . S
N6424 C6426 1.356 . S
N6424 H6436 0.984 . S
N6424 H6437 0.985 . S
N6425 C6427 1.356 . S
N6425 H6430 0.984 . S
N6425 H6431 0.985 . S
C6426 C6420 1.379 . S
C6426 C6423 1.363 . S
C6426 N6424 1.356 . S
C6427 C6421 1.363 . S
C6427 C6422 1.379 . S
C6427 N6425 1.356 . S
N6428 C6420 1.356 . S
N6428 H6434 0.984 . S
N6428 H6435 0.984 . S
N6429 C6422 1.356 . S
N6429 H6432 0.984 . S
N6429 H6433 0.985 . S
H6430 N6425 0.984 . S
H6431 N6425 0.985 . S
H6432 N6429 0.984 . S
H6433 N6429 0.985 . S
H6434 N6428 0.984 . S
H6435 N6428 0.984 . S
H6436 N6424 0.984 . S
H6437 N6424 0.985 . S
C6438 C6439 1.363 . S
C6438 C6444 1.379 . S
C6438 N6446 1.356 . S
C6439 C6438 1.363 . S
C6439 C6445 1.363 . S
C6440 C6441 1.363 . S
C6440 C6445 1.379 . S
C6440 N6447 1.356 . S
C6441 C6440 1.363 . S
C6441 C6444 1.363 . S
N6442 C6444 1.356 . S
N6442 H6454 0.984 . S
N6442 H6455 0.985 . S
N6443 C6445 1.356 . S
N6443 H6448 0.984 . S
N6443 H6449 0.985 . S
C6444 C6438 1.379 . S
C6444 C6441 1.363 . S
C6444 N6442 1.356 . S
C6445 C6439 1.363 . S
C6445 C6440 1.379 . S
C6445 N6443 1.356 . S
N6446 C6438 1.356 . S
N6446 H6452 0.984 . S
N6446 H6453 0.984 . S
N6447 C6440 1.356 . S
N6447 H6450 0.984 . S
N6447 H6451 0.985 . S
H6448 N6443 0.984 . S
H6449 N6443 0.985 . S
H6450 N6447 0.984 . S
H6451 N6447 0.985 . S
H6452 N6446 0.984 . S
H6453 N6446 0.984 . S
H6454 N6442 0.984 . S
H6455 N6442 0.985 . S
C6456 C6457 1.363 . S
C6456 C6462 1.379 . S
C6456 N6464 1.356 . S
C6457 C6456 1.363 . S
C6457 C6463 1.363 . S
C6458 C6459 1.363 . S
C6458 C6463 1.379 . S
C6458 N6465 1.356 . S
C6459 C6458 1.363 . S
C6459 C6462 1.363 . S
N6460 C6462 1.356 . S
N6460 H6472 0.984 . S
N6460 H6473 0.985 . S
N6461 C6463 1.356 . S
N6461 H6466 0.984 . S
N6461 H6467 0.985 . S
C6462 C6456 1.379 . S
C6462 C6459 1.363 . S
C6462 N6460 1.356 . S
C6463 C6457 1.363 . S
C6463 C6458 1.379 . S
C6463 N6461 1.356 . S
N6464 C6456 1.356 . S
N6464 H6470 0.984 . S
N6464 H6471 0.984 . S
N6465 C6458 1.356 . S
N6465 H6468 0.984 . S
N6465 H6469 0.985 . S
H6466 N6461 0.984 . S
H6467 N6461 0.985 . S
H6468 N6465 0.984 . S
H6469 N6465 0.985 . S
H6470 N6464 0.984 . S
H6471 N6464 0.984 . S
H6472 N6460 0.984 . S
H6473 N6460 0.985 . S
C6474 C6475 1.363 . S
C6474 C6480 1.379 . S
C6474 N6482 1.356 . S
C6475 C6474 1.363 . S
C6475 C6481 1.363 . S
C6476 C6477 1.363 . S
C6476 C6481 1.379 . S
C6476 N6483 1.356 . S
C6477 C6476 1.363 . S
C6477 C6480 1.363 . S
N6478 C6480 1.356 . S
N6478 H6490 0.984 . S
N6478 H6491 0.985 . S
N6479 C6481 1.356 . S
N6479 H6484 0.984 . S
N6479 H6485 0.985 . S
C6480 C6474 1.379 . S
C6480 C6477 1.363 . S
C6480 N6478 1.356 . S
C6481 C6475 1.363 . S
C6481 C6476 1.379 . S
C6481 N6479 1.356 . S
N6482 C6474 1.356 . S
N6482 H6488 0.984 . S
N6482 H6489 0.984 . S
N6483 C6476 1.356 . S
N6483 H6486 0.984 . S
N6483 H6487 0.985 . S
H6484 N6479 0.984 . S
H6485 N6479 0.985 . S
H6486 N6483 0.984 . S
H6487 N6483 0.985 . S
H6488 N6482 0.984 . S
H6489 N6482 0.984 . S
H6490 N6478 0.984 . S
H6491 N6478 0.985 . S
C6492 C6493 1.363 . S
C6492 C6498 1.379 . S
C6492 N6500 1.356 . S
C6493 C6492 1.363 . S
C6493 C6499 1.363 . S
C6494 C6495 1.363 . S
C6494 C6499 1.379 . S
C6494 N6501 1.356 . S
C6495 C6494 1.363 . S
C6495 C6498 1.363 . S
N6496 C6498 1.356 . S
N6496 H6508 0.984 . S
N6496 H6509 0.985 . S
N6497 C6499 1.356 . S
N6497 H6502 0.984 . S
N6497 H6503 0.985 . S
C6498 C6492 1.379 . S
C6498 C6495 1.363 . S
C6498 N6496 1.356 . S
C6499 C6493 1.363 . S
C6499 C6494 1.379 . S
C6499 N6497 1.356 . S
N6500 C6492 1.356 . S
N6500 H6506 0.984 . S
N6500 H6507 0.984 . S
N6501 C6494 1.356 . S
N6501 H6504 0.984 . S
N6501 H6505 0.985 . S
H6502 N6497 0.984 . S
H6503 N6497 0.985 . S
H6504 N6501 0.984 . S
H6505 N6501 0.985 . S
H6506 N6500 0.984 . S
H6507 N6500 0.984 . S
H6508 N6496 0.984 . S
H6509 N6496 0.985 . S
C6510 C6511 1.363 . S
C6510 C6516 1.379 . S
C6510 N6518 1.356 . S
C6511 C6510 1.363 . S
C6511 C6517 1.363 . S
C6512 C6513 1.363 . S
C6512 C6517 1.379 . S
C6512 N6519 1.356 . S
C6513 C6512 1.363 . S
C6513 C6516 1.363 . S
N6514 C6516 1.356 . S
N6514 H6526 0.984 . S
N6514 H6527 0.985 . S
N6515 C6517 1.356 . S
N6515 H6520 0.984 . S
N6515 H6521 0.985 . S
C6516 C6510 1.379 . S
C6516 C6513 1.363 . S
C6516 N6514 1.356 . S
C6517 C6511 1.363 . S
C6517 C6512 1.379 . S
C6517 N6515 1.356 . S
N6518 C6510 1.356 . S
N6518 H6524 0.984 . S
N6518 H6525 0.984 . S
N6519 C6512 1.356 . S
N6519 H6522 0.984 . S
N6519 H6523 0.985 . S
H6520 N6515 0.984 . S
H6521 N6515 0.985 . S
H6522 N6519 0.984 . S
H6523 N6519 0.985 . S
H6524 N6518 0.984 . S
H6525 N6518 0.984 . S
H6526 N6514 0.984 . S
H6527 N6514 0.985 . S
C6528 C6529 1.363 . S
C6528 C6534 1.379 . S
C6528 N6536 1.356 . S
C6529 C6528 1.363 . S
C6529 C6535 1.363 . S
C6530 C6531 1.363 . S
C6530 C6535 1.379 . S
C6530 N6537 1.356 . S
C6531 C6530 1.363 . S
C6531 C6534 1.363 . S
N6532 C6534 1.356 . S
N6532 H6544 0.984 . S
N6532 H6545 0.985 . S
N6533 C6535 1.356 . S
N6533 H6538 0.984 . S
N6533 H6539 0.985 . S
C6534 C6528 1.379 . S
C6534 C6531 1.363 . S
C6534 N6532 1.356 . S
C6535 C6529 1.363 . S
C6535 C6530 1.379 . S
C6535 N6533 1.356 . S
N6536 C6528 1.356 . S
N6536 H6542 0.984 . S
N6536 H6543 0.984 . S
N6537 C6530 1.356 . S
N6537 H6540 0.984 . S
N6537 H6541 0.985 . S
H6538 N6533 0.984 . S
H6539 N6533 0.985 . S
H6540 N6537 0.984 . S
H6541 N6537 0.985 . S
H6542 N6536 0.984 . S
H6543 N6536 0.984 . S
H6544 N6532 0.984 . S
H6545 N6532 0.985 . S
C6546 C6547 1.363 . S
C6546 C6552 1.379 . S
C6546 N6554 1.356 . S
C6547 C6546 1.363 . S
C6547 C6553 1.363 . S
C6548 C6549 1.363 . S
C6548 C6553 1.379 . S
C6548 N6555 1.356 . S
C6549 C6548 1.363 . S
C6549 C6552 1.363 . S
N6550 C6552 1.356 . S
N6550 H6562 0.984 . S
N6550 H6563 0.985 . S
N6551 C6553 1.356 . S
N6551 H6556 0.984 . S
N6551 H6557 0.985 . S
C6552 C6546 1.379 . S
C6552 C6549 1.363 . S
C6552 N6550 1.356 . S
C6553 C6547 1.363 . S
C6553 C6548 1.379 . S
C6553 N6551 1.356 . S
N6554 C6546 1.356 . S
N6554 H6560 0.984 . S
N6554 H6561 0.984 . S
N6555 C6548 1.356 . S
N6555 H6558 0.984 . S
N6555 H6559 0.985 . S
H6556 N6551 0.984 . S
H6557 N6551 0.985 . S
H6558 N6555 0.984 . S
H6559 N6555 0.985 . S
H6560 N6554 0.984 . S
H6561 N6554 0.984 . S
H6562 N6550 0.984 . S
H6563 N6550 0.985 . S
C6564 C6565 1.363 . S
C6564 C6570 1.379 . S
C6564 N6572 1.356 . S
C6565 C6564 1.363 . S
C6565 C6571 1.363 . S
C6566 C6567 1.363 . S
C6566 C6571 1.379 . S
C6566 N6573 1.356 . S
C6567 C6566 1.363 . S
C6567 C6570 1.363 . S
N6568 C6570 1.356 . S
N6568 H6580 0.984 . S
N6568 H6581 0.985 . S
N6569 C6571 1.356 . S
N6569 H6574 0.984 . S
N6569 H6575 0.985 . S
C6570 C6564 1.379 . S
C6570 C6567 1.363 . S
C6570 N6568 1.356 . S
C6571 C6565 1.363 . S
C6571 C6566 1.379 . S
C6571 N6569 1.356 . S
N6572 C6564 1.356 . S
N6572 H6578 0.984 . S
N6572 H6579 0.984 . S
N6573 C6566 1.356 . S
N6573 H6576 0.984 . S
N6573 H6577 0.985 . S
H6574 N6569 0.984 . S
H6575 N6569 0.985 . S
H6576 N6573 0.984 . S
H6577 N6573 0.985 . S
H6578 N6572 0.984 . S
H6579 N6572 0.984 . S
H6580 N6568 0.984 . S
H6581 N6568 0.985 . S
C6582 C6583 1.363 . S
C6582 C6588 1.379 . S
C6582 N6590 1.356 . S
C6583 C6582 1.363 . S
C6583 C6589 1.363 . S
C6584 C6585 1.363 . S
C6584 C6589 1.379 . S
C6584 N6591 1.356 . S
C6585 C6584 1.363 . S
C6585 C6588 1.363 . S
N6586 C6588 1.356 . S
N6586 H6598 0.984 . S
N6586 H6599 0.985 . S
N6587 C6589 1.356 . S
N6587 H6592 0.984 . S
N6587 H6593 0.985 . S
C6588 C6582 1.379 . S
C6588 C6585 1.363 . S
C6588 N6586 1.356 . S
C6589 C6583 1.363 . S
C6589 C6584 1.379 . S
C6589 N6587 1.356 . S
N6590 C6582 1.356 . S
N6590 H6596 0.984 . S
N6590 H6597 0.984 . S
N6591 C6584 1.356 . S
N6591 H6594 0.984 . S
N6591 H6595 0.985 . S
H6592 N6587 0.984 . S
H6593 N6587 0.985 . S
H6594 N6591 0.984 . S
H6595 N6591 0.985 . S
H6596 N6590 0.984 . S
H6597 N6590 0.984 . S
H6598 N6586 0.984 . S
H6599 N6586 0.985 . S
C6600 C6601 1.363 . S
C6600 C6606 1.379 . S
C6600 N6608 1.356 . S
C6601 C6600 1.363 . S
C6601 C6607 1.363 . S
C6602 C6603 1.363 . S
C6602 C6607 1.379 . S
C6602 N6609 1.356 . S
C6603 C6602 1.363 . S
C6603 C6606 1.363 . S
N6604 C6606 1.356 . S
N6604 H6616 0.984 . S
N6604 H6617 0.985 . S
N6605 C6607 1.356 . S
N6605 H6610 0.984 . S
N6605 H6611 0.985 . S
C6606 C6600 1.379 . S
C6606 C6603 1.363 . S
C6606 N6604 1.356 . S
C6607 C6601 1.363 . S
C6607 C6602 1.379 . S
C6607 N6605 1.356 . S
N6608 C6600 1.356 . S
N6608 H6614 0.984 . S
N6608 H6615 0.984 . S
N6609 C6602 1.356 . S
N6609 H6612 0.984 . S
N6609 H6613 0.985 . S
H6610 N6605 0.984 . S
H6611 N6605 0.985 . S
H6612 N6609 0.984 . S
H6613 N6609 0.985 . S
H6614 N6608 0.984 . S
H6615 N6608 0.984 . S
H6616 N6604 0.984 . S
H6617 N6604 0.985 . S
C6618 C6619 1.363 . S
C6618 C6624 1.379 . S
C6618 N6626 1.356 . S
C6619 C6618 1.363 . S
C6619 C6625 1.363 . S
C6620 C6621 1.363 . S
C6620 C6625 1.379 . S
C6620 N6627 1.356 . S
C6621 C6620 1.363 . S
C6621 C6624 1.363 . S
N6622 C6624 1.356 . S
N6622 H6634 0.984 . S
N6622 H6635 0.985 . S
N6623 C6625 1.356 . S
N6623 H6628 0.984 . S
N6623 H6629 0.985 . S
C6624 C6618 1.379 . S
C6624 C6621 1.363 . S
C6624 N6622 1.356 . S
C6625 C6619 1.363 . S
C6625 C6620 1.379 . S
C6625 N6623 1.356 . S
N6626 C6618 1.356 . S
N6626 H6632 0.984 . S
N6626 H6633 0.984 . S
N6627 C6620 1.356 . S
N6627 H6630 0.984 . S
N6627 H6631 0.985 . S
H6628 N6623 0.984 . S
H6629 N6623 0.985 . S
H6630 N6627 0.984 . S
H6631 N6627 0.985 . S
H6632 N6626 0.984 . S
H6633 N6626 0.984 . S
H6634 N6622 0.984 . S
H6635 N6622 0.985 . S
C6636 C6637 1.363 . S
C6636 C6642 1.379 . S
C6636 N6644 1.356 . S
C6637 C6636 1.363 . S
C6637 C6643 1.363 . S
C6638 C6639 1.363 . S
C6638 C6643 1.379 . S
C6638 N6645 1.356 . S
C6639 C6638 1.363 . S
C6639 C6642 1.363 . S
N6640 C6642 1.356 . S
N6640 H6652 0.984 . S
N6640 H6653 0.985 . S
N6641 C6643 1.356 . S
N6641 H6646 0.984 . S
N6641 H6647 0.985 . S
C6642 C6636 1.379 . S
C6642 C6639 1.363 . S
C6642 N6640 1.356 . S
C6643 C6637 1.363 . S
C6643 C6638 1.379 . S
C6643 N6641 1.356 . S
N6644 C6636 1.356 . S
N6644 H6650 0.984 . S
N6644 H6651 0.984 . S
N6645 C6638 1.356 . S
N6645 H6648 0.984 . S
N6645 H6649 0.985 . S
H6646 N6641 0.984 . S
H6647 N6641 0.985 . S
H6648 N6645 0.984 . S
H6649 N6645 0.985 . S
H6650 N6644 0.984 . S
H6651 N6644 0.984 . S
H6652 N6640 0.984 . S
H6653 N6640 0.985 . S
C6654 C6655 1.363 . S
C6654 C6660 1.379 . S
C6654 N6662 1.356 . S
C6655 C6654 1.363 . S
C6655 C6661 1.363 . S
C6656 C6657 1.363 . S
C6656 C6661 1.379 . S
C6656 N6663 1.356 . S
C6657 C6656 1.363 . S
C6657 C6660 1.363 . S
N6658 C6660 1.356 . S
N6658 H6670 0.984 . S
N6658 H6671 0.985 . S
N6659 C6661 1.356 . S
N6659 H6664 0.984 . S
N6659 H6665 0.985 . S
C6660 C6654 1.379 . S
C6660 C6657 1.363 . S
C6660 N6658 1.356 . S
C6661 C6655 1.363 . S
C6661 C6656 1.379 . S
C6661 N6659 1.356 . S
N6662 C6654 1.356 . S
N6662 H6668 0.984 . S
N6662 H6669 0.984 . S
N6663 C6656 1.356 . S
N6663 H6666 0.984 . S
N6663 H6667 0.985 . S
H6664 N6659 0.984 . S
H6665 N6659 0.985 . S
H6666 N6663 0.984 . S
H6667 N6663 0.985 . S
H6668 N6662 0.984 . S
H6669 N6662 0.984 . S
H6670 N6658 0.984 . S
H6671 N6658 0.985 . S
C6672 C6673 1.363 . S
C6672 C6678 1.379 . S
C6672 N6680 1.356 . S
C6673 C6672 1.363 . S
C6673 C6679 1.363 . S
C6674 C6675 1.363 . S
C6674 C6679 1.379 . S
C6674 N6681 1.356 . S
C6675 C6674 1.363 . S
C6675 C6678 1.363 . S
N6676 C6678 1.356 . S
N6676 H6688 0.984 . S
N6676 H6689 0.985 . S
N6677 C6679 1.356 . S
N6677 H6682 0.984 . S
N6677 H6683 0.985 . S
C6678 C6672 1.379 . S
C6678 C6675 1.363 . S
C6678 N6676 1.356 . S
C6679 C6673 1.363 . S
C6679 C6674 1.379 . S
C6679 N6677 1.356 . S
N6680 C6672 1.356 . S
N6680 H6686 0.984 . S
N6680 H6687 0.984 . S
N6681 C6674 1.356 . S
N6681 H6684 0.984 . S
N6681 H6685 0.985 . S
H6682 N6677 0.984 . S
H6683 N6677 0.985 . S
H6684 N6681 0.984 . S
H6685 N6681 0.985 . S
H6686 N6680 0.984 . S
H6687 N6680 0.984 . S
H6688 N6676 0.984 . S
H6689 N6676 0.985 . S
C6690 C6691 1.363 . S
C6690 C6696 1.379 . S
C6690 N6698 1.356 . S
C6691 C6690 1.363 . S
C6691 C6697 1.363 . S
C6692 C6693 1.363 . S
C6692 C6697 1.379 . S
C6692 N6699 1.356 . S
C6693 C6692 1.363 . S
C6693 C6696 1.363 . S
N6694 C6696 1.356 . S
N6694 H6706 0.984 . S
N6694 H6707 0.985 . S
N6695 C6697 1.356 . S
N6695 H6700 0.984 . S
N6695 H6701 0.985 . S
C6696 C6690 1.379 . S
C6696 C6693 1.363 . S
C6696 N6694 1.356 . S
C6697 C6691 1.363 . S
C6697 C6692 1.379 . S
C6697 N6695 1.356 . S
N6698 C6690 1.356 . S
N6698 H6704 0.984 . S
N6698 H6705 0.984 . S
N6699 C6692 1.356 . S
N6699 H6702 0.984 . S
N6699 H6703 0.985 . S
H6700 N6695 0.984 . S
H6701 N6695 0.985 . S
H6702 N6699 0.984 . S
H6703 N6699 0.985 . S
H6704 N6698 0.984 . S
H6705 N6698 0.984 . S
H6706 N6694 0.984 . S
H6707 N6694 0.985 . S
C6708 C6709 1.363 . S
C6708 C6714 1.379 . S
C6708 N6716 1.356 . S
C6709 C6708 1.363 . S
C6709 C6715 1.363 . S
C6710 C6711 1.363 . S
C6710 C6715 1.379 . S
C6710 N6717 1.356 . S
C6711 C6710 1.363 . S
C6711 C6714 1.363 . S
N6712 C6714 1.356 . S
N6712 H6724 0.984 . S
N6712 H6725 0.985 . S
N6713 C6715 1.356 . S
N6713 H6718 0.984 . S
N6713 H6719 0.985 . S
C6714 C6708 1.379 . S
C6714 C6711 1.363 . S
C6714 N6712 1.356 . S
C6715 C6709 1.363 . S
C6715 C6710 1.379 . S
C6715 N6713 1.356 . S
N6716 C6708 1.356 . S
N6716 H6722 0.984 . S
N6716 H6723 0.984 . S
N6717 C6710 1.356 . S
N6717 H6720 0.984 . S
N6717 H6721 0.985 . S
H6718 N6713 0.984 . S
H6719 N6713 0.985 . S
H6720 N6717 0.984 . S
H6721 N6717 0.985 . S
H6722 N6716 0.984 . S
H6723 N6716 0.984 . S
H6724 N6712 0.984 . S
H6725 N6712 0.985 . S
C6726 C6727 1.363 . S
C6726 C6732 1.379 . S
C6726 N6734 1.356 . S
C6727 C6726 1.363 . S
C6727 C6733 1.363 . S
C6728 C6729 1.363 . S
C6728 C6733 1.379 . S
C6728 N6735 1.356 . S
C6729 C6728 1.363 . S
C6729 C6732 1.363 . S
N6730 C6732 1.356 . S
N6730 H6742 0.984 . S
N6730 H6743 0.985 . S
N6731 C6733 1.356 . S
N6731 H6736 0.984 . S
N6731 H6737 0.985 . S
C6732 C6726 1.379 . S
C6732 C6729 1.363 . S
C6732 N6730 1.356 . S
C6733 C6727 1.363 . S
C6733 C6728 1.379 . S
C6733 N6731 1.356 . S
N6734 C6726 1.356 . S
N6734 H6740 0.984 . S
N6734 H6741 0.984 . S
N6735 C6728 1.356 . S
N6735 H6738 0.984 . S
N6735 H6739 0.985 . S
H6736 N6731 0.984 . S
H6737 N6731 0.985 . S
H6738 N6735 0.984 . S
H6739 N6735 0.985 . S
H6740 N6734 0.984 . S
H6741 N6734 0.984 . S
H6742 N6730 0.984 . S
H6743 N6730 0.985 . S
C6744 C6745 1.363 . S
C6744 C6750 1.379 . S
C6744 N6752 1.356 . S
C6745 C6744 1.363 . S
C6745 C6751 1.363 . S
C6746 C6747 1.363 . S
C6746 C6751 1.379 . S
C6746 N6753 1.356 . S
C6747 C6746 1.363 . S
C6747 C6750 1.363 . S
N6748 C6750 1.356 . S
N6748 H6760 0.984 . S
N6748 H6761 0.985 . S
N6749 C6751 1.356 . S
N6749 H6754 0.984 . S
N6749 H6755 0.985 . S
C6750 C6744 1.379 . S
C6750 C6747 1.363 . S
C6750 N6748 1.356 . S
C6751 C6745 1.363 . S
C6751 C6746 1.379 . S
C6751 N6749 1.356 . S
N6752 C6744 1.356 . S
N6752 H6758 0.984 . S
N6752 H6759 0.984 . S
N6753 C6746 1.356 . S
N6753 H6756 0.984 . S
N6753 H6757 0.985 . S
H6754 N6749 0.984 . S
H6755 N6749 0.985 . S
H6756 N6753 0.984 . S
H6757 N6753 0.985 . S
H6758 N6752 0.984 . S
H6759 N6752 0.984 . S
H6760 N6748 0.984 . S
H6761 N6748 0.985 . S
C6762 C6763 1.363 . S
C6762 C6768 1.379 . S
C6762 N6770 1.356 . S
C6763 C6762 1.363 . S
C6763 C6769 1.363 . S
C6764 C6765 1.363 . S
C6764 C6769 1.379 . S
C6764 N6771 1.356 . S
C6765 C6764 1.363 . S
C6765 C6768 1.363 . S
N6766 C6768 1.356 . S
N6766 H6778 0.984 . S
N6766 H6779 0.985 . S
N6767 C6769 1.356 . S
N6767 H6772 0.984 . S
N6767 H6773 0.985 . S
C6768 C6762 1.379 . S
C6768 C6765 1.363 . S
C6768 N6766 1.356 . S
C6769 C6763 1.363 . S
C6769 C6764 1.379 . S
C6769 N6767 1.356 . S
N6770 C6762 1.356 . S
N6770 H6776 0.984 . S
N6770 H6777 0.984 . S
N6771 C6764 1.356 . S
N6771 H6774 0.984 . S
N6771 H6775 0.985 . S
H6772 N6767 0.984 . S
H6773 N6767 0.985 . S
H6774 N6771 0.984 . S
H6775 N6771 0.985 . S
H6776 N6770 0.984 . S
H6777 N6770 0.984 . S
H6778 N6766 0.984 . S
H6779 N6766 0.985 . S
C6780 C6781 1.363 . S
C6780 C6786 1.379 . S
C6780 N6788 1.356 . S
C6781 C6780 1.363 . S
C6781 C6787 1.363 . S
C6782 C6783 1.363 . S
C6782 C6787 1.379 . S
C6782 N6789 1.356 . S
C6783 C6782 1.363 . S
C6783 C6786 1.363 . S
N6784 C6786 1.356 . S
N6784 H6796 0.984 . S
N6784 H6797 0.985 . S
N6785 C6787 1.356 . S
N6785 H6790 0.984 . S
N6785 H6791 0.985 . S
C6786 C6780 1.379 . S
C6786 C6783 1.363 . S
C6786 N6784 1.356 . S
C6787 C6781 1.363 . S
C6787 C6782 1.379 . S
C6787 N6785 1.356 . S
N6788 C6780 1.356 . S
N6788 H6794 0.984 . S
N6788 H6795 0.984 . S
N6789 C6782 1.356 . S
N6789 H6792 0.984 . S
N6789 H6793 0.985 . S
H6790 N6785 0.984 . S
H6791 N6785 0.985 . S
H6792 N6789 0.984 . S
H6793 N6789 0.985 . S
H6794 N6788 0.984 . S
H6795 N6788 0.984 . S
H6796 N6784 0.984 . S
H6797 N6784 0.985 . S
C6798 C6799 1.363 . S
C6798 C6804 1.379 . S
C6798 N6806 1.356 . S
C6799 C6798 1.363 . S
C6799 C6805 1.363 . S
C6800 C6801 1.363 . S
C6800 C6805 1.379 . S
C6800 N6807 1.356 . S
C6801 C6800 1.363 . S
C6801 C6804 1.363 . S
N6802 C6804 1.356 . S
N6802 H6814 0.984 . S
N6802 H6815 0.985 . S
N6803 C6805 1.356 . S
N6803 H6808 0.984 . S
N6803 H6809 0.985 . S
C6804 C6798 1.379 . S
C6804 C6801 1.363 . S
C6804 N6802 1.356 . S
C6805 C6799 1.363 . S
C6805 C6800 1.379 . S
C6805 N6803 1.356 . S
N6806 C6798 1.356 . S
N6806 H6812 0.984 . S
N6806 H6813 0.984 . S
N6807 C6800 1.356 . S
N6807 H6810 0.984 . S
N6807 H6811 0.985 . S
H6808 N6803 0.984 . S
H6809 N6803 0.985 . S
H6810 N6807 0.984 . S
H6811 N6807 0.985 . S
H6812 N6806 0.984 . S
H6813 N6806 0.984 . S
H6814 N6802 0.984 . S
H6815 N6802 0.985 . S
C6816 C6817 1.363 . S
C6816 C6822 1.379 . S
C6816 N6824 1.356 . S
C6817 C6816 1.363 . S
C6817 C6823 1.363 . S
C6818 C6819 1.363 . S
C6818 C6823 1.379 . S
C6818 N6825 1.356 . S
C6819 C6818 1.363 . S
C6819 C6822 1.363 . S
N6820 C6822 1.356 . S
N6820 H6832 0.984 . S
N6820 H6833 0.985 . S
N6821 C6823 1.356 . S
N6821 H6826 0.984 . S
N6821 H6827 0.985 . S
C6822 C6816 1.379 . S
C6822 C6819 1.363 . S
C6822 N6820 1.356 . S
C6823 C6817 1.363 . S
C6823 C6818 1.379 . S
C6823 N6821 1.356 . S
N6824 C6816 1.356 . S
N6824 H6830 0.984 . S
N6824 H6831 0.984 . S
N6825 C6818 1.356 . S
N6825 H6828 0.984 . S
N6825 H6829 0.985 . S
H6826 N6821 0.984 . S
H6827 N6821 0.985 . S
H6828 N6825 0.984 . S
H6829 N6825 0.985 . S
H6830 N6824 0.984 . S
H6831 N6824 0.984 . S
H6832 N6820 0.984 . S
H6833 N6820 0.985 . S
C6834 C6835 1.363 . S
C6834 C6840 1.379 . S
C6834 N6842 1.356 . S
C6835 C6834 1.363 . S
C6835 C6841 1.363 . S
C6836 C6837 1.363 . S
C6836 C6841 1.379 . S
C6836 N6843 1.356 . S
C6837 C6836 1.363 . S
C6837 C6840 1.363 . S
N6838 C6840 1.356 . S
N6838 H6850 0.984 . S
N6838 H6851 0.985 . S
N6839 C6841 1.356 . S
N6839 H6844 0.984 . S
N6839 H6845 0.985 . S
C6840 C6834 1.379 . S
C6840 C6837 1.363 . S
C6840 N6838 1.356 . S
C6841 C6835 1.363 . S
C6841 C6836 1.379 . S
C6841 N6839 1.356 . S
N6842 C6834 1.356 . S
N6842 H6848 0.984 . S
N6842 H6849 0.984 . S
N6843 C6836 1.356 . S
N6843 H6846 0.984 . S
N6843 H6847 0.985 . S
H6844 N6839 0.984 . S
H6845 N6839 0.985 . S
H6846 N6843 0.984 . S
H6847 N6843 0.985 . S
H6848 N6842 0.984 . S
H6849 N6842 0.984 . S
H6850 N6838 0.984 . S
H6851 N6838 0.985 . S
C6852 C6853 1.363 . S
C6852 C6858 1.379 . S
C6852 N6860 1.356 . S
C6853 C6852 1.363 . S
C6853 C6859 1.363 . S
C6854 C6855 1.363 . S
C6854 C6859 1.379 . S
C6854 N6861 1.356 . S
C6855 C6854 1.363 . S
C6855 C6858 1.363 . S
N6856 C6858 1.356 . S
N6856 H6868 0.984 . S
N6856 H6869 0.985 . S
N6857 C6859 1.356 . S
N6857 H6862 0.984 . S
N6857 H6863 0.985 . S
C6858 C6852 1.379 . S
C6858 C6855 1.363 . S
C6858 N6856 1.356 . S
C6859 C6853 1.363 . S
C6859 C6854 1.379 . S
C6859 N6857 1.356 . S
N6860 C6852 1.356 . S
N6860 H6866 0.984 . S
N6860 H6867 0.984 . S
N6861 C6854 1.356 . S
N6861 H6864 0.984 . S
N6861 H6865 0.985 . S
H6862 N6857 0.984 . S
H6863 N6857 0.985 . S
H6864 N6861 0.984 . S
H6865 N6861 0.985 . S
H6866 N6860 0.984 . S
H6867 N6860 0.984 . S
H6868 N6856 0.984 . S
H6869 N6856 0.985 . S
C6870 C6871 1.363 . S
C6870 C6876 1.379 . S
C6870 N6878 1.356 . S
C6871 C6870 1.363 . S
C6871 C6877 1.363 . S
C6872 C6873 1.363 . S
C6872 C6877 1.379 . S
C6872 N6879 1.356 . S
C6873 C6872 1.363 . S
C6873 C6876 1.363 . S
N6874 C6876 1.356 . S
N6874 H6886 0.984 . S
N6874 H6887 0.985 . S
N6875 C6877 1.356 . S
N6875 H6880 0.984 . S
N6875 H6881 0.985 . S
C6876 C6870 1.379 . S
C6876 C6873 1.363 . S
C6876 N6874 1.356 . S
C6877 C6871 1.363 . S
C6877 C6872 1.379 . S
C6877 N6875 1.356 . S
N6878 C6870 1.356 . S
N6878 H6884 0.984 . S
N6878 H6885 0.984 . S
N6879 C6872 1.356 . S
N6879 H6882 0.984 . S
N6879 H6883 0.985 . S
H6880 N6875 0.984 . S
H6881 N6875 0.985 . S
H6882 N6879 0.984 . S
H6883 N6879 0.985 . S
H6884 N6878 0.984 . S
H6885 N6878 0.984 . S
H6886 N6874 0.984 . S
H6887 N6874 0.985 . S
C6888 C6889 1.363 . S
C6888 C6894 1.379 . S
C6888 N6896 1.356 . S
C6889 C6888 1.363 . S
C6889 C6895 1.363 . S
C6890 C6891 1.363 . S
C6890 C6895 1.379 . S
C6890 N6897 1.356 . S
C6891 C6890 1.363 . S
C6891 C6894 1.363 . S
N6892 C6894 1.356 . S
N6892 H6904 0.984 . S
N6892 H6905 0.985 . S
N6893 C6895 1.356 . S
N6893 H6898 0.984 . S
N6893 H6899 0.985 . S
C6894 C6888 1.379 . S
C6894 C6891 1.363 . S
C6894 N6892 1.356 . S
C6895 C6889 1.363 . S
C6895 C6890 1.379 . S
C6895 N6893 1.356 . S
N6896 C6888 1.356 . S
N6896 H6902 0.984 . S
N6896 H6903 0.984 . S
N6897 C6890 1.356 . S
N6897 H6900 0.984 . S
N6897 H6901 0.985 . S
H6898 N6893 0.984 . S
H6899 N6893 0.985 . S
H6900 N6897 0.984 . S
H6901 N6897 0.985 . S
H6902 N6896 0.984 . S
H6903 N6896 0.984 . S
H6904 N6892 0.984 . S
H6905 N6892 0.985 . S
C6906 C6907 1.363 . S
C6906 C6912 1.379 . S
C6906 N6914 1.356 . S
C6907 C6906 1.363 . S
C6907 C6913 1.363 . S
C6908 C6909 1.363 . S
C6908 C6913 1.379 . S
C6908 N6915 1.356 . S
C6909 C6908 1.363 . S
C6909 C6912 1.363 . S
N6910 C6912 1.356 . S
N6910 H6922 0.984 . S
N6910 H6923 0.985 . S
N6911 C6913 1.356 . S
N6911 H6916 0.984 . S
N6911 H6917 0.985 . S
C6912 C6906 1.379 . S
C6912 C6909 1.363 . S
C6912 N6910 1.356 . S
C6913 C6907 1.363 . S
C6913 C6908 1.379 . S
C6913 N6911 1.356 . S
N6914 C6906 1.356 . S
N6914 H6920 0.984 . S
N6914 H6921 0.984 . S
N6915 C6908 1.356 . S
N6915 H6918 0.984 . S
N6915 H6919 0.985 . S
H6916 N6911 0.984 . S
H6917 N6911 0.985 . S
H6918 N6915 0.984 . S
H6919 N6915 0.985 . S
H6920 N6914 0.984 . S
H6921 N6914 0.984 . S
H6922 N6910 0.984 . S
H6923 N6910 0.985 . S
C6924 C6925 1.363 . S
C6924 C6930 1.379 . S
C6924 N6932 1.356 . S
C6925 C6924 1.363 . S
C6925 C6931 1.363 . S
C6926 C6927 1.363 . S
C6926 C6931 1.379 . S
C6926 N6933 1.356 . S
C6927 C6926 1.363 . S
C6927 C6930 1.363 . S
N6928 C6930 1.356 . S
N6928 H6940 0.984 . S
N6928 H6941 0.985 . S
N6929 C6931 1.356 . S
N6929 H6934 0.984 . S
N6929 H6935 0.985 . S
C6930 C6924 1.379 . S
C6930 C6927 1.363 . S
C6930 N6928 1.356 . S
C6931 C6925 1.363 . S
C6931 C6926 1.379 . S
C6931 N6929 1.356 . S
N6932 C6924 1.356 . S
N6932 H6938 0.984 . S
N6932 H6939 0.984 . S
N6933 C6926 1.356 . S
N6933 H6936 0.984 . S
N6933 H6937 0.985 . S
H6934 N6929 0.984 . S
H6935 N6929 0.985 . S
H6936 N6933 0.984 . S
H6937 N6933 0.985 . S
H6938 N6932 0.984 . S
H6939 N6932 0.984 . S
H6940 N6928 0.984 . S
H6941 N6928 0.985 . S
C6942 C6943 1.363 . S
C6942 C6948 1.379 . S
C6942 N6950 1.356 . S
C6943 C6942 1.363 . S
C6943 C6949 1.363 . S
C6944 C6945 1.363 . S
C6944 C6949 1.379 . S
C6944 N6951 1.356 . S
C6945 C6944 1.363 . S
C6945 C6948 1.363 . S
N6946 C6948 1.356 . S
N6946 H6958 0.984 . S
N6946 H6959 0.985 . S
N6947 C6949 1.356 . S
N6947 H6952 0.984 . S
N6947 H6953 0.985 . S
C6948 C6942 1.379 . S
C6948 C6945 1.363 . S
C6948 N6946 1.356 . S
C6949 C6943 1.363 . S
C6949 C6944 1.379 . S
C6949 N6947 1.356 . S
N6950 C6942 1.356 . S
N6950 H6956 0.984 . S
N6950 H6957 0.984 . S
N6951 C6944 1.356 . S
N6951 H6954 0.984 . S
N6951 H6955 0.985 . S
H6952 N6947 0.984 . S
H6953 N6947 0.985 . S
H6954 N6951 0.984 . S
H6955 N6951 0.985 . S
H6956 N6950 0.984 . S
H6957 N6950 0.984 . S
H6958 N6946 0.984 . S
H6959 N6946 0.985 . S
C6960 C6961 1.363 . S
C6960 C6966 1.379 . S
C6960 N6968 1.356 . S
C6961 C6960 1.363 . S
C6961 C6967 1.363 . S
C6962 C6963 1.363 . S
C6962 C6967 1.379 . S
C6962 N6969 1.356 . S
C6963 C6962 1.363 . S
C6963 C6966 1.363 . S
N6964 C6966 1.356 . S
N6964 H6976 0.984 . S
N6964 H6977 0.985 . S
N6965 C6967 1.356 . S
N6965 H6970 0.984 . S
N6965 H6971 0.985 . S
C6966 C6960 1.379 . S
C6966 C6963 1.363 . S
C6966 N6964 1.356 . S
C6967 C6961 1.363 . S
C6967 C6962 1.379 . S
C6967 N6965 1.356 . S
N6968 C6960 1.356 . S
N6968 H6974 0.984 . S
N6968 H6975 0.984 . S
N6969 C6962 1.356 . S
N6969 H6972 0.984 . S
N6969 H6973 0.985 . S
H6970 N6965 0.984 . S
H6971 N6965 0.985 . S
H6972 N6969 0.984 . S
H6973 N6969 0.985 . S
H6974 N6968 0.984 . S
H6975 N6968 0.984 . S
H6976 N6964 0.984 . S
H6977 N6964 0.985 . S
C6978 C6979 1.363 . S
C6978 C6984 1.379 . S
C6978 N6986 1.356 . S
C6979 C6978 1.363 . S
C6979 C6985 1.363 . S
C6980 C6981 1.363 . S
C6980 C6985 1.379 . S
C6980 N6987 1.356 . S
C6981 C6980 1.363 . S
C6981 C6984 1.363 . S
N6982 C6984 1.356 . S
N6982 H6994 0.984 . S
N6982 H6995 0.985 . S
N6983 C6985 1.356 . S
N6983 H6988 0.984 . S
N6983 H6989 0.985 . S
C6984 C6978 1.379 . S
C6984 C6981 1.363 . S
C6984 N6982 1.356 . S
C6985 C6979 1.363 . S
C6985 C6980 1.379 . S
C6985 N6983 1.356 . S
N6986 C6978 1.356 . S
N6986 H6992 0.984 . S
N6986 H6993 0.984 . S
N6987 C6980 1.356 . S
N6987 H6990 0.984 . S
N6987 H6991 0.985 . S
H6988 N6983 0.984 . S
H6989 N6983 0.985 . S
H6990 N6987 0.984 . S
H6991 N6987 0.985 . S
H6992 N6986 0.984 . S
H6993 N6986 0.984 . S
H6994 N6982 0.984 . S
H6995 N6982 0.985 . S
C6996 C6997 1.363 . S
C6996 C7002 1.379 . S
C6996 N7004 1.356 . S
C6997 C6996 1.363 . S
C6997 C7003 1.363 . S
C6998 C6999 1.363 . S
C6998 C7003 1.379 . S
C6998 N7005 1.356 . S
C6999 C6998 1.363 . S
C6999 C7002 1.363 . S
N7000 C7002 1.356 . S
N7000 H7012 0.984 . S
N7000 H7013 0.985 . S
N7001 C7003 1.356 . S
N7001 H7006 0.984 . S
N7001 H7007 0.985 . S
C7002 C6996 1.379 . S
C7002 C6999 1.363 . S
C7002 N7000 1.356 . S
C7003 C6997 1.363 . S
C7003 C6998 1.379 . S
C7003 N7001 1.356 . S
N7004 C6996 1.356 . S
N7004 H7010 0.984 . S
N7004 H7011 0.984 . S
N7005 C6998 1.356 . S
N7005 H7008 0.984 . S
N7005 H7009 0.985 . S
H7006 N7001 0.984 . S
H7007 N7001 0.985 . S
H7008 N7005 0.984 . S
H7009 N7005 0.985 . S
H7010 N7004 0.984 . S
H7011 N7004 0.984 . S
H7012 N7000 0.984 . S
H7013 N7000 0.985 . S
C7014 C7015 1.363 . S
C7014 C7020 1.379 . S
C7014 N7022 1.356 . S
C7015 C7014 1.363 . S
C7015 C7021 1.363 . S
C7016 C7017 1.363 . S
C7016 C7021 1.379 . S
C7016 N7023 1.356 . S
C7017 C7016 1.363 . S
C7017 C7020 1.363 . S
N7018 C7020 1.356 . S
N7018 H7030 0.984 . S
N7018 H7031 0.985 . S
N7019 C7021 1.356 . S
N7019 H7024 0.984 . S
N7019 H7025 0.985 . S
C7020 C7014 1.379 . S
C7020 C7017 1.363 . S
C7020 N7018 1.356 . S
C7021 C7015 1.363 . S
C7021 C7016 1.379 . S
C7021 N7019 1.356 . S
N7022 C7014 1.356 . S
N7022 H7028 0.984 . S
N7022 H7029 0.984 . S
N7023 C7016 1.356 . S
N7023 H7026 0.984 . S
N7023 H7027 0.985 . S
H7024 N7019 0.984 . S
H7025 N7019 0.985 . S
H7026 N7023 0.984 . S
H7027 N7023 0.985 . S
H7028 N7022 0.984 . S
H7029 N7022 0.984 . S
H7030 N7018 0.984 . S
H7031 N7018 0.985 . S
C7032 C7033 1.363 . S
C7032 C7038 1.379 . S
C7032 N7040 1.356 . S
C7033 C7032 1.363 . S
C7033 C7039 1.363 . S
C7034 C7035 1.363 . S
C7034 C7039 1.379 . S
C7034 N7041 1.356 . S
C7035 C7034 1.363 . S
C7035 C7038 1.363 . S
N7036 C7038 1.356 . S
N7036 H7048 0.984 . S
N7036 H7049 0.985 . S
N7037 C7039 1.356 . S
N7037 H7042 0.984 . S
N7037 H7043 0.985 . S
C7038 C7032 1.379 . S
C7038 C7035 1.363 . S
C7038 N7036 1.356 . S
C7039 C7033 1.363 . S
C7039 C7034 1.379 . S
C7039 N7037 1.356 . S
N7040 C7032 1.356 . S
N7040 H7046 0.984 . S
N7040 H7047 0.984 . S
N7041 C7034 1.356 . S
N7041 H7044 0.984 . S
N7041 H7045 0.985 . S
H7042 N7037 0.984 . S
H7043 N7037 0.985 . S
H7044 N7041 0.984 . S
H7045 N7041 0.985 . S
H7046 N7040 0.984 . S
H7047 N7040 0.984 . S
H7048 N7036 0.984 . S
H7049 N7036 0.985 . S
C7050 C7051 1.363 . S
C7050 C7056 1.379 . S
C7050 N7058 1.356 . S
C7051 C7050 1.363 . S
C7051 C7057 1.363 . S
C7052 C7053 1.363 . S
C7052 C7057 1.379 . S
C7052 N7059 1.356 . S
C7053 C7052 1.363 . S
C7053 C7056 1.363 . S
N7054 C7056 1.356 . S
N7054 H7066 0.984 . S
N7054 H7067 0.985 . S
N7055 C7057 1.356 . S
N7055 H7060 0.984 . S
N7055 H7061 0.985 . S
C7056 C7050 1.379 . S
C7056 C7053 1.363 . S
C7056 N7054 1.356 . S
C7057 C7051 1.363 . S
C7057 C7052 1.379 . S
C7057 N7055 1.356 . S
N7058 C7050 1.356 . S
N7058 H7064 0.984 . S
N7058 H7065 0.984 . S
N7059 C7052 1.356 . S
N7059 H7062 0.984 . S
N7059 H7063 0.985 . S
H7060 N7055 0.984 . S
H7061 N7055 0.985 . S
H7062 N7059 0.984 . S
H7063 N7059 0.985 . S
H7064 N7058 0.984 . S
H7065 N7058 0.984 . S
H7066 N7054 0.984 . S
H7067 N7054 0.985 . S
C7068 C7069 1.363 . S
C7068 C7074 1.379 . S
C7068 N7076 1.356 . S
C7069 C7068 1.363 . S
C7069 C7075 1.363 . S
C7070 C7071 1.363 . S
C7070 C7075 1.379 . S
C7070 N7077 1.356 . S
C7071 C7070 1.363 . S
C7071 C7074 1.363 . S
N7072 C7074 1.356 . S
N7072 H7084 0.984 . S
N7072 H7085 0.985 . S
N7073 C7075 1.356 . S
N7073 H7078 0.984 . S
N7073 H7079 0.985 . S
C7074 C7068 1.379 . S
C7074 C7071 1.363 . S
C7074 N7072 1.356 . S
C7075 C7069 1.363 . S
C7075 C7070 1.379 . S
C7075 N7073 1.356 . S
N7076 C7068 1.356 . S
N7076 H7082 0.984 . S
N7076 H7083 0.984 . S
N7077 C7070 1.356 . S
N7077 H7080 0.984 . S
N7077 H7081 0.985 . S
H7078 N7073 0.984 . S
H7079 N7073 0.985 . S
H7080 N7077 0.984 . S
H7081 N7077 0.985 . S
H7082 N7076 0.984 . S
H7083 N7076 0.984 . S
H7084 N7072 0.984 . S
H7085 N7072 0.985 . S
C7086 C7087 1.363 . S
C7086 C7092 1.379 . S
C7086 N7094 1.356 . S
C7087 C7086 1.363 . S
C7087 C7093 1.363 . S
C7088 C7089 1.363 . S
C7088 C7093 1.379 . S
C7088 N7095 1.356 . S
C7089 C7088 1.363 . S
C7089 C7092 1.363 . S
N7090 C7092 1.356 . S
N7090 H7102 0.984 . S
N7090 H7103 0.985 . S
N7091 C7093 1.356 . S
N7091 H7096 0.984 . S
N7091 H7097 0.985 . S
C7092 C7086 1.379 . S
C7092 C7089 1.363 . S
C7092 N7090 1.356 . S
C7093 C7087 1.363 . S
C7093 C7088 1.379 . S
C7093 N7091 1.356 . S
N7094 C7086 1.356 . S
N7094 H7100 0.984 . S
N7094 H7101 0.984 . S
N7095 C7088 1.356 . S
N7095 H7098 0.984 . S
N7095 H7099 0.985 . S
H7096 N7091 0.984 . S
H7097 N7091 0.985 . S
H7098 N7095 0.984 . S
H7099 N7095 0.985 . S
H7100 N7094 0.984 . S
H7101 N7094 0.984 . S
H7102 N7090 0.984 . S
H7103 N7090 0.985 . S
C1921 C1502 0.937 . S
C1923 C9 0.959 . S
C1939 C482 0.919 . S
C1941 C29 0.969 . S
C1957 C48 1.151 . S
C1959 C1462 1.131 . S
C1975 C69 1.496 . S
C1977 C539 1.446 . S
C1993 C89 1.444 . S
C1995 C1559 1.411 . S
C2011 C619 1.493 . S
C2013 C108 1.536 . S
C2029 C128 1.012 . S
C2031 C1582 0.968 . S
C2047 C149 0.859 . S
C2049 C562 0.841 . S
C2065 C169 1.054 . S
C2067 C1802 1.018 . S
C2083 C862 1.035 . S
C2085 C189 1.067 . S
C2101 C882 1.054 . S
C2103 C209 1.104 . S
C2119 C839 1.347 . S
C2121 C229 1.351 . S
C2137 C249 1.092 . S
C2139 C1882 1.082 . S
C2155 C269 0.939 . S
C2157 C1762 0.926 . S
C2173 C1902 1.088 . S
C2175 C289 1.134 . S
C2191 C309 1.046 . S
C2193 C1862 1.000 . S
C2209 C329 1.053 . S
C2211 C1622 1.004 . S
C2227 C782 0.994 . S
C2229 C348 1.032 . S
C2245 C1682 1.077 . S
C2247 C369 1.114 . S
C2263 C389 1.188 . S
C2265 C742 1.145 . S
C2281 C409 1.104 . S
C2283 C762 1.054 . S
C2299 C429 1.071 . S
C2301 C1662 1.049 . S
C2317 C449 0.834 . S
C2319 C1602 0.827 . S
C2335 C1642 1.063 . S
C2337 C469 1.112 . S
C2353 C488 0.959 . S
C2355 C1021 0.937 . S
C2371 C508 0.969 . S
C2373 C1 0.919 . S
C2389 C529 1.151 . S
C2391 C981 1.131 . S
C2407 C58 1.446 . S
C2409 C548 1.496 . S
C2425 C1078 1.411 . S
C2427 C568 1.444 . S
C2443 C589 1.536 . S
C2445 C138 1.493 . S
C2461 C1101 0.968 . S
C2463 C609 1.012 . S
C2479 C628 0.859 . S
C2481 C81 0.841 . S
C2497 C648 1.054 . S
C2499 C1321 1.018 . S
C2515 C668 1.067 . S
C2517 C381 1.035 . S
C2533 C688 1.104 . S
C2535 C401 1.054 . S
C2551 C358 1.347 . S
C2553 C708 1.351 . S
C2569 C1401 1.082 . S
C2571 C728 1.092 . S
C2587 C748 0.939 . S
C2589 C1281 0.926 . S
C2605 C768 1.134 . S
C2607 C1421 1.088 . S
C2623 C1381 1.000 . S
C2625 C788 1.046 . S
C2641 C808 1.053 . S
C2643 C1141 1.004 . S
C2659 C829 1.032 . S
C2661 C301 0.994 . S
C2677 C1201 1.077 . S
C2679 C848 1.114 . S
C2695 C868 1.188 . S
C2697 C261 1.145 . S
C2713 C888 1.104 . S
C2715 C281 1.054 . S
C2731 C1181 1.049 . S
C2733 C908 1.071 . S
C2749 C1121 0.827 . S
C2751 C928 0.834 . S
C2767 C1161 1.063 . S
C2769 C948 1.112 . S
C2785 C969 0.959 . S
C2787 C542 0.937 . S
C2803 C1442 0.919 . S
C2805 C989 0.969 . S
C2821 C502 1.131 . S
C2823 C1008 1.151 . S
C2839 C1499 1.446 . S
C2841 C1029 1.496 . S
C2857 C1049 1.444 . S
C2859 C599 1.411 . S
C2875 C1068 1.536 . S
C2877 C1579 1.493 . S
C2893 C622 0.968 . S
C2895 C1088 1.012 . S
C2911 C1522 0.841 . S
C2913 C1109 0.859 . S
C2929 C842 1.018 . S
C2931 C1129 1.054 . S
C2947 C1149 1.067 . S
C2949 C1822 1.035 . S
C2965 C1169 1.104 . S
C2967 C1842 1.054 . S
C2983 C1799 1.347 . S
C2985 C1189 1.351 . S
C3001 C922 1.082 . S
C3003 C1209 1.092 . S
C3019 C802 0.926 . S
C3021 C1229 0.939 . S
C3037 C942 1.088 . S
C3039 C1249 1.134 . S
C3055 C902 1.000 . S
C3057 C1269 1.046 . S
C3073 C662 1.004 . S
C3075 C1289 1.053 . S
C3091 C1742 0.994 . S
C3093 C1308 1.032 . S
C3109 C1329 1.114 . S
C3111 C722 1.077 . S
C3127 C1702 1.145 . S
C3129 C1349 1.188 . S
C3145 C1722 1.054 . S
C3147 C1369 1.104 . S
C3163 C1389 1.071 . S
C3165 C702 1.049 . S
C3181 C1409 0.834 . S
C3183 C642 0.827 . S
C3199 C1429 1.112 . S
C3201 C682 1.064 . S
C3217 C1448 0.959 . S
C3219 C61 0.937 . S
C3235 C961 0.919 . S
C3237 C1468 0.969 . S
C3253 C1489 1.151 . S
C3255 C21 1.131 . S
C3271 C1508 1.496 . S
C3273 C1018 1.446 . S
C3289 C1528 1.444 . S
C3291 C118 1.411 . S
C3307 C1098 1.493 . S
C3309 C1549 1.536 . S
C3325 C141 0.968 . S
C3327 C1569 1.012 . S
C3343 C1588 0.859 . S
C3345 C1041 0.841 . S
C3361 C361 1.018 . S
C3363 C1608 1.054 . S
C3379 C1341 1.035 . S
C3381 C1628 1.067 . S
C3397 C1648 1.104 . S
C3399 C1361 1.054 . S
C3415 C1668 1.351 . S
C3417 C1318 1.347 . S
C3433 C1688 1.092 . S
C3435 C441 1.082 . S
C3451 C1708 0.939 . S
C3453 C321 0.926 . S
C3469 C1728 1.134 . S
C3471 C461 1.088 . S
C3487 C421 1.000 . S
C3489 C1748 1.046 . S
C3505 C181 1.004 . S
C3507 C1768 1.053 . S
C3523 C1789 1.032 . S
C3525 C1261 0.994 . S
C3541 C1808 1.114 . S
C3543 C241 1.077 . S
C3559 C1828 1.188 . S
C3561 C1221 1.145 . S
C3577 C1241 1.054 . S
C3579 C1848 1.104 . S
C3595 C221 1.049 . S
C3597 C1868 1.071 . S
C3613 C161 0.827 . S
C3615 C1888 0.834 . S
C3631 C1908 1.112 . S
C3633 C201 1.064 . S
C3649 C19 1.742 . S
C3651 C419 1.742 . S
C3667 C1302 1.347 . S
C3669 C39 1.346 . S
C3685 C42 1.278 . S
C3687 C1339 1.280 . S
C3703 C79 1.795 . S
C3705 C1359 1.794 . S
C3721 C99 1.801 . S
C3723 C1439 1.799 . S
C3739 C102 1.346 . S
C3741 C439 1.362 . S
C3757 C1419 1.371 . S
C3759 C122 1.362 . S
C3775 C339 1.823 . S
C3777 C159 1.824 . S
C3793 C179 1.836 1_565 S
C3795 C319 1.844 . S
C3811 C259 1.713 . S
C3813 C199 1.719 . S
C3829 C219 1.595 . S
C3831 C279 1.594 . S
C3847 C239 1.759 . S
C3849 C299 1.760 . S
C3865 C342 1.347 . S
C3867 C999 1.346 . S
C3883 C379 1.280 . S
C3885 C1002 1.278 . S
C3901 C399 1.794 . S
C3903 C1039 1.795 . S
C3919 C459 1.371 . S
C3921 C1082 1.362 . S
C3937 C1059 1.801 . S
C3939 C479 1.799 . S
C3955 C498 1.742 . S
C3957 C898 1.742 . S
C3973 C518 1.346 . S
C3975 C1781 1.347 . S
C3991 C1818 1.280 . S
C3993 C521 1.278 . S
C4009 C1838 1.794 . S
C4011 C558 1.795 . S
C4027 C578 1.801 . S
C4029 C1918 1.799 . S
C4045 C581 1.346 . S
C4047 C918 1.362 . S
C4063 C1898 1.371 . S
C4065 C601 1.362 . S
C4081 C638 1.824 . S
C4083 C818 1.823 . S
C4099 C798 1.844 . S
C4101 C658 1.836 1_545 S
C4117 C738 1.713 . S
C4119 C678 1.719 . S
C4135 C758 1.594 . S
C4137 C698 1.595 . S
C4153 C718 1.759 . S
C4155 C778 1.760 . S
C4171 C821 1.347 . S
C4173 C1478 1.346 . S
C4189 C1481 1.278 . S
C4191 C858 1.280 . S
C4207 C1518 1.795 . S
C4209 C878 1.794 . S
C4225 C938 1.371 . S
C4227 C1561 1.362 . S
C4243 C1538 1.801 . S
C4245 C958 1.799 . S
C4261 C1379 1.742 . S
C4263 C979 1.742 . S
C4279 C1399 1.362 . S
C4281 C1062 1.346 . S
C4297 C1299 1.823 . S
C4299 C1119 1.824 . S
C4315 C1139 1.836 . S
C4317 C1279 1.844 . S
C4333 C1159 1.719 . S
C4335 C1219 1.716 . S
C4351 C1239 1.594 . S
C4353 C1179 1.595 . S
C4369 C1259 1.760 . S
C4371 C1199 1.759 . S
C4387 C1458 1.742 . S
C4389 C1858 1.742 . S
C4405 C1878 1.362 . S
C4407 C1541 1.346 . S
C4423 C1598 1.824 . S
C4425 C1778 1.823 . S
C4441 C1618 1.836 . S
C4443 C1758 1.844 . S
C4459 C1698 1.716 . S
C4461 C1638 1.719 . S
C4477 C1718 1.594 . S
C4479 C1658 1.595 . S
C4495 C1678 1.759 . S
C4497 C1738 1.760 . S
C4513 C18 1.464 . S
C4515 C869 1.477 . S
C4531 C889 1.216 . S
C4533 C38 1.207 . S
C4549 C828 0.791 . S
C4551 C41 0.802 . S
C4567 C1809 1.383 . S
C4569 C78 1.424 . S
C4585 C98 1.431 . S
C4587 C1869 1.376 1_554 S
C4603 C1889 0.958 . S
C4605 C101 0.940 . S
C4621 C121 0.853 . S
C4623 C1769 0.886 . S
C4639 C1909 1.414 . S
C4641 C158 1.400 . S
C4657 C528 1.348 . S
C4659 C178 1.433 . S
C4675 C1509 1.265 . S
C4677 C198 1.256 . S
C4693 C218 1.118 . S
C4695 C489 1.119 . S
C4711 C1469 1.200 . S
C4713 C238 1.208 . S
C4729 C258 1.216 . S
C4731 C608 1.127 . S
C4747 C278 1.017 . S
C4749 C1589 1.038 . S
C4765 C298 1.220 . S
C4767 C569 1.219 . S
C4783 C318 1.455 . S
C4785 C1548 1.377 . S
C4801 C338 1.510 . S
C4803 C1689 1.527 . S
C4819 C649 0.941 1_545 S
C4821 C341 0.880 . S
C4837 C1629 1.233 . S
C4839 C378 1.199 . S
C4855 C398 1.250 . S
C4857 C689 1.274 . S
C4873 C418 1.429 . S
C4875 C709 1.445 . S
C4891 C438 1.258 . S
C4893 C1729 1.289 . S
C4909 C458 1.072 . S
C4911 C1749 1.100 . S
C4927 C478 1.411 . S
C4929 C1709 1.434 . S
C4945 C388 1.477 . S
C4947 C499 1.464 . S
C4963 C519 1.207 . S
C4965 C408 1.216 . S
C4981 C349 0.791 . S
C4983 C522 0.802 . S
C4999 C559 1.424 . S
C5001 C1328 1.383 . S
C5017 C579 1.431 . S
C5019 C1388 1.376 1_556 S
C5035 C1408 0.958 . S
C5037 C582 0.940 . S
C5053 C1288 0.886 . S
C5055 C602 0.853 . S
C5071 C639 1.400 . S
C5073 C1428 1.414 . S
C5089 C49 1.348 . S
C5091 C659 1.433 . S
C5107 C679 1.256 . S
C5109 C1028 1.265 . S
C5125 C699 1.118 . S
C5127 C8 1.119 . S
C5143 C988 1.200 . S
C5145 C719 1.208 . S
C5161 C129 1.127 . S
C5163 C739 1.216 . S
C5179 C759 1.017 . S
C5181 C1108 1.038 . S
C5197 C779 1.220 . S
C5199 C88 1.219 . S
C5215 C1069 1.377 . S
C5217 C799 1.455 . S
C5233 C819 1.510 . S
C5235 C1208 1.527 . S
C5251 C822 0.880 . S
C5253 C168 0.941 1_565 S
C5269 C1148 1.233 . S
C5271 C859 1.199 . S
C5287 C879 1.250 . S
C5289 C208 1.274 . S
C5305 C228 1.445 . S
C5307 C899 1.429 . S
C5323 C919 1.258 . S
C5325 C1248 1.289 . S
C5341 C1268 1.100 . S
C5343 C939 1.072 . S
C5359 C1228 1.434 . S
C5361 C959 1.411 . S
C5377 C1829 1.477 . S
C5379 C978 1.464 . S
C5395 C1849 1.216 . S
C5397 C998 1.207 . S
C5413 C1001 0.802 . S
C5415 C1788 0.791 . S
C5431 C1038 1.424 . S
C5433 C849 1.383 . S
C5449 C1058 1.431 . S
C5451 C909 1.400 . S
C5467 C1061 0.940 . S
C5469 C929 0.958 . S
C5485 C809 0.898 . S
C5487 C1081 0.853 . S
C5503 C949 1.414 . S
C5505 C1118 1.400 . S
C5521 C1138 1.433 . S
C5523 C1488 1.347 . S
C5539 C1158 1.256 . S
C5541 C549 1.265 . S
C5557 C1178 1.118 . S
C5559 C1449 1.119 . S
C5575 C1198 1.209 . S
C5577 C509 1.200 . S
C5593 C1218 1.216 . S
C5595 C1568 1.127 . S
C5611 C1238 1.017 . S
C5613 C629 1.038 . S
C5629 C1258 1.220 . S
C5631 C1529 1.219 . S
C5647 C1278 1.455 . S
C5649 C588 1.377 . S
C5665 C729 1.527 1_565 S
C5667 C1298 1.509 . S
C5683 C1609 0.941 . S
C5685 C1301 0.880 . S
C5701 C669 1.233 . S
C5703 C1338 1.199 . S
C5719 C1649 1.273 . S
C5721 C1358 1.250 . S
C5737 C1378 1.429 . S
C5739 C1669 1.445 . S
C5755 C1398 1.258 . S
C5757 C769 1.289 . S
C5773 C1418 1.072 . S
C5775 C789 1.100 . S
C5791 C1438 1.411 . S
C5793 C749 1.434 . S
C5809 C1348 1.477 . S
C5811 C1459 1.464 . S
C5827 C1368 1.216 . S
C5829 C1479 1.207 . S
C5845 C1482 0.802 . S
C5847 C1309 0.791 . S
C5863 C1519 1.424 . S
C5865 C368 1.383 . S
C5881 C428 1.400 . S
C5883 C1539 1.431 . S
C5899 C1542 0.940 . S
C5901 C448 0.958 . S
C5917 C328 0.898 . S
C5919 C1562 0.853 . S
C5935 C468 1.414 . S
C5937 C1599 1.400 . S
C5953 C1619 1.433 . S
C5955 C1009 1.347 . S
C5971 C1639 1.256 . S
C5973 C68 1.265 . S
C5989 C1659 1.118 . S
C5991 C968 1.119 . S
C6007 C1679 1.209 . S
C6009 C28 1.200 . S
C6025 C1089 1.127 . S
C6027 C1699 1.216 . S
C6043 C148 1.038 . S
C6045 C1719 1.017 . S
C6061 C1048 1.219 . S
C6063 C1739 1.220 . S
C6079 C1759 1.455 . S
C6081 C109 1.377 . S
C6097 C248 1.527 1_545 S
C6099 C1779 1.509 . S
C6115 C1782 0.880 . S
C6117 C1128 0.941 . S
C6133 C1819 1.199 . S
C6135 C188 1.233 . S
C6151 C1168 1.273 . S
C6153 C1839 1.250 . S
C6169 C1859 1.429 . S
C6171 C1188 1.445 . S
C6187 C1879 1.258 . S
C6189 C288 1.289 . S
C6205 C308 1.100 . S
C6207 C1899 1.072 . S
C6223 C1919 1.411 . S
C6225 C268 1.434 . S
C6241 C2 1.823 . S
C6243 C182 1.836 . S
C6259 C202 1.967 . S
C6261 C22 1.939 . S
C6277 C59 2.041 . S
C6279 C222 1.973 . S
C6295 C162 1.639 . S
C6297 C62 1.634 . S
C6313 C302 1.682 . S
C6315 C82 1.695 . S
C6331 C242 1.998 . S
C6333 C119 2.080 . S
C6349 C139 2.149 . S
C6351 C262 2.075 . S
C6367 C142 1.885 . S
C6369 C282 1.898 . S
C6385 C322 1.781 . S
C6387 C362 1.795 . S
C6403 C1402 1.792 . S
C6405 C359 1.890 . S
C6421 C382 2.020 . S
C6423 C1422 2.003 . S
C6439 C1382 1.909 . S
C6441 C402 1.905 . S
C6457 C1362 1.905 . S
C6459 C422 1.909 . S
C6475 C442 1.792 . S
C6477 C1319 1.890 . S
C6493 C462 2.003 . S
C6495 C1342 2.020 . S
C6511 C661 1.836 . S
C6513 C481 1.823 . S
C6529 C501 1.939 . S
C6531 C681 1.967 . S
C6547 C538 2.041 . S
C6549 C701 1.973 . S
C6565 C641 1.639 . S
C6567 C541 1.634 . S
C6583 C781 1.682 . S
C6585 C561 1.695 . S
C6601 C721 1.998 . S
C6603 C598 2.080 . S
C6619 C741 2.075 . S
C6621 C618 2.149 . S
C6637 C761 1.898 . S
C6639 C621 1.885 . S
C6655 C841 1.795 . S
C6657 C801 1.781 . S
C6673 C838 1.890 . S
C6675 C1881 1.792 . S
C6691 C861 2.020 . S
C6693 C1901 2.003 . S
C6709 C881 1.905 . S
C6711 C1861 1.909 . S
C6727 C1841 1.905 . S
C6729 C901 1.909 . S
C6745 C1798 1.890 . S
C6747 C921 1.792 . S
C6763 C1821 2.020 . S
C6765 C941 2.003 . S
C6781 C962 1.823 . S
C6783 C1142 1.836 . S
C6799 C982 1.939 . S
C6801 C1162 1.967 . S
C6817 C1019 2.041 . S
C6819 C1182 1.973 . S
C6835 C1022 1.634 . S
C6837 C1122 1.639 . S
C6853 C1262 1.682 . S
C6855 C1042 1.695 . S
C6871 C1079 2.080 . S
C6873 C1202 1.998 . S
C6889 C1222 2.076 . S
C6891 C1099 2.149 . S
C6907 C1242 1.898 . S
C6909 C1102 1.885 . S
C6925 C1322 1.795 . S
C6927 C1282 1.781 . S
C6943 C1441 1.823 . S
C6945 C1621 1.836 . S
C6961 C1641 1.967 . S
C6963 C1461 1.939 . S
C6979 C1498 2.041 . S
C6981 C1661 1.973 . S
C6997 C1601 1.639 . S
C6999 C1501 1.634 . S
C7015 C1521 1.695 . S
C7017 C1741 1.682 . S
C7033 C1681 1.998 . S
C7035 C1558 2.080 . S
C7051 C1578 2.149 . S
C7053 C1701 2.076 . S
C7069 C1581 1.885 . S
C7071 C1721 1.898 . S
C7087 C1761 1.781 . S
C7089 C1801 1.795 . S
