# Generated by pormake.
# Topology sne, (6)-cn, num edge types: 1
# Building blocks:
#     Node 0, Type 0, BuildingBlock: IZENUY_clean_sbu_0, # of connection points: 6
#     Node 1, Type 0, BuildingBlock: IZENUY_clean_sbu_0, # of connection points: 6
#     Node 2, Type 0, BuildingBlock: IZENUY_clean_sbu_0, # of connection points: 6
#     Node 3, Type 0, BuildingBlock: IZENUY_clean_sbu_0, # of connection points: 6
#     Node 4, Type 0, BuildingBlock: IZENUY_clean_sbu_0, # of connection points: 6
#     Node 5, Type 0, BuildingBlock: IZENUY_clean_sbu_0, # of connection points: 6
#     Node 6, Type 0, BuildingBlock: IZENUY_clean_sbu_0, # of connection points: 6
#     Node 7, Type 0, BuildingBlock: IZENUY_clean_sbu_0, # of connection points: 6
#     Edge 8, Type (0, 0), BuildingBlock: OJICUG_clean_linker_0, # of connection points: 2
#     Edge 9, Type (0, 0), BuildingBlock: OJICUG_clean_linker_0, # of connection points: 2
#     Edge 10, Type (0, 0), BuildingBlock: OJICUG_clean_linker_0, # of connection points: 2
#     Edge 11, Type (0, 0), BuildingBlock: OJICUG_clean_linker_0, # of connection points: 2
#     Edge 12, Type (0, 0), BuildingBlock: OJICUG_clean_linker_0, # of connection points: 2
#     Edge 13, Type (0, 0), BuildingBlock: OJICUG_clean_linker_0, # of connection points: 2
#     Edge 14, Type (0, 0), BuildingBlock: OJICUG_clean_linker_0, # of connection points: 2
#     Edge 15, Type (0, 0), BuildingBlock: OJICUG_clean_linker_0, # of connection points: 2
#     Edge 16, Type (0, 0), BuildingBlock: OJICUG_clean_linker_0, # of connection points: 2
#     Edge 17, Type (0, 0), BuildingBlock: OJICUG_clean_linker_0, # of connection points: 2
#     Edge 18, Type (0, 0), BuildingBlock: OJICUG_clean_linker_0, # of connection points: 2
#     Edge 19, Type (0, 0), BuildingBlock: OJICUG_clean_linker_0, # of connection points: 2
#     Edge 20, Type (0, 0), BuildingBlock: OJICUG_clean_linker_0, # of connection points: 2
#     Edge 21, Type (0, 0), BuildingBlock: OJICUG_clean_linker_0, # of connection points: 2
#     Edge 22, Type (0, 0), BuildingBlock: OJICUG_clean_linker_0, # of connection points: 2
#     Edge 23, Type (0, 0), BuildingBlock: OJICUG_clean_linker_0, # of connection points: 2
#     Edge 24, Type (0, 0), BuildingBlock: OJICUG_clean_linker_0, # of connection points: 2
#     Edge 25, Type (0, 0), BuildingBlock: OJICUG_clean_linker_0, # of connection points: 2
#     Edge 26, Type (0, 0), BuildingBlock: OJICUG_clean_linker_0, # of connection points: 2
#     Edge 27, Type (0, 0), BuildingBlock: OJICUG_clean_linker_0, # of connection points: 2
#     Edge 28, Type (0, 0), BuildingBlock: OJICUG_clean_linker_0, # of connection points: 2
#     Edge 29, Type (0, 0), BuildingBlock: OJICUG_clean_linker_0, # of connection points: 2
#     Edge 30, Type (0, 0), BuildingBlock: OJICUG_clean_linker_0, # of connection points: 2
#     Edge 31, Type (0, 0), BuildingBlock: OJICUG_clean_linker_0, # of connection points: 2
# Relax obj value: 0.265
# Max RMSD: 0.254
# Mean RMSD: 0.252
data_MOF--net-sne--node1-IZENUY_clean_sbu_0--edge1-OJICUG_clean_linker_0
_symmetry_space_group_name_H-M    P1
_symmetry_Int_Tables_number       1
_symmetry_cell_setting            triclinic
loop_
_symmetry_equiv_pos_as_xyz
'x, y, z'
_cell_length_a     25.901953
_cell_length_b     25.898388
_cell_length_c     19.582896
_cell_angle_alpha  90.006923
_cell_angle_beta   90.008783
_cell_angle_gamma 89.976168
loop_
_atom_site_label
_atom_site_type_symbol
_atom_site_fract_x
_atom_site_fract_y
_atom_site_fract_z
_atom_type_partial_charge
Fe0 Fe 0.26487 0.22404 0.37099 0.0
Fe1 Fe 0.21329 0.12125 0.33146 0.0
O2 O 0.26479 0.15551 0.37029 0.0
Fe3 Fe 0.31617 0.12052 0.40837 0.0
O4 O 0.33093 0.1692 0.47527 0.0
O5 O 0.26988 0.22702 0.46185 0.0
O6 O 0.19365 0.22927 0.38374 0.0
C7 C 0.16126 0.19511 0.40284 0.0
C8 C 0.36849 0.19528 0.33888 0.0
O9 O 0.16836 0.14808 0.39056 0.0
C10 C 0.29178 0.06129 0.28913 0.0
O11 O 0.25988 0.22803 0.28016 0.0
O12 O 0.19832 0.171 0.266 0.0
O13 O 0.36132 0.14814 0.35025 0.0
O14 O 0.33606 0.22929 0.35839 0.0
C15 C 0.23753 0.0601 0.44892 0.0
O16 O 0.25591 0.09099 0.27039 0.0
O17 O 0.3118 0.06577 0.34813 0.0
C18 C 0.22376 0.20981 0.24535 0.0
O19 O 0.21765 0.06553 0.39 0.0
O20 O 0.27342 0.08939 0.46851 0.0
C21 C 0.30552 0.20784 0.49662 0.0
Fe22 Fe 0.22195 0.76392 0.61797 0.0
Fe23 Fe 0.11832 0.81544 0.65382 0.0
O24 O 0.15343 0.76397 0.61621 0.0
Fe25 Fe 0.11932 0.71257 0.57688 0.0
O26 O 0.14573 0.66743 0.63609 0.0
O27 O 0.22698 0.69271 0.63071 0.0
O28 O 0.22412 0.76889 0.70891 0.0
C29 C 0.20503 0.80489 0.74311 0.0
C30 C 0.20846 0.72321 0.49183 0.0
O31 O 0.16664 0.83035 0.72112 0.0
C32 C 0.05981 0.79127 0.534 0.0
O33 O 0.2274 0.83514 0.60545 0.0
O34 O 0.14635 0.86043 0.59588 0.0
O35 O 0.16943 0.69778 0.51181 0.0
O36 O 0.22676 0.75895 0.52724 0.0
C37 C 0.05746 0.73699 0.69374 0.0
O38 O 0.06392 0.81114 0.59312 0.0
O39 O 0.08946 0.75529 0.51556 0.0
C40 C 0.19359 0.86756 0.58527 0.0
O41 O 0.08681 0.77275 0.71367 0.0
O42 O 0.06327 0.71696 0.63495 0.0
C43 C 0.19264 0.66029 0.64911 0.0
Fe44 Fe 0.76573 0.80588 0.36056 0.0
Fe45 Fe 0.71366 0.90835 0.40058 0.0
O46 O 0.76532 0.87441 0.36155 0.0
Fe47 Fe 0.81648 0.90972 0.32359 0.0
O48 O 0.83131 0.86137 0.2563 0.0
O49 O 0.7707 0.8031 0.26969 0.0
O50 O 0.69452 0.80045 0.34783 0.0
C51 C 0.66201 0.83454 0.32877 0.0
C52 C 0.86927 0.83494 0.39258 0.0
O53 O 0.6689 0.88158 0.3412 0.0
C54 C 0.79198 0.9683 0.44337 0.0
O55 O 0.76084 0.8017 0.45139 0.0
O56 O 0.69884 0.85826 0.46565 0.0
O57 O 0.86188 0.88206 0.38135 0.0
O58 O 0.83695 0.80085 0.37307 0.0
C59 C 0.73763 0.97013 0.28365 0.0
O60 O 0.75616 0.93849 0.46188 0.0
O61 O 0.81197 0.96417 0.3843 0.0
C62 C 0.72451 0.81953 0.48618 0.0
O63 O 0.7178 0.96437 0.34252 0.0
O64 O 0.77351 0.94093 0.26376 0.0
C65 C 0.80608 0.82266 0.23486 0.0
Fe66 Fe 0.90716 0.31479 0.57945 0.0
Fe67 Fe 0.90689 0.21194 0.65643 0.0
O68 O 0.87241 0.2632 0.6173 0.0
Fe69 Fe 0.80389 0.26293 0.61596 0.0
O70 O 0.80142 0.26787 0.52502 0.0
O71 O 0.85844 0.32964 0.5126 0.0
O72 O 0.93851 0.27221 0.51929 0.0
C73 C 0.96803 0.23647 0.53895 0.0
C74 C 0.832 0.36664 0.64858 0.0
O75 O 0.9626 0.21644 0.5978 0.0
C76 C 0.81808 0.22241 0.74211 0.0
O77 O 0.96191 0.31062 0.63961 0.0
O78 O 0.9369 0.25481 0.71743 0.0
O79 O 0.79824 0.33415 0.62852 0.0
O80 O 0.87923 0.35965 0.63772 0.0
C81 C 0.83346 0.15936 0.58477 0.0
O82 O 0.85717 0.19712 0.72196 0.0
O83 O 0.79938 0.25795 0.70671 0.0
C84 C 0.96639 0.2908 0.69869 0.0
O85 O 0.88037 0.16664 0.59755 0.0
O86 O 0.79906 0.19171 0.60326 0.0
C87 C 0.82008 0.30407 0.49081 0.0
Fe88 Fe 0.31255 0.40868 0.83146 0.0
Fe89 Fe 0.26099 0.30589 0.87101 0.0
O90 O 0.26107 0.37442 0.87031 0.0
Fe91 Fe 0.20972 0.40941 0.90842 0.0
O92 O 0.21406 0.46417 0.84821 0.0
O93 O 0.26989 0.43893 0.77043 0.0
O94 O 0.32748 0.35892 0.76599 0.0
C95 C 0.30204 0.3201 0.74536 0.0
C96 C 0.28837 0.46981 0.94896 0.0
O97 O 0.26594 0.30189 0.78017 0.0
C98 C 0.2204 0.3221 -0.00335 0.0
O99 O 0.35751 0.38185 0.89052 0.0
O100 O 0.33221 0.30065 0.88372 0.0
O101 O 0.25249 0.44052 0.96856 0.0
O102 O 0.30822 0.4644 0.89002 0.0
C103 C 0.15736 0.33466 0.83894 0.0
O104 O 0.25603 0.30292 0.96187 0.0
O105 O 0.19497 0.36073 0.97531 0.0
C106 C 0.36461 0.33482 0.90279 0.0
O107 O 0.18979 0.30065 0.85844 0.0
O108 O 0.16454 0.3818 0.85031 0.0
C109 C 0.23405 0.46865 0.78919 0.0
Fe110 Fe 0.30392 0.76601 0.11797 0.0
Fe111 Fe 0.40655 0.81733 0.07689 0.0
O112 O 0.37243 0.76595 0.11624 0.0
Fe113 Fe 0.40754 0.7145 0.15389 0.0
O114 O 0.37952 0.66949 0.09594 0.0
O115 O 0.29847 0.69478 0.10548 0.0
O116 O 0.29911 0.77094 0.02724 0.0
C117 C 0.31741 0.80667 -0.00818 0.0
C118 C 0.32082 0.72507 0.24313 0.0
O119 O 0.35645 0.83209 0.01179 0.0
C120 C 0.46838 0.79296 0.19381 0.0
O121 O 0.29889 0.83723 0.13068 0.0
O122 O 0.38014 0.8625 0.13606 0.0
O123 O 0.35921 0.69961 0.22116 0.0
O124 O 0.30175 0.76108 0.20891 0.0
C125 C 0.46608 0.73862 0.0341 0.0
O126 O 0.46259 0.81296 0.135 0.0
O127 O 0.43903 0.75721 0.21373 0.0
C128 C 0.33324 0.86965 0.14906 0.0
O129 O 0.43642 0.77457 0.01561 0.0
O130 O 0.46196 0.71877 0.09322 0.0
C131 C 0.33228 0.66236 0.08531 0.0
Fe132 Fe 0.81222 0.62156 0.90052 0.0
Fe133 Fe 0.76013 0.72402 0.86054 0.0
O134 O 0.76054 0.65549 0.86152 0.0
Fe135 Fe 0.70935 0.62019 0.82359 0.0
O136 O 0.71389 0.56573 0.88428 0.0
O137 O 0.76975 0.5914 0.96183 0.0
O138 O 0.82706 0.67164 0.9656 0.0
C139 C 0.80141 0.71038 0.98614 0.0
C140 C 0.78819 0.55978 0.78358 0.0
O141 O 0.76508 0.72822 0.95136 0.0
C142 C 0.71973 0.70722 0.73485 0.0
O143 O 0.85697 0.64833 0.84113 0.0
O144 O 0.83134 0.72946 0.84778 0.0
O145 O 0.75228 0.58897 0.76373 0.0
O146 O 0.80805 0.56555 0.84244 0.0
C147 C 0.65661 0.69498 0.89263 0.0
O148 O 0.75512 0.72679 0.76967 0.0
O149 O 0.69449 0.66854 0.75631 0.0
C150 C 0.86385 0.69537 0.82871 0.0
O151 O 0.68892 0.72906 0.87309 0.0
O152 O 0.66399 0.64785 0.8814 0.0
C153 C 0.73392 0.56159 0.94334 0.0
Fe154 Fe 0.72198 0.26697 0.11595 0.0
Fe155 Fe 0.61898 0.31797 0.15636 0.0
O156 O 0.65346 0.26669 0.11727 0.0
Fe157 Fe 0.61871 0.21509 0.07943 0.0
O158 O 0.64663 0.17026 0.13775 0.0
O159 O 0.72762 0.19575 0.12855 0.0
O160 O 0.72649 0.27199 0.2067 0.0
C161 C 0.70777 0.30752 0.2421 0.0
C162 C 0.70579 0.22577 0.99082 0.0
O163 O 0.66868 0.33281 0.22192 0.0
C164 C 0.55786 0.2934 0.03885 0.0
O165 O 0.72682 0.33818 0.10322 0.0
O166 O 0.64551 0.36326 0.09748 0.0
O167 O 0.66743 0.20021 0.01261 0.0
O168 O 0.72445 0.26199 0.02502 0.0
C169 C 0.55945 0.23914 0.19862 0.0
O170 O 0.56328 0.31345 0.0977 0.0
O171 O 0.58736 0.25764 0.01924 0.0
C172 C 0.69242 0.37054 0.08472 0.0
O173 O 0.58894 0.27513 0.21736 0.0
O174 O 0.56394 0.21928 0.13956 0.0
C175 C 0.69387 0.16328 0.14864 0.0
C176 C 0.26485 0.9922 0.20598 0.0
C177 C 0.30246 0.014 0.24939 0.0
H178 H 0.24424 0.92825 0.14112 0.0
C179 C 0.34888 0.98747 0.25994 0.0
H180 H 0.22827 0.01151 0.19777 0.0
C181 C 0.3578 0.94039 0.22784 0.0
C182 C 0.32031 0.91816 0.18487 0.0
H183 H 0.37835 1.00302 0.29341 0.0
H184 H 0.39427 0.92109 0.23715 0.0
C185 C 0.27354 0.94431 0.17439 0.0
C186 C 0.98202 0.6808 0.71846 0.0
C187 C 1.00927 0.72641 0.73164 0.0
H188 H 0.91465 0.63606 0.73807 0.0
C189 C 0.98755 0.76338 0.7761 0.0
H190 H 0.99745 0.65183 0.68413 0.0
C191 C 0.93918 0.75478 0.80638 0.0
C192 C 0.91243 0.70872 0.79345 0.0
H193 H 1.00739 0.79936 0.78636 0.0
H194 H 0.9233 0.78345 0.84075 0.0
C195 C 0.93443 0.67197 0.74919 0.0
C196 C 0.68084 0.04514 0.2592 0.0
C197 C 0.72651 0.01811 0.24555 0.0
H198 H 0.6356 0.11226 0.2401 0.0
C199 C 0.76299 0.03989 0.20047 0.0
H200 H 0.65223 0.02966 0.29398 0.0
C201 C 0.75385 0.08815 0.1701 0.0
C202 C 0.70777 0.11472 0.18361 0.0
H203 H 0.79899 0.02019 0.18981 0.0
H204 H 0.78215 0.10411 0.13529 0.0
C205 C 0.67152 0.09263 0.22846 0.0
C206 C 0.0831 0.27425 0.81441 0.0
C207 C 0.1089 0.32113 0.80339 0.0
H208 H 0.01634 0.22829 0.79125 0.0
C209 C 0.08647 0.35813 0.75984 0.0
H210 H 0.09932 0.24532 0.84811 0.0
C211 C 0.03956 0.34863 0.72768 0.0
C212 C 0.01342 0.30207 0.73866 0.0
H213 H 0.10548 0.39466 0.75005 0.0
H214 H 0.02388 0.37774 0.69377 0.0
C215 C 0.03537 0.26496 0.78268 0.0
C216 C 0.27216 0.58747 0.06319 0.0
C217 C 0.31845 0.61381 0.05027 0.0
H218 H 0.22676 0.51985 0.04258 0.0
C219 C 0.35487 0.59159 0.00572 0.0
H220 H 0.24371 0.60352 0.09774 0.0
C221 C 0.34546 0.54427 0.97461 0.0
C222 C 0.29955 0.51751 0.98759 0.0
H223 H 0.39094 0.61103 -0.0055 0.0
H224 H 0.37419 0.52872 0.94003 0.0
C225 C 0.26294 0.53935 0.03245 0.0
C226 C 0.58235 0.75536 0.91771 0.0
C227 C 0.60815 0.70839 0.92829 0.0
H228 H 0.51571 0.80135 0.94158 0.0
C229 C 0.5858 0.67126 0.97169 0.0
H230 H 0.5985 0.7844 0.88416 0.0
C231 C 0.53902 0.68073 0.00418 0.0
C232 C 0.5129 0.72738 -0.00631 0.0
H233 H 0.60481 0.63466 0.98117 0.0
H234 H 0.52342 0.65152 0.03799 0.0
C235 C 0.53473 0.76461 0.94977 0.0
C236 C 0.75217 0.44503 0.05883 0.0
C237 C 0.70528 0.41902 0.04879 0.0
H238 H 0.79757 0.51195 0.03469 0.0
C239 C 0.6677 0.44125 0.00594 0.0
H240 H 0.78155 0.42896 0.09197 0.0
C241 C 0.67666 0.48817 0.97347 0.0
C242 C 0.72321 0.51453 0.98353 0.0
H243 H 0.63114 0.42207 -0.00306 0.0
H244 H 0.64712 0.50371 0.94008 0.0
C245 C 0.7609 0.49277 0.02687 0.0
C246 C 0.48821 0.26684 0.95623 0.0
C247 C 0.50988 0.30397 0.00049 0.0
H248 H 0.42406 0.2466 0.89151 0.0
C249 C 0.48271 0.34973 0.01311 0.0
H250 H 0.50801 0.23075 0.9464 0.0
C251 C 0.43521 0.35852 0.98211 0.0
C252 C 0.41322 0.32159 0.9381 0.0
H253 H 0.49812 0.37882 0.04726 0.0
H254 H 0.41547 0.39453 -0.00712 0.0
C255 C 0.43993 0.27542 0.92566 0.0
C256 C 0.7628 0.48998 0.70046 0.0
C257 C 0.79932 0.51183 0.74544 0.0
H258 H 0.74362 0.4257 0.63537 0.0
C259 C 0.84505 0.48487 0.75898 0.0
H260 H 0.72675 0.50962 0.68989 0.0
C261 C 0.8544 0.43739 0.72825 0.0
C262 C 0.8181 0.41521 0.68352 0.0
H263 H 0.8737 0.50041 0.79368 0.0
H264 H 0.89036 0.41782 0.73982 0.0
C265 C 0.77195 0.44171 0.6701 0.0
C266 C 0.48627 0.18132 0.22761 0.0
C267 C 0.51242 0.22787 0.23858 0.0
H268 H 0.42036 0.13527 0.24998 0.0
C269 C 0.49047 0.26499 0.28261 0.0
H270 H 0.50195 0.1522 0.1937 0.0
C271 C 0.44275 0.2557 0.31434 0.0
C272 C 0.41695 0.20881 0.30333 0.0
H273 H 0.5095 0.30166 0.29118 0.0
H274 H 0.42653 0.28463 0.34804 0.0
C275 C 0.43938 0.17181 0.25977 0.0
C276 C 0.16812 0.58965 0.72805 0.0
C277 C 0.20557 0.6118 0.68497 0.0
H278 H 0.14757 0.52708 0.79369 0.0
C279 C 0.25229 0.58558 0.6744 0.0
H280 H 0.13169 0.60901 0.73742 0.0
C281 C 0.26095 0.53769 0.70599 0.0
C282 C 0.22338 0.51596 0.74949 0.0
H283 H 0.28155 0.60158 0.64104 0.0
H284 H 0.29749 0.51833 0.6977 0.0
C285 C 0.17702 0.54257 0.76015 0.0
C286 C 0.59147 0.85792 0.2492 0.0
C287 C 0.61343 0.82119 0.2935 0.0
H288 H 0.52845 0.87807 0.18412 0.0
C289 C 0.58665 0.77516 0.30648 0.0
H290 H 0.61127 0.89381 0.23804 0.0
C291 C 0.53827 0.76658 0.2762 0.0
C292 C 0.51658 0.80354 0.2317 0.0
H293 H 0.60251 0.74651 0.34089 0.0
H294 H 0.5184 0.73063 0.2865 0.0
C295 C 0.54386 0.84912 0.21848 0.0
C296 C 0.85818 0.08865 0.50597 0.0
C297 C 0.8206 0.11088 0.54883 0.0
H298 H 0.87875 0.0262 0.44011 0.0
C299 C 0.77373 0.08485 0.55889 0.0
H300 H 0.89472 0.10786 0.49696 0.0
C301 C 0.76501 0.03711 0.52693 0.0
C302 C 0.80269 0.01536 0.48358 0.0
H303 H 0.74436 0.10091 0.59204 0.0
H304 H 0.72835 0.01791 0.53477 0.0
C305 C 0.84923 0.04173 0.47351 0.0
C306 C 0.0859 0.25446 0.42566 0.0
C307 C 0.11268 0.20834 0.4382 0.0
H308 H 0.01776 0.29905 0.44633 0.0
C309 C 0.09078 0.17145 0.48232 0.0
H310 H 0.1017 0.28324 0.39142 0.0
C311 C 0.04328 0.18023 0.51334 0.0
C312 C 0.01603 0.22593 0.50061 0.0
H313 H 0.11058 0.13549 0.49317 0.0
H314 H 0.02794 0.15117 0.54758 0.0
C315 C 0.03762 0.26301 0.45625 0.0
C316 C 0.25374 0.94244 0.56314 0.0
C317 C 0.20743 0.91612 0.55024 0.0
H318 H 0.29916 0.01003 0.54251 0.0
C319 C 0.171 0.93834 0.5057 0.0
H320 H 0.28219 0.92638 0.59767 0.0
C321 C 0.18042 0.98566 0.47459 0.0
C322 C 0.22635 0.0124 0.48754 0.0
H323 H 0.13491 0.91893 0.4945 0.0
H324 H 0.15168 1.00122 0.44002 0.0
C325 C 0.26296 0.99055 0.53239 0.0
C326 C 0.9911 0.76525 0.44976 0.0
C327 C 0.01301 0.80252 0.49357 0.0
H328 H 0.92726 0.74543 0.38426 0.0
C329 C 0.98698 0.84923 0.50394 0.0
H330 H 0.01006 0.72846 0.44166 0.0
C331 C 0.94019 0.85871 0.47146 0.0
C332 C 0.91775 0.82153 0.42819 0.0
H333 H 1.00264 0.87848 0.53766 0.0
H334 H 0.92124 0.89536 0.48086 0.0
C335 C 0.94348 0.77452 0.41771 0.0
C336 C 0.20263 0.24077 0.05966 0.0
C337 C 0.20697 0.29503 0.06033 0.0
H338 H 0.20305 0.17075 0.11864 0.0
C339 C 0.20833 0.32096 0.12292 0.0
H340 H 0.20176 0.22001 0.01162 0.0
C341 C 0.21013 0.29272 0.18377 0.0
C342 C 0.20954 0.23827 0.1829 0.0
H343 H 0.21228 0.36259 0.12462 0.0
H344 H 0.21481 0.31339 0.2315 0.0
C345 C 0.20327 0.21256 0.12062 0.0
C346 C 0.31492 0.82376 0.86631 0.0
C347 C 0.28915 0.81998 0.92888 0.0
H348 H 0.30746 0.82185 0.75734 0.0
C349 C 0.23471 0.82022 0.92978 0.0
H350 H 0.35672 0.82319 0.86434 0.0
C351 C 0.20646 0.82042 0.86886 0.0
C352 C 0.23239 0.81927 0.80626 0.0
H353 H 0.21402 0.81734 0.97773 0.0
H354 H 0.16478 0.81725 0.87076 0.0
C355 C 0.2867 0.82279 0.80537 0.0
C356 C 0.82524 0.74192 0.17125 0.0
C357 C 0.81934 0.79603 0.17081 0.0
H358 H 0.82562 0.67192 0.1122 0.0
C359 C 0.81581 0.82191 0.10834 0.0
H360 H 0.82769 0.72121 0.21923 0.0
C361 C 0.8135 0.79364 0.04755 0.0
C362 C 0.81569 0.73922 0.04831 0.0
H363 H 0.81056 0.86341 0.10686 0.0
H364 H 0.80726 0.8142 6e-05 0.0
C365 C 0.82409 0.7137 0.11029 0.0
C366 C 0.73592 0.20732 0.8046 0.0
C367 C 0.79032 0.20926 0.80543 0.0
H368 H 0.66594 0.20947 0.86357 0.0
C369 C 0.81621 0.20787 0.86808 0.0
H370 H 0.71516 0.20844 0.75657 0.0
C371 C 0.788 0.20945 0.92897 0.0
C372 C 0.7336 0.21126 0.92804 0.0
H373 H 0.85797 0.20986 0.86996 0.0
H374 H 0.80876 0.21214 0.9769 0.0
C375 C 0.7077 0.20772 0.86555 0.0
C376 C 0.70165 0.81615 0.61028 0.0
C377 C 0.71022 0.79065 0.54831 0.0
H378 H 0.69786 0.80863 0.7192 0.0
C379 C 0.71253 0.73624 0.54754 0.0
H380 H 0.70001 0.85792 0.61219 0.0
C381 C 0.71018 0.70796 0.60832 0.0
C382 C 0.70647 0.73382 0.67079 0.0
H383 H 0.7189 0.71569 0.50007 0.0
H384 H 0.71553 0.66648 0.60683 0.0
C385 C 0.70044 0.78792 0.67122 0.0
C386 C 0.73783 0.3203 0.42898 0.0
C387 C 0.79224 0.31859 0.42805 0.0
H388 H 0.66786 0.31986 0.36995 0.0
C389 C 0.81813 0.32228 0.36558 0.0
H390 H 0.71708 0.31752 0.47688 0.0
C391 C 0.78991 0.32272 0.30463 0.0
C392 C 0.73551 0.32068 0.30544 0.0
H393 H 0.8599 0.32061 0.36362 0.0
H394 H 0.81066 0.32169 0.25659 0.0
C395 C 0.70962 0.32193 0.36807 0.0
C396 C 0.3227 0.31732 0.62068 0.0
C397 C 0.31626 0.29161 0.68291 0.0
H398 H 0.32438 0.30988 0.51168 0.0
C399 C 0.31555 0.23716 0.68376 0.0
H400 H 0.32301 0.35913 0.61873 0.0
C401 C 0.31741 0.20893 0.6229 0.0
C402 C 0.31894 0.23487 0.56033 0.0
H403 H 0.31077 0.2165 0.73146 0.0
H404 H 0.31337 0.16731 0.62457 0.0
C405 C 0.32339 0.28912 0.5597 0.0
C406 C 0.23912 0.70728 0.30535 0.0
C407 C 0.29344 0.7107 0.30626 0.0
H408 H 0.16911 0.70691 0.36429 0.0
C409 C 0.31937 0.70942 0.36886 0.0
H410 H 0.21836 0.70831 0.25732 0.0
C411 C 0.29113 0.70959 0.42978 0.0
C412 C 0.23669 0.70991 0.42886 0.0
H413 H 0.36106 0.71252 0.37078 0.0
H414 H 0.31182 0.71237 0.47774 0.0
C415 C 0.21091 0.70627 0.36628 0.0
loop_
_geom_bond_atom_site_label_1
_geom_bond_atom_site_label_2
_geom_bond_distance
_geom_bond_site_symmetry_2
_ccdc_geom_bond_type
Fe0 O2 1.918 . S
Fe0 O5 1.997 . S
Fe0 O6 2.002 . S
Fe0 O11 1.976 . S
Fe0 O14 1.996 . S
Fe1 O2 1.918 . S
Fe1 O9 1.997 . S
Fe1 O12 1.996 . S
Fe1 O16 1.976 . S
Fe1 O19 2.002 . S
O2 Fe0 1.918 . S
O2 Fe1 1.918 . S
O2 Fe3 1.918 . S
Fe3 O2 1.918 . S
Fe3 O4 2.002 . S
Fe3 O13 1.976 . S
Fe3 O17 1.996 . S
Fe3 O20 1.997 . S
O4 Fe3 2.002 . S
O4 C21 1.295 . S
O5 Fe0 1.997 . S
O5 C21 1.235 . S
O6 Fe0 2.002 . S
O6 C7 1.295 . S
C7 O6 1.295 . S
C7 O9 1.235 . S
C8 O13 1.287 . S
C8 O14 1.255 . S
O9 Fe1 1.997 . S
O9 C7 1.235 . S
C10 O16 1.287 . S
C10 O17 1.255 . S
O11 Fe0 1.976 . S
O11 C18 1.287 . S
O12 Fe1 1.996 . S
O12 C18 1.255 . S
O13 Fe3 1.976 . S
O13 C8 1.287 . S
O14 Fe0 1.996 . S
O14 C8 1.255 . S
C15 O19 1.295 . S
C15 O20 1.235 . S
O16 Fe1 1.976 . S
O16 C10 1.287 . S
O17 Fe3 1.996 . S
O17 C10 1.255 . S
C18 O11 1.287 . S
C18 O12 1.255 . S
O19 Fe1 2.002 . S
O19 C15 1.295 . S
O20 Fe3 1.997 . S
O20 C15 1.235 . S
C21 O4 1.295 . S
C21 O5 1.235 . S
Fe22 O24 1.918 . S
Fe22 O27 1.997 . S
Fe22 O28 2.002 . S
Fe22 O33 1.976 . S
Fe22 O36 1.996 . S
Fe23 O24 1.918 . S
Fe23 O31 1.997 . S
Fe23 O34 1.996 . S
Fe23 O38 1.976 . S
Fe23 O41 2.002 . S
O24 Fe22 1.918 . S
O24 Fe23 1.918 . S
O24 Fe25 1.918 . S
Fe25 O24 1.918 . S
Fe25 O26 2.002 . S
Fe25 O35 1.976 . S
Fe25 O39 1.996 . S
Fe25 O42 1.997 . S
O26 Fe25 2.002 . S
O26 C43 1.295 . S
O27 Fe22 1.997 . S
O27 C43 1.235 . S
O28 Fe22 2.002 . S
O28 C29 1.295 . S
C29 O28 1.295 . S
C29 O31 1.235 . S
C30 O35 1.287 . S
C30 O36 1.255 . S
O31 Fe23 1.997 . S
O31 C29 1.235 . S
C32 O38 1.287 . S
C32 O39 1.255 . S
O33 Fe22 1.976 . S
O33 C40 1.287 . S
O34 Fe23 1.996 . S
O34 C40 1.255 . S
O35 Fe25 1.976 . S
O35 C30 1.287 . S
O36 Fe22 1.996 . S
O36 C30 1.255 . S
C37 O41 1.295 . S
C37 O42 1.235 . S
O38 Fe23 1.976 . S
O38 C32 1.287 . S
O39 Fe25 1.996 . S
O39 C32 1.255 . S
C40 O33 1.287 . S
C40 O34 1.255 . S
O41 Fe23 2.002 . S
O41 C37 1.295 . S
O42 Fe25 1.997 . S
O42 C37 1.235 . S
C43 O26 1.295 . S
C43 O27 1.235 . S
Fe44 O46 1.918 . S
Fe44 O49 1.997 . S
Fe44 O50 2.002 . S
Fe44 O55 1.976 . S
Fe44 O58 1.996 . S
Fe45 O46 1.918 . S
Fe45 O53 1.997 . S
Fe45 O56 1.996 . S
Fe45 O60 1.976 . S
Fe45 O63 2.002 . S
O46 Fe44 1.918 . S
O46 Fe45 1.918 . S
O46 Fe47 1.918 . S
Fe47 O46 1.918 . S
Fe47 O48 2.002 . S
Fe47 O57 1.976 . S
Fe47 O61 1.996 . S
Fe47 O64 1.997 . S
O48 Fe47 2.002 . S
O48 C65 1.295 . S
O49 Fe44 1.997 . S
O49 C65 1.235 . S
O50 Fe44 2.002 . S
O50 C51 1.295 . S
C51 O50 1.295 . S
C51 O53 1.235 . S
C52 O57 1.287 . S
C52 O58 1.255 . S
O53 Fe45 1.997 . S
O53 C51 1.235 . S
C54 O60 1.287 . S
C54 O61 1.255 . S
O55 Fe44 1.976 . S
O55 C62 1.287 . S
O56 Fe45 1.996 . S
O56 C62 1.255 . S
O57 Fe47 1.976 . S
O57 C52 1.287 . S
O58 Fe44 1.996 . S
O58 C52 1.255 . S
C59 O63 1.295 . S
C59 O64 1.235 . S
O60 Fe45 1.976 . S
O60 C54 1.287 . S
O61 Fe47 1.996 . S
O61 C54 1.255 . S
C62 O55 1.287 . S
C62 O56 1.255 . S
O63 Fe45 2.002 . S
O63 C59 1.295 . S
O64 Fe47 1.997 . S
O64 C59 1.235 . S
C65 O48 1.295 . S
C65 O49 1.235 . S
Fe66 O68 1.918 . S
Fe66 O71 1.997 . S
Fe66 O72 2.002 . S
Fe66 O77 1.976 . S
Fe66 O80 1.996 . S
Fe67 O68 1.918 . S
Fe67 O75 1.997 . S
Fe67 O78 1.996 . S
Fe67 O82 1.976 . S
Fe67 O85 2.002 . S
O68 Fe66 1.918 . S
O68 Fe67 1.918 . S
O68 Fe69 1.918 . S
Fe69 O68 1.918 . S
Fe69 O70 2.002 . S
Fe69 O79 1.976 . S
Fe69 O83 1.996 . S
Fe69 O86 1.997 . S
O70 Fe69 2.002 . S
O70 C87 1.295 . S
O71 Fe66 1.997 . S
O71 C87 1.235 . S
O72 Fe66 2.002 . S
O72 C73 1.295 . S
C73 O72 1.295 . S
C73 O75 1.235 . S
C74 O79 1.287 . S
C74 O80 1.255 . S
O75 Fe67 1.997 . S
O75 C73 1.235 . S
C76 O82 1.287 . S
C76 O83 1.255 . S
O77 Fe66 1.976 . S
O77 C84 1.287 . S
O78 Fe67 1.996 . S
O78 C84 1.255 . S
O79 Fe69 1.976 . S
O79 C74 1.287 . S
O80 Fe66 1.996 . S
O80 C74 1.255 . S
C81 O85 1.295 . S
C81 O86 1.235 . S
O82 Fe67 1.976 . S
O82 C76 1.287 . S
O83 Fe69 1.996 . S
O83 C76 1.255 . S
C84 O77 1.287 . S
C84 O78 1.255 . S
O85 Fe67 2.002 . S
O85 C81 1.295 . S
O86 Fe69 1.997 . S
O86 C81 1.235 . S
C87 O70 1.295 . S
C87 O71 1.235 . S
Fe88 O90 1.918 . S
Fe88 O93 1.997 . S
Fe88 O94 2.002 . S
Fe88 O99 1.976 . S
Fe88 O102 1.996 . S
Fe89 O90 1.918 . S
Fe89 O97 1.997 . S
Fe89 O100 1.996 . S
Fe89 O104 1.976 . S
Fe89 O107 2.002 . S
O90 Fe88 1.918 . S
O90 Fe89 1.918 . S
O90 Fe91 1.918 . S
Fe91 O90 1.918 . S
Fe91 O92 2.002 . S
Fe91 O101 1.976 . S
Fe91 O105 1.996 1_556 S
Fe91 O108 1.997 . S
O92 Fe91 2.002 . S
O92 C109 1.295 . S
O93 Fe88 1.997 . S
O93 C109 1.235 . S
O94 Fe88 2.002 . S
O94 C95 1.295 . S
C95 O94 1.295 . S
C95 O97 1.235 . S
C96 O101 1.287 . S
C96 O102 1.255 . S
O97 Fe89 1.997 . S
O97 C95 1.235 . S
C98 O104 1.287 1_554 S
C98 O105 1.255 . S
O99 Fe88 1.976 . S
O99 C106 1.287 . S
O100 Fe89 1.996 . S
O100 C106 1.255 . S
O101 Fe91 1.976 . S
O101 C96 1.287 . S
O102 Fe88 1.996 . S
O102 C96 1.255 . S
C103 O107 1.295 . S
C103 O108 1.235 . S
O104 Fe89 1.976 . S
O104 C98 1.287 1_556 S
O105 Fe91 1.996 1_554 S
O105 C98 1.255 . S
C106 O99 1.287 . S
C106 O100 1.255 . S
O107 Fe89 2.002 . S
O107 C103 1.295 . S
O108 Fe91 1.997 . S
O108 C103 1.235 . S
C109 O92 1.295 . S
C109 O93 1.235 . S
Fe110 O112 1.918 . S
Fe110 O115 1.997 . S
Fe110 O116 2.002 . S
Fe110 O121 1.976 . S
Fe110 O124 1.996 . S
Fe111 O112 1.918 . S
Fe111 O119 1.997 1_554 S
Fe111 O122 1.996 . S
Fe111 O126 1.976 . S
Fe111 O129 2.002 . S
O112 Fe110 1.918 . S
O112 Fe111 1.918 . S
O112 Fe113 1.918 . S
Fe113 O112 1.918 . S
Fe113 O114 2.002 . S
Fe113 O123 1.976 . S
Fe113 O127 1.996 . S
Fe113 O130 1.997 . S
O114 Fe113 2.002 . S
O114 C131 1.295 . S
O115 Fe110 1.997 . S
O115 C131 1.235 . S
O116 Fe110 2.002 . S
O116 C117 1.295 1_554 S
C117 O116 1.295 1_556 S
C117 O119 1.235 . S
C118 O123 1.287 . S
C118 O124 1.255 . S
O119 Fe111 1.997 1_556 S
O119 C117 1.235 . S
C120 O126 1.287 . S
C120 O127 1.255 . S
O121 Fe110 1.976 . S
O121 C128 1.287 . S
O122 Fe111 1.996 . S
O122 C128 1.255 . S
O123 Fe113 1.976 . S
O123 C118 1.287 . S
O124 Fe110 1.996 . S
O124 C118 1.255 . S
C125 O129 1.295 . S
C125 O130 1.235 . S
O126 Fe111 1.976 . S
O126 C120 1.287 . S
O127 Fe113 1.996 . S
O127 C120 1.255 . S
C128 O121 1.287 . S
C128 O122 1.255 . S
O129 Fe111 2.002 . S
O129 C125 1.295 . S
O130 Fe113 1.997 . S
O130 C125 1.235 . S
C131 O114 1.295 . S
C131 O115 1.235 . S
Fe132 O134 1.918 . S
Fe132 O137 1.997 . S
Fe132 O138 2.002 1_556 S
Fe132 O143 1.976 . S
Fe132 O146 1.996 . S
Fe133 O134 1.918 . S
Fe133 O141 1.997 . S
Fe133 O144 1.996 . S
Fe133 O148 1.976 . S
Fe133 O151 2.002 . S
O134 Fe132 1.918 . S
O134 Fe133 1.918 . S
O134 Fe135 1.918 . S
Fe135 O134 1.918 . S
Fe135 O136 2.002 . S
Fe135 O145 1.976 . S
Fe135 O149 1.996 . S
Fe135 O152 1.997 . S
O136 Fe135 2.002 . S
O136 C153 1.295 . S
O137 Fe132 1.997 . S
O137 C153 1.235 . S
O138 Fe132 2.002 1_554 S
O138 C139 1.295 . S
C139 O138 1.295 . S
C139 O141 1.235 1_554 S
C140 O145 1.287 . S
C140 O146 1.255 . S
O141 Fe133 1.997 . S
O141 C139 1.235 1_556 S
C142 O148 1.287 . S
C142 O149 1.255 . S
O143 Fe132 1.976 . S
O143 C150 1.287 . S
O144 Fe133 1.996 . S
O144 C150 1.255 . S
O145 Fe135 1.976 . S
O145 C140 1.287 . S
O146 Fe132 1.996 . S
O146 C140 1.255 . S
C147 O151 1.295 . S
C147 O152 1.235 . S
O148 Fe133 1.976 . S
O148 C142 1.287 . S
O149 Fe135 1.996 . S
O149 C142 1.255 . S
C150 O143 1.287 . S
C150 O144 1.255 . S
O151 Fe133 2.002 . S
O151 C147 1.295 . S
O152 Fe135 1.997 . S
O152 C147 1.235 . S
C153 O136 1.295 . S
C153 O137 1.235 . S
Fe154 O156 1.918 . S
Fe154 O159 1.997 . S
Fe154 O160 2.002 . S
Fe154 O165 1.976 . S
Fe154 O168 1.996 . S
Fe155 O156 1.918 . S
Fe155 O163 1.997 . S
Fe155 O166 1.996 . S
Fe155 O170 1.976 . S
Fe155 O173 2.002 . S
O156 Fe154 1.918 . S
O156 Fe155 1.918 . S
O156 Fe157 1.918 . S
Fe157 O156 1.918 . S
Fe157 O158 2.002 . S
Fe157 O167 1.976 1_554 S
Fe157 O171 1.996 . S
Fe157 O174 1.997 . S
O158 Fe157 2.002 . S
O158 C175 1.295 . S
O159 Fe154 1.997 . S
O159 C175 1.235 . S
O160 Fe154 2.002 . S
O160 C161 1.295 . S
C161 O160 1.295 . S
C161 O163 1.235 . S
C162 O167 1.287 . S
C162 O168 1.255 1_556 S
O163 Fe155 1.997 . S
O163 C161 1.235 . S
C164 O170 1.287 . S
C164 O171 1.255 . S
O165 Fe154 1.976 . S
O165 C172 1.287 . S
O166 Fe155 1.996 . S
O166 C172 1.255 . S
O167 Fe157 1.976 1_556 S
O167 C162 1.287 . S
O168 Fe154 1.996 . S
O168 C162 1.255 1_554 S
C169 O173 1.295 . S
C169 O174 1.235 . S
O170 Fe155 1.976 . S
O170 C164 1.287 . S
O171 Fe157 1.996 . S
O171 C164 1.255 . S
C172 O165 1.287 . S
C172 O166 1.255 . S
O173 Fe155 2.002 . S
O173 C169 1.295 . S
O174 Fe157 1.997 . S
O174 C169 1.235 . S
C175 O158 1.295 . S
C175 O159 1.235 . S
C176 C177 1.391 . S
C176 H180 0.950 . S
C176 C185 1.390 . S
C177 C176 1.391 . S
C177 C179 1.391 . S
H178 C185 0.950 . S
C179 C177 1.391 . S
C179 C181 1.390 . S
C179 H183 0.950 . S
H180 C176 0.950 . S
C181 C179 1.390 . S
C181 C182 1.387 . S
C181 H184 0.950 . S
C182 C181 1.387 . S
C182 C185 1.387 . S
H183 C179 0.950 . S
H184 C181 0.950 . S
C185 C176 1.390 . S
C185 H178 0.950 . S
C185 C182 1.387 . S
C186 C187 1.385 1_655 S
C186 H190 0.950 . S
C186 C195 1.390 . S
C187 C186 1.385 1_455 S
C187 C189 1.386 1_455 S
H188 C195 0.950 . S
C189 C187 1.386 1_655 S
C189 C191 1.390 . S
C189 H193 0.945 1_655 S
H190 C186 0.950 . S
C191 C189 1.390 . S
C191 C192 1.387 . S
C191 H194 0.950 . S
C192 C191 1.387 . S
C192 C195 1.387 . S
H193 C189 0.945 1_455 S
H194 C191 0.950 . S
C195 C186 1.390 . S
C195 H188 0.950 . S
C195 C192 1.387 . S
C196 C197 1.387 . S
C196 H200 0.950 1_545 S
C196 C205 1.390 . S
C197 C196 1.387 . S
C197 C199 1.387 . S
H198 C205 0.950 . S
C199 C197 1.387 . S
C199 C201 1.390 . S
C199 H203 0.950 . S
H200 C196 0.950 1_565 S
C201 C199 1.390 . S
C201 C202 1.387 . S
C201 H204 0.950 . S
C202 C201 1.387 . S
C202 C205 1.387 . S
H203 C199 0.950 . S
H204 C201 0.950 . S
C205 C196 1.390 . S
C205 H198 0.950 . S
C205 C202 1.387 . S
C206 C207 1.387 . S
C206 H210 0.950 . S
C206 C215 1.390 . S
C207 C206 1.387 . S
C207 C209 1.387 . S
H208 C215 0.950 . S
C209 C207 1.387 . S
C209 C211 1.390 . S
C209 H213 0.950 . S
H210 C206 0.950 . S
C211 C209 1.390 . S
C211 C212 1.387 . S
C211 H214 0.950 . S
C212 C211 1.387 . S
C212 C215 1.387 . S
H213 C209 0.950 . S
H214 C211 0.950 . S
C215 C206 1.390 . S
C215 H208 0.950 . S
C215 C212 1.387 . S
C216 C217 1.387 . S
C216 H220 0.950 . S
C216 C225 1.390 . S
C217 C216 1.387 . S
C217 C219 1.387 . S
H218 C225 0.950 1_556 S
C219 C217 1.387 . S
C219 C221 1.390 . S
C219 H223 0.950 . S
H220 C216 0.950 . S
C221 C219 1.390 . S
C221 C222 1.387 1_554 S
C221 H224 0.950 . S
C222 C221 1.387 1_556 S
C222 C225 1.387 1_556 S
H223 C219 0.950 . S
H224 C221 0.950 . S
C225 C216 1.390 . S
C225 H218 0.950 1_554 S
C225 C222 1.387 1_554 S
C226 C227 1.387 . S
C226 H230 0.950 . S
C226 C235 1.390 . S
C227 C226 1.387 . S
C227 C229 1.387 . S
H228 C235 0.950 . S
C229 C227 1.387 . S
C229 C231 1.390 . S
C229 H233 0.950 . S
H230 C226 0.950 . S
C231 C229 1.390 . S
C231 C232 1.388 . S
C231 H234 0.950 1_556 S
C232 C231 1.388 . S
C232 C235 1.390 . S
H233 C229 0.950 . S
H234 C231 0.950 1_554 S
C235 C226 1.390 . S
C235 H228 0.950 . S
C235 C232 1.390 . S
C236 C237 1.387 . S
C236 H240 0.950 . S
C236 C245 1.390 . S
C237 C236 1.387 . S
C237 C239 1.387 . S
H238 C245 0.950 . S
C239 C237 1.387 . S
C239 C241 1.390 . S
C239 H243 0.950 . S
H240 C236 0.950 . S
C241 C239 1.390 . S
C241 C242 1.387 1_554 S
C241 H244 0.950 1_554 S
C242 C241 1.387 1_556 S
C242 C245 1.387 1_556 S
H243 C239 0.950 . S
H244 C241 0.950 1_556 S
C245 C236 1.390 . S
C245 H238 0.950 . S
C245 C242 1.387 1_554 S
C246 C247 1.387 1_556 S
C246 H250 0.950 . S
C246 C255 1.390 . S
C247 C246 1.387 1_554 S
C247 C249 1.387 1_554 S
H248 C255 0.950 . S
C249 C247 1.387 1_556 S
C249 C251 1.390 . S
C249 H253 0.950 1_556 S
H250 C246 0.950 . S
C251 C249 1.390 . S
C251 C252 1.387 . S
C251 H254 0.950 . S
C252 C251 1.387 . S
C252 C255 1.387 . S
H253 C249 0.950 1_554 S
H254 C251 0.950 . S
C255 C246 1.390 . S
C255 H248 0.950 . S
C255 C252 1.387 . S
C256 C257 1.387 . S
C256 H260 0.950 . S
C256 C265 1.390 . S
C257 C256 1.387 . S
C257 C259 1.387 . S
H258 C265 0.950 . S
C259 C257 1.387 . S
C259 C261 1.390 . S
C259 H263 0.950 . S
H260 C256 0.950 . S
C261 C259 1.390 . S
C261 C262 1.387 . S
C261 H264 0.950 . S
C262 C261 1.387 . S
C262 C265 1.387 . S
H263 C259 0.950 . S
H264 C261 0.950 . S
C265 C256 1.390 . S
C265 H258 0.950 . S
C265 C262 1.387 . S
C266 C267 1.387 . S
C266 H270 0.950 . S
C266 C275 1.390 . S
C267 C266 1.387 . S
C267 C269 1.387 . S
H268 C275 0.950 . S
C269 C267 1.387 . S
C269 C271 1.390 . S
C269 H273 0.950 . S
H270 C266 0.950 . S
C271 C269 1.390 . S
C271 C272 1.387 . S
C271 H274 0.950 . S
C272 C271 1.387 . S
C272 C275 1.387 . S
H273 C269 0.950 . S
H274 C271 0.950 . S
C275 C266 1.390 . S
C275 H268 0.950 . S
C275 C272 1.387 . S
C276 C277 1.387 . S
C276 H280 0.950 . S
C276 C285 1.390 . S
C277 C276 1.387 . S
C277 C279 1.387 . S
H278 C285 0.950 . S
C279 C277 1.387 . S
C279 C281 1.390 . S
C279 H283 0.950 . S
H280 C276 0.950 . S
C281 C279 1.390 . S
C281 C282 1.387 . S
C281 H284 0.950 . S
C282 C281 1.387 . S
C282 C285 1.387 . S
H283 C279 0.950 . S
H284 C281 0.950 . S
C285 C276 1.390 . S
C285 H278 0.950 . S
C285 C282 1.387 . S
C286 C287 1.387 . S
C286 H290 0.950 . S
C286 C295 1.390 . S
C287 C286 1.387 . S
C287 C289 1.387 . S
H288 C295 0.950 . S
C289 C287 1.387 . S
C289 C291 1.390 . S
C289 H293 0.950 . S
H290 C286 0.950 . S
C291 C289 1.390 . S
C291 C292 1.387 . S
C291 H294 0.950 . S
C292 C291 1.387 . S
C292 C295 1.387 . S
H293 C289 0.950 . S
H294 C291 0.950 . S
C295 C286 1.390 . S
C295 H288 0.950 . S
C295 C292 1.387 . S
C296 C297 1.387 . S
C296 H300 0.950 . S
C296 C305 1.390 . S
C297 C296 1.387 . S
C297 C299 1.387 . S
H298 C305 0.950 . S
C299 C297 1.387 . S
C299 C301 1.390 . S
C299 H303 0.950 . S
H300 C296 0.950 . S
C301 C299 1.390 . S
C301 C302 1.387 . S
C301 H304 0.950 . S
C302 C301 1.387 . S
C302 C305 1.387 . S
H303 C299 0.950 . S
H304 C301 0.950 . S
C305 C296 1.390 . S
C305 H298 0.950 . S
C305 C302 1.387 . S
C306 C307 1.387 . S
C306 H310 0.950 . S
C306 C315 1.390 . S
C307 C306 1.387 . S
C307 C309 1.387 . S
H308 C315 0.950 . S
C309 C307 1.387 . S
C309 C311 1.390 . S
C309 H313 0.950 . S
H310 C306 0.950 . S
C311 C309 1.390 . S
C311 C312 1.387 . S
C311 H314 0.950 . S
C312 C311 1.387 . S
C312 C315 1.387 . S
H313 C309 0.950 . S
H314 C311 0.950 . S
C315 C306 1.390 . S
C315 H308 0.950 . S
C315 C312 1.387 . S
C316 C317 1.387 . S
C316 H320 0.950 . S
C316 C325 1.390 . S
C317 C316 1.387 . S
C317 C319 1.387 . S
H318 C325 0.947 1_545 S
C319 C317 1.387 . S
C319 C321 1.390 . S
C319 H323 0.950 . S
H320 C316 0.950 . S
C321 C319 1.390 . S
C321 C322 1.387 1_565 S
C321 H324 0.950 . S
C322 C321 1.387 1_545 S
C322 C325 1.387 1_545 S
H323 C319 0.950 . S
H324 C321 0.950 . S
C325 C316 1.390 . S
C325 H318 0.947 1_565 S
C325 C322 1.387 1_565 S
C326 C327 1.387 . S
C326 H330 0.950 . S
C326 C335 1.390 . S
C327 C326 1.387 . S
C327 C329 1.387 . S
H328 C335 0.950 . S
C329 C327 1.387 . S
C329 C331 1.390 . S
C329 H333 0.950 . S
H330 C326 0.950 . S
C331 C329 1.390 . S
C331 C332 1.387 . S
C331 H334 0.950 . S
C332 C331 1.387 . S
C332 C335 1.387 . S
H333 C329 0.950 . S
H334 C331 0.950 . S
C335 C326 1.390 . S
C335 H328 0.950 . S
C335 C332 1.387 . S
C336 C337 1.387 . S
C336 H340 0.950 . S
C336 C345 1.390 . S
C337 C336 1.387 . S
C337 C339 1.387 . S
H338 C345 0.950 . S
C339 C337 1.387 . S
C339 C341 1.390 . S
C339 H343 0.950 . S
H340 C336 0.950 . S
C341 C339 1.390 . S
C341 C342 1.387 . S
C341 H344 0.950 . S
C342 C341 1.387 . S
C342 C345 1.387 . S
H343 C339 0.950 . S
H344 C341 0.950 . S
C345 C336 1.390 . S
C345 H338 0.950 . S
C345 C342 1.387 . S
C346 C347 1.387 . S
C346 H350 0.950 . S
C346 C355 1.390 . S
C347 C346 1.387 . S
C347 C349 1.387 . S
H348 C355 0.950 . S
C349 C347 1.387 . S
C349 C351 1.390 . S
C349 H353 0.950 . S
H350 C346 0.950 . S
C351 C349 1.390 . S
C351 C352 1.387 . S
C351 H354 0.950 . S
C352 C351 1.387 . S
C352 C355 1.387 . S
H353 C349 0.950 . S
H354 C351 0.950 . S
C355 C346 1.390 . S
C355 H348 0.950 . S
C355 C352 1.387 . S
C356 C357 1.387 . S
C356 H360 0.950 . S
C356 C365 1.390 . S
C357 C356 1.387 . S
C357 C359 1.387 . S
H358 C365 0.950 . S
C359 C357 1.387 . S
C359 C361 1.390 . S
C359 H363 0.950 . S
H360 C356 0.950 . S
C361 C359 1.390 . S
C361 C362 1.387 . S
C361 H364 0.950 . S
C362 C361 1.387 . S
C362 C365 1.387 . S
H363 C359 0.950 . S
H364 C361 0.950 . S
C365 C356 1.390 . S
C365 H358 0.950 . S
C365 C362 1.387 . S
C366 C367 1.387 . S
C366 H370 0.950 . S
C366 C375 1.390 . S
C367 C366 1.387 . S
C367 C369 1.387 . S
H368 C375 0.950 . S
C369 C367 1.387 . S
C369 C371 1.390 . S
C369 H373 0.950 . S
H370 C366 0.950 . S
C371 C369 1.390 . S
C371 C372 1.387 . S
C371 H374 0.950 . S
C372 C371 1.387 . S
C372 C375 1.387 . S
H373 C369 0.950 . S
H374 C371 0.950 . S
C375 C366 1.390 . S
C375 H368 0.950 . S
C375 C372 1.387 . S
C376 C377 1.387 . S
C376 H380 0.950 . S
C376 C385 1.390 . S
C377 C376 1.387 . S
C377 C379 1.387 . S
H378 C385 0.950 . S
C379 C377 1.387 . S
C379 C381 1.390 . S
C379 H383 0.950 . S
H380 C376 0.950 . S
C381 C379 1.390 . S
C381 C382 1.387 . S
C381 H384 0.950 . S
C382 C381 1.387 . S
C382 C385 1.387 . S
H383 C379 0.950 . S
H384 C381 0.950 . S
C385 C376 1.390 . S
C385 H378 0.950 . S
C385 C382 1.387 . S
C386 C387 1.387 . S
C386 H390 0.950 . S
C386 C395 1.390 . S
C387 C386 1.387 . S
C387 C389 1.387 . S
H388 C395 0.950 . S
C389 C387 1.387 . S
C389 C391 1.390 . S
C389 H393 0.950 . S
H390 C386 0.950 . S
C391 C389 1.390 . S
C391 C392 1.387 . S
C391 H394 0.950 . S
C392 C391 1.387 . S
C392 C395 1.387 . S
H393 C389 0.950 . S
H394 C391 0.950 . S
C395 C386 1.390 . S
C395 H388 0.950 . S
C395 C392 1.387 . S
C396 C397 1.387 . S
C396 H400 0.950 . S
C396 C405 1.390 . S
C397 C396 1.387 . S
C397 C399 1.387 . S
H398 C405 0.950 . S
C399 C397 1.387 . S
C399 C401 1.390 . S
C399 H403 0.950 . S
H400 C396 0.950 . S
C401 C399 1.390 . S
C401 C402 1.387 . S
C401 H404 0.950 . S
C402 C401 1.387 . S
C402 C405 1.387 . S
H403 C399 0.950 . S
H404 C401 0.950 . S
C405 C396 1.390 . S
C405 H398 0.950 . S
C405 C402 1.387 . S
C406 C407 1.387 . S
C406 H410 0.950 . S
C406 C415 1.390 . S
C407 C406 1.387 . S
C407 C409 1.387 . S
H408 C415 0.950 . S
C409 C407 1.387 . S
C409 C411 1.390 . S
C409 H413 0.950 . S
H410 C406 0.950 . S
C411 C409 1.390 . S
C411 C412 1.387 . S
C411 H414 0.950 . S
C412 C411 1.387 . S
C412 C415 1.387 . S
H413 C409 0.950 . S
H414 C411 0.950 . S
C415 C406 1.390 . S
C415 H408 0.950 . S
C415 C412 1.387 . S
C177 C10 1.315 1_565 S
C182 C128 1.305 . S
C187 C37 1.362 . S
C192 C150 1.370 . S
C197 C59 1.366 1_545 S
C202 C175 1.386 . S
C207 C103 1.320 . S
C212 C84 1.312 1_455 S
C217 C131 1.322 . S
C222 C96 1.320 . S
C227 C147 1.387 . S
C232 C125 1.355 1_556 S
C237 C172 1.370 . S
C242 C153 1.368 . S
C247 C164 1.313 . S
C252 C106 1.303 . S
C257 C140 1.322 . S
C262 C74 1.306 . S
C267 C169 1.358 . S
C272 C8 1.370 . S
C277 C43 1.386 . S
C282 C109 1.366 . S
C287 C51 1.321 . S
C292 C120 1.312 . S
C297 C81 1.321 . S
C302 C54 1.321 1_545 S
C307 C7 1.387 . S
C312 C73 1.359 1_455 S
C317 C40 1.370 . S
C322 C15 1.367 . S
C327 C32 1.313 1_655 S
C332 C52 1.303 . S
C337 C98 1.308 . S
C342 C18 1.307 . S
C347 C117 1.348 . S
C352 C29 1.348 . S
C357 C65 1.359 . S
C362 C139 1.359 . S
C367 C76 1.296 . S
C372 C162 1.295 . S
C377 C62 1.308 . S
C382 C142 1.307 . S
C387 C87 1.351 . S
C392 C161 1.351 . S
C397 C95 1.359 . S
C402 C21 1.359 . S
C407 C118 1.296 . S
C412 C30 1.295 . S
