# Generated by pormake.
# Topology ilc, (8)-cn, num edge types: 1
# Building blocks:
#     Node 0, Type 0, BuildingBlock: LIZSOE_clean_sbu_0, # of connection points: 8
#     Node 1, Type 0, BuildingBlock: LIZSOE_clean_sbu_0, # of connection points: 8
#     Node 2, Type 0, BuildingBlock: LIZSOE_clean_sbu_0, # of connection points: 8
#     Edge 3, Type (0, 0), BuildingBlock: MIFKUJ_clean_linker_0, # of connection points: 2
#     Edge 4, Type (0, 0), BuildingBlock: MIFKUJ_clean_linker_0, # of connection points: 2
#     Edge 5, Type (0, 0), BuildingBlock: MIFKUJ_clean_linker_0, # of connection points: 2
#     Edge 6, Type (0, 0), BuildingBlock: MIFKUJ_clean_linker_0, # of connection points: 2
#     Edge 7, Type (0, 0), BuildingBlock: MIFKUJ_clean_linker_0, # of connection points: 2
#     Edge 8, Type (0, 0), BuildingBlock: MIFKUJ_clean_linker_0, # of connection points: 2
#     Edge 9, Type (0, 0), BuildingBlock: MIFKUJ_clean_linker_0, # of connection points: 2
#     Edge 10, Type (0, 0), BuildingBlock: MIFKUJ_clean_linker_0, # of connection points: 2
#     Edge 11, Type (0, 0), BuildingBlock: MIFKUJ_clean_linker_0, # of connection points: 2
#     Edge 12, Type (0, 0), BuildingBlock: MIFKUJ_clean_linker_0, # of connection points: 2
#     Edge 13, Type (0, 0), BuildingBlock: MIFKUJ_clean_linker_0, # of connection points: 2
#     Edge 14, Type (0, 0), BuildingBlock: MIFKUJ_clean_linker_0, # of connection points: 2
# Relax obj value: 0.292
# Max RMSD: 0.156
# Mean RMSD: 0.156
data_MOF--net-ilc--node1-LIZSOE_clean_sbu_0--edge1-MIFKUJ_clean_linker_0
_symmetry_space_group_name_H-M    P1
_symmetry_Int_Tables_number       1
_symmetry_cell_setting            triclinic
loop_
_symmetry_equiv_pos_as_xyz
'x, y, z'
_cell_length_a     26.867439
_cell_length_b     27.189374
_cell_length_c     19.836044
_cell_angle_alpha  89.674856
_cell_angle_beta   92.011927
_cell_angle_gamma 120.8595
loop_
_atom_site_label
_atom_site_type_symbol
_atom_site_fract_x
_atom_site_fract_y
_atom_site_fract_z
_atom_type_partial_charge
Co0 Co 1.01692 0.98085 0.95207 0.0
N1 N 0.94911 0.93935 0.89627 0.0
C2 C 0.89776 0.93013 0.91693 0.0
N3 N 0.8869 0.91706 0.80657 0.0
C4 C 0.93974 0.92732 0.8295 0.0
C5 C 0.85938 0.91486 0.86294 0.0
Co6 Co 1.01205 1.01707 0.20224 0.0
N7 N 0.07018 0.06135 0.26861 0.0
N8 N 0.12182 0.13162 0.34525 0.0
C9 C 0.15911 0.12383 0.30999 0.0
C10 C 0.12725 0.08063 0.26289 0.0
C11 C 0.06818 0.09104 0.32204 0.0
Co12 Co 1.01546 0.99629 0.07454 0.0
C13 C 0.92528 0.96987 0.20117 0.0
H14 H 0.14484 0.06759 0.22321 0.0
O15 O 0.08327 1.02286 1.00312 0.0
O16 O 0.05448 0.95858 0.13069 0.0
O17 O 0.95815 0.91375 1.03421 0.0
O18 O 0.9748 0.03465 1.02341 0.0
O19 O 1.01654 0.0468 0.92862 0.0
O20 O 1.01604 0.95444 0.22844 0.0
O21 O 0.94962 0.97156 0.14343 0.0
O22 O 1.00908 0.08211 0.17609 0.0
O23 O 1.02033 0.91458 0.96976 0.0
O24 O 0.0654 0.99666 0.89153 0.0
O25 O 0.07178 0.0775 0.11538 0.0
O26 O 0.95631 0.99749 0.25339 0.0
C27 C 0.97445 0.88502 0.99965 0.0
C28 C 1.01322 0.07583 0.35696 0.0
H29 H 0.98798 0.02912 0.36605 0.0
H30 H 1.02172 0.0964 0.40742 0.0
H31 H 0.98668 0.08821 0.32517 0.0
C32 C 0.04317 0.93939 0.19153 0.0
C33 C 0.98794 0.05904 0.96591 0.0
H34 H 0.89017 0.93945 0.96712 0.0
H35 H 1.01542 0.97896 0.77458 0.0
H36 H 0.96679 0.90955 0.73605 0.0
H37 H 1.01081 0.91535 0.80942 0.0
C38 C 0.98578 0.93297 0.78445 0.0
C39 C 0.10149 1.02417 0.94094 0.0
C40 C 0.0558 0.10854 0.14555 0.0
H41 H 0.81867 0.91408 0.86363 0.0
H42 H 0.20593 0.15028 0.31442 0.0
Co43 Co 0.7476 0.32608 0.27163 0.0
N44 N 0.74577 0.2894 0.19045 0.0
C45 C 0.7081 0.27794 0.13769 0.0
N46 N 0.78438 0.28069 0.09548 0.0
C47 C 0.78942 0.28581 0.16338 0.0
C48 C 0.73191 0.27328 0.07956 0.0
Co49 Co 0.62566 0.30404 0.54383 0.0
N50 N 0.62997 0.30877 0.6387 0.0
N51 N 0.68989 0.34495 0.72983 0.0
C52 C 0.65675 0.36899 0.72542 0.0
C53 C 0.62007 0.34671 0.66975 0.0
C54 C 0.66808 0.30444 0.68052 0.0
Co55 Co 0.68333 0.32786 0.40022 0.0
C56 C 0.58387 0.2607 0.50806 0.0
H57 H 0.59615 0.36499 0.64703 0.0
O58 O 0.75682 0.36481 0.34411 0.0
O59 O 0.71792 0.28938 0.45464 0.0
O60 O 0.63377 0.25481 0.34438 0.0
O61 O 0.65236 0.36267 0.3325 0.0
O62 O 0.68143 0.33474 0.24144 0.0
O63 O 0.70528 0.31785 0.551 0.0
O64 O 0.61145 0.29567 0.45672 0.0
O65 O 0.65769 0.38372 0.53856 0.0
O66 O 0.70514 0.25157 0.30571 0.0
O67 O 0.80639 0.32332 0.311 0.0
O68 O 0.72425 0.40254 0.46065 0.0
O69 O 0.6018 0.22987 0.53871 0.0
C70 C 0.65211 0.227 0.31413 0.0
C71 C 0.67693 0.25416 0.67998 0.0
H72 H 0.65197 0.22331 0.63859 0.0
H73 H 0.72306 0.26833 0.67724 0.0
H74 H 0.66326 0.23155 0.72855 0.0
C75 C 0.73144 0.29974 0.51655 0.0
C76 C 0.65283 0.35607 0.26757 0.0
H77 H 0.66818 0.27811 0.13963 0.0
H78 H 0.8686 0.32922 0.22342 0.0
H79 H 0.86195 0.27246 0.17034 0.0
H80 H 0.82038 0.25513 0.245 0.0
C81 C 0.83799 0.28576 0.20288 0.0
C82 C 0.80687 0.36693 0.3371 0.0
C83 C 0.70414 0.41897 0.50916 0.0
H84 H 0.71525 0.27208 1.02873 0.0
H85 H 0.66598 0.40747 0.75241 0.0
Co86 Co 0.35779 0.67771 0.60901 0.0
N87 N 0.30612 0.66575 0.53578 0.0
C88 C 0.24882 0.64494 0.5416 0.0
N89 N 0.27598 0.70403 0.45559 0.0
C90 C 0.31977 0.69743 0.47918 0.0
C91 C 0.23033 0.66904 0.49278 0.0
Co92 Co 0.33981 0.63834 0.86638 0.0
N93 N 0.40049 0.65711 0.93109 0.0
N94 N 0.45163 0.69762 1.02855 0.0
C95 C 0.48728 0.7189 0.97621 0.0
C96 C 0.45583 0.69523 0.91719 0.0
C97 C 0.40023 0.65673 0.99934 0.0
Co98 Co 0.34655 0.65537 0.73913 0.0
C99 C 0.2546 0.6039 0.86844 0.0
H100 H 0.47086 0.71012 0.86713 0.0
O101 O 0.41557 0.69297 0.67426 0.0
O102 O 0.39595 0.62449 0.78547 0.0
O103 O 0.30494 0.5777 0.68521 0.0
O104 O 0.29707 0.68572 0.69194 0.0
O105 O 0.36341 0.74803 0.62813 0.0
O106 O 0.33022 0.56608 0.85168 0.0
O107 O 0.27734 0.61982 0.80775 0.0
O108 O 0.3483 0.71017 0.88468 0.0
O109 O 0.35091 0.60914 0.59025 0.0
O110 O 0.41758 0.71154 0.56273 0.0
O111 O 0.39042 0.73372 0.78832 0.0
O112 O 0.28613 0.60817 0.92088 0.0
C113 C 0.31991 0.56786 0.62785 0.0
C114 C 0.355 0.60701 1.03745 0.0
H115 H 0.32702 0.56987 1.0036 0.0
H116 H 0.37685 0.59347 0.07519 0.0
H117 H 0.3283 0.61953 1.06516 0.0
C118 C 0.37473 0.57867 0.82051 0.0
C119 C 0.31652 0.73163 0.65705 0.0
H120 H 0.22429 0.62105 0.58438 0.0
H121 H 0.36496 0.72043 0.38554 0.0
H122 H 0.38479 0.6811 0.44289 0.0
H123 H 0.40974 0.75561 0.45946 0.0
C124 C 0.37288 0.71458 0.43951 0.0
C125 C 0.44436 0.71413 0.61823 0.0
C126 C 0.3787 0.74854 0.84383 0.0
H127 H 0.18877 0.66648 0.49036 0.0
H128 H 0.53104 0.75554 0.97918 0.0
H129 H 0.87448 0.88646 0.67365 0.0
H130 H 0.91275 0.95716 0.58325 0.0
H131 H 0.93716 0.08868 0.72489 0.0
H132 H 0.89367 1.01818 0.81055 0.0
H133 H 0.94237 0.13003 0.62043 0.0
H134 H 0.06872 0.03632 0.68764 0.0
H135 H 0.08387 0.95423 0.68546 0.0
H136 H 1.01336 0.91365 0.48244 0.0
H137 H 0.99788 0.99588 0.48382 0.0
H138 H 0.20474 0.17479 0.44679 0.0
H139 H 0.19518 0.21846 0.54882 0.0
H140 H 0.05934 0.23425 0.45087 0.0
H141 H 0.07057 0.19491 0.34925 0.0
H142 H 0.10829 0.11738 0.54352 0.0
H143 H 0.93615 0.18905 0.5309 0.0
H144 H 0.92828 0.2751 0.5363 0.0
H145 H 0.10078 0.3713 0.62389 0.0
H146 H 0.11007 0.28573 0.61934 0.0
C147 C 0.88525 0.93001 0.68365 0.0
C148 C 0.88335 0.9476 0.74927 0.0
C149 C 0.90866 0.97077 0.63279 0.0
C150 C 0.93256 0.02927 0.64865 0.0
C151 C 0.9208 0.04439 0.71104 0.0
C152 C 0.89549 1.0037 0.76047 0.0
C153 C 0.97787 0.07556 0.60798 0.0
C154 C 0.97882 0.12765 0.60266 0.0
C155 C 1.02588 0.07298 0.58577 0.0
C156 C 1.02996 1.02068 0.58703 0.0
C157 C 0.05527 1.00915 0.64322 0.0
C158 C 0.06434 0.9629 0.64185 0.0
C159 C 0.04862 0.92814 0.58414 0.0
C160 C 1.02447 0.94003 0.52744 0.0
C161 C 1.01562 0.98645 0.52851 0.0
C162 C 0.17566 0.1913 0.44564 0.0
C163 C 0.13536 0.17764 0.39169 0.0
C164 C 0.1705 0.2173 0.50384 0.0
C165 C 0.11878 0.21826 0.51016 0.0
C166 C 0.09452 0.22584 0.4502 0.0
C167 C 0.10037 0.20226 0.39119 0.0
C168 C 0.0747 0.17456 0.55535 0.0
C169 C 0.07321 0.12201 0.56116 0.0
C170 C 1.0264 0.17724 0.57719 0.0
C171 C 1.02373 0.23056 0.57509 0.0
C172 C 0.97261 0.22849 0.55133 0.0
C173 C 0.96787 0.27721 0.55416 0.0
C174 C 1.01395 0.32847 0.58057 0.0
C175 C 0.06529 0.33147 0.60309 0.0
C176 C 0.07038 0.28282 0.6003 0.0
H177 H 1.00975 0.36582 0.58323 0.0
H178 H 0.05573 0.8924 0.58306 0.0
H179 H 0.76177 0.45575 0.69727 0.0
H180 H 0.86726 0.51155 0.71484 0.0
H181 H 0.86205 0.36238 0.79906 0.0
H182 H 0.75756 0.30934 0.78844 0.0
H183 H 0.90146 0.52535 0.84712 0.0
H184 H 0.06984 0.45424 0.80195 0.0
H185 H 0.1333 0.46702 0.70984 0.0
H186 H 1.01897 0.48543 0.56968 0.0
H187 H 0.95384 0.47215 0.66031 0.0
H188 H 0.79886 0.24794 0.97167 0.0
H189 H 0.87013 0.31226 0.89081 0.0
H190 H 0.94893 0.4452 1.04284 0.0
H191 H 0.87653 0.38406 0.12051 0.0
H192 H 0.98788 0.4029 0.86016 0.0
H193 H 0.92136 0.54593 0.9996 0.0
H194 H 0.84935 0.53344 0.08136 0.0
H195 H 0.73037 0.36587 0.99954 0.0
H196 H 0.80239 0.37721 0.91777 0.0
C197 C 0.78351 0.43532 0.72029 0.0
C198 C 0.75142 0.37856 0.74343 0.0
C199 C 0.84389 0.46663 0.72762 0.0
C200 C 0.87351 0.44157 0.75722 0.0
C201 C 0.84125 0.3835 0.77586 0.0
C202 C 0.78103 0.35295 0.77068 0.0
C203 C 0.93125 0.47901 0.79093 0.0
C204 C 0.92218 0.50001 0.85059 0.0
C205 C 0.96893 0.4571 0.7964 0.0
C206 C 1.0056 0.46102 0.73924 0.0
C207 C 0.05697 0.45974 0.75163 0.0
C208 C 0.09387 0.46775 0.69939 0.0
C209 C 0.0804 0.47743 0.63399 0.0
C210 C 1.02958 0.4784 0.62055 0.0
C211 C 0.99245 0.47046 0.67262 0.0
C212 C 0.83306 0.29016 0.98826 0.0
C213 C 0.83305 0.31069 1.05293 0.0
C214 C 0.87426 0.32668 0.94254 0.0
C215 C 0.91473 0.38392 0.96136 0.0
C216 C 0.91932 0.40114 1.02833 0.0
C217 C 0.87733 0.36597 0.07257 0.0
C218 C 0.93481 0.42878 0.90997 0.0
C219 C 0.96807 0.42892 0.85679 0.0
C220 C 0.91313 0.46688 0.90801 0.0
C221 C 0.86858 0.46159 0.95461 0.0
C222 C 0.88047 0.50616 0.99964 0.0
C223 C 0.8395 0.49914 1.04607 0.0
C224 C 0.78619 0.44779 1.04762 0.0
C225 C 0.77257 0.40461 1.00019 0.0
C226 C 0.81344 0.41143 0.95368 0.0
H227 H 0.75478 0.44218 0.08421 0.0
H228 H 0.10917 0.48379 0.59368 0.0
H229 H 0.40646 0.66527 0.15483 0.0
H230 H 0.3775 0.7204 0.22271 0.0
H231 H 0.47635 0.86804 0.09941 0.0
H232 H 0.50735 0.81411 1.03393 0.0
H233 H 0.46388 0.90541 0.21205 0.0
H234 H 0.33024 0.75622 1.05354 0.0
H235 H 0.27208 0.65911 1.00878 0.0
H236 H 0.18675 0.60074 0.19607 0.0
H237 H 0.24471 0.69886 0.24279 0.0
H238 H 0.19811 0.70692 0.37082 0.0
H239 H 0.21194 0.78553 0.29849 0.0
H240 H 0.38799 0.88643 0.37957 0.0
H241 H 0.36887 0.81271 0.45885 0.0
H242 H 0.25047 0.79535 0.19997 0.0
H243 H 0.49702 0.96427 0.3037 0.0
H244 H 0.54048 0.05786 0.3604 0.0
H245 H 0.3847 0.06201 0.32074 0.0
H246 H 0.33911 0.96747 0.26496 0.0
C247 C 0.42265 0.70954 0.14244 0.0
C248 C 0.45479 0.73352 0.08446 0.0
C249 C 0.40635 0.74127 0.18165 0.0
C250 C 0.42143 0.79711 0.16289 0.0
C251 C 0.46207 0.82428 0.11311 0.0
C252 C 0.47934 0.79295 0.07509 0.0
C253 C 0.38831 0.82315 0.18723 0.0
C254 C 0.41718 0.87922 0.21457 0.0
C255 C 0.32694 0.7935 0.18025 0.0
C256 C 0.29183 0.73498 0.15153 0.0
C257 C 0.29887 0.72305 0.08522 0.0
C258 C 0.2656 0.66757 1.05939 0.0
C259 C 0.22579 0.6232 0.0993 0.0
C260 C 0.21789 0.63483 0.16515 0.0
C261 C 0.2507 0.69056 0.19128 0.0
C262 C 0.23808 0.74726 0.37492 0.0
C263 C 0.28296 0.75204 0.41693 0.0
C264 C 0.24711 0.79239 0.33297 0.0
C265 C 0.30402 0.83968 0.32583 0.0
C266 C 0.34513 0.84893 0.37775 0.0
C267 C 0.33494 0.8053 0.42217 0.0
C268 C 0.32527 0.86079 0.25626 0.0
C269 C 0.29731 0.81844 0.20609 0.0
C270 C 0.38539 0.89953 0.24812 0.0
C271 C 0.41431 0.958 0.27947 0.0
C272 C 0.47179 0.98489 0.30607 0.0
C273 C 0.49682 0.03822 0.33872 0.0
C274 C 0.46559 0.06611 0.34376 0.0
C275 C 0.40893 0.04041 0.31677 0.0
C276 C 0.38326 0.98661 0.28513 0.0
H277 H 0.48528 0.10758 0.3687 0.0
H278 H 0.20139 0.57988 0.07929 0.0
H279 H 0.19775 0.68928 0.67165 0.0
H280 H 0.13709 0.71713 0.608 0.0
H281 H 0.28728 0.84876 0.51025 0.0
H282 H 0.34837 0.8255 0.57891 0.0
H283 H 0.22374 0.88611 0.52321 0.0
H284 H 0.10722 0.68076 0.35314 0.0
H285 H 0.05579 0.5758 0.35772 0.0
H286 H 1.0046 0.58197 0.55837 0.0
H287 H 0.05611 0.68686 0.55425 0.0
H288 H 0.15489 0.958 0.20373 0.0
H289 H 0.19037 0.91621 0.28965 0.0
H290 H 1.01499 0.80351 0.35037 0.0
H291 H 0.9799 0.8442 0.26443 0.0
H292 H 0.06874 0.74814 0.36489 0.0
H293 H 0.10766 0.9297 0.43732 0.0
H294 H 0.14512 0.03351 0.43074 0.0
H295 H 0.31904 0.06623 0.42146 0.0
H296 H 0.2824 0.96247 0.42722 0.0
C297 C 0.21787 0.7245 0.63688 0.0
C298 C 0.27837 0.75361 0.62927 0.0
C299 C 0.18219 0.7388 0.59722 0.0
C300 C 0.20533 0.78112 0.54673 0.0
C301 C 0.26641 0.8137 0.54508 0.0
C302 C 0.30198 0.80047 0.58528 0.0
C303 C 0.16977 0.79615 0.49773 0.0
C304 C 0.19033 0.85515 0.4885 0.0
C305 C 0.12281 0.75663 0.45308 0.0
C306 C 0.09305 0.69289 0.45728 0.0
C307 C 0.08848 0.66013 0.40002 0.0
C308 C 0.0579 0.60028 0.40169 0.0
C309 C 1.02881 0.5721 0.45935 0.0
C310 C 1.02918 0.6038 0.51467 0.0
C311 C 0.05997 0.6637 0.51295 0.0
C312 C 0.12377 0.92259 0.23332 0.0
C313 C 0.0643 0.90374 0.22577 0.0
C314 C 0.14415 0.89935 0.28369 0.0
C315 C 0.10567 0.85701 0.3282 0.0
C316 C 0.04603 0.83582 0.31745 0.0
C317 C 1.02584 0.85897 0.26754 0.0
C318 C 0.12717 0.83707 0.38808 0.0
C319 C 0.1032 0.77813 0.39933 0.0
C320 C 0.16975 0.87582 0.43548 0.0
C321 C 0.19221 0.93831 0.43237 0.0
C322 C 0.15385 0.95906 0.43363 0.0
C323 C 0.17492 1.01786 0.43002 0.0
C324 C 0.23442 0.05645 0.42552 0.0
C325 C 0.27295 0.03628 0.42485 0.0
C326 C 0.25205 0.97746 0.42839 0.0
H327 H 0.25067 0.10196 0.42264 0.0
H328 H 1.00451 0.52574 0.4603 0.0
H329 H 0.21107 0.46736 0.62874 0.0
H330 H 0.1763 0.38683 0.54774 0.0
H331 H 0.34816 0.46175 0.4718 0.0
H332 H 0.38348 0.53853 0.5549 0.0
H333 H 0.30364 0.36068 0.44219 0.0
H334 H 0.07619 0.33328 0.42815 0.0
H335 H 1.02845 0.38822 0.45128 0.0
H336 H 0.1901 0.54595 0.43046 0.0
H337 H 0.23838 0.49202 0.40513 0.0
H338 H 0.17645 0.16878 0.15826 0.0
H339 H 0.23476 0.2497 0.23004 0.0
H340 H 0.08501 0.26778 0.25712 0.0
H341 H 1.02873 0.1864 0.18727 0.0
H342 H 0.13844 0.34407 0.30798 0.0
H343 H 0.31516 0.37466 0.24434 0.0
H344 H 0.39151 0.36032 0.20056 0.0
H345 H 0.36289 0.23951 0.35652 0.0
H346 H 0.28694 0.25381 0.40172 0.0
C347 C 0.24184 0.46501 0.59711 0.0
C348 C 0.30005 0.50989 0.59817 0.0
C349 C 0.22175 0.41941 0.54977 0.0
C350 C 0.25878 0.41872 0.50119 0.0
C351 C 0.31795 0.46054 0.50745 0.0
C352 C 0.3382 0.50495 0.55536 0.0
C353 C 0.23572 0.3803 0.43896 0.0
C354 C 0.26533 0.35433 0.41419 0.0
C355 C 0.18934 0.37588 0.39842 0.0
C356 C 0.16087 0.40856 0.41512 0.0
C357 C 0.1015 0.37965 0.42856 0.0
C358 C 0.07435 0.41062 0.44192 0.0
C359 C 0.10629 0.47049 0.44275 0.0
C360 C 0.16544 0.49958 0.42999 0.0
C361 C 0.19268 0.46886 0.41591 0.0
C362 C 0.15691 0.19161 0.17843 0.0
C363 C 0.09712 0.1694 0.1684 0.0
C364 C 0.19098 0.23944 0.22176 0.0
C365 C 0.16728 0.26876 0.25507 0.0
C366 C 0.10857 0.24988 0.2357 0.0
C367 C 0.07454 0.2014 0.1945 0.0
C368 C 0.19805 0.31309 0.31406 0.0
C369 C 0.17176 0.34316 0.33799 0.0
C370 C 0.24925 0.32359 0.35185 0.0
C371 C 0.29338 0.31311 0.32444 0.0
C372 C 0.32477 0.34458 0.26878 0.0
C373 C 0.36821 0.33668 0.24388 0.0
C374 C 0.38163 0.29848 0.27504 0.0
C375 C 0.35189 0.26843 0.33171 0.0
C376 C 0.30835 0.27615 0.35683 0.0
H377 H 0.41543 0.29261 0.25568 0.0
H378 H 0.08519 0.49433 0.4532 0.0
H379 H 0.52917 0.82644 0.63182 0.0
H380 H 0.61429 0.87192 0.56163 0.0
H381 H 0.58228 0.7055 0.50302 0.0
H382 H 0.49897 0.6604 0.57568 0.0
H383 H 0.69737 0.78227 0.50495 0.0
H384 H 0.52963 0.7911 0.37103 0.0
H385 H 0.4579 0.82255 0.3686 0.0
H386 H 0.58406 0.98264 0.46259 0.0
H387 H 0.65724 0.95344 0.46204 0.0
H388 H 0.85266 0.85304 0.20817 0.0
H389 H 0.76823 0.80656 0.27988 0.0
H390 H 0.77765 0.96851 0.3068 0.0
H391 H 0.85871 1.01329 0.23192 0.0
H392 H 0.67555 0.89724 0.32398 0.0
H393 H 0.84725 0.91288 0.41661 0.0
H394 H 0.93134 0.89999 0.41599 0.0
H395 H 0.81804 0.71745 0.42516 0.0
H396 H 0.73306 0.72924 0.42271 0.0
C397 C 0.54245 0.79967 0.60739 0.0
C398 C 0.50779 0.7396 0.61126 0.0
C399 C 0.59007 0.82571 0.56489 0.0
C400 C 0.60364 0.79236 0.52376 0.0
C401 C 0.57282 0.73267 0.53307 0.0
C402 C 0.52568 0.70674 0.57612 0.0
C403 C 0.64679 0.8184 0.46836 0.0
C404 C 0.69217 0.80695 0.46512 0.0
C405 C 0.64241 0.85281 0.41708 0.0
C406 C 0.59827 0.8697 0.41775 0.0
C407 C 0.54182 0.83287 0.39132 0.0
C408 C 0.50108 0.85039 0.3902 0.0
C409 C 0.51608 0.90392 0.4169 0.0
C410 C 0.57236 0.94094 0.44262 0.0
C411 C 0.61362 0.92424 0.44231 0.0
C412 C 0.83426 0.87774 0.22581 0.0
C413 C 0.86192 0.93674 0.21284 0.0
C414 C 0.78684 0.85154 0.2688 0.0
C415 C 0.76729 0.88417 0.3019 0.0
C416 C 0.79134 0.94177 0.28321 0.0
C417 C 0.83759 0.96744 0.23923 0.0
C418 C 0.72603 0.86054 0.35967 0.0
C419 C 0.68095 0.87237 0.36341 0.0
C420 C 0.73273 0.82913 0.41329 0.0
C421 C 0.78376 0.82188 0.41877 0.0
C422 C 0.84029 0.86997 0.41849 0.0
C423 C 0.88821 0.86288 0.41868 0.0
C424 C 0.88034 0.80799 0.42122 0.0
C425 C 0.82436 0.76004 0.4235 0.0
C426 C 0.77619 0.76686 0.42237 0.0
H427 H 0.91761 0.8027 0.42108 0.0
H428 H 0.48429 0.91698 0.41738 0.0
H429 H 0.73714 0.20222 0.50063 0.0
H430 H 0.78823 0.16847 0.57423 0.0
H431 H 0.86692 0.32725 0.68733 0.0
H432 H 0.81773 0.36176 0.6122 0.0
H433 H 0.93078 0.29811 0.71457 0.0
H434 H 0.72553 0.17735 0.7285 0.0
H435 H 0.62466 0.11333 0.68625 0.0
H436 H 0.66972 0.99254 0.61595 0.0
H437 H 0.77107 0.05626 0.65707 0.0
H438 H 0.04255 0.14412 0.87671 0.0
H439 H 1.00326 0.18966 0.8052 0.0
H440 H 0.84219 0.10109 0.90846 0.0
H441 H 0.88168 0.05336 0.97993 0.0
H442 H 0.8148 0.09535 0.7837 0.0
H443 H 1.03307 0.30749 0.7355 0.0
H444 H 0.11988 0.37996 0.80055 0.0
H445 H 1.02378 0.33009 0.98186 0.0
H446 H 0.93667 0.25725 0.91768 0.0
C447 C 0.76606 0.23028 0.54071 0.0
C448 C 0.77169 0.28403 0.55174 0.0
C449 C 0.79445 0.21035 0.58425 0.0
C450 C 0.82817 0.24288 0.64133 0.0
C451 C 0.83903 0.29933 0.64691 0.0
C452 C 0.81122 0.31956 0.60308 0.0
C453 C 0.85026 0.21817 0.69607 0.0
C454 C 0.90472 0.25373 0.7292 0.0
C455 C 0.81682 0.16065 0.71902 0.0
C456 C 0.7559 0.12183 0.69513 0.0
C457 C 0.7139 0.13724 0.70377 0.0
C458 C 0.65669 0.10102 0.68007 0.0
C459 C 0.64084 0.04897 0.64833 0.0
C460 C 0.68211 0.03291 0.64048 0.0
C461 C 0.73942 0.06903 0.66399 0.0
C462 C 0.99915 0.13519 0.88578 0.0
C463 C 0.96578 0.09533 0.93523 0.0
C464 C 0.97659 0.16176 0.84453 0.0
C465 C 0.91956 0.15001 0.85092 0.0
C466 C 0.88636 0.11144 0.90186 0.0
C467 C 0.90924 0.08463 0.9437 0.0
C468 C 0.89462 0.1754 0.80143 0.0
C469 C 0.84008 0.13985 0.76909 0.0
C470 C 0.9259 0.23394 0.78273 0.0
C471 C 0.97863 0.27664 0.82174 0.0
C472 C 1.03062 0.31201 0.78915 0.0
C473 C 0.07989 0.35297 0.82595 0.0
C474 C 0.07743 0.35942 0.89539 0.0
C475 C 1.02576 0.32478 0.92817 0.0
C476 C 0.97653 0.28344 0.89163 0.0
H477 H 0.11551 0.39134 0.92377 0.0
H478 H 0.59655 1.02102 0.62992 0.0
H479 H 0.65865 0.48061 0.55512 0.0
H480 H 0.70255 0.56221 0.63262 0.0
H481 H 0.8671 0.57133 0.62127 0.0
H482 H 0.82253 0.48897 0.542 0.0
H483 H 0.73447 0.57137 0.74858 0.0
H484 H 0.98567 0.72075 0.68857 0.0
H485 H 0.04712 0.76493 0.59166 0.0
H486 H 0.89617 0.70451 0.46088 0.0
H487 H 0.83347 0.66764 0.55817 0.0
H488 H 1.00551 0.81029 0.95741 0.0
H489 H 0.95586 0.73487 0.87179 0.0
H490 H 0.80827 0.75717 0.87376 0.0
H491 H 0.8549 0.82703 0.96671 0.0
H492 H 0.92864 0.74667 0.74867 0.0
H493 H 0.68765 0.63224 0.77739 0.0
H494 H 0.61814 0.62531 0.85948 0.0
H495 H 0.73577 0.64287 1.02247 0.0
H496 H 0.80481 0.64636 0.9412 0.0
C497 C 0.70467 0.50082 0.56748 0.0
C498 C 0.73684 0.478 0.5412 0.0
C499 C 0.72984 0.54744 0.61309 0.0
C500 C 0.78841 0.57332 0.6353 0.0
C501 C 0.82188 0.55291 0.6059 0.0
C502 C 0.79646 0.50588 0.55957 0.0
C503 C 0.81207 0.6185 0.69175 0.0
C504 C 0.77709 0.60973 0.74755 0.0
C505 C 0.86732 0.67008 0.69169 0.0
C506 C 0.90423 0.68964 0.63139 0.0
C507 C 0.96514 0.71729 0.63945 0.0
C508 C 1.00037 0.74211 0.58442 0.0
C509 C 0.97547 0.73709 0.52006 0.0
C510 C 0.91526 0.70853 0.5109 0.0
C511 C 0.87978 0.68632 0.5663 0.0
C512 C 0.96128 0.79729 0.94212 0.0
C513 C 0.93513 0.82638 0.96848 0.0
C514 C 0.93324 0.75471 0.8917 0.0
C515 C 0.87814 0.73982 0.8645 0.0
C516 C 0.8504 0.76657 0.89336 0.0
C517 C 0.87752 0.80737 0.94657 0.0
C518 C 0.85226 0.69786 0.80511 0.0
C519 C 0.88672 0.70742 0.74897 0.0
C520 C 0.79523 0.64919 0.8024 0.0
C521 C 0.75189 0.64026 0.85292 0.0
C522 C 0.69832 0.63338 0.83076 0.0
C523 C 0.65884 0.6299 0.87726 0.0
C524 C 0.6724 0.63348 0.94633 0.0
C525 C 0.72523 0.63989 0.96893 0.0
C526 C 0.76436 0.64205 0.92261 0.0
H527 H 0.64199 0.63129 0.98233 0.0
H528 H 1.0028 0.75555 0.47733 0.0
H529 H 0.53714 0.32741 0.54247 0.0
H530 H 0.45611 0.29694 0.61869 0.0
H531 H 0.41104 0.12145 0.5936 0.0
H532 H 0.49177 0.15162 0.51924 0.0
H533 H 0.33599 0.22258 0.62786 0.0
H534 H 0.39464 0.05955 0.73013 0.0
H535 H 0.48062 0.05111 0.75611 0.0
H536 H 0.5858 0.23378 0.7822 0.0
H537 H 0.50137 0.24334 0.75315 0.0
H538 H 0.16669 0.9841 0.89238 0.0
H539 H 0.24647 0.03361 0.8161 0.0
H540 H 0.25303 0.19245 0.85709 0.0
H541 H 0.17091 0.14164 0.93211 0.0
H542 H 0.35257 0.1124 0.81847 0.0
H543 H 0.31044 0.28352 0.70629 0.0
H544 H 0.2338 0.30786 0.69901 0.0
H545 H 0.10358 0.13065 0.71625 0.0
H546 H 0.17914 0.10428 0.71946 0.0
C547 C 0.50855 0.28211 0.55092 0.0
C548 C 0.522 0.24232 0.52472 0.0
C549 C 0.46232 0.26464 0.59545 0.0
C550 C 0.42801 0.20679 0.61445 0.0
C551 C 0.43735 0.1665 0.58194 0.0
C552 C 0.48329 0.18387 0.53805 0.0
C553 C 0.38597 0.1882 0.6715 0.0
C554 C 0.33986 0.19892 0.66987 0.0
C555 C 0.39046 0.15768 0.72729 0.0
C556 C 0.44199 0.15213 0.7389 0.0
C557 C 0.43642 0.09787 0.74037 0.0
C558 C 0.48496 0.09295 0.7552 0.0
C559 C 0.5389 0.14194 0.76991 0.0
C560 C 0.54448 0.19596 0.76923 0.0
C561 C 0.49643 0.2012 0.753 0.0
C562 C 0.18672 0.0301 0.8876 0.0
C563 C 0.16323 0.05893 0.9206 0.0
C564 C 0.23209 0.05852 0.84272 0.0
C565 C 0.25575 0.11705 0.82842 0.0
C566 C 0.23523 0.14712 0.86514 0.0
C567 C 0.18914 0.11831 0.90991 0.0
C568 C 0.30069 0.14468 0.77447 0.0
C569 C 0.34785 0.13567 0.77654 0.0
C570 C 0.2975 0.17806 0.72038 0.0
C571 C 0.25078 0.19205 0.71451 0.0
C572 C 0.26544 0.24948 0.7077 0.0
C573 C 0.22215 0.26356 0.70392 0.0
C574 C 0.16391 0.22063 0.70732 0.0
C575 C 0.14878 0.16349 0.7133 0.0
C576 C 0.19181 0.14894 0.71574 0.0
H577 H 0.13044 0.23157 0.70542 0.0
H578 H 0.57623 0.13801 0.78244 0.0
H579 H 0.64176 0.34505 0.12907 0.0
H580 H 0.59617 0.37917 1.04946 0.0
H581 H 0.55154 0.45091 0.21361 0.0
H582 H 0.59514 0.41394 0.29464 0.0
H583 H 0.46627 0.40762 0.12976 0.0
H584 H 0.67207 0.52778 0.09247 0.0
H585 H 0.77023 0.55585 1.05808 0.0
H586 H 0.70197 0.4771 0.86335 0.0
H587 H 0.60324 0.44834 0.89663 0.0
H588 H 0.4923 0.62941 0.85349 0.0
H589 H 0.53637 0.58996 0.9298 0.0
H590 H 0.37757 0.42577 0.92067 0.0
H591 H 0.33173 0.46684 0.85069 0.0
H592 H 0.56462 0.51516 0.92657 0.0
H593 H 0.36584 0.34326 1.0553 0.0
H594 H 0.26762 0.31704 0.08807 0.0
H595 H 0.31949 0.49455 0.09838 0.0
H596 H 0.41857 0.52228 1.06548 0.0
C597 C 0.62187 0.36746 0.149 0.0
C598 C 0.62226 0.37603 0.21927 0.0
C599 C 0.59631 0.38801 0.10263 0.0
C600 C 0.57126 0.41933 0.12437 0.0
C601 C 0.57073 0.42735 0.19464 0.0
C602 C 0.59577 0.40605 0.24133 0.0
C603 C 0.5441 0.44199 0.07445 0.0
C604 C 0.48808 0.43141 0.08564 0.0
C605 C 0.57141 0.47212 1.01516 0.0
C606 C 0.63014 0.48541 0.9974 0.0
C607 C 0.67776 0.51535 1.04287 0.0
C608 C 0.73356 0.5315 1.02342 0.0
C609 C 0.74225 0.5179 0.95864 0.0
C610 C 0.69512 0.48747 0.91349 0.0
C611 C 0.63929 0.47134 0.93261 0.0
C612 C 0.46691 0.58481 0.86716 0.0
C613 C 0.40811 0.55168 0.84638 0.0
C614 C 0.49226 0.56202 0.91099 0.0
C615 C 0.46028 0.50491 0.93334 0.0
C616 C 0.40306 0.47047 0.90734 0.0
C617 C 0.37716 0.49375 0.86565 0.0
C618 C 0.4872 0.48183 0.98285 0.0
C619 C 0.54294 0.49182 0.97117 0.0
C620 C 0.45908 0.45 1.04092 0.0
C621 C 0.39942 0.43476 1.05731 0.0
C622 C 0.35625 0.3768 1.06408 0.0
C623 C 0.30051 0.36171 0.08262 0.0
C624 C 0.28738 0.40425 0.09475 0.0
C625 C 0.32994 0.46193 0.08822 0.0
C626 C 0.38585 0.47735 0.06951 0.0
H627 H 0.2443 0.39254 0.10955 0.0
H628 H 0.78561 0.53161 0.94302 0.0
H629 H 0.48828 0.80901 0.89696 0.0
H630 H 0.52878 0.89247 0.96944 0.0
H631 H 0.38425 0.91453 0.9151 0.0
H632 H 0.33929 0.82419 0.85055 0.0
H633 H 0.57118 0.98484 0.98705 0.0
H634 H 0.3786 1.01571 1.02822 0.0
H635 H 0.27169 0.96453 1.01957 0.0
H636 H 0.26394 0.804 1.04508 0.0
H637 H 0.37122 0.8548 1.0552 0.0
H638 H 0.557 0.20234 0.23248 0.0
H639 H 0.50993 0.12641 0.14581 0.0
H640 H 0.61309 0.05526 0.21717 0.0
H641 H 0.66336 0.13381 0.29911 0.0
H642 H 0.44635 1.02 0.13213 0.0
H643 H 0.62326 0.97512 0.11716 0.0
H644 H 0.72873 1.01529 0.13353 0.0
H645 H 0.76069 0.17913 1.06863 0.0
H646 H 0.65497 0.14081 1.05455 0.0
C647 C 0.46481 0.8313 0.90091 0.0
C648 C 0.40998 0.80895 0.86921 0.0
C649 C 0.48823 0.88008 0.94273 0.0
C650 C 0.45852 0.90967 0.95333 0.0
C651 C 0.40677 0.89113 0.91403 0.0
C652 C 0.38163 0.84011 0.87488 0.0
C653 C 0.48205 0.95772 1.0065 0.0
C654 C 0.5426 0.99033 1.01926 0.0
C655 C 0.44711 0.96977 1.04833 0.0
C656 C 0.38284 0.93875 1.04191 0.0
C657 C 0.3541 0.96948 1.03227 0.0
C658 C 0.2935 0.94064 1.02722 0.0
C659 C 0.26108 0.881 1.03183 0.0
C660 C 0.28921 0.85018 1.04173 0.0
C661 C 0.34981 0.87895 1.04752 0.0
C662 C 0.56894 0.16993 0.23015 0.0
C663 C 0.61378 0.17404 0.27305 0.0
C664 C 0.54229 0.12653 0.18005 0.0
C665 C 0.55922 0.08562 0.17196 0.0
C666 C 0.60106 0.08756 0.21853 0.0
C667 C 0.62896 0.13189 0.26694 0.0
C668 C 0.53387 0.04207 0.11458 0.0
C669 C 0.47361 1.0121 0.10028 0.0
C670 C 0.56835 0.02987 0.07326 0.0
C671 C 0.63149 0.05533 0.08558 0.0
C672 C 0.65287 1.02003 0.10725 0.0
C673 C 0.71253 0.04257 0.11648 0.0
C674 C 0.75127 0.10012 0.10295 0.0
C675 C 0.73034 0.13519 0.08051 0.0
C676 C 0.6706 0.11321 0.07233 0.0
H677 H 0.79754 0.11747 0.1093 0.0
H678 H 0.21418 0.85868 1.02769 0.0
H679 H 0.21733 0.67472 0.90531 0.0
H680 H 0.14697 0.65179 0.99144 0.0
H681 H 0.08363 0.47175 0.96164 0.0
H682 H 0.16037 0.49629 0.88212 0.0
H683 H 0.09576 0.48555 0.08215 0.0
H684 H 0.05735 0.67337 0.10782 0.0
H685 H 0.06086 0.75147 1.04044 0.0
H686 H 1.0239 0.65096 0.85938 0.0
H687 H 1.02046 0.57249 0.92565 0.0
H688 H 0.92345 0.41582 0.37073 0.0
H689 H 1.00395 0.47386 0.29725 0.0
H690 H 0.88555 0.48631 0.15674 0.0
H691 H 0.8063 0.43238 0.23198 0.0
H692 H 0.97493 0.56943 0.1297 0.0
H693 H 0.95151 0.3737 0.16341 0.0
H694 H 0.95737 0.30183 0.23369 0.0
H695 H 0.13412 0.42695 0.28891 0.0
H696 H 0.1268 0.49953 0.22348 0.0
C697 C 0.18628 0.62995 0.9142 0.0
C698 C 0.19409 0.58741 0.88482 0.0
C699 C 0.14554 0.61657 0.96458 0.0
C700 C 0.1082 0.55949 0.98461 0.0
C701 C 0.11174 0.51637 0.94922 0.0
C702 C 0.1547 0.53018 0.90155 0.0
C703 C 0.07028 0.54451 1.0461 0.0
C704 C 0.06897 0.50383 0.09142 0.0
C705 C 0.03717 0.57003 1.06265 0.0
C706 C 0.03849 0.61673 1.02185 0.0
C707 C 0.04955 0.66768 1.05369 0.0
C708 C 0.05179 0.7122 1.01567 0.0
C709 C 0.04278 0.70625 0.94569 0.0
C710 C 1.03101 0.6556 0.9136 0.0
C711 C 1.02889 0.61107 0.95139 0.0
C712 C 0.91505 0.43343 0.3256 0.0
C713 C 0.85778 0.41997 0.30884 0.0
C714 C 0.96123 0.46531 0.28174 0.0
C715 C 0.95162 0.48291 0.21772 0.0
C716 C 0.89544 0.47365 0.2043 0.0
C717 C 0.84959 0.44299 0.24855 0.0
C718 C 0.99715 0.50719 0.16282 0.0
C719 C 1.00109 0.55065 0.1196 0.0
C720 C 1.03412 0.48553 0.14865 0.0
C721 C 0.03738 0.44232 0.19066 0.0
C722 C 0.99047 0.38598 0.1925 0.0
C723 C 0.99408 0.3451 0.23167 0.0
C724 C 0.04541 0.35992 0.26764 0.0
C725 C 0.09345 0.41543 0.26346 0.0
C726 C 0.08938 0.45665 0.22568 0.0
H727 H 0.04758 0.328 0.2981 0.0
H728 H 0.04522 0.74101 0.91631 0.0
loop_
_geom_bond_atom_site_label_1
_geom_bond_atom_site_label_2
_geom_bond_distance
_geom_bond_site_symmetry_2
_ccdc_geom_bond_type
Co0 N1 2.034 1_455 S
Co0 O15 2.262 . S
Co0 O19 1.958 1_455 S
Co0 O23 1.950 1_445 S
Co0 O24 2.057 . S
N1 Co0 2.034 1_655 S
N1 C2 1.366 . S
N1 C4 1.332 1_645 S
C2 N1 1.366 . S
C2 C5 1.377 . S
C2 H34 0.931 . S
N3 C4 1.346 1_655 S
N3 C5 1.337 1_565 S
C4 N1 1.332 1_465 S
C4 N3 1.346 1_455 S
C4 C38 1.361 . S
C5 C2 1.377 . S
C5 N3 1.337 1_545 S
C5 H41 0.930 . S
Co6 N7 2.034 1_655 S
Co6 O20 1.950 1_645 S
Co6 O21 2.262 1_545 S
Co6 O22 1.958 1_655 S
Co6 O26 2.057 1_545 S
N7 Co6 2.034 1_455 S
N7 C10 1.366 . S
N7 C11 1.332 1_445 S
N8 C9 1.337 1_565 S
N8 C11 1.346 1_455 S
C9 N8 1.337 1_545 S
C9 C10 1.377 . S
C9 H42 0.930 . S
C10 N7 1.366 . S
C10 C9 1.377 . S
C10 H14 0.931 . S
C11 N7 1.332 1_665 S
C11 N8 1.346 1_655 S
C11 C28 1.361 . S
Co12 O15 2.097 1_554 S
Co12 O16 2.065 1_545 S
Co12 O17 2.065 1_444 S
Co12 O18 2.042 1_454 S
Co12 O21 2.097 1_445 S
Co12 O25 2.042 . S
C13 O21 1.253 . S
C13 O26 1.263 . S
H14 C10 0.931 . S
O15 Co0 2.262 . S
O15 Co12 2.097 1_556 S
O15 C39 1.253 . S
O16 Co12 2.065 1_565 S
O16 C32 1.221 . S
O17 Co12 2.065 1_666 S
O17 C27 1.221 . S
O18 Co12 2.042 1_656 S
O18 C33 1.237 . S
O19 Co0 1.958 1_655 S
O19 C33 1.278 . S
O20 Co6 1.950 1_465 S
O20 C32 1.277 . S
O21 Co6 2.262 1_565 S
O21 Co12 2.097 1_665 S
O21 C13 1.253 . S
O22 Co6 1.958 1_455 S
O22 C40 1.278 . S
O23 Co0 1.950 1_665 S
O23 C27 1.277 . S
O24 Co0 2.057 . S
O24 C39 1.263 . S
O25 Co12 2.042 . S
O25 C40 1.237 . S
O26 Co6 2.057 1_565 S
O26 C13 1.263 . S
C27 O17 1.221 . S
C27 O23 1.277 . S
C28 C11 1.361 . S
C28 H29 0.960 . S
C28 H30 0.961 . S
C28 H31 0.961 . S
H29 C28 0.960 . S
H30 C28 0.961 . S
H31 C28 0.961 . S
C32 O16 1.221 . S
C32 O20 1.277 . S
C33 O18 1.237 . S
C33 O19 1.278 . S
H34 C2 0.931 . S
H35 C38 0.961 . S
H36 C38 0.961 . S
H37 C38 0.960 . S
C38 C4 1.361 . S
C38 H35 0.961 . S
C38 H36 0.961 . S
C38 H37 0.960 . S
C39 O15 1.253 . S
C39 O24 1.263 . S
C40 O22 1.278 . S
C40 O25 1.237 . S
H41 C5 0.930 . S
H42 C9 0.930 . S
Co43 N44 2.034 . S
Co43 O58 2.262 . S
Co43 O62 1.958 . S
Co43 O66 1.950 . S
Co43 O67 2.057 . S
N44 Co43 2.034 . S
N44 C45 1.366 . S
N44 C47 1.332 . S
C45 N44 1.366 . S
C45 C48 1.377 1_554 S
C45 H77 0.931 . S
N46 C47 1.346 1_556 S
N46 C48 1.337 . S
C47 N44 1.332 . S
C47 N46 1.346 1_554 S
C47 C81 1.361 . S
C48 C45 1.377 1_556 S
C48 N46 1.337 . S
C48 H84 0.930 . S
Co49 N50 2.034 . S
Co49 O63 1.950 . S
Co49 O64 2.262 . S
Co49 O65 1.958 . S
Co49 O69 2.057 . S
N50 Co49 2.034 . S
N50 C53 1.366 . S
N50 C54 1.332 . S
N51 C52 1.337 . S
N51 C54 1.346 . S
C52 N51 1.337 . S
C52 C53 1.377 . S
C52 H85 0.930 . S
C53 N50 1.366 . S
C53 C52 1.377 . S
C53 H57 0.931 . S
C54 N50 1.332 . S
C54 N51 1.346 . S
C54 C71 1.361 . S
Co55 O58 2.097 . S
Co55 O59 2.065 . S
Co55 O60 2.065 . S
Co55 O61 2.042 . S
Co55 O64 2.097 . S
Co55 O68 2.042 . S
C56 O64 1.253 . S
C56 O69 1.263 . S
H57 C53 0.931 . S
O58 Co43 2.262 . S
O58 Co55 2.097 . S
O58 C82 1.253 . S
O59 Co55 2.065 . S
O59 C75 1.221 . S
O60 Co55 2.065 . S
O60 C70 1.221 . S
O61 Co55 2.042 . S
O61 C76 1.237 . S
O62 Co43 1.958 . S
O62 C76 1.278 . S
O63 Co49 1.950 . S
O63 C75 1.277 . S
O64 Co49 2.262 . S
O64 Co55 2.097 . S
O64 C56 1.253 . S
O65 Co49 1.958 . S
O65 C83 1.278 . S
O66 Co43 1.950 . S
O66 C70 1.277 . S
O67 Co43 2.057 . S
O67 C82 1.263 . S
O68 Co55 2.042 . S
O68 C83 1.237 . S
O69 Co49 2.057 . S
O69 C56 1.263 . S
C70 O60 1.221 . S
C70 O66 1.277 . S
C71 C54 1.361 . S
C71 H72 0.960 . S
C71 H73 0.961 . S
C71 H74 0.961 . S
H72 C71 0.960 . S
H73 C71 0.961 . S
H74 C71 0.961 . S
C75 O59 1.221 . S
C75 O63 1.277 . S
C76 O61 1.237 . S
C76 O62 1.278 . S
H77 C45 0.931 . S
H78 C81 0.961 . S
H79 C81 0.961 . S
H80 C81 0.960 . S
C81 C47 1.361 . S
C81 H78 0.961 . S
C81 H79 0.961 . S
C81 H80 0.960 . S
C82 O58 1.253 . S
C82 O67 1.263 . S
C83 O65 1.278 . S
C83 O68 1.237 . S
H84 C48 0.930 . S
H85 C52 0.930 . S
Co86 N87 2.034 . S
Co86 O101 2.262 . S
Co86 O105 1.958 . S
Co86 O109 1.950 . S
Co86 O110 2.057 . S
N87 Co86 2.034 . S
N87 C88 1.366 . S
N87 C90 1.332 . S
C88 N87 1.366 . S
C88 C91 1.377 . S
C88 H120 0.931 . S
N89 C90 1.346 . S
N89 C91 1.337 . S
C90 N87 1.332 . S
C90 N89 1.346 . S
C90 C124 1.361 . S
C91 C88 1.377 . S
C91 N89 1.337 . S
C91 H127 0.930 . S
Co92 N93 2.034 . S
Co92 O106 1.950 . S
Co92 O107 2.262 . S
Co92 O108 1.958 . S
Co92 O112 2.057 . S
N93 Co92 2.034 . S
N93 C96 1.366 . S
N93 C97 1.332 . S
N94 C95 1.337 . S
N94 C97 1.346 1_554 S
C95 N94 1.337 . S
C95 C96 1.377 1_554 S
C95 H128 0.930 . S
C96 N93 1.366 . S
C96 C95 1.377 1_556 S
C96 H100 0.931 . S
C97 N93 1.332 . S
C97 N94 1.346 1_556 S
C97 C114 1.361 . S
Co98 O101 2.097 . S
Co98 O102 2.065 . S
Co98 O103 2.065 . S
Co98 O104 2.042 . S
Co98 O107 2.097 . S
Co98 O111 2.042 . S
C99 O107 1.253 . S
C99 O112 1.263 . S
H100 C96 0.931 . S
O101 Co86 2.262 . S
O101 Co98 2.097 . S
O101 C125 1.253 . S
O102 Co98 2.065 . S
O102 C118 1.221 . S
O103 Co98 2.065 . S
O103 C113 1.221 . S
O104 Co98 2.042 . S
O104 C119 1.237 . S
O105 Co86 1.958 . S
O105 C119 1.278 . S
O106 Co92 1.950 . S
O106 C118 1.277 . S
O107 Co92 2.262 . S
O107 Co98 2.097 . S
O107 C99 1.253 . S
O108 Co92 1.958 . S
O108 C126 1.278 . S
O109 Co86 1.950 . S
O109 C113 1.277 . S
O110 Co86 2.057 . S
O110 C125 1.263 . S
O111 Co98 2.042 . S
O111 C126 1.237 . S
O112 Co92 2.057 . S
O112 C99 1.263 . S
C113 O103 1.221 . S
C113 O109 1.277 . S
C114 C97 1.361 . S
C114 H115 0.960 . S
C114 H116 0.961 . S
C114 H117 0.961 . S
H115 C114 0.960 . S
H116 C114 0.961 . S
H117 C114 0.961 . S
C118 O102 1.221 . S
C118 O106 1.277 . S
C119 O104 1.237 . S
C119 O105 1.278 . S
H120 C88 0.931 . S
H121 C124 0.961 . S
H122 C124 0.961 . S
H123 C124 0.960 . S
C124 C90 1.361 . S
C124 H121 0.961 . S
C124 H122 0.961 . S
C124 H123 0.960 . S
C125 O101 1.253 . S
C125 O110 1.263 . S
C126 O108 1.278 . S
C126 O111 1.237 . S
H127 C91 0.930 . S
H128 C95 0.930 . S
H129 C147 0.951 . S
H130 C149 0.951 . S
H131 C151 0.950 . S
H132 C152 0.950 . S
H133 C154 0.950 . S
H134 C157 0.950 1_545 S
H135 C158 0.950 . S
H136 C160 0.950 . S
H137 C161 0.950 . S
H138 C162 0.951 . S
H139 C164 0.951 . S
H140 C166 0.950 . S
H141 C167 0.950 . S
H142 C169 0.950 . S
H143 C172 0.950 1_565 S
H144 C173 0.950 1_565 S
H145 C175 0.950 . S
H146 C176 0.950 . S
C147 H129 0.951 . S
C147 C148 1.366 1_655 S
C147 C149 1.388 . S
C148 C147 1.366 1_455 S
C148 C152 1.385 1_565 S
C149 H130 0.951 . S
C149 C147 1.388 . S
C149 C150 1.366 1_655 S
C150 C149 1.366 1_455 S
C150 C151 1.414 1_565 S
C150 C153 1.499 . S
C151 H131 0.950 . S
C151 C150 1.414 1_545 S
C151 C152 1.374 . S
C152 H132 0.950 . S
C152 C148 1.385 1_545 S
C152 C151 1.374 . S
C153 C150 1.499 . S
C153 C154 1.373 1_465 S
C153 C155 1.389 . S
C154 H133 0.950 . S
C154 C153 1.373 1_645 S
C154 C170 1.377 . S
C155 C153 1.389 . S
C155 C156 1.524 . S
C155 C169 1.377 . S
C156 C155 1.524 . S
C156 C157 1.397 . S
C156 C161 1.363 . S
C157 H134 0.950 1_565 S
C157 C156 1.397 . S
C157 C158 1.334 . S
C158 H135 0.950 . S
C158 C157 1.334 . S
C158 C159 1.287 . S
C159 C158 1.287 . S
C159 C160 1.524 . S
C159 H178 0.913 . S
C160 H136 0.950 . S
C160 C159 1.524 . S
C160 C161 1.415 . S
C161 H137 0.950 . S
C161 C156 1.363 . S
C161 C160 1.415 . S
C162 H138 0.951 . S
C162 C163 1.366 1_445 S
C162 C164 1.388 . S
C163 C162 1.366 1_665 S
C163 C167 1.385 . S
C164 H139 0.951 . S
C164 C162 1.388 . S
C164 C165 1.366 1_445 S
C165 C164 1.366 1_665 S
C165 C166 1.414 . S
C165 C168 1.499 . S
C166 H140 0.950 . S
C166 C165 1.414 . S
C166 C167 1.374 . S
C167 H141 0.950 . S
C167 C163 1.385 . S
C167 C166 1.374 . S
C168 C165 1.499 . S
C168 C169 1.373 1_655 S
C168 C170 1.389 1_565 S
C169 H142 0.950 . S
C169 C155 1.377 . S
C169 C168 1.373 1_455 S
C170 C154 1.377 . S
C170 C168 1.389 1_545 S
C170 C171 1.524 . S
C171 C170 1.524 . S
C171 C172 1.397 . S
C171 C176 1.363 . S
C172 H143 0.950 1_545 S
C172 C171 1.397 . S
C172 C173 1.334 . S
C173 H144 0.950 1_545 S
C173 C172 1.334 . S
C173 C174 1.287 . S
C174 C173 1.287 . S
C174 C175 1.524 . S
C174 H177 0.999 . S
C175 H145 0.950 . S
C175 C174 1.524 . S
C175 C176 1.415 . S
C176 H146 0.950 . S
C176 C171 1.363 . S
C176 C175 1.415 . S
H177 C174 0.999 . S
H178 C159 0.913 . S
H179 C197 0.951 . S
H180 C199 0.951 . S
H181 C201 0.950 . S
H182 C202 0.950 . S
H183 C204 0.950 . S
H184 C207 0.950 . S
H185 C208 0.950 . S
H186 C210 0.950 . S
H187 C211 0.950 . S
H188 C212 0.951 . S
H189 C214 0.951 . S
H190 C216 0.950 . S
H191 C217 0.950 . S
H192 C219 0.950 . S
H193 C222 0.950 . S
H194 C223 0.950 . S
H195 C225 0.950 . S
H196 C226 0.950 . S
C197 H179 0.951 . S
C197 C198 1.366 . S
C197 C199 1.388 . S
C198 C197 1.366 . S
C198 C202 1.385 . S
C199 H180 0.951 . S
C199 C197 1.388 . S
C199 C200 1.366 . S
C200 C199 1.366 . S
C200 C201 1.414 . S
C200 C203 1.499 . S
C201 H181 0.950 . S
C201 C200 1.414 . S
C201 C202 1.374 . S
C202 H182 0.950 . S
C202 C198 1.385 . S
C202 C201 1.374 . S
C203 C200 1.499 . S
C203 C204 1.373 . S
C203 C205 1.389 . S
C204 H183 0.950 . S
C204 C203 1.373 . S
C204 C220 1.377 . S
C205 C203 1.389 . S
C205 C206 1.524 . S
C205 C219 1.377 . S
C206 C205 1.524 . S
C206 C207 1.397 . S
C206 C211 1.363 . S
C207 H184 0.950 . S
C207 C206 1.397 . S
C207 C208 1.334 . S
C208 H185 0.950 . S
C208 C207 1.334 . S
C208 C209 1.287 . S
C209 C208 1.287 . S
C209 C210 1.524 . S
C209 H228 0.913 . S
C210 H186 0.950 . S
C210 C209 1.524 . S
C210 C211 1.415 . S
C211 H187 0.950 . S
C211 C206 1.363 . S
C211 C210 1.415 . S
C212 H188 0.951 . S
C212 C213 1.366 . S
C212 C214 1.388 1_554 S
C213 C212 1.366 . S
C213 C217 1.385 . S
C214 H189 0.951 . S
C214 C212 1.388 1_556 S
C214 C215 1.366 . S
C215 C214 1.366 . S
C215 C216 1.414 . S
C215 C218 1.499 . S
C216 H190 0.950 . S
C216 C215 1.414 . S
C216 C217 1.374 1_556 S
C217 H191 0.950 . S
C217 C213 1.385 . S
C217 C216 1.374 1_554 S
C218 C215 1.499 . S
C218 C219 1.373 . S
C218 C220 1.389 . S
C219 H192 0.950 . S
C219 C205 1.377 . S
C219 C218 1.373 . S
C220 C204 1.377 . S
C220 C218 1.389 . S
C220 C221 1.524 . S
C221 C220 1.524 . S
C221 C222 1.397 . S
C221 C226 1.363 . S
C222 H193 0.950 . S
C222 C221 1.397 . S
C222 C223 1.334 . S
C223 H194 0.950 . S
C223 C222 1.334 . S
C223 C224 1.287 . S
C224 C223 1.287 . S
C224 C225 1.524 . S
C224 H227 0.999 . S
C225 H195 0.950 . S
C225 C224 1.524 . S
C225 C226 1.415 . S
C226 H196 0.950 . S
C226 C221 1.363 . S
C226 C225 1.415 . S
H227 C224 0.999 . S
H228 C209 0.913 . S
H229 C247 0.951 . S
H230 C249 0.951 . S
H231 C251 0.950 . S
H232 C252 0.950 . S
H233 C254 0.950 . S
H234 C257 0.950 . S
H235 C258 0.950 . S
H236 C260 0.950 . S
H237 C261 0.950 . S
H238 C262 0.951 . S
H239 C264 0.951 . S
H240 C266 0.950 . S
H241 C267 0.950 . S
H242 C269 0.950 . S
H243 C272 0.950 . S
H244 C273 0.950 . S
H245 C275 0.950 . S
H246 C276 0.950 . S
C247 H229 0.951 . S
C247 C248 1.366 . S
C247 C249 1.388 1_556 S
C248 C247 1.366 . S
C248 C252 1.385 . S
C249 H230 0.951 . S
C249 C247 1.388 1_554 S
C249 C250 1.366 . S
C250 C249 1.366 . S
C250 C251 1.414 . S
C250 C253 1.499 . S
C251 H231 0.950 . S
C251 C250 1.414 . S
C251 C252 1.374 1_554 S
C252 H232 0.950 . S
C252 C248 1.385 . S
C252 C251 1.374 1_556 S
C253 C250 1.499 . S
C253 C254 1.373 . S
C253 C255 1.389 . S
C254 H233 0.950 . S
C254 C253 1.373 . S
C254 C270 1.377 . S
C255 C253 1.389 . S
C255 C256 1.524 . S
C255 C269 1.377 . S
C256 C255 1.524 . S
C256 C257 1.397 . S
C256 C261 1.363 . S
C257 H234 0.950 . S
C257 C256 1.397 . S
C257 C258 1.334 . S
C258 H235 0.950 . S
C258 C257 1.334 . S
C258 C259 1.287 . S
C259 C258 1.287 . S
C259 C260 1.524 . S
C259 H278 0.913 . S
C260 H236 0.950 . S
C260 C259 1.524 . S
C260 C261 1.415 . S
C261 H237 0.950 . S
C261 C256 1.363 . S
C261 C260 1.415 . S
C262 H238 0.951 . S
C262 C263 1.366 . S
C262 C264 1.388 . S
C263 C262 1.366 . S
C263 C267 1.385 . S
C264 H239 0.951 . S
C264 C262 1.388 . S
C264 C265 1.366 . S
C265 C264 1.366 . S
C265 C266 1.414 . S
C265 C268 1.499 . S
C266 H240 0.950 . S
C266 C265 1.414 . S
C266 C267 1.374 . S
C267 H241 0.950 . S
C267 C263 1.385 . S
C267 C266 1.374 . S
C268 C265 1.499 . S
C268 C269 1.373 . S
C268 C270 1.389 . S
C269 H242 0.950 . S
C269 C255 1.377 . S
C269 C268 1.373 . S
C270 C254 1.377 . S
C270 C268 1.389 . S
C270 C271 1.524 . S
C271 C270 1.524 . S
C271 C272 1.397 . S
C271 C276 1.363 . S
C272 H243 0.950 . S
C272 C271 1.397 . S
C272 C273 1.334 . S
C273 H244 0.950 . S
C273 C272 1.334 . S
C273 C274 1.287 . S
C274 C273 1.287 . S
C274 C275 1.524 . S
C274 H277 0.999 . S
C275 H245 0.950 . S
C275 C274 1.524 . S
C275 C276 1.415 . S
C276 H246 0.950 . S
C276 C271 1.363 . S
C276 C275 1.415 . S
H277 C274 0.999 . S
H278 C259 0.913 . S
H279 C297 0.951 . S
H280 C299 0.951 . S
H281 C301 0.950 . S
H282 C302 0.950 . S
H283 C304 0.950 . S
H284 C307 0.950 . S
H285 C308 0.950 . S
H286 C310 0.950 . S
H287 C311 0.950 . S
H288 C312 0.951 . S
H289 C314 0.951 . S
H290 C316 0.950 . S
H291 C317 0.950 . S
H292 C319 0.950 . S
H293 C322 0.950 . S
H294 C323 0.950 . S
H295 C325 0.950 . S
H296 C326 0.950 . S
C297 H279 0.951 . S
C297 C298 1.366 . S
C297 C299 1.388 . S
C298 C297 1.366 . S
C298 C302 1.385 . S
C299 H280 0.951 . S
C299 C297 1.388 . S
C299 C300 1.366 . S
C300 C299 1.366 . S
C300 C301 1.414 . S
C300 C303 1.499 . S
C301 H281 0.950 . S
C301 C300 1.414 . S
C301 C302 1.374 . S
C302 H282 0.950 . S
C302 C298 1.385 . S
C302 C301 1.374 . S
C303 C300 1.499 . S
C303 C304 1.373 . S
C303 C305 1.389 . S
C304 H283 0.950 . S
C304 C303 1.373 . S
C304 C320 1.377 . S
C305 C303 1.389 . S
C305 C306 1.524 . S
C305 C319 1.377 . S
C306 C305 1.524 . S
C306 C307 1.397 . S
C306 C311 1.363 . S
C307 H284 0.950 . S
C307 C306 1.397 . S
C307 C308 1.334 . S
C308 H285 0.950 . S
C308 C307 1.334 . S
C308 C309 1.287 . S
C309 C308 1.287 . S
C309 C310 1.524 1_455 S
C309 H328 0.913 1_455 S
C310 H286 0.950 . S
C310 C309 1.524 1_655 S
C310 C311 1.415 1_655 S
C311 H287 0.950 . S
C311 C306 1.363 . S
C311 C310 1.415 1_455 S
C312 H288 0.951 . S
C312 C313 1.366 . S
C312 C314 1.388 . S
C313 C312 1.366 . S
C313 C317 1.385 . S
C314 H289 0.951 . S
C314 C312 1.388 . S
C314 C315 1.366 . S
C315 C314 1.366 . S
C315 C316 1.414 . S
C315 C318 1.499 . S
C316 H290 0.950 . S
C316 C315 1.414 . S
C316 C317 1.374 . S
C317 H291 0.950 . S
C317 C313 1.385 . S
C317 C316 1.374 . S
C318 C315 1.499 . S
C318 C319 1.373 . S
C318 C320 1.389 . S
C319 H292 0.950 . S
C319 C305 1.377 . S
C319 C318 1.373 . S
C320 C304 1.377 . S
C320 C318 1.389 . S
C320 C321 1.524 . S
C321 C320 1.524 . S
C321 C322 1.397 . S
C321 C326 1.363 . S
C322 H293 0.950 . S
C322 C321 1.397 . S
C322 C323 1.334 1_565 S
C323 H294 0.950 . S
C323 C322 1.334 1_545 S
C323 C324 1.287 . S
C324 C323 1.287 . S
C324 C325 1.524 1_545 S
C324 H327 0.999 . S
C325 H295 0.950 . S
C325 C324 1.524 1_565 S
C325 C326 1.415 . S
C326 H296 0.950 . S
C326 C321 1.363 . S
C326 C325 1.415 . S
H327 C324 0.999 . S
H328 C309 0.913 1_655 S
H329 C347 0.951 . S
H330 C349 0.951 . S
H331 C351 0.950 . S
H332 C352 0.950 . S
H333 C354 0.950 . S
H334 C357 0.950 . S
H335 C358 0.950 . S
H336 C360 0.950 . S
H337 C361 0.950 . S
H338 C362 0.951 . S
H339 C364 0.951 . S
H340 C366 0.950 . S
H341 C367 0.950 . S
H342 C369 0.950 . S
H343 C372 0.950 . S
H344 C373 0.950 . S
H345 C375 0.950 . S
H346 C376 0.950 . S
C347 H329 0.951 . S
C347 C348 1.366 . S
C347 C349 1.388 . S
C348 C347 1.366 . S
C348 C352 1.385 . S
C349 H330 0.951 . S
C349 C347 1.388 . S
C349 C350 1.366 . S
C350 C349 1.366 . S
C350 C351 1.414 . S
C350 C353 1.499 . S
C351 H331 0.950 . S
C351 C350 1.414 . S
C351 C352 1.374 . S
C352 H332 0.950 . S
C352 C348 1.385 . S
C352 C351 1.374 . S
C353 C350 1.499 . S
C353 C354 1.373 . S
C353 C355 1.389 . S
C354 H333 0.950 . S
C354 C353 1.373 . S
C354 C370 1.377 . S
C355 C353 1.389 . S
C355 C356 1.524 . S
C355 C369 1.377 . S
C356 C355 1.524 . S
C356 C357 1.397 . S
C356 C361 1.363 . S
C357 H334 0.950 . S
C357 C356 1.397 . S
C357 C358 1.334 . S
C358 H335 0.950 . S
C358 C357 1.334 . S
C358 C359 1.287 . S
C359 C358 1.287 . S
C359 C360 1.524 . S
C359 H378 0.913 1_455 S
C360 H336 0.950 . S
C360 C359 1.524 . S
C360 C361 1.415 . S
C361 H337 0.950 . S
C361 C356 1.363 . S
C361 C360 1.415 . S
C362 H338 0.951 . S
C362 C363 1.366 . S
C362 C364 1.388 . S
C363 C362 1.366 . S
C363 C367 1.385 . S
C364 H339 0.951 . S
C364 C362 1.388 . S
C364 C365 1.366 . S
C365 C364 1.366 . S
C365 C366 1.414 . S
C365 C368 1.499 . S
C366 H340 0.950 . S
C366 C365 1.414 . S
C366 C367 1.374 . S
C367 H341 0.950 . S
C367 C363 1.385 . S
C367 C366 1.374 . S
C368 C365 1.499 . S
C368 C369 1.373 . S
C368 C370 1.389 . S
C369 H342 0.950 . S
C369 C355 1.377 . S
C369 C368 1.373 . S
C370 C354 1.377 . S
C370 C368 1.389 . S
C370 C371 1.524 . S
C371 C370 1.524 . S
C371 C372 1.397 . S
C371 C376 1.363 . S
C372 H343 0.950 . S
C372 C371 1.397 . S
C372 C373 1.334 . S
C373 H344 0.950 . S
C373 C372 1.334 . S
C373 C374 1.287 . S
C374 C373 1.287 . S
C374 C375 1.524 . S
C374 H377 0.999 . S
C375 H345 0.950 . S
C375 C374 1.524 . S
C375 C376 1.415 . S
C376 H346 0.950 . S
C376 C371 1.363 . S
C376 C375 1.415 . S
H377 C374 0.999 . S
H378 C359 0.913 1_655 S
H379 C397 0.951 . S
H380 C399 0.951 . S
H381 C401 0.950 . S
H382 C402 0.950 . S
H383 C404 0.950 . S
H384 C407 0.950 . S
H385 C408 0.950 . S
H386 C410 0.950 . S
H387 C411 0.950 . S
H388 C412 0.951 . S
H389 C414 0.951 . S
H390 C416 0.950 . S
H391 C417 0.950 . S
H392 C419 0.950 . S
H393 C422 0.950 . S
H394 C423 0.950 . S
H395 C425 0.950 . S
H396 C426 0.950 . S
C397 H379 0.951 . S
C397 C398 1.366 . S
C397 C399 1.388 . S
C398 C397 1.366 . S
C398 C402 1.385 . S
C399 H380 0.951 . S
C399 C397 1.388 . S
C399 C400 1.366 . S
C400 C399 1.366 . S
C400 C401 1.414 . S
C400 C403 1.499 . S
C401 H381 0.950 . S
C401 C400 1.414 . S
C401 C402 1.374 . S
C402 H382 0.950 . S
C402 C398 1.385 . S
C402 C401 1.374 . S
C403 C400 1.499 . S
C403 C404 1.373 . S
C403 C405 1.389 . S
C404 H383 0.950 . S
C404 C403 1.373 . S
C404 C420 1.377 . S
C405 C403 1.389 . S
C405 C406 1.524 . S
C405 C419 1.377 . S
C406 C405 1.524 . S
C406 C407 1.397 . S
C406 C411 1.363 . S
C407 H384 0.950 . S
C407 C406 1.397 . S
C407 C408 1.334 . S
C408 H385 0.950 . S
C408 C407 1.334 . S
C408 C409 1.287 . S
C409 C408 1.287 . S
C409 C410 1.524 . S
C409 H428 0.913 . S
C410 H386 0.950 . S
C410 C409 1.524 . S
C410 C411 1.415 . S
C411 H387 0.950 . S
C411 C406 1.363 . S
C411 C410 1.415 . S
C412 H388 0.951 . S
C412 C413 1.366 . S
C412 C414 1.388 . S
C413 C412 1.366 . S
C413 C417 1.385 . S
C414 H389 0.951 . S
C414 C412 1.388 . S
C414 C415 1.366 . S
C415 C414 1.366 . S
C415 C416 1.414 . S
C415 C418 1.499 . S
C416 H390 0.950 . S
C416 C415 1.414 . S
C416 C417 1.374 . S
C417 H391 0.950 . S
C417 C413 1.385 . S
C417 C416 1.374 . S
C418 C415 1.499 . S
C418 C419 1.373 . S
C418 C420 1.389 . S
C419 H392 0.950 . S
C419 C405 1.377 . S
C419 C418 1.373 . S
C420 C404 1.377 . S
C420 C418 1.389 . S
C420 C421 1.524 . S
C421 C420 1.524 . S
C421 C422 1.397 . S
C421 C426 1.363 . S
C422 H393 0.950 . S
C422 C421 1.397 . S
C422 C423 1.334 . S
C423 H394 0.950 . S
C423 C422 1.334 . S
C423 C424 1.287 . S
C424 C423 1.287 . S
C424 C425 1.524 . S
C424 H427 0.999 . S
C425 H395 0.950 . S
C425 C424 1.524 . S
C425 C426 1.415 . S
C426 H396 0.950 . S
C426 C421 1.363 . S
C426 C425 1.415 . S
H427 C424 0.999 . S
H428 C409 0.913 . S
H429 C447 0.951 . S
H430 C449 0.951 . S
H431 C451 0.950 . S
H432 C452 0.950 . S
H433 C454 0.950 . S
H434 C457 0.950 . S
H435 C458 0.950 . S
H436 C460 0.950 1_565 S
H437 C461 0.950 . S
H438 C462 0.951 . S
H439 C464 0.951 . S
H440 C466 0.950 . S
H441 C467 0.950 . S
H442 C469 0.950 . S
H443 C472 0.950 . S
H444 C473 0.950 . S
H445 C475 0.950 . S
H446 C476 0.950 . S
C447 H429 0.951 . S
C447 C448 1.366 . S
C447 C449 1.388 . S
C448 C447 1.366 . S
C448 C452 1.385 . S
C449 H430 0.951 . S
C449 C447 1.388 . S
C449 C450 1.366 . S
C450 C449 1.366 . S
C450 C451 1.414 . S
C450 C453 1.499 . S
C451 H431 0.950 . S
C451 C450 1.414 . S
C451 C452 1.374 . S
C452 H432 0.950 . S
C452 C448 1.385 . S
C452 C451 1.374 . S
C453 C450 1.499 . S
C453 C454 1.373 . S
C453 C455 1.389 . S
C454 H433 0.950 . S
C454 C453 1.373 . S
C454 C470 1.377 . S
C455 C453 1.389 . S
C455 C456 1.524 . S
C455 C469 1.377 . S
C456 C455 1.524 . S
C456 C457 1.397 . S
C456 C461 1.363 . S
C457 H434 0.950 . S
C457 C456 1.397 . S
C457 C458 1.334 . S
C458 H435 0.950 . S
C458 C457 1.334 . S
C458 C459 1.287 . S
C459 C458 1.287 . S
C459 C460 1.524 . S
C459 H478 0.913 1_545 S
C460 H436 0.950 1_545 S
C460 C459 1.524 . S
C460 C461 1.415 . S
C461 H437 0.950 . S
C461 C456 1.363 . S
C461 C460 1.415 . S
C462 H438 0.951 . S
C462 C463 1.366 . S
C462 C464 1.388 . S
C463 C462 1.366 . S
C463 C467 1.385 . S
C464 H439 0.951 . S
C464 C462 1.388 . S
C464 C465 1.366 . S
C465 C464 1.366 . S
C465 C466 1.414 . S
C465 C468 1.499 . S
C466 H440 0.950 . S
C466 C465 1.414 . S
C466 C467 1.374 . S
C467 H441 0.950 . S
C467 C463 1.385 . S
C467 C466 1.374 . S
C468 C465 1.499 . S
C468 C469 1.373 . S
C468 C470 1.389 . S
C469 H442 0.950 . S
C469 C455 1.377 . S
C469 C468 1.373 . S
C470 C454 1.377 . S
C470 C468 1.389 . S
C470 C471 1.524 . S
C471 C470 1.524 . S
C471 C472 1.397 . S
C471 C476 1.363 . S
C472 H443 0.950 . S
C472 C471 1.397 . S
C472 C473 1.334 1_655 S
C473 H444 0.950 . S
C473 C472 1.334 1_455 S
C473 C474 1.287 . S
C474 C473 1.287 . S
C474 C475 1.524 1_455 S
C474 H477 0.999 . S
C475 H445 0.950 . S
C475 C474 1.524 1_655 S
C475 C476 1.415 . S
C476 H446 0.950 . S
C476 C471 1.363 . S
C476 C475 1.415 . S
H477 C474 0.999 . S
H478 C459 0.913 1_565 S
H479 C497 0.951 . S
H480 C499 0.951 . S
H481 C501 0.950 . S
H482 C502 0.950 . S
H483 C504 0.950 . S
H484 C507 0.950 . S
H485 C508 0.950 . S
H486 C510 0.950 . S
H487 C511 0.950 . S
H488 C512 0.951 . S
H489 C514 0.951 . S
H490 C516 0.950 . S
H491 C517 0.950 . S
H492 C519 0.950 . S
H493 C522 0.950 . S
H494 C523 0.950 . S
H495 C525 0.950 . S
H496 C526 0.950 . S
C497 H479 0.951 . S
C497 C498 1.366 . S
C497 C499 1.388 . S
C498 C497 1.366 . S
C498 C502 1.385 . S
C499 H480 0.951 . S
C499 C497 1.388 . S
C499 C500 1.366 . S
C500 C499 1.366 . S
C500 C501 1.414 . S
C500 C503 1.499 . S
C501 H481 0.950 . S
C501 C500 1.414 . S
C501 C502 1.374 . S
C502 H482 0.950 . S
C502 C498 1.385 . S
C502 C501 1.374 . S
C503 C500 1.499 . S
C503 C504 1.373 . S
C503 C505 1.389 . S
C504 H483 0.950 . S
C504 C503 1.373 . S
C504 C520 1.377 . S
C505 C503 1.389 . S
C505 C506 1.524 . S
C505 C519 1.377 . S
C506 C505 1.524 . S
C506 C507 1.397 . S
C506 C511 1.363 . S
C507 H484 0.950 . S
C507 C506 1.397 . S
C507 C508 1.334 . S
C508 H485 0.950 . S
C508 C507 1.334 . S
C508 C509 1.287 . S
C509 C508 1.287 . S
C509 C510 1.524 . S
C509 H528 0.917 . S
C510 H486 0.950 . S
C510 C509 1.524 . S
C510 C511 1.415 . S
C511 H487 0.950 . S
C511 C506 1.363 . S
C511 C510 1.415 . S
C512 H488 0.951 . S
C512 C513 1.366 . S
C512 C514 1.388 . S
C513 C512 1.366 . S
C513 C517 1.385 . S
C514 H489 0.951 . S
C514 C512 1.388 . S
C514 C515 1.366 . S
C515 C514 1.366 . S
C515 C516 1.414 . S
C515 C518 1.499 . S
C516 H490 0.950 . S
C516 C515 1.414 . S
C516 C517 1.374 . S
C517 H491 0.950 . S
C517 C513 1.385 . S
C517 C516 1.374 . S
C518 C515 1.499 . S
C518 C519 1.373 . S
C518 C520 1.389 . S
C519 H492 0.950 . S
C519 C505 1.377 . S
C519 C518 1.373 . S
C520 C504 1.377 . S
C520 C518 1.389 . S
C520 C521 1.524 . S
C521 C520 1.524 . S
C521 C522 1.397 . S
C521 C526 1.363 . S
C522 H493 0.950 . S
C522 C521 1.397 . S
C522 C523 1.334 . S
C523 H494 0.950 . S
C523 C522 1.334 . S
C523 C524 1.287 . S
C524 C523 1.287 . S
C524 C525 1.524 . S
C524 H527 0.999 . S
C525 H495 0.950 . S
C525 C524 1.524 . S
C525 C526 1.415 . S
C526 H496 0.950 . S
C526 C521 1.363 . S
C526 C525 1.415 . S
H527 C524 0.999 . S
H528 C509 0.917 . S
H529 C547 0.951 . S
H530 C549 0.951 . S
H531 C551 0.950 . S
H532 C552 0.950 . S
H533 C554 0.950 . S
H534 C557 0.950 . S
H535 C558 0.950 . S
H536 C560 0.950 . S
H537 C561 0.950 . S
H538 C562 0.951 . S
H539 C564 0.951 . S
H540 C566 0.950 . S
H541 C567 0.950 . S
H542 C569 0.950 . S
H543 C572 0.950 . S
H544 C573 0.950 . S
H545 C575 0.950 . S
H546 C576 0.950 . S
C547 H529 0.951 . S
C547 C548 1.366 . S
C547 C549 1.388 . S
C548 C547 1.366 . S
C548 C552 1.385 . S
C549 H530 0.951 . S
C549 C547 1.388 . S
C549 C550 1.366 . S
C550 C549 1.366 . S
C550 C551 1.414 . S
C550 C553 1.499 . S
C551 H531 0.950 . S
C551 C550 1.414 . S
C551 C552 1.374 . S
C552 H532 0.950 . S
C552 C548 1.385 . S
C552 C551 1.374 . S
C553 C550 1.499 . S
C553 C554 1.373 . S
C553 C555 1.389 . S
C554 H533 0.950 . S
C554 C553 1.373 . S
C554 C570 1.377 . S
C555 C553 1.389 . S
C555 C556 1.524 . S
C555 C569 1.377 . S
C556 C555 1.524 . S
C556 C557 1.397 . S
C556 C561 1.363 . S
C557 H534 0.950 . S
C557 C556 1.397 . S
C557 C558 1.334 . S
C558 H535 0.950 . S
C558 C557 1.334 . S
C558 C559 1.287 . S
C559 C558 1.287 . S
C559 C560 1.524 . S
C559 H578 0.913 . S
C560 H536 0.950 . S
C560 C559 1.524 . S
C560 C561 1.415 . S
C561 H537 0.950 . S
C561 C556 1.363 . S
C561 C560 1.415 . S
C562 H538 0.951 . S
C562 C563 1.366 . S
C562 C564 1.388 . S
C563 C562 1.366 . S
C563 C567 1.385 . S
C564 H539 0.951 . S
C564 C562 1.388 . S
C564 C565 1.366 . S
C565 C564 1.366 . S
C565 C566 1.414 . S
C565 C568 1.499 . S
C566 H540 0.950 . S
C566 C565 1.414 . S
C566 C567 1.374 . S
C567 H541 0.950 . S
C567 C563 1.385 . S
C567 C566 1.374 . S
C568 C565 1.499 . S
C568 C569 1.373 . S
C568 C570 1.389 . S
C569 H542 0.950 . S
C569 C555 1.377 . S
C569 C568 1.373 . S
C570 C554 1.377 . S
C570 C568 1.389 . S
C570 C571 1.524 . S
C571 C570 1.524 . S
C571 C572 1.397 . S
C571 C576 1.363 . S
C572 H543 0.950 . S
C572 C571 1.397 . S
C572 C573 1.334 . S
C573 H544 0.950 . S
C573 C572 1.334 . S
C573 C574 1.287 . S
C574 C573 1.287 . S
C574 C575 1.524 . S
C574 H577 0.999 . S
C575 H545 0.950 . S
C575 C574 1.524 . S
C575 C576 1.415 . S
C576 H546 0.950 . S
C576 C571 1.363 . S
C576 C575 1.415 . S
H577 C574 0.999 . S
H578 C559 0.913 . S
H579 C597 0.951 . S
H580 C599 0.951 . S
H581 C601 0.950 . S
H582 C602 0.950 . S
H583 C604 0.950 . S
H584 C607 0.950 . S
H585 C608 0.950 1_554 S
H586 C610 0.950 . S
H587 C611 0.950 . S
H588 C612 0.951 . S
H589 C614 0.951 . S
H590 C616 0.950 . S
H591 C617 0.950 . S
H592 C619 0.950 . S
H593 C622 0.950 . S
H594 C623 0.950 1_556 S
H595 C625 0.950 . S
H596 C626 0.950 . S
C597 H579 0.951 . S
C597 C598 1.366 . S
C597 C599 1.388 . S
C598 C597 1.366 . S
C598 C602 1.385 . S
C599 H580 0.951 . S
C599 C597 1.388 . S
C599 C600 1.366 . S
C600 C599 1.366 . S
C600 C601 1.414 . S
C600 C603 1.499 . S
C601 H581 0.950 . S
C601 C600 1.414 . S
C601 C602 1.374 . S
C602 H582 0.950 . S
C602 C598 1.385 . S
C602 C601 1.374 . S
C603 C600 1.499 . S
C603 C604 1.373 . S
C603 C605 1.389 1_554 S
C604 H583 0.950 . S
C604 C603 1.373 . S
C604 C620 1.377 . S
C605 C603 1.389 1_556 S
C605 C606 1.524 . S
C605 C619 1.377 . S
C606 C605 1.524 . S
C606 C607 1.397 1_556 S
C606 C611 1.363 . S
C607 H584 0.950 . S
C607 C606 1.397 1_554 S
C607 C608 1.334 1_554 S
C608 H585 0.950 1_556 S
C608 C607 1.334 1_556 S
C608 C609 1.287 . S
C609 C608 1.287 . S
C609 C610 1.524 . S
C609 H628 0.913 . S
C610 H586 0.950 . S
C610 C609 1.524 . S
C610 C611 1.415 . S
C611 H587 0.950 . S
C611 C606 1.363 . S
C611 C610 1.415 . S
C612 H588 0.951 . S
C612 C613 1.366 . S
C612 C614 1.388 . S
C613 C612 1.366 . S
C613 C617 1.385 . S
C614 H589 0.951 . S
C614 C612 1.388 . S
C614 C615 1.366 . S
C615 C614 1.366 . S
C615 C616 1.414 . S
C615 C618 1.499 . S
C616 H590 0.950 . S
C616 C615 1.414 . S
C616 C617 1.374 . S
C617 H591 0.950 . S
C617 C613 1.385 . S
C617 C616 1.374 . S
C618 C615 1.499 . S
C618 C619 1.373 . S
C618 C620 1.389 1_556 S
C619 H592 0.950 . S
C619 C605 1.377 . S
C619 C618 1.373 . S
C620 C604 1.377 . S
C620 C618 1.389 1_554 S
C620 C621 1.524 . S
C621 C620 1.524 . S
C621 C622 1.397 1_554 S
C621 C626 1.363 . S
C622 H593 0.950 . S
C622 C621 1.397 1_556 S
C622 C623 1.334 1_556 S
C623 H594 0.950 1_554 S
C623 C622 1.334 1_554 S
C623 C624 1.287 . S
C624 C623 1.287 . S
C624 C625 1.524 . S
C624 H627 0.999 . S
C625 H595 0.950 . S
C625 C624 1.524 . S
C625 C626 1.415 . S
C626 H596 0.950 . S
C626 C621 1.363 . S
C626 C625 1.415 . S
H627 C624 0.999 . S
H628 C609 0.913 . S
H629 C647 0.951 . S
H630 C649 0.951 . S
H631 C651 0.950 . S
H632 C652 0.950 . S
H633 C654 0.950 . S
H634 C657 0.950 . S
H635 C658 0.950 . S
H636 C660 0.950 . S
H637 C661 0.950 . S
H638 C662 0.951 . S
H639 C664 0.951 . S
H640 C666 0.950 . S
H641 C667 0.950 . S
H642 C669 0.950 1_565 S
H643 C672 0.950 . S
H644 C673 0.950 . S
H645 C675 0.950 . S
H646 C676 0.950 . S
C647 H629 0.951 . S
C647 C648 1.366 . S
C647 C649 1.388 . S
C648 C647 1.366 . S
C648 C652 1.385 . S
C649 H630 0.951 . S
C649 C647 1.388 . S
C649 C650 1.366 . S
C650 C649 1.366 . S
C650 C651 1.414 . S
C650 C653 1.499 . S
C651 H631 0.950 . S
C651 C650 1.414 . S
C651 C652 1.374 . S
C652 H632 0.950 . S
C652 C648 1.385 . S
C652 C651 1.374 . S
C653 C650 1.499 . S
C653 C654 1.373 1_565 S
C653 C655 1.378 1_556 S
C654 H633 0.950 . S
C654 C653 1.373 1_545 S
C654 C670 1.386 . S
C655 C653 1.378 1_554 S
C655 C656 1.525 . S
C655 C669 1.387 1_565 S
C656 C655 1.525 . S
C656 C657 1.397 1_554 S
C656 C661 1.363 . S
C657 H634 0.950 . S
C657 C656 1.397 1_556 S
C657 C658 1.334 . S
C658 H635 0.950 . S
C658 C657 1.334 . S
C658 C659 1.278 1_556 S
C659 C658 1.278 1_554 S
C659 C660 1.532 . S
C659 H678 0.913 1_554 S
C660 H636 0.950 . S
C660 C659 1.532 . S
C660 C661 1.415 . S
C661 H637 0.950 . S
C661 C656 1.363 . S
C661 C660 1.415 . S
C662 H638 0.951 . S
C662 C663 1.366 . S
C662 C664 1.388 . S
C663 C662 1.366 . S
C663 C667 1.385 . S
C664 H639 0.951 . S
C664 C662 1.388 . S
C664 C665 1.366 . S
C665 C664 1.366 . S
C665 C666 1.414 . S
C665 C668 1.499 . S
C666 H640 0.950 . S
C666 C665 1.414 . S
C666 C667 1.374 . S
C667 H641 0.950 . S
C667 C663 1.385 . S
C667 C666 1.374 . S
C668 C665 1.499 . S
C668 C669 1.373 . S
C668 C670 1.379 1_554 S
C669 H642 0.950 1_545 S
C669 C655 1.387 1_545 S
C669 C668 1.373 . S
C670 C654 1.386 . S
C670 C668 1.379 1_556 S
C670 C671 1.525 . S
C671 C670 1.525 . S
C671 C672 1.397 1_556 S
C671 C676 1.363 . S
C672 H643 0.950 . S
C672 C671 1.397 1_554 S
C672 C673 1.334 . S
C673 H644 0.950 . S
C673 C672 1.334 . S
C673 C674 1.279 1_554 S
C674 C673 1.279 1_556 S
C674 C675 1.531 . S
C674 H677 1.000 . S
C675 H645 0.950 . S
C675 C674 1.531 . S
C675 C676 1.415 . S
C676 H646 0.950 . S
C676 C671 1.363 . S
C676 C675 1.415 . S
H677 C674 1.000 . S
H678 C659 0.913 1_556 S
H679 C697 0.951 . S
H680 C699 0.951 . S
H681 C701 0.950 . S
H682 C702 0.950 . S
H683 C704 0.950 . S
H684 C707 0.950 . S
H685 C708 0.950 . S
H686 C710 0.950 . S
H687 C711 0.950 . S
H688 C712 0.951 . S
H689 C714 0.951 . S
H690 C716 0.950 . S
H691 C717 0.950 . S
H692 C719 0.950 . S
H693 C722 0.950 . S
H694 C723 0.950 . S
H695 C725 0.950 . S
H696 C726 0.950 . S
C697 H679 0.951 . S
C697 C698 1.366 . S
C697 C699 1.388 . S
C698 C697 1.366 . S
C698 C702 1.385 . S
C699 H680 0.951 . S
C699 C697 1.388 . S
C699 C700 1.366 . S
C700 C699 1.366 . S
C700 C701 1.414 . S
C700 C703 1.499 . S
C701 H681 0.950 . S
C701 C700 1.414 . S
C701 C702 1.374 . S
C702 H682 0.950 . S
C702 C698 1.385 . S
C702 C701 1.374 . S
C703 C700 1.499 . S
C703 C704 1.373 . S
C703 C705 1.389 . S
C704 H683 0.950 . S
C704 C703 1.373 . S
C704 C720 1.377 1_456 S
C705 C703 1.389 . S
C705 C706 1.524 . S
C705 C719 1.377 1_456 S
C706 C705 1.524 . S
C706 C707 1.397 . S
C706 C711 1.363 1_455 S
C707 H684 0.950 . S
C707 C706 1.397 . S
C707 C708 1.334 . S
C708 H685 0.950 . S
C708 C707 1.334 . S
C708 C709 1.287 . S
C709 C708 1.287 . S
C709 C710 1.524 1_455 S
C709 H728 0.913 . S
C710 H686 0.950 . S
C710 C709 1.524 1_655 S
C710 C711 1.415 . S
C711 H687 0.950 . S
C711 C706 1.363 1_655 S
C711 C710 1.415 . S
C712 H688 0.951 . S
C712 C713 1.366 . S
C712 C714 1.388 . S
C713 C712 1.366 . S
C713 C717 1.385 . S
C714 H689 0.951 . S
C714 C712 1.388 . S
C714 C715 1.366 . S
C715 C714 1.366 . S
C715 C716 1.414 . S
C715 C718 1.499 . S
C716 H690 0.950 . S
C716 C715 1.414 . S
C716 C717 1.374 . S
C717 H691 0.950 . S
C717 C713 1.385 . S
C717 C716 1.374 . S
C718 C715 1.499 . S
C718 C719 1.373 . S
C718 C720 1.389 . S
C719 H692 0.950 . S
C719 C705 1.377 1_654 S
C719 C718 1.373 . S
C720 C704 1.377 1_654 S
C720 C718 1.389 . S
C720 C721 1.524 . S
C721 C720 1.524 . S
C721 C722 1.397 . S
C721 C726 1.363 1_655 S
C722 H693 0.950 . S
C722 C721 1.397 . S
C722 C723 1.334 . S
C723 H694 0.950 . S
C723 C722 1.334 . S
C723 C724 1.287 . S
C724 C723 1.287 . S
C724 C725 1.524 1_655 S
C724 H727 0.999 . S
C725 H695 0.950 . S
C725 C724 1.524 1_455 S
C725 C726 1.415 . S
C726 H696 0.950 . S
C726 C721 1.363 1_455 S
C726 C725 1.415 . S
H727 C724 0.999 . S
H728 C709 0.913 . S
C148 N3 2.141 1_455 S
C163 N8 2.141 1_655 S
C198 N51 2.141 . S
C213 N46 2.142 1_554 S
C248 N94 2.141 1_556 S
C263 N89 2.141 . S
C298 C119 2.292 . S
C313 C32 2.295 . S
C348 C113 2.296 . S
C363 C40 2.289 . S
C398 C125 2.243 . S
C413 C13 2.244 . S
C448 C75 2.296 . S
C463 C33 2.294 . S
C498 C83 2.292 . S
C513 C27 2.299 . S
C548 C56 2.243 . S
C563 C39 2.242 . S
C598 C76 2.293 . S
C613 C118 2.296 . S
C648 C126 2.292 . S
C663 C70 2.296 . S
C698 C99 2.242 . S
C713 C82 2.242 . S
