# Generated by pormake.
# Topology umy, (4)-cn, num edge types: 1
# Building blocks:
#     Node 0, Type 0, BuildingBlock: QUQFOY_clean_sbu_1, # of connection points: 4
#     Node 1, Type 0, BuildingBlock: QUQFOY_clean_sbu_1, # of connection points: 4
#     Node 2, Type 0, BuildingBlock: QUQFOY_clean_sbu_1, # of connection points: 4
#     Node 3, Type 0, BuildingBlock: QUQFOY_clean_sbu_1, # of connection points: 4
#     Node 4, Type 0, BuildingBlock: QUQFOY_clean_sbu_1, # of connection points: 4
#     Node 5, Type 0, BuildingBlock: QUQFOY_clean_sbu_1, # of connection points: 4
#     Node 6, Type 0, BuildingBlock: QUQFOY_clean_sbu_1, # of connection points: 4
#     Node 7, Type 0, BuildingBlock: QUQFOY_clean_sbu_1, # of connection points: 4
#     Node 8, Type 0, BuildingBlock: QUQFOY_clean_sbu_1, # of connection points: 4
#     Node 9, Type 0, BuildingBlock: QUQFOY_clean_sbu_1, # of connection points: 4
#     Node 10, Type 0, BuildingBlock: QUQFOY_clean_sbu_1, # of connection points: 4
#     Node 11, Type 0, BuildingBlock: QUQFOY_clean_sbu_1, # of connection points: 4
#     Edge 12, Type (0, 0), BuildingBlock: ZUJKAS_clean_linker_0, # of connection points: 2
#     Edge 13, Type (0, 0), BuildingBlock: ZUJKAS_clean_linker_0, # of connection points: 2
#     Edge 14, Type (0, 0), BuildingBlock: ZUJKAS_clean_linker_0, # of connection points: 2
#     Edge 15, Type (0, 0), BuildingBlock: ZUJKAS_clean_linker_0, # of connection points: 2
#     Edge 16, Type (0, 0), BuildingBlock: ZUJKAS_clean_linker_0, # of connection points: 2
#     Edge 17, Type (0, 0), BuildingBlock: ZUJKAS_clean_linker_0, # of connection points: 2
#     Edge 18, Type (0, 0), BuildingBlock: ZUJKAS_clean_linker_0, # of connection points: 2
#     Edge 19, Type (0, 0), BuildingBlock: ZUJKAS_clean_linker_0, # of connection points: 2
#     Edge 20, Type (0, 0), BuildingBlock: ZUJKAS_clean_linker_0, # of connection points: 2
#     Edge 21, Type (0, 0), BuildingBlock: ZUJKAS_clean_linker_0, # of connection points: 2
#     Edge 22, Type (0, 0), BuildingBlock: ZUJKAS_clean_linker_0, # of connection points: 2
#     Edge 23, Type (0, 0), BuildingBlock: ZUJKAS_clean_linker_0, # of connection points: 2
#     Edge 24, Type (0, 0), BuildingBlock: ZUJKAS_clean_linker_0, # of connection points: 2
#     Edge 25, Type (0, 0), BuildingBlock: ZUJKAS_clean_linker_0, # of connection points: 2
#     Edge 26, Type (0, 0), BuildingBlock: ZUJKAS_clean_linker_0, # of connection points: 2
#     Edge 27, Type (0, 0), BuildingBlock: ZUJKAS_clean_linker_0, # of connection points: 2
#     Edge 28, Type (0, 0), BuildingBlock: ZUJKAS_clean_linker_0, # of connection points: 2
#     Edge 29, Type (0, 0), BuildingBlock: ZUJKAS_clean_linker_0, # of connection points: 2
#     Edge 30, Type (0, 0), BuildingBlock: ZUJKAS_clean_linker_0, # of connection points: 2
#     Edge 31, Type (0, 0), BuildingBlock: ZUJKAS_clean_linker_0, # of connection points: 2
#     Edge 32, Type (0, 0), BuildingBlock: ZUJKAS_clean_linker_0, # of connection points: 2
#     Edge 33, Type (0, 0), BuildingBlock: ZUJKAS_clean_linker_0, # of connection points: 2
#     Edge 34, Type (0, 0), BuildingBlock: ZUJKAS_clean_linker_0, # of connection points: 2
#     Edge 35, Type (0, 0), BuildingBlock: ZUJKAS_clean_linker_0, # of connection points: 2
# Relax obj value: 0.088
# Max RMSD: 0.117
# Mean RMSD: 0.117
data_MOF--net-umy--node1-QUQFOY_clean_sbu_1--edge1-ZUJKAS_clean_linker_0
_symmetry_space_group_name_H-M    P1
_symmetry_Int_Tables_number       1
_symmetry_cell_setting            triclinic
loop_
_symmetry_equiv_pos_as_xyz
'x, y, z'
_cell_length_a     52.889978
_cell_length_b     52.866259
_cell_length_c     66.392067
_cell_angle_alpha  90.013596
_cell_angle_beta   89.999584
_cell_angle_gamma 120.00468
loop_
_atom_site_label
_atom_site_type_symbol
_atom_site_fract_x
_atom_site_fract_y
_atom_site_fract_z
_atom_type_partial_charge
O0 O 0.02504 0.33153 0.14556 0.0
Cd1 Cd 0.06543 0.36807 0.14002 0.0
Cd2 Cd 0.07677 0.32472 0.12642 0.0
O3 O 0.03281 0.2976 0.13248 0.0
O4 O 0.05916 0.40193 0.14424 0.0
O5 O 0.07263 0.39257 0.11499 0.0
C6 C 0.06617 0.40899 0.12567 0.0
C7 C 0.09833 0.31952 0.09698 0.0
C8 C 0.01599 0.30489 0.14123 0.0
C9 C 0.11095 0.36086 0.16228 0.0
O10 O 0.1043 0.33899 0.15099 0.0
O11 O 0.09891 0.37626 0.15977 0.0
O12 O 0.08958 0.30046 0.11125 0.0
O13 O 0.09361 0.34113 0.09897 0.0
O14 O 0.69894 0.02017 0.31138 0.0
Cd15 Cd 0.70314 0.06084 0.3066 0.0
Cd16 Cd 0.75766 0.07247 0.29279 0.0
O17 O 0.74063 0.02826 0.29812 0.0
O18 O 0.66306 0.0548 0.31051 0.0
O19 O 0.68679 0.06942 0.28165 0.0
C20 C 0.66364 0.06268 0.29208 0.0
C21 C 0.78516 0.09513 0.26379 0.0
C22 C 0.71651 0.01122 0.30678 0.0
C23 C 0.75563 0.10503 0.32964 0.0
O24 O 0.77083 0.09899 0.31789 0.0
O25 O 0.7282 0.09315 0.32716 0.0
O26 O 0.79498 0.08559 0.27787 0.0
O27 O 0.75888 0.09056 0.26567 0.0
O28 O 0.68559 0.69778 0.48035 0.0
Cd29 Cd 0.64901 0.70125 0.47441 0.0
Cd30 Cd 0.69177 0.75507 0.45993 0.0
O31 O 0.71891 0.73793 0.46524 0.0
O32 O 0.61539 0.66083 0.47801 0.0
O33 O 0.62489 0.68468 0.44916 0.0
C34 C 0.60856 0.66133 0.45945 0.0
C35 C 0.69674 0.78211 0.43066 0.0
C36 C 0.71194 0.71465 0.47503 0.0
C37 C 0.65674 0.75397 0.49642 0.0
O38 O 0.67843 0.76876 0.48489 0.0
O39 O 0.6409 0.72654 0.49408 0.0
O40 O 0.71609 0.7921 0.44474 0.0
O41 O 0.67488 0.75595 0.43273 0.0
O42 O 0.99474 0.68197 0.64746 0.0
Cd43 Cd 0.95477 0.64534 0.64129 0.0
Cd44 Cd 0.94372 0.68838 0.627 0.0
O45 O 0.98785 0.71556 0.63277 0.0
O46 O 0.96099 0.61134 0.64478 0.0
O47 O 0.94778 0.62181 0.61581 0.0
C48 C 0.95408 0.60495 0.62611 0.0
C49 C 0.92173 0.69457 0.59813 0.0
C50 C 1.00415 0.70844 0.64244 0.0
C51 C 0.90957 0.65258 0.66329 0.0
O52 O 0.91644 0.67428 0.65179 0.0
O53 O 0.92126 0.63685 0.66095 0.0
O54 O 0.93037 0.71292 0.61283 0.0
O55 O 0.9269 0.67317 0.59928 0.0
O56 O 0.32153 0.99245 0.8132 0.0
Cd57 Cd 0.31878 0.95241 0.8083 0.0
Cd58 Cd 0.26262 0.9387 0.79546 0.0
O59 O 0.27828 0.98248 0.80171 0.0
O60 O 0.35946 0.95992 0.81179 0.0
O61 O 0.33524 0.94442 0.78315 0.0
C62 C 0.35872 0.95187 0.79339 0.0
C63 C 0.23383 0.91655 0.76685 0.0
C64 C 0.30282 1.00032 0.80957 0.0
C65 C 0.26767 0.90613 0.83142 0.0
O66 O 0.25146 0.91114 0.81993 0.0
O67 O 0.29517 0.91964 0.82891 0.0
O68 O 0.22403 0.92421 0.78203 0.0
O69 O 0.26074 0.92273 0.7674 0.0
O70 O 0.33381 0.31954 0.97731 0.0
Cd71 Cd 0.37073 0.31597 0.97381 0.0
Cd72 Cd 0.32926 0.26057 0.95955 0.0
O73 O 0.3011 0.27646 0.96523 0.0
O74 O 0.40447 0.35638 0.97726 0.0
O75 O 0.39613 0.33133 0.94901 0.0
C76 C 0.41218 0.35501 0.95907 0.0
C77 C 0.32373 0.23244 0.93072 0.0
C78 C 0.30744 0.30092 0.97309 0.0
C79 C 0.36377 0.26406 0.99695 0.0
O80 O 0.34411 0.24826 0.98431 0.0
O81 O 0.37747 0.29171 0.9953 0.0
O82 O 0.30508 0.22266 0.94523 0.0
O83 O 0.34509 0.259 0.93206 0.0
O84 O 0.68849 0.99563 0.6905 0.0
Cd85 Cd 0.65205 0.95498 0.69534 0.0
Cd86 Cd 0.69485 0.94298 0.70849 0.0
O87 O 0.72223 0.98712 0.70299 0.0
O88 O 0.61797 0.9611 0.69199 0.0
O89 O 0.62769 0.94632 0.72057 0.0
C90 C 0.61107 0.95312 0.71045 0.0
C91 C 0.69927 0.92046 0.73769 0.0
C92 C 0.71508 1.00438 0.69472 0.0
C93 C 0.65938 0.91032 0.67201 0.0
O94 O 0.68079 0.91612 0.68355 0.0
O95 O 0.64424 0.92261 0.67468 0.0
O96 O 0.7186 0.9295 0.7236 0.0
O97 O 0.67783 0.92544 0.73568 0.0
O98 O 0.70035 0.68488 0.85799 0.0
Cd99 Cd 0.70454 0.64841 0.8629 0.0
Cd100 Cd 0.75973 0.69179 0.87606 0.0
O101 O 0.74256 0.71878 0.87047 0.0
O102 O 0.66441 0.61436 0.85905 0.0
O103 O 0.68819 0.62355 0.8879 0.0
C104 C 0.66504 0.60709 0.87748 0.0
C105 C 0.78806 0.6979 0.90485 0.0
C106 C 0.71816 0.71152 0.86217 0.0
C107 C 0.75671 0.65605 0.83962 0.0
O108 O 0.77226 0.67755 0.8511 0.0
O109 O 0.7293 0.64075 0.84234 0.0
O110 O 0.79743 0.71667 0.8904 0.0
O111 O 0.76179 0.67601 0.90344 0.0
O112 O 0.02745 0.69984 0.02357 0.0
Cd113 Cd 0.06716 0.70223 0.02914 0.0
Cd114 Cd 0.08085 0.75818 0.04226 0.0
O115 O 0.03735 0.74293 0.03536 0.0
O116 O 0.05956 0.66151 0.02558 0.0
O117 O 0.07423 0.68534 0.05442 0.0
C118 C 0.067 0.66196 0.04411 0.0
C119 C 0.10202 0.78604 0.0714 0.0
C120 C 0.01965 0.71862 0.02715 0.0
C121 C 0.11434 0.7536 0.00674 0.0
O122 O 0.10916 0.76973 0.01818 0.0
O123 O 0.1006 0.72605 0.00903 0.0
O124 O 0.09503 0.7964 0.0562 0.0
O125 O 0.0958 0.75911 0.07051 0.0
O126 O 0.33533 0.02255 0.18993 0.0
Cd127 Cd 0.37145 0.06309 0.19519 0.0
Cd128 Cd 0.32924 0.07403 0.21061 0.0
O129 O 0.30229 0.02964 0.20519 0.0
O130 O 0.40604 0.05796 0.19119 0.0
O131 O 0.39599 0.07129 0.22027 0.0
C132 C 0.41288 0.06528 0.20976 0.0
C133 C 0.32583 0.09563 0.24059 0.0
C134 C 0.30909 0.01313 0.19547 0.0
C135 C 0.36233 0.10768 0.17361 0.0
O136 O 0.34155 0.10144 0.18587 0.0
O137 O 0.37785 0.09563 0.17525 0.0
O138 O 0.30546 0.08601 0.2272 0.0
O139 O 0.34784 0.09188 0.23739 0.0
O140 O 0.32056 0.33018 0.35799 0.0
Cd141 Cd 0.31808 0.36788 0.36142 0.0
Cd142 Cd 0.2618 0.32666 0.37449 0.0
O143 O 0.27633 0.29763 0.36839 0.0
O144 O 0.35917 0.40039 0.35827 0.0
O145 O 0.33371 0.39353 0.38612 0.0
C146 C 0.3578 0.40866 0.37629 0.0
C147 C 0.23364 0.32103 0.40328 0.0
C148 C 0.30113 0.30376 0.36134 0.0
C149 C 0.26745 0.36298 0.33763 0.0
O150 O 0.25101 0.34292 0.34982 0.0
O151 O 0.29502 0.37625 0.33979 0.0
O152 O 0.2233 0.30339 0.38822 0.0
O153 O 0.26067 0.34147 0.40245 0.0
O154 O 0.99658 0.31835 0.52155 0.0
Cd155 Cd 0.95627 0.31432 0.52748 0.0
Cd156 Cd 0.94592 0.26087 0.54212 0.0
O157 O 0.9903 0.27863 0.53702 0.0
O158 O 0.96191 0.35424 0.52346 0.0
O159 O 0.94914 0.33127 0.5527 0.0
C160 C 0.95516 0.35413 0.54212 0.0
C161 C 0.92364 0.23407 0.57142 0.0
C162 C 1.0064 0.30185 0.5271 0.0
C163 C 0.91183 0.26109 0.50556 0.0
O164 O 0.9192 0.24662 0.51703 0.0
O165 O 0.92283 0.28844 0.50799 0.0
O166 O 0.93339 0.22409 0.55758 0.0
O167 O 0.92775 0.26014 0.56911 0.0
H168 H 0.07468 0.65234 0.08372 0.0
H169 H 0.07545 0.60977 0.09785 0.0
H170 H 0.06162 0.57174 0.03861 0.0
H171 H 0.06054 0.61384 0.0244 0.0
H172 H 0.02672 0.54556 0.09118 0.0
H173 H 0.13725 0.57358 0.06389 0.0
H174 H 0.12674 0.60092 0.06779 0.0
H175 H 0.11332 0.57722 0.04632 0.0
C176 C 0.07184 0.63493 0.07371 0.0
C177 C 0.06755 0.63648 0.05294 0.0
C178 C 0.07227 0.61066 0.0818 0.0
C179 C 0.06884 0.58781 0.06921 0.0
C180 C 0.06458 0.5893 0.04852 0.0
H181 H 0.0731 0.42662 0.08615 0.0
H182 H 0.07308 0.4697 0.07243 0.0
C183 C 0.06386 0.61335 0.04046 0.0
C184 C 0.06902 0.56197 0.07766 0.0
H185 H 0.10905 0.52755 0.07938 0.0
C186 C 0.04475 0.54164 0.08874 0.0
C187 C 0.09242 0.55683 0.07417 0.0
C188 C 0.11907 0.57829 0.0625 0.0
C189 C 0.04307 0.51597 0.09622 0.0
C190 C 0.0667 0.51096 0.093 0.0
C191 C 0.09097 0.53138 0.08187 0.0
C192 C 0.06682 0.48488 0.10129 0.0
C193 C 0.0156 0.49412 0.10699 0.0
C194 C 0.06381 0.47933 0.12207 0.0
C195 C 0.06355 0.45467 0.12989 0.0
C196 C 0.06676 0.43521 0.11713 0.0
C197 C 0.07047 0.44112 0.09636 0.0
C198 C 0.07049 0.46574 0.08851 0.0
H199 H 0.99669 0.49672 0.10278 0.0
H200 H 1.0101 0.47137 0.10359 0.0
H201 H 0.0189 0.49763 0.12348 0.0
H202 H 0.0618 0.49418 0.13231 0.0
H203 H 0.06099 0.45098 0.14599 0.0
H204 H 0.61616 0.05725 0.31207 0.0
H205 H 0.57433 0.0589 0.29816 0.0
H206 H 0.61162 0.07209 0.23867 0.0
H207 H 0.65417 0.07128 0.25263 0.0
H208 H 0.58968 0.10797 0.24593 0.0
H209 H 0.5074 0.99486 0.26737 0.0
H210 H 0.52819 0.01634 0.2885 0.0
H211 H 0.54612 0.00818 0.26858 0.0
C212 C 0.61549 0.06042 0.296 0.0
C213 C 0.63842 0.0639 0.28342 0.0
C214 C 0.59141 0.06117 0.28805 0.0
C215 C 0.58945 0.06493 0.2673 0.0
C216 C 0.61254 0.06892 0.25472 0.0
H217 H 0.45612 0.06181 0.1898 0.0
H218 H 0.49942 0.06317 0.20402 0.0
C219 C 0.63682 0.06842 0.2627 0.0
C220 C 0.56351 0.06517 0.25886 0.0
H221 H 0.489 0.02539 0.25615 0.0
C222 C 0.5677 0.08983 0.24807 0.0
C223 C 0.53477 0.04147 0.26161 0.0
C224 C 0.52881 0.0136 0.27197 0.0
C225 C 0.54392 0.09162 0.24027 0.0
C226 C 0.51527 0.06813 0.24332 0.0
C227 C 0.51102 0.04348 0.25404 0.0
C228 C 0.48945 0.06829 0.23481 0.0
C229 C 0.54947 0.1187 0.22903 0.0
C230 C 0.46939 0.07052 0.24747 0.0
C231 C 0.44462 0.06992 0.23938 0.0
C232 C 0.43933 0.06664 0.21852 0.0
C233 C 0.4595 0.06433 0.20593 0.0
C234 C 0.48433 0.06522 0.214 0.0
H235 H 0.57227 0.13688 0.23096 0.0
H236 H 0.54549 0.11361 0.21272 0.0
H237 H 0.53426 0.1261 0.23422 0.0
H238 H 0.47294 0.07274 0.2636 0.0
H239 H 0.42948 0.07167 0.24947 0.0
H240 H 0.57331 0.60839 0.47694 0.0
H241 H 0.53066 0.56613 0.46244 0.0
H242 H 0.54218 0.61383 0.40734 0.0
H243 H 0.58509 0.65647 0.42176 0.0
H244 H 0.48259 0.58254 0.42352 0.0
H245 H 0.53354 0.51297 0.41709 0.0
H246 H 0.53685 0.52946 0.44135 0.0
H247 H 0.55475 0.55217 0.41993 0.0
C248 C 0.56688 0.60996 0.46171 0.0
C249 C 0.58272 0.6358 0.45046 0.0
C250 C 0.54252 0.58572 0.45344 0.0
C251 C 0.53346 0.58676 0.43376 0.0
C252 C 0.54893 0.61258 0.42254 0.0
H253 H 0.41187 0.44177 0.35979 0.0
H254 H 0.45367 0.48525 0.37386 0.0
C255 C 0.57346 0.63687 0.43078 0.0
C256 C 0.50777 0.56082 0.42502 0.0
H257 H 0.48268 0.49007 0.41087 0.0
C258 C 0.48258 0.56233 0.42069 0.0
C259 C 0.50794 0.53457 0.42124 0.0
C260 C 0.53476 0.5321 0.42496 0.0
C261 C 0.45735 0.53807 0.41294 0.0
C262 C 0.45732 0.51162 0.40959 0.0
C263 C 0.48267 0.51029 0.41364 0.0
C264 C 0.43155 0.48532 0.40123 0.0
C265 C 0.43107 0.54102 0.40811 0.0
C266 C 0.40526 0.47071 0.41207 0.0
C267 C 0.38124 0.44567 0.40409 0.0
C268 C 0.38313 0.43485 0.38512 0.0
C269 C 0.40959 0.44951 0.37441 0.0
C270 C 0.43356 0.47439 0.38243 0.0
H271 H 0.43663 0.56424 0.40752 0.0
H272 H 0.42138 0.53052 0.39345 0.0
H273 H 0.41426 0.52986 0.41994 0.0
H274 H 0.4034 0.47853 0.42676 0.0
H275 H 0.36121 0.43486 0.41273 0.0
H276 H 0.94753 0.58883 0.58628 0.0
H277 H 0.94657 0.54561 0.57175 0.0
H278 H 0.95755 0.51901 0.63093 0.0
H279 H 0.95877 0.56204 0.64555 0.0
H280 H 0.99368 0.52941 0.57788 0.0
H281 H 0.88338 0.44621 0.60499 0.0
H282 H 0.89416 0.48429 0.60209 0.0
H283 H 0.90733 0.4728 0.62307 0.0
C284 C 0.94967 0.57373 0.59619 0.0
C285 C 0.95322 0.57888 0.61707 0.0
C286 C 0.94913 0.5491 0.58787 0.0
C287 C 0.9517 0.52903 0.60031 0.0
C288 C 0.9552 0.53409 0.62112 0.0
H289 H 0.94857 0.36441 0.58179 0.0
H290 H 0.94835 0.4072 0.59589 0.0
C291 C 0.95602 0.55878 0.62941 0.0
C292 C 0.95157 0.50317 0.5916 0.0
H293 H 0.91188 0.42869 0.58949 0.0
C294 C 0.97576 0.50737 0.58029 0.0
C295 C 0.9283 0.4745 0.59501 0.0
C296 C 0.90166 0.46897 0.60684 0.0
C297 C 0.97752 0.48357 0.57253 0.0
C298 C 0.95405 0.45481 0.5757 0.0
C299 C 0.92985 0.45068 0.58705 0.0
C300 C 0.95404 0.42879 0.56717 0.0
C301 C 1.00491 0.48948 0.56151 0.0
C302 C 0.9568 0.42644 0.54633 0.0
C303 C 0.95721 0.40222 0.53829 0.0
C304 C 0.95438 0.37954 0.55087 0.0
C305 C 0.9509 0.38155 0.5717 0.0
C306 C 0.95074 0.40597 0.57977 0.0
H307 H 0.02378 0.51104 0.56571 0.0
H308 H 1.01061 0.47232 0.5647 0.0
H309 H 1.00137 0.48976 0.54506 0.0
H310 H 0.95853 0.44331 0.53623 0.0
H311 H 0.95957 0.40123 0.52215 0.0
H312 H 0.56859 0.95869 0.69115 0.0
H313 H 0.52538 0.95704 0.70581 0.0
H314 H 0.55058 0.94307 0.76465 0.0
H315 H 0.59394 0.94443 0.75009 0.0
H316 H 0.4795 0.9074 0.73265 0.0
H317 H 0.53883 0.01824 0.76717 0.0
H318 H 0.55337 0.00814 0.74597 0.0
H319 H 0.55358 0.9943 0.77058 0.0
C320 C 0.56501 0.95525 0.70722 0.0
C321 C 0.58479 0.95179 0.71948 0.0
C322 C 0.54025 0.95425 0.71554 0.0
C323 C 0.53493 0.95009 0.73628 0.0
C324 C 0.55446 0.94646 0.7486 0.0
H325 H 0.40681 0.95835 0.8131 0.0
H326 H 0.44846 0.95646 0.79907 0.0
C327 C 0.57916 0.9472 0.74026 0.0
C328 C 0.50898 0.94978 0.74496 0.0
H329 H 0.48806 0.99094 0.77223 0.0
C330 C 0.48126 0.92559 0.74134 0.0
C331 C 0.5115 0.97355 0.75628 0.0
C332 C 0.54085 1.00019 0.76023 0.0
C333 C 0.45589 0.92436 0.74901 0.0
C334 C 0.45831 0.9484 0.76008 0.0
C335 C 0.48615 0.97256 0.7637 0.0
C336 C 0.4324 0.94882 0.76841 0.0
C337 C 0.42687 0.89703 0.74559 0.0
C338 C 0.40948 0.94539 0.75585 0.0
C339 C 0.38538 0.94617 0.76389 0.0
C340 C 0.38401 0.9509 0.78461 0.0
C341 C 0.40716 0.95471 0.79707 0.0
C342 C 0.43104 0.95364 0.78907 0.0
H343 H 0.42961 0.87794 0.74223 0.0
H344 H 0.41244 0.89179 0.75893 0.0
H345 H 0.41585 0.90037 0.73249 0.0
H346 H 0.41036 0.94242 0.73978 0.0
H347 H 0.36802 0.94339 0.75387 0.0
H348 H 0.45363 0.40369 0.97844 0.0
H349 H 0.49712 0.44528 0.96407 0.0
H350 H 0.47448 0.40483 0.90548 0.0
H351 H 0.43085 0.3628 0.91978 0.0
H352 H 0.5444 0.44153 0.93829 0.0
H353 H 0.48501 0.49145 0.90164 0.0
H354 H 0.47022 0.46731 0.92306 0.0
H355 H 0.47066 0.45273 0.89878 0.0
C356 C 0.45785 0.40355 0.96249 0.0
C357 C 0.43869 0.37994 0.95023 0.0
C358 C 0.48277 0.42732 0.95434 0.0
C359 C 0.48888 0.42813 0.93374 0.0
C360 C 0.46999 0.4046 0.92142 0.0
H361 H 0.61793 0.56464 0.85741 0.0
H362 H 0.57638 0.52079 0.87124 0.0
C363 C 0.44514 0.38062 0.92961 0.0
C364 C 0.51492 0.45383 0.92519 0.0
H365 H 0.53594 0.51544 0.89735 0.0
C366 C 0.54266 0.45772 0.9293 0.0
C367 C 0.51243 0.47477 0.91348 0.0
C368 C 0.48305 0.47165 0.90897 0.0
C369 C 0.56809 0.48194 0.92175 0.0
C370 C 0.5657 0.50325 0.91028 0.0
C371 C 0.53783 0.4992 0.90617 0.0
C372 C 0.59166 0.52967 0.90207 0.0
C373 C 0.59716 0.48402 0.92573 0.0
C374 C 0.61414 0.54949 0.91478 0.0
C375 C 0.63819 0.57455 0.90686 0.0
C376 C 0.63995 0.5805 0.8861 0.0
C377 C 0.61727 0.56077 0.87347 0.0
C378 C 0.59345 0.53565 0.88136 0.0
H379 H 0.59458 0.46233 0.92935 0.0
H380 H 0.61193 0.4932 0.91254 0.0
H381 H 0.60772 0.49857 0.93883 0.0
H382 H 0.61293 0.54581 0.93088 0.0
H383 H 0.65518 0.58943 0.91701 0.0
H384 H 0.11094 0.27634 0.08937 0.0
H385 H 0.14409 0.27596 0.06394 0.0
H386 H 0.15792 0.35788 0.0404 0.0
H387 H 0.12462 0.35854 0.06593 0.0
H388 H 0.15033 0.31029 0.01022 0.0
H389 H 0.23461 0.33823 0.06942 0.0
H390 H 0.19886 0.30827 0.07517 0.0
H391 H 0.20421 0.34443 0.07257 0.0
C392 C 0.12066 0.29413 0.07864 0.0
C393 C 0.11529 0.31761 0.07981 0.0
C394 C 0.13963 0.29385 0.06412 0.0
C395 C 0.15365 0.31701 0.05045 0.0
C396 C 0.1473 0.33981 0.05086 0.0
H397 H 0.31303 0.3511 0.98928 0.0
H398 H 0.27506 0.35754 0.00529 0.0
C399 C 0.1283 0.34015 0.06546 0.0
C400 C 0.17647 0.31823 0.03684 0.0
H401 H 0.24406 0.3249 0.0375 0.0
C402 C 0.17094 0.31371 0.01609 0.0
C403 C 0.20344 0.32302 0.04455 0.0
C404 C 0.21089 0.32901 0.06662 0.0
C405 C 0.19144 0.31297 0.00292 0.0
C406 C 0.21796 0.31662 0.01078 0.0
C407 C 0.22372 0.32201 0.03146 0.0
C408 C 0.23986 0.31415 0.99816 0.0
C409 C 0.1846 0.3084 0.98072 0.0
C410 C 0.23265 0.28783 0.98837 0.0
C411 C 0.25435 0.28408 0.97911 0.0
C412 C 0.28377 0.30649 0.97963 0.0
C413 C 0.29066 0.33332 0.98861 0.0
C414 C 0.26896 0.33705 0.9978 0.0
H415 H 0.16796 0.31437 0.9764 0.0
H416 H 0.20455 0.32145 0.97153 0.0
H417 H 0.17574 0.28498 0.97703 0.0
H418 H 0.21048 0.26964 0.98876 0.0
H419 H 0.24824 0.26309 0.97244 0.0
H420 H 0.84072 0.107 0.25624 0.0
H421 H 0.87505 0.14097 0.23152 0.0
H422 H 0.80855 0.15777 0.20873 0.0
H423 H 0.77377 0.12359 0.23353 0.0
H424 H 0.84685 0.15117 0.17808 0.0
H425 H 0.90697 0.23104 0.239 0.0
H426 H 0.90048 0.19472 0.24344 0.0
H427 H 0.87016 0.20105 0.24216 0.0
C428 C 0.83317 0.11758 0.24583 0.0
C429 C 0.80452 0.11274 0.247 0.0
C430 C 0.85289 0.13705 0.23173 0.0
C431 C 0.84445 0.15216 0.21849 0.0
C432 C 0.81549 0.14636 0.21887 0.0
H433 H 0.97414 0.31247 0.16004 0.0
H434 H 0.92953 0.27522 0.1763 0.0
C435 C 0.79567 0.12684 0.23305 0.0
C436 C 0.86653 0.17526 0.20525 0.0
H437 H 0.92955 0.24118 0.20692 0.0
C438 C 0.86484 0.17097 0.18431 0.0
C439 C 0.88973 0.20124 0.21341 0.0
C440 C 0.89195 0.20754 0.23572 0.0
C441 C 0.88637 0.19164 0.17138 0.0
C442 C 0.91026 0.21706 0.17966 0.0
C443 C 0.91134 0.22166 0.20055 0.0
C444 C 0.93495 0.23891 0.16722 0.0
C445 C 0.88329 0.18616 0.14898 0.0
C446 C 0.95263 0.23089 0.15634 0.0
C447 C 0.97819 0.25217 0.14694 0.0
C448 C 0.98675 0.28197 0.1484 0.0
C449 C 0.96832 0.28978 0.15861 0.0
C450 C 0.94277 0.26849 0.16795 0.0
H451 H 0.86027 0.17076 0.14469 0.0
H452 H 0.8911 0.20684 0.14048 0.0
H453 H 0.89664 0.17629 0.1444 0.0
H454 H 0.94741 0.20831 0.15589 0.0
H455 H 0.99188 0.24534 0.13931 0.0
H456 H 0.65626 0.77114 0.40095 0.0
H457 H 0.65757 0.80564 0.37566 0.0
H458 H 0.74276 0.87069 0.39675 0.0
H459 H 0.74156 0.83665 0.42203 0.0
H460 H 0.70203 0.88959 0.39584 0.0
H461 H 0.7047 0.83916 0.32297 0.0
H462 H 0.67668 0.8156 0.34037 0.0
H463 H 0.71434 0.82926 0.34661 0.0
C464 C 0.6755 0.7926 0.39994 0.0
C465 C 0.69875 0.80115 0.41358 0.0
C466 C 0.67626 0.81226 0.38542 0.0
C467 C 0.70035 0.84071 0.38424 0.0
C468 C 0.72398 0.84886 0.39736 0.0
H469 H 0.75179 0.98701 0.30396 0.0
H470 H 0.74532 0.94315 0.32107 0.0
C471 C 0.72324 0.82932 0.41182 0.0
C472 C 0.70008 0.86296 0.37071 0.0
H473 H 0.69977 0.88133 0.32134 0.0
C474 C 0.70146 0.88773 0.37956 0.0
C475 C 0.69952 0.86058 0.34946 0.0
C476 C 0.69896 0.83486 0.33919 0.0
C477 C 0.70238 0.91022 0.3678 0.0
C478 C 0.70147 0.90774 0.34655 0.0
C479 C 0.70016 0.88301 0.33763 0.0
C480 C 0.70308 0.93137 0.33357 0.0
C481 C 0.70506 0.93684 0.37822 0.0
C482 C 0.68095 0.93862 0.33425 0.0
C483 C 0.68456 0.96369 0.32452 0.0
C484 C 0.7104 0.982 0.31386 0.0
C485 C 0.73167 0.97353 0.31208 0.0
C486 C 0.72801 0.94843 0.32184 0.0
H487 H 0.7117 0.93812 0.39424 0.0
H488 H 0.72125 0.95714 0.37043 0.0
H489 H 0.68363 0.9359 0.37783 0.0
H490 H 0.66134 0.92551 0.34299 0.0
H491 H 0.66761 0.96936 0.32611 0.0
H492 H 0.70831 0.67942 0.50616 0.0
H493 H 0.74777 0.67525 0.52168 0.0
H494 H 0.80724 0.73138 0.47586 0.0
H495 H 0.76798 0.737 0.46087 0.0
H496 H 0.78226 0.65589 0.51191 0.0
H497 H 0.85077 0.77539 0.52423 0.0
H498 H 0.81392 0.75896 0.51495 0.0
H499 H 0.84334 0.7654 0.4982 0.0
C500 C 0.72971 0.69071 0.49924 0.0
C501 C 0.73505 0.70884 0.4824 0.0
C502 C 0.75234 0.6883 0.50815 0.0
C503 C 0.7808 0.7036 0.50031 0.0
C504 C 0.78578 0.72017 0.48267 0.0
H505 H 0.90903 0.6674 0.56112 0.0
H506 H 0.878 0.67 0.53464 0.0
C507 C 0.76323 0.72314 0.47397 0.0
C508 C 0.80509 0.70289 0.51127 0.0
H509 H 0.87017 0.74626 0.53494 0.0
C510 C 0.80156 0.67567 0.51688 0.0
C511 C 0.83023 0.72869 0.51794 0.0
C512 C 0.83474 0.75875 0.51371 0.0
C513 C 0.8217 0.67347 0.52955 0.0
C514 C 0.84687 0.69927 0.53616 0.0
C515 C 0.851 0.72646 0.52984 0.0
C516 C 0.86758 0.6989 0.55126 0.0
C517 C 0.81482 0.64354 0.53659 0.0
C518 C 0.87338 0.71538 0.569 0.0
C519 C 0.89173 0.71462 0.5838 0.0
C520 C 0.90451 0.69702 0.5814 0.0
C521 C 0.8993 0.68097 0.56347 0.0
C522 C 0.88132 0.68222 0.54841 0.0
H523 H 0.79141 0.62704 0.53442 0.0
H524 H 0.82791 0.63637 0.52774 0.0
H525 H 0.82025 0.64382 0.55277 0.0
H526 H 0.86317 0.72846 0.57165 0.0
H527 H 0.89516 0.72718 0.59744 0.0
H528 H 0.03602 0.70411 0.67312 0.0
H529 H 0.07949 0.74332 0.68901 0.0
H530 H 0.08208 0.80409 0.64455 0.0
H531 H 0.03741 0.76504 0.62917 0.0
H532 H 0.13336 0.77879 0.67926 0.0
H533 H 0.08092 0.84536 0.69408 0.0
H534 H 0.06087 0.80879 0.6842 0.0
H535 H 0.08343 0.83895 0.66784 0.0
C536 C 0.04593 0.72575 0.66657 0.0
C537 C 0.03299 0.73149 0.65 0.0
C538 C 0.07088 0.74823 0.6757 0.0
C539 C 0.08377 0.77695 0.66836 0.0
C540 C 0.07203 0.78238 0.65097 0.0
H541 H 0.24801 0.90534 0.72926 0.0
H542 H 0.21421 0.87457 0.70276 0.0
C543 C 0.04664 0.75997 0.64205 0.0
C544 C 0.10861 0.80102 0.67957 0.0
H545 H 0.1296 0.86507 0.70453 0.0
C546 C 0.1326 0.79773 0.68471 0.0
C547 C 0.10757 0.82568 0.68688 0.0
C548 C 0.08172 0.82985 0.68316 0.0
C549 C 0.15491 0.81767 0.6975 0.0
C550 C 0.1539 0.84237 0.70474 0.0
C551 C 0.13051 0.84626 0.69893 0.0
C552 C 0.17503 0.86282 0.71994 0.0
C553 C 0.17839 0.81108 0.70395 0.0
C554 C 0.16442 0.86773 0.73805 0.0
C555 C 0.18361 0.8859 0.7529 0.0
C556 C 0.21398 0.89939 0.75015 0.0
C557 C 0.22472 0.89504 0.73188 0.0
C558 C 0.2054 0.87722 0.7168 0.0
H559 H 0.17182 0.78784 0.70131 0.0
H560 H 0.19848 0.82475 0.69508 0.0
H561 H 0.18366 0.81601 0.72017 0.0
H562 H 0.14116 0.85699 0.74092 0.0
H563 H 0.17455 0.88866 0.7668 0.0
H564 H 0.26561 0.02242 0.80883 0.0
H565 H 0.27262 0.067 0.82504 0.0
H566 H 0.35969 0.08873 0.84256 0.0
H567 H 0.35279 0.04405 0.82665 0.0
H568 H 0.32706 0.08863 0.87429 0.0
H569 H 0.31906 0.15392 0.81191 0.0
H570 H 0.28911 0.11704 0.8127 0.0
H571 H 0.32537 0.12376 0.80766 0.0
C572 C 0.2865 0.03697 0.81575 0.0
C573 C 0.30857 0.02949 0.8165 0.0
C574 C 0.29053 0.06259 0.82493 0.0
C575 C 0.31678 0.08139 0.83489 0.0
C576 C 0.33928 0.07461 0.83492 0.0
H577 H 0.36226 0.24385 0.89953 0.0
H578 H 0.36134 0.20875 0.87484 0.0
C579 C 0.33528 0.04902 0.82578 0.0
C580 C 0.31961 0.10625 0.84714 0.0
H581 H 0.31472 0.16835 0.8454 0.0
C582 C 0.32465 0.1062 0.8679 0.0
C583 C 0.31664 0.12929 0.83882 0.0
C584 C 0.31252 0.13125 0.81652 0.0
C585 C 0.32596 0.128 0.88063 0.0
C586 C 0.32177 0.15034 0.87247 0.0
C587 C 0.31764 0.15102 0.85163 0.0
C588 C 0.3208 0.17251 0.88566 0.0
C589 C 0.33165 0.1269 0.9028 0.0
C590 C 0.29787 0.16394 0.89945 0.0
C591 C 0.29829 0.18383 0.91349 0.0
C592 C 0.32167 0.21279 0.91403 0.0
C593 C 0.34395 0.22172 0.89953 0.0
C594 C 0.34347 0.20172 0.88542 0.0
H595 H 0.34086 0.11246 0.90591 0.0
H596 H 0.34697 0.14909 0.90867 0.0
H597 H 0.31079 0.11826 0.91119 0.0
H598 H 0.28002 0.14156 0.89973 0.0
H599 H 0.28068 0.1762 0.92433 0.0
H600 H 0.75398 0.77103 0.86369 0.0
H601 H 0.74669 0.80803 0.84693 0.0
H602 H 0.66115 0.74136 0.82759 0.0
H603 H 0.66837 0.70414 0.84405 0.0
H604 H 0.69483 0.77421 0.79648 0.0
H605 H 0.69841 0.84708 0.85776 0.0
H606 H 0.72891 0.84101 0.85806 0.0
H607 H 0.69271 0.81093 0.86246 0.0
C608 C 0.73332 0.76426 0.85628 0.0
C609 C 0.71184 0.73451 0.85515 0.0
C610 C 0.72912 0.78553 0.84678 0.0
C611 C 0.70327 0.77755 0.83611 0.0
C612 C 0.68125 0.74806 0.83577 0.0
H613 H 0.65947 0.89329 0.76819 0.0
H614 H 0.65951 0.85934 0.79344 0.0
C615 C 0.68543 0.72678 0.84522 0.0
C616 C 0.70058 0.79927 0.8234 0.0
H617 H 0.7045 0.86587 0.8241 0.0
C618 C 0.69663 0.79408 0.80259 0.0
C619 C 0.70276 0.82516 0.83135 0.0
C620 C 0.70565 0.83131 0.85366 0.0
C621 C 0.6957 0.81438 0.78945 0.0
C622 C 0.69917 0.84082 0.79726 0.0
C623 C 0.70216 0.8457 0.81814 0.0
C624 C 0.70057 0.8638 0.7837 0.0
C625 C 0.69119 0.80747 0.76724 0.0
C626 C 0.72405 0.87819 0.77032 0.0
C627 C 0.72413 0.89754 0.75596 0.0
C628 C 0.7007 0.90296 0.75468 0.0
C629 C 0.67782 0.88958 0.76875 0.0
C630 C 0.67781 0.87019 0.78319 0.0
H631 H 0.68224 0.78381 0.76427 0.0
H632 H 0.67611 0.8142 0.76071 0.0
H633 H 0.71246 0.81973 0.75934 0.0
H634 H 0.74199 0.8738 0.77063 0.0
H635 H 0.74219 0.90755 0.74546 0.0
H636 H 0.77811 0.65881 0.93538 0.0
H637 H 0.81359 0.66098 0.96015 0.0
H638 H 0.87826 0.74473 0.93667 0.0
H639 H 0.84322 0.74269 0.9119 0.0
H640 H 0.89663 0.70356 0.93819 0.0
H641 H 0.8498 0.71077 0.01148 0.0
H642 H 0.82526 0.68194 0.99493 0.0
H643 H 0.83902 0.71931 0.98777 0.0
C644 C 0.79972 0.67793 0.93575 0.0
C645 C 0.80784 0.70053 0.9216 0.0
C646 C 0.81995 0.67918 0.94997 0.0
C647 C 0.84854 0.7031 0.95034 0.0
C648 C 0.85631 0.72608 0.93669 0.0
H649 H 0.99729 0.7556 0.02878 0.0
H650 H 0.95364 0.74973 0.01169 0.0
C651 C 0.8362 0.72487 0.92253 0.0
C652 C 0.87125 0.70326 0.96362 0.0
H653 H 0.89151 0.70505 0.01276 0.0
C654 C 0.89546 0.70382 0.95449 0.0
C655 C 0.86978 0.7038 0.98489 0.0
C656 C 0.84472 0.70416 0.99544 0.0
C657 C 0.91825 0.70494 0.966 0.0
C658 C 0.91665 0.70508 0.98727 0.0
C659 C 0.89251 0.70464 0.99646 0.0
C660 C 0.94053 0.70673 0.99999 0.0
C661 C 0.94422 0.70663 0.95526 0.0
C662 C 0.94703 0.68405 0.99969 0.0
C663 C 0.97196 0.68731 0.00941 0.0
C664 C 0.9909 0.71334 0.01968 0.0
C665 C 0.98331 0.73531 0.02096 0.0
C666 C 0.95833 0.732 0.01122 0.0
H667 H 0.94497 0.71256 0.93913 0.0
H668 H 0.96493 0.72292 0.96257 0.0
H669 H 0.94288 0.68502 0.95603 0.0
H670 H 0.93334 0.66419 0.99133 0.0
H671 H 0.97694 0.66983 0.00821 0.0
H672 H 0.25254 0.98098 0.20901 0.0
H673 H 0.21321 0.93558 0.19465 0.0
H674 H 0.27339 0.93542 0.15084 0.0
H675 H 0.3128 0.97963 0.16569 0.0
H676 H 0.18968 0.92709 0.16011 0.0
H677 H 0.2329 0.85186 0.16452 0.0
H678 H 0.24976 0.88619 0.17786 0.0
H679 H 0.25906 0.88448 0.15192 0.0
C680 C 0.2575 0.97083 0.19663 0.0
C681 C 0.28589 0.98389 0.18859 0.0
C682 C 0.23497 0.94489 0.18838 0.0
C683 C 0.24027 0.9316 0.17181 0.0
C684 C 0.26875 0.94445 0.16402 0.0
H685 H 0.12838 0.84525 0.07298 0.0
H686 H 0.15862 0.87768 0.09974 0.0
C687 C 0.29133 0.97 0.17247 0.0
C688 C 0.21576 0.9062 0.1613 0.0
H689 H 0.19777 0.84199 0.13758 0.0
C690 C 0.19125 0.90822 0.15555 0.0
C691 C 0.21712 0.88104 0.15569 0.0
C692 C 0.241 0.87564 0.16306 0.0
C693 C 0.16919 0.88687 0.14336 0.0
C694 C 0.17219 0.86336 0.13596 0.0
C695 C 0.19566 0.86029 0.14279 0.0
C696 C 0.15253 0.84306 0.1201 0.0
C697 C 0.14296 0.88994 0.13853 0.0
C698 C 0.13969 0.81259 0.12216 0.0
C699 C 0.12281 0.79385 0.10653 0.0
C700 C 0.11832 0.80524 0.08861 0.0
C701 C 0.13098 0.83568 0.08669 0.0
C702 C 0.14815 0.85432 0.10211 0.0
H703 H 0.13825 0.90098 0.15101 0.0
H704 H 0.14761 0.90369 0.12489 0.0
H705 H 0.12319 0.86841 0.13575 0.0
H706 H 0.14292 0.80331 0.13579 0.0
H707 H 0.11347 0.7705 0.10842 0.0
H708 H 0.37092 0.13296 0.26508 0.0
H709 H 0.36998 0.16594 0.29076 0.0
H710 H 0.27764 0.12963 0.28114 0.0
H711 H 0.27841 0.097 0.25532 0.0
H712 H 0.3458 0.20626 0.2794 0.0
H713 H 0.29188 0.1339 0.34516 0.0
H714 H 0.31229 0.12626 0.32667 0.0
H715 H 0.27657 0.12005 0.32066 0.0
C716 C 0.35031 0.13159 0.26873 0.0
C717 C 0.32475 0.11242 0.25814 0.0
C718 C 0.34984 0.15047 0.28337 0.0
C719 C 0.3237 0.15004 0.28792 0.0
C720 C 0.29795 0.13006 0.278 0.0
H721 H 0.26062 0.24648 0.35435 0.0
H722 H 0.26858 0.20947 0.33825 0.0
C723 C 0.29847 0.1115 0.2632 0.0
C724 C 0.32366 0.17238 0.3014 0.0
H725 H 0.2976 0.18131 0.34631 0.0
C726 C 0.33565 0.201 0.29416 0.0
C727 C 0.31001 0.16521 0.32047 0.0
C728 C 0.29705 0.13474 0.32887 0.0
C729 C 0.33343 0.22251 0.30517 0.0
C730 C 0.31972 0.21544 0.32433 0.0
C731 C 0.30825 0.18684 0.33173 0.0
C732 C 0.31553 0.23694 0.33627 0.0
C733 C 0.34448 0.25214 0.29562 0.0
C734 C 0.33934 0.26438 0.34131 0.0
C735 C 0.33481 0.28577 0.35025 0.0
C736 C 0.3064 0.27993 0.35479 0.0
C737 C 0.28278 0.25174 0.35106 0.0
C738 C 0.28731 0.23053 0.34182 0.0
H739 H 0.34686 0.25139 0.27903 0.0
H740 H 0.32957 0.26076 0.29874 0.0
H741 H 0.3663 0.26766 0.30189 0.0
H742 H 0.36142 0.26957 0.3378 0.0
H743 H 0.35351 0.30713 0.35315 0.0
H744 H 0.24901 0.34889 0.44002 0.0
H745 H 0.2161 0.3461 0.46713 0.0
H746 H 0.14191 0.28675 0.43121 0.0
H747 H 0.17442 0.28842 0.40471 0.0
H748 H 0.17707 0.36215 0.46835 0.0
H749 H 0.11899 0.24384 0.48289 0.0
H750 H 0.15158 0.26133 0.46767 0.0
H751 H 0.1163 0.25004 0.45668 0.0
C752 C 0.22568 0.33488 0.4381 0.0
C753 C 0.21436 0.31864 0.42029 0.0
C754 C 0.20688 0.33334 0.45358 0.0
C755 C 0.17644 0.31566 0.45149 0.0
C756 C 0.16524 0.2997 0.43361 0.0
H757 H 0.03903 0.33854 0.49682 0.0
H758 H 0.08325 0.34359 0.48179 0.0
C759 C 0.18394 0.30088 0.41833 0.0
C760 C 0.15609 0.31518 0.46724 0.0
H761 H 0.09274 0.26903 0.49176 0.0
C762 C 0.15893 0.34177 0.47376 0.0
C763 C 0.1328 0.28871 0.47486 0.0
C764 C 0.12998 0.25944 0.47032 0.0
C765 C 0.13817 0.34254 0.48659 0.0
C766 C 0.11324 0.31601 0.49247 0.0
C767 C 0.11144 0.28947 0.487 0.0
C768 C 0.08788 0.31507 0.50305 0.0
C769 C 0.14329 0.37188 0.49362 0.0
C770 C 0.07507 0.29685 0.51985 0.0
C771 C 0.04915 0.2933 0.52821 0.0
C772 C 0.03562 0.30811 0.52005 0.0
C773 C 0.04903 0.3271 0.50369 0.0
C774 C 0.07458 0.33021 0.49514 0.0
H775 H 0.16702 0.38783 0.49485 0.0
H776 H 0.13407 0.38061 0.48239 0.0
H777 H 0.13294 0.37034 0.50845 0.0
H778 H 0.08474 0.28479 0.52622 0.0
H779 H 0.03938 0.27847 0.54078 0.0
H780 H 0.91226 0.17883 0.57967 0.0
H781 H 0.87865 0.14497 0.60476 0.0
H782 H 0.86148 0.21166 0.62667 0.0
H783 H 0.89525 0.24596 0.60146 0.0
H784 H 0.8692 0.1733 0.65777 0.0
H785 H 0.788 0.11355 0.59743 0.0
H786 H 0.82435 0.12037 0.59263 0.0
H787 H 0.81776 0.1505 0.59426 0.0
C788 C 0.9017 0.18653 0.58997 0.0
C789 C 0.90629 0.21508 0.58843 0.0
C790 C 0.88245 0.16709 0.60429 0.0
C791 C 0.86737 0.17572 0.61739 0.0
C792 C 0.87291 0.20459 0.61664 0.0
H793 H 0.70777 0.04703 0.67695 0.0
H794 H 0.74503 0.09175 0.66079 0.0
C795 C 0.89219 0.22414 0.60223 0.0
C796 C 0.84442 0.15385 0.63081 0.0
H797 H 0.77814 0.09125 0.62956 0.0
C798 C 0.84916 0.15546 0.65169 0.0
C799 C 0.81818 0.13083 0.62282 0.0
C800 C 0.81151 0.12868 0.60058 0.0
C801 C 0.82863 0.13401 0.66474 0.0
C802 C 0.80291 0.11032 0.65663 0.0
C803 C 0.79788 0.10932 0.6358 0.0
C804 C 0.78118 0.08568 0.66916 0.0
C805 C 0.83461 0.13695 0.68708 0.0
C806 C 0.78912 0.06764 0.67964 0.0
C807 C 0.76783 0.04201 0.68898 0.0
C808 C 0.7381 0.03376 0.68784 0.0
C809 C 0.73041 0.0526 0.67811 0.0
C810 C 0.7517 0.07821 0.66883 0.0
H811 H 0.85034 0.1599 0.69134 0.0
H812 H 0.81416 0.12939 0.69581 0.0
H813 H 0.84425 0.1233 0.69139 0.0
H814 H 0.81162 0.07259 0.67979 0.0
H815 H 0.77457 0.028 0.69625 0.0
H816 H 0.2105 0.33335 0.32568 0.0
H817 H 0.18915 0.34128 0.29556 0.0
H818 H 0.27238 0.41574 0.28004 0.0
H819 H 0.2943 0.40739 0.31 0.0
H820 H 0.18308 0.38618 0.28277 0.0
H821 H 0.25289 0.36726 0.22933 0.0
H822 H 0.25172 0.35963 0.25589 0.0
H823 H 0.27241 0.39657 0.24688 0.0
C824 C 0.22434 0.35152 0.31595 0.0
C825 C 0.25422 0.36956 0.32018 0.0
C826 C 0.21205 0.35605 0.29871 0.0
C827 C 0.22925 0.37878 0.28534 0.0
C828 C 0.25884 0.39761 0.28989 0.0
H829 H 0.13624 0.40948 0.18647 0.0
H830 H 0.16812 0.41842 0.21555 0.0
C831 C 0.27129 0.39292 0.30708 0.0
C832 C 0.21596 0.38195 0.2665 0.0
H833 H 0.21817 0.3775 0.21527 0.0
C834 C 0.19088 0.38454 0.26799 0.0
C835 C 0.22606 0.37954 0.24724 0.0
C836 C 0.25208 0.37534 0.24464 0.0
C837 C 0.17501 0.3838 0.25083 0.0
C838 C 0.18502 0.38124 0.23157 0.0
C839 C 0.21066 0.37963 0.23004 0.0
C840 C 0.16779 0.37743 0.21301 0.0
C841 C 0.14688 0.38421 0.25361 0.0
C842 C 0.15811 0.35207 0.20138 0.0
C843 C 0.14034 0.34713 0.18459 0.0
C844 C 0.13172 0.3674 0.17912 0.0
C845 C 0.14221 0.39327 0.19041 0.0
C846 C 0.16029 0.39834 0.20711 0.0
H847 H 0.1389 0.37927 0.26939 0.0
H848 H 0.15059 0.40625 0.24983 0.0
H849 H 0.12953 0.36811 0.24353 0.0
H850 H 0.16369 0.33566 0.2056 0.0
H851 H 0.13273 0.327 0.17624 0.0
H852 H 0.89044 0.20491 0.4927 0.0
H853 H 0.86059 0.18169 0.46298 0.0
H854 H 0.85681 0.25976 0.45039 0.0
H855 H 0.88739 0.28354 0.47986 0.0
H856 H 0.80608 0.16933 0.45186 0.0
H857 H 0.8886 0.24752 0.39801 0.0
H858 H 0.89675 0.24616 0.42423 0.0
H859 H 0.87691 0.26402 0.41671 0.0
C860 C 0.88318 0.21716 0.48369 0.0
C861 C 0.89159 0.24622 0.48856 0.0
C862 C 0.86607 0.20382 0.46671 0.0
C863 C 0.85693 0.21917 0.45425 0.0
C864 C 0.86422 0.24775 0.45951 0.0
H865 H 0.73126 0.12589 0.35677 0.0
H866 H 0.75435 0.15576 0.38668 0.0
C867 C 0.88156 0.26124 0.47644 0.0
C868 C 0.84042 0.20529 0.43556 0.0
H869 H 0.84413 0.21093 0.38427 0.0
C870 C 0.81427 0.17849 0.43707 0.0
C871 C 0.85135 0.21717 0.41628 0.0
C872 C 0.88006 0.24515 0.4136 0.0
C873 C 0.79902 0.16293 0.41984 0.0
C874 C 0.80989 0.17488 0.40057 0.0
C875 C 0.83573 0.20196 0.39907 0.0
C876 C 0.79615 0.15857 0.38178 0.0
C877 C 0.77214 0.13329 0.42244 0.0
C878 C 0.81231 0.15128 0.36866 0.0
C879 C 0.79935 0.13459 0.35145 0.0
C880 C 0.76986 0.12475 0.34701 0.0
C881 C 0.75394 0.13287 0.35984 0.0
C882 C 0.76703 0.14979 0.37701 0.0
H883 H 0.7707 0.12445 0.43785 0.0
H884 H 0.75241 0.13516 0.4199 0.0
H885 H 0.77191 0.11742 0.41138 0.0
H886 H 0.83485 0.15793 0.37199 0.0
H887 H 0.8123 0.12882 0.3419 0.0
H888 H 0.61397 0.89054 0.64515 0.0
H889 H 0.60539 0.85948 0.61564 0.0
H890 H 0.68231 0.85447 0.62996 0.0
H891 H 0.69066 0.88479 0.65963 0.0
H892 H 0.63988 0.87078 0.58324 0.0
H893 H 0.62386 0.76981 0.61963 0.0
H894 H 0.623 0.79867 0.6336 0.0
H895 H 0.65733 0.80103 0.62757 0.0
C896 C 0.62884 0.8825 0.64217 0.0
C897 C 0.65297 0.8901 0.65481 0.0
C898 C 0.62391 0.86477 0.62528 0.0
C899 C 0.64293 0.85425 0.62076 0.0
C900 C 0.66689 0.86166 0.63343 0.0
H901 H 0.68986 0.81074 0.50861 0.0
H902 H 0.6824 0.83386 0.53801 0.0
C903 C 0.67175 0.87921 0.65034 0.0
C904 C 0.63904 0.8372 0.60211 0.0
H905 H 0.63706 0.77559 0.5845 0.0
C906 C 0.63882 0.84975 0.58352 0.0
C907 C 0.63709 0.80952 0.60246 0.0
C908 C 0.635 0.79384 0.62191 0.0
C909 C 0.63823 0.83607 0.56526 0.0
C910 C 0.63856 0.80947 0.56562 0.0
C911 C 0.63724 0.79619 0.58421 0.0
C912 C 0.64186 0.79581 0.54701 0.0
C913 C 0.63739 0.85035 0.54579 0.0
C914 C 0.62184 0.76652 0.54246 0.0
C915 C 0.62626 0.75305 0.52575 0.0
C916 C 0.65084 0.76864 0.51331 0.0
C917 C 0.67058 0.79812 0.51776 0.0
C918 C 0.66623 0.81148 0.53451 0.0
H919 H 0.62728 0.8642 0.54797 0.0
H920 H 0.66003 0.86467 0.54035 0.0
H921 H 0.62501 0.83385 0.53398 0.0
H922 H 0.60297 0.75396 0.55198 0.0
H923 H 0.61064 0.73032 0.52278 0.0
H924 H 0.88671 0.68621 0.67576 0.0
H925 H 0.85716 0.67949 0.70561 0.0
H926 H 0.85615 0.59918 0.71908 0.0
H927 H 0.8865 0.60613 0.68944 0.0
H928 H 0.80351 0.63687 0.71751 0.0
H929 H 0.8883 0.64492 0.77079 0.0
H930 H 0.89567 0.6537 0.74442 0.0
H931 H 0.87661 0.61621 0.75248 0.0
C932 C 0.88011 0.667 0.68497 0.0
C933 C 0.88927 0.64687 0.68031 0.0
C934 C 0.86316 0.66318 0.70204 0.0
C935 C 0.85491 0.63913 0.71479 0.0
C936 C 0.86288 0.61828 0.70972 0.0
H937 H 0.73176 0.6095 0.81357 0.0
H938 H 0.75405 0.60145 0.78374 0.0
C939 C 0.88007 0.6222 0.6927 0.0
C940 C 0.83871 0.63666 0.73362 0.0
H941 H 0.8441 0.63706 0.7849 0.0
C942 C 0.81224 0.63668 0.73226 0.0
C943 C 0.85035 0.63674 0.75284 0.0
C944 C 0.87941 0.63815 0.75533 0.0
C945 C 0.79741 0.6375 0.74957 0.0
C946 C 0.80903 0.63754 0.76879 0.0
C947 C 0.83514 0.6368 0.77015 0.0
C948 C 0.79583 0.64087 0.7876 0.0
C949 C 0.77019 0.63968 0.74707 0.0
C950 C 0.81228 0.66502 0.80014 0.0
C951 C 0.79978 0.66946 0.81732 0.0
C952 C 0.77048 0.64987 0.8223 0.0
C953 C 0.75429 0.62516 0.81006 0.0
C954 C 0.76693 0.62061 0.79293 0.0
H955 H 0.76811 0.64625 0.73154 0.0
H956 H 0.75074 0.61805 0.75015 0.0
H957 H 0.77007 0.65571 0.75782 0.0
H958 H 0.83465 0.68087 0.79636 0.0
H959 H 0.81293 0.68869 0.8264 0.0
H960 H 0.29433 0.8865 0.85755 0.0
H961 H 0.27262 0.85478 0.88689 0.0
H962 H 0.18987 0.8486 0.87363 0.0
H963 H 0.21102 0.87942 0.84412 0.0
H964 H 0.25031 0.86494 0.91963 0.0
H965 H 0.16408 0.76446 0.88383 0.0
H966 H 0.19316 0.79341 0.86951 0.0
H967 H 0.16116 0.79541 0.87619 0.0
C968 C 0.27139 0.87802 0.86072 0.0
C969 C 0.2544 0.88545 0.84843 0.0
C970 C 0.25903 0.8599 0.8775 0.0
C971 C 0.22948 0.84886 0.88228 0.0
C972 C 0.21248 0.8561 0.86994 0.0
H973 H 0.14147 0.8104 0.99426 0.0
H974 H 0.17268 0.83165 0.96493 0.0
C975 C 0.22471 0.87397 0.85312 0.0
C976 C 0.21679 0.83171 0.90097 0.0
H977 H 0.15657 0.77107 0.919 0.0
C978 C 0.23008 0.84415 0.91947 0.0
C979 C 0.19075 0.80427 0.90082 0.0
C980 C 0.17668 0.78849 0.88148 0.0
C981 C 0.21708 0.83078 0.93782 0.0
C982 C 0.18968 0.80469 0.93766 0.0
C983 C 0.17734 0.79133 0.91916 0.0
C984 C 0.17246 0.79202 0.95633 0.0
C985 C 0.23277 0.84494 0.95716 0.0
C986 C 0.16135 0.76244 0.96109 0.0
C987 C 0.14301 0.75003 0.97776 0.0
C988 C 0.13542 0.76699 0.98995 0.0
C989 C 0.14703 0.79673 0.98532 0.0
C990 C 0.16513 0.80902 0.9686 0.0
H991 H 0.25679 0.85755 0.95485 0.0
H992 H 0.22582 0.86048 0.96237 0.0
H993 H 0.22781 0.82851 0.96918 0.0
H994 H 0.16655 0.74885 0.95175 0.0
H995 H 0.13444 0.72705 0.98088 0.0
H996 H 0.3391 0.14325 0.16813 0.0
H997 H 0.3439 0.1729 0.13858 0.0
H998 H 0.40073 0.14649 0.11071 0.0
H999 H 0.39673 0.11743 0.14043 0.0
H1000 H 0.4194 0.20413 0.10409 0.0
H1001 H 0.30143 0.13657 0.08651 0.0
H1002 H 0.30836 0.15255 0.11117 0.0
H1003 H 0.31911 0.12604 0.10524 0.0
C1004 C 0.3528 0.14392 0.15579 0.0
C1005 C 0.36726 0.1277 0.15655 0.0
C1006 C 0.3554 0.16076 0.13886 0.0
C1007 C 0.3721 0.16133 0.12224 0.0
C1008 C 0.38756 0.1462 0.12331 0.0
H1009 H 0.34699 0.20645 0.00151 0.0
H1010 H 0.35213 0.18249 0.03139 0.0
C1011 C 0.38522 0.12958 0.14032 0.0
C1012 C 0.3726 0.1768 0.10348 0.0
H1013 H 0.32846 0.17947 0.06708 0.0
C1014 C 0.39955 0.19873 0.09594 0.0
C1015 C 0.34673 0.16933 0.09267 0.0
C1016 C 0.3173 0.14464 0.09917 0.0
C1017 C 0.40126 0.21368 0.07803 0.0
C1018 C 0.37525 0.20693 0.06765 0.0
C1019 C 0.34838 0.18479 0.0751 0.0
C1020 C 0.37511 0.2222 0.04892 0.0
C1021 C 0.43094 0.23607 0.0702 0.0
C1022 C 0.38668 0.25259 0.04871 0.0
C1023 C 0.38408 0.26643 0.03152 0.0
C1024 C 0.36937 0.25004 0.01436 0.0
C1025 C 0.35834 0.2197 0.0145 0.0
C1026 C 0.36125 0.20596 0.03158 0.0
H1027 H 0.4484 0.23237 0.07628 0.0
H1028 H 0.43167 0.2357 0.0535 0.0
H1029 H 0.43578 0.25814 0.07502 0.0
H1030 H 0.39684 0.26551 0.06205 0.0
H1031 H 0.3926 0.2898 0.03196 0.0
loop_
_geom_bond_atom_site_label_1
_geom_bond_atom_site_label_2
_geom_bond_distance
_geom_bond_site_symmetry_2
_ccdc_geom_bond_type
O0 Cd1 2.223 . S
O0 C8 1.315 . S
Cd1 O0 2.223 . S
Cd1 O4 2.297 . S
Cd1 O5 2.439 . S
Cd1 O11 2.240 . S
Cd2 O3 2.240 . S
Cd2 O10 2.223 . S
Cd2 O12 2.297 . S
Cd2 O13 2.439 . S
O3 Cd2 2.240 . S
O3 C8 1.279 . S
O4 Cd1 2.297 . S
O4 C6 1.247 . S
O5 Cd1 2.439 . S
O5 C6 1.208 . S
C6 O4 1.247 . S
C6 O5 1.208 . S
C7 O12 1.247 . S
C7 O13 1.208 . S
C8 O0 1.315 . S
C8 O3 1.279 . S
C9 O10 1.315 . S
C9 O11 1.279 . S
O10 Cd2 2.223 . S
O10 C9 1.315 . S
O11 Cd1 2.240 . S
O11 C9 1.279 . S
O12 Cd2 2.297 . S
O12 C7 1.247 . S
O13 Cd2 2.439 . S
O13 C7 1.208 . S
O14 Cd15 2.223 . S
O14 C22 1.315 . S
Cd15 O14 2.223 . S
Cd15 O18 2.297 . S
Cd15 O19 2.439 . S
Cd15 O25 2.240 . S
Cd16 O17 2.240 . S
Cd16 O24 2.223 . S
Cd16 O26 2.297 . S
Cd16 O27 2.439 . S
O17 Cd16 2.240 . S
O17 C22 1.279 . S
O18 Cd15 2.297 . S
O18 C20 1.247 . S
O19 Cd15 2.439 . S
O19 C20 1.208 . S
C20 O18 1.247 . S
C20 O19 1.208 . S
C21 O26 1.247 . S
C21 O27 1.208 . S
C22 O14 1.315 . S
C22 O17 1.279 . S
C23 O24 1.315 . S
C23 O25 1.279 . S
O24 Cd16 2.223 . S
O24 C23 1.315 . S
O25 Cd15 2.240 . S
O25 C23 1.279 . S
O26 Cd16 2.297 . S
O26 C21 1.247 . S
O27 Cd16 2.439 . S
O27 C21 1.208 . S
O28 Cd29 2.223 . S
O28 C36 1.315 . S
Cd29 O28 2.223 . S
Cd29 O32 2.297 . S
Cd29 O33 2.439 . S
Cd29 O39 2.240 . S
Cd30 O31 2.240 . S
Cd30 O38 2.223 . S
Cd30 O40 2.297 . S
Cd30 O41 2.439 . S
O31 Cd30 2.240 . S
O31 C36 1.279 . S
O32 Cd29 2.297 . S
O32 C34 1.247 . S
O33 Cd29 2.439 . S
O33 C34 1.208 . S
C34 O32 1.247 . S
C34 O33 1.208 . S
C35 O40 1.247 . S
C35 O41 1.208 . S
C36 O28 1.315 . S
C36 O31 1.279 . S
C37 O38 1.315 . S
C37 O39 1.279 . S
O38 Cd30 2.223 . S
O38 C37 1.315 . S
O39 Cd29 2.240 . S
O39 C37 1.279 . S
O40 Cd30 2.297 . S
O40 C35 1.247 . S
O41 Cd30 2.439 . S
O41 C35 1.208 . S
O42 Cd43 2.223 . S
O42 C50 1.315 . S
Cd43 O42 2.223 . S
Cd43 O46 2.297 . S
Cd43 O47 2.439 . S
Cd43 O53 2.240 . S
Cd44 O45 2.240 . S
Cd44 O52 2.223 . S
Cd44 O54 2.297 . S
Cd44 O55 2.439 . S
O45 Cd44 2.240 . S
O45 C50 1.279 . S
O46 Cd43 2.297 . S
O46 C48 1.247 . S
O47 Cd43 2.439 . S
O47 C48 1.208 . S
C48 O46 1.247 . S
C48 O47 1.208 . S
C49 O54 1.247 . S
C49 O55 1.208 . S
C50 O42 1.315 . S
C50 O45 1.279 . S
C51 O52 1.315 . S
C51 O53 1.279 . S
O52 Cd44 2.223 . S
O52 C51 1.315 . S
O53 Cd43 2.240 . S
O53 C51 1.279 . S
O54 Cd44 2.297 . S
O54 C49 1.247 . S
O55 Cd44 2.439 . S
O55 C49 1.208 . S
O56 Cd57 2.223 . S
O56 C64 1.315 . S
Cd57 O56 2.223 . S
Cd57 O60 2.297 . S
Cd57 O61 2.439 . S
Cd57 O67 2.240 . S
Cd58 O59 2.240 . S
Cd58 O66 2.223 . S
Cd58 O68 2.297 . S
Cd58 O69 2.439 . S
O59 Cd58 2.240 . S
O59 C64 1.279 . S
O60 Cd57 2.297 . S
O60 C62 1.247 . S
O61 Cd57 2.439 . S
O61 C62 1.208 . S
C62 O60 1.247 . S
C62 O61 1.208 . S
C63 O68 1.247 . S
C63 O69 1.208 . S
C64 O56 1.315 . S
C64 O59 1.279 . S
C65 O66 1.315 . S
C65 O67 1.279 . S
O66 Cd58 2.223 . S
O66 C65 1.315 . S
O67 Cd57 2.240 . S
O67 C65 1.279 . S
O68 Cd58 2.297 . S
O68 C63 1.247 . S
O69 Cd58 2.439 . S
O69 C63 1.208 . S
O70 Cd71 2.223 . S
O70 C78 1.315 . S
Cd71 O70 2.223 . S
Cd71 O74 2.297 . S
Cd71 O75 2.439 . S
Cd71 O81 2.240 . S
Cd72 O73 2.240 . S
Cd72 O80 2.223 . S
Cd72 O82 2.297 . S
Cd72 O83 2.439 . S
O73 Cd72 2.240 . S
O73 C78 1.279 . S
O74 Cd71 2.297 . S
O74 C76 1.247 . S
O75 Cd71 2.439 . S
O75 C76 1.208 . S
C76 O74 1.247 . S
C76 O75 1.208 . S
C77 O82 1.247 . S
C77 O83 1.208 . S
C78 O70 1.315 . S
C78 O73 1.279 . S
C79 O80 1.315 . S
C79 O81 1.279 . S
O80 Cd72 2.223 . S
O80 C79 1.315 . S
O81 Cd71 2.240 . S
O81 C79 1.279 . S
O82 Cd72 2.297 . S
O82 C77 1.247 . S
O83 Cd72 2.439 . S
O83 C77 1.208 . S
O84 Cd85 2.223 . S
O84 C92 1.315 . S
Cd85 O84 2.223 . S
Cd85 O88 2.297 . S
Cd85 O89 2.439 . S
Cd85 O95 2.240 . S
Cd86 O87 2.240 . S
Cd86 O94 2.223 . S
Cd86 O96 2.297 . S
Cd86 O97 2.439 . S
O87 Cd86 2.240 . S
O87 C92 1.279 . S
O88 Cd85 2.297 . S
O88 C90 1.247 . S
O89 Cd85 2.439 . S
O89 C90 1.208 . S
C90 O88 1.247 . S
C90 O89 1.208 . S
C91 O96 1.247 . S
C91 O97 1.208 . S
C92 O84 1.315 . S
C92 O87 1.279 . S
C93 O94 1.315 . S
C93 O95 1.279 . S
O94 Cd86 2.223 . S
O94 C93 1.315 . S
O95 Cd85 2.240 . S
O95 C93 1.279 . S
O96 Cd86 2.297 . S
O96 C91 1.247 . S
O97 Cd86 2.439 . S
O97 C91 1.208 . S
O98 Cd99 2.223 . S
O98 C106 1.315 . S
Cd99 O98 2.223 . S
Cd99 O102 2.297 . S
Cd99 O103 2.439 . S
Cd99 O109 2.240 . S
Cd100 O101 2.240 . S
Cd100 O108 2.223 . S
Cd100 O110 2.297 . S
Cd100 O111 2.439 . S
O101 Cd100 2.240 . S
O101 C106 1.279 . S
O102 Cd99 2.297 . S
O102 C104 1.247 . S
O103 Cd99 2.439 . S
O103 C104 1.208 . S
C104 O102 1.247 . S
C104 O103 1.208 . S
C105 O110 1.247 . S
C105 O111 1.208 . S
C106 O98 1.315 . S
C106 O101 1.279 . S
C107 O108 1.315 . S
C107 O109 1.279 . S
O108 Cd100 2.223 . S
O108 C107 1.315 . S
O109 Cd99 2.240 . S
O109 C107 1.279 . S
O110 Cd100 2.297 . S
O110 C105 1.247 . S
O111 Cd100 2.439 . S
O111 C105 1.208 . S
O112 Cd113 2.223 . S
O112 C120 1.315 . S
Cd113 O112 2.223 . S
Cd113 O116 2.297 . S
Cd113 O117 2.439 . S
Cd113 O123 2.240 . S
Cd114 O115 2.240 . S
Cd114 O122 2.223 . S
Cd114 O124 2.297 . S
Cd114 O125 2.439 . S
O115 Cd114 2.240 . S
O115 C120 1.279 . S
O116 Cd113 2.297 . S
O116 C118 1.247 . S
O117 Cd113 2.439 . S
O117 C118 1.208 . S
C118 O116 1.247 . S
C118 O117 1.208 . S
C119 O124 1.247 . S
C119 O125 1.208 . S
C120 O112 1.315 . S
C120 O115 1.279 . S
C121 O122 1.315 . S
C121 O123 1.279 . S
O122 Cd114 2.223 . S
O122 C121 1.315 . S
O123 Cd113 2.240 . S
O123 C121 1.279 . S
O124 Cd114 2.297 . S
O124 C119 1.247 . S
O125 Cd114 2.439 . S
O125 C119 1.208 . S
O126 Cd127 2.223 . S
O126 C134 1.315 . S
Cd127 O126 2.223 . S
Cd127 O130 2.297 . S
Cd127 O131 2.439 . S
Cd127 O137 2.240 . S
Cd128 O129 2.240 . S
Cd128 O136 2.223 . S
Cd128 O138 2.297 . S
Cd128 O139 2.439 . S
O129 Cd128 2.240 . S
O129 C134 1.279 . S
O130 Cd127 2.297 . S
O130 C132 1.247 . S
O131 Cd127 2.439 . S
O131 C132 1.208 . S
C132 O130 1.247 . S
C132 O131 1.208 . S
C133 O138 1.247 . S
C133 O139 1.208 . S
C134 O126 1.315 . S
C134 O129 1.279 . S
C135 O136 1.315 . S
C135 O137 1.279 . S
O136 Cd128 2.223 . S
O136 C135 1.315 . S
O137 Cd127 2.240 . S
O137 C135 1.279 . S
O138 Cd128 2.297 . S
O138 C133 1.247 . S
O139 Cd128 2.439 . S
O139 C133 1.208 . S
O140 Cd141 2.223 . S
O140 C148 1.315 . S
Cd141 O140 2.223 . S
Cd141 O144 2.297 . S
Cd141 O145 2.439 . S
Cd141 O151 2.240 . S
Cd142 O143 2.240 . S
Cd142 O150 2.223 . S
Cd142 O152 2.297 . S
Cd142 O153 2.439 . S
O143 Cd142 2.240 . S
O143 C148 1.279 . S
O144 Cd141 2.297 . S
O144 C146 1.247 . S
O145 Cd141 2.439 . S
O145 C146 1.208 . S
C146 O144 1.247 . S
C146 O145 1.208 . S
C147 O152 1.247 . S
C147 O153 1.208 . S
C148 O140 1.315 . S
C148 O143 1.279 . S
C149 O150 1.315 . S
C149 O151 1.279 . S
O150 Cd142 2.223 . S
O150 C149 1.315 . S
O151 Cd141 2.240 . S
O151 C149 1.279 . S
O152 Cd142 2.297 . S
O152 C147 1.247 . S
O153 Cd142 2.439 . S
O153 C147 1.208 . S
O154 Cd155 2.223 . S
O154 C162 1.315 . S
Cd155 O154 2.223 . S
Cd155 O158 2.297 . S
Cd155 O159 2.439 . S
Cd155 O165 2.240 . S
Cd156 O157 2.240 . S
Cd156 O164 2.223 . S
Cd156 O166 2.297 . S
Cd156 O167 2.439 . S
O157 Cd156 2.240 . S
O157 C162 1.279 . S
O158 Cd155 2.297 . S
O158 C160 1.247 . S
O159 Cd155 2.439 . S
O159 C160 1.208 . S
C160 O158 1.247 . S
C160 O159 1.208 . S
C161 O166 1.247 . S
C161 O167 1.208 . S
C162 O154 1.315 . S
C162 O157 1.279 . S
C163 O164 1.315 . S
C163 O165 1.279 . S
O164 Cd156 2.223 . S
O164 C163 1.315 . S
O165 Cd155 2.240 . S
O165 C163 1.279 . S
O166 Cd156 2.297 . S
O166 C161 1.247 . S
O167 Cd156 2.439 . S
O167 C161 1.208 . S
H168 C176 0.929 . S
H169 C178 0.930 . S
H170 C180 0.930 . S
H171 C183 0.929 . S
H172 C186 0.930 . S
H173 C188 0.960 . S
H174 C188 0.960 . S
H175 C188 0.960 . S
C176 H168 0.929 . S
C176 C177 1.377 . S
C176 C178 1.384 . S
C177 C176 1.377 . S
C177 C183 1.390 . S
C178 H169 0.930 . S
C178 C176 1.384 . S
C178 C179 1.372 . S
C179 C178 1.372 . S
C179 C180 1.400 . S
C179 C184 1.490 . S
C180 H170 0.930 . S
C180 C179 1.400 . S
C180 C183 1.386 . S
H181 C197 0.930 . S
H182 C198 0.931 . S
C183 H171 0.929 . S
C183 C177 1.390 . S
C183 C180 1.386 . S
C184 C179 1.490 . S
C184 C186 1.395 . S
C184 C187 1.403 . S
H185 C191 0.930 . S
C186 H172 0.930 . S
C186 C184 1.395 . S
C186 C189 1.403 . S
C187 C184 1.403 . S
C187 C188 1.524 . S
C187 C191 1.400 . S
C188 H173 0.960 . S
C188 H174 0.960 . S
C188 H175 0.960 . S
C188 C187 1.524 . S
C189 C186 1.403 . S
C189 C190 1.392 . S
C189 C193 1.495 . S
C190 C189 1.392 . S
C190 C191 1.385 . S
C190 C192 1.478 . S
C191 H185 0.930 . S
C191 C187 1.400 . S
C191 C190 1.385 . S
C192 C190 1.478 . S
C192 C194 1.381 . S
C192 C198 1.383 . S
C193 C189 1.495 . S
C193 H199 0.959 . S
C193 H200 0.961 . S
C193 H201 0.960 . S
C194 C192 1.381 . S
C194 C195 1.394 . S
C194 H202 0.930 . S
C195 C194 1.394 . S
C195 C196 1.383 . S
C195 H203 0.929 . S
C196 C195 1.383 . S
C196 C197 1.377 . S
C197 H181 0.930 . S
C197 C196 1.377 . S
C197 C198 1.379 . S
C198 H182 0.931 . S
C198 C192 1.383 . S
C198 C197 1.379 . S
H199 C193 0.959 . S
H200 C193 0.961 . S
H201 C193 0.960 . S
H202 C194 0.930 . S
H203 C195 0.929 . S
H204 C212 0.929 . S
H205 C214 0.930 . S
H206 C216 0.930 . S
H207 C219 0.929 . S
H208 C222 0.930 . S
H209 C224 0.960 . S
H210 C224 0.960 . S
H211 C224 0.960 . S
C212 H204 0.929 . S
C212 C213 1.377 . S
C212 C214 1.384 . S
C213 C212 1.377 . S
C213 C219 1.390 . S
C214 H205 0.930 . S
C214 C212 1.384 . S
C214 C215 1.372 . S
C215 C214 1.372 . S
C215 C216 1.400 . S
C215 C220 1.490 . S
C216 H206 0.930 . S
C216 C215 1.400 . S
C216 C219 1.386 . S
H217 C233 0.930 . S
H218 C234 0.931 . S
C219 H207 0.929 . S
C219 C213 1.390 . S
C219 C216 1.386 . S
C220 C215 1.490 . S
C220 C222 1.395 . S
C220 C223 1.403 . S
H221 C227 0.930 . S
C222 H208 0.930 . S
C222 C220 1.395 . S
C222 C225 1.403 . S
C223 C220 1.403 . S
C223 C224 1.524 . S
C223 C227 1.400 . S
C224 H209 0.960 . S
C224 H210 0.960 . S
C224 H211 0.960 . S
C224 C223 1.524 . S
C225 C222 1.403 . S
C225 C226 1.392 . S
C225 C229 1.495 . S
C226 C225 1.392 . S
C226 C227 1.385 . S
C226 C228 1.478 . S
C227 H221 0.930 . S
C227 C223 1.400 . S
C227 C226 1.385 . S
C228 C226 1.478 . S
C228 C230 1.381 . S
C228 C234 1.383 . S
C229 C225 1.495 . S
C229 H235 0.959 . S
C229 H236 0.961 . S
C229 H237 0.960 . S
C230 C228 1.381 . S
C230 C231 1.394 . S
C230 H238 0.930 . S
C231 C230 1.394 . S
C231 C232 1.383 . S
C231 H239 0.929 . S
C232 C231 1.383 . S
C232 C233 1.377 . S
C233 H217 0.930 . S
C233 C232 1.377 . S
C233 C234 1.379 . S
C234 H218 0.931 . S
C234 C228 1.383 . S
C234 C233 1.379 . S
H235 C229 0.959 . S
H236 C229 0.961 . S
H237 C229 0.960 . S
H238 C230 0.930 . S
H239 C231 0.929 . S
H240 C248 0.929 . S
H241 C250 0.930 . S
H242 C252 0.930 . S
H243 C255 0.929 . S
H244 C258 0.930 . S
H245 C260 0.960 . S
H246 C260 0.960 . S
H247 C260 0.960 . S
C248 H240 0.929 . S
C248 C249 1.377 . S
C248 C250 1.384 . S
C249 C248 1.377 . S
C249 C255 1.390 . S
C250 H241 0.930 . S
C250 C248 1.384 . S
C250 C251 1.372 . S
C251 C250 1.372 . S
C251 C252 1.400 . S
C251 C256 1.490 . S
C252 H242 0.930 . S
C252 C251 1.400 . S
C252 C255 1.386 . S
H253 C269 0.930 . S
H254 C270 0.931 . S
C255 H243 0.929 . S
C255 C249 1.390 . S
C255 C252 1.386 . S
C256 C251 1.490 . S
C256 C258 1.395 . S
C256 C259 1.403 . S
H257 C263 0.930 . S
C258 H244 0.930 . S
C258 C256 1.395 . S
C258 C261 1.403 . S
C259 C256 1.403 . S
C259 C260 1.524 . S
C259 C263 1.400 . S
C260 H245 0.960 . S
C260 H246 0.960 . S
C260 H247 0.960 . S
C260 C259 1.524 . S
C261 C258 1.403 . S
C261 C262 1.392 . S
C261 C265 1.495 . S
C262 C261 1.392 . S
C262 C263 1.385 . S
C262 C264 1.478 . S
C263 H257 0.930 . S
C263 C259 1.400 . S
C263 C262 1.385 . S
C264 C262 1.478 . S
C264 C266 1.381 . S
C264 C270 1.383 . S
C265 C261 1.495 . S
C265 H271 0.959 . S
C265 H272 0.961 . S
C265 H273 0.960 . S
C266 C264 1.381 . S
C266 C267 1.394 . S
C266 H274 0.930 . S
C267 C266 1.394 . S
C267 C268 1.383 . S
C267 H275 0.929 . S
C268 C267 1.383 . S
C268 C269 1.377 . S
C269 H253 0.930 . S
C269 C268 1.377 . S
C269 C270 1.379 . S
C270 H254 0.931 . S
C270 C264 1.383 . S
C270 C269 1.379 . S
H271 C265 0.959 . S
H272 C265 0.961 . S
H273 C265 0.960 . S
H274 C266 0.930 . S
H275 C267 0.929 . S
H276 C284 0.929 . S
H277 C286 0.930 . S
H278 C288 0.930 . S
H279 C291 0.929 . S
H280 C294 0.930 . S
H281 C296 0.960 . S
H282 C296 0.960 . S
H283 C296 0.960 . S
C284 H276 0.929 . S
C284 C285 1.377 . S
C284 C286 1.384 . S
C285 C284 1.377 . S
C285 C291 1.390 . S
C286 H277 0.930 . S
C286 C284 1.384 . S
C286 C287 1.372 . S
C287 C286 1.372 . S
C287 C288 1.400 . S
C287 C292 1.490 . S
C288 H278 0.930 . S
C288 C287 1.400 . S
C288 C291 1.386 . S
H289 C305 0.930 . S
H290 C306 0.931 . S
C291 H279 0.929 . S
C291 C285 1.390 . S
C291 C288 1.386 . S
C292 C287 1.490 . S
C292 C294 1.395 . S
C292 C295 1.403 . S
H293 C299 0.930 . S
C294 H280 0.930 . S
C294 C292 1.395 . S
C294 C297 1.403 . S
C295 C292 1.403 . S
C295 C296 1.524 . S
C295 C299 1.400 . S
C296 H281 0.960 . S
C296 H282 0.960 . S
C296 H283 0.960 . S
C296 C295 1.524 . S
C297 C294 1.403 . S
C297 C298 1.392 . S
C297 C301 1.495 . S
C298 C297 1.392 . S
C298 C299 1.385 . S
C298 C300 1.478 . S
C299 H293 0.930 . S
C299 C295 1.400 . S
C299 C298 1.385 . S
C300 C298 1.478 . S
C300 C302 1.381 . S
C300 C306 1.383 . S
C301 C297 1.495 . S
C301 H307 0.959 . S
C301 H308 0.961 . S
C301 H309 0.960 . S
C302 C300 1.381 . S
C302 C303 1.394 . S
C302 H310 0.930 . S
C303 C302 1.394 . S
C303 C304 1.383 . S
C303 H311 0.929 . S
C304 C303 1.383 . S
C304 C305 1.377 . S
C305 H289 0.930 . S
C305 C304 1.377 . S
C305 C306 1.379 . S
C306 H290 0.931 . S
C306 C300 1.383 . S
C306 C305 1.379 . S
H307 C301 0.959 . S
H308 C301 0.961 . S
H309 C301 0.960 . S
H310 C302 0.930 . S
H311 C303 0.929 . S
H312 C320 0.929 . S
H313 C322 0.930 . S
H314 C324 0.930 . S
H315 C327 0.929 . S
H316 C330 0.930 . S
H317 C332 0.960 . S
H318 C332 0.960 . S
H319 C332 0.960 . S
C320 H312 0.929 . S
C320 C321 1.377 . S
C320 C322 1.384 . S
C321 C320 1.377 . S
C321 C327 1.390 . S
C322 H313 0.930 . S
C322 C320 1.384 . S
C322 C323 1.372 . S
C323 C322 1.372 . S
C323 C324 1.400 . S
C323 C328 1.490 . S
C324 H314 0.930 . S
C324 C323 1.400 . S
C324 C327 1.386 . S
H325 C341 0.930 . S
H326 C342 0.931 . S
C327 H315 0.929 . S
C327 C321 1.390 . S
C327 C324 1.386 . S
C328 C323 1.490 . S
C328 C330 1.395 . S
C328 C331 1.403 . S
H329 C335 0.930 . S
C330 H316 0.930 . S
C330 C328 1.395 . S
C330 C333 1.403 . S
C331 C328 1.403 . S
C331 C332 1.524 . S
C331 C335 1.400 . S
C332 H317 0.960 . S
C332 H318 0.960 . S
C332 H319 0.960 . S
C332 C331 1.524 . S
C333 C330 1.403 . S
C333 C334 1.392 . S
C333 C337 1.495 . S
C334 C333 1.392 . S
C334 C335 1.385 . S
C334 C336 1.478 . S
C335 H329 0.930 . S
C335 C331 1.400 . S
C335 C334 1.385 . S
C336 C334 1.478 . S
C336 C338 1.381 . S
C336 C342 1.383 . S
C337 C333 1.495 . S
C337 H343 0.959 . S
C337 H344 0.961 . S
C337 H345 0.960 . S
C338 C336 1.381 . S
C338 C339 1.394 . S
C338 H346 0.930 . S
C339 C338 1.394 . S
C339 C340 1.383 . S
C339 H347 0.929 . S
C340 C339 1.383 . S
C340 C341 1.377 . S
C341 H325 0.930 . S
C341 C340 1.377 . S
C341 C342 1.379 . S
C342 H326 0.931 . S
C342 C336 1.383 . S
C342 C341 1.379 . S
H343 C337 0.959 . S
H344 C337 0.961 . S
H345 C337 0.960 . S
H346 C338 0.930 . S
H347 C339 0.929 . S
H348 C356 0.929 . S
H349 C358 0.930 . S
H350 C360 0.930 . S
H351 C363 0.929 . S
H352 C366 0.930 . S
H353 C368 0.960 . S
H354 C368 0.960 . S
H355 C368 0.960 . S
C356 H348 0.929 . S
C356 C357 1.377 . S
C356 C358 1.384 . S
C357 C356 1.377 . S
C357 C363 1.390 . S
C358 H349 0.930 . S
C358 C356 1.384 . S
C358 C359 1.372 . S
C359 C358 1.372 . S
C359 C360 1.400 . S
C359 C364 1.490 . S
C360 H350 0.930 . S
C360 C359 1.400 . S
C360 C363 1.386 . S
H361 C377 0.930 . S
H362 C378 0.931 . S
C363 H351 0.929 . S
C363 C357 1.390 . S
C363 C360 1.386 . S
C364 C359 1.490 . S
C364 C366 1.395 . S
C364 C367 1.403 . S
H365 C371 0.930 . S
C366 H352 0.930 . S
C366 C364 1.395 . S
C366 C369 1.403 . S
C367 C364 1.403 . S
C367 C368 1.524 . S
C367 C371 1.400 . S
C368 H353 0.960 . S
C368 H354 0.960 . S
C368 H355 0.960 . S
C368 C367 1.524 . S
C369 C366 1.403 . S
C369 C370 1.392 . S
C369 C373 1.495 . S
C370 C369 1.392 . S
C370 C371 1.385 . S
C370 C372 1.478 . S
C371 H365 0.930 . S
C371 C367 1.400 . S
C371 C370 1.385 . S
C372 C370 1.478 . S
C372 C374 1.381 . S
C372 C378 1.383 . S
C373 C369 1.495 . S
C373 H379 0.959 . S
C373 H380 0.961 . S
C373 H381 0.960 . S
C374 C372 1.381 . S
C374 C375 1.394 . S
C374 H382 0.930 . S
C375 C374 1.394 . S
C375 C376 1.383 . S
C375 H383 0.929 . S
C376 C375 1.383 . S
C376 C377 1.377 . S
C377 H361 0.930 . S
C377 C376 1.377 . S
C377 C378 1.379 . S
C378 H362 0.931 . S
C378 C372 1.383 . S
C378 C377 1.379 . S
H379 C373 0.959 . S
H380 C373 0.961 . S
H381 C373 0.960 . S
H382 C374 0.930 . S
H383 C375 0.929 . S
H384 C392 0.929 . S
H385 C394 0.930 . S
H386 C396 0.930 . S
H387 C399 0.929 . S
H388 C402 0.930 . S
H389 C404 0.960 . S
H390 C404 0.960 . S
H391 C404 0.960 . S
C392 H384 0.929 . S
C392 C393 1.377 . S
C392 C394 1.384 . S
C393 C392 1.377 . S
C393 C399 1.390 . S
C394 H385 0.930 . S
C394 C392 1.384 . S
C394 C395 1.372 . S
C395 C394 1.372 . S
C395 C396 1.400 . S
C395 C400 1.490 . S
C396 H386 0.930 . S
C396 C395 1.400 . S
C396 C399 1.386 . S
H397 C413 0.930 . S
H398 C414 0.931 . S
C399 H387 0.929 . S
C399 C393 1.390 . S
C399 C396 1.386 . S
C400 C395 1.490 . S
C400 C402 1.395 . S
C400 C403 1.403 . S
H401 C407 0.930 . S
C402 H388 0.930 . S
C402 C400 1.395 . S
C402 C405 1.403 . S
C403 C400 1.403 . S
C403 C404 1.524 . S
C403 C407 1.400 . S
C404 H389 0.960 . S
C404 H390 0.960 . S
C404 H391 0.960 . S
C404 C403 1.524 . S
C405 C402 1.403 . S
C405 C406 1.392 . S
C405 C409 1.495 1_554 S
C406 C405 1.392 . S
C406 C407 1.385 . S
C406 C408 1.478 . S
C407 H401 0.930 . S
C407 C403 1.400 . S
C407 C406 1.385 . S
C408 C406 1.478 . S
C408 C410 1.381 . S
C408 C414 1.383 . S
C409 C405 1.495 1_556 S
C409 H415 0.959 . S
C409 H416 0.961 . S
C409 H417 0.960 . S
C410 C408 1.381 . S
C410 C411 1.394 1_554 S
C410 H418 0.930 . S
C411 C410 1.394 1_556 S
C411 C412 1.383 . S
C411 H419 0.929 . S
C412 C411 1.383 . S
C412 C413 1.377 . S
C413 H397 0.930 . S
C413 C412 1.377 . S
C413 C414 1.379 1_556 S
C414 H398 0.931 . S
C414 C408 1.383 . S
C414 C413 1.379 1_554 S
H415 C409 0.959 . S
H416 C409 0.961 . S
H417 C409 0.960 . S
H418 C410 0.930 . S
H419 C411 0.929 . S
H420 C428 0.929 . S
H421 C430 0.930 . S
H422 C432 0.930 . S
H423 C435 0.929 . S
H424 C438 0.930 . S
H425 C440 0.960 . S
H426 C440 0.960 . S
H427 C440 0.960 . S
C428 H420 0.929 . S
C428 C429 1.377 . S
C428 C430 1.384 . S
C429 C428 1.377 . S
C429 C435 1.390 . S
C430 H421 0.930 . S
C430 C428 1.384 . S
C430 C431 1.372 . S
C431 C430 1.372 . S
C431 C432 1.400 . S
C431 C436 1.490 . S
C432 H422 0.930 . S
C432 C431 1.400 . S
C432 C435 1.386 . S
H433 C449 0.930 . S
H434 C450 0.931 . S
C435 H423 0.929 . S
C435 C429 1.390 . S
C435 C432 1.386 . S
C436 C431 1.490 . S
C436 C438 1.395 . S
C436 C439 1.403 . S
H437 C443 0.930 . S
C438 H424 0.930 . S
C438 C436 1.395 . S
C438 C441 1.403 . S
C439 C436 1.403 . S
C439 C440 1.524 . S
C439 C443 1.400 . S
C440 H425 0.960 . S
C440 H426 0.960 . S
C440 H427 0.960 . S
C440 C439 1.524 . S
C441 C438 1.403 . S
C441 C442 1.392 . S
C441 C445 1.495 . S
C442 C441 1.392 . S
C442 C443 1.385 . S
C442 C444 1.478 . S
C443 H437 0.930 . S
C443 C439 1.400 . S
C443 C442 1.385 . S
C444 C442 1.478 . S
C444 C446 1.381 . S
C444 C450 1.383 . S
C445 C441 1.495 . S
C445 H451 0.959 . S
C445 H452 0.961 . S
C445 H453 0.960 . S
C446 C444 1.381 . S
C446 C447 1.394 1_655 S
C446 H454 0.930 . S
C447 C446 1.394 1_455 S
C447 C448 1.383 . S
C447 H455 0.929 . S
C448 C447 1.383 . S
C448 C449 1.377 1_455 S
C449 H433 0.930 . S
C449 C448 1.377 1_655 S
C449 C450 1.379 . S
C450 H434 0.931 . S
C450 C444 1.383 . S
C450 C449 1.379 . S
H451 C445 0.959 . S
H452 C445 0.961 . S
H453 C445 0.960 . S
H454 C446 0.930 . S
H455 C447 0.929 . S
H456 C464 0.929 . S
H457 C466 0.930 . S
H458 C468 0.930 . S
H459 C471 0.929 . S
H460 C474 0.930 . S
H461 C476 0.960 . S
H462 C476 0.960 . S
H463 C476 0.960 . S
C464 H456 0.929 . S
C464 C465 1.377 . S
C464 C466 1.384 . S
C465 C464 1.377 . S
C465 C471 1.390 . S
C466 H457 0.930 . S
C466 C464 1.384 . S
C466 C467 1.372 . S
C467 C466 1.372 . S
C467 C468 1.400 . S
C467 C472 1.490 . S
C468 H458 0.930 . S
C468 C467 1.400 . S
C468 C471 1.386 . S
H469 C485 0.930 . S
H470 C486 0.931 . S
C471 H459 0.929 . S
C471 C465 1.390 . S
C471 C468 1.386 . S
C472 C467 1.490 . S
C472 C474 1.395 . S
C472 C475 1.403 . S
H473 C479 0.930 . S
C474 H460 0.930 . S
C474 C472 1.395 . S
C474 C477 1.403 . S
C475 C472 1.403 . S
C475 C476 1.524 . S
C475 C479 1.400 . S
C476 H461 0.960 . S
C476 H462 0.960 . S
C476 H463 0.960 . S
C476 C475 1.524 . S
C477 C474 1.403 . S
C477 C478 1.392 . S
C477 C481 1.495 . S
C478 C477 1.392 . S
C478 C479 1.385 . S
C478 C480 1.478 . S
C479 H473 0.930 . S
C479 C475 1.400 . S
C479 C478 1.385 . S
C480 C478 1.478 . S
C480 C482 1.381 . S
C480 C486 1.383 . S
C481 C477 1.495 . S
C481 H487 0.959 . S
C481 H488 0.961 . S
C481 H489 0.960 . S
C482 C480 1.381 . S
C482 C483 1.394 . S
C482 H490 0.930 . S
C483 C482 1.394 . S
C483 C484 1.383 1_565 S
C483 H491 0.929 . S
C484 C483 1.383 1_545 S
C484 C485 1.377 . S
C485 H469 0.930 . S
C485 C484 1.377 . S
C485 C486 1.379 1_545 S
C486 H470 0.931 . S
C486 C480 1.383 . S
C486 C485 1.379 1_565 S
H487 C481 0.959 . S
H488 C481 0.961 . S
H489 C481 0.960 . S
H490 C482 0.930 . S
H491 C483 0.929 . S
H492 C500 0.929 . S
H493 C502 0.930 . S
H494 C504 0.930 . S
H495 C507 0.929 . S
H496 C510 0.930 . S
H497 C512 0.960 . S
H498 C512 0.960 . S
H499 C512 0.960 . S
C500 H492 0.929 . S
C500 C501 1.377 . S
C500 C502 1.384 . S
C501 C500 1.377 . S
C501 C507 1.390 . S
C502 H493 0.930 . S
C502 C500 1.384 . S
C502 C503 1.372 . S
C503 C502 1.372 . S
C503 C504 1.400 . S
C503 C508 1.490 . S
C504 H494 0.930 . S
C504 C503 1.400 . S
C504 C507 1.386 . S
H505 C521 0.930 . S
H506 C522 0.931 . S
C507 H495 0.929 . S
C507 C501 1.390 . S
C507 C504 1.386 . S
C508 C503 1.490 . S
C508 C510 1.395 . S
C508 C511 1.403 . S
H509 C515 0.930 . S
C510 H496 0.930 . S
C510 C508 1.395 . S
C510 C513 1.403 . S
C511 C508 1.403 . S
C511 C512 1.524 . S
C511 C515 1.400 . S
C512 H497 0.960 . S
C512 H498 0.960 . S
C512 H499 0.960 . S
C512 C511 1.524 . S
C513 C510 1.403 . S
C513 C514 1.392 . S
C513 C517 1.495 . S
C514 C513 1.392 . S
C514 C515 1.385 . S
C514 C516 1.478 . S
C515 H509 0.930 . S
C515 C511 1.400 . S
C515 C514 1.385 . S
C516 C514 1.478 . S
C516 C518 1.381 . S
C516 C522 1.383 . S
C517 C513 1.495 . S
C517 H523 0.959 . S
C517 H524 0.961 . S
C517 H525 0.960 . S
C518 C516 1.381 . S
C518 C519 1.394 . S
C518 H526 0.930 . S
C519 C518 1.394 . S
C519 C520 1.383 . S
C519 H527 0.929 . S
C520 C519 1.383 . S
C520 C521 1.377 . S
C521 H505 0.930 . S
C521 C520 1.377 . S
C521 C522 1.379 . S
C522 H506 0.931 . S
C522 C516 1.383 . S
C522 C521 1.379 . S
H523 C517 0.959 . S
H524 C517 0.961 . S
H525 C517 0.960 . S
H526 C518 0.930 . S
H527 C519 0.929 . S
H528 C536 0.929 . S
H529 C538 0.930 . S
H530 C540 0.930 . S
H531 C543 0.929 . S
H532 C546 0.930 . S
H533 C548 0.960 . S
H534 C548 0.960 . S
H535 C548 0.960 . S
C536 H528 0.929 . S
C536 C537 1.377 . S
C536 C538 1.384 1_655 S
C537 C536 1.377 . S
C537 C543 1.390 1_655 S
C538 H529 0.930 . S
C538 C536 1.384 1_455 S
C538 C539 1.372 . S
C539 C538 1.372 . S
C539 C540 1.400 . S
C539 C544 1.490 . S
C540 H530 0.930 . S
C540 C539 1.400 . S
C540 C543 1.386 . S
H541 C557 0.930 . S
H542 C558 0.931 . S
C543 H531 0.929 . S
C543 C537 1.390 1_455 S
C543 C540 1.386 . S
C544 C539 1.490 . S
C544 C546 1.395 . S
C544 C547 1.403 . S
H545 C551 0.930 . S
C546 H532 0.930 . S
C546 C544 1.395 . S
C546 C549 1.403 . S
C547 C544 1.403 . S
C547 C548 1.524 . S
C547 C551 1.400 . S
C548 H533 0.960 . S
C548 H534 0.960 . S
C548 H535 0.960 . S
C548 C547 1.524 . S
C549 C546 1.403 . S
C549 C550 1.392 . S
C549 C553 1.495 . S
C550 C549 1.392 . S
C550 C551 1.385 . S
C550 C552 1.478 . S
C551 H545 0.930 . S
C551 C547 1.400 . S
C551 C550 1.385 . S
C552 C550 1.478 . S
C552 C554 1.381 . S
C552 C558 1.383 . S
C553 C549 1.495 . S
C553 H559 0.959 . S
C553 H560 0.961 . S
C553 H561 0.960 . S
C554 C552 1.381 . S
C554 C555 1.394 . S
C554 H562 0.930 . S
C555 C554 1.394 . S
C555 C556 1.383 . S
C555 H563 0.929 . S
C556 C555 1.383 . S
C556 C557 1.377 . S
C557 H541 0.930 . S
C557 C556 1.377 . S
C557 C558 1.379 . S
C558 H542 0.931 . S
C558 C552 1.383 . S
C558 C557 1.379 . S
H559 C553 0.959 . S
H560 C553 0.961 . S
H561 C553 0.960 . S
H562 C554 0.930 . S
H563 C555 0.929 . S
H564 C572 0.929 . S
H565 C574 0.930 . S
H566 C576 0.930 . S
H567 C579 0.929 . S
H568 C582 0.930 . S
H569 C584 0.960 . S
H570 C584 0.960 . S
H571 C584 0.960 . S
C572 H564 0.929 . S
C572 C573 1.377 . S
C572 C574 1.384 1_565 S
C573 C572 1.377 . S
C573 C579 1.390 1_565 S
C574 H565 0.930 . S
C574 C572 1.384 1_545 S
C574 C575 1.372 . S
C575 C574 1.372 . S
C575 C576 1.400 . S
C575 C580 1.490 . S
C576 H566 0.930 . S
C576 C575 1.400 . S
C576 C579 1.386 . S
H577 C593 0.930 . S
H578 C594 0.931 . S
C579 H567 0.929 . S
C579 C573 1.390 1_545 S
C579 C576 1.386 . S
C580 C575 1.490 . S
C580 C582 1.395 . S
C580 C583 1.403 . S
H581 C587 0.930 . S
C582 H568 0.930 . S
C582 C580 1.395 . S
C582 C585 1.403 . S
C583 C580 1.403 . S
C583 C584 1.524 . S
C583 C587 1.400 . S
C584 H569 0.960 . S
C584 H570 0.960 . S
C584 H571 0.960 . S
C584 C583 1.524 . S
C585 C582 1.403 . S
C585 C586 1.392 . S
C585 C589 1.495 . S
C586 C585 1.392 . S
C586 C587 1.385 . S
C586 C588 1.478 . S
C587 H581 0.930 . S
C587 C583 1.400 . S
C587 C586 1.385 . S
C588 C586 1.478 . S
C588 C590 1.381 . S
C588 C594 1.383 . S
C589 C585 1.495 . S
C589 H595 0.959 . S
C589 H596 0.961 . S
C589 H597 0.960 . S
C590 C588 1.381 . S
C590 C591 1.394 . S
C590 H598 0.930 . S
C591 C590 1.394 . S
C591 C592 1.383 . S
C591 H599 0.929 . S
C592 C591 1.383 . S
C592 C593 1.377 . S
C593 H577 0.930 . S
C593 C592 1.377 . S
C593 C594 1.379 . S
C594 H578 0.931 . S
C594 C588 1.383 . S
C594 C593 1.379 . S
H595 C589 0.959 . S
H596 C589 0.961 . S
H597 C589 0.960 . S
H598 C590 0.930 . S
H599 C591 0.929 . S
H600 C608 0.929 . S
H601 C610 0.930 . S
H602 C612 0.930 . S
H603 C615 0.929 . S
H604 C618 0.930 . S
H605 C620 0.960 . S
H606 C620 0.960 . S
H607 C620 0.960 . S
C608 H600 0.929 . S
C608 C609 1.377 . S
C608 C610 1.384 . S
C609 C608 1.377 . S
C609 C615 1.390 . S
C610 H601 0.930 . S
C610 C608 1.384 . S
C610 C611 1.372 . S
C611 C610 1.372 . S
C611 C612 1.400 . S
C611 C616 1.490 . S
C612 H602 0.930 . S
C612 C611 1.400 . S
C612 C615 1.386 . S
H613 C629 0.930 . S
H614 C630 0.931 . S
C615 H603 0.929 . S
C615 C609 1.390 . S
C615 C612 1.386 . S
C616 C611 1.490 . S
C616 C618 1.395 . S
C616 C619 1.403 . S
H617 C623 0.930 . S
C618 H604 0.930 . S
C618 C616 1.395 . S
C618 C621 1.403 . S
C619 C616 1.403 . S
C619 C620 1.524 . S
C619 C623 1.400 . S
C620 H605 0.960 . S
C620 H606 0.960 . S
C620 H607 0.960 . S
C620 C619 1.524 . S
C621 C618 1.403 . S
C621 C622 1.392 . S
C621 C625 1.495 . S
C622 C621 1.392 . S
C622 C623 1.385 . S
C622 C624 1.478 . S
C623 H617 0.930 . S
C623 C619 1.400 . S
C623 C622 1.385 . S
C624 C622 1.478 . S
C624 C626 1.381 . S
C624 C630 1.383 . S
C625 C621 1.495 . S
C625 H631 0.959 . S
C625 H632 0.961 . S
C625 H633 0.960 . S
C626 C624 1.381 . S
C626 C627 1.394 . S
C626 H634 0.930 . S
C627 C626 1.394 . S
C627 C628 1.383 . S
C627 H635 0.929 . S
C628 C627 1.383 . S
C628 C629 1.377 . S
C629 H613 0.930 . S
C629 C628 1.377 . S
C629 C630 1.379 . S
C630 H614 0.931 . S
C630 C624 1.383 . S
C630 C629 1.379 . S
H631 C625 0.959 . S
H632 C625 0.961 . S
H633 C625 0.960 . S
H634 C626 0.930 . S
H635 C627 0.929 . S
H636 C644 0.929 . S
H637 C646 0.930 . S
H638 C648 0.930 . S
H639 C651 0.929 . S
H640 C654 0.930 . S
H641 C656 0.960 . S
H642 C656 0.960 . S
H643 C656 0.960 . S
C644 H636 0.929 . S
C644 C645 1.377 . S
C644 C646 1.384 . S
C645 C644 1.377 . S
C645 C651 1.390 . S
C646 H637 0.930 . S
C646 C644 1.384 . S
C646 C647 1.372 . S
C647 C646 1.372 . S
C647 C648 1.400 . S
C647 C652 1.490 . S
C648 H638 0.930 . S
C648 C647 1.400 . S
C648 C651 1.386 . S
H649 C665 0.930 1_455 S
H650 C666 0.933 . S
C651 H639 0.929 . S
C651 C645 1.390 . S
C651 C648 1.386 . S
C652 C647 1.490 . S
C652 C654 1.395 . S
C652 C655 1.403 . S
H653 C659 0.930 . S
C654 H640 0.930 . S
C654 C652 1.395 . S
C654 C657 1.403 . S
C655 C652 1.403 . S
C655 C656 1.524 . S
C655 C659 1.400 . S
C656 H641 0.960 . S
C656 H642 0.960 . S
C656 H643 0.960 . S
C656 C655 1.524 . S
C657 C654 1.403 . S
C657 C658 1.392 . S
C657 C661 1.495 . S
C658 C657 1.392 . S
C658 C659 1.385 . S
C658 C660 1.478 . S
C659 H653 0.930 . S
C659 C655 1.400 . S
C659 C658 1.385 . S
C660 C658 1.478 . S
C660 C662 1.381 . S
C660 C666 1.374 1_556 S
C661 C657 1.495 . S
C661 H667 0.959 . S
C661 H668 0.961 . S
C661 H669 0.960 . S
C662 C660 1.381 . S
C662 C663 1.394 1_655 S
C662 H670 0.930 . S
C663 C662 1.394 1_455 S
C663 C664 1.383 1_556 S
C663 H671 0.929 . S
C664 C663 1.383 1_554 S
C664 C665 1.377 1_455 S
C665 H649 0.930 1_655 S
C665 C664 1.377 1_655 S
C665 C666 1.386 . S
C666 H650 0.933 . S
C666 C660 1.374 1_554 S
C666 C665 1.386 . S
H667 C661 0.959 . S
H668 C661 0.961 . S
H669 C661 0.960 . S
H670 C662 0.930 . S
H671 C663 0.929 . S
H672 C680 0.929 . S
H673 C682 0.930 . S
H674 C684 0.930 . S
H675 C687 0.929 . S
H676 C690 0.930 . S
H677 C692 0.960 . S
H678 C692 0.960 . S
H679 C692 0.960 . S
C680 H672 0.929 . S
C680 C681 1.377 1_565 S
C680 C682 1.384 . S
C681 C680 1.377 1_545 S
C681 C687 1.390 . S
C682 H673 0.930 . S
C682 C680 1.384 . S
C682 C683 1.372 . S
C683 C682 1.372 . S
C683 C684 1.400 . S
C683 C688 1.490 . S
C684 H674 0.930 . S
C684 C683 1.400 . S
C684 C687 1.386 1_565 S
H685 C701 0.930 . S
H686 C702 0.931 . S
C687 H675 0.929 . S
C687 C681 1.390 . S
C687 C684 1.386 1_545 S
C688 C683 1.490 . S
C688 C690 1.395 . S
C688 C691 1.403 . S
H689 C695 0.930 . S
C690 H676 0.930 . S
C690 C688 1.395 . S
C690 C693 1.403 . S
C691 C688 1.403 . S
C691 C692 1.524 . S
C691 C695 1.400 . S
C692 H677 0.960 . S
C692 H678 0.960 . S
C692 H679 0.960 . S
C692 C691 1.524 . S
C693 C690 1.403 . S
C693 C694 1.392 . S
C693 C697 1.495 . S
C694 C693 1.392 . S
C694 C695 1.385 . S
C694 C696 1.478 . S
C695 H689 0.930 . S
C695 C691 1.400 . S
C695 C694 1.385 . S
C696 C694 1.478 . S
C696 C698 1.381 . S
C696 C702 1.383 . S
C697 C693 1.495 . S
C697 H703 0.959 . S
C697 H704 0.961 . S
C697 H705 0.960 . S
C698 C696 1.381 . S
C698 C699 1.394 . S
C698 H706 0.930 . S
C699 C698 1.394 . S
C699 C700 1.383 . S
C699 H707 0.929 . S
C700 C699 1.383 . S
C700 C701 1.377 . S
C701 H685 0.930 . S
C701 C700 1.377 . S
C701 C702 1.379 . S
C702 H686 0.931 . S
C702 C696 1.383 . S
C702 C701 1.379 . S
H703 C697 0.959 . S
H704 C697 0.961 . S
H705 C697 0.960 . S
H706 C698 0.930 . S
H707 C699 0.929 . S
H708 C716 0.929 . S
H709 C718 0.930 . S
H710 C720 0.930 . S
H711 C723 0.929 . S
H712 C726 0.930 . S
H713 C728 0.960 . S
H714 C728 0.960 . S
H715 C728 0.960 . S
C716 H708 0.929 . S
C716 C717 1.377 . S
C716 C718 1.384 . S
C717 C716 1.377 . S
C717 C723 1.390 . S
C718 H709 0.930 . S
C718 C716 1.384 . S
C718 C719 1.372 . S
C719 C718 1.372 . S
C719 C720 1.400 . S
C719 C724 1.490 . S
C720 H710 0.930 . S
C720 C719 1.400 . S
C720 C723 1.386 . S
H721 C737 0.930 . S
H722 C738 0.931 . S
C723 H711 0.929 . S
C723 C717 1.390 . S
C723 C720 1.386 . S
C724 C719 1.490 . S
C724 C726 1.395 . S
C724 C727 1.403 . S
H725 C731 0.930 . S
C726 H712 0.930 . S
C726 C724 1.395 . S
C726 C729 1.403 . S
C727 C724 1.403 . S
C727 C728 1.524 . S
C727 C731 1.400 . S
C728 H713 0.960 . S
C728 H714 0.960 . S
C728 H715 0.960 . S
C728 C727 1.524 . S
C729 C726 1.403 . S
C729 C730 1.392 . S
C729 C733 1.495 . S
C730 C729 1.392 . S
C730 C731 1.385 . S
C730 C732 1.478 . S
C731 H725 0.930 . S
C731 C727 1.400 . S
C731 C730 1.385 . S
C732 C730 1.478 . S
C732 C734 1.381 . S
C732 C738 1.383 . S
C733 C729 1.495 . S
C733 H739 0.959 . S
C733 H740 0.961 . S
C733 H741 0.960 . S
C734 C732 1.381 . S
C734 C735 1.394 . S
C734 H742 0.930 . S
C735 C734 1.394 . S
C735 C736 1.383 . S
C735 H743 0.929 . S
C736 C735 1.383 . S
C736 C737 1.377 . S
C737 H721 0.930 . S
C737 C736 1.377 . S
C737 C738 1.379 . S
C738 H722 0.931 . S
C738 C732 1.383 . S
C738 C737 1.379 . S
H739 C733 0.959 . S
H740 C733 0.961 . S
H741 C733 0.960 . S
H742 C734 0.930 . S
H743 C735 0.929 . S
H744 C752 0.929 . S
H745 C754 0.930 . S
H746 C756 0.930 . S
H747 C759 0.929 . S
H748 C762 0.930 . S
H749 C764 0.960 . S
H750 C764 0.960 . S
H751 C764 0.960 . S
C752 H744 0.929 . S
C752 C753 1.377 . S
C752 C754 1.384 . S
C753 C752 1.377 . S
C753 C759 1.390 . S
C754 H745 0.930 . S
C754 C752 1.384 . S
C754 C755 1.372 . S
C755 C754 1.372 . S
C755 C756 1.400 . S
C755 C760 1.490 . S
C756 H746 0.930 . S
C756 C755 1.400 . S
C756 C759 1.386 . S
H757 C773 0.930 . S
H758 C774 0.931 . S
C759 H747 0.929 . S
C759 C753 1.390 . S
C759 C756 1.386 . S
C760 C755 1.490 . S
C760 C762 1.395 . S
C760 C763 1.403 . S
H761 C767 0.930 . S
C762 H748 0.930 . S
C762 C760 1.395 . S
C762 C765 1.403 . S
C763 C760 1.403 . S
C763 C764 1.524 . S
C763 C767 1.400 . S
C764 H749 0.960 . S
C764 H750 0.960 . S
C764 H751 0.960 . S
C764 C763 1.524 . S
C765 C762 1.403 . S
C765 C766 1.392 . S
C765 C769 1.495 . S
C766 C765 1.392 . S
C766 C767 1.385 . S
C766 C768 1.478 . S
C767 H761 0.930 . S
C767 C763 1.400 . S
C767 C766 1.385 . S
C768 C766 1.478 . S
C768 C770 1.381 . S
C768 C774 1.383 . S
C769 C765 1.495 . S
C769 H775 0.959 . S
C769 H776 0.961 . S
C769 H777 0.960 . S
C770 C768 1.381 . S
C770 C771 1.394 . S
C770 H778 0.930 . S
C771 C770 1.394 . S
C771 C772 1.383 1_455 S
C771 H779 0.929 . S
C772 C771 1.383 1_655 S
C772 C773 1.377 . S
C773 H757 0.930 . S
C773 C772 1.377 . S
C773 C774 1.379 1_655 S
C774 H758 0.931 . S
C774 C768 1.383 . S
C774 C773 1.379 1_455 S
H775 C769 0.959 . S
H776 C769 0.961 . S
H777 C769 0.960 . S
H778 C770 0.930 . S
H779 C771 0.929 . S
H780 C788 0.929 . S
H781 C790 0.930 . S
H782 C792 0.930 . S
H783 C795 0.929 . S
H784 C798 0.930 . S
H785 C800 0.960 . S
H786 C800 0.960 . S
H787 C800 0.960 . S
C788 H780 0.929 . S
C788 C789 1.377 . S
C788 C790 1.384 . S
C789 C788 1.377 . S
C789 C795 1.390 . S
C790 H781 0.930 . S
C790 C788 1.384 . S
C790 C791 1.372 . S
C791 C790 1.372 . S
C791 C792 1.400 . S
C791 C796 1.490 . S
C792 H782 0.930 . S
C792 C791 1.400 . S
C792 C795 1.386 . S
H793 C809 0.930 . S
H794 C810 0.931 . S
C795 H783 0.929 . S
C795 C789 1.390 . S
C795 C792 1.386 . S
C796 C791 1.490 . S
C796 C798 1.395 . S
C796 C799 1.403 . S
H797 C803 0.930 . S
C798 H784 0.930 . S
C798 C796 1.395 . S
C798 C801 1.403 . S
C799 C796 1.403 . S
C799 C800 1.524 . S
C799 C803 1.400 . S
C800 H785 0.960 . S
C800 H786 0.960 . S
C800 H787 0.960 . S
C800 C799 1.524 . S
C801 C798 1.403 . S
C801 C802 1.392 . S
C801 C805 1.495 . S
C802 C801 1.392 . S
C802 C803 1.385 . S
C802 C804 1.478 . S
C803 H797 0.930 . S
C803 C799 1.400 . S
C803 C802 1.385 . S
C804 C802 1.478 . S
C804 C806 1.381 . S
C804 C810 1.383 . S
C805 C801 1.495 . S
C805 H811 0.959 . S
C805 H812 0.961 . S
C805 H813 0.960 . S
C806 C804 1.381 . S
C806 C807 1.372 1_545 S
C806 H814 0.930 . S
C807 C806 1.372 1_565 S
C807 C808 1.373 . S
C807 H815 0.963 . S
C808 C807 1.373 . S
C808 C809 1.377 1_565 S
C809 H793 0.930 . S
C809 C808 1.377 1_545 S
C809 C810 1.379 . S
C810 H794 0.931 . S
C810 C804 1.383 . S
C810 C809 1.379 . S
H811 C805 0.959 . S
H812 C805 0.961 . S
H813 C805 0.960 . S
H814 C806 0.930 . S
H815 C807 0.963 . S
H816 C824 0.929 . S
H817 C826 0.930 . S
H818 C828 0.930 . S
H819 C831 0.929 . S
H820 C834 0.930 . S
H821 C836 0.960 . S
H822 C836 0.960 . S
H823 C836 0.960 . S
C824 H816 0.929 . S
C824 C825 1.377 . S
C824 C826 1.384 . S
C825 C824 1.377 . S
C825 C831 1.390 . S
C826 H817 0.930 . S
C826 C824 1.384 . S
C826 C827 1.372 . S
C827 C826 1.372 . S
C827 C828 1.400 . S
C827 C832 1.490 . S
C828 H818 0.930 . S
C828 C827 1.400 . S
C828 C831 1.386 . S
H829 C845 0.930 . S
H830 C846 0.931 . S
C831 H819 0.929 . S
C831 C825 1.390 . S
C831 C828 1.386 . S
C832 C827 1.490 . S
C832 C834 1.395 . S
C832 C835 1.403 . S
H833 C839 0.930 . S
C834 H820 0.930 . S
C834 C832 1.395 . S
C834 C837 1.403 . S
C835 C832 1.403 . S
C835 C836 1.524 . S
C835 C839 1.400 . S
C836 H821 0.960 . S
C836 H822 0.960 . S
C836 H823 0.960 . S
C836 C835 1.524 . S
C837 C834 1.403 . S
C837 C838 1.392 . S
C837 C841 1.495 . S
C838 C837 1.392 . S
C838 C839 1.385 . S
C838 C840 1.478 . S
C839 H833 0.930 . S
C839 C835 1.400 . S
C839 C838 1.385 . S
C840 C838 1.478 . S
C840 C842 1.381 . S
C840 C846 1.383 . S
C841 C837 1.495 . S
C841 H847 0.959 . S
C841 H848 0.961 . S
C841 H849 0.960 . S
C842 C840 1.381 . S
C842 C843 1.394 . S
C842 H850 0.930 . S
C843 C842 1.394 . S
C843 C844 1.383 . S
C843 H851 0.929 . S
C844 C843 1.383 . S
C844 C845 1.377 . S
C845 H829 0.930 . S
C845 C844 1.377 . S
C845 C846 1.379 . S
C846 H830 0.931 . S
C846 C840 1.383 . S
C846 C845 1.379 . S
H847 C841 0.959 . S
H848 C841 0.961 . S
H849 C841 0.960 . S
H850 C842 0.930 . S
H851 C843 0.929 . S
H852 C860 0.929 . S
H853 C862 0.930 . S
H854 C864 0.930 . S
H855 C867 0.929 . S
H856 C870 0.930 . S
H857 C872 0.960 . S
H858 C872 0.960 . S
H859 C872 0.960 . S
C860 H852 0.929 . S
C860 C861 1.377 . S
C860 C862 1.384 . S
C861 C860 1.377 . S
C861 C867 1.390 . S
C862 H853 0.930 . S
C862 C860 1.384 . S
C862 C863 1.372 . S
C863 C862 1.372 . S
C863 C864 1.400 . S
C863 C868 1.490 . S
C864 H854 0.930 . S
C864 C863 1.400 . S
C864 C867 1.386 . S
H865 C881 0.930 . S
H866 C882 0.931 . S
C867 H855 0.929 . S
C867 C861 1.390 . S
C867 C864 1.386 . S
C868 C863 1.490 . S
C868 C870 1.395 . S
C868 C871 1.403 . S
H869 C875 0.930 . S
C870 H856 0.930 . S
C870 C868 1.395 . S
C870 C873 1.403 . S
C871 C868 1.403 . S
C871 C872 1.524 . S
C871 C875 1.400 . S
C872 H857 0.960 . S
C872 H858 0.960 . S
C872 H859 0.960 . S
C872 C871 1.524 . S
C873 C870 1.403 . S
C873 C874 1.392 . S
C873 C877 1.495 . S
C874 C873 1.392 . S
C874 C875 1.385 . S
C874 C876 1.478 . S
C875 H869 0.930 . S
C875 C871 1.400 . S
C875 C874 1.385 . S
C876 C874 1.478 . S
C876 C878 1.381 . S
C876 C882 1.383 . S
C877 C873 1.495 . S
C877 H883 0.959 . S
C877 H884 0.961 . S
C877 H885 0.960 . S
C878 C876 1.381 . S
C878 C879 1.394 . S
C878 H886 0.930 . S
C879 C878 1.394 . S
C879 C880 1.383 . S
C879 H887 0.929 . S
C880 C879 1.383 . S
C880 C881 1.377 . S
C881 H865 0.930 . S
C881 C880 1.377 . S
C881 C882 1.379 . S
C882 H866 0.931 . S
C882 C876 1.383 . S
C882 C881 1.379 . S
H883 C877 0.959 . S
H884 C877 0.961 . S
H885 C877 0.960 . S
H886 C878 0.930 . S
H887 C879 0.929 . S
H888 C896 0.929 . S
H889 C898 0.930 . S
H890 C900 0.930 . S
H891 C903 0.929 . S
H892 C906 0.930 . S
H893 C908 0.960 . S
H894 C908 0.960 . S
H895 C908 0.960 . S
C896 H888 0.929 . S
C896 C897 1.377 . S
C896 C898 1.384 . S
C897 C896 1.377 . S
C897 C903 1.390 . S
C898 H889 0.930 . S
C898 C896 1.384 . S
C898 C899 1.372 . S
C899 C898 1.372 . S
C899 C900 1.400 . S
C899 C904 1.490 . S
C900 H890 0.930 . S
C900 C899 1.400 . S
C900 C903 1.386 . S
H901 C917 0.930 . S
H902 C918 0.931 . S
C903 H891 0.929 . S
C903 C897 1.390 . S
C903 C900 1.386 . S
C904 C899 1.490 . S
C904 C906 1.395 . S
C904 C907 1.403 . S
H905 C911 0.930 . S
C906 H892 0.930 . S
C906 C904 1.395 . S
C906 C909 1.403 . S
C907 C904 1.403 . S
C907 C908 1.524 . S
C907 C911 1.400 . S
C908 H893 0.960 . S
C908 H894 0.960 . S
C908 H895 0.960 . S
C908 C907 1.524 . S
C909 C906 1.403 . S
C909 C910 1.392 . S
C909 C913 1.495 . S
C910 C909 1.392 . S
C910 C911 1.385 . S
C910 C912 1.478 . S
C911 H905 0.930 . S
C911 C907 1.400 . S
C911 C910 1.385 . S
C912 C910 1.478 . S
C912 C914 1.381 . S
C912 C918 1.383 . S
C913 C909 1.495 . S
C913 H919 0.959 . S
C913 H920 0.961 . S
C913 H921 0.960 . S
C914 C912 1.381 . S
C914 C915 1.394 . S
C914 H922 0.930 . S
C915 C914 1.394 . S
C915 C916 1.383 . S
C915 H923 0.929 . S
C916 C915 1.383 . S
C916 C917 1.377 . S
C917 H901 0.930 . S
C917 C916 1.377 . S
C917 C918 1.379 . S
C918 H902 0.931 . S
C918 C912 1.383 . S
C918 C917 1.379 . S
H919 C913 0.959 . S
H920 C913 0.961 . S
H921 C913 0.960 . S
H922 C914 0.930 . S
H923 C915 0.929 . S
H924 C932 0.929 . S
H925 C934 0.930 . S
H926 C936 0.930 . S
H927 C939 0.929 . S
H928 C942 0.930 . S
H929 C944 0.960 . S
H930 C944 0.960 . S
H931 C944 0.960 . S
C932 H924 0.929 . S
C932 C933 1.377 . S
C932 C934 1.384 . S
C933 C932 1.377 . S
C933 C939 1.390 . S
C934 H925 0.930 . S
C934 C932 1.384 . S
C934 C935 1.372 . S
C935 C934 1.372 . S
C935 C936 1.400 . S
C935 C940 1.490 . S
C936 H926 0.930 . S
C936 C935 1.400 . S
C936 C939 1.386 . S
H937 C953 0.930 . S
H938 C954 0.931 . S
C939 H927 0.929 . S
C939 C933 1.390 . S
C939 C936 1.386 . S
C940 C935 1.490 . S
C940 C942 1.395 . S
C940 C943 1.403 . S
H941 C947 0.930 . S
C942 H928 0.930 . S
C942 C940 1.395 . S
C942 C945 1.403 . S
C943 C940 1.403 . S
C943 C944 1.524 . S
C943 C947 1.400 . S
C944 H929 0.960 . S
C944 H930 0.960 . S
C944 H931 0.960 . S
C944 C943 1.524 . S
C945 C942 1.403 . S
C945 C946 1.392 . S
C945 C949 1.495 . S
C946 C945 1.392 . S
C946 C947 1.385 . S
C946 C948 1.478 . S
C947 H941 0.930 . S
C947 C943 1.400 . S
C947 C946 1.385 . S
C948 C946 1.478 . S
C948 C950 1.381 . S
C948 C954 1.383 . S
C949 C945 1.495 . S
C949 H955 0.959 . S
C949 H956 0.961 . S
C949 H957 0.960 . S
C950 C948 1.381 . S
C950 C951 1.394 . S
C950 H958 0.930 . S
C951 C950 1.394 . S
C951 C952 1.383 . S
C951 H959 0.929 . S
C952 C951 1.383 . S
C952 C953 1.377 . S
C953 H937 0.930 . S
C953 C952 1.377 . S
C953 C954 1.379 . S
C954 H938 0.931 . S
C954 C948 1.383 . S
C954 C953 1.379 . S
H955 C949 0.959 . S
H956 C949 0.961 . S
H957 C949 0.960 . S
H958 C950 0.930 . S
H959 C951 0.929 . S
H960 C968 0.929 . S
H961 C970 0.930 . S
H962 C972 0.930 . S
H963 C975 0.929 . S
H964 C978 0.930 . S
H965 C980 0.960 . S
H966 C980 0.960 . S
H967 C980 0.960 . S
C968 H960 0.929 . S
C968 C969 1.377 . S
C968 C970 1.384 . S
C969 C968 1.377 . S
C969 C975 1.390 . S
C970 H961 0.930 . S
C970 C968 1.384 . S
C970 C971 1.372 . S
C971 C970 1.372 . S
C971 C972 1.400 . S
C971 C976 1.490 . S
C972 H962 0.930 . S
C972 C971 1.400 . S
C972 C975 1.386 . S
H973 C989 0.930 . S
H974 C990 0.931 . S
C975 H963 0.929 . S
C975 C969 1.390 . S
C975 C972 1.386 . S
C976 C971 1.490 . S
C976 C978 1.395 . S
C976 C979 1.403 . S
H977 C983 0.930 . S
C978 H964 0.930 . S
C978 C976 1.395 . S
C978 C981 1.403 . S
C979 C976 1.403 . S
C979 C980 1.524 . S
C979 C983 1.400 . S
C980 H965 0.960 . S
C980 H966 0.960 . S
C980 H967 0.960 . S
C980 C979 1.524 . S
C981 C978 1.403 . S
C981 C982 1.392 . S
C981 C985 1.495 . S
C982 C981 1.392 . S
C982 C983 1.385 . S
C982 C984 1.478 . S
C983 H977 0.930 . S
C983 C979 1.400 . S
C983 C982 1.385 . S
C984 C982 1.478 . S
C984 C986 1.381 . S
C984 C990 1.383 . S
C985 C981 1.495 . S
C985 H991 0.959 . S
C985 H992 0.961 . S
C985 H993 0.960 . S
C986 C984 1.381 . S
C986 C987 1.394 . S
C986 H994 0.930 . S
C987 C986 1.394 . S
C987 C988 1.383 . S
C987 H995 0.929 . S
C988 C987 1.383 . S
C988 C989 1.377 . S
C989 H973 0.930 . S
C989 C988 1.377 . S
C989 C990 1.379 . S
C990 H974 0.931 . S
C990 C984 1.383 . S
C990 C989 1.379 . S
H991 C985 0.959 . S
H992 C985 0.961 . S
H993 C985 0.960 . S
H994 C986 0.930 . S
H995 C987 0.929 . S
H996 C1004 0.929 . S
H997 C1006 0.930 . S
H998 C1008 0.930 . S
H999 C1011 0.929 . S
H1000 C1014 0.930 . S
H1001 C1016 0.960 . S
H1002 C1016 0.960 . S
H1003 C1016 0.960 . S
C1004 H996 0.929 . S
C1004 C1005 1.377 . S
C1004 C1006 1.384 . S
C1005 C1004 1.377 . S
C1005 C1011 1.390 . S
C1006 H997 0.930 . S
C1006 C1004 1.384 . S
C1006 C1007 1.372 . S
C1007 C1006 1.372 . S
C1007 C1008 1.400 . S
C1007 C1012 1.490 . S
C1008 H998 0.930 . S
C1008 C1007 1.400 . S
C1008 C1011 1.386 . S
H1009 C1025 0.972 . S
H1010 C1026 0.931 . S
C1011 H999 0.929 . S
C1011 C1005 1.390 . S
C1011 C1008 1.386 . S
C1012 C1007 1.490 . S
C1012 C1014 1.395 . S
C1012 C1015 1.403 . S
H1013 C1019 0.930 . S
C1014 H1000 0.930 . S
C1014 C1012 1.395 . S
C1014 C1017 1.403 . S
C1015 C1012 1.403 . S
C1015 C1016 1.524 . S
C1015 C1019 1.400 . S
C1016 H1001 0.960 . S
C1016 H1002 0.960 . S
C1016 H1003 0.960 . S
C1016 C1015 1.524 . S
C1017 C1014 1.403 . S
C1017 C1018 1.392 . S
C1017 C1021 1.495 . S
C1018 C1017 1.392 . S
C1018 C1019 1.385 . S
C1018 C1020 1.478 . S
C1019 H1013 0.930 . S
C1019 C1015 1.400 . S
C1019 C1018 1.385 . S
C1020 C1018 1.478 . S
C1020 C1022 1.381 . S
C1020 C1026 1.383 . S
C1021 C1017 1.495 . S
C1021 H1027 0.959 . S
C1021 H1028 0.961 . S
C1021 H1029 0.960 . S
C1022 C1020 1.381 . S
C1022 C1023 1.394 . S
C1022 H1030 0.930 . S
C1023 C1022 1.394 . S
C1023 C1024 1.383 . S
C1023 H1031 0.929 . S
C1024 C1023 1.383 . S
C1024 C1025 1.377 . S
C1025 H1009 0.972 . S
C1025 C1024 1.377 . S
C1025 C1026 1.379 . S
C1026 H1010 0.931 . S
C1026 C1020 1.383 . S
C1026 C1025 1.379 . S
H1027 C1021 0.959 . S
H1028 C1021 0.961 . S
H1029 C1021 0.960 . S
H1030 C1022 0.930 . S
H1031 C1023 0.929 . S
C177 C118 1.485 . S
C196 C6 1.471 . S
C213 C20 1.480 . S
C232 C132 1.456 . S
C249 C34 1.481 . S
C268 C146 1.461 . S
C285 C48 1.484 . S
C304 C160 1.465 . S
C321 C90 1.489 . S
C340 C62 1.503 . S
C357 C76 1.490 . S
C376 C104 1.508 . S
C393 C7 1.605 . S
C412 C78 1.632 . S
C429 C21 1.606 . S
C448 C8 1.628 . S
C465 C35 1.611 . S
C484 C22 1.605 . S
C501 C36 1.620 . S
C520 C49 1.620 . S
C537 C50 1.622 . S
C556 C63 1.608 . S
C573 C64 1.624 . S
C592 C77 1.588 . S
C609 C106 1.624 . S
C628 C91 1.588 . S
C645 C105 1.611 . S
C664 C120 1.609 . S
C681 C134 1.623 . S
C700 C119 1.590 . S
C717 C133 1.609 . S
C736 C148 1.609 . S
C753 C147 1.606 . S
C772 C162 1.618 . S
C789 C161 1.604 . S
C808 C92 1.630 . S
C825 C149 1.450 . S
C844 C9 1.461 . S
C861 C163 1.451 . S
C880 C23 1.459 . S
C897 C93 1.454 . S
C916 C37 1.438 . S
C933 C51 1.454 . S
C952 C107 1.442 . S
C969 C65 1.453 . S
C988 C121 1.442 1_556 S
C1005 C135 1.450 . S
C1024 C79 1.462 1_554 S
