# Generated by pormake.
# Topology uox, (4)-cn, num edge types: 1
# Building blocks:
#     Node 0, Type 0, BuildingBlock: GALJAG_clean_sbu_0, # of connection points: 4
#     Node 1, Type 0, BuildingBlock: GALJAG_clean_sbu_0, # of connection points: 4
#     Node 2, Type 0, BuildingBlock: GALJAG_clean_sbu_0, # of connection points: 4
#     Node 3, Type 0, BuildingBlock: GALJAG_clean_sbu_0, # of connection points: 4
#     Node 4, Type 0, BuildingBlock: GALJAG_clean_sbu_0, # of connection points: 4
#     Node 5, Type 0, BuildingBlock: GALJAG_clean_sbu_0, # of connection points: 4
#     Node 6, Type 0, BuildingBlock: GALJAG_clean_sbu_0, # of connection points: 4
#     Node 7, Type 0, BuildingBlock: GALJAG_clean_sbu_0, # of connection points: 4
#     Node 8, Type 0, BuildingBlock: GALJAG_clean_sbu_0, # of connection points: 4
#     Node 9, Type 0, BuildingBlock: GALJAG_clean_sbu_0, # of connection points: 4
#     Node 10, Type 0, BuildingBlock: GALJAG_clean_sbu_0, # of connection points: 4
#     Node 11, Type 0, BuildingBlock: GALJAG_clean_sbu_0, # of connection points: 4
#     Node 12, Type 0, BuildingBlock: GALJAG_clean_sbu_0, # of connection points: 4
#     Node 13, Type 0, BuildingBlock: GALJAG_clean_sbu_0, # of connection points: 4
#     Node 14, Type 0, BuildingBlock: GALJAG_clean_sbu_0, # of connection points: 4
#     Node 15, Type 0, BuildingBlock: GALJAG_clean_sbu_0, # of connection points: 4
#     Node 16, Type 0, BuildingBlock: GALJAG_clean_sbu_0, # of connection points: 4
#     Node 17, Type 0, BuildingBlock: GALJAG_clean_sbu_0, # of connection points: 4
#     Node 18, Type 0, BuildingBlock: GALJAG_clean_sbu_0, # of connection points: 4
#     Node 19, Type 0, BuildingBlock: GALJAG_clean_sbu_0, # of connection points: 4
#     Node 20, Type 0, BuildingBlock: GALJAG_clean_sbu_0, # of connection points: 4
#     Node 21, Type 0, BuildingBlock: GALJAG_clean_sbu_0, # of connection points: 4
#     Node 22, Type 0, BuildingBlock: GALJAG_clean_sbu_0, # of connection points: 4
#     Node 23, Type 0, BuildingBlock: GALJAG_clean_sbu_0, # of connection points: 4
#     Node 24, Type 0, BuildingBlock: GALJAG_clean_sbu_0, # of connection points: 4
#     Node 25, Type 0, BuildingBlock: GALJAG_clean_sbu_0, # of connection points: 4
#     Node 26, Type 0, BuildingBlock: GALJAG_clean_sbu_0, # of connection points: 4
#     Node 27, Type 0, BuildingBlock: GALJAG_clean_sbu_0, # of connection points: 4
#     Node 28, Type 0, BuildingBlock: GALJAG_clean_sbu_0, # of connection points: 4
#     Node 29, Type 0, BuildingBlock: GALJAG_clean_sbu_0, # of connection points: 4
#     Node 30, Type 0, BuildingBlock: GALJAG_clean_sbu_0, # of connection points: 4
#     Node 31, Type 0, BuildingBlock: GALJAG_clean_sbu_0, # of connection points: 4
#     Edge 32, Type (0, 0), BuildingBlock: CIFDUS_clean_linker_0, # of connection points: 2
#     Edge 33, Type (0, 0), BuildingBlock: CIFDUS_clean_linker_0, # of connection points: 2
#     Edge 34, Type (0, 0), BuildingBlock: CIFDUS_clean_linker_0, # of connection points: 2
#     Edge 35, Type (0, 0), BuildingBlock: CIFDUS_clean_linker_0, # of connection points: 2
#     Edge 36, Type (0, 0), BuildingBlock: CIFDUS_clean_linker_0, # of connection points: 2
#     Edge 37, Type (0, 0), BuildingBlock: CIFDUS_clean_linker_0, # of connection points: 2
#     Edge 38, Type (0, 0), BuildingBlock: CIFDUS_clean_linker_0, # of connection points: 2
#     Edge 39, Type (0, 0), BuildingBlock: CIFDUS_clean_linker_0, # of connection points: 2
#     Edge 40, Type (0, 0), BuildingBlock: CIFDUS_clean_linker_0, # of connection points: 2
#     Edge 41, Type (0, 0), BuildingBlock: CIFDUS_clean_linker_0, # of connection points: 2
#     Edge 42, Type (0, 0), BuildingBlock: CIFDUS_clean_linker_0, # of connection points: 2
#     Edge 43, Type (0, 0), BuildingBlock: CIFDUS_clean_linker_0, # of connection points: 2
#     Edge 44, Type (0, 0), BuildingBlock: CIFDUS_clean_linker_0, # of connection points: 2
#     Edge 45, Type (0, 0), BuildingBlock: CIFDUS_clean_linker_0, # of connection points: 2
#     Edge 46, Type (0, 0), BuildingBlock: CIFDUS_clean_linker_0, # of connection points: 2
#     Edge 47, Type (0, 0), BuildingBlock: CIFDUS_clean_linker_0, # of connection points: 2
#     Edge 48, Type (0, 0), BuildingBlock: CIFDUS_clean_linker_0, # of connection points: 2
#     Edge 49, Type (0, 0), BuildingBlock: CIFDUS_clean_linker_0, # of connection points: 2
#     Edge 50, Type (0, 0), BuildingBlock: CIFDUS_clean_linker_0, # of connection points: 2
#     Edge 51, Type (0, 0), BuildingBlock: CIFDUS_clean_linker_0, # of connection points: 2
#     Edge 52, Type (0, 0), BuildingBlock: CIFDUS_clean_linker_0, # of connection points: 2
#     Edge 53, Type (0, 0), BuildingBlock: CIFDUS_clean_linker_0, # of connection points: 2
#     Edge 54, Type (0, 0), BuildingBlock: CIFDUS_clean_linker_0, # of connection points: 2
#     Edge 55, Type (0, 0), BuildingBlock: CIFDUS_clean_linker_0, # of connection points: 2
#     Edge 56, Type (0, 0), BuildingBlock: CIFDUS_clean_linker_0, # of connection points: 2
#     Edge 57, Type (0, 0), BuildingBlock: CIFDUS_clean_linker_0, # of connection points: 2
#     Edge 58, Type (0, 0), BuildingBlock: CIFDUS_clean_linker_0, # of connection points: 2
#     Edge 59, Type (0, 0), BuildingBlock: CIFDUS_clean_linker_0, # of connection points: 2
#     Edge 60, Type (0, 0), BuildingBlock: CIFDUS_clean_linker_0, # of connection points: 2
#     Edge 61, Type (0, 0), BuildingBlock: CIFDUS_clean_linker_0, # of connection points: 2
#     Edge 62, Type (0, 0), BuildingBlock: CIFDUS_clean_linker_0, # of connection points: 2
#     Edge 63, Type (0, 0), BuildingBlock: CIFDUS_clean_linker_0, # of connection points: 2
#     Edge 64, Type (0, 0), BuildingBlock: CIFDUS_clean_linker_0, # of connection points: 2
#     Edge 65, Type (0, 0), BuildingBlock: CIFDUS_clean_linker_0, # of connection points: 2
#     Edge 66, Type (0, 0), BuildingBlock: CIFDUS_clean_linker_0, # of connection points: 2
#     Edge 67, Type (0, 0), BuildingBlock: CIFDUS_clean_linker_0, # of connection points: 2
#     Edge 68, Type (0, 0), BuildingBlock: CIFDUS_clean_linker_0, # of connection points: 2
#     Edge 69, Type (0, 0), BuildingBlock: CIFDUS_clean_linker_0, # of connection points: 2
#     Edge 70, Type (0, 0), BuildingBlock: CIFDUS_clean_linker_0, # of connection points: 2
#     Edge 71, Type (0, 0), BuildingBlock: CIFDUS_clean_linker_0, # of connection points: 2
#     Edge 72, Type (0, 0), BuildingBlock: CIFDUS_clean_linker_0, # of connection points: 2
#     Edge 73, Type (0, 0), BuildingBlock: CIFDUS_clean_linker_0, # of connection points: 2
#     Edge 74, Type (0, 0), BuildingBlock: CIFDUS_clean_linker_0, # of connection points: 2
#     Edge 75, Type (0, 0), BuildingBlock: CIFDUS_clean_linker_0, # of connection points: 2
#     Edge 76, Type (0, 0), BuildingBlock: CIFDUS_clean_linker_0, # of connection points: 2
#     Edge 77, Type (0, 0), BuildingBlock: CIFDUS_clean_linker_0, # of connection points: 2
#     Edge 78, Type (0, 0), BuildingBlock: CIFDUS_clean_linker_0, # of connection points: 2
#     Edge 79, Type (0, 0), BuildingBlock: CIFDUS_clean_linker_0, # of connection points: 2
#     Edge 80, Type (0, 0), BuildingBlock: CIFDUS_clean_linker_0, # of connection points: 2
#     Edge 81, Type (0, 0), BuildingBlock: CIFDUS_clean_linker_0, # of connection points: 2
#     Edge 82, Type (0, 0), BuildingBlock: CIFDUS_clean_linker_0, # of connection points: 2
#     Edge 83, Type (0, 0), BuildingBlock: CIFDUS_clean_linker_0, # of connection points: 2
#     Edge 84, Type (0, 0), BuildingBlock: CIFDUS_clean_linker_0, # of connection points: 2
#     Edge 85, Type (0, 0), BuildingBlock: CIFDUS_clean_linker_0, # of connection points: 2
#     Edge 86, Type (0, 0), BuildingBlock: CIFDUS_clean_linker_0, # of connection points: 2
#     Edge 87, Type (0, 0), BuildingBlock: CIFDUS_clean_linker_0, # of connection points: 2
#     Edge 88, Type (0, 0), BuildingBlock: CIFDUS_clean_linker_0, # of connection points: 2
#     Edge 89, Type (0, 0), BuildingBlock: CIFDUS_clean_linker_0, # of connection points: 2
#     Edge 90, Type (0, 0), BuildingBlock: CIFDUS_clean_linker_0, # of connection points: 2
#     Edge 91, Type (0, 0), BuildingBlock: CIFDUS_clean_linker_0, # of connection points: 2
#     Edge 92, Type (0, 0), BuildingBlock: CIFDUS_clean_linker_0, # of connection points: 2
#     Edge 93, Type (0, 0), BuildingBlock: CIFDUS_clean_linker_0, # of connection points: 2
#     Edge 94, Type (0, 0), BuildingBlock: CIFDUS_clean_linker_0, # of connection points: 2
#     Edge 95, Type (0, 0), BuildingBlock: CIFDUS_clean_linker_0, # of connection points: 2
# Relax obj value: 0.005
# Max RMSD: 0.035
# Mean RMSD: 0.035
data_MOF--net-uox--node1-GALJAG_clean_sbu_0--edge1-CIFDUS_clean_linker_0
_symmetry_space_group_name_H-M    P1
_symmetry_Int_Tables_number       1
_symmetry_cell_setting            triclinic
loop_
_symmetry_equiv_pos_as_xyz
'x, y, z'
_cell_length_a     42.466401
_cell_length_b     42.42324
_cell_length_c     63.600224
_cell_angle_alpha  90.024921
_cell_angle_beta   89.90818
_cell_angle_gamma 89.998693
loop_
_atom_site_label
_atom_site_type_symbol
_atom_site_fract_x
_atom_site_fract_y
_atom_site_fract_z
_atom_type_partial_charge
In0 In 0.3996 0.07457 0.15112 0.0
O1 O 0.38683 0.02346 0.1434 0.0
O2 O 0.35763 0.05972 0.13124 0.0
C3 C 0.45945 0.07785 0.1365 0.0
C4 C 0.39393 0.05407 0.1911 0.0
C5 C 0.3788 0.13404 0.14465 0.0
O6 O 0.43775 0.0642 0.12647 0.0
O7 O 0.45108 0.08921 0.15395 0.0
O8 O 0.38293 0.12309 0.1629 0.0
O9 O 0.38529 0.11515 0.13 0.0
C10 C 0.3624 0.03057 0.13319 0.0
O11 O 0.37106 0.0653 0.18091 0.0
O12 O 0.41991 0.05437 0.18142 0.0
In13 In 0.18376 0.15292 0.40321 0.0
O14 O 0.17516 0.14709 0.43853 0.0
O15 O 0.22098 0.16042 0.42819 0.0
C16 C 0.12835 0.13178 0.38818 0.0
C17 C 0.22392 0.10899 0.38813 0.0
C18 C 0.17704 0.21496 0.39458 0.0
O19 O 0.1362 0.12814 0.40721 0.0
O20 O 0.14832 0.14614 0.377 0.0
O21 O 0.19163 0.19661 0.38226 0.0
O22 O 0.16658 0.20204 0.411 0.0
C23 C 0.2031 0.1542 0.4435 0.0
O24 O 0.23034 0.13809 0.38739 0.0
O25 O 0.19747 0.10252 0.39601 0.0
In26 In 0.11137 0.92913 0.66561 0.0
O27 O 0.12727 0.96906 0.64384 0.0
O28 O 0.15748 0.95554 0.66903 0.0
C29 C 0.05078 0.91886 0.65448 0.0
C30 C 0.10379 0.95148 0.70486 0.0
C31 C 0.13955 0.87603 0.65131 0.0
O32 O 0.06826 0.9377 0.64444 0.0
O33 O 0.06379 0.90578 0.66998 0.0
O34 O 0.134 0.88031 0.67062 0.0
O35 O 0.13129 0.89847 0.63959 0.0
C36 C 0.15281 0.97362 0.6536 0.0
O37 O 0.11538 0.92451 0.70125 0.0
O38 O 0.09553 0.9667 0.68871 0.0
In39 In 0.31047 0.85543 0.90667 0.0
O40 O 0.30987 0.85725 0.94274 0.0
O41 O 0.26917 0.8401 0.9273 0.0
C42 C 0.36968 0.87595 0.90015 0.0
C43 C 0.27595 0.90454 0.89301 0.0
C44 C 0.31763 0.79814 0.88839 0.0
O45 O 0.36133 0.86226 0.9169 0.0
O46 O 0.34804 0.87996 0.88679 0.0
O47 O 0.29623 0.81693 0.88269 0.0
O48 O 0.3346 0.80804 0.90315 0.0
C49 C 0.2822 0.84678 0.94447 0.0
O50 O 0.27114 0.87666 0.88675 0.0
O51 O 0.29864 0.90772 0.90563 0.0
In52 In 0.39601 0.94113 0.34058 0.0
O53 O 0.37938 0.9496 0.3067 0.0
O54 O 0.42241 0.9705 0.31643 0.0
C55 C 0.36973 0.88442 0.34901 0.0
C56 C 0.35949 0.98685 0.3576 0.0
C57 C 0.45507 0.92559 0.35211 0.0
O58 O 0.37419 0.89406 0.33044 0.0
O59 O 0.37812 0.90352 0.36316 0.0
O60 O 0.43757 0.94252 0.36365 0.0
O61 O 0.44264 0.91676 0.33508 0.0
C62 C 0.40258 0.96681 0.30195 0.0
O63 O 0.38914 0.98729 0.35913 0.0
O64 O 0.34862 0.96306 0.34826 0.0
In65 In 0.31262 0.14464 0.59285 0.0
O66 O 0.27862 0.123 0.61695 0.0
O67 O 0.2832 0.10068 0.58718 0.0
C68 C 0.31888 0.20414 0.60786 0.0
C69 C 0.29175 0.1567 0.55378 0.0
C70 C 0.36795 0.11557 0.60153 0.0
O71 O 0.29989 0.18462 0.61584 0.0
O72 O 0.33405 0.1938 0.59228 0.0
O73 O 0.35732 0.11791 0.58312 0.0
O74 O 0.35057 0.12747 0.61549 0.0
C75 C 0.27006 0.1009 0.60494 0.0
O76 O 0.32004 0.1495 0.55761 0.0
O77 O 0.27415 0.15876 0.56977 0.0
In78 In 0.10287 0.07441 0.85057 0.0
O79 O 0.11233 0.02757 0.86693 0.0
O80 O 0.15196 0.05471 0.85751 0.0
C81 C 0.04362 0.08379 0.86549 0.0
C82 C 0.09798 0.05095 0.81121 0.0
C83 C 0.13039 0.131 0.85767 0.0
O84 O 0.06617 0.07569 0.87715 0.0
O85 O 0.05082 0.0867 0.84637 0.0
O86 O 0.12674 0.11996 0.83939 0.0
O87 O 0.12065 0.1133 0.87223 0.0
C88 C 0.14192 0.02953 0.86568 0.0
O89 O 0.10269 0.0799 0.81469 0.0
O90 O 0.09523 0.03424 0.82749 0.0
In91 In 0.19622 0.84983 0.10179 0.0
O92 O 0.19255 0.85188 0.06566 0.0
O93 O 0.23446 0.83401 0.07941 0.0
C94 C 0.14317 0.87803 0.1156 0.0
C95 C 0.23893 0.89191 0.11541 0.0
C96 C 0.18522 0.79023 0.11456 0.0
O97 O 0.14906 0.87475 0.0962 0.0
O98 O 0.16425 0.86764 0.12776 0.0
O99 O 0.21018 0.80474 0.11928 0.0
O100 O 0.16621 0.80551 0.10329 0.0
C101 C 0.22004 0.8412 0.06282 0.0
O102 O 0.23602 0.86498 0.12372 0.0
O103 O 0.2196 0.89778 0.10088 0.0
In104 In 0.59752 0.94331 0.84666 0.0
O105 O 0.61794 0.97228 0.87399 0.0
O106 O 0.64104 0.97405 0.84435 0.0
C107 C 0.53784 0.93481 0.86096 0.0
C108 C 0.58839 0.96812 0.8081 0.0
C109 C 0.62709 0.88769 0.85248 0.0
O110 O 0.55074 0.96153 0.86038 0.0
O111 O 0.55486 0.91256 0.85448 0.0
O112 O 0.61854 0.89706 0.83449 0.0
O113 O 0.62118 0.90663 0.86731 0.0
C114 C 0.64008 0.98363 0.86307 0.0
O115 O 0.59921 0.94063 0.81065 0.0
O116 O 0.58113 0.98224 0.82485 0.0
In117 In 0.82449 0.85874 0.59491 0.0
O118 O 0.77816 0.87411 0.60994 0.0
O119 O 0.8118 0.90964 0.60281 0.0
C120 C 0.82703 0.79852 0.60888 0.0
C121 C 0.80223 0.85577 0.55523 0.0
C122 C 0.88256 0.87982 0.60499 0.0
O123 O 0.81738 0.82094 0.62022 0.0
O124 O 0.83491 0.80641 0.5905 0.0
O125 O 0.8718 0.88176 0.58651 0.0
O126 O 0.86403 0.86746 0.61814 0.0
C127 C 0.78478 0.9031 0.60979 0.0
O128 O 0.83131 0.85847 0.55907 0.0
O129 O 0.78489 0.85419 0.57128 0.0
In130 In 0.89786 0.06191 0.34545 0.0
O131 O 0.89432 0.07051 0.31001 0.0
O132 O 0.90721 0.02469 0.32053 0.0
C133 C 0.87931 0.11799 0.36088 0.0
C134 C 0.8506 0.02436 0.3585 0.0
C135 C 0.9583 0.06608 0.35823 0.0
O136 O 0.87865 0.112 0.34139 0.0
O137 O 0.88894 0.09568 0.37231 0.0
O138 O 0.93812 0.04996 0.36815 0.0
O139 O 0.94816 0.07883 0.34167 0.0
C140 C 0.90161 0.04254 0.30513 0.0
O141 O 0.87917 0.01652 0.36043 0.0
O142 O 0.8461 0.05102 0.35029 0.0
In143 In 0.69235 0.14589 0.09405 0.0
O144 O 0.74225 0.13946 0.10723 0.0
O145 O 0.71232 0.09951 0.10594 0.0
C146 C 0.6872 0.20496 0.10957 0.0
C147 C 0.7057 0.14475 0.05221 0.0
C148 C 0.63705 0.12273 0.10825 0.0
O149 O 0.71333 0.19079 0.1086 0.0
O150 O 0.66413 0.18971 0.10238 0.0
O151 O 0.6421 0.12748 0.08889 0.0
O152 O 0.65996 0.12915 0.12014 0.0
C153 C 0.73917 0.11025 0.11032 0.0
O154 O 0.70066 0.12032 0.06289 0.0
O155 O 0.7022 0.17007 0.06228 0.0
In156 In 0.59883 0.05753 0.65171 0.0
O157 O 0.60289 0.05944 0.68767 0.0
O158 O 0.59206 0.01554 0.67304 0.0
C159 C 0.62052 0.11377 0.63817 0.0
C160 C 0.64075 0.01742 0.63475 0.0
C161 C 0.53693 0.06575 0.6442 0.0
O162 O 0.62428 0.10481 0.65699 0.0
O163 O 0.60629 0.09435 0.62656 0.0
O164 O 0.5547 0.05143 0.6314 0.0
O165 O 0.55034 0.07527 0.6607 0.0
C166 C 0.59707 0.03035 0.6899 0.0
O167 O 0.61149 0.01503 0.63139 0.0
O168 O 0.64873 0.0406 0.646 0.0
In169 In 0.68065 0.85686 0.40894 0.0
O170 O 0.67591 0.86365 0.44451 0.0
O171 O 0.72035 0.8494 0.43236 0.0
C172 C 0.62424 0.88215 0.3987 0.0
C173 C 0.72508 0.89324 0.39069 0.0
C174 C 0.67038 0.7954 0.40003 0.0
O175 O 0.6359 0.88476 0.41687 0.0
O176 O 0.64127 0.86737 0.38575 0.0
O177 O 0.68131 0.81437 0.38661 0.0
O178 O 0.66504 0.80736 0.41782 0.0
C179 C 0.70423 0.85655 0.44832 0.0
O180 O 0.72615 0.86353 0.39032 0.0
O181 O 0.70104 0.90457 0.39961 0.0
In182 In 0.90727 0.93591 0.15368 0.0
O183 O 0.90598 0.92629 0.18914 0.0
O184 O 0.91201 0.97359 0.17882 0.0
C185 C 0.88787 0.8792 0.13939 0.0
C186 C 0.8613 0.97458 0.1399 0.0
C187 C 0.9681 0.93403 0.14102 0.0
O188 O 0.90096 0.89959 0.12791 0.0
O189 O 0.88445 0.88727 0.15841 0.0
O190 O 0.94678 0.94688 0.13016 0.0
O191 O 0.95885 0.92308 0.1584 0.0
C192 C 0.90925 0.95495 0.19414 0.0
O193 O 0.89009 0.98187 0.1386 0.0
O194 O 0.85599 0.94776 0.14765 0.0
In195 In 0.80957 0.15941 0.90044 0.0
O196 O 0.77232 0.1438 0.87655 0.0
O197 O 0.7811 0.11417 0.90283 0.0
C198 C 0.81734 0.21902 0.88652 0.0
C199 C 0.78579 0.1663 0.93956 0.0
C200 C 0.86581 0.13418 0.88907 0.0
O201 O 0.79784 0.20021 0.87829 0.0
O202 O 0.83238 0.20791 0.90196 0.0
O203 O 0.8603 0.14318 0.90764 0.0
O204 O 0.84299 0.1374 0.87666 0.0
C205 C 0.76563 0.11867 0.88622 0.0
O206 O 0.80593 0.14545 0.93501 0.0
O207 O 0.77843 0.18435 0.92459 0.0
In208 In 0.90022 0.56642 0.64607 0.0
O209 O 0.89868 0.5769 0.68145 0.0
O210 O 0.91207 0.53093 0.67157 0.0
C211 C 0.8721 0.62001 0.63314 0.0
C212 C 0.85813 0.52416 0.63151 0.0
C213 C 0.96077 0.57277 0.63316 0.0
O214 O 0.87703 0.61429 0.65238 0.0
O215 O 0.88056 0.59839 0.62072 0.0
O216 O 0.94725 0.54633 0.63388 0.0
O217 O 0.94404 0.59558 0.63906 0.0
C218 C 0.90658 0.54928 0.68672 0.0
O219 O 0.88218 0.53205 0.62103 0.0
O220 O 0.85518 0.53788 0.64897 0.0
In221 In 0.68748 0.6558 0.90118 0.0
O222 O 0.68714 0.65049 0.93709 0.0
O223 O 0.73032 0.662 0.92177 0.0
C224 C 0.63094 0.63339 0.88903 0.0
C225 C 0.72506 0.61146 0.88432 0.0
C226 C 0.67966 0.71776 0.8927 0.0
O227 O 0.63882 0.63426 0.90823 0.0
O228 O 0.65129 0.64411 0.87644 0.0
O229 O 0.69221 0.69915 0.8796 0.0
O230 O 0.67164 0.70514 0.90982 0.0
C231 C 0.71628 0.65629 0.93884 0.0
O232 O 0.73038 0.64058 0.88178 0.0
O233 O 0.70072 0.60503 0.89487 0.0
In234 In 0.61442 0.43049 0.16255 0.0
O235 O 0.64162 0.43666 0.19354 0.0
O236 O 0.59397 0.45137 0.19255 0.0
C237 C 0.63319 0.36998 0.1571 0.0
C238 C 0.64632 0.47895 0.14534 0.0
C239 C 0.55788 0.42646 0.14332 0.0
O240 O 0.61104 0.37761 0.16931 0.0
O241 O 0.64664 0.39289 0.14826 0.0
O242 O 0.58296 0.4315 0.13317 0.0
O243 O 0.56147 0.42398 0.16291 0.0
C244 C 0.61892 0.44942 0.20312 0.0
O245 O 0.61869 0.48197 0.1524 0.0
O246 O 0.65729 0.45137 0.14638 0.0
In247 In 0.82078 0.35123 0.40916 0.0
O248 O 0.82911 0.34969 0.44471 0.0
O249 O 0.78368 0.33762 0.43332 0.0
C250 C 0.87607 0.37982 0.39972 0.0
C251 C 0.77417 0.39023 0.39657 0.0
C252 C 0.83005 0.29316 0.39266 0.0
O253 O 0.86617 0.37706 0.41835 0.0
O254 O 0.85784 0.36877 0.38594 0.0
O255 O 0.81789 0.31539 0.38234 0.0
O256 O 0.83725 0.30013 0.41131 0.0
C257 C 0.80129 0.3414 0.44906 0.0
O258 O 0.7741 0.36106 0.39273 0.0
O259 O 0.7982 0.39992 0.40628 0.0
In260 In 0.90002 0.44533 0.83892 0.0
O261 O 0.8912 0.49269 0.85505 0.0
O262 O 0.85148 0.46593 0.84525 0.0
C263 C 0.96122 0.43516 0.84812 0.0
C264 C 0.90208 0.4637 0.79834 0.0
C265 C 0.87614 0.39154 0.85521 0.0
O266 O 0.94344 0.45126 0.85991 0.0
O267 O 0.94831 0.42506 0.8316 0.0
O268 O 0.87255 0.3988 0.83607 0.0
O269 O 0.89101 0.41162 0.86593 0.0
C270 C 0.86159 0.49099 0.85354 0.0
O271 O 0.89359 0.43624 0.80365 0.0
O272 O 0.9096 0.48146 0.81342 0.0
In273 In 0.81167 0.65053 0.09357 0.0
O274 O 0.812 0.6492 0.05756 0.0
O275 O 0.7702 0.66421 0.07315 0.0
C276 C 0.86721 0.62517 0.10491 0.0
C277 C 0.77406 0.60343 0.10634 0.0
C278 C 0.82128 0.70937 0.10841 0.0
O279 O 0.86105 0.63146 0.08589 0.0
O280 O 0.84558 0.6319 0.11778 0.0
O281 O 0.80402 0.68971 0.11793 0.0
O282 O 0.83275 0.69953 0.09131 0.0
C283 C 0.78369 0.6582 0.05593 0.0
O284 O 0.76993 0.63153 0.11248 0.0
O285 O 0.7971 0.59939 0.09409 0.0
In286 In 0.60757 0.56399 0.35207 0.0
O287 O 0.62822 0.55314 0.3194 0.0
O288 O 0.58194 0.53725 0.32629 0.0
C289 C 0.6277 0.62359 0.35785 0.0
C290 C 0.64896 0.52463 0.37083 0.0
C291 C 0.54865 0.57324 0.36681 0.0
O292 O 0.62528 0.61172 0.33966 0.0
O293 O 0.62017 0.60536 0.37269 0.0
O294 O 0.56842 0.55653 0.37668 0.0
O295 O 0.5586 0.58445 0.34968 0.0
C296 C 0.60415 0.53839 0.31318 0.0
O297 O 0.62139 0.51598 0.36617 0.0
O298 O 0.655 0.55296 0.36663 0.0
In299 In 0.688 0.34748 0.59757 0.0
O300 O 0.68167 0.34457 0.56213 0.0
O301 O 0.72703 0.33409 0.57456 0.0
C302 C 0.63239 0.37552 0.60693 0.0
C303 C 0.72967 0.39067 0.6116 0.0
C304 C 0.6808 0.28732 0.61093 0.0
O305 O 0.64354 0.37504 0.58855 0.0
O306 O 0.64942 0.36228 0.62049 0.0
O307 O 0.69993 0.30608 0.61953 0.0
O308 O 0.66602 0.29875 0.59556 0.0
C309 C 0.70993 0.33703 0.55844 0.0
O310 O 0.72199 0.36687 0.62236 0.0
O311 O 0.71621 0.39273 0.59402 0.0
In312 In 0.10439 0.44215 0.34354 0.0
O313 O 0.10791 0.44187 0.30761 0.0
O314 O 0.09467 0.48454 0.32285 0.0
C315 C 0.13111 0.38559 0.35175 0.0
C316 C 0.1439 0.48485 0.36062 0.0
C317 C 0.04349 0.43055 0.35362 0.0
O318 O 0.12997 0.39699 0.33341 0.0
O319 O 0.11916 0.40288 0.36581 0.0
O320 O 0.06261 0.44234 0.36663 0.0
O321 O 0.05506 0.42503 0.33574 0.0
C322 C 0.1005 0.4706 0.30578 0.0
O323 O 0.11455 0.48537 0.36393 0.0
O324 O 0.15333 0.46203 0.34953 0.0
In325 In 0.3265 0.36635 0.09347 0.0
O326 O 0.3332 0.37581 0.05825 0.0
O327 O 0.28847 0.35987 0.06915 0.0
C328 C 0.38203 0.38601 0.10896 0.0
C329 C 0.28542 0.40887 0.10864 0.0
C330 C 0.33239 0.30431 0.10196 0.0
O331 O 0.37652 0.38589 0.0894 0.0
O332 O 0.35957 0.37655 0.12033 0.0
O333 O 0.31943 0.32312 0.11471 0.0
O334 O 0.34157 0.3167 0.08503 0.0
C335 C 0.30511 0.36847 0.05375 0.0
O336 O 0.27979 0.37961 0.10897 0.0
O337 O 0.31196 0.41644 0.10129 0.0
In338 In 0.39958 0.57075 0.84439 0.0
O339 O 0.38939 0.52789 0.86508 0.0
O340 O 0.35066 0.55122 0.85068 0.0
C341 C 0.45713 0.57448 0.86231 0.0
C342 C 0.4006 0.54838 0.80449 0.0
C343 C 0.3812 0.63148 0.84963 0.0
O344 O 0.43215 0.57409 0.87314 0.0
O345 O 0.45293 0.57161 0.84277 0.0
O346 O 0.40724 0.62373 0.84165 0.0
O347 O 0.36369 0.6086 0.8545 0.0
C348 C 0.36004 0.52851 0.86185 0.0
O349 O 0.39289 0.57639 0.80873 0.0
O350 O 0.40828 0.53211 0.8202 0.0
In351 In 0.19327 0.64646 0.59679 0.0
O352 O 0.23541 0.62781 0.61523 0.0
O353 O 0.20426 0.59456 0.60112 0.0
C354 C 0.18997 0.70262 0.61702 0.0
C355 C 0.22246 0.65016 0.55904 0.0
C356 C 0.13201 0.62958 0.59916 0.0
O357 O 0.19223 0.67686 0.62682 0.0
O358 O 0.19026 0.69992 0.59731 0.0
O359 O 0.14184 0.64994 0.58623 0.0
O360 O 0.15305 0.61745 0.61053 0.0
C361 C 0.22899 0.5992 0.61165 0.0
O362 O 0.19405 0.64171 0.56082 0.0
O363 O 0.23566 0.65716 0.57612 0.0
In364 In 0.09798 0.56184 0.14963 0.0
O365 O 0.10355 0.56263 0.18556 0.0
O366 O 0.08738 0.52051 0.17116 0.0
C367 C 0.1173 0.62245 0.1471 0.0
C368 C 0.14041 0.52214 0.13281 0.0
C369 C 0.04122 0.56723 0.13087 0.0
O370 O 0.09312 0.61426 0.15726 0.0
O371 O 0.13223 0.60006 0.1387 0.0
O372 O 0.06655 0.5673 0.12043 0.0
O373 O 0.04472 0.56328 0.15036 0.0
C374 C 0.09497 0.53435 0.1879 0.0
O375 O 0.11146 0.52067 0.12826 0.0
O376 O 0.14784 0.54429 0.14509 0.0
In377 In 0.18436 0.36427 0.90744 0.0
O378 O 0.23039 0.37821 0.89091 0.0
O379 O 0.19595 0.41372 0.89626 0.0
C380 C 0.17848 0.30193 0.89889 0.0
C381 C 0.20792 0.367 0.9467 0.0
C382 C 0.12668 0.38585 0.8973 0.0
O383 O 0.18889 0.32122 0.88543 0.0
O384 O 0.17178 0.31405 0.91641 0.0
O385 O 0.13786 0.38848 0.91563 0.0
O386 O 0.14453 0.37218 0.88426 0.0
C387 C 0.22295 0.40696 0.88937 0.0
O388 O 0.17888 0.37027 0.94296 0.0
O389 O 0.22483 0.36226 0.93069 0.0
In390 In 0.40023 0.4303 0.65706 0.0
O391 O 0.39223 0.42346 0.6925 0.0
O392 O 0.40682 0.46851 0.68144 0.0
C393 C 0.37735 0.37608 0.6408 0.0
C394 C 0.36264 0.47507 0.64072 0.0
C395 C 0.46227 0.42131 0.65002 0.0
O396 O 0.37302 0.38353 0.65985 0.0
O397 O 0.39261 0.39606 0.63022 0.0
O398 O 0.44507 0.43665 0.63749 0.0
O399 O 0.44826 0.41102 0.66611 0.0
C400 C 0.39921 0.45169 0.69696 0.0
O401 O 0.39231 0.47645 0.63951 0.0
O402 O 0.35201 0.45059 0.64949 0.0
In403 In 0.31657 0.65342 0.40339 0.0
O404 O 0.27302 0.6373 0.38509 0.0
O405 O 0.30565 0.60244 0.39535 0.0
C406 C 0.32234 0.71545 0.39426 0.0
C407 C 0.28868 0.65285 0.44146 0.0
C408 C 0.37448 0.63423 0.3916 0.0
O409 O 0.31034 0.69608 0.38146 0.0
O410 O 0.33058 0.7036 0.41158 0.0
O411 O 0.36499 0.63147 0.41041 0.0
O412 O 0.35483 0.64648 0.37917 0.0
C413 C 0.27995 0.60836 0.38627 0.0
O414 O 0.31794 0.64801 0.43934 0.0
O415 O 0.27415 0.65836 0.42459 0.0
H416 H 0.35618 0.98356 0.27484 0.0
H417 H 0.45687 0.9858 0.28338 0.0
H418 H 0.46317 0.0134 0.2499 0.0
H419 H 0.44006 0.03691 0.21821 0.0
H420 H 0.33916 0.03752 0.21054 0.0
H421 H 0.33285 0.00918 0.24375 0.0
C422 C 0.37947 0.98994 0.26925 0.0
C423 C 0.40605 0.98244 0.28138 0.0
C424 C 0.38284 0.00657 0.25027 0.0
C425 C 0.43608 0.99129 0.27422 0.0
C426 C 0.4397 0.0071 0.25513 0.0
C427 C 0.4167 0.03099 0.22388 0.0
C428 C 0.39013 0.03925 0.21196 0.0
C429 C 0.41324 0.01495 0.24305 0.0
C430 C 0.35998 0.03156 0.21951 0.0
C431 C 0.35636 0.0152 0.23844 0.0
H432 H 0.23087 0.15419 0.54101 0.0
H433 H 0.32585 0.16539 0.51802 0.0
H434 H 0.30655 0.16652 0.48185 0.0
H435 H 0.26303 0.16232 0.45678 0.0
H436 H 0.1682 0.14865 0.47946 0.0
H437 H 0.18708 0.15036 0.51579 0.0
C438 C 0.24726 0.15723 0.52808 0.0
C439 C 0.2797 0.15985 0.53214 0.0
C440 C 0.23606 0.15712 0.50731 0.0
C441 C 0.30076 0.16336 0.51526 0.0
C442 C 0.28976 0.16394 0.49459 0.0
C443 C 0.24646 0.15981 0.46967 0.0
C444 C 0.21428 0.15534 0.46547 0.0
C445 C 0.25752 0.16048 0.49043 0.0
C446 C 0.19312 0.15201 0.48231 0.0
C447 C 0.20389 0.15305 0.50307 0.0
H448 H 0.10183 0.98922 0.80078 0.0
H449 H 0.09212 0.08199 0.77381 0.0
H450 H 0.09153 0.0591 0.73847 0.0
H451 H 0.09512 0.01281 0.71529 0.0
H452 H 0.10786 0.92041 0.74228 0.0
H453 H 0.10583 0.94305 0.77764 0.0
C454 C 0.0994 0.00441 0.78717 0.0
C455 C 0.09689 0.03723 0.78987 0.0
C456 C 0.09968 0.99115 0.76695 0.0
C457 C 0.09409 0.05666 0.7721 0.0
C458 C 0.09375 0.04359 0.75192 0.0
C459 C 0.09722 0.99762 0.72893 0.0
C460 C 0.10148 0.96498 0.72622 0.0
C461 C 0.09669 0.01088 0.74916 0.0
C462 C 0.10456 0.94561 0.74399 0.0
C463 C 0.10341 0.95853 0.76419 0.0
H464 H 0.30844 0.84228 0.98314 0.0
H465 H 0.21894 0.84504 0.9513 0.0
H466 H 0.19135 0.84336 0.98508 0.0
H467 H 0.19282 0.84271 0.02394 0.0
H468 H 0.28263 0.83673 0.05532 0.0
H469 H 0.30985 0.83789 0.02158 0.0
C470 C 0.2829 0.8424 0.98363 0.0
C471 C 0.26574 0.84399 0.96484 0.0
C472 C 0.26722 0.84085 0.00306 0.0
C473 C 0.23266 0.84377 0.96562 0.0
C474 C 0.21687 0.8429 0.98492 0.0
C475 C 0.21831 0.84149 0.02332 0.0
C476 C 0.23567 0.83978 0.04207 0.0
C477 C 0.23391 0.84167 0.00377 0.0
C478 C 0.2687 0.83796 0.04109 0.0
C479 C 0.28434 0.83874 0.0218 0.0
H480 H 0.59671 0.94174 0.7695 0.0
H481 H 0.57754 0.03023 0.80044 0.0
H482 H 0.57938 0.05763 0.76673 0.0
H483 H 0.58753 0.0567 0.72838 0.0
H484 H 0.60417 0.96785 0.69732 0.0
H485 H 0.60241 0.94044 0.73105 0.0
C486 C 0.59274 0.96697 0.76882 0.0
C487 C 0.58705 0.9839 0.78741 0.0
C488 C 0.59361 0.98259 0.74935 0.0
C489 C 0.58184 0.0166 0.78631 0.0
C490 C 0.58304 0.03235 0.76705 0.0
C491 C 0.59086 0.03137 0.72906 0.0
C492 C 0.59618 0.01434 0.71047 0.0
C493 C 0.58915 0.01564 0.74848 0.0
C494 C 0.60004 0.98146 0.71147 0.0
C495 C 0.59903 0.96576 0.73074 0.0
H496 H 0.76579 0.85124 0.45907 0.0
H497 H 0.67283 0.86246 0.48554 0.0
H498 H 0.69508 0.86267 0.52096 0.0
H499 H 0.74086 0.85985 0.54432 0.0
H500 H 0.83408 0.8504 0.51799 0.0
H501 H 0.81181 0.84931 0.48251 0.0
C502 C 0.75041 0.85366 0.47261 0.0
C503 C 0.7177 0.85672 0.46972 0.0
C504 C 0.7634 0.85409 0.49289 0.0
C505 C 0.69807 0.86008 0.48737 0.0
C506 C 0.71078 0.86018 0.50761 0.0
C507 C 0.75631 0.85747 0.53082 0.0
C508 C 0.78906 0.85507 0.53375 0.0
C509 C 0.74339 0.85721 0.51054 0.0
C510 C 0.8088 0.85227 0.51612 0.0
C511 C 0.79607 0.85162 0.49585 0.0
H512 H 0.90783 0.98215 0.29175 0.0
H513 H 0.89862 0.07765 0.26925 0.0
H514 H 0.90098 0.05891 0.23291 0.0
H515 H 0.90518 0.01539 0.2076 0.0
H516 H 0.91245 0.9197 0.23001 0.0
H517 H 0.91137 0.93852 0.26639 0.0
C518 C 0.90643 0.99887 0.27888 0.0
C519 C 0.90316 0.03126 0.28316 0.0
C520 C 0.90744 0.98789 0.25806 0.0
C521 C 0.90114 0.05261 0.26635 0.0
C522 C 0.90251 0.04191 0.24559 0.0
C523 C 0.90666 0.99866 0.22045 0.0
C524 C 0.90902 0.96621 0.21614 0.0
C525 C 0.90561 0.00962 0.24127 0.0
C526 C 0.91063 0.94479 0.23294 0.0
C527 C 0.91002 0.95554 0.25372 0.0
H528 H 0.77546 0.11812 0.96645 0.0
H529 H 0.76018 0.21785 0.95862 0.0
H530 H 0.73301 0.22009 0.99263 0.0
H531 H 0.71428 0.19354 0.02487 0.0
H532 H 0.7269 0.09307 0.03129 0.0
H533 H 0.75394 0.09114 0.99745 0.0
C534 C 0.76635 0.14035 0.97229 0.0
C535 C 0.77018 0.16787 0.96029 0.0
C536 C 0.74998 0.14124 0.99149 0.0
C537 C 0.75766 0.19642 0.96773 0.0
C538 C 0.74208 0.19767 0.98711 0.0
C539 C 0.72268 0.17121 0.01874 0.0
C540 C 0.71864 0.14352 0.03061 0.0
C541 C 0.73809 0.17021 0.99914 0.0
C542 C 0.72958 0.11472 0.02244 0.0
C543 C 0.74524 0.11361 0.00314 0.0
H544 H 0.90524 0.48903 0.70059 0.0
H545 H 0.90903 0.58532 0.72226 0.0
H546 H 0.90874 0.56715 0.7588 0.0
H547 H 0.90657 0.5239 0.78449 0.0
H548 H 0.89971 0.42779 0.76276 0.0
H549 H 0.90193 0.44587 0.72626 0.0
C550 C 0.90622 0.50603 0.71333 0.0
C551 C 0.9074 0.53846 0.70878 0.0
C552 C 0.90533 0.49543 0.73423 0.0
C553 C 0.90819 0.56024 0.7254 0.0
C554 C 0.908 0.54986 0.74626 0.0
C555 C 0.90565 0.50691 0.77175 0.0
C556 C 0.90311 0.47454 0.77628 0.0
C557 C 0.90644 0.51752 0.75085 0.0
C558 C 0.90162 0.45282 0.75965 0.0
C559 C 0.90295 0.46315 0.7388 0.0
H560 H 0.80844 0.65387 0.01656 0.0
H561 H 0.72074 0.6657 0.04997 0.0
H562 H 0.69187 0.66543 0.01681 0.0
H563 H 0.69139 0.66111 0.97818 0.0
H564 H 0.77935 0.65162 0.94477 0.0
H565 H 0.80816 0.65158 0.97794 0.0
C566 C 0.78303 0.65651 0.01655 0.0
C567 C 0.76677 0.65974 0.03567 0.0
C568 C 0.76657 0.6566 0.9974 0.0
C569 C 0.73385 0.66328 0.03543 0.0
C570 C 0.71728 0.66301 0.01648 0.0
C571 C 0.71684 0.65897 0.97822 0.0
C572 C 0.7332 0.65623 0.95911 0.0
C573 C 0.73336 0.65952 0.99736 0.0
C574 C 0.76622 0.65381 0.95931 0.0
C575 C 0.78273 0.65376 0.97827 0.0
H576 H 0.6524 0.5171 0.28877 0.0
H577 H 0.55113 0.52363 0.29173 0.0
H578 H 0.54676 0.49591 0.2582 0.0
H579 H 0.57159 0.47009 0.22801 0.0
H580 H 0.67267 0.46101 0.22545 0.0
H581 H 0.6773 0.489 0.25899 0.0
C582 C 0.62944 0.51259 0.28195 0.0
C583 C 0.60213 0.52263 0.29254 0.0
C584 C 0.62707 0.49592 0.26289 0.0
C585 C 0.57247 0.5162 0.2838 0.0
C586 C 0.56995 0.50031 0.26467 0.0
C587 C 0.59463 0.47405 0.23486 0.0
C588 C 0.62174 0.46356 0.22428 0.0
C589 C 0.59707 0.49001 0.25411 0.0
C590 C 0.65143 0.46874 0.23337 0.0
C591 C 0.65409 0.4849 0.25247 0.0
H592 H 0.77124 0.33655 0.54623 0.0
H593 H 0.6764 0.33147 0.52222 0.0
H594 H 0.69656 0.33046 0.48623 0.0
H595 H 0.74086 0.33374 0.4616 0.0
H596 H 0.83563 0.34166 0.48535 0.0
H597 H 0.81582 0.33875 0.52145 0.0
C598 C 0.75504 0.33487 0.53311 0.0
C599 C 0.7224 0.33404 0.53685 0.0
C600 C 0.76677 0.335 0.51244 0.0
C601 C 0.70163 0.33219 0.51973 0.0
C602 C 0.71313 0.33164 0.49915 0.0
C603 C 0.75721 0.33457 0.47467 0.0
C604 C 0.78965 0.33791 0.47084 0.0
C605 C 0.74561 0.33346 0.49533 0.0
C606 C 0.81053 0.33915 0.48792 0.0
C607 C 0.79922 0.33749 0.50855 0.0
H608 H 0.09719 0.44447 0.26687 0.0
H609 H 0.10098 0.53385 0.29912 0.0
H610 H 0.09989 0.56169 0.26551 0.0
H611 H 0.09825 0.56063 0.22684 0.0
H612 H 0.09177 0.47127 0.19473 0.0
H613 H 0.09343 0.44348 0.22831 0.0
C614 C 0.09779 0.47003 0.26649 0.0
C615 C 0.09929 0.48709 0.28538 0.0
C616 C 0.09663 0.4859 0.24714 0.0
C617 C 0.09976 0.5202 0.28474 0.0
C618 C 0.09919 0.53615 0.26554 0.0
C619 C 0.09716 0.53509 0.22724 0.0
C620 C 0.09499 0.51802 0.20838 0.0
C621 C 0.09768 0.51925 0.24663 0.0
C622 C 0.09336 0.48494 0.20908 0.0
C623 C 0.09439 0.46901 0.22826 0.0
H624 H 0.24383 0.3661 0.04273 0.0
H625 H 0.33735 0.37396 0.01666 0.0
H626 H 0.31537 0.37432 0.98106 0.0
H627 H 0.26952 0.37135 0.95748 0.0
H628 H 0.17603 0.36527 0.98387 0.0
H629 H 0.19808 0.36533 0.01934 0.0
C630 C 0.25942 0.36789 0.02925 0.0
C631 C 0.29217 0.36976 0.03225 0.0
C632 C 0.24662 0.36839 0.00896 0.0
C633 C 0.31206 0.37245 0.0147 0.0
C634 C 0.29951 0.3726 0.99438 0.0
C635 C 0.254 0.37007 0.97101 0.0
C636 C 0.22122 0.36811 0.9681 0.0
C637 C 0.26683 0.37041 0.99134 0.0
C638 C 0.20134 0.36678 0.98573 0.0
C639 C 0.21393 0.36675 0.006 0.0
H640 H 0.40048 0.48672 0.79343 0.0
H641 H 0.39915 0.58065 0.76746 0.0
H642 H 0.39876 0.5588 0.73184 0.0
H643 H 0.39917 0.51309 0.70821 0.0
H644 H 0.39785 0.41908 0.73403 0.0
H645 H 0.39876 0.44087 0.76971 0.0
C646 C 0.40019 0.50239 0.77995 0.0
C647 C 0.4001 0.53524 0.783 0.0
C648 C 0.39941 0.48965 0.75958 0.0
C649 C 0.39928 0.55529 0.76546 0.0
C650 C 0.39907 0.54281 0.74513 0.0
C651 C 0.3991 0.49736 0.72165 0.0
C652 C 0.39867 0.46453 0.71854 0.0
C653 C 0.3992 0.51005 0.74202 0.0
C654 C 0.39818 0.44443 0.73606 0.0
C655 C 0.39877 0.45688 0.75643 0.0
H656 H 0.19748 0.64677 0.51979 0.0
H657 H 0.28562 0.65576 0.55287 0.0
H658 H 0.3142 0.65662 0.51951 0.0
H659 H 0.31418 0.65492 0.48076 0.0
H660 H 0.22569 0.6483 0.44783 0.0
H661 H 0.19733 0.64638 0.48118 0.0
C662 C 0.22294 0.6489 0.51967 0.0
C663 C 0.2394 0.65113 0.53873 0.0
C664 C 0.23921 0.6498 0.50042 0.0
C665 C 0.27238 0.65409 0.53836 0.0
C666 C 0.28877 0.65452 0.5193 0.0
C667 C 0.28872 0.653 0.48094 0.0
C668 C 0.27209 0.6517 0.46188 0.0
C669 C 0.27244 0.65239 0.50021 0.0
C670 C 0.23905 0.64944 0.4623 0.0
C671 C 0.22278 0.6483 0.48137 0.0
H672 H 0.35583 0.97053 0.1471 0.0
H673 H 0.31638 0.03834 0.10403 0.0
H674 H 0.27456 1.0013 0.09478 0.0
H675 H 0.24834 0.95044 0.09977 0.0
H676 H 0.2864 0.88313 0.14378 0.0
H677 H 0.32949 0.91933 0.15205 0.0
C678 C 0.3383 0.97697 0.13549 0.0
C679 C 0.33925 0.00697 0.12612 0.0
C680 C 0.31388 0.95586 0.13066 0.0
C681 C 0.31615 0.0153 0.11137 0.0
C682 C 0.29218 0.99421 0.10615 0.0
C683 C 0.26602 0.94371 0.11122 0.0
C684 C 0.26415 0.91422 0.12121 0.0
C685 C 0.29062 0.9646 0.11589 0.0
C686 C 0.28724 0.9058 0.13597 0.0
C687 C 0.31195 0.92642 0.14063 0.0
H688 H 0.28809 0.11121 0.38533 0.0
H689 H 0.20814 0.05022 0.37562 0.0
H690 H 0.24305 0.00706 0.36567 0.0
H691 H 0.29603 0.98639 0.36 0.0
H692 H 0.37675 0.04578 0.37103 0.0
H693 H 0.34193 0.08969 0.38046 0.0
C694 C 0.27842 0.08852 0.38085 0.0
C695 C 0.24561 0.08393 0.38104 0.0
C696 C 0.29875 0.06346 0.37562 0.0
C697 C 0.23332 0.05431 0.37555 0.0
C698 C 0.25326 0.0296 0.36991 0.0
C699 C 0.30605 0.0089 0.36455 0.0
C700 C 0.3389 0.01284 0.36481 0.0
C701 C 0.28597 0.03385 0.37 0.0
C702 C 0.35151 0.04212 0.37081 0.0
C703 C 0.33161 0.06726 0.37609 0.0
H704 H 0.16378 0.99801 0.61485 0.0
H705 H 0.19257 0.0047 0.67966 0.0
H706 H 0.23041 0.04599 0.67061 0.0
H707 H 0.25602 0.07965 0.64407 0.0
H708 H 0.23075 0.06935 0.5788 0.0
H709 H 0.1909 0.03013 0.58811 0.0
C710 C 0.17829 0.00866 0.62694 0.0
C711 C 0.17538 0.99857 0.64787 0.0
C712 C 0.20066 0.03168 0.62152 0.0
C713 C 0.19454 0.01212 0.66342 0.0
C714 C 0.21611 0.03574 0.65827 0.0
C715 C 0.24165 0.06885 0.63195 0.0
C716 C 0.24608 0.07739 0.61084 0.0
C717 C 0.21947 0.04563 0.63735 0.0
C718 C 0.22772 0.06301 0.59518 0.0
C719 C 0.20492 0.04065 0.60049 0.0
H720 H 0.20499 0.03172 0.8729 0.0
H721 H 0.12581 0.96809 0.87106 0.0
H722 H 0.16062 0.9235 0.87803 0.0
H723 H 0.21367 0.90244 0.88451 0.0
H724 H 0.29228 0.96627 0.88929 0.0
H725 H 0.25779 0.01091 0.88113 0.0
C726 C 0.19541 0.00809 0.87414 0.0
C727 C 0.16293 0.00317 0.87145 0.0
C728 C 0.21551 0.98259 0.87849 0.0
C729 C 0.15072 0.9725 0.8732 0.0
C730 C 0.17063 0.94696 0.87706 0.0
C731 C 0.22321 0.92612 0.88357 0.0
C732 C 0.25543 0.93115 0.88719 0.0
C733 C 0.20307 0.9517 0.87963 0.0
C734 C 0.26751 0.96194 0.88643 0.0
C735 C 0.24782 0.98741 0.88182 0.0
H736 H 0.73394 0.07557 0.90941 0.0
H737 H 0.74426 0.11103 0.84622 0.0
H738 H 0.70672 0.07168 0.83346 0.0
H739 H 0.67163 0.02683 0.84025 0.0
H740 H 0.65819 0.99369 0.90371 0.0
H741 H 0.69636 0.03257 0.91651 0.0
C742 C 0.7279 0.07464 0.89285 0.0
C743 C 0.74194 0.09592 0.87871 0.0
C744 C 0.70587 0.05241 0.88574 0.0
C745 C 0.73368 0.09487 0.85736 0.0
C746 C 0.71233 0.07235 0.85007 0.0
C747 C 0.67715 0.0281 0.85688 0.0
C748 C 0.66249 0.0073 0.87103 0.0
C749 C 0.69842 0.05093 0.8641 0.0
C750 C 0.66931 0.00948 0.89256 0.0
C751 C 0.69111 0.03164 0.89985 0.0
H752 H 0.70436 0.02201 0.63523 0.0
H753 H 0.62851 0.95884 0.61913 0.0
H754 H 0.6665 0.91731 0.61087 0.0
H755 H 0.72129 0.89867 0.60893 0.0
H756 H 0.79717 0.96272 0.62315 0.0
H757 H 0.75916 0.00419 0.63169 0.0
C758 C 0.69618 0.99921 0.62978 0.0
C759 C 0.66372 0.99343 0.62783 0.0
C760 C 0.71813 0.97555 0.62497 0.0
C761 C 0.65341 0.96387 0.62066 0.0
C762 C 0.6751 0.94007 0.61606 0.0
C763 C 0.72943 0.92166 0.61406 0.0
C764 C 0.76187 0.92762 0.61571 0.0
C765 C 0.70749 0.94556 0.61836 0.0
C766 C 0.77225 0.95763 0.62192 0.0
C767 C 0.75055 0.98132 0.62673 0.0
H768 H 0.72476 0.9566 0.38532 0.0
H769 H 0.78403 0.87451 0.37916 0.0
H770 H 0.82858 0.90791 0.36929 0.0
H771 H 0.85099 0.96072 0.36312 0.0
H772 H 0.79086 0.04238 0.36769 0.0
H773 H 0.74642 0.00896 0.37762 0.0
C774 C 0.74739 0.94603 0.38169 0.0
C775 C 0.75114 0.91319 0.383 0.0
C776 C 0.77281 0.96533 0.37592 0.0
C777 C 0.78053 0.89976 0.37817 0.0
C778 C 0.80605 0.91884 0.37264 0.0
C779 C 0.82817 0.97112 0.3664 0.0
C780 C 0.8242 0.00391 0.36488 0.0
C781 C 0.80254 0.95168 0.37164 0.0
C782 C 0.79444 0.01715 0.36881 0.0
C783 C 0.76904 0.99808 0.37447 0.0
H784 H 0.73664 0.04755 0.11765 0.0
H785 H 0.80056 0.12658 0.11745 0.0
H786 H 0.84444 0.0914 0.12595 0.0
H787 H 0.86466 0.03784 0.13298 0.0
H788 H 0.79996 0.95941 0.13374 0.0
H789 H 0.75641 0.99466 0.12525 0.0
C790 C 0.76014 0.05713 0.11958 0.0
C791 C 0.76536 0.0896 0.11694 0.0
C792 C 0.78516 0.03682 0.12437 0.0
C793 C 0.79594 0.10166 0.11948 0.0
C794 C 0.82104 0.08154 0.12425 0.0
C795 C 0.84105 0.02851 0.13114 0.0
C796 C 0.83553 0.99608 0.13385 0.0
C797 C 0.81596 0.04903 0.12658 0.0
C798 C 0.80479 0.9843 0.1317 0.0
C799 C 0.77986 0.00443 0.12689 0.0
H800 H 0.76584 0.42842 0.58731 0.0
H801 H 0.74542 0.40528 0.65193 0.0
H802 H 0.78287 0.4454 0.6638 0.0
H803 H 0.82117 0.48718 0.65571 0.0
H804 H 0.84479 0.50733 0.59114 0.0
H805 H 0.80632 0.46818 0.57923 0.0
C806 C 0.76961 0.43225 0.60399 0.0
C807 C 0.7528 0.41422 0.61877 0.0
C808 C 0.79169 0.45474 0.61064 0.0
C809 C 0.75816 0.41895 0.64031 0.0
C810 C 0.77947 0.44189 0.64708 0.0
C811 C 0.81779 0.483 0.63903 0.0
C812 C 0.83546 0.50021 0.62427 0.0
C813 C 0.7963 0.45996 0.63238 0.0
C814 C 0.83136 0.49431 0.60274 0.0
C815 C 0.80937 0.47201 0.59596 0.0
H816 H 0.79815 0.48878 0.8574 0.0
H817 H 0.87754 0.55151 0.86351 0.0
H818 H 0.84208 0.59512 0.87216 0.0
H819 H 0.78828 0.6153 0.8783 0.0
H820 H 0.70954 0.55141 0.87428 0.0
H821 H 0.74485 0.50846 0.86424 0.0
C822 C 0.80768 0.51199 0.86067 0.0
C823 C 0.84037 0.51694 0.85982 0.0
C824 C 0.78723 0.53679 0.86583 0.0
C825 C 0.85243 0.54709 0.86418 0.0
C826 C 0.83217 0.57206 0.86902 0.0
C827 C 0.77893 0.59203 0.87497 0.0
C828 C 0.74642 0.58649 0.87679 0.0
C829 C 0.7995 0.5672 0.86985 0.0
C830 C 0.73453 0.55617 0.87288 0.0
C831 C 0.75469 0.53161 0.86721 0.0
H832 H 0.71545 0.6066 0.12362 0.0
H833 H 0.78664 0.54105 0.10271 0.0
H834 H 0.75296 0.49679 0.11235 0.0
H835 H 0.70372 0.47663 0.12705 0.0
H836 H 0.63157 0.54157 0.14722 0.0
H837 H 0.665 0.58616 0.13732 0.0
C838 C 0.72355 0.58261 0.12127 0.0
C839 C 0.7535 0.57706 0.11261 0.0
C840 C 0.70385 0.5572 0.12656 0.0
C841 C 0.76365 0.5459 0.10938 0.0
C842 C 0.74442 0.52057 0.11486 0.0
C843 C 0.69523 0.50054 0.12916 0.0
C844 C 0.6653 0.50583 0.13787 0.0
C845 C 0.71452 0.52595 0.12346 0.0
C846 C 0.65454 0.53692 0.14047 0.0
C847 C 0.67369 0.56241 0.13491 0.0
H848 H 0.77019 0.45348 0.40216 0.0
H849 H 0.71832 0.3735 0.37862 0.0
H850 H 0.67382 0.40766 0.37003 0.0
H851 H 0.65014 0.46066 0.36835 0.0
H852 H 0.70314 0.54068 0.39064 0.0
H853 H 0.74647 0.50612 0.40083 0.0
C854 C 0.74915 0.44354 0.39514 0.0
C855 C 0.74759 0.41106 0.39096 0.0
C856 C 0.72374 0.46332 0.39015 0.0
C857 C 0.72016 0.39849 0.38189 0.0
C858 C 0.69466 0.41798 0.37704 0.0
C859 C 0.67102 0.4704 0.3757 0.0
C860 C 0.67342 0.50309 0.37885 0.0
C861 C 0.6962 0.45046 0.38105 0.0
C862 C 0.70076 0.51554 0.3881 0.0
C863 C 0.72558 0.49583 0.39386 0.0
H864 H 0.20773 0.48486 0.35987 0.0
H865 H 0.12766 0.54275 0.37581 0.0
H866 H 0.16265 0.58697 0.38374 0.0
H867 H 0.21617 0.6093 0.38593 0.0
H868 H 0.2962 0.55022 0.37222 0.0
H869 H 0.26113 0.50646 0.36332 0.0
C870 C 0.19797 0.5071 0.36521 0.0
C871 C 0.16518 0.51055 0.36726 0.0
C872 C 0.21822 0.53231 0.36987 0.0
C873 C 0.15285 0.53945 0.37424 0.0
C874 C 0.17282 0.56481 0.37864 0.0
C875 C 0.22581 0.58693 0.38074 0.0
C876 C 0.25861 0.583 0.3794 0.0
C877 C 0.20553 0.56158 0.37636 0.0
C878 C 0.27097 0.55375 0.37318 0.0
C879 C 0.25096 0.52873 0.36819 0.0
H880 H 0.22193 0.4042 0.10644 0.0
H881 H 0.29698 0.46733 0.12403 0.0
H882 H 0.2586 0.50834 0.1327 0.0
H883 H 0.20382 0.52619 0.13515 0.0
H884 H 0.12871 0.46442 0.11555 0.0
H885 H 0.16699 0.42302 0.10742 0.0
C886 C 0.22975 0.42686 0.11236 0.0
C887 C 0.26207 0.43274 0.1149 0.0
C888 C 0.20762 0.45062 0.11666 0.0
C889 C 0.27213 0.46233 0.12211 0.0
C890 C 0.25024 0.48577 0.12699 0.0
C891 C 0.19586 0.50373 0.12897 0.0
C892 C 0.16354 0.4983 0.12597 0.0
C893 C 0.21796 0.48021 0.12424 0.0
C894 C 0.15352 0.46918 0.11787 0.0
C895 C 0.17536 0.44546 0.11336 0.0
H896 H 0.29639 0.52777 0.85936 0.0
H897 H 0.37571 0.47214 0.87974 0.0
H898 H 0.34043 0.42858 0.88874 0.0
H899 H 0.28683 0.40626 0.89075 0.0
H900 H 0.20759 0.46321 0.87201 0.0
H901 H 0.24304 0.50613 0.86213 0.0
C902 C 0.30594 0.50617 0.86588 0.0
C903 C 0.33858 0.50318 0.8689 0.0
C904 C 0.28555 0.48133 0.87107 0.0
C905 C 0.35062 0.47508 0.87739 0.0
C906 C 0.33049 0.4501 0.88241 0.0
C907 C 0.27746 0.42795 0.88425 0.0
C908 C 0.24476 0.43153 0.88185 0.0
C909 C 0.29792 0.45288 0.8792 0.0
C910 C 0.23274 0.45993 0.87387 0.0
C911 C 0.25296 0.48449 0.8683 0.0
H912 H 0.29935 0.47356 0.63556 0.0
H913 H 0.37981 0.53532 0.63135 0.0
H914 H 0.3453 0.57975 0.62312 0.0
H915 H 0.29207 0.60113 0.61745 0.0
H916 H 0.21207 0.53862 0.61943 0.0
H917 H 0.24648 0.49441 0.62844 0.0
C918 C 0.30931 0.49672 0.63273 0.0
C919 C 0.34202 0.50121 0.63408 0.0
C920 C 0.28938 0.52204 0.62783 0.0
C921 C 0.35468 0.53127 0.63028 0.0
C922 C 0.33496 0.55671 0.6257 0.0
C923 C 0.28224 0.57785 0.62005 0.0
C924 C 0.24966 0.57308 0.61807 0.0
C925 C 0.30226 0.55241 0.62457 0.0
C926 C 0.23713 0.54277 0.621 0.0
C927 C 0.25677 0.51752 0.62609 0.0
H928 H 0.37193 0.16174 0.10676 0.0
H929 H 0.36027 0.17886 0.17317 0.0
H930 H 0.34259 0.23273 0.1658 0.0
H931 H 0.33243 0.27561 0.14032 0.0
H932 H 0.34642 0.25808 0.07412 0.0
H933 H 0.36089 0.2036 0.08155 0.0
C934 C 0.36542 0.17719 0.11964 0.0
C935 C 0.36749 0.16639 0.14047 0.0
C936 C 0.35562 0.20804 0.1153 0.0
C937 C 0.35898 0.1867 0.15699 0.0
C938 C 0.34884 0.21746 0.15278 0.0
C939 C 0.3383 0.25969 0.12755 0.0
C940 C 0.33834 0.27079 0.10671 0.0
C941 C 0.34728 0.22847 0.13198 0.0
C942 C 0.34629 0.25009 0.0903 0.0
C943 C 0.35462 0.21895 0.09453 0.0
H944 H 0.08445 0.0944 0.40728 0.0
H945 H 0.10481 0.14322 0.34929 0.0
H946 H 0.0549 0.12555 0.33456 0.0
H947 H 0.00473 0.09801 0.33846 0.0
H948 H 0.98356 0.04887 0.39613 0.0
H949 H 0.03468 0.0645 0.41057 0.0
C950 C 0.07793 0.1011 0.39142 0.0
C951 C 0.09821 0.12027 0.37945 0.0
C952 C 0.04914 0.0907 0.38295 0.0
C953 C 0.08959 0.12857 0.35886 0.0
C954 C 0.06105 0.11846 0.3504 0.0
C955 C 0.01139 0.09045 0.35413 0.0
C956 C 0.99037 0.07238 0.36623 0.0
C957 C 0.04057 0.09973 0.36234 0.0
C958 C 0.99938 0.06273 0.38648 0.0
C959 C 0.02853 0.0718 0.39478 0.0
H960 H 0.15273 0.82107 0.67204 0.0
H961 H 0.15649 0.86499 0.61087 0.0
H962 H 0.17457 0.81579 0.59526 0.0
H963 H 0.18605 0.75966 0.59839 0.0
H964 H 0.18158 0.71446 0.65905 0.0
H965 H 0.16739 0.76478 0.67548 0.0
C966 C 0.15782 0.81989 0.65535 0.0
C967 C 0.15307 0.84661 0.64263 0.0
C968 C 0.16799 0.79128 0.64636 0.0
C969 C 0.15977 0.84475 0.62101 0.0
C970 C 0.17011 0.8166 0.61204 0.0
C971 C 0.18227 0.76083 0.61525 0.0
C972 C 0.1847 0.73335 0.62747 0.0
C973 C 0.1738 0.78963 0.62448 0.0
C974 C 0.17984 0.73531 0.6493 0.0
C975 C 0.17162 0.76405 0.65868 0.0
H976 H 0.51562 0.88575 0.88351 0.0
H977 H 0.48725 0.97279 0.85425 0.0
H978 H 0.43217 0.96231 0.86361 0.0
H979 H 0.39187 0.92704 0.87908 0.0
H980 H 0.42139 0.84291 0.9115 0.0
H981 H 0.47626 0.85351 0.9021 0.0
C982 C 0.49732 0.90245 0.87932 0.0
C983 C 0.50519 0.92979 0.86807 0.0
C984 C 0.466 0.89671 0.88531 0.0
C985 C 0.48155 0.95158 0.86295 0.0
C986 C 0.45012 0.94553 0.86823 0.0
C987 C 0.41043 0.91123 0.88416 0.0
C988 C 0.40277 0.88414 0.89579 0.0
C989 C 0.44203 0.91801 0.87923 0.0
C990 C 0.42688 0.86395 0.90257 0.0
C991 C 0.45819 0.86993 0.89714 0.0
H992 H 0.32084 0.74382 0.35573 0.0
H993 H 0.33804 0.76217 0.42145 0.0
H994 H 0.35258 0.81643 0.41333 0.0
H995 H 0.36315 0.85789 0.38752 0.0
H996 H 0.3481 0.83967 0.32157 0.0
H997 H 0.32993 0.78629 0.32979 0.0
C998 C 0.32743 0.75984 0.36826 0.0
C999 C 0.32837 0.74896 0.38916 0.0
C1000 C 0.33636 0.79099 0.36343 0.0
C1001 C 0.33719 0.76991 0.40523 0.0
C1002 C 0.34556 0.80096 0.40061 0.0
C1003 C 0.35569 0.84234 0.37494 0.0
C1004 C 0.35705 0.85273 0.35396 0.0
C1005 C 0.34567 0.81162 0.37975 0.0
C1006 C 0.34734 0.83223 0.33785 0.0
C1007 C 0.33696 0.80169 0.34254 0.0
H1008 H 0.39662 0.11286 0.63945 0.0
H1009 H 0.40905 0.08723 0.57432 0.0
H1010 H 0.46189 0.06736 0.58202 0.0
H1011 H 0.50569 0.06002 0.607 0.0
H1012 H 0.49333 0.08771 0.67179 0.0
H1013 H 0.4393 0.10379 0.66451 0.0
C1014 C 0.41079 0.10269 0.62696 0.0
C1015 C 0.399 0.1016 0.60635 0.0
C1016 C 0.44121 0.09175 0.63144 0.0
C1017 C 0.41764 0.0884 0.59033 0.0
C1018 C 0.44786 0.07706 0.59471 0.0
C1019 C 0.49102 0.06925 0.61954 0.0
C1020 C 0.50349 0.07274 0.63988 0.0
C1021 C 0.46006 0.07899 0.61517 0.0
C1022 C 0.4843 0.0849 0.65598 0.0
C1023 C 0.45341 0.09414 0.65184 0.0
H1024 H 0.13827 0.15916 0.89551 0.0
H1025 H 0.15164 0.17426 0.82903 0.0
H1026 H 0.16983 0.22806 0.8359 0.0
H1027 H 0.17912 0.27188 0.86083 0.0
H1028 H 0.16408 0.25631 0.92715 0.0
H1029 H 0.14962 0.20169 0.92031 0.0
C1030 C 0.14538 0.17412 0.88251 0.0
C1031 C 0.14348 0.16277 0.86179 0.0
C1032 C 0.15547 0.20504 0.88656 0.0
C1033 C 0.15282 0.18246 0.84514 0.0
C1034 C 0.16319 0.21325 0.84905 0.0
C1035 C 0.17301 0.25639 0.87377 0.0
C1036 C 0.17259 0.26819 0.89446 0.0
C1037 C 0.16422 0.22495 0.8697 0.0
C1038 C 0.16448 0.24788 0.91107 0.0
C1039 C 0.15616 0.21662 0.90718 0.0
H1040 H 0.0955 0.90552 0.09335 0.0
H1041 H 0.12334 0.87934 0.1562 0.0
H1042 H 0.07234 0.89616 0.16977 0.0
H1043 H 0.01866 0.91508 0.16359 0.0
H1044 H 0.99043 0.94222 0.10106 0.0
H1045 H 0.04274 0.9286 0.08761 0.0
C1046 C 0.09045 0.90376 0.11002 0.0
C1047 C 0.11311 0.89094 0.1237 0.0
C1048 C 0.06097 0.91358 0.11779 0.0
C1049 C 0.10632 0.88901 0.1453 0.0
C1050 C 0.07711 0.89858 0.1531 0.0
C1051 C 0.02406 0.91832 0.14705 0.0
C1052 C 1.00067 0.92942 0.13332 0.0
C1053 C 0.0541 0.91041 0.13945 0.0
C1054 C 0.00806 0.93372 0.11196 0.0
C1055 C 0.03793 0.9258 0.10425 0.0
H1056 H 0.67729 0.74729 0.85457 0.0
H1057 H 0.66713 0.76353 0.92121 0.0
H1058 H 0.65213 0.81811 0.91464 0.0
H1059 H 0.63882 0.86032 0.89007 0.0
H1060 H 0.64599 0.84412 0.82328 0.0
H1061 H 0.66534 0.79061 0.82975 0.0
C1062 C 0.67215 0.76294 0.86761 0.0
C1063 C 0.67329 0.75139 0.88834 0.0
C1064 C 0.6628 0.79425 0.8637 0.0
C1065 C 0.6663 0.77181 0.90511 0.0
C1066 C 0.65769 0.80304 0.90137 0.0
C1067 C 0.64488 0.8452 0.87691 0.0
C1068 C 0.64094 0.85616 0.85623 0.0
C1069 C 0.65539 0.81437 0.88074 0.0
C1070 C 0.64877 0.83621 0.83936 0.0
C1071 C 0.6598 0.8056 0.84306 0.0
H1072 H 0.02129 0.93135 0.61723 0.0
H1073 H 0.00671 0.88971 0.67837 0.0
H1074 H 0.95325 0.8749 0.66861 0.0
H1075 H 0.91119 0.87223 0.64255 0.0
H1076 H 0.92545 0.91179 0.5808 0.0
H1077 H 0.97843 0.92892 0.5909 0.0
C1078 C 0.00627 0.91925 0.62842 0.0
C1079 C 0.01793 0.91166 0.64849 0.0
C1080 C 0.97558 0.91027 0.62257 0.0
C1081 C 0.99833 0.89575 0.6628 0.0
C1082 C 0.96775 0.88725 0.65724 0.0
C1083 C 0.92583 0.8847 0.6313 0.0
C1084 C 0.91442 0.89073 0.61096 0.0
C1085 C 0.95624 0.89413 0.63713 0.0
C1086 C 0.93373 0.90681 0.59656 0.0
C1087 C 0.964 0.91663 0.60233 0.0
H1088 H 0.85183 0.24146 0.41286 0.0
H1089 H 0.8222 0.27452 0.35189 0.0
H1090 H 0.83442 0.22304 0.33655 0.0
H1091 H 0.85473 0.16884 0.34042 0.0
H1092 H 0.8837 0.13622 0.40169 0.0
H1093 H 0.8705 0.18726 0.41693 0.0
C1094 C 0.84797 0.23738 0.39622 0.0
C1095 C 0.83624 0.26175 0.38352 0.0
C1096 C 0.85499 0.2078 0.38755 0.0
C1097 C 0.83122 0.25609 0.36201 0.0
C1098 C 0.83825 0.22669 0.35322 0.0
C1099 C 0.85806 0.17293 0.3571 0.0
C1100 C 0.87026 0.14882 0.36987 0.0
C1101 C 0.85033 0.2024 0.36582 0.0
C1102 C 0.87435 0.15439 0.39149 0.0
C1103 C 0.86684 0.18359 0.40024 0.0
H1104 H 0.58644 0.0998 0.08661 0.0
H1105 H 0.61832 0.12338 0.14906 0.0
H1106 H 0.56657 0.11065 0.16336 0.0
H1107 H 0.51158 0.09514 0.15805 0.0
H1108 H 0.47953 0.06971 0.09602 0.0
H1109 H 0.53196 0.08059 0.08166 0.0
C1110 C 0.58206 0.10195 0.10335 0.0
C1111 C 0.60614 0.11271 0.11672 0.0
C1112 C 0.55219 0.09432 0.11155 0.0
C1113 C 0.60021 0.11515 0.13841 0.0
C1114 C 0.57058 0.10796 0.14662 0.0
C1115 C 0.51613 0.0918 0.1414 0.0
C1116 C 0.4917 0.08186 0.12809 0.0
C1117 C 0.54631 0.09787 0.13332 0.0
C1118 C 0.49799 0.07733 0.1066 0.0
C1119 C 0.52793 0.08366 0.09837 0.0
H1120 H 0.64752 0.24177 0.59139 0.0
H1121 H 0.70025 0.26051 0.64791 0.0
H1122 H 0.68659 0.20818 0.66151 0.0
H1123 H 0.65788 0.15759 0.65767 0.0
H1124 H 0.60634 0.1396 0.60044 0.0
H1125 H 0.62129 0.19108 0.58685 0.0
C1126 C 0.65617 0.23437 0.60666 0.0
C1127 C 0.67472 0.255 0.61867 0.0
C1128 C 0.6483 0.20439 0.6143 0.0
C1129 C 0.68594 0.245 0.63835 0.0
C1130 C 0.67804 0.21514 0.64615 0.0
C1131 C 0.65003 0.16497 0.64222 0.0
C1132 C 0.63089 0.14483 0.63015 0.0
C1133 C 0.65894 0.19472 0.63434 0.0
C1134 C 0.62107 0.15462 0.61009 0.0
C1135 C 0.62957 0.18409 0.60227 0.0
H1136 H 0.48635 0.93693 0.38894 0.0
H1137 H 0.49695 0.89379 0.32784 0.0
H1138 H 0.55034 0.87761 0.33664 0.0
H1139 H 0.5937 0.87459 0.36175 0.0
H1140 H 0.58368 0.91642 0.42322 0.0
H1141 H 0.53055 0.93431 0.4142 0.0
C1142 C 0.50042 0.92407 0.37756 0.0
C1143 C 0.48764 0.91655 0.35778 0.0
C1144 C 0.53122 0.91458 0.38278 0.0
C1145 C 0.50614 0.89983 0.34321 0.0
C1146 C 0.53672 0.89056 0.3482 0.0
C1147 C 0.57998 0.88776 0.37316 0.0
C1148 C 0.59262 0.89418 0.39311 0.0
C1149 C 0.54945 0.89766 0.36795 0.0
C1150 C 0.57447 0.91118 0.40773 0.0
C1151 C 0.54408 0.92138 0.4026 0.0
H1152 H 0.8566 0.75449 0.08986 0.0
H1153 H 0.80406 0.73458 0.14641 0.0
H1154 H 0.82017 0.78538 0.16125 0.0
H1155 H 0.8503 0.83516 0.15831 0.0
H1156 H 0.90201 0.85441 0.10125 0.0
H1157 H 0.88526 0.80412 0.08655 0.0
C1158 C 0.84851 0.7613 0.1054 0.0
C1159 C 0.82919 0.74079 0.11702 0.0
C1160 C 0.8579 0.79037 0.1138 0.0
C1161 C 0.81891 0.74999 0.13712 0.0
C1162 C 0.8282 0.77898 0.14564 0.0
C1163 C 0.85789 0.82827 0.14268 0.0
C1164 C 0.87745 0.84845 0.13092 0.0
C1165 C 0.84791 0.79929 0.13418 0.0
C1166 C 0.88694 0.83934 0.11063 0.0
C1167 C 0.87737 0.81057 0.10219 0.0
H1168 H 0.99051 0.09274 0.84275 0.0
H1169 H 0.02512 0.0904 0.90644 0.0
H1170 H 0.97293 0.1051 0.91961 0.0
H1171 H 0.91774 0.12065 0.91281 0.0
H1172 H 0.88354 0.12154 0.84894 0.0
H1173 H 0.93514 0.1053 0.83612 0.0
C1174 C 0.9866 0.09531 0.85953 0.0
C1175 C 0.01166 0.09068 0.87359 0.0
C1176 C 0.95657 0.10359 0.86697 0.0
C1177 C 0.00618 0.09384 0.89529 0.0
C1178 C 0.97637 0.10233 0.90283 0.0
C1179 C 0.92159 0.11711 0.89611 0.0
C1180 C 0.89685 0.12247 0.88186 0.0
C1181 C 0.95143 0.10757 0.88879 0.0
C1182 C 0.90215 0.11762 0.86027 0.0
C1183 C 0.93169 0.10838 0.85289 0.0
H1184 H 0.83861 0.74601 0.58594 0.0
H1185 H 0.82394 0.77811 0.64956 0.0
H1186 H 0.83485 0.72507 0.66281 0.0
H1187 H 0.85193 0.67027 0.65634 0.0
H1188 H 0.86582 0.63858 0.59249 0.0
H1189 H 0.85161 0.69062 0.57934 0.0
C1190 C 0.83757 0.74133 0.6027 0.0
C1191 C 0.83074 0.76596 0.61676 0.0
C1192 C 0.84382 0.71085 0.61017 0.0
C1193 C 0.82919 0.75952 0.63841 0.0
C1194 C 0.83552 0.72923 0.646 0.0
C1195 C 0.85151 0.6747 0.63955 0.0
C1196 C 0.86014 0.65065 0.62544 0.0
C1197 C 0.84335 0.7048 0.63204 0.0
C1198 C 0.85936 0.65669 0.60371 0.0
C1199 C 0.85132 0.68649 0.59615 0.0
H1200 H 0.57928 0.61579 0.91215 0.0
H1201 H 0.61476 0.6218 0.84862 0.0
H1202 H 0.5651 0.60178 0.83508 0.0
H1203 H 0.51101 0.58479 0.84087 0.0
H1204 H 0.47351 0.58053 0.90386 0.0
H1205 H 0.52453 0.59723 0.91802 0.0
C1206 C 0.5761 0.61257 0.89537 0.0
C1207 C 0.60066 0.62044 0.88143 0.0
C1208 C 0.54715 0.6013 0.88758 0.0
C1209 C 0.59622 0.61616 0.85971 0.0
C1210 C 0.56782 0.60462 0.85192 0.0
C1211 C 0.51404 0.58716 0.85773 0.0
C1212 C 0.48853 0.58138 0.87129 0.0
C1213 C 0.54307 0.5974 0.86566 0.0
C1214 C 0.49283 0.58478 0.89308 0.0
C1215 C 0.52196 0.59445 0.90118 0.0
H1216 H 0.6869 0.34686 0.13951 0.0
H1217 H 0.59533 0.31902 0.16236 0.0
H1218 H 0.60408 0.26539 0.14966 0.0
H1219 H 0.63652 0.22716 0.13035 0.0
H1220 H 0.72957 0.25334 0.10962 0.0
H1221 H 0.72162 0.30691 0.12319 0.0
C1222 C 0.66905 0.32891 0.14189 0.0
C1223 C 0.64043 0.33688 0.15172 0.0
C1224 C 0.67442 0.29798 0.13478 0.0
C1225 C 0.61758 0.31342 0.15489 0.0
C1226 C 0.62249 0.2828 0.14753 0.0
C1227 C 0.65506 0.24463 0.12888 0.0
C1228 C 0.6834 0.23664 0.11878 0.0
C1229 C 0.65058 0.27497 0.13715 0.0
C1230 C 0.70752 0.25913 0.11729 0.0
C1231 C 0.70295 0.2897 0.12501 0.0
H1232 H 0.90297 0.384 0.36118 0.0
H1233 H 0.91935 0.40549 0.42655 0.0
H1234 H 0.97225 0.42456 0.41801 0.0
H1235 H 0.01477 0.43293 0.39204 0.0
H1236 H 0.99814 0.40998 0.32688 0.0
H1237 H 0.94448 0.39382 0.33526 0.0
C1238 C 0.91802 0.39307 0.37355 0.0
C1239 C 0.90727 0.39327 0.39446 0.0
C1240 C 0.94845 0.40364 0.36856 0.0
C1241 C 0.92708 0.40505 0.41031 0.0
C1242 C 0.95735 0.41592 0.40544 0.0
C1243 C 0.99929 0.42461 0.37968 0.0
C1244 C 0.01048 0.42259 0.35888 0.0
C1245 C 0.96843 0.415 0.38464 0.0
C1246 C 0.99018 0.41168 0.34303 0.0
C1247 C 0.95946 0.40241 0.3478 0.0
H1248 H 0.83867 0.34667 0.83717 0.0
H1249 H 0.88997 0.36843 0.89388 0.0
H1250 H 0.87563 0.31747 0.90874 0.0
H1251 H 0.85029 0.26589 0.90524 0.0
H1252 H 0.79769 0.24397 0.84916 0.0
H1253 H 0.81056 0.29576 0.83452 0.0
C1254 C 0.84653 0.34027 0.85281 0.0
C1255 C 0.86549 0.36126 0.86434 0.0
C1256 C 0.83802 0.31087 0.86138 0.0
C1257 C 0.87536 0.35274 0.88465 0.0
C1258 C 0.86723 0.32355 0.89317 0.0
C1259 C 0.84151 0.27251 0.88985 0.0
C1260 C 0.82324 0.25108 0.87825 0.0
C1261 C 0.84885 0.30231 0.88161 0.0
C1262 C 0.81181 0.26008 0.85841 0.0
C1263 C 0.81923 0.28965 0.85001 0.0
H1264 H 0.98577 0.57056 0.1514 0.0
H1265 H 0.027 0.58081 0.08976 0.0
H1266 H 0.97617 0.59841 0.07579 0.0
H1267 H 0.92057 0.61397 0.08181 0.0
H1268 H 0.88111 0.60482 0.14413 0.0
H1269 H 0.93068 0.58377 0.15707 0.0
C1270 C 0.98363 0.57632 0.13484 0.0
C1271 C 0.01011 0.57445 0.12165 0.0
C1272 C 0.95465 0.5869 0.12708 0.0
C1273 C 0.00691 0.58202 0.10024 0.0
C1274 C 0.9779 0.59221 0.09228 0.0
C1275 C 0.92285 0.60717 0.09817 0.0
C1276 C 0.89724 0.61116 0.112 0.0
C1277 C 0.9517 0.59526 0.10565 0.0
C1278 C 0.90049 0.60222 0.13317 0.0
C1279 C 0.92883 0.59012 0.14061 0.0
H1280 H 0.63142 0.65254 0.39549 0.0
H1281 H 0.64686 0.6681 0.32925 0.0
H1282 H 0.66267 0.72264 0.33647 0.0
H1283 H 0.67085 0.76621 0.36178 0.0
H1284 H 0.65386 0.74983 0.42782 0.0
H1285 H 0.64002 0.69518 0.42049 0.0
C1286 C 0.63833 0.66779 0.3826 0.0
C1287 C 0.63796 0.65633 0.36186 0.0
C1288 C 0.6471 0.69896 0.38685 0.0
C1289 C 0.64693 0.67642 0.34535 0.0
C1290 C 0.65596 0.70757 0.34948 0.0
C1291 C 0.66429 0.75058 0.37454 0.0
C1292 C 0.66338 0.76203 0.39531 0.0
C1293 C 0.65598 0.71914 0.37019 0.0
C1294 C 0.65469 0.74161 0.4117 0.0
C1295 C 0.64675 0.71035 0.40753 0.0
H1296 H 0.60246 0.37378 0.6445 0.0
H1297 H 0.59222 0.40699 0.58077 0.0
H1298 H 0.53916 0.42606 0.58884 0.0
H1299 H 0.49467 0.43073 0.6136 0.0
H1300 H 0.50476 0.39556 0.6769 0.0
H1301 H 0.55895 0.38 0.66944 0.0
C1302 C 0.58872 0.38541 0.63241 0.0
C1303 C 0.60119 0.3889 0.61206 0.0
C1304 C 0.55817 0.39587 0.63708 0.0
C1305 C 0.58309 0.40397 0.59656 0.0
C1306 C 0.55276 0.41484 0.60116 0.0
C1307 C 0.50887 0.41994 0.6258 0.0
C1308 C 0.49573 0.41423 0.64575 0.0
C1309 C 0.5399 0.41056 0.6213 0.0
C1310 C 0.51431 0.4001 0.66139 0.0
C1311 C 0.54529 0.39117 0.65714 0.0
H1312 H 0.13325 0.35652 0.38958 0.0
H1313 H 0.15796 0.34357 0.32434 0.0
H1314 H 0.17652 0.29012 0.33197 0.0
H1315 H 0.18313 0.24595 0.35705 0.0
H1316 H 0.15651 0.25936 0.42195 0.0
H1317 H 0.14157 0.31368 0.41461 0.0
C1318 C 0.14289 0.3421 0.37703 0.0
C1319 C 0.14411 0.35396 0.35642 0.0
C1320 C 0.15316 0.31138 0.38148 0.0
C1321 C 0.15669 0.33496 0.34035 0.0
C1322 C 0.16728 0.30438 0.3447 0.0
C1323 C 0.1744 0.26093 0.36959 0.0
C1324 C 0.17087 0.2486 0.39 0.0
C1325 C 0.16529 0.29218 0.36518 0.0
C1326 C 0.15933 0.26821 0.40609 0.0
C1327 C 0.15074 0.2993 0.40191 0.0
H1328 H 0.43626 0.40224 0.08837 0.0
H1329 H 0.39615 0.39101 0.15035 0.0
H1330 H 0.4466 0.4039 0.16626 0.0
H1331 H 0.50238 0.41624 0.1628 0.0
H1332 H 0.54381 0.42692 0.10125 0.0
H1333 H 0.49257 0.41657 0.08495 0.0
C1334 C 0.43859 0.40283 0.10535 0.0
C1335 C 0.41252 0.39555 0.11814 0.0
C1336 C 0.46788 0.41008 0.11448 0.0
C1337 C 0.41585 0.39639 0.14012 0.0
C1338 C 0.44471 0.40376 0.14927 0.0
C1339 C 0.50022 0.41649 0.14581 0.0
C1340 C 0.52683 0.42222 0.13325 0.0
C1341 C 0.47091 0.41031 0.13662 0.0
C1342 C 0.52362 0.42253 0.11126 0.0
C1343 C 0.49436 0.41656 0.10194 0.0
H1344 H 0.37389 0.77215 0.88045 0.0
H1345 H 0.27433 0.75518 0.87441 0.0
H1346 H 0.28494 0.70156 0.86152 0.0
H1347 H 0.3231 0.65859 0.85384 0.0
H1348 H 0.42263 0.67834 0.85732 0.0
H1349 H 0.41158 0.73185 0.86924 0.0
C1350 C 0.35455 0.75673 0.87615 0.0
C1351 C 0.32342 0.76723 0.87854 0.0
C1352 C 0.36089 0.72647 0.86837 0.0
C1353 C 0.29849 0.74742 0.87264 0.0
C1354 C 0.30457 0.7168 0.86539 0.0
C1355 C 0.34226 0.67478 0.85706 0.0
C1356 C 0.37362 0.66452 0.85489 0.0
C1357 C 0.33572 0.7059 0.86347 0.0
C1358 C 0.39831 0.68574 0.85884 0.0
C1359 C 0.39203 0.7163 0.86574 0.0
H1360 H 0.98547 0.62385 0.61399 0.0
H1361 H 0.00943 0.5312 0.63669 0.0
H1362 H 0.06485 0.54024 0.62765 0.0
H1363 H 0.10676 0.57579 0.6149 0.0
H1364 H 0.0819 0.6669 0.58986 0.0
H1365 H 0.02643 0.65714 0.59799 0.0
C1366 C 0.00286 0.60561 0.61684 0.0
C1367 C 0.99363 0.57707 0.6262 0.0
C1368 C 0.03441 0.61074 0.61118 0.0
C1369 C 0.01613 0.55337 0.62952 0.0
C1370 C 0.04776 0.55858 0.62441 0.0
C1371 C 0.0891 0.59335 0.61108 0.0
C1372 C 0.09832 0.62212 0.60198 0.0
C1373 C 0.05722 0.58734 0.61547 0.0
C1374 C 0.07529 0.64456 0.59684 0.0
C1375 C 0.04363 0.63906 0.60158 0.0
H1376 H 0.17526 0.6464 0.13872 0.0
H1377 H 0.07808 0.67289 0.1475 0.0
H1378 H 0.09055 0.72733 0.13805 0.0
H1379 H 0.12865 0.76683 0.12567 0.0
H1380 H 0.22662 0.74187 0.11981 0.0
H1381 H 0.21445 0.68734 0.12977 0.0
C1382 C 0.15694 0.66422 0.13872 0.0
C1383 C 0.12579 0.65573 0.14362 0.0
C1384 C 0.16441 0.6956 0.13369 0.0
C1385 C 0.10225 0.67897 0.14383 0.0
C1386 C 0.10932 0.71003 0.13833 0.0
C1387 C 0.14728 0.74939 0.12666 0.0
C1388 C 0.17837 0.75799 0.12178 0.0
C1389 C 0.14022 0.7185 0.13295 0.0
C1390 C 0.20251 0.73556 0.12347 0.0
C1391 C 0.19554 0.70446 0.12911 0.0
H1392 H 0.09886 0.3825 0.85909 0.0
H1393 H 0.08431 0.41693 0.9222 0.0
H1394 H 0.03235 0.43689 0.91229 0.0
H1395 H 0.99043 0.44322 0.88582 0.0
H1396 H 0.00505 0.40754 0.82301 0.0
H1397 H 0.05771 0.38968 0.83262 0.0
C1398 C 0.08435 0.39441 0.87068 0.0
C1399 C 0.09536 0.39814 0.89136 0.0
C1400 C 0.05454 0.4057 0.8649 0.0
C1401 C 0.07631 0.41368 0.90619 0.0
C1402 C 0.04662 0.42513 0.90052 0.0
C1403 C 0.00529 0.43181 0.87421 0.0
C1404 C 0.99389 0.42673 0.85374 0.0
C1405 C 0.03543 0.42115 0.87994 0.0
C1406 C 0.01329 0.4117 0.83888 0.0
C1407 C 0.04337 0.40142 0.84437 0.0
H1408 H 0.35144 0.25156 0.58965 0.0
H1409 H 0.29882 0.22821 0.64555 0.0
H1410 H 0.31162 0.27974 0.66074 0.0
H1411 H 0.33983 0.33079 0.65857 0.0
H1412 H 0.39136 0.35355 0.60201 0.0
H1413 H 0.37689 0.30301 0.58668 0.0
C1414 C 0.34261 0.2578 0.60512 0.0
C1415 C 0.32438 0.23606 0.61651 0.0
C1416 C 0.34999 0.28736 0.61368 0.0
C1417 C 0.31291 0.24457 0.63646 0.0
C1418 C 0.32031 0.27398 0.64518 0.0
C1419 C 0.34773 0.32469 0.64287 0.0
C1420 C 0.3668 0.34586 0.63152 0.0
C1421 C 0.33916 0.29547 0.63402 0.0
C1422 C 0.37671 0.33771 0.61113 0.0
C1423 C 0.36848 0.30876 0.60232 0.0
H1424 H 0.50266 0.60391 0.34606 0.0
H1425 H 0.52291 0.559 0.40533 0.0
H1426 H 0.47066 0.57393 0.41852 0.0
H1427 H 0.41938 0.60094 0.41321 0.0
H1428 H 0.40034 0.64494 0.35335 0.0
H1429 H 0.45196 0.62925 0.34047 0.0
C1430 C 0.49566 0.59726 0.36187 0.0
C1431 C 0.51665 0.58045 0.37472 0.0
C1432 C 0.4658 0.60591 0.36927 0.0
C1433 C 0.50714 0.57192 0.39511 0.0
C1434 C 0.47731 0.58053 0.40267 0.0
C1435 C 0.42661 0.60706 0.39737 0.0
C1436 C 0.40604 0.62419 0.38431 0.0
C1437 C 0.45648 0.59774 0.38992 0.0
C1438 C 0.41565 0.6318 0.36376 0.0
C1439 C 0.4452 0.62284 0.35635 0.0
loop_
_geom_bond_atom_site_label_1
_geom_bond_atom_site_label_2
_geom_bond_distance
_geom_bond_site_symmetry_2
_ccdc_geom_bond_type
In0 O1 2.294 . S
In0 O2 2.326 . S
In0 O6 2.266 . S
In0 O7 2.326 . S
In0 O8 2.266 . S
In0 O9 2.326 . S
In0 O11 2.294 . S
In0 O12 2.326 . S
O1 In0 2.294 . S
O1 C10 1.240 . S
O2 In0 2.326 . S
O2 C10 1.252 . S
C3 O6 1.252 . S
C3 O7 1.260 . S
C4 O11 1.240 . S
C4 O12 1.252 . S
C5 O8 1.252 . S
C5 O9 1.260 . S
O6 In0 2.266 . S
O6 C3 1.252 . S
O7 In0 2.326 . S
O7 C3 1.260 . S
O8 In0 2.266 . S
O8 C5 1.252 . S
O9 In0 2.326 . S
O9 C5 1.260 . S
C10 O1 1.240 . S
C10 O2 1.252 . S
O11 In0 2.294 . S
O11 C4 1.240 . S
O12 In0 2.326 . S
O12 C4 1.252 . S
In13 O14 2.294 . S
In13 O15 2.326 . S
In13 O19 2.266 . S
In13 O20 2.326 . S
In13 O21 2.266 . S
In13 O22 2.326 . S
In13 O24 2.294 . S
In13 O25 2.326 . S
O14 In13 2.294 . S
O14 C23 1.240 . S
O15 In13 2.326 . S
O15 C23 1.252 . S
C16 O19 1.252 . S
C16 O20 1.260 . S
C17 O24 1.240 . S
C17 O25 1.252 . S
C18 O21 1.252 . S
C18 O22 1.260 . S
O19 In13 2.266 . S
O19 C16 1.252 . S
O20 In13 2.326 . S
O20 C16 1.260 . S
O21 In13 2.266 . S
O21 C18 1.252 . S
O22 In13 2.326 . S
O22 C18 1.260 . S
C23 O14 1.240 . S
C23 O15 1.252 . S
O24 In13 2.294 . S
O24 C17 1.240 . S
O25 In13 2.326 . S
O25 C17 1.252 . S
In26 O27 2.294 . S
In26 O28 2.326 . S
In26 O32 2.266 . S
In26 O33 2.326 . S
In26 O34 2.266 . S
In26 O35 2.326 . S
In26 O37 2.294 . S
In26 O38 2.326 . S
O27 In26 2.294 . S
O27 C36 1.240 . S
O28 In26 2.326 . S
O28 C36 1.252 . S
C29 O32 1.252 . S
C29 O33 1.260 . S
C30 O37 1.240 . S
C30 O38 1.252 . S
C31 O34 1.252 . S
C31 O35 1.260 . S
O32 In26 2.266 . S
O32 C29 1.252 . S
O33 In26 2.326 . S
O33 C29 1.260 . S
O34 In26 2.266 . S
O34 C31 1.252 . S
O35 In26 2.326 . S
O35 C31 1.260 . S
C36 O27 1.240 . S
C36 O28 1.252 . S
O37 In26 2.294 . S
O37 C30 1.240 . S
O38 In26 2.326 . S
O38 C30 1.252 . S
In39 O40 2.294 . S
In39 O41 2.326 . S
In39 O45 2.266 . S
In39 O46 2.326 . S
In39 O47 2.266 . S
In39 O48 2.326 . S
In39 O50 2.294 . S
In39 O51 2.326 . S
O40 In39 2.294 . S
O40 C49 1.240 . S
O41 In39 2.326 . S
O41 C49 1.252 . S
C42 O45 1.252 . S
C42 O46 1.260 . S
C43 O50 1.240 . S
C43 O51 1.252 . S
C44 O47 1.252 . S
C44 O48 1.260 . S
O45 In39 2.266 . S
O45 C42 1.252 . S
O46 In39 2.326 . S
O46 C42 1.260 . S
O47 In39 2.266 . S
O47 C44 1.252 . S
O48 In39 2.326 . S
O48 C44 1.260 . S
C49 O40 1.240 . S
C49 O41 1.252 . S
O50 In39 2.294 . S
O50 C43 1.240 . S
O51 In39 2.326 . S
O51 C43 1.252 . S
In52 O53 2.294 . S
In52 O54 2.326 . S
In52 O58 2.266 . S
In52 O59 2.326 . S
In52 O60 2.266 . S
In52 O61 2.326 . S
In52 O63 2.294 . S
In52 O64 2.326 . S
O53 In52 2.294 . S
O53 C62 1.240 . S
O54 In52 2.326 . S
O54 C62 1.252 . S
C55 O58 1.252 . S
C55 O59 1.260 . S
C56 O63 1.240 . S
C56 O64 1.252 . S
C57 O60 1.252 . S
C57 O61 1.260 . S
O58 In52 2.266 . S
O58 C55 1.252 . S
O59 In52 2.326 . S
O59 C55 1.260 . S
O60 In52 2.266 . S
O60 C57 1.252 . S
O61 In52 2.326 . S
O61 C57 1.260 . S
C62 O53 1.240 . S
C62 O54 1.252 . S
O63 In52 2.294 . S
O63 C56 1.240 . S
O64 In52 2.326 . S
O64 C56 1.252 . S
In65 O66 2.294 . S
In65 O67 2.326 . S
In65 O71 2.266 . S
In65 O72 2.326 . S
In65 O73 2.266 . S
In65 O74 2.326 . S
In65 O76 2.294 . S
In65 O77 2.326 . S
O66 In65 2.294 . S
O66 C75 1.240 . S
O67 In65 2.326 . S
O67 C75 1.252 . S
C68 O71 1.252 . S
C68 O72 1.260 . S
C69 O76 1.240 . S
C69 O77 1.252 . S
C70 O73 1.252 . S
C70 O74 1.260 . S
O71 In65 2.266 . S
O71 C68 1.252 . S
O72 In65 2.326 . S
O72 C68 1.260 . S
O73 In65 2.266 . S
O73 C70 1.252 . S
O74 In65 2.326 . S
O74 C70 1.260 . S
C75 O66 1.240 . S
C75 O67 1.252 . S
O76 In65 2.294 . S
O76 C69 1.240 . S
O77 In65 2.326 . S
O77 C69 1.252 . S
In78 O79 2.294 . S
In78 O80 2.326 . S
In78 O84 2.266 . S
In78 O85 2.326 . S
In78 O86 2.266 . S
In78 O87 2.326 . S
In78 O89 2.294 . S
In78 O90 2.326 . S
O79 In78 2.294 . S
O79 C88 1.240 . S
O80 In78 2.326 . S
O80 C88 1.252 . S
C81 O84 1.252 . S
C81 O85 1.260 . S
C82 O89 1.240 . S
C82 O90 1.252 . S
C83 O86 1.252 . S
C83 O87 1.260 . S
O84 In78 2.266 . S
O84 C81 1.252 . S
O85 In78 2.326 . S
O85 C81 1.260 . S
O86 In78 2.266 . S
O86 C83 1.252 . S
O87 In78 2.326 . S
O87 C83 1.260 . S
C88 O79 1.240 . S
C88 O80 1.252 . S
O89 In78 2.294 . S
O89 C82 1.240 . S
O90 In78 2.326 . S
O90 C82 1.252 . S
In91 O92 2.294 . S
In91 O93 2.326 . S
In91 O97 2.266 . S
In91 O98 2.326 . S
In91 O99 2.266 . S
In91 O100 2.326 . S
In91 O102 2.294 . S
In91 O103 2.326 . S
O92 In91 2.294 . S
O92 C101 1.240 . S
O93 In91 2.326 . S
O93 C101 1.252 . S
C94 O97 1.252 . S
C94 O98 1.260 . S
C95 O102 1.240 . S
C95 O103 1.252 . S
C96 O99 1.252 . S
C96 O100 1.260 . S
O97 In91 2.266 . S
O97 C94 1.252 . S
O98 In91 2.326 . S
O98 C94 1.260 . S
O99 In91 2.266 . S
O99 C96 1.252 . S
O100 In91 2.326 . S
O100 C96 1.260 . S
C101 O92 1.240 . S
C101 O93 1.252 . S
O102 In91 2.294 . S
O102 C95 1.240 . S
O103 In91 2.326 . S
O103 C95 1.252 . S
In104 O105 2.294 . S
In104 O106 2.326 . S
In104 O110 2.266 . S
In104 O111 2.326 . S
In104 O112 2.266 . S
In104 O113 2.326 . S
In104 O115 2.294 . S
In104 O116 2.326 . S
O105 In104 2.294 . S
O105 C114 1.240 . S
O106 In104 2.326 . S
O106 C114 1.252 . S
C107 O110 1.252 . S
C107 O111 1.260 . S
C108 O115 1.240 . S
C108 O116 1.252 . S
C109 O112 1.252 . S
C109 O113 1.260 . S
O110 In104 2.266 . S
O110 C107 1.252 . S
O111 In104 2.326 . S
O111 C107 1.260 . S
O112 In104 2.266 . S
O112 C109 1.252 . S
O113 In104 2.326 . S
O113 C109 1.260 . S
C114 O105 1.240 . S
C114 O106 1.252 . S
O115 In104 2.294 . S
O115 C108 1.240 . S
O116 In104 2.326 . S
O116 C108 1.252 . S
In117 O118 2.294 . S
In117 O119 2.326 . S
In117 O123 2.266 . S
In117 O124 2.326 . S
In117 O125 2.266 . S
In117 O126 2.326 . S
In117 O128 2.294 . S
In117 O129 2.326 . S
O118 In117 2.294 . S
O118 C127 1.240 . S
O119 In117 2.326 . S
O119 C127 1.252 . S
C120 O123 1.252 . S
C120 O124 1.260 . S
C121 O128 1.240 . S
C121 O129 1.252 . S
C122 O125 1.252 . S
C122 O126 1.260 . S
O123 In117 2.266 . S
O123 C120 1.252 . S
O124 In117 2.326 . S
O124 C120 1.260 . S
O125 In117 2.266 . S
O125 C122 1.252 . S
O126 In117 2.326 . S
O126 C122 1.260 . S
C127 O118 1.240 . S
C127 O119 1.252 . S
O128 In117 2.294 . S
O128 C121 1.240 . S
O129 In117 2.326 . S
O129 C121 1.252 . S
In130 O131 2.294 . S
In130 O132 2.326 . S
In130 O136 2.266 . S
In130 O137 2.326 . S
In130 O138 2.266 . S
In130 O139 2.326 . S
In130 O141 2.294 . S
In130 O142 2.326 . S
O131 In130 2.294 . S
O131 C140 1.240 . S
O132 In130 2.326 . S
O132 C140 1.252 . S
C133 O136 1.252 . S
C133 O137 1.260 . S
C134 O141 1.240 . S
C134 O142 1.252 . S
C135 O138 1.252 . S
C135 O139 1.260 . S
O136 In130 2.266 . S
O136 C133 1.252 . S
O137 In130 2.326 . S
O137 C133 1.260 . S
O138 In130 2.266 . S
O138 C135 1.252 . S
O139 In130 2.326 . S
O139 C135 1.260 . S
C140 O131 1.240 . S
C140 O132 1.252 . S
O141 In130 2.294 . S
O141 C134 1.240 . S
O142 In130 2.326 . S
O142 C134 1.252 . S
In143 O144 2.294 . S
In143 O145 2.326 . S
In143 O149 2.266 . S
In143 O150 2.326 . S
In143 O151 2.266 . S
In143 O152 2.326 . S
In143 O154 2.294 . S
In143 O155 2.326 . S
O144 In143 2.294 . S
O144 C153 1.240 . S
O145 In143 2.326 . S
O145 C153 1.252 . S
C146 O149 1.252 . S
C146 O150 1.260 . S
C147 O154 1.240 . S
C147 O155 1.252 . S
C148 O151 1.252 . S
C148 O152 1.260 . S
O149 In143 2.266 . S
O149 C146 1.252 . S
O150 In143 2.326 . S
O150 C146 1.260 . S
O151 In143 2.266 . S
O151 C148 1.252 . S
O152 In143 2.326 . S
O152 C148 1.260 . S
C153 O144 1.240 . S
C153 O145 1.252 . S
O154 In143 2.294 . S
O154 C147 1.240 . S
O155 In143 2.326 . S
O155 C147 1.252 . S
In156 O157 2.294 . S
In156 O158 2.326 . S
In156 O162 2.266 . S
In156 O163 2.326 . S
In156 O164 2.266 . S
In156 O165 2.326 . S
In156 O167 2.294 . S
In156 O168 2.326 . S
O157 In156 2.294 . S
O157 C166 1.240 . S
O158 In156 2.326 . S
O158 C166 1.252 . S
C159 O162 1.252 . S
C159 O163 1.260 . S
C160 O167 1.240 . S
C160 O168 1.252 . S
C161 O164 1.252 . S
C161 O165 1.260 . S
O162 In156 2.266 . S
O162 C159 1.252 . S
O163 In156 2.326 . S
O163 C159 1.260 . S
O164 In156 2.266 . S
O164 C161 1.252 . S
O165 In156 2.326 . S
O165 C161 1.260 . S
C166 O157 1.240 . S
C166 O158 1.252 . S
O167 In156 2.294 . S
O167 C160 1.240 . S
O168 In156 2.326 . S
O168 C160 1.252 . S
In169 O170 2.294 . S
In169 O171 2.326 . S
In169 O175 2.266 . S
In169 O176 2.326 . S
In169 O177 2.266 . S
In169 O178 2.326 . S
In169 O180 2.294 . S
In169 O181 2.326 . S
O170 In169 2.294 . S
O170 C179 1.240 . S
O171 In169 2.326 . S
O171 C179 1.252 . S
C172 O175 1.252 . S
C172 O176 1.260 . S
C173 O180 1.240 . S
C173 O181 1.252 . S
C174 O177 1.252 . S
C174 O178 1.260 . S
O175 In169 2.266 . S
O175 C172 1.252 . S
O176 In169 2.326 . S
O176 C172 1.260 . S
O177 In169 2.266 . S
O177 C174 1.252 . S
O178 In169 2.326 . S
O178 C174 1.260 . S
C179 O170 1.240 . S
C179 O171 1.252 . S
O180 In169 2.294 . S
O180 C173 1.240 . S
O181 In169 2.326 . S
O181 C173 1.252 . S
In182 O183 2.294 . S
In182 O184 2.326 . S
In182 O188 2.266 . S
In182 O189 2.326 . S
In182 O190 2.266 . S
In182 O191 2.326 . S
In182 O193 2.294 . S
In182 O194 2.326 . S
O183 In182 2.294 . S
O183 C192 1.240 . S
O184 In182 2.326 . S
O184 C192 1.252 . S
C185 O188 1.252 . S
C185 O189 1.260 . S
C186 O193 1.240 . S
C186 O194 1.252 . S
C187 O190 1.252 . S
C187 O191 1.260 . S
O188 In182 2.266 . S
O188 C185 1.252 . S
O189 In182 2.326 . S
O189 C185 1.260 . S
O190 In182 2.266 . S
O190 C187 1.252 . S
O191 In182 2.326 . S
O191 C187 1.260 . S
C192 O183 1.240 . S
C192 O184 1.252 . S
O193 In182 2.294 . S
O193 C186 1.240 . S
O194 In182 2.326 . S
O194 C186 1.252 . S
In195 O196 2.294 . S
In195 O197 2.326 . S
In195 O201 2.266 . S
In195 O202 2.326 . S
In195 O203 2.266 . S
In195 O204 2.326 . S
In195 O206 2.294 . S
In195 O207 2.326 . S
O196 In195 2.294 . S
O196 C205 1.240 . S
O197 In195 2.326 . S
O197 C205 1.252 . S
C198 O201 1.252 . S
C198 O202 1.260 . S
C199 O206 1.240 . S
C199 O207 1.252 . S
C200 O203 1.252 . S
C200 O204 1.260 . S
O201 In195 2.266 . S
O201 C198 1.252 . S
O202 In195 2.326 . S
O202 C198 1.260 . S
O203 In195 2.266 . S
O203 C200 1.252 . S
O204 In195 2.326 . S
O204 C200 1.260 . S
C205 O196 1.240 . S
C205 O197 1.252 . S
O206 In195 2.294 . S
O206 C199 1.240 . S
O207 In195 2.326 . S
O207 C199 1.252 . S
In208 O209 2.294 . S
In208 O210 2.326 . S
In208 O214 2.266 . S
In208 O215 2.326 . S
In208 O216 2.266 . S
In208 O217 2.326 . S
In208 O219 2.294 . S
In208 O220 2.326 . S
O209 In208 2.294 . S
O209 C218 1.240 . S
O210 In208 2.326 . S
O210 C218 1.252 . S
C211 O214 1.252 . S
C211 O215 1.260 . S
C212 O219 1.240 . S
C212 O220 1.252 . S
C213 O216 1.252 . S
C213 O217 1.260 . S
O214 In208 2.266 . S
O214 C211 1.252 . S
O215 In208 2.326 . S
O215 C211 1.260 . S
O216 In208 2.266 . S
O216 C213 1.252 . S
O217 In208 2.326 . S
O217 C213 1.260 . S
C218 O209 1.240 . S
C218 O210 1.252 . S
O219 In208 2.294 . S
O219 C212 1.240 . S
O220 In208 2.326 . S
O220 C212 1.252 . S
In221 O222 2.294 . S
In221 O223 2.326 . S
In221 O227 2.266 . S
In221 O228 2.326 . S
In221 O229 2.266 . S
In221 O230 2.326 . S
In221 O232 2.294 . S
In221 O233 2.326 . S
O222 In221 2.294 . S
O222 C231 1.240 . S
O223 In221 2.326 . S
O223 C231 1.252 . S
C224 O227 1.252 . S
C224 O228 1.260 . S
C225 O232 1.240 . S
C225 O233 1.252 . S
C226 O229 1.252 . S
C226 O230 1.260 . S
O227 In221 2.266 . S
O227 C224 1.252 . S
O228 In221 2.326 . S
O228 C224 1.260 . S
O229 In221 2.266 . S
O229 C226 1.252 . S
O230 In221 2.326 . S
O230 C226 1.260 . S
C231 O222 1.240 . S
C231 O223 1.252 . S
O232 In221 2.294 . S
O232 C225 1.240 . S
O233 In221 2.326 . S
O233 C225 1.252 . S
In234 O235 2.294 . S
In234 O236 2.326 . S
In234 O240 2.266 . S
In234 O241 2.326 . S
In234 O242 2.266 . S
In234 O243 2.326 . S
In234 O245 2.294 . S
In234 O246 2.326 . S
O235 In234 2.294 . S
O235 C244 1.240 . S
O236 In234 2.326 . S
O236 C244 1.252 . S
C237 O240 1.252 . S
C237 O241 1.260 . S
C238 O245 1.240 . S
C238 O246 1.252 . S
C239 O242 1.252 . S
C239 O243 1.260 . S
O240 In234 2.266 . S
O240 C237 1.252 . S
O241 In234 2.326 . S
O241 C237 1.260 . S
O242 In234 2.266 . S
O242 C239 1.252 . S
O243 In234 2.326 . S
O243 C239 1.260 . S
C244 O235 1.240 . S
C244 O236 1.252 . S
O245 In234 2.294 . S
O245 C238 1.240 . S
O246 In234 2.326 . S
O246 C238 1.252 . S
In247 O248 2.294 . S
In247 O249 2.326 . S
In247 O253 2.266 . S
In247 O254 2.326 . S
In247 O255 2.266 . S
In247 O256 2.326 . S
In247 O258 2.294 . S
In247 O259 2.326 . S
O248 In247 2.294 . S
O248 C257 1.240 . S
O249 In247 2.326 . S
O249 C257 1.252 . S
C250 O253 1.252 . S
C250 O254 1.260 . S
C251 O258 1.240 . S
C251 O259 1.252 . S
C252 O255 1.252 . S
C252 O256 1.260 . S
O253 In247 2.266 . S
O253 C250 1.252 . S
O254 In247 2.326 . S
O254 C250 1.260 . S
O255 In247 2.266 . S
O255 C252 1.252 . S
O256 In247 2.326 . S
O256 C252 1.260 . S
C257 O248 1.240 . S
C257 O249 1.252 . S
O258 In247 2.294 . S
O258 C251 1.240 . S
O259 In247 2.326 . S
O259 C251 1.252 . S
In260 O261 2.294 . S
In260 O262 2.326 . S
In260 O266 2.266 . S
In260 O267 2.326 . S
In260 O268 2.266 . S
In260 O269 2.326 . S
In260 O271 2.294 . S
In260 O272 2.326 . S
O261 In260 2.294 . S
O261 C270 1.240 . S
O262 In260 2.326 . S
O262 C270 1.252 . S
C263 O266 1.252 . S
C263 O267 1.260 . S
C264 O271 1.240 . S
C264 O272 1.252 . S
C265 O268 1.252 . S
C265 O269 1.260 . S
O266 In260 2.266 . S
O266 C263 1.252 . S
O267 In260 2.326 . S
O267 C263 1.260 . S
O268 In260 2.266 . S
O268 C265 1.252 . S
O269 In260 2.326 . S
O269 C265 1.260 . S
C270 O261 1.240 . S
C270 O262 1.252 . S
O271 In260 2.294 . S
O271 C264 1.240 . S
O272 In260 2.326 . S
O272 C264 1.252 . S
In273 O274 2.294 . S
In273 O275 2.326 . S
In273 O279 2.266 . S
In273 O280 2.326 . S
In273 O281 2.266 . S
In273 O282 2.326 . S
In273 O284 2.294 . S
In273 O285 2.326 . S
O274 In273 2.294 . S
O274 C283 1.240 . S
O275 In273 2.326 . S
O275 C283 1.252 . S
C276 O279 1.252 . S
C276 O280 1.260 . S
C277 O284 1.240 . S
C277 O285 1.252 . S
C278 O281 1.252 . S
C278 O282 1.260 . S
O279 In273 2.266 . S
O279 C276 1.252 . S
O280 In273 2.326 . S
O280 C276 1.260 . S
O281 In273 2.266 . S
O281 C278 1.252 . S
O282 In273 2.326 . S
O282 C278 1.260 . S
C283 O274 1.240 . S
C283 O275 1.252 . S
O284 In273 2.294 . S
O284 C277 1.240 . S
O285 In273 2.326 . S
O285 C277 1.252 . S
In286 O287 2.294 . S
In286 O288 2.326 . S
In286 O292 2.266 . S
In286 O293 2.326 . S
In286 O294 2.266 . S
In286 O295 2.326 . S
In286 O297 2.294 . S
In286 O298 2.326 . S
O287 In286 2.294 . S
O287 C296 1.240 . S
O288 In286 2.326 . S
O288 C296 1.252 . S
C289 O292 1.252 . S
C289 O293 1.260 . S
C290 O297 1.240 . S
C290 O298 1.252 . S
C291 O294 1.252 . S
C291 O295 1.260 . S
O292 In286 2.266 . S
O292 C289 1.252 . S
O293 In286 2.326 . S
O293 C289 1.260 . S
O294 In286 2.266 . S
O294 C291 1.252 . S
O295 In286 2.326 . S
O295 C291 1.260 . S
C296 O287 1.240 . S
C296 O288 1.252 . S
O297 In286 2.294 . S
O297 C290 1.240 . S
O298 In286 2.326 . S
O298 C290 1.252 . S
In299 O300 2.294 . S
In299 O301 2.326 . S
In299 O305 2.266 . S
In299 O306 2.326 . S
In299 O307 2.266 . S
In299 O308 2.326 . S
In299 O310 2.294 . S
In299 O311 2.326 . S
O300 In299 2.294 . S
O300 C309 1.240 . S
O301 In299 2.326 . S
O301 C309 1.252 . S
C302 O305 1.252 . S
C302 O306 1.260 . S
C303 O310 1.240 . S
C303 O311 1.252 . S
C304 O307 1.252 . S
C304 O308 1.260 . S
O305 In299 2.266 . S
O305 C302 1.252 . S
O306 In299 2.326 . S
O306 C302 1.260 . S
O307 In299 2.266 . S
O307 C304 1.252 . S
O308 In299 2.326 . S
O308 C304 1.260 . S
C309 O300 1.240 . S
C309 O301 1.252 . S
O310 In299 2.294 . S
O310 C303 1.240 . S
O311 In299 2.326 . S
O311 C303 1.252 . S
In312 O313 2.294 . S
In312 O314 2.326 . S
In312 O318 2.266 . S
In312 O319 2.326 . S
In312 O320 2.266 . S
In312 O321 2.326 . S
In312 O323 2.294 . S
In312 O324 2.326 . S
O313 In312 2.294 . S
O313 C322 1.240 . S
O314 In312 2.326 . S
O314 C322 1.252 . S
C315 O318 1.252 . S
C315 O319 1.260 . S
C316 O323 1.240 . S
C316 O324 1.252 . S
C317 O320 1.252 . S
C317 O321 1.260 . S
O318 In312 2.266 . S
O318 C315 1.252 . S
O319 In312 2.326 . S
O319 C315 1.260 . S
O320 In312 2.266 . S
O320 C317 1.252 . S
O321 In312 2.326 . S
O321 C317 1.260 . S
C322 O313 1.240 . S
C322 O314 1.252 . S
O323 In312 2.294 . S
O323 C316 1.240 . S
O324 In312 2.326 . S
O324 C316 1.252 . S
In325 O326 2.294 . S
In325 O327 2.326 . S
In325 O331 2.266 . S
In325 O332 2.326 . S
In325 O333 2.266 . S
In325 O334 2.326 . S
In325 O336 2.294 . S
In325 O337 2.326 . S
O326 In325 2.294 . S
O326 C335 1.240 . S
O327 In325 2.326 . S
O327 C335 1.252 . S
C328 O331 1.252 . S
C328 O332 1.260 . S
C329 O336 1.240 . S
C329 O337 1.252 . S
C330 O333 1.252 . S
C330 O334 1.260 . S
O331 In325 2.266 . S
O331 C328 1.252 . S
O332 In325 2.326 . S
O332 C328 1.260 . S
O333 In325 2.266 . S
O333 C330 1.252 . S
O334 In325 2.326 . S
O334 C330 1.260 . S
C335 O326 1.240 . S
C335 O327 1.252 . S
O336 In325 2.294 . S
O336 C329 1.240 . S
O337 In325 2.326 . S
O337 C329 1.252 . S
In338 O339 2.294 . S
In338 O340 2.326 . S
In338 O344 2.266 . S
In338 O345 2.326 . S
In338 O346 2.266 . S
In338 O347 2.326 . S
In338 O349 2.294 . S
In338 O350 2.326 . S
O339 In338 2.294 . S
O339 C348 1.240 . S
O340 In338 2.326 . S
O340 C348 1.252 . S
C341 O344 1.252 . S
C341 O345 1.260 . S
C342 O349 1.240 . S
C342 O350 1.252 . S
C343 O346 1.252 . S
C343 O347 1.260 . S
O344 In338 2.266 . S
O344 C341 1.252 . S
O345 In338 2.326 . S
O345 C341 1.260 . S
O346 In338 2.266 . S
O346 C343 1.252 . S
O347 In338 2.326 . S
O347 C343 1.260 . S
C348 O339 1.240 . S
C348 O340 1.252 . S
O349 In338 2.294 . S
O349 C342 1.240 . S
O350 In338 2.326 . S
O350 C342 1.252 . S
In351 O352 2.294 . S
In351 O353 2.326 . S
In351 O357 2.266 . S
In351 O358 2.326 . S
In351 O359 2.266 . S
In351 O360 2.326 . S
In351 O362 2.294 . S
In351 O363 2.326 . S
O352 In351 2.294 . S
O352 C361 1.240 . S
O353 In351 2.326 . S
O353 C361 1.252 . S
C354 O357 1.252 . S
C354 O358 1.260 . S
C355 O362 1.240 . S
C355 O363 1.252 . S
C356 O359 1.252 . S
C356 O360 1.260 . S
O357 In351 2.266 . S
O357 C354 1.252 . S
O358 In351 2.326 . S
O358 C354 1.260 . S
O359 In351 2.266 . S
O359 C356 1.252 . S
O360 In351 2.326 . S
O360 C356 1.260 . S
C361 O352 1.240 . S
C361 O353 1.252 . S
O362 In351 2.294 . S
O362 C355 1.240 . S
O363 In351 2.326 . S
O363 C355 1.252 . S
In364 O365 2.294 . S
In364 O366 2.326 . S
In364 O370 2.266 . S
In364 O371 2.326 . S
In364 O372 2.266 . S
In364 O373 2.326 . S
In364 O375 2.294 . S
In364 O376 2.326 . S
O365 In364 2.294 . S
O365 C374 1.240 . S
O366 In364 2.326 . S
O366 C374 1.252 . S
C367 O370 1.252 . S
C367 O371 1.260 . S
C368 O375 1.240 . S
C368 O376 1.252 . S
C369 O372 1.252 . S
C369 O373 1.260 . S
O370 In364 2.266 . S
O370 C367 1.252 . S
O371 In364 2.326 . S
O371 C367 1.260 . S
O372 In364 2.266 . S
O372 C369 1.252 . S
O373 In364 2.326 . S
O373 C369 1.260 . S
C374 O365 1.240 . S
C374 O366 1.252 . S
O375 In364 2.294 . S
O375 C368 1.240 . S
O376 In364 2.326 . S
O376 C368 1.252 . S
In377 O378 2.294 . S
In377 O379 2.326 . S
In377 O383 2.266 . S
In377 O384 2.326 . S
In377 O385 2.266 . S
In377 O386 2.326 . S
In377 O388 2.294 . S
In377 O389 2.326 . S
O378 In377 2.294 . S
O378 C387 1.240 . S
O379 In377 2.326 . S
O379 C387 1.252 . S
C380 O383 1.252 . S
C380 O384 1.260 . S
C381 O388 1.240 . S
C381 O389 1.252 . S
C382 O385 1.252 . S
C382 O386 1.260 . S
O383 In377 2.266 . S
O383 C380 1.252 . S
O384 In377 2.326 . S
O384 C380 1.260 . S
O385 In377 2.266 . S
O385 C382 1.252 . S
O386 In377 2.326 . S
O386 C382 1.260 . S
C387 O378 1.240 . S
C387 O379 1.252 . S
O388 In377 2.294 . S
O388 C381 1.240 . S
O389 In377 2.326 . S
O389 C381 1.252 . S
In390 O391 2.294 . S
In390 O392 2.326 . S
In390 O396 2.266 . S
In390 O397 2.326 . S
In390 O398 2.266 . S
In390 O399 2.326 . S
In390 O401 2.294 . S
In390 O402 2.326 . S
O391 In390 2.294 . S
O391 C400 1.240 . S
O392 In390 2.326 . S
O392 C400 1.252 . S
C393 O396 1.252 . S
C393 O397 1.260 . S
C394 O401 1.240 . S
C394 O402 1.252 . S
C395 O398 1.252 . S
C395 O399 1.260 . S
O396 In390 2.266 . S
O396 C393 1.252 . S
O397 In390 2.326 . S
O397 C393 1.260 . S
O398 In390 2.266 . S
O398 C395 1.252 . S
O399 In390 2.326 . S
O399 C395 1.260 . S
C400 O391 1.240 . S
C400 O392 1.252 . S
O401 In390 2.294 . S
O401 C394 1.240 . S
O402 In390 2.326 . S
O402 C394 1.252 . S
In403 O404 2.294 . S
In403 O405 2.326 . S
In403 O409 2.266 . S
In403 O410 2.326 . S
In403 O411 2.266 . S
In403 O412 2.326 . S
In403 O414 2.294 . S
In403 O415 2.326 . S
O404 In403 2.294 . S
O404 C413 1.240 . S
O405 In403 2.326 . S
O405 C413 1.252 . S
C406 O409 1.252 . S
C406 O410 1.260 . S
C407 O414 1.240 . S
C407 O415 1.252 . S
C408 O411 1.252 . S
C408 O412 1.260 . S
O409 In403 2.266 . S
O409 C406 1.252 . S
O410 In403 2.326 . S
O410 C406 1.260 . S
O411 In403 2.266 . S
O411 C408 1.252 . S
O412 In403 2.326 . S
O412 C408 1.260 . S
C413 O404 1.240 . S
C413 O405 1.252 . S
O414 In403 2.294 . S
O414 C407 1.240 . S
O415 In403 2.326 . S
O415 C407 1.252 . S
H416 C422 0.930 . S
H417 C425 0.930 . S
H418 C426 0.930 . S
H419 C427 0.930 . S
H420 C430 0.930 . S
H421 C431 0.930 . S
C422 H416 0.930 . S
C422 C423 1.355 . S
C422 C424 1.415 . S
C423 C422 1.355 . S
C423 C425 1.419 . S
C424 C422 1.415 . S
C424 C429 1.425 1_565 S
C424 C431 1.409 . S
C425 H417 0.930 . S
C425 C423 1.419 . S
C425 C426 1.362 1_565 S
C426 H418 0.930 . S
C426 C425 1.362 1_545 S
C426 C429 1.409 . S
C427 H419 0.930 . S
C427 C428 1.355 . S
C427 C429 1.415 . S
C428 C427 1.355 . S
C428 C430 1.419 . S
C429 C424 1.425 1_545 S
C429 C426 1.409 . S
C429 C427 1.415 . S
C430 H420 0.930 . S
C430 C428 1.419 . S
C430 C431 1.362 1_545 S
C431 H421 0.930 . S
C431 C424 1.409 . S
C431 C430 1.362 1_565 S
H432 C438 0.930 . S
H433 C441 0.930 . S
H434 C442 0.930 . S
H435 C443 0.930 . S
H436 C446 0.930 . S
H437 C447 0.930 . S
C438 H432 0.930 . S
C438 C439 1.355 . S
C438 C440 1.415 . S
C439 C438 1.355 . S
C439 C441 1.419 . S
C440 C438 1.415 . S
C440 C445 1.425 . S
C440 C447 1.409 . S
C441 H433 0.930 . S
C441 C439 1.419 . S
C441 C442 1.362 . S
C442 H434 0.930 . S
C442 C441 1.362 . S
C442 C445 1.409 . S
C443 H435 0.930 . S
C443 C444 1.355 . S
C443 C445 1.415 . S
C444 C443 1.355 . S
C444 C446 1.419 . S
C445 C440 1.425 . S
C445 C442 1.409 . S
C445 C443 1.415 . S
C446 H436 0.930 . S
C446 C444 1.419 . S
C446 C447 1.362 . S
C447 H437 0.930 . S
C447 C440 1.409 . S
C447 C446 1.362 . S
H448 C454 0.930 . S
H449 C457 0.930 . S
H450 C458 0.930 . S
H451 C459 0.930 . S
H452 C462 0.930 . S
H453 C463 0.930 . S
C454 H448 0.930 . S
C454 C455 1.355 1_565 S
C454 C456 1.415 . S
C455 C454 1.355 1_545 S
C455 C457 1.419 . S
C456 C454 1.415 . S
C456 C461 1.425 1_565 S
C456 C463 1.409 . S
C457 H449 0.930 . S
C457 C455 1.419 . S
C457 C458 1.362 . S
C458 H450 0.930 . S
C458 C457 1.362 . S
C458 C461 1.409 . S
C459 H451 0.930 . S
C459 C460 1.355 1_545 S
C459 C461 1.415 . S
C460 C459 1.355 1_565 S
C460 C462 1.419 . S
C461 C456 1.425 1_545 S
C461 C458 1.409 . S
C461 C459 1.415 . S
C462 H452 0.930 . S
C462 C460 1.419 . S
C462 C463 1.362 . S
C463 H453 0.930 . S
C463 C456 1.409 . S
C463 C462 1.362 . S
H464 C470 0.930 . S
H465 C473 0.930 . S
H466 C474 0.930 . S
H467 C475 0.930 . S
H468 C478 0.930 . S
H469 C479 0.930 . S
C470 H464 0.930 . S
C470 C471 1.355 . S
C470 C472 1.372 1_556 S
C471 C470 1.355 . S
C471 C473 1.419 . S
C472 C470 1.372 1_554 S
C472 C477 1.421 1_554 S
C472 C479 1.456 . S
C473 H465 0.930 . S
C473 C471 1.419 . S
C473 C474 1.362 . S
C474 H466 0.930 . S
C474 C473 1.362 . S
C474 C477 1.456 . S
C475 H467 0.930 . S
C475 C476 1.355 . S
C475 C477 1.372 1_554 S
C476 C475 1.355 . S
C476 C478 1.419 . S
C477 C472 1.421 1_556 S
C477 C474 1.456 . S
C477 C475 1.372 1_556 S
C478 H468 0.930 . S
C478 C476 1.419 . S
C478 C479 1.362 . S
C479 H469 0.930 . S
C479 C472 1.456 . S
C479 C478 1.362 . S
H480 C486 0.930 . S
H481 C489 0.930 . S
H482 C490 0.930 . S
H483 C491 0.930 . S
H484 C494 0.930 . S
H485 C495 0.930 . S
C486 H480 0.930 . S
C486 C487 1.355 . S
C486 C488 1.415 . S
C487 C486 1.355 . S
C487 C489 1.419 1_565 S
C488 C486 1.415 . S
C488 C493 1.425 1_565 S
C488 C495 1.409 . S
C489 H481 0.930 . S
C489 C487 1.419 1_545 S
C489 C490 1.362 . S
C490 H482 0.930 . S
C490 C489 1.362 . S
C490 C493 1.409 . S
C491 H483 0.930 . S
C491 C492 1.355 . S
C491 C493 1.415 . S
C492 C491 1.355 . S
C492 C494 1.419 1_545 S
C493 C488 1.425 1_545 S
C493 C490 1.409 . S
C493 C491 1.415 . S
C494 H484 0.930 . S
C494 C492 1.419 1_565 S
C494 C495 1.362 . S
C495 H485 0.930 . S
C495 C488 1.409 . S
C495 C494 1.362 . S
H496 C502 0.930 . S
H497 C505 0.930 . S
H498 C506 0.930 . S
H499 C507 0.930 . S
H500 C510 0.930 . S
H501 C511 0.930 . S
C502 H496 0.930 . S
C502 C503 1.355 . S
C502 C504 1.415 . S
C503 C502 1.355 . S
C503 C505 1.419 . S
C504 C502 1.415 . S
C504 C509 1.425 . S
C504 C511 1.409 . S
C505 H497 0.930 . S
C505 C503 1.419 . S
C505 C506 1.362 . S
C506 H498 0.930 . S
C506 C505 1.362 . S
C506 C509 1.409 . S
C507 H499 0.930 . S
C507 C508 1.355 . S
C507 C509 1.415 . S
C508 C507 1.355 . S
C508 C510 1.419 . S
C509 C504 1.425 . S
C509 C506 1.409 . S
C509 C507 1.415 . S
C510 H500 0.930 . S
C510 C508 1.419 . S
C510 C511 1.362 . S
C511 H501 0.930 . S
C511 C504 1.409 . S
C511 C510 1.362 . S
H512 C518 0.951 . S
H513 C521 0.930 . S
H514 C522 0.930 . S
H515 C523 0.951 . S
H516 C526 0.930 . S
H517 C527 0.930 . S
C518 H512 0.951 . S
C518 C519 1.324 1_565 S
C518 C520 1.425 . S
C519 C518 1.324 1_545 S
C519 C521 1.419 . S
C520 C518 1.425 . S
C520 C525 1.425 1_565 S
C520 C527 1.409 . S
C521 H513 0.930 . S
C521 C519 1.419 . S
C521 C522 1.362 . S
C522 H514 0.930 . S
C522 C521 1.362 . S
C522 C525 1.409 . S
C523 H515 0.951 . S
C523 C524 1.324 1_545 S
C523 C525 1.425 . S
C524 C523 1.324 1_565 S
C524 C526 1.419 . S
C525 C520 1.425 1_545 S
C525 C522 1.409 . S
C525 C523 1.425 . S
C526 H516 0.930 . S
C526 C524 1.419 . S
C526 C527 1.362 . S
C527 H517 0.930 . S
C527 C520 1.409 . S
C527 C526 1.362 . S
H528 C534 0.930 . S
H529 C537 0.930 . S
H530 C538 0.930 . S
H531 C539 0.930 . S
H532 C542 0.930 . S
H533 C543 0.930 . S
C534 H528 0.930 . S
C534 C535 1.355 . S
C534 C536 1.439 . S
C535 C534 1.355 . S
C535 C537 1.419 . S
C536 C534 1.439 . S
C536 C541 1.424 1_556 S
C536 C543 1.386 1_556 S
C537 H529 0.930 . S
C537 C535 1.419 . S
C537 C538 1.362 . S
C538 H530 0.930 . S
C538 C537 1.362 . S
C538 C541 1.386 1_556 S
C539 H531 0.930 . S
C539 C540 1.355 . S
C539 C541 1.439 . S
C540 C539 1.355 . S
C540 C542 1.419 . S
C541 C536 1.424 1_554 S
C541 C538 1.386 1_554 S
C541 C539 1.439 . S
C542 H532 0.930 . S
C542 C540 1.419 . S
C542 C543 1.362 . S
C543 H533 0.930 . S
C543 C536 1.386 1_554 S
C543 C542 1.362 . S
H544 C550 0.930 . S
H545 C553 0.930 . S
H546 C554 0.930 . S
H547 C555 0.930 . S
H548 C558 0.930 . S
H549 C559 0.930 . S
C550 H544 0.930 . S
C550 C551 1.355 . S
C550 C552 1.415 . S
C551 C550 1.355 . S
C551 C553 1.419 . S
C552 C550 1.415 . S
C552 C557 1.425 . S
C552 C559 1.409 . S
C553 H545 0.930 . S
C553 C551 1.419 . S
C553 C554 1.362 . S
C554 H546 0.930 . S
C554 C553 1.362 . S
C554 C557 1.409 . S
C555 H547 0.930 . S
C555 C556 1.355 . S
C555 C557 1.415 . S
C556 C555 1.355 . S
C556 C558 1.419 . S
C557 C552 1.425 . S
C557 C554 1.409 . S
C557 C555 1.415 . S
C558 H548 0.930 . S
C558 C556 1.419 . S
C558 C559 1.362 . S
C559 H549 0.930 . S
C559 C552 1.409 . S
C559 C558 1.362 . S
H560 C566 0.930 . S
H561 C569 0.930 . S
H562 C570 0.930 . S
H563 C571 0.930 . S
H564 C574 0.930 . S
H565 C575 0.930 . S
C566 H560 0.930 . S
C566 C567 1.355 . S
C566 C568 1.385 1_554 S
C567 C566 1.355 . S
C567 C569 1.419 . S
C568 C566 1.385 1_556 S
C568 C573 1.423 1_556 S
C568 C575 1.441 . S
C569 H561 0.930 . S
C569 C567 1.419 . S
C569 C570 1.362 . S
C570 H562 0.930 . S
C570 C569 1.362 . S
C570 C573 1.441 . S
C571 H563 0.930 . S
C571 C572 1.355 . S
C571 C573 1.385 1_556 S
C572 C571 1.355 . S
C572 C574 1.419 . S
C573 C568 1.423 1_554 S
C573 C570 1.441 . S
C573 C571 1.385 1_554 S
C574 H564 0.930 . S
C574 C572 1.419 . S
C574 C575 1.362 . S
C575 H565 0.930 . S
C575 C568 1.441 . S
C575 C574 1.362 . S
H576 C582 0.930 . S
H577 C585 0.930 . S
H578 C586 0.930 . S
H579 C587 0.930 . S
H580 C590 0.930 . S
H581 C591 0.930 . S
C582 H576 0.930 . S
C582 C583 1.355 . S
C582 C584 1.415 . S
C583 C582 1.355 . S
C583 C585 1.419 . S
C584 C582 1.415 . S
C584 C589 1.425 . S
C584 C591 1.409 . S
C585 H577 0.930 . S
C585 C583 1.419 . S
C585 C586 1.362 . S
C586 H578 0.930 . S
C586 C585 1.362 . S
C586 C589 1.409 . S
C587 H579 0.930 . S
C587 C588 1.355 . S
C587 C589 1.415 . S
C588 C587 1.355 . S
C588 C590 1.419 . S
C589 C584 1.425 . S
C589 C586 1.409 . S
C589 C587 1.415 . S
C590 H580 0.930 . S
C590 C588 1.419 . S
C590 C591 1.362 . S
C591 H581 0.930 . S
C591 C584 1.409 . S
C591 C590 1.362 . S
H592 C598 0.930 . S
H593 C601 0.930 . S
H594 C602 0.930 . S
H595 C603 0.930 . S
H596 C606 0.930 . S
H597 C607 0.930 . S
C598 H592 0.930 . S
C598 C599 1.355 . S
C598 C600 1.415 . S
C599 C598 1.355 . S
C599 C601 1.419 . S
C600 C598 1.415 . S
C600 C605 1.425 . S
C600 C607 1.409 . S
C601 H593 0.930 . S
C601 C599 1.419 . S
C601 C602 1.362 . S
C602 H594 0.930 . S
C602 C601 1.362 . S
C602 C605 1.409 . S
C603 H595 0.930 . S
C603 C604 1.355 . S
C603 C605 1.415 . S
C604 C603 1.355 . S
C604 C606 1.419 . S
C605 C600 1.425 . S
C605 C602 1.409 . S
C605 C603 1.415 . S
C606 H596 0.930 . S
C606 C604 1.419 . S
C606 C607 1.362 . S
C607 H597 0.930 . S
C607 C600 1.409 . S
C607 C606 1.362 . S
H608 C614 0.930 . S
H609 C617 0.930 . S
H610 C618 0.930 . S
H611 C619 0.930 . S
H612 C622 0.930 . S
H613 C623 0.930 . S
C614 H608 0.930 . S
C614 C615 1.355 . S
C614 C616 1.415 . S
C615 C614 1.355 . S
C615 C617 1.419 . S
C616 C614 1.415 . S
C616 C621 1.425 . S
C616 C623 1.409 . S
C617 H609 0.930 . S
C617 C615 1.419 . S
C617 C618 1.362 . S
C618 H610 0.930 . S
C618 C617 1.362 . S
C618 C621 1.409 . S
C619 H611 0.930 . S
C619 C620 1.355 . S
C619 C621 1.415 . S
C620 C619 1.355 . S
C620 C622 1.419 . S
C621 C616 1.425 . S
C621 C618 1.409 . S
C621 C619 1.415 . S
C622 H612 0.930 . S
C622 C620 1.419 . S
C622 C623 1.362 . S
C623 H613 0.930 . S
C623 C616 1.409 . S
C623 C622 1.362 . S
H624 C630 0.930 . S
H625 C633 0.930 . S
H626 C634 0.915 1_556 S
H627 C635 0.930 . S
H628 C638 0.930 . S
H629 C639 0.915 1_554 S
C630 H624 0.930 . S
C630 C631 1.355 . S
C630 C632 1.415 . S
C631 C630 1.355 . S
C631 C633 1.419 . S
C632 C630 1.415 . S
C632 C637 1.425 1_554 S
C632 C639 1.401 1_554 S
C633 H625 0.930 . S
C633 C631 1.419 . S
C633 C634 1.386 . S
C634 H626 0.915 1_554 S
C634 C633 1.386 . S
C634 C637 1.401 1_554 S
C635 H627 0.930 . S
C635 C636 1.355 . S
C635 C637 1.415 . S
C636 C635 1.355 . S
C636 C638 1.419 . S
C637 C632 1.425 1_556 S
C637 C634 1.401 1_556 S
C637 C635 1.415 . S
C638 H628 0.930 . S
C638 C636 1.419 . S
C638 C639 1.386 . S
C639 H629 0.915 1_556 S
C639 C632 1.401 1_556 S
C639 C638 1.386 . S
H640 C646 0.930 . S
H641 C649 0.930 . S
H642 C650 0.930 . S
H643 C651 0.930 . S
H644 C654 0.930 . S
H645 C655 0.930 . S
C646 H640 0.930 . S
C646 C647 1.355 . S
C646 C648 1.415 . S
C647 C646 1.355 . S
C647 C649 1.419 . S
C648 C646 1.415 . S
C648 C653 1.425 . S
C648 C655 1.409 . S
C649 H641 0.930 . S
C649 C647 1.419 . S
C649 C650 1.362 . S
C650 H642 0.930 . S
C650 C649 1.362 . S
C650 C653 1.409 . S
C651 H643 0.930 . S
C651 C652 1.355 . S
C651 C653 1.415 . S
C652 C651 1.355 . S
C652 C654 1.419 . S
C653 C648 1.425 . S
C653 C650 1.409 . S
C653 C651 1.415 . S
C654 H644 0.930 . S
C654 C652 1.419 . S
C654 C655 1.362 . S
C655 H645 0.930 . S
C655 C648 1.409 . S
C655 C654 1.362 . S
H656 C662 0.930 . S
H657 C665 0.930 . S
H658 C666 0.930 . S
H659 C667 0.930 . S
H660 C670 0.930 . S
H661 C671 0.930 . S
C662 H656 0.930 . S
C662 C663 1.355 . S
C662 C664 1.415 . S
C663 C662 1.355 . S
C663 C665 1.419 . S
C664 C662 1.415 . S
C664 C669 1.425 . S
C664 C671 1.409 . S
C665 H657 0.930 . S
C665 C663 1.419 . S
C665 C666 1.362 . S
C666 H658 0.930 . S
C666 C665 1.362 . S
C666 C669 1.409 . S
C667 H659 0.930 . S
C667 C668 1.355 . S
C667 C669 1.415 . S
C668 C667 1.355 . S
C668 C670 1.419 . S
C669 C664 1.425 . S
C669 C666 1.409 . S
C669 C667 1.415 . S
C670 H660 0.930 . S
C670 C668 1.419 . S
C670 C671 1.362 . S
C671 H661 0.930 . S
C671 C664 1.409 . S
C671 C670 1.362 . S
H672 C678 0.930 . S
H673 C681 0.930 . S
H674 C682 0.930 . S
H675 C683 0.930 . S
H676 C686 0.930 . S
H677 C687 0.930 . S
C678 H672 0.930 . S
C678 C679 1.355 1_565 S
C678 C680 1.415 . S
C679 C678 1.355 1_545 S
C679 C681 1.419 . S
C680 C678 1.415 . S
C680 C685 1.425 . S
C680 C687 1.409 . S
C681 H673 0.930 . S
C681 C679 1.419 . S
C681 C682 1.362 . S
C682 H674 0.930 . S
C682 C681 1.362 . S
C682 C685 1.409 1_545 S
C683 H675 0.930 . S
C683 C684 1.355 . S
C683 C685 1.415 . S
C684 C683 1.355 . S
C684 C686 1.419 . S
C685 C680 1.425 . S
C685 C682 1.409 1_565 S
C685 C683 1.415 . S
C686 H676 0.930 . S
C686 C684 1.419 . S
C686 C687 1.362 . S
C687 H677 0.930 . S
C687 C680 1.409 . S
C687 C686 1.362 . S
H688 C694 0.930 . S
H689 C697 0.930 . S
H690 C698 0.930 1_565 S
H691 C699 0.930 . S
H692 C702 0.930 . S
H693 C703 0.930 . S
C694 H688 0.930 . S
C694 C695 1.355 . S
C694 C696 1.415 . S
C695 C694 1.355 . S
C695 C697 1.419 . S
C696 C694 1.415 . S
C696 C701 1.425 . S
C696 C703 1.409 . S
C697 H689 0.930 . S
C697 C695 1.419 . S
C697 C698 1.362 . S
C698 H690 0.930 1_545 S
C698 C697 1.362 . S
C698 C701 1.409 . S
C699 H691 0.930 . S
C699 C700 1.355 . S
C699 C701 1.415 1_565 S
C700 C699 1.355 . S
C700 C702 1.419 1_565 S
C701 C696 1.425 . S
C701 C698 1.409 . S
C701 C699 1.415 1_545 S
C702 H692 0.930 . S
C702 C700 1.419 1_545 S
C702 C703 1.362 . S
C703 H693 0.930 . S
C703 C696 1.409 . S
C703 C702 1.362 . S
H704 C710 0.916 1_565 S
H705 C713 0.930 . S
H706 C714 0.930 . S
H707 C715 0.930 . S
H708 C718 0.930 . S
H709 C719 0.930 . S
C710 H704 0.916 1_545 S
C710 C711 1.352 1_545 S
C710 C712 1.430 . S
C711 C710 1.352 1_565 S
C711 C713 1.419 1_565 S
C712 C710 1.430 . S
C712 C717 1.425 . S
C712 C719 1.409 . S
C713 H705 0.930 . S
C713 C711 1.419 1_545 S
C713 C714 1.362 . S
C714 H706 0.930 . S
C714 C713 1.362 . S
C714 C717 1.409 . S
C715 H707 0.930 . S
C715 C716 1.355 . S
C715 C717 1.415 . S
C716 C715 1.355 . S
C716 C718 1.419 . S
C717 C712 1.425 . S
C717 C714 1.409 . S
C717 C715 1.415 . S
C718 H708 0.930 . S
C718 C716 1.419 . S
C718 C719 1.362 . S
C719 H709 0.930 . S
C719 C712 1.409 . S
C719 C718 1.362 . S
H720 C726 0.930 . S
H721 C729 0.930 . S
H722 C730 0.930 . S
H723 C731 0.930 . S
H724 C734 0.930 . S
H725 C735 0.930 . S
C726 H720 0.930 . S
C726 C727 1.355 . S
C726 C728 1.415 1_545 S
C727 C726 1.355 . S
C727 C729 1.419 1_545 S
C728 C726 1.415 1_565 S
C728 C733 1.425 . S
C728 C735 1.409 . S
C729 H721 0.930 . S
C729 C727 1.419 1_565 S
C729 C730 1.362 . S
C730 H722 0.930 . S
C730 C729 1.362 . S
C730 C733 1.409 . S
C731 H723 0.930 . S
C731 C732 1.355 . S
C731 C733 1.415 . S
C732 C731 1.355 . S
C732 C734 1.419 . S
C733 C728 1.425 . S
C733 C730 1.409 . S
C733 C731 1.415 . S
C734 H724 0.930 . S
C734 C732 1.419 . S
C734 C735 1.362 . S
C735 H725 0.930 . S
C735 C728 1.409 . S
C735 C734 1.362 . S
H736 C742 0.930 . S
H737 C745 0.930 . S
H738 C746 0.930 . S
H739 C747 0.930 . S
H740 C750 0.950 . S
H741 C751 0.930 . S
C742 H736 0.930 . S
C742 C743 1.355 . S
C742 C744 1.415 . S
C743 C742 1.355 . S
C743 C745 1.419 . S
C744 C742 1.415 . S
C744 C749 1.425 . S
C744 C751 1.409 . S
C745 H737 0.930 . S
C745 C743 1.419 . S
C745 C746 1.362 . S
C746 H738 0.930 . S
C746 C745 1.362 . S
C746 C749 1.409 . S
C747 H739 0.930 . S
C747 C748 1.355 1_545 S
C747 C749 1.415 . S
C748 C747 1.355 1_565 S
C748 C750 1.422 . S
C749 C744 1.425 . S
C749 C746 1.409 . S
C749 C747 1.415 . S
C750 H740 0.950 . S
C750 C748 1.422 . S
C750 C751 1.340 1_565 S
C751 H741 0.930 . S
C751 C744 1.409 . S
C751 C750 1.340 1_545 S
H752 C758 0.930 . S
H753 C761 0.930 . S
H754 C762 0.930 . S
H755 C763 0.930 . S
H756 C766 0.930 . S
H757 C767 0.930 1_545 S
C758 H752 0.930 . S
C758 C759 1.355 . S
C758 C760 1.415 1_545 S
C759 C758 1.355 . S
C759 C761 1.419 1_545 S
C760 C758 1.415 1_565 S
C760 C765 1.425 . S
C760 C767 1.409 . S
C761 H753 0.930 . S
C761 C759 1.419 1_565 S
C761 C762 1.362 . S
C762 H754 0.930 . S
C762 C761 1.362 . S
C762 C765 1.409 . S
C763 H755 0.930 . S
C763 C764 1.355 . S
C763 C765 1.415 . S
C764 C763 1.355 . S
C764 C766 1.419 . S
C765 C760 1.425 . S
C765 C762 1.409 . S
C765 C763 1.415 . S
C766 H756 0.930 . S
C766 C764 1.419 . S
C766 C767 1.362 . S
C767 H757 0.930 1_565 S
C767 C760 1.409 . S
C767 C766 1.362 . S
H768 C774 0.930 . S
H769 C777 0.930 . S
H770 C778 0.930 . S
H771 C779 0.930 . S
H772 C782 0.930 . S
H773 C783 0.930 . S
C774 H768 0.930 . S
C774 C775 1.355 . S
C774 C776 1.415 . S
C775 C774 1.355 . S
C775 C777 1.419 . S
C776 C774 1.415 . S
C776 C781 1.425 . S
C776 C783 1.409 1_565 S
C777 H769 0.930 . S
C777 C775 1.419 . S
C777 C778 1.362 . S
C778 H770 0.930 . S
C778 C777 1.362 . S
C778 C781 1.409 . S
C779 H771 0.930 . S
C779 C780 1.355 1_565 S
C779 C781 1.415 . S
C780 C779 1.355 1_545 S
C780 C782 1.419 . S
C781 C776 1.425 . S
C781 C778 1.409 . S
C781 C779 1.415 . S
C782 H772 0.930 . S
C782 C780 1.419 . S
C782 C783 1.362 . S
C783 H773 0.930 . S
C783 C776 1.409 1_545 S
C783 C782 1.362 . S
H784 C790 0.930 . S
H785 C793 0.930 . S
H786 C794 0.930 . S
H787 C795 0.930 . S
H788 C798 0.930 . S
H789 C799 0.930 . S
C790 H784 0.930 . S
C790 C791 1.355 . S
C790 C792 1.415 . S
C791 C790 1.355 . S
C791 C793 1.419 . S
C792 C790 1.415 . S
C792 C797 1.425 . S
C792 C799 1.409 . S
C793 H785 0.930 . S
C793 C791 1.419 . S
C793 C794 1.362 . S
C794 H786 0.930 . S
C794 C793 1.362 . S
C794 C797 1.409 . S
C795 H787 0.930 . S
C795 C796 1.355 1_545 S
C795 C797 1.415 . S
C796 C795 1.355 1_565 S
C796 C798 1.419 . S
C797 C792 1.425 . S
C797 C794 1.409 . S
C797 C795 1.415 . S
C798 H788 0.930 . S
C798 C796 1.419 . S
C798 C799 1.362 1_565 S
C799 H789 0.930 . S
C799 C792 1.409 . S
C799 C798 1.362 1_545 S
H800 C806 0.930 . S
H801 C809 0.930 . S
H802 C810 0.930 . S
H803 C811 0.930 . S
H804 C814 0.930 . S
H805 C815 0.930 . S
C806 H800 0.930 . S
C806 C807 1.355 . S
C806 C808 1.415 . S
C807 C806 1.355 . S
C807 C809 1.419 . S
C808 C806 1.415 . S
C808 C813 1.425 . S
C808 C815 1.409 . S
C809 H801 0.930 . S
C809 C807 1.419 . S
C809 C810 1.362 . S
C810 H802 0.930 . S
C810 C809 1.362 . S
C810 C813 1.409 . S
C811 H803 0.930 . S
C811 C812 1.355 . S
C811 C813 1.415 . S
C812 C811 1.355 . S
C812 C814 1.419 . S
C813 C808 1.425 . S
C813 C810 1.409 . S
C813 C811 1.415 . S
C814 H804 0.930 . S
C814 C812 1.419 . S
C814 C815 1.362 . S
C815 H805 0.930 . S
C815 C808 1.409 . S
C815 C814 1.362 . S
H816 C822 0.930 . S
H817 C825 0.930 . S
H818 C826 0.930 . S
H819 C827 0.930 . S
H820 C830 0.930 . S
H821 C831 0.930 . S
C822 H816 0.930 . S
C822 C823 1.355 . S
C822 C824 1.415 . S
C823 C822 1.355 . S
C823 C825 1.419 . S
C824 C822 1.415 . S
C824 C829 1.425 . S
C824 C831 1.409 . S
C825 H817 0.930 . S
C825 C823 1.419 . S
C825 C826 1.362 . S
C826 H818 0.930 . S
C826 C825 1.362 . S
C826 C829 1.409 . S
C827 H819 0.930 . S
C827 C828 1.355 . S
C827 C829 1.415 . S
C828 C827 1.355 . S
C828 C830 1.419 . S
C829 C824 1.425 . S
C829 C826 1.409 . S
C829 C827 1.415 . S
C830 H820 0.930 . S
C830 C828 1.419 . S
C830 C831 1.362 . S
C831 H821 0.930 . S
C831 C824 1.409 . S
C831 C830 1.362 . S
H832 C838 0.930 . S
H833 C841 0.930 . S
H834 C842 0.930 . S
H835 C843 0.930 . S
H836 C846 0.930 . S
H837 C847 0.930 . S
C838 H832 0.930 . S
C838 C839 1.355 . S
C838 C840 1.415 . S
C839 C838 1.355 . S
C839 C841 1.419 . S
C840 C838 1.415 . S
C840 C845 1.425 . S
C840 C847 1.409 . S
C841 H833 0.930 . S
C841 C839 1.419 . S
C841 C842 1.362 . S
C842 H834 0.930 . S
C842 C841 1.362 . S
C842 C845 1.409 . S
C843 H835 0.930 . S
C843 C844 1.355 . S
C843 C845 1.415 . S
C844 C843 1.355 . S
C844 C846 1.419 . S
C845 C840 1.425 . S
C845 C842 1.409 . S
C845 C843 1.415 . S
C846 H836 0.930 . S
C846 C844 1.419 . S
C846 C847 1.362 . S
C847 H837 0.930 . S
C847 C840 1.409 . S
C847 C846 1.362 . S
H848 C854 0.930 . S
H849 C857 0.930 . S
H850 C858 0.930 . S
H851 C859 0.930 . S
H852 C862 0.930 . S
H853 C863 0.930 . S
C854 H848 0.930 . S
C854 C855 1.355 . S
C854 C856 1.415 . S
C855 C854 1.355 . S
C855 C857 1.419 . S
C856 C854 1.415 . S
C856 C861 1.425 . S
C856 C863 1.409 . S
C857 H849 0.930 . S
C857 C855 1.419 . S
C857 C858 1.362 . S
C858 H850 0.930 . S
C858 C857 1.362 . S
C858 C861 1.409 . S
C859 H851 0.930 . S
C859 C860 1.355 . S
C859 C861 1.415 . S
C860 C859 1.355 . S
C860 C862 1.419 . S
C861 C856 1.425 . S
C861 C858 1.409 . S
C861 C859 1.415 . S
C862 H852 0.930 . S
C862 C860 1.419 . S
C862 C863 1.362 . S
C863 H853 0.930 . S
C863 C856 1.409 . S
C863 C862 1.362 . S
H864 C870 0.930 . S
H865 C873 0.930 . S
H866 C874 0.930 . S
H867 C875 0.930 . S
H868 C878 0.930 . S
H869 C879 0.930 . S
C870 H864 0.930 . S
C870 C871 1.355 . S
C870 C872 1.415 . S
C871 C870 1.355 . S
C871 C873 1.419 . S
C872 C870 1.415 . S
C872 C877 1.425 . S
C872 C879 1.409 . S
C873 H865 0.930 . S
C873 C871 1.419 . S
C873 C874 1.362 . S
C874 H866 0.930 . S
C874 C873 1.362 . S
C874 C877 1.409 . S
C875 H867 0.930 . S
C875 C876 1.355 . S
C875 C877 1.415 . S
C876 C875 1.355 . S
C876 C878 1.419 . S
C877 C872 1.425 . S
C877 C874 1.409 . S
C877 C875 1.415 . S
C878 H868 0.930 . S
C878 C876 1.419 . S
C878 C879 1.362 . S
C879 H869 0.930 . S
C879 C872 1.409 . S
C879 C878 1.362 . S
H880 C886 0.930 . S
H881 C889 0.930 . S
H882 C890 0.930 . S
H883 C891 0.930 . S
H884 C894 0.930 . S
H885 C895 0.930 . S
C886 H880 0.930 . S
C886 C887 1.355 . S
C886 C888 1.415 . S
C887 C886 1.355 . S
C887 C889 1.419 . S
C888 C886 1.415 . S
C888 C893 1.425 . S
C888 C895 1.409 . S
C889 H881 0.930 . S
C889 C887 1.419 . S
C889 C890 1.362 . S
C890 H882 0.930 . S
C890 C889 1.362 . S
C890 C893 1.409 . S
C891 H883 0.930 . S
C891 C892 1.355 . S
C891 C893 1.415 . S
C892 C891 1.355 . S
C892 C894 1.419 . S
C893 C888 1.425 . S
C893 C890 1.409 . S
C893 C891 1.415 . S
C894 H884 0.930 . S
C894 C892 1.419 . S
C894 C895 1.362 . S
C895 H885 0.930 . S
C895 C888 1.409 . S
C895 C894 1.362 . S
H896 C902 0.930 . S
H897 C905 0.930 . S
H898 C906 0.930 . S
H899 C907 0.930 . S
H900 C910 0.930 . S
H901 C911 0.930 . S
C902 H896 0.930 . S
C902 C903 1.355 . S
C902 C904 1.415 . S
C903 C902 1.355 . S
C903 C905 1.419 . S
C904 C902 1.415 . S
C904 C909 1.425 . S
C904 C911 1.409 . S
C905 H897 0.930 . S
C905 C903 1.419 . S
C905 C906 1.362 . S
C906 H898 0.930 . S
C906 C905 1.362 . S
C906 C909 1.409 . S
C907 H899 0.930 . S
C907 C908 1.355 . S
C907 C909 1.415 . S
C908 C907 1.355 . S
C908 C910 1.419 . S
C909 C904 1.425 . S
C909 C906 1.409 . S
C909 C907 1.415 . S
C910 H900 0.930 . S
C910 C908 1.419 . S
C910 C911 1.362 . S
C911 H901 0.930 . S
C911 C904 1.409 . S
C911 C910 1.362 . S
H912 C918 0.930 . S
H913 C921 0.930 . S
H914 C922 0.930 . S
H915 C923 0.930 . S
H916 C926 0.930 . S
H917 C927 0.930 . S
C918 H912 0.930 . S
C918 C919 1.355 . S
C918 C920 1.415 . S
C919 C918 1.355 . S
C919 C921 1.419 . S
C920 C918 1.415 . S
C920 C925 1.425 . S
C920 C927 1.409 . S
C921 H913 0.930 . S
C921 C919 1.419 . S
C921 C922 1.362 . S
C922 H914 0.930 . S
C922 C921 1.362 . S
C922 C925 1.409 . S
C923 H915 0.930 . S
C923 C924 1.355 . S
C923 C925 1.415 . S
C924 C923 1.355 . S
C924 C926 1.419 . S
C925 C920 1.425 . S
C925 C922 1.409 . S
C925 C923 1.415 . S
C926 H916 0.930 . S
C926 C924 1.419 . S
C926 C927 1.362 . S
C927 H917 0.930 . S
C927 C920 1.409 . S
C927 C926 1.362 . S
H928 C934 0.930 . S
H929 C937 0.930 . S
H930 C938 0.930 . S
H931 C939 0.930 . S
H932 C942 0.930 . S
H933 C943 0.930 . S
C934 H928 0.930 . S
C934 C935 1.355 . S
C934 C936 1.415 . S
C935 C934 1.355 . S
C935 C937 1.419 . S
C936 C934 1.415 . S
C936 C941 1.425 . S
C936 C943 1.409 . S
C937 H929 0.930 . S
C937 C935 1.419 . S
C937 C938 1.362 . S
C938 H930 0.930 . S
C938 C937 1.362 . S
C938 C941 1.409 . S
C939 H931 0.930 . S
C939 C940 1.355 . S
C939 C941 1.415 . S
C940 C939 1.355 . S
C940 C942 1.419 . S
C941 C936 1.425 . S
C941 C938 1.409 . S
C941 C939 1.415 . S
C942 H932 0.930 . S
C942 C940 1.419 . S
C942 C943 1.362 . S
C943 H933 0.930 . S
C943 C936 1.409 . S
C943 C942 1.362 . S
H944 C950 0.930 . S
H945 C953 0.930 . S
H946 C954 0.930 . S
H947 C955 0.930 . S
H948 C958 0.930 . S
H949 C959 0.930 . S
C950 H944 0.930 . S
C950 C951 1.355 . S
C950 C952 1.415 . S
C951 C950 1.355 . S
C951 C953 1.419 . S
C952 C950 1.415 . S
C952 C957 1.425 . S
C952 C959 1.409 . S
C953 H945 0.930 . S
C953 C951 1.419 . S
C953 C954 1.362 . S
C954 H946 0.930 . S
C954 C953 1.362 . S
C954 C957 1.409 . S
C955 H947 0.930 . S
C955 C956 1.355 1_455 S
C955 C957 1.415 . S
C956 C955 1.355 1_655 S
C956 C958 1.419 . S
C957 C952 1.425 . S
C957 C954 1.409 . S
C957 C955 1.415 . S
C958 H948 0.930 . S
C958 C956 1.419 . S
C958 C959 1.362 1_655 S
C959 H949 0.930 . S
C959 C952 1.409 . S
C959 C958 1.362 1_455 S
H960 C966 0.930 . S
H961 C969 0.930 . S
H962 C970 0.930 . S
H963 C971 0.930 . S
H964 C974 0.930 . S
H965 C975 0.930 . S
C966 H960 0.930 . S
C966 C967 1.355 . S
C966 C968 1.415 . S
C967 C966 1.355 . S
C967 C969 1.419 . S
C968 C966 1.415 . S
C968 C973 1.425 . S
C968 C975 1.409 . S
C969 H961 0.930 . S
C969 C967 1.419 . S
C969 C970 1.362 . S
C970 H962 0.930 . S
C970 C969 1.362 . S
C970 C973 1.409 . S
C971 H963 0.930 . S
C971 C972 1.355 . S
C971 C973 1.415 . S
C972 C971 1.355 . S
C972 C974 1.419 . S
C973 C968 1.425 . S
C973 C970 1.409 . S
C973 C971 1.415 . S
C974 H964 0.930 . S
C974 C972 1.419 . S
C974 C975 1.362 . S
C975 H965 0.930 . S
C975 C968 1.409 . S
C975 C974 1.362 . S
H976 C982 0.930 . S
H977 C985 0.930 . S
H978 C986 0.930 . S
H979 C987 0.930 . S
H980 C990 0.930 . S
H981 C991 0.930 . S
C982 H976 0.930 . S
C982 C983 1.355 . S
C982 C984 1.415 . S
C983 C982 1.355 . S
C983 C985 1.419 . S
C984 C982 1.415 . S
C984 C989 1.425 . S
C984 C991 1.409 . S
C985 H977 0.930 . S
C985 C983 1.419 . S
C985 C986 1.362 . S
C986 H978 0.930 . S
C986 C985 1.362 . S
C986 C989 1.409 . S
C987 H979 0.930 . S
C987 C988 1.355 . S
C987 C989 1.415 . S
C988 C987 1.355 . S
C988 C990 1.419 . S
C989 C984 1.425 . S
C989 C986 1.409 . S
C989 C987 1.415 . S
C990 H980 0.930 . S
C990 C988 1.419 . S
C990 C991 1.362 . S
C991 H981 0.930 . S
C991 C984 1.409 . S
C991 C990 1.362 . S
H992 C998 0.930 . S
H993 C1001 0.930 . S
H994 C1002 0.930 . S
H995 C1003 0.930 . S
H996 C1006 0.930 . S
H997 C1007 0.930 . S
C998 H992 0.930 . S
C998 C999 1.355 . S
C998 C1000 1.415 . S
C999 C998 1.355 . S
C999 C1001 1.419 . S
C1000 C998 1.415 . S
C1000 C1005 1.425 . S
C1000 C1007 1.409 . S
C1001 H993 0.930 . S
C1001 C999 1.419 . S
C1001 C1002 1.362 . S
C1002 H994 0.930 . S
C1002 C1001 1.362 . S
C1002 C1005 1.409 . S
C1003 H995 0.930 . S
C1003 C1004 1.355 . S
C1003 C1005 1.415 . S
C1004 C1003 1.355 . S
C1004 C1006 1.419 . S
C1005 C1000 1.425 . S
C1005 C1002 1.409 . S
C1005 C1003 1.415 . S
C1006 H996 0.930 . S
C1006 C1004 1.419 . S
C1006 C1007 1.362 . S
C1007 H997 0.930 . S
C1007 C1000 1.409 . S
C1007 C1006 1.362 . S
H1008 C1014 0.930 . S
H1009 C1017 0.930 . S
H1010 C1018 0.930 . S
H1011 C1019 0.930 . S
H1012 C1022 0.930 . S
H1013 C1023 0.930 . S
C1014 H1008 0.930 . S
C1014 C1015 1.355 . S
C1014 C1016 1.415 . S
C1015 C1014 1.355 . S
C1015 C1017 1.419 . S
C1016 C1014 1.415 . S
C1016 C1021 1.425 . S
C1016 C1023 1.409 . S
C1017 H1009 0.930 . S
C1017 C1015 1.419 . S
C1017 C1018 1.362 . S
C1018 H1010 0.930 . S
C1018 C1017 1.362 . S
C1018 C1021 1.409 . S
C1019 H1011 0.930 . S
C1019 C1020 1.355 . S
C1019 C1021 1.415 . S
C1020 C1019 1.355 . S
C1020 C1022 1.419 . S
C1021 C1016 1.425 . S
C1021 C1018 1.409 . S
C1021 C1019 1.415 . S
C1022 H1012 0.930 . S
C1022 C1020 1.419 . S
C1022 C1023 1.362 . S
C1023 H1013 0.930 . S
C1023 C1016 1.409 . S
C1023 C1022 1.362 . S
H1024 C1030 0.930 . S
H1025 C1033 0.930 . S
H1026 C1034 0.930 . S
H1027 C1035 0.930 . S
H1028 C1038 0.930 . S
H1029 C1039 0.930 . S
C1030 H1024 0.930 . S
C1030 C1031 1.355 . S
C1030 C1032 1.415 . S
C1031 C1030 1.355 . S
C1031 C1033 1.419 . S
C1032 C1030 1.415 . S
C1032 C1037 1.425 . S
C1032 C1039 1.409 . S
C1033 H1025 0.930 . S
C1033 C1031 1.419 . S
C1033 C1034 1.362 . S
C1034 H1026 0.930 . S
C1034 C1033 1.362 . S
C1034 C1037 1.409 . S
C1035 H1027 0.930 . S
C1035 C1036 1.355 . S
C1035 C1037 1.415 . S
C1036 C1035 1.355 . S
C1036 C1038 1.419 . S
C1037 C1032 1.425 . S
C1037 C1034 1.409 . S
C1037 C1035 1.415 . S
C1038 H1028 0.930 . S
C1038 C1036 1.419 . S
C1038 C1039 1.362 . S
C1039 H1029 0.930 . S
C1039 C1032 1.409 . S
C1039 C1038 1.362 . S
H1040 C1046 0.930 . S
H1041 C1049 0.930 . S
H1042 C1050 0.930 . S
H1043 C1051 0.930 . S
H1044 C1054 0.930 . S
H1045 C1055 0.930 . S
C1046 H1040 0.930 . S
C1046 C1047 1.355 . S
C1046 C1048 1.415 . S
C1047 C1046 1.355 . S
C1047 C1049 1.419 . S
C1048 C1046 1.415 . S
C1048 C1053 1.425 . S
C1048 C1055 1.409 . S
C1049 H1041 0.930 . S
C1049 C1047 1.419 . S
C1049 C1050 1.362 . S
C1050 H1042 0.930 . S
C1050 C1049 1.362 . S
C1050 C1053 1.409 . S
C1051 H1043 0.930 . S
C1051 C1052 1.355 1_455 S
C1051 C1053 1.415 . S
C1052 C1051 1.355 1_655 S
C1052 C1054 1.419 . S
C1053 C1048 1.425 . S
C1053 C1050 1.409 . S
C1053 C1051 1.415 . S
C1054 H1044 0.930 . S
C1054 C1052 1.419 . S
C1054 C1055 1.362 1_655 S
C1055 H1045 0.930 . S
C1055 C1048 1.409 . S
C1055 C1054 1.362 1_455 S
H1056 C1062 0.930 . S
H1057 C1065 0.930 . S
H1058 C1066 0.930 . S
H1059 C1067 0.930 . S
H1060 C1070 0.930 . S
H1061 C1071 0.930 . S
C1062 H1056 0.930 . S
C1062 C1063 1.355 . S
C1062 C1064 1.415 . S
C1063 C1062 1.355 . S
C1063 C1065 1.419 . S
C1064 C1062 1.415 . S
C1064 C1069 1.425 . S
C1064 C1071 1.409 . S
C1065 H1057 0.930 . S
C1065 C1063 1.419 . S
C1065 C1066 1.362 . S
C1066 H1058 0.930 . S
C1066 C1065 1.362 . S
C1066 C1069 1.409 . S
C1067 H1059 0.930 . S
C1067 C1068 1.355 . S
C1067 C1069 1.415 . S
C1068 C1067 1.355 . S
C1068 C1070 1.419 . S
C1069 C1064 1.425 . S
C1069 C1066 1.409 . S
C1069 C1067 1.415 . S
C1070 H1060 0.930 . S
C1070 C1068 1.419 . S
C1070 C1071 1.362 . S
C1071 H1061 0.930 . S
C1071 C1064 1.409 . S
C1071 C1070 1.362 . S
H1072 C1078 0.930 . S
H1073 C1081 0.930 1_455 S
H1074 C1082 0.930 . S
H1075 C1083 0.930 . S
H1076 C1086 0.930 . S
H1077 C1087 0.930 . S
C1078 H1072 0.930 . S
C1078 C1079 1.355 . S
C1078 C1080 1.415 1_455 S
C1079 C1078 1.355 . S
C1079 C1081 1.419 1_455 S
C1080 C1078 1.415 1_655 S
C1080 C1085 1.425 . S
C1080 C1087 1.409 . S
C1081 H1073 0.930 1_655 S
C1081 C1079 1.419 1_655 S
C1081 C1082 1.362 . S
C1082 H1074 0.930 . S
C1082 C1081 1.362 . S
C1082 C1085 1.409 . S
C1083 H1075 0.930 . S
C1083 C1084 1.355 . S
C1083 C1085 1.415 . S
C1084 C1083 1.355 . S
C1084 C1086 1.419 . S
C1085 C1080 1.425 . S
C1085 C1082 1.409 . S
C1085 C1083 1.415 . S
C1086 H1076 0.930 . S
C1086 C1084 1.419 . S
C1086 C1087 1.362 . S
C1087 H1077 0.930 . S
C1087 C1080 1.409 . S
C1087 C1086 1.362 . S
H1088 C1094 0.930 . S
H1089 C1097 0.930 . S
H1090 C1098 0.930 . S
H1091 C1099 0.930 . S
H1092 C1102 0.930 . S
H1093 C1103 0.930 . S
C1094 H1088 0.930 . S
C1094 C1095 1.355 . S
C1094 C1096 1.415 . S
C1095 C1094 1.355 . S
C1095 C1097 1.419 . S
C1096 C1094 1.415 . S
C1096 C1101 1.425 . S
C1096 C1103 1.409 . S
C1097 H1089 0.930 . S
C1097 C1095 1.419 . S
C1097 C1098 1.362 . S
C1098 H1090 0.930 . S
C1098 C1097 1.362 . S
C1098 C1101 1.409 . S
C1099 H1091 0.930 . S
C1099 C1100 1.355 . S
C1099 C1101 1.415 . S
C1100 C1099 1.355 . S
C1100 C1102 1.419 . S
C1101 C1096 1.425 . S
C1101 C1098 1.409 . S
C1101 C1099 1.415 . S
C1102 H1092 0.930 . S
C1102 C1100 1.419 . S
C1102 C1103 1.362 . S
C1103 H1093 0.930 . S
C1103 C1096 1.409 . S
C1103 C1102 1.362 . S
H1104 C1110 0.930 . S
H1105 C1113 0.930 . S
H1106 C1114 0.930 . S
H1107 C1115 0.930 . S
H1108 C1118 0.930 . S
H1109 C1119 0.930 . S
C1110 H1104 0.930 . S
C1110 C1111 1.355 . S
C1110 C1112 1.415 . S
C1111 C1110 1.355 . S
C1111 C1113 1.419 . S
C1112 C1110 1.415 . S
C1112 C1117 1.425 . S
C1112 C1119 1.409 . S
C1113 H1105 0.930 . S
C1113 C1111 1.419 . S
C1113 C1114 1.362 . S
C1114 H1106 0.930 . S
C1114 C1113 1.362 . S
C1114 C1117 1.409 . S
C1115 H1107 0.930 . S
C1115 C1116 1.355 . S
C1115 C1117 1.415 . S
C1116 C1115 1.355 . S
C1116 C1118 1.419 . S
C1117 C1112 1.425 . S
C1117 C1114 1.409 . S
C1117 C1115 1.415 . S
C1118 H1108 0.930 . S
C1118 C1116 1.419 . S
C1118 C1119 1.362 . S
C1119 H1109 0.930 . S
C1119 C1112 1.409 . S
C1119 C1118 1.362 . S
H1120 C1126 0.930 . S
H1121 C1129 0.930 . S
H1122 C1130 0.930 . S
H1123 C1131 0.930 . S
H1124 C1134 0.930 . S
H1125 C1135 0.930 . S
C1126 H1120 0.930 . S
C1126 C1127 1.355 . S
C1126 C1128 1.415 . S
C1127 C1126 1.355 . S
C1127 C1129 1.419 . S
C1128 C1126 1.415 . S
C1128 C1133 1.425 . S
C1128 C1135 1.409 . S
C1129 H1121 0.930 . S
C1129 C1127 1.419 . S
C1129 C1130 1.362 . S
C1130 H1122 0.930 . S
C1130 C1129 1.362 . S
C1130 C1133 1.409 . S
C1131 H1123 0.930 . S
C1131 C1132 1.355 . S
C1131 C1133 1.415 . S
C1132 C1131 1.355 . S
C1132 C1134 1.419 . S
C1133 C1128 1.425 . S
C1133 C1130 1.409 . S
C1133 C1131 1.415 . S
C1134 H1124 0.930 . S
C1134 C1132 1.419 . S
C1134 C1135 1.362 . S
C1135 H1125 0.930 . S
C1135 C1128 1.409 . S
C1135 C1134 1.362 . S
H1136 C1142 0.930 . S
H1137 C1145 0.930 . S
H1138 C1146 0.930 . S
H1139 C1147 0.930 . S
H1140 C1150 0.930 . S
H1141 C1151 0.930 . S
C1142 H1136 0.930 . S
C1142 C1143 1.355 . S
C1142 C1144 1.415 . S
C1143 C1142 1.355 . S
C1143 C1145 1.419 . S
C1144 C1142 1.415 . S
C1144 C1149 1.425 . S
C1144 C1151 1.409 . S
C1145 H1137 0.930 . S
C1145 C1143 1.419 . S
C1145 C1146 1.362 . S
C1146 H1138 0.930 . S
C1146 C1145 1.362 . S
C1146 C1149 1.409 . S
C1147 H1139 0.930 . S
C1147 C1148 1.355 . S
C1147 C1149 1.415 . S
C1148 C1147 1.355 . S
C1148 C1150 1.419 . S
C1149 C1144 1.425 . S
C1149 C1146 1.409 . S
C1149 C1147 1.415 . S
C1150 H1140 0.930 . S
C1150 C1148 1.419 . S
C1150 C1151 1.362 . S
C1151 H1141 0.930 . S
C1151 C1144 1.409 . S
C1151 C1150 1.362 . S
H1152 C1158 0.930 . S
H1153 C1161 0.930 . S
H1154 C1162 0.930 . S
H1155 C1163 0.930 . S
H1156 C1166 0.930 . S
H1157 C1167 0.930 . S
C1158 H1152 0.930 . S
C1158 C1159 1.355 . S
C1158 C1160 1.415 . S
C1159 C1158 1.355 . S
C1159 C1161 1.419 . S
C1160 C1158 1.415 . S
C1160 C1165 1.425 . S
C1160 C1167 1.409 . S
C1161 H1153 0.930 . S
C1161 C1159 1.419 . S
C1161 C1162 1.362 . S
C1162 H1154 0.930 . S
C1162 C1161 1.362 . S
C1162 C1165 1.409 . S
C1163 H1155 0.930 . S
C1163 C1164 1.355 . S
C1163 C1165 1.415 . S
C1164 C1163 1.355 . S
C1164 C1166 1.419 . S
C1165 C1160 1.425 . S
C1165 C1162 1.409 . S
C1165 C1163 1.415 . S
C1166 H1156 0.930 . S
C1166 C1164 1.419 . S
C1166 C1167 1.362 . S
C1167 H1157 0.930 . S
C1167 C1160 1.409 . S
C1167 C1166 1.362 . S
H1168 C1174 0.930 . S
H1169 C1177 0.930 . S
H1170 C1178 0.930 . S
H1171 C1179 0.930 . S
H1172 C1182 0.930 . S
H1173 C1183 0.930 . S
C1174 H1168 0.930 . S
C1174 C1175 1.355 1_655 S
C1174 C1176 1.415 . S
C1175 C1174 1.355 1_455 S
C1175 C1177 1.419 . S
C1176 C1174 1.415 . S
C1176 C1181 1.425 . S
C1176 C1183 1.409 . S
C1177 H1169 0.930 . S
C1177 C1175 1.419 . S
C1177 C1178 1.362 1_455 S
C1178 H1170 0.930 . S
C1178 C1177 1.362 1_655 S
C1178 C1181 1.409 . S
C1179 H1171 0.930 . S
C1179 C1180 1.355 . S
C1179 C1181 1.415 . S
C1180 C1179 1.355 . S
C1180 C1182 1.419 . S
C1181 C1176 1.425 . S
C1181 C1178 1.409 . S
C1181 C1179 1.415 . S
C1182 H1172 0.930 . S
C1182 C1180 1.419 . S
C1182 C1183 1.362 . S
C1183 H1173 0.930 . S
C1183 C1176 1.409 . S
C1183 C1182 1.362 . S
H1184 C1190 0.930 . S
H1185 C1193 0.930 . S
H1186 C1194 0.930 . S
H1187 C1195 0.930 . S
H1188 C1198 0.930 . S
H1189 C1199 0.930 . S
C1190 H1184 0.930 . S
C1190 C1191 1.355 . S
C1190 C1192 1.415 . S
C1191 C1190 1.355 . S
C1191 C1193 1.419 . S
C1192 C1190 1.415 . S
C1192 C1197 1.425 . S
C1192 C1199 1.409 . S
C1193 H1185 0.930 . S
C1193 C1191 1.419 . S
C1193 C1194 1.362 . S
C1194 H1186 0.930 . S
C1194 C1193 1.362 . S
C1194 C1197 1.409 . S
C1195 H1187 0.930 . S
C1195 C1196 1.355 . S
C1195 C1197 1.415 . S
C1196 C1195 1.355 . S
C1196 C1198 1.419 . S
C1197 C1192 1.425 . S
C1197 C1194 1.409 . S
C1197 C1195 1.415 . S
C1198 H1188 0.930 . S
C1198 C1196 1.419 . S
C1198 C1199 1.362 . S
C1199 H1189 0.930 . S
C1199 C1192 1.409 . S
C1199 C1198 1.362 . S
H1200 C1206 0.930 . S
H1201 C1209 0.930 . S
H1202 C1210 0.930 . S
H1203 C1211 0.930 . S
H1204 C1214 0.930 . S
H1205 C1215 0.930 . S
C1206 H1200 0.930 . S
C1206 C1207 1.355 . S
C1206 C1208 1.415 . S
C1207 C1206 1.355 . S
C1207 C1209 1.419 . S
C1208 C1206 1.415 . S
C1208 C1213 1.425 . S
C1208 C1215 1.409 . S
C1209 H1201 0.930 . S
C1209 C1207 1.419 . S
C1209 C1210 1.362 . S
C1210 H1202 0.930 . S
C1210 C1209 1.362 . S
C1210 C1213 1.409 . S
C1211 H1203 0.930 . S
C1211 C1212 1.355 . S
C1211 C1213 1.415 . S
C1212 C1211 1.355 . S
C1212 C1214 1.419 . S
C1213 C1208 1.425 . S
C1213 C1210 1.409 . S
C1213 C1211 1.415 . S
C1214 H1204 0.930 . S
C1214 C1212 1.419 . S
C1214 C1215 1.362 . S
C1215 H1205 0.930 . S
C1215 C1208 1.409 . S
C1215 C1214 1.362 . S
H1216 C1222 0.930 . S
H1217 C1225 0.930 . S
H1218 C1226 0.930 . S
H1219 C1227 0.930 . S
H1220 C1230 0.930 . S
H1221 C1231 0.930 . S
C1222 H1216 0.930 . S
C1222 C1223 1.355 . S
C1222 C1224 1.415 . S
C1223 C1222 1.355 . S
C1223 C1225 1.419 . S
C1224 C1222 1.415 . S
C1224 C1229 1.425 . S
C1224 C1231 1.409 . S
C1225 H1217 0.930 . S
C1225 C1223 1.419 . S
C1225 C1226 1.362 . S
C1226 H1218 0.930 . S
C1226 C1225 1.362 . S
C1226 C1229 1.409 . S
C1227 H1219 0.930 . S
C1227 C1228 1.355 . S
C1227 C1229 1.415 . S
C1228 C1227 1.355 . S
C1228 C1230 1.419 . S
C1229 C1224 1.425 . S
C1229 C1226 1.409 . S
C1229 C1227 1.415 . S
C1230 H1220 0.930 . S
C1230 C1228 1.419 . S
C1230 C1231 1.362 . S
C1231 H1221 0.930 . S
C1231 C1224 1.409 . S
C1231 C1230 1.362 . S
H1232 C1238 0.930 . S
H1233 C1241 0.930 . S
H1234 C1242 0.930 . S
H1235 C1243 0.930 . S
H1236 C1246 0.925 1_455 S
H1237 C1247 0.930 . S
C1238 H1232 0.930 . S
C1238 C1239 1.355 . S
C1238 C1240 1.415 . S
C1239 C1238 1.355 . S
C1239 C1241 1.419 . S
C1240 C1238 1.415 . S
C1240 C1245 1.425 . S
C1240 C1247 1.409 . S
C1241 H1233 0.930 . S
C1241 C1239 1.419 . S
C1241 C1242 1.362 . S
C1242 H1234 0.930 . S
C1242 C1241 1.362 . S
C1242 C1245 1.409 . S
C1243 H1235 0.930 . S
C1243 C1244 1.355 . S
C1243 C1245 1.415 1_455 S
C1244 C1243 1.355 . S
C1244 C1246 1.419 1_455 S
C1245 C1240 1.425 . S
C1245 C1242 1.409 . S
C1245 C1243 1.415 1_655 S
C1246 H1236 0.925 1_655 S
C1246 C1244 1.419 1_655 S
C1246 C1247 1.362 . S
C1247 H1237 0.930 . S
C1247 C1240 1.409 . S
C1247 C1246 1.362 . S
H1248 C1254 0.930 . S
H1249 C1257 0.930 . S
H1250 C1258 0.930 . S
H1251 C1259 0.930 . S
H1252 C1262 0.930 . S
H1253 C1263 0.930 . S
C1254 H1248 0.930 . S
C1254 C1255 1.355 . S
C1254 C1256 1.415 . S
C1255 C1254 1.355 . S
C1255 C1257 1.419 . S
C1256 C1254 1.415 . S
C1256 C1261 1.425 . S
C1256 C1263 1.409 . S
C1257 H1249 0.930 . S
C1257 C1255 1.419 . S
C1257 C1258 1.362 . S
C1258 H1250 0.930 . S
C1258 C1257 1.362 . S
C1258 C1261 1.409 . S
C1259 H1251 0.930 . S
C1259 C1260 1.355 . S
C1259 C1261 1.415 . S
C1260 C1259 1.355 . S
C1260 C1262 1.419 . S
C1261 C1256 1.425 . S
C1261 C1258 1.409 . S
C1261 C1259 1.415 . S
C1262 H1252 0.930 . S
C1262 C1260 1.419 . S
C1262 C1263 1.362 . S
C1263 H1253 0.930 . S
C1263 C1256 1.409 . S
C1263 C1262 1.362 . S
H1264 C1270 0.930 . S
H1265 C1273 0.930 . S
H1266 C1274 0.930 . S
H1267 C1275 0.930 . S
H1268 C1278 0.930 . S
H1269 C1279 0.930 . S
C1270 H1264 0.930 . S
C1270 C1271 1.355 1_655 S
C1270 C1272 1.415 . S
C1271 C1270 1.355 1_455 S
C1271 C1273 1.419 . S
C1272 C1270 1.415 . S
C1272 C1277 1.425 . S
C1272 C1279 1.409 . S
C1273 H1265 0.930 . S
C1273 C1271 1.419 . S
C1273 C1274 1.362 1_455 S
C1274 H1266 0.930 . S
C1274 C1273 1.362 1_655 S
C1274 C1277 1.409 . S
C1275 H1267 0.930 . S
C1275 C1276 1.355 . S
C1275 C1277 1.415 . S
C1276 C1275 1.355 . S
C1276 C1278 1.419 . S
C1277 C1272 1.425 . S
C1277 C1274 1.409 . S
C1277 C1275 1.415 . S
C1278 H1268 0.930 . S
C1278 C1276 1.419 . S
C1278 C1279 1.362 . S
C1279 H1269 0.930 . S
C1279 C1272 1.409 . S
C1279 C1278 1.362 . S
H1280 C1286 0.930 . S
H1281 C1289 0.930 . S
H1282 C1290 0.930 . S
H1283 C1291 0.930 . S
H1284 C1294 0.930 . S
H1285 C1295 0.930 . S
C1286 H1280 0.930 . S
C1286 C1287 1.355 . S
C1286 C1288 1.415 . S
C1287 C1286 1.355 . S
C1287 C1289 1.419 . S
C1288 C1286 1.415 . S
C1288 C1293 1.425 . S
C1288 C1295 1.409 . S
C1289 H1281 0.930 . S
C1289 C1287 1.419 . S
C1289 C1290 1.362 . S
C1290 H1282 0.930 . S
C1290 C1289 1.362 . S
C1290 C1293 1.409 . S
C1291 H1283 0.930 . S
C1291 C1292 1.355 . S
C1291 C1293 1.415 . S
C1292 C1291 1.355 . S
C1292 C1294 1.419 . S
C1293 C1288 1.425 . S
C1293 C1290 1.409 . S
C1293 C1291 1.415 . S
C1294 H1284 0.930 . S
C1294 C1292 1.419 . S
C1294 C1295 1.362 . S
C1295 H1285 0.930 . S
C1295 C1288 1.409 . S
C1295 C1294 1.362 . S
H1296 C1302 0.930 . S
H1297 C1305 0.930 . S
H1298 C1306 0.930 . S
H1299 C1307 0.930 . S
H1300 C1310 0.930 . S
H1301 C1311 0.930 . S
C1302 H1296 0.930 . S
C1302 C1303 1.355 . S
C1302 C1304 1.415 . S
C1303 C1302 1.355 . S
C1303 C1305 1.419 . S
C1304 C1302 1.415 . S
C1304 C1309 1.425 . S
C1304 C1311 1.409 . S
C1305 H1297 0.930 . S
C1305 C1303 1.419 . S
C1305 C1306 1.362 . S
C1306 H1298 0.930 . S
C1306 C1305 1.362 . S
C1306 C1309 1.409 . S
C1307 H1299 0.930 . S
C1307 C1308 1.355 . S
C1307 C1309 1.415 . S
C1308 C1307 1.355 . S
C1308 C1310 1.419 . S
C1309 C1304 1.425 . S
C1309 C1306 1.409 . S
C1309 C1307 1.415 . S
C1310 H1300 0.930 . S
C1310 C1308 1.419 . S
C1310 C1311 1.362 . S
C1311 H1301 0.930 . S
C1311 C1304 1.409 . S
C1311 C1310 1.362 . S
H1312 C1318 0.930 . S
H1313 C1321 0.930 . S
H1314 C1322 0.930 . S
H1315 C1323 0.930 . S
H1316 C1326 0.930 . S
H1317 C1327 0.930 . S
C1318 H1312 0.930 . S
C1318 C1319 1.355 . S
C1318 C1320 1.415 . S
C1319 C1318 1.355 . S
C1319 C1321 1.419 . S
C1320 C1318 1.415 . S
C1320 C1325 1.425 . S
C1320 C1327 1.409 . S
C1321 H1313 0.930 . S
C1321 C1319 1.419 . S
C1321 C1322 1.362 . S
C1322 H1314 0.930 . S
C1322 C1321 1.362 . S
C1322 C1325 1.409 . S
C1323 H1315 0.930 . S
C1323 C1324 1.355 . S
C1323 C1325 1.415 . S
C1324 C1323 1.355 . S
C1324 C1326 1.419 . S
C1325 C1320 1.425 . S
C1325 C1322 1.409 . S
C1325 C1323 1.415 . S
C1326 H1316 0.930 . S
C1326 C1324 1.419 . S
C1326 C1327 1.362 . S
C1327 H1317 0.930 . S
C1327 C1320 1.409 . S
C1327 C1326 1.362 . S
H1328 C1334 0.930 . S
H1329 C1337 0.930 . S
H1330 C1338 0.930 . S
H1331 C1339 0.930 . S
H1332 C1342 0.930 . S
H1333 C1343 0.930 . S
C1334 H1328 0.930 . S
C1334 C1335 1.355 . S
C1334 C1336 1.415 . S
C1335 C1334 1.355 . S
C1335 C1337 1.419 . S
C1336 C1334 1.415 . S
C1336 C1341 1.425 . S
C1336 C1343 1.409 . S
C1337 H1329 0.930 . S
C1337 C1335 1.419 . S
C1337 C1338 1.362 . S
C1338 H1330 0.930 . S
C1338 C1337 1.362 . S
C1338 C1341 1.409 . S
C1339 H1331 0.930 . S
C1339 C1340 1.355 . S
C1339 C1341 1.415 . S
C1340 C1339 1.355 . S
C1340 C1342 1.419 . S
C1341 C1336 1.425 . S
C1341 C1338 1.409 . S
C1341 C1339 1.415 . S
C1342 H1332 0.930 . S
C1342 C1340 1.419 . S
C1342 C1343 1.362 . S
C1343 H1333 0.930 . S
C1343 C1336 1.409 . S
C1343 C1342 1.362 . S
H1344 C1350 0.930 . S
H1345 C1353 0.930 . S
H1346 C1354 0.930 . S
H1347 C1355 0.930 . S
H1348 C1358 0.930 . S
H1349 C1359 0.930 . S
C1350 H1344 0.930 . S
C1350 C1351 1.355 . S
C1350 C1352 1.415 . S
C1351 C1350 1.355 . S
C1351 C1353 1.419 . S
C1352 C1350 1.415 . S
C1352 C1357 1.425 . S
C1352 C1359 1.409 . S
C1353 H1345 0.930 . S
C1353 C1351 1.419 . S
C1353 C1354 1.362 . S
C1354 H1346 0.930 . S
C1354 C1353 1.362 . S
C1354 C1357 1.409 . S
C1355 H1347 0.930 . S
C1355 C1356 1.355 . S
C1355 C1357 1.415 . S
C1356 C1355 1.355 . S
C1356 C1358 1.419 . S
C1357 C1352 1.425 . S
C1357 C1354 1.409 . S
C1357 C1355 1.415 . S
C1358 H1348 0.930 . S
C1358 C1356 1.419 . S
C1358 C1359 1.362 . S
C1359 H1349 0.930 . S
C1359 C1352 1.409 . S
C1359 C1358 1.362 . S
H1360 C1366 0.930 . S
H1361 C1369 0.930 1_655 S
H1362 C1370 0.930 . S
H1363 C1371 0.930 . S
H1364 C1374 0.930 . S
H1365 C1375 0.930 . S
C1366 H1360 0.930 . S
C1366 C1367 1.355 . S
C1366 C1368 1.415 1_655 S
C1367 C1366 1.355 . S
C1367 C1369 1.419 1_655 S
C1368 C1366 1.415 1_455 S
C1368 C1373 1.425 . S
C1368 C1375 1.409 . S
C1369 H1361 0.930 1_455 S
C1369 C1367 1.419 1_455 S
C1369 C1370 1.362 . S
C1370 H1362 0.930 . S
C1370 C1369 1.362 . S
C1370 C1373 1.409 . S
C1371 H1363 0.930 . S
C1371 C1372 1.355 . S
C1371 C1373 1.415 . S
C1372 C1371 1.355 . S
C1372 C1374 1.419 . S
C1373 C1368 1.425 . S
C1373 C1370 1.409 . S
C1373 C1371 1.415 . S
C1374 H1364 0.930 . S
C1374 C1372 1.419 . S
C1374 C1375 1.362 . S
C1375 H1365 0.930 . S
C1375 C1368 1.409 . S
C1375 C1374 1.362 . S
H1376 C1382 0.930 . S
H1377 C1385 0.930 . S
H1378 C1386 0.930 . S
H1379 C1387 0.930 . S
H1380 C1390 0.930 . S
H1381 C1391 0.930 . S
C1382 H1376 0.930 . S
C1382 C1383 1.355 . S
C1382 C1384 1.415 . S
C1383 C1382 1.355 . S
C1383 C1385 1.419 . S
C1384 C1382 1.415 . S
C1384 C1389 1.425 . S
C1384 C1391 1.409 . S
C1385 H1377 0.930 . S
C1385 C1383 1.419 . S
C1385 C1386 1.362 . S
C1386 H1378 0.930 . S
C1386 C1385 1.362 . S
C1386 C1389 1.409 . S
C1387 H1379 0.930 . S
C1387 C1388 1.355 . S
C1387 C1389 1.415 . S
C1388 C1387 1.355 . S
C1388 C1390 1.419 . S
C1389 C1384 1.425 . S
C1389 C1386 1.409 . S
C1389 C1387 1.415 . S
C1390 H1380 0.930 . S
C1390 C1388 1.419 . S
C1390 C1391 1.362 . S
C1391 H1381 0.930 . S
C1391 C1384 1.409 . S
C1391 C1390 1.362 . S
H1392 C1398 0.930 . S
H1393 C1401 0.930 . S
H1394 C1402 0.930 . S
H1395 C1403 0.930 . S
H1396 C1406 0.924 1_655 S
H1397 C1407 0.930 . S
C1398 H1392 0.930 . S
C1398 C1399 1.355 . S
C1398 C1400 1.415 . S
C1399 C1398 1.355 . S
C1399 C1401 1.419 . S
C1400 C1398 1.415 . S
C1400 C1405 1.425 . S
C1400 C1407 1.409 . S
C1401 H1393 0.930 . S
C1401 C1399 1.419 . S
C1401 C1402 1.362 . S
C1402 H1394 0.930 . S
C1402 C1401 1.362 . S
C1402 C1405 1.409 . S
C1403 H1395 0.930 . S
C1403 C1404 1.355 . S
C1403 C1405 1.415 1_655 S
C1404 C1403 1.355 . S
C1404 C1406 1.419 1_655 S
C1405 C1400 1.425 . S
C1405 C1402 1.409 . S
C1405 C1403 1.415 1_455 S
C1406 H1396 0.924 1_455 S
C1406 C1404 1.419 1_455 S
C1406 C1407 1.362 . S
C1407 H1397 0.930 . S
C1407 C1400 1.409 . S
C1407 C1406 1.362 . S
H1408 C1414 0.930 . S
H1409 C1417 0.930 . S
H1410 C1418 0.930 . S
H1411 C1419 0.930 . S
H1412 C1422 0.930 . S
H1413 C1423 0.930 . S
C1414 H1408 0.930 . S
C1414 C1415 1.355 . S
C1414 C1416 1.415 . S
C1415 C1414 1.355 . S
C1415 C1417 1.419 . S
C1416 C1414 1.415 . S
C1416 C1421 1.425 . S
C1416 C1423 1.409 . S
C1417 H1409 0.930 . S
C1417 C1415 1.419 . S
C1417 C1418 1.362 . S
C1418 H1410 0.930 . S
C1418 C1417 1.362 . S
C1418 C1421 1.409 . S
C1419 H1411 0.930 . S
C1419 C1420 1.355 . S
C1419 C1421 1.415 . S
C1420 C1419 1.355 . S
C1420 C1422 1.419 . S
C1421 C1416 1.425 . S
C1421 C1418 1.409 . S
C1421 C1419 1.415 . S
C1422 H1412 0.930 . S
C1422 C1420 1.419 . S
C1422 C1423 1.362 . S
C1423 H1413 0.930 . S
C1423 C1416 1.409 . S
C1423 C1422 1.362 . S
H1424 C1430 0.930 . S
H1425 C1433 0.930 . S
H1426 C1434 0.930 . S
H1427 C1435 0.930 . S
H1428 C1438 0.930 . S
H1429 C1439 0.930 . S
C1430 H1424 0.930 . S
C1430 C1431 1.355 . S
C1430 C1432 1.415 . S
C1431 C1430 1.355 . S
C1431 C1433 1.419 . S
C1432 C1430 1.415 . S
C1432 C1437 1.425 . S
C1432 C1439 1.409 . S
C1433 H1425 0.930 . S
C1433 C1431 1.419 . S
C1433 C1434 1.362 . S
C1434 H1426 0.930 . S
C1434 C1433 1.362 . S
C1434 C1437 1.409 . S
C1435 H1427 0.930 . S
C1435 C1436 1.355 . S
C1435 C1437 1.415 . S
C1436 C1435 1.355 . S
C1436 C1438 1.419 . S
C1437 C1432 1.425 . S
C1437 C1434 1.409 . S
C1437 C1435 1.415 . S
C1438 H1428 0.930 . S
C1438 C1436 1.419 . S
C1438 C1439 1.362 . S
C1439 H1429 0.930 . S
C1439 C1432 1.409 . S
C1439 C1438 1.362 . S
C423 C62 1.503 . S
C428 C4 1.493 . S
C439 C69 1.497 . S
C444 C23 1.495 . S
C455 C82 1.494 . S
C460 C30 1.498 . S
C471 C49 1.501 . S
C476 C101 1.498 . S
C487 C108 1.499 . S
C492 C166 1.500 . S
C503 C179 1.496 . S
C508 C121 1.496 . S
C519 C140 1.501 . S
C524 C192 1.493 . S
C535 C199 1.502 . S
C540 C147 1.497 . S
C551 C218 1.499 . S
C556 C264 1.494 . S
C567 C283 1.502 . S
C572 C231 1.496 . S
C583 C296 1.501 . S
C588 C244 1.493 . S
C599 C309 1.498 . S
C604 C257 1.494 . S
C615 C322 1.496 . S
C620 C374 1.502 . S
C631 C335 1.495 . S
C636 C381 1.497 . S
C647 C342 1.497 . S
C652 C400 1.495 . S
C663 C355 1.498 . S
C668 C407 1.501 . S
C679 C10 1.511 . S
C684 C95 1.508 . S
C695 C17 1.509 . S
C700 C56 1.502 . S
C711 C36 1.503 . S
C716 C75 1.503 . S
C727 C88 1.502 . S
C732 C43 1.505 . S
C743 C205 1.511 . S
C748 C114 1.508 . S
C759 C160 1.504 . S
C764 C127 1.510 . S
C775 C173 1.504 . S
C780 C134 1.511 . S
C791 C153 1.502 . S
C796 C186 1.509 . S
C807 C303 1.508 . S
C812 C212 1.511 . S
C823 C270 1.502 . S
C828 C225 1.508 . S
C839 C277 1.510 . S
C844 C238 1.504 . S
C855 C251 1.502 . S
C860 C290 1.507 . S
C871 C316 1.508 . S
C876 C413 1.511 . S
C887 C329 1.510 . S
C892 C368 1.503 . S
C903 C348 1.505 . S
C908 C387 1.511 . S
C919 C394 1.502 . S
C924 C361 1.508 . S
C935 C5 1.486 . S
C940 C330 1.494 . S
C951 C16 1.493 . S
C956 C135 1.487 . S
C967 C31 1.487 . S
C972 C354 1.492 . S
C983 C107 1.493 . S
C988 C42 1.487 . S
C999 C406 1.487 . S
C1004 C55 1.494 . S
C1015 C70 1.487 . S
C1020 C161 1.492 . S
C1031 C83 1.493 . S
C1036 C380 1.487 . S
C1047 C94 1.493 . S
C1052 C187 1.488 . S
C1063 C226 1.490 . S
C1068 C109 1.491 . S
C1079 C29 1.492 . S
C1084 C122 1.488 . S
C1095 C252 1.488 . S
C1100 C133 1.493 . S
C1111 C148 1.493 . S
C1116 C3 1.487 . S
C1127 C304 1.493 . S
C1132 C159 1.487 . S
C1143 C57 1.488 . S
C1148 C172 1.492 . S
C1159 C278 1.493 . S
C1164 C185 1.486 . S
C1175 C81 1.490 . S
C1180 C200 1.490 . S
C1191 C120 1.491 . S
C1196 C211 1.489 . S
C1207 C224 1.494 . S
C1212 C341 1.487 . S
C1223 C237 1.486 . S
C1228 C146 1.494 . S
C1239 C250 1.487 . S
C1244 C317 1.493 . S
C1255 C265 1.493 . S
C1260 C198 1.487 . S
C1271 C369 1.487 . S
C1276 C276 1.493 . S
C1287 C289 1.490 . S
C1292 C174 1.490 . S
C1303 C302 1.492 . S
C1308 C395 1.488 . S
C1319 C315 1.491 . S
C1324 C18 1.490 . S
C1335 C328 1.490 . S
C1340 C239 1.490 . S
C1351 C44 1.494 . S
C1356 C343 1.486 . S
C1367 C213 1.494 . S
C1372 C356 1.486 . S
C1383 C367 1.487 . S
C1388 C96 1.493 . S
C1399 C382 1.489 . S
C1404 C263 1.491 . S
C1415 C68 1.487 . S
C1420 C393 1.494 . S
C1431 C291 1.487 . S
C1436 C408 1.494 . S
