# Generated by pormake.
# Topology cds-f, (5)-cn, num edge types: 1
# Building blocks:
#     Node 0, Type 0, BuildingBlock: BEQFEK_clean_sbu_0, # of connection points: 5
#     Node 1, Type 0, BuildingBlock: BEQFEK_clean_sbu_0, # of connection points: 5
#     Node 2, Type 0, BuildingBlock: BEQFEK_clean_sbu_0, # of connection points: 5
#     Node 3, Type 0, BuildingBlock: BEQFEK_clean_sbu_0, # of connection points: 5
#     Node 4, Type 0, BuildingBlock: BEQFEK_clean_sbu_0, # of connection points: 5
#     Node 5, Type 0, BuildingBlock: BEQFEK_clean_sbu_0, # of connection points: 5
#     Node 6, Type 0, BuildingBlock: BEQFEK_clean_sbu_0, # of connection points: 5
#     Node 7, Type 0, BuildingBlock: BEQFEK_clean_sbu_0, # of connection points: 5
#     Node 8, Type 0, BuildingBlock: BEQFEK_clean_sbu_0, # of connection points: 5
#     Node 9, Type 0, BuildingBlock: BEQFEK_clean_sbu_0, # of connection points: 5
#     Node 10, Type 0, BuildingBlock: BEQFEK_clean_sbu_0, # of connection points: 5
#     Node 11, Type 0, BuildingBlock: BEQFEK_clean_sbu_0, # of connection points: 5
#     Node 12, Type 0, BuildingBlock: BEQFEK_clean_sbu_0, # of connection points: 5
#     Node 13, Type 0, BuildingBlock: BEQFEK_clean_sbu_0, # of connection points: 5
#     Node 14, Type 0, BuildingBlock: BEQFEK_clean_sbu_0, # of connection points: 5
#     Node 15, Type 0, BuildingBlock: BEQFEK_clean_sbu_0, # of connection points: 5
#     Edge 16, Type (0, 0), BuildingBlock: TEMPAE_clean_linker_10, # of connection points: 2
#     Edge 17, Type (0, 0), BuildingBlock: TEMPAE_clean_linker_10, # of connection points: 2
#     Edge 18, Type (0, 0), BuildingBlock: TEMPAE_clean_linker_10, # of connection points: 2
#     Edge 19, Type (0, 0), BuildingBlock: TEMPAE_clean_linker_10, # of connection points: 2
#     Edge 20, Type (0, 0), BuildingBlock: TEMPAE_clean_linker_10, # of connection points: 2
#     Edge 21, Type (0, 0), BuildingBlock: TEMPAE_clean_linker_10, # of connection points: 2
#     Edge 22, Type (0, 0), BuildingBlock: TEMPAE_clean_linker_10, # of connection points: 2
#     Edge 23, Type (0, 0), BuildingBlock: TEMPAE_clean_linker_10, # of connection points: 2
#     Edge 24, Type (0, 0), BuildingBlock: TEMPAE_clean_linker_10, # of connection points: 2
#     Edge 25, Type (0, 0), BuildingBlock: TEMPAE_clean_linker_10, # of connection points: 2
#     Edge 26, Type (0, 0), BuildingBlock: TEMPAE_clean_linker_10, # of connection points: 2
#     Edge 27, Type (0, 0), BuildingBlock: TEMPAE_clean_linker_10, # of connection points: 2
#     Edge 28, Type (0, 0), BuildingBlock: TEMPAE_clean_linker_10, # of connection points: 2
#     Edge 29, Type (0, 0), BuildingBlock: TEMPAE_clean_linker_10, # of connection points: 2
#     Edge 30, Type (0, 0), BuildingBlock: TEMPAE_clean_linker_10, # of connection points: 2
#     Edge 31, Type (0, 0), BuildingBlock: TEMPAE_clean_linker_10, # of connection points: 2
#     Edge 32, Type (0, 0), BuildingBlock: TEMPAE_clean_linker_10, # of connection points: 2
#     Edge 33, Type (0, 0), BuildingBlock: TEMPAE_clean_linker_10, # of connection points: 2
#     Edge 34, Type (0, 0), BuildingBlock: TEMPAE_clean_linker_10, # of connection points: 2
#     Edge 35, Type (0, 0), BuildingBlock: TEMPAE_clean_linker_10, # of connection points: 2
#     Edge 36, Type (0, 0), BuildingBlock: TEMPAE_clean_linker_10, # of connection points: 2
#     Edge 37, Type (0, 0), BuildingBlock: TEMPAE_clean_linker_10, # of connection points: 2
#     Edge 38, Type (0, 0), BuildingBlock: TEMPAE_clean_linker_10, # of connection points: 2
#     Edge 39, Type (0, 0), BuildingBlock: TEMPAE_clean_linker_10, # of connection points: 2
#     Edge 40, Type (0, 0), BuildingBlock: TEMPAE_clean_linker_10, # of connection points: 2
#     Edge 41, Type (0, 0), BuildingBlock: TEMPAE_clean_linker_10, # of connection points: 2
#     Edge 42, Type (0, 0), BuildingBlock: TEMPAE_clean_linker_10, # of connection points: 2
#     Edge 43, Type (0, 0), BuildingBlock: TEMPAE_clean_linker_10, # of connection points: 2
#     Edge 44, Type (0, 0), BuildingBlock: TEMPAE_clean_linker_10, # of connection points: 2
#     Edge 45, Type (0, 0), BuildingBlock: TEMPAE_clean_linker_10, # of connection points: 2
#     Edge 46, Type (0, 0), BuildingBlock: TEMPAE_clean_linker_10, # of connection points: 2
#     Edge 47, Type (0, 0), BuildingBlock: TEMPAE_clean_linker_10, # of connection points: 2
#     Edge 48, Type (0, 0), BuildingBlock: TEMPAE_clean_linker_10, # of connection points: 2
#     Edge 49, Type (0, 0), BuildingBlock: TEMPAE_clean_linker_10, # of connection points: 2
#     Edge 50, Type (0, 0), BuildingBlock: TEMPAE_clean_linker_10, # of connection points: 2
#     Edge 51, Type (0, 0), BuildingBlock: TEMPAE_clean_linker_10, # of connection points: 2
#     Edge 52, Type (0, 0), BuildingBlock: TEMPAE_clean_linker_10, # of connection points: 2
#     Edge 53, Type (0, 0), BuildingBlock: TEMPAE_clean_linker_10, # of connection points: 2
#     Edge 54, Type (0, 0), BuildingBlock: TEMPAE_clean_linker_10, # of connection points: 2
#     Edge 55, Type (0, 0), BuildingBlock: TEMPAE_clean_linker_10, # of connection points: 2
# Relax obj value: 0.091
# Max RMSD: 0.134
# Mean RMSD: 0.097
data_MOF--net-cds-f--node1-BEQFEK_clean_sbu_0--edge1-TEMPAE_clean_linker_10
_symmetry_space_group_name_H-M    P1
_symmetry_Int_Tables_number       1
_symmetry_cell_setting            triclinic
loop_
_symmetry_equiv_pos_as_xyz
'x, y, z'
_cell_length_a     39.248054
_cell_length_b     39.25335
_cell_length_c     62.323112
_cell_angle_alpha  90.056839
_cell_angle_beta   94.378063
_cell_angle_gamma 87.584271
loop_
_atom_site_label
_atom_site_type_symbol
_atom_site_fract_x
_atom_site_fract_y
_atom_site_fract_z
_atom_type_partial_charge
Co0 Co 0.29073 0.29954 0.13423 0.0
Co1 Co 0.21074 0.3046 0.13345 0.0
C2 C 0.25249 0.27404 0.17087 0.0
O3 O 0.27999 0.27969 0.16207 0.0
O4 O 0.22327 0.28199 0.16147 0.0
C5 C 0.36011 0.26806 0.13453 0.0
O6 O 0.34702 0.23888 0.13902 0.0
C7 C 0.13809 0.28749 0.13411 0.0
C8 C 0.11345 0.3279 0.11283 0.0
C9 C 0.10663 0.29971 0.12487 0.0
N10 N 0.16237 0.3075 0.12765 0.0
N11 N 0.14739 0.33175 0.11511 0.0
C12 C 0.14538 0.25626 0.14768 0.0
H13 H 0.17083 0.2446 0.14466 0.0
H14 H 0.12535 0.23742 0.14434 0.0
H15 H 0.14585 0.26359 0.1649 0.0
C16 C 0.27464 0.26844 0.09168 0.0
N17 N 0.2653 0.27972 0.11088 0.0
N18 N 0.23169 0.28142 0.11058 0.0
C19 C 0.21869 0.27064 0.09123 0.0
C20 C 0.24537 0.26227 0.07858 0.0
C21 C 0.31037 0.26924 0.0849 0.0
H22 H 0.32132 0.29412 0.08932 0.0
H23 H 0.32634 0.24894 0.09361 0.0
H24 H 0.31135 0.26506 0.06734 0.0
O25 O 0.28076 0.34917 0.13389 0.0
O26 O 0.22439 0.35278 0.13516 0.0
H27 H 0.1728 0.29922 0.08107 0.0
H28 H 0.17667 0.25793 0.06861 0.0
C29 C 0.18149 0.27223 0.08384 0.0
H30 H 0.16655 0.26127 0.09633 0.0
H31 H 0.16046 0.35069 0.10785 0.0
O32 O 0.34061 0.29459 0.13167 0.0
C33 C 0.25297 0.36677 0.13468 0.0
Co34 Co 0.6811 0.28046 0.63003 0.0
Co35 Co 0.67163 0.2018 0.62669 0.0
C36 C 0.70305 0.23395 0.66679 0.0
O37 O 0.70143 0.2634 0.65812 0.0
O38 O 0.69169 0.20803 0.65669 0.0
C39 C 0.71495 0.34563 0.63318 0.0
O40 O 0.74323 0.32851 0.6399 0.0
C41 C 0.68645 0.1269 0.62664 0.0
C42 C 0.63973 0.11013 0.60826 0.0
C43 C 0.6699 0.09811 0.61915 0.0
N44 N 0.66682 0.15462 0.62041 0.0
N45 N 0.63911 0.14433 0.6093 0.0
C46 C 0.71939 0.128 0.64035 0.0
H47 H 0.72207 0.15309 0.64825 0.0
H48 H 0.74101 0.12385 0.63005 0.0
H49 H 0.72097 0.10746 0.65266 0.0
C50 C 0.71454 0.26665 0.58952 0.0
N51 N 0.70011 0.25617 0.60716 0.0
N52 N 0.69749 0.22286 0.60629 0.0
C53 C 0.71064 0.21108 0.58822 0.0
C54 C 0.72202 0.2384 0.57706 0.0
C55 C 0.71848 0.30324 0.58387 0.0
H56 H 0.73863 0.31388 0.59505 0.0
H57 H 0.72587 0.30616 0.56715 0.0
H58 H 0.69419 0.31799 0.58586 0.0
O59 O 0.63078 0.27692 0.62866 0.0
O60 O 0.62432 0.22148 0.62425 0.0
H61 H 0.68108 0.16882 0.57777 0.0
H62 H 0.72094 0.17116 0.56523 0.0
C63 C 0.70836 0.17511 0.58044 0.0
H64 H 0.72071 0.15758 0.59291 0.0
H65 H 0.61939 0.16068 0.60277 0.0
O66 O 0.68796 0.32978 0.62811 0.0
C67 C 0.61174 0.25166 0.6258 0.0
Co68 Co 0.73263 0.70277 0.13137 0.0
Co69 Co 0.812 0.6973 0.128 0.0
C70 C 0.78253 0.72028 0.16846 0.0
O71 O 0.7524 0.71655 0.15996 0.0
O72 O 0.8088 0.7147 0.15795 0.0
C73 C 0.66572 0.72618 0.14367 0.0
O74 O 0.68229 0.73867 0.16081 0.0
C75 C 0.88441 0.71465 0.1278 0.0
C76 C 0.90278 0.67718 0.10434 0.0
C77 C 0.91303 0.70398 0.11742 0.0
N78 N 0.8584 0.69512 0.12101 0.0
N79 N 0.86965 0.67262 0.10714 0.0
C80 C 0.88099 0.74417 0.14278 0.0
H81 H 0.85468 0.75584 0.14074 0.0
H82 H 0.89988 0.7636 0.1399 0.0
H83 H 0.88558 0.73489 0.1596 0.0
C84 C 0.73615 0.73873 0.09023 0.0
N85 N 0.75146 0.72564 0.10863 0.0
N86 N 0.7848 0.72449 0.10741 0.0
C87 C 0.79167 0.73755 0.08826 0.0
C88 C 0.76108 0.74669 0.07662 0.0
C89 C 0.69842 0.73863 0.08453 0.0
H90 H 0.68985 0.71207 0.08499 0.0
H91 H 0.68493 0.75359 0.09665 0.0
H92 H 0.69146 0.74974 0.06833 0.0
O93 O 0.74104 0.65326 0.12889 0.0
O94 O 0.7972 0.64925 0.12627 0.0
H95 H 0.83303 0.70897 0.07558 0.0
H96 H 0.8266 0.75153 0.06485 0.0
C97 C 0.82622 0.73579 0.0796 0.0
H98 H 0.84555 0.74498 0.0919 0.0
H99 H 0.85453 0.65443 0.09935 0.0
O100 O 0.68236 0.71084 0.12956 0.0
C101 C 0.76846 0.6355 0.12693 0.0
Co102 Co 0.29006 0.81259 0.61294 0.0
Co103 Co 0.29402 0.73334 0.61922 0.0
C104 C 0.26765 0.7658 0.57724 0.0
O105 O 0.2708 0.79566 0.58492 0.0
O106 O 0.27587 0.7394 0.58869 0.0
C107 C 0.25792 0.8799 0.60624 0.0
O108 O 0.23037 0.86384 0.5996 0.0
C109 C 0.27495 0.66142 0.61855 0.0
C110 C 0.31138 0.63936 0.64413 0.0
C111 C 0.28507 0.63116 0.62918 0.0
N112 N 0.29439 0.68631 0.6269 0.0
N113 N 0.3162 0.67289 0.6421 0.0
C114 C 0.24636 0.66713 0.6015 0.0
H115 H 0.23415 0.6929 0.60325 0.0
H116 H 0.22695 0.64752 0.60237 0.0
H117 H 0.25686 0.66573 0.58547 0.0
C118 C 0.25521 0.80846 0.65356 0.0
N119 N 0.26874 0.79388 0.63636 0.0
N120 N 0.26911 0.76051 0.63851 0.0
C121 C 0.25528 0.75281 0.65697 0.0
C122 C 0.24612 0.78296 0.66719 0.0
C123 C 0.25297 0.8461 0.65742 0.0
H124 H 0.23427 0.85811 0.64519 0.0
H125 H 0.24447 0.85232 0.67359 0.0
H126 H 0.27822 0.85701 0.65559 0.0
O127 O 0.33998 0.8014 0.61533 0.0
O128 O 0.34258 0.74562 0.62154 0.0
H129 H 0.28208 0.70911 0.67129 0.0
H130 H 0.23989 0.71621 0.68014 0.0
C131 C 0.25541 0.71752 0.66608 0.0
H132 H 0.24531 0.69978 0.65353 0.0
H133 H 0.33442 0.68668 0.65109 0.0
O134 O 0.28498 0.86284 0.61271 0.0
C135 C 0.35718 0.77354 0.6191 0.0
Co136 Co 0.19801 0.71299 0.87927 0.0
Co137 Co 0.27784 0.70726 0.87877 0.0
C138 C 0.24639 0.73398 0.91718 0.0
O139 O 0.21682 0.72888 0.90808 0.0
O140 O 0.27336 0.72816 0.90737 0.0
C141 C 0.13026 0.73115 0.89159 0.0
O142 O 0.14561 0.73594 0.91076 0.0
C143 C 0.35342 0.71459 0.88 0.0
C144 C 0.36461 0.68294 0.85182 0.0
C145 C 0.37979 0.70354 0.86754 0.0
N146 N 0.32411 0.70173 0.87152 0.0
N147 N 0.33118 0.68247 0.85491 0.0
C148 C 0.35615 0.73453 0.9005 0.0
H149 H 0.33703 0.72629 0.91135 0.0
H150 H 0.35102 0.762 0.89681 0.0
H151 H 0.38194 0.73087 0.90897 0.0
C152 C 0.20472 0.74725 0.83774 0.0
N153 N 0.21842 0.73377 0.85649 0.0
N154 N 0.25196 0.73269 0.85659 0.0
C155 C 0.26065 0.74654 0.83808 0.0
C156 C 0.23111 0.75565 0.82536 0.0
C157 C 0.16733 0.74765 0.83086 0.0
H158 H 0.15749 0.72194 0.83325 0.0
H159 H 0.15349 0.7657 0.84119 0.0
H160 H 0.16202 0.75534 0.81377 0.0
O161 O 0.20551 0.66313 0.87772 0.0
O162 O 0.26227 0.65978 0.88013 0.0
H163 H 0.30583 0.72651 0.82467 0.0
H164 H 0.29757 0.77136 0.82031 0.0
C165 C 0.29653 0.75041 0.83216 0.0
H166 H 0.31349 0.75597 0.84667 0.0
H167 H 0.31295 0.66933 0.84549 0.0
O168 O 0.14799 0.72221 0.87615 0.0
C169 C 0.2336 0.64565 0.87908 0.0
Co170 Co 0.31573 0.29416 0.36592 0.0
Co171 Co 0.31633 0.21466 0.3704 0.0
C172 C 0.28966 0.24952 0.32962 0.0
O173 O 0.29536 0.27858 0.33795 0.0
O174 O 0.29674 0.22205 0.34024 0.0
C175 C 0.28643 0.36339 0.36093 0.0
O176 O 0.25748 0.34941 0.35475 0.0
C177 C 0.2984 0.14218 0.36922 0.0
C178 C 0.3327 0.12158 0.39635 0.0
C179 C 0.3082 0.1124 0.38048 0.0
N180 N 0.31633 0.16775 0.37811 0.0
N181 N 0.33685 0.1552 0.39425 0.0
C182 C 0.27154 0.14676 0.35099 0.0
H183 H 0.25805 0.17203 0.35215 0.0
H184 H 0.25282 0.12634 0.35098 0.0
H185 H 0.28397 0.14583 0.33558 0.0
C186 C 0.2806 0.28941 0.40623 0.0
N187 N 0.29384 0.27518 0.38887 0.0
N188 N 0.29228 0.24181 0.3901 0.0
C189 C 0.27705 0.23388 0.40801 0.0
C190 C 0.26932 0.26373 0.41887 0.0
C191 C 0.28116 0.32664 0.41139 0.0
H192 H 0.26219 0.34065 0.40022 0.0
H193 H 0.27456 0.3319 0.4281 0.0
H194 H 0.30679 0.33622 0.409 0.0
O195 O 0.36499 0.28162 0.3682 0.0
O196 O 0.36546 0.22555 0.37264 0.0
H197 H 0.25518 0.19756 0.42856 0.0
H198 H 0.26517 0.18163 0.40249 0.0
C199 C 0.27372 0.19834 0.41601 0.0
H200 H 0.29896 0.18846 0.42312 0.0
H201 H 0.35376 0.16964 0.40381 0.0
O202 O 0.3127 0.34449 0.36646 0.0
C203 C 0.38113 0.25306 0.37114 0.0
Co204 Co 0.77359 0.30031 0.88264 0.0
Co205 Co 0.69357 0.30103 0.87871 0.0
C206 C 0.73345 0.27252 0.91757 0.0
O207 O 0.76143 0.27835 0.90941 0.0
O208 O 0.70464 0.28023 0.90754 0.0
C209 C 0.84256 0.26959 0.88309 0.0
O210 O 0.82842 0.23992 0.88392 0.0
C211 C 0.62033 0.28511 0.87889 0.0
C212 C 0.59812 0.31873 0.85254 0.0
C213 C 0.58968 0.29525 0.8676 0.0
N214 N 0.64565 0.30188 0.87078 0.0
N215 N 0.63213 0.32201 0.85512 0.0
C216 C 0.62586 0.25892 0.89636 0.0
H217 H 0.62718 0.27197 0.91219 0.0
H218 H 0.65049 0.2445 0.89489 0.0
H219 H 0.60468 0.241 0.8957 0.0
C220 C 0.76235 0.2696 0.83905 0.0
N221 N 0.75122 0.28069 0.85788 0.0
N222 N 0.71784 0.27821 0.85729 0.0
C223 C 0.70687 0.26397 0.8385 0.0
C224 C 0.73454 0.25861 0.82607 0.0
C225 C 0.79792 0.27381 0.83263 0.0
H226 H 0.80936 0.29603 0.84097 0.0
H227 H 0.81382 0.25056 0.83728 0.0
H228 H 0.79814 0.27749 0.81499 0.0
O229 O 0.76153 0.34936 0.88408 0.0
O230 O 0.70487 0.35 0.87979 0.0
H231 H 0.65602 0.27818 0.82593 0.0
H232 H 0.66923 0.23481 0.82031 0.0
C233 C 0.67056 0.25529 0.83261 0.0
H234 H 0.65852 0.24671 0.84708 0.0
H235 H 0.64621 0.338 0.84615 0.0
O236 O 0.82378 0.29678 0.8821 0.0
C237 C 0.73271 0.3655 0.88235 0.0
Co238 Co 0.72154 0.78524 0.37811 0.0
Co239 Co 0.72018 0.70578 0.37289 0.0
C240 C 0.74461 0.73744 0.41459 0.0
O241 O 0.73958 0.76727 0.40662 0.0
O242 O 0.73858 0.71092 0.40333 0.0
C243 C 0.7513 0.85096 0.38605 0.0
O244 O 0.77858 0.83367 0.39429 0.0
C245 C 0.72775 0.62989 0.37519 0.0
C246 C 0.70531 0.61661 0.34282 0.0
C247 C 0.7204 0.60233 0.36172 0.0
N248 N 0.71839 0.65889 0.36436 0.0
N249 N 0.70445 0.65063 0.3452 0.0
C250 C 0.73893 0.62894 0.39869 0.0
H251 H 0.72546 0.64974 0.40708 0.0
H252 H 0.76683 0.63273 0.4009 0.0
H253 H 0.73309 0.60446 0.40617 0.0
C254 C 0.75976 0.77822 0.33897 0.0
N255 N 0.74471 0.76464 0.35551 0.0
N256 N 0.7457 0.7312 0.35371 0.0
C257 C 0.7625 0.72247 0.33624 0.0
C258 C 0.77141 0.75203 0.32605 0.0
C259 C 0.76207 0.81573 0.33539 0.0
H260 H 0.77833 0.82649 0.34882 0.0
H261 H 0.77359 0.82141 0.32016 0.0
H262 H 0.73622 0.82833 0.33535 0.0
O263 O 0.6719 0.77791 0.37429 0.0
O264 O 0.67151 0.72178 0.37099 0.0
H265 H 0.74541 0.68054 0.31697 0.0
H266 H 0.79085 0.68325 0.31975 0.0
C267 C 0.76737 0.68666 0.32837 0.0
H268 H 0.76944 0.66856 0.34205 0.0
H269 H 0.69394 0.66832 0.3338 0.0
O270 O 0.72566 0.83513 0.37823 0.0
C271 C 0.65568 0.75064 0.37182 0.0
Co272 Co 0.69864 0.6892 0.88188 0.0
Co273 Co 0.77806 0.68337 0.88046 0.0
C274 C 0.74614 0.71635 0.91744 0.0
O275 O 0.71642 0.7121 0.90848 0.0
O276 O 0.77274 0.70597 0.90852 0.0
C277 C 0.63354 0.72659 0.87584 0.0
O278 O 0.65108 0.75251 0.87029 0.0
C279 C 0.85126 0.69982 0.87987 0.0
C280 C 0.87141 0.65339 0.86426 0.0
C281 C 0.88106 0.68412 0.87323 0.0
N282 N 0.82521 0.67926 0.8749 0.0
N283 N 0.83749 0.65168 0.86548 0.0
C284 C 0.84789 0.73305 0.89149 0.0
H285 H 0.82414 0.73484 0.89993 0.0
H286 H 0.84687 0.75422 0.87965 0.0
H287 H 0.87029 0.73626 0.90319 0.0
C288 C 0.70487 0.71137 0.83664 0.0
N289 N 0.7183 0.70472 0.85684 0.0
N290 N 0.75184 0.70554 0.85725 0.0
C291 C 0.76071 0.71432 0.83761 0.0
C292 C 0.73131 0.71783 0.82373 0.0
C293 C 0.6685 0.70527 0.82901 0.0
H294 H 0.65716 0.68742 0.83996 0.0
H295 H 0.65346 0.72985 0.82862 0.0
H296 H 0.66686 0.69451 0.81251 0.0
O297 O 0.70723 0.63948 0.8848 0.0
O298 O 0.76336 0.63563 0.88198 0.0
H299 H 0.80911 0.6924 0.82998 0.0
H300 H 0.79791 0.73303 0.81713 0.0
C301 C 0.79684 0.71803 0.83213 0.0
H302 H 0.81134 0.7311 0.84543 0.0
H303 H 0.82273 0.6314 0.86014 0.0
O304 O 0.64873 0.69806 0.88051 0.0
C305 C 0.73499 0.62178 0.88393 0.0
Co306 Co 0.3315 0.79424 0.36639 0.0
Co307 Co 0.33631 0.71456 0.37028 0.0
C308 C 0.30873 0.74915 0.32952 0.0
O309 O 0.31288 0.77851 0.3378 0.0
O310 O 0.31647 0.72204 0.34036 0.0
C311 C 0.2968 0.86024 0.36103 0.0
O312 O 0.27026 0.84299 0.35397 0.0
C313 C 0.31751 0.64262 0.36909 0.0
C314 C 0.35539 0.61984 0.39359 0.0
C315 C 0.32809 0.61213 0.37926 0.0
N316 N 0.33766 0.6672 0.37709 0.0
N317 N 0.36034 0.65336 0.39164 0.0
C318 C 0.28751 0.64892 0.35311 0.0
H319 H 0.27634 0.67507 0.35507 0.0
H320 H 0.26772 0.62999 0.355 0.0
H321 H 0.29624 0.64667 0.33663 0.0
C322 C 0.29633 0.7864 0.40657 0.0
N323 N 0.31051 0.77335 0.38917 0.0
N324 N 0.3113 0.73985 0.39034 0.0
C325 C 0.29683 0.73057 0.40828 0.0
C326 C 0.28692 0.75974 0.41917 0.0
C327 C 0.29408 0.82361 0.41179 0.0
H328 H 0.31894 0.83509 0.4096 0.0
H329 H 0.27438 0.8364 0.40051 0.0
H330 H 0.28689 0.82816 0.42845 0.0
O331 O 0.38145 0.7844 0.36898 0.0
O332 O 0.38472 0.72787 0.37194 0.0
H333 H 0.3226 0.68531 0.42122 0.0
H334 H 0.28032 0.69272 0.43011 0.0
C335 C 0.29614 0.69465 0.4162 0.0
H336 H 0.28573 0.67816 0.40304 0.0
H337 H 0.37904 0.6669 0.40037 0.0
O338 O 0.32462 0.84429 0.36729 0.0
C339 C 0.39883 0.75638 0.37112 0.0
Co340 Co 0.27241 0.32272 0.88305 0.0
Co341 Co 0.19253 0.32629 0.88255 0.0
C342 C 0.23485 0.29599 0.91965 0.0
O343 O 0.26208 0.30278 0.91092 0.0
O344 O 0.20544 0.30304 0.91027 0.0
C345 C 0.33835 0.28735 0.88424 0.0
O346 O 0.32152 0.26063 0.88929 0.0
C347 C 0.12099 0.30623 0.88264 0.0
C348 C 0.09433 0.3476 0.86305 0.0
C349 C 0.08899 0.31775 0.8739 0.0
N350 N 0.14415 0.32823 0.87705 0.0
N351 N 0.12799 0.35303 0.86552 0.0
C352 C 0.13001 0.27364 0.89456 0.0
H353 H 0.15617 0.26421 0.89131 0.0
H354 H 0.11136 0.25394 0.88991 0.0
H355 H 0.12958 0.27846 0.91208 0.0
C356 C 0.25635 0.29235 0.84032 0.0
N357 N 0.24696 0.30307 0.85962 0.0
N358 N 0.21338 0.3041 0.85943 0.0
C359 C 0.20036 0.29342 0.84006 0.0
C360 C 0.22708 0.28587 0.82727 0.0
C361 C 0.29205 0.29387 0.83353 0.0
H362 H 0.30354 0.31777 0.83947 0.0
H363 H 0.30772 0.27207 0.84082 0.0
H364 H 0.29282 0.29266 0.81579 0.0
O365 O 0.2623 0.37236 0.88277 0.0
O366 O 0.2059 0.3746 0.8845 0.0
H367 H 0.15251 0.31945 0.83107 0.0
H368 H 0.15839 0.27891 0.81787 0.0
C369 C 0.16301 0.29291 0.83323 0.0
H370 H 0.14944 0.2804 0.84582 0.0
H371 H 0.14008 0.37335 0.85899 0.0
O372 O 0.32212 0.31571 0.8806 0.0
C373 C 0.23412 0.38929 0.88384 0.0
Co374 Co 0.70275 0.2848 0.38363 0.0
Co375 Co 0.7045 0.2055 0.37806 0.0
C376 C 0.73186 0.23701 0.4188 0.0
O377 O 0.72552 0.26675 0.41098 0.0
O378 O 0.72477 0.21051 0.40785 0.0
C379 C 0.73641 0.34798 0.38251 0.0
O380 O 0.7635 0.32821 0.3796 0.0
C381 C 0.72601 0.13271 0.37837 0.0
C382 C 0.69114 0.11298 0.35216 0.0
C383 C 0.71728 0.10321 0.36737 0.0
N384 N 0.70591 0.15872 0.37001 0.0
N385 N 0.68505 0.14672 0.35441 0.0
C386 C 0.75398 0.13662 0.39577 0.0
H387 H 0.76623 0.16129 0.39387 0.0
H388 H 0.77354 0.11541 0.39547 0.0
H389 H 0.74283 0.13671 0.41161 0.0
C390 C 0.72862 0.27904 0.34007 0.0
N391 N 0.72159 0.26535 0.35898 0.0
N392 N 0.72597 0.232 0.35797 0.0
C393 C 0.73777 0.22353 0.33885 0.0
C394 C 0.73936 0.25299 0.32667 0.0
C395 C 0.71904 0.31512 0.33354 0.0
H396 H 0.69889 0.3259 0.3434 0.0
H397 H 0.74194 0.33074 0.3358 0.0
H398 H 0.70953 0.31657 0.31632 0.0
O399 O 0.65363 0.2756 0.38283 0.0
O400 O 0.65514 0.21963 0.37709 0.0
H401 H 0.72308 0.17556 0.32563 0.0
H402 H 0.76504 0.1876 0.31951 0.0
C403 C 0.7466 0.18781 0.33216 0.0
H404 H 0.75791 0.17286 0.34622 0.0
H405 H 0.66666 0.16163 0.34529 0.0
O406 O 0.70779 0.33476 0.38443 0.0
C407 C 0.63853 0.24777 0.37959 0.0
Co408 Co 0.78989 0.31096 0.13225 0.0
Co409 Co 0.71005 0.32008 0.12686 0.0
C410 C 0.74717 0.29409 0.16792 0.0
O411 O 0.7761 0.29435 0.16002 0.0
O412 O 0.71976 0.30399 0.15702 0.0
C413 C 0.85663 0.27532 0.13643 0.0
O414 O 0.84023 0.24796 0.14079 0.0
C415 C 0.63817 0.30178 0.12715 0.0
C416 C 0.61252 0.3392 0.10416 0.0
C417 C 0.60644 0.31209 0.11737 0.0
N418 N 0.66183 0.32185 0.11999 0.0
N419 N 0.64629 0.34429 0.10636 0.0
C420 C 0.64647 0.27201 0.14187 0.0
H421 H 0.67241 0.26106 0.1394 0.0
H422 H 0.62735 0.25211 0.13911 0.0
H423 H 0.6463 0.28082 0.15879 0.0
C424 C 0.77702 0.27449 0.09086 0.0
N425 N 0.76611 0.28926 0.10876 0.0
N426 N 0.73245 0.29168 0.10706 0.0
C427 C 0.72098 0.2778 0.08823 0.0
C428 C 0.74878 0.26644 0.07733 0.0
C429 C 0.81358 0.27255 0.08549 0.0
H430 H 0.82561 0.29707 0.08947 0.0
H431 H 0.82757 0.25222 0.09536 0.0
H432 H 0.81592 0.26651 0.06825 0.0
O433 O 0.78152 0.36102 0.13051 0.0
O434 O 0.7251 0.36745 0.12445 0.0
H435 H 0.67697 0.30706 0.07546 0.0
H436 H 0.68075 0.26478 0.06429 0.0
C437 C 0.68451 0.28006 0.07921 0.0
H438 H 0.66781 0.27064 0.09127 0.0
H439 H 0.65883 0.36286 0.09838 0.0
O440 O 0.8399 0.30318 0.13205 0.0
C441 C 0.75457 0.37992 0.12683 0.0
Co442 Co 0.68355 0.77885 0.62497 0.0
Co443 Co 0.67258 0.70062 0.62021 0.0
C444 C 0.69985 0.73132 0.66196 0.0
O445 O 0.70024 0.7609 0.65366 0.0
O446 O 0.68939 0.70591 0.65094 0.0
C447 C 0.70416 0.84565 0.639 0.0
O448 O 0.71014 0.83141 0.65805 0.0
C449 C 0.68944 0.62716 0.62194 0.0
C450 C 0.65139 0.60751 0.59755 0.0
C451 C 0.67855 0.59749 0.61199 0.0
N452 N 0.66966 0.65346 0.61371 0.0
N453 N 0.64684 0.64154 0.59924 0.0
C454 C 0.71953 0.63104 0.63786 0.0
H455 H 0.7311 0.65595 0.63551 0.0
H456 H 0.73901 0.61004 0.63628 0.0
H457 H 0.71076 0.63047 0.65437 0.0
C458 C 0.72043 0.76569 0.58594 0.0
N459 N 0.70434 0.75472 0.60279 0.0
N460 N 0.70095 0.72161 0.60116 0.0
C461 C 0.71525 0.71042 0.5833 0.0
C462 C 0.72805 0.73799 0.57306 0.0
C463 C 0.72558 0.80243 0.58129 0.0
H464 H 0.74027 0.81386 0.59521 0.0
H465 H 0.73952 0.80552 0.56662 0.0
H466 H 0.70032 0.81632 0.57918 0.0
O467 O 0.633 0.77602 0.62179 0.0
O468 O 0.62544 0.72083 0.61632 0.0
H469 H 0.72765 0.67109 0.56037 0.0
H470 H 0.72203 0.65637 0.58726 0.0
C471 C 0.71261 0.675 0.5746 0.0
H472 H 0.68542 0.67027 0.56986 0.0
H473 H 0.6284 0.65671 0.59034 0.0
O474 O 0.69331 0.8277 0.62313 0.0
C475 C 0.61346 0.75126 0.61805 0.0
Co476 Co 0.23198 0.69176 0.13123 0.0
Co477 Co 0.31175 0.68152 0.13367 0.0
C478 C 0.27625 0.71251 0.17011 0.0
O479 O 0.24704 0.70938 0.1601 0.0
O480 O 0.30362 0.70336 0.16155 0.0
C481 C 0.16592 0.72839 0.1307 0.0
O482 O 0.18292 0.75515 0.13712 0.0
C483 C 0.3852 0.69743 0.13569 0.0
C484 C 0.40753 0.64852 0.12455 0.0
C485 C 0.41601 0.68064 0.13183 0.0
N486 N 0.35974 0.67613 0.1308 0.0
N487 N 0.37334 0.64704 0.12408 0.0
C488 C 0.38011 0.73241 0.1448 0.0
H489 H 0.35486 0.7355 0.15152 0.0
H490 H 0.38107 0.75152 0.13178 0.0
H491 H 0.40079 0.73748 0.15741 0.0
C492 C 0.24461 0.72462 0.08994 0.0
N493 N 0.25582 0.7109 0.10914 0.0
N494 N 0.2893 0.70609 0.10991 0.0
C495 C 0.30039 0.71646 0.09114 0.0
C496 C 0.2725 0.72872 0.0779 0.0
C497 C 0.20762 0.72884 0.08219 0.0
H498 H 0.19446 0.70508 0.0853 0.0
H499 H 0.19555 0.74972 0.09135 0.0
H500 H 0.20416 0.73502 0.06478 0.0
O501 O 0.23863 0.6415 0.13092 0.0
O502 O 0.2952 0.63459 0.1345 0.0
H503 H 0.34433 0.68428 0.08596 0.0
H504 H 0.33968 0.72173 0.06886 0.0
C505 C 0.33652 0.71177 0.08522 0.0
H506 H 0.35357 0.72543 0.09697 0.0
H507 H 0.35927 0.62592 0.11943 0.0
O508 O 0.18212 0.70066 0.12679 0.0
C509 C 0.26564 0.62234 0.13288 0.0
Co510 Co 0.28792 0.31244 0.61418 0.0
Co511 Co 0.29184 0.23279 0.61861 0.0
C512 C 0.26431 0.26758 0.57773 0.0
O513 O 0.26814 0.29701 0.58596 0.0
O514 O 0.27276 0.24054 0.58849 0.0
C515 C 0.25639 0.3806 0.60888 0.0
O516 O 0.22867 0.36536 0.6016 0.0
C517 C 0.27297 0.16083 0.61683 0.0
C518 C 0.31033 0.13788 0.64158 0.0
C519 C 0.28351 0.13021 0.62687 0.0
N520 N 0.29264 0.18544 0.62531 0.0
N521 N 0.31502 0.17149 0.63999 0.0
C522 C 0.24379 0.16712 0.60025 0.0
H523 H 0.23169 0.1928 0.60253 0.0
H524 H 0.22445 0.14743 0.60113 0.0
H525 H 0.25365 0.16629 0.58403 0.0
C526 C 0.25349 0.30562 0.65467 0.0
N527 N 0.26672 0.29212 0.63709 0.0
N528 N 0.26725 0.25864 0.63853 0.0
C529 C 0.25398 0.24979 0.65694 0.0
C530 C 0.24503 0.27927 0.66787 0.0
C531 C 0.25114 0.34303 0.65933 0.0
H532 H 0.27658 0.35397 0.65831 0.0
H533 H 0.23311 0.35572 0.647 0.0
H534 H 0.24177 0.34839 0.67538 0.0
O535 O 0.33787 0.30133 0.6165 0.0
O536 O 0.3402 0.24522 0.62127 0.0
H537 H 0.28154 0.20566 0.67011 0.0
H538 H 0.23966 0.21182 0.67959 0.0
C539 C 0.2547 0.21403 0.66537 0.0
H540 H 0.24433 0.19684 0.6526 0.0
H541 H 0.33349 0.18498 0.64897 0.0
O542 O 0.28306 0.36277 0.61517 0.0
C543 C 0.35491 0.27326 0.61973 0.0
C544 C 0.9129 0.24311 0.1345 0.0
C545 C 0.89431 0.27414 0.13636 0.0
C546 C 0.94858 0.24235 0.13338 0.0
C547 C 0.96592 0.27329 0.13448 0.0
C548 C 0.94733 0.30452 0.13704 0.0
C549 C 0.91178 0.30458 0.13778 0.0
C550 C 0.96755 0.20864 0.13038 0.0
C551 C 0.9649 0.33807 0.13856 0.0
C552 C 0.06156 0.279 0.14735 0.0
C553 C 0.07217 0.28716 0.1271 0.0
C554 C 0.02719 0.27237 0.1499 0.0
C555 C 0.00318 0.27374 0.13171 0.0
C556 C 0.01435 0.27989 0.11106 0.0
C557 C 0.04866 0.2869 0.10905 0.0
C558 C 0.01621 0.26629 0.17221 0.0
C559 C 0.98968 0.28111 0.09122 0.0
H560 H 0.89948 0.21952 0.13335 0.0
H561 H 0.8976 0.32862 0.13946 0.0
H562 H 0.97866 0.20834 0.11453 0.0
H563 H 0.98911 0.20521 0.14288 0.0
H564 H 0.95069 0.18672 0.13115 0.0
H565 H 0.94703 0.3598 0.14188 0.0
H566 H 0.98596 0.33685 0.1515 0.0
H567 H 0.97642 0.34321 0.12324 0.0
H568 H 0.0796 0.27979 0.16138 0.0
H569 H 0.05697 0.29309 0.09337 0.0
H570 H 0.99939 0.24429 0.17228 0.0
H571 H 0.00124 0.28901 0.17743 0.0
H572 H 0.03841 0.26147 0.18413 0.0
H573 H 0.97344 0.25863 0.09069 0.0
H574 H 0.00309 0.28187 0.07617 0.0
H575 H 0.97245 0.3042 0.09174 0.0
C576 C 0.65373 0.03922 0.62693 0.0
C577 C 0.6794 0.06173 0.62317 0.0
C578 C 0.66135 0.00435 0.63007 0.0
C579 C 0.69548 0.99159 0.62923 0.0
C580 C 0.72162 0.01418 0.62555 0.0
C581 C 0.71323 0.04909 0.62251 0.0
C582 C 0.63273 0.98111 0.63401 0.0
C583 C 0.75823 0.00138 0.62435 0.0
C584 C 0.71219 0.904 0.65429 0.0
C585 C 0.70665 0.88288 0.6363 0.0
C586 C 0.71047 0.93962 0.65211 0.0
C587 C 0.70316 0.95435 0.63146 0.0
C588 C 0.69953 0.93314 0.61312 0.0
C589 C 0.70128 0.89765 0.61577 0.0
C590 C 0.7146 0.96146 0.67201 0.0
C591 C 0.69193 0.9479 0.59081 0.0
H592 H 0.62754 0.04895 0.62748 0.0
H593 H 0.73299 0.0662 0.61898 0.0
H594 H 0.63013 0.96201 0.62092 0.0
H595 H 0.63871 0.96691 0.64931 0.0
H596 H 0.60776 0.99529 0.63484 0.0
H597 H 0.77583 0.02248 0.62265 0.0
H598 H 0.76698 0.98648 0.63901 0.0
H599 H 0.76007 0.98399 0.61041 0.0
H600 H 0.71656 0.89278 0.67019 0.0
H601 H 0.69738 0.8815 0.60175 0.0
H602 H 0.6896 0.97411 0.67504 0.0
H603 H 0.73271 0.98185 0.66969 0.0
H604 H 0.72394 0.94632 0.68649 0.0
H605 H 0.66576 0.95995 0.58943 0.0
H606 H 0.69354 0.92817 0.5781 0.0
H607 H 0.70998 0.96804 0.58781 0.0
C608 C 0.96436 0.7223 0.13999 0.0
C609 C 0.94798 0.71661 0.11963 0.0
C610 C 0.99932 0.72898 0.14231 0.0
C611 C 0.01804 0.73023 0.12379 0.0
C612 C 0.00099 0.72666 0.10311 0.0
C613 C 0.96622 0.71948 0.10131 0.0
C614 C 0.01667 0.73219 0.16464 0.0
C615 C 0.0199 0.72833 0.08295 0.0
C616 C 0.10915 0.76066 0.12833 0.0
C617 C 0.12811 0.72953 0.12899 0.0
C618 C 0.07318 0.76147 0.12669 0.0
C619 C 0.05599 0.73043 0.12606 0.0
C620 C 0.07509 0.699 0.12704 0.0
C621 C 0.11084 0.69895 0.12831 0.0
C622 C 0.05358 0.7954 0.12535 0.0
C623 C 0.05777 0.66531 0.12668 0.0
H624 H 0.95041 0.71949 0.15419 0.0
H625 H 0.95344 0.71519 0.08555 0.0
H626 H 0.03324 0.70904 0.16843 0.0
H627 H 0.03333 0.75435 0.16557 0.0
H628 H 0.99795 0.73507 0.17708 0.0
H629 H 0.00218 0.72979 0.06817 0.0
H630 H 0.03619 0.75077 0.0834 0.0
H631 H 0.03699 0.70523 0.08193 0.0
H632 H 0.12239 0.78436 0.12881 0.0
H633 H 0.12531 0.67478 0.12901 0.0
H634 H 0.03609 0.79759 0.13849 0.0
H635 H 0.0375 0.79725 0.10992 0.0
H636 H 0.07074 0.81723 0.12643 0.0
H637 H 0.04038 0.66439 0.13988 0.0
H638 H 0.07639 0.64319 0.12845 0.0
H639 H 0.04194 0.6626 0.1113 0.0
C640 C 0.22652 0.93685 0.6066 0.0
C641 C 0.25747 0.91755 0.60715 0.0
C642 C 0.22624 0.97252 0.60873 0.0
C643 C 0.25763 0.98912 0.61116 0.0
C644 C 0.28889 0.96978 0.61104 0.0
C645 C 0.28842 0.93426 0.60919 0.0
C646 C 0.19246 0.99231 0.60902 0.0
C647 C 0.32293 0.98655 0.61332 0.0
C648 C 0.26588 0.08369 0.60148 0.0
C649 C 0.27137 0.09561 0.6226 0.0
C650 C 0.25943 0.04926 0.59743 0.0
C651 C 0.25834 0.02647 0.61495 0.0
C652 C 0.26197 0.0389 0.63629 0.0
C653 C 0.26881 0.07328 0.63985 0.0
C654 C 0.25607 0.03689 0.57446 0.0
C655 C 0.26054 0.01553 0.65541 0.0
H656 H 0.20253 0.92403 0.60509 0.0
H657 H 0.31243 0.91951 0.60942 0.0
H658 H 0.19046 0.0044 0.625 0.0
H659 H 0.19088 0.01311 0.5969 0.0
H660 H 0.17032 0.97587 0.6057 0.0
H661 H 0.3448 0.96807 0.61166 0.0
H662 H 0.3237 0.00679 0.60098 0.0
H663 H 0.32635 0.99889 0.62932 0.0
H664 H 0.26856 0.10075 0.58812 0.0
H665 H 0.27302 0.08258 0.65619 0.0
H666 H 0.23377 0.02056 0.57176 0.0
H667 H 0.27921 0.0211 0.57117 0.0
H668 H 0.25321 0.05833 0.56274 0.0
H669 H 0.23772 -0.00025 0.65338 0.0
H670 H 0.25974 0.02986 0.67076 0.0
H671 H 0.28344 0.99787 0.6566 0.0
C672 C 0.94316 0.67088 0.88108 0.0
C673 C 0.91661 0.69526 0.87623 0.0
C674 C 0.97726 0.68023 0.88366 0.0
C675 C 0.98501 0.71482 0.88118 0.0
C676 C 0.95835 0.73962 0.87624 0.0
C677 C 0.92439 0.72949 0.8737 0.0
C678 C 0.005 0.65299 0.8889 0.0
C679 C 0.96576 0.77669 0.87333 0.0
C680 C 0.07258 0.73601 0.90612 0.0
C681 C 0.0925 0.732 0.88846 0.0
C682 C 0.03709 0.73232 0.90377 0.0
C683 C 0.02126 0.72451 0.88329 0.0
C684 C 0.04093 0.72245 0.8652 0.0
C685 C 0.07634 0.72623 0.868 0.0
C686 C 0.01687 0.7349 0.92341 0.0
C687 C 0.02493 0.71433 0.84307 0.0
H688 H 0.93723 0.64438 0.88301 0.0
H689 H 0.90412 0.74825 0.86922 0.0
H690 H 0.02303 0.65186 0.87603 0.0
H691 H 0.0199 0.65934 0.90412 0.0
H692 H 0.99457 0.62734 0.89061 0.0
H693 H 0.94202 0.793 0.87047 0.0
H694 H 0.98069 0.78617 0.88778 0.0
H695 H 0.98158 0.7795 0.85948 0.0
H696 H 0.08484 0.74071 0.92196 0.0
H697 H 0.0915 0.72346 0.85422 0.0
H698 H 0.00817 0.70932 0.92746 0.0
H699 H 0.9937 0.75182 0.92015 0.0
H700 H 0.03218 0.7448 0.93762 0.0
H701 H 0.01666 0.68764 0.84278 0.0
H702 H 0.04296 0.71731 0.83037 0.0
H703 H 0.00184 0.73109 0.83912 0.0
C704 C 0.32432 0.91608 0.36583 0.0
C705 C 0.29444 0.89788 0.36229 0.0
C706 C 0.32286 0.95166 0.3676 0.0
C707 C 0.29068 0.96953 0.36604 0.0
C708 C 0.26038 0.95141 0.36226 0.0
C709 C 0.26263 0.91573 0.36031 0.0
C710 C 0.35581 0.97009 0.37143 0.0
C711 C 0.22564 0.96965 0.36073 0.0
C712 C 0.29412 0.05534 0.39357 0.0
C713 C 0.29794 0.07715 0.37623 0.0
C714 C 0.2894 0.02048 0.39031 0.0
C715 C 0.28915 0.00707 0.36921 0.0
C716 C 0.29145 0.02926 0.35152 0.0
C717 C 0.29581 0.06414 0.35525 0.0
C718 C 0.28665 0.99773 0.40958 0.0
C719 C 0.29164 0.01587 0.32882 0.0
H720 H 0.34902 0.9025 0.36722 0.0
H721 H 0.23943 0.90178 0.35762 0.0
H722 H 0.35738 0.98989 0.35889 0.0
H723 H 0.3564 0.98324 0.38721 0.0
H724 H 0.37876 0.95255 0.3713 0.0
H725 H 0.20463 0.95201 0.35693 0.0
H726 H 0.22135 0.98255 0.3762 0.0
H727 H 0.2244 0.9897 0.34813 0.0
H728 H 0.29576 0.06545 0.4098 0.0
H729 H 0.29955 0.0808 0.34186 0.0
H730 H 0.31028 0.98126 0.41221 0.0
H731 H 0.26491 0.98072 0.40671 0.0
H732 H 0.28314 0.01259 0.42448 0.0
H733 H 0.31591 0.00098 0.32699 0.0
H734 H 0.28933 0.03675 0.3167 0.0
H735 H 0.27041 0.99844 0.32532 0.0
C736 C 0.89489 0.30348 0.88661 0.0
C737 C 0.88006 0.27191 0.88298 0.0
C738 C 0.93013 0.3069 0.88588 0.0
C739 C 0.95113 0.27809 0.88118 0.0
C740 C 0.93651 0.24595 0.87787 0.0
C741 C 0.90106 0.24319 0.87891 0.0
C742 C 0.94475 0.34159 0.88971 0.0
C743 C 0.95814 0.21478 0.87266 0.0
C744 C 0.03191 0.30352 0.85719 0.0
C745 C 0.05543 0.30262 0.87526 0.0
C746 C 0.9984 0.29327 0.85857 0.0
C747 C 0.98802 0.28249 0.87865 0.0
C748 C 0.01211 0.28011 0.89676 0.0
C749 C 0.04566 0.29018 0.89483 0.0
C750 C 0.9736 0.29582 0.83882 0.0
C751 C 0.00192 0.26908 0.91848 0.0
H752 H 0.87889 0.32575 0.88997 0.0
H753 H 0.88973 0.21873 0.87608 0.0
H754 H 0.96583 0.34003 0.90263 0.0
H755 H 0.95566 0.35047 0.87489 0.0
H756 H 0.92521 0.36097 0.89433 0.0
H757 H 0.94325 0.1913 0.87179 0.0
H758 H 0.96908 0.21844 0.85697 0.0
H759 H 0.97991 0.21103 0.88498 0.0
H760 H 0.03956 0.313 0.84201 0.0
H761 H 0.06364 0.29006 0.90892 0.0
H762 H 0.95449 0.31699 0.84086 0.0
H763 H 0.95945 0.27203 0.83665 0.0
H764 H 0.98666 0.30065 0.82399 0.0
H765 H 0.98509 0.28929 0.92507 0.0
H766 H 0.02445 0.26432 0.93015 0.0
H767 H 0.98718 0.24559 0.91699 0.0
C768 C 0.73553 0.0462 0.35396 0.0
C769 C 0.73028 0.06781 0.37138 0.0
C770 C 0.74359 0.01137 0.35717 0.0
C771 C 0.74563 0.9978 0.37829 0.0
C772 C 0.74168 0.0198 0.39603 0.0
C773 C 0.73412 0.05467 0.39235 0.0
C774 C 0.74809 0.98882 0.33786 0.0
C775 C 0.74317 0.00622 0.41875 0.0
C776 C 0.71879 0.90663 0.38173 0.0
C777 C 0.75033 0.88859 0.38512 0.0
C778 C 0.71701 0.94221 0.38005 0.0
C779 C 0.74757 0.96025 0.38146 0.0
C780 C 0.77953 0.94229 0.38513 0.0
C781 C 0.78053 0.90658 0.38709 0.0
C782 C 0.68236 0.96046 0.37645 0.0
C783 C 0.81261 0.96071 0.38645 0.0
H784 H 0.73257 0.05646 0.33774 0.0
H785 H 0.72933 0.07123 0.40581 0.0
H786 H 0.77144 0.97197 0.34058 0.0
H787 H 0.72598 0.97219 0.33537 0.0
H788 H 0.74997 0.00384 0.32293 0.0
H789 H 0.74369 0.027 0.43087 0.0
H790 H 0.72038 0.99105 0.42073 0.0
H791 H 0.76609 0.989 0.4221 0.0
H792 H 0.69534 0.89288 0.3804 0.0
H793 H 0.80497 0.89271 0.38963 0.0
H794 H 0.68025 0.97359 0.36062 0.0
H795 H 0.67927 0.98025 0.38895 0.0
H796 H 0.66102 0.94279 0.37681 0.0
H797 H 0.81558 0.97356 0.37089 0.0
H798 H 0.83523 0.94319 0.39024 0.0
H799 H 0.81218 0.98082 0.39896 0.0
C800 C 0.2324 0.42399 0.14702 0.0
C801 C 0.25392 0.40425 0.13455 0.0
C802 C 0.23375 0.45968 0.14734 0.0
C803 C 0.25622 0.4759 0.13425 0.0
C804 C 0.27741 0.456 0.12124 0.0
C805 C 0.27646 0.42035 0.12187 0.0
C806 C 0.21163 0.47997 0.16197 0.0
C807 C 0.3009 0.47238 0.10655 0.0
C808 C 0.23733 0.56937 0.12042 0.0
C809 C 0.26272 0.58506 0.13348 0.0
C810 C 0.23506 0.53378 0.12036 0.0
C811 C 0.25794 0.51365 0.1343 0.0
C812 C 0.28303 0.52955 0.14795 0.0
C813 C 0.28553 0.56506 0.14707 0.0
C814 C 0.20874 0.51767 0.10507 0.0
C815 C 0.30715 0.50909 0.16352 0.0
H816 H 0.21515 0.41144 0.15693 0.0
H817 H 0.29285 0.40502 0.11206 0.0
H818 H 0.22791 0.4955 0.17318 0.0
H819 H 0.194 0.4979 0.15236 0.0
H820 H 0.19623 0.4634 0.17155 0.0
H821 H 0.31433 0.45334 0.09663 0.0
H822 H 0.28605 0.49085 0.09564 0.0
H823 H 0.32034 0.48682 0.11617 0.0
H824 H 0.21987 0.5849 0.1098 0.0
H825 H 0.30496 0.57729 0.15732 0.0
H826 H 0.19124 0.50277 0.11418 0.0
H827 H 0.22163 0.49961 0.09427 0.0
H828 H 0.19325 0.53689 0.09503 0.0
H829 H 0.2924 0.49318 0.1739 0.0
H830 H 0.32371 0.52556 0.17397 0.0
H831 H 0.32376 0.49153 0.15455 0.0
C832 C 0.41137 0.24964 0.63515 0.0
C833 C 0.39259 0.2729 0.62138 0.0
C834 C 0.44722 0.24807 0.6364 0.0
C835 C 0.4646 0.26945 0.62298 0.0
C836 C 0.44571 0.29305 0.60906 0.0
C837 C 0.40986 0.29489 0.60869 0.0
C838 C 0.46648 0.2233 0.65192 0.0
C839 C 0.46328 0.31553 0.59406 0.0
C840 C 0.55909 0.28273 0.63681 0.0
C841 C 0.57425 0.25727 0.62446 0.0
C842 C 0.52336 0.28703 0.63651 0.0
C843 C 0.50247 0.26611 0.623 0.0
C844 C 0.51776 0.24112 0.60997 0.0
C845 C 0.55349 0.23661 0.61114 0.0
C846 C 0.50797 0.31322 0.65112 0.0
C847 C 0.49639 0.219 0.59487 0.0
H848 H 0.39797 0.23283 0.64509 0.0
H849 H 0.39527 0.31267 0.5979 0.0
H850 H 0.48043 0.20352 0.64289 0.0
H851 H 0.48579 0.23679 0.6623 0.0
H852 H 0.44924 0.21041 0.66237 0.0
H853 H 0.44491 0.33283 0.58444 0.0
H854 H 0.48212 0.33118 0.60332 0.0
H855 H 0.47764 0.29944 0.58286 0.0
H856 H 0.57517 0.29853 0.64724 0.0
H857 H 0.56526 0.21711 0.60144 0.0
H858 H 0.49222 0.30043 0.66251 0.0
H859 H 0.49075 0.33159 0.64156 0.0
H860 H 0.52777 0.32763 0.66053 0.0
H861 H 0.48074 0.20244 0.60424 0.0
H862 H 0.5123 0.20252 0.58472 0.0
H863 H 0.47847 0.23516 0.5842 0.0
C864 C 0.73523 0.437 0.11175 0.0
C865 C 0.75756 0.4172 0.12577 0.0
C866 C 0.73777 0.47253 0.11073 0.0
C867 C 0.76239 0.48863 0.12463 0.0
C868 C 0.78488 0.46869 0.1389 0.0
C869 C 0.78256 0.43312 0.13902 0.0
C870 C 0.71406 0.49282 0.09484 0.0
C871 C 0.81074 0.48498 0.15444 0.0
C872 C 0.78849 0.57872 0.11341 0.0
C873 C 0.76691 0.59804 0.12607 0.0
C874 C 0.78676 0.54307 0.11236 0.0
C875 C 0.76377 0.52643 0.12488 0.0
C876 C 0.7423 0.5459 0.13793 0.0
C877 C 0.74372 0.58152 0.13807 0.0
C878 C 0.80928 0.52326 0.09775 0.0
C879 C 0.71821 0.52907 0.15202 0.0
H880 H 0.71609 0.42462 0.10135 0.0
H881 H 0.79966 0.41781 0.14999 0.0
H882 H 0.69688 0.51015 0.10356 0.0
H883 H 0.72908 0.50897 0.08476 0.0
H884 H 0.69809 0.47622 0.08411 0.0
H885 H 0.82623 0.46585 0.16455 0.0
H886 H 0.82827 0.50015 0.14555 0.0
H887 H 0.7974 0.5028 0.16518 0.0
H888 H 0.80624 0.59156 0.104 0.0
H889 H 0.72724 0.59648 0.14802 0.0
H890 H 0.79335 0.50765 0.08638 0.0
H891 H 0.82702 0.50543 0.10736 0.0
H892 H 0.82461 0.54016 0.08834 0.0
H893 H 0.69942 0.51445 0.14198 0.0
H894 H 0.70402 0.54783 0.16173 0.0
H895 H 0.73277 0.51067 0.16312 0.0
C896 C 0.55447 0.73701 0.60408 0.0
C897 C 0.57601 0.75756 0.61696 0.0
C898 C 0.51878 0.74146 0.60386 0.0
C899 C 0.50436 0.76629 0.6174 0.0
C900 C 0.52604 0.78726 0.63034 0.0
C901 C 0.56164 0.78299 0.62971 0.0
C902 C 0.49651 0.7193 0.58935 0.0
C903 C 0.51168 0.81334 0.64543 0.0
C904 C 0.41099 0.79503 0.60622 0.0
C905 C 0.39486 0.77314 0.61961 0.0
C906 C 0.44666 0.79308 0.60528 0.0
C907 C 0.46664 0.76941 0.61857 0.0
C908 C 0.45049 0.74805 0.63266 0.0
C909 C 0.41472 0.74978 0.63274 0.0
C910 C 0.46283 0.81557 0.58961 0.0
C911 C 0.47098 0.72318 0.64753 0.0
H912 H 0.56558 0.71747 0.59412 0.0
H913 H 0.57829 0.79867 0.63986 0.0
H914 H 0.4819 0.70245 0.5992 0.0
H915 H 0.47763 0.73539 0.57928 0.0
H916 H 0.51166 0.70312 0.5786 0.0
H917 H 0.53198 0.82801 0.65415 0.0
H918 H 0.49352 0.83149 0.63639 0.0
H919 H 0.49716 0.80038 0.65742 0.0
H920 H 0.3956 0.81286 0.59587 0.0
H921 H 0.40225 0.73297 0.64319 0.0
H922 H 0.47627 0.79951 0.57797 0.0
H923 H 0.48224 0.83132 0.59825 0.0
H924 H 0.44371 0.83278 0.58051 0.0
H925 H 0.48423 0.70358 0.63797 0.0
H926 H 0.45473 0.71008 0.65851 0.0
H927 H 0.49096 0.73666 0.65737 0.0
C928 C 0.2555 0.44357 0.87052 0.0
C929 C 0.23397 0.42682 0.88358 0.0
C930 C 0.25479 0.47928 0.86942 0.0
C931 C 0.23294 0.49861 0.88231 0.0
C932 C 0.21164 0.48175 0.89586 0.0
C933 C 0.21193 0.44598 0.89602 0.0
C934 C 0.27707 0.4963 0.85425 0.0
C935 C 0.18888 0.50148 0.91038 0.0
C936 C 0.2573 0.58981 0.89357 0.0
C937 C 0.23311 0.60818 0.87995 0.0
C938 C 0.25695 0.55416 0.89491 0.0
C939 C 0.23264 0.53648 0.8817 0.0
C940 C 0.20843 0.55495 0.86769 0.0
C941 C 0.20855 0.59071 0.86729 0.0
C942 C 0.28242 0.53547 0.91057 0.0
C943 C 0.18285 0.53694 0.85286 0.0
H944 H 0.27226 0.42867 0.86072 0.0
H945 H 0.19543 0.43294 0.9062 0.0
H946 H 0.26109 0.51349 0.84307 0.0
H947 H 0.2957 0.51225 0.86346 0.0
H948 H 0.29141 0.47756 0.84462 0.0
H949 H 0.17482 0.48448 0.92052 0.0
H950 H 0.20445 0.51844 0.92107 0.0
H951 H 0.17 0.51797 0.90063 0.0
H952 H 0.27606 0.60343 0.90352 0.0
H953 H 0.19 0.605 0.85667 0.0
H954 H 0.29961 0.51834 0.90172 0.0
H955 H 0.26882 0.51925 0.92142 0.0
H956 H 0.29833 0.55315 0.92054 0.0
H957 H 0.19647 0.51903 0.84232 0.0
H958 H 0.16634 0.55501 0.84256 0.0
H959 H 0.16628 0.52159 0.86236 0.0
C960 C 0.58285 0.27055 0.39157 0.0
C961 C 0.60088 0.24806 0.37865 0.0
C962 C 0.54703 0.27079 0.39101 0.0
C963 C 0.52889 0.24883 0.37664 0.0
C964 C 0.54702 0.22636 0.36336 0.0
C965 C 0.58288 0.22584 0.36479 0.0
C966 C 0.52864 0.29438 0.40587 0.0
C967 C 0.52853 0.20331 0.34737 0.0
C968 C 0.43753 0.22783 0.38587 0.0
C969 C 0.41883 0.25183 0.37258 0.0
C970 C 0.47343 0.22691 0.38763 0.0
C971 C 0.49089 0.24978 0.37524 0.0
C972 C 0.47206 0.27364 0.36149 0.0
C973 C 0.43622 0.27475 0.3606 0.0
C974 C 0.49264 0.2018 0.40294 0.0
C975 C 0.48975 0.29775 0.34755 0.0
H976 H 0.59682 0.28751 0.40244 0.0
H977 H 0.59686 0.20862 0.35468 0.0
H978 H 0.51179 0.31308 0.39633 0.0
H979 H 0.51206 0.27956 0.41572 0.0
H980 H 0.54662 0.30857 0.41684 0.0
H981 H 0.54642 0.18788 0.33791 0.0
H982 H 0.51266 0.18576 0.35585 0.0
H983 H 0.51098 0.2188 0.33606 0.0
H984 H 0.42405 0.21027 0.39525 0.0
H985 H 0.42173 0.29312 0.35017 0.0
H986 H 0.50971 0.21557 0.41468 0.0
H987 H 0.5091 0.1841 0.39395 0.0
H988 H 0.47521 0.18653 0.41192 0.0
H989 H 0.50602 0.31471 0.35777 0.0
H990 H 0.47133 0.31385 0.33713 0.0
H991 H 0.5068 0.28308 0.33716 0.0
C992 C 0.75548 0.56471 0.87166 0.0
C993 C 0.73418 0.58429 0.88436 0.0
C994 C 0.75423 0.52907 0.8712 0.0
C995 C 0.73202 0.51264 0.88435 0.0
C996 C 0.71091 0.53232 0.89752 0.0
C997 C 0.71179 0.56803 0.89706 0.0
C998 C 0.77636 0.50904 0.85644 0.0
C999 C 0.68774 0.51565 0.91229 0.0
C1000 C 0.70721 0.42229 0.87044 0.0
C1001 C 0.73167 0.40304 0.88334 0.0
C1002 C 0.70707 0.45806 0.87053 0.0
C1003 C 0.73121 0.47482 0.88443 0.0
C1004 C 0.75527 0.45541 0.89799 0.0
C1005 C 0.7556 0.41971 0.89699 0.0
C1006 C 0.68173 0.47786 0.85536 0.0
C1007 C 0.7807 0.47235 0.9135 0.0
H1008 H 0.77253 0.57736 0.86165 0.0
H1009 H 0.69546 0.58324 0.90697 0.0
H1010 H 0.7947 0.49173 0.86601 0.0
H1011 H 0.76024 0.4929 0.84553 0.0
H1012 H 0.79104 0.52582 0.84653 0.0
H1013 H 0.67375 0.53457 0.92199 0.0
H1014 H 0.6688 0.50047 0.90276 0.0
H1015 H 0.703 0.49778 0.92339 0.0
H1016 H 0.68886 0.40933 0.85978 0.0
H1017 H 0.77431 0.40476 0.90712 0.0
H1018 H 0.69561 0.49363 0.84441 0.0
H1019 H 0.66556 0.49554 0.86455 0.0
H1020 H 0.66481 0.46095 0.84549 0.0
H1021 H 0.79837 0.48716 0.90448 0.0
H1022 H 0.79611 0.45361 0.92395 0.0
H1023 H 0.76716 0.49057 0.92388 0.0
C1024 C 0.45144 0.75588 0.35164 0.0
C1025 C 0.43613 0.75673 0.37117 0.0
C1026 C 0.48714 0.75556 0.35124 0.0
C1027 C 0.50779 0.75623 0.37089 0.0
C1028 C 0.49222 0.7574 0.39068 0.0
C1029 C 0.45641 0.75754 0.39058 0.0
C1030 C 0.50277 0.75417 0.32984 0.0
C1031 C 0.51337 0.75822 0.41193 0.0
C1032 C 0.59976 0.72208 0.37121 0.0
C1033 C 0.61776 0.75221 0.37082 0.0
C1034 C 0.564 0.72305 0.37124 0.0
C1035 C 0.54569 0.75492 0.37072 0.0
C1036 C 0.56358 0.78542 0.37005 0.0
C1037 C 0.59941 0.78371 0.37017 0.0
C1038 C 0.54582 0.68997 0.37202 0.0
C1039 C 0.54488 0.81986 0.36934 0.0
H1040 H 0.43542 0.75522 0.33669 0.0
H1041 H 0.44423 0.7582 0.40562 0.0
H1042 H 0.51921 0.77619 0.32824 0.0
H1043 H 0.51933 0.73069 0.32891 0.0
H1044 H 0.48309 0.75443 0.31604 0.0
H1045 H 0.49729 0.75982 0.42585 0.0
H1046 H 0.53038 0.73493 0.41372 0.0
H1047 H 0.53001 0.78041 0.41242 0.0
H1048 H 0.61365 0.69759 0.37179 0.0
H1049 H 0.61304 0.80713 0.36982 0.0
H1050 H 0.52709 0.6881 0.35785 0.0
H1051 H 0.53129 0.6893 0.38659 0.0
H1052 H 0.56379 0.66731 0.37225 0.0
H1053 H 0.52611 0.82151 0.3551 0.0
H1054 H 0.56252 0.84117 0.3686 0.0
H1055 H 0.53031 0.82323 0.38382 0.0
C1056 C 0.23219 0.2919 0.04381 0.0
C1057 C 0.24288 0.26195 0.05491 0.0
C1058 C 0.2309 0.2932 0.02134 0.0
C1059 C 0.24019 0.26363 0.00975 0.0
C1060 C 0.25041 0.23303 0.02094 0.0
C1061 C 0.25197 0.23265 0.04355 0.0
C1062 C 0.22034 0.32648 0.01006 0.0
C1063 C 0.25999 0.20094 0.00906 0.0
C1064 C 0.20868 0.27019 0.95091 0.0
C1065 C 0.23749 0.28241 0.94188 0.0
C1066 C 0.20988 0.26149 0.9728 0.0
C1067 C 0.24042 0.26566 0.98597 0.0
C1068 C 0.27009 0.27613 0.9767 0.0
C1069 C 0.26833 0.28412 0.95472 0.0
C1070 C 0.17792 0.24972 0.98206 0.0
C1071 C 0.30304 0.28128 0.99025 0.0
H1072 H 0.22546 0.31455 0.05281 0.0
H1073 H 0.26028 0.20959 0.05235 0.0
H1074 H 0.24143 0.335 0.00074 0.0
H1075 H 0.19788 0.32293 0.99848 0.0
H1076 H 0.21371 0.34701 0.0215 0.0
H1077 H 0.26532 0.17879 0.02007 0.0
H1078 H 0.23907 0.19473 0.99689 0.0
H1079 H 0.28306 0.20495 0.0003 0.0
H1080 H 0.18488 0.26836 0.94103 0.0
H1081 H 0.29076 0.29342 0.94788 0.0
H1082 H 0.16716 0.27033 0.99205 0.0
H1083 H 0.18395 0.22724 0.99265 0.0
H1084 H 0.15803 0.24301 0.96929 0.0
H1085 H 0.29959 0.30346 0.00105 0.0
H1086 H 0.32466 0.28603 0.98029 0.0
H1087 H 0.30996 0.2587 0.0006 0.0
C1088 C 0.75502 0.26172 0.45362 0.0
C1089 C 0.74266 0.23361 0.44199 0.0
C1090 C 0.7581 0.26144 0.47619 0.0
C1091 C 0.74803 0.23258 0.48733 0.0
C1092 C 0.73829 0.2031 0.47569 0.0
C1093 C 0.73602 0.20386 0.45313 0.0
C1094 C 0.76948 0.29305 0.48804 0.0
C1095 C 0.72717 0.17186 0.48696 0.0
C1096 C 0.76153 0.2257 0.54831 0.0
C1097 C 0.72984 0.23839 0.55436 0.0
C1098 C 0.76831 0.22426 0.5265 0.0
C1099 C 0.74244 0.23515 0.51059 0.0
C1100 C 0.7104 0.24806 0.51682 0.0
C1101 C 0.70459 0.24969 0.53868 0.0
C1102 C 0.80288 0.21087 0.52046 0.0
C1103 C 0.68198 0.25959 0.50038 0.0
H1104 H 0.76069 0.28463 0.4451 0.0
H1105 H 0.72656 0.18196 0.44428 0.0
H1106 H 0.74693 0.30678 0.49417 0.0
H1107 H 0.78751 0.28624 0.50211 0.0
H1108 H 0.78201 0.31068 0.47746 0.0
H1109 H 0.72509 0.14959 0.47599 0.0
H1110 H 0.74532 0.1649 0.50092 0.0
H1111 H 0.70178 0.17745 0.49319 0.0
H1112 H 0.78086 0.21685 0.56064 0.0
H1113 H 0.68002 0.25919 0.54358 0.0
H1114 H 0.8144 0.22975 0.51026 0.0
H1115 H 0.80002 0.18723 0.51085 0.0
H1116 H 0.82078 0.20517 0.53481 0.0
H1117 H 0.69059 0.28051 0.49041 0.0
H1118 H 0.65855 0.26875 0.50794 0.0
H1119 H 0.67528 0.23822 0.48939 0.0
C1120 C 0.78081 0.72731 0.95199 0.0
C1121 C 0.74946 0.73035 0.93958 0.0
C1122 C 0.78295 0.735 0.97404 0.0
C1123 C 0.75312 0.7463 0.98384 0.0
C1124 C 0.72203 0.75194 0.97107 0.0
C1125 C 0.72052 0.74375 0.9491 0.0
C1126 C 0.81661 0.72859 0.98712 0.0
C1127 C 0.68979 0.76449 0.98085 0.0
C1128 C 0.74738 0.71878 0.04163 0.0
C1129 C 0.75648 0.74819 0.05295 0.0
C1130 C 0.74589 0.71806 0.01912 0.0
C1131 C 0.7534 0.74767 0.0077 0.0
C1132 C 0.76187 0.77778 0.01912 0.0
C1133 C 0.76363 0.77758 0.04175 0.0
C1134 C 0.7371 0.68532 0.00761 0.0
C1135 C 0.76959 0.8099 0.00746 0.0
H1136 H 0.80336 0.71719 0.94477 0.0
H1137 H 0.69626 0.74663 0.93959 0.0
H1138 H 0.82245 0.75058 0.99776 0.0
H1139 H 0.81487 0.70598 0.9976 0.0
H1140 H 0.83816 0.72385 0.97679 0.0
H1141 H 0.66917 0.77224 0.96838 0.0
H1142 H 0.68039 0.7439 0.99075 0.0
H1143 H 0.69499 0.78647 0.99163 0.0
H1144 H 0.74232 0.69599 0.05048 0.0
H1145 H 0.77094 0.80016 0.05069 0.0
H1146 H 0.75861 0.67644 0.99817 0.0
H1147 H 0.71435 0.68976 0.99612 0.0
H1148 H 0.73171 0.66469 0.01891 0.0
H1149 H 0.7929 0.80547 0.99868 0.0
H1150 H 0.77365 0.83169 0.01863 0.0
H1151 H 0.74829 0.81694 0.99533 0.0
C1152 C 0.30248 0.77192 0.45761 0.0
C1153 C 0.2781 0.76146 0.44172 0.0
C1154 C 0.29581 0.77159 0.47936 0.0
C1155 C 0.26383 0.76077 0.4853 0.0
C1156 C 0.23884 0.75071 0.46918 0.0
C1157 C 0.24643 0.75091 0.4475 0.0
C1158 C 0.32329 0.78223 0.49603 0.0
C1159 C 0.20437 0.73943 0.47488 0.0
C1160 C 0.26788 0.73161 0.54335 0.0
C1161 C 0.25915 0.76208 0.55379 0.0
C1162 C 0.2673 0.73009 0.52082 0.0
C1163 C 0.25727 0.7596 0.50847 0.0
C1164 C 0.24542 0.78943 0.51883 0.0
C1165 C 0.2467 0.79039 0.54138 0.0
C1166 C 0.28019 0.69778 0.51041 0.0
C1167 C 0.23381 0.82118 0.50621 0.0
H1168 H 0.32709 0.77969 0.45298 0.0
H1169 H 0.22777 0.74265 0.43506 0.0
H1170 H 0.31357 0.80395 0.50555 0.0
H1171 H 0.3303 0.76088 0.50739 0.0
H1172 H 0.34674 0.78991 0.48871 0.0
H1173 H 0.18721 0.734 0.46038 0.0
H1174 H 0.20762 0.71609 0.48497 0.0
H1175 H 0.19178 0.75942 0.4845 0.0
H1176 H 0.27742 0.70956 0.55278 0.0
H1177 H 0.23945 0.81391 0.54931 0.0
H1178 H 0.30572 0.70186 0.50457 0.0
H1179 H 0.2629 0.69105 0.49628 0.0
H1180 H 0.28258 0.6759 0.5218 0.0
H1181 H 0.25636 0.83317 0.50019 0.0
H1182 H 0.2204 0.84017 0.51618 0.0
H1183 H 0.2165 0.81478 0.492 0.0
C1184 C 0.28104 0.75189 0.95051 0.0
C1185 C 0.24963 0.74251 0.94043 0.0
C1186 C 0.28572 0.75463 0.97302 0.0
C1187 C 0.25853 0.74727 0.98573 0.0
C1188 C 0.22625 0.73965 0.97559 0.0
C1189 C 0.22212 0.73765 0.95308 0.0
C1190 C 0.32029 0.76363 0.98323 0.0
C1191 C 0.19667 0.73127 0.98853 0.0
C1192 C 0.27949 0.70764 0.04087 0.0
C1193 C 0.27132 0.73463 0.05448 0.0
C1194 C 0.27611 0.71172 0.01847 0.0
C1195 C 0.26467 0.74374 0.00951 0.0
C1196 C 0.25733 0.7714 0.02328 0.0
C1197 C 0.26038 0.76637 0.04569 0.0
C1198 C 0.28371 0.68141 0.00439 0.0
C1199 C 0.24563 0.80601 0.01434 0.0
H1200 H 0.30234 0.75605 0.94087 0.0
H1201 H 0.19775 0.73034 0.9455 0.0
H1202 H 0.31742 0.78331 0.99583 0.0
H1203 H 0.33309 0.74071 0.99117 0.0
H1204 H 0.33713 0.77318 0.97123 0.0
H1205 H 0.17251 0.72878 0.97825 0.0
H1206 H 0.20268 0.70686 0.99726 0.0
H1207 H 0.19252 0.75124 0.00077 0.0
H1208 H 0.28761 0.68302 0.04781 0.0
H1209 H 0.25401 0.78712 0.05637 0.0
H1210 H 0.30325 0.68768 0.99323 0.0
H1211 H 0.26022 0.67498 0.99441 0.0
H1212 H 0.29309 0.65854 0.01391 0.0
H1213 H 0.26349 0.81454 0.00266 0.0
H1214 H 0.24391 0.82554 0.02718 0.0
H1215 H 0.2201 0.80445 0.00554 0.0
C1216 C 0.23053 0.25724 0.44841 0.0
C1217 C 0.26216 0.26618 0.44167 0.0
C1218 C 0.22475 0.25712 0.47038 0.0
C1219 C 0.25147 0.26569 0.48575 0.0
C1220 C 0.28333 0.27513 0.47884 0.0
C1221 C 0.28822 0.27532 0.45684 0.0
C1222 C 0.1904 0.24728 0.47717 0.0
C1223 C 0.31257 0.28423 0.4947 0.0
C1224 C 0.2413 0.29417 0.54288 0.0
C1225 C 0.25384 0.26507 0.55448 0.0
C1226 C 0.2376 0.29394 0.52033 0.0
C1227 C 0.24703 0.26402 0.50916 0.0
C1228 C 0.25705 0.23382 0.5208 0.0
C1229 C 0.26013 0.23465 0.54336 0.0
C1230 C 0.22614 0.32646 0.50848 0.0
C1231 C 0.26735 0.20139 0.50947 0.0
H1232 H 0.21056 0.25001 0.4365 0.0
H1233 H 0.31278 0.28181 0.45146 0.0
H1234 H 0.19337 0.22326 0.48661 0.0
H1235 H 0.17988 0.26721 0.48776 0.0
H1236 H 0.17165 0.24356 0.46317 0.0
H1237 H 0.33554 0.29132 0.48662 0.0
H1238 H 0.3046 0.30591 0.50487 0.0
H1239 H 0.31978 0.26229 0.50557 0.0
H1240 H 0.23585 0.31766 0.55137 0.0
H1241 H 0.26962 0.21198 0.55218 0.0
H1242 H 0.20734 0.3212 0.4948 0.0
H1243 H 0.24849 0.33778 0.50177 0.0
H1244 H 0.21448 0.34555 0.51921 0.0
H1245 H 0.2484 0.19584 0.49594 0.0
H1246 H 0.26993 0.17912 0.52056 0.0
H1247 H 0.2923 0.20456 0.50261 0.0
C1248 C 0.74368 0.22922 0.04485 0.0
C1249 C 0.74817 0.26145 0.05393 0.0
C1250 C 0.74106 0.2251 0.02238 0.0
C1251 C 0.74263 0.25404 0.00896 0.0
C1252 C 0.74732 0.28662 0.01827 0.0
C1253 C 0.7501 0.28987 0.04069 0.0
C1254 C 0.73629 0.19003 0.01299 0.0
C1255 C 0.74899 0.31815 0.00457 0.0
C1256 C 0.76647 0.25228 0.95139 0.0
C1257 C 0.7348 0.26051 0.94017 0.0
C1258 C 0.76908 0.24742 0.97374 0.0
C1259 C 0.73933 0.25088 0.98515 0.0
C1260 C 0.70696 0.25632 0.97373 0.0
C1261 C 0.70506 0.26101 0.95134 0.0
C1262 C 0.80404 0.24128 0.98531 0.0
C1263 C 0.6746 0.25995 0.98531 0.0
H1264 H 0.74195 0.20741 0.05531 0.0
H1265 H 0.75327 0.31477 0.04795 0.0
H1266 H 0.71158 0.18961 0.00311 0.0
H1267 H 0.75679 0.18357 0.00217 0.0
H1268 H 0.73664 0.17005 0.02563 0.0
H1269 H 0.75275 0.34152 0.01439 0.0
H1270 H 0.77034 0.31507 0.99395 0.0
H1271 H 0.725 0.32182 0.99406 0.0
H1272 H 0.78958 0.25133 0.94288 0.0
H1273 H 0.68044 0.26703 0.94282 0.0
H1274 H 0.80356 0.22082 0.99753 0.0
H1275 H 0.81176 0.26485 0.99389 0.0
H1276 H 0.82375 0.23415 0.97404 0.0
H1277 H 0.67384 0.23954 0.99753 0.0
H1278 H 0.6513 0.25906 0.97405 0.0
H1279 H 0.67401 0.28473 0.9939 0.0
C1280 C 0.74316 0.70539 0.4491 0.0
C1281 C 0.75299 0.73408 0.43809 0.0
C1282 C 0.74402 0.70494 0.47165 0.0
C1283 C 0.75559 0.73362 0.48346 0.0
C1284 C 0.76835 0.76138 0.47252 0.0
C1285 C 0.76658 0.76144 0.44993 0.0
C1286 C 0.72988 0.67495 0.48268 0.0
C1287 C 0.78172 0.79205 0.48455 0.0
C1288 C 0.71274 0.75294 0.53484 0.0
C1289 C 0.73671 0.739 0.55048 0.0
C1290 C 0.71886 0.75166 0.513 0.0
C1291 C 0.74998 0.73648 0.50675 0.0
C1292 C 0.77474 0.72321 0.52264 0.0
C1293 C 0.7676 0.7243 0.54441 0.0
C1294 C 0.69158 0.76572 0.49658 0.0
C1295 C 0.8084 0.70743 0.51662 0.0
H1296 H 0.73252 0.6842 0.4401 0.0
H1297 H 0.77457 0.78356 0.44153 0.0
H1298 H 0.74741 0.66621 0.49656 0.0
H1299 H 0.7051 0.68286 0.48902 0.0
H1300 H 0.72562 0.65313 0.47156 0.0
H1301 H 0.79563 0.80877 0.47415 0.0
H1302 H 0.76002 0.80723 0.49065 0.0
H1303 H 0.7991 0.78399 0.49868 0.0
H1304 H 0.68874 0.76399 0.53971 0.0
H1305 H 0.78596 0.71344 0.55667 0.0
H1306 H 0.6831 0.74516 0.48542 0.0
H1307 H 0.70209 0.78579 0.48679 0.0
H1308 H 0.6689 0.77677 0.50415 0.0
H1309 H 0.80387 0.684 0.50704 0.0
H1310 H 0.82589 0.70066 0.53098 0.0
H1311 H 0.82126 0.72528 0.5064 0.0
C1312 C 0.5487 0.29634 0.10235 0.0
C1313 C 0.57245 0.29865 0.12018 0.0
C1314 C 0.51507 0.28716 0.1048 0.0
C1315 C 0.5048 0.28084 0.12566 0.0
C1316 C 0.52902 0.28201 0.14367 0.0
C1317 C 0.56266 0.29086 0.1407 0.0
C1318 C 0.49014 0.28582 0.08516 0.0
C1319 C 0.51895 0.2759 0.1662 0.0
C1320 C 0.41156 0.30285 0.13316 0.0
C1321 C 0.39733 0.27065 0.13285 0.0
C1322 C 0.44658 0.30632 0.13131 0.0
C1323 C 0.46797 0.27689 0.12879 0.0
C1324 C 0.4539 0.24424 0.1286 0.0
C1325 C 0.41871 0.24147 0.13078 0.0
C1326 C 0.4606 0.34161 0.13184 0.0
C1327 C 0.47591 0.21235 0.12571 0.0
H1328 H 0.55631 0.3023 0.08646 0.0
H1329 H 0.58075 0.29335 0.15458 0.0
H1330 H 0.47619 0.2618 0.08501 0.0
H1331 H 0.47085 0.30725 0.08561 0.0
H1332 H 0.50303 0.2876 0.06996 0.0
H1333 H 0.54148 0.27407 0.17814 0.0
H1334 H 0.50161 0.29719 0.17094 0.0
H1335 H 0.50479 0.25212 0.16689 0.0
H1336 H 0.39529 0.32553 0.13493 0.0
H1337 H 0.40785 0.21652 0.13048 0.0
H1338 H 0.47126 0.34714 0.11629 0.0
H1339 H 0.48178 0.34306 0.14461 0.0
H1340 H 0.44079 0.36175 0.13483 0.0
H1341 H 0.48703 0.21312 0.10988 0.0
H1342 H 0.46129 0.18882 0.12655 0.0
H1343 H 0.49756 0.21095 0.13825 0.0
C1344 C 0.68217 0.40124 0.62971 0.0
C1345 C 0.71388 0.38321 0.63135 0.0
C1346 C 0.68005 0.43674 0.62744 0.0
C1347 C 0.71039 0.45473 0.6265 0.0
C1348 C 0.74257 0.43681 0.62835 0.0
C1349 C 0.74396 0.40117 0.63092 0.0
C1350 C 0.64523 0.45493 0.6258 0.0
C1351 C 0.77538 0.45519 0.62717 0.0
C1352 C 0.69381 0.53977 0.59834 0.0
C1353 C 0.69146 0.562 0.61579 0.0
C1354 C 0.70232 0.50503 0.60159 0.0
C1355 C 0.70785 0.49217 0.62284 0.0
C1356 C 0.70676 0.51478 0.64052 0.0
C1357 C 0.69864 0.54953 0.63677 0.0
C1358 C 0.70363 0.48182 0.5823 0.0
C1359 C 0.712 0.50196 0.66342 0.0
H1360 H 0.65881 0.38757 0.63023 0.0
H1361 H 0.76851 0.38733 0.63212 0.0
H1362 H 0.64416 0.47511 0.63824 0.0
H1363 H 0.64055 0.46758 0.60988 0.0
H1364 H 0.62426 0.43732 0.62781 0.0
H1365 H 0.79836 0.43773 0.62964 0.0
H1366 H 0.77561 0.46765 0.61121 0.0
H1367 H 0.77706 0.47561 0.63947 0.0
H1368 H 0.68834 0.54949 0.5821 0.0
H1369 H 0.69613 0.56656 0.6503 0.0
H1370 H 0.68147 0.4651 0.58156 0.0
H1371 H 0.72717 0.46507 0.58374 0.0
H1372 H 0.70291 0.49633 0.56696 0.0
H1373 H 0.68993 0.48682 0.66713 0.0
H1374 H 0.71438 0.52315 0.6752 0.0
H1375 H 0.73526 0.48489 0.66555 0.0
C1376 C 0.60907 0.73667 0.15903 0.0
C1377 C 0.62787 0.72688 0.14162 0.0
C1378 C 0.57347 0.73353 0.15805 0.0
C1379 C 0.55637 0.72045 0.13918 0.0
C1380 C 0.57497 0.71237 0.12114 0.0
C1381 C 0.6105 0.71563 0.12259 0.0
C1382 C 0.55445 0.74252 0.17758 0.0
C1383 C 0.55764 0.6986 0.10066 0.0
C1384 C 0.47747 0.66927 0.14309 0.0
C1385 C 0.45129 0.6924 0.13531 0.0
C1386 C 0.51161 0.67856 0.14512 0.0
C1387 C 0.51986 0.71174 0.13898 0.0
C1388 C 0.49348 0.73551 0.1315 0.0
C1389 C 0.45941 0.72551 0.12972 0.0
C1390 C 0.53897 0.65249 0.15327 0.0
C1391 C 0.50135 0.77101 0.12466 0.0
H1392 H 0.62228 0.74555 0.17376 0.0
H1393 H 0.62478 0.70842 0.10895 0.0
H1394 H 0.53136 0.75893 0.17295 0.0
H1395 H 0.5457 0.71889 0.18478 0.0
H1396 H 0.57065 0.7559 0.19003 0.0
H1397 H 0.57508 0.69676 0.08743 0.0
H1398 H 0.54851 0.6728 0.1037 0.0
H1399 H 0.53496 0.71506 0.09525 0.0
H1400 H 0.47123 0.64366 0.14746 0.0
H1401 H 0.43941 0.74319 0.12314 0.0
H1402 H 0.55476 0.66299 0.16705 0.0
H1403 H 0.55627 0.64638 0.1404 0.0
H1404 H 0.52808 0.62845 0.15849 0.0
H1405 H 0.51787 0.78336 0.13737 0.0
H1406 H 0.4778 0.78738 0.12114 0.0
H1407 H 0.51568 0.7696 0.10998 0.0
C1408 C 0.28803 0.43422 0.61293 0.0
C1409 C 0.25673 0.4182 0.61037 0.0
C1410 C 0.28922 0.4697 0.61492 0.0
C1411 C 0.25832 0.4897 0.61469 0.0
C1412 C 0.22658 0.47377 0.61192 0.0
C1413 C 0.22616 0.43814 0.60963 0.0
C1414 C 0.32362 0.48574 0.61756 0.0
C1415 C 0.19316 0.49426 0.61187 0.0
C1416 C 0.26999 0.57456 0.64262 0.0
C1417 C 0.2731 0.59639 0.62519 0.0
C1418 C 0.26296 0.54014 0.63936 0.0
C1419 C 0.2597 0.52712 0.61814 0.0
C1420 C 0.26153 0.54939 0.60043 0.0
C1421 C 0.26815 0.58386 0.60417 0.0
C1422 C 0.26074 0.51735 0.65867 0.0
C1423 C 0.25863 0.5364 0.57758 0.0
H1424 H 0.31177 0.41899 0.61333 0.0
H1425 H 0.20189 0.42586 0.60773 0.0
H1426 H 0.32526 0.50561 0.60508 0.0
H1427 H 0.32673 0.49842 0.63346 0.0
H1428 H 0.34519 0.46675 0.61637 0.0
H1429 H 0.17069 0.47819 0.60878 0.0
H1430 H 0.19132 0.50708 0.62764 0.0
H1431 H 0.19206 0.51454 0.59942 0.0
H1432 H 0.2738 0.58429 0.65888 0.0
H1433 H 0.27131 0.6005 0.59067 0.0
H1434 H 0.28334 0.49931 0.66021 0.0
H1435 H 0.23766 0.50195 0.65661 0.0
H1436 H 0.25988 0.5321 0.67385 0.0
H1437 H 0.28148 0.51984 0.57478 0.0
H1438 H 0.25676 0.55749 0.56562 0.0
H1439 H 0.23591 0.52067 0.57477 0.0
C1440 C 0.58018 0.71394 0.89251 0.0
C1441 C 0.59616 0.72973 0.87608 0.0
C1442 C 0.54448 0.71378 0.89214 0.0
C1443 C 0.52444 0.72871 0.87449 0.0
C1444 C 0.54049 0.7456 0.85814 0.0
C1445 C 0.57633 0.74636 0.85932 0.0
C1446 C 0.52829 0.69642 0.91019 0.0
C1447 C 0.52002 0.76094 0.83877 0.0
C1448 C 0.44019 0.68703 0.86151 0.0
C1449 C 0.41669 0.71075 0.86957 0.0
C1450 C 0.47515 0.69312 0.86248 0.0
C1451 C 0.48712 0.72341 0.87214 0.0
C1452 C 0.46363 0.74769 0.88014 0.0
C1453 C 0.42856 0.7414 0.87833 0.0
C1454 C 0.49932 0.66691 0.8533 0.0
C1455 C 0.47558 0.78008 0.89081 0.0
H1456 H 0.5957 0.70137 0.90557 0.0
H1457 H 0.58888 0.75833 0.84656 0.0
H1458 H 0.50746 0.71305 0.91612 0.0
H1459 H 0.51674 0.67259 0.90417 0.0
H1460 H 0.54715 0.68986 0.92393 0.0
H1461 H 0.53601 0.77589 0.82858 0.0
H1462 H 0.50854 0.74026 0.82885 0.0
H1463 H 0.49869 0.77776 0.84382 0.0
H1464 H 0.43127 0.66346 0.85446 0.0
H1465 H 0.41059 0.76076 0.88353 0.0
H1466 H 0.51706 0.65576 0.86639 0.0
H1467 H 0.51509 0.67916 0.8417 0.0
H1468 H 0.4856 0.64588 0.84498 0.0
H1469 H 0.49402 0.77375 0.90477 0.0
H1470 H 0.45409 0.79612 0.89649 0.0
H1471 H 0.48919 0.79525 0.87942 0.0
C1472 C 0.32095 0.41525 0.36338 0.0
C1473 C 0.28876 0.40086 0.36205 0.0
C1474 C 0.32411 0.45056 0.36513 0.0
C1475 C 0.29437 0.47206 0.36589 0.0
C1476 C 0.26172 0.4578 0.3643 0.0
C1477 C 0.25928 0.4223 0.36223 0.0
C1478 C 0.35939 0.46479 0.3665 0.0
C1479 C 0.22951 0.47996 0.3653 0.0
C1480 C 0.31244 0.55615 0.39334 0.0
C1481 C 0.31491 0.57775 0.37571 0.0
C1482 C 0.30365 0.52213 0.39037 0.0
C1483 C 0.29795 0.50928 0.36922 0.0
C1484 C 0.29929 0.53133 0.35136 0.0
C1485 C 0.30768 0.56542 0.35483 0.0
C1486 C 0.30206 0.49956 0.40984 0.0
C1487 C 0.29386 0.51845 0.32857 0.0
H1488 H 0.34383 0.39886 0.36305 0.0
H1489 H 0.23434 0.41128 0.36128 0.0
H1490 H 0.36091 0.48448 0.3539 0.0
H1491 H 0.36458 0.4773 0.38232 0.0
H1492 H 0.37978 0.44476 0.36456 0.0
H1493 H 0.20605 0.46509 0.36296 0.0
H1494 H 0.22964 0.49286 0.38115 0.0
H1495 H 0.22843 0.50019 0.35282 0.0
H1496 H 0.31798 0.56575 0.4095 0.0
H1497 H 0.3103 0.58188 0.34117 0.0
H1498 H 0.32373 0.48041 0.41058 0.0
H1499 H 0.2781 0.48542 0.40864 0.0
H1500 H 0.30336 0.51431 0.42509 0.0
H1501 H 0.31551 0.50075 0.32506 0.0
H1502 H 0.2921 0.53951 0.31659 0.0
H1503 H 0.27019 0.50394 0.32654 0.0
C1504 C 0.39362 0.25297 0.88355 0.0
C1505 C 0.37583 0.28477 0.88275 0.0
C1506 C 0.42914 0.2505 0.88183 0.0
C1507 C 0.44722 0.28054 0.87945 0.0
C1508 C 0.42945 0.31271 0.87895 0.0
C1509 C 0.394 0.3144 0.8805 0.0
C1510 C 0.44724 0.21578 0.88225 0.0
C1511 C 0.44784 0.34539 0.87658 0.0
C1512 C 0.54314 0.28475 0.89178 0.0
C1513 C 0.55441 0.28599 0.87101 0.0
C1514 C 0.50839 0.28115 0.89486 0.0
C1515 C 0.48455 0.27872 0.87673 0.0
C1516 C 0.49617 0.2782 0.85578 0.0
C1517 C 0.53094 0.28215 0.85318 0.0
C1518 C 0.49695 0.28212 0.91744 0.0
C1519 C 0.47164 0.27531 0.83605 0.0
H1520 H 0.37974 0.22995 0.88526 0.0
H1521 H 0.38052 0.3391 0.87999 0.0
H1522 H 0.45903 0.21121 0.86682 0.0
H1523 H 0.46824 0.21462 0.89523 0.0
H1524 H 0.42967 0.19495 0.88482 0.0
H1525 H 0.43045 0.36838 0.87727 0.0
H1526 H 0.46874 0.34722 0.8895 0.0
H1527 H 0.4597 0.34546 0.86098 0.0
H1528 H 0.56108 0.28852 0.90558 0.0
H1529 H 0.53969 0.28311 0.83711 0.0
H1530 H 0.47965 0.2611 0.91996 0.0
H1531 H 0.48235 0.30645 0.91991 0.0
H1532 H 0.51889 0.28012 0.92981 0.0
H1533 H 0.45464 0.25377 0.83781 0.0
H1534 H 0.48515 0.27148 0.82115 0.0
H1535 H 0.45512 0.29892 0.83416 0.0
C1536 C 0.75952 0.40029 0.36747 0.0
C1537 C 0.73819 0.38533 0.38148 0.0
C1538 C 0.75891 0.43582 0.36477 0.0
C1539 C 0.73723 0.45675 0.37688 0.0
C1540 C 0.7169 0.44174 0.39182 0.0
C1541 C 0.71718 0.40612 0.39366 0.0
C1542 C 0.78016 0.45079 0.34821 0.0
C1543 C 0.6942 0.46324 0.40546 0.0
C1544 C 0.75205 0.5518 0.38005 0.0
C1545 C 0.72532 0.56513 0.36586 0.0
C1546 C 0.75607 0.51658 0.38403 0.0
C1547 C 0.73379 0.49409 0.37282 0.0
C1548 C 0.70769 0.50725 0.35782 0.0
C1549 C 0.70358 0.54257 0.35469 0.0
C1550 C 0.78395 0.50348 0.40035 0.0
C1551 C 0.68397 0.48404 0.3451 0.0
H1552 H 0.77553 0.38413 0.35791 0.0
H1553 H 0.70089 0.39448 0.40462 0.0
H1554 H 0.76304 0.4629 0.33514 0.0
H1555 H 0.7962 0.47097 0.35552 0.0
H1556 H 0.79706 0.43121 0.341 0.0
H1557 H 0.68267 0.44788 0.41778 0.0
H1558 H 0.70903 0.48356 0.41372 0.0
H1559 H 0.67324 0.47598 0.39507 0.0
H1560 H 0.77015 0.56872 0.38789 0.0
H1561 H 0.68312 0.55254 0.34347 0.0
H1562 H 0.80218 0.48612 0.39247 0.0
H1563 H 0.7727 0.4885 0.41294 0.0
H1564 H 0.79837 0.52443 0.40824 0.0
H1565 H 0.69904 0.46462 0.33644 0.0
H1566 H 0.66626 0.49822 0.33317 0.0
H1567 H 0.66852 0.4702 0.35616 0.0
C1568 C 0.27469 0.21674 0.29578 0.0
C1569 C 0.27713 0.24803 0.30661 0.0
C1570 C 0.26704 0.21565 0.27339 0.0
C1571 C 0.26199 0.24654 0.26165 0.0
C1572 C 0.26259 0.27807 0.27267 0.0
C1573 C 0.26999 0.27841 0.29498 0.0
C1574 C 0.26602 0.18155 0.26221 0.0
C1575 C 0.25727 0.31163 0.26076 0.0
C1576 C 0.28682 0.25606 0.20467 0.0
C1577 C 0.25478 0.26096 0.19326 0.0
C1578 C 0.2895 0.24905 0.22679 0.0
C1579 C 0.25941 0.24658 0.23774 0.0
C1580 C 0.22704 0.24884 0.22604 0.0
C1581 C 0.22508 0.25615 0.20392 0.0
C1582 C 0.32455 0.24676 0.23867 0.0
C1583 C 0.19442 0.24573 0.2371 0.0
H1584 H 0.27991 0.19312 0.30463 0.0
H1585 H 0.2714 0.30273 0.30319 0.0
H1586 H 0.24349 0.18078 0.25036 0.0
H1587 H 0.28919 0.17757 0.25322 0.0
H1588 H 0.26512 0.16015 0.27378 0.0
H1589 H 0.2564 0.33378 0.27185 0.0
H1590 H 0.27843 0.31481 0.25019 0.0
H1591 H 0.23308 0.31197 0.25032 0.0
H1592 H 0.30995 0.25932 0.19658 0.0
H1593 H 0.20019 0.25945 0.1952 0.0
H1594 H 0.32732 0.22381 0.24913 0.0
H1595 H 0.32781 0.26936 0.24923 0.0
H1596 H 0.34537 0.24575 0.22755 0.0
H1597 H 0.19671 0.22399 0.24856 0.0
H1598 H 0.17203 0.24222 0.2254 0.0
H1599 H 0.18949 0.26921 0.24649 0.0
C1600 C 0.75765 0.22791 0.79456 0.0
C1601 C 0.73323 0.25037 0.80283 0.0
C1602 C 0.75705 0.2213 0.77235 0.0
C1603 C 0.73106 0.23713 0.75829 0.0
C1604 C 0.7061 0.25942 0.76667 0.0
C1605 C 0.70785 0.26615 0.78875 0.0
C1606 C 0.78444 0.19794 0.7639 0.0
C1607 C 0.67775 0.27663 0.75228 0.0
C1608 C 0.73699 0.25507 0.69921 0.0
C1609 C 0.71558 0.23068 0.68969 0.0
C1610 C 0.74474 0.25559 0.72154 0.0
C1611 C 0.73007 0.23164 0.73466 0.0
C1612 C 0.71022 0.20562 0.72501 0.0
C1613 C 0.7035 0.20524 0.70257 0.0
C1614 C 0.76671 0.28325 0.73116 0.0
C1615 C 0.69373 0.17992 0.73846 0.0
H1616 H 0.7773 0.2157 0.80545 0.0
H1617 H 0.6896 0.28438 0.79495 0.0
H1618 H 0.77265 0.17665 0.75475 0.0
H1619 H 0.79917 0.21215 0.7526 0.0
H1620 H 0.80248 0.18715 0.77701 0.0
H1621 H 0.65918 0.29153 0.76155 0.0
H1622 H 0.68875 0.29414 0.74094 0.0
H1623 H 0.66369 0.25732 0.74252 0.0
H1624 H 0.7468 0.2745 0.68926 0.0
H1625 H 0.68694 0.18632 0.69528 0.0
H1626 H 0.78568 0.27258 0.74375 0.0
H1627 H 0.75036 0.30263 0.73894 0.0
H1628 H 0.78052 0.29623 0.7188 0.0
H1629 H 0.71233 0.16914 0.75121 0.0
H1630 H 0.68319 0.15868 0.72858 0.0
H1631 H 0.67251 0.19278 0.74656 0.0
C1632 C 0.76734 0.70983 0.20557 0.0
C1633 C 0.78666 0.72761 0.19167 0.0
C1634 C 0.76989 0.71614 0.22771 0.0
C1635 C 0.79136 0.74185 0.23611 0.0
C1636 C 0.81112 0.75987 0.22213 0.0
C1637 C 0.80902 0.75205 0.20002 0.0
C1638 C 0.74917 0.69553 0.24208 0.0
C1639 C 0.83337 0.7882 0.23038 0.0
C1640 C 0.75933 0.77333 0.28847 0.0
C1641 C 0.78094 0.75478 0.30357 0.0
C1642 C 0.76461 0.77202 0.26649 0.0
C1643 C 0.79131 0.75052 0.25936 0.0
C1644 C 0.81445 0.73331 0.27466 0.0
C1645 C 0.80935 0.73626 0.29667 0.0
C1646 C 0.74003 0.79171 0.25079 0.0
C1647 C 0.84282 0.70957 0.26777 0.0
H1648 H 0.75039 0.69059 0.19908 0.0
H1649 H 0.82386 0.76581 0.18917 0.0
H1650 H 0.76586 0.68453 0.25574 0.0
H1651 H 0.72932 0.7123 0.24894 0.0
H1652 H 0.73629 0.67443 0.23329 0.0
H1653 H 0.84904 0.79798 0.2178 0.0
H1654 H 0.81699 0.80959 0.23604 0.0
H1655 H 0.85066 0.77936 0.24435 0.0
H1656 H 0.73724 0.78763 0.29372 0.0
H1657 H 0.82672 0.72279 0.30841 0.0
H1658 H 0.72199 0.774 0.24261 0.0
H1659 H 0.75398 0.8039 0.23822 0.0
H1660 H 0.72491 0.81174 0.25895 0.0
H1661 H 0.83159 0.68623 0.26068 0.0
H1662 H 0.86128 0.70189 0.28149 0.0
H1663 H 0.85688 0.72157 0.2552 0.0
C1664 C 0.21138 0.792 0.79337 0.0
C1665 C 0.22893 0.76277 0.80201 0.0
C1666 C 0.21051 0.79905 0.7712 0.0
C1667 C 0.22744 0.77616 0.75753 0.0
C1668 C 0.24454 0.74623 0.76625 0.0
C1669 C 0.24507 0.73995 0.78837 0.0
C1670 C 0.19209 0.8312 0.76246 0.0
C1671 C 0.26271 0.721 0.75225 0.0
C1672 C 0.209 0.77172 0.69699 0.0
C1673 C 0.238 0.78642 0.68988 0.0
C1674 C 0.20398 0.77007 0.71903 0.0
C1675 C 0.22857 0.78358 0.73419 0.0
C1676 C 0.25679 0.80037 0.7269 0.0
C1677 C 0.26125 0.80142 0.7048 0.0
C1678 C 0.1736 0.75192 0.72614 0.0
C1679 C 0.28351 0.81521 0.74251 0.0
H1680 H 0.19887 0.80954 0.80402 0.0
H1681 H 0.25815 0.71704 0.79508 0.0
H1682 H 0.21061 0.848 0.75565 0.0
H1683 H 0.17293 0.82495 0.74918 0.0
H1684 H 0.17892 0.84555 0.77502 0.0
H1685 H 0.2739 0.69849 0.76149 0.0
H1686 H 0.24467 0.712 0.73909 0.0
H1687 H 0.28357 0.73357 0.74467 0.0
H1688 H 0.19103 0.76022 0.68535 0.0
H1689 H 0.28384 0.81255 0.69926 0.0
H1690 H 0.16074 0.76711 0.73843 0.0
H1691 H 0.18244 0.72717 0.73365 0.0
H1692 H 0.15464 0.74691 0.71246 0.0
H1693 H 0.27123 0.83108 0.75472 0.0
H1694 H 0.30138 0.83103 0.73426 0.0
H1695 H 0.29859 0.79423 0.75118 0.0
C1696 C 0.75159 0.70112 0.78791 0.0
C1697 C 0.72905 0.72055 0.79991 0.0
C1698 C 0.74925 0.70274 0.76537 0.0
C1699 C 0.72295 0.72336 0.75453 0.0
C1700 C 0.69988 0.74279 0.76655 0.0
C1701 C 0.70346 0.74144 0.78913 0.0
C1702 C 0.7747 0.68208 0.75315 0.0
C1703 C 0.67107 0.76457 0.75556 0.0
C1704 C 0.72891 0.75098 0.6966 0.0
C1705 C 0.70865 0.72726 0.68534 0.0
C1706 C 0.73465 0.7494 0.71909 0.0
C1707 C 0.71906 0.724 0.73061 0.0
C1708 C 0.69908 0.69961 0.7193 0.0
C1709 C 0.69447 0.70129 0.69676 0.0
C1710 C 0.7569 0.77524 0.73054 0.0
C1711 C 0.68153 0.67252 0.73104 0.0
H1712 H 0.77075 0.68409 0.7961 0.0
H1713 H 0.68606 0.75653 0.79837 0.0
H1714 H 0.76134 0.66239 0.74334 0.0
H1715 H 0.78695 0.69877 0.74189 0.0
H1716 H 0.795 0.6692 0.76403 0.0
H1717 H 0.65505 0.77776 0.76724 0.0
H1718 H 0.68152 0.78403 0.74529 0.0
H1719 H 0.65448 0.74851 0.74489 0.0
H1720 H 0.74007 0.77101 0.68782 0.0
H1721 H 0.67853 0.68307 0.68817 0.0
H1722 H 0.77739 0.76208 0.7411 0.0
H1723 H 0.74138 0.79152 0.741 0.0
H1724 H 0.76891 0.79194 0.71915 0.0
H1725 H 0.70057 0.65704 0.74135 0.0
H1726 H 0.66727 0.65518 0.71984 0.0
H1727 H 0.66333 0.68475 0.74177 0.0
C1728 C 0.24851 0.72945 0.20367 0.0
C1729 C 0.27835 0.72404 0.19282 0.0
C1730 C 0.25029 0.73621 0.22585 0.0
C1731 C 0.28264 0.73766 0.23742 0.0
C1732 C 0.3128 0.73382 0.22639 0.0
C1733 C 0.31029 0.72706 0.20424 0.0
C1734 C 0.21758 0.74036 0.23704 0.0
C1735 C 0.3478 0.73548 0.23815 0.0
C1736 C 0.29342 0.77589 0.29337 0.0
C1737 C 0.29771 0.7465 0.3063 0.0
C1738 C 0.28724 0.77351 0.27095 0.0
C1739 C 0.28523 0.74099 0.26124 0.0
C1740 C 0.2879 0.71132 0.27427 0.0
C1741 C 0.29412 0.71444 0.29663 0.0
C1742 C 0.28436 0.80571 0.25759 0.0
C1743 C 0.28563 0.67617 0.26452 0.0
H1744 H 0.22369 0.72729 0.19501 0.0
H1745 H 0.33349 0.72317 0.19601 0.0
H1746 H 0.21555 0.71849 0.24807 0.0
H1747 H 0.21773 0.76382 0.24697 0.0
H1748 H 0.19456 0.74164 0.22549 0.0
H1749 H 0.36862 0.73419 0.22702 0.0
H1750 H 0.34967 0.75941 0.24757 0.0
H1751 H 0.35192 0.71395 0.24971 0.0
H1752 H 0.29601 0.80082 0.30066 0.0
H1753 H 0.2972 0.69159 0.30645 0.0
H1754 H 0.26118 0.80579 0.24623 0.0
H1755 H 0.30678 0.80681 0.24782 0.0
H1756 H 0.28326 0.82903 0.26767 0.0
H1757 H 0.2619 0.67462 0.25376 0.0
H1758 H 0.28589 0.65587 0.27695 0.0
H1759 H 0.30755 0.67105 0.25457 0.0
C1760 C 0.26193 0.29698 0.70529 0.0
C1761 C 0.23836 0.28153 0.69081 0.0
C1762 C 0.25771 0.29713 0.7274 0.0
C1763 C 0.22947 0.281 0.73515 0.0
C1764 C 0.20534 0.26567 0.72051 0.0
C1765 C 0.21002 0.26628 0.69841 0.0
C1766 C 0.28381 0.31405 0.74248 0.0
C1767 C 0.17506 0.24809 0.72825 0.0
C1768 C 0.24177 0.25529 0.79393 0.0
C1769 C 0.2247 0.28245 0.80366 0.0
C1770 C 0.24226 0.25366 0.77147 0.0
C1771 C 0.2256 0.28009 0.75863 0.0
C1772 C 0.2075 0.30706 0.76844 0.0
C1773 C 0.20726 0.3079 0.79089 0.0
C1774 C 0.26161 0.22437 0.76153 0.0
C1775 C 0.18973 0.33586 0.75532 0.0
H1776 H 0.2841 0.30833 0.69934 0.0
H1777 H 0.1919 0.25432 0.68708 0.0
H1778 H 0.27097 0.33361 0.75229 0.0
H1779 H 0.29666 0.29487 0.75377 0.0
H1780 H 0.30362 0.32644 0.73375 0.0
H1781 H 0.15834 0.23796 0.71475 0.0
H1782 H 0.18411 0.22667 0.73911 0.0
H1783 H 0.1596 0.26609 0.73768 0.0
H1784 H 0.25528 0.23574 0.80395 0.0
H1785 H 0.1945 0.32916 0.79855 0.0
H1786 H 0.28416 0.23398 0.7541 0.0
H1787 H 0.24522 0.21248 0.74855 0.0
H1788 H 0.27061 0.20447 0.77356 0.0
H1789 H 0.20902 0.35068 0.74768 0.0
H1790 H 0.17463 0.35347 0.76527 0.0
H1791 H 0.1724 0.32563 0.7422 0.0
C1792 C 0.72738 0.23308 0.28882 0.0
C1793 C 0.74371 0.25557 0.30333 0.0
C1794 C 0.72915 0.23672 0.26657 0.0
C1795 C 0.74674 0.26419 0.25863 0.0
C1796 C 0.7636 0.2868 0.27321 0.0
C1797 C 0.76219 0.28195 0.29542 0.0
C1798 C 0.71136 0.21173 0.25155 0.0
C1799 C 0.78215 0.31674 0.26534 0.0
C1800 C 0.77248 0.26417 0.20115 0.0
C1801 C 0.74582 0.28427 0.19071 0.0
C1802 C 0.77271 0.25668 0.22317 0.0
C1803 C 0.74606 0.27031 0.23509 0.0
C1804 C 0.71887 0.29027 0.22458 0.0
C1805 C 0.71887 0.29667 0.20245 0.0
C1806 C 0.8016 0.23452 0.23372 0.0
C1807 C 0.69027 0.30569 0.23683 0.0
H1808 H 0.71221 0.21324 0.29477 0.0
H1809 H 0.77497 0.29924 0.30663 0.0
H1810 H 0.6894 0.22487 0.24228 0.0
H1811 H 0.72907 0.20167 0.23979 0.0
H1812 H 0.70174 0.18993 0.26033 0.0
H1813 H 0.79448 0.33154 0.27878 0.0
H1814 H 0.80206 0.30781 0.25468 0.0
H1815 H 0.76388 0.33403 0.25567 0.0
H1816 H 0.79325 0.25433 0.19209 0.0
H1817 H 0.69833 0.31241 0.19449 0.0
H1818 H 0.7912 0.2127 0.24204 0.0
H1819 H 0.81637 0.24936 0.2461 0.0
H1820 H 0.81937 0.22445 0.22196 0.0
H1821 H 0.67707 0.28534 0.24482 0.0
H1822 H 0.67107 0.32065 0.22626 0.0
H1823 H 0.70094 0.32271 0.24966 0.0
loop_
_geom_bond_atom_site_label_1
_geom_bond_atom_site_label_2
_geom_bond_distance
_geom_bond_site_symmetry_2
_ccdc_geom_bond_type
Co0 O3 1.970 . S
Co0 N17 1.989 . S
Co0 O25 1.967 . S
Co0 O32 1.920 . S
Co1 O4 1.966 . S
Co1 N10 2.022 . S
Co1 N18 1.993 . S
Co1 O26 1.941 . S
C2 O3 1.258 . S
C2 O4 1.263 . S
O3 Co0 1.970 . S
O3 C2 1.258 . S
O4 Co1 1.966 . S
O4 C2 1.263 . S
C5 O6 1.235 . S
C5 O32 1.289 . S
O6 C5 1.235 . S
C7 C9 1.400 . S
C7 N10 1.351 . S
C7 C12 1.501 . S
C8 C9 1.387 . S
C8 N11 1.341 . S
C9 C7 1.400 . S
C9 C8 1.387 . S
N10 Co1 2.022 . S
N10 C7 1.351 . S
N10 N11 1.365 . S
N11 C8 1.341 . S
N11 N10 1.365 . S
N11 H31 0.862 . S
C12 C7 1.501 . S
C12 H13 0.961 . S
C12 H14 0.961 . S
C12 H15 0.960 . S
H13 C12 0.961 . S
H14 C12 0.961 . S
H15 C12 0.960 . S
C16 N17 1.342 . S
C16 C20 1.401 . S
C16 C21 1.499 . S
N17 Co0 1.989 . S
N17 C16 1.342 . S
N17 N18 1.388 . S
N18 Co1 1.993 . S
N18 N17 1.388 . S
N18 C19 1.346 . S
C19 N18 1.346 . S
C19 C20 1.396 . S
C19 C29 1.510 . S
C20 C16 1.401 . S
C20 C19 1.396 . S
C21 C16 1.499 . S
C21 H22 0.959 . S
C21 H23 0.960 . S
C21 H24 0.961 . S
H22 C21 0.959 . S
H23 C21 0.960 . S
H24 C21 0.961 . S
O25 Co0 1.967 . S
O25 C33 1.258 . S
O26 Co1 1.941 . S
O26 C33 1.266 . S
H27 C29 0.959 . S
H28 C29 0.961 . S
C29 C19 1.510 . S
C29 H27 0.959 . S
C29 H28 0.961 . S
C29 H30 0.960 . S
H30 C29 0.960 . S
H31 N11 0.862 . S
O32 Co0 1.920 . S
O32 C5 1.289 . S
C33 O25 1.258 . S
C33 O26 1.266 . S
Co34 O37 1.970 . S
Co34 N51 1.989 . S
Co34 O59 1.967 . S
Co34 O66 1.920 . S
Co35 O38 1.966 . S
Co35 N44 2.022 . S
Co35 N52 1.993 . S
Co35 O60 1.941 . S
C36 O37 1.258 . S
C36 O38 1.263 . S
O37 Co34 1.970 . S
O37 C36 1.258 . S
O38 Co35 1.966 . S
O38 C36 1.263 . S
C39 O40 1.235 . S
C39 O66 1.289 . S
O40 C39 1.235 . S
C41 C43 1.400 . S
C41 N44 1.351 . S
C41 C46 1.501 . S
C42 C43 1.387 . S
C42 N45 1.341 . S
C43 C41 1.400 . S
C43 C42 1.387 . S
N44 Co35 2.022 . S
N44 C41 1.351 . S
N44 N45 1.365 . S
N45 C42 1.341 . S
N45 N44 1.365 . S
N45 H65 0.862 . S
C46 C41 1.501 . S
C46 H47 0.961 . S
C46 H48 0.961 . S
C46 H49 0.960 . S
H47 C46 0.961 . S
H48 C46 0.961 . S
H49 C46 0.960 . S
C50 N51 1.342 . S
C50 C54 1.401 . S
C50 C55 1.499 . S
N51 Co34 1.989 . S
N51 C50 1.342 . S
N51 N52 1.388 . S
N52 Co35 1.993 . S
N52 N51 1.388 . S
N52 C53 1.346 . S
C53 N52 1.346 . S
C53 C54 1.396 . S
C53 C63 1.510 . S
C54 C50 1.401 . S
C54 C53 1.396 . S
C55 C50 1.499 . S
C55 H56 0.959 . S
C55 H57 0.960 . S
C55 H58 0.961 . S
H56 C55 0.959 . S
H57 C55 0.960 . S
H58 C55 0.961 . S
O59 Co34 1.967 . S
O59 C67 1.258 . S
O60 Co35 1.941 . S
O60 C67 1.266 . S
H61 C63 0.959 . S
H62 C63 0.961 . S
C63 C53 1.510 . S
C63 H61 0.959 . S
C63 H62 0.961 . S
C63 H64 0.960 . S
H64 C63 0.960 . S
H65 N45 0.862 . S
O66 Co34 1.920 . S
O66 C39 1.289 . S
C67 O59 1.258 . S
C67 O60 1.266 . S
Co68 O71 1.970 . S
Co68 N85 1.989 . S
Co68 O93 1.967 . S
Co68 O100 1.920 . S
Co69 O72 1.966 . S
Co69 N78 2.022 . S
Co69 N86 1.993 . S
Co69 O94 1.941 . S
C70 O71 1.258 . S
C70 O72 1.263 . S
O71 Co68 1.970 . S
O71 C70 1.258 . S
O72 Co69 1.966 . S
O72 C70 1.263 . S
C73 O74 1.235 . S
C73 O100 1.289 . S
O74 C73 1.235 . S
C75 C77 1.400 . S
C75 N78 1.351 . S
C75 C80 1.501 . S
C76 C77 1.387 . S
C76 N79 1.341 . S
C77 C75 1.400 . S
C77 C76 1.387 . S
N78 Co69 2.022 . S
N78 C75 1.351 . S
N78 N79 1.365 . S
N79 C76 1.341 . S
N79 N78 1.365 . S
N79 H99 0.862 . S
C80 C75 1.501 . S
C80 H81 0.961 . S
C80 H82 0.961 . S
C80 H83 0.960 . S
H81 C80 0.961 . S
H82 C80 0.961 . S
H83 C80 0.960 . S
C84 N85 1.342 . S
C84 C88 1.401 . S
C84 C89 1.499 . S
N85 Co68 1.989 . S
N85 C84 1.342 . S
N85 N86 1.388 . S
N86 Co69 1.993 . S
N86 N85 1.388 . S
N86 C87 1.346 . S
C87 N86 1.346 . S
C87 C88 1.396 . S
C87 C97 1.510 . S
C88 C84 1.401 . S
C88 C87 1.396 . S
C89 C84 1.499 . S
C89 H90 0.959 . S
C89 H91 0.960 . S
C89 H92 0.961 . S
H90 C89 0.959 . S
H91 C89 0.960 . S
H92 C89 0.961 . S
O93 Co68 1.967 . S
O93 C101 1.258 . S
O94 Co69 1.941 . S
O94 C101 1.266 . S
H95 C97 0.959 . S
H96 C97 0.961 . S
C97 C87 1.510 . S
C97 H95 0.959 . S
C97 H96 0.961 . S
C97 H98 0.960 . S
H98 C97 0.960 . S
H99 N79 0.862 . S
O100 Co68 1.920 . S
O100 C73 1.289 . S
C101 O93 1.258 . S
C101 O94 1.266 . S
Co102 O105 1.970 . S
Co102 N119 1.989 . S
Co102 O127 1.967 . S
Co102 O134 1.920 . S
Co103 O106 1.966 . S
Co103 N112 2.022 . S
Co103 N120 1.993 . S
Co103 O128 1.941 . S
C104 O105 1.258 . S
C104 O106 1.263 . S
O105 Co102 1.970 . S
O105 C104 1.258 . S
O106 Co103 1.966 . S
O106 C104 1.263 . S
C107 O108 1.235 . S
C107 O134 1.289 . S
O108 C107 1.235 . S
C109 C111 1.400 . S
C109 N112 1.351 . S
C109 C114 1.501 . S
C110 C111 1.387 . S
C110 N113 1.341 . S
C111 C109 1.400 . S
C111 C110 1.387 . S
N112 Co103 2.022 . S
N112 C109 1.351 . S
N112 N113 1.365 . S
N113 C110 1.341 . S
N113 N112 1.365 . S
N113 H133 0.862 . S
C114 C109 1.501 . S
C114 H115 0.961 . S
C114 H116 0.961 . S
C114 H117 0.960 . S
H115 C114 0.961 . S
H116 C114 0.961 . S
H117 C114 0.960 . S
C118 N119 1.342 . S
C118 C122 1.401 . S
C118 C123 1.499 . S
N119 Co102 1.989 . S
N119 C118 1.342 . S
N119 N120 1.388 . S
N120 Co103 1.993 . S
N120 N119 1.388 . S
N120 C121 1.346 . S
C121 N120 1.346 . S
C121 C122 1.396 . S
C121 C131 1.510 . S
C122 C118 1.401 . S
C122 C121 1.396 . S
C123 C118 1.499 . S
C123 H124 0.959 . S
C123 H125 0.960 . S
C123 H126 0.961 . S
H124 C123 0.959 . S
H125 C123 0.960 . S
H126 C123 0.961 . S
O127 Co102 1.967 . S
O127 C135 1.258 . S
O128 Co103 1.941 . S
O128 C135 1.266 . S
H129 C131 0.959 . S
H130 C131 0.961 . S
C131 C121 1.510 . S
C131 H129 0.959 . S
C131 H130 0.961 . S
C131 H132 0.960 . S
H132 C131 0.960 . S
H133 N113 0.862 . S
O134 Co102 1.920 . S
O134 C107 1.289 . S
C135 O127 1.258 . S
C135 O128 1.266 . S
Co136 O139 1.970 . S
Co136 N153 1.989 . S
Co136 O161 1.967 . S
Co136 O168 1.920 . S
Co137 O140 1.966 . S
Co137 N146 2.022 . S
Co137 N154 1.993 . S
Co137 O162 1.941 . S
C138 O139 1.258 . S
C138 O140 1.263 . S
O139 Co136 1.970 . S
O139 C138 1.258 . S
O140 Co137 1.966 . S
O140 C138 1.263 . S
C141 O142 1.235 . S
C141 O168 1.289 . S
O142 C141 1.235 . S
C143 C145 1.400 . S
C143 N146 1.351 . S
C143 C148 1.501 . S
C144 C145 1.387 . S
C144 N147 1.341 . S
C145 C143 1.400 . S
C145 C144 1.387 . S
N146 Co137 2.022 . S
N146 C143 1.351 . S
N146 N147 1.365 . S
N147 C144 1.341 . S
N147 N146 1.365 . S
N147 H167 0.862 . S
C148 C143 1.501 . S
C148 H149 0.961 . S
C148 H150 0.961 . S
C148 H151 0.960 . S
H149 C148 0.961 . S
H150 C148 0.961 . S
H151 C148 0.960 . S
C152 N153 1.342 . S
C152 C156 1.401 . S
C152 C157 1.499 . S
N153 Co136 1.989 . S
N153 C152 1.342 . S
N153 N154 1.388 . S
N154 Co137 1.993 . S
N154 N153 1.388 . S
N154 C155 1.346 . S
C155 N154 1.346 . S
C155 C156 1.396 . S
C155 C165 1.510 . S
C156 C152 1.401 . S
C156 C155 1.396 . S
C157 C152 1.499 . S
C157 H158 0.959 . S
C157 H159 0.960 . S
C157 H160 0.961 . S
H158 C157 0.959 . S
H159 C157 0.960 . S
H160 C157 0.961 . S
O161 Co136 1.967 . S
O161 C169 1.258 . S
O162 Co137 1.941 . S
O162 C169 1.266 . S
H163 C165 0.959 . S
H164 C165 0.961 . S
C165 C155 1.510 . S
C165 H163 0.959 . S
C165 H164 0.961 . S
C165 H166 0.960 . S
H166 C165 0.960 . S
H167 N147 0.862 . S
O168 Co136 1.920 . S
O168 C141 1.289 . S
C169 O161 1.258 . S
C169 O162 1.266 . S
Co170 O173 1.970 . S
Co170 N187 1.989 . S
Co170 O195 1.967 . S
Co170 O202 1.920 . S
Co171 O174 1.966 . S
Co171 N180 2.022 . S
Co171 N188 1.993 . S
Co171 O196 1.941 . S
C172 O173 1.258 . S
C172 O174 1.263 . S
O173 Co170 1.970 . S
O173 C172 1.258 . S
O174 Co171 1.966 . S
O174 C172 1.263 . S
C175 O176 1.235 . S
C175 O202 1.289 . S
O176 C175 1.235 . S
C177 C179 1.400 . S
C177 N180 1.351 . S
C177 C182 1.501 . S
C178 C179 1.387 . S
C178 N181 1.341 . S
C179 C177 1.400 . S
C179 C178 1.387 . S
N180 Co171 2.022 . S
N180 C177 1.351 . S
N180 N181 1.365 . S
N181 C178 1.341 . S
N181 N180 1.365 . S
N181 H201 0.862 . S
C182 C177 1.501 . S
C182 H183 0.961 . S
C182 H184 0.961 . S
C182 H185 0.960 . S
H183 C182 0.961 . S
H184 C182 0.961 . S
H185 C182 0.960 . S
C186 N187 1.342 . S
C186 C190 1.401 . S
C186 C191 1.499 . S
N187 Co170 1.989 . S
N187 C186 1.342 . S
N187 N188 1.388 . S
N188 Co171 1.993 . S
N188 N187 1.388 . S
N188 C189 1.346 . S
C189 N188 1.346 . S
C189 C190 1.396 . S
C189 C199 1.510 . S
C190 C186 1.401 . S
C190 C189 1.396 . S
C191 C186 1.499 . S
C191 H192 0.959 . S
C191 H193 0.960 . S
C191 H194 0.961 . S
H192 C191 0.959 . S
H193 C191 0.960 . S
H194 C191 0.961 . S
O195 Co170 1.967 . S
O195 C203 1.258 . S
O196 Co171 1.941 . S
O196 C203 1.266 . S
H197 C199 0.959 . S
H198 C199 0.961 . S
C199 C189 1.510 . S
C199 H197 0.959 . S
C199 H198 0.961 . S
C199 H200 0.960 . S
H200 C199 0.960 . S
H201 N181 0.862 . S
O202 Co170 1.920 . S
O202 C175 1.289 . S
C203 O195 1.258 . S
C203 O196 1.266 . S
Co204 O207 1.970 . S
Co204 N221 1.989 . S
Co204 O229 1.967 . S
Co204 O236 1.920 . S
Co205 O208 1.966 . S
Co205 N214 2.022 . S
Co205 N222 1.993 . S
Co205 O230 1.941 . S
C206 O207 1.258 . S
C206 O208 1.263 . S
O207 Co204 1.970 . S
O207 C206 1.258 . S
O208 Co205 1.966 . S
O208 C206 1.263 . S
C209 O210 1.235 . S
C209 O236 1.289 . S
O210 C209 1.235 . S
C211 C213 1.400 . S
C211 N214 1.351 . S
C211 C216 1.501 . S
C212 C213 1.387 . S
C212 N215 1.341 . S
C213 C211 1.400 . S
C213 C212 1.387 . S
N214 Co205 2.022 . S
N214 C211 1.351 . S
N214 N215 1.365 . S
N215 C212 1.341 . S
N215 N214 1.365 . S
N215 H235 0.862 . S
C216 C211 1.501 . S
C216 H217 0.961 . S
C216 H218 0.961 . S
C216 H219 0.960 . S
H217 C216 0.961 . S
H218 C216 0.961 . S
H219 C216 0.960 . S
C220 N221 1.342 . S
C220 C224 1.401 . S
C220 C225 1.499 . S
N221 Co204 1.989 . S
N221 C220 1.342 . S
N221 N222 1.388 . S
N222 Co205 1.993 . S
N222 N221 1.388 . S
N222 C223 1.346 . S
C223 N222 1.346 . S
C223 C224 1.396 . S
C223 C233 1.510 . S
C224 C220 1.401 . S
C224 C223 1.396 . S
C225 C220 1.499 . S
C225 H226 0.959 . S
C225 H227 0.960 . S
C225 H228 0.961 . S
H226 C225 0.959 . S
H227 C225 0.960 . S
H228 C225 0.961 . S
O229 Co204 1.967 . S
O229 C237 1.258 . S
O230 Co205 1.941 . S
O230 C237 1.266 . S
H231 C233 0.959 . S
H232 C233 0.961 . S
C233 C223 1.510 . S
C233 H231 0.959 . S
C233 H232 0.961 . S
C233 H234 0.960 . S
H234 C233 0.960 . S
H235 N215 0.862 . S
O236 Co204 1.920 . S
O236 C209 1.289 . S
C237 O229 1.258 . S
C237 O230 1.266 . S
Co238 O241 1.970 . S
Co238 N255 1.989 . S
Co238 O263 1.967 . S
Co238 O270 1.920 . S
Co239 O242 1.966 . S
Co239 N248 2.022 . S
Co239 N256 1.993 . S
Co239 O264 1.941 . S
C240 O241 1.258 . S
C240 O242 1.263 . S
O241 Co238 1.970 . S
O241 C240 1.258 . S
O242 Co239 1.966 . S
O242 C240 1.263 . S
C243 O244 1.235 . S
C243 O270 1.289 . S
O244 C243 1.235 . S
C245 C247 1.400 . S
C245 N248 1.351 . S
C245 C250 1.501 . S
C246 C247 1.387 . S
C246 N249 1.341 . S
C247 C245 1.400 . S
C247 C246 1.387 . S
N248 Co239 2.022 . S
N248 C245 1.351 . S
N248 N249 1.365 . S
N249 C246 1.341 . S
N249 N248 1.365 . S
N249 H269 0.862 . S
C250 C245 1.501 . S
C250 H251 0.961 . S
C250 H252 0.961 . S
C250 H253 0.960 . S
H251 C250 0.961 . S
H252 C250 0.961 . S
H253 C250 0.960 . S
C254 N255 1.342 . S
C254 C258 1.401 . S
C254 C259 1.499 . S
N255 Co238 1.989 . S
N255 C254 1.342 . S
N255 N256 1.388 . S
N256 Co239 1.993 . S
N256 N255 1.388 . S
N256 C257 1.346 . S
C257 N256 1.346 . S
C257 C258 1.396 . S
C257 C267 1.510 . S
C258 C254 1.401 . S
C258 C257 1.396 . S
C259 C254 1.499 . S
C259 H260 0.959 . S
C259 H261 0.960 . S
C259 H262 0.961 . S
H260 C259 0.959 . S
H261 C259 0.960 . S
H262 C259 0.961 . S
O263 Co238 1.967 . S
O263 C271 1.258 . S
O264 Co239 1.941 . S
O264 C271 1.266 . S
H265 C267 0.959 . S
H266 C267 0.961 . S
C267 C257 1.510 . S
C267 H265 0.959 . S
C267 H266 0.961 . S
C267 H268 0.960 . S
H268 C267 0.960 . S
H269 N249 0.862 . S
O270 Co238 1.920 . S
O270 C243 1.289 . S
C271 O263 1.258 . S
C271 O264 1.266 . S
Co272 O275 1.970 . S
Co272 N289 1.989 . S
Co272 O297 1.967 . S
Co272 O304 1.920 . S
Co273 O276 1.966 . S
Co273 N282 2.022 . S
Co273 N290 1.993 . S
Co273 O298 1.941 . S
C274 O275 1.258 . S
C274 O276 1.263 . S
O275 Co272 1.970 . S
O275 C274 1.258 . S
O276 Co273 1.966 . S
O276 C274 1.263 . S
C277 O278 1.235 . S
C277 O304 1.289 . S
O278 C277 1.235 . S
C279 C281 1.400 . S
C279 N282 1.351 . S
C279 C284 1.501 . S
C280 C281 1.387 . S
C280 N283 1.341 . S
C281 C279 1.400 . S
C281 C280 1.387 . S
N282 Co273 2.022 . S
N282 C279 1.351 . S
N282 N283 1.365 . S
N283 C280 1.341 . S
N283 N282 1.365 . S
N283 H303 0.862 . S
C284 C279 1.501 . S
C284 H285 0.961 . S
C284 H286 0.961 . S
C284 H287 0.960 . S
H285 C284 0.961 . S
H286 C284 0.961 . S
H287 C284 0.960 . S
C288 N289 1.342 . S
C288 C292 1.401 . S
C288 C293 1.499 . S
N289 Co272 1.989 . S
N289 C288 1.342 . S
N289 N290 1.388 . S
N290 Co273 1.993 . S
N290 N289 1.388 . S
N290 C291 1.346 . S
C291 N290 1.346 . S
C291 C292 1.396 . S
C291 C301 1.510 . S
C292 C288 1.401 . S
C292 C291 1.396 . S
C293 C288 1.499 . S
C293 H294 0.959 . S
C293 H295 0.960 . S
C293 H296 0.961 . S
H294 C293 0.959 . S
H295 C293 0.960 . S
H296 C293 0.961 . S
O297 Co272 1.967 . S
O297 C305 1.258 . S
O298 Co273 1.941 . S
O298 C305 1.266 . S
H299 C301 0.959 . S
H300 C301 0.961 . S
C301 C291 1.510 . S
C301 H299 0.959 . S
C301 H300 0.961 . S
C301 H302 0.960 . S
H302 C301 0.960 . S
H303 N283 0.862 . S
O304 Co272 1.920 . S
O304 C277 1.289 . S
C305 O297 1.258 . S
C305 O298 1.266 . S
Co306 O309 1.970 . S
Co306 N323 1.989 . S
Co306 O331 1.967 . S
Co306 O338 1.920 . S
Co307 O310 1.966 . S
Co307 N316 2.022 . S
Co307 N324 1.993 . S
Co307 O332 1.941 . S
C308 O309 1.258 . S
C308 O310 1.263 . S
O309 Co306 1.970 . S
O309 C308 1.258 . S
O310 Co307 1.966 . S
O310 C308 1.263 . S
C311 O312 1.235 . S
C311 O338 1.289 . S
O312 C311 1.235 . S
C313 C315 1.400 . S
C313 N316 1.351 . S
C313 C318 1.501 . S
C314 C315 1.387 . S
C314 N317 1.341 . S
C315 C313 1.400 . S
C315 C314 1.387 . S
N316 Co307 2.022 . S
N316 C313 1.351 . S
N316 N317 1.365 . S
N317 C314 1.341 . S
N317 N316 1.365 . S
N317 H337 0.862 . S
C318 C313 1.501 . S
C318 H319 0.961 . S
C318 H320 0.961 . S
C318 H321 0.960 . S
H319 C318 0.961 . S
H320 C318 0.961 . S
H321 C318 0.960 . S
C322 N323 1.342 . S
C322 C326 1.401 . S
C322 C327 1.499 . S
N323 Co306 1.989 . S
N323 C322 1.342 . S
N323 N324 1.388 . S
N324 Co307 1.993 . S
N324 N323 1.388 . S
N324 C325 1.346 . S
C325 N324 1.346 . S
C325 C326 1.396 . S
C325 C335 1.510 . S
C326 C322 1.401 . S
C326 C325 1.396 . S
C327 C322 1.499 . S
C327 H328 0.959 . S
C327 H329 0.960 . S
C327 H330 0.961 . S
H328 C327 0.959 . S
H329 C327 0.960 . S
H330 C327 0.961 . S
O331 Co306 1.967 . S
O331 C339 1.258 . S
O332 Co307 1.941 . S
O332 C339 1.266 . S
H333 C335 0.959 . S
H334 C335 0.961 . S
C335 C325 1.510 . S
C335 H333 0.959 . S
C335 H334 0.961 . S
C335 H336 0.960 . S
H336 C335 0.960 . S
H337 N317 0.862 . S
O338 Co306 1.920 . S
O338 C311 1.289 . S
C339 O331 1.258 . S
C339 O332 1.266 . S
Co340 O343 1.970 . S
Co340 N357 1.989 . S
Co340 O365 1.967 . S
Co340 O372 1.920 . S
Co341 O344 1.966 . S
Co341 N350 2.022 . S
Co341 N358 1.993 . S
Co341 O366 1.941 . S
C342 O343 1.258 . S
C342 O344 1.263 . S
O343 Co340 1.970 . S
O343 C342 1.258 . S
O344 Co341 1.966 . S
O344 C342 1.263 . S
C345 O346 1.235 . S
C345 O372 1.289 . S
O346 C345 1.235 . S
C347 C349 1.400 . S
C347 N350 1.351 . S
C347 C352 1.501 . S
C348 C349 1.387 . S
C348 N351 1.341 . S
C349 C347 1.400 . S
C349 C348 1.387 . S
N350 Co341 2.022 . S
N350 C347 1.351 . S
N350 N351 1.365 . S
N351 C348 1.341 . S
N351 N350 1.365 . S
N351 H371 0.862 . S
C352 C347 1.501 . S
C352 H353 0.961 . S
C352 H354 0.961 . S
C352 H355 0.960 . S
H353 C352 0.961 . S
H354 C352 0.961 . S
H355 C352 0.960 . S
C356 N357 1.342 . S
C356 C360 1.401 . S
C356 C361 1.499 . S
N357 Co340 1.989 . S
N357 C356 1.342 . S
N357 N358 1.388 . S
N358 Co341 1.993 . S
N358 N357 1.388 . S
N358 C359 1.346 . S
C359 N358 1.346 . S
C359 C360 1.396 . S
C359 C369 1.510 . S
C360 C356 1.401 . S
C360 C359 1.396 . S
C361 C356 1.499 . S
C361 H362 0.959 . S
C361 H363 0.960 . S
C361 H364 0.961 . S
H362 C361 0.959 . S
H363 C361 0.960 . S
H364 C361 0.961 . S
O365 Co340 1.967 . S
O365 C373 1.258 . S
O366 Co341 1.941 . S
O366 C373 1.266 . S
H367 C369 0.959 . S
H368 C369 0.961 . S
C369 C359 1.510 . S
C369 H367 0.959 . S
C369 H368 0.961 . S
C369 H370 0.960 . S
H370 C369 0.960 . S
H371 N351 0.862 . S
O372 Co340 1.920 . S
O372 C345 1.289 . S
C373 O365 1.258 . S
C373 O366 1.266 . S
Co374 O377 1.970 . S
Co374 N391 1.989 . S
Co374 O399 1.967 . S
Co374 O406 1.920 . S
Co375 O378 1.966 . S
Co375 N384 2.022 . S
Co375 N392 1.993 . S
Co375 O400 1.941 . S
C376 O377 1.258 . S
C376 O378 1.263 . S
O377 Co374 1.970 . S
O377 C376 1.258 . S
O378 Co375 1.966 . S
O378 C376 1.263 . S
C379 O380 1.235 . S
C379 O406 1.289 . S
O380 C379 1.235 . S
C381 C383 1.400 . S
C381 N384 1.351 . S
C381 C386 1.501 . S
C382 C383 1.387 . S
C382 N385 1.341 . S
C383 C381 1.400 . S
C383 C382 1.387 . S
N384 Co375 2.022 . S
N384 C381 1.351 . S
N384 N385 1.365 . S
N385 C382 1.341 . S
N385 N384 1.365 . S
N385 H405 0.862 . S
C386 C381 1.501 . S
C386 H387 0.961 . S
C386 H388 0.961 . S
C386 H389 0.960 . S
H387 C386 0.961 . S
H388 C386 0.961 . S
H389 C386 0.960 . S
C390 N391 1.342 . S
C390 C394 1.401 . S
C390 C395 1.499 . S
N391 Co374 1.989 . S
N391 C390 1.342 . S
N391 N392 1.388 . S
N392 Co375 1.993 . S
N392 N391 1.388 . S
N392 C393 1.346 . S
C393 N392 1.346 . S
C393 C394 1.396 . S
C393 C403 1.510 . S
C394 C390 1.401 . S
C394 C393 1.396 . S
C395 C390 1.499 . S
C395 H396 0.959 . S
C395 H397 0.960 . S
C395 H398 0.961 . S
H396 C395 0.959 . S
H397 C395 0.960 . S
H398 C395 0.961 . S
O399 Co374 1.967 . S
O399 C407 1.258 . S
O400 Co375 1.941 . S
O400 C407 1.266 . S
H401 C403 0.959 . S
H402 C403 0.961 . S
C403 C393 1.510 . S
C403 H401 0.959 . S
C403 H402 0.961 . S
C403 H404 0.960 . S
H404 C403 0.960 . S
H405 N385 0.862 . S
O406 Co374 1.920 . S
O406 C379 1.289 . S
C407 O399 1.258 . S
C407 O400 1.266 . S
Co408 O411 1.970 . S
Co408 N425 1.989 . S
Co408 O433 1.967 . S
Co408 O440 1.920 . S
Co409 O412 1.966 . S
Co409 N418 2.022 . S
Co409 N426 1.993 . S
Co409 O434 1.941 . S
C410 O411 1.258 . S
C410 O412 1.263 . S
O411 Co408 1.970 . S
O411 C410 1.258 . S
O412 Co409 1.966 . S
O412 C410 1.263 . S
C413 O414 1.235 . S
C413 O440 1.289 . S
O414 C413 1.235 . S
C415 C417 1.400 . S
C415 N418 1.351 . S
C415 C420 1.501 . S
C416 C417 1.387 . S
C416 N419 1.341 . S
C417 C415 1.400 . S
C417 C416 1.387 . S
N418 Co409 2.022 . S
N418 C415 1.351 . S
N418 N419 1.365 . S
N419 C416 1.341 . S
N419 N418 1.365 . S
N419 H439 0.862 . S
C420 C415 1.501 . S
C420 H421 0.961 . S
C420 H422 0.961 . S
C420 H423 0.960 . S
H421 C420 0.961 . S
H422 C420 0.961 . S
H423 C420 0.960 . S
C424 N425 1.342 . S
C424 C428 1.401 . S
C424 C429 1.499 . S
N425 Co408 1.989 . S
N425 C424 1.342 . S
N425 N426 1.388 . S
N426 Co409 1.993 . S
N426 N425 1.388 . S
N426 C427 1.346 . S
C427 N426 1.346 . S
C427 C428 1.396 . S
C427 C437 1.510 . S
C428 C424 1.401 . S
C428 C427 1.396 . S
C429 C424 1.499 . S
C429 H430 0.959 . S
C429 H431 0.960 . S
C429 H432 0.961 . S
H430 C429 0.959 . S
H431 C429 0.960 . S
H432 C429 0.961 . S
O433 Co408 1.967 . S
O433 C441 1.258 . S
O434 Co409 1.941 . S
O434 C441 1.266 . S
H435 C437 0.959 . S
H436 C437 0.961 . S
C437 C427 1.510 . S
C437 H435 0.959 . S
C437 H436 0.961 . S
C437 H438 0.960 . S
H438 C437 0.960 . S
H439 N419 0.862 . S
O440 Co408 1.920 . S
O440 C413 1.289 . S
C441 O433 1.258 . S
C441 O434 1.266 . S
Co442 O445 1.970 . S
Co442 N459 1.989 . S
Co442 O467 1.967 . S
Co442 O474 1.920 . S
Co443 O446 1.966 . S
Co443 N452 2.022 . S
Co443 N460 1.993 . S
Co443 O468 1.941 . S
C444 O445 1.258 . S
C444 O446 1.263 . S
O445 Co442 1.970 . S
O445 C444 1.258 . S
O446 Co443 1.966 . S
O446 C444 1.263 . S
C447 O448 1.235 . S
C447 O474 1.289 . S
O448 C447 1.235 . S
C449 C451 1.400 . S
C449 N452 1.351 . S
C449 C454 1.501 . S
C450 C451 1.387 . S
C450 N453 1.341 . S
C451 C449 1.400 . S
C451 C450 1.387 . S
N452 Co443 2.022 . S
N452 C449 1.351 . S
N452 N453 1.365 . S
N453 C450 1.341 . S
N453 N452 1.365 . S
N453 H473 0.862 . S
C454 C449 1.501 . S
C454 H455 0.961 . S
C454 H456 0.961 . S
C454 H457 0.960 . S
H455 C454 0.961 . S
H456 C454 0.961 . S
H457 C454 0.960 . S
C458 N459 1.342 . S
C458 C462 1.401 . S
C458 C463 1.499 . S
N459 Co442 1.989 . S
N459 C458 1.342 . S
N459 N460 1.388 . S
N460 Co443 1.993 . S
N460 N459 1.388 . S
N460 C461 1.346 . S
C461 N460 1.346 . S
C461 C462 1.396 . S
C461 C471 1.510 . S
C462 C458 1.401 . S
C462 C461 1.396 . S
C463 C458 1.499 . S
C463 H464 0.959 . S
C463 H465 0.960 . S
C463 H466 0.961 . S
H464 C463 0.959 . S
H465 C463 0.960 . S
H466 C463 0.961 . S
O467 Co442 1.967 . S
O467 C475 1.258 . S
O468 Co443 1.941 . S
O468 C475 1.266 . S
H469 C471 0.959 . S
H470 C471 0.961 . S
C471 C461 1.510 . S
C471 H469 0.959 . S
C471 H470 0.961 . S
C471 H472 0.960 . S
H472 C471 0.960 . S
H473 N453 0.862 . S
O474 Co442 1.920 . S
O474 C447 1.289 . S
C475 O467 1.258 . S
C475 O468 1.266 . S
Co476 O479 1.970 . S
Co476 N493 1.989 . S
Co476 O501 1.967 . S
Co476 O508 1.920 . S
Co477 O480 1.966 . S
Co477 N486 2.022 . S
Co477 N494 1.993 . S
Co477 O502 1.941 . S
C478 O479 1.258 . S
C478 O480 1.263 . S
O479 Co476 1.970 . S
O479 C478 1.258 . S
O480 Co477 1.966 . S
O480 C478 1.263 . S
C481 O482 1.235 . S
C481 O508 1.289 . S
O482 C481 1.235 . S
C483 C485 1.400 . S
C483 N486 1.351 . S
C483 C488 1.501 . S
C484 C485 1.387 . S
C484 N487 1.341 . S
C485 C483 1.400 . S
C485 C484 1.387 . S
N486 Co477 2.022 . S
N486 C483 1.351 . S
N486 N487 1.365 . S
N487 C484 1.341 . S
N487 N486 1.365 . S
N487 H507 0.862 . S
C488 C483 1.501 . S
C488 H489 0.961 . S
C488 H490 0.961 . S
C488 H491 0.960 . S
H489 C488 0.961 . S
H490 C488 0.961 . S
H491 C488 0.960 . S
C492 N493 1.342 . S
C492 C496 1.401 . S
C492 C497 1.499 . S
N493 Co476 1.989 . S
N493 C492 1.342 . S
N493 N494 1.388 . S
N494 Co477 1.993 . S
N494 N493 1.388 . S
N494 C495 1.346 . S
C495 N494 1.346 . S
C495 C496 1.396 . S
C495 C505 1.510 . S
C496 C492 1.401 . S
C496 C495 1.396 . S
C497 C492 1.499 . S
C497 H498 0.959 . S
C497 H499 0.960 . S
C497 H500 0.961 . S
H498 C497 0.959 . S
H499 C497 0.960 . S
H500 C497 0.961 . S
O501 Co476 1.967 . S
O501 C509 1.258 . S
O502 Co477 1.941 . S
O502 C509 1.266 . S
H503 C505 0.959 . S
H504 C505 0.961 . S
C505 C495 1.510 . S
C505 H503 0.959 . S
C505 H504 0.961 . S
C505 H506 0.960 . S
H506 C505 0.960 . S
H507 N487 0.862 . S
O508 Co476 1.920 . S
O508 C481 1.289 . S
C509 O501 1.258 . S
C509 O502 1.266 . S
Co510 O513 1.970 . S
Co510 N527 1.989 . S
Co510 O535 1.967 . S
Co510 O542 1.920 . S
Co511 O514 1.966 . S
Co511 N520 2.022 . S
Co511 N528 1.993 . S
Co511 O536 1.941 . S
C512 O513 1.258 . S
C512 O514 1.263 . S
O513 Co510 1.970 . S
O513 C512 1.258 . S
O514 Co511 1.966 . S
O514 C512 1.263 . S
C515 O516 1.235 . S
C515 O542 1.289 . S
O516 C515 1.235 . S
C517 C519 1.400 . S
C517 N520 1.351 . S
C517 C522 1.501 . S
C518 C519 1.387 . S
C518 N521 1.341 . S
C519 C517 1.400 . S
C519 C518 1.387 . S
N520 Co511 2.022 . S
N520 C517 1.351 . S
N520 N521 1.365 . S
N521 C518 1.341 . S
N521 N520 1.365 . S
N521 H541 0.862 . S
C522 C517 1.501 . S
C522 H523 0.961 . S
C522 H524 0.961 . S
C522 H525 0.960 . S
H523 C522 0.961 . S
H524 C522 0.961 . S
H525 C522 0.960 . S
C526 N527 1.342 . S
C526 C530 1.401 . S
C526 C531 1.499 . S
N527 Co510 1.989 . S
N527 C526 1.342 . S
N527 N528 1.388 . S
N528 Co511 1.993 . S
N528 N527 1.388 . S
N528 C529 1.346 . S
C529 N528 1.346 . S
C529 C530 1.396 . S
C529 C539 1.510 . S
C530 C526 1.401 . S
C530 C529 1.396 . S
C531 C526 1.499 . S
C531 H532 0.959 . S
C531 H533 0.960 . S
C531 H534 0.961 . S
H532 C531 0.959 . S
H533 C531 0.960 . S
H534 C531 0.961 . S
O535 Co510 1.967 . S
O535 C543 1.258 . S
O536 Co511 1.941 . S
O536 C543 1.266 . S
H537 C539 0.959 . S
H538 C539 0.961 . S
C539 C529 1.510 . S
C539 H537 0.959 . S
C539 H538 0.961 . S
C539 H540 0.960 . S
H540 C539 0.960 . S
H541 N521 0.862 . S
O542 Co510 1.920 . S
O542 C515 1.289 . S
C543 O535 1.258 . S
C543 O536 1.266 . S
C544 C545 1.391 . S
C544 C546 1.394 . S
C544 H560 0.931 . S
C545 C544 1.391 . S
C545 C549 1.376 . S
C546 C544 1.394 . S
C546 C547 1.369 . S
C546 C550 1.531 . S
C547 C546 1.369 . S
C547 C548 1.410 . S
C547 C555 1.503 1_655 S
C548 C547 1.410 . S
C548 C549 1.392 . S
C548 C551 1.511 . S
C549 C545 1.376 . S
C549 C548 1.392 . S
C549 H561 0.929 . S
C550 C546 1.531 . S
C550 H562 0.960 . S
C550 H563 0.962 . S
C550 H564 0.960 . S
C551 C548 1.511 . S
C551 H565 0.961 . S
C551 H566 0.961 . S
C551 H567 0.961 . S
C552 C553 1.370 . S
C552 C554 1.363 . S
C552 H568 0.931 . S
C553 C552 1.370 . S
C553 C557 1.408 . S
C554 C552 1.363 . S
C554 C555 1.370 . S
C554 C558 1.524 . S
C555 C547 1.503 1_455 S
C555 C554 1.370 . S
C555 C556 1.403 . S
C556 C555 1.403 . S
C556 C557 1.404 . S
C556 C559 1.539 . S
C557 C553 1.408 . S
C557 C556 1.404 . S
C557 H569 0.930 . S
C558 C554 1.524 . S
C558 H570 0.956 1_455 S
C558 H571 0.961 1_455 S
C558 H572 0.961 . S
C559 C556 1.539 . S
C559 H573 0.958 . S
C559 H574 0.961 . S
C559 H575 0.960 1_455 S
H560 C544 0.931 . S
H561 C549 0.929 . S
H562 C550 0.960 . S
H563 C550 0.962 . S
H564 C550 0.960 . S
H565 C551 0.961 . S
H566 C551 0.961 . S
H567 C551 0.961 . S
H568 C552 0.931 . S
H569 C557 0.930 . S
H570 C558 0.956 1_655 S
H571 C558 0.961 1_655 S
H572 C558 0.961 . S
H573 C559 0.958 . S
H574 C559 0.961 . S
H575 C559 0.960 1_655 S
C576 C577 1.391 . S
C576 C578 1.394 . S
C576 H592 0.931 . S
C577 C576 1.391 . S
C577 C581 1.376 . S
C578 C576 1.394 . S
C578 C579 1.383 . S
C578 C582 1.531 . S
C579 C578 1.383 . S
C579 C580 1.422 . S
C579 C587 1.477 1_545 S
C580 C579 1.422 . S
C580 C581 1.392 . S
C580 C583 1.511 1_545 S
C581 C577 1.376 . S
C581 C580 1.392 . S
C581 H593 0.929 . S
C582 C578 1.531 . S
C582 H594 0.960 1_545 S
C582 H595 0.962 1_545 S
C582 H596 0.960 . S
C583 C580 1.511 1_565 S
C583 H597 0.961 1_565 S
C583 H598 0.961 . S
C583 H599 0.961 . S
C584 C585 1.370 . S
C584 C586 1.363 . S
C584 H600 0.931 . S
C585 C584 1.370 . S
C585 C589 1.408 . S
C586 C584 1.363 . S
C586 C587 1.370 . S
C586 C590 1.524 . S
C587 C579 1.477 1_565 S
C587 C586 1.370 . S
C587 C588 1.403 . S
C588 C587 1.403 . S
C588 C589 1.404 . S
C588 C591 1.539 . S
C589 C585 1.408 . S
C589 C588 1.404 . S
C589 H601 0.930 . S
C590 C586 1.524 . S
C590 H602 0.956 . S
C590 H603 0.961 . S
C590 H604 0.961 . S
C591 C588 1.539 . S
C591 H605 0.958 . S
C591 H606 0.961 . S
C591 H607 0.960 . S
H592 C576 0.931 . S
H593 C581 0.929 . S
H594 C582 0.960 1_565 S
H595 C582 0.962 1_565 S
H596 C582 0.960 . S
H597 C583 0.961 1_545 S
H598 C583 0.961 . S
H599 C583 0.961 . S
H600 C584 0.931 . S
H601 C589 0.930 . S
H602 C590 0.956 . S
H603 C590 0.961 . S
H604 C590 0.961 . S
H605 C591 0.958 . S
H606 C591 0.961 . S
H607 C591 0.960 . S
C608 C609 1.391 . S
C608 C610 1.394 1_655 S
C608 H624 0.931 . S
C609 C608 1.391 . S
C609 C613 1.376 . S
C610 C608 1.394 1_455 S
C610 C611 1.369 . S
C610 C614 1.531 . S
C611 C610 1.369 . S
C611 C612 1.410 . S
C611 C619 1.503 . S
C612 C611 1.410 . S
C612 C613 1.392 1_455 S
C612 C615 1.511 . S
C613 C609 1.376 . S
C613 C612 1.392 1_655 S
C613 H625 0.929 . S
C614 C610 1.531 . S
C614 H626 0.960 . S
C614 H627 0.962 . S
C614 H628 0.960 . S
C615 C612 1.511 . S
C615 H629 0.961 . S
C615 H630 0.961 . S
C615 H631 0.961 . S
C616 C617 1.370 . S
C616 C618 1.363 . S
C616 H632 0.931 . S
C617 C616 1.370 . S
C617 C621 1.408 . S
C618 C616 1.363 . S
C618 C619 1.370 . S
C618 C622 1.524 . S
C619 C611 1.503 . S
C619 C618 1.370 . S
C619 C620 1.403 . S
C620 C619 1.403 . S
C620 C621 1.404 . S
C620 C623 1.539 . S
C621 C617 1.408 . S
C621 C620 1.404 . S
C621 H633 0.930 . S
C622 C618 1.524 . S
C622 H634 0.956 . S
C622 H635 0.961 . S
C622 H636 0.961 . S
C623 C620 1.539 . S
C623 H637 0.958 . S
C623 H638 0.961 . S
C623 H639 0.960 . S
H624 C608 0.931 . S
H625 C613 0.929 . S
H626 C614 0.960 . S
H627 C614 0.962 . S
H628 C614 0.960 . S
H629 C615 0.961 . S
H630 C615 0.961 . S
H631 C615 0.961 . S
H632 C616 0.931 . S
H633 C621 0.930 . S
H634 C622 0.956 . S
H635 C622 0.961 . S
H636 C622 0.961 . S
H637 C623 0.958 . S
H638 C623 0.961 . S
H639 C623 0.960 . S
C640 C641 1.391 . S
C640 C642 1.394 . S
C640 H656 0.931 . S
C641 C640 1.391 . S
C641 C645 1.376 . S
C642 C640 1.394 . S
C642 C643 1.369 . S
C642 C646 1.531 . S
C643 C642 1.369 . S
C643 C644 1.410 . S
C643 C651 1.503 1_565 S
C644 C643 1.410 . S
C644 C645 1.392 . S
C644 C647 1.511 . S
C645 C641 1.376 . S
C645 C644 1.392 . S
C645 H657 0.929 . S
C646 C642 1.531 . S
C646 H658 0.960 . S
C646 H659 0.962 . S
C646 H660 0.960 . S
C647 C644 1.511 . S
C647 H661 0.961 . S
C647 H662 0.938 1_565 S
C647 H663 0.961 . S
C648 C649 1.370 . S
C648 C650 1.363 . S
C648 H664 0.931 . S
C649 C648 1.370 . S
C649 C653 1.408 . S
C650 C648 1.363 . S
C650 C651 1.370 . S
C650 C654 1.524 . S
C651 C643 1.503 1_545 S
C651 C650 1.370 . S
C651 C652 1.403 . S
C652 C651 1.403 . S
C652 C653 1.404 . S
C652 C655 1.539 . S
C653 C649 1.408 . S
C653 C652 1.404 . S
C653 H665 0.930 . S
C654 C650 1.524 . S
C654 H666 0.956 1_545 S
C654 H667 0.961 1_545 S
C654 H668 0.961 . S
C655 C652 1.539 . S
C655 H669 0.958 . S
C655 H670 0.961 . S
C655 H671 0.960 1_545 S
H656 C640 0.931 . S
H657 C645 0.929 . S
H658 C646 0.960 . S
H659 C646 0.962 . S
H660 C646 0.960 . S
H661 C647 0.961 . S
H662 C647 0.938 1_545 S
H663 C647 0.961 . S
H664 C648 0.931 . S
H665 C653 0.930 . S
H666 C654 0.956 1_565 S
H667 C654 0.961 1_565 S
H668 C654 0.961 . S
H669 C655 0.958 . S
H670 C655 0.961 . S
H671 C655 0.960 1_565 S
C672 C673 1.391 . S
C672 C674 1.394 . S
C672 H688 0.931 . S
C673 C672 1.391 . S
C673 C677 1.376 . S
C674 C672 1.394 . S
C674 C675 1.369 . S
C674 C678 1.531 . S
C675 C674 1.369 . S
C675 C676 1.410 . S
C675 C683 1.503 1_655 S
C676 C675 1.410 . S
C676 C677 1.392 . S
C676 C679 1.511 . S
C677 C673 1.376 . S
C677 C676 1.392 . S
C677 H689 0.929 . S
C678 C674 1.531 . S
C678 H690 0.960 1_655 S
C678 H691 0.962 1_655 S
C678 H692 0.960 . S
C679 C676 1.511 . S
C679 H693 0.961 . S
C679 H694 0.961 1_655 S
C679 H695 0.961 . S
C680 C681 1.370 . S
C680 C682 1.363 . S
C680 H696 0.931 . S
C681 C680 1.370 . S
C681 C685 1.408 . S
C682 C680 1.363 . S
C682 C683 1.370 . S
C682 C686 1.524 . S
C683 C675 1.503 1_455 S
C683 C682 1.370 . S
C683 C684 1.403 . S
C684 C683 1.403 . S
C684 C685 1.404 . S
C684 C687 1.539 . S
C685 C681 1.408 . S
C685 C684 1.404 . S
C685 H697 0.930 . S
C686 C682 1.524 . S
C686 H698 0.956 . S
C686 H699 0.961 . S
C686 H700 0.961 . S
C687 C684 1.539 . S
C687 H701 0.958 . S
C687 H702 0.961 . S
C687 H703 0.960 . S
H688 C672 0.931 . S
H689 C677 0.929 . S
H690 C678 0.960 1_455 S
H691 C678 0.962 1_455 S
H692 C678 0.960 . S
H693 C679 0.961 . S
H694 C679 0.961 1_455 S
H695 C679 0.961 . S
H696 C680 0.931 . S
H697 C685 0.930 . S
H698 C686 0.956 . S
H699 C686 0.961 . S
H700 C686 0.961 . S
H701 C687 0.958 . S
H702 C687 0.961 . S
H703 C687 0.960 . S
C704 C705 1.391 . S
C704 C706 1.394 . S
C704 H720 0.931 . S
C705 C704 1.391 . S
C705 C709 1.376 . S
C706 C704 1.394 . S
C706 C707 1.369 . S
C706 C710 1.531 . S
C707 C706 1.369 . S
C707 C708 1.410 . S
C707 C715 1.503 1_565 S
C708 C707 1.410 . S
C708 C709 1.392 . S
C708 C711 1.511 . S
C709 C705 1.376 . S
C709 C708 1.392 . S
C709 H721 0.929 . S
C710 C706 1.531 . S
C710 H722 0.960 . S
C710 H723 0.962 . S
C710 H724 0.960 . S
C711 C708 1.511 . S
C711 H725 0.961 . S
C711 H726 0.961 . S
C711 H727 0.961 . S
C712 C713 1.370 . S
C712 C714 1.363 . S
C712 H728 0.931 . S
C713 C712 1.370 . S
C713 C717 1.408 . S
C714 C712 1.363 . S
C714 C715 1.370 . S
C714 C718 1.524 . S
C715 C707 1.503 1_545 S
C715 C714 1.370 . S
C715 C716 1.403 . S
C716 C715 1.403 . S
C716 C717 1.404 . S
C716 C719 1.539 . S
C717 C713 1.408 . S
C717 C716 1.404 . S
C717 H729 0.930 . S
C718 C714 1.524 . S
C718 H730 0.956 1_545 S
C718 H731 0.961 1_545 S
C718 H732 0.961 . S
C719 C716 1.539 . S
C719 H733 0.958 . S
C719 H734 0.961 . S
C719 H735 0.960 1_545 S
H720 C704 0.931 . S
H721 C709 0.929 . S
H722 C710 0.960 . S
H723 C710 0.962 . S
H724 C710 0.960 . S
H725 C711 0.961 . S
H726 C711 0.961 . S
H727 C711 0.961 . S
H728 C712 0.931 . S
H729 C717 0.930 . S
H730 C718 0.956 1_565 S
H731 C718 0.961 1_565 S
H732 C718 0.961 . S
H733 C719 0.958 . S
H734 C719 0.961 . S
H735 C719 0.960 1_565 S
C736 C737 1.391 . S
C736 C738 1.394 . S
C736 H752 0.931 . S
C737 C736 1.391 . S
C737 C741 1.376 . S
C738 C736 1.394 . S
C738 C739 1.369 . S
C738 C742 1.531 . S
C739 C738 1.369 . S
C739 C740 1.410 . S
C739 C747 1.503 . S
C740 C739 1.410 . S
C740 C741 1.392 . S
C740 C743 1.511 . S
C741 C737 1.376 . S
C741 C740 1.392 . S
C741 H753 0.929 . S
C742 C738 1.531 . S
C742 H754 0.960 . S
C742 H755 0.962 . S
C742 H756 0.960 . S
C743 C740 1.511 . S
C743 H757 0.961 . S
C743 H758 0.961 . S
C743 H759 0.961 . S
C744 C745 1.370 . S
C744 C746 1.363 1_455 S
C744 H760 0.931 . S
C745 C744 1.370 . S
C745 C749 1.408 . S
C746 C744 1.363 1_655 S
C746 C747 1.370 . S
C746 C750 1.524 . S
C747 C739 1.503 . S
C747 C746 1.370 . S
C747 C748 1.403 . S
C748 C747 1.403 . S
C748 C749 1.404 1_655 S
C748 C751 1.539 . S
C749 C745 1.408 . S
C749 C748 1.404 1_455 S
C749 H761 0.930 . S
C750 C746 1.524 . S
C750 H762 0.956 . S
C750 H763 0.961 . S
C750 H764 0.961 . S
C751 C748 1.539 . S
C751 H765 0.958 . S
C751 H766 0.961 . S
C751 H767 0.960 . S
H752 C736 0.931 . S
H753 C741 0.929 . S
H754 C742 0.960 . S
H755 C742 0.962 . S
H756 C742 0.960 . S
H757 C743 0.961 . S
H758 C743 0.961 . S
H759 C743 0.961 . S
H760 C744 0.931 . S
H761 C749 0.930 . S
H762 C750 0.956 . S
H763 C750 0.961 . S
H764 C750 0.961 . S
H765 C751 0.958 . S
H766 C751 0.961 . S
H767 C751 0.960 . S
C768 C769 1.391 . S
C768 C770 1.394 . S
C768 H784 0.931 . S
C769 C768 1.391 . S
C769 C773 1.376 . S
C770 C768 1.394 . S
C770 C771 1.369 1_545 S
C770 C774 1.531 1_545 S
C771 C770 1.369 1_565 S
C771 C772 1.410 1_565 S
C771 C779 1.503 . S
C772 C771 1.410 1_545 S
C772 C773 1.392 . S
C772 C775 1.512 1_545 S
C773 C769 1.376 . S
C773 C772 1.392 . S
C773 H785 0.929 . S
C774 C770 1.531 1_565 S
C774 H786 0.960 . S
C774 H787 0.962 . S
C774 H788 0.960 . S
C775 C772 1.512 1_565 S
C775 H789 0.962 1_565 S
C775 H790 0.959 . S
C775 H791 0.960 . S
C776 C777 1.370 . S
C776 C778 1.363 . S
C776 H792 0.931 . S
C777 C776 1.370 . S
C777 C781 1.408 . S
C778 C776 1.363 . S
C778 C779 1.370 . S
C778 C782 1.524 . S
C779 C771 1.503 . S
C779 C778 1.370 . S
C779 C780 1.403 . S
C780 C779 1.403 . S
C780 C781 1.404 . S
C780 C783 1.539 . S
C781 C777 1.408 . S
C781 C780 1.404 . S
C781 H793 0.930 . S
C782 C778 1.524 . S
C782 H794 0.956 . S
C782 H795 0.961 . S
C782 H796 0.961 . S
C783 C780 1.539 . S
C783 H797 0.958 . S
C783 H798 0.961 . S
C783 H799 0.960 . S
H784 C768 0.931 . S
H785 C773 0.929 . S
H786 C774 0.960 . S
H787 C774 0.962 . S
H788 C774 0.960 . S
H789 C775 0.962 1_545 S
H790 C775 0.959 . S
H791 C775 0.960 . S
H792 C776 0.931 . S
H793 C781 0.930 . S
H794 C782 0.956 . S
H795 C782 0.961 . S
H796 C782 0.961 . S
H797 C783 0.958 . S
H798 C783 0.961 . S
H799 C783 0.960 . S
C800 C801 1.391 . S
C800 C802 1.394 . S
C800 H816 0.931 . S
C801 C800 1.391 . S
C801 C805 1.376 . S
C802 C800 1.394 . S
C802 C803 1.369 . S
C802 C806 1.531 . S
C803 C802 1.369 . S
C803 C804 1.410 . S
C803 C811 1.503 . S
C804 C803 1.410 . S
C804 C805 1.392 . S
C804 C807 1.511 . S
C805 C801 1.376 . S
C805 C804 1.392 . S
C805 H817 0.929 . S
C806 C802 1.531 . S
C806 H818 0.960 . S
C806 H819 0.962 . S
C806 H820 0.960 . S
C807 C804 1.511 . S
C807 H821 0.961 . S
C807 H822 0.961 . S
C807 H823 0.961 . S
C808 C809 1.370 . S
C808 C810 1.363 . S
C808 H824 0.931 . S
C809 C808 1.370 . S
C809 C813 1.408 . S
C810 C808 1.363 . S
C810 C811 1.370 . S
C810 C814 1.524 . S
C811 C803 1.503 . S
C811 C810 1.370 . S
C811 C812 1.403 . S
C812 C811 1.403 . S
C812 C813 1.404 . S
C812 C815 1.539 . S
C813 C809 1.408 . S
C813 C812 1.404 . S
C813 H825 0.930 . S
C814 C810 1.524 . S
C814 H826 0.956 . S
C814 H827 0.961 . S
C814 H828 0.961 . S
C815 C812 1.539 . S
C815 H829 0.958 . S
C815 H830 0.961 . S
C815 H831 0.960 . S
H816 C800 0.931 . S
H817 C805 0.929 . S
H818 C806 0.960 . S
H819 C806 0.962 . S
H820 C806 0.960 . S
H821 C807 0.961 . S
H822 C807 0.961 . S
H823 C807 0.961 . S
H824 C808 0.931 . S
H825 C813 0.930 . S
H826 C814 0.956 . S
H827 C814 0.961 . S
H828 C814 0.961 . S
H829 C815 0.958 . S
H830 C815 0.961 . S
H831 C815 0.960 . S
C832 C833 1.391 . S
C832 C834 1.394 . S
C832 H848 0.931 . S
C833 C832 1.391 . S
C833 C837 1.376 . S
C834 C832 1.394 . S
C834 C835 1.369 . S
C834 C838 1.531 . S
C835 C834 1.369 . S
C835 C836 1.410 . S
C835 C843 1.503 . S
C836 C835 1.410 . S
C836 C837 1.392 . S
C836 C839 1.511 . S
C837 C833 1.376 . S
C837 C836 1.392 . S
C837 H849 0.929 . S
C838 C834 1.531 . S
C838 H850 0.960 . S
C838 H851 0.962 . S
C838 H852 0.960 . S
C839 C836 1.511 . S
C839 H853 0.961 . S
C839 H854 0.961 . S
C839 H855 0.961 . S
C840 C841 1.370 . S
C840 C842 1.363 . S
C840 H856 0.931 . S
C841 C840 1.370 . S
C841 C845 1.408 . S
C842 C840 1.363 . S
C842 C843 1.370 . S
C842 C846 1.524 . S
C843 C835 1.503 . S
C843 C842 1.370 . S
C843 C844 1.403 . S
C844 C843 1.403 . S
C844 C845 1.404 . S
C844 C847 1.539 . S
C845 C841 1.408 . S
C845 C844 1.404 . S
C845 H857 0.930 . S
C846 C842 1.524 . S
C846 H858 0.956 . S
C846 H859 0.961 . S
C846 H860 0.961 . S
C847 C844 1.539 . S
C847 H861 0.958 . S
C847 H862 0.961 . S
C847 H863 0.960 . S
H848 C832 0.931 . S
H849 C837 0.929 . S
H850 C838 0.960 . S
H851 C838 0.962 . S
H852 C838 0.960 . S
H853 C839 0.961 . S
H854 C839 0.961 . S
H855 C839 0.961 . S
H856 C840 0.931 . S
H857 C845 0.930 . S
H858 C846 0.956 . S
H859 C846 0.961 . S
H860 C846 0.961 . S
H861 C847 0.958 . S
H862 C847 0.961 . S
H863 C847 0.960 . S
C864 C865 1.391 . S
C864 C866 1.394 . S
C864 H880 0.931 . S
C865 C864 1.391 . S
C865 C869 1.376 . S
C866 C864 1.394 . S
C866 C867 1.369 . S
C866 C870 1.531 . S
C867 C866 1.369 . S
C867 C868 1.410 . S
C867 C875 1.503 . S
C868 C867 1.410 . S
C868 C869 1.392 . S
C868 C871 1.511 . S
C869 C865 1.376 . S
C869 C868 1.392 . S
C869 H881 0.929 . S
C870 C866 1.531 . S
C870 H882 0.960 . S
C870 H883 0.962 . S
C870 H884 0.960 . S
C871 C868 1.511 . S
C871 H885 0.961 . S
C871 H886 0.961 . S
C871 H887 0.961 . S
C872 C873 1.370 . S
C872 C874 1.363 . S
C872 H888 0.931 . S
C873 C872 1.370 . S
C873 C877 1.408 . S
C874 C872 1.363 . S
C874 C875 1.370 . S
C874 C878 1.524 . S
C875 C867 1.503 . S
C875 C874 1.370 . S
C875 C876 1.403 . S
C876 C875 1.403 . S
C876 C877 1.404 . S
C876 C879 1.539 . S
C877 C873 1.408 . S
C877 C876 1.404 . S
C877 H889 0.930 . S
C878 C874 1.524 . S
C878 H890 0.956 . S
C878 H891 0.961 . S
C878 H892 0.961 . S
C879 C876 1.539 . S
C879 H893 0.958 . S
C879 H894 0.961 . S
C879 H895 0.960 . S
H880 C864 0.931 . S
H881 C869 0.929 . S
H882 C870 0.960 . S
H883 C870 0.962 . S
H884 C870 0.960 . S
H885 C871 0.961 . S
H886 C871 0.961 . S
H887 C871 0.961 . S
H888 C872 0.931 . S
H889 C877 0.930 . S
H890 C878 0.956 . S
H891 C878 0.961 . S
H892 C878 0.961 . S
H893 C879 0.958 . S
H894 C879 0.961 . S
H895 C879 0.960 . S
C896 C897 1.391 . S
C896 C898 1.394 . S
C896 H912 0.931 . S
C897 C896 1.391 . S
C897 C901 1.376 . S
C898 C896 1.394 . S
C898 C899 1.369 . S
C898 C902 1.531 . S
C899 C898 1.369 . S
C899 C900 1.410 . S
C899 C907 1.503 . S
C900 C899 1.410 . S
C900 C901 1.392 . S
C900 C903 1.511 . S
C901 C897 1.376 . S
C901 C900 1.392 . S
C901 H913 0.929 . S
C902 C898 1.531 . S
C902 H914 0.960 . S
C902 H915 0.962 . S
C902 H916 0.960 . S
C903 C900 1.511 . S
C903 H917 0.961 . S
C903 H918 0.961 . S
C903 H919 0.961 . S
C904 C905 1.370 . S
C904 C906 1.363 . S
C904 H920 0.931 . S
C905 C904 1.370 . S
C905 C909 1.408 . S
C906 C904 1.363 . S
C906 C907 1.370 . S
C906 C910 1.524 . S
C907 C899 1.503 . S
C907 C906 1.370 . S
C907 C908 1.403 . S
C908 C907 1.403 . S
C908 C909 1.404 . S
C908 C911 1.539 . S
C909 C905 1.408 . S
C909 C908 1.404 . S
C909 H921 0.930 . S
C910 C906 1.524 . S
C910 H922 0.956 . S
C910 H923 0.961 . S
C910 H924 0.961 . S
C911 C908 1.539 . S
C911 H925 0.958 . S
C911 H926 0.961 . S
C911 H927 0.960 . S
H912 C896 0.931 . S
H913 C901 0.929 . S
H914 C902 0.960 . S
H915 C902 0.962 . S
H916 C902 0.960 . S
H917 C903 0.961 . S
H918 C903 0.961 . S
H919 C903 0.961 . S
H920 C904 0.931 . S
H921 C909 0.930 . S
H922 C910 0.956 . S
H923 C910 0.961 . S
H924 C910 0.961 . S
H925 C911 0.958 . S
H926 C911 0.961 . S
H927 C911 0.960 . S
C928 C929 1.391 . S
C928 C930 1.394 . S
C928 H944 0.931 . S
C929 C928 1.391 . S
C929 C933 1.376 . S
C930 C928 1.394 . S
C930 C931 1.369 . S
C930 C934 1.531 . S
C931 C930 1.369 . S
C931 C932 1.410 . S
C931 C939 1.503 . S
C932 C931 1.410 . S
C932 C933 1.392 . S
C932 C935 1.511 . S
C933 C929 1.376 . S
C933 C932 1.392 . S
C933 H945 0.929 . S
C934 C930 1.531 . S
C934 H946 0.960 . S
C934 H947 0.962 . S
C934 H948 0.960 . S
C935 C932 1.511 . S
C935 H949 0.961 . S
C935 H950 0.961 . S
C935 H951 0.961 . S
C936 C937 1.370 . S
C936 C938 1.363 . S
C936 H952 0.931 . S
C937 C936 1.370 . S
C937 C941 1.408 . S
C938 C936 1.363 . S
C938 C939 1.370 . S
C938 C942 1.524 . S
C939 C931 1.503 . S
C939 C938 1.370 . S
C939 C940 1.403 . S
C940 C939 1.403 . S
C940 C941 1.404 . S
C940 C943 1.539 . S
C941 C937 1.408 . S
C941 C940 1.404 . S
C941 H953 0.930 . S
C942 C938 1.524 . S
C942 H954 0.956 . S
C942 H955 0.961 . S
C942 H956 0.961 . S
C943 C940 1.539 . S
C943 H957 0.958 . S
C943 H958 0.961 . S
C943 H959 0.960 . S
H944 C928 0.931 . S
H945 C933 0.929 . S
H946 C934 0.960 . S
H947 C934 0.962 . S
H948 C934 0.960 . S
H949 C935 0.961 . S
H950 C935 0.961 . S
H951 C935 0.961 . S
H952 C936 0.931 . S
H953 C941 0.930 . S
H954 C942 0.956 . S
H955 C942 0.961 . S
H956 C942 0.961 . S
H957 C943 0.958 . S
H958 C943 0.961 . S
H959 C943 0.960 . S
C960 C961 1.391 . S
C960 C962 1.394 . S
C960 H976 0.931 . S
C961 C960 1.391 . S
C961 C965 1.376 . S
C962 C960 1.394 . S
C962 C963 1.369 . S
C962 C966 1.531 . S
C963 C962 1.369 . S
C963 C964 1.410 . S
C963 C971 1.503 . S
C964 C963 1.410 . S
C964 C965 1.392 . S
C964 C967 1.511 . S
C965 C961 1.376 . S
C965 C964 1.392 . S
C965 H977 0.929 . S
C966 C962 1.531 . S
C966 H978 0.960 . S
C966 H979 0.962 . S
C966 H980 0.960 . S
C967 C964 1.511 . S
C967 H981 0.961 . S
C967 H982 0.961 . S
C967 H983 0.961 . S
C968 C969 1.370 . S
C968 C970 1.363 . S
C968 H984 0.931 . S
C969 C968 1.370 . S
C969 C973 1.408 . S
C970 C968 1.363 . S
C970 C971 1.370 . S
C970 C974 1.524 . S
C971 C963 1.503 . S
C971 C970 1.370 . S
C971 C972 1.403 . S
C972 C971 1.403 . S
C972 C973 1.404 . S
C972 C975 1.539 . S
C973 C969 1.408 . S
C973 C972 1.404 . S
C973 H985 0.930 . S
C974 C970 1.524 . S
C974 H986 0.956 . S
C974 H987 0.961 . S
C974 H988 0.961 . S
C975 C972 1.539 . S
C975 H989 0.958 . S
C975 H990 0.961 . S
C975 H991 0.960 . S
H976 C960 0.931 . S
H977 C965 0.929 . S
H978 C966 0.960 . S
H979 C966 0.962 . S
H980 C966 0.960 . S
H981 C967 0.961 . S
H982 C967 0.961 . S
H983 C967 0.961 . S
H984 C968 0.931 . S
H985 C973 0.930 . S
H986 C974 0.956 . S
H987 C974 0.961 . S
H988 C974 0.961 . S
H989 C975 0.958 . S
H990 C975 0.961 . S
H991 C975 0.960 . S
C992 C993 1.391 . S
C992 C994 1.394 . S
C992 H1008 0.931 . S
C993 C992 1.391 . S
C993 C997 1.376 . S
C994 C992 1.394 . S
C994 C995 1.369 . S
C994 C998 1.531 . S
C995 C994 1.369 . S
C995 C996 1.410 . S
C995 C1003 1.503 . S
C996 C995 1.410 . S
C996 C997 1.392 . S
C996 C999 1.511 . S
C997 C993 1.376 . S
C997 C996 1.392 . S
C997 H1009 0.929 . S
C998 C994 1.531 . S
C998 H1010 0.960 . S
C998 H1011 0.962 . S
C998 H1012 0.960 . S
C999 C996 1.511 . S
C999 H1013 0.961 . S
C999 H1014 0.961 . S
C999 H1015 0.961 . S
C1000 C1001 1.370 . S
C1000 C1002 1.363 . S
C1000 H1016 0.931 . S
C1001 C1000 1.370 . S
C1001 C1005 1.408 . S
C1002 C1000 1.363 . S
C1002 C1003 1.370 . S
C1002 C1006 1.524 . S
C1003 C995 1.503 . S
C1003 C1002 1.370 . S
C1003 C1004 1.403 . S
C1004 C1003 1.403 . S
C1004 C1005 1.404 . S
C1004 C1007 1.539 . S
C1005 C1001 1.408 . S
C1005 C1004 1.404 . S
C1005 H1017 0.930 . S
C1006 C1002 1.524 . S
C1006 H1018 0.956 . S
C1006 H1019 0.961 . S
C1006 H1020 0.961 . S
C1007 C1004 1.539 . S
C1007 H1021 0.958 . S
C1007 H1022 0.961 . S
C1007 H1023 0.960 . S
H1008 C992 0.931 . S
H1009 C997 0.929 . S
H1010 C998 0.960 . S
H1011 C998 0.962 . S
H1012 C998 0.960 . S
H1013 C999 0.961 . S
H1014 C999 0.961 . S
H1015 C999 0.961 . S
H1016 C1000 0.931 . S
H1017 C1005 0.930 . S
H1018 C1006 0.956 . S
H1019 C1006 0.961 . S
H1020 C1006 0.961 . S
H1021 C1007 0.958 . S
H1022 C1007 0.961 . S
H1023 C1007 0.960 . S
C1024 C1025 1.391 . S
C1024 C1026 1.394 . S
C1024 H1040 0.931 . S
C1025 C1024 1.391 . S
C1025 C1029 1.376 . S
C1026 C1024 1.394 . S
C1026 C1027 1.369 . S
C1026 C1030 1.531 . S
C1027 C1026 1.369 . S
C1027 C1028 1.410 . S
C1027 C1035 1.503 . S
C1028 C1027 1.410 . S
C1028 C1029 1.392 . S
C1028 C1031 1.511 . S
C1029 C1025 1.376 . S
C1029 C1028 1.392 . S
C1029 H1041 0.929 . S
C1030 C1026 1.531 . S
C1030 H1042 0.960 . S
C1030 H1043 0.962 . S
C1030 H1044 0.960 . S
C1031 C1028 1.511 . S
C1031 H1045 0.961 . S
C1031 H1046 0.961 . S
C1031 H1047 0.961 . S
C1032 C1033 1.370 . S
C1032 C1034 1.363 . S
C1032 H1048 0.931 . S
C1033 C1032 1.370 . S
C1033 C1037 1.408 . S
C1034 C1032 1.363 . S
C1034 C1035 1.370 . S
C1034 C1038 1.524 . S
C1035 C1027 1.503 . S
C1035 C1034 1.370 . S
C1035 C1036 1.403 . S
C1036 C1035 1.403 . S
C1036 C1037 1.404 . S
C1036 C1039 1.539 . S
C1037 C1033 1.408 . S
C1037 C1036 1.404 . S
C1037 H1049 0.930 . S
C1038 C1034 1.524 . S
C1038 H1050 0.956 . S
C1038 H1051 0.961 . S
C1038 H1052 0.961 . S
C1039 C1036 1.539 . S
C1039 H1053 0.958 . S
C1039 H1054 0.961 . S
C1039 H1055 0.960 . S
H1040 C1024 0.931 . S
H1041 C1029 0.929 . S
H1042 C1030 0.960 . S
H1043 C1030 0.962 . S
H1044 C1030 0.960 . S
H1045 C1031 0.961 . S
H1046 C1031 0.961 . S
H1047 C1031 0.961 . S
H1048 C1032 0.931 . S
H1049 C1037 0.930 . S
H1050 C1038 0.956 . S
H1051 C1038 0.961 . S
H1052 C1038 0.961 . S
H1053 C1039 0.958 . S
H1054 C1039 0.961 . S
H1055 C1039 0.960 . S
C1056 C1057 1.391 . S
C1056 C1058 1.394 . S
C1056 H1072 0.931 . S
C1057 C1056 1.391 . S
C1057 C1061 1.376 . S
C1058 C1056 1.394 . S
C1058 C1059 1.369 . S
C1058 C1062 1.531 . S
C1059 C1058 1.369 . S
C1059 C1060 1.410 . S
C1059 C1067 1.503 1_554 S
C1060 C1059 1.410 . S
C1060 C1061 1.392 . S
C1060 C1063 1.511 . S
C1061 C1057 1.376 . S
C1061 C1060 1.392 . S
C1061 H1073 0.929 . S
C1062 C1058 1.531 . S
C1062 H1074 0.960 . S
C1062 H1075 0.962 . S
C1062 H1076 0.960 . S
C1063 C1060 1.511 . S
C1063 H1077 0.961 . S
C1063 H1078 0.961 1_554 S
C1063 H1079 0.961 . S
C1064 C1065 1.370 . S
C1064 C1066 1.363 . S
C1064 H1080 0.931 . S
C1065 C1064 1.370 . S
C1065 C1069 1.408 . S
C1066 C1064 1.363 . S
C1066 C1067 1.370 . S
C1066 C1070 1.524 . S
C1067 C1059 1.503 1_556 S
C1067 C1066 1.370 . S
C1067 C1068 1.403 . S
C1068 C1067 1.403 . S
C1068 C1069 1.404 . S
C1068 C1071 1.539 . S
C1069 C1065 1.408 . S
C1069 C1068 1.404 . S
C1069 H1081 0.930 . S
C1070 C1066 1.524 . S
C1070 H1082 0.956 1_556 S
C1070 H1083 0.961 1_556 S
C1070 H1084 0.961 . S
C1071 C1068 1.539 . S
C1071 H1085 0.958 . S
C1071 H1086 0.961 . S
C1071 H1087 0.960 1_556 S
H1072 C1056 0.931 . S
H1073 C1061 0.929 . S
H1074 C1062 0.960 . S
H1075 C1062 0.962 . S
H1076 C1062 0.960 . S
H1077 C1063 0.961 . S
H1078 C1063 0.961 1_556 S
H1079 C1063 0.961 . S
H1080 C1064 0.931 . S
H1081 C1069 0.930 . S
H1082 C1070 0.956 1_554 S
H1083 C1070 0.961 1_554 S
H1084 C1070 0.961 . S
H1085 C1071 0.958 . S
H1086 C1071 0.961 . S
H1087 C1071 0.960 1_554 S
C1088 C1089 1.391 . S
C1088 C1090 1.394 . S
C1088 H1104 0.931 . S
C1089 C1088 1.391 . S
C1089 C1093 1.376 . S
C1090 C1088 1.394 . S
C1090 C1091 1.369 . S
C1090 C1094 1.531 . S
C1091 C1090 1.369 . S
C1091 C1092 1.410 . S
C1091 C1099 1.503 . S
C1092 C1091 1.410 . S
C1092 C1093 1.392 . S
C1092 C1095 1.511 . S
C1093 C1089 1.376 . S
C1093 C1092 1.392 . S
C1093 H1105 0.929 . S
C1094 C1090 1.531 . S
C1094 H1106 0.960 . S
C1094 H1107 0.962 . S
C1094 H1108 0.960 . S
C1095 C1092 1.511 . S
C1095 H1109 0.961 . S
C1095 H1110 0.961 . S
C1095 H1111 0.961 . S
C1096 C1097 1.370 . S
C1096 C1098 1.363 . S
C1096 H1112 0.931 . S
C1097 C1096 1.370 . S
C1097 C1101 1.408 . S
C1098 C1096 1.363 . S
C1098 C1099 1.370 . S
C1098 C1102 1.524 . S
C1099 C1091 1.503 . S
C1099 C1098 1.370 . S
C1099 C1100 1.403 . S
C1100 C1099 1.403 . S
C1100 C1101 1.404 . S
C1100 C1103 1.539 . S
C1101 C1097 1.408 . S
C1101 C1100 1.404 . S
C1101 H1113 0.930 . S
C1102 C1098 1.524 . S
C1102 H1114 0.956 . S
C1102 H1115 0.961 . S
C1102 H1116 0.961 . S
C1103 C1100 1.539 . S
C1103 H1117 0.958 . S
C1103 H1118 0.961 . S
C1103 H1119 0.960 . S
H1104 C1088 0.931 . S
H1105 C1093 0.929 . S
H1106 C1094 0.960 . S
H1107 C1094 0.962 . S
H1108 C1094 0.960 . S
H1109 C1095 0.961 . S
H1110 C1095 0.961 . S
H1111 C1095 0.961 . S
H1112 C1096 0.931 . S
H1113 C1101 0.930 . S
H1114 C1102 0.956 . S
H1115 C1102 0.961 . S
H1116 C1102 0.961 . S
H1117 C1103 0.958 . S
H1118 C1103 0.961 . S
H1119 C1103 0.960 . S
C1120 C1121 1.391 . S
C1120 C1122 1.394 . S
C1120 H1136 0.931 . S
C1121 C1120 1.391 . S
C1121 C1125 1.376 . S
C1122 C1120 1.394 . S
C1122 C1123 1.369 . S
C1122 C1126 1.531 . S
C1123 C1122 1.369 . S
C1123 C1124 1.410 . S
C1123 C1131 1.503 1_556 S
C1124 C1123 1.410 . S
C1124 C1125 1.392 . S
C1124 C1127 1.511 . S
C1125 C1121 1.376 . S
C1125 C1124 1.392 . S
C1125 H1137 0.929 . S
C1126 C1122 1.531 . S
C1126 H1138 0.960 . S
C1126 H1139 0.962 . S
C1126 H1140 0.960 . S
C1127 C1124 1.511 . S
C1127 H1141 0.961 . S
C1127 H1142 0.961 . S
C1127 H1143 0.961 . S
C1128 C1129 1.370 . S
C1128 C1130 1.363 . S
C1128 H1144 0.931 . S
C1129 C1128 1.370 . S
C1129 C1133 1.408 . S
C1130 C1128 1.363 . S
C1130 C1131 1.370 . S
C1130 C1134 1.524 . S
C1131 C1123 1.503 1_554 S
C1131 C1130 1.370 . S
C1131 C1132 1.403 . S
C1132 C1131 1.403 . S
C1132 C1133 1.404 . S
C1132 C1135 1.539 . S
C1133 C1129 1.408 . S
C1133 C1132 1.404 . S
C1133 H1145 0.930 . S
C1134 C1130 1.524 . S
C1134 H1146 0.956 1_554 S
C1134 H1147 0.961 1_554 S
C1134 H1148 0.961 . S
C1135 C1132 1.539 . S
C1135 H1149 0.958 . S
C1135 H1150 0.961 . S
C1135 H1151 0.960 1_554 S
H1136 C1120 0.931 . S
H1137 C1125 0.929 . S
H1138 C1126 0.960 . S
H1139 C1126 0.962 . S
H1140 C1126 0.960 . S
H1141 C1127 0.961 . S
H1142 C1127 0.961 . S
H1143 C1127 0.961 . S
H1144 C1128 0.931 . S
H1145 C1133 0.930 . S
H1146 C1134 0.956 1_556 S
H1147 C1134 0.961 1_556 S
H1148 C1134 0.961 . S
H1149 C1135 0.958 . S
H1150 C1135 0.961 . S
H1151 C1135 0.960 1_556 S
C1152 C1153 1.391 . S
C1152 C1154 1.394 . S
C1152 H1168 0.931 . S
C1153 C1152 1.391 . S
C1153 C1157 1.376 . S
C1154 C1152 1.394 . S
C1154 C1155 1.369 . S
C1154 C1158 1.531 . S
C1155 C1154 1.369 . S
C1155 C1156 1.410 . S
C1155 C1163 1.503 . S
C1156 C1155 1.410 . S
C1156 C1157 1.392 . S
C1156 C1159 1.511 . S
C1157 C1153 1.376 . S
C1157 C1156 1.392 . S
C1157 H1169 0.929 . S
C1158 C1154 1.531 . S
C1158 H1170 0.960 . S
C1158 H1171 0.962 . S
C1158 H1172 0.960 . S
C1159 C1156 1.511 . S
C1159 H1173 0.961 . S
C1159 H1174 0.961 . S
C1159 H1175 0.961 . S
C1160 C1161 1.370 . S
C1160 C1162 1.363 . S
C1160 H1176 0.931 . S
C1161 C1160 1.370 . S
C1161 C1165 1.408 . S
C1162 C1160 1.363 . S
C1162 C1163 1.370 . S
C1162 C1166 1.524 . S
C1163 C1155 1.503 . S
C1163 C1162 1.370 . S
C1163 C1164 1.403 . S
C1164 C1163 1.403 . S
C1164 C1165 1.404 . S
C1164 C1167 1.539 . S
C1165 C1161 1.408 . S
C1165 C1164 1.404 . S
C1165 H1177 0.930 . S
C1166 C1162 1.524 . S
C1166 H1178 0.956 . S
C1166 H1179 0.961 . S
C1166 H1180 0.961 . S
C1167 C1164 1.539 . S
C1167 H1181 0.958 . S
C1167 H1182 0.961 . S
C1167 H1183 0.960 . S
H1168 C1152 0.931 . S
H1169 C1157 0.929 . S
H1170 C1158 0.960 . S
H1171 C1158 0.962 . S
H1172 C1158 0.960 . S
H1173 C1159 0.961 . S
H1174 C1159 0.961 . S
H1175 C1159 0.961 . S
H1176 C1160 0.931 . S
H1177 C1165 0.930 . S
H1178 C1166 0.956 . S
H1179 C1166 0.961 . S
H1180 C1166 0.961 . S
H1181 C1167 0.958 . S
H1182 C1167 0.961 . S
H1183 C1167 0.960 . S
C1184 C1185 1.391 . S
C1184 C1186 1.394 . S
C1184 H1200 0.931 . S
C1185 C1184 1.391 . S
C1185 C1189 1.376 . S
C1186 C1184 1.394 . S
C1186 C1187 1.369 . S
C1186 C1190 1.531 . S
C1187 C1186 1.369 . S
C1187 C1188 1.410 . S
C1187 C1195 1.503 1_556 S
C1188 C1187 1.410 . S
C1188 C1189 1.392 . S
C1188 C1191 1.511 . S
C1189 C1185 1.376 . S
C1189 C1188 1.392 . S
C1189 H1201 0.929 . S
C1190 C1186 1.531 . S
C1190 H1202 0.960 1_556 S
C1190 H1203 0.962 . S
C1190 H1204 0.960 . S
C1191 C1188 1.511 . S
C1191 H1205 0.961 . S
C1191 H1206 0.961 1_556 S
C1191 H1207 0.961 . S
C1192 C1193 1.370 . S
C1192 C1194 1.363 . S
C1192 H1208 0.931 . S
C1193 C1192 1.370 . S
C1193 C1197 1.408 . S
C1194 C1192 1.363 . S
C1194 C1195 1.370 . S
C1194 C1198 1.524 . S
C1195 C1187 1.503 1_554 S
C1195 C1194 1.370 . S
C1195 C1196 1.403 . S
C1196 C1195 1.403 . S
C1196 C1197 1.404 . S
C1196 C1199 1.539 . S
C1197 C1193 1.408 . S
C1197 C1196 1.404 . S
C1197 H1209 0.930 . S
C1198 C1194 1.524 . S
C1198 H1210 0.956 . S
C1198 H1211 0.961 . S
C1198 H1212 0.961 . S
C1199 C1196 1.539 . S
C1199 H1213 0.958 . S
C1199 H1214 0.961 . S
C1199 H1215 1.003 . S
H1200 C1184 0.931 . S
H1201 C1189 0.929 . S
H1202 C1190 0.960 1_554 S
H1203 C1190 0.962 . S
H1204 C1190 0.960 . S
H1205 C1191 0.961 . S
H1206 C1191 0.961 1_554 S
H1207 C1191 0.961 . S
H1208 C1192 0.931 . S
H1209 C1197 0.930 . S
H1210 C1198 0.956 . S
H1211 C1198 0.961 . S
H1212 C1198 0.961 . S
H1213 C1199 0.958 . S
H1214 C1199 0.961 . S
H1215 C1199 1.003 . S
C1216 C1217 1.391 . S
C1216 C1218 1.394 . S
C1216 H1232 0.931 . S
C1217 C1216 1.391 . S
C1217 C1221 1.376 . S
C1218 C1216 1.394 . S
C1218 C1219 1.369 . S
C1218 C1222 1.531 . S
C1219 C1218 1.369 . S
C1219 C1220 1.410 . S
C1219 C1227 1.503 . S
C1220 C1219 1.410 . S
C1220 C1221 1.392 . S
C1220 C1223 1.511 . S
C1221 C1217 1.376 . S
C1221 C1220 1.392 . S
C1221 H1233 0.929 . S
C1222 C1218 1.531 . S
C1222 H1234 0.960 . S
C1222 H1235 0.962 . S
C1222 H1236 0.960 . S
C1223 C1220 1.511 . S
C1223 H1237 0.961 . S
C1223 H1238 0.961 . S
C1223 H1239 0.961 . S
C1224 C1225 1.370 . S
C1224 C1226 1.363 . S
C1224 H1240 0.931 . S
C1225 C1224 1.370 . S
C1225 C1229 1.408 . S
C1226 C1224 1.363 . S
C1226 C1227 1.370 . S
C1226 C1230 1.524 . S
C1227 C1219 1.503 . S
C1227 C1226 1.370 . S
C1227 C1228 1.403 . S
C1228 C1227 1.403 . S
C1228 C1229 1.404 . S
C1228 C1231 1.539 . S
C1229 C1225 1.408 . S
C1229 C1228 1.404 . S
C1229 H1241 0.930 . S
C1230 C1226 1.524 . S
C1230 H1242 0.956 . S
C1230 H1243 0.961 . S
C1230 H1244 0.961 . S
C1231 C1228 1.539 . S
C1231 H1245 0.958 . S
C1231 H1246 0.961 . S
C1231 H1247 0.960 . S
H1232 C1216 0.931 . S
H1233 C1221 0.929 . S
H1234 C1222 0.960 . S
H1235 C1222 0.962 . S
H1236 C1222 0.960 . S
H1237 C1223 0.961 . S
H1238 C1223 0.961 . S
H1239 C1223 0.961 . S
H1240 C1224 0.931 . S
H1241 C1229 0.930 . S
H1242 C1230 0.956 . S
H1243 C1230 0.961 . S
H1244 C1230 0.961 . S
H1245 C1231 0.958 . S
H1246 C1231 0.961 . S
H1247 C1231 0.960 . S
C1248 C1249 1.391 . S
C1248 C1250 1.394 . S
C1248 H1264 0.931 . S
C1249 C1248 1.391 . S
C1249 C1253 1.376 . S
C1250 C1248 1.394 . S
C1250 C1251 1.369 . S
C1250 C1254 1.548 . S
C1251 C1250 1.369 . S
C1251 C1252 1.410 . S
C1251 C1259 1.503 1_554 S
C1252 C1251 1.410 . S
C1252 C1253 1.392 . S
C1252 C1255 1.511 . S
C1253 C1249 1.376 . S
C1253 C1252 1.392 . S
C1253 H1265 0.929 . S
C1254 C1250 1.548 . S
C1254 H1266 0.936 1_554 S
C1254 H1267 0.954 1_554 S
C1254 H1268 0.975 . S
C1255 C1252 1.511 . S
C1255 H1269 0.961 . S
C1255 H1270 0.961 1_554 S
C1255 H1271 0.961 . S
C1256 C1257 1.370 . S
C1256 C1258 1.363 . S
C1256 H1272 0.931 . S
C1257 C1256 1.370 . S
C1257 C1261 1.408 . S
C1258 C1256 1.363 . S
C1258 C1259 1.370 . S
C1258 C1262 1.524 . S
C1259 C1251 1.503 1_556 S
C1259 C1258 1.370 . S
C1259 C1260 1.403 . S
C1260 C1259 1.403 . S
C1260 C1261 1.404 . S
C1260 C1263 1.539 . S
C1261 C1257 1.408 . S
C1261 C1260 1.404 . S
C1261 H1273 0.930 . S
C1262 C1258 1.524 . S
C1262 H1274 0.956 . S
C1262 H1275 0.961 . S
C1262 H1276 0.961 . S
C1263 C1260 1.539 . S
C1263 H1277 0.958 . S
C1263 H1278 0.961 . S
C1263 H1279 0.960 . S
H1264 C1248 0.931 . S
H1265 C1253 0.929 . S
H1266 C1254 0.936 1_556 S
H1267 C1254 0.954 1_556 S
H1268 C1254 0.975 . S
H1269 C1255 0.961 . S
H1270 C1255 0.961 1_556 S
H1271 C1255 0.961 . S
H1272 C1256 0.931 . S
H1273 C1261 0.930 . S
H1274 C1262 0.956 . S
H1275 C1262 0.961 . S
H1276 C1262 0.961 . S
H1277 C1263 0.958 . S
H1278 C1263 0.961 . S
H1279 C1263 0.960 . S
C1280 C1281 1.391 . S
C1280 C1282 1.394 . S
C1280 H1296 0.931 . S
C1281 C1280 1.391 . S
C1281 C1285 1.376 . S
C1282 C1280 1.394 . S
C1282 C1283 1.369 . S
C1282 C1286 1.531 . S
C1283 C1282 1.369 . S
C1283 C1284 1.410 . S
C1283 C1291 1.503 . S
C1284 C1283 1.410 . S
C1284 C1285 1.392 . S
C1284 C1287 1.511 . S
C1285 C1281 1.376 . S
C1285 C1284 1.392 . S
C1285 H1297 0.929 . S
C1286 C1282 1.531 . S
C1286 H1298 0.960 . S
C1286 H1299 0.962 . S
C1286 H1300 0.960 . S
C1287 C1284 1.511 . S
C1287 H1301 0.961 . S
C1287 H1302 0.961 . S
C1287 H1303 0.961 . S
C1288 C1289 1.370 . S
C1288 C1290 1.363 . S
C1288 H1304 0.931 . S
C1289 C1288 1.370 . S
C1289 C1293 1.408 . S
C1290 C1288 1.363 . S
C1290 C1291 1.370 . S
C1290 C1294 1.524 . S
C1291 C1283 1.503 . S
C1291 C1290 1.370 . S
C1291 C1292 1.403 . S
C1292 C1291 1.403 . S
C1292 C1293 1.404 . S
C1292 C1295 1.539 . S
C1293 C1289 1.408 . S
C1293 C1292 1.404 . S
C1293 H1305 0.930 . S
C1294 C1290 1.524 . S
C1294 H1306 0.956 . S
C1294 H1307 0.961 . S
C1294 H1308 0.961 . S
C1295 C1292 1.539 . S
C1295 H1309 0.958 . S
C1295 H1310 0.961 . S
C1295 H1311 0.960 . S
H1296 C1280 0.931 . S
H1297 C1285 0.929 . S
H1298 C1286 0.960 . S
H1299 C1286 0.962 . S
H1300 C1286 0.960 . S
H1301 C1287 0.961 . S
H1302 C1287 0.961 . S
H1303 C1287 0.961 . S
H1304 C1288 0.931 . S
H1305 C1293 0.930 . S
H1306 C1294 0.956 . S
H1307 C1294 0.961 . S
H1308 C1294 0.961 . S
H1309 C1295 0.958 . S
H1310 C1295 0.961 . S
H1311 C1295 0.960 . S
C1312 C1313 1.391 . S
C1312 C1314 1.394 . S
C1312 H1328 0.931 . S
C1313 C1312 1.391 . S
C1313 C1317 1.376 . S
C1314 C1312 1.394 . S
C1314 C1315 1.369 . S
C1314 C1318 1.531 . S
C1315 C1314 1.369 . S
C1315 C1316 1.410 . S
C1315 C1323 1.503 . S
C1316 C1315 1.410 . S
C1316 C1317 1.392 . S
C1316 C1319 1.511 . S
C1317 C1313 1.376 . S
C1317 C1316 1.392 . S
C1317 H1329 0.929 . S
C1318 C1314 1.531 . S
C1318 H1330 0.960 . S
C1318 H1331 0.962 . S
C1318 H1332 0.960 . S
C1319 C1316 1.511 . S
C1319 H1333 0.961 . S
C1319 H1334 0.961 . S
C1319 H1335 0.961 . S
C1320 C1321 1.370 . S
C1320 C1322 1.363 . S
C1320 H1336 0.931 . S
C1321 C1320 1.370 . S
C1321 C1325 1.408 . S
C1322 C1320 1.363 . S
C1322 C1323 1.370 . S
C1322 C1326 1.524 . S
C1323 C1315 1.503 . S
C1323 C1322 1.370 . S
C1323 C1324 1.403 . S
C1324 C1323 1.403 . S
C1324 C1325 1.404 . S
C1324 C1327 1.539 . S
C1325 C1321 1.408 . S
C1325 C1324 1.404 . S
C1325 H1337 0.930 . S
C1326 C1322 1.524 . S
C1326 H1338 0.956 . S
C1326 H1339 0.961 . S
C1326 H1340 0.961 . S
C1327 C1324 1.539 . S
C1327 H1341 0.958 . S
C1327 H1342 0.961 . S
C1327 H1343 0.960 . S
H1328 C1312 0.931 . S
H1329 C1317 0.929 . S
H1330 C1318 0.960 . S
H1331 C1318 0.962 . S
H1332 C1318 0.960 . S
H1333 C1319 0.961 . S
H1334 C1319 0.961 . S
H1335 C1319 0.961 . S
H1336 C1320 0.931 . S
H1337 C1325 0.930 . S
H1338 C1326 0.956 . S
H1339 C1326 0.961 . S
H1340 C1326 0.961 . S
H1341 C1327 0.958 . S
H1342 C1327 0.961 . S
H1343 C1327 0.960 . S
C1344 C1345 1.391 . S
C1344 C1346 1.394 . S
C1344 H1360 0.931 . S
C1345 C1344 1.391 . S
C1345 C1349 1.376 . S
C1346 C1344 1.394 . S
C1346 C1347 1.369 . S
C1346 C1350 1.531 . S
C1347 C1346 1.369 . S
C1347 C1348 1.410 . S
C1347 C1355 1.503 . S
C1348 C1347 1.410 . S
C1348 C1349 1.392 . S
C1348 C1351 1.511 . S
C1349 C1345 1.376 . S
C1349 C1348 1.392 . S
C1349 H1361 0.929 . S
C1350 C1346 1.531 . S
C1350 H1362 0.960 . S
C1350 H1363 0.962 . S
C1350 H1364 0.960 . S
C1351 C1348 1.511 . S
C1351 H1365 0.961 . S
C1351 H1366 0.961 . S
C1351 H1367 0.961 . S
C1352 C1353 1.370 . S
C1352 C1354 1.363 . S
C1352 H1368 0.931 . S
C1353 C1352 1.370 . S
C1353 C1357 1.408 . S
C1354 C1352 1.363 . S
C1354 C1355 1.370 . S
C1354 C1358 1.524 . S
C1355 C1347 1.503 . S
C1355 C1354 1.370 . S
C1355 C1356 1.403 . S
C1356 C1355 1.403 . S
C1356 C1357 1.404 . S
C1356 C1359 1.539 . S
C1357 C1353 1.408 . S
C1357 C1356 1.404 . S
C1357 H1369 0.930 . S
C1358 C1354 1.524 . S
C1358 H1370 0.956 . S
C1358 H1371 0.961 . S
C1358 H1372 0.961 . S
C1359 C1356 1.539 . S
C1359 H1373 0.958 . S
C1359 H1374 0.961 . S
C1359 H1375 0.960 . S
H1360 C1344 0.931 . S
H1361 C1349 0.929 . S
H1362 C1350 0.960 . S
H1363 C1350 0.962 . S
H1364 C1350 0.960 . S
H1365 C1351 0.961 . S
H1366 C1351 0.961 . S
H1367 C1351 0.961 . S
H1368 C1352 0.931 . S
H1369 C1357 0.930 . S
H1370 C1358 0.956 . S
H1371 C1358 0.961 . S
H1372 C1358 0.961 . S
H1373 C1359 0.958 . S
H1374 C1359 0.961 . S
H1375 C1359 0.960 . S
C1376 C1377 1.391 . S
C1376 C1378 1.394 . S
C1376 H1392 0.931 . S
C1377 C1376 1.391 . S
C1377 C1381 1.376 . S
C1378 C1376 1.394 . S
C1378 C1379 1.369 . S
C1378 C1382 1.531 . S
C1379 C1378 1.369 . S
C1379 C1380 1.410 . S
C1379 C1387 1.503 . S
C1380 C1379 1.410 . S
C1380 C1381 1.392 . S
C1380 C1383 1.511 . S
C1381 C1377 1.376 . S
C1381 C1380 1.392 . S
C1381 H1393 0.929 . S
C1382 C1378 1.531 . S
C1382 H1394 0.960 . S
C1382 H1395 0.962 . S
C1382 H1396 0.960 . S
C1383 C1380 1.511 . S
C1383 H1397 0.961 . S
C1383 H1398 0.961 . S
C1383 H1399 0.961 . S
C1384 C1385 1.370 . S
C1384 C1386 1.363 . S
C1384 H1400 0.931 . S
C1385 C1384 1.370 . S
C1385 C1389 1.408 . S
C1386 C1384 1.363 . S
C1386 C1387 1.370 . S
C1386 C1390 1.524 . S
C1387 C1379 1.503 . S
C1387 C1386 1.370 . S
C1387 C1388 1.403 . S
C1388 C1387 1.403 . S
C1388 C1389 1.404 . S
C1388 C1391 1.539 . S
C1389 C1385 1.408 . S
C1389 C1388 1.404 . S
C1389 H1401 0.930 . S
C1390 C1386 1.524 . S
C1390 H1402 0.956 . S
C1390 H1403 0.961 . S
C1390 H1404 0.961 . S
C1391 C1388 1.539 . S
C1391 H1405 0.958 . S
C1391 H1406 0.961 . S
C1391 H1407 0.960 . S
H1392 C1376 0.931 . S
H1393 C1381 0.929 . S
H1394 C1382 0.960 . S
H1395 C1382 0.962 . S
H1396 C1382 0.960 . S
H1397 C1383 0.961 . S
H1398 C1383 0.961 . S
H1399 C1383 0.961 . S
H1400 C1384 0.931 . S
H1401 C1389 0.930 . S
H1402 C1390 0.956 . S
H1403 C1390 0.961 . S
H1404 C1390 0.961 . S
H1405 C1391 0.958 . S
H1406 C1391 0.961 . S
H1407 C1391 0.960 . S
C1408 C1409 1.391 . S
C1408 C1410 1.394 . S
C1408 H1424 0.931 . S
C1409 C1408 1.391 . S
C1409 C1413 1.376 . S
C1410 C1408 1.394 . S
C1410 C1411 1.369 . S
C1410 C1414 1.531 . S
C1411 C1410 1.369 . S
C1411 C1412 1.410 . S
C1411 C1419 1.503 . S
C1412 C1411 1.410 . S
C1412 C1413 1.392 . S
C1412 C1415 1.511 . S
C1413 C1409 1.376 . S
C1413 C1412 1.392 . S
C1413 H1425 0.929 . S
C1414 C1410 1.531 . S
C1414 H1426 0.960 . S
C1414 H1427 0.962 . S
C1414 H1428 0.960 . S
C1415 C1412 1.511 . S
C1415 H1429 0.961 . S
C1415 H1430 0.961 . S
C1415 H1431 0.961 . S
C1416 C1417 1.370 . S
C1416 C1418 1.363 . S
C1416 H1432 0.931 . S
C1417 C1416 1.370 . S
C1417 C1421 1.408 . S
C1418 C1416 1.363 . S
C1418 C1419 1.370 . S
C1418 C1422 1.524 . S
C1419 C1411 1.503 . S
C1419 C1418 1.370 . S
C1419 C1420 1.403 . S
C1420 C1419 1.403 . S
C1420 C1421 1.404 . S
C1420 C1423 1.539 . S
C1421 C1417 1.408 . S
C1421 C1420 1.404 . S
C1421 H1433 0.930 . S
C1422 C1418 1.524 . S
C1422 H1434 0.956 . S
C1422 H1435 0.961 . S
C1422 H1436 0.961 . S
C1423 C1420 1.539 . S
C1423 H1437 0.958 . S
C1423 H1438 0.961 . S
C1423 H1439 0.960 . S
H1424 C1408 0.931 . S
H1425 C1413 0.929 . S
H1426 C1414 0.960 . S
H1427 C1414 0.962 . S
H1428 C1414 0.960 . S
H1429 C1415 0.961 . S
H1430 C1415 0.961 . S
H1431 C1415 0.961 . S
H1432 C1416 0.931 . S
H1433 C1421 0.930 . S
H1434 C1422 0.956 . S
H1435 C1422 0.961 . S
H1436 C1422 0.961 . S
H1437 C1423 0.958 . S
H1438 C1423 0.961 . S
H1439 C1423 0.960 . S
C1440 C1441 1.391 . S
C1440 C1442 1.394 . S
C1440 H1456 0.931 . S
C1441 C1440 1.391 . S
C1441 C1445 1.376 . S
C1442 C1440 1.394 . S
C1442 C1443 1.369 . S
C1442 C1446 1.531 . S
C1443 C1442 1.369 . S
C1443 C1444 1.410 . S
C1443 C1451 1.503 . S
C1444 C1443 1.410 . S
C1444 C1445 1.392 . S
C1444 C1447 1.511 . S
C1445 C1441 1.376 . S
C1445 C1444 1.392 . S
C1445 H1457 0.929 . S
C1446 C1442 1.531 . S
C1446 H1458 0.960 . S
C1446 H1459 0.962 . S
C1446 H1460 0.960 . S
C1447 C1444 1.511 . S
C1447 H1461 0.961 . S
C1447 H1462 0.961 . S
C1447 H1463 0.961 . S
C1448 C1449 1.370 . S
C1448 C1450 1.363 . S
C1448 H1464 0.931 . S
C1449 C1448 1.370 . S
C1449 C1453 1.408 . S
C1450 C1448 1.363 . S
C1450 C1451 1.370 . S
C1450 C1454 1.524 . S
C1451 C1443 1.503 . S
C1451 C1450 1.370 . S
C1451 C1452 1.403 . S
C1452 C1451 1.403 . S
C1452 C1453 1.404 . S
C1452 C1455 1.539 . S
C1453 C1449 1.408 . S
C1453 C1452 1.404 . S
C1453 H1465 0.930 . S
C1454 C1450 1.524 . S
C1454 H1466 0.956 . S
C1454 H1467 0.961 . S
C1454 H1468 0.961 . S
C1455 C1452 1.539 . S
C1455 H1469 0.958 . S
C1455 H1470 0.961 . S
C1455 H1471 0.960 . S
H1456 C1440 0.931 . S
H1457 C1445 0.929 . S
H1458 C1446 0.960 . S
H1459 C1446 0.962 . S
H1460 C1446 0.960 . S
H1461 C1447 0.961 . S
H1462 C1447 0.961 . S
H1463 C1447 0.961 . S
H1464 C1448 0.931 . S
H1465 C1453 0.930 . S
H1466 C1454 0.956 . S
H1467 C1454 0.961 . S
H1468 C1454 0.961 . S
H1469 C1455 0.958 . S
H1470 C1455 0.961 . S
H1471 C1455 0.960 . S
C1472 C1473 1.391 . S
C1472 C1474 1.394 . S
C1472 H1488 0.931 . S
C1473 C1472 1.391 . S
C1473 C1477 1.376 . S
C1474 C1472 1.394 . S
C1474 C1475 1.369 . S
C1474 C1478 1.531 . S
C1475 C1474 1.369 . S
C1475 C1476 1.410 . S
C1475 C1483 1.503 . S
C1476 C1475 1.410 . S
C1476 C1477 1.392 . S
C1476 C1479 1.511 . S
C1477 C1473 1.376 . S
C1477 C1476 1.392 . S
C1477 H1489 0.929 . S
C1478 C1474 1.531 . S
C1478 H1490 0.960 . S
C1478 H1491 0.962 . S
C1478 H1492 0.960 . S
C1479 C1476 1.511 . S
C1479 H1493 0.961 . S
C1479 H1494 0.961 . S
C1479 H1495 0.961 . S
C1480 C1481 1.370 . S
C1480 C1482 1.363 . S
C1480 H1496 0.931 . S
C1481 C1480 1.370 . S
C1481 C1485 1.408 . S
C1482 C1480 1.363 . S
C1482 C1483 1.370 . S
C1482 C1486 1.524 . S
C1483 C1475 1.503 . S
C1483 C1482 1.370 . S
C1483 C1484 1.403 . S
C1484 C1483 1.403 . S
C1484 C1485 1.404 . S
C1484 C1487 1.539 . S
C1485 C1481 1.408 . S
C1485 C1484 1.404 . S
C1485 H1497 0.930 . S
C1486 C1482 1.524 . S
C1486 H1498 0.956 . S
C1486 H1499 0.961 . S
C1486 H1500 0.961 . S
C1487 C1484 1.539 . S
C1487 H1501 0.958 . S
C1487 H1502 0.961 . S
C1487 H1503 0.960 . S
H1488 C1472 0.931 . S
H1489 C1477 0.929 . S
H1490 C1478 0.960 . S
H1491 C1478 0.962 . S
H1492 C1478 0.960 . S
H1493 C1479 0.961 . S
H1494 C1479 0.961 . S
H1495 C1479 0.961 . S
H1496 C1480 0.931 . S
H1497 C1485 0.930 . S
H1498 C1486 0.956 . S
H1499 C1486 0.961 . S
H1500 C1486 0.961 . S
H1501 C1487 0.958 . S
H1502 C1487 0.961 . S
H1503 C1487 0.960 . S
C1504 C1505 1.391 . S
C1504 C1506 1.394 . S
C1504 H1520 0.931 . S
C1505 C1504 1.391 . S
C1505 C1509 1.376 . S
C1506 C1504 1.394 . S
C1506 C1507 1.369 . S
C1506 C1510 1.531 . S
C1507 C1506 1.369 . S
C1507 C1508 1.410 . S
C1507 C1515 1.503 . S
C1508 C1507 1.410 . S
C1508 C1509 1.392 . S
C1508 C1511 1.511 . S
C1509 C1505 1.376 . S
C1509 C1508 1.392 . S
C1509 H1521 0.929 . S
C1510 C1506 1.531 . S
C1510 H1522 0.960 . S
C1510 H1523 0.962 . S
C1510 H1524 0.960 . S
C1511 C1508 1.511 . S
C1511 H1525 0.961 . S
C1511 H1526 0.961 . S
C1511 H1527 0.961 . S
C1512 C1513 1.370 . S
C1512 C1514 1.363 . S
C1512 H1528 0.931 . S
C1513 C1512 1.370 . S
C1513 C1517 1.408 . S
C1514 C1512 1.363 . S
C1514 C1515 1.370 . S
C1514 C1518 1.524 . S
C1515 C1507 1.503 . S
C1515 C1514 1.370 . S
C1515 C1516 1.403 . S
C1516 C1515 1.403 . S
C1516 C1517 1.404 . S
C1516 C1519 1.539 . S
C1517 C1513 1.408 . S
C1517 C1516 1.404 . S
C1517 H1529 0.930 . S
C1518 C1514 1.524 . S
C1518 H1530 0.956 . S
C1518 H1531 0.961 . S
C1518 H1532 0.961 . S
C1519 C1516 1.539 . S
C1519 H1533 0.958 . S
C1519 H1534 0.961 . S
C1519 H1535 0.960 . S
H1520 C1504 0.931 . S
H1521 C1509 0.929 . S
H1522 C1510 0.960 . S
H1523 C1510 0.962 . S
H1524 C1510 0.960 . S
H1525 C1511 0.961 . S
H1526 C1511 0.961 . S
H1527 C1511 0.961 . S
H1528 C1512 0.931 . S
H1529 C1517 0.930 . S
H1530 C1518 0.956 . S
H1531 C1518 0.961 . S
H1532 C1518 0.961 . S
H1533 C1519 0.958 . S
H1534 C1519 0.961 . S
H1535 C1519 0.960 . S
C1536 C1537 1.391 . S
C1536 C1538 1.394 . S
C1536 H1552 0.931 . S
C1537 C1536 1.391 . S
C1537 C1541 1.376 . S
C1538 C1536 1.394 . S
C1538 C1539 1.369 . S
C1538 C1542 1.531 . S
C1539 C1538 1.369 . S
C1539 C1540 1.410 . S
C1539 C1547 1.503 . S
C1540 C1539 1.410 . S
C1540 C1541 1.392 . S
C1540 C1543 1.511 . S
C1541 C1537 1.376 . S
C1541 C1540 1.392 . S
C1541 H1553 0.929 . S
C1542 C1538 1.531 . S
C1542 H1554 0.960 . S
C1542 H1555 0.962 . S
C1542 H1556 0.960 . S
C1543 C1540 1.511 . S
C1543 H1557 0.961 . S
C1543 H1558 0.961 . S
C1543 H1559 0.961 . S
C1544 C1545 1.370 . S
C1544 C1546 1.363 . S
C1544 H1560 0.931 . S
C1545 C1544 1.370 . S
C1545 C1549 1.408 . S
C1546 C1544 1.363 . S
C1546 C1547 1.370 . S
C1546 C1550 1.524 . S
C1547 C1539 1.503 . S
C1547 C1546 1.370 . S
C1547 C1548 1.403 . S
C1548 C1547 1.403 . S
C1548 C1549 1.404 . S
C1548 C1551 1.539 . S
C1549 C1545 1.408 . S
C1549 C1548 1.404 . S
C1549 H1561 0.930 . S
C1550 C1546 1.524 . S
C1550 H1562 0.956 . S
C1550 H1563 0.961 . S
C1550 H1564 0.961 . S
C1551 C1548 1.539 . S
C1551 H1565 0.958 . S
C1551 H1566 0.961 . S
C1551 H1567 0.960 . S
H1552 C1536 0.931 . S
H1553 C1541 0.929 . S
H1554 C1542 0.960 . S
H1555 C1542 0.962 . S
H1556 C1542 0.960 . S
H1557 C1543 0.961 . S
H1558 C1543 0.961 . S
H1559 C1543 0.961 . S
H1560 C1544 0.931 . S
H1561 C1549 0.930 . S
H1562 C1550 0.956 . S
H1563 C1550 0.961 . S
H1564 C1550 0.961 . S
H1565 C1551 0.958 . S
H1566 C1551 0.961 . S
H1567 C1551 0.960 . S
C1568 C1569 1.391 . S
C1568 C1570 1.394 . S
C1568 H1584 0.931 . S
C1569 C1568 1.391 . S
C1569 C1573 1.376 . S
C1570 C1568 1.394 . S
C1570 C1571 1.369 . S
C1570 C1574 1.531 . S
C1571 C1570 1.369 . S
C1571 C1572 1.410 . S
C1571 C1579 1.503 . S
C1572 C1571 1.410 . S
C1572 C1573 1.392 . S
C1572 C1575 1.511 . S
C1573 C1569 1.376 . S
C1573 C1572 1.392 . S
C1573 H1585 0.929 . S
C1574 C1570 1.531 . S
C1574 H1586 0.960 . S
C1574 H1587 0.962 . S
C1574 H1588 0.960 . S
C1575 C1572 1.511 . S
C1575 H1589 0.961 . S
C1575 H1590 0.961 . S
C1575 H1591 0.961 . S
C1576 C1577 1.370 . S
C1576 C1578 1.363 . S
C1576 H1592 0.931 . S
C1577 C1576 1.370 . S
C1577 C1581 1.408 . S
C1578 C1576 1.363 . S
C1578 C1579 1.370 . S
C1578 C1582 1.524 . S
C1579 C1571 1.503 . S
C1579 C1578 1.370 . S
C1579 C1580 1.403 . S
C1580 C1579 1.403 . S
C1580 C1581 1.404 . S
C1580 C1583 1.539 . S
C1581 C1577 1.408 . S
C1581 C1580 1.404 . S
C1581 H1593 0.930 . S
C1582 C1578 1.524 . S
C1582 H1594 0.956 . S
C1582 H1595 0.961 . S
C1582 H1596 0.961 . S
C1583 C1580 1.539 . S
C1583 H1597 0.958 . S
C1583 H1598 0.961 . S
C1583 H1599 0.960 . S
H1584 C1568 0.931 . S
H1585 C1573 0.929 . S
H1586 C1574 0.960 . S
H1587 C1574 0.962 . S
H1588 C1574 0.960 . S
H1589 C1575 0.961 . S
H1590 C1575 0.961 . S
H1591 C1575 0.961 . S
H1592 C1576 0.931 . S
H1593 C1581 0.930 . S
H1594 C1582 0.956 . S
H1595 C1582 0.961 . S
H1596 C1582 0.961 . S
H1597 C1583 0.958 . S
H1598 C1583 0.961 . S
H1599 C1583 0.960 . S
C1600 C1601 1.391 . S
C1600 C1602 1.394 . S
C1600 H1616 0.931 . S
C1601 C1600 1.391 . S
C1601 C1605 1.376 . S
C1602 C1600 1.394 . S
C1602 C1603 1.369 . S
C1602 C1606 1.531 . S
C1603 C1602 1.369 . S
C1603 C1604 1.410 . S
C1603 C1611 1.503 . S
C1604 C1603 1.410 . S
C1604 C1605 1.392 . S
C1604 C1607 1.511 . S
C1605 C1601 1.376 . S
C1605 C1604 1.392 . S
C1605 H1617 0.929 . S
C1606 C1602 1.531 . S
C1606 H1618 0.960 . S
C1606 H1619 0.962 . S
C1606 H1620 0.960 . S
C1607 C1604 1.511 . S
C1607 H1621 0.961 . S
C1607 H1622 0.961 . S
C1607 H1623 0.961 . S
C1608 C1609 1.370 . S
C1608 C1610 1.363 . S
C1608 H1624 0.931 . S
C1609 C1608 1.370 . S
C1609 C1613 1.408 . S
C1610 C1608 1.363 . S
C1610 C1611 1.370 . S
C1610 C1614 1.524 . S
C1611 C1603 1.503 . S
C1611 C1610 1.370 . S
C1611 C1612 1.403 . S
C1612 C1611 1.403 . S
C1612 C1613 1.404 . S
C1612 C1615 1.539 . S
C1613 C1609 1.408 . S
C1613 C1612 1.404 . S
C1613 H1625 0.930 . S
C1614 C1610 1.524 . S
C1614 H1626 0.956 . S
C1614 H1627 0.961 . S
C1614 H1628 0.961 . S
C1615 C1612 1.539 . S
C1615 H1629 0.958 . S
C1615 H1630 0.961 . S
C1615 H1631 0.960 . S
H1616 C1600 0.931 . S
H1617 C1605 0.929 . S
H1618 C1606 0.960 . S
H1619 C1606 0.962 . S
H1620 C1606 0.960 . S
H1621 C1607 0.961 . S
H1622 C1607 0.961 . S
H1623 C1607 0.961 . S
H1624 C1608 0.931 . S
H1625 C1613 0.930 . S
H1626 C1614 0.956 . S
H1627 C1614 0.961 . S
H1628 C1614 0.961 . S
H1629 C1615 0.958 . S
H1630 C1615 0.961 . S
H1631 C1615 0.960 . S
C1632 C1633 1.391 . S
C1632 C1634 1.394 . S
C1632 H1648 0.931 . S
C1633 C1632 1.391 . S
C1633 C1637 1.376 . S
C1634 C1632 1.394 . S
C1634 C1635 1.369 . S
C1634 C1638 1.531 . S
C1635 C1634 1.369 . S
C1635 C1636 1.410 . S
C1635 C1643 1.503 . S
C1636 C1635 1.410 . S
C1636 C1637 1.392 . S
C1636 C1639 1.511 . S
C1637 C1633 1.376 . S
C1637 C1636 1.392 . S
C1637 H1649 0.929 . S
C1638 C1634 1.531 . S
C1638 H1650 0.960 . S
C1638 H1651 0.962 . S
C1638 H1652 0.960 . S
C1639 C1636 1.511 . S
C1639 H1653 0.961 . S
C1639 H1654 0.961 . S
C1639 H1655 0.961 . S
C1640 C1641 1.370 . S
C1640 C1642 1.363 . S
C1640 H1656 0.931 . S
C1641 C1640 1.370 . S
C1641 C1645 1.408 . S
C1642 C1640 1.363 . S
C1642 C1643 1.370 . S
C1642 C1646 1.524 . S
C1643 C1635 1.503 . S
C1643 C1642 1.370 . S
C1643 C1644 1.403 . S
C1644 C1643 1.403 . S
C1644 C1645 1.404 . S
C1644 C1647 1.539 . S
C1645 C1641 1.408 . S
C1645 C1644 1.404 . S
C1645 H1657 0.930 . S
C1646 C1642 1.524 . S
C1646 H1658 0.956 . S
C1646 H1659 0.961 . S
C1646 H1660 0.961 . S
C1647 C1644 1.539 . S
C1647 H1661 0.958 . S
C1647 H1662 0.961 . S
C1647 H1663 0.960 . S
H1648 C1632 0.931 . S
H1649 C1637 0.929 . S
H1650 C1638 0.960 . S
H1651 C1638 0.962 . S
H1652 C1638 0.960 . S
H1653 C1639 0.961 . S
H1654 C1639 0.961 . S
H1655 C1639 0.961 . S
H1656 C1640 0.931 . S
H1657 C1645 0.930 . S
H1658 C1646 0.956 . S
H1659 C1646 0.961 . S
H1660 C1646 0.961 . S
H1661 C1647 0.958 . S
H1662 C1647 0.961 . S
H1663 C1647 0.960 . S
C1664 C1665 1.391 . S
C1664 C1666 1.394 . S
C1664 H1680 0.931 . S
C1665 C1664 1.391 . S
C1665 C1669 1.376 . S
C1666 C1664 1.394 . S
C1666 C1667 1.369 . S
C1666 C1670 1.531 . S
C1667 C1666 1.369 . S
C1667 C1668 1.410 . S
C1667 C1675 1.503 . S
C1668 C1667 1.410 . S
C1668 C1669 1.392 . S
C1668 C1671 1.511 . S
C1669 C1665 1.376 . S
C1669 C1668 1.392 . S
C1669 H1681 0.929 . S
C1670 C1666 1.531 . S
C1670 H1682 0.960 . S
C1670 H1683 0.962 . S
C1670 H1684 0.960 . S
C1671 C1668 1.511 . S
C1671 H1685 0.961 . S
C1671 H1686 0.961 . S
C1671 H1687 0.961 . S
C1672 C1673 1.370 . S
C1672 C1674 1.363 . S
C1672 H1688 0.931 . S
C1673 C1672 1.370 . S
C1673 C1677 1.408 . S
C1674 C1672 1.363 . S
C1674 C1675 1.370 . S
C1674 C1678 1.524 . S
C1675 C1667 1.503 . S
C1675 C1674 1.370 . S
C1675 C1676 1.403 . S
C1676 C1675 1.403 . S
C1676 C1677 1.404 . S
C1676 C1679 1.539 . S
C1677 C1673 1.408 . S
C1677 C1676 1.404 . S
C1677 H1689 0.930 . S
C1678 C1674 1.524 . S
C1678 H1690 0.956 . S
C1678 H1691 0.961 . S
C1678 H1692 0.961 . S
C1679 C1676 1.539 . S
C1679 H1693 0.958 . S
C1679 H1694 0.961 . S
C1679 H1695 0.960 . S
H1680 C1664 0.931 . S
H1681 C1669 0.929 . S
H1682 C1670 0.960 . S
H1683 C1670 0.962 . S
H1684 C1670 0.960 . S
H1685 C1671 0.961 . S
H1686 C1671 0.961 . S
H1687 C1671 0.961 . S
H1688 C1672 0.931 . S
H1689 C1677 0.930 . S
H1690 C1678 0.956 . S
H1691 C1678 0.961 . S
H1692 C1678 0.961 . S
H1693 C1679 0.958 . S
H1694 C1679 0.961 . S
H1695 C1679 0.960 . S
C1696 C1697 1.391 . S
C1696 C1698 1.394 . S
C1696 H1712 0.931 . S
C1697 C1696 1.391 . S
C1697 C1701 1.376 . S
C1698 C1696 1.394 . S
C1698 C1699 1.369 . S
C1698 C1702 1.531 . S
C1699 C1698 1.369 . S
C1699 C1700 1.410 . S
C1699 C1707 1.503 . S
C1700 C1699 1.410 . S
C1700 C1701 1.392 . S
C1700 C1703 1.511 . S
C1701 C1697 1.376 . S
C1701 C1700 1.392 . S
C1701 H1713 0.929 . S
C1702 C1698 1.531 . S
C1702 H1714 0.960 . S
C1702 H1715 0.962 . S
C1702 H1716 0.960 . S
C1703 C1700 1.511 . S
C1703 H1717 0.961 . S
C1703 H1718 0.961 . S
C1703 H1719 0.961 . S
C1704 C1705 1.370 . S
C1704 C1706 1.363 . S
C1704 H1720 0.931 . S
C1705 C1704 1.370 . S
C1705 C1709 1.408 . S
C1706 C1704 1.363 . S
C1706 C1707 1.370 . S
C1706 C1710 1.524 . S
C1707 C1699 1.503 . S
C1707 C1706 1.370 . S
C1707 C1708 1.403 . S
C1708 C1707 1.403 . S
C1708 C1709 1.404 . S
C1708 C1711 1.539 . S
C1709 C1705 1.408 . S
C1709 C1708 1.404 . S
C1709 H1721 0.930 . S
C1710 C1706 1.524 . S
C1710 H1722 0.956 . S
C1710 H1723 0.961 . S
C1710 H1724 0.961 . S
C1711 C1708 1.539 . S
C1711 H1725 0.958 . S
C1711 H1726 0.961 . S
C1711 H1727 0.960 . S
H1712 C1696 0.931 . S
H1713 C1701 0.929 . S
H1714 C1702 0.960 . S
H1715 C1702 0.962 . S
H1716 C1702 0.960 . S
H1717 C1703 0.961 . S
H1718 C1703 0.961 . S
H1719 C1703 0.961 . S
H1720 C1704 0.931 . S
H1721 C1709 0.930 . S
H1722 C1710 0.956 . S
H1723 C1710 0.961 . S
H1724 C1710 0.961 . S
H1725 C1711 0.958 . S
H1726 C1711 0.961 . S
H1727 C1711 0.960 . S
C1728 C1729 1.391 . S
C1728 C1730 1.394 . S
C1728 H1744 0.931 . S
C1729 C1728 1.391 . S
C1729 C1733 1.376 . S
C1730 C1728 1.394 . S
C1730 C1731 1.369 . S
C1730 C1734 1.531 . S
C1731 C1730 1.369 . S
C1731 C1732 1.410 . S
C1731 C1739 1.503 . S
C1732 C1731 1.410 . S
C1732 C1733 1.392 . S
C1732 C1735 1.511 . S
C1733 C1729 1.376 . S
C1733 C1732 1.392 . S
C1733 H1745 0.929 . S
C1734 C1730 1.531 . S
C1734 H1746 0.960 . S
C1734 H1747 0.962 . S
C1734 H1748 0.960 . S
C1735 C1732 1.511 . S
C1735 H1749 0.961 . S
C1735 H1750 0.961 . S
C1735 H1751 0.961 . S
C1736 C1737 1.370 . S
C1736 C1738 1.363 . S
C1736 H1752 0.931 . S
C1737 C1736 1.370 . S
C1737 C1741 1.408 . S
C1738 C1736 1.363 . S
C1738 C1739 1.370 . S
C1738 C1742 1.524 . S
C1739 C1731 1.503 . S
C1739 C1738 1.370 . S
C1739 C1740 1.403 . S
C1740 C1739 1.403 . S
C1740 C1741 1.404 . S
C1740 C1743 1.539 . S
C1741 C1737 1.408 . S
C1741 C1740 1.404 . S
C1741 H1753 0.930 . S
C1742 C1738 1.524 . S
C1742 H1754 0.956 . S
C1742 H1755 0.961 . S
C1742 H1756 0.961 . S
C1743 C1740 1.539 . S
C1743 H1757 0.958 . S
C1743 H1758 0.961 . S
C1743 H1759 0.960 . S
H1744 C1728 0.931 . S
H1745 C1733 0.929 . S
H1746 C1734 0.960 . S
H1747 C1734 0.962 . S
H1748 C1734 0.960 . S
H1749 C1735 0.961 . S
H1750 C1735 0.961 . S
H1751 C1735 0.961 . S
H1752 C1736 0.931 . S
H1753 C1741 0.930 . S
H1754 C1742 0.956 . S
H1755 C1742 0.961 . S
H1756 C1742 0.961 . S
H1757 C1743 0.958 . S
H1758 C1743 0.961 . S
H1759 C1743 0.960 . S
C1760 C1761 1.391 . S
C1760 C1762 1.394 . S
C1760 H1776 0.931 . S
C1761 C1760 1.391 . S
C1761 C1765 1.376 . S
C1762 C1760 1.394 . S
C1762 C1763 1.369 . S
C1762 C1766 1.531 . S
C1763 C1762 1.369 . S
C1763 C1764 1.410 . S
C1763 C1771 1.503 . S
C1764 C1763 1.410 . S
C1764 C1765 1.392 . S
C1764 C1767 1.511 . S
C1765 C1761 1.376 . S
C1765 C1764 1.392 . S
C1765 H1777 0.929 . S
C1766 C1762 1.531 . S
C1766 H1778 0.960 . S
C1766 H1779 0.962 . S
C1766 H1780 0.960 . S
C1767 C1764 1.511 . S
C1767 H1781 0.961 . S
C1767 H1782 0.961 . S
C1767 H1783 0.961 . S
C1768 C1769 1.370 . S
C1768 C1770 1.363 . S
C1768 H1784 0.931 . S
C1769 C1768 1.370 . S
C1769 C1773 1.408 . S
C1770 C1768 1.363 . S
C1770 C1771 1.370 . S
C1770 C1774 1.524 . S
C1771 C1763 1.503 . S
C1771 C1770 1.370 . S
C1771 C1772 1.403 . S
C1772 C1771 1.403 . S
C1772 C1773 1.404 . S
C1772 C1775 1.539 . S
C1773 C1769 1.408 . S
C1773 C1772 1.404 . S
C1773 H1785 0.930 . S
C1774 C1770 1.524 . S
C1774 H1786 0.956 . S
C1774 H1787 0.961 . S
C1774 H1788 0.961 . S
C1775 C1772 1.539 . S
C1775 H1789 0.958 . S
C1775 H1790 0.961 . S
C1775 H1791 0.960 . S
H1776 C1760 0.931 . S
H1777 C1765 0.929 . S
H1778 C1766 0.960 . S
H1779 C1766 0.962 . S
H1780 C1766 0.960 . S
H1781 C1767 0.961 . S
H1782 C1767 0.961 . S
H1783 C1767 0.961 . S
H1784 C1768 0.931 . S
H1785 C1773 0.930 . S
H1786 C1774 0.956 . S
H1787 C1774 0.961 . S
H1788 C1774 0.961 . S
H1789 C1775 0.958 . S
H1790 C1775 0.961 . S
H1791 C1775 0.960 . S
C1792 C1793 1.391 . S
C1792 C1794 1.394 . S
C1792 H1808 0.931 . S
C1793 C1792 1.391 . S
C1793 C1797 1.376 . S
C1794 C1792 1.394 . S
C1794 C1795 1.369 . S
C1794 C1798 1.531 . S
C1795 C1794 1.369 . S
C1795 C1796 1.410 . S
C1795 C1803 1.503 . S
C1796 C1795 1.410 . S
C1796 C1797 1.392 . S
C1796 C1799 1.511 . S
C1797 C1793 1.376 . S
C1797 C1796 1.392 . S
C1797 H1809 0.929 . S
C1798 C1794 1.531 . S
C1798 H1810 0.960 . S
C1798 H1811 0.962 . S
C1798 H1812 0.960 . S
C1799 C1796 1.511 . S
C1799 H1813 0.961 . S
C1799 H1814 0.961 . S
C1799 H1815 0.961 . S
C1800 C1801 1.370 . S
C1800 C1802 1.363 . S
C1800 H1816 0.931 . S
C1801 C1800 1.370 . S
C1801 C1805 1.408 . S
C1802 C1800 1.363 . S
C1802 C1803 1.370 . S
C1802 C1806 1.524 . S
C1803 C1795 1.503 . S
C1803 C1802 1.370 . S
C1803 C1804 1.403 . S
C1804 C1803 1.403 . S
C1804 C1805 1.404 . S
C1804 C1807 1.539 . S
C1805 C1801 1.408 . S
C1805 C1804 1.404 . S
C1805 H1817 0.930 . S
C1806 C1802 1.524 . S
C1806 H1818 0.956 . S
C1806 H1819 0.961 . S
C1806 H1820 0.961 . S
C1807 C1804 1.539 . S
C1807 H1821 0.958 . S
C1807 H1822 0.961 . S
C1807 H1823 0.960 . S
H1808 C1792 0.931 . S
H1809 C1797 0.929 . S
H1810 C1798 0.960 . S
H1811 C1798 0.962 . S
H1812 C1798 0.960 . S
H1813 C1799 0.961 . S
H1814 C1799 0.961 . S
H1815 C1799 0.961 . S
H1816 C1800 0.931 . S
H1817 C1805 0.930 . S
H1818 C1806 0.956 . S
H1819 C1806 0.961 . S
H1820 C1806 0.961 . S
H1821 C1807 0.958 . S
H1822 C1807 0.961 . S
H1823 C1807 0.960 . S
C545 C413 1.510 . S
C553 C9 1.412 . S
C577 C43 1.303 . S
C585 C447 1.437 . S
C609 C77 1.404 . S
C617 C481 1.501 . S
C641 C107 1.445 . S
C649 C519 1.330 . S
C673 C281 1.410 . S
C681 C141 1.501 . S
C705 C311 1.558 . S
C713 C179 1.477 . S
C737 C209 1.488 . S
C745 C349 1.407 . S
C769 C383 1.508 . S
C777 C243 1.578 . S
C801 C33 1.560 . S
C809 C509 1.557 . S
C833 C543 1.671 . S
C841 C67 1.673 . S
C865 C441 1.541 . S
C873 C101 1.550 . S
C897 C475 1.672 . S
C905 C135 1.683 . S
C929 C373 1.848 . S
C937 C169 1.854 . S
C961 C407 1.688 . S
C969 C203 1.688 . S
C993 C305 1.851 . S
C1001 C237 1.859 . S
C1025 C339 1.692 . S
C1033 C271 1.692 . S
C1057 C20 1.399 . S
C1065 C342 1.423 . S
C1089 C376 1.424 . S
C1097 C54 1.471 . S
C1121 C274 1.482 . S
C1129 C88 1.469 . S
C1153 C326 1.442 . S
C1161 C104 1.426 . S
C1185 C138 1.437 . S
C1193 C496 1.423 . S
C1217 C190 1.414 . S
C1225 C512 1.381 . S
C1249 C428 1.398 . S
C1257 C206 1.406 . S
C1281 C240 1.373 . S
C1289 C462 1.388 . S
C1313 C417 1.378 . S
C1321 C5 1.415 . S
C1345 C39 1.478 . S
C1353 C451 1.404 . S
C1377 C73 1.412 . S
C1385 C485 1.335 . S
C1409 C515 1.466 . S
C1417 C111 1.413 . S
C1441 C277 1.400 . S
C1449 C145 1.353 . S
C1473 C175 1.336 . S
C1481 C315 1.271 . S
C1505 C345 1.412 . S
C1513 C213 1.360 . S
C1537 C379 1.358 . S
C1545 C247 1.239 . S
C1569 C172 1.585 . S
C1577 C2 1.583 . S
C1601 C224 1.635 . S
C1609 C36 1.630 . S
C1633 C70 1.205 . S
C1641 C258 1.217 . S
C1665 C156 1.316 . S
C1673 C122 1.288 . S
C1697 C292 1.623 . S
C1705 C444 1.673 . S
C1729 C478 1.507 . S
C1737 C308 1.506 . S
C1761 C530 1.377 . S
C1769 C360 1.361 . S
C1793 C394 1.245 . S
C1801 C410 1.299 . S
