# Generated by pormake.
# Topology uki, (4)-cn, num edge types: 1
# Building blocks:
#     Node 0, Type 0, BuildingBlock: ESEHIV_clean_sbu_0, # of connection points: 4
#     Node 1, Type 0, BuildingBlock: ESEHIV_clean_sbu_0, # of connection points: 4
#     Node 2, Type 0, BuildingBlock: ESEHIV_clean_sbu_0, # of connection points: 4
#     Node 3, Type 0, BuildingBlock: ESEHIV_clean_sbu_0, # of connection points: 4
#     Node 4, Type 0, BuildingBlock: ESEHIV_clean_sbu_0, # of connection points: 4
#     Node 5, Type 0, BuildingBlock: ESEHIV_clean_sbu_0, # of connection points: 4
#     Node 6, Type 0, BuildingBlock: ESEHIV_clean_sbu_0, # of connection points: 4
#     Node 7, Type 0, BuildingBlock: ESEHIV_clean_sbu_0, # of connection points: 4
#     Node 8, Type 0, BuildingBlock: ESEHIV_clean_sbu_0, # of connection points: 4
#     Node 9, Type 0, BuildingBlock: ESEHIV_clean_sbu_0, # of connection points: 4
#     Node 10, Type 0, BuildingBlock: ESEHIV_clean_sbu_0, # of connection points: 4
#     Node 11, Type 0, BuildingBlock: ESEHIV_clean_sbu_0, # of connection points: 4
#     Node 12, Type 0, BuildingBlock: ESEHIV_clean_sbu_0, # of connection points: 4
#     Node 13, Type 0, BuildingBlock: ESEHIV_clean_sbu_0, # of connection points: 4
#     Node 14, Type 0, BuildingBlock: ESEHIV_clean_sbu_0, # of connection points: 4
#     Node 15, Type 0, BuildingBlock: ESEHIV_clean_sbu_0, # of connection points: 4
#     Edge 16, Type (0, 0), BuildingBlock: ZUJKAS_clean_linker_0, # of connection points: 2
#     Edge 17, Type (0, 0), BuildingBlock: ZUJKAS_clean_linker_0, # of connection points: 2
#     Edge 18, Type (0, 0), BuildingBlock: ZUJKAS_clean_linker_0, # of connection points: 2
#     Edge 19, Type (0, 0), BuildingBlock: ZUJKAS_clean_linker_0, # of connection points: 2
#     Edge 20, Type (0, 0), BuildingBlock: ZUJKAS_clean_linker_0, # of connection points: 2
#     Edge 21, Type (0, 0), BuildingBlock: ZUJKAS_clean_linker_0, # of connection points: 2
#     Edge 22, Type (0, 0), BuildingBlock: ZUJKAS_clean_linker_0, # of connection points: 2
#     Edge 23, Type (0, 0), BuildingBlock: ZUJKAS_clean_linker_0, # of connection points: 2
#     Edge 24, Type (0, 0), BuildingBlock: ZUJKAS_clean_linker_0, # of connection points: 2
#     Edge 25, Type (0, 0), BuildingBlock: ZUJKAS_clean_linker_0, # of connection points: 2
#     Edge 26, Type (0, 0), BuildingBlock: ZUJKAS_clean_linker_0, # of connection points: 2
#     Edge 27, Type (0, 0), BuildingBlock: ZUJKAS_clean_linker_0, # of connection points: 2
#     Edge 28, Type (0, 0), BuildingBlock: ZUJKAS_clean_linker_0, # of connection points: 2
#     Edge 29, Type (0, 0), BuildingBlock: ZUJKAS_clean_linker_0, # of connection points: 2
#     Edge 30, Type (0, 0), BuildingBlock: ZUJKAS_clean_linker_0, # of connection points: 2
#     Edge 31, Type (0, 0), BuildingBlock: ZUJKAS_clean_linker_0, # of connection points: 2
#     Edge 32, Type (0, 0), BuildingBlock: ZUJKAS_clean_linker_0, # of connection points: 2
#     Edge 33, Type (0, 0), BuildingBlock: ZUJKAS_clean_linker_0, # of connection points: 2
#     Edge 34, Type (0, 0), BuildingBlock: ZUJKAS_clean_linker_0, # of connection points: 2
#     Edge 35, Type (0, 0), BuildingBlock: ZUJKAS_clean_linker_0, # of connection points: 2
#     Edge 36, Type (0, 0), BuildingBlock: ZUJKAS_clean_linker_0, # of connection points: 2
#     Edge 37, Type (0, 0), BuildingBlock: ZUJKAS_clean_linker_0, # of connection points: 2
#     Edge 38, Type (0, 0), BuildingBlock: ZUJKAS_clean_linker_0, # of connection points: 2
#     Edge 39, Type (0, 0), BuildingBlock: ZUJKAS_clean_linker_0, # of connection points: 2
#     Edge 40, Type (0, 0), BuildingBlock: ZUJKAS_clean_linker_0, # of connection points: 2
#     Edge 41, Type (0, 0), BuildingBlock: ZUJKAS_clean_linker_0, # of connection points: 2
#     Edge 42, Type (0, 0), BuildingBlock: ZUJKAS_clean_linker_0, # of connection points: 2
#     Edge 43, Type (0, 0), BuildingBlock: ZUJKAS_clean_linker_0, # of connection points: 2
#     Edge 44, Type (0, 0), BuildingBlock: ZUJKAS_clean_linker_0, # of connection points: 2
#     Edge 45, Type (0, 0), BuildingBlock: ZUJKAS_clean_linker_0, # of connection points: 2
#     Edge 46, Type (0, 0), BuildingBlock: ZUJKAS_clean_linker_0, # of connection points: 2
#     Edge 47, Type (0, 0), BuildingBlock: ZUJKAS_clean_linker_0, # of connection points: 2
# Relax obj value: 0.100
# Max RMSD: 0.185
# Mean RMSD: 0.170
data_MOF--net-uki--node1-ESEHIV_clean_sbu_0--edge1-ZUJKAS_clean_linker_0
_symmetry_space_group_name_H-M    P1
_symmetry_Int_Tables_number       1
_symmetry_cell_setting            triclinic
loop_
_symmetry_equiv_pos_as_xyz
'x, y, z'
_cell_length_a     45.133207
_cell_length_b     38.012223
_cell_length_c     108.63554
_cell_angle_alpha  90.104872
_cell_angle_beta   89.881745
_cell_angle_gamma 90.058883
loop_
_atom_site_label
_atom_site_type_symbol
_atom_site_fract_x
_atom_site_fract_y
_atom_site_fract_z
_atom_type_partial_charge
Cu0 Cu 0.09547 0.26535 0.32042 0.0
N1 N 0.05691 0.28345 0.31985 0.0
N2 N 0.01405 0.30486 0.31275 0.0
C3 C 0.04343 0.30102 0.31065 0.0
C4 C 1.00907 0.28956 0.32377 0.0
C5 C 0.03541 0.27627 0.32806 0.0
O6 O 0.12177 0.29344 0.30999 0.0
C7 C 0.07469 0.20497 0.30785 0.0
O8 O 0.06115 0.22862 0.30111 0.0
H9 H 0.05451 0.30881 0.30226 0.0
H10 H 0.0385 0.26107 0.33637 0.0
N11 N 0.10939 0.27027 0.33658 0.0
N12 N 0.13825 0.26915 0.35333 0.0
C13 C 0.13403 0.25669 0.34178 0.0
C14 C 0.09775 0.29187 0.34513 0.0
C15 C 0.11533 0.29114 0.35544 0.0
C16 C 0.12022 0.29697 0.29835 0.0
O17 O 0.10074 0.27847 0.29213 0.0
H18 H 0.14918 0.23929 0.337 0.0
H19 H 0.0783 0.30799 0.34383 0.0
O20 O 0.09245 0.21527 0.31625 0.0
H21 H 0.98776 0.28717 0.32827 0.0
H22 H 0.1117 0.30609 0.3638 0.0
Cu23 Cu 0.21779 0.94605 0.71328 0.0
N24 N 0.1776 0.9455 0.71747 0.0
N25 N 0.12837 0.95281 0.71714 0.0
C26 C 0.15416 0.9569 0.7109 0.0
C27 C 0.13609 0.93816 0.72799 0.0
C28 C 0.16633 0.9338 0.72817 0.0
O29 O 0.22209 0.92831 0.69645 0.0
C30 C 0.25942 1.00332 0.71487 0.0
O31 O 0.27843 0.98152 0.70979 0.0
H32 H 0.15611 0.96846 0.70184 0.0
H33 H 0.17926 0.92291 0.73561 0.0
N34 N 0.23727 0.91482 0.72378 0.0
N35 N 0.27057 0.89083 0.73644 0.0
C36 C 0.26157 0.92046 0.73069 0.0
C37 C 0.23051 0.88064 0.72526 0.0
C38 C 0.25094 0.86577 0.73307 0.0
C39 C 0.24484 0.91075 0.69315 0.0
O40 O 0.26748 0.90862 0.70069 0.0
H41 H 0.27291 0.94547 0.73121 0.0
H42 H 0.21222 0.86738 0.72081 0.0
O43 O 0.23264 0.99356 0.71631 0.0
H44 H 0.12097 0.93071 0.73528 0.0
H45 H 0.25125 0.83859 0.736 0.0
Cu46 Cu 0.92144 0.79443 0.30632 0.0
N47 N 0.95688 0.77048 0.30333 0.0
N48 N 0.99219 0.7392 0.29387 0.0
C49 C 0.96388 0.75068 0.29344 0.0
C50 C 1.00327 0.75218 0.3045 0.0
C51 C 0.98146 0.77145 0.31029 0.0
O52 O 0.89217 0.77628 0.29471 0.0
C53 C 0.94928 0.85694 0.29798 0.0
O54 O 0.96217 0.83531 0.2902 0.0
H55 H 0.94883 0.74583 0.28589 0.0
H56 H 0.98346 0.78568 0.31888 0.0
N57 N 0.90871 0.78316 0.32226 0.0
N58 N 0.88425 0.78203 0.34022 0.0
C59 C 0.88844 0.79935 0.32947 0.0
C60 C 0.91765 0.7549 0.32868 0.0
C61 C 0.90272 0.75415 0.33972 0.0
C62 C 0.89225 0.78198 0.28316 0.0
O63 O 0.91119 0.80466 0.27855 0.0
H64 H 0.87649 0.82274 0.32674 0.0
H65 H 0.93371 0.73587 0.32547 0.0
O66 O 0.92955 0.84498 0.30529 0.0
H67 H 0.02557 0.74817 0.30785 0.0
H68 H 0.90536 0.73454 0.34684 0.0
Cu69 Cu 0.75721 0.09612 0.70799 0.0
N70 N 0.7841 0.07081 0.69826 0.0
N71 N 0.82753 0.04637 0.69313 0.0
C72 C 0.81209 0.06413 0.70179 0.0
C73 C 0.80845 0.042 0.68368 0.0
C74 C 0.78163 0.05711 0.68688 0.0
O75 O 0.76311 0.14611 0.70423 0.0
C76 C 0.76185 0.04765 0.7264 0.0
O77 O 0.76196 0.02779 0.71649 0.0
H78 H 0.82102 0.07274 0.71053 0.0
H79 H 0.76191 0.05824 0.68126 0.0
N80 N 0.71719 0.08562 0.70554 0.0
N81 N 0.6696 0.08467 0.71127 0.0
C82 C 0.69763 0.09202 0.7146 0.0
C83 C 0.701 0.07348 0.69602 0.0
C84 C 0.67142 0.07321 0.69952 0.0
C85 C 0.75317 0.15562 0.69375 0.0
O86 O 0.74014 0.13197 0.68679 0.0
H87 H 0.70387 0.10315 0.7234 0.0
H88 H 0.70984 0.06616 0.68713 0.0
O89 O 0.76228 0.08105 0.72508 0.0
H90 H 0.81338 0.02859 0.67512 0.0
H91 H 0.65279 0.06543 0.69388 0.0
Cu92 Cu 0.1144 0.29784 0.97484 0.0
N93 N 0.07802 0.27599 0.97794 0.0
N94 N 0.04193 0.24718 0.98787 0.0
C95 C 0.07037 0.25833 0.98821 0.0
C96 C 0.03136 0.25841 0.97694 0.0
C97 C 0.05363 0.27623 0.97086 0.0
O98 O 0.14193 0.27953 0.98712 0.0
C99 C 0.09352 0.36171 0.98492 0.0
O100 O 0.08652 0.34137 0.99425 0.0
H101 H 0.08515 0.25471 0.99593 0.0
H102 H 0.05211 0.28879 0.96196 0.0
N103 N 0.12754 0.28565 0.95895 0.0
N104 N 0.15428 0.2811 0.9416 0.0
C105 C 0.15082 0.29826 0.95245 0.0
C106 C 0.1159 0.25996 0.95192 0.0
C107 C 0.13226 0.25707 0.94128 0.0
C108 C 0.14732 0.24665 0.98648 0.0
O109 O 0.1357 0.22858 0.97736 0.0
H110 H 0.1654 0.31881 0.95576 0.0
H111 H 0.09712 0.24386 0.95449 0.0
O112 O 0.10758 0.34845 0.97584 0.0
H113 H 1.00914 0.25406 0.97353 0.0
H114 H 0.12825 0.23862 0.93386 0.0
Cu115 Cu 0.30464 0.94251 0.07842 0.0
N116 N 0.34484 0.94343 0.07403 0.0
N117 N 0.39352 0.95449 0.07386 0.0
C118 C 0.36751 0.95969 0.07979 0.0
C119 C 0.38688 0.93427 0.06402 0.0
C120 C 0.35695 0.92747 0.06417 0.0
O121 O 0.30006 0.92865 0.0957 0.0
C122 C 0.29192 0.99911 0.06337 0.0
O123 O 0.30868 0.98006 0.05605 0.0
H124 H 0.3649 0.97513 0.08811 0.0
H125 H 0.34479 0.912 0.05751 0.0
N126 N 0.28556 0.90831 0.06897 0.0
N127 N 0.25359 0.88223 0.05617 0.0
C128 C 0.26128 0.91243 0.06193 0.0
C129 C 0.29338 0.87436 0.06772 0.0
C130 C 0.27378 0.85822 0.0598 0.0
C131 C 0.3185 0.90697 0.10033 0.0
O132 O 0.34084 0.89608 0.09357 0.0
H133 H 0.24979 0.93722 0.0609 0.0
H134 H 0.31212 0.86227 0.07223 0.0
O135 O 0.28697 0.98795 0.07426 0.0
H136 H 0.4026 0.92457 0.05729 0.0
H137 H 0.27418 0.83084 0.05705 0.0
Cu138 Cu 0.93407 0.7663 0.96618 0.0
N139 N 0.96744 0.79517 0.96756 0.0
N140 N 1.00871 0.81921 0.97521 0.0
C141 C 0.98701 0.79521 0.97689 0.0
C142 C 1.00251 0.83487 0.96437 0.0
C143 C 0.97696 0.82006 0.9597 0.0
O144 O 0.90254 0.78967 0.97535 0.0
C145 C 0.96943 0.7068 0.96822 0.0
O146 O 0.98552 0.72592 0.96068 0.0
H147 H 0.9856 0.77748 0.98466 0.0
H148 H 0.96604 0.827 0.95119 0.0
N149 N 0.92265 0.76305 0.94966 0.0
N150 N 0.89474 0.76053 0.93265 0.0
C151 C 0.89492 0.76376 0.94507 0.0
C152 C 0.94062 0.7592 0.93987 0.0
C153 C 0.92354 0.75763 0.92939 0.0
C154 C 0.90489 0.79703 0.98674 0.0
O155 O 0.92748 0.78445 0.99293 0.0
H156 H 0.87538 0.767 0.95074 0.0
H157 H 0.96451 0.75764 0.94031 0.0
O158 O 0.94481 0.71923 0.97206 0.0
H159 H 0.01524 0.85585 0.9602 0.0
H160 H 0.93181 0.75412 0.92012 0.0
Cu161 Cu 0.76561 0.09929 0.07888 0.0
N162 N 0.73863 0.07429 0.0886 0.0
N163 N 0.69504 0.05085 0.094 0.0
C164 C 0.71006 0.06964 0.0855 0.0
C165 C 0.715 0.04365 0.1029 0.0
C166 C 0.74196 0.05811 0.09952 0.0
O167 O 0.75918 0.1492 0.08252 0.0
C168 C 0.76069 0.04954 0.06069 0.0
O169 O 0.75906 0.03029 0.0707 0.0
H170 H 0.7005 0.08022 0.07717 0.0
H171 H 0.76247 0.05688 0.10463 0.0
N172 N 0.80529 0.08998 0.08225 0.0
N173 N 0.85351 0.0944 0.07773 0.0
C174 C 0.82687 0.11041 0.07759 0.0
C175 C 0.81864 0.05986 0.0856 0.0
C176 C 0.8485 0.06254 0.08283 0.0
C177 C 0.76708 0.15743 0.09344 0.0
O178 O 0.77816 0.13263 0.10047 0.0
H179 H 0.82242 0.13496 0.07292 0.0
H180 H 0.80716 0.03655 0.08875 0.0
O181 O 0.76177 0.083 0.06183 0.0
H182 H 0.71059 0.02859 0.11114 0.0
H183 H 0.86478 0.04182 0.08372 0.0
Cu184 Cu 0.59086 0.76449 0.82334 0.0
N185 N 0.55189 0.78124 0.82328 0.0
N186 N 0.50849 0.80203 0.81654 0.0
C187 C 0.53808 0.80043 0.81458 0.0
C188 C 0.50373 0.78346 0.82695 0.0
C189 C 0.53038 0.77046 0.83098 0.0
O190 O 0.61595 0.79488 0.81318 0.0
C191 C 0.57024 0.70491 0.8102 0.0
O192 O 0.55636 0.72892 0.80374 0.0
H193 H 0.54917 0.81075 0.80652 0.0
H194 H 0.53364 0.75271 0.83862 0.0
N195 N 0.60585 0.76762 0.83941 0.0
N196 N 0.63754 0.769 0.85527 0.0
C197 C 0.63374 0.76095 0.84322 0.0
C198 C 0.59163 0.78032 0.84936 0.0
C199 C 0.61095 0.781 0.85913 0.0
C200 C 0.61541 0.79844 0.80152 0.0
O201 O 0.59766 0.77855 0.79494 0.0
H202 H 0.65113 0.75173 0.83715 0.0
H203 H 0.56903 0.78958 0.84949 0.0
O204 O 0.58841 0.71478 0.81851 0.0
H205 H 0.48238 0.77847 0.83114 0.0
H206 H 0.60577 0.79005 0.86833 0.0
Cu207 Cu 0.7362 0.44962 0.20398 0.0
N208 N 0.69649 0.4549 0.2087 0.0
N209 N 0.64774 0.46571 0.20925 0.0
C210 C 0.67218 0.46305 0.20206 0.0
C211 C 0.6571 0.45866 0.22077 0.0
C212 C 0.68702 0.4521 0.22039 0.0
O213 O 0.74054 0.42862 0.18767 0.0
C214 C 0.74583 0.52366 0.2074 0.0
O215 O 0.71758 0.52707 0.20479 0.0
H216 H 0.67251 0.46784 0.19226 0.0
H217 H 0.70107 0.44595 0.22815 0.0
N218 N 0.75302 0.41746 0.21483 0.0
N219 N 0.78329 0.39314 0.22866 0.0
C220 C 0.77754 0.4218 0.22172 0.0
C221 C 0.74294 0.38503 0.21743 0.0
C222 C 0.76152 0.36996 0.22598 0.0
C223 C 0.73067 0.43929 0.17736 0.0
O224 O 0.71636 0.4693 0.17676 0.0
H225 H 0.79058 0.44571 0.22176 0.0
H226 H 0.72341 0.37324 0.2134 0.0
O227 O 0.7579 0.49347 0.20653 0.0
H228 H 0.64332 0.45808 0.22893 0.0
H229 H 0.75935 0.34379 0.22978 0.0
Cu230 Cu 0.40817 0.29813 0.81109 0.0
N231 N 0.44286 0.27288 0.80772 0.0
N232 N 0.47645 0.24002 0.79781 0.0
C233 C 0.44816 0.25164 0.79801 0.0
C234 C 0.4893 0.25434 0.80786 0.0
C235 C 0.46857 0.27461 0.81392 0.0
O236 O 0.37803 0.28107 0.79963 0.0
C237 C 0.43747 0.35969 0.80257 0.0
O238 O 0.44966 0.33746 0.79481 0.0
H239 H 0.43171 0.24522 0.79115 0.0
H240 H 0.47217 0.2904 0.82208 0.0
N241 N 0.39583 0.28697 0.82714 0.0
N242 N 0.37103 0.28468 0.84507 0.0
C243 C 0.37406 0.30131 0.83409 0.0
C244 C 0.40675 0.26041 0.83389 0.0
C245 C 0.39164 0.25892 0.84488 0.0
C246 C 0.37952 0.28464 0.78799 0.0
O247 O 0.40019 0.30494 0.78328 0.0
H248 H 0.36071 0.3233 0.8311 0.0
H249 H 0.42412 0.24276 0.83091 0.0
O250 O 0.41763 0.34851 0.81 0.0
H251 H 0.51235 0.25159 0.8104 0.0
H252 H 0.3951 0.23949 0.85199 0.0
Cu253 Cu 0.26814 0.58844 0.20545 0.0
N254 N 0.2966 0.56241 0.1968 0.0
N255 N 0.34139 0.54219 0.19144 0.0
C256 C 0.326 0.56447 0.19874 0.0
C257 C 0.32075 0.52595 0.18444 0.0
C258 C 0.29315 0.53853 0.18776 0.0
O259 O 0.27269 0.63748 0.20033 0.0
C260 C 0.28031 0.54969 0.22703 0.0
O261 O 0.29632 0.53018 0.2196 0.0
H262 H 0.33577 0.58187 0.2055 0.0
H263 H 0.2721 0.53061 0.18391 0.0
N264 N 0.22929 0.57512 0.20205 0.0
N265 N 0.18092 0.57664 0.20656 0.0
C266 C 0.20638 0.59511 0.20573 0.0
C267 C 0.21804 0.54268 0.20037 0.0
C268 C 0.18811 0.54358 0.20308 0.0
C269 C 0.26407 0.64349 0.18935 0.0
O270 O 0.25298 0.61725 0.18295 0.0
H271 H 0.20923 0.62155 0.20926 0.0
H272 H 0.2311 0.51934 0.19866 0.0
O273 O 0.27009 0.5789 0.22312 0.0
H274 H 0.32514 0.50579 0.17764 0.0
H275 H 0.17342 0.52109 0.20342 0.0
Cu276 Cu 0.62637 0.80396 0.46871 0.0
N277 N 0.58839 0.78502 0.46775 0.0
N278 N 0.544 0.76483 0.47346 0.0
C279 C 0.57167 0.77329 0.47715 0.0
C280 C 0.54338 0.77157 0.46126 0.0
C281 C 0.57076 0.78415 0.45778 0.0
O282 O 0.64648 0.78116 0.48256 0.0
C283 C 0.61387 0.87538 0.46274 0.0
O284 O 0.61741 0.86495 0.4513 0.0
H285 H 0.57927 0.77252 0.48659 0.0
H286 H 0.57714 0.79302 0.4487 0.0
N287 N 0.64601 0.79348 0.45384 0.0
N288 N 0.67419 0.79386 0.43681 0.0
C289 C 0.66735 0.81068 0.44747 0.0
C290 C 0.63968 0.7648 0.44707 0.0
C291 C 0.65685 0.76494 0.43664 0.0
C292 C 0.64709 0.74761 0.48277 0.0
O293 O 0.63507 0.73025 0.47358 0.0
H294 H 0.67713 0.83528 0.45043 0.0
H295 H 0.62345 0.74508 0.44952 0.0
O296 O 0.61924 0.85405 0.47149 0.0
H297 H 0.5244 0.76816 0.45531 0.0
H298 H 0.65676 0.74495 0.42953 0.0
Cu299 Cu 0.78097 0.44826 0.5838 0.0
N300 N 0.82099 0.44394 0.57954 0.0
N301 N 0.86899 0.45566 0.57656 0.0
C302 C 0.84292 0.46766 0.58104 0.0
C303 C 0.86314 0.42332 0.57204 0.0
C304 C 0.83358 0.41618 0.57389 0.0
O305 O 0.77501 0.4385 0.60138 0.0
C306 C 0.77271 0.50221 0.56693 0.0
O307 O 0.78973 0.4809 0.56053 0.0
H308 H 0.83971 0.49324 0.58522 0.0
H309 H 0.82204 0.3924 0.57127 0.0
N310 N 0.76019 0.41283 0.57568 0.0
N311 N 0.72881 0.38437 0.5633 0.0
C312 C 0.74047 0.41586 0.56646 0.0
C313 C 0.761 0.3784 0.57846 0.0
C314 C 0.74172 0.36074 0.57083 0.0
C315 C 0.79607 0.43312 0.60897 0.0
O316 O 0.82344 0.43954 0.60554 0.0
H317 H 0.73421 0.44072 0.56239 0.0
H318 H 0.77456 0.36704 0.58563 0.0
O319 O 0.76592 0.49363 0.57794 0.0
H320 H 0.87918 0.40582 0.56786 0.0
H321 H 0.73765 0.33268 0.57082 0.0
Cu322 Cu 0.41819 0.25624 0.47296 0.0
N323 N 0.45554 0.27684 0.47207 0.0
N324 N 0.49894 0.29945 0.47802 0.0
C325 C 0.47223 0.28711 0.48167 0.0
C326 C 0.49889 0.29671 0.46562 0.0
C327 C 0.47215 0.28264 0.46199 0.0
O328 O 0.39902 0.27706 0.48743 0.0
C329 C 0.43052 0.18537 0.46574 0.0
O330 O 0.42581 0.19663 0.4545 0.0
H331 H 0.46515 0.28448 0.49114 0.0
H332 H 0.46539 0.27663 0.45267 0.0
N333 N 0.39752 0.26877 0.45862 0.0
N334 N 0.36603 0.27256 0.44276 0.0
C335 C 0.37608 0.25225 0.45211 0.0
C336 C 0.40098 0.30027 0.45319 0.0
C337 C 0.38184 0.30264 0.44344 0.0
C338 C 0.37226 0.28771 0.48759 0.0
O339 O 0.35528 0.2815 0.47803 0.0
H340 H 0.36745 0.2265 0.45439 0.0
H341 H 0.41617 0.32045 0.45627 0.0
O342 O 0.42613 0.20602 0.47481 0.0
H343 H 0.51686 0.30424 0.45956 0.0
H344 H 0.37977 0.3249 0.43731 0.0
Cu345 Cu 0.24416 0.62445 0.57181 0.0
N346 N 0.20559 0.61649 0.56624 0.0
N347 N 0.15736 0.60334 0.56523 0.0
C348 C 0.18116 0.60741 0.57266 0.0
C349 C 0.1674 0.61004 0.55375 0.0
C350 C 0.19705 0.61807 0.55441 0.0
O351 O 0.24441 0.64463 0.5884 0.0
C352 C 0.25584 0.55074 0.56939 0.0
O353 O 0.22791 0.54688 0.57253 0.0
H354 H 0.18092 0.60392 0.58254 0.0
H355 H 0.21157 0.62421 0.54678 0.0
N356 N 0.26124 0.65765 0.56142 0.0
N357 N 0.29341 0.68352 0.54869 0.0
C358 C 0.28822 0.65587 0.55618 0.0
C359 C 0.2489 0.6874 0.55715 0.0
C360 C 0.26869 0.70343 0.54928 0.0
C361 C 0.22642 0.66968 0.59071 0.0
O362 O 0.20728 0.67882 0.58221 0.0
H363 H 0.30338 0.6342 0.55759 0.0
H364 H 0.22687 0.6965 0.55944 0.0
O365 O 0.26731 0.58139 0.56964 0.0
H366 H 0.15447 0.60836 0.54539 0.0
H367 H 0.26514 0.72786 0.5444 0.0
H368 H 0.16516 0.33719 0.30797 0.0
H369 H 0.19372 0.38332 0.29765 0.0
H370 H 0.14472 0.36501 0.26421 0.0
H371 H 0.11663 0.31831 0.27435 0.0
H372 H 0.20248 0.37119 0.25957 0.0
H373 H 0.16759 0.48205 0.28945 0.0
H374 H 0.18426 0.44651 0.29778 0.0
H375 H 0.14973 0.43957 0.2899 0.0
C376 C 0.16048 0.34293 0.29841 0.0
C377 C 0.13852 0.32402 0.29201 0.0
C378 C 0.17665 0.3696 0.29255 0.0
C379 C 0.17097 0.37827 0.28021 0.0
C380 C 0.14941 0.35902 0.27375 0.0
H381 H 0.22524 0.55979 0.23712 0.0
H382 H 0.19958 0.51974 0.25124 0.0
C383 C 0.13337 0.33223 0.27957 0.0
C384 C 0.18804 0.40655 0.27386 0.0
H385 H 0.20615 0.49397 0.27507 0.0
C386 C 0.20324 0.39802 0.26297 0.0
C387 C 0.18873 0.44176 0.27818 0.0
C388 C 0.17148 0.45319 0.2894 0.0
C389 C 0.21921 0.42347 0.25634 0.0
C390 C 0.22081 0.4584 0.26089 0.0
C391 C 0.20534 0.46712 0.2717 0.0
C392 C 0.23764 0.48622 0.25422 0.0
C393 C 0.23356 0.41281 0.24433 0.0
C394 C 0.26798 0.48195 0.25177 0.0
C395 C 0.28262 0.50465 0.24367 0.0
C396 C 0.26737 0.53253 0.23804 0.0
C397 C 0.23771 0.53879 0.2414 0.0
C398 C 0.22295 0.51574 0.24941 0.0
H399 H 0.22371 0.38826 0.24057 0.0
H400 H 0.23135 0.43388 0.23733 0.0
H401 H 0.2575 0.40796 0.24588 0.0
H402 H 0.27999 0.45994 0.25563 0.0
H403 H 0.30549 0.49923 0.24128 0.0
H404 H 0.45129 0.78075 0.81453 0.0
H405 H 0.41389 0.80324 0.80053 0.0
H406 H 0.47702 0.8772 0.78574 0.0
H407 H 0.51488 0.8549 0.79989 0.0
H408 H 0.39143 0.87157 0.79817 0.0
H409 H 0.4457 0.82507 0.75507 0.0
H410 H 0.45668 0.80963 0.77008 0.0
H411 H 0.46775 0.85255 0.76495 0.0
C412 C 0.4573 0.80211 0.80845 0.0
C413 C 0.48619 0.81607 0.8084 0.0
C414 C 0.43584 0.81482 0.80039 0.0
C415 C 0.44272 0.84165 0.79203 0.0
C416 C 0.47138 0.85606 0.79199 0.0
H417 H 0.29921 0.94115 0.74973 0.0
H418 H 0.34274 0.93312 0.76282 0.0
C419 C 0.49298 0.84329 0.80008 0.0
C420 C 0.4196 0.85404 0.78338 0.0
H421 H 0.3999 0.85404 0.75304 0.0
C422 C 0.39336 0.86812 0.78828 0.0
C423 C 0.42214 0.84915 0.77051 0.0
C424 C 0.44945 0.83305 0.76479 0.0
C425 C 0.36927 0.87666 0.7807 0.0
C426 C 0.3717 0.87148 0.76784 0.0
C427 C 0.3982 0.85816 0.7629 0.0
C428 C 0.34622 0.87715 0.75948 0.0
C429 C 0.34099 0.88969 0.78657 0.0
C430 C 0.33422 0.84855 0.75301 0.0
C431 C 0.30955 0.85309 0.74544 0.0
C432 C 0.29635 0.88639 0.74414 0.0
C433 C 0.30882 0.91517 0.75046 0.0
C434 C 0.33356 0.91059 0.75804 0.0
H435 H 0.34073 0.88534 0.79668 0.0
H436 H 0.33876 0.91835 0.78489 0.0
H437 H 0.32143 0.87635 0.78249 0.0
H438 H 0.34376 0.82254 0.75394 0.0
H439 H 0.301 0.83046 0.74055 0.0
H440 H 0.79969 0.52175 0.21899 0.0
H441 H 0.82332 0.56868 0.23084 0.0
H442 H 0.75316 0.63985 0.22072 0.0
H443 H 0.72889 0.59271 0.20914 0.0
H444 H 0.84514 0.6324 0.22553 0.0
H445 H 0.75038 0.64743 0.25765 0.0
H446 H 0.75284 0.61164 0.24678 0.0
H447 H 0.74052 0.65437 0.24185 0.0
C448 C 0.78938 0.54746 0.21917 0.0
C449 C 0.76221 0.55333 0.21318 0.0
C450 C 0.80292 0.57431 0.22599 0.0
C451 C 0.78969 0.60765 0.22695 0.0
C452 C 0.76338 0.6141 0.22044 0.0
H453 H 0.88421 0.78899 0.25827 0.0
H454 H 0.85837 0.74866 0.24436 0.0
C455 C 0.74965 0.58717 0.21372 0.0
C456 C 0.80321 0.63525 0.23494 0.0
H457 H 0.78935 0.68883 0.25962 0.0
C458 C 0.83292 0.64477 0.23297 0.0
C459 C 0.78746 0.65102 0.24482 0.0
C460 C 0.75614 0.64039 0.24801 0.0
C461 C 0.84727 0.66956 0.24053 0.0
C462 C 0.83124 0.68611 0.25016 0.0
C463 C 0.80155 0.67653 0.25215 0.0
C464 C 0.84523 0.71216 0.25864 0.0
C465 C 0.87975 0.67682 0.23836 0.0
C466 C 0.84523 0.70615 0.2714 0.0
C467 C 0.85951 0.72952 0.27941 0.0
C468 C 0.87423 0.75944 0.27484 0.0
C469 C 0.87331 0.76608 0.2621 0.0
C470 C 0.85877 0.74284 0.25411 0.0
H471 H 0.8905 0.65531 0.23306 0.0
H472 H 0.88213 0.70143 0.23298 0.0
H473 H 0.89175 0.68015 0.2472 0.0
H474 H 0.83479 0.68283 0.27515 0.0
H475 H 0.85977 0.7235 0.28915 0.0
H476 H 0.52536 0.19913 0.80019 0.0
H477 H 0.55136 0.16726 0.78387 0.0
H478 H 0.48565 0.20067 0.75765 0.0
H479 H 0.45999 0.23352 0.77381 0.0
H480 H 0.53165 0.11302 0.76776 0.0
H481 H 0.56419 0.23407 0.74234 0.0
H482 H 0.55044 0.23533 0.75794 0.0
H483 H 0.52527 0.22894 0.74535 0.0
C484 C 0.51649 0.19991 0.79095 0.0
C485 C 0.49069 0.21925 0.78834 0.0
C486 C 0.53126 0.18143 0.78165 0.0
C487 C 0.52067 0.18198 0.76952 0.0
C488 C 0.49446 0.20032 0.76691 0.0
H489 H 0.61568 0.10749 0.70368 0.0
H490 H 0.57459 0.12672 0.71697 0.0
C491 C 0.47964 0.21882 0.77622 0.0
C492 C 0.53764 0.16411 0.7596 0.0
H493 H 0.57956 0.18002 0.73399 0.0
C494 C 0.54195 0.12761 0.76031 0.0
C495 C 0.5509 0.18316 0.74985 0.0
C496 C 0.54775 0.22257 0.74881 0.0
C497 C 0.55962 0.10972 0.75168 0.0
C498 C 0.5738 0.12897 0.7422 0.0
C499 C 0.5686 0.16527 0.74122 0.0
C500 C 0.59646 0.11288 0.73401 0.0
C501 C 0.5631 0.0704 0.75284 0.0
C502 C 0.62215 0.09829 0.73914 0.0
C503 C 0.64543 0.08733 0.73159 0.0
C504 C 0.6437 0.09093 0.71874 0.0
C505 C 0.61749 0.10412 0.71354 0.0
C506 C 0.59412 0.11528 0.72113 0.0
H507 H 0.54369 0.05841 0.75754 0.0
H508 H 0.5659 0.05774 0.74369 0.0
H509 H 0.58301 0.06463 0.75846 0.0
H510 H 0.62479 0.0968 0.74903 0.0
H511 H 0.66527 0.07698 0.73585 0.0
H512 H 0.24781 0.04002 0.07376 0.0
H513 H 0.2226 0.09055 0.06429 0.0
H514 H 0.27898 0.08123 0.03237 0.0
H515 H 0.30429 0.03159 0.04172 0.0
H516 H 0.2705 0.15099 0.03978 0.0
H517 H 0.16372 0.07834 0.03574 0.0
H518 H 0.17917 0.08233 0.05092 0.0
H519 H 0.19799 0.0565 0.03948 0.0
C520 C 0.255 0.04904 0.06479 0.0
C521 C 0.2779 0.03153 0.05846 0.0
C522 C 0.24048 0.07778 0.05936 0.0
C523 C 0.24865 0.08941 0.04754 0.0
C524 C 0.27224 0.07277 0.04147 0.0
H525 H 0.16482 0.17831 0.98617 0.0
H526 H 0.18861 0.14491 1.00246 0.0
C527 C 0.28662 0.04419 0.04684 0.0
C528 C 0.23208 0.11759 0.04101 0.0
H529 H 0.16658 0.13365 0.02635 0.0
C530 C 0.2476 0.14757 0.03702 0.0
C531 C 0.20228 0.11289 0.03732 0.0
C532 C 0.18474 0.08073 0.04098 0.0
C533 C 0.23455 0.1722 0.02903 0.0
C534 C 0.20507 0.16688 0.02504 0.0
C535 C 0.18915 0.13773 0.02946 0.0
C536 C 0.19148 0.18862 1.01517 0.0
C537 C 0.25289 0.20259 0.02438 0.0
C538 C 0.18538 0.2246 1.01682 0.0
C539 C 0.17174 0.24404 1.00741 0.0
C540 C 0.16389 0.22771 0.99624 0.0
C541 C 0.17047 0.19182 0.99463 0.0
C542 C 0.18402 0.17257 1.00397 0.0
H543 H 0.27664 0.19998 0.02688 0.0
H544 H 0.25114 0.20467 1.01421 0.0
H545 H 0.2444 0.22746 0.02841 0.0
H546 H 0.19062 0.23746 0.02545 0.0
H547 H 0.16677 0.27156 1.00898 0.0
H548 H 0.25043 0.8349 0.03753 0.0
H549 H 0.20894 0.82544 0.02348 0.0
H550 H 0.15956 0.90715 0.04192 0.0
H551 H 0.20111 0.91695 0.05594 0.0
H552 H 0.15271 0.80517 0.02828 0.0
H553 H 0.15222 0.9367 1.00631 0.0
H554 H 0.18242 0.92167 1.01579 0.0
H555 H 0.14913 0.93852 0.02277 0.0
C556 C 0.23073 0.85081 0.03862 0.0
C557 C 0.22915 0.87678 0.04784 0.0
C558 C 0.20706 0.84547 0.03055 0.0
C559 C 0.1813 0.86596 0.03151 0.0
C560 C 0.17949 0.89165 0.04079 0.0
H561 H 1.0102 0.81131 0.99999 0.0
H562 H 0.05214 0.82256 1.01364 0.0
C563 C 0.20325 0.89718 0.04882 0.0
C564 C 0.15606 0.85964 0.02303 0.0
H565 H 0.11107 0.89948 1.002 0.0
C566 C 0.14367 0.82577 0.0225 0.0
C567 C 0.14452 0.88639 1.01536 0.0
C568 C 0.15792 0.92277 1.01497 0.0
C569 C 0.11984 0.81802 1.01465 0.0
C570 C 0.10761 0.8451 1.00733 0.0
C571 C 0.12026 0.87884 1.00772 0.0
C572 C 0.08192 0.83883 0.99908 0.0
C573 C 0.10841 0.78072 1.01412 0.0
C574 C 0.08437 0.84529 0.9864 0.0
C575 C 0.06032 0.83912 0.97858 0.0
C576 C 0.03334 0.82634 0.98329 0.0
C577 C 0.03084 0.82043 0.99603 0.0
C578 C 0.05482 0.82683 1.00385 0.0
H579 H 0.12515 0.76163 1.01749 0.0
H580 H 0.08851 0.77839 0.02007 0.0
H581 H 0.10209 0.7733 1.00459 0.0
H582 H 0.10504 0.85469 0.98252 0.0
H583 H 0.06305 0.8437 0.96881 0.0
H584 H 0.86433 0.84004 0.97545 0.0
H585 H 0.83639 0.88858 0.98472 0.0
H586 H 0.87225 0.86255 0.02032 0.0
H587 H 0.90082 0.8147 1.01109 0.0
H588 H 0.79444 0.89341 1.00216 0.0
H589 H 0.89391 0.96502 1.01799 0.0
H590 H 0.89606 0.92808 1.00757 0.0
H591 H 0.89308 0.92107 0.02393 0.0
C592 C 0.86612 0.84448 0.98528 0.0
C593 C 0.88507 0.82363 0.99251 0.0
C594 C 0.85018 0.87235 0.99056 0.0
C595 C 0.85282 0.87993 1.00317 0.0
C596 C 0.87057 0.85803 1.0105 0.0
H597 H 0.74366 0.98371 0.05457 0.0
H598 H 0.76349 0.94706 0.03818 0.0
C599 C 0.88669 0.8304 1.00522 0.0
C600 C 0.83708 0.9106 1.00873 0.0
H601 H 0.84779 0.98196 0.02737 0.0
C602 C 0.80616 0.91303 1.00754 0.0
C603 C 0.85232 0.93698 1.01544 0.0
C604 C 0.8857 0.93792 1.01619 0.0
C605 C 0.78998 0.93975 1.0135 0.0
C606 C 0.80501 0.96425 0.02111 0.0
C607 C 0.83609 0.96307 0.02167 0.0
C608 C 0.78905 0.98861 0.02962 0.0
C609 C 0.7569 0.94119 1.01165 0.0
C610 C 0.79645 1.02459 0.03032 0.0
C611 C 0.78515 0.04579 0.03985 0.0
C612 C 0.76656 0.03118 0.04889 0.0
C613 C 0.75785 0.99581 0.04771 0.0
C614 C 0.76905 0.97478 0.03825 0.0
H615 H 0.75075 0.93116 1.00238 0.0
H616 H 0.7459 0.92409 1.01855 0.0
H617 H 0.74825 0.96837 1.01268 0.0
H618 H 0.812 0.03587 0.02382 0.0
H619 H 0.79258 0.07281 0.04061 0.0
H620 H 0.89366 0.05435 0.06538 0.0
H621 H 0.93255 0.07565 0.05149 0.0
H622 H 0.90954 0.18272 0.06053 0.0
H623 H 0.87129 0.16158 0.07463 0.0
H624 H 0.92194 0.11547 0.03107 0.0
H625 H 0.99924 0.18651 0.06179 0.0
H626 H 0.97205 0.15568 0.06752 0.0
H627 H 0.96156 0.20019 0.06397 0.0
C628 C 0.89752 0.08237 0.06471 0.0
C629 C 0.87937 0.10631 0.07111 0.0
C630 C 0.9196 0.09453 0.05669 0.0
C631 C 0.92417 0.13079 0.05503 0.0
C632 C 0.90688 0.15465 0.06181 0.0
H633 H 0.98248 0.24648 0.99181 0.0
H634 H 0.9557 0.21526 1.00798 0.0
C635 C 0.88482 0.14254 0.06979 0.0
C636 C 0.94477 0.14389 0.04538 0.0
H637 H 1.00166 0.20145 0.04029 0.0
C638 C 0.93964 0.13389 0.03312 0.0
C639 C 0.96806 0.16766 0.04803 0.0
C640 C 0.97578 0.17787 0.06106 0.0
C641 C 0.95633 0.14815 0.0234 0.0
C642 C 0.97841 0.17353 0.02599 0.0
C643 C 0.98445 0.18235 0.03829 0.0
C644 C 0.99483 0.19199 1.01605 0.0
C645 C 0.95004 0.13598 1.01044 0.0
C646 C 0.02583 0.18996 1.01535 0.0
C647 C 0.04127 0.20784 1.00608 0.0
C648 C 0.02602 0.22835 0.99736 0.0
C649 C 0.99495 0.23047 0.99818 0.0
C650 C 0.97956 0.2126 1.00744 0.0
H651 H 0.93913 0.10976 1.01033 0.0
H652 H 0.93487 0.15498 1.00595 0.0
H653 H 0.97072 0.13451 1.0049 0.0
H654 H 0.03807 0.1743 0.02192 0.0
H655 H 0.06512 0.20528 1.00568 0.0
H656 H 0.65013 0.84861 0.81261 0.0
H657 H 0.67688 0.89715 0.80283 0.0
H658 H 0.64812 0.86081 0.76717 0.0
H659 H 0.62082 0.81268 0.77688 0.0
H660 H 0.72182 0.89865 0.78643 0.0
H661 H 0.62382 0.96299 0.76596 0.0
H662 H 0.62068 0.92866 0.77735 0.0
H663 H 0.62673 0.91776 0.7614 0.0
C664 C 0.64947 0.8509 0.80268 0.0
C665 C 0.6331 0.82678 0.79555 0.0
C666 C 0.66478 0.87874 0.7971 0.0
C667 C 0.66403 0.8832 0.78427 0.0
C668 C 0.64839 0.85859 0.77711 0.0
H669 H 0.77883 0.98282 0.73358 0.0
H670 H 0.75703 0.94732 0.74987 0.0
C671 C 0.63297 0.83084 0.78268 0.0
C672 C 0.68003 0.91307 0.77833 0.0
H673 H 0.6711 0.9804 0.75787 0.0
C674 C 0.71064 0.91678 0.7803 0.0
C675 C 0.66545 0.93744 0.77058 0.0
C676 C 0.63231 0.9368 0.7688 0.0
C677 C 0.72725 0.94285 0.77421 0.0
C678 C 0.71303 0.96545 0.76572 0.0
C679 C 0.68217 0.96298 0.76428 0.0
C680 C 0.72989 0.98921 0.75732 0.0
C681 C 0.75995 0.94569 0.77688 0.0
C682 C 0.72232 1.02497 0.75608 0.0
C683 C 0.73491 0.04552 0.74668 0.0
C684 C 0.75495 0.03042 0.73828 0.0
C685 C 0.76367 0.99528 0.73999 0.0
C686 C 0.75127 0.97492 0.74936 0.0
H687 H 0.765 0.93678 0.78638 0.0
H688 H 0.77233 0.92842 0.77043 0.0
H689 H 0.76808 0.97308 0.77576 0.0
H690 H 0.7057 0.03655 0.76204 0.0
H691 H 0.72732 0.0723 0.74544 0.0
H692 H 0.95598 0.28659 0.31162 0.0
H693 H 0.91913 0.30755 0.29704 0.0
H694 H 0.98477 0.37403 0.27995 0.0
H695 H 0.022 0.35318 0.29462 0.0
H696 H 0.899 0.37559 0.29264 0.0
H697 H 0.95142 0.31798 0.25084 0.0
H698 H 0.96228 0.30556 0.26621 0.0
H699 H 0.97464 0.34658 0.25981 0.0
C700 C 0.96264 0.30597 0.30488 0.0
C701 C 0.99206 0.31819 0.30432 0.0
C702 C 0.94152 0.31779 0.29649 0.0
C703 C 0.94927 0.342 0.28731 0.0
C704 C 0.97845 0.35478 0.28681 0.0
H705 H 0.83761 0.42394 0.22787 0.0
H706 H 0.87864 0.41497 0.24227 0.0
C707 C 0.99969 0.34288 0.29521 0.0
C708 C 0.92653 0.35367 0.27836 0.0
H709 H 0.90743 0.3503 0.24795 0.0
C710 C 0.90091 0.37022 0.28286 0.0
C711 C 0.92911 0.34673 0.26559 0.0
C712 C 0.9557 0.32799 0.26028 0.0
C713 C 0.87763 0.37963 0.27498 0.0
C714 C 0.87985 0.37181 0.26228 0.0
C715 C 0.90581 0.35621 0.2577 0.0
C716 C 0.85485 0.37798 0.25372 0.0
C717 C 0.85082 0.39783 0.28032 0.0
C718 C 0.82801 0.35991 0.25533 0.0
C719 C 0.80456 0.365 0.24716 0.0
C720 C 0.80747 0.38822 0.23716 0.0
C721 C 0.83447 0.40625 0.23556 0.0
C722 C 0.85799 0.40101 0.24373 0.0
H723 H 0.85589 0.41051 0.28929 0.0
H724 H 0.84223 0.41813 0.27391 0.0
H725 H 0.83304 0.37814 0.28187 0.0
H726 H 0.82528 0.34158 0.26288 0.0
H727 H 0.78405 0.35093 0.24874 0.0
H728 H 0.22668 0.05279 0.72731 0.0
H729 H 0.2449 0.1042 0.73855 0.0
H730 H 0.33401 0.08104 0.72672 0.0
H731 H 0.31606 0.02932 0.71556 0.0
H732 H 0.32972 0.0917 0.75175 0.0
H733 H 0.2741 0.20023 0.72679 0.0
H734 H 0.24939 0.16619 0.73192 0.0
H735 H 0.27714 0.15632 0.72054 0.0
C736 C 0.25011 0.05889 0.72692 0.0
C737 C 0.26988 0.03683 0.7205 0.0
C738 C 0.26048 0.08846 0.73333 0.0
C739 C 0.29081 0.09677 0.73339 0.0
C740 C 0.3105 0.07526 0.72677 0.0
H741 H 0.3803 0.28159 0.76277 0.0
H742 H 0.35737 0.23709 0.74955 0.0
C743 C 0.30016 0.04571 0.72035 0.0
C744 C 0.30229 0.12635 0.74105 0.0
H745 H 0.29743 0.21519 0.74575 0.0
C746 C 0.32271 0.11871 0.75041 0.0
C747 C 0.29334 0.16166 0.73924 0.0
C748 C 0.2725 0.17176 0.72901 0.0
C749 C 0.3341 0.14522 0.75809 0.0
C750 C 0.3245 0.18038 0.75653 0.0
C751 C 0.30446 0.18818 0.74705 0.0
C752 C 0.33582 0.20939 0.76446 0.0
C753 C 0.35674 0.13546 0.7677 0.0
C754 C 0.3305 0.20936 0.77721 0.0
C755 C 0.34353 0.23483 0.78481 0.0
C756 C 0.36213 0.26094 0.77981 0.0
C757 C 0.36618 0.26189 0.76696 0.0
C758 C 0.3531 0.23643 0.75937 0.0
H759 H 0.36681 0.10932 0.76584 0.0
H760 H 0.37469 0.15542 0.76816 0.0
H761 H 0.34581 0.13433 0.77685 0.0
H762 H 0.31681 0.18911 0.78132 0.0
H763 H 0.3398 0.23331 0.79464 0.0
H764 H 0.96853 0.69374 0.27722 0.0
H765 H 0.99517 0.66012 0.26145 0.0
H766 H 0.07765 0.70555 0.27364 0.0
H767 H 0.05131 0.73915 0.28935 0.0
H768 H 0.02977 0.68314 0.24217 0.0
H769 H 0.09633 0.60101 0.27373 0.0
H770 H 0.06479 0.62624 0.2789 0.0
H771 H 0.10028 0.64712 0.27688 0.0
C772 C 0.99233 0.69662 0.27654 0.0
C773 C 1.00778 0.71898 0.28464 0.0
C774 C 1.00753 0.67728 0.26755 0.0
C775 C 0.03847 0.6798 0.26652 0.0
C776 C 0.05388 0.70243 0.27448 0.0
H777 H 0.15911 0.64274 0.20743 0.0
H778 H 0.12043 0.66466 0.22117 0.0
C779 C 0.03875 0.72166 0.28347 0.0
C780 C 0.05472 0.65969 0.25691 0.0
H781 H 0.11293 0.60362 0.25279 0.0
C782 C 0.04772 0.66539 0.24449 0.0
C783 C 0.07775 0.63601 0.25993 0.0
C784 C 0.08505 0.62691 0.27309 0.0
C785 C 0.06409 0.64937 0.23499 0.0
C786 C 0.08841 0.62756 0.23801 0.0
C787 C 0.09447 0.62057 0.25044 0.0
C788 C 0.10909 0.6135 0.22854 0.0
C789 C 0.0552 0.65609 0.22183 0.0
C790 C 0.1157 0.57741 0.22807 0.0
C791 C 0.13815 0.56486 0.22032 0.0
C792 C 0.1546 0.58824 0.21295 0.0
C793 C 0.14699 0.62412 0.21305 0.0
C794 C 0.12463 0.63663 0.22081 0.0
H795 H 0.03127 0.66261 0.22114 0.0
H796 H 0.06792 0.67888 0.21824 0.0
H797 H 0.05987 0.63295 0.21588 0.0
H798 H 0.10414 0.55909 0.23402 0.0
H799 H 0.14364 0.53718 0.22061 0.0
H800 H 0.78844 0.52899 0.54466 0.0
H801 H 0.76658 0.5781 0.53364 0.0
H802 H 0.70726 0.59737 0.56406 0.0
H803 H 0.72901 0.54741 0.57523 0.0
H804 H 0.67829 0.59597 0.54189 0.0
H805 H 0.77565 0.68328 0.53798 0.0
H806 H 0.78408 0.63965 0.53275 0.0
H807 H 0.7743 0.64691 0.54864 0.0
C808 C 0.77097 0.54381 0.54913 0.0
C809 C 0.76054 0.53418 0.56088 0.0
C810 C 0.75863 0.57219 0.54282 0.0
C811 C 0.73562 0.59197 0.54807 0.0
C812 C 0.72522 0.58273 0.55986 0.0
H813 H 0.67082 0.77322 0.50447 0.0
H814 H 0.69047 0.73886 0.5218 0.0
C815 C 0.7377 0.55423 0.56624 0.0
C816 C 0.72127 0.6204 0.54075 0.0
H817 H 0.73708 0.69195 0.52283 0.0
C818 C 0.69105 0.61732 0.53791 0.0
C819 C 0.73767 0.64872 0.53568 0.0
C820 C 0.76964 0.65509 0.53903 0.0
C821 C 0.67731 0.64035 0.52956 0.0
C822 C 0.69434 0.66684 0.5237 0.0
C823 C 0.72407 0.67136 0.52715 0.0
C824 C 0.68232 0.68818 0.51334 0.0
C825 C 0.64472 0.63569 0.52696 0.0
C826 C 0.67182 0.67126 0.50271 0.0
C827 C 0.66067 0.69071 0.49286 0.0
C828 C 0.65993 0.72772 0.49329 0.0
C829 C 0.67099 0.74479 0.50384 0.0
C830 C 0.68219 0.72518 0.51375 0.0
H831 H 0.63312 0.62321 0.53486 0.0
H832 H 0.6339 0.66126 0.52493 0.0
H833 H 0.64196 0.6182 0.51885 0.0
H834 H 0.67244 0.64285 0.50199 0.0
H835 H 0.65262 0.67656 0.48488 0.0
H836 H 0.68863 0.3314 0.5632 0.0
H837 H 0.65122 0.31941 0.54755 0.0
H838 H 0.68082 0.40955 0.52683 0.0
H839 H 0.71837 0.4218 0.54251 0.0
H840 H 0.62027 0.40639 0.52883 0.0
H841 H 0.66465 0.27768 0.51355 0.0
H842 H 0.65818 0.27955 0.52984 0.0
H843 H 0.6857 0.30773 0.52299 0.0
C844 C 0.68746 0.34844 0.55525 0.0
C845 C 0.70665 0.37742 0.55406 0.0
C846 C 0.66606 0.34153 0.5463 0.0
C847 C 0.66362 0.36318 0.53591 0.0
C848 C 0.68245 0.3924 0.53475 0.0
H849 H 0.55763 0.30213 0.47233 0.0
H850 H 0.59803 0.32088 0.48572 0.0
C851 C 0.7038 0.39944 0.54374 0.0
C852 C 0.64086 0.35575 0.52643 0.0
H853 H 0.61549 0.29163 0.5071 0.0
C854 C 0.61934 0.38143 0.52399 0.0
C855 C 0.63998 0.32339 0.51999 0.0
C856 C 0.66354 0.29564 0.52162 0.0
C857 C 0.59638 0.37517 0.51557 0.0
C858 C 0.5946 0.34208 0.50962 0.0
C859 C 0.61667 0.31685 0.51177 0.0
C860 C 0.56979 0.33274 0.50129 0.0
C861 C 0.5744 0.40416 0.51306 0.0
C862 C 0.54047 0.3331 0.5056 0.0
C863 C 0.51723 0.32279 0.49792 0.0
C864 C 0.52285 0.31141 0.4858 0.0
C865 C 0.55231 0.31115 0.48152 0.0
C866 C 0.57552 0.32165 0.4892 0.0
H867 H 0.58382 0.43044 0.51526 0.0
H868 H 0.56725 0.40401 0.50328 0.0
H869 H 0.55455 0.40026 0.51894 0.0
H870 H 0.53556 0.34083 0.51499 0.0
H871 H 0.49489 0.32372 0.50152 0.0
H872 H 0.31123 0.5512 0.55882 0.0
H873 H 0.33443 0.50424 0.54673 0.0
H874 H 0.26024 0.43616 0.55437 0.0
H875 H 0.23703 0.48269 0.56659 0.0
H876 H 0.31575 0.40129 0.55522 0.0
H877 H 0.30228 0.47928 0.51237 0.0
H878 H 0.32252 0.50089 0.52444 0.0
H879 H 0.28395 0.49084 0.52658 0.0
C880 C 0.30003 0.52606 0.55811 0.0
C881 C 0.27209 0.5209 0.56361 0.0
C882 C 0.31326 0.4993 0.55111 0.0
C883 C 0.29881 0.46688 0.54944 0.0
C884 C 0.27173 0.461 0.55547 0.0
H885 H 0.31738 0.31738 0.49002 0.0
H886 H 0.30054 0.35905 0.50567 0.0
C887 C 0.25848 0.48771 0.56246 0.0
C888 C 0.31093 0.43983 0.54087 0.0
H889 H 0.3265 0.42459 0.51052 0.0
C890 C 0.31825 0.4064 0.54545 0.0
C891 C 0.31377 0.44634 0.52809 0.0
C892 C 0.305 0.48114 0.52251 0.0
C893 C 0.32845 0.37943 0.53761 0.0
C894 C 0.33159 0.38613 0.52486 0.0
C895 C 0.32424 0.41953 0.5203 0.0
C896 C 0.3415 0.35866 0.51597 0.0
C897 C 0.33502 0.3437 0.54296 0.0
C898 C 0.37012 0.34425 0.51658 0.0
C899 C 0.37988 0.3203 0.5076 0.0
C900 C 0.36123 0.31037 0.49781 0.0
C901 C 0.33236 0.32431 0.49741 0.0
C902 C 0.32269 0.34825 0.50635 0.0
H903 H 0.32539 0.34058 0.55232 0.0
H904 H 0.32623 0.32251 0.53693 0.0
H905 H 0.35937 0.34026 0.54365 0.0
H906 H 0.38521 0.35229 0.52379 0.0
H907 H 0.40229 0.31029 0.50817 0.0
H908 H 0.48556 0.77659 0.46958 0.0
H909 H 0.4444 0.75944 0.4829 0.0
H910 H 0.50571 0.71075 0.50804 0.0
H911 H 0.5471 0.72793 0.49474 0.0
H912 H 0.42634 0.6933 0.49058 0.0
H913 H 0.45874 0.77657 0.53047 0.0
H914 H 0.47495 0.78187 0.51538 0.0
H915 H 0.48687 0.74668 0.52522 0.0
C916 C 0.49031 0.76198 0.47788 0.0
C917 C 0.51964 0.75376 0.48113 0.0
C918 C 0.46677 0.75234 0.48552 0.0
C919 C 0.47205 0.73433 0.49655 0.0
C920 C 0.50121 0.72537 0.49971 0.0
H921 H 0.34952 0.66215 0.55346 0.0
H922 H 0.39355 0.67227 0.54073 0.0
C923 C 0.52482 0.73516 0.49209 0.0
C924 C 0.44688 0.72486 0.50467 0.0
H925 H 0.41738 0.73914 0.53322 0.0
C926 C 0.42438 0.70329 0.4999 0.0
C927 C 0.44445 0.7379 0.51684 0.0
C928 C 0.46737 0.76229 0.52228 0.0
C929 C 0.39945 0.69443 0.50699 0.0
C930 C 0.39683 0.70787 0.51908 0.0
C931 C 0.41954 0.7289 0.52393 0.0
C932 C 0.37019 0.70136 0.52669 0.0
C933 C 0.37619 0.67058 0.50151 0.0
C934 C 0.34262 0.71475 0.52306 0.0
C935 C 0.31747 0.709 0.53029 0.0
C936 C 0.31943 0.68978 0.5413 0.0
C937 C 0.34719 0.67662 0.54495 0.0
C938 C 0.37237 0.68253 0.53773 0.0
H939 H 0.38487 0.65561 0.49348 0.0
H940 H 0.36779 0.65165 0.50847 0.0
H941 H 0.35723 0.68672 0.49832 0.0
H942 H 0.34059 0.72981 0.51464 0.0
H943 H 0.29644 0.71923 0.52716 0.0
H944 H 0.34961 0.20865 0.43358 0.0
H945 H 0.313 0.19767 0.41721 0.0
H946 H 0.29369 0.30861 0.41575 0.0
H947 H 0.32963 0.31962 0.43197 0.0
H948 H 0.25066 0.21508 0.41553 0.0
H949 H 0.3168 0.28395 0.38002 0.0
H950 H 0.33248 0.26947 0.39443 0.0
H951 H 0.31183 0.30989 0.39368 0.0
C952 C 0.33732 0.23057 0.42983 0.0
C953 C 0.34295 0.26509 0.43393 0.0
C954 C 0.31653 0.2243 0.42045 0.0
C955 C 0.30118 0.25246 0.41504 0.0
C956 C 0.30587 0.28661 0.41953 0.0
H957 H 0.16121 0.31455 0.36997 0.0
H958 H 0.20196 0.30402 0.3842 0.0
C959 C 0.3265 0.29286 0.42882 0.0
C960 C 0.28022 0.24695 0.40468 0.0
H961 H 0.26476 0.27707 0.37578 0.0
C962 C 0.25399 0.22789 0.40673 0.0
C963 C 0.28469 0.26351 0.39315 0.0
C964 C 0.31312 0.28255 0.39012 0.0
C965 C 0.23131 0.22705 0.39785 0.0
C966 C 0.23506 0.24563 0.38669 0.0
C967 C 0.26191 0.26298 0.38437 0.0
C968 C 0.21023 0.2509 0.37797 0.0
C969 C 0.20276 0.20807 0.40066 0.0
C970 C 0.20155 0.22454 0.36965 0.0
C971 C 0.17813 0.23053 0.36142 0.0
C972 C 0.16293 0.26287 0.36148 0.0
C973 C 0.172 0.28916 0.36981 0.0
C974 C 0.19542 0.28326 0.37791 0.0
H975 H 0.20316 0.19512 0.40982 0.0
H976 H 0.184 0.22695 0.40042 0.0
H977 H 0.19857 0.18779 0.39351 0.0
H978 H 0.21288 0.19944 0.36952 0.0
H979 H 0.17159 0.20975 0.35517 0.0
H980 H 0.18667 0.71789 0.59915 0.0
H981 H 0.19143 0.75727 0.6168 0.0
H982 H 0.2751 0.7096 0.62601 0.0
H983 H 0.27059 0.66993 0.60822 0.0
H984 H 0.19846 0.74236 0.64229 0.0
H985 H 0.29444 0.81602 0.62306 0.0
H986 H 0.27155 0.78758 0.61373 0.0
H987 H 0.29857 0.76905 0.62394 0.0
C988 C 0.20606 0.71553 0.60495 0.0
C989 C 0.22835 0.69083 0.60221 0.0
C990 C 0.20871 0.73811 0.61506 0.0
C991 C 0.23382 0.73682 0.62262 0.0
C992 C 0.25575 0.71147 0.62018 0.0
H993 H 0.28838 0.86713 0.68456 0.0
H994 H 0.2856 0.82538 0.6675 0.0
C995 C 0.25303 0.68862 0.61006 0.0
C996 C 0.23692 0.76246 0.63291 0.0
H997 H 0.2777 0.83288 0.64278 0.0
C998 C 0.2158 0.76213 0.64241 0.0
C999 C 0.25954 0.78828 0.63305 0.0
C1000 C 0.28224 0.79063 0.62287 0.0
C1001 C 0.21684 0.78665 0.65212 0.0
C1002 C 0.23918 0.81287 0.65217 0.0
C1003 C 0.26047 0.81296 0.64271 0.0
C1004 C 0.24118 0.83993 0.66209 0.0
C1005 C 0.19433 0.78372 0.66236 0.0
C1006 C 0.21749 0.86292 0.66453 0.0
C1007 C 0.21896 0.88689 0.67434 0.0
C1008 C 0.2443 0.88857 0.68185 0.0
C1009 C 0.26847 0.86657 0.67902 0.0
C1010 C 0.26693 0.84259 0.66925 0.0
H1011 H 0.18424 0.75707 0.66273 0.0
H1012 H 0.20452 0.78957 0.67143 0.0
H1013 H 0.17628 0.80296 0.66076 0.0
H1014 H 0.19767 0.86205 0.65893 0.0
H1015 H 0.19999 0.90351 0.6762 0.0
H1016 H 0.72536 0.83117 0.43955 0.0
H1017 H 0.76291 0.84248 0.42359 0.0
H1018 H 0.70852 0.7887 0.39691 0.0
H1019 H 0.6709 0.77861 0.41254 0.0
H1020 H 0.7944 0.79449 0.41106 0.0
H1021 H 0.73221 0.87353 0.37741 0.0
H1022 H 0.71896 0.86644 0.39291 0.0
H1023 H 0.71217 0.83418 0.38105 0.0
C1024 C 0.72118 0.82253 0.43021 0.0
C1025 C 0.69521 0.80374 0.42736 0.0
C1026 C 0.7427 0.82884 0.42111 0.0
C1027 C 0.73843 0.81689 0.40897 0.0
C1028 C 0.71216 0.79896 0.40609 0.0
H1029 H 0.85801 0.73612 0.35585 0.0
H1030 H 0.82491 0.74962 0.37293 0.0
C1031 C 0.69078 0.79269 0.41513 0.0
C1032 C 0.76223 0.81999 0.39949 0.0
H1033 H 0.77376 0.84015 0.36919 0.0
C1034 C 0.79004 0.80511 0.40198 0.0
C1035 C 0.75694 0.83441 0.38768 0.0
C1036 C 0.72854 0.85338 0.38466 0.0
C1037 C 0.81186 0.80216 0.39278 0.0
C1038 C 0.80551 0.81362 0.38067 0.0
C1039 C 0.7785 0.83069 0.37839 0.0
C1040 C 0.82571 0.80596 0.37013 0.0
C1041 C 0.8414 0.78632 0.39613 0.0
C1042 C 0.83635 0.83298 0.36247 0.0
C1043 C 0.85527 0.82524 0.35255 0.0
C1044 C 0.86386 0.79032 0.3501 0.0
C1045 C 0.85254 0.76337 0.35763 0.0
C1046 C 0.8336 0.77107 0.36745 0.0
H1047 H 0.84646 0.79038 0.40604 0.0
H1048 H 0.8407 0.75754 0.39442 0.0
H1049 H 0.85965 0.79781 0.39056 0.0
H1050 H 0.83032 0.86008 0.36426 0.0
H1051 H 0.86363 0.84661 0.34696 0.0
H1052 H 0.71857 0.18766 0.67687 0.0
H1053 H 0.72756 0.24296 0.66616 0.0
H1054 H 0.80546 0.26067 0.68822 0.0
H1055 H 0.79642 0.20483 0.69914 0.0
H1056 H 0.73604 0.31561 0.67516 0.0
H1057 H 0.83419 0.2585 0.6512 0.0
H1058 H 0.80687 0.23124 0.65873 0.0
H1059 H 0.83287 0.25593 0.66774 0.0
C1060 C 0.73743 0.20349 0.67959 0.0
C1061 C 0.75691 0.19173 0.6888 0.0
C1062 C 0.74248 0.23519 0.67347 0.0
C1063 C 0.76732 0.25578 0.67628 0.0
C1064 C 0.78624 0.24501 0.68584 0.0
H1065 H 0.8352 0.42127 0.6277 0.0
H1066 H 0.82862 0.38299 0.64555 0.0
C1067 C 0.78098 0.21326 0.69212 0.0
C1068 C 0.774 0.28703 0.66852 0.0
H1069 H 0.81837 0.31421 0.64486 0.0
C1070 C 0.75429 0.3156 0.66865 0.0
C1071 C 0.79775 0.28694 0.66001 0.0
C1072 C 0.81915 0.25653 0.65928 0.0
C1073 C 0.75741 0.34379 0.66035 0.0
C1074 C 0.7804 0.34296 0.65146 0.0
C1075 C 0.8007 0.31493 0.65164 0.0
C1076 C 0.78306 0.36971 0.64146 0.0
C1077 C 0.73602 0.37416 0.66123 0.0
C1078 C 0.75952 0.3756 0.63325 0.0
C1079 C 0.76315 0.39778 0.62306 0.0
C1080 C 0.79055 0.4142 0.62074 0.0
C1081 C 0.81378 0.40912 0.62918 0.0
C1082 C 0.81008 0.38712 0.6394 0.0
H1083 H 0.7269 0.37681 0.67069 0.0
H1084 H 0.74677 0.39935 0.65861 0.0
H1085 H 0.71716 0.36935 0.65491 0.0
H1086 H 0.73868 0.36187 0.63441 0.0
H1087 H 0.74488 0.40073 0.61669 0.0
H1088 H 0.17831 0.23097 0.92701 0.0
H1089 H 0.21504 0.23881 0.91075 0.0
H1090 H 0.21831 0.35005 0.91856 0.0
H1091 H 0.18178 0.34205 0.93512 0.0
H1092 H 0.21189 0.2754 0.89005 0.0
H1093 H 0.3052 0.32713 0.91794 0.0
H1094 H 0.27248 0.30824 0.92484 0.0
H1095 H 0.27184 0.35259 0.9191 0.0
C1096 C 0.18685 0.25712 0.92529 0.0
C1097 C 0.17705 0.2859 0.93236 0.0
C1098 C 0.20793 0.26159 0.91599 0.0
C1099 C 0.21977 0.29497 0.91343 0.0
C1100 C 0.2101 0.32387 0.92049 0.0
H1101 H 0.31863 0.32055 0.84355 0.0
H1102 H 0.28166 0.32813 0.85985 0.0
C1103 C 0.18915 0.31932 0.92995 0.0
C1104 C 0.24156 0.29909 0.90316 0.0
H1105 H 0.31242 0.32473 0.89641 0.0
C1106 C 0.23385 0.28633 0.89144 0.0
C1107 C 0.27032 0.31313 0.90495 0.0
C1108 C 0.28064 0.32577 0.9174 0.0
C1109 C 0.25414 0.28639 0.88159 0.0
C1110 C 0.28285 0.30062 0.88335 0.0
C1111 C 0.29037 0.3141 0.895 0.0
C1112 C 0.30616 0.29901 0.87358 0.0
C1113 C 0.24498 0.2697 0.86956 0.0
C1114 C 0.33297 0.28167 0.87596 0.0
C1115 C 0.3544 0.27791 0.86674 0.0
C1116 C 0.34964 0.29121 0.85481 0.0
C1117 C 0.3232 0.3098 0.85256 0.0
C1118 C 0.30179 0.31381 0.86186 0.0
H1119 H 0.22531 0.25238 0.87069 0.0
H1120 H 0.23911 0.29064 0.8629 0.0
H1121 H 0.26331 0.25386 0.86558 0.0
H1122 H 0.3371 0.27029 0.88493 0.0
H1123 H 0.37466 0.26427 0.86902 0.0
H1124 H 0.23675 0.66587 0.16862 0.0
H1125 H 0.24693 0.71869 0.15668 0.0
H1126 H 0.30994 0.75283 0.18396 0.0
H1127 H 0.29975 0.69947 0.19615 0.0
H1128 H 0.26639 0.8084 0.17175 0.0
H1129 H 0.3332 0.72529 0.14002 0.0
H1130 H 0.29733 0.70813 0.14406 0.0
H1131 H 0.32528 0.71258 0.1557 0.0
C1132 C 0.25253 0.68472 0.17222 0.0
C1133 C 0.26772 0.6782 0.18328 0.0
C1134 C 0.25823 0.715 0.16538 0.0
C1135 C 0.27933 0.73948 0.16938 0.0
C1136 C 0.29352 0.7342 0.18073 0.0
H1137 H 0.35987 0.87663 0.11496 0.0
H1138 H 0.35171 0.84125 0.13337 0.0
C1139 C 0.2877 0.70374 0.18767 0.0
C1140 C 0.2882 0.76846 0.16099 0.0
H1141 H 0.32099 0.78242 0.13311 0.0
C1142 C 0.27867 0.80297 0.16337 0.0
C1143 C 0.30435 0.76129 0.15012 0.0
C1144 C 0.31589 0.72489 0.14731 0.0
C1145 C 0.28416 0.83033 0.15491 0.0
C1146 C 0.29915 0.82275 0.14373 0.0
C1147 C 0.30941 0.78837 0.14162 0.0
C1148 C 0.30428 0.84946 0.13391 0.0
C1149 C 0.27396 0.86703 0.15803 0.0
C1150 C 0.28047 0.86688 0.12822 0.0
C1151 C 0.28517 0.88763 0.11771 0.0
C1152 C 0.31369 0.89074 0.11259 0.0
C1153 C 0.33759 0.87458 0.11863 0.0
C1154 C 0.33296 0.85432 0.12917 0.0
H1155 H 0.27142 0.87062 0.16813 0.0
H1156 H 0.28972 0.88709 0.15451 0.0
H1157 H 0.25204 0.87173 0.15373 0.0
H1158 H 0.25804 0.863 0.1315 0.0
H1159 H 0.26628 0.89947 0.1132 0.0
H1160 H 0.83754 0.74449 0.93847 0.0
H1161 H 0.79489 0.74445 0.92465 0.0
H1162 H 0.85141 0.77483 0.89444 0.0
H1163 H 0.89391 0.77628 0.90824 0.0
H1164 H 0.80102 0.81355 0.89519 0.0
H1165 H 0.77332 0.6718 0.89867 0.0
H1166 H 0.7748 0.69368 0.91331 0.0
H1167 H 0.80791 0.68971 0.90417 0.0
C1168 C 0.84096 0.75137 0.92891 0.0
C1169 C 0.86937 0.76023 0.92451 0.0
C1170 C 0.81654 0.75088 0.92097 0.0
C1171 C 0.82 0.75897 0.90844 0.0
C1172 C 0.84822 0.76815 0.90404 0.0
H1173 H 0.68515 0.72639 0.85146 0.0
H1174 H 0.73065 0.72395 0.86374 0.0
C1175 C 0.8726 0.76873 0.91197 0.0
C1176 C 0.79411 0.7592 0.89998 0.0
H1177 H 0.73769 0.70838 0.88878 0.0
C1178 C 0.78728 0.79048 0.89375 0.0
C1179 C 0.77643 0.72896 0.89792 0.0
C1180 C 0.7836 0.69403 0.90377 0.0
C1181 C 0.76287 0.79263 0.88579 0.0
C1182 C 0.74441 0.76286 0.88416 0.0
C1183 C 0.75168 0.73128 0.89012 0.0
C1184 C 0.71701 0.76436 0.87661 0.0
C1185 C 0.75721 0.82673 0.8791 0.0
C1186 C 0.69413 0.78758 0.87981 0.0
C1187 C 0.66827 0.78917 0.87279 0.0
C1188 C 0.6645 0.76733 0.86242 0.0
C1189 C 0.68741 0.74386 0.85927 0.0
C1190 C 0.71335 0.74227 0.86634 0.0
H1191 H 0.77759 0.84307 0.87849 0.0
H1192 H 0.74883 0.82184 0.86965 0.0
H1193 H 0.74026 0.84207 0.88421 0.0
H1194 H 0.69621 0.80445 0.88781 0.0
H1195 H 0.65138 0.80786 0.87546 0.0
H1196 H 0.73159 0.21239 0.0855 0.0
H1197 H 0.72414 0.26948 0.09593 0.0
H1198 H 0.78737 0.23962 0.1237 0.0
H1199 H 0.79497 0.18355 0.11347 0.0
H1200 H 0.70413 0.27974 0.12055 0.0
H1201 H 0.81526 0.33809 0.1144 0.0
H1202 H 0.8021 0.30194 0.10507 0.0
H1203 H 0.81742 0.29393 0.12011 0.0
C1204 C 0.74422 0.21838 0.09371 0.0
C1205 C 0.76387 0.19341 0.09864 0.0
C1206 C 0.73988 0.25089 0.09968 0.0
C1207 C 0.75555 0.25908 0.11051 0.0
C1208 C 0.77549 0.23434 0.11524 0.0
H1209 H 0.76432 0.37995 0.175 0.0
H1210 H 0.76849 0.34092 0.15721 0.0
C1211 C 0.77963 0.20206 0.10939 0.0
C1212 C 0.75012 0.29211 0.11755 0.0
H1213 H 0.78716 0.35886 0.132 0.0
C1214 C 0.72204 0.29765 0.12281 0.0
C1215 C 0.7735 0.31551 0.1205 0.0
C1216 C 0.80367 0.31229 0.11462 0.0
C1217 C 0.71735 0.32435 0.13161 0.0
C1218 C 0.74129 0.34619 0.13515 0.0
C1219 C 0.76887 0.34194 0.12936 0.0
C1220 C 0.739 0.37113 0.14568 0.0
C1221 C 0.68734 0.32767 0.13763 0.0
C1222 C 0.72134 0.40148 0.14506 0.0
C1223 C 0.71901 0.42411 0.15524 0.0
C1224 C 0.73421 0.41669 0.16625 0.0
C1225 C 0.75222 0.38651 0.16672 0.0
C1226 C 0.75467 0.36413 0.15654 0.0
H1227 H 0.67208 0.30609 0.1349 0.0
H1228 H 0.68963 0.3276 0.14781 0.0
H1229 H 0.67715 0.35309 0.13496 0.0
H1230 H 0.7093 0.40759 0.13672 0.0
H1231 H 0.70495 0.44709 0.15456 0.0
H1232 H 0.98778 0.89088 0.28265 0.0
H1233 H 1.00955 0.94919 0.28521 0.0
H1234 H 0.95848 0.96466 0.31836 0.0
H1235 H 0.93607 0.90627 0.31575 0.0
H1236 H 0.95909 1.02336 0.30383 0.0
H1237 H 0.07366 0.97449 0.30979 0.0
H1238 H 0.05702 0.95933 0.29576 0.0
H1239 H 0.04179 0.9458 0.31033 0.0
C1240 C 0.98101 0.90667 0.29047 0.0
C1241 C 0.96028 0.89371 0.29904 0.0
C1242 C 0.99372 0.93995 0.29198 0.0
C1243 C 0.9863 0.961 0.30215 0.0
C1244 C 0.96481 0.94874 0.3105 0.0
H1245 H 0.08584 0.15025 0.32378 0.0
H1246 H 0.06478 0.09069 0.32298 0.0
C1247 C 0.95194 0.91539 0.30898 0.0
C1248 C 1.00076 0.99589 0.30394 0.0
H1249 H 0.06838 0.03619 0.30614 0.0
C1250 C 0.98297 0.02612 0.30443 0.0
C1251 C 0.03193 0.99955 0.30494 0.0
C1252 C 0.05221 0.96804 0.30531 0.0
C1253 C 0.99548 0.05989 0.30546 0.0
C1254 C 0.02672 0.06367 0.30576 0.0
C1255 C 0.04448 0.03338 0.30572 0.0
C1256 C 0.04125 0.09888 0.30588 0.0
C1257 C 0.97505 0.09121 0.3063 0.0
C1258 C 0.03601 0.12282 0.29632 0.0
C1259 C 0.04795 0.15674 0.29676 0.0
C1260 C 0.06572 0.16747 0.30672 0.0
C1261 C 0.07227 0.14287 0.31598 0.0
C1262 C 0.06015 0.10885 0.31556 0.0
H1263 H 0.95267 0.08352 0.30963 0.0
H1264 H 0.98413 0.11164 0.31257 0.0
H1265 H 0.97249 0.10297 0.29702 0.0
H1266 H 0.02224 0.11546 0.28858 0.0
H1267 H 0.04267 0.17483 0.28939 0.0
H1268 H 0.85802 0.03132 0.71393 0.0
H1269 H 0.90988 1.01417 0.71557 0.0
H1270 H 0.91823 1.01642 0.67604 0.0
H1271 H 0.8663 0.0347 0.67432 0.0
H1272 H 0.93815 0.95498 0.70584 0.0
H1273 H 0.9876 0.07848 0.68753 0.0
H1274 H 0.94937 0.07568 0.69235 0.0
H1275 H 0.96069 0.05723 0.67786 0.0
C1276 C 0.87088 0.02864 0.70556 0.0
C1277 C 0.85797 0.03484 0.69399 0.0
C1278 C 0.90053 1.01855 0.70652 0.0
C1279 C 0.91809 1.01451 0.69595 0.0
C1280 C 0.90525 1.01999 0.68434 0.0
H1281 H 0.10801 0.96004 0.69366 0.0
H1282 H 0.05719 0.97387 0.68733 0.0
C1283 C 0.87546 0.03008 0.68336 0.0
C1284 C 0.94968 1.00412 0.69724 0.0
H1285 H 0.02071 0.03371 0.69346 0.0
C1286 C 0.95619 0.9721 0.70305 0.0
C1287 C 0.97323 0.02639 0.69355 0.0
C1288 C 0.96755 0.06151 0.68755 0.0
C1289 C 0.98552 0.96206 0.70549 0.0
C1290 C 1.00901 0.98487 0.7022 0.0
C1291 C 1.00264 1.01631 0.69599 0.0
C1292 C 0.04007 0.97751 0.7059 0.0
C1293 C 0.99112 0.92713 0.71164 0.0
C1294 C 0.04744 0.97584 0.71841 0.0
C1295 C 0.07637 0.96821 0.72205 0.0
C1296 C 0.09875 0.96211 0.71326 0.0
C1297 C 0.09146 0.96471 0.70069 0.0
C1298 C 0.06238 0.97245 0.69705 0.0
H1299 H 0.97218 0.90878 0.71038 0.0
H1300 H 1.01149 0.91454 0.70796 0.0
H1301 H 0.99413 0.93141 0.72167 0.0
H1302 H 0.03073 0.98051 0.7254 0.0
H1303 H 0.08118 0.96735 0.7318 0.0
H1304 H 0.06545 0.39863 1.00318 0.0
H1305 H 0.0425 0.45679 1.00181 0.0
H1306 H 0.07198 0.46595 0.96419 0.0
H1307 H 0.095 0.40771 0.96545 0.0
H1308 H 0.06789 0.52351 0.99578 0.0
H1309 H 0.98118 0.48304 0.96244 0.0
H1310 H 1.00247 0.4517 0.97123 0.0
H1311 H 0.0184 0.47231 0.95789 0.0
C1312 C 0.06725 0.41306 0.99462 0.0
C1313 C 0.08201 0.39835 0.9844 0.0
C1314 C 0.05407 0.44632 0.99386 0.0
C1315 C 0.05506 0.46547 0.98284 0.0
C1316 C 0.07047 0.45136 0.97272 0.0
H1317 H 0.02533 0.68154 0.96552 0.0
H1318 H 0.04401 0.62313 0.97037 0.0
C1319 C 0.08383 0.41816 0.97349 0.0
C1320 C 0.04001 0.5002 0.98192 0.0
H1321 H 0.98588 0.54443 0.96633 0.0
C1322 C 0.04984 0.52802 0.9894 0.0
C1323 C 0.0161 0.50595 0.97376 0.0
C1324 C 1.00365 0.47664 0.96594 0.0
C1325 C 0.03718 0.56173 0.98857 0.0
C1326 C 0.01417 0.56786 0.98 0.0
C1327 C 1.00357 0.53974 0.97286 0.0
C1328 C 1.00248 0.6038 0.97765 0.0
C1329 C 0.04866 0.59067 0.99679 0.0
C1330 C 0.97271 0.61241 0.98005 0.0
C1331 C 0.96184 0.64616 0.97731 0.0
C1332 C 0.98049 0.67156 0.97194 0.0
C1333 C 1.01027 0.66269 0.96962 0.0
C1334 C 0.0211 0.62929 0.97246 0.0
H1335 H 0.06049 0.57997 1.00492 0.0
H1336 H 0.06446 0.60723 0.99152 0.0
H1337 H 0.03029 0.60778 1.00003 0.0
H1338 H 0.9579 0.59301 0.98399 0.0
H1339 H 0.93879 0.65209 0.97916 0.0
H1340 H 0.41408 0.96782 0.0969 0.0
H1341 H 0.4642 0.9873 0.1025 0.0
H1342 H 0.48881 0.98857 0.06414 0.0
H1343 H 0.43892 0.96977 0.05849 0.0
H1344 H 0.51916 0.9519 0.09656 0.0
H1345 H 0.51447 0.08641 0.07703 0.0
H1346 H 0.48162 0.06085 0.0803 0.0
H1347 H 0.50273 0.05262 0.06654 0.0
C1348 C 0.43007 0.97275 0.08966 0.0
C1349 C 0.42251 0.96725 0.07724 0.0
C1350 C 0.45871 0.98365 0.09288 0.0
C1351 C 0.4801 0.98973 0.08372 0.0
C1352 C 0.47253 0.9845 0.07134 0.0
H1353 H 0.66232 0.03997 0.07349 0.0
H1354 H 0.60978 1.02537 0.07239 0.0
C1355 C 0.44407 0.97342 0.06813 0.0
C1356 C 0.51072 1.00037 0.08699 0.0
H1357 H 0.56254 0.06408 0.08173 0.0
C1358 C 0.52861 0.97663 0.0935 0.0
C1359 C 0.52291 0.03265 0.08297 0.0
C1360 C 0.50439 0.05978 0.07642 0.0
C1361 C 0.55882 0.98358 0.09555 0.0
C1362 C 0.57124 1.01539 0.09116 0.0
C1363 C 0.55303 0.03963 0.08504 0.0
C1364 C 0.6034 1.02327 0.09211 0.0
C1365 C 0.57748 0.95616 0.10188 0.0
C1366 C 0.61738 0.02691 0.10359 0.0
C1367 C 0.64758 0.03537 0.10425 0.0
C1368 C 0.66424 0.04067 0.09344 0.0
C1369 C 0.65012 0.03669 0.08199 0.0
C1370 C 0.62007 0.02817 0.08134 0.0
H1371 H 0.56607 0.93027 0.10234 0.0
H1372 H 0.59898 0.9527 0.09705 0.0
H1373 H 0.58218 0.96487 0.11144 0.0
H1374 H 0.60484 1.02386 0.11203 0.0
H1375 H 0.65769 0.03863 0.1132 0.0
H1376 H 0.4261 0.41037 0.82015 0.0
H1377 H 0.44929 0.46855 0.82204 0.0
H1378 H 0.49857 0.44982 0.78863 0.0
H1379 H 0.47603 0.39173 0.7868 0.0
H1380 H 0.53397 0.47518 0.80684 0.0
H1381 H 0.4332 0.55788 0.80276 0.0
H1382 H 0.43142 0.52559 0.81479 0.0
H1383 H 0.43331 0.51164 0.79898 0.0
C1384 C 0.44159 0.41883 0.81313 0.0
C1385 C 0.4491 0.39632 0.80331 0.0
C1386 C 0.45481 0.45217 0.8142 0.0
C1387 C 0.47555 0.4638 0.80542 0.0
C1388 C 0.4827 0.44152 0.79554 0.0
H1389 H 0.5369 0.67563 0.79196 0.0
H1390 H 0.51591 0.61651 0.79113 0.0
C1391 C 0.46965 0.40827 0.79448 0.0
C1392 C 0.49057 0.49866 0.80659 0.0
H1393 H 0.47795 0.58727 0.80758 0.0
C1394 C 0.52171 0.4997 0.80702 0.0
C1395 C 0.47465 0.53072 0.8067 0.0
C1396 C 0.44132 0.5316 0.80567 0.0
C1397 C 0.5373 0.53178 0.80752 0.0
C1398 C 0.52136 0.56381 0.80781 0.0
C1399 C 0.49022 0.56275 0.80743 0.0
C1400 C 0.53636 0.59883 0.80801 0.0
C1401 C 0.57072 0.53105 0.80735 0.0
C1402 C 0.55538 0.60862 0.81768 0.0
C1403 C 0.56773 0.64254 0.81813 0.0
C1404 C 0.56101 0.66746 0.80898 0.0
C1405 C 0.54258 0.6572 0.79917 0.0
C1406 C 0.53042 0.62337 0.7987 0.0
H1407 H 0.57936 0.50546 0.80393 0.0
H1408 H 0.57975 0.55239 0.80146 0.0
H1409 H 0.5791 0.53502 0.81684 0.0
H1410 H 0.55993 0.59045 0.8251 0.0
H1411 H 0.58154 0.64965 0.82589 0.0
H1412 H 0.60577 0.49679 0.22342 0.0
H1413 H 0.55483 0.51023 0.21777 0.0
H1414 H 0.57083 0.47078 0.18112 0.0
H1415 H 0.62193 0.45621 0.18684 0.0
H1416 H 0.53371 0.55455 0.19912 0.0
H1417 H 0.4965 0.41627 0.19222 0.0
H1418 H 0.53055 0.42712 0.20006 0.0
H1419 H 0.52855 0.42982 0.18358 0.0
C1420 C 0.59848 0.49054 0.21419 0.0
C1421 C 0.61795 0.47498 0.20564 0.0
C1422 C 0.56935 0.49853 0.21095 0.0
C1423 C 0.55887 0.49107 0.19908 0.0
C1424 C 0.57831 0.47622 0.1904 0.0
H1425 H 0.37564 0.51609 0.17289 0.0
H1426 H 0.42909 0.50482 0.17346 0.0
C1427 C 0.6076 0.46823 0.19365 0.0
C1428 C 0.52756 0.49909 0.19598 0.0
H1429 H 0.46094 0.46073 0.18934 0.0
C1430 C 0.51784 0.53407 0.19689 0.0
C1431 C 0.5069 0.47236 0.19301 0.0
C1432 C 0.51595 0.43421 0.19223 0.0
C1433 C 0.48796 0.54298 0.19514 0.0
C1434 C 0.4671 0.5161 0.19264 0.0
C1435 C 0.47696 0.48128 0.19129 0.0
C1436 C 0.43477 0.52331 0.19215 0.0
C1437 C 0.47898 0.58112 0.19604 0.0
C1438 C 0.42014 0.53691 0.20252 0.0
C1439 C 0.38966 0.54321 0.20225 0.0
C1440 C 0.37299 0.53588 0.19161 0.0
C1441 C 0.38768 0.52187 0.18126 0.0
C1442 C 0.41826 0.51555 0.18154 0.0
H1443 H 0.49803 0.59894 0.19426 0.0
H1444 H 0.46101 0.58737 0.18943 0.0
H1445 H 0.47074 0.58659 0.20549 0.0
H1446 H 0.43226 0.54221 0.21092 0.0
H1447 H 0.37913 0.55318 0.2105 0.0
H1448 H 0.42105 0.12331 0.45371 0.0
H1449 H 0.45019 0.06917 0.45523 0.0
H1450 H 0.50678 0.11896 0.48213 0.0
H1451 H 0.47607 0.17174 0.48137 0.0
H1452 H 0.50125 0.05582 0.44898 0.0
H1453 H 0.50062 0.02904 0.4988 0.0
H1454 H 0.47706 0.06203 0.4921 0.0
H1455 H 0.51493 0.07225 0.4961 0.0
C1456 C 0.43922 0.12218 0.4602 0.0
C1457 C 0.44599 0.15144 0.46758 0.0
C1458 C 0.45606 0.09131 0.46102 0.0
C1459 C 0.48065 0.08933 0.46896 0.0
C1460 C 0.48738 0.11884 0.4763 0.0
H1461 H 0.62172 0.93875 0.45143 0.0
H1462 H 0.59116 0.9916 0.45367 0.0
C1463 C 0.46989 0.14924 0.4758 0.0
C1464 C 0.5004 0.05761 0.46882 0.0
H1465 H 0.53945 1.00122 0.48716 0.0
C1466 C 0.5092 0.04369 0.45738 0.0
C1467 C 0.51071 0.04103 0.47969 0.0
C1468 C 0.50003 0.05165 0.49234 0.0
C1469 C 0.52791 1.01423 0.45648 0.0
C1470 C 0.53995 0.99928 0.46733 0.0
C1471 C 0.53089 1.01289 0.47879 0.0
C1472 C 0.56099 0.96878 0.46702 0.0
C1473 C 0.5335 0.99888 0.44385 0.0
C1474 C 0.55604 0.93917 0.47451 0.0
C1475 C 0.5745 0.90962 0.47369 0.0
C1476 C 0.59796 0.90873 0.46517 0.0
C1477 C 0.60366 0.9387 0.45801 0.0
C1478 C 0.58584 0.96871 0.45915 0.0
H1479 H 0.5151 1.00509 0.43743 0.0
H1480 H 0.554 1.01055 0.43995 0.0
H1481 H 0.53603 0.96986 0.4442 0.0
H1482 H 0.53726 0.93835 0.48073 0.0
H1483 H 0.5694 0.88673 0.47924 0.0
H1484 H 0.91311 0.44876 0.55988 0.0
H1485 H 0.96196 0.47636 0.56049 0.0
H1486 H 0.93832 0.52974 0.59417 0.0
H1487 H 0.88912 0.50236 0.59352 0.0
H1488 H 0.96681 0.5732 0.57815 0.0
H1489 H 0.02974 0.44916 0.58281 0.0
H1490 H 1.0059 0.44859 0.56962 0.0
H1491 H 0.99008 0.45123 0.58483 0.0
C1492 C 0.91838 0.46615 0.56747 0.0
C1493 C 0.89736 0.47311 0.57672 0.0
C1494 C 0.94634 0.48184 0.56782 0.0
C1495 C 0.95407 0.50443 0.57753 0.0
C1496 C 0.93291 0.51216 0.58664 0.0
H1497 H 0.14059 0.56534 0.58527 0.0
H1498 H 0.09067 0.54431 0.59014 0.0
C1499 C 0.90478 0.49664 0.58623 0.0
C1500 C 0.98408 0.52039 0.57798 0.0
H1501 H 0.05764 0.49991 0.57661 0.0
C1502 C 0.98669 0.5572 0.57797 0.0
C1503 C 1.01005 0.49954 0.57802 0.0
C1504 C 1.00885 0.45995 0.57896 0.0
C1505 C 0.01453 0.57366 0.57737 0.0
C1506 C 0.04038 0.55273 0.5765 0.0
C1507 C 0.03782 0.51598 0.57713 0.0
C1508 C 0.07012 0.56817 0.57423 0.0
C1509 C 0.01594 0.61331 0.57764 0.0
C1510 C 0.07518 0.58863 0.5637 0.0
C1511 C 0.10359 0.60091 0.56096 0.0
C1512 C 0.12773 0.59263 0.5686 0.0
C1513 C 0.12253 0.57256 0.57926 0.0
C1514 C 0.09401 0.56034 0.58202 0.0
H1515 H 0.99638 0.62464 0.58244 0.0
H1516 H 0.03634 0.62274 0.5823 0.0
H1517 H 0.01596 0.62341 0.56807 0.0
H1518 H 0.05727 0.59438 0.5574 0.0
H1519 H 0.10664 0.61663 0.55276 0.0
loop_
_geom_bond_atom_site_label_1
_geom_bond_atom_site_label_2
_geom_bond_distance
_geom_bond_site_symmetry_2
_ccdc_geom_bond_type
Cu0 N1 1.999 . S
Cu0 O6 1.974 . S
Cu0 N11 1.985 . S
Cu0 O20 1.959 . S
N1 Cu0 1.999 . S
N1 C3 1.263 . S
N1 C5 1.389 . S
N2 C3 1.358 . S
N2 C4 1.400 1_455 S
C3 N1 1.263 . S
C3 N2 1.358 . S
C3 H9 0.930 . S
C4 N2 1.400 1_655 S
C4 C5 1.351 1_655 S
C4 H21 0.930 . S
C5 N1 1.389 . S
C5 C4 1.351 1_455 S
C5 H10 0.930 . S
O6 Cu0 1.974 . S
O6 C16 1.282 . S
C7 O8 1.261 . S
C7 O20 1.251 . S
O8 C7 1.261 . S
H9 C3 0.930 . S
H10 C5 0.930 . S
N11 Cu0 1.985 . S
N11 C13 1.335 . S
N11 C14 1.390 . S
N12 C13 1.345 . S
N12 C15 1.336 . S
C13 N11 1.335 . S
C13 N12 1.345 . S
C13 H18 0.930 . S
C14 N11 1.390 . S
C14 C15 1.346 . S
C14 H19 0.930 . S
C15 N12 1.336 . S
C15 C14 1.346 . S
C15 H22 0.929 . S
C16 O6 1.282 . S
C16 O17 1.216 . S
O17 C16 1.216 . S
H18 C13 0.930 . S
H19 C14 0.930 . S
O20 Cu0 1.959 . S
O20 C7 1.251 . S
H21 C4 0.930 . S
H22 C15 0.929 . S
Cu23 N24 1.999 . S
Cu23 O29 1.974 . S
Cu23 N34 1.985 . S
Cu23 O43 1.959 . S
N24 Cu23 1.999 . S
N24 C26 1.263 . S
N24 C28 1.389 . S
N25 C26 1.358 . S
N25 C27 1.400 . S
C26 N24 1.263 . S
C26 N25 1.358 . S
C26 H32 0.930 . S
C27 N25 1.400 . S
C27 C28 1.351 . S
C27 H44 0.930 . S
C28 N24 1.389 . S
C28 C27 1.351 . S
C28 H33 0.930 . S
O29 Cu23 1.974 . S
O29 C39 1.282 . S
C30 O31 1.261 . S
C30 O43 1.251 . S
O31 C30 1.261 . S
H32 C26 0.930 . S
H33 C28 0.930 . S
N34 Cu23 1.985 . S
N34 C36 1.335 . S
N34 C37 1.390 . S
N35 C36 1.345 . S
N35 C38 1.336 . S
C36 N34 1.335 . S
C36 N35 1.345 . S
C36 H41 0.930 . S
C37 N34 1.390 . S
C37 C38 1.346 . S
C37 H42 0.930 . S
C38 N35 1.336 . S
C38 C37 1.346 . S
C38 H45 0.929 . S
C39 O29 1.282 . S
C39 O40 1.216 . S
O40 C39 1.216 . S
H41 C36 0.930 . S
H42 C37 0.930 . S
O43 Cu23 1.959 . S
O43 C30 1.251 . S
H44 C27 0.930 . S
H45 C38 0.929 . S
Cu46 N47 1.999 . S
Cu46 O52 1.974 . S
Cu46 N57 1.985 . S
Cu46 O66 1.959 . S
N47 Cu46 1.999 . S
N47 C49 1.263 . S
N47 C51 1.389 . S
N48 C49 1.358 . S
N48 C50 1.400 1_655 S
C49 N47 1.263 . S
C49 N48 1.358 . S
C49 H55 0.930 . S
C50 N48 1.400 1_455 S
C50 C51 1.351 1_455 S
C50 H67 0.930 . S
C51 N47 1.389 . S
C51 C50 1.351 1_655 S
C51 H56 0.930 . S
O52 Cu46 1.974 . S
O52 C62 1.282 . S
C53 O54 1.261 . S
C53 O66 1.251 . S
O54 C53 1.261 . S
H55 C49 0.930 . S
H56 C51 0.930 . S
N57 Cu46 1.985 . S
N57 C59 1.335 . S
N57 C60 1.390 . S
N58 C59 1.345 . S
N58 C61 1.336 . S
C59 N57 1.335 . S
C59 N58 1.345 . S
C59 H64 0.930 . S
C60 N57 1.390 . S
C60 C61 1.346 . S
C60 H65 0.930 . S
C61 N58 1.336 . S
C61 C60 1.346 . S
C61 H68 0.929 . S
C62 O52 1.282 . S
C62 O63 1.216 . S
O63 C62 1.216 . S
H64 C59 0.930 . S
H65 C60 0.930 . S
O66 Cu46 1.959 . S
O66 C53 1.251 . S
H67 C50 0.930 . S
H68 C61 0.929 . S
Cu69 N70 1.999 . S
Cu69 O75 1.974 . S
Cu69 N80 1.985 . S
Cu69 O89 1.959 . S
N70 Cu69 1.999 . S
N70 C72 1.263 . S
N70 C74 1.389 . S
N71 C72 1.358 . S
N71 C73 1.400 . S
C72 N70 1.263 . S
C72 N71 1.358 . S
C72 H78 0.930 . S
C73 N71 1.400 . S
C73 C74 1.351 . S
C73 H90 0.930 . S
C74 N70 1.389 . S
C74 C73 1.351 . S
C74 H79 0.930 . S
O75 Cu69 1.974 . S
O75 C85 1.282 . S
C76 O77 1.261 . S
C76 O89 1.251 . S
O77 C76 1.261 . S
H78 C72 0.930 . S
H79 C74 0.930 . S
N80 Cu69 1.985 . S
N80 C82 1.335 . S
N80 C83 1.390 . S
N81 C82 1.345 . S
N81 C84 1.336 . S
C82 N80 1.335 . S
C82 N81 1.345 . S
C82 H87 0.930 . S
C83 N80 1.390 . S
C83 C84 1.346 . S
C83 H88 0.930 . S
C84 N81 1.336 . S
C84 C83 1.346 . S
C84 H91 0.929 . S
C85 O75 1.282 . S
C85 O86 1.216 . S
O86 C85 1.216 . S
H87 C82 0.930 . S
H88 C83 0.930 . S
O89 Cu69 1.959 . S
O89 C76 1.251 . S
H90 C73 0.930 . S
H91 C84 0.929 . S
Cu92 N93 1.999 . S
Cu92 O98 1.974 . S
Cu92 N103 1.985 . S
Cu92 O112 1.959 . S
N93 Cu92 1.999 . S
N93 C95 1.263 . S
N93 C97 1.389 . S
N94 C95 1.358 . S
N94 C96 1.400 1_455 S
C95 N93 1.263 . S
C95 N94 1.358 . S
C95 H101 0.930 . S
C96 N94 1.400 1_655 S
C96 C97 1.351 1_655 S
C96 H113 0.930 . S
C97 N93 1.389 . S
C97 C96 1.351 1_455 S
C97 H102 0.930 . S
O98 Cu92 1.974 . S
O98 C108 1.282 . S
C99 O100 1.261 . S
C99 O112 1.251 . S
O100 C99 1.261 . S
H101 C95 0.930 . S
H102 C97 0.930 . S
N103 Cu92 1.985 . S
N103 C105 1.335 . S
N103 C106 1.390 . S
N104 C105 1.345 . S
N104 C107 1.336 . S
C105 N103 1.335 . S
C105 N104 1.345 . S
C105 H110 0.930 . S
C106 N103 1.390 . S
C106 C107 1.346 . S
C106 H111 0.930 . S
C107 N104 1.336 . S
C107 C106 1.346 . S
C107 H114 0.929 . S
C108 O98 1.282 . S
C108 O109 1.216 . S
O109 C108 1.216 . S
H110 C105 0.930 . S
H111 C106 0.930 . S
O112 Cu92 1.959 . S
O112 C99 1.251 . S
H113 C96 0.930 . S
H114 C107 0.929 . S
Cu115 N116 1.999 . S
Cu115 O121 1.974 . S
Cu115 N126 1.985 . S
Cu115 O135 1.959 . S
N116 Cu115 1.999 . S
N116 C118 1.263 . S
N116 C120 1.389 . S
N117 C118 1.358 . S
N117 C119 1.400 . S
C118 N116 1.263 . S
C118 N117 1.358 . S
C118 H124 0.930 . S
C119 N117 1.400 . S
C119 C120 1.351 . S
C119 H136 0.930 . S
C120 N116 1.389 . S
C120 C119 1.351 . S
C120 H125 0.930 . S
O121 Cu115 1.974 . S
O121 C131 1.282 . S
C122 O123 1.261 . S
C122 O135 1.251 . S
O123 C122 1.261 . S
H124 C118 0.930 . S
H125 C120 0.930 . S
N126 Cu115 1.985 . S
N126 C128 1.335 . S
N126 C129 1.390 . S
N127 C128 1.345 . S
N127 C130 1.336 . S
C128 N126 1.335 . S
C128 N127 1.345 . S
C128 H133 0.930 . S
C129 N126 1.390 . S
C129 C130 1.346 . S
C129 H134 0.930 . S
C130 N127 1.336 . S
C130 C129 1.346 . S
C130 H137 0.929 . S
C131 O121 1.282 . S
C131 O132 1.216 . S
O132 C131 1.216 . S
H133 C128 0.930 . S
H134 C129 0.930 . S
O135 Cu115 1.959 . S
O135 C122 1.251 . S
H136 C119 0.930 . S
H137 C130 0.929 . S
Cu138 N139 1.999 . S
Cu138 O144 1.974 . S
Cu138 N149 1.985 . S
Cu138 O158 1.959 . S
N139 Cu138 1.999 . S
N139 C141 1.263 . S
N139 C143 1.389 . S
N140 C141 1.358 . S
N140 C142 1.400 1_655 S
C141 N139 1.263 . S
C141 N140 1.358 . S
C141 H147 0.930 . S
C142 N140 1.400 1_455 S
C142 C143 1.351 1_455 S
C142 H159 0.930 . S
C143 N139 1.389 . S
C143 C142 1.351 1_655 S
C143 H148 0.930 . S
O144 Cu138 1.974 . S
O144 C154 1.282 . S
C145 O146 1.261 . S
C145 O158 1.251 . S
O146 C145 1.261 . S
H147 C141 0.930 . S
H148 C143 0.930 . S
N149 Cu138 1.985 . S
N149 C151 1.335 . S
N149 C152 1.390 . S
N150 C151 1.345 . S
N150 C153 1.336 . S
C151 N149 1.335 . S
C151 N150 1.345 . S
C151 H156 0.930 . S
C152 N149 1.390 . S
C152 C153 1.346 . S
C152 H157 0.930 . S
C153 N150 1.336 . S
C153 C152 1.346 . S
C153 H160 0.929 . S
C154 O144 1.282 . S
C154 O155 1.216 . S
O155 C154 1.216 . S
H156 C151 0.930 . S
H157 C152 0.930 . S
O158 Cu138 1.959 . S
O158 C145 1.251 . S
H159 C142 0.930 . S
H160 C153 0.929 . S
Cu161 N162 1.999 . S
Cu161 O167 1.974 . S
Cu161 N172 1.985 . S
Cu161 O181 1.959 . S
N162 Cu161 1.999 . S
N162 C164 1.263 . S
N162 C166 1.389 . S
N163 C164 1.358 . S
N163 C165 1.400 . S
C164 N162 1.263 . S
C164 N163 1.358 . S
C164 H170 0.930 . S
C165 N163 1.400 . S
C165 C166 1.351 . S
C165 H182 0.930 . S
C166 N162 1.389 . S
C166 C165 1.351 . S
C166 H171 0.930 . S
O167 Cu161 1.974 . S
O167 C177 1.282 . S
C168 O169 1.261 . S
C168 O181 1.251 . S
O169 C168 1.261 . S
H170 C164 0.930 . S
H171 C166 0.930 . S
N172 Cu161 1.985 . S
N172 C174 1.335 . S
N172 C175 1.390 . S
N173 C174 1.345 . S
N173 C176 1.336 . S
C174 N172 1.335 . S
C174 N173 1.345 . S
C174 H179 0.930 . S
C175 N172 1.390 . S
C175 C176 1.346 . S
C175 H180 0.930 . S
C176 N173 1.336 . S
C176 C175 1.346 . S
C176 H183 0.929 . S
C177 O167 1.282 . S
C177 O178 1.216 . S
O178 C177 1.216 . S
H179 C174 0.930 . S
H180 C175 0.930 . S
O181 Cu161 1.959 . S
O181 C168 1.251 . S
H182 C165 0.930 . S
H183 C176 0.929 . S
Cu184 N185 1.999 . S
Cu184 O190 1.974 . S
Cu184 N195 1.985 . S
Cu184 O204 1.959 . S
N185 Cu184 1.999 . S
N185 C187 1.263 . S
N185 C189 1.389 . S
N186 C187 1.358 . S
N186 C188 1.400 . S
C187 N185 1.263 . S
C187 N186 1.358 . S
C187 H193 0.930 . S
C188 N186 1.400 . S
C188 C189 1.351 . S
C188 H205 0.930 . S
C189 N185 1.389 . S
C189 C188 1.351 . S
C189 H194 0.930 . S
O190 Cu184 1.974 . S
O190 C200 1.282 . S
C191 O192 1.261 . S
C191 O204 1.251 . S
O192 C191 1.261 . S
H193 C187 0.930 . S
H194 C189 0.930 . S
N195 Cu184 1.985 . S
N195 C197 1.335 . S
N195 C198 1.390 . S
N196 C197 1.345 . S
N196 C199 1.336 . S
C197 N195 1.335 . S
C197 N196 1.345 . S
C197 H202 0.930 . S
C198 N195 1.390 . S
C198 C199 1.346 . S
C198 H203 0.930 . S
C199 N196 1.336 . S
C199 C198 1.346 . S
C199 H206 0.929 . S
C200 O190 1.282 . S
C200 O201 1.216 . S
O201 C200 1.216 . S
H202 C197 0.930 . S
H203 C198 0.930 . S
O204 Cu184 1.959 . S
O204 C191 1.251 . S
H205 C188 0.930 . S
H206 C199 0.929 . S
Cu207 N208 1.999 . S
Cu207 O213 1.974 . S
Cu207 N218 1.985 . S
Cu207 O227 1.959 . S
N208 Cu207 1.999 . S
N208 C210 1.263 . S
N208 C212 1.389 . S
N209 C210 1.358 . S
N209 C211 1.400 . S
C210 N208 1.263 . S
C210 N209 1.358 . S
C210 H216 0.930 . S
C211 N209 1.400 . S
C211 C212 1.351 . S
C211 H228 0.930 . S
C212 N208 1.389 . S
C212 C211 1.351 . S
C212 H217 0.930 . S
O213 Cu207 1.974 . S
O213 C223 1.282 . S
C214 O215 1.261 . S
C214 O227 1.251 . S
O215 C214 1.261 . S
H216 C210 0.930 . S
H217 C212 0.930 . S
N218 Cu207 1.985 . S
N218 C220 1.335 . S
N218 C221 1.390 . S
N219 C220 1.345 . S
N219 C222 1.336 . S
C220 N218 1.335 . S
C220 N219 1.345 . S
C220 H225 0.930 . S
C221 N218 1.390 . S
C221 C222 1.346 . S
C221 H226 0.930 . S
C222 N219 1.336 . S
C222 C221 1.346 . S
C222 H229 0.929 . S
C223 O213 1.282 . S
C223 O224 1.216 . S
O224 C223 1.216 . S
H225 C220 0.930 . S
H226 C221 0.930 . S
O227 Cu207 1.959 . S
O227 C214 1.251 . S
H228 C211 0.930 . S
H229 C222 0.929 . S
Cu230 N231 1.999 . S
Cu230 O236 1.974 . S
Cu230 N241 1.985 . S
Cu230 O250 1.959 . S
N231 Cu230 1.999 . S
N231 C233 1.263 . S
N231 C235 1.389 . S
N232 C233 1.358 . S
N232 C234 1.400 . S
C233 N231 1.263 . S
C233 N232 1.358 . S
C233 H239 0.930 . S
C234 N232 1.400 . S
C234 C235 1.351 . S
C234 H251 0.930 . S
C235 N231 1.389 . S
C235 C234 1.351 . S
C235 H240 0.930 . S
O236 Cu230 1.974 . S
O236 C246 1.282 . S
C237 O238 1.261 . S
C237 O250 1.251 . S
O238 C237 1.261 . S
H239 C233 0.930 . S
H240 C235 0.930 . S
N241 Cu230 1.985 . S
N241 C243 1.335 . S
N241 C244 1.390 . S
N242 C243 1.345 . S
N242 C245 1.336 . S
C243 N241 1.335 . S
C243 N242 1.345 . S
C243 H248 0.930 . S
C244 N241 1.390 . S
C244 C245 1.346 . S
C244 H249 0.930 . S
C245 N242 1.336 . S
C245 C244 1.346 . S
C245 H252 0.929 . S
C246 O236 1.282 . S
C246 O247 1.216 . S
O247 C246 1.216 . S
H248 C243 0.930 . S
H249 C244 0.930 . S
O250 Cu230 1.959 . S
O250 C237 1.251 . S
H251 C234 0.930 . S
H252 C245 0.929 . S
Cu253 N254 1.999 . S
Cu253 O259 1.974 . S
Cu253 N264 1.985 . S
Cu253 O273 1.959 . S
N254 Cu253 1.999 . S
N254 C256 1.263 . S
N254 C258 1.389 . S
N255 C256 1.358 . S
N255 C257 1.400 . S
C256 N254 1.263 . S
C256 N255 1.358 . S
C256 H262 0.930 . S
C257 N255 1.400 . S
C257 C258 1.351 . S
C257 H274 0.930 . S
C258 N254 1.389 . S
C258 C257 1.351 . S
C258 H263 0.930 . S
O259 Cu253 1.974 . S
O259 C269 1.282 . S
C260 O261 1.261 . S
C260 O273 1.251 . S
O261 C260 1.261 . S
H262 C256 0.930 . S
H263 C258 0.930 . S
N264 Cu253 1.985 . S
N264 C266 1.335 . S
N264 C267 1.390 . S
N265 C266 1.345 . S
N265 C268 1.336 . S
C266 N264 1.335 . S
C266 N265 1.345 . S
C266 H271 0.930 . S
C267 N264 1.390 . S
C267 C268 1.346 . S
C267 H272 0.930 . S
C268 N265 1.336 . S
C268 C267 1.346 . S
C268 H275 0.929 . S
C269 O259 1.282 . S
C269 O270 1.216 . S
O270 C269 1.216 . S
H271 C266 0.930 . S
H272 C267 0.930 . S
O273 Cu253 1.959 . S
O273 C260 1.251 . S
H274 C257 0.930 . S
H275 C268 0.929 . S
Cu276 N277 1.999 . S
Cu276 O282 1.974 . S
Cu276 N287 1.985 . S
Cu276 O296 1.959 . S
N277 Cu276 1.999 . S
N277 C279 1.263 . S
N277 C281 1.389 . S
N278 C279 1.358 . S
N278 C280 1.400 . S
C279 N277 1.263 . S
C279 N278 1.358 . S
C279 H285 0.930 . S
C280 N278 1.400 . S
C280 C281 1.351 . S
C280 H297 0.930 . S
C281 N277 1.389 . S
C281 C280 1.351 . S
C281 H286 0.930 . S
O282 Cu276 1.974 . S
O282 C292 1.282 . S
C283 O284 1.261 . S
C283 O296 1.251 . S
O284 C283 1.261 . S
H285 C279 0.930 . S
H286 C281 0.930 . S
N287 Cu276 1.985 . S
N287 C289 1.335 . S
N287 C290 1.390 . S
N288 C289 1.345 . S
N288 C291 1.336 . S
C289 N287 1.335 . S
C289 N288 1.345 . S
C289 H294 0.930 . S
C290 N287 1.390 . S
C290 C291 1.346 . S
C290 H295 0.930 . S
C291 N288 1.336 . S
C291 C290 1.346 . S
C291 H298 0.929 . S
C292 O282 1.282 . S
C292 O293 1.216 . S
O293 C292 1.216 . S
H294 C289 0.930 . S
H295 C290 0.930 . S
O296 Cu276 1.959 . S
O296 C283 1.251 . S
H297 C280 0.930 . S
H298 C291 0.929 . S
Cu299 N300 1.999 . S
Cu299 O305 1.974 . S
Cu299 N310 1.985 . S
Cu299 O319 1.959 . S
N300 Cu299 1.999 . S
N300 C302 1.263 . S
N300 C304 1.389 . S
N301 C302 1.358 . S
N301 C303 1.400 . S
C302 N300 1.263 . S
C302 N301 1.358 . S
C302 H308 0.930 . S
C303 N301 1.400 . S
C303 C304 1.351 . S
C303 H320 0.930 . S
C304 N300 1.389 . S
C304 C303 1.351 . S
C304 H309 0.930 . S
O305 Cu299 1.974 . S
O305 C315 1.282 . S
C306 O307 1.261 . S
C306 O319 1.251 . S
O307 C306 1.261 . S
H308 C302 0.930 . S
H309 C304 0.930 . S
N310 Cu299 1.985 . S
N310 C312 1.335 . S
N310 C313 1.390 . S
N311 C312 1.345 . S
N311 C314 1.336 . S
C312 N310 1.335 . S
C312 N311 1.345 . S
C312 H317 0.930 . S
C313 N310 1.390 . S
C313 C314 1.346 . S
C313 H318 0.930 . S
C314 N311 1.336 . S
C314 C313 1.346 . S
C314 H321 0.929 . S
C315 O305 1.282 . S
C315 O316 1.216 . S
O316 C315 1.216 . S
H317 C312 0.930 . S
H318 C313 0.930 . S
O319 Cu299 1.959 . S
O319 C306 1.251 . S
H320 C303 0.930 . S
H321 C314 0.929 . S
Cu322 N323 1.999 . S
Cu322 O328 1.974 . S
Cu322 N333 1.985 . S
Cu322 O342 1.959 . S
N323 Cu322 1.999 . S
N323 C325 1.263 . S
N323 C327 1.389 . S
N324 C325 1.358 . S
N324 C326 1.400 . S
C325 N323 1.263 . S
C325 N324 1.358 . S
C325 H331 0.930 . S
C326 N324 1.400 . S
C326 C327 1.351 . S
C326 H343 0.930 . S
C327 N323 1.389 . S
C327 C326 1.351 . S
C327 H332 0.930 . S
O328 Cu322 1.974 . S
O328 C338 1.282 . S
C329 O330 1.261 . S
C329 O342 1.251 . S
O330 C329 1.261 . S
H331 C325 0.930 . S
H332 C327 0.930 . S
N333 Cu322 1.985 . S
N333 C335 1.335 . S
N333 C336 1.390 . S
N334 C335 1.345 . S
N334 C337 1.336 . S
C335 N333 1.335 . S
C335 N334 1.345 . S
C335 H340 0.930 . S
C336 N333 1.390 . S
C336 C337 1.346 . S
C336 H341 0.930 . S
C337 N334 1.336 . S
C337 C336 1.346 . S
C337 H344 0.929 . S
C338 O328 1.282 . S
C338 O339 1.216 . S
O339 C338 1.216 . S
H340 C335 0.930 . S
H341 C336 0.930 . S
O342 Cu322 1.959 . S
O342 C329 1.251 . S
H343 C326 0.930 . S
H344 C337 0.929 . S
Cu345 N346 1.999 . S
Cu345 O351 1.974 . S
Cu345 N356 1.985 . S
Cu345 O365 1.959 . S
N346 Cu345 1.999 . S
N346 C348 1.263 . S
N346 C350 1.389 . S
N347 C348 1.358 . S
N347 C349 1.400 . S
C348 N346 1.263 . S
C348 N347 1.358 . S
C348 H354 0.930 . S
C349 N347 1.400 . S
C349 C350 1.351 . S
C349 H366 0.930 . S
C350 N346 1.389 . S
C350 C349 1.351 . S
C350 H355 0.930 . S
O351 Cu345 1.974 . S
O351 C361 1.282 . S
C352 O353 1.261 . S
C352 O365 1.251 . S
O353 C352 1.261 . S
H354 C348 0.930 . S
H355 C350 0.930 . S
N356 Cu345 1.985 . S
N356 C358 1.335 . S
N356 C359 1.390 . S
N357 C358 1.345 . S
N357 C360 1.336 . S
C358 N356 1.335 . S
C358 N357 1.345 . S
C358 H363 0.930 . S
C359 N356 1.390 . S
C359 C360 1.346 . S
C359 H364 0.930 . S
C360 N357 1.336 . S
C360 C359 1.346 . S
C360 H367 0.929 . S
C361 O351 1.282 . S
C361 O362 1.216 . S
O362 C361 1.216 . S
H363 C358 0.930 . S
H364 C359 0.930 . S
O365 Cu345 1.959 . S
O365 C352 1.251 . S
H366 C349 0.930 . S
H367 C360 0.929 . S
H368 C376 0.929 . S
H369 C378 0.930 . S
H370 C380 0.930 . S
H371 C383 0.929 . S
H372 C386 0.930 . S
H373 C388 0.960 . S
H374 C388 0.960 . S
H375 C388 0.960 . S
C376 H368 0.929 . S
C376 C377 1.377 . S
C376 C378 1.384 . S
C377 C376 1.377 . S
C377 C383 1.390 . S
C378 H369 0.930 . S
C378 C376 1.384 . S
C378 C379 1.372 . S
C379 C378 1.372 . S
C379 C380 1.400 . S
C379 C384 1.490 . S
C380 H370 0.930 . S
C380 C379 1.400 . S
C380 C383 1.386 . S
H381 C397 0.930 . S
H382 C398 0.931 . S
C383 H371 0.929 . S
C383 C377 1.390 . S
C383 C380 1.386 . S
C384 C379 1.490 . S
C384 C386 1.395 . S
C384 C387 1.403 . S
H385 C391 0.930 . S
C386 H372 0.930 . S
C386 C384 1.395 . S
C386 C389 1.403 . S
C387 C384 1.403 . S
C387 C388 1.524 . S
C387 C391 1.400 . S
C388 H373 0.960 . S
C388 H374 0.960 . S
C388 H375 0.960 . S
C388 C387 1.524 . S
C389 C386 1.403 . S
C389 C390 1.392 . S
C389 C393 1.495 . S
C390 C389 1.392 . S
C390 C391 1.385 . S
C390 C392 1.478 . S
C391 H385 0.930 . S
C391 C387 1.400 . S
C391 C390 1.385 . S
C392 C390 1.478 . S
C392 C394 1.381 . S
C392 C398 1.383 . S
C393 C389 1.495 . S
C393 H399 0.959 . S
C393 H400 0.961 . S
C393 H401 0.960 . S
C394 C392 1.381 . S
C394 C395 1.394 . S
C394 H402 0.930 . S
C395 C394 1.394 . S
C395 C396 1.383 . S
C395 H403 0.929 . S
C396 C395 1.383 . S
C396 C397 1.377 . S
C397 H381 0.930 . S
C397 C396 1.377 . S
C397 C398 1.379 . S
C398 H382 0.931 . S
C398 C392 1.383 . S
C398 C397 1.379 . S
H399 C393 0.959 . S
H400 C393 0.961 . S
H401 C393 0.960 . S
H402 C394 0.930 . S
H403 C395 0.929 . S
H404 C412 0.929 . S
H405 C414 0.930 . S
H406 C416 0.930 . S
H407 C419 0.929 . S
H408 C422 0.930 . S
H409 C424 0.960 . S
H410 C424 0.960 . S
H411 C424 0.960 . S
C412 H404 0.929 . S
C412 C413 1.377 . S
C412 C414 1.384 . S
C413 C412 1.377 . S
C413 C419 1.390 . S
C414 H405 0.930 . S
C414 C412 1.384 . S
C414 C415 1.372 . S
C415 C414 1.372 . S
C415 C416 1.400 . S
C415 C420 1.490 . S
C416 H406 0.930 . S
C416 C415 1.400 . S
C416 C419 1.386 . S
H417 C433 0.930 . S
H418 C434 0.931 . S
C419 H407 0.929 . S
C419 C413 1.390 . S
C419 C416 1.386 . S
C420 C415 1.490 . S
C420 C422 1.395 . S
C420 C423 1.403 . S
H421 C427 0.930 . S
C422 H408 0.930 . S
C422 C420 1.395 . S
C422 C425 1.403 . S
C423 C420 1.403 . S
C423 C424 1.524 . S
C423 C427 1.400 . S
C424 H409 0.960 . S
C424 H410 0.960 . S
C424 H411 0.960 . S
C424 C423 1.524 . S
C425 C422 1.403 . S
C425 C426 1.392 . S
C425 C429 1.495 . S
C426 C425 1.392 . S
C426 C427 1.385 . S
C426 C428 1.478 . S
C427 H421 0.930 . S
C427 C423 1.400 . S
C427 C426 1.385 . S
C428 C426 1.478 . S
C428 C430 1.381 . S
C428 C434 1.383 . S
C429 C425 1.495 . S
C429 H435 0.959 . S
C429 H436 0.961 . S
C429 H437 0.960 . S
C430 C428 1.381 . S
C430 C431 1.394 . S
C430 H438 0.930 . S
C431 C430 1.394 . S
C431 C432 1.383 . S
C431 H439 0.929 . S
C432 C431 1.383 . S
C432 C433 1.377 . S
C433 H417 0.930 . S
C433 C432 1.377 . S
C433 C434 1.379 . S
C434 H418 0.931 . S
C434 C428 1.383 . S
C434 C433 1.379 . S
H435 C429 0.959 . S
H436 C429 0.961 . S
H437 C429 0.960 . S
H438 C430 0.930 . S
H439 C431 0.929 . S
H440 C448 0.929 . S
H441 C450 0.930 . S
H442 C452 0.930 . S
H443 C455 0.929 . S
H444 C458 0.930 . S
H445 C460 0.960 . S
H446 C460 0.960 . S
H447 C460 0.960 . S
C448 H440 0.929 . S
C448 C449 1.377 . S
C448 C450 1.384 . S
C449 C448 1.377 . S
C449 C455 1.390 . S
C450 H441 0.930 . S
C450 C448 1.384 . S
C450 C451 1.372 . S
C451 C450 1.372 . S
C451 C452 1.400 . S
C451 C456 1.490 . S
C452 H442 0.930 . S
C452 C451 1.400 . S
C452 C455 1.386 . S
H453 C469 0.930 . S
H454 C470 0.931 . S
C455 H443 0.929 . S
C455 C449 1.390 . S
C455 C452 1.386 . S
C456 C451 1.490 . S
C456 C458 1.395 . S
C456 C459 1.403 . S
H457 C463 0.930 . S
C458 H444 0.930 . S
C458 C456 1.395 . S
C458 C461 1.403 . S
C459 C456 1.403 . S
C459 C460 1.524 . S
C459 C463 1.400 . S
C460 H445 0.960 . S
C460 H446 0.960 . S
C460 H447 0.960 . S
C460 C459 1.524 . S
C461 C458 1.403 . S
C461 C462 1.392 . S
C461 C465 1.495 . S
C462 C461 1.392 . S
C462 C463 1.385 . S
C462 C464 1.478 . S
C463 H457 0.930 . S
C463 C459 1.400 . S
C463 C462 1.385 . S
C464 C462 1.478 . S
C464 C466 1.381 . S
C464 C470 1.383 . S
C465 C461 1.495 . S
C465 H471 0.959 . S
C465 H472 0.961 . S
C465 H473 0.960 . S
C466 C464 1.381 . S
C466 C467 1.394 . S
C466 H474 0.930 . S
C467 C466 1.394 . S
C467 C468 1.383 . S
C467 H475 0.929 . S
C468 C467 1.383 . S
C468 C469 1.377 . S
C469 H453 0.930 . S
C469 C468 1.377 . S
C469 C470 1.379 . S
C470 H454 0.931 . S
C470 C464 1.383 . S
C470 C469 1.379 . S
H471 C465 0.959 . S
H472 C465 0.961 . S
H473 C465 0.960 . S
H474 C466 0.930 . S
H475 C467 0.929 . S
H476 C484 0.929 . S
H477 C486 0.930 . S
H478 C488 0.930 . S
H479 C491 0.929 . S
H480 C494 0.930 . S
H481 C496 0.960 . S
H482 C496 0.960 . S
H483 C496 0.960 . S
C484 H476 0.929 . S
C484 C485 1.377 . S
C484 C486 1.384 . S
C485 C484 1.377 . S
C485 C491 1.390 . S
C486 H477 0.930 . S
C486 C484 1.384 . S
C486 C487 1.372 . S
C487 C486 1.372 . S
C487 C488 1.400 . S
C487 C492 1.490 . S
C488 H478 0.930 . S
C488 C487 1.400 . S
C488 C491 1.386 . S
H489 C505 0.930 . S
H490 C506 0.931 . S
C491 H479 0.929 . S
C491 C485 1.390 . S
C491 C488 1.386 . S
C492 C487 1.490 . S
C492 C494 1.395 . S
C492 C495 1.403 . S
H493 C499 0.930 . S
C494 H480 0.930 . S
C494 C492 1.395 . S
C494 C497 1.403 . S
C495 C492 1.403 . S
C495 C496 1.524 . S
C495 C499 1.400 . S
C496 H481 0.960 . S
C496 H482 0.960 . S
C496 H483 0.960 . S
C496 C495 1.524 . S
C497 C494 1.403 . S
C497 C498 1.392 . S
C497 C501 1.495 . S
C498 C497 1.392 . S
C498 C499 1.385 . S
C498 C500 1.478 . S
C499 H493 0.930 . S
C499 C495 1.400 . S
C499 C498 1.385 . S
C500 C498 1.478 . S
C500 C502 1.381 . S
C500 C506 1.383 . S
C501 C497 1.495 . S
C501 H507 0.959 . S
C501 H508 0.961 . S
C501 H509 0.960 . S
C502 C500 1.381 . S
C502 C503 1.394 . S
C502 H510 0.930 . S
C503 C502 1.394 . S
C503 C504 1.383 . S
C503 H511 0.929 . S
C504 C503 1.383 . S
C504 C505 1.377 . S
C505 H489 0.930 . S
C505 C504 1.377 . S
C505 C506 1.379 . S
C506 H490 0.931 . S
C506 C500 1.383 . S
C506 C505 1.379 . S
H507 C501 0.959 . S
H508 C501 0.961 . S
H509 C501 0.960 . S
H510 C502 0.930 . S
H511 C503 0.929 . S
H512 C520 0.929 1_565 S
H513 C522 0.930 . S
H514 C524 0.930 . S
H515 C527 0.929 . S
H516 C530 0.930 . S
H517 C532 0.960 . S
H518 C532 0.960 . S
H519 C532 0.960 1_554 S
C520 H512 0.929 1_545 S
C520 C521 1.377 . S
C520 C522 1.384 . S
C521 C520 1.377 . S
C521 C527 1.390 . S
C522 H513 0.930 . S
C522 C520 1.384 . S
C522 C523 1.372 . S
C523 C522 1.372 . S
C523 C524 1.400 . S
C523 C528 1.490 . S
C524 H514 0.930 . S
C524 C523 1.400 . S
C524 C527 1.386 . S
H525 C541 0.930 . S
H526 C542 0.931 . S
C527 H515 0.929 . S
C527 C521 1.390 . S
C527 C524 1.386 . S
C528 C523 1.490 . S
C528 C530 1.395 . S
C528 C531 1.403 . S
H529 C535 0.930 . S
C530 H516 0.930 . S
C530 C528 1.395 . S
C530 C533 1.403 . S
C531 C528 1.403 . S
C531 C532 1.524 1_554 S
C531 C535 1.400 1_554 S
C532 H517 0.960 . S
C532 H518 0.960 . S
C532 H519 0.960 1_556 S
C532 C531 1.524 1_556 S
C533 C530 1.403 . S
C533 C534 1.392 1_554 S
C533 C537 1.495 . S
C534 C533 1.392 1_556 S
C534 C535 1.385 . S
C534 C536 1.478 . S
C535 H529 0.930 . S
C535 C531 1.400 1_556 S
C535 C534 1.385 . S
C536 C534 1.478 . S
C536 C538 1.381 . S
C536 C542 1.383 . S
C537 C533 1.495 . S
C537 H543 0.959 . S
C537 H544 0.961 . S
C537 H545 0.960 . S
C538 C536 1.381 . S
C538 C539 1.394 . S
C538 H546 0.930 . S
C539 C538 1.394 . S
C539 C540 1.383 . S
C539 H547 0.929 . S
C540 C539 1.383 . S
C540 C541 1.377 . S
C541 H525 0.930 . S
C541 C540 1.377 . S
C541 C542 1.379 . S
C542 H526 0.931 . S
C542 C536 1.383 . S
C542 C541 1.379 . S
H543 C537 0.959 . S
H544 C537 0.961 . S
H545 C537 0.960 . S
H546 C538 0.930 . S
H547 C539 0.929 . S
H548 C556 0.929 . S
H549 C558 0.930 . S
H550 C560 0.930 . S
H551 C563 0.929 . S
H552 C566 0.930 . S
H553 C568 0.881 1_556 S
H554 C568 0.953 1_556 S
H555 C568 1.018 . S
C556 H548 0.929 . S
C556 C557 1.377 . S
C556 C558 1.384 . S
C557 C556 1.377 . S
C557 C563 1.390 . S
C558 H549 0.930 . S
C558 C556 1.384 . S
C558 C559 1.372 . S
C559 C558 1.372 . S
C559 C560 1.400 . S
C559 C564 1.490 . S
C560 H550 0.930 . S
C560 C559 1.400 . S
C560 C563 1.386 . S
H561 C577 0.930 . S
H562 C578 0.931 . S
C563 H551 0.929 . S
C563 C557 1.390 . S
C563 C560 1.386 . S
C564 C559 1.490 . S
C564 C566 1.395 . S
C564 C567 1.403 . S
H565 C571 0.949 . S
C566 H552 0.930 . S
C566 C564 1.395 . S
C566 C569 1.403 . S
C567 C564 1.403 . S
C567 C568 1.561 . S
C567 C571 1.389 1_554 S
C568 H553 0.881 1_554 S
C568 H554 0.953 1_554 S
C568 H555 1.018 . S
C568 C567 1.561 . S
C569 C566 1.403 . S
C569 C570 1.392 . S
C569 C573 1.495 . S
C570 C569 1.392 . S
C570 C571 1.379 1_554 S
C570 C572 1.478 1_554 S
C571 H565 0.949 . S
C571 C567 1.389 1_556 S
C571 C570 1.379 1_556 S
C572 C570 1.478 1_556 S
C572 C574 1.381 . S
C572 C578 1.383 . S
C573 C569 1.495 . S
C573 H579 0.959 . S
C573 H580 0.961 . S
C573 H581 0.960 . S
C574 C572 1.381 . S
C574 C575 1.394 . S
C574 H582 0.930 . S
C575 C574 1.394 . S
C575 C576 1.383 1_455 S
C575 H583 0.929 . S
C576 C575 1.383 1_655 S
C576 C577 1.377 . S
C577 H561 0.930 . S
C577 C576 1.377 . S
C577 C578 1.379 1_655 S
C578 H562 0.931 . S
C578 C572 1.383 . S
C578 C577 1.379 1_455 S
H579 C573 0.959 . S
H580 C573 0.961 . S
H581 C573 0.960 . S
H582 C574 0.930 . S
H583 C575 0.929 . S
H584 C592 0.929 . S
H585 C594 0.930 . S
H586 C596 0.930 . S
H587 C599 0.929 . S
H588 C602 0.930 . S
H589 C604 0.960 . S
H590 C604 0.960 . S
H591 C604 0.960 . S
C592 H584 0.929 . S
C592 C593 1.377 . S
C592 C594 1.384 . S
C593 C592 1.377 . S
C593 C599 1.390 . S
C594 H585 0.930 . S
C594 C592 1.384 . S
C594 C595 1.372 . S
C595 C594 1.372 . S
C595 C596 1.400 . S
C595 C600 1.490 . S
C596 H586 0.930 . S
C596 C595 1.400 . S
C596 C599 1.386 . S
H597 C613 0.930 . S
H598 C614 0.931 . S
C599 H587 0.929 . S
C599 C593 1.390 . S
C599 C596 1.386 . S
C600 C595 1.490 . S
C600 C602 1.395 . S
C600 C603 1.403 1_556 S
H601 C607 0.930 . S
C602 H588 0.930 . S
C602 C600 1.395 . S
C602 C605 1.408 . S
C603 C600 1.403 1_554 S
C603 C604 1.524 . S
C603 C607 1.400 . S
C604 H589 0.960 . S
C604 H590 0.960 . S
C604 H591 0.960 . S
C604 C603 1.524 . S
C605 C602 1.408 . S
C605 C606 1.386 1_556 S
C605 C609 1.497 . S
C606 C605 1.386 1_554 S
C606 C607 1.385 . S
C606 C608 1.478 . S
C607 H601 0.930 . S
C607 C603 1.400 . S
C607 C606 1.385 . S
C608 C606 1.478 . S
C608 C610 1.381 . S
C608 C614 1.383 . S
C609 C605 1.497 . S
C609 H615 0.959 . S
C609 H616 0.961 1_556 S
C609 H617 0.960 . S
C610 C608 1.381 . S
C610 C611 1.394 . S
C610 H618 0.930 . S
C611 C610 1.394 . S
C611 C612 1.383 . S
C611 H619 0.929 1_565 S
C612 C611 1.383 . S
C612 C613 1.377 . S
C613 H597 0.930 . S
C613 C612 1.377 . S
C613 C614 1.379 . S
C614 H598 0.931 . S
C614 C608 1.383 . S
C614 C613 1.379 . S
H615 C609 0.959 . S
H616 C609 0.961 1_554 S
H617 C609 0.960 . S
H618 C610 0.930 . S
H619 C611 0.929 1_545 S
H620 C628 0.929 . S
H621 C630 0.930 . S
H622 C632 0.930 . S
H623 C635 0.929 . S
H624 C638 0.930 . S
H625 C640 0.960 . S
H626 C640 0.960 . S
H627 C640 0.960 . S
C628 H620 0.929 . S
C628 C629 1.377 . S
C628 C630 1.384 . S
C629 C628 1.377 . S
C629 C635 1.390 . S
C630 H621 0.930 . S
C630 C628 1.384 . S
C630 C631 1.372 . S
C631 C630 1.372 . S
C631 C632 1.400 . S
C631 C636 1.490 . S
C632 H622 0.930 . S
C632 C631 1.400 . S
C632 C635 1.386 . S
H633 C649 0.930 . S
H634 C650 0.931 . S
C635 H623 0.929 . S
C635 C629 1.390 . S
C635 C632 1.386 . S
C636 C631 1.490 . S
C636 C638 1.395 . S
C636 C639 1.403 . S
H637 C643 0.930 . S
C638 H624 0.930 . S
C638 C636 1.395 . S
C638 C641 1.403 1_554 S
C639 C636 1.403 . S
C639 C640 1.524 . S
C639 C643 1.400 . S
C640 H625 0.960 . S
C640 H626 0.960 . S
C640 H627 0.960 . S
C640 C639 1.524 . S
C641 C638 1.403 1_556 S
C641 C642 1.378 1_556 S
C641 C645 1.495 . S
C642 C641 1.378 1_554 S
C642 C643 1.434 . S
C642 C644 1.446 1_554 S
C643 H637 0.930 . S
C643 C639 1.400 . S
C643 C642 1.434 . S
C644 C642 1.446 1_556 S
C644 C646 1.381 . S
C644 C650 1.383 . S
C645 C641 1.495 . S
C645 H651 0.959 . S
C645 H652 0.961 . S
C645 H653 0.960 . S
C646 C644 1.381 . S
C646 C647 1.394 1_655 S
C646 H654 0.930 . S
C647 C646 1.394 1_455 S
C647 C648 1.383 . S
C647 H655 0.929 . S
C648 C647 1.383 . S
C648 C649 1.377 1_455 S
C649 H633 0.930 . S
C649 C648 1.377 1_655 S
C649 C650 1.379 . S
C650 H634 0.931 . S
C650 C644 1.383 . S
C650 C649 1.379 . S
H651 C645 0.959 . S
H652 C645 0.961 . S
H653 C645 0.960 . S
H654 C646 0.930 . S
H655 C647 0.929 . S
H656 C664 0.929 . S
H657 C666 0.930 . S
H658 C668 0.930 . S
H659 C671 0.929 . S
H660 C674 0.930 . S
H661 C676 0.960 . S
H662 C676 0.960 . S
H663 C676 0.960 . S
C664 H656 0.929 . S
C664 C665 1.377 . S
C664 C666 1.384 . S
C665 C664 1.377 . S
C665 C671 1.390 . S
C666 H657 0.930 . S
C666 C664 1.384 . S
C666 C667 1.372 . S
C667 C666 1.372 . S
C667 C668 1.400 . S
C667 C672 1.490 . S
C668 H658 0.930 . S
C668 C667 1.400 . S
C668 C671 1.386 . S
H669 C685 0.930 . S
H670 C686 0.931 . S
C671 H659 0.929 . S
C671 C665 1.390 . S
C671 C668 1.386 . S
C672 C667 1.490 . S
C672 C674 1.395 . S
C672 C675 1.403 . S
H673 C679 0.930 . S
C674 H660 0.930 . S
C674 C672 1.395 . S
C674 C677 1.403 . S
C675 C672 1.403 . S
C675 C676 1.524 . S
C675 C679 1.400 . S
C676 H661 0.960 . S
C676 H662 0.960 . S
C676 H663 0.960 . S
C676 C675 1.524 . S
C677 C674 1.403 . S
C677 C678 1.392 . S
C677 C681 1.495 . S
C678 C677 1.392 . S
C678 C679 1.385 . S
C678 C680 1.478 . S
C679 H673 0.930 . S
C679 C675 1.400 . S
C679 C678 1.385 . S
C680 C678 1.478 . S
C680 C682 1.381 . S
C680 C686 1.383 . S
C681 C677 1.495 . S
C681 H687 0.959 . S
C681 H688 0.961 . S
C681 H689 0.960 . S
C682 C680 1.381 . S
C682 C683 1.394 . S
C682 H690 0.930 . S
C683 C682 1.394 . S
C683 C684 1.383 . S
C683 H691 0.929 1_565 S
C684 C683 1.383 . S
C684 C685 1.377 . S
C685 H669 0.930 . S
C685 C684 1.377 . S
C685 C686 1.379 . S
C686 H670 0.931 . S
C686 C680 1.383 . S
C686 C685 1.379 . S
H687 C681 0.959 . S
H688 C681 0.961 . S
H689 C681 0.960 . S
H690 C682 0.930 . S
H691 C683 0.929 1_545 S
H692 C700 0.929 . S
H693 C702 0.930 . S
H694 C704 0.930 . S
H695 C707 0.929 . S
H696 C710 0.930 . S
H697 C712 0.960 . S
H698 C712 0.960 . S
H699 C712 0.960 . S
C700 H692 0.929 . S
C700 C701 1.377 1_655 S
C700 C702 1.384 . S
C701 C700 1.377 1_455 S
C701 C707 1.390 . S
C702 H693 0.930 . S
C702 C700 1.384 . S
C702 C703 1.372 . S
C703 C702 1.372 . S
C703 C704 1.400 . S
C703 C708 1.490 . S
C704 H694 0.930 . S
C704 C703 1.400 . S
C704 C707 1.386 1_655 S
H705 C721 0.930 . S
H706 C722 0.931 . S
C707 H695 0.929 . S
C707 C701 1.390 . S
C707 C704 1.386 1_455 S
C708 C703 1.490 . S
C708 C710 1.395 . S
C708 C711 1.403 . S
H709 C715 0.930 . S
C710 H696 0.930 . S
C710 C708 1.395 . S
C710 C713 1.403 . S
C711 C708 1.403 . S
C711 C712 1.524 . S
C711 C715 1.400 . S
C712 H697 0.960 . S
C712 H698 0.960 . S
C712 H699 0.960 . S
C712 C711 1.524 . S
C713 C710 1.403 . S
C713 C714 1.392 . S
C713 C717 1.495 . S
C714 C713 1.392 . S
C714 C715 1.385 . S
C714 C716 1.478 . S
C715 H709 0.930 . S
C715 C711 1.400 . S
C715 C714 1.385 . S
C716 C714 1.478 . S
C716 C718 1.381 . S
C716 C722 1.383 . S
C717 C713 1.495 . S
C717 H723 0.959 . S
C717 H724 0.961 . S
C717 H725 0.960 . S
C718 C716 1.381 . S
C718 C719 1.394 . S
C718 H726 0.930 . S
C719 C718 1.394 . S
C719 C720 1.383 . S
C719 H727 0.929 . S
C720 C719 1.383 . S
C720 C721 1.377 . S
C721 H705 0.930 . S
C721 C720 1.377 . S
C721 C722 1.379 . S
C722 H706 0.931 . S
C722 C716 1.383 . S
C722 C721 1.379 . S
H723 C717 0.959 . S
H724 C717 0.961 . S
H725 C717 0.960 . S
H726 C718 0.930 . S
H727 C719 0.929 . S
H728 C736 0.929 . S
H729 C738 0.930 . S
H730 C740 0.930 . S
H731 C743 0.929 . S
H732 C746 0.930 . S
H733 C748 0.960 . S
H734 C748 0.960 . S
H735 C748 0.960 . S
C736 H728 0.929 . S
C736 C737 1.377 . S
C736 C738 1.384 . S
C737 C736 1.377 . S
C737 C743 1.390 . S
C738 H729 0.930 . S
C738 C736 1.384 . S
C738 C739 1.372 . S
C739 C738 1.372 . S
C739 C740 1.400 . S
C739 C744 1.490 . S
C740 H730 0.930 . S
C740 C739 1.400 . S
C740 C743 1.386 . S
H741 C757 0.930 . S
H742 C758 0.931 . S
C743 H731 0.929 . S
C743 C737 1.390 . S
C743 C740 1.386 . S
C744 C739 1.490 . S
C744 C746 1.395 . S
C744 C747 1.403 . S
H745 C751 0.930 . S
C746 H732 0.930 . S
C746 C744 1.395 . S
C746 C749 1.403 . S
C747 C744 1.403 . S
C747 C748 1.524 . S
C747 C751 1.400 . S
C748 H733 0.960 . S
C748 H734 0.960 . S
C748 H735 0.960 . S
C748 C747 1.524 . S
C749 C746 1.403 . S
C749 C750 1.392 . S
C749 C753 1.495 . S
C750 C749 1.392 . S
C750 C751 1.385 . S
C750 C752 1.478 . S
C751 H745 0.930 . S
C751 C747 1.400 . S
C751 C750 1.385 . S
C752 C750 1.478 . S
C752 C754 1.381 . S
C752 C758 1.383 . S
C753 C749 1.495 . S
C753 H759 0.959 . S
C753 H760 0.961 . S
C753 H761 0.960 . S
C754 C752 1.381 . S
C754 C755 1.394 . S
C754 H762 0.930 . S
C755 C754 1.394 . S
C755 C756 1.383 . S
C755 H763 0.929 . S
C756 C755 1.383 . S
C756 C757 1.377 . S
C757 H741 0.930 . S
C757 C756 1.377 . S
C757 C758 1.379 . S
C758 H742 0.931 . S
C758 C752 1.383 . S
C758 C757 1.379 . S
H759 C753 0.959 . S
H760 C753 0.961 . S
H761 C753 0.960 . S
H762 C754 0.930 . S
H763 C755 0.929 . S
H764 C772 0.929 . S
H765 C774 0.930 . S
H766 C776 0.930 . S
H767 C779 0.929 . S
H768 C782 0.930 . S
H769 C784 0.960 . S
H770 C784 0.960 . S
H771 C784 0.960 . S
C772 H764 0.929 . S
C772 C773 1.377 . S
C772 C774 1.384 1_655 S
C773 C772 1.377 . S
C773 C779 1.390 1_655 S
C774 H765 0.930 . S
C774 C772 1.384 1_455 S
C774 C775 1.372 . S
C775 C774 1.372 . S
C775 C776 1.400 . S
C775 C780 1.490 . S
C776 H766 0.930 . S
C776 C775 1.400 . S
C776 C779 1.386 . S
H777 C793 0.930 . S
H778 C794 0.931 . S
C779 H767 0.929 . S
C779 C773 1.390 1_455 S
C779 C776 1.386 . S
C780 C775 1.490 . S
C780 C782 1.395 . S
C780 C783 1.403 . S
H781 C787 0.930 . S
C782 H768 0.930 . S
C782 C780 1.395 . S
C782 C785 1.403 . S
C783 C780 1.403 . S
C783 C784 1.524 . S
C783 C787 1.400 . S
C784 H769 0.960 . S
C784 H770 0.960 . S
C784 H771 0.960 . S
C784 C783 1.524 . S
C785 C782 1.403 . S
C785 C786 1.392 . S
C785 C789 1.495 . S
C786 C785 1.392 . S
C786 C787 1.385 . S
C786 C788 1.478 . S
C787 H781 0.930 . S
C787 C783 1.400 . S
C787 C786 1.385 . S
C788 C786 1.478 . S
C788 C790 1.381 . S
C788 C794 1.383 . S
C789 C785 1.495 . S
C789 H795 0.959 . S
C789 H796 0.961 . S
C789 H797 0.960 . S
C790 C788 1.381 . S
C790 C791 1.394 . S
C790 H798 0.930 . S
C791 C790 1.394 . S
C791 C792 1.383 . S
C791 H799 0.929 . S
C792 C791 1.383 . S
C792 C793 1.377 . S
C793 H777 0.930 . S
C793 C792 1.377 . S
C793 C794 1.379 . S
C794 H778 0.931 . S
C794 C788 1.383 . S
C794 C793 1.379 . S
H795 C789 0.959 . S
H796 C789 0.961 . S
H797 C789 0.960 . S
H798 C790 0.930 . S
H799 C791 0.929 . S
H800 C808 0.929 . S
H801 C810 0.930 . S
H802 C812 0.930 . S
H803 C815 0.929 . S
H804 C818 0.930 . S
H805 C820 0.960 . S
H806 C820 0.960 . S
H807 C820 0.960 . S
C808 H800 0.929 . S
C808 C809 1.377 . S
C808 C810 1.384 . S
C809 C808 1.377 . S
C809 C815 1.390 . S
C810 H801 0.930 . S
C810 C808 1.384 . S
C810 C811 1.372 . S
C811 C810 1.372 . S
C811 C812 1.400 . S
C811 C816 1.490 . S
C812 H802 0.930 . S
C812 C811 1.400 . S
C812 C815 1.386 . S
H813 C829 0.930 . S
H814 C830 0.931 . S
C815 H803 0.929 . S
C815 C809 1.390 . S
C815 C812 1.386 . S
C816 C811 1.490 . S
C816 C818 1.395 . S
C816 C819 1.403 . S
H817 C823 0.930 . S
C818 H804 0.930 . S
C818 C816 1.395 . S
C818 C821 1.403 . S
C819 C816 1.403 . S
C819 C820 1.524 . S
C819 C823 1.400 . S
C820 H805 0.960 . S
C820 H806 0.960 . S
C820 H807 0.960 . S
C820 C819 1.524 . S
C821 C818 1.403 . S
C821 C822 1.392 . S
C821 C825 1.495 . S
C822 C821 1.392 . S
C822 C823 1.385 . S
C822 C824 1.478 . S
C823 H817 0.930 . S
C823 C819 1.400 . S
C823 C822 1.385 . S
C824 C822 1.478 . S
C824 C826 1.381 . S
C824 C830 1.383 . S
C825 C821 1.495 . S
C825 H831 0.959 . S
C825 H832 0.961 . S
C825 H833 0.960 . S
C826 C824 1.381 . S
C826 C827 1.394 . S
C826 H834 0.930 . S
C827 C826 1.394 . S
C827 C828 1.383 . S
C827 H835 0.929 . S
C828 C827 1.383 . S
C828 C829 1.377 . S
C829 H813 0.930 . S
C829 C828 1.377 . S
C829 C830 1.379 . S
C830 H814 0.931 . S
C830 C824 1.383 . S
C830 C829 1.379 . S
H831 C825 0.959 . S
H832 C825 0.961 . S
H833 C825 0.960 . S
H834 C826 0.930 . S
H835 C827 0.929 . S
H836 C844 0.929 . S
H837 C846 0.930 . S
H838 C848 0.930 . S
H839 C851 0.929 . S
H840 C854 0.930 . S
H841 C856 0.960 . S
H842 C856 0.960 . S
H843 C856 0.960 . S
C844 H836 0.929 . S
C844 C845 1.377 . S
C844 C846 1.384 . S
C845 C844 1.377 . S
C845 C851 1.390 . S
C846 H837 0.930 . S
C846 C844 1.384 . S
C846 C847 1.372 . S
C847 C846 1.372 . S
C847 C848 1.400 . S
C847 C852 1.490 . S
C848 H838 0.930 . S
C848 C847 1.400 . S
C848 C851 1.386 . S
H849 C865 0.930 . S
H850 C866 0.931 . S
C851 H839 0.929 . S
C851 C845 1.390 . S
C851 C848 1.386 . S
C852 C847 1.490 . S
C852 C854 1.395 . S
C852 C855 1.403 . S
H853 C859 0.930 . S
C854 H840 0.930 . S
C854 C852 1.395 . S
C854 C857 1.403 . S
C855 C852 1.403 . S
C855 C856 1.524 . S
C855 C859 1.400 . S
C856 H841 0.960 . S
C856 H842 0.960 . S
C856 H843 0.960 . S
C856 C855 1.524 . S
C857 C854 1.403 . S
C857 C858 1.392 . S
C857 C861 1.495 . S
C858 C857 1.392 . S
C858 C859 1.385 . S
C858 C860 1.478 . S
C859 H853 0.930 . S
C859 C855 1.400 . S
C859 C858 1.385 . S
C860 C858 1.478 . S
C860 C862 1.381 . S
C860 C866 1.383 . S
C861 C857 1.495 . S
C861 H867 0.959 . S
C861 H868 0.961 . S
C861 H869 0.960 . S
C862 C860 1.381 . S
C862 C863 1.394 . S
C862 H870 0.930 . S
C863 C862 1.394 . S
C863 C864 1.383 . S
C863 H871 0.929 . S
C864 C863 1.383 . S
C864 C865 1.377 . S
C865 H849 0.930 . S
C865 C864 1.377 . S
C865 C866 1.379 . S
C866 H850 0.931 . S
C866 C860 1.383 . S
C866 C865 1.379 . S
H867 C861 0.959 . S
H868 C861 0.961 . S
H869 C861 0.960 . S
H870 C862 0.930 . S
H871 C863 0.929 . S
H872 C880 0.929 . S
H873 C882 0.930 . S
H874 C884 0.930 . S
H875 C887 0.929 . S
H876 C890 0.930 . S
H877 C892 0.960 . S
H878 C892 0.960 . S
H879 C892 0.960 . S
C880 H872 0.929 . S
C880 C881 1.377 . S
C880 C882 1.384 . S
C881 C880 1.377 . S
C881 C887 1.390 . S
C882 H873 0.930 . S
C882 C880 1.384 . S
C882 C883 1.372 . S
C883 C882 1.372 . S
C883 C884 1.400 . S
C883 C888 1.490 . S
C884 H874 0.930 . S
C884 C883 1.400 . S
C884 C887 1.386 . S
H885 C901 0.930 . S
H886 C902 0.931 . S
C887 H875 0.929 . S
C887 C881 1.390 . S
C887 C884 1.386 . S
C888 C883 1.490 . S
C888 C890 1.395 . S
C888 C891 1.403 . S
H889 C895 0.930 . S
C890 H876 0.930 . S
C890 C888 1.395 . S
C890 C893 1.403 . S
C891 C888 1.403 . S
C891 C892 1.524 . S
C891 C895 1.400 . S
C892 H877 0.960 . S
C892 H878 0.960 . S
C892 H879 0.960 . S
C892 C891 1.524 . S
C893 C890 1.403 . S
C893 C894 1.392 . S
C893 C897 1.495 . S
C894 C893 1.392 . S
C894 C895 1.385 . S
C894 C896 1.478 . S
C895 H889 0.930 . S
C895 C891 1.400 . S
C895 C894 1.385 . S
C896 C894 1.478 . S
C896 C898 1.381 . S
C896 C902 1.383 . S
C897 C893 1.495 . S
C897 H903 0.959 . S
C897 H904 0.961 . S
C897 H905 0.960 . S
C898 C896 1.381 . S
C898 C899 1.394 . S
C898 H906 0.930 . S
C899 C898 1.394 . S
C899 C900 1.383 . S
C899 H907 0.929 . S
C900 C899 1.383 . S
C900 C901 1.377 . S
C901 H885 0.930 . S
C901 C900 1.377 . S
C901 C902 1.379 . S
C902 H886 0.931 . S
C902 C896 1.383 . S
C902 C901 1.379 . S
H903 C897 0.959 . S
H904 C897 0.961 . S
H905 C897 0.960 . S
H906 C898 0.930 . S
H907 C899 0.929 . S
H908 C916 0.929 . S
H909 C918 0.930 . S
H910 C920 0.930 . S
H911 C923 0.929 . S
H912 C926 0.930 . S
H913 C928 0.960 . S
H914 C928 0.960 . S
H915 C928 0.960 . S
C916 H908 0.929 . S
C916 C917 1.377 . S
C916 C918 1.384 . S
C917 C916 1.377 . S
C917 C923 1.390 . S
C918 H909 0.930 . S
C918 C916 1.384 . S
C918 C919 1.372 . S
C919 C918 1.372 . S
C919 C920 1.400 . S
C919 C924 1.490 . S
C920 H910 0.930 . S
C920 C919 1.400 . S
C920 C923 1.386 . S
H921 C937 0.930 . S
H922 C938 0.931 . S
C923 H911 0.929 . S
C923 C917 1.390 . S
C923 C920 1.386 . S
C924 C919 1.490 . S
C924 C926 1.395 . S
C924 C927 1.403 . S
H925 C931 0.930 . S
C926 H912 0.930 . S
C926 C924 1.395 . S
C926 C929 1.403 . S
C927 C924 1.403 . S
C927 C928 1.524 . S
C927 C931 1.400 . S
C928 H913 0.960 . S
C928 H914 0.960 . S
C928 H915 0.960 . S
C928 C927 1.524 . S
C929 C926 1.403 . S
C929 C930 1.392 . S
C929 C933 1.495 . S
C930 C929 1.392 . S
C930 C931 1.385 . S
C930 C932 1.478 . S
C931 H925 0.930 . S
C931 C927 1.400 . S
C931 C930 1.385 . S
C932 C930 1.478 . S
C932 C934 1.381 . S
C932 C938 1.383 . S
C933 C929 1.495 . S
C933 H939 0.959 . S
C933 H940 0.961 . S
C933 H941 0.960 . S
C934 C932 1.381 . S
C934 C935 1.394 . S
C934 H942 0.930 . S
C935 C934 1.394 . S
C935 C936 1.383 . S
C935 H943 0.929 . S
C936 C935 1.383 . S
C936 C937 1.377 . S
C937 H921 0.930 . S
C937 C936 1.377 . S
C937 C938 1.379 . S
C938 H922 0.931 . S
C938 C932 1.383 . S
C938 C937 1.379 . S
H939 C933 0.959 . S
H940 C933 0.961 . S
H941 C933 0.960 . S
H942 C934 0.930 . S
H943 C935 0.929 . S
H944 C952 0.929 . S
H945 C954 0.930 . S
H946 C956 0.930 . S
H947 C959 0.929 . S
H948 C962 0.930 . S
H949 C964 0.960 . S
H950 C964 0.960 . S
H951 C964 0.960 . S
C952 H944 0.929 . S
C952 C953 1.377 . S
C952 C954 1.384 . S
C953 C952 1.377 . S
C953 C959 1.390 . S
C954 H945 0.930 . S
C954 C952 1.384 . S
C954 C955 1.372 . S
C955 C954 1.372 . S
C955 C956 1.400 . S
C955 C960 1.490 . S
C956 H946 0.930 . S
C956 C955 1.400 . S
C956 C959 1.386 . S
H957 C973 0.930 . S
H958 C974 0.931 . S
C959 H947 0.929 . S
C959 C953 1.390 . S
C959 C956 1.386 . S
C960 C955 1.490 . S
C960 C962 1.395 . S
C960 C963 1.403 . S
H961 C967 0.930 . S
C962 H948 0.930 . S
C962 C960 1.395 . S
C962 C965 1.403 . S
C963 C960 1.403 . S
C963 C964 1.524 . S
C963 C967 1.400 . S
C964 H949 0.960 . S
C964 H950 0.960 . S
C964 H951 0.960 . S
C964 C963 1.524 . S
C965 C962 1.403 . S
C965 C966 1.392 . S
C965 C969 1.495 . S
C966 C965 1.392 . S
C966 C967 1.385 . S
C966 C968 1.478 . S
C967 H961 0.930 . S
C967 C963 1.400 . S
C967 C966 1.385 . S
C968 C966 1.478 . S
C968 C970 1.381 . S
C968 C974 1.383 . S
C969 C965 1.495 . S
C969 H975 0.959 . S
C969 H976 0.961 . S
C969 H977 0.960 . S
C970 C968 1.381 . S
C970 C971 1.394 . S
C970 H978 0.930 . S
C971 C970 1.394 . S
C971 C972 1.383 . S
C971 H979 0.929 . S
C972 C971 1.383 . S
C972 C973 1.377 . S
C973 H957 0.930 . S
C973 C972 1.377 . S
C973 C974 1.379 . S
C974 H958 0.931 . S
C974 C968 1.383 . S
C974 C973 1.379 . S
H975 C969 0.959 . S
H976 C969 0.961 . S
H977 C969 0.960 . S
H978 C970 0.930 . S
H979 C971 0.929 . S
H980 C988 0.929 . S
H981 C990 0.930 . S
H982 C992 0.930 . S
H983 C995 0.929 . S
H984 C998 0.930 . S
H985 C1000 0.960 . S
H986 C1000 0.960 . S
H987 C1000 0.960 . S
C988 H980 0.929 . S
C988 C989 1.377 . S
C988 C990 1.384 . S
C989 C988 1.377 . S
C989 C995 1.390 . S
C990 H981 0.930 . S
C990 C988 1.384 . S
C990 C991 1.372 . S
C991 C990 1.372 . S
C991 C992 1.400 . S
C991 C996 1.490 . S
C992 H982 0.930 . S
C992 C991 1.400 . S
C992 C995 1.386 . S
H993 C1009 0.930 . S
H994 C1010 0.931 . S
C995 H983 0.929 . S
C995 C989 1.390 . S
C995 C992 1.386 . S
C996 C991 1.490 . S
C996 C998 1.395 . S
C996 C999 1.403 . S
H997 C1003 0.930 . S
C998 H984 0.930 . S
C998 C996 1.395 . S
C998 C1001 1.403 . S
C999 C996 1.403 . S
C999 C1000 1.524 . S
C999 C1003 1.400 . S
C1000 H985 0.960 . S
C1000 H986 0.960 . S
C1000 H987 0.960 . S
C1000 C999 1.524 . S
C1001 C998 1.403 . S
C1001 C1002 1.392 . S
C1001 C1005 1.495 . S
C1002 C1001 1.392 . S
C1002 C1003 1.385 . S
C1002 C1004 1.478 . S
C1003 H997 0.930 . S
C1003 C999 1.400 . S
C1003 C1002 1.385 . S
C1004 C1002 1.478 . S
C1004 C1006 1.381 . S
C1004 C1010 1.383 . S
C1005 C1001 1.495 . S
C1005 H1011 0.959 . S
C1005 H1012 0.961 . S
C1005 H1013 0.960 . S
C1006 C1004 1.381 . S
C1006 C1007 1.394 . S
C1006 H1014 0.930 . S
C1007 C1006 1.394 . S
C1007 C1008 1.383 . S
C1007 H1015 0.929 . S
C1008 C1007 1.383 . S
C1008 C1009 1.377 . S
C1009 H993 0.930 . S
C1009 C1008 1.377 . S
C1009 C1010 1.379 . S
C1010 H994 0.931 . S
C1010 C1004 1.383 . S
C1010 C1009 1.379 . S
H1011 C1005 0.959 . S
H1012 C1005 0.961 . S
H1013 C1005 0.960 . S
H1014 C1006 0.930 . S
H1015 C1007 0.929 . S
H1016 C1024 0.929 . S
H1017 C1026 0.930 . S
H1018 C1028 0.930 . S
H1019 C1031 0.929 . S
H1020 C1034 0.930 . S
H1021 C1036 0.960 . S
H1022 C1036 0.960 . S
H1023 C1036 0.960 . S
C1024 H1016 0.929 . S
C1024 C1025 1.377 . S
C1024 C1026 1.384 . S
C1025 C1024 1.377 . S
C1025 C1031 1.390 . S
C1026 H1017 0.930 . S
C1026 C1024 1.384 . S
C1026 C1027 1.372 . S
C1027 C1026 1.372 . S
C1027 C1028 1.400 . S
C1027 C1032 1.490 . S
C1028 H1018 0.930 . S
C1028 C1027 1.400 . S
C1028 C1031 1.386 . S
H1029 C1045 0.930 . S
H1030 C1046 0.931 . S
C1031 H1019 0.929 . S
C1031 C1025 1.390 . S
C1031 C1028 1.386 . S
C1032 C1027 1.490 . S
C1032 C1034 1.395 . S
C1032 C1035 1.403 . S
H1033 C1039 0.930 . S
C1034 H1020 0.930 . S
C1034 C1032 1.395 . S
C1034 C1037 1.403 . S
C1035 C1032 1.403 . S
C1035 C1036 1.524 . S
C1035 C1039 1.400 . S
C1036 H1021 0.960 . S
C1036 H1022 0.960 . S
C1036 H1023 0.960 . S
C1036 C1035 1.524 . S
C1037 C1034 1.403 . S
C1037 C1038 1.392 . S
C1037 C1041 1.495 . S
C1038 C1037 1.392 . S
C1038 C1039 1.385 . S
C1038 C1040 1.478 . S
C1039 H1033 0.930 . S
C1039 C1035 1.400 . S
C1039 C1038 1.385 . S
C1040 C1038 1.478 . S
C1040 C1042 1.381 . S
C1040 C1046 1.383 . S
C1041 C1037 1.495 . S
C1041 H1047 0.959 . S
C1041 H1048 0.961 . S
C1041 H1049 0.960 . S
C1042 C1040 1.381 . S
C1042 C1043 1.394 . S
C1042 H1050 0.930 . S
C1043 C1042 1.394 . S
C1043 C1044 1.383 . S
C1043 H1051 0.929 . S
C1044 C1043 1.383 . S
C1044 C1045 1.377 . S
C1045 H1029 0.930 . S
C1045 C1044 1.377 . S
C1045 C1046 1.379 . S
C1046 H1030 0.931 . S
C1046 C1040 1.383 . S
C1046 C1045 1.379 . S
H1047 C1041 0.959 . S
H1048 C1041 0.961 . S
H1049 C1041 0.960 . S
H1050 C1042 0.930 . S
H1051 C1043 0.929 . S
H1052 C1060 0.929 . S
H1053 C1062 0.930 . S
H1054 C1064 0.930 . S
H1055 C1067 0.929 . S
H1056 C1070 0.930 . S
H1057 C1072 0.960 . S
H1058 C1072 0.960 . S
H1059 C1072 0.960 . S
C1060 H1052 0.929 . S
C1060 C1061 1.377 . S
C1060 C1062 1.384 . S
C1061 C1060 1.377 . S
C1061 C1067 1.390 . S
C1062 H1053 0.930 . S
C1062 C1060 1.384 . S
C1062 C1063 1.372 . S
C1063 C1062 1.372 . S
C1063 C1064 1.400 . S
C1063 C1068 1.490 . S
C1064 H1054 0.930 . S
C1064 C1063 1.400 . S
C1064 C1067 1.386 . S
H1065 C1081 0.930 . S
H1066 C1082 0.931 . S
C1067 H1055 0.929 . S
C1067 C1061 1.390 . S
C1067 C1064 1.386 . S
C1068 C1063 1.490 . S
C1068 C1070 1.395 . S
C1068 C1071 1.403 . S
H1069 C1075 0.930 . S
C1070 H1056 0.930 . S
C1070 C1068 1.395 . S
C1070 C1073 1.403 . S
C1071 C1068 1.403 . S
C1071 C1072 1.524 . S
C1071 C1075 1.400 . S
C1072 H1057 0.960 . S
C1072 H1058 0.960 . S
C1072 H1059 0.960 . S
C1072 C1071 1.524 . S
C1073 C1070 1.403 . S
C1073 C1074 1.392 . S
C1073 C1077 1.495 . S
C1074 C1073 1.392 . S
C1074 C1075 1.385 . S
C1074 C1076 1.478 . S
C1075 H1069 0.930 . S
C1075 C1071 1.400 . S
C1075 C1074 1.385 . S
C1076 C1074 1.478 . S
C1076 C1078 1.381 . S
C1076 C1082 1.383 . S
C1077 C1073 1.495 . S
C1077 H1083 0.959 . S
C1077 H1084 0.961 . S
C1077 H1085 0.960 . S
C1078 C1076 1.381 . S
C1078 C1079 1.394 . S
C1078 H1086 0.930 . S
C1079 C1078 1.394 . S
C1079 C1080 1.383 . S
C1079 H1087 0.929 . S
C1080 C1079 1.383 . S
C1080 C1081 1.377 . S
C1081 H1065 0.930 . S
C1081 C1080 1.377 . S
C1081 C1082 1.379 . S
C1082 H1066 0.931 . S
C1082 C1076 1.383 . S
C1082 C1081 1.379 . S
H1083 C1077 0.959 . S
H1084 C1077 0.961 . S
H1085 C1077 0.960 . S
H1086 C1078 0.930 . S
H1087 C1079 0.929 . S
H1088 C1096 0.929 . S
H1089 C1098 0.930 . S
H1090 C1100 0.930 . S
H1091 C1103 0.929 . S
H1092 C1106 0.930 . S
H1093 C1108 0.960 . S
H1094 C1108 0.960 . S
H1095 C1108 0.960 . S
C1096 H1088 0.929 . S
C1096 C1097 1.377 . S
C1096 C1098 1.384 . S
C1097 C1096 1.377 . S
C1097 C1103 1.390 . S
C1098 H1089 0.930 . S
C1098 C1096 1.384 . S
C1098 C1099 1.372 . S
C1099 C1098 1.372 . S
C1099 C1100 1.400 . S
C1099 C1104 1.490 . S
C1100 H1090 0.930 . S
C1100 C1099 1.400 . S
C1100 C1103 1.386 . S
H1101 C1117 0.930 . S
H1102 C1118 0.931 . S
C1103 H1091 0.929 . S
C1103 C1097 1.390 . S
C1103 C1100 1.386 . S
C1104 C1099 1.490 . S
C1104 C1106 1.395 . S
C1104 C1107 1.403 . S
H1105 C1111 0.930 . S
C1106 H1092 0.930 . S
C1106 C1104 1.395 . S
C1106 C1109 1.403 . S
C1107 C1104 1.403 . S
C1107 C1108 1.524 . S
C1107 C1111 1.400 . S
C1108 H1093 0.960 . S
C1108 H1094 0.960 . S
C1108 H1095 0.960 . S
C1108 C1107 1.524 . S
C1109 C1106 1.403 . S
C1109 C1110 1.392 . S
C1109 C1113 1.495 . S
C1110 C1109 1.392 . S
C1110 C1111 1.385 . S
C1110 C1112 1.478 . S
C1111 H1105 0.930 . S
C1111 C1107 1.400 . S
C1111 C1110 1.385 . S
C1112 C1110 1.478 . S
C1112 C1114 1.381 . S
C1112 C1118 1.383 . S
C1113 C1109 1.495 . S
C1113 H1119 0.959 . S
C1113 H1120 0.961 . S
C1113 H1121 0.960 . S
C1114 C1112 1.381 . S
C1114 C1115 1.394 . S
C1114 H1122 0.930 . S
C1115 C1114 1.394 . S
C1115 C1116 1.383 . S
C1115 H1123 0.929 . S
C1116 C1115 1.383 . S
C1116 C1117 1.377 . S
C1117 H1101 0.930 . S
C1117 C1116 1.377 . S
C1117 C1118 1.379 . S
C1118 H1102 0.931 . S
C1118 C1112 1.383 . S
C1118 C1117 1.379 . S
H1119 C1113 0.959 . S
H1120 C1113 0.961 . S
H1121 C1113 0.960 . S
H1122 C1114 0.930 . S
H1123 C1115 0.929 . S
H1124 C1132 0.929 . S
H1125 C1134 0.930 . S
H1126 C1136 0.930 . S
H1127 C1139 0.929 . S
H1128 C1142 0.930 . S
H1129 C1144 0.960 . S
H1130 C1144 0.960 . S
H1131 C1144 0.960 . S
C1132 H1124 0.929 . S
C1132 C1133 1.377 . S
C1132 C1134 1.384 . S
C1133 C1132 1.377 . S
C1133 C1139 1.390 . S
C1134 H1125 0.930 . S
C1134 C1132 1.384 . S
C1134 C1135 1.372 . S
C1135 C1134 1.372 . S
C1135 C1136 1.400 . S
C1135 C1140 1.490 . S
C1136 H1126 0.930 . S
C1136 C1135 1.400 . S
C1136 C1139 1.386 . S
H1137 C1153 0.930 . S
H1138 C1154 0.931 . S
C1139 H1127 0.929 . S
C1139 C1133 1.390 . S
C1139 C1136 1.386 . S
C1140 C1135 1.490 . S
C1140 C1142 1.395 . S
C1140 C1143 1.403 . S
H1141 C1147 0.930 . S
C1142 H1128 0.930 . S
C1142 C1140 1.395 . S
C1142 C1145 1.403 . S
C1143 C1140 1.403 . S
C1143 C1144 1.524 . S
C1143 C1147 1.400 . S
C1144 H1129 0.960 . S
C1144 H1130 0.960 . S
C1144 H1131 0.960 . S
C1144 C1143 1.524 . S
C1145 C1142 1.403 . S
C1145 C1146 1.392 . S
C1145 C1149 1.495 . S
C1146 C1145 1.392 . S
C1146 C1147 1.385 . S
C1146 C1148 1.478 . S
C1147 H1141 0.930 . S
C1147 C1143 1.400 . S
C1147 C1146 1.385 . S
C1148 C1146 1.478 . S
C1148 C1150 1.381 . S
C1148 C1154 1.383 . S
C1149 C1145 1.495 . S
C1149 H1155 0.959 . S
C1149 H1156 0.961 . S
C1149 H1157 0.960 . S
C1150 C1148 1.381 . S
C1150 C1151 1.394 . S
C1150 H1158 0.930 . S
C1151 C1150 1.394 . S
C1151 C1152 1.383 . S
C1151 H1159 0.929 . S
C1152 C1151 1.383 . S
C1152 C1153 1.377 . S
C1153 H1137 0.930 . S
C1153 C1152 1.377 . S
C1153 C1154 1.379 . S
C1154 H1138 0.931 . S
C1154 C1148 1.383 . S
C1154 C1153 1.379 . S
H1155 C1149 0.959 . S
H1156 C1149 0.961 . S
H1157 C1149 0.960 . S
H1158 C1150 0.930 . S
H1159 C1151 0.929 . S
H1160 C1168 0.929 . S
H1161 C1170 0.930 . S
H1162 C1172 0.930 . S
H1163 C1175 0.929 . S
H1164 C1178 0.930 . S
H1165 C1180 0.960 . S
H1166 C1180 0.960 . S
H1167 C1180 0.960 . S
C1168 H1160 0.929 . S
C1168 C1169 1.377 . S
C1168 C1170 1.384 . S
C1169 C1168 1.377 . S
C1169 C1175 1.390 . S
C1170 H1161 0.930 . S
C1170 C1168 1.384 . S
C1170 C1171 1.372 . S
C1171 C1170 1.372 . S
C1171 C1172 1.400 . S
C1171 C1176 1.490 . S
C1172 H1162 0.930 . S
C1172 C1171 1.400 . S
C1172 C1175 1.386 . S
H1173 C1189 0.930 . S
H1174 C1190 0.931 . S
C1175 H1163 0.929 . S
C1175 C1169 1.390 . S
C1175 C1172 1.386 . S
C1176 C1171 1.490 . S
C1176 C1178 1.395 . S
C1176 C1179 1.403 . S
H1177 C1183 0.930 . S
C1178 H1164 0.930 . S
C1178 C1176 1.395 . S
C1178 C1181 1.403 . S
C1179 C1176 1.403 . S
C1179 C1180 1.524 . S
C1179 C1183 1.400 . S
C1180 H1165 0.960 . S
C1180 H1166 0.960 . S
C1180 H1167 0.960 . S
C1180 C1179 1.524 . S
C1181 C1178 1.403 . S
C1181 C1182 1.392 . S
C1181 C1185 1.495 . S
C1182 C1181 1.392 . S
C1182 C1183 1.385 . S
C1182 C1184 1.478 . S
C1183 H1177 0.930 . S
C1183 C1179 1.400 . S
C1183 C1182 1.385 . S
C1184 C1182 1.478 . S
C1184 C1186 1.381 . S
C1184 C1190 1.383 . S
C1185 C1181 1.495 . S
C1185 H1191 0.959 . S
C1185 H1192 0.961 . S
C1185 H1193 0.960 . S
C1186 C1184 1.381 . S
C1186 C1187 1.394 . S
C1186 H1194 0.930 . S
C1187 C1186 1.394 . S
C1187 C1188 1.383 . S
C1187 H1195 0.929 . S
C1188 C1187 1.383 . S
C1188 C1189 1.377 . S
C1189 H1173 0.930 . S
C1189 C1188 1.377 . S
C1189 C1190 1.379 . S
C1190 H1174 0.931 . S
C1190 C1184 1.383 . S
C1190 C1189 1.379 . S
H1191 C1185 0.959 . S
H1192 C1185 0.961 . S
H1193 C1185 0.960 . S
H1194 C1186 0.930 . S
H1195 C1187 0.929 . S
H1196 C1204 0.929 . S
H1197 C1206 0.930 . S
H1198 C1208 0.930 . S
H1199 C1211 0.929 . S
H1200 C1214 0.930 . S
H1201 C1216 0.960 . S
H1202 C1216 0.960 . S
H1203 C1216 0.960 . S
C1204 H1196 0.929 . S
C1204 C1205 1.377 . S
C1204 C1206 1.384 . S
C1205 C1204 1.377 . S
C1205 C1211 1.390 . S
C1206 H1197 0.930 . S
C1206 C1204 1.384 . S
C1206 C1207 1.372 . S
C1207 C1206 1.372 . S
C1207 C1208 1.400 . S
C1207 C1212 1.490 . S
C1208 H1198 0.930 . S
C1208 C1207 1.400 . S
C1208 C1211 1.386 . S
H1209 C1225 0.930 . S
H1210 C1226 0.931 . S
C1211 H1199 0.929 . S
C1211 C1205 1.390 . S
C1211 C1208 1.386 . S
C1212 C1207 1.490 . S
C1212 C1214 1.395 . S
C1212 C1215 1.403 . S
H1213 C1219 0.930 . S
C1214 H1200 0.930 . S
C1214 C1212 1.395 . S
C1214 C1217 1.403 . S
C1215 C1212 1.403 . S
C1215 C1216 1.524 . S
C1215 C1219 1.400 . S
C1216 H1201 0.960 . S
C1216 H1202 0.960 . S
C1216 H1203 0.960 . S
C1216 C1215 1.524 . S
C1217 C1214 1.403 . S
C1217 C1218 1.392 . S
C1217 C1221 1.495 . S
C1218 C1217 1.392 . S
C1218 C1219 1.385 . S
C1218 C1220 1.478 . S
C1219 H1213 0.930 . S
C1219 C1215 1.400 . S
C1219 C1218 1.385 . S
C1220 C1218 1.478 . S
C1220 C1222 1.381 . S
C1220 C1226 1.383 . S
C1221 C1217 1.495 . S
C1221 H1227 0.959 . S
C1221 H1228 0.961 . S
C1221 H1229 0.960 . S
C1222 C1220 1.381 . S
C1222 C1223 1.394 . S
C1222 H1230 0.930 . S
C1223 C1222 1.394 . S
C1223 C1224 1.383 . S
C1223 H1231 0.929 . S
C1224 C1223 1.383 . S
C1224 C1225 1.377 . S
C1225 H1209 0.930 . S
C1225 C1224 1.377 . S
C1225 C1226 1.379 . S
C1226 H1210 0.931 . S
C1226 C1220 1.383 . S
C1226 C1225 1.379 . S
H1227 C1221 0.959 . S
H1228 C1221 0.961 . S
H1229 C1221 0.960 . S
H1230 C1222 0.930 . S
H1231 C1223 0.929 . S
H1232 C1240 0.929 . S
H1233 C1242 0.930 . S
H1234 C1244 0.930 . S
H1235 C1247 0.929 . S
H1236 C1250 0.930 . S
H1237 C1252 0.960 . S
H1238 C1252 0.960 . S
H1239 C1252 0.960 . S
C1240 H1232 0.929 . S
C1240 C1241 1.377 . S
C1240 C1242 1.384 . S
C1241 C1240 1.377 . S
C1241 C1247 1.390 . S
C1242 H1233 0.930 . S
C1242 C1240 1.384 . S
C1242 C1243 1.372 . S
C1243 C1242 1.372 . S
C1243 C1244 1.400 . S
C1243 C1248 1.490 . S
C1244 H1234 0.930 . S
C1244 C1243 1.400 . S
C1244 C1247 1.386 . S
H1245 C1261 0.930 . S
H1246 C1262 0.931 . S
C1247 H1235 0.929 . S
C1247 C1241 1.390 . S
C1247 C1244 1.386 . S
C1248 C1243 1.490 . S
C1248 C1250 1.395 . S
C1248 C1251 1.403 1_655 S
H1249 C1255 0.930 . S
C1250 H1236 0.930 . S
C1250 C1248 1.395 . S
C1250 C1253 1.403 1_565 S
C1251 C1248 1.403 1_455 S
C1251 C1252 1.524 . S
C1251 C1255 1.400 1_565 S
C1252 H1237 0.960 . S
C1252 H1238 0.960 . S
C1252 H1239 0.960 . S
C1252 C1251 1.524 . S
C1253 C1250 1.403 1_545 S
C1253 C1254 1.392 1_655 S
C1253 C1257 1.495 . S
C1254 C1253 1.392 1_455 S
C1254 C1255 1.385 . S
C1254 C1256 1.478 . S
C1255 H1249 0.930 . S
C1255 C1251 1.400 1_545 S
C1255 C1254 1.385 . S
C1256 C1254 1.478 . S
C1256 C1258 1.381 . S
C1256 C1262 1.383 . S
C1257 C1253 1.495 . S
C1257 H1263 0.959 . S
C1257 H1264 0.961 . S
C1257 H1265 0.960 . S
C1258 C1256 1.381 . S
C1258 C1259 1.394 . S
C1258 H1266 0.930 . S
C1259 C1258 1.394 . S
C1259 C1260 1.383 . S
C1259 H1267 0.929 . S
C1260 C1259 1.383 . S
C1260 C1261 1.377 . S
C1261 H1245 0.930 . S
C1261 C1260 1.377 . S
C1261 C1262 1.379 . S
C1262 H1246 0.931 . S
C1262 C1256 1.383 . S
C1262 C1261 1.379 . S
H1263 C1257 0.959 . S
H1264 C1257 0.961 . S
H1265 C1257 0.960 . S
H1266 C1258 0.930 . S
H1267 C1259 0.929 . S
H1268 C1276 0.929 . S
H1269 C1278 0.930 . S
H1270 C1280 0.930 . S
H1271 C1283 0.929 . S
H1272 C1286 0.930 . S
H1273 C1288 0.960 . S
H1274 C1288 0.960 . S
H1275 C1288 0.960 . S
C1276 H1268 0.929 . S
C1276 C1277 1.377 . S
C1276 C1278 1.384 . S
C1277 C1276 1.377 . S
C1277 C1283 1.390 . S
C1278 H1269 0.930 . S
C1278 C1276 1.384 . S
C1278 C1279 1.372 . S
C1279 C1278 1.372 . S
C1279 C1280 1.400 . S
C1279 C1284 1.490 . S
C1280 H1270 0.930 . S
C1280 C1279 1.400 . S
C1280 C1283 1.386 . S
H1281 C1297 0.930 . S
H1282 C1298 0.931 . S
C1283 H1271 0.929 . S
C1283 C1277 1.390 . S
C1283 C1280 1.386 . S
C1284 C1279 1.490 . S
C1284 C1286 1.395 1_545 S
C1284 C1287 1.403 . S
H1285 C1291 0.930 . S
C1286 H1272 0.930 . S
C1286 C1284 1.395 1_565 S
C1286 C1289 1.403 1_655 S
C1287 C1284 1.403 . S
C1287 C1288 1.524 . S
C1287 C1291 1.400 1_655 S
C1288 H1273 0.960 . S
C1288 H1274 0.960 . S
C1288 H1275 0.960 . S
C1288 C1287 1.524 . S
C1289 C1286 1.403 1_455 S
C1289 C1290 1.392 . S
C1289 C1293 1.495 . S
C1290 C1289 1.392 . S
C1290 C1291 1.385 1_565 S
C1290 C1292 1.478 . S
C1291 H1285 0.930 . S
C1291 C1287 1.400 1_455 S
C1291 C1290 1.385 1_545 S
C1292 C1290 1.478 . S
C1292 C1294 1.381 . S
C1292 C1298 1.383 . S
C1293 C1289 1.495 . S
C1293 H1299 0.959 . S
C1293 H1300 0.961 . S
C1293 H1301 0.960 . S
C1294 C1292 1.381 . S
C1294 C1295 1.394 . S
C1294 H1302 0.930 . S
C1295 C1294 1.394 . S
C1295 C1296 1.383 . S
C1295 H1303 0.929 . S
C1296 C1295 1.383 . S
C1296 C1297 1.377 . S
C1297 H1281 0.930 . S
C1297 C1296 1.377 . S
C1297 C1298 1.379 . S
C1298 H1282 0.931 . S
C1298 C1292 1.383 . S
C1298 C1297 1.379 . S
H1299 C1293 0.959 . S
H1300 C1293 0.961 . S
H1301 C1293 0.960 . S
H1302 C1294 0.930 . S
H1303 C1295 0.929 . S
H1304 C1312 0.929 . S
H1305 C1314 0.930 . S
H1306 C1316 0.930 1_655 S
H1307 C1319 0.929 . S
H1308 C1322 0.930 . S
H1309 C1324 0.960 . S
H1310 C1324 0.960 . S
H1311 C1324 0.960 . S
C1312 H1304 0.929 . S
C1312 C1313 1.377 . S
C1312 C1314 1.384 . S
C1313 C1312 1.377 . S
C1313 C1319 1.390 . S
C1314 H1305 0.930 . S
C1314 C1312 1.384 . S
C1314 C1315 1.372 . S
C1315 C1314 1.372 . S
C1315 C1316 1.400 . S
C1315 C1320 1.490 . S
C1316 H1306 0.930 1_455 S
C1316 C1315 1.400 . S
C1316 C1319 1.386 . S
H1317 C1333 0.930 . S
H1318 C1334 0.931 . S
C1319 H1307 0.929 . S
C1319 C1313 1.390 . S
C1319 C1316 1.386 . S
C1320 C1315 1.490 . S
C1320 C1322 1.395 . S
C1320 C1323 1.403 1_455 S
H1321 C1327 0.930 . S
C1322 H1308 0.930 . S
C1322 C1320 1.395 . S
C1322 C1325 1.403 . S
C1323 C1320 1.403 1_655 S
C1323 C1324 1.524 . S
C1323 C1327 1.400 . S
C1324 H1309 0.960 . S
C1324 H1310 0.960 . S
C1324 H1311 0.960 . S
C1324 C1323 1.524 . S
C1325 C1322 1.403 . S
C1325 C1326 1.392 1_455 S
C1325 C1329 1.495 . S
C1326 C1325 1.392 1_655 S
C1326 C1327 1.385 . S
C1326 C1328 1.478 . S
C1327 H1321 0.930 . S
C1327 C1323 1.400 . S
C1327 C1326 1.385 . S
C1328 C1326 1.478 . S
C1328 C1330 1.381 . S
C1328 C1334 1.383 . S
C1329 C1325 1.495 . S
C1329 H1335 0.959 . S
C1329 H1336 0.961 . S
C1329 H1337 0.960 . S
C1330 C1328 1.381 . S
C1330 C1331 1.394 . S
C1330 H1338 0.930 1_655 S
C1331 C1330 1.394 . S
C1331 C1332 1.383 . S
C1331 H1339 0.929 . S
C1332 C1331 1.383 . S
C1332 C1333 1.377 . S
C1333 H1317 0.930 . S
C1333 C1332 1.377 . S
C1333 C1334 1.379 . S
C1334 H1318 0.931 . S
C1334 C1328 1.383 . S
C1334 C1333 1.379 . S
H1335 C1329 0.959 . S
H1336 C1329 0.961 . S
H1337 C1329 0.960 . S
H1338 C1330 0.930 1_455 S
H1339 C1331 0.929 . S
H1340 C1348 0.929 . S
H1341 C1350 0.930 . S
H1342 C1352 0.930 . S
H1343 C1355 0.929 1_545 S
H1344 C1358 0.930 . S
H1345 C1360 0.960 . S
H1346 C1360 0.960 . S
H1347 C1360 0.960 . S
C1348 H1340 0.929 . S
C1348 C1349 1.377 . S
C1348 C1350 1.384 . S
C1349 C1348 1.377 . S
C1349 C1355 1.390 . S
C1350 H1341 0.930 . S
C1350 C1348 1.384 . S
C1350 C1351 1.372 . S
C1351 C1350 1.372 . S
C1351 C1352 1.400 1_565 S
C1351 C1356 1.490 . S
C1352 H1342 0.930 . S
C1352 C1351 1.400 1_545 S
C1352 C1355 1.386 1_545 S
H1353 C1369 0.930 . S
H1354 C1370 0.931 . S
C1355 H1343 0.929 1_565 S
C1355 C1349 1.390 . S
C1355 C1352 1.386 1_565 S
C1356 C1351 1.490 . S
C1356 C1358 1.395 . S
C1356 C1359 1.403 1_565 S
H1357 C1363 0.930 . S
C1358 H1344 0.930 . S
C1358 C1356 1.395 . S
C1358 C1361 1.403 . S
C1359 C1356 1.403 1_545 S
C1359 C1360 1.524 . S
C1359 C1363 1.400 . S
C1360 H1345 0.960 . S
C1360 H1346 0.960 . S
C1360 H1347 0.960 . S
C1360 C1359 1.524 . S
C1361 C1358 1.403 . S
C1361 C1362 1.397 . S
C1361 C1365 1.495 . S
C1362 C1361 1.397 . S
C1362 C1363 1.381 1_565 S
C1362 C1364 1.477 1_565 S
C1363 H1357 0.930 . S
C1363 C1359 1.400 . S
C1363 C1362 1.381 1_545 S
C1364 C1362 1.477 1_545 S
C1364 C1366 1.381 1_545 S
C1364 C1370 1.383 . S
C1365 C1361 1.495 . S
C1365 H1371 0.959 . S
C1365 H1372 0.961 . S
C1365 H1373 0.960 . S
C1366 C1364 1.381 1_565 S
C1366 C1367 1.394 1_565 S
C1366 H1374 0.930 . S
C1367 C1366 1.394 1_545 S
C1367 C1368 1.383 . S
C1367 H1375 0.929 1_545 S
C1368 C1367 1.383 . S
C1368 C1369 1.377 . S
C1369 H1353 0.930 . S
C1369 C1368 1.377 . S
C1369 C1370 1.379 . S
C1370 H1354 0.931 . S
C1370 C1364 1.383 . S
C1370 C1369 1.379 . S
H1371 C1365 0.959 . S
H1372 C1365 0.961 . S
H1373 C1365 0.960 . S
H1374 C1366 0.930 . S
H1375 C1367 0.929 1_565 S
H1376 C1384 0.929 . S
H1377 C1386 0.930 . S
H1378 C1388 0.930 . S
H1379 C1391 0.929 . S
H1380 C1394 0.930 . S
H1381 C1396 0.960 . S
H1382 C1396 0.960 . S
H1383 C1396 0.960 . S
C1384 H1376 0.929 . S
C1384 C1385 1.377 . S
C1384 C1386 1.384 . S
C1385 C1384 1.377 . S
C1385 C1391 1.390 . S
C1386 H1377 0.930 . S
C1386 C1384 1.384 . S
C1386 C1387 1.372 . S
C1387 C1386 1.372 . S
C1387 C1388 1.400 . S
C1387 C1392 1.490 . S
C1388 H1378 0.930 . S
C1388 C1387 1.400 . S
C1388 C1391 1.386 . S
H1389 C1405 0.930 . S
H1390 C1406 0.931 . S
C1391 H1379 0.929 . S
C1391 C1385 1.390 . S
C1391 C1388 1.386 . S
C1392 C1387 1.490 . S
C1392 C1394 1.395 . S
C1392 C1395 1.403 . S
H1393 C1399 0.930 . S
C1394 H1380 0.930 . S
C1394 C1392 1.395 . S
C1394 C1397 1.403 . S
C1395 C1392 1.403 . S
C1395 C1396 1.524 . S
C1395 C1399 1.400 . S
C1396 H1381 0.960 . S
C1396 H1382 0.960 . S
C1396 H1383 0.960 . S
C1396 C1395 1.524 . S
C1397 C1394 1.403 . S
C1397 C1398 1.392 . S
C1397 C1401 1.495 . S
C1398 C1397 1.392 . S
C1398 C1399 1.385 . S
C1398 C1400 1.478 . S
C1399 H1393 0.930 . S
C1399 C1395 1.400 . S
C1399 C1398 1.385 . S
C1400 C1398 1.478 . S
C1400 C1402 1.381 . S
C1400 C1406 1.383 . S
C1401 C1397 1.495 . S
C1401 H1407 0.959 . S
C1401 H1408 0.961 . S
C1401 H1409 0.960 . S
C1402 C1400 1.381 . S
C1402 C1403 1.394 . S
C1402 H1410 0.930 . S
C1403 C1402 1.394 . S
C1403 C1404 1.383 . S
C1403 H1411 0.929 . S
C1404 C1403 1.383 . S
C1404 C1405 1.377 . S
C1405 H1389 0.930 . S
C1405 C1404 1.377 . S
C1405 C1406 1.379 . S
C1406 H1390 0.931 . S
C1406 C1400 1.383 . S
C1406 C1405 1.379 . S
H1407 C1401 0.959 . S
H1408 C1401 0.961 . S
H1409 C1401 0.960 . S
H1410 C1402 0.930 . S
H1411 C1403 0.929 . S
H1412 C1420 0.929 . S
H1413 C1422 0.930 . S
H1414 C1424 0.930 . S
H1415 C1427 0.929 . S
H1416 C1430 0.930 . S
H1417 C1432 0.960 . S
H1418 C1432 0.960 . S
H1419 C1432 0.960 . S
C1420 H1412 0.929 . S
C1420 C1421 1.377 . S
C1420 C1422 1.384 . S
C1421 C1420 1.377 . S
C1421 C1427 1.390 . S
C1422 H1413 0.930 . S
C1422 C1420 1.384 . S
C1422 C1423 1.372 . S
C1423 C1422 1.372 . S
C1423 C1424 1.400 . S
C1423 C1428 1.490 . S
C1424 H1414 0.930 . S
C1424 C1423 1.400 . S
C1424 C1427 1.386 . S
H1425 C1441 0.930 . S
H1426 C1442 0.931 . S
C1427 H1415 0.929 . S
C1427 C1421 1.390 . S
C1427 C1424 1.386 . S
C1428 C1423 1.490 . S
C1428 C1430 1.395 . S
C1428 C1431 1.403 . S
H1429 C1435 0.930 . S
C1430 H1416 0.930 . S
C1430 C1428 1.395 . S
C1430 C1433 1.403 . S
C1431 C1428 1.403 . S
C1431 C1432 1.524 . S
C1431 C1435 1.400 . S
C1432 H1417 0.960 . S
C1432 H1418 0.960 . S
C1432 H1419 0.960 . S
C1432 C1431 1.524 . S
C1433 C1430 1.403 . S
C1433 C1434 1.392 . S
C1433 C1437 1.495 . S
C1434 C1433 1.392 . S
C1434 C1435 1.385 . S
C1434 C1436 1.478 . S
C1435 H1429 0.930 . S
C1435 C1431 1.400 . S
C1435 C1434 1.385 . S
C1436 C1434 1.478 . S
C1436 C1438 1.381 . S
C1436 C1442 1.383 . S
C1437 C1433 1.495 . S
C1437 H1443 0.959 . S
C1437 H1444 0.961 . S
C1437 H1445 0.960 . S
C1438 C1436 1.381 . S
C1438 C1439 1.394 . S
C1438 H1446 0.930 . S
C1439 C1438 1.394 . S
C1439 C1440 1.383 . S
C1439 H1447 0.929 . S
C1440 C1439 1.383 . S
C1440 C1441 1.377 . S
C1441 H1425 0.930 . S
C1441 C1440 1.377 . S
C1441 C1442 1.379 . S
C1442 H1426 0.931 . S
C1442 C1436 1.383 . S
C1442 C1441 1.379 . S
H1443 C1437 0.959 . S
H1444 C1437 0.961 . S
H1445 C1437 0.960 . S
H1446 C1438 0.930 . S
H1447 C1439 0.929 . S
H1448 C1456 0.929 . S
H1449 C1458 0.930 . S
H1450 C1460 0.930 . S
H1451 C1463 0.929 . S
H1452 C1466 0.930 . S
H1453 C1468 0.960 . S
H1454 C1468 0.960 . S
H1455 C1468 0.960 . S
C1456 H1448 0.929 . S
C1456 C1457 1.377 . S
C1456 C1458 1.384 . S
C1457 C1456 1.377 . S
C1457 C1463 1.390 . S
C1458 H1449 0.930 . S
C1458 C1456 1.384 . S
C1458 C1459 1.372 . S
C1459 C1458 1.372 . S
C1459 C1460 1.400 . S
C1459 C1464 1.490 . S
C1460 H1450 0.930 . S
C1460 C1459 1.400 . S
C1460 C1463 1.386 . S
H1461 C1477 0.930 . S
H1462 C1478 0.931 . S
C1463 H1451 0.929 . S
C1463 C1457 1.390 . S
C1463 C1460 1.386 . S
C1464 C1459 1.490 . S
C1464 C1466 1.395 . S
C1464 C1467 1.403 . S
H1465 C1471 0.930 . S
C1466 H1452 0.930 . S
C1466 C1464 1.395 . S
C1466 C1469 1.403 1_545 S
C1467 C1464 1.403 . S
C1467 C1468 1.524 . S
C1467 C1471 1.400 1_545 S
C1468 H1453 0.960 . S
C1468 H1454 0.960 . S
C1468 H1455 0.960 . S
C1468 C1467 1.524 . S
C1469 C1466 1.403 1_565 S
C1469 C1470 1.392 . S
C1469 C1473 1.495 . S
C1470 C1469 1.392 . S
C1470 C1471 1.385 . S
C1470 C1472 1.478 . S
C1471 H1465 0.930 . S
C1471 C1467 1.400 1_565 S
C1471 C1470 1.385 . S
C1472 C1470 1.478 . S
C1472 C1474 1.381 . S
C1472 C1478 1.383 . S
C1473 C1469 1.495 . S
C1473 H1479 0.959 . S
C1473 H1480 0.961 . S
C1473 H1481 0.960 . S
C1474 C1472 1.381 . S
C1474 C1475 1.394 . S
C1474 H1482 0.930 . S
C1475 C1474 1.394 . S
C1475 C1476 1.383 . S
C1475 H1483 0.929 . S
C1476 C1475 1.383 . S
C1476 C1477 1.377 . S
C1477 H1461 0.930 . S
C1477 C1476 1.377 . S
C1477 C1478 1.379 . S
C1478 H1462 0.931 . S
C1478 C1472 1.383 . S
C1478 C1477 1.379 . S
H1479 C1473 0.959 . S
H1480 C1473 0.961 . S
H1481 C1473 0.960 . S
H1482 C1474 0.930 . S
H1483 C1475 0.929 . S
H1484 C1492 0.929 . S
H1485 C1494 0.930 . S
H1486 C1496 0.930 . S
H1487 C1499 0.929 . S
H1488 C1502 0.930 . S
H1489 C1504 0.931 1_455 S
H1490 C1504 0.960 . S
H1491 C1504 0.960 . S
C1492 H1484 0.929 . S
C1492 C1493 1.377 . S
C1492 C1494 1.384 . S
C1493 C1492 1.377 . S
C1493 C1499 1.390 . S
C1494 H1485 0.930 . S
C1494 C1492 1.384 . S
C1494 C1495 1.372 . S
C1495 C1494 1.372 . S
C1495 C1496 1.400 . S
C1495 C1500 1.490 . S
C1496 H1486 0.930 . S
C1496 C1495 1.400 . S
C1496 C1499 1.386 . S
H1497 C1513 0.930 . S
H1498 C1514 0.931 . S
C1499 H1487 0.929 . S
C1499 C1493 1.390 . S
C1499 C1496 1.386 . S
C1500 C1495 1.490 . S
C1500 C1502 1.395 . S
C1500 C1503 1.403 . S
H1501 C1507 0.930 . S
C1502 H1488 0.930 . S
C1502 C1500 1.395 . S
C1502 C1505 1.403 1_655 S
C1503 C1500 1.403 . S
C1503 C1504 1.524 . S
C1503 C1507 1.400 1_655 S
C1504 H1489 0.931 1_655 S
C1504 H1490 0.960 . S
C1504 H1491 0.960 . S
C1504 C1503 1.524 . S
C1505 C1502 1.403 1_455 S
C1505 C1506 1.392 . S
C1505 C1509 1.495 . S
C1506 C1505 1.392 . S
C1506 C1507 1.385 . S
C1506 C1508 1.478 . S
C1507 H1501 0.930 . S
C1507 C1503 1.400 1_455 S
C1507 C1506 1.385 . S
C1508 C1506 1.478 . S
C1508 C1510 1.381 . S
C1508 C1514 1.383 . S
C1509 C1505 1.495 . S
C1509 H1515 0.929 1_455 S
C1509 H1516 0.961 . S
C1509 H1517 0.960 . S
C1510 C1508 1.381 . S
C1510 C1511 1.394 . S
C1510 H1518 0.930 . S
C1511 C1510 1.394 . S
C1511 C1512 1.383 . S
C1511 H1519 0.929 . S
C1512 C1511 1.383 . S
C1512 C1513 1.377 . S
C1513 H1497 0.930 . S
C1513 C1512 1.377 . S
C1513 C1514 1.379 . S
C1514 H1498 0.931 . S
C1514 C1508 1.383 . S
C1514 C1513 1.379 . S
H1515 C1509 0.929 1_655 S
H1516 C1509 0.961 . S
H1517 C1509 0.960 . S
H1518 C1510 0.930 . S
H1519 C1511 0.929 . S
C377 C16 1.720 . S
C396 C260 1.771 . S
C413 N186 1.320 . S
C432 N35 1.315 . S
C449 C214 1.770 . S
C468 C62 1.724 . S
C485 N232 1.310 . S
C504 N81 1.347 . S
C521 C122 1.770 1_545 S
C540 C108 1.707 . S
C557 N127 1.324 . S
C576 N140 1.333 . S
C593 C154 1.720 . S
C612 C168 1.770 1_565 S
C629 N173 1.328 . S
C648 N94 1.289 . S
C665 C200 1.720 . S
C684 C76 1.770 1_565 S
C701 N2 1.318 . S
C720 N219 1.324 . S
C737 C30 1.771 1_545 S
C756 C246 1.733 . S
C773 N48 1.311 . S
C792 N265 1.327 . S
C809 C306 1.770 . S
C828 C292 1.717 . S
C845 N311 1.322 . S
C864 N324 1.324 . S
C881 C352 1.770 . S
C900 C338 1.718 . S
C917 N278 1.315 . S
C936 N357 1.337 . S
C953 N334 1.835 . S
C972 N12 1.852 . S
C989 C361 1.986 . S
C1008 C39 1.977 . S
C1025 N288 1.838 . S
C1044 N58 1.835 . S
C1061 C85 1.984 . S
C1080 C315 1.963 . S
C1097 N104 1.832 . S
C1116 N242 1.807 . S
C1133 C269 1.984 . S
C1152 C131 1.963 . S
C1169 N150 1.832 . S
C1188 N196 1.806 . S
C1205 C177 1.980 . S
C1224 C223 1.993 . S
C1241 C53 1.741 . S
C1260 C7 1.737 . S
C1277 N71 1.692 . S
C1296 N25 1.671 . S
C1313 C99 1.741 . S
C1332 C145 1.752 . S
C1349 N117 1.702 . S
C1368 N163 1.683 . S
C1385 C237 1.748 . S
C1404 C191 1.752 . S
C1421 N209 1.689 . S
C1440 N255 1.707 . S
C1457 C329 1.744 . S
C1476 C283 1.761 . S
C1493 N301 1.689 . S
C1512 N347 1.699 . S
