# Generated by pormake.
# Topology cag, (4)-cn, num edge types: 1
# Building blocks:
#     Node 0, Type 0, BuildingBlock: CEKHIL_clean_sbu_0, # of connection points: 4
#     Node 1, Type 0, BuildingBlock: CEKHIL_clean_sbu_0, # of connection points: 4
#     Node 2, Type 0, BuildingBlock: CEKHIL_clean_sbu_0, # of connection points: 4
#     Node 3, Type 0, BuildingBlock: CEKHIL_clean_sbu_0, # of connection points: 4
#     Node 4, Type 0, BuildingBlock: CEKHIL_clean_sbu_0, # of connection points: 4
#     Node 5, Type 0, BuildingBlock: CEKHIL_clean_sbu_0, # of connection points: 4
#     Node 6, Type 0, BuildingBlock: CEKHIL_clean_sbu_0, # of connection points: 4
#     Node 7, Type 0, BuildingBlock: CEKHIL_clean_sbu_0, # of connection points: 4
#     Node 8, Type 0, BuildingBlock: CEKHIL_clean_sbu_0, # of connection points: 4
#     Node 9, Type 0, BuildingBlock: CEKHIL_clean_sbu_0, # of connection points: 4
#     Node 10, Type 0, BuildingBlock: CEKHIL_clean_sbu_0, # of connection points: 4
#     Node 11, Type 0, BuildingBlock: CEKHIL_clean_sbu_0, # of connection points: 4
#     Node 12, Type 0, BuildingBlock: CEKHIL_clean_sbu_0, # of connection points: 4
#     Node 13, Type 0, BuildingBlock: CEKHIL_clean_sbu_0, # of connection points: 4
#     Node 14, Type 0, BuildingBlock: CEKHIL_clean_sbu_0, # of connection points: 4
#     Node 15, Type 0, BuildingBlock: CEKHIL_clean_sbu_0, # of connection points: 4
#     Edge 16, Type (0, 0), BuildingBlock: MIFKUJ_clean_linker_0, # of connection points: 2
#     Edge 17, Type (0, 0), BuildingBlock: MIFKUJ_clean_linker_0, # of connection points: 2
#     Edge 18, Type (0, 0), BuildingBlock: MIFKUJ_clean_linker_0, # of connection points: 2
#     Edge 19, Type (0, 0), BuildingBlock: MIFKUJ_clean_linker_0, # of connection points: 2
#     Edge 20, Type (0, 0), BuildingBlock: MIFKUJ_clean_linker_0, # of connection points: 2
#     Edge 21, Type (0, 0), BuildingBlock: MIFKUJ_clean_linker_0, # of connection points: 2
#     Edge 22, Type (0, 0), BuildingBlock: MIFKUJ_clean_linker_0, # of connection points: 2
#     Edge 23, Type (0, 0), BuildingBlock: MIFKUJ_clean_linker_0, # of connection points: 2
#     Edge 24, Type (0, 0), BuildingBlock: MIFKUJ_clean_linker_0, # of connection points: 2
#     Edge 25, Type (0, 0), BuildingBlock: MIFKUJ_clean_linker_0, # of connection points: 2
#     Edge 26, Type (0, 0), BuildingBlock: MIFKUJ_clean_linker_0, # of connection points: 2
#     Edge 27, Type (0, 0), BuildingBlock: MIFKUJ_clean_linker_0, # of connection points: 2
#     Edge 28, Type (0, 0), BuildingBlock: MIFKUJ_clean_linker_0, # of connection points: 2
#     Edge 29, Type (0, 0), BuildingBlock: MIFKUJ_clean_linker_0, # of connection points: 2
#     Edge 30, Type (0, 0), BuildingBlock: MIFKUJ_clean_linker_0, # of connection points: 2
#     Edge 31, Type (0, 0), BuildingBlock: MIFKUJ_clean_linker_0, # of connection points: 2
#     Edge 32, Type (0, 0), BuildingBlock: MIFKUJ_clean_linker_0, # of connection points: 2
#     Edge 33, Type (0, 0), BuildingBlock: MIFKUJ_clean_linker_0, # of connection points: 2
#     Edge 34, Type (0, 0), BuildingBlock: MIFKUJ_clean_linker_0, # of connection points: 2
#     Edge 35, Type (0, 0), BuildingBlock: MIFKUJ_clean_linker_0, # of connection points: 2
#     Edge 36, Type (0, 0), BuildingBlock: MIFKUJ_clean_linker_0, # of connection points: 2
#     Edge 37, Type (0, 0), BuildingBlock: MIFKUJ_clean_linker_0, # of connection points: 2
#     Edge 38, Type (0, 0), BuildingBlock: MIFKUJ_clean_linker_0, # of connection points: 2
#     Edge 39, Type (0, 0), BuildingBlock: MIFKUJ_clean_linker_0, # of connection points: 2
#     Edge 40, Type (0, 0), BuildingBlock: MIFKUJ_clean_linker_0, # of connection points: 2
#     Edge 41, Type (0, 0), BuildingBlock: MIFKUJ_clean_linker_0, # of connection points: 2
#     Edge 42, Type (0, 0), BuildingBlock: MIFKUJ_clean_linker_0, # of connection points: 2
#     Edge 43, Type (0, 0), BuildingBlock: MIFKUJ_clean_linker_0, # of connection points: 2
#     Edge 44, Type (0, 0), BuildingBlock: MIFKUJ_clean_linker_0, # of connection points: 2
#     Edge 45, Type (0, 0), BuildingBlock: MIFKUJ_clean_linker_0, # of connection points: 2
#     Edge 46, Type (0, 0), BuildingBlock: MIFKUJ_clean_linker_0, # of connection points: 2
#     Edge 47, Type (0, 0), BuildingBlock: MIFKUJ_clean_linker_0, # of connection points: 2
# Relax obj value: 0.095
# Max RMSD: 0.133
# Mean RMSD: 0.131
data_MOF--net-cag--node1-CEKHIL_clean_sbu_0--edge1-MIFKUJ_clean_linker_0
_symmetry_space_group_name_H-M    P1
_symmetry_Int_Tables_number       1
_symmetry_cell_setting            triclinic
loop_
_symmetry_equiv_pos_as_xyz
'x, y, z'
_cell_length_a     56.903217
_cell_length_b     63.265446
_cell_length_c     52.34065
_cell_angle_alpha  89.986771
_cell_angle_beta   89.995767
_cell_angle_gamma 89.997877
loop_
_atom_site_label
_atom_site_type_symbol
_atom_site_fract_x
_atom_site_fract_y
_atom_site_fract_z
_atom_type_partial_charge
Co0 Co 0.31913 0.13808 0.08178 0.0
O1 O 0.28895 0.14715 0.06871 0.0
O2 O 0.32063 0.16729 0.07115 0.0
C3 C 0.32042 0.10711 0.06028 0.0
O4 O 0.35359 0.13457 0.09214 0.0
Co5 Co 0.32571 0.09743 0.11416 0.0
O6 O 0.35972 0.10207 0.10807 0.0
C7 C 0.30191 0.13469 0.13629 0.0
C8 C 0.2988 0.16531 0.06425 0.0
C9 C 0.3674 0.11977 0.09999 0.0
O10 O 0.3093 0.14637 0.11775 0.0
O11 O 0.30474 0.11461 0.13688 0.0
O12 O 0.32625 0.12463 0.04895 0.0
O13 O 0.31239 0.1091 0.0832 0.0
Co14 Co 0.18516 0.86438 0.57822 0.0
O15 O 0.21507 0.85537 0.56438 0.0
O16 O 0.18318 0.83546 0.56638 0.0
C17 C 0.18485 0.89592 0.55808 0.0
O18 O 0.15073 0.8679 0.58892 0.0
Co19 Co 0.17811 0.90391 0.61184 0.0
O20 O 0.14506 0.90169 0.60018 0.0
C21 C 0.19738 0.86485 0.63494 0.0
C22 C 0.20499 0.83742 0.55937 0.0
C23 C 0.13711 0.88375 0.59339 0.0
O24 O 0.1949 0.85476 0.61369 0.0
O25 O 0.19245 0.88445 0.63774 0.0
O26 O 0.17795 0.87898 0.5462 0.0
O27 O 0.19274 0.89321 0.58096 0.0
Co28 Co 0.31844 0.86811 0.9278 0.0
O29 O 0.28779 0.85926 0.93983 0.0
O30 O 0.31971 0.83932 0.93995 0.0
C31 C 0.31848 0.89979 0.94779 0.0
O32 O 0.35332 0.87134 0.91902 0.0
Co33 Co 0.32717 0.9077 0.8942 0.0
O34 O 0.36032 0.90423 0.90492 0.0
C35 C 0.30857 0.86859 0.87053 0.0
C36 C 0.29761 0.84135 0.94569 0.0
C37 C 0.36755 0.88638 0.91295 0.0
O38 O 0.31045 0.85845 0.89182 0.0
O39 O 0.31339 0.88824 0.86799 0.0
O40 O 0.32397 0.8827 0.9602 0.0
O41 O 0.31162 0.89705 0.92451 0.0
Co42 Co 0.18693 0.13658 0.42859 0.0
O43 O 0.21759 0.14621 0.43946 0.0
O44 O 0.18535 0.16573 0.43965 0.0
C45 C 0.18808 0.10558 0.45016 0.0
O46 O 0.15199 0.13241 0.42049 0.0
Co47 Co 0.1789 0.09543 0.39757 0.0
O48 O 0.14592 0.09862 0.40916 0.0
C49 C 0.19699 0.13392 0.37155 0.0
C50 C 0.20761 0.16412 0.44491 0.0
C51 C 0.13822 0.11666 0.41598 0.0
O52 O 0.19421 0.14512 0.39196 0.0
O53 O 0.19318 0.11397 0.37074 0.0
O54 O 0.18203 0.12288 0.4618 0.0
O55 O 0.19456 0.10777 0.4267 0.0
Co56 Co 0.66789 0.87403 0.91035 0.0
O57 O 0.69867 0.87724 0.89493 0.0
O58 O 0.66719 0.86522 0.87494 0.0
C59 C 0.66666 0.90595 0.92989 0.0
O60 O 0.63304 0.8695 0.91859 0.0
Co61 Co 0.65977 0.87426 0.96917 0.0
O62 O 0.62622 0.87742 0.95977 0.0
C63 C 0.68199 0.83739 0.94454 0.0
C64 C 0.6893 0.87028 0.8739 0.0
C65 C 0.6189 0.87304 0.93738 0.0
O66 O 0.67664 0.84446 0.92216 0.0
O67 O 0.67854 0.84769 0.96522 0.0
O68 O 0.66165 0.90432 0.90572 0.0
O69 O 0.67408 0.88886 0.94063 0.0
Co70 Co 0.83781 0.12802 0.40999 0.0
O71 O 0.8076 0.12455 0.39343 0.0
O72 O 0.83903 0.13837 0.37514 0.0
C73 C 0.83888 0.09539 0.42762 0.0
O74 O 0.87236 0.13302 0.41936 0.0
Co75 Co 0.84573 0.12514 0.46844 0.0
O76 O 0.87873 0.11944 0.45835 0.0
C77 C 0.8256 0.1642 0.44615 0.0
C78 C 0.81717 0.13265 0.37313 0.0
C79 C 0.88629 0.12628 0.437 0.0
O80 O 0.82803 0.15691 0.42326 0.0
O81 O 0.83084 0.15376 0.4663 0.0
O82 O 0.8452 0.0981 0.40396 0.0
O83 O 0.83099 0.11192 0.43916 0.0
Co84 Co 0.66848 0.12923 0.09729 0.0
O85 O 0.69939 0.12586 0.1124 0.0
O86 O 0.66833 0.13871 0.13248 0.0
C87 C 0.66736 0.09711 0.07818 0.0
O88 O 0.63345 0.13377 0.08971 0.0
Co89 Co 0.65841 0.12801 0.039 0.0
O90 O 0.62575 0.12221 0.05005 0.0
C91 C 0.67891 0.16656 0.06211 0.0
C92 C 0.69034 0.13332 0.13334 0.0
C93 C 0.61892 0.12798 0.07213 0.0
O94 O 0.67712 0.15866 0.08478 0.0
O95 O 0.67331 0.15656 0.04175 0.0
O96 O 0.66233 0.09892 0.10234 0.0
O97 O 0.6743 0.1142 0.06712 0.0
Co98 Co 0.83741 0.87564 0.59809 0.0
O99 O 0.80743 0.87894 0.61515 0.0
O100 O 0.83924 0.8653 0.63291 0.0
C101 C 0.83858 0.90838 0.58059 0.0
O102 O 0.87166 0.87064 0.58772 0.0
Co103 Co 0.84305 0.8788 0.53907 0.0
O104 O 0.87682 0.88266 0.54768 0.0
C105 C 0.81978 0.84165 0.56228 0.0
C106 C 0.81736 0.87091 0.63528 0.0
C107 C 0.88499 0.87633 0.56903 0.0
O108 O 0.82725 0.8469 0.58469 0.0
O109 O 0.82238 0.85326 0.54244 0.0
O110 O 0.84498 0.90557 0.60421 0.0
O111 O 0.8302 0.89192 0.56933 0.0
Co112 Co 0.81869 0.63587 0.07955 0.0
O113 O 0.7877 0.64514 0.0691 0.0
O114 O 0.81958 0.66512 0.06917 0.0
C115 C 0.81822 0.6051 0.05764 0.0
O116 O 0.85387 0.63237 0.08698 0.0
Co117 Co 0.82806 0.59497 0.11064 0.0
O118 O 0.86116 0.59925 0.10018 0.0
C119 C 0.80918 0.63289 0.13678 0.0
C120 C 0.79735 0.66329 0.06401 0.0
C121 C 0.8682 0.61725 0.09247 0.0
O122 O 0.81163 0.64403 0.1163 0.0
O123 O 0.81351 0.61304 0.13779 0.0
O124 O 0.82321 0.6227 0.04605 0.0
O125 O 0.81207 0.60679 0.08129 0.0
Co126 Co 0.68635 0.36613 0.57932 0.0
O127 O 0.71646 0.35637 0.56696 0.0
O128 O 0.68401 0.33714 0.5678 0.0
C129 C 0.68671 0.39748 0.55856 0.0
O130 O 0.65187 0.37071 0.58906 0.0
Co131 Co 0.68116 0.40651 0.61259 0.0
O132 O 0.64722 0.40356 0.60461 0.0
C133 C 0.70279 0.36799 0.63417 0.0
C134 C 0.70612 0.33857 0.56179 0.0
C135 C 0.63875 0.3862 0.59635 0.0
O136 O 0.69504 0.35691 0.61527 0.0
O137 O 0.70103 0.38815 0.6352 0.0
O138 O 0.68043 0.38035 0.54667 0.0
O139 O 0.69427 0.39481 0.58157 0.0
Co140 Co 0.81805 0.36553 0.92485 0.0
O141 O 0.78766 0.35567 0.93652 0.0
O142 O 0.8204 0.33681 0.93702 0.0
C143 C 0.81687 0.39711 0.9451 0.0
O144 O 0.85282 0.36983 0.91644 0.0
Co145 Co 0.82518 0.40555 0.89157 0.0
O146 O 0.85919 0.40123 0.89761 0.0
C147 C 0.80717 0.36623 0.86784 0.0
C148 C 0.79819 0.33812 0.94252 0.0
C149 C 0.86668 0.3841 0.90743 0.0
O150 O 0.81054 0.35576 0.88871 0.0
O151 O 0.81049 0.38618 0.86597 0.0
O152 O 0.82308 0.38013 0.95734 0.0
O153 O 0.81006 0.3943 0.92182 0.0
Co154 Co 0.68754 0.63731 0.4279 0.0
O155 O 0.71769 0.64598 0.44146 0.0
O156 O 0.68629 0.66645 0.43893 0.0
C157 C 0.68577 0.60605 0.44882 0.0
O158 O 0.65316 0.63417 0.41701 0.0
Co159 Co 0.6811 0.59703 0.3947 0.0
O160 O 0.64714 0.60149 0.40153 0.0
C161 C 0.70522 0.63445 0.37352 0.0
C162 C 0.70805 0.66422 0.44598 0.0
C163 C 0.63941 0.61924 0.40939 0.0
O164 O 0.69769 0.64594 0.39216 0.0
O165 O 0.70245 0.61438 0.37254 0.0
O166 O 0.68003 0.62345 0.46046 0.0
O167 O 0.69402 0.60833 0.42603 0.0
Co168 Co 0.16715 0.37425 0.90977 0.0
O169 O 0.19788 0.37882 0.89453 0.0
O170 O 0.16674 0.36682 0.87394 0.0
C171 C 0.16495 0.40512 0.93156 0.0
O172 O 0.13235 0.36873 0.91725 0.0
Co173 Co 0.15821 0.37147 0.96833 0.0
O174 O 0.12451 0.37279 0.95905 0.0
C175 C 0.18174 0.33631 0.9417 0.0
C176 C 0.18871 0.37234 0.87315 0.0
C177 C 0.11781 0.37 0.93608 0.0
O178 O 0.17672 0.34438 0.91972 0.0
O179 O 0.17753 0.34547 0.96298 0.0
O180 O 0.16014 0.40461 0.90726 0.0
O181 O 0.17271 0.38768 0.94111 0.0
Co182 Co 0.33884 0.62775 0.40788 0.0
O183 O 0.30857 0.62352 0.39157 0.0
O184 O 0.33919 0.63879 0.37335 0.0
C185 C 0.34212 0.59493 0.42492 0.0
O186 O 0.37327 0.63372 0.41695 0.0
Co187 Co 0.34632 0.62477 0.46664 0.0
O188 O 0.38018 0.62447 0.45771 0.0
C189 C 0.32007 0.6606 0.44465 0.0
C190 C 0.31757 0.63237 0.3714 0.0
C191 C 0.38744 0.63015 0.43574 0.0
O192 O 0.32777 0.65603 0.42209 0.0
O193 O 0.32363 0.64885 0.46417 0.0
O194 O 0.34724 0.59808 0.40099 0.0
O195 O 0.33347 0.61098 0.43676 0.0
Co196 Co 0.16929 0.62811 0.09553 0.0
O197 O 0.20001 0.62492 0.11104 0.0
O198 O 0.1696 0.64032 0.12955 0.0
C199 C 0.16692 0.59455 0.08051 0.0
O200 O 0.13446 0.63308 0.08706 0.0
Co201 Co 0.15964 0.62186 0.03747 0.0
O202 O 0.12685 0.61774 0.04921 0.0
C203 C 0.18365 0.6607 0.05574 0.0
C204 C 0.1913 0.63406 0.13115 0.0
C205 C 0.12001 0.62573 0.07026 0.0
O206 O 0.17913 0.65606 0.07931 0.0
O207 O 0.17872 0.64834 0.03711 0.0
O208 O 0.16192 0.59852 0.10428 0.0
O209 O 0.17456 0.6104 0.06754 0.0
Co210 Co 0.33727 0.37429 0.59666 0.0
O211 O 0.30647 0.37632 0.61246 0.0
O212 O 0.33903 0.3669 0.6325 0.0
C213 C 0.33606 0.40554 0.57554 0.0
O214 O 0.37236 0.37133 0.58825 0.0
Co215 Co 0.34552 0.37341 0.53793 0.0
O216 O 0.37856 0.37963 0.5471 0.0
C217 C 0.32723 0.33537 0.56419 0.0
C218 C 0.31664 0.37076 0.63366 0.0
C219 C 0.38621 0.37579 0.56949 0.0
O220 O 0.33024 0.34394 0.58634 0.0
O221 O 0.3311 0.34489 0.54304 0.0
O222 O 0.34161 0.40498 0.59964 0.0
O223 O 0.32974 0.38772 0.56576 0.0
H224 H 0.31642 0.20334 0.0486 0.0
H225 H 0.29648 0.23076 0.02395 0.0
H226 H 0.23284 0.19369 0.02416 0.0
H227 H 0.25291 0.16592 0.0484 0.0
H228 H 0.23976 0.20978 0.97804 0.0
H229 H 0.23903 0.23739 0.06272 0.0
H230 H 0.25531 0.24808 0.10441 0.0
H231 H 0.29994 0.2934 0.06731 0.0
H232 H 0.28415 0.28277 0.02533 0.0
H233 H 0.16238 0.29768 0.94967 0.0
H234 H 0.18308 0.26631 0.96572 0.0
H235 H 0.2493 0.29868 0.9569 0.0
H236 H 0.22858 0.32991 0.94059 0.0
H237 H 0.24063 0.28455 0.00649 0.0
H238 H 0.2387 0.25674 0.92113 0.0
H239 H 0.2199 0.24617 0.88067 0.0
H240 H 0.17691 0.20139 0.92087 0.0
H241 H 0.19523 0.21191 0.96166 0.0
C242 C 0.29813 0.20106 0.04357 0.0
C243 C 0.28623 0.18248 0.0506 0.0
C244 C 0.28672 0.21679 0.02948 0.0
C245 C 0.26304 0.21444 0.02237 0.0
C246 C 0.2511 0.19589 0.02938 0.0
C247 C 0.26256 0.18008 0.04338 0.0
C248 C 0.25086 0.23134 0.00756 0.0
C249 C 0.23971 0.22608 0.98444 0.0
C250 C 0.251 0.2527 0.01565 0.0
C251 C 0.26058 0.25912 0.04085 0.0
C252 C 0.25246 0.24951 0.06343 0.0
C253 C 0.26157 0.25559 0.08712 0.0
C254 C 0.27869 0.27137 0.0885 0.0
C255 C 0.2867 0.28115 0.0662 0.0
C256 C 0.27767 0.27512 0.04246 0.0
C257 C 0.18142 0.29766 0.95008 0.0
C258 C 0.194 0.31592 0.94339 0.0
C259 C 0.19322 0.27983 0.95941 0.0
C260 C 0.21775 0.28017 0.96255 0.0
C261 C 0.23039 0.29806 0.95457 0.0
C262 C 0.21861 0.31578 0.945 0.0
C263 C 0.22982 0.26303 0.97688 0.0
C264 C 0.24082 0.26825 1.00004 0.0
C265 C 0.22918 0.24166 0.969 0.0
C266 C 0.21819 0.23526 0.94449 0.0
C267 C 0.22509 0.24477 0.92138 0.0
C268 C 0.21455 0.23876 0.89838 0.0
C269 C 0.19717 0.22316 0.89821 0.0
C270 C 0.19035 0.21349 0.92104 0.0
C271 C 0.20083 0.21945 0.9441 0.0
H272 H 0.18904 0.21853 0.88038 0.0
H273 H 0.28572 0.27606 0.10686 0.0
H274 H 0.32615 0.70017 0.42338 0.0
H275 H 0.3063 0.73309 0.4366 0.0
H276 H 0.26352 0.69762 0.48942 0.0
H277 H 0.28328 0.66513 0.47668 0.0
H278 H 0.23818 0.72857 0.46258 0.0
H279 H 0.31174 0.72111 0.51038 0.0
H280 H 0.3549 0.7182 0.51325 0.0
H281 H 0.36241 0.77744 0.47402 0.0
H282 H 0.31927 0.78054 0.47063 0.0
H283 H 0.19439 0.79533 0.55806 0.0
H284 H 0.21396 0.76763 0.53348 0.0
H285 H 0.26214 0.81376 0.50263 0.0
H286 H 0.24341 0.84127 0.52844 0.0
H287 H 0.28556 0.7808 0.51096 0.0
H288 H 0.21329 0.79165 0.46737 0.0
H289 H 0.17043 0.79546 0.46212 0.0
H290 H 0.16027 0.73194 0.48882 0.0
H291 H 0.20304 0.72783 0.49455 0.0
C292 C 0.31221 0.69945 0.43745 0.0
C293 C 0.30634 0.68014 0.44913 0.0
C294 C 0.30098 0.71822 0.44508 0.0
C295 C 0.28353 0.7178 0.46415 0.0
C296 C 0.2769 0.69835 0.4747 0.0
C297 C 0.28828 0.67979 0.46745 0.0
C298 C 0.27293 0.73747 0.4746 0.0
C299 C 0.24848 0.74004 0.47317 0.0
C300 C 0.28646 0.75275 0.48773 0.0
C301 C 0.31233 0.75093 0.48999 0.0
C302 C 0.32261 0.73343 0.5022 0.0
C303 C 0.34706 0.73176 0.50395 0.0
C304 C 0.36139 0.74759 0.49375 0.0
C305 C 0.3513 0.76517 0.48186 0.0
C306 C 0.32686 0.76689 0.48003 0.0
C307 C 0.20922 0.79953 0.54611 0.0
C308 C 0.21732 0.82048 0.54514 0.0
C309 C 0.22029 0.78371 0.53182 0.0
C310 C 0.23922 0.78858 0.51552 0.0
C311 C 0.24754 0.8095 0.51488 0.0
C312 C 0.23682 0.82525 0.52966 0.0
C313 C 0.25051 0.77178 0.49958 0.0
C314 C 0.27513 0.7697 0.49999 0.0
C315 C 0.23713 0.75714 0.48508 0.0
C316 C 0.21138 0.75949 0.48155 0.0
C317 C 0.2019 0.77854 0.47227 0.0
C318 C 0.17762 0.78074 0.46919 0.0
C319 C 0.16263 0.76397 0.47517 0.0
C320 C 0.1719 0.74492 0.4842 0.0
C321 C 0.19616 0.74264 0.48733 0.0
H322 H 0.14384 0.76571 0.47278 0.0
H323 H 0.38031 0.74628 0.49513 0.0
H324 H 0.31409 0.80267 0.96052 0.0
H325 H 0.29309 0.77507 0.98391 0.0
H326 H 0.23118 0.81437 0.98628 0.0
H327 H 0.252 0.84197 0.96252 0.0
H328 H 0.27288 0.77297 0.0304 0.0
H329 H 0.1829 0.78244 0.98151 0.0
H330 H 0.16606 0.79513 0.94084 0.0
H331 H 0.2305 0.78029 0.90208 0.0
H332 H 0.24759 0.76729 0.94244 0.0
H333 H 0.19161 0.69622 0.08583 0.0
H334 H 0.20908 0.73002 0.07202 0.0
H335 H 0.21904 0.7046 0.99633 0.0
H336 H 0.20178 0.6715 0.00956 0.0
H337 H 0.20016 0.74256 0.99333 0.0
H338 H 0.26443 0.70908 0.03932 0.0
H339 H 0.28311 0.69365 0.07755 0.0
H340 H 0.27362 0.75209 0.11797 0.0
H341 H 0.25461 0.76778 0.08004 0.0
C342 C 0.29598 0.80544 0.96594 0.0
C343 C 0.28466 0.82446 0.95944 0.0
C344 C 0.28405 0.7897 0.97952 0.0
C345 C 0.26052 0.79257 0.98683 0.0
C346 C 0.24926 0.81168 0.98067 0.0
C347 C 0.26117 0.82743 0.96702 0.0
C348 C 0.2476 0.77515 0.99983 0.0
C349 C 0.25686 0.76643 0.02241 0.0
C350 C 0.22672 0.76653 0.98947 0.0
C351 C 0.21659 0.77417 0.96505 0.0
C352 C 0.19344 0.78187 0.96429 0.0
C353 C 0.18386 0.78911 0.9413 0.0
C354 C 0.19724 0.7886 0.91891 0.0
C355 C 0.22019 0.78077 0.91945 0.0
C356 C 0.22984 0.77349 0.94239 0.0
C357 C 0.1976 0.69788 0.0663 0.0
C358 C 0.19504 0.68111 0.04883 0.0
C359 C 0.20757 0.71719 0.05842 0.0
C360 C 0.21523 0.71991 0.03303 0.0
C361 C 0.213 0.70305 0.01588 0.0
C362 C 0.2031 0.684 0.02361 0.0
C363 C 0.22566 0.74004 0.02362 0.0
C364 C 0.21588 0.74937 1.00169 0.0
C365 C 0.24629 0.74888 0.03429 0.0
C366 C 0.25786 0.73951 0.05698 0.0
C367 C 0.26618 0.71858 0.05643 0.0
C368 C 0.27684 0.7098 0.07803 0.0
C369 C 0.27948 0.72186 0.10021 0.0
C370 C 0.27152 0.74275 0.1008 0.0
C371 C 0.26081 0.7516 0.07926 0.0
H372 H 0.28773 0.71503 0.11691 0.0
H373 H 0.18979 0.79422 0.90113 0.0
H374 H 0.34893 0.30107 0.54437 0.0
H375 H 0.32978 0.26893 0.52879 0.0
H376 H 0.26383 0.29037 0.56021 0.0
H377 H 0.2834 0.32205 0.57696 0.0
H378 H 0.26479 0.2488 0.56138 0.0
H379 H 0.28034 0.30113 0.4974 0.0
H380 H 0.30472 0.32584 0.47237 0.0
H381 H 0.34651 0.27405 0.445 0.0
H382 H 0.32257 0.24906 0.47017 0.0
H383 H 0.1895 0.19839 0.46993 0.0
H384 H 0.211 0.22524 0.4943 0.0
H385 H 0.27657 0.19542 0.47421 0.0
H386 H 0.25518 0.16831 0.45015 0.0
H387 H 0.27595 0.24024 0.46788 0.0
H388 H 0.25721 0.1878 0.53134 0.0
H389 H 0.23082 0.16435 0.55569 0.0
H390 H 0.19215 0.21816 0.58272 0.0
H391 H 0.2181 0.24193 0.5582 0.0
C392 C 0.33057 0.29842 0.54886 0.0
C393 C 0.31764 0.31384 0.56204 0.0
C394 C 0.31954 0.28022 0.53966 0.0
C395 C 0.29516 0.27751 0.54257 0.0
C396 C 0.2826 0.29212 0.55754 0.0
C397 C 0.2938 0.31016 0.56726 0.0
C398 C 0.28252 0.26073 0.52798 0.0
C399 C 0.2671 0.24707 0.54091 0.0
C400 C 0.28553 0.25829 0.50122 0.0
C401 C 0.29982 0.27325 0.48587 0.0
C402 C 0.29482 0.29503 0.48616 0.0
C403 C 0.30855 0.30908 0.47195 0.0
C404 C 0.32719 0.30152 0.45716 0.0
C405 C 0.33209 0.27989 0.4565 0.0
C406 C 0.31844 0.26577 0.47073 0.0
C407 C 0.2085 0.19762 0.47056 0.0
C408 C 0.22064 0.18123 0.45809 0.0
C409 C 0.22074 0.21289 0.48463 0.0
C410 C 0.24537 0.2122 0.48626 0.0
C411 C 0.25757 0.19619 0.47328 0.0
C412 C 0.24532 0.18073 0.45954 0.0
C413 C 0.25842 0.22831 0.5013 0.0
C414 C 0.2738 0.24191 0.48838 0.0
C415 C 0.25504 0.23089 0.52793 0.0
C416 C 0.23945 0.21663 0.54272 0.0
C417 C 0.24294 0.19462 0.54228 0.0
C418 C 0.22809 0.18127 0.55616 0.0
C419 C 0.20978 0.18975 0.57069 0.0
C420 C 0.20632 0.21161 0.57142 0.0
C421 C 0.22111 0.22503 0.55756 0.0
H422 H 0.19831 0.17939 0.58142 0.0
H423 H 0.3378 0.31243 0.44617 0.0
H424 H 0.7516 0.66304 0.04751 0.0
H425 H 0.7309 0.69095 0.0241 0.0
H426 H 0.79276 0.73024 0.0278 0.0
H427 H 0.8134 0.7026 0.05142 0.0
H428 H 0.75448 0.75272 0.0383 0.0
H429 H 0.77756 0.70334 0.97305 0.0
H430 H 0.77986 0.66852 0.95204 0.0
H431 H 0.70464 0.66664 0.94592 0.0
H432 H 0.70187 0.70134 0.96724 0.0
H433 H 0.7285 0.8305 0.94881 0.0
H434 H 0.74736 0.79854 0.96553 0.0
H435 H 0.68039 0.7666 0.96582 0.0
H436 H 0.66151 0.7987 0.94894 0.0
H437 H 0.71908 0.73958 0.95309 0.0
H438 H 0.69612 0.78897 0.01804 0.0
H439 H 0.69385 0.82406 0.03836 0.0
H440 H 0.76905 0.82575 0.04493 0.0
H441 H 0.77178 0.79079 0.02424 0.0
C442 C 0.76073 0.67769 0.04348 0.0
C443 C 0.78416 0.68059 0.05132 0.0
C444 C 0.74893 0.69357 0.02993 0.0
C445 C 0.76036 0.71262 0.02385 0.0
C446 C 0.78357 0.71569 0.03218 0.0
C447 C 0.79536 0.69984 0.0457 0.0
C448 C 0.74823 0.72948 0.009 0.0
C449 C 0.747 0.74985 0.01955 0.0
C450 C 0.73788 0.72569 0.98479 0.0
C451 C 0.7395 0.70483 0.972 0.0
C452 C 0.7615 0.69542 0.96743 0.0
C453 C 0.76289 0.67572 0.95542 0.0
C454 C 0.74241 0.66535 0.94772 0.0
C455 C 0.72049 0.67468 0.95195 0.0
C456 C 0.719 0.69436 0.96397 0.0
C457 C 0.71802 0.81637 0.95151 0.0
C458 C 0.6937 0.81682 0.94727 0.0
C459 C 0.72873 0.7982 0.96125 0.0
C460 C 0.71522 0.78029 0.96724 0.0
C461 C 0.69114 0.78023 0.96129 0.0
C462 C 0.68039 0.79847 0.95154 0.0
C463 C 0.72576 0.76276 0.98227 0.0
C464 C 0.72657 0.74235 0.97185 0.0
C465 C 0.73575 0.76644 0.00665 0.0
C466 C 0.73416 0.78736 0.01937 0.0
C467 C 0.71218 0.7969 0.02364 0.0
C468 C 0.71081 0.81675 0.03524 0.0
C469 C 0.7313 0.82716 0.04288 0.0
C470 C 0.7532 0.81769 0.03898 0.0
C471 C 0.75466 0.79785 0.02732 0.0
H472 H 0.7302 0.84253 0.05186 0.0
H473 H 0.74352 0.6501 0.93842 0.0
H474 H 0.78267 0.1789 0.43144 0.0
H475 H 0.76289 0.21056 0.44779 0.0
H476 H 0.82659 0.22879 0.48689 0.0
H477 H 0.84569 0.19651 0.47184 0.0
H478 H 0.79409 0.23136 0.51855 0.0
H479 H 0.80105 0.25686 0.43308 0.0
H480 H 0.79745 0.25602 0.38614 0.0
H481 H 0.72245 0.25089 0.39264 0.0
H482 H 0.72561 0.25142 0.43965 0.0
H483 H 0.75353 0.33383 0.55587 0.0
H484 H 0.77433 0.30569 0.533 0.0
H485 H 0.70817 0.27632 0.51431 0.0
H486 H 0.68722 0.30424 0.53755 0.0
H487 H 0.74164 0.28056 0.47177 0.0
H488 H 0.73704 0.25467 0.55874 0.0
H489 H 0.74263 0.25715 0.60537 0.0
H490 H 0.81683 0.2657 0.5946 0.0
H491 H 0.81163 0.26355 0.54786 0.0
C492 C 0.79255 0.19005 0.4429 0.0
C493 C 0.81571 0.18546 0.45024 0.0
C494 C 0.78127 0.20817 0.45228 0.0
C495 C 0.79319 0.22228 0.46861 0.0
C496 C 0.81686 0.2182 0.47455 0.0
C497 C 0.82788 0.19986 0.46573 0.0
C498 C 0.78059 0.24009 0.48146 0.0
C499 C 0.783 0.2423 0.50809 0.0
C500 C 0.76559 0.25422 0.46817 0.0
C501 C 0.76359 0.25398 0.4399 0.0
C502 C 0.7838 0.25539 0.42451 0.0
C503 C 0.78183 0.255 0.39789 0.0
C504 C 0.75974 0.25335 0.38642 0.0
C505 C 0.73955 0.25215 0.40155 0.0
C506 C 0.74142 0.25252 0.42819 0.0
C507 C 0.7434 0.32135 0.54697 0.0
C508 C 0.71873 0.3212 0.54863 0.0
C509 C 0.75531 0.30531 0.53388 0.0
C510 C 0.74278 0.28895 0.52192 0.0
C511 C 0.71815 0.28885 0.52333 0.0
C512 C 0.70623 0.30472 0.53677 0.0
C513 C 0.75547 0.2717 0.5085 0.0
C514 C 0.75294 0.26961 0.48194 0.0
C515 C 0.77076 0.25791 0.5217 0.0
C516 C 0.7739 0.25915 0.5498 0.0
C517 C 0.75452 0.25726 0.5663 0.0
C518 C 0.75762 0.25857 0.59275 0.0
C519 C 0.78007 0.26162 0.60293 0.0
C520 C 0.79946 0.26336 0.58668 0.0
C521 C 0.79644 0.26207 0.56022 0.0
H522 H 0.78245 0.26255 0.62341 0.0
H523 H 0.75826 0.25304 0.36581 0.0
H524 H 0.81787 0.30701 0.97143 0.0
H525 H 0.79787 0.2801 0.99679 0.0
H526 H 0.7308 0.30324 0.97023 0.0
H527 H 0.75084 0.33101 0.94595 0.0
H528 H 0.72631 0.29454 0.01726 0.0
H529 H 0.75875 0.25575 0.94718 0.0
H530 H 0.78944 0.24315 0.9176 0.0
H531 H 0.82737 0.21587 0.98039 0.0
H532 H 0.79704 0.22854 0.0104 0.0
H533 H 0.66178 0.19772 0.03202 0.0
H534 H 0.68236 0.22964 0.01798 0.0
H535 H 0.74031 0.21446 0.06778 0.0
H536 H 0.71933 0.18267 0.08252 0.0
H537 H 0.75079 0.21938 0.01288 0.0
H538 H 0.71318 0.25615 0.08185 0.0
H539 H 0.67949 0.26724 0.10826 0.0
H540 H 0.64758 0.29658 0.04292 0.0
H541 H 0.68092 0.28539 0.01602 0.0
C542 C 0.79886 0.30627 0.97086 0.0
C543 C 0.78593 0.32101 0.95652 0.0
C544 C 0.7874 0.2908 0.98533 0.0
C545 C 0.76275 0.28926 0.98517 0.0
C546 C 0.74981 0.30401 0.97076 0.0
C547 C 0.76127 0.31981 0.95674 0.0
C548 C 0.75048 0.27242 1.00011 0.0
C549 C 0.73157 0.27809 0.01603 0.0
C550 C 0.75747 0.25091 0.99905 0.0
C551 C 0.77576 0.2433 0.98107 0.0
C552 C 0.77373 0.24721 0.9547 0.0
C553 C 0.79104 0.24003 0.93785 0.0
C554 C 0.81037 0.22877 0.94712 0.0
C555 C 0.8124 0.22462 0.97325 0.0
C556 C 0.79515 0.23179 0.99018 0.0
C557 C 0.67857 0.20158 0.04059 0.0
C558 C 0.68894 0.18786 0.05845 0.0
C559 C 0.69032 0.21978 0.03254 0.0
C560 C 0.71286 0.22438 0.0418 0.0
C561 C 0.72287 0.2112 0.06049 0.0
C562 C 0.71083 0.19318 0.06903 0.0
C563 C 0.72673 0.24157 0.02975 0.0
C564 C 0.74582 0.23591 0.01426 0.0
C565 C 0.71952 0.26293 0.03071 0.0
C566 C 0.69949 0.26978 0.04687 0.0
C567 C 0.69889 0.26481 0.07306 0.0
C568 C 0.67987 0.27115 0.08813 0.0
C569 C 0.66139 0.28257 0.07727 0.0
C570 C 0.66191 0.28772 0.05131 0.0
C571 C 0.68088 0.28141 0.03615 0.0
H572 H 0.64668 0.28747 0.08897 0.0
H573 H 0.82375 0.22322 0.93404 0.0
H574 H 0.83431 0.80161 0.57479 0.0
H575 H 0.81631 0.76822 0.56031 0.0
H576 H 0.75946 0.80329 0.52604 0.0
H577 H 0.77763 0.83641 0.53979 0.0
H578 H 0.74514 0.76534 0.55224 0.0
H579 H 0.80218 0.79047 0.48969 0.0
H580 H 0.8419 0.80131 0.47615 0.0
H581 H 0.86913 0.7407 0.49827 0.0
H582 H 0.82957 0.72962 0.5123 0.0
H583 H 0.69311 0.7045 0.45562 0.0
H584 H 0.71317 0.73189 0.48022 0.0
H585 H 0.77157 0.68969 0.49296 0.0
H586 H 0.75179 0.66236 0.46777 0.0
H587 H 0.78765 0.72761 0.48315 0.0
H588 H 0.73084 0.70018 0.54059 0.0
H589 H 0.69182 0.68855 0.55548 0.0
H590 H 0.66506 0.7515 0.54584 0.0
H591 H 0.70384 0.76346 0.53052 0.0
C592 C 0.81769 0.80204 0.56473 0.0
C593 C 0.80726 0.82148 0.55844 0.0
C594 C 0.80751 0.78304 0.55634 0.0
C595 C 0.7866 0.78332 0.54199 0.0
C596 C 0.77554 0.8027 0.53712 0.0
C597 C 0.78592 0.8216 0.54497 0.0
C598 C 0.77696 0.76381 0.53015 0.0
C599 C 0.75437 0.75707 0.53711 0.0
C600 C 0.7893 0.75271 0.5109 0.0
C601 C 0.81301 0.75933 0.50235 0.0
C602 C 0.81668 0.77953 0.49189 0.0
C603 C 0.83915 0.78571 0.48408 0.0
C604 C 0.85804 0.77173 0.48643 0.0
C605 C 0.85449 0.75153 0.49652 0.0
C606 C 0.83205 0.74529 0.5044 0.0
C607 C 0.71027 0.70106 0.46355 0.0
C608 C 0.7208 0.68121 0.45979 0.0
C609 C 0.72167 0.7167 0.47781 0.0
C610 C 0.74373 0.71277 0.48896 0.0
C611 C 0.75453 0.69311 0.48471 0.0
C612 C 0.74319 0.67748 0.47029 0.0
C613 C 0.75547 0.72928 0.50481 0.0
C614 C 0.77847 0.73553 0.49858 0.0
C615 C 0.74361 0.73976 0.52499 0.0
C616 C 0.72022 0.73268 0.53421 0.0
C617 C 0.71659 0.71151 0.54146 0.0
C618 C 0.69452 0.70487 0.55001 0.0
C619 C 0.67597 0.71927 0.55156 0.0
C620 C 0.67945 0.74036 0.54461 0.0
C621 C 0.70149 0.74709 0.53602 0.0
H622 H 0.65889 0.71409 0.55818 0.0
H623 H 0.87543 0.77654 0.48037 0.0
H624 H 0.32698 0.09817 0.0096 0.0
H625 H 0.32874 0.06309 0.98959 0.0
H626 H 0.32159 0.03379 0.06357 0.0
H627 H 0.31942 0.06864 0.08359 0.0
H628 H 0.35705 0.01532 0.03159 0.0
H629 H 0.27536 0.03631 0.0291 0.0
H630 H 0.24246 0.06009 0.01841 0.0
H631 H 0.25993 0.0557 0.93877 0.0
H632 H 0.29317 0.03212 0.94905 0.0
H633 H 0.32581 0.91031 0.99787 0.0
H634 H 0.32811 0.94582 0.01626 0.0
H635 H 0.31936 0.97295 0.94118 0.0
H636 H 0.31614 0.93758 0.92294 0.0
H637 H 0.29324 0.99338 0.9727 0.0
H638 H 0.37367 0.97179 0.97349 0.0
H639 H 0.40731 0.94849 0.9829 0.0
H640 H 0.39413 0.95472 0.06333 0.0
H641 H 0.36018 0.97782 0.05439 0.0
C642 C 0.32595 0.08424 0.02158 0.0
C643 C 0.32298 0.08614 0.04814 0.0
C644 C 0.3269 0.06425 0.01014 0.0
C645 C 0.3252 0.04588 0.02512 0.0
C646 C 0.32297 0.04777 0.05169 0.0
C647 C 0.32165 0.0677 0.06308 0.0
C648 C 0.32491 0.02466 0.01312 0.0
C649 C 0.34303 0.0104 0.01886 0.0
C650 C 0.3069 0.01851 0.99607 0.0
C651 C 0.28691 0.03266 0.98987 0.0
C652 C 0.27232 0.04058 0.00933 0.0
C653 C 0.25359 0.05398 0.00334 0.0
C654 C 0.24915 0.05946 0.97793 0.0
C655 C 0.26341 0.05148 0.95845 0.0
C656 C 0.28219 0.03809 0.96434 0.0
C657 C 0.32448 0.92386 0.98531 0.0
C658 C 0.32084 0.92115 0.95897 0.0
C659 C 0.32592 0.94417 0.9958 0.0
C660 C 0.32423 0.96215 0.98008 0.0
C661 C 0.32071 0.95939 0.95374 0.0
C662 C 0.31895 0.93913 0.94331 0.0
C663 C 0.32546 0.98383 0.99108 0.0
C664 C 0.30744 0.99823 0.98523 0.0
C665 C 0.34375 0.99017 0.00779 0.0
C666 C 0.36424 0.97639 0.01325 0.0
C667 C 0.37784 0.96807 0.99318 0.0
C668 C 0.39698 0.95492 0.99843 0.0
C669 C 0.40282 0.95009 0.02369 0.0
C670 C 0.38957 0.95846 0.04377 0.0
C671 C 0.37038 0.9716 0.03862 0.0
H672 H 0.41764 0.9399 0.02772 0.0
H673 H 0.23463 0.06983 0.97333 0.0
H674 H 0.15058 0.91225 0.52719 0.0
H675 H 0.14834 0.9483 0.51008 0.0
H676 H 0.2152 0.96282 0.5451 0.0
H677 H 0.21632 0.92751 0.56378 0.0
H678 H 0.19122 0.99455 0.55056 0.0
H679 H 0.20547 0.95128 0.47671 0.0
H680 H 0.19802 0.92246 0.446 0.0
H681 H 0.13078 0.94933 0.42779 0.0
H682 H 0.13772 0.97819 0.45861 0.0
H683 H 0.20703 0.06902 0.4326 0.0
H684 H 0.20482 0.03394 0.45166 0.0
H685 H 0.16219 0.05879 0.51291 0.0
H686 H 0.16523 0.09428 0.49433 0.0
H687 H 0.17215 0.0078 0.45955 0.0
H688 H 0.17035 0.03025 0.56711 0.0
H689 H 0.1854 0.05821 0.59564 0.0
H690 H 0.24102 0.07154 0.54258 0.0
H691 H 0.22649 0.0435 0.51392 0.0
C692 C 0.16474 0.92323 0.53111 0.0
C693 C 0.18368 0.91718 0.54663 0.0
C694 C 0.16356 0.9438 0.52123 0.0
C695 C 0.18181 0.95837 0.52582 0.0
C696 C 0.20078 0.95209 0.54129 0.0
C697 C 0.20152 0.93184 0.55185 0.0
C698 C 0.18137 0.98015 0.51476 0.0
C699 C 0.18703 0.99736 0.53063 0.0
C700 C 0.17622 0.98406 0.48868 0.0
C701 C 0.17201 0.96674 0.47015 0.0
C702 C 0.18903 0.95095 0.46627 0.0
C703 C 0.18491 0.93463 0.44883 0.0
C704 C 0.16391 0.93403 0.43501 0.0
C705 C 0.14701 0.9498 0.43854 0.0
C706 C 0.15104 0.96614 0.45597 0.0
C707 C 0.19725 0.06705 0.45019 0.0
C708 C 0.18641 0.08442 0.46206 0.0
C709 C 0.1959 0.04693 0.46103 0.0
C710 C 0.18347 0.04362 0.48386 0.0
C711 C 0.17226 0.06094 0.49556 0.0
C712 C 0.17393 0.08121 0.48489 0.0
C713 C 0.18247 0.02203 0.49523 0.0
C714 C 0.1763 0.00492 0.47948 0.0
C715 C 0.18826 0.01809 0.5211 0.0
C716 C 0.19713 0.03497 0.53824 0.0
C717 C 0.18581 0.03914 0.56157 0.0
C718 C 0.19426 0.05499 0.57776 0.0
C719 C 0.2141 0.0667 0.57088 0.0
C720 C 0.22559 0.06253 0.54783 0.0
C721 C 0.21724 0.04668 0.5316 0.0
H722 H 0.2206 0.07897 0.58343 0.0
H723 H 0.16075 0.92139 0.42152 0.0
H724 H 0.66089 0.94626 0.91175 0.0
H725 H 0.6577 0.97891 0.93693 0.0
H726 H 0.66076 0.94257 0.00653 0.0
H727 H 0.66447 0.91007 0.98165 0.0
H728 H 0.62561 0.97632 0.00602 0.0
H729 H 0.70828 0.96363 0.98957 0.0
H730 H 0.74243 0.95683 0.96174 0.0
H731 H 0.72956 0.01491 0.92163 0.0
H732 H 0.69509 0.02189 0.949 0.0
H733 H 0.65651 0.05729 0.0959 0.0
H734 H 0.65322 0.0247 0.07064 0.0
H735 H 0.66702 0.06012 1.00179 0.0
H736 H 0.67097 0.09231 0.02679 0.0
H737 H 0.69248 0.0265 1.00142 0.0
H738 H 0.61151 0.04097 0.0173 0.0
H739 H 0.57628 0.04857 0.04313 0.0
H740 H 0.58373 0.98896 0.08154 0.0
H741 H 0.61926 0.98115 0.05622 0.0
C742 C 0.66068 0.94524 0.93241 0.0
C743 C 0.66308 0.92562 0.94471 0.0
C744 C 0.65885 0.96387 0.94675 0.0
C745 C 0.65902 0.96312 0.97359 0.0
C746 C 0.66051 0.94348 0.98586 0.0
C747 C 0.66275 0.92493 0.97158 0.0
C748 C 0.65925 0.98284 0.98894 0.0
C749 C 0.64028 0.98726 0.00524 0.0
C750 C 0.67817 0.99726 0.98746 0.0
C751 C 0.69897 0.99315 0.97113 0.0
C752 C 0.71261 0.97485 0.97466 0.0
C753 C 0.73204 0.97098 0.95901 0.0
C754 C 0.73812 0.98539 0.93988 0.0
C755 C 0.72481 0.00374 0.93642 0.0
C756 C 0.70533 0.00766 0.95201 0.0
C757 C 0.65871 0.05808 0.07537 0.0
C758 C 0.66406 0.07737 0.06338 0.0
C759 C 0.65672 0.03948 0.06092 0.0
C760 C 0.65974 0.03993 0.03422 0.0
C761 C 0.66471 0.05928 0.02231 0.0
C762 C 0.6669 0.07774 0.03669 0.0
C763 C 0.65872 0.02026 0.0186 0.0
C764 C 0.67765 0.01574 1.00224 0.0
C765 C 0.63958 0.00596 0.01979 0.0
C766 C 0.61821 0.01058 0.03506 0.0
C767 C 0.60577 0.02956 0.03142 0.0
C768 C 0.58572 0.0339 0.04593 0.0
C769 C 0.5778 0.01928 0.06401 0.0
C770 C 0.5899 1.00028 0.06756 0.0
C771 C 0.61 0.99589 0.05312 0.0
H772 H 0.56227 0.02266 0.07522 0.0
H773 H 0.75317 0.98237 0.92778 0.0
H774 H 0.81104 0.07996 0.46489 0.0
H775 H 0.81695 0.0484 0.49077 0.0
H776 H 0.88101 0.03492 0.44964 0.0
H777 H 0.87415 0.06604 0.42244 0.0
H778 H 0.86199 1.00003 0.45888 0.0
H779 H 0.88019 0.05705 0.51261 0.0
H780 H 0.87572 0.09164 0.53372 0.0
H781 H 0.8137 0.06956 0.57207 0.0
H782 H 0.81757 0.03492 0.55089 0.0
H783 H 0.86612 0.94252 0.59373 0.0
H784 H 0.8734 0.97442 0.56805 0.0
H785 H 0.82638 0.95091 0.50993 0.0
H786 H 0.8198 0.91903 0.53486 0.0
H787 H 0.84825 0.00532 0.5523 0.0
H788 H 0.84162 0.96463 0.45153 0.0
H789 H 0.85319 0.93079 0.43184 0.0
H790 H 0.9053 0.92152 0.49011 0.0
H791 H 0.89436 0.95547 0.50989 0.0
C792 C 0.82629 0.07015 0.46123 0.0
C793 C 0.84216 0.0754 0.44172 0.0
C794 C 0.82982 0.05221 0.47624 0.0
C795 C 0.84986 0.03952 0.47284 0.0
C796 C 0.8655 0.04447 0.45285 0.0
C797 C 0.86158 0.06221 0.43727 0.0
C798 C 0.85401 0.02106 0.49008 0.0
C799 C 0.85912 1.00125 0.47931 0.0
C800 C 0.85145 0.02264 0.51699 0.0
C801 C 0.84912 0.04339 0.53004 0.0
C802 C 0.86553 0.05959 0.52545 0.0
C803 C 0.8631 0.07922 0.53743 0.0
C804 C 0.84442 0.0828 0.5542 0.0
C805 C 0.82816 0.06675 0.55907 0.0
C806 C 0.83048 0.04711 0.54711 0.0
C807 C 0.85741 0.94423 0.57545 0.0
C808 C 0.8425 0.92824 0.56624 0.0
C809 C 0.86158 0.96243 0.56077 0.0
C810 C 0.85084 0.96494 0.53673 0.0
C811 C 0.83547 0.94916 0.52799 0.0
C812 C 0.83156 0.93097 0.54241 0.0
C813 C 0.85485 0.9842 0.52087 0.0
C814 C 0.85142 0.00417 0.53192 0.0
C815 C 0.8601 0.98288 0.49443 0.0
C816 C 0.86703 0.96258 0.4823 0.0
C817 C 0.85566 0.95546 0.46005 0.0
C818 C 0.86209 0.93623 0.44889 0.0
C819 C 0.87993 0.92399 0.45974 0.0
C820 C 0.89144 0.93099 0.48175 0.0
C821 C 0.88512 0.95022 0.49295 0.0
H822 H 0.88485 0.9091 0.45109 0.0
H823 H 0.84257 0.09801 0.56346 0.0
H824 H 0.83944 0.40915 0.98897 0.0
H825 H 0.84137 0.44467 0.00748 0.0
H826 H 0.79847 0.46855 0.9459 0.0
H827 H 0.79731 0.43333 0.92686 0.0
H828 H 0.83223 0.49517 0.95497 0.0
H829 H 0.77654 0.45766 0.00852 0.0
H830 H 0.76388 0.42872 0.03697 0.0
H831 H 0.81923 0.44402 0.08957 0.0
H832 H 0.83237 0.4729 0.0613 0.0
H833 H 0.80326 0.5946 0.00993 0.0
H834 H 0.80311 0.55946 0.99039 0.0
H835 H 0.83838 0.5342 0.05684 0.0
H836 H 0.83622 0.56879 0.07724 0.0
H837 H 0.80893 0.50792 0.0449 0.0
H838 H 0.86526 0.54521 0.99214 0.0
H839 H 0.87875 0.57398 0.96388 0.0
H840 H 0.82419 0.55902 0.91015 0.0
H841 H 0.81025 0.5303 0.93822 0.0
C842 C 0.83044 0.42199 0.97942 0.0
C843 C 0.81815 0.41845 0.95654 0.0
C844 C 0.83145 0.44228 0.99006 0.0
C845 C 0.81973 0.45929 0.97834 0.0
C846 C 0.80764 0.45574 0.95535 0.0
C847 C 0.80694 0.43557 0.94451 0.0
C848 C 0.82001 0.48083 0.98984 0.0
C849 C 0.82694 0.498 0.97459 0.0
C850 C 0.81365 0.48454 0.0156 0.0
C851 C 0.80555 0.46732 0.0327 0.0
C852 C 0.78608 0.45478 0.02609 0.0
C853 C 0.77881 0.43839 0.04219 0.0
C854 C 0.79077 0.4345 0.06503 0.0
C855 C 0.80999 0.44703 0.07186 0.0
C856 C 0.81734 0.46342 0.05583 0.0
C857 C 0.81107 0.58149 0.0202 0.0
C858 C 0.81991 0.58437 0.04496 0.0
C859 C 0.8112 0.56141 0.00895 0.0
C860 C 0.82127 0.54403 0.02176 0.0
C861 C 0.83047 0.54717 0.04642 0.0
C862 C 0.82941 0.56701 0.05806 0.0
C863 C 0.82146 0.52244 0.01016 0.0
C864 C 0.81446 0.5052 0.02534 0.0
C865 C 0.828 0.51866 0.9844 0.0
C866 C 0.83662 0.53572 0.96737 0.0
C867 C 0.8561 0.54811 0.97435 0.0
C868 C 0.86382 0.56441 0.95836 0.0
C869 C 0.8523 0.56835 0.93526 0.0
C870 C 0.83309 0.55596 0.92805 0.0
C871 C 0.8253 0.53965 0.94397 0.0
H872 H 0.85828 0.58099 0.92293 0.0
H873 H 0.78513 0.4218 0.07745 0.0
H874 H 0.69174 0.43547 0.58248 0.0
H875 H 0.68925 0.47073 0.56362 0.0
H876 H 0.67501 0.44313 0.48991 0.0
H877 H 0.67724 0.40765 0.50875 0.0
H878 H 0.7105 0.47489 0.48976 0.0
H879 H 0.63157 0.46471 0.52072 0.0
H880 H 0.60221 0.45584 0.55368 0.0
H881 H 0.62604 0.50773 0.59976 0.0
H882 H 0.65586 0.51667 0.56729 0.0
H883 H 0.68359 0.56827 0.42417 0.0
H884 H 0.68121 0.53308 0.44287 0.0
H885 H 0.68035 0.56046 0.51839 0.0
H886 H 0.68153 0.59596 0.49953 0.0
H887 H 0.65221 0.52838 0.51796 0.0
H888 H 0.73151 0.5383 0.4905 0.0
H889 H 0.76358 0.54697 0.46058 0.0
H890 H 0.74232 0.49611 0.41143 0.0
H891 H 0.70992 0.48731 0.4409 0.0
C892 C 0.68795 0.43687 0.56227 0.0
C893 C 0.68463 0.41877 0.54709 0.0
C894 C 0.68649 0.45705 0.55155 0.0
C895 C 0.68181 0.45954 0.52541 0.0
C896 C 0.6786 0.44152 0.51014 0.0
C897 C 0.6798 0.42129 0.52093 0.0
C898 C 0.68075 0.48099 0.51401 0.0
C899 C 0.69753 0.48651 0.49558 0.0
C900 C 0.66436 0.49632 0.52237 0.0
C901 C 0.64609 0.49125 0.54165 0.0
C902 C 0.63066 0.47414 0.53796 0.0
C903 C 0.61392 0.46911 0.55655 0.0
C904 C 0.61229 0.48119 0.57882 0.0
C905 C 0.62734 0.49837 0.58251 0.0
C906 C 0.64415 0.50344 0.56401 0.0
C907 C 0.68273 0.56684 0.44476 0.0
C908 C 0.68294 0.58488 0.4604 0.0
C909 C 0.68152 0.54666 0.45546 0.0
C910 C 0.68124 0.54399 0.48211 0.0
C911 C 0.6807 0.56204 0.49779 0.0
C912 C 0.68141 0.58233 0.48702 0.0
C913 C 0.68193 0.52238 0.49346 0.0
C914 C 0.66516 0.51681 0.51198 0.0
C915 C 0.69863 0.50706 0.48553 0.0
C916 C 0.71815 0.51228 0.46779 0.0
C917 C 0.73357 0.52906 0.47322 0.0
C918 C 0.75182 0.53398 0.45636 0.0
C919 C 0.75494 0.52214 0.43409 0.0
C920 C 0.73986 0.5053 0.42867 0.0
C921 C 0.72156 0.50032 0.44546 0.0
H922 H 0.76908 0.52597 0.42106 0.0
H923 H 0.59933 0.47726 0.59319 0.0
H924 H 0.16552 0.58682 0.02954 0.0
H925 H 0.15969 0.55329 0.00786 0.0
H926 H 0.15304 0.52172 0.0805 0.0
H927 H 0.15832 0.55578 0.10269 0.0
H928 H 0.18647 0.5034 0.04426 0.0
H929 H 0.10636 0.52543 0.04822 0.0
H930 H 0.07373 0.55076 0.0436 0.0
H931 H 0.08641 0.55444 0.96286 0.0
H932 H 0.11947 0.52947 0.96706 0.0
H933 H 0.16456 0.40651 0.98349 0.0
H934 H 0.15982 0.43723 0.01099 0.0
H935 H 0.1519 0.4771 0.94467 0.0
H936 H 0.15578 0.44602 0.91685 0.0
H937 H 0.1229 0.48989 0.98141 0.0
H938 H 0.20493 0.47291 0.97706 0.0
H939 H 0.23993 0.45006 0.98014 0.0
H940 H 0.22572 0.43918 0.05964 0.0
H941 H 0.19044 0.46176 0.05695 0.0
C942 C 0.16253 0.57287 0.04106 0.0
C943 C 0.16231 0.574 0.0679 0.0
C944 C 0.15915 0.55368 0.02855 0.0
C945 C 0.15577 0.53507 0.04254 0.0
C946 C 0.1555 0.53599 0.06938 0.0
C947 C 0.15848 0.5554 0.082 0.0
C948 C 0.15383 0.51468 0.02871 0.0
C949 C 0.17228 0.50015 0.03098 0.0
C950 C 0.13573 0.51093 0.01071 0.0
C951 C 0.11554 0.52565 0.008 0.0
C952 C 0.10232 0.53175 0.0295 0.0
C953 C 0.08373 0.54604 0.02696 0.0
C954 C 0.07802 0.55423 0.00296 0.0
C955 C 0.09086 0.54809 0.98144 0.0
C956 C 0.10952 0.53385 0.98389 0.0
C957 C 0.16163 0.42176 0.97467 0.0
C958 C 0.16077 0.42385 0.94793 0.0
C959 C 0.15901 0.43937 0.99048 0.0
C960 C 0.15601 0.4596 0.97996 0.0
C961 C 0.1543 0.46167 0.95326 0.0
C962 C 0.1566 0.44393 0.93737 0.0
C963 C 0.15567 0.47856 0.99685 0.0
C964 C 0.13689 0.49291 0.99501 0.0
C965 C 0.17367 0.48236 0.01503 0.0
C966 C 0.19491 0.46883 0.01673 0.0
C967 C 0.20917 0.46551 0.99515 0.0
C968 C 0.22907 0.45263 0.99684 0.0
C969 C 0.235 0.44312 0.02005 0.0
C970 C 0.22108 0.44652 0.04166 0.0
C971 C 0.20114 0.45937 0.04007 0.0
H972 H 0.25042 0.43315 0.02132 0.0
H973 H 0.06363 0.5653 1.00103 0.0
H974 H 0.34365 0.55489 0.40483 0.0
H975 H 0.34624 0.52142 0.42869 0.0
H976 H 0.35331 0.55614 0.49913 0.0
H977 H 0.35 0.58936 0.47569 0.0
H978 H 0.38466 0.51882 0.49323 0.0
H979 H 0.30303 0.54102 0.48841 0.0
H980 H 0.26723 0.55209 0.46549 0.0
H981 H 0.26751 0.49395 0.42317 0.0
H982 H 0.30358 0.48269 0.4456 0.0
H983 H 0.35156 0.44497 0.58974 0.0
H984 H 0.35596 0.47623 0.5624 0.0
H985 H 0.33171 0.44024 0.49755 0.0
H986 H 0.32691 0.40923 0.52472 0.0
H987 H 0.31085 0.47723 0.49822 0.0
H988 H 0.38968 0.45279 0.50517 0.0
H989 H 0.4255 0.44088 0.52741 0.0
H990 H 0.43177 0.50147 0.56373 0.0
H991 H 0.3957 0.51362 0.54207 0.0
C992 C 0.34609 0.55533 0.42535 0.0
C993 C 0.34646 0.57473 0.43841 0.0
C994 C 0.34756 0.53625 0.43893 0.0
C995 C 0.34996 0.53635 0.46568 0.0
C996 C 0.35157 0.55572 0.47852 0.0
C997 C 0.34954 0.5747 0.46507 0.0
C998 C 0.34875 0.51645 0.48065 0.0
C999 C 0.36854 0.50973 0.49447 0.0
C1000 C 0.32783 0.50444 0.48185 0.0
C1001 C 0.30615 0.51115 0.46842 0.0
C1002 C 0.2956 0.5307 0.47403 0.0
C1003 C 0.27523 0.53699 0.46117 0.0
C1004 C 0.26515 0.52376 0.44282 0.0
C1005 C 0.27538 0.5042 0.43734 0.0
C1006 C 0.29577 0.49786 0.45012 0.0
C1007 C 0.34718 0.44376 0.56966 0.0
C1008 C 0.33889 0.42463 0.55942 0.0
C1009 C 0.34983 0.46159 0.554 0.0
C1010 C 0.34438 0.46056 0.52781 0.0
C1011 C 0.33602 0.44146 0.51765 0.0
C1012 C 0.33335 0.42371 0.53325 0.0
C1013 C 0.34679 0.47945 0.51101 0.0
C1014 C 0.32714 0.48608 0.49687 0.0
C1015 C 0.36795 0.49119 0.50935 0.0
C1016 C 0.38983 0.48405 0.52218 0.0
C1017 C 0.39859 0.46353 0.51805 0.0
C1018 C 0.41895 0.45674 0.53054 0.0
C1019 C 0.43087 0.47039 0.54702 0.0
C1020 C 0.42249 0.4909 0.55098 0.0
C1021 C 0.40209 0.49775 0.5386 0.0
H1022 H 0.44663 0.4651 0.55668 0.0
H1023 H 0.24937 0.52865 0.43289 0.0
H1024 H 0.58451 0.10656 0.0468 0.0
H1025 H 0.54222 0.10802 0.05376 0.0
H1026 H 0.55247 0.15249 0.11525 0.0
H1027 H 0.59513 0.15048 0.10894 0.0
H1028 H 0.51974 0.12609 0.12828 0.0
H1029 H 0.53316 0.16819 0.05407 0.0
H1030 H 0.54867 0.17647 0.01122 0.0
H1031 H 0.50831 0.12566 0.97912 0.0
H1032 H 0.49278 0.11689 0.02184 0.0
H1033 H 0.39162 0.1545 0.08241 0.0
H1034 H 0.43426 0.15931 0.08019 0.0
H1035 H 0.44443 0.09752 0.1132 0.0
H1036 H 0.40203 0.09268 0.11583 0.0
H1037 H 0.46678 0.13832 0.05442 0.0
H1038 H 0.49359 0.09653 0.1491 0.0
H1039 H 0.47789 0.09163 0.19263 0.0
H1040 H 0.43748 0.14863 0.18523 0.0
H1041 H 0.45319 0.15403 0.14182 0.0
C1042 C 0.57782 0.11669 0.06181 0.0
C1043 C 0.59323 0.12859 0.07714 0.0
C1044 C 0.55356 0.11758 0.0657 0.0
C1045 C 0.54399 0.13077 0.08463 0.0
C1046 C 0.55936 0.1423 0.1004 0.0
C1047 C 0.58375 0.14116 0.09677 0.0
C1048 C 0.518 0.13236 0.08787 0.0
C1049 C 0.50819 0.12884 0.11213 0.0
C1050 C 0.5028 0.13645 0.06696 0.0
C1051 C 0.51193 0.1418 0.04119 0.0
C1052 C 0.52769 0.15871 0.03789 0.0
C1053 C 0.53648 0.1635 0.01363 0.0
C1054 C 0.52951 0.15158 0.99247 0.0
C1055 C 0.5137 0.13488 0.99553 0.0
C1056 C 0.50487 0.13001 0.01976 0.0
C1057 C 0.4029 0.14199 0.0894 0.0
C1058 C 0.39327 0.12322 0.09937 0.0
C1059 C 0.42731 0.14475 0.08804 0.0
C1060 C 0.44261 0.12888 0.09676 0.0
C1061 C 0.43304 0.11016 0.10676 0.0
C1062 C 0.40871 0.10739 0.10813 0.0
C1063 C 0.46856 0.13144 0.09466 0.0
C1064 C 0.47835 0.13573 0.0706 0.0
C1065 C 0.48371 0.12855 0.11585 0.0
C1066 C 0.47443 0.12557 0.14211 0.0
C1067 C 0.48145 0.10807 0.15681 0.0
C1068 C 0.47253 0.1052 0.18146 0.0
C1069 C 0.45665 0.11978 0.19166 0.0
C1070 C 0.44972 0.1373 0.17727 0.0
C1071 C 0.4586 0.14026 0.15263 0.0
H1072 H 0.44975 0.11751 0.21074 0.0
H1073 H 0.53635 0.1553 0.97371 0.0
H1074 H 0.91716 0.90324 0.54874 0.0
H1075 H 0.95975 0.90253 0.5537 0.0
H1076 H 0.95409 0.84649 0.60042 0.0
H1077 H 0.91113 0.84812 0.59689 0.0
H1078 H 0.98617 0.8685 0.61952 0.0
H1079 H 0.97278 0.84662 0.53385 0.0
H1080 H 0.95645 0.84813 0.49025 0.0
H1081 H 0.99226 0.90684 0.47687 0.0
H1082 H 0.00857 0.90583 0.52052 0.0
H1083 H 0.11098 0.84749 0.59867 0.0
H1084 H 0.06805 0.8439 0.59513 0.0
H1085 H 0.06228 0.91039 0.57829 0.0
H1086 H 0.10489 0.91423 0.58246 0.0
H1087 H 0.03701 0.87918 0.54358 0.0
H1088 H 0.04822 0.89975 0.63267 0.0
H1089 H 0.06535 0.89498 0.67556 0.0
H1090 H 0.03438 0.83322 0.6806 0.0
H1091 H 0.01735 0.83752 0.63753 0.0
C1092 C 0.92501 0.89075 0.56005 0.0
C1093 C 0.91084 0.87561 0.57222 0.0
C1094 C 0.94944 0.89024 0.56273 0.0
C1095 C 0.96042 0.87406 0.5768 0.0
C1096 C 0.9462 0.85908 0.58932 0.0
C1097 C 0.92164 0.85997 0.58725 0.0
C1098 C 0.98664 0.87306 0.57864 0.0
C1099 C 0.99717 0.87047 0.60277 0.0
C1100 C 1.00133 0.87564 0.55691 0.0
C1101 C 0.99175 0.87622 0.53054 0.0
C1102 C 0.97707 0.85991 0.52166 0.0
C1103 C 0.96783 0.86068 0.49693 0.0
C1104 C 0.97327 0.8776 0.48082 0.0
C1105 C 0.98804 0.89375 0.48938 0.0
C1106 C 0.99732 0.89308 0.5141 0.0
C1107 C 0.10053 0.86132 0.59423 0.0
C1108 C 0.1113 0.88116 0.59098 0.0
C1109 C 0.07606 0.85925 0.59226 0.0
C1110 C 0.06205 0.8769 0.58648 0.0
C1111 C 0.0728 0.8966 0.58278 0.0
C1112 C 0.09713 0.89877 0.58529 0.0
C1113 C 0.03615 0.875 0.58431 0.0
C1114 C 0.0258 0.877 0.56015 0.0
C1115 C 0.02171 0.87134 0.60583 0.0
C1116 C 0.03176 0.86886 0.63178 0.0
C1117 C 0.04526 0.88507 0.64282 0.0
C1118 C 0.05491 0.88247 0.66718 0.0
C1119 C 0.05103 0.86378 0.68076 0.0
C1120 C 0.03742 0.84767 0.67004 0.0
C1121 C 0.02775 0.85019 0.64566 0.0
H1122 H 0.05851 0.86179 0.69962 0.0
H1123 H 0.96608 0.87817 0.46169 0.0
H1124 H 0.4025 0.91597 0.91116 0.0
H1125 H 0.4448 0.91028 0.9131 0.0
H1126 H 0.43361 0.84306 0.91975 0.0
H1127 H 0.39104 0.8487 0.91857 0.0
H1128 H 0.46674 0.85416 0.95096 0.0
H1129 H 0.45254 0.86614 0.8628 0.0
H1130 H 0.43676 0.88444 0.8249 0.0
H1131 H 0.47804 0.9393 0.84273 0.0
H1132 H 0.49383 0.92144 0.88094 0.0
H1133 H 0.59511 0.86019 0.89424 0.0
H1134 H 0.55247 0.85857 0.88791 0.0
H1135 H 0.54171 0.8825 0.96418 0.0
H1136 H 0.58398 0.88372 0.97086 0.0
H1137 H 0.51954 0.88745 0.88711 0.0
H1138 H 0.49287 0.863 0.99052 0.0
H1139 H 0.50842 0.84122 0.02576 0.0
H1140 H 0.54868 0.80461 0.97232 0.0
H1141 H 0.53313 0.82597 0.93672 0.0
C1142 C 0.40897 0.89994 0.91298 0.0
C1143 C 0.39331 0.88277 0.91452 0.0
C1144 C 0.43324 0.8967 0.91396 0.0
C1145 C 0.44251 0.87619 0.91604 0.0
C1146 C 0.42693 0.85903 0.91801 0.0
C1147 C 0.40257 0.86227 0.9173 0.0
C1148 C 0.46843 0.87284 0.91661 0.0
C1149 C 0.47826 0.86138 0.93694 0.0
C1150 C 0.48354 0.88172 0.89793 0.0
C1151 C 0.47425 0.89249 0.87484 0.0
C1152 C 0.45815 0.88216 0.85872 0.0
C1153 C 0.44921 0.89245 0.83717 0.0
C1154 C 0.45636 0.91303 0.83144 0.0
C1155 C 0.47251 0.92336 0.8472 0.0
C1156 C 0.48148 0.91314 0.86879 0.0
C1157 C 0.58366 0.86501 0.90971 0.0
C1158 C 0.59307 0.87194 0.93313 0.0
C1159 C 0.55927 0.86411 0.90604 0.0
C1160 C 0.5438 0.87009 0.9257 0.0
C1161 C 0.55319 0.87731 0.94891 0.0
C1162 C 0.57747 0.87809 0.95265 0.0
C1163 C 0.51785 0.86938 0.92194 0.0
C1164 C 0.50801 0.88008 0.90101 0.0
C1165 C 0.50272 0.8593 0.93968 0.0
C1166 C 0.51197 0.84622 0.96097 0.0
C1167 C 0.50495 0.85024 0.98627 0.0
C1168 C 0.51379 0.83798 0.00632 0.0
C1169 C 0.52957 0.82158 1.00129 0.0
C1170 C 0.53651 0.81736 0.9762 0.0
C1171 C 0.52772 0.82956 0.95608 0.0
H1172 H 0.5364 0.81212 0.01684 0.0
H1173 H 0.44941 0.92098 0.81475 0.0
H1174 H 0.10531 0.0865 0.42569 0.0
H1175 H 0.06277 0.09052 0.42737 0.0
H1176 H 0.06983 0.15712 0.41117 0.0
H1177 H 0.11273 0.1533 0.41073 0.0
H1178 H 0.03676 0.15288 0.4437 0.0
H1179 H 0.052 0.11951 0.36448 0.0
H1180 H 0.06894 0.09355 0.33457 0.0
H1181 H 0.03188 0.04348 0.37256 0.0
H1182 H 0.01496 0.0691 0.40294 0.0
H1183 H 0.91186 0.15362 0.40714 0.0
H1184 H 0.95481 0.15445 0.40161 0.0
H1185 H 0.96156 0.10031 0.45105 0.0
H1186 H 0.91893 0.09977 0.45733 0.0
H1187 H 0.98678 0.10144 0.39712 0.0
H1188 H 0.97518 0.138 0.47898 0.0
H1189 H 0.95763 0.16616 0.5054 0.0
H1190 H 0.98738 0.21331 0.45601 0.0
H1191 H 0.0048 0.18537 0.42907 0.0
C1192 C 0.09783 0.10203 0.4225 0.0
C1193 C 0.1124 0.11955 0.41783 0.0
C1194 C 0.07343 0.1043 0.42329 0.0
C1195 C 0.06288 0.12402 0.41866 0.0
C1196 C 0.07744 0.14169 0.41462 0.0
C1197 C 0.10197 0.1395 0.41435 0.0
C1198 C 0.03673 0.12604 0.41827 0.0
C1199 C 0.02594 0.1418 0.43314 0.0
C1200 C 0.02233 0.11172 0.40444 0.0
C1201 C 0.03235 0.09623 0.38612 0.0
C1202 C 0.04758 0.10295 0.36656 0.0
C1203 C 0.05716 0.08829 0.34951 0.0
C1204 C 0.05153 0.06688 0.35169 0.0
C1205 C 0.03624 0.06007 0.3709 0.0
C1206 C 0.02662 0.07466 0.38803 0.0
C1207 C 0.92253 0.14191 0.4168 0.0
C1208 C 0.91205 0.1267 0.43278 0.0
C1209 C 0.94701 0.14243 0.41366 0.0
C1210 C 0.96128 0.12746 0.42598 0.0
C1211 C 0.95081 0.11201 0.44144 0.0
C1212 C 0.92649 0.11179 0.44507 0.0
C1213 C 0.98718 0.12781 0.42297 0.0
C1214 C 0.9978 0.11255 0.4074 0.0
C1215 C 1.00136 0.14288 0.43559 0.0
C1216 C 0.991 0.15962 0.45184 0.0
C1217 C 0.97774 0.15436 0.4736 0.0
C1218 C 0.96788 0.17028 0.4887 0.0
C1219 C 0.97131 0.19151 0.48233 0.0
C1220 C 0.98468 0.19686 0.46089 0.0
C1221 C 0.99456 0.181 0.44571 0.0
H1222 H 0.96367 0.20381 0.49406 0.0
H1223 H 0.05897 0.05555 0.33847 0.0
H1224 H 0.09435 0.65787 0.09178 0.0
H1225 H 0.05143 0.65999 0.09562 0.0
H1226 H 0.04542 0.59703 0.0643 0.0
H1227 H 0.08793 0.59563 0.05883 0.0
H1228 H 0.01448 0.61824 0.04354 0.0
H1229 H 0.03725 0.61219 0.13202 0.0
H1230 H 0.05792 0.62217 0.17165 0.0
H1231 H 0.02416 0.68287 0.17062 0.0
H1232 H 0.00349 0.67333 0.13082 0.0
H1233 H 0.90236 0.58726 0.08821 0.0
H1234 H 0.94473 0.59243 0.08469 0.0
H1235 H 0.93515 0.65994 0.0883 0.0
H1236 H 0.89238 0.65494 0.09147 0.0
H1237 H 0.97259 0.64111 0.12189 0.0
H1238 H 0.94677 0.6433 0.03415 0.0
H1239 H 0.92482 0.6299 0.99689 0.0
H1240 H 0.96414 0.57201 0.99941 0.0
H1241 H 0.98608 0.58493 0.03693 0.0
C1242 C 0.08377 0.64449 0.08592 0.0
C1243 C 0.0944 0.62661 0.07498 0.0
C1244 C 0.05922 0.64562 0.08823 0.0
C1245 C 0.04494 0.62858 0.08052 0.0
C1246 C 0.05581 0.61052 0.07023 0.0
C1247 C 0.08017 0.60966 0.06721 0.0
C1248 C 0.0187 0.62954 0.08219 0.0
C1249 C 0.00548 0.62306 0.06085 0.0
C1250 C 0.00658 0.63637 0.10443 0.0
C1251 C 0.01905 0.64214 0.12829 0.0
C1252 C 0.03438 0.62772 0.14015 0.0
C1253 C 0.04607 0.63329 0.16266 0.0
C1254 C 0.04242 0.65317 0.1736 0.0
C1255 C 0.02701 0.6675 0.1621 0.0
C1256 C 0.0153 0.66202 0.13957 0.0
C1257 C 0.90917 0.60324 0.0883 0.0
C1258 C 0.89393 0.6207 0.09012 0.0
C1259 C 0.93342 0.60615 0.08624 0.0
C1260 C 0.94305 0.62655 0.08622 0.0
C1261 C 0.92802 0.64406 0.08833 0.0
C1262 C 0.90361 0.64118 0.08999 0.0
C1263 C 0.96885 0.62928 0.0836 0.0
C1264 C 0.98183 0.63649 0.10464 0.0
C1265 C 0.98082 0.62268 0.06134 0.0
C1266 C 0.96795 0.61504 0.03847 0.0
C1267 C 0.95062 0.62766 0.02686 0.0
C1268 C 0.9382 0.62015 0.00568 0.0
C1269 C 0.94305 0.6001 0.99582 0.0
C1270 C 0.96039 0.58754 0.00707 0.0
C1271 C 0.97285 0.59495 0.02828 0.0
H1272 H 0.93339 0.59431 0.97944 0.0
H1273 H 0.05148 0.65744 0.19103 0.0
H1274 H 0.61269 0.34996 0.59008 0.0
H1275 H 0.56988 0.34682 0.58756 0.0
H1276 H 0.56323 0.41437 0.59629 0.0
H1277 H 0.60581 0.41755 0.5996 0.0
H1278 H 0.53086 0.3964 0.62328 0.0
H1279 H 0.55834 0.38875 0.53695 0.0
H1280 H 0.58184 0.37313 0.50215 0.0
H1281 H 0.54927 0.31285 0.51514 0.0
H1282 H 0.52579 0.32807 0.55026 0.0
H1283 H 0.42019 0.3891 0.53621 0.0
H1284 H 0.46257 0.38976 0.54253 0.0
H1285 H 0.45378 0.36375 0.61811 0.0
H1286 H 0.41108 0.36337 0.61212 0.0
H1287 H 0.49377 0.36001 0.54969 0.0
H1288 H 0.49785 0.38242 0.65672 0.0
H1289 H 0.47455 0.40207 0.68862 0.0
H1290 H 0.44408 0.43979 0.62898 0.0
H1291 H 0.4674 0.42056 0.59679 0.0
C1292 C 0.60211 0.36414 0.59152 0.0
C1293 C 0.61276 0.384 0.59503 0.0
C1294 C 0.5776 0.36233 0.59 0.0
C1295 C 0.56323 0.38038 0.59145 0.0
C1296 C 0.57384 0.40017 0.59522 0.0
C1297 C 0.59827 0.40197 0.59704 0.0
C1298 C 0.53718 0.37886 0.58867 0.0
C1299 C 0.52279 0.38834 0.60724 0.0
C1300 C 0.52649 0.36865 0.56756 0.0
C1301 C 0.5405 0.35949 0.54639 0.0
C1302 C 0.55631 0.37213 0.5325 0.0
C1303 C 0.56961 0.36336 0.5127 0.0
C1304 C 0.5671 0.342 0.50648 0.0
C1305 C 0.55123 0.32938 0.52 0.0
C1306 C 0.53791 0.33807 0.53984 0.0
C1307 C 0.42717 0.38347 0.55422 0.0
C1308 C 0.4121 0.37615 0.57365 0.0
C1309 C 0.4515 0.38382 0.55777 0.0
C1310 C 0.46147 0.37688 0.58081 0.0
C1311 C 0.44653 0.36944 0.60025 0.0
C1312 C 0.42209 0.36918 0.59677 0.0
C1313 C 0.48747 0.37757 0.58429 0.0
C1314 C 0.50185 0.36788 0.56587 0.0
C1315 C 0.49815 0.3881 0.60514 0.0
C1316 C 0.48416 0.39986 0.62435 0.0
C1317 C 0.48621 0.39494 0.65044 0.0
C1318 C 0.473 0.406 0.66857 0.0
C1319 C 0.45778 0.42211 0.66083 0.0
C1320 C 0.4558 0.42724 0.63495 0.0
C1321 C 0.46898 0.41625 0.61675 0.0
H1322 H 0.44756 0.43065 0.67489 0.0
H1323 H 0.57741 0.33523 0.49115 0.0
H1324 H 0.08285 0.35991 0.96978 0.0
H1325 H 0.04044 0.35998 0.96224 0.0
H1326 H 0.05206 0.37781 0.88376 0.0
H1327 H 0.09466 0.37747 0.89101 0.0
H1328 H 0.01856 0.40352 0.91148 0.0
H1329 H 0.03502 0.33024 0.89378 0.0
H1330 H 0.05128 0.29498 0.90332 0.0
H1331 H 0.00788 0.29077 0.97024 0.0
H1332 H 0.9916 0.32615 0.9613 0.0
H1333 H 0.89986 0.39824 0.87397 0.0
H1334 H 0.94239 0.39349 0.87631 0.0
H1335 H 0.9343 0.35837 0.9465 0.0
H1336 H 0.89155 0.36201 0.94328 0.0
H1337 H 0.96687 0.34091 0.92143 0.0
H1338 H 0.95214 0.4132 0.94309 0.0
H1339 H 0.93624 0.44917 0.93741 0.0
H1340 H 0.97655 0.45654 0.86862 0.0
H1341 H 0.99247 0.4205 0.87373 0.0
C1342 C 0.07643 0.36368 0.95084 0.0
C1343 C 0.09217 0.36869 0.93098 0.0
C1344 C 0.05218 0.36365 0.94656 0.0
C1345 C 0.04312 0.36885 0.92244 0.0
C1346 C 0.05873 0.37371 0.90251 0.0
C1347 C 0.08305 0.37342 0.90666 0.0
C1348 C 0.01732 0.37003 0.91843 0.0
C1349 C 0.00724 0.38979 0.91321 0.0
C1350 C 1.00256 0.35225 0.92166 0.0
C1351 C 0.01225 0.33093 0.92699 0.0
C1352 C 0.02909 0.32187 0.91065 0.0
C1353 C 0.03828 0.30185 0.91592 0.0
C1354 C 0.03066 0.29066 0.9374 0.0
C1355 C 0.01378 0.29946 0.95362 0.0
C1356 C 0.00455 0.31949 0.94844 0.0
C1357 C 0.90717 0.38943 0.88984 0.0
C1358 C 0.8924 0.38062 0.90854 0.0
C1359 C 0.93153 0.38683 0.89128 0.0
C1360 C 0.94178 0.37604 0.91196 0.0
C1361 C 0.92695 0.36683 0.93038 0.0
C1362 C 0.9025 0.36895 0.92858 0.0
C1363 C 0.96787 0.3745 0.9145 0.0
C1364 C 0.97807 0.35469 0.91954 0.0
C1365 C 0.98275 0.39236 0.91171 0.0
C1366 C 0.97332 0.41408 0.90866 0.0
C1367 C 0.9575 0.42245 0.92667 0.0
C1368 C 0.9485 0.44285 0.92356 0.0
C1369 C 0.95533 0.45511 0.90263 0.0
C1370 C 0.97124 0.44701 0.8848 0.0
C1371 C 0.98028 0.42661 0.88781 0.0
H1372 H 0.94834 0.4709 0.90026 0.0
H1373 H 0.03779 0.27516 0.94145 0.0
H1374 H 0.61514 0.65672 0.41327 0.0
H1375 H 0.57248 0.66167 0.41492 0.0
H1376 H 0.56262 0.59418 0.40956 0.0
H1377 H 0.605 0.58923 0.40691 0.0
H1378 H 0.53132 0.61185 0.38187 0.0
H1379 H 0.55897 0.62317 0.46788 0.0
H1380 H 0.58291 0.64014 0.50139 0.0
H1381 H 0.55228 0.70034 0.48328 0.0
H1382 H 0.52835 0.68375 0.44945 0.0
H1383 H 0.42252 0.62177 0.46997 0.0
H1384 H 0.46478 0.62285 0.46318 0.0
H1385 H 0.45376 0.64453 0.38596 0.0
H1386 H 0.41113 0.64301 0.39242 0.0
H1387 H 0.49536 0.6522 0.45306 0.0
H1388 H 0.4978 0.62494 0.34782 0.0
H1389 H 0.47418 0.60386 0.31758 0.0
H1390 H 0.4448 0.5686 0.37999 0.0
H1391 H 0.46846 0.58928 0.41054 0.0
C1392 C 0.60386 0.64295 0.41236 0.0
C1393 C 0.61355 0.62257 0.41 0.0
C1394 C 0.57944 0.64579 0.4134 0.0
C1395 C 0.5642 0.62828 0.41271 0.0
C1396 C 0.57389 0.60798 0.41004 0.0
C1397 C 0.59821 0.60516 0.4086 0.0
C1398 C 0.53821 0.63084 0.41522 0.0
C1399 C 0.52351 0.6208 0.39737 0.0
C1400 C 0.52781 0.64229 0.43556 0.0
C1401 C 0.54207 0.65226 0.45597 0.0
C1402 C 0.55746 0.64005 0.47095 0.0
C1403 C 0.57101 0.64959 0.49001 0.0
C1404 C 0.56917 0.67131 0.49441 0.0
C1405 C 0.55372 0.68352 0.47982 0.0
C1406 C 0.54015 0.67406 0.46071 0.0
C1407 C 0.42895 0.62686 0.45155 0.0
C1408 C 0.41327 0.63219 0.43173 0.0
C1409 C 0.45324 0.62756 0.44769 0.0
C1410 C 0.46257 0.63359 0.42398 0.0
C1411 C 0.44703 0.63951 0.40432 0.0
C1412 C 0.42264 0.6387 0.40812 0.0
C1413 C 0.48852 0.63302 0.41988 0.0
C1414 C 0.5032 0.64349 0.43738 0.0
C1415 C 0.4989 0.62144 0.39965 0.0
C1416 C 0.48467 0.60885 0.38145 0.0
C1417 C 0.48632 0.61267 0.35506 0.0
C1418 C 0.47293 0.60078 0.33788 0.0
C1419 C 0.45793 0.58496 0.34687 0.0
C1420 C 0.45635 0.58092 0.37306 0.0
C1421 C 0.46972 0.59274 0.39032 0.0
H1422 H 0.44757 0.57579 0.33353 0.0
H1423 H 0.57967 0.67867 0.50917 0.0
H1424 H 0.26692 0.1168 0.1636 0.0
H1425 H 0.24796 0.13006 0.20203 0.0
H1426 H 0.28933 0.18708 0.19792 0.0
H1427 H 0.30839 0.17384 0.15864 0.0
H1428 H 0.28944 0.16531 0.24734 0.0
H1429 H 0.2346 0.19416 0.18896 0.0
H1430 H 0.20897 0.19481 0.151 0.0
H1431 H 0.16791 0.14394 0.18193 0.0
H1432 H 0.1935 0.14273 0.2199 0.0
H1433 H 0.22212 0.17103 0.36467 0.0
H1434 H 0.23858 0.18443 0.32421 0.0
H1435 H 0.20663 0.13234 0.28392 0.0
H1436 H 0.19012 0.11927 0.32353 0.0
H1437 H 0.20272 0.16744 0.25655 0.0
H1438 H 0.26511 0.13165 0.30555 0.0
H1439 H 0.2916 0.12829 0.34266 0.0
H1440 H 0.31847 0.19067 0.32872 0.0
H1441 H 0.29193 0.19445 0.29166 0.0
C1442 C 0.27187 0.13228 0.17064 0.0
C1443 C 0.28921 0.14425 0.15814 0.0
C1444 C 0.26092 0.13989 0.19257 0.0
C1445 C 0.26713 0.1596 0.20278 0.0
C1446 C 0.28422 0.17186 0.19025 0.0
C1447 C 0.29499 0.16435 0.16782 0.0
C1448 C 0.25637 0.16621 0.22739 0.0
C1449 C 0.27051 0.16652 0.24936 0.0
C1450 C 0.23168 0.16761 0.23002 0.0
C1451 C 0.21602 0.16837 0.20732 0.0
C1452 C 0.22018 0.18303 0.18763 0.0
C1453 C 0.20565 0.18351 0.1661 0.0
C1454 C 0.18682 0.16943 0.16406 0.0
C1455 C 0.18248 0.15486 0.18356 0.0
C1456 C 0.19697 0.15431 0.20512 0.0
C1457 C 0.21833 0.16271 0.34707 0.0
C1458 C 0.20502 0.14395 0.3474 0.0
C1459 C 0.22783 0.17031 0.324 0.0
C1460 C 0.22402 0.1593 0.30098 0.0
C1461 C 0.20983 0.14118 0.3013 0.0
C1462 C 0.20051 0.13361 0.32412 0.0
C1463 C 0.2357 0.16523 0.27653 0.0
C1464 C 0.22169 0.16722 0.25455 0.0
C1465 C 0.26047 0.16574 0.27391 0.0
C1466 C 0.27636 0.16344 0.29611 0.0
C1467 C 0.27656 0.14469 0.31054 0.0
C1468 C 0.29159 0.1427 0.33153 0.0
C1469 C 0.30665 0.15929 0.3381 0.0
C1470 C 0.30675 0.17787 0.32365 0.0
C1471 C 0.29173 0.17994 0.30266 0.0
H1472 H 0.31828 0.15772 0.35435 0.0
H1473 H 0.1756 0.16982 0.14737 0.0
H1474 H 0.2666 0.84855 0.86364 0.0
H1475 H 0.24897 0.83889 0.82251 0.0
H1476 H 0.31397 0.85463 0.78435 0.0
H1477 H 0.33091 0.86544 0.82521 0.0
H1478 H 0.28185 0.87395 0.76197 0.0
H1479 H 0.28918 0.80203 0.78778 0.0
H1480 H 0.28521 0.77109 0.81609 0.0
H1481 H 0.21008 0.77707 0.81394 0.0
H1482 H 0.21359 0.80824 0.78587 0.0
H1483 H 0.24046 0.84652 0.63897 0.0
H1484 H 0.26086 0.8377 0.679 0.0
H1485 H 0.19761 0.85085 0.72144 0.0
H1486 H 0.17751 0.86047 0.68164 0.0
H1487 H 0.2304 0.81343 0.73956 0.0
H1488 H 0.22577 0.88919 0.71944 0.0
H1489 H 0.23074 0.91943 0.6902 0.0
H1490 H 0.30378 0.9041 0.6811 0.0
H1491 H 0.29908 0.87349 0.70995 0.0
C1492 C 0.27725 0.84929 0.84651 0.0
C1493 C 0.30008 0.85763 0.84747 0.0
C1494 C 0.26722 0.84373 0.82296 0.0
C1495 C 0.28009 0.84596 0.80011 0.0
C1496 C 0.30354 0.85288 0.80154 0.0
C1497 C 0.3133 0.85891 0.82491 0.0
C1498 C 0.26848 0.84375 0.77464 0.0
C1499 C 0.27108 0.8604 0.75705 0.0
C1500 C 0.25389 0.82639 0.76808 0.0
C1501 C 0.25167 0.80759 0.78488 0.0
C1502 C 0.27181 0.79685 0.79349 0.0
C1503 C 0.26964 0.77925 0.80947 0.0
C1504 C 0.24741 0.77215 0.81686 0.0
C1505 C 0.22729 0.7826 0.80822 0.0
C1506 C 0.22936 0.80022 0.79224 0.0
C1507 C 0.23073 0.84674 0.65677 0.0
C1508 C 0.20744 0.85403 0.65734 0.0
C1509 C 0.24237 0.84175 0.67958 0.0
C1510 C 0.23069 0.84358 0.70314 0.0
C1511 C 0.20683 0.84912 0.70345 0.0
C1512 C 0.1954 0.85464 0.68076 0.0
C1513 C 0.24416 0.84344 0.7274 0.0
C1514 C 0.24165 0.82661 0.74464 0.0
C1515 C 0.25913 0.86046 0.73368 0.0
C1516 C 0.262 0.87891 0.71651 0.0
C1517 C 0.24282 0.89213 0.71096 0.0
C1518 C 0.24559 0.90936 0.69451 0.0
C1519 C 0.26755 0.91364 0.68372 0.0
C1520 C 0.28678 0.90073 0.68942 0.0
C1521 C 0.28406 0.88344 0.7058 0.0
H1522 H 0.26967 0.927 0.67101 0.0
H1523 H 0.24577 0.75853 0.82925 0.0
H1524 H 0.73699 0.87298 0.86757 0.0
H1525 H 0.75922 0.87158 0.82761 0.0
H1526 H 0.69461 0.86389 0.78546 0.0
H1527 H 0.67244 0.86438 0.82548 0.0
H1528 H 0.72535 0.83976 0.7651 0.0
H1529 H 0.72612 0.91255 0.78933 0.0
H1530 H 0.73259 0.94323 0.81752 0.0
H1531 H 0.8062 0.92865 0.82146 0.0
H1532 H 0.80011 0.8977 0.79355 0.0
H1533 H 0.76996 0.87346 0.64342 0.0
H1534 H 0.74898 0.87177 0.68426 0.0
H1535 H 0.81472 0.86317 0.72385 0.0
H1536 H 0.83582 0.86447 0.68299 0.0
H1537 H 0.78428 0.89517 0.74526 0.0
H1538 H 0.78163 0.82234 0.71833 0.0
H1539 H 0.77332 0.79343 0.68806 0.0
H1540 H 0.70038 0.8108 0.68685 0.0
H1541 H 0.70833 0.84002 0.71685 0.0
C1542 C 0.72753 0.87092 0.84979 0.0
C1543 C 0.70293 0.86887 0.84973 0.0
C1544 C 0.74026 0.87026 0.82687 0.0
C1545 C 0.72865 0.86804 0.80328 0.0
C1546 C 0.70408 0.86565 0.80328 0.0
C1547 C 0.69138 0.86598 0.82622 0.0
C1548 C 0.74203 0.86824 0.77864 0.0
C1549 C 0.738 0.85206 0.76073 0.0
C1550 C 0.75887 0.88407 0.7728 0.0
C1551 C 0.76261 0.90268 0.78957 0.0
C1552 C 0.74366 0.91579 0.79637 0.0
C1553 C 0.74726 0.93325 0.81226 0.0
C1554 C 0.76978 0.93785 0.82133 0.0
C1555 C 0.78876 0.92504 0.81446 0.0
C1556 C 0.78525 0.90755 0.79858 0.0
C1557 C 0.77996 0.87108 0.66079 0.0
C1558 C 0.80457 0.86904 0.65994 0.0
C1559 C 0.76793 0.87009 0.68413 0.0
C1560 C 0.78027 0.86731 0.70712 0.0
C1561 C 0.80484 0.86533 0.70635 0.0
C1562 C 0.81686 0.86597 0.68297 0.0
C1563 C 0.76751 0.86676 0.73197 0.0
C1564 C 0.77165 0.88289 0.74982 0.0
C1565 C 0.75046 0.85114 0.73753 0.0
C1566 C 0.74562 0.83349 0.71964 0.0
C1567 C 0.76386 0.82011 0.71144 0.0
C1568 C 0.7592 0.80364 0.69437 0.0
C1569 C 0.73635 0.80032 0.68549 0.0
C1570 C 0.71808 0.81341 0.69372 0.0
C1571 C 0.72265 0.82992 0.71078 0.0
H1572 H 0.73278 0.78756 0.67226 0.0
H1573 H 0.77253 0.95137 0.83364 0.0
H1574 H 0.82891 0.15585 0.33079 0.0
H1575 H 0.80748 0.15844 0.29035 0.0
H1576 H 0.75517 0.11516 0.31917 0.0
H1577 H 0.77593 0.11339 0.35995 0.0
H1578 H 0.79802 0.13336 0.2546 0.0
H1579 H 0.70253 0.12229 0.29274 0.0
H1580 H 0.67924 0.13136 0.33097 0.0
H1581 H 0.72614 0.18276 0.34743 0.0
H1582 H 0.74951 0.17418 0.30914 0.0
H1583 H 0.7261 0.10778 0.14911 0.0
H1584 H 0.74736 0.10898 0.18965 0.0
H1585 H 0.70789 0.16439 0.21161 0.0
H1586 H 0.68533 0.16205 0.1719 0.0
H1587 H 0.71171 0.14356 0.25066 0.0
H1588 H 0.76999 0.16385 0.19006 0.0
H1589 H 0.79433 0.1611 0.15121 0.0
H1590 H 0.82378 0.10284 0.17854 0.0
H1591 H 0.79939 0.10511 0.21742 0.0
C1592 C 0.81272 0.14705 0.32856 0.0
C1593 C 0.80403 0.13455 0.34868 0.0
C1594 C 0.8005 0.14846 0.30535 0.0
C1595 C 0.77942 0.13723 0.30159 0.0
C1596 C 0.77098 0.12447 0.32162 0.0
C1597 C 0.78296 0.12337 0.34497 0.0
C1598 C 0.76657 0.1385 0.27664 0.0
C1599 C 0.77915 0.13567 0.25378 0.0
C1600 C 0.742 0.14206 0.27524 0.0
C1601 C 0.7279 0.14744 0.2982 0.0
C1602 C 0.70781 0.13558 0.30446 0.0
C1603 C 0.69461 0.14063 0.32615 0.0
C1604 C 0.70125 0.15758 0.34166 0.0
C1605 C 0.72106 0.16958 0.33546 0.0
C1606 C 0.73431 0.16461 0.31378 0.0
C1607 C 0.72207 0.12026 0.16258 0.0
C1608 C 0.70416 0.1349 0.15729 0.0
C1609 C 0.73438 0.12107 0.18576 0.0
C1610 C 0.72978 0.13709 0.20377 0.0
C1611 C 0.71191 0.15182 0.19828 0.0
C1612 C 0.69907 0.15057 0.17547 0.0
C1613 C 0.7431 0.13821 0.22851 0.0
C1614 C 0.7306 0.14139 0.25138 0.0
C1615 C 0.7679 0.13592 0.22982 0.0
C1616 C 0.78272 0.13457 0.20655 0.0
C1617 C 0.78156 0.1504 0.18772 0.0
C1618 C 0.79537 0.14893 0.1657 0.0
C1619 C 0.81055 0.13178 0.16238 0.0
C1620 C 0.812 0.1161 0.18112 0.0
C1621 C 0.79821 0.11748 0.20316 0.0
H1622 H 0.82122 0.13067 0.14532 0.0
H1623 H 0.69102 0.16146 0.35845 0.0
H1624 H 0.69323 0.66997 0.34618 0.0
H1625 H 0.71113 0.68188 0.30572 0.0
H1626 H 0.76319 0.63259 0.31194 0.0
H1627 H 0.74514 0.62045 0.35162 0.0
H1628 H 0.78153 0.67207 0.29421 0.0
H1629 H 0.71649 0.62271 0.27892 0.0
H1630 H 0.67487 0.61205 0.28166 0.0
H1631 H 0.65442 0.66851 0.24187 0.0
H1632 H 0.69596 0.67962 0.23923 0.0
H1633 H 0.82024 0.6216 0.1852 0.0
H1634 H 0.80308 0.63441 0.22483 0.0
H1635 H 0.76118 0.67926 0.18264 0.0
H1636 H 0.77864 0.66641 0.14241 0.0
H1637 H 0.73487 0.65516 0.21677 0.0
H1638 H 0.80187 0.69857 0.22129 0.0
H1639 H 0.8437 0.70829 0.21796 0.0
H1640 H 0.86083 0.66412 0.27739 0.0
H1641 H 0.81916 0.65387 0.28084 0.0
C1642 C 0.7088 0.66206 0.33911 0.0
C1643 C 0.71781 0.64428 0.35189 0.0
C1644 C 0.71895 0.6688 0.31602 0.0
C1645 C 0.73847 0.65807 0.30582 0.0
C1646 C 0.74823 0.64116 0.31949 0.0
C1647 C 0.73786 0.63418 0.34211 0.0
C1648 C 0.74767 0.66273 0.27986 0.0
C1649 C 0.77133 0.66859 0.27722 0.0
C1650 C 0.73413 0.65883 0.25768 0.0
C1651 C 0.70924 0.65213 0.25921 0.0
C1652 C 0.70309 0.63293 0.27098 0.0
C1653 C 0.67953 0.62679 0.27247 0.0
C1654 C 0.662 0.63963 0.26204 0.0
C1655 C 0.66801 0.65861 0.25001 0.0
C1656 C 0.69155 0.66484 0.24852 0.0
C1657 C 0.80764 0.63442 0.18429 0.0
C1658 C 0.80075 0.64296 0.16066 0.0
C1659 C 0.79793 0.64183 0.20702 0.0
C1660 C 0.78096 0.65792 0.20678 0.0
C1661 C 0.77436 0.66691 0.18327 0.0
C1662 C 0.78441 0.65965 0.16036 0.0
C1663 C 0.76907 0.66368 0.23112 0.0
C1664 C 0.74493 0.65958 0.23355 0.0
C1665 C 0.78218 0.66929 0.2531 0.0
C1666 C 0.80733 0.67541 0.25128 0.0
C1667 C 0.81456 0.69082 0.23356 0.0
C1668 C 0.83826 0.69644 0.23165 0.0
C1669 C 0.85491 0.68682 0.24744 0.0
C1670 C 0.8479 0.67158 0.26519 0.0
C1671 C 0.82422 0.66589 0.26716 0.0
H1672 H 0.87325 0.69119 0.24594 0.0
H1673 H 0.64377 0.63485 0.26319 0.0
H1674 H 0.74101 0.38216 0.65933 0.0
H1675 H 0.75882 0.36786 0.69799 0.0
H1676 H 0.70899 0.3165 0.69782 0.0
H1677 H 0.69126 0.33064 0.65826 0.0
H1678 H 0.71287 0.34098 0.74562 0.0
H1679 H 0.76088 0.30184 0.68927 0.0
H1680 H 0.78549 0.2955 0.65131 0.0
H1681 H 0.83602 0.34062 0.67839 0.0
H1682 H 0.81151 0.34759 0.71628 0.0
H1683 H 0.77786 0.33157 0.8632 0.0
H1684 H 0.76028 0.31805 0.82335 0.0
H1685 H 0.80059 0.36341 0.78008 0.0
H1686 H 0.81805 0.37666 0.81924 0.0
H1687 H 0.79819 0.32678 0.75477 0.0
H1688 H 0.74374 0.37367 0.80076 0.0
H1689 H 0.71865 0.38308 0.83748 0.0
H1690 H 0.68041 0.32499 0.82886 0.0
H1691 H 0.70549 0.31516 0.79223 0.0
C1692 C 0.73404 0.36763 0.66726 0.0
C1693 C 0.71473 0.35752 0.65585 0.0
C1694 C 0.74429 0.35943 0.68931 0.0
C1695 C 0.7353 0.34108 0.70073 0.0
C1696 C 0.71625 0.33063 0.6892 0.0
C1697 C 0.70623 0.33864 0.66662 0.0
C1698 C 0.74511 0.33427 0.7257 0.0
C1699 C 0.73136 0.33712 0.74768 0.0
C1700 C 0.76927 0.32947 0.72834 0.0
C1701 C 0.78428 0.32526 0.70566 0.0
C1702 C 0.77717 0.31052 0.68708 0.0
C1703 C 0.79112 0.3068 0.66556 0.0
C1704 C 0.81232 0.31763 0.66244 0.0
C1705 C 0.81961 0.33221 0.68085 0.0
C1706 C 0.8057 0.33604 0.70238 0.0
C1707 C 0.7833 0.33825 0.84508 0.0
C1708 C 0.79912 0.35533 0.84435 0.0
C1709 C 0.77317 0.33061 0.82236 0.0
C1710 C 0.77893 0.33986 0.79868 0.0
C1711 C 0.79584 0.35597 0.79801 0.0
C1712 C 0.80572 0.36364 0.8205 0.0
C1713 C 0.76622 0.33462 0.77462 0.0
C1714 C 0.77948 0.32963 0.75279 0.0
C1715 C 0.74166 0.33765 0.77208 0.0
C1716 C 0.72666 0.34355 0.79405 0.0
C1717 C 0.73009 0.36285 0.80684 0.0
C1718 C 0.71586 0.36827 0.8276 0.0
C1719 C 0.698 0.35461 0.83556 0.0
C1720 C 0.69429 0.33553 0.82272 0.0
C1721 C 0.70851 0.33002 0.80197 0.0
H1722 H 0.68699 0.35883 0.85163 0.0
H1723 H 0.82309 0.31472 0.64577 0.0
H1724 H 0.27062 0.36002 0.64139 0.0
H1725 H 0.24925 0.35877 0.68195 0.0
H1726 H 0.3116 0.37975 0.72159 0.0
H1727 H 0.33336 0.37926 0.68132 0.0
H1728 H 0.29266 0.35388 0.75024 0.0
H1729 H 0.25954 0.41301 0.70478 0.0
H1730 H 0.24034 0.43109 0.6686 0.0
H1731 H 0.18062 0.39 0.67549 0.0
H1732 H 0.19957 0.37152 0.71153 0.0
H1733 H 0.23367 0.38633 0.86433 0.0
H1734 H 0.25551 0.38573 0.824 0.0
H1735 H 0.19663 0.35574 0.78688 0.0
H1736 H 0.17456 0.35674 0.82693 0.0
H1737 H 0.21356 0.38619 0.75747 0.0
H1738 H 0.24786 0.32808 0.80471 0.0
H1739 H 0.26753 0.31192 0.84189 0.0
H1740 H 0.32603 0.3541 0.83263 0.0
H1741 H 0.30657 0.37069 0.79557 0.0
C1742 C 0.27973 0.36426 0.65883 0.0
C1743 C 0.30362 0.36979 0.6582 0.0
C1744 C 0.26744 0.36377 0.68206 0.0
C1745 C 0.27847 0.36974 0.70507 0.0
C1746 C 0.30249 0.37508 0.70432 0.0
C1747 C 0.31496 0.37486 0.68124 0.0
C1748 C 0.26523 0.37032 0.72989 0.0
C1749 C 0.27552 0.36126 0.75176 0.0
C1750 C 0.24257 0.37954 0.7322 0.0
C1751 C 0.23106 0.39078 0.71069 0.0
C1752 C 0.24236 0.40777 0.69849 0.0
C1753 C 0.23152 0.41809 0.67801 0.0
C1754 C 0.2093 0.41166 0.66971 0.0
C1755 C 0.19784 0.39494 0.68192 0.0
C1756 C 0.20861 0.38456 0.70239 0.0
C1757 C 0.22541 0.37953 0.8476 0.0
C1758 C 0.20238 0.37153 0.84892 0.0
C1759 C 0.23796 0.37912 0.82453 0.0
C1760 C 0.22789 0.37044 0.80233 0.0
C1761 C 0.20485 0.36251 0.80365 0.0
C1762 C 0.19226 0.36303 0.82665 0.0
C1763 C 0.24109 0.36987 0.77762 0.0
C1764 C 0.23075 0.3789 0.75582 0.0
C1765 C 0.26383 0.36093 0.77548 0.0
C1766 C 0.27567 0.35073 0.7975 0.0
C1767 C 0.26486 0.33398 0.81069 0.0
C1768 C 0.27598 0.32474 0.83173 0.0
C1769 C 0.29799 0.33201 0.83965 0.0
C1770 C 0.30897 0.34849 0.82649 0.0
C1771 C 0.29792 0.3578 0.80545 0.0
H1772 H 0.30656 0.32485 0.85596 0.0
H1773 H 0.20095 0.41967 0.65384 0.0
H1774 H 0.32821 0.65683 0.32983 0.0
H1775 H 0.30662 0.65968 0.28957 0.0
H1776 H 0.25589 0.61436 0.31711 0.0
H1777 H 0.27684 0.61227 0.35779 0.0
H1778 H 0.29819 0.63507 0.25315 0.0
H1779 H 0.20304 0.6204 0.29018 0.0
H1780 H 0.17927 0.6277 0.32861 0.0
H1781 H 0.22413 0.68001 0.34741 0.0
H1782 H 0.24797 0.6732 0.30894 0.0
H1783 H 0.22748 0.60914 0.14711 0.0
H1784 H 0.24839 0.61043 0.18777 0.0
H1785 H 0.20767 0.66499 0.21001 0.0
H1786 H 0.18554 0.6627 0.16993 0.0
H1787 H 0.21161 0.64321 0.24898 0.0
H1788 H 0.26945 0.6662 0.18936 0.0
H1789 H 0.29396 0.66484 0.15054 0.0
H1790 H 0.32516 0.60682 0.17628 0.0
H1791 H 0.30062 0.6077 0.21513 0.0
C1792 C 0.31232 0.64762 0.32738 0.0
C1793 C 0.30417 0.63444 0.34712 0.0
C1794 C 0.3 0.64919 0.30426 0.0
C1795 C 0.27934 0.63745 0.30016 0.0
C1796 C 0.27137 0.62405 0.31982 0.0
C1797 C 0.28346 0.62277 0.34311 0.0
C1798 C 0.26649 0.63887 0.27519 0.0
C1799 C 0.27926 0.63691 0.25231 0.0
C1800 C 0.24181 0.64181 0.27375 0.0
C1801 C 0.22742 0.64614 0.29681 0.0
C1802 C 0.20777 0.63351 0.30247 0.0
C1803 C 0.1943 0.63755 0.32426 0.0
C1804 C 0.20023 0.65426 0.34048 0.0
C1805 C 0.21961 0.66702 0.33489 0.0
C1806 C 0.23312 0.66306 0.3131 0.0
C1807 C 0.2231 0.6215 0.16061 0.0
C1808 C 0.20498 0.63593 0.15522 0.0
C1809 C 0.2352 0.62233 0.18389 0.0
C1810 C 0.23014 0.63812 0.20203 0.0
C1811 C 0.21206 0.65263 0.19652 0.0
C1812 C 0.19947 0.65141 0.17351 0.0
C1813 C 0.24327 0.63915 0.2269 0.0
C1814 C 0.23056 0.64149 0.24978 0.0
C1815 C 0.26812 0.63744 0.22829 0.0
C1816 C 0.28305 0.63694 0.20506 0.0
C1817 C 0.28145 0.6531 0.18668 0.0
C1818 C 0.29535 0.65242 0.16467 0.0
C1819 C 0.31107 0.63573 0.16092 0.0
C1820 C 0.31296 0.61972 0.17921 0.0
C1821 C 0.29908 0.62032 0.20123 0.0
H1822 H 0.32182 0.63523 0.14387 0.0
H1823 H 0.18979 0.65736 0.35735 0.0
loop_
_geom_bond_atom_site_label_1
_geom_bond_atom_site_label_2
_geom_bond_distance
_geom_bond_site_symmetry_2
_ccdc_geom_bond_type
Co0 O1 2.216 . S
Co0 O2 2.091 . S
Co0 O4 2.004 . S
Co0 O10 2.021 . S
Co0 O12 2.137 . S
Co0 O13 2.244 . S
O1 Co0 2.216 . S
O1 C8 1.247 . S
O2 Co0 2.091 . S
O2 C8 1.261 . S
C3 O12 1.247 . S
C3 O13 1.272 . S
O4 Co0 2.004 . S
O4 C9 1.259 . S
Co5 O6 2.061 . S
Co5 O11 2.052 . S
Co5 O13 2.135 . S
O6 Co5 2.061 . S
O6 C9 1.235 . S
C7 O10 1.238 . S
C7 O11 1.241 . S
C8 O1 1.247 . S
C8 O2 1.261 . S
C9 O4 1.259 . S
C9 O6 1.235 . S
O10 Co0 2.021 . S
O10 C7 1.238 . S
O11 Co5 2.052 . S
O11 C7 1.241 . S
O12 Co0 2.137 . S
O12 C3 1.247 . S
O13 Co0 2.244 . S
O13 C3 1.272 . S
O13 Co5 2.135 . S
Co14 O15 2.216 . S
Co14 O16 2.091 . S
Co14 O18 2.004 . S
Co14 O24 2.021 . S
Co14 O26 2.137 . S
Co14 O27 2.244 . S
O15 Co14 2.216 . S
O15 C22 1.247 . S
O16 Co14 2.091 . S
O16 C22 1.261 . S
C17 O26 1.247 . S
C17 O27 1.272 . S
O18 Co14 2.004 . S
O18 C23 1.259 . S
Co19 O20 2.061 . S
Co19 O25 2.052 . S
Co19 O27 2.135 . S
O20 Co19 2.061 . S
O20 C23 1.235 . S
C21 O24 1.238 . S
C21 O25 1.241 . S
C22 O15 1.247 . S
C22 O16 1.261 . S
C23 O18 1.259 . S
C23 O20 1.235 . S
O24 Co14 2.021 . S
O24 C21 1.238 . S
O25 Co19 2.052 . S
O25 C21 1.241 . S
O26 Co14 2.137 . S
O26 C17 1.247 . S
O27 Co14 2.244 . S
O27 C17 1.272 . S
O27 Co19 2.135 . S
Co28 O29 2.216 . S
Co28 O30 2.091 . S
Co28 O32 2.004 . S
Co28 O38 2.021 . S
Co28 O40 2.137 . S
Co28 O41 2.244 . S
O29 Co28 2.216 . S
O29 C36 1.247 . S
O30 Co28 2.091 . S
O30 C36 1.261 . S
C31 O40 1.247 . S
C31 O41 1.272 . S
O32 Co28 2.004 . S
O32 C37 1.259 . S
Co33 O34 2.061 . S
Co33 O39 2.052 . S
Co33 O41 2.135 . S
O34 Co33 2.061 . S
O34 C37 1.235 . S
C35 O38 1.238 . S
C35 O39 1.241 . S
C36 O29 1.247 . S
C36 O30 1.261 . S
C37 O32 1.259 . S
C37 O34 1.235 . S
O38 Co28 2.021 . S
O38 C35 1.238 . S
O39 Co33 2.052 . S
O39 C35 1.241 . S
O40 Co28 2.137 . S
O40 C31 1.247 . S
O41 Co28 2.244 . S
O41 C31 1.272 . S
O41 Co33 2.135 . S
Co42 O43 2.216 . S
Co42 O44 2.091 . S
Co42 O46 2.004 . S
Co42 O52 2.021 . S
Co42 O54 2.137 . S
Co42 O55 2.244 . S
O43 Co42 2.216 . S
O43 C50 1.247 . S
O44 Co42 2.091 . S
O44 C50 1.261 . S
C45 O54 1.247 . S
C45 O55 1.272 . S
O46 Co42 2.004 . S
O46 C51 1.259 . S
Co47 O48 2.061 . S
Co47 O53 2.052 . S
Co47 O55 2.135 . S
O48 Co47 2.061 . S
O48 C51 1.235 . S
C49 O52 1.238 . S
C49 O53 1.241 . S
C50 O43 1.247 . S
C50 O44 1.261 . S
C51 O46 1.259 . S
C51 O48 1.235 . S
O52 Co42 2.021 . S
O52 C49 1.238 . S
O53 Co47 2.052 . S
O53 C49 1.241 . S
O54 Co42 2.137 . S
O54 C45 1.247 . S
O55 Co42 2.244 . S
O55 C45 1.272 . S
O55 Co47 2.135 . S
Co56 O57 2.216 . S
Co56 O58 2.091 . S
Co56 O60 2.004 . S
Co56 O66 2.021 . S
Co56 O68 2.137 . S
Co56 O69 2.244 . S
O57 Co56 2.216 . S
O57 C64 1.247 . S
O58 Co56 2.091 . S
O58 C64 1.261 . S
C59 O68 1.247 . S
C59 O69 1.272 . S
O60 Co56 2.004 . S
O60 C65 1.259 . S
Co61 O62 2.061 . S
Co61 O67 2.052 . S
Co61 O69 2.135 . S
O62 Co61 2.061 . S
O62 C65 1.235 . S
C63 O66 1.238 . S
C63 O67 1.241 . S
C64 O57 1.247 . S
C64 O58 1.261 . S
C65 O60 1.259 . S
C65 O62 1.235 . S
O66 Co56 2.021 . S
O66 C63 1.238 . S
O67 Co61 2.052 . S
O67 C63 1.241 . S
O68 Co56 2.137 . S
O68 C59 1.247 . S
O69 Co56 2.244 . S
O69 C59 1.272 . S
O69 Co61 2.135 . S
Co70 O71 2.216 . S
Co70 O72 2.091 . S
Co70 O74 2.004 . S
Co70 O80 2.021 . S
Co70 O82 2.137 . S
Co70 O83 2.244 . S
O71 Co70 2.216 . S
O71 C78 1.247 . S
O72 Co70 2.091 . S
O72 C78 1.261 . S
C73 O82 1.247 . S
C73 O83 1.272 . S
O74 Co70 2.004 . S
O74 C79 1.259 . S
Co75 O76 2.061 . S
Co75 O81 2.052 . S
Co75 O83 2.135 . S
O76 Co75 2.061 . S
O76 C79 1.235 . S
C77 O80 1.238 . S
C77 O81 1.241 . S
C78 O71 1.247 . S
C78 O72 1.261 . S
C79 O74 1.259 . S
C79 O76 1.235 . S
O80 Co70 2.021 . S
O80 C77 1.238 . S
O81 Co75 2.052 . S
O81 C77 1.241 . S
O82 Co70 2.137 . S
O82 C73 1.247 . S
O83 Co70 2.244 . S
O83 C73 1.272 . S
O83 Co75 2.135 . S
Co84 O85 2.216 . S
Co84 O86 2.091 . S
Co84 O88 2.004 . S
Co84 O94 2.021 . S
Co84 O96 2.137 . S
Co84 O97 2.244 . S
O85 Co84 2.216 . S
O85 C92 1.247 . S
O86 Co84 2.091 . S
O86 C92 1.261 . S
C87 O96 1.247 . S
C87 O97 1.272 . S
O88 Co84 2.004 . S
O88 C93 1.259 . S
Co89 O90 2.061 . S
Co89 O95 2.052 . S
Co89 O97 2.135 . S
O90 Co89 2.061 . S
O90 C93 1.235 . S
C91 O94 1.238 . S
C91 O95 1.241 . S
C92 O85 1.247 . S
C92 O86 1.261 . S
C93 O88 1.259 . S
C93 O90 1.235 . S
O94 Co84 2.021 . S
O94 C91 1.238 . S
O95 Co89 2.052 . S
O95 C91 1.241 . S
O96 Co84 2.137 . S
O96 C87 1.247 . S
O97 Co84 2.244 . S
O97 C87 1.272 . S
O97 Co89 2.135 . S
Co98 O99 2.216 . S
Co98 O100 2.091 . S
Co98 O102 2.004 . S
Co98 O108 2.021 . S
Co98 O110 2.137 . S
Co98 O111 2.244 . S
O99 Co98 2.216 . S
O99 C106 1.247 . S
O100 Co98 2.091 . S
O100 C106 1.261 . S
C101 O110 1.247 . S
C101 O111 1.272 . S
O102 Co98 2.004 . S
O102 C107 1.259 . S
Co103 O104 2.061 . S
Co103 O109 2.052 . S
Co103 O111 2.135 . S
O104 Co103 2.061 . S
O104 C107 1.235 . S
C105 O108 1.238 . S
C105 O109 1.241 . S
C106 O99 1.247 . S
C106 O100 1.261 . S
C107 O102 1.259 . S
C107 O104 1.235 . S
O108 Co98 2.021 . S
O108 C105 1.238 . S
O109 Co103 2.052 . S
O109 C105 1.241 . S
O110 Co98 2.137 . S
O110 C101 1.247 . S
O111 Co98 2.244 . S
O111 C101 1.272 . S
O111 Co103 2.135 . S
Co112 O113 2.216 . S
Co112 O114 2.091 . S
Co112 O116 2.004 . S
Co112 O122 2.021 . S
Co112 O124 2.137 . S
Co112 O125 2.244 . S
O113 Co112 2.216 . S
O113 C120 1.247 . S
O114 Co112 2.091 . S
O114 C120 1.261 . S
C115 O124 1.247 . S
C115 O125 1.272 . S
O116 Co112 2.004 . S
O116 C121 1.259 . S
Co117 O118 2.061 . S
Co117 O123 2.052 . S
Co117 O125 2.135 . S
O118 Co117 2.061 . S
O118 C121 1.235 . S
C119 O122 1.238 . S
C119 O123 1.241 . S
C120 O113 1.247 . S
C120 O114 1.261 . S
C121 O116 1.259 . S
C121 O118 1.235 . S
O122 Co112 2.021 . S
O122 C119 1.238 . S
O123 Co117 2.052 . S
O123 C119 1.241 . S
O124 Co112 2.137 . S
O124 C115 1.247 . S
O125 Co112 2.244 . S
O125 C115 1.272 . S
O125 Co117 2.135 . S
Co126 O127 2.216 . S
Co126 O128 2.091 . S
Co126 O130 2.004 . S
Co126 O136 2.021 . S
Co126 O138 2.137 . S
Co126 O139 2.244 . S
O127 Co126 2.216 . S
O127 C134 1.247 . S
O128 Co126 2.091 . S
O128 C134 1.261 . S
C129 O138 1.247 . S
C129 O139 1.272 . S
O130 Co126 2.004 . S
O130 C135 1.259 . S
Co131 O132 2.061 . S
Co131 O137 2.052 . S
Co131 O139 2.135 . S
O132 Co131 2.061 . S
O132 C135 1.235 . S
C133 O136 1.238 . S
C133 O137 1.241 . S
C134 O127 1.247 . S
C134 O128 1.261 . S
C135 O130 1.259 . S
C135 O132 1.235 . S
O136 Co126 2.021 . S
O136 C133 1.238 . S
O137 Co131 2.052 . S
O137 C133 1.241 . S
O138 Co126 2.137 . S
O138 C129 1.247 . S
O139 Co126 2.244 . S
O139 C129 1.272 . S
O139 Co131 2.135 . S
Co140 O141 2.216 . S
Co140 O142 2.091 . S
Co140 O144 2.004 . S
Co140 O150 2.021 . S
Co140 O152 2.137 . S
Co140 O153 2.244 . S
O141 Co140 2.216 . S
O141 C148 1.247 . S
O142 Co140 2.091 . S
O142 C148 1.261 . S
C143 O152 1.247 . S
C143 O153 1.272 . S
O144 Co140 2.004 . S
O144 C149 1.259 . S
Co145 O146 2.061 . S
Co145 O151 2.052 . S
Co145 O153 2.135 . S
O146 Co145 2.061 . S
O146 C149 1.235 . S
C147 O150 1.238 . S
C147 O151 1.241 . S
C148 O141 1.247 . S
C148 O142 1.261 . S
C149 O144 1.259 . S
C149 O146 1.235 . S
O150 Co140 2.021 . S
O150 C147 1.238 . S
O151 Co145 2.052 . S
O151 C147 1.241 . S
O152 Co140 2.137 . S
O152 C143 1.247 . S
O153 Co140 2.244 . S
O153 C143 1.272 . S
O153 Co145 2.135 . S
Co154 O155 2.216 . S
Co154 O156 2.091 . S
Co154 O158 2.004 . S
Co154 O164 2.021 . S
Co154 O166 2.137 . S
Co154 O167 2.244 . S
O155 Co154 2.216 . S
O155 C162 1.247 . S
O156 Co154 2.091 . S
O156 C162 1.261 . S
C157 O166 1.247 . S
C157 O167 1.272 . S
O158 Co154 2.004 . S
O158 C163 1.259 . S
Co159 O160 2.061 . S
Co159 O165 2.052 . S
Co159 O167 2.135 . S
O160 Co159 2.061 . S
O160 C163 1.235 . S
C161 O164 1.238 . S
C161 O165 1.241 . S
C162 O155 1.247 . S
C162 O156 1.261 . S
C163 O158 1.259 . S
C163 O160 1.235 . S
O164 Co154 2.021 . S
O164 C161 1.238 . S
O165 Co159 2.052 . S
O165 C161 1.241 . S
O166 Co154 2.137 . S
O166 C157 1.247 . S
O167 Co154 2.244 . S
O167 C157 1.272 . S
O167 Co159 2.135 . S
Co168 O169 2.216 . S
Co168 O170 2.091 . S
Co168 O172 2.004 . S
Co168 O178 2.021 . S
Co168 O180 2.137 . S
Co168 O181 2.244 . S
O169 Co168 2.216 . S
O169 C176 1.247 . S
O170 Co168 2.091 . S
O170 C176 1.261 . S
C171 O180 1.247 . S
C171 O181 1.272 . S
O172 Co168 2.004 . S
O172 C177 1.259 . S
Co173 O174 2.061 . S
Co173 O179 2.052 . S
Co173 O181 2.135 . S
O174 Co173 2.061 . S
O174 C177 1.235 . S
C175 O178 1.238 . S
C175 O179 1.241 . S
C176 O169 1.247 . S
C176 O170 1.261 . S
C177 O172 1.259 . S
C177 O174 1.235 . S
O178 Co168 2.021 . S
O178 C175 1.238 . S
O179 Co173 2.052 . S
O179 C175 1.241 . S
O180 Co168 2.137 . S
O180 C171 1.247 . S
O181 Co168 2.244 . S
O181 C171 1.272 . S
O181 Co173 2.135 . S
Co182 O183 2.216 . S
Co182 O184 2.091 . S
Co182 O186 2.004 . S
Co182 O192 2.021 . S
Co182 O194 2.137 . S
Co182 O195 2.244 . S
O183 Co182 2.216 . S
O183 C190 1.247 . S
O184 Co182 2.091 . S
O184 C190 1.261 . S
C185 O194 1.247 . S
C185 O195 1.272 . S
O186 Co182 2.004 . S
O186 C191 1.259 . S
Co187 O188 2.061 . S
Co187 O193 2.052 . S
Co187 O195 2.135 . S
O188 Co187 2.061 . S
O188 C191 1.235 . S
C189 O192 1.238 . S
C189 O193 1.241 . S
C190 O183 1.247 . S
C190 O184 1.261 . S
C191 O186 1.259 . S
C191 O188 1.235 . S
O192 Co182 2.021 . S
O192 C189 1.238 . S
O193 Co187 2.052 . S
O193 C189 1.241 . S
O194 Co182 2.137 . S
O194 C185 1.247 . S
O195 Co182 2.244 . S
O195 C185 1.272 . S
O195 Co187 2.135 . S
Co196 O197 2.216 . S
Co196 O198 2.091 . S
Co196 O200 2.004 . S
Co196 O206 2.021 . S
Co196 O208 2.137 . S
Co196 O209 2.244 . S
O197 Co196 2.216 . S
O197 C204 1.247 . S
O198 Co196 2.091 . S
O198 C204 1.261 . S
C199 O208 1.247 . S
C199 O209 1.272 . S
O200 Co196 2.004 . S
O200 C205 1.259 . S
Co201 O202 2.061 . S
Co201 O207 2.052 . S
Co201 O209 2.135 . S
O202 Co201 2.061 . S
O202 C205 1.235 . S
C203 O206 1.238 . S
C203 O207 1.241 . S
C204 O197 1.247 . S
C204 O198 1.261 . S
C205 O200 1.259 . S
C205 O202 1.235 . S
O206 Co196 2.021 . S
O206 C203 1.238 . S
O207 Co201 2.052 . S
O207 C203 1.241 . S
O208 Co196 2.137 . S
O208 C199 1.247 . S
O209 Co196 2.244 . S
O209 C199 1.272 . S
O209 Co201 2.135 . S
Co210 O211 2.216 . S
Co210 O212 2.091 . S
Co210 O214 2.004 . S
Co210 O220 2.021 . S
Co210 O222 2.137 . S
Co210 O223 2.244 . S
O211 Co210 2.216 . S
O211 C218 1.247 . S
O212 Co210 2.091 . S
O212 C218 1.261 . S
C213 O222 1.247 . S
C213 O223 1.272 . S
O214 Co210 2.004 . S
O214 C219 1.259 . S
Co215 O216 2.061 . S
Co215 O221 2.052 . S
Co215 O223 2.135 . S
O216 Co215 2.061 . S
O216 C219 1.235 . S
C217 O220 1.238 . S
C217 O221 1.241 . S
C218 O211 1.247 . S
C218 O212 1.261 . S
C219 O214 1.259 . S
C219 O216 1.235 . S
O220 Co210 2.021 . S
O220 C217 1.238 . S
O221 Co215 2.052 . S
O221 C217 1.241 . S
O222 Co210 2.137 . S
O222 C213 1.247 . S
O223 Co210 2.244 . S
O223 C213 1.272 . S
O223 Co215 2.135 . S
H224 C242 0.951 . S
H225 C244 0.951 . S
H226 C246 0.950 . S
H227 C247 0.950 . S
H228 C249 0.950 . S
H229 C252 0.950 . S
H230 C253 0.950 . S
H231 C255 0.950 . S
H232 C256 0.950 . S
H233 C257 0.951 . S
H234 C259 0.951 . S
H235 C261 0.950 . S
H236 C262 0.950 . S
H237 C264 0.950 1_554 S
H238 C267 0.950 . S
H239 C268 0.950 . S
H240 C270 0.950 . S
H241 C271 0.950 . S
C242 H224 0.951 . S
C242 C243 1.366 . S
C242 C244 1.388 . S
C243 C242 1.366 . S
C243 C247 1.385 . S
C244 H225 0.951 . S
C244 C242 1.388 . S
C244 C245 1.366 . S
C245 C244 1.366 . S
C245 C246 1.414 . S
C245 C248 1.499 . S
C246 H226 0.950 . S
C246 C245 1.414 . S
C246 C247 1.374 . S
C247 H227 0.950 . S
C247 C243 1.385 . S
C247 C246 1.374 . S
C248 C245 1.499 . S
C248 C249 1.373 1_554 S
C248 C250 1.389 . S
C249 H228 0.950 . S
C249 C248 1.373 1_556 S
C249 C265 1.377 . S
C250 C248 1.389 . S
C250 C251 1.524 . S
C250 C264 1.377 1_554 S
C251 C250 1.524 . S
C251 C252 1.397 . S
C251 C256 1.363 . S
C252 H229 0.950 . S
C252 C251 1.397 . S
C252 C253 1.334 . S
C253 H230 0.950 . S
C253 C252 1.334 . S
C253 C254 1.287 . S
C254 C253 1.287 . S
C254 C255 1.524 . S
C254 H273 0.913 . S
C255 H231 0.950 . S
C255 C254 1.524 . S
C255 C256 1.415 . S
C256 H232 0.950 . S
C256 C251 1.363 . S
C256 C255 1.415 . S
C257 H233 0.951 . S
C257 C258 1.366 . S
C257 C259 1.388 . S
C258 C257 1.366 . S
C258 C262 1.385 . S
C259 H234 0.951 . S
C259 C257 1.388 . S
C259 C260 1.366 . S
C260 C259 1.366 . S
C260 C261 1.414 . S
C260 C263 1.499 . S
C261 H235 0.950 . S
C261 C260 1.414 . S
C261 C262 1.374 . S
C262 H236 0.950 . S
C262 C258 1.385 . S
C262 C261 1.374 . S
C263 C260 1.499 . S
C263 C264 1.373 . S
C263 C265 1.389 . S
C264 H237 0.950 1_556 S
C264 C250 1.377 1_556 S
C264 C263 1.373 . S
C265 C249 1.377 . S
C265 C263 1.389 . S
C265 C266 1.524 . S
C266 C265 1.524 . S
C266 C267 1.397 . S
C266 C271 1.363 . S
C267 H238 0.950 . S
C267 C266 1.397 . S
C267 C268 1.334 . S
C268 H239 0.950 . S
C268 C267 1.334 . S
C268 C269 1.287 . S
C269 C268 1.287 . S
C269 C270 1.524 . S
C269 H272 0.999 . S
C270 H240 0.950 . S
C270 C269 1.524 . S
C270 C271 1.415 . S
C271 H241 0.950 . S
C271 C266 1.363 . S
C271 C270 1.415 . S
H272 C269 0.999 . S
H273 C254 0.913 . S
H274 C292 0.951 . S
H275 C294 0.951 . S
H276 C296 0.950 . S
H277 C297 0.950 . S
H278 C299 0.950 . S
H279 C302 0.950 . S
H280 C303 0.950 . S
H281 C305 0.950 . S
H282 C306 0.950 . S
H283 C307 0.951 . S
H284 C309 0.951 . S
H285 C311 0.950 . S
H286 C312 0.950 . S
H287 C314 0.950 . S
H288 C317 0.950 . S
H289 C318 0.950 . S
H290 C320 0.950 . S
H291 C321 0.950 . S
C292 H274 0.951 . S
C292 C293 1.366 . S
C292 C294 1.388 . S
C293 C292 1.366 . S
C293 C297 1.385 . S
C294 H275 0.951 . S
C294 C292 1.388 . S
C294 C295 1.366 . S
C295 C294 1.366 . S
C295 C296 1.414 . S
C295 C298 1.499 . S
C296 H276 0.950 . S
C296 C295 1.414 . S
C296 C297 1.374 . S
C297 H277 0.950 . S
C297 C293 1.385 . S
C297 C296 1.374 . S
C298 C295 1.499 . S
C298 C299 1.373 . S
C298 C300 1.389 . S
C299 H278 0.950 . S
C299 C298 1.373 . S
C299 C315 1.377 . S
C300 C298 1.389 . S
C300 C301 1.524 . S
C300 C314 1.377 . S
C301 C300 1.524 . S
C301 C302 1.397 . S
C301 C306 1.363 . S
C302 H279 0.950 . S
C302 C301 1.397 . S
C302 C303 1.334 . S
C303 H280 0.950 . S
C303 C302 1.334 . S
C303 C304 1.287 . S
C304 C303 1.287 . S
C304 C305 1.524 . S
C304 H323 0.913 . S
C305 H281 0.950 . S
C305 C304 1.524 . S
C305 C306 1.415 . S
C306 H282 0.950 . S
C306 C301 1.363 . S
C306 C305 1.415 . S
C307 H283 0.951 . S
C307 C308 1.366 . S
C307 C309 1.388 . S
C308 C307 1.366 . S
C308 C312 1.385 . S
C309 H284 0.951 . S
C309 C307 1.388 . S
C309 C310 1.366 . S
C310 C309 1.366 . S
C310 C311 1.414 . S
C310 C313 1.499 . S
C311 H285 0.950 . S
C311 C310 1.414 . S
C311 C312 1.374 . S
C312 H286 0.950 . S
C312 C308 1.385 . S
C312 C311 1.374 . S
C313 C310 1.499 . S
C313 C314 1.373 . S
C313 C315 1.389 . S
C314 H287 0.950 . S
C314 C300 1.377 . S
C314 C313 1.373 . S
C315 C299 1.377 . S
C315 C313 1.389 . S
C315 C316 1.524 . S
C316 C315 1.524 . S
C316 C317 1.397 . S
C316 C321 1.363 . S
C317 H288 0.950 . S
C317 C316 1.397 . S
C317 C318 1.334 . S
C318 H289 0.950 . S
C318 C317 1.334 . S
C318 C319 1.287 . S
C319 C318 1.287 . S
C319 C320 1.524 . S
C319 H322 0.999 . S
C320 H290 0.950 . S
C320 C319 1.524 . S
C320 C321 1.415 . S
C321 H291 0.950 . S
C321 C316 1.363 . S
C321 C320 1.415 . S
H322 C319 0.999 . S
H323 C304 0.913 . S
H324 C342 0.951 . S
H325 C344 0.951 . S
H326 C346 0.950 1_554 S
H327 C347 0.950 . S
H328 C349 0.950 . S
H329 C352 0.950 . S
H330 C353 0.950 . S
H331 C355 0.950 . S
H332 C356 0.950 . S
H333 C357 0.951 . S
H334 C359 0.951 . S
H335 C361 0.950 . S
H336 C362 0.950 . S
H337 C364 0.951 1_556 S
H338 C367 0.950 . S
H339 C368 0.950 . S
H340 C370 0.950 . S
H341 C371 0.950 . S
C342 H324 0.951 . S
C342 C343 1.366 . S
C342 C344 1.388 . S
C343 C342 1.366 . S
C343 C347 1.385 . S
C344 H325 0.951 . S
C344 C342 1.388 . S
C344 C345 1.366 . S
C345 C344 1.366 . S
C345 C346 1.414 . S
C345 C348 1.499 . S
C346 H326 0.950 1_556 S
C346 C345 1.414 . S
C346 C347 1.374 . S
C347 H327 0.950 . S
C347 C343 1.385 . S
C347 C346 1.374 . S
C348 C345 1.499 . S
C348 C349 1.373 1_556 S
C348 C350 1.389 . S
C349 H328 0.950 . S
C349 C348 1.373 1_554 S
C349 C365 1.377 . S
C350 C348 1.389 . S
C350 C351 1.524 . S
C350 C364 1.378 1_556 S
C351 C350 1.524 . S
C351 C352 1.397 . S
C351 C356 1.363 . S
C352 H329 0.950 . S
C352 C351 1.397 . S
C352 C353 1.334 . S
C353 H330 0.950 . S
C353 C352 1.334 . S
C353 C354 1.287 . S
C354 C353 1.287 . S
C354 C355 1.524 . S
C354 H373 0.913 . S
C355 H331 0.950 . S
C355 C354 1.524 . S
C355 C356 1.415 . S
C356 H332 0.950 . S
C356 C351 1.363 . S
C356 C355 1.415 . S
C357 H333 0.951 . S
C357 C358 1.366 . S
C357 C359 1.388 . S
C358 C357 1.366 . S
C358 C362 1.385 . S
C359 H334 0.951 . S
C359 C357 1.388 . S
C359 C360 1.366 . S
C360 C359 1.366 . S
C360 C361 1.414 . S
C360 C363 1.499 . S
C361 H335 0.950 . S
C361 C360 1.414 . S
C361 C362 1.374 . S
C362 H336 0.950 . S
C362 C358 1.385 . S
C362 C361 1.374 . S
C363 C360 1.499 . S
C363 C364 1.371 . S
C363 C365 1.389 . S
C364 H337 0.951 1_554 S
C364 C350 1.378 1_554 S
C364 C363 1.371 . S
C365 C349 1.377 . S
C365 C363 1.389 . S
C365 C366 1.524 . S
C366 C365 1.524 . S
C366 C367 1.397 . S
C366 C371 1.363 . S
C367 H338 0.950 . S
C367 C366 1.397 . S
C367 C368 1.334 . S
C368 H339 0.950 . S
C368 C367 1.334 . S
C368 C369 1.287 . S
C369 C368 1.287 . S
C369 C370 1.524 . S
C369 H372 0.999 . S
C370 H340 0.950 . S
C370 C369 1.524 . S
C370 C371 1.415 . S
C371 H341 0.950 . S
C371 C366 1.363 . S
C371 C370 1.415 . S
H372 C369 0.999 . S
H373 C354 0.913 . S
H374 C392 0.951 . S
H375 C394 0.951 . S
H376 C396 0.950 . S
H377 C397 0.950 . S
H378 C399 0.950 . S
H379 C402 0.950 . S
H380 C403 0.950 . S
H381 C405 0.950 . S
H382 C406 0.950 . S
H383 C407 0.951 . S
H384 C409 0.951 . S
H385 C411 0.950 . S
H386 C412 0.950 . S
H387 C414 0.950 . S
H388 C417 0.950 . S
H389 C418 0.950 . S
H390 C420 0.950 . S
H391 C421 0.950 . S
C392 H374 0.951 . S
C392 C393 1.366 . S
C392 C394 1.388 . S
C393 C392 1.366 . S
C393 C397 1.385 . S
C394 H375 0.951 . S
C394 C392 1.388 . S
C394 C395 1.366 . S
C395 C394 1.366 . S
C395 C396 1.414 . S
C395 C398 1.499 . S
C396 H376 0.950 . S
C396 C395 1.414 . S
C396 C397 1.374 . S
C397 H377 0.950 . S
C397 C393 1.385 . S
C397 C396 1.374 . S
C398 C395 1.499 . S
C398 C399 1.373 . S
C398 C400 1.389 . S
C399 H378 0.950 . S
C399 C398 1.373 . S
C399 C415 1.377 . S
C400 C398 1.389 . S
C400 C401 1.524 . S
C400 C414 1.377 . S
C401 C400 1.524 . S
C401 C402 1.397 . S
C401 C406 1.363 . S
C402 H379 0.950 . S
C402 C401 1.397 . S
C402 C403 1.334 . S
C403 H380 0.950 . S
C403 C402 1.334 . S
C403 C404 1.287 . S
C404 C403 1.287 . S
C404 C405 1.524 . S
C404 H423 0.913 . S
C405 H381 0.950 . S
C405 C404 1.524 . S
C405 C406 1.415 . S
C406 H382 0.950 . S
C406 C401 1.363 . S
C406 C405 1.415 . S
C407 H383 0.951 . S
C407 C408 1.366 . S
C407 C409 1.388 . S
C408 C407 1.366 . S
C408 C412 1.385 . S
C409 H384 0.951 . S
C409 C407 1.388 . S
C409 C410 1.366 . S
C410 C409 1.366 . S
C410 C411 1.414 . S
C410 C413 1.499 . S
C411 H385 0.950 . S
C411 C410 1.414 . S
C411 C412 1.374 . S
C412 H386 0.950 . S
C412 C408 1.385 . S
C412 C411 1.374 . S
C413 C410 1.499 . S
C413 C414 1.373 . S
C413 C415 1.389 . S
C414 H387 0.950 . S
C414 C400 1.377 . S
C414 C413 1.373 . S
C415 C399 1.377 . S
C415 C413 1.389 . S
C415 C416 1.524 . S
C416 C415 1.524 . S
C416 C417 1.397 . S
C416 C421 1.363 . S
C417 H388 0.950 . S
C417 C416 1.397 . S
C417 C418 1.334 . S
C418 H389 0.950 . S
C418 C417 1.334 . S
C418 C419 1.287 . S
C419 C418 1.287 . S
C419 C420 1.524 . S
C419 H422 0.999 . S
C420 H390 0.950 . S
C420 C419 1.524 . S
C420 C421 1.415 . S
C421 H391 0.950 . S
C421 C416 1.363 . S
C421 C420 1.415 . S
H422 C419 0.999 . S
H423 C404 0.913 . S
H424 C442 0.951 . S
H425 C444 0.951 . S
H426 C446 0.950 . S
H427 C447 0.950 . S
H428 C449 0.950 . S
H429 C452 0.950 . S
H430 C453 0.950 . S
H431 C455 0.950 . S
H432 C456 0.950 . S
H433 C457 0.951 . S
H434 C459 0.951 . S
H435 C461 0.950 . S
H436 C462 0.950 . S
H437 C464 0.950 . S
H438 C467 0.950 . S
H439 C468 0.950 . S
H440 C470 0.950 . S
H441 C471 0.950 . S
C442 H424 0.951 . S
C442 C443 1.366 . S
C442 C444 1.388 . S
C443 C442 1.366 . S
C443 C447 1.385 . S
C444 H425 0.951 . S
C444 C442 1.388 . S
C444 C445 1.366 . S
C445 C444 1.366 . S
C445 C446 1.414 . S
C445 C448 1.499 . S
C446 H426 0.950 . S
C446 C445 1.414 . S
C446 C447 1.374 . S
C447 H427 0.950 . S
C447 C443 1.385 . S
C447 C446 1.374 . S
C448 C445 1.499 . S
C448 C449 1.373 . S
C448 C450 1.389 1_554 S
C449 H428 0.950 . S
C449 C448 1.373 . S
C449 C465 1.377 . S
C450 C448 1.389 1_556 S
C450 C451 1.524 . S
C450 C464 1.377 . S
C451 C450 1.524 . S
C451 C452 1.397 . S
C451 C456 1.363 . S
C452 H429 0.950 . S
C452 C451 1.397 . S
C452 C453 1.334 . S
C453 H430 0.950 . S
C453 C452 1.334 . S
C453 C454 1.287 . S
C454 C453 1.287 . S
C454 C455 1.524 . S
C454 H473 0.913 . S
C455 H431 0.950 . S
C455 C454 1.524 . S
C455 C456 1.415 . S
C456 H432 0.950 . S
C456 C451 1.363 . S
C456 C455 1.415 . S
C457 H433 0.951 . S
C457 C458 1.366 . S
C457 C459 1.388 . S
C458 C457 1.366 . S
C458 C462 1.385 . S
C459 H434 0.951 . S
C459 C457 1.388 . S
C459 C460 1.366 . S
C460 C459 1.366 . S
C460 C461 1.414 . S
C460 C463 1.499 . S
C461 H435 0.950 . S
C461 C460 1.414 . S
C461 C462 1.374 . S
C462 H436 0.950 . S
C462 C458 1.385 . S
C462 C461 1.374 . S
C463 C460 1.499 . S
C463 C464 1.373 . S
C463 C465 1.389 1_556 S
C464 H437 0.950 . S
C464 C450 1.377 . S
C464 C463 1.373 . S
C465 C449 1.377 . S
C465 C463 1.389 1_554 S
C465 C466 1.524 . S
C466 C465 1.524 . S
C466 C467 1.397 . S
C466 C471 1.363 . S
C467 H438 0.950 . S
C467 C466 1.397 . S
C467 C468 1.334 . S
C468 H439 0.950 . S
C468 C467 1.334 . S
C468 C469 1.287 . S
C469 C468 1.287 . S
C469 C470 1.524 . S
C469 H472 0.999 . S
C470 H440 0.950 . S
C470 C469 1.524 . S
C470 C471 1.415 . S
C471 H441 0.950 . S
C471 C466 1.363 . S
C471 C470 1.415 . S
H472 C469 0.999 . S
H473 C454 0.913 . S
H474 C492 0.951 . S
H475 C494 0.951 . S
H476 C496 0.950 . S
H477 C497 0.950 . S
H478 C499 0.950 . S
H479 C502 0.950 . S
H480 C503 0.950 . S
H481 C505 0.950 . S
H482 C506 0.950 . S
H483 C507 0.951 . S
H484 C509 0.951 . S
H485 C511 0.950 . S
H486 C512 0.950 . S
H487 C514 0.950 . S
H488 C517 0.950 . S
H489 C518 0.950 . S
H490 C520 0.950 . S
H491 C521 0.950 . S
C492 H474 0.951 . S
C492 C493 1.366 . S
C492 C494 1.388 . S
C493 C492 1.366 . S
C493 C497 1.385 . S
C494 H475 0.951 . S
C494 C492 1.388 . S
C494 C495 1.366 . S
C495 C494 1.366 . S
C495 C496 1.414 . S
C495 C498 1.499 . S
C496 H476 0.950 . S
C496 C495 1.414 . S
C496 C497 1.374 . S
C497 H477 0.950 . S
C497 C493 1.385 . S
C497 C496 1.374 . S
C498 C495 1.499 . S
C498 C499 1.373 . S
C498 C500 1.389 . S
C499 H478 0.950 . S
C499 C498 1.373 . S
C499 C515 1.377 . S
C500 C498 1.389 . S
C500 C501 1.524 . S
C500 C514 1.377 . S
C501 C500 1.524 . S
C501 C502 1.397 . S
C501 C506 1.363 . S
C502 H479 0.950 . S
C502 C501 1.397 . S
C502 C503 1.334 . S
C503 H480 0.950 . S
C503 C502 1.334 . S
C503 C504 1.287 . S
C504 C503 1.287 . S
C504 C505 1.524 . S
C504 H523 0.913 . S
C505 H481 0.950 . S
C505 C504 1.524 . S
C505 C506 1.415 . S
C506 H482 0.950 . S
C506 C501 1.363 . S
C506 C505 1.415 . S
C507 H483 0.951 . S
C507 C508 1.366 . S
C507 C509 1.388 . S
C508 C507 1.366 . S
C508 C512 1.385 . S
C509 H484 0.951 . S
C509 C507 1.388 . S
C509 C510 1.366 . S
C510 C509 1.366 . S
C510 C511 1.414 . S
C510 C513 1.499 . S
C511 H485 0.950 . S
C511 C510 1.414 . S
C511 C512 1.374 . S
C512 H486 0.950 . S
C512 C508 1.385 . S
C512 C511 1.374 . S
C513 C510 1.499 . S
C513 C514 1.373 . S
C513 C515 1.389 . S
C514 H487 0.950 . S
C514 C500 1.377 . S
C514 C513 1.373 . S
C515 C499 1.377 . S
C515 C513 1.389 . S
C515 C516 1.524 . S
C516 C515 1.524 . S
C516 C517 1.397 . S
C516 C521 1.363 . S
C517 H488 0.950 . S
C517 C516 1.397 . S
C517 C518 1.334 . S
C518 H489 0.950 . S
C518 C517 1.334 . S
C518 C519 1.287 . S
C519 C518 1.287 . S
C519 C520 1.524 . S
C519 H522 0.999 . S
C520 H490 0.950 . S
C520 C519 1.524 . S
C520 C521 1.415 . S
C521 H491 0.950 . S
C521 C516 1.363 . S
C521 C520 1.415 . S
H522 C519 0.999 . S
H523 C504 0.913 . S
H524 C542 0.951 . S
H525 C544 0.951 . S
H526 C546 0.950 . S
H527 C547 0.950 . S
H528 C549 0.950 . S
H529 C552 0.950 . S
H530 C553 0.950 . S
H531 C555 0.950 . S
H532 C556 0.950 1_554 S
H533 C557 0.951 . S
H534 C559 0.951 . S
H535 C561 0.950 . S
H536 C562 0.950 . S
H537 C564 0.950 . S
H538 C567 0.950 . S
H539 C568 0.950 . S
H540 C570 0.950 . S
H541 C571 0.950 . S
C542 H524 0.951 . S
C542 C543 1.366 . S
C542 C544 1.388 . S
C543 C542 1.366 . S
C543 C547 1.385 . S
C544 H525 0.951 . S
C544 C542 1.388 . S
C544 C545 1.366 . S
C545 C544 1.366 . S
C545 C546 1.414 . S
C545 C548 1.499 . S
C546 H526 0.950 . S
C546 C545 1.414 . S
C546 C547 1.374 . S
C547 H527 0.950 . S
C547 C543 1.385 . S
C547 C546 1.374 . S
C548 C545 1.499 . S
C548 C549 1.373 1_556 S
C548 C550 1.389 . S
C549 H528 0.950 . S
C549 C548 1.373 1_554 S
C549 C565 1.377 . S
C550 C548 1.389 . S
C550 C551 1.524 . S
C550 C564 1.377 1_556 S
C551 C550 1.524 . S
C551 C552 1.397 . S
C551 C556 1.363 . S
C552 H529 0.950 . S
C552 C551 1.397 . S
C552 C553 1.334 . S
C553 H530 0.950 . S
C553 C552 1.334 . S
C553 C554 1.287 . S
C554 C553 1.287 . S
C554 C555 1.524 . S
C554 H573 0.913 . S
C555 H531 0.950 . S
C555 C554 1.524 . S
C555 C556 1.415 . S
C556 H532 0.950 1_556 S
C556 C551 1.363 . S
C556 C555 1.415 . S
C557 H533 0.951 . S
C557 C558 1.366 . S
C557 C559 1.388 . S
C558 C557 1.366 . S
C558 C562 1.385 . S
C559 H534 0.951 . S
C559 C557 1.388 . S
C559 C560 1.366 . S
C560 C559 1.366 . S
C560 C561 1.414 . S
C560 C563 1.499 . S
C561 H535 0.950 . S
C561 C560 1.414 . S
C561 C562 1.374 . S
C562 H536 0.950 . S
C562 C558 1.385 . S
C562 C561 1.374 . S
C563 C560 1.499 . S
C563 C564 1.373 . S
C563 C565 1.389 . S
C564 H537 0.950 . S
C564 C550 1.377 1_554 S
C564 C563 1.373 . S
C565 C549 1.377 . S
C565 C563 1.389 . S
C565 C566 1.524 . S
C566 C565 1.524 . S
C566 C567 1.397 . S
C566 C571 1.363 . S
C567 H538 0.950 . S
C567 C566 1.397 . S
C567 C568 1.334 . S
C568 H539 0.950 . S
C568 C567 1.334 . S
C568 C569 1.287 . S
C569 C568 1.287 . S
C569 C570 1.524 . S
C569 H572 0.999 . S
C570 H540 0.950 . S
C570 C569 1.524 . S
C570 C571 1.415 . S
C571 H541 0.950 . S
C571 C566 1.363 . S
C571 C570 1.415 . S
H572 C569 0.999 . S
H573 C554 0.913 . S
H574 C592 0.951 . S
H575 C594 0.951 . S
H576 C596 0.950 . S
H577 C597 0.950 . S
H578 C599 0.950 . S
H579 C602 0.950 . S
H580 C603 0.950 . S
H581 C605 0.950 . S
H582 C606 0.950 . S
H583 C607 0.951 . S
H584 C609 0.951 . S
H585 C611 0.950 . S
H586 C612 0.950 . S
H587 C614 0.950 . S
H588 C617 0.950 . S
H589 C618 0.950 . S
H590 C620 0.950 . S
H591 C621 0.950 . S
C592 H574 0.951 . S
C592 C593 1.366 . S
C592 C594 1.388 . S
C593 C592 1.366 . S
C593 C597 1.385 . S
C594 H575 0.951 . S
C594 C592 1.388 . S
C594 C595 1.366 . S
C595 C594 1.366 . S
C595 C596 1.414 . S
C595 C598 1.499 . S
C596 H576 0.950 . S
C596 C595 1.414 . S
C596 C597 1.374 . S
C597 H577 0.950 . S
C597 C593 1.385 . S
C597 C596 1.374 . S
C598 C595 1.499 . S
C598 C599 1.373 . S
C598 C600 1.389 . S
C599 H578 0.950 . S
C599 C598 1.373 . S
C599 C615 1.377 . S
C600 C598 1.389 . S
C600 C601 1.524 . S
C600 C614 1.377 . S
C601 C600 1.524 . S
C601 C602 1.397 . S
C601 C606 1.363 . S
C602 H579 0.950 . S
C602 C601 1.397 . S
C602 C603 1.334 . S
C603 H580 0.950 . S
C603 C602 1.334 . S
C603 C604 1.287 . S
C604 C603 1.287 . S
C604 C605 1.524 . S
C604 H623 0.913 . S
C605 H581 0.950 . S
C605 C604 1.524 . S
C605 C606 1.415 . S
C606 H582 0.950 . S
C606 C601 1.363 . S
C606 C605 1.415 . S
C607 H583 0.951 . S
C607 C608 1.366 . S
C607 C609 1.388 . S
C608 C607 1.366 . S
C608 C612 1.385 . S
C609 H584 0.951 . S
C609 C607 1.388 . S
C609 C610 1.366 . S
C610 C609 1.366 . S
C610 C611 1.414 . S
C610 C613 1.499 . S
C611 H585 0.950 . S
C611 C610 1.414 . S
C611 C612 1.374 . S
C612 H586 0.950 . S
C612 C608 1.385 . S
C612 C611 1.374 . S
C613 C610 1.499 . S
C613 C614 1.373 . S
C613 C615 1.389 . S
C614 H587 0.950 . S
C614 C600 1.377 . S
C614 C613 1.373 . S
C615 C599 1.377 . S
C615 C613 1.389 . S
C615 C616 1.524 . S
C616 C615 1.524 . S
C616 C617 1.397 . S
C616 C621 1.363 . S
C617 H588 0.950 . S
C617 C616 1.397 . S
C617 C618 1.334 . S
C618 H589 0.950 . S
C618 C617 1.334 . S
C618 C619 1.287 . S
C619 C618 1.287 . S
C619 C620 1.524 . S
C619 H622 0.999 . S
C620 H590 0.950 . S
C620 C619 1.524 . S
C620 C621 1.415 . S
C621 H591 0.950 . S
C621 C616 1.363 . S
C621 C620 1.415 . S
H622 C619 0.999 . S
H623 C604 0.913 . S
H624 C642 0.951 . S
H625 C644 0.951 1_556 S
H626 C646 0.950 . S
H627 C647 0.950 . S
H628 C649 0.950 . S
H629 C652 0.950 . S
H630 C653 0.941 1_554 S
H631 C655 0.950 . S
H632 C656 0.950 . S
H633 C657 0.951 . S
H634 C659 0.951 1_554 S
H635 C661 0.950 . S
H636 C662 0.950 . S
H637 C664 0.950 . S
H638 C667 0.950 . S
H639 C668 0.941 1_556 S
H640 C670 0.950 . S
H641 C671 0.950 . S
C642 H624 0.951 . S
C642 C643 1.366 . S
C642 C644 1.388 . S
C643 C642 1.366 . S
C643 C647 1.385 . S
C644 H625 0.951 1_554 S
C644 C642 1.388 . S
C644 C645 1.366 . S
C645 C644 1.366 . S
C645 C646 1.414 . S
C645 C648 1.499 . S
C646 H626 0.950 . S
C646 C645 1.414 . S
C646 C647 1.374 . S
C647 H627 0.950 . S
C647 C643 1.385 . S
C647 C646 1.374 . S
C648 C645 1.499 . S
C648 C649 1.373 . S
C648 C650 1.389 1_554 S
C649 H628 0.950 . S
C649 C648 1.373 . S
C649 C665 1.377 1_545 S
C650 C648 1.389 1_556 S
C650 C651 1.524 . S
C650 C664 1.377 1_545 S
C651 C650 1.524 . S
C651 C652 1.397 1_556 S
C651 C656 1.363 . S
C652 H629 0.950 . S
C652 C651 1.397 1_554 S
C652 C653 1.332 1_554 S
C653 H630 0.941 1_556 S
C653 C652 1.332 1_556 S
C653 C654 1.298 . S
C654 C653 1.298 . S
C654 C655 1.524 . S
C654 H673 0.913 . S
C655 H631 0.950 . S
C655 C654 1.524 . S
C655 C656 1.415 . S
C656 H632 0.950 . S
C656 C651 1.363 . S
C656 C655 1.415 . S
C657 H633 0.951 . S
C657 C658 1.366 . S
C657 C659 1.388 . S
C658 C657 1.366 . S
C658 C662 1.385 . S
C659 H634 0.951 1_556 S
C659 C657 1.388 . S
C659 C660 1.366 . S
C660 C659 1.366 . S
C660 C661 1.414 . S
C660 C663 1.499 . S
C661 H635 0.950 . S
C661 C660 1.414 . S
C661 C662 1.374 . S
C662 H636 0.950 . S
C662 C658 1.385 . S
C662 C661 1.374 . S
C663 C660 1.499 . S
C663 C664 1.373 . S
C663 C665 1.389 1_556 S
C664 H637 0.950 . S
C664 C650 1.377 1_565 S
C664 C663 1.373 . S
C665 C649 1.377 1_565 S
C665 C663 1.389 1_554 S
C665 C666 1.524 . S
C666 C665 1.524 . S
C666 C667 1.397 1_554 S
C666 C671 1.363 . S
C667 H638 0.950 . S
C667 C666 1.397 1_556 S
C667 C668 1.332 1_556 S
C668 H639 0.941 1_554 S
C668 C667 1.332 1_554 S
C668 C669 1.298 . S
C669 C668 1.298 . S
C669 C670 1.524 . S
C669 H672 0.999 . S
C670 H640 0.950 . S
C670 C669 1.524 . S
C670 C671 1.415 . S
C671 H641 0.950 . S
C671 C666 1.363 . S
C671 C670 1.415 . S
H672 C669 0.999 . S
H673 C654 0.913 . S
H674 C692 0.951 . S
H675 C694 0.951 . S
H676 C696 0.950 . S
H677 C697 0.950 . S
H678 C699 0.950 . S
H679 C702 0.950 . S
H680 C703 0.950 . S
H681 C705 0.950 . S
H682 C706 0.950 . S
H683 C707 0.951 . S
H684 C709 0.951 . S
H685 C711 0.950 . S
H686 C712 0.950 . S
H687 C714 0.950 . S
H688 C717 0.950 . S
H689 C718 0.950 . S
H690 C720 0.950 . S
H691 C721 0.950 . S
C692 H674 0.951 . S
C692 C693 1.366 . S
C692 C694 1.388 . S
C693 C692 1.366 . S
C693 C697 1.385 . S
C694 H675 0.951 . S
C694 C692 1.388 . S
C694 C695 1.366 . S
C695 C694 1.366 . S
C695 C696 1.414 . S
C695 C698 1.499 . S
C696 H676 0.950 . S
C696 C695 1.414 . S
C696 C697 1.374 . S
C697 H677 0.950 . S
C697 C693 1.385 . S
C697 C696 1.374 . S
C698 C695 1.499 . S
C698 C699 1.373 . S
C698 C700 1.389 . S
C699 H678 0.950 . S
C699 C698 1.373 . S
C699 C715 1.377 1_565 S
C700 C698 1.389 . S
C700 C701 1.524 . S
C700 C714 1.377 1_565 S
C701 C700 1.524 . S
C701 C702 1.397 . S
C701 C706 1.363 . S
C702 H679 0.950 . S
C702 C701 1.397 . S
C702 C703 1.334 . S
C703 H680 0.950 . S
C703 C702 1.334 . S
C703 C704 1.287 . S
C704 C703 1.287 . S
C704 C705 1.524 . S
C704 H723 0.913 . S
C705 H681 0.950 . S
C705 C704 1.524 . S
C705 C706 1.415 . S
C706 H682 0.950 . S
C706 C701 1.363 . S
C706 C705 1.415 . S
C707 H683 0.951 . S
C707 C708 1.366 . S
C707 C709 1.388 . S
C708 C707 1.366 . S
C708 C712 1.385 . S
C709 H684 0.951 . S
C709 C707 1.388 . S
C709 C710 1.366 . S
C710 C709 1.366 . S
C710 C711 1.414 . S
C710 C713 1.499 . S
C711 H685 0.950 . S
C711 C710 1.414 . S
C711 C712 1.374 . S
C712 H686 0.950 . S
C712 C708 1.385 . S
C712 C711 1.374 . S
C713 C710 1.499 . S
C713 C714 1.373 . S
C713 C715 1.389 . S
C714 H687 0.950 . S
C714 C700 1.377 1_545 S
C714 C713 1.373 . S
C715 C699 1.377 1_545 S
C715 C713 1.389 . S
C715 C716 1.524 . S
C716 C715 1.524 . S
C716 C717 1.397 . S
C716 C721 1.363 . S
C717 H688 0.950 . S
C717 C716 1.397 . S
C717 C718 1.334 . S
C718 H689 0.950 . S
C718 C717 1.334 . S
C718 C719 1.287 . S
C719 C718 1.287 . S
C719 C720 1.524 . S
C719 H722 0.999 . S
C720 H690 0.950 . S
C720 C719 1.524 . S
C720 C721 1.415 . S
C721 H691 0.950 . S
C721 C716 1.363 . S
C721 C720 1.415 . S
H722 C719 0.999 . S
H723 C704 0.913 . S
H724 C742 0.951 . S
H725 C744 0.951 . S
H726 C746 0.950 . S
H727 C747 0.950 . S
H728 C749 0.950 . S
H729 C752 0.950 . S
H730 C753 0.950 . S
H731 C755 0.947 . S
H732 C756 0.950 . S
H733 C757 0.951 . S
H734 C759 0.951 . S
H735 C761 0.950 . S
H736 C762 0.950 . S
H737 C764 0.950 . S
H738 C767 0.950 . S
H739 C768 0.950 . S
H740 C770 0.947 . S
H741 C771 0.950 . S
C742 H724 0.951 . S
C742 C743 1.366 . S
C742 C744 1.388 . S
C743 C742 1.366 . S
C743 C747 1.385 . S
C744 H725 0.951 . S
C744 C742 1.388 . S
C744 C745 1.366 . S
C745 C744 1.366 . S
C745 C746 1.414 . S
C745 C748 1.499 . S
C746 H726 0.950 . S
C746 C745 1.414 . S
C746 C747 1.374 . S
C747 H727 0.950 . S
C747 C743 1.385 . S
C747 C746 1.374 . S
C748 C745 1.499 . S
C748 C749 1.373 . S
C748 C750 1.389 . S
C749 H728 0.950 . S
C749 C748 1.373 . S
C749 C765 1.377 1_566 S
C750 C748 1.389 . S
C750 C751 1.524 . S
C750 C764 1.377 1_566 S
C751 C750 1.524 . S
C751 C752 1.397 . S
C751 C756 1.363 1_565 S
C752 H729 0.950 . S
C752 C751 1.397 . S
C752 C753 1.334 . S
C753 H730 0.950 . S
C753 C752 1.334 . S
C753 C754 1.287 . S
C754 C753 1.287 . S
C754 C755 1.528 1_565 S
C754 H773 0.913 . S
C755 H731 0.947 . S
C755 C754 1.528 1_545 S
C755 C756 1.414 . S
C756 H732 0.950 . S
C756 C751 1.363 1_545 S
C756 C755 1.414 . S
C757 H733 0.951 . S
C757 C758 1.366 . S
C757 C759 1.388 . S
C758 C757 1.366 . S
C758 C762 1.385 . S
C759 H734 0.951 . S
C759 C757 1.388 . S
C759 C760 1.366 . S
C760 C759 1.366 . S
C760 C761 1.414 . S
C760 C763 1.499 . S
C761 H735 0.950 . S
C761 C760 1.414 . S
C761 C762 1.374 . S
C762 H736 0.950 . S
C762 C758 1.385 . S
C762 C761 1.374 . S
C763 C760 1.499 . S
C763 C764 1.373 . S
C763 C765 1.389 . S
C764 H737 0.950 . S
C764 C750 1.377 1_544 S
C764 C763 1.373 . S
C765 C749 1.377 1_544 S
C765 C763 1.389 . S
C765 C766 1.524 . S
C766 C765 1.524 . S
C766 C767 1.397 . S
C766 C771 1.363 1_545 S
C767 H738 0.950 . S
C767 C766 1.397 . S
C767 C768 1.334 . S
C768 H739 0.950 . S
C768 C767 1.334 . S
C768 C769 1.287 . S
C769 C768 1.287 . S
C769 C770 1.528 1_545 S
C769 H772 0.999 . S
C770 H740 0.947 . S
C770 C769 1.528 1_565 S
C770 C771 1.414 . S
C771 H741 0.950 . S
C771 C766 1.363 1_565 S
C771 C770 1.414 . S
H772 C769 0.999 . S
H773 C754 0.913 . S
H774 C792 0.951 . S
H775 C794 0.951 . S
H776 C796 0.950 . S
H777 C797 0.950 . S
H778 C799 0.950 . S
H779 C802 0.950 . S
H780 C803 0.950 . S
H781 C805 0.950 . S
H782 C806 0.950 . S
H783 C807 0.951 . S
H784 C809 0.951 . S
H785 C811 0.950 . S
H786 C812 0.950 . S
H787 C814 0.950 . S
H788 C817 0.950 . S
H789 C818 0.950 . S
H790 C820 0.950 . S
H791 C821 0.950 . S
C792 H774 0.951 . S
C792 C793 1.366 . S
C792 C794 1.388 . S
C793 C792 1.366 . S
C793 C797 1.385 . S
C794 H775 0.951 . S
C794 C792 1.388 . S
C794 C795 1.366 . S
C795 C794 1.366 . S
C795 C796 1.414 . S
C795 C798 1.499 . S
C796 H776 0.950 . S
C796 C795 1.414 . S
C796 C797 1.374 . S
C797 H777 0.950 . S
C797 C793 1.385 . S
C797 C796 1.374 . S
C798 C795 1.499 . S
C798 C799 1.384 . S
C798 C800 1.389 . S
C799 H778 0.950 . S
C799 C798 1.384 . S
C799 C815 1.366 1_545 S
C800 C798 1.389 . S
C800 C801 1.524 . S
C800 C814 1.366 1_545 S
C801 C800 1.524 . S
C801 C802 1.397 . S
C801 C806 1.363 . S
C802 H779 0.950 . S
C802 C801 1.397 . S
C802 C803 1.334 . S
C803 H780 0.950 . S
C803 C802 1.334 . S
C803 C804 1.287 . S
C804 C803 1.287 . S
C804 C805 1.524 . S
C804 H823 0.913 . S
C805 H781 0.950 . S
C805 C804 1.524 . S
C805 C806 1.415 . S
C806 H782 0.950 . S
C806 C801 1.363 . S
C806 C805 1.415 . S
C807 H783 0.951 . S
C807 C808 1.366 . S
C807 C809 1.388 . S
C808 C807 1.366 . S
C808 C812 1.385 . S
C809 H784 0.951 . S
C809 C807 1.388 . S
C809 C810 1.366 . S
C810 C809 1.366 . S
C810 C811 1.414 . S
C810 C813 1.499 . S
C811 H785 0.950 . S
C811 C810 1.414 . S
C811 C812 1.374 . S
C812 H786 0.950 . S
C812 C808 1.385 . S
C812 C811 1.374 . S
C813 C810 1.499 . S
C813 C814 1.384 . S
C813 C815 1.389 . S
C814 H787 0.950 . S
C814 C800 1.366 1_565 S
C814 C813 1.384 . S
C815 C799 1.366 1_565 S
C815 C813 1.389 . S
C815 C816 1.524 . S
C816 C815 1.524 . S
C816 C817 1.397 . S
C816 C821 1.363 . S
C817 H788 0.950 . S
C817 C816 1.397 . S
C817 C818 1.334 . S
C818 H789 0.950 . S
C818 C817 1.334 . S
C818 C819 1.287 . S
C819 C818 1.287 . S
C819 C820 1.524 . S
C819 H822 0.999 . S
C820 H790 0.950 . S
C820 C819 1.524 . S
C820 C821 1.415 . S
C821 H791 0.950 . S
C821 C816 1.363 . S
C821 C820 1.415 . S
H822 C819 0.999 . S
H823 C804 0.913 . S
H824 C842 0.951 . S
H825 C844 0.951 . S
H826 C846 0.950 . S
H827 C847 0.950 . S
H828 C849 0.950 . S
H829 C852 0.950 . S
H830 C853 0.950 . S
H831 C855 0.950 . S
H832 C856 0.950 . S
H833 C857 0.951 . S
H834 C859 0.951 . S
H835 C861 0.950 . S
H836 C862 0.950 . S
H837 C864 0.950 . S
H838 C867 0.950 . S
H839 C868 0.950 . S
H840 C870 0.950 . S
H841 C871 0.950 . S
C842 H824 0.951 . S
C842 C843 1.366 . S
C842 C844 1.388 . S
C843 C842 1.366 . S
C843 C847 1.385 . S
C844 H825 0.951 . S
C844 C842 1.388 . S
C844 C845 1.366 . S
C845 C844 1.366 . S
C845 C846 1.414 . S
C845 C848 1.499 . S
C846 H826 0.950 . S
C846 C845 1.414 . S
C846 C847 1.374 . S
C847 H827 0.950 . S
C847 C843 1.385 . S
C847 C846 1.374 . S
C848 C845 1.499 . S
C848 C849 1.373 . S
C848 C850 1.389 1_556 S
C849 H828 0.950 . S
C849 C848 1.373 . S
C849 C865 1.377 . S
C850 C848 1.389 1_554 S
C850 C851 1.524 . S
C850 C864 1.377 . S
C851 C850 1.524 . S
C851 C852 1.397 . S
C851 C856 1.363 . S
C852 H829 0.950 . S
C852 C851 1.397 . S
C852 C853 1.334 . S
C853 H830 0.950 . S
C853 C852 1.334 . S
C853 C854 1.287 . S
C854 C853 1.287 . S
C854 C855 1.524 . S
C854 H873 0.913 . S
C855 H831 0.950 . S
C855 C854 1.524 . S
C855 C856 1.415 . S
C856 H832 0.950 . S
C856 C851 1.363 . S
C856 C855 1.415 . S
C857 H833 0.951 . S
C857 C858 1.366 . S
C857 C859 1.388 . S
C858 C857 1.366 . S
C858 C862 1.385 . S
C859 H834 0.951 . S
C859 C857 1.388 . S
C859 C860 1.366 . S
C860 C859 1.366 . S
C860 C861 1.414 . S
C860 C863 1.499 . S
C861 H835 0.950 . S
C861 C860 1.414 . S
C861 C862 1.374 . S
C862 H836 0.950 . S
C862 C858 1.385 . S
C862 C861 1.374 . S
C863 C860 1.499 . S
C863 C864 1.373 . S
C863 C865 1.389 1_554 S
C864 H837 0.950 . S
C864 C850 1.377 . S
C864 C863 1.373 . S
C865 C849 1.377 . S
C865 C863 1.389 1_556 S
C865 C866 1.524 . S
C866 C865 1.524 . S
C866 C867 1.397 . S
C866 C871 1.363 . S
C867 H838 0.950 . S
C867 C866 1.397 . S
C867 C868 1.334 . S
C868 H839 0.950 . S
C868 C867 1.334 . S
C868 C869 1.287 . S
C869 C868 1.287 . S
C869 C870 1.524 . S
C869 H872 0.999 . S
C870 H840 0.950 . S
C870 C869 1.524 . S
C870 C871 1.415 . S
C871 H841 0.950 . S
C871 C866 1.363 . S
C871 C870 1.415 . S
H872 C869 0.999 . S
H873 C854 0.913 . S
H874 C892 0.951 . S
H875 C894 0.951 . S
H876 C896 0.950 . S
H877 C897 0.950 . S
H878 C899 0.950 . S
H879 C902 0.950 . S
H880 C903 0.950 . S
H881 C905 0.950 . S
H882 C906 0.950 . S
H883 C907 0.951 . S
H884 C909 0.951 . S
H885 C911 0.950 . S
H886 C912 0.950 . S
H887 C914 0.950 . S
H888 C917 0.950 . S
H889 C918 0.950 . S
H890 C920 0.950 . S
H891 C921 0.950 . S
C892 H874 0.951 . S
C892 C893 1.366 . S
C892 C894 1.388 . S
C893 C892 1.366 . S
C893 C897 1.385 . S
C894 H875 0.951 . S
C894 C892 1.388 . S
C894 C895 1.366 . S
C895 C894 1.366 . S
C895 C896 1.414 . S
C895 C898 1.499 . S
C896 H876 0.950 . S
C896 C895 1.414 . S
C896 C897 1.374 . S
C897 H877 0.950 . S
C897 C893 1.385 . S
C897 C896 1.374 . S
C898 C895 1.499 . S
C898 C899 1.373 . S
C898 C900 1.389 . S
C899 H878 0.950 . S
C899 C898 1.373 . S
C899 C915 1.377 . S
C900 C898 1.389 . S
C900 C901 1.524 . S
C900 C914 1.377 . S
C901 C900 1.524 . S
C901 C902 1.397 . S
C901 C906 1.363 . S
C902 H879 0.950 . S
C902 C901 1.397 . S
C902 C903 1.334 . S
C903 H880 0.950 . S
C903 C902 1.334 . S
C903 C904 1.287 . S
C904 C903 1.287 . S
C904 C905 1.524 . S
C904 H923 0.913 . S
C905 H881 0.950 . S
C905 C904 1.524 . S
C905 C906 1.415 . S
C906 H882 0.950 . S
C906 C901 1.363 . S
C906 C905 1.415 . S
C907 H883 0.951 . S
C907 C908 1.366 . S
C907 C909 1.388 . S
C908 C907 1.366 . S
C908 C912 1.385 . S
C909 H884 0.951 . S
C909 C907 1.388 . S
C909 C910 1.366 . S
C910 C909 1.366 . S
C910 C911 1.414 . S
C910 C913 1.499 . S
C911 H885 0.950 . S
C911 C910 1.414 . S
C911 C912 1.374 . S
C912 H886 0.950 . S
C912 C908 1.385 . S
C912 C911 1.374 . S
C913 C910 1.499 . S
C913 C914 1.373 . S
C913 C915 1.389 . S
C914 H887 0.950 . S
C914 C900 1.377 . S
C914 C913 1.373 . S
C915 C899 1.377 . S
C915 C913 1.389 . S
C915 C916 1.524 . S
C916 C915 1.524 . S
C916 C917 1.397 . S
C916 C921 1.363 . S
C917 H888 0.950 . S
C917 C916 1.397 . S
C917 C918 1.334 . S
C918 H889 0.950 . S
C918 C917 1.334 . S
C918 C919 1.287 . S
C919 C918 1.287 . S
C919 C920 1.524 . S
C919 H922 0.999 . S
C920 H890 0.950 . S
C920 C919 1.524 . S
C920 C921 1.415 . S
C921 H891 0.950 . S
C921 C916 1.363 . S
C921 C920 1.415 . S
H922 C919 0.999 . S
H923 C904 0.913 . S
H924 C942 0.951 . S
H925 C944 0.951 . S
H926 C946 0.950 . S
H927 C947 0.950 . S
H928 C949 0.950 . S
H929 C952 0.950 . S
H930 C953 0.950 . S
H931 C955 0.950 . S
H932 C956 0.950 . S
H933 C957 0.951 . S
H934 C959 0.951 . S
H935 C961 0.950 . S
H936 C962 0.950 . S
H937 C964 0.950 . S
H938 C967 0.950 . S
H939 C968 0.950 . S
H940 C970 0.950 . S
H941 C971 0.950 . S
C942 H924 0.951 . S
C942 C943 1.366 . S
C942 C944 1.388 . S
C943 C942 1.366 . S
C943 C947 1.385 . S
C944 H925 0.951 . S
C944 C942 1.388 . S
C944 C945 1.366 . S
C945 C944 1.366 . S
C945 C946 1.414 . S
C945 C948 1.499 . S
C946 H926 0.950 . S
C946 C945 1.414 . S
C946 C947 1.374 . S
C947 H927 0.950 . S
C947 C943 1.385 . S
C947 C946 1.374 . S
C948 C945 1.499 . S
C948 C949 1.373 . S
C948 C950 1.389 1_554 S
C949 H928 0.950 . S
C949 C948 1.373 . S
C949 C965 1.377 . S
C950 C948 1.389 1_556 S
C950 C951 1.524 . S
C950 C964 1.377 . S
C951 C950 1.524 . S
C951 C952 1.397 1_556 S
C951 C956 1.363 . S
C952 H929 0.950 . S
C952 C951 1.397 1_554 S
C952 C953 1.334 . S
C953 H930 0.950 . S
C953 C952 1.334 . S
C953 C954 1.287 1_554 S
C954 C953 1.287 1_556 S
C954 C955 1.524 . S
C954 H973 0.913 . S
C955 H931 0.950 . S
C955 C954 1.524 . S
C955 C956 1.415 . S
C956 H932 0.950 . S
C956 C951 1.363 . S
C956 C955 1.415 . S
C957 H933 0.951 . S
C957 C958 1.366 . S
C957 C959 1.388 . S
C958 C957 1.366 . S
C958 C962 1.385 . S
C959 H934 0.951 . S
C959 C957 1.388 . S
C959 C960 1.366 . S
C960 C959 1.366 . S
C960 C961 1.414 . S
C960 C963 1.499 . S
C961 H935 0.950 . S
C961 C960 1.414 . S
C961 C962 1.374 . S
C962 H936 0.950 . S
C962 C958 1.385 . S
C962 C961 1.374 . S
C963 C960 1.499 . S
C963 C964 1.373 . S
C963 C965 1.389 1_556 S
C964 H937 0.950 . S
C964 C950 1.377 . S
C964 C963 1.373 . S
C965 C949 1.377 . S
C965 C963 1.389 1_554 S
C965 C966 1.524 . S
C966 C965 1.524 . S
C966 C967 1.397 1_554 S
C966 C971 1.363 . S
C967 H938 0.950 . S
C967 C966 1.397 1_556 S
C967 C968 1.334 . S
C968 H939 0.950 . S
C968 C967 1.334 . S
C968 C969 1.287 1_556 S
C969 C968 1.287 1_554 S
C969 C970 1.524 . S
C969 H972 0.999 . S
C970 H940 0.950 . S
C970 C969 1.524 . S
C970 C971 1.415 . S
C971 H941 0.950 . S
C971 C966 1.363 . S
C971 C970 1.415 . S
H972 C969 0.999 . S
H973 C954 0.913 . S
H974 C992 0.951 . S
H975 C994 0.951 . S
H976 C996 0.950 . S
H977 C997 0.950 . S
H978 C999 0.950 . S
H979 C1002 0.950 . S
H980 C1003 0.950 . S
H981 C1005 0.950 . S
H982 C1006 0.950 . S
H983 C1007 0.951 . S
H984 C1009 0.951 . S
H985 C1011 0.950 . S
H986 C1012 0.950 . S
H987 C1014 0.950 . S
H988 C1017 0.950 . S
H989 C1018 0.950 . S
H990 C1020 0.950 . S
H991 C1021 0.950 . S
C992 H974 0.951 . S
C992 C993 1.366 . S
C992 C994 1.388 . S
C993 C992 1.366 . S
C993 C997 1.385 . S
C994 H975 0.951 . S
C994 C992 1.388 . S
C994 C995 1.366 . S
C995 C994 1.366 . S
C995 C996 1.414 . S
C995 C998 1.499 . S
C996 H976 0.950 . S
C996 C995 1.414 . S
C996 C997 1.374 . S
C997 H977 0.950 . S
C997 C993 1.385 . S
C997 C996 1.374 . S
C998 C995 1.499 . S
C998 C999 1.373 . S
C998 C1000 1.389 . S
C999 H978 0.950 . S
C999 C998 1.373 . S
C999 C1015 1.377 . S
C1000 C998 1.389 . S
C1000 C1001 1.524 . S
C1000 C1014 1.377 . S
C1001 C1000 1.524 . S
C1001 C1002 1.397 . S
C1001 C1006 1.363 . S
C1002 H979 0.950 . S
C1002 C1001 1.397 . S
C1002 C1003 1.334 . S
C1003 H980 0.950 . S
C1003 C1002 1.334 . S
C1003 C1004 1.287 . S
C1004 C1003 1.287 . S
C1004 C1005 1.524 . S
C1004 H1023 0.913 . S
C1005 H981 0.950 . S
C1005 C1004 1.524 . S
C1005 C1006 1.415 . S
C1006 H982 0.950 . S
C1006 C1001 1.363 . S
C1006 C1005 1.415 . S
C1007 H983 0.951 . S
C1007 C1008 1.366 . S
C1007 C1009 1.388 . S
C1008 C1007 1.366 . S
C1008 C1012 1.385 . S
C1009 H984 0.951 . S
C1009 C1007 1.388 . S
C1009 C1010 1.366 . S
C1010 C1009 1.366 . S
C1010 C1011 1.414 . S
C1010 C1013 1.499 . S
C1011 H985 0.950 . S
C1011 C1010 1.414 . S
C1011 C1012 1.374 . S
C1012 H986 0.950 . S
C1012 C1008 1.385 . S
C1012 C1011 1.374 . S
C1013 C1010 1.499 . S
C1013 C1014 1.373 . S
C1013 C1015 1.389 . S
C1014 H987 0.950 . S
C1014 C1000 1.377 . S
C1014 C1013 1.373 . S
C1015 C999 1.377 . S
C1015 C1013 1.389 . S
C1015 C1016 1.524 . S
C1016 C1015 1.524 . S
C1016 C1017 1.397 . S
C1016 C1021 1.363 . S
C1017 H988 0.950 . S
C1017 C1016 1.397 . S
C1017 C1018 1.334 . S
C1018 H989 0.950 . S
C1018 C1017 1.334 . S
C1018 C1019 1.287 . S
C1019 C1018 1.287 . S
C1019 C1020 1.524 . S
C1019 H1022 0.999 . S
C1020 H990 0.950 . S
C1020 C1019 1.524 . S
C1020 C1021 1.415 . S
C1021 H991 0.950 . S
C1021 C1016 1.363 . S
C1021 C1020 1.415 . S
H1022 C1019 0.999 . S
H1023 C1004 0.913 . S
H1024 C1042 0.951 . S
H1025 C1044 0.951 . S
H1026 C1046 0.950 . S
H1027 C1047 0.950 . S
H1028 C1049 0.950 . S
H1029 C1052 0.950 . S
H1030 C1053 0.950 . S
H1031 C1055 0.950 . S
H1032 C1056 0.950 . S
H1033 C1057 0.951 . S
H1034 C1059 0.951 . S
H1035 C1061 0.950 . S
H1036 C1062 0.950 . S
H1037 C1064 0.950 . S
H1038 C1067 0.950 . S
H1039 C1068 0.950 . S
H1040 C1070 0.950 . S
H1041 C1071 0.950 . S
C1042 H1024 0.951 . S
C1042 C1043 1.366 . S
C1042 C1044 1.388 . S
C1043 C1042 1.366 . S
C1043 C1047 1.385 . S
C1044 H1025 0.951 . S
C1044 C1042 1.388 . S
C1044 C1045 1.366 . S
C1045 C1044 1.366 . S
C1045 C1046 1.414 . S
C1045 C1048 1.499 . S
C1046 H1026 0.950 . S
C1046 C1045 1.414 . S
C1046 C1047 1.374 . S
C1047 H1027 0.950 . S
C1047 C1043 1.385 . S
C1047 C1046 1.374 . S
C1048 C1045 1.499 . S
C1048 C1049 1.373 . S
C1048 C1050 1.389 . S
C1049 H1028 0.950 . S
C1049 C1048 1.373 . S
C1049 C1065 1.377 . S
C1050 C1048 1.389 . S
C1050 C1051 1.524 . S
C1050 C1064 1.377 . S
C1051 C1050 1.524 . S
C1051 C1052 1.397 . S
C1051 C1056 1.363 . S
C1052 H1029 0.950 . S
C1052 C1051 1.397 . S
C1052 C1053 1.334 . S
C1053 H1030 0.950 . S
C1053 C1052 1.334 . S
C1053 C1054 1.287 1_554 S
C1054 C1053 1.287 1_556 S
C1054 C1055 1.524 . S
C1054 H1073 0.913 . S
C1055 H1031 0.950 . S
C1055 C1054 1.524 . S
C1055 C1056 1.415 1_556 S
C1056 H1032 0.950 . S
C1056 C1051 1.363 . S
C1056 C1055 1.415 1_554 S
C1057 H1033 0.951 . S
C1057 C1058 1.366 . S
C1057 C1059 1.388 . S
C1058 C1057 1.366 . S
C1058 C1062 1.385 . S
C1059 H1034 0.951 . S
C1059 C1057 1.388 . S
C1059 C1060 1.366 . S
C1060 C1059 1.366 . S
C1060 C1061 1.414 . S
C1060 C1063 1.499 . S
C1061 H1035 0.950 . S
C1061 C1060 1.414 . S
C1061 C1062 1.374 . S
C1062 H1036 0.950 . S
C1062 C1058 1.385 . S
C1062 C1061 1.374 . S
C1063 C1060 1.499 . S
C1063 C1064 1.373 . S
C1063 C1065 1.389 . S
C1064 H1037 0.950 . S
C1064 C1050 1.377 . S
C1064 C1063 1.373 . S
C1065 C1049 1.377 . S
C1065 C1063 1.389 . S
C1065 C1066 1.524 . S
C1066 C1065 1.524 . S
C1066 C1067 1.397 . S
C1066 C1071 1.363 . S
C1067 H1038 0.950 . S
C1067 C1066 1.397 . S
C1067 C1068 1.334 . S
C1068 H1039 0.950 . S
C1068 C1067 1.334 . S
C1068 C1069 1.287 . S
C1069 C1068 1.287 . S
C1069 C1070 1.524 . S
C1069 H1072 0.999 . S
C1070 H1040 0.950 . S
C1070 C1069 1.524 . S
C1070 C1071 1.415 . S
C1071 H1041 0.950 . S
C1071 C1066 1.363 . S
C1071 C1070 1.415 . S
H1072 C1069 0.999 . S
H1073 C1054 0.913 . S
H1074 C1092 0.951 . S
H1075 C1094 0.951 . S
H1076 C1096 0.950 . S
H1077 C1097 0.950 . S
H1078 C1099 0.950 . S
H1079 C1102 0.950 . S
H1080 C1103 0.950 . S
H1081 C1105 0.954 . S
H1082 C1106 0.950 . S
H1083 C1107 0.951 . S
H1084 C1109 0.951 . S
H1085 C1111 0.950 . S
H1086 C1112 0.950 . S
H1087 C1114 0.950 . S
H1088 C1117 0.950 . S
H1089 C1118 0.950 . S
H1090 C1120 0.950 . S
H1091 C1121 0.950 . S
C1092 H1074 0.951 . S
C1092 C1093 1.366 . S
C1092 C1094 1.388 . S
C1093 C1092 1.366 . S
C1093 C1097 1.385 . S
C1094 H1075 0.951 . S
C1094 C1092 1.388 . S
C1094 C1095 1.366 . S
C1095 C1094 1.366 . S
C1095 C1096 1.414 . S
C1095 C1098 1.499 1_655 S
C1096 H1076 0.950 . S
C1096 C1095 1.414 . S
C1096 C1097 1.374 . S
C1097 H1077 0.950 . S
C1097 C1093 1.385 . S
C1097 C1096 1.374 . S
C1098 C1095 1.499 1_455 S
C1098 C1099 1.373 . S
C1098 C1100 1.389 . S
C1099 H1078 0.950 . S
C1099 C1098 1.373 . S
C1099 C1115 1.377 . S
C1100 C1098 1.389 . S
C1100 C1101 1.524 . S
C1100 C1114 1.377 . S
C1101 C1100 1.524 . S
C1101 C1102 1.397 1_455 S
C1101 C1106 1.363 . S
C1102 H1079 0.950 . S
C1102 C1101 1.397 1_655 S
C1102 C1103 1.334 . S
C1103 H1080 0.950 . S
C1103 C1102 1.334 . S
C1103 C1104 1.287 . S
C1104 C1103 1.287 . S
C1104 C1105 1.509 1_655 S
C1104 H1123 0.913 . S
C1105 H1081 0.954 . S
C1105 C1104 1.509 1_455 S
C1105 C1106 1.426 . S
C1106 H1082 0.950 . S
C1106 C1101 1.363 . S
C1106 C1105 1.426 . S
C1107 H1083 0.951 . S
C1107 C1108 1.366 . S
C1107 C1109 1.388 . S
C1108 C1107 1.366 . S
C1108 C1112 1.385 . S
C1109 H1084 0.951 . S
C1109 C1107 1.388 . S
C1109 C1110 1.366 . S
C1110 C1109 1.366 . S
C1110 C1111 1.414 . S
C1110 C1113 1.499 . S
C1111 H1085 0.950 . S
C1111 C1110 1.414 . S
C1111 C1112 1.374 . S
C1112 H1086 0.950 . S
C1112 C1108 1.385 . S
C1112 C1111 1.374 . S
C1113 C1110 1.499 . S
C1113 C1114 1.373 . S
C1113 C1115 1.389 . S
C1114 H1087 0.950 . S
C1114 C1100 1.377 . S
C1114 C1113 1.373 . S
C1115 C1099 1.377 . S
C1115 C1113 1.389 . S
C1115 C1116 1.524 . S
C1116 C1115 1.524 . S
C1116 C1117 1.397 . S
C1116 C1121 1.363 . S
C1117 H1088 0.950 . S
C1117 C1116 1.397 . S
C1117 C1118 1.334 . S
C1118 H1089 0.950 . S
C1118 C1117 1.334 . S
C1118 C1119 1.287 . S
C1119 C1118 1.287 . S
C1119 C1120 1.524 . S
C1119 H1122 0.999 . S
C1120 H1090 0.950 . S
C1120 C1119 1.524 . S
C1120 C1121 1.415 . S
C1121 H1091 0.950 . S
C1121 C1116 1.363 . S
C1121 C1120 1.415 . S
H1122 C1119 0.999 . S
H1123 C1104 0.913 . S
H1124 C1142 0.951 . S
H1125 C1144 0.951 . S
H1126 C1146 0.950 . S
H1127 C1147 0.950 . S
H1128 C1149 0.950 . S
H1129 C1152 0.950 . S
H1130 C1153 0.950 . S
H1131 C1155 0.950 . S
H1132 C1156 0.950 . S
H1133 C1157 0.951 . S
H1134 C1159 0.951 . S
H1135 C1161 0.950 . S
H1136 C1162 0.950 . S
H1137 C1164 0.950 . S
H1138 C1167 0.950 . S
H1139 C1168 0.950 . S
H1140 C1170 0.950 . S
H1141 C1171 0.950 . S
C1142 H1124 0.951 . S
C1142 C1143 1.366 . S
C1142 C1144 1.388 . S
C1143 C1142 1.366 . S
C1143 C1147 1.385 . S
C1144 H1125 0.951 . S
C1144 C1142 1.388 . S
C1144 C1145 1.366 . S
C1145 C1144 1.366 . S
C1145 C1146 1.414 . S
C1145 C1148 1.499 . S
C1146 H1126 0.950 . S
C1146 C1145 1.414 . S
C1146 C1147 1.374 . S
C1147 H1127 0.950 . S
C1147 C1143 1.385 . S
C1147 C1146 1.374 . S
C1148 C1145 1.499 . S
C1148 C1149 1.373 . S
C1148 C1150 1.389 . S
C1149 H1128 0.950 . S
C1149 C1148 1.373 . S
C1149 C1165 1.377 . S
C1150 C1148 1.389 . S
C1150 C1151 1.524 . S
C1150 C1164 1.377 . S
C1151 C1150 1.524 . S
C1151 C1152 1.397 . S
C1151 C1156 1.363 . S
C1152 H1129 0.950 . S
C1152 C1151 1.397 . S
C1152 C1153 1.334 . S
C1153 H1130 0.950 . S
C1153 C1152 1.334 . S
C1153 C1154 1.287 . S
C1154 C1153 1.287 . S
C1154 C1155 1.524 . S
C1154 H1173 0.913 . S
C1155 H1131 0.950 . S
C1155 C1154 1.524 . S
C1155 C1156 1.415 . S
C1156 H1132 0.950 . S
C1156 C1151 1.363 . S
C1156 C1155 1.415 . S
C1157 H1133 0.951 . S
C1157 C1158 1.366 . S
C1157 C1159 1.388 . S
C1158 C1157 1.366 . S
C1158 C1162 1.385 . S
C1159 H1134 0.951 . S
C1159 C1157 1.388 . S
C1159 C1160 1.366 . S
C1160 C1159 1.366 . S
C1160 C1161 1.414 . S
C1160 C1163 1.499 . S
C1161 H1135 0.950 . S
C1161 C1160 1.414 . S
C1161 C1162 1.374 . S
C1162 H1136 0.950 . S
C1162 C1158 1.385 . S
C1162 C1161 1.374 . S
C1163 C1160 1.499 . S
C1163 C1164 1.373 . S
C1163 C1165 1.389 . S
C1164 H1137 0.950 . S
C1164 C1150 1.377 . S
C1164 C1163 1.373 . S
C1165 C1149 1.377 . S
C1165 C1163 1.389 . S
C1165 C1166 1.524 . S
C1166 C1165 1.524 . S
C1166 C1167 1.397 . S
C1166 C1171 1.363 . S
C1167 H1138 0.950 . S
C1167 C1166 1.397 . S
C1167 C1168 1.334 . S
C1168 H1139 0.950 . S
C1168 C1167 1.334 . S
C1168 C1169 1.287 . S
C1169 C1168 1.287 . S
C1169 C1170 1.524 . S
C1169 H1172 0.999 1_556 S
C1170 H1140 0.950 . S
C1170 C1169 1.524 . S
C1170 C1171 1.415 . S
C1171 H1141 0.950 . S
C1171 C1166 1.363 . S
C1171 C1170 1.415 . S
H1172 C1169 0.999 1_554 S
H1173 C1154 0.913 . S
H1174 C1192 0.951 . S
H1175 C1194 0.951 . S
H1176 C1196 0.950 . S
H1177 C1197 0.950 . S
H1178 C1199 0.950 . S
H1179 C1202 0.950 . S
H1180 C1203 0.950 . S
H1181 C1205 0.950 . S
H1182 C1206 0.950 . S
H1183 C1207 0.951 . S
H1184 C1209 0.951 . S
H1185 C1211 0.950 . S
H1186 C1212 0.950 . S
H1187 C1214 0.950 . S
H1188 C1217 0.950 . S
H1189 C1218 0.950 . S
H1190 C1220 0.950 . S
H1191 C1221 0.950 . S
C1192 H1174 0.951 . S
C1192 C1193 1.366 . S
C1192 C1194 1.388 . S
C1193 C1192 1.366 . S
C1193 C1197 1.385 . S
C1194 H1175 0.951 . S
C1194 C1192 1.388 . S
C1194 C1195 1.366 . S
C1195 C1194 1.366 . S
C1195 C1196 1.414 . S
C1195 C1198 1.499 . S
C1196 H1176 0.950 . S
C1196 C1195 1.414 . S
C1196 C1197 1.374 . S
C1197 H1177 0.950 . S
C1197 C1193 1.385 . S
C1197 C1196 1.374 . S
C1198 C1195 1.499 . S
C1198 C1199 1.373 . S
C1198 C1200 1.389 . S
C1199 H1178 0.950 . S
C1199 C1198 1.373 . S
C1199 C1215 1.377 . S
C1200 C1198 1.389 . S
C1200 C1201 1.524 . S
C1200 C1214 1.377 . S
C1201 C1200 1.524 . S
C1201 C1202 1.397 . S
C1201 C1206 1.363 . S
C1202 H1179 0.950 . S
C1202 C1201 1.397 . S
C1202 C1203 1.334 . S
C1203 H1180 0.950 . S
C1203 C1202 1.334 . S
C1203 C1204 1.287 . S
C1204 C1203 1.287 . S
C1204 C1205 1.524 . S
C1204 H1223 0.913 . S
C1205 H1181 0.950 . S
C1205 C1204 1.524 . S
C1205 C1206 1.415 . S
C1206 H1182 0.950 . S
C1206 C1201 1.363 . S
C1206 C1205 1.415 . S
C1207 H1183 0.951 . S
C1207 C1208 1.366 . S
C1207 C1209 1.388 . S
C1208 C1207 1.366 . S
C1208 C1212 1.385 . S
C1209 H1184 0.951 . S
C1209 C1207 1.388 . S
C1209 C1210 1.366 . S
C1210 C1209 1.366 . S
C1210 C1211 1.414 . S
C1210 C1213 1.499 1_655 S
C1211 H1185 0.950 . S
C1211 C1210 1.414 . S
C1211 C1212 1.374 . S
C1212 H1186 0.950 . S
C1212 C1208 1.385 . S
C1212 C1211 1.374 . S
C1213 C1210 1.499 1_455 S
C1213 C1214 1.373 . S
C1213 C1215 1.389 . S
C1214 H1187 0.950 . S
C1214 C1200 1.377 . S
C1214 C1213 1.373 . S
C1215 C1199 1.377 . S
C1215 C1213 1.389 . S
C1215 C1216 1.524 . S
C1216 C1215 1.524 . S
C1216 C1217 1.397 1_455 S
C1216 C1221 1.363 . S
C1217 H1188 0.950 . S
C1217 C1216 1.397 1_655 S
C1217 C1218 1.334 . S
C1218 H1189 0.950 . S
C1218 C1217 1.334 . S
C1218 C1219 1.287 . S
C1219 C1218 1.287 . S
C1219 C1220 1.524 1_655 S
C1219 H1222 0.999 . S
C1220 H1190 0.950 . S
C1220 C1219 1.524 1_455 S
C1220 C1221 1.415 . S
C1221 H1191 0.950 . S
C1221 C1216 1.363 . S
C1221 C1220 1.415 . S
H1222 C1219 0.999 . S
H1223 C1204 0.913 . S
H1224 C1242 0.951 . S
H1225 C1244 0.951 . S
H1226 C1246 0.950 . S
H1227 C1247 0.950 . S
H1228 C1249 0.950 . S
H1229 C1252 0.950 . S
H1230 C1253 0.950 . S
H1231 C1255 0.950 . S
H1232 C1256 0.950 . S
H1233 C1257 0.951 . S
H1234 C1259 0.951 . S
H1235 C1261 0.950 . S
H1236 C1262 0.950 . S
H1237 C1264 0.950 . S
H1238 C1267 0.950 . S
H1239 C1268 0.950 . S
H1240 C1270 0.950 . S
H1241 C1271 0.950 . S
C1242 H1224 0.951 . S
C1242 C1243 1.366 . S
C1242 C1244 1.388 . S
C1243 C1242 1.366 . S
C1243 C1247 1.385 . S
C1244 H1225 0.951 . S
C1244 C1242 1.388 . S
C1244 C1245 1.366 . S
C1245 C1244 1.366 . S
C1245 C1246 1.414 . S
C1245 C1248 1.499 1_455 S
C1246 H1226 0.950 . S
C1246 C1245 1.414 . S
C1246 C1247 1.374 . S
C1247 H1227 0.950 . S
C1247 C1243 1.385 . S
C1247 C1246 1.374 . S
C1248 C1245 1.499 1_655 S
C1248 C1249 1.373 . S
C1248 C1250 1.389 . S
C1249 H1228 0.950 . S
C1249 C1248 1.373 . S
C1249 C1265 1.377 . S
C1250 C1248 1.389 . S
C1250 C1251 1.524 . S
C1250 C1264 1.377 . S
C1251 C1250 1.524 . S
C1251 C1252 1.397 1_655 S
C1251 C1256 1.363 . S
C1252 H1229 0.950 . S
C1252 C1251 1.397 1_455 S
C1252 C1253 1.334 . S
C1253 H1230 0.950 . S
C1253 C1252 1.334 . S
C1253 C1254 1.287 . S
C1254 C1253 1.287 . S
C1254 C1255 1.524 1_455 S
C1254 H1273 0.913 . S
C1255 H1231 0.950 . S
C1255 C1254 1.524 1_655 S
C1255 C1256 1.415 . S
C1256 H1232 0.950 . S
C1256 C1251 1.363 . S
C1256 C1255 1.415 . S
C1257 H1233 0.951 . S
C1257 C1258 1.366 . S
C1257 C1259 1.388 . S
C1258 C1257 1.366 . S
C1258 C1262 1.385 . S
C1259 H1234 0.951 . S
C1259 C1257 1.388 . S
C1259 C1260 1.366 . S
C1260 C1259 1.366 . S
C1260 C1261 1.414 . S
C1260 C1263 1.499 . S
C1261 H1235 0.950 . S
C1261 C1260 1.414 . S
C1261 C1262 1.374 . S
C1262 H1236 0.950 . S
C1262 C1258 1.385 . S
C1262 C1261 1.374 . S
C1263 C1260 1.499 . S
C1263 C1264 1.373 . S
C1263 C1265 1.389 . S
C1264 H1237 0.950 . S
C1264 C1250 1.377 . S
C1264 C1263 1.373 . S
C1265 C1249 1.377 . S
C1265 C1263 1.389 . S
C1265 C1266 1.524 . S
C1266 C1265 1.524 . S
C1266 C1267 1.397 . S
C1266 C1271 1.363 . S
C1267 H1238 0.950 . S
C1267 C1266 1.397 . S
C1267 C1268 1.334 . S
C1268 H1239 0.950 . S
C1268 C1267 1.334 . S
C1268 C1269 1.287 . S
C1269 C1268 1.287 . S
C1269 C1270 1.524 . S
C1269 H1272 0.999 1_554 S
C1270 H1240 0.950 . S
C1270 C1269 1.524 . S
C1270 C1271 1.415 . S
C1271 H1241 0.950 . S
C1271 C1266 1.363 . S
C1271 C1270 1.415 . S
H1272 C1269 0.999 1_556 S
H1273 C1254 0.913 . S
H1274 C1292 0.951 . S
H1275 C1294 0.951 . S
H1276 C1296 0.950 . S
H1277 C1297 0.950 . S
H1278 C1299 0.950 . S
H1279 C1302 0.950 . S
H1280 C1303 0.950 . S
H1281 C1305 0.950 . S
H1282 C1306 0.950 . S
H1283 C1307 0.951 . S
H1284 C1309 0.951 . S
H1285 C1311 0.950 . S
H1286 C1312 0.950 . S
H1287 C1314 0.950 . S
H1288 C1317 0.950 . S
H1289 C1318 0.950 . S
H1290 C1320 0.950 . S
H1291 C1321 0.950 . S
C1292 H1274 0.951 . S
C1292 C1293 1.366 . S
C1292 C1294 1.388 . S
C1293 C1292 1.366 . S
C1293 C1297 1.385 . S
C1294 H1275 0.951 . S
C1294 C1292 1.388 . S
C1294 C1295 1.366 . S
C1295 C1294 1.366 . S
C1295 C1296 1.414 . S
C1295 C1298 1.499 . S
C1296 H1276 0.950 . S
C1296 C1295 1.414 . S
C1296 C1297 1.374 . S
C1297 H1277 0.950 . S
C1297 C1293 1.385 . S
C1297 C1296 1.374 . S
C1298 C1295 1.499 . S
C1298 C1299 1.373 . S
C1298 C1300 1.389 . S
C1299 H1278 0.950 . S
C1299 C1298 1.373 . S
C1299 C1315 1.377 . S
C1300 C1298 1.389 . S
C1300 C1301 1.524 . S
C1300 C1314 1.377 . S
C1301 C1300 1.524 . S
C1301 C1302 1.397 . S
C1301 C1306 1.363 . S
C1302 H1279 0.950 . S
C1302 C1301 1.397 . S
C1302 C1303 1.334 . S
C1303 H1280 0.950 . S
C1303 C1302 1.334 . S
C1303 C1304 1.287 . S
C1304 C1303 1.287 . S
C1304 C1305 1.524 . S
C1304 H1323 0.913 . S
C1305 H1281 0.950 . S
C1305 C1304 1.524 . S
C1305 C1306 1.415 . S
C1306 H1282 0.950 . S
C1306 C1301 1.363 . S
C1306 C1305 1.415 . S
C1307 H1283 0.951 . S
C1307 C1308 1.366 . S
C1307 C1309 1.388 . S
C1308 C1307 1.366 . S
C1308 C1312 1.385 . S
C1309 H1284 0.951 . S
C1309 C1307 1.388 . S
C1309 C1310 1.366 . S
C1310 C1309 1.366 . S
C1310 C1311 1.414 . S
C1310 C1313 1.499 . S
C1311 H1285 0.950 . S
C1311 C1310 1.414 . S
C1311 C1312 1.374 . S
C1312 H1286 0.950 . S
C1312 C1308 1.385 . S
C1312 C1311 1.374 . S
C1313 C1310 1.499 . S
C1313 C1314 1.373 . S
C1313 C1315 1.389 . S
C1314 H1287 0.950 . S
C1314 C1300 1.377 . S
C1314 C1313 1.373 . S
C1315 C1299 1.377 . S
C1315 C1313 1.389 . S
C1315 C1316 1.524 . S
C1316 C1315 1.524 . S
C1316 C1317 1.397 . S
C1316 C1321 1.363 . S
C1317 H1288 0.950 . S
C1317 C1316 1.397 . S
C1317 C1318 1.334 . S
C1318 H1289 0.950 . S
C1318 C1317 1.334 . S
C1318 C1319 1.287 . S
C1319 C1318 1.287 . S
C1319 C1320 1.524 . S
C1319 H1322 0.999 . S
C1320 H1290 0.950 . S
C1320 C1319 1.524 . S
C1320 C1321 1.415 . S
C1321 H1291 0.950 . S
C1321 C1316 1.363 . S
C1321 C1320 1.415 . S
H1322 C1319 0.999 . S
H1323 C1304 0.913 . S
H1324 C1342 0.951 . S
H1325 C1344 0.951 . S
H1326 C1346 0.950 . S
H1327 C1347 0.950 . S
H1328 C1349 0.950 . S
H1329 C1352 0.950 . S
H1330 C1353 0.950 . S
H1331 C1355 0.950 . S
H1332 C1356 0.950 . S
H1333 C1357 0.951 . S
H1334 C1359 0.951 . S
H1335 C1361 0.950 . S
H1336 C1362 0.950 . S
H1337 C1364 0.950 . S
H1338 C1367 0.950 . S
H1339 C1368 0.950 . S
H1340 C1370 0.950 . S
H1341 C1371 0.950 . S
C1342 H1324 0.951 . S
C1342 C1343 1.366 . S
C1342 C1344 1.388 . S
C1343 C1342 1.366 . S
C1343 C1347 1.385 . S
C1344 H1325 0.951 . S
C1344 C1342 1.388 . S
C1344 C1345 1.366 . S
C1345 C1344 1.366 . S
C1345 C1346 1.414 . S
C1345 C1348 1.499 1_455 S
C1346 H1326 0.950 . S
C1346 C1345 1.414 . S
C1346 C1347 1.374 . S
C1347 H1327 0.950 . S
C1347 C1343 1.385 . S
C1347 C1346 1.374 . S
C1348 C1345 1.499 1_655 S
C1348 C1349 1.373 . S
C1348 C1350 1.389 . S
C1349 H1328 0.950 . S
C1349 C1348 1.373 . S
C1349 C1365 1.377 . S
C1350 C1348 1.389 . S
C1350 C1351 1.524 . S
C1350 C1364 1.377 . S
C1351 C1350 1.524 . S
C1351 C1352 1.397 1_655 S
C1351 C1356 1.363 . S
C1352 H1329 0.950 . S
C1352 C1351 1.397 1_455 S
C1352 C1353 1.334 . S
C1353 H1330 0.950 . S
C1353 C1352 1.334 . S
C1353 C1354 1.287 . S
C1354 C1353 1.287 . S
C1354 C1355 1.524 1_455 S
C1354 H1373 0.913 . S
C1355 H1331 0.950 . S
C1355 C1354 1.524 1_655 S
C1355 C1356 1.415 . S
C1356 H1332 0.950 . S
C1356 C1351 1.363 . S
C1356 C1355 1.415 . S
C1357 H1333 0.951 . S
C1357 C1358 1.366 . S
C1357 C1359 1.388 . S
C1358 C1357 1.366 . S
C1358 C1362 1.385 . S
C1359 H1334 0.951 . S
C1359 C1357 1.388 . S
C1359 C1360 1.366 . S
C1360 C1359 1.366 . S
C1360 C1361 1.414 . S
C1360 C1363 1.499 . S
C1361 H1335 0.950 . S
C1361 C1360 1.414 . S
C1361 C1362 1.374 . S
C1362 H1336 0.950 . S
C1362 C1358 1.385 . S
C1362 C1361 1.374 . S
C1363 C1360 1.499 . S
C1363 C1364 1.373 . S
C1363 C1365 1.389 . S
C1364 H1337 0.950 . S
C1364 C1350 1.377 . S
C1364 C1363 1.373 . S
C1365 C1349 1.377 . S
C1365 C1363 1.389 . S
C1365 C1366 1.524 . S
C1366 C1365 1.524 . S
C1366 C1367 1.397 . S
C1366 C1371 1.363 . S
C1367 H1338 0.950 . S
C1367 C1366 1.397 . S
C1367 C1368 1.334 . S
C1368 H1339 0.950 . S
C1368 C1367 1.334 . S
C1368 C1369 1.287 . S
C1369 C1368 1.287 . S
C1369 C1370 1.524 . S
C1369 H1372 0.999 . S
C1370 H1340 0.950 . S
C1370 C1369 1.524 . S
C1370 C1371 1.415 . S
C1371 H1341 0.950 . S
C1371 C1366 1.363 . S
C1371 C1370 1.415 . S
H1372 C1369 0.999 . S
H1373 C1354 0.913 . S
H1374 C1392 0.951 . S
H1375 C1394 0.951 . S
H1376 C1396 0.950 . S
H1377 C1397 0.950 . S
H1378 C1399 0.950 . S
H1379 C1402 0.950 . S
H1380 C1403 0.950 . S
H1381 C1405 0.950 . S
H1382 C1406 0.950 . S
H1383 C1407 0.951 . S
H1384 C1409 0.951 . S
H1385 C1411 0.950 . S
H1386 C1412 0.950 . S
H1387 C1414 0.950 . S
H1388 C1417 0.950 . S
H1389 C1418 0.950 . S
H1390 C1420 0.950 . S
H1391 C1421 0.950 . S
C1392 H1374 0.951 . S
C1392 C1393 1.366 . S
C1392 C1394 1.388 . S
C1393 C1392 1.366 . S
C1393 C1397 1.385 . S
C1394 H1375 0.951 . S
C1394 C1392 1.388 . S
C1394 C1395 1.366 . S
C1395 C1394 1.366 . S
C1395 C1396 1.414 . S
C1395 C1398 1.499 . S
C1396 H1376 0.950 . S
C1396 C1395 1.414 . S
C1396 C1397 1.374 . S
C1397 H1377 0.950 . S
C1397 C1393 1.385 . S
C1397 C1396 1.374 . S
C1398 C1395 1.499 . S
C1398 C1399 1.373 . S
C1398 C1400 1.389 . S
C1399 H1378 0.950 . S
C1399 C1398 1.373 . S
C1399 C1415 1.377 . S
C1400 C1398 1.389 . S
C1400 C1401 1.524 . S
C1400 C1414 1.377 . S
C1401 C1400 1.524 . S
C1401 C1402 1.397 . S
C1401 C1406 1.363 . S
C1402 H1379 0.950 . S
C1402 C1401 1.397 . S
C1402 C1403 1.334 . S
C1403 H1380 0.950 . S
C1403 C1402 1.334 . S
C1403 C1404 1.287 . S
C1404 C1403 1.287 . S
C1404 C1405 1.524 . S
C1404 H1423 0.913 . S
C1405 H1381 0.950 . S
C1405 C1404 1.524 . S
C1405 C1406 1.415 . S
C1406 H1382 0.950 . S
C1406 C1401 1.363 . S
C1406 C1405 1.415 . S
C1407 H1383 0.951 . S
C1407 C1408 1.366 . S
C1407 C1409 1.388 . S
C1408 C1407 1.366 . S
C1408 C1412 1.385 . S
C1409 H1384 0.951 . S
C1409 C1407 1.388 . S
C1409 C1410 1.366 . S
C1410 C1409 1.366 . S
C1410 C1411 1.414 . S
C1410 C1413 1.499 . S
C1411 H1385 0.950 . S
C1411 C1410 1.414 . S
C1411 C1412 1.374 . S
C1412 H1386 0.950 . S
C1412 C1408 1.385 . S
C1412 C1411 1.374 . S
C1413 C1410 1.499 . S
C1413 C1414 1.373 . S
C1413 C1415 1.389 . S
C1414 H1387 0.950 . S
C1414 C1400 1.377 . S
C1414 C1413 1.373 . S
C1415 C1399 1.377 . S
C1415 C1413 1.389 . S
C1415 C1416 1.524 . S
C1416 C1415 1.524 . S
C1416 C1417 1.397 . S
C1416 C1421 1.363 . S
C1417 H1388 0.950 . S
C1417 C1416 1.397 . S
C1417 C1418 1.334 . S
C1418 H1389 0.950 . S
C1418 C1417 1.334 . S
C1418 C1419 1.287 . S
C1419 C1418 1.287 . S
C1419 C1420 1.524 . S
C1419 H1422 0.999 . S
C1420 H1390 0.950 . S
C1420 C1419 1.524 . S
C1420 C1421 1.415 . S
C1421 H1391 0.950 . S
C1421 C1416 1.363 . S
C1421 C1420 1.415 . S
H1422 C1419 0.999 . S
H1423 C1404 0.913 . S
H1424 C1442 0.951 . S
H1425 C1444 0.951 . S
H1426 C1446 0.950 . S
H1427 C1447 0.950 . S
H1428 C1449 0.950 . S
H1429 C1452 0.950 . S
H1430 C1453 0.950 . S
H1431 C1455 0.950 . S
H1432 C1456 0.950 . S
H1433 C1457 0.951 . S
H1434 C1459 0.951 . S
H1435 C1461 0.950 . S
H1436 C1462 0.950 . S
H1437 C1464 0.950 . S
H1438 C1467 0.950 . S
H1439 C1468 0.950 . S
H1440 C1470 0.950 . S
H1441 C1471 0.950 . S
C1442 H1424 0.951 . S
C1442 C1443 1.366 . S
C1442 C1444 1.388 . S
C1443 C1442 1.366 . S
C1443 C1447 1.385 . S
C1444 H1425 0.951 . S
C1444 C1442 1.388 . S
C1444 C1445 1.366 . S
C1445 C1444 1.366 . S
C1445 C1446 1.414 . S
C1445 C1448 1.499 . S
C1446 H1426 0.950 . S
C1446 C1445 1.414 . S
C1446 C1447 1.374 . S
C1447 H1427 0.950 . S
C1447 C1443 1.385 . S
C1447 C1446 1.374 . S
C1448 C1445 1.499 . S
C1448 C1449 1.373 . S
C1448 C1450 1.389 . S
C1449 H1428 0.950 . S
C1449 C1448 1.373 . S
C1449 C1465 1.377 . S
C1450 C1448 1.389 . S
C1450 C1451 1.524 . S
C1450 C1464 1.377 . S
C1451 C1450 1.524 . S
C1451 C1452 1.397 . S
C1451 C1456 1.363 . S
C1452 H1429 0.950 . S
C1452 C1451 1.397 . S
C1452 C1453 1.334 . S
C1453 H1430 0.950 . S
C1453 C1452 1.334 . S
C1453 C1454 1.287 . S
C1454 C1453 1.287 . S
C1454 C1455 1.524 . S
C1454 H1473 0.913 . S
C1455 H1431 0.950 . S
C1455 C1454 1.524 . S
C1455 C1456 1.415 . S
C1456 H1432 0.950 . S
C1456 C1451 1.363 . S
C1456 C1455 1.415 . S
C1457 H1433 0.951 . S
C1457 C1458 1.366 . S
C1457 C1459 1.388 . S
C1458 C1457 1.366 . S
C1458 C1462 1.385 . S
C1459 H1434 0.951 . S
C1459 C1457 1.388 . S
C1459 C1460 1.366 . S
C1460 C1459 1.366 . S
C1460 C1461 1.414 . S
C1460 C1463 1.499 . S
C1461 H1435 0.950 . S
C1461 C1460 1.414 . S
C1461 C1462 1.374 . S
C1462 H1436 0.950 . S
C1462 C1458 1.385 . S
C1462 C1461 1.374 . S
C1463 C1460 1.499 . S
C1463 C1464 1.373 . S
C1463 C1465 1.389 . S
C1464 H1437 0.950 . S
C1464 C1450 1.377 . S
C1464 C1463 1.373 . S
C1465 C1449 1.377 . S
C1465 C1463 1.389 . S
C1465 C1466 1.524 . S
C1466 C1465 1.524 . S
C1466 C1467 1.397 . S
C1466 C1471 1.363 . S
C1467 H1438 0.950 . S
C1467 C1466 1.397 . S
C1467 C1468 1.334 . S
C1468 H1439 0.950 . S
C1468 C1467 1.334 . S
C1468 C1469 1.287 . S
C1469 C1468 1.287 . S
C1469 C1470 1.524 . S
C1469 H1472 0.999 . S
C1470 H1440 0.950 . S
C1470 C1469 1.524 . S
C1470 C1471 1.415 . S
C1471 H1441 0.950 . S
C1471 C1466 1.363 . S
C1471 C1470 1.415 . S
H1472 C1469 0.999 . S
H1473 C1454 0.913 . S
H1474 C1492 0.951 . S
H1475 C1494 0.951 . S
H1476 C1496 0.950 . S
H1477 C1497 0.950 . S
H1478 C1499 0.950 . S
H1479 C1502 0.950 . S
H1480 C1503 0.950 . S
H1481 C1505 0.950 . S
H1482 C1506 0.950 . S
H1483 C1507 0.951 . S
H1484 C1509 0.951 . S
H1485 C1511 0.950 . S
H1486 C1512 0.950 . S
H1487 C1514 0.950 . S
H1488 C1517 0.950 . S
H1489 C1518 0.950 . S
H1490 C1520 0.950 . S
H1491 C1521 0.950 . S
C1492 H1474 0.951 . S
C1492 C1493 1.366 . S
C1492 C1494 1.388 . S
C1493 C1492 1.366 . S
C1493 C1497 1.385 . S
C1494 H1475 0.951 . S
C1494 C1492 1.388 . S
C1494 C1495 1.366 . S
C1495 C1494 1.366 . S
C1495 C1496 1.414 . S
C1495 C1498 1.499 . S
C1496 H1476 0.950 . S
C1496 C1495 1.414 . S
C1496 C1497 1.374 . S
C1497 H1477 0.950 . S
C1497 C1493 1.385 . S
C1497 C1496 1.374 . S
C1498 C1495 1.499 . S
C1498 C1499 1.373 . S
C1498 C1500 1.389 . S
C1499 H1478 0.950 . S
C1499 C1498 1.373 . S
C1499 C1515 1.377 . S
C1500 C1498 1.389 . S
C1500 C1501 1.524 . S
C1500 C1514 1.377 . S
C1501 C1500 1.524 . S
C1501 C1502 1.397 . S
C1501 C1506 1.363 . S
C1502 H1479 0.950 . S
C1502 C1501 1.397 . S
C1502 C1503 1.334 . S
C1503 H1480 0.950 . S
C1503 C1502 1.334 . S
C1503 C1504 1.287 . S
C1504 C1503 1.287 . S
C1504 C1505 1.524 . S
C1504 H1523 0.913 . S
C1505 H1481 0.950 . S
C1505 C1504 1.524 . S
C1505 C1506 1.415 . S
C1506 H1482 0.950 . S
C1506 C1501 1.363 . S
C1506 C1505 1.415 . S
C1507 H1483 0.951 . S
C1507 C1508 1.366 . S
C1507 C1509 1.388 . S
C1508 C1507 1.366 . S
C1508 C1512 1.385 . S
C1509 H1484 0.951 . S
C1509 C1507 1.388 . S
C1509 C1510 1.366 . S
C1510 C1509 1.366 . S
C1510 C1511 1.414 . S
C1510 C1513 1.499 . S
C1511 H1485 0.950 . S
C1511 C1510 1.414 . S
C1511 C1512 1.374 . S
C1512 H1486 0.950 . S
C1512 C1508 1.385 . S
C1512 C1511 1.374 . S
C1513 C1510 1.499 . S
C1513 C1514 1.373 . S
C1513 C1515 1.389 . S
C1514 H1487 0.950 . S
C1514 C1500 1.377 . S
C1514 C1513 1.373 . S
C1515 C1499 1.377 . S
C1515 C1513 1.389 . S
C1515 C1516 1.524 . S
C1516 C1515 1.524 . S
C1516 C1517 1.397 . S
C1516 C1521 1.363 . S
C1517 H1488 0.950 . S
C1517 C1516 1.397 . S
C1517 C1518 1.334 . S
C1518 H1489 0.950 . S
C1518 C1517 1.334 . S
C1518 C1519 1.287 . S
C1519 C1518 1.287 . S
C1519 C1520 1.524 . S
C1519 H1522 0.999 . S
C1520 H1490 0.950 . S
C1520 C1519 1.524 . S
C1520 C1521 1.415 . S
C1521 H1491 0.950 . S
C1521 C1516 1.363 . S
C1521 C1520 1.415 . S
H1522 C1519 0.999 . S
H1523 C1504 0.913 . S
H1524 C1542 0.951 . S
H1525 C1544 0.951 . S
H1526 C1546 0.950 . S
H1527 C1547 0.950 . S
H1528 C1549 0.950 . S
H1529 C1552 0.950 . S
H1530 C1553 0.950 . S
H1531 C1555 0.950 . S
H1532 C1556 0.950 . S
H1533 C1557 0.951 . S
H1534 C1559 0.951 . S
H1535 C1561 0.950 . S
H1536 C1562 0.950 . S
H1537 C1564 0.950 . S
H1538 C1567 0.950 . S
H1539 C1568 0.950 . S
H1540 C1570 0.950 . S
H1541 C1571 0.950 . S
C1542 H1524 0.951 . S
C1542 C1543 1.366 . S
C1542 C1544 1.388 . S
C1543 C1542 1.366 . S
C1543 C1547 1.385 . S
C1544 H1525 0.951 . S
C1544 C1542 1.388 . S
C1544 C1545 1.366 . S
C1545 C1544 1.366 . S
C1545 C1546 1.414 . S
C1545 C1548 1.499 . S
C1546 H1526 0.950 . S
C1546 C1545 1.414 . S
C1546 C1547 1.374 . S
C1547 H1527 0.950 . S
C1547 C1543 1.385 . S
C1547 C1546 1.374 . S
C1548 C1545 1.499 . S
C1548 C1549 1.373 . S
C1548 C1550 1.389 . S
C1549 H1528 0.950 . S
C1549 C1548 1.373 . S
C1549 C1565 1.377 . S
C1550 C1548 1.389 . S
C1550 C1551 1.524 . S
C1550 C1564 1.377 . S
C1551 C1550 1.524 . S
C1551 C1552 1.397 . S
C1551 C1556 1.363 . S
C1552 H1529 0.950 . S
C1552 C1551 1.397 . S
C1552 C1553 1.334 . S
C1553 H1530 0.950 . S
C1553 C1552 1.334 . S
C1553 C1554 1.287 . S
C1554 C1553 1.287 . S
C1554 C1555 1.524 . S
C1554 H1573 0.913 . S
C1555 H1531 0.950 . S
C1555 C1554 1.524 . S
C1555 C1556 1.415 . S
C1556 H1532 0.950 . S
C1556 C1551 1.363 . S
C1556 C1555 1.415 . S
C1557 H1533 0.951 . S
C1557 C1558 1.366 . S
C1557 C1559 1.388 . S
C1558 C1557 1.366 . S
C1558 C1562 1.385 . S
C1559 H1534 0.951 . S
C1559 C1557 1.388 . S
C1559 C1560 1.366 . S
C1560 C1559 1.366 . S
C1560 C1561 1.414 . S
C1560 C1563 1.499 . S
C1561 H1535 0.950 . S
C1561 C1560 1.414 . S
C1561 C1562 1.374 . S
C1562 H1536 0.950 . S
C1562 C1558 1.385 . S
C1562 C1561 1.374 . S
C1563 C1560 1.499 . S
C1563 C1564 1.373 . S
C1563 C1565 1.389 . S
C1564 H1537 0.950 . S
C1564 C1550 1.377 . S
C1564 C1563 1.373 . S
C1565 C1549 1.377 . S
C1565 C1563 1.389 . S
C1565 C1566 1.524 . S
C1566 C1565 1.524 . S
C1566 C1567 1.397 . S
C1566 C1571 1.363 . S
C1567 H1538 0.950 . S
C1567 C1566 1.397 . S
C1567 C1568 1.334 . S
C1568 H1539 0.950 . S
C1568 C1567 1.334 . S
C1568 C1569 1.287 . S
C1569 C1568 1.287 . S
C1569 C1570 1.524 . S
C1569 H1572 0.999 . S
C1570 H1540 0.950 . S
C1570 C1569 1.524 . S
C1570 C1571 1.415 . S
C1571 H1541 0.950 . S
C1571 C1566 1.363 . S
C1571 C1570 1.415 . S
H1572 C1569 0.999 . S
H1573 C1554 0.913 . S
H1574 C1592 0.951 . S
H1575 C1594 0.951 . S
H1576 C1596 0.950 . S
H1577 C1597 0.950 . S
H1578 C1599 0.950 . S
H1579 C1602 0.950 . S
H1580 C1603 0.950 . S
H1581 C1605 0.950 . S
H1582 C1606 0.950 . S
H1583 C1607 0.951 . S
H1584 C1609 0.951 . S
H1585 C1611 0.950 . S
H1586 C1612 0.950 . S
H1587 C1614 0.950 . S
H1588 C1617 0.950 . S
H1589 C1618 0.950 . S
H1590 C1620 0.950 . S
H1591 C1621 0.950 . S
C1592 H1574 0.951 . S
C1592 C1593 1.366 . S
C1592 C1594 1.388 . S
C1593 C1592 1.366 . S
C1593 C1597 1.385 . S
C1594 H1575 0.951 . S
C1594 C1592 1.388 . S
C1594 C1595 1.366 . S
C1595 C1594 1.366 . S
C1595 C1596 1.414 . S
C1595 C1598 1.499 . S
C1596 H1576 0.950 . S
C1596 C1595 1.414 . S
C1596 C1597 1.374 . S
C1597 H1577 0.950 . S
C1597 C1593 1.385 . S
C1597 C1596 1.374 . S
C1598 C1595 1.499 . S
C1598 C1599 1.373 . S
C1598 C1600 1.389 . S
C1599 H1578 0.950 . S
C1599 C1598 1.373 . S
C1599 C1615 1.377 . S
C1600 C1598 1.389 . S
C1600 C1601 1.524 . S
C1600 C1614 1.377 . S
C1601 C1600 1.524 . S
C1601 C1602 1.397 . S
C1601 C1606 1.363 . S
C1602 H1579 0.950 . S
C1602 C1601 1.397 . S
C1602 C1603 1.334 . S
C1603 H1580 0.950 . S
C1603 C1602 1.334 . S
C1603 C1604 1.287 . S
C1604 C1603 1.287 . S
C1604 C1605 1.524 . S
C1604 H1623 0.913 . S
C1605 H1581 0.950 . S
C1605 C1604 1.524 . S
C1605 C1606 1.415 . S
C1606 H1582 0.950 . S
C1606 C1601 1.363 . S
C1606 C1605 1.415 . S
C1607 H1583 0.951 . S
C1607 C1608 1.366 . S
C1607 C1609 1.388 . S
C1608 C1607 1.366 . S
C1608 C1612 1.385 . S
C1609 H1584 0.951 . S
C1609 C1607 1.388 . S
C1609 C1610 1.366 . S
C1610 C1609 1.366 . S
C1610 C1611 1.414 . S
C1610 C1613 1.499 . S
C1611 H1585 0.950 . S
C1611 C1610 1.414 . S
C1611 C1612 1.374 . S
C1612 H1586 0.950 . S
C1612 C1608 1.385 . S
C1612 C1611 1.374 . S
C1613 C1610 1.499 . S
C1613 C1614 1.373 . S
C1613 C1615 1.389 . S
C1614 H1587 0.950 . S
C1614 C1600 1.377 . S
C1614 C1613 1.373 . S
C1615 C1599 1.377 . S
C1615 C1613 1.389 . S
C1615 C1616 1.524 . S
C1616 C1615 1.524 . S
C1616 C1617 1.397 . S
C1616 C1621 1.363 . S
C1617 H1588 0.950 . S
C1617 C1616 1.397 . S
C1617 C1618 1.334 . S
C1618 H1589 0.950 . S
C1618 C1617 1.334 . S
C1618 C1619 1.287 . S
C1619 C1618 1.287 . S
C1619 C1620 1.524 . S
C1619 H1622 0.999 . S
C1620 H1590 0.950 . S
C1620 C1619 1.524 . S
C1620 C1621 1.415 . S
C1621 H1591 0.950 . S
C1621 C1616 1.363 . S
C1621 C1620 1.415 . S
H1622 C1619 0.999 . S
H1623 C1604 0.913 . S
H1624 C1642 0.951 . S
H1625 C1644 0.951 . S
H1626 C1646 0.950 . S
H1627 C1647 0.950 . S
H1628 C1649 0.950 . S
H1629 C1652 0.950 . S
H1630 C1653 0.950 . S
H1631 C1655 0.950 . S
H1632 C1656 0.950 . S
H1633 C1657 0.951 . S
H1634 C1659 0.951 . S
H1635 C1661 0.950 . S
H1636 C1662 0.950 . S
H1637 C1664 0.950 . S
H1638 C1667 0.950 . S
H1639 C1668 0.950 . S
H1640 C1670 0.950 . S
H1641 C1671 0.950 . S
C1642 H1624 0.951 . S
C1642 C1643 1.366 . S
C1642 C1644 1.388 . S
C1643 C1642 1.366 . S
C1643 C1647 1.385 . S
C1644 H1625 0.951 . S
C1644 C1642 1.388 . S
C1644 C1645 1.366 . S
C1645 C1644 1.366 . S
C1645 C1646 1.414 . S
C1645 C1648 1.499 . S
C1646 H1626 0.950 . S
C1646 C1645 1.414 . S
C1646 C1647 1.374 . S
C1647 H1627 0.950 . S
C1647 C1643 1.385 . S
C1647 C1646 1.374 . S
C1648 C1645 1.499 . S
C1648 C1649 1.373 . S
C1648 C1650 1.389 . S
C1649 H1628 0.950 . S
C1649 C1648 1.373 . S
C1649 C1665 1.377 . S
C1650 C1648 1.389 . S
C1650 C1651 1.524 . S
C1650 C1664 1.377 . S
C1651 C1650 1.524 . S
C1651 C1652 1.397 . S
C1651 C1656 1.363 . S
C1652 H1629 0.950 . S
C1652 C1651 1.397 . S
C1652 C1653 1.334 . S
C1653 H1630 0.950 . S
C1653 C1652 1.334 . S
C1653 C1654 1.287 . S
C1654 C1653 1.287 . S
C1654 C1655 1.524 . S
C1654 H1673 0.913 . S
C1655 H1631 0.950 . S
C1655 C1654 1.524 . S
C1655 C1656 1.415 . S
C1656 H1632 0.950 . S
C1656 C1651 1.363 . S
C1656 C1655 1.415 . S
C1657 H1633 0.951 . S
C1657 C1658 1.366 . S
C1657 C1659 1.388 . S
C1658 C1657 1.366 . S
C1658 C1662 1.385 . S
C1659 H1634 0.951 . S
C1659 C1657 1.388 . S
C1659 C1660 1.366 . S
C1660 C1659 1.366 . S
C1660 C1661 1.414 . S
C1660 C1663 1.499 . S
C1661 H1635 0.950 . S
C1661 C1660 1.414 . S
C1661 C1662 1.374 . S
C1662 H1636 0.950 . S
C1662 C1658 1.385 . S
C1662 C1661 1.374 . S
C1663 C1660 1.499 . S
C1663 C1664 1.373 . S
C1663 C1665 1.389 . S
C1664 H1637 0.950 . S
C1664 C1650 1.377 . S
C1664 C1663 1.373 . S
C1665 C1649 1.377 . S
C1665 C1663 1.389 . S
C1665 C1666 1.524 . S
C1666 C1665 1.524 . S
C1666 C1667 1.397 . S
C1666 C1671 1.363 . S
C1667 H1638 0.950 . S
C1667 C1666 1.397 . S
C1667 C1668 1.334 . S
C1668 H1639 0.950 . S
C1668 C1667 1.334 . S
C1668 C1669 1.287 . S
C1669 C1668 1.287 . S
C1669 C1670 1.524 . S
C1669 H1672 0.999 . S
C1670 H1640 0.950 . S
C1670 C1669 1.524 . S
C1670 C1671 1.415 . S
C1671 H1641 0.950 . S
C1671 C1666 1.363 . S
C1671 C1670 1.415 . S
H1672 C1669 0.999 . S
H1673 C1654 0.913 . S
H1674 C1692 0.951 . S
H1675 C1694 0.951 . S
H1676 C1696 0.950 . S
H1677 C1697 0.950 . S
H1678 C1699 0.950 . S
H1679 C1702 0.950 . S
H1680 C1703 0.950 . S
H1681 C1705 0.950 . S
H1682 C1706 0.950 . S
H1683 C1707 0.951 . S
H1684 C1709 0.951 . S
H1685 C1711 0.950 . S
H1686 C1712 0.950 . S
H1687 C1714 0.950 . S
H1688 C1717 0.950 . S
H1689 C1718 0.950 . S
H1690 C1720 0.950 . S
H1691 C1721 0.950 . S
C1692 H1674 0.951 . S
C1692 C1693 1.366 . S
C1692 C1694 1.388 . S
C1693 C1692 1.366 . S
C1693 C1697 1.385 . S
C1694 H1675 0.951 . S
C1694 C1692 1.388 . S
C1694 C1695 1.366 . S
C1695 C1694 1.366 . S
C1695 C1696 1.414 . S
C1695 C1698 1.499 . S
C1696 H1676 0.950 . S
C1696 C1695 1.414 . S
C1696 C1697 1.374 . S
C1697 H1677 0.950 . S
C1697 C1693 1.385 . S
C1697 C1696 1.374 . S
C1698 C1695 1.499 . S
C1698 C1699 1.373 . S
C1698 C1700 1.389 . S
C1699 H1678 0.950 . S
C1699 C1698 1.373 . S
C1699 C1715 1.377 . S
C1700 C1698 1.389 . S
C1700 C1701 1.524 . S
C1700 C1714 1.377 . S
C1701 C1700 1.524 . S
C1701 C1702 1.397 . S
C1701 C1706 1.363 . S
C1702 H1679 0.950 . S
C1702 C1701 1.397 . S
C1702 C1703 1.334 . S
C1703 H1680 0.950 . S
C1703 C1702 1.334 . S
C1703 C1704 1.287 . S
C1704 C1703 1.287 . S
C1704 C1705 1.524 . S
C1704 H1723 0.913 . S
C1705 H1681 0.950 . S
C1705 C1704 1.524 . S
C1705 C1706 1.415 . S
C1706 H1682 0.950 . S
C1706 C1701 1.363 . S
C1706 C1705 1.415 . S
C1707 H1683 0.951 . S
C1707 C1708 1.366 . S
C1707 C1709 1.388 . S
C1708 C1707 1.366 . S
C1708 C1712 1.385 . S
C1709 H1684 0.951 . S
C1709 C1707 1.388 . S
C1709 C1710 1.366 . S
C1710 C1709 1.366 . S
C1710 C1711 1.414 . S
C1710 C1713 1.499 . S
C1711 H1685 0.950 . S
C1711 C1710 1.414 . S
C1711 C1712 1.374 . S
C1712 H1686 0.950 . S
C1712 C1708 1.385 . S
C1712 C1711 1.374 . S
C1713 C1710 1.499 . S
C1713 C1714 1.373 . S
C1713 C1715 1.389 . S
C1714 H1687 0.950 . S
C1714 C1700 1.377 . S
C1714 C1713 1.373 . S
C1715 C1699 1.377 . S
C1715 C1713 1.389 . S
C1715 C1716 1.524 . S
C1716 C1715 1.524 . S
C1716 C1717 1.397 . S
C1716 C1721 1.363 . S
C1717 H1688 0.950 . S
C1717 C1716 1.397 . S
C1717 C1718 1.334 . S
C1718 H1689 0.950 . S
C1718 C1717 1.334 . S
C1718 C1719 1.287 . S
C1719 C1718 1.287 . S
C1719 C1720 1.524 . S
C1719 H1722 0.999 . S
C1720 H1690 0.950 . S
C1720 C1719 1.524 . S
C1720 C1721 1.415 . S
C1721 H1691 0.950 . S
C1721 C1716 1.363 . S
C1721 C1720 1.415 . S
H1722 C1719 0.999 . S
H1723 C1704 0.913 . S
H1724 C1742 0.951 . S
H1725 C1744 0.951 . S
H1726 C1746 0.950 . S
H1727 C1747 0.950 . S
H1728 C1749 0.950 . S
H1729 C1752 0.950 . S
H1730 C1753 0.950 . S
H1731 C1755 0.950 . S
H1732 C1756 0.950 . S
H1733 C1757 0.951 . S
H1734 C1759 0.951 . S
H1735 C1761 0.950 . S
H1736 C1762 0.950 . S
H1737 C1764 0.950 . S
H1738 C1767 0.950 . S
H1739 C1768 0.950 . S
H1740 C1770 0.950 . S
H1741 C1771 0.950 . S
C1742 H1724 0.951 . S
C1742 C1743 1.366 . S
C1742 C1744 1.388 . S
C1743 C1742 1.366 . S
C1743 C1747 1.385 . S
C1744 H1725 0.951 . S
C1744 C1742 1.388 . S
C1744 C1745 1.366 . S
C1745 C1744 1.366 . S
C1745 C1746 1.414 . S
C1745 C1748 1.499 . S
C1746 H1726 0.950 . S
C1746 C1745 1.414 . S
C1746 C1747 1.374 . S
C1747 H1727 0.950 . S
C1747 C1743 1.385 . S
C1747 C1746 1.374 . S
C1748 C1745 1.499 . S
C1748 C1749 1.373 . S
C1748 C1750 1.389 . S
C1749 H1728 0.950 . S
C1749 C1748 1.373 . S
C1749 C1765 1.377 . S
C1750 C1748 1.389 . S
C1750 C1751 1.524 . S
C1750 C1764 1.377 . S
C1751 C1750 1.524 . S
C1751 C1752 1.397 . S
C1751 C1756 1.363 . S
C1752 H1729 0.950 . S
C1752 C1751 1.397 . S
C1752 C1753 1.334 . S
C1753 H1730 0.950 . S
C1753 C1752 1.334 . S
C1753 C1754 1.287 . S
C1754 C1753 1.287 . S
C1754 C1755 1.524 . S
C1754 H1773 0.913 . S
C1755 H1731 0.950 . S
C1755 C1754 1.524 . S
C1755 C1756 1.415 . S
C1756 H1732 0.950 . S
C1756 C1751 1.363 . S
C1756 C1755 1.415 . S
C1757 H1733 0.951 . S
C1757 C1758 1.366 . S
C1757 C1759 1.388 . S
C1758 C1757 1.366 . S
C1758 C1762 1.385 . S
C1759 H1734 0.951 . S
C1759 C1757 1.388 . S
C1759 C1760 1.366 . S
C1760 C1759 1.366 . S
C1760 C1761 1.414 . S
C1760 C1763 1.499 . S
C1761 H1735 0.950 . S
C1761 C1760 1.414 . S
C1761 C1762 1.374 . S
C1762 H1736 0.950 . S
C1762 C1758 1.385 . S
C1762 C1761 1.374 . S
C1763 C1760 1.499 . S
C1763 C1764 1.373 . S
C1763 C1765 1.389 . S
C1764 H1737 0.950 . S
C1764 C1750 1.377 . S
C1764 C1763 1.373 . S
C1765 C1749 1.377 . S
C1765 C1763 1.389 . S
C1765 C1766 1.524 . S
C1766 C1765 1.524 . S
C1766 C1767 1.397 . S
C1766 C1771 1.363 . S
C1767 H1738 0.950 . S
C1767 C1766 1.397 . S
C1767 C1768 1.334 . S
C1768 H1739 0.950 . S
C1768 C1767 1.334 . S
C1768 C1769 1.287 . S
C1769 C1768 1.287 . S
C1769 C1770 1.524 . S
C1769 H1772 0.999 . S
C1770 H1740 0.950 . S
C1770 C1769 1.524 . S
C1770 C1771 1.415 . S
C1771 H1741 0.950 . S
C1771 C1766 1.363 . S
C1771 C1770 1.415 . S
H1772 C1769 0.999 . S
H1773 C1754 0.913 . S
H1774 C1792 0.951 . S
H1775 C1794 0.951 . S
H1776 C1796 0.950 . S
H1777 C1797 0.950 . S
H1778 C1799 0.950 . S
H1779 C1802 0.950 . S
H1780 C1803 0.950 . S
H1781 C1805 0.950 . S
H1782 C1806 0.950 . S
H1783 C1807 0.951 . S
H1784 C1809 0.951 . S
H1785 C1811 0.950 . S
H1786 C1812 0.950 . S
H1787 C1814 0.950 . S
H1788 C1817 0.950 . S
H1789 C1818 0.950 . S
H1790 C1820 0.950 . S
H1791 C1821 0.950 . S
C1792 H1774 0.951 . S
C1792 C1793 1.366 . S
C1792 C1794 1.388 . S
C1793 C1792 1.366 . S
C1793 C1797 1.385 . S
C1794 H1775 0.951 . S
C1794 C1792 1.388 . S
C1794 C1795 1.366 . S
C1795 C1794 1.366 . S
C1795 C1796 1.414 . S
C1795 C1798 1.499 . S
C1796 H1776 0.950 . S
C1796 C1795 1.414 . S
C1796 C1797 1.374 . S
C1797 H1777 0.950 . S
C1797 C1793 1.385 . S
C1797 C1796 1.374 . S
C1798 C1795 1.499 . S
C1798 C1799 1.373 . S
C1798 C1800 1.389 . S
C1799 H1778 0.950 . S
C1799 C1798 1.373 . S
C1799 C1815 1.377 . S
C1800 C1798 1.389 . S
C1800 C1801 1.524 . S
C1800 C1814 1.377 . S
C1801 C1800 1.524 . S
C1801 C1802 1.397 . S
C1801 C1806 1.363 . S
C1802 H1779 0.950 . S
C1802 C1801 1.397 . S
C1802 C1803 1.334 . S
C1803 H1780 0.950 . S
C1803 C1802 1.334 . S
C1803 C1804 1.287 . S
C1804 C1803 1.287 . S
C1804 C1805 1.524 . S
C1804 H1823 0.913 . S
C1805 H1781 0.950 . S
C1805 C1804 1.524 . S
C1805 C1806 1.415 . S
C1806 H1782 0.950 . S
C1806 C1801 1.363 . S
C1806 C1805 1.415 . S
C1807 H1783 0.951 . S
C1807 C1808 1.366 . S
C1807 C1809 1.388 . S
C1808 C1807 1.366 . S
C1808 C1812 1.385 . S
C1809 H1784 0.951 . S
C1809 C1807 1.388 . S
C1809 C1810 1.366 . S
C1810 C1809 1.366 . S
C1810 C1811 1.414 . S
C1810 C1813 1.499 . S
C1811 H1785 0.950 . S
C1811 C1810 1.414 . S
C1811 C1812 1.374 . S
C1812 H1786 0.950 . S
C1812 C1808 1.385 . S
C1812 C1811 1.374 . S
C1813 C1810 1.499 . S
C1813 C1814 1.373 . S
C1813 C1815 1.389 . S
C1814 H1787 0.950 . S
C1814 C1800 1.377 . S
C1814 C1813 1.373 . S
C1815 C1799 1.377 . S
C1815 C1813 1.389 . S
C1815 C1816 1.524 . S
C1816 C1815 1.524 . S
C1816 C1817 1.397 . S
C1816 C1821 1.363 . S
C1817 H1788 0.950 . S
C1817 C1816 1.397 . S
C1817 C1818 1.334 . S
C1818 H1789 0.950 . S
C1818 C1817 1.334 . S
C1818 C1819 1.287 . S
C1819 C1818 1.287 . S
C1819 C1820 1.524 . S
C1819 H1822 0.999 . S
C1820 H1790 0.950 . S
C1820 C1819 1.524 . S
C1820 C1821 1.415 . S
C1821 H1791 0.950 . S
C1821 C1816 1.363 . S
C1821 C1820 1.415 . S
H1822 C1819 0.999 . S
H1823 C1804 0.913 . S
C243 C8 1.491 . S
C258 C175 1.464 . S
C293 C189 1.464 . S
C308 C22 1.491 . S
C343 C36 1.491 . S
C358 C203 1.464 . S
C393 C217 1.465 . S
C408 C50 1.491 . S
C443 C120 1.491 . S
C458 C63 1.465 . S
C493 C77 1.464 . S
C508 C134 1.491 . S
C543 C148 1.491 . S
C558 C91 1.464 . S
C593 C105 1.465 . S
C608 C162 1.491 . S
C643 C3 1.511 . S
C658 C31 1.511 . S
C693 C17 1.511 . S
C708 C45 1.511 . S
C743 C59 1.538 . S
C758 C87 1.538 . S
C793 C73 1.538 . S
C808 C101 1.538 . S
C843 C143 1.511 . S
C858 C115 1.511 . S
C893 C129 1.511 . S
C908 C157 1.511 . S
C943 C199 1.538 . S
C958 C171 1.538 . S
C993 C185 1.538 . S
C1008 C213 1.538 . S
C1043 C93 1.514 . S
C1058 C9 1.523 . S
C1093 C107 1.514 . S
C1108 C23 1.523 . S
C1143 C37 1.523 . S
C1158 C65 1.514 . S
C1193 C51 1.523 . S
C1208 C79 1.514 . S
C1243 C205 1.514 . S
C1258 C121 1.523 . S
C1293 C135 1.523 . S
C1308 C219 1.514 . S
C1343 C177 1.514 . S
C1358 C149 1.523 . S
C1393 C163 1.523 . S
C1408 C191 1.514 . S
C1443 C7 1.206 . S
C1458 C49 1.206 . S
C1493 C35 1.206 . S
C1508 C21 1.207 . S
C1543 C64 1.663 . S
C1558 C106 1.663 . S
C1593 C78 1.663 . S
C1608 C92 1.663 . S
C1643 C161 1.207 . S
C1658 C119 1.206 . S
C1693 C133 1.206 . S
C1708 C147 1.206 . S
C1743 C218 1.663 . S
C1758 C176 1.663 . S
C1793 C190 1.663 . S
C1808 C204 1.663 . S
