# Generated by pormake.
# Topology rac, (4)-cn, num edge types: 1
# Building blocks:
#     Node 0, Type 0, BuildingBlock: CEKHIL_clean_sbu_0, # of connection points: 4
#     Node 1, Type 0, BuildingBlock: CEKHIL_clean_sbu_0, # of connection points: 4
#     Node 2, Type 0, BuildingBlock: CEKHIL_clean_sbu_0, # of connection points: 4
#     Node 3, Type 0, BuildingBlock: CEKHIL_clean_sbu_0, # of connection points: 4
#     Node 4, Type 0, BuildingBlock: CEKHIL_clean_sbu_0, # of connection points: 4
#     Node 5, Type 0, BuildingBlock: CEKHIL_clean_sbu_0, # of connection points: 4
#     Node 6, Type 0, BuildingBlock: CEKHIL_clean_sbu_0, # of connection points: 4
#     Node 7, Type 0, BuildingBlock: CEKHIL_clean_sbu_0, # of connection points: 4
#     Edge 8, Type (0, 0), BuildingBlock: KIFKEQ_clean_linker_1, # of connection points: 2
#     Edge 9, Type (0, 0), BuildingBlock: KIFKEQ_clean_linker_1, # of connection points: 2
#     Edge 10, Type (0, 0), BuildingBlock: KIFKEQ_clean_linker_1, # of connection points: 2
#     Edge 11, Type (0, 0), BuildingBlock: KIFKEQ_clean_linker_1, # of connection points: 2
#     Edge 12, Type (0, 0), BuildingBlock: KIFKEQ_clean_linker_1, # of connection points: 2
#     Edge 13, Type (0, 0), BuildingBlock: KIFKEQ_clean_linker_1, # of connection points: 2
#     Edge 14, Type (0, 0), BuildingBlock: KIFKEQ_clean_linker_1, # of connection points: 2
#     Edge 15, Type (0, 0), BuildingBlock: KIFKEQ_clean_linker_1, # of connection points: 2
#     Edge 16, Type (0, 0), BuildingBlock: KIFKEQ_clean_linker_1, # of connection points: 2
#     Edge 17, Type (0, 0), BuildingBlock: KIFKEQ_clean_linker_1, # of connection points: 2
#     Edge 18, Type (0, 0), BuildingBlock: KIFKEQ_clean_linker_1, # of connection points: 2
#     Edge 19, Type (0, 0), BuildingBlock: KIFKEQ_clean_linker_1, # of connection points: 2
#     Edge 20, Type (0, 0), BuildingBlock: KIFKEQ_clean_linker_1, # of connection points: 2
#     Edge 21, Type (0, 0), BuildingBlock: KIFKEQ_clean_linker_1, # of connection points: 2
#     Edge 22, Type (0, 0), BuildingBlock: KIFKEQ_clean_linker_1, # of connection points: 2
#     Edge 23, Type (0, 0), BuildingBlock: KIFKEQ_clean_linker_1, # of connection points: 2
# Relax obj value: 0.229
# Max RMSD: 0.071
# Mean RMSD: 0.071
data_MOF--net-rac--node1-CEKHIL_clean_sbu_0--edge1-KIFKEQ_clean_linker_1
_symmetry_space_group_name_H-M    P1
_symmetry_Int_Tables_number       1
_symmetry_cell_setting            triclinic
loop_
_symmetry_equiv_pos_as_xyz
'x, y, z'
_cell_length_a     41.350704
_cell_length_b     21.459643
_cell_length_c     36.50068
_cell_angle_alpha  89.976303
_cell_angle_beta   89.979594
_cell_angle_gamma 90.024346
loop_
_atom_site_label
_atom_site_type_symbol
_atom_site_fract_x
_atom_site_fract_y
_atom_site_fract_z
_atom_type_partial_charge
Co0 Co 0.37588 0.30138 0.04842 0.0
O1 O 0.39975 0.37715 0.05502 0.0
O2 O 0.41306 0.3052 0.01478 0.0
C3 C 0.37222 0.28125 0.10895 0.0
O4 O 0.35463 0.21647 0.03594 0.0
Co5 Co 0.30628 0.29771 0.08079 0.0
O6 O 0.31281 0.2074 0.07539 0.0
C7 C 0.31785 0.35522 0.00842 0.0
C8 C 0.41917 0.3595 0.02942 0.0
C9 C 0.3316 0.18467 0.05125 0.0
O10 O 0.34816 0.34349 0.01085 0.0
O11 O 0.29733 0.34248 0.0336 0.0
O12 O 0.39757 0.26433 0.09047 0.0
O13 O 0.35128 0.3138 0.09099 0.0
Co14 Co 0.14431 0.71475 0.04887 0.0
O15 O 0.12096 0.6383 0.05542 0.0
O16 O 0.10781 0.70918 0.01442 0.0
C17 C 0.14647 0.73504 0.10932 0.0
O18 O 0.16477 0.80046 0.03641 0.0
Co19 Co 0.21314 0.72324 0.08257 0.0
O20 O 0.2048 0.81304 0.07768 0.0
C21 C 0.20384 0.66485 0.01003 0.0
C22 C 0.10155 0.65544 0.02969 0.0
C23 C 0.18659 0.83413 0.05251 0.0
O24 O 0.17324 0.67371 0.01208 0.0
O25 O 0.22376 0.67972 0.03542 0.0
O26 O 0.12129 0.75073 0.09025 0.0
O27 O 0.16837 0.70378 0.09205 0.0
Co28 Co 0.37685 0.21301 0.44303 0.0
O29 O 0.40029 0.13699 0.43552 0.0
O30 O 0.41403 0.20742 0.47651 0.0
C31 C 0.37311 0.2351 0.38275 0.0
O32 O 0.35611 0.29781 0.45664 0.0
Co33 Co 0.30721 0.21988 0.41094 0.0
O34 O 0.31488 0.30982 0.41678 0.0
C35 C 0.31847 0.15979 0.48266 0.0
C36 C 0.41982 0.15347 0.46129 0.0
C37 C 0.33355 0.33098 0.44151 0.0
O38 O 0.3489 0.17031 0.48019 0.0
O39 O 0.29799 0.1742 0.45777 0.0
O40 O 0.39864 0.25094 0.40125 0.0
O41 O 0.35202 0.20254 0.4005 0.0
Co42 Co 0.1432 0.79273 0.44459 0.0
O43 O 0.11924 0.86808 0.43674 0.0
O44 O 0.10697 0.79924 0.47932 0.0
C45 C 0.14529 0.76889 0.38458 0.0
O46 O 0.16433 0.70841 0.45858 0.0
Co47 Co 0.21199 0.78439 0.41048 0.0
O48 O 0.2044 0.6947 0.41742 0.0
C49 C 0.20256 0.8466 0.48188 0.0
C50 C 0.10024 0.85194 0.46311 0.0
C51 C 0.18639 0.67453 0.44305 0.0
O52 O 0.17203 0.8367 0.48028 0.0
O53 O 0.22247 0.83093 0.45665 0.0
O54 O 0.12026 0.75368 0.40409 0.0
O55 O 0.16699 0.80177 0.4011 0.0
Co56 Co 0.64613 0.70909 0.94093 0.0
O57 O 0.6203 0.63598 0.93338 0.0
O58 O 0.6092 0.70729 0.9749 0.0
C59 C 0.65014 0.73079 0.88062 0.0
O60 O 0.66926 0.79181 0.95423 0.0
Co61 Co 0.71569 0.70807 0.90847 0.0
O62 O 0.71128 0.79866 0.91491 0.0
C63 C 0.70302 0.64978 0.98034 0.0
C64 C 0.60143 0.65461 0.95927 0.0
C65 C 0.6929 0.82224 0.93916 0.0
O66 O 0.67294 0.66341 0.97792 0.0
O67 O 0.72383 0.66188 0.95536 0.0
O68 O 0.62525 0.74936 0.89937 0.0
O69 O 0.67036 0.69599 0.89817 0.0
Co70 Co 0.87798 0.29566 0.94363 0.0
O71 O 0.89984 0.37411 0.93865 0.0
O72 O 0.91449 0.30156 0.97797 0.0
C73 C 0.8761 0.27801 0.88288 0.0
O74 O 0.85897 0.20821 0.95466 0.0
Co75 Co 0.80926 0.28447 0.90963 0.0
O76 O 0.8191 0.19504 0.91324 0.0
C77 C 0.81766 0.3408 0.98293 0.0
C78 C 0.91951 0.35686 0.96412 0.0
C79 C 0.8376 0.17401 0.93816 0.0
O80 O 0.84836 0.33304 0.98106 0.0
O81 O 0.79806 0.32627 0.95716 0.0
O82 O 0.9016 0.26324 0.90166 0.0
O83 O 0.8537 0.30707 0.90065 0.0
Co84 Co 0.64487 0.79741 0.54659 0.0
O85 O 0.61959 0.87106 0.55463 0.0
O86 O 0.60784 0.80064 0.51282 0.0
C87 C 0.64896 0.7748 0.60677 0.0
O88 O 0.66735 0.71435 0.53272 0.0
Co89 Co 0.71456 0.79578 0.57877 0.0
O90 O 0.70909 0.70543 0.57223 0.0
C91 C 0.70214 0.85558 0.50725 0.0
C92 C 0.6005 0.85328 0.52875 0.0
C93 C 0.69063 0.68288 0.54773 0.0
O94 O 0.67193 0.84293 0.50972 0.0
O95 O 0.72289 0.84238 0.53207 0.0
O96 O 0.62384 0.75712 0.58812 0.0
O97 O 0.66937 0.80923 0.58923 0.0
Co98 Co 0.87798 0.21558 0.54752 0.0
O99 O 0.90022 0.13792 0.55396 0.0
O100 O 0.91435 0.20831 0.51305 0.0
C101 C 0.87617 0.23679 0.60788 0.0
O102 O 0.85847 0.3019 0.53482 0.0
Co103 Co 0.80928 0.22718 0.58159 0.0
O104 O 0.81868 0.31656 0.57618 0.0
C105 C 0.81777 0.16728 0.50932 0.0
C106 C 0.91965 0.15392 0.52796 0.0
C107 C 0.83697 0.33655 0.55075 0.0
O108 O 0.84843 0.17551 0.51101 0.0
O109 O 0.79811 0.1829 0.53483 0.0
O110 O 0.90155 0.25093 0.58869 0.0
O111 O 0.85388 0.20622 0.59081 0.0
H112 H 0.30484 0.1565 0.98511 0.0
H113 H 0.33085 0.07748 0.08955 0.0
H114 H 0.26433 0.07378 0.97651 0.0
H115 H 0.2906 0.99562 0.08118 0.0
H116 H 0.18685 0.9426 0.08951 0.0
H117 H 0.22712 0.02426 0.08065 0.0
H118 H 0.25437 0.94288 0.97718 0.0
H119 H 0.21384 0.86036 0.98627 0.0
C120 C 0.30332 0.11933 0.00514 0.0
C121 C 0.3214 0.12287 0.03778 0.0
C122 C 0.27971 0.07268 0.00052 0.0
C123 C 0.27375 0.02939 0.02864 0.0
C124 C 0.29428 0.02909 0.05934 0.0
C125 C 0.31784 0.07519 0.06381 0.0
C126 C 0.20009 0.9441 0.0639 0.0
C127 C 0.19682 0.89555 0.03839 0.0
C128 C 0.22365 0.9901 0.05915 0.0
C129 C 0.24447 0.98885 0.0287 0.0
C130 C 0.23878 0.9447 0.001 0.0
C131 C 0.21515 0.89815 0.00589 0.0
H132 H 0.18577 0.56362 0.40865 0.0
H133 H 0.21543 0.65318 0.50879 0.0
H134 H 0.22683 0.48351 0.4177 0.0
H135 H 0.25674 0.57223 0.51806 0.0
H136 H 0.33223 0.44032 0.40538 0.0
H137 H 0.29144 0.52057 0.41554 0.0
H138 H 0.26618 0.43608 0.51882 0.0
H139 H 0.30719 0.35495 0.50843 0.0
C140 C 0.19974 0.56401 0.43376 0.0
C141 C 0.19701 0.61418 0.45824 0.0
C142 C 0.22371 0.51886 0.43859 0.0
C143 C 0.24543 0.52262 0.46812 0.0
C144 C 0.24037 0.56844 0.49501 0.0
C145 C 0.21632 0.61408 0.49003 0.0
C146 C 0.31935 0.4409 0.43125 0.0
C147 C 0.32327 0.39183 0.4563 0.0
C148 C 0.29554 0.48612 0.43675 0.0
C149 C 0.27517 0.48355 0.46754 0.0
C150 C 0.28149 0.43893 0.49479 0.0
C151 C 0.30538 0.39319 0.48915 0.0
H152 H 0.72064 0.8496 0.00495 0.0
H153 H 0.69406 0.92935 0.90089 0.0
H154 H 0.76132 0.93208 0.01337 0.0
H155 H 0.73447 0.01096 0.90907 0.0
H156 H 0.83756 0.06646 0.90016 0.0
H157 H 0.79774 0.98392 0.90883 0.0
H158 H 0.77131 0.06206 0.01344 0.0
H159 H 0.8114 0.14541 0.00456 0.0
C160 C 0.72212 0.88683 0.98496 0.0
C161 C 0.70377 0.88368 0.95251 0.0
C162 C 0.74582 0.93334 0.98947 0.0
C163 C 0.75163 0.97682 0.9614 0.0
C164 C 0.73093 0.97733 0.93086 0.0
C165 C 0.70728 0.93138 0.92649 0.0
C166 C 0.82462 0.06404 0.92596 0.0
C167 C 0.82795 0.11197 0.95185 0.0
C168 C 0.8013 0.01755 0.9306 0.0
C169 C 0.78081 0.01767 0.96134 0.0
C170 C 0.78665 0.06111 0.98939 0.0
C171 C 0.81004 0.10813 0.98461 0.0
H172 H 0.71867 0.65757 0.48187 0.0
H173 H 0.69109 0.57439 0.5847 0.0
H174 H 0.75969 0.57586 0.47319 0.0
H175 H 0.73188 0.49357 0.57627 0.0
H176 H 0.83657 0.44637 0.58642 0.0
H177 H 0.79603 0.52714 0.57651 0.0
H178 H 0.76934 0.44197 0.47394 0.0
H179 H 0.81012 0.36033 0.48407 0.0
C180 C 0.71998 0.6197 0.50146 0.0
C181 C 0.7013 0.62176 0.53372 0.0
C182 C 0.74386 0.57363 0.4968 0.0
C183 C 0.74946 0.52945 0.52452 0.0
C184 C 0.72839 0.52769 0.55473 0.0
C185 C 0.70457 0.57322 0.55923 0.0
C186 C 0.82343 0.44687 0.56073 0.0
C187 C 0.82688 0.39746 0.53583 0.0
C188 C 0.79973 0.49238 0.55539 0.0
C189 C 0.77901 0.48979 0.52492 0.0
C190 C 0.7849 0.44483 0.49774 0.0
C191 C 0.80867 0.39879 0.50323 0.0
H192 H 0.41706 0.22841 0.15365 0.0
H193 H 0.32165 0.3105 0.1541 0.0
H194 H 0.4153 0.21966 0.22017 0.0
H195 H 0.31997 0.30175 0.22098 0.0
H196 H 0.32179 0.20947 0.33804 0.0
H197 H 0.31964 0.21966 0.27129 0.0
H198 H 0.41593 0.29764 0.2715 0.0
H199 H 0.41816 0.28742 0.33796 0.0
C200 C 0.39559 0.24411 0.16794 0.0
C201 C 0.36957 0.27048 0.14874 0.0
C202 C 0.3947 0.23953 0.20604 0.0
C203 C 0.36768 0.2608 0.22571 0.0
C204 C 0.34109 0.28499 0.20644 0.0
C205 C 0.34208 0.29006 0.16825 0.0
C206 C 0.34234 0.22937 0.32381 0.0
C207 C 0.37023 0.24724 0.34312 0.0
C208 C 0.34106 0.2353 0.28568 0.0
C209 C 0.36778 0.25867 0.26626 0.0
C210 C 0.39521 0.27845 0.28576 0.0
C211 C 0.39638 0.27302 0.32381 0.0
H212 H 0.19722 0.74097 0.34157 0.0
H213 H 0.09485 0.77829 0.33823 0.0
H214 H 0.19798 0.72969 0.27508 0.0
H215 H 0.0957 0.77374 0.272 0.0
H216 H 0.09683 0.71359 0.15529 0.0
H217 H 0.09727 0.71543 0.2216 0.0
H218 H 0.19717 0.77673 0.21966 0.0
H219 H 0.19713 0.76808 0.15301 0.0
C220 C 0.17494 0.74708 0.32639 0.0
C221 C 0.14592 0.75963 0.34476 0.0
C222 C 0.17534 0.74151 0.2882 0.0
C223 C 0.14689 0.75078 0.26754 0.0
C224 C 0.11798 0.76419 0.28646 0.0
C225 C 0.11743 0.76733 0.32458 0.0
C226 C 0.1188 0.72758 0.16923 0.0
C227 C 0.14686 0.7412 0.14933 0.0
C228 C 0.11909 0.72919 0.20739 0.0
C229 C 0.14717 0.74699 0.22664 0.0
C230 C 0.17521 0.76154 0.20628 0.0
C231 C 0.17519 0.75748 0.16801 0.0
H232 H 0.6055 0.78468 0.83604 0.0
H233 H 0.70047 0.70073 0.83539 0.0
H234 H 0.60713 0.79304 0.76946 0.0
H235 H 0.70205 0.70925 0.76851 0.0
H236 H 0.70021 0.80144 0.65133 0.0
H237 H 0.70241 0.79211 0.71812 0.0
H238 H 0.60627 0.71347 0.71833 0.0
H239 H 0.60403 0.72263 0.65179 0.0
C240 C 0.62686 0.76858 0.8217 0.0
C241 C 0.65279 0.74173 0.84085 0.0
C242 C 0.62767 0.77293 0.78359 0.0
C243 C 0.65454 0.75105 0.76387 0.0
C244 C 0.68105 0.72647 0.78309 0.0
C245 C 0.68012 0.72154 0.82129 0.0
C246 C 0.67971 0.78155 0.66566 0.0
C247 C 0.65187 0.7631 0.64643 0.0
C248 C 0.68101 0.77614 0.70381 0.0
C249 C 0.65435 0.75282 0.72334 0.0
C250 C 0.62695 0.73257 0.70396 0.0
C251 C 0.62578 0.73738 0.66587 0.0
H252 H 0.92622 0.22475 0.65451 0.0
H253 H 0.82436 0.26684 0.65071 0.0
H254 H 0.9254 0.23107 0.72067 0.0
H255 H 0.82373 0.2798 0.71713 0.0
H256 H 0.82473 0.246 0.83989 0.0
H257 H 0.82421 0.23492 0.77336 0.0
H258 H 0.92467 0.29246 0.76993 0.0
H259 H 0.92553 0.29685 0.83618 0.0
C260 C 0.90377 0.23698 0.66803 0.0
C261 C 0.87541 0.24568 0.64774 0.0
C262 C 0.90324 0.24121 0.70611 0.0
C263 C 0.87455 0.25673 0.72486 0.0
C264 C 0.8462 0.26653 0.70412 0.0
C265 C 0.84653 0.25992 0.66598 0.0
C266 C 0.84667 0.25536 0.82461 0.0
C267 C 0.87527 0.27129 0.84289 0.0
C268 C 0.84638 0.24983 0.78641 0.0
C269 C 0.87446 0.26243 0.76568 0.0
C270 C 0.90279 0.2801 0.78447 0.0
C271 C 0.90332 0.28322 0.82259 0.0
H272 H 0.47233 0.33463 0.98544 0.0
H273 H 0.42661 0.48088 0.04795 0.0
H274 H 0.51645 0.40625 0.96977 0.0
H275 H 0.46943 0.55238 0.03143 0.0
H276 H 0.5664 0.65372 0.0239 0.0
H277 H 0.5235 0.58054 0.04121 0.0
H278 H 0.52987 0.4941 0.93449 0.0
H279 H 0.57311 0.56509 0.91807 0.0
C280 C 0.47155 0.38204 -0.00443 0.0
C281 C 0.44596 0.40172 0.01803 0.0
C282 C 0.49676 0.42339 0.98652 0.0
C283 C 0.49679 0.48557 -0.00058 0.0
C284 C 0.4709 0.5049 0.02157 0.0
C285 C 0.44604 0.46367 0.03081 0.0
C286 C 0.55838 0.61933 0.00418 0.0
C287 C 0.57325 0.61528 0.96969 0.0
C288 C 0.53375 0.57723 0.01399 0.0
C289 C 0.52317 0.53057 0.98937 0.0
C290 C 0.5377 0.52793 0.95462 0.0
C291 C 0.56239 0.56934 0.94505 0.0
H292 H 0.06316 0.65707 0.96747 0.0
H293 H 0.07761 0.55958 0.06961 0.0
H294 H 0.02008 0.58341 0.9515 0.0
H295 H 0.03426 0.48819 0.05464 0.0
H296 H 0.97492 0.33115 0.0039 0.0
H297 H 0.01913 0.40318 0.01822 0.0
H298 H 0.96695 0.55246 0.96505 0.0
H299 H 0.92389 0.48047 0.94977 0.0
C300 C 0.05693 0.62046 0.98664 0.0
C301 C 0.07395 0.61424 0.01969 0.0
C302 C 0.03214 0.57816 0.97763 0.0
C303 C 0.02358 0.5291 0.00167 0.0
C304 C 0.04044 0.52398 0.03494 0.0
C305 C 0.06525 0.56559 0.04368 0.0
C306 C 0.97296 0.3794 0.99547 0.0
C307 C 0.94589 0.39982 0.97564 0.0
C308 C 0.99826 0.42096 0.0037 0.0
C309 C 0.99692 0.4841 0.99264 0.0
C310 C 0.96946 0.50427 0.97335 0.0
C311 C 0.94449 0.46281 0.96487 0.0
H312 H 0.56513 0.85574 0.46439 0.0
H313 H 0.57301 0.94302 0.57049 0.0
H314 H 0.52261 0.93005 0.44771 0.0
H315 H 0.53013 0.0151 0.55471 0.0
H316 H 0.47329 0.17637 0.50506 0.0
H317 H 0.51701 0.10357 0.52004 0.0
H318 H 0.46883 0.95949 0.45784 0.0
H319 H 0.4264 0.03224 0.44197 0.0
C320 C 0.55745 0.89008 0.4843 0.0
C321 C 0.57254 0.89341 0.51868 0.0
C322 C 0.53303 0.93283 0.47486 0.0
C323 C 0.52287 0.97943 0.49974 0.0
C324 C 0.53763 0.98135 0.53438 0.0
C325 C 0.56212 0.93931 0.54359 0.0
C326 C 0.47217 0.12916 0.49466 0.0
C327 C 0.44637 0.11043 0.47224 0.0
C328 C 0.49715 0.08712 0.50332 0.0
C329 C 0.49673 0.02515 0.49008 0.0
C330 C 0.47064 0.00677 0.46796 0.0
C331 C 0.44601 0.04871 0.45909 0.0
H332 H 0.92517 0.03197 0.5462 0.0
H333 H 0.9737 0.17676 0.48516 0.0
H334 H 0.96781 0.95912 0.53105 0.0
H335 H 0.01755 0.10389 0.47091 0.0
H336 H 0.07434 0.94345 0.42134 0.0
H337 H 0.03138 0.01581 0.43628 0.0
H338 H 0.02142 0.92969 0.54278 0.0
H339 H 0.06404 0.85504 0.52692 0.0
C340 C 0.94515 0.0485 0.52963 0.0
C341 C 0.94595 0.11045 0.51688 0.0
C342 C 0.96989 0.00655 0.5212 0.0
C343 C 0.99652 0.02516 0.49995 0.0
C344 C 0.9973 0.08728 0.48698 0.0
C345 C 0.97222 0.12934 0.49519 0.0
C346 C 0.06295 0.93964 0.44798 0.0
C347 C 0.07269 0.89327 0.47297 0.0
C348 C 0.03839 0.98181 0.4567 0.0
C349 C 0.02287 0.97955 0.49091 0.0
C350 C 0.03244 0.93269 0.51593 0.0
C351 C 0.05694 0.88981 0.50697 0.0
H352 H 0.25803 0.68841 0.96978 0.0
H353 H 0.17712 0.56293 0.9788 0.0
H354 H 0.28648 0.61322 0.93211 0.0
H355 H 0.2059 0.4854 0.94472 0.0
H356 H 0.26514 0.33397 0.96539 0.0
H357 H 0.23785 0.41186 0.92846 0.0
H358 H 0.31812 0.53828 0.94696 0.0
H359 H 0.34589 0.45819 0.98015 0.0
C360 C 0.24635 0.64454 0.96337 0.0
C361 C 0.2164 0.62942 0.97884 0.0
C362 C 0.26277 0.6007 0.94214 0.0
C363 C 0.25063 0.5394 0.93892 0.0
C364 C 0.21777 0.52976 0.94827 0.0
C365 C 0.20085 0.57453 0.96817 0.0
C366 C 0.27706 0.37812 0.96033 0.0
C367 C 0.30656 0.39203 0.9772 0.0
C368 C 0.26129 0.4235 0.93959 0.0
C369 C 0.27352 0.48495 0.93843 0.0
C370 C 0.30614 0.49373 0.949 0.0
C371 C 0.32248 0.44748 0.96836 0.0
H372 H 0.26628 0.18156 0.52647 0.0
H373 H 0.34518 0.05413 0.50872 0.0
H374 H 0.2381 0.10299 0.56232 0.0
H375 H 0.31637 0.97364 0.54049 0.0
H376 H 0.2556 0.82415 0.52415 0.0
H377 H 0.28426 0.9014 0.56044 0.0
H378 H 0.20601 0.03193 0.5409 0.0
H379 H 0.17679 0.95263 0.50864 0.0
C380 C 0.27766 0.13667 0.53075 0.0
C381 C 0.30689 0.12217 0.51342 0.0
C382 C 0.26141 0.09108 0.55089 0.0
C383 C 0.2729 0.02914 0.55104 0.0
C384 C 0.3052 0.01908 0.5397 0.0
C385 C 0.32206 0.06548 0.52105 0.0
C386 C 0.24438 0.86904 0.52895 0.0
C387 C 0.21498 0.88418 0.5122 0.0
C388 C 0.26089 0.91386 0.54938 0.0
C389 C 0.24943 0.97579 0.55054 0.0
C390 C 0.21711 0.98648 0.53948 0.0
C391 C 0.20003 0.94081 0.52051 0.0
H392 H 0.67504 0.54506 0.00616 0.0
H393 H 0.75425 0.67109 0.02549 0.0
H394 H 0.70218 0.46503 0.04011 0.0
H395 H 0.78072 0.59326 0.0633 0.0
H396 H 0.84352 0.44284 0.01484 0.0
H397 H 0.81355 0.52047 0.04747 0.0
H398 H 0.73339 0.39137 0.05873 0.0
H399 H 0.76307 0.31594 0.02234 0.0
C400 C 0.69791 0.55613 0.01914 0.0
C401 C 0.71369 0.6122 0.01149 0.0
C402 C 0.71383 0.50999 0.03902 0.0
C403 C 0.74589 0.51955 0.05144 0.0
C404 C 0.75778 0.58126 0.051 0.0
C405 C 0.74248 0.62654 0.02974 0.0
C406 C 0.81966 0.43087 0.02496 0.0
C407 C 0.80461 0.37553 0.01415 0.0
C408 C 0.80206 0.4757 0.04403 0.0
C409 C 0.76904 0.46558 0.05238 0.0
C410 C 0.7573 0.40399 0.04936 0.0
C411 C 0.77442 0.36006 0.02891 0.0
H412 H 0.67478 0.9616 0.48266 0.0
H413 H 0.75348 0.83503 0.46206 0.0
H414 H 0.70291 0.04298 0.45087 0.0
H415 H 0.78092 0.91453 0.4262 0.0
H416 H 0.76397 0.19172 0.46859 0.0
H417 H 0.7347 0.11617 0.43172 0.0
H418 H 0.81344 0.98512 0.44703 0.0
H419 H 0.84317 0.06285 0.47994 0.0
C420 C 0.69768 0.95069 0.46971 0.0
C421 C 0.71305 0.89392 0.47652 0.0
C422 C 0.71416 0.99761 0.45105 0.0
C423 C 0.74629 0.988 0.43894 0.0
C424 C 0.75782 0.9261 0.43828 0.0
C425 C 0.74198 0.87996 0.4584 0.0
C426 C 0.77513 0.14713 0.46277 0.0
C427 C 0.80485 0.13129 0.47857 0.0
C428 C 0.75828 0.10324 0.442 0.0
C429 C 0.76974 0.04142 0.43956 0.0
C430 C 0.8023 0.0304 0.44955 0.0
C431 C 0.8197 0.07518 0.46888 0.0
loop_
_geom_bond_atom_site_label_1
_geom_bond_atom_site_label_2
_geom_bond_distance
_geom_bond_site_symmetry_2
_ccdc_geom_bond_type
Co0 O1 2.216 . S
Co0 O2 2.101 . S
Co0 O4 2.004 . S
Co0 O10 2.021 . S
Co0 O12 2.137 . S
Co0 O13 2.244 . S
O1 Co0 2.216 . S
O1 C8 1.247 . S
O2 Co0 2.101 . S
O2 C8 1.268 . S
C3 O12 1.247 . S
C3 O13 1.272 . S
O4 Co0 2.004 . S
O4 C9 1.259 . S
Co5 O6 2.061 . S
Co5 O11 2.052 . S
Co5 O13 2.135 . S
O6 Co5 2.061 . S
O6 C9 1.235 . S
C7 O10 1.238 . S
C7 O11 1.241 . S
C8 O1 1.247 . S
C8 O2 1.268 . S
C9 O4 1.259 . S
C9 O6 1.235 . S
O10 Co0 2.021 . S
O10 C7 1.238 . S
O11 Co5 2.052 . S
O11 C7 1.241 . S
O12 Co0 2.137 . S
O12 C3 1.247 . S
O13 Co0 2.244 . S
O13 C3 1.272 . S
O13 Co5 2.135 . S
Co14 O15 2.216 . S
Co14 O16 2.101 . S
Co14 O18 2.004 . S
Co14 O24 2.021 . S
Co14 O26 2.137 . S
Co14 O27 2.244 . S
O15 Co14 2.216 . S
O15 C22 1.247 . S
O16 Co14 2.101 . S
O16 C22 1.268 . S
C17 O26 1.247 . S
C17 O27 1.272 . S
O18 Co14 2.004 . S
O18 C23 1.259 . S
Co19 O20 2.061 . S
Co19 O25 2.052 . S
Co19 O27 2.135 . S
O20 Co19 2.061 . S
O20 C23 1.235 . S
C21 O24 1.238 . S
C21 O25 1.241 . S
C22 O15 1.247 . S
C22 O16 1.268 . S
C23 O18 1.259 . S
C23 O20 1.235 . S
O24 Co14 2.021 . S
O24 C21 1.238 . S
O25 Co19 2.052 . S
O25 C21 1.241 . S
O26 Co14 2.137 . S
O26 C17 1.247 . S
O27 Co14 2.244 . S
O27 C17 1.272 . S
O27 Co19 2.135 . S
Co28 O29 2.216 . S
Co28 O30 2.091 . S
Co28 O32 2.004 . S
Co28 O38 2.021 . S
Co28 O40 2.137 . S
Co28 O41 2.244 . S
O29 Co28 2.216 . S
O29 C36 1.247 . S
O30 Co28 2.091 . S
O30 C36 1.261 . S
C31 O40 1.247 . S
C31 O41 1.272 . S
O32 Co28 2.004 . S
O32 C37 1.259 . S
Co33 O34 2.061 . S
Co33 O39 2.052 . S
Co33 O41 2.135 . S
O34 Co33 2.061 . S
O34 C37 1.235 . S
C35 O38 1.238 . S
C35 O39 1.241 . S
C36 O29 1.247 . S
C36 O30 1.261 . S
C37 O32 1.259 . S
C37 O34 1.235 . S
O38 Co28 2.021 . S
O38 C35 1.238 . S
O39 Co33 2.052 . S
O39 C35 1.241 . S
O40 Co28 2.137 . S
O40 C31 1.247 . S
O41 Co28 2.244 . S
O41 C31 1.272 . S
O41 Co33 2.135 . S
Co42 O43 2.216 . S
Co42 O44 2.091 . S
Co42 O46 2.004 . S
Co42 O52 2.021 . S
Co42 O54 2.137 . S
Co42 O55 2.244 . S
O43 Co42 2.216 . S
O43 C50 1.247 . S
O44 Co42 2.091 . S
O44 C50 1.261 . S
C45 O54 1.247 . S
C45 O55 1.272 . S
O46 Co42 2.004 . S
O46 C51 1.259 . S
Co47 O48 2.061 . S
Co47 O53 2.052 . S
Co47 O55 2.135 . S
O48 Co47 2.061 . S
O48 C51 1.235 . S
C49 O52 1.238 . S
C49 O53 1.241 . S
C50 O43 1.247 . S
C50 O44 1.261 . S
C51 O46 1.259 . S
C51 O48 1.235 . S
O52 Co42 2.021 . S
O52 C49 1.238 . S
O53 Co47 2.052 . S
O53 C49 1.241 . S
O54 Co42 2.137 . S
O54 C45 1.247 . S
O55 Co42 2.244 . S
O55 C45 1.272 . S
O55 Co47 2.135 . S
Co56 O57 2.216 . S
Co56 O58 2.101 . S
Co56 O60 2.004 . S
Co56 O66 2.021 . S
Co56 O68 2.137 . S
Co56 O69 2.244 . S
O57 Co56 2.216 . S
O57 C64 1.247 . S
O58 Co56 2.101 . S
O58 C64 1.268 . S
C59 O68 1.247 . S
C59 O69 1.272 . S
O60 Co56 2.004 . S
O60 C65 1.259 . S
Co61 O62 2.061 . S
Co61 O67 2.052 . S
Co61 O69 2.135 . S
O62 Co61 2.061 . S
O62 C65 1.235 . S
C63 O66 1.238 . S
C63 O67 1.241 . S
C64 O57 1.247 . S
C64 O58 1.268 . S
C65 O60 1.259 . S
C65 O62 1.235 . S
O66 Co56 2.021 . S
O66 C63 1.238 . S
O67 Co61 2.052 . S
O67 C63 1.241 . S
O68 Co56 2.137 . S
O68 C59 1.247 . S
O69 Co56 2.244 . S
O69 C59 1.272 . S
O69 Co61 2.135 . S
Co70 O71 2.216 . S
Co70 O72 2.101 . S
Co70 O74 2.004 . S
Co70 O80 2.021 . S
Co70 O82 2.137 . S
Co70 O83 2.244 . S
O71 Co70 2.216 . S
O71 C78 1.247 . S
O72 Co70 2.101 . S
O72 C78 1.268 . S
C73 O82 1.247 . S
C73 O83 1.272 . S
O74 Co70 2.004 . S
O74 C79 1.259 . S
Co75 O76 2.061 . S
Co75 O81 2.052 . S
Co75 O83 2.135 . S
O76 Co75 2.061 . S
O76 C79 1.235 . S
C77 O80 1.238 . S
C77 O81 1.241 . S
C78 O71 1.247 . S
C78 O72 1.268 . S
C79 O74 1.259 . S
C79 O76 1.235 . S
O80 Co70 2.021 . S
O80 C77 1.238 . S
O81 Co75 2.052 . S
O81 C77 1.241 . S
O82 Co70 2.137 . S
O82 C73 1.247 . S
O83 Co70 2.244 . S
O83 C73 1.272 . S
O83 Co75 2.135 . S
Co84 O85 2.216 . S
Co84 O86 2.091 . S
Co84 O88 2.004 . S
Co84 O94 2.021 . S
Co84 O96 2.137 . S
Co84 O97 2.244 . S
O85 Co84 2.216 . S
O85 C92 1.247 . S
O86 Co84 2.091 . S
O86 C92 1.261 . S
C87 O96 1.247 . S
C87 O97 1.272 . S
O88 Co84 2.004 . S
O88 C93 1.259 . S
Co89 O90 2.061 . S
Co89 O95 2.052 . S
Co89 O97 2.135 . S
O90 Co89 2.061 . S
O90 C93 1.235 . S
C91 O94 1.238 . S
C91 O95 1.241 . S
C92 O85 1.247 . S
C92 O86 1.261 . S
C93 O88 1.259 . S
C93 O90 1.235 . S
O94 Co84 2.021 . S
O94 C91 1.238 . S
O95 Co89 2.052 . S
O95 C91 1.241 . S
O96 Co84 2.137 . S
O96 C87 1.247 . S
O97 Co84 2.244 . S
O97 C87 1.272 . S
O97 Co89 2.135 . S
Co98 O99 2.216 . S
Co98 O100 2.091 . S
Co98 O102 2.004 . S
Co98 O108 2.021 . S
Co98 O110 2.137 . S
Co98 O111 2.244 . S
O99 Co98 2.216 . S
O99 C106 1.247 . S
O100 Co98 2.091 . S
O100 C106 1.261 . S
C101 O110 1.247 . S
C101 O111 1.272 . S
O102 Co98 2.004 . S
O102 C107 1.259 . S
Co103 O104 2.061 . S
Co103 O109 2.052 . S
Co103 O111 2.135 . S
O104 Co103 2.061 . S
O104 C107 1.235 . S
C105 O108 1.238 . S
C105 O109 1.241 . S
C106 O99 1.247 . S
C106 O100 1.261 . S
C107 O102 1.259 . S
C107 O104 1.235 . S
O108 Co98 2.021 . S
O108 C105 1.238 . S
O109 Co103 2.052 . S
O109 C105 1.241 . S
O110 Co98 2.137 . S
O110 C101 1.247 . S
O111 Co98 2.244 . S
O111 C101 1.272 . S
O111 Co103 2.135 . S
H112 C120 0.950 . S
H113 C125 0.950 . S
H114 C122 0.950 . S
H115 C124 0.950 1_565 S
H116 C126 0.950 . S
H117 C128 0.950 . S
H118 C130 0.950 1_545 S
H119 C131 0.950 . S
C120 H112 0.950 . S
C120 C121 1.386 1_556 S
C120 C122 1.391 . S
C121 C120 1.386 1_554 S
C121 C125 1.393 . S
C122 H114 0.950 . S
C122 C120 1.391 . S
C122 C123 1.400 1_556 S
C123 C122 1.400 1_554 S
C123 C124 1.398 . S
C123 C129 1.491 1_545 S
C124 H115 0.950 1_545 S
C124 C123 1.398 . S
C124 C125 1.391 . S
C125 H113 0.950 . S
C125 C121 1.393 . S
C125 C124 1.391 . S
C126 H116 0.950 . S
C126 C127 1.386 . S
C126 C128 1.391 . S
C127 C126 1.386 . S
C127 C131 1.393 1_554 S
C128 H117 0.950 . S
C128 C126 1.391 . S
C128 C129 1.400 . S
C129 C123 1.491 1_565 S
C129 C128 1.400 . S
C129 C130 1.398 1_554 S
C130 H118 0.950 1_565 S
C130 C129 1.398 1_556 S
C130 C131 1.391 . S
C131 H119 0.950 . S
C131 C127 1.393 1_556 S
C131 C130 1.391 . S
H132 C140 0.950 . S
H133 C145 0.950 . S
H134 C142 0.950 . S
H135 C144 0.950 . S
H136 C146 0.950 . S
H137 C148 0.950 . S
H138 C150 0.950 . S
H139 C151 0.950 . S
C140 H132 0.950 . S
C140 C141 1.386 . S
C140 C142 1.391 . S
C141 C140 1.386 . S
C141 C145 1.393 . S
C142 H134 0.950 . S
C142 C140 1.391 . S
C142 C143 1.400 . S
C143 C142 1.400 . S
C143 C144 1.398 . S
C143 C149 1.491 . S
C144 H135 0.950 . S
C144 C143 1.398 . S
C144 C145 1.391 . S
C145 H133 0.950 . S
C145 C141 1.393 . S
C145 C144 1.391 . S
C146 H136 0.950 . S
C146 C147 1.386 . S
C146 C148 1.391 . S
C147 C146 1.386 . S
C147 C151 1.393 . S
C148 H137 0.950 . S
C148 C146 1.391 . S
C148 C149 1.400 . S
C149 C143 1.491 . S
C149 C148 1.400 . S
C149 C150 1.398 . S
C150 H138 0.950 . S
C150 C149 1.398 . S
C150 C151 1.391 . S
C151 H139 0.950 . S
C151 C147 1.393 . S
C151 C150 1.391 . S
H152 C160 0.950 . S
H153 C165 0.950 . S
H154 C162 0.950 1_545 S
H155 C164 0.950 . S
H156 C166 0.950 . S
H157 C168 0.950 1_565 S
H158 C170 0.950 . S
H159 C171 0.950 . S
C160 H152 0.950 . S
C160 C161 1.386 1_554 S
C160 C162 1.391 . S
C161 C160 1.386 1_556 S
C161 C165 1.393 . S
C162 H154 0.950 1_565 S
C162 C160 1.391 . S
C162 C163 1.400 1_554 S
C163 C162 1.400 1_556 S
C163 C164 1.398 . S
C163 C169 1.491 1_565 S
C164 H155 0.950 . S
C164 C163 1.398 . S
C164 C165 1.391 . S
C165 H153 0.950 . S
C165 C161 1.393 . S
C165 C164 1.391 . S
C166 H156 0.950 . S
C166 C167 1.386 . S
C166 C168 1.391 . S
C167 C166 1.386 . S
C167 C171 1.393 1_556 S
C168 H157 0.950 1_545 S
C168 C166 1.391 . S
C168 C169 1.400 . S
C169 C163 1.491 1_545 S
C169 C168 1.400 . S
C169 C170 1.398 1_556 S
C170 H158 0.950 . S
C170 C169 1.398 1_554 S
C170 C171 1.391 . S
C171 H159 0.950 . S
C171 C167 1.393 1_554 S
C171 C170 1.391 . S
H172 C180 0.950 . S
H173 C185 0.950 . S
H174 C182 0.950 . S
H175 C184 0.950 . S
H176 C186 0.950 . S
H177 C188 0.950 . S
H178 C190 0.950 . S
H179 C191 0.950 . S
C180 H172 0.950 . S
C180 C181 1.386 . S
C180 C182 1.391 . S
C181 C180 1.386 . S
C181 C185 1.393 . S
C182 H174 0.950 . S
C182 C180 1.391 . S
C182 C183 1.400 . S
C183 C182 1.400 . S
C183 C184 1.398 . S
C183 C189 1.491 . S
C184 H175 0.950 . S
C184 C183 1.398 . S
C184 C185 1.391 . S
C185 H173 0.950 . S
C185 C181 1.393 . S
C185 C184 1.391 . S
C186 H176 0.950 . S
C186 C187 1.386 . S
C186 C188 1.391 . S
C187 C186 1.386 . S
C187 C191 1.393 . S
C188 H177 0.950 . S
C188 C186 1.391 . S
C188 C189 1.400 . S
C189 C183 1.491 . S
C189 C188 1.400 . S
C189 C190 1.398 . S
C190 H178 0.950 . S
C190 C189 1.398 . S
C190 C191 1.391 . S
C191 H179 0.950 . S
C191 C187 1.393 . S
C191 C190 1.391 . S
H192 C200 0.950 . S
H193 C205 0.950 . S
H194 C202 0.950 . S
H195 C204 0.950 . S
H196 C206 0.950 . S
H197 C208 0.950 . S
H198 C210 0.950 . S
H199 C211 0.950 . S
C200 H192 0.950 . S
C200 C201 1.386 . S
C200 C202 1.391 . S
C201 C200 1.386 . S
C201 C205 1.393 . S
C202 H194 0.950 . S
C202 C200 1.391 . S
C202 C203 1.400 . S
C203 C202 1.400 . S
C203 C204 1.398 . S
C203 C209 1.491 . S
C204 H195 0.950 . S
C204 C203 1.398 . S
C204 C205 1.391 . S
C205 H193 0.950 . S
C205 C201 1.393 . S
C205 C204 1.391 . S
C206 H196 0.950 . S
C206 C207 1.386 . S
C206 C208 1.391 . S
C207 C206 1.386 . S
C207 C211 1.393 . S
C208 H197 0.950 . S
C208 C206 1.391 . S
C208 C209 1.400 . S
C209 C203 1.491 . S
C209 C208 1.400 . S
C209 C210 1.398 . S
C210 H198 0.950 . S
C210 C209 1.398 . S
C210 C211 1.391 . S
C211 H199 0.950 . S
C211 C207 1.393 . S
C211 C210 1.391 . S
H212 C220 0.950 . S
H213 C225 0.950 . S
H214 C222 0.950 . S
H215 C224 0.950 . S
H216 C226 0.950 . S
H217 C228 0.950 . S
H218 C230 0.950 . S
H219 C231 0.950 . S
C220 H212 0.950 . S
C220 C221 1.386 . S
C220 C222 1.391 . S
C221 C220 1.386 . S
C221 C225 1.393 . S
C222 H214 0.950 . S
C222 C220 1.391 . S
C222 C223 1.400 . S
C223 C222 1.400 . S
C223 C224 1.398 . S
C223 C229 1.491 . S
C224 H215 0.950 . S
C224 C223 1.398 . S
C224 C225 1.391 . S
C225 H213 0.950 . S
C225 C221 1.393 . S
C225 C224 1.391 . S
C226 H216 0.950 . S
C226 C227 1.386 . S
C226 C228 1.391 . S
C227 C226 1.386 . S
C227 C231 1.393 . S
C228 H217 0.950 . S
C228 C226 1.391 . S
C228 C229 1.400 . S
C229 C223 1.491 . S
C229 C228 1.400 . S
C229 C230 1.398 . S
C230 H218 0.950 . S
C230 C229 1.398 . S
C230 C231 1.391 . S
C231 H219 0.950 . S
C231 C227 1.393 . S
C231 C230 1.391 . S
H232 C240 0.950 . S
H233 C245 0.950 . S
H234 C242 0.950 . S
H235 C244 0.950 . S
H236 C246 0.950 . S
H237 C248 0.950 . S
H238 C250 0.950 . S
H239 C251 0.950 . S
C240 H232 0.950 . S
C240 C241 1.386 . S
C240 C242 1.391 . S
C241 C240 1.386 . S
C241 C245 1.393 . S
C242 H234 0.950 . S
C242 C240 1.391 . S
C242 C243 1.400 . S
C243 C242 1.400 . S
C243 C244 1.398 . S
C243 C249 1.491 . S
C244 H235 0.950 . S
C244 C243 1.398 . S
C244 C245 1.391 . S
C245 H233 0.950 . S
C245 C241 1.393 . S
C245 C244 1.391 . S
C246 H236 0.950 . S
C246 C247 1.386 . S
C246 C248 1.391 . S
C247 C246 1.386 . S
C247 C251 1.393 . S
C248 H237 0.950 . S
C248 C246 1.391 . S
C248 C249 1.400 . S
C249 C243 1.491 . S
C249 C248 1.400 . S
C249 C250 1.398 . S
C250 H238 0.950 . S
C250 C249 1.398 . S
C250 C251 1.391 . S
C251 H239 0.950 . S
C251 C247 1.393 . S
C251 C250 1.391 . S
H252 C260 0.950 . S
H253 C265 0.950 . S
H254 C262 0.950 . S
H255 C264 0.950 . S
H256 C266 0.950 . S
H257 C268 0.950 . S
H258 C270 0.950 . S
H259 C271 0.950 . S
C260 H252 0.950 . S
C260 C261 1.386 . S
C260 C262 1.391 . S
C261 C260 1.386 . S
C261 C265 1.393 . S
C262 H254 0.950 . S
C262 C260 1.391 . S
C262 C263 1.400 . S
C263 C262 1.400 . S
C263 C264 1.398 . S
C263 C269 1.491 . S
C264 H255 0.950 . S
C264 C263 1.398 . S
C264 C265 1.391 . S
C265 H253 0.950 . S
C265 C261 1.393 . S
C265 C264 1.391 . S
C266 H256 0.950 . S
C266 C267 1.386 . S
C266 C268 1.391 . S
C267 C266 1.386 . S
C267 C271 1.393 . S
C268 H257 0.950 . S
C268 C266 1.391 . S
C268 C269 1.400 . S
C269 C263 1.491 . S
C269 C268 1.400 . S
C269 C270 1.398 . S
C270 H258 0.950 . S
C270 C269 1.398 . S
C270 C271 1.391 . S
C271 H259 0.950 . S
C271 C267 1.393 . S
C271 C270 1.391 . S
H272 C280 0.950 . S
H273 C285 0.950 . S
H274 C282 0.950 . S
H275 C284 0.950 . S
H276 C286 0.950 . S
H277 C288 0.950 . S
H278 C290 0.950 . S
H279 C291 0.950 . S
C280 H272 0.950 . S
C280 C281 1.386 1_556 S
C280 C282 1.391 . S
C281 C280 1.386 1_554 S
C281 C285 1.393 . S
C282 H274 0.950 . S
C282 C280 1.391 . S
C282 C283 1.400 1_556 S
C283 C282 1.400 1_554 S
C283 C284 1.398 . S
C283 C289 1.491 1_554 S
C284 H275 0.950 . S
C284 C283 1.398 . S
C284 C285 1.391 . S
C285 H273 0.950 . S
C285 C281 1.393 . S
C285 C284 1.391 . S
C286 H276 0.950 . S
C286 C287 1.386 1_554 S
C286 C288 1.391 . S
C287 C286 1.386 1_556 S
C287 C291 1.393 . S
C288 H277 0.950 . S
C288 C286 1.391 . S
C288 C289 1.400 1_554 S
C289 C283 1.491 1_556 S
C289 C288 1.400 1_556 S
C289 C290 1.398 . S
C290 H278 0.950 . S
C290 C289 1.398 . S
C290 C291 1.391 . S
C291 H279 0.950 . S
C291 C287 1.393 . S
C291 C290 1.391 . S
H292 C300 0.950 . S
H293 C305 0.950 . S
H294 C302 0.950 1_655 S
H295 C304 0.950 . S
H296 C306 0.950 . S
H297 C308 0.950 1_455 S
H298 C310 0.950 . S
H299 C311 0.950 . S
C300 H292 0.950 . S
C300 C301 1.386 1_556 S
C300 C302 1.391 . S
C301 C300 1.386 1_554 S
C301 C305 1.393 . S
C302 H294 0.950 1_455 S
C302 C300 1.391 . S
C302 C303 1.383 1_556 S
C303 C302 1.383 1_554 S
C303 C304 1.418 . S
C303 C309 1.489 1_454 S
C304 H295 0.950 . S
C304 C303 1.418 . S
C304 C305 1.391 . S
C305 H293 0.950 . S
C305 C301 1.393 . S
C305 C304 1.391 . S
C306 H296 0.950 . S
C306 C307 1.386 1_554 S
C306 C308 1.391 . S
C307 C306 1.386 1_556 S
C307 C311 1.393 . S
C308 H297 0.950 1_655 S
C308 C306 1.391 . S
C308 C309 1.383 1_554 S
C309 C303 1.489 1_656 S
C309 C308 1.383 1_556 S
C309 C310 1.418 . S
C310 H298 0.950 . S
C310 C309 1.418 . S
C310 C311 1.391 . S
C311 H299 0.950 . S
C311 C307 1.393 . S
C311 C310 1.391 . S
H312 C320 0.950 . S
H313 C325 0.950 . S
H314 C322 0.950 . S
H315 C324 0.950 1_545 S
H316 C326 0.950 . S
H317 C328 0.950 . S
H318 C330 0.950 1_565 S
H319 C331 0.950 . S
C320 H312 0.950 . S
C320 C321 1.386 . S
C320 C322 1.391 . S
C321 C320 1.386 . S
C321 C325 1.393 . S
C322 H314 0.950 . S
C322 C320 1.391 . S
C322 C323 1.400 . S
C323 C322 1.400 . S
C323 C324 1.398 . S
C323 C329 1.491 1_565 S
C324 H315 0.950 1_565 S
C324 C323 1.398 . S
C324 C325 1.391 . S
C325 H313 0.950 . S
C325 C321 1.393 . S
C325 C324 1.391 . S
C326 H316 0.950 . S
C326 C327 1.386 . S
C326 C328 1.391 . S
C327 C326 1.386 . S
C327 C331 1.393 . S
C328 H317 0.950 . S
C328 C326 1.391 . S
C328 C329 1.400 . S
C329 C323 1.491 1_545 S
C329 C328 1.400 . S
C329 C330 1.398 . S
C330 H318 0.950 1_545 S
C330 C329 1.398 . S
C330 C331 1.391 . S
C331 H319 0.950 . S
C331 C327 1.393 . S
C331 C330 1.391 . S
H332 C340 0.950 . S
H333 C345 0.950 . S
H334 C342 0.950 1_455 S
H335 C344 0.950 . S
H336 C346 0.950 . S
H337 C348 0.950 1_655 S
H338 C350 0.950 . S
H339 C351 0.950 . S
C340 H332 0.950 . S
C340 C341 1.386 . S
C340 C342 1.391 . S
C341 C340 1.386 . S
C341 C345 1.393 . S
C342 H334 0.950 1_655 S
C342 C340 1.391 . S
C342 C343 1.400 . S
C343 C342 1.400 . S
C343 C344 1.398 . S
C343 C349 1.491 1_645 S
C344 H335 0.950 . S
C344 C343 1.398 . S
C344 C345 1.391 . S
C345 H333 0.950 . S
C345 C341 1.393 . S
C345 C344 1.391 . S
C346 H336 0.950 . S
C346 C347 1.386 . S
C346 C348 1.391 . S
C347 C346 1.386 . S
C347 C351 1.393 . S
C348 H337 0.950 1_455 S
C348 C346 1.391 . S
C348 C349 1.400 . S
C349 C343 1.491 1_465 S
C349 C348 1.400 . S
C349 C350 1.398 . S
C350 H338 0.950 . S
C350 C349 1.398 . S
C350 C351 1.391 . S
C351 H339 0.950 . S
C351 C347 1.393 . S
C351 C350 1.391 . S
H352 C360 0.950 . S
H353 C365 0.950 1_556 S
H354 C362 0.950 . S
H355 C364 0.950 1_556 S
H356 C366 0.946 1_556 S
H357 C368 0.942 1_556 S
H358 C370 0.950 . S
H359 C371 0.950 . S
C360 H352 0.950 . S
C360 C361 1.386 . S
C360 C362 1.391 . S
C361 C360 1.386 . S
C361 C365 1.393 . S
C362 H354 0.950 . S
C362 C360 1.391 . S
C362 C363 1.400 . S
C363 C362 1.400 . S
C363 C364 1.398 . S
C363 C369 1.491 . S
C364 H355 0.950 1_554 S
C364 C363 1.398 . S
C364 C365 1.391 . S
C365 H353 0.950 1_554 S
C365 C361 1.393 . S
C365 C364 1.391 . S
C366 H356 0.946 1_554 S
C366 C367 1.389 . S
C366 C368 1.391 . S
C367 C366 1.389 . S
C367 C371 1.393 . S
C368 H357 0.942 1_554 S
C368 C366 1.391 . S
C368 C369 1.409 . S
C369 C363 1.491 . S
C369 C368 1.409 . S
C369 C370 1.398 . S
C370 H358 0.950 . S
C370 C369 1.398 . S
C370 C371 1.391 . S
C371 H359 0.950 . S
C371 C367 1.393 . S
C371 C370 1.391 . S
H372 C380 0.950 . S
H373 C385 0.950 . S
H374 C382 0.950 . S
H375 C384 0.950 1_565 S
H376 C386 0.950 . S
H377 C388 0.950 . S
H378 C390 0.950 1_545 S
H379 C391 0.950 . S
C380 H372 0.950 . S
C380 C381 1.386 . S
C380 C382 1.391 . S
C381 C380 1.386 . S
C381 C385 1.393 . S
C382 H374 0.950 . S
C382 C380 1.391 . S
C382 C383 1.400 . S
C383 C382 1.400 . S
C383 C384 1.398 . S
C383 C389 1.491 1_545 S
C384 H375 0.950 1_545 S
C384 C383 1.398 . S
C384 C385 1.391 . S
C385 H373 0.950 . S
C385 C381 1.393 . S
C385 C384 1.391 . S
C386 H376 0.950 . S
C386 C387 1.386 . S
C386 C388 1.391 . S
C387 C386 1.386 . S
C387 C391 1.393 . S
C388 H377 0.950 . S
C388 C386 1.391 . S
C388 C389 1.400 . S
C389 C383 1.491 1_565 S
C389 C388 1.400 . S
C389 C390 1.398 . S
C390 H378 0.950 1_565 S
C390 C389 1.398 . S
C390 C391 1.391 . S
C391 H379 0.950 . S
C391 C387 1.393 . S
C391 C390 1.391 . S
H392 C400 0.950 1_554 S
H393 C405 0.950 . S
H394 C402 0.950 1_554 S
H395 C404 0.950 . S
H396 C406 0.950 . S
H397 C408 0.950 . S
H398 C410 0.947 1_554 S
H399 C411 0.945 1_554 S
C400 H392 0.950 1_556 S
C400 C401 1.386 . S
C400 C402 1.391 . S
C401 C400 1.386 . S
C401 C405 1.393 . S
C402 H394 0.950 1_556 S
C402 C400 1.391 . S
C402 C403 1.400 . S
C403 C402 1.400 . S
C403 C404 1.398 . S
C403 C409 1.491 . S
C404 H395 0.950 . S
C404 C403 1.398 . S
C404 C405 1.391 . S
C405 H393 0.950 . S
C405 C401 1.393 . S
C405 C404 1.391 . S
C406 H396 0.950 . S
C406 C407 1.386 . S
C406 C408 1.391 . S
C407 C406 1.386 . S
C407 C411 1.398 . S
C408 H397 0.950 . S
C408 C406 1.391 . S
C408 C409 1.400 . S
C409 C403 1.491 . S
C409 C408 1.400 . S
C409 C410 1.402 . S
C410 H398 0.947 1_556 S
C410 C409 1.402 . S
C410 C411 1.391 . S
C411 H399 0.945 1_556 S
C411 C407 1.398 . S
C411 C410 1.391 . S
H412 C420 0.950 . S
H413 C425 0.950 . S
H414 C422 0.950 . S
H415 C424 0.950 . S
H416 C426 0.950 . S
H417 C428 0.950 . S
H418 C430 0.950 . S
H419 C431 0.950 . S
C420 H412 0.950 . S
C420 C421 1.386 . S
C420 C422 1.391 . S
C421 C420 1.386 . S
C421 C425 1.393 . S
C422 H414 0.950 . S
C422 C420 1.391 . S
C422 C423 1.400 . S
C423 C422 1.400 . S
C423 C424 1.398 . S
C423 C429 1.491 1_565 S
C424 H415 0.950 . S
C424 C423 1.398 . S
C424 C425 1.391 . S
C425 H413 0.950 . S
C425 C421 1.393 . S
C425 C424 1.391 . S
C426 H416 0.950 . S
C426 C427 1.386 . S
C426 C428 1.391 . S
C427 C426 1.386 . S
C427 C431 1.393 . S
C428 H417 0.950 . S
C428 C426 1.391 . S
C428 C429 1.400 . S
C429 C423 1.491 1_545 S
C429 C428 1.400 . S
C429 C430 1.398 . S
C430 H418 0.950 . S
C430 C429 1.398 . S
C430 C431 1.391 . S
C431 H419 0.950 . S
C431 C427 1.393 . S
C431 C430 1.391 . S
C121 C9 1.551 . S
C127 C23 1.543 . S
C141 C51 1.523 . S
C147 C37 1.541 . S
C161 C65 1.535 . S
C167 C79 1.523 . S
C181 C93 1.533 . S
C187 C107 1.524 . S
C201 C3 1.650 . S
C207 C31 1.648 . S
C221 C45 1.655 . S
C227 C17 1.660 . S
C241 C59 1.659 . S
C247 C87 1.658 . S
C261 C101 1.660 . S
C267 C73 1.656 . S
C281 C8 1.418 . S
C287 C64 1.418 . S
C301 C22 1.427 . S
C307 C78 1.427 . S
C321 C92 1.422 . S
C327 C36 1.422 . S
C341 C106 1.418 . S
C347 C50 1.418 . S
C361 C21 0.949 . S
C367 C7 0.984 . S
C381 C35 0.939 . S
C387 C49 0.978 . S
C401 C63 0.944 . S
C407 C77 0.983 . S
C421 C91 0.949 . S
C427 C105 0.954 . S
