# Generated by pormake.
# Topology umf, (4)-cn, num edge types: 1
# Building blocks:
#     Node 0, Type 0, BuildingBlock: MUDLON_clean_sbu_0, # of connection points: 4
#     Node 1, Type 0, BuildingBlock: MUDLON_clean_sbu_0, # of connection points: 4
#     Node 2, Type 0, BuildingBlock: MUDLON_clean_sbu_0, # of connection points: 4
#     Node 3, Type 0, BuildingBlock: MUDLON_clean_sbu_0, # of connection points: 4
#     Node 4, Type 0, BuildingBlock: MUDLON_clean_sbu_0, # of connection points: 4
#     Node 5, Type 0, BuildingBlock: MUDLON_clean_sbu_0, # of connection points: 4
#     Node 6, Type 0, BuildingBlock: MUDLON_clean_sbu_0, # of connection points: 4
#     Node 7, Type 0, BuildingBlock: MUDLON_clean_sbu_0, # of connection points: 4
#     Edge 8, Type (0, 0), BuildingBlock: UVAHIK_clean_linker_0, # of connection points: 2
#     Edge 9, Type (0, 0), BuildingBlock: UVAHIK_clean_linker_0, # of connection points: 2
#     Edge 10, Type (0, 0), BuildingBlock: UVAHIK_clean_linker_0, # of connection points: 2
#     Edge 11, Type (0, 0), BuildingBlock: UVAHIK_clean_linker_0, # of connection points: 2
#     Edge 12, Type (0, 0), BuildingBlock: UVAHIK_clean_linker_0, # of connection points: 2
#     Edge 13, Type (0, 0), BuildingBlock: UVAHIK_clean_linker_0, # of connection points: 2
#     Edge 14, Type (0, 0), BuildingBlock: UVAHIK_clean_linker_0, # of connection points: 2
#     Edge 15, Type (0, 0), BuildingBlock: UVAHIK_clean_linker_0, # of connection points: 2
#     Edge 16, Type (0, 0), BuildingBlock: UVAHIK_clean_linker_0, # of connection points: 2
#     Edge 17, Type (0, 0), BuildingBlock: UVAHIK_clean_linker_0, # of connection points: 2
#     Edge 18, Type (0, 0), BuildingBlock: UVAHIK_clean_linker_0, # of connection points: 2
#     Edge 19, Type (0, 0), BuildingBlock: UVAHIK_clean_linker_0, # of connection points: 2
#     Edge 20, Type (0, 0), BuildingBlock: UVAHIK_clean_linker_0, # of connection points: 2
#     Edge 21, Type (0, 0), BuildingBlock: UVAHIK_clean_linker_0, # of connection points: 2
#     Edge 22, Type (0, 0), BuildingBlock: UVAHIK_clean_linker_0, # of connection points: 2
#     Edge 23, Type (0, 0), BuildingBlock: UVAHIK_clean_linker_0, # of connection points: 2
# Relax obj value: 0.093
# Max RMSD: 0.171
# Mean RMSD: 0.171
data_MOF--net-umf--node1-MUDLON_clean_sbu_0--edge1-UVAHIK_clean_linker_0
_symmetry_space_group_name_H-M    P1
_symmetry_Int_Tables_number       1
_symmetry_cell_setting            triclinic
loop_
_symmetry_equiv_pos_as_xyz
'x, y, z'
_cell_length_a     37.952545
_cell_length_b     38.255148
_cell_length_c     71.77591
_cell_angle_alpha  89.873124
_cell_angle_beta   90.085324
_cell_angle_gamma 89.959246
loop_
_atom_site_label
_atom_site_type_symbol
_atom_site_fract_x
_atom_site_fract_y
_atom_site_fract_z
_atom_type_partial_charge
Mg0 Mg 0.05981 0.26009 0.15901 0.0
C1 C 0.02872 0.25653 0.12201 0.0
O2 O 0.00285 0.26415 0.13346 0.0
C3 C 0.11355 0.26313 0.1894 0.0
O4 O 0.09372 0.29037 0.19312 0.0
C5 C 0.02949 0.33018 0.17488 0.0
O6 O 0.01204 0.31111 0.18699 0.0
O7 O 0.04895 0.31534 0.16286 0.0
O8 O 0.05953 0.2526 0.12881 0.0
O9 O 0.02009 0.22332 0.16861 0.0
C10 C 0.02512 0.20509 0.18322 0.0
O11 O 0.05085 0.21371 0.19456 0.0
O12 O 0.10763 0.24616 0.17446 0.0
Mg13 Mg 0.74156 0.05325 0.65805 0.0
C14 C 0.74946 0.02444 0.62139 0.0
O15 O 0.74305 -0.00157 0.63289 0.0
C16 C 0.73277 0.09929 0.69048 0.0
O17 O 0.71168 0.0728 0.69378 0.0
C18 C 0.67145 0.01611 0.67057 0.0
O19 O 0.69015 -0.00148 0.68283 0.0
O20 O 0.68657 0.03784 0.65983 0.0
O21 O 0.75102 0.05525 0.62807 0.0
O22 O 0.78141 0.01621 0.66749 0.0
C23 C 0.7973 0.01888 0.68304 0.0
O24 O 0.78531 0.04089 0.69552 0.0
O25 O 0.7488 0.10038 0.6749 0.0
Mg26 Mg 0.95117 0.76425 0.16144 0.0
C27 C 0.97832 0.77065 0.12284 0.0
O28 O 0.00249 0.78596 0.1331 0.0
C29 C 0.88459 0.78794 0.18196 0.0
O30 O 0.89364 0.81838 0.17502 0.0
C31 C 0.00398 0.7037 0.16338 0.0
O32 O 0.01478 0.71691 0.14749 0.0
O33 O 0.9805 0.71984 0.1726 0.0
O34 O 0.95098 0.75854 0.13092 0.0
O35 O 0.97221 0.81606 0.16768 0.0
C36 C 0.96071 0.84021 0.15705 0.0
O37 O 0.93949 0.83166 0.14332 0.0
O38 O 0.90145 0.76078 0.17689 0.0
Mg39 Mg 0.23127 0.93448 0.65458 0.0
C40 C 0.25579 0.92801 0.61381 0.0
O41 O 0.28721 0.92702 0.62149 0.0
C42 C 0.24612 0.89238 0.68834 0.0
O43 O 0.26514 0.92072 0.69052 0.0
C44 C 0.29535 0.98553 0.65214 0.0
O45 O 0.27988 -0.00131 0.63731 0.0
O46 O 0.28004 0.96159 0.66137 0.0
O47 O 0.22873 0.92755 0.62428 0.0
O48 O 0.18322 0.9629 0.66089 0.0
C49 C 0.16973 0.96365 0.67709 0.0
O50 O 0.18772 0.951 0.69123 0.0
O51 O 0.22919 0.88861 0.67311 0.0
Mg52 Mg 0.07206 0.74558 0.88816 0.0
C53 C 0.05032 0.73083 0.92645 0.0
O54 O 0.0227 0.72375 0.91607 0.0
C55 C 0.13509 0.77235 0.86507 0.0
O56 O 0.13122 0.80083 0.87503 0.0
C57 C 0.05967 0.67367 0.87649 0.0
O58 O 0.09407 0.67597 0.87816 0.0
O59 O 0.04114 0.70077 0.87952 0.0
O60 O 0.07869 0.74023 0.91837 0.0
O61 O 0.04667 0.79573 0.88396 0.0
C62 C 0.05888 0.81995 0.89421 0.0
O63 O 0.08308 0.81202 0.90664 0.0
O64 O 0.11693 0.74543 0.86907 0.0
Mg65 Mg 0.24979 0.04268 0.38321 0.0
C66 C 0.22485 0.05155 0.424 0.0
O67 O 0.19348 0.05418 0.41634 0.0
C68 C 0.2494 0.07841 0.34777 0.0
O69 O 0.25848 0.04581 0.34458 0.0
C70 C 0.3178 0.00228 0.38756 0.0
O71 O 0.30576 -0.00088 0.40463 0.0
O72 O 0.299 0.01777 0.37543 0.0
O73 O 0.25183 0.05009 0.4135 0.0
O74 O 0.20426 0.01113 0.37622 0.0
C75 C 0.18959 0.98968 0.38728 0.0
O76 O 0.20436 0.98287 0.40345 0.0
O77 O 0.24426 0.08768 0.3646 0.0
Mg78 Mg 0.93091 0.24696 0.88655 0.0
C79 C 0.95556 0.24373 0.92442 0.0
O80 O 0.98329 0.24368 0.91347 0.0
C81 C 0.89854 0.24382 0.85064 0.0
O82 O 0.93261 0.24831 0.84839 0.0
C83 C 0.93257 0.32221 0.88075 0.0
O84 O 0.89947 0.31525 0.88461 0.0
O85 O 0.95455 0.29712 0.88039 0.0
O86 O 0.92515 0.2451 0.91686 0.0
O87 O 0.96393 0.20215 0.88005 0.0
C88 C 0.94753 0.17488 0.87482 0.0
O89 O 0.91311 0.1762 0.87307 0.0
O90 O 0.88647 0.24314 0.8672 0.0
Mg91 Mg 0.75719 0.91758 0.38774 0.0
C92 C 0.76123 0.94503 0.42495 0.0
O93 O 0.75798 0.97171 0.41351 0.0
C94 C 0.74311 0.85922 0.35986 0.0
O95 O 0.71072 0.87097 0.36136 0.0
C96 C 0.68986 0.94863 0.36858 0.0
O97 O 0.70833 0.95064 0.35315 0.0
O98 O 0.70431 0.93742 0.38341 0.0
O99 O 0.762 0.91438 0.41801 0.0
O100 O 0.79974 0.95262 0.38042 0.0
C101 C 0.81766 0.94825 0.36565 0.0
O102 O 0.8059 0.92672 0.35284 0.0
O103 O 0.76664 0.87111 0.3708 0.0
C104 C 0.04804 0.38859 0.16271 0.0
C105 C 0.02789 0.3689 0.17537 0.0
C106 C 0.04707 0.42502 0.16297 0.0
C107 C 0.02433 0.5012 0.19216 0.0
H108 H 0.0221 0.54905 0.14449 0.0
C109 C 0.99584 0.64972 0.18289 0.0
C110 C 0.01358 0.66732 0.16844 0.0
C111 C 0.00029 0.6137 0.18544 0.0
C112 C 0.02327 0.53617 0.15794 0.0
H113 H 0.99106 0.37226 0.19837 0.0
H114 H 0.98901 0.43623 0.19866 0.0
H115 H 0.02282 0.48559 0.1454 0.0
H116 H 0.05197 0.66132 0.14632 0.0
H117 H 0.06012 0.59877 0.15096 0.0
H118 H 0.02438 0.55212 0.20464 0.0
C119 C 0.00586 0.42327 0.18866 0.0
C120 C 0.02359 0.49972 0.15846 0.0
C121 C 0.00686 0.38663 0.18841 0.0
C122 C 0.03761 0.64855 0.15744 0.0
C123 C 0.04209 0.61262 0.16002 0.0
C124 C 0.02395 0.53782 0.19164 0.0
C125 C 0.02583 0.44287 0.17584 0.0
C126 C 0.02437 0.48174 0.17555 0.0
C127 C 0.02261 0.59456 0.17362 0.0
C128 C 0.02366 0.55571 0.17449 0.0
H129 H 0.06477 0.3759 0.15255 0.0
H130 H 0.06327 0.43924 0.15313 0.0
H131 H 0.02525 0.48815 0.20556 0.0
H132 H 0.97716 0.66338 0.19164 0.0
H133 H 0.98485 0.60059 0.19603 0.0
C134 C 0.3526 0.01536 0.64463 0.0
C135 C 0.33253 0.99411 0.65657 0.0
C136 C 0.38879 0.01971 0.64765 0.0
C137 C 0.46414 0.97487 0.66962 0.0
H138 H 0.51222 0.0629 0.66144 0.0
C139 C 0.61406 0.99238 0.68281 0.0
C140 C 0.63257 0.01261 0.66972 0.0
C141 C 0.57719 0.99066 0.68224 0.0
C142 C 0.49924 0.03803 0.66361 0.0
H143 H 0.3345 0.96217 0.6816 0.0
H144 H 0.39732 0.97006 0.68692 0.0
H145 H 0.4482 0.06028 0.65882 0.0
H146 H 0.62678 0.0463 0.6455 0.0
H147 H 0.56297 0.04284 0.64437 0.0
H148 H 0.51517 0.95249 0.67414 0.0
C149 C 0.38527 0.98283 0.67503 0.0
C150 C 0.46253 0.03657 0.66213 0.0
C151 C 0.34917 0.97853 0.67203 0.0
C152 C 0.61343 0.03063 0.65591 0.0
C153 C 0.57673 0.02888 0.65533 0.0
C154 C 0.50086 0.97631 0.67106 0.0
C155 C 0.40566 0.00288 0.66267 0.0
C156 C 0.44456 0.00492 0.66499 0.0
C157 C 0.55809 0.00914 0.66857 0.0
C158 C 0.5189 0.00785 0.66791 0.0
H159 H 0.34065 0.02766 0.63257 0.0
H160 H 0.40378 0.03517 0.63781 0.0
H161 H 0.45117 0.94995 0.67164 0.0
H162 H 0.62799 0.97826 0.69366 0.0
H163 H 0.56362 0.97538 0.69273 0.0
C164 C 0.91874 0.38589 0.87824 0.0
C165 C 0.94367 0.35874 0.87738 0.0
C166 C 0.92899 0.4206 0.87572 0.0
C167 C 2e-05 0.47634 0.85698 0.0
H168 H 0.96385 0.54446 0.89205 0.0
C169 C 0.06471 0.61035 0.86872 0.0
C170 C 0.04328 0.63934 0.87271 0.0
C171 C 0.0501 0.57711 0.86683 0.0
C172 C 0.97369 0.52595 0.88192 0.0
H173 H 0.99883 0.34668 0.87286 0.0
H174 H 0.01682 0.40749 0.8686 0.0
H175 H 0.94349 0.48419 0.89363 0.0
H176 H 0.98945 0.65644 0.87711 0.0
H177 H 0.96376 0.59819 0.87364 0.0
H178 H 0.03063 0.51806 0.84545 0.0
C179 C 0.98926 0.40181 0.87106 0.0
C180 C 0.9621 0.49136 0.88286 0.0
C181 C 0.97901 0.36701 0.87361 0.0
C182 C 0.00667 0.63459 0.8741 0.0
C183 C 0.992 0.60121 0.87223 0.0
C184 C 0.01157 0.51098 0.85601 0.0
C185 C 0.96439 0.429 0.87226 0.0
C186 C 0.97545 0.46608 0.87055 0.0
C187 C 0.01366 0.57202 0.86886 0.0
C188 C 0.9989 0.53607 0.86864 0.0
H189 H 0.89124 0.38044 0.88101 0.0
H190 H 0.90913 0.44089 0.87647 0.0
H191 H 0.01035 0.45758 0.84711 0.0
H192 H 0.09302 0.6131 0.86751 0.0
H193 H 0.0676 0.5552 0.86446 0.0
C194 C 0.37621 0.97753 0.397 0.0
C195 C 0.35436 0.99169 0.38309 0.0
C196 C 0.41167 0.97061 0.39337 0.0
C197 C 0.48414 -0.00293 0.36226 0.0
H198 H 0.53125 0.9176 0.38485 0.0
C199 C 0.63337 0.96493 0.35222 0.0
C200 C 0.65144 0.95558 0.36861 0.0
C201 C 0.59662 0.96876 0.3523 0.0
C202 C 0.51848 0.94 0.37851 0.0
H203 H 0.35237 0.00859 0.35422 0.0
H204 H 0.41424 -0.00397 0.34782 0.0
H205 H 0.46757 0.92345 0.38768 0.0
H206 H 0.64509 0.94408 0.39808 0.0
H207 H 0.58153 0.9508 0.39817 0.0
H208 H 0.53535 0.01363 0.35322 0.0
C209 C 0.40404 0.99081 0.36163 0.0
C210 C 0.482 0.94338 0.38015 0.0
C211 C 0.36852 -0.00223 0.36527 0.0
C212 C 0.6321 0.95104 0.38514 0.0
C213 C 0.59557 0.95465 0.38519 0.0
C214 C 0.52071 0.99358 0.36054 0.0
C215 C 0.42615 0.97758 0.37572 0.0
C216 C 0.46445 0.97231 0.37238 0.0
C217 C 0.57734 0.96305 0.36875 0.0
C218 C 0.53831 0.96538 0.36899 0.0
H219 H 0.36622 0.97262 0.41089 0.0
H220 H 0.42801 0.96085 0.40462 0.0
H221 H 0.47151 0.01986 0.35625 0.0
H222 H 0.64748 0.96862 0.33926 0.0
H223 H 0.58322 0.97527 0.33942 0.0
C224 C 0.93257 0.24601 0.95748 0.0
C225 C 0.96078 0.24256 0.94494 0.0
C226 C 0.93871 0.24581 0.97679 0.0
C227 C 0.00553 0.21995 1.01232 0.0
H228 H 0.95826 0.28802 0.04341 0.0
C229 C 0.04824 0.2471 0.08874 0.0
C230 C 0.02128 0.25309 0.10176 0.0
C231 C 0.04043 0.24465 0.06966 0.0
C232 C 0.97142 0.26853 0.03499 0.0
H233 H 0.01749 0.23581 0.94296 0.0
H234 H 0.02799 0.23572 0.97625 0.0
H235 H 0.94409 0.28489 1.01032 0.0
H236 H 0.96487 0.2606 0.10486 0.0
H237 H 0.9514 0.25589 0.07192 0.0
H238 H 0.03299 0.20369 0.03697 0.0
C239 C 0.00112 0.23819 0.97132 0.0
C240 C 0.96321 0.26671 1.016 0.0
C241 C 0.99504 0.23851 0.95215 0.0
C242 C 0.98641 0.25621 0.09527 0.0
C243 C 0.97864 0.25373 0.07629 0.0
C244 C 0.01373 0.22175 0.03132 0.0
C245 C 0.97313 0.24193 0.98393 0.0
C246 C 0.98032 0.24255 1.00438 0.0
C247 C 0.0055 0.24813 0.06319 0.0
C248 C 0.99689 0.24616 0.04291 0.0
H249 H 0.90588 0.24914 0.95239 0.0
H250 H 0.91649 0.24848 0.98613 0.0
H251 H 0.01887 0.20066 1.00385 0.0
H252 H 0.07537 0.24463 0.09326 0.0
H253 H 0.06185 0.24063 0.05994 0.0
C254 C 0.75697 0.04389 0.58794 0.0
C255 C 0.75384 0.01702 0.60123 0.0
C256 C 0.75968 0.03589 0.56891 0.0
C257 C 0.7403 0.96463 0.53534 0.0
H258 H 0.8031 0.01581 0.50268 0.0
C259 C 0.76294 0.92411 0.45836 0.0
C260 C 0.76328 0.95154 0.44531 0.0
C261 C 0.76362 0.9313 0.47753 0.0
C262 C 0.78523 0.0014 0.51159 0.0
H263 H 0.75206 0.96067 0.6049 0.0
H264 H 0.7572 0.94696 0.57207 0.0
H265 H 0.80025 0.03096 0.53565 0.0
H266 H 0.76513 0.00801 0.44222 0.0
H267 H 0.76605 0.02034 0.47533 0.0
H268 H 0.72514 0.9352 0.51128 0.0
C269 C 0.75684 0.97418 0.57619 0.0
C270 C 0.78354 0.01018 0.53049 0.0
C271 C 0.75411 0.98212 0.59509 0.0
C272 C 0.76483 0.98616 0.45184 0.0
C273 C 0.76563 0.9933 0.47089 0.0
C274 C 0.74202 0.95584 0.51645 0.0
C275 C 0.75929 0.00089 0.56281 0.0
C276 C 0.76101 0.99194 0.54261 0.0
C277 C 0.76486 0.96604 0.48401 0.0
C278 C 0.76439 0.9742 0.50431 0.0
H279 H 0.75682 0.07102 0.59221 0.0
H280 H 0.7613 0.05714 0.55896 0.0
H281 H 0.72222 0.95037 0.54419 0.0
H282 H 0.76179 0.89717 0.45379 0.0
H283 H 0.76331 0.90966 0.48728 0.0
C284 C 0.96119 0.74754 0.09111 0.0
C285 C 0.98456 0.76632 0.10253 0.0
C286 C 0.96861 0.74272 0.07212 0.0
C287 C 0.02358 0.77834 0.03351 0.0
H288 H 0.00568 0.68865 1.01037 0.0
C289 C 0.07128 0.7472 0.95867 0.0
C290 C 0.04654 0.73073 0.94705 0.0
C291 C 0.0651 0.74999 0.97789 0.0
C292 C 0.01065 0.71395 1.01659 0.0
H293 H 0.03398 0.79491 0.10283 0.0
H294 H 0.04691 0.78624 0.07011 0.0
H295 H 0.9904 0.69749 0.04305 0.0
H296 H 0.9966 0.70311 0.94665 0.0
H297 H 0.98597 0.70797 0.97989 0.0
H298 H 0.04378 0.79482 1.00707 0.0
C299 C 0.02261 0.7756 0.07562 0.0
C300 C 0.00173 0.71906 0.03532 0.0
C301 C 0.01524 0.78039 0.09449 0.0
C302 C 0.01622 0.71606 0.95516 0.0
C303 C 0.01018 0.71865 0.9743 0.0
C304 C 0.03255 0.77321 1.01481 0.0
C305 C -0.00049 0.75665 0.06415 0.0
C306 C 0.00808 0.75133 0.04405 0.0
C307 C 0.03421 0.73612 0.9859 0.0
C308 C 0.02616 0.74097 1.00608 0.0
H309 H 0.93735 0.73635 0.09685 0.0
H310 H 0.95001 0.72828 0.06366 0.0
H311 H 0.02835 0.80374 0.03965 0.0
H312 H 0.09485 0.75882 0.95286 0.0
H313 H 0.08439 0.76325 0.98647 0.0
C314 C 0.19822 0.03935 0.45542 0.0
C315 C 0.22834 0.04356 0.44423 0.0
C316 C 0.20117 0.02739 0.47382 0.0
C317 C 0.26164 0.97741 0.50462 0.0
H318 H 0.20119 0.0118 0.54402 0.0
C319 C 0.28205 0.94053 0.58236 0.0
C320 C 0.25204 0.93591 0.59358 0.0
C321 C 0.27886 0.95232 0.56394 0.0
C322 C 0.21797 0.00153 0.53313 0.0
H323 H 0.28537 0.0397 0.44399 0.0
H324 H 0.29053 0.01949 0.47611 0.0
H325 H 0.19673 0.03698 0.51287 0.0
H326 H 0.19496 0.93891 0.59387 0.0
H327 H 0.1894 0.95897 0.56171 0.0
H328 H 0.28293 0.94202 0.52489 0.0
C329 C 0.26452 0.02477 0.47055 0.0
C330 C 0.21546 0.01607 0.51524 0.0
C331 C 0.26157 0.03672 0.45215 0.0
C332 C 0.21867 0.94221 0.58568 0.0
C333 C 0.21549 0.95406 0.56726 0.0
C334 C 0.26417 0.9629 0.52251 0.0
C335 C 0.23432 0.01931 0.48154 0.0
C336 C 0.23729 0.00425 0.50073 0.0
C337 C 0.24558 0.95986 0.55624 0.0
C338 C 0.24238 0.97476 0.53703 0.0
H339 H 0.17217 0.04419 0.44979 0.0
H340 H 0.17729 0.02327 0.48176 0.0
H341 H 0.27843 0.96713 0.49374 0.0
H342 H 0.30819 0.93609 0.58796 0.0
H343 H 0.30265 0.95672 0.55596 0.0
C344 C 0.13879 0.26528 0.22163 0.0
C345 C 0.13686 0.24869 0.20418 0.0
C346 C 0.15597 0.2493 0.23664 0.0
C347 C 0.182 0.16124 0.25303 0.0
H348 H 0.22888 0.21271 0.29242 0.0
C349 C 0.25001 0.09023 0.31358 0.0
C350 C 0.24258 0.10202 0.3317 0.0
C351 C 0.24065 0.11013 0.29803 0.0
C352 C 0.21565 0.19805 0.28158 0.0
H353 H 0.15347 0.20314 0.18857 0.0
H354 H 0.18439 0.17566 0.21461 0.0
H355 H 0.20815 0.24363 0.26462 0.0
H356 H 0.22077 0.14488 0.34768 0.0
H357 H 0.20436 0.17995 0.32031 0.0
H358 H 0.18954 0.11573 0.26992 0.0
C359 C 0.17171 0.20067 0.21684 0.0
C360 C 0.20375 0.21573 0.26563 0.0
C361 C 0.15428 0.21658 0.20183 0.0
C362 C 0.22684 0.13504 0.33391 0.0
C363 C 0.21752 0.15514 0.31825 0.0
C364 C 0.1941 0.14361 0.26886 0.0
C365 C 0.17195 0.21636 0.23459 0.0
C366 C 0.18662 0.19756 0.25115 0.0
C367 C 0.22364 0.14247 0.30012 0.0
C368 C 0.21101 0.16176 0.28335 0.0
H369 H 0.12569 0.29004 0.22398 0.0
H370 H 0.15525 0.26213 0.25006 0.0
H371 H 0.16819 0.14641 0.24247 0.0
H372 H 0.26246 0.06512 0.31129 0.0
H373 H 0.24639 0.09993 0.2843 0.0
C374 C 0.8396 0.23964 0.83432 0.0
C375 C 0.87643 0.2361 0.83412 0.0
C376 C 0.81972 0.23211 0.81829 0.0
C377 C 0.83042 0.21425 0.76695 0.0
H378 H 0.73948 0.16976 0.77238 0.0
C379 C 0.7604 0.15451 0.70294 0.0
C380 C 0.74228 0.12304 0.706 0.0
C381 C 0.77164 0.17492 0.71805 0.0
C382 C 0.76504 0.18179 0.77054 0.0
H383 H 0.92116 0.22108 0.81712 0.0
H384 H 0.88699 0.20646 0.78991 0.0
H385 H 0.76974 0.19148 0.79976 0.0
H386 H 0.72141 0.08854 0.72732 0.0
H387 H 0.74235 0.12252 0.75331 0.0
H388 H 0.82728 0.20196 0.73804 0.0
C389 C 0.87312 0.21652 0.80193 0.0
C390 C 0.78219 0.19493 0.78632 0.0
C391 C 0.89286 0.22461 0.81771 0.0
C392 C 0.73502 0.11282 0.72441 0.0
C393 C 0.74686 0.13267 0.73944 0.0
C394 C 0.81371 0.20035 0.75126 0.0
C395 C 0.83626 0.22034 0.80184 0.0
C396 C 0.81564 0.21048 0.78484 0.0
C397 C 0.76571 0.16389 0.73658 0.0
C398 C 0.78116 0.18303 0.75285 0.0
H399 H 0.82624 0.24856 0.84676 0.0
H400 H 0.79145 0.23574 0.8188 0.0
H401 H 0.85555 0.22712 0.76503 0.0
H402 H 0.76619 0.16318 0.6889 0.0
H403 H 0.78536 0.19911 0.71515 0.0
C404 C 0.72789 0.82848 0.33007 0.0
C405 C 0.75347 0.83882 0.34314 0.0
C406 C 0.73787 0.81502 0.31274 0.0
C407 C 0.81423 0.78118 0.28539 0.0
H408 H 0.76413 0.82236 0.24363 0.0
C409 C 0.85796 0.75636 0.20936 0.0
C410 C 0.86048 0.7866 0.19824 0.0
C411 C 0.84016 0.75722 0.22645 0.0
C412 C 0.7784 0.81057 0.25511 0.0
H413 H 0.80966 0.84109 0.3486 0.0
H414 H 0.82702 0.81796 0.31841 0.0
H415 H 0.7435 0.83283 0.27521 0.0
H416 H 0.84446 0.84089 0.19596 0.0
H417 H 0.81367 0.8424 0.22559 0.0
H418 H 0.85012 0.76032 0.26528 0.0
C419 C 0.7992 0.81996 0.32155 0.0
C420 C 0.76631 0.81623 0.27326 0.0
C421 C 0.78922 0.83336 0.3389 0.0
C422 C 0.84309 0.81709 0.20413 0.0
C423 C 0.82525 0.81792 0.22115 0.0
C424 C 0.82632 0.7755 0.26721 0.0
C425 C 0.77367 0.8116 0.30803 0.0
C426 C 0.78444 0.80218 0.28868 0.0
C427 C 0.8243 0.78827 0.23277 0.0
C428 C 0.80898 0.79074 0.25186 0.0
H429 H 0.7001 0.83208 0.3329 0.0
H430 H 0.71748 0.80819 0.30283 0.0
H431 H 0.82862 0.76961 0.29689 0.0
H432 H 0.87103 0.73241 0.20526 0.0
H433 H 0.83949 0.73376 0.23492 0.0
C434 C 0.25922 0.87565 0.72123 0.0
C435 C 0.24088 0.86883 0.70459 0.0
C436 C 0.25159 0.85726 0.73752 0.0
C437 C 0.17983 0.80619 0.75955 0.0
H438 H 0.24972 0.79559 0.79867 0.0
C439 C 0.14604 0.75076 0.8326 0.0
C440 C 0.15446 0.77396 0.84714 0.0
C441 C 0.15974 0.75585 0.8147 0.0
C442 C 0.22998 0.79827 0.78784 0.0
H443 H 0.20125 0.83582 0.69188 0.0
H444 H 0.18856 0.80268 0.72033 0.0
H445 H 0.26806 0.81408 0.76762 0.0
H446 H 0.18542 0.81948 0.85449 0.0
H447 H 0.21023 0.82766 0.82335 0.0
H448 H 0.14188 0.79002 0.77993 0.0
C449 C 0.20832 0.82304 0.72084 0.0
C450 C 0.24037 0.80909 0.77004 0.0
C451 C 0.21581 0.84179 0.70446 0.0
C452 C 0.17845 0.80114 0.84361 0.0
C453 C 0.1927 0.8058 0.8258 0.0
C454 C 0.16956 0.79475 0.77728 0.0
C455 C 0.22563 0.83106 0.73772 0.0
C456 C 0.21531 0.81429 0.75577 0.0
C457 C 0.18274 0.78377 0.81105 0.0
C458 C 0.1944 0.79158 0.79173 0.0
H459 H 0.27874 0.89625 0.72193 0.0
H460 H 0.26513 0.86485 0.75016 0.0
H461 H 0.15962 0.81024 0.74911 0.0
H462 H 0.12748 0.72966 0.83479 0.0
H463 H 0.1518 0.73839 0.8036 0.0
C464 C 0.02096 0.14601 0.19819 0.0
C465 C 0.00911 0.16985 0.1846 0.0
C466 C 0.01226 0.11056 0.19697 0.0
C467 C 0.99102 0.04666 0.1608 0.0
H468 H 0.97297 0.98354 0.20203 0.0
C469 C 0.95396 0.9032 0.14882 0.0
C470 C 0.96789 0.87758 0.16081 0.0
C471 C 0.95856 0.93863 0.15258 0.0
C472 C 0.97843 0.0008 0.19041 0.0
H473 H 0.97607 0.17566 0.16008 0.0
H474 H 0.9605 0.114 0.15814 0.0
H475 H 0.97822 0.04636 0.2078 0.0
H476 H 0.99797 0.86917 0.18613 0.0
H477 H 0.00655 0.93145 0.1926 0.0
H478 H 0.99178 0.00142 0.14343 0.0
C479 C 0.97728 0.12257 0.16947 0.0
C480 C 0.98125 0.03678 0.19371 0.0
C481 C 0.98597 0.15798 0.17068 0.0
C482 C 0.98697 0.88828 0.1766 0.0
C483 C 0.99162 0.92393 0.18038 0.0
C484 C 0.98833 0.01084 0.15753 0.0
C485 C 0.99148 0.09826 0.18215 0.0
C486 C 0.98733 0.06012 0.17889 0.0
C487 C 0.97736 0.9495 0.16841 0.0
C488 C 0.98175 0.98745 0.17225 0.0
H489 H 0.03873 0.15426 0.20915 0.0
H490 H 0.02361 0.09253 0.20696 0.0
H491 H 0.99668 0.06378 0.14914 0.0
H492 H 0.93898 0.89597 0.13656 0.0
H493 H 0.94674 0.95754 0.14322 0.0
C494 C 0.10997 0.97504 0.6636 0.0
C495 C 0.13194 0.97241 0.67934 0.0
C496 C 0.07352 0.9782 0.66563 0.0
C497 C 0.00308 0.00503 0.69693 0.0
H498 H 0.94625 0.93949 0.66875 0.0
C499 C 0.85157 0.00742 0.70209 0.0
C500 C 0.83316 0.00401 0.68519 0.0
C501 C 0.8875 -0.00066 0.70313 0.0
C502 C 0.96161 0.95824 0.67658 0.0
H503 H 0.13295 0.97284 0.70956 0.0
H504 H 0.06909 0.97932 0.71305 0.0
H505 H 0.01028 0.93689 0.66668 0.0
H506 H 0.83768 0.9876 0.65637 0.0
H507 H 0.90008 0.97448 0.65801 0.0
H508 H 0.95464 0.02747 0.70625 0.0
C509 C 0.08024 0.97846 0.69918 0.0
C510 C 0.99832 0.95665 0.67542 0.0
C511 C 0.11675 0.97476 0.69716 0.0
C512 C 0.85098 0.99045 0.66964 0.0
C513 C 0.88692 0.98278 0.67062 0.0
C514 C 0.9663 0.00699 0.69789 0.0
C515 C 0.05825 0.97933 0.68342 0.0
C516 C 0.01939 0.98027 0.6854 0.0
C517 C 0.90592 0.98799 0.68725 0.0
C518 C 0.94503 0.98387 0.68755 0.0
H519 H 0.12073 0.9733 0.64966 0.0
H520 H 0.05717 0.97932 0.65325 0.0
H521 H 0.01875 0.02363 0.70471 0.0
H522 H 0.83856 0.01756 0.71437 0.0
H523 H 0.90099 0.00285 0.7163 0.0
C524 C 0.99813 0.13468 0.8816 0.0
C525 C 0.96567 0.14098 0.87279 0.0
C526 C 0.01227 0.10091 0.88203 0.0
C527 C 0.0066 0.01299 0.86094 0.0
H528 H 0.03013 0.98053 0.91063 0.0
C529 C 0.0222 0.86621 0.87858 0.0
C530 C 0.04887 0.8569 0.89124 0.0
C531 C 0.01402 0.90142 0.87544 0.0
C532 C 0.02424 0.98921 0.89659 0.0
H533 H 0.92381 0.1176 0.85642 0.0
H534 H 0.94865 0.0589 0.85702 0.0
H535 H 0.01535 0.04172 0.90565 0.0
H536 H 0.08804 0.87722 0.91044 0.0
H537 H 0.07434 0.93823 0.90473 0.0
H538 H 0.01544 0.96045 0.85187 0.0
C539 C 0.96308 0.07987 0.86368 0.0
C540 C 0.01582 0.02433 0.89375 0.0
C541 C 0.94877 0.11345 0.86344 0.0
C542 C 0.06712 0.88344 0.9007 0.0
C543 C 0.05915 0.91852 0.89748 0.0
C544 C 0.01533 0.97786 0.86374 0.0
C545 C 0.99443 0.07304 0.87343 0.0
C546 C 0.00659 0.03652 0.87594 0.0
C547 C 0.0325 0.928 0.88484 0.0
C548 C 0.02394 0.96548 0.88165 0.0
H549 H 0.01172 0.15542 0.88893 0.0
H550 H 0.03669 0.09638 0.8895 0.0
H551 H -0.00023 0.02177 0.84703 0.0
H552 H 0.00766 0.84634 0.87108 0.0
H553 H 0.99297 0.90778 0.86581 0.0
C554 C 0.87578 0.9544 0.34935 0.0
C555 C 0.85496 0.95954 0.36532 0.0
C556 C 0.91239 0.95857 0.35022 0.0
C557 C 0.98343 0.94589 0.38262 0.0
H558 H 0.04085 0.0045 0.35075 0.0
C559 C 0.1301 0.97084 0.39819 0.0
C560 C 0.15304 0.97853 0.38343 0.0
C561 C 0.09412 0.96619 0.3949 0.0
C562 C 0.02538 0.98737 0.35952 0.0
H563 H 0.85611 0.97513 0.39441 0.0
H564 H 0.91991 0.98168 0.39589 0.0
H565 H 0.977 0.00356 0.34654 0.0
H566 H 0.15681 0.98517 0.35351 0.0
H567 H 0.09438 0.97525 0.34759 0.0
H568 H 0.03132 0.92866 0.39529 0.0
C569 C 0.90783 0.97444 0.38277 0.0
C570 C 0.98878 0.98715 0.35717 0.0
C571 C 0.87129 0.9709 0.38184 0.0
C572 C 0.13966 0.97949 0.36518 0.0
C573 C 0.10377 0.9742 0.36183 0.0
C574 C 0.02 0.94554 0.38474 0.0
C575 C 0.92873 0.9674 0.36712 0.0
C576 C 0.96752 0.96685 0.36892 0.0
C577 C 0.08031 0.96848 0.3767 0.0
C578 C 0.04151 0.96671 0.37344 0.0
H579 H 0.86398 0.94569 0.33642 0.0
H580 H 0.92807 0.95309 0.33796 0.0
H581 H 0.96752 0.92957 0.39164 0.0
H582 H 0.13957 0.97032 0.41244 0.0
H583 H 0.07701 0.96237 0.40678 0.0
loop_
_geom_bond_atom_site_label_1
_geom_bond_atom_site_label_2
_geom_bond_distance
_geom_bond_site_symmetry_2
_ccdc_geom_bond_type
Mg0 O7 2.141 . S
Mg0 O8 2.048 . S
Mg0 O9 2.048 . S
Mg0 O12 2.141 . S
C1 O2 1.313 . S
C1 O8 1.195 . S
O2 C1 1.313 . S
C3 O4 1.245 . S
C3 O12 1.289 . S
O4 C3 1.245 . S
C5 O6 1.245 . S
C5 O7 1.289 . S
O6 C5 1.245 . S
O7 Mg0 2.141 . S
O7 C5 1.289 . S
O8 Mg0 2.048 . S
O8 C1 1.195 . S
O9 Mg0 2.048 . S
O9 C10 1.195 . S
C10 O9 1.195 . S
C10 O11 1.313 . S
O11 C10 1.313 . S
O12 Mg0 2.141 . S
O12 C3 1.289 . S
Mg13 O20 2.141 . S
Mg13 O21 2.048 . S
Mg13 O22 2.048 . S
Mg13 O25 2.141 . S
C14 O15 1.313 . S
C14 O21 1.195 . S
O15 C14 1.313 . S
C16 O17 1.245 . S
C16 O25 1.289 . S
O17 C16 1.245 . S
C18 O19 1.245 . S
C18 O20 1.289 . S
O19 C18 1.245 . S
O20 Mg13 2.141 . S
O20 C18 1.289 . S
O21 Mg13 2.048 . S
O21 C14 1.195 . S
O22 Mg13 2.048 . S
O22 C23 1.195 . S
C23 O22 1.195 . S
C23 O24 1.313 . S
O24 C23 1.313 . S
O25 Mg13 2.141 . S
O25 C16 1.289 . S
Mg26 O33 2.141 . S
Mg26 O34 2.048 . S
Mg26 O35 2.048 . S
Mg26 O38 2.141 . S
C27 O28 1.313 . S
C27 O34 1.195 . S
O28 C27 1.313 . S
C29 O30 1.245 . S
C29 O38 1.289 . S
O30 C29 1.245 . S
C31 O32 1.245 . S
C31 O33 1.289 . S
O32 C31 1.245 . S
O33 Mg26 2.141 . S
O33 C31 1.289 . S
O34 Mg26 2.048 . S
O34 C27 1.195 . S
O35 Mg26 2.048 . S
O35 C36 1.195 . S
C36 O35 1.195 . S
C36 O37 1.313 . S
O37 C36 1.313 . S
O38 Mg26 2.141 . S
O38 C29 1.289 . S
Mg39 O46 2.141 . S
Mg39 O47 2.048 . S
Mg39 O48 2.048 . S
Mg39 O51 2.141 . S
C40 O41 1.313 . S
C40 O47 1.195 . S
O41 C40 1.313 . S
C42 O43 1.245 . S
C42 O51 1.289 . S
O43 C42 1.245 . S
C44 O45 1.245 . S
C44 O46 1.289 . S
O45 C44 1.245 . S
O46 Mg39 2.141 . S
O46 C44 1.289 . S
O47 Mg39 2.048 . S
O47 C40 1.195 . S
O48 Mg39 2.048 . S
O48 C49 1.195 . S
C49 O48 1.195 . S
C49 O50 1.313 . S
O50 C49 1.313 . S
O51 Mg39 2.141 . S
O51 C42 1.289 . S
Mg52 O59 2.141 . S
Mg52 O60 2.048 . S
Mg52 O61 2.048 . S
Mg52 O64 2.141 . S
C53 O54 1.313 . S
C53 O60 1.195 . S
O54 C53 1.313 . S
C55 O56 1.245 . S
C55 O64 1.289 . S
O56 C55 1.245 . S
C57 O58 1.245 . S
C57 O59 1.289 . S
O58 C57 1.245 . S
O59 Mg52 2.141 . S
O59 C57 1.289 . S
O60 Mg52 2.048 . S
O60 C53 1.195 . S
O61 Mg52 2.048 . S
O61 C62 1.195 . S
C62 O61 1.195 . S
C62 O63 1.313 . S
O63 C62 1.313 . S
O64 Mg52 2.141 . S
O64 C55 1.289 . S
Mg65 O72 2.141 . S
Mg65 O73 2.048 . S
Mg65 O74 2.048 . S
Mg65 O77 2.141 . S
C66 O67 1.313 . S
C66 O73 1.195 . S
O67 C66 1.313 . S
C68 O69 1.245 . S
C68 O77 1.289 . S
O69 C68 1.245 . S
C70 O71 1.245 . S
C70 O72 1.289 . S
O71 C70 1.245 . S
O72 Mg65 2.141 . S
O72 C70 1.289 . S
O73 Mg65 2.048 . S
O73 C66 1.195 . S
O74 Mg65 2.048 . S
O74 C75 1.195 . S
C75 O74 1.195 . S
C75 O76 1.313 . S
O76 C75 1.313 . S
O77 Mg65 2.141 . S
O77 C68 1.289 . S
Mg78 O85 2.141 . S
Mg78 O86 2.048 . S
Mg78 O87 2.048 . S
Mg78 O90 2.141 . S
C79 O80 1.313 . S
C79 O86 1.195 . S
O80 C79 1.313 . S
C81 O82 1.245 . S
C81 O90 1.289 . S
O82 C81 1.245 . S
C83 O84 1.245 . S
C83 O85 1.289 . S
O84 C83 1.245 . S
O85 Mg78 2.141 . S
O85 C83 1.289 . S
O86 Mg78 2.048 . S
O86 C79 1.195 . S
O87 Mg78 2.048 . S
O87 C88 1.195 . S
C88 O87 1.195 . S
C88 O89 1.313 . S
O89 C88 1.313 . S
O90 Mg78 2.141 . S
O90 C81 1.289 . S
Mg91 O98 2.141 . S
Mg91 O99 2.048 . S
Mg91 O100 2.048 . S
Mg91 O103 2.141 . S
C92 O93 1.313 . S
C92 O99 1.195 . S
O93 C92 1.313 . S
C94 O95 1.245 . S
C94 O103 1.289 . S
O95 C94 1.245 . S
C96 O97 1.245 . S
C96 O98 1.289 . S
O97 C96 1.245 . S
O98 Mg91 2.141 . S
O98 C96 1.289 . S
O99 Mg91 2.048 . S
O99 C92 1.195 . S
O100 Mg91 2.048 . S
O100 C101 1.195 . S
C101 O100 1.195 . S
C101 O102 1.313 . S
O102 C101 1.313 . S
O103 Mg91 2.141 . S
O103 C94 1.289 . S
C104 C105 1.349 . S
C104 C106 1.327 . S
C104 H129 0.950 . S
C105 C104 1.349 . S
C105 C121 1.349 . S
C106 C104 1.327 . S
C106 C125 1.429 . S
C106 H130 0.950 . S
C107 C124 1.574 . S
C107 C126 1.368 1_655 S
C107 H131 0.949 . S
H108 C112 0.949 . S
C109 C110 1.349 . S
C109 C111 1.327 . S
C109 H132 0.950 . S
C110 C109 1.349 . S
C110 C122 1.349 . S
C111 C109 1.327 . S
C111 C127 1.429 . S
C111 H133 0.950 . S
C112 H108 0.949 . S
C112 C120 1.574 . S
C112 C128 1.368 1_455 S
H113 C121 0.950 . S
H114 C119 0.950 . S
H115 C120 0.949 . S
H116 C122 0.950 . S
H117 C123 0.950 . S
H118 C124 0.949 . S
C119 H114 0.950 . S
C119 C121 1.327 . S
C119 C125 1.429 . S
C120 C112 1.574 . S
C120 H115 0.949 . S
C120 C126 1.368 . S
C121 C105 1.349 . S
C121 H113 0.950 . S
C121 C119 1.327 . S
C122 C110 1.349 . S
C122 H116 0.950 . S
C122 C123 1.327 . S
C123 H117 0.950 . S
C123 C122 1.327 . S
C123 C127 1.429 . S
C124 C107 1.574 . S
C124 H118 0.949 . S
C124 C128 1.368 . S
C125 C106 1.429 . S
C125 C119 1.429 . S
C125 C126 1.523 . S
C126 C107 1.368 1_455 S
C126 C120 1.368 . S
C126 C125 1.523 . S
C127 C111 1.429 . S
C127 C123 1.429 . S
C127 C128 1.523 . S
C128 C112 1.368 1_655 S
C128 C124 1.368 . S
C128 C127 1.523 . S
H129 C104 0.950 . S
H130 C106 0.950 . S
H131 C107 0.949 . S
H132 C109 0.950 . S
H133 C111 0.950 . S
C134 C135 1.349 . S
C134 C136 1.327 . S
C134 H159 0.950 . S
C135 C134 1.349 . S
C135 C151 1.349 . S
C136 C134 1.327 . S
C136 C155 1.429 . S
C136 H160 0.950 . S
C137 C154 1.574 . S
C137 C156 1.368 . S
C137 H161 0.949 . S
H138 C142 0.949 . S
C139 C140 1.349 . S
C139 C141 1.327 . S
C139 H162 0.950 . S
C140 C139 1.349 . S
C140 C152 1.349 . S
C141 C139 1.327 . S
C141 C157 1.429 . S
C141 H163 0.950 . S
C142 H138 0.949 . S
C142 C150 1.574 . S
C142 C158 1.368 . S
H143 C151 0.950 . S
H144 C149 0.950 . S
H145 C150 0.949 . S
H146 C152 0.950 . S
H147 C153 0.950 . S
H148 C154 0.949 . S
C149 H144 0.950 . S
C149 C151 1.327 . S
C149 C155 1.429 . S
C150 C142 1.574 . S
C150 H145 0.949 . S
C150 C156 1.368 1_545 S
C151 C135 1.349 . S
C151 H143 0.950 . S
C151 C149 1.327 . S
C152 C140 1.349 . S
C152 H146 0.950 . S
C152 C153 1.327 . S
C153 H147 0.950 . S
C153 C152 1.327 . S
C153 C157 1.429 . S
C154 C137 1.574 . S
C154 H148 0.949 . S
C154 C158 1.368 1_565 S
C155 C136 1.429 . S
C155 C149 1.429 . S
C155 C156 1.523 . S
C156 C137 1.368 . S
C156 C150 1.368 1_565 S
C156 C155 1.523 . S
C157 C141 1.429 . S
C157 C153 1.429 . S
C157 C158 1.523 . S
C158 C142 1.368 . S
C158 C154 1.368 1_545 S
C158 C157 1.523 . S
H159 C134 0.950 . S
H160 C136 0.950 . S
H161 C137 0.949 . S
H162 C139 0.950 . S
H163 C141 0.950 . S
C164 C165 1.349 . S
C164 C166 1.327 . S
C164 H189 0.950 . S
C165 C164 1.349 . S
C165 C181 1.349 . S
C166 C164 1.327 . S
C166 C185 1.429 . S
C166 H190 0.950 . S
C167 C184 1.574 . S
C167 C186 1.368 . S
C167 H191 0.949 . S
H168 C172 0.949 . S
C169 C170 1.349 . S
C169 C171 1.327 . S
C169 H192 0.950 . S
C170 C169 1.349 . S
C170 C182 1.349 . S
C171 C169 1.327 . S
C171 C187 1.429 . S
C171 H193 0.950 . S
C172 H168 0.949 . S
C172 C180 1.574 . S
C172 C188 1.368 . S
H173 C181 0.950 . S
H174 C179 0.950 . S
H175 C180 0.949 . S
H176 C182 0.950 . S
H177 C183 0.950 . S
H178 C184 0.949 . S
C179 H174 0.950 . S
C179 C181 1.327 . S
C179 C185 1.429 . S
C180 C172 1.574 . S
C180 H175 0.949 . S
C180 C186 1.368 1_455 S
C181 C165 1.349 . S
C181 H173 0.950 . S
C181 C179 1.327 . S
C182 C170 1.349 . S
C182 H176 0.950 . S
C182 C183 1.327 . S
C183 H177 0.950 . S
C183 C182 1.327 . S
C183 C187 1.429 . S
C184 C167 1.574 . S
C184 H178 0.949 . S
C184 C188 1.368 1_655 S
C185 C166 1.429 . S
C185 C179 1.429 . S
C185 C186 1.523 . S
C186 C167 1.368 . S
C186 C180 1.368 1_655 S
C186 C185 1.523 . S
C187 C171 1.429 . S
C187 C183 1.429 . S
C187 C188 1.523 . S
C188 C172 1.368 . S
C188 C184 1.368 1_455 S
C188 C187 1.523 . S
H189 C164 0.950 . S
H190 C166 0.950 . S
H191 C167 0.949 . S
H192 C169 0.950 . S
H193 C171 0.950 . S
C194 C195 1.349 . S
C194 C196 1.327 . S
C194 H219 0.950 . S
C195 C194 1.349 . S
C195 C211 1.349 . S
C196 C194 1.327 . S
C196 C215 1.429 . S
C196 H220 0.950 . S
C197 C214 1.574 . S
C197 C216 1.368 . S
C197 H221 0.949 . S
H198 C202 0.949 . S
C199 C200 1.349 . S
C199 C201 1.327 . S
C199 H222 0.950 . S
C200 C199 1.349 . S
C200 C212 1.349 . S
C201 C199 1.327 . S
C201 C217 1.429 . S
C201 H223 0.950 . S
C202 H198 0.949 . S
C202 C210 1.574 . S
C202 C218 1.368 . S
H203 C211 0.950 . S
H204 C209 0.950 . S
H205 C210 0.949 . S
H206 C212 0.950 . S
H207 C213 0.950 . S
H208 C214 0.949 . S
C209 H204 0.950 . S
C209 C211 1.327 . S
C209 C215 1.429 . S
C210 C202 1.574 . S
C210 H205 0.949 . S
C210 C216 1.368 1_565 S
C211 C195 1.349 . S
C211 H203 0.950 . S
C211 C209 1.327 . S
C212 C200 1.349 . S
C212 H206 0.950 . S
C212 C213 1.327 . S
C213 H207 0.950 . S
C213 C212 1.327 . S
C213 C217 1.429 . S
C214 C197 1.574 . S
C214 H208 0.949 . S
C214 C218 1.368 1_545 S
C215 C196 1.429 . S
C215 C209 1.429 . S
C215 C216 1.523 . S
C216 C197 1.368 . S
C216 C210 1.368 1_545 S
C216 C215 1.523 . S
C217 C201 1.429 . S
C217 C213 1.429 . S
C217 C218 1.523 . S
C218 C202 1.368 . S
C218 C214 1.368 1_565 S
C218 C217 1.523 . S
H219 C194 0.950 . S
H220 C196 0.950 . S
H221 C197 0.949 . S
H222 C199 0.950 . S
H223 C201 0.950 . S
C224 C225 1.349 . S
C224 C226 1.327 . S
C224 H249 0.950 . S
C225 C224 1.349 . S
C225 C241 1.349 . S
C226 C224 1.327 . S
C226 C245 1.429 . S
C226 H250 0.950 . S
C227 C244 1.574 1_556 S
C227 C246 1.368 1_455 S
C227 H251 0.949 . S
H228 C232 0.949 . S
C229 C230 1.349 . S
C229 C231 1.327 . S
C229 H252 0.950 . S
C230 C229 1.349 . S
C230 C242 1.349 . S
C231 C229 1.327 . S
C231 C247 1.429 . S
C231 H253 0.950 . S
C232 H228 0.949 . S
C232 C240 1.574 1_554 S
C232 C248 1.368 1_655 S
H233 C241 0.950 . S
H234 C239 0.950 1_455 S
H235 C240 0.949 . S
H236 C242 0.950 . S
H237 C243 0.950 1_655 S
H238 C244 0.949 . S
C239 H234 0.950 1_655 S
C239 C241 1.327 . S
C239 C245 1.429 . S
C240 C232 1.574 1_556 S
C240 H235 0.949 . S
C240 C246 1.368 . S
C241 C225 1.349 . S
C241 H233 0.950 . S
C241 C239 1.327 . S
C242 C230 1.349 . S
C242 H236 0.950 . S
C242 C243 1.327 . S
C243 H237 0.950 1_455 S
C243 C242 1.327 . S
C243 C247 1.429 . S
C244 C227 1.574 1_554 S
C244 H238 0.949 . S
C244 C248 1.368 . S
C245 C226 1.429 . S
C245 C239 1.429 . S
C245 C246 1.523 . S
C246 C227 1.368 1_655 S
C246 C240 1.368 . S
C246 C245 1.523 . S
C247 C231 1.429 . S
C247 C243 1.429 . S
C247 C248 1.523 . S
C248 C232 1.368 1_455 S
C248 C244 1.368 . S
C248 C247 1.523 . S
H249 C224 0.950 . S
H250 C226 0.950 . S
H251 C227 0.949 . S
H252 C229 0.950 . S
H253 C231 0.950 . S
C254 C255 1.349 . S
C254 C256 1.327 . S
C254 H279 0.950 . S
C255 C254 1.349 . S
C255 C271 1.349 . S
C256 C254 1.327 . S
C256 C275 1.429 . S
C256 H280 0.950 . S
C257 C274 1.574 . S
C257 C276 1.368 1_565 S
C257 H281 0.949 . S
H258 C262 0.949 . S
C259 C260 1.349 . S
C259 C261 1.327 . S
C259 H282 0.950 . S
C260 C259 1.349 . S
C260 C272 1.349 . S
C261 C259 1.327 . S
C261 C277 1.429 . S
C261 H283 0.950 . S
C262 H258 0.949 . S
C262 C270 1.574 . S
C262 C278 1.368 1_545 S
H263 C271 0.950 . S
H264 C269 0.950 1_565 S
H265 C270 0.949 . S
H266 C272 0.950 . S
H267 C273 0.950 1_545 S
H268 C274 0.949 . S
C269 H264 0.950 1_545 S
C269 C271 1.327 . S
C269 C275 1.429 . S
C270 C262 1.574 . S
C270 H265 0.949 . S
C270 C276 1.368 . S
C271 C255 1.349 . S
C271 H263 0.950 . S
C271 C269 1.327 . S
C272 C260 1.349 . S
C272 H266 0.950 . S
C272 C273 1.327 . S
C273 H267 0.950 1_565 S
C273 C272 1.327 . S
C273 C277 1.429 . S
C274 C257 1.574 . S
C274 H268 0.949 . S
C274 C278 1.368 . S
C275 C256 1.429 . S
C275 C269 1.429 . S
C275 C276 1.523 . S
C276 C257 1.368 1_545 S
C276 C270 1.368 . S
C276 C275 1.523 . S
C277 C261 1.429 . S
C277 C273 1.429 . S
C277 C278 1.523 . S
C278 C262 1.368 1_565 S
C278 C274 1.368 . S
C278 C277 1.523 . S
H279 C254 0.950 . S
H280 C256 0.950 . S
H281 C257 0.949 . S
H282 C259 0.950 . S
H283 C261 0.950 . S
C284 C285 1.349 . S
C284 C286 1.327 . S
C284 H309 0.950 . S
C285 C284 1.349 . S
C285 C301 1.349 . S
C286 C284 1.327 . S
C286 C305 1.429 . S
C286 H310 0.950 . S
C287 C304 1.574 1_554 S
C287 C306 1.368 1_455 S
C287 H311 0.949 . S
H288 C292 0.949 . S
C289 C290 1.349 . S
C289 C291 1.327 . S
C289 H312 0.950 . S
C290 C289 1.349 . S
C290 C302 1.349 . S
C291 C289 1.327 . S
C291 C307 1.429 . S
C291 H313 0.950 . S
C292 H288 0.949 . S
C292 C300 1.574 1_556 S
C292 C308 1.368 1_655 S
H293 C301 0.950 . S
H294 C299 0.950 1_455 S
H295 C300 0.949 . S
H296 C302 0.950 . S
H297 C303 0.950 1_655 S
H298 C304 0.949 . S
C299 H294 0.950 1_655 S
C299 C301 1.327 . S
C299 C305 1.429 . S
C300 C292 1.574 1_554 S
C300 H295 0.949 . S
C300 C306 1.368 . S
C301 C285 1.349 . S
C301 H293 0.950 . S
C301 C299 1.327 . S
C302 C290 1.349 . S
C302 H296 0.950 . S
C302 C303 1.327 . S
C303 H297 0.950 1_455 S
C303 C302 1.327 . S
C303 C307 1.429 . S
C304 C287 1.574 1_556 S
C304 H298 0.949 . S
C304 C308 1.368 . S
C305 C286 1.429 . S
C305 C299 1.429 . S
C305 C306 1.523 . S
C306 C287 1.368 1_655 S
C306 C300 1.368 . S
C306 C305 1.523 . S
C307 C291 1.429 . S
C307 C303 1.429 . S
C307 C308 1.523 . S
C308 C292 1.368 1_455 S
C308 C304 1.368 . S
C308 C307 1.523 . S
H309 C284 0.950 . S
H310 C286 0.950 . S
H311 C287 0.949 . S
H312 C289 0.950 . S
H313 C291 0.950 . S
C314 C315 1.349 . S
C314 C316 1.327 . S
C314 H339 0.950 . S
C315 C314 1.349 . S
C315 C331 1.349 . S
C316 C314 1.327 . S
C316 C335 1.429 . S
C316 H340 0.950 . S
C317 C334 1.574 1_545 S
C317 C336 1.368 . S
C317 H341 0.949 . S
H318 C322 0.949 . S
C319 C320 1.349 . S
C319 C321 1.327 . S
C319 H342 0.950 . S
C320 C319 1.349 . S
C320 C332 1.349 . S
C321 C319 1.327 . S
C321 C337 1.429 . S
C321 H343 0.950 . S
C322 H318 0.949 . S
C322 C330 1.574 1_565 S
C322 C338 1.368 . S
H323 C331 0.950 . S
H324 C329 0.950 . S
H325 C330 0.949 . S
H326 C332 0.950 . S
H327 C333 0.950 . S
H328 C334 0.949 . S
C329 H324 0.950 . S
C329 C331 1.327 . S
C329 C335 1.429 . S
C330 C322 1.574 1_545 S
C330 H325 0.949 . S
C330 C336 1.368 . S
C331 C315 1.349 . S
C331 H323 0.950 . S
C331 C329 1.327 . S
C332 C320 1.349 . S
C332 H326 0.950 . S
C332 C333 1.327 . S
C333 H327 0.950 . S
C333 C332 1.327 . S
C333 C337 1.429 . S
C334 C317 1.574 1_565 S
C334 H328 0.949 . S
C334 C338 1.368 . S
C335 C316 1.429 . S
C335 C329 1.429 . S
C335 C336 1.523 . S
C336 C317 1.368 . S
C336 C330 1.368 . S
C336 C335 1.523 . S
C337 C321 1.429 . S
C337 C333 1.429 . S
C337 C338 1.523 . S
C338 C322 1.368 . S
C338 C334 1.368 . S
C338 C337 1.523 . S
H339 C314 0.950 . S
H340 C316 0.950 . S
H341 C317 0.949 . S
H342 C319 0.950 . S
H343 C321 0.950 . S
C344 C345 1.349 . S
C344 C346 1.327 . S
C344 H369 0.950 . S
C345 C344 1.349 . S
C345 C361 1.349 . S
C346 C344 1.327 . S
C346 C365 1.429 . S
C346 H370 0.950 . S
C347 C364 1.574 . S
C347 C366 1.368 . S
C347 H371 0.949 . S
H348 C352 0.949 . S
C349 C350 1.349 . S
C349 C351 1.327 . S
C349 H372 0.950 . S
C350 C349 1.349 . S
C350 C362 1.349 . S
C351 C349 1.327 . S
C351 C367 1.429 . S
C351 H373 0.950 . S
C352 H348 0.949 . S
C352 C360 1.574 . S
C352 C368 1.368 . S
H353 C361 0.950 . S
H354 C359 0.950 . S
H355 C360 0.949 . S
H356 C362 0.950 . S
H357 C363 0.950 . S
H358 C364 0.949 . S
C359 H354 0.950 . S
C359 C361 1.327 . S
C359 C365 1.429 . S
C360 C352 1.574 . S
C360 H355 0.949 . S
C360 C366 1.368 . S
C361 C345 1.349 . S
C361 H353 0.950 . S
C361 C359 1.327 . S
C362 C350 1.349 . S
C362 H356 0.950 . S
C362 C363 1.327 . S
C363 H357 0.950 . S
C363 C362 1.327 . S
C363 C367 1.429 . S
C364 C347 1.574 . S
C364 H358 0.949 . S
C364 C368 1.368 . S
C365 C346 1.429 . S
C365 C359 1.429 . S
C365 C366 1.523 . S
C366 C347 1.368 . S
C366 C360 1.368 . S
C366 C365 1.523 . S
C367 C351 1.429 . S
C367 C363 1.429 . S
C367 C368 1.523 . S
C368 C352 1.368 . S
C368 C364 1.368 . S
C368 C367 1.523 . S
H369 C344 0.950 . S
H370 C346 0.950 . S
H371 C347 0.949 . S
H372 C349 0.950 . S
H373 C351 0.950 . S
C374 C375 1.349 . S
C374 C376 1.327 . S
C374 H399 0.950 . S
C375 C374 1.349 . S
C375 C391 1.349 . S
C376 C374 1.327 . S
C376 C395 1.429 . S
C376 H400 0.950 . S
C377 C394 1.574 . S
C377 C396 1.368 . S
C377 H401 0.949 . S
H378 C382 0.949 . S
C379 C380 1.349 . S
C379 C381 1.327 . S
C379 H402 0.950 . S
C380 C379 1.349 . S
C380 C392 1.349 . S
C381 C379 1.327 . S
C381 C397 1.429 . S
C381 H403 0.950 . S
C382 H378 0.949 . S
C382 C390 1.574 . S
C382 C398 1.368 . S
H383 C391 0.950 . S
H384 C389 0.950 . S
H385 C390 0.949 . S
H386 C392 0.950 . S
H387 C393 0.950 . S
H388 C394 0.949 . S
C389 H384 0.950 . S
C389 C391 1.327 . S
C389 C395 1.429 . S
C390 C382 1.574 . S
C390 H385 0.949 . S
C390 C396 1.368 . S
C391 C375 1.349 . S
C391 H383 0.950 . S
C391 C389 1.327 . S
C392 C380 1.349 . S
C392 H386 0.950 . S
C392 C393 1.327 . S
C393 H387 0.950 . S
C393 C392 1.327 . S
C393 C397 1.429 . S
C394 C377 1.574 . S
C394 H388 0.949 . S
C394 C398 1.368 . S
C395 C376 1.429 . S
C395 C389 1.429 . S
C395 C396 1.523 . S
C396 C377 1.368 . S
C396 C390 1.368 . S
C396 C395 1.523 . S
C397 C381 1.429 . S
C397 C393 1.429 . S
C397 C398 1.523 . S
C398 C382 1.368 . S
C398 C394 1.368 . S
C398 C397 1.523 . S
H399 C374 0.950 . S
H400 C376 0.950 . S
H401 C377 0.949 . S
H402 C379 0.950 . S
H403 C381 0.950 . S
C404 C405 1.349 . S
C404 C406 1.327 . S
C404 H429 0.950 . S
C405 C404 1.349 . S
C405 C421 1.349 . S
C406 C404 1.327 . S
C406 C425 1.429 . S
C406 H430 0.950 . S
C407 C424 1.574 . S
C407 C426 1.368 . S
C407 H431 0.949 . S
H408 C412 0.949 . S
C409 C410 1.349 . S
C409 C411 1.327 . S
C409 H432 0.950 . S
C410 C409 1.349 . S
C410 C422 1.349 . S
C411 C409 1.327 . S
C411 C427 1.429 . S
C411 H433 0.950 . S
C412 H408 0.949 . S
C412 C420 1.574 . S
C412 C428 1.368 . S
H413 C421 0.950 . S
H414 C419 0.950 . S
H415 C420 0.949 . S
H416 C422 0.950 . S
H417 C423 0.950 . S
H418 C424 0.949 . S
C419 H414 0.950 . S
C419 C421 1.327 . S
C419 C425 1.429 . S
C420 C412 1.574 . S
C420 H415 0.949 . S
C420 C426 1.368 . S
C421 C405 1.349 . S
C421 H413 0.950 . S
C421 C419 1.327 . S
C422 C410 1.349 . S
C422 H416 0.950 . S
C422 C423 1.327 . S
C423 H417 0.950 . S
C423 C422 1.327 . S
C423 C427 1.429 . S
C424 C407 1.574 . S
C424 H418 0.949 . S
C424 C428 1.368 . S
C425 C406 1.429 . S
C425 C419 1.429 . S
C425 C426 1.523 . S
C426 C407 1.368 . S
C426 C420 1.368 . S
C426 C425 1.523 . S
C427 C411 1.429 . S
C427 C423 1.429 . S
C427 C428 1.523 . S
C428 C412 1.368 . S
C428 C424 1.368 . S
C428 C427 1.523 . S
H429 C404 0.950 . S
H430 C406 0.950 . S
H431 C407 0.949 . S
H432 C409 0.950 . S
H433 C411 0.950 . S
C434 C435 1.349 . S
C434 C436 1.327 . S
C434 H459 0.950 . S
C435 C434 1.349 . S
C435 C451 1.349 . S
C436 C434 1.327 . S
C436 C455 1.429 . S
C436 H460 0.950 . S
C437 C454 1.574 . S
C437 C456 1.368 . S
C437 H461 0.949 . S
H438 C442 0.949 . S
C439 C440 1.349 . S
C439 C441 1.327 . S
C439 H462 0.950 . S
C440 C439 1.349 . S
C440 C452 1.349 . S
C441 C439 1.327 . S
C441 C457 1.429 . S
C441 H463 0.950 . S
C442 H438 0.949 . S
C442 C450 1.574 . S
C442 C458 1.368 . S
H443 C451 0.950 . S
H444 C449 0.950 . S
H445 C450 0.949 . S
H446 C452 0.950 . S
H447 C453 0.950 . S
H448 C454 0.949 . S
C449 H444 0.950 . S
C449 C451 1.327 . S
C449 C455 1.429 . S
C450 C442 1.574 . S
C450 H445 0.949 . S
C450 C456 1.368 . S
C451 C435 1.349 . S
C451 H443 0.950 . S
C451 C449 1.327 . S
C452 C440 1.349 . S
C452 H446 0.950 . S
C452 C453 1.327 . S
C453 H447 0.950 . S
C453 C452 1.327 . S
C453 C457 1.429 . S
C454 C437 1.574 . S
C454 H448 0.949 . S
C454 C458 1.368 . S
C455 C436 1.429 . S
C455 C449 1.429 . S
C455 C456 1.523 . S
C456 C437 1.368 . S
C456 C450 1.368 . S
C456 C455 1.523 . S
C457 C441 1.429 . S
C457 C453 1.429 . S
C457 C458 1.523 . S
C458 C442 1.368 . S
C458 C454 1.368 . S
C458 C457 1.523 . S
H459 C434 0.950 . S
H460 C436 0.950 . S
H461 C437 0.949 . S
H462 C439 0.950 . S
H463 C441 0.950 . S
C464 C465 1.349 . S
C464 C466 1.327 . S
C464 H489 0.950 . S
C465 C464 1.349 . S
C465 C481 1.349 . S
C466 C464 1.327 . S
C466 C485 1.429 . S
C466 H490 0.950 . S
C467 C484 1.574 1_545 S
C467 C486 1.368 . S
C467 H491 0.949 . S
H468 C472 0.949 . S
C469 C470 1.349 . S
C469 C471 1.327 . S
C469 H492 0.950 . S
C470 C469 1.349 . S
C470 C482 1.349 . S
C471 C469 1.327 . S
C471 C487 1.429 . S
C471 H493 0.950 . S
C472 H468 0.949 . S
C472 C480 1.574 1_565 S
C472 C488 1.368 . S
H473 C481 0.950 . S
H474 C479 0.950 . S
H475 C480 0.949 . S
H476 C482 0.950 . S
H477 C483 0.950 . S
H478 C484 0.949 . S
C479 H474 0.950 . S
C479 C481 1.327 . S
C479 C485 1.429 . S
C480 C472 1.574 1_545 S
C480 H475 0.949 . S
C480 C486 1.368 1_655 S
C481 C465 1.349 . S
C481 H473 0.950 . S
C481 C479 1.327 . S
C482 C470 1.349 . S
C482 H476 0.950 . S
C482 C483 1.327 . S
C483 H477 0.950 . S
C483 C482 1.327 . S
C483 C487 1.429 . S
C484 C467 1.574 1_565 S
C484 H478 0.949 . S
C484 C488 1.368 1_455 S
C485 C466 1.429 . S
C485 C479 1.429 . S
C485 C486 1.523 . S
C486 C467 1.368 . S
C486 C480 1.368 1_455 S
C486 C485 1.523 . S
C487 C471 1.429 . S
C487 C483 1.429 . S
C487 C488 1.523 . S
C488 C472 1.368 . S
C488 C484 1.368 1_655 S
C488 C487 1.523 . S
H489 C464 0.950 . S
H490 C466 0.950 . S
H491 C467 0.949 . S
H492 C469 0.950 . S
H493 C471 0.950 . S
C494 C495 1.349 . S
C494 C496 1.327 . S
C494 H519 0.950 . S
C495 C494 1.349 . S
C495 C511 1.349 . S
C496 C494 1.327 . S
C496 C515 1.429 . S
C496 H520 0.950 . S
C497 C514 1.574 1_455 S
C497 C516 1.368 1_545 S
C497 H521 0.949 . S
H498 C502 0.949 . S
C499 C500 1.349 . S
C499 C501 1.327 . S
C499 H522 0.950 . S
C500 C499 1.349 . S
C500 C512 1.349 . S
C501 C499 1.327 . S
C501 C517 1.429 . S
C501 H523 0.950 . S
C502 H498 0.949 . S
C502 C510 1.574 1_655 S
C502 C518 1.368 1_565 S
H503 C511 0.950 . S
H504 C509 0.950 . S
H505 C510 0.949 . S
H506 C512 0.950 . S
H507 C513 0.950 . S
H508 C514 0.949 . S
C509 H504 0.950 . S
C509 C511 1.327 . S
C509 C515 1.429 . S
C510 C502 1.574 1_455 S
C510 H505 0.949 . S
C510 C516 1.368 . S
C511 C495 1.349 . S
C511 H503 0.950 . S
C511 C509 1.327 . S
C512 C500 1.349 . S
C512 H506 0.950 . S
C512 C513 1.327 . S
C513 H507 0.950 . S
C513 C512 1.327 . S
C513 C517 1.429 . S
C514 C497 1.574 1_655 S
C514 H508 0.949 . S
C514 C518 1.368 . S
C515 C496 1.429 . S
C515 C509 1.429 . S
C515 C516 1.523 . S
C516 C497 1.368 1_565 S
C516 C510 1.368 . S
C516 C515 1.523 . S
C517 C501 1.429 . S
C517 C513 1.429 . S
C517 C518 1.523 . S
C518 C502 1.368 1_545 S
C518 C514 1.368 . S
C518 C517 1.523 . S
H519 C494 0.950 . S
H520 C496 0.950 . S
H521 C497 0.949 . S
H522 C499 0.950 . S
H523 C501 0.950 . S
C524 C525 1.349 . S
C524 C526 1.327 . S
C524 H549 0.950 . S
C525 C524 1.349 . S
C525 C541 1.349 . S
C526 C524 1.327 . S
C526 C545 1.429 . S
C526 H550 0.950 . S
C527 C544 1.574 1_545 S
C527 C546 1.368 1_455 S
C527 H551 0.949 . S
H528 C532 0.949 . S
C529 C530 1.349 . S
C529 C531 1.327 . S
C529 H552 0.950 . S
C530 C529 1.349 . S
C530 C542 1.349 . S
C531 C529 1.327 . S
C531 C547 1.429 . S
C531 H553 0.950 . S
C532 H528 0.949 . S
C532 C540 1.574 1_565 S
C532 C548 1.368 1_655 S
H533 C541 0.950 . S
H534 C539 0.950 . S
H535 C540 0.949 . S
H536 C542 0.950 . S
H537 C543 0.950 . S
H538 C544 0.949 . S
C539 H534 0.950 . S
C539 C541 1.327 . S
C539 C545 1.429 . S
C540 C532 1.574 1_545 S
C540 H535 0.949 . S
C540 C546 1.368 . S
C541 C525 1.349 . S
C541 H533 0.950 . S
C541 C539 1.327 . S
C542 C530 1.349 . S
C542 H536 0.950 . S
C542 C543 1.327 . S
C543 H537 0.950 . S
C543 C542 1.327 . S
C543 C547 1.429 . S
C544 C527 1.574 1_565 S
C544 H538 0.949 . S
C544 C548 1.368 . S
C545 C526 1.429 . S
C545 C539 1.429 . S
C545 C546 1.523 . S
C546 C527 1.368 1_655 S
C546 C540 1.368 . S
C546 C545 1.523 . S
C547 C531 1.429 . S
C547 C543 1.429 . S
C547 C548 1.523 . S
C548 C532 1.368 1_455 S
C548 C544 1.368 . S
C548 C547 1.523 . S
H549 C524 0.950 . S
H550 C526 0.950 . S
H551 C527 0.949 . S
H552 C529 0.950 . S
H553 C531 0.950 . S
C554 C555 1.349 . S
C554 C556 1.327 . S
C554 H579 0.950 . S
C555 C554 1.349 . S
C555 C571 1.349 . S
C556 C554 1.327 . S
C556 C575 1.429 . S
C556 H580 0.950 . S
C557 C574 1.574 1_655 S
C557 C576 1.368 . S
C557 H581 0.949 . S
H558 C562 0.949 . S
C559 C560 1.349 . S
C559 C561 1.327 . S
C559 H582 0.950 . S
C560 C559 1.349 . S
C560 C572 1.349 . S
C561 C559 1.327 . S
C561 C577 1.429 . S
C561 H583 0.950 . S
C562 H558 0.949 . S
C562 C570 1.574 1_455 S
C562 C578 1.368 . S
H563 C571 0.950 . S
H564 C569 0.950 . S
H565 C570 0.949 . S
H566 C572 0.950 . S
H567 C573 0.950 . S
H568 C574 0.949 . S
C569 H564 0.950 . S
C569 C571 1.327 . S
C569 C575 1.429 . S
C570 C562 1.574 1_655 S
C570 H565 0.949 . S
C570 C576 1.368 1_545 S
C571 C555 1.349 . S
C571 H563 0.950 . S
C571 C569 1.327 . S
C572 C560 1.349 . S
C572 H566 0.950 . S
C572 C573 1.327 . S
C573 H567 0.950 . S
C573 C572 1.327 . S
C573 C577 1.429 . S
C574 C557 1.574 1_455 S
C574 H568 0.949 . S
C574 C578 1.368 1_565 S
C575 C556 1.429 . S
C575 C569 1.429 . S
C575 C576 1.523 . S
C576 C557 1.368 . S
C576 C570 1.368 1_565 S
C576 C575 1.523 . S
C577 C561 1.429 . S
C577 C573 1.429 . S
C577 C578 1.523 . S
C578 C562 1.368 . S
C578 C574 1.368 1_545 S
C578 C577 1.523 . S
H579 C554 0.950 . S
H580 C556 0.950 . S
H581 C557 0.949 . S
H582 C559 0.950 . S
H583 C561 0.950 . S
C105 C5 1.910 . S
C110 C31 1.910 . S
C135 C44 1.910 . S
C140 C18 1.910 . S
C165 C83 1.910 . S
C170 C57 1.910 . S
C195 C70 1.910 . S
C200 C96 1.910 . S
C225 C79 1.570 . S
C230 C1 1.570 . S
C255 C14 1.570 . S
C260 C92 1.570 . S
C285 C27 1.570 . S
C290 C53 1.570 . S
C315 C66 1.570 . S
C320 C40 1.570 . S
C345 C3 1.652 . S
C350 C68 1.652 . S
C375 C81 1.652 . S
C380 C16 1.652 . S
C405 C94 1.652 . S
C410 C29 1.652 . S
C435 C42 1.652 . S
C440 C55 1.652 . S
C465 C10 1.353 . S
C470 C36 1.353 . S
C495 C49 1.353 . S
C500 C23 1.353 . S
C525 C88 1.353 . S
C530 C62 1.353 . S
C555 C101 1.353 . S
C560 C75 1.353 . S
