# Generated by pormake.
# Topology uoj, (4)-cn, num edge types: 1
# Building blocks:
#     Node 0, Type 0, BuildingBlock: KUFVIS_clean_sbu_0, # of connection points: 4
#     Node 1, Type 0, BuildingBlock: KUFVIS_clean_sbu_0, # of connection points: 4
#     Node 2, Type 0, BuildingBlock: KUFVIS_clean_sbu_0, # of connection points: 4
#     Node 3, Type 0, BuildingBlock: KUFVIS_clean_sbu_0, # of connection points: 4
#     Node 4, Type 0, BuildingBlock: KUFVIS_clean_sbu_0, # of connection points: 4
#     Node 5, Type 0, BuildingBlock: KUFVIS_clean_sbu_0, # of connection points: 4
#     Node 6, Type 0, BuildingBlock: KUFVIS_clean_sbu_0, # of connection points: 4
#     Node 7, Type 0, BuildingBlock: KUFVIS_clean_sbu_0, # of connection points: 4
#     Edge 8, Type (0, 0), BuildingBlock: FUNLAD_clean_linker_0, # of connection points: 2
#     Edge 9, Type (0, 0), BuildingBlock: FUNLAD_clean_linker_0, # of connection points: 2
#     Edge 10, Type (0, 0), BuildingBlock: FUNLAD_clean_linker_0, # of connection points: 2
#     Edge 11, Type (0, 0), BuildingBlock: FUNLAD_clean_linker_0, # of connection points: 2
#     Edge 12, Type (0, 0), BuildingBlock: FUNLAD_clean_linker_0, # of connection points: 2
#     Edge 13, Type (0, 0), BuildingBlock: FUNLAD_clean_linker_0, # of connection points: 2
#     Edge 14, Type (0, 0), BuildingBlock: FUNLAD_clean_linker_0, # of connection points: 2
#     Edge 15, Type (0, 0), BuildingBlock: FUNLAD_clean_linker_0, # of connection points: 2
#     Edge 16, Type (0, 0), BuildingBlock: FUNLAD_clean_linker_0, # of connection points: 2
#     Edge 17, Type (0, 0), BuildingBlock: FUNLAD_clean_linker_0, # of connection points: 2
#     Edge 18, Type (0, 0), BuildingBlock: FUNLAD_clean_linker_0, # of connection points: 2
#     Edge 19, Type (0, 0), BuildingBlock: FUNLAD_clean_linker_0, # of connection points: 2
#     Edge 20, Type (0, 0), BuildingBlock: FUNLAD_clean_linker_0, # of connection points: 2
#     Edge 21, Type (0, 0), BuildingBlock: FUNLAD_clean_linker_0, # of connection points: 2
#     Edge 22, Type (0, 0), BuildingBlock: FUNLAD_clean_linker_0, # of connection points: 2
#     Edge 23, Type (0, 0), BuildingBlock: FUNLAD_clean_linker_0, # of connection points: 2
# Relax obj value: 0.139
# Max RMSD: 0.161
# Mean RMSD: 0.161
data_MOF--net-uoj--node1-KUFVIS_clean_sbu_0--edge1-FUNLAD_clean_linker_0
_symmetry_space_group_name_H-M    P1
_symmetry_Int_Tables_number       1
_symmetry_cell_setting            triclinic
loop_
_symmetry_equiv_pos_as_xyz
'x, y, z'
_cell_length_a     38.005622
_cell_length_b     38.035239
_cell_length_c     41.28811
_cell_angle_alpha  90.058947
_cell_angle_beta   90.100655
_cell_angle_gamma 90.044403
loop_
_atom_site_label
_atom_site_type_symbol
_atom_site_fract_x
_atom_site_fract_y
_atom_site_fract_z
_atom_type_partial_charge
Mn0 Mn 0.08101 0.30094 0.45086 0.0
Mn1 Mn 0.08049 0.31324 0.53197 0.0
C2 C 0.05861 0.35205 0.47173 0.0
C3 C 0.11077 0.30402 0.40164 0.0
C4 C 0.02559 0.26993 0.4967 0.0
O5 O 0.11304 0.26248 0.46717 0.0
O6 O 0.11243 0.27354 0.52063 0.0
C7 C 0.15403 0.33819 0.53769 0.0
N8 N 0.119 0.34354 0.54249 0.0
C9 C 0.12975 0.40055 0.56582 0.0
C10 C 0.16597 0.39555 0.56134 0.0
C11 C 0.17815 0.36425 0.54716 0.0
C12 C 0.10699 0.37365 0.55589 0.0
H13 H 0.16347 0.31426 0.52664 0.0
C14 C 0.1226 0.2557 0.49604 0.0
O15 O 0.08449 0.28259 0.40567 0.0
O16 O 0.12015 0.32283 0.42641 0.0
N17 N 0.05106 0.35046 0.54736 0.0
C18 C 0.01538 0.3508 0.55067 0.0
C19 C -0.00104 0.38025 0.56453 0.0
C20 C 0.0194 0.40872 0.57536 0.0
C21 C 0.05614 0.40724 0.57272 0.0
C22 C 0.07104 0.3771 0.55889 0.0
H23 H -0.00046 0.32894 0.54249 0.0
O24 O 0.05121 0.34253 0.44235 0.0
O25 O 0.08055 0.33222 0.48775 0.0
O26 O 0.03803 0.27417 0.46819 0.0
O27 O 0.03966 0.28293 0.52223 0.0
C28 C 0.07856 0.43456 0.58307 0.0
C29 C 0.11533 0.43127 0.57952 0.0
H30 H 0.18466 0.41561 0.56857 0.0
H31 H 0.20605 0.36027 0.54349 0.0
H32 H 0.9706 0.38105 0.56675 0.0
H33 H 0.00661 0.43151 0.58579 0.0
H34 H 0.06779 0.45829 0.59366 0.0
H35 H 0.13229 0.45254 0.58741 0.0
Mn36 Mn 0.29861 0.90979 0.55925 0.0
Mn37 Mn 0.31302 0.91341 0.47849 0.0
C38 C 0.34918 0.93535 0.54033 0.0
C39 C 0.30167 0.87891 0.60792 0.0
C40 C 0.26676 0.96541 0.51395 0.0
O41 O 0.26195 0.87656 0.54122 0.0
O42 O 0.27408 0.87989 0.4881 0.0
C43 C 0.34055 0.84098 0.47197 0.0
N44 N 0.34481 0.87625 0.46788 0.0
C45 C 0.4025 0.86799 0.44521 0.0
C46 C 0.39864 0.83155 0.44897 0.0
C47 C 0.36755 0.81801 0.46247 0.0
C48 C 0.37472 0.88958 0.45516 0.0
H49 H 0.31677 0.83047 0.48249 0.0
C50 C 0.2561 0.868 0.5119 0.0
O51 O 0.27916 0.90423 0.6038 0.0
O52 O 0.32156 0.87102 0.58349 0.0
N53 N 0.34959 0.94443 0.46445 0.0
C54 C 0.34878 0.98013 0.46172 0.0
C55 C 0.37784 -0.00215 0.44853 0.0
C56 C 0.40711 0.97867 0.43767 0.0
C57 C 0.40681 0.94187 0.43966 0.0
C58 C 0.37702 0.92565 0.45287 0.0
H59 H 0.32628 0.99501 0.46986 0.0
O60 O 0.33853 0.9412 0.56964 0.0
O61 O 0.33093 0.91292 0.52321 0.0
O62 O 0.27045 0.95203 0.54219 0.0
O63 O 0.28118 0.95286 0.48844 0.0
C64 C 0.43502 0.92066 0.4293 0.0
C65 C 0.43292 0.88375 0.43218 0.0
H66 H 0.41942 0.81375 0.44169 0.0
H67 H 0.36444 0.78993 0.46559 0.0
H68 H 0.37772 0.02624 0.44681 0.0
H69 H 0.4296 0.99244 0.42777 0.0
H70 H 0.45852 0.93247 0.41923 0.0
H71 H 0.45485 0.86773 0.4243 0.0
Mn72 Mn 0.91081 0.69358 0.43487 0.0
Mn73 Mn 0.91083 0.67989 0.51578 0.0
C74 C 0.93037 0.64087 0.45505 0.0
C75 C 0.88071 0.69276 0.38556 0.0
C76 C 0.96704 0.7222 0.48123 0.0
O77 O 0.88059 0.73325 0.45193 0.0
O78 O 0.87951 0.72019 0.50504 0.0
C79 C 0.83696 0.65615 0.52174 0.0
N80 N 0.87194 0.6502 0.52632 0.0
C81 C 0.86046 0.59366 0.55018 0.0
C82 C 0.82428 0.59928 0.54593 0.0
C83 C 0.8125 0.63063 0.53158 0.0
C84 C 0.88358 0.62005 0.53991 0.0
H85 H 0.82783 0.68015 0.5106 0.0
C86 C 0.8705 0.73922 0.48083 0.0
O87 O 0.90801 0.71282 0.38996 0.0
O88 O 0.87057 0.67394 0.40999 0.0
N89 N 0.9398 0.64193 0.5304 0.0
C90 C 0.97556 0.64054 0.53264 0.0
C91 C 0.99164 0.61077 0.54626 0.0
C92 C 0.97081 0.58301 0.55787 0.0
C93 C 0.93404 0.58546 0.5561 0.0
C94 C 0.9195 0.61588 0.54248 0.0
H95 H 0.99172 0.66185 0.52386 0.0
O96 O 0.93852 0.65048 0.42589 0.0
O97 O 0.90971 0.66177 0.47124 0.0
O98 O 0.95505 0.71815 0.4525 0.0
O99 O 0.95209 0.70967 0.50645 0.0
C100 C 0.91126 0.55872 0.56693 0.0
C101 C 0.8745 0.56277 0.56388 0.0
H102 H 0.80533 0.57963 0.55342 0.0
H103 H 0.78463 0.63508 0.52808 0.0
H104 H 0.02003 0.60918 0.5477 0.0
H105 H 0.98331 0.55994 0.56806 0.0
H106 H 0.92174 0.5348 0.57739 0.0
H107 H 0.85726 0.5419 0.57203 0.0
Mn108 Mn 0.69169 0.08031 0.55891 0.0
Mn109 Mn 0.67988 0.08185 0.47768 0.0
C110 C 0.6417 0.05613 0.53704 0.0
C111 C 0.68738 0.10854 0.60893 0.0
C112 C 0.72548 0.028 0.51162 0.0
O113 O 0.72891 0.11448 0.54376 0.0
O114 O 0.71796 0.11521 0.49029 0.0
C115 C 0.6515 0.15418 0.47406 0.0
N116 N 0.64791 0.11915 0.46801 0.0
C117 C 0.591 0.12799 0.44374 0.0
C118 C 0.59418 0.1642 0.4495 0.0
C119 C 0.62454 0.17733 0.46479 0.0
C120 C 0.6187 0.10621 0.45356 0.0
H121 H 0.67472 0.16434 0.48593 0.0
C122 C 0.73533 0.12529 0.51522 0.0
O123 O 0.70983 0.08329 0.60423 0.0
O124 O 0.66806 0.11769 0.58443 0.0
N125 N 0.64425 0.05122 0.46095 0.0
C126 C 0.64563 0.01572 0.45656 0.0
C127 C 0.61731 -0.00157 0.44152 0.0
C128 C 0.58822 0.01785 0.43058 0.0
C129 C 0.58794 0.05449 0.43436 0.0
C130 C 0.61701 0.0703 0.44937 0.0
H131 H 0.66801 0.00067 0.46476 0.0
O132 O 0.65133 0.04842 0.56631 0.0
O133 O 0.6606 0.07948 0.52179 0.0
O134 O 0.72041 0.03917 0.54049 0.0
O135 O 0.71203 0.04231 0.48644 0.0
C136 C 0.55985 0.07593 0.42407 0.0
C137 C 0.56132 0.11264 0.42886 0.0
H138 H 0.57344 0.18214 0.44241 0.0
H139 H 0.62712 0.20522 0.46944 0.0
H140 H 0.61787 0.97018 0.43843 0.0
H141 H 0.5663 0.00439 0.41923 0.0
H142 H 0.53692 0.06443 0.41259 0.0
H143 H 0.53948 0.12882 0.42102 0.0
Mn144 Mn 0.41121 0.80143 0.93651 0.0
Mn145 Mn 0.41235 0.81792 0.01703 0.0
C146 C 0.43731 0.85183 0.95519 0.0
C147 C 0.38129 0.80352 0.88719 0.0
C148 C 0.46454 0.76956 0.98418 0.0
O149 O 0.37648 0.76627 0.95421 0.0
O150 O 0.37804 0.77964 0.00719 0.0
C151 C 0.34046 0.84749 0.02093 0.0
N152 N 0.37572 0.85092 0.02595 0.0
C153 C 0.3683 0.90921 0.04759 0.0
C154 C 0.33187 0.90621 0.04287 0.0
C155 C 0.31791 0.87524 0.02941 0.0
C156 C 0.38945 0.8807 0.03863 0.0
H157 H 0.32964 0.82379 0.01047 0.0
C158 C 0.36654 0.7615 0.98326 0.0
O159 O 0.40624 0.7808 0.89226 0.0
O160 O 0.37358 0.82453 0.91087 0.0
N161 N 0.44392 0.85399 0.03128 0.0
C162 C 0.47954 0.85237 0.03494 0.0
C163 C 0.49763 0.88124 0.04816 0.0
C164 C 0.47888 0.91116 0.05808 0.0
C165 C 0.44213 0.91174 0.05512 0.0
C166 C 0.42552 0.88212 0.04192 0.0
H167 H 0.49409 0.82937 0.02751 0.0
O168 O 0.44388 0.8403 0.92628 0.0
O169 O 0.41389 0.83458 0.97197 0.0
O170 O 0.45231 0.77271 0.9554 0.0
O171 O 0.45124 0.78491 0.00889 0.0
C172 C 0.42135 0.94066 0.06449 0.0
C173 C 0.38447 0.93944 0.06063 0.0
H174 H 0.3144 0.92756 0.04936 0.0
H175 H 0.28984 0.87279 0.02556 0.0
H176 H 0.52597 0.88045 0.05062 0.0
H177 H 0.49296 0.93349 0.06802 0.0
H178 H 0.43348 0.96404 0.07456 0.0
H179 H 0.36879 0.96191 0.06777 0.0
Mn180 Mn 0.80381 0.58536 0.05596 0.0
Mn181 Mn 0.81654 0.58554 0.97488 0.0
C182 C 0.85669 0.56686 0.03551 0.0
C183 C 0.80459 0.61554 0.1052 0.0
C184 C 0.77769 0.52739 0.00996 0.0
O185 O 0.76279 0.61386 0.03936 0.0
O186 O 0.77426 0.61415 0.98599 0.0
C187 C 0.83534 0.66081 0.96922 0.0
N188 N 0.84354 0.62635 0.96438 0.0
C189 C 0.89915 0.64172 0.94048 0.0
C190 C 0.8912 0.67738 0.94499 0.0
C191 C 0.85919 0.68695 0.95949 0.0
C192 C 0.87438 0.61685 0.95069 0.0
H193 H 0.81082 0.66826 0.98047 0.0
C194 C 0.75539 0.62268 0.01043 0.0
O195 O 0.7852 0.5877 0.10114 0.0
O196 O 0.82248 0.62628 0.0804 0.0
N197 N 0.85607 0.55927 0.95954 0.0
C198 C 0.85947 0.52374 0.95646 0.0
C199 C 0.89009 0.50978 0.94246 0.0
C200 C 0.91653 0.53247 0.93118 0.0
C201 C 0.91191 0.56895 0.93362 0.0
C202 C 0.88077 0.58133 0.94768 0.0
H203 H 0.83916 0.50618 0.96494 0.0
O204 O 0.84758 0.55912 0.06488 0.0
O205 O 0.83534 0.58713 0.01923 0.0
O206 O 0.78061 0.54022 0.03853 0.0
O207 O 0.78972 0.54245 0.98457 0.0
C208 C 0.93712 0.5935 0.92295 0.0
C209 C 0.93079 0.62986 0.92647 0.0
H210 H 0.90954 0.69763 0.93755 0.0
H211 H 0.85293 0.71442 0.96318 0.0
H212 H 0.89333 0.4816 0.94044 0.0
H213 H 0.94022 0.5216 0.92063 0.0
H214 H 0.96154 0.58471 0.91217 0.0
H215 H 0.95046 0.64848 0.91835 0.0
Mn216 Mn 0.58606 0.19409 0.93818 0.0
Mn217 Mn 0.58243 0.18175 0.01929 0.0
C218 C 0.56207 0.14328 0.95827 0.0
C219 C 0.61674 0.19111 0.88938 0.0
C220 C 0.52866 0.2246 0.98254 0.0
O221 O 0.61811 0.23224 0.95531 0.0
O222 O 0.61369 0.22218 0.0087 0.0
C223 C 0.6564 0.15869 0.02651 0.0
N224 N 0.6214 0.15253 0.03073 0.0
C225 C 0.63302 0.09637 0.05529 0.0
C226 C 0.6692 0.10221 0.05139 0.0
C227 C 0.68093 0.13347 0.03686 0.0
C228 C 0.60983 0.1224 0.04437 0.0
H229 H 0.66553 0.18263 0.01527 0.0
C230 C 0.6255 0.23967 0.98458 0.0
O231 O 0.59072 0.21282 0.89334 0.0
O232 O 0.62545 0.17187 0.91405 0.0
N233 N 0.55356 0.14399 0.03448 0.0
C234 C 0.51788 0.14307 0.0377 0.0
C235 C 0.50188 0.11371 0.05211 0.0
C236 C 0.52274 0.08599 0.06375 0.0
C237 C 0.55947 0.08814 0.06133 0.0
C238 C 0.57393 0.11814 0.04686 0.0
H239 H 0.50171 0.16441 0.02901 0.0
O240 O 0.55589 0.15298 0.92873 0.0
O241 O 0.58396 0.16259 0.975 0.0
O242 O 0.54297 0.22135 0.95466 0.0
O243 O 0.54117 0.21088 0.00841 0.0
C244 C 0.5823 0.06167 0.07261 0.0
C245 C 0.61905 0.06571 0.06947 0.0
H246 H 0.6882 0.08284 0.05938 0.0
H247 H 0.7088 0.13811 0.03366 0.0
H248 H 0.47353 0.11243 0.0542 0.0
H249 H 0.51029 0.06328 0.07464 0.0
H250 H 0.57188 0.03806 0.08369 0.0
H251 H 0.63634 0.04513 0.07814 0.0
Mn252 Mn 0.19498 0.41631 0.07543 0.0
Mn253 Mn 0.18858 0.41947 0.99373 0.0
C254 C 0.1438 0.43571 0.05198 0.0
C255 C 0.19134 0.38494 0.12376 0.0
C256 C 0.22491 0.47579 0.03341 0.0
O257 O 0.23668 0.3876 0.06075 0.0
O258 O 0.22975 0.39024 0.00677 0.0
C259 C 0.17021 0.34457 0.9839 0.0
N260 N 0.16254 0.37923 0.9797 0.0
C261 C 0.10953 0.36514 0.95048 0.0
C262 C 0.11698 0.32927 0.9543 0.0
C263 C 0.14741 0.31896 0.97116 0.0
C264 C 0.1332 0.38944 0.96374 0.0
H265 H 0.19352 0.33653 0.99692 0.0
C266 C 0.24632 0.38002 0.0321 0.0
O267 O 0.2109 0.41282 0.12125 0.0
O268 O 0.17441 0.37498 0.09801 0.0
N269 N 0.15044 0.44651 0.97656 0.0
C270 C 0.14715 0.48215 0.97488 0.0
C271 C 0.118 0.49682 0.95891 0.0
C272 C 0.09292 0.47475 0.94431 0.0
C273 C 0.09742 0.43818 0.94551 0.0
C274 C 0.12708 0.42508 0.96165 0.0
H275 H 0.16643 0.49927 0.98591 0.0
O276 O 0.15078 0.44276 0.08205 0.0
O277 O 0.16629 0.41587 0.03662 0.0
O278 O 0.21986 0.46161 0.06107 0.0
O279 O 0.21461 0.46209 0.00672 0.0
C280 C 0.07342 0.41421 0.93169 0.0
C281 C 0.07941 0.37771 0.93427 0.0
H282 H 0.09945 0.30944 0.94453 0.0
H283 H 0.15327 0.29133 0.97433 0.0
H284 H 0.11484 0.52507 0.95791 0.0
H285 H 0.07032 0.48615 0.93225 0.0
H286 H 0.05013 0.42355 0.91924 0.0
H287 H 0.06063 0.35953 0.92376 0.0
C288 C 0.20613 0.37709 0.18242 0.0
C289 C 0.18699 0.36644 0.15499 0.0
C290 C 0.19994 0.36152 0.21254 0.0
C291 C 0.17409 0.3352 0.21594 0.0
C292 C 0.1562 0.32348 0.18816 0.0
C293 C 0.16249 0.33897 0.15803 0.0
C294 C 0.1643 0.32 0.24793 0.0
C295 C 0.16919 0.33713 0.27619 0.0
C296 C 0.15609 0.32468 0.30815 0.0
C297 C 0.16983 0.34044 0.33621 0.0
C298 C 0.15599 0.33263 0.36665 0.0
C299 C 0.12784 0.30893 0.36979 0.0
H300 H 0.1166 0.28776 0.29047 0.0
C301 C 0.11473 0.29218 0.34193 0.0
C302 C 0.1286 0.30002 0.31138 0.0
H303 H 0.09291 0.27393 0.34357 0.0
H304 H 0.22559 0.39783 0.18076 0.0
H305 H 0.21545 0.37037 0.23296 0.0
H306 H 0.13647 0.303 0.18992 0.0
H307 H 0.14747 0.32998 0.13729 0.0
H308 H 0.15084 0.29484 0.24773 0.0
H309 H 0.18244 0.36241 0.27618 0.0
H310 H 0.1909 0.35957 0.33455 0.0
H311 H 0.16676 0.34597 0.38763 0.0
C312 C 0.28865 0.87357 0.66724 0.0
C313 C 0.30656 0.86154 0.63966 0.0
C314 C 0.29643 0.85977 0.69785 0.0
C315 C 0.3222 0.83338 0.70144 0.0
C316 C 0.33911 0.82061 0.6736 0.0
C317 C 0.33137 0.83444 0.64309 0.0
C318 C 0.33455 0.8206 0.73363 0.0
C319 C 0.31709 0.82556 0.76166 0.0
C320 C 0.33235 0.81708 0.79396 0.0
C321 C 0.32067 0.83617 0.82097 0.0
C322 C 0.33606 0.83116 0.85135 0.0
C323 C 0.36332 0.80662 0.85551 0.0
H324 H 0.36752 0.77519 0.77847 0.0
C325 C 0.37399 0.78629 0.82886 0.0
C326 C 0.35863 0.79139 0.79838 0.0
H327 H 0.39463 0.76687 0.83139 0.0
H328 H 0.26952 0.89457 0.66539 0.0
H329 H 0.28318 0.87107 0.71851 0.0
H330 H 0.35909 0.80041 0.67552 0.0
H331 H 0.34563 0.82453 0.62231 0.0
H332 H 0.36009 0.80788 0.73412 0.0
H333 H 0.29165 0.83845 0.76149 0.0
H334 H 0.30025 0.85585 0.8184 0.0
H335 H 0.327 0.84705 0.87146 0.0
C336 C 0.87533 0.70848 0.32672 0.0
C337 C 0.86309 0.68961 0.35367 0.0
C338 C 0.86054 0.70297 0.29604 0.0
C339 C 0.83332 0.67817 0.29166 0.0
C340 C 0.82011 0.66061 0.31895 0.0
C341 C 0.83485 0.66615 0.34956 0.0
C342 C 0.81859 0.66896 0.25924 0.0
C343 C 0.83591 0.67427 0.23118 0.0
C344 C 0.82369 0.66112 0.19907 0.0
C345 C 0.83843 0.67593 0.17108 0.0
C346 C 0.83095 0.66203 0.14051 0.0
C347 C 0.80869 0.63274 0.13717 0.0
H348 H 0.78904 0.61964 0.21653 0.0
C349 C 0.79291 0.61853 0.16499 0.0
C350 C 0.80038 0.63248 0.19566 0.0
H351 H 0.77581 0.59581 0.16322 0.0
H352 H 0.89677 0.72707 0.32918 0.0
H353 H 0.8707 0.71813 0.27601 0.0
H354 H 0.79895 0.64167 0.31648 0.0
H355 H 0.82461 0.65134 0.36987 0.0
H356 H 0.79343 0.65546 0.25887 0.0
H357 H 0.86101 0.68785 0.23146 0.0
H358 H 0.85654 0.69787 0.17289 0.0
H359 H 0.84355 0.67365 0.11958 0.0
C360 C 0.62281 0.20589 0.8305 0.0
C361 C 0.63412 0.18663 0.85759 0.0
C362 C 0.63689 0.19912 0.79984 0.0
C363 C 0.66245 0.1727 0.7956 0.0
C364 C 0.67496 0.15476 0.823 0.0
C365 C 0.66087 0.16151 0.85363 0.0
C366 C 0.67609 0.16245 0.76314 0.0
C367 C 0.65744 0.16662 0.73558 0.0
C368 C 0.66844 0.15322 0.70321 0.0
C369 C 0.65076 0.16591 0.67573 0.0
C370 C 0.65772 0.15211 0.64506 0.0
C371 C 0.68249 0.12507 0.64108 0.0
H372 H 0.70769 0.11541 0.71957 0.0
C373 C 0.70091 0.11284 0.66836 0.0
C374 C 0.69393 0.12665 0.69914 0.0
H375 H 0.72003 0.09188 0.66609 0.0
H376 H 0.60255 0.22574 0.83283 0.0
H377 H 0.6275 0.21458 0.77963 0.0
H378 H 0.69491 0.1346 0.82056 0.0
H379 H 0.67036 0.14637 0.87406 0.0
H380 H 0.70135 0.14923 0.76248 0.0
H381 H 0.63203 0.17957 0.73661 0.0
H382 H 0.63093 0.18622 0.67804 0.0
H383 H 0.64306 0.16217 0.62454 0.0
C384 C 0.23707 0.01844 0.5378 0.0
C385 C 0.24629 -0.00168 0.51051 0.0
C386 C 0.22021 0.05088 0.53414 0.0
C387 C 0.21217 0.06378 0.50305 0.0
C388 C 0.22026 0.04309 0.47594 0.0
C389 C 0.23733 0.01089 0.47956 0.0
C390 C 0.19491 0.09826 0.49771 0.0
C391 C 0.19752 0.12562 0.51834 0.0
C392 C 0.18053 0.1601 0.512 0.0
C393 C 0.17064 0.18129 0.53829 0.0
C394 C 0.15281 0.21295 0.53318 0.0
C395 C 0.14477 0.22422 0.50158 0.0
H396 H 0.18275 0.15751 0.45941 0.0
C397 C 0.15634 0.20384 0.47523 0.0
C398 C 0.17412 0.17225 0.48036 0.0
H399 H 0.15116 0.21193 0.45053 0.0
H400 H 0.24346 0.00949 0.562 0.0
H401 H 0.21335 0.06552 0.55569 0.0
H402 H 0.214 0.05221 0.45175 0.0
H403 H 0.2438 0.99603 0.45799 0.0
H404 H 0.18026 0.10127 0.47529 0.0
H405 H 0.21184 0.12271 0.54095 0.0
H406 H 0.1758 0.17283 0.5629 0.0
H407 H 0.14457 0.22809 0.55406 0.0
C408 C 0.20429 0.83236 0.53016 0.0
C409 C 0.22546 0.84504 0.50483 0.0
C410 C 0.17335 0.81388 0.52351 0.0
C411 C 0.16268 0.80785 0.49132 0.0
C412 C 0.18473 0.81884 0.46605 0.0
C413 C 0.21572 0.83738 0.47268 0.0
C414 C 0.1288 0.79028 0.48337 0.0
C415 C 0.10047 0.79215 0.50289 0.0
C416 C 0.06629 0.77469 0.49604 0.0
C417 C 0.04402 0.76729 0.52221 0.0
C418 C 0.01175 0.75066 0.51729 0.0
C419 C 0.00064 0.74138 0.48591 0.0
H420 H 0.07093 0.77228 0.44357 0.0
C421 C 0.0225 0.74959 0.45952 0.0
C422 C 0.05503 0.76605 0.4645 0.0
H423 H 0.0147 0.74293 0.43502 0.0
H424 H 0.21119 0.83725 0.55523 0.0
H425 H 0.15793 0.80446 0.54372 0.0
H426 H 0.17743 0.81402 0.44106 0.0
H427 H 0.23151 0.84645 0.45254 0.0
H428 H 0.12713 0.77632 0.46048 0.0
H429 H 0.10233 0.80661 0.52551 0.0
H430 H 0.05184 0.77397 0.54671 0.0
H431 H 0.99557 0.74498 0.53822 0.0
C432 C 0.75465 0.97347 0.53296 0.0
C433 C 0.74662 0.99573 0.50681 0.0
C434 C 0.77219 0.94165 0.52777 0.0
C435 C 0.78212 0.93154 0.49628 0.0
C436 C 0.77527 0.9544 0.47041 0.0
C437 C 0.75751 0.98598 0.47553 0.0
C438 C 0.79999 0.89772 0.48932 0.0
C439 C 0.79591 0.8686 0.50749 0.0
C440 C 0.81332 0.83469 0.49971 0.0
C441 C 0.8205 0.81101 0.52489 0.0
C442 C 0.83823 0.77954 0.5187 0.0
C443 C 0.84888 0.77093 0.48705 0.0
H444 H 0.81615 0.84218 0.44754 0.0
C445 C 0.84023 0.79394 0.46162 0.0
C446 C 0.82256 0.82539 0.46784 0.0
H447 H 0.84756 0.78799 0.43688 0.0
H448 H 0.74679 0.98025 0.55739 0.0
H449 H 0.77807 0.92526 0.54849 0.0
H450 H 0.78302 0.94744 0.44598 0.0
H451 H 0.75203 0.00259 0.45483 0.0
H452 H 0.81625 0.89675 0.46775 0.0
H453 H 0.77984 0.86954 0.52918 0.0
H454 H 0.81316 0.81726 0.54958 0.0
H455 H 0.84415 0.76234 0.53887 0.0
C456 C 0.78678 0.15928 0.53691 0.0
C457 C 0.76611 0.14866 0.51036 0.0
C458 C 0.81803 0.17786 0.53215 0.0
C459 C 0.82949 0.18605 0.50065 0.0
C460 C 0.8079 0.17722 0.47427 0.0
C461 C 0.77661 0.15859 0.47901 0.0
C462 C 0.86377 0.20357 0.49447 0.0
C463 C 0.89161 0.20025 0.51449 0.0
C464 C 0.92616 0.21734 0.5088 0.0
C465 C 0.94772 0.22451 0.5356 0.0
C466 C 0.9802 0.24104 0.53159 0.0
C467 C 0.99214 0.25036 0.50054 0.0
H468 H 0.92302 0.21966 0.45625 0.0
C469 C 0.97105 0.24216 0.47354 0.0
C470 C 0.93836 0.22584 0.4776 0.0
H471 H 0.97949 0.24883 0.44927 0.0
H472 H 0.77928 0.15262 0.56145 0.0
H473 H 0.8331 0.18559 0.55324 0.0
H474 H 0.81581 0.18374 0.4498 0.0
H475 H 0.76122 0.15115 0.45799 0.0
H476 H 0.86623 0.21869 0.47231 0.0
H477 H 0.8891 0.18488 0.53651 0.0
H478 H 0.93915 0.21786 0.55985 0.0
H479 H 0.9958 0.24673 0.55294 0.0
C480 C 0.24644 0.52784 0.00209 0.0
C481 C 0.24229 0.51067 0.03199 0.0
C482 C 0.26137 0.56129 1.00055 0.0
C483 C 0.27235 0.5786 0.02895 0.0
C484 C 0.26907 0.56119 0.05875 0.0
C485 C 0.254 0.52765 0.06032 0.0
C486 C 0.28884 0.61401 0.02796 0.0
C487 C 0.28181 0.63757 0.00446 0.0
C488 C 0.30119 0.67118 1.00057 0.0
C489 C 0.30398 0.68554 0.9694 0.0
C490 C 0.32432 0.71549 0.96395 0.0
C491 C 0.34197 0.73211 0.98971 0.0
H492 H 0.31493 0.67909 0.0512 0.0
C493 C 0.33761 0.7189 0.02126 0.0
C494 C 0.31747 0.68867 0.02666 0.0
H495 H 0.3506 0.73124 0.04168 0.0
H496 H 0.23807 0.51553 0.97969 0.0
H497 H 0.26478 0.57312 0.97695 0.0
H498 H 0.27782 0.57372 0.08092 0.0
H499 H 0.25137 0.51519 0.08377 0.0
H500 H 0.30772 0.6203 0.04685 0.0
H501 H 0.26258 0.63117 0.98589 0.0
H502 H 0.29135 0.67284 0.94894 0.0
H503 H 0.32675 0.72518 0.93939 0.0
C504 C 0.69602 0.64268 0.02871 0.0
C505 C 0.72205 0.64182 0.00461 0.0
C506 C 0.66341 0.65821 0.02273 0.0
C507 C 0.65612 0.67398 0.99256 0.0
C508 C 0.68238 0.67345 0.96862 0.0
C509 C 0.71493 0.65749 0.9745 0.0
C510 C 0.62148 0.69043 0.98474 0.0
C511 C 0.59646 0.69731 0.007 0.0
C512 C 0.56212 0.7144 0.99982 0.0
C513 C 0.54299 0.72826 0.02589 0.0
C514 C 0.51101 0.74528 0.0208 0.0
C515 C 0.4971 0.74883 0.98939 0.0
H516 H 0.56099 0.70564 0.94768 0.0
C517 C 0.51565 0.73405 0.96326 0.0
C518 C 0.54778 0.71689 0.9684 0.0
H519 H 0.50562 0.7361 0.93877 0.0
H520 H 0.70038 0.63041 0.05204 0.0
H521 H 0.64409 0.65682 0.04181 0.0
H522 H 0.67763 0.6852 0.94512 0.0
H523 H 0.73439 0.65725 0.95536 0.0
H524 H 0.61716 0.69808 0.95975 0.0
H525 H 0.60159 0.69187 0.0323 0.0
H526 H 0.55308 0.72644 0.0504 0.0
H527 H 0.49752 0.75613 0.04162 0.0
C528 C 0.74976 0.47263 0.03258 0.0
C529 C 0.7609 0.49246 0.00575 0.0
C530 C 0.73564 0.43892 0.02833 0.0
C531 C 0.7322 0.42441 0.99705 0.0
C532 C 0.74326 0.44434 0.97037 0.0
C533 C 0.7573 0.47789 0.97459 0.0
C534 C 0.71787 0.38863 0.99078 0.0
C535 C 0.69842 0.3701 0.01202 0.0
C536 C 0.68228 0.33549 0.00408 0.0
C537 C 0.67276 0.31292 0.02948 0.0
C538 C 0.65543 0.28121 0.02314 0.0
C539 C 0.64695 0.27147 0.99118 0.0
H540 H 0.68003 0.34246 0.95176 0.0
C541 C 0.65705 0.29378 0.9657 0.0
C542 C 0.6743 0.32547 0.97205 0.0
H543 H 0.65069 0.28735 0.94081 0.0
H544 H 0.75245 0.48286 0.05695 0.0
H545 H 0.72826 0.42431 0.0497 0.0
H546 H 0.74103 0.43391 0.94601 0.0
H547 H 0.76566 0.49223 0.95329 0.0
H548 H 0.72311 0.37758 0.96703 0.0
H549 H 0.69353 0.38046 0.03606 0.0
H550 H 0.67836 0.32003 0.05438 0.0
H551 H 0.64804 0.26473 0.0434 0.0
C552 C 0.47672 0.24517 0.01462 0.0
C553 C 0.49488 0.24386 0.98499 0.0
C554 C 0.44401 0.2616 0.01681 0.0
C555 C 0.42876 0.2776 0.98947 0.0
C556 C 0.44683 0.27627 0.95986 0.0
C557 C 0.47957 0.25971 0.95762 0.0
C558 C 0.39361 0.29471 0.99066 0.0
C559 C 0.37963 0.30782 0.01812 0.0
C560 C 0.34446 0.32481 0.02036 0.0
C561 C 0.33013 0.33032 0.05127 0.0
C562 C 0.29793 0.34743 0.05503 0.0
C563 C 0.27923 0.35965 0.02789 0.0
H564 H 0.33566 0.33369 0.96882 0.0
C565 C 0.29322 0.35369 0.99686 0.0
C566 C 0.32552 0.3366 0.99309 0.0
H567 H 0.27964 0.36291 0.97541 0.0
H568 H 0.4874 0.23289 0.03615 0.0
H569 H 0.43053 0.26077 0.03984 0.0
H570 H 0.43557 0.2881 0.93834 0.0
H571 H 0.49266 0.25906 0.93435 0.0
H572 H 0.37937 0.29669 0.96797 0.0
H573 H 0.3946 0.30625 0.04047 0.0
H574 H 0.34405 0.32158 0.07273 0.0
H575 H 0.28801 0.35148 0.07933 0.0
C576 C 0.97672 0.59661 0.46517 0.0
C577 C 0.94116 0.60608 0.46636 0.0
C578 C 0.9871 0.56254 0.47315 0.0
C579 C 0.96185 0.53714 0.4818 0.0
C580 C 0.92613 0.54657 0.48215 0.0
C581 C 0.91583 0.58082 0.47447 0.0
C582 C 0.97159 0.49984 0.48679 0.0
C583 C 0.00366 0.48963 0.49716 0.0
C584 C 0.01659 0.45277 0.49527 0.0
C585 C 0.05306 0.44679 0.49712 0.0
C586 C 0.06692 0.41339 0.49109 0.0
C587 C 0.04443 0.38535 0.48365 0.0
H588 H 0.96586 0.42677 0.4884 0.0
C589 C 0.00804 0.39087 0.48266 0.0
C590 C 0.99412 0.42403 0.48908 0.0
H591 H 0.99036 0.36947 0.47658 0.0
H592 H 0.99647 0.61558 0.45789 0.0
H593 H 0.0147 0.55594 0.47118 0.0
H594 H 0.90613 0.5273 0.48801 0.0
H595 H 0.8881 0.58741 0.47427 0.0
H596 H 0.95194 0.48063 0.47984 0.0
H597 H 0.02243 0.50952 0.50487 0.0
H598 H 0.07104 0.4683 0.50191 0.0
H599 H 0.09519 0.40974 0.4911 0.0
C600 C 0.60606 0.00352 0.52438 0.0
C601 C 0.60952 0.0402 0.52419 0.0
C602 C 0.57411 0.98785 0.51606 0.0
C603 C 0.54473 0.00864 0.50864 0.0
C604 C 0.5484 0.0455 0.50799 0.0
C605 C 0.58055 0.06115 0.51603 0.0
C606 C 0.51032 0.99098 0.50401 0.0
C607 C 0.4801 0.00543 0.51452 0.0
C608 C 0.44605 0.98638 0.51718 0.0
C609 C 0.41612 0.00594 0.52565 0.0
C610 C 0.38425 0.98921 0.53204 0.0
C611 C 0.38142 0.95262 0.52934 0.0
H612 H 0.46545 0.93305 0.50908 0.0
C613 C 0.41102 0.93278 0.52088 0.0
C614 C 0.4431 0.94947 0.51466 0.0
H615 H 0.40955 0.90435 0.51993 0.0
H616 H 0.62805 0.987 0.53127 0.0
H617 H 0.57196 0.95945 0.51679 0.0
H618 H 0.52648 0.0623 0.50166 0.0
H619 H 0.58259 0.08956 0.51655 0.0
H620 H 0.51078 0.9642 0.49505 0.0
H621 H 0.48062 0.03209 0.52396 0.0
H622 H 0.41758 0.03426 0.52819 0.0
H623 H 0.36181 0.00483 0.5394 0.0
C624 C 0.50859 0.10799 0.96802 0.0
C625 C 0.54525 0.11122 0.97022 0.0
C626 C 0.49219 0.07636 0.97592 0.0
C627 C 0.51227 0.04704 0.98493 0.0
C628 C 0.54912 0.05038 0.98734 0.0
C629 C 0.56549 0.08226 0.97975 0.0
C630 C 0.49395 0.01304 0.98963 0.0
C631 C 0.50849 0.9823 0.98066 0.0
C632 C 0.48905 0.94846 0.97804 0.0
C633 C 0.50846 0.9181 0.97063 0.0
C634 C 0.49147 0.88634 0.96431 0.0
C635 C 0.45475 0.88406 0.96604 0.0
H636 H 0.43569 0.96866 0.98442 0.0
C637 C 0.43507 0.91408 0.97347 0.0
C638 C 0.45201 0.94604 0.97961 0.0
H639 H 0.40658 0.913 0.97368 0.0
H640 H 0.49266 0.12998 0.96006 0.0
H641 H 0.46384 0.07443 0.97379 0.0
H642 H 0.56533 0.02848 0.99488 0.0
H643 H 0.59392 0.08413 0.9808 0.0
H644 H 0.46674 0.01419 0.99733 0.0
H645 H 0.53563 0.98215 0.97243 0.0
H646 H 0.53688 0.91913 0.96885 0.0
H647 H 0.507 0.86353 0.95777 0.0
C648 C 0.1017 0.48377 0.04147 0.0
C649 C 0.11061 0.44825 0.03818 0.0
C650 C 0.06869 0.49577 0.03174 0.0
C651 C 0.04367 0.47222 0.01883 0.0
C652 C 0.05269 0.43648 0.01596 0.0
C653 C 0.0858 0.42453 0.02579 0.0
C654 C 0.00683 0.48299 0.01185 0.0
C655 C 0.99623 0.51678 0.00979 0.0
C656 C 0.95881 0.5282 0.0116 0.0
C657 C 0.93141 0.50503 0.02023 0.0
C658 C 0.89773 0.51779 0.02635 0.0
C659 C 0.89043 0.55372 0.02356 0.0
H660 H 0.97166 0.58282 0.00224 0.0
C661 C 0.91729 0.57696 0.01466 0.0
C662 C 0.95113 0.56423 0.00841 0.0
H663 H 0.91239 0.60499 0.01355 0.0
H664 H 0.12023 0.50224 0.05198 0.0
H665 H 0.06274 0.52319 0.03576 0.0
H666 H 0.03379 0.41759 0.00677 0.0
H667 H 0.09179 0.39674 0.02431 0.0
H668 H 0.98773 0.46193 0.00998 0.0
H669 H 0.01577 0.53753 0.00871 0.0
H670 H 0.93572 0.47728 0.02386 0.0
H671 H 0.87744 0.49962 0.03409 0.0
loop_
_geom_bond_atom_site_label_1
_geom_bond_atom_site_label_2
_geom_bond_distance
_geom_bond_site_symmetry_2
_ccdc_geom_bond_type
Mn0 O5 2.095 . S
Mn0 O15 2.162 . S
Mn0 O16 2.297 . S
Mn0 O24 2.385 . S
Mn0 O25 2.209 . S
Mn0 O26 2.094 . S
Mn1 O6 2.121 . S
Mn1 N8 2.257 . S
Mn1 N17 2.282 . S
Mn1 O25 2.215 . S
Mn1 O27 2.117 . S
C2 O24 1.234 . S
C2 O25 1.283 . S
C3 O15 1.281 . S
C3 O16 1.236 . S
C4 O26 1.240 . S
C4 O27 1.264 . S
O5 Mn0 2.095 . S
O5 C14 1.250 . S
O6 Mn1 2.121 . S
O6 C14 1.258 . S
C7 N8 1.326 . S
C7 C11 1.460 . S
C7 H13 0.929 . S
N8 Mn1 2.257 . S
N8 C7 1.326 . S
N8 C12 1.362 . S
C9 C10 1.258 . S
C9 C12 1.431 . S
C9 C29 1.449 . S
C10 C9 1.258 . S
C10 C11 1.477 . S
C10 H30 0.931 . S
C11 C7 1.460 . S
C11 C10 1.477 . S
C11 H31 0.930 . S
C12 N8 1.362 . S
C12 C9 1.431 . S
C12 C22 1.476 . S
H13 C7 0.929 . S
C14 O5 1.250 . S
C14 O6 1.258 . S
O15 Mn0 2.162 . S
O15 C3 1.281 . S
O16 Mn0 2.297 . S
O16 C3 1.236 . S
N17 Mn1 2.282 . S
N17 C18 1.328 1_455 S
N17 C22 1.318 . S
C18 N17 1.328 1_655 S
C18 C19 1.457 . S
C18 H23 0.929 . S
C19 C18 1.457 . S
C19 C20 1.291 . S
C19 H32 0.931 . S
C20 C19 1.291 . S
C20 C21 1.373 1_655 S
C20 H33 0.929 . S
C21 C20 1.373 1_455 S
C21 C22 1.396 . S
C21 C28 1.403 . S
C22 C12 1.476 . S
C22 N17 1.318 . S
C22 C21 1.396 . S
H23 C18 0.929 . S
O24 Mn0 2.385 . S
O24 C2 1.234 . S
O25 Mn0 2.209 . S
O25 Mn1 2.215 . S
O25 C2 1.283 . S
O26 Mn0 2.094 . S
O26 C4 1.240 . S
O27 Mn1 2.117 . S
O27 C4 1.264 . S
C28 C21 1.403 . S
C28 C29 1.399 . S
C28 H34 0.929 . S
C29 C9 1.449 . S
C29 C28 1.399 . S
C29 H35 0.930 . S
H30 C10 0.931 . S
H31 C11 0.930 . S
H32 C19 0.931 . S
H33 C20 0.929 . S
H34 C28 0.929 . S
H35 C29 0.930 . S
Mn36 O41 2.095 . S
Mn36 O51 2.162 . S
Mn36 O52 2.297 . S
Mn36 O60 2.385 . S
Mn36 O61 2.209 . S
Mn36 O62 2.094 . S
Mn37 O42 2.121 . S
Mn37 N44 2.257 . S
Mn37 N53 2.282 . S
Mn37 O61 2.215 . S
Mn37 O63 2.117 . S
C38 O60 1.234 . S
C38 O61 1.283 . S
C39 O51 1.281 . S
C39 O52 1.236 . S
C40 O62 1.240 . S
C40 O63 1.264 . S
O41 Mn36 2.095 . S
O41 C50 1.250 . S
O42 Mn37 2.121 . S
O42 C50 1.258 . S
C43 N44 1.326 . S
C43 C47 1.460 . S
C43 H49 0.929 . S
N44 Mn37 2.257 . S
N44 C43 1.326 . S
N44 C48 1.362 . S
C45 C46 1.258 . S
C45 C48 1.431 . S
C45 C65 1.449 . S
C46 C45 1.258 . S
C46 C47 1.477 . S
C46 H66 0.931 . S
C47 C43 1.460 . S
C47 C46 1.477 . S
C47 H67 0.930 . S
C48 N44 1.362 . S
C48 C45 1.431 . S
C48 C58 1.476 . S
H49 C43 0.929 . S
C50 O41 1.250 . S
C50 O42 1.258 . S
O51 Mn36 2.162 . S
O51 C39 1.281 . S
O52 Mn36 2.297 . S
O52 C39 1.236 . S
N53 Mn37 2.282 . S
N53 C54 1.328 1_565 S
N53 C58 1.318 . S
C54 N53 1.328 1_545 S
C54 C55 1.457 . S
C54 H59 0.929 . S
C55 C54 1.457 . S
C55 C56 1.291 . S
C55 H68 0.931 . S
C56 C55 1.291 . S
C56 C57 1.373 1_545 S
C56 H69 0.929 . S
C57 C56 1.373 1_565 S
C57 C58 1.396 . S
C57 C64 1.403 . S
C58 C48 1.476 . S
C58 N53 1.318 . S
C58 C57 1.396 . S
H59 C54 0.929 . S
O60 Mn36 2.385 . S
O60 C38 1.234 . S
O61 Mn36 2.209 . S
O61 Mn37 2.215 . S
O61 C38 1.283 . S
O62 Mn36 2.094 . S
O62 C40 1.240 . S
O63 Mn37 2.117 . S
O63 C40 1.264 . S
C64 C57 1.403 . S
C64 C65 1.399 . S
C64 H70 0.929 . S
C65 C45 1.449 . S
C65 C64 1.399 . S
C65 H71 0.930 . S
H66 C46 0.931 . S
H67 C47 0.930 . S
H68 C55 0.931 . S
H69 C56 0.929 . S
H70 C64 0.929 . S
H71 C65 0.930 . S
Mn72 O77 2.095 . S
Mn72 O87 2.162 . S
Mn72 O88 2.297 . S
Mn72 O96 2.385 . S
Mn72 O97 2.209 . S
Mn72 O98 2.094 . S
Mn73 O78 2.121 . S
Mn73 N80 2.257 . S
Mn73 N89 2.282 . S
Mn73 O97 2.215 . S
Mn73 O99 2.117 . S
C74 O96 1.234 . S
C74 O97 1.283 . S
C75 O87 1.281 . S
C75 O88 1.236 . S
C76 O98 1.240 . S
C76 O99 1.264 . S
O77 Mn72 2.095 . S
O77 C86 1.250 . S
O78 Mn73 2.121 . S
O78 C86 1.258 . S
C79 N80 1.326 . S
C79 C83 1.460 . S
C79 H85 0.929 . S
N80 Mn73 2.257 . S
N80 C79 1.326 . S
N80 C84 1.362 . S
C81 C82 1.258 . S
C81 C84 1.431 . S
C81 C101 1.449 . S
C82 C81 1.258 . S
C82 C83 1.477 . S
C82 H102 0.931 . S
C83 C79 1.460 . S
C83 C82 1.477 . S
C83 H103 0.930 . S
C84 N80 1.362 . S
C84 C81 1.431 . S
C84 C94 1.476 . S
H85 C79 0.929 . S
C86 O77 1.250 . S
C86 O78 1.258 . S
O87 Mn72 2.162 . S
O87 C75 1.281 . S
O88 Mn72 2.297 . S
O88 C75 1.236 . S
N89 Mn73 2.282 . S
N89 C90 1.328 1_655 S
N89 C94 1.318 . S
C90 N89 1.328 1_455 S
C90 C91 1.457 . S
C90 H95 0.929 . S
C91 C90 1.457 . S
C91 C92 1.291 . S
C91 H104 0.931 . S
C92 C91 1.291 . S
C92 C93 1.373 1_455 S
C92 H105 0.929 . S
C93 C92 1.373 1_655 S
C93 C94 1.396 . S
C93 C100 1.403 . S
C94 C84 1.476 . S
C94 N89 1.318 . S
C94 C93 1.396 . S
H95 C90 0.929 . S
O96 Mn72 2.385 . S
O96 C74 1.234 . S
O97 Mn72 2.209 . S
O97 Mn73 2.215 . S
O97 C74 1.283 . S
O98 Mn72 2.094 . S
O98 C76 1.240 . S
O99 Mn73 2.117 . S
O99 C76 1.264 . S
C100 C93 1.403 . S
C100 C101 1.399 . S
C100 H106 0.929 . S
C101 C81 1.449 . S
C101 C100 1.399 . S
C101 H107 0.930 . S
H102 C82 0.931 . S
H103 C83 0.930 . S
H104 C91 0.931 . S
H105 C92 0.929 . S
H106 C100 0.929 . S
H107 C101 0.930 . S
Mn108 O113 2.095 . S
Mn108 O123 2.162 . S
Mn108 O124 2.297 . S
Mn108 O132 2.385 . S
Mn108 O133 2.209 . S
Mn108 O134 2.094 . S
Mn109 O114 2.121 . S
Mn109 N116 2.257 . S
Mn109 N125 2.282 . S
Mn109 O133 2.215 . S
Mn109 O135 2.117 . S
C110 O132 1.234 . S
C110 O133 1.283 . S
C111 O123 1.281 . S
C111 O124 1.236 . S
C112 O134 1.240 . S
C112 O135 1.264 . S
O113 Mn108 2.095 . S
O113 C122 1.250 . S
O114 Mn109 2.121 . S
O114 C122 1.258 . S
C115 N116 1.326 . S
C115 C119 1.460 . S
C115 H121 0.929 . S
N116 Mn109 2.257 . S
N116 C115 1.326 . S
N116 C120 1.362 . S
C117 C118 1.258 . S
C117 C120 1.431 . S
C117 C137 1.449 . S
C118 C117 1.258 . S
C118 C119 1.477 . S
C118 H138 0.931 . S
C119 C115 1.460 . S
C119 C118 1.477 . S
C119 H139 0.930 . S
C120 N116 1.362 . S
C120 C117 1.431 . S
C120 C130 1.476 . S
H121 C115 0.929 . S
C122 O113 1.250 . S
C122 O114 1.258 . S
O123 Mn108 2.162 . S
O123 C111 1.281 . S
O124 Mn108 2.297 . S
O124 C111 1.236 . S
N125 Mn109 2.282 . S
N125 C126 1.328 1_545 S
N125 C130 1.318 . S
C126 N125 1.328 1_565 S
C126 C127 1.457 . S
C126 H131 0.929 . S
C127 C126 1.457 . S
C127 C128 1.291 . S
C127 H140 0.931 . S
C128 C127 1.291 . S
C128 C129 1.373 1_565 S
C128 H141 0.929 . S
C129 C128 1.373 1_545 S
C129 C130 1.396 . S
C129 C136 1.403 . S
C130 C120 1.476 . S
C130 N125 1.318 . S
C130 C129 1.396 . S
H131 C126 0.929 . S
O132 Mn108 2.385 . S
O132 C110 1.234 . S
O133 Mn108 2.209 . S
O133 Mn109 2.215 . S
O133 C110 1.283 . S
O134 Mn108 2.094 . S
O134 C112 1.240 . S
O135 Mn109 2.117 . S
O135 C112 1.264 . S
C136 C129 1.403 . S
C136 C137 1.399 . S
C136 H142 0.929 . S
C137 C117 1.449 . S
C137 C136 1.399 . S
C137 H143 0.930 . S
H138 C118 0.931 . S
H139 C119 0.930 . S
H140 C127 0.931 . S
H141 C128 0.929 . S
H142 C136 0.929 . S
H143 C137 0.930 . S
Mn144 O149 2.095 . S
Mn144 O159 2.162 . S
Mn144 O160 2.297 . S
Mn144 O168 2.385 . S
Mn144 O169 2.209 . S
Mn144 O170 2.094 . S
Mn145 O150 2.121 . S
Mn145 N152 2.257 . S
Mn145 N161 2.282 . S
Mn145 O169 2.215 1_554 S
Mn145 O171 2.117 . S
C146 O168 1.234 . S
C146 O169 1.283 . S
C147 O159 1.281 . S
C147 O160 1.236 . S
C148 O170 1.240 . S
C148 O171 1.264 1_556 S
O149 Mn144 2.095 . S
O149 C158 1.250 . S
O150 Mn145 2.121 . S
O150 C158 1.258 1_554 S
C151 N152 1.326 . S
C151 C155 1.460 . S
C151 H157 0.929 . S
N152 Mn145 2.257 . S
N152 C151 1.326 . S
N152 C156 1.362 . S
C153 C154 1.258 . S
C153 C156 1.431 . S
C153 C173 1.449 . S
C154 C153 1.258 . S
C154 C155 1.477 . S
C154 H174 0.931 . S
C155 C151 1.460 . S
C155 C154 1.477 . S
C155 H175 0.930 . S
C156 N152 1.362 . S
C156 C153 1.431 . S
C156 C166 1.476 . S
H157 C151 0.929 . S
C158 O149 1.250 . S
C158 O150 1.258 1_556 S
O159 Mn144 2.162 . S
O159 C147 1.281 . S
O160 Mn144 2.297 . S
O160 C147 1.236 . S
N161 Mn145 2.282 . S
N161 C162 1.328 . S
N161 C166 1.318 . S
C162 N161 1.328 . S
C162 C163 1.457 . S
C162 H167 0.929 . S
C163 C162 1.457 . S
C163 C164 1.291 . S
C163 H176 0.931 . S
C164 C163 1.291 . S
C164 C165 1.373 . S
C164 H177 0.929 . S
C165 C164 1.373 . S
C165 C166 1.396 . S
C165 C172 1.403 . S
C166 C156 1.476 . S
C166 N161 1.318 . S
C166 C165 1.396 . S
H167 C162 0.929 . S
O168 Mn144 2.385 . S
O168 C146 1.234 . S
O169 Mn144 2.209 . S
O169 Mn145 2.215 1_556 S
O169 C146 1.283 . S
O170 Mn144 2.094 . S
O170 C148 1.240 . S
O171 Mn145 2.117 . S
O171 C148 1.264 1_554 S
C172 C165 1.403 . S
C172 C173 1.399 . S
C172 H178 0.929 . S
C173 C153 1.449 . S
C173 C172 1.399 . S
C173 H179 0.930 . S
H174 C154 0.931 . S
H175 C155 0.930 . S
H176 C163 0.931 . S
H177 C164 0.929 . S
H178 C172 0.929 . S
H179 C173 0.930 . S
Mn180 O185 2.095 . S
Mn180 O195 2.162 . S
Mn180 O196 2.297 . S
Mn180 O204 2.385 . S
Mn180 O205 2.209 . S
Mn180 O206 2.094 . S
Mn181 O186 2.121 . S
Mn181 N188 2.257 . S
Mn181 N197 2.282 . S
Mn181 O205 2.215 1_556 S
Mn181 O207 2.117 . S
C182 O204 1.234 . S
C182 O205 1.283 . S
C183 O195 1.281 . S
C183 O196 1.236 . S
C184 O206 1.240 . S
C184 O207 1.264 1_554 S
O185 Mn180 2.095 . S
O185 C194 1.250 . S
O186 Mn181 2.121 . S
O186 C194 1.258 1_556 S
C187 N188 1.326 . S
C187 C191 1.460 . S
C187 H193 0.929 . S
N188 Mn181 2.257 . S
N188 C187 1.326 . S
N188 C192 1.362 . S
C189 C190 1.258 . S
C189 C192 1.431 . S
C189 C209 1.449 . S
C190 C189 1.258 . S
C190 C191 1.477 . S
C190 H210 0.931 . S
C191 C187 1.460 . S
C191 C190 1.477 . S
C191 H211 0.930 . S
C192 N188 1.362 . S
C192 C189 1.431 . S
C192 C202 1.476 . S
H193 C187 0.929 . S
C194 O185 1.250 . S
C194 O186 1.258 1_554 S
O195 Mn180 2.162 . S
O195 C183 1.281 . S
O196 Mn180 2.297 . S
O196 C183 1.236 . S
N197 Mn181 2.282 . S
N197 C198 1.328 . S
N197 C202 1.318 . S
C198 N197 1.328 . S
C198 C199 1.457 . S
C198 H203 0.929 . S
C199 C198 1.457 . S
C199 C200 1.291 . S
C199 H212 0.931 . S
C200 C199 1.291 . S
C200 C201 1.373 . S
C200 H213 0.929 . S
C201 C200 1.373 . S
C201 C202 1.396 . S
C201 C208 1.403 . S
C202 C192 1.476 . S
C202 N197 1.318 . S
C202 C201 1.396 . S
H203 C198 0.929 . S
O204 Mn180 2.385 . S
O204 C182 1.234 . S
O205 Mn180 2.209 . S
O205 Mn181 2.215 1_554 S
O205 C182 1.283 . S
O206 Mn180 2.094 . S
O206 C184 1.240 . S
O207 Mn181 2.117 . S
O207 C184 1.264 1_556 S
C208 C201 1.403 . S
C208 C209 1.399 . S
C208 H214 0.929 . S
C209 C189 1.449 . S
C209 C208 1.399 . S
C209 H215 0.930 . S
H210 C190 0.931 . S
H211 C191 0.930 . S
H212 C199 0.931 . S
H213 C200 0.929 . S
H214 C208 0.929 . S
H215 C209 0.930 . S
Mn216 O221 2.095 . S
Mn216 O231 2.162 . S
Mn216 O232 2.297 . S
Mn216 O240 2.385 . S
Mn216 O241 2.209 . S
Mn216 O242 2.094 . S
Mn217 O222 2.121 . S
Mn217 N224 2.257 . S
Mn217 N233 2.282 . S
Mn217 O241 2.215 1_554 S
Mn217 O243 2.117 . S
C218 O240 1.234 . S
C218 O241 1.283 . S
C219 O231 1.281 . S
C219 O232 1.236 . S
C220 O242 1.240 . S
C220 O243 1.264 1_556 S
O221 Mn216 2.095 . S
O221 C230 1.250 . S
O222 Mn217 2.121 . S
O222 C230 1.258 1_554 S
C223 N224 1.326 . S
C223 C227 1.460 . S
C223 H229 0.929 . S
N224 Mn217 2.257 . S
N224 C223 1.326 . S
N224 C228 1.362 . S
C225 C226 1.258 . S
C225 C228 1.431 . S
C225 C245 1.449 . S
C226 C225 1.258 . S
C226 C227 1.477 . S
C226 H246 0.931 . S
C227 C223 1.460 . S
C227 C226 1.477 . S
C227 H247 0.930 . S
C228 N224 1.362 . S
C228 C225 1.431 . S
C228 C238 1.476 . S
H229 C223 0.929 . S
C230 O221 1.250 . S
C230 O222 1.258 1_556 S
O231 Mn216 2.162 . S
O231 C219 1.281 . S
O232 Mn216 2.297 . S
O232 C219 1.236 . S
N233 Mn217 2.282 . S
N233 C234 1.328 . S
N233 C238 1.318 . S
C234 N233 1.328 . S
C234 C235 1.457 . S
C234 H239 0.929 . S
C235 C234 1.457 . S
C235 C236 1.291 . S
C235 H248 0.931 . S
C236 C235 1.291 . S
C236 C237 1.373 . S
C236 H249 0.929 . S
C237 C236 1.373 . S
C237 C238 1.396 . S
C237 C244 1.403 . S
C238 C228 1.476 . S
C238 N233 1.318 . S
C238 C237 1.396 . S
H239 C234 0.929 . S
O240 Mn216 2.385 . S
O240 C218 1.234 . S
O241 Mn216 2.209 . S
O241 Mn217 2.215 1_556 S
O241 C218 1.283 . S
O242 Mn216 2.094 . S
O242 C220 1.240 . S
O243 Mn217 2.117 . S
O243 C220 1.264 1_554 S
C244 C237 1.403 . S
C244 C245 1.399 . S
C244 H250 0.929 . S
C245 C225 1.449 . S
C245 C244 1.399 . S
C245 H251 0.930 . S
H246 C226 0.931 . S
H247 C227 0.930 . S
H248 C235 0.931 . S
H249 C236 0.929 . S
H250 C244 0.929 . S
H251 C245 0.930 . S
Mn252 O257 2.095 . S
Mn252 O267 2.162 . S
Mn252 O268 2.297 . S
Mn252 O276 2.385 . S
Mn252 O277 2.209 . S
Mn252 O278 2.094 . S
Mn253 O258 2.121 . S
Mn253 N260 2.257 . S
Mn253 N269 2.282 . S
Mn253 O277 2.215 1_556 S
Mn253 O279 2.117 . S
C254 O276 1.234 . S
C254 O277 1.283 . S
C255 O267 1.281 . S
C255 O268 1.236 . S
C256 O278 1.240 . S
C256 O279 1.264 1_554 S
O257 Mn252 2.095 . S
O257 C266 1.250 . S
O258 Mn253 2.121 . S
O258 C266 1.258 1_556 S
C259 N260 1.326 . S
C259 C263 1.460 . S
C259 H265 0.929 . S
N260 Mn253 2.257 . S
N260 C259 1.326 . S
N260 C264 1.362 . S
C261 C262 1.258 . S
C261 C264 1.431 . S
C261 C281 1.449 . S
C262 C261 1.258 . S
C262 C263 1.477 . S
C262 H282 0.931 . S
C263 C259 1.460 . S
C263 C262 1.477 . S
C263 H283 0.930 . S
C264 N260 1.362 . S
C264 C261 1.431 . S
C264 C274 1.476 . S
H265 C259 0.929 . S
C266 O257 1.250 . S
C266 O258 1.258 1_554 S
O267 Mn252 2.162 . S
O267 C255 1.281 . S
O268 Mn252 2.297 . S
O268 C255 1.236 . S
N269 Mn253 2.282 . S
N269 C270 1.328 . S
N269 C274 1.318 . S
C270 N269 1.328 . S
C270 C271 1.457 . S
C270 H275 0.929 . S
C271 C270 1.457 . S
C271 C272 1.291 . S
C271 H284 0.931 . S
C272 C271 1.291 . S
C272 C273 1.373 . S
C272 H285 0.929 . S
C273 C272 1.373 . S
C273 C274 1.396 . S
C273 C280 1.403 . S
C274 C264 1.476 . S
C274 N269 1.318 . S
C274 C273 1.396 . S
H275 C270 0.929 . S
O276 Mn252 2.385 . S
O276 C254 1.234 . S
O277 Mn252 2.209 . S
O277 Mn253 2.215 1_554 S
O277 C254 1.283 . S
O278 Mn252 2.094 . S
O278 C256 1.240 . S
O279 Mn253 2.117 . S
O279 C256 1.264 1_556 S
C280 C273 1.403 . S
C280 C281 1.399 . S
C280 H286 0.929 . S
C281 C261 1.449 . S
C281 C280 1.399 . S
C281 H287 0.930 . S
H282 C262 0.931 . S
H283 C263 0.930 . S
H284 C271 0.931 . S
H285 C272 0.929 . S
H286 C280 0.929 . S
H287 C281 0.930 . S
C288 C289 1.386 . S
C288 C290 1.383 . S
C288 H304 0.951 . S
C289 C288 1.386 . S
C289 C293 1.383 . S
C290 C288 1.383 . S
C290 C291 1.402 . S
C290 H305 0.951 . S
C291 C290 1.402 . S
C291 C292 1.375 . S
C291 C294 1.481 . S
C292 C291 1.375 . S
C292 C293 1.367 . S
C292 H306 0.951 . S
C293 C289 1.383 . S
C293 C292 1.367 . S
C293 H307 0.950 . S
C294 C291 1.481 . S
C294 C295 1.297 . S
C294 H308 0.950 . S
C295 C294 1.297 . S
C295 C296 1.479 . S
C295 H309 0.950 . S
C296 C295 1.479 . S
C296 C297 1.375 . S
C296 C302 1.404 . S
C297 C296 1.375 . S
C297 C298 1.369 . S
C297 H310 0.950 . S
C298 C297 1.369 . S
C298 C299 1.392 . S
C298 H311 0.951 . S
C299 C298 1.392 . S
C299 C301 1.384 . S
H300 C302 0.949 . S
C301 C299 1.384 . S
C301 C302 1.385 . S
C301 H303 0.950 . S
C302 C296 1.404 . S
C302 H300 0.949 . S
C302 C301 1.385 . S
H303 C301 0.950 . S
H304 C288 0.951 . S
H305 C290 0.951 . S
H306 C292 0.951 . S
H307 C293 0.950 . S
H308 C294 0.950 . S
H309 C295 0.950 . S
H310 C297 0.950 . S
H311 C298 0.951 . S
C312 C313 1.386 . S
C312 C314 1.383 . S
C312 H328 0.951 . S
C313 C312 1.386 . S
C313 C317 1.383 . S
C314 C312 1.383 . S
C314 C315 1.402 . S
C314 H329 0.951 . S
C315 C314 1.402 . S
C315 C316 1.375 . S
C315 C318 1.481 . S
C316 C315 1.375 . S
C316 C317 1.367 . S
C316 H330 0.951 . S
C317 C313 1.383 . S
C317 C316 1.367 . S
C317 H331 0.950 . S
C318 C315 1.481 . S
C318 C319 1.297 . S
C318 H332 0.950 . S
C319 C318 1.297 . S
C319 C320 1.479 . S
C319 H333 0.950 . S
C320 C319 1.479 . S
C320 C321 1.375 . S
C320 C326 1.404 . S
C321 C320 1.375 . S
C321 C322 1.369 . S
C321 H334 0.950 . S
C322 C321 1.369 . S
C322 C323 1.392 . S
C322 H335 0.951 . S
C323 C322 1.392 . S
C323 C325 1.384 . S
H324 C326 0.949 . S
C325 C323 1.384 . S
C325 C326 1.385 . S
C325 H327 0.950 . S
C326 C320 1.404 . S
C326 H324 0.949 . S
C326 C325 1.385 . S
H327 C325 0.950 . S
H328 C312 0.951 . S
H329 C314 0.951 . S
H330 C316 0.951 . S
H331 C317 0.950 . S
H332 C318 0.950 . S
H333 C319 0.950 . S
H334 C321 0.950 . S
H335 C322 0.951 . S
C336 C337 1.386 . S
C336 C338 1.383 . S
C336 H352 0.951 . S
C337 C336 1.386 . S
C337 C341 1.383 . S
C338 C336 1.383 . S
C338 C339 1.402 . S
C338 H353 0.951 . S
C339 C338 1.402 . S
C339 C340 1.375 . S
C339 C342 1.481 . S
C340 C339 1.375 . S
C340 C341 1.367 . S
C340 H354 0.951 . S
C341 C337 1.383 . S
C341 C340 1.367 . S
C341 H355 0.950 . S
C342 C339 1.481 . S
C342 C343 1.297 . S
C342 H356 0.950 . S
C343 C342 1.297 . S
C343 C344 1.479 . S
C343 H357 0.950 . S
C344 C343 1.479 . S
C344 C345 1.375 . S
C344 C350 1.404 . S
C345 C344 1.375 . S
C345 C346 1.369 . S
C345 H358 0.950 . S
C346 C345 1.369 . S
C346 C347 1.392 . S
C346 H359 0.951 . S
C347 C346 1.392 . S
C347 C349 1.384 . S
H348 C350 0.949 . S
C349 C347 1.384 . S
C349 C350 1.385 . S
C349 H351 0.950 . S
C350 C344 1.404 . S
C350 H348 0.949 . S
C350 C349 1.385 . S
H351 C349 0.950 . S
H352 C336 0.951 . S
H353 C338 0.951 . S
H354 C340 0.951 . S
H355 C341 0.950 . S
H356 C342 0.950 . S
H357 C343 0.950 . S
H358 C345 0.950 . S
H359 C346 0.951 . S
C360 C361 1.386 . S
C360 C362 1.383 . S
C360 H376 0.951 . S
C361 C360 1.386 . S
C361 C365 1.383 . S
C362 C360 1.383 . S
C362 C363 1.402 . S
C362 H377 0.951 . S
C363 C362 1.402 . S
C363 C364 1.375 . S
C363 C366 1.481 . S
C364 C363 1.375 . S
C364 C365 1.367 . S
C364 H378 0.951 . S
C365 C361 1.383 . S
C365 C364 1.367 . S
C365 H379 0.950 . S
C366 C363 1.481 . S
C366 C367 1.297 . S
C366 H380 0.950 . S
C367 C366 1.297 . S
C367 C368 1.479 . S
C367 H381 0.950 . S
C368 C367 1.479 . S
C368 C369 1.375 . S
C368 C374 1.404 . S
C369 C368 1.375 . S
C369 C370 1.369 . S
C369 H382 0.950 . S
C370 C369 1.369 . S
C370 C371 1.392 . S
C370 H383 0.951 . S
C371 C370 1.392 . S
C371 C373 1.384 . S
H372 C374 0.949 . S
C373 C371 1.384 . S
C373 C374 1.385 . S
C373 H375 0.950 . S
C374 C368 1.404 . S
C374 H372 0.949 . S
C374 C373 1.385 . S
H375 C373 0.950 . S
H376 C360 0.951 . S
H377 C362 0.951 . S
H378 C364 0.951 . S
H379 C365 0.950 . S
H380 C366 0.950 . S
H381 C367 0.950 . S
H382 C369 0.950 . S
H383 C370 0.951 . S
C384 C385 1.386 . S
C384 C386 1.383 . S
C384 H400 0.951 . S
C385 C384 1.386 . S
C385 C389 1.383 . S
C386 C384 1.383 . S
C386 C387 1.402 . S
C386 H401 0.951 . S
C387 C386 1.402 . S
C387 C388 1.375 . S
C387 C390 1.481 . S
C388 C387 1.375 . S
C388 C389 1.367 . S
C388 H402 0.951 . S
C389 C385 1.383 . S
C389 C388 1.367 . S
C389 H403 0.950 . S
C390 C387 1.481 . S
C390 C391 1.297 . S
C390 H404 0.950 . S
C391 C390 1.297 . S
C391 C392 1.479 . S
C391 H405 0.950 . S
C392 C391 1.479 . S
C392 C393 1.375 . S
C392 C398 1.404 . S
C393 C392 1.375 . S
C393 C394 1.369 . S
C393 H406 0.950 . S
C394 C393 1.369 . S
C394 C395 1.392 . S
C394 H407 0.951 . S
C395 C394 1.392 . S
C395 C397 1.384 . S
H396 C398 0.949 . S
C397 C395 1.384 . S
C397 C398 1.385 . S
C397 H399 0.950 . S
C398 C392 1.404 . S
C398 H396 0.949 . S
C398 C397 1.385 . S
H399 C397 0.950 . S
H400 C384 0.951 . S
H401 C386 0.951 . S
H402 C388 0.951 . S
H403 C389 0.950 . S
H404 C390 0.950 . S
H405 C391 0.950 . S
H406 C393 0.950 . S
H407 C394 0.951 . S
C408 C409 1.386 . S
C408 C410 1.383 . S
C408 H424 0.951 . S
C409 C408 1.386 . S
C409 C413 1.383 . S
C410 C408 1.383 . S
C410 C411 1.402 . S
C410 H425 0.951 . S
C411 C410 1.402 . S
C411 C412 1.375 . S
C411 C414 1.481 . S
C412 C411 1.375 . S
C412 C413 1.367 . S
C412 H426 0.951 . S
C413 C409 1.383 . S
C413 C412 1.367 . S
C413 H427 0.950 . S
C414 C411 1.481 . S
C414 C415 1.297 . S
C414 H428 0.950 . S
C415 C414 1.297 . S
C415 C416 1.479 . S
C415 H429 0.950 . S
C416 C415 1.479 . S
C416 C417 1.375 . S
C416 C422 1.404 . S
C417 C416 1.375 . S
C417 C418 1.369 . S
C417 H430 0.950 . S
C418 C417 1.369 . S
C418 C419 1.392 . S
C418 H431 0.951 . S
C419 C418 1.392 . S
C419 C421 1.384 . S
H420 C422 0.949 . S
C421 C419 1.384 . S
C421 C422 1.385 . S
C421 H423 0.950 . S
C422 C416 1.404 . S
C422 H420 0.949 . S
C422 C421 1.385 . S
H423 C421 0.950 . S
H424 C408 0.951 . S
H425 C410 0.951 . S
H426 C412 0.951 . S
H427 C413 0.950 . S
H428 C414 0.950 . S
H429 C415 0.950 . S
H430 C417 0.950 . S
H431 C418 0.951 . S
C432 C433 1.386 . S
C432 C434 1.383 . S
C432 H448 0.951 . S
C433 C432 1.386 . S
C433 C437 1.383 . S
C434 C432 1.383 . S
C434 C435 1.402 . S
C434 H449 0.951 . S
C435 C434 1.402 . S
C435 C436 1.375 . S
C435 C438 1.481 . S
C436 C435 1.375 . S
C436 C437 1.367 . S
C436 H450 0.951 . S
C437 C433 1.383 . S
C437 C436 1.367 . S
C437 H451 0.950 . S
C438 C435 1.481 . S
C438 C439 1.297 . S
C438 H452 0.950 . S
C439 C438 1.297 . S
C439 C440 1.479 . S
C439 H453 0.950 . S
C440 C439 1.479 . S
C440 C441 1.375 . S
C440 C446 1.404 . S
C441 C440 1.375 . S
C441 C442 1.369 . S
C441 H454 0.950 . S
C442 C441 1.369 . S
C442 C443 1.392 . S
C442 H455 0.951 . S
C443 C442 1.392 . S
C443 C445 1.384 . S
H444 C446 0.949 . S
C445 C443 1.384 . S
C445 C446 1.385 . S
C445 H447 0.950 . S
C446 C440 1.404 . S
C446 H444 0.949 . S
C446 C445 1.385 . S
H447 C445 0.950 . S
H448 C432 0.951 . S
H449 C434 0.951 . S
H450 C436 0.951 . S
H451 C437 0.950 . S
H452 C438 0.950 . S
H453 C439 0.950 . S
H454 C441 0.950 . S
H455 C442 0.951 . S
C456 C457 1.386 . S
C456 C458 1.383 . S
C456 H472 0.951 . S
C457 C456 1.386 . S
C457 C461 1.383 . S
C458 C456 1.383 . S
C458 C459 1.402 . S
C458 H473 0.951 . S
C459 C458 1.402 . S
C459 C460 1.375 . S
C459 C462 1.481 . S
C460 C459 1.375 . S
C460 C461 1.367 . S
C460 H474 0.951 . S
C461 C457 1.383 . S
C461 C460 1.367 . S
C461 H475 0.950 . S
C462 C459 1.481 . S
C462 C463 1.297 . S
C462 H476 0.950 . S
C463 C462 1.297 . S
C463 C464 1.479 . S
C463 H477 0.950 . S
C464 C463 1.479 . S
C464 C465 1.375 . S
C464 C470 1.404 . S
C465 C464 1.375 . S
C465 C466 1.369 . S
C465 H478 0.950 . S
C466 C465 1.369 . S
C466 C467 1.392 . S
C466 H479 0.951 . S
C467 C466 1.392 . S
C467 C469 1.384 . S
H468 C470 0.949 . S
C469 C467 1.384 . S
C469 C470 1.385 . S
C469 H471 0.950 . S
C470 C464 1.404 . S
C470 H468 0.949 . S
C470 C469 1.385 . S
H471 C469 0.950 . S
H472 C456 0.951 . S
H473 C458 0.951 . S
H474 C460 0.951 . S
H475 C461 0.950 . S
H476 C462 0.950 . S
H477 C463 0.950 . S
H478 C465 0.950 . S
H479 C466 0.951 . S
C480 C481 1.386 . S
C480 C482 1.383 . S
C480 H496 0.951 . S
C481 C480 1.386 . S
C481 C485 1.383 . S
C482 C480 1.383 . S
C482 C483 1.402 . S
C482 H497 0.952 1_554 S
C483 C482 1.402 . S
C483 C484 1.375 . S
C483 C486 1.481 . S
C484 C483 1.375 . S
C484 C485 1.367 . S
C484 H498 0.951 . S
C485 C481 1.383 . S
C485 C484 1.367 . S
C485 H499 0.950 . S
C486 C483 1.481 . S
C486 C487 1.297 . S
C486 H500 0.950 . S
C487 C486 1.297 . S
C487 C488 1.479 . S
C487 H501 0.950 . S
C488 C487 1.479 . S
C488 C489 1.375 1_554 S
C488 C494 1.404 . S
C489 C488 1.375 1_556 S
C489 C490 1.369 . S
C489 H502 0.950 . S
C490 C489 1.369 . S
C490 C491 1.392 . S
C490 H503 0.951 . S
C491 C490 1.392 . S
C491 C493 1.384 1_556 S
H492 C494 0.949 . S
C493 C491 1.384 1_554 S
C493 C494 1.385 . S
C493 H495 0.950 . S
C494 C488 1.404 . S
C494 H492 0.949 . S
C494 C493 1.385 . S
H495 C493 0.950 . S
H496 C480 0.951 . S
H497 C482 0.952 1_556 S
H498 C484 0.951 . S
H499 C485 0.950 . S
H500 C486 0.950 . S
H501 C487 0.950 . S
H502 C489 0.950 . S
H503 C490 0.951 . S
C504 C505 1.386 . S
C504 C506 1.383 . S
C504 H520 0.951 . S
C505 C504 1.386 . S
C505 C509 1.383 1_554 S
C506 C504 1.383 . S
C506 C507 1.402 1_554 S
C506 H521 0.951 . S
C507 C506 1.402 1_556 S
C507 C508 1.375 . S
C507 C510 1.481 . S
C508 C507 1.375 . S
C508 C509 1.367 . S
C508 H522 0.951 . S
C509 C505 1.383 1_556 S
C509 C508 1.367 . S
C509 H523 0.950 . S
C510 C507 1.481 . S
C510 C511 1.283 1_556 S
C510 H524 0.950 . S
C511 C510 1.283 1_554 S
C511 C512 1.474 1_554 S
C511 H525 0.973 . S
C512 C511 1.474 1_556 S
C512 C513 1.375 1_556 S
C512 C518 1.404 . S
C513 C512 1.375 1_554 S
C513 C514 1.369 . S
C513 H526 0.950 . S
C514 C513 1.369 . S
C514 C515 1.392 1_554 S
C514 H527 0.951 . S
C515 C514 1.392 1_556 S
C515 C517 1.384 . S
H516 C518 0.949 . S
C517 C515 1.384 . S
C517 C518 1.385 . S
C517 H519 0.950 . S
C518 C512 1.404 . S
C518 H516 0.949 . S
C518 C517 1.385 . S
H519 C517 0.950 . S
H520 C504 0.951 . S
H521 C506 0.951 . S
H522 C508 0.951 . S
H523 C509 0.950 . S
H524 C510 0.950 . S
H525 C511 0.973 . S
H526 C513 0.950 . S
H527 C514 0.951 . S
C528 C529 1.386 . S
C528 C530 1.383 . S
C528 H544 0.951 . S
C529 C528 1.386 . S
C529 C533 1.383 1_554 S
C530 C528 1.383 . S
C530 C531 1.402 1_554 S
C530 H545 0.951 . S
C531 C530 1.402 1_556 S
C531 C532 1.375 . S
C531 C534 1.481 . S
C532 C531 1.375 . S
C532 C533 1.367 . S
C532 H546 0.951 . S
C533 C529 1.383 1_556 S
C533 C532 1.367 . S
C533 H547 0.950 . S
C534 C531 1.481 . S
C534 C535 1.297 1_556 S
C534 H548 0.950 . S
C535 C534 1.297 1_554 S
C535 C536 1.479 1_554 S
C535 H549 0.950 . S
C536 C535 1.479 1_556 S
C536 C537 1.375 1_556 S
C536 C542 1.404 . S
C537 C536 1.375 1_554 S
C537 C538 1.369 . S
C537 H550 0.950 . S
C538 C537 1.369 . S
C538 C539 1.392 1_554 S
C538 H551 0.951 . S
C539 C538 1.392 1_556 S
C539 C541 1.384 . S
H540 C542 0.949 . S
C541 C539 1.384 . S
C541 C542 1.385 . S
C541 H543 0.950 . S
C542 C536 1.404 . S
C542 H540 0.949 . S
C542 C541 1.385 . S
H543 C541 0.950 . S
H544 C528 0.951 . S
H545 C530 0.951 . S
H546 C532 0.951 . S
H547 C533 0.950 . S
H548 C534 0.950 . S
H549 C535 0.950 . S
H550 C537 0.950 . S
H551 C538 0.951 . S
C552 C553 1.386 . S
C552 C554 1.383 . S
C552 H568 0.951 . S
C553 C552 1.386 . S
C553 C557 1.383 . S
C554 C552 1.383 . S
C554 C555 1.402 . S
C554 H569 0.951 . S
C555 C554 1.402 . S
C555 C556 1.375 . S
C555 C558 1.481 . S
C556 C555 1.375 . S
C556 C557 1.367 . S
C556 H570 0.951 . S
C557 C553 1.383 . S
C557 C556 1.367 . S
C557 H571 0.950 . S
C558 C555 1.481 . S
C558 C559 1.297 . S
C558 H572 0.950 . S
C559 C558 1.297 . S
C559 C560 1.479 . S
C559 H573 0.950 . S
C560 C559 1.479 . S
C560 C561 1.365 1_556 S
C560 C566 1.404 . S
C561 C560 1.365 1_554 S
C561 C562 1.379 . S
C561 H574 0.952 . S
C562 C561 1.379 . S
C562 C563 1.392 . S
C562 H575 0.951 . S
C563 C562 1.392 . S
C563 C565 1.384 1_554 S
H564 C566 0.949 . S
C565 C563 1.384 1_556 S
C565 C566 1.385 . S
C565 H567 0.950 . S
C566 C560 1.404 . S
C566 H564 0.949 . S
C566 C565 1.385 . S
H567 C565 0.950 . S
H568 C552 0.951 . S
H569 C554 0.951 . S
H570 C556 0.951 . S
H571 C557 0.950 . S
H572 C558 0.950 . S
H573 C559 0.950 . S
H574 C561 0.952 . S
H575 C562 0.951 . S
C576 C577 1.386 . S
C576 C578 1.383 . S
C576 H592 0.951 . S
C577 C576 1.386 . S
C577 C581 1.383 . S
C578 C576 1.383 . S
C578 C579 1.402 . S
C578 H593 0.951 . S
C579 C578 1.402 . S
C579 C580 1.375 . S
C579 C582 1.481 . S
C580 C579 1.375 . S
C580 C581 1.367 . S
C580 H594 0.951 . S
C581 C577 1.383 . S
C581 C580 1.367 . S
C581 H595 0.950 . S
C582 C579 1.481 . S
C582 C583 1.297 . S
C582 H596 0.950 . S
C583 C582 1.297 . S
C583 C584 1.479 1_655 S
C583 H597 0.950 . S
C584 C583 1.479 1_455 S
C584 C585 1.375 . S
C584 C590 1.404 . S
C585 C584 1.375 . S
C585 C586 1.369 . S
C585 H598 0.950 . S
C586 C585 1.369 . S
C586 C587 1.392 . S
C586 H599 0.951 . S
C587 C586 1.392 . S
C587 C589 1.384 . S
H588 C590 0.949 1_655 S
C589 C587 1.384 . S
C589 C590 1.385 . S
C589 H591 0.950 . S
C590 C584 1.404 . S
C590 H588 0.949 1_455 S
C590 C589 1.385 . S
H591 C589 0.950 . S
H592 C576 0.951 . S
H593 C578 0.951 . S
H594 C580 0.951 . S
H595 C581 0.950 . S
H596 C582 0.950 . S
H597 C583 0.950 . S
H598 C585 0.950 . S
H599 C586 0.951 . S
C600 C601 1.386 . S
C600 C602 1.383 . S
C600 H616 0.951 . S
C601 C600 1.386 . S
C601 C605 1.383 . S
C602 C600 1.383 . S
C602 C603 1.402 . S
C602 H617 0.951 . S
C603 C602 1.402 . S
C603 C604 1.375 . S
C603 C606 1.481 . S
C604 C603 1.375 . S
C604 C605 1.367 . S
C604 H618 0.951 . S
C605 C601 1.383 . S
C605 C604 1.367 . S
C605 H619 0.950 . S
C606 C603 1.481 . S
C606 C607 1.297 . S
C606 H620 0.950 . S
C607 C606 1.297 . S
C607 C608 1.479 1_545 S
C607 H621 0.950 . S
C608 C607 1.479 1_565 S
C608 C609 1.375 . S
C608 C614 1.404 . S
C609 C608 1.375 . S
C609 C610 1.369 . S
C609 H622 0.950 . S
C610 C609 1.369 . S
C610 C611 1.392 . S
C610 H623 0.951 . S
C611 C610 1.392 . S
C611 C613 1.384 . S
H612 C614 0.949 1_545 S
C613 C611 1.384 . S
C613 C614 1.385 . S
C613 H615 0.950 . S
C614 C608 1.404 . S
C614 H612 0.949 1_565 S
C614 C613 1.385 . S
H615 C613 0.950 . S
H616 C600 0.951 . S
H617 C602 0.951 . S
H618 C604 0.951 . S
H619 C605 0.950 . S
H620 C606 0.950 . S
H621 C607 0.950 . S
H622 C609 0.950 . S
H623 C610 0.951 . S
C624 C625 1.386 . S
C624 C626 1.383 . S
C624 H640 0.951 . S
C625 C624 1.386 . S
C625 C629 1.383 1_556 S
C626 C624 1.383 . S
C626 C627 1.402 . S
C626 H641 0.951 . S
C627 C626 1.402 . S
C627 C628 1.375 1_556 S
C627 C630 1.481 . S
C628 C627 1.375 1_554 S
C628 C629 1.367 . S
C628 H642 0.951 . S
C629 C625 1.383 1_554 S
C629 C628 1.367 . S
C629 H643 0.950 . S
C630 C627 1.481 . S
C630 C631 1.297 1_545 S
C630 H644 0.943 1_546 S
C631 C630 1.297 1_565 S
C631 C632 1.479 . S
C631 H645 0.950 . S
C632 C631 1.479 . S
C632 C633 1.375 . S
C632 C638 1.404 1_556 S
C633 C632 1.375 . S
C633 C634 1.369 . S
C633 H646 0.950 . S
C634 C633 1.369 . S
C634 C635 1.392 . S
C634 H647 0.951 . S
C635 C634 1.392 . S
C635 C637 1.384 1_556 S
H636 C638 0.949 . S
C637 C635 1.384 1_554 S
C637 C638 1.385 . S
C637 H639 0.950 . S
C638 C632 1.404 1_554 S
C638 H636 0.949 . S
C638 C637 1.385 . S
H639 C637 0.950 . S
H640 C624 0.951 . S
H641 C626 0.951 . S
H642 C628 0.951 . S
H643 C629 0.950 . S
H644 C630 0.943 1_564 S
H645 C631 0.950 . S
H646 C633 0.950 . S
H647 C634 0.951 . S
C648 C649 1.386 . S
C648 C650 1.383 . S
C648 H664 0.951 . S
C649 C648 1.386 . S
C649 C653 1.383 1_554 S
C650 C648 1.383 . S
C650 C651 1.402 . S
C650 H665 0.951 . S
C651 C650 1.402 . S
C651 C652 1.375 1_554 S
C651 C654 1.481 . S
C652 C651 1.375 1_556 S
C652 C653 1.367 . S
C652 H666 0.951 . S
C653 C649 1.383 1_556 S
C653 C652 1.367 . S
C653 H667 0.950 . S
C654 C651 1.481 . S
C654 C655 1.297 1_455 S
C654 H668 0.950 1_554 S
C655 C654 1.297 1_655 S
C655 C656 1.479 . S
C655 H669 0.948 1_655 S
C656 C655 1.479 . S
C656 C657 1.375 . S
C656 C662 1.404 . S
C657 C656 1.375 . S
C657 C658 1.369 . S
C657 H670 0.950 . S
C658 C657 1.369 . S
C658 C659 1.392 . S
C658 H671 0.951 . S
C659 C658 1.392 . S
C659 C661 1.359 1_554 S
H660 C662 0.949 1_556 S
C661 C659 1.359 1_556 S
C661 C662 1.382 1_556 S
C661 H663 0.980 . S
C662 C656 1.404 . S
C662 H660 0.949 1_554 S
C662 C661 1.382 1_554 S
H663 C661 0.980 . S
H664 C648 0.951 . S
H665 C650 0.951 . S
H666 C652 0.951 . S
H667 C653 0.950 . S
H668 C654 0.950 1_556 S
H669 C655 0.948 1_455 S
H670 C657 0.950 . S
H671 C658 0.951 . S
C289 C255 1.541 . S
C299 C3 1.546 . S
C313 C39 1.552 . S
C323 C147 1.546 . S
C337 C75 1.550 . S
C347 C183 1.531 . S
C361 C219 1.548 . S
C371 C111 1.548 . S
C385 C40 1.410 1_545 S
C395 C14 1.354 . S
C409 C50 1.334 . S
C419 C76 1.411 1_455 S
C433 C112 1.410 1_565 S
C443 C86 1.408 . S
C457 C122 1.331 . S
C467 C4 1.410 1_655 S
C481 C256 1.417 . S
C491 C158 1.361 . S
C505 C194 1.366 . S
C515 C148 1.400 . S
C529 C184 1.412 . S
C539 C230 1.306 . S
C553 C220 1.413 . S
C563 C266 1.321 . S
C577 C74 0.823 . S
C587 C2 0.793 . S
C601 C110 0.862 . S
C611 C38 0.703 . S
C625 C218 0.864 . S
C635 C146 0.726 . S
C649 C254 0.790 . S
C659 C182 0.828 . S
