# Generated by pormake.
# Topology uni, (4)-cn, num edge types: 1
# Building blocks:
#     Node 0, Type 0, BuildingBlock: GALJAG_clean_sbu_0, # of connection points: 4
#     Node 1, Type 0, BuildingBlock: GALJAG_clean_sbu_0, # of connection points: 4
#     Node 2, Type 0, BuildingBlock: GALJAG_clean_sbu_0, # of connection points: 4
#     Node 3, Type 0, BuildingBlock: GALJAG_clean_sbu_0, # of connection points: 4
#     Node 4, Type 0, BuildingBlock: GALJAG_clean_sbu_0, # of connection points: 4
#     Node 5, Type 0, BuildingBlock: GALJAG_clean_sbu_0, # of connection points: 4
#     Edge 6, Type (0, 0), BuildingBlock: CIFDUS_clean_linker_0, # of connection points: 2
#     Edge 7, Type (0, 0), BuildingBlock: CIFDUS_clean_linker_0, # of connection points: 2
#     Edge 8, Type (0, 0), BuildingBlock: CIFDUS_clean_linker_0, # of connection points: 2
#     Edge 9, Type (0, 0), BuildingBlock: CIFDUS_clean_linker_0, # of connection points: 2
#     Edge 10, Type (0, 0), BuildingBlock: CIFDUS_clean_linker_0, # of connection points: 2
#     Edge 11, Type (0, 0), BuildingBlock: CIFDUS_clean_linker_0, # of connection points: 2
#     Edge 12, Type (0, 0), BuildingBlock: CIFDUS_clean_linker_0, # of connection points: 2
#     Edge 13, Type (0, 0), BuildingBlock: CIFDUS_clean_linker_0, # of connection points: 2
#     Edge 14, Type (0, 0), BuildingBlock: CIFDUS_clean_linker_0, # of connection points: 2
#     Edge 15, Type (0, 0), BuildingBlock: CIFDUS_clean_linker_0, # of connection points: 2
#     Edge 16, Type (0, 0), BuildingBlock: CIFDUS_clean_linker_0, # of connection points: 2
#     Edge 17, Type (0, 0), BuildingBlock: CIFDUS_clean_linker_0, # of connection points: 2
# Relax obj value: 0.070
# Max RMSD: 0.134
# Mean RMSD: 0.134
data_MOF--net-uni--node1-GALJAG_clean_sbu_0--edge1-CIFDUS_clean_linker_0
_symmetry_space_group_name_H-M    P1
_symmetry_Int_Tables_number       1
_symmetry_cell_setting            triclinic
loop_
_symmetry_equiv_pos_as_xyz
'x, y, z'
_cell_length_a     32.847702
_cell_length_b     32.916177
_cell_length_c     22.155143
_cell_angle_alpha  89.586256
_cell_angle_beta   90.314911
_cell_angle_gamma 119.93996
loop_
_atom_site_label
_atom_site_type_symbol
_atom_site_fract_x
_atom_site_fract_y
_atom_site_fract_z
_atom_type_partial_charge
In0 In 0.62221 0.00896 0.06356 0.0
O1 O 0.56366 0.96351 0.99513 0.0
O2 O 0.60291 0.03657 0.98 0.0
C3 C 0.62207 0.93007 0.09941 0.0
C4 C 0.70927 0.07986 0.03734 0.0
C5 C 0.59234 0.03228 0.16408 0.0
O6 O 0.64731 0.95522 0.05631 0.0
O7 O 0.59659 0.94421 0.12295 0.0
O8 O 0.63265 0.03669 0.15972 0.0
O9 O 0.56737 0.01715 0.11706 0.0
C10 C 0.57081 0.99755 0.96168 0.0
O11 O 0.6769 0.08624 0.05682 0.0
O12 O 0.69835 0.03738 0.03285 0.0
In13 In 0.64357 0.62759 0.22121 0.0
O14 O 0.63578 0.59513 0.1278 0.0
O15 O 0.57366 0.5762 0.17712 0.0
C16 C 0.72998 0.64281 0.25053 0.0
C17 C 0.6512 0.70985 0.1857 0.0
C18 C 0.59971 0.58247 0.32375 0.0
O19 O 0.70076 0.608 0.22026 0.0
O20 O 0.7163 0.67114 0.26471 0.0
O21 O 0.59918 0.61862 0.30531 0.0
O22 O 0.62191 0.56934 0.29043 0.0
C23 C 0.59155 0.57172 0.12927 0.0
O24 O 0.62812 0.68759 0.23173 0.0
O25 O 0.67133 0.69119 0.15855 0.0
In26 In 0.03373 0.6253 0.37993 0.0
O27 O 0.0451 0.63 0.27819 0.0
O28 O 0.03816 0.56981 0.32363 0.0
C29 C 0.10878 0.7097 0.40511 0.0
C30 C 0.95118 0.62152 0.35652 0.0
C31 C 0.03295 0.57686 0.47946 0.0
O32 O 0.1087 0.68321 0.36426 0.0
O33 O 0.07004 0.69459 0.43209 0.0
O34 O 0.99859 0.58202 0.46518 0.0
O35 O 0.06696 0.59531 0.44328 0.0
C36 C 0.04373 0.59114 0.27411 0.0
O37 O 0.95558 0.58567 0.36051 0.0
O38 O 0.98843 0.65986 0.36646 0.0
In39 In 0.40496 0.02251 0.55896 0.0
O40 O 0.36292 0.9466 0.52864 0.0
O41 O 0.325 0.9763 0.56788 0.0
C42 C 0.45729 0.02074 0.65273 0.0
C43 C 0.4492 0.03466 0.45209 0.0
C44 C 0.39162 0.0958 0.58107 0.0
O45 O 0.41775 0.98606 0.63971 0.0
O46 O 0.47061 0.05548 0.61775 0.0
O47 O 0.40443 0.08909 0.53042 0.0
O48 O 0.38498 0.06531 0.62046 0.0
C49 C 0.32345 0.94123 0.54294 0.0
O50 O 0.4091 0.03063 0.45665 0.0
O51 O 0.46765 0.03341 0.50173 0.0
In52 In 0.41106 0.41153 0.72319 0.0
O53 O 0.40651 0.34289 0.75361 0.0
O54 O 0.38729 0.34745 0.66326 0.0
C55 C 0.46834 0.44891 0.81994 0.0
C56 C 0.45381 0.46284 0.62351 0.0
C57 C 0.33177 0.4139 0.74745 0.0
O58 O 0.48313 0.45826 0.76642 0.0
O59 O 0.42502 0.42021 0.82459 0.0
O60 O 0.37236 0.44907 0.75256 0.0
O61 O 0.33085 0.37747 0.72814 0.0
C62 C 0.39281 0.3231 0.70314 0.0
O63 O 0.41916 0.46303 0.64756 0.0
O64 O 0.46678 0.43712 0.64986 0.0
In65 In 0.01191 0.39146 0.884 0.0
O66 O 0.08896 0.41296 0.8837 0.0
O67 O 0.04252 0.3511 0.83572 0.0
C68 C 0.03024 0.43957 0.98826 0.0
C69 C 1.00315 0.43305 0.78278 0.0
C70 C 0.93044 0.31569 0.91753 0.0
O71 O 0.03185 0.40223 0.98372 0.0
O72 O 0.01999 0.45303 0.93999 0.0
O73 O 0.935 0.35576 0.90963 0.0
O74 O 0.96696 0.31327 0.90694 0.0
C75 C 0.08436 0.37992 0.85066 0.0
O76 O 0.97086 0.39374 0.80094 0.0
O77 O 0.03916 0.45137 0.81582 0.0
H78 H 0.50778 0.026 0.18394 0.0
H79 H 0.63671 0.05551 0.27319 0.0
H80 H 0.60459 0.06077 0.37011 0.0
H81 H 0.5381 0.05238 0.43049 0.0
H82 H 0.40951 0.02358 0.34091 0.0
H83 H 0.44327 0.02278 0.24334 0.0
C84 C 0.529 0.03402 0.22452 0.0
C85 C 0.57443 0.04007 0.22141 0.0
C86 C 0.51026 0.03684 0.28017 0.0
C87 C 0.60157 0.05062 0.27435 0.0
C88 C 0.58319 0.05349 0.32986 0.0
C89 C 0.51764 0.04626 0.38954 0.0
C90 C 0.4713 0.03777 0.39298 0.0
C91 C 0.5373 0.04592 0.33347 0.0
C92 C 0.44527 0.03018 0.33951 0.0
C93 C 0.4645 0.02962 0.28367 0.0
H94 H 0.53597 0.59182 0.39199 0.0
H95 H 0.61166 0.51618 0.3813 0.0
H96 H 0.57391 0.47337 0.47354 0.0
H97 H 0.5191 0.45673 0.55669 0.0
H98 H 0.44068 0.52953 0.56672 0.0
H99 H 0.47968 0.57408 0.47535 0.0
C100 C 0.54422 0.56604 0.41005 0.0
C101 C 0.5766 0.55723 0.37995 0.0
C102 C 0.52186 0.541 0.46288 0.0
C103 C 0.58675 0.52352 0.40353 0.0
C104 C 0.56524 0.49904 0.45633 0.0
C105 C 0.5106 0.48243 0.53899 0.0
C106 C 0.47721 0.48996 0.56847 0.0
C107 C 0.53269 0.5074 0.48626 0.0
C108 C 0.46631 0.52312 0.54477 0.0
C109 C 0.48862 0.54861 0.49258 0.0
H110 H 0.07526 0.49708 0.71593 0.0
H111 H 0.92397 0.41862 0.72331 0.0
H112 H 0.91949 0.45699 0.63025 0.0
H113 H 0.95913 0.51334 0.54685 0.0
H114 H 0.11048 0.58704 0.53688 0.0
H115 H 0.1145 0.55 0.63081 0.0
C116 C 0.04132 0.48851 0.6972 0.0
C117 C 1.00001 0.4555 0.72649 0.0
C118 C 0.0391 0.50978 0.6432 0.0
C119 C 0.95623 0.44405 0.70141 0.0
C120 C 0.95369 0.46599 0.64833 0.0
C121 C 0.9929 0.52117 0.56538 0.0
C122 C 0.03445 0.55297 0.53529 0.0
C123 C 0.99493 0.49897 0.61885 0.0
C124 C 0.07802 0.56255 0.55923 0.0
C125 C 0.08037 0.54151 0.61298 0.0
H126 H 0.59194 0.06401 0.8763 0.0
H127 H 0.49103 0.92045 0.9202 0.0
H128 H 0.44727 0.91425 0.82741 0.0
H129 H 0.43695 0.95072 0.73477 0.0
H130 H 0.53962 0.09407 0.69162 0.0
H131 H 0.58355 0.09913 0.78296 0.0
C132 C 0.56036 0.03132 0.86562 0.0
C133 C 0.54454 0.99284 0.90522 0.0
C134 C 0.53575 0.02797 0.81223 0.0
C135 C 0.50385 0.9506 0.89044 0.0
C136 C 0.47884 0.94708 0.83744 0.0
C137 C 0.46908 0.98293 0.74526 0.0
C138 C 0.48489 0.02201 0.70648 0.0
C139 C 0.49435 0.98565 0.79809 0.0
C140 C 0.52663 0.06348 0.72062 0.0
C141 C 0.55177 0.06648 0.77296 0.0
H142 H 0.62103 0.56813 0.01612 0.0
H143 H 0.49738 0.51062 0.12826 0.0
H144 H 0.44874 0.4654 0.04308 0.0
H145 H 0.44082 0.44482 0.93586 0.0
H146 H 0.56373 0.50467 0.8223 0.0
H147 H 0.61326 0.54618 0.90895 0.0
C148 C 0.58349 0.54543 0.02195 0.0
C149 C 0.56281 0.54274 0.07832 0.0
C150 C 0.55562 0.52007 0.97253 0.0
C151 C 0.5141 0.51338 0.08523 0.0
C152 C 0.48626 0.48751 0.03657 0.0
C153 C 0.4785 0.46665 0.93019 0.0
C154 C 0.49862 0.4717 0.87284 0.0
C155 C 0.50657 0.49097 0.97989 0.0
C156 C 0.54743 0.5003 0.86604 0.0
C157 C 0.57574 0.52406 0.91553 0.0
H158 H 0.03593 0.52367 1.00666 0.0
H159 H 0.04048 0.41042 0.0998 0.0
H160 H 0.04699 0.44831 0.1966 0.0
H161 H 0.04762 0.51177 0.25507 0.0
H162 H 0.04388 0.62541 0.16182 0.0
H163 H 0.04111 0.58937 0.06477 0.0
C164 C 0.03863 0.50745 0.04814 0.0
C165 C 0.03743 0.46421 0.04616 0.0
C166 C 0.0424 0.52944 0.1036 0.0
C167 C 0.04126 0.44371 0.10017 0.0
C168 C 0.04488 0.46529 0.15555 0.0
C169 C 0.04652 0.52878 0.21347 0.0
C170 C 0.04568 0.57101 0.21559 0.0
C171 C 0.04492 0.50787 0.15784 0.0
C172 C 0.04451 0.59283 0.16136 0.0
C173 C 0.04281 0.5722 0.10586 0.0
H174 H 0.60507 0.75181 0.23145 0.0
H175 H 0.70001 0.76433 0.08937 0.0
H176 H 0.69956 0.83364 0.04979 0.0
H177 H 0.67119 0.89023 0.0548 0.0
H178 H 0.57522 0.8763 0.19635 0.0
H179 H 0.57704 0.80812 0.23667 0.0
C180 C 0.62586 0.76985 0.19201 0.0
C181 C 0.6526 0.75302 0.16351 0.0
C182 C 0.62508 0.80936 0.16917 0.0
C183 C 0.67919 0.77666 0.11226 0.0
C184 C 0.67888 0.81624 0.0895 0.0
C185 C 0.65066 0.87219 0.09439 0.0
C186 C 0.62302 0.88824 0.12237 0.0
C187 C 0.65176 0.83279 0.1174 0.0
C188 C 0.59664 0.86455 0.17373 0.0
C189 C 0.59771 0.82558 0.19696 0.0
H190 H 0.92968 0.69173 0.35195 0.0
H191 H 0.8726 0.54419 0.31727 0.0
H192 H 0.80016 0.53846 0.27956 0.0
H193 H 0.75311 0.57501 0.25541 0.0
H194 H 0.80717 0.72137 0.29375 0.0
H195 H 0.88079 0.72806 0.33069 0.0
C196 C 0.90126 0.65834 0.33638 0.0
C197 C 0.90657 0.61848 0.33735 0.0
C198 C 0.85932 0.65515 0.31502 0.0
C199 C 0.86941 0.5754 0.3172 0.0
C200 C 0.82799 0.57208 0.29537 0.0
C201 C 0.78112 0.60846 0.2715 0.0
C202 C 0.77501 0.64775 0.27134 0.0
C203 C 0.82267 0.61172 0.29376 0.0
C204 C 0.81124 0.69068 0.29324 0.0
C205 C 0.85324 0.69447 0.31443 0.0
H206 H 0.11879 0.77382 0.49004 0.0
H207 H 0.19645 0.74169 0.3608 0.0
H208 H 0.26963 0.80906 0.39428 0.0
H209 H 0.31189 0.87658 0.46044 0.0
H210 H 0.23533 0.91205 0.58689 0.0
H211 H 0.16144 0.84368 0.55482 0.0
C212 C 0.15172 0.78182 0.46902 0.0
C213 C 0.15216 0.75279 0.42302 0.0
C214 C 0.19389 0.82089 0.48837 0.0
C215 C 0.19508 0.76354 0.39616 0.0
C216 C 0.23703 0.80195 0.41544 0.0
C217 C 0.27907 0.86913 0.48135 0.0
C218 C 0.279 0.89892 0.52635 0.0
C219 C 0.23688 0.83064 0.46171 0.0
C220 C 0.23619 0.88937 0.55233 0.0
C221 C 0.19399 0.85042 0.53389 0.0
H222 H 0.38665 0.28445 0.59362 0.0
H223 H 0.38695 0.25789 0.78452 0.0
H224 H 0.38331 0.1833 0.76348 0.0
H225 H 0.38448 0.12783 0.69071 0.0
H226 H 0.38911 0.15701 0.49993 0.0
H227 H 0.38623 0.22832 0.52094 0.0
C228 C 0.38539 0.26206 0.63058 0.0
C229 C 0.38699 0.27652 0.6905 0.0
C230 C 0.38447 0.21987 0.61813 0.0
C231 C 0.38582 0.24747 0.738 0.0
C232 C 0.38379 0.20488 0.726 0.0
C233 C 0.38442 0.14961 0.65377 0.0
C234 C 0.387 0.13726 0.59389 0.0
C235 C 0.38377 0.19105 0.66624 0.0
C236 C 0.38726 0.16591 0.54643 0.0
C237 C 0.38562 0.20666 0.5584 0.0
H238 H 0.17494 0.44845 0.85545 0.0
H239 H 0.08567 0.30665 0.79443 0.0
H240 H 0.15447 0.30468 0.75566 0.0
H241 H 0.2404 0.34363 0.73995 0.0
H242 H 0.32804 0.4865 0.79891 0.0
H243 H 0.25933 0.48781 0.83717 0.0
C244 C 0.1705 0.41698 0.83394 0.0
C245 C 0.12542 0.37759 0.82828 0.0
C246 C 0.20989 0.41645 0.81104 0.0
C247 C 0.12013 0.33734 0.79954 0.0
C248 C 0.15941 0.33626 0.7773 0.0
C249 C 0.24433 0.37508 0.76087 0.0
C250 C 0.28927 0.41488 0.76666 0.0
C251 C 0.20451 0.37567 0.78279 0.0
C252 C 0.29387 0.45542 0.7938 0.0
C253 C 0.25461 0.45618 0.8159 0.0
H254 H 0.91036 0.22545 0.93644 0.0
H255 H 0.85127 0.3164 0.94996 0.0
H256 H 0.77875 0.25201 0.99056 0.0
H257 H 0.73179 0.1701 0.02174 0.0
H258 H 0.78854 0.07744 1.00591 0.0
H259 H 0.86242 0.14229 0.9672 0.0
C260 C 0.88153 0.23105 0.94816 0.0
C261 C 0.88621 0.27564 0.94011 0.0
C262 C 0.83964 0.19368 0.9714 0.0
C263 C 0.84857 0.28241 0.95551 0.0
C264 C 0.80708 0.24564 0.97892 0.0
C265 C 0.76043 0.16412 0.01025 0.0
C266 C 0.75486 0.11915 0.01698 0.0
C267 C 0.80226 0.20122 0.98713 0.0
C268 C 0.79209 0.11184 1.00127 0.0
C269 C 0.83425 0.14886 0.97901 0.0
loop_
_geom_bond_atom_site_label_1
_geom_bond_atom_site_label_2
_geom_bond_distance
_geom_bond_site_symmetry_2
_ccdc_geom_bond_type
In0 O1 2.294 1_544 S
In0 O2 2.326 1_554 S
In0 O6 2.266 1_545 S
In0 O7 2.326 1_545 S
In0 O8 2.266 . S
In0 O9 2.326 1_545 S
In0 O11 2.294 . S
In0 O12 2.326 1_554 S
O1 In0 2.294 1_566 S
O1 C10 1.240 1_565 S
O2 In0 2.326 1_556 S
O2 C10 1.252 . S
C3 O6 1.252 . S
C3 O7 1.260 . S
C4 O11 1.240 . S
C4 O12 1.252 1_554 S
C5 O8 1.252 . S
C5 O9 1.260 1_545 S
O6 In0 2.266 1_565 S
O6 C3 1.252 . S
O7 In0 2.326 1_565 S
O7 C3 1.260 . S
O8 In0 2.266 . S
O8 C5 1.252 . S
O9 In0 2.326 1_565 S
O9 C5 1.260 1_565 S
C10 O1 1.240 1_545 S
C10 O2 1.252 . S
O11 In0 2.294 . S
O11 C4 1.240 . S
O12 In0 2.326 1_556 S
O12 C4 1.252 1_556 S
In13 O14 2.294 . S
In13 O15 2.326 . S
In13 O19 2.266 . S
In13 O20 2.326 . S
In13 O21 2.266 . S
In13 O22 2.326 . S
In13 O24 2.294 . S
In13 O25 2.326 . S
O14 In13 2.294 . S
O14 C23 1.240 . S
O15 In13 2.326 . S
O15 C23 1.252 . S
C16 O19 1.252 . S
C16 O20 1.260 . S
C17 O24 1.240 . S
C17 O25 1.252 . S
C18 O21 1.252 . S
C18 O22 1.260 . S
O19 In13 2.266 . S
O19 C16 1.252 . S
O20 In13 2.326 . S
O20 C16 1.260 . S
O21 In13 2.266 . S
O21 C18 1.252 . S
O22 In13 2.326 . S
O22 C18 1.260 . S
C23 O14 1.240 . S
C23 O15 1.252 . S
O24 In13 2.294 . S
O24 C17 1.240 . S
O25 In13 2.326 . S
O25 C17 1.252 . S
In26 O27 2.294 . S
In26 O28 2.326 1_455 S
In26 O32 2.266 . S
In26 O33 2.326 . S
In26 O34 2.266 1_455 S
In26 O35 2.326 . S
In26 O37 2.294 1_455 S
In26 O38 2.326 1_455 S
O27 In26 2.294 . S
O27 C36 1.240 . S
O28 In26 2.326 1_655 S
O28 C36 1.252 1_655 S
C29 O32 1.252 . S
C29 O33 1.260 . S
C30 O37 1.240 . S
C30 O38 1.252 . S
C31 O34 1.252 1_455 S
C31 O35 1.260 . S
O32 In26 2.266 . S
O32 C29 1.252 . S
O33 In26 2.326 . S
O33 C29 1.260 . S
O34 In26 2.266 1_655 S
O34 C31 1.252 1_655 S
O35 In26 2.326 . S
O35 C31 1.260 . S
C36 O27 1.240 . S
C36 O28 1.252 1_455 S
O37 In26 2.294 1_655 S
O37 C30 1.240 . S
O38 In26 2.326 1_655 S
O38 C30 1.252 . S
In39 O40 2.294 1_545 S
In39 O41 2.326 1_545 S
In39 O45 2.266 1_545 S
In39 O46 2.326 . S
In39 O47 2.266 . S
In39 O48 2.326 . S
In39 O50 2.294 . S
In39 O51 2.326 1_545 S
O40 In39 2.294 1_565 S
O40 C49 1.240 . S
O41 In39 2.326 1_565 S
O41 C49 1.252 . S
C42 O45 1.252 1_545 S
C42 O46 1.260 . S
C43 O50 1.266 . S
C43 O51 1.237 1_545 S
C44 O47 1.252 . S
C44 O48 1.260 . S
O45 In39 2.266 1_565 S
O45 C42 1.252 1_565 S
O46 In39 2.326 . S
O46 C42 1.260 . S
O47 In39 2.266 . S
O47 C44 1.252 . S
O48 In39 2.326 . S
O48 C44 1.260 . S
C49 O40 1.240 . S
C49 O41 1.252 . S
O50 In39 2.294 . S
O50 C43 1.266 . S
O51 In39 2.326 1_565 S
O51 C43 1.237 1_565 S
In52 O53 2.294 . S
In52 O54 2.326 . S
In52 O58 2.266 . S
In52 O59 2.326 . S
In52 O60 2.266 . S
In52 O61 2.326 . S
In52 O63 2.294 . S
In52 O64 2.326 . S
O53 In52 2.294 . S
O53 C62 1.240 . S
O54 In52 2.326 . S
O54 C62 1.252 . S
C55 O58 1.252 . S
C55 O59 1.260 . S
C56 O63 1.240 . S
C56 O64 1.252 . S
C57 O60 1.252 . S
C57 O61 1.260 . S
O58 In52 2.266 . S
O58 C55 1.252 . S
O59 In52 2.326 . S
O59 C55 1.260 . S
O60 In52 2.266 . S
O60 C57 1.252 . S
O61 In52 2.326 . S
O61 C57 1.260 . S
C62 O53 1.240 . S
C62 O54 1.252 . S
O63 In52 2.294 . S
O63 C56 1.240 . S
O64 In52 2.326 . S
O64 C56 1.252 . S
In65 O66 2.294 . S
In65 O67 2.326 . S
In65 O71 2.266 . S
In65 O72 2.326 1_455 S
In65 O73 2.266 1_455 S
In65 O74 2.326 1_455 S
In65 O76 2.294 1_455 S
In65 O77 2.326 . S
O66 In65 2.294 . S
O66 C75 1.240 . S
O67 In65 2.326 . S
O67 C75 1.252 . S
C68 O71 1.252 . S
C68 O72 1.260 1_455 S
C69 O76 1.240 1_455 S
C69 O77 1.252 . S
C70 O73 1.252 . S
C70 O74 1.260 . S
O71 In65 2.266 . S
O71 C68 1.252 . S
O72 In65 2.326 1_655 S
O72 C68 1.260 1_655 S
O73 In65 2.266 1_655 S
O73 C70 1.252 . S
O74 In65 2.326 1_655 S
O74 C70 1.260 . S
C75 O66 1.240 . S
C75 O67 1.252 . S
O76 In65 2.294 1_655 S
O76 C69 1.240 1_655 S
O77 In65 2.326 . S
O77 C69 1.252 . S
H78 C84 0.930 . S
H79 C87 0.930 . S
H80 C88 0.930 . S
H81 C89 0.930 . S
H82 C92 0.930 . S
H83 C93 0.930 . S
C84 H78 0.930 . S
C84 C85 1.343 1_545 S
C84 C86 1.415 . S
C85 C84 1.343 1_565 S
C85 C87 1.429 . S
C86 C84 1.415 . S
C86 C91 1.425 1_545 S
C86 C93 1.409 . S
C87 H79 0.930 . S
C87 C85 1.429 . S
C87 C88 1.362 . S
C88 H80 0.930 . S
C88 C87 1.362 . S
C88 C91 1.409 . S
C89 H81 0.930 . S
C89 C90 1.370 . S
C89 C91 1.415 . S
C90 C89 1.370 . S
C90 C92 1.407 1_565 S
C91 C86 1.425 1_565 S
C91 C88 1.409 . S
C91 C89 1.415 . S
C92 H82 0.930 . S
C92 C90 1.407 1_545 S
C92 C93 1.362 . S
C93 H83 0.930 . S
C93 C86 1.409 . S
C93 C92 1.362 . S
H94 C100 0.930 . S
H95 C103 0.930 . S
H96 C104 0.930 . S
H97 C105 0.930 . S
H98 C108 0.930 . S
H99 C109 0.930 . S
C100 H94 0.930 . S
C100 C101 1.355 . S
C100 C102 1.415 . S
C101 C100 1.355 . S
C101 C103 1.419 . S
C102 C100 1.415 . S
C102 C107 1.425 . S
C102 C109 1.409 . S
C103 H95 0.930 . S
C103 C101 1.419 . S
C103 C104 1.362 . S
C104 H96 0.930 . S
C104 C103 1.362 . S
C104 C107 1.409 . S
C105 H97 0.930 . S
C105 C106 1.355 . S
C105 C107 1.415 . S
C106 C105 1.355 . S
C106 C108 1.419 . S
C107 C102 1.425 . S
C107 C104 1.409 . S
C107 C105 1.415 . S
C108 H98 0.930 . S
C108 C106 1.419 . S
C108 C109 1.362 . S
C109 H99 0.930 . S
C109 C102 1.409 . S
C109 C108 1.362 . S
H110 C116 0.930 . S
H111 C119 0.930 . S
H112 C120 0.930 . S
H113 C121 0.930 1_655 S
H114 C124 0.930 . S
H115 C125 0.930 . S
C116 H110 0.930 . S
C116 C117 1.355 . S
C116 C118 1.415 . S
C117 C116 1.355 . S
C117 C119 1.419 1_455 S
C118 C116 1.415 . S
C118 C123 1.425 . S
C118 C125 1.409 . S
C119 H111 0.930 . S
C119 C117 1.419 1_655 S
C119 C120 1.362 . S
C120 H112 0.930 . S
C120 C119 1.362 . S
C120 C123 1.409 1_655 S
C121 H113 0.930 1_455 S
C121 C122 1.355 . S
C121 C123 1.415 . S
C122 C121 1.355 . S
C122 C124 1.419 . S
C123 C118 1.425 . S
C123 C120 1.409 1_455 S
C123 C121 1.415 . S
C124 H114 0.930 . S
C124 C122 1.419 . S
C124 C125 1.362 . S
C125 H115 0.930 . S
C125 C118 1.409 . S
C125 C124 1.362 . S
H126 C132 0.930 . S
H127 C135 0.930 . S
H128 C136 0.930 . S
H129 C137 0.930 1_565 S
H130 C140 0.930 . S
H131 C141 0.930 . S
C132 H126 0.930 . S
C132 C133 1.355 . S
C132 C134 1.415 . S
C133 C132 1.355 . S
C133 C135 1.419 1_545 S
C134 C132 1.415 . S
C134 C139 1.425 . S
C134 C141 1.409 . S
C135 H127 0.930 . S
C135 C133 1.419 1_565 S
C135 C136 1.362 . S
C136 H128 0.930 . S
C136 C135 1.362 . S
C136 C139 1.409 1_565 S
C137 H129 0.930 1_545 S
C137 C138 1.355 . S
C137 C139 1.415 . S
C138 C137 1.355 . S
C138 C140 1.419 . S
C139 C134 1.425 . S
C139 C136 1.409 1_545 S
C139 C137 1.415 . S
C140 H130 0.930 . S
C140 C138 1.419 . S
C140 C141 1.362 . S
C141 H131 0.930 . S
C141 C134 1.409 . S
C141 C140 1.362 . S
H142 C148 0.930 . S
H143 C151 0.930 . S
H144 C152 0.930 . S
H145 C153 0.930 . S
H146 C156 0.930 . S
H147 C157 0.930 . S
C148 H142 0.930 . S
C148 C149 1.355 . S
C148 C150 1.415 1_554 S
C149 C148 1.355 . S
C149 C151 1.419 . S
C150 C148 1.415 1_556 S
C150 C155 1.425 . S
C150 C157 1.409 . S
C151 H143 0.930 . S
C151 C149 1.419 . S
C151 C152 1.362 . S
C152 H144 0.930 . S
C152 C151 1.362 . S
C152 C155 1.409 1_554 S
C153 H145 0.930 . S
C153 C154 1.355 . S
C153 C155 1.415 . S
C154 C153 1.355 . S
C154 C156 1.419 . S
C155 C150 1.425 . S
C155 C152 1.409 1_556 S
C155 C153 1.415 . S
C156 H146 0.930 . S
C156 C154 1.419 . S
C156 C157 1.362 . S
C157 H147 0.930 . S
C157 C150 1.409 . S
C157 C156 1.362 . S
H158 C164 0.930 . S
H159 C167 0.930 . S
H160 C168 0.930 . S
H161 C169 0.930 . S
H162 C172 0.941 . S
H163 C173 0.930 1_655 S
C164 H158 0.930 . S
C164 C165 1.355 . S
C164 C166 1.415 . S
C165 C164 1.355 . S
C165 C167 1.419 . S
C166 C164 1.415 . S
C166 C171 1.425 . S
C166 C173 1.409 . S
C167 H159 0.930 . S
C167 C165 1.419 . S
C167 C168 1.362 . S
C168 H160 0.930 . S
C168 C167 1.362 . S
C168 C171 1.409 . S
C169 H161 0.930 . S
C169 C170 1.355 . S
C169 C171 1.415 . S
C170 C169 1.355 . S
C170 C172 1.419 . S
C171 C166 1.425 . S
C171 C168 1.409 . S
C171 C169 1.415 . S
C172 H162 0.941 . S
C172 C170 1.419 . S
C172 C173 1.362 . S
C173 H163 0.930 1_455 S
C173 C166 1.409 . S
C173 C172 1.362 . S
H174 C180 0.930 . S
H175 C183 0.930 . S
H176 C184 0.930 . S
H177 C185 0.930 . S
H178 C188 0.930 . S
H179 C189 0.930 . S
C180 H174 0.930 . S
C180 C181 1.355 . S
C180 C182 1.415 . S
C181 C180 1.355 . S
C181 C183 1.419 . S
C182 C180 1.415 . S
C182 C187 1.425 . S
C182 C189 1.409 . S
C183 H175 0.930 . S
C183 C181 1.419 . S
C183 C184 1.362 . S
C184 H176 0.930 . S
C184 C183 1.362 . S
C184 C187 1.409 . S
C185 H177 0.930 . S
C185 C186 1.355 . S
C185 C187 1.415 . S
C186 C185 1.355 . S
C186 C188 1.419 . S
C187 C182 1.425 . S
C187 C184 1.409 . S
C187 C185 1.415 . S
C188 H178 0.930 . S
C188 C186 1.419 . S
C188 C189 1.362 . S
C189 H179 0.930 . S
C189 C182 1.409 . S
C189 C188 1.362 . S
H190 C196 0.930 . S
H191 C199 0.930 . S
H192 C200 0.930 . S
H193 C201 0.930 . S
H194 C204 0.930 . S
H195 C205 0.930 . S
C196 H190 0.930 . S
C196 C197 1.355 . S
C196 C198 1.415 . S
C197 C196 1.355 . S
C197 C199 1.419 . S
C198 C196 1.415 . S
C198 C203 1.425 . S
C198 C205 1.409 . S
C199 H191 0.930 . S
C199 C197 1.419 . S
C199 C200 1.362 . S
C200 H192 0.930 . S
C200 C199 1.362 . S
C200 C203 1.409 . S
C201 H193 0.930 . S
C201 C202 1.355 . S
C201 C203 1.415 . S
C202 C201 1.355 . S
C202 C204 1.419 . S
C203 C198 1.425 . S
C203 C200 1.409 . S
C203 C201 1.415 . S
C204 H194 0.930 . S
C204 C202 1.419 . S
C204 C205 1.362 . S
C205 H195 0.930 . S
C205 C198 1.409 . S
C205 C204 1.362 . S
H206 C212 0.930 . S
H207 C215 0.930 . S
H208 C216 0.930 . S
H209 C217 0.930 . S
H210 C220 0.930 . S
H211 C221 0.930 . S
C212 H206 0.930 . S
C212 C213 1.355 . S
C212 C214 1.415 . S
C213 C212 1.355 . S
C213 C215 1.419 . S
C214 C212 1.415 . S
C214 C219 1.425 . S
C214 C221 1.409 . S
C215 H207 0.930 . S
C215 C213 1.419 . S
C215 C216 1.362 . S
C216 H208 0.930 . S
C216 C215 1.362 . S
C216 C219 1.409 . S
C217 H209 0.930 . S
C217 C218 1.355 . S
C217 C219 1.415 . S
C218 C217 1.355 . S
C218 C220 1.419 . S
C219 C214 1.425 . S
C219 C216 1.409 . S
C219 C217 1.415 . S
C220 H210 0.930 . S
C220 C218 1.419 . S
C220 C221 1.362 . S
C221 H211 0.930 . S
C221 C214 1.409 . S
C221 C220 1.362 . S
H222 C228 0.930 . S
H223 C231 0.930 . S
H224 C232 0.930 . S
H225 C233 0.930 . S
H226 C236 0.930 . S
H227 C237 0.930 . S
C228 H222 0.930 . S
C228 C229 1.355 . S
C228 C230 1.415 . S
C229 C228 1.355 . S
C229 C231 1.419 . S
C230 C228 1.415 . S
C230 C235 1.425 . S
C230 C237 1.409 . S
C231 H223 0.930 . S
C231 C229 1.419 . S
C231 C232 1.362 . S
C232 H224 0.930 . S
C232 C231 1.362 . S
C232 C235 1.409 . S
C233 H225 0.930 . S
C233 C234 1.355 . S
C233 C235 1.415 . S
C234 C233 1.355 . S
C234 C236 1.419 . S
C235 C230 1.425 . S
C235 C232 1.409 . S
C235 C233 1.415 . S
C236 H226 0.930 . S
C236 C234 1.419 . S
C236 C237 1.362 . S
C237 H227 0.930 . S
C237 C230 1.409 . S
C237 C236 1.362 . S
H238 C244 0.930 . S
H239 C247 0.930 . S
H240 C248 0.930 . S
H241 C249 0.930 . S
H242 C252 0.930 . S
H243 C253 0.930 . S
C244 H238 0.930 . S
C244 C245 1.355 . S
C244 C246 1.415 . S
C245 C244 1.355 . S
C245 C247 1.419 . S
C246 C244 1.415 . S
C246 C251 1.425 . S
C246 C253 1.409 . S
C247 H239 0.930 . S
C247 C245 1.419 . S
C247 C248 1.362 . S
C248 H240 0.930 . S
C248 C247 1.362 . S
C248 C251 1.409 . S
C249 H241 0.930 . S
C249 C250 1.355 . S
C249 C251 1.415 . S
C250 C249 1.355 . S
C250 C252 1.419 . S
C251 C246 1.425 . S
C251 C248 1.409 . S
C251 C249 1.415 . S
C252 H242 0.930 . S
C252 C250 1.419 . S
C252 C253 1.362 . S
C253 H243 0.930 . S
C253 C246 1.409 . S
C253 C252 1.362 . S
H254 C260 0.930 . S
H255 C263 0.930 . S
H256 C264 0.930 . S
H257 C265 0.930 . S
H258 C268 0.930 . S
H259 C269 0.930 . S
C260 H254 0.930 . S
C260 C261 1.355 . S
C260 C262 1.415 . S
C261 C260 1.355 . S
C261 C263 1.419 . S
C262 C260 1.415 . S
C262 C267 1.425 . S
C262 C269 1.409 1_556 S
C263 H255 0.930 . S
C263 C261 1.419 . S
C263 C264 1.362 . S
C264 H256 0.930 . S
C264 C263 1.362 . S
C264 C267 1.409 . S
C265 H257 0.930 . S
C265 C266 1.355 . S
C265 C267 1.415 . S
C266 C265 1.355 . S
C266 C268 1.419 1_556 S
C267 C262 1.425 . S
C267 C264 1.409 . S
C267 C265 1.415 . S
C268 H258 0.930 . S
C268 C266 1.419 1_554 S
C268 C269 1.362 . S
C269 H259 0.930 . S
C269 C262 1.409 1_554 S
C269 C268 1.362 . S
C85 C5 1.737 1_565 S
C90 C43 1.717 1_565 S
C101 C18 1.738 . S
C106 C56 1.728 . S
C117 C69 1.729 . S
C122 C31 1.739 . S
C133 C10 1.728 . S
C138 C42 1.738 . S
C149 C23 1.739 . S
C154 C55 1.731 . S
C165 C68 1.732 1_554 S
C170 C36 1.731 . S
C181 C17 1.445 . S
C186 C3 1.456 . S
C197 C30 1.429 . S
C202 C16 1.454 . S
C213 C29 1.429 . S
C218 C49 1.437 . S
C229 C62 1.443 . S
C234 C44 1.429 . S
C245 C75 1.456 . S
C250 C57 1.442 . S
C261 C70 1.428 . S
C266 C4 1.444 1_556 S
