# Generated by pormake.
# Topology vbl, (6)-cn, num edge types: 1
# Building blocks:
#     Node 0, Type 0, BuildingBlock: IZENUY_clean_sbu_0, # of connection points: 6
#     Node 1, Type 0, BuildingBlock: IZENUY_clean_sbu_0, # of connection points: 6
#     Node 2, Type 0, BuildingBlock: IZENUY_clean_sbu_0, # of connection points: 6
#     Node 3, Type 0, BuildingBlock: IZENUY_clean_sbu_0, # of connection points: 6
#     Node 4, Type 0, BuildingBlock: IZENUY_clean_sbu_0, # of connection points: 6
#     Node 5, Type 0, BuildingBlock: IZENUY_clean_sbu_0, # of connection points: 6
#     Node 6, Type 0, BuildingBlock: IZENUY_clean_sbu_0, # of connection points: 6
#     Node 7, Type 0, BuildingBlock: IZENUY_clean_sbu_0, # of connection points: 6
#     Node 8, Type 0, BuildingBlock: IZENUY_clean_sbu_0, # of connection points: 6
#     Node 9, Type 0, BuildingBlock: IZENUY_clean_sbu_0, # of connection points: 6
#     Node 10, Type 0, BuildingBlock: IZENUY_clean_sbu_0, # of connection points: 6
#     Node 11, Type 0, BuildingBlock: IZENUY_clean_sbu_0, # of connection points: 6
#     Node 12, Type 0, BuildingBlock: IZENUY_clean_sbu_0, # of connection points: 6
#     Node 13, Type 0, BuildingBlock: IZENUY_clean_sbu_0, # of connection points: 6
#     Node 14, Type 0, BuildingBlock: IZENUY_clean_sbu_0, # of connection points: 6
#     Node 15, Type 0, BuildingBlock: IZENUY_clean_sbu_0, # of connection points: 6
#     Node 16, Type 0, BuildingBlock: IZENUY_clean_sbu_0, # of connection points: 6
#     Node 17, Type 0, BuildingBlock: IZENUY_clean_sbu_0, # of connection points: 6
#     Node 18, Type 0, BuildingBlock: IZENUY_clean_sbu_0, # of connection points: 6
#     Node 19, Type 0, BuildingBlock: IZENUY_clean_sbu_0, # of connection points: 6
#     Node 20, Type 0, BuildingBlock: IZENUY_clean_sbu_0, # of connection points: 6
#     Node 21, Type 0, BuildingBlock: IZENUY_clean_sbu_0, # of connection points: 6
#     Node 22, Type 0, BuildingBlock: IZENUY_clean_sbu_0, # of connection points: 6
#     Node 23, Type 0, BuildingBlock: IZENUY_clean_sbu_0, # of connection points: 6
#     Node 24, Type 0, BuildingBlock: IZENUY_clean_sbu_0, # of connection points: 6
#     Node 25, Type 0, BuildingBlock: IZENUY_clean_sbu_0, # of connection points: 6
#     Node 26, Type 0, BuildingBlock: IZENUY_clean_sbu_0, # of connection points: 6
#     Node 27, Type 0, BuildingBlock: IZENUY_clean_sbu_0, # of connection points: 6
#     Node 28, Type 0, BuildingBlock: IZENUY_clean_sbu_0, # of connection points: 6
#     Node 29, Type 0, BuildingBlock: IZENUY_clean_sbu_0, # of connection points: 6
#     Node 30, Type 0, BuildingBlock: IZENUY_clean_sbu_0, # of connection points: 6
#     Node 31, Type 0, BuildingBlock: IZENUY_clean_sbu_0, # of connection points: 6
#     Edge 32, Type (0, 0), None
#     Edge 33, Type (0, 0), None
#     Edge 34, Type (0, 0), None
#     Edge 35, Type (0, 0), None
#     Edge 36, Type (0, 0), None
#     Edge 37, Type (0, 0), None
#     Edge 38, Type (0, 0), None
#     Edge 39, Type (0, 0), None
#     Edge 40, Type (0, 0), None
#     Edge 41, Type (0, 0), None
#     Edge 42, Type (0, 0), None
#     Edge 43, Type (0, 0), None
#     Edge 44, Type (0, 0), None
#     Edge 45, Type (0, 0), None
#     Edge 46, Type (0, 0), None
#     Edge 47, Type (0, 0), None
#     Edge 48, Type (0, 0), None
#     Edge 49, Type (0, 0), None
#     Edge 50, Type (0, 0), None
#     Edge 51, Type (0, 0), None
#     Edge 52, Type (0, 0), None
#     Edge 53, Type (0, 0), None
#     Edge 54, Type (0, 0), None
#     Edge 55, Type (0, 0), None
#     Edge 56, Type (0, 0), None
#     Edge 57, Type (0, 0), None
#     Edge 58, Type (0, 0), None
#     Edge 59, Type (0, 0), None
#     Edge 60, Type (0, 0), None
#     Edge 61, Type (0, 0), None
#     Edge 62, Type (0, 0), None
#     Edge 63, Type (0, 0), None
#     Edge 64, Type (0, 0), None
#     Edge 65, Type (0, 0), None
#     Edge 66, Type (0, 0), None
#     Edge 67, Type (0, 0), None
#     Edge 68, Type (0, 0), None
#     Edge 69, Type (0, 0), None
#     Edge 70, Type (0, 0), None
#     Edge 71, Type (0, 0), None
#     Edge 72, Type (0, 0), None
#     Edge 73, Type (0, 0), None
#     Edge 74, Type (0, 0), None
#     Edge 75, Type (0, 0), None
#     Edge 76, Type (0, 0), None
#     Edge 77, Type (0, 0), None
#     Edge 78, Type (0, 0), None
#     Edge 79, Type (0, 0), None
#     Edge 80, Type (0, 0), None
#     Edge 81, Type (0, 0), None
#     Edge 82, Type (0, 0), None
#     Edge 83, Type (0, 0), None
#     Edge 84, Type (0, 0), None
#     Edge 85, Type (0, 0), None
#     Edge 86, Type (0, 0), None
#     Edge 87, Type (0, 0), None
#     Edge 88, Type (0, 0), None
#     Edge 89, Type (0, 0), None
#     Edge 90, Type (0, 0), None
#     Edge 91, Type (0, 0), None
#     Edge 92, Type (0, 0), None
#     Edge 93, Type (0, 0), None
#     Edge 94, Type (0, 0), None
#     Edge 95, Type (0, 0), None
#     Edge 96, Type (0, 0), None
#     Edge 97, Type (0, 0), None
#     Edge 98, Type (0, 0), None
#     Edge 99, Type (0, 0), None
#     Edge 100, Type (0, 0), None
#     Edge 101, Type (0, 0), None
#     Edge 102, Type (0, 0), None
#     Edge 103, Type (0, 0), None
#     Edge 104, Type (0, 0), None
#     Edge 105, Type (0, 0), None
#     Edge 106, Type (0, 0), None
#     Edge 107, Type (0, 0), None
#     Edge 108, Type (0, 0), None
#     Edge 109, Type (0, 0), None
#     Edge 110, Type (0, 0), None
#     Edge 111, Type (0, 0), None
#     Edge 112, Type (0, 0), None
#     Edge 113, Type (0, 0), None
#     Edge 114, Type (0, 0), None
#     Edge 115, Type (0, 0), None
#     Edge 116, Type (0, 0), None
#     Edge 117, Type (0, 0), None
#     Edge 118, Type (0, 0), None
#     Edge 119, Type (0, 0), None
#     Edge 120, Type (0, 0), None
#     Edge 121, Type (0, 0), None
#     Edge 122, Type (0, 0), None
#     Edge 123, Type (0, 0), None
#     Edge 124, Type (0, 0), None
#     Edge 125, Type (0, 0), None
#     Edge 126, Type (0, 0), None
#     Edge 127, Type (0, 0), None
# Relax obj value: 0.230
# Max RMSD: 0.228
# Mean RMSD: 0.227
data_MOF--net-vbl--node1-IZENUY_clean_sbu_0--edge1-none
_symmetry_space_group_name_H-M    P1
_symmetry_Int_Tables_number       1
_symmetry_cell_setting            triclinic
loop_
_symmetry_equiv_pos_as_xyz
'x, y, z'
_cell_length_a     42.458424
_cell_length_b     16.314467
_cell_length_c     20.087253
_cell_angle_alpha  89.99982
_cell_angle_beta   89.999994
_cell_angle_gamma 89.998929
loop_
_atom_site_label
_atom_site_type_symbol
_atom_site_fract_x
_atom_site_fract_y
_atom_site_fract_z
_atom_type_partial_charge
Fe0 Fe 0.10613 0.18503 0.33705 0.0
Fe1 Fe 0.11587 1.0053 0.30796 0.0
O2 O 0.09199 0.08414 0.33785 0.0
Fe3 Fe 0.05205 0.06525 0.35999 0.0
O4 O 1.03797 0.16896 0.33508 0.0
O5 O 0.07753 0.20444 0.27612 0.0
O6 O 0.13217 0.17405 0.26322 0.0
C7 C 0.12922 0.1239 0.21525 0.0
C8 C 0.06439 0.17409 0.45357 0.0
O9 O 0.11952 0.05233 0.22634 0.0
C10 C 0.08638 0.92612 0.40903 0.0
O11 O 0.13688 0.16562 0.39477 0.0
O12 O 0.15322 0.05777 0.33866 0.0
O13 O 0.05817 0.09997 0.44353 0.0
O14 O 0.08138 0.21444 0.4119 0.0
C15 C 0.0544 0.9691 0.25289 0.0
O16 O 0.11253 0.95214 0.38698 0.0
O17 O 0.06043 0.95908 0.39069 0.0
C18 C 0.15888 0.12018 0.37664 0.0
O19 O 0.08195 0.9449 0.27111 0.0
O20 O 1.04251 0.03187 0.27774 0.0
C21 C 0.05167 0.22122 0.29822 0.0
Fe22 Fe 0.24342 0.09314 0.33705 0.0
Fe23 Fe 0.23368 0.27287 0.30796 0.0
O24 O 0.25756 0.19403 0.33786 0.0
Fe25 Fe 0.2975 0.21291 0.35999 0.0
O26 O 0.31158 0.1092 0.33508 0.0
O27 O 0.27202 0.07374 0.27611 0.0
O28 O 0.21738 0.10412 0.26322 0.0
C29 C 0.22032 0.15427 0.21526 0.0
C30 C 0.28515 0.10407 0.45357 0.0
O31 O 0.23003 0.22584 0.22634 0.0
C32 C 0.26317 0.35205 0.40903 0.0
O33 O 0.21267 0.11252 0.39477 0.0
O34 O 0.19633 0.22042 0.33867 0.0
O35 O 0.29138 0.17819 0.44353 0.0
O36 O 0.26817 0.06372 0.4119 0.0
C37 C 0.29515 0.30906 0.25289 0.0
O38 O 0.23702 0.32603 0.38698 0.0
O39 O 0.28912 0.31908 0.39069 0.0
C40 C 0.19068 0.15802 0.37667 0.0
O41 O 0.26761 0.33327 0.27111 0.0
O42 O 0.30704 0.24629 0.27774 0.0
C43 C 0.29787 0.05694 0.29822 0.0
Fe44 Fe 0.05205 0.21292 1.00106 0.0
Fe45 Fe 0.10613 0.09314 1.024 0.0
O46 O 0.09199 0.19403 1.0232 0.0
Fe47 Fe 0.11587 0.27287 1.05309 0.0
O48 O 0.08195 0.33328 0.08993 0.0
O49 O 1.04251 0.2463 0.08331 0.0
O50 O 1.03797 0.10922 1.02598 0.0
C51 C 0.05167 0.05695 0.06284 0.0
C52 C 0.08638 0.35205 0.95202 0.0
O53 O 0.07753 0.07374 0.08494 0.0
C54 C 0.15888 0.15799 0.9844 0.0
O55 O 0.05817 0.1782 0.91753 0.0
O56 O 0.08138 0.06373 0.94915 0.0
O57 O 0.11253 0.32603 0.97407 0.0
O58 O 0.06043 0.31909 0.97036 0.0
C59 C 0.12923 0.15428 0.14579 0.0
O60 O 0.13688 0.11255 0.96628 0.0
O61 O 0.15322 0.22041 1.02238 0.0
C62 C 0.06439 0.10408 0.90749 0.0
O63 O 0.13217 0.10411 0.09783 0.0
O64 O 0.11952 0.22585 0.13471 0.0
C65 C 0.0544 0.30907 0.10816 0.0
Fe66 Fe 0.2975 0.06525 1.00105 0.0
Fe67 Fe 0.24342 0.18503 1.024 0.0
O68 O 0.25756 0.08414 1.02319 0.0
Fe69 Fe 0.23368 1.00529 1.05309 0.0
O70 O 0.2676 0.94489 0.08993 0.0
O71 O 0.30704 0.03187 0.08331 0.0
O72 O 0.31158 0.16895 1.02597 0.0
C73 C 0.29787 0.22122 0.06283 0.0
C74 C 0.26317 0.92612 0.95201 0.0
O75 O 0.27202 0.20443 0.08493 0.0
C76 C 0.19068 0.12015 0.98438 0.0
O77 O 0.29138 0.09997 0.91752 0.0
O78 O 0.26816 0.21444 0.94915 0.0
O79 O 0.23702 0.95213 0.97407 0.0
O80 O 0.28912 0.95908 0.97036 0.0
C81 C 0.22032 0.12389 0.14579 0.0
O82 O 0.21266 0.16565 0.96628 0.0
O83 O 0.19633 0.05775 1.02238 0.0
C84 C 0.28515 0.17409 0.90748 0.0
O85 O 0.21738 0.17406 0.09783 0.0
O86 O 0.23003 0.05233 0.13471 0.0
C87 C 0.29515 0.9691 0.10816 0.0
Fe88 Fe 0.99342 0.84313 0.77399 0.0
Fe89 Fe 1.04749 0.96293 0.75106 0.0
O90 O 1.00756 0.94403 0.7732 0.0
Fe91 Fe 0.98367 0.02286 0.80309 0.0
O92 O 0.98003 0.97583 0.88471 0.0
O93 O 0.96739 0.8541 0.84783 0.0
O94 O 1.02202 0.8237 0.83492 0.0
C95 C 1.04789 0.80696 0.81284 0.0
C96 C 0.94067 0.90796 0.73441 0.0
O97 O 0.06158 0.85924 0.77598 0.0
C98 C 1.01316 0.10205 0.70202 0.0
O99 O 1.01817 0.81373 0.69915 0.0
O100 O 1.04138 0.92821 0.66752 0.0
O101 O 0.94632 0.97039 0.77238 0.0
O102 O 0.96267 0.86254 0.71627 0.0
C103 C 1.04514 0.05909 0.85815 0.0
O104 O 1.03911 0.0691 0.72036 0.0
O105 O 0.98701 0.07603 0.72407 0.0
C106 C 1.03516 0.85408 0.65748 0.0
O107 O 0.05703 0.99632 0.8333 0.0
O108 O 1.01759 0.08328 0.83993 0.0
C109 C 0.97032 0.90426 0.89579 0.0
Fe110 Fe 0.80205 0.81524 0.75106 0.0
Fe111 Fe 0.86587 0.7553 0.80309 0.0
O112 O 0.84198 0.83414 0.7732 0.0
Fe113 Fe 0.85612 0.93504 0.77399 0.0
O114 O 0.82752 0.95447 0.83492 0.0
O115 O 0.78796 0.91893 0.77597 0.0
O116 O 0.79251 0.78186 0.83331 0.0
C117 C 0.8044 0.7191 0.85816 0.0
C118 C 0.81439 0.92409 0.65748 0.0
O119 O 0.83194 0.6949 0.83994 0.0
C120 C 0.90887 0.87016 0.73439 0.0
O121 O 0.81043 0.70907 0.72036 0.0
O122 O 0.86253 0.70213 0.72407 0.0
O123 O 0.83138 0.96444 0.69914 0.0
O124 O 0.80817 0.84996 0.66752 0.0
C125 C 0.87922 0.8739 0.89579 0.0
O126 O 0.90321 0.80776 0.77239 0.0
O127 O 0.88688 0.91563 0.71627 0.0
C128 C 0.83638 0.67611 0.70202 0.0
O129 O 0.86951 0.80233 0.88471 0.0
O130 O 0.88216 0.92406 0.84783 0.0
C131 C 0.80166 0.97122 0.81284 0.0
Fe132 Fe 1.0475 0.81524 0.11 0.0
Fe133 Fe 0.98368 0.75531 0.05796 0.0
O134 O 1.00756 0.83415 0.08784 0.0
Fe135 Fe 0.99342 0.93505 0.08705 0.0
O136 O 1.02201 0.95451 1.0261 0.0
O137 O 0.06158 0.91893 0.08508 0.0
O138 O 0.05704 0.78185 1.02776 0.0
C139 C 1.04515 0.7191 1.0029 0.0
C140 C 1.03515 0.9241 0.20356 0.0
O141 O 1.0176 0.6949 1.02111 0.0
C142 C 0.94067 0.87019 0.12664 0.0
O143 O 1.03911 0.70908 0.1407 0.0
O144 O 0.98702 0.70215 0.13698 0.0
O145 O 1.01817 0.96447 0.16188 0.0
O146 O 1.04137 0.84997 0.19353 0.0
C147 C 0.97032 0.8739 0.96526 0.0
O148 O 0.94633 0.80778 0.08866 0.0
O149 O 0.96267 0.91561 0.14478 0.0
C150 C 1.01316 0.67612 0.15903 0.0
O151 O 0.98003 0.80234 0.97634 0.0
O152 O 0.96738 0.92406 1.01322 0.0
C153 C 1.04789 0.97115 1.04815 0.0
Fe154 Fe 0.85613 0.84312 0.08706 0.0
Fe155 Fe 0.80205 0.96292 0.11 0.0
O156 O 0.84199 0.94402 0.08785 0.0
Fe157 Fe 0.86587 0.02286 0.05796 0.0
O158 O 0.86952 0.97583 0.97634 0.0
O159 O 0.88216 0.85409 1.01322 0.0
O160 O 0.82752 0.82368 1.02613 0.0
C161 C 0.80166 0.80695 1.04822 0.0
C162 C 0.90887 0.908 0.12666 0.0
O163 O 0.78797 0.85923 0.08508 0.0
C164 C 0.83638 0.10205 0.15903 0.0
O165 O 0.83138 0.81372 0.16191 0.0
O166 O 0.80817 0.9282 0.19353 0.0
O167 O 0.90322 0.9704 0.08866 0.0
O168 O 0.88688 0.86252 0.14478 0.0
C169 C 0.8044 0.05906 1.00289 0.0
O170 O 0.81043 0.06909 0.14069 0.0
O171 O 0.86253 0.07603 0.13698 0.0
C172 C 0.81439 0.85407 0.20357 0.0
O173 O 0.79251 0.9963 1.02775 0.0
O174 O 0.83194 0.08327 1.02111 0.0
C175 C 0.87922 0.90426 0.96527 0.0
Fe176 Fe 0.10613 0.68503 0.83705 0.0
Fe177 Fe 0.11587 0.5053 0.80796 0.0
O178 O 0.09199 0.58415 0.83785 0.0
Fe179 Fe 0.05205 0.56526 0.86 0.0
O180 O 1.03797 0.66896 0.83508 0.0
O181 O 0.07754 0.70447 0.77609 0.0
O182 O 0.13217 0.67404 0.76322 0.0
C183 C 0.12923 0.62389 0.71525 0.0
C184 C 0.0644 0.6741 0.95356 0.0
O185 O 0.11952 0.55233 0.72634 0.0
C186 C 0.08638 0.42613 0.90904 0.0
O187 O 0.13688 0.66561 0.89478 0.0
O188 O 0.15322 0.55776 0.83867 0.0
O189 O 0.05817 0.59998 0.94353 0.0
O190 O 0.08138 0.71446 0.91188 0.0
C191 C 0.0544 0.4691 0.7529 0.0
O192 O 0.11253 0.45214 0.88698 0.0
O193 O 0.06043 0.45909 0.8907 0.0
C194 C 0.15888 0.62017 0.87665 0.0
O195 O 0.08194 0.4449 0.77112 0.0
O196 O 1.0425 0.53187 0.77775 0.0
C197 C 0.05167 0.72116 0.79816 0.0
Fe198 Fe 0.24342 0.59314 0.83706 0.0
Fe199 Fe 0.23368 0.77287 0.80796 0.0
O200 O 0.25756 0.69402 0.83786 0.0
Fe201 Fe 0.2975 0.71291 0.85999 0.0
O202 O 0.31158 0.60921 0.83508 0.0
O203 O 0.27202 0.57373 0.77612 0.0
O204 O 0.21738 0.60412 0.76322 0.0
C205 C 0.22032 0.65426 0.71526 0.0
C206 C 0.28515 0.60407 0.95357 0.0
O207 O 0.23003 0.72583 0.72634 0.0
C208 C 0.26317 0.85204 0.90904 0.0
O209 O 0.21266 0.61252 0.89477 0.0
O210 O 0.19633 0.72041 0.83867 0.0
O211 O 0.29138 0.67819 0.94353 0.0
O212 O 0.26816 0.56372 0.9119 0.0
C213 C 0.29515 0.80906 0.75289 0.0
O214 O 0.23702 0.82604 0.88698 0.0
O215 O 0.28912 0.81908 0.89069 0.0
C216 C 0.19067 0.65802 0.87667 0.0
O217 O 0.2676 0.83327 0.77111 0.0
O218 O 0.30704 0.74629 0.77774 0.0
C219 C 0.29787 0.55694 0.79822 0.0
Fe220 Fe 0.11587 0.77287 0.55308 0.0
Fe221 Fe 0.05205 0.71292 0.50106 0.0
O222 O 0.09199 0.69403 0.52319 0.0
Fe223 Fe 0.10613 0.59314 0.52399 0.0
O224 O 0.13217 0.60411 0.59783 0.0
O225 O 0.11952 0.72584 0.63471 0.0
O226 O 0.08195 0.83328 0.58992 0.0
C227 C 0.05441 0.80908 0.60814 0.0
C228 C 0.15888 0.65798 0.4844 0.0
O229 O 1.04252 0.74631 0.58331 0.0
C230 C 0.06439 0.60408 0.40748 0.0
O231 O 0.11253 0.82603 0.47406 0.0
O232 O 0.06043 0.81909 0.47035 0.0
O233 O 0.13688 0.61254 0.46628 0.0
O234 O 0.15322 0.7204 0.52238 0.0
C235 C 0.05168 0.55695 0.56284 0.0
O236 O 0.05817 0.6782 0.41752 0.0
O237 O 0.08138 0.56373 0.44915 0.0
C238 C 0.08638 0.85204 0.45201 0.0
O239 O 1.03797 0.60922 0.52597 0.0
O240 O 0.07753 0.57373 0.58493 0.0
C241 C 0.12923 0.65427 0.64579 0.0
Fe242 Fe 0.2975 0.56525 0.50106 0.0
Fe243 Fe 0.24342 0.68503 0.524 0.0
O244 O 0.25756 0.58414 0.5232 0.0
Fe245 Fe 0.23368 0.50529 0.55309 0.0
O246 O 0.26761 0.44489 0.58994 0.0
O247 O 0.30704 0.53187 0.58331 0.0
O248 O 0.31158 0.66896 0.52597 0.0
C249 C 0.29787 0.72122 0.56284 0.0
C250 C 0.26317 0.42612 0.45201 0.0
O251 O 0.27202 0.70443 0.58494 0.0
C252 C 0.19068 0.62014 0.48438 0.0
O253 O 0.29138 0.59997 0.41752 0.0
O254 O 0.26816 0.71444 0.44915 0.0
O255 O 0.23702 0.45213 0.47407 0.0
O256 O 0.28912 0.45908 0.47036 0.0
C257 C 0.22032 0.62389 0.64579 0.0
O258 O 0.21267 0.66564 0.46628 0.0
O259 O 0.19633 0.55775 0.52238 0.0
C260 C 0.28515 0.67409 0.40748 0.0
O261 O 0.21738 0.67405 0.59783 0.0
O262 O 0.23003 0.55232 0.63471 0.0
C263 C 0.29515 0.4691 0.60816 0.0
Fe264 Fe 0.98367 0.52286 0.30309 0.0
Fe265 Fe 0.99342 0.34313 0.274 0.0
O266 O 1.00756 0.44402 0.2732 0.0
Fe267 Fe 1.0475 0.46293 0.25105 0.0
O268 O 0.05704 0.49633 0.33329 0.0
O269 O 1.0176 0.58328 0.33993 0.0
O270 O 0.98003 0.47583 0.38471 0.0
C271 C 0.97032 0.40426 0.39579 0.0
C272 C 1.01316 0.60204 0.20201 0.0
O273 O 0.96738 0.35411 0.34783 0.0
C274 C 1.03515 0.35407 0.15749 0.0
O275 O 0.94633 0.47039 0.27238 0.0
O276 O 0.96268 0.36255 0.21627 0.0
O277 O 1.03911 0.56909 0.22035 0.0
O278 O 0.98701 0.57602 0.22406 0.0
C279 C 1.04789 0.30703 0.3129 0.0
O280 O 1.01817 0.3137 0.19917 0.0
O281 O 1.04137 0.42819 0.16752 0.0
C282 C 0.94067 0.40797 0.23441 0.0
O283 O 1.02201 0.32367 0.33495 0.0
O284 O 0.06158 0.35924 0.27598 0.0
C285 C 1.04514 0.55908 0.35814 0.0
Fe286 Fe 0.86587 0.2553 0.30309 0.0
Fe287 Fe 0.85613 0.43504 0.27399 0.0
O288 O 0.84199 0.33414 0.2732 0.0
Fe289 Fe 0.80205 0.31524 0.25105 0.0
O290 O 0.79251 0.28186 0.3333 0.0
O291 O 0.83194 0.1949 0.33994 0.0
O292 O 0.86952 0.30234 0.38471 0.0
C293 C 0.87922 0.37391 0.39579 0.0
C294 C 0.83638 0.17612 0.20202 0.0
O295 O 0.88216 0.42406 0.34783 0.0
C296 C 0.81439 0.42409 0.15748 0.0
O297 O 0.90322 0.30776 0.27239 0.0
O298 O 0.88688 0.41563 0.21627 0.0
O299 O 0.81043 0.20907 0.22036 0.0
O300 O 0.86253 0.20213 0.22407 0.0
C301 C 0.80166 0.47122 0.31284 0.0
O302 O 0.83138 0.46444 0.19914 0.0
O303 O 0.80817 0.34996 0.16752 0.0
C304 C 0.90887 0.37016 0.23439 0.0
O305 O 0.82752 0.45448 0.33492 0.0
O306 O 0.78797 0.41893 0.27597 0.0
C307 C 0.8044 0.2191 0.35816 0.0
Fe308 Fe 1.04749 0.31524 0.61001 0.0
Fe309 Fe 0.98367 0.25531 0.55796 0.0
O310 O 1.00756 0.33415 0.58785 0.0
Fe311 Fe 0.99342 0.43505 0.58705 0.0
O312 O 1.02201 0.45451 0.5261 0.0
O313 O 0.06158 0.41893 0.58508 0.0
O314 O 0.05704 0.28184 0.52777 0.0
C315 C 1.04515 0.21908 0.50291 0.0
C316 C 1.03515 0.42411 0.70356 0.0
O317 O 1.0176 0.19489 0.52112 0.0
C318 C 0.94067 0.3702 0.62664 0.0
O319 O 1.03911 0.20908 0.64071 0.0
O320 O 0.98701 0.20215 0.63699 0.0
O321 O 1.01817 0.46447 0.66188 0.0
O322 O 1.04137 0.34998 0.69353 0.0
C323 C 0.97032 0.37391 0.46526 0.0
O324 O 0.94633 0.30779 0.58866 0.0
O325 O 0.96267 0.41562 0.64478 0.0
C326 C 1.01316 0.17613 0.65904 0.0
O327 O 0.98003 0.30234 0.47634 0.0
O328 O 0.96738 0.42407 0.51322 0.0
C329 C 1.04789 0.47115 0.54815 0.0
Fe330 Fe 0.86587 0.52287 0.55796 0.0
Fe331 Fe 0.85613 0.34312 0.58706 0.0
O332 O 0.84199 0.44402 0.58785 0.0
Fe333 Fe 0.80205 0.46292 0.60999 0.0
O334 O 0.79251 0.4963 0.52775 0.0
O335 O 0.83194 0.58327 0.52111 0.0
O336 O 0.86952 0.47583 0.47634 0.0
C337 C 0.87922 0.40426 0.46526 0.0
C338 C 0.83638 0.60204 0.65903 0.0
O339 O 0.88216 0.3541 0.51322 0.0
C340 C 0.81439 0.35407 0.70357 0.0
O341 O 0.90322 0.47041 0.58866 0.0
O342 O 0.88688 0.36253 0.64478 0.0
O343 O 0.81043 0.56909 0.64069 0.0
O344 O 0.86253 0.57603 0.63698 0.0
C345 C 0.80166 0.30694 0.54821 0.0
O346 O 0.83138 0.31372 0.66191 0.0
O347 O 0.80817 0.4282 0.69353 0.0
C348 C 0.90887 0.40801 0.62666 0.0
O349 O 0.82753 0.32368 0.52613 0.0
O350 O 0.78797 0.35923 0.58508 0.0
C351 C 0.8044 0.55906 0.50289 0.0
Fe352 Fe 0.60613 0.18502 0.83706 0.0
Fe353 Fe 0.61587 1.0053 0.80796 0.0
O354 O 0.59199 0.08414 0.83785 0.0
Fe355 Fe 0.55205 0.06525 0.85999 0.0
O356 O 0.53797 0.16896 0.83508 0.0
O357 O 0.57753 0.20444 0.77612 0.0
O358 O 0.63217 0.17405 0.76322 0.0
C359 C 0.62923 0.1239 0.71525 0.0
C360 C 0.56439 0.17409 0.95357 0.0
O361 O 0.61952 0.05233 0.72634 0.0
C362 C 0.58638 0.92612 0.90903 0.0
O363 O 0.63688 0.16561 0.89478 0.0
O364 O 0.65322 0.05776 0.83866 0.0
O365 O 0.55817 0.09997 0.94352 0.0
O366 O 0.58138 0.21443 0.9119 0.0
C367 C 0.5544 0.9691 0.75289 0.0
O368 O 0.61253 0.95213 0.88698 0.0
O369 O 0.56043 0.95908 0.89069 0.0
C370 C 0.65888 0.12017 0.87665 0.0
O371 O 0.58195 0.94489 0.77111 0.0
O372 O 0.54251 0.03187 0.77774 0.0
C373 C 0.55168 0.22122 0.79822 0.0
Fe374 Fe 0.7975 0.21291 0.86001 0.0
Fe375 Fe 0.74341 0.09313 0.83704 0.0
O376 O 0.75756 0.19402 0.83785 0.0
Fe377 Fe 0.73367 0.27287 0.80796 0.0
O378 O 0.7676 0.33327 0.77112 0.0
O379 O 0.80704 0.24631 0.77776 0.0
O380 O 0.81158 0.10922 0.83508 0.0
C381 C 0.79788 0.05702 0.79815 0.0
C382 C 0.76316 0.35204 0.90904 0.0
O383 O 0.77201 0.07371 0.77608 0.0
C384 C 0.69068 0.15801 0.87668 0.0
O385 O 0.79137 0.17818 0.94353 0.0
O386 O 0.76817 0.0637 0.91187 0.0
O387 O 0.73702 0.32603 0.88699 0.0
O388 O 0.78911 0.31907 0.89071 0.0
C389 C 0.72032 0.15427 0.71526 0.0
O390 O 0.71267 0.11252 0.89478 0.0
O391 O 0.69633 0.22041 0.83867 0.0
C392 C 0.78514 0.10406 0.95356 0.0
O393 O 0.71737 0.10413 0.76322 0.0
O394 O 0.73003 0.22584 0.72634 0.0
C395 C 0.79515 0.30908 0.75291 0.0
Fe396 Fe 0.55205 0.21292 0.50106 0.0
Fe397 Fe 0.60613 0.09315 0.52399 0.0
O398 O 0.59199 0.19403 0.5232 0.0
Fe399 Fe 0.61587 0.27288 0.55309 0.0
O400 O 0.58195 0.33328 0.58994 0.0
O401 O 0.54251 0.2463 0.58332 0.0
O402 O 0.53797 0.10922 0.52598 0.0
C403 C 0.55168 0.05695 0.56284 0.0
C404 C 0.58638 0.35205 0.45202 0.0
O405 O 0.57753 0.07373 0.58493 0.0
C406 C 0.65888 0.158 0.4844 0.0
O407 O 0.55817 0.17821 0.41753 0.0
O408 O 0.58138 0.06374 0.44915 0.0
O409 O 0.61253 0.32603 0.47407 0.0
O410 O 0.56043 0.31909 0.47037 0.0
C411 C 0.62923 0.15428 0.64579 0.0
O412 O 0.63688 0.11256 0.46627 0.0
O413 O 0.65322 0.22041 0.52238 0.0
C414 C 0.56439 0.10408 0.40749 0.0
O415 O 0.63217 0.10412 0.59783 0.0
O416 O 0.61952 0.22585 0.63471 0.0
C417 C 0.5544 0.30907 0.60816 0.0
Fe418 Fe 0.79749 0.06525 0.50104 0.0
Fe419 Fe 0.74341 0.18504 0.52401 0.0
O420 O 0.75756 0.08415 0.5232 0.0
Fe421 Fe 0.73367 1.0053 0.55308 0.0
O422 O 0.7676 0.94489 0.58993 0.0
O423 O 0.80704 0.03184 0.58329 0.0
O424 O 0.81158 0.16894 0.52597 0.0
C425 C 0.79788 0.22114 0.5629 0.0
C426 C 0.76316 0.92612 0.45201 0.0
O427 O 0.77201 0.20445 0.58497 0.0
C428 C 0.69068 0.12016 0.48438 0.0
O429 O 0.79137 0.09998 0.41752 0.0
O430 O 0.76817 0.21447 0.44918 0.0
O431 O 0.73701 0.95214 0.47406 0.0
O432 O 0.78911 0.95909 0.47034 0.0
C433 C 0.72031 0.12389 0.64579 0.0
O434 O 0.71267 0.16565 0.46627 0.0
O435 O 0.69633 0.05776 0.52238 0.0
C436 C 0.78514 0.17411 0.40749 0.0
O437 O 0.71737 0.17405 0.59783 0.0
O438 O 0.73002 0.05233 0.63471 0.0
C439 C 0.79514 0.96908 0.60814 0.0
Fe440 Fe 0.49342 0.84314 0.27399 0.0
Fe441 Fe 0.54749 0.96294 0.25106 0.0
O442 O 0.50756 0.94403 0.2732 0.0
Fe443 Fe 0.48367 0.02287 0.30309 0.0
O444 O 0.48003 0.97583 0.38471 0.0
O445 O 0.46738 0.85411 0.34783 0.0
O446 O 0.52202 0.82369 0.33492 0.0
C447 C 0.54788 0.80696 0.31284 0.0
C448 C 0.44067 0.90797 0.23441 0.0
O449 O 0.56158 0.85925 0.27598 0.0
C450 C 0.51316 0.10205 0.20202 0.0
O451 O 0.51817 0.81373 0.19915 0.0
O452 O 0.54138 0.92821 0.16753 0.0
O453 O 0.44632 0.97039 0.27238 0.0
O454 O 0.46267 0.86255 0.21627 0.0
C455 C 0.54514 0.05909 0.35815 0.0
O456 O 0.53911 0.0691 0.22036 0.0
O457 O 0.48701 0.07603 0.22407 0.0
C458 C 0.53516 0.85408 0.15748 0.0
O459 O 0.55703 0.99632 0.33331 0.0
O460 O 0.51759 0.08328 0.33994 0.0
C461 C 0.47032 0.90426 0.39579 0.0
Fe462 Fe 0.36587 0.7553 0.30309 0.0
Fe463 Fe 0.35613 0.93504 0.274 0.0
O464 O 0.34199 0.83415 0.2732 0.0
Fe465 Fe 0.30205 0.81524 0.25104 0.0
O466 O 0.29251 0.78184 0.33328 0.0
O467 O 0.33195 0.69489 0.33993 0.0
O468 O 0.36952 0.80234 0.38471 0.0
C469 C 0.37923 0.8739 0.39579 0.0
C470 C 0.33639 0.67612 0.20201 0.0
O471 O 0.38217 0.92405 0.34783 0.0
C472 C 0.3144 0.9241 0.15749 0.0
O473 O 0.40322 0.80776 0.27238 0.0
O474 O 0.38687 0.91563 0.21626 0.0
O475 O 0.31044 0.70908 0.22034 0.0
O476 O 0.36253 0.70214 0.22407 0.0
C477 C 0.30166 0.97114 0.3129 0.0
O478 O 0.33137 0.96447 0.19917 0.0
O479 O 0.30818 0.84998 0.16752 0.0
C480 C 0.40887 0.87016 0.23438 0.0
O481 O 0.32754 0.95449 0.33495 0.0
O482 O 0.28797 0.91892 0.27597 0.0
C483 C 0.3044 0.71908 0.35814 0.0
Fe484 Fe 0.48368 0.7553 0.55796 0.0
Fe485 Fe 0.49342 0.93504 0.58705 0.0
O486 O 0.50756 0.83415 0.58784 0.0
Fe487 Fe 0.5475 0.81524 0.61 0.0
O488 O 0.55704 0.78185 0.52776 0.0
O489 O 0.5176 0.6949 0.52111 0.0
O490 O 0.48003 0.80234 0.47634 0.0
C491 C 0.47032 0.8739 0.46526 0.0
C492 C 0.51316 0.67612 0.65903 0.0
O493 O 0.46738 0.92406 0.51322 0.0
C494 C 0.53515 0.9241 0.70356 0.0
O495 O 0.44633 0.80777 0.58866 0.0
O496 O 0.46267 0.9156 0.64479 0.0
O497 O 0.53911 0.70908 0.6407 0.0
O498 O 0.48702 0.70214 0.63698 0.0
C499 C 0.54789 0.97115 0.54815 0.0
O500 O 0.51817 0.96447 0.66188 0.0
O501 O 0.54137 0.84997 0.69353 0.0
C502 C 0.44067 0.87018 0.62664 0.0
O503 O 0.52201 0.95451 0.5261 0.0
O504 O 0.56158 0.91893 0.58508 0.0
C505 C 0.54515 0.7191 0.5029 0.0
Fe506 Fe 0.35613 0.84311 0.58705 0.0
Fe507 Fe 0.30205 0.96292 0.61001 0.0
O508 O 0.34199 0.94401 0.58785 0.0
Fe509 Fe 0.36587 0.02286 0.55796 0.0
O510 O 0.36952 0.97583 0.47634 0.0
O511 O 0.38217 0.8541 0.51322 0.0
O512 O 0.32754 0.82366 0.5261 0.0
C513 C 0.30166 0.80702 0.54815 0.0
C514 C 0.40887 0.90799 0.62666 0.0
O515 O 0.28797 0.85924 0.58508 0.0
C516 C 0.33639 0.10204 0.65904 0.0
O517 O 0.33138 0.81369 0.66188 0.0
O518 O 0.30818 0.92818 0.69354 0.0
O519 O 0.40322 0.97039 0.58867 0.0
O520 O 0.38688 0.86252 0.64478 0.0
C521 C 0.3044 0.05908 0.50291 0.0
O522 O 0.31044 0.06908 0.64071 0.0
O523 O 0.36254 0.07602 0.63698 0.0
C524 C 0.3144 0.85406 0.70356 0.0
O525 O 0.29251 0.99632 0.52777 0.0
O526 O 0.33195 0.08327 0.52112 0.0
C527 C 0.37923 0.90426 0.46527 0.0
Fe528 Fe 0.60613 0.68503 0.33705 0.0
Fe529 Fe 0.61587 0.5053 0.30796 0.0
O530 O 0.59199 0.58414 0.33785 0.0
Fe531 Fe 0.55205 0.56526 0.36 0.0
O532 O 0.53797 0.66896 0.33508 0.0
O533 O 0.57754 0.70447 0.27609 0.0
O534 O 0.63218 0.67403 0.26322 0.0
C535 C 0.62923 0.62389 0.21525 0.0
C536 C 0.5644 0.6741 0.45356 0.0
O537 O 0.61952 0.55233 0.22634 0.0
C538 C 0.58638 0.42613 0.40904 0.0
O539 O 0.63688 0.6656 0.39478 0.0
O540 O 0.65322 0.55776 0.33867 0.0
O541 O 0.55817 0.59998 0.44353 0.0
O542 O 0.58138 0.71446 0.41188 0.0
C543 C 0.5544 0.4691 0.2529 0.0
O544 O 0.61253 0.45214 0.38698 0.0
O545 O 0.56043 0.45909 0.3907 0.0
C546 C 0.65888 0.62016 0.37666 0.0
O547 O 0.58194 0.4449 0.27112 0.0
O548 O 0.5425 0.53186 0.27775 0.0
C549 C 0.55167 0.72116 0.29816 0.0
Fe550 Fe 0.74341 0.59313 0.33704 0.0
Fe551 Fe 0.73367 0.77287 0.30796 0.0
O552 O 0.75755 0.69402 0.33785 0.0
Fe553 Fe 0.79749 0.71291 0.36001 0.0
O554 O 0.81158 0.60922 0.33508 0.0
O555 O 0.772 0.57371 0.27608 0.0
O556 O 0.71737 0.60412 0.26322 0.0
C557 C 0.72031 0.65427 0.21526 0.0
C558 C 0.78514 0.60406 0.45356 0.0
O559 O 0.73002 0.72583 0.22634 0.0
C560 C 0.76316 0.85204 0.40904 0.0
O561 O 0.71266 0.61252 0.39478 0.0
O562 O 0.69633 0.7204 0.33867 0.0
O563 O 0.79137 0.67818 0.44353 0.0
O564 O 0.76817 0.56369 0.41188 0.0
C565 C 0.79514 0.80908 0.25291 0.0
O566 O 0.73701 0.82603 0.38699 0.0
O567 O 0.78911 0.81907 0.39071 0.0
C568 C 0.69067 0.65801 0.37668 0.0
O569 O 0.7676 0.83327 0.27112 0.0
O570 O 0.80704 0.74631 0.27776 0.0
C571 C 0.79787 0.55702 0.29815 0.0
Fe572 Fe 0.61587 0.77287 1.05308 0.0
Fe573 Fe 0.55205 0.71292 1.00106 0.0
O574 O 0.59199 0.69403 1.02319 0.0
Fe575 Fe 0.60613 0.59314 1.02399 0.0
O576 O 0.63217 0.60411 0.09783 0.0
O577 O 0.61952 0.72584 0.13471 0.0
O578 O 0.58195 0.83328 0.08993 0.0
C579 C 0.55441 0.80908 0.10815 0.0
C580 C 0.65888 0.65799 0.9844 0.0
O581 O 0.54252 0.74631 0.08331 0.0
C582 C 0.56439 0.60408 0.90748 0.0
O583 O 0.61253 0.82603 0.97406 0.0
O584 O 0.56043 0.81909 0.97036 0.0
O585 O 0.63688 0.61255 0.96627 0.0
O586 O 0.65322 0.7204 1.02238 0.0
C587 C 0.55168 0.55695 0.06284 0.0
O588 O 0.55817 0.6782 0.91753 0.0
O589 O 0.58138 0.56373 0.94915 0.0
C590 C 0.58638 0.85204 0.95201 0.0
O591 O 0.53797 0.60922 1.02598 0.0
O592 O 0.57753 0.57373 0.08493 0.0
C593 C 0.62923 0.65427 0.14579 0.0
Fe594 Fe 0.79749 0.56525 1.00105 0.0
Fe595 Fe 0.74341 0.68504 1.02401 0.0
O596 O 0.75756 0.58414 1.0232 0.0
Fe597 Fe 0.73367 0.50529 1.05309 0.0
O598 O 0.7676 0.44489 0.08993 0.0
O599 O 0.80704 0.53185 0.08329 0.0
O600 O 0.81158 0.66894 1.02597 0.0
C601 C 0.79787 0.72114 0.0629 0.0
C602 C 0.76317 0.42613 0.95201 0.0
O603 O 0.772 0.70445 0.08497 0.0
C604 C 0.69068 0.62015 0.98437 0.0
O605 O 0.79137 0.59998 0.91752 0.0
O606 O 0.76817 0.71447 0.94918 0.0
O607 O 0.73702 0.45214 0.97406 0.0
O608 O 0.78911 0.45909 0.97034 0.0
C609 C 0.72031 0.62389 0.14579 0.0
O610 O 0.71267 0.66564 0.96627 0.0
O611 O 0.69633 0.55776 1.02238 0.0
C612 C 0.78514 0.67411 0.90749 0.0
O613 O 0.71737 0.67404 0.09783 0.0
O614 O 0.73003 0.55232 0.13471 0.0
C615 C 0.79515 0.46908 0.10814 0.0
Fe616 Fe 0.49342 0.34313 0.774 0.0
Fe617 Fe 0.5475 0.46293 0.75105 0.0
O618 O 0.50756 0.44402 0.7732 0.0
Fe619 Fe 0.48367 0.52287 0.80309 0.0
O620 O 0.48003 0.47583 0.88471 0.0
O621 O 0.46738 0.35412 0.84783 0.0
O622 O 0.52201 0.32366 0.83495 0.0
C623 C 0.54789 0.30703 0.8129 0.0
C624 C 0.44067 0.40798 0.7344 0.0
O625 O 0.56158 0.35925 0.77598 0.0
C626 C 0.51316 0.60205 0.70201 0.0
O627 O 0.51817 0.3137 0.69917 0.0
O628 O 0.54137 0.4282 0.66752 0.0
O629 O 0.44633 0.4704 0.77238 0.0
O630 O 0.46268 0.36256 0.71626 0.0
C631 C 0.54514 0.55909 0.85814 0.0
O632 O 0.53911 0.56909 0.72035 0.0
O633 O 0.48701 0.57603 0.72406 0.0
C634 C 0.53515 0.35407 0.65749 0.0
O635 O 0.55704 0.49633 0.83329 0.0
O636 O 0.5176 0.58328 0.83993 0.0
C637 C 0.47032 0.40427 0.89579 0.0
Fe638 Fe 0.36588 0.2553 0.80309 0.0
Fe639 Fe 0.35613 0.43505 0.774 0.0
O640 O 0.34199 0.33415 0.7732 0.0
Fe641 Fe 0.30206 0.31524 0.75104 0.0
O642 O 0.29251 0.28184 0.83328 0.0
O643 O 0.33195 0.19489 0.83993 0.0
O644 O 0.36952 0.30234 0.88471 0.0
C645 C 0.37923 0.37391 0.89579 0.0
C646 C 0.33639 0.17612 0.70201 0.0
O647 O 0.38217 0.42405 0.84783 0.0
C648 C 0.3144 0.4241 0.65749 0.0
O649 O 0.40322 0.30777 0.77238 0.0
O650 O 0.38688 0.41564 0.71626 0.0
O651 O 0.31044 0.20908 0.72034 0.0
O652 O 0.36254 0.20214 0.72407 0.0
C653 C 0.30166 0.47114 0.8129 0.0
O654 O 0.33138 0.46447 0.69917 0.0
O655 O 0.30818 0.34998 0.66752 0.0
C656 C 0.40887 0.37017 0.73438 0.0
O657 O 0.32754 0.4545 0.83495 0.0
O658 O 0.28797 0.41892 0.77597 0.0
C659 C 0.3044 0.21908 0.85814 0.0
Fe660 Fe 0.54749 0.31524 0.11001 0.0
Fe661 Fe 0.48367 0.25531 0.05796 0.0
O662 O 0.50756 0.33415 0.08785 0.0
Fe663 Fe 0.49342 0.43505 0.08706 0.0
O664 O 0.52201 0.45452 1.02611 0.0
O665 O 0.56158 0.41892 0.08508 0.0
O666 O 0.55704 0.28184 1.02777 0.0
C667 C 0.54515 0.21908 1.00291 0.0
C668 C 0.53515 0.4241 0.20356 0.0
O669 O 0.5176 0.19489 1.02112 0.0
C670 C 0.44067 0.37019 0.12664 0.0
O671 O 0.53911 0.20908 0.14071 0.0
O672 O 0.48701 0.20215 0.13698 0.0
O673 O 0.51817 0.46447 0.16189 0.0
O674 O 0.54137 0.34998 0.19353 0.0
C675 C 0.47032 0.37391 0.96526 0.0
O676 O 0.44633 0.30778 0.08866 0.0
O677 O 0.46267 0.41561 0.14479 0.0
C678 C 0.51316 0.17613 0.15904 0.0
O679 O 0.48003 0.30234 0.97634 0.0
O680 O 0.46738 0.42406 1.01322 0.0
C681 C 0.54789 0.47115 1.04816 0.0
Fe682 Fe 0.36587 0.52286 0.05796 0.0
Fe683 Fe 0.35613 0.34312 0.08705 0.0
O684 O 0.34199 0.44401 0.08785 0.0
Fe685 Fe 0.30205 0.46292 0.11001 0.0
O686 O 0.29251 0.49632 1.02777 0.0
O687 O 0.33195 0.58327 1.02112 0.0
O688 O 0.36952 0.47583 0.97634 0.0
C689 C 0.37923 0.40427 0.96526 0.0
C690 C 0.33639 0.60204 0.15904 0.0
O691 O 0.38217 0.35411 1.01322 0.0
C692 C 0.3144 0.35406 0.20356 0.0
O693 O 0.40322 0.4704 0.08867 0.0
O694 O 0.38688 0.36253 0.14479 0.0
O695 O 0.31044 0.56908 0.14071 0.0
O696 O 0.36253 0.57602 0.13698 0.0
C697 C 0.30166 0.30702 1.04815 0.0
O698 O 0.33138 0.31369 0.16188 0.0
O699 O 0.30818 0.42818 0.19353 0.0
C700 C 0.40887 0.408 0.12667 0.0
O701 O 0.32754 0.32366 1.0261 0.0
O702 O 0.28797 0.35924 0.08508 0.0
C703 C 0.3044 0.55908 1.00291 0.0
loop_
_geom_bond_atom_site_label_1
_geom_bond_atom_site_label_2
_geom_bond_distance
_geom_bond_site_symmetry_2
_ccdc_geom_bond_type
Fe0 O2 1.918 . S
Fe0 O5 1.997 . S
Fe0 O6 2.002 . S
Fe0 O11 1.976 . S
Fe0 O14 1.996 . S
Fe1 O2 1.918 1_565 S
Fe1 O9 1.997 1_565 S
Fe1 O12 1.996 1_565 S
Fe1 O16 1.976 . S
Fe1 O19 2.002 . S
O2 Fe0 1.918 . S
O2 Fe1 1.918 1_545 S
O2 Fe3 1.918 . S
Fe3 O2 1.918 . S
Fe3 O4 2.002 1_455 S
Fe3 O13 1.976 . S
Fe3 O17 1.996 1_545 S
Fe3 O20 1.997 1_445 S
O4 Fe3 2.002 1_655 S
O4 C21 1.295 . S
O5 Fe0 1.997 . S
O5 C21 1.235 1_455 S
O6 Fe0 2.002 . S
O6 C7 1.295 . S
C7 O6 1.295 . S
C7 O9 1.235 . S
C8 O13 1.287 . S
C8 O14 1.255 . S
O9 Fe1 1.997 1_545 S
O9 C7 1.235 . S
C10 O16 1.287 . S
C10 O17 1.255 . S
O11 Fe0 1.976 . S
O11 C18 1.287 . S
O12 Fe1 1.996 1_545 S
O12 C18 1.255 . S
O13 Fe3 1.976 . S
O13 C8 1.287 . S
O14 Fe0 1.996 . S
O14 C8 1.255 . S
C15 O19 1.295 . S
C15 O20 1.235 1_455 S
O16 Fe1 1.976 . S
O16 C10 1.287 . S
O17 Fe3 1.996 1_565 S
O17 C10 1.255 . S
C18 O11 1.287 . S
C18 O12 1.255 . S
O19 Fe1 2.002 . S
O19 C15 1.295 . S
O20 Fe3 1.997 1_665 S
O20 C15 1.235 1_655 S
C21 O4 1.295 . S
C21 O5 1.235 1_655 S
Fe22 O24 1.918 . S
Fe22 O27 1.997 . S
Fe22 O28 2.002 . S
Fe22 O33 1.976 . S
Fe22 O36 1.996 . S
Fe23 O24 1.918 . S
Fe23 O31 1.997 . S
Fe23 O34 1.996 . S
Fe23 O38 1.976 . S
Fe23 O41 2.002 . S
O24 Fe22 1.918 . S
O24 Fe23 1.918 . S
O24 Fe25 1.918 . S
Fe25 O24 1.918 . S
Fe25 O26 2.002 . S
Fe25 O35 1.976 . S
Fe25 O39 1.996 . S
Fe25 O42 1.997 . S
O26 Fe25 2.002 . S
O26 C43 1.295 . S
O27 Fe22 1.997 . S
O27 C43 1.235 . S
O28 Fe22 2.002 . S
O28 C29 1.295 . S
C29 O28 1.295 . S
C29 O31 1.235 . S
C30 O35 1.287 . S
C30 O36 1.255 . S
O31 Fe23 1.997 . S
O31 C29 1.235 . S
C32 O38 1.287 . S
C32 O39 1.255 . S
O33 Fe22 1.976 . S
O33 C40 1.287 . S
O34 Fe23 1.996 . S
O34 C40 1.255 . S
O35 Fe25 1.976 . S
O35 C30 1.287 . S
O36 Fe22 1.996 . S
O36 C30 1.255 . S
C37 O41 1.295 . S
C37 O42 1.235 . S
O38 Fe23 1.976 . S
O38 C32 1.287 . S
O39 Fe25 1.996 . S
O39 C32 1.255 . S
C40 O33 1.287 . S
C40 O34 1.255 . S
O41 Fe23 2.002 . S
O41 C37 1.295 . S
O42 Fe25 1.997 . S
O42 C37 1.235 . S
C43 O26 1.295 . S
C43 O27 1.235 . S
Fe44 O46 1.918 . S
Fe44 O49 1.997 1_455 S
Fe44 O50 2.002 1_455 S
Fe44 O55 1.976 . S
Fe44 O58 1.996 . S
Fe45 O46 1.918 . S
Fe45 O53 1.997 . S
Fe45 O56 1.996 . S
Fe45 O60 1.976 . S
Fe45 O63 2.002 1_556 S
O46 Fe44 1.918 . S
O46 Fe45 1.918 . S
O46 Fe47 1.915 1_556 S
Fe47 O46 1.915 1_554 S
Fe47 O48 2.006 . S
Fe47 O57 1.971 1_554 S
Fe47 O61 1.993 1_554 S
Fe47 O64 2.002 . S
O48 Fe47 2.006 . S
O48 C65 1.295 . S
O49 Fe44 1.997 1_655 S
O49 C65 1.235 1_656 S
O50 Fe44 2.002 1_655 S
O50 C51 1.295 . S
C51 O50 1.295 . S
C51 O53 1.235 1_655 S
C52 O57 1.287 . S
C52 O58 1.255 . S
O53 Fe45 1.997 . S
O53 C51 1.235 1_455 S
C54 O60 1.287 . S
C54 O61 1.255 . S
O55 Fe44 1.976 . S
O55 C62 1.287 . S
O56 Fe45 1.996 . S
O56 C62 1.255 . S
O57 Fe47 1.971 1_556 S
O57 C52 1.287 . S
O58 Fe44 1.996 . S
O58 C52 1.255 . S
C59 O63 1.295 . S
C59 O64 1.235 . S
O60 Fe45 1.976 . S
O60 C54 1.287 . S
O61 Fe47 1.993 1_556 S
O61 C54 1.255 . S
C62 O55 1.287 . S
C62 O56 1.255 . S
O63 Fe45 2.002 1_554 S
O63 C59 1.295 . S
O64 Fe47 2.002 . S
O64 C59 1.235 . S
C65 O48 1.295 . S
C65 O49 1.235 1_454 S
Fe66 O68 1.918 . S
Fe66 O71 1.997 1_545 S
Fe66 O72 2.002 . S
Fe66 O77 1.976 . S
Fe66 O80 1.996 1_545 S
Fe67 O68 1.918 . S
Fe67 O75 1.997 . S
Fe67 O78 1.996 . S
Fe67 O82 1.976 . S
Fe67 O85 2.002 1_556 S
O68 Fe66 1.918 . S
O68 Fe67 1.918 . S
O68 Fe69 1.915 1_546 S
Fe69 O68 1.915 1_564 S
Fe69 O70 2.006 . S
Fe69 O79 1.971 1_554 S
Fe69 O83 1.993 1_564 S
Fe69 O86 2.002 1_565 S
O70 Fe69 2.006 . S
O70 C87 1.295 . S
O71 Fe66 1.997 1_565 S
O71 C87 1.235 1_556 S
O72 Fe66 2.002 . S
O72 C73 1.295 . S
C73 O72 1.295 . S
C73 O75 1.235 . S
C74 O79 1.287 . S
C74 O80 1.255 . S
O75 Fe67 1.997 . S
O75 C73 1.235 . S
C76 O82 1.287 . S
C76 O83 1.255 . S
O77 Fe66 1.976 . S
O77 C84 1.287 . S
O78 Fe67 1.996 . S
O78 C84 1.255 . S
O79 Fe69 1.971 1_556 S
O79 C74 1.287 . S
O80 Fe66 1.996 1_565 S
O80 C74 1.255 . S
C81 O85 1.295 . S
C81 O86 1.235 . S
O82 Fe67 1.976 . S
O82 C76 1.287 . S
O83 Fe69 1.993 1_546 S
O83 C76 1.255 . S
C84 O77 1.287 . S
C84 O78 1.255 . S
O85 Fe67 2.002 1_554 S
O85 C81 1.295 . S
O86 Fe69 2.002 1_545 S
O86 C81 1.235 . S
C87 O70 1.295 . S
C87 O71 1.235 1_554 S
Fe88 O90 1.918 . S
Fe88 O93 1.997 . S
Fe88 O94 2.002 . S
Fe88 O99 1.976 . S
Fe88 O102 1.996 . S
Fe89 O90 1.918 . S
Fe89 O97 1.997 1_655 S
Fe89 O100 1.996 . S
Fe89 O104 1.976 1_565 S
Fe89 O107 2.002 1_665 S
O90 Fe88 1.918 . S
O90 Fe89 1.918 . S
O90 Fe91 1.918 1_565 S
Fe91 O90 1.918 1_545 S
Fe91 O92 2.002 1_545 S
Fe91 O101 1.976 1_545 S
Fe91 O105 1.996 . S
Fe91 O108 1.997 . S
O92 Fe91 2.002 1_565 S
O92 C109 1.295 . S
O93 Fe88 1.997 . S
O93 C109 1.235 . S
O94 Fe88 2.002 . S
O94 C95 1.295 1_655 S
C95 O94 1.295 1_455 S
C95 O97 1.235 . S
C96 O101 1.287 . S
C96 O102 1.255 . S
O97 Fe89 1.997 1_455 S
O97 C95 1.235 . S
C98 O104 1.287 . S
C98 O105 1.255 . S
O99 Fe88 1.976 . S
O99 C106 1.287 . S
O100 Fe89 1.996 . S
O100 C106 1.255 . S
O101 Fe91 1.976 1_565 S
O101 C96 1.287 . S
O102 Fe88 1.996 . S
O102 C96 1.255 . S
C103 O107 1.295 1_655 S
C103 O108 1.235 . S
O104 Fe89 1.976 1_545 S
O104 C98 1.287 . S
O105 Fe91 1.996 . S
O105 C98 1.255 . S
C106 O99 1.287 . S
C106 O100 1.255 . S
O107 Fe89 2.002 1_445 S
O107 C103 1.295 1_455 S
O108 Fe91 1.997 . S
O108 C103 1.235 . S
C109 O92 1.295 . S
C109 O93 1.235 . S
Fe110 O112 1.918 . S
Fe110 O115 1.997 . S
Fe110 O116 2.002 . S
Fe110 O121 1.976 . S
Fe110 O124 1.996 . S
Fe111 O112 1.918 . S
Fe111 O119 1.997 . S
Fe111 O122 1.996 . S
Fe111 O126 1.976 . S
Fe111 O129 2.002 . S
O112 Fe110 1.918 . S
O112 Fe111 1.918 . S
O112 Fe113 1.918 . S
Fe113 O112 1.918 . S
Fe113 O114 2.002 . S
Fe113 O123 1.976 . S
Fe113 O127 1.996 . S
Fe113 O130 1.997 . S
O114 Fe113 2.002 . S
O114 C131 1.295 . S
O115 Fe110 1.997 . S
O115 C131 1.235 . S
O116 Fe110 2.002 . S
O116 C117 1.295 . S
C117 O116 1.295 . S
C117 O119 1.235 . S
C118 O123 1.287 . S
C118 O124 1.255 . S
O119 Fe111 1.997 . S
O119 C117 1.235 . S
C120 O126 1.287 . S
C120 O127 1.255 . S
O121 Fe110 1.976 . S
O121 C128 1.287 . S
O122 Fe111 1.996 . S
O122 C128 1.255 . S
O123 Fe113 1.976 . S
O123 C118 1.287 . S
O124 Fe110 1.996 . S
O124 C118 1.255 . S
C125 O129 1.295 . S
C125 O130 1.235 . S
O126 Fe111 1.976 . S
O126 C120 1.287 . S
O127 Fe113 1.996 . S
O127 C120 1.255 . S
C128 O121 1.287 . S
C128 O122 1.255 . S
O129 Fe111 2.002 . S
O129 C125 1.295 . S
O130 Fe113 1.997 . S
O130 C125 1.235 . S
C131 O114 1.295 . S
C131 O115 1.235 . S
Fe132 O134 1.918 . S
Fe132 O137 1.997 1_655 S
Fe132 O138 2.002 1_655 S
Fe132 O143 1.976 . S
Fe132 O146 1.996 . S
Fe133 O134 1.918 1_556 S
Fe133 O141 1.996 . S
Fe133 O144 1.996 1_556 S
Fe133 O148 1.976 1_556 S
Fe133 O151 2.002 . S
O134 Fe132 1.918 . S
O134 Fe133 1.918 1_554 S
O134 Fe135 1.918 . S
Fe135 O134 1.918 . S
Fe135 O136 2.002 . S
Fe135 O145 1.976 . S
Fe135 O149 1.996 . S
Fe135 O152 1.997 1_554 S
O136 Fe135 2.002 . S
O136 C153 1.295 1_655 S
O137 Fe132 1.997 1_455 S
O137 C153 1.235 . S
O138 Fe132 2.002 1_455 S
O138 C139 1.295 1_454 S
C139 O138 1.295 1_656 S
C139 O141 1.235 . S
C140 O145 1.287 . S
C140 O146 1.255 . S
O141 Fe133 1.996 . S
O141 C139 1.235 . S
C142 O148 1.287 . S
C142 O149 1.255 . S
O143 Fe132 1.976 . S
O143 C150 1.287 . S
O144 Fe133 1.996 1_554 S
O144 C150 1.255 . S
O145 Fe135 1.976 . S
O145 C140 1.287 . S
O146 Fe132 1.996 . S
O146 C140 1.255 . S
C147 O151 1.295 . S
C147 O152 1.235 . S
O148 Fe133 1.976 1_554 S
O148 C142 1.287 . S
O149 Fe135 1.996 . S
O149 C142 1.255 . S
C150 O143 1.287 . S
C150 O144 1.255 . S
O151 Fe133 2.002 . S
O151 C147 1.295 . S
O152 Fe135 1.997 1_556 S
O152 C147 1.235 . S
C153 O136 1.295 1_455 S
C153 O137 1.235 . S
Fe154 O156 1.918 . S
Fe154 O159 1.997 1_554 S
Fe154 O160 2.002 . S
Fe154 O165 1.976 . S
Fe154 O168 1.996 . S
Fe155 O156 1.918 . S
Fe155 O163 1.997 . S
Fe155 O166 1.996 . S
Fe155 O170 1.976 1_565 S
Fe155 O173 2.002 1_565 S
O156 Fe154 1.918 . S
O156 Fe155 1.918 . S
O156 Fe157 1.918 1_564 S
Fe157 O156 1.918 1_546 S
Fe157 O158 2.002 1_545 S
Fe157 O167 1.976 1_546 S
Fe157 O171 1.996 1_556 S
Fe157 O174 1.996 . S
O158 Fe157 2.002 1_565 S
O158 C175 1.295 . S
O159 Fe154 1.997 1_556 S
O159 C175 1.235 . S
O160 Fe154 2.002 . S
O160 C161 1.295 . S
C161 O160 1.295 . S
C161 O163 1.235 . S
C162 O167 1.287 . S
C162 O168 1.255 . S
O163 Fe155 1.997 . S
O163 C161 1.235 . S
C164 O170 1.287 . S
C164 O171 1.255 . S
O165 Fe154 1.976 . S
O165 C172 1.287 . S
O166 Fe155 1.996 . S
O166 C172 1.255 . S
O167 Fe157 1.976 1_564 S
O167 C162 1.287 . S
O168 Fe154 1.996 . S
O168 C162 1.255 . S
C169 O173 1.295 1_556 S
C169 O174 1.235 . S
O170 Fe155 1.976 1_545 S
O170 C164 1.287 . S
O171 Fe157 1.996 1_554 S
O171 C164 1.255 . S
C172 O165 1.287 . S
C172 O166 1.255 . S
O173 Fe155 2.002 1_545 S
O173 C169 1.295 1_554 S
O174 Fe157 1.996 . S
O174 C169 1.235 . S
C175 O158 1.295 . S
C175 O159 1.235 . S
Fe176 O178 1.918 . S
Fe176 O181 1.997 . S
Fe176 O182 2.002 . S
Fe176 O187 1.976 . S
Fe176 O190 1.996 . S
Fe177 O178 1.918 . S
Fe177 O185 1.997 . S
Fe177 O188 1.996 . S
Fe177 O192 1.976 . S
Fe177 O195 2.002 . S
O178 Fe176 1.918 . S
O178 Fe177 1.918 . S
O178 Fe179 1.918 . S
Fe179 O178 1.918 . S
Fe179 O180 2.002 1_455 S
Fe179 O189 1.976 . S
Fe179 O193 1.996 . S
Fe179 O196 1.997 1_455 S
O180 Fe179 2.002 1_655 S
O180 C197 1.295 . S
O181 Fe176 1.997 . S
O181 C197 1.235 1_455 S
O182 Fe176 2.002 . S
O182 C183 1.295 . S
C183 O182 1.295 . S
C183 O185 1.235 . S
C184 O189 1.287 . S
C184 O190 1.255 . S
O185 Fe177 1.997 . S
O185 C183 1.235 . S
C186 O192 1.287 . S
C186 O193 1.255 . S
O187 Fe176 1.976 . S
O187 C194 1.287 . S
O188 Fe177 1.996 . S
O188 C194 1.255 . S
O189 Fe179 1.976 . S
O189 C184 1.287 . S
O190 Fe176 1.996 . S
O190 C184 1.255 . S
C191 O195 1.295 . S
C191 O196 1.235 1_455 S
O192 Fe177 1.976 . S
O192 C186 1.287 . S
O193 Fe179 1.996 . S
O193 C186 1.255 . S
C194 O187 1.287 . S
C194 O188 1.255 . S
O195 Fe177 2.002 . S
O195 C191 1.295 . S
O196 Fe179 1.997 1_655 S
O196 C191 1.235 1_655 S
C197 O180 1.295 . S
C197 O181 1.235 1_655 S
Fe198 O200 1.918 . S
Fe198 O203 1.997 . S
Fe198 O204 2.002 . S
Fe198 O209 1.976 . S
Fe198 O212 1.996 . S
Fe199 O200 1.918 . S
Fe199 O207 1.997 . S
Fe199 O210 1.996 . S
Fe199 O214 1.976 . S
Fe199 O217 2.002 . S
O200 Fe198 1.918 . S
O200 Fe199 1.918 . S
O200 Fe201 1.918 . S
Fe201 O200 1.918 . S
Fe201 O202 2.002 . S
Fe201 O211 1.976 . S
Fe201 O215 1.996 . S
Fe201 O218 1.997 . S
O202 Fe201 2.002 . S
O202 C219 1.295 . S
O203 Fe198 1.997 . S
O203 C219 1.235 . S
O204 Fe198 2.002 . S
O204 C205 1.295 . S
C205 O204 1.295 . S
C205 O207 1.235 . S
C206 O211 1.287 . S
C206 O212 1.255 . S
O207 Fe199 1.997 . S
O207 C205 1.235 . S
C208 O214 1.287 . S
C208 O215 1.255 . S
O209 Fe198 1.976 . S
O209 C216 1.287 . S
O210 Fe199 1.996 . S
O210 C216 1.255 . S
O211 Fe201 1.976 . S
O211 C206 1.287 . S
O212 Fe198 1.996 . S
O212 C206 1.255 . S
C213 O217 1.295 . S
C213 O218 1.235 . S
O214 Fe199 1.976 . S
O214 C208 1.287 . S
O215 Fe201 1.996 . S
O215 C208 1.255 . S
C216 O209 1.287 . S
C216 O210 1.255 . S
O217 Fe199 2.002 . S
O217 C213 1.295 . S
O218 Fe201 1.997 . S
O218 C213 1.235 . S
C219 O202 1.295 . S
C219 O203 1.235 . S
Fe220 O222 1.918 . S
Fe220 O225 1.997 . S
Fe220 O226 2.002 . S
Fe220 O231 1.976 . S
Fe220 O234 1.996 . S
Fe221 O222 1.918 . S
Fe221 O229 1.997 1_455 S
Fe221 O232 1.996 . S
Fe221 O236 1.976 . S
Fe221 O239 2.002 1_455 S
O222 Fe220 1.918 . S
O222 Fe221 1.918 . S
O222 Fe223 1.918 . S
Fe223 O222 1.918 . S
Fe223 O224 2.002 . S
Fe223 O233 1.976 . S
Fe223 O237 1.996 . S
Fe223 O240 1.997 . S
O224 Fe223 2.002 . S
O224 C241 1.295 . S
O225 Fe220 1.997 . S
O225 C241 1.235 . S
O226 Fe220 2.002 . S
O226 C227 1.295 . S
C227 O226 1.295 . S
C227 O229 1.235 1_455 S
C228 O233 1.287 . S
C228 O234 1.255 . S
O229 Fe221 1.997 1_655 S
O229 C227 1.235 1_655 S
C230 O236 1.287 . S
C230 O237 1.255 . S
O231 Fe220 1.976 . S
O231 C238 1.287 . S
O232 Fe221 1.996 . S
O232 C238 1.255 . S
O233 Fe223 1.976 . S
O233 C228 1.287 . S
O234 Fe220 1.996 . S
O234 C228 1.255 . S
C235 O239 1.295 . S
C235 O240 1.235 1_655 S
O236 Fe221 1.976 . S
O236 C230 1.287 . S
O237 Fe223 1.996 . S
O237 C230 1.255 . S
C238 O231 1.287 . S
C238 O232 1.255 . S
O239 Fe221 2.002 1_655 S
O239 C235 1.295 . S
O240 Fe223 1.997 . S
O240 C235 1.235 1_455 S
C241 O224 1.295 . S
C241 O225 1.235 . S
Fe242 O244 1.918 . S
Fe242 O247 1.997 . S
Fe242 O248 2.002 . S
Fe242 O253 1.976 . S
Fe242 O256 1.996 . S
Fe243 O244 1.918 . S
Fe243 O251 1.997 . S
Fe243 O254 1.996 . S
Fe243 O258 1.976 . S
Fe243 O261 2.002 . S
O244 Fe242 1.918 . S
O244 Fe243 1.918 . S
O244 Fe245 1.918 . S
Fe245 O244 1.918 . S
Fe245 O246 2.002 . S
Fe245 O255 1.976 . S
Fe245 O259 1.996 . S
Fe245 O262 1.997 . S
O246 Fe245 2.002 . S
O246 C263 1.295 . S
O247 Fe242 1.997 . S
O247 C263 1.235 . S
O248 Fe242 2.002 . S
O248 C249 1.295 . S
C249 O248 1.295 . S
C249 O251 1.235 . S
C250 O255 1.287 . S
C250 O256 1.255 . S
O251 Fe243 1.997 . S
O251 C249 1.235 . S
C252 O258 1.287 . S
C252 O259 1.255 . S
O253 Fe242 1.976 . S
O253 C260 1.287 . S
O254 Fe243 1.996 . S
O254 C260 1.255 . S
O255 Fe245 1.976 . S
O255 C250 1.287 . S
O256 Fe242 1.996 . S
O256 C250 1.255 . S
C257 O261 1.295 . S
C257 O262 1.235 . S
O258 Fe243 1.976 . S
O258 C252 1.287 . S
O259 Fe245 1.996 . S
O259 C252 1.255 . S
C260 O253 1.287 . S
C260 O254 1.255 . S
O261 Fe243 2.002 . S
O261 C257 1.295 . S
O262 Fe245 1.997 . S
O262 C257 1.235 . S
C263 O246 1.295 . S
C263 O247 1.235 . S
Fe264 O266 1.918 . S
Fe264 O269 1.997 . S
Fe264 O270 2.002 . S
Fe264 O275 1.976 . S
Fe264 O278 1.996 . S
Fe265 O266 1.918 . S
Fe265 O273 1.997 . S
Fe265 O276 1.996 . S
Fe265 O280 1.976 . S
Fe265 O283 2.002 . S
O266 Fe264 1.918 . S
O266 Fe265 1.918 . S
O266 Fe267 1.918 . S
Fe267 O266 1.918 . S
Fe267 O268 2.002 1_655 S
Fe267 O277 1.976 . S
Fe267 O281 1.996 . S
Fe267 O284 1.997 1_655 S
O268 Fe267 2.002 1_455 S
O268 C285 1.295 1_455 S
O269 Fe264 1.997 . S
O269 C285 1.235 . S
O270 Fe264 2.002 . S
O270 C271 1.295 . S
C271 O270 1.295 . S
C271 O273 1.235 . S
C272 O277 1.287 . S
C272 O278 1.255 . S
O273 Fe265 1.997 . S
O273 C271 1.235 . S
C274 O280 1.287 . S
C274 O281 1.255 . S
O275 Fe264 1.976 . S
O275 C282 1.287 . S
O276 Fe265 1.996 . S
O276 C282 1.255 . S
O277 Fe267 1.976 . S
O277 C272 1.287 . S
O278 Fe264 1.996 . S
O278 C272 1.255 . S
C279 O283 1.295 1_455 S
C279 O284 1.235 . S
O280 Fe265 1.976 . S
O280 C274 1.287 . S
O281 Fe267 1.996 . S
O281 C274 1.255 . S
C282 O275 1.287 . S
C282 O276 1.255 . S
O283 Fe265 2.002 . S
O283 C279 1.295 1_655 S
O284 Fe267 1.997 1_455 S
O284 C279 1.235 . S
C285 O268 1.295 1_655 S
C285 O269 1.235 . S
Fe286 O288 1.918 . S
Fe286 O291 1.997 . S
Fe286 O292 2.002 . S
Fe286 O297 1.976 . S
Fe286 O300 1.996 . S
Fe287 O288 1.918 . S
Fe287 O295 1.997 . S
Fe287 O298 1.996 . S
Fe287 O302 1.976 . S
Fe287 O305 2.002 . S
O288 Fe286 1.918 . S
O288 Fe287 1.918 . S
O288 Fe289 1.918 . S
Fe289 O288 1.918 . S
Fe289 O290 2.002 . S
Fe289 O299 1.976 . S
Fe289 O303 1.996 . S
Fe289 O306 1.997 . S
O290 Fe289 2.002 . S
O290 C307 1.295 . S
O291 Fe286 1.997 . S
O291 C307 1.235 . S
O292 Fe286 2.002 . S
O292 C293 1.295 . S
C293 O292 1.295 . S
C293 O295 1.235 . S
C294 O299 1.287 . S
C294 O300 1.255 . S
O295 Fe287 1.997 . S
O295 C293 1.235 . S
C296 O302 1.287 . S
C296 O303 1.255 . S
O297 Fe286 1.976 . S
O297 C304 1.287 . S
O298 Fe287 1.996 . S
O298 C304 1.255 . S
O299 Fe289 1.976 . S
O299 C294 1.287 . S
O300 Fe286 1.996 . S
O300 C294 1.255 . S
C301 O305 1.295 . S
C301 O306 1.235 . S
O302 Fe287 1.976 . S
O302 C296 1.287 . S
O303 Fe289 1.996 . S
O303 C296 1.255 . S
C304 O297 1.287 . S
C304 O298 1.255 . S
O305 Fe287 2.002 . S
O305 C301 1.295 . S
O306 Fe289 1.997 . S
O306 C301 1.235 . S
C307 O290 1.295 . S
C307 O291 1.235 . S
Fe308 O310 1.918 . S
Fe308 O313 1.997 1_655 S
Fe308 O314 2.002 1_655 S
Fe308 O319 1.976 . S
Fe308 O322 1.996 . S
Fe309 O310 1.918 . S
Fe309 O317 1.997 . S
Fe309 O320 1.996 . S
Fe309 O324 1.976 . S
Fe309 O327 2.002 . S
O310 Fe308 1.918 . S
O310 Fe309 1.918 . S
O310 Fe311 1.918 . S
Fe311 O310 1.918 . S
Fe311 O312 2.002 . S
Fe311 O321 1.976 . S
Fe311 O325 1.996 . S
Fe311 O328 1.997 . S
O312 Fe311 2.002 . S
O312 C329 1.295 1_655 S
O313 Fe308 1.997 1_455 S
O313 C329 1.235 . S
O314 Fe308 2.002 1_455 S
O314 C315 1.295 1_455 S
C315 O314 1.295 1_655 S
C315 O317 1.235 . S
C316 O321 1.287 . S
C316 O322 1.255 . S
O317 Fe309 1.997 . S
O317 C315 1.235 . S
C318 O324 1.287 . S
C318 O325 1.255 . S
O319 Fe308 1.976 . S
O319 C326 1.287 . S
O320 Fe309 1.996 . S
O320 C326 1.255 . S
O321 Fe311 1.976 . S
O321 C316 1.287 . S
O322 Fe308 1.996 . S
O322 C316 1.255 . S
C323 O327 1.295 . S
C323 O328 1.235 . S
O324 Fe309 1.976 . S
O324 C318 1.287 . S
O325 Fe311 1.996 . S
O325 C318 1.255 . S
C326 O319 1.287 . S
C326 O320 1.255 . S
O327 Fe309 2.002 . S
O327 C323 1.295 . S
O328 Fe311 1.997 . S
O328 C323 1.235 . S
C329 O312 1.295 1_455 S
C329 O313 1.235 . S
Fe330 O332 1.918 . S
Fe330 O335 1.997 . S
Fe330 O336 2.002 . S
Fe330 O341 1.976 . S
Fe330 O344 1.996 . S
Fe331 O332 1.918 . S
Fe331 O339 1.997 . S
Fe331 O342 1.996 . S
Fe331 O346 1.976 . S
Fe331 O349 2.002 . S
O332 Fe330 1.918 . S
O332 Fe331 1.918 . S
O332 Fe333 1.918 . S
Fe333 O332 1.918 . S
Fe333 O334 2.002 . S
Fe333 O343 1.976 . S
Fe333 O347 1.996 . S
Fe333 O350 1.997 . S
O334 Fe333 2.002 . S
O334 C351 1.295 . S
O335 Fe330 1.997 . S
O335 C351 1.235 . S
O336 Fe330 2.002 . S
O336 C337 1.295 . S
C337 O336 1.295 . S
C337 O339 1.235 . S
C338 O343 1.287 . S
C338 O344 1.255 . S
O339 Fe331 1.997 . S
O339 C337 1.235 . S
C340 O346 1.287 . S
C340 O347 1.255 . S
O341 Fe330 1.976 . S
O341 C348 1.287 . S
O342 Fe331 1.996 . S
O342 C348 1.255 . S
O343 Fe333 1.976 . S
O343 C338 1.287 . S
O344 Fe330 1.996 . S
O344 C338 1.255 . S
C345 O349 1.295 . S
C345 O350 1.235 . S
O346 Fe331 1.976 . S
O346 C340 1.287 . S
O347 Fe333 1.996 . S
O347 C340 1.255 . S
C348 O341 1.287 . S
C348 O342 1.255 . S
O349 Fe331 2.002 . S
O349 C345 1.295 . S
O350 Fe333 1.997 . S
O350 C345 1.235 . S
C351 O334 1.295 . S
C351 O335 1.235 . S
Fe352 O354 1.918 . S
Fe352 O357 1.997 . S
Fe352 O358 2.002 . S
Fe352 O363 1.976 . S
Fe352 O366 1.996 . S
Fe353 O354 1.918 1_565 S
Fe353 O361 1.997 1_565 S
Fe353 O364 1.996 1_565 S
Fe353 O368 1.976 . S
Fe353 O371 2.002 . S
O354 Fe352 1.918 . S
O354 Fe353 1.918 1_545 S
O354 Fe355 1.918 . S
Fe355 O354 1.918 . S
Fe355 O356 2.002 . S
Fe355 O365 1.976 . S
Fe355 O369 1.996 1_545 S
Fe355 O372 1.997 1_545 S
O356 Fe355 2.002 . S
O356 C373 1.295 . S
O357 Fe352 1.997 . S
O357 C373 1.235 . S
O358 Fe352 2.002 . S
O358 C359 1.295 . S
C359 O358 1.295 . S
C359 O361 1.235 . S
C360 O365 1.287 . S
C360 O366 1.255 . S
O361 Fe353 1.997 1_545 S
O361 C359 1.235 . S
C362 O368 1.287 . S
C362 O369 1.255 . S
O363 Fe352 1.976 . S
O363 C370 1.287 . S
O364 Fe353 1.996 1_545 S
O364 C370 1.255 . S
O365 Fe355 1.976 . S
O365 C360 1.287 . S
O366 Fe352 1.996 . S
O366 C360 1.255 . S
C367 O371 1.295 . S
C367 O372 1.235 . S
O368 Fe353 1.976 . S
O368 C362 1.287 . S
O369 Fe355 1.996 1_565 S
O369 C362 1.255 . S
C370 O363 1.287 . S
C370 O364 1.255 . S
O371 Fe353 2.002 . S
O371 C367 1.295 . S
O372 Fe355 1.997 1_565 S
O372 C367 1.235 . S
C373 O356 1.295 . S
C373 O357 1.235 . S
Fe374 O376 1.918 . S
Fe374 O379 1.997 . S
Fe374 O380 2.002 . S
Fe374 O385 1.976 . S
Fe374 O388 1.996 . S
Fe375 O376 1.918 . S
Fe375 O383 1.997 . S
Fe375 O386 1.996 . S
Fe375 O390 1.976 . S
Fe375 O393 2.002 . S
O376 Fe374 1.918 . S
O376 Fe375 1.918 . S
O376 Fe377 1.918 . S
Fe377 O376 1.918 . S
Fe377 O378 2.002 . S
Fe377 O387 1.976 . S
Fe377 O391 1.996 . S
Fe377 O394 1.997 . S
O378 Fe377 2.002 . S
O378 C395 1.295 . S
O379 Fe374 1.997 . S
O379 C395 1.235 . S
O380 Fe374 2.002 . S
O380 C381 1.295 . S
C381 O380 1.295 . S
C381 O383 1.235 . S
C382 O387 1.287 . S
C382 O388 1.255 . S
O383 Fe375 1.997 . S
O383 C381 1.235 . S
C384 O390 1.287 . S
C384 O391 1.255 . S
O385 Fe374 1.976 . S
O385 C392 1.287 . S
O386 Fe375 1.996 . S
O386 C392 1.255 . S
O387 Fe377 1.976 . S
O387 C382 1.287 . S
O388 Fe374 1.996 . S
O388 C382 1.255 . S
C389 O393 1.295 . S
C389 O394 1.235 . S
O390 Fe375 1.976 . S
O390 C384 1.287 . S
O391 Fe377 1.996 . S
O391 C384 1.255 . S
C392 O385 1.287 . S
C392 O386 1.255 . S
O393 Fe375 2.002 . S
O393 C389 1.295 . S
O394 Fe377 1.997 . S
O394 C389 1.235 . S
C395 O378 1.295 . S
C395 O379 1.235 . S
Fe396 O398 1.918 . S
Fe396 O401 1.997 . S
Fe396 O402 2.002 . S
Fe396 O407 1.976 . S
Fe396 O410 1.996 . S
Fe397 O398 1.918 . S
Fe397 O405 1.997 . S
Fe397 O408 1.996 . S
Fe397 O412 1.976 . S
Fe397 O415 2.002 . S
O398 Fe396 1.918 . S
O398 Fe397 1.918 . S
O398 Fe399 1.918 . S
Fe399 O398 1.918 . S
Fe399 O400 2.002 . S
Fe399 O409 1.976 . S
Fe399 O413 1.996 . S
Fe399 O416 1.997 . S
O400 Fe399 2.002 . S
O400 C417 1.295 . S
O401 Fe396 1.997 . S
O401 C417 1.235 . S
O402 Fe396 2.002 . S
O402 C403 1.295 . S
C403 O402 1.295 . S
C403 O405 1.235 . S
C404 O409 1.287 . S
C404 O410 1.255 . S
O405 Fe397 1.997 . S
O405 C403 1.235 . S
C406 O412 1.287 . S
C406 O413 1.255 . S
O407 Fe396 1.976 . S
O407 C414 1.287 . S
O408 Fe397 1.996 . S
O408 C414 1.255 . S
O409 Fe399 1.976 . S
O409 C404 1.287 . S
O410 Fe396 1.996 . S
O410 C404 1.255 . S
C411 O415 1.295 . S
C411 O416 1.235 . S
O412 Fe397 1.976 . S
O412 C406 1.287 . S
O413 Fe399 1.996 . S
O413 C406 1.255 . S
C414 O407 1.287 . S
C414 O408 1.255 . S
O415 Fe397 2.002 . S
O415 C411 1.295 . S
O416 Fe399 1.997 . S
O416 C411 1.235 . S
C417 O400 1.295 . S
C417 O401 1.235 . S
Fe418 O420 1.918 . S
Fe418 O423 1.997 1_545 S
Fe418 O424 2.002 . S
Fe418 O429 1.976 . S
Fe418 O432 1.996 1_545 S
Fe419 O420 1.918 . S
Fe419 O427 1.997 . S
Fe419 O430 1.996 . S
Fe419 O434 1.976 . S
Fe419 O437 2.002 . S
O420 Fe418 1.918 . S
O420 Fe419 1.918 . S
O420 Fe421 1.918 1_545 S
Fe421 O420 1.918 1_565 S
Fe421 O422 2.002 . S
Fe421 O431 1.976 . S
Fe421 O435 1.996 1_565 S
Fe421 O438 1.997 1_565 S
O422 Fe421 2.002 . S
O422 C439 1.295 . S
O423 Fe418 1.997 1_565 S
O423 C439 1.235 . S
O424 Fe418 2.002 . S
O424 C425 1.295 . S
C425 O424 1.295 . S
C425 O427 1.235 . S
C426 O431 1.287 . S
C426 O432 1.255 . S
O427 Fe419 1.997 . S
O427 C425 1.235 . S
C428 O434 1.287 . S
C428 O435 1.255 . S
O429 Fe418 1.976 . S
O429 C436 1.287 . S
O430 Fe419 1.996 . S
O430 C436 1.255 . S
O431 Fe421 1.976 . S
O431 C426 1.287 . S
O432 Fe418 1.996 1_565 S
O432 C426 1.255 . S
C433 O437 1.295 . S
C433 O438 1.235 . S
O434 Fe419 1.976 . S
O434 C428 1.287 . S
O435 Fe421 1.996 1_545 S
O435 C428 1.255 . S
C436 O429 1.287 . S
C436 O430 1.255 . S
O437 Fe419 2.002 . S
O437 C433 1.295 . S
O438 Fe421 1.997 1_545 S
O438 C433 1.235 . S
C439 O422 1.295 . S
C439 O423 1.235 . S
Fe440 O442 1.918 . S
Fe440 O445 1.997 . S
Fe440 O446 2.002 . S
Fe440 O451 1.976 . S
Fe440 O454 1.996 . S
Fe441 O442 1.918 . S
Fe441 O449 1.997 . S
Fe441 O452 1.996 . S
Fe441 O456 1.976 1_565 S
Fe441 O459 2.002 1_565 S
O442 Fe440 1.918 . S
O442 Fe441 1.918 . S
O442 Fe443 1.918 1_565 S
Fe443 O442 1.918 1_545 S
Fe443 O444 2.002 1_545 S
Fe443 O453 1.976 1_545 S
Fe443 O457 1.996 . S
Fe443 O460 1.997 . S
O444 Fe443 2.002 1_565 S
O444 C461 1.295 . S
O445 Fe440 1.997 . S
O445 C461 1.235 . S
O446 Fe440 2.002 . S
O446 C447 1.295 . S
C447 O446 1.295 . S
C447 O449 1.235 . S
C448 O453 1.287 . S
C448 O454 1.255 . S
O449 Fe441 1.997 . S
O449 C447 1.235 . S
C450 O456 1.287 . S
C450 O457 1.255 . S
O451 Fe440 1.976 . S
O451 C458 1.287 . S
O452 Fe441 1.996 . S
O452 C458 1.255 . S
O453 Fe443 1.976 1_565 S
O453 C448 1.287 . S
O454 Fe440 1.996 . S
O454 C448 1.255 . S
C455 O459 1.295 . S
C455 O460 1.235 . S
O456 Fe441 1.976 1_545 S
O456 C450 1.287 . S
O457 Fe443 1.996 . S
O457 C450 1.255 . S
C458 O451 1.287 . S
C458 O452 1.255 . S
O459 Fe441 2.002 1_545 S
O459 C455 1.295 . S
O460 Fe443 1.997 . S
O460 C455 1.235 . S
C461 O444 1.295 . S
C461 O445 1.235 . S
Fe462 O464 1.918 . S
Fe462 O467 1.997 . S
Fe462 O468 2.002 . S
Fe462 O473 1.976 . S
Fe462 O476 1.996 . S
Fe463 O464 1.918 . S
Fe463 O471 1.997 . S
Fe463 O474 1.996 . S
Fe463 O478 1.976 . S
Fe463 O481 2.002 . S
O464 Fe462 1.918 . S
O464 Fe463 1.918 . S
O464 Fe465 1.918 . S
Fe465 O464 1.918 . S
Fe465 O466 2.002 . S
Fe465 O475 1.976 . S
Fe465 O479 1.996 . S
Fe465 O482 1.997 . S
O466 Fe465 2.002 . S
O466 C483 1.295 . S
O467 Fe462 1.997 . S
O467 C483 1.235 . S
O468 Fe462 2.002 . S
O468 C469 1.295 . S
C469 O468 1.295 . S
C469 O471 1.235 . S
C470 O475 1.287 . S
C470 O476 1.255 . S
O471 Fe463 1.997 . S
O471 C469 1.235 . S
C472 O478 1.287 . S
C472 O479 1.255 . S
O473 Fe462 1.976 . S
O473 C480 1.287 . S
O474 Fe463 1.996 . S
O474 C480 1.255 . S
O475 Fe465 1.976 . S
O475 C470 1.287 . S
O476 Fe462 1.996 . S
O476 C470 1.255 . S
C477 O481 1.295 . S
C477 O482 1.235 . S
O478 Fe463 1.976 . S
O478 C472 1.287 . S
O479 Fe465 1.996 . S
O479 C472 1.255 . S
C480 O473 1.287 . S
C480 O474 1.255 . S
O481 Fe463 2.002 . S
O481 C477 1.295 . S
O482 Fe465 1.997 . S
O482 C477 1.235 . S
C483 O466 1.295 . S
C483 O467 1.235 . S
Fe484 O486 1.918 . S
Fe484 O489 1.997 . S
Fe484 O490 2.002 . S
Fe484 O495 1.976 . S
Fe484 O498 1.996 . S
Fe485 O486 1.918 . S
Fe485 O493 1.997 . S
Fe485 O496 1.996 . S
Fe485 O500 1.976 . S
Fe485 O503 2.002 . S
O486 Fe484 1.918 . S
O486 Fe485 1.918 . S
O486 Fe487 1.918 . S
Fe487 O486 1.918 . S
Fe487 O488 2.002 . S
Fe487 O497 1.976 . S
Fe487 O501 1.996 . S
Fe487 O504 1.997 . S
O488 Fe487 2.002 . S
O488 C505 1.295 . S
O489 Fe484 1.997 . S
O489 C505 1.235 . S
O490 Fe484 2.002 . S
O490 C491 1.295 . S
C491 O490 1.295 . S
C491 O493 1.235 . S
C492 O497 1.287 . S
C492 O498 1.255 . S
O493 Fe485 1.997 . S
O493 C491 1.235 . S
C494 O500 1.287 . S
C494 O501 1.255 . S
O495 Fe484 1.976 . S
O495 C502 1.287 . S
O496 Fe485 1.996 . S
O496 C502 1.255 . S
O497 Fe487 1.976 . S
O497 C492 1.287 . S
O498 Fe484 1.996 . S
O498 C492 1.255 . S
C499 O503 1.295 . S
C499 O504 1.235 . S
O500 Fe485 1.976 . S
O500 C494 1.287 . S
O501 Fe487 1.996 . S
O501 C494 1.255 . S
C502 O495 1.287 . S
C502 O496 1.255 . S
O503 Fe485 2.002 . S
O503 C499 1.295 . S
O504 Fe487 1.997 . S
O504 C499 1.235 . S
C505 O488 1.295 . S
C505 O489 1.235 . S
Fe506 O508 1.918 . S
Fe506 O511 1.997 . S
Fe506 O512 2.002 . S
Fe506 O517 1.976 . S
Fe506 O520 1.996 . S
Fe507 O508 1.918 . S
Fe507 O515 1.997 . S
Fe507 O518 1.996 . S
Fe507 O522 1.976 1_565 S
Fe507 O525 2.002 1_565 S
O508 Fe506 1.918 . S
O508 Fe507 1.918 . S
O508 Fe509 1.918 1_565 S
Fe509 O508 1.918 1_545 S
Fe509 O510 2.002 1_545 S
Fe509 O519 1.976 1_545 S
Fe509 O523 1.996 . S
Fe509 O526 1.997 . S
O510 Fe509 2.002 1_565 S
O510 C527 1.295 . S
O511 Fe506 1.997 . S
O511 C527 1.235 . S
O512 Fe506 2.002 . S
O512 C513 1.295 . S
C513 O512 1.295 . S
C513 O515 1.235 . S
C514 O519 1.287 . S
C514 O520 1.255 . S
O515 Fe507 1.997 . S
O515 C513 1.235 . S
C516 O522 1.287 . S
C516 O523 1.255 . S
O517 Fe506 1.976 . S
O517 C524 1.287 . S
O518 Fe507 1.996 . S
O518 C524 1.255 . S
O519 Fe509 1.976 1_565 S
O519 C514 1.287 . S
O520 Fe506 1.996 . S
O520 C514 1.255 . S
C521 O525 1.295 . S
C521 O526 1.235 . S
O522 Fe507 1.976 1_545 S
O522 C516 1.287 . S
O523 Fe509 1.996 . S
O523 C516 1.255 . S
C524 O517 1.287 . S
C524 O518 1.255 . S
O525 Fe507 2.002 1_545 S
O525 C521 1.295 . S
O526 Fe509 1.997 . S
O526 C521 1.235 . S
C527 O510 1.295 . S
C527 O511 1.235 . S
Fe528 O530 1.918 . S
Fe528 O533 1.997 . S
Fe528 O534 2.002 . S
Fe528 O539 1.976 . S
Fe528 O542 1.996 . S
Fe529 O530 1.918 . S
Fe529 O537 1.997 . S
Fe529 O540 1.996 . S
Fe529 O544 1.976 . S
Fe529 O547 2.002 . S
O530 Fe528 1.918 . S
O530 Fe529 1.918 . S
O530 Fe531 1.918 . S
Fe531 O530 1.918 . S
Fe531 O532 2.002 . S
Fe531 O541 1.976 . S
Fe531 O545 1.996 . S
Fe531 O548 1.997 . S
O532 Fe531 2.002 . S
O532 C549 1.295 . S
O533 Fe528 1.997 . S
O533 C549 1.235 . S
O534 Fe528 2.002 . S
O534 C535 1.295 . S
C535 O534 1.295 . S
C535 O537 1.235 . S
C536 O541 1.287 . S
C536 O542 1.255 . S
O537 Fe529 1.997 . S
O537 C535 1.235 . S
C538 O544 1.287 . S
C538 O545 1.255 . S
O539 Fe528 1.976 . S
O539 C546 1.287 . S
O540 Fe529 1.996 . S
O540 C546 1.255 . S
O541 Fe531 1.976 . S
O541 C536 1.287 . S
O542 Fe528 1.996 . S
O542 C536 1.255 . S
C543 O547 1.295 . S
C543 O548 1.235 . S
O544 Fe529 1.976 . S
O544 C538 1.287 . S
O545 Fe531 1.996 . S
O545 C538 1.255 . S
C546 O539 1.287 . S
C546 O540 1.255 . S
O547 Fe529 2.002 . S
O547 C543 1.295 . S
O548 Fe531 1.997 . S
O548 C543 1.235 . S
C549 O532 1.295 . S
C549 O533 1.235 . S
Fe550 O552 1.918 . S
Fe550 O555 1.997 . S
Fe550 O556 2.002 . S
Fe550 O561 1.976 . S
Fe550 O564 1.996 . S
Fe551 O552 1.918 . S
Fe551 O559 1.997 . S
Fe551 O562 1.996 . S
Fe551 O566 1.976 . S
Fe551 O569 2.002 . S
O552 Fe550 1.918 . S
O552 Fe551 1.918 . S
O552 Fe553 1.918 . S
Fe553 O552 1.918 . S
Fe553 O554 2.002 . S
Fe553 O563 1.976 . S
Fe553 O567 1.996 . S
Fe553 O570 1.997 . S
O554 Fe553 2.002 . S
O554 C571 1.295 . S
O555 Fe550 1.997 . S
O555 C571 1.235 . S
O556 Fe550 2.002 . S
O556 C557 1.295 . S
C557 O556 1.295 . S
C557 O559 1.235 . S
C558 O563 1.287 . S
C558 O564 1.255 . S
O559 Fe551 1.997 . S
O559 C557 1.235 . S
C560 O566 1.287 . S
C560 O567 1.255 . S
O561 Fe550 1.976 . S
O561 C568 1.287 . S
O562 Fe551 1.996 . S
O562 C568 1.255 . S
O563 Fe553 1.976 . S
O563 C558 1.287 . S
O564 Fe550 1.996 . S
O564 C558 1.255 . S
C565 O569 1.295 . S
C565 O570 1.235 . S
O566 Fe551 1.976 . S
O566 C560 1.287 . S
O567 Fe553 1.996 . S
O567 C560 1.255 . S
C568 O561 1.287 . S
C568 O562 1.255 . S
O569 Fe551 2.002 . S
O569 C565 1.295 . S
O570 Fe553 1.997 . S
O570 C565 1.235 . S
C571 O554 1.295 . S
C571 O555 1.235 . S
Fe572 O574 1.915 1_554 S
Fe572 O577 2.002 . S
Fe572 O578 2.006 . S
Fe572 O583 1.971 1_554 S
Fe572 O586 1.993 1_554 S
Fe573 O574 1.918 . S
Fe573 O581 1.997 . S
Fe573 O584 1.996 . S
Fe573 O588 1.976 . S
Fe573 O591 2.002 . S
O574 Fe572 1.915 1_556 S
O574 Fe573 1.918 . S
O574 Fe575 1.918 . S
Fe575 O574 1.918 . S
Fe575 O576 2.002 1_556 S
Fe575 O585 1.976 . S
Fe575 O589 1.996 . S
Fe575 O592 1.997 . S
O576 Fe575 2.002 1_554 S
O576 C593 1.295 . S
O577 Fe572 2.002 . S
O577 C593 1.235 . S
O578 Fe572 2.006 . S
O578 C579 1.295 . S
C579 O578 1.295 . S
C579 O581 1.235 1_554 S
C580 O585 1.287 . S
C580 O586 1.255 . S
O581 Fe573 1.997 . S
O581 C579 1.235 1_556 S
C582 O588 1.287 . S
C582 O589 1.255 . S
O583 Fe572 1.971 1_556 S
O583 C590 1.287 . S
O584 Fe573 1.996 . S
O584 C590 1.255 . S
O585 Fe575 1.976 . S
O585 C580 1.287 . S
O586 Fe572 1.993 1_556 S
O586 C580 1.255 . S
C587 O591 1.295 . S
C587 O592 1.235 . S
O588 Fe573 1.976 . S
O588 C582 1.287 . S
O589 Fe575 1.996 . S
O589 C582 1.255 . S
C590 O583 1.287 . S
C590 O584 1.255 . S
O591 Fe573 2.002 . S
O591 C587 1.295 . S
O592 Fe575 1.997 . S
O592 C587 1.235 . S
C593 O576 1.295 . S
C593 O577 1.235 . S
Fe594 O596 1.918 . S
Fe594 O599 1.997 . S
Fe594 O600 2.002 . S
Fe594 O605 1.976 . S
Fe594 O608 1.996 . S
Fe595 O596 1.918 . S
Fe595 O603 1.997 . S
Fe595 O606 1.996 . S
Fe595 O610 1.976 . S
Fe595 O613 2.002 1_556 S
O596 Fe594 1.918 . S
O596 Fe595 1.918 . S
O596 Fe597 1.915 1_556 S
Fe597 O596 1.915 1_554 S
Fe597 O598 2.006 . S
Fe597 O607 1.971 1_554 S
Fe597 O611 1.993 1_554 S
Fe597 O614 2.002 . S
O598 Fe597 2.006 . S
O598 C615 1.295 . S
O599 Fe594 1.997 . S
O599 C615 1.235 1_556 S
O600 Fe594 2.002 . S
O600 C601 1.295 . S
C601 O600 1.295 . S
C601 O603 1.235 . S
C602 O607 1.287 . S
C602 O608 1.255 . S
O603 Fe595 1.997 . S
O603 C601 1.235 . S
C604 O610 1.287 . S
C604 O611 1.255 . S
O605 Fe594 1.976 . S
O605 C612 1.287 . S
O606 Fe595 1.996 . S
O606 C612 1.255 . S
O607 Fe597 1.971 1_556 S
O607 C602 1.287 . S
O608 Fe594 1.996 . S
O608 C602 1.255 . S
C609 O613 1.295 . S
C609 O614 1.235 . S
O610 Fe595 1.976 . S
O610 C604 1.287 . S
O611 Fe597 1.993 1_556 S
O611 C604 1.255 . S
C612 O605 1.287 . S
C612 O606 1.255 . S
O613 Fe595 2.002 1_554 S
O613 C609 1.295 . S
O614 Fe597 2.002 . S
O614 C609 1.235 . S
C615 O598 1.295 . S
C615 O599 1.235 1_554 S
Fe616 O618 1.918 . S
Fe616 O621 1.997 . S
Fe616 O622 2.002 . S
Fe616 O627 1.976 . S
Fe616 O630 1.996 . S
Fe617 O618 1.918 . S
Fe617 O625 1.997 . S
Fe617 O628 1.996 . S
Fe617 O632 1.976 . S
Fe617 O635 2.002 . S
O618 Fe616 1.918 . S
O618 Fe617 1.918 . S
O618 Fe619 1.918 . S
Fe619 O618 1.918 . S
Fe619 O620 2.002 . S
Fe619 O629 1.976 . S
Fe619 O633 1.996 . S
Fe619 O636 1.997 . S
O620 Fe619 2.002 . S
O620 C637 1.295 . S
O621 Fe616 1.997 . S
O621 C637 1.235 . S
O622 Fe616 2.002 . S
O622 C623 1.295 . S
C623 O622 1.295 . S
C623 O625 1.235 . S
C624 O629 1.287 . S
C624 O630 1.255 . S
O625 Fe617 1.997 . S
O625 C623 1.235 . S
C626 O632 1.287 . S
C626 O633 1.255 . S
O627 Fe616 1.976 . S
O627 C634 1.287 . S
O628 Fe617 1.996 . S
O628 C634 1.255 . S
O629 Fe619 1.976 . S
O629 C624 1.287 . S
O630 Fe616 1.996 . S
O630 C624 1.255 . S
C631 O635 1.295 . S
C631 O636 1.235 . S
O632 Fe617 1.976 . S
O632 C626 1.287 . S
O633 Fe619 1.996 . S
O633 C626 1.255 . S
C634 O627 1.287 . S
C634 O628 1.255 . S
O635 Fe617 2.002 . S
O635 C631 1.295 . S
O636 Fe619 1.997 . S
O636 C631 1.235 . S
C637 O620 1.295 . S
C637 O621 1.235 . S
Fe638 O640 1.918 . S
Fe638 O643 1.997 . S
Fe638 O644 2.002 . S
Fe638 O649 1.976 . S
Fe638 O652 1.996 . S
Fe639 O640 1.918 . S
Fe639 O647 1.997 . S
Fe639 O650 1.996 . S
Fe639 O654 1.976 . S
Fe639 O657 2.002 . S
O640 Fe638 1.918 . S
O640 Fe639 1.918 . S
O640 Fe641 1.918 . S
Fe641 O640 1.918 . S
Fe641 O642 2.002 . S
Fe641 O651 1.976 . S
Fe641 O655 1.996 . S
Fe641 O658 1.997 . S
O642 Fe641 2.002 . S
O642 C659 1.295 . S
O643 Fe638 1.997 . S
O643 C659 1.235 . S
O644 Fe638 2.002 . S
O644 C645 1.295 . S
C645 O644 1.295 . S
C645 O647 1.235 . S
C646 O651 1.287 . S
C646 O652 1.255 . S
O647 Fe639 1.997 . S
O647 C645 1.235 . S
C648 O654 1.287 . S
C648 O655 1.255 . S
O649 Fe638 1.976 . S
O649 C656 1.287 . S
O650 Fe639 1.996 . S
O650 C656 1.255 . S
O651 Fe641 1.976 . S
O651 C646 1.287 . S
O652 Fe638 1.996 . S
O652 C646 1.255 . S
C653 O657 1.295 . S
C653 O658 1.235 . S
O654 Fe639 1.976 . S
O654 C648 1.287 . S
O655 Fe641 1.996 . S
O655 C648 1.255 . S
C656 O649 1.287 . S
C656 O650 1.255 . S
O657 Fe639 2.002 . S
O657 C653 1.295 . S
O658 Fe641 1.997 . S
O658 C653 1.235 . S
C659 O642 1.295 . S
C659 O643 1.235 . S
Fe660 O662 1.918 . S
Fe660 O665 1.997 . S
Fe660 O666 2.002 . S
Fe660 O671 1.976 . S
Fe660 O674 1.996 . S
Fe661 O662 1.918 1_556 S
Fe661 O669 1.996 . S
Fe661 O672 1.996 1_556 S
Fe661 O676 1.976 1_556 S
Fe661 O679 2.002 . S
O662 Fe660 1.918 . S
O662 Fe661 1.918 1_554 S
O662 Fe663 1.918 . S
Fe663 O662 1.918 . S
Fe663 O664 2.002 . S
Fe663 O673 1.976 . S
Fe663 O677 1.996 . S
Fe663 O680 1.997 1_554 S
O664 Fe663 2.002 . S
O664 C681 1.295 . S
O665 Fe660 1.997 . S
O665 C681 1.235 . S
O666 Fe660 2.002 . S
O666 C667 1.295 1_554 S
C667 O666 1.295 1_556 S
C667 O669 1.235 . S
C668 O673 1.287 . S
C668 O674 1.255 . S
O669 Fe661 1.996 . S
O669 C667 1.235 . S
C670 O676 1.287 . S
C670 O677 1.255 . S
O671 Fe660 1.976 . S
O671 C678 1.287 . S
O672 Fe661 1.996 1_554 S
O672 C678 1.255 . S
O673 Fe663 1.976 . S
O673 C668 1.287 . S
O674 Fe660 1.996 . S
O674 C668 1.255 . S
C675 O679 1.295 . S
C675 O680 1.235 . S
O676 Fe661 1.976 1_554 S
O676 C670 1.287 . S
O677 Fe663 1.996 . S
O677 C670 1.255 . S
C678 O671 1.287 . S
C678 O672 1.255 . S
O679 Fe661 2.002 . S
O679 C675 1.295 . S
O680 Fe663 1.997 1_556 S
O680 C675 1.235 . S
C681 O664 1.295 . S
C681 O665 1.235 . S
Fe682 O684 1.918 1_556 S
Fe682 O687 1.996 . S
Fe682 O688 2.002 . S
Fe682 O693 1.976 1_556 S
Fe682 O696 1.996 1_556 S
Fe683 O684 1.918 . S
Fe683 O691 1.997 1_554 S
Fe683 O694 1.996 . S
Fe683 O698 1.976 . S
Fe683 O701 2.002 . S
O684 Fe682 1.918 1_554 S
O684 Fe683 1.918 . S
O684 Fe685 1.918 . S
Fe685 O684 1.918 . S
Fe685 O686 2.002 . S
Fe685 O695 1.976 . S
Fe685 O699 1.996 . S
Fe685 O702 1.997 . S
O686 Fe685 2.002 . S
O686 C703 1.295 1_554 S
O687 Fe682 1.996 . S
O687 C703 1.235 . S
O688 Fe682 2.002 . S
O688 C689 1.295 . S
C689 O688 1.295 . S
C689 O691 1.235 . S
C690 O695 1.287 . S
C690 O696 1.255 . S
O691 Fe683 1.997 1_556 S
O691 C689 1.235 . S
C692 O698 1.287 . S
C692 O699 1.255 . S
O693 Fe682 1.976 1_554 S
O693 C700 1.287 . S
O694 Fe683 1.996 . S
O694 C700 1.255 . S
O695 Fe685 1.976 . S
O695 C690 1.287 . S
O696 Fe682 1.996 1_554 S
O696 C690 1.255 . S
C697 O701 1.295 . S
C697 O702 1.235 . S
O698 Fe683 1.976 . S
O698 C692 1.287 . S
O699 Fe685 1.996 . S
O699 C692 1.255 . S
C700 O693 1.287 . S
C700 O694 1.255 . S
O701 Fe683 2.002 . S
O701 C697 1.295 . S
O702 Fe685 1.997 . S
O702 C697 1.235 . S
C703 O686 1.295 1_556 S
C703 O687 1.235 . S
C238 C10 1.428 . S
C32 C250 1.428 . S
C186 C52 1.428 . S
C74 C208 1.428 . S
C326 C98 1.434 . S
C338 C128 1.434 . S
C272 C150 1.434 . S
C294 C164 1.434 . S
C590 C362 1.428 . S
C602 C382 1.428 . S
C538 C404 1.428 . S
C560 C426 1.428 . S
C678 C450 1.434 . S
C470 C690 1.434 . S
C492 C626 1.434 . S
C646 C516 1.434 . S
C59 C7 1.674 . S
C29 C81 1.674 . S
C109 C147 1.622 . S
C175 C125 1.622 . S
C183 C241 1.674 . S
C257 C205 1.674 . S
C271 C323 1.622 . S
C337 C293 1.622 . S
C411 C359 1.674 . S
C389 C433 1.674 . S
C491 C461 1.622 . S
C469 C527 1.622 . S
C535 C593 1.674 . S
C557 C609 1.674 . S
C637 C675 1.622 . S
C645 C689 1.622 . S
C140 C15 1.982 1_655 S
C692 C37 1.982 . S
C274 C65 1.982 1_655 S
C472 C87 1.982 . S
C103 C62 2.008 1_655 S
C117 C612 2.008 . S
C139 C184 2.008 1_655 S
C392 C169 2.008 . S
C191 C316 1.982 1_455 S
C524 C213 1.982 . S
C227 C106 1.982 1_455 S
C263 C648 1.982 . S
C230 C285 2.008 1_455 S
C307 C436 2.008 . S
C8 C315 2.008 1_455 S
C558 C351 2.008 . S
C367 C494 1.982 . S
C340 C395 1.982 . S
C417 C634 1.982 . S
C118 C439 1.982 . S
C455 C414 2.008 . S
C483 C260 2.008 . S
C536 C505 2.008 . S
C30 C521 2.008 . S
C543 C668 1.982 . S
C565 C172 1.982 . S
C458 C579 1.982 . S
C615 C296 1.982 . S
C582 C631 2.008 . S
C659 C84 2.008 . S
C360 C667 2.008 . S
C703 C206 2.008 . S
C18 C40 1.752 . S
C76 C54 1.752 . S
C120 C96 1.695 . S
C142 C162 1.695 . S
C194 C216 1.752 . S
C228 C252 1.752 . S
C282 C304 1.695 . S
C348 C318 1.695 . S
C370 C384 1.752 . S
C406 C428 1.752 . S
C448 C480 1.695 . S
C514 C502 1.695 . S
C546 C568 1.752 . S
C580 C604 1.752 . S
C624 C656 1.695 . S
C700 C670 1.695 . S
C279 C21 1.815 1_455 S
C43 C477 1.815 1_545 S
C153 C51 1.815 1_464 S
C697 C73 1.815 1_554 S
C95 C197 1.815 1_455 S
C131 C381 1.815 1_565 S
C161 C601 1.815 1_554 S
C653 C219 1.815 . S
C329 C235 1.815 1_455 S
C513 C249 1.815 . S
C301 C571 1.815 . S
C345 C425 1.815 . S
C623 C373 1.815 . S
C403 C499 1.815 1_545 S
C549 C447 1.815 . S
C587 C681 1.815 1_556 S
