# Generated by pormake.
# Topology wkj, (6)-cn, num edge types: 1
# Building blocks:
#     Node 0, Type 0, BuildingBlock: BETGAK_clean_sbu_0, # of connection points: 6
#     Node 1, Type 0, BuildingBlock: BETGAK_clean_sbu_0, # of connection points: 6
#     Node 2, Type 0, BuildingBlock: BETGAK_clean_sbu_0, # of connection points: 6
#     Node 3, Type 0, BuildingBlock: BETGAK_clean_sbu_0, # of connection points: 6
#     Node 4, Type 0, BuildingBlock: BETGAK_clean_sbu_0, # of connection points: 6
#     Node 5, Type 0, BuildingBlock: BETGAK_clean_sbu_0, # of connection points: 6
#     Node 6, Type 0, BuildingBlock: BETGAK_clean_sbu_0, # of connection points: 6
#     Node 7, Type 0, BuildingBlock: BETGAK_clean_sbu_0, # of connection points: 6
#     Node 8, Type 0, BuildingBlock: BETGAK_clean_sbu_0, # of connection points: 6
#     Node 9, Type 0, BuildingBlock: BETGAK_clean_sbu_0, # of connection points: 6
#     Node 10, Type 0, BuildingBlock: BETGAK_clean_sbu_0, # of connection points: 6
#     Node 11, Type 0, BuildingBlock: BETGAK_clean_sbu_0, # of connection points: 6
#     Edge 12, Type (0, 0), BuildingBlock: XUDNAN_clean_linker_2, # of connection points: 2
#     Edge 13, Type (0, 0), BuildingBlock: XUDNAN_clean_linker_2, # of connection points: 2
#     Edge 14, Type (0, 0), BuildingBlock: XUDNAN_clean_linker_2, # of connection points: 2
#     Edge 15, Type (0, 0), BuildingBlock: XUDNAN_clean_linker_2, # of connection points: 2
#     Edge 16, Type (0, 0), BuildingBlock: XUDNAN_clean_linker_2, # of connection points: 2
#     Edge 17, Type (0, 0), BuildingBlock: XUDNAN_clean_linker_2, # of connection points: 2
#     Edge 18, Type (0, 0), BuildingBlock: XUDNAN_clean_linker_2, # of connection points: 2
#     Edge 19, Type (0, 0), BuildingBlock: XUDNAN_clean_linker_2, # of connection points: 2
#     Edge 20, Type (0, 0), BuildingBlock: XUDNAN_clean_linker_2, # of connection points: 2
#     Edge 21, Type (0, 0), BuildingBlock: XUDNAN_clean_linker_2, # of connection points: 2
#     Edge 22, Type (0, 0), BuildingBlock: XUDNAN_clean_linker_2, # of connection points: 2
#     Edge 23, Type (0, 0), BuildingBlock: XUDNAN_clean_linker_2, # of connection points: 2
#     Edge 24, Type (0, 0), BuildingBlock: XUDNAN_clean_linker_2, # of connection points: 2
#     Edge 25, Type (0, 0), BuildingBlock: XUDNAN_clean_linker_2, # of connection points: 2
#     Edge 26, Type (0, 0), BuildingBlock: XUDNAN_clean_linker_2, # of connection points: 2
#     Edge 27, Type (0, 0), BuildingBlock: XUDNAN_clean_linker_2, # of connection points: 2
#     Edge 28, Type (0, 0), BuildingBlock: XUDNAN_clean_linker_2, # of connection points: 2
#     Edge 29, Type (0, 0), BuildingBlock: XUDNAN_clean_linker_2, # of connection points: 2
#     Edge 30, Type (0, 0), BuildingBlock: XUDNAN_clean_linker_2, # of connection points: 2
#     Edge 31, Type (0, 0), BuildingBlock: XUDNAN_clean_linker_2, # of connection points: 2
#     Edge 32, Type (0, 0), BuildingBlock: XUDNAN_clean_linker_2, # of connection points: 2
#     Edge 33, Type (0, 0), BuildingBlock: XUDNAN_clean_linker_2, # of connection points: 2
#     Edge 34, Type (0, 0), BuildingBlock: XUDNAN_clean_linker_2, # of connection points: 2
#     Edge 35, Type (0, 0), BuildingBlock: XUDNAN_clean_linker_2, # of connection points: 2
#     Edge 36, Type (0, 0), BuildingBlock: XUDNAN_clean_linker_2, # of connection points: 2
#     Edge 37, Type (0, 0), BuildingBlock: XUDNAN_clean_linker_2, # of connection points: 2
#     Edge 38, Type (0, 0), BuildingBlock: XUDNAN_clean_linker_2, # of connection points: 2
#     Edge 39, Type (0, 0), BuildingBlock: XUDNAN_clean_linker_2, # of connection points: 2
#     Edge 40, Type (0, 0), BuildingBlock: XUDNAN_clean_linker_2, # of connection points: 2
#     Edge 41, Type (0, 0), BuildingBlock: XUDNAN_clean_linker_2, # of connection points: 2
#     Edge 42, Type (0, 0), BuildingBlock: XUDNAN_clean_linker_2, # of connection points: 2
#     Edge 43, Type (0, 0), BuildingBlock: XUDNAN_clean_linker_2, # of connection points: 2
#     Edge 44, Type (0, 0), BuildingBlock: XUDNAN_clean_linker_2, # of connection points: 2
#     Edge 45, Type (0, 0), BuildingBlock: XUDNAN_clean_linker_2, # of connection points: 2
#     Edge 46, Type (0, 0), BuildingBlock: XUDNAN_clean_linker_2, # of connection points: 2
#     Edge 47, Type (0, 0), BuildingBlock: XUDNAN_clean_linker_2, # of connection points: 2
# Relax obj value: 0.784
# Max RMSD: 0.176
# Mean RMSD: 0.176
data_MOF--net-wkj--node1-BETGAK_clean_sbu_0--edge1-XUDNAN_clean_linker_2
_symmetry_space_group_name_H-M    P1
_symmetry_Int_Tables_number       1
_symmetry_cell_setting            triclinic
loop_
_symmetry_equiv_pos_as_xyz
'x, y, z'
_cell_length_a     49.433539
_cell_length_b     49.476308
_cell_length_c     30.126413
_cell_angle_alpha  89.801324
_cell_angle_beta   90.247207
_cell_angle_gamma 119.97655
loop_
_atom_site_label
_atom_site_type_symbol
_atom_site_fract_x
_atom_site_fract_y
_atom_site_fract_z
_atom_type_partial_charge
La0 La 0.45718 0.07784 0.3819 0.0
La1 La 0.51639 0.09343 0.37105 0.0
C2 C 0.40126 0.062 0.39883 0.0
C3 C 0.37686 0.04877 0.43248 0.0
C4 C 0.35425 0.058 0.43317 0.0
C5 C 0.33012 0.04518 0.46419 0.0
C6 C 0.32823 0.02272 0.49443 0.0
C7 C 0.35094 0.01347 0.49344 0.0
C8 C 0.37514 0.02646 0.46273 0.0
C9 C 0.48697 0.13195 0.33376 0.0
C10 C 0.50236 0.10162 0.47413 0.0
C11 C 0.57498 0.12496 0.35964 0.0
C12 C 0.59441 0.15385 0.33495 0.0
C13 C 0.62424 0.17568 0.35072 0.0
C14 C 0.641 0.20513 0.33073 0.0
C15 C 0.62779 0.21312 0.29528 0.0
C16 C 0.59818 0.19078 0.27912 0.0
C17 C 0.58164 0.16152 0.29882 0.0
C18 C 0.48534 0.03569 0.40756 0.0
C19 C 0.47076 0.05087 0.29147 0.0
O20 O 0.42483 0.08983 0.40649 0.0
O21 O 0.40999 0.04334 0.38163 0.0
O22 O 0.46046 0.10784 0.3248 0.0
O23 O 0.49697 0.12415 0.36739 0.0
O24 O 0.47358 0.09129 0.45589 0.0
O25 O 0.52401 0.1041 0.44527 0.0
O26 O 0.55638 0.10031 0.33649 0.0
O27 O 0.56043 0.12836 0.39299 0.0
O28 O 0.50503 0.04444 0.37518 0.0
O29 O 0.48188 0.05876 0.41446 0.0
O30 O 0.49876 0.07579 0.30031 0.0
O31 O 0.45021 0.04411 0.32441 0.0
H32 H 0.35533 0.07519 0.40976 0.0
H33 H 0.3131 0.05287 0.46473 0.0
H34 H 0.35052 -0.00317 0.5173 0.0
H35 H 0.39251 0.01921 0.46274 0.0
H36 H 0.63421 0.17019 0.37905 0.0
H37 H 0.66394 0.22176 0.34332 0.0
H38 H 0.58774 0.19585 0.25095 0.0
H39 H 0.55847 0.1452 0.28656 0.0
La40 La 0.36775 0.46542 0.71438 0.0
La41 La 0.41217 0.52501 0.68827 0.0
C42 C 0.32978 0.41143 0.74263 0.0
C43 C 0.32471 0.38598 0.77244 0.0
C44 C 0.33098 0.39062 0.81801 0.0
C45 C 0.32375 0.36516 0.84547 0.0
C46 C 0.31034 0.33488 0.82763 0.0
C47 C 0.30472 0.33045 0.78193 0.0
C48 C 0.31168 0.35584 0.75458 0.0
C49 C 0.34016 0.4941 0.67219 0.0
C50 C 0.39979 0.51763 0.79598 0.0
C51 C 0.43495 0.57641 0.64767 0.0
C52 C 0.42873 0.60233 0.64456 0.0
C53 C 0.44223 0.62348 0.60974 0.0
C54 C 0.43116 0.64354 0.59869 0.0
C55 C 0.40607 0.64273 0.62219 0.0
C56 C 0.39503 0.62377 0.66036 0.0
C57 C 0.40627 0.60361 0.67141 0.0
C58 C 0.43866 0.50062 0.7343 0.0
C59 C 0.40338 0.46836 0.61936 0.0
O60 O 0.33242 0.43695 0.75945 0.0
O61 O 0.34915 0.41712 0.7101 0.0
O62 O 0.33466 0.46614 0.66626 0.0
O63 O 0.36236 0.50617 0.70052 0.0
O64 O 0.38335 0.48706 0.78494 0.0
O65 O 0.40991 0.53755 0.76113 0.0
O66 O 0.41295 0.54995 0.63156 0.0
O67 O 0.44571 0.57274 0.68542 0.0
O68 O 0.4508 0.53031 0.72775 0.0
O69 O 0.41631 0.48588 0.70741 0.0
O70 O 0.4184 0.49925 0.62802 0.0
O71 O 0.38238 0.45048 0.65037 0.0
H72 H 0.3412 0.41372 0.83238 0.0
H73 H 0.32892 0.36915 0.88061 0.0
H74 H 0.29456 0.30735 0.76756 0.0
H75 H 0.3066 0.35192 0.71939 0.0
H76 H 0.4597 0.62284 0.58883 0.0
H77 H 0.44044 0.65729 0.56887 0.0
H78 H 0.37619 0.62282 0.67976 0.0
H79 H 0.39597 0.58757 0.69897 0.0
La80 La 0.89386 0.38015 1.06085 0.0
La81 La 0.87029 0.41811 1.03013 0.0
C82 C 0.91707 0.34938 1.09476 0.0
C83 C 0.94675 0.35247 1.11007 0.0
C84 C 0.9576 0.33402 1.09017 0.0
C85 C 0.98411 0.33416 1.10664 0.0
C86 C 0.00033 0.35304 0.14297 0.0
C87 C 0.98993 0.37216 0.16203 0.0
C88 C 0.96321 0.37164 0.146 0.0
C89 C 0.83654 0.34583 1.02218 0.0
C90 C 0.87453 0.41463 0.14033 0.0
C91 C 0.8318 0.43085 0.99397 0.0
C92 C 0.80444 0.41248 0.96558 0.0
C93 C 0.80277 0.38846 0.93911 0.0
C94 C 0.77541 0.36877 0.91597 0.0
C95 C 0.74913 0.37264 0.91888 0.0
C96 C 0.75089 0.39676 0.9455 0.0
C97 C 0.77833 0.41643 0.96887 0.0
C98 C 0.92352 0.45243 1.06869 0.0
C99 C 0.91831 0.4094 0.96085 0.0
O100 O 0.90459 0.36263 1.11791 0.0
O101 O 0.91472 0.35263 1.05231 0.0
O102 O 0.85957 0.34092 1.01989 0.0
O103 O 0.84572 0.36919 1.04769 0.0
O104 O 0.88684 0.39644 1.13014 0.0
O105 O 0.86459 0.42448 1.10512 0.0
O106 O 0.85923 0.43897 0.97729 0.0
O107 O 0.82884 0.41973 1.03399 0.0
O108 O 0.90297 0.46105 1.06215 0.0
O109 O 0.91634 0.42826 1.04596 0.0
O110 O 0.89541 0.41671 0.96521 0.0
O111 O 0.92392 0.39743 0.99775 0.0
H112 H 0.94497 0.31875 1.06269 0.0
H113 H 0.9915 0.31901 1.09177 0.0
H114 H 0.0015 0.3863 0.19093 0.0
H115 H 0.95486 0.38535 0.16275 0.0
H116 H 0.82243 0.38457 0.93691 0.0
H117 H 0.77515 0.35092 0.89497 0.0
H118 H 0.73111 0.40042 0.94815 0.0
H119 H 0.77905 0.4345 0.98989 0.0
La120 La 0.52479 0.89405 0.37668 0.0
La121 La 0.47532 0.90169 0.36573 0.0
C122 C 0.57911 0.90134 0.38279 0.0
C123 C 0.60051 0.9071 0.42035 0.0
C124 C 0.60506 0.88301 0.43664 0.0
C125 C 0.62105 0.88674 0.4766 0.0
C126 C 0.63281 0.91468 0.50066 0.0
C127 C 0.63025 0.93952 0.48232 0.0
C128 C 0.61444 0.93583 0.44258 0.0
C129 C 0.47996 0.83894 0.35155 0.0
C130 C 0.48406 0.88833 0.47029 0.0
C131 C 0.41749 0.88302 0.36385 0.0
C132 C 0.39033 0.85861 0.33945 0.0
C133 C 0.38816 0.85908 0.293 0.0
C134 C 0.36608 0.83243 0.2704 0.0
C135 C 0.34625 0.80489 0.29385 0.0
C136 C 0.34685 0.80519 0.3403 0.0
C137 C 0.3684 0.83201 0.36293 0.0
C138 C 0.52705 0.95128 0.39764 0.0
C139 C 0.51881 0.93223 0.284 0.0
O140 O 0.5537 0.8742 0.38221 0.0
O141 O 0.57327 0.92365 0.37314 0.0
O142 O 0.49597 0.84508 0.38758 0.0
O143 O 0.48503 0.86537 0.33474 0.0
O144 O 0.50872 0.88735 0.45165 0.0
O145 O 0.46761 0.89495 0.44121 0.0
O146 O 0.43827 0.90777 0.34233 0.0
O147 O 0.43068 0.87189 0.39003 0.0
O148 O 0.50678 0.954 0.37314 0.0
O149 O 0.51458 0.92345 0.40697 0.0
O150 O 0.49149 0.9258 0.30057 0.0
O151 O 0.53438 0.92056 0.30764 0.0
H152 H 0.59492 0.86077 0.41966 0.0
H153 H 0.62288 0.86731 0.48972 0.0
H154 H 0.63842 0.96122 0.50014 0.0
H155 H 0.61169 0.95503 0.43075 0.0
H156 H 0.40468 0.87921 0.274 0.0
H157 H 0.36625 0.83255 0.23443 0.0
H158 H 0.33193 0.78417 0.35894 0.0
H159 H 0.36949 0.83118 0.39881 0.0
La160 La 0.60018 0.51868 0.72278 0.0
La161 La 0.57305 0.45777 0.68719 0.0
C162 C 0.61946 0.57092 0.75937 0.0
C163 C 0.64763 0.59505 0.78184 0.0
C164 C 0.65995 0.6263 0.76911 0.0
C165 C 0.68264 0.6502 0.79522 0.0
C166 C 0.69292 0.64313 0.83486 0.0
C167 C 0.68295 0.6117 0.8448 0.0
C168 C 0.66048 0.58783 0.81848 0.0
C169 C 0.64382 0.50493 0.68988 0.0
C170 C 0.57615 0.4633 0.79903 0.0
C171 C 0.5715 0.41242 0.64647 0.0
C172 C 0.59492 0.40419 0.63154 0.0
C173 C 0.617 0.42217 0.59916 0.0
C174 C 0.63748 0.41305 0.58276 0.0
C175 C 0.63646 0.38561 0.5981 0.0
C176 C 0.61542 0.36847 0.63221 0.0
C177 C 0.5948 0.37768 0.64873 0.0
C178 C 0.52931 0.46316 0.72401 0.0
C179 C 0.57051 0.51203 0.622 0.0
O180 O 0.6219 0.56746 0.71697 0.0
O181 O 0.60326 0.54421 0.77981 0.0
O182 O 0.64512 0.53156 0.68816 0.0
O183 O 0.61929 0.48767 0.71168 0.0
O184 O 0.58892 0.49396 0.79063 0.0
O185 O 0.56992 0.44485 0.76259 0.0
O186 O 0.5717 0.43611 0.6269 0.0
O187 O 0.56769 0.41277 0.68917 0.0
O188 O 0.52583 0.43692 0.70983 0.0
O189 O 0.55328 0.4854 0.70552 0.0
O190 O 0.56967 0.48419 0.62407 0.0
O191 O 0.57828 0.52773 0.66072 0.0
H192 H 0.65061 0.6323 0.74053 0.0
H193 H 0.69017 0.67418 0.78642 0.0
H194 H 0.69012 0.60529 0.87521 0.0
H195 H 0.65172 0.56385 0.82858 0.0
H196 H 0.61801 0.44292 0.58545 0.0
H197 H 0.65276 0.42663 0.55588 0.0
H198 H 0.61401 0.34726 0.64476 0.0
H199 H 0.57811 0.36355 0.67398 0.0
La200 La 0.09206 0.61112 1.05846 0.0
La201 La 0.11756 0.57511 1.02931 0.0
C202 C 0.07034 0.64308 1.09166 0.0
C203 C 0.04241 0.64431 1.10345 0.0
C204 C 0.04598 0.66763 1.13283 0.0
C205 C 0.02018 0.66964 0.14607 0.0
C206 C 0.99018 0.6482 1.13024 0.0
C207 C 0.9868 0.62548 1.09923 0.0
C208 C 0.01291 0.62371 1.08557 0.0
C209 C 0.15005 0.64654 1.0213 0.0
C210 C 0.11431 0.57969 0.13899 0.0
C211 C 0.15657 0.56342 0.99318 0.0
C212 C 0.18151 0.58017 0.96067 0.0
C213 C 0.1799 0.60104 0.93072 0.0
C214 C 0.20463 0.61853 0.90192 0.0
C215 C 0.23169 0.61579 0.90279 0.0
C216 C 0.23341 0.59527 0.93358 0.0
C217 C 0.2085 0.57764 0.96233 0.0
C218 C 0.06529 0.53894 1.0691 0.0
C219 C 0.06788 0.58158 0.95988 0.0
O220 O 0.07714 0.62499 1.11503 0.0
O221 O 0.07551 0.64226 1.04953 0.0
O222 O 0.12635 0.65026 1.01641 0.0
O223 O 0.14083 0.62351 1.04747 0.0
O224 O 0.10076 0.59672 1.12826 0.0
O225 O 0.12471 0.57022 1.10421 0.0
O226 O 0.12778 0.55198 0.97924 0.0
O227 O 0.16125 0.57796 1.03085 0.0
O228 O 0.08672 0.53177 1.06146 0.0
O229 O 0.07076 0.56263 1.04583 0.0
O230 O 0.09357 0.57856 0.96442 0.0
O231 O 0.05977 0.59063 0.99726 0.0
H232 H 0.06873 0.68392 0.14644 0.0
H233 H 0.0236 0.6869 0.17083 0.0
H234 H 0.96391 0.60849 1.0869 0.0
H235 H 0.00998 0.60576 1.06235 0.0
H236 H 0.15953 0.60385 0.92962 0.0
H237 H 0.20203 0.63348 0.87803 0.0
H238 H 0.25389 0.59268 0.93523 0.0
H239 H 0.21037 0.56213 0.98605 0.0
La240 La 0.89961 0.52993 0.56981 0.0
La241 La 0.8787 0.46971 0.58963 0.0
C242 C 0.91623 0.58338 0.53876 0.0
C243 C 0.92147 0.59743 0.49467 0.0
C244 C 0.91212 0.61947 0.48643 0.0
C245 C 0.91093 0.6288 0.44307 0.0
C246 C 0.91911 0.61617 0.40737 0.0
C247 C 0.92997 0.59521 0.41613 0.0
C248 C 0.93088 0.58571 0.45942 0.0
C249 C 0.84502 0.50545 0.61666 0.0
C250 C 0.8796 0.48145 0.4811 0.0
C251 C 0.84218 0.41218 0.60499 0.0
C252 C 0.81088 0.39481 0.62454 0.0
C253 C 0.78852 0.36583 0.60702 0.0
C254 C 0.75837 0.34976 0.62494 0.0
C255 C 0.75018 0.36273 0.66026 0.0
C256 C 0.7727 0.39205 0.67703 0.0
C257 C 0.80264 0.40785 0.65943 0.0
C258 C 0.93513 0.49215 0.55889 0.0
C259 C 0.92634 0.52079 0.66422 0.0
O260 O 0.88734 0.56192 0.54564 0.0
O261 O 0.93596 0.57502 0.5534 0.0
O262 O 0.87032 0.53134 0.6248 0.0
O263 O 0.85186 0.49305 0.58515 0.0
O264 O 0.88839 0.51042 0.49695 0.0
O265 O 0.87498 0.46055 0.51332 0.0
O266 O 0.86476 0.4308 0.63139 0.0
O267 O 0.84353 0.4257 0.56744 0.0
O268 O 0.92503 0.47569 0.59468 0.0
O269 O 0.91558 0.49989 0.54725 0.0
O270 O 0.90133 0.4919 0.65823 0.0
O271 O 0.93271 0.53942 0.62871 0.0
H272 H 0.90432 0.62834 0.51338 0.0
H273 H 0.90243 0.6449 0.43741 0.0
H274 H 0.93729 0.58571 0.38945 0.0
H275 H 0.93787 0.56842 0.46514 0.0
H276 H 0.79447 0.35559 0.57971 0.0
H277 H 0.74167 0.32709 0.61172 0.0
H278 H 0.76769 0.40245 0.70507 0.0
H279 H 0.81935 0.43035 0.67317 0.0
La280 La 0.38508 0.89596 0.8915 0.0
La281 La 0.42211 0.87004 0.91939 0.0
C282 C 0.3518 0.91817 0.8653 0.0
C283 C 0.34165 0.93172 0.83063 0.0
C284 C 0.32311 0.94446 0.84309 0.0
C285 C 0.30897 0.95358 0.8109 0.0
C286 C 0.31325 0.95005 0.76577 0.0
C287 C 0.33291 0.93831 0.75342 0.0
C288 C 0.34689 0.92899 0.78572 0.0
C289 C 0.35187 0.84098 0.93626 0.0
C290 C 0.41534 0.87413 0.80985 0.0
C291 C 0.43276 0.83001 0.95422 0.0
C292 C 0.41507 0.80737 0.98912 0.0
C293 C 0.4096 0.77667 0.98686 0.0
C294 C 0.38775 0.75357 1.01516 0.0
C295 C 0.37085 0.76098 1.04531 0.0
C296 C 0.37719 0.79199 1.04808 0.0
C297 C 0.39887 0.81483 1.0202 0.0
C298 C 0.45692 0.92185 0.87718 0.0
C299 C 0.41579 0.91856 0.99067 0.0
O300 O 0.34435 0.88906 0.86028 0.0
O301 O 0.37942 0.9352 0.883 0.0
O302 O 0.35035 0.86594 0.94196 0.0
O303 O 0.37271 0.84792 0.90689 0.0
O304 O 0.39929 0.88854 0.82123 0.0
O305 O 0.42431 0.86247 0.84401 0.0
O306 O 0.44758 0.85952 0.96566 0.0
O307 O 0.41669 0.82532 0.91777 0.0
O308 O 0.4643 0.90036 0.88343 0.0
O309 O 0.43383 0.91609 0.90167 0.0
O310 O 0.42247 0.89531 0.98523 0.0
O311 O 0.40304 0.92445 0.95512 0.0
H312 H 0.31868 0.94637 0.87782 0.0
H313 H 0.294 0.96254 0.82133 0.0
H314 H 0.33735 0.93617 0.7188 0.0
H315 H 0.3612 0.91915 0.77575 0.0
H316 H 0.42144 0.77039 0.96231 0.0
H317 H 0.38361 0.72996 1.01293 0.0
H318 H 0.36535 0.79875 1.07197 0.0
H319 H 0.40213 0.83813 1.022 0.0
La320 La 0.46594 0.36627 0.22504 0.0
La321 La 0.52808 0.40675 0.24971 0.0
C322 C 0.41043 0.33135 0.19862 0.0
C323 C 0.39206 0.31445 0.15998 0.0
C324 C 0.35981 0.29498 0.16503 0.0
C325 C 0.34155 0.27771 1.12918 0.0
C326 C 0.35539 0.2797 1.08782 0.0
C327 C 0.38797 0.29862 1.0833 0.0
C328 C 0.40624 0.3159 1.11926 0.0
C329 C 0.49232 0.33544 0.26402 0.0
C330 C 0.51626 0.39594 0.1407 0.0
C331 C 0.57982 0.42604 0.28931 0.0
C332 C 0.60281 0.41711 0.30319 0.0
C333 C 0.62042 0.43122 0.34128 0.0
C334 C 0.63968 0.42103 0.35945 0.0
C335 C 0.64168 0.39623 0.34004 0.0
C336 C 0.62514 0.38306 0.30038 0.0
C337 C 0.60608 0.39375 0.28174 0.0
C338 C 0.50745 0.43885 0.21054 0.0
C339 C 0.47265 0.39947 0.32219 0.0
O340 O 0.42827 0.32136 0.21471 0.0
O341 O 0.42454 0.36175 0.1977 0.0
O342 O 0.46585 0.33301 0.27379 0.0
O343 O 0.50482 0.35715 0.23497 0.0
O344 O 0.48644 0.37803 0.15429 0.0
O345 O 0.53783 0.40775 0.17374 0.0
O346 O 0.55267 0.41127 0.30874 0.0
O347 O 0.57723 0.43023 0.24712 0.0
O348 O 0.53671 0.44917 0.21858 0.0
O349 O 0.49108 0.41516 0.23488 0.0
O350 O 0.5035 0.41198 0.31311 0.0
O351 O 0.45332 0.38099 0.29017 0.0
H352 H 0.34873 0.29333 0.19667 0.0
H353 H 0.31652 0.2634 1.13343 0.0
H354 H 0.39916 0.30113 1.05151 0.0
H355 H 0.43123 0.33059 1.1152 0.0
H356 H 0.61824 0.44934 0.35821 0.0
H357 H 0.65137 0.43129 0.39052 0.0
H358 H 0.62613 0.3639 0.28473 0.0
H359 H 0.59318 0.38315 0.25158 0.0
La360 La 0.08445 0.46107 0.56668 0.0
La361 La 0.09529 0.52084 0.583 0.0
C362 C 0.0726 0.40837 0.53757 0.0
C363 C 0.07393 0.39664 0.49358 0.0
C364 C 0.08448 0.37519 0.48924 0.0
C365 C 0.08864 0.36604 0.44714 0.0
C366 C 0.0826 0.37857 0.40899 0.0
C367 C 0.07157 0.39969 0.41367 0.0
C368 C 0.06734 0.40869 0.45554 0.0
C369 C 0.13964 0.49487 0.6077 0.0
C370 C 0.10449 0.51109 0.47926 0.0
C371 C 0.11983 0.57384 0.61919 0.0
C372 C 0.15136 0.60101 0.62052 0.0
C373 C 0.15882 0.62264 0.65463 0.0
C374 C 0.18995 0.64305 0.66556 0.0
C375 C 0.21432 0.64215 0.64251 0.0
C376 C 0.20656 0.62301 0.60463 0.0
C377 C 0.17525 0.60229 0.59402 0.0
C378 C 0.04397 0.48752 0.53865 0.0
C379 C 0.05132 0.46684 0.65902 0.0
O380 O 0.09958 0.42914 0.55343 0.0
O381 O 0.05147 0.41645 0.54355 0.0
O382 O 0.1175 0.46756 0.61928 0.0
O383 O 0.12887 0.50428 0.57601 0.0
O384 O 0.0942 0.48173 0.49471 0.0
O385 O 0.11035 0.53257 0.51059 0.0
O386 O 0.11745 0.54895 0.63813 0.0
O387 O 0.10491 0.56739 0.58139 0.0
O388 O 0.06013 0.51769 0.5365 0.0
O389 O 0.05382 0.4783 0.57046 0.0
O390 O 0.06401 0.49673 0.64491 0.0
O391 O 0.05661 0.44813 0.63222 0.0
H392 H 0.08994 0.36592 0.5184 0.0
H393 H 0.09694 0.34958 0.44438 0.0
H394 H 0.06583 0.40906 0.38488 0.0
H395 H 0.05918 0.42528 0.45808 0.0
H396 H 0.14062 0.62186 0.67547 0.0
H397 H 0.19441 0.65698 0.69519 0.0
H398 H 0.22456 0.62207 0.58549 0.0
H399 H 0.16979 0.58564 0.56742 0.0
La400 La 0.60481 0.09452 0.89043 0.0
La401 La 0.56687 0.11856 0.92209 0.0
C402 C 0.63412 0.0703 0.85598 0.0
C403 C 0.63026 0.04494 0.82656 0.0
C404 C 0.62752 0.04679 0.7804 0.0
C405 C 0.62886 0.02496 0.75274 0.0
C406 C 0.63287 0.00095 0.77079 0.0
C407 C 0.6339 -0.0019 0.81694 0.0
C408 C 0.63283 0.02008 0.84461 0.0
C409 C 0.63895 0.15005 0.93312 0.0
C410 C 0.57063 0.11525 0.81257 0.0
C411 C 0.55464 0.15703 0.95845 0.0
C412 C 0.57292 0.18259 0.98946 0.0
C413 C 0.5965 0.18221 1.01494 0.0
C414 C 0.61693 0.20826 1.03974 0.0
C415 C 0.6142 0.23524 1.03964 0.0
C416 C 0.59034 0.23548 1.01441 0.0
C417 C 0.56999 0.20937 0.98915 0.0
C418 C 0.53275 0.06575 0.88114 0.0
C419 C 0.57474 0.06922 0.98921 0.0
O420 O 0.6327 0.09379 0.83856 0.0
O421 O 0.62012 0.06202 0.89428 0.0
O422 O 0.64328 0.12655 0.93469 0.0
O423 O 0.61613 0.14212 0.90673 0.0
O424 O 0.58807 0.10205 0.82218 0.0
O425 O 0.5614 0.12563 0.84758 0.0
O426 O 0.54419 0.12857 0.97314 0.0
O427 O 0.56767 0.1612 0.91961 0.0
O428 O 0.52407 0.08624 0.88766 0.0
O429 O 0.55676 0.0732 0.90428 0.0
O430 O 0.56851 0.0929 0.98634 0.0
O431 O 0.58625 0.06376 0.95209 0.0
H432 H 0.62542 0.06563 0.76554 0.0
H433 H 0.62751 0.02725 0.71713 0.0
H434 H 0.637 0.97977 0.83149 0.0
H435 H 0.63522 0.01832 0.88012 0.0
H436 H 0.5996 0.16202 1.01483 0.0
H437 H 0.63454 0.207 1.05973 0.0
H438 H 0.5875 0.25581 1.01423 0.0
H439 H 0.55227 0.21023 0.96889 0.0
La440 La 0.50908 0.60978 0.22436 0.0
La441 La 0.44525 0.57543 0.24587 0.0
C442 C 0.56567 0.64079 0.20159 0.0
C443 C 0.58931 0.6502 0.16709 0.0
C444 C 0.62076 0.66742 0.17979 0.0
C445 C 0.64424 0.67887 0.14787 0.0
C446 C 0.63653 0.6733 1.10269 0.0
C447 C 0.60485 0.6557 1.0901 0.0
C448 C 0.58133 0.64424 1.12215 0.0
C449 C 0.48588 0.64497 0.25982 0.0
C450 C 0.46032 0.5816 0.13759 0.0
C451 C 0.39308 0.56506 0.27533 0.0
C452 C 0.38126 0.581 0.3039 0.0
C453 C 0.36044 0.56437 0.33818 0.0
C454 C 0.34964 0.57926 0.36639 0.0
C455 C 0.35937 0.61111 0.36072 0.0
C456 C 0.37925 0.62738 0.32514 0.0
C457 C 0.39011 0.61248 0.29705 0.0
C458 C 0.45983 0.53769 0.20944 0.0
C459 C 0.49778 0.57992 0.32358 0.0
O460 O 0.54586 0.6508 0.19777 0.0
O461 O 0.55256 0.61218 0.21639 0.0
O462 O 0.51089 0.64501 0.27252 0.0
O463 O 0.47391 0.62394 0.2305 0.0
O464 O 0.49005 0.59689 0.15279 0.0
O465 O 0.43792 0.57235 0.16908 0.0
O466 O 0.40985 0.55454 0.29431 0.0
O467 O 0.40491 0.57852 0.23744 0.0
O468 O 0.43144 0.53196 0.21425 0.0
O469 O 0.47831 0.56095 0.23319 0.0
O470 O 0.46854 0.57483 0.31417 0.0
O471 O 0.5181 0.59233 0.29013 0.0
H472 H 0.62715 0.67239 0.2145 0.0
H473 H 0.66837 0.69239 0.15848 0.0
H474 H 0.59825 0.65048 1.05552 0.0
H475 H 0.55708 0.63102 1.11195 0.0
H476 H 0.3531 0.54002 0.34382 0.0
H477 H 0.33491 0.56612 0.39398 0.0
H478 H 0.3871 0.65186 0.31974 0.0
H479 H 0.40578 0.62576 0.27043 0.0
H480 H 0.44624 0.15473 0.31433 0.0
H481 H 0.54458 0.18624 0.33058 0.0
H482 H 0.55728 0.24018 0.31142 0.0
H483 H 0.45114 0.20634 0.22508 0.0
H484 H 0.42163 0.21359 0.24755 0.0
H485 H 0.42059 0.17737 0.25951 0.0
H486 H 0.42066 0.18751 0.34365 0.0
H487 H 0.42158 0.2237 0.33192 0.0
H488 H 0.45117 0.2235 0.36687 0.0
H489 H 0.55897 0.29262 0.28545 0.0
H490 H 0.54898 0.33603 0.26805 0.0
H491 H 0.44967 0.2722 0.27822 0.0
C492 C 0.47054 0.17288 0.3135 0.0
C493 C 0.49447 0.1654 0.32294 0.0
C494 C 0.52575 0.19059 0.3226 0.0
C495 C 0.53318 0.22159 0.31171 0.0
C496 C 0.50913 0.22804 0.30223 0.0
C497 C 0.47832 0.2043 0.30413 0.0
C498 C 0.45661 0.21764 0.29599 0.0
C499 C 0.43629 0.20285 0.25457 0.0
C500 C 0.4363 0.21279 0.33705 0.0
C501 C 0.47976 0.25239 0.28842 0.0
C502 C 0.51004 0.25795 0.29141 0.0
C503 C 0.53522 0.28817 0.28374 0.0
C504 C 0.52939 0.31298 0.27359 0.0
C505 C 0.49865 0.30834 0.27185 0.0
C506 C 0.47362 0.2772 0.27951 0.0
H507 H 0.27691 0.45407 0.65733 0.0
H508 H 0.34394 0.55261 0.66763 0.0
H509 H 0.30178 0.56469 0.65037 0.0
H510 H 0.23029 0.45784 0.56821 0.0
H511 H 0.19381 0.42795 0.59098 0.0
H512 H 0.22942 0.42775 0.60312 0.0
H513 H 0.21936 0.42796 0.68728 0.0
H514 H 0.18362 0.42795 0.67539 0.0
H515 H 0.21304 0.45801 0.70997 0.0
H516 H 0.24901 0.56495 0.62681 0.0
H517 H 0.19474 0.55336 0.61031 0.0
H518 H 0.16258 0.45462 0.62144 0.0
C519 C 0.28297 0.47832 0.65605 0.0
C520 C 0.31447 0.50239 0.66391 0.0
C521 C 0.3205 0.53362 0.66205 0.0
C522 C 0.29644 0.54067 0.65192 0.0
C523 C 0.26575 0.51631 0.6441 0.0
C524 C 0.2591 0.48567 0.64687 0.0
C525 C 0.22429 0.46338 0.63903 0.0
C526 C 0.21916 0.44303 0.5979 0.0
C527 C 0.20919 0.44313 0.68038 0.0
C528 C 0.21209 0.48592 0.63104 0.0
C529 C 0.23626 0.51647 0.63341 0.0
C530 C 0.23016 0.541 0.6255 0.0
C531 C 0.19907 0.53422 0.61579 0.0
C532 C 0.17369 0.50305 0.61454 0.0
C533 C 0.18093 0.47883 0.62231 0.0
H534 H 0.81444 0.28361 1.00234 0.0
H535 H 0.78184 0.34959 1.01741 0.0
H536 H 0.72862 0.30854 0.99387 0.0
H537 H 0.76776 0.24101 0.90869 0.0
H538 H 0.76029 0.20358 0.92895 0.0
H539 H 0.79553 0.23851 0.94499 0.0
H540 H 0.78181 0.22474 1.02784 0.0
H541 H 0.74664 0.18966 1.01205 0.0
H542 H 0.74452 0.2175 1.04818 0.0
H543 H 0.67758 0.25789 0.96172 0.0
H544 H 0.63613 0.20505 0.93796 0.0
H545 H 0.70105 0.17112 0.95441 0.0
C546 C 0.79618 0.28962 1.00082 0.0
C547 C 0.80306 0.32056 1.01113 0.0
C548 C 0.77783 0.32659 1.00921 0.0
C549 C 0.74731 0.30317 0.99577 0.0
C550 C 0.74157 0.27307 0.98528 0.0
C551 C 0.76543 0.26625 0.98883 0.0
C552 C 0.75332 0.23188 0.97838 0.0
C553 C 0.77024 0.22856 0.93785 0.0
C554 C 0.75678 0.21495 1.01903 0.0
C555 C 0.71898 0.22016 0.9679 0.0
C556 C 0.71256 0.24429 0.97113 0.0
C557 C 0.68262 0.239 0.96019 0.0
C558 C 0.65896 0.20867 0.94666 0.0
C559 C 0.66454 0.18316 0.94512 0.0
C560 C 0.69534 0.18956 0.95584 0.0
H561 H 0.50936 0.69224 0.32423 0.0
H562 H 0.44871 0.66095 0.20916 0.0
H563 H 0.44015 0.7061 0.21696 0.0
H564 H 0.46358 0.7195 0.38581 0.0
H565 H 0.49779 0.75122 0.41101 0.0
H566 H 0.49787 0.71615 0.39523 0.0
H567 H 0.5473 0.75006 0.3472 0.0
H568 H 0.54633 0.78477 0.36221 0.0
H569 H 0.54568 0.77487 0.30455 0.0
H570 H 0.43972 0.75945 0.23872 0.0
H571 H 0.44573 0.80815 0.273 0.0
H572 H 0.50494 0.80184 0.37428 0.0
C573 C 0.49423 0.69476 0.30057 0.0
C574 C 0.47981 0.67239 0.26588 0.0
C575 C 0.46014 0.67722 0.23612 0.0
C576 C 0.45516 0.70313 0.2403 0.0
C577 C 0.46985 0.72478 0.27471 0.0
C578 C 0.48882 0.72046 0.30451 0.0
C579 C 0.50144 0.74626 0.33936 0.0
C580 C 0.48952 0.73245 0.38566 0.0
C581 C 0.53731 0.7651 0.33826 0.0
C582 C 0.48731 0.76614 0.32447 0.0
C583 C 0.46906 0.75373 0.28709 0.0
C584 C 0.45401 0.76894 0.26813 0.0
C585 C 0.45758 0.79692 0.28783 0.0
C586 C 0.4758 0.80978 0.32685 0.0
C587 C 0.49063 0.79347 0.34469 0.0
H588 H 0.70761 0.54769 0.67312 0.0
H589 H 0.64306 0.44869 0.68655 0.0
H590 H 0.68538 0.43781 0.66686 0.0
H591 H 0.75549 0.54526 0.5839 0.0
H592 H 0.79194 0.57513 0.60696 0.0
H593 H 0.75621 0.57503 0.61905 0.0
H594 H 0.76651 0.5744 0.70313 0.0
H595 H 0.80232 0.57462 0.69128 0.0
H596 H 0.77301 0.54429 0.7256 0.0
H597 H 0.73615 0.43805 0.63805 0.0
H598 H 0.78942 0.44929 0.61812 0.0
H599 H 0.82415 0.5479 0.63668 0.0
C600 C 0.70223 0.52365 0.67178 0.0
C601 C 0.671 0.49895 0.68018 0.0
C602 C 0.66599 0.46807 0.67909 0.0
C603 C 0.6902 0.46168 0.668 0.0
C604 C 0.72042 0.48641 0.65925 0.0
C605 C 0.72664 0.51689 0.66231 0.0
C606 C 0.76165 0.53934 0.65465 0.0
C607 C 0.76661 0.55991 0.61371 0.0
C608 C 0.77677 0.55935 0.69613 0.0
C609 C 0.7742 0.51698 0.6464 0.0
C610 C 0.74983 0.48648 0.64811 0.0
C611 C 0.75528 0.4619 0.63807 0.0
C612 C 0.78595 0.46847 0.62697 0.0
C613 C 0.81193 0.49931 0.62738 0.0
C614 C 0.80544 0.52385 0.63717 0.0
H615 H 0.2901 0.82193 0.95899 0.0
H616 H 0.35222 0.78483 0.94141 0.0
H617 H 0.30945 0.73234 0.96369 0.0
H618 H 0.24599 0.77403 1.05263 0.0
H619 H 0.20921 0.76899 1.03321 0.0
H620 H 0.24516 0.80353 1.01829 0.0
H621 H 0.23075 0.79211 0.93509 0.0
H622 H 0.19475 0.75759 0.94982 0.0
H623 H 0.22167 0.75479 0.91255 0.0
H624 H 0.25725 0.68191 0.99188 0.0
H625 H 0.20355 0.64139 1.01356 0.0
H626 H 0.17395 0.71009 1.00476 0.0
C627 C 0.29488 0.80283 0.95985 0.0
C628 C 0.32528 0.80824 0.94862 0.0
C629 C 0.32968 0.78197 0.94983 0.0
C630 C 0.30525 0.7518 0.96262 0.0
C631 C 0.27566 0.74738 0.97348 0.0
C632 C 0.27041 0.77233 0.97141 0.0
C633 C 0.23624 0.76141 0.98235 0.0
C634 C 0.23403 0.77798 1.0241 0.0
C635 C 0.21989 0.7668 0.94259 0.0
C636 C 0.22285 0.72652 0.99108 0.0
C637 C 0.24603 0.71883 0.9866 0.0
C638 C 0.23918 0.68805 0.99487 0.0
C639 C 0.20833 0.66492 1.00735 0.0
C640 C 0.18376 0.67184 1.01072 0.0
C641 C 0.19167 0.70343 1.00231 0.0
H642 H 0.5944 0.26282 1.0979 0.0
H643 H 0.67734 0.26331 1.05269 0.0
H644 H 0.70307 0.28527 1.12372 0.0
H645 H 0.6437 0.3319 0.19456 0.0
H646 H 0.6093 0.31206 0.22858 0.0
H647 H 0.60559 0.31691 0.16991 0.0
H648 H 0.56872 0.25761 0.16253 0.0
H649 H 0.57235 0.25283 0.22031 0.0
H650 H 0.58174 0.2312 0.18114 0.0
H651 H 0.70651 0.27616 0.20044 0.0
H652 H 0.68788 0.24161 0.2652 0.0
H653 H 0.60582 0.25106 0.27063 0.0
C654 C 0.61879 0.26992 1.10221 0.0
C655 C 0.63371 0.26087 1.07072 0.0
C656 C 0.66539 0.26973 1.07688 0.0
C657 C 0.68028 0.2825 1.11724 0.0
C658 C 0.66331 0.28667 0.15086 0.0
C659 C 0.63365 0.28234 0.14296 0.0
C660 C 0.61746 0.28094 0.18632 0.0
C661 C 0.61915 0.31232 0.19537 0.0
C662 C 0.58313 0.25398 0.18759 0.0
C663 C 0.63847 0.27626 0.2184 0.0
C664 C 0.66619 0.28245 0.19813 0.0
C665 C 0.68557 0.27241 0.21714 0.0
C666 C 0.67484 0.25266 0.25418 0.0
C667 C 0.64512 0.24341 0.2719 0.0
C668 C 0.62858 0.25805 0.25694 0.0
H669 H 0.39982 0.66752 0.39592 0.0
H670 H 0.30459 0.59165 0.40644 0.0
H671 H 0.30045 0.6104 0.48011 0.0
H672 H 0.42312 0.65856 0.4879 0.0
H673 H 0.44936 0.69886 0.50228 0.0
H674 H 0.43945 0.68816 0.4458 0.0
H675 H 0.42063 0.72894 0.44056 0.0
H676 H 0.42955 0.73822 0.49856 0.0
H677 H 0.39086 0.72603 0.47788 0.0
H678 H 0.31367 0.61979 0.55738 0.0
H679 H 0.34217 0.61779 0.62213 0.0
H680 H 0.42734 0.6952 0.57075 0.0
C681 C 0.3775 0.65611 0.41263 0.0
C682 C 0.35273 0.62797 0.39587 0.0
C683 C 0.32405 0.6131 0.41896 0.0
C684 C 0.32143 0.62385 0.46077 0.0
C685 C 0.34754 0.64978 0.47886 0.0
C686 C 0.37487 0.6664 0.45479 0.0
C687 C 0.40172 0.6883 0.48449 0.0
C688 C 0.42998 0.68311 0.47988 0.0
C689 C 0.41123 0.7224 0.4748 0.0
C690 C 0.38647 0.67817 0.52969 0.0
C691 C 0.3548 0.65677 0.52569 0.0
C692 C 0.33807 0.63726 0.56105 0.0
C693 C 0.35459 0.63639 0.5984 0.0
C694 C 0.3875 0.65537 0.60032 0.0
C695 C 0.40234 0.67968 0.56902 0.0
H696 H 0.71845 0.39392 0.86804 0.0
H697 H 0.71992 0.30983 0.90219 0.0
H698 H 0.69191 0.28523 0.83342 0.0
H699 H 0.64068 0.34653 0.78419 0.0
H700 H 0.65762 0.38106 0.74998 0.0
H701 H 0.65899 0.38453 0.80967 0.0
H702 H 0.71861 0.42033 0.80598 0.0
H703 H 0.7175 0.41697 0.74721 0.0
H704 H 0.7421 0.40666 0.77902 0.0
H705 H 0.69322 0.28224 0.75484 0.0
H706 H 0.72221 0.30153 0.68564 0.0
H707 H 0.71276 0.38352 0.69244 0.0
C708 C 0.71072 0.36957 0.86223 0.0
C709 C 0.72185 0.35401 0.88955 0.0
C710 C 0.71207 0.32237 0.88113 0.0
C711 C 0.69576 0.30809 0.84218 0.0
C712 C 0.6889 0.32553 0.81231 0.0
C713 C 0.69456 0.35522 0.823 0.0
C714 C 0.69198 0.3718 0.78208 0.0
C715 C 0.66044 0.37089 0.78145 0.0
C716 C 0.71923 0.40585 0.77836 0.0
C717 C 0.6926 0.35067 0.74623 0.0
C718 C 0.68804 0.32277 0.76418 0.0
C719 C 0.6957 0.30336 0.74022 0.0
C720 C 0.71221 0.31446 0.70044 0.0
C721 C 0.72046 0.34453 0.68487 0.0
C722 C 0.70689 0.36065 0.70474 0.0
H723 H 0.31344 0.75094 1.06477 0.0
H724 H 0.37939 0.72125 1.09908 0.0
H725 H 0.35603 0.70561 0.1729 0.0
H726 H 0.32937 0.79615 1.13739 0.0
H727 H 0.29247 0.79181 0.15456 0.0
H728 H 0.29599 0.77955 1.10052 0.0
H729 H 0.25005 0.72427 1.11621 0.0
H730 H 0.2462 0.73672 0.17091 0.0
H731 H 0.25077 0.70302 0.16449 0.0
H732 H 0.34683 0.71755 0.24594 0.0
H733 H 0.35627 0.75636 0.30327 0.0
H734 H 0.30307 0.7883 0.22801 0.0
C735 C 0.32139 0.73931 1.0874 0.0
C736 C 0.34843 0.73791 1.07714 0.0
C737 C 0.35862 0.72253 1.10641 0.0
C738 C 0.34537 0.71365 0.14871 0.0
C739 C 0.3224 0.72079 0.1612 0.0
C740 C 0.30984 0.7327 1.13073 0.0
C741 C 0.29371 0.74792 0.15403 0.0
C742 C 0.30359 0.78079 1.13555 0.0
C743 C 0.25807 0.7267 0.15127 0.0
C744 C 0.30513 0.74889 0.20105 0.0
C745 C 0.31871 0.73029 0.20531 0.0
C746 C 0.33544 0.73133 0.24336 0.0
C747 C 0.34081 0.75357 0.27587 0.0
C748 C 0.33022 0.77504 0.26959 0.0
C749 C 0.31067 0.77147 0.23333 0.0
H750 H 0.69694 0.42507 0.38479 0.0
H751 H 0.61815 0.33414 0.3562 0.0
H752 H 0.62832 0.31341 0.42401 0.0
H753 H 0.73989 0.39161 0.47015 0.0
H754 H 0.75156 0.4259 0.50347 0.0
H755 H 0.75263 0.42876 0.4437 0.0
H756 H 0.71828 0.45439 0.44689 0.0
H757 H 0.71718 0.45162 0.50577 0.0
H758 H 0.68103 0.43434 0.47477 0.0
H759 H 0.62667 0.30998 0.50276 0.0
H760 H 0.61359 0.32489 0.57298 0.0
H761 H 0.69483 0.41678 0.56225 0.0
C762 C 0.68323 0.40038 0.39192 0.0
C763 C 0.65647 0.38142 0.36604 0.0
C764 C 0.63885 0.3492 0.37544 0.0
C765 C 0.64455 0.3372 0.41429 0.0
C766 C 0.66803 0.35764 0.44329 0.0
C767 C 0.68819 0.38853 0.43162 0.0
C768 C 0.70572 0.40766 0.47205 0.0
C769 C 0.73944 0.41382 0.47235 0.0
C770 C 0.70539 0.43872 0.47503 0.0
C771 C 0.68698 0.3849 0.50868 0.0
C772 C 0.66725 0.35537 0.49153 0.0
C773 C 0.64262 0.33264 0.51667 0.0
C774 C 0.63532 0.34131 0.55709 0.0
C775 C 0.65271 0.37247 0.57204 0.0
C776 C 0.68098 0.39303 0.55054 0.0
H777 H 0.25405 0.67433 0.86883 0.0
H778 H 0.26254 0.59181 0.85677 0.0
H779 H 0.28631 0.60918 0.78373 0.0
H780 H 0.22014 0.66858 0.78357 0.0
H781 H 0.23768 0.70815 0.76322 0.0
H782 H 0.2403 0.70135 0.82071 0.0
H783 H 0.30039 0.73461 0.81743 0.0
H784 H 0.29793 0.74172 0.75916 0.0
H785 H 0.32183 0.72574 0.77742 0.0
H786 H 0.2838 0.61883 0.70692 0.0
H787 H 0.25216 0.61619 0.6435 0.0
H788 H 0.24599 0.69467 0.69406 0.0
C789 C 0.26234 0.66083 0.8513 0.0
C790 C 0.2559 0.63153 0.86799 0.0
C791 C 0.26731 0.61446 0.84495 0.0
C792 C 0.281 0.62431 0.80312 0.0
C793 C 0.28319 0.65127 0.78462 0.0
C794 C 0.27501 0.66998 0.80869 0.0
C795 C 0.27138 0.69255 0.77842 0.0
C796 C 0.24053 0.69253 0.78696 0.0
C797 C 0.29957 0.7256 0.78339 0.0
C798 C 0.27191 0.67899 0.73352 0.0
C799 C 0.28147 0.65706 0.73763 0.0
C800 C 0.27712 0.63647 0.70315 0.0
C801 C 0.25898 0.6352 0.66662 0.0
C802 C 0.24532 0.65443 0.66482 0.0
C803 C 0.25541 0.67912 0.6956 0.0
H804 H 0.41949 0.90968 1.09017 0.0
H805 H 0.43232 0.98091 0.99498 0.0
H806 H 0.44574 0.01854 1.05603 0.0
H807 H 0.38391 0.93679 0.17832 0.0
H808 H 0.40179 0.92822 0.22443 0.0
H809 H 0.39348 0.90621 0.17366 0.0
H810 H 0.45036 0.91994 0.1702 0.0
H811 H 0.4604 0.94381 0.21939 0.0
H812 H 0.48069 0.9601 0.16797 0.0
H813 H 0.46176 0.05282 1.13166 0.0
H814 H 0.474 0.07572 0.20695 0.0
H815 H 0.44749 0.98481 0.26155 0.0
C816 C 0.42518 0.93319 1.08159 0.0
C817 C 0.42457 0.94093 1.03445 0.0
C818 C 0.43213 0.97271 1.0284 0.0
C819 C 0.44 -0.00509 1.06395 0.0
C820 C 0.44015 0.98662 1.10885 0.0
C821 C 0.43251 0.95614 1.11793 0.0
C822 C 0.43375 0.95353 0.16994 0.0
C823 C 0.4013 0.92975 0.18764 0.0
C824 C 0.4577 0.94374 0.18273 0.0
C825 C 0.44394 0.98704 0.18844 0.0
C826 C 0.44734 0.00563 0.15201 0.0
C827 C 0.45821 0.0377 0.1597 0.0
C828 C 0.46546 0.05096 0.20379 0.0
C829 C 0.46182 0.03335 0.24335 0.0
C830 C 0.45049 0.00016 0.23404 0.0
H831 H 0.49666 0.44988 0.39205 0.0
H832 H 0.41348 0.3626 0.36104 0.0
H833 H 0.38813 0.3679 0.42851 0.0
H834 H 0.49244 0.44358 0.51452 0.0
H835 H 0.50333 0.4833 0.52475 0.0
H836 H 0.51683 0.47296 0.47549 0.0
H837 H 0.49214 0.49929 0.42724 0.0
H838 H 0.47407 0.50703 0.47467 0.0
H839 H 0.45087 0.48415 0.42935 0.0
H840 H 0.37036 0.38479 0.51039 0.0
H841 H 0.36448 0.4102 0.57758 0.0
H842 H 0.45644 0.48929 0.55531 0.0
C843 C 0.47322 0.43133 0.39918 0.0
C844 C 0.45829 0.40505 0.36816 0.0
C845 C 0.42691 0.38294 0.38163 0.0
C846 C 0.41185 0.38582 0.42127 0.0
C847 C 0.42713 0.41162 0.45049 0.0
C848 C 0.45726 0.43406 0.43914 0.0
C849 C 0.46764 0.46076 0.47375 0.0
C850 C 0.49694 0.46567 0.49835 0.0
C851 C 0.47184 0.48974 0.44975 0.0
C852 C 0.44041 0.45035 0.50742 0.0
C853 C 0.41683 0.42155 0.49344 0.0
C854 C 0.38938 0.40749 0.51983 0.0
C855 C 0.3861 0.42257 0.55925 0.0
C856 C 0.40937 0.45292 0.57489 0.0
C857 C 0.43721 0.46652 0.54674 0.0
H858 H 0.01849 0.48953 0.7191 0.0
H859 H 0.03521 0.412 0.70808 0.0
H860 H 0.00551 0.38966 0.77747 0.0
H861 H 0.02307 0.49102 0.84363 0.0
H862 H -0.0047 0.50395 0.84847 0.0
H863 H 0.01895 0.51218 0.7984 0.0
H864 H 0.96709 0.4861 0.75145 0.0
H865 H 0.94355 0.47629 0.80087 0.0
H866 H 0.93871 0.44619 0.76322 0.0
H867 H 0.97288 0.37625 0.85998 0.0
H868 H 0.94304 0.37307 0.92754 0.0
H869 H 0.94111 0.45559 0.8856 0.0
C870 C 0.016 0.46764 0.73055 0.0
C871 C 0.03079 0.45345 0.70476 0.0
C872 C 0.02538 0.4246 0.72432 0.0
C873 C 0.00796 0.41132 0.76504 0.0
C874 C -0.00603 0.42581 0.78898 0.0
C875 C -0.00237 0.45329 0.77142 0.0
C876 C 0.98092 0.46472 0.80379 0.0
C877 C 0.00594 0.49497 0.82482 0.0
C878 C 0.95616 0.46871 0.77844 0.0
C879 C 0.96565 0.43943 0.84091 0.0
C880 C 0.97457 0.41748 0.8326 0.0
C881 C 0.96591 0.39357 0.86484 0.0
C882 C 0.94846 0.39191 0.90447 0.0
C883 C 0.93769 0.41333 0.91478 0.0
C884 C 0.94721 0.4377 0.88074 0.0
H885 H 0.53472 -0.0042 0.2547 0.0
H886 H 0.5287 0.91175 0.20187 0.0
H887 H 0.54134 0.93603 1.12716 0.0
H888 H 0.50526 0.01846 0.15867 0.0
H889 H 0.53204 0.05963 0.16356 0.0
H890 H 0.52199 0.03488 0.21206 0.0
H891 H 0.58111 0.05514 0.22355 0.0
H892 H 0.59019 0.07843 0.17376 0.0
H893 H 0.60294 0.05025 0.17962 0.0
H894 H 0.55405 0.9709 1.05175 0.0
H895 H 0.56573 0.00917 0.99185 0.0
H896 H 0.56593 0.0744 1.08755 0.0
C897 C 0.53646 0.98236 0.22775 0.0
C898 C 0.53038 0.95065 0.23706 0.0
C899 C 0.53314 0.93542 0.19852 0.0
C900 C 0.54041 0.94942 0.15482 0.0
C901 C 0.54615 0.98012 0.14715 0.0
C902 C 0.54492 -0.00326 0.18318 0.0
C903 C 0.55306 0.02988 0.16561 0.0
C904 C 0.52651 0.03621 0.1758 0.0
C905 C 0.58363 0.05493 0.18693 0.0
C906 C 0.55713 0.0289 1.11415 0.0
C907 C 0.55351 -0.00012 1.10467 0.0
C908 C 0.55671 0.99338 1.06002 0.0
C909 C 0.56352 0.01593 1.02518 0.0
C910 C 0.56706 0.04622 1.03188 0.0
C911 C 0.56347 0.05211 1.07863 0.0
H912 H 0.5868 0.52342 0.52305 0.0
H913 H 0.52674 0.53206 0.61919 0.0
H914 H 0.50591 0.55128 0.56001 0.0
H915 H 0.59961 0.59851 0.46263 0.0
H916 H 0.60427 0.58626 0.40838 0.0
H917 H 0.61558 0.57296 0.45716 0.0
H918 H 0.5781 0.51433 0.43625 0.0
H919 H 0.57253 0.53057 0.38571 0.0
H920 H 0.53946 0.50343 0.41689 0.0
H921 H 0.48595 0.56701 0.4839 0.0
H922 H 0.4729 0.57728 0.40874 0.0
H923 H 0.54736 0.56539 0.35504 0.0
C924 C 0.56902 0.529 0.5322 0.0
C925 C 0.55863 0.52449 0.57911 0.0
C926 C 0.53588 0.53401 0.58602 0.0
C927 C 0.52361 0.54543 0.55145 0.0
C928 C 0.53393 0.54919 0.50679 0.0
C929 C 0.55668 0.54152 0.49708 0.0
C930 C 0.56503 0.55015 0.44637 0.0
C931 C 0.59809 0.57864 0.44344 0.0
C932 C 0.56366 0.52298 0.41997 0.0
C933 C 0.5407 0.55934 0.42792 0.0
C934 C 0.52403 0.56002 0.46432 0.0
C935 C 0.49981 0.567 0.4562 0.0
C936 C 0.49204 0.57266 0.41194 0.0
C937 C 0.50814 0.57274 0.37243 0.0
C938 C 0.53359 0.56606 0.38237 0.0
H939 H 0.00235 0.56565 0.93163 0.0
H940 H 0.08957 0.58262 0.87397 0.0
H941 H 0.06571 0.57357 0.79951 0.0
H942 H 0.94971 0.50414 0.86377 0.0
H943 H 0.92073 0.51486 0.85109 0.0
H944 H 0.94371 0.52858 0.90125 0.0
H945 H 0.96377 0.58516 0.88316 0.0
H946 H 0.93918 0.57309 0.8344 0.0
H947 H 0.98037 0.60046 0.82948 0.0
H948 H 0.03013 0.55937 0.7246 0.0
H949 H 0.99005 0.54148 0.66561 0.0
H950 H 0.92071 0.52762 0.76403 0.0
C951 C 0.01689 0.56784 0.90356 0.0
C952 C 0.04946 0.57555 0.91209 0.0
C953 C 0.06552 0.57723 0.87175 0.0
C954 C 0.05178 0.57225 0.82792 0.0
C955 C 0.02032 0.56452 0.82103 0.0
C956 C 0.00287 0.56219 0.85821 0.0
C957 C 0.96895 0.55215 0.84071 0.0
C958 C 0.9443 0.5232 0.86559 0.0
C959 C 0.96267 0.57931 0.84736 0.0
C960 C 0.96902 0.54571 0.78932 0.0
C961 C -0.00038 0.55461 0.7788 0.0
C962 C 0.00643 0.55263 0.73366 0.0
C963 C 0.98277 0.542 0.69929 0.0
C964 C 0.95043 0.53165 0.70694 0.0
C965 C 0.94422 0.53408 0.75436 0.0
H966 H 0.5058 0.05409 0.499 0.0
H967 H 0.46497 0.97357 0.43704 0.0
H968 H 0.49172 0.96037 0.49566 0.0
H969 H 0.55703 0.05885 0.40537 0.0
H970 H 0.59831 0.07822 0.41537 0.0
H971 H 0.57532 0.09371 0.43825 0.0
H972 H 0.59465 0.09494 0.51459 0.0
H973 H 0.61944 0.08118 0.49306 0.0
H974 H 0.594 0.06135 0.53872 0.0
H975 H 0.54573 0.96249 0.53862 0.0
H976 H 0.55022 0.9378 0.47154 0.0
H977 H 0.56262 0.01682 0.3949 0.0
C978 C 0.516 0.04557 0.4756 0.0
C979 C 0.49351 0.02344 0.44734 0.0
C980 C 0.48344 0.99196 0.45643 0.0
C981 C 0.49876 0.98466 0.4903 0.0
C982 C 0.52808 0.00863 0.50689 0.0
C983 C 0.53808 0.0395 0.49422 0.0
C984 C 0.57021 0.05283 0.47334 0.0
C985 C 0.57539 0.07188 0.43038 0.0
C986 C 0.59594 0.07369 0.507 0.0
C987 C 0.57058 0.02295 0.46687 0.0
C988 C 0.55545 0.00454 0.50374 0.0
C989 C 0.55327 0.9756 0.50792 0.0
C990 C 0.5542 0.96122 0.46902 0.0
C991 C 0.55118 0.97385 0.42827 0.0
C992 C 0.56343 0.00631 0.42601 0.0
H993 H 0.47529 0.53543 0.80044 0.0
H994 H 0.40628 0.44087 0.76863 0.0
H995 H 0.42165 0.42263 0.83447 0.0
H996 H 0.52638 0.54634 0.79155 0.0
H997 H 0.55553 0.55605 0.83389 0.0
H998 H 0.52521 0.56568 0.84124 0.0
H999 H 0.51074 0.53814 0.91504 0.0
H1000 H 0.5415 0.52887 0.9089 0.0
H1001 H 0.5024 0.49862 0.92115 0.0
H1002 H 0.46357 0.41133 0.84049 0.0
H1003 H 0.4894 0.41256 0.77178 0.0
H1004 H 0.5444 0.51274 0.77852 0.0
C1005 C 0.46369 0.51079 0.80814 0.0
C1006 C 0.4422 0.48915 0.77771 0.0
C1007 C 0.42481 0.45765 0.7898 0.0
C1008 C 0.43309 0.44747 0.82809 0.0
C1009 C 0.46169 0.46802 0.84884 0.0
C1010 C 0.47513 0.50038 0.84274 0.0
C1011 C 0.50983 0.516 0.85157 0.0
C1012 C 0.53037 0.5478 0.82799 0.0
C1013 C 0.51643 0.52056 0.90207 0.0
C1014 C 0.51401 0.48965 0.8349 0.0
C1015 C 0.48755 0.46144 0.84692 0.0
C1016 C 0.4826 0.43341 0.82892 0.0
C1017 C 0.49653 0.43444 0.78859 0.0
C1018 C 0.51754 0.46333 0.76884 0.0
C1019 C 0.52792 0.49079 0.79349 0.0
H1020 H 0.93322 0.49921 1.12233 0.0
H1021 H 0.95123 0.42297 1.10961 0.0
H1022 H 0.98405 0.44064 0.17601 0.0
H1023 H 0.98042 0.54852 1.11068 0.0
H1024 H -0.00181 0.57885 0.15193 0.0
H1025 H 0.95692 0.55183 0.15332 0.0
H1026 H 0.95997 0.53717 0.23291 0.0
H1027 H 0.00095 0.56609 0.23252 0.0
H1028 H 0.98837 0.52686 0.2502 0.0
H1029 H 0.03641 0.47842 0.19516 0.0
H1030 H 0.06664 0.49837 1.12782 0.0
H1031 H 0.03277 0.56295 1.11088 0.0
C1032 C 0.94401 0.48626 1.13469 0.0
C1033 C 0.94132 0.46089 1.11024 0.0
C1034 C 0.95415 0.44332 1.12711 0.0
C1035 C 0.9721 0.45293 0.16574 0.0
C1036 C 0.98089 0.48251 0.18316 0.0
C1037 C 0.96507 0.49813 0.17016 0.0
C1038 C 0.98602 0.53267 0.17736 0.0
C1039 C 0.98004 0.55415 0.14626 0.0
C1040 C 0.98375 0.54115 0.22607 0.0
C1041 C 0.01658 0.53344 0.16983 0.0
C1042 C 0.01402 0.50603 0.18769 0.0
C1043 C 0.03659 0.49788 0.17832 0.0
C1044 C 0.05279 0.50849 0.13876 0.0
C1045 C 0.04964 0.53046 1.11256 0.0
C1046 C 0.03389 0.54506 1.13015 0.0
H1047 H 0.00364 0.42557 0.53638 0.0
H1048 H 0.04835 0.50655 0.45259 0.0
H1049 H 0.00923 0.48 0.39584 0.0
H1050 H 0.92639 0.38541 0.42712 0.0
H1051 H 0.90048 0.36682 0.47292 0.0
H1052 H 0.93264 0.36011 0.46331 0.0
H1053 H 0.9521 0.37642 0.54327 0.0
H1054 H 0.91823 0.38035 0.55162 0.0
H1055 H 0.9562 0.41201 0.56566 0.0
H1056 H 0.97051 0.49353 0.41664 0.0
H1057 H 0.95978 0.51826 0.47916 0.0
H1058 H 0.92227 0.43235 0.55325 0.0
C1059 C 0.00478 0.43673 0.50499 0.0
C1060 C 0.02728 0.46833 0.49992 0.0
C1061 C 0.03059 0.48259 0.45832 0.0
C1062 C 0.00814 0.46722 0.42568 0.0
C1063 C 0.97956 0.44257 0.44005 0.0
C1064 C 0.97913 0.42347 0.47529 0.0
C1065 C 0.9462 0.40554 0.49319 0.0
C1066 C 0.92526 0.37796 0.46223 0.0
C1067 C 0.94313 0.39299 0.5413 0.0
C1068 C 0.93871 0.43138 0.48767 0.0
C1069 C 0.95466 0.4495 0.45086 0.0
C1070 C 0.95903 0.47969 0.44575 0.0
C1071 C 0.95429 0.49421 0.48209 0.0
C1072 C 0.94325 0.47797 0.52231 0.0
C1073 C 0.93297 0.44575 0.52353 0.0
H1074 H 0.42921 0.95163 0.83849 0.0
H1075 H 0.49929 0.92567 0.81732 0.0
H1076 H 0.51744 0.95871 0.75168 0.0
H1077 H 0.45936 -0.00121 0.69999 0.0
H1078 H 0.44442 0.0231 0.71925 0.0
H1079 H 0.4198 0.98121 0.71946 0.0
H1080 H 0.40797 0.98244 0.80184 0.0
H1081 H 0.43145 0.02418 0.79967 0.0
H1082 H 0.43922 0.0027 0.84115 0.0
H1083 H 0.55141 0.01202 0.77135 0.0
H1084 H 0.56549 0.04192 0.83983 0.0
H1085 H 0.48483 0.05309 0.82734 0.0
C1086 C 0.44782 0.95273 0.81863 0.0
C1087 C 0.4646 0.93868 0.83462 0.0
C1088 C 0.48753 0.93828 0.80753 0.0
C1089 C 0.49707 0.95602 0.76894 0.0
C1090 C 0.48591 0.97655 0.76091 0.0
C1091 C 0.45768 0.9709 0.7796 0.0
C1092 C 0.45453 -0.00055 0.77313 0.0
C1093 C 0.44399 0.0007 0.72514 0.0
C1094 C 0.43205 0.00235 0.80605 0.0
C1095 C 0.48868 0.02322 0.77896 0.0
C1096 C 0.50687 0.01029 0.76496 0.0
C1097 C 0.53698 0.02143 0.78243 0.0
C1098 C 0.54462 0.03777 0.82228 0.0
C1099 C 0.52518 0.0483 0.83939 0.0
C1100 C 0.49922 0.04405 0.81472 0.0
H1101 H 0.41943 0.48854 0.16315 0.0
H1102 H 0.51609 0.56109 0.16535 0.0
H1103 H 0.52652 0.53687 1.10212 0.0
H1104 H 0.41703 0.43881 0.18212 0.0
H1105 H 0.39862 0.40549 0.14568 0.0
H1106 H 0.3872 0.43469 0.14382 0.0
H1107 H 0.39675 0.44165 1.06261 0.0
H1108 H 0.40891 0.41294 1.06105 0.0
H1109 H 0.43372 0.45129 1.03853 0.0
H1110 H 0.53547 0.49572 1.08176 0.0
H1111 H 0.54738 0.47412 0.14592 0.0
H1112 H 0.44945 0.41711 0.17487 0.0
C1113 C 0.44266 0.49935 0.14916 0.0
C1114 C 0.46732 0.52558 0.16993 0.0
C1115 C 0.49714 0.54011 0.15099 0.0
C1116 C 0.50279 0.52672 1.11404 0.0
C1117 C 0.47948 0.49695 1.09979 0.0
C1118 C 0.44894 0.48401 1.11552 0.0
C1119 C 0.43242 0.44887 1.11202 0.0
C1120 C 0.40745 0.43097 0.14818 0.0
C1121 C 0.41718 0.43816 1.0658 0.0
C1122 C 0.46106 0.4455 1.11518 0.0
C1123 C 0.48604 0.47139 1.09463 0.0
C1124 C 0.51641 0.47711 1.09997 0.0
C1125 C 0.52306 0.46546 0.13777 0.0
C1126 C 0.49885 0.44529 0.16659 0.0
C1127 C 0.46778 0.43284 0.15293 0.0
H1128 H 0.28532 0.91863 0.69014 0.0
H1129 H 0.30742 0.00222 0.76369 0.0
H1130 H 0.29169 0.02212 0.69966 0.0
H1131 H 0.32253 0.95212 0.60347 0.0
H1132 H 0.29671 0.92569 0.56165 0.0
H1133 H 0.29525 0.91191 0.61686 0.0
H1134 H 0.23618 0.89359 0.62063 0.0
H1135 H 0.23766 0.90771 0.56488 0.0
H1136 H 0.22285 0.92084 0.60942 0.0
H1137 H 0.29281 0.04081 0.62533 0.0
H1138 H 0.31456 0.05721 0.55052 0.0
H1139 H 0.29193 0.9628 0.52054 0.0
C1140 C 0.28571 0.94062 0.69303 0.0
C1141 C 0.29775 0.95901 0.73144 0.0
C1142 C 0.29795 0.98759 0.73461 0.0
C1143 C 0.28883 -0.00102 0.69838 0.0
C1144 C 0.27931 0.98139 0.65944 0.0
C1145 C 0.2772 0.95243 0.6568 0.0
C1146 C 0.2738 0.94147 0.60925 0.0
C1147 C 0.29857 0.93236 0.59716 0.0
C1148 C 0.24064 0.9143 0.60054 0.0
C1149 C 0.2791 0.97064 0.58535 0.0
C1150 C 0.2802 0.99267 0.61477 0.0
C1151 C 0.29091 0.02349 0.60176 0.0
C1152 C 0.30324 0.03267 0.55909 0.0
C1153 C 0.30497 0.01111 0.53036 0.0
C1154 C 0.29048 0.9794 0.54229 0.0
H1155 H 0.30538 0.28462 1.0651 0.0
H1156 H 0.3632 0.24749 1.01986 0.0
H1157 H 0.34098 0.24114 0.94473 0.0
H1158 H 0.2377 0.24228 0.97539 0.0
H1159 H 0.23492 0.2772 0.97225 0.0
H1160 H 0.24322 0.26507 1.02466 0.0
H1161 H 0.29264 0.3194 1.03301 0.0
H1162 H 0.28497 0.33147 0.98089 0.0
H1163 H 0.32195 0.33336 0.99008 0.0
H1164 H 0.3287 0.25624 0.87414 0.0
H1165 H 0.32824 0.29142 0.81643 0.0
H1166 H 0.27873 0.32017 0.90508 0.0
C1167 C 0.31173 0.27324 1.03996 0.0
C1168 C 0.33575 0.26639 1.04798 0.0
C1169 C 0.34468 0.25277 1.01415 0.0
C1170 C 0.33194 0.24884 0.9715 0.0
C1171 C 0.31026 0.25855 0.96342 0.0
C1172 C 0.29969 0.26993 0.99712 0.0
C1173 C 0.28269 0.28589 0.97877 0.0
C1174 C 0.24754 0.26643 0.98832 0.0
C1175 C 0.29645 0.31948 0.99671 0.0
C1176 C 0.28909 0.28549 0.92989 0.0
C1177 C 0.30344 0.26812 0.92137 0.0
C1178 C 0.31645 0.26889 0.88002 0.0
C1179 C 0.31622 0.28902 0.84744 0.0
C1180 C 0.30352 0.30836 0.85686 0.0
C1181 C 0.28834 0.30528 0.89748 0.0
H1182 H 0.05645 0.39994 0.17056 0.0
H1183 H -0.00116 0.29946 0.16834 0.0
H1184 H 0.03086 0.29526 0.22758 0.0
H1185 H 0.13341 0.40236 0.2181 0.0
H1186 H 0.14079 0.43583 0.25078 0.0
H1187 H 0.12425 0.43073 0.19586 0.0
H1188 H 0.07835 0.43529 0.22836 0.0
H1189 H 0.09423 0.43986 0.28287 0.0
H1190 H 0.05496 0.4089 0.27195 0.0
H1191 H 0.05234 0.30204 0.30184 0.0
H1192 H 0.06201 0.31911 0.37975 0.0
H1193 H 0.10837 0.41551 0.33702 0.0
C1194 C 0.05194 0.37711 0.18103 0.0
C1195 C 0.02539 0.35011 0.16526 0.0
C1196 C 0.01943 0.32043 0.17967 0.0
C1197 C 0.03759 0.31787 0.2134 0.0
C1198 C 0.06183 0.34517 0.23177 0.0
C1199 C 0.06968 0.37437 0.21511 0.0
C1200 C 0.09146 0.40009 0.24628 0.0
C1201 C 0.12444 0.41831 0.22658 0.0
C1202 C 0.07894 0.42223 0.25806 0.0
C1203 C 0.09087 0.38077 0.28567 0.0
C1204 C 0.07498 0.34917 0.27598 0.0
C1205 C 0.06594 0.32666 0.30941 0.0
C1206 C 0.0715 0.33654 0.35372 0.0
C1207 C 0.08574 0.36861 0.36403 0.0
C1208 C 0.09748 0.39085 0.32959 0.0
H1209 H 0.67391 0.0183 0.70292 0.0
H1210 H 0.60244 0.93712 0.77179 0.0
H1211 H 0.60672 0.90285 0.71603 0.0
H1212 H 0.64692 -0.00478 0.60122 0.0
H1213 H 0.68406 0.01113 0.57354 0.0
H1214 H 0.68129 0.02789 0.62468 0.0
H1215 H 0.72453 0.01893 0.65865 0.0
H1216 H 0.72705 0.00165 0.60734 0.0
H1217 H 0.71971 0.98032 0.6587 0.0
H1218 H 0.60867 0.87948 0.64487 0.0
H1219 H 0.60598 0.86968 0.56474 0.0
H1220 H 0.67993 0.96492 0.54297 0.0
C1221 C 0.65985 0.99324 0.7068 0.0
C1222 C 0.63781 0.98017 0.74122 0.0
C1223 C 0.61961 0.94741 0.7456 0.0
C1224 C 0.62209 0.92785 0.71431 0.0
C1225 C 0.64339 0.94151 0.67965 0.0
C1226 C 0.66227 0.97353 0.67611 0.0
C1227 C 0.67953 0.9828 0.63247 0.0
C1228 C 0.67248 0.00555 0.60648 0.0
C1229 C 0.7148 -0.00326 0.63974 0.0
C1230 C 0.66541 0.95125 0.61029 0.0
C1231 C 0.64529 0.92757 0.63847 0.0
C1232 C 0.62516 0.89751 0.62292 0.0
C1233 C 0.62392 0.89208 0.57717 0.0
C1234 C 0.64267 0.91668 0.54761 0.0
C1235 C 0.66538 0.94575 0.56493 0.0
H1236 H 0.63779 0.69999 1.02309 0.0
H1237 H 0.69048 0.67064 1.1054 0.0
H1238 H 0.72586 0.67919 1.04304 0.0
H1239 H 0.63087 0.65811 0.93877 0.0
H1240 H 0.63444 0.68473 0.8951 0.0
H1241 H 0.62206 0.68879 0.94897 0.0
H1242 H 0.66739 0.74613 0.95205 0.0
H1243 H 0.68017 0.7419 0.89782 0.0
H1244 H 0.70704 0.75479 0.94398 0.0
H1245 H 0.74355 0.67383 0.96988 0.0
H1246 H 0.73888 0.65212 0.895 0.0
H1247 H 0.67538 0.68478 0.85788 0.0
C1248 C 0.65753 0.69652 1.02822 0.0
C1249 C 0.66139 0.68458 1.06876 0.0
C1250 C 0.68732 0.68017 1.07467 0.0
C1251 C 0.70767 0.68515 1.0394 0.0
C1252 C 0.70205 0.69497 0.99867 0.0
C1253 C 0.6778 0.70112 0.99315 0.0
C1254 C 0.67233 0.70483 0.94465 0.0
C1255 C 0.63795 0.68277 0.93114 0.0
C1256 C 0.68235 0.73895 0.93401 0.0
C1257 C 0.69435 0.69569 0.9236 0.0
C1258 C 0.71254 0.69175 0.95518 0.0
C1259 C 0.73023 0.67779 0.94468 0.0
C1260 C 0.72739 0.66539 0.90204 0.0
C1261 C 0.70663 0.66665 0.87076 0.0
C1262 C 0.69202 0.68417 0.88071 0.0
H1263 H 0.94053 0.59638 0.16289 0.0
H1264 H 0.98034 0.69633 0.15211 0.0
H1265 H 0.95045 0.6958 0.21737 0.0
H1266 H 0.86131 0.58104 0.22367 0.0
H1267 H 0.8627 0.55092 0.25576 0.0
H1268 H 0.87438 0.55664 0.19827 0.0
H1269 H 0.92687 0.56175 0.22162 0.0
H1270 H 0.91643 0.55745 0.27889 0.0
H1271 H 0.95166 0.59163 0.26068 0.0
H1272 H 0.93687 0.68854 0.29569 0.0
H1273 H 0.93371 0.67368 0.37432 0.0
H1274 H 0.89889 0.57751 0.33574 0.0
C1275 C 0.941 0.6177 0.17229 0.0
C1276 C 0.96289 0.64637 0.15307 0.0
C1277 C 0.96378 0.67412 0.16676 0.0
C1278 C 0.94676 0.67399 0.2038 0.0
C1279 C 0.9283 0.64579 0.22577 0.0
C1280 C 0.92413 0.61777 0.20938 0.0
C1281 C 0.90848 0.59186 0.24335 0.0
C1282 C 0.8747 0.56877 0.22944 0.0
C1283 C 0.92703 0.57478 0.25164 0.0
C1284 C 0.90912 0.61063 0.28321 0.0
C1285 C 0.91936 0.6414 0.27209 0.0
C1286 C 0.9274 0.66426 0.30457 0.0
C1287 C 0.92569 0.65565 0.34926 0.0
C1288 C 0.91619 0.62445 0.36103 0.0
C1289 C 0.90643 0.60157 0.32758 0.0
H1290 H 0.5518 0.10217 0.5303 0.0
H1291 H 0.46908 0.11021 0.54395 0.0
H1292 H 0.47766 0.11564 0.62538 0.0
H1293 H 0.53473 0.05319 0.63594 0.0
H1294 H 0.57576 0.06864 0.64671 0.0
H1295 H 0.5618 0.06615 0.59059 0.0
H1296 H 0.60214 0.12582 0.58302 0.0
H1297 H 0.61358 0.12745 0.64028 0.0
H1298 H 0.59947 0.15263 0.62062 0.0
H1299 H 0.49755 0.12212 0.71257 0.0
H1300 H 0.52113 0.12379 0.78573 0.0
H1301 H 0.58848 0.10523 0.72206 0.0
C1302 C 0.53522 0.10505 0.55001 0.0
C1303 C 0.50934 0.10588 0.52727 0.0
C1304 C 0.48906 0.10953 0.55737 0.0
C1305 C 0.49392 0.11265 0.60495 0.0
C1306 C 0.51911 0.11138 0.62559 0.0
C1307 C 0.53911 0.10692 0.59862 0.0
C1308 C 0.56305 0.10396 0.62955 0.0
C1309 C 0.55866 0.07107 0.62545 0.0
C1310 C 0.59656 0.12893 0.61763 0.0
C1311 C 0.5548 0.10903 0.67771 0.0
C1312 C 0.52917 0.11324 0.67445 0.0
C1313 C 0.51746 0.11862 0.71417 0.0
C1314 C 0.53147 0.11968 0.75676 0.0
C1315 C 0.55762 0.11503 0.76292 0.0
C1316 C 0.56893 0.10928 0.72112 0.0
H1317 H 0.37545 0.49286 0.88838 0.0
H1318 H 0.45168 0.57299 0.82415 0.0
H1319 H 0.47361 0.5952 0.89756 0.0
H1320 H 0.36814 0.53922 0.98163 0.0
H1321 H 0.35863 0.50977 1.02358 0.0
H1322 H 0.34892 0.49861 0.96622 0.0
H1323 H 0.37967 0.46917 0.96898 0.0
H1324 H 0.38886 0.48019 1.02645 0.0
H1325 H 0.4198 0.48943 0.98732 0.0
H1326 H 0.49079 0.6098 0.98444 0.0
H1327 H 0.49685 0.61612 1.06573 0.0
H1328 H 0.40832 0.53096 1.08256 0.0
C1329 C 0.39678 0.5152 0.88917 0.0
C1330 C 0.41113 0.53038 0.84668 0.0
C1331 C 0.43908 0.55983 0.85317 0.0
C1332 C 0.45217 0.57296 0.89607 0.0
C1333 C 0.43766 0.55775 0.93619 0.0
C1334 C 0.41006 0.5295 0.93307 0.0
C1335 C 0.39859 0.51894 0.98209 0.0
C1336 C 0.36665 0.51646 0.98878 0.0
C1337 C 0.3966 0.48753 0.99175 0.0
C1338 C 0.42379 0.54504 1.01307 0.0
C1339 C 0.44637 0.56701 0.98528 0.0
C1340 C 0.47258 0.59254 1.00539 0.0
C1341 C 0.47595 0.59608 1.05306 0.0
C1342 C 0.45335 0.57507 1.08431 0.0
C1343 C 0.42653 0.54872 1.06217 0.0
H1344 H 0.88176 0.395 0.23318 0.0
H1345 H 0.86815 0.46527 0.16746 0.0
H1346 H 0.86892 0.48832 0.2403 0.0
H1347 H 0.832 0.3855 0.33175 0.0
H1348 H 0.85654 0.38063 0.37162 0.0
H1349 H 0.8562 0.36975 0.31444 0.0
H1350 H 0.91586 0.40577 0.31079 0.0
H1351 H 0.91617 0.41666 0.36796 0.0
H1352 H 0.93271 0.44631 0.32564 0.0
H1353 H 0.87255 0.50688 0.32723 0.0
H1354 H 0.87485 0.51464 0.40844 0.0
H1355 H 0.8823 0.43176 0.42652 0.0
C1356 C 0.87875 0.4152 0.23351 0.0
C1357 C 0.87462 0.42734 0.19074 0.0
C1358 C 0.87105 0.45417 0.19669 0.0
C1359 C 0.87158 0.4679 0.23928 0.0
C1360 C 0.8753 0.45538 0.27972 0.0
C1361 C 0.87861 0.42922 0.27713 0.0
C1362 C 0.88161 0.42013 0.32637 0.0
C1363 C 0.85502 0.38701 0.33666 0.0
C1364 C 0.91347 0.42231 0.33308 0.0
C1365 C 0.87911 0.44457 0.35688 0.0
C1366 C 0.87602 0.46506 0.3287 0.0
C1367 C 0.87455 0.49027 0.34846 0.0
C1368 C 0.87589 0.49465 0.39611 0.0
C1369 C 0.87819 0.47414 0.42775 0.0
C1370 C 0.8799 0.4484 0.40592 0.0
H1371 H 0.44481 0.90389 0.52813 0.0
H1372 H 0.50561 0.86462 0.53853 0.0
H1373 H 0.49487 0.85688 0.61909 0.0
H1374 H 0.46832 0.94513 0.63871 0.0
H1375 H 0.43004 0.93885 0.65154 0.0
H1376 H 0.44197 0.94125 0.59444 0.0
H1377 H 0.3936 0.88757 0.57905 0.0
H1378 H 0.38168 0.88505 0.63613 0.0
H1379 H 0.3868 0.85448 0.61251 0.0
H1380 H 0.47534 0.8514 0.70533 0.0
H1381 H 0.4538 0.85177 0.77892 0.0
H1382 H 0.40616 0.89685 0.72108 0.0
C1383 C 0.45607 0.89353 0.54699 0.0
C1384 C 0.47651 0.88473 0.52337 0.0
C1385 C 0.49008 0.87176 0.55249 0.0
C1386 C 0.48385 0.86716 0.59965 0.0
C1387 C 0.46383 0.87578 0.62115 0.0
C1388 C 0.45037 0.8892 0.59543 0.0
C1389 C 0.43045 0.8973 0.62758 0.0
C1390 C 0.44344 0.93274 0.62806 0.0
C1391 C 0.39608 0.8801 0.61293 0.0
C1392 C 0.43396 0.88582 0.67482 0.0
C1393 C 0.45349 0.87346 0.66991 0.0
C1394 C 0.46018 0.86121 0.70826 0.0
C1395 C 0.44735 0.86146 0.75114 0.0
C1396 C 0.42714 0.87389 0.75931 0.0
C1397 C 0.42084 0.88655 0.71875 0.0
H1398 H 0.59445 0.48982 0.89149 0.0
H1399 H 0.53183 0.40252 0.82643 0.0
H1400 H 0.51121 0.37853 0.89965 0.0
H1401 H 0.61163 0.45259 0.98843 0.0
H1402 H 0.61398 0.48047 1.02884 0.0
H1403 H 0.62321 0.49187 0.97148 0.0
H1404 H 0.58201 0.50943 0.96906 0.0
H1405 H 0.57383 0.49884 1.02676 0.0
H1406 H 0.54262 0.4826 0.98645 0.0
H1407 H 0.49316 0.36271 0.98711 0.0
H1408 H 0.48601 0.35684 1.06835 0.0
H1409 H 0.56389 0.45052 1.08532 0.0
C1410 C 0.57646 0.4655 0.89203 0.0
C1411 C 0.56543 0.44893 0.84933 0.0
C1412 C 0.54174 0.41696 0.85556 0.0
C1413 C 0.52944 0.40275 0.89839 0.0
C1414 C 0.54066 0.41947 0.93875 0.0
C1415 C 0.56431 0.45028 0.93583 0.0
C1416 C 0.57325 0.4625 0.98494 0.0
C1417 C 0.60758 0.47248 0.99396 0.0
C1418 C 0.5676 0.48999 0.99224 0.0
C1419 C 0.55121 0.43428 1.01589 0.0
C1420 C 0.53213 0.40985 0.98795 0.0
C1421 C 0.50877 0.38201 1.0081 0.0
C1422 C 0.50477 0.37872 1.05582 0.0
C1423 C 0.5241 0.40229 1.08733 0.0
C1424 C 0.54814 0.43086 1.06506 0.0
H1425 H 0.09929 0.55868 0.42359 0.0
H1426 H 0.11614 0.48138 0.40832 0.0
H1427 H 0.12125 0.49065 0.32726 0.0
H1428 H 0.05131 0.5404 0.31892 0.0
H1429 H 0.06456 0.58055 0.30507 0.0
H1430 H 0.06357 0.5692 0.3623 0.0
H1431 H 0.12189 0.61004 0.3706 0.0
H1432 H 0.12304 0.62144 0.31339 0.0
H1433 H 0.1498 0.60928 0.33304 0.0
H1434 H 0.12681 0.51053 0.24052 0.0
H1435 H 0.12733 0.53341 0.16741 0.0
H1436 H 0.10165 0.59587 0.23037 0.0
C1437 C 0.10438 0.54363 0.40363 0.0
C1438 C 0.10793 0.51909 0.4261 0.0
C1439 C 0.11359 0.50043 0.39537 0.0
C1440 C 0.11653 0.50567 0.34787 0.0
C1441 C 0.11306 0.52965 0.32748 0.0
C1442 C 0.10646 0.54806 0.35477 0.0
C1443 C 0.10193 0.5711 0.32365 0.0
C1444 C 0.06835 0.56498 0.32776 0.0
C1445 C 0.12556 0.60499 0.33592 0.0
C1446 C 0.10793 0.56377 0.27513 0.0
C1447 C 0.11448 0.53968 0.27853 0.0
C1448 C 0.12148 0.52922 0.23883 0.0
C1449 C 0.12183 0.54286 0.19615 0.0
C1450 C 0.11477 0.56741 0.18944 0.0
C1451 C 0.10746 0.57753 0.2314 0.0
loop_
_geom_bond_atom_site_label_1
_geom_bond_atom_site_label_2
_geom_bond_distance
_geom_bond_site_symmetry_2
_ccdc_geom_bond_type
La0 C2 2.928 . S
La0 O20 2.521 . S
La0 O21 2.628 . S
La0 O22 2.554 . S
La0 O23 2.757 . S
La0 O24 2.470 . S
La0 O29 2.482 . S
La0 O31 2.503 . S
La1 C11 2.928 . S
La1 O23 2.482 . S
La1 O25 2.503 . S
La1 O26 2.521 . S
La1 O27 2.628 . S
La1 O28 2.554 . S
La1 O29 2.757 . S
La1 O30 2.470 . S
C2 La0 2.928 . S
C2 C3 1.503 . S
C2 O20 1.261 . S
C2 O21 1.243 . S
C3 C2 1.503 . S
C3 C4 1.394 . S
C3 C8 1.373 . S
C4 C3 1.394 . S
C4 C5 1.380 . S
C4 H32 0.930 . S
C5 C4 1.380 . S
C5 C6 1.376 . S
C5 H33 0.930 . S
C6 C5 1.376 . S
C6 C7 1.370 . S
C7 C6 1.370 . S
C7 C8 1.396 . S
C7 H34 0.929 . S
C8 C3 1.373 . S
C8 C7 1.396 . S
C8 H35 0.929 . S
C9 O22 1.240 . S
C9 O23 1.289 . S
C10 O24 1.258 . S
C10 O25 1.256 . S
C11 La1 2.928 . S
C11 C12 1.503 . S
C11 O26 1.261 . S
C11 O27 1.243 . S
C12 C11 1.503 . S
C12 C13 1.394 . S
C12 C17 1.373 . S
C13 C12 1.394 . S
C13 C14 1.380 . S
C13 H36 0.930 . S
C14 C13 1.380 . S
C14 C15 1.376 . S
C14 H37 0.930 . S
C15 C14 1.376 . S
C15 C16 1.370 . S
C16 C15 1.370 . S
C16 C17 1.396 . S
C16 H38 0.929 . S
C17 C12 1.373 . S
C17 C16 1.396 . S
C17 H39 0.929 . S
C18 O28 1.240 . S
C18 O29 1.289 . S
C19 O30 1.258 . S
C19 O31 1.256 . S
O20 La0 2.521 . S
O20 C2 1.261 . S
O21 La0 2.628 . S
O21 C2 1.243 . S
O22 La0 2.554 . S
O22 C9 1.240 . S
O23 La0 2.757 . S
O23 La1 2.482 . S
O23 C9 1.289 . S
O24 La0 2.470 . S
O24 C10 1.258 . S
O25 La1 2.503 . S
O25 C10 1.256 . S
O26 La1 2.521 . S
O26 C11 1.261 . S
O27 La1 2.628 . S
O27 C11 1.243 . S
O28 La1 2.554 . S
O28 C18 1.240 . S
O29 La0 2.482 . S
O29 La1 2.757 . S
O29 C18 1.289 . S
O30 La1 2.470 . S
O30 C19 1.258 . S
O31 La0 2.503 . S
O31 C19 1.256 . S
H32 C4 0.930 . S
H33 C5 0.930 . S
H34 C7 0.929 . S
H35 C8 0.929 . S
H36 C13 0.930 . S
H37 C14 0.930 . S
H38 C16 0.929 . S
H39 C17 0.929 . S
La40 C42 2.928 . S
La40 O60 2.521 . S
La40 O61 2.628 . S
La40 O62 2.554 . S
La40 O63 2.757 . S
La40 O64 2.470 . S
La40 O69 2.482 . S
La40 O71 2.503 . S
La41 C51 2.928 . S
La41 O63 2.482 . S
La41 O65 2.503 . S
La41 O66 2.521 . S
La41 O67 2.628 . S
La41 O68 2.554 . S
La41 O69 2.757 . S
La41 O70 2.470 . S
C42 La40 2.928 . S
C42 C43 1.503 . S
C42 O60 1.261 . S
C42 O61 1.243 . S
C43 C42 1.503 . S
C43 C44 1.394 . S
C43 C48 1.373 . S
C44 C43 1.394 . S
C44 C45 1.380 . S
C44 H72 0.930 . S
C45 C44 1.380 . S
C45 C46 1.376 . S
C45 H73 0.930 . S
C46 C45 1.376 . S
C46 C47 1.370 . S
C47 C46 1.370 . S
C47 C48 1.396 . S
C47 H74 0.929 . S
C48 C43 1.373 . S
C48 C47 1.396 . S
C48 H75 0.929 . S
C49 O62 1.240 . S
C49 O63 1.289 . S
C50 O64 1.258 . S
C50 O65 1.256 . S
C51 La41 2.928 . S
C51 C52 1.503 . S
C51 O66 1.261 . S
C51 O67 1.243 . S
C52 C51 1.503 . S
C52 C53 1.394 . S
C52 C57 1.373 . S
C53 C52 1.394 . S
C53 C54 1.380 . S
C53 H76 0.930 . S
C54 C53 1.380 . S
C54 C55 1.376 . S
C54 H77 0.930 . S
C55 C54 1.376 . S
C55 C56 1.370 . S
C56 C55 1.370 . S
C56 C57 1.396 . S
C56 H78 0.929 . S
C57 C52 1.373 . S
C57 C56 1.396 . S
C57 H79 0.929 . S
C58 O68 1.240 . S
C58 O69 1.289 . S
C59 O70 1.258 . S
C59 O71 1.256 . S
O60 La40 2.521 . S
O60 C42 1.261 . S
O61 La40 2.628 . S
O61 C42 1.243 . S
O62 La40 2.554 . S
O62 C49 1.240 . S
O63 La40 2.757 . S
O63 La41 2.482 . S
O63 C49 1.289 . S
O64 La40 2.470 . S
O64 C50 1.258 . S
O65 La41 2.503 . S
O65 C50 1.256 . S
O66 La41 2.521 . S
O66 C51 1.261 . S
O67 La41 2.628 . S
O67 C51 1.243 . S
O68 La41 2.554 . S
O68 C58 1.240 . S
O69 La40 2.482 . S
O69 La41 2.757 . S
O69 C58 1.289 . S
O70 La41 2.470 . S
O70 C59 1.258 . S
O71 La40 2.503 . S
O71 C59 1.256 . S
H72 C44 0.930 . S
H73 C45 0.930 . S
H74 C47 0.929 . S
H75 C48 0.929 . S
H76 C53 0.930 . S
H77 C54 0.930 . S
H78 C56 0.929 . S
H79 C57 0.929 . S
La80 C82 2.928 1_556 S
La80 O100 2.521 . S
La80 O101 2.628 . S
La80 O102 2.554 . S
La80 O103 2.757 . S
La80 O104 2.470 . S
La80 O109 2.482 . S
La80 O111 2.503 . S
La81 C91 2.928 . S
La81 O103 2.482 . S
La81 O105 2.503 . S
La81 O106 2.521 . S
La81 O107 2.628 . S
La81 O108 2.554 . S
La81 O109 2.757 . S
La81 O110 2.470 . S
C82 La80 2.928 1_554 S
C82 C83 1.503 . S
C82 O100 1.261 1_554 S
C82 O101 1.243 1_554 S
C83 C82 1.503 . S
C83 C84 1.394 . S
C83 C88 1.373 . S
C84 C83 1.394 . S
C84 C85 1.380 . S
C84 H112 0.930 . S
C85 C84 1.380 . S
C85 C86 1.376 . S
C85 H113 0.930 . S
C86 C85 1.376 . S
C86 C87 1.370 . S
C87 C86 1.370 . S
C87 C88 1.396 . S
C87 H114 0.929 . S
C88 C83 1.373 . S
C88 C87 1.396 . S
C88 H115 0.929 . S
C89 O102 1.240 . S
C89 O103 1.289 . S
C90 O104 1.258 . S
C90 O105 1.256 . S
C91 La81 2.928 . S
C91 C92 1.503 . S
C91 O106 1.261 . S
C91 O107 1.243 . S
C92 C91 1.503 . S
C92 C93 1.394 . S
C92 C97 1.373 . S
C93 C92 1.394 . S
C93 C94 1.380 . S
C93 H116 0.930 . S
C94 C93 1.380 . S
C94 C95 1.376 . S
C94 H117 0.930 . S
C95 C94 1.376 . S
C95 C96 1.370 . S
C96 C95 1.370 . S
C96 C97 1.396 . S
C96 H118 0.929 . S
C97 C92 1.373 . S
C97 C96 1.396 . S
C97 H119 0.929 . S
C98 O108 1.240 . S
C98 O109 1.289 . S
C99 O110 1.258 . S
C99 O111 1.256 . S
O100 La80 2.521 . S
O100 C82 1.261 1_556 S
O101 La80 2.628 . S
O101 C82 1.243 1_556 S
O102 La80 2.554 . S
O102 C89 1.240 . S
O103 La80 2.757 . S
O103 La81 2.482 . S
O103 C89 1.289 . S
O104 La80 2.470 . S
O104 C90 1.258 . S
O105 La81 2.503 . S
O105 C90 1.256 . S
O106 La81 2.521 . S
O106 C91 1.261 . S
O107 La81 2.628 . S
O107 C91 1.243 . S
O108 La81 2.554 . S
O108 C98 1.240 . S
O109 La80 2.482 . S
O109 La81 2.757 . S
O109 C98 1.289 . S
O110 La81 2.470 . S
O110 C99 1.258 . S
O111 La80 2.503 . S
O111 C99 1.256 . S
H112 C84 0.930 . S
H113 C85 0.930 . S
H114 C87 0.929 . S
H115 C88 0.929 . S
H116 C93 0.930 . S
H117 C94 0.930 . S
H118 C96 0.929 . S
H119 C97 0.929 . S
La120 C122 2.928 . S
La120 O140 2.521 . S
La120 O141 2.628 . S
La120 O142 2.554 . S
La120 O143 2.757 . S
La120 O144 2.470 . S
La120 O149 2.482 . S
La120 O151 2.503 . S
La121 C131 2.928 . S
La121 O143 2.482 . S
La121 O145 2.503 . S
La121 O146 2.521 . S
La121 O147 2.628 . S
La121 O148 2.554 . S
La121 O149 2.757 . S
La121 O150 2.470 . S
C122 La120 2.928 . S
C122 C123 1.503 . S
C122 O140 1.261 . S
C122 O141 1.243 . S
C123 C122 1.503 . S
C123 C124 1.394 . S
C123 C128 1.373 . S
C124 C123 1.394 . S
C124 C125 1.380 . S
C124 H152 0.930 . S
C125 C124 1.380 . S
C125 C126 1.376 . S
C125 H153 0.930 . S
C126 C125 1.376 . S
C126 C127 1.370 . S
C127 C126 1.370 . S
C127 C128 1.396 . S
C127 H154 0.929 . S
C128 C123 1.373 . S
C128 C127 1.396 . S
C128 H155 0.929 . S
C129 O142 1.240 . S
C129 O143 1.289 . S
C130 O144 1.258 . S
C130 O145 1.256 . S
C131 La121 2.928 . S
C131 C132 1.503 . S
C131 O146 1.261 . S
C131 O147 1.243 . S
C132 C131 1.503 . S
C132 C133 1.394 . S
C132 C137 1.373 . S
C133 C132 1.394 . S
C133 C134 1.380 . S
C133 H156 0.930 . S
C134 C133 1.380 . S
C134 C135 1.376 . S
C134 H157 0.930 . S
C135 C134 1.376 . S
C135 C136 1.370 . S
C136 C135 1.370 . S
C136 C137 1.396 . S
C136 H158 0.929 . S
C137 C132 1.373 . S
C137 C136 1.396 . S
C137 H159 0.929 . S
C138 O148 1.240 . S
C138 O149 1.289 . S
C139 O150 1.258 . S
C139 O151 1.256 . S
O140 La120 2.521 . S
O140 C122 1.261 . S
O141 La120 2.628 . S
O141 C122 1.243 . S
O142 La120 2.554 . S
O142 C129 1.240 . S
O143 La120 2.757 . S
O143 La121 2.482 . S
O143 C129 1.289 . S
O144 La120 2.470 . S
O144 C130 1.258 . S
O145 La121 2.503 . S
O145 C130 1.256 . S
O146 La121 2.521 . S
O146 C131 1.261 . S
O147 La121 2.628 . S
O147 C131 1.243 . S
O148 La121 2.554 . S
O148 C138 1.240 . S
O149 La120 2.482 . S
O149 La121 2.757 . S
O149 C138 1.289 . S
O150 La121 2.470 . S
O150 C139 1.258 . S
O151 La120 2.503 . S
O151 C139 1.256 . S
H152 C124 0.930 . S
H153 C125 0.930 . S
H154 C127 0.929 . S
H155 C128 0.929 . S
H156 C133 0.930 . S
H157 C134 0.930 . S
H158 C136 0.929 . S
H159 C137 0.929 . S
La160 C162 2.928 . S
La160 O180 2.521 . S
La160 O181 2.628 . S
La160 O182 2.554 . S
La160 O183 2.757 . S
La160 O184 2.470 . S
La160 O189 2.482 . S
La160 O191 2.503 . S
La161 C171 2.928 . S
La161 O183 2.482 . S
La161 O185 2.503 . S
La161 O186 2.521 . S
La161 O187 2.628 . S
La161 O188 2.554 . S
La161 O189 2.757 . S
La161 O190 2.470 . S
C162 La160 2.928 . S
C162 C163 1.503 . S
C162 O180 1.261 . S
C162 O181 1.243 . S
C163 C162 1.503 . S
C163 C164 1.394 . S
C163 C168 1.373 . S
C164 C163 1.394 . S
C164 C165 1.380 . S
C164 H192 0.930 . S
C165 C164 1.380 . S
C165 C166 1.376 . S
C165 H193 0.930 . S
C166 C165 1.376 . S
C166 C167 1.370 . S
C167 C166 1.370 . S
C167 C168 1.396 . S
C167 H194 0.929 . S
C168 C163 1.373 . S
C168 C167 1.396 . S
C168 H195 0.929 . S
C169 O182 1.240 . S
C169 O183 1.289 . S
C170 O184 1.258 . S
C170 O185 1.256 . S
C171 La161 2.928 . S
C171 C172 1.503 . S
C171 O186 1.261 . S
C171 O187 1.243 . S
C172 C171 1.503 . S
C172 C173 1.394 . S
C172 C177 1.373 . S
C173 C172 1.394 . S
C173 C174 1.380 . S
C173 H196 0.930 . S
C174 C173 1.380 . S
C174 C175 1.376 . S
C174 H197 0.930 . S
C175 C174 1.376 . S
C175 C176 1.370 . S
C176 C175 1.370 . S
C176 C177 1.396 . S
C176 H198 0.929 . S
C177 C172 1.373 . S
C177 C176 1.396 . S
C177 H199 0.929 . S
C178 O188 1.240 . S
C178 O189 1.289 . S
C179 O190 1.258 . S
C179 O191 1.256 . S
O180 La160 2.521 . S
O180 C162 1.261 . S
O181 La160 2.628 . S
O181 C162 1.243 . S
O182 La160 2.554 . S
O182 C169 1.240 . S
O183 La160 2.757 . S
O183 La161 2.482 . S
O183 C169 1.289 . S
O184 La160 2.470 . S
O184 C170 1.258 . S
O185 La161 2.503 . S
O185 C170 1.256 . S
O186 La161 2.521 . S
O186 C171 1.261 . S
O187 La161 2.628 . S
O187 C171 1.243 . S
O188 La161 2.554 . S
O188 C178 1.240 . S
O189 La160 2.482 . S
O189 La161 2.757 . S
O189 C178 1.289 . S
O190 La161 2.470 . S
O190 C179 1.258 . S
O191 La160 2.503 . S
O191 C179 1.256 . S
H192 C164 0.930 . S
H193 C165 0.930 . S
H194 C167 0.929 . S
H195 C168 0.929 . S
H196 C173 0.930 . S
H197 C174 0.930 . S
H198 C176 0.929 . S
H199 C177 0.929 . S
La200 C202 2.928 1_556 S
La200 O220 2.521 . S
La200 O221 2.628 . S
La200 O222 2.554 . S
La200 O223 2.757 . S
La200 O224 2.470 . S
La200 O229 2.482 . S
La200 O231 2.503 . S
La201 C211 2.928 . S
La201 O223 2.482 . S
La201 O225 2.503 . S
La201 O226 2.521 . S
La201 O227 2.628 . S
La201 O228 2.554 . S
La201 O229 2.757 . S
La201 O230 2.470 . S
C202 La200 2.928 1_554 S
C202 C203 1.503 . S
C202 O220 1.261 1_554 S
C202 O221 1.243 1_554 S
C203 C202 1.503 . S
C203 C204 1.394 . S
C203 C208 1.373 . S
C204 C203 1.394 . S
C204 C205 1.380 . S
C204 H232 0.930 . S
C205 C204 1.380 . S
C205 C206 1.376 . S
C205 H233 0.930 . S
C206 C205 1.376 . S
C206 C207 1.370 . S
C207 C206 1.370 . S
C207 C208 1.396 . S
C207 H234 0.929 . S
C208 C203 1.373 . S
C208 C207 1.396 . S
C208 H235 0.929 . S
C209 O222 1.240 . S
C209 O223 1.289 . S
C210 O224 1.258 . S
C210 O225 1.256 . S
C211 La201 2.928 . S
C211 C212 1.503 . S
C211 O226 1.261 . S
C211 O227 1.243 . S
C212 C211 1.503 . S
C212 C213 1.394 . S
C212 C217 1.373 . S
C213 C212 1.394 . S
C213 C214 1.380 . S
C213 H236 0.930 . S
C214 C213 1.380 . S
C214 C215 1.376 . S
C214 H237 0.930 . S
C215 C214 1.376 . S
C215 C216 1.370 . S
C216 C215 1.370 . S
C216 C217 1.396 . S
C216 H238 0.929 . S
C217 C212 1.373 . S
C217 C216 1.396 . S
C217 H239 0.929 . S
C218 O228 1.240 . S
C218 O229 1.289 . S
C219 O230 1.258 . S
C219 O231 1.256 . S
O220 La200 2.521 . S
O220 C202 1.261 1_556 S
O221 La200 2.628 . S
O221 C202 1.243 1_556 S
O222 La200 2.554 . S
O222 C209 1.240 . S
O223 La200 2.757 . S
O223 La201 2.482 . S
O223 C209 1.289 . S
O224 La200 2.470 . S
O224 C210 1.258 . S
O225 La201 2.503 . S
O225 C210 1.256 . S
O226 La201 2.521 . S
O226 C211 1.261 . S
O227 La201 2.628 . S
O227 C211 1.243 . S
O228 La201 2.554 . S
O228 C218 1.240 . S
O229 La200 2.482 . S
O229 La201 2.757 . S
O229 C218 1.289 . S
O230 La201 2.470 . S
O230 C219 1.258 . S
O231 La200 2.503 . S
O231 C219 1.256 . S
H232 C204 0.930 . S
H233 C205 0.930 . S
H234 C207 0.929 . S
H235 C208 0.929 . S
H236 C213 0.930 . S
H237 C214 0.930 . S
H238 C216 0.929 . S
H239 C217 0.929 . S
La240 C242 2.928 . S
La240 O260 2.521 . S
La240 O261 2.628 . S
La240 O262 2.554 . S
La240 O263 2.757 . S
La240 O264 2.470 . S
La240 O269 2.482 . S
La240 O271 2.503 . S
La241 C251 2.928 . S
La241 O263 2.482 . S
La241 O265 2.503 . S
La241 O266 2.521 . S
La241 O267 2.628 . S
La241 O268 2.554 . S
La241 O269 2.757 . S
La241 O270 2.470 . S
C242 La240 2.928 . S
C242 C243 1.503 . S
C242 O260 1.261 . S
C242 O261 1.243 . S
C243 C242 1.503 . S
C243 C244 1.394 . S
C243 C248 1.373 . S
C244 C243 1.394 . S
C244 C245 1.380 . S
C244 H272 0.930 . S
C245 C244 1.380 . S
C245 C246 1.376 . S
C245 H273 0.930 . S
C246 C245 1.376 . S
C246 C247 1.370 . S
C247 C246 1.370 . S
C247 C248 1.396 . S
C247 H274 0.929 . S
C248 C243 1.373 . S
C248 C247 1.396 . S
C248 H275 0.929 . S
C249 O262 1.240 . S
C249 O263 1.289 . S
C250 O264 1.258 . S
C250 O265 1.256 . S
C251 La241 2.928 . S
C251 C252 1.503 . S
C251 O266 1.261 . S
C251 O267 1.243 . S
C252 C251 1.503 . S
C252 C253 1.394 . S
C252 C257 1.373 . S
C253 C252 1.394 . S
C253 C254 1.380 . S
C253 H276 0.930 . S
C254 C253 1.380 . S
C254 C255 1.376 . S
C254 H277 0.930 . S
C255 C254 1.376 . S
C255 C256 1.370 . S
C256 C255 1.370 . S
C256 C257 1.396 . S
C256 H278 0.929 . S
C257 C252 1.373 . S
C257 C256 1.396 . S
C257 H279 0.929 . S
C258 O268 1.240 . S
C258 O269 1.289 . S
C259 O270 1.258 . S
C259 O271 1.256 . S
O260 La240 2.521 . S
O260 C242 1.261 . S
O261 La240 2.628 . S
O261 C242 1.243 . S
O262 La240 2.554 . S
O262 C249 1.240 . S
O263 La240 2.757 . S
O263 La241 2.482 . S
O263 C249 1.289 . S
O264 La240 2.470 . S
O264 C250 1.258 . S
O265 La241 2.503 . S
O265 C250 1.256 . S
O266 La241 2.521 . S
O266 C251 1.261 . S
O267 La241 2.628 . S
O267 C251 1.243 . S
O268 La241 2.554 . S
O268 C258 1.240 . S
O269 La240 2.482 . S
O269 La241 2.757 . S
O269 C258 1.289 . S
O270 La241 2.470 . S
O270 C259 1.258 . S
O271 La240 2.503 . S
O271 C259 1.256 . S
H272 C244 0.930 . S
H273 C245 0.930 . S
H274 C247 0.929 . S
H275 C248 0.929 . S
H276 C253 0.930 . S
H277 C254 0.930 . S
H278 C256 0.929 . S
H279 C257 0.929 . S
La280 C282 2.928 . S
La280 O300 2.521 . S
La280 O301 2.628 . S
La280 O302 2.554 . S
La280 O303 2.757 . S
La280 O304 2.470 . S
La280 O309 2.482 . S
La280 O311 2.503 . S
La281 C291 2.928 . S
La281 O303 2.482 . S
La281 O305 2.503 . S
La281 O306 2.521 . S
La281 O307 2.628 . S
La281 O308 2.554 . S
La281 O309 2.757 . S
La281 O310 2.470 . S
C282 La280 2.928 . S
C282 C283 1.503 . S
C282 O300 1.261 . S
C282 O301 1.243 . S
C283 C282 1.503 . S
C283 C284 1.394 . S
C283 C288 1.373 . S
C284 C283 1.394 . S
C284 C285 1.380 . S
C284 H312 0.930 . S
C285 C284 1.380 . S
C285 C286 1.376 . S
C285 H313 0.930 . S
C286 C285 1.376 . S
C286 C287 1.370 . S
C287 C286 1.370 . S
C287 C288 1.396 . S
C287 H314 0.929 . S
C288 C283 1.373 . S
C288 C287 1.396 . S
C288 H315 0.929 . S
C289 O302 1.240 . S
C289 O303 1.289 . S
C290 O304 1.258 . S
C290 O305 1.256 . S
C291 La281 2.928 . S
C291 C292 1.503 . S
C291 O306 1.261 . S
C291 O307 1.243 . S
C292 C291 1.503 . S
C292 C293 1.394 . S
C292 C297 1.373 . S
C293 C292 1.394 . S
C293 C294 1.380 . S
C293 H316 0.930 . S
C294 C293 1.380 . S
C294 C295 1.376 . S
C294 H317 0.930 . S
C295 C294 1.376 . S
C295 C296 1.370 . S
C296 C295 1.370 . S
C296 C297 1.396 . S
C296 H318 0.929 . S
C297 C292 1.373 . S
C297 C296 1.396 . S
C297 H319 0.929 . S
C298 O308 1.240 . S
C298 O309 1.289 . S
C299 O310 1.258 . S
C299 O311 1.256 . S
O300 La280 2.521 . S
O300 C282 1.261 . S
O301 La280 2.628 . S
O301 C282 1.243 . S
O302 La280 2.554 . S
O302 C289 1.240 . S
O303 La280 2.757 . S
O303 La281 2.482 . S
O303 C289 1.289 . S
O304 La280 2.470 . S
O304 C290 1.258 . S
O305 La281 2.503 . S
O305 C290 1.256 . S
O306 La281 2.521 . S
O306 C291 1.261 . S
O307 La281 2.628 . S
O307 C291 1.243 . S
O308 La281 2.554 . S
O308 C298 1.240 . S
O309 La280 2.482 . S
O309 La281 2.757 . S
O309 C298 1.289 . S
O310 La281 2.470 . S
O310 C299 1.258 . S
O311 La280 2.503 . S
O311 C299 1.256 . S
H312 C284 0.930 . S
H313 C285 0.930 . S
H314 C287 0.929 . S
H315 C288 0.929 . S
H316 C293 0.930 . S
H317 C294 0.930 . S
H318 C296 0.929 . S
H319 C297 0.929 . S
La320 C322 2.928 1_554 S
La320 O340 2.521 . S
La320 O341 2.628 . S
La320 O342 2.554 . S
La320 O343 2.757 . S
La320 O344 2.470 . S
La320 O349 2.482 . S
La320 O351 2.503 . S
La321 C331 2.928 . S
La321 O343 2.482 . S
La321 O345 2.503 . S
La321 O346 2.521 . S
La321 O347 2.628 . S
La321 O348 2.554 . S
La321 O349 2.757 . S
La321 O350 2.470 . S
C322 La320 2.928 1_556 S
C322 C323 1.503 . S
C322 O340 1.261 1_556 S
C322 O341 1.243 1_556 S
C323 C322 1.503 . S
C323 C324 1.394 . S
C323 C328 1.373 . S
C324 C323 1.394 . S
C324 C325 1.380 . S
C324 H352 0.930 . S
C325 C324 1.380 . S
C325 C326 1.376 . S
C325 H353 0.930 . S
C326 C325 1.376 . S
C326 C327 1.370 . S
C327 C326 1.370 . S
C327 C328 1.396 . S
C327 H354 0.929 . S
C328 C323 1.373 . S
C328 C327 1.396 . S
C328 H355 0.929 . S
C329 O342 1.240 . S
C329 O343 1.289 . S
C330 O344 1.258 . S
C330 O345 1.256 . S
C331 La321 2.928 . S
C331 C332 1.503 . S
C331 O346 1.261 . S
C331 O347 1.243 . S
C332 C331 1.503 . S
C332 C333 1.394 . S
C332 C337 1.373 . S
C333 C332 1.394 . S
C333 C334 1.380 . S
C333 H356 0.930 . S
C334 C333 1.380 . S
C334 C335 1.376 . S
C334 H357 0.930 . S
C335 C334 1.376 . S
C335 C336 1.370 . S
C336 C335 1.370 . S
C336 C337 1.396 . S
C336 H358 0.929 . S
C337 C332 1.373 . S
C337 C336 1.396 . S
C337 H359 0.929 . S
C338 O348 1.240 . S
C338 O349 1.289 . S
C339 O350 1.258 . S
C339 O351 1.256 . S
O340 La320 2.521 . S
O340 C322 1.261 1_554 S
O341 La320 2.628 . S
O341 C322 1.243 1_554 S
O342 La320 2.554 . S
O342 C329 1.240 . S
O343 La320 2.757 . S
O343 La321 2.482 . S
O343 C329 1.289 . S
O344 La320 2.470 . S
O344 C330 1.258 . S
O345 La321 2.503 . S
O345 C330 1.256 . S
O346 La321 2.521 . S
O346 C331 1.261 . S
O347 La321 2.628 . S
O347 C331 1.243 . S
O348 La321 2.554 . S
O348 C338 1.240 . S
O349 La320 2.482 . S
O349 La321 2.757 . S
O349 C338 1.289 . S
O350 La321 2.470 . S
O350 C339 1.258 . S
O351 La320 2.503 . S
O351 C339 1.256 . S
H352 C324 0.930 . S
H353 C325 0.930 . S
H354 C327 0.929 . S
H355 C328 0.929 . S
H356 C333 0.930 . S
H357 C334 0.930 . S
H358 C336 0.929 . S
H359 C337 0.929 . S
La360 C362 2.928 . S
La360 O380 2.521 . S
La360 O381 2.628 . S
La360 O382 2.554 . S
La360 O383 2.757 . S
La360 O384 2.470 . S
La360 O389 2.482 . S
La360 O391 2.503 . S
La361 C371 2.928 . S
La361 O383 2.482 . S
La361 O385 2.503 . S
La361 O386 2.521 . S
La361 O387 2.628 . S
La361 O388 2.554 . S
La361 O389 2.757 . S
La361 O390 2.470 . S
C362 La360 2.928 . S
C362 C363 1.503 . S
C362 O380 1.261 . S
C362 O381 1.243 . S
C363 C362 1.503 . S
C363 C364 1.394 . S
C363 C368 1.373 . S
C364 C363 1.394 . S
C364 C365 1.380 . S
C364 H392 0.930 . S
C365 C364 1.380 . S
C365 C366 1.376 . S
C365 H393 0.930 . S
C366 C365 1.376 . S
C366 C367 1.370 . S
C367 C366 1.370 . S
C367 C368 1.396 . S
C367 H394 0.929 . S
C368 C363 1.373 . S
C368 C367 1.396 . S
C368 H395 0.929 . S
C369 O382 1.240 . S
C369 O383 1.289 . S
C370 O384 1.258 . S
C370 O385 1.256 . S
C371 La361 2.928 . S
C371 C372 1.503 . S
C371 O386 1.261 . S
C371 O387 1.243 . S
C372 C371 1.503 . S
C372 C373 1.394 . S
C372 C377 1.373 . S
C373 C372 1.394 . S
C373 C374 1.380 . S
C373 H396 0.930 . S
C374 C373 1.380 . S
C374 C375 1.376 . S
C374 H397 0.930 . S
C375 C374 1.376 . S
C375 C376 1.370 . S
C376 C375 1.370 . S
C376 C377 1.396 . S
C376 H398 0.929 . S
C377 C372 1.373 . S
C377 C376 1.396 . S
C377 H399 0.929 . S
C378 O388 1.240 . S
C378 O389 1.289 . S
C379 O390 1.258 . S
C379 O391 1.256 . S
O380 La360 2.521 . S
O380 C362 1.261 . S
O381 La360 2.628 . S
O381 C362 1.243 . S
O382 La360 2.554 . S
O382 C369 1.240 . S
O383 La360 2.757 . S
O383 La361 2.482 . S
O383 C369 1.289 . S
O384 La360 2.470 . S
O384 C370 1.258 . S
O385 La361 2.503 . S
O385 C370 1.256 . S
O386 La361 2.521 . S
O386 C371 1.261 . S
O387 La361 2.628 . S
O387 C371 1.243 . S
O388 La361 2.554 . S
O388 C378 1.240 . S
O389 La360 2.482 . S
O389 La361 2.757 . S
O389 C378 1.289 . S
O390 La361 2.470 . S
O390 C379 1.258 . S
O391 La360 2.503 . S
O391 C379 1.256 . S
H392 C364 0.930 . S
H393 C365 0.930 . S
H394 C367 0.929 . S
H395 C368 0.929 . S
H396 C373 0.930 . S
H397 C374 0.930 . S
H398 C376 0.929 . S
H399 C377 0.929 . S
La400 C402 2.928 . S
La400 O420 2.521 . S
La400 O421 2.628 . S
La400 O422 2.554 . S
La400 O423 2.757 . S
La400 O424 2.470 . S
La400 O429 2.482 . S
La400 O431 2.503 . S
La401 C411 2.928 . S
La401 O423 2.482 . S
La401 O425 2.503 . S
La401 O426 2.521 . S
La401 O427 2.628 . S
La401 O428 2.554 . S
La401 O429 2.757 . S
La401 O430 2.470 . S
C402 La400 2.928 . S
C402 C403 1.503 . S
C402 O420 1.261 . S
C402 O421 1.243 . S
C403 C402 1.503 . S
C403 C404 1.394 . S
C403 C408 1.373 . S
C404 C403 1.394 . S
C404 C405 1.380 . S
C404 H432 0.930 . S
C405 C404 1.380 . S
C405 C406 1.376 . S
C405 H433 0.930 . S
C406 C405 1.376 . S
C406 C407 1.370 . S
C407 C406 1.370 . S
C407 C408 1.396 . S
C407 H434 0.929 . S
C408 C403 1.373 . S
C408 C407 1.396 . S
C408 H435 0.929 . S
C409 O422 1.240 . S
C409 O423 1.289 . S
C410 O424 1.258 . S
C410 O425 1.256 . S
C411 La401 2.928 . S
C411 C412 1.503 . S
C411 O426 1.261 . S
C411 O427 1.243 . S
C412 C411 1.503 . S
C412 C413 1.394 . S
C412 C417 1.373 . S
C413 C412 1.394 . S
C413 C414 1.380 . S
C413 H436 0.930 . S
C414 C413 1.380 . S
C414 C415 1.376 . S
C414 H437 0.930 . S
C415 C414 1.376 . S
C415 C416 1.370 . S
C416 C415 1.370 . S
C416 C417 1.396 . S
C416 H438 0.929 . S
C417 C412 1.373 . S
C417 C416 1.396 . S
C417 H439 0.929 . S
C418 O428 1.240 . S
C418 O429 1.289 . S
C419 O430 1.258 . S
C419 O431 1.256 . S
O420 La400 2.521 . S
O420 C402 1.261 . S
O421 La400 2.628 . S
O421 C402 1.243 . S
O422 La400 2.554 . S
O422 C409 1.240 . S
O423 La400 2.757 . S
O423 La401 2.482 . S
O423 C409 1.289 . S
O424 La400 2.470 . S
O424 C410 1.258 . S
O425 La401 2.503 . S
O425 C410 1.256 . S
O426 La401 2.521 . S
O426 C411 1.261 . S
O427 La401 2.628 . S
O427 C411 1.243 . S
O428 La401 2.554 . S
O428 C418 1.240 . S
O429 La400 2.482 . S
O429 La401 2.757 . S
O429 C418 1.289 . S
O430 La401 2.470 . S
O430 C419 1.258 . S
O431 La400 2.503 . S
O431 C419 1.256 . S
H432 C404 0.930 . S
H433 C405 0.930 . S
H434 C407 0.929 . S
H435 C408 0.929 . S
H436 C413 0.930 . S
H437 C414 0.930 . S
H438 C416 0.929 . S
H439 C417 0.929 . S
La440 C442 2.928 1_554 S
La440 O460 2.521 . S
La440 O461 2.628 . S
La440 O462 2.554 . S
La440 O463 2.757 . S
La440 O464 2.470 . S
La440 O469 2.482 . S
La440 O471 2.503 . S
La441 C451 2.928 . S
La441 O463 2.482 . S
La441 O465 2.503 . S
La441 O466 2.521 . S
La441 O467 2.628 . S
La441 O468 2.554 . S
La441 O469 2.757 . S
La441 O470 2.470 . S
C442 La440 2.928 1_556 S
C442 C443 1.503 . S
C442 O460 1.261 1_556 S
C442 O461 1.243 1_556 S
C443 C442 1.503 . S
C443 C444 1.394 . S
C443 C448 1.373 . S
C444 C443 1.394 . S
C444 C445 1.380 . S
C444 H472 0.930 . S
C445 C444 1.380 . S
C445 C446 1.376 . S
C445 H473 0.930 . S
C446 C445 1.376 . S
C446 C447 1.370 . S
C447 C446 1.370 . S
C447 C448 1.396 . S
C447 H474 0.929 . S
C448 C443 1.373 . S
C448 C447 1.396 . S
C448 H475 0.929 . S
C449 O462 1.240 . S
C449 O463 1.289 . S
C450 O464 1.258 . S
C450 O465 1.256 . S
C451 La441 2.928 . S
C451 C452 1.503 . S
C451 O466 1.261 . S
C451 O467 1.243 . S
C452 C451 1.503 . S
C452 C453 1.394 . S
C452 C457 1.373 . S
C453 C452 1.394 . S
C453 C454 1.380 . S
C453 H476 0.930 . S
C454 C453 1.380 . S
C454 C455 1.376 . S
C454 H477 0.930 . S
C455 C454 1.376 . S
C455 C456 1.370 . S
C456 C455 1.370 . S
C456 C457 1.396 . S
C456 H478 0.929 . S
C457 C452 1.373 . S
C457 C456 1.396 . S
C457 H479 0.929 . S
C458 O468 1.240 . S
C458 O469 1.289 . S
C459 O470 1.258 . S
C459 O471 1.256 . S
O460 La440 2.521 . S
O460 C442 1.261 1_554 S
O461 La440 2.628 . S
O461 C442 1.243 1_554 S
O462 La440 2.554 . S
O462 C449 1.240 . S
O463 La440 2.757 . S
O463 La441 2.482 . S
O463 C449 1.289 . S
O464 La440 2.470 . S
O464 C450 1.258 . S
O465 La441 2.503 . S
O465 C450 1.256 . S
O466 La441 2.521 . S
O466 C451 1.261 . S
O467 La441 2.628 . S
O467 C451 1.243 . S
O468 La441 2.554 . S
O468 C458 1.240 . S
O469 La440 2.482 . S
O469 La441 2.757 . S
O469 C458 1.289 . S
O470 La441 2.470 . S
O470 C459 1.258 . S
O471 La440 2.503 . S
O471 C459 1.256 . S
H472 C444 0.930 . S
H473 C445 0.930 . S
H474 C447 0.929 . S
H475 C448 0.929 . S
H476 C453 0.930 . S
H477 C454 0.930 . S
H478 C456 0.929 . S
H479 C457 0.929 . S
H480 C492 0.930 . S
H481 C494 0.930 . S
H482 C495 0.930 . S
H483 C499 0.959 . S
H484 C499 0.959 . S
H485 C499 0.961 . S
H486 C500 0.960 . S
H487 C500 0.961 . S
H488 C500 0.959 . S
H489 C503 0.929 . S
H490 C504 0.931 . S
H491 C506 0.930 . S
C492 H480 0.930 . S
C492 C493 1.399 . S
C492 C497 1.399 . S
C493 C492 1.399 . S
C493 C494 1.376 . S
C494 H481 0.930 . S
C494 C493 1.376 . S
C494 C495 1.388 . S
C495 H482 0.930 . S
C495 C494 1.388 . S
C495 C496 1.390 . S
C496 C495 1.390 . S
C496 C497 1.394 . S
C496 C502 1.465 . S
C497 C492 1.399 . S
C497 C496 1.394 . S
C497 C498 1.516 . S
C498 C497 1.516 . S
C498 C499 1.502 . S
C498 C500 1.561 . S
C498 C501 1.526 . S
C499 H483 0.959 . S
C499 H484 0.959 . S
C499 H485 0.961 . S
C499 C498 1.502 . S
C500 H486 0.960 . S
C500 H487 0.961 . S
C500 H488 0.959 . S
C500 C498 1.561 . S
C501 C498 1.526 . S
C501 C502 1.396 . S
C501 C506 1.390 . S
C502 C496 1.465 . S
C502 C501 1.396 . S
C502 C503 1.399 . S
C503 H489 0.929 . S
C503 C502 1.399 . S
C503 C504 1.385 . S
C504 H490 0.931 . S
C504 C503 1.385 . S
C504 C505 1.389 . S
C505 C504 1.389 . S
C505 C506 1.387 . S
C506 H491 0.930 . S
C506 C501 1.390 . S
C506 C505 1.387 . S
H507 C519 0.930 . S
H508 C521 0.930 . S
H509 C522 0.930 . S
H510 C526 0.959 . S
H511 C526 0.959 . S
H512 C526 0.961 . S
H513 C527 0.960 . S
H514 C527 0.961 . S
H515 C527 0.959 . S
H516 C530 0.929 . S
H517 C531 0.931 . S
H518 C533 0.930 . S
C519 H507 0.930 . S
C519 C520 1.399 . S
C519 C524 1.399 . S
C520 C519 1.399 . S
C520 C521 1.376 . S
C521 H508 0.930 . S
C521 C520 1.376 . S
C521 C522 1.388 . S
C522 H509 0.930 . S
C522 C521 1.388 . S
C522 C523 1.390 . S
C523 C522 1.390 . S
C523 C524 1.394 . S
C523 C529 1.465 . S
C524 C519 1.399 . S
C524 C523 1.394 . S
C524 C525 1.516 . S
C525 C524 1.516 . S
C525 C526 1.502 . S
C525 C527 1.561 . S
C525 C528 1.526 . S
C526 H510 0.959 . S
C526 H511 0.959 . S
C526 H512 0.961 . S
C526 C525 1.502 . S
C527 H513 0.960 . S
C527 H514 0.961 . S
C527 H515 0.959 . S
C527 C525 1.561 . S
C528 C525 1.526 . S
C528 C529 1.396 . S
C528 C533 1.390 . S
C529 C523 1.465 . S
C529 C528 1.396 . S
C529 C530 1.399 . S
C530 H516 0.929 . S
C530 C529 1.399 . S
C530 C531 1.385 . S
C531 H517 0.931 . S
C531 C530 1.385 . S
C531 C532 1.389 . S
C532 C531 1.389 . S
C532 C533 1.387 . S
C533 H518 0.930 . S
C533 C528 1.390 . S
C533 C532 1.387 . S
H534 C546 0.930 . S
H535 C548 0.930 . S
H536 C549 0.930 . S
H537 C553 0.959 . S
H538 C553 0.959 . S
H539 C553 0.961 . S
H540 C554 0.960 . S
H541 C554 0.961 . S
H542 C554 0.959 . S
H543 C557 0.929 . S
H544 C558 0.931 . S
H545 C560 0.930 . S
C546 H534 0.930 . S
C546 C547 1.399 . S
C546 C551 1.399 . S
C547 C546 1.399 . S
C547 C548 1.376 . S
C548 H535 0.930 . S
C548 C547 1.376 . S
C548 C549 1.388 . S
C549 H536 0.930 . S
C549 C548 1.388 . S
C549 C550 1.390 . S
C550 C549 1.390 . S
C550 C551 1.394 . S
C550 C556 1.465 . S
C551 C546 1.399 . S
C551 C550 1.394 . S
C551 C552 1.516 . S
C552 C551 1.516 . S
C552 C553 1.502 . S
C552 C554 1.561 . S
C552 C555 1.526 . S
C553 H537 0.959 . S
C553 H538 0.959 . S
C553 H539 0.961 . S
C553 C552 1.502 . S
C554 H540 0.960 . S
C554 H541 0.961 . S
C554 H542 0.959 . S
C554 C552 1.561 . S
C555 C552 1.526 . S
C555 C556 1.396 . S
C555 C560 1.390 . S
C556 C550 1.465 . S
C556 C555 1.396 . S
C556 C557 1.399 . S
C557 H543 0.929 . S
C557 C556 1.399 . S
C557 C558 1.385 . S
C558 H544 0.931 . S
C558 C557 1.385 . S
C558 C559 1.389 . S
C559 C558 1.389 . S
C559 C560 1.387 . S
C560 H545 0.930 . S
C560 C555 1.390 . S
C560 C559 1.387 . S
H561 C573 0.930 . S
H562 C575 0.930 . S
H563 C576 0.930 . S
H564 C580 0.959 . S
H565 C580 0.959 . S
H566 C580 0.961 . S
H567 C581 0.960 . S
H568 C581 0.961 . S
H569 C581 0.959 . S
H570 C584 0.929 . S
H571 C585 0.931 . S
H572 C587 0.930 . S
C573 H561 0.930 . S
C573 C574 1.399 . S
C573 C578 1.399 . S
C574 C573 1.399 . S
C574 C575 1.376 . S
C575 H562 0.930 . S
C575 C574 1.376 . S
C575 C576 1.388 . S
C576 H563 0.930 . S
C576 C575 1.388 . S
C576 C577 1.390 . S
C577 C576 1.390 . S
C577 C578 1.394 . S
C577 C583 1.465 . S
C578 C573 1.399 . S
C578 C577 1.394 . S
C578 C579 1.516 . S
C579 C578 1.516 . S
C579 C580 1.502 . S
C579 C581 1.561 . S
C579 C582 1.526 . S
C580 H564 0.959 . S
C580 H565 0.959 . S
C580 H566 0.961 . S
C580 C579 1.502 . S
C581 H567 0.960 . S
C581 H568 0.961 . S
C581 H569 0.959 . S
C581 C579 1.561 . S
C582 C579 1.526 . S
C582 C583 1.396 . S
C582 C587 1.390 . S
C583 C577 1.465 . S
C583 C582 1.396 . S
C583 C584 1.399 . S
C584 H570 0.929 . S
C584 C583 1.399 . S
C584 C585 1.385 . S
C585 H571 0.931 . S
C585 C584 1.385 . S
C585 C586 1.389 . S
C586 C585 1.389 . S
C586 C587 1.387 . S
C587 H572 0.930 . S
C587 C582 1.390 . S
C587 C586 1.387 . S
H588 C600 0.930 . S
H589 C602 0.930 . S
H590 C603 0.930 . S
H591 C607 0.959 . S
H592 C607 0.959 . S
H593 C607 0.961 . S
H594 C608 0.960 . S
H595 C608 0.961 . S
H596 C608 0.959 . S
H597 C611 0.929 . S
H598 C612 0.931 . S
H599 C614 0.930 . S
C600 H588 0.930 . S
C600 C601 1.399 . S
C600 C605 1.399 . S
C601 C600 1.399 . S
C601 C602 1.376 . S
C602 H589 0.930 . S
C602 C601 1.376 . S
C602 C603 1.388 . S
C603 H590 0.930 . S
C603 C602 1.388 . S
C603 C604 1.390 . S
C604 C603 1.390 . S
C604 C605 1.394 . S
C604 C610 1.465 . S
C605 C600 1.399 . S
C605 C604 1.394 . S
C605 C606 1.516 . S
C606 C605 1.516 . S
C606 C607 1.502 . S
C606 C608 1.561 . S
C606 C609 1.526 . S
C607 H591 0.959 . S
C607 H592 0.959 . S
C607 H593 0.961 . S
C607 C606 1.502 . S
C608 H594 0.960 . S
C608 H595 0.961 . S
C608 H596 0.959 . S
C608 C606 1.561 . S
C609 C606 1.526 . S
C609 C610 1.396 . S
C609 C614 1.390 . S
C610 C604 1.465 . S
C610 C609 1.396 . S
C610 C611 1.399 . S
C611 H597 0.929 . S
C611 C610 1.399 . S
C611 C612 1.385 . S
C612 H598 0.931 . S
C612 C611 1.385 . S
C612 C613 1.389 . S
C613 C612 1.389 . S
C613 C614 1.387 . S
C614 H599 0.930 . S
C614 C609 1.390 . S
C614 C613 1.387 . S
H615 C627 0.930 . S
H616 C629 0.930 . S
H617 C630 0.930 . S
H618 C634 0.959 . S
H619 C634 0.959 . S
H620 C634 0.961 . S
H621 C635 0.960 . S
H622 C635 0.961 . S
H623 C635 0.959 . S
H624 C638 0.929 . S
H625 C639 0.931 . S
H626 C641 0.930 . S
C627 H615 0.930 . S
C627 C628 1.399 . S
C627 C632 1.399 . S
C628 C627 1.399 . S
C628 C629 1.376 . S
C629 H616 0.930 . S
C629 C628 1.376 . S
C629 C630 1.388 . S
C630 H617 0.930 . S
C630 C629 1.388 . S
C630 C631 1.390 . S
C631 C630 1.390 . S
C631 C632 1.394 . S
C631 C637 1.465 . S
C632 C627 1.399 . S
C632 C631 1.394 . S
C632 C633 1.516 . S
C633 C632 1.516 . S
C633 C634 1.502 . S
C633 C635 1.561 . S
C633 C636 1.526 . S
C634 H618 0.959 . S
C634 H619 0.959 . S
C634 H620 0.961 . S
C634 C633 1.502 . S
C635 H621 0.960 . S
C635 H622 0.961 . S
C635 H623 0.959 . S
C635 C633 1.561 . S
C636 C633 1.526 . S
C636 C637 1.396 . S
C636 C641 1.390 . S
C637 C631 1.465 . S
C637 C636 1.396 . S
C637 C638 1.399 . S
C638 H624 0.929 . S
C638 C637 1.399 . S
C638 C639 1.385 . S
C639 H625 0.931 . S
C639 C638 1.385 . S
C639 C640 1.389 . S
C640 C639 1.389 . S
C640 C641 1.387 . S
C641 H626 0.930 . S
C641 C636 1.390 . S
C641 C640 1.387 . S
H642 C654 0.930 . S
H643 C656 0.930 . S
H644 C657 0.930 . S
H645 C661 0.959 . S
H646 C661 0.959 . S
H647 C661 0.961 . S
H648 C662 0.960 . S
H649 C662 0.966 . S
H650 C662 0.959 . S
H651 C665 0.929 . S
H652 C666 0.931 . S
H653 C668 0.930 . S
C654 H642 0.930 . S
C654 C655 1.399 . S
C654 C659 1.399 . S
C655 C654 1.399 . S
C655 C656 1.376 . S
C656 H643 0.930 . S
C656 C655 1.376 . S
C656 C657 1.388 . S
C657 H644 0.930 . S
C657 C656 1.388 . S
C657 C658 1.390 . S
C658 C657 1.390 . S
C658 C659 1.394 . S
C658 C664 1.465 1_556 S
C659 C654 1.399 . S
C659 C658 1.394 . S
C659 C660 1.516 1_556 S
C660 C659 1.516 1_554 S
C660 C661 1.502 . S
C660 C662 1.561 1_554 S
C660 C663 1.526 . S
C661 H645 0.959 . S
C661 H646 0.959 . S
C661 H647 0.961 . S
C661 C660 1.502 . S
C662 H648 0.960 . S
C662 H649 0.966 . S
C662 H650 0.959 . S
C662 C660 1.561 1_556 S
C663 C660 1.526 . S
C663 C664 1.396 . S
C663 C668 1.390 . S
C664 C658 1.465 1_554 S
C664 C663 1.396 . S
C664 C665 1.399 . S
C665 H651 0.929 . S
C665 C664 1.399 . S
C665 C666 1.385 . S
C666 H652 0.931 . S
C666 C665 1.385 . S
C666 C667 1.389 . S
C667 C666 1.389 . S
C667 C668 1.387 . S
C668 H653 0.930 . S
C668 C663 1.390 . S
C668 C667 1.387 . S
H669 C681 0.930 . S
H670 C683 0.930 . S
H671 C684 0.930 . S
H672 C688 0.959 . S
H673 C688 0.959 . S
H674 C688 0.961 . S
H675 C689 0.960 . S
H676 C689 0.961 . S
H677 C689 0.959 . S
H678 C692 0.929 . S
H679 C693 0.931 . S
H680 C695 0.930 . S
C681 H669 0.930 . S
C681 C682 1.399 . S
C681 C686 1.399 . S
C682 C681 1.399 . S
C682 C683 1.376 . S
C683 H670 0.930 . S
C683 C682 1.376 . S
C683 C684 1.388 . S
C684 H671 0.930 . S
C684 C683 1.388 . S
C684 C685 1.390 . S
C685 C684 1.390 . S
C685 C686 1.394 . S
C685 C691 1.465 . S
C686 C681 1.399 . S
C686 C685 1.394 . S
C686 C687 1.516 . S
C687 C686 1.516 . S
C687 C688 1.502 . S
C687 C689 1.561 . S
C687 C690 1.526 . S
C688 H672 0.959 . S
C688 H673 0.959 . S
C688 H674 0.961 . S
C688 C687 1.502 . S
C689 H675 0.960 . S
C689 H676 0.961 . S
C689 H677 0.959 . S
C689 C687 1.561 . S
C690 C687 1.526 . S
C690 C691 1.396 . S
C690 C695 1.390 . S
C691 C685 1.465 . S
C691 C690 1.396 . S
C691 C692 1.399 . S
C692 H678 0.929 . S
C692 C691 1.399 . S
C692 C693 1.385 . S
C693 H679 0.931 . S
C693 C692 1.385 . S
C693 C694 1.389 . S
C694 C693 1.389 . S
C694 C695 1.387 . S
C695 H680 0.930 . S
C695 C690 1.390 . S
C695 C694 1.387 . S
H696 C708 0.930 . S
H697 C710 0.930 . S
H698 C711 0.930 . S
H699 C715 0.959 . S
H700 C715 0.959 . S
H701 C715 0.961 . S
H702 C716 0.960 . S
H703 C716 0.961 . S
H704 C716 0.959 . S
H705 C719 0.929 . S
H706 C720 0.931 . S
H707 C722 0.930 . S
C708 H696 0.930 . S
C708 C709 1.399 . S
C708 C713 1.399 . S
C709 C708 1.399 . S
C709 C710 1.376 . S
C710 H697 0.930 . S
C710 C709 1.376 . S
C710 C711 1.388 . S
C711 H698 0.930 . S
C711 C710 1.388 . S
C711 C712 1.390 . S
C712 C711 1.390 . S
C712 C713 1.394 . S
C712 C718 1.465 . S
C713 C708 1.399 . S
C713 C712 1.394 . S
C713 C714 1.516 . S
C714 C713 1.516 . S
C714 C715 1.502 . S
C714 C716 1.561 . S
C714 C717 1.526 . S
C715 H699 0.959 . S
C715 H700 0.959 . S
C715 H701 0.961 . S
C715 C714 1.502 . S
C716 H702 0.960 . S
C716 H703 0.961 . S
C716 H704 0.959 . S
C716 C714 1.561 . S
C717 C714 1.526 . S
C717 C718 1.396 . S
C717 C722 1.390 . S
C718 C712 1.465 . S
C718 C717 1.396 . S
C718 C719 1.399 . S
C719 H705 0.929 . S
C719 C718 1.399 . S
C719 C720 1.385 . S
C720 H706 0.931 . S
C720 C719 1.385 . S
C720 C721 1.389 . S
C721 C720 1.389 . S
C721 C722 1.387 . S
C722 H707 0.930 . S
C722 C717 1.390 . S
C722 C721 1.387 . S
H723 C735 0.930 . S
H724 C737 0.930 . S
H725 C738 0.930 . S
H726 C742 0.959 . S
H727 C742 0.959 . S
H728 C742 0.961 . S
H729 C743 0.960 . S
H730 C743 0.961 1_554 S
H731 C743 0.959 . S
H732 C746 0.929 . S
H733 C747 0.931 . S
H734 C749 0.930 . S
C735 H723 0.930 . S
C735 C736 1.399 . S
C735 C740 1.399 . S
C736 C735 1.399 . S
C736 C737 1.376 . S
C737 H724 0.930 . S
C737 C736 1.376 . S
C737 C738 1.388 . S
C738 H725 0.930 . S
C738 C737 1.388 . S
C738 C739 1.390 . S
C739 C738 1.390 . S
C739 C740 1.394 . S
C739 C745 1.465 1_556 S
C740 C735 1.399 . S
C740 C739 1.394 . S
C740 C741 1.516 1_556 S
C741 C740 1.516 1_554 S
C741 C742 1.502 . S
C741 C743 1.561 1_554 S
C741 C744 1.526 . S
C742 H726 0.959 . S
C742 H727 0.959 . S
C742 H728 0.961 . S
C742 C741 1.502 . S
C743 H729 0.960 . S
C743 H730 0.961 1_556 S
C743 H731 0.959 . S
C743 C741 1.561 1_556 S
C744 C741 1.526 . S
C744 C745 1.396 . S
C744 C749 1.390 . S
C745 C739 1.465 1_554 S
C745 C744 1.396 . S
C745 C746 1.399 . S
C746 H732 0.929 . S
C746 C745 1.399 . S
C746 C747 1.385 . S
C747 H733 0.931 . S
C747 C746 1.385 . S
C747 C748 1.389 . S
C748 C747 1.389 . S
C748 C749 1.387 . S
C749 H734 0.930 . S
C749 C744 1.390 . S
C749 C748 1.387 . S
H750 C762 0.930 . S
H751 C764 0.930 . S
H752 C765 0.930 . S
H753 C769 0.959 . S
H754 C769 0.959 . S
H755 C769 0.961 . S
H756 C770 0.960 . S
H757 C770 0.961 . S
H758 C770 0.959 . S
H759 C773 0.929 . S
H760 C774 0.931 . S
H761 C776 0.930 . S
C762 H750 0.930 . S
C762 C763 1.399 . S
C762 C767 1.399 . S
C763 C762 1.399 . S
C763 C764 1.376 . S
C764 H751 0.930 . S
C764 C763 1.376 . S
C764 C765 1.388 . S
C765 H752 0.930 . S
C765 C764 1.388 . S
C765 C766 1.390 . S
C766 C765 1.390 . S
C766 C767 1.394 . S
C766 C772 1.465 . S
C767 C762 1.399 . S
C767 C766 1.394 . S
C767 C768 1.516 . S
C768 C767 1.516 . S
C768 C769 1.502 . S
C768 C770 1.561 . S
C768 C771 1.526 . S
C769 H753 0.959 . S
C769 H754 0.959 . S
C769 H755 0.961 . S
C769 C768 1.502 . S
C770 H756 0.960 . S
C770 H757 0.961 . S
C770 H758 0.959 . S
C770 C768 1.561 . S
C771 C768 1.526 . S
C771 C772 1.396 . S
C771 C776 1.390 . S
C772 C766 1.465 . S
C772 C771 1.396 . S
C772 C773 1.399 . S
C773 H759 0.929 . S
C773 C772 1.399 . S
C773 C774 1.385 . S
C774 H760 0.931 . S
C774 C773 1.385 . S
C774 C775 1.389 . S
C775 C774 1.389 . S
C775 C776 1.387 . S
C776 H761 0.930 . S
C776 C771 1.390 . S
C776 C775 1.387 . S
H777 C789 0.930 . S
H778 C791 0.930 . S
H779 C792 0.930 . S
H780 C796 0.959 . S
H781 C796 0.959 . S
H782 C796 0.961 . S
H783 C797 0.960 . S
H784 C797 0.961 . S
H785 C797 0.959 . S
H786 C800 0.929 . S
H787 C801 0.931 . S
H788 C803 0.930 . S
C789 H777 0.930 . S
C789 C790 1.399 . S
C789 C794 1.399 . S
C790 C789 1.399 . S
C790 C791 1.376 . S
C791 H778 0.930 . S
C791 C790 1.376 . S
C791 C792 1.388 . S
C792 H779 0.930 . S
C792 C791 1.388 . S
C792 C793 1.390 . S
C793 C792 1.390 . S
C793 C794 1.394 . S
C793 C799 1.465 . S
C794 C789 1.399 . S
C794 C793 1.394 . S
C794 C795 1.516 . S
C795 C794 1.516 . S
C795 C796 1.502 . S
C795 C797 1.561 . S
C795 C798 1.526 . S
C796 H780 0.959 . S
C796 H781 0.959 . S
C796 H782 0.961 . S
C796 C795 1.502 . S
C797 H783 0.960 . S
C797 H784 0.961 . S
C797 H785 0.959 . S
C797 C795 1.561 . S
C798 C795 1.526 . S
C798 C799 1.396 . S
C798 C803 1.390 . S
C799 C793 1.465 . S
C799 C798 1.396 . S
C799 C800 1.399 . S
C800 H786 0.929 . S
C800 C799 1.399 . S
C800 C801 1.385 . S
C801 H787 0.931 . S
C801 C800 1.385 . S
C801 C802 1.389 . S
C802 C801 1.389 . S
C802 C803 1.387 . S
C803 H788 0.930 . S
C803 C798 1.390 . S
C803 C802 1.387 . S
H804 C816 0.930 . S
H805 C818 0.930 1_545 S
H806 C819 0.930 . S
H807 C823 0.959 . S
H808 C823 0.959 . S
H809 C823 0.961 . S
H810 C824 0.960 . S
H811 C824 0.961 . S
H812 C824 0.959 . S
H813 C827 0.929 1_556 S
H814 C828 0.931 . S
H815 C830 0.930 1_565 S
C816 H804 0.930 . S
C816 C817 1.399 . S
C816 C821 1.399 . S
C817 C816 1.399 . S
C817 C818 1.376 . S
C818 H805 0.930 1_565 S
C818 C817 1.376 . S
C818 C819 1.388 1_565 S
C819 H806 0.930 . S
C819 C818 1.388 1_545 S
C819 C820 1.390 . S
C820 C819 1.390 . S
C820 C821 1.394 1_545 S
C820 C826 1.465 1_556 S
C821 C816 1.399 . S
C821 C820 1.394 1_565 S
C821 C822 1.516 1_556 S
C822 C821 1.516 1_554 S
C822 C823 1.502 . S
C822 C824 1.561 . S
C822 C825 1.523 . S
C823 H807 0.959 . S
C823 H808 0.959 . S
C823 H809 0.961 . S
C823 C822 1.502 . S
C824 H810 0.960 . S
C824 H811 0.961 . S
C824 H812 0.959 . S
C824 C822 1.561 . S
C825 C822 1.523 . S
C825 C826 1.398 1_565 S
C825 C830 1.391 1_565 S
C826 C820 1.465 1_554 S
C826 C825 1.398 1_545 S
C826 C827 1.399 . S
C827 H813 0.929 1_554 S
C827 C826 1.399 . S
C827 C828 1.385 . S
C828 H814 0.931 . S
C828 C827 1.385 . S
C828 C829 1.389 . S
C829 C828 1.389 . S
C829 C830 1.387 . S
C830 H815 0.930 1_545 S
C830 C825 1.391 1_545 S
C830 C829 1.387 . S
H831 C843 0.930 . S
H832 C845 0.930 . S
H833 C846 0.930 . S
H834 C850 0.959 . S
H835 C850 0.959 . S
H836 C850 0.961 . S
H837 C851 0.960 . S
H838 C851 0.961 . S
H839 C851 0.959 . S
H840 C854 0.929 . S
H841 C855 0.931 . S
H842 C857 0.930 . S
C843 H831 0.930 . S
C843 C844 1.399 . S
C843 C848 1.399 . S
C844 C843 1.399 . S
C844 C845 1.376 . S
C845 H832 0.930 . S
C845 C844 1.376 . S
C845 C846 1.388 . S
C846 H833 0.930 . S
C846 C845 1.388 . S
C846 C847 1.390 . S
C847 C846 1.390 . S
C847 C848 1.394 . S
C847 C853 1.465 . S
C848 C843 1.399 . S
C848 C847 1.394 . S
C848 C849 1.516 . S
C849 C848 1.516 . S
C849 C850 1.502 . S
C849 C851 1.561 . S
C849 C852 1.526 . S
C850 H834 0.959 . S
C850 H835 0.959 . S
C850 H836 0.961 . S
C850 C849 1.502 . S
C851 H837 0.960 . S
C851 H838 0.961 . S
C851 H839 0.959 . S
C851 C849 1.561 . S
C852 C849 1.526 . S
C852 C853 1.396 . S
C852 C857 1.390 . S
C853 C847 1.465 . S
C853 C852 1.396 . S
C853 C854 1.399 . S
C854 H840 0.929 . S
C854 C853 1.399 . S
C854 C855 1.385 . S
C855 H841 0.931 . S
C855 C854 1.385 . S
C855 C856 1.389 . S
C856 C855 1.389 . S
C856 C857 1.387 . S
C857 H842 0.930 . S
C857 C852 1.390 . S
C857 C856 1.387 . S
H858 C870 0.930 . S
H859 C872 0.930 . S
H860 C873 0.930 . S
H861 C877 0.959 . S
H862 C877 0.959 . S
H863 C877 0.961 . S
H864 C878 0.960 . S
H865 C878 0.961 . S
H866 C878 0.959 1_655 S
H867 C881 0.929 . S
H868 C882 0.931 . S
H869 C884 0.930 . S
C870 H858 0.930 . S
C870 C871 1.399 . S
C870 C875 1.399 . S
C871 C870 1.399 . S
C871 C872 1.376 . S
C872 H859 0.930 . S
C872 C871 1.376 . S
C872 C873 1.388 1_455 S
C873 H860 0.930 . S
C873 C872 1.388 1_655 S
C873 C874 1.390 . S
C874 C873 1.390 . S
C874 C875 1.394 1_655 S
C874 C880 1.465 . S
C875 C870 1.399 . S
C875 C874 1.394 1_455 S
C875 C876 1.516 . S
C876 C875 1.516 . S
C876 C877 1.502 . S
C876 C878 1.561 . S
C876 C879 1.526 1_455 S
C877 H861 0.959 . S
C877 H862 0.959 . S
C877 H863 0.961 . S
C877 C876 1.502 . S
C878 H864 0.960 . S
C878 H865 0.961 . S
C878 H866 0.959 1_455 S
C878 C876 1.561 . S
C879 C876 1.526 1_655 S
C879 C880 1.396 . S
C879 C884 1.390 . S
C880 C874 1.465 . S
C880 C879 1.396 . S
C880 C881 1.399 . S
C881 H867 0.929 . S
C881 C880 1.399 . S
C881 C882 1.385 . S
C882 H868 0.931 . S
C882 C881 1.385 . S
C882 C883 1.389 . S
C883 C882 1.389 . S
C883 C884 1.387 . S
C884 H869 0.930 . S
C884 C879 1.390 . S
C884 C883 1.387 . S
H885 C897 0.930 . S
H886 C899 0.930 . S
H887 C900 0.930 . S
H888 C904 0.959 1_566 S
H889 C904 0.959 1_556 S
H890 C904 0.961 . S
H891 C905 0.960 . S
H892 C905 0.961 . S
H893 C905 0.959 . S
H894 C908 0.929 1_565 S
H895 C909 0.931 . S
H896 C911 0.930 . S
C897 H885 0.930 . S
C897 C898 1.399 . S
C897 C902 1.399 . S
C898 C897 1.399 . S
C898 C899 1.376 . S
C899 H886 0.930 . S
C899 C898 1.376 . S
C899 C900 1.388 . S
C900 H887 0.930 . S
C900 C899 1.388 . S
C900 C901 1.390 . S
C901 C900 1.390 . S
C901 C902 1.394 . S
C901 C907 1.465 1_564 S
C902 C897 1.399 . S
C902 C901 1.394 . S
C902 C903 1.516 1_565 S
C903 C902 1.516 1_545 S
C903 C904 1.502 . S
C903 C905 1.561 . S
C903 C906 1.526 1_554 S
C904 H888 0.959 1_544 S
C904 H889 0.959 1_554 S
C904 H890 0.961 . S
C904 C903 1.502 . S
C905 H891 0.960 . S
C905 H892 0.961 . S
C905 H893 0.959 . S
C905 C903 1.561 . S
C906 C903 1.526 1_556 S
C906 C907 1.396 . S
C906 C911 1.390 . S
C907 C901 1.465 1_546 S
C907 C906 1.396 . S
C907 C908 1.399 . S
C908 H894 0.929 1_545 S
C908 C907 1.399 . S
C908 C909 1.385 . S
C909 H895 0.931 . S
C909 C908 1.385 . S
C909 C910 1.389 . S
C910 C909 1.389 . S
C910 C911 1.387 . S
C911 H896 0.930 . S
C911 C906 1.390 . S
C911 C910 1.387 . S
H912 C924 0.930 . S
H913 C926 0.930 . S
H914 C927 0.930 . S
H915 C931 0.959 . S
H916 C931 0.959 . S
H917 C931 0.961 . S
H918 C932 0.960 . S
H919 C932 0.961 . S
H920 C932 0.959 . S
H921 C935 0.929 . S
H922 C936 0.931 . S
H923 C938 0.930 . S
C924 H912 0.930 . S
C924 C925 1.399 . S
C924 C929 1.399 . S
C925 C924 1.399 . S
C925 C926 1.376 . S
C926 H913 0.930 . S
C926 C925 1.376 . S
C926 C927 1.388 . S
C927 H914 0.930 . S
C927 C926 1.388 . S
C927 C928 1.390 . S
C928 C927 1.390 . S
C928 C929 1.394 . S
C928 C934 1.465 . S
C929 C924 1.399 . S
C929 C928 1.394 . S
C929 C930 1.516 . S
C930 C929 1.516 . S
C930 C931 1.502 . S
C930 C932 1.561 . S
C930 C933 1.526 . S
C931 H915 0.959 . S
C931 H916 0.959 . S
C931 H917 0.961 . S
C931 C930 1.502 . S
C932 H918 0.960 . S
C932 H919 0.961 . S
C932 H920 0.959 . S
C932 C930 1.561 . S
C933 C930 1.526 . S
C933 C934 1.396 . S
C933 C938 1.390 . S
C934 C928 1.465 . S
C934 C933 1.396 . S
C934 C935 1.399 . S
C935 H921 0.929 . S
C935 C934 1.399 . S
C935 C936 1.385 . S
C936 H922 0.931 . S
C936 C935 1.385 . S
C936 C937 1.389 . S
C937 C936 1.389 . S
C937 C938 1.387 . S
C938 H923 0.930 . S
C938 C933 1.390 . S
C938 C937 1.387 . S
H939 C951 0.930 1_655 S
H940 C953 0.930 . S
H941 C954 0.930 . S
H942 C958 0.959 . S
H943 C958 0.959 . S
H944 C958 0.961 . S
H945 C959 0.960 . S
H946 C959 0.961 . S
H947 C959 0.959 . S
H948 C962 0.929 . S
H949 C963 0.931 1_455 S
H950 C965 0.930 . S
C951 H939 0.930 1_455 S
C951 C952 1.399 . S
C951 C956 1.394 1_455 S
C952 C951 1.399 . S
C952 C953 1.376 . S
C953 H940 0.930 . S
C953 C952 1.376 . S
C953 C954 1.388 . S
C954 H941 0.930 . S
C954 C953 1.388 . S
C954 C955 1.390 . S
C955 C954 1.390 . S
C955 C956 1.384 1_455 S
C955 C961 1.465 . S
C956 C951 1.394 1_655 S
C956 C955 1.384 1_655 S
C956 C957 1.531 . S
C957 C956 1.531 . S
C957 C958 1.502 . S
C957 C959 1.561 . S
C957 C960 1.526 . S
C958 H942 0.959 . S
C958 H943 0.959 . S
C958 H944 0.961 . S
C958 C957 1.502 . S
C959 H945 0.960 . S
C959 H946 0.961 . S
C959 H947 0.959 . S
C959 C957 1.561 . S
C960 C957 1.526 . S
C960 C961 1.396 1_655 S
C960 C965 1.390 . S
C961 C955 1.465 . S
C961 C960 1.396 1_455 S
C961 C962 1.399 . S
C962 H948 0.929 . S
C962 C961 1.399 . S
C962 C963 1.385 1_455 S
C963 H949 0.931 1_655 S
C963 C962 1.385 1_655 S
C963 C964 1.389 . S
C964 C963 1.389 . S
C964 C965 1.387 . S
C965 H950 0.930 . S
C965 C960 1.390 . S
C965 C964 1.387 . S
H966 C978 0.930 . S
H967 C980 0.930 . S
H968 C981 0.930 . S
H969 C985 0.959 . S
H970 C985 0.959 . S
H971 C985 0.961 . S
H972 C986 0.960 . S
H973 C986 0.961 . S
H974 C986 0.959 . S
H975 C989 0.929 . S
H976 C990 0.931 . S
H977 C992 0.930 . S
C978 H966 0.930 . S
C978 C979 1.399 . S
C978 C983 1.399 . S
C979 C978 1.399 . S
C979 C980 1.376 . S
C980 H967 0.930 . S
C980 C979 1.376 . S
C980 C981 1.388 1_545 S
C981 H968 0.930 . S
C981 C980 1.388 1_565 S
C981 C982 1.390 . S
C982 C981 1.390 . S
C982 C983 1.394 1_565 S
C982 C988 1.465 . S
C983 C978 1.399 . S
C983 C982 1.394 1_545 S
C983 C984 1.516 . S
C984 C983 1.516 . S
C984 C985 1.502 . S
C984 C986 1.561 . S
C984 C987 1.526 1_545 S
C985 H969 0.959 . S
C985 H970 0.959 . S
C985 H971 0.961 . S
C985 C984 1.502 . S
C986 H972 0.960 . S
C986 H973 0.961 . S
C986 H974 0.959 . S
C986 C984 1.561 . S
C987 C984 1.526 1_565 S
C987 C988 1.396 . S
C987 C992 1.390 . S
C988 C982 1.465 . S
C988 C987 1.396 . S
C988 C989 1.399 . S
C989 H975 0.929 . S
C989 C988 1.399 . S
C989 C990 1.385 . S
C990 H976 0.931 . S
C990 C989 1.385 . S
C990 C991 1.389 . S
C991 C990 1.389 . S
C991 C992 1.387 . S
C992 H977 0.930 . S
C992 C987 1.390 . S
C992 C991 1.387 . S
H993 C1005 0.930 . S
H994 C1007 0.930 . S
H995 C1008 0.930 . S
H996 C1012 0.959 . S
H997 C1012 0.959 . S
H998 C1012 0.961 . S
H999 C1013 0.960 . S
H1000 C1013 0.961 . S
H1001 C1013 0.959 . S
H1002 C1016 0.929 . S
H1003 C1017 0.931 . S
H1004 C1019 0.930 . S
C1005 H993 0.930 . S
C1005 C1006 1.399 . S
C1005 C1010 1.399 . S
C1006 C1005 1.399 . S
C1006 C1007 1.376 . S
C1007 H994 0.930 . S
C1007 C1006 1.376 . S
C1007 C1008 1.388 . S
C1008 H995 0.930 . S
C1008 C1007 1.388 . S
C1008 C1009 1.390 . S
C1009 C1008 1.390 . S
C1009 C1010 1.394 . S
C1009 C1015 1.465 . S
C1010 C1005 1.399 . S
C1010 C1009 1.394 . S
C1010 C1011 1.516 . S
C1011 C1010 1.516 . S
C1011 C1012 1.502 . S
C1011 C1013 1.561 . S
C1011 C1014 1.526 . S
C1012 H996 0.959 . S
C1012 H997 0.959 . S
C1012 H998 0.961 . S
C1012 C1011 1.502 . S
C1013 H999 0.960 . S
C1013 H1000 0.961 . S
C1013 H1001 0.959 . S
C1013 C1011 1.561 . S
C1014 C1011 1.526 . S
C1014 C1015 1.396 . S
C1014 C1019 1.390 . S
C1015 C1009 1.465 . S
C1015 C1014 1.396 . S
C1015 C1016 1.399 . S
C1016 H1002 0.929 . S
C1016 C1015 1.399 . S
C1016 C1017 1.385 . S
C1017 H1003 0.931 . S
C1017 C1016 1.385 . S
C1017 C1018 1.389 . S
C1018 C1017 1.389 . S
C1018 C1019 1.387 . S
C1019 H1004 0.930 . S
C1019 C1014 1.390 . S
C1019 C1018 1.387 . S
H1020 C1032 0.930 . S
H1021 C1034 0.930 . S
H1022 C1035 0.930 . S
H1023 C1039 0.959 1_455 S
H1024 C1039 0.959 . S
H1025 C1039 0.961 . S
H1026 C1040 0.960 . S
H1027 C1040 0.961 . S
H1028 C1040 0.959 . S
H1029 C1043 0.929 . S
H1030 C1044 0.931 . S
H1031 C1046 0.930 . S
C1032 H1020 0.930 . S
C1032 C1033 1.399 . S
C1032 C1037 1.399 . S
C1033 C1032 1.399 . S
C1033 C1034 1.376 . S
C1034 H1021 0.930 . S
C1034 C1033 1.376 . S
C1034 C1035 1.388 . S
C1035 H1022 0.930 . S
C1035 C1034 1.388 . S
C1035 C1036 1.390 . S
C1036 C1035 1.390 . S
C1036 C1037 1.394 . S
C1036 C1042 1.465 1_655 S
C1037 C1032 1.399 . S
C1037 C1036 1.394 . S
C1037 C1038 1.516 . S
C1038 C1037 1.516 . S
C1038 C1039 1.502 . S
C1038 C1040 1.561 . S
C1038 C1041 1.526 1_655 S
C1039 H1023 0.959 1_655 S
C1039 H1024 0.959 . S
C1039 H1025 0.961 . S
C1039 C1038 1.502 . S
C1040 H1026 0.960 . S
C1040 H1027 0.961 . S
C1040 H1028 0.959 . S
C1040 C1038 1.561 . S
C1041 C1038 1.526 1_455 S
C1041 C1042 1.396 . S
C1041 C1046 1.390 . S
C1042 C1036 1.465 1_455 S
C1042 C1041 1.396 . S
C1042 C1043 1.399 . S
C1043 H1029 0.929 . S
C1043 C1042 1.399 . S
C1043 C1044 1.385 . S
C1044 H1030 0.931 . S
C1044 C1043 1.385 . S
C1044 C1045 1.389 . S
C1045 C1044 1.389 . S
C1045 C1046 1.387 . S
C1046 H1031 0.930 . S
C1046 C1041 1.390 . S
C1046 C1045 1.387 . S
H1047 C1059 0.930 . S
H1048 C1061 0.930 . S
H1049 C1062 0.930 . S
H1050 C1066 0.959 . S
H1051 C1066 0.959 . S
H1052 C1066 0.961 . S
H1053 C1067 0.960 . S
H1054 C1067 0.961 1_655 S
H1055 C1067 0.959 . S
H1056 C1070 0.929 1_455 S
H1057 C1071 0.931 . S
H1058 C1073 0.930 . S
C1059 H1047 0.930 . S
C1059 C1060 1.399 . S
C1059 C1064 1.399 . S
C1060 C1059 1.399 . S
C1060 C1061 1.376 . S
C1061 H1048 0.930 . S
C1061 C1060 1.376 . S
C1061 C1062 1.388 . S
C1062 H1049 0.930 . S
C1062 C1061 1.388 . S
C1062 C1063 1.390 . S
C1063 C1062 1.390 . S
C1063 C1064 1.394 . S
C1063 C1069 1.465 1_455 S
C1064 C1059 1.399 . S
C1064 C1063 1.394 . S
C1064 C1065 1.516 1_455 S
C1065 C1064 1.516 1_655 S
C1065 C1066 1.502 . S
C1065 C1067 1.561 1_655 S
C1065 C1068 1.526 . S
C1066 H1050 0.959 . S
C1066 H1051 0.959 . S
C1066 H1052 0.961 . S
C1066 C1065 1.502 . S
C1067 H1053 0.960 . S
C1067 H1054 0.961 1_455 S
C1067 H1055 0.959 . S
C1067 C1065 1.561 1_455 S
C1068 C1065 1.526 . S
C1068 C1069 1.396 . S
C1068 C1073 1.390 . S
C1069 C1063 1.465 1_655 S
C1069 C1068 1.396 . S
C1069 C1070 1.399 . S
C1070 H1056 0.929 1_655 S
C1070 C1069 1.399 . S
C1070 C1071 1.385 . S
C1071 H1057 0.931 . S
C1071 C1070 1.385 . S
C1071 C1072 1.389 . S
C1072 C1071 1.389 . S
C1072 C1073 1.387 . S
C1073 H1058 0.930 . S
C1073 C1068 1.390 . S
C1073 C1072 1.387 . S
H1074 C1086 0.930 . S
H1075 C1088 0.930 . S
H1076 C1089 0.930 . S
H1077 C1093 0.959 . S
H1078 C1093 0.959 . S
H1079 C1093 0.961 . S
H1080 C1094 0.960 . S
H1081 C1094 0.961 1_545 S
H1082 C1094 0.959 . S
H1083 C1097 0.929 1_565 S
H1084 C1098 0.931 . S
H1085 C1100 0.930 . S
C1086 H1074 0.930 . S
C1086 C1087 1.399 . S
C1086 C1091 1.399 . S
C1087 C1086 1.399 . S
C1087 C1088 1.376 . S
C1088 H1075 0.930 . S
C1088 C1087 1.376 . S
C1088 C1089 1.388 . S
C1089 H1076 0.930 . S
C1089 C1088 1.388 . S
C1089 C1090 1.390 . S
C1090 C1089 1.390 . S
C1090 C1091 1.394 . S
C1090 C1096 1.465 1_565 S
C1091 C1086 1.399 . S
C1091 C1090 1.394 . S
C1091 C1092 1.516 1_565 S
C1092 C1091 1.516 1_545 S
C1092 C1093 1.502 . S
C1092 C1094 1.561 1_545 S
C1092 C1095 1.526 . S
C1093 H1077 0.959 . S
C1093 H1078 0.959 . S
C1093 H1079 0.961 . S
C1093 C1092 1.502 . S
C1094 H1080 0.960 . S
C1094 H1081 0.961 1_565 S
C1094 H1082 0.959 . S
C1094 C1092 1.561 1_565 S
C1095 C1092 1.526 . S
C1095 C1096 1.396 . S
C1095 C1100 1.390 . S
C1096 C1090 1.465 1_545 S
C1096 C1095 1.396 . S
C1096 C1097 1.399 . S
C1097 H1083 0.929 1_545 S
C1097 C1096 1.399 . S
C1097 C1098 1.385 . S
C1098 H1084 0.931 . S
C1098 C1097 1.385 . S
C1098 C1099 1.389 . S
C1099 C1098 1.389 . S
C1099 C1100 1.387 . S
C1100 H1085 0.930 . S
C1100 C1095 1.390 . S
C1100 C1099 1.387 . S
H1101 C1113 0.930 . S
H1102 C1115 0.930 . S
H1103 C1116 0.930 . S
H1104 C1120 0.959 . S
H1105 C1120 0.959 . S
H1106 C1120 0.961 . S
H1107 C1121 0.960 1_556 S
H1108 C1121 0.961 1_556 S
H1109 C1121 0.959 . S
H1110 C1124 0.929 . S
H1111 C1125 0.931 . S
H1112 C1127 0.930 . S
C1113 H1101 0.930 . S
C1113 C1114 1.399 . S
C1113 C1118 1.399 . S
C1114 C1113 1.399 . S
C1114 C1115 1.376 . S
C1115 H1102 0.930 . S
C1115 C1114 1.376 . S
C1115 C1116 1.388 . S
C1116 H1103 0.930 . S
C1116 C1115 1.388 . S
C1116 C1117 1.390 . S
C1117 C1116 1.390 . S
C1117 C1118 1.394 . S
C1117 C1123 1.465 . S
C1118 C1113 1.399 . S
C1118 C1117 1.394 . S
C1118 C1119 1.516 . S
C1119 C1118 1.516 . S
C1119 C1120 1.502 . S
C1119 C1121 1.561 . S
C1119 C1122 1.526 . S
C1120 H1104 0.959 . S
C1120 H1105 0.959 . S
C1120 H1106 0.961 . S
C1120 C1119 1.502 . S
C1121 H1107 0.960 1_554 S
C1121 H1108 0.961 1_554 S
C1121 H1109 0.959 . S
C1121 C1119 1.561 . S
C1122 C1119 1.526 . S
C1122 C1123 1.396 . S
C1122 C1127 1.390 . S
C1123 C1117 1.465 . S
C1123 C1122 1.396 . S
C1123 C1124 1.399 . S
C1124 H1110 0.929 . S
C1124 C1123 1.399 . S
C1124 C1125 1.385 . S
C1125 H1111 0.931 . S
C1125 C1124 1.385 . S
C1125 C1126 1.389 . S
C1126 C1125 1.389 . S
C1126 C1127 1.387 . S
C1127 H1112 0.930 . S
C1127 C1122 1.390 . S
C1127 C1126 1.387 . S
H1128 C1140 0.930 . S
H1129 C1142 0.930 . S
H1130 C1143 0.930 1_545 S
H1131 C1147 0.959 . S
H1132 C1147 0.959 . S
H1133 C1147 0.961 . S
H1134 C1148 0.960 . S
H1135 C1148 0.961 . S
H1136 C1148 0.959 . S
H1137 C1151 0.929 . S
H1138 C1152 0.931 . S
H1139 C1154 0.930 . S
C1140 H1128 0.930 . S
C1140 C1141 1.399 . S
C1140 C1145 1.399 . S
C1141 C1140 1.399 . S
C1141 C1142 1.376 . S
C1142 H1129 0.930 . S
C1142 C1141 1.376 . S
C1142 C1143 1.388 . S
C1143 H1130 0.930 1_565 S
C1143 C1142 1.388 . S
C1143 C1144 1.390 . S
C1144 C1143 1.390 . S
C1144 C1145 1.394 . S
C1144 C1150 1.465 1_565 S
C1145 C1140 1.399 . S
C1145 C1144 1.394 . S
C1145 C1146 1.516 . S
C1146 C1145 1.516 . S
C1146 C1147 1.502 . S
C1146 C1148 1.561 . S
C1146 C1149 1.526 1_565 S
C1147 H1131 0.959 . S
C1147 H1132 0.959 . S
C1147 H1133 0.961 . S
C1147 C1146 1.502 . S
C1148 H1134 0.960 . S
C1148 H1135 0.961 . S
C1148 H1136 0.959 . S
C1148 C1146 1.561 . S
C1149 C1146 1.526 1_545 S
C1149 C1150 1.396 . S
C1149 C1154 1.390 . S
C1150 C1144 1.465 1_545 S
C1150 C1149 1.396 . S
C1150 C1151 1.399 . S
C1151 H1137 0.929 . S
C1151 C1150 1.399 . S
C1151 C1152 1.385 . S
C1152 H1138 0.931 . S
C1152 C1151 1.385 . S
C1152 C1153 1.389 . S
C1153 C1152 1.389 . S
C1153 C1154 1.387 . S
C1154 H1139 0.930 . S
C1154 C1149 1.390 . S
C1154 C1153 1.387 . S
H1155 C1167 0.930 . S
H1156 C1169 0.930 . S
H1157 C1170 0.930 . S
H1158 C1174 0.959 . S
H1159 C1174 0.959 . S
H1160 C1174 0.961 . S
H1161 C1175 0.960 . S
H1162 C1175 0.961 . S
H1163 C1175 0.959 . S
H1164 C1178 0.929 . S
H1165 C1179 0.931 . S
H1166 C1181 0.930 . S
C1167 H1155 0.930 . S
C1167 C1168 1.399 . S
C1167 C1172 1.399 . S
C1168 C1167 1.399 . S
C1168 C1169 1.376 . S
C1169 H1156 0.930 . S
C1169 C1168 1.376 . S
C1169 C1170 1.388 . S
C1170 H1157 0.930 . S
C1170 C1169 1.388 . S
C1170 C1171 1.390 . S
C1171 C1170 1.390 . S
C1171 C1172 1.394 . S
C1171 C1177 1.465 . S
C1172 C1167 1.399 . S
C1172 C1171 1.394 . S
C1172 C1173 1.516 . S
C1173 C1172 1.516 . S
C1173 C1174 1.502 . S
C1173 C1175 1.561 . S
C1173 C1176 1.526 . S
C1174 H1158 0.959 . S
C1174 H1159 0.959 . S
C1174 H1160 0.961 . S
C1174 C1173 1.502 . S
C1175 H1161 0.960 . S
C1175 H1162 0.961 . S
C1175 H1163 0.959 . S
C1175 C1173 1.561 . S
C1176 C1173 1.526 . S
C1176 C1177 1.396 . S
C1176 C1181 1.390 . S
C1177 C1171 1.465 . S
C1177 C1176 1.396 . S
C1177 C1178 1.399 . S
C1178 H1164 0.929 . S
C1178 C1177 1.399 . S
C1178 C1179 1.385 . S
C1179 H1165 0.931 . S
C1179 C1178 1.385 . S
C1179 C1180 1.389 . S
C1180 C1179 1.389 . S
C1180 C1181 1.387 . S
C1181 H1166 0.930 . S
C1181 C1176 1.390 . S
C1181 C1180 1.387 . S
H1182 C1194 0.930 . S
H1183 C1196 0.930 . S
H1184 C1197 0.930 . S
H1185 C1201 0.959 . S
H1186 C1201 0.959 . S
H1187 C1201 0.961 . S
H1188 C1202 0.960 . S
H1189 C1202 0.961 . S
H1190 C1202 0.959 . S
H1191 C1205 0.929 1_655 S
H1192 C1206 0.931 . S
H1193 C1208 0.930 . S
C1194 H1182 0.930 . S
C1194 C1195 1.399 . S
C1194 C1199 1.399 . S
C1195 C1194 1.399 . S
C1195 C1196 1.376 . S
C1196 H1183 0.930 . S
C1196 C1195 1.376 . S
C1196 C1197 1.388 . S
C1197 H1184 0.930 . S
C1197 C1196 1.388 . S
C1197 C1198 1.390 . S
C1198 C1197 1.390 . S
C1198 C1199 1.394 . S
C1198 C1204 1.465 1_655 S
C1199 C1194 1.399 . S
C1199 C1198 1.394 . S
C1199 C1200 1.516 1_655 S
C1200 C1199 1.516 1_455 S
C1200 C1201 1.502 . S
C1200 C1202 1.561 . S
C1200 C1203 1.526 . S
C1201 H1185 0.959 . S
C1201 H1186 0.959 . S
C1201 H1187 0.961 . S
C1201 C1200 1.502 . S
C1202 H1188 0.960 . S
C1202 H1189 0.961 . S
C1202 H1190 0.959 . S
C1202 C1200 1.561 . S
C1203 C1200 1.526 . S
C1203 C1204 1.396 . S
C1203 C1208 1.390 . S
C1204 C1198 1.465 1_455 S
C1204 C1203 1.396 . S
C1204 C1205 1.399 . S
C1205 H1191 0.929 1_455 S
C1205 C1204 1.399 . S
C1205 C1206 1.385 . S
C1206 H1192 0.931 . S
C1206 C1205 1.385 . S
C1206 C1207 1.389 . S
C1207 C1206 1.389 . S
C1207 C1208 1.387 . S
C1208 H1193 0.930 . S
C1208 C1203 1.390 . S
C1208 C1207 1.387 . S
H1209 C1221 0.930 . S
H1210 C1223 0.930 . S
H1211 C1224 0.930 . S
H1212 C1228 0.959 . S
H1213 C1228 0.959 . S
H1214 C1228 0.961 . S
H1215 C1229 0.960 1_545 S
H1216 C1229 0.961 . S
H1217 C1229 0.959 . S
H1218 C1232 0.929 . S
H1219 C1233 0.931 . S
H1220 C1235 0.930 . S
C1221 H1209 0.930 . S
C1221 C1222 1.399 . S
C1221 C1226 1.399 . S
C1222 C1221 1.399 . S
C1222 C1223 1.376 . S
C1223 H1210 0.930 . S
C1223 C1222 1.376 . S
C1223 C1224 1.388 . S
C1224 H1211 0.930 . S
C1224 C1223 1.388 . S
C1224 C1225 1.390 . S
C1225 C1224 1.390 . S
C1225 C1226 1.394 . S
C1225 C1231 1.465 1_545 S
C1226 C1221 1.399 . S
C1226 C1225 1.394 . S
C1226 C1227 1.516 . S
C1227 C1226 1.516 . S
C1227 C1228 1.502 . S
C1227 C1229 1.561 1_545 S
C1227 C1230 1.526 1_545 S
C1228 H1212 0.959 . S
C1228 H1213 0.959 . S
C1228 H1214 0.961 . S
C1228 C1227 1.502 . S
C1229 H1215 0.960 1_565 S
C1229 H1216 0.961 . S
C1229 H1217 0.959 . S
C1229 C1227 1.561 1_565 S
C1230 C1227 1.526 1_565 S
C1230 C1231 1.396 . S
C1230 C1235 1.390 . S
C1231 C1225 1.465 1_565 S
C1231 C1230 1.396 . S
C1231 C1232 1.399 . S
C1232 H1218 0.929 . S
C1232 C1231 1.399 . S
C1232 C1233 1.385 . S
C1233 H1219 0.931 . S
C1233 C1232 1.385 . S
C1233 C1234 1.389 . S
C1234 C1233 1.389 . S
C1234 C1235 1.387 . S
C1235 H1220 0.930 . S
C1235 C1230 1.390 . S
C1235 C1234 1.387 . S
H1236 C1248 0.930 . S
H1237 C1250 0.930 . S
H1238 C1251 0.930 . S
H1239 C1255 0.959 . S
H1240 C1255 0.959 . S
H1241 C1255 0.961 . S
H1242 C1256 0.960 . S
H1243 C1256 0.961 . S
H1244 C1256 0.959 . S
H1245 C1259 0.929 . S
H1246 C1260 0.931 . S
H1247 C1262 0.930 . S
C1248 H1236 0.930 . S
C1248 C1249 1.399 . S
C1248 C1253 1.399 . S
C1249 C1248 1.399 . S
C1249 C1250 1.376 . S
C1250 H1237 0.930 . S
C1250 C1249 1.376 . S
C1250 C1251 1.388 . S
C1251 H1238 0.930 . S
C1251 C1250 1.388 . S
C1251 C1252 1.390 . S
C1252 C1251 1.390 . S
C1252 C1253 1.394 . S
C1252 C1258 1.465 . S
C1253 C1248 1.399 . S
C1253 C1252 1.394 . S
C1253 C1254 1.516 . S
C1254 C1253 1.516 . S
C1254 C1255 1.502 . S
C1254 C1256 1.561 . S
C1254 C1257 1.526 . S
C1255 H1239 0.959 . S
C1255 H1240 0.959 . S
C1255 H1241 0.961 . S
C1255 C1254 1.502 . S
C1256 H1242 0.960 . S
C1256 H1243 0.961 . S
C1256 H1244 0.959 . S
C1256 C1254 1.561 . S
C1257 C1254 1.526 . S
C1257 C1258 1.396 . S
C1257 C1262 1.390 . S
C1258 C1252 1.465 . S
C1258 C1257 1.396 . S
C1258 C1259 1.399 . S
C1259 H1245 0.929 . S
C1259 C1258 1.399 . S
C1259 C1260 1.385 . S
C1260 H1246 0.931 . S
C1260 C1259 1.385 . S
C1260 C1261 1.389 . S
C1261 C1260 1.389 . S
C1261 C1262 1.387 . S
C1262 H1247 0.930 . S
C1262 C1257 1.390 . S
C1262 C1261 1.387 . S
H1263 C1275 0.930 . S
H1264 C1277 0.930 . S
H1265 C1278 0.930 . S
H1266 C1282 0.959 . S
H1267 C1282 0.959 . S
H1268 C1282 0.961 1_455 S
H1269 C1283 0.960 . S
H1270 C1283 0.961 . S
H1271 C1283 0.959 . S
H1272 C1286 0.929 . S
H1273 C1287 0.931 . S
H1274 C1289 0.930 . S
C1275 H1263 0.930 . S
C1275 C1276 1.399 . S
C1275 C1280 1.399 . S
C1276 C1275 1.399 . S
C1276 C1277 1.376 . S
C1277 H1264 0.930 . S
C1277 C1276 1.376 . S
C1277 C1278 1.388 . S
C1278 H1265 0.930 . S
C1278 C1277 1.388 . S
C1278 C1279 1.390 . S
C1279 C1278 1.390 . S
C1279 C1280 1.394 . S
C1279 C1285 1.465 1_455 S
C1280 C1275 1.399 . S
C1280 C1279 1.394 . S
C1280 C1281 1.516 . S
C1281 C1280 1.516 . S
C1281 C1282 1.502 1_455 S
C1281 C1283 1.561 . S
C1281 C1284 1.526 1_455 S
C1282 H1266 0.959 . S
C1282 H1267 0.959 . S
C1282 H1268 0.961 1_655 S
C1282 C1281 1.502 1_655 S
C1283 H1269 0.960 . S
C1283 H1270 0.961 . S
C1283 H1271 0.959 . S
C1283 C1281 1.561 . S
C1284 C1281 1.526 1_655 S
C1284 C1285 1.396 . S
C1284 C1289 1.390 . S
C1285 C1279 1.465 1_655 S
C1285 C1284 1.396 . S
C1285 C1286 1.399 . S
C1286 H1272 0.929 . S
C1286 C1285 1.399 . S
C1286 C1287 1.385 . S
C1287 H1273 0.931 . S
C1287 C1286 1.385 . S
C1287 C1288 1.389 . S
C1288 C1287 1.389 . S
C1288 C1289 1.387 . S
C1289 H1274 0.930 . S
C1289 C1284 1.390 . S
C1289 C1288 1.387 . S
H1290 C1302 0.930 . S
H1291 C1304 0.930 . S
H1292 C1305 0.930 . S
H1293 C1309 0.959 . S
H1294 C1309 0.959 . S
H1295 C1309 0.961 . S
H1296 C1310 0.960 . S
H1297 C1310 0.961 . S
H1298 C1310 0.959 . S
H1299 C1313 0.929 . S
H1300 C1314 0.931 . S
H1301 C1316 0.930 . S
C1302 H1290 0.930 . S
C1302 C1303 1.399 . S
C1302 C1307 1.399 . S
C1303 C1302 1.399 . S
C1303 C1304 1.376 . S
C1304 H1291 0.930 . S
C1304 C1303 1.376 . S
C1304 C1305 1.388 . S
C1305 H1292 0.930 . S
C1305 C1304 1.388 . S
C1305 C1306 1.390 . S
C1306 C1305 1.390 . S
C1306 C1307 1.394 . S
C1306 C1312 1.465 . S
C1307 C1302 1.399 . S
C1307 C1306 1.394 . S
C1307 C1308 1.516 . S
C1308 C1307 1.516 . S
C1308 C1309 1.502 . S
C1308 C1310 1.561 . S
C1308 C1311 1.526 . S
C1309 H1293 0.959 . S
C1309 H1294 0.959 . S
C1309 H1295 0.961 . S
C1309 C1308 1.502 . S
C1310 H1296 0.960 . S
C1310 H1297 0.961 . S
C1310 H1298 0.959 . S
C1310 C1308 1.561 . S
C1311 C1308 1.526 . S
C1311 C1312 1.396 . S
C1311 C1316 1.390 . S
C1312 C1306 1.465 . S
C1312 C1311 1.396 . S
C1312 C1313 1.399 . S
C1313 H1299 0.929 . S
C1313 C1312 1.399 . S
C1313 C1314 1.385 . S
C1314 H1300 0.931 . S
C1314 C1313 1.385 . S
C1314 C1315 1.389 . S
C1315 C1314 1.389 . S
C1315 C1316 1.387 . S
C1316 H1301 0.930 . S
C1316 C1311 1.390 . S
C1316 C1315 1.387 . S
H1317 C1329 0.930 . S
H1318 C1331 0.930 . S
H1319 C1332 0.930 . S
H1320 C1336 0.959 . S
H1321 C1336 0.959 . S
H1322 C1336 0.961 . S
H1323 C1337 0.960 . S
H1324 C1337 0.961 . S
H1325 C1337 0.959 . S
H1326 C1340 0.929 . S
H1327 C1341 0.931 . S
H1328 C1343 0.930 . S
C1329 H1317 0.930 . S
C1329 C1330 1.399 . S
C1329 C1334 1.399 . S
C1330 C1329 1.399 . S
C1330 C1331 1.376 . S
C1331 H1318 0.930 . S
C1331 C1330 1.376 . S
C1331 C1332 1.388 . S
C1332 H1319 0.930 . S
C1332 C1331 1.388 . S
C1332 C1333 1.390 . S
C1333 C1332 1.390 . S
C1333 C1334 1.394 . S
C1333 C1339 1.465 . S
C1334 C1329 1.399 . S
C1334 C1333 1.394 . S
C1334 C1335 1.516 . S
C1335 C1334 1.516 . S
C1335 C1336 1.502 . S
C1335 C1337 1.561 . S
C1335 C1338 1.526 . S
C1336 H1320 0.959 . S
C1336 H1321 0.959 . S
C1336 H1322 0.961 . S
C1336 C1335 1.502 . S
C1337 H1323 0.960 . S
C1337 H1324 0.961 . S
C1337 H1325 0.959 . S
C1337 C1335 1.561 . S
C1338 C1335 1.526 . S
C1338 C1339 1.396 . S
C1338 C1343 1.390 . S
C1339 C1333 1.465 . S
C1339 C1338 1.396 . S
C1339 C1340 1.399 . S
C1340 H1326 0.929 . S
C1340 C1339 1.399 . S
C1340 C1341 1.385 . S
C1341 H1327 0.931 . S
C1341 C1340 1.385 . S
C1341 C1342 1.389 . S
C1342 C1341 1.389 . S
C1342 C1343 1.387 . S
C1343 H1328 0.930 . S
C1343 C1338 1.390 . S
C1343 C1342 1.387 . S
H1344 C1356 0.930 . S
H1345 C1358 0.930 . S
H1346 C1359 0.930 . S
H1347 C1363 0.959 . S
H1348 C1363 0.959 . S
H1349 C1363 0.961 . S
H1350 C1364 0.960 . S
H1351 C1364 0.961 . S
H1352 C1364 0.959 . S
H1353 C1367 0.929 . S
H1354 C1368 0.931 . S
H1355 C1370 0.930 . S
C1356 H1344 0.930 . S
C1356 C1357 1.399 . S
C1356 C1361 1.399 . S
C1357 C1356 1.399 . S
C1357 C1358 1.376 . S
C1358 H1345 0.930 . S
C1358 C1357 1.376 . S
C1358 C1359 1.388 . S
C1359 H1346 0.930 . S
C1359 C1358 1.388 . S
C1359 C1360 1.390 . S
C1360 C1359 1.390 . S
C1360 C1361 1.394 . S
C1360 C1366 1.465 . S
C1361 C1356 1.399 . S
C1361 C1360 1.394 . S
C1361 C1362 1.516 . S
C1362 C1361 1.516 . S
C1362 C1363 1.502 . S
C1362 C1364 1.561 . S
C1362 C1365 1.526 . S
C1363 H1347 0.959 . S
C1363 H1348 0.959 . S
C1363 H1349 0.961 . S
C1363 C1362 1.502 . S
C1364 H1350 0.960 . S
C1364 H1351 0.961 . S
C1364 H1352 0.959 . S
C1364 C1362 1.561 . S
C1365 C1362 1.526 . S
C1365 C1366 1.396 . S
C1365 C1370 1.390 . S
C1366 C1360 1.465 . S
C1366 C1365 1.396 . S
C1366 C1367 1.399 . S
C1367 H1353 0.929 . S
C1367 C1366 1.399 . S
C1367 C1368 1.385 . S
C1368 H1354 0.931 . S
C1368 C1367 1.385 . S
C1368 C1369 1.389 . S
C1369 C1368 1.389 . S
C1369 C1370 1.387 . S
C1370 H1355 0.930 . S
C1370 C1365 1.390 . S
C1370 C1369 1.387 . S
H1371 C1383 0.930 . S
H1372 C1385 0.930 . S
H1373 C1386 0.930 . S
H1374 C1390 0.959 . S
H1375 C1390 0.959 . S
H1376 C1390 0.961 . S
H1377 C1391 0.960 . S
H1378 C1391 0.961 . S
H1379 C1391 0.959 . S
H1380 C1394 0.929 . S
H1381 C1395 0.931 . S
H1382 C1397 0.930 . S
C1383 H1371 0.930 . S
C1383 C1384 1.399 . S
C1383 C1388 1.399 . S
C1384 C1383 1.399 . S
C1384 C1385 1.376 . S
C1385 H1372 0.930 . S
C1385 C1384 1.376 . S
C1385 C1386 1.388 . S
C1386 H1373 0.930 . S
C1386 C1385 1.388 . S
C1386 C1387 1.390 . S
C1387 C1386 1.390 . S
C1387 C1388 1.394 . S
C1387 C1393 1.465 . S
C1388 C1383 1.399 . S
C1388 C1387 1.394 . S
C1388 C1389 1.516 . S
C1389 C1388 1.516 . S
C1389 C1390 1.502 . S
C1389 C1391 1.561 . S
C1389 C1392 1.526 . S
C1390 H1374 0.959 . S
C1390 H1375 0.959 . S
C1390 H1376 0.961 . S
C1390 C1389 1.502 . S
C1391 H1377 0.960 . S
C1391 H1378 0.961 . S
C1391 H1379 0.959 . S
C1391 C1389 1.561 . S
C1392 C1389 1.526 . S
C1392 C1393 1.396 . S
C1392 C1397 1.390 . S
C1393 C1387 1.465 . S
C1393 C1392 1.396 . S
C1393 C1394 1.399 . S
C1394 H1380 0.929 . S
C1394 C1393 1.399 . S
C1394 C1395 1.385 . S
C1395 H1381 0.931 . S
C1395 C1394 1.385 . S
C1395 C1396 1.389 . S
C1396 C1395 1.389 . S
C1396 C1397 1.387 . S
C1397 H1382 0.930 . S
C1397 C1392 1.390 . S
C1397 C1396 1.387 . S
H1398 C1410 0.930 . S
H1399 C1412 0.930 . S
H1400 C1413 0.930 . S
H1401 C1417 0.959 . S
H1402 C1417 0.959 . S
H1403 C1417 0.961 . S
H1404 C1418 0.960 . S
H1405 C1418 0.961 . S
H1406 C1418 0.959 . S
H1407 C1421 0.929 . S
H1408 C1422 0.931 . S
H1409 C1424 0.930 . S
C1410 H1398 0.930 . S
C1410 C1411 1.399 . S
C1410 C1415 1.399 . S
C1411 C1410 1.399 . S
C1411 C1412 1.376 . S
C1412 H1399 0.930 . S
C1412 C1411 1.376 . S
C1412 C1413 1.388 . S
C1413 H1400 0.930 . S
C1413 C1412 1.388 . S
C1413 C1414 1.390 . S
C1414 C1413 1.390 . S
C1414 C1415 1.394 . S
C1414 C1420 1.465 . S
C1415 C1410 1.399 . S
C1415 C1414 1.394 . S
C1415 C1416 1.516 . S
C1416 C1415 1.516 . S
C1416 C1417 1.502 . S
C1416 C1418 1.561 . S
C1416 C1419 1.526 . S
C1417 H1401 0.959 . S
C1417 H1402 0.959 . S
C1417 H1403 0.961 . S
C1417 C1416 1.502 . S
C1418 H1404 0.960 . S
C1418 H1405 0.961 . S
C1418 H1406 0.959 . S
C1418 C1416 1.561 . S
C1419 C1416 1.526 . S
C1419 C1420 1.396 . S
C1419 C1424 1.390 . S
C1420 C1414 1.465 . S
C1420 C1419 1.396 . S
C1420 C1421 1.399 . S
C1421 H1407 0.929 . S
C1421 C1420 1.399 . S
C1421 C1422 1.385 . S
C1422 H1408 0.931 . S
C1422 C1421 1.385 . S
C1422 C1423 1.389 . S
C1423 C1422 1.389 . S
C1423 C1424 1.387 . S
C1424 H1409 0.930 . S
C1424 C1419 1.390 . S
C1424 C1423 1.387 . S
H1425 C1437 0.930 . S
H1426 C1439 0.930 . S
H1427 C1440 0.930 . S
H1428 C1444 0.959 . S
H1429 C1444 0.959 . S
H1430 C1444 0.961 . S
H1431 C1445 0.960 . S
H1432 C1445 0.961 . S
H1433 C1445 0.959 . S
H1434 C1448 0.929 . S
H1435 C1449 0.931 . S
H1436 C1451 0.930 . S
C1437 H1425 0.930 . S
C1437 C1438 1.399 . S
C1437 C1442 1.399 . S
C1438 C1437 1.399 . S
C1438 C1439 1.376 . S
C1439 H1426 0.930 . S
C1439 C1438 1.376 . S
C1439 C1440 1.388 . S
C1440 H1427 0.930 . S
C1440 C1439 1.388 . S
C1440 C1441 1.390 . S
C1441 C1440 1.390 . S
C1441 C1442 1.394 . S
C1441 C1447 1.465 . S
C1442 C1437 1.399 . S
C1442 C1441 1.394 . S
C1442 C1443 1.516 . S
C1443 C1442 1.516 . S
C1443 C1444 1.502 . S
C1443 C1445 1.561 . S
C1443 C1446 1.526 . S
C1444 H1428 0.959 . S
C1444 H1429 0.959 . S
C1444 H1430 0.961 . S
C1444 C1443 1.502 . S
C1445 H1431 0.960 . S
C1445 H1432 0.961 . S
C1445 H1433 0.959 . S
C1445 C1443 1.561 . S
C1446 C1443 1.526 . S
C1446 C1447 1.396 . S
C1446 C1451 1.390 . S
C1447 C1441 1.465 . S
C1447 C1446 1.396 . S
C1447 C1448 1.399 . S
C1448 H1434 0.929 . S
C1448 C1447 1.399 . S
C1448 C1449 1.385 . S
C1449 H1435 0.931 . S
C1449 C1448 1.385 . S
C1449 C1450 1.389 . S
C1450 C1449 1.389 . S
C1450 C1451 1.387 . S
C1451 H1436 0.930 . S
C1451 C1446 1.390 . S
C1451 C1450 1.387 . S
C493 C9 1.120 . S
C505 C329 1.092 . S
C520 C49 1.032 . S
C532 C369 1.084 . S
C547 C89 1.083 . S
C559 C409 1.120 . S
C574 C449 1.058 . S
C586 C129 1.031 . S
C601 C169 1.121 . S
C613 C249 1.083 . S
C628 C289 1.073 . S
C640 C209 1.119 . S
C655 C415 1.548 . S
C667 C15 1.577 . S
C682 C455 1.554 . S
C694 C55 1.607 . S
C709 C95 1.587 . S
C721 C255 1.546 . S
C736 C295 1.548 . S
C748 C135 1.578 . S
C763 C335 1.601 . S
C775 C175 1.548 . S
C790 C215 1.553 . S
C802 C375 1.606 . S
C817 C299 4.262 . S
C829 C19 4.284 . S
C844 C339 4.282 . S
C856 C59 4.286 . S
C871 C379 4.270 . S
C883 C99 4.290 . S
C898 C139 4.286 . S
C910 C419 4.282 . S
C925 C179 4.268 . S
C937 C459 4.289 . S
C952 C219 4.289 . S
C964 C259 4.269 . S
C979 C18 0.672 . S
C991 C138 0.422 . S
C1006 C58 0.590 . S
C1018 C178 0.443 . S
C1033 C98 0.627 . S
C1045 C218 0.587 . S
C1060 C378 0.519 . S
C1072 C258 0.666 . S
C1087 C298 0.512 . S
C1099 C418 0.669 . S
C1114 C458 0.597 . S
C1126 C338 0.438 . S
C1141 C286 0.709 . S
C1153 C6 0.851 . S
C1168 C326 0.716 . S
C1180 C46 0.700 . S
C1195 C86 0.854 . S
C1207 C366 0.709 . S
C1222 C406 0.671 . S
C1234 C126 0.762 . S
C1249 C446 0.696 . S
C1261 C166 0.845 . S
C1276 C206 0.832 . S
C1288 C246 0.817 . S
C1303 C10 4.793 . S
C1315 C410 4.793 . S
C1330 C50 4.791 . S
C1342 C450 4.794 1_556 S
C1357 C90 4.790 1_554 S
C1369 C250 4.793 . S
C1384 C130 4.792 . S
C1396 C290 4.791 . S
C1411 C170 4.790 . S
C1423 C330 4.794 1_556 S
C1438 C370 4.793 . S
C1450 C210 4.790 1_554 S
