# Generated by pormake.
# Topology why, (6)-cn, num edge types: 1
# Building blocks:
#     Node 0, Type 0, BuildingBlock: VOLQOD_clean_sbu_1, # of connection points: 6
#     Node 1, Type 0, BuildingBlock: VOLQOD_clean_sbu_1, # of connection points: 6
#     Node 2, Type 0, BuildingBlock: VOLQOD_clean_sbu_1, # of connection points: 6
#     Node 3, Type 0, BuildingBlock: VOLQOD_clean_sbu_1, # of connection points: 6
#     Node 4, Type 0, BuildingBlock: VOLQOD_clean_sbu_1, # of connection points: 6
#     Node 5, Type 0, BuildingBlock: VOLQOD_clean_sbu_1, # of connection points: 6
#     Node 6, Type 0, BuildingBlock: VOLQOD_clean_sbu_1, # of connection points: 6
#     Node 7, Type 0, BuildingBlock: VOLQOD_clean_sbu_1, # of connection points: 6
#     Node 8, Type 0, BuildingBlock: VOLQOD_clean_sbu_1, # of connection points: 6
#     Node 9, Type 0, BuildingBlock: VOLQOD_clean_sbu_1, # of connection points: 6
#     Node 10, Type 0, BuildingBlock: VOLQOD_clean_sbu_1, # of connection points: 6
#     Node 11, Type 0, BuildingBlock: VOLQOD_clean_sbu_1, # of connection points: 6
#     Node 12, Type 0, BuildingBlock: VOLQOD_clean_sbu_1, # of connection points: 6
#     Node 13, Type 0, BuildingBlock: VOLQOD_clean_sbu_1, # of connection points: 6
#     Node 14, Type 0, BuildingBlock: VOLQOD_clean_sbu_1, # of connection points: 6
#     Node 15, Type 0, BuildingBlock: VOLQOD_clean_sbu_1, # of connection points: 6
#     Edge 16, Type (0, 0), BuildingBlock: KIFKEQ_clean_linker_1, # of connection points: 2
#     Edge 17, Type (0, 0), BuildingBlock: KIFKEQ_clean_linker_1, # of connection points: 2
#     Edge 18, Type (0, 0), BuildingBlock: KIFKEQ_clean_linker_1, # of connection points: 2
#     Edge 19, Type (0, 0), BuildingBlock: KIFKEQ_clean_linker_1, # of connection points: 2
#     Edge 20, Type (0, 0), BuildingBlock: KIFKEQ_clean_linker_1, # of connection points: 2
#     Edge 21, Type (0, 0), BuildingBlock: KIFKEQ_clean_linker_1, # of connection points: 2
#     Edge 22, Type (0, 0), BuildingBlock: KIFKEQ_clean_linker_1, # of connection points: 2
#     Edge 23, Type (0, 0), BuildingBlock: KIFKEQ_clean_linker_1, # of connection points: 2
#     Edge 24, Type (0, 0), BuildingBlock: KIFKEQ_clean_linker_1, # of connection points: 2
#     Edge 25, Type (0, 0), BuildingBlock: KIFKEQ_clean_linker_1, # of connection points: 2
#     Edge 26, Type (0, 0), BuildingBlock: KIFKEQ_clean_linker_1, # of connection points: 2
#     Edge 27, Type (0, 0), BuildingBlock: KIFKEQ_clean_linker_1, # of connection points: 2
#     Edge 28, Type (0, 0), BuildingBlock: KIFKEQ_clean_linker_1, # of connection points: 2
#     Edge 29, Type (0, 0), BuildingBlock: KIFKEQ_clean_linker_1, # of connection points: 2
#     Edge 30, Type (0, 0), BuildingBlock: KIFKEQ_clean_linker_1, # of connection points: 2
#     Edge 31, Type (0, 0), BuildingBlock: KIFKEQ_clean_linker_1, # of connection points: 2
#     Edge 32, Type (0, 0), BuildingBlock: KIFKEQ_clean_linker_1, # of connection points: 2
#     Edge 33, Type (0, 0), BuildingBlock: KIFKEQ_clean_linker_1, # of connection points: 2
#     Edge 34, Type (0, 0), BuildingBlock: KIFKEQ_clean_linker_1, # of connection points: 2
#     Edge 35, Type (0, 0), BuildingBlock: KIFKEQ_clean_linker_1, # of connection points: 2
#     Edge 36, Type (0, 0), BuildingBlock: KIFKEQ_clean_linker_1, # of connection points: 2
#     Edge 37, Type (0, 0), BuildingBlock: KIFKEQ_clean_linker_1, # of connection points: 2
#     Edge 38, Type (0, 0), BuildingBlock: KIFKEQ_clean_linker_1, # of connection points: 2
#     Edge 39, Type (0, 0), BuildingBlock: KIFKEQ_clean_linker_1, # of connection points: 2
#     Edge 40, Type (0, 0), BuildingBlock: KIFKEQ_clean_linker_1, # of connection points: 2
#     Edge 41, Type (0, 0), BuildingBlock: KIFKEQ_clean_linker_1, # of connection points: 2
#     Edge 42, Type (0, 0), BuildingBlock: KIFKEQ_clean_linker_1, # of connection points: 2
#     Edge 43, Type (0, 0), BuildingBlock: KIFKEQ_clean_linker_1, # of connection points: 2
#     Edge 44, Type (0, 0), BuildingBlock: KIFKEQ_clean_linker_1, # of connection points: 2
#     Edge 45, Type (0, 0), BuildingBlock: KIFKEQ_clean_linker_1, # of connection points: 2
#     Edge 46, Type (0, 0), BuildingBlock: KIFKEQ_clean_linker_1, # of connection points: 2
#     Edge 47, Type (0, 0), BuildingBlock: KIFKEQ_clean_linker_1, # of connection points: 2
#     Edge 48, Type (0, 0), BuildingBlock: KIFKEQ_clean_linker_1, # of connection points: 2
#     Edge 49, Type (0, 0), BuildingBlock: KIFKEQ_clean_linker_1, # of connection points: 2
#     Edge 50, Type (0, 0), BuildingBlock: KIFKEQ_clean_linker_1, # of connection points: 2
#     Edge 51, Type (0, 0), BuildingBlock: KIFKEQ_clean_linker_1, # of connection points: 2
#     Edge 52, Type (0, 0), BuildingBlock: KIFKEQ_clean_linker_1, # of connection points: 2
#     Edge 53, Type (0, 0), BuildingBlock: KIFKEQ_clean_linker_1, # of connection points: 2
#     Edge 54, Type (0, 0), BuildingBlock: KIFKEQ_clean_linker_1, # of connection points: 2
#     Edge 55, Type (0, 0), BuildingBlock: KIFKEQ_clean_linker_1, # of connection points: 2
#     Edge 56, Type (0, 0), BuildingBlock: KIFKEQ_clean_linker_1, # of connection points: 2
#     Edge 57, Type (0, 0), BuildingBlock: KIFKEQ_clean_linker_1, # of connection points: 2
#     Edge 58, Type (0, 0), BuildingBlock: KIFKEQ_clean_linker_1, # of connection points: 2
#     Edge 59, Type (0, 0), BuildingBlock: KIFKEQ_clean_linker_1, # of connection points: 2
#     Edge 60, Type (0, 0), BuildingBlock: KIFKEQ_clean_linker_1, # of connection points: 2
#     Edge 61, Type (0, 0), BuildingBlock: KIFKEQ_clean_linker_1, # of connection points: 2
#     Edge 62, Type (0, 0), BuildingBlock: KIFKEQ_clean_linker_1, # of connection points: 2
#     Edge 63, Type (0, 0), BuildingBlock: KIFKEQ_clean_linker_1, # of connection points: 2
# Relax obj value: 0.320
# Max RMSD: 0.187
# Mean RMSD: 0.187
data_MOF--net-why--node1-VOLQOD_clean_sbu_1--edge1-KIFKEQ_clean_linker_1
_symmetry_space_group_name_H-M    P1
_symmetry_Int_Tables_number       1
_symmetry_cell_setting            triclinic
loop_
_symmetry_equiv_pos_as_xyz
'x, y, z'
_cell_length_a     50.060433
_cell_length_b     50.033486
_cell_length_c     32.617153
_cell_angle_alpha  89.951514
_cell_angle_beta   90.233459
_cell_angle_gamma 90.145352
loop_
_atom_site_label
_atom_site_type_symbol
_atom_site_fract_x
_atom_site_fract_y
_atom_site_fract_z
_atom_type_partial_charge
O0 O 0.32025 0.23141 0.96744 0.0
Zn1 Zn 0.31257 0.19319 0.97855 0.0
O2 O 0.32522 0.1842 0.03354 0.0
Zn3 Zn 0.35474 0.15939 0.02903 0.0
Zn4 Zn 0.33651 0.21617 0.06337 0.0
Zn5 Zn 0.29663 0.16752 0.06389 0.0
O6 O 0.34579 0.12496 0.05608 0.0
O7 O 0.30514 0.13045 0.08148 0.0
O8 O 0.33247 0.17292 0.93433 0.0
O9 O 0.36271 0.15059 0.97062 0.0
O10 O 0.38792 0.17382 0.05629 0.0
O11 O 0.37339 0.21097 0.08594 0.0
O12 O 0.3123 0.22475 0.11136 0.0
O13 O 0.27312 0.18647 0.97228 0.0
O14 O 0.28741 0.18807 0.11341 0.0
O15 O 0.26351 0.16655 0.03121 0.0
C16 C 0.33148 0.25027 0.9872 0.0
C17 C 0.32566 0.11615 0.07555 0.0
C18 C 0.39177 0.19399 0.07938 0.0
C19 C 0.35219 0.15694 0.93644 0.0
C20 C 0.29417 0.21057 0.12808 0.0
C21 C 0.25649 0.17527 -0.00374 0.0
O22 O 0.33908 0.24733 0.02427 0.0
O23 O 0.51871 0.60332 0.22732 0.0
Zn24 Zn 0.55604 0.59935 0.24803 0.0
O25 O 0.55797 0.60973 0.30542 0.0
Zn26 Zn 0.58195 0.64032 0.3128 0.0
Zn27 Zn 0.52214 0.61807 0.32646 0.0
Zn28 Zn 0.57273 0.57976 0.3348 0.0
O29 O 0.61233 0.63189 0.35168 0.0
O30 O 0.60693 0.5884 0.36206 0.0
O31 O 0.58025 0.62231 0.2141 0.0
O32 O 0.59757 0.65141 0.25841 0.0
O33 O 0.56212 0.67179 0.3356 0.0
O34 O 0.52102 0.65627 0.34543 0.0
O35 O 0.51214 0.59412 0.37466 0.0
O36 O 0.56621 0.56107 0.23843 0.0
O37 O 0.54824 0.56858 0.37821 0.0
O38 O 0.57874 0.54784 0.30026 0.0
C39 C 0.49634 0.60915 0.24335 0.0
C40 C 0.6199 0.60991 0.36759 0.0
C41 C 0.53811 0.67514 0.34718 0.0
C42 C 0.5953 0.6422 0.22214 0.0
C43 C 0.52536 0.5752 0.39125 0.0
C44 C 0.57504 0.54312 0.26248 0.0
O45 O 0.4943 0.61497 0.28125 0.0
O46 O 0.14648 0.79011 0.44814 0.0
Zn47 Zn 0.14869 0.82489 0.47764 0.0
O48 O 0.14426 0.8197 0.53606 0.0
Zn49 Zn 0.1122 0.83826 0.55453 0.0
Zn50 Zn 0.14153 0.7816 0.54888 0.0
Zn51 Zn 0.17555 0.8345 0.56296 0.0
O52 O 0.12117 0.86306 0.60108 0.0
O53 O 0.16549 0.86152 0.60431 0.0
O54 O 0.12013 0.84819 0.45499 0.0
O55 O 0.09435 0.8584 0.50791 0.0
O56 O 0.08493 0.81218 0.5752 0.0
O57 O 0.10522 0.77286 0.57187 0.0
O58 O 0.16982 0.77017 0.58958 0.0
O59 O 0.18362 0.84184 0.46365 0.0
O60 O 0.19506 0.80659 0.59397 0.0
O61 O 0.2014 0.85111 0.52427 0.0
C62 C 0.14575 0.76585 0.45973 0.0
C63 C 0.14328 0.87029 0.61714 0.0
C64 C 0.08483 0.78698 0.58033 0.0
C65 C 0.09999 0.86007 0.46992 0.0
C66 C 0.19032 0.78241 0.60335 0.0
C67 C 0.20223 0.85185 0.48539 0.0
O68 O 0.14494 0.75959 0.49757 0.0
O69 O 0.96109 0.37859 0.75202 0.0
Zn70 Zn 0.92376 0.382 0.77182 0.0
O71 O 0.9205 0.36942 0.8277 0.0
Zn72 Zn 0.89379 0.34117 0.82968 0.0
Zn73 Zn 0.95541 0.35627 0.84721 0.0
Zn74 Zn 0.9079 0.3988 0.8614 0.0
O75 O 0.86529 0.34876 0.8708 0.0
O76 O 0.87395 0.39036 0.89019 0.0
O77 O 0.90041 0.36114 0.73338 0.0
O78 O 0.87725 0.33444 0.77437 0.0
O79 O 0.91045 0.30702 0.84714 0.0
O80 O 0.95263 0.31704 0.86205 0.0
O81 O 0.96783 0.37729 0.89712 0.0
O82 O 0.91417 0.42037 0.76694 0.0
O83 O 0.9341 0.40566 0.90559 0.0
O84 O 0.90248 0.4327 0.82963 0.0
C85 C 0.98268 0.36926 0.76675 0.0
C86 C 0.85984 0.3693 0.89207 0.0
C87 C 0.93351 0.30019 0.85969 0.0
C88 C 0.88259 0.34332 0.73873 0.0
C89 C 0.95649 0.39613 0.91671 0.0
C90 C 0.9061 0.43802 0.79195 0.0
O91 O 0.9837 0.35949 0.80283 0.0
O92 O 0.6502 0.77743 0.99249 0.0
Zn93 Zn 0.64615 0.81215 0.96255 0.0
O94 O 0.63331 0.8067 0.9072 0.0
Zn95 Zn 0.59776 0.82166 0.90328 0.0
Zn96 Zn 0.63233 0.76852 0.89516 0.0
Zn97 Zn 0.65686 0.82482 0.86848 0.0
O98 O 0.59725 0.85193 0.86422 0.0
O99 O 0.63808 0.85437 0.83839 0.0
O100 O 0.6213 0.83453 -0.00461 0.0
O101 O 0.5848 0.83686 0.95692 0.0
O102 O 0.57223 0.7948 0.88101 0.0
O103 O 0.59619 0.75777 0.87314 0.0
O104 O 0.66014 0.75922 0.85291 0.0
O105 O 0.68068 0.83129 0.96243 0.0
O106 O 0.67183 0.79902 0.82836 0.0
O107 O 0.68878 0.84067 0.89699 0.0
C108 C 0.64585 0.75321 0.98258 0.0
C109 C 0.61415 0.86278 0.8405 0.0
C110 C 0.57436 0.7706 0.86966 0.0
C111 C 0.59731 0.84203 0.99007 0.0
C112 C 0.67303 0.77365 0.82748 0.0
C113 C 0.69512 0.84166 0.93471 0.0
O114 O 0.6385 0.74685 0.94644 0.0
O115 O 0.47776 0.42758 0.77827 0.0
Zn116 Zn 0.44264 0.41767 0.75411 0.0
O117 O 0.44482 0.40831 0.69693 0.0
Zn118 Zn 0.43345 0.37157 0.68997 0.0
Zn119 Zn 0.48176 0.4131 0.67937 0.0
Zn120 Zn 0.42081 0.43123 0.66581 0.0
O121 O 0.40113 0.36916 0.65451 0.0
O122 O 0.39506 0.41034 0.63133 0.0
O123 O 0.42956 0.38728 0.7872 0.0
O124 O 0.42391 0.35385 0.74357 0.0
O125 O 0.46157 0.35129 0.66073 0.0
O126 O 0.49487 0.38006 0.64993 0.0
O127 O 0.4842 0.44506 0.64148 0.0
O128 O 0.41597 0.44578 0.7638 0.0
O129 O 0.44166 0.45574 0.63032 0.0
O130 O 0.39831 0.45385 0.70255 0.0
C131 C 0.50151 0.42485 0.76535 0.0
C132 C 0.38868 0.38573 0.632 0.0
C133 C 0.48429 0.35703 0.64577 0.0
C134 C 0.42288 0.3633 0.77976 0.0
C135 C 0.46645 0.45955 0.62423 0.0
C136 C 0.39899 0.45745 0.74109 0.0
O137 O 0.5062 0.41819 0.72838 0.0
O138 O 0.85135 0.19374 0.52019 0.0
Zn139 Zn 0.84841 0.15916 0.49042 0.0
O140 O 0.85127 0.16435 0.43195 0.0
Zn141 Zn 0.8837 0.14698 0.41228 0.0
Zn142 Zn 0.85188 0.20265 0.41937 0.0
Zn143 Zn 0.82037 0.14763 0.40689 0.0
O144 O 0.8752 0.12133 0.36662 0.0
O145 O 0.83099 0.11836 0.36957 0.0
O146 O 0.87533 0.13322 0.51065 0.0
O147 O 0.90132 0.12491 0.45712 0.0
O148 O 0.90999 0.1744 0.39256 0.0
O149 O 0.88815 0.21297 0.397 0.0
O150 O 0.82237 0.21248 0.37881 0.0
O151 O 0.81346 0.14362 0.50639 0.0
O152 O 0.80053 0.17394 0.3735 0.0
O153 O 0.79439 0.13281 0.44741 0.0
C154 C 0.84898 0.218 0.50905 0.0
C155 C 0.85322 0.11093 0.35489 0.0
C156 C 0.9091 0.19969 0.38833 0.0
C157 C 0.89492 0.12115 0.49444 0.0
C158 C 0.80314 0.1985 0.36443 0.0
C159 C 0.79427 0.13332 0.48633 0.0
O160 O 0.84734 0.22441 0.47128 0.0
O161 O 0.02836 0.56229 0.27823 0.0
Zn162 Zn 0.06192 0.57144 0.24932 0.0
O163 O 0.05597 0.57554 0.19114 0.0
Zn164 Zn 0.06719 0.61111 0.17622 0.0
Zn165 Zn 0.01784 0.57111 0.1784 0.0
Zn166 Zn 0.07791 0.54946 0.1618 0.0
O167 O 0.09315 0.60996 0.13149 0.0
O168 O 0.10225 0.56721 0.12076 0.0
O169 O 0.07709 0.60417 0.2753 0.0
O170 O 0.08402 0.63132 0.22276 0.0
O171 O 0.03693 0.63228 0.155 0.0
O172 O 0.00177 0.6051 0.15434 0.0
O173 O 0.01299 0.54023 0.1391 0.0
O174 O 0.08773 0.54268 0.26069 0.0
O175 O 0.0542 0.52454 0.1309 0.0
O176 O 0.1002 0.52696 0.20023 0.0
C177 C 0.00414 0.55977 0.26713 0.0
C178 C 0.10546 0.59182 0.11217 0.0
C179 C 0.01246 0.62778 0.14725 0.0
C180 C 0.08579 0.62607 0.26081 0.0
C181 C 0.0292 0.5233 0.12391 0.0
C182 C 0.10163 0.52687 0.23919 0.0
O183 O -0.003 0.56295 0.22991 0.0
O184 O 0.83969 0.6816 0.47293 0.0
Zn185 Zn 0.841 0.64811 0.50612 0.0
O186 O 0.84939 0.65566 0.56285 0.0
Zn187 Zn 0.8843 0.64082 0.57519 0.0
Zn188 Zn 0.84956 0.69444 0.57198 0.0
Zn189 Zn 0.82264 0.63825 0.59699 0.0
O190 O 0.88218 0.61615 0.62292 0.0
O191 O 0.83886 0.61104 0.63491 0.0
O192 O 0.86709 0.62334 0.48105 0.0
O193 O 0.89904 0.61942 0.52793 0.0
O194 O 0.91029 0.66962 0.58956 0.0
O195 O 0.88646 0.70705 0.58933 0.0
O196 O 0.82233 0.70478 0.61506 0.0
O197 O 0.80567 0.6307 0.50039 0.0
O198 O 0.80497 0.66531 0.63148 0.0
O199 O 0.79275 0.62191 0.56397 0.0
C200 C 0.83867 0.70626 0.48226 0.0
C201 C 0.86315 0.60547 0.6428 0.0
C202 C 0.90851 0.69477 0.5945 0.0
C203 C 0.88928 0.61377 0.49288 0.0
C204 C 0.80605 0.69053 0.6357 0.0
C205 C 0.78889 0.62105 0.52544 0.0
O206 O 0.8409 0.71406 0.51931 0.0
O207 O 0.02709 0.04845 0.71138 0.0
Zn208 Zn 0.05844 0.05932 0.74589 0.0
O209 O 0.0471 0.07055 0.79974 0.0
Zn210 Zn 0.0523 0.10869 0.80295 0.0
Zn211 Zn 0.00945 0.06204 0.80779 0.0
Zn212 Zn 0.06852 0.05281 0.84159 0.0
O213 O 0.07887 0.11752 0.84567 0.0
O214 O 0.08896 0.07914 0.87593 0.0
O215 O 0.07628 0.08877 0.71503 0.0
O216 O 0.06645 0.12488 0.75107 0.0
O217 O 0.01928 0.12656 0.82107 0.0
O218 O 0.98945 0.09405 0.83033 0.0
O219 O 0.00546 0.03166 0.84827 0.0
O220 O 0.08517 0.03032 0.75008 0.0
O221 O 0.04565 0.03019 0.87738 0.0
O222 O 0.09463 0.02735 0.81663 0.0
C223 C 0.00205 0.04785 0.71801 0.0
C224 C 0.09134 0.10439 0.87294 0.0
C225 C -0.0036 0.11851 0.83239 0.0
C226 C 0.07682 0.11396 0.71975 0.0
C227 C 0.02153 0.0223 0.87512 0.0
C228 C 0.09848 0.02041 0.77967 0.0
O229 O -0.00743 0.0528 0.75343 0.0
O230 O 0.64662 0.27475 -0.00546 0.0
Zn231 Zn 0.64562 0.30989 0.02308 0.0
O232 O 0.63272 0.30595 0.07844 0.0
Zn233 Zn 0.5975 0.32213 0.08101 0.0
Zn234 Zn 0.63096 0.26788 0.09273 0.0
Zn235 Zn 0.65699 0.32457 0.11551 0.0
O236 O 0.5969 0.35143 0.12233 0.0
O237 O 0.63881 0.35485 0.14411 0.0
O238 O 0.62274 0.33401 0.98978 0.0
O239 O 0.58669 0.33988 0.02775 0.0
O240 O 0.57032 0.29491 0.09718 0.0
O241 O 0.59355 0.25808 0.11058 0.0
O242 O 0.65726 0.25916 0.1385 0.0
O243 O 0.68135 0.32667 0.0219 0.0
O244 O 0.67127 0.29954 0.15736 0.0
O245 O 0.68915 0.33922 0.08617 0.0
C246 C 0.64327 0.25062 0.00572 0.0
C247 C 0.61469 0.36279 0.14417 0.0
C248 C 0.57148 0.27071 0.10914 0.0
C249 C 0.59972 0.34398 -0.00511 0.0
C250 C 0.67094 0.27432 0.1621 0.0
C251 C 0.69585 0.33809 0.04868 0.0
O252 O 0.63791 0.24474 0.04284 0.0
O253 O 0.4666 0.92368 0.19927 0.0
Zn254 Zn 0.43072 0.91848 0.22367 0.0
O255 O 0.43236 0.91175 0.28191 0.0
Zn256 Zn 0.41714 0.87661 0.29244 0.0
Zn257 Zn 0.46972 0.9134 0.29985 0.0
Zn258 Zn 0.41116 0.93878 0.30996 0.0
O259 O 0.38529 0.87941 0.3284 0.0
O260 O 0.38268 0.92233 0.34468 0.0
O261 O 0.4139 0.88841 0.19359 0.0
O262 O 0.40464 0.85798 0.24075 0.0
O263 O 0.44361 0.85377 0.32167 0.0
O264 O 0.48006 0.87899 0.32851 0.0
O265 O 0.47529 0.94487 0.33836 0.0
O266 O 0.4074 0.94886 0.21047 0.0
O267 O 0.43435 0.96136 0.34561 0.0
O268 O 0.39174 0.96261 0.27032 0.0
C269 C 0.49019 0.92117 0.21324 0.0
C270 C 0.37417 0.89845 0.34754 0.0
C271 C 0.46744 0.85717 0.33437 0.0
C272 C 0.40434 0.86585 0.20363 0.0
C273 C 0.4592 0.96183 0.35386 0.0
C274 C 0.39237 0.9639 0.23142 0.0
O275 O 0.49453 0.91654 0.25111 0.0
O276 O 0.16079 0.26338 0.5354 0.0
Zn277 Zn 0.16222 0.30114 0.51628 0.0
O278 O 0.15229 0.30322 0.45857 0.0
Zn279 Zn 0.11965 0.32411 0.45291 0.0
Zn280 Zn 0.14721 0.26725 0.43588 0.0
Zn281 Zn 0.18086 0.32104 0.42933 0.0
O282 O 0.12605 0.35743 0.41994 0.0
O283 O 0.16865 0.35428 0.40207 0.0
O284 O 0.1364 0.32104 0.55196 0.0
O285 O 0.10544 0.33496 0.5081 0.0
O286 O 0.09096 0.30277 0.42451 0.0
O287 O 0.11007 0.26354 0.41239 0.0
O288 O 0.17407 0.25916 0.39107 0.0
O289 O 0.19901 0.31537 0.52693 0.0
O290 O 0.19547 0.29791 0.38587 0.0
O291 O 0.21129 0.33058 0.46599 0.0
C292 C 0.15529 0.2411 0.51861 0.0
C293 C 0.14645 0.36647 0.40128 0.0
C294 C 0.08998 0.27908 0.41031 0.0
C295 C 0.1144 0.3328 0.54456 0.0
C296 C 0.1916 0.27402 0.37416 0.0
C297 C 0.21598 0.3268 0.50385 0.0
O298 O 0.14977 0.23948 0.48054 0.0
O299 O 0.93948 0.88663 0.26348 0.0
Zn300 Zn 0.90382 0.88375 0.2365 0.0
O301 O 0.90785 0.8732 0.17967 0.0
Zn302 Zn 0.88569 0.84175 0.16905 0.0
Zn303 Zn 0.94555 0.86615 0.16662 0.0
Zn304 Zn 0.89518 0.90242 0.14642 0.0
O305 O 0.85918 0.84846 0.12367 0.0
O306 O 0.86561 0.89143 0.10999 0.0
O307 O 0.88246 0.85698 0.26763 0.0
O308 O 0.86678 0.82916 0.22032 0.0
O309 O 0.90858 0.81133 0.15126 0.0
O310 O 0.95007 0.82725 0.15108 0.0
O311 O 0.95872 0.88941 0.11922 0.0
O312 O 0.88619 0.91937 0.24269 0.0
O313 O 0.92336 0.91528 0.10993 0.0
O314 O 0.88298 0.93363 0.17857 0.0
C315 C 0.96338 0.88209 0.25243 0.0
C316 C 0.85366 0.86947 0.10333 0.0
C317 C 0.93351 0.80811 0.14584 0.0
C318 C 0.8684 0.83681 0.25751 0.0
C319 C 0.94705 0.90868 0.10093 0.0
C320 C 0.87988 0.93725 0.21672 0.0
O321 O 0.96876 0.8738 0.21641 0.0
O322 O 0.32146 0.72178 0.00638 0.0
Zn323 Zn 0.31957 0.684 0.98745 0.0
O324 O 0.33073 0.68172 0.93053 0.0
Zn325 Zn 0.36271 0.66024 0.92802 0.0
Zn326 Zn 0.33739 0.71727 0.90793 0.0
Zn327 Zn 0.30319 0.66435 0.89835 0.0
O328 O 0.35544 0.62521 0.90158 0.0
O329 O 0.31449 0.62927 0.87632 0.0
O330 O 0.34426 0.66378 0.02563 0.0
O331 O 0.37708 0.65227 0.98385 0.0
O332 O 0.39122 0.67853 0.89589 0.0
O333 O 0.37431 0.71882 0.8841 0.0
O334 O 0.31178 0.72604 0.86146 0.0
O335 O 0.2823 0.67037 -0.00549 0.0
O336 O 0.29203 0.68679 0.8515 0.0
O337 O 0.2712 0.65677 0.93189 0.0
C338 C 0.32902 0.74368 0.99029 0.0
C339 C 0.3357 0.61587 0.88158 0.0
C340 C 0.39316 0.70191 0.88087 0.0
C341 C 0.36718 0.65355 0.01964 0.0
C342 C 0.29606 0.71091 0.84109 0.0
C343 C 0.26569 0.65999 0.9695 0.0
O344 O 0.336 0.74504 0.95279 0.0
O345 O 0.50975 0.10176 0.74905 0.0
Zn346 Zn 0.548 0.09644 0.73492 0.0
O347 O 0.55435 0.10786 0.6787 0.0
Zn348 Zn 0.57995 0.13716 0.67923 0.0
Zn349 Zn 0.52053 0.11853 0.65223 0.0
Zn350 Zn 0.57012 0.07863 0.64847 0.0
O351 O 0.61323 0.12819 0.64904 0.0
O352 O 0.60643 0.0869 0.627 0.0
O353 O 0.56977 0.11762 0.77571 0.0
O354 O 0.59161 0.14642 0.73633 0.0
O355 O 0.56435 0.16948 0.65252 0.0
O356 O 0.52368 0.15672 0.63287 0.0
O357 O 0.51197 0.09506 0.60254 0.0
O358 O 0.55684 0.05767 0.74296 0.0
O359 O 0.54758 0.06877 0.60121 0.0
O360 O 0.57347 0.04612 0.68266 0.0
C361 C 0.48891 0.10996 0.73052 0.0
C362 C 0.62108 0.10755 0.62997 0.0
C363 C 0.54208 0.17434 0.63514 0.0
C364 C 0.58625 0.13683 0.77148 0.0
C365 C 0.52534 0.07617 0.58629 0.0
C366 C 0.56721 0.04039 0.71929 0.0
O367 O 0.48966 0.11708 0.69295 0.0
H368 H 0.40514 0.22736 0.14225 0.0
H369 H 0.43924 0.1727 0.05441 0.0
H370 H 0.44978 0.24209 0.16189 0.0
H371 H 0.48384 0.18806 0.0731 0.0
H372 H 0.5225 0.29283 0.12041 0.0
H373 H 0.4799 0.27001 0.12385 0.0
H374 H 0.52018 0.1937 0.12241 0.0
H375 H 0.56321 0.21674 0.118 0.0
C376 C 0.42219 0.21825 0.12751 0.0
C377 C 0.41869 0.19928 0.09619 0.0
C378 C 0.44775 0.22671 0.13872 0.0
C379 C 0.47032 0.21663 0.11851 0.0
C380 C 0.4669 0.19613 0.08946 0.0
C381 C 0.44131 0.18745 0.07853 0.0
C382 C 0.5224 0.27118 0.12146 0.0
C383 C 0.54623 0.25661 0.1183 0.0
C384 C 0.49791 0.25805 0.12387 0.0
C385 C 0.49662 0.23 0.12322 0.0
C386 C 0.52054 0.21534 0.1225 0.0
C387 C 0.54517 0.22854 0.1202 0.0
H388 H 0.56919 0.71823 0.36805 0.0
H389 H 0.48704 0.69317 0.35342 0.0
H390 H 0.55447 0.76408 0.37921 0.0
H391 H 0.47244 0.73877 0.36243 0.0
H392 H 0.44655 0.81967 0.38514 0.0
H393 H 0.46598 0.7765 0.40242 0.0
H394 H 0.53803 0.79857 0.33764 0.0
H395 H 0.51907 0.8423 0.32294 0.0
C396 C 0.54798 0.72248 0.36756 0.0
C397 C 0.52929 0.70213 0.35941 0.0
C398 C 0.53955 0.74878 0.37376 0.0
C399 C 0.51227 0.75532 0.37137 0.0
C400 C 0.49358 0.73461 0.36527 0.0
C401 C 0.50197 0.70834 0.3597 0.0
C402 C 0.46685 0.81547 0.37576 0.0
C403 C 0.48126 0.83405 0.35235 0.0
C404 C 0.47793 0.79067 0.38528 0.0
C405 C 0.50331 0.78366 0.37046 0.0
C406 C 0.51851 0.8032 0.34983 0.0
C407 C 0.50764 0.82829 0.34121 0.0
H408 H 0.03969 0.81018 0.61107 0.0
H409 H 0.07304 0.73371 0.57747 0.0
H410 H -0.00328 0.78884 0.62405 0.0
H411 H 0.03003 0.71262 0.58886 0.0
H412 H 0.95425 0.67609 0.62954 0.0
H413 H -0.00307 0.69911 0.63581 0.0
H414 H 0.96158 0.77034 0.58386 0.0
H415 H 0.91862 0.74757 0.5793 0.0
C416 C 0.03791 0.78879 0.60674 0.0
C417 C 0.05975 0.77367 0.59295 0.0
C418 C 0.01323 0.77658 0.61394 0.0
C419 C 0.00978 0.74904 0.60719 0.0
C420 C 0.03196 0.7338 0.59501 0.0
C421 C 0.05668 0.74594 0.58821 0.0
C422 C 0.95552 0.69681 0.62008 0.0
C423 C 0.93318 0.70995 0.60351 0.0
C424 C 0.98003 0.70997 0.62345 0.0
C425 C 0.98288 0.73646 0.60971 0.0
C426 C 0.96013 0.75003 0.59512 0.0
C427 C 0.93548 0.73696 0.59231 0.0
H428 H 0.98068 0.2766 0.8816 0.0
H429 H 0.89741 0.25908 0.85763 0.0
H430 H -0.01008 0.22907 0.88602 0.0
H431 H 0.90668 0.21143 0.86276 0.0
H432 H 0.95073 0.13821 0.7992 0.0
H433 H 0.93067 0.18117 0.81688 0.0
H434 H 0.98324 0.18722 0.92201 0.0
H435 H 0.00372 0.14475 0.90322 0.0
C436 C 0.96424 0.26265 0.87815 0.0
C437 C 0.93843 0.27166 0.86862 0.0
C438 C 0.96947 0.23535 0.88103 0.0
C439 C 0.949 0.21647 0.87457 0.0
C440 C 0.92288 0.2255 0.86742 0.0
C441 C 0.91763 0.25282 0.86456 0.0
C442 C 0.95709 0.14829 0.82698 0.0
C443 C 0.9786 0.13848 0.84995 0.0
C444 C 0.9457 0.17287 0.83716 0.0
C445 C 0.95577 0.1878 0.87045 0.0
C446 C 0.97546 0.17642 0.89576 0.0
C447 C 0.98697 0.15206 0.88532 0.0
H448 H 0.53551 0.79137 0.8213 0.0
H449 H 0.55904 0.71941 0.88471 0.0
H450 H 0.49166 0.77208 0.80749 0.0
H451 H 0.51474 0.70064 0.87354 0.0
H452 H 0.43371 0.67008 0.85375 0.0
H453 H 0.47869 0.68415 0.83503 0.0
H454 H 0.4555 0.76674 0.85116 0.0
H455 H 0.41058 0.75272 0.8677 0.0
C456 C 0.5313 0.77124 0.83179 0.0
C457 C 0.55029 0.75696 0.85461 0.0
C458 C 0.50618 0.76024 0.82413 0.0
C459 C 0.49934 0.73509 0.84033 0.0
C460 C 0.51923 0.71998 0.86031 0.0
C461 C 0.54462 0.73075 0.86702 0.0
C462 C 0.43817 0.69126 0.85235 0.0
C463 C 0.41879 0.7103 0.86287 0.0
C464 C 0.46396 0.69932 0.8418 0.0
C465 C 0.47094 0.72655 0.8422 0.0
C466 C 0.45093 0.74559 0.84994 0.0
C467 C 0.4251 0.73755 0.85983 0.0
H468 H 0.53414 0.33967 0.66403 0.0
H469 H 0.46669 0.32536 0.58437 0.0
H470 H 0.55188 0.29576 0.64734 0.0
H471 H 0.48514 0.28212 0.56513 0.0
H472 H 0.49392 0.19642 0.61623 0.0
H473 H 0.48442 0.24312 0.60412 0.0
H474 H 0.56902 0.26105 0.6067 0.0
H475 H 0.57841 0.21415 0.62076 0.0
C476 C 0.52386 0.32757 0.64136 0.0
C477 C 0.49899 0.33546 0.62583 0.0
C478 C 0.534 0.30239 0.63161 0.0
C479 C 0.51955 0.28502 0.60565 0.0
C480 C 0.49632 0.29459 0.58626 0.0
C481 C 0.48587 0.31941 0.59687 0.0
C482 C 0.51054 0.21021 0.61344 0.0
C483 C 0.53685 0.2017 0.6203 0.0
C484 C 0.50514 0.23709 0.60606 0.0
C485 C 0.52596 0.25605 0.60476 0.0
C486 C 0.55247 0.24712 0.60836 0.0
C487 C 0.55785 0.22023 0.61632 0.0
H488 H 0.92248 0.25105 0.40738 0.0
H489 H 0.95219 0.1805 0.34676 0.0
H490 H 0.96644 0.27143 0.40316 0.0
H491 H -0.00402 0.20141 0.34035 0.0
H492 H 0.07525 0.22697 0.40082 0.0
H493 H 0.03106 0.20967 0.38565 0.0
H494 H 0.00219 0.29027 0.36755 0.0
H495 H 0.04635 0.3076 0.38492 0.0
C496 C 0.93823 0.24024 0.39192 0.0
C497 C 0.93401 0.21404 0.37793 0.0
C498 C 0.96351 0.25199 0.3893 0.0
C499 C 0.98504 0.23795 0.37196 0.0
C500 C 0.98014 0.21255 0.35498 0.0
C501 C 0.95498 0.20062 0.35832 0.0
C502 C 0.05959 0.241 0.39298 0.0
C503 C 0.06423 0.26866 0.39459 0.0
C504 C 0.03417 0.23106 0.38394 0.0
C505 C 0.01281 0.24854 0.37562 0.0
C506 C 0.01794 0.27621 0.37472 0.0
C507 C 0.04331 0.28616 0.38442 0.0
H508 H 0.02801 0.66685 0.09526 0.0
H509 H 0.96122 0.64031 0.16812 0.0
H510 H 0.00645 0.70987 0.08465 0.0
H511 H 0.93995 0.68384 0.15896 0.0
H512 H 0.90395 0.76359 0.12736 0.0
H513 H 0.92006 0.71822 0.11665 0.0
H514 H 0.00131 0.74607 0.13167 0.0
H515 H 0.98534 0.79139 0.14128 0.0
C516 C 0.00841 0.67011 0.1083 0.0
C517 C -0.00365 0.65049 0.13288 0.0
C518 C -0.00383 0.6948 0.10253 0.0
C519 C 0.97183 0.70054 0.12183 0.0
C520 C 0.95868 0.68006 0.14357 0.0
C521 C 0.97081 0.65511 0.14885 0.0
C522 C 0.92529 0.76008 0.12785 0.0
C523 C 0.94338 0.78111 0.13549 0.0
C524 C 0.93448 0.73404 0.12185 0.0
C525 C 0.96193 0.72847 0.12337 0.0
C526 C 0.98003 0.74968 0.12958 0.0
C527 C 0.97087 0.7757 0.13542 0.0
H528 H 0.10384 0.15745 0.87064 0.0
H529 H 0.12237 0.08383 0.93438 0.0
H530 H 0.1404 0.17975 0.90627 0.0
H531 H 0.15898 0.10626 0.96974 0.0
H532 H 0.21557 0.15575 0.04223 0.0
H533 H 0.17119 0.14309 0.01866 0.0
H534 H 0.18991 0.17241 0.8975 0.0
H535 H 0.2344 0.18532 0.92096 0.0
C536 C 0.11541 0.14612 0.89271 0.0
C537 C 0.11056 0.11872 0.8992 0.0
C538 C 0.13632 0.15893 0.91299 0.0
C539 C 0.15254 0.14463 0.94032 0.0
C540 C 0.14659 0.11776 0.94895 0.0
C541 C 0.12576 0.10488 0.92851 0.0
C542 C 0.21016 0.15984 0.01066 0.0
C543 C 0.22866 0.17104 0.98315 0.0
C544 C 0.18474 0.15261 -0.00269 0.0
C545 C 0.17734 0.15657 0.95631 0.0
C546 C 0.19514 0.16934 0.92942 0.0
C547 C 0.22065 0.17655 0.94275 0.0
H548 H 0.56674 0.38861 0.14433 0.0
H549 H 0.64666 0.39238 0.1951 0.0
H550 H 0.55659 0.43167 0.17511 0.0
H551 H 0.6364 0.43561 0.22559 0.0
H552 H 0.5985 0.50177 0.30346 0.0
H553 H 0.6069 0.45679 0.27821 0.0
H554 H 0.57274 0.47829 0.16096 0.0
H555 H 0.56406 0.5233 0.18615 0.0
C556 C 0.58206 0.39845 0.1624 0.0
C557 C 0.6076 0.38718 0.16699 0.0
C558 C 0.57627 0.42318 0.17975 0.0
C559 C 0.59582 0.43702 0.20224 0.0
C560 C 0.62095 0.42526 0.20845 0.0
C561 C 0.62682 0.40057 0.19091 0.0
C562 C 0.59276 0.49694 0.27228 0.0
C563 C 0.58062 0.5161 0.24675 0.0
C564 C 0.59766 0.47122 0.25786 0.0
C565 C 0.59036 0.46412 0.21777 0.0
C566 C 0.57823 0.48321 0.19222 0.0
C567 C 0.57346 0.50901 0.20653 0.0
H568 H 0.34692 0.9324 0.39819 0.0
H569 H 0.34577 0.85204 0.34917 0.0
H570 H 0.30414 0.92388 0.43188 0.0
H571 H 0.30329 0.8438 0.38267 0.0
H572 H 0.21459 0.84963 0.40416 0.0
H573 H 0.25634 0.86302 0.37203 0.0
H574 H 0.28574 0.89212 0.48838 0.0
H575 H 0.24391 0.87879 0.52089 0.0
C576 C 0.33767 0.91293 0.39483 0.0
C577 C 0.34965 0.89293 0.37089 0.0
C578 C 0.31328 0.9081 0.4141 0.0
C579 C 0.30042 0.88336 0.40925 0.0
C580 C 0.31267 0.86321 0.38619 0.0
C581 C 0.33709 0.8679 0.36734 0.0
C582 C 0.22977 0.85918 0.42287 0.0
C583 C 0.2261 0.86285 0.46516 0.0
C584 C 0.25367 0.86671 0.40449 0.0
C585 C 0.27422 0.87824 0.42797 0.0
C586 C 0.27011 0.88326 0.46974 0.0
C587 C 0.24625 0.87552 0.48827 0.0
H588 H 0.82847 0.57402 0.68649 0.0
H589 H 0.91257 0.59077 0.66959 0.0
H590 H 0.83998 0.53598 0.73012 0.0
H591 H 0.9238 0.55297 0.71315 0.0
H592 H 0.92604 0.46035 0.72285 0.0
H593 H 0.91616 0.50414 0.69453 0.0
H594 H 0.86458 0.52095 0.7971 0.0
H595 H 0.8746 0.47677 0.82596 0.0
C596 C 0.84934 0.56992 0.69266 0.0
C597 C 0.86961 0.58504 0.67388 0.0
C598 C 0.85588 0.54829 0.71783 0.0
C599 C 0.88274 0.5415 0.72444 0.0
C600 C 0.90294 0.55767 0.70798 0.0
C601 C 0.89645 0.57926 0.683 0.0
C602 C 0.91272 0.4734 0.73957 0.0
C603 C 0.90098 0.46515 0.77648 0.0
C604 C 0.90726 0.49854 0.72354 0.0
C605 C 0.88975 0.51586 0.74385 0.0
C606 C 0.87815 0.50785 0.781 0.0
C607 C 0.88394 0.4827 0.79746 0.0
H608 H 0.74415 0.83201 0.90294 0.0
H609 H 0.70268 0.87682 -0.00402 0.0
H610 H 0.78696 0.8426 0.93633 0.0
H611 H 0.74521 0.88801 0.02851 0.0
H612 H 0.82799 0.91167 0.06845 0.0
H613 H 0.79272 0.91031 0.01664 0.0
H614 H 0.79857 0.82431 0.01217 0.0
H615 H 0.83371 0.82545 0.06436 0.0
C616 C 0.74438 0.84501 0.92949 0.0
C617 C 0.72045 0.85358 0.94729 0.0
C618 C 0.7687 0.85091 0.94858 0.0
C619 C 0.76913 0.86596 0.98488 0.0
C620 C 0.7453 0.87654 0.00034 0.0
C621 C 0.72106 0.87012 0.9819 0.0
C622 C 0.82197 0.89248 0.05611 0.0
C623 C 0.83328 0.8686 0.07081 0.0
C624 C 0.80196 0.89179 0.02637 0.0
C625 C 0.79329 0.86727 0.01041 0.0
C626 C 0.80534 0.84348 0.02371 0.0
C627 C 0.82509 0.84411 0.05392 0.0
H628 H 0.37105 0.57725 0.90234 0.0
H629 H 0.30485 0.59411 0.82076 0.0
H630 H 0.37761 0.5346 0.86887 0.0
H631 H 0.31144 0.55091 0.78714 0.0
H632 H 0.37379 0.50018 0.70628 0.0
H633 H 0.34984 0.5353 0.74277 0.0
H634 H 0.35694 0.4903 0.85543 0.0
H635 H 0.3814 0.45563 0.81932 0.0
C636 C 0.35768 0.57166 0.87756 0.0
C637 C 0.33771 0.58909 0.86372 0.0
C638 C 0.3612 0.54708 0.85874 0.0
C639 C 0.3449 0.5395 0.82558 0.0
C640 C 0.32421 0.55642 0.81267 0.0
C641 C 0.3205 0.58103 0.83186 0.0
C642 C 0.36963 0.49757 0.73861 0.0
C643 C 0.38011 0.47579 0.76039 0.0
C644 C 0.35574 0.51749 0.75939 0.0
C645 C 0.35206 0.51559 0.80197 0.0
C646 C 0.36003 0.49237 0.82271 0.0
C647 C 0.37412 0.47269 0.80213 0.0
H648 H 0.6605 0.14448 0.64043 0.0
H649 H 0.64184 0.07089 0.57674 0.0
H650 H 0.70388 0.1458 0.6074 0.0
H651 H 0.6856 0.07225 0.54381 0.0
H652 H 0.74775 0.11329 0.45431 0.0
H653 H 0.70686 0.10292 0.4915 0.0
H654 H 0.74678 0.12038 0.60606 0.0
H655 H 0.78758 0.13101 0.56916 0.0
C656 C 0.66571 0.1285 0.61957 0.0
C657 C 0.6477 0.10767 0.61099 0.0
C658 C 0.69065 0.12914 0.60097 0.0
C659 C 0.69805 0.10904 0.57328 0.0
C660 C 0.68025 0.08801 0.56499 0.0
C661 C 0.6553 0.08724 0.58388 0.0
C662 C 0.74794 0.11452 0.48747 0.0
C663 C 0.77074 0.12344 0.50875 0.0
C664 C 0.72458 0.10843 0.50872 0.0
C665 C 0.72369 0.11119 0.55152 0.0
C666 C 0.74691 0.11852 0.57296 0.0
C667 C 0.77024 0.12456 0.5518 0.0
H668 H 0.10865 0.40509 0.40874 0.0
H669 H 0.17951 0.38412 0.34061 0.0
H670 H 0.1046 0.44604 0.36877 0.0
H671 H 0.17518 0.4252 0.30032 0.0
H672 H 0.12192 0.48023 0.20826 0.0
H673 H 0.1382 0.44225 0.24847 0.0
H674 H 0.1326 0.48926 0.359 0.0
H675 H 0.11652 0.52711 0.31928 0.0
C676 C 0.12337 0.40927 0.38533 0.0
C677 C 0.14435 0.39146 0.37775 0.0
C678 C 0.12119 0.43277 0.36273 0.0
C679 C 0.13975 0.43871 0.33184 0.0
C680 C 0.16073 0.42096 0.32411 0.0
C681 C 0.16317 0.39759 0.34719 0.0
C682 C 0.12493 0.48268 0.24095 0.0
C683 C 0.11735 0.50637 0.2608 0.0
C684 C 0.13425 0.461 0.26388 0.0
C685 C 0.13604 0.46286 0.30676 0.0
C686 C 0.13087 0.48731 0.32601 0.0
C687 C 0.12168 0.50891 0.30322 0.0
H688 H 0.65065 0.56658 0.38444 0.0
H689 H 0.64305 0.65101 0.40995 0.0
H690 H 0.69027 0.56458 0.42824 0.0
H691 H 0.68255 0.64875 0.45436 0.0
H692 H 0.78024 0.59522 0.4537 0.0
H693 H 0.73733 0.58936 0.41888 0.0
H694 H 0.69681 0.62232 0.52383 0.0
H695 H 0.7398 0.62764 0.55923 0.0
C696 C 0.65735 0.58466 0.39961 0.0
C697 C 0.64391 0.60901 0.39369 0.0
C698 C 0.67992 0.58344 0.42465 0.0
C699 C 0.68909 0.60643 0.44478 0.0
C700 C 0.67549 0.6307 0.43946 0.0
C701 C 0.65317 0.63205 0.41378 0.0
C702 C 0.76208 0.60043 0.46975 0.0
C703 C 0.76317 0.61189 0.50898 0.0
C704 C 0.73763 0.5971 0.4499 0.0
C705 C 0.71402 0.60569 0.4687 0.0
C706 C 0.71491 0.61574 0.50883 0.0
C707 C 0.73937 0.61853 0.52911 0.0
H708 H 0.10345 0.97332 0.82023 0.0
H709 H 0.13373 0.01847 0.71752 0.0
H710 H 0.12272 0.93248 0.79144 0.0
H711 H 0.15347 0.97805 0.68939 0.0
H712 H 0.10214 0.88157 0.6685 0.0
H713 H 0.10116 0.91553 0.72191 0.0
H714 H 0.18355 0.9354 0.6973 0.0
H715 H 0.18476 0.90112 0.644 0.0
C716 C 0.11534 0.97466 0.7926 0.0
C717 C 0.11687 -0.00134 0.77049 0.0
C718 C 0.12628 0.9514 0.77621 0.0
C719 C 0.13925 0.95225 0.73814 0.0
C720 C 0.14368 0.97695 0.71892 0.0
C721 C 0.13226 1e-05 0.73478 0.0
C722 C 0.12016 0.89289 0.6749 0.0
C723 C 0.14334 0.88914 0.65164 0.0
C724 C 0.11975 0.91197 0.70592 0.0
C725 C 0.14238 0.92782 0.71374 0.0
C726 C 0.16598 0.92319 0.69192 0.0
C727 C 0.16653 0.90378 0.6613 0.0
H728 H 0.70317 0.36936 0.98252 0.0
H729 H 0.7449 0.33235 0.0837 0.0
H730 H 0.74578 0.38182 0.95164 0.0
H731 H 0.78781 0.34412 0.05192 0.0
H732 H 0.83053 0.41104 0.92093 0.0
H733 H 0.79249 0.40882 0.96793 0.0
H734 H 0.80174 0.32326 0.97656 0.0
H735 H 0.83923 0.32525 0.92899 0.0
C736 C 0.72155 0.3645 -0.00148 0.0
C737 C 0.72105 0.34986 0.03517 0.0
C738 C 0.7458 0.37173 0.98105 0.0
C739 C 0.76982 0.36381 -0.00046 0.0
C740 C 0.76938 0.35044 0.0374 0.0
C741 C 0.74501 0.3438 0.0555 0.0
C742 C 0.8245 0.39181 0.93313 0.0
C743 C 0.83748 0.36826 0.92101 0.0
C744 C 0.80296 0.39061 0.96007 0.0
C745 C 0.79464 0.36594 0.97599 0.0
C746 C 0.80819 0.34253 0.96505 0.0
C747 C 0.82931 0.34365 0.93746 0.0
H748 H 0.36967 0.00985 0.2601 0.0
H749 H 0.37469 0.95902 0.1533 0.0
H750 H 0.34513 0.04293 0.21975 0.0
H751 H 0.34964 -0.00841 0.11352 0.0
H752 H 0.35852 0.07582 0.05337 0.0
H753 H 0.36711 0.03494 0.09096 0.0
H754 H 0.30503 0.05508 0.17727 0.0
H755 H 0.29652 0.09651 0.13956 0.0
C756 C 0.36502 0.00555 0.22831 0.0
C757 C 0.37472 0.98238 0.20941 0.0
C758 C 0.35075 0.02428 0.20537 0.0
C759 C 0.34583 0.01985 0.16344 0.0
C760 C 0.35361 -0.00437 0.14561 0.0
C761 C 0.36808 0.97713 0.16831 0.0
C762 C 0.34635 0.07132 0.07991 0.0
C763 C 0.32721 0.08947 0.09402 0.0
C764 C 0.35107 0.04777 0.10122 0.0
C765 C 0.33679 0.04199 0.13713 0.0
C766 C 0.31641 0.05928 0.14982 0.0
C767 C 0.31151 0.08284 0.12819 0.0
H768 H 0.25507 0.35556 0.46559 0.0
H769 H 0.23538 0.3177 0.58095 0.0
H770 H 0.29819 0.36922 0.49366 0.0
H771 H 0.27839 0.33163 0.60891 0.0
H772 H 0.36767 0.33542 0.63009 0.0
H773 H 0.32651 0.32096 0.59696 0.0
H774 H 0.3151 0.40043 0.54823 0.0
H775 H 0.35649 0.41504 0.58108 0.0
C776 C 0.2599 0.35019 0.49691 0.0
C777 C 0.24183 0.33551 0.52105 0.0
C778 C 0.28452 0.3581 0.51296 0.0
C779 C 0.29158 0.35134 0.5533 0.0
C780 C 0.27354 0.33676 0.57749 0.0
C781 C 0.24886 0.32896 0.56155 0.0
C782 C 0.35658 0.34979 0.61202 0.0
C783 C 0.36523 0.37645 0.6085 0.0
C784 C 0.33294 0.34153 0.59327 0.0
C785 C 0.31757 0.35968 0.57049 0.0
C786 C 0.32669 0.38604 0.56554 0.0
C787 C 0.35031 0.39438 0.58445 0.0
H788 H 0.81292 0.07561 0.33992 0.0
H789 H 0.89425 0.09465 0.30595 0.0
H790 H 0.81537 0.03436 0.30043 0.0
H791 H 0.89637 0.0534 0.26602 0.0
H792 H 0.85742 0.94892 0.29045 0.0
H793 H 0.84707 -0.00676 0.31728 0.0
H794 H 0.87217 0.02896 0.20318 0.0
H795 H 0.88217 0.98464 0.17588 0.0
C796 C 0.83112 0.07129 0.32337 0.0
C797 C 0.85354 0.08818 0.32637 0.0
C798 C 0.83246 0.04769 0.30091 0.0
C799 C 0.85604 0.04088 0.28054 0.0
C800 C 0.87792 0.05846 0.28139 0.0
C801 C 0.87675 0.0819 0.30439 0.0
C802 C 0.86031 0.96619 0.27089 0.0
C803 C 0.87073 0.96343 0.23126 0.0
C804 C 0.85425 -0.00855 0.28611 0.0
C805 C 0.85892 0.01428 0.26214 0.0
C806 C 0.86849 0.01152 0.22208 0.0
C807 C 0.8741 0.98622 0.20655 0.0
H808 H 0.11118 0.64143 0.07977 0.0
H809 H 0.14379 0.56146 0.07453 0.0
H810 H 0.14805 0.65785 0.03864 0.0
H811 H 0.18077 0.57823 0.03271 0.0
H812 H 0.23341 0.62231 0.93483 0.0
H813 H 0.19146 0.60467 0.96222 0.0
H814 H 0.198 0.65841 0.0653 0.0
H815 H 0.23997 0.67585 0.03848 0.0
C816 C 0.12598 0.62725 0.06931 0.0
C817 C 0.12499 0.60024 0.08118 0.0
C818 C 0.14698 0.63671 0.04573 0.0
C819 C 0.16721 0.61931 0.03329 0.0
C820 C 0.16523 0.59192 0.04214 0.0
C821 C 0.14419 0.58239 0.06608 0.0
C822 C 0.22573 0.63049 0.96316 0.0
C823 C 0.23985 0.65042 0.98466 0.0
C824 C 0.2019 0.62032 0.97876 0.0
C825 C 0.19171 0.63036 0.01554 0.0
C826 C 0.2055 0.65062 0.03658 0.0
C827 C 0.2295 0.66046 0.02141 0.0
H828 H 0.59212 -0.00013 0.67881 0.0
H829 H 0.55458 0.01947 0.79421 0.0
H830 H 0.60222 0.95532 0.70448 0.0
H831 H 0.56501 0.97493 0.81983 0.0
H832 H 0.56483 0.88558 0.83805 0.0
H833 H 0.55229 0.92753 0.80581 0.0
H834 H 0.63233 0.93635 0.75865 0.0
H835 H 0.64503 0.89412 0.79063 0.0
C836 C 0.58596 -0.00531 0.70959 0.0
C837 C 0.5726 0.01322 0.73456 0.0
C838 C 0.59186 0.96923 0.72427 0.0
C839 C 0.58439 0.96179 0.76404 0.0
C840 C 0.57071 0.98013 0.78883 0.0
C841 C 0.5649 0.00565 0.77424 0.0
C842 C 0.57975 0.89628 0.82051 0.0
C843 C 0.60603 0.88667 0.81723 0.0
C844 C 0.57255 0.92035 0.80224 0.0
C845 C 0.59143 0.93522 0.78023 0.0
C846 C 0.61739 0.92514 0.77537 0.0
C847 C 0.62465 0.90104 0.79377 0.0
H848 H 0.37088 0.10695 0.92393 0.0
H849 H 0.36146 0.18346 0.86464 0.0
H850 H 0.39833 0.09153 0.8673 0.0
H851 H 0.39043 0.16875 0.80886 0.0
H852 H 0.44107 0.13316 0.70771 0.0
H853 H 0.40217 0.14105 0.75142 0.0
H854 H 0.44269 0.10163 0.85188 0.0
H855 H 0.48047 0.09301 0.8085 0.0
C856 C 0.37451 0.12035 0.89842 0.0
C857 C 0.36442 0.14645 0.89876 0.0
C858 C 0.39039 0.11163 0.86609 0.0
C859 C 0.39728 0.12913 0.83399 0.0
C860 C 0.38552 0.15468 0.83292 0.0
C861 C 0.36901 0.16318 0.86494 0.0
C862 C 0.44135 0.12578 0.73893 0.0
C863 C 0.46399 0.11258 0.75461 0.0
C864 C 0.41914 0.13045 0.76405 0.0
C865 C 0.41917 0.12195 0.80524 0.0
C866 C 0.44153 0.10801 0.82019 0.0
C867 C 0.46348 0.10329 0.79526 0.0
H868 H 0.61382 0.69346 0.21973 0.0
H869 H 0.60823 0.62129 0.14761 0.0
H870 H 0.63164 0.71723 0.16092 0.0
H871 H 0.62742 0.64465 0.08914 0.0
H872 H 0.61985 0.70532 0.98287 0.0
H873 H 0.6128 0.67609 0.04121 0.0
H874 H 0.66612 0.72503 0.11423 0.0
H875 H 0.672 0.75509 0.05615 0.0
C876 C 0.61701 0.68252 0.19153 0.0
C877 C 0.60929 0.65563 0.18809 0.0
C878 C 0.62746 0.6961 0.15778 0.0
C879 C 0.63086 0.68295 0.11999 0.0
C880 C 0.62453 0.6556 0.11739 0.0
C881 C 0.61363 0.64215 0.15096 0.0
C882 C 0.63049 0.70953 0.01113 0.0
C883 C 0.64616 0.7327 0.01512 0.0
C884 C 0.62655 0.69267 0.04468 0.0
C885 C 0.63857 0.69836 0.0828 0.0
C886 C 0.65594 0.72043 0.08573 0.0
C887 C 0.65951 0.73755 0.05235 0.0
H888 H 0.01484 0.8641 0.24811 0.0
H889 H 0.96075 0.90788 0.32601 0.0
H890 H 0.0487 0.86561 0.30173 0.0
H891 H -0.00508 0.91016 0.37918 0.0
H892 H 0.04652 0.86836 0.47998 0.0
H893 H 0.01436 0.87934 0.42642 0.0
H894 H 0.07901 0.89208 0.34104 0.0
H895 H 0.11106 0.88012 0.39428 0.0
C896 C 0.01036 0.8745 0.27636 0.0
C897 C 0.98501 0.88556 0.28297 0.0
C898 C 0.02985 0.87556 0.30708 0.0
C899 C 0.0245 0.88794 0.34492 0.0
C900 C -0.00046 0.90009 0.35072 0.0
C901 C 0.97999 0.89883 0.32015 0.0
C902 C 0.05387 0.87418 0.45007 0.0
C903 C 0.08123 0.87297 0.44111 0.0
C904 C 0.03544 0.88052 0.41929 0.0
C905 C 0.04409 0.88608 0.37914 0.0
C906 C 0.07165 0.88717 0.37131 0.0
C907 C 0.09001 0.88053 0.40189 0.0
H908 H 0.8497 0.2108 0.59178 0.0
H909 H 0.84685 0.27252 0.49895 0.0
H910 H 0.85173 0.24456 0.64474 0.0
H911 H 0.84829 0.30661 0.55262 0.0
H912 H 0.89563 0.35037 0.65814 0.0
H913 H 0.88205 0.32256 0.60065 0.0
H914 H 0.82766 0.27948 0.67939 0.0
H915 H 0.84182 0.3068 0.73734 0.0
C916 C 0.84918 0.23161 0.58262 0.0
C917 C 0.84839 0.23893 0.54103 0.0
C918 C 0.85002 0.25102 0.61314 0.0
C919 C 0.85003 0.2783 0.60294 0.0
C920 C 0.84848 0.28573 0.5614 0.0
C921 C 0.84762 0.26621 0.5307 0.0
C922 C 0.88037 0.33534 0.66309 0.0
C923 C 0.87024 0.3304 0.70254 0.0
C924 C 0.87246 0.31948 0.62999 0.0
C925 C 0.85414 0.2985 0.63563 0.0
C926 C 0.8423 0.2951 0.67432 0.0
C927 C 0.85034 0.31083 0.70748 0.0
H928 H 0.54517 0.85805 0.99352 0.0
H929 H 0.61985 0.86159 0.06041 0.0
H930 H 0.52354 0.88303 0.04794 0.0
H931 H 0.59833 0.88724 0.11434 0.0
H932 H 0.49167 0.94089 0.13545 0.0
H933 H 0.52098 0.92609 0.08061 0.0
H934 H 0.56625 0.87928 0.16784 0.0
H935 H 0.53744 0.89473 0.22281 0.0
C936 C 0.55703 0.86436 0.01964 0.0
C937 C 0.58417 0.85762 0.02273 0.0
C938 C 0.54471 0.87895 0.05068 0.0
C939 C 0.55927 0.8873 0.08541 0.0
C940 C 0.58652 0.88092 0.08818 0.0
C941 C 0.59882 0.86622 0.05722 0.0
C942 C 0.50839 0.92808 0.14308 0.0
C943 C 0.51203 0.91863 0.18329 0.0
C944 C 0.525 0.91939 0.11161 0.0
C945 C 0.54546 0.90092 0.11967 0.0
C946 C 0.55067 0.8935 0.16054 0.0
C947 C 0.53417 0.90241 0.19214 0.0
H948 H 0.39937 0.31399 0.77481 0.0
H949 H 0.41922 0.377 0.86052 0.0
H950 H 0.37512 0.29063 0.82868 0.0
H951 H 0.3945 0.35385 0.91398 0.0
H952 H 0.37304 0.28388 0.00474 0.0
H953 H 0.39573 0.31292 0.95586 0.0
H954 H 0.33334 0.298 0.86681 0.0
H955 H 0.3109 0.26865 0.91529 0.0
C956 C 0.39875 0.32275 0.80515 0.0
C957 C 0.41108 0.34741 0.81327 0.0
C958 C 0.38458 0.30955 0.83586 0.0
C959 C 0.38249 0.32074 0.87527 0.0
C960 C 0.39573 0.34483 0.88387 0.0
C961 C 0.40987 0.35804 0.85317 0.0
C962 C 0.36373 0.28749 0.97522 0.0
C963 C 0.34044 0.27368 0.96355 0.0
C964 C 0.37681 0.304 0.94715 0.0
C965 C 0.36667 0.30703 0.90718 0.0
C966 C 0.34201 0.29532 0.89701 0.0
C967 C 0.32902 0.27878 0.92493 0.0
H968 H 0.01417 0.03586 0.6382 0.0
H969 H 0.94854 0.05782 0.71692 0.0
H970 H 0.98676 0.04556 0.57813 0.0
H971 H 0.92174 0.06857 0.6575 0.0
H972 H 0.8742 0.0865 0.54931 0.0
H973 H 0.89822 0.0586 0.59811 0.0
H974 H 0.97318 0.08601 0.54729 0.0
H975 H 0.94879 0.11255 0.49673 0.0
C976 C -0.00628 0.04221 0.64272 0.0
C977 C 0.98371 0.04656 0.68239 0.0
C978 C 0.97809 0.04802 0.60825 0.0
C979 C 0.95222 0.05847 0.61279 0.0
C980 C 0.94147 0.06042 0.6525 0.0
C981 C 0.95695 0.05433 0.68685 0.0
C982 C 0.89583 0.0861 0.54821 0.0
C983 C 0.90975 0.10194 0.51988 0.0
C984 C 0.90961 0.07022 0.57625 0.0
C985 C 0.93768 0.07042 0.57738 0.0
C986 C 0.95157 0.08509 0.54723 0.0
C987 C 0.93768 0.1005 0.51842 0.0
H988 H 0.13352 0.77204 0.37885 0.0
H989 H 0.15167 0.71192 0.47002 0.0
H990 H 0.12244 0.73732 0.32982 0.0
H991 H 0.14167 0.677 0.4202 0.0
H992 H 0.08292 0.62696 0.34411 0.0
H993 H 0.10186 0.65986 0.39051 0.0
H994 H 0.13674 0.70168 0.28762 0.0
H995 H 0.11676 0.66922 0.24091 0.0
C996 C 0.13577 0.75137 0.38815 0.0
C997 C 0.14313 0.74471 0.42849 0.0
C998 C 0.12955 0.73142 0.35988 0.0
C999 C 0.13088 0.70435 0.37119 0.0
C1000 C 0.13983 0.69768 0.41082 0.0
C1001 C 0.14573 0.71767 0.43929 0.0
C1002 C 0.09472 0.64312 0.33138 0.0
C1003 C 0.09817 0.64564 0.28885 0.0
C1004 C 0.10583 0.66186 0.35804 0.0
C1005 C 0.12092 0.68339 0.34284 0.0
C1006 C 0.12491 0.68555 0.3003 0.0
C1007 C 0.1135 0.66694 0.27354 0.0
H1008 H 0.86947 0.58541 0.42841 0.0
H1009 H 0.94287 0.6039 0.4926 0.0
H1010 H 0.89467 0.56253 0.37535 0.0
H1011 H 0.9682 0.58206 0.4388 0.0
H1012 H 0.95155 0.57356 0.26353 0.0
H1013 H 0.92169 0.57884 0.32139 0.0
H1014 H 0.98087 0.5434 0.40152 0.0
H1015 H 0.01117 0.53913 0.34368 0.0
C1016 C 0.89101 0.58438 0.4313 0.0
C1017 C 0.9043 0.59682 0.46421 0.0
C1018 C 0.90543 0.57132 0.40087 0.0
C1019 C 0.93347 0.57078 0.40243 0.0
C1020 C 0.94661 0.58179 0.43677 0.0
C1021 C 0.93213 0.59453 0.46753 0.0
C1022 C 0.95789 0.56623 0.29327 0.0
C1023 C 0.98385 0.55648 0.29932 0.0
C1024 C 0.94072 0.56915 0.32654 0.0
C1025 C 0.9491 0.56203 0.36633 0.0
C1026 C 0.9741 0.54975 0.37149 0.0
C1027 C -0.00862 0.54717 0.33833 0.0
H1028 H 0.08522 0.16788 0.72206 0.0
H1029 H 0.10016 0.09773 0.64825 0.0
H1030 H 0.10902 0.19519 0.67245 0.0
H1031 H 0.12434 0.12519 0.59884 0.0
H1032 H 0.12998 0.19408 0.49986 0.0
H1033 H 0.11376 0.16089 0.54857 0.0
H1034 H 0.15479 0.20205 0.64679 0.0
H1035 H 0.1707 0.23545 0.59838 0.0
C1036 C 0.09362 0.15826 0.69533 0.0
C1037 C 0.09072 0.13064 0.6891 0.0
C1038 C 0.1075 0.17387 0.66711 0.0
C1039 C 0.11879 0.16224 0.63202 0.0
C1040 C 0.1158 0.13466 0.62559 0.0
C1041 C 0.10196 0.11899 0.65392 0.0
C1042 C 0.13614 0.19566 0.53165 0.0
C1043 C 0.1512 0.21767 0.54541 0.0
C1044 C 0.12683 0.17664 0.55955 0.0
C1045 C 0.13252 0.17928 0.60157 0.0
C1046 C 0.14954 0.19994 0.61469 0.0
C1047 C 0.15879 0.21895 0.5869 0.0
H1048 H 0.50182 0.44692 0.84177 0.0
H1049 H 0.54925 0.39897 0.75959 0.0
H1050 H 0.52964 0.43275 0.8992 0.0
H1051 H 0.57649 0.38417 0.81701 0.0
H1052 H 0.62536 0.36374 0.92764 0.0
H1053 H 0.60683 0.39112 0.87286 0.0
H1054 H 0.53006 0.39005 0.93306 0.0
H1055 H 0.5488 0.36336 0.98849 0.0
C1056 C 0.51866 0.43394 0.8358 0.0
C1057 C 0.52305 0.42364 0.79632 0.0
C1058 C 0.53441 0.4256 0.86876 0.0
C1059 C 0.55473 0.40669 0.86289 0.0
C1060 C 0.56096 0.39872 0.82269 0.0
C1061 C 0.54535 0.40726 0.78964 0.0
C1062 C 0.60454 0.36946 0.92932 0.0
C1063 C 0.58844 0.36112 0.96223 0.0
C1064 C 0.59395 0.38519 0.89789 0.0
C1065 C 0.56699 0.39281 0.89852 0.0
C1066 C 0.55106 0.38498 0.93195 0.0
C1067 C 0.5617 0.3694 0.96355 0.0
H1068 H 0.36192 0.78643 0.97723 0.0
H1069 H 0.30809 0.75202 0.06621 0.0
H1070 H 0.37833 0.81757 0.02875 0.0
H1071 H 0.3239 0.78376 0.11744 0.0
H1072 H 0.38648 0.81415 0.20944 0.0
H1073 H 0.36463 0.78772 0.1562 0.0
H1074 H 0.36988 0.85466 0.0727 0.0
H1075 H 0.39245 0.88069 0.12526 0.0
C1076 C 0.35296 0.78609 0.00741 0.0
C1077 C 0.33396 0.76657 0.01782 0.0
C1078 C 0.36241 0.80394 0.03703 0.0
C1079 C 0.3528 0.80278 0.07747 0.0
C1080 C 0.33224 0.78465 0.08689 0.0
C1081 C 0.32298 0.76667 0.05741 0.0
C1082 C 0.38301 0.82317 0.1797 0.0
C1083 C 0.39138 0.84943 0.17155 0.0
C1084 C 0.37024 0.80815 0.14928 0.0
C1085 C 0.36538 0.81915 0.11021 0.0
C1086 C 0.3736 0.84547 0.10225 0.0
C1087 C 0.38653 0.8604 0.13248 0.0
H1088 H 0.12737 0.33331 0.62636 0.0
H1089 H 0.06425 0.35399 0.54131 0.0
H1090 H 0.09883 0.34598 0.68358 0.0
H1091 H 0.03563 0.36581 0.59823 0.0
H1092 H -0.0066 0.40203 0.70253 0.0
H1093 H 0.02838 0.39717 0.65162 0.0
H1094 H 0.05961 0.32913 0.71787 0.0
H1095 H 0.02503 0.33471 0.7698 0.0
C1096 C 0.10749 0.3407 0.61982 0.0
C1097 C 0.09807 0.34256 0.5792 0.0
C1098 C 0.09109 0.34781 0.65266 0.0
C1099 C 0.06492 0.35688 0.64558 0.0
C1100 C 0.05582 0.35936 0.60489 0.0
C1101 C 0.07221 0.35239 0.57214 0.0
C1102 C 0.008 0.38628 0.70656 0.0
C1103 C 0.00631 0.36853 0.73984 0.0
C1104 C 0.02796 0.3834 0.67725 0.0
C1105 C 0.04649 0.36244 0.68016 0.0
C1106 C 0.04575 0.34559 0.71476 0.0
C1107 C 0.0259 0.34872 0.74449 0.0
H1108 H 0.87281 0.84421 0.34004 0.0
H1109 H 0.83645 0.7924 0.24952 0.0
H1110 H 0.85972 0.81367 0.39385 0.0
H1111 H 0.82226 0.76215 0.30397 0.0
H1112 H 0.84448 0.69792 0.40023 0.0
H1113 H 0.84515 0.73108 0.34605 0.0
H1114 H 0.82667 0.79281 0.43414 0.0
H1115 H 0.82713 0.75958 0.48889 0.0
C1116 C 0.86143 0.8266 0.33165 0.0
C1117 C 0.85611 0.82053 0.29033 0.0
C1118 C 0.85369 0.80911 0.3627 0.0
C1119 C 0.84017 0.78523 0.3533 0.0
C1120 C 0.83317 0.78009 0.31221 0.0
C1121 C 0.84116 0.79751 0.28101 0.0
C1122 C 0.84027 0.71852 0.40806 0.0
C1123 C 0.83614 0.72618 0.44899 0.0
C1124 C 0.8404 0.73756 0.37682 0.0
C1125 C 0.8361 0.7647 0.38566 0.0
C1126 C 0.83056 0.77215 0.42635 0.0
C1127 C 0.83075 0.75311 0.45773 0.0
H1128 H 0.41817 0.63491 0.01806 0.0
H1129 H 0.35268 0.65013 0.10078 0.0
H1130 H 0.44576 0.62108 0.07517 0.0
H1131 H 0.38035 0.6353 0.15842 0.0
H1132 H 0.453 0.64205 0.25 0.0
H1133 H 0.41874 0.64996 0.19775 0.0
H1134 H 0.45211 0.58666 0.1239 0.0
H1135 H 0.48685 0.57974 0.17509 0.0
C1136 C 0.40948 0.63495 0.04842 0.0
C1137 C 0.38318 0.64369 0.05477 0.0
C1138 C 0.4253 0.62677 0.08128 0.0
C1139 C 0.41523 0.62681 0.12145 0.0
C1140 C 0.38878 0.6352 0.12789 0.0
C1141 C 0.3729 0.64358 0.09486 0.0
C1142 C 0.45262 0.62956 0.2229 0.0
C1143 C 0.47278 0.61061 0.21618 0.0
C1144 C 0.43298 0.63401 0.193 0.0
C1145 C 0.43302 0.61932 0.1562 0.0
C1146 C 0.45197 0.5989 0.15127 0.0
C1147 C 0.47179 0.5948 0.1807 0.0
H1148 H 0.63063 0.19736 0.01428 0.0
H1149 H 0.65307 0.25666 0.9242 0.0
H1150 H 0.6216 0.16545 0.95928 0.0
H1151 H 0.64306 0.22551 0.86978 0.0
H1152 H 0.63334 0.16403 0.77479 0.0
H1153 H 0.65312 0.1866 0.8336 0.0
H1154 H 0.58744 0.15984 0.90911 0.0
H1155 H 0.56845 0.13612 0.85059 0.0
C1156 C 0.63403 0.20347 0.98286 0.0
C1157 C 0.64229 0.22968 0.97367 0.0
C1158 C 0.62861 0.18527 0.95131 0.0
C1159 C 0.63126 0.19294 0.90999 0.0
C1160 C 0.64105 0.21865 0.90111 0.0
C1161 C 0.64663 0.2367 0.9325 0.0
C1162 C 0.6233 0.16276 0.80409 0.0
C1163 C 0.59916 0.14866 0.808 0.0
C1164 C 0.63459 0.17575 0.83782 0.0
C1165 C 0.62171 0.17543 0.87607 0.0
C1166 C 0.59812 0.16031 0.88032 0.0
C1167 C 0.58708 0.14689 0.84668 0.0
H1168 H 0.24713 0.19211 0.15813 0.0
H1169 H 0.30946 0.25016 0.18148 0.0
H1170 H 0.22355 0.20686 0.21868 0.0
H1171 H 0.2862 0.26436 0.24344 0.0
H1172 H 0.22146 0.30342 0.32122 0.0
H1173 H 0.24713 0.28786 0.26319 0.0
H1174 H 0.22483 0.20636 0.29144 0.0
H1175 H 0.19811 0.22216 0.34896 0.0
C1176 C 0.25595 0.2079 0.17648 0.0
C1177 C 0.28017 0.22003 0.16501 0.0
C1178 C 0.2425 0.21619 0.21146 0.0
C1179 C 0.25304 0.23665 0.23613 0.0
C1180 C 0.27736 0.24874 0.2248 0.0
C1181 C 0.29073 0.24061 0.1894 0.0
C1182 C 0.22206 0.28214 0.31521 0.0
C1183 C 0.20765 0.26399 0.33961 0.0
C1184 C 0.23699 0.27321 0.28204 0.0
C1185 C 0.23812 0.24587 0.27266 0.0
C1186 C 0.22405 0.22763 0.29747 0.0
C1187 C 0.20882 0.23662 0.33049 0.0
H1188 H 0.48314 0.5881 0.44156 0.0
H1189 H 0.54409 0.52846 0.42128 0.0
H1190 H 0.46865 0.56365 0.50294 0.0
H1191 H 0.52955 0.50433 0.48121 0.0
H1192 H 0.51691 0.47764 0.60816 0.0
H1193 H 0.53024 0.50929 0.55525 0.0
H1194 H 0.44753 0.52033 0.52096 0.0
H1195 H 0.43407 0.48932 0.57454 0.0
C1196 C 0.49329 0.5698 0.45 0.0
C1197 C 0.51486 0.56035 0.42679 0.0
C1198 C 0.48507 0.55588 0.48507 0.0
C1199 C 0.49835 0.53239 0.49725 0.0
C1200 C 0.51946 0.52278 0.47339 0.0
C1201 C 0.52762 0.53656 0.43872 0.0
C1202 C 0.50156 0.48703 0.58967 0.0
C1203 C 0.47451 0.4806 0.59506 0.0
C1204 C 0.50917 0.50513 0.55936 0.0
C1205 C 0.48991 0.51693 0.53361 0.0
C1206 C 0.46278 0.51165 0.54047 0.0
C1207 C 0.45514 0.49369 0.57098 0.0
H1208 H 0.1803 0.73758 0.64877 0.0
H1209 H 0.24022 0.7982 0.62653 0.0
H1210 H 0.2072 0.71998 0.70496 0.0
H1211 H 0.26745 0.78014 0.68184 0.0
H1212 H 0.2902 0.76289 0.81591 0.0
H1213 H 0.26594 0.77884 0.75562 0.0
H1214 H 0.2478 0.69726 0.7217 0.0
H1215 H 0.27115 0.68144 0.78229 0.0
C1216 C 0.19945 0.74679 0.65534 0.0
C1217 C 0.20804 0.76938 0.63348 0.0
C1218 C 0.2149 0.7367 0.6875 0.0
C1219 C 0.23935 0.74886 0.69812 0.0
C1220 C 0.24844 0.77071 0.67502 0.0
C1221 C 0.23292 0.78091 0.64313 0.0
C1222 C 0.28106 0.74842 0.79549 0.0
C1223 C 0.28237 0.72097 0.80407 0.0
C1224 C 0.26732 0.75751 0.76083 0.0
C1225 C 0.25487 0.73928 0.73396 0.0
C1226 C 0.25673 0.71183 0.74217 0.0
C1227 C 0.27021 0.70278 0.77688 0.0
H1228 H 0.05586 0.47885 0.09806 0.0
H1229 H 0.97959 0.51889 0.08952 0.0
H1230 H 0.0394 0.44364 0.05297 0.0
H1231 H 0.9635 0.48427 0.04344 0.0
H1232 H 0.93199 0.41135 0.98618 0.0
H1233 H 0.95046 0.43867 0.04106 0.0
H1234 H 0.0277 0.43691 0.98218 0.0
H1235 H 0.00923 0.40836 0.92809 0.0
C1236 C 0.03559 0.48017 0.08648 0.0
C1237 C 0.019 0.50169 0.0973 0.0
C1238 C 0.02623 0.46002 0.06054 0.0
C1239 C 0.00014 0.46105 0.04471 0.0
C1240 C 0.98353 0.48251 0.05578 0.0
C1241 C -0.0072 0.50252 0.08198 0.0
C1242 C 0.95306 0.41637 0.98554 0.0
C1243 C 0.96921 0.40809 0.95291 0.0
C1244 C 0.96359 0.43219 0.01672 0.0
C1245 C -0.00963 0.44055 0.01545 0.0
C1246 C 0.00699 0.43077 0.98412 0.0
C1247 C -0.00351 0.41445 0.95316 0.0
H1248 H 0.69565 0.79645 0.76002 0.0
H1249 H 0.69196 0.72252 0.82851 0.0
H1250 H 0.72791 0.77663 0.71354 0.0
H1251 H 0.72493 0.703 0.78291 0.0
H1252 H 0.76228 0.66745 0.66969 0.0
H1253 H 0.72966 0.68758 0.71453 0.0
H1254 H 0.77363 0.76204 0.71148 0.0
H1255 H 0.80607 0.742 0.66497 0.0
C1256 C 0.70175 0.77595 0.76516 0.0
C1257 C 0.69122 0.761 0.79787 0.0
C1258 C 0.72042 0.76469 0.73874 0.0
C1259 C 0.72911 0.73831 0.74465 0.0
C1260 C 0.71838 0.72328 0.77716 0.0
C1261 C 0.6995 0.73446 0.80335 0.0
C1262 C 0.76515 0.68811 0.67863 0.0
C1263 C 0.78687 0.70313 0.66389 0.0
C1264 C 0.74645 0.69961 0.70456 0.0
C1265 C 0.7491 0.72635 0.7168 0.0
C1266 C 0.77085 0.74145 0.70218 0.0
C1267 C 0.78952 0.72996 0.67577 0.0
H1268 H 0.68561 0.22198 0.17227 0.0
H1269 H 0.69571 0.30073 0.22465 0.0
H1270 H 0.71752 0.20417 0.22188 0.0
H1271 H 0.72698 0.28284 0.27471 0.0
H1272 H 0.80484 0.24723 0.32552 0.0
H1273 H 0.77194 0.26537 0.27749 0.0
H1274 H 0.72288 0.19498 0.29374 0.0
H1275 H 0.7558 0.17665 0.34051 0.0
C1276 C 0.69432 0.23539 0.19471 0.0
C1277 C 0.68821 0.26276 0.19437 0.0
C1278 C 0.71258 0.22521 0.22319 0.0
C1279 C 0.72494 0.24216 0.25206 0.0
C1280 C 0.71825 0.26937 0.25236 0.0
C1281 C 0.70014 0.27956 0.22382 0.0
C1282 C 0.787 0.23572 0.31886 0.0
C1283 C 0.78306 0.21045 0.33661 0.0
C1284 C 0.76809 0.24612 0.2915 0.0
C1285 C 0.74485 0.23152 0.28163 0.0
C1286 C 0.74078 0.2065 0.30002 0.0
C1287 C 0.75966 0.19607 0.32705 0.0
H1288 H 0.97171 7e-05 0.88069 0.0
H1289 H 0.05008 -0.00113 0.93705 0.0
H1290 H 0.95544 0.96955 0.93322 0.0
H1291 H 0.03355 0.96874 0.98994 0.0
H1292 H -0.00485 0.89839 0.06284 0.0
H1293 H 0.01443 0.923 0.00477 0.0
H1294 H 0.94762 0.97743 0.00667 0.0
H1295 H 0.92848 0.95329 0.06346 0.0
C1296 C 0.98549 -0.00678 0.90409 0.0
C1297 C 0.01205 0.00225 0.90502 0.0
C1298 C 0.97618 0.97577 0.93419 0.0
C1299 C -0.0068 0.96705 0.96587 0.0
C1300 C 0.02006 0.97503 0.96575 0.0
C1301 C 0.02941 -0.00752 0.93562 0.0
C1302 C 0.98471 0.91566 0.05082 0.0
C1303 C 0.9602 0.92371 0.06758 0.0
C1304 C -0.0043 0.92968 0.01766 0.0
C1305 C 0.98222 0.95179 0.00081 0.0
C1306 C 0.95809 0.96005 0.01824 0.0
C1307 C 0.94725 0.94624 0.05112 0.0
H1308 H 0.54498 0.03029 0.55417 0.0
H1309 H 0.48313 0.08931 0.53559 0.0
H1310 H 0.52932 0.00577 0.49513 0.0
H1311 H 0.46776 0.06482 0.47485 0.0
H1312 H 0.42966 -0.00652 0.40435 0.0
H1313 H 0.44568 0.02361 0.45742 0.0
H1314 H 0.52714 0.00674 0.42255 0.0
H1315 H 0.51108 0.97571 0.37038 0.0
C1316 C 0.52815 0.03826 0.53717 0.0
C1317 C 0.51529 0.06183 0.54968 0.0
C1318 C 0.51931 0.02424 0.50293 0.0
C1319 C 0.49747 0.03344 0.47988 0.0
C1320 C 0.48457 0.0571 0.49214 0.0
C1321 C 0.49336 0.07115 0.52684 0.0
C1322 C 0.45101 -0.00367 0.40775 0.0
C1323 C 0.46913 0.98189 0.38351 0.0
C1324 C 0.46018 0.01381 0.43803 0.0
C1325 C 0.48769 0.01743 0.44454 0.0
C1326 C 0.50579 0.00395 0.41894 0.0
C1327 C 0.49662 0.98623 0.38894 0.0
loop_
_geom_bond_atom_site_label_1
_geom_bond_atom_site_label_2
_geom_bond_distance
_geom_bond_site_symmetry_2
_ccdc_geom_bond_type
O0 Zn1 1.953 . S
O0 C16 1.225 . S
Zn1 O0 1.953 . S
Zn1 O2 1.949 1_556 S
Zn1 O8 1.919 . S
Zn1 O13 1.924 . S
O2 Zn1 1.949 1_554 S
O2 Zn3 1.923 . S
O2 Zn4 1.950 . S
O2 Zn5 1.945 . S
Zn3 O2 1.923 . S
Zn3 O6 1.933 . S
Zn3 O9 1.941 . S
Zn3 O10 1.965 . S
Zn4 O2 1.950 . S
Zn4 O11 1.938 . S
Zn4 O12 1.906 . S
Zn4 O22 1.953 . S
Zn5 O2 1.945 . S
Zn5 O7 1.932 . S
Zn5 O14 1.977 . S
Zn5 O15 1.910 . S
O6 Zn3 1.933 . S
O6 C17 1.226 . S
O7 Zn5 1.932 . S
O7 C17 1.307 . S
O8 Zn1 1.919 . S
O8 C19 1.253 . S
O9 Zn3 1.941 . S
O9 C19 1.283 1_554 S
O10 Zn3 1.965 . S
O10 C18 1.303 . S
O11 Zn4 1.938 . S
O11 C18 1.247 . S
O12 Zn4 1.906 . S
O12 C20 1.304 . S
O13 Zn1 1.924 . S
O13 C21 1.311 . S
O14 Zn5 1.977 . S
O14 C20 1.272 . S
O15 Zn5 1.910 . S
O15 C21 1.231 1_554 S
C16 O0 1.225 . S
C16 O22 1.298 1_556 S
C17 O6 1.226 . S
C17 O7 1.307 . S
C18 O10 1.303 . S
C18 O11 1.247 . S
C19 O8 1.253 . S
C19 O9 1.283 1_556 S
C20 O12 1.304 . S
C20 O14 1.272 . S
C21 O13 1.311 . S
C21 O15 1.231 1_556 S
O22 Zn4 1.953 . S
O22 C16 1.298 1_554 S
O23 Zn24 1.953 . S
O23 C39 1.225 . S
Zn24 O23 1.953 . S
Zn24 O25 1.949 . S
Zn24 O31 1.919 . S
Zn24 O36 1.924 . S
O25 Zn24 1.949 . S
O25 Zn26 1.923 . S
O25 Zn27 1.950 . S
O25 Zn28 1.945 . S
Zn26 O25 1.923 . S
Zn26 O29 1.933 . S
Zn26 O32 1.941 . S
Zn26 O33 1.965 . S
Zn27 O25 1.950 . S
Zn27 O34 1.938 . S
Zn27 O35 1.906 . S
Zn27 O45 1.953 . S
Zn28 O25 1.945 . S
Zn28 O30 1.932 . S
Zn28 O37 1.977 . S
Zn28 O38 1.910 . S
O29 Zn26 1.933 . S
O29 C40 1.226 . S
O30 Zn28 1.932 . S
O30 C40 1.307 . S
O31 Zn24 1.919 . S
O31 C42 1.253 . S
O32 Zn26 1.941 . S
O32 C42 1.283 . S
O33 Zn26 1.965 . S
O33 C41 1.303 . S
O34 Zn27 1.938 . S
O34 C41 1.247 . S
O35 Zn27 1.906 . S
O35 C43 1.304 . S
O36 Zn24 1.924 . S
O36 C44 1.311 . S
O37 Zn28 1.977 . S
O37 C43 1.272 . S
O38 Zn28 1.910 . S
O38 C44 1.231 . S
C39 O23 1.225 . S
C39 O45 1.298 . S
C40 O29 1.226 . S
C40 O30 1.307 . S
C41 O33 1.303 . S
C41 O34 1.247 . S
C42 O31 1.253 . S
C42 O32 1.283 . S
C43 O35 1.304 . S
C43 O37 1.272 . S
C44 O36 1.311 . S
C44 O38 1.231 . S
O45 Zn27 1.953 . S
O45 C39 1.298 . S
O46 Zn47 1.953 . S
O46 C62 1.225 . S
Zn47 O46 1.953 . S
Zn47 O48 1.949 . S
Zn47 O54 1.919 . S
Zn47 O59 1.924 . S
O48 Zn47 1.949 . S
O48 Zn49 1.923 . S
O48 Zn50 1.950 . S
O48 Zn51 1.945 . S
Zn49 O48 1.923 . S
Zn49 O52 1.933 . S
Zn49 O55 1.941 . S
Zn49 O56 1.965 . S
Zn50 O48 1.950 . S
Zn50 O57 1.938 . S
Zn50 O58 1.906 . S
Zn50 O68 1.953 . S
Zn51 O48 1.945 . S
Zn51 O53 1.932 . S
Zn51 O60 1.977 . S
Zn51 O61 1.910 . S
O52 Zn49 1.933 . S
O52 C63 1.226 . S
O53 Zn51 1.932 . S
O53 C63 1.307 . S
O54 Zn47 1.919 . S
O54 C65 1.253 . S
O55 Zn49 1.941 . S
O55 C65 1.283 . S
O56 Zn49 1.965 . S
O56 C64 1.303 . S
O57 Zn50 1.938 . S
O57 C64 1.247 . S
O58 Zn50 1.906 . S
O58 C66 1.304 . S
O59 Zn47 1.924 . S
O59 C67 1.311 . S
O60 Zn51 1.977 . S
O60 C66 1.272 . S
O61 Zn51 1.910 . S
O61 C67 1.231 . S
C62 O46 1.225 . S
C62 O68 1.298 . S
C63 O52 1.226 . S
C63 O53 1.307 . S
C64 O56 1.303 . S
C64 O57 1.247 . S
C65 O54 1.253 . S
C65 O55 1.283 . S
C66 O58 1.304 . S
C66 O60 1.272 . S
C67 O59 1.311 . S
C67 O61 1.231 . S
O68 Zn50 1.953 . S
O68 C62 1.298 . S
O69 Zn70 1.953 . S
O69 C85 1.225 . S
Zn70 O69 1.953 . S
Zn70 O71 1.949 . S
Zn70 O77 1.919 . S
Zn70 O82 1.924 . S
O71 Zn70 1.949 . S
O71 Zn72 1.923 . S
O71 Zn73 1.950 . S
O71 Zn74 1.945 . S
Zn72 O71 1.923 . S
Zn72 O75 1.933 . S
Zn72 O78 1.941 . S
Zn72 O79 1.965 . S
Zn73 O71 1.950 . S
Zn73 O80 1.938 . S
Zn73 O81 1.906 . S
Zn73 O91 1.953 . S
Zn74 O71 1.945 . S
Zn74 O76 1.932 . S
Zn74 O83 1.977 . S
Zn74 O84 1.910 . S
O75 Zn72 1.933 . S
O75 C86 1.226 . S
O76 Zn74 1.932 . S
O76 C86 1.307 . S
O77 Zn70 1.919 . S
O77 C88 1.253 . S
O78 Zn72 1.941 . S
O78 C88 1.283 . S
O79 Zn72 1.965 . S
O79 C87 1.303 . S
O80 Zn73 1.938 . S
O80 C87 1.247 . S
O81 Zn73 1.906 . S
O81 C89 1.304 . S
O82 Zn70 1.924 . S
O82 C90 1.311 . S
O83 Zn74 1.977 . S
O83 C89 1.272 . S
O84 Zn74 1.910 . S
O84 C90 1.231 . S
C85 O69 1.225 . S
C85 O91 1.298 . S
C86 O75 1.226 . S
C86 O76 1.307 . S
C87 O79 1.303 . S
C87 O80 1.247 . S
C88 O77 1.253 . S
C88 O78 1.283 . S
C89 O81 1.304 . S
C89 O83 1.272 . S
C90 O82 1.311 . S
C90 O84 1.231 . S
O91 Zn73 1.953 . S
O91 C85 1.298 . S
O92 Zn93 1.953 . S
O92 C108 1.225 . S
Zn93 O92 1.953 . S
Zn93 O94 1.949 1_554 S
Zn93 O100 1.919 . S
Zn93 O105 1.924 . S
O94 Zn93 1.949 1_556 S
O94 Zn95 1.923 . S
O94 Zn96 1.950 . S
O94 Zn97 1.945 . S
Zn95 O94 1.923 . S
Zn95 O98 1.933 . S
Zn95 O101 1.941 . S
Zn95 O102 1.965 . S
Zn96 O94 1.950 . S
Zn96 O103 1.938 . S
Zn96 O104 1.906 . S
Zn96 O114 1.953 . S
Zn97 O94 1.945 . S
Zn97 O99 1.932 . S
Zn97 O106 1.977 . S
Zn97 O107 1.910 . S
O98 Zn95 1.933 . S
O98 C109 1.226 . S
O99 Zn97 1.932 . S
O99 C109 1.307 . S
O100 Zn93 1.919 . S
O100 C111 1.253 . S
O101 Zn95 1.941 . S
O101 C111 1.283 1_556 S
O102 Zn95 1.965 . S
O102 C110 1.303 . S
O103 Zn96 1.938 . S
O103 C110 1.247 . S
O104 Zn96 1.906 . S
O104 C112 1.304 . S
O105 Zn93 1.924 . S
O105 C113 1.311 . S
O106 Zn97 1.977 . S
O106 C112 1.272 . S
O107 Zn97 1.910 . S
O107 C113 1.231 1_556 S
C108 O92 1.225 . S
C108 O114 1.298 1_554 S
C109 O98 1.226 . S
C109 O99 1.307 . S
C110 O102 1.303 . S
C110 O103 1.247 . S
C111 O100 1.253 . S
C111 O101 1.283 1_554 S
C112 O104 1.304 . S
C112 O106 1.272 . S
C113 O105 1.311 . S
C113 O107 1.231 1_554 S
O114 Zn96 1.953 . S
O114 C108 1.298 1_556 S
O115 Zn116 1.953 . S
O115 C131 1.225 . S
Zn116 O115 1.953 . S
Zn116 O117 1.949 . S
Zn116 O123 1.919 . S
Zn116 O128 1.924 . S
O117 Zn116 1.949 . S
O117 Zn118 1.923 . S
O117 Zn119 1.950 . S
O117 Zn120 1.945 . S
Zn118 O117 1.923 . S
Zn118 O121 1.933 . S
Zn118 O124 1.941 . S
Zn118 O125 1.965 . S
Zn119 O117 1.950 . S
Zn119 O126 1.938 . S
Zn119 O127 1.906 . S
Zn119 O137 1.953 . S
Zn120 O117 1.945 . S
Zn120 O122 1.932 . S
Zn120 O129 1.977 . S
Zn120 O130 1.910 . S
O121 Zn118 1.933 . S
O121 C132 1.226 . S
O122 Zn120 1.932 . S
O122 C132 1.307 . S
O123 Zn116 1.919 . S
O123 C134 1.253 . S
O124 Zn118 1.941 . S
O124 C134 1.283 . S
O125 Zn118 1.965 . S
O125 C133 1.303 . S
O126 Zn119 1.938 . S
O126 C133 1.247 . S
O127 Zn119 1.906 . S
O127 C135 1.304 . S
O128 Zn116 1.924 . S
O128 C136 1.311 . S
O129 Zn120 1.977 . S
O129 C135 1.272 . S
O130 Zn120 1.910 . S
O130 C136 1.231 . S
C131 O115 1.225 . S
C131 O137 1.298 . S
C132 O121 1.226 . S
C132 O122 1.307 . S
C133 O125 1.303 . S
C133 O126 1.247 . S
C134 O123 1.253 . S
C134 O124 1.283 . S
C135 O127 1.304 . S
C135 O129 1.272 . S
C136 O128 1.311 . S
C136 O130 1.231 . S
O137 Zn119 1.953 . S
O137 C131 1.298 . S
O138 Zn139 1.953 . S
O138 C154 1.225 . S
Zn139 O138 1.953 . S
Zn139 O140 1.949 . S
Zn139 O146 1.919 . S
Zn139 O151 1.924 . S
O140 Zn139 1.949 . S
O140 Zn141 1.923 . S
O140 Zn142 1.950 . S
O140 Zn143 1.945 . S
Zn141 O140 1.923 . S
Zn141 O144 1.933 . S
Zn141 O147 1.941 . S
Zn141 O148 1.965 . S
Zn142 O140 1.950 . S
Zn142 O149 1.938 . S
Zn142 O150 1.906 . S
Zn142 O160 1.953 . S
Zn143 O140 1.945 . S
Zn143 O145 1.932 . S
Zn143 O152 1.977 . S
Zn143 O153 1.910 . S
O144 Zn141 1.933 . S
O144 C155 1.226 . S
O145 Zn143 1.932 . S
O145 C155 1.307 . S
O146 Zn139 1.919 . S
O146 C157 1.253 . S
O147 Zn141 1.941 . S
O147 C157 1.283 . S
O148 Zn141 1.965 . S
O148 C156 1.303 . S
O149 Zn142 1.938 . S
O149 C156 1.247 . S
O150 Zn142 1.906 . S
O150 C158 1.304 . S
O151 Zn139 1.924 . S
O151 C159 1.311 . S
O152 Zn143 1.977 . S
O152 C158 1.272 . S
O153 Zn143 1.910 . S
O153 C159 1.231 . S
C154 O138 1.225 . S
C154 O160 1.298 . S
C155 O144 1.226 . S
C155 O145 1.307 . S
C156 O148 1.303 . S
C156 O149 1.247 . S
C157 O146 1.253 . S
C157 O147 1.283 . S
C158 O150 1.304 . S
C158 O152 1.272 . S
C159 O151 1.311 . S
C159 O153 1.231 . S
O160 Zn142 1.953 . S
O160 C154 1.298 . S
O161 Zn162 1.953 . S
O161 C177 1.225 . S
Zn162 O161 1.953 . S
Zn162 O163 1.949 . S
Zn162 O169 1.919 . S
Zn162 O174 1.924 . S
O163 Zn162 1.949 . S
O163 Zn164 1.923 . S
O163 Zn165 1.950 . S
O163 Zn166 1.945 . S
Zn164 O163 1.923 . S
Zn164 O167 1.933 . S
Zn164 O170 1.941 . S
Zn164 O171 1.965 . S
Zn165 O163 1.950 . S
Zn165 O172 1.938 . S
Zn165 O173 1.906 . S
Zn165 O183 1.953 . S
Zn166 O163 1.945 . S
Zn166 O168 1.932 . S
Zn166 O175 1.977 . S
Zn166 O176 1.910 . S
O167 Zn164 1.933 . S
O167 C178 1.226 . S
O168 Zn166 1.932 . S
O168 C178 1.307 . S
O169 Zn162 1.919 . S
O169 C180 1.253 . S
O170 Zn164 1.941 . S
O170 C180 1.283 . S
O171 Zn164 1.965 . S
O171 C179 1.303 . S
O172 Zn165 1.938 . S
O172 C179 1.247 . S
O173 Zn165 1.906 . S
O173 C181 1.304 . S
O174 Zn162 1.924 . S
O174 C182 1.311 . S
O175 Zn166 1.977 . S
O175 C181 1.272 . S
O176 Zn166 1.910 . S
O176 C182 1.231 . S
C177 O161 1.225 . S
C177 O183 1.298 . S
C178 O167 1.226 . S
C178 O168 1.307 . S
C179 O171 1.303 . S
C179 O172 1.247 . S
C180 O169 1.253 . S
C180 O170 1.283 . S
C181 O173 1.304 . S
C181 O175 1.272 . S
C182 O174 1.311 . S
C182 O176 1.231 . S
O183 Zn165 1.953 . S
O183 C177 1.298 . S
O184 Zn185 1.953 . S
O184 C200 1.225 . S
Zn185 O184 1.953 . S
Zn185 O186 1.949 . S
Zn185 O192 1.919 . S
Zn185 O197 1.924 . S
O186 Zn185 1.949 . S
O186 Zn187 1.923 . S
O186 Zn188 1.950 . S
O186 Zn189 1.945 . S
Zn187 O186 1.923 . S
Zn187 O190 1.933 . S
Zn187 O193 1.941 . S
Zn187 O194 1.965 . S
Zn188 O186 1.950 . S
Zn188 O195 1.938 . S
Zn188 O196 1.906 . S
Zn188 O206 1.953 . S
Zn189 O186 1.945 . S
Zn189 O191 1.932 . S
Zn189 O198 1.977 . S
Zn189 O199 1.910 . S
O190 Zn187 1.933 . S
O190 C201 1.226 . S
O191 Zn189 1.932 . S
O191 C201 1.307 . S
O192 Zn185 1.919 . S
O192 C203 1.253 . S
O193 Zn187 1.941 . S
O193 C203 1.283 . S
O194 Zn187 1.965 . S
O194 C202 1.303 . S
O195 Zn188 1.938 . S
O195 C202 1.247 . S
O196 Zn188 1.906 . S
O196 C204 1.304 . S
O197 Zn185 1.924 . S
O197 C205 1.311 . S
O198 Zn189 1.977 . S
O198 C204 1.272 . S
O199 Zn189 1.910 . S
O199 C205 1.231 . S
C200 O184 1.225 . S
C200 O206 1.298 . S
C201 O190 1.226 . S
C201 O191 1.307 . S
C202 O194 1.303 . S
C202 O195 1.247 . S
C203 O192 1.253 . S
C203 O193 1.283 . S
C204 O196 1.304 . S
C204 O198 1.272 . S
C205 O197 1.311 . S
C205 O199 1.231 . S
O206 Zn188 1.953 . S
O206 C200 1.298 . S
O207 Zn208 1.953 . S
O207 C223 1.225 . S
Zn208 O207 1.953 . S
Zn208 O209 1.949 . S
Zn208 O215 1.919 . S
Zn208 O220 1.924 . S
O209 Zn208 1.949 . S
O209 Zn210 1.923 . S
O209 Zn211 1.950 . S
O209 Zn212 1.945 . S
Zn210 O209 1.923 . S
Zn210 O213 1.933 . S
Zn210 O216 1.941 . S
Zn210 O217 1.965 . S
Zn211 O209 1.950 . S
Zn211 O218 1.938 . S
Zn211 O219 1.906 . S
Zn211 O229 1.953 . S
Zn212 O209 1.945 . S
Zn212 O214 1.932 . S
Zn212 O221 1.977 . S
Zn212 O222 1.910 . S
O213 Zn210 1.933 . S
O213 C224 1.226 . S
O214 Zn212 1.932 . S
O214 C224 1.307 . S
O215 Zn208 1.919 . S
O215 C226 1.253 . S
O216 Zn210 1.941 . S
O216 C226 1.283 . S
O217 Zn210 1.965 . S
O217 C225 1.303 . S
O218 Zn211 1.938 . S
O218 C225 1.247 . S
O219 Zn211 1.906 . S
O219 C227 1.304 . S
O220 Zn208 1.924 . S
O220 C228 1.311 . S
O221 Zn212 1.977 . S
O221 C227 1.272 . S
O222 Zn212 1.910 . S
O222 C228 1.231 . S
C223 O207 1.225 . S
C223 O229 1.298 . S
C224 O213 1.226 . S
C224 O214 1.307 . S
C225 O217 1.303 . S
C225 O218 1.247 . S
C226 O215 1.253 . S
C226 O216 1.283 . S
C227 O219 1.304 . S
C227 O221 1.272 . S
C228 O220 1.311 . S
C228 O222 1.231 . S
O229 Zn211 1.953 . S
O229 C223 1.298 . S
O230 Zn231 1.953 . S
O230 C246 1.225 . S
Zn231 O230 1.953 . S
Zn231 O232 1.949 1_556 S
Zn231 O238 1.919 . S
Zn231 O243 1.924 . S
O232 Zn231 1.949 1_554 S
O232 Zn233 1.923 . S
O232 Zn234 1.950 . S
O232 Zn235 1.945 . S
Zn233 O232 1.923 . S
Zn233 O236 1.933 . S
Zn233 O239 1.941 . S
Zn233 O240 1.965 . S
Zn234 O232 1.950 . S
Zn234 O241 1.938 . S
Zn234 O242 1.906 . S
Zn234 O252 1.953 . S
Zn235 O232 1.945 . S
Zn235 O237 1.932 . S
Zn235 O244 1.977 . S
Zn235 O245 1.910 . S
O236 Zn233 1.933 . S
O236 C247 1.226 . S
O237 Zn235 1.932 . S
O237 C247 1.307 . S
O238 Zn231 1.919 . S
O238 C249 1.253 . S
O239 Zn233 1.941 . S
O239 C249 1.283 1_554 S
O240 Zn233 1.965 . S
O240 C248 1.303 . S
O241 Zn234 1.938 . S
O241 C248 1.247 . S
O242 Zn234 1.906 . S
O242 C250 1.304 . S
O243 Zn231 1.924 . S
O243 C251 1.311 . S
O244 Zn235 1.977 . S
O244 C250 1.272 . S
O245 Zn235 1.910 . S
O245 C251 1.231 1_554 S
C246 O230 1.225 . S
C246 O252 1.298 1_556 S
C247 O236 1.226 . S
C247 O237 1.307 . S
C248 O240 1.303 . S
C248 O241 1.247 . S
C249 O238 1.253 . S
C249 O239 1.283 1_556 S
C250 O242 1.304 . S
C250 O244 1.272 . S
C251 O243 1.311 . S
C251 O245 1.231 1_556 S
O252 Zn234 1.953 . S
O252 C246 1.298 1_554 S
O253 Zn254 1.953 . S
O253 C269 1.225 . S
Zn254 O253 1.953 . S
Zn254 O255 1.949 . S
Zn254 O261 1.919 . S
Zn254 O266 1.924 . S
O255 Zn254 1.949 . S
O255 Zn256 1.923 . S
O255 Zn257 1.950 . S
O255 Zn258 1.945 . S
Zn256 O255 1.923 . S
Zn256 O259 1.933 . S
Zn256 O262 1.941 . S
Zn256 O263 1.965 . S
Zn257 O255 1.950 . S
Zn257 O264 1.938 . S
Zn257 O265 1.906 . S
Zn257 O275 1.953 . S
Zn258 O255 1.945 . S
Zn258 O260 1.932 . S
Zn258 O267 1.977 . S
Zn258 O268 1.910 . S
O259 Zn256 1.933 . S
O259 C270 1.226 . S
O260 Zn258 1.932 . S
O260 C270 1.307 . S
O261 Zn254 1.919 . S
O261 C272 1.253 . S
O262 Zn256 1.941 . S
O262 C272 1.283 . S
O263 Zn256 1.965 . S
O263 C271 1.303 . S
O264 Zn257 1.938 . S
O264 C271 1.247 . S
O265 Zn257 1.906 . S
O265 C273 1.304 . S
O266 Zn254 1.924 . S
O266 C274 1.311 . S
O267 Zn258 1.977 . S
O267 C273 1.272 . S
O268 Zn258 1.910 . S
O268 C274 1.231 . S
C269 O253 1.225 . S
C269 O275 1.298 . S
C270 O259 1.226 . S
C270 O260 1.307 . S
C271 O263 1.303 . S
C271 O264 1.247 . S
C272 O261 1.253 . S
C272 O262 1.283 . S
C273 O265 1.304 . S
C273 O267 1.272 . S
C274 O266 1.311 . S
C274 O268 1.231 . S
O275 Zn257 1.953 . S
O275 C269 1.298 . S
O276 Zn277 1.953 . S
O276 C292 1.225 . S
Zn277 O276 1.953 . S
Zn277 O278 1.949 . S
Zn277 O284 1.919 . S
Zn277 O289 1.924 . S
O278 Zn277 1.949 . S
O278 Zn279 1.923 . S
O278 Zn280 1.950 . S
O278 Zn281 1.945 . S
Zn279 O278 1.923 . S
Zn279 O282 1.933 . S
Zn279 O285 1.941 . S
Zn279 O286 1.965 . S
Zn280 O278 1.950 . S
Zn280 O287 1.938 . S
Zn280 O288 1.906 . S
Zn280 O298 1.953 . S
Zn281 O278 1.945 . S
Zn281 O283 1.932 . S
Zn281 O290 1.977 . S
Zn281 O291 1.910 . S
O282 Zn279 1.933 . S
O282 C293 1.226 . S
O283 Zn281 1.932 . S
O283 C293 1.307 . S
O284 Zn277 1.919 . S
O284 C295 1.253 . S
O285 Zn279 1.941 . S
O285 C295 1.283 . S
O286 Zn279 1.965 . S
O286 C294 1.303 . S
O287 Zn280 1.938 . S
O287 C294 1.247 . S
O288 Zn280 1.906 . S
O288 C296 1.304 . S
O289 Zn277 1.924 . S
O289 C297 1.311 . S
O290 Zn281 1.977 . S
O290 C296 1.272 . S
O291 Zn281 1.910 . S
O291 C297 1.231 . S
C292 O276 1.225 . S
C292 O298 1.298 . S
C293 O282 1.226 . S
C293 O283 1.307 . S
C294 O286 1.303 . S
C294 O287 1.247 . S
C295 O284 1.253 . S
C295 O285 1.283 . S
C296 O288 1.304 . S
C296 O290 1.272 . S
C297 O289 1.311 . S
C297 O291 1.231 . S
O298 Zn280 1.953 . S
O298 C292 1.298 . S
O299 Zn300 1.953 . S
O299 C315 1.225 . S
Zn300 O299 1.953 . S
Zn300 O301 1.949 . S
Zn300 O307 1.919 . S
Zn300 O312 1.924 . S
O301 Zn300 1.949 . S
O301 Zn302 1.923 . S
O301 Zn303 1.950 . S
O301 Zn304 1.945 . S
Zn302 O301 1.923 . S
Zn302 O305 1.933 . S
Zn302 O308 1.941 . S
Zn302 O309 1.965 . S
Zn303 O301 1.950 . S
Zn303 O310 1.938 . S
Zn303 O311 1.906 . S
Zn303 O321 1.953 . S
Zn304 O301 1.945 . S
Zn304 O306 1.932 . S
Zn304 O313 1.977 . S
Zn304 O314 1.910 . S
O305 Zn302 1.933 . S
O305 C316 1.226 . S
O306 Zn304 1.932 . S
O306 C316 1.307 . S
O307 Zn300 1.919 . S
O307 C318 1.253 . S
O308 Zn302 1.941 . S
O308 C318 1.283 . S
O309 Zn302 1.965 . S
O309 C317 1.303 . S
O310 Zn303 1.938 . S
O310 C317 1.247 . S
O311 Zn303 1.906 . S
O311 C319 1.304 . S
O312 Zn300 1.924 . S
O312 C320 1.311 . S
O313 Zn304 1.977 . S
O313 C319 1.272 . S
O314 Zn304 1.910 . S
O314 C320 1.231 . S
C315 O299 1.225 . S
C315 O321 1.298 . S
C316 O305 1.226 . S
C316 O306 1.307 . S
C317 O309 1.303 . S
C317 O310 1.247 . S
C318 O307 1.253 . S
C318 O308 1.283 . S
C319 O311 1.304 . S
C319 O313 1.272 . S
C320 O312 1.311 . S
C320 O314 1.231 . S
O321 Zn303 1.953 . S
O321 C315 1.298 . S
O322 Zn323 1.953 . S
O322 C338 1.225 . S
Zn323 O322 1.953 . S
Zn323 O324 1.949 1_554 S
Zn323 O330 1.919 . S
Zn323 O335 1.924 . S
O324 Zn323 1.949 1_556 S
O324 Zn325 1.923 . S
O324 Zn326 1.950 . S
O324 Zn327 1.945 . S
Zn325 O324 1.923 . S
Zn325 O328 1.933 . S
Zn325 O331 1.941 . S
Zn325 O332 1.965 . S
Zn326 O324 1.950 . S
Zn326 O333 1.938 . S
Zn326 O334 1.906 . S
Zn326 O344 1.953 . S
Zn327 O324 1.945 . S
Zn327 O329 1.932 . S
Zn327 O336 1.977 . S
Zn327 O337 1.910 . S
O328 Zn325 1.933 . S
O328 C339 1.226 . S
O329 Zn327 1.932 . S
O329 C339 1.307 . S
O330 Zn323 1.919 . S
O330 C341 1.253 . S
O331 Zn325 1.941 . S
O331 C341 1.283 1_556 S
O332 Zn325 1.965 . S
O332 C340 1.303 . S
O333 Zn326 1.938 . S
O333 C340 1.247 . S
O334 Zn326 1.906 . S
O334 C342 1.304 . S
O335 Zn323 1.924 . S
O335 C343 1.311 . S
O336 Zn327 1.977 . S
O336 C342 1.272 . S
O337 Zn327 1.910 . S
O337 C343 1.231 1_556 S
C338 O322 1.225 . S
C338 O344 1.298 1_554 S
C339 O328 1.226 . S
C339 O329 1.307 . S
C340 O332 1.303 . S
C340 O333 1.247 . S
C341 O330 1.253 . S
C341 O331 1.283 1_554 S
C342 O334 1.304 . S
C342 O336 1.272 . S
C343 O335 1.311 . S
C343 O337 1.231 1_554 S
O344 Zn326 1.953 . S
O344 C338 1.298 1_556 S
O345 Zn346 1.953 . S
O345 C361 1.225 . S
Zn346 O345 1.953 . S
Zn346 O347 1.949 . S
Zn346 O353 1.919 . S
Zn346 O358 1.924 . S
O347 Zn346 1.949 . S
O347 Zn348 1.923 . S
O347 Zn349 1.950 . S
O347 Zn350 1.945 . S
Zn348 O347 1.923 . S
Zn348 O351 1.933 . S
Zn348 O354 1.941 . S
Zn348 O355 1.965 . S
Zn349 O347 1.950 . S
Zn349 O356 1.938 . S
Zn349 O357 1.906 . S
Zn349 O367 1.953 . S
Zn350 O347 1.945 . S
Zn350 O352 1.932 . S
Zn350 O359 1.977 . S
Zn350 O360 1.910 . S
O351 Zn348 1.933 . S
O351 C362 1.226 . S
O352 Zn350 1.932 . S
O352 C362 1.307 . S
O353 Zn346 1.919 . S
O353 C364 1.253 . S
O354 Zn348 1.941 . S
O354 C364 1.283 . S
O355 Zn348 1.965 . S
O355 C363 1.303 . S
O356 Zn349 1.938 . S
O356 C363 1.247 . S
O357 Zn349 1.906 . S
O357 C365 1.304 . S
O358 Zn346 1.924 . S
O358 C366 1.311 . S
O359 Zn350 1.977 . S
O359 C365 1.272 . S
O360 Zn350 1.910 . S
O360 C366 1.231 . S
C361 O345 1.225 . S
C361 O367 1.298 . S
C362 O351 1.226 . S
C362 O352 1.307 . S
C363 O355 1.303 . S
C363 O356 1.247 . S
C364 O353 1.253 . S
C364 O354 1.283 . S
C365 O357 1.304 . S
C365 O359 1.272 . S
C366 O358 1.311 . S
C366 O360 1.231 . S
O367 Zn349 1.953 . S
O367 C361 1.298 . S
H368 C376 0.950 . S
H369 C381 0.950 . S
H370 C378 0.950 . S
H371 C380 0.950 . S
H372 C382 0.950 . S
H373 C384 0.950 . S
H374 C386 0.950 . S
H375 C387 0.950 . S
C376 H368 0.950 . S
C376 C377 1.386 . S
C376 C378 1.391 . S
C377 C376 1.386 . S
C377 C381 1.393 . S
C378 H370 0.950 . S
C378 C376 1.391 . S
C378 C379 1.400 . S
C379 C378 1.400 . S
C379 C380 1.398 . S
C379 C385 1.491 . S
C380 H371 0.950 . S
C380 C379 1.398 . S
C380 C381 1.391 . S
C381 H369 0.950 . S
C381 C377 1.393 . S
C381 C380 1.391 . S
C382 H372 0.950 . S
C382 C383 1.386 . S
C382 C384 1.391 . S
C383 C382 1.386 . S
C383 C387 1.393 . S
C384 H373 0.950 . S
C384 C382 1.391 . S
C384 C385 1.400 . S
C385 C379 1.491 . S
C385 C384 1.400 . S
C385 C386 1.398 . S
C386 H374 0.950 . S
C386 C385 1.398 . S
C386 C387 1.391 . S
C387 H375 0.950 . S
C387 C383 1.393 . S
C387 C386 1.391 . S
H388 C396 0.950 . S
H389 C401 0.950 . S
H390 C398 0.950 . S
H391 C400 0.950 . S
H392 C402 0.950 . S
H393 C404 0.950 . S
H394 C406 0.950 . S
H395 C407 0.950 . S
C396 H388 0.950 . S
C396 C397 1.386 . S
C396 C398 1.391 . S
C397 C396 1.386 . S
C397 C401 1.393 . S
C398 H390 0.950 . S
C398 C396 1.391 . S
C398 C399 1.400 . S
C399 C398 1.400 . S
C399 C400 1.398 . S
C399 C405 1.491 . S
C400 H391 0.950 . S
C400 C399 1.398 . S
C400 C401 1.391 . S
C401 H389 0.950 . S
C401 C397 1.393 . S
C401 C400 1.391 . S
C402 H392 0.950 . S
C402 C403 1.386 . S
C402 C404 1.391 . S
C403 C402 1.386 . S
C403 C407 1.393 . S
C404 H393 0.950 . S
C404 C402 1.391 . S
C404 C405 1.400 . S
C405 C399 1.491 . S
C405 C404 1.400 . S
C405 C406 1.398 . S
C406 H394 0.950 . S
C406 C405 1.398 . S
C406 C407 1.391 . S
C407 H395 0.950 . S
C407 C403 1.393 . S
C407 C406 1.391 . S
H408 C416 0.950 . S
H409 C421 0.950 . S
H410 C418 0.950 . S
H411 C420 0.950 . S
H412 C422 0.950 . S
H413 C424 0.950 . S
H414 C426 0.950 . S
H415 C427 0.950 . S
C416 H408 0.950 . S
C416 C417 1.386 . S
C416 C418 1.391 . S
C417 C416 1.386 . S
C417 C421 1.393 . S
C418 H410 0.950 . S
C418 C416 1.391 . S
C418 C419 1.400 . S
C419 C418 1.400 . S
C419 C420 1.398 . S
C419 C425 1.491 1_455 S
C420 H411 0.950 . S
C420 C419 1.398 . S
C420 C421 1.391 . S
C421 H409 0.950 . S
C421 C417 1.393 . S
C421 C420 1.391 . S
C422 H412 0.950 . S
C422 C423 1.386 . S
C422 C424 1.391 . S
C423 C422 1.386 . S
C423 C427 1.393 . S
C424 H413 0.950 . S
C424 C422 1.391 . S
C424 C425 1.400 . S
C425 C419 1.491 1_655 S
C425 C424 1.400 . S
C425 C426 1.398 . S
C426 H414 0.950 . S
C426 C425 1.398 . S
C426 C427 1.391 . S
C427 H415 0.950 . S
C427 C423 1.393 . S
C427 C426 1.391 . S
H428 C436 0.950 . S
H429 C441 0.950 . S
H430 C438 0.950 . S
H431 C440 0.950 . S
H432 C442 0.950 . S
H433 C444 0.950 . S
H434 C446 0.950 . S
H435 C447 0.950 . S
C436 H428 0.950 . S
C436 C437 1.386 1_455 S
C436 C438 1.391 . S
C437 C436 1.386 1_655 S
C437 C441 1.393 . S
C438 H430 0.950 . S
C438 C436 1.391 . S
C438 C439 1.400 1_455 S
C439 C438 1.400 1_655 S
C439 C440 1.398 . S
C439 C445 1.491 1_655 S
C440 H431 0.950 . S
C440 C439 1.398 . S
C440 C441 1.391 . S
C441 H429 0.950 . S
C441 C437 1.393 . S
C441 C440 1.391 . S
C442 H432 0.950 . S
C442 C443 1.386 1_655 S
C442 C444 1.391 . S
C443 C442 1.386 1_455 S
C443 C447 1.393 . S
C444 H433 0.950 . S
C444 C442 1.391 . S
C444 C445 1.400 1_655 S
C445 C439 1.491 1_455 S
C445 C444 1.400 1_455 S
C445 C446 1.398 . S
C446 H434 0.950 . S
C446 C445 1.398 . S
C446 C447 1.391 . S
C447 H435 0.950 . S
C447 C443 1.393 . S
C447 C446 1.391 . S
H448 C456 0.950 . S
H449 C461 0.950 . S
H450 C458 0.950 . S
H451 C460 0.950 . S
H452 C462 0.950 . S
H453 C464 0.950 . S
H454 C466 0.950 . S
H455 C467 0.950 . S
C456 H448 0.950 . S
C456 C457 1.386 . S
C456 C458 1.391 . S
C457 C456 1.386 . S
C457 C461 1.393 . S
C458 H450 0.950 . S
C458 C456 1.391 . S
C458 C459 1.400 . S
C459 C458 1.400 . S
C459 C460 1.398 . S
C459 C465 1.491 . S
C460 H451 0.950 . S
C460 C459 1.398 . S
C460 C461 1.391 . S
C461 H449 0.950 . S
C461 C457 1.393 . S
C461 C460 1.391 . S
C462 H452 0.950 . S
C462 C463 1.386 . S
C462 C464 1.391 . S
C463 C462 1.386 . S
C463 C467 1.393 . S
C464 H453 0.950 . S
C464 C462 1.391 . S
C464 C465 1.400 . S
C465 C459 1.491 . S
C465 C464 1.400 . S
C465 C466 1.398 . S
C466 H454 0.950 . S
C466 C465 1.398 . S
C466 C467 1.391 . S
C467 H455 0.950 . S
C467 C463 1.393 . S
C467 C466 1.391 . S
H468 C476 0.950 . S
H469 C481 0.950 . S
H470 C478 0.950 . S
H471 C480 0.950 . S
H472 C482 0.950 . S
H473 C484 0.950 . S
H474 C486 0.950 . S
H475 C487 0.950 . S
C476 H468 0.950 . S
C476 C477 1.386 . S
C476 C478 1.391 . S
C477 C476 1.386 . S
C477 C481 1.393 . S
C478 H470 0.950 . S
C478 C476 1.391 . S
C478 C479 1.400 . S
C479 C478 1.400 . S
C479 C480 1.398 . S
C479 C485 1.491 . S
C480 H471 0.950 . S
C480 C479 1.398 . S
C480 C481 1.391 . S
C481 H469 0.950 . S
C481 C477 1.393 . S
C481 C480 1.391 . S
C482 H472 0.950 . S
C482 C483 1.386 . S
C482 C484 1.391 . S
C483 C482 1.386 . S
C483 C487 1.393 . S
C484 H473 0.950 . S
C484 C482 1.391 . S
C484 C485 1.400 . S
C485 C479 1.491 . S
C485 C484 1.400 . S
C485 C486 1.398 . S
C486 H474 0.950 . S
C486 C485 1.398 . S
C486 C487 1.391 . S
C487 H475 0.950 . S
C487 C483 1.393 . S
C487 C486 1.391 . S
H488 C496 0.950 . S
H489 C501 0.950 . S
H490 C498 0.950 . S
H491 C500 0.950 . S
H492 C502 0.950 . S
H493 C504 0.950 . S
H494 C506 0.950 . S
H495 C507 0.950 . S
C496 H488 0.950 . S
C496 C497 1.386 . S
C496 C498 1.391 . S
C497 C496 1.386 . S
C497 C501 1.393 . S
C498 H490 0.950 . S
C498 C496 1.391 . S
C498 C499 1.400 . S
C499 C498 1.400 . S
C499 C500 1.398 . S
C499 C505 1.491 1_655 S
C500 H491 0.950 . S
C500 C499 1.398 . S
C500 C501 1.391 . S
C501 H489 0.950 . S
C501 C497 1.393 . S
C501 C500 1.391 . S
C502 H492 0.950 . S
C502 C503 1.386 . S
C502 C504 1.391 . S
C503 C502 1.386 . S
C503 C507 1.393 . S
C504 H493 0.950 . S
C504 C502 1.391 . S
C504 C505 1.400 . S
C505 C499 1.491 1_455 S
C505 C504 1.400 . S
C505 C506 1.398 . S
C506 H494 0.950 . S
C506 C505 1.398 . S
C506 C507 1.391 . S
C507 H495 0.950 . S
C507 C503 1.393 . S
C507 C506 1.391 . S
H508 C516 0.950 . S
H509 C521 0.947 1_655 S
H510 C518 0.950 . S
H511 C520 0.950 . S
H512 C522 0.950 . S
H513 C524 0.950 . S
H514 C526 0.950 . S
H515 C527 0.947 1_455 S
C516 H508 0.950 . S
C516 C517 1.386 . S
C516 C518 1.391 . S
C517 C516 1.386 . S
C517 C521 1.398 . S
C518 H510 0.950 . S
C518 C516 1.391 . S
C518 C519 1.400 . S
C519 C518 1.400 . S
C519 C520 1.398 1_455 S
C519 C525 1.491 1_455 S
C520 H511 0.950 . S
C520 C519 1.398 1_655 S
C520 C521 1.389 1_655 S
C521 H509 0.947 1_455 S
C521 C517 1.398 . S
C521 C520 1.389 1_455 S
C522 H512 0.950 . S
C522 C523 1.386 . S
C522 C524 1.391 . S
C523 C522 1.386 . S
C523 C527 1.398 . S
C524 H513 0.950 . S
C524 C522 1.391 . S
C524 C525 1.400 . S
C525 C519 1.491 1_655 S
C525 C524 1.400 . S
C525 C526 1.398 1_655 S
C526 H514 0.950 . S
C526 C525 1.398 1_455 S
C526 C527 1.389 1_455 S
C527 H515 0.947 1_655 S
C527 C523 1.398 . S
C527 C526 1.389 1_655 S
H528 C536 0.950 . S
H529 C541 0.950 . S
H530 C538 0.950 . S
H531 C540 0.950 . S
H532 C542 0.950 1_554 S
H533 C544 0.950 . S
H534 C546 0.950 . S
H535 C547 0.950 . S
C536 H528 0.950 . S
C536 C537 1.386 . S
C536 C538 1.391 . S
C537 C536 1.386 . S
C537 C541 1.393 . S
C538 H530 0.950 . S
C538 C536 1.391 . S
C538 C539 1.400 . S
C539 C538 1.400 . S
C539 C540 1.398 . S
C539 C545 1.491 . S
C540 H531 0.950 . S
C540 C539 1.398 . S
C540 C541 1.391 . S
C541 H529 0.950 . S
C541 C537 1.393 . S
C541 C540 1.391 . S
C542 H532 0.950 1_556 S
C542 C543 1.386 . S
C542 C544 1.391 . S
C543 C542 1.386 . S
C543 C547 1.393 . S
C544 H533 0.950 . S
C544 C542 1.391 . S
C544 C545 1.400 . S
C545 C539 1.491 . S
C545 C544 1.400 . S
C545 C546 1.398 . S
C546 H534 0.950 . S
C546 C545 1.398 . S
C546 C547 1.391 . S
C547 H535 0.950 . S
C547 C543 1.393 . S
C547 C546 1.391 . S
H548 C556 0.950 . S
H549 C561 0.950 . S
H550 C558 0.950 . S
H551 C560 0.950 . S
H552 C562 0.950 . S
H553 C564 0.950 . S
H554 C566 0.950 . S
H555 C567 0.950 . S
C556 H548 0.950 . S
C556 C557 1.386 . S
C556 C558 1.391 . S
C557 C556 1.386 . S
C557 C561 1.393 . S
C558 H550 0.950 . S
C558 C556 1.391 . S
C558 C559 1.400 . S
C559 C558 1.400 . S
C559 C560 1.398 . S
C559 C565 1.491 . S
C560 H551 0.950 . S
C560 C559 1.398 . S
C560 C561 1.391 . S
C561 H549 0.950 . S
C561 C557 1.393 . S
C561 C560 1.391 . S
C562 H552 0.950 . S
C562 C563 1.386 . S
C562 C564 1.391 . S
C563 C562 1.386 . S
C563 C567 1.393 . S
C564 H553 0.950 . S
C564 C562 1.391 . S
C564 C565 1.400 . S
C565 C559 1.491 . S
C565 C564 1.400 . S
C565 C566 1.398 . S
C566 H554 0.950 . S
C566 C565 1.398 . S
C566 C567 1.391 . S
C567 H555 0.950 . S
C567 C563 1.393 . S
C567 C566 1.391 . S
H568 C576 0.950 . S
H569 C581 0.950 . S
H570 C578 0.950 . S
H571 C580 0.950 . S
H572 C582 0.950 . S
H573 C584 0.950 . S
H574 C586 0.950 . S
H575 C587 0.950 . S
C576 H568 0.950 . S
C576 C577 1.386 . S
C576 C578 1.391 . S
C577 C576 1.386 . S
C577 C581 1.393 . S
C578 H570 0.950 . S
C578 C576 1.391 . S
C578 C579 1.400 . S
C579 C578 1.400 . S
C579 C580 1.398 . S
C579 C585 1.491 . S
C580 H571 0.950 . S
C580 C579 1.398 . S
C580 C581 1.391 . S
C581 H569 0.950 . S
C581 C577 1.393 . S
C581 C580 1.391 . S
C582 H572 0.950 . S
C582 C583 1.386 . S
C582 C584 1.391 . S
C583 C582 1.386 . S
C583 C587 1.393 . S
C584 H573 0.950 . S
C584 C582 1.391 . S
C584 C585 1.400 . S
C585 C579 1.491 . S
C585 C584 1.400 . S
C585 C586 1.398 . S
C586 H574 0.950 . S
C586 C585 1.398 . S
C586 C587 1.391 . S
C587 H575 0.950 . S
C587 C583 1.393 . S
C587 C586 1.391 . S
H588 C596 0.950 . S
H589 C601 0.950 . S
H590 C598 0.950 . S
H591 C600 0.950 . S
H592 C602 0.950 . S
H593 C604 0.950 . S
H594 C606 0.950 . S
H595 C607 0.950 . S
C596 H588 0.950 . S
C596 C597 1.386 . S
C596 C598 1.391 . S
C597 C596 1.386 . S
C597 C601 1.393 . S
C598 H590 0.950 . S
C598 C596 1.391 . S
C598 C599 1.400 . S
C599 C598 1.400 . S
C599 C600 1.398 . S
C599 C605 1.491 . S
C600 H591 0.950 . S
C600 C599 1.398 . S
C600 C601 1.391 . S
C601 H589 0.950 . S
C601 C597 1.393 . S
C601 C600 1.391 . S
C602 H592 0.950 . S
C602 C603 1.386 . S
C602 C604 1.391 . S
C603 C602 1.386 . S
C603 C607 1.393 . S
C604 H593 0.950 . S
C604 C602 1.391 . S
C604 C605 1.400 . S
C605 C599 1.491 . S
C605 C604 1.400 . S
C605 C606 1.398 . S
C606 H594 0.950 . S
C606 C605 1.398 . S
C606 C607 1.391 . S
C607 H595 0.950 . S
C607 C603 1.393 . S
C607 C606 1.391 . S
H608 C616 0.955 . S
H609 C621 0.950 . S
H610 C618 0.950 . S
H611 C620 0.950 . S
H612 C622 0.950 . S
H613 C624 0.950 . S
H614 C626 0.950 . S
H615 C627 0.950 . S
C616 H608 0.955 . S
C616 C617 1.386 . S
C616 C618 1.391 . S
C617 C616 1.386 . S
C617 C621 1.393 . S
C618 H610 0.950 . S
C618 C616 1.391 . S
C618 C619 1.400 . S
C619 C618 1.400 . S
C619 C620 1.398 . S
C619 C625 1.491 . S
C620 H611 0.950 . S
C620 C619 1.398 . S
C620 C621 1.391 . S
C621 H609 0.950 . S
C621 C617 1.393 . S
C621 C620 1.391 . S
C622 H612 0.950 . S
C622 C623 1.386 . S
C622 C624 1.391 . S
C623 C622 1.386 . S
C623 C627 1.393 . S
C624 H613 0.950 . S
C624 C622 1.391 . S
C624 C625 1.400 . S
C625 C619 1.491 . S
C625 C624 1.400 . S
C625 C626 1.398 . S
C626 H614 0.950 . S
C626 C625 1.398 . S
C626 C627 1.391 . S
C627 H615 0.950 . S
C627 C623 1.393 . S
C627 C626 1.391 . S
H628 C636 0.950 . S
H629 C641 0.950 . S
H630 C638 0.950 . S
H631 C640 0.950 . S
H632 C642 0.950 . S
H633 C644 0.950 . S
H634 C646 0.950 . S
H635 C647 0.950 . S
C636 H628 0.950 . S
C636 C637 1.386 . S
C636 C638 1.391 . S
C637 C636 1.386 . S
C637 C641 1.393 . S
C638 H630 0.950 . S
C638 C636 1.391 . S
C638 C639 1.400 . S
C639 C638 1.400 . S
C639 C640 1.398 . S
C639 C645 1.491 . S
C640 H631 0.950 . S
C640 C639 1.398 . S
C640 C641 1.391 . S
C641 H629 0.950 . S
C641 C637 1.393 . S
C641 C640 1.391 . S
C642 H632 0.950 . S
C642 C643 1.386 . S
C642 C644 1.391 . S
C643 C642 1.386 . S
C643 C647 1.393 . S
C644 H633 0.950 . S
C644 C642 1.391 . S
C644 C645 1.400 . S
C645 C639 1.491 . S
C645 C644 1.400 . S
C645 C646 1.398 . S
C646 H634 0.950 . S
C646 C645 1.398 . S
C646 C647 1.391 . S
C647 H635 0.950 . S
C647 C643 1.393 . S
C647 C646 1.391 . S
H648 C656 0.950 . S
H649 C661 0.950 . S
H650 C658 0.950 . S
H651 C660 0.950 . S
H652 C662 0.950 . S
H653 C664 0.950 . S
H654 C666 0.950 . S
H655 C667 0.950 . S
C656 H648 0.950 . S
C656 C657 1.386 . S
C656 C658 1.391 . S
C657 C656 1.386 . S
C657 C661 1.393 . S
C658 H650 0.950 . S
C658 C656 1.391 . S
C658 C659 1.400 . S
C659 C658 1.400 . S
C659 C660 1.398 . S
C659 C665 1.491 . S
C660 H651 0.950 . S
C660 C659 1.398 . S
C660 C661 1.391 . S
C661 H649 0.950 . S
C661 C657 1.393 . S
C661 C660 1.391 . S
C662 H652 0.950 . S
C662 C663 1.386 . S
C662 C664 1.391 . S
C663 C662 1.386 . S
C663 C667 1.393 . S
C664 H653 0.950 . S
C664 C662 1.391 . S
C664 C665 1.400 . S
C665 C659 1.491 . S
C665 C664 1.400 . S
C665 C666 1.398 . S
C666 H654 0.950 . S
C666 C665 1.398 . S
C666 C667 1.391 . S
C667 H655 0.950 . S
C667 C663 1.393 . S
C667 C666 1.391 . S
H668 C676 0.950 . S
H669 C681 0.950 . S
H670 C678 0.950 . S
H671 C680 0.950 . S
H672 C682 0.950 . S
H673 C684 0.950 . S
H674 C686 0.950 . S
H675 C687 0.950 . S
C676 H668 0.950 . S
C676 C677 1.386 . S
C676 C678 1.391 . S
C677 C676 1.386 . S
C677 C681 1.393 . S
C678 H670 0.950 . S
C678 C676 1.391 . S
C678 C679 1.400 . S
C679 C678 1.400 . S
C679 C680 1.398 . S
C679 C685 1.491 . S
C680 H671 0.950 . S
C680 C679 1.398 . S
C680 C681 1.391 . S
C681 H669 0.950 . S
C681 C677 1.393 . S
C681 C680 1.391 . S
C682 H672 0.950 . S
C682 C683 1.386 . S
C682 C684 1.391 . S
C683 C682 1.386 . S
C683 C687 1.393 . S
C684 H673 0.950 . S
C684 C682 1.391 . S
C684 C685 1.400 . S
C685 C679 1.491 . S
C685 C684 1.400 . S
C685 C686 1.398 . S
C686 H674 0.950 . S
C686 C685 1.398 . S
C686 C687 1.391 . S
C687 H675 0.950 . S
C687 C683 1.393 . S
C687 C686 1.391 . S
H688 C696 0.950 . S
H689 C701 0.950 . S
H690 C698 0.950 . S
H691 C700 0.950 . S
H692 C702 0.950 . S
H693 C704 0.950 . S
H694 C706 0.950 . S
H695 C707 0.950 . S
C696 H688 0.950 . S
C696 C697 1.386 . S
C696 C698 1.391 . S
C697 C696 1.386 . S
C697 C701 1.393 . S
C698 H690 0.950 . S
C698 C696 1.391 . S
C698 C699 1.400 . S
C699 C698 1.400 . S
C699 C700 1.398 . S
C699 C705 1.491 . S
C700 H691 0.950 . S
C700 C699 1.398 . S
C700 C701 1.391 . S
C701 H689 0.950 . S
C701 C697 1.393 . S
C701 C700 1.391 . S
C702 H692 0.950 . S
C702 C703 1.386 . S
C702 C704 1.391 . S
C703 C702 1.386 . S
C703 C707 1.393 . S
C704 H693 0.950 . S
C704 C702 1.391 . S
C704 C705 1.400 . S
C705 C699 1.491 . S
C705 C704 1.400 . S
C705 C706 1.398 . S
C706 H694 0.950 . S
C706 C705 1.398 . S
C706 C707 1.391 . S
C707 H695 0.950 . S
C707 C703 1.393 . S
C707 C706 1.391 . S
H708 C716 0.950 . S
H709 C721 0.950 . S
H710 C718 0.950 . S
H711 C720 0.950 . S
H712 C722 0.950 . S
H713 C724 0.950 . S
H714 C726 0.950 . S
H715 C727 0.950 . S
C716 H708 0.950 . S
C716 C717 1.386 . S
C716 C718 1.391 1_545 S
C717 C716 1.386 . S
C717 C721 1.393 1_545 S
C718 H710 0.950 . S
C718 C716 1.391 1_565 S
C718 C719 1.400 . S
C719 C718 1.400 . S
C719 C720 1.398 . S
C719 C725 1.491 . S
C720 H711 0.950 . S
C720 C719 1.398 . S
C720 C721 1.391 . S
C721 H709 0.950 . S
C721 C717 1.393 1_565 S
C721 C720 1.391 . S
C722 H712 0.950 . S
C722 C723 1.386 . S
C722 C724 1.391 . S
C723 C722 1.386 . S
C723 C727 1.393 . S
C724 H713 0.950 . S
C724 C722 1.391 . S
C724 C725 1.400 . S
C725 C719 1.491 . S
C725 C724 1.400 . S
C725 C726 1.398 . S
C726 H714 0.950 . S
C726 C725 1.398 . S
C726 C727 1.391 . S
C727 H715 0.950 . S
C727 C723 1.393 . S
C727 C726 1.391 . S
H728 C736 0.950 . S
H729 C741 0.950 . S
H730 C738 0.950 . S
H731 C740 0.950 . S
H732 C742 0.950 . S
H733 C744 0.950 . S
H734 C746 0.950 . S
H735 C747 0.950 . S
C736 H728 0.950 . S
C736 C737 1.386 . S
C736 C738 1.391 . S
C737 C736 1.386 . S
C737 C741 1.393 . S
C738 H730 0.950 . S
C738 C736 1.391 . S
C738 C739 1.400 . S
C739 C738 1.400 . S
C739 C740 1.398 . S
C739 C745 1.491 . S
C740 H731 0.950 . S
C740 C739 1.398 . S
C740 C741 1.391 . S
C741 H729 0.950 . S
C741 C737 1.393 . S
C741 C740 1.391 . S
C742 H732 0.950 . S
C742 C743 1.386 . S
C742 C744 1.391 . S
C743 C742 1.386 . S
C743 C747 1.393 . S
C744 H733 0.950 . S
C744 C742 1.391 . S
C744 C745 1.400 . S
C745 C739 1.491 . S
C745 C744 1.400 . S
C745 C746 1.398 . S
C746 H734 0.950 . S
C746 C745 1.398 . S
C746 C747 1.391 . S
C747 H735 0.950 . S
C747 C743 1.393 . S
C747 C746 1.391 . S
H748 C756 0.950 . S
H749 C761 0.950 . S
H750 C758 0.950 . S
H751 C760 0.950 . S
H752 C762 0.950 . S
H753 C764 0.950 . S
H754 C766 0.950 . S
H755 C767 0.950 . S
C756 H748 0.950 . S
C756 C757 1.386 1_545 S
C756 C758 1.391 . S
C757 C756 1.386 1_565 S
C757 C761 1.393 . S
C758 H750 0.950 . S
C758 C756 1.391 . S
C758 C759 1.400 . S
C759 C758 1.400 . S
C759 C760 1.398 . S
C759 C765 1.491 . S
C760 H751 0.950 . S
C760 C759 1.398 . S
C760 C761 1.391 1_545 S
C761 H749 0.950 . S
C761 C757 1.393 . S
C761 C760 1.391 1_565 S
C762 H752 0.950 . S
C762 C763 1.386 . S
C762 C764 1.391 . S
C763 C762 1.386 . S
C763 C767 1.393 . S
C764 H753 0.950 . S
C764 C762 1.391 . S
C764 C765 1.400 . S
C765 C759 1.491 . S
C765 C764 1.400 . S
C765 C766 1.398 . S
C766 H754 0.950 . S
C766 C765 1.398 . S
C766 C767 1.391 . S
C767 H755 0.950 . S
C767 C763 1.393 . S
C767 C766 1.391 . S
H768 C776 0.950 . S
H769 C781 0.950 . S
H770 C778 0.950 . S
H771 C780 0.950 . S
H772 C782 0.950 . S
H773 C784 0.950 . S
H774 C786 0.950 . S
H775 C787 0.950 . S
C776 H768 0.950 . S
C776 C777 1.386 . S
C776 C778 1.391 . S
C777 C776 1.386 . S
C777 C781 1.393 . S
C778 H770 0.950 . S
C778 C776 1.391 . S
C778 C779 1.400 . S
C779 C778 1.400 . S
C779 C780 1.398 . S
C779 C785 1.491 . S
C780 H771 0.950 . S
C780 C779 1.398 . S
C780 C781 1.391 . S
C781 H769 0.950 . S
C781 C777 1.393 . S
C781 C780 1.391 . S
C782 H772 0.950 . S
C782 C783 1.386 . S
C782 C784 1.391 . S
C783 C782 1.386 . S
C783 C787 1.393 . S
C784 H773 0.950 . S
C784 C782 1.391 . S
C784 C785 1.400 . S
C785 C779 1.491 . S
C785 C784 1.400 . S
C785 C786 1.398 . S
C786 H774 0.950 . S
C786 C785 1.398 . S
C786 C787 1.391 . S
C787 H775 0.950 . S
C787 C783 1.393 . S
C787 C786 1.391 . S
H788 C796 0.950 . S
H789 C801 0.950 . S
H790 C798 0.950 . S
H791 C800 0.950 . S
H792 C802 0.950 . S
H793 C804 0.948 1_565 S
H794 C806 0.950 . S
H795 C807 0.950 . S
C796 H788 0.950 . S
C796 C797 1.386 . S
C796 C798 1.391 . S
C797 C796 1.386 . S
C797 C801 1.393 . S
C798 H790 0.950 . S
C798 C796 1.391 . S
C798 C799 1.400 . S
C799 C798 1.400 . S
C799 C800 1.398 . S
C799 C805 1.491 . S
C800 H791 0.950 . S
C800 C799 1.398 . S
C800 C801 1.391 . S
C801 H789 0.950 . S
C801 C797 1.393 . S
C801 C800 1.391 . S
C802 H792 0.950 . S
C802 C803 1.386 . S
C802 C804 1.371 1_565 S
C803 C802 1.386 . S
C803 C807 1.393 1_565 S
C804 H793 0.948 1_545 S
C804 C802 1.371 1_545 S
C804 C805 1.422 . S
C805 C799 1.491 . S
C805 C804 1.422 . S
C805 C806 1.398 . S
C806 H794 0.950 . S
C806 C805 1.398 . S
C806 C807 1.391 . S
C807 H795 0.950 . S
C807 C803 1.393 1_545 S
C807 C806 1.391 . S
H808 C816 0.950 . S
H809 C821 0.950 . S
H810 C818 0.950 . S
H811 C820 0.950 . S
H812 C822 0.950 . S
H813 C824 0.950 . S
H814 C826 0.950 . S
H815 C827 0.950 . S
C816 H808 0.950 . S
C816 C817 1.386 . S
C816 C818 1.391 . S
C817 C816 1.386 . S
C817 C821 1.393 . S
C818 H810 0.950 . S
C818 C816 1.391 . S
C818 C819 1.400 . S
C819 C818 1.400 . S
C819 C820 1.398 . S
C819 C825 1.491 . S
C820 H811 0.950 . S
C820 C819 1.398 . S
C820 C821 1.391 . S
C821 H809 0.950 . S
C821 C817 1.393 . S
C821 C820 1.391 . S
C822 H812 0.950 . S
C822 C823 1.386 . S
C822 C824 1.391 . S
C823 C822 1.386 . S
C823 C827 1.393 . S
C824 H813 0.950 . S
C824 C822 1.391 . S
C824 C825 1.400 . S
C825 C819 1.491 . S
C825 C824 1.400 . S
C825 C826 1.398 . S
C826 H814 0.950 . S
C826 C825 1.398 . S
C826 C827 1.391 . S
C827 H815 0.950 . S
C827 C823 1.393 . S
C827 C826 1.391 . S
H828 C836 0.950 . S
H829 C841 0.951 . S
H830 C838 0.950 . S
H831 C840 0.950 . S
H832 C842 0.950 . S
H833 C844 0.950 . S
H834 C846 0.950 . S
H835 C847 0.950 . S
C836 H828 0.950 . S
C836 C837 1.386 . S
C836 C838 1.391 1_545 S
C837 C836 1.386 . S
C837 C841 1.406 . S
C838 H830 0.950 . S
C838 C836 1.391 1_565 S
C838 C839 1.400 . S
C839 C838 1.400 . S
C839 C840 1.398 . S
C839 C845 1.491 . S
C840 H831 0.950 . S
C840 C839 1.398 . S
C840 C841 1.376 1_565 S
C841 H829 0.951 . S
C841 C837 1.406 . S
C841 C840 1.376 1_545 S
C842 H832 0.950 . S
C842 C843 1.386 . S
C842 C844 1.391 . S
C843 C842 1.386 . S
C843 C847 1.393 . S
C844 H833 0.950 . S
C844 C842 1.391 . S
C844 C845 1.400 . S
C845 C839 1.491 . S
C845 C844 1.400 . S
C845 C846 1.398 . S
C846 H834 0.950 . S
C846 C845 1.398 . S
C846 C847 1.391 . S
C847 H835 0.950 . S
C847 C843 1.393 . S
C847 C846 1.391 . S
H848 C856 0.950 . S
H849 C861 0.950 . S
H850 C858 0.950 . S
H851 C860 0.950 . S
H852 C862 0.950 . S
H853 C864 0.950 . S
H854 C866 0.950 . S
H855 C867 0.950 . S
C856 H848 0.950 . S
C856 C857 1.386 . S
C856 C858 1.391 . S
C857 C856 1.386 . S
C857 C861 1.393 . S
C858 H850 0.950 . S
C858 C856 1.391 . S
C858 C859 1.400 . S
C859 C858 1.400 . S
C859 C860 1.398 . S
C859 C865 1.491 . S
C860 H851 0.950 . S
C860 C859 1.398 . S
C860 C861 1.391 . S
C861 H849 0.950 . S
C861 C857 1.393 . S
C861 C860 1.391 . S
C862 H852 0.950 . S
C862 C863 1.386 . S
C862 C864 1.391 . S
C863 C862 1.386 . S
C863 C867 1.393 . S
C864 H853 0.950 . S
C864 C862 1.391 . S
C864 C865 1.400 . S
C865 C859 1.491 . S
C865 C864 1.400 . S
C865 C866 1.398 . S
C866 H854 0.950 . S
C866 C865 1.398 . S
C866 C867 1.391 . S
C867 H855 0.950 . S
C867 C863 1.393 . S
C867 C866 1.391 . S
H868 C876 0.950 . S
H869 C881 0.950 . S
H870 C878 0.950 . S
H871 C880 0.950 . S
H872 C882 0.950 . S
H873 C884 0.950 . S
H874 C886 0.950 . S
H875 C887 0.950 . S
C876 H868 0.950 . S
C876 C877 1.386 . S
C876 C878 1.391 . S
C877 C876 1.386 . S
C877 C881 1.393 . S
C878 H870 0.950 . S
C878 C876 1.391 . S
C878 C879 1.400 . S
C879 C878 1.400 . S
C879 C880 1.398 . S
C879 C885 1.491 . S
C880 H871 0.950 . S
C880 C879 1.398 . S
C880 C881 1.391 . S
C881 H869 0.950 . S
C881 C877 1.393 . S
C881 C880 1.391 . S
C882 H872 0.950 . S
C882 C883 1.386 . S
C882 C884 1.391 . S
C883 C882 1.386 . S
C883 C887 1.393 . S
C884 H873 0.950 . S
C884 C882 1.391 . S
C884 C885 1.400 . S
C885 C879 1.491 . S
C885 C884 1.400 . S
C885 C886 1.398 . S
C886 H874 0.950 . S
C886 C885 1.398 . S
C886 C887 1.391 . S
C887 H875 0.950 . S
C887 C883 1.393 . S
C887 C886 1.391 . S
H888 C896 0.950 . S
H889 C901 0.950 . S
H890 C898 0.950 . S
H891 C900 0.950 . S
H892 C902 0.950 . S
H893 C904 0.950 . S
H894 C906 0.950 . S
H895 C907 0.950 . S
C896 H888 0.950 . S
C896 C897 1.386 . S
C896 C898 1.391 . S
C897 C896 1.386 . S
C897 C901 1.393 1_455 S
C898 H890 0.950 . S
C898 C896 1.391 . S
C898 C899 1.400 . S
C899 C898 1.400 . S
C899 C900 1.398 . S
C899 C905 1.491 . S
C900 H891 0.950 . S
C900 C899 1.398 . S
C900 C901 1.391 1_455 S
C901 H889 0.950 . S
C901 C897 1.393 1_655 S
C901 C900 1.391 1_655 S
C902 H892 0.950 . S
C902 C903 1.386 . S
C902 C904 1.391 . S
C903 C902 1.386 . S
C903 C907 1.393 . S
C904 H893 0.950 . S
C904 C902 1.391 . S
C904 C905 1.400 . S
C905 C899 1.491 . S
C905 C904 1.400 . S
C905 C906 1.398 . S
C906 H894 0.950 . S
C906 C905 1.398 . S
C906 C907 1.391 . S
C907 H895 0.950 . S
C907 C903 1.393 . S
C907 C906 1.391 . S
H908 C916 0.950 . S
H909 C921 0.950 . S
H910 C918 0.950 . S
H911 C920 0.950 . S
H912 C922 0.950 . S
H913 C924 0.950 . S
H914 C926 0.950 . S
H915 C927 0.950 . S
C916 H908 0.950 . S
C916 C917 1.386 . S
C916 C918 1.391 . S
C917 C916 1.386 . S
C917 C921 1.393 . S
C918 H910 0.950 . S
C918 C916 1.391 . S
C918 C919 1.400 . S
C919 C918 1.400 . S
C919 C920 1.398 . S
C919 C925 1.491 . S
C920 H911 0.950 . S
C920 C919 1.398 . S
C920 C921 1.391 . S
C921 H909 0.950 . S
C921 C917 1.393 . S
C921 C920 1.391 . S
C922 H912 0.950 . S
C922 C923 1.386 . S
C922 C924 1.391 . S
C923 C922 1.386 . S
C923 C927 1.393 . S
C924 H913 0.950 . S
C924 C922 1.391 . S
C924 C925 1.400 . S
C925 C919 1.491 . S
C925 C924 1.400 . S
C925 C926 1.398 . S
C926 H914 0.950 . S
C926 C925 1.398 . S
C926 C927 1.391 . S
C927 H915 0.950 . S
C927 C923 1.393 . S
C927 C926 1.391 . S
H928 C936 0.950 . S
H929 C941 0.950 . S
H930 C938 0.950 . S
H931 C940 0.950 . S
H932 C942 0.950 . S
H933 C944 0.950 . S
H934 C946 0.950 . S
H935 C947 0.950 . S
C936 H928 0.950 . S
C936 C937 1.386 . S
C936 C938 1.391 . S
C937 C936 1.386 . S
C937 C941 1.393 . S
C938 H930 0.950 . S
C938 C936 1.391 . S
C938 C939 1.400 . S
C939 C938 1.400 . S
C939 C940 1.398 . S
C939 C945 1.491 . S
C940 H931 0.950 . S
C940 C939 1.398 . S
C940 C941 1.391 . S
C941 H929 0.950 . S
C941 C937 1.393 . S
C941 C940 1.391 . S
C942 H932 0.950 . S
C942 C943 1.386 . S
C942 C944 1.391 . S
C943 C942 1.386 . S
C943 C947 1.393 . S
C944 H933 0.950 . S
C944 C942 1.391 . S
C944 C945 1.400 . S
C945 C939 1.491 . S
C945 C944 1.400 . S
C945 C946 1.398 . S
C946 H934 0.950 . S
C946 C945 1.398 . S
C946 C947 1.391 . S
C947 H935 0.950 . S
C947 C943 1.393 . S
C947 C946 1.391 . S
H948 C956 0.950 . S
H949 C961 0.950 . S
H950 C958 0.950 . S
H951 C960 0.950 . S
H952 C962 0.950 . S
H953 C964 0.950 . S
H954 C966 0.950 . S
H955 C967 0.950 . S
C956 H948 0.950 . S
C956 C957 1.386 . S
C956 C958 1.391 . S
C957 C956 1.386 . S
C957 C961 1.393 . S
C958 H950 0.950 . S
C958 C956 1.391 . S
C958 C959 1.400 . S
C959 C958 1.400 . S
C959 C960 1.398 . S
C959 C965 1.491 . S
C960 H951 0.950 . S
C960 C959 1.398 . S
C960 C961 1.391 . S
C961 H949 0.950 . S
C961 C957 1.393 . S
C961 C960 1.391 . S
C962 H952 0.950 . S
C962 C963 1.386 . S
C962 C964 1.391 . S
C963 C962 1.386 . S
C963 C967 1.393 . S
C964 H953 0.950 . S
C964 C962 1.391 . S
C964 C965 1.400 . S
C965 C959 1.491 . S
C965 C964 1.400 . S
C965 C966 1.398 . S
C966 H954 0.950 . S
C966 C965 1.398 . S
C966 C967 1.391 . S
C967 H955 0.950 . S
C967 C963 1.393 . S
C967 C966 1.391 . S
H968 C976 0.950 . S
H969 C981 0.950 . S
H970 C978 0.950 . S
H971 C980 0.950 . S
H972 C982 0.950 . S
H973 C984 0.950 . S
H974 C986 0.950 . S
H975 C987 0.950 . S
C976 H968 0.950 . S
C976 C977 1.386 1_455 S
C976 C978 1.391 1_455 S
C977 C976 1.386 1_655 S
C977 C981 1.393 . S
C978 H970 0.950 . S
C978 C976 1.391 1_655 S
C978 C979 1.400 . S
C979 C978 1.400 . S
C979 C980 1.398 . S
C979 C985 1.491 . S
C980 H971 0.950 . S
C980 C979 1.398 . S
C980 C981 1.391 . S
C981 H969 0.950 . S
C981 C977 1.393 . S
C981 C980 1.391 . S
C982 H972 0.950 . S
C982 C983 1.386 . S
C982 C984 1.391 . S
C983 C982 1.386 . S
C983 C987 1.393 . S
C984 H973 0.950 . S
C984 C982 1.391 . S
C984 C985 1.400 . S
C985 C979 1.491 . S
C985 C984 1.400 . S
C985 C986 1.398 . S
C986 H974 0.950 . S
C986 C985 1.398 . S
C986 C987 1.391 . S
C987 H975 0.950 . S
C987 C983 1.393 . S
C987 C986 1.391 . S
H988 C996 0.950 . S
H989 C1001 0.950 . S
H990 C998 0.950 . S
H991 C1000 0.950 . S
H992 C1002 0.950 . S
H993 C1004 0.950 . S
H994 C1006 0.950 . S
H995 C1007 0.950 . S
C996 H988 0.950 . S
C996 C997 1.386 . S
C996 C998 1.391 . S
C997 C996 1.386 . S
C997 C1001 1.393 . S
C998 H990 0.950 . S
C998 C996 1.391 . S
C998 C999 1.400 . S
C999 C998 1.400 . S
C999 C1000 1.398 . S
C999 C1005 1.491 . S
C1000 H991 0.950 . S
C1000 C999 1.398 . S
C1000 C1001 1.391 . S
C1001 H989 0.950 . S
C1001 C997 1.393 . S
C1001 C1000 1.391 . S
C1002 H992 0.950 . S
C1002 C1003 1.386 . S
C1002 C1004 1.391 . S
C1003 C1002 1.386 . S
C1003 C1007 1.393 . S
C1004 H993 0.950 . S
C1004 C1002 1.391 . S
C1004 C1005 1.400 . S
C1005 C999 1.491 . S
C1005 C1004 1.400 . S
C1005 C1006 1.398 . S
C1006 H994 0.950 . S
C1006 C1005 1.398 . S
C1006 C1007 1.391 . S
C1007 H995 0.950 . S
C1007 C1003 1.393 . S
C1007 C1006 1.391 . S
H1008 C1016 0.950 . S
H1009 C1021 0.950 . S
H1010 C1018 0.950 . S
H1011 C1020 0.950 . S
H1012 C1022 0.950 . S
H1013 C1024 0.950 . S
H1014 C1026 0.950 . S
H1015 C1027 0.950 . S
C1016 H1008 0.950 . S
C1016 C1017 1.386 . S
C1016 C1018 1.391 . S
C1017 C1016 1.386 . S
C1017 C1021 1.393 . S
C1018 H1010 0.950 . S
C1018 C1016 1.391 . S
C1018 C1019 1.400 . S
C1019 C1018 1.400 . S
C1019 C1020 1.398 . S
C1019 C1025 1.491 . S
C1020 H1011 0.950 . S
C1020 C1019 1.398 . S
C1020 C1021 1.391 . S
C1021 H1009 0.950 . S
C1021 C1017 1.393 . S
C1021 C1020 1.391 . S
C1022 H1012 0.950 . S
C1022 C1023 1.393 . S
C1022 C1024 1.391 . S
C1023 C1022 1.393 . S
C1023 C1027 1.402 . S
C1024 H1013 0.950 . S
C1024 C1022 1.391 . S
C1024 C1025 1.400 . S
C1025 C1019 1.491 . S
C1025 C1024 1.400 . S
C1025 C1026 1.398 . S
C1026 H1014 0.950 . S
C1026 C1025 1.398 . S
C1026 C1027 1.391 . S
C1027 H1015 0.950 . S
C1027 C1023 1.402 . S
C1027 C1026 1.391 . S
H1028 C1036 0.950 . S
H1029 C1041 0.950 . S
H1030 C1038 0.950 . S
H1031 C1040 0.950 . S
H1032 C1042 0.950 . S
H1033 C1044 0.950 . S
H1034 C1046 0.950 . S
H1035 C1047 0.950 . S
C1036 H1028 0.950 . S
C1036 C1037 1.386 . S
C1036 C1038 1.391 . S
C1037 C1036 1.386 . S
C1037 C1041 1.393 . S
C1038 H1030 0.950 . S
C1038 C1036 1.391 . S
C1038 C1039 1.400 . S
C1039 C1038 1.400 . S
C1039 C1040 1.398 . S
C1039 C1045 1.491 . S
C1040 H1031 0.950 . S
C1040 C1039 1.398 . S
C1040 C1041 1.391 . S
C1041 H1029 0.950 . S
C1041 C1037 1.393 . S
C1041 C1040 1.391 . S
C1042 H1032 0.950 . S
C1042 C1043 1.386 . S
C1042 C1044 1.391 . S
C1043 C1042 1.386 . S
C1043 C1047 1.393 . S
C1044 H1033 0.950 . S
C1044 C1042 1.391 . S
C1044 C1045 1.400 . S
C1045 C1039 1.491 . S
C1045 C1044 1.400 . S
C1045 C1046 1.398 . S
C1046 H1034 0.950 . S
C1046 C1045 1.398 . S
C1046 C1047 1.391 . S
C1047 H1035 0.950 . S
C1047 C1043 1.393 . S
C1047 C1046 1.391 . S
H1048 C1056 0.950 . S
H1049 C1061 0.950 . S
H1050 C1058 0.950 . S
H1051 C1060 0.950 . S
H1052 C1062 0.950 . S
H1053 C1064 0.950 . S
H1054 C1066 0.950 . S
H1055 C1067 0.950 . S
C1056 H1048 0.950 . S
C1056 C1057 1.386 . S
C1056 C1058 1.391 . S
C1057 C1056 1.386 . S
C1057 C1061 1.393 . S
C1058 H1050 0.950 . S
C1058 C1056 1.391 . S
C1058 C1059 1.400 . S
C1059 C1058 1.400 . S
C1059 C1060 1.398 . S
C1059 C1065 1.491 . S
C1060 H1051 0.950 . S
C1060 C1059 1.398 . S
C1060 C1061 1.391 . S
C1061 H1049 0.950 . S
C1061 C1057 1.393 . S
C1061 C1060 1.391 . S
C1062 H1052 0.950 . S
C1062 C1063 1.386 . S
C1062 C1064 1.391 . S
C1063 C1062 1.386 . S
C1063 C1067 1.393 . S
C1064 H1053 0.950 . S
C1064 C1062 1.391 . S
C1064 C1065 1.400 . S
C1065 C1059 1.491 . S
C1065 C1064 1.400 . S
C1065 C1066 1.398 . S
C1066 H1054 0.950 . S
C1066 C1065 1.398 . S
C1066 C1067 1.391 . S
C1067 H1055 0.950 . S
C1067 C1063 1.393 . S
C1067 C1066 1.391 . S
H1068 C1076 0.950 . S
H1069 C1081 0.950 . S
H1070 C1078 0.950 . S
H1071 C1080 0.950 . S
H1072 C1082 0.950 . S
H1073 C1084 0.950 . S
H1074 C1086 0.950 . S
H1075 C1087 0.950 . S
C1076 H1068 0.950 . S
C1076 C1077 1.386 . S
C1076 C1078 1.391 . S
C1077 C1076 1.386 . S
C1077 C1081 1.393 . S
C1078 H1070 0.950 . S
C1078 C1076 1.391 . S
C1078 C1079 1.400 . S
C1079 C1078 1.400 . S
C1079 C1080 1.398 . S
C1079 C1085 1.491 . S
C1080 H1071 0.950 . S
C1080 C1079 1.398 . S
C1080 C1081 1.391 . S
C1081 H1069 0.950 . S
C1081 C1077 1.393 . S
C1081 C1080 1.391 . S
C1082 H1072 0.950 . S
C1082 C1083 1.386 . S
C1082 C1084 1.391 . S
C1083 C1082 1.386 . S
C1083 C1087 1.393 . S
C1084 H1073 0.950 . S
C1084 C1082 1.391 . S
C1084 C1085 1.400 . S
C1085 C1079 1.491 . S
C1085 C1084 1.400 . S
C1085 C1086 1.398 . S
C1086 H1074 0.950 . S
C1086 C1085 1.398 . S
C1086 C1087 1.391 . S
C1087 H1075 0.950 . S
C1087 C1083 1.393 . S
C1087 C1086 1.391 . S
H1088 C1096 0.950 . S
H1089 C1101 0.950 . S
H1090 C1098 0.950 . S
H1091 C1100 0.950 . S
H1092 C1102 0.950 . S
H1093 C1104 0.950 . S
H1094 C1106 0.950 . S
H1095 C1107 0.950 . S
C1096 H1088 0.950 . S
C1096 C1097 1.386 . S
C1096 C1098 1.391 . S
C1097 C1096 1.386 . S
C1097 C1101 1.393 . S
C1098 H1090 0.950 . S
C1098 C1096 1.391 . S
C1098 C1099 1.400 . S
C1099 C1098 1.400 . S
C1099 C1100 1.398 . S
C1099 C1105 1.491 . S
C1100 H1091 0.950 . S
C1100 C1099 1.398 . S
C1100 C1101 1.391 . S
C1101 H1089 0.950 . S
C1101 C1097 1.393 . S
C1101 C1100 1.391 . S
C1102 H1092 0.950 . S
C1102 C1103 1.386 1_655 S
C1102 C1104 1.391 1_655 S
C1103 C1102 1.386 1_455 S
C1103 C1107 1.393 . S
C1104 H1093 0.950 . S
C1104 C1102 1.391 1_455 S
C1104 C1105 1.400 . S
C1105 C1099 1.491 . S
C1105 C1104 1.400 . S
C1105 C1106 1.398 . S
C1106 H1094 0.950 . S
C1106 C1105 1.398 . S
C1106 C1107 1.391 . S
C1107 H1095 0.950 . S
C1107 C1103 1.393 . S
C1107 C1106 1.391 . S
H1108 C1116 0.950 . S
H1109 C1121 0.950 . S
H1110 C1118 0.950 . S
H1111 C1120 0.950 . S
H1112 C1122 0.950 . S
H1113 C1124 0.950 . S
H1114 C1126 0.950 . S
H1115 C1127 0.950 . S
C1116 H1108 0.950 . S
C1116 C1117 1.386 . S
C1116 C1118 1.391 . S
C1117 C1116 1.386 . S
C1117 C1121 1.393 . S
C1118 H1110 0.950 . S
C1118 C1116 1.391 . S
C1118 C1119 1.400 . S
C1119 C1118 1.400 . S
C1119 C1120 1.398 . S
C1119 C1125 1.491 . S
C1120 H1111 0.950 . S
C1120 C1119 1.398 . S
C1120 C1121 1.391 . S
C1121 H1109 0.950 . S
C1121 C1117 1.393 . S
C1121 C1120 1.391 . S
C1122 H1112 0.950 . S
C1122 C1123 1.386 . S
C1122 C1124 1.391 . S
C1123 C1122 1.386 . S
C1123 C1127 1.393 . S
C1124 H1113 0.950 . S
C1124 C1122 1.391 . S
C1124 C1125 1.400 . S
C1125 C1119 1.491 . S
C1125 C1124 1.400 . S
C1125 C1126 1.398 . S
C1126 H1114 0.950 . S
C1126 C1125 1.398 . S
C1126 C1127 1.391 . S
C1127 H1115 0.950 . S
C1127 C1123 1.393 . S
C1127 C1126 1.391 . S
H1128 C1136 0.950 . S
H1129 C1141 0.950 . S
H1130 C1138 0.950 . S
H1131 C1140 0.950 . S
H1132 C1142 0.950 . S
H1133 C1144 0.950 . S
H1134 C1146 0.950 . S
H1135 C1147 0.950 . S
C1136 H1128 0.950 . S
C1136 C1137 1.386 . S
C1136 C1138 1.391 . S
C1137 C1136 1.386 . S
C1137 C1141 1.393 . S
C1138 H1130 0.950 . S
C1138 C1136 1.391 . S
C1138 C1139 1.400 . S
C1139 C1138 1.400 . S
C1139 C1140 1.398 . S
C1139 C1145 1.491 . S
C1140 H1131 0.950 . S
C1140 C1139 1.398 . S
C1140 C1141 1.391 . S
C1141 H1129 0.950 . S
C1141 C1137 1.393 . S
C1141 C1140 1.391 . S
C1142 H1132 0.950 . S
C1142 C1143 1.386 . S
C1142 C1144 1.391 . S
C1143 C1142 1.386 . S
C1143 C1147 1.393 . S
C1144 H1133 0.950 . S
C1144 C1142 1.391 . S
C1144 C1145 1.400 . S
C1145 C1139 1.491 . S
C1145 C1144 1.400 . S
C1145 C1146 1.398 . S
C1146 H1134 0.950 . S
C1146 C1145 1.398 . S
C1146 C1147 1.391 . S
C1147 H1135 0.950 . S
C1147 C1143 1.393 . S
C1147 C1146 1.391 . S
H1148 C1156 0.950 . S
H1149 C1161 0.950 . S
H1150 C1158 0.950 . S
H1151 C1160 0.950 . S
H1152 C1162 0.950 . S
H1153 C1164 0.950 . S
H1154 C1166 0.950 . S
H1155 C1167 0.950 . S
C1156 H1148 0.950 . S
C1156 C1157 1.386 . S
C1156 C1158 1.391 . S
C1157 C1156 1.386 . S
C1157 C1161 1.393 . S
C1158 H1150 0.950 . S
C1158 C1156 1.391 . S
C1158 C1159 1.400 . S
C1159 C1158 1.400 . S
C1159 C1160 1.398 . S
C1159 C1165 1.491 . S
C1160 H1151 0.950 . S
C1160 C1159 1.398 . S
C1160 C1161 1.391 . S
C1161 H1149 0.950 . S
C1161 C1157 1.393 . S
C1161 C1160 1.391 . S
C1162 H1152 0.950 . S
C1162 C1163 1.386 . S
C1162 C1164 1.391 . S
C1163 C1162 1.386 . S
C1163 C1167 1.393 . S
C1164 H1153 0.950 . S
C1164 C1162 1.391 . S
C1164 C1165 1.400 . S
C1165 C1159 1.491 . S
C1165 C1164 1.400 . S
C1165 C1166 1.398 . S
C1166 H1154 0.950 . S
C1166 C1165 1.398 . S
C1166 C1167 1.391 . S
C1167 H1155 0.950 . S
C1167 C1163 1.393 . S
C1167 C1166 1.391 . S
H1168 C1176 0.950 . S
H1169 C1181 0.950 . S
H1170 C1178 0.950 . S
H1171 C1180 0.950 . S
H1172 C1182 0.950 . S
H1173 C1184 0.950 . S
H1174 C1186 0.950 . S
H1175 C1187 0.950 . S
C1176 H1168 0.950 . S
C1176 C1177 1.386 . S
C1176 C1178 1.391 . S
C1177 C1176 1.386 . S
C1177 C1181 1.393 . S
C1178 H1170 0.950 . S
C1178 C1176 1.391 . S
C1178 C1179 1.400 . S
C1179 C1178 1.400 . S
C1179 C1180 1.398 . S
C1179 C1185 1.491 . S
C1180 H1171 0.950 . S
C1180 C1179 1.398 . S
C1180 C1181 1.391 . S
C1181 H1169 0.950 . S
C1181 C1177 1.393 . S
C1181 C1180 1.391 . S
C1182 H1172 0.950 . S
C1182 C1183 1.386 . S
C1182 C1184 1.391 . S
C1183 C1182 1.386 . S
C1183 C1187 1.393 . S
C1184 H1173 0.950 . S
C1184 C1182 1.391 . S
C1184 C1185 1.400 . S
C1185 C1179 1.491 . S
C1185 C1184 1.400 . S
C1185 C1186 1.398 . S
C1186 H1174 0.950 . S
C1186 C1185 1.398 . S
C1186 C1187 1.391 . S
C1187 H1175 0.950 . S
C1187 C1183 1.393 . S
C1187 C1186 1.391 . S
H1188 C1196 0.950 . S
H1189 C1201 0.950 . S
H1190 C1198 0.950 . S
H1191 C1200 0.950 . S
H1192 C1202 0.950 . S
H1193 C1204 0.950 . S
H1194 C1206 0.950 . S
H1195 C1207 0.950 . S
C1196 H1188 0.950 . S
C1196 C1197 1.386 . S
C1196 C1198 1.391 . S
C1197 C1196 1.386 . S
C1197 C1201 1.393 . S
C1198 H1190 0.950 . S
C1198 C1196 1.391 . S
C1198 C1199 1.400 . S
C1199 C1198 1.400 . S
C1199 C1200 1.398 . S
C1199 C1205 1.491 . S
C1200 H1191 0.950 . S
C1200 C1199 1.398 . S
C1200 C1201 1.391 . S
C1201 H1189 0.950 . S
C1201 C1197 1.393 . S
C1201 C1200 1.391 . S
C1202 H1192 0.950 . S
C1202 C1203 1.386 . S
C1202 C1204 1.391 . S
C1203 C1202 1.386 . S
C1203 C1207 1.393 . S
C1204 H1193 0.950 . S
C1204 C1202 1.391 . S
C1204 C1205 1.400 . S
C1205 C1199 1.491 . S
C1205 C1204 1.400 . S
C1205 C1206 1.398 . S
C1206 H1194 0.950 . S
C1206 C1205 1.398 . S
C1206 C1207 1.391 . S
C1207 H1195 0.950 . S
C1207 C1203 1.393 . S
C1207 C1206 1.391 . S
H1208 C1216 0.950 . S
H1209 C1221 0.950 . S
H1210 C1218 0.950 . S
H1211 C1220 0.950 . S
H1212 C1222 0.950 . S
H1213 C1224 0.950 . S
H1214 C1226 0.950 . S
H1215 C1227 0.950 . S
C1216 H1208 0.950 . S
C1216 C1217 1.386 . S
C1216 C1218 1.391 . S
C1217 C1216 1.386 . S
C1217 C1221 1.393 . S
C1218 H1210 0.950 . S
C1218 C1216 1.391 . S
C1218 C1219 1.400 . S
C1219 C1218 1.400 . S
C1219 C1220 1.398 . S
C1219 C1225 1.491 . S
C1220 H1211 0.950 . S
C1220 C1219 1.398 . S
C1220 C1221 1.391 . S
C1221 H1209 0.950 . S
C1221 C1217 1.393 . S
C1221 C1220 1.391 . S
C1222 H1212 0.950 . S
C1222 C1223 1.386 . S
C1222 C1224 1.391 . S
C1223 C1222 1.386 . S
C1223 C1227 1.393 . S
C1224 H1213 0.950 . S
C1224 C1222 1.391 . S
C1224 C1225 1.400 . S
C1225 C1219 1.491 . S
C1225 C1224 1.400 . S
C1225 C1226 1.398 . S
C1226 H1214 0.950 . S
C1226 C1225 1.398 . S
C1226 C1227 1.391 . S
C1227 H1215 0.950 . S
C1227 C1223 1.393 . S
C1227 C1226 1.391 . S
H1228 C1236 0.950 . S
H1229 C1241 0.950 1_655 S
H1230 C1238 0.950 . S
H1231 C1240 0.950 . S
H1232 C1242 0.950 . S
H1233 C1244 0.950 . S
H1234 C1246 0.950 . S
H1235 C1247 0.950 1_455 S
C1236 H1228 0.950 . S
C1236 C1237 1.386 . S
C1236 C1238 1.391 . S
C1237 C1236 1.386 . S
C1237 C1241 1.393 . S
C1238 H1230 0.950 . S
C1238 C1236 1.391 . S
C1238 C1239 1.400 . S
C1239 C1238 1.400 . S
C1239 C1240 1.398 1_455 S
C1239 C1245 1.491 1_454 S
C1240 H1231 0.950 . S
C1240 C1239 1.398 1_655 S
C1240 C1241 1.391 1_655 S
C1241 H1229 0.950 1_455 S
C1241 C1237 1.393 . S
C1241 C1240 1.391 1_455 S
C1242 H1232 0.950 . S
C1242 C1243 1.386 . S
C1242 C1244 1.391 . S
C1243 C1242 1.386 . S
C1243 C1247 1.393 . S
C1244 H1233 0.950 . S
C1244 C1242 1.391 . S
C1244 C1245 1.400 . S
C1245 C1239 1.491 1_656 S
C1245 C1244 1.400 . S
C1245 C1246 1.398 1_655 S
C1246 H1234 0.950 . S
C1246 C1245 1.398 1_455 S
C1246 C1247 1.391 1_455 S
C1247 H1235 0.950 1_655 S
C1247 C1243 1.393 . S
C1247 C1246 1.391 1_655 S
H1248 C1256 0.950 . S
H1249 C1261 0.950 . S
H1250 C1258 0.950 . S
H1251 C1260 0.950 . S
H1252 C1262 0.950 . S
H1253 C1264 0.950 . S
H1254 C1266 0.950 . S
H1255 C1267 0.950 . S
C1256 H1248 0.950 . S
C1256 C1257 1.386 . S
C1256 C1258 1.391 . S
C1257 C1256 1.386 . S
C1257 C1261 1.393 . S
C1258 H1250 0.950 . S
C1258 C1256 1.391 . S
C1258 C1259 1.400 . S
C1259 C1258 1.400 . S
C1259 C1260 1.398 . S
C1259 C1265 1.491 . S
C1260 H1251 0.950 . S
C1260 C1259 1.398 . S
C1260 C1261 1.391 . S
C1261 H1249 0.950 . S
C1261 C1257 1.393 . S
C1261 C1260 1.391 . S
C1262 H1252 0.950 . S
C1262 C1263 1.386 . S
C1262 C1264 1.391 . S
C1263 C1262 1.386 . S
C1263 C1267 1.393 . S
C1264 H1253 0.950 . S
C1264 C1262 1.391 . S
C1264 C1265 1.400 . S
C1265 C1259 1.491 . S
C1265 C1264 1.400 . S
C1265 C1266 1.398 . S
C1266 H1254 0.950 . S
C1266 C1265 1.398 . S
C1266 C1267 1.391 . S
C1267 H1255 0.950 . S
C1267 C1263 1.393 . S
C1267 C1266 1.391 . S
H1268 C1276 0.950 . S
H1269 C1281 0.950 . S
H1270 C1278 0.950 . S
H1271 C1280 0.950 . S
H1272 C1282 0.950 . S
H1273 C1284 0.950 . S
H1274 C1286 0.950 . S
H1275 C1287 0.950 . S
C1276 H1268 0.950 . S
C1276 C1277 1.386 . S
C1276 C1278 1.391 . S
C1277 C1276 1.386 . S
C1277 C1281 1.393 . S
C1278 H1270 0.950 . S
C1278 C1276 1.391 . S
C1278 C1279 1.400 . S
C1279 C1278 1.400 . S
C1279 C1280 1.398 . S
C1279 C1285 1.491 . S
C1280 H1271 0.950 . S
C1280 C1279 1.398 . S
C1280 C1281 1.391 . S
C1281 H1269 0.950 . S
C1281 C1277 1.393 . S
C1281 C1280 1.391 . S
C1282 H1272 0.950 . S
C1282 C1283 1.386 . S
C1282 C1284 1.391 . S
C1283 C1282 1.386 . S
C1283 C1287 1.393 . S
C1284 H1273 0.950 . S
C1284 C1282 1.391 . S
C1284 C1285 1.400 . S
C1285 C1279 1.491 . S
C1285 C1284 1.400 . S
C1285 C1286 1.398 . S
C1286 H1274 0.950 . S
C1286 C1285 1.398 . S
C1286 C1287 1.391 . S
C1287 H1275 0.950 . S
C1287 C1283 1.393 . S
C1287 C1286 1.391 . S
H1288 C1296 0.950 1_655 S
H1289 C1301 0.950 . S
H1290 C1298 0.950 . S
H1291 C1300 0.950 1_554 S
H1292 C1302 0.950 1_455 S
H1293 C1304 0.950 . S
H1294 C1306 0.950 1_556 S
H1295 C1307 0.950 . S
C1296 H1288 0.950 1_455 S
C1296 C1297 1.386 . S
C1296 C1298 1.391 1_455 S
C1297 C1296 1.386 . S
C1297 C1301 1.393 . S
C1298 H1290 0.950 . S
C1298 C1296 1.391 1_655 S
C1298 C1299 1.400 1_655 S
C1299 C1298 1.400 1_455 S
C1299 C1300 1.398 . S
C1299 C1305 1.491 1_446 S
C1300 H1291 0.950 1_556 S
C1300 C1299 1.398 . S
C1300 C1301 1.391 . S
C1301 H1289 0.950 . S
C1301 C1297 1.393 . S
C1301 C1300 1.391 . S
C1302 H1292 0.950 1_655 S
C1302 C1303 1.386 . S
C1302 C1304 1.391 1_655 S
C1303 C1302 1.386 . S
C1303 C1307 1.393 . S
C1304 H1293 0.950 . S
C1304 C1302 1.391 1_455 S
C1304 C1305 1.400 1_455 S
C1305 C1299 1.491 1_664 S
C1305 C1304 1.400 1_655 S
C1305 C1306 1.398 . S
C1306 H1294 0.950 1_554 S
C1306 C1305 1.398 . S
C1306 C1307 1.391 . S
C1307 H1295 0.950 . S
C1307 C1303 1.393 . S
C1307 C1306 1.391 . S
H1308 C1316 0.950 . S
H1309 C1321 0.950 . S
H1310 C1318 0.950 . S
H1311 C1320 0.950 . S
H1312 C1322 0.950 . S
H1313 C1324 0.950 . S
H1314 C1326 0.950 . S
H1315 C1327 0.950 . S
C1316 H1308 0.950 . S
C1316 C1317 1.386 . S
C1316 C1318 1.391 1_545 S
C1317 C1316 1.386 . S
C1317 C1321 1.393 . S
C1318 H1310 0.950 . S
C1318 C1316 1.391 1_565 S
C1318 C1319 1.400 1_565 S
C1319 C1318 1.400 1_545 S
C1319 C1320 1.398 . S
C1319 C1325 1.491 1_545 S
C1320 H1311 0.950 . S
C1320 C1319 1.398 . S
C1320 C1321 1.391 . S
C1321 H1309 0.950 . S
C1321 C1317 1.393 . S
C1321 C1320 1.391 . S
C1322 H1312 0.950 . S
C1322 C1323 1.386 . S
C1322 C1324 1.391 1_565 S
C1323 C1322 1.386 . S
C1323 C1327 1.393 . S
C1324 H1313 0.950 . S
C1324 C1322 1.391 1_545 S
C1324 C1325 1.400 1_545 S
C1325 C1319 1.491 1_565 S
C1325 C1324 1.400 1_565 S
C1325 C1326 1.398 . S
C1326 H1314 0.950 . S
C1326 C1325 1.398 . S
C1326 C1327 1.391 . S
C1327 H1315 0.950 . S
C1327 C1323 1.393 . S
C1327 C1326 1.391 . S
C377 C18 1.311 . S
C383 C248 1.316 . S
C397 C41 1.320 . S
C403 C271 1.315 . S
C417 C64 1.319 . S
C423 C202 1.313 . S
C437 C87 1.313 . S
C443 C225 1.318 . S
C457 C110 1.316 . S
C463 C340 1.320 . S
C477 C133 1.313 . S
C483 C363 1.310 . S
C497 C156 1.316 . S
C503 C294 1.311 . S
C517 C179 1.311 . S
C523 C317 1.317 . S
C537 C224 1.058 . S
C543 C21 1.046 . S
C557 C247 1.067 . S
C563 C44 1.056 . S
C577 C270 1.058 . S
C583 C67 1.047 . S
C597 C201 1.064 . S
C603 C90 1.057 . S
C617 C113 1.048 . S
C623 C316 1.059 . S
C637 C339 1.074 . S
C643 C136 1.070 . S
C657 C362 1.073 . S
C663 C159 1.066 . S
C677 C293 1.061 . S
C683 C182 1.052 . S
C697 C40 1.058 . S
C703 C205 1.047 . S
C717 C228 1.045 . S
C723 C63 1.058 . S
C737 C251 1.065 . S
C743 C86 1.073 . S
C757 C274 1.071 . S
C763 C17 1.075 . S
C777 C297 1.061 . S
C783 C132 1.070 . S
C797 C155 1.058 . S
C803 C320 1.046 . S
C817 C178 1.071 . S
C823 C343 1.062 . S
C837 C366 1.063 . S
C843 C109 1.071 . S
C857 C19 1.002 . S
C863 C361 1.000 . S
C877 C42 0.997 . S
C883 C108 0.998 . S
C897 C315 1.022 1_455 S
C903 C65 0.952 . S
C917 C154 1.020 . S
C923 C88 0.978 . S
C937 C111 0.983 . S
C943 C269 1.001 . S
C957 C134 0.955 . S
C963 C16 1.026 . S
C977 C223 1.023 1_655 S
C983 C157 0.952 . S
C997 C62 1.026 . S
C1003 C180 0.961 . S
C1017 C203 0.978 . S
C1023 C177 0.984 1_655 S
C1037 C226 0.983 . S
C1043 C292 1.001 . S
C1057 C131 1.001 . S
C1063 C249 1.002 . S
C1077 C338 1.018 . S
C1083 C272 0.955 . S
C1097 C295 1.002 . S
C1103 C85 1.000 1_455 S
C1117 C318 0.991 . S
C1123 C200 1.013 . S
C1137 C341 0.958 . S
C1143 C39 1.015 . S
C1157 C246 1.010 . S
C1163 C364 0.995 . S
C1177 C20 2.048 . S
C1183 C296 2.048 . S
C1197 C43 2.033 . S
C1203 C135 2.033 . S
C1217 C66 2.040 . S
C1223 C342 2.040 . S
C1237 C181 2.033 . S
C1243 C89 2.033 . S
C1257 C112 2.034 . S
C1263 C204 2.034 . S
C1277 C250 2.034 . S
C1283 C158 2.034 . S
C1297 C227 2.036 . S
C1303 C319 2.036 . S
C1317 C365 2.034 . S
C1323 C273 2.034 . S
