# Generated by pormake.
# Topology und, (4)-cn, num edge types: 1
# Building blocks:
#     Node 0, Type 0, BuildingBlock: KUFVIS_clean_sbu_0, # of connection points: 4
#     Node 1, Type 0, BuildingBlock: KUFVIS_clean_sbu_0, # of connection points: 4
#     Node 2, Type 0, BuildingBlock: KUFVIS_clean_sbu_0, # of connection points: 4
#     Node 3, Type 0, BuildingBlock: KUFVIS_clean_sbu_0, # of connection points: 4
#     Node 4, Type 0, BuildingBlock: KUFVIS_clean_sbu_0, # of connection points: 4
#     Node 5, Type 0, BuildingBlock: KUFVIS_clean_sbu_0, # of connection points: 4
#     Node 6, Type 0, BuildingBlock: KUFVIS_clean_sbu_0, # of connection points: 4
#     Node 7, Type 0, BuildingBlock: KUFVIS_clean_sbu_0, # of connection points: 4
#     Node 8, Type 0, BuildingBlock: KUFVIS_clean_sbu_0, # of connection points: 4
#     Node 9, Type 0, BuildingBlock: KUFVIS_clean_sbu_0, # of connection points: 4
#     Node 10, Type 0, BuildingBlock: KUFVIS_clean_sbu_0, # of connection points: 4
#     Node 11, Type 0, BuildingBlock: KUFVIS_clean_sbu_0, # of connection points: 4
#     Node 12, Type 0, BuildingBlock: KUFVIS_clean_sbu_0, # of connection points: 4
#     Node 13, Type 0, BuildingBlock: KUFVIS_clean_sbu_0, # of connection points: 4
#     Node 14, Type 0, BuildingBlock: KUFVIS_clean_sbu_0, # of connection points: 4
#     Node 15, Type 0, BuildingBlock: KUFVIS_clean_sbu_0, # of connection points: 4
#     Edge 16, Type (0, 0), BuildingBlock: OJICUG_clean_linker_0, # of connection points: 2
#     Edge 17, Type (0, 0), BuildingBlock: OJICUG_clean_linker_0, # of connection points: 2
#     Edge 18, Type (0, 0), BuildingBlock: OJICUG_clean_linker_0, # of connection points: 2
#     Edge 19, Type (0, 0), BuildingBlock: OJICUG_clean_linker_0, # of connection points: 2
#     Edge 20, Type (0, 0), BuildingBlock: OJICUG_clean_linker_0, # of connection points: 2
#     Edge 21, Type (0, 0), BuildingBlock: OJICUG_clean_linker_0, # of connection points: 2
#     Edge 22, Type (0, 0), BuildingBlock: OJICUG_clean_linker_0, # of connection points: 2
#     Edge 23, Type (0, 0), BuildingBlock: OJICUG_clean_linker_0, # of connection points: 2
#     Edge 24, Type (0, 0), BuildingBlock: OJICUG_clean_linker_0, # of connection points: 2
#     Edge 25, Type (0, 0), BuildingBlock: OJICUG_clean_linker_0, # of connection points: 2
#     Edge 26, Type (0, 0), BuildingBlock: OJICUG_clean_linker_0, # of connection points: 2
#     Edge 27, Type (0, 0), BuildingBlock: OJICUG_clean_linker_0, # of connection points: 2
#     Edge 28, Type (0, 0), BuildingBlock: OJICUG_clean_linker_0, # of connection points: 2
#     Edge 29, Type (0, 0), BuildingBlock: OJICUG_clean_linker_0, # of connection points: 2
#     Edge 30, Type (0, 0), BuildingBlock: OJICUG_clean_linker_0, # of connection points: 2
#     Edge 31, Type (0, 0), BuildingBlock: OJICUG_clean_linker_0, # of connection points: 2
#     Edge 32, Type (0, 0), BuildingBlock: OJICUG_clean_linker_0, # of connection points: 2
#     Edge 33, Type (0, 0), BuildingBlock: OJICUG_clean_linker_0, # of connection points: 2
#     Edge 34, Type (0, 0), BuildingBlock: OJICUG_clean_linker_0, # of connection points: 2
#     Edge 35, Type (0, 0), BuildingBlock: OJICUG_clean_linker_0, # of connection points: 2
#     Edge 36, Type (0, 0), BuildingBlock: OJICUG_clean_linker_0, # of connection points: 2
#     Edge 37, Type (0, 0), BuildingBlock: OJICUG_clean_linker_0, # of connection points: 2
#     Edge 38, Type (0, 0), BuildingBlock: OJICUG_clean_linker_0, # of connection points: 2
#     Edge 39, Type (0, 0), BuildingBlock: OJICUG_clean_linker_0, # of connection points: 2
#     Edge 40, Type (0, 0), BuildingBlock: OJICUG_clean_linker_0, # of connection points: 2
#     Edge 41, Type (0, 0), BuildingBlock: OJICUG_clean_linker_0, # of connection points: 2
#     Edge 42, Type (0, 0), BuildingBlock: OJICUG_clean_linker_0, # of connection points: 2
#     Edge 43, Type (0, 0), BuildingBlock: OJICUG_clean_linker_0, # of connection points: 2
#     Edge 44, Type (0, 0), BuildingBlock: OJICUG_clean_linker_0, # of connection points: 2
#     Edge 45, Type (0, 0), BuildingBlock: OJICUG_clean_linker_0, # of connection points: 2
#     Edge 46, Type (0, 0), BuildingBlock: OJICUG_clean_linker_0, # of connection points: 2
#     Edge 47, Type (0, 0), BuildingBlock: OJICUG_clean_linker_0, # of connection points: 2
# Relax obj value: 0.021
# Max RMSD: 0.090
# Mean RMSD: 0.078
data_MOF--net-und--node1-KUFVIS_clean_sbu_0--edge1-OJICUG_clean_linker_0
_symmetry_space_group_name_H-M    P1
_symmetry_Int_Tables_number       1
_symmetry_cell_setting            triclinic
loop_
_symmetry_equiv_pos_as_xyz
'x, y, z'
_cell_length_a     43.120194
_cell_length_b     43.212059
_cell_length_c     16.092242
_cell_angle_alpha  92.518275
_cell_angle_beta   92.364313
_cell_angle_gamma 90.343713
loop_
_atom_site_label
_atom_site_type_symbol
_atom_site_fract_x
_atom_site_fract_y
_atom_site_fract_z
_atom_type_partial_charge
Mn0 Mn 0.2616 0.34283 0.02543 0.0
Mn1 Mn 0.22968 0.36888 0.84692 0.0
C2 C 0.26484 0.31417 0.90206 0.0
C3 C 0.25856 0.31268 0.14258 0.0
C4 C 0.29159 0.39218 0.91953 0.0
O5 O 0.23199 0.37577 0.06954 0.0
O6 O 0.21477 0.39298 0.9458 0.0
C7 C 0.1652 0.34909 0.87496 0.0
N8 N 0.19043 0.3485 0.82671 0.0
C9 C 0.16402 0.31487 0.72317 0.0
C10 C 0.1377 0.3153 0.77153 0.0
C11 C 0.13833 0.33244 0.84781 0.0
C12 C 0.19009 0.33202 0.75325 0.0
H13 H 0.16558 0.36212 0.93379 0.0
C14 C 0.21586 0.39419 0.02572 0.0
O15 O 0.2791 0.33475 0.13991 0.0
O16 O 0.23892 0.30953 0.07979 0.0
N17 N 0.24161 0.34766 0.74629 0.0
C18 C 0.26928 0.34869 0.7085 0.0
C19 C 0.27269 0.33232 0.63211 0.0
C20 C 0.24757 0.31523 0.59505 0.0
C21 C 0.2192 0.31485 0.63452 0.0
C22 C 0.21709 0.33185 0.71024 0.0
H23 H 0.28875 0.3615 0.73704 0.0
O24 O 0.2849 0.31035 0.96283 0.0
O25 O 0.24358 0.33482 0.91474 0.0
O26 O 0.29104 0.3771 0.98645 0.0
O27 O 0.27025 0.39009 0.86206 0.0
C28 C 0.1931 0.29779 0.60251 0.0
C29 C 0.16556 0.29774 0.64688 0.0
H30 H 0.11697 0.30238 0.751 0.0
H31 H 0.11815 0.33277 0.88566 0.0
H32 H 0.2947 0.33267 0.60218 0.0
H33 H 0.25041 0.30232 0.53664 0.0
H34 H 0.19409 0.28431 0.54432 0.0
H35 H 0.14576 0.28425 0.6221 0.0
Mn36 Mn 0.93484 0.01528 0.26657 0.0
Mn37 Mn 0.90965 0.04874 0.44464 0.0
C38 C 0.9636 0.01186 0.38977 0.0
C39 C 0.96505 0.0186 0.14938 0.0
C40 C 0.88354 0.98779 0.36921 0.0
O41 O 0.90196 0.04508 0.22347 0.0
O42 O 0.88854 0.06731 0.34627 0.0
C43 C 0.93618 0.11129 0.42553 0.0
N44 N 0.93323 0.08574 0.47127 0.0
C45 C 0.96712 0.10789 0.58105 0.0
C46 C 0.97004 0.13467 0.53576 0.0
C47 C 0.9546 0.13631 0.45751 0.0
C48 C 0.94824 0.08379 0.5463 0.0
H49 H 0.92476 0.11248 0.36485 0.0
C50 C 0.88654 0.06472 0.26642 0.0
O51 O 0.94295 0.99805 0.1516 0.0
O52 O 0.96821 0.03799 0.21269 0.0
N53 N 0.92864 0.03346 0.54441 0.0
C54 C 0.92558 1.00507 0.57697 0.0
C55 C 0.94064 0.99914 0.65361 0.0
C56 C 0.95869 0.02244 0.69608 0.0
C57 C 0.96147 0.05149 0.66147 0.0
C58 C 0.94564 0.05617 0.58531 0.0
H59 H 0.91216 0.98693 0.54412 0.0
O60 O 0.96739 0.99183 0.32884 0.0
O61 O 0.94305 0.0331 0.37697 0.0
O62 O 0.90048 0.98628 0.30555 0.0
O63 O 0.88492 0.01027 0.4237 0.0
C64 C 0.97995 0.07573 0.69861 0.0
C65 C 0.98283 0.10388 0.65833 0.0
H66 H 0.98442 0.15392 0.55991 0.0
H67 H 0.95704 0.15675 0.42171 0.0
H68 H 0.93857 0.97657 0.67955 0.0
H69 H 0.97061 0.01764 0.75465 0.0
H70 H 0.99249 0.07275 0.75741 0.0
H71 H 0.99757 0.12213 0.68675 0.0
Mn72 Mn 0.2638 0.69275 0.51883 0.0
Mn73 Mn 0.22535 0.6684 0.68225 0.0
C74 C 0.2658 0.72147 0.64195 0.0
C75 C 0.26182 0.72258 0.40082 0.0
C76 C 0.28692 0.6412 0.63 0.0
O77 O 0.23426 0.66026 0.46599 0.0
O78 O 0.20781 0.64764 0.57777 0.0
C79 C 0.16404 0.69577 0.64263 0.0
N80 N 0.18899 0.69282 0.69631 0.0
C81 C 0.16658 0.72738 0.79834 0.0
C82 C 0.14054 0.73061 0.74437 0.0
C83 C 0.13931 0.71479 0.66613 0.0
C84 C 0.19044 0.70797 0.77171 0.0
H85 H 0.16306 0.68374 0.58231 0.0
C86 C 0.21291 0.64529 0.49982 0.0
O87 O 0.2825 0.70095 0.4092 0.0
O88 O 0.24203 0.72562 0.45852 0.0
N89 N 0.23976 0.68688 0.78731 0.0
C90 C 0.26728 0.68274 0.82995 0.0
C91 C 0.27266 0.6978 0.9084 0.0
C92 C 0.24964 0.71677 0.94246 0.0
C93 C 0.22139 0.72043 0.8978 0.0
C94 C 0.21726 0.70469 0.82012 0.0
H95 H 0.28512 0.66829 0.804 0.0
O96 O 0.28694 0.72513 0.58822 0.0
O97 O 0.2441 0.70125 0.62169 0.0
O98 O 0.29147 0.65845 0.56866 0.0
O99 O 0.26277 0.64299 0.67341 0.0
C100 C 0.19739 0.73956 0.92659 0.0
C101 C 0.17004 0.74309 0.87682 0.0
H102 H 0.12149 0.74539 0.76206 0.0
H103 H 0.11936 0.7173 0.62396 0.0
H104 H 0.29456 0.69491 0.94237 0.0
H105 H 0.25401 0.72861 1.0026 0.0
H106 H 0.19993 0.75203 0.98641 0.0
H107 H 0.15196 0.75824 0.89909 0.0
Mn108 Mn 0.5857 0.01463 0.77433 0.0
Mn109 Mn 0.61097 0.05246 0.61105 0.0
C110 C 0.55724 0.01276 0.65088 0.0
C111 C 0.55546 0.01713 0.89211 0.0
C112 C 0.63717 0.99063 0.66295 0.0
O113 O 0.61878 0.04351 0.82746 0.0
O114 O 0.63205 0.06947 0.71563 0.0
C115 C 0.58441 0.11399 0.65179 0.0
N116 N 0.58703 0.08911 0.59771 0.0
C117 C 0.55243 0.11187 0.49673 0.0
C118 C 0.54954 0.13785 0.55112 0.0
C119 C 0.56555 0.13888 0.62904 0.0
C120 C 0.57168 0.08785 0.52263 0.0
H121 H 0.59657 0.1148 0.71189 0.0
C122 C 0.63442 0.06431 0.79348 0.0
O123 O 0.57688 0.99622 0.88379 0.0
O124 O 0.5529 0.03694 0.83461 0.0
N125 N 0.59239 0.03848 0.50577 0.0
C126 C 0.59655 0.01116 0.46217 0.0
C127 C 0.58148 1.00609 0.38365 0.0
C128 C 0.56249 0.02921 0.35051 0.0
C129 C 0.55891 0.05729 0.39603 0.0
C130 C 0.5747 0.06112 0.47367 0.0
H131 H 0.61101 0.99326 0.48739 0.0
O132 O 0.55307 0.99191 0.70483 0.0
O133 O 0.57768 0.03423 0.67128 0.0
O134 O 0.61976 0.98642 0.7244 0.0
O135 O 0.63575 0.0147 0.6195 0.0
C136 C 0.53984 0.0814 0.36808 0.0
C137 C 0.53655 0.10864 0.41847 0.0
H138 H 0.53489 0.15703 0.534 0.0
H139 H 0.5633 0.15878 0.67153 0.0
H140 H 0.58435 0.98435 0.34894 0.0
H141 H 0.55063 0.02508 0.29033 0.0
H142 H 0.52728 0.07906 0.30841 0.0
H143 H 0.52149 0.12684 0.39678 0.0
Mn144 Mn 0.75945 0.69246 0.01462 0.0
Mn145 Mn 0.79145 0.66686 0.19351 0.0
C146 C 0.75578 0.72113 0.13786 0.0
C147 C 0.76228 0.72264 0.89749 0.0
C148 C 0.72993 0.64282 0.12045 0.0
O149 O 0.78948 0.65993 0.97081 0.0
O150 O 0.80646 0.64275 0.09479 0.0
C151 C 0.8558 0.68697 0.16508 0.0
N152 N 0.83059 0.68749 0.21341 0.0
C153 C 0.85688 0.72133 0.31665 0.0
C154 C 0.88317 0.72099 0.26819 0.0
C155 C 0.8826 0.70378 0.19203 0.0
C156 C 0.83088 0.70403 0.28676 0.0
H157 H 0.85546 0.67389 0.10635 0.0
C158 C 0.80556 0.64155 0.01487 0.0
O159 O 0.74198 0.70033 0.89995 0.0
O160 O 0.78178 0.72604 0.96051 0.0
N161 N 0.77945 0.68814 0.29401 0.0
C162 C 0.7518 0.68704 0.33188 0.0
C163 C 0.74835 0.70346 0.40817 0.0
C164 C 0.77341 0.72068 0.44505 0.0
C165 C 0.80176 0.72116 0.4055 0.0
C166 C 0.80391 0.7041 0.32988 0.0
H167 H 0.73239 0.67414 0.30344 0.0
O168 O 0.73568 0.72465 0.07702 0.0
O169 O 0.77728 0.70073 0.12538 0.0
O170 O 0.73049 0.65773 0.05326 0.0
O171 O 0.75099 0.64539 0.1786 0.0
C172 C 0.82779 0.73837 0.43732 0.0
C173 C 0.85531 0.73851 0.39284 0.0
H174 H 0.90385 0.73402 0.28857 0.0
H175 H 0.90276 0.70351 0.1541 0.0
H176 H 0.72636 0.70305 0.43815 0.0
H177 H 0.77054 0.73364 0.50339 0.0
H178 H 0.82677 0.75189 0.49543 0.0
H179 H 0.87505 0.75212 0.41747 0.0
Mn180 Mn 0.08585 0.0201 0.77516 0.0
Mn181 Mn 0.11142 0.98599 0.59836 0.0
C182 C 0.05728 0.02301 0.65155 0.0
C183 C 0.05547 0.01709 0.89211 0.0
C184 C 0.13728 0.04728 0.67245 0.0
O185 O 0.11881 0.99063 0.81944 0.0
O186 O 0.13234 0.96772 0.69752 0.0
C187 C 0.0847 0.92361 0.61863 0.0
N188 N 0.08786 0.94895 0.57221 0.0
C189 C 0.05412 0.92651 0.46249 0.0
C190 C 0.05104 0.89991 0.50844 0.0
C191 C 0.06628 0.89853 0.58701 0.0
C192 C 0.07301 0.95067 0.49689 0.0
H193 H 0.09591 0.92265 0.67962 0.0
C194 C 0.13427 0.97076 0.77733 0.0
O195 O 0.07751 0.03771 0.88963 0.0
O196 O 0.05249 0.99748 0.82927 0.0
N197 N 0.09264 1.00096 0.49794 0.0
C198 C 0.09573 0.02926 0.46487 0.0
C199 C 0.08078 0.03498 0.38794 0.0
C200 C 0.0628 0.01158 0.34574 0.0
C201 C 0.05997 0.98263 0.38088 0.0
C202 C 0.07571 0.97815 0.45729 0.0
H203 H 0.10908 0.0475 0.49753 0.0
O204 O 0.05333 0.04322 0.71197 0.0
O205 O 0.07786 1.00187 0.66512 0.0
O206 O 0.12015 0.04905 0.73572 0.0
O207 O 0.13613 0.02453 0.61876 0.0
C208 C 0.04151 0.95832 0.34408 0.0
C209 C 0.03853 0.9303 0.38494 0.0
H210 H 0.03664 0.88063 0.48459 0.0
H211 H 0.06368 0.87826 0.62335 0.0
H212 H 0.08287 0.05748 0.3616 0.0
H213 H 0.05094 0.01622 0.28697 0.0
H214 H 0.02902 0.96115 0.28512 0.0
H215 H 0.02379 0.912 0.3568 0.0
Mn216 Mn 0.75434 0.34241 0.52315 0.0
Mn217 Mn 0.78854 0.37073 0.35718 0.0
C218 C 0.75242 0.31491 0.39823 0.0
C219 C 0.75817 0.3121 0.63966 0.0
C220 C 0.7259 0.3925 0.41503 0.0
O221 O 0.78275 0.37575 0.57604 0.0
O222 O 0.8044 0.39299 0.46154 0.0
C223 C 0.85235 0.34942 0.3976 0.0
N224 N 0.82711 0.34976 0.34389 0.0
C225 C 0.85218 0.3161 0.24458 0.0
C226 C 0.87849 0.31557 0.29862 0.0
C227 C 0.87856 0.33228 0.3755 0.0
C228 C 0.8268 0.33371 0.2698 0.0
H229 H 0.85249 0.36206 0.45699 0.0
C230 C 0.80135 0.39347 0.54051 0.0
O231 O 0.73675 0.33304 0.63266 0.0
O232 O 0.77782 0.30992 0.5812 0.0
N233 N 0.77604 0.35096 0.252 0.0
C234 C 0.7488 0.35361 0.20709 0.0
C235 C 0.74474 0.3378 0.12922 0.0
C236 C 0.76895 0.31981 0.09762 0.0
C237 C 0.79713 0.31813 0.14379 0.0
C238 C 0.79984 0.33452 0.22088 0.0
H239 H 0.73034 0.3677 0.23044 0.0
O240 O 0.73212 0.30965 0.45321 0.0
O241 O 0.77329 0.33604 0.41808 0.0
O242 O 0.72454 0.37557 0.47809 0.0
O243 O 0.74847 0.39232 0.36584 0.0
C244 C 0.8225 0.30055 0.11676 0.0
C245 C 0.84998 0.29947 0.1672 0.0
H246 H 0.8987 0.30226 0.28199 0.0
H247 H 0.89873 0.33187 0.41773 0.0
H248 H 0.72301 0.33948 0.09367 0.0
H249 H 0.76566 0.30744 0.03784 0.0
H250 H 0.82103 0.28754 0.05761 0.0
H251 H 0.86923 0.28563 0.14611 0.0
Mn252 Mn 0.43572 0.02094 0.26902 0.0
Mn253 Mn 0.41039 0.98319 0.43235 0.0
C254 C 0.46402 0.02304 0.39272 0.0
C255 C 0.46609 0.01844 0.15148 0.0
C256 C 0.38396 0.04482 0.37958 0.0
O257 O 0.40284 0.99185 0.21584 0.0
O258 O 0.38954 0.96592 0.32773 0.0
C259 C 0.43729 0.92173 0.39257 0.0
N260 N 0.43449 0.94668 0.44635 0.0
C261 C 0.46906 0.92422 0.54794 0.0
C262 C 0.47214 0.89818 0.49387 0.0
C263 C 0.45623 0.89697 0.4158 0.0
C264 C 0.44973 0.94812 0.52157 0.0
H265 H 0.42522 0.92078 0.33235 0.0
C266 C 0.38728 0.97099 0.24981 0.0
O267 O 0.44456 0.03927 0.15949 0.0
O268 O 0.46869 0.99872 0.20919 0.0
N269 N 0.42877 0.99741 0.53766 0.0
C270 C 0.42447 0.02478 0.58086 0.0
C271 C 0.43943 0.03004 0.65945 0.0
C272 C 0.45847 1.00706 0.69306 0.0
C273 C 0.46222 0.97893 0.64792 0.0
C274 C 0.44653 0.9749 0.57019 0.0
H275 H 0.40996 0.04258 0.55528 0.0
O276 O 0.46817 0.04386 0.33867 0.0
O277 O 0.44368 1.00149 0.37227 0.0
O278 O 0.40146 0.04904 0.31833 0.0
O279 O 0.38542 0.02081 0.42325 0.0
C280 C 0.48136 0.95495 0.67634 0.0
C281 C 0.48483 0.92764 0.62632 0.0
H282 H 0.48686 0.87911 0.51135 0.0
H283 H 0.45863 0.87702 0.37355 0.0
H284 H 0.43643 0.05183 0.69385 0.0
H285 H 0.47024 0.01134 0.75329 0.0
H286 H 0.49384 0.95743 0.73611 0.0
H287 H 0.49994 0.90955 0.64836 0.0
Mn288 Mn 0.76129 0.84331 0.52394 0.0
Mn289 Mn 0.72901 0.86943 0.34603 0.0
C290 C 0.76474 0.81499 0.40011 0.0
C291 C 0.75871 0.81283 0.64056 0.0
C292 C 0.79066 0.89321 0.41858 0.0
O293 O 0.73135 0.87571 0.56881 0.0
O294 O 0.71434 0.89339 0.44541 0.0
C295 C 0.66468 0.84948 0.37537 0.0
N296 N 0.68976 0.84896 0.32657 0.0
C297 C 0.66312 0.81536 0.22342 0.0
C298 C 0.63695 0.8157 0.27236 0.0
C299 C 0.63777 0.8328 0.34872 0.0
C300 C 0.68923 0.83254 0.25303 0.0
H301 H 0.6652 0.86248 0.43425 0.0
C302 C 0.71533 0.89431 0.52532 0.0
O303 O 0.77899 0.83517 0.63819 0.0
O304 O 0.7391 0.80956 0.57774 0.0
N305 N 0.74066 0.84833 0.24496 0.0
C306 C 0.7682 0.84945 0.20654 0.0
C307 C 0.77141 0.83312 0.13 0.0
C308 C 0.74623 0.81599 0.09342 0.0
C309 C 0.71799 0.81553 0.13352 0.0
C310 C 0.71608 0.83247 0.20938 0.0
H311 H 0.7877 0.86228 0.23472 0.0
O312 O 0.78495 0.81132 0.46061 0.0
O313 O 0.74325 0.83534 0.41327 0.0
O314 O 0.79016 0.87819 0.48558 0.0
O315 O 0.76955 0.89074 0.36054 0.0
C316 C 0.69184 0.79842 0.10201 0.0
C317 C 0.66445 0.79829 0.147 0.0
H318 H 0.61619 0.80276 0.25221 0.0
H319 H 0.61771 0.83307 0.38702 0.0
H320 H 0.79332 0.83354 0.09958 0.0
H321 H 0.74891 0.80312 0.03488 0.0
H322 H 0.69268 0.78498 0.04373 0.0
H323 H 0.64461 0.78477 0.12258 0.0
Mn324 Mn 0.43419 0.51656 0.76467 0.0
Mn325 Mn 0.40802 0.54806 0.94394 0.0
C326 C 0.46303 0.51349 0.88752 0.0
C327 C 0.46431 0.52021 0.64739 0.0
C328 C 0.38491 0.48621 0.8703 0.0
O329 O 0.40092 0.54586 0.72153 0.0
O330 O 0.38393 0.56323 0.84569 0.0
C331 C 0.42792 0.61249 0.91759 0.0
N332 N 0.42848 0.58717 0.96513 0.0
C333 C 0.46227 0.61317 0.06901 0.0
C334 C 0.46189 0.63958 0.0214 0.0
C335 C 0.44468 0.63921 0.9453 0.0
C336 C 0.44504 0.58725 0.03836 0.0
H337 H 0.41485 0.61229 0.8589 0.0
C338 C 0.38262 0.56208 0.76577 0.0
O339 O 0.44244 0.49942 0.64977 0.0
O340 O 0.46726 0.5397 0.71058 0.0
N341 N 0.42929 0.53582 0.04399 0.0
C342 C 0.4282 0.5081 0.08105 0.0
C343 C 0.44456 0.50448 0.15726 0.0
C344 C 0.46173 0.52942 0.19485 0.0
C345 C 0.46221 0.55784 0.1561 0.0
C346 C 0.44519 0.56017 0.08057 0.0
H347 H 0.41533 0.48876 0.05209 0.0
O348 O 0.46703 0.49355 0.82651 0.0
O349 O 0.44209 0.53445 0.87536 0.0
O350 O 0.40017 0.48678 0.80352 0.0
O351 O 0.38676 0.50759 0.92776 0.0
C352 C 0.47935 0.58378 0.1887 0.0
C353 C 0.47945 0.6114 0.14508 0.0
H354 H 0.47489 0.66019 0.04237 0.0
H355 H 0.44439 0.65945 0.90802 0.0
H356 H 0.44414 0.48243 0.18662 0.0
H357 H 0.47465 0.52642 0.25311 0.0
H358 H 0.49283 0.58262 0.24676 0.0
H359 H 0.49301 0.63107 0.17029 0.0
Mn360 Mn 0.76509 0.19389 0.01734 0.0
Mn361 Mn 0.73043 0.16592 0.18303 0.0
C362 C 0.76665 0.22164 0.14184 0.0
C363 C 0.76154 0.22407 0.90051 0.0
C364 C 0.79346 0.14432 0.12759 0.0
O365 O 0.73684 0.16048 0.96422 0.0
O366 O 0.71536 0.14308 0.07871 0.0
C367 C 0.66665 0.18646 0.13898 0.0
N368 N 0.69156 0.18655 0.1939 0.0
C369 C 0.66554 0.22038 0.29091 0.0
C370 C 0.63956 0.22046 0.2356 0.0
C371 C 0.64014 0.20345 0.15928 0.0
C372 C 0.69126 0.2029 0.26745 0.0
H373 H 0.66699 0.1736 0.07999 0.0
C374 C 0.71845 0.14256 0.99975 0.0
O375 O 0.78298 0.20316 0.90802 0.0
O376 O 0.74175 0.22626 0.95858 0.0
N377 N 0.74207 0.18619 0.28822 0.0
C378 C 0.76901 0.18389 0.33464 0.0
C379 C 0.77241 0.2 0.41223 0.0
C380 C 0.74784 0.2179 0.44207 0.0
C381 C 0.71995 0.21918 0.39444 0.0
C382 C 0.7179 0.20251 0.31769 0.0
H383 H 0.78772 0.16985 0.31267 0.0
O384 O 0.78713 0.22674 0.08723 0.0
O385 O 0.7458 0.2005 0.12191 0.0
O386 O 0.79475 0.16077 0.06353 0.0
O387 O 0.77084 0.14476 0.17667 0.0
C388 C 0.69424 0.23665 0.41969 0.0
C389 C 0.66708 0.2373 0.36787 0.0
H390 H 0.61912 0.23364 0.25085 0.0
H391 H 0.62023 0.20351 0.11608 0.0
H392 H 0.79391 0.19861 0.44894 0.0
H393 H 0.75061 0.23051 0.50164 0.0
H394 H 0.69521 0.24988 0.47851 0.0
H395 H 0.64756 0.25105 0.3876 0.0
Mn396 Mn 0.08467 0.51399 0.27035 0.0
Mn397 Mn 0.11015 0.55182 0.10733 0.0
C398 C 0.05675 0.51156 0.14609 0.0
C399 C 0.05397 0.51636 0.3873 0.0
C400 C 0.137 0.49047 0.16112 0.0
O401 O 0.11696 0.54359 0.32405 0.0
O402 O 0.13043 0.56949 0.21225 0.0
C403 C 0.08255 0.61307 0.14575 0.0
N404 N 0.08574 0.58807 0.09236 0.0
C405 C 0.05127 0.61006 0.98973 0.0
C406 C 0.04779 0.63615 0.04339 0.0
C407 C 0.06346 0.63762 0.12179 0.0
C408 C 0.07075 0.58639 0.01681 0.0
H409 H 0.09443 0.61423 0.20623 0.0
C410 C 0.1323 0.56468 0.29034 0.0
O411 O 0.0757 0.49571 0.37989 0.0
O412 O 0.05126 0.53592 0.32922 0.0
N413 N 0.09218 0.53727 1.00183 0.0
C414 C 0.09674 0.50982 0.95922 0.0
C415 C 0.08199 0.50428 0.88048 0.0
C416 C 0.06287 0.52705 0.84612 0.0
C417 C 0.05882 0.55524 0.8907 0.0
C418 C 0.07431 0.55956 0.96863 0.0
H419 H 0.1113 0.49218 0.98539 0.0
O420 O 0.05265 0.49069 0.20005 0.0
O421 O 0.07686 0.53329 0.16689 0.0
O422 O 0.11938 0.48618 0.22207 0.0
O423 O 0.13549 0.51445 0.11733 0.0
C424 C 0.03955 0.579 0.86156 0.0
C425 C 0.03573 0.60636 0.9111 0.0
H426 H 0.03294 0.65505 0.02536 0.0
H427 H 0.06075 0.65761 0.16373 0.0
H428 H 0.08521 0.48244 0.84653 0.0
H429 H 0.05126 0.52255 0.78577 0.0
H430 H 0.02722 0.57629 0.80162 0.0
H431 H 0.02051 0.62428 0.88851 0.0
Mn432 Mn 0.25914 0.19192 0.51601 0.0
Mn433 Mn 0.29131 0.16602 0.69433 0.0
C434 C 0.25558 0.22038 0.63963 0.0
C435 C 0.26182 0.22235 0.39924 0.0
C436 C 0.22972 0.14211 0.6216 0.0
O437 O 0.28916 0.1595 0.47156 0.0
O438 O 0.30607 0.14198 0.59521 0.0
C439 C 0.35565 0.18597 0.6652 0.0
N440 N 0.33054 0.18652 0.71386 0.0
C441 C 0.35712 0.22016 0.81705 0.0
C442 C 0.38332 0.21978 0.76825 0.0
C443 C 0.38255 0.20265 0.69194 0.0
C444 C 0.33101 0.20298 0.78736 0.0
H445 H 0.35517 0.17295 0.60637 0.0
C446 C 0.30515 0.14097 0.5153 0.0
O447 O 0.24154 0.20001 0.40155 0.0
O448 O 0.28138 0.22563 0.46218 0.0
N449 N 0.27957 0.18722 0.79518 0.0
C450 C 0.25199 0.18617 0.8334 0.0
C451 C 0.24872 0.20254 0.90985 0.0
C452 C 0.27388 0.21965 0.94654 0.0
C453 C 0.30217 0.22007 0.90662 0.0
C454 C 0.30413 0.20308 0.83084 0.0
H455 H 0.23249 0.17335 0.80512 0.0
O456 O 0.2354 0.22396 0.57901 0.0
O457 O 0.27709 0.20002 0.62673 0.0
O458 O 0.23025 0.15705 0.55444 0.0
O459 O 0.25079 0.14468 0.67975 0.0
C460 C 0.3283 0.23717 0.93823 0.0
C461 C 0.35573 0.23727 0.8934 0.0
H462 H 0.40407 0.23273 0.78847 0.0
H463 H 0.40264 0.20236 0.65376 0.0
H464 H 0.22678 0.20216 0.94012 0.0
H465 H 0.27116 0.23256 0.00501 0.0
H466 H 0.32742 0.25064 0.99647 0.0
H467 H 0.37556 0.25078 0.91789 0.0
Mn468 Mn 0.58514 0.52164 0.27303 0.0
Mn469 Mn 0.61066 0.48752 0.0961 0.0
C470 C 0.55669 0.52477 0.14925 0.0
C471 C 0.55467 0.51875 0.3899 0.0
C472 C 0.63681 0.5486 0.17072 0.0
O473 O 0.61787 0.49191 0.31727 0.0
O474 O 0.63138 0.4691 0.19524 0.0
C475 C 0.58367 0.42521 0.11582 0.0
N476 N 0.58701 0.45056 0.06954 0.0
C477 C 0.55357 0.4282 0.95908 0.0
C478 C 0.55031 0.40159 0.00486 0.0
C479 C 0.56532 0.40016 0.08373 0.0
C480 C 0.57241 0.45232 0.99392 0.0
H481 H 0.59468 0.42423 0.17704 0.0
C482 C 0.63323 0.47201 0.27506 0.0
O483 O 0.57683 0.53924 0.38756 0.0
O484 O 0.55159 0.4992 0.32692 0.0
N485 N 0.59204 0.50263 0.99568 0.0
C486 C 0.59511 0.53101 0.96306 0.0
C487 C 0.58027 0.53683 0.88605 0.0
C488 C 0.56243 0.51345 0.84331 0.0
C489 C 0.5596 0.48443 0.87803 0.0
C490 C 0.57521 0.47985 0.95456 0.0
H491 H 0.60834 0.54923 0.99615 0.0
O492 O 0.5528 0.54498 0.20971 0.0
O493 O 0.57714 0.50351 0.16285 0.0
O494 O 0.61967 0.55041 0.23396 0.0
O495 O 0.63553 0.52592 0.11683 0.0
C496 C 0.54123 0.46014 0.84074 0.0
C497 C 0.53817 0.43207 0.88131 0.0
H498 H 0.53595 0.38233 0.98066 0.0
H499 H 0.56257 0.37988 0.11996 0.0
H500 H 0.58236 0.55939 0.86004 0.0
H501 H 0.55067 0.51816 0.78446 0.0
H502 H 0.52886 0.46303 0.78165 0.0
H503 H 0.52348 0.41379 0.85282 0.0
Mn504 Mn 0.25628 0.84177 0.02484 0.0
Mn505 Mn 0.29035 0.87057 0.85926 0.0
C506 C 0.25396 0.81482 0.8992 0.0
C507 C 0.26004 0.81099 0.14059 0.0
C508 C 0.22782 0.89229 0.91792 0.0
O509 O 0.2849 0.87484 0.0783 0.0
O510 O 0.30633 0.89249 0.96399 0.0
C511 C 0.35408 0.84888 0.89896 0.0
N512 N 0.3288 0.84943 0.84542 0.0
C513 C 0.35349 0.81556 0.74588 0.0
C514 C 0.37984 0.8148 0.79974 0.0
C515 C 0.38011 0.83151 0.87664 0.0
C516 C 0.32828 0.83338 0.77132 0.0
H517 H 0.35438 0.8615 0.95838 0.0
C518 C 0.30343 0.8927 0.04299 0.0
O519 O 0.23878 0.83211 0.13417 0.0
O520 O 0.27964 0.80888 0.082 0.0
N521 N 0.27772 0.85118 0.75371 0.0
C522 C 0.2506 0.85437 0.70856 0.0
C523 C 0.24642 0.83876 0.63046 0.0
C524 C 0.27037 0.82043 0.59885 0.0
C525 C 0.29847 0.81827 0.64518 0.0
C526 C 0.30133 0.8345 0.72248 0.0
H527 H 0.23235 0.86875 0.73187 0.0
O528 O 0.23379 0.8094 0.95438 0.0
O529 O 0.27502 0.83572 0.91938 0.0
O530 O 0.22654 0.87521 0.98073 0.0
O531 O 0.25034 0.89223 0.86859 0.0
C532 C 0.32364 0.8004 0.61803 0.0
C533 C 0.3511 0.799 0.66842 0.0
H534 H 0.39992 0.80132 0.78293 0.0
H535 H 0.40032 0.83093 0.91872 0.0
H536 H 0.22477 0.84085 0.59474 0.0
H537 H 0.26698 0.80821 0.53889 0.0
H538 H 0.32203 0.78747 0.55877 0.0
H539 H 0.3702 0.78498 0.64718 0.0
Mn540 Mn 0.93478 0.52069 0.7655 0.0
Mn541 Mn 0.90955 0.4829 0.92892 0.0
C542 C 0.96339 0.52233 0.88862 0.0
C543 C 0.96486 0.51807 0.64738 0.0
C544 C 0.88364 0.54493 0.87773 0.0
O545 O 0.90152 0.492 0.71257 0.0
O546 O 0.88819 0.46611 0.82447 0.0
C547 C 0.93565 0.42123 0.88726 0.0
N548 N 0.93328 0.44608 0.94161 0.0
C549 C 0.96791 0.42297 0.04191 0.0
C550 C 0.97055 0.39704 0.98724 0.0
C551 C 0.95439 0.3962 0.90953 0.0
C552 C 0.94877 0.44715 0.01649 0.0
H553 H 0.92339 0.42057 0.82731 0.0
C554 C 0.8858 0.47129 0.74664 0.0
O555 O 0.94355 0.5391 0.65598 0.0
O556 O 0.96738 0.49823 0.70481 0.0
N557 N 0.92839 0.49664 0.03409 0.0
C558 C 0.92447 0.52392 0.07804 0.0
C559 C 0.93968 0.52879 0.15644 0.0
C560 C 0.95857 0.50551 0.18911 0.0
C561 C 0.96193 0.47748 0.14324 0.0
C562 C 0.946 0.47384 0.06574 0.0
H563 H 0.9101 0.54196 0.05316 0.0
O564 O 0.9676 0.5432 0.83475 0.0
O565 O 0.94282 0.50098 0.86835 0.0
O566 O 0.90091 0.54903 0.81593 0.0
O567 O 0.885 0.52085 0.92111 0.0
C568 C 0.98089 0.45321 0.17071 0.0
C569 C 0.98393 0.42601 0.12001 0.0
H570 H 0.98511 0.37775 0.00399 0.0
H571 H 0.95645 0.37633 0.86682 0.0
H572 H 0.93699 0.55051 0.19141 0.0
H573 H 0.97054 0.50949 0.2492 0.0
H574 H 0.99355 0.45539 0.23025 0.0
H575 H 0.99891 0.40769 0.14133 0.0
C576 C 0.28123 0.29239 0.27582 0.0
C577 C 0.25889 0.29019 0.20982 0.0
H578 H 0.29984 0.27259 0.38666 0.0
C579 C 0.23781 0.26507 0.2057 0.0
H580 H 0.29792 0.31128 0.28057 0.0
C581 C 0.23903 0.2427 0.26616 0.0
C582 C 0.26138 0.24489 0.33213 0.0
H583 H 0.22043 0.2625 0.15529 0.0
H584 H 0.22235 0.2238 0.2614 0.0
C585 C 0.28244 0.27002 0.33627 0.0
C586 C 0.99496 0.98907 0.5042 0.0
C587 C 0.98702 0.01473 0.45794 0.0
H588 H 0.02322 0.97211 0.6047 0.0
C589 C 1.00311 0.04286 0.47324 0.0
H590 H 0.98303 0.96709 0.49222 0.0
C591 C 0.02615 0.04566 0.53655 0.0
C592 C 0.03406 0.02001 0.58291 0.0
H593 H 0.99782 0.06266 0.43626 0.0
H594 H 0.03804 0.06766 0.5486 0.0
C595 C 0.01798 0.99188 0.56757 0.0
C596 C 0.28807 0.75261 0.76277 0.0
C597 C 0.26267 0.74485 0.70884 0.0
H598 H 0.30475 0.7811 0.86759 0.0
C599 C 0.23495 0.76148 0.7143 0.0
H600 H 0.30981 0.74034 0.75794 0.0
C601 C 0.2321 0.78471 0.77615 0.0
C602 C 0.25741 0.79228 0.83052 0.0
H603 H 0.21551 0.7564 0.67091 0.0
H604 H 0.21032 0.7969 0.7812 0.0
C605 C 0.28528 0.77595 0.82436 0.0
C606 C 0.5121 0.99555 0.08197 0.0
C607 C 0.48837 0.01787 0.08369 0.0
H608 H 0.55205 0.97787 0.0209 0.0
C609 C 0.48732 0.04012 0.02288 0.0
H610 H 0.51373 0.97813 0.12831 0.0
C611 C 0.50947 0.04002 0.96169 0.0
C612 C 0.53319 0.0177 0.95995 0.0
H613 H 0.46951 0.05769 0.02273 0.0
H614 H 0.50783 0.05744 0.91534 0.0
C615 C 0.53425 0.99545 0.02076 0.0
C616 C 0.23899 0.79017 0.26982 0.0
C617 C 0.261 0.78877 0.20813 0.0
H618 H 0.22189 0.77026 0.37818 0.0
C619 C 0.28322 0.76497 0.2092 0.0
H620 H 0.2215 0.80806 0.27053 0.0
C621 C 0.28342 0.74307 0.27088 0.0
C622 C 0.26136 0.74451 0.33255 0.0
H623 H 0.30041 0.76313 0.16208 0.0
H624 H 0.30088 0.72515 0.27043 0.0
C625 C 0.23917 0.76831 0.33127 0.0
C626 C 0.494 0.04551 0.51531 0.0
C627 C 0.48698 0.02014 0.46066 0.0
H628 H 0.52183 0.06253 0.62102 0.0
C629 C 0.50405 0.99275 0.46624 0.0
H630 H 0.48131 0.06697 0.51055 0.0
C631 C 0.52727 0.99033 0.52828 0.0
C632 C 0.5343 0.0157 0.58292 0.0
H633 H 0.49945 0.97331 0.42256 0.0
H634 H 0.53996 0.96887 0.53303 0.0
C635 C 0.51723 0.04309 0.57734 0.0
C636 C 0.23181 0.25205 0.75235 0.0
C637 C 0.25803 0.24374 0.7082 0.0
H638 H 0.21387 0.28071 0.85103 0.0
C639 C 0.28623 0.25952 0.72573 0.0
H640 H 0.20976 0.2404 0.73864 0.0
C641 C 0.28853 0.28259 0.78911 0.0
C642 C 0.26232 0.2909 0.83329 0.0
H643 H 0.30647 0.25398 0.6904 0.0
H644 H 0.31059 0.29423 0.80286 0.0
C645 C 0.2341 0.27515 0.81571 0.0
C646 C 1.00797 0.99579 0.95486 0.0
C647 C 0.0329 0.01713 0.95933 0.0
H648 H 0.96685 0.97965 0.0105 0.0
C649 C 0.03484 0.03929 0.02576 0.0
H650 H 1.0056 0.97852 0.90409 0.0
C651 C 0.01245 0.04004 0.0864 0.0
C652 C 0.98754 0.01868 0.08197 0.0
H653 H 0.05358 0.05617 0.03076 0.0
H654 H 0.01482 0.0573 0.13719 0.0
C655 C 0.98557 0.99654 0.01549 0.0
C656 C 0.73958 0.74273 0.76402 0.0
C657 C 0.76186 0.74508 0.83014 0.0
H658 H 0.72095 0.76238 0.65299 0.0
C659 C 0.7828 0.77031 0.83428 0.0
H660 H 0.72299 0.72375 0.75925 0.0
C661 C 0.78152 0.79264 0.77374 0.0
C662 C 0.75922 0.7903 0.70767 0.0
H663 H 0.80014 0.77299 0.88478 0.0
H664 H 0.7981 0.81162 0.77854 0.0
C665 C 0.73829 0.76506 0.70348 0.0
C666 C 0.73105 0.28349 0.27678 0.0
C667 C 0.75628 0.29203 0.33049 0.0
H668 H 0.71508 0.25439 0.17242 0.0
C669 C 0.78459 0.27646 0.32445 0.0
H670 H 0.70893 0.29502 0.28188 0.0
C671 C 0.788 0.25316 0.26306 0.0
C672 C 0.76277 0.24459 0.20941 0.0
H673 H 0.80398 0.28226 0.36737 0.0
H674 H 0.81013 0.24163 0.25798 0.0
C675 C 0.73447 0.26019 0.21536 0.0
C676 C 0.78242 0.24482 0.77058 0.0
C677 C 0.76046 0.24605 0.83248 0.0
H678 H 0.79903 0.26489 0.66155 0.0
C679 C 0.73796 0.26955 0.83134 0.0
H680 H 0.80012 0.22714 0.77 0.0
C681 C 0.7374 0.29133 0.76958 0.0
C682 C 0.75935 0.29011 0.70765 0.0
H683 H 0.72078 0.27128 0.87854 0.0
H684 H 0.7197 0.30901 0.77019 0.0
C685 C 0.78186 0.26661 0.70878 0.0
C686 C 0.7863 0.76043 0.22373 0.0
C687 C 0.75814 0.74456 0.20626 0.0
H688 H 0.81054 0.79526 0.30076 0.0
C689 C 0.7319 0.75279 0.2504 0.0
H690 H 0.80655 0.75494 0.18843 0.0
C691 C 0.73413 0.77588 0.31375 0.0
C692 C 0.7623 0.79174 0.33129 0.0
H693 H 0.70989 0.74105 0.23673 0.0
H694 H 0.71389 0.78135 0.34914 0.0
C695 C 0.78852 0.78354 0.28705 0.0
C696 C 0.5177 0.49356 0.06456 0.0
C697 C 0.53347 0.52182 0.0806 0.0
H698 H 0.4831 0.46861 0.9885 0.0
C699 C 0.52525 0.54758 0.03496 0.0
H700 H 0.52313 0.47372 0.10124 0.0
C701 C 0.50216 0.54477 0.97175 0.0
C702 C 0.48646 0.51647 0.95562 0.0
H703 H 0.53689 0.56967 0.04761 0.0
H704 H 0.49652 0.56467 0.93551 0.0
C705 C 0.49475 0.4907 1.00107 0.0
C706 C 1.00792 0.53927 0.45667 0.0
C707 C 0.03168 0.51698 0.45511 0.0
H708 H 0.96804 0.55705 0.51788 0.0
C709 C 0.03284 0.49488 0.5163 0.0
H710 H 1.00622 0.55659 0.41006 0.0
C711 C 0.01078 0.49508 0.5777 0.0
C712 C 0.98703 0.51739 0.57932 0.0
H713 H 0.05068 0.47734 0.51659 0.0
H714 H 0.0125 0.47778 0.62433 0.0
C715 C 0.98587 0.5395 0.51812 0.0
C716 C 0.01671 0.54195 0.07312 0.0
C717 C 0.03374 0.51453 0.07834 0.0
H718 H 0.98085 0.56602 0.00672 0.0
C719 C 0.02665 0.48924 0.02346 0.0
H720 H 0.02136 0.56133 0.11699 0.0
C721 C 1.00339 0.49179 0.96158 0.0
C722 C 0.98638 0.51924 0.95635 0.0
H723 H 0.0393 0.46775 0.02795 0.0
H724 H 0.9987 0.47241 0.91774 0.0
C725 C 0.99349 0.54452 0.0112 0.0
C726 C 0.48482 0.49822 0.51347 0.0
C727 C 0.48678 0.52037 0.57994 0.0
H728 H 0.50482 0.4802 0.40205 0.0
C729 C 0.51167 0.54175 0.58431 0.0
H730 H 0.46612 0.48132 0.50851 0.0
C731 C 0.53406 0.541 0.5236 0.0
C732 C 0.53211 0.51882 0.45718 0.0
H733 H 0.51405 0.559 0.63511 0.0
H734 H 0.55279 0.55788 0.52855 0.0
C735 C 0.5072 0.49748 0.45279 0.0
C736 C 0.17535 0.4703 0.06045 0.0
C737 C 0.15923 0.46613 0.13362 0.0
H738 H 0.20543 0.45113 0.97015 0.0
C739 C 0.16363 0.43834 0.17508 0.0
H740 H 0.17297 0.49128 0.02642 0.0
C741 C 0.18305 0.41508 0.14245 0.0
C742 C 0.19784 0.41909 0.06719 0.0
H743 H 0.15169 0.43434 0.23156 0.0
H744 H 0.18557 0.3936 0.17423 0.0
C745 C 0.19407 0.44713 0.0276 0.0
C746 C 0.8293 0.93336 0.47501 0.0
C747 C 0.81631 0.91555 0.40718 0.0
H748 H 0.85983 0.97065 0.51601 0.0
C749 C 0.82647 0.92091 0.32691 0.0
H750 H 0.82173 0.93005 0.5374 0.0
C751 C 0.84895 0.94364 0.31466 0.0
C752 C 0.86113 0.96225 0.3821 0.0
H753 H 0.81688 0.90767 0.27319 0.0
H754 H 0.85605 0.94728 0.25202 0.0
C755 C 0.85107 0.95674 0.46248 0.0
C756 C 0.33864 0.61375 0.61565 0.0
C757 C 0.31113 0.61907 0.65821 0.0
H758 H 0.38299 0.59097 0.61558 0.0
C759 C 0.30708 0.60386 0.73273 0.0
H760 H 0.34252 0.62499 0.5581 0.0
C761 C 0.3301 0.58504 0.7656 0.0
C762 C 0.35785 0.58028 0.72473 0.0
H763 H 0.28631 0.60701 0.76766 0.0
H764 H 0.3262 0.57435 0.82398 0.0
C765 C 0.36173 0.59425 0.64835 0.0
C766 C 0.67838 0.10018 0.98306 0.0
C767 C 0.6982 0.12128 0.94688 0.0
H768 H 0.64275 0.06569 0.9634 0.0
C769 C 0.6973 0.12294 0.85978 0.0
H770 H 0.67842 0.09828 0.04996 0.0
C771 C 0.67668 0.10439 0.81018 0.0
C772 C 0.65657 0.08358 0.84638 0.0
H773 H 0.71213 0.13897 0.8297 0.0
H774 H 0.67647 0.10652 0.74334 0.0
C775 C 0.65786 0.08149 0.93338 0.0
C776 C 0.17399 0.60529 0.30862 0.0
C777 C 0.15321 0.58495 0.34409 0.0
H778 H 0.20918 0.64011 0.32962 0.0
C779 C 0.15247 0.58442 0.43124 0.0
H780 H 0.17525 0.60628 0.24169 0.0
C781 C 0.17187 0.60397 0.48173 0.0
C782 C 0.19263 0.62433 0.44624 0.0
H783 H 0.1367 0.56911 0.46067 0.0
H784 H 0.17058 0.60305 0.54866 0.0
C785 C 0.19355 0.62467 0.35909 0.0
C786 C 0.66338 0.93827 0.67561 0.0
C787 C 0.65911 0.96619 0.63469 0.0
H788 H 0.68508 0.89341 0.6738 0.0
C789 C 0.67518 0.97046 0.56151 0.0
H790 H 0.65147 0.93419 0.7321 0.0
C791 C 0.69375 0.94729 0.52815 0.0
C792 C 0.6974 0.91914 0.56721 0.0
H793 H 0.67291 0.99156 0.52791 0.0
H794 H 0.70512 0.9514 0.47078 0.0
C795 C 0.68264 0.91499 0.64243 0.0
C796 C 0.35556 0.45224 0.96337 0.0
C797 C 0.36324 0.46001 0.88248 0.0
H798 H 0.32762 0.4243 0.03866 0.0
C799 C 0.34854 0.4438 0.8142 0.0
H800 H 0.36638 0.46425 0.01753 0.0
C801 C 0.32574 0.42139 0.8265 0.0
C802 C 0.31766 0.41402 0.90738 0.0
H803 H 0.35375 0.44928 0.7512 0.0
H804 H 0.31412 0.41014 0.77234 0.0
C805 C 0.33337 0.42924 0.97568 0.0
C806 C 0.83752 0.13505 0.22612 0.0
C807 C 0.82062 0.12592 0.15287 0.0
H808 H 0.87115 0.12281 0.31963 0.0
C809 C 0.82745 0.09756 0.11193 0.0
H810 H 0.83332 0.15718 0.25746 0.0
C811 C 0.84996 0.07793 0.14655 0.0
C812 C 0.86538 0.08628 0.22321 0.0
H813 H 0.81451 0.09004 0.05544 0.0
H814 H 0.85419 0.05569 0.11557 0.0
C815 C 0.85935 0.11537 0.2614 0.0
C816 C 0.8378 0.6204 0.89727 0.0
C817 C 0.82368 0.61669 0.97364 0.0
H818 H 0.86838 0.60079 0.80665 0.0
C819 C 0.82804 0.58893 0.01419 0.0
H820 H 0.83481 0.64166 0.86471 0.0
C821 C 0.84659 0.5657 0.98099 0.0
C822 C 0.86193 0.56952 0.90642 0.0
H823 H 0.81721 0.58514 0.07251 0.0
H824 H 0.84938 0.54491 0.01567 0.0
C825 C 0.85704 0.59707 0.86422 0.0
C826 C 0.19368 0.11479 0.71334 0.0
C827 C 0.20412 0.11973 0.63313 0.0
H828 H 0.16401 0.08867 0.78856 0.0
C829 C 0.19157 0.10141 0.56572 0.0
H830 H 0.20294 0.12843 0.76674 0.0
C831 C 0.16994 0.07794 0.57868 0.0
C832 C 0.15959 0.07285 0.65902 0.0
H833 H 0.19938 0.10439 0.50342 0.0
H834 H 0.16151 0.06364 0.52552 0.0
C835 C 0.17134 0.09197 0.72596 0.0
C836 C 0.69296 0.44002 0.42892 0.0
C837 C 0.69873 0.41095 0.39043 0.0
H838 H 0.6671 0.48238 0.42289 0.0
C839 C 0.68091 0.40116 0.3193 0.0
H840 H 0.70669 0.44807 0.48361 0.0
C841 C 0.65918 0.42082 0.28347 0.0
C842 C 0.65418 0.45053 0.31919 0.0
H843 H 0.68445 0.37856 0.28972 0.0
H844 H 0.64673 0.41289 0.22664 0.0
C845 C 0.67051 0.45961 0.39396 0.0
C846 C 0.34539 0.9305 0.23283 0.0
C847 C 0.36532 0.95154 0.19679 0.0
H848 H 0.31011 0.89574 0.21302 0.0
C849 C 0.36399 0.95373 0.10983 0.0
H850 H 0.34566 0.92826 0.29963 0.0
C851 C 0.34355 0.93501 0.06003 0.0
C852 C 0.32385 0.91375 0.09605 0.0
H853 H 0.37896 0.96969 0.07993 0.0
H854 H 0.34343 0.93706 0.99318 0.0
C855 C 0.32486 0.9119 0.18309 0.0
C856 C 0.84168 0.43559 0.55717 0.0
C857 C 0.82179 0.41456 0.59338 0.0
H858 H 0.87743 0.46994 0.57678 0.0
C859 C 0.8227 0.41288 0.68047 0.0
H860 H 0.84163 0.43751 0.49028 0.0
C861 C 0.84339 0.43136 0.73005 0.0
C862 C 0.86356 0.4521 0.69381 0.0
H863 H 0.8078 0.39691 0.71055 0.0
H864 H 0.84361 0.42922 0.79688 0.0
C865 C 0.86227 0.4542 0.60682 0.0
C866 C 0.32686 0.08803 0.51306 0.0
C867 C 0.3232 0.11614 0.47377 0.0
H868 H 0.34788 0.04385 0.51397 0.0
C869 C 0.33812 0.12028 0.39878 0.0
H870 H 0.31538 0.08394 0.57028 0.0
C871 C 0.35755 0.09704 0.36609 0.0
C872 C 0.36184 0.06918 0.40728 0.0
H873 H 0.33568 0.14182 0.36725 0.0
H874 H 0.36957 0.10112 0.30979 0.0
C875 C 0.3456 0.0649 0.48018 0.0
C876 C 0.67143 0.59277 0.22476 0.0
C877 C 0.65931 0.57401 0.15756 0.0
H878 H 0.70351 0.62877 0.26586 0.0
C879 C 0.66952 0.57926 0.07716 0.0
H880 H 0.66423 0.58932 0.2874 0.0
C881 C 0.69135 0.60256 0.06439 0.0
C882 C 0.70426 0.62053 0.13201 0.0
H883 H 0.66081 0.56522 0.02382 0.0
H884 H 0.69901 0.60568 1.00201 0.0
C885 C 0.69397 0.61541 0.21229 0.0
C886 C 0.18258 0.90038 0.82255 0.0
C887 C 0.20048 0.91051 0.89326 0.0
H888 H 0.14812 0.9116 0.73002 0.0
C889 C 0.19459 0.93966 0.93111 0.0
H890 H 0.18625 0.87772 0.7934 0.0
C891 C 0.17192 0.95898 0.89599 0.0
C892 C 0.15547 0.94956 0.82163 0.0
H893 H 0.20836 0.94798 0.98544 0.0
H894 H 0.16839 0.9818 0.92444 0.0
C895 C 0.16063 0.91978 0.78652 0.0
loop_
_geom_bond_atom_site_label_1
_geom_bond_atom_site_label_2
_geom_bond_distance
_geom_bond_site_symmetry_2
_ccdc_geom_bond_type
Mn0 O5 2.095 . S
Mn0 O15 2.162 . S
Mn0 O16 2.297 . S
Mn0 O24 2.385 1_554 S
Mn0 O25 2.209 1_554 S
Mn0 O26 2.094 . S
Mn1 O6 2.121 . S
Mn1 N8 2.257 . S
Mn1 N17 2.282 . S
Mn1 O25 2.215 . S
Mn1 O27 2.117 . S
C2 O24 1.234 . S
C2 O25 1.283 . S
C3 O15 1.281 . S
C3 O16 1.236 . S
C4 O26 1.240 1_556 S
C4 O27 1.264 . S
O5 Mn0 2.095 . S
O5 C14 1.250 . S
O6 Mn1 2.121 . S
O6 C14 1.258 1_556 S
C7 N8 1.326 . S
C7 C11 1.460 . S
C7 H13 0.929 . S
N8 Mn1 2.257 . S
N8 C7 1.326 . S
N8 C12 1.362 . S
C9 C10 1.258 . S
C9 C12 1.431 . S
C9 C29 1.449 . S
C10 C9 1.258 . S
C10 C11 1.477 . S
C10 H30 0.931 . S
C11 C7 1.460 . S
C11 C10 1.477 . S
C11 H31 0.930 . S
C12 N8 1.362 . S
C12 C9 1.431 . S
C12 C22 1.476 . S
H13 C7 0.929 . S
C14 O5 1.250 . S
C14 O6 1.258 1_554 S
O15 Mn0 2.162 . S
O15 C3 1.281 . S
O16 Mn0 2.297 . S
O16 C3 1.236 . S
N17 Mn1 2.282 . S
N17 C18 1.328 . S
N17 C22 1.318 . S
C18 N17 1.328 . S
C18 C19 1.457 . S
C18 H23 0.929 . S
C19 C18 1.457 . S
C19 C20 1.291 . S
C19 H32 0.931 . S
C20 C19 1.291 . S
C20 C21 1.373 . S
C20 H33 0.929 . S
C21 C20 1.373 . S
C21 C22 1.396 . S
C21 C28 1.403 . S
C22 C12 1.476 . S
C22 N17 1.318 . S
C22 C21 1.396 . S
H23 C18 0.929 . S
O24 Mn0 2.385 1_556 S
O24 C2 1.234 . S
O25 Mn0 2.209 1_556 S
O25 Mn1 2.215 . S
O25 C2 1.283 . S
O26 Mn0 2.094 . S
O26 C4 1.240 1_554 S
O27 Mn1 2.117 . S
O27 C4 1.264 . S
C28 C21 1.403 . S
C28 C29 1.399 . S
C28 H34 0.929 . S
C29 C9 1.449 . S
C29 C28 1.399 . S
C29 H35 0.930 . S
H30 C10 0.931 . S
H31 C11 0.930 . S
H32 C19 0.931 . S
H33 C20 0.929 . S
H34 C28 0.929 . S
H35 C29 0.930 . S
Mn36 O41 2.104 . S
Mn36 O51 2.157 1_545 S
Mn36 O52 2.305 . S
Mn36 O60 2.381 1_545 S
Mn36 O61 2.216 . S
Mn36 O62 2.082 1_545 S
Mn37 O42 2.121 . S
Mn37 N44 2.257 . S
Mn37 N53 2.282 . S
Mn37 O61 2.215 . S
Mn37 O63 2.117 1_545 S
C38 O60 1.234 1_545 S
C38 O61 1.283 . S
C39 O51 1.281 1_545 S
C39 O52 1.236 . S
C40 O62 1.240 . S
C40 O63 1.264 . S
O41 Mn36 2.104 . S
O41 C50 1.250 . S
O42 Mn37 2.121 . S
O42 C50 1.258 . S
C43 N44 1.326 . S
C43 C47 1.460 . S
C43 H49 0.929 . S
N44 Mn37 2.257 . S
N44 C43 1.326 . S
N44 C48 1.362 . S
C45 C46 1.258 . S
C45 C48 1.431 . S
C45 C65 1.449 . S
C46 C45 1.258 . S
C46 C47 1.477 . S
C46 H66 0.931 . S
C47 C43 1.460 . S
C47 C46 1.477 . S
C47 H67 0.930 . S
C48 N44 1.362 . S
C48 C45 1.431 . S
C48 C58 1.476 . S
H49 C43 0.929 . S
C50 O41 1.250 . S
C50 O42 1.258 . S
O51 Mn36 2.157 1_565 S
O51 C39 1.281 1_565 S
O52 Mn36 2.305 . S
O52 C39 1.236 . S
N53 Mn37 2.282 . S
N53 C54 1.328 1_545 S
N53 C58 1.318 . S
C54 N53 1.328 1_565 S
C54 C55 1.457 . S
C54 H59 0.929 . S
C55 C54 1.457 . S
C55 C56 1.291 . S
C55 H68 0.931 . S
C56 C55 1.291 . S
C56 C57 1.373 1_565 S
C56 H69 0.929 . S
C57 C56 1.373 1_545 S
C57 C58 1.396 . S
C57 C64 1.403 . S
C58 C48 1.476 . S
C58 N53 1.318 . S
C58 C57 1.396 . S
H59 C54 0.929 . S
O60 Mn36 2.381 1_565 S
O60 C38 1.234 1_565 S
O61 Mn36 2.216 . S
O61 Mn37 2.215 . S
O61 C38 1.283 . S
O62 Mn36 2.082 1_565 S
O62 C40 1.240 . S
O63 Mn37 2.117 1_565 S
O63 C40 1.264 . S
C64 C57 1.403 . S
C64 C65 1.399 . S
C64 H70 0.929 . S
C65 C45 1.449 . S
C65 C64 1.399 . S
C65 H71 0.930 . S
H66 C46 0.931 . S
H67 C47 0.930 . S
H68 C55 0.931 . S
H69 C56 0.929 . S
H70 C64 0.929 . S
H71 C65 0.930 . S
Mn72 O77 2.095 . S
Mn72 O87 2.162 . S
Mn72 O88 2.297 . S
Mn72 O96 2.385 . S
Mn72 O97 2.209 . S
Mn72 O98 2.094 . S
Mn73 O78 2.121 . S
Mn73 N80 2.257 . S
Mn73 N89 2.282 . S
Mn73 O97 2.215 . S
Mn73 O99 2.117 . S
C74 O96 1.234 . S
C74 O97 1.283 . S
C75 O87 1.281 . S
C75 O88 1.236 . S
C76 O98 1.240 . S
C76 O99 1.264 . S
O77 Mn72 2.095 . S
O77 C86 1.250 . S
O78 Mn73 2.121 . S
O78 C86 1.258 . S
C79 N80 1.326 . S
C79 C83 1.460 . S
C79 H85 0.929 . S
N80 Mn73 2.257 . S
N80 C79 1.326 . S
N80 C84 1.362 . S
C81 C82 1.258 . S
C81 C84 1.431 . S
C81 C101 1.449 . S
C82 C81 1.258 . S
C82 C83 1.477 . S
C82 H102 0.931 . S
C83 C79 1.460 . S
C83 C82 1.477 . S
C83 H103 0.930 . S
C84 N80 1.362 . S
C84 C81 1.431 . S
C84 C94 1.476 . S
H85 C79 0.929 . S
C86 O77 1.250 . S
C86 O78 1.258 . S
O87 Mn72 2.162 . S
O87 C75 1.281 . S
O88 Mn72 2.297 . S
O88 C75 1.236 . S
N89 Mn73 2.282 . S
N89 C90 1.328 . S
N89 C94 1.318 . S
C90 N89 1.328 . S
C90 C91 1.457 . S
C90 H95 0.929 . S
C91 C90 1.457 . S
C91 C92 1.291 . S
C91 H104 0.931 . S
C92 C91 1.291 . S
C92 C93 1.373 . S
C92 H105 0.940 . S
C93 C92 1.373 . S
C93 C94 1.396 . S
C93 C100 1.403 . S
C94 C84 1.476 . S
C94 N89 1.318 . S
C94 C93 1.396 . S
H95 C90 0.929 . S
O96 Mn72 2.385 . S
O96 C74 1.234 . S
O97 Mn72 2.209 . S
O97 Mn73 2.215 . S
O97 C74 1.283 . S
O98 Mn72 2.094 . S
O98 C76 1.240 . S
O99 Mn73 2.117 . S
O99 C76 1.264 . S
C100 C93 1.403 . S
C100 C101 1.399 . S
C100 H106 0.929 1_556 S
C101 C81 1.449 . S
C101 C100 1.399 . S
C101 H107 0.930 . S
H102 C82 0.931 . S
H103 C83 0.930 . S
H104 C91 0.931 . S
H105 C92 0.940 . S
H106 C100 0.929 1_554 S
H107 C101 0.930 . S
Mn108 O113 2.108 . S
Mn108 O123 2.153 1_545 S
Mn108 O124 2.308 . S
Mn108 O132 2.380 1_545 S
Mn108 O133 2.221 . S
Mn108 O134 2.077 1_545 S
Mn109 O114 2.121 . S
Mn109 N116 2.257 . S
Mn109 N125 2.282 . S
Mn109 O133 2.215 . S
Mn109 O135 2.117 1_545 S
C110 O132 1.234 1_545 S
C110 O133 1.283 . S
C111 O123 1.281 1_545 S
C111 O124 1.236 . S
C112 O134 1.240 . S
C112 O135 1.264 . S
O113 Mn108 2.108 . S
O113 C122 1.250 . S
O114 Mn109 2.121 . S
O114 C122 1.258 . S
C115 N116 1.326 . S
C115 C119 1.460 . S
C115 H121 0.929 . S
N116 Mn109 2.257 . S
N116 C115 1.326 . S
N116 C120 1.362 . S
C117 C118 1.258 . S
C117 C120 1.431 . S
C117 C137 1.449 . S
C118 C117 1.258 . S
C118 C119 1.477 . S
C118 H138 0.931 . S
C119 C115 1.460 . S
C119 C118 1.477 . S
C119 H139 0.930 . S
C120 N116 1.362 . S
C120 C117 1.431 . S
C120 C130 1.476 . S
H121 C115 0.929 . S
C122 O113 1.250 . S
C122 O114 1.258 . S
O123 Mn108 2.153 1_565 S
O123 C111 1.281 1_565 S
O124 Mn108 2.308 . S
O124 C111 1.236 . S
N125 Mn109 2.282 . S
N125 C126 1.328 1_545 S
N125 C130 1.318 . S
C126 N125 1.328 1_565 S
C126 C127 1.457 . S
C126 H131 0.929 . S
C127 C126 1.457 . S
C127 C128 1.291 . S
C127 H140 0.931 . S
C128 C127 1.291 . S
C128 C129 1.373 1_565 S
C128 H141 0.929 . S
C129 C128 1.373 1_545 S
C129 C130 1.396 . S
C129 C136 1.403 . S
C130 C120 1.476 . S
C130 N125 1.318 . S
C130 C129 1.396 . S
H131 C126 0.929 . S
O132 Mn108 2.380 1_565 S
O132 C110 1.234 1_565 S
O133 Mn108 2.221 . S
O133 Mn109 2.215 . S
O133 C110 1.283 . S
O134 Mn108 2.077 1_565 S
O134 C112 1.240 . S
O135 Mn109 2.117 1_565 S
O135 C112 1.264 . S
C136 C129 1.403 . S
C136 C137 1.399 . S
C136 H142 0.929 . S
C137 C117 1.449 . S
C137 C136 1.399 . S
C137 H143 0.930 . S
H138 C118 0.931 . S
H139 C119 0.930 . S
H140 C127 0.931 . S
H141 C128 0.929 . S
H142 C136 0.929 . S
H143 C137 0.930 . S
Mn144 O149 2.095 1_554 S
Mn144 O159 2.162 1_554 S
Mn144 O160 2.297 1_554 S
Mn144 O168 2.385 . S
Mn144 O169 2.209 . S
Mn144 O170 2.094 . S
Mn145 O150 2.121 . S
Mn145 N152 2.257 . S
Mn145 N161 2.282 . S
Mn145 O169 2.215 . S
Mn145 O171 2.117 . S
C146 O168 1.234 . S
C146 O169 1.283 . S
C147 O159 1.281 . S
C147 O160 1.236 . S
C148 O170 1.240 . S
C148 O171 1.264 . S
O149 Mn144 2.095 1_556 S
O149 C158 1.253 . S
O150 Mn145 2.121 . S
O150 C158 1.249 1_554 S
C151 N152 1.326 . S
C151 C155 1.460 . S
C151 H157 0.929 . S
N152 Mn145 2.257 . S
N152 C151 1.326 . S
N152 C156 1.362 . S
C153 C154 1.258 . S
C153 C156 1.431 . S
C153 C173 1.449 . S
C154 C153 1.258 . S
C154 C155 1.477 . S
C154 H174 0.931 . S
C155 C151 1.460 . S
C155 C154 1.477 . S
C155 H175 0.930 . S
C156 N152 1.362 . S
C156 C153 1.431 . S
C156 C166 1.476 . S
H157 C151 0.929 . S
C158 O149 1.253 . S
C158 O150 1.249 1_556 S
O159 Mn144 2.162 1_556 S
O159 C147 1.281 . S
O160 Mn144 2.297 1_556 S
O160 C147 1.236 . S
N161 Mn145 2.282 . S
N161 C162 1.328 . S
N161 C166 1.318 . S
C162 N161 1.328 . S
C162 C163 1.457 . S
C162 H167 0.929 . S
C163 C162 1.457 . S
C163 C164 1.291 . S
C163 H176 0.931 . S
C164 C163 1.291 . S
C164 C165 1.373 . S
C164 H177 0.929 . S
C165 C164 1.373 . S
C165 C166 1.396 . S
C165 C172 1.403 . S
C166 C156 1.476 . S
C166 N161 1.318 . S
C166 C165 1.396 . S
H167 C162 0.929 . S
O168 Mn144 2.385 . S
O168 C146 1.234 . S
O169 Mn144 2.209 . S
O169 Mn145 2.215 . S
O169 C146 1.283 . S
O170 Mn144 2.094 . S
O170 C148 1.240 . S
O171 Mn145 2.117 . S
O171 C148 1.264 . S
C172 C165 1.403 . S
C172 C173 1.399 . S
C172 H178 0.929 . S
C173 C153 1.449 . S
C173 C172 1.399 . S
C173 H179 0.930 . S
H174 C154 0.931 . S
H175 C155 0.930 . S
H176 C163 0.931 . S
H177 C164 0.929 . S
H178 C172 0.929 . S
H179 C173 0.930 . S
Mn180 O185 2.095 1_545 S
Mn180 O195 2.162 . S
Mn180 O196 2.297 1_545 S
Mn180 O204 2.385 . S
Mn180 O205 2.209 1_545 S
Mn180 O206 2.094 . S
Mn181 O186 2.121 . S
Mn181 N188 2.257 . S
Mn181 N197 2.282 1_565 S
Mn181 O205 2.215 . S
Mn181 O207 2.117 1_565 S
C182 O204 1.234 . S
C182 O205 1.283 1_545 S
C183 O195 1.281 . S
C183 O196 1.236 1_545 S
C184 O206 1.240 . S
C184 O207 1.264 . S
O185 Mn180 2.095 1_565 S
O185 C194 1.250 . S
O186 Mn181 2.121 . S
O186 C194 1.258 . S
C187 N188 1.326 . S
C187 C191 1.460 . S
C187 H193 0.929 . S
N188 Mn181 2.257 . S
N188 C187 1.326 . S
N188 C192 1.362 . S
C189 C190 1.258 . S
C189 C192 1.431 . S
C189 C209 1.449 . S
C190 C189 1.258 . S
C190 C191 1.477 . S
C190 H210 0.931 . S
C191 C187 1.460 . S
C191 C190 1.477 . S
C191 H211 0.930 . S
C192 N188 1.362 . S
C192 C189 1.431 . S
C192 C202 1.476 . S
H193 C187 0.929 . S
C194 O185 1.250 . S
C194 O186 1.258 . S
O195 Mn180 2.162 . S
O195 C183 1.281 . S
O196 Mn180 2.297 1_565 S
O196 C183 1.236 1_565 S
N197 Mn181 2.282 1_545 S
N197 C198 1.328 . S
N197 C202 1.318 1_545 S
C198 N197 1.328 . S
C198 C199 1.457 . S
C198 H203 0.929 . S
C199 C198 1.457 . S
C199 C200 1.291 . S
C199 H212 0.931 . S
C200 C199 1.291 . S
C200 C201 1.373 1_545 S
C200 H213 0.929 . S
C201 C200 1.373 1_565 S
C201 C202 1.396 . S
C201 C208 1.403 . S
C202 C192 1.476 . S
C202 N197 1.318 1_565 S
C202 C201 1.396 . S
H203 C198 0.929 . S
O204 Mn180 2.385 . S
O204 C182 1.234 . S
O205 Mn180 2.209 1_565 S
O205 Mn181 2.215 . S
O205 C182 1.283 1_565 S
O206 Mn180 2.094 . S
O206 C184 1.240 . S
O207 Mn181 2.117 1_545 S
O207 C184 1.264 . S
C208 C201 1.403 . S
C208 C209 1.399 . S
C208 H214 0.929 . S
C209 C189 1.449 . S
C209 C208 1.399 . S
C209 H215 0.930 . S
H210 C190 0.931 . S
H211 C191 0.930 . S
H212 C199 0.931 . S
H213 C200 0.929 . S
H214 C208 0.929 . S
H215 C209 0.930 . S
Mn216 O221 2.095 . S
Mn216 O231 2.162 . S
Mn216 O232 2.297 . S
Mn216 O240 2.385 . S
Mn216 O241 2.209 . S
Mn216 O242 2.094 . S
Mn217 O222 2.121 . S
Mn217 N224 2.257 . S
Mn217 N233 2.282 . S
Mn217 O241 2.215 . S
Mn217 O243 2.117 . S
C218 O240 1.234 . S
C218 O241 1.283 . S
C219 O231 1.281 . S
C219 O232 1.236 . S
C220 O242 1.240 . S
C220 O243 1.264 . S
O221 Mn216 2.095 . S
O221 C230 1.250 . S
O222 Mn217 2.121 . S
O222 C230 1.258 . S
C223 N224 1.326 . S
C223 C227 1.460 . S
C223 H229 0.929 . S
N224 Mn217 2.257 . S
N224 C223 1.326 . S
N224 C228 1.362 . S
C225 C226 1.258 . S
C225 C228 1.431 . S
C225 C245 1.449 . S
C226 C225 1.258 . S
C226 C227 1.477 . S
C226 H246 0.931 . S
C227 C223 1.460 . S
C227 C226 1.477 . S
C227 H247 0.930 . S
C228 N224 1.362 . S
C228 C225 1.431 . S
C228 C238 1.476 . S
H229 C223 0.929 . S
C230 O221 1.250 . S
C230 O222 1.258 . S
O231 Mn216 2.162 . S
O231 C219 1.281 . S
O232 Mn216 2.297 . S
O232 C219 1.236 . S
N233 Mn217 2.282 . S
N233 C234 1.328 . S
N233 C238 1.318 . S
C234 N233 1.328 . S
C234 C235 1.457 . S
C234 H239 0.929 . S
C235 C234 1.457 . S
C235 C236 1.291 . S
C235 H248 0.931 . S
C236 C235 1.291 . S
C236 C237 1.373 . S
C236 H249 0.929 . S
C237 C236 1.373 . S
C237 C238 1.396 . S
C237 C244 1.403 . S
C238 C228 1.476 . S
C238 N233 1.318 . S
C238 C237 1.396 . S
H239 C234 0.929 . S
O240 Mn216 2.385 . S
O240 C218 1.234 . S
O241 Mn216 2.209 . S
O241 Mn217 2.215 . S
O241 C218 1.283 . S
O242 Mn216 2.094 . S
O242 C220 1.240 . S
O243 Mn217 2.117 . S
O243 C220 1.264 . S
C244 C237 1.403 . S
C244 C245 1.399 . S
C244 H250 0.933 . S
C245 C225 1.449 . S
C245 C244 1.399 . S
C245 H251 0.930 . S
H246 C226 0.931 . S
H247 C227 0.930 . S
H248 C235 0.931 . S
H249 C236 0.929 . S
H250 C244 0.933 . S
H251 C245 0.930 . S
Mn252 O257 2.095 1_545 S
Mn252 O267 2.162 . S
Mn252 O268 2.297 1_545 S
Mn252 O276 2.385 . S
Mn252 O277 2.209 1_545 S
Mn252 O278 2.094 . S
Mn253 O258 2.121 . S
Mn253 N260 2.257 . S
Mn253 N269 2.282 1_565 S
Mn253 O277 2.215 . S
Mn253 O279 2.117 1_565 S
C254 O276 1.234 . S
C254 O277 1.283 1_545 S
C255 O267 1.281 . S
C255 O268 1.236 1_545 S
C256 O278 1.240 . S
C256 O279 1.264 . S
O257 Mn252 2.095 1_565 S
O257 C266 1.250 . S
O258 Mn253 2.121 . S
O258 C266 1.258 . S
C259 N260 1.326 . S
C259 C263 1.460 . S
C259 H265 0.929 . S
N260 Mn253 2.257 . S
N260 C259 1.326 . S
N260 C264 1.362 . S
C261 C262 1.258 . S
C261 C264 1.431 . S
C261 C281 1.449 . S
C262 C261 1.258 . S
C262 C263 1.477 . S
C262 H282 0.931 . S
C263 C259 1.460 . S
C263 C262 1.477 . S
C263 H283 0.930 . S
C264 N260 1.362 . S
C264 C261 1.431 . S
C264 C274 1.476 . S
H265 C259 0.929 . S
C266 O257 1.250 . S
C266 O258 1.258 . S
O267 Mn252 2.162 . S
O267 C255 1.281 . S
O268 Mn252 2.297 1_565 S
O268 C255 1.236 1_565 S
N269 Mn253 2.282 1_545 S
N269 C270 1.328 . S
N269 C274 1.318 1_545 S
C270 N269 1.328 . S
C270 C271 1.457 . S
C270 H275 0.929 . S
C271 C270 1.457 . S
C271 C272 1.291 . S
C271 H284 0.931 . S
C272 C271 1.291 . S
C272 C273 1.373 1_545 S
C272 H285 0.929 . S
C273 C272 1.373 1_565 S
C273 C274 1.396 . S
C273 C280 1.403 . S
C274 C264 1.476 . S
C274 N269 1.318 1_565 S
C274 C273 1.396 . S
H275 C270 0.929 . S
O276 Mn252 2.385 . S
O276 C254 1.234 . S
O277 Mn252 2.209 1_565 S
O277 Mn253 2.215 . S
O277 C254 1.283 1_565 S
O278 Mn252 2.094 . S
O278 C256 1.240 . S
O279 Mn253 2.117 1_545 S
O279 C256 1.264 . S
C280 C273 1.403 . S
C280 C281 1.399 . S
C280 H286 0.929 . S
C281 C261 1.449 . S
C281 C280 1.399 . S
C281 H287 0.930 . S
H282 C262 0.931 . S
H283 C263 0.930 . S
H284 C271 0.931 . S
H285 C272 0.929 . S
H286 C280 0.929 . S
H287 C281 0.930 . S
Mn288 O293 2.095 . S
Mn288 O303 2.162 . S
Mn288 O304 2.297 . S
Mn288 O312 2.385 . S
Mn288 O313 2.209 . S
Mn288 O314 2.094 . S
Mn289 O294 2.121 . S
Mn289 N296 2.257 . S
Mn289 N305 2.282 . S
Mn289 O313 2.215 . S
Mn289 O315 2.117 . S
C290 O312 1.234 . S
C290 O313 1.283 . S
C291 O303 1.281 . S
C291 O304 1.236 . S
C292 O314 1.240 . S
C292 O315 1.264 . S
O293 Mn288 2.095 . S
O293 C302 1.250 . S
O294 Mn289 2.121 . S
O294 C302 1.258 . S
C295 N296 1.326 . S
C295 C299 1.460 . S
C295 H301 0.929 . S
N296 Mn289 2.257 . S
N296 C295 1.326 . S
N296 C300 1.362 . S
C297 C298 1.258 . S
C297 C300 1.431 . S
C297 C317 1.449 . S
C298 C297 1.258 . S
C298 C299 1.477 . S
C298 H318 0.931 . S
C299 C295 1.460 . S
C299 C298 1.477 . S
C299 H319 0.930 . S
C300 N296 1.362 . S
C300 C297 1.431 . S
C300 C310 1.476 . S
H301 C295 0.929 . S
C302 O293 1.250 . S
C302 O294 1.258 . S
O303 Mn288 2.162 . S
O303 C291 1.281 . S
O304 Mn288 2.297 . S
O304 C291 1.236 . S
N305 Mn289 2.282 . S
N305 C306 1.328 . S
N305 C310 1.318 . S
C306 N305 1.328 . S
C306 C307 1.457 . S
C306 H311 0.929 . S
C307 C306 1.457 . S
C307 C308 1.291 . S
C307 H320 0.931 . S
C308 C307 1.291 . S
C308 C309 1.373 . S
C308 H321 0.929 . S
C309 C308 1.373 . S
C309 C310 1.396 . S
C309 C316 1.403 . S
C310 C300 1.476 . S
C310 N305 1.318 . S
C310 C309 1.396 . S
H311 C306 0.929 . S
O312 Mn288 2.385 . S
O312 C290 1.234 . S
O313 Mn288 2.209 . S
O313 Mn289 2.215 . S
O313 C290 1.283 . S
O314 Mn288 2.094 . S
O314 C292 1.240 . S
O315 Mn289 2.117 . S
O315 C292 1.264 . S
C316 C309 1.403 . S
C316 C317 1.399 . S
C316 H322 0.929 1_554 S
C317 C297 1.449 . S
C317 C316 1.399 . S
C317 H323 0.930 . S
H318 C298 0.931 . S
H319 C299 0.930 . S
H320 C307 0.931 . S
H321 C308 0.929 . S
H322 C316 0.929 1_556 S
H323 C317 0.930 . S
Mn324 O329 2.095 . S
Mn324 O339 2.162 . S
Mn324 O340 2.297 . S
Mn324 O348 2.385 . S
Mn324 O349 2.209 . S
Mn324 O350 2.094 . S
Mn325 O330 2.121 . S
Mn325 N332 2.257 1_556 S
Mn325 N341 2.282 1_556 S
Mn325 O349 2.215 . S
Mn325 O351 2.117 . S
C326 O348 1.234 . S
C326 O349 1.283 . S
C327 O339 1.281 . S
C327 O340 1.236 . S
C328 O350 1.240 . S
C328 O351 1.264 . S
O329 Mn324 2.095 . S
O329 C338 1.250 . S
O330 Mn325 2.121 . S
O330 C338 1.258 . S
C331 N332 1.326 1_556 S
C331 C335 1.460 1_556 S
C331 H337 0.929 . S
N332 Mn325 2.257 1_554 S
N332 C331 1.326 1_554 S
N332 C336 1.362 . S
C333 C334 1.258 . S
C333 C336 1.431 . S
C333 C353 1.449 . S
C334 C333 1.258 . S
C334 C335 1.477 . S
C334 H354 0.931 . S
C335 C331 1.460 1_554 S
C335 C334 1.477 . S
C335 H355 0.930 . S
C336 N332 1.362 . S
C336 C333 1.431 . S
C336 C346 1.476 . S
H337 C331 0.929 . S
C338 O329 1.250 . S
C338 O330 1.258 . S
O339 Mn324 2.162 . S
O339 C327 1.281 . S
O340 Mn324 2.297 . S
O340 C327 1.236 . S
N341 Mn325 2.282 1_554 S
N341 C342 1.328 . S
N341 C346 1.318 . S
C342 N341 1.328 . S
C342 C343 1.457 . S
C342 H347 0.929 . S
C343 C342 1.457 . S
C343 C344 1.291 . S
C343 H356 0.931 . S
C344 C343 1.291 . S
C344 C345 1.373 . S
C344 H357 0.929 . S
C345 C344 1.373 . S
C345 C346 1.396 . S
C345 C352 1.403 . S
C346 C336 1.476 . S
C346 N341 1.318 . S
C346 C345 1.396 . S
H347 C342 0.929 . S
O348 Mn324 2.385 . S
O348 C326 1.234 . S
O349 Mn324 2.209 . S
O349 Mn325 2.215 . S
O349 C326 1.283 . S
O350 Mn324 2.094 . S
O350 C328 1.240 . S
O351 Mn325 2.117 . S
O351 C328 1.264 . S
C352 C345 1.403 . S
C352 C353 1.399 . S
C352 H358 0.929 . S
C353 C333 1.449 . S
C353 C352 1.399 . S
C353 H359 0.930 . S
H354 C334 0.931 . S
H355 C335 0.930 . S
H356 C343 0.931 . S
H357 C344 0.929 . S
H358 C352 0.929 . S
H359 C353 0.930 . S
Mn360 O365 2.095 1_554 S
Mn360 O375 2.162 1_554 S
Mn360 O376 2.297 1_554 S
Mn360 O384 2.385 . S
Mn360 O385 2.209 . S
Mn360 O386 2.094 . S
Mn361 O366 2.121 . S
Mn361 N368 2.257 . S
Mn361 N377 2.282 . S
Mn361 O385 2.215 . S
Mn361 O387 2.117 . S
C362 O384 1.234 . S
C362 O385 1.283 . S
C363 O375 1.281 . S
C363 O376 1.236 . S
C364 O386 1.240 . S
C364 O387 1.264 . S
O365 Mn360 2.095 1_556 S
O365 C374 1.250 . S
O366 Mn361 2.121 . S
O366 C374 1.258 1_554 S
C367 N368 1.326 . S
C367 C371 1.460 . S
C367 H373 0.929 . S
N368 Mn361 2.257 . S
N368 C367 1.326 . S
N368 C372 1.362 . S
C369 C370 1.258 . S
C369 C372 1.431 . S
C369 C389 1.449 . S
C370 C369 1.258 . S
C370 C371 1.477 . S
C370 H390 0.931 . S
C371 C367 1.460 . S
C371 C370 1.477 . S
C371 H391 0.930 . S
C372 N368 1.362 . S
C372 C369 1.431 . S
C372 C382 1.476 . S
H373 C367 0.929 . S
C374 O365 1.250 . S
C374 O366 1.258 1_556 S
O375 Mn360 2.162 1_556 S
O375 C363 1.281 . S
O376 Mn360 2.297 1_556 S
O376 C363 1.236 . S
N377 Mn361 2.282 . S
N377 C378 1.328 . S
N377 C382 1.318 . S
C378 N377 1.328 . S
C378 C379 1.457 . S
C378 H383 0.929 . S
C379 C378 1.457 . S
C379 C380 1.291 . S
C379 H392 0.931 . S
C380 C379 1.291 . S
C380 C381 1.373 . S
C380 H393 0.929 . S
C381 C380 1.373 . S
C381 C382 1.396 . S
C381 C388 1.403 . S
C382 C372 1.476 . S
C382 N377 1.318 . S
C382 C381 1.396 . S
H383 C378 0.929 . S
O384 Mn360 2.385 . S
O384 C362 1.234 . S
O385 Mn360 2.209 . S
O385 Mn361 2.215 . S
O385 C362 1.283 . S
O386 Mn360 2.094 . S
O386 C364 1.240 . S
O387 Mn361 2.117 . S
O387 C364 1.264 . S
C388 C381 1.403 . S
C388 C389 1.399 . S
C388 H394 0.929 . S
C389 C369 1.449 . S
C389 C388 1.399 . S
C389 H395 0.930 . S
H390 C370 0.931 . S
H391 C371 0.930 . S
H392 C379 0.931 . S
H393 C380 0.929 . S
H394 C388 0.929 . S
H395 C389 0.930 . S
Mn396 O401 2.095 . S
Mn396 O411 2.162 . S
Mn396 O412 2.297 . S
Mn396 O420 2.385 . S
Mn396 O421 2.209 . S
Mn396 O422 2.094 . S
Mn397 O402 2.121 . S
Mn397 N404 2.257 . S
Mn397 N413 2.282 1_554 S
Mn397 O421 2.215 . S
Mn397 O423 2.117 . S
C398 O420 1.234 . S
C398 O421 1.283 . S
C399 O411 1.281 . S
C399 O412 1.236 . S
C400 O422 1.240 . S
C400 O423 1.264 . S
O401 Mn396 2.095 . S
O401 C410 1.250 . S
O402 Mn397 2.121 . S
O402 C410 1.258 . S
C403 N404 1.326 . S
C403 C407 1.460 . S
C403 H409 0.929 . S
N404 Mn397 2.257 . S
N404 C403 1.326 . S
N404 C408 1.362 1_554 S
C405 C406 1.258 . S
C405 C408 1.431 . S
C405 C425 1.449 . S
C406 C405 1.258 . S
C406 C407 1.477 1_556 S
C406 H426 0.931 . S
C407 C403 1.460 . S
C407 C406 1.477 1_554 S
C407 H427 0.930 . S
C408 N404 1.362 1_556 S
C408 C405 1.431 . S
C408 C418 1.476 . S
H409 C403 0.929 . S
C410 O401 1.250 . S
C410 O402 1.258 . S
O411 Mn396 2.162 . S
O411 C399 1.281 . S
O412 Mn396 2.297 . S
O412 C399 1.236 . S
N413 Mn397 2.282 1_556 S
N413 C414 1.328 . S
N413 C418 1.318 . S
C414 N413 1.328 . S
C414 C415 1.457 . S
C414 H419 0.929 1_556 S
C415 C414 1.457 . S
C415 C416 1.291 . S
C415 H428 0.931 . S
C416 C415 1.291 . S
C416 C417 1.373 . S
C416 H429 0.929 . S
C417 C416 1.373 . S
C417 C418 1.396 . S
C417 C424 1.403 . S
C418 C408 1.476 . S
C418 N413 1.318 . S
C418 C417 1.396 . S
H419 C414 0.929 1_554 S
O420 Mn396 2.385 . S
O420 C398 1.234 . S
O421 Mn396 2.209 . S
O421 Mn397 2.215 . S
O421 C398 1.283 . S
O422 Mn396 2.094 . S
O422 C400 1.240 . S
O423 Mn397 2.117 . S
O423 C400 1.264 . S
C424 C417 1.403 . S
C424 C425 1.399 . S
C424 H430 0.929 . S
C425 C405 1.449 . S
C425 C424 1.399 . S
C425 H431 0.930 . S
H426 C406 0.931 . S
H427 C407 0.930 . S
H428 C415 0.931 . S
H429 C416 0.929 . S
H430 C424 0.929 . S
H431 C425 0.930 . S
Mn432 O437 2.095 . S
Mn432 O447 2.162 . S
Mn432 O448 2.297 . S
Mn432 O456 2.385 . S
Mn432 O457 2.209 . S
Mn432 O458 2.094 . S
Mn433 O438 2.121 . S
Mn433 N440 2.257 . S
Mn433 N449 2.282 . S
Mn433 O457 2.215 . S
Mn433 O459 2.117 . S
C434 O456 1.234 . S
C434 O457 1.283 . S
C435 O447 1.281 . S
C435 O448 1.236 . S
C436 O458 1.240 . S
C436 O459 1.264 . S
O437 Mn432 2.095 . S
O437 C446 1.250 . S
O438 Mn433 2.121 . S
O438 C446 1.258 . S
C439 N440 1.326 . S
C439 C443 1.460 . S
C439 H445 0.929 . S
N440 Mn433 2.257 . S
N440 C439 1.326 . S
N440 C444 1.362 . S
C441 C442 1.258 . S
C441 C444 1.431 . S
C441 C461 1.449 . S
C442 C441 1.258 . S
C442 C443 1.477 . S
C442 H462 0.931 . S
C443 C439 1.460 . S
C443 C442 1.477 . S
C443 H463 0.930 . S
C444 N440 1.362 . S
C444 C441 1.431 . S
C444 C454 1.476 . S
H445 C439 0.929 . S
C446 O437 1.250 . S
C446 O438 1.258 . S
O447 Mn432 2.162 . S
O447 C435 1.281 . S
O448 Mn432 2.297 . S
O448 C435 1.236 . S
N449 Mn433 2.282 . S
N449 C450 1.328 . S
N449 C454 1.318 . S
C450 N449 1.328 . S
C450 C451 1.457 . S
C450 H455 0.929 . S
C451 C450 1.457 . S
C451 C452 1.291 . S
C451 H464 0.931 . S
C452 C451 1.291 . S
C452 C453 1.373 . S
C452 H465 0.929 . S
C453 C452 1.373 . S
C453 C454 1.396 . S
C453 C460 1.403 . S
C454 C444 1.476 . S
C454 N449 1.318 . S
C454 C453 1.396 . S
H455 C450 0.929 . S
O456 Mn432 2.385 . S
O456 C434 1.234 . S
O457 Mn432 2.209 . S
O457 Mn433 2.215 . S
O457 C434 1.283 . S
O458 Mn432 2.094 . S
O458 C436 1.240 . S
O459 Mn433 2.117 . S
O459 C436 1.264 . S
C460 C453 1.403 . S
C460 C461 1.399 . S
C460 H466 0.929 1_556 S
C461 C441 1.449 . S
C461 C460 1.399 . S
C461 H467 0.930 1_556 S
H462 C442 0.931 . S
H463 C443 0.930 . S
H464 C451 0.931 . S
H465 C452 0.929 . S
H466 C460 0.929 1_554 S
H467 C461 0.930 1_554 S
Mn468 O473 2.095 . S
Mn468 O483 2.162 . S
Mn468 O484 2.297 . S
Mn468 O492 2.385 . S
Mn468 O493 2.209 . S
Mn468 O494 2.094 . S
Mn469 O474 2.121 . S
Mn469 N476 2.257 . S
Mn469 N485 2.282 1_554 S
Mn469 O493 2.215 . S
Mn469 O495 2.117 . S
C470 O492 1.234 . S
C470 O493 1.283 . S
C471 O483 1.281 . S
C471 O484 1.236 . S
C472 O494 1.240 . S
C472 O495 1.264 . S
O473 Mn468 2.095 . S
O473 C482 1.250 . S
O474 Mn469 2.121 . S
O474 C482 1.258 . S
C475 N476 1.326 . S
C475 C479 1.460 1_554 S
C475 H481 0.929 . S
N476 Mn469 2.257 . S
N476 C475 1.326 . S
N476 C480 1.362 1_554 S
C477 C478 1.258 . S
C477 C480 1.431 . S
C477 C497 1.449 . S
C478 C477 1.258 . S
C478 C479 1.477 . S
C478 H498 0.931 . S
C479 C475 1.460 1_556 S
C479 C478 1.477 . S
C479 H499 0.930 . S
C480 N476 1.362 1_556 S
C480 C477 1.431 . S
C480 C490 1.476 . S
H481 C475 0.929 . S
C482 O473 1.250 . S
C482 O474 1.258 . S
O483 Mn468 2.162 . S
O483 C471 1.281 . S
O484 Mn468 2.297 . S
O484 C471 1.236 . S
N485 Mn469 2.282 1_556 S
N485 C486 1.328 . S
N485 C490 1.318 . S
C486 N485 1.328 . S
C486 C487 1.457 . S
C486 H491 0.929 1_556 S
C487 C486 1.457 . S
C487 C488 1.291 . S
C487 H500 0.931 . S
C488 C487 1.291 . S
C488 C489 1.373 . S
C488 H501 0.929 . S
C489 C488 1.373 . S
C489 C490 1.396 . S
C489 C496 1.403 . S
C490 C480 1.476 . S
C490 N485 1.318 . S
C490 C489 1.396 . S
H491 C486 0.929 1_554 S
O492 Mn468 2.385 . S
O492 C470 1.234 . S
O493 Mn468 2.209 . S
O493 Mn469 2.215 . S
O493 C470 1.283 . S
O494 Mn468 2.094 . S
O494 C472 1.240 . S
O495 Mn469 2.117 . S
O495 C472 1.264 . S
C496 C489 1.403 . S
C496 C497 1.399 . S
C496 H502 0.929 . S
C497 C477 1.449 . S
C497 C496 1.399 . S
C497 H503 0.930 . S
H498 C478 0.931 . S
H499 C479 0.930 . S
H500 C487 0.931 . S
H501 C488 0.929 . S
H502 C496 0.929 . S
H503 C497 0.930 . S
Mn504 O509 2.095 . S
Mn504 O519 2.162 . S
Mn504 O520 2.297 . S
Mn504 O528 2.385 1_554 S
Mn504 O529 2.209 1_554 S
Mn504 O530 2.094 1_554 S
Mn505 O510 2.121 . S
Mn505 N512 2.257 . S
Mn505 N521 2.282 . S
Mn505 O529 2.215 . S
Mn505 O531 2.117 . S
C506 O528 1.234 . S
C506 O529 1.283 . S
C507 O519 1.281 . S
C507 O520 1.236 . S
C508 O530 1.240 . S
C508 O531 1.264 . S
O509 Mn504 2.095 . S
O509 C518 1.250 . S
O510 Mn505 2.121 . S
O510 C518 1.258 1_556 S
C511 N512 1.326 . S
C511 C515 1.460 . S
C511 H517 0.929 . S
N512 Mn505 2.257 . S
N512 C511 1.326 . S
N512 C516 1.362 . S
C513 C514 1.258 . S
C513 C516 1.431 . S
C513 C533 1.449 . S
C514 C513 1.258 . S
C514 C515 1.477 . S
C514 H534 0.931 . S
C515 C511 1.460 . S
C515 C514 1.477 . S
C515 H535 0.930 . S
C516 N512 1.362 . S
C516 C513 1.431 . S
C516 C526 1.476 . S
H517 C511 0.929 . S
C518 O509 1.250 . S
C518 O510 1.258 1_554 S
O519 Mn504 2.162 . S
O519 C507 1.281 . S
O520 Mn504 2.297 . S
O520 C507 1.236 . S
N521 Mn505 2.282 . S
N521 C522 1.328 . S
N521 C526 1.318 . S
C522 N521 1.328 . S
C522 C523 1.457 . S
C522 H527 0.929 . S
C523 C522 1.457 . S
C523 C524 1.291 . S
C523 H536 0.931 . S
C524 C523 1.291 . S
C524 C525 1.373 . S
C524 H537 0.929 . S
C525 C524 1.373 . S
C525 C526 1.396 . S
C525 C532 1.403 . S
C526 C516 1.476 . S
C526 N521 1.318 . S
C526 C525 1.396 . S
H527 C522 0.929 . S
O528 Mn504 2.385 1_556 S
O528 C506 1.234 . S
O529 Mn504 2.209 1_556 S
O529 Mn505 2.215 . S
O529 C506 1.283 . S
O530 Mn504 2.094 1_556 S
O530 C508 1.240 . S
O531 Mn505 2.117 . S
O531 C508 1.264 . S
C532 C525 1.403 . S
C532 C533 1.399 . S
C532 H538 0.929 . S
C533 C513 1.449 . S
C533 C532 1.399 . S
C533 H539 0.930 . S
H534 C514 0.931 . S
H535 C515 0.930 . S
H536 C523 0.931 . S
H537 C524 0.929 . S
H538 C532 0.929 . S
H539 C533 0.930 . S
Mn540 O545 2.095 . S
Mn540 O555 2.162 . S
Mn540 O556 2.297 . S
Mn540 O564 2.385 . S
Mn540 O565 2.209 . S
Mn540 O566 2.094 . S
Mn541 O546 2.121 . S
Mn541 N548 2.257 . S
Mn541 N557 2.282 1_556 S
Mn541 O565 2.215 . S
Mn541 O567 2.117 . S
C542 O564 1.234 . S
C542 O565 1.283 . S
C543 O555 1.281 . S
C543 O556 1.236 . S
C544 O566 1.240 . S
C544 O567 1.264 . S
O545 Mn540 2.095 . S
O545 C554 1.250 . S
O546 Mn541 2.121 . S
O546 C554 1.258 . S
C547 N548 1.326 . S
C547 C551 1.460 1_556 S
C547 H553 0.929 . S
N548 Mn541 2.257 . S
N548 C547 1.326 . S
N548 C552 1.362 1_556 S
C549 C550 1.258 . S
C549 C552 1.431 . S
C549 C569 1.449 . S
C550 C549 1.258 . S
C550 C551 1.477 . S
C550 H570 0.931 . S
C551 C547 1.460 1_554 S
C551 C550 1.477 . S
C551 H571 0.930 . S
C552 N548 1.362 1_554 S
C552 C549 1.431 . S
C552 C562 1.476 . S
H553 C547 0.929 . S
C554 O545 1.250 . S
C554 O546 1.258 . S
O555 Mn540 2.162 . S
O555 C543 1.281 . S
O556 Mn540 2.297 . S
O556 C543 1.236 . S
N557 Mn541 2.282 1_554 S
N557 C558 1.328 . S
N557 C562 1.318 . S
C558 N557 1.328 . S
C558 C559 1.457 . S
C558 H563 0.929 . S
C559 C558 1.457 . S
C559 C560 1.291 . S
C559 H572 0.931 . S
C560 C559 1.291 . S
C560 C561 1.373 . S
C560 H573 0.929 . S
C561 C560 1.373 . S
C561 C562 1.396 . S
C561 C568 1.403 . S
C562 C552 1.476 . S
C562 N557 1.318 . S
C562 C561 1.396 . S
H563 C558 0.929 . S
O564 Mn540 2.385 . S
O564 C542 1.234 . S
O565 Mn540 2.209 . S
O565 Mn541 2.215 . S
O565 C542 1.283 . S
O566 Mn540 2.094 . S
O566 C544 1.240 . S
O567 Mn541 2.117 . S
O567 C544 1.264 . S
C568 C561 1.403 . S
C568 C569 1.399 . S
C568 H574 0.929 . S
C569 C549 1.449 . S
C569 C568 1.399 . S
C569 H575 0.930 . S
H570 C550 0.931 . S
H571 C551 0.930 . S
H572 C559 0.931 . S
H573 C560 0.929 . S
H574 C568 0.929 . S
H575 C569 0.930 . S
C576 C577 1.387 . S
C576 H580 0.950 . S
C576 C585 1.390 . S
C577 C576 1.387 . S
C577 C579 1.387 . S
H578 C585 0.950 . S
C579 C577 1.387 . S
C579 C581 1.390 . S
C579 H583 0.950 . S
H580 C576 0.950 . S
C581 C579 1.390 . S
C581 C582 1.387 . S
C581 H584 0.950 . S
C582 C581 1.387 . S
C582 C585 1.387 . S
H583 C579 0.950 . S
H584 C581 0.950 . S
C585 C576 1.390 . S
C585 H578 0.950 . S
C585 C582 1.387 . S
C586 C587 1.387 1_565 S
C586 H590 0.950 . S
C586 C595 1.390 1_655 S
C587 C586 1.387 1_545 S
C587 C589 1.387 . S
H588 C595 0.950 . S
C589 C587 1.387 . S
C589 C591 1.390 1_655 S
C589 H593 0.950 . S
H590 C586 0.950 . S
C591 C589 1.390 1_455 S
C591 C592 1.387 . S
C591 H594 0.950 . S
C592 C591 1.387 . S
C592 C595 1.387 1_545 S
H593 C589 0.950 . S
H594 C591 0.950 . S
C595 C586 1.390 1_455 S
C595 H588 0.950 . S
C595 C592 1.387 1_565 S
C596 C597 1.387 . S
C596 H600 0.950 . S
C596 C605 1.390 . S
C597 C596 1.387 . S
C597 C599 1.387 . S
H598 C605 0.950 . S
C599 C597 1.387 . S
C599 C601 1.390 . S
C599 H603 0.950 . S
H600 C596 0.950 . S
C601 C599 1.390 . S
C601 C602 1.387 . S
C601 H604 0.950 . S
C602 C601 1.387 . S
C602 C605 1.387 . S
H603 C599 0.950 . S
H604 C601 0.950 . S
C605 C596 1.390 . S
C605 H598 0.950 . S
C605 C602 1.387 . S
C606 C607 1.387 1_565 S
C606 H610 0.950 . S
C606 C615 1.390 1_554 S
C607 C606 1.387 1_545 S
C607 C609 1.387 . S
H608 C615 0.950 . S
C609 C607 1.387 . S
C609 C611 1.390 1_554 S
C609 H613 0.950 . S
H610 C606 0.950 . S
C611 C609 1.390 1_556 S
C611 C612 1.387 . S
C611 H614 0.950 . S
C612 C611 1.387 . S
C612 C615 1.387 1_545 S
H613 C609 0.950 . S
H614 C611 0.950 . S
C615 C606 1.390 1_556 S
C615 H608 0.950 . S
C615 C612 1.387 1_565 S
C616 C617 1.387 . S
C616 H620 0.950 . S
C616 C625 1.390 . S
C617 C616 1.387 . S
C617 C619 1.387 . S
H618 C625 0.950 . S
C619 C617 1.387 . S
C619 C621 1.390 . S
C619 H623 0.950 . S
H620 C616 0.950 . S
C621 C619 1.390 . S
C621 C622 1.387 . S
C621 H624 0.950 . S
C622 C621 1.387 . S
C622 C625 1.387 . S
H623 C619 0.950 . S
H624 C621 0.950 . S
C625 C616 1.390 . S
C625 H618 0.950 . S
C625 C622 1.387 . S
C626 C627 1.387 . S
C626 H630 0.950 . S
C626 C635 1.390 . S
C627 C626 1.387 . S
C627 C629 1.387 1_545 S
H628 C635 0.950 . S
C629 C627 1.387 1_565 S
C629 C631 1.390 . S
C629 H633 0.950 . S
H630 C626 0.950 . S
C631 C629 1.390 . S
C631 C632 1.387 1_565 S
C631 H634 0.950 . S
C632 C631 1.387 1_545 S
C632 C635 1.387 . S
H633 C629 0.950 . S
H634 C631 0.950 . S
C635 C626 1.390 . S
C635 H628 0.950 . S
C635 C632 1.387 . S
C636 C637 1.387 . S
C636 H640 0.950 . S
C636 C645 1.390 . S
C637 C636 1.387 . S
C637 C639 1.387 . S
H638 C645 0.950 . S
C639 C637 1.387 . S
C639 C641 1.390 . S
C639 H643 0.950 . S
H640 C636 0.950 . S
C641 C639 1.390 . S
C641 C642 1.387 . S
C641 H644 0.950 . S
C642 C641 1.387 . S
C642 C645 1.387 . S
H643 C639 0.950 . S
H644 C641 0.950 . S
C645 C636 1.390 . S
C645 H638 0.950 . S
C645 C642 1.387 . S
C646 C647 1.387 1_565 S
C646 H650 0.950 . S
C646 C655 1.390 1_456 S
C647 C646 1.387 1_545 S
C647 C649 1.387 . S
H648 C655 0.950 . S
C649 C647 1.387 . S
C649 C651 1.390 1_456 S
C649 H653 0.950 . S
H650 C646 0.950 . S
C651 C649 1.390 1_654 S
C651 C652 1.387 . S
C651 H654 0.950 . S
C652 C651 1.387 . S
C652 C655 1.387 1_545 S
H653 C649 0.950 . S
H654 C651 0.950 . S
C655 C646 1.390 1_654 S
C655 H648 0.950 . S
C655 C652 1.387 1_565 S
C656 C657 1.387 . S
C656 H660 0.950 . S
C656 C665 1.390 . S
C657 C656 1.387 . S
C657 C659 1.387 . S
H658 C665 0.950 . S
C659 C657 1.387 . S
C659 C661 1.390 . S
C659 H663 0.950 . S
H660 C656 0.950 . S
C661 C659 1.390 . S
C661 C662 1.387 . S
C661 H664 0.950 . S
C662 C661 1.387 . S
C662 C665 1.387 . S
H663 C659 0.950 . S
H664 C661 0.950 . S
C665 C656 1.390 . S
C665 H658 0.950 . S
C665 C662 1.387 . S
C666 C667 1.387 . S
C666 H670 0.950 . S
C666 C675 1.390 . S
C667 C666 1.387 . S
C667 C669 1.387 . S
H668 C675 0.950 . S
C669 C667 1.387 . S
C669 C671 1.390 . S
C669 H673 0.950 . S
H670 C666 0.950 . S
C671 C669 1.390 . S
C671 C672 1.387 . S
C671 H674 0.950 . S
C672 C671 1.387 . S
C672 C675 1.387 . S
H673 C669 0.950 . S
H674 C671 0.950 . S
C675 C666 1.390 . S
C675 H668 0.950 . S
C675 C672 1.387 . S
C676 C677 1.387 . S
C676 H680 0.950 . S
C676 C685 1.390 . S
C677 C676 1.387 . S
C677 C679 1.387 . S
H678 C685 0.950 . S
C679 C677 1.387 . S
C679 C681 1.390 . S
C679 H683 0.950 . S
H680 C676 0.950 . S
C681 C679 1.390 . S
C681 C682 1.387 . S
C681 H684 0.950 . S
C682 C681 1.387 . S
C682 C685 1.387 . S
H683 C679 0.950 . S
H684 C681 0.950 . S
C685 C676 1.390 . S
C685 H678 0.950 . S
C685 C682 1.387 . S
C686 C687 1.387 . S
C686 H690 0.950 . S
C686 C695 1.390 . S
C687 C686 1.387 . S
C687 C689 1.387 . S
H688 C695 0.950 . S
C689 C687 1.387 . S
C689 C691 1.390 . S
C689 H693 0.950 . S
H690 C686 0.950 . S
C691 C689 1.390 . S
C691 C692 1.387 . S
C691 H694 0.950 . S
C692 C691 1.387 . S
C692 C695 1.387 . S
H693 C689 0.950 . S
H694 C691 0.950 . S
C695 C686 1.390 . S
C695 H688 0.950 . S
C695 C692 1.387 . S
C696 C697 1.387 . S
C696 H700 0.950 . S
C696 C705 1.390 1_554 S
C697 C696 1.387 . S
C697 C699 1.387 . S
H698 C705 0.950 . S
C699 C697 1.387 . S
C699 C701 1.390 . S
C699 H703 0.950 . S
H700 C696 0.950 . S
C701 C699 1.390 . S
C701 C702 1.387 1_554 S
C701 H704 0.950 . S
C702 C701 1.387 1_556 S
C702 C705 1.387 . S
H703 C699 0.950 . S
H704 C701 0.950 . S
C705 C696 1.390 1_556 S
C705 H698 0.950 . S
C705 C702 1.387 . S
C706 C707 1.387 . S
C706 H710 0.950 . S
C706 C715 1.390 1_455 S
C707 C706 1.387 . S
C707 C709 1.387 . S
H708 C715 0.950 . S
C709 C707 1.387 . S
C709 C711 1.390 1_455 S
C709 H713 0.950 . S
H710 C706 0.950 . S
C711 C709 1.390 1_655 S
C711 C712 1.387 . S
C711 H714 0.950 . S
C712 C711 1.387 . S
C712 C715 1.387 . S
H713 C709 0.950 . S
H714 C711 0.950 . S
C715 C706 1.390 1_655 S
C715 H708 0.950 . S
C715 C712 1.387 . S
C716 C717 1.387 . S
C716 H720 0.950 . S
C716 C725 1.390 1_454 S
C717 C716 1.387 . S
C717 C719 1.387 . S
H718 C725 0.950 . S
C719 C717 1.387 . S
C719 C721 1.390 1_454 S
C719 H723 0.950 . S
H720 C716 0.950 . S
C721 C719 1.390 1_656 S
C721 C722 1.387 . S
C721 H724 0.950 . S
C722 C721 1.387 . S
C722 C725 1.387 . S
H723 C719 0.950 . S
H724 C721 0.950 . S
C725 C716 1.390 1_656 S
C725 H718 0.950 . S
C725 C722 1.387 . S
C726 C727 1.387 . S
C726 H730 0.950 . S
C726 C735 1.390 . S
C727 C726 1.387 . S
C727 C729 1.387 . S
H728 C735 0.950 . S
C729 C727 1.387 . S
C729 C731 1.390 . S
C729 H733 0.950 . S
H730 C726 0.950 . S
C731 C729 1.390 . S
C731 C732 1.387 . S
C731 H734 0.950 . S
C732 C731 1.387 . S
C732 C735 1.387 . S
H733 C729 0.950 . S
H734 C731 0.950 . S
C735 C726 1.390 . S
C735 H728 0.950 . S
C735 C732 1.387 . S
C736 C737 1.387 . S
C736 H740 0.950 . S
C736 C745 1.390 . S
C737 C736 1.387 . S
C737 C739 1.387 . S
H738 C745 0.950 1_556 S
C739 C737 1.387 . S
C739 C741 1.390 . S
C739 H743 0.950 . S
H740 C736 0.950 . S
C741 C739 1.390 . S
C741 C742 1.387 . S
C741 H744 0.950 . S
C742 C741 1.387 . S
C742 C745 1.387 . S
H743 C739 0.950 . S
H744 C741 0.950 . S
C745 C736 1.390 . S
C745 H738 0.950 1_554 S
C745 C742 1.387 . S
C746 C747 1.387 . S
C746 H750 0.950 . S
C746 C755 1.390 . S
C747 C746 1.387 . S
C747 C749 1.387 . S
H748 C755 0.950 . S
C749 C747 1.387 . S
C749 C751 1.390 . S
C749 H753 0.950 . S
H750 C746 0.950 . S
C751 C749 1.390 . S
C751 C752 1.387 . S
C751 H754 0.950 . S
C752 C751 1.387 . S
C752 C755 1.387 . S
H753 C749 0.950 . S
H754 C751 0.950 . S
C755 C746 1.390 . S
C755 H748 0.950 . S
C755 C752 1.387 . S
C756 C757 1.387 . S
C756 H760 0.950 . S
C756 C765 1.390 . S
C757 C756 1.387 . S
C757 C759 1.387 . S
H758 C765 0.950 . S
C759 C757 1.387 . S
C759 C761 1.390 . S
C759 H763 0.950 . S
H760 C756 0.950 . S
C761 C759 1.390 . S
C761 C762 1.387 . S
C761 H764 0.950 . S
C762 C761 1.387 . S
C762 C765 1.387 . S
H763 C759 0.950 . S
H764 C761 0.950 . S
C765 C756 1.390 . S
C765 H758 0.950 . S
C765 C762 1.387 . S
C766 C767 1.387 . S
C766 H770 0.950 1_556 S
C766 C775 1.390 . S
C767 C766 1.387 . S
C767 C769 1.387 . S
H768 C775 0.950 . S
C769 C767 1.387 . S
C769 C771 1.390 . S
C769 H773 0.950 . S
H770 C766 0.950 1_554 S
C771 C769 1.390 . S
C771 C772 1.387 . S
C771 H774 0.950 . S
C772 C771 1.387 . S
C772 C775 1.387 . S
H773 C769 0.950 . S
H774 C771 0.950 . S
C775 C766 1.390 . S
C775 H768 0.950 . S
C775 C772 1.387 . S
C776 C777 1.387 . S
C776 H780 0.950 . S
C776 C785 1.390 . S
C777 C776 1.387 . S
C777 C779 1.387 . S
H778 C785 0.950 . S
C779 C777 1.387 . S
C779 C781 1.390 . S
C779 H783 0.950 . S
H780 C776 0.950 . S
C781 C779 1.390 . S
C781 C782 1.387 . S
C781 H784 0.950 . S
C782 C781 1.387 . S
C782 C785 1.387 . S
H783 C779 0.950 . S
H784 C781 0.950 . S
C785 C776 1.390 . S
C785 H778 0.950 . S
C785 C782 1.387 . S
C786 C787 1.387 . S
C786 H790 0.950 . S
C786 C795 1.390 . S
C787 C786 1.387 . S
C787 C789 1.387 . S
H788 C795 0.950 . S
C789 C787 1.387 . S
C789 C791 1.390 . S
C789 H793 0.950 . S
H790 C786 0.950 . S
C791 C789 1.390 . S
C791 C792 1.387 . S
C791 H794 0.950 . S
C792 C791 1.387 . S
C792 C795 1.387 . S
H793 C789 0.950 . S
H794 C791 0.950 . S
C795 C786 1.390 . S
C795 H788 0.950 . S
C795 C792 1.387 . S
C796 C797 1.387 . S
C796 H800 0.950 . S
C796 C805 1.390 . S
C797 C796 1.387 . S
C797 C799 1.387 . S
H798 C805 0.950 . S
C799 C797 1.387 . S
C799 C801 1.390 . S
C799 H803 0.950 . S
H800 C796 0.950 . S
C801 C799 1.390 . S
C801 C802 1.387 . S
C801 H804 0.950 . S
C802 C801 1.387 . S
C802 C805 1.387 . S
H803 C799 0.950 . S
H804 C801 0.950 . S
C805 C796 1.390 . S
C805 H798 0.950 . S
C805 C802 1.387 . S
C806 C807 1.387 . S
C806 H810 0.950 . S
C806 C815 1.390 . S
C807 C806 1.387 . S
C807 C809 1.387 . S
H808 C815 0.950 . S
C809 C807 1.387 . S
C809 C811 1.390 . S
C809 H813 0.950 . S
H810 C806 0.950 . S
C811 C809 1.390 . S
C811 C812 1.387 . S
C811 H814 0.950 . S
C812 C811 1.387 . S
C812 C815 1.387 . S
H813 C809 0.950 . S
H814 C811 0.950 . S
C815 C806 1.390 . S
C815 H808 0.950 . S
C815 C812 1.387 . S
C816 C817 1.387 . S
C816 H820 0.950 . S
C816 C825 1.390 . S
C817 C816 1.387 . S
C817 C819 1.387 . S
H818 C825 0.950 . S
C819 C817 1.387 . S
C819 C821 1.390 . S
C819 H823 0.950 1_556 S
H820 C816 0.950 . S
C821 C819 1.390 . S
C821 C822 1.387 . S
C821 H824 0.950 . S
C822 C821 1.387 . S
C822 C825 1.387 . S
H823 C819 0.950 1_554 S
H824 C821 0.950 . S
C825 C816 1.390 . S
C825 H818 0.950 . S
C825 C822 1.387 . S
C826 C827 1.387 . S
C826 H830 0.950 . S
C826 C835 1.390 . S
C827 C826 1.387 . S
C827 C829 1.387 . S
H828 C835 0.950 . S
C829 C827 1.387 . S
C829 C831 1.390 . S
C829 H833 0.950 . S
H830 C826 0.950 . S
C831 C829 1.390 . S
C831 C832 1.387 . S
C831 H834 0.950 . S
C832 C831 1.387 . S
C832 C835 1.387 . S
H833 C829 0.950 . S
H834 C831 0.950 . S
C835 C826 1.390 . S
C835 H828 0.950 . S
C835 C832 1.387 . S
C836 C837 1.387 . S
C836 H840 0.950 . S
C836 C845 1.390 . S
C837 C836 1.387 . S
C837 C839 1.387 . S
H838 C845 0.950 . S
C839 C837 1.387 . S
C839 C841 1.390 . S
C839 H843 0.950 . S
H840 C836 0.950 . S
C841 C839 1.390 . S
C841 C842 1.387 . S
C841 H844 0.950 . S
C842 C841 1.387 . S
C842 C845 1.387 . S
H843 C839 0.950 . S
H844 C841 0.950 . S
C845 C836 1.390 . S
C845 H838 0.950 . S
C845 C842 1.387 . S
C846 C847 1.387 . S
C846 H850 0.950 . S
C846 C855 1.390 . S
C847 C846 1.387 . S
C847 C849 1.387 . S
H848 C855 0.950 . S
C849 C847 1.387 . S
C849 C851 1.390 . S
C849 H853 0.950 . S
H850 C846 0.950 . S
C851 C849 1.390 . S
C851 C852 1.387 . S
C851 H854 0.950 . S
C852 C851 1.387 . S
C852 C855 1.387 . S
H853 C849 0.950 . S
H854 C851 0.950 . S
C855 C846 1.390 . S
C855 H848 0.950 . S
C855 C852 1.387 . S
C856 C857 1.387 . S
C856 H860 0.950 . S
C856 C865 1.390 . S
C857 C856 1.387 . S
C857 C859 1.387 . S
H858 C865 0.950 . S
C859 C857 1.387 . S
C859 C861 1.390 . S
C859 H863 0.950 . S
H860 C856 0.950 . S
C861 C859 1.390 . S
C861 C862 1.387 . S
C861 H864 0.950 . S
C862 C861 1.387 . S
C862 C865 1.387 . S
H863 C859 0.950 . S
H864 C861 0.950 . S
C865 C856 1.390 . S
C865 H858 0.950 . S
C865 C862 1.387 . S
C866 C867 1.387 . S
C866 H870 0.950 . S
C866 C875 1.390 . S
C867 C866 1.387 . S
C867 C869 1.387 . S
H868 C875 0.950 . S
C869 C867 1.387 . S
C869 C871 1.390 . S
C869 H873 0.950 . S
H870 C866 0.950 . S
C871 C869 1.390 . S
C871 C872 1.387 . S
C871 H874 0.950 . S
C872 C871 1.387 . S
C872 C875 1.387 . S
H873 C869 0.950 . S
H874 C871 0.950 . S
C875 C866 1.390 . S
C875 H868 0.950 . S
C875 C872 1.387 . S
C876 C877 1.387 . S
C876 H880 0.950 . S
C876 C885 1.390 . S
C877 C876 1.387 . S
C877 C879 1.387 . S
H878 C885 0.950 . S
C879 C877 1.387 . S
C879 C881 1.390 . S
C879 H883 0.950 . S
H880 C876 0.950 . S
C881 C879 1.390 . S
C881 C882 1.387 . S
C881 H884 0.950 1_554 S
C882 C881 1.387 . S
C882 C885 1.387 . S
H883 C879 0.950 . S
H884 C881 0.950 1_556 S
C885 C876 1.390 . S
C885 H878 0.950 . S
C885 C882 1.387 . S
C886 C887 1.387 . S
C886 H890 0.950 . S
C886 C895 1.390 . S
C887 C886 1.387 . S
C887 C889 1.387 . S
H888 C895 0.950 . S
C889 C887 1.387 . S
C889 C891 1.390 . S
C889 H893 0.950 1_556 S
H890 C886 0.950 . S
C891 C889 1.390 . S
C891 C892 1.387 . S
C891 H894 0.950 . S
C892 C891 1.387 . S
C892 C895 1.387 . S
H893 C889 0.950 1_554 S
H894 C891 0.950 . S
C895 C886 1.390 . S
C895 H888 0.950 . S
C895 C892 1.387 . S
C577 C3 1.409 . S
C582 C435 1.409 . S
C587 C38 1.362 . S
C592 C182 1.362 . S
C597 C74 1.359 . S
C602 C506 1.359 . S
C607 C255 1.411 . S
C612 C111 1.411 . S
C617 C507 1.411 . S
C622 C75 1.411 . S
C627 C254 1.359 . S
C632 C110 1.359 . S
C637 C434 1.359 . S
C642 C2 1.359 . S
C647 C183 1.409 . S
C652 C39 1.409 . S
C657 C147 1.410 . S
C662 C291 1.410 . S
C667 C218 1.358 . S
C672 C362 1.358 . S
C677 C363 1.411 . S
C682 C219 1.411 . S
C687 C146 1.360 . S
C692 C290 1.360 . S
C697 C470 1.360 . S
C702 C326 1.360 . S
C707 C399 1.411 . S
C712 C543 1.411 . S
C717 C398 1.359 . S
C722 C542 1.359 . S
C727 C327 1.409 . S
C732 C471 1.409 . S
C737 C400 1.482 . S
C742 C14 1.470 . S
C747 C292 1.463 . S
C752 C40 1.463 . S
C757 C76 1.482 . S
C762 C338 1.471 . S
C767 C374 1.480 . S
C772 C122 1.482 . S
C777 C410 1.479 . S
C782 C86 1.481 . S
C787 C112 1.482 . S
C792 C302 1.470 . S
C797 C328 1.463 . S
C802 C4 1.462 . S
C807 C364 1.483 . S
C812 C50 1.469 . S
C817 C158 1.476 . S
C822 C544 1.482 . S
C827 C436 1.463 . S
C832 C184 1.463 . S
C837 C220 1.483 . S
C842 C482 1.469 . S
C847 C266 1.482 . S
C852 C518 1.481 . S
C857 C230 1.481 . S
C862 C554 1.479 . S
C867 C446 1.470 . S
C872 C256 1.482 . S
C877 C472 1.464 . S
C882 C148 1.463 . S
C887 C508 1.482 . S
C892 C194 1.471 . S
