# Generated by pormake.
# Topology ukc, (4)-cn, num edge types: 1
# Building blocks:
#     Node 0, Type 0, BuildingBlock: QUQFOY_clean_sbu_1, # of connection points: 4
#     Node 1, Type 0, BuildingBlock: QUQFOY_clean_sbu_1, # of connection points: 4
#     Node 2, Type 0, BuildingBlock: QUQFOY_clean_sbu_1, # of connection points: 4
#     Node 3, Type 0, BuildingBlock: QUQFOY_clean_sbu_1, # of connection points: 4
#     Node 4, Type 0, BuildingBlock: QUQFOY_clean_sbu_1, # of connection points: 4
#     Node 5, Type 0, BuildingBlock: QUQFOY_clean_sbu_1, # of connection points: 4
#     Node 6, Type 0, BuildingBlock: QUQFOY_clean_sbu_1, # of connection points: 4
#     Node 7, Type 0, BuildingBlock: QUQFOY_clean_sbu_1, # of connection points: 4
#     Node 8, Type 0, BuildingBlock: QUQFOY_clean_sbu_1, # of connection points: 4
#     Node 9, Type 0, BuildingBlock: QUQFOY_clean_sbu_1, # of connection points: 4
#     Node 10, Type 0, BuildingBlock: QUQFOY_clean_sbu_1, # of connection points: 4
#     Node 11, Type 0, BuildingBlock: QUQFOY_clean_sbu_1, # of connection points: 4
#     Node 12, Type 0, BuildingBlock: QUQFOY_clean_sbu_1, # of connection points: 4
#     Node 13, Type 0, BuildingBlock: QUQFOY_clean_sbu_1, # of connection points: 4
#     Node 14, Type 0, BuildingBlock: QUQFOY_clean_sbu_1, # of connection points: 4
#     Node 15, Type 0, BuildingBlock: QUQFOY_clean_sbu_1, # of connection points: 4
#     Node 16, Type 0, BuildingBlock: QUQFOY_clean_sbu_1, # of connection points: 4
#     Node 17, Type 0, BuildingBlock: QUQFOY_clean_sbu_1, # of connection points: 4
#     Node 18, Type 0, BuildingBlock: QUQFOY_clean_sbu_1, # of connection points: 4
#     Node 19, Type 0, BuildingBlock: QUQFOY_clean_sbu_1, # of connection points: 4
#     Node 20, Type 0, BuildingBlock: QUQFOY_clean_sbu_1, # of connection points: 4
#     Node 21, Type 0, BuildingBlock: QUQFOY_clean_sbu_1, # of connection points: 4
#     Node 22, Type 0, BuildingBlock: QUQFOY_clean_sbu_1, # of connection points: 4
#     Node 23, Type 0, BuildingBlock: QUQFOY_clean_sbu_1, # of connection points: 4
#     Node 24, Type 0, BuildingBlock: QUQFOY_clean_sbu_1, # of connection points: 4
#     Node 25, Type 0, BuildingBlock: QUQFOY_clean_sbu_1, # of connection points: 4
#     Node 26, Type 0, BuildingBlock: QUQFOY_clean_sbu_1, # of connection points: 4
#     Node 27, Type 0, BuildingBlock: QUQFOY_clean_sbu_1, # of connection points: 4
#     Node 28, Type 0, BuildingBlock: QUQFOY_clean_sbu_1, # of connection points: 4
#     Node 29, Type 0, BuildingBlock: QUQFOY_clean_sbu_1, # of connection points: 4
#     Node 30, Type 0, BuildingBlock: QUQFOY_clean_sbu_1, # of connection points: 4
#     Node 31, Type 0, BuildingBlock: QUQFOY_clean_sbu_1, # of connection points: 4
#     Edge 32, Type (0, 0), BuildingBlock: CIFDUS_clean_linker_0, # of connection points: 2
#     Edge 33, Type (0, 0), BuildingBlock: CIFDUS_clean_linker_0, # of connection points: 2
#     Edge 34, Type (0, 0), BuildingBlock: CIFDUS_clean_linker_0, # of connection points: 2
#     Edge 35, Type (0, 0), BuildingBlock: CIFDUS_clean_linker_0, # of connection points: 2
#     Edge 36, Type (0, 0), BuildingBlock: CIFDUS_clean_linker_0, # of connection points: 2
#     Edge 37, Type (0, 0), BuildingBlock: CIFDUS_clean_linker_0, # of connection points: 2
#     Edge 38, Type (0, 0), BuildingBlock: CIFDUS_clean_linker_0, # of connection points: 2
#     Edge 39, Type (0, 0), BuildingBlock: CIFDUS_clean_linker_0, # of connection points: 2
#     Edge 40, Type (0, 0), BuildingBlock: CIFDUS_clean_linker_0, # of connection points: 2
#     Edge 41, Type (0, 0), BuildingBlock: CIFDUS_clean_linker_0, # of connection points: 2
#     Edge 42, Type (0, 0), BuildingBlock: CIFDUS_clean_linker_0, # of connection points: 2
#     Edge 43, Type (0, 0), BuildingBlock: CIFDUS_clean_linker_0, # of connection points: 2
#     Edge 44, Type (0, 0), BuildingBlock: CIFDUS_clean_linker_0, # of connection points: 2
#     Edge 45, Type (0, 0), BuildingBlock: CIFDUS_clean_linker_0, # of connection points: 2
#     Edge 46, Type (0, 0), BuildingBlock: CIFDUS_clean_linker_0, # of connection points: 2
#     Edge 47, Type (0, 0), BuildingBlock: CIFDUS_clean_linker_0, # of connection points: 2
#     Edge 48, Type (0, 0), BuildingBlock: CIFDUS_clean_linker_0, # of connection points: 2
#     Edge 49, Type (0, 0), BuildingBlock: CIFDUS_clean_linker_0, # of connection points: 2
#     Edge 50, Type (0, 0), BuildingBlock: CIFDUS_clean_linker_0, # of connection points: 2
#     Edge 51, Type (0, 0), BuildingBlock: CIFDUS_clean_linker_0, # of connection points: 2
#     Edge 52, Type (0, 0), BuildingBlock: CIFDUS_clean_linker_0, # of connection points: 2
#     Edge 53, Type (0, 0), BuildingBlock: CIFDUS_clean_linker_0, # of connection points: 2
#     Edge 54, Type (0, 0), BuildingBlock: CIFDUS_clean_linker_0, # of connection points: 2
#     Edge 55, Type (0, 0), BuildingBlock: CIFDUS_clean_linker_0, # of connection points: 2
#     Edge 56, Type (0, 0), BuildingBlock: CIFDUS_clean_linker_0, # of connection points: 2
#     Edge 57, Type (0, 0), BuildingBlock: CIFDUS_clean_linker_0, # of connection points: 2
#     Edge 58, Type (0, 0), BuildingBlock: CIFDUS_clean_linker_0, # of connection points: 2
#     Edge 59, Type (0, 0), BuildingBlock: CIFDUS_clean_linker_0, # of connection points: 2
#     Edge 60, Type (0, 0), BuildingBlock: CIFDUS_clean_linker_0, # of connection points: 2
#     Edge 61, Type (0, 0), BuildingBlock: CIFDUS_clean_linker_0, # of connection points: 2
#     Edge 62, Type (0, 0), BuildingBlock: CIFDUS_clean_linker_0, # of connection points: 2
#     Edge 63, Type (0, 0), BuildingBlock: CIFDUS_clean_linker_0, # of connection points: 2
#     Edge 64, Type (0, 0), BuildingBlock: CIFDUS_clean_linker_0, # of connection points: 2
#     Edge 65, Type (0, 0), BuildingBlock: CIFDUS_clean_linker_0, # of connection points: 2
#     Edge 66, Type (0, 0), BuildingBlock: CIFDUS_clean_linker_0, # of connection points: 2
#     Edge 67, Type (0, 0), BuildingBlock: CIFDUS_clean_linker_0, # of connection points: 2
#     Edge 68, Type (0, 0), BuildingBlock: CIFDUS_clean_linker_0, # of connection points: 2
#     Edge 69, Type (0, 0), BuildingBlock: CIFDUS_clean_linker_0, # of connection points: 2
#     Edge 70, Type (0, 0), BuildingBlock: CIFDUS_clean_linker_0, # of connection points: 2
#     Edge 71, Type (0, 0), BuildingBlock: CIFDUS_clean_linker_0, # of connection points: 2
#     Edge 72, Type (0, 0), BuildingBlock: CIFDUS_clean_linker_0, # of connection points: 2
#     Edge 73, Type (0, 0), BuildingBlock: CIFDUS_clean_linker_0, # of connection points: 2
#     Edge 74, Type (0, 0), BuildingBlock: CIFDUS_clean_linker_0, # of connection points: 2
#     Edge 75, Type (0, 0), BuildingBlock: CIFDUS_clean_linker_0, # of connection points: 2
#     Edge 76, Type (0, 0), BuildingBlock: CIFDUS_clean_linker_0, # of connection points: 2
#     Edge 77, Type (0, 0), BuildingBlock: CIFDUS_clean_linker_0, # of connection points: 2
#     Edge 78, Type (0, 0), BuildingBlock: CIFDUS_clean_linker_0, # of connection points: 2
#     Edge 79, Type (0, 0), BuildingBlock: CIFDUS_clean_linker_0, # of connection points: 2
#     Edge 80, Type (0, 0), BuildingBlock: CIFDUS_clean_linker_0, # of connection points: 2
#     Edge 81, Type (0, 0), BuildingBlock: CIFDUS_clean_linker_0, # of connection points: 2
#     Edge 82, Type (0, 0), BuildingBlock: CIFDUS_clean_linker_0, # of connection points: 2
#     Edge 83, Type (0, 0), BuildingBlock: CIFDUS_clean_linker_0, # of connection points: 2
#     Edge 84, Type (0, 0), BuildingBlock: CIFDUS_clean_linker_0, # of connection points: 2
#     Edge 85, Type (0, 0), BuildingBlock: CIFDUS_clean_linker_0, # of connection points: 2
#     Edge 86, Type (0, 0), BuildingBlock: CIFDUS_clean_linker_0, # of connection points: 2
#     Edge 87, Type (0, 0), BuildingBlock: CIFDUS_clean_linker_0, # of connection points: 2
#     Edge 88, Type (0, 0), BuildingBlock: CIFDUS_clean_linker_0, # of connection points: 2
#     Edge 89, Type (0, 0), BuildingBlock: CIFDUS_clean_linker_0, # of connection points: 2
#     Edge 90, Type (0, 0), BuildingBlock: CIFDUS_clean_linker_0, # of connection points: 2
#     Edge 91, Type (0, 0), BuildingBlock: CIFDUS_clean_linker_0, # of connection points: 2
#     Edge 92, Type (0, 0), BuildingBlock: CIFDUS_clean_linker_0, # of connection points: 2
#     Edge 93, Type (0, 0), BuildingBlock: CIFDUS_clean_linker_0, # of connection points: 2
#     Edge 94, Type (0, 0), BuildingBlock: CIFDUS_clean_linker_0, # of connection points: 2
#     Edge 95, Type (0, 0), BuildingBlock: CIFDUS_clean_linker_0, # of connection points: 2
# Relax obj value: 0.074
# Max RMSD: 0.149
# Mean RMSD: 0.149
data_MOF--net-ukc--node1-QUQFOY_clean_sbu_1--edge1-CIFDUS_clean_linker_0
_symmetry_space_group_name_H-M    P1
_symmetry_Int_Tables_number       1
_symmetry_cell_setting            triclinic
loop_
_symmetry_equiv_pos_as_xyz
'x, y, z'
_cell_length_a     43.26059
_cell_length_b     43.431916
_cell_length_c     73.552962
_cell_angle_alpha  90.044201
_cell_angle_beta   89.768314
_cell_angle_gamma 90.045536
loop_
_atom_site_label
_atom_site_type_symbol
_atom_site_fract_x
_atom_site_fract_y
_atom_site_fract_z
_atom_type_partial_charge
O0 O 0.12666 0.35199 0.06231 0.0
Cd1 Cd 0.1213 0.35258 0.0346 0.0
Cd2 Cd 0.07319 0.38961 0.04377 0.0
O3 O 0.09318 0.38837 0.0694 0.0
O4 O 0.16043 0.33393 0.02569 0.0
O5 O 0.14754 0.38222 0.02005 0.0
C6 C 0.16746 0.36019 0.01868 0.0
C7 C 0.05739 0.43511 0.02978 0.0
C8 C 0.11402 0.3693 0.0741 0.0
C9 C 0.05847 0.32784 0.02722 0.0
O10 O 0.04854 0.35147 0.03558 0.0
O11 O 0.08721 0.32453 0.02419 0.0
O12 O 0.04211 0.42348 0.04322 0.0
O13 O 0.08283 0.42175 0.02494 0.0
O14 O 0.89449 0.87192 0.3137 0.0
Cd15 Cd 0.89814 0.86812 0.28601 0.0
Cd16 Cd 0.86972 0.81143 0.29439 0.0
O17 O 0.86821 0.82993 0.3205 0.0
O18 O 0.9164 0.90898 0.28031 0.0
O19 O 0.87057 0.89489 0.27029 0.0
C20 C 0.89172 0.91576 0.27151 0.0
C21 C 0.82611 0.78798 0.28146 0.0
C22 C 0.88128 0.85487 0.32538 0.0
C23 C 0.93423 0.8103 0.2783 0.0
O24 O 0.91209 0.79519 0.28543 0.0
O25 O 0.93236 0.83931 0.2764 0.0
O26 O 0.84167 0.77479 0.29418 0.0
O27 O 0.83478 0.81515 0.27639 0.0
O28 O 0.39066 0.65257 0.55994 0.0
Cd29 Cd 0.39524 0.65338 0.53217 0.0
Cd30 Cd 0.44406 0.61504 0.54107 0.0
O31 O 0.42397 0.61604 0.56686 0.0
O32 O 0.35625 0.67427 0.52494 0.0
O33 O 0.36673 0.62617 0.51745 0.0
C34 C 0.34751 0.64892 0.51748 0.0
C35 C 0.46051 0.56954 0.52689 0.0
C36 C 0.40313 0.63515 0.57165 0.0
C37 C 0.45855 0.67766 0.52489 0.0
O38 O 0.46825 0.65371 0.53299 0.0
O39 O 0.42985 0.68123 0.52187 0.0
O40 O 0.47563 0.58141 0.54025 0.0
O41 O 0.43495 0.58267 0.52218 0.0
O42 O 0.612 0.13245 0.81201 0.0
Cd43 Cd 0.61077 0.13753 0.78427 0.0
Cd44 Cd 0.64158 0.19248 0.79374 0.0
O45 O 0.64206 0.17164 0.81924 0.0
O46 O 0.59239 0.0976 0.77672 0.0
O47 O 0.6395 0.11166 0.76865 0.0
C48 C 0.61779 0.09125 0.7684 0.0
C49 C 0.68526 0.21797 0.78206 0.0
C50 C 0.62662 0.14789 0.82385 0.0
C51 C 0.5777 0.19695 0.77723 0.0
O52 O 0.59989 0.21052 0.78522 0.0
O53 O 0.5786 0.1681 0.77444 0.0
O54 O 0.66949 0.22915 0.79541 0.0
O55 O 0.67698 0.19147 0.77571 0.0
O56 O 0.12712 0.65982 0.44421 0.0
Cd57 Cd 0.12305 0.66004 0.47201 0.0
Cd58 Cd 0.07398 0.6188 0.46223 0.0
O59 O 0.09587 0.62151 0.43697 0.0
O60 O 0.15919 0.68582 0.47905 0.0
O61 O 0.15546 0.63666 0.48629 0.0
C62 C 0.17131 0.66186 0.48639 0.0
C63 C 0.05229 0.57305 0.47354 0.0
C64 C 0.1157 0.64183 0.43239 0.0
C65 C 0.05811 0.68036 0.47951 0.0
O66 O 0.04931 0.65677 0.4707 0.0
O67 O 0.08659 0.68478 0.4828 0.0
O68 O 0.04079 0.587 0.45967 0.0
O69 O 0.07754 0.58395 0.48033 0.0
O70 O 0.61619 0.87292 0.6854 0.0
Cd71 Cd 0.60717 0.87343 0.71286 0.0
Cd72 Cd 0.64075 0.81711 0.71008 0.0
O73 O 0.64497 0.83108 0.68323 0.0
O74 O 0.58425 0.91285 0.71561 0.0
O75 O 0.62904 0.9045 0.72896 0.0
C76 C 0.60607 0.92269 0.7259 0.0
C77 C 0.68385 0.79904 0.72595 0.0
C78 C 0.63209 0.85428 0.67589 0.0
C79 C 0.57451 0.81403 0.72286 0.0
O80 O 0.59868 0.79932 0.71824 0.0
O81 O 0.57401 0.84325 0.72231 0.0
O82 O 0.67061 0.78258 0.71364 0.0
O83 O 0.67308 0.82636 0.72893 0.0
O84 O 0.3911 0.36594 0.94062 0.0
Cd85 Cd 0.39011 0.35665 0.96798 0.0
Cd86 Cd 0.44755 0.39077 0.965 0.0
O87 O 0.43288 0.39499 0.93825 0.0
O88 O 0.35118 0.33236 0.96982 0.0
O89 O 0.35724 0.37689 0.98377 0.0
C90 C 0.33992 0.35352 0.9801 0.0
C91 C 0.46671 0.43381 0.98065 0.0
C92 C 0.40957 0.38194 0.93104 0.0
C93 C 0.45009 0.32452 0.97764 0.0
O94 O 0.46492 0.34854 0.97294 0.0
O95 O 0.42073 0.3241 0.97735 0.0
O96 O 0.48275 0.42023 0.96821 0.0
O97 O 0.43926 0.42335 0.98395 0.0
O98 O 0.89738 0.13269 0.19394 0.0
Cd99 Cd 0.90124 0.13692 0.2216 0.0
Cd100 Cd 0.86935 0.19354 0.21228 0.0
O101 O 0.86927 0.17322 0.1866 0.0
O102 O 0.92549 0.09914 0.22692 0.0
O103 O 0.87824 0.10606 0.23748 0.0
C104 C 0.90241 0.08884 0.23611 0.0
C105 C 0.82505 0.2177 0.22418 0.0
C106 C 0.88351 0.14869 0.18208 0.0
C107 C 0.93332 0.19776 0.22867 0.0
O108 O 0.91091 0.21161 0.22109 0.0
O109 O 0.93262 0.1688 0.23099 0.0
O110 O 0.84088 0.2298 0.21112 0.0
O111 O 0.83374 0.19108 0.23012 0.0
O112 O 0.89384 0.64498 0.93958 0.0
Cd113 Cd 0.89397 0.65373 0.96708 0.0
Cd114 Cd 0.9451 0.61177 0.96418 0.0
O115 O 0.92947 0.60868 0.93763 0.0
O116 O 0.85653 0.67996 0.97023 0.0
O117 O 0.86066 0.63388 0.98262 0.0
C118 C 0.84437 0.6583 0.97979 0.0
C119 C 0.96246 0.56803 0.97968 0.0
C120 C 0.90904 0.62556 0.93022 0.0
C121 C 0.95745 0.67714 0.97674 0.0
O122 O 0.96807 0.6513 0.9716 0.0
O123 O 0.9285 0.68214 0.97687 0.0
O124 O 0.97812 0.57994 0.96652 0.0
O125 O 0.93596 0.58016 0.98356 0.0
O126 O 0.10355 0.13176 0.69429 0.0
Cd127 Cd 0.10101 0.13596 0.72204 0.0
Cd128 Cd 0.14308 0.18607 0.71281 0.0
O129 O 0.14069 0.16483 0.68749 0.0
O130 O 0.07495 0.09971 0.72861 0.0
O131 O 0.12372 0.1039 0.73693 0.0
C132 C 0.09859 0.08786 0.73649 0.0
C133 C 0.18937 0.20838 0.72309 0.0
C134 C 0.1215 0.14412 0.6827 0.0
C135 C 0.08009 0.2008 0.72951 0.0
O136 O 0.10463 0.20992 0.72163 0.0
O137 O 0.07514 0.17226 0.73209 0.0
O138 O 0.17403 0.21995 0.70978 0.0
O139 O 0.17929 0.18297 0.73007 0.0
O140 O 0.63057 0.35942 0.44348 0.0
Cd141 Cd 0.62704 0.35786 0.47128 0.0
Cd142 Cd 0.57345 0.38988 0.46322 0.0
O143 O 0.59162 0.39017 0.43693 0.0
O144 O 0.66771 0.3397 0.47779 0.0
O145 O 0.65387 0.38643 0.48629 0.0
C146 C 0.6746 0.36506 0.48585 0.0
C147 C 0.55544 0.43427 0.47792 0.0
C148 C 0.61484 0.37424 0.43188 0.0
C149 C 0.56707 0.32634 0.47957 0.0
O150 O 0.55384 0.34912 0.47205 0.0
O151 O 0.59622 0.32613 0.48166 0.0
O152 O 0.53975 0.42129 0.46515 0.0
O153 O 0.58219 0.42277 0.4818 0.0
O154 O 0.39938 0.87524 0.19025 0.0
Cd155 Cd 0.40346 0.87121 0.21793 0.0
Cd156 Cd 0.37137 0.81646 0.20968 0.0
O157 O 0.37053 0.8349 0.18353 0.0
O158 O 0.42751 0.90913 0.22328 0.0
O159 O 0.38037 0.90179 0.23394 0.0
C160 C 0.40446 0.91917 0.23258 0.0
C161 C 0.32675 0.80069 0.22528 0.0
C162 C 0.38504 0.85908 0.17862 0.0
C163 C 0.43524 0.81039 0.2252 0.0
O164 O 0.41246 0.79665 0.21791 0.0
O165 O 0.43485 0.83941 0.22733 0.0
O166 O 0.33866 0.78411 0.21247 0.0
O167 O 0.33959 0.82695 0.22876 0.0
O168 O 0.89009 0.36479 0.56537 0.0
Cd169 Cd 0.8953 0.36112 0.53769 0.0
Cd170 Cd 0.94777 0.39941 0.54708 0.0
O171 O 0.9259 0.39906 0.57237 0.0
O172 O 0.85891 0.33514 0.53143 0.0
O173 O 0.86398 0.38294 0.52174 0.0
C174 C 0.84778 0.35801 0.52253 0.0
C175 C 0.97116 0.44374 0.53499 0.0
C176 C 0.9035 0.38166 0.57704 0.0
C177 C 0.95936 0.33599 0.53125 0.0
O178 O 0.97006 0.35967 0.5392 0.0
O179 O 0.93056 0.33327 0.52833 0.0
O180 O 0.98239 0.4298 0.54894 0.0
O181 O 0.94541 0.43354 0.52846 0.0
O182 O 0.39758 0.13562 0.3118 0.0
Cd183 Cd 0.39998 0.13896 0.28405 0.0
Cd184 Cd 0.37022 0.19508 0.29222 0.0
O185 O 0.36973 0.17672 0.31833 0.0
O186 O 0.41824 0.09825 0.2781 0.0
O187 O 0.37193 0.11199 0.26872 0.0
C188 C 0.39328 0.09132 0.2696 0.0
C189 C 0.32613 0.21932 0.28042 0.0
C190 C 0.38391 0.15253 0.32337 0.0
C191 C 0.43454 0.19721 0.27571 0.0
O192 O 0.41212 0.21185 0.28286 0.0
O193 O 0.43341 0.16813 0.27398 0.0
O194 O 0.34258 0.23197 0.29295 0.0
O195 O 0.3342 0.19224 0.27487 0.0
O196 O 0.62753 0.65975 0.05808 0.0
Cd197 Cd 0.62266 0.65888 0.03034 0.0
Cd198 Cd 0.57514 0.61972 0.03962 0.0
O199 O 0.59512 0.62242 0.06528 0.0
O200 O 0.66173 0.67824 0.02165 0.0
O201 O 0.64983 0.62966 0.01609 0.0
C202 C 0.6695 0.65198 0.01489 0.0
C203 C 0.55967 0.5729 0.02667 0.0
C204 C 0.61535 0.64224 0.06992 0.0
C205 C 0.55901 0.68133 0.02275 0.0
O206 O 0.54982 0.65723 0.03096 0.0
O207 O 0.58767 0.68575 0.01985 0.0
O208 O 0.54433 0.58535 0.03982 0.0
O209 O 0.58486 0.58633 0.02143 0.0
O210 O 0.10984 0.87009 0.81063 0.0
Cd211 Cd 0.10735 0.86494 0.78293 0.0
Cd212 Cd 0.14719 0.81716 0.79127 0.0
O213 O 0.14724 0.83734 0.81694 0.0
O214 O 0.08605 0.90364 0.77562 0.0
O215 O 0.13409 0.89301 0.76756 0.0
C216 C 0.11129 0.91221 0.76777 0.0
C217 C 0.19238 0.8012 0.77639 0.0
C218 C 0.12819 0.85801 0.82201 0.0
C219 C 0.08382 0.8012 0.77655 0.0
O220 O 0.10852 0.79218 0.78418 0.0
O221 O 0.07944 0.82969 0.77347 0.0
O222 O 0.18134 0.78623 0.79009 0.0
O223 O 0.17861 0.82638 0.77172 0.0
O224 O 0.61825 0.86487 0.56094 0.0
Cd225 Cd 0.61824 0.85663 0.53342 0.0
Cd226 Cd 0.56638 0.89831 0.53654 0.0
O227 O 0.58222 0.90074 0.56311 0.0
O228 O 0.65568 0.83036 0.53038 0.0
O229 O 0.65187 0.87658 0.51815 0.0
C230 C 0.66808 0.85213 0.52101 0.0
C231 C 0.54894 0.94306 0.52192 0.0
C232 C 0.60285 0.88397 0.57041 0.0
C233 C 0.5549 0.83281 0.52357 0.0
O234 O 0.54391 0.85855 0.52868 0.0
O235 O 0.58391 0.82815 0.52353 0.0
O236 O 0.53317 0.93017 0.53471 0.0
O237 O 0.57538 0.93109 0.51776 0.0
O238 O 0.3943 0.37082 0.81593 0.0
Cd239 Cd 0.40262 0.37115 0.78843 0.0
Cd240 Cd 0.36918 0.31233 0.79233 0.0
O241 O 0.36545 0.32902 0.81873 0.0
O242 O 0.4262 0.41026 0.78576 0.0
O243 O 0.3811 0.40285 0.7726 0.0
C244 C 0.40442 0.42062 0.77566 0.0
C245 C 0.32701 0.2859 0.77957 0.0
C246 C 0.3785 0.3525 0.82571 0.0
C247 C 0.43563 0.31169 0.7788 0.0
O248 O 0.41201 0.29656 0.78396 0.0
O249 O 0.4355 0.34093 0.77885 0.0
O250 O 0.34329 0.27411 0.79241 0.0
O251 O 0.33413 0.3133 0.77416 0.0
O252 O 0.89296 0.15055 0.06236 0.0
Cd253 Cd 0.89874 0.14909 0.0347 0.0
Cd254 Cd 0.94796 0.11207 0.04528 0.0
O255 O 0.92555 0.11402 0.07039 0.0
O256 O 0.86018 0.16927 0.02627 0.0
O257 O 0.87098 0.12062 0.02031 0.0
C258 C 0.85184 0.14336 0.01934 0.0
C259 C 0.97 0.06684 0.03369 0.0
C260 C 0.90469 0.13353 0.07453 0.0
C261 C 0.96186 0.17374 0.02783 0.0
O262 O 0.97154 0.15084 0.03692 0.0
O263 O 0.93334 0.17645 0.02411 0.0
O264 O 0.9815 0.08073 0.04759 0.0
O265 O 0.94462 0.07758 0.02698 0.0
O266 O 0.11895 0.6383 0.3128 0.0
Cd267 Cd 0.11559 0.64203 0.2851 0.0
Cd268 Cd 0.14471 0.69713 0.29305 0.0
O269 O 0.14635 0.67961 0.31941 0.0
O270 O 0.09666 0.60149 0.27945 0.0
O271 O 0.14283 0.61472 0.26937 0.0
C272 C 0.12129 0.59426 0.27061 0.0
C273 C 0.18879 0.71343 0.27715 0.0
C274 C 0.13259 0.65507 0.32441 0.0
C275 C 0.08045 0.70037 0.27755 0.0
O276 O 0.1028 0.71506 0.28467 0.0
O277 O 0.08196 0.67135 0.27553 0.0
O278 O 0.17647 0.73024 0.28971 0.0
O279 O 0.1766 0.68673 0.27404 0.0
O280 O 0.63123 0.14925 0.94341 0.0
Cd281 Cd 0.62862 0.15371 0.97115 0.0
Cd282 Cd 0.57309 0.1202 0.96332 0.0
O283 O 0.59168 0.11891 0.93715 0.0
O284 O 0.66674 0.17827 0.97553 0.0
O285 O 0.66064 0.13144 0.98648 0.0
C286 C 0.67778 0.15555 0.98457 0.0
C287 C 0.55426 0.07628 0.97827 0.0
C288 C 0.61531 0.13416 0.93199 0.0
C289 C 0.56732 0.18437 0.97892 0.0
O290 O 0.5539 0.16149 0.97158 0.0
O291 O 0.59644 0.18446 0.98107 0.0
O292 O 0.53892 0.08916 0.96534 0.0
O293 O 0.58105 0.08765 0.98222 0.0
O294 O 0.11384 0.37621 0.19349 0.0
Cd295 Cd 0.1085 0.3729 0.22112 0.0
Cd296 Cd 0.14044 0.31573 0.21304 0.0
O297 O 0.1416 0.33489 0.18714 0.0
O298 O 0.0849 0.41133 0.22594 0.0
O299 O 0.13151 0.40352 0.23704 0.0
C300 C 0.10781 0.42126 0.23531 0.0
C301 C 0.1844 0.29141 0.22497 0.0
C302 C 0.12805 0.35942 0.18206 0.0
C303 C 0.07565 0.31263 0.22873 0.0
O304 O 0.0985 0.29828 0.22187 0.0
O305 O 0.07623 0.34173 0.2304 0.0
O306 O 0.16834 0.27903 0.21218 0.0
O307 O 0.17601 0.31827 0.23073 0.0
O308 O 0.8865 0.85051 0.44519 0.0
Cd309 Cd 0.89123 0.85224 0.4729 0.0
Cd310 Cd 0.93968 0.89123 0.4628 0.0
O311 O 0.91813 0.88829 0.4376 0.0
O312 O 0.85224 0.8327 0.48156 0.0
O313 O 0.86356 0.88152 0.48679 0.0
C314 C 0.84408 0.85904 0.48804 0.0
C315 C 0.96118 0.93726 0.47364 0.0
C316 C 0.89814 0.86809 0.4332 0.0
C317 C 0.95478 0.82981 0.48041 0.0
O318 O 0.96395 0.85324 0.47157 0.0
O319 O 0.9262 0.82583 0.48376 0.0
O320 O 0.97299 0.92279 0.45999 0.0
O321 O 0.93583 0.92657 0.48054 0.0
O322 O 0.39987 0.63142 0.69132 0.0
Cd323 Cd 0.40203 0.63662 0.71904 0.0
Cd324 Cd 0.37072 0.68956 0.71037 0.0
O325 O 0.36971 0.67057 0.6844 0.0
O326 O 0.42022 0.59661 0.72651 0.0
O327 O 0.37336 0.61106 0.73486 0.0
C328 C 0.39486 0.59046 0.73494 0.0
C329 C 0.32669 0.70724 0.72567 0.0
C330 C 0.38509 0.64691 0.67959 0.0
C331 C 0.43463 0.69636 0.72591 0.0
O332 O 0.41182 0.70946 0.7183 0.0
O333 O 0.43442 0.66746 0.72856 0.0
O334 O 0.3389 0.72275 0.71251 0.0
O335 O 0.33875 0.68083 0.72959 0.0
O336 O 0.38159 0.15867 0.44315 0.0
Cd337 Cd 0.38503 0.15966 0.47093 0.0
Cd338 Cd 0.43833 0.12748 0.46262 0.0
O339 O 0.42025 0.12753 0.43647 0.0
O340 O 0.34435 0.17769 0.47765 0.0
O341 O 0.35806 0.13071 0.48566 0.0
C342 C 0.33732 0.15207 0.4854 0.0
C343 C 0.45595 0.08235 0.47647 0.0
C344 C 0.39721 0.14366 0.43151 0.0
C345 C 0.44504 0.19067 0.47941 0.0
O346 O 0.45821 0.16792 0.47173 0.0
O347 O 0.41587 0.19102 0.48152 0.0
O348 O 0.47181 0.09586 0.4639 0.0
O349 O 0.42936 0.09395 0.48074 0.0
O350 O 0.61869 0.63529 0.18939 0.0
Cd351 Cd 0.61444 0.63904 0.21706 0.0
Cd352 Cd 0.6436 0.69553 0.20914 0.0
O353 O 0.64515 0.67735 0.18295 0.0
O354 O 0.5962 0.59819 0.22276 0.0
O355 O 0.6417 0.61259 0.23313 0.0
C356 C 0.62062 0.59167 0.23186 0.0
C357 C 0.68716 0.71902 0.22213 0.0
C358 C 0.63209 0.65252 0.17787 0.0
C359 C 0.5787 0.69701 0.22474 0.0
O360 O 0.60129 0.71198 0.21801 0.0
O361 O 0.58006 0.66792 0.22636 0.0
O362 O 0.67163 0.73219 0.2094 0.0
O363 O 0.67851 0.69182 0.22718 0.0
O364 O 0.12745 0.85438 0.94138 0.0
Cd365 Cd 0.12256 0.85151 0.96912 0.0
Cd366 Cd 0.0728 0.89268 0.96001 0.0
O367 O 0.09484 0.89185 0.93484 0.0
O368 O 0.15875 0.82545 0.97568 0.0
O369 O 0.15441 0.87386 0.98443 0.0
C370 C 0.17046 0.84883 0.98389 0.0
C371 C 0.05049 0.93761 0.97197 0.0
C372 C 0.11555 0.8727 0.92993 0.0
C373 C 0.0575 0.82977 0.97559 0.0
O374 O 0.04851 0.85392 0.96745 0.0
O375 O 0.08602 0.82549 0.97885 0.0
O376 O 0.03928 0.92411 0.95786 0.0
O377 O 0.07572 0.92665 0.97873 0.0
O378 O 0.90701 0.37603 0.69653 0.0
Cd379 Cd 0.90942 0.37033 0.7242 0.0
Cd380 Cd 0.86729 0.32099 0.71427 0.0
O381 O 0.86962 0.34357 0.68932 0.0
O382 O 0.9354 0.40615 0.73162 0.0
O383 O 0.88652 0.40139 0.73986 0.0
C384 C 0.91167 0.41741 0.73984 0.0
C385 C 0.82112 0.29848 0.72487 0.0
C386 C 0.88897 0.36438 0.68479 0.0
C387 C 0.93017 0.30506 0.73028 0.0
O388 O 0.90568 0.29644 0.72226 0.0
O389 O 0.93511 0.33342 0.73346 0.0
O390 O 0.83588 0.28757 0.71106 0.0
O391 O 0.83161 0.32346 0.73215 0.0
O392 O 0.38951 0.85518 0.05879 0.0
Cd393 Cd 0.39377 0.85535 0.03101 0.0
Cd394 Cd 0.44213 0.89452 0.04002 0.0
O395 O 0.42227 0.8922 0.0659 0.0
O396 O 0.35474 0.83474 0.02344 0.0
O397 O 0.36532 0.88316 0.01673 0.0
C398 C 0.34606 0.86041 0.01637 0.0
C399 C 0.45843 0.9407 0.02648 0.0
C400 C 0.40188 0.87252 0.07061 0.0
C401 C 0.45732 0.83248 0.0231 0.0
O402 O 0.46672 0.85651 0.03127 0.0
O403 O 0.42862 0.82827 0.02033 0.0
O404 O 0.47356 0.92842 0.03969 0.0
O405 O 0.43289 0.92765 0.02161 0.0
O406 O 0.89763 0.63969 0.81529 0.0
Cd407 Cd 0.90438 0.64021 0.78759 0.0
Cd408 Cd 0.86424 0.69055 0.79071 0.0
O409 O 0.86178 0.67566 0.81745 0.0
O410 O 0.92435 0.59971 0.78254 0.0
O411 O 0.87812 0.61201 0.77217 0.0
C412 C 0.89987 0.59182 0.77377 0.0
C413 C 0.81954 0.70701 0.77569 0.0
C414 C 0.87866 0.6552 0.82481 0.0
C415 C 0.92983 0.70205 0.77738 0.0
O416 O 0.90399 0.71294 0.78255 0.0
O417 O 0.9345 0.67313 0.77744 0.0
O418 O 0.83209 0.72326 0.78833 0.0
O419 O 0.83177 0.68059 0.77198 0.0
O420 O 0.1204 0.14933 0.56335 0.0
Cd421 Cd 0.11517 0.15362 0.53576 0.0
Cd422 Cd 0.06295 0.11477 0.54493 0.0
O423 O 0.08479 0.11463 0.57007 0.0
O424 O 0.15138 0.17999 0.52966 0.0
O425 O 0.14676 0.13236 0.51958 0.0
C426 C 0.16279 0.15737 0.5206 0.0
C427 C 0.03977 0.07027 0.53308 0.0
C428 C 0.10707 0.13199 0.57485 0.0
C429 C 0.05099 0.17851 0.52976 0.0
O430 O 0.04039 0.15452 0.53744 0.0
O431 O 0.0798 0.1815 0.52681 0.0
O432 O 0.02846 0.08432 0.54703 0.0
O433 O 0.06537 0.0806 0.52632 0.0
O434 O 0.61172 0.37601 0.31199 0.0
Cd435 Cd 0.60877 0.37216 0.28425 0.0
Cd436 Cd 0.64091 0.31587 0.29315 0.0
O437 O 0.64089 0.33599 0.31889 0.0
O438 O 0.58502 0.41009 0.27856 0.0
O439 O 0.63257 0.40269 0.26859 0.0
C440 C 0.60845 0.42006 0.26956 0.0
C441 C 0.68536 0.29188 0.28131 0.0
C442 C 0.62603 0.36001 0.32368 0.0
C443 C 0.57717 0.31138 0.27655 0.0
O444 O 0.5995 0.29753 0.2842 0.0
O445 O 0.57779 0.34038 0.27439 0.0
O446 O 0.6695 0.27969 0.29432 0.0
O447 O 0.67664 0.31848 0.27537 0.0
H448 H 0.01936 0.54212 0.97629 0.0
H449 H 0.93502 0.53667 0.0077 0.0
H450 H 0.95752 0.49603 0.02644 0.0
H451 H 1.00102 0.46198 0.03381 0.0
H452 H 0.0852 0.46725 0.00224 0.0
H453 H 0.06294 0.50835 0.98378 0.0
C454 C 1.00579 0.53197 0.98718 0.0
C455 C 0.97545 0.54237 0.99052 0.0
C456 C 0.01894 0.50878 0.99797 0.0
C457 C 0.95835 0.52905 0.00477 0.0
C458 C 0.97125 0.50587 0.01553 0.0
C459 C 0.01463 0.47226 0.02299 0.0
C460 C 0.04482 0.46158 0.01947 0.0
C461 C 1.00154 0.49562 0.01228 0.0
C462 C 0.06197 0.47505 0.00529 0.0
C463 C 0.04921 0.49849 0.99468 0.0
H464 H 0.72081 0.70047 0.25151 0.0
H465 H 0.71203 0.77459 0.21283 0.0
H466 H 0.7535 0.80273 0.22789 0.0
H467 H 0.79237 0.80657 0.25213 0.0
H468 H 0.80116 0.73246 0.29082 0.0
H469 H 0.75964 0.70434 0.27578 0.0
C470 C 0.72806 0.72271 0.24632 0.0
C471 C 0.7133 0.73529 0.23101 0.0
C472 C 0.75189 0.73896 0.25513 0.0
C473 C 0.72295 0.76426 0.22456 0.0
C474 C 0.74667 0.78045 0.23319 0.0
C475 C 0.78512 0.78434 0.25733 0.0
C476 C 0.7999 0.77175 0.27262 0.0
C477 C 0.76127 0.7681 0.24853 0.0
C478 C 0.79023 0.74279 0.27909 0.0
C479 C 0.76648 0.72661 0.27047 0.0
H480 H 0.49843 0.46028 0.4744 0.0
H481 H 0.58285 0.46706 0.50524 0.0
H482 H 0.56052 0.50859 0.52345 0.0
H483 H 0.51709 0.54297 0.53068 0.0
H484 H 0.43279 0.53658 0.49971 0.0
H485 H 0.45494 0.49473 0.48163 0.0
C486 C 0.51204 0.47092 0.48504 0.0
C487 C 0.54237 0.46055 0.48837 0.0
C488 C 0.49898 0.49472 0.49555 0.0
C489 C 0.55953 0.47458 0.5023 0.0
C490 C 0.54673 0.49829 0.51278 0.0
C491 C 0.50343 0.53231 0.52006 0.0
C492 C 0.47322 0.54288 0.51663 0.0
C493 C 0.51645 0.50848 0.50957 0.0
C494 C 0.45603 0.52889 0.5027 0.0
C495 C 0.46873 0.505 0.49231 0.0
H496 H 0.78986 0.31052 0.75646 0.0
H497 H 0.79279 0.24748 0.7111 0.0
H498 H 0.75189 0.2166 0.72491 0.0
H499 H 0.71566 0.20679 0.75013 0.0
H500 H 0.71239 0.26996 0.7954 0.0
H501 H 0.75303 0.30114 0.78148 0.0
C502 C 0.78136 0.29019 0.74952 0.0
C503 C 0.79442 0.28145 0.73273 0.0
C504 C 0.75791 0.27227 0.75762 0.0
C505 C 0.7832 0.25486 0.72401 0.0
C506 C 0.75983 0.23706 0.73193 0.0
C507 C 0.72397 0.22727 0.75701 0.0
C508 C 0.71105 0.23587 0.77385 0.0
C509 C 0.74718 0.24537 0.74881 0.0
C510 C 0.72192 0.2627 0.78246 0.0
C511 C 0.74515 0.28063 0.77448 0.0
H512 H 0.9609 0.46967 0.50176 0.0
H513 H 0.02133 0.47437 0.54822 0.0
H514 H 0.05265 0.51348 0.53304 0.0
H515 H 0.06311 0.54649 0.50653 0.0
H516 H 1.0027 0.54177 0.46007 0.0
H517 H 0.97158 0.5024 0.47515 0.0
C518 C 0.98076 0.47944 0.50863 0.0
C519 C 0.98858 0.46916 0.52616 0.0
C520 C 0.99899 0.50173 0.49972 0.0
C521 C 0.01465 0.48188 0.53475 0.0
C522 C 0.0327 0.5042 0.52605 0.0
C523 C 0.04334 0.53662 0.49963 0.0
C524 C 0.0354 0.54704 0.48214 0.0
C525 C 0.02522 0.51419 0.50849 0.0
C526 C 0.00946 0.53417 0.4735 0.0
C527 C 0.99152 0.51171 0.48215 0.0
H528 H 0.70922 0.74184 0.72351 0.0
H529 H 0.71692 0.82781 0.75265 0.0
H530 H 0.75887 0.80655 0.77089 0.0
H531 H 0.79342 0.76371 0.77851 0.0
H532 H 0.78608 0.67783 0.74926 0.0
H533 H 0.74374 0.69889 0.7312 0.0
C534 C 0.72011 0.756 0.73382 0.0
C535 C 0.70993 0.78645 0.73666 0.0
C536 C 0.74417 0.74359 0.7443 0.0
C537 C 0.72429 0.80436 0.75013 0.0
C538 C 0.74826 0.79219 0.7606 0.0
C539 C 0.78248 0.74949 0.76825 0.0
C540 C 0.7929 0.71917 0.76529 0.0
C541 C 0.75834 0.76184 0.75782 0.0
C542 C 0.77852 0.7012 0.75186 0.0
C543 C 0.75434 0.71326 0.7415 0.0
H544 H 0.52378 0.45968 0.97689 0.0
H545 H 0.4392 0.46686 0.00794 0.0
H546 H 0.46103 0.5095 0.02539 0.0
H547 H 0.5038 0.54522 0.03156 0.0
H548 H 0.58808 0.53865 1.0002 0.0
H549 H 0.56676 0.49512 0.98327 0.0
C550 C 0.51006 0.47057 0.98746 0.0
C551 C 0.4798 0.46007 0.99104 0.0
C552 C 0.52277 0.49511 0.99745 0.0
C553 C 0.46247 0.47447 0.00483 0.0
C554 C 0.47498 0.49884 0.01485 0.0
C555 C 0.51765 0.53414 0.02112 0.0
C556 C 0.54758 0.54519 0.01721 0.0
C557 C 0.50508 0.50937 0.01127 0.0
C558 C 0.56503 0.53063 0.00353 0.0
C559 C 0.55281 0.50577 0.9938 0.0
H560 H 0.79137 0.20213 0.25433 0.0
H561 H 0.79966 0.27181 0.21279 0.0
H562 H 0.758 0.30126 0.22693 0.0
H563 H 0.71912 0.30753 0.25119 0.0
H564 H 0.71084 0.23784 0.29273 0.0
H565 H 0.75253 0.20843 0.2786 0.0
C566 C 0.78396 0.22367 0.24831 0.0
C567 C 0.79865 0.23462 0.23247 0.0
C568 C 0.76004 0.2407 0.2566 0.0
C569 C 0.7888 0.26272 0.22495 0.0
C570 C 0.76498 0.27968 0.23306 0.0
C571 C 0.72655 0.286 0.25722 0.0
C572 C 0.71183 0.27503 0.27305 0.0
C573 C 0.75048 0.26898 0.24893 0.0
C574 C 0.72171 0.24694 0.28057 0.0
C575 C 0.74555 0.23 0.27247 0.0
H576 H 0.29482 0.2994 0.74872 0.0
H577 H 0.30239 0.23163 0.79134 0.0
H578 H 0.26159 0.20103 0.77734 0.0
H579 H 0.22311 0.19365 0.75317 0.0
H580 H 0.21583 0.26124 0.71042 0.0
H581 H 0.25718 0.2914 0.72416 0.0
C582 C 0.28746 0.278 0.75498 0.0
C583 C 0.30159 0.26797 0.77112 0.0
C584 C 0.2641 0.26028 0.74675 0.0
C585 C 0.29192 0.24 0.77894 0.0
C586 C 0.26859 0.2224 0.77092 0.0
C587 C 0.23075 0.21483 0.74677 0.0
C588 C 0.21632 0.22507 0.73077 0.0
C589 C 0.25449 0.23228 0.75482 0.0
C590 C 0.22648 0.2527 0.72273 0.0
C591 C 0.2501 0.27009 0.73061 0.0
H592 H 0.21645 0.76978 0.2791 0.0
H593 H 0.22061 0.68323 0.25031 0.0
H594 H 0.26297 0.70281 0.23152 0.0
H595 H 0.29883 0.7445 0.22318 0.0
H596 H 0.2948 0.83099 0.25202 0.0
H597 H 0.25231 0.81148 0.27075 0.0
C598 C 0.22668 0.75512 0.26877 0.0
C599 C 0.21533 0.725 0.26619 0.0
C600 C 0.25097 0.76659 0.25792 0.0
C601 C 0.22885 0.70645 0.25266 0.0
C602 C 0.25307 0.71766 0.24186 0.0
C603 C 0.28858 0.75918 0.2335 0.0
C604 C 0.30002 0.78925 0.23612 0.0
C605 C 0.26426 0.74772 0.24433 0.0
C606 C 0.28649 0.80781 0.24965 0.0
C607 C 0.2622 0.79663 0.26041 0.0
H608 H 0.29068 0.20216 0.25146 0.0
H609 H 0.30209 0.2745 0.29114 0.0
H610 H 0.25991 0.30342 0.2774 0.0
H611 H 0.21974 0.30848 0.254 0.0
H612 H 0.20839 0.23618 0.21429 0.0
H613 H 0.25051 0.20723 0.22806 0.0
C614 C 0.28385 0.22418 0.25716 0.0
C615 C 0.29957 0.23604 0.27235 0.0
C616 C 0.25962 0.24088 0.24911 0.0
C617 C 0.29045 0.26473 0.27947 0.0
C618 C 0.26631 0.28137 0.2716 0.0
C619 C 0.22656 0.28646 0.24831 0.0
C620 C 0.21089 0.27463 0.23309 0.0
C621 C 0.25079 0.26975 0.25637 0.0
C622 C 0.22001 0.24594 0.22597 0.0
C623 C 0.2441 0.22928 0.23387 0.0
H624 H 0.21987 0.74527 0.78014 0.0
H625 H 0.22379 0.82871 0.74838 0.0
H626 H 0.26514 0.80676 0.72968 0.0
H627 H 0.29981 0.76366 0.72215 0.0
H628 H 0.29544 0.6801 0.7538 0.0
H629 H 0.25445 0.70225 0.77262 0.0
C630 C 0.22989 0.75879 0.76922 0.0
C631 C 0.21878 0.78869 0.76574 0.0
C632 C 0.25341 0.74588 0.75838 0.0
C633 C 0.23192 0.8057 0.75141 0.0
C634 C 0.25552 0.79311 0.74067 0.0
C635 C 0.28981 0.7502 0.7331 0.0
C636 C 0.30069 0.72017 0.73649 0.0
C637 C 0.26632 0.76316 0.74396 0.0
C638 C 0.2875 0.70319 0.75082 0.0
C639 C 0.2641 0.71589 0.76164 0.0
H640 H 0.49236 0.96941 0.5261 0.0
H641 H 0.57702 0.97697 0.49516 0.0
H642 H 0.55545 0.0202 0.47813 0.0
H643 H 0.51254 0.05581 0.47201 0.0
H644 H 0.42791 0.04805 0.50298 0.0
H645 H 0.44946 1.00479 0.51991 0.0
C646 C 0.50619 0.98056 0.51568 0.0
C647 C 0.53635 0.96997 0.51197 0.0
C648 C 0.49357 0.00527 0.50586 0.0
C649 C 0.5538 0.98465 0.49834 0.0
C650 C 0.54145 0.00935 0.48857 0.0
C651 C 0.49871 0.04459 0.4824 0.0
C652 C 0.46857 0.05519 0.48617 0.0
C653 C 0.51133 0.0198 0.49218 0.0
C654 C 0.45111 0.04039 0.49975 0.0
C655 C 0.46346 0.01567 0.50948 0.0
H656 H 0.06079 0.96319 0.00531 0.0
H657 H 1.00115 0.96918 0.95856 0.0
H658 H 0.97012 0.00846 0.97377 0.0
H659 H 0.95955 0.04105 1.00045 0.0
H660 H 0.01923 0.03517 0.04718 0.0
H661 H 0.05019 0.99577 0.03201 0.0
C662 C 0.04118 0.97329 0.99838 0.0
C663 C 0.03346 0.9633 0.98077 0.0
C664 C 0.02313 0.99568 0.00731 0.0
C665 C 0.00774 0.97646 0.97209 0.0
C666 C 0.98985 0.99887 0.98081 0.0
C667 C 0.97914 0.03093 0.00739 0.0
C668 C 0.98691 0.04099 0.02497 0.0
C669 C 0.99717 0.00852 0.99847 0.0
C670 C 0.01261 0.02783 0.03367 0.0
C671 C 0.03046 0.00536 0.02497 0.0
H672 H 0.49702 0.05061 0.97463 0.0
H673 H 0.58112 0.04349 0.00573 0.0
H674 H 0.55846 1.00195 0.02377 0.0
H675 H 0.51492 0.96745 0.03069 0.0
H676 H 0.43095 0.97414 0.99946 0.0
H677 H 0.45332 0.01622 0.98166 0.0
C678 C 0.51048 0.03992 0.98531 0.0
C679 C 0.54084 0.05017 0.98874 0.0
C680 C 0.49723 0.01608 0.99572 0.0
C681 C 0.55779 0.03607 0.00271 0.0
C682 C 0.5448 0.01234 0.01309 0.0
C683 C 0.50137 0.97824 0.02008 0.0
C684 C 0.47119 0.96765 0.01649 0.0
C685 C 0.51452 1.0022 0.00975 0.0
C686 C 0.45415 0.98182 0.00258 0.0
C687 C 0.46699 0.00585 0.99234 0.0
H688 H 0.0509 0.04293 0.50027 0.0
H689 H 0.98955 0.03994 0.54665 0.0
H690 H 0.95895 0.99976 0.53207 0.0
H691 H 0.94944 0.96531 0.50613 0.0
H692 H 0.01082 0.96821 0.45977 0.0
H693 H 0.04118 0.0087 0.47423 0.0
C694 C 0.03098 0.03332 0.50725 0.0
C695 C 0.02268 0.04439 0.52458 0.0
C696 C 0.01321 0.01038 0.4987 0.0
C697 C 0.99657 0.03184 0.53333 0.0
C698 C 0.97895 0.0089 0.52497 0.0
C699 C 0.96926 0.97502 0.49911 0.0
C700 C 0.9777 0.96377 0.48185 0.0
C701 C 0.98693 0.99809 0.50762 0.0
C702 C 1.00369 0.97644 0.47304 0.0
C703 C 0.02119 0.99955 0.48134 0.0
H704 H 0.94845 0.23395 0.02202 0.0
H705 H 0.02436 0.16966 0.0239 0.0
H706 H 0.06125 0.21203 0.0212 0.0
H707 H 0.07192 0.26745 0.02212 0.0
H708 H 0.99602 0.33185 0.02295 0.0
H709 H 0.95917 0.2894 0.02054 0.0
C710 C 0.97305 0.22918 0.02146 0.0
C711 C 0.98368 0.19877 0.02326 0.0
C712 C 0.99414 0.25373 0.02056 0.0
C713 C 0.01563 0.19294 0.02267 0.0
C714 C 0.03673 0.21714 0.02116 0.0
C715 C 0.04734 0.27223 0.02139 0.0
C716 C 0.0367 0.30271 0.02281 0.0
C717 C 0.02627 0.24767 0.02067 0.0
C718 C 1.00477 0.30853 0.02201 0.0
C719 C 0.98369 0.28428 0.02067 0.0
H720 H 0.0711 0.76214 0.27395 0.0
H721 H 0.02357 0.67474 0.27248 0.0
H722 H 0.97394 0.70113 0.27096 0.0
H723 H 0.94379 0.74889 0.27338 0.0
H724 H 0.99123 0.83634 0.27413 0.0
H725 H 0.04097 0.81007 0.27236 0.0
C726 C 0.0499 0.74887 0.27303 0.0
C727 C 0.05108 0.71652 0.27359 0.0
C728 C 0.02134 0.76419 0.27215 0.0
C729 C 0.0234 0.69967 0.27214 0.0
C730 C 0.99493 0.71474 0.27136 0.0
C731 C 0.965 0.76221 0.2729 0.0
C732 C 0.96376 0.7945 0.27414 0.0
C733 C 0.99359 0.74697 0.27187 0.0
C734 C 0.99145 0.81145 0.27324 0.0
C735 C 0.01997 0.79644 0.27233 0.0
H736 H 0.44552 0.73778 0.51778 0.0
H737 H 0.52143 0.67398 0.52297 0.0
H738 H 0.55827 0.71639 0.52075 0.0
H739 H 0.5687 0.77186 0.52081 0.0
H740 H 0.49269 0.83592 0.51746 0.0
H741 H 0.45624 0.79316 0.51528 0.0
C742 C 0.47013 0.73308 0.51808 0.0
C743 C 0.48066 0.70276 0.52068 0.0
C744 C 0.49122 0.75768 0.5173 0.0
C745 C 0.51266 0.69713 0.52113 0.0
C746 C 0.53377 0.72138 0.5199 0.0
C747 C 0.54422 0.77652 0.51928 0.0
C748 C 0.53347 0.80709 0.51946 0.0
C749 C 0.52329 0.75182 0.51851 0.0
C750 C 0.50162 0.81263 0.51751 0.0
C751 C 0.48072 0.78817 0.51629 0.0
H752 H 0.57071 0.25907 0.77515 0.0
H753 H 0.52036 0.17365 0.77015 0.0
H754 H 0.47177 0.20193 0.76844 0.0
H755 H 0.44321 0.25051 0.77188 0.0
H756 H 0.49372 0.33593 0.77651 0.0
H757 H 0.5425 0.30805 0.77462 0.0
C758 C 0.54915 0.24666 0.77343 0.0
C759 C 0.54916 0.21429 0.77306 0.0
C760 C 0.52124 0.26304 0.77252 0.0
C761 C 0.52105 0.19857 0.77055 0.0
C762 C 0.49319 0.21472 0.76966 0.0
C763 C 0.46488 0.26307 0.77223 0.0
C764 C 0.46476 0.2952 0.77462 0.0
C765 C 0.49294 0.24689 0.77119 0.0
C766 C 0.49307 0.31117 0.77477 0.0
C767 C 0.52104 0.29524 0.77377 0.0
H768 H 0.9438 0.76883 0.4854 0.0
H769 H 0.01679 0.83659 0.48521 0.0
H770 H 0.05545 0.79587 0.4876 0.0
H771 H 0.06867 0.74106 0.48579 0.0
H772 H 0.99579 0.67332 0.48334 0.0
H773 H 0.95699 0.71387 0.48616 0.0
C774 C 0.96813 0.77469 0.48629 0.0
C775 C 0.97744 0.80563 0.48502 0.0
C776 C 0.99029 0.75111 0.48699 0.0
C777 C 0.00906 0.81289 0.48602 0.0
C778 C 0.03119 0.78963 0.48735 0.0
C779 C 0.04432 0.73512 0.48625 0.0
C780 C 0.03512 0.70427 0.48423 0.0
C781 C 0.02212 0.75864 0.48724 0.0
C782 C 1.00345 0.69695 0.48472 0.0
C783 C 0.98125 0.72013 0.48631 0.0
H784 H 0.56817 0.75283 0.73015 0.0
H785 H 0.51593 0.83704 0.72501 0.0
H786 H 0.46774 0.80819 0.72734 0.0
H787 H 0.4405 0.75864 0.72746 0.0
H788 H 0.49255 0.6744 0.73283 0.0
H789 H 0.54062 0.70374 0.73404 0.0
C790 C 0.54625 0.76492 0.72977 0.0
C791 C 0.54572 0.79699 0.72712 0.0
C792 C 0.51854 0.74818 0.73105 0.0
C793 C 0.51709 0.81234 0.72693 0.0
C794 C 0.48946 0.79585 0.72819 0.0
C795 C 0.46232 0.74671 0.72915 0.0
C796 C 0.46293 0.71436 0.72977 0.0
C797 C 0.48991 0.76369 0.72973 0.0
C798 C 0.49138 0.69929 0.73223 0.0
C799 C 0.51894 0.71604 0.73283 0.0
H800 H 0.50475 0.19058 0.98093 0.0
H801 H 0.5898 0.24192 0.98593 0.0
H802 H 0.56076 0.28993 0.98764 0.0
H803 H 0.51165 0.31773 0.98434 0.0
H804 H 0.42659 0.26629 0.97968 0.0
H805 H 0.4552 0.21808 0.98143 0.0
C806 C 0.51692 0.21222 0.98265 0.0
C807 C 0.54942 0.21262 0.98303 0.0
C808 C 0.5001 0.23984 0.98355 0.0
C809 C 0.56479 0.24087 0.98552 0.0
C810 C 0.54821 0.26842 0.98641 0.0
C811 C 0.49933 0.29598 0.98395 0.0
C812 C 0.46707 0.2957 0.98161 0.0
C813 C 0.51592 0.26824 0.98491 0.0
C814 C 0.45143 0.26727 0.98138 0.0
C815 C 0.46778 0.23962 0.9823 0.0
H816 H 0.06816 0.25092 0.23367 0.0
H817 H 0.01778 0.33665 0.23264 0.0
H818 H 0.96895 0.30869 0.23416 0.0
H819 H 0.94051 0.25977 0.23237 0.0
H820 H 0.99088 0.17406 0.23413 0.0
H821 H 0.03958 0.20214 0.23597 0.0
C822 C 0.04651 0.26349 0.23404 0.0
C823 C 0.04665 0.29579 0.23277 0.0
C824 C 0.01843 0.24728 0.23492 0.0
C825 C 0.01839 0.31177 0.23354 0.0
C826 C 0.99039 0.29579 0.23431 0.0
C827 C 0.96212 0.24725 0.23342 0.0
C828 C 0.96203 0.21489 0.23285 0.0
C829 C 0.99012 0.26353 0.23448 0.0
C830 C 0.99022 0.19899 0.23448 0.0
C831 C 0.01815 0.21502 0.23544 0.0
H832 H 0.94496 0.73841 0.97907 0.0
H833 H 0.0193 0.67261 0.98348 0.0
H834 H 0.05671 0.71448 0.98581 0.0
H835 H 0.06886 0.76949 0.9831 0.0
H836 H 0.99471 0.83506 0.9769 0.0
H837 H 0.95677 0.79362 0.97898 0.0
C838 C 0.96928 0.7332 0.98086 0.0
C839 C 0.97931 0.70241 0.98092 0.0
C840 C 0.99079 0.75739 0.98172 0.0
C841 C 0.01095 0.69611 0.98322 0.0
C842 C 0.0324 0.72005 0.98453 0.0
C843 C 0.04439 0.77479 0.98254 0.0
C844 C 0.03468 0.8053 0.97968 0.0
C845 C 0.02268 0.75075 0.98326 0.0
C846 C 1.00285 0.81173 0.97892 0.0
C847 C 0.9811 0.78804 0.98009 0.0
H848 H 0.99154 0.31506 0.73564 0.0
H849 H 0.92301 0.2429 0.73349 0.0
H850 H 0.96354 0.204 0.73551 0.0
H851 H 0.0186 0.19047 0.73435 0.0
H852 H 0.08717 0.26269 0.73425 0.0
H853 H 0.04656 0.30146 0.73687 0.0
C854 C 0.98543 0.29084 0.73597 0.0
C855 C 0.95431 0.28192 0.7343 0.0
C856 C 0.00893 0.26854 0.73657 0.0
C857 C 0.94681 0.2504 0.73461 0.0
C858 C 0.96998 0.22812 0.73574 0.0
C859 C 0.02469 0.21465 0.73526 0.0
C860 C 0.05586 0.22366 0.73399 0.0
C861 C 1.00117 0.2369 0.73619 0.0
C862 C 0.06333 0.25513 0.73506 0.0
C863 C 0.04012 0.27734 0.73653 0.0
H864 H 0.50486 0.32212 0.48449 0.0
H865 H 0.58834 0.26775 0.48417 0.0
H866 H 0.55778 0.22059 0.48592 0.0
H867 H 0.50733 0.19474 0.48387 0.0
H868 H 0.42388 0.24914 0.48476 0.0
H869 H 0.45445 0.29623 0.4867 0.0
C870 C 0.51637 0.29997 0.48508 0.0
C871 C 0.5488 0.29846 0.48392 0.0
C872 C 0.49867 0.27289 0.48605 0.0
C873 C 0.5634 0.2696 0.48498 0.0
C874 C 0.54594 0.24257 0.48588 0.0
C875 C 0.49583 0.21688 0.48477 0.0
C876 C 0.46339 0.21842 0.48389 0.0
C877 C 0.51355 0.24392 0.48586 0.0
C878 C 0.44882 0.24726 0.48534 0.0
C879 C 0.46629 0.27426 0.48635 0.0
H880 H 0.44284 0.74814 0.22765 0.0
H881 H 0.49244 0.83416 0.23177 0.0
H882 H 0.54124 0.80647 0.23365 0.0
H883 H 0.57031 0.7582 0.23079 0.0
H884 H 0.52096 0.67201 0.22737 0.0
H885 H 0.47174 0.69936 0.2288 0.0
C886 C 0.46428 0.7608 0.22921 0.0
C887 C 0.46394 0.79319 0.22929 0.0
C888 C 0.49241 0.74472 0.2303 0.0
C889 C 0.49194 0.80923 0.23158 0.0
C890 C 0.51996 0.79342 0.23258 0.0
C891 C 0.54878 0.74538 0.23062 0.0
C892 C 0.54933 0.71318 0.22873 0.0
C893 C 0.52053 0.76123 0.23144 0.0
C894 C 0.52123 0.69684 0.22879 0.0
C895 C 0.49303 0.71247 0.2295 0.0
H896 H 0.94401 0.27603 0.52597 0.0
H897 H 0.02207 0.33793 0.52732 0.0
H898 H 0.05745 0.29437 0.52455 0.0
H899 H 0.06625 0.23864 0.52517 0.0
H900 H 0.98823 0.17665 0.52625 0.0
H901 H 0.95281 0.2203 0.52442 0.0
C902 C 0.96874 0.28004 0.52533 0.0
C903 C 0.9804 0.31015 0.52696 0.0
C904 C 0.98897 0.25483 0.52432 0.0
C905 C 0.01252 0.31494 0.52623 0.0
C906 C 0.03277 0.29005 0.52467 0.0
C907 C 0.04151 0.23464 0.52467 0.0
C908 C 0.02989 0.20446 0.52595 0.0
C909 C 0.02127 0.25986 0.52422 0.0
C910 C 0.99776 0.19969 0.52541 0.0
C911 C 0.97749 0.22463 0.5244 0.0
H912 H 0.44242 0.25864 0.27025 0.0
H913 H 0.49229 0.17269 0.27213 0.0
H914 H 0.54133 0.20042 0.27089 0.0
H915 H 0.56994 0.2493 0.2729 0.0
H916 H 0.5199 0.33515 0.27033 0.0
H917 H 0.47121 0.30723 0.26801 0.0
C918 C 0.46402 0.24596 0.2701 0.0
C919 C 0.46368 0.2137 0.27155 0.0
C920 C 0.49217 0.26204 0.26942 0.0
C921 C 0.49185 0.19756 0.27107 0.0
C922 C 0.51996 0.2134 0.27048 0.0
C923 C 0.54842 0.26188 0.27156 0.0
C924 C 0.54858 0.29425 0.27208 0.0
C925 C 0.52039 0.24568 0.27021 0.0
C926 C 0.52051 0.31022 0.27006 0.0
C927 C 0.49257 0.29428 0.26881 0.0
H928 H 0.4458 0.77153 0.01799 0.0
H929 H 0.51962 0.8384 0.01857 0.0
H930 H 0.55779 0.79723 0.01598 0.0
H931 H 0.57033 0.74218 0.01723 0.0
H932 H 0.49657 0.67529 0.01904 0.0
H933 H 0.45833 0.71642 0.01678 0.0
C934 C 0.47021 0.77713 0.01717 0.0
C935 C 0.47985 0.80798 0.01857 0.0
C936 C 0.49209 0.75327 0.01628 0.0
C937 C 0.51159 0.81482 0.01765 0.0
C938 C 0.53345 0.79128 0.0162 0.0
C939 C 0.54591 0.73655 0.01675 0.0
C940 C 0.53633 0.70572 0.0184 0.0
C941 C 0.524 0.76039 0.01606 0.0
C942 C 0.50457 0.69886 0.01792 0.0
C943 C 0.48267 0.72238 0.01666 0.0
H944 H 0.99138 0.68931 0.77487 0.0
H945 H 0.92561 0.76355 0.77023 0.0
H946 H 0.96774 0.8006 0.76738 0.0
H947 H 0.02308 0.81257 0.76955 0.0
H948 H 0.08873 0.73857 0.77579 0.0
H949 H 0.04694 0.70092 0.77445 0.0
C950 C 0.98624 0.71352 0.77291 0.0
C951 C 0.95535 0.72361 0.77293 0.0
C952 C 0.01062 0.73487 0.77172 0.0
C953 C 0.94916 0.75513 0.77043 0.0
C954 C 0.97326 0.77638 0.76883 0.0
C955 C 0.02832 0.78819 0.77029 0.0
C956 C 0.05899 0.77848 0.77293 0.0
C957 C 1.00407 0.76662 0.76996 0.0
C958 C 0.06531 0.74675 0.77392 0.0
C959 C 0.0414 0.72515 0.77318 0.0
H960 H 0.29992 0.39932 0.99003 0.0
H961 H 0.3086 0.30058 0.98588 0.0
H962 H 0.2558 0.29412 0.99686 0.0
H963 H 0.20744 0.31615 0.00785 0.0
H964 H 0.19677 0.41473 0.01103 0.0
H965 H 0.24984 0.42169 0.99994 0.0
C966 C 0.29021 0.37645 0.99165 0.0
C967 C 0.30817 0.35046 0.98729 0.0
C968 C 0.25943 0.37288 0.99761 0.0
C969 C 0.29523 0.32094 0.98915 0.0
C970 C 0.26503 0.31721 0.99541 0.0
C971 C 0.21663 0.3392 0.00604 0.0
C972 C 0.19826 0.36487 0.01032 0.0
C973 C 0.24694 0.34297 0.99965 0.0
C974 C 0.21043 0.39458 0.00775 0.0
C975 C 0.24082 0.39856 1.00152 0.0
H976 H 0.85568 0.0473 0.24107 0.0
H977 H 0.95348 0.06106 0.249 0.0
H978 H 0.95865 0.00869 0.26044 0.0
H979 H 0.93598 0.9589 0.26755 0.0
H980 H 0.83881 0.94291 0.25857 0.0
H981 H 0.8328 0.99607 0.24789 0.0
C982 C 0.87797 0.03882 0.24552 0.0
C983 C 0.90413 0.05798 0.24436 0.0
C984 C 0.88096 0.00824 0.25163 0.0
C985 C 0.93303 0.04669 0.24982 0.0
C986 C 0.93603 0.01674 0.25631 0.0
C987 C 0.91344 0.96695 0.26324 0.0
C988 C 0.88788 0.94701 0.26387 0.0
C989 C 0.91025 0.99727 0.25711 0.0
C990 C 0.8589 0.95779 0.25811 0.0
C991 C 0.85543 0.98822 0.25212 0.0
H992 H 0.213 0.61508 0.49009 0.0
H993 H 0.20096 0.71264 0.49868 0.0
H994 H 0.25448 0.71721 0.50856 0.0
H995 H 0.30477 0.69399 0.51431 0.0
H996 H 0.31838 0.59682 0.50505 0.0
H997 H 0.26436 0.59168 0.49562 0.0
C998 C 0.22207 0.63722 0.49434 0.0
C999 C 0.20299 0.66345 0.49379 0.0
C1000 C 0.25323 0.63985 0.49963 0.0
C1001 C 0.21515 0.69211 0.49902 0.0
C1002 C 0.24579 0.69478 0.50462 0.0
C1003 C 0.29604 0.67166 0.51016 0.0
C1004 C 0.31564 0.64584 0.51037 0.0
C1005 C 0.26508 0.66889 0.50483 0.0
C1006 C 0.30385 0.61712 0.50492 0.0
C1007 C 0.27291 0.61413 0.49963 0.0
H1008 H 0.57249 0.05259 0.75807 0.0
H1009 H 0.67171 0.06197 0.75887 0.0
H1010 H 0.67723 0.00986 0.74635 0.0
H1011 H 0.65335 0.96105 0.73571 0.0
H1012 H 0.5539 0.95406 0.73378 0.0
H1013 H 0.54896 0.0057 0.74638 0.0
C1014 C 0.59536 0.0433 0.75546 0.0
C1015 C 0.62165 0.061 0.75947 0.0
C1016 C 0.59828 0.01364 0.7482 0.0
C1017 C 0.65111 0.04879 0.75582 0.0
C1018 C 0.65426 0.01896 0.74878 0.0
C1019 C 0.63068 0.97087 0.73816 0.0
C1020 C 0.60403 0.95374 0.73396 0.0
C1021 C 0.62796 1.00104 0.74505 0.0
C1022 C 0.57475 0.96682 0.7369 0.0
C1023 C 0.57188 0.99635 0.7441 0.0
H1024 H 0.71117 0.6962 0.00635 0.0
H1025 H 0.69849 0.59767 0.00639 0.0
H1026 H 0.75204 0.59063 0.99628 0.0
H1027 H 0.80299 0.61274 0.98793 0.0
H1028 H 0.81403 0.71147 0.98691 0.0
H1029 H 0.76077 0.71813 0.99712 0.0
C1030 C 0.72002 0.67315 0.00406 0.0
C1031 C 0.70086 0.6475 0.00715 0.0
C1032 C 0.7507 0.66931 0.99826 0.0
C1033 C 0.71269 0.61782 0.00402 0.0
C1034 C 0.74338 0.61378 0.99835 0.0
C1035 C 0.79372 0.63566 0.99009 0.0
C1036 C 0.81248 0.66158 0.98682 0.0
C1037 C 0.76271 0.63937 0.99558 0.0
C1038 C 0.80007 0.69116 0.98936 0.0
C1039 C 0.7696 0.69501 0.99517 0.0
H1040 H 0.06593 0.95471 0.76437 0.0
H1041 H 0.16358 0.94125 0.75527 0.0
H1042 H 0.16883 0.99508 0.74583 0.0
H1043 H 0.14544 0.04629 0.74033 0.0
H1044 H 0.04738 0.05825 0.74856 0.0
H1045 H 0.04264 0.00486 0.75845 0.0
C1046 C 0.08838 0.96343 0.76024 0.0
C1047 C 0.11431 0.94392 0.76052 0.0
C1048 C 0.09121 0.99431 0.75488 0.0
C1049 C 0.14319 0.9557 0.75508 0.0
C1050 C 0.14624 0.98654 0.74979 0.0
C1051 C 0.12315 0.03723 0.7445 0.0
C1052 C 0.09684 0.05625 0.74388 0.0
C1053 C 0.12043 0.00615 0.74976 0.0
C1054 C 0.06798 0.04409 0.74898 0.0
C1055 C 0.06522 0.01354 0.75458 0.0
H1056 H 0.80559 0.40367 0.51671 0.0
H1057 H 0.82066 0.30611 0.51009 0.0
H1058 H 0.76843 0.29983 0.49834 0.0
H1059 H 0.71833 0.32152 0.49057 0.0
H1060 H 0.70125 0.41854 0.4982 0.0
H1061 H 0.75423 0.42554 0.50917 0.0
C1062 C 0.79745 0.38116 0.51248 0.0
C1063 C 0.81697 0.35542 0.51412 0.0
C1064 C 0.76697 0.37755 0.50616 0.0
C1065 C 0.80606 0.32626 0.50892 0.0
C1066 C 0.77618 0.32263 0.50225 0.0
C1067 C 0.7261 0.34424 0.49465 0.0
C1068 C 0.70586 0.36947 0.49356 0.0
C1069 C 0.75638 0.34803 0.50097 0.0
C1070 C 0.71633 0.39869 0.499 0.0
C1071 C 0.74667 0.40273 0.50518 0.0
H1072 H 0.43778 0.04873 0.26483 0.0
H1073 H 0.34017 0.06382 0.25711 0.0
H1074 H 0.33432 0.01086 0.24602 0.0
H1075 H 0.35748 0.96008 0.23841 0.0
H1076 H 0.45567 0.94728 0.24512 0.0
H1077 H 0.46069 0.99941 0.257 0.0
C1078 C 0.41517 0.04053 0.26071 0.0
C1079 C 0.38944 0.06015 0.26181 0.0
C1080 C 0.41207 0.01032 0.25433 0.0
C1081 C 0.36038 0.04918 0.2563 0.0
C1082 C 0.35701 0.01886 0.25006 0.0
C1083 C 0.37983 0.96871 0.24269 0.0
C1084 C 0.40615 0.94989 0.24104 0.0
C1085 C 0.38272 0.99916 0.24907 0.0
C1086 C 0.43511 0.96139 0.24629 0.0
C1087 C 0.43802 0.99119 0.25304 0.0
H1088 H 0.80228 0.81469 0.49607 0.0
H1089 H 0.81469 0.91326 0.4963 0.0
H1090 H 0.76077 0.92011 0.50576 0.0
H1091 H 0.7096 0.89783 0.51343 0.0
H1092 H 0.69876 0.79906 0.51411 0.0
H1093 H 0.75241 0.79259 0.50459 0.0
C1094 C 0.7933 0.83771 0.49828 0.0
C1095 C 0.81249 0.86341 0.49545 0.0
C1096 C 0.7624 0.84144 0.50368 0.0
C1097 C 0.80046 0.89305 0.49847 0.0
C1098 C 0.76956 0.89699 0.50376 0.0
C1099 C 0.71899 0.87495 0.51134 0.0
C1100 C 0.70019 0.84896 0.51431 0.0
C1101 C 0.75021 0.87134 0.50625 0.0
C1102 C 0.71275 0.81942 0.51187 0.0
C1103 C 0.74345 0.81568 0.50646 0.0
H1104 H 0.4397 0.55072 0.74445 0.0
H1105 H 0.34067 0.56199 0.74486 0.0
H1106 H 0.33448 0.50967 0.7569 0.0
H1107 H 0.35765 0.46011 0.76674 0.0
H1108 H 0.45698 0.45116 0.76746 0.0
H1109 H 0.46261 0.50305 0.75536 0.0
C1110 C 0.41673 0.54181 0.74723 0.0
C1111 C 0.39069 0.5601 0.74369 0.0
C1112 C 0.41342 0.51199 0.7542 0.0
C1113 C 0.3611 0.54835 0.74754 0.0
C1114 C 0.35756 0.51839 0.75432 0.0
C1115 C 0.38045 0.46957 0.76413 0.0
C1116 C 0.40686 0.45181 0.76784 0.0
C1117 C 0.38358 0.49987 0.75755 0.0
C1118 C 0.43631 0.46441 0.7647 0.0
C1119 C 0.43958 0.49408 0.7578 0.0
H1120 H 0.81097 0.18869 0.0123 0.0
H1121 H 0.822 0.09009 0.00945 0.0
H1122 H 0.76837 0.08474 0.99927 0.0
H1123 H 0.71792 0.10843 0.99153 0.0
H1124 H 0.70873 0.2073 0.99368 0.0
H1125 H 0.76191 0.21213 0.00406 0.0
C1126 C 0.80176 0.16598 0.00938 0.0
C1127 C 0.82046 0.13984 0.01165 0.0
C1128 C 0.77107 0.16312 0.00361 0.0
C1129 C 0.80814 0.11063 0.00772 0.0
C1130 C 0.77742 0.10754 1.00202 0.0
C1131 C 0.72757 0.13094 0.99445 0.0
C1132 C 0.70939 0.15746 0.99198 0.0
C1133 C 0.75856 0.13364 1.00005 0.0
C1134 C 0.72226 0.18655 0.99551 0.0
C1135 C 0.75269 0.18936 1.0014 0.0
H1136 H 0.0761 0.55227 0.26619 0.0
H1137 H 0.17398 0.56582 0.2581 0.0
H1138 H 0.1791 0.51248 0.24751 0.0
H1139 H 0.15528 0.46175 0.24058 0.0
H1140 H 0.05686 0.45043 0.24756 0.0
H1141 H 0.05249 0.50302 0.25886 0.0
C1142 C 0.0986 0.54364 0.26208 0.0
C1143 C 0.12463 0.56294 0.26296 0.0
C1144 C 0.10129 0.51322 0.25599 0.0
C1145 C 0.15355 0.55143 0.25746 0.0
C1146 C 0.1565 0.5209 0.25151 0.0
C1147 C 0.13302 0.47081 0.24479 0.0
C1148 C 0.10645 0.45227 0.24341 0.0
C1149 C 0.13052 0.50151 0.25081 0.0
C1150 C 0.07761 0.46432 0.24855 0.0
C1151 C 0.07507 0.49438 0.25496 0.0
H1152 H 0.2055 0.1121 0.51493 0.0
H1153 H 0.18979 0.20955 0.50842 0.0
H1154 H 0.24244 0.21637 0.49719 0.0
H1155 H 0.29306 0.1952 0.4899 0.0
H1156 H 0.31071 0.09828 0.49737 0.0
H1157 H 0.25735 0.09073 0.50781 0.0
C1158 C 0.2136 0.1347 0.51082 0.0
C1159 C 0.19379 0.16026 0.51235 0.0
C1160 C 0.2443 0.13862 0.50482 0.0
C1161 C 0.20463 0.18954 0.50733 0.0
C1162 C 0.23474 0.19348 0.50096 0.0
C1163 C 0.28534 0.17238 0.49385 0.0
C1164 C 0.30584 0.14735 0.49286 0.0
C1165 C 0.25483 0.16828 0.49982 0.0
C1166 C 0.29542 0.11799 0.4981 0.0
C1167 C 0.26487 0.11363 0.50397 0.0
H1168 H 0.6554 0.46143 0.26472 0.0
H1169 H 0.55796 0.44732 0.25559 0.0
H1170 H 0.55331 0.49914 0.24324 0.0
H1171 H 0.57628 0.54858 0.23568 0.0
H1172 H 0.67302 0.56504 0.24587 0.0
H1173 H 0.67857 0.51236 0.25743 0.0
C1174 C 0.6333 0.46972 0.25982 0.0
C1175 C 0.60708 0.45062 0.26092 0.0
C1176 C 0.63059 0.5 0.25318 0.0
C1177 C 0.57843 0.46166 0.25485 0.0
C1178 C 0.57573 0.49128 0.24784 0.0
C1179 C 0.59863 0.54074 0.24044 0.0
C1180 C 0.6242 0.56067 0.2399 0.0
C1181 C 0.60155 0.51071 0.24709 0.0
C1182 C 0.65293 0.55016 0.24623 0.0
C1183 C 0.65614 0.52001 0.25275 0.0
H1184 H 0.21195 0.89546 0.98895 0.0
H1185 H 0.19989 0.79743 0.99533 0.0
H1186 H 0.25321 0.79242 0.00553 0.0
H1187 H 0.30338 0.81543 0.01211 0.0
H1188 H 0.31702 0.91309 0.00492 0.0
H1189 H 0.26316 0.91864 0.99531 0.0
C1190 C 0.22097 0.87311 0.99279 0.0
C1191 C 0.20196 0.84688 0.99152 0.0
C1192 C 0.25202 0.87025 0.99824 0.0
C1193 C 0.21405 0.81796 0.99623 0.0
C1194 C 0.24456 0.81505 1.002 0.0
C1195 C 0.29468 0.83796 0.00837 0.0
C1196 C 0.31425 0.86379 0.00922 0.0
C1197 C 0.26381 0.84096 0.00291 0.0
C1198 C 0.30252 0.89278 0.0043 0.0
C1199 C 0.27166 0.896 0.9989 0.0
H1200 H 0.86523 0.45938 0.74384 0.0
H1201 H 0.96241 0.44524 0.75371 0.0
H1202 H 0.96725 0.49786 0.76502 0.0
H1203 H 0.94441 0.54818 0.77138 0.0
H1204 H 0.8479 0.56399 0.76021 0.0
H1205 H 0.84232 0.51064 0.74992 0.0
C1206 C 0.88733 0.46778 0.74869 0.0
C1207 C 0.91338 0.4484 0.7481 0.0
C1208 C 0.89016 0.49846 0.7547 0.0
C1209 C 0.94202 0.4597 0.75409 0.0
C1210 C 0.94484 0.48981 0.7605 0.0
C1211 C 0.92213 0.54003 0.76666 0.0
C1212 C 0.89662 0.56009 0.76656 0.0
C1213 C 0.91916 0.50947 0.76069 0.0
C1214 C 0.86797 0.5491 0.76034 0.0
C1215 C 0.86472 0.51854 0.75454 0.0
H1216 H 0.09622 0.40485 0.1029 0.0
H1217 H 0.1512 0.32529 0.0889 0.0
H1218 H 0.16211 0.31626 0.12091 0.0
H1219 H 0.15336 0.32887 0.15309 0.0
H1220 H 0.09866 0.40871 0.167 0.0
H1221 H 0.09071 0.41969 0.13494 0.0
C1222 C 0.11076 0.38567 0.10683 0.0
C1223 C 0.12257 0.36567 0.09348 0.0
C1224 C 0.117 0.38051 0.12532 0.0
C1225 C 0.14164 0.34106 0.09886 0.0
C1226 C 0.14789 0.33579 0.1172 0.0
C1227 C 0.13997 0.34885 0.14913 0.0
C1228 C 0.12643 0.36768 0.16252 0.0
C1229 C 0.1353 0.35507 0.13058 0.0
C1230 C 0.10927 0.39361 0.15705 0.0
C1231 C 0.1046 0.39994 0.13868 0.0
H1232 H 0.91411 0.90332 0.40388 0.0
H1233 H 0.86232 0.82223 0.41907 0.0
H1234 H 0.85093 0.81187 0.38726 0.0
H1235 H 0.85819 0.82396 0.35487 0.0
H1236 H 0.90964 0.90535 0.33979 0.0
H1237 H 0.91827 0.91739 0.37166 0.0
C1238 C 0.90017 0.8835 0.40025 0.0
C1239 C 0.88938 0.86351 0.4139 0.0
C1240 C 0.89363 0.87757 0.38187 0.0
C1241 C 0.87109 0.83804 0.4089 0.0
C1242 C 0.86455 0.832 0.39067 0.0
C1243 C 0.87102 0.84448 0.35855 0.0
C1244 C 0.88343 0.86348 0.34487 0.0
C1245 C 0.87608 0.85134 0.377 0.0
C1246 C 0.8999 0.89011 0.34996 0.0
C1247 C 0.90495 0.89707 0.36823 0.0
H1248 H 0.35919 0.67518 0.65016 0.0
H1249 H 0.4182 0.59924 0.66514 0.0
H1250 H 0.42798 0.58795 0.63321 0.0
H1251 H 0.4225 0.60149 0.60093 0.0
H1252 H 0.36321 0.67727 0.58603 0.0
H1253 H 0.35089 0.68646 0.61786 0.0
C1254 C 0.37394 0.65597 0.64646 0.0
C1255 C 0.38808 0.63833 0.66011 0.0
C1256 C 0.37967 0.64958 0.628 0.0
C1257 C 0.40705 0.6134 0.65498 0.0
C1258 C 0.41276 0.6069 0.63668 0.0
C1259 C 0.40672 0.61986 0.60463 0.0
C1260 C 0.39409 0.63875 0.59103 0.0
C1261 C 0.39964 0.62516 0.62306 0.0
C1262 C 0.37348 0.66236 0.59614 0.0
C1263 C 0.36638 0.66773 0.61439 0.0
H1264 H 0.6589 0.17026 0.85283 0.0
H1265 H 0.58694 0.10576 0.83861 0.0
H1266 H 0.57802 0.09449 0.87065 0.0
H1267 H 0.58833 0.10527 0.90293 0.0
H1268 H 0.66103 0.16916 0.91694 0.0
H1269 H 0.67193 0.17798 0.88493 0.0
C1270 C 0.64143 0.15356 0.85672 0.0
C1271 C 0.62351 0.13915 0.84328 0.0
C1272 C 0.63637 0.14707 0.87522 0.0
C1273 C 0.60113 0.11733 0.84862 0.0
C1274 C 0.59589 0.11088 0.86698 0.0
C1275 C 0.60674 0.12089 0.89899 0.0
C1276 C 0.62355 0.13667 0.91242 0.0
C1277 C 0.61303 0.12596 0.88044 0.0
C1278 C 0.6475 0.15671 0.90699 0.0
C1279 C 0.65379 0.16189 0.88862 0.0
H1280 H 0.15649 0.68532 0.35388 0.0
H1281 H 0.10284 0.60539 0.3389 0.0
H1282 H 0.09402 0.5934 0.37078 0.0
H1283 H 0.09872 0.60711 0.40303 0.0
H1284 H 0.15273 0.68672 0.41812 0.0
H1285 H 0.16421 0.69699 0.38628 0.0
C1286 C 0.14313 0.66512 0.35758 0.0
C1287 C 0.13019 0.64654 0.34392 0.0
C1288 C 0.13798 0.65827 0.37605 0.0
C1289 C 0.11302 0.62032 0.34905 0.0
C1290 C 0.10786 0.61339 0.36733 0.0
C1291 C 0.11319 0.62657 0.39938 0.0
C1292 C 0.12455 0.64618 0.41302 0.0
C1293 C 0.11977 0.63246 0.38096 0.0
C1294 C 0.14347 0.6712 0.40797 0.0
C1295 C 0.15007 0.6772 0.38971 0.0
H1296 H 0.60169 0.89711 0.6558 0.0
H1297 H 0.66524 0.82086 0.65094 0.0
H1298 H 0.66336 0.82491 0.61784 0.0
H1299 H 0.64102 0.8477 0.59042 0.0
H1300 H 0.57598 0.92269 0.5953 0.0
H1301 H 0.58131 0.92155 0.62834 0.0
C1302 C 0.61541 0.88152 0.64754 0.0
C1303 C 0.63346 0.85857 0.6559 0.0
C1304 C 0.61382 0.88363 0.62853 0.0
C1305 C 0.65106 0.83865 0.64491 0.0
C1306 C 0.64995 0.84091 0.62597 0.0
C1307 C 0.62817 0.86402 0.59865 0.0
C1308 C 0.60796 0.88514 0.59033 0.0
C1309 C 0.63098 0.86294 0.61765 0.0
C1310 C 0.59158 0.9061 0.6013 0.0
C1311 C 0.59459 0.90544 0.62021 0.0
H1312 H 0.41298 0.39265 0.84553 0.0
H1313 H 0.34205 0.32314 0.85081 0.0
H1314 H 0.34389 0.32807 0.88388 0.0
H1315 H 0.36798 0.34945 0.91116 0.0
H1316 H 0.44071 0.4171 0.90597 0.0
H1317 H 0.4356 0.41565 0.87289 0.0
C1318 C 0.39763 0.37879 0.85387 0.0
C1319 C 0.37745 0.35745 0.84565 0.0
C1320 C 0.39926 0.38128 0.87288 0.0
C1321 C 0.35788 0.33964 0.85674 0.0
C1322 C 0.35895 0.34242 0.87566 0.0
C1323 C 0.38256 0.36416 0.90285 0.0
C1324 C 0.40481 0.38329 0.91109 0.0
C1325 C 0.37992 0.36277 0.88386 0.0
C1326 C 0.42349 0.40208 0.90003 0.0
C1327 C 0.4206 0.40123 0.8811 0.0
H1328 H 0.86018 0.17784 0.15214 0.0
H1329 H 0.91382 0.09871 0.16834 0.0
H1330 H 0.92397 0.08618 0.13664 0.0
H1331 H 0.92066 0.09941 0.10426 0.0
H1332 H 0.86666 0.17823 0.088 0.0
H1333 H 0.85365 0.18884 0.11961 0.0
C1334 C 0.8738 0.15767 0.14875 0.0
C1335 C 0.8864 0.13951 0.16269 0.0
C1336 C 0.87976 0.15054 0.1304 0.0
C1337 C 0.90391 0.11333 0.15796 0.0
C1338 C 0.90984 0.1061 0.13979 0.0
C1339 C 0.90587 0.11878 0.10761 0.0
C1340 C 0.89496 0.13808 0.09372 0.0
C1341 C 0.89839 0.12485 0.12589 0.0
C1342 C 0.87557 0.16295 0.09836 0.0
C1343 C 0.8681 0.16914 0.11648 0.0
H1344 H 0.91254 0.61469 0.84472 0.0
H1345 H 0.84274 0.68526 0.84991 0.0
H1346 H 0.84454 0.6806 0.88296 0.0
H1347 H 0.86827 0.65905 0.91031 0.0
H1348 H 0.93895 0.58936 0.90518 0.0
H1349 H 0.9342 0.59103 0.87212 0.0
C1350 C 0.89751 0.62892 0.85304 0.0
C1351 C 0.8777 0.65048 0.84478 0.0
C1352 C 0.89889 0.62638 0.87205 0.0
C1353 C 0.85831 0.66857 0.85584 0.0
C1354 C 0.85936 0.66596 0.87477 0.0
C1355 C 0.8825 0.644 0.90201 0.0
C1356 C 0.90413 0.62427 0.91028 0.0
C1357 C 0.87993 0.64533 0.88301 0.0
C1358 C 0.9222 0.60485 0.89924 0.0
C1359 C 0.91955 0.60584 0.88031 0.0
H1360 H 0.08213 0.10184 0.60403 0.0
H1361 H 0.15325 0.16714 0.58926 0.0
H1362 H 0.16539 0.17524 0.62119 0.0
H1363 H 0.1534 0.16676 0.65346 0.0
H1364 H 0.08212 0.10161 0.66821 0.0
H1365 H 0.0728 0.09047 0.63627 0.0
C1366 C 0.10051 0.11759 0.60777 0.0
C1367 C 0.11646 0.13403 0.5942 0.0
C1368 C 0.10731 0.12239 0.62623 0.0
C1369 C 0.14035 0.15426 0.59936 0.0
C1370 C 0.14734 0.159 0.61767 0.0
C1371 C 0.13604 0.14991 0.64971 0.0
C1372 C 0.11833 0.13535 0.66329 0.0
C1373 C 0.13057 0.14365 0.63124 0.0
C1374 C 0.09602 0.11341 0.65811 0.0
C1375 C 0.0906 0.10699 0.6398 0.0
H1376 H 0.5898 0.40441 0.40278 0.0
H1377 H 0.65794 0.33597 0.41693 0.0
H1378 H 0.66845 0.32642 0.38491 0.0
H1379 H 0.65638 0.33521 0.35274 0.0
H1380 H 0.58897 0.4043 0.33851 0.0
H1381 H 0.58044 0.41585 0.37053 0.0
C1382 C 0.60711 0.38759 0.39887 0.0
C1383 C 0.62279 0.37083 0.41232 0.0
C1384 C 0.6132 0.38214 0.38033 0.0
C1385 C 0.64535 0.34923 0.40694 0.0
C1386 C 0.6514 0.34364 0.38858 0.0
C1387 C 0.64 0.35295 0.35662 0.0
C1388 C 0.62323 0.36861 0.34317 0.0
C1389 C 0.63515 0.35961 0.37514 0.0
C1390 C 0.60224 0.39173 0.34852 0.0
C1391 C 0.59722 0.39836 0.36687 0.0
H1392 H 0.41991 0.90669 0.10002 0.0
H1393 H 0.36427 0.82821 0.08491 0.0
H1394 H 0.35264 0.81807 0.11673 0.0
H1395 H 0.36052 0.82952 0.1491 0.0
H1396 H 0.41574 0.9083 0.16421 0.0
H1397 H 0.42487 0.92021 0.13233 0.0
C1398 C 0.40508 0.88749 0.10367 0.0
C1399 C 0.39327 0.86818 0.09001 0.0
C1400 C 0.39837 0.88168 0.12209 0.0
C1401 C 0.37387 0.8435 0.09506 0.0
C1402 C 0.36718 0.83759 0.11331 0.0
C1403 C 0.37429 0.84946 0.14544 0.0
C1404 C 0.38757 0.86773 0.15913 0.0
C1405 C 0.37963 0.85625 0.12698 0.0
C1406 C 0.40528 0.89361 0.15404 0.0
C1407 C 0.41063 0.90049 0.13575 0.0
H1408 H 0.85675 0.34367 0.65527 0.0
H1409 H 0.92898 0.407 0.67085 0.0
H1410 H 0.93845 0.4196 0.63908 0.0
H1411 H 0.92894 0.41002 0.60666 0.0
H1412 H 0.8568 0.34658 0.59109 0.0
H1413 H 0.84461 0.33703 0.62292 0.0
C1414 C 0.87436 0.36045 0.65175 0.0
C1415 C 0.89226 0.37406 0.66551 0.0
C1416 C 0.8799 0.36756 0.63337 0.0
C1417 C 0.91489 0.39591 0.66061 0.0
C1418 C 0.92042 0.40317 0.64239 0.0
C1419 C 0.91032 0.39437 0.61021 0.0
C1420 C 0.8941 0.37888 0.59642 0.0
C1421 C 0.90347 0.38873 0.62862 0.0
C1422 C 0.86992 0.35875 0.60135 0.0
C1423 C 0.86289 0.35318 0.6196 0.0
H1424 H 0.35554 0.18034 0.35228 0.0
H1425 H 0.41918 0.10732 0.33851 0.0
H1426 H 0.42815 0.0973 0.3706 0.0
H1427 H 0.42025 0.11105 0.4027 0.0
H1428 H 0.35592 0.18347 0.41645 0.0
H1429 H 0.34494 0.19167 0.3844 0.0
C1430 C 0.37117 0.16208 0.35629 0.0
C1431 C 0.38678 0.14484 0.34294 0.0
C1432 C 0.37631 0.15634 0.37484 0.0
C1433 C 0.40683 0.12108 0.34844 0.0
C1434 C 0.4121 0.11534 0.36683 0.0
C1435 C 0.40371 0.12849 0.39869 0.0
C1436 C 0.38919 0.14672 0.41201 0.0
C1437 C 0.39734 0.13312 0.38017 0.0
C1438 C 0.36757 0.16907 0.40654 0.0
C1439 C 0.36126 0.17388 0.38817 0.0
H1440 H 0.65516 0.68422 0.14868 0.0
H1441 H 0.6039 0.60231 0.16299 0.0
H1442 H 0.59519 0.5912 0.131 0.0
H1443 H 0.59924 0.60624 0.0989 0.0
H1444 H 0.6509 0.68783 0.08452 0.0
H1445 H 0.6623 0.69728 0.11643 0.0
C1446 C 0.64236 0.66377 0.14481 0.0
C1447 C 0.63003 0.64436 0.1583 0.0
C1448 C 0.63725 0.65746 0.1263 0.0
C1449 C 0.61359 0.61785 0.15296 0.0
C1450 C 0.60848 0.61144 0.13462 0.0
C1451 C 0.61314 0.62599 0.10273 0.0
C1452 C 0.62391 0.64637 0.08929 0.0
C1453 C 0.61972 0.63136 0.12117 0.0
C1454 C 0.64216 0.67172 0.09454 0.0
C1455 C 0.6487 0.67724 0.11282 0.0
H1456 H 0.15935 0.83441 0.85113 0.0
H1457 H 0.091 0.9024 0.83658 0.0
H1458 H 0.0826 0.91453 0.86852 0.0
H1459 H 0.0918 0.90341 0.90075 0.0
H1460 H 0.15979 0.83512 0.91537 0.0
H1461 H 0.17122 0.82591 0.88339 0.0
C1462 C 0.14285 0.85209 0.85492 0.0
C1463 C 0.12567 0.86718 0.84141 0.0
C1464 C 0.13788 0.8589 0.87341 0.0
C1465 C 0.10445 0.89016 0.84664 0.0
C1466 C 0.09956 0.89716 0.86495 0.0
C1467 C 0.10936 0.88676 0.89696 0.0
C1468 C 0.12464 0.86984 0.91051 0.0
C1469 C 0.11571 0.88129 0.87848 0.0
C1470 C 0.14743 0.8484 0.90528 0.0
C1471 C 0.15401 0.84303 0.88695 0.0
loop_
_geom_bond_atom_site_label_1
_geom_bond_atom_site_label_2
_geom_bond_distance
_geom_bond_site_symmetry_2
_ccdc_geom_bond_type
O0 Cd1 2.223 . S
O0 C8 1.315 . S
Cd1 O0 2.223 . S
Cd1 O4 2.297 . S
Cd1 O5 2.439 . S
Cd1 O11 2.240 . S
Cd2 O3 2.240 . S
Cd2 O10 2.223 . S
Cd2 O12 2.297 . S
Cd2 O13 2.439 . S
O3 Cd2 2.240 . S
O3 C8 1.279 . S
O4 Cd1 2.297 . S
O4 C6 1.247 . S
O5 Cd1 2.439 . S
O5 C6 1.208 . S
C6 O4 1.247 . S
C6 O5 1.208 . S
C7 O12 1.247 . S
C7 O13 1.208 . S
C8 O0 1.315 . S
C8 O3 1.279 . S
C9 O10 1.315 . S
C9 O11 1.279 . S
O10 Cd2 2.223 . S
O10 C9 1.315 . S
O11 Cd1 2.240 . S
O11 C9 1.279 . S
O12 Cd2 2.297 . S
O12 C7 1.247 . S
O13 Cd2 2.439 . S
O13 C7 1.208 . S
O14 Cd15 2.223 . S
O14 C22 1.315 . S
Cd15 O14 2.223 . S
Cd15 O18 2.297 . S
Cd15 O19 2.439 . S
Cd15 O25 2.240 . S
Cd16 O17 2.240 . S
Cd16 O24 2.223 . S
Cd16 O26 2.297 . S
Cd16 O27 2.439 . S
O17 Cd16 2.240 . S
O17 C22 1.279 . S
O18 Cd15 2.297 . S
O18 C20 1.247 . S
O19 Cd15 2.439 . S
O19 C20 1.208 . S
C20 O18 1.247 . S
C20 O19 1.208 . S
C21 O26 1.247 . S
C21 O27 1.208 . S
C22 O14 1.315 . S
C22 O17 1.279 . S
C23 O24 1.315 . S
C23 O25 1.279 . S
O24 Cd16 2.223 . S
O24 C23 1.315 . S
O25 Cd15 2.240 . S
O25 C23 1.279 . S
O26 Cd16 2.297 . S
O26 C21 1.247 . S
O27 Cd16 2.439 . S
O27 C21 1.208 . S
O28 Cd29 2.223 . S
O28 C36 1.315 . S
Cd29 O28 2.223 . S
Cd29 O32 2.297 . S
Cd29 O33 2.439 . S
Cd29 O39 2.240 . S
Cd30 O31 2.240 . S
Cd30 O38 2.223 . S
Cd30 O40 2.297 . S
Cd30 O41 2.439 . S
O31 Cd30 2.240 . S
O31 C36 1.279 . S
O32 Cd29 2.297 . S
O32 C34 1.247 . S
O33 Cd29 2.439 . S
O33 C34 1.208 . S
C34 O32 1.247 . S
C34 O33 1.208 . S
C35 O40 1.247 . S
C35 O41 1.208 . S
C36 O28 1.315 . S
C36 O31 1.279 . S
C37 O38 1.315 . S
C37 O39 1.279 . S
O38 Cd30 2.223 . S
O38 C37 1.315 . S
O39 Cd29 2.240 . S
O39 C37 1.279 . S
O40 Cd30 2.297 . S
O40 C35 1.247 . S
O41 Cd30 2.439 . S
O41 C35 1.208 . S
O42 Cd43 2.223 . S
O42 C50 1.315 . S
Cd43 O42 2.223 . S
Cd43 O46 2.297 . S
Cd43 O47 2.439 . S
Cd43 O53 2.240 . S
Cd44 O45 2.240 . S
Cd44 O52 2.223 . S
Cd44 O54 2.297 . S
Cd44 O55 2.439 . S
O45 Cd44 2.240 . S
O45 C50 1.279 . S
O46 Cd43 2.297 . S
O46 C48 1.247 . S
O47 Cd43 2.439 . S
O47 C48 1.208 . S
C48 O46 1.247 . S
C48 O47 1.208 . S
C49 O54 1.247 . S
C49 O55 1.208 . S
C50 O42 1.315 . S
C50 O45 1.279 . S
C51 O52 1.315 . S
C51 O53 1.279 . S
O52 Cd44 2.223 . S
O52 C51 1.315 . S
O53 Cd43 2.240 . S
O53 C51 1.279 . S
O54 Cd44 2.297 . S
O54 C49 1.247 . S
O55 Cd44 2.439 . S
O55 C49 1.208 . S
O56 Cd57 2.223 . S
O56 C64 1.315 . S
Cd57 O56 2.223 . S
Cd57 O60 2.297 . S
Cd57 O61 2.439 . S
Cd57 O67 2.240 . S
Cd58 O59 2.240 . S
Cd58 O66 2.223 . S
Cd58 O68 2.297 . S
Cd58 O69 2.439 . S
O59 Cd58 2.240 . S
O59 C64 1.279 . S
O60 Cd57 2.297 . S
O60 C62 1.247 . S
O61 Cd57 2.439 . S
O61 C62 1.208 . S
C62 O60 1.247 . S
C62 O61 1.208 . S
C63 O68 1.247 . S
C63 O69 1.208 . S
C64 O56 1.315 . S
C64 O59 1.279 . S
C65 O66 1.315 . S
C65 O67 1.279 . S
O66 Cd58 2.223 . S
O66 C65 1.315 . S
O67 Cd57 2.240 . S
O67 C65 1.279 . S
O68 Cd58 2.297 . S
O68 C63 1.247 . S
O69 Cd58 2.439 . S
O69 C63 1.208 . S
O70 Cd71 2.223 . S
O70 C78 1.315 . S
Cd71 O70 2.223 . S
Cd71 O74 2.297 . S
Cd71 O75 2.439 . S
Cd71 O81 2.240 . S
Cd72 O73 2.240 . S
Cd72 O80 2.223 . S
Cd72 O82 2.297 . S
Cd72 O83 2.439 . S
O73 Cd72 2.240 . S
O73 C78 1.279 . S
O74 Cd71 2.297 . S
O74 C76 1.247 . S
O75 Cd71 2.439 . S
O75 C76 1.208 . S
C76 O74 1.247 . S
C76 O75 1.208 . S
C77 O82 1.247 . S
C77 O83 1.208 . S
C78 O70 1.315 . S
C78 O73 1.279 . S
C79 O80 1.315 . S
C79 O81 1.279 . S
O80 Cd72 2.223 . S
O80 C79 1.315 . S
O81 Cd71 2.240 . S
O81 C79 1.279 . S
O82 Cd72 2.297 . S
O82 C77 1.247 . S
O83 Cd72 2.439 . S
O83 C77 1.208 . S
O84 Cd85 2.223 . S
O84 C92 1.315 . S
Cd85 O84 2.223 . S
Cd85 O88 2.297 . S
Cd85 O89 2.439 . S
Cd85 O95 2.240 . S
Cd86 O87 2.240 . S
Cd86 O94 2.223 . S
Cd86 O96 2.297 . S
Cd86 O97 2.439 . S
O87 Cd86 2.240 . S
O87 C92 1.279 . S
O88 Cd85 2.297 . S
O88 C90 1.247 . S
O89 Cd85 2.439 . S
O89 C90 1.208 . S
C90 O88 1.247 . S
C90 O89 1.208 . S
C91 O96 1.247 . S
C91 O97 1.208 . S
C92 O84 1.315 . S
C92 O87 1.279 . S
C93 O94 1.315 . S
C93 O95 1.279 . S
O94 Cd86 2.223 . S
O94 C93 1.315 . S
O95 Cd85 2.240 . S
O95 C93 1.279 . S
O96 Cd86 2.297 . S
O96 C91 1.247 . S
O97 Cd86 2.439 . S
O97 C91 1.208 . S
O98 Cd99 2.223 . S
O98 C106 1.315 . S
Cd99 O98 2.223 . S
Cd99 O102 2.297 . S
Cd99 O103 2.439 . S
Cd99 O109 2.240 . S
Cd100 O101 2.240 . S
Cd100 O108 2.223 . S
Cd100 O110 2.297 . S
Cd100 O111 2.439 . S
O101 Cd100 2.240 . S
O101 C106 1.279 . S
O102 Cd99 2.297 . S
O102 C104 1.247 . S
O103 Cd99 2.439 . S
O103 C104 1.208 . S
C104 O102 1.247 . S
C104 O103 1.208 . S
C105 O110 1.247 . S
C105 O111 1.208 . S
C106 O98 1.315 . S
C106 O101 1.279 . S
C107 O108 1.315 . S
C107 O109 1.279 . S
O108 Cd100 2.223 . S
O108 C107 1.315 . S
O109 Cd99 2.240 . S
O109 C107 1.279 . S
O110 Cd100 2.297 . S
O110 C105 1.247 . S
O111 Cd100 2.439 . S
O111 C105 1.208 . S
O112 Cd113 2.223 . S
O112 C120 1.315 . S
Cd113 O112 2.223 . S
Cd113 O116 2.297 . S
Cd113 O117 2.439 . S
Cd113 O123 2.240 . S
Cd114 O115 2.240 . S
Cd114 O122 2.223 . S
Cd114 O124 2.297 . S
Cd114 O125 2.439 . S
O115 Cd114 2.240 . S
O115 C120 1.279 . S
O116 Cd113 2.297 . S
O116 C118 1.247 . S
O117 Cd113 2.439 . S
O117 C118 1.208 . S
C118 O116 1.247 . S
C118 O117 1.208 . S
C119 O124 1.247 . S
C119 O125 1.208 . S
C120 O112 1.315 . S
C120 O115 1.279 . S
C121 O122 1.315 . S
C121 O123 1.279 . S
O122 Cd114 2.223 . S
O122 C121 1.315 . S
O123 Cd113 2.240 . S
O123 C121 1.279 . S
O124 Cd114 2.297 . S
O124 C119 1.247 . S
O125 Cd114 2.439 . S
O125 C119 1.208 . S
O126 Cd127 2.223 . S
O126 C134 1.315 . S
Cd127 O126 2.223 . S
Cd127 O130 2.297 . S
Cd127 O131 2.439 . S
Cd127 O137 2.240 . S
Cd128 O129 2.240 . S
Cd128 O136 2.223 . S
Cd128 O138 2.297 . S
Cd128 O139 2.439 . S
O129 Cd128 2.240 . S
O129 C134 1.279 . S
O130 Cd127 2.297 . S
O130 C132 1.247 . S
O131 Cd127 2.439 . S
O131 C132 1.208 . S
C132 O130 1.247 . S
C132 O131 1.208 . S
C133 O138 1.247 . S
C133 O139 1.208 . S
C134 O126 1.315 . S
C134 O129 1.279 . S
C135 O136 1.315 . S
C135 O137 1.279 . S
O136 Cd128 2.223 . S
O136 C135 1.315 . S
O137 Cd127 2.240 . S
O137 C135 1.279 . S
O138 Cd128 2.297 . S
O138 C133 1.247 . S
O139 Cd128 2.439 . S
O139 C133 1.208 . S
O140 Cd141 2.223 . S
O140 C148 1.315 . S
Cd141 O140 2.223 . S
Cd141 O144 2.297 . S
Cd141 O145 2.439 . S
Cd141 O151 2.240 . S
Cd142 O143 2.240 . S
Cd142 O150 2.223 . S
Cd142 O152 2.297 . S
Cd142 O153 2.439 . S
O143 Cd142 2.240 . S
O143 C148 1.279 . S
O144 Cd141 2.297 . S
O144 C146 1.247 . S
O145 Cd141 2.439 . S
O145 C146 1.208 . S
C146 O144 1.247 . S
C146 O145 1.208 . S
C147 O152 1.247 . S
C147 O153 1.208 . S
C148 O140 1.315 . S
C148 O143 1.279 . S
C149 O150 1.315 . S
C149 O151 1.279 . S
O150 Cd142 2.223 . S
O150 C149 1.315 . S
O151 Cd141 2.240 . S
O151 C149 1.279 . S
O152 Cd142 2.297 . S
O152 C147 1.247 . S
O153 Cd142 2.439 . S
O153 C147 1.208 . S
O154 Cd155 2.223 . S
O154 C162 1.315 . S
Cd155 O154 2.223 . S
Cd155 O158 2.297 . S
Cd155 O159 2.439 . S
Cd155 O165 2.240 . S
Cd156 O157 2.240 . S
Cd156 O164 2.223 . S
Cd156 O166 2.297 . S
Cd156 O167 2.439 . S
O157 Cd156 2.240 . S
O157 C162 1.279 . S
O158 Cd155 2.297 . S
O158 C160 1.247 . S
O159 Cd155 2.439 . S
O159 C160 1.208 . S
C160 O158 1.247 . S
C160 O159 1.208 . S
C161 O166 1.247 . S
C161 O167 1.208 . S
C162 O154 1.315 . S
C162 O157 1.279 . S
C163 O164 1.315 . S
C163 O165 1.279 . S
O164 Cd156 2.223 . S
O164 C163 1.315 . S
O165 Cd155 2.240 . S
O165 C163 1.279 . S
O166 Cd156 2.297 . S
O166 C161 1.247 . S
O167 Cd156 2.439 . S
O167 C161 1.208 . S
O168 Cd169 2.223 . S
O168 C176 1.315 . S
Cd169 O168 2.223 . S
Cd169 O172 2.297 . S
Cd169 O173 2.439 . S
Cd169 O179 2.240 . S
Cd170 O171 2.240 . S
Cd170 O178 2.223 . S
Cd170 O180 2.297 . S
Cd170 O181 2.439 . S
O171 Cd170 2.240 . S
O171 C176 1.279 . S
O172 Cd169 2.297 . S
O172 C174 1.247 . S
O173 Cd169 2.439 . S
O173 C174 1.208 . S
C174 O172 1.247 . S
C174 O173 1.208 . S
C175 O180 1.247 . S
C175 O181 1.208 . S
C176 O168 1.315 . S
C176 O171 1.279 . S
C177 O178 1.315 . S
C177 O179 1.279 . S
O178 Cd170 2.223 . S
O178 C177 1.315 . S
O179 Cd169 2.240 . S
O179 C177 1.279 . S
O180 Cd170 2.297 . S
O180 C175 1.247 . S
O181 Cd170 2.439 . S
O181 C175 1.208 . S
O182 Cd183 2.223 . S
O182 C190 1.315 . S
Cd183 O182 2.223 . S
Cd183 O186 2.297 . S
Cd183 O187 2.439 . S
Cd183 O193 2.240 . S
Cd184 O185 2.240 . S
Cd184 O192 2.223 . S
Cd184 O194 2.297 . S
Cd184 O195 2.439 . S
O185 Cd184 2.240 . S
O185 C190 1.279 . S
O186 Cd183 2.297 . S
O186 C188 1.247 . S
O187 Cd183 2.439 . S
O187 C188 1.208 . S
C188 O186 1.247 . S
C188 O187 1.208 . S
C189 O194 1.247 . S
C189 O195 1.208 . S
C190 O182 1.315 . S
C190 O185 1.279 . S
C191 O192 1.315 . S
C191 O193 1.279 . S
O192 Cd184 2.223 . S
O192 C191 1.315 . S
O193 Cd183 2.240 . S
O193 C191 1.279 . S
O194 Cd184 2.297 . S
O194 C189 1.247 . S
O195 Cd184 2.439 . S
O195 C189 1.208 . S
O196 Cd197 2.223 . S
O196 C204 1.315 . S
Cd197 O196 2.223 . S
Cd197 O200 2.297 . S
Cd197 O201 2.439 . S
Cd197 O207 2.240 . S
Cd198 O199 2.240 . S
Cd198 O206 2.223 . S
Cd198 O208 2.297 . S
Cd198 O209 2.439 . S
O199 Cd198 2.240 . S
O199 C204 1.279 . S
O200 Cd197 2.297 . S
O200 C202 1.247 . S
O201 Cd197 2.439 . S
O201 C202 1.208 . S
C202 O200 1.247 . S
C202 O201 1.208 . S
C203 O208 1.247 . S
C203 O209 1.208 . S
C204 O196 1.315 . S
C204 O199 1.279 . S
C205 O206 1.315 . S
C205 O207 1.279 . S
O206 Cd198 2.223 . S
O206 C205 1.315 . S
O207 Cd197 2.240 . S
O207 C205 1.279 . S
O208 Cd198 2.297 . S
O208 C203 1.247 . S
O209 Cd198 2.439 . S
O209 C203 1.208 . S
O210 Cd211 2.223 . S
O210 C218 1.315 . S
Cd211 O210 2.223 . S
Cd211 O214 2.297 . S
Cd211 O215 2.439 . S
Cd211 O221 2.240 . S
Cd212 O213 2.240 . S
Cd212 O220 2.223 . S
Cd212 O222 2.297 . S
Cd212 O223 2.439 . S
O213 Cd212 2.240 . S
O213 C218 1.279 . S
O214 Cd211 2.297 . S
O214 C216 1.247 . S
O215 Cd211 2.439 . S
O215 C216 1.208 . S
C216 O214 1.247 . S
C216 O215 1.208 . S
C217 O222 1.247 . S
C217 O223 1.208 . S
C218 O210 1.315 . S
C218 O213 1.279 . S
C219 O220 1.315 . S
C219 O221 1.279 . S
O220 Cd212 2.223 . S
O220 C219 1.315 . S
O221 Cd211 2.240 . S
O221 C219 1.279 . S
O222 Cd212 2.297 . S
O222 C217 1.247 . S
O223 Cd212 2.439 . S
O223 C217 1.208 . S
O224 Cd225 2.223 . S
O224 C232 1.315 . S
Cd225 O224 2.223 . S
Cd225 O228 2.297 . S
Cd225 O229 2.439 . S
Cd225 O235 2.240 . S
Cd226 O227 2.240 . S
Cd226 O234 2.223 . S
Cd226 O236 2.297 . S
Cd226 O237 2.439 . S
O227 Cd226 2.240 . S
O227 C232 1.279 . S
O228 Cd225 2.297 . S
O228 C230 1.247 . S
O229 Cd225 2.439 . S
O229 C230 1.208 . S
C230 O228 1.247 . S
C230 O229 1.208 . S
C231 O236 1.247 . S
C231 O237 1.208 . S
C232 O224 1.315 . S
C232 O227 1.279 . S
C233 O234 1.315 . S
C233 O235 1.279 . S
O234 Cd226 2.223 . S
O234 C233 1.315 . S
O235 Cd225 2.240 . S
O235 C233 1.279 . S
O236 Cd226 2.297 . S
O236 C231 1.247 . S
O237 Cd226 2.439 . S
O237 C231 1.208 . S
O238 Cd239 2.223 . S
O238 C246 1.315 . S
Cd239 O238 2.223 . S
Cd239 O242 2.297 . S
Cd239 O243 2.439 . S
Cd239 O249 2.240 . S
Cd240 O241 2.240 . S
Cd240 O248 2.223 . S
Cd240 O250 2.297 . S
Cd240 O251 2.439 . S
O241 Cd240 2.240 . S
O241 C246 1.279 . S
O242 Cd239 2.297 . S
O242 C244 1.247 . S
O243 Cd239 2.439 . S
O243 C244 1.208 . S
C244 O242 1.247 . S
C244 O243 1.208 . S
C245 O250 1.247 . S
C245 O251 1.208 . S
C246 O238 1.315 . S
C246 O241 1.279 . S
C247 O248 1.315 . S
C247 O249 1.279 . S
O248 Cd240 2.223 . S
O248 C247 1.315 . S
O249 Cd239 2.240 . S
O249 C247 1.279 . S
O250 Cd240 2.297 . S
O250 C245 1.247 . S
O251 Cd240 2.439 . S
O251 C245 1.208 . S
O252 Cd253 2.223 . S
O252 C260 1.315 . S
Cd253 O252 2.223 . S
Cd253 O256 2.297 . S
Cd253 O257 2.439 . S
Cd253 O263 2.240 . S
Cd254 O255 2.240 . S
Cd254 O262 2.223 . S
Cd254 O264 2.297 . S
Cd254 O265 2.439 . S
O255 Cd254 2.240 . S
O255 C260 1.279 . S
O256 Cd253 2.297 . S
O256 C258 1.247 . S
O257 Cd253 2.439 . S
O257 C258 1.208 . S
C258 O256 1.247 . S
C258 O257 1.208 . S
C259 O264 1.247 . S
C259 O265 1.208 . S
C260 O252 1.315 . S
C260 O255 1.279 . S
C261 O262 1.315 . S
C261 O263 1.279 . S
O262 Cd254 2.223 . S
O262 C261 1.315 . S
O263 Cd253 2.240 . S
O263 C261 1.279 . S
O264 Cd254 2.297 . S
O264 C259 1.247 . S
O265 Cd254 2.439 . S
O265 C259 1.208 . S
O266 Cd267 2.223 . S
O266 C274 1.315 . S
Cd267 O266 2.223 . S
Cd267 O270 2.297 . S
Cd267 O271 2.439 . S
Cd267 O277 2.240 . S
Cd268 O269 2.240 . S
Cd268 O276 2.223 . S
Cd268 O278 2.297 . S
Cd268 O279 2.439 . S
O269 Cd268 2.240 . S
O269 C274 1.279 . S
O270 Cd267 2.297 . S
O270 C272 1.247 . S
O271 Cd267 2.439 . S
O271 C272 1.208 . S
C272 O270 1.247 . S
C272 O271 1.208 . S
C273 O278 1.247 . S
C273 O279 1.208 . S
C274 O266 1.315 . S
C274 O269 1.279 . S
C275 O276 1.315 . S
C275 O277 1.279 . S
O276 Cd268 2.223 . S
O276 C275 1.315 . S
O277 Cd267 2.240 . S
O277 C275 1.279 . S
O278 Cd268 2.297 . S
O278 C273 1.247 . S
O279 Cd268 2.439 . S
O279 C273 1.208 . S
O280 Cd281 2.223 . S
O280 C288 1.315 . S
Cd281 O280 2.223 . S
Cd281 O284 2.297 . S
Cd281 O285 2.439 . S
Cd281 O291 2.240 . S
Cd282 O283 2.240 . S
Cd282 O290 2.223 . S
Cd282 O292 2.297 . S
Cd282 O293 2.439 . S
O283 Cd282 2.240 . S
O283 C288 1.279 . S
O284 Cd281 2.297 . S
O284 C286 1.247 . S
O285 Cd281 2.439 . S
O285 C286 1.208 . S
C286 O284 1.247 . S
C286 O285 1.208 . S
C287 O292 1.247 . S
C287 O293 1.208 . S
C288 O280 1.315 . S
C288 O283 1.279 . S
C289 O290 1.315 . S
C289 O291 1.279 . S
O290 Cd282 2.223 . S
O290 C289 1.315 . S
O291 Cd281 2.240 . S
O291 C289 1.279 . S
O292 Cd282 2.297 . S
O292 C287 1.247 . S
O293 Cd282 2.439 . S
O293 C287 1.208 . S
O294 Cd295 2.223 . S
O294 C302 1.315 . S
Cd295 O294 2.223 . S
Cd295 O298 2.297 . S
Cd295 O299 2.439 . S
Cd295 O305 2.240 . S
Cd296 O297 2.240 . S
Cd296 O304 2.223 . S
Cd296 O306 2.297 . S
Cd296 O307 2.439 . S
O297 Cd296 2.240 . S
O297 C302 1.279 . S
O298 Cd295 2.297 . S
O298 C300 1.247 . S
O299 Cd295 2.439 . S
O299 C300 1.208 . S
C300 O298 1.247 . S
C300 O299 1.208 . S
C301 O306 1.247 . S
C301 O307 1.208 . S
C302 O294 1.315 . S
C302 O297 1.279 . S
C303 O304 1.315 . S
C303 O305 1.279 . S
O304 Cd296 2.223 . S
O304 C303 1.315 . S
O305 Cd295 2.240 . S
O305 C303 1.279 . S
O306 Cd296 2.297 . S
O306 C301 1.247 . S
O307 Cd296 2.439 . S
O307 C301 1.208 . S
O308 Cd309 2.223 . S
O308 C316 1.315 . S
Cd309 O308 2.223 . S
Cd309 O312 2.297 . S
Cd309 O313 2.439 . S
Cd309 O319 2.240 . S
Cd310 O311 2.240 . S
Cd310 O318 2.223 . S
Cd310 O320 2.297 . S
Cd310 O321 2.439 . S
O311 Cd310 2.240 . S
O311 C316 1.279 . S
O312 Cd309 2.297 . S
O312 C314 1.247 . S
O313 Cd309 2.439 . S
O313 C314 1.208 . S
C314 O312 1.247 . S
C314 O313 1.208 . S
C315 O320 1.247 . S
C315 O321 1.208 . S
C316 O308 1.315 . S
C316 O311 1.279 . S
C317 O318 1.315 . S
C317 O319 1.279 . S
O318 Cd310 2.223 . S
O318 C317 1.315 . S
O319 Cd309 2.240 . S
O319 C317 1.279 . S
O320 Cd310 2.297 . S
O320 C315 1.247 . S
O321 Cd310 2.439 . S
O321 C315 1.208 . S
O322 Cd323 2.223 . S
O322 C330 1.315 . S
Cd323 O322 2.223 . S
Cd323 O326 2.297 . S
Cd323 O327 2.439 . S
Cd323 O333 2.240 . S
Cd324 O325 2.240 . S
Cd324 O332 2.223 . S
Cd324 O334 2.297 . S
Cd324 O335 2.439 . S
O325 Cd324 2.240 . S
O325 C330 1.279 . S
O326 Cd323 2.297 . S
O326 C328 1.247 . S
O327 Cd323 2.439 . S
O327 C328 1.208 . S
C328 O326 1.247 . S
C328 O327 1.208 . S
C329 O334 1.247 . S
C329 O335 1.208 . S
C330 O322 1.315 . S
C330 O325 1.279 . S
C331 O332 1.315 . S
C331 O333 1.279 . S
O332 Cd324 2.223 . S
O332 C331 1.315 . S
O333 Cd323 2.240 . S
O333 C331 1.279 . S
O334 Cd324 2.297 . S
O334 C329 1.247 . S
O335 Cd324 2.439 . S
O335 C329 1.208 . S
O336 Cd337 2.223 . S
O336 C344 1.315 . S
Cd337 O336 2.223 . S
Cd337 O340 2.297 . S
Cd337 O341 2.439 . S
Cd337 O347 2.240 . S
Cd338 O339 2.240 . S
Cd338 O346 2.223 . S
Cd338 O348 2.297 . S
Cd338 O349 2.439 . S
O339 Cd338 2.240 . S
O339 C344 1.279 . S
O340 Cd337 2.297 . S
O340 C342 1.247 . S
O341 Cd337 2.439 . S
O341 C342 1.208 . S
C342 O340 1.247 . S
C342 O341 1.208 . S
C343 O348 1.247 . S
C343 O349 1.208 . S
C344 O336 1.315 . S
C344 O339 1.279 . S
C345 O346 1.315 . S
C345 O347 1.279 . S
O346 Cd338 2.223 . S
O346 C345 1.315 . S
O347 Cd337 2.240 . S
O347 C345 1.279 . S
O348 Cd338 2.297 . S
O348 C343 1.247 . S
O349 Cd338 2.439 . S
O349 C343 1.208 . S
O350 Cd351 2.223 . S
O350 C358 1.315 . S
Cd351 O350 2.223 . S
Cd351 O354 2.297 . S
Cd351 O355 2.439 . S
Cd351 O361 2.240 . S
Cd352 O353 2.240 . S
Cd352 O360 2.223 . S
Cd352 O362 2.297 . S
Cd352 O363 2.439 . S
O353 Cd352 2.240 . S
O353 C358 1.279 . S
O354 Cd351 2.297 . S
O354 C356 1.247 . S
O355 Cd351 2.439 . S
O355 C356 1.208 . S
C356 O354 1.247 . S
C356 O355 1.208 . S
C357 O362 1.247 . S
C357 O363 1.208 . S
C358 O350 1.315 . S
C358 O353 1.279 . S
C359 O360 1.315 . S
C359 O361 1.279 . S
O360 Cd352 2.223 . S
O360 C359 1.315 . S
O361 Cd351 2.240 . S
O361 C359 1.279 . S
O362 Cd352 2.297 . S
O362 C357 1.247 . S
O363 Cd352 2.439 . S
O363 C357 1.208 . S
O364 Cd365 2.223 . S
O364 C372 1.315 . S
Cd365 O364 2.223 . S
Cd365 O368 2.297 . S
Cd365 O369 2.439 . S
Cd365 O375 2.240 . S
Cd366 O367 2.240 . S
Cd366 O374 2.223 . S
Cd366 O376 2.297 . S
Cd366 O377 2.439 . S
O367 Cd366 2.240 . S
O367 C372 1.279 . S
O368 Cd365 2.297 . S
O368 C370 1.247 . S
O369 Cd365 2.439 . S
O369 C370 1.208 . S
C370 O368 1.247 . S
C370 O369 1.208 . S
C371 O376 1.247 . S
C371 O377 1.208 . S
C372 O364 1.315 . S
C372 O367 1.279 . S
C373 O374 1.315 . S
C373 O375 1.279 . S
O374 Cd366 2.223 . S
O374 C373 1.315 . S
O375 Cd365 2.240 . S
O375 C373 1.279 . S
O376 Cd366 2.297 . S
O376 C371 1.247 . S
O377 Cd366 2.439 . S
O377 C371 1.208 . S
O378 Cd379 2.223 . S
O378 C386 1.315 . S
Cd379 O378 2.223 . S
Cd379 O382 2.297 . S
Cd379 O383 2.439 . S
Cd379 O389 2.240 . S
Cd380 O381 2.240 . S
Cd380 O388 2.223 . S
Cd380 O390 2.297 . S
Cd380 O391 2.439 . S
O381 Cd380 2.240 . S
O381 C386 1.279 . S
O382 Cd379 2.297 . S
O382 C384 1.247 . S
O383 Cd379 2.439 . S
O383 C384 1.208 . S
C384 O382 1.247 . S
C384 O383 1.208 . S
C385 O390 1.247 . S
C385 O391 1.208 . S
C386 O378 1.315 . S
C386 O381 1.279 . S
C387 O388 1.315 . S
C387 O389 1.279 . S
O388 Cd380 2.223 . S
O388 C387 1.315 . S
O389 Cd379 2.240 . S
O389 C387 1.279 . S
O390 Cd380 2.297 . S
O390 C385 1.247 . S
O391 Cd380 2.439 . S
O391 C385 1.208 . S
O392 Cd393 2.223 . S
O392 C400 1.315 . S
Cd393 O392 2.223 . S
Cd393 O396 2.297 . S
Cd393 O397 2.439 . S
Cd393 O403 2.240 . S
Cd394 O395 2.240 . S
Cd394 O402 2.223 . S
Cd394 O404 2.297 . S
Cd394 O405 2.439 . S
O395 Cd394 2.240 . S
O395 C400 1.279 . S
O396 Cd393 2.297 . S
O396 C398 1.247 . S
O397 Cd393 2.439 . S
O397 C398 1.208 . S
C398 O396 1.247 . S
C398 O397 1.208 . S
C399 O404 1.247 . S
C399 O405 1.208 . S
C400 O392 1.315 . S
C400 O395 1.279 . S
C401 O402 1.315 . S
C401 O403 1.279 . S
O402 Cd394 2.223 . S
O402 C401 1.315 . S
O403 Cd393 2.240 . S
O403 C401 1.279 . S
O404 Cd394 2.297 . S
O404 C399 1.247 . S
O405 Cd394 2.439 . S
O405 C399 1.208 . S
O406 Cd407 2.223 . S
O406 C414 1.315 . S
Cd407 O406 2.223 . S
Cd407 O410 2.297 . S
Cd407 O411 2.439 . S
Cd407 O417 2.240 . S
Cd408 O409 2.240 . S
Cd408 O416 2.223 . S
Cd408 O418 2.297 . S
Cd408 O419 2.439 . S
O409 Cd408 2.240 . S
O409 C414 1.279 . S
O410 Cd407 2.297 . S
O410 C412 1.247 . S
O411 Cd407 2.439 . S
O411 C412 1.208 . S
C412 O410 1.247 . S
C412 O411 1.208 . S
C413 O418 1.247 . S
C413 O419 1.208 . S
C414 O406 1.315 . S
C414 O409 1.279 . S
C415 O416 1.315 . S
C415 O417 1.279 . S
O416 Cd408 2.223 . S
O416 C415 1.315 . S
O417 Cd407 2.240 . S
O417 C415 1.279 . S
O418 Cd408 2.297 . S
O418 C413 1.247 . S
O419 Cd408 2.439 . S
O419 C413 1.208 . S
O420 Cd421 2.223 . S
O420 C428 1.315 . S
Cd421 O420 2.223 . S
Cd421 O424 2.297 . S
Cd421 O425 2.439 . S
Cd421 O431 2.240 . S
Cd422 O423 2.240 . S
Cd422 O430 2.223 . S
Cd422 O432 2.297 . S
Cd422 O433 2.439 . S
O423 Cd422 2.240 . S
O423 C428 1.279 . S
O424 Cd421 2.297 . S
O424 C426 1.247 . S
O425 Cd421 2.439 . S
O425 C426 1.208 . S
C426 O424 1.247 . S
C426 O425 1.208 . S
C427 O432 1.247 . S
C427 O433 1.208 . S
C428 O420 1.315 . S
C428 O423 1.279 . S
C429 O430 1.315 . S
C429 O431 1.279 . S
O430 Cd422 2.223 . S
O430 C429 1.315 . S
O431 Cd421 2.240 . S
O431 C429 1.279 . S
O432 Cd422 2.297 . S
O432 C427 1.247 . S
O433 Cd422 2.439 . S
O433 C427 1.208 . S
O434 Cd435 2.223 . S
O434 C442 1.315 . S
Cd435 O434 2.223 . S
Cd435 O438 2.297 . S
Cd435 O439 2.439 . S
Cd435 O445 2.240 . S
Cd436 O437 2.240 . S
Cd436 O444 2.223 . S
Cd436 O446 2.297 . S
Cd436 O447 2.439 . S
O437 Cd436 2.240 . S
O437 C442 1.279 . S
O438 Cd435 2.297 . S
O438 C440 1.247 . S
O439 Cd435 2.439 . S
O439 C440 1.208 . S
C440 O438 1.247 . S
C440 O439 1.208 . S
C441 O446 1.247 . S
C441 O447 1.208 . S
C442 O434 1.315 . S
C442 O437 1.279 . S
C443 O444 1.315 . S
C443 O445 1.279 . S
O444 Cd436 2.223 . S
O444 C443 1.315 . S
O445 Cd435 2.240 . S
O445 C443 1.279 . S
O446 Cd436 2.297 . S
O446 C441 1.247 . S
O447 Cd436 2.439 . S
O447 C441 1.208 . S
H448 C454 0.930 . S
H449 C457 0.930 . S
H450 C458 0.930 . S
H451 C459 0.930 . S
H452 C462 0.930 . S
H453 C463 0.930 . S
C454 H448 0.930 . S
C454 C455 1.355 . S
C454 C456 1.415 . S
C455 C454 1.355 . S
C455 C457 1.419 1_556 S
C456 C454 1.415 . S
C456 C461 1.425 1_656 S
C456 C463 1.409 . S
C457 H449 0.930 . S
C457 C455 1.419 1_554 S
C457 C458 1.362 1_655 S
C458 H450 0.930 . S
C458 C457 1.362 1_455 S
C458 C461 1.409 . S
C459 H451 0.930 . S
C459 C460 1.355 . S
C459 C461 1.415 . S
C460 C459 1.355 . S
C460 C462 1.419 1_554 S
C461 C456 1.425 1_454 S
C461 C458 1.409 . S
C461 C459 1.415 . S
C462 H452 0.930 . S
C462 C460 1.419 1_556 S
C462 C463 1.362 1_455 S
C463 H453 0.930 . S
C463 C456 1.409 . S
C463 C462 1.362 1_655 S
H464 C470 0.930 . S
H465 C473 0.930 . S
H466 C474 0.930 . S
H467 C475 0.930 . S
H468 C478 0.930 . S
H469 C479 0.930 . S
C470 H464 0.930 . S
C470 C471 1.355 . S
C470 C472 1.415 . S
C471 C470 1.355 . S
C471 C473 1.419 . S
C472 C470 1.415 . S
C472 C477 1.425 . S
C472 C479 1.409 . S
C473 H465 0.930 . S
C473 C471 1.419 . S
C473 C474 1.362 . S
C474 H466 0.930 . S
C474 C473 1.362 . S
C474 C477 1.409 . S
C475 H467 0.930 . S
C475 C476 1.355 . S
C475 C477 1.415 . S
C476 C475 1.355 . S
C476 C478 1.419 . S
C477 C472 1.425 . S
C477 C474 1.409 . S
C477 C475 1.415 . S
C478 H468 0.930 . S
C478 C476 1.419 . S
C478 C479 1.362 . S
C479 H469 0.930 . S
C479 C472 1.409 . S
C479 C478 1.362 . S
H480 C486 0.930 . S
H481 C489 0.930 . S
H482 C490 0.930 . S
H483 C491 0.930 . S
H484 C494 0.930 . S
H485 C495 0.930 . S
C486 H480 0.930 . S
C486 C487 1.355 . S
C486 C488 1.415 . S
C487 C486 1.355 . S
C487 C489 1.419 . S
C488 C486 1.415 . S
C488 C493 1.425 . S
C488 C495 1.409 . S
C489 H481 0.930 . S
C489 C487 1.419 . S
C489 C490 1.362 . S
C490 H482 0.930 . S
C490 C489 1.362 . S
C490 C493 1.409 . S
C491 H483 0.930 . S
C491 C492 1.355 . S
C491 C493 1.415 . S
C492 C491 1.355 . S
C492 C494 1.419 . S
C493 C488 1.425 . S
C493 C490 1.409 . S
C493 C491 1.415 . S
C494 H484 0.930 . S
C494 C492 1.419 . S
C494 C495 1.362 . S
C495 H485 0.930 . S
C495 C488 1.409 . S
C495 C494 1.362 . S
H496 C502 0.930 . S
H497 C505 0.930 . S
H498 C506 0.930 . S
H499 C507 0.930 . S
H500 C510 0.930 . S
H501 C511 0.930 . S
C502 H496 0.930 . S
C502 C503 1.355 . S
C502 C504 1.415 . S
C503 C502 1.355 . S
C503 C505 1.419 . S
C504 C502 1.415 . S
C504 C509 1.425 . S
C504 C511 1.409 . S
C505 H497 0.930 . S
C505 C503 1.419 . S
C505 C506 1.362 . S
C506 H498 0.930 . S
C506 C505 1.362 . S
C506 C509 1.409 . S
C507 H499 0.930 . S
C507 C508 1.355 . S
C507 C509 1.415 . S
C508 C507 1.355 . S
C508 C510 1.419 . S
C509 C504 1.425 . S
C509 C506 1.409 . S
C509 C507 1.415 . S
C510 H500 0.930 . S
C510 C508 1.419 . S
C510 C511 1.362 . S
C511 H501 0.930 . S
C511 C504 1.409 . S
C511 C510 1.362 . S
H512 C518 0.930 . S
H513 C521 0.930 . S
H514 C522 0.931 1_455 S
H515 C523 0.930 . S
H516 C526 0.930 . S
H517 C527 0.931 1_655 S
C518 H512 0.930 . S
C518 C519 1.355 . S
C518 C520 1.415 . S
C519 C518 1.355 . S
C519 C521 1.419 . S
C520 C518 1.415 . S
C520 C525 1.425 1_655 S
C520 C527 1.409 1_655 S
C521 H513 0.930 . S
C521 C519 1.419 . S
C521 C522 1.362 . S
C522 H514 0.931 1_655 S
C522 C521 1.362 . S
C522 C525 1.409 1_655 S
C523 H515 0.930 . S
C523 C524 1.355 . S
C523 C525 1.415 . S
C524 C523 1.355 . S
C524 C526 1.419 . S
C525 C520 1.425 1_455 S
C525 C522 1.409 1_455 S
C525 C523 1.415 . S
C526 H516 0.930 . S
C526 C524 1.419 . S
C526 C527 1.362 . S
C527 H517 0.931 1_455 S
C527 C520 1.409 1_455 S
C527 C526 1.362 . S
H528 C534 0.930 . S
H529 C537 0.930 . S
H530 C538 0.930 . S
H531 C539 0.930 . S
H532 C542 0.930 . S
H533 C543 0.930 . S
C534 H528 0.930 . S
C534 C535 1.355 . S
C534 C536 1.415 . S
C535 C534 1.355 . S
C535 C537 1.419 . S
C536 C534 1.415 . S
C536 C541 1.425 . S
C536 C543 1.409 . S
C537 H529 0.930 . S
C537 C535 1.419 . S
C537 C538 1.362 . S
C538 H530 0.930 . S
C538 C537 1.362 . S
C538 C541 1.409 . S
C539 H531 0.930 . S
C539 C540 1.355 . S
C539 C541 1.415 . S
C540 C539 1.355 . S
C540 C542 1.419 . S
C541 C536 1.425 . S
C541 C538 1.409 . S
C541 C539 1.415 . S
C542 H532 0.930 . S
C542 C540 1.419 . S
C542 C543 1.362 . S
C543 H533 0.930 . S
C543 C536 1.409 . S
C543 C542 1.362 . S
H544 C550 0.930 . S
H545 C553 0.930 . S
H546 C554 0.930 . S
H547 C555 0.930 . S
H548 C558 0.930 . S
H549 C559 0.930 . S
C550 H544 0.930 . S
C550 C551 1.355 . S
C550 C552 1.415 . S
C551 C550 1.355 . S
C551 C553 1.419 1_556 S
C552 C550 1.415 . S
C552 C557 1.425 1_556 S
C552 C559 1.409 . S
C553 H545 0.930 . S
C553 C551 1.419 1_554 S
C553 C554 1.362 . S
C554 H546 0.930 . S
C554 C553 1.362 . S
C554 C557 1.409 . S
C555 H547 0.930 . S
C555 C556 1.355 . S
C555 C557 1.415 . S
C556 C555 1.355 . S
C556 C558 1.419 1_554 S
C557 C552 1.425 1_554 S
C557 C554 1.409 . S
C557 C555 1.415 . S
C558 H548 0.930 . S
C558 C556 1.419 1_556 S
C558 C559 1.362 . S
C559 H549 0.930 . S
C559 C552 1.409 . S
C559 C558 1.362 . S
H560 C566 0.930 . S
H561 C569 0.930 . S
H562 C570 0.930 . S
H563 C571 0.930 . S
H564 C574 0.930 . S
H565 C575 0.930 . S
C566 H560 0.930 . S
C566 C567 1.355 . S
C566 C568 1.415 . S
C567 C566 1.355 . S
C567 C569 1.419 . S
C568 C566 1.415 . S
C568 C573 1.425 . S
C568 C575 1.409 . S
C569 H561 0.930 . S
C569 C567 1.419 . S
C569 C570 1.362 . S
C570 H562 0.930 . S
C570 C569 1.362 . S
C570 C573 1.409 . S
C571 H563 0.930 . S
C571 C572 1.355 . S
C571 C573 1.415 . S
C572 C571 1.355 . S
C572 C574 1.419 . S
C573 C568 1.425 . S
C573 C570 1.409 . S
C573 C571 1.415 . S
C574 H564 0.930 . S
C574 C572 1.419 . S
C574 C575 1.362 . S
C575 H565 0.930 . S
C575 C568 1.409 . S
C575 C574 1.362 . S
H576 C582 0.930 . S
H577 C585 0.930 . S
H578 C586 0.930 . S
H579 C587 0.930 . S
H580 C590 0.930 . S
H581 C591 0.930 . S
C582 H576 0.930 . S
C582 C583 1.355 . S
C582 C584 1.415 . S
C583 C582 1.355 . S
C583 C585 1.419 . S
C584 C582 1.415 . S
C584 C589 1.425 . S
C584 C591 1.409 . S
C585 H577 0.930 . S
C585 C583 1.419 . S
C585 C586 1.362 . S
C586 H578 0.930 . S
C586 C585 1.362 . S
C586 C589 1.409 . S
C587 H579 0.930 . S
C587 C588 1.355 . S
C587 C589 1.415 . S
C588 C587 1.355 . S
C588 C590 1.419 . S
C589 C584 1.425 . S
C589 C586 1.409 . S
C589 C587 1.415 . S
C590 H580 0.930 . S
C590 C588 1.419 . S
C590 C591 1.362 . S
C591 H581 0.930 . S
C591 C584 1.409 . S
C591 C590 1.362 . S
H592 C598 0.930 . S
H593 C601 0.930 . S
H594 C602 0.930 . S
H595 C603 0.930 . S
H596 C606 0.930 . S
H597 C607 0.930 . S
C598 H592 0.930 . S
C598 C599 1.355 . S
C598 C600 1.415 . S
C599 C598 1.355 . S
C599 C601 1.419 . S
C600 C598 1.415 . S
C600 C605 1.425 . S
C600 C607 1.409 . S
C601 H593 0.930 . S
C601 C599 1.419 . S
C601 C602 1.362 . S
C602 H594 0.930 . S
C602 C601 1.362 . S
C602 C605 1.409 . S
C603 H595 0.930 . S
C603 C604 1.355 . S
C603 C605 1.415 . S
C604 C603 1.355 . S
C604 C606 1.419 . S
C605 C600 1.425 . S
C605 C602 1.409 . S
C605 C603 1.415 . S
C606 H596 0.930 . S
C606 C604 1.419 . S
C606 C607 1.362 . S
C607 H597 0.930 . S
C607 C600 1.409 . S
C607 C606 1.362 . S
H608 C614 0.930 . S
H609 C617 0.930 . S
H610 C618 0.930 . S
H611 C619 0.930 . S
H612 C622 0.930 . S
H613 C623 0.930 . S
C614 H608 0.930 . S
C614 C615 1.355 . S
C614 C616 1.415 . S
C615 C614 1.355 . S
C615 C617 1.419 . S
C616 C614 1.415 . S
C616 C621 1.425 . S
C616 C623 1.409 . S
C617 H609 0.930 . S
C617 C615 1.419 . S
C617 C618 1.362 . S
C618 H610 0.930 . S
C618 C617 1.362 . S
C618 C621 1.409 . S
C619 H611 0.930 . S
C619 C620 1.355 . S
C619 C621 1.415 . S
C620 C619 1.355 . S
C620 C622 1.419 . S
C621 C616 1.425 . S
C621 C618 1.409 . S
C621 C619 1.415 . S
C622 H612 0.930 . S
C622 C620 1.419 . S
C622 C623 1.362 . S
C623 H613 0.930 . S
C623 C616 1.409 . S
C623 C622 1.362 . S
H624 C630 0.930 . S
H625 C633 0.930 . S
H626 C634 0.930 . S
H627 C635 0.930 . S
H628 C638 0.930 . S
H629 C639 0.930 . S
C630 H624 0.930 . S
C630 C631 1.355 . S
C630 C632 1.415 . S
C631 C630 1.355 . S
C631 C633 1.419 . S
C632 C630 1.415 . S
C632 C637 1.425 . S
C632 C639 1.409 . S
C633 H625 0.930 . S
C633 C631 1.419 . S
C633 C634 1.362 . S
C634 H626 0.930 . S
C634 C633 1.362 . S
C634 C637 1.409 . S
C635 H627 0.930 . S
C635 C636 1.355 . S
C635 C637 1.415 . S
C636 C635 1.355 . S
C636 C638 1.419 . S
C637 C632 1.425 . S
C637 C634 1.409 . S
C637 C635 1.415 . S
C638 H628 0.930 . S
C638 C636 1.419 . S
C638 C639 1.362 . S
C639 H629 0.930 . S
C639 C632 1.409 . S
C639 C638 1.362 . S
H640 C646 0.930 . S
H641 C649 0.930 . S
H642 C650 0.930 . S
H643 C651 0.930 . S
H644 C654 0.930 . S
H645 C655 0.930 . S
C646 H640 0.930 . S
C646 C647 1.355 . S
C646 C648 1.415 . S
C647 C646 1.355 . S
C647 C649 1.419 . S
C648 C646 1.415 . S
C648 C653 1.425 1_565 S
C648 C655 1.409 . S
C649 H641 0.930 . S
C649 C647 1.419 . S
C649 C650 1.362 1_565 S
C650 H642 0.930 . S
C650 C649 1.362 1_545 S
C650 C653 1.409 . S
C651 H643 0.930 . S
C651 C652 1.355 . S
C651 C653 1.415 . S
C652 C651 1.355 . S
C652 C654 1.419 . S
C653 C648 1.425 1_545 S
C653 C650 1.409 . S
C653 C651 1.415 . S
C654 H644 0.930 . S
C654 C652 1.419 . S
C654 C655 1.362 1_545 S
C655 H645 0.930 . S
C655 C648 1.409 . S
C655 C654 1.362 1_565 S
H656 C662 0.930 . S
H657 C665 0.930 . S
H658 C666 0.928 1_554 S
H659 C667 0.930 . S
H660 C670 0.930 . S
H661 C671 0.928 1_556 S
C662 H656 0.930 . S
C662 C663 1.355 . S
C662 C664 1.415 1_565 S
C663 C662 1.355 . S
C663 C665 1.419 1_455 S
C664 C662 1.415 1_545 S
C664 C669 1.425 1_446 S
C664 C671 1.408 1_556 S
C665 H657 0.930 . S
C665 C663 1.419 1_655 S
C665 C666 1.367 . S
C666 H658 0.928 1_556 S
C666 C665 1.367 . S
C666 C669 1.408 1_556 S
C667 H659 0.930 . S
C667 C668 1.355 . S
C667 C669 1.415 1_545 S
C668 C667 1.355 . S
C668 C670 1.419 1_655 S
C669 C664 1.425 1_664 S
C669 C666 1.408 1_554 S
C669 C667 1.415 1_565 S
C670 H660 0.930 . S
C670 C668 1.419 1_455 S
C670 C671 1.367 . S
C671 H661 0.928 1_554 S
C671 C664 1.408 1_554 S
C671 C670 1.367 . S
H672 C678 0.930 . S
H673 C681 0.930 . S
H674 C682 0.930 . S
H675 C683 0.930 . S
H676 C686 0.930 . S
H677 C687 0.930 . S
C678 H672 0.930 . S
C678 C679 1.355 . S
C678 C680 1.405 1_556 S
C679 C678 1.355 . S
C679 C681 1.419 . S
C680 C678 1.405 1_554 S
C680 C685 1.420 1_544 S
C680 C687 1.425 . S
C681 H673 0.930 . S
C681 C679 1.419 . S
C681 C682 1.362 1_545 S
C682 H674 0.930 . S
C682 C681 1.362 1_565 S
C682 C685 1.425 . S
C683 H675 0.930 . S
C683 C684 1.355 . S
C683 C685 1.405 1_554 S
C684 C683 1.355 . S
C684 C686 1.419 . S
C685 C680 1.420 1_566 S
C685 C682 1.425 . S
C685 C683 1.405 1_556 S
C686 H676 0.930 . S
C686 C684 1.419 . S
C686 C687 1.362 1_565 S
C687 H677 0.930 . S
C687 C680 1.425 . S
C687 C686 1.362 1_545 S
H688 C694 0.930 . S
H689 C697 0.930 . S
H690 C698 0.930 . S
H691 C699 0.930 . S
H692 C702 0.930 . S
H693 C703 0.930 . S
C694 H688 0.930 . S
C694 C695 1.355 . S
C694 C696 1.415 . S
C695 C694 1.355 . S
C695 C697 1.419 . S
C696 C694 1.415 . S
C696 C701 1.425 1_445 S
C696 C703 1.409 1_545 S
C697 H689 0.930 . S
C697 C695 1.419 . S
C697 C698 1.362 1_455 S
C698 H690 0.930 . S
C698 C697 1.362 1_655 S
C698 C701 1.409 1_545 S
C699 H691 0.930 . S
C699 C700 1.355 . S
C699 C701 1.415 . S
C700 C699 1.355 . S
C700 C702 1.419 . S
C701 C696 1.425 1_665 S
C701 C698 1.409 1_565 S
C701 C699 1.415 . S
C702 H692 0.930 . S
C702 C700 1.419 . S
C702 C703 1.362 1_655 S
C703 H693 0.930 . S
C703 C696 1.409 1_565 S
C703 C702 1.362 1_455 S
H704 C710 0.930 . S
H705 C713 0.930 . S
H706 C714 0.930 . S
H707 C715 0.930 . S
H708 C718 0.930 . S
H709 C719 0.930 . S
C710 H704 0.930 . S
C710 C711 1.355 . S
C710 C712 1.415 . S
C711 C710 1.355 . S
C711 C713 1.419 1_655 S
C712 C710 1.415 . S
C712 C717 1.425 1_655 S
C712 C719 1.409 . S
C713 H705 0.930 . S
C713 C711 1.419 1_455 S
C713 C714 1.362 . S
C714 H706 0.930 . S
C714 C713 1.362 . S
C714 C717 1.409 . S
C715 H707 0.930 . S
C715 C716 1.355 . S
C715 C717 1.415 . S
C716 C715 1.355 . S
C716 C718 1.419 1_455 S
C717 C712 1.425 1_455 S
C717 C714 1.409 . S
C717 C715 1.415 . S
C718 H708 0.930 . S
C718 C716 1.419 1_655 S
C718 C719 1.362 . S
C719 H709 0.930 . S
C719 C712 1.409 . S
C719 C718 1.362 . S
H720 C726 0.930 . S
H721 C729 0.930 . S
H722 C730 0.930 . S
H723 C731 0.930 . S
H724 C734 0.930 . S
H725 C735 0.930 . S
C726 H720 0.930 . S
C726 C727 1.355 . S
C726 C728 1.415 . S
C727 C726 1.355 . S
C727 C729 1.419 . S
C728 C726 1.415 . S
C728 C733 1.425 1_455 S
C728 C735 1.409 . S
C729 H721 0.930 . S
C729 C727 1.419 . S
C729 C730 1.362 1_455 S
C730 H722 0.930 . S
C730 C729 1.362 1_655 S
C730 C733 1.409 . S
C731 H723 0.930 . S
C731 C732 1.355 . S
C731 C733 1.415 . S
C732 C731 1.355 . S
C732 C734 1.419 . S
C733 C728 1.425 1_655 S
C733 C730 1.409 . S
C733 C731 1.415 . S
C734 H724 0.930 . S
C734 C732 1.419 . S
C734 C735 1.362 1_655 S
C735 H725 0.930 . S
C735 C728 1.409 . S
C735 C734 1.362 1_455 S
H736 C742 0.930 . S
H737 C745 0.930 . S
H738 C746 0.930 . S
H739 C747 0.930 . S
H740 C750 0.930 . S
H741 C751 0.930 . S
C742 H736 0.930 . S
C742 C743 1.355 . S
C742 C744 1.415 . S
C743 C742 1.355 . S
C743 C745 1.419 . S
C744 C742 1.415 . S
C744 C749 1.425 . S
C744 C751 1.409 . S
C745 H737 0.930 . S
C745 C743 1.419 . S
C745 C746 1.362 . S
C746 H738 0.930 . S
C746 C745 1.362 . S
C746 C749 1.409 . S
C747 H739 0.930 . S
C747 C748 1.355 . S
C747 C749 1.415 . S
C748 C747 1.355 . S
C748 C750 1.419 . S
C749 C744 1.425 . S
C749 C746 1.409 . S
C749 C747 1.415 . S
C750 H740 0.930 . S
C750 C748 1.419 . S
C750 C751 1.362 . S
C751 H741 0.930 . S
C751 C744 1.409 . S
C751 C750 1.362 . S
H752 C758 0.930 . S
H753 C761 0.930 . S
H754 C762 0.930 . S
H755 C763 0.930 . S
H756 C766 0.930 . S
H757 C767 0.930 . S
C758 H752 0.930 . S
C758 C759 1.355 . S
C758 C760 1.415 . S
C759 C758 1.355 . S
C759 C761 1.419 . S
C760 C758 1.415 . S
C760 C765 1.425 . S
C760 C767 1.409 . S
C761 H753 0.930 . S
C761 C759 1.419 . S
C761 C762 1.362 . S
C762 H754 0.930 . S
C762 C761 1.362 . S
C762 C765 1.409 . S
C763 H755 0.930 . S
C763 C764 1.355 . S
C763 C765 1.415 . S
C764 C763 1.355 . S
C764 C766 1.419 . S
C765 C760 1.425 . S
C765 C762 1.409 . S
C765 C763 1.415 . S
C766 H756 0.930 . S
C766 C764 1.419 . S
C766 C767 1.362 . S
C767 H757 0.930 . S
C767 C760 1.409 . S
C767 C766 1.362 . S
H768 C774 0.930 . S
H769 C777 0.930 . S
H770 C778 0.930 . S
H771 C779 0.930 . S
H772 C782 0.930 . S
H773 C783 0.930 . S
C774 H768 0.930 . S
C774 C775 1.355 . S
C774 C776 1.415 . S
C775 C774 1.355 . S
C775 C777 1.419 1_655 S
C776 C774 1.415 . S
C776 C781 1.425 1_655 S
C776 C783 1.409 . S
C777 H769 0.930 . S
C777 C775 1.419 1_455 S
C777 C778 1.362 . S
C778 H770 0.930 . S
C778 C777 1.362 . S
C778 C781 1.409 . S
C779 H771 0.930 . S
C779 C780 1.355 . S
C779 C781 1.415 . S
C780 C779 1.355 . S
C780 C782 1.419 1_455 S
C781 C776 1.425 1_455 S
C781 C778 1.409 . S
C781 C779 1.415 . S
C782 H772 0.930 . S
C782 C780 1.419 1_655 S
C782 C783 1.362 . S
C783 H773 0.930 . S
C783 C776 1.409 . S
C783 C782 1.362 . S
H784 C790 0.930 . S
H785 C793 0.930 . S
H786 C794 0.930 . S
H787 C795 0.930 . S
H788 C798 0.930 . S
H789 C799 0.930 . S
C790 H784 0.930 . S
C790 C791 1.355 . S
C790 C792 1.415 . S
C791 C790 1.355 . S
C791 C793 1.419 . S
C792 C790 1.415 . S
C792 C797 1.425 . S
C792 C799 1.409 . S
C793 H785 0.930 . S
C793 C791 1.419 . S
C793 C794 1.362 . S
C794 H786 0.930 . S
C794 C793 1.362 . S
C794 C797 1.409 . S
C795 H787 0.930 . S
C795 C796 1.355 . S
C795 C797 1.415 . S
C796 C795 1.355 . S
C796 C798 1.419 . S
C797 C792 1.425 . S
C797 C794 1.409 . S
C797 C795 1.415 . S
C798 H788 0.930 . S
C798 C796 1.419 . S
C798 C799 1.362 . S
C799 H789 0.930 . S
C799 C792 1.409 . S
C799 C798 1.362 . S
H800 C806 0.930 . S
H801 C809 0.930 . S
H802 C810 0.930 . S
H803 C811 0.930 . S
H804 C814 0.930 . S
H805 C815 0.930 . S
C806 H800 0.930 . S
C806 C807 1.355 . S
C806 C808 1.415 . S
C807 C806 1.355 . S
C807 C809 1.419 . S
C808 C806 1.415 . S
C808 C813 1.425 . S
C808 C815 1.409 . S
C809 H801 0.930 . S
C809 C807 1.419 . S
C809 C810 1.362 . S
C810 H802 0.930 . S
C810 C809 1.362 . S
C810 C813 1.409 . S
C811 H803 0.930 . S
C811 C812 1.355 . S
C811 C813 1.415 . S
C812 C811 1.355 . S
C812 C814 1.419 . S
C813 C808 1.425 . S
C813 C810 1.409 . S
C813 C811 1.415 . S
C814 H804 0.930 . S
C814 C812 1.419 . S
C814 C815 1.362 . S
C815 H805 0.930 . S
C815 C808 1.409 . S
C815 C814 1.362 . S
H816 C822 0.930 . S
H817 C825 0.930 . S
H818 C826 0.930 . S
H819 C827 0.930 . S
H820 C830 0.930 . S
H821 C831 0.930 . S
C822 H816 0.930 . S
C822 C823 1.355 . S
C822 C824 1.415 . S
C823 C822 1.355 . S
C823 C825 1.419 . S
C824 C822 1.415 . S
C824 C829 1.425 1_455 S
C824 C831 1.409 . S
C825 H817 0.930 . S
C825 C823 1.419 . S
C825 C826 1.362 1_455 S
C826 H818 0.930 . S
C826 C825 1.362 1_655 S
C826 C829 1.409 . S
C827 H819 0.930 . S
C827 C828 1.355 . S
C827 C829 1.415 . S
C828 C827 1.355 . S
C828 C830 1.419 . S
C829 C824 1.425 1_655 S
C829 C826 1.409 . S
C829 C827 1.415 . S
C830 H820 0.930 . S
C830 C828 1.419 . S
C830 C831 1.362 1_655 S
C831 H821 0.930 . S
C831 C824 1.409 . S
C831 C830 1.362 1_455 S
H832 C838 0.930 . S
H833 C841 0.930 . S
H834 C842 0.930 . S
H835 C843 0.930 . S
H836 C846 0.930 . S
H837 C847 0.930 . S
C838 H832 0.930 . S
C838 C839 1.355 . S
C838 C840 1.415 . S
C839 C838 1.355 . S
C839 C841 1.419 1_655 S
C840 C838 1.415 . S
C840 C845 1.425 1_655 S
C840 C847 1.409 . S
C841 H833 0.930 . S
C841 C839 1.419 1_455 S
C841 C842 1.362 . S
C842 H834 0.930 . S
C842 C841 1.362 . S
C842 C845 1.409 . S
C843 H835 0.930 . S
C843 C844 1.355 . S
C843 C845 1.415 . S
C844 C843 1.355 . S
C844 C846 1.419 1_455 S
C845 C840 1.425 1_455 S
C845 C842 1.409 . S
C845 C843 1.415 . S
C846 H836 0.930 . S
C846 C844 1.419 1_655 S
C846 C847 1.362 . S
C847 H837 0.930 . S
C847 C840 1.409 . S
C847 C846 1.362 . S
H848 C854 0.930 . S
H849 C857 0.930 . S
H850 C858 0.930 . S
H851 C859 0.930 . S
H852 C862 0.930 . S
H853 C863 0.930 . S
C854 H848 0.930 . S
C854 C855 1.355 . S
C854 C856 1.415 1_655 S
C855 C854 1.355 . S
C855 C857 1.419 . S
C856 C854 1.415 1_455 S
C856 C861 1.425 1_455 S
C856 C863 1.409 . S
C857 H849 0.930 . S
C857 C855 1.419 . S
C857 C858 1.362 . S
C858 H850 0.930 . S
C858 C857 1.362 . S
C858 C861 1.409 . S
C859 H851 0.930 . S
C859 C860 1.355 . S
C859 C861 1.415 1_455 S
C860 C859 1.355 . S
C860 C862 1.419 . S
C861 C856 1.425 1_655 S
C861 C858 1.409 . S
C861 C859 1.415 1_655 S
C862 H852 0.930 . S
C862 C860 1.419 . S
C862 C863 1.362 . S
C863 H853 0.930 . S
C863 C856 1.409 . S
C863 C862 1.362 . S
H864 C870 0.930 . S
H865 C873 0.930 . S
H866 C874 0.930 . S
H867 C875 0.930 . S
H868 C878 0.930 . S
H869 C879 0.930 . S
C870 H864 0.930 . S
C870 C871 1.355 . S
C870 C872 1.415 . S
C871 C870 1.355 . S
C871 C873 1.419 . S
C872 C870 1.415 . S
C872 C877 1.425 . S
C872 C879 1.409 . S
C873 H865 0.930 . S
C873 C871 1.419 . S
C873 C874 1.362 . S
C874 H866 0.930 . S
C874 C873 1.362 . S
C874 C877 1.409 . S
C875 H867 0.930 . S
C875 C876 1.355 . S
C875 C877 1.415 . S
C876 C875 1.355 . S
C876 C878 1.419 . S
C877 C872 1.425 . S
C877 C874 1.409 . S
C877 C875 1.415 . S
C878 H868 0.930 . S
C878 C876 1.419 . S
C878 C879 1.362 . S
C879 H869 0.930 . S
C879 C872 1.409 . S
C879 C878 1.362 . S
H880 C886 0.930 . S
H881 C889 0.930 . S
H882 C890 0.930 . S
H883 C891 0.930 . S
H884 C894 0.930 . S
H885 C895 0.930 . S
C886 H880 0.930 . S
C886 C887 1.355 . S
C886 C888 1.415 . S
C887 C886 1.355 . S
C887 C889 1.419 . S
C888 C886 1.415 . S
C888 C893 1.425 . S
C888 C895 1.409 . S
C889 H881 0.930 . S
C889 C887 1.419 . S
C889 C890 1.362 . S
C890 H882 0.930 . S
C890 C889 1.362 . S
C890 C893 1.409 . S
C891 H883 0.930 . S
C891 C892 1.355 . S
C891 C893 1.415 . S
C892 C891 1.355 . S
C892 C894 1.419 . S
C893 C888 1.425 . S
C893 C890 1.409 . S
C893 C891 1.415 . S
C894 H884 0.930 . S
C894 C892 1.419 . S
C894 C895 1.362 . S
C895 H885 0.930 . S
C895 C888 1.409 . S
C895 C894 1.362 . S
H896 C902 0.930 . S
H897 C905 0.930 . S
H898 C906 0.930 . S
H899 C907 0.930 . S
H900 C910 0.930 . S
H901 C911 0.930 . S
C902 H896 0.930 . S
C902 C903 1.355 . S
C902 C904 1.415 . S
C903 C902 1.355 . S
C903 C905 1.419 1_655 S
C904 C902 1.415 . S
C904 C909 1.425 1_655 S
C904 C911 1.409 . S
C905 H897 0.930 . S
C905 C903 1.419 1_455 S
C905 C906 1.362 . S
C906 H898 0.930 . S
C906 C905 1.362 . S
C906 C909 1.409 . S
C907 H899 0.930 . S
C907 C908 1.355 . S
C907 C909 1.415 . S
C908 C907 1.355 . S
C908 C910 1.419 1_455 S
C909 C904 1.425 1_455 S
C909 C906 1.409 . S
C909 C907 1.415 . S
C910 H900 0.930 . S
C910 C908 1.419 1_655 S
C910 C911 1.362 . S
C911 H901 0.930 . S
C911 C904 1.409 . S
C911 C910 1.362 . S
H912 C918 0.930 . S
H913 C921 0.930 . S
H914 C922 0.930 . S
H915 C923 0.930 . S
H916 C926 0.930 . S
H917 C927 0.930 . S
C918 H912 0.930 . S
C918 C919 1.355 . S
C918 C920 1.415 . S
C919 C918 1.355 . S
C919 C921 1.419 . S
C920 C918 1.415 . S
C920 C925 1.425 . S
C920 C927 1.409 . S
C921 H913 0.930 . S
C921 C919 1.419 . S
C921 C922 1.362 . S
C922 H914 0.930 . S
C922 C921 1.362 . S
C922 C925 1.409 . S
C923 H915 0.930 . S
C923 C924 1.355 . S
C923 C925 1.415 . S
C924 C923 1.355 . S
C924 C926 1.419 . S
C925 C920 1.425 . S
C925 C922 1.409 . S
C925 C923 1.415 . S
C926 H916 0.930 . S
C926 C924 1.419 . S
C926 C927 1.362 . S
C927 H917 0.930 . S
C927 C920 1.409 . S
C927 C926 1.362 . S
H928 C934 0.930 . S
H929 C937 0.930 . S
H930 C938 0.930 . S
H931 C939 0.930 . S
H932 C942 0.930 . S
H933 C943 0.930 . S
C934 H928 0.930 . S
C934 C935 1.355 . S
C934 C936 1.415 . S
C935 C934 1.355 . S
C935 C937 1.419 . S
C936 C934 1.415 . S
C936 C941 1.425 . S
C936 C943 1.409 . S
C937 H929 0.930 . S
C937 C935 1.419 . S
C937 C938 1.362 . S
C938 H930 0.930 . S
C938 C937 1.362 . S
C938 C941 1.409 . S
C939 H931 0.930 . S
C939 C940 1.355 . S
C939 C941 1.415 . S
C940 C939 1.355 . S
C940 C942 1.419 . S
C941 C936 1.425 . S
C941 C938 1.409 . S
C941 C939 1.415 . S
C942 H932 0.930 . S
C942 C940 1.419 . S
C942 C943 1.362 . S
C943 H933 0.930 . S
C943 C936 1.409 . S
C943 C942 1.362 . S
H944 C950 0.930 . S
H945 C953 0.930 . S
H946 C954 0.930 . S
H947 C955 0.930 . S
H948 C958 0.930 . S
H949 C959 0.930 . S
C950 H944 0.930 . S
C950 C951 1.355 . S
C950 C952 1.418 1_655 S
C951 C950 1.355 . S
C951 C953 1.419 . S
C952 C950 1.418 1_455 S
C952 C957 1.425 1_455 S
C952 C959 1.406 . S
C953 H945 0.930 . S
C953 C951 1.419 . S
C953 C954 1.362 . S
C954 H946 0.930 . S
C954 C953 1.362 . S
C954 C957 1.406 . S
C955 H947 0.930 . S
C955 C956 1.355 . S
C955 C957 1.418 1_455 S
C956 C955 1.355 . S
C956 C958 1.419 . S
C957 C952 1.425 1_655 S
C957 C954 1.406 . S
C957 C955 1.418 1_655 S
C958 H948 0.930 . S
C958 C956 1.419 . S
C958 C959 1.362 . S
C959 H949 0.930 . S
C959 C952 1.406 . S
C959 C958 1.362 . S
H960 C966 0.912 1_554 S
H961 C969 0.930 . S
H962 C970 0.930 . S
H963 C971 0.912 1_556 S
H964 C974 0.930 . S
H965 C975 0.930 . S
C966 H960 0.912 1_556 S
C966 C967 1.382 . S
C966 C968 1.405 1_556 S
C967 C966 1.382 . S
C967 C969 1.419 . S
C968 C966 1.405 1_554 S
C968 C973 1.425 1_554 S
C968 C975 1.409 . S
C969 H961 0.930 . S
C969 C967 1.419 . S
C969 C970 1.362 . S
C970 H962 0.930 . S
C970 C969 1.362 . S
C970 C973 1.409 . S
C971 H963 0.912 1_554 S
C971 C972 1.382 . S
C971 C973 1.405 1_554 S
C972 C971 1.382 . S
C972 C974 1.419 . S
C973 C968 1.425 1_556 S
C973 C970 1.409 . S
C973 C971 1.405 1_556 S
C974 H964 0.930 . S
C974 C972 1.419 . S
C974 C975 1.362 . S
C975 H965 0.930 . S
C975 C968 1.409 . S
C975 C974 1.362 . S
H976 C982 0.930 . S
H977 C985 0.930 . S
H978 C986 0.930 1_565 S
H979 C987 0.930 . S
H980 C990 0.930 . S
H981 C991 0.930 1_545 S
C982 H976 0.930 . S
C982 C983 1.355 . S
C982 C984 1.415 . S
C983 C982 1.355 . S
C983 C985 1.419 . S
C984 C982 1.415 . S
C984 C989 1.425 1_545 S
C984 C991 1.409 1_545 S
C985 H977 0.930 . S
C985 C983 1.419 . S
C985 C986 1.362 . S
C986 H978 0.930 1_545 S
C986 C985 1.362 . S
C986 C989 1.409 1_545 S
C987 H979 0.930 . S
C987 C988 1.355 . S
C987 C989 1.415 . S
C988 C987 1.355 . S
C988 C990 1.419 . S
C989 C984 1.425 1_565 S
C989 C986 1.409 1_565 S
C989 C987 1.415 . S
C990 H980 0.930 . S
C990 C988 1.419 . S
C990 C991 1.362 . S
C991 H981 0.930 1_565 S
C991 C984 1.409 1_565 S
C991 C990 1.362 . S
H992 C998 0.930 . S
H993 C1001 0.930 . S
H994 C1002 0.930 . S
H995 C1003 0.930 . S
H996 C1006 0.930 . S
H997 C1007 0.930 . S
C998 H992 0.930 . S
C998 C999 1.355 . S
C998 C1000 1.415 . S
C999 C998 1.355 . S
C999 C1001 1.419 . S
C1000 C998 1.415 . S
C1000 C1005 1.425 . S
C1000 C1007 1.409 . S
C1001 H993 0.930 . S
C1001 C999 1.419 . S
C1001 C1002 1.362 . S
C1002 H994 0.930 . S
C1002 C1001 1.362 . S
C1002 C1005 1.409 . S
C1003 H995 0.930 . S
C1003 C1004 1.355 . S
C1003 C1005 1.415 . S
C1004 C1003 1.355 . S
C1004 C1006 1.419 . S
C1005 C1000 1.425 . S
C1005 C1002 1.409 . S
C1005 C1003 1.415 . S
C1006 H996 0.930 . S
C1006 C1004 1.419 . S
C1006 C1007 1.362 . S
C1007 H997 0.930 . S
C1007 C1000 1.409 . S
C1007 C1006 1.362 . S
H1008 C1014 0.930 . S
H1009 C1017 0.930 . S
H1010 C1018 0.930 . S
H1011 C1019 0.930 . S
H1012 C1022 0.930 . S
H1013 C1023 0.930 . S
C1014 H1008 0.930 . S
C1014 C1015 1.355 . S
C1014 C1016 1.415 . S
C1015 C1014 1.355 . S
C1015 C1017 1.419 . S
C1016 C1014 1.415 . S
C1016 C1021 1.425 1_545 S
C1016 C1023 1.409 . S
C1017 H1009 0.930 . S
C1017 C1015 1.419 . S
C1017 C1018 1.362 1_545 S
C1018 H1010 0.930 . S
C1018 C1017 1.362 1_565 S
C1018 C1021 1.409 . S
C1019 H1011 0.930 . S
C1019 C1020 1.355 . S
C1019 C1021 1.415 . S
C1020 C1019 1.355 . S
C1020 C1022 1.419 . S
C1021 C1016 1.425 1_565 S
C1021 C1018 1.409 . S
C1021 C1019 1.415 . S
C1022 H1012 0.930 . S
C1022 C1020 1.419 . S
C1022 C1023 1.362 1_565 S
C1023 H1013 0.930 . S
C1023 C1016 1.409 . S
C1023 C1022 1.362 1_545 S
H1024 C1030 0.930 1_556 S
H1025 C1033 0.930 . S
H1026 C1034 0.930 . S
H1027 C1035 0.930 1_554 S
H1028 C1038 0.930 . S
H1029 C1039 0.930 . S
C1030 H1024 0.930 1_554 S
C1030 C1031 1.355 . S
C1030 C1032 1.415 1_554 S
C1031 C1030 1.355 . S
C1031 C1033 1.419 . S
C1032 C1030 1.415 1_556 S
C1032 C1037 1.425 1_556 S
C1032 C1039 1.409 . S
C1033 H1025 0.930 . S
C1033 C1031 1.419 . S
C1033 C1034 1.362 . S
C1034 H1026 0.930 . S
C1034 C1033 1.362 . S
C1034 C1037 1.409 . S
C1035 H1027 0.930 1_556 S
C1035 C1036 1.355 . S
C1035 C1037 1.415 1_556 S
C1036 C1035 1.355 . S
C1036 C1038 1.419 . S
C1037 C1032 1.425 1_554 S
C1037 C1034 1.409 . S
C1037 C1035 1.415 1_554 S
C1038 H1028 0.930 . S
C1038 C1036 1.419 . S
C1038 C1039 1.362 . S
C1039 H1029 0.930 . S
C1039 C1032 1.409 . S
C1039 C1038 1.362 . S
H1040 C1046 0.930 . S
H1041 C1049 0.930 . S
H1042 C1050 0.930 . S
H1043 C1051 0.930 . S
H1044 C1054 0.930 . S
H1045 C1055 0.930 . S
C1046 H1040 0.930 . S
C1046 C1047 1.355 . S
C1046 C1048 1.415 1_565 S
C1047 C1046 1.355 . S
C1047 C1049 1.419 . S
C1048 C1046 1.415 1_545 S
C1048 C1053 1.425 1_545 S
C1048 C1055 1.409 . S
C1049 H1041 0.930 . S
C1049 C1047 1.419 . S
C1049 C1050 1.362 . S
C1050 H1042 0.930 . S
C1050 C1049 1.362 . S
C1050 C1053 1.409 . S
C1051 H1043 0.930 . S
C1051 C1052 1.355 . S
C1051 C1053 1.415 1_545 S
C1052 C1051 1.355 . S
C1052 C1054 1.419 . S
C1053 C1048 1.425 1_565 S
C1053 C1050 1.409 . S
C1053 C1051 1.415 1_565 S
C1054 H1044 0.930 . S
C1054 C1052 1.419 . S
C1054 C1055 1.362 . S
C1055 H1045 0.930 . S
C1055 C1048 1.409 . S
C1055 C1054 1.362 . S
H1056 C1062 0.930 . S
H1057 C1065 0.930 . S
H1058 C1066 0.930 . S
H1059 C1067 0.930 . S
H1060 C1070 0.930 . S
H1061 C1071 0.930 . S
C1062 H1056 0.930 . S
C1062 C1063 1.355 . S
C1062 C1064 1.415 . S
C1063 C1062 1.355 . S
C1063 C1065 1.419 . S
C1064 C1062 1.415 . S
C1064 C1069 1.425 . S
C1064 C1071 1.409 . S
C1065 H1057 0.930 . S
C1065 C1063 1.419 . S
C1065 C1066 1.362 . S
C1066 H1058 0.930 . S
C1066 C1065 1.362 . S
C1066 C1069 1.409 . S
C1067 H1059 0.930 . S
C1067 C1068 1.355 . S
C1067 C1069 1.415 . S
C1068 C1067 1.355 . S
C1068 C1070 1.419 . S
C1069 C1064 1.425 . S
C1069 C1066 1.409 . S
C1069 C1067 1.415 . S
C1070 H1060 0.930 . S
C1070 C1068 1.419 . S
C1070 C1071 1.362 . S
C1071 H1061 0.930 . S
C1071 C1064 1.409 . S
C1071 C1070 1.362 . S
H1072 C1078 0.930 . S
H1073 C1081 0.930 . S
H1074 C1082 0.930 . S
H1075 C1083 0.930 . S
H1076 C1086 0.930 . S
H1077 C1087 0.930 . S
C1078 H1072 0.930 . S
C1078 C1079 1.355 . S
C1078 C1080 1.415 . S
C1079 C1078 1.355 . S
C1079 C1081 1.419 . S
C1080 C1078 1.415 . S
C1080 C1085 1.425 1_545 S
C1080 C1087 1.409 . S
C1081 H1073 0.930 . S
C1081 C1079 1.419 . S
C1081 C1082 1.362 1_545 S
C1082 H1074 0.930 . S
C1082 C1081 1.362 1_565 S
C1082 C1085 1.409 . S
C1083 H1075 0.930 . S
C1083 C1084 1.355 . S
C1083 C1085 1.415 . S
C1084 C1083 1.355 . S
C1084 C1086 1.419 . S
C1085 C1080 1.425 1_565 S
C1085 C1082 1.409 . S
C1085 C1083 1.415 . S
C1086 H1076 0.930 . S
C1086 C1084 1.419 . S
C1086 C1087 1.362 1_565 S
C1087 H1077 0.930 . S
C1087 C1080 1.409 . S
C1087 C1086 1.362 1_545 S
H1088 C1094 0.930 . S
H1089 C1097 0.930 . S
H1090 C1098 0.930 . S
H1091 C1099 0.930 . S
H1092 C1102 0.930 . S
H1093 C1103 0.930 . S
C1094 H1088 0.930 . S
C1094 C1095 1.355 . S
C1094 C1096 1.415 . S
C1095 C1094 1.355 . S
C1095 C1097 1.419 . S
C1096 C1094 1.415 . S
C1096 C1101 1.425 . S
C1096 C1103 1.409 . S
C1097 H1089 0.930 . S
C1097 C1095 1.419 . S
C1097 C1098 1.362 . S
C1098 H1090 0.930 . S
C1098 C1097 1.362 . S
C1098 C1101 1.409 . S
C1099 H1091 0.930 . S
C1099 C1100 1.355 . S
C1099 C1101 1.415 . S
C1100 C1099 1.355 . S
C1100 C1102 1.419 . S
C1101 C1096 1.425 . S
C1101 C1098 1.409 . S
C1101 C1099 1.415 . S
C1102 H1092 0.930 . S
C1102 C1100 1.419 . S
C1102 C1103 1.362 . S
C1103 H1093 0.930 . S
C1103 C1096 1.409 . S
C1103 C1102 1.362 . S
H1104 C1110 0.930 . S
H1105 C1113 0.930 . S
H1106 C1114 0.930 . S
H1107 C1115 0.930 . S
H1108 C1118 0.930 . S
H1109 C1119 0.930 . S
C1110 H1104 0.930 . S
C1110 C1111 1.355 . S
C1110 C1112 1.415 . S
C1111 C1110 1.355 . S
C1111 C1113 1.419 . S
C1112 C1110 1.415 . S
C1112 C1117 1.425 . S
C1112 C1119 1.409 . S
C1113 H1105 0.930 . S
C1113 C1111 1.419 . S
C1113 C1114 1.362 . S
C1114 H1106 0.930 . S
C1114 C1113 1.362 . S
C1114 C1117 1.409 . S
C1115 H1107 0.930 . S
C1115 C1116 1.355 . S
C1115 C1117 1.415 . S
C1116 C1115 1.355 . S
C1116 C1118 1.419 . S
C1117 C1112 1.425 . S
C1117 C1114 1.409 . S
C1117 C1115 1.415 . S
C1118 H1108 0.930 . S
C1118 C1116 1.419 . S
C1118 C1119 1.362 . S
C1119 H1109 0.930 . S
C1119 C1112 1.409 . S
C1119 C1118 1.362 . S
H1120 C1126 0.930 1_556 S
H1121 C1129 0.930 . S
H1122 C1130 0.930 . S
H1123 C1131 0.930 1_554 S
H1124 C1134 0.930 . S
H1125 C1135 0.930 . S
C1126 H1120 0.930 1_554 S
C1126 C1127 1.355 . S
C1126 C1128 1.415 1_554 S
C1127 C1126 1.355 . S
C1127 C1129 1.419 . S
C1128 C1126 1.415 1_556 S
C1128 C1133 1.425 1_556 S
C1128 C1135 1.409 . S
C1129 H1121 0.930 . S
C1129 C1127 1.419 . S
C1129 C1130 1.362 . S
C1130 H1122 0.930 . S
C1130 C1129 1.362 . S
C1130 C1133 1.409 . S
C1131 H1123 0.930 1_556 S
C1131 C1132 1.355 . S
C1131 C1133 1.415 1_556 S
C1132 C1131 1.355 . S
C1132 C1134 1.419 . S
C1133 C1128 1.425 1_554 S
C1133 C1130 1.409 . S
C1133 C1131 1.415 1_554 S
C1134 H1124 0.930 . S
C1134 C1132 1.419 . S
C1134 C1135 1.362 . S
C1135 H1125 0.930 . S
C1135 C1128 1.409 . S
C1135 C1134 1.362 . S
H1136 C1142 0.930 . S
H1137 C1145 0.930 . S
H1138 C1146 0.930 . S
H1139 C1147 0.930 . S
H1140 C1150 0.930 . S
H1141 C1151 0.930 . S
C1142 H1136 0.930 . S
C1142 C1143 1.355 . S
C1142 C1144 1.415 . S
C1143 C1142 1.355 . S
C1143 C1145 1.419 . S
C1144 C1142 1.415 . S
C1144 C1149 1.425 . S
C1144 C1151 1.409 . S
C1145 H1137 0.930 . S
C1145 C1143 1.419 . S
C1145 C1146 1.362 . S
C1146 H1138 0.930 . S
C1146 C1145 1.362 . S
C1146 C1149 1.409 . S
C1147 H1139 0.930 . S
C1147 C1148 1.355 . S
C1147 C1149 1.415 . S
C1148 C1147 1.355 . S
C1148 C1150 1.419 . S
C1149 C1144 1.425 . S
C1149 C1146 1.409 . S
C1149 C1147 1.415 . S
C1150 H1140 0.930 . S
C1150 C1148 1.419 . S
C1150 C1151 1.362 . S
C1151 H1141 0.930 . S
C1151 C1144 1.409 . S
C1151 C1150 1.362 . S
H1152 C1158 0.930 . S
H1153 C1161 0.930 . S
H1154 C1162 0.930 . S
H1155 C1163 0.930 . S
H1156 C1166 0.930 . S
H1157 C1167 0.930 . S
C1158 H1152 0.930 . S
C1158 C1159 1.355 . S
C1158 C1160 1.415 . S
C1159 C1158 1.355 . S
C1159 C1161 1.419 . S
C1160 C1158 1.415 . S
C1160 C1165 1.425 . S
C1160 C1167 1.409 . S
C1161 H1153 0.930 . S
C1161 C1159 1.419 . S
C1161 C1162 1.362 . S
C1162 H1154 0.930 . S
C1162 C1161 1.362 . S
C1162 C1165 1.409 . S
C1163 H1155 0.930 . S
C1163 C1164 1.355 . S
C1163 C1165 1.415 . S
C1164 C1163 1.355 . S
C1164 C1166 1.419 . S
C1165 C1160 1.425 . S
C1165 C1162 1.409 . S
C1165 C1163 1.415 . S
C1166 H1156 0.930 . S
C1166 C1164 1.419 . S
C1166 C1167 1.362 . S
C1167 H1157 0.930 . S
C1167 C1160 1.409 . S
C1167 C1166 1.362 . S
H1168 C1174 0.930 . S
H1169 C1177 0.930 . S
H1170 C1178 0.930 . S
H1171 C1179 0.930 . S
H1172 C1182 0.930 . S
H1173 C1183 0.930 . S
C1174 H1168 0.930 . S
C1174 C1175 1.355 . S
C1174 C1176 1.415 . S
C1175 C1174 1.355 . S
C1175 C1177 1.419 . S
C1176 C1174 1.415 . S
C1176 C1181 1.425 . S
C1176 C1183 1.409 . S
C1177 H1169 0.930 . S
C1177 C1175 1.419 . S
C1177 C1178 1.362 . S
C1178 H1170 0.930 . S
C1178 C1177 1.362 . S
C1178 C1181 1.409 . S
C1179 H1171 0.930 . S
C1179 C1180 1.355 . S
C1179 C1181 1.415 . S
C1180 C1179 1.355 . S
C1180 C1182 1.419 . S
C1181 C1176 1.425 . S
C1181 C1178 1.409 . S
C1181 C1179 1.415 . S
C1182 H1172 0.930 . S
C1182 C1180 1.419 . S
C1182 C1183 1.362 . S
C1183 H1173 0.930 . S
C1183 C1176 1.409 . S
C1183 C1182 1.362 . S
H1184 C1190 0.930 1_554 S
H1185 C1193 0.930 . S
H1186 C1194 0.930 . S
H1187 C1195 0.930 1_556 S
H1188 C1198 0.930 . S
H1189 C1199 0.930 . S
C1190 H1184 0.930 1_556 S
C1190 C1191 1.355 . S
C1190 C1192 1.415 1_556 S
C1191 C1190 1.355 . S
C1191 C1193 1.419 . S
C1192 C1190 1.415 1_554 S
C1192 C1197 1.425 1_554 S
C1192 C1199 1.409 . S
C1193 H1185 0.930 . S
C1193 C1191 1.419 . S
C1193 C1194 1.362 . S
C1194 H1186 0.930 . S
C1194 C1193 1.362 . S
C1194 C1197 1.409 . S
C1195 H1187 0.930 1_554 S
C1195 C1196 1.355 . S
C1195 C1197 1.415 1_554 S
C1196 C1195 1.355 . S
C1196 C1198 1.419 . S
C1197 C1192 1.425 1_556 S
C1197 C1194 1.409 . S
C1197 C1195 1.415 1_556 S
C1198 H1188 0.930 . S
C1198 C1196 1.419 . S
C1198 C1199 1.362 . S
C1199 H1189 0.930 . S
C1199 C1192 1.409 . S
C1199 C1198 1.362 . S
H1200 C1206 0.930 . S
H1201 C1209 0.930 . S
H1202 C1210 0.930 . S
H1203 C1211 0.930 . S
H1204 C1214 0.930 . S
H1205 C1215 0.930 . S
C1206 H1200 0.930 . S
C1206 C1207 1.355 . S
C1206 C1208 1.415 . S
C1207 C1206 1.355 . S
C1207 C1209 1.419 . S
C1208 C1206 1.415 . S
C1208 C1213 1.425 . S
C1208 C1215 1.409 . S
C1209 H1201 0.930 . S
C1209 C1207 1.419 . S
C1209 C1210 1.362 . S
C1210 H1202 0.930 . S
C1210 C1209 1.362 . S
C1210 C1213 1.409 . S
C1211 H1203 0.930 . S
C1211 C1212 1.355 . S
C1211 C1213 1.415 . S
C1212 C1211 1.355 . S
C1212 C1214 1.419 . S
C1213 C1208 1.425 . S
C1213 C1210 1.409 . S
C1213 C1211 1.415 . S
C1214 H1204 0.930 . S
C1214 C1212 1.419 . S
C1214 C1215 1.362 . S
C1215 H1205 0.930 . S
C1215 C1208 1.409 . S
C1215 C1214 1.362 . S
H1216 C1222 0.930 . S
H1217 C1225 0.930 . S
H1218 C1226 0.930 . S
H1219 C1227 0.930 . S
H1220 C1230 0.930 . S
H1221 C1231 0.930 . S
C1222 H1216 0.930 . S
C1222 C1223 1.355 . S
C1222 C1224 1.415 . S
C1223 C1222 1.355 . S
C1223 C1225 1.419 . S
C1224 C1222 1.415 . S
C1224 C1229 1.425 . S
C1224 C1231 1.409 . S
C1225 H1217 0.930 . S
C1225 C1223 1.419 . S
C1225 C1226 1.362 . S
C1226 H1218 0.930 . S
C1226 C1225 1.362 . S
C1226 C1229 1.409 . S
C1227 H1219 0.930 . S
C1227 C1228 1.355 . S
C1227 C1229 1.415 . S
C1228 C1227 1.355 . S
C1228 C1230 1.419 . S
C1229 C1224 1.425 . S
C1229 C1226 1.409 . S
C1229 C1227 1.415 . S
C1230 H1220 0.930 . S
C1230 C1228 1.419 . S
C1230 C1231 1.362 . S
C1231 H1221 0.930 . S
C1231 C1224 1.409 . S
C1231 C1230 1.362 . S
H1232 C1238 0.930 . S
H1233 C1241 0.930 . S
H1234 C1242 0.930 . S
H1235 C1243 0.930 . S
H1236 C1246 0.930 . S
H1237 C1247 0.930 . S
C1238 H1232 0.930 . S
C1238 C1239 1.355 . S
C1238 C1240 1.415 . S
C1239 C1238 1.355 . S
C1239 C1241 1.419 . S
C1240 C1238 1.415 . S
C1240 C1245 1.425 . S
C1240 C1247 1.409 . S
C1241 H1233 0.930 . S
C1241 C1239 1.419 . S
C1241 C1242 1.362 . S
C1242 H1234 0.930 . S
C1242 C1241 1.362 . S
C1242 C1245 1.409 . S
C1243 H1235 0.930 . S
C1243 C1244 1.355 . S
C1243 C1245 1.415 . S
C1244 C1243 1.355 . S
C1244 C1246 1.419 . S
C1245 C1240 1.425 . S
C1245 C1242 1.409 . S
C1245 C1243 1.415 . S
C1246 H1236 0.930 . S
C1246 C1244 1.419 . S
C1246 C1247 1.362 . S
C1247 H1237 0.930 . S
C1247 C1240 1.409 . S
C1247 C1246 1.362 . S
H1248 C1254 0.930 . S
H1249 C1257 0.930 . S
H1250 C1258 0.930 . S
H1251 C1259 0.930 . S
H1252 C1262 0.930 . S
H1253 C1263 0.930 . S
C1254 H1248 0.930 . S
C1254 C1255 1.355 . S
C1254 C1256 1.415 . S
C1255 C1254 1.355 . S
C1255 C1257 1.419 . S
C1256 C1254 1.415 . S
C1256 C1261 1.425 . S
C1256 C1263 1.409 . S
C1257 H1249 0.930 . S
C1257 C1255 1.419 . S
C1257 C1258 1.362 . S
C1258 H1250 0.930 . S
C1258 C1257 1.362 . S
C1258 C1261 1.409 . S
C1259 H1251 0.930 . S
C1259 C1260 1.355 . S
C1259 C1261 1.415 . S
C1260 C1259 1.355 . S
C1260 C1262 1.419 . S
C1261 C1256 1.425 . S
C1261 C1258 1.409 . S
C1261 C1259 1.415 . S
C1262 H1252 0.930 . S
C1262 C1260 1.419 . S
C1262 C1263 1.362 . S
C1263 H1253 0.930 . S
C1263 C1256 1.409 . S
C1263 C1262 1.362 . S
H1264 C1270 0.930 . S
H1265 C1273 0.930 . S
H1266 C1274 0.930 . S
H1267 C1275 0.930 . S
H1268 C1278 0.930 . S
H1269 C1279 0.930 . S
C1270 H1264 0.930 . S
C1270 C1271 1.355 . S
C1270 C1272 1.415 . S
C1271 C1270 1.355 . S
C1271 C1273 1.419 . S
C1272 C1270 1.415 . S
C1272 C1277 1.425 . S
C1272 C1279 1.409 . S
C1273 H1265 0.930 . S
C1273 C1271 1.419 . S
C1273 C1274 1.362 . S
C1274 H1266 0.930 . S
C1274 C1273 1.362 . S
C1274 C1277 1.409 . S
C1275 H1267 0.930 . S
C1275 C1276 1.355 . S
C1275 C1277 1.415 . S
C1276 C1275 1.355 . S
C1276 C1278 1.419 . S
C1277 C1272 1.425 . S
C1277 C1274 1.409 . S
C1277 C1275 1.415 . S
C1278 H1268 0.930 . S
C1278 C1276 1.419 . S
C1278 C1279 1.362 . S
C1279 H1269 0.930 . S
C1279 C1272 1.409 . S
C1279 C1278 1.362 . S
H1280 C1286 0.930 . S
H1281 C1289 0.930 . S
H1282 C1290 0.930 . S
H1283 C1291 0.930 . S
H1284 C1294 0.930 . S
H1285 C1295 0.930 . S
C1286 H1280 0.930 . S
C1286 C1287 1.355 . S
C1286 C1288 1.415 . S
C1287 C1286 1.355 . S
C1287 C1289 1.419 . S
C1288 C1286 1.415 . S
C1288 C1293 1.425 . S
C1288 C1295 1.409 . S
C1289 H1281 0.930 . S
C1289 C1287 1.419 . S
C1289 C1290 1.362 . S
C1290 H1282 0.930 . S
C1290 C1289 1.362 . S
C1290 C1293 1.409 . S
C1291 H1283 0.930 . S
C1291 C1292 1.355 . S
C1291 C1293 1.415 . S
C1292 C1291 1.355 . S
C1292 C1294 1.419 . S
C1293 C1288 1.425 . S
C1293 C1290 1.409 . S
C1293 C1291 1.415 . S
C1294 H1284 0.930 . S
C1294 C1292 1.419 . S
C1294 C1295 1.362 . S
C1295 H1285 0.930 . S
C1295 C1288 1.409 . S
C1295 C1294 1.362 . S
H1296 C1302 0.930 . S
H1297 C1305 0.930 . S
H1298 C1306 0.930 . S
H1299 C1307 0.930 . S
H1300 C1310 0.930 . S
H1301 C1311 0.930 . S
C1302 H1296 0.930 . S
C1302 C1303 1.355 . S
C1302 C1304 1.415 . S
C1303 C1302 1.355 . S
C1303 C1305 1.419 . S
C1304 C1302 1.415 . S
C1304 C1309 1.425 . S
C1304 C1311 1.409 . S
C1305 H1297 0.930 . S
C1305 C1303 1.419 . S
C1305 C1306 1.362 . S
C1306 H1298 0.930 . S
C1306 C1305 1.362 . S
C1306 C1309 1.409 . S
C1307 H1299 0.930 . S
C1307 C1308 1.355 . S
C1307 C1309 1.415 . S
C1308 C1307 1.355 . S
C1308 C1310 1.419 . S
C1309 C1304 1.425 . S
C1309 C1306 1.409 . S
C1309 C1307 1.415 . S
C1310 H1300 0.930 . S
C1310 C1308 1.419 . S
C1310 C1311 1.362 . S
C1311 H1301 0.930 . S
C1311 C1304 1.409 . S
C1311 C1310 1.362 . S
H1312 C1318 0.930 . S
H1313 C1321 0.930 . S
H1314 C1322 0.930 . S
H1315 C1323 0.930 . S
H1316 C1326 0.930 . S
H1317 C1327 0.930 . S
C1318 H1312 0.930 . S
C1318 C1319 1.355 . S
C1318 C1320 1.415 . S
C1319 C1318 1.355 . S
C1319 C1321 1.419 . S
C1320 C1318 1.415 . S
C1320 C1325 1.425 . S
C1320 C1327 1.409 . S
C1321 H1313 0.930 . S
C1321 C1319 1.419 . S
C1321 C1322 1.362 . S
C1322 H1314 0.930 . S
C1322 C1321 1.362 . S
C1322 C1325 1.409 . S
C1323 H1315 0.930 . S
C1323 C1324 1.355 . S
C1323 C1325 1.415 . S
C1324 C1323 1.355 . S
C1324 C1326 1.419 . S
C1325 C1320 1.425 . S
C1325 C1322 1.409 . S
C1325 C1323 1.415 . S
C1326 H1316 0.930 . S
C1326 C1324 1.419 . S
C1326 C1327 1.362 . S
C1327 H1317 0.930 . S
C1327 C1320 1.409 . S
C1327 C1326 1.362 . S
H1328 C1334 0.930 . S
H1329 C1337 0.930 . S
H1330 C1338 0.930 . S
H1331 C1339 0.930 . S
H1332 C1342 0.930 . S
H1333 C1343 0.930 . S
C1334 H1328 0.930 . S
C1334 C1335 1.355 . S
C1334 C1336 1.415 . S
C1335 C1334 1.355 . S
C1335 C1337 1.419 . S
C1336 C1334 1.415 . S
C1336 C1341 1.425 . S
C1336 C1343 1.409 . S
C1337 H1329 0.930 . S
C1337 C1335 1.419 . S
C1337 C1338 1.362 . S
C1338 H1330 0.930 . S
C1338 C1337 1.362 . S
C1338 C1341 1.409 . S
C1339 H1331 0.930 . S
C1339 C1340 1.355 . S
C1339 C1341 1.415 . S
C1340 C1339 1.355 . S
C1340 C1342 1.419 . S
C1341 C1336 1.425 . S
C1341 C1338 1.409 . S
C1341 C1339 1.415 . S
C1342 H1332 0.930 . S
C1342 C1340 1.419 . S
C1342 C1343 1.362 . S
C1343 H1333 0.930 . S
C1343 C1336 1.409 . S
C1343 C1342 1.362 . S
H1344 C1350 0.930 . S
H1345 C1353 0.930 . S
H1346 C1354 0.930 . S
H1347 C1355 0.930 . S
H1348 C1358 0.930 . S
H1349 C1359 0.930 . S
C1350 H1344 0.930 . S
C1350 C1351 1.355 . S
C1350 C1352 1.415 . S
C1351 C1350 1.355 . S
C1351 C1353 1.419 . S
C1352 C1350 1.415 . S
C1352 C1357 1.425 . S
C1352 C1359 1.409 . S
C1353 H1345 0.930 . S
C1353 C1351 1.419 . S
C1353 C1354 1.362 . S
C1354 H1346 0.930 . S
C1354 C1353 1.362 . S
C1354 C1357 1.409 . S
C1355 H1347 0.930 . S
C1355 C1356 1.355 . S
C1355 C1357 1.415 . S
C1356 C1355 1.355 . S
C1356 C1358 1.419 . S
C1357 C1352 1.425 . S
C1357 C1354 1.409 . S
C1357 C1355 1.415 . S
C1358 H1348 0.930 . S
C1358 C1356 1.419 . S
C1358 C1359 1.362 . S
C1359 H1349 0.930 . S
C1359 C1352 1.409 . S
C1359 C1358 1.362 . S
H1360 C1366 0.930 . S
H1361 C1369 0.930 . S
H1362 C1370 0.930 . S
H1363 C1371 0.930 . S
H1364 C1374 0.930 . S
H1365 C1375 0.930 . S
C1366 H1360 0.930 . S
C1366 C1367 1.355 . S
C1366 C1368 1.415 . S
C1367 C1366 1.355 . S
C1367 C1369 1.419 . S
C1368 C1366 1.415 . S
C1368 C1373 1.425 . S
C1368 C1375 1.409 . S
C1369 H1361 0.930 . S
C1369 C1367 1.419 . S
C1369 C1370 1.362 . S
C1370 H1362 0.930 . S
C1370 C1369 1.362 . S
C1370 C1373 1.409 . S
C1371 H1363 0.930 . S
C1371 C1372 1.355 . S
C1371 C1373 1.415 . S
C1372 C1371 1.355 . S
C1372 C1374 1.419 . S
C1373 C1368 1.425 . S
C1373 C1370 1.409 . S
C1373 C1371 1.415 . S
C1374 H1364 0.930 . S
C1374 C1372 1.419 . S
C1374 C1375 1.362 . S
C1375 H1365 0.930 . S
C1375 C1368 1.409 . S
C1375 C1374 1.362 . S
H1376 C1382 0.930 . S
H1377 C1385 0.930 . S
H1378 C1386 0.930 . S
H1379 C1387 0.930 . S
H1380 C1390 0.930 . S
H1381 C1391 0.930 . S
C1382 H1376 0.930 . S
C1382 C1383 1.355 . S
C1382 C1384 1.415 . S
C1383 C1382 1.355 . S
C1383 C1385 1.419 . S
C1384 C1382 1.415 . S
C1384 C1389 1.425 . S
C1384 C1391 1.409 . S
C1385 H1377 0.930 . S
C1385 C1383 1.419 . S
C1385 C1386 1.362 . S
C1386 H1378 0.930 . S
C1386 C1385 1.362 . S
C1386 C1389 1.409 . S
C1387 H1379 0.930 . S
C1387 C1388 1.355 . S
C1387 C1389 1.415 . S
C1388 C1387 1.355 . S
C1388 C1390 1.419 . S
C1389 C1384 1.425 . S
C1389 C1386 1.409 . S
C1389 C1387 1.415 . S
C1390 H1380 0.930 . S
C1390 C1388 1.419 . S
C1390 C1391 1.362 . S
C1391 H1381 0.930 . S
C1391 C1384 1.409 . S
C1391 C1390 1.362 . S
H1392 C1398 0.930 . S
H1393 C1401 0.930 . S
H1394 C1402 0.930 . S
H1395 C1403 0.930 . S
H1396 C1406 0.930 . S
H1397 C1407 0.930 . S
C1398 H1392 0.930 . S
C1398 C1399 1.355 . S
C1398 C1400 1.415 . S
C1399 C1398 1.355 . S
C1399 C1401 1.419 . S
C1400 C1398 1.415 . S
C1400 C1405 1.425 . S
C1400 C1407 1.409 . S
C1401 H1393 0.930 . S
C1401 C1399 1.419 . S
C1401 C1402 1.362 . S
C1402 H1394 0.930 . S
C1402 C1401 1.362 . S
C1402 C1405 1.409 . S
C1403 H1395 0.930 . S
C1403 C1404 1.355 . S
C1403 C1405 1.415 . S
C1404 C1403 1.355 . S
C1404 C1406 1.419 . S
C1405 C1400 1.425 . S
C1405 C1402 1.409 . S
C1405 C1403 1.415 . S
C1406 H1396 0.930 . S
C1406 C1404 1.419 . S
C1406 C1407 1.362 . S
C1407 H1397 0.930 . S
C1407 C1400 1.409 . S
C1407 C1406 1.362 . S
H1408 C1414 0.930 . S
H1409 C1417 0.930 . S
H1410 C1418 0.930 . S
H1411 C1419 0.930 . S
H1412 C1422 0.930 . S
H1413 C1423 0.930 . S
C1414 H1408 0.930 . S
C1414 C1415 1.355 . S
C1414 C1416 1.415 . S
C1415 C1414 1.355 . S
C1415 C1417 1.419 . S
C1416 C1414 1.415 . S
C1416 C1421 1.425 . S
C1416 C1423 1.409 . S
C1417 H1409 0.930 . S
C1417 C1415 1.419 . S
C1417 C1418 1.362 . S
C1418 H1410 0.930 . S
C1418 C1417 1.362 . S
C1418 C1421 1.409 . S
C1419 H1411 0.930 . S
C1419 C1420 1.355 . S
C1419 C1421 1.415 . S
C1420 C1419 1.355 . S
C1420 C1422 1.419 . S
C1421 C1416 1.425 . S
C1421 C1418 1.409 . S
C1421 C1419 1.415 . S
C1422 H1412 0.930 . S
C1422 C1420 1.419 . S
C1422 C1423 1.362 . S
C1423 H1413 0.930 . S
C1423 C1416 1.409 . S
C1423 C1422 1.362 . S
H1424 C1430 0.930 . S
H1425 C1433 0.930 . S
H1426 C1434 0.930 . S
H1427 C1435 0.930 . S
H1428 C1438 0.930 . S
H1429 C1439 0.930 . S
C1430 H1424 0.930 . S
C1430 C1431 1.355 . S
C1430 C1432 1.415 . S
C1431 C1430 1.355 . S
C1431 C1433 1.419 . S
C1432 C1430 1.415 . S
C1432 C1437 1.425 . S
C1432 C1439 1.409 . S
C1433 H1425 0.930 . S
C1433 C1431 1.419 . S
C1433 C1434 1.362 . S
C1434 H1426 0.930 . S
C1434 C1433 1.362 . S
C1434 C1437 1.409 . S
C1435 H1427 0.930 . S
C1435 C1436 1.355 . S
C1435 C1437 1.415 . S
C1436 C1435 1.355 . S
C1436 C1438 1.419 . S
C1437 C1432 1.425 . S
C1437 C1434 1.409 . S
C1437 C1435 1.415 . S
C1438 H1428 0.930 . S
C1438 C1436 1.419 . S
C1438 C1439 1.362 . S
C1439 H1429 0.930 . S
C1439 C1432 1.409 . S
C1439 C1438 1.362 . S
H1440 C1446 0.930 . S
H1441 C1449 0.930 . S
H1442 C1450 0.930 . S
H1443 C1451 0.930 . S
H1444 C1454 0.930 . S
H1445 C1455 0.930 . S
C1446 H1440 0.930 . S
C1446 C1447 1.355 . S
C1446 C1448 1.415 . S
C1447 C1446 1.355 . S
C1447 C1449 1.419 . S
C1448 C1446 1.415 . S
C1448 C1453 1.425 . S
C1448 C1455 1.409 . S
C1449 H1441 0.930 . S
C1449 C1447 1.419 . S
C1449 C1450 1.362 . S
C1450 H1442 0.930 . S
C1450 C1449 1.362 . S
C1450 C1453 1.409 . S
C1451 H1443 0.930 . S
C1451 C1452 1.355 . S
C1451 C1453 1.415 . S
C1452 C1451 1.355 . S
C1452 C1454 1.419 . S
C1453 C1448 1.425 . S
C1453 C1450 1.409 . S
C1453 C1451 1.415 . S
C1454 H1444 0.930 . S
C1454 C1452 1.419 . S
C1454 C1455 1.362 . S
C1455 H1445 0.930 . S
C1455 C1448 1.409 . S
C1455 C1454 1.362 . S
H1456 C1462 0.930 . S
H1457 C1465 0.930 . S
H1458 C1466 0.930 . S
H1459 C1467 0.930 . S
H1460 C1470 0.930 . S
H1461 C1471 0.930 . S
C1462 H1456 0.930 . S
C1462 C1463 1.355 . S
C1462 C1464 1.415 . S
C1463 C1462 1.355 . S
C1463 C1465 1.419 . S
C1464 C1462 1.415 . S
C1464 C1469 1.425 . S
C1464 C1471 1.409 . S
C1465 H1457 0.930 . S
C1465 C1463 1.419 . S
C1465 C1466 1.362 . S
C1466 H1458 0.930 . S
C1466 C1465 1.362 . S
C1466 C1469 1.409 . S
C1467 H1459 0.930 . S
C1467 C1468 1.355 . S
C1467 C1469 1.415 . S
C1468 C1467 1.355 . S
C1468 C1470 1.419 . S
C1469 C1464 1.425 . S
C1469 C1466 1.409 . S
C1469 C1467 1.415 . S
C1470 H1460 0.930 . S
C1470 C1468 1.419 . S
C1470 C1471 1.362 . S
C1471 H1461 0.930 . S
C1471 C1464 1.409 . S
C1471 C1470 1.362 . S
C455 C119 1.462 . S
C460 C7 1.462 . S
C471 C357 1.455 . S
C476 C21 1.455 . S
C487 C147 1.461 . S
C492 C35 1.461 . S
C503 C385 1.452 . S
C508 C49 1.452 . S
C519 C175 1.388 . S
C524 C63 1.388 . S
C535 C77 1.410 . S
C540 C413 1.410 . S
C551 C91 1.453 . S
C556 C203 1.453 . S
C567 C105 1.419 . S
C572 C441 1.419 . S
C583 C245 1.435 . S
C588 C133 1.435 . S
C599 C273 1.460 . S
C604 C161 1.460 . S
C615 C189 1.404 . S
C620 C301 1.404 . S
C631 C217 1.398 . S
C636 C329 1.398 . S
C647 C231 1.413 . S
C652 C343 1.413 . S
C663 C371 1.443 . S
C668 C259 1.443 . S
C679 C287 1.429 . S
C684 C399 1.429 . S
C695 C427 1.401 . S
C700 C315 1.401 . S
C711 C261 1.950 . S
C716 C9 1.950 . S
C727 C275 1.958 . S
C732 C23 1.960 . S
C743 C37 1.955 . S
C748 C233 1.950 . S
C759 C51 1.960 . S
C764 C247 1.956 . S
C775 C317 1.950 . S
C780 C65 1.950 . S
C791 C79 1.960 . S
C796 C331 1.960 . S
C807 C289 1.954 . S
C812 C93 1.959 . S
C823 C303 1.960 . S
C828 C107 1.959 . S
C839 C121 1.951 . S
C844 C373 1.950 . S
C855 C387 1.950 . S
C860 C135 1.950 . S
C871 C149 1.954 . S
C876 C345 1.959 . S
C887 C163 1.960 . S
C892 C359 1.959 . S
C903 C177 1.950 . S
C908 C429 1.951 . S
C919 C191 1.960 . S
C924 C443 1.956 . S
C935 C401 1.949 . S
C940 C205 1.952 . S
C951 C415 1.952 . S
C956 C219 1.949 . S
C967 C90 1.551 . S
C972 C6 1.569 . S
C983 C104 1.525 . S
C988 C20 1.580 . S
C999 C62 1.531 . S
C1004 C34 1.580 . S
C1015 C48 1.554 . S
C1020 C76 1.568 . S
C1031 C202 1.579 . S
C1036 C118 1.532 . S
C1047 C216 1.542 . S
C1052 C132 1.535 . S
C1063 C174 1.523 . S
C1068 C146 1.557 . S
C1079 C188 1.576 . S
C1084 C160 1.541 . S
C1095 C314 1.566 . S
C1100 C230 1.519 . S
C1111 C328 1.580 . S
C1116 C244 1.523 . S
C1127 C258 1.570 . S
C1132 C286 1.550 . S
C1143 C272 1.575 . S
C1148 C300 1.519 . S
C1159 C426 1.524 . S
C1164 C342 1.555 . S
C1175 C440 1.524 . S
C1180 C356 1.556 . S
C1191 C370 1.552 . S
C1196 C398 1.568 . S
C1207 C384 1.520 . S
C1212 C412 1.565 . S
C1223 C8 1.570 . S
C1228 C302 1.571 . S
C1239 C316 1.575 . S
C1244 C22 1.573 . S
C1255 C330 1.574 . S
C1260 C36 1.577 . S
C1271 C50 1.574 . S
C1276 C288 1.572 . S
C1287 C274 1.570 . S
C1292 C64 1.571 . S
C1303 C78 1.574 . S
C1308 C232 1.572 . S
C1319 C246 1.578 . S
C1324 C92 1.579 . S
C1335 C106 1.572 . S
C1340 C260 1.571 . S
C1351 C414 1.575 . S
C1356 C120 1.577 . S
C1367 C428 1.577 . S
C1372 C134 1.575 . S
C1383 C148 1.571 . S
C1388 C442 1.571 . S
C1399 C400 1.574 . S
C1404 C162 1.572 . S
C1415 C386 1.570 . S
C1420 C176 1.571 . S
C1431 C190 1.571 . S
C1436 C344 1.571 . S
C1447 C358 1.571 . S
C1452 C204 1.571 . S
C1463 C218 1.571 . S
C1468 C372 1.573 . S
