# Generated by pormake.
# Topology yfz, (5)-cn, num edge types: 1
# Building blocks:
#     Node 0, Type 0, BuildingBlock: XOMCOT_clean_sbu_1, # of connection points: 5
#     Node 1, Type 0, BuildingBlock: XOMCOT_clean_sbu_1, # of connection points: 5
#     Node 2, Type 0, BuildingBlock: XOMCOT_clean_sbu_1, # of connection points: 5
#     Node 3, Type 0, BuildingBlock: XOMCOT_clean_sbu_1, # of connection points: 5
#     Node 4, Type 0, BuildingBlock: XOMCOT_clean_sbu_1, # of connection points: 5
#     Node 5, Type 0, BuildingBlock: XOMCOT_clean_sbu_1, # of connection points: 5
#     Node 6, Type 0, BuildingBlock: XOMCOT_clean_sbu_1, # of connection points: 5
#     Node 7, Type 0, BuildingBlock: XOMCOT_clean_sbu_1, # of connection points: 5
#     Edge 8, Type (0, 0), BuildingBlock: XUDNAN_clean_linker_2, # of connection points: 2
#     Edge 9, Type (0, 0), BuildingBlock: XUDNAN_clean_linker_2, # of connection points: 2
#     Edge 10, Type (0, 0), BuildingBlock: XUDNAN_clean_linker_2, # of connection points: 2
#     Edge 11, Type (0, 0), BuildingBlock: XUDNAN_clean_linker_2, # of connection points: 2
#     Edge 12, Type (0, 0), BuildingBlock: XUDNAN_clean_linker_2, # of connection points: 2
#     Edge 13, Type (0, 0), BuildingBlock: XUDNAN_clean_linker_2, # of connection points: 2
#     Edge 14, Type (0, 0), BuildingBlock: XUDNAN_clean_linker_2, # of connection points: 2
#     Edge 15, Type (0, 0), BuildingBlock: XUDNAN_clean_linker_2, # of connection points: 2
#     Edge 16, Type (0, 0), BuildingBlock: XUDNAN_clean_linker_2, # of connection points: 2
#     Edge 17, Type (0, 0), BuildingBlock: XUDNAN_clean_linker_2, # of connection points: 2
#     Edge 18, Type (0, 0), BuildingBlock: XUDNAN_clean_linker_2, # of connection points: 2
#     Edge 19, Type (0, 0), BuildingBlock: XUDNAN_clean_linker_2, # of connection points: 2
#     Edge 20, Type (0, 0), BuildingBlock: XUDNAN_clean_linker_2, # of connection points: 2
#     Edge 21, Type (0, 0), BuildingBlock: XUDNAN_clean_linker_2, # of connection points: 2
#     Edge 22, Type (0, 0), BuildingBlock: XUDNAN_clean_linker_2, # of connection points: 2
#     Edge 23, Type (0, 0), BuildingBlock: XUDNAN_clean_linker_2, # of connection points: 2
#     Edge 24, Type (0, 0), BuildingBlock: XUDNAN_clean_linker_2, # of connection points: 2
#     Edge 25, Type (0, 0), BuildingBlock: XUDNAN_clean_linker_2, # of connection points: 2
#     Edge 26, Type (0, 0), BuildingBlock: XUDNAN_clean_linker_2, # of connection points: 2
#     Edge 27, Type (0, 0), BuildingBlock: XUDNAN_clean_linker_2, # of connection points: 2
# Relax obj value: 0.148
# Max RMSD: 0.137
# Mean RMSD: 0.137
data_MOF--net-yfz--node1-XOMCOT_clean_sbu_1--edge1-XUDNAN_clean_linker_2
_symmetry_space_group_name_H-M    P1
_symmetry_Int_Tables_number       1
_symmetry_cell_setting            triclinic
loop_
_symmetry_equiv_pos_as_xyz
'x, y, z'
_cell_length_a     52.569797
_cell_length_b     52.656978
_cell_length_c     17.431873
_cell_angle_alpha  89.968012
_cell_angle_beta   90.123042
_cell_angle_gamma 90.001993
loop_
_atom_site_label
_atom_site_type_symbol
_atom_site_fract_x
_atom_site_fract_y
_atom_site_fract_z
_atom_type_partial_charge
C0 C 0.57939 0.07079 0.35603 0.0
C1 C 0.57713 0.06587 0.2788 0.0
N2 N 0.56526 0.08571 0.24595 0.0
N3 N 0.56863 0.09345 0.37181 0.0
C4 C 0.56024 0.10216 0.30321 0.0
H5 H 0.58843 0.05868 0.39815 0.0
Co6 Co 0.56714 0.10751 0.47007 0.0
C7 C 0.53753 0.15377 0.44452 0.0
O8 O 0.52218 0.14731 0.50063 0.0
N9 N 0.56578 0.12098 0.56942 0.0
C10 C 0.56998 0.14518 0.67309 0.0
C11 C 0.57244 0.1443 0.59446 0.0
C12 C 0.55968 0.10801 0.63359 0.0
N13 N 0.56196 0.12226 0.69778 0.0
O14 O 0.53245 0.09641 0.47861 0.0
H15 H 0.57913 0.15953 0.55805 0.0
H16 H 0.55464 0.08812 0.63328 0.0
O17 O 0.55638 0.13963 0.4274 0.0
C18 C 0.53044 0.07284 0.49361 0.0
O19 O 0.5513 0.05955 0.50433 0.0
N20 N 0.60149 0.11668 0.46216 0.0
C21 C 0.65429 0.11901 0.44303 0.0
C22 C 0.63776 0.13051 0.38967 0.0
C23 C 0.61139 0.12937 0.40076 0.0
C24 C 0.61715 0.10631 0.51598 0.0
C25 C 0.64348 0.10792 0.50875 0.0
H26 H 0.59895 0.13721 0.35734 0.0
H27 H 0.6092 0.0958 0.56354 0.0
H28 H 0.55047 0.12002 0.29507 0.0
H29 H 0.58402 0.04926 0.24875 0.0
H30 H 0.57395 0.16145 0.70903 0.0
H31 H 0.64488 0.13911 0.33757 0.0
H32 H 0.65514 0.09957 0.55332 0.0
C33 C 0.40818 0.53696 0.72723 0.0
C34 C 0.40728 0.53088 0.65074 0.0
N35 N 0.38466 0.53842 0.62272 0.0
N36 N 0.38606 0.54795 0.74805 0.0
C37 C 0.37213 0.54884 0.68257 0.0
H38 H 0.42421 0.53382 0.76488 0.0
Co39 Co 0.37922 0.55928 0.84749 0.0
C40 C 0.32327 0.55947 0.86467 0.0
O41 O 0.32512 0.5789 0.91154 0.0
N42 N 0.3732 0.57059 0.95019 0.0
C43 C 0.37306 0.59242 0.05984 0.0
C44 C 0.37687 0.59374 0.98196 0.0
C45 C 0.36686 0.55568 0.01073 0.0
N46 N 0.36698 0.56836 0.07824 0.0
O47 O 0.38696 0.52598 0.88596 0.0
H48 H 0.38273 0.61065 0.95202 0.0
H49 H 0.36273 0.53564 1.00554 0.0
O50 O 0.3433 0.54994 0.83473 0.0
C51 C 0.40942 0.52596 0.91364 0.0
O52 O 0.42218 0.54744 0.91371 0.0
N53 N 0.37448 0.59217 0.80828 0.0
C54 C 0.37549 0.64316 0.76663 0.0
C55 C 0.35357 0.62857 0.75417 0.0
C56 C 0.35353 0.60286 0.77462 0.0
C57 C 0.3967 0.60541 0.81227 0.0
C58 C 0.39752 0.63109 0.79332 0.0
H59 H 0.33665 0.59193 0.76331 0.0
H60 H 0.41353 0.59625 0.83494 0.0
H61 H 0.35321 0.55683 0.67871 0.0
H62 H 0.42234 0.52218 0.61761 0.0
H63 H 0.37597 0.60779 0.10011 0.0
H64 H 0.33637 0.63713 0.73162 0.0
H65 H 0.41504 0.64158 0.80161 0.0
C66 C 0.91086 0.41244 0.18975 0.0
C67 C 0.91408 0.41428 0.11145 0.0
N68 N 0.92288 0.39185 0.08516 0.0
N69 N 0.91773 0.38904 0.21316 0.0
C70 C 0.92498 0.37703 0.14825 0.0
H71 H 0.90314 0.42698 0.22673 0.0
Co72 Co 0.91407 0.3757 0.31214 0.0
C73 C 0.94908 0.33193 0.30718 0.0
O74 O 0.96172 0.34028 0.36718 0.0
N75 N 0.91016 0.3621 0.41125 0.0
C76 C 0.90428 0.33373 0.50413 0.0
C77 C 0.90263 0.3381 0.42665 0.0
C78 C 0.91567 0.37216 0.48085 0.0
N79 N 0.91249 0.35514 0.53804 0.0
O80 O 0.94625 0.38985 0.34058 0.0
H81 H 0.89714 0.32428 0.38382 0.0
H82 H 0.92292 0.39114 0.48955 0.0
O83 O 0.93033 0.34458 0.28094 0.0
C84 C 0.94505 0.41268 0.36403 0.0
O85 O 0.92269 0.42382 0.3659 0.0
N86 N 0.88198 0.36325 0.28469 0.0
C87 C 0.83224 0.34919 0.24824 0.0
C88 C 0.853 0.33687 0.21418 0.0
C89 C 0.87774 0.34427 0.23286 0.0
C90 C 0.86211 0.37557 0.31805 0.0
C91 C 0.83705 0.36879 0.30092 0.0
H92 H 0.89332 0.33492 0.2045 0.0
H93 H 0.86581 0.39079 0.35822 0.0
H94 H 0.93047 0.35732 0.14669 0.0
H95 H 0.9097 0.43076 0.07678 0.0
H96 H 0.90023 0.31602 0.53328 0.0
H97 H 0.8502 0.32201 0.17207 0.0
H98 H 0.82162 0.3787 0.32903 0.0
C99 C 0.06486 0.90092 0.84339 0.0
C100 C 0.06078 0.8978 0.76611 0.0
N101 N 0.08225 0.90422 0.72883 0.0
N102 N 0.08883 0.90912 0.85498 0.0
C103 C 0.09893 0.91126 0.78388 0.0
H104 H 0.0516 0.89631 0.88865 0.0
Co105 Co 0.10322 0.91161 0.95234 0.0
C106 C 0.15843 0.9087 0.92501 0.0
O107 O 0.16005 0.89234 0.98174 0.0
N108 N 0.11699 0.91476 0.05295 0.0
C109 C 0.1378 0.92992 0.15507 0.0
C110 C 0.13538 0.931 0.07637 0.0
C111 C 0.10782 0.90507 0.11927 0.0
N112 N 0.12041 0.91343 0.18193 0.0
O113 O 0.09528 0.94704 0.95413 0.0
H114 H 0.14586 0.94358 0.03893 0.0
H115 H 0.09092 0.89368 0.1231 0.0
O116 O 0.13684 0.9182 0.90689 0.0
C117 C 0.07333 0.94831 0.98477 0.0
O118 O 0.06306 0.92714 0.01008 0.0
N119 N 0.10798 0.87595 0.95048 0.0
C120 C 0.10348 0.82295 0.93718 0.0
C121 C 0.11962 0.83676 0.88833 0.0
C122 C 0.12135 0.86321 0.89531 0.0
C123 C 0.09126 0.86292 0.99515 0.0
C124 C 0.08966 0.83656 0.99238 0.0
H125 H 0.13192 0.87346 0.85241 0.0
H126 H 0.07743 0.87302 0.0287 0.0
H127 H 0.11854 0.91622 0.77267 0.0
H128 H 0.04362 0.89057 0.73947 0.0
H129 H 0.15097 0.94082 0.18965 0.0
H130 H 0.12972 0.82758 0.84198 0.0
H131 H 0.07666 0.82723 0.03129 0.0
C132 C 0.57628 0.39569 0.20143 0.0
C133 C 0.58044 0.39964 0.27825 0.0
N134 N 0.57579 0.37776 0.3158 0.0
N135 N 0.56894 0.37147 0.19026 0.0
C136 C 0.56868 0.36097 0.26116 0.0
H137 H 0.57928 0.40939 0.15618 0.0
Co138 Co 0.56471 0.35781 0.09299 0.0
C139 C 0.55135 0.30373 0.11731 0.0
O140 O 0.56481 0.29733 0.05687 0.0
N141 N 0.5602 0.34516 0.99253 0.0
C142 C 0.54005 0.33323 0.88598 0.0
C143 C 0.53855 0.33489 0.96454 0.0
C144 C 0.57436 0.34985 0.92941 0.0
N145 N 0.56259 0.34287 0.86349 0.0
O146 O 0.53161 0.37267 0.0868 0.0
H147 H 0.522 0.33037 0.9987 0.0
H148 H 0.5923 0.35961 0.93131 0.0
O149 O 0.54995 0.32706 0.13717 0.0
C150 C 0.53214 0.39398 0.05243 0.0
O151 O 0.55408 0.40232 0.02655 0.0
N152 N 0.59825 0.34524 0.09939 0.0
C153 C 0.6504 0.3368 0.11927 0.0
C154 C 0.63246 0.32102 0.15477 0.0
C155 C 0.60652 0.32589 0.14556 0.0
C156 C 0.61549 0.3612 0.06655 0.0
C157 C 0.64159 0.35709 0.07443 0.0
H158 H 0.59351 0.315 0.17995 0.0
H159 H 0.60893 0.37798 0.03674 0.0
H160 H 0.56463 0.34117 0.27225 0.0
H161 H 0.58678 0.41719 0.30431 0.0
H162 H 0.52487 0.32701 0.84848 0.0
H163 H 0.63839 0.30588 0.19291 0.0
H164 H 0.65473 0.37008 0.04709 0.0
C165 C 0.0681 0.54188 0.7988 0.0
C166 C 0.0703 0.53886 0.87703 0.0
N167 N 0.09417 0.54515 0.89825 0.0
N168 N 0.09049 0.54991 0.7702 0.0
C169 C 0.10606 0.55137 0.83195 0.0
H170 H 0.05074 0.54006 0.76596 0.0
Co171 Co 0.0957 0.56307 0.67153 0.0
C172 C 0.15158 0.56335 0.64795 0.0
O173 O 0.14966 0.58359 0.60436 0.0
N174 N 0.10029 0.57662 0.57052 0.0
C175 C 0.10405 0.60296 0.47079 0.0
C176 C 0.09942 0.60125 0.54804 0.0
C177 C 0.1051 0.56376 0.50446 0.0
N178 N 0.1075 0.5794 0.44345 0.0
O179 O 0.08759 0.53069 0.62801 0.0
H180 H 0.09617 0.61738 0.58474 0.0
H181 H 0.10743 0.54337 0.50113 0.0
O182 O 0.13169 0.55363 0.6781 0.0
C183 C 0.06443 0.53114 0.60634 0.0
O184 O 0.05145 0.5522 0.6168 0.0
N185 N 0.10075 0.59514 0.71632 0.0
C186 C 0.09748 0.64274 0.78655 0.0
C187 C 0.12064 0.62943 0.78487 0.0
C188 C 0.12185 0.6055 0.75 0.0
C189 C 0.07801 0.60744 0.71979 0.0
C190 C 0.07603 0.63136 0.75302 0.0
H191 H 0.13951 0.59523 0.75311 0.0
H192 H 0.06131 0.59865 0.69498 0.0
H193 H 0.12539 0.55823 0.82867 0.0
H194 H 0.05488 0.53428 0.91564 0.0
H195 H 0.10472 0.62021 0.43703 0.0
H196 H 0.13752 0.63707 0.81204 0.0
H197 H 0.05779 0.64088 0.75171 0.0
C198 C 0.92348 0.07556 0.24281 0.0
C199 C 0.92708 0.07551 0.32091 0.0
N200 N 0.92488 0.09953 0.3463 0.0
N201 N 0.91891 0.09951 0.2191 0.0
C202 C 0.92 0.11377 0.28357 0.0
H203 H 0.92268 0.05897 0.20646 0.0
Co204 Co 0.90739 0.10778 0.12139 0.0
C205 C 0.91653 0.16359 0.10335 0.0
O206 O 0.89974 0.16589 0.04789 0.0
N207 N 0.8954 0.11507 0.02132 0.0
C208 C 0.87085 0.11516 0.917 0.0
C209 C 0.87133 0.11215 0.99518 0.0
C210 C 0.90916 0.12004 0.95725 0.0
N211 N 0.89463 0.12007 0.89328 0.0
O212 O 0.93969 0.09795 0.08059 0.0
H213 H 0.85509 0.10697 0.0295 0.0
H214 H 0.92962 0.12229 0.95681 0.0
O215 O 0.92013 0.14209 0.13541 0.0
C216 C 0.93951 0.07533 0.05505 0.0
O217 O 0.91777 0.06299 0.05378 0.0
N218 N 0.87551 0.1151 0.16405 0.0
C219 C 0.8291 0.11506 0.24167 0.0
C220 C 0.84247 0.13783 0.22996 0.0
C221 C 0.86587 0.13745 0.19134 0.0
C222 C 0.8625 0.09299 0.17383 0.0
C223 C 0.83925 0.09255 0.21161 0.0
H224 H 0.87636 0.15492 0.18638 0.0
H225 H 0.87056 0.07544 0.15266 0.0
H226 H 0.91535 0.13379 0.28549 0.0
H227 H 0.92995 0.05896 0.35683 0.0
H228 H 0.85442 0.11302 0.87999 0.0
H229 H 0.83543 0.15558 0.25303 0.0
H230 H 0.82944 0.07459 0.21798 0.0
C231 C 0.402 0.90149 0.69832 0.0
C232 C 0.40716 0.90421 0.77511 0.0
N233 N 0.38654 0.91432 0.80885 0.0
N234 N 0.37839 0.91021 0.68333 0.0
C235 C 0.3693 0.91773 0.75229 0.0
H236 H 0.41458 0.89329 0.65606 0.0
Co237 Co 0.36448 0.90962 0.58467 0.0
C238 C 0.31712 0.9366 0.64453 0.0
O239 O 0.32582 0.95996 0.64737 0.0
N240 N 0.35125 0.90888 0.48488 0.0
C241 C 0.32645 0.90805 0.38133 0.0
C242 C 0.32708 0.90593 0.46018 0.0
C243 C 0.3649 0.91228 0.42023 0.0
N244 N 0.35032 0.91225 0.35631 0.0
O245 O 0.37402 0.94457 0.571 0.0
H246 H 0.31084 0.90276 0.49684 0.0
H247 H 0.38529 0.91458 0.42001 0.0
O248 O 0.33141 0.91853 0.62248 0.0
C249 C 0.39717 0.94554 0.54965 0.0
O250 O 0.40941 0.92401 0.54031 0.0
N251 N 0.35694 0.87514 0.5979 0.0
C252 C 0.35717 0.82387 0.63638 0.0
C253 C 0.34283 0.84121 0.67901 0.0
C254 C 0.34297 0.8668 0.65893 0.0
C255 C 0.36991 0.85834 0.55318 0.0
C256 C 0.37008 0.83241 0.57103 0.0
H257 H 0.33343 0.88002 0.69641 0.0
H258 H 0.38152 0.86525 0.50646 0.0
H259 H 0.35052 0.9255 0.7614 0.0
H260 H 0.42447 0.89864 0.80436 0.0
H261 H 0.3096 0.9072 0.34567 0.0
H262 H 0.33278 0.83525 0.73016 0.0
H263 H 0.38166 0.81953 0.53754 0.0
H264 H 0.44449 0.95048 0.49149 0.0
H265 H 0.38159 0.99498 0.57969 0.0
H266 H 0.40765 0.03416 0.56547 0.0
H267 H 0.49239 0.98198 0.58926 0.0
H268 H 0.51525 0.97937 0.51277 0.0
H269 H 0.49053 0.95601 0.52212 0.0
H270 H 0.476 0.96481 0.38227 0.0
H271 H 0.50078 0.9882 0.37234 0.0
H272 H 0.46815 0.99677 0.3537 0.0
H273 H 0.44305 0.06834 0.54723 0.0
H274 H 0.48343 0.09256 0.53244 0.0
H275 H 0.52164 0.02356 0.46165 0.0
C276 C 0.4359 0.96843 0.50713 0.0
C277 C 0.41098 0.96967 0.53672 0.0
C278 C 0.40063 0.99362 0.55652 0.0
C279 C 0.4153 0.01593 0.54857 0.0
C280 C 0.44012 0.01383 0.52043 0.0
C281 C 0.45015 0.99055 0.49994 0.0
C282 C 0.4776 0.99257 0.47576 0.0
C283 C 0.49495 0.97654 0.52813 0.0
C284 C 0.48081 0.98515 0.39098 0.0
C285 C 0.4819 0.02059 0.48752 0.0
C286 C 0.46011 0.03282 0.51204 0.0
C287 C 0.46012 0.05887 0.52772 0.0
C288 C 0.48305 0.07248 0.51908 0.0
C289 C 0.50559 0.05983 0.49644 0.0
C290 C 0.50474 0.0337 0.47965 0.0
H291 H 0.53046 0.4442 0.02041 0.0
H292 H 0.48182 0.37886 0.05757 0.0
H293 H 0.44389 0.4055 0.02913 0.0
H294 H 0.48872 0.49073 0.10576 0.0
H295 H 0.49739 0.5149 0.03736 0.0
H296 H 0.51993 0.49058 0.0631 0.0
H297 H 0.52485 0.47858 0.91954 0.0
H298 H 0.50227 0.50276 0.89342 0.0
H299 H 0.49701 0.47034 0.86437 0.0
H300 H 0.41142 0.44006 0.98735 0.0
H301 H 0.38831 0.47884 0.94477 0.0
H302 H 0.45971 0.52011 0.94112 0.0
C303 C 0.51185 0.43542 0.02298 0.0
C304 C 0.50903 0.40947 0.04079 0.0
C305 C 0.48433 0.39879 0.0442 0.0
C306 C 0.46274 0.41375 0.02795 0.0
C307 C 0.4663 0.43933 0.00945 0.0
C308 C 0.49032 0.45001 1.00787 0.0
C309 C 0.48951 0.47772 0.9862 0.0
C310 C 0.49947 0.49446 0.05204 0.0
C311 C 0.50428 0.48262 0.91145 0.0
C312 C 0.46128 0.48108 0.97469 0.0
C313 C 0.44802 0.45886 0.98796 0.0
C314 C 0.42167 0.45759 0.97761 0.0
C315 C 0.40871 0.47963 0.95327 0.0
C316 C 0.42218 0.50252 0.94017 0.0
C317 C 0.44874 0.50305 0.95147 0.0
H318 H 0.94634 0.46026 0.42372 0.0
H319 H 0.99461 0.39542 0.37527 0.0
H320 H 0.03141 0.41837 0.43182 0.0
H321 H 0.99192 0.50876 0.38197 0.0
H322 H 0.98096 0.52909 0.4582 0.0
H323 H 0.95919 0.50746 0.41247 0.0
H324 H 0.94823 0.48782 0.54493 0.0
H325 H 0.97007 0.5093 0.59102 0.0
H326 H 0.97346 0.47553 0.60453 0.0
H327 H 0.06301 0.44951 0.49706 0.0
H328 H 0.08541 0.48515 0.56194 0.0
H329 H 0.01481 0.52781 0.56566 0.0
C330 C 0.96463 0.4508 0.42444 0.0
C331 C 0.96761 0.42607 0.39488 0.0
C332 C 0.99192 0.41443 0.39745 0.0
C333 C 0.01289 0.42731 0.42952 0.0
C334 C 0.00915 0.45172 0.45871 0.0
C335 C 0.98553 0.46324 0.45617 0.0
C336 C 0.986 0.48931 0.49189 0.0
C337 C 0.97912 0.50986 0.43258 0.0
C338 C 0.9684 0.49054 0.56226 0.0
C339 C 0.01362 0.49086 0.51497 0.0
C340 C 0.02685 0.46912 0.49571 0.0
C341 C 0.05275 0.46659 0.51227 0.0
C342 C 0.06532 0.48687 0.54919 0.0
C343 C 0.05189 0.50925 0.56885 0.0
C344 C 0.02574 0.51103 0.55138 0.0
H345 H 0.94589 0.02445 0.05029 0.0
H346 H 0.98693 0.0952 0.02104 0.0
H347 H 0.02656 0.07084 0.99532 0.0
H348 H 0.99488 0.99269 0.15171 0.0
H349 H 0.98766 0.9622 0.11012 0.0
H350 H 0.96291 0.9855 0.12116 0.0
H351 H 0.95275 0.98267 0.97565 0.0
H352 H 0.97744 0.95931 0.96419 0.0
H353 H 0.97781 0.98782 0.90692 0.0
H354 H 0.06209 0.03696 0.97265 0.0
H355 H 0.08907 0.99821 0.96284 0.0
H356 H 0.02311 0.95177 0.0142 0.0
C357 C 0.96309 0.03495 0.03747 0.0
C358 C 0.9633 0.06169 0.03666 0.0
C359 C 0.98638 0.07464 0.02147 0.0
C360 C 0.00892 0.06097 1.00676 0.0
C361 C 0.00799 0.03444 1.00848 0.0
C362 C 0.98557 0.02173 0.02408 0.0
C363 C 0.98933 0.99338 0.02684 0.0
C364 C 0.98335 0.98284 0.10722 0.0
C365 C 0.97339 0.98002 0.96468 0.0
C366 C 0.01736 0.99188 0.00958 0.0
C367 C 0.02802 0.01559 0.99862 0.0
C368 C 0.05386 0.01836 0.98145 0.0
C369 C 0.06903 0.99631 0.97589 0.0
C370 C 0.05825 0.972 0.98832 0.0
C371 C 0.03209 0.97003 1.00504 0.0
H372 H 0.55494 0.16623 0.30205 0.0
H373 H 0.51199 0.196 0.49427 0.0
H374 H 0.50803 0.23732 0.42745 0.0
H375 H 0.59012 0.22013 0.25854 0.0
H376 H 0.58821 0.21642 0.15589 0.0
H377 H 0.58621 0.18899 0.21708 0.0
H378 H 0.54259 0.17673 0.1566 0.0
H379 H 0.54515 0.20386 0.09374 0.0
H380 H 0.51747 0.19994 0.15336 0.0
H381 H 0.51228 0.27648 0.34365 0.0
H382 H 0.52282 0.30953 0.24804 0.0
H383 H 0.56076 0.25277 0.10853 0.0
C384 C 0.54447 0.18134 0.32984 0.0
C385 C 0.53381 0.17798 0.40334 0.0
C386 C 0.5202 0.19818 0.43772 0.0
C387 C 0.51786 0.22169 0.40026 0.0
C388 C 0.52878 0.22442 0.32789 0.0
C389 C 0.5415 0.20465 0.29268 0.0
C390 C 0.55168 0.21238 0.2151 0.0
C391 C 0.58077 0.20931 0.21152 0.0
C392 C 0.53844 0.19734 0.15086 0.0
C393 C 0.54383 0.24001 0.21363 0.0
C394 C 0.53042 0.24658 0.27878 0.0
C395 C 0.5224 0.27144 0.29184 0.0
C396 C 0.52848 0.29008 0.23724 0.0
C397 C 0.54246 0.28373 0.1705 0.0
C398 C 0.54978 0.25824 0.15834 0.0
H399 H 0.18872 0.59562 0.69151 0.0
H400 H 0.17081 0.51553 0.67432 0.0
H401 H 0.21375 0.5049 0.72558 0.0
H402 H 0.25481 0.59282 0.64337 0.0
H403 H 0.26379 0.61648 0.71301 0.0
H404 H 0.23251 0.61717 0.67084 0.0
H405 H 0.21232 0.61589 0.80645 0.0
H406 H 0.24354 0.61521 0.84906 0.0
H407 H 0.22084 0.59067 0.87158 0.0
H408 H 0.26041 0.50393 0.77344 0.0
H409 H 0.30337 0.51264 0.82791 0.0
H410 H 0.28703 0.59327 0.82507 0.0
C411 C 0.19396 0.57582 0.69763 0.0
C412 C 0.17686 0.55632 0.67763 0.0
C413 C 0.18393 0.53066 0.68873 0.0
C414 C 0.20821 0.52451 0.71758 0.0
C415 C 0.22476 0.54432 0.73661 0.0
C416 C 0.21763 0.56945 0.72818 0.0
C417 C 0.2379 0.58736 0.7572 0.0
C418 C 0.24784 0.60446 0.69222 0.0
C419 C 0.22806 0.6032 0.82511 0.0
C420 C 0.2578 0.56848 0.78262 0.0
C421 C 0.25022 0.54372 0.76934 0.0
C422 C 0.26632 0.52324 0.78507 0.0
C423 C 0.29062 0.5283 0.81575 0.0
C424 C 0.29813 0.55353 0.83188 0.0
C425 C 0.28148 0.57374 0.81493 0.0
H426 H 0.90952 0.21301 0.05903 0.0
H427 H 0.95097 0.16609 0.22165 0.0
H428 H 0.96858 0.20466 0.28219 0.0
H429 H 0.95781 0.26408 0.04161 0.0
H430 H 0.93385 0.28851 0.03647 0.0
H431 H 0.9272 0.25722 0.99965 0.0
H432 H 0.88745 0.25426 0.08715 0.0
H433 H 0.89398 0.28547 0.12398 0.0
H434 H 0.89098 0.25903 0.18903 0.0
H435 H 0.97789 0.24847 0.33375 0.0
H436 H 0.97697 0.29355 0.37342 0.0
H437 H 0.93017 0.31132 0.17519 0.0
C438 C 0.92272 0.21078 0.10633 0.0
C439 C 0.92892 0.18651 0.13537 0.0
C440 C 0.94599 0.18448 0.19815 0.0
C441 C 0.95618 0.20628 0.23278 0.0
C442 C 0.94929 0.22995 0.20358 0.0
C443 C 0.93303 0.2323 0.14149 0.0
C444 C 0.9269 0.25984 0.12502 0.0
C445 C 0.93706 0.26788 0.04599 0.0
C446 C 0.89813 0.26493 0.13174 0.0
C447 C 0.94158 0.27256 0.18902 0.0
C448 C 0.95466 0.2551 0.2332 0.0
C449 C 0.96804 0.26235 0.29884 0.0
C450 C 0.96746 0.28801 0.32086 0.0
C451 C 0.9534 0.30597 0.27764 0.0
C452 C 0.94101 0.29812 0.20972 0.0
H453 H 0.28289 0.96638 0.72616 0.0
H454 H 0.29266 0.89163 0.62469 0.0
H455 H 0.25195 0.87808 0.67855 0.0
H456 H 0.25602 0.94566 0.89969 0.0
H457 H 0.23309 0.97094 0.90843 0.0
H458 H 0.26221 0.97618 0.85662 0.0
H459 H 0.23653 0.98991 0.73658 0.0
H460 H 0.20727 0.98487 0.7882 0.0
H461 H 0.21257 0.96896 0.69812 0.0
H462 H 0.21373 0.87035 0.75445 0.0
H463 H 0.17706 0.87002 0.84198 0.0
H464 H 0.1884 0.95005 0.88953 0.0
C465 C 0.27619 0.94735 0.71415 0.0
C466 C 0.29119 0.93007 0.67149 0.0
C467 C 0.2818 0.90523 0.65766 0.0
C468 C 0.25856 0.8973 0.68778 0.0
C469 C 0.24457 0.91447 0.73097 0.0
C470 C 0.25271 0.93907 0.74356 0.0
C471 C 0.23409 0.95316 0.79488 0.0
C472 C 0.24714 0.962 0.86931 0.0
C473 C 0.22189 0.97555 0.75186 0.0
C474 C 0.21474 0.93234 0.81052 0.0
C475 C 0.22133 0.91022 0.77283 0.0
C476 C 0.20793 0.88768 0.78274 0.0
C477 C 0.18714 0.88768 0.8325 0.0
C478 C 0.17966 0.91013 0.87057 0.0
C479 C 0.19346 0.93284 0.8592 0.0
H480 H 0.34884 0.77778 0.56539 0.0
H481 H 0.37569 0.81221 0.77656 0.0
H482 H 0.38389 0.76973 0.83098 0.0
H483 H 0.31629 0.72538 0.65679 0.0
H484 H 0.32433 0.70264 0.5835 0.0
H485 H 0.32129 0.73577 0.55941 0.0
H486 H 0.36688 0.73558 0.50327 0.0
H487 H 0.37007 0.70244 0.52721 0.0
H488 H 0.39305 0.72505 0.56225 0.0
H489 H 0.38991 0.72437 0.86203 0.0
H490 H 0.39111 0.67768 0.8717 0.0
H491 H 0.35854 0.67154 0.64349 0.0
C492 C 0.3565 0.77622 0.62293 0.0
C493 C 0.36162 0.79811 0.66711 0.0
C494 C 0.37148 0.79555 0.74232 0.0
C495 C 0.37629 0.77157 0.7735 0.0
C496 C 0.37093 0.75032 0.72893 0.0
C497 C 0.36106 0.75228 0.65559 0.0
C498 C 0.3563 0.7262 0.62142 0.0
C499 C 0.32786 0.72227 0.60429 0.0
C500 C 0.37255 0.72208 0.54926 0.0
C501 C 0.36514 0.70939 0.68699 0.0
C502 C 0.37371 0.72381 0.74801 0.0
C503 C 0.38323 0.71283 0.81477 0.0
C504 C 0.38395 0.68634 0.81956 0.0
C505 C 0.37501 0.67111 0.75829 0.0
C506 C 0.36538 0.6828 0.69123 0.0
H507 H 0.79151 0.38081 0.22344 0.0
H508 H 0.81307 0.30123 0.22652 0.0
H509 H 0.76918 0.28932 0.19049 0.0
H510 H 0.72937 0.37229 0.30545 0.0
H511 H 0.71491 0.39663 0.24715 0.0
H512 H 0.74811 0.39873 0.27195 0.0
H513 H 0.75964 0.40181 0.12772 0.0
H514 H 0.72648 0.39955 0.10245 0.0
H515 H 0.749 0.37736 0.0628 0.0
H516 H 0.72265 0.28614 0.1556 0.0
H517 H 0.67705 0.292 0.12527 0.0
H518 H 0.68612 0.37359 0.14806 0.0
C519 C 0.78698 0.36085 0.21727 0.0
C520 C 0.80576 0.34195 0.22779 0.0
C521 C 0.79909 0.31607 0.21786 0.0
C522 C 0.77419 0.30911 0.19774 0.0
C523 C 0.75619 0.32824 0.18766 0.0
C524 C 0.76228 0.35358 0.1972 0.0
C525 C 0.73941 0.37046 0.18346 0.0
C526 C 0.73255 0.3854 0.25635 0.0
C527 C 0.74391 0.38834 0.11503 0.0
C528 C 0.71948 0.35066 0.16494 0.0
C529 C 0.7295 0.32642 0.16755 0.0
C530 C 0.71459 0.30504 0.15336 0.0
C531 C 0.68871 0.30854 0.13649 0.0
C532 C 0.67802 0.33324 0.1339 0.0
C533 C 0.69376 0.35449 0.14814 0.0
H534 H 0.13682 0.78639 0.8808 0.0
H535 H 0.05939 0.79596 0.9641 0.0
H536 H 0.05174 0.75059 0.94684 0.0
H537 H 0.11877 0.74433 0.72954 0.0
H538 H 0.14719 0.72527 0.73546 0.0
H539 H 0.14809 0.75818 0.76327 0.0
H540 H 0.16569 0.74531 0.89671 0.0
H541 H 0.16467 0.71232 0.86943 0.0
H542 H 0.14831 0.72284 0.95445 0.0
H543 H 0.05157 0.70455 0.91943 0.0
H544 H 0.05737 0.66131 0.86965 0.0
H545 H 0.1327 0.68184 0.78801 0.0
C546 C 0.11823 0.77909 0.8956 0.0
C547 C 0.09907 0.79509 0.92627 0.0
C548 C 0.07499 0.78435 0.94406 0.0
C549 C 0.07025 0.75846 0.9337 0.0
C550 C 0.08952 0.74339 0.90388 0.0
C551 C 0.11289 0.75329 0.88383 0.0
C552 C 0.12944 0.73317 0.84654 0.0
C553 C 0.13626 0.74069 0.76379 0.0
C554 C 0.15345 0.72812 0.89467 0.0
C555 C 0.11153 0.71058 0.84826 0.0
C556 C 0.08881 0.71688 0.8829 0.0
C557 C 0.06919 0.69941 0.89146 0.0
C558 C 0.07262 0.67491 0.86228 0.0
C559 C 0.09531 0.66815 0.82343 0.0
C560 C 0.11518 0.68623 0.81767 0.0
H561 H 0.7881 0.14812 0.23835 0.0
H562 H 0.81631 0.07979 0.34925 0.0
H563 H 0.77563 0.07503 0.41701 0.0
H564 H 0.75117 0.17109 0.40638 0.0
H565 H 0.72573 0.18331 0.34752 0.0
H566 H 0.75777 0.18254 0.31099 0.0
H567 H 0.74228 0.15665 0.19356 0.0
H568 H 0.71026 0.15716 0.22998 0.0
H569 H 0.72539 0.12727 0.20866 0.0
H570 H 0.73117 0.07458 0.46079 0.0
H571 H 0.68594 0.08006 0.48742 0.0
H572 H 0.68626 0.1511 0.35954 0.0
C573 C 0.78586 0.13246 0.27805 0.0
C574 C 0.80531 0.11411 0.28759 0.0
C575 C 0.80153 0.09376 0.33962 0.0
C576 C 0.77855 0.09099 0.37889 0.0
C577 C 0.75954 0.10891 0.3666 0.0
C578 C 0.76295 0.12947 0.31844 0.0
C579 C 0.73893 0.14547 0.31429 0.0
C580 C 0.74369 0.17219 0.34674 0.0
C581 C 0.72861 0.1467 0.23171 0.0
C582 C 0.7214 0.13024 0.36602 0.0
C583 C 0.73382 0.10928 0.39542 0.0
C584 C 0.72138 0.09132 0.44006 0.0
C585 C 0.69555 0.09484 0.45556 0.0
C586 C 0.68221 0.11645 0.42773 0.0
C587 C 0.69559 0.13441 0.38235 0.0
H588 H 0.58095 0.14389 0.82873 0.0
H589 H 0.53344 0.08214 0.74611 0.0
H590 H 0.52802 0.06705 0.87866 0.0
H591 H 0.61235 0.10892 0.97494 0.0
H592 H 0.61321 0.13477 0.04261 0.0
H593 H 0.61296 0.14129 0.94121 0.0
H594 H 0.57257 0.16939 0.95656 0.0
H595 H 0.57388 0.16338 0.05811 0.0
H596 H 0.54518 0.15651 1.00505 0.0
H597 H 0.53015 0.05677 0.01898 0.0
H598 H 0.53793 0.05363 0.15907 0.0
H599 H 0.58099 0.12362 0.15256 0.0
C600 C 0.56904 0.12745 0.83823 0.0
C601 C 0.55778 0.11418 0.77613 0.0
C602 C 0.5427 0.09246 0.79193 0.0
C603 C 0.53932 0.08381 0.86732 0.0
C604 C 0.55089 0.09719 0.92678 0.0
C605 C 0.56528 0.11866 0.91327 0.0
C606 C 0.57614 0.12921 0.98742 0.0
C607 C 0.6054 0.1285 0.98645 0.0
C608 C 0.56631 0.15622 1.00265 0.0
C609 C 0.56546 0.11038 0.04476 0.0
C610 C 0.55119 0.09188 1.00835 0.0
C611 C 0.5409 0.07137 0.0483 0.0
C612 C 0.54539 0.06969 0.12747 0.0
C613 C 0.5596 0.08859 0.16589 0.0
C614 C 0.56955 0.10931 0.12423 0.0
H615 H 0.36499 0.57586 0.53363 0.0
H616 H 0.38833 0.49706 0.53337 0.0
H617 H 0.3811 0.49484 0.39329 0.0
H618 H 0.31663 0.57127 0.37512 0.0
H619 H 0.32558 0.60169 0.33613 0.0
H620 H 0.32835 0.59588 0.43775 0.0
H621 H 0.37592 0.60855 0.43263 0.0
H622 H 0.37338 0.61419 0.33113 0.0
H623 H 0.39686 0.59228 0.36728 0.0
H624 H 0.37629 0.50242 0.2529 0.0
H625 H 0.3752 0.51929 0.12143 0.0
H626 H 0.35526 0.5937 0.21036 0.0
C627 C 0.36765 0.55798 0.50409 0.0
C628 C 0.37679 0.53647 0.54392 0.0
C629 C 0.38109 0.51359 0.50349 0.0
C630 C 0.37697 0.51218 0.42416 0.0
C631 C 0.36866 0.53389 0.38591 0.0
C632 C 0.36397 0.55638 0.4244 0.0
C633 C 0.3578 0.5776 0.36843 0.0
C634 C 0.33046 0.58717 0.38006 0.0
C635 C 0.37714 0.59943 0.3753 0.0
C636 C 0.3605 0.56369 0.29264 0.0
C637 C 0.36636 0.53841 0.30415 0.0
C638 C 0.37125 0.52208 0.24308 0.0
C639 C 0.37046 0.53187 0.16826 0.0
C640 C 0.36499 0.55787 0.15476 0.0
C641 C 0.35954 0.57377 0.21823 0.0
H642 H 0.90609 0.41588 0.95454 0.0
H643 H 0.94884 0.35021 0.03425 0.0
H644 H 0.9522 0.335 0.90185 0.0
H645 H 0.87082 0.38515 0.81162 0.0
H646 H 0.87234 0.4107 0.74293 0.0
H647 H 0.87425 0.41749 0.84396 0.0
H648 H 0.91708 0.44081 0.82326 0.0
H649 H 0.91526 0.4342 0.72195 0.0
H650 H 0.94285 0.42455 0.77613 0.0
H651 H 0.94787 0.32468 0.76306 0.0
H652 H 0.93825 0.32149 0.62456 0.0
H653 H 0.90105 0.39485 0.63141 0.0
C654 C 0.9166 0.39856 0.94457 0.0
C655 C 0.92686 0.3842 1.00621 0.0
C656 C 0.94023 0.36145 0.9893 0.0
C657 C 0.94248 0.35267 0.91378 0.0
C658 C 0.93171 0.367 0.85505 0.0
C659 C 0.91934 0.38964 0.86922 0.0
C660 C 0.909 0.40106 0.79545 0.0
C661 C 0.87988 0.40374 0.79872 0.0
C662 C 0.92182 0.42668 0.77819 0.0
C663 C 0.91696 0.38096 0.73802 0.0
C664 C 0.93004 0.36149 0.77386 0.0
C665 C 0.93799 0.33998 0.73414 0.0
C666 C 0.93234 0.33825 0.65576 0.0
C667 C 0.91908 0.35798 0.61768 0.0
C668 C 0.91159 0.37975 0.65919 0.0
H669 H 0.1314 0.94109 0.31122 0.0
H670 H 0.09712 0.87064 0.2327 0.0
H671 H 0.08481 0.86046 0.365 0.0
H672 H 0.15651 0.9148 0.49204 0.0
H673 H 0.15041 0.9435 0.54519 0.0
H674 H 0.15741 0.94514 0.44413 0.0
H675 H 0.11542 0.96974 0.42093 0.0
H676 H 0.10823 0.96809 0.52175 0.0
H677 H 0.08576 0.95611 0.45241 0.0
H678 H 0.07355 0.85897 0.50294 0.0
H679 H 0.06618 0.86517 0.64141 0.0
H680 H 0.1095 0.93518 0.63464 0.0
C681 C 0.12167 0.92335 0.32183 0.0
C682 C 0.11493 0.90689 0.26076 0.0
C683 C 0.10198 0.88393 0.2777 0.0
C684 C 0.09508 0.87782 0.35296 0.0
C685 C 0.10153 0.89465 0.41129 0.0
C686 C 0.11479 0.91679 0.39706 0.0
C687 C 0.11901 0.93166 0.47066 0.0
C688 C 0.14753 0.9339 0.48908 0.0
C689 C 0.10634 0.95795 0.46613 0.0
C690 C 0.10559 0.9146 0.52796 0.0
C691 C 0.09566 0.89338 0.49217 0.0
C692 C 0.08143 0.87537 0.53183 0.0
C693 C 0.07719 0.87913 0.61025 0.0
C694 C 0.08726 0.90063 0.64845 0.0
C695 C 0.10186 0.91845 0.60681 0.0
H696 H 0.54916 0.34533 0.40749 0.0
H697 H 0.61093 0.39996 0.40728 0.0
H698 H 0.61604 0.39452 0.54677 0.0
H699 H 0.52151 0.3653 0.58143 0.0
H700 H 0.5129 0.33397 0.61405 0.0
H701 H 0.51532 0.3404 0.5129 0.0
H702 H 0.5477 0.30367 0.49823 0.0
H703 H 0.54533 0.29705 0.59942 0.0
H704 H 0.57595 0.3033 0.55708 0.0
H705 H 0.61275 0.38562 0.68606 0.0
H706 H 0.60124 0.3743 0.81737 0.0
H707 H 0.54206 0.32421 0.72986 0.0
C708 C 0.56403 0.35577 0.43675 0.0
C709 C 0.57957 0.37318 0.39654 0.0
C710 C 0.59856 0.38682 0.43699 0.0
C711 C 0.60176 0.3837 0.51616 0.0
C712 C 0.58587 0.36678 0.55431 0.0
C713 C 0.56742 0.35295 0.51618 0.0
C714 C 0.55203 0.33706 0.572 0.0
C715 C 0.52377 0.34465 0.56996 0.0
C716 C 0.55547 0.30858 0.5557 0.0
C717 C 0.56443 0.34457 0.64739 0.0
C718 C 0.58403 0.36154 0.63555 0.0
C719 C 0.59764 0.37208 0.69616 0.0
C720 C 0.5909 0.36536 0.77114 0.0
C721 C 0.57061 0.3482 0.78554 0.0
C722 C 0.55753 0.33746 0.72202 0.0
H723 H 0.07505 0.52478 0.03088 0.0
H724 H 0.1335 0.5755 0.94389 0.0
H725 H 0.14622 0.58564 0.07576 0.0
H726 H 0.05549 0.56415 0.18114 0.0
H727 H 0.04964 0.53894 0.24887 0.0
H728 H 0.04709 0.53286 0.14759 0.0
H729 H 0.07979 0.4963 0.16008 0.0
H730 H 0.08243 0.5023 0.2616 0.0
H731 H 0.1105 0.50251 0.20236 0.0
H732 H 0.14933 0.59469 0.21544 0.0
H733 H 0.14307 0.60106 0.35468 0.0
H734 H 0.08327 0.54456 0.35447 0.0
C735 C 0.09074 0.53778 0.03928 0.0
C736 C 0.10328 0.54913 0.97591 0.0
C737 C 0.12376 0.56605 0.99036 0.0
C738 C 0.13112 0.57208 0.06553 0.0
C739 C 0.118 0.561 0.12625 0.0
C740 C 0.09835 0.54406 0.11418 0.0
C741 C 0.0863 0.53618 0.18973 0.0
C742 C 0.05796 0.54348 0.19193 0.0
C743 C 0.08998 0.50762 0.20428 0.0
C744 C 0.10178 0.55193 0.24586 0.0
C745 C 0.12008 0.56596 0.20782 0.0
C746 C 0.13542 0.58346 0.24603 0.0
C747 C 0.13173 0.587 0.32488 0.0
C748 C 0.11301 0.57304 0.36499 0.0
C749 C 0.09816 0.55493 0.32522 0.0
H750 H 0.89845 0.07652 0.4587 0.0
H751 H 0.94778 0.14036 0.41085 0.0
H752 H 0.94645 0.1527 0.54858 0.0
H753 H 0.85848 0.10962 0.59333 0.0
H754 H 0.85382 0.08204 0.65296 0.0
H755 H 0.85955 0.07829 0.5518 0.0
H756 H 0.89785 0.04885 0.58172 0.0
H757 H 0.8923 0.05259 0.68297 0.0
H758 H 0.92303 0.06012 0.64328 0.0
H759 H 0.94111 0.15613 0.69479 0.0
H760 H 0.92825 0.15338 0.83184 0.0
H761 H 0.88007 0.08909 0.77841 0.0
C762 C 0.90907 0.09301 0.47755 0.0
C763 C 0.92353 0.10735 0.42511 0.0
C764 C 0.93671 0.12917 0.45083 0.0
C765 C 0.93611 0.13619 0.5287 0.0
C766 C 0.92182 0.12142 0.57935 0.0
C767 C 0.9082 0.10052 0.55429 0.0
C768 C 0.89341 0.08836 0.61885 0.0
C769 C 0.86461 0.08967 0.60329 0.0
C770 C 0.90218 0.06085 0.63249 0.0
C771 C 0.901 0.10544 0.68465 0.0
C772 C 0.91764 0.12425 0.66131 0.0
C773 C 0.92787 0.14165 0.71336 0.0
C774 C 0.92061 0.13992 0.79088 0.0
C775 C 0.90299 0.12126 0.81491 0.0
C776 C 0.89323 0.10381 0.76101 0.0
H777 H 0.32601 0.89886 0.22321 0.0
H778 H 0.39356 0.9365 0.31154 0.0
H779 H 0.40876 0.94298 0.17999 0.0
H780 H 0.3557 0.86665 0.06986 0.0
H781 H 0.32987 0.87094 1.00293 0.0
H782 H 0.32356 0.86995 0.10435 0.0
H783 H 0.30127 0.91374 0.09571 0.0
H784 H 0.30755 0.91489 0.99416 0.0
H785 H 0.31814 0.94038 0.05535 0.0
H786 H 0.41839 0.94283 0.04047 0.0
H787 H 0.42097 0.93708 0.89986 0.0
H788 H 0.34637 0.9022 0.89927 0.0
C789 C 0.34381 0.90878 0.21508 0.0
C790 C 0.35865 0.91685 0.27851 0.0
C791 C 0.38201 0.92954 0.26466 0.0
C792 C 0.39075 0.93358 0.18984 0.0
C793 C 0.37582 0.92516 0.12899 0.0
C794 C 0.35276 0.91321 0.1405 0.0
C795 C 0.34077 0.90552 0.06467 0.0
C796 C 0.33728 0.87655 0.06022 0.0
C797 C 0.31543 0.91947 0.05173 0.0
C798 C 0.36096 0.91464 0.00903 0.0
C799 C 0.381 0.92591 0.04758 0.0
C800 C 0.40267 0.93438 0.00948 0.0
C801 C 0.40402 0.93101 0.92992 0.0
C802 C 0.38376 0.91952 0.88925 0.0
C803 C 0.36181 0.91157 0.92916 0.0
loop_
_geom_bond_atom_site_label_1
_geom_bond_atom_site_label_2
_geom_bond_distance
_geom_bond_site_symmetry_2
_ccdc_geom_bond_type
C0 C1 1.351 . S
C0 N3 1.368 . S
C0 H5 0.931 . S
C1 C0 1.351 . S
C1 N2 1.373 . S
C1 H29 0.930 . S
N2 C1 1.373 . S
N2 C4 1.340 . S
N3 C0 1.368 . S
N3 C4 1.321 . S
N3 Co6 2.135 . S
C4 N2 1.340 . S
C4 N3 1.321 . S
C4 H28 0.930 . S
H5 C0 0.931 . S
Co6 N3 2.135 . S
Co6 N9 2.121 . S
Co6 O14 2.055 . S
Co6 O17 2.039 . S
Co6 N20 2.140 . S
C7 O8 1.227 . S
C7 O17 1.265 . S
O8 C7 1.227 . S
N9 Co6 2.121 . S
N9 C11 1.375 . S
N9 C12 1.313 . S
C10 C11 1.338 . S
C10 N13 1.377 . S
C10 H30 0.930 . S
C11 N9 1.375 . S
C11 C10 1.338 . S
C11 H15 0.931 . S
C12 N9 1.313 . S
C12 N13 1.344 . S
C12 H16 0.930 . S
N13 C10 1.377 . S
N13 C12 1.344 . S
O14 Co6 2.055 . S
O14 C18 1.253 . S
H15 C11 0.931 . S
H16 C12 0.930 . S
O17 Co6 2.039 . S
O17 C7 1.265 . S
C18 O14 1.253 . S
C18 O19 1.227 . S
O19 C18 1.227 . S
N20 Co6 2.140 . S
N20 C23 1.346 . S
N20 C24 1.345 . S
C21 C22 1.387 . S
C21 C25 1.391 . S
C22 C21 1.387 . S
C22 C23 1.369 . S
C22 H31 0.929 . S
C23 N20 1.346 . S
C23 C22 1.369 . S
C23 H26 0.928 . S
C24 N20 1.345 . S
C24 C25 1.371 . S
C24 H27 0.931 . S
C25 C21 1.391 . S
C25 C24 1.371 . S
C25 H32 0.930 . S
H26 C23 0.928 . S
H27 C24 0.931 . S
H28 C4 0.930 . S
H29 C1 0.930 . S
H30 C10 0.930 . S
H31 C22 0.929 . S
H32 C25 0.930 . S
C33 C34 1.351 . S
C33 N36 1.368 . S
C33 H38 0.931 . S
C34 C33 1.351 . S
C34 N35 1.373 . S
C34 H62 0.930 . S
N35 C34 1.373 . S
N35 C37 1.340 . S
N36 C33 1.368 . S
N36 C37 1.321 . S
N36 Co39 2.135 . S
C37 N35 1.340 . S
C37 N36 1.321 . S
C37 H61 0.930 . S
H38 C33 0.931 . S
Co39 N36 2.135 . S
Co39 N42 2.121 . S
Co39 O47 2.055 . S
Co39 O50 2.039 . S
Co39 N53 2.140 . S
C40 O41 1.227 . S
C40 O50 1.265 . S
O41 C40 1.227 . S
N42 Co39 2.121 . S
N42 C44 1.375 . S
N42 C45 1.313 . S
C43 C44 1.338 1_554 S
C43 N46 1.377 . S
C43 H63 0.930 . S
C44 N42 1.375 . S
C44 C43 1.338 1_556 S
C44 H48 0.931 . S
C45 N42 1.313 . S
C45 N46 1.344 1_556 S
C45 H49 0.930 . S
N46 C43 1.377 . S
N46 C45 1.344 1_554 S
O47 Co39 2.055 . S
O47 C51 1.253 . S
H48 C44 0.931 . S
H49 C45 0.930 . S
O50 Co39 2.039 . S
O50 C40 1.265 . S
C51 O47 1.253 . S
C51 O52 1.227 . S
O52 C51 1.227 . S
N53 Co39 2.140 . S
N53 C56 1.346 . S
N53 C57 1.345 . S
C54 C55 1.387 . S
C54 C58 1.391 . S
C55 C54 1.387 . S
C55 C56 1.369 . S
C55 H64 0.929 . S
C56 N53 1.346 . S
C56 C55 1.369 . S
C56 H59 0.928 . S
C57 N53 1.345 . S
C57 C58 1.371 . S
C57 H60 0.931 . S
C58 C54 1.391 . S
C58 C57 1.371 . S
C58 H65 0.930 . S
H59 C56 0.928 . S
H60 C57 0.931 . S
H61 C37 0.930 . S
H62 C34 0.930 . S
H63 C43 0.930 . S
H64 C55 0.929 . S
H65 C58 0.930 . S
C66 C67 1.351 . S
C66 N69 1.368 . S
C66 H71 0.931 . S
C67 C66 1.351 . S
C67 N68 1.373 . S
C67 H95 0.930 . S
N68 C67 1.373 . S
N68 C70 1.340 . S
N69 C66 1.368 . S
N69 C70 1.321 . S
N69 Co72 2.135 . S
C70 N68 1.340 . S
C70 N69 1.321 . S
C70 H94 0.930 . S
H71 C66 0.931 . S
Co72 N69 2.135 . S
Co72 N75 2.121 . S
Co72 O80 2.055 . S
Co72 O83 2.039 . S
Co72 N86 2.140 . S
C73 O74 1.227 . S
C73 O83 1.265 . S
O74 C73 1.227 . S
N75 Co72 2.121 . S
N75 C77 1.375 . S
N75 C78 1.313 . S
C76 C77 1.338 . S
C76 N79 1.377 . S
C76 H96 0.930 . S
C77 N75 1.375 . S
C77 C76 1.338 . S
C77 H81 0.931 . S
C78 N75 1.313 . S
C78 N79 1.344 . S
C78 H82 0.930 . S
N79 C76 1.377 . S
N79 C78 1.344 . S
O80 Co72 2.055 . S
O80 C84 1.253 . S
H81 C77 0.931 . S
H82 C78 0.930 . S
O83 Co72 2.039 . S
O83 C73 1.265 . S
C84 O80 1.253 . S
C84 O85 1.227 . S
O85 C84 1.227 . S
N86 Co72 2.140 . S
N86 C89 1.346 . S
N86 C90 1.345 . S
C87 C88 1.387 . S
C87 C91 1.391 . S
C88 C87 1.387 . S
C88 C89 1.369 . S
C88 H97 0.929 . S
C89 N86 1.346 . S
C89 C88 1.369 . S
C89 H92 0.928 . S
C90 N86 1.345 . S
C90 C91 1.371 . S
C90 H93 0.931 . S
C91 C87 1.391 . S
C91 C90 1.371 . S
C91 H98 0.930 . S
H92 C89 0.928 . S
H93 C90 0.931 . S
H94 C70 0.930 . S
H95 C67 0.930 . S
H96 C76 0.930 . S
H97 C88 0.929 . S
H98 C91 0.930 . S
C99 C100 1.351 . S
C99 N102 1.368 . S
C99 H104 0.931 . S
C100 C99 1.351 . S
C100 N101 1.373 . S
C100 H128 0.930 . S
N101 C100 1.373 . S
N101 C103 1.340 . S
N102 C99 1.368 . S
N102 C103 1.321 . S
N102 Co105 2.135 . S
C103 N101 1.340 . S
C103 N102 1.321 . S
C103 H127 0.930 . S
H104 C99 0.931 . S
Co105 N102 2.135 . S
Co105 N108 2.121 . S
Co105 O113 2.055 . S
Co105 O116 2.039 . S
Co105 N119 2.140 . S
C106 O107 1.227 . S
C106 O116 1.265 . S
O107 C106 1.227 . S
N108 Co105 2.121 . S
N108 C110 1.375 . S
N108 C111 1.313 . S
C109 C110 1.338 1_554 S
C109 N112 1.377 . S
C109 H129 0.930 . S
C110 N108 1.375 . S
C110 C109 1.338 1_556 S
C110 H114 0.931 . S
C111 N108 1.313 . S
C111 N112 1.344 1_556 S
C111 H115 0.930 . S
N112 C109 1.377 . S
N112 C111 1.344 1_554 S
O113 Co105 2.055 . S
O113 C117 1.253 . S
H114 C110 0.931 . S
H115 C111 0.930 . S
O116 Co105 2.039 . S
O116 C106 1.265 . S
C117 O113 1.253 . S
C117 O118 1.227 . S
O118 C117 1.227 . S
N119 Co105 2.140 . S
N119 C122 1.346 . S
N119 C123 1.345 . S
C120 C121 1.387 . S
C120 C124 1.391 . S
C121 C120 1.387 . S
C121 C122 1.369 . S
C121 H130 0.929 . S
C122 N119 1.346 . S
C122 C121 1.369 . S
C122 H125 0.928 . S
C123 N119 1.345 . S
C123 C124 1.371 . S
C123 H126 0.931 . S
C124 C120 1.391 . S
C124 C123 1.371 . S
C124 H131 0.930 . S
H125 C122 0.928 . S
H126 C123 0.931 . S
H127 C103 0.930 . S
H128 C100 0.930 . S
H129 C109 0.930 . S
H130 C121 0.929 . S
H131 C124 0.930 . S
C132 C133 1.351 . S
C132 N135 1.368 . S
C132 H137 0.931 . S
C133 C132 1.351 . S
C133 N134 1.373 . S
C133 H161 0.930 . S
N134 C133 1.373 . S
N134 C136 1.340 . S
N135 C132 1.368 . S
N135 C136 1.321 . S
N135 Co138 2.135 . S
C136 N134 1.340 . S
C136 N135 1.321 . S
C136 H160 0.930 . S
H137 C132 0.931 . S
Co138 N135 2.135 . S
Co138 N141 2.121 . S
Co138 O146 2.055 . S
Co138 O149 2.039 . S
Co138 N152 2.140 . S
C139 O140 1.227 . S
C139 O149 1.265 . S
O140 C139 1.227 . S
N141 Co138 2.121 . S
N141 C143 1.375 . S
N141 C144 1.313 . S
C142 C143 1.338 1_556 S
C142 N145 1.377 . S
C142 H162 0.930 . S
C143 N141 1.375 . S
C143 C142 1.338 1_554 S
C143 H147 0.931 . S
C144 N141 1.313 . S
C144 N145 1.344 1_554 S
C144 H148 0.930 . S
N145 C142 1.377 . S
N145 C144 1.344 1_556 S
O146 Co138 2.055 . S
O146 C150 1.253 . S
H147 C143 0.931 . S
H148 C144 0.930 . S
O149 Co138 2.039 . S
O149 C139 1.265 . S
C150 O146 1.253 . S
C150 O151 1.227 . S
O151 C150 1.227 . S
N152 Co138 2.140 . S
N152 C155 1.346 . S
N152 C156 1.345 . S
C153 C154 1.387 . S
C153 C157 1.391 . S
C154 C153 1.387 . S
C154 C155 1.369 . S
C154 H163 0.929 . S
C155 N152 1.346 . S
C155 C154 1.369 . S
C155 H158 0.928 . S
C156 N152 1.345 . S
C156 C157 1.371 . S
C156 H159 0.931 . S
C157 C153 1.391 . S
C157 C156 1.371 . S
C157 H164 0.930 . S
H158 C155 0.928 . S
H159 C156 0.931 . S
H160 C136 0.930 . S
H161 C133 0.930 . S
H162 C142 0.930 . S
H163 C154 0.929 . S
H164 C157 0.930 . S
C165 C166 1.351 . S
C165 N168 1.368 . S
C165 H170 0.931 . S
C166 C165 1.351 . S
C166 N167 1.373 . S
C166 H194 0.930 . S
N167 C166 1.373 . S
N167 C169 1.340 . S
N168 C165 1.368 . S
N168 C169 1.321 . S
N168 Co171 2.135 . S
C169 N167 1.340 . S
C169 N168 1.321 . S
C169 H193 0.930 . S
H170 C165 0.931 . S
Co171 N168 2.135 . S
Co171 N174 2.121 . S
Co171 O179 2.055 . S
Co171 O182 2.039 . S
Co171 N185 2.140 . S
C172 O173 1.227 . S
C172 O182 1.265 . S
O173 C172 1.227 . S
N174 Co171 2.121 . S
N174 C176 1.375 . S
N174 C177 1.313 . S
C175 C176 1.338 . S
C175 N178 1.377 . S
C175 H195 0.930 . S
C176 N174 1.375 . S
C176 C175 1.338 . S
C176 H180 0.931 . S
C177 N174 1.313 . S
C177 N178 1.344 . S
C177 H181 0.930 . S
N178 C175 1.377 . S
N178 C177 1.344 . S
O179 Co171 2.055 . S
O179 C183 1.253 . S
H180 C176 0.931 . S
H181 C177 0.930 . S
O182 Co171 2.039 . S
O182 C172 1.265 . S
C183 O179 1.253 . S
C183 O184 1.227 . S
O184 C183 1.227 . S
N185 Co171 2.140 . S
N185 C188 1.346 . S
N185 C189 1.345 . S
C186 C187 1.387 . S
C186 C190 1.391 . S
C187 C186 1.387 . S
C187 C188 1.369 . S
C187 H196 0.929 . S
C188 N185 1.346 . S
C188 C187 1.369 . S
C188 H191 0.928 . S
C189 N185 1.345 . S
C189 C190 1.371 . S
C189 H192 0.931 . S
C190 C186 1.391 . S
C190 C189 1.371 . S
C190 H197 0.930 . S
H191 C188 0.928 . S
H192 C189 0.931 . S
H193 C169 0.930 . S
H194 C166 0.930 . S
H195 C175 0.930 . S
H196 C187 0.929 . S
H197 C190 0.930 . S
C198 C199 1.351 . S
C198 N201 1.368 . S
C198 H203 0.931 . S
C199 C198 1.351 . S
C199 N200 1.373 . S
C199 H227 0.930 . S
N200 C199 1.373 . S
N200 C202 1.340 . S
N201 C198 1.368 . S
N201 C202 1.321 . S
N201 Co204 2.135 . S
C202 N200 1.340 . S
C202 N201 1.321 . S
C202 H226 0.930 . S
H203 C198 0.931 . S
Co204 N201 2.135 . S
Co204 N207 2.121 . S
Co204 O212 2.055 . S
Co204 O215 2.039 . S
Co204 N218 2.140 . S
C205 O206 1.227 . S
C205 O215 1.265 . S
O206 C205 1.227 . S
N207 Co204 2.121 . S
N207 C209 1.375 . S
N207 C210 1.313 . S
C208 C209 1.338 1_556 S
C208 N211 1.377 . S
C208 H228 0.930 . S
C209 N207 1.375 . S
C209 C208 1.338 1_554 S
C209 H213 0.931 . S
C210 N207 1.313 . S
C210 N211 1.344 1_554 S
C210 H214 0.930 . S
N211 C208 1.377 . S
N211 C210 1.344 1_556 S
O212 Co204 2.055 . S
O212 C216 1.253 . S
H213 C209 0.931 . S
H214 C210 0.930 . S
O215 Co204 2.039 . S
O215 C205 1.265 . S
C216 O212 1.253 . S
C216 O217 1.227 . S
O217 C216 1.227 . S
N218 Co204 2.140 . S
N218 C221 1.346 . S
N218 C222 1.345 . S
C219 C220 1.387 . S
C219 C223 1.391 . S
C220 C219 1.387 . S
C220 C221 1.369 . S
C220 H229 0.929 . S
C221 N218 1.346 . S
C221 C220 1.369 . S
C221 H224 0.928 . S
C222 N218 1.345 . S
C222 C223 1.371 . S
C222 H225 0.931 . S
C223 C219 1.391 . S
C223 C222 1.371 . S
C223 H230 0.930 . S
H224 C221 0.928 . S
H225 C222 0.931 . S
H226 C202 0.930 . S
H227 C199 0.930 . S
H228 C208 0.930 . S
H229 C220 0.929 . S
H230 C223 0.930 . S
C231 C232 1.351 . S
C231 N234 1.368 . S
C231 H236 0.931 . S
C232 C231 1.351 . S
C232 N233 1.373 . S
C232 H260 0.930 . S
N233 C232 1.373 . S
N233 C235 1.340 . S
N234 C231 1.368 . S
N234 C235 1.321 . S
N234 Co237 2.135 . S
C235 N233 1.340 . S
C235 N234 1.321 . S
C235 H259 0.930 . S
H236 C231 0.931 . S
Co237 N234 2.135 . S
Co237 N240 2.121 . S
Co237 O245 2.055 . S
Co237 O248 2.039 . S
Co237 N251 2.140 . S
C238 O239 1.227 . S
C238 O248 1.265 . S
O239 C238 1.227 . S
N240 Co237 2.121 . S
N240 C242 1.375 . S
N240 C243 1.313 . S
C241 C242 1.338 . S
C241 N244 1.377 . S
C241 H261 0.930 . S
C242 N240 1.375 . S
C242 C241 1.338 . S
C242 H246 0.931 . S
C243 N240 1.313 . S
C243 N244 1.344 . S
C243 H247 0.930 . S
N244 C241 1.377 . S
N244 C243 1.344 . S
O245 Co237 2.055 . S
O245 C249 1.253 . S
H246 C242 0.931 . S
H247 C243 0.930 . S
O248 Co237 2.039 . S
O248 C238 1.265 . S
C249 O245 1.253 . S
C249 O250 1.227 . S
O250 C249 1.227 . S
N251 Co237 2.140 . S
N251 C254 1.346 . S
N251 C255 1.345 . S
C252 C253 1.387 . S
C252 C256 1.391 . S
C253 C252 1.387 . S
C253 C254 1.369 . S
C253 H262 0.929 . S
C254 N251 1.346 . S
C254 C253 1.369 . S
C254 H257 0.928 . S
C255 N251 1.345 . S
C255 C256 1.371 . S
C255 H258 0.931 . S
C256 C252 1.391 . S
C256 C255 1.371 . S
C256 H263 0.930 . S
H257 C254 0.928 . S
H258 C255 0.931 . S
H259 C235 0.930 . S
H260 C232 0.930 . S
H261 C241 0.930 . S
H262 C253 0.929 . S
H263 C256 0.930 . S
H264 C276 0.930 . S
H265 C278 0.930 . S
H266 C279 0.930 . S
H267 C283 0.969 . S
H268 C283 0.950 1_545 S
H269 C283 0.965 . S
H270 C284 0.960 . S
H271 C284 0.961 . S
H272 C284 0.959 . S
H273 C287 0.929 . S
H274 C288 0.931 . S
H275 C290 0.930 . S
C276 H264 0.930 . S
C276 C277 1.399 . S
C276 C281 1.399 . S
C277 C276 1.399 . S
C277 C278 1.376 . S
C278 H265 0.930 . S
C278 C277 1.376 . S
C278 C279 1.388 . S
C279 H266 0.930 . S
C279 C278 1.388 . S
C279 C280 1.390 . S
C280 C279 1.390 . S
C280 C281 1.394 . S
C280 C286 1.465 1_565 S
C281 C276 1.399 . S
C281 C280 1.394 . S
C281 C282 1.516 1_565 S
C282 C281 1.516 1_545 S
C282 C283 1.497 1_545 S
C282 C284 1.561 . S
C282 C285 1.526 . S
C283 H267 0.969 . S
C283 H268 0.950 1_565 S
C283 H269 0.965 . S
C283 C282 1.497 1_565 S
C284 H270 0.960 . S
C284 H271 0.961 . S
C284 H272 0.959 . S
C284 C282 1.561 . S
C285 C282 1.526 . S
C285 C286 1.396 . S
C285 C290 1.390 . S
C286 C280 1.465 1_545 S
C286 C285 1.396 . S
C286 C287 1.399 . S
C287 H273 0.929 . S
C287 C286 1.399 . S
C287 C288 1.385 . S
C288 H274 0.931 . S
C288 C287 1.385 . S
C288 C289 1.389 . S
C289 C288 1.389 . S
C289 C290 1.387 . S
C290 H275 0.930 . S
C290 C285 1.390 . S
C290 C289 1.387 . S
H291 C303 0.930 . S
H292 C305 0.930 . S
H293 C306 0.930 . S
H294 C310 0.959 . S
H295 C310 0.959 . S
H296 C310 0.961 . S
H297 C311 0.960 . S
H298 C311 0.961 . S
H299 C311 0.959 . S
H300 C314 0.929 . S
H301 C315 0.931 . S
H302 C317 0.930 . S
C303 H291 0.930 . S
C303 C304 1.399 . S
C303 C308 1.399 . S
C304 C303 1.399 . S
C304 C305 1.376 . S
C305 H292 0.930 . S
C305 C304 1.376 . S
C305 C306 1.388 . S
C306 H293 0.930 . S
C306 C305 1.388 . S
C306 C307 1.390 . S
C307 C306 1.390 . S
C307 C308 1.394 . S
C307 C313 1.465 . S
C308 C303 1.399 . S
C308 C307 1.394 . S
C308 C309 1.516 1_554 S
C309 C308 1.516 1_556 S
C309 C310 1.502 . S
C309 C311 1.561 . S
C309 C312 1.526 . S
C310 H294 0.959 . S
C310 H295 0.959 . S
C310 H296 0.961 . S
C310 C309 1.502 . S
C311 H297 0.960 . S
C311 H298 0.961 . S
C311 H299 0.959 . S
C311 C309 1.561 . S
C312 C309 1.526 . S
C312 C313 1.396 1_556 S
C312 C317 1.390 . S
C313 C307 1.465 . S
C313 C312 1.396 1_554 S
C313 C314 1.399 . S
C314 H300 0.929 . S
C314 C313 1.399 . S
C314 C315 1.385 1_554 S
C315 H301 0.931 . S
C315 C314 1.385 1_556 S
C315 C316 1.389 . S
C316 C315 1.389 . S
C316 C317 1.387 . S
C317 H302 0.930 . S
C317 C312 1.390 . S
C317 C316 1.387 . S
H318 C330 0.930 . S
H319 C332 0.930 . S
H320 C333 0.930 . S
H321 C337 0.959 . S
H322 C337 0.959 . S
H323 C337 0.961 . S
H324 C338 0.960 . S
H325 C338 0.961 . S
H326 C338 0.959 . S
H327 C341 0.929 . S
H328 C342 0.931 . S
H329 C344 0.930 . S
C330 H318 0.930 . S
C330 C331 1.399 . S
C330 C335 1.399 . S
C331 C330 1.399 . S
C331 C332 1.376 . S
C332 H319 0.930 . S
C332 C331 1.376 . S
C332 C333 1.388 . S
C333 H320 0.930 . S
C333 C332 1.388 . S
C333 C334 1.390 . S
C334 C333 1.390 . S
C334 C335 1.394 . S
C334 C340 1.484 . S
C335 C330 1.399 . S
C335 C334 1.394 . S
C335 C336 1.516 1_655 S
C336 C335 1.516 1_455 S
C336 C337 1.502 . S
C336 C338 1.561 . S
C336 C339 1.526 . S
C337 H321 0.959 . S
C337 H322 0.959 . S
C337 H323 0.961 . S
C337 C336 1.502 . S
C338 H324 0.960 . S
C338 H325 0.961 . S
C338 H326 0.959 . S
C338 C336 1.561 . S
C339 C336 1.526 . S
C339 C340 1.369 1_455 S
C339 C344 1.390 . S
C340 C334 1.484 . S
C340 C339 1.369 1_655 S
C340 C341 1.404 . S
C341 H327 0.929 . S
C341 C340 1.404 . S
C341 C342 1.385 1_655 S
C342 H328 0.931 . S
C342 C341 1.385 1_455 S
C342 C343 1.389 . S
C343 C342 1.389 . S
C343 C344 1.387 . S
C344 H329 0.930 . S
C344 C339 1.390 . S
C344 C343 1.387 . S
H345 C357 0.930 . S
H346 C359 0.930 . S
H347 C360 0.930 . S
H348 C364 0.959 . S
H349 C364 0.959 . S
H350 C364 0.961 . S
H351 C365 0.960 . S
H352 C365 0.961 . S
H353 C365 0.959 . S
H354 C368 0.929 . S
H355 C369 0.931 . S
H356 C371 0.930 . S
C357 H345 0.930 . S
C357 C358 1.399 . S
C357 C362 1.399 . S
C358 C357 1.399 . S
C358 C359 1.376 . S
C359 H346 0.930 . S
C359 C358 1.376 . S
C359 C360 1.388 1_554 S
C360 H347 0.930 . S
C360 C359 1.388 1_556 S
C360 C361 1.390 1_556 S
C361 C360 1.390 1_554 S
C361 C362 1.394 . S
C361 C367 1.465 1_544 S
C362 C357 1.399 . S
C362 C361 1.394 . S
C362 C363 1.516 1_645 S
C363 C362 1.516 1_465 S
C363 C364 1.502 1_565 S
C363 C365 1.561 . S
C363 C366 1.526 1_554 S
C364 H348 0.959 . S
C364 H349 0.959 . S
C364 H350 0.961 . S
C364 C363 1.502 1_545 S
C365 H351 0.960 . S
C365 H352 0.961 . S
C365 H353 0.959 . S
C365 C363 1.561 . S
C366 C363 1.526 1_556 S
C366 C367 1.396 1_455 S
C366 C371 1.390 . S
C367 C361 1.465 1_566 S
C367 C366 1.396 1_655 S
C367 C368 1.399 . S
C368 H354 0.929 . S
C368 C367 1.399 . S
C368 C369 1.385 1_655 S
C369 H355 0.931 . S
C369 C368 1.385 1_455 S
C369 C370 1.389 . S
C370 C369 1.389 . S
C370 C371 1.387 . S
C371 H356 0.930 . S
C371 C366 1.390 . S
C371 C370 1.387 . S
H372 C384 0.930 . S
H373 C386 0.930 . S
H374 C387 0.930 . S
H375 C391 0.959 . S
H376 C391 0.959 . S
H377 C391 0.961 . S
H378 C392 0.960 . S
H379 C392 0.961 . S
H380 C392 0.959 . S
H381 C395 0.929 . S
H382 C396 0.931 . S
H383 C398 0.930 . S
C384 H372 0.930 . S
C384 C385 1.399 . S
C384 C389 1.399 . S
C385 C384 1.399 . S
C385 C386 1.376 . S
C386 H373 0.930 . S
C386 C385 1.376 . S
C386 C387 1.388 . S
C387 H374 0.930 . S
C387 C386 1.388 . S
C387 C388 1.390 . S
C388 C387 1.390 . S
C388 C389 1.394 . S
C388 C394 1.465 . S
C389 C384 1.399 . S
C389 C388 1.394 . S
C389 C390 1.516 . S
C390 C389 1.516 . S
C390 C391 1.502 . S
C390 C392 1.561 . S
C390 C393 1.526 . S
C391 H375 0.959 . S
C391 H376 0.959 . S
C391 H377 0.961 . S
C391 C390 1.502 . S
C392 H378 0.960 . S
C392 H379 0.961 . S
C392 H380 0.959 . S
C392 C390 1.561 . S
C393 C390 1.526 . S
C393 C394 1.396 . S
C393 C398 1.390 . S
C394 C388 1.465 . S
C394 C393 1.396 . S
C394 C395 1.399 . S
C395 H381 0.929 . S
C395 C394 1.399 . S
C395 C396 1.385 . S
C396 H382 0.931 . S
C396 C395 1.385 . S
C396 C397 1.389 . S
C397 C396 1.389 . S
C397 C398 1.387 . S
C398 H383 0.930 . S
C398 C393 1.390 . S
C398 C397 1.387 . S
H399 C411 0.930 . S
H400 C413 0.930 . S
H401 C414 0.930 . S
H402 C418 0.959 . S
H403 C418 0.959 . S
H404 C418 0.961 . S
H405 C419 0.960 . S
H406 C419 0.961 . S
H407 C419 0.959 . S
H408 C422 0.929 . S
H409 C423 0.931 . S
H410 C425 0.930 . S
C411 H399 0.930 . S
C411 C412 1.399 . S
C411 C416 1.399 . S
C412 C411 1.399 . S
C412 C413 1.376 . S
C413 H400 0.930 . S
C413 C412 1.376 . S
C413 C414 1.388 . S
C414 H401 0.930 . S
C414 C413 1.388 . S
C414 C415 1.390 . S
C415 C414 1.390 . S
C415 C416 1.394 . S
C415 C421 1.465 . S
C416 C411 1.399 . S
C416 C415 1.394 . S
C416 C417 1.516 . S
C417 C416 1.516 . S
C417 C418 1.502 . S
C417 C419 1.561 . S
C417 C420 1.526 . S
C418 H402 0.959 . S
C418 H403 0.959 . S
C418 H404 0.961 . S
C418 C417 1.502 . S
C419 H405 0.960 . S
C419 H406 0.961 . S
C419 H407 0.959 . S
C419 C417 1.561 . S
C420 C417 1.526 . S
C420 C421 1.396 . S
C420 C425 1.390 . S
C421 C415 1.465 . S
C421 C420 1.396 . S
C421 C422 1.399 . S
C422 H408 0.929 . S
C422 C421 1.399 . S
C422 C423 1.385 . S
C423 H409 0.931 . S
C423 C422 1.385 . S
C423 C424 1.389 . S
C424 C423 1.389 . S
C424 C425 1.387 . S
C425 H410 0.930 . S
C425 C420 1.390 . S
C425 C424 1.387 . S
H426 C438 0.930 . S
H427 C440 0.930 . S
H428 C441 0.930 . S
H429 C445 0.959 . S
H430 C445 0.959 . S
H431 C445 0.961 . S
H432 C446 0.960 . S
H433 C446 0.961 . S
H434 C446 0.959 . S
H435 C449 0.929 . S
H436 C450 0.931 . S
H437 C452 0.930 . S
C438 H426 0.930 . S
C438 C439 1.399 . S
C438 C443 1.399 . S
C439 C438 1.399 . S
C439 C440 1.376 . S
C440 H427 0.930 . S
C440 C439 1.376 . S
C440 C441 1.388 . S
C441 H428 0.930 . S
C441 C440 1.388 . S
C441 C442 1.390 . S
C442 C441 1.390 . S
C442 C443 1.394 . S
C442 C448 1.465 . S
C443 C438 1.399 . S
C443 C442 1.394 . S
C443 C444 1.516 . S
C444 C443 1.516 . S
C444 C445 1.502 . S
C444 C446 1.561 . S
C444 C447 1.526 . S
C445 H429 0.959 . S
C445 H430 0.959 . S
C445 H431 0.961 . S
C445 C444 1.502 . S
C446 H432 0.960 . S
C446 H433 0.961 . S
C446 H434 0.959 . S
C446 C444 1.561 . S
C447 C444 1.526 . S
C447 C448 1.396 . S
C447 C452 1.390 . S
C448 C442 1.465 . S
C448 C447 1.396 . S
C448 C449 1.399 . S
C449 H435 0.929 . S
C449 C448 1.399 . S
C449 C450 1.385 . S
C450 H436 0.931 . S
C450 C449 1.385 . S
C450 C451 1.389 . S
C451 C450 1.389 . S
C451 C452 1.387 . S
C452 H437 0.930 . S
C452 C447 1.390 . S
C452 C451 1.387 . S
H453 C465 0.930 . S
H454 C467 0.930 . S
H455 C468 0.930 . S
H456 C472 0.959 . S
H457 C472 0.959 . S
H458 C472 0.961 . S
H459 C473 0.960 . S
H460 C473 0.961 . S
H461 C473 0.959 . S
H462 C476 0.929 . S
H463 C477 0.931 . S
H464 C479 0.930 . S
C465 H453 0.930 . S
C465 C466 1.399 . S
C465 C470 1.399 . S
C466 C465 1.399 . S
C466 C467 1.376 . S
C467 H454 0.930 . S
C467 C466 1.376 . S
C467 C468 1.388 . S
C468 H455 0.930 . S
C468 C467 1.388 . S
C468 C469 1.390 . S
C469 C468 1.390 . S
C469 C470 1.394 . S
C469 C475 1.465 . S
C470 C465 1.399 . S
C470 C469 1.394 . S
C470 C471 1.516 . S
C471 C470 1.516 . S
C471 C472 1.502 . S
C471 C473 1.561 . S
C471 C474 1.526 . S
C472 H456 0.959 . S
C472 H457 0.959 . S
C472 H458 0.961 . S
C472 C471 1.502 . S
C473 H459 0.960 . S
C473 H460 0.961 . S
C473 H461 0.959 . S
C473 C471 1.561 . S
C474 C471 1.526 . S
C474 C475 1.396 . S
C474 C479 1.390 . S
C475 C469 1.465 . S
C475 C474 1.396 . S
C475 C476 1.399 . S
C476 H462 0.929 . S
C476 C475 1.399 . S
C476 C477 1.385 . S
C477 H463 0.931 . S
C477 C476 1.385 . S
C477 C478 1.389 . S
C478 C477 1.389 . S
C478 C479 1.387 . S
C479 H464 0.930 . S
C479 C474 1.390 . S
C479 C478 1.387 . S
H480 C492 0.930 . S
H481 C494 0.930 . S
H482 C495 0.930 . S
H483 C499 0.959 . S
H484 C499 0.959 . S
H485 C499 0.961 . S
H486 C500 0.960 . S
H487 C500 0.961 . S
H488 C500 0.959 . S
H489 C503 0.929 . S
H490 C504 0.931 . S
H491 C506 0.930 . S
C492 H480 0.930 . S
C492 C493 1.399 . S
C492 C497 1.399 . S
C493 C492 1.399 . S
C493 C494 1.376 . S
C494 H481 0.930 . S
C494 C493 1.376 . S
C494 C495 1.388 . S
C495 H482 0.930 . S
C495 C494 1.388 . S
C495 C496 1.390 . S
C496 C495 1.390 . S
C496 C497 1.394 . S
C496 C502 1.465 . S
C497 C492 1.399 . S
C497 C496 1.394 . S
C497 C498 1.516 . S
C498 C497 1.516 . S
C498 C499 1.502 . S
C498 C500 1.561 . S
C498 C501 1.526 . S
C499 H483 0.959 . S
C499 H484 0.959 . S
C499 H485 0.961 . S
C499 C498 1.502 . S
C500 H486 0.960 . S
C500 H487 0.961 . S
C500 H488 0.959 . S
C500 C498 1.561 . S
C501 C498 1.526 . S
C501 C502 1.396 . S
C501 C506 1.390 . S
C502 C496 1.465 . S
C502 C501 1.396 . S
C502 C503 1.399 . S
C503 H489 0.929 . S
C503 C502 1.399 . S
C503 C504 1.385 . S
C504 H490 0.931 . S
C504 C503 1.385 . S
C504 C505 1.389 . S
C505 C504 1.389 . S
C505 C506 1.387 . S
C506 H491 0.930 . S
C506 C501 1.390 . S
C506 C505 1.387 . S
H507 C519 0.930 . S
H508 C521 0.930 . S
H509 C522 0.930 . S
H510 C526 0.959 . S
H511 C526 0.959 . S
H512 C526 0.961 . S
H513 C527 0.960 . S
H514 C527 0.961 . S
H515 C527 0.959 . S
H516 C530 0.929 . S
H517 C531 0.931 . S
H518 C533 0.930 . S
C519 H507 0.930 . S
C519 C520 1.399 . S
C519 C524 1.399 . S
C520 C519 1.399 . S
C520 C521 1.376 . S
C521 H508 0.930 . S
C521 C520 1.376 . S
C521 C522 1.388 . S
C522 H509 0.930 . S
C522 C521 1.388 . S
C522 C523 1.390 . S
C523 C522 1.390 . S
C523 C524 1.394 . S
C523 C529 1.465 . S
C524 C519 1.399 . S
C524 C523 1.394 . S
C524 C525 1.516 . S
C525 C524 1.516 . S
C525 C526 1.502 . S
C525 C527 1.561 . S
C525 C528 1.526 . S
C526 H510 0.959 . S
C526 H511 0.959 . S
C526 H512 0.961 . S
C526 C525 1.502 . S
C527 H513 0.960 . S
C527 H514 0.961 . S
C527 H515 0.959 . S
C527 C525 1.561 . S
C528 C525 1.526 . S
C528 C529 1.396 . S
C528 C533 1.390 . S
C529 C523 1.465 . S
C529 C528 1.396 . S
C529 C530 1.399 . S
C530 H516 0.929 . S
C530 C529 1.399 . S
C530 C531 1.385 . S
C531 H517 0.931 . S
C531 C530 1.385 . S
C531 C532 1.389 . S
C532 C531 1.389 . S
C532 C533 1.387 . S
C533 H518 0.930 . S
C533 C528 1.390 . S
C533 C532 1.387 . S
H534 C546 0.930 . S
H535 C548 0.930 . S
H536 C549 0.930 . S
H537 C553 0.959 . S
H538 C553 0.959 . S
H539 C553 0.961 . S
H540 C554 0.960 . S
H541 C554 0.961 . S
H542 C554 0.959 . S
H543 C557 0.929 . S
H544 C558 0.931 . S
H545 C560 0.930 . S
C546 H534 0.930 . S
C546 C547 1.399 . S
C546 C551 1.399 . S
C547 C546 1.399 . S
C547 C548 1.376 . S
C548 H535 0.930 . S
C548 C547 1.376 . S
C548 C549 1.388 . S
C549 H536 0.930 . S
C549 C548 1.388 . S
C549 C550 1.390 . S
C550 C549 1.390 . S
C550 C551 1.394 . S
C550 C556 1.465 . S
C551 C546 1.399 . S
C551 C550 1.394 . S
C551 C552 1.516 . S
C552 C551 1.516 . S
C552 C553 1.502 . S
C552 C554 1.561 . S
C552 C555 1.526 . S
C553 H537 0.959 . S
C553 H538 0.959 . S
C553 H539 0.961 . S
C553 C552 1.502 . S
C554 H540 0.960 . S
C554 H541 0.961 . S
C554 H542 0.959 . S
C554 C552 1.561 . S
C555 C552 1.526 . S
C555 C556 1.396 . S
C555 C560 1.390 . S
C556 C550 1.465 . S
C556 C555 1.396 . S
C556 C557 1.399 . S
C557 H543 0.929 . S
C557 C556 1.399 . S
C557 C558 1.385 . S
C558 H544 0.931 . S
C558 C557 1.385 . S
C558 C559 1.389 . S
C559 C558 1.389 . S
C559 C560 1.387 . S
C560 H545 0.930 . S
C560 C555 1.390 . S
C560 C559 1.387 . S
H561 C573 0.930 . S
H562 C575 0.930 . S
H563 C576 0.930 . S
H564 C580 0.959 . S
H565 C580 0.959 . S
H566 C580 0.961 . S
H567 C581 0.960 . S
H568 C581 0.961 . S
H569 C581 0.959 . S
H570 C584 0.929 . S
H571 C585 0.931 . S
H572 C587 0.930 . S
C573 H561 0.930 . S
C573 C574 1.399 . S
C573 C578 1.399 . S
C574 C573 1.399 . S
C574 C575 1.376 . S
C575 H562 0.930 . S
C575 C574 1.376 . S
C575 C576 1.388 . S
C576 H563 0.930 . S
C576 C575 1.388 . S
C576 C577 1.390 . S
C577 C576 1.390 . S
C577 C578 1.394 . S
C577 C583 1.465 . S
C578 C573 1.399 . S
C578 C577 1.394 . S
C578 C579 1.516 . S
C579 C578 1.516 . S
C579 C580 1.502 . S
C579 C581 1.561 . S
C579 C582 1.526 . S
C580 H564 0.959 . S
C580 H565 0.959 . S
C580 H566 0.961 . S
C580 C579 1.502 . S
C581 H567 0.960 . S
C581 H568 0.961 . S
C581 H569 0.959 . S
C581 C579 1.561 . S
C582 C579 1.526 . S
C582 C583 1.396 . S
C582 C587 1.390 . S
C583 C577 1.465 . S
C583 C582 1.396 . S
C583 C584 1.399 . S
C584 H570 0.929 . S
C584 C583 1.399 . S
C584 C585 1.385 . S
C585 H571 0.931 . S
C585 C584 1.385 . S
C585 C586 1.389 . S
C586 C585 1.389 . S
C586 C587 1.387 . S
C587 H572 0.930 . S
C587 C582 1.390 . S
C587 C586 1.387 . S
H588 C600 0.930 . S
H589 C602 0.930 . S
H590 C603 0.930 . S
H591 C607 0.959 . S
H592 C607 0.959 . S
H593 C607 0.961 . S
H594 C608 0.960 . S
H595 C608 0.961 . S
H596 C608 0.959 . S
H597 C611 0.929 . S
H598 C612 0.931 1_554 S
H599 C614 0.930 . S
C600 H588 0.930 . S
C600 C601 1.399 . S
C600 C605 1.399 . S
C601 C600 1.399 . S
C601 C602 1.376 . S
C602 H589 0.930 . S
C602 C601 1.376 . S
C602 C603 1.388 . S
C603 H590 0.930 . S
C603 C602 1.388 . S
C603 C604 1.390 . S
C604 C603 1.390 . S
C604 C605 1.394 . S
C604 C610 1.465 . S
C605 C600 1.399 . S
C605 C604 1.394 . S
C605 C606 1.516 . S
C606 C605 1.516 . S
C606 C607 1.502 . S
C606 C608 1.561 . S
C606 C609 1.526 . S
C607 H591 0.959 . S
C607 H592 0.959 . S
C607 H593 0.961 . S
C607 C606 1.502 . S
C608 H594 0.960 . S
C608 H595 0.961 . S
C608 H596 0.959 . S
C608 C606 1.561 . S
C609 C606 1.526 . S
C609 C610 1.396 . S
C609 C614 1.390 . S
C610 C604 1.465 . S
C610 C609 1.396 . S
C610 C611 1.399 . S
C611 H597 0.929 . S
C611 C610 1.399 . S
C611 C612 1.385 . S
C612 H598 0.931 1_556 S
C612 C611 1.385 . S
C612 C613 1.389 1_556 S
C613 C612 1.389 1_554 S
C613 C614 1.387 1_554 S
C614 H599 0.930 . S
C614 C609 1.390 . S
C614 C613 1.387 1_556 S
H615 C627 0.930 . S
H616 C629 0.930 . S
H617 C630 0.930 . S
H618 C634 0.959 . S
H619 C634 0.959 . S
H620 C634 0.961 . S
H621 C635 0.960 . S
H622 C635 0.961 . S
H623 C635 0.959 . S
H624 C638 0.929 . S
H625 C639 0.931 . S
H626 C641 0.930 . S
C627 H615 0.930 . S
C627 C628 1.399 . S
C627 C632 1.399 . S
C628 C627 1.399 . S
C628 C629 1.376 . S
C629 H616 0.930 . S
C629 C628 1.376 . S
C629 C630 1.388 . S
C630 H617 0.930 . S
C630 C629 1.388 . S
C630 C631 1.390 . S
C631 C630 1.390 . S
C631 C632 1.394 . S
C631 C637 1.465 . S
C632 C627 1.399 . S
C632 C631 1.394 . S
C632 C633 1.516 . S
C633 C632 1.516 . S
C633 C634 1.502 . S
C633 C635 1.561 . S
C633 C636 1.526 . S
C634 H618 0.959 . S
C634 H619 0.959 . S
C634 H620 0.961 . S
C634 C633 1.502 . S
C635 H621 0.960 . S
C635 H622 0.961 . S
C635 H623 0.959 . S
C635 C633 1.561 . S
C636 C633 1.526 . S
C636 C637 1.396 . S
C636 C641 1.390 . S
C637 C631 1.465 . S
C637 C636 1.396 . S
C637 C638 1.399 . S
C638 H624 0.929 . S
C638 C637 1.399 . S
C638 C639 1.385 . S
C639 H625 0.931 . S
C639 C638 1.385 . S
C639 C640 1.389 . S
C640 C639 1.389 . S
C640 C641 1.387 . S
C641 H626 0.930 . S
C641 C636 1.390 . S
C641 C640 1.387 . S
H642 C654 0.930 . S
H643 C656 0.930 1_554 S
H644 C657 0.930 . S
H645 C661 0.959 . S
H646 C661 0.959 . S
H647 C661 0.961 . S
H648 C662 0.960 . S
H649 C662 0.961 . S
H650 C662 0.959 . S
H651 C665 0.929 . S
H652 C666 0.931 . S
H653 C668 0.930 . S
C654 H642 0.930 . S
C654 C655 1.399 1_556 S
C654 C659 1.399 . S
C655 C654 1.399 1_554 S
C655 C656 1.376 1_554 S
C656 H643 0.930 1_556 S
C656 C655 1.376 1_556 S
C656 C657 1.388 . S
C657 H644 0.930 . S
C657 C656 1.388 . S
C657 C658 1.390 . S
C658 C657 1.390 . S
C658 C659 1.394 . S
C658 C664 1.465 . S
C659 C654 1.399 . S
C659 C658 1.394 . S
C659 C660 1.516 . S
C660 C659 1.516 . S
C660 C661 1.502 . S
C660 C662 1.561 . S
C660 C663 1.526 . S
C661 H645 0.959 . S
C661 H646 0.959 . S
C661 H647 0.961 . S
C661 C660 1.502 . S
C662 H648 0.960 . S
C662 H649 0.961 . S
C662 H650 0.959 . S
C662 C660 1.561 . S
C663 C660 1.526 . S
C663 C664 1.396 . S
C663 C668 1.390 . S
C664 C658 1.465 . S
C664 C663 1.396 . S
C664 C665 1.399 . S
C665 H651 0.929 . S
C665 C664 1.399 . S
C665 C666 1.385 . S
C666 H652 0.931 . S
C666 C665 1.385 . S
C666 C667 1.389 . S
C667 C666 1.389 . S
C667 C668 1.387 . S
C668 H653 0.930 . S
C668 C663 1.390 . S
C668 C667 1.387 . S
H669 C681 0.930 . S
H670 C683 0.930 . S
H671 C684 0.930 . S
H672 C688 0.959 . S
H673 C688 0.959 . S
H674 C688 0.961 . S
H675 C689 0.960 . S
H676 C689 0.961 . S
H677 C689 0.959 . S
H678 C692 0.929 . S
H679 C693 0.931 . S
H680 C695 0.930 . S
C681 H669 0.930 . S
C681 C682 1.399 . S
C681 C686 1.399 . S
C682 C681 1.399 . S
C682 C683 1.376 . S
C683 H670 0.930 . S
C683 C682 1.376 . S
C683 C684 1.388 . S
C684 H671 0.930 . S
C684 C683 1.388 . S
C684 C685 1.390 . S
C685 C684 1.390 . S
C685 C686 1.394 . S
C685 C691 1.465 . S
C686 C681 1.399 . S
C686 C685 1.394 . S
C686 C687 1.516 . S
C687 C686 1.516 . S
C687 C688 1.502 . S
C687 C689 1.561 . S
C687 C690 1.526 . S
C688 H672 0.959 . S
C688 H673 0.959 . S
C688 H674 0.961 . S
C688 C687 1.502 . S
C689 H675 0.960 . S
C689 H676 0.961 . S
C689 H677 0.959 . S
C689 C687 1.561 . S
C690 C687 1.526 . S
C690 C691 1.396 . S
C690 C695 1.390 . S
C691 C685 1.465 . S
C691 C690 1.396 . S
C691 C692 1.399 . S
C692 H678 0.929 . S
C692 C691 1.399 . S
C692 C693 1.385 . S
C693 H679 0.931 . S
C693 C692 1.385 . S
C693 C694 1.389 . S
C694 C693 1.389 . S
C694 C695 1.387 . S
C695 H680 0.930 . S
C695 C690 1.390 . S
C695 C694 1.387 . S
H696 C708 0.930 . S
H697 C710 0.930 . S
H698 C711 0.930 . S
H699 C715 0.959 . S
H700 C715 0.959 . S
H701 C715 0.961 . S
H702 C716 0.960 . S
H703 C716 0.961 . S
H704 C716 0.959 . S
H705 C719 0.929 . S
H706 C720 0.931 . S
H707 C722 0.930 . S
C708 H696 0.930 . S
C708 C709 1.399 . S
C708 C713 1.399 . S
C709 C708 1.399 . S
C709 C710 1.376 . S
C710 H697 0.930 . S
C710 C709 1.376 . S
C710 C711 1.388 . S
C711 H698 0.930 . S
C711 C710 1.388 . S
C711 C712 1.390 . S
C712 C711 1.390 . S
C712 C713 1.394 . S
C712 C718 1.465 . S
C713 C708 1.399 . S
C713 C712 1.394 . S
C713 C714 1.516 . S
C714 C713 1.516 . S
C714 C715 1.502 . S
C714 C716 1.561 . S
C714 C717 1.526 . S
C715 H699 0.959 . S
C715 H700 0.959 . S
C715 H701 0.961 . S
C715 C714 1.502 . S
C716 H702 0.960 . S
C716 H703 0.961 . S
C716 H704 0.959 . S
C716 C714 1.561 . S
C717 C714 1.526 . S
C717 C718 1.396 . S
C717 C722 1.390 . S
C718 C712 1.465 . S
C718 C717 1.396 . S
C718 C719 1.399 . S
C719 H705 0.929 . S
C719 C718 1.399 . S
C719 C720 1.385 . S
C720 H706 0.931 . S
C720 C719 1.385 . S
C720 C721 1.389 . S
C721 C720 1.389 . S
C721 C722 1.387 . S
C722 H707 0.930 . S
C722 C717 1.390 . S
C722 C721 1.387 . S
H723 C735 0.930 . S
H724 C737 0.930 1_556 S
H725 C738 0.930 . S
H726 C742 0.959 . S
H727 C742 0.959 . S
H728 C742 0.961 . S
H729 C743 0.960 . S
H730 C743 0.961 . S
H731 C743 0.959 . S
H732 C746 0.929 . S
H733 C747 0.931 . S
H734 C749 0.930 . S
C735 H723 0.930 . S
C735 C736 1.399 1_554 S
C735 C740 1.399 . S
C736 C735 1.399 1_556 S
C736 C737 1.376 1_556 S
C737 H724 0.930 1_554 S
C737 C736 1.376 1_554 S
C737 C738 1.388 . S
C738 H725 0.930 . S
C738 C737 1.388 . S
C738 C739 1.390 . S
C739 C738 1.390 . S
C739 C740 1.394 . S
C739 C745 1.465 . S
C740 C735 1.399 . S
C740 C739 1.394 . S
C740 C741 1.516 . S
C741 C740 1.516 . S
C741 C742 1.502 . S
C741 C743 1.561 . S
C741 C744 1.526 . S
C742 H726 0.959 . S
C742 H727 0.959 . S
C742 H728 0.961 . S
C742 C741 1.502 . S
C743 H729 0.960 . S
C743 H730 0.961 . S
C743 H731 0.959 . S
C743 C741 1.561 . S
C744 C741 1.526 . S
C744 C745 1.396 . S
C744 C749 1.390 . S
C745 C739 1.465 . S
C745 C744 1.396 . S
C745 C746 1.399 . S
C746 H732 0.929 . S
C746 C745 1.399 . S
C746 C747 1.385 . S
C747 H733 0.931 . S
C747 C746 1.385 . S
C747 C748 1.389 . S
C748 C747 1.389 . S
C748 C749 1.387 . S
C749 H734 0.930 . S
C749 C744 1.390 . S
C749 C748 1.387 . S
H750 C762 0.930 . S
H751 C764 0.930 . S
H752 C765 0.930 . S
H753 C769 0.959 . S
H754 C769 0.959 . S
H755 C769 0.961 . S
H756 C770 0.960 . S
H757 C770 0.961 . S
H758 C770 0.959 . S
H759 C773 0.929 . S
H760 C774 0.931 . S
H761 C776 0.930 . S
C762 H750 0.930 . S
C762 C763 1.399 . S
C762 C767 1.399 . S
C763 C762 1.399 . S
C763 C764 1.376 . S
C764 H751 0.930 . S
C764 C763 1.376 . S
C764 C765 1.388 . S
C765 H752 0.930 . S
C765 C764 1.388 . S
C765 C766 1.390 . S
C766 C765 1.390 . S
C766 C767 1.394 . S
C766 C772 1.465 . S
C767 C762 1.399 . S
C767 C766 1.394 . S
C767 C768 1.516 . S
C768 C767 1.516 . S
C768 C769 1.502 . S
C768 C770 1.561 . S
C768 C771 1.526 . S
C769 H753 0.959 . S
C769 H754 0.959 . S
C769 H755 0.961 . S
C769 C768 1.502 . S
C770 H756 0.960 . S
C770 H757 0.961 . S
C770 H758 0.959 . S
C770 C768 1.561 . S
C771 C768 1.526 . S
C771 C772 1.396 . S
C771 C776 1.390 . S
C772 C766 1.465 . S
C772 C771 1.396 . S
C772 C773 1.399 . S
C773 H759 0.929 . S
C773 C772 1.399 . S
C773 C774 1.385 . S
C774 H760 0.931 . S
C774 C773 1.385 . S
C774 C775 1.389 . S
C775 C774 1.389 . S
C775 C776 1.387 . S
C776 H761 0.930 . S
C776 C771 1.390 . S
C776 C775 1.387 . S
H777 C789 0.930 . S
H778 C791 0.930 . S
H779 C792 0.930 . S
H780 C796 0.959 . S
H781 C796 0.959 . S
H782 C796 0.961 . S
H783 C797 0.960 . S
H784 C797 0.961 . S
H785 C797 0.959 . S
H786 C800 0.929 . S
H787 C801 0.931 1_556 S
H788 C803 0.930 . S
C789 H777 0.930 . S
C789 C790 1.399 . S
C789 C794 1.399 . S
C790 C789 1.399 . S
C790 C791 1.376 . S
C791 H778 0.930 . S
C791 C790 1.376 . S
C791 C792 1.388 . S
C792 H779 0.930 . S
C792 C791 1.388 . S
C792 C793 1.390 . S
C793 C792 1.390 . S
C793 C794 1.394 . S
C793 C799 1.465 . S
C794 C789 1.399 . S
C794 C793 1.394 . S
C794 C795 1.516 . S
C795 C794 1.516 . S
C795 C796 1.502 . S
C795 C797 1.561 . S
C795 C798 1.526 . S
C796 H780 0.959 . S
C796 H781 0.959 . S
C796 H782 0.961 . S
C796 C795 1.502 . S
C797 H783 0.960 . S
C797 H784 0.961 . S
C797 H785 0.959 . S
C797 C795 1.561 . S
C798 C795 1.526 . S
C798 C799 1.396 . S
C798 C803 1.390 . S
C799 C793 1.465 . S
C799 C798 1.396 . S
C799 C800 1.399 . S
C800 H786 0.929 . S
C800 C799 1.399 . S
C800 C801 1.385 . S
C801 H787 0.931 1_554 S
C801 C800 1.385 . S
C801 C802 1.389 1_554 S
C802 C801 1.389 1_556 S
C802 C803 1.387 1_556 S
C803 H788 0.930 . S
C803 C798 1.390 . S
C803 C802 1.387 1_554 S
C277 C249 1.221 . S
C289 C18 1.157 . S
C304 C150 1.223 . S
C316 C51 1.146 . S
C331 C84 1.205 . S
C343 C183 1.178 . S
C358 C216 1.165 . S
C370 C117 1.215 . S
C385 C7 1.470 . S
C397 C139 1.447 . S
C412 C172 1.463 . S
C424 C40 1.472 . S
C439 C205 1.423 . S
C451 C73 1.444 . S
C466 C238 1.436 . S
C478 C106 1.423 . S
C493 C252 1.492 . S
C505 C54 1.498 . S
C520 C87 1.465 . S
C532 C153 1.469 . S
C547 C120 1.497 . S
C559 C186 1.500 . S
C574 C219 1.500 . S
C586 C21 1.495 . S
C601 N13 1.252 . S
C613 N2 1.210 . S
C628 N35 1.214 . S
C640 N46 1.246 . S
C655 N68 1.245 . S
C667 N79 1.217 . S
C682 N112 1.257 . S
C694 N101 1.216 . S
C709 N134 1.219 . S
C721 N145 1.255 . S
C736 N167 1.253 . S
C748 N178 1.224 . S
C763 N200 1.252 . S
C775 N211 1.213 . S
C790 N244 1.224 . S
C802 N233 1.236 . S
