# Generated by pormake.
# Topology vbm, (6)-cn, num edge types: 1
# Building blocks:
#     Node 0, Type 0, BuildingBlock: PAMTOO_clean_sbu_0, # of connection points: 6
#     Node 1, Type 0, BuildingBlock: PAMTOO_clean_sbu_0, # of connection points: 6
#     Node 2, Type 0, BuildingBlock: PAMTOO_clean_sbu_0, # of connection points: 6
#     Node 3, Type 0, BuildingBlock: PAMTOO_clean_sbu_0, # of connection points: 6
#     Node 4, Type 0, BuildingBlock: PAMTOO_clean_sbu_0, # of connection points: 6
#     Node 5, Type 0, BuildingBlock: PAMTOO_clean_sbu_0, # of connection points: 6
#     Node 6, Type 0, BuildingBlock: PAMTOO_clean_sbu_0, # of connection points: 6
#     Node 7, Type 0, BuildingBlock: PAMTOO_clean_sbu_0, # of connection points: 6
#     Node 8, Type 0, BuildingBlock: PAMTOO_clean_sbu_0, # of connection points: 6
#     Node 9, Type 0, BuildingBlock: PAMTOO_clean_sbu_0, # of connection points: 6
#     Node 10, Type 0, BuildingBlock: PAMTOO_clean_sbu_0, # of connection points: 6
#     Node 11, Type 0, BuildingBlock: PAMTOO_clean_sbu_0, # of connection points: 6
#     Node 12, Type 0, BuildingBlock: PAMTOO_clean_sbu_0, # of connection points: 6
#     Node 13, Type 0, BuildingBlock: PAMTOO_clean_sbu_0, # of connection points: 6
#     Node 14, Type 0, BuildingBlock: PAMTOO_clean_sbu_0, # of connection points: 6
#     Node 15, Type 0, BuildingBlock: PAMTOO_clean_sbu_0, # of connection points: 6
#     Edge 16, Type (0, 0), BuildingBlock: AJUNOK_clean_linker_0, # of connection points: 2
#     Edge 17, Type (0, 0), BuildingBlock: AJUNOK_clean_linker_0, # of connection points: 2
#     Edge 18, Type (0, 0), BuildingBlock: AJUNOK_clean_linker_0, # of connection points: 2
#     Edge 19, Type (0, 0), BuildingBlock: AJUNOK_clean_linker_0, # of connection points: 2
#     Edge 20, Type (0, 0), BuildingBlock: AJUNOK_clean_linker_0, # of connection points: 2
#     Edge 21, Type (0, 0), BuildingBlock: AJUNOK_clean_linker_0, # of connection points: 2
#     Edge 22, Type (0, 0), BuildingBlock: AJUNOK_clean_linker_0, # of connection points: 2
#     Edge 23, Type (0, 0), BuildingBlock: AJUNOK_clean_linker_0, # of connection points: 2
#     Edge 24, Type (0, 0), BuildingBlock: AJUNOK_clean_linker_0, # of connection points: 2
#     Edge 25, Type (0, 0), BuildingBlock: AJUNOK_clean_linker_0, # of connection points: 2
#     Edge 26, Type (0, 0), BuildingBlock: AJUNOK_clean_linker_0, # of connection points: 2
#     Edge 27, Type (0, 0), BuildingBlock: AJUNOK_clean_linker_0, # of connection points: 2
#     Edge 28, Type (0, 0), BuildingBlock: AJUNOK_clean_linker_0, # of connection points: 2
#     Edge 29, Type (0, 0), BuildingBlock: AJUNOK_clean_linker_0, # of connection points: 2
#     Edge 30, Type (0, 0), BuildingBlock: AJUNOK_clean_linker_0, # of connection points: 2
#     Edge 31, Type (0, 0), BuildingBlock: AJUNOK_clean_linker_0, # of connection points: 2
#     Edge 32, Type (0, 0), BuildingBlock: AJUNOK_clean_linker_0, # of connection points: 2
#     Edge 33, Type (0, 0), BuildingBlock: AJUNOK_clean_linker_0, # of connection points: 2
#     Edge 34, Type (0, 0), BuildingBlock: AJUNOK_clean_linker_0, # of connection points: 2
#     Edge 35, Type (0, 0), BuildingBlock: AJUNOK_clean_linker_0, # of connection points: 2
#     Edge 36, Type (0, 0), BuildingBlock: AJUNOK_clean_linker_0, # of connection points: 2
#     Edge 37, Type (0, 0), BuildingBlock: AJUNOK_clean_linker_0, # of connection points: 2
#     Edge 38, Type (0, 0), BuildingBlock: AJUNOK_clean_linker_0, # of connection points: 2
#     Edge 39, Type (0, 0), BuildingBlock: AJUNOK_clean_linker_0, # of connection points: 2
#     Edge 40, Type (0, 0), BuildingBlock: AJUNOK_clean_linker_0, # of connection points: 2
#     Edge 41, Type (0, 0), BuildingBlock: AJUNOK_clean_linker_0, # of connection points: 2
#     Edge 42, Type (0, 0), BuildingBlock: AJUNOK_clean_linker_0, # of connection points: 2
#     Edge 43, Type (0, 0), BuildingBlock: AJUNOK_clean_linker_0, # of connection points: 2
#     Edge 44, Type (0, 0), BuildingBlock: AJUNOK_clean_linker_0, # of connection points: 2
#     Edge 45, Type (0, 0), BuildingBlock: AJUNOK_clean_linker_0, # of connection points: 2
#     Edge 46, Type (0, 0), BuildingBlock: AJUNOK_clean_linker_0, # of connection points: 2
#     Edge 47, Type (0, 0), BuildingBlock: AJUNOK_clean_linker_0, # of connection points: 2
#     Edge 48, Type (0, 0), BuildingBlock: AJUNOK_clean_linker_0, # of connection points: 2
#     Edge 49, Type (0, 0), BuildingBlock: AJUNOK_clean_linker_0, # of connection points: 2
#     Edge 50, Type (0, 0), BuildingBlock: AJUNOK_clean_linker_0, # of connection points: 2
#     Edge 51, Type (0, 0), BuildingBlock: AJUNOK_clean_linker_0, # of connection points: 2
#     Edge 52, Type (0, 0), BuildingBlock: AJUNOK_clean_linker_0, # of connection points: 2
#     Edge 53, Type (0, 0), BuildingBlock: AJUNOK_clean_linker_0, # of connection points: 2
#     Edge 54, Type (0, 0), BuildingBlock: AJUNOK_clean_linker_0, # of connection points: 2
#     Edge 55, Type (0, 0), BuildingBlock: AJUNOK_clean_linker_0, # of connection points: 2
#     Edge 56, Type (0, 0), BuildingBlock: AJUNOK_clean_linker_0, # of connection points: 2
#     Edge 57, Type (0, 0), BuildingBlock: AJUNOK_clean_linker_0, # of connection points: 2
#     Edge 58, Type (0, 0), BuildingBlock: AJUNOK_clean_linker_0, # of connection points: 2
#     Edge 59, Type (0, 0), BuildingBlock: AJUNOK_clean_linker_0, # of connection points: 2
#     Edge 60, Type (0, 0), BuildingBlock: AJUNOK_clean_linker_0, # of connection points: 2
#     Edge 61, Type (0, 0), BuildingBlock: AJUNOK_clean_linker_0, # of connection points: 2
#     Edge 62, Type (0, 0), BuildingBlock: AJUNOK_clean_linker_0, # of connection points: 2
#     Edge 63, Type (0, 0), BuildingBlock: AJUNOK_clean_linker_0, # of connection points: 2
# Relax obj value: 0.054
# Max RMSD: 0.137
# Mean RMSD: 0.137
data_MOF--net-vbm--node1-PAMTOO_clean_sbu_0--edge1-AJUNOK_clean_linker_0
_symmetry_space_group_name_H-M    P1
_symmetry_Int_Tables_number       1
_symmetry_cell_setting            triclinic
loop_
_symmetry_equiv_pos_as_xyz
'x, y, z'
_cell_length_a     39.304971
_cell_length_b     21.288083
_cell_length_c     41.757599
_cell_angle_alpha  89.983522
_cell_angle_beta   89.831296
_cell_angle_gamma 89.982259
loop_
_atom_site_label
_atom_site_type_symbol
_atom_site_fract_x
_atom_site_fract_y
_atom_site_fract_z
_atom_type_partial_charge
Dy0 Dy 0.09582 0.22396 0.1476 0.0
Dy1 Dy 0.13545 0.08891 0.13246 0.0
C2 C 0.11417 0.18165 0.0762 0.0
O3 O 0.05635 0.15793 0.13083 0.0
O4 O 0.08156 0.06492 0.14519 0.0
O5 O 0.05934 0.29667 0.13652 0.0
O6 O 0.08755 0.29996 0.18099 0.0
O7 O 0.14582 0.12207 0.18163 0.0
O8 O 0.09327 0.16002 0.19084 0.0
O9 O 0.17536 0.16156 0.12333 0.0
O10 O 0.15092 0.24604 0.14975 0.0
O11 O 0.16266 1.00977 0.15196 0.0
O12 O 0.15198 1.0133 0.10127 0.0
C13 C 0.05441 0.09816 0.13797 0.0
O14 O 0.11201 0.22965 0.09598 0.0
O15 O 0.11459 0.12333 0.08639 0.0
C16 C 0.07516 0.39627 0.15604 0.0
C17 C 0.0914 0.52399 0.14631 0.0
C18 C 0.11127 0.47641 0.1322 0.0
C19 C 0.1032 0.41309 0.13701 0.0
C20 C 0.05531 0.44341 0.1702 0.0
C21 C 0.06339 0.50677 0.16545 0.0
C22 C 0.06699 0.3298 0.16178 0.0
C23 C 0.1204 0.13044 0.20123 0.0
C24 C 0.17668 0.21877 0.13529 0.0
C25 C 0.15114 0.91377 0.12633 0.0
C26 C 0.12979 0.78737 0.13068 0.0
C27 C 0.11081 0.8355 0.14537 0.0
C28 C 0.12127 0.89815 0.14306 0.0
C29 C 0.17011 0.86609 0.11158 0.0
C30 C 0.15954 0.80343 0.11371 0.0
C31 C 0.16315 0.97923 0.12494 0.0
H32 H 0.13296 0.48822 0.11731 0.0
H33 H 0.11889 0.3772 0.12597 0.0
H34 H 0.03373 0.4312 0.18517 0.0
H35 H 0.04806 0.54225 0.17722 0.0
H36 H 0.08824 0.82466 0.15925 0.0
H37 H 0.10633 0.9343 0.15476 0.0
H38 H 0.19325 0.87727 0.09861 0.0
H39 H 0.17464 0.76747 0.10205 0.0
Dy40 Dy 0.87833 0.85496 0.15141 0.0
Dy41 Dy 0.84082 0.9885 0.12793 0.0
C42 C 0.86344 0.88348 0.07691 0.0
O43 O 0.92059 0.9167 0.13525 0.0
O44 O 0.89394 1.01171 0.14232 0.0
O45 O 0.91308 0.77711 0.1452 0.0
O46 O 0.88121 0.78206 0.18745 0.0
O47 O 0.83267 0.97517 0.18015 0.0
O48 O 0.88225 0.92512 0.19191 0.0
O49 O 0.80311 0.9126 0.11751 0.0
O50 O 0.82231 0.84347 0.15547 0.0
O51 O 0.80235 0.06017 0.1352 0.0
O52 O 0.83982 0.07058 0.09759 0.0
C53 C 0.92162 0.97806 0.13808 0.0
O54 O 0.86588 0.84027 0.09937 0.0
O55 O 0.85953 0.94345 0.08323 0.0
C56 C 0.89278 0.68119 0.16648 0.0
C57 C 0.8756 0.55302 0.15832 0.0
C58 C 0.85891 0.60009 0.14061 0.0
C59 C 0.86745 0.66355 0.14461 0.0
C60 C 0.90911 0.63462 0.18455 0.0
C61 C 0.90057 0.57118 0.18058 0.0
C62 C 0.90227 0.7478 0.17072 0.0
C63 C 0.85738 0.9633 0.20019 0.0
C64 C 0.79952 0.86085 0.13439 0.0
C65 C 0.82199 0.16304 0.1234 0.0
C66 C 0.83886 0.28929 0.13755 0.0
C67 C 0.85442 0.23941 0.15418 0.0
C68 C 0.84611 0.17689 0.14712 0.0
C69 C 0.80569 0.21253 0.10746 0.0
C70 C 0.81395 0.27505 0.11451 0.0
C71 C 0.81538 0.09754 0.11363 0.0
H72 H 0.83958 0.58774 0.12328 0.0
H73 H 0.85444 0.69885 0.13051 0.0
H74 H 0.9285 0.64732 0.20176 0.0
H75 H 0.91334 0.53637 0.19515 0.0
H76 H 0.87313 0.24872 0.17256 0.0
H77 H 0.85889 0.1393 0.15979 0.0
H78 H 0.78707 0.20281 0.08903 0.0
H79 H 0.80153 0.31227 0.10127 0.0
Dy80 Dy 0.10477 0.86935 0.36587 0.0
Dy81 Dy 0.13999 1.00231 0.39112 0.0
C82 C 0.11225 0.90022 0.43992 0.0
O83 O 0.06126 0.93058 0.37965 0.0
O84 O 0.0873 1.0271 0.37544 0.0
O85 O 0.07147 0.78954 0.37255 0.0
O86 O 0.10344 0.79521 0.33043 0.0
O87 O 0.14729 0.995 0.3385 0.0
O88 O 0.09972 0.93917 0.3254 0.0
O89 O 0.17743 0.92485 0.40119 0.0
O90 O 0.16055 0.86538 0.35863 0.0
O91 O 0.1792 0.07318 0.38591 0.0
O92 O 0.14106 0.0824 0.42291 0.0
C93 C 0.05974 0.99217 0.37784 0.0
O94 O 0.11704 0.85635 0.41819 0.0
O95 O 0.11316 0.95996 0.43252 0.0
C96 C 0.09357 0.69429 0.35212 0.0
C97 C 0.11321 0.56749 0.361 0.0
C98 C 0.12944 0.61607 0.37801 0.0
C99 C 0.1198 0.6789 0.37353 0.0
C100 C 0.07729 0.64608 0.33521 0.0
C101 C 0.08695 0.58331 0.33962 0.0
C102 C 0.08294 0.76017 0.34732 0.0
C103 C 0.12348 0.98036 0.31796 0.0
C104 C 0.18298 0.87947 0.3805 0.0
C105 C 0.1604 0.17585 0.39873 0.0
C106 C 0.1475 0.3035 0.38409 0.0
C107 C 0.12956 0.25522 0.36844 0.0
C108 C 0.136 0.19201 0.37565 0.0
C109 C 0.17856 0.2237 0.41417 0.0
C110 C 0.17216 0.28691 0.40697 0.0
C111 C 0.16605 0.10961 0.40778 0.0
H112 H 0.14978 0.60546 0.39461 0.0
H113 H 0.13275 0.71548 0.38678 0.0
H114 H 0.05692 0.65696 0.31868 0.0
H115 H 0.07346 0.54703 0.32666 0.0
H116 H 0.10997 0.26633 0.35115 0.0
H117 H 0.12161 0.15573 0.36355 0.0
H118 H 0.19746 0.2122 0.43207 0.0
H119 H 0.1865 0.32292 0.41933 0.0
Dy120 Dy 0.87757 0.22209 0.36553 0.0
Dy121 Dy 0.84434 0.08818 0.39196 0.0
C122 C 0.86344 0.19815 0.44035 0.0
O123 O 0.92119 0.16538 0.38253 0.0
O124 O 0.89798 0.06716 0.37697 0.0
O125 O 0.91111 0.30184 0.37076 0.0
O126 O 0.87866 0.29463 0.32921 0.0
O127 O 0.83652 0.09299 0.33936 0.0
O128 O 0.8833 0.15091 0.32563 0.0
O129 O 0.8044 0.1625 0.39963 0.0
O130 O 0.82179 0.22503 0.35814 0.0
O131 O 0.8054 1.01645 0.38894 0.0
O132 O 0.8465 1.00703 0.4229 0.0
C133 C 0.92454 0.1044 0.37981 0.0
O134 O 0.86242 0.23956 0.41693 0.0
O135 O 0.86344 0.13749 0.43509 0.0
C136 C 0.88906 0.39615 0.34966 0.0
C137 C 0.87034 0.52325 0.35844 0.0
C138 C 0.85347 0.47513 0.3753 0.0
C139 C 0.86266 0.41213 0.37087 0.0
C140 C 0.90588 0.44385 0.33273 0.0
C141 C 0.89665 0.50685 0.33709 0.0
C142 C 0.89948 0.33015 0.34535 0.0
C143 C 0.85975 0.10924 0.31841 0.0
C144 C 0.79875 0.20819 0.37911 0.0
C145 C 0.82578 0.91402 0.39962 0.0
C146 C 0.83796 0.787 0.38344 0.0
C147 C 0.85598 0.83561 0.36805 0.0
C148 C 0.8499 0.89857 0.37604 0.0
C149 C 0.80754 0.86586 0.41479 0.0
C150 C 0.81358 0.80294 0.40682 0.0
C151 C 0.8205 0.97978 0.40951 0.0
H152 H 0.83306 0.48627 0.39184 0.0
H153 H 0.84932 0.37589 0.38411 0.0
H154 H 0.92639 0.43243 0.31635 0.0
H155 H 0.91058 0.54283 0.32423 0.0
H156 H 0.87539 0.82493 0.35041 0.0
H157 H 0.86442 0.93515 0.36421 0.0
H158 H 0.78887 0.87688 0.4331 0.0
H159 H 0.79921 0.76664 0.41901 0.0
Dy160 Dy 0.84186 0.99593 0.89153 0.0
Dy161 Dy 0.87584 0.86039 0.86583 0.0
C162 C 0.85516 0.9716 0.8184 0.0
O163 O 0.80198 0.92376 0.90156 0.0
O164 O 0.81983 0.84887 0.86531 0.0
O165 O 0.80312 0.06788 0.88838 0.0
O166 O 0.84513 0.07864 0.92133 0.0
O167 O 0.86462 0.84369 0.91799 0.0
O168 O 0.85903 0.94634 0.93548 0.0
O169 O 0.91896 0.91787 0.88293 0.0
O170 O 0.8953 1.01547 0.8759 0.0
O171 O 0.91081 0.78241 0.8692 0.0
O172 O 0.87617 0.78863 0.82909 0.0
C173 C 0.79746 0.87125 0.88562 0.0
O174 O 0.83184 0.9867 0.83944 0.0
O175 O 0.87942 0.93152 0.82575 0.0
C176 C 0.82303 0.17103 0.89844 0.0
C177 C 0.83398 0.29813 0.88175 0.0
C178 C 0.84389 0.24951 0.86084 0.0
C179 C 0.83847 0.18646 0.86912 0.0
C180 C 0.81298 0.21926 0.91925 0.0
C181 C 0.81847 0.28218 0.91106 0.0
C182 C 0.8186 0.10513 0.90841 0.0
C183 C 0.8625 0.88593 0.94095 0.0
C184 C 0.92193 0.97874 0.87951 0.0
C185 C 0.88803 0.6874 0.84915 0.0
C186 C 0.8681 0.56087 0.85735 0.0
C187 C 0.86229 0.60524 0.88169 0.0
C188 C 0.87203 0.66795 0.87759 0.0
C189 C 0.894 0.64323 0.82485 0.0
C190 C 0.88425 0.58042 0.82895 0.0
C191 C 0.89796 0.75362 0.84443 0.0
H192 H 0.85592 0.26026 0.83812 0.0
H193 H 0.84664 0.14979 0.85282 0.0
H194 H 0.80137 0.20821 0.94213 0.0
H195 H 0.81135 0.31828 0.92807 0.0
H196 H 0.8506 0.59121 0.90409 0.0
H197 H 0.86718 0.70123 0.89669 0.0
H198 H 0.90616 0.65736 0.80266 0.0
H199 H 0.88905 0.54721 0.8098 0.0
Dy200 Dy 0.13663 0.08779 0.88237 0.0
Dy201 Dy 0.09605 0.22214 0.86684 0.0
C202 C 0.11758 0.12432 0.81354 0.0
O203 O 0.17544 0.16184 0.89213 0.0
O204 O 0.15139 0.24187 0.86247 0.0
O205 O 0.16746 1.01111 0.86478 0.0
O206 O 0.14957 1.0103 0.91374 0.0
O207 O 0.11217 0.22894 0.91837 0.0
O208 O 0.11544 0.12285 0.92829 0.0
O209 O 0.05654 0.1554 0.88363 0.0
O210 O 0.08302 0.06286 0.87021 0.0
O211 O 0.05972 0.29518 0.87784 0.0
O212 O 0.08829 0.29843 0.83339 0.0
C213 C 0.17672 0.21792 0.87889 0.0
O214 O 0.14405 0.11647 0.83186 0.0
O215 O 0.09158 0.15685 0.82439 0.0
C216 C 0.15287 0.91255 0.88725 0.0
C217 C 0.13128 0.7865 0.88142 0.0
C218 C 0.11922 0.83265 0.86019 0.0
C219 C 0.12974 0.89522 0.8632 0.0
C220 C 0.16505 0.86653 0.90833 0.0
C221 C 0.15436 0.80407 0.90548 0.0
C222 C 0.16414 0.97829 0.89095 0.0
C223 C 0.11465 0.18124 0.93829 0.0
C224 C 0.05552 0.09491 0.87769 0.0
C225 C 0.07554 0.39531 0.85808 0.0
C226 C 0.09162 0.52356 0.86699 0.0
C227 C 0.103 0.4779 0.88887 0.0
C228 C 0.09503 0.4144 0.88447 0.0
C229 C 0.06415 0.4406 0.8362 0.0
C230 C 0.07214 0.50412 0.84057 0.0
C231 C 0.0677 0.3284 0.85262 0.0
H232 H 0.10134 0.82042 0.84151 0.0
H233 H 0.11976 0.93002 0.84677 0.0
H234 H 0.18288 0.87892 0.92703 0.0
H235 H 0.16446 0.76933 0.92185 0.0
H236 H 0.11866 0.49108 0.90907 0.0
H237 H 0.10436 0.38014 0.9015 0.0
H238 H 0.04919 0.42678 0.81563 0.0
H239 H 0.06293 0.53812 0.82335 0.0
Dy240 Dy 0.84069 0.08897 0.62636 0.0
Dy241 Dy 0.87569 0.22365 0.65087 0.0
C242 C 0.85532 0.11413 0.69912 0.0
O243 O 0.80192 0.16327 0.61626 0.0
O244 O 0.81965 0.23334 0.65445 0.0
O245 O 0.80173 1.01762 0.63151 0.0
O246 O 0.84184 1.00648 0.59638 0.0
O247 O 0.86323 0.23973 0.59895 0.0
O248 O 0.8585 0.13675 0.58201 0.0
O249 O 0.91832 0.16446 0.63374 0.0
O250 O 0.89409 0.0675 0.64119 0.0
O251 O 0.91014 0.30211 0.64541 0.0
O252 O 0.87782 0.29574 0.6873 0.0
C253 C 0.79725 0.21436 0.63341 0.0
O254 O 0.83148 0.09988 0.67858 0.0
O255 O 0.87989 0.1532 0.69116 0.0
C256 C 0.8215 0.91453 0.62108 0.0
C257 C 0.83459 0.78768 0.63686 0.0
C258 C 0.85343 0.83638 0.65114 0.0
C259 C 0.84692 0.89927 0.64333 0.0
C260 C 0.80226 0.86629 0.60724 0.0
C261 C 0.80878 0.80343 0.61499 0.0
C262 C 0.81613 0.98004 0.61084 0.0
C263 C 0.86148 0.19712 0.57615 0.0
C264 C 0.92096 0.10354 0.63731 0.0
C265 C 0.88879 0.39692 0.66675 0.0
C266 C 0.86965 0.52411 0.65908 0.0
C267 C 0.85285 0.47628 0.64204 0.0
C268 C 0.86235 0.4133 0.64583 0.0
C269 C 0.90565 0.4443 0.68375 0.0
C270 C 0.89628 0.50734 0.67989 0.0
C271 C 0.89885 0.33071 0.67094 0.0
H272 H 0.87386 0.82579 0.66762 0.0
H273 H 0.8622 0.93593 0.65412 0.0
H274 H 0.78256 0.87716 0.59 0.0
H275 H 0.79375 0.76701 0.60371 0.0
H276 H 0.83223 0.48757 0.62587 0.0
H277 H 0.84913 0.37735 0.63237 0.0
H278 H 0.92625 0.43257 0.69988 0.0
H279 H 0.91027 0.54305 0.69279 0.0
Dy280 Dy 0.13462 0.99402 0.62811 0.0
Dy281 Dy 0.09715 0.85998 0.64976 0.0
C282 C 0.11774 0.96587 0.69974 0.0
O283 O 0.17274 0.91901 0.61748 0.0
O284 O 0.15292 0.84577 0.65354 0.0
O285 O 0.1705 0.06842 0.63831 0.0
O286 O 0.14019 0.07207 0.59533 0.0
O287 O 0.11077 0.84976 0.59765 0.0
O288 O 0.10868 0.95464 0.58539 0.0
O289 O 0.05543 0.92452 0.63512 0.0
O290 O 0.08209 1.01909 0.64379 0.0
O291 O 0.06171 0.78418 0.64151 0.0
O292 O 0.09273 0.78463 0.68428 0.0
C293 C 0.17649 0.86696 0.63407 0.0
O294 O 0.14284 0.97726 0.67998 0.0
O295 O 0.09309 0.92761 0.69126 0.0
C296 C 0.15289 0.16848 0.62016 0.0
C297 C 0.13524 0.29584 0.62978 0.0
C298 C 0.11934 0.24808 0.6477 0.0
C299 C 0.12804 0.18493 0.64289 0.0
C300 C 0.16924 0.21595 0.60269 0.0
C301 C 0.16061 0.27905 0.60752 0.0
C302 C 0.16127 0.10215 0.61378 0.0
C303 C 0.10788 0.8955 0.57669 0.0
C304 C 0.05438 0.98573 0.63917 0.0
C305 C 0.08107 0.68631 0.66076 0.0
C306 C 0.09856 0.55925 0.64999 0.0
C307 C 0.11524 0.60769 0.6332 0.0
C308 C 0.10652 0.67064 0.63851 0.0
C309 C 0.06462 0.63829 0.67779 0.0
C310 C 0.07333 0.57531 0.67251 0.0
C311 C 0.07177 0.75246 0.66651 0.0
H312 H 0.09974 0.2595 0.66504 0.0
H313 H 0.1152 0.14889 0.65668 0.0
H314 H 0.18859 0.20418 0.58516 0.0
H315 H 0.17392 0.31476 0.59391 0.0
H316 H 0.13526 0.59696 0.61618 0.0
H317 H 0.11966 0.70713 0.62527 0.0
H318 H 0.04498 0.64951 0.69513 0.0
H319 H 0.06002 0.53906 0.68576 0.0
Dy320 Dy 0.60451 0.71217 0.14907 0.0
Dy321 Dy 0.63703 0.57704 0.12268 0.0
C322 C 0.60943 0.68208 0.07473 0.0
O323 O 0.56052 0.65315 0.13506 0.0
O324 O 0.58442 0.55491 0.13987 0.0
O325 O 0.57017 0.79086 0.14474 0.0
O326 O 0.60492 0.78585 0.1848 0.0
O327 O 0.6462 0.58261 0.17511 0.0
O328 O 0.60035 0.64236 0.18955 0.0
O329 O 0.67545 0.65137 0.11088 0.0
O330 O 0.66063 0.7194 0.15119 0.0
O331 O 0.67644 0.50616 0.12462 0.0
O332 O 0.63463 0.49618 0.0915 0.0
C333 C 0.55769 0.59198 0.13782 0.0
O334 O 0.61457 0.72578 0.09643 0.0
O335 O 0.61064 0.62211 0.08176 0.0
C336 C 0.59336 0.88632 0.16359 0.0
C337 C 0.613 1.01253 0.15373 0.0
C338 C 0.62021 0.96646 0.13054 0.0
C339 C 0.6106 0.90388 0.13548 0.0
C340 C 0.58603 0.93211 0.18673 0.0
C341 C 0.59568 0.99471 0.18183 0.0
C342 C 0.58322 0.82049 0.16913 0.0
C343 C 0.62347 0.59967 0.19638 0.0
C344 C 0.68177 0.70037 0.12901 0.0
C345 C 0.65706 0.40326 0.1134 0.0
C346 C 0.64633 0.27559 0.12893 0.0
C347 C 0.63596 0.32343 0.15009 0.0
C348 C 0.64126 0.38674 0.1424 0.0
C349 C 0.66762 0.35582 0.09235 0.0
C350 C 0.66226 0.29257 0.09997 0.0
C351 C 0.66125 0.46956 0.10411 0.0
H352 H 0.6328 0.97903 0.10835 0.0
H353 H 0.61642 0.86927 0.11726 0.0
H354 H 0.57284 0.91944 0.20862 0.0
H355 H 0.58982 1.02916 0.20011 0.0
H356 H 0.62363 0.31185 0.17257 0.0
H357 H 0.63272 0.4228 0.15888 0.0
H358 H 0.67952 0.36774 0.06971 0.0
H359 H 0.66979 0.25704 0.0828 0.0
Dy360 Dy 0.37809 0.35777 0.14883 0.0
Dy361 Dy 0.34235 0.49296 0.1246 0.0
C362 C 0.36225 0.3855 0.07515 0.0
O363 O 0.42103 0.41881 0.13334 0.0
O364 O 0.39569 0.51586 0.13799 0.0
O365 O 0.41197 0.27944 0.14061 0.0
O366 O 0.38096 0.28227 0.18348 0.0
O367 O 0.34159 0.49573 0.17781 0.0
O368 O 0.38383 0.42444 0.19035 0.0
O369 O 0.30288 0.41774 0.11912 0.0
O370 O 0.32279 0.35338 0.15863 0.0
O371 O 0.30284 0.5635 0.12826 0.0
O372 O 0.3425 0.57237 0.09246 0.0
C373 C 0.42288 0.48026 0.13557 0.0
O374 O 0.36122 0.34297 0.09795 0.0
O375 O 0.3631 0.44578 0.08137 0.0
C376 C 0.39089 0.18278 0.16035 0.0
C377 C 0.37071 0.05661 0.15123 0.0
C378 C 0.36027 0.1037 0.12974 0.0
C379 C 0.37024 0.16623 0.13428 0.0
C380 C 0.40141 0.13596 0.18176 0.0
C381 C 0.39153 0.07341 0.1772 0.0
C382 C 0.40125 0.24858 0.16568 0.0
C383 C 0.36395 0.47224 0.19781 0.0
C384 C 0.2991 0.36927 0.13829 0.0
C385 C 0.32202 0.66584 0.11533 0.0
C386 C 0.33492 0.79352 0.12934 0.0
C387 C 0.34925 0.74551 0.1482 0.0
C388 C 0.34289 0.68225 0.14122 0.0
C389 C 0.30754 0.71338 0.09658 0.0
C390 C 0.31399 0.77662 0.10343 0.0
C391 C 0.3168 0.59952 0.10658 0.0
H392 H 0.34467 0.09206 0.10925 0.0
H393 H 0.36175 0.20169 0.11748 0.0
H394 H 0.41727 0.1478 0.20206 0.0
H395 H 0.39991 1.03817 0.19415 0.0
H396 H 0.36548 0.75688 0.1683 0.0
H397 H 0.35461 0.64611 0.15574 0.0
H398 H 0.29174 0.70155 0.07624 0.0
H399 H 0.30329 0.81223 0.08791 0.0
Dy400 Dy 0.59894 0.35415 0.36605 0.0
Dy401 Dy 0.63483 0.48742 0.38937 0.0
C402 C 0.6068 0.38834 0.43923 0.0
O403 O 0.5561 0.41754 0.3788 0.0
O404 O 0.58226 0.51395 0.37381 0.0
O405 O 0.5644 0.27673 0.37437 0.0
O406 O 0.59608 0.278 0.33192 0.0
O407 O 0.64289 0.47694 0.33691 0.0
O408 O 0.59498 0.42128 0.32443 0.0
O409 O 0.6726 0.41033 0.39927 0.0
O410 O 0.65456 0.34693 0.35854 0.0
O411 O 0.67148 0.56175 0.38115 0.0
O412 O 0.6397 0.5635 0.42334 0.0
C413 C 0.55471 0.47894 0.37594 0.0
O414 O 0.61226 0.34353 0.4182 0.0
O415 O 0.60656 0.44744 0.43062 0.0
C416 C 0.58507 0.17941 0.35566 0.0
C417 C 0.60304 0.05298 0.36771 0.0
C418 C 0.62449 0.10235 0.37744 0.0
C419 C 0.61554 0.16501 0.37154 0.0
C420 C 0.56375 0.13044 0.34572 0.0
C421 C 0.57267 0.0678 0.35162 0.0
C422 C 0.57522 0.24517 0.34959 0.0
C423 C 0.61941 0.46057 0.31636 0.0
C424 C 0.6777 0.3634 0.37933 0.0
C425 C 0.65342 0.66101 0.39987 0.0
C426 C 0.63776 0.78919 0.38991 0.0
C427 C 0.61557 0.74181 0.37918 0.0
C428 C 0.6233 0.67831 0.38416 0.0
C429 C 0.67583 0.70797 0.41021 0.0
C430 C 0.66814 0.77148 0.40523 0.0
C431 C 0.66148 0.59436 0.40583 0.0
H432 H 0.64837 0.09252 0.38931 0.0
H433 H 0.6324 0.20224 0.37932 0.0
H434 H 0.54012 0.14065 0.33348 0.0
H435 H 0.55558 1.03089 0.34393 0.0
H436 H 0.59198 0.75392 0.36734 0.0
H437 H 0.60569 0.64272 0.37592 0.0
H438 H 0.6993 0.69552 0.4222 0.0
H439 H 0.68611 0.80673 0.41314 0.0
Dy440 Dy 0.37642 0.7202 0.3668 0.0
Dy441 Dy 0.34033 0.58703 0.39264 0.0
C442 C 0.36218 0.69394 0.44116 0.0
O443 O 0.42018 0.65941 0.38051 0.0
O444 O 0.39396 0.56238 0.38008 0.0
O445 O 0.41001 0.79956 0.37315 0.0
O446 O 0.37666 0.7958 0.33205 0.0
O447 O 0.3398 0.58372 0.33935 0.0
O448 O 0.38318 0.65197 0.3261 0.0
O449 O 0.30203 0.66477 0.39875 0.0
O450 O 0.32138 0.71968 0.35583 0.0
O451 O 0.30056 0.51697 0.38793 0.0
O452 O 0.33831 0.50858 0.42529 0.0
C453 C 0.42147 0.59767 0.38016 0.0
O454 O 0.36062 0.73579 0.41806 0.0
O455 O 0.36208 0.63348 0.43544 0.0
C456 C 0.386 0.89631 0.35505 0.0
C457 C 0.36522 1.02225 0.36534 0.0
C458 C 0.37623 0.98478 0.39103 0.0
C459 C 0.38636 0.92246 0.38601 0.0
C460 C 0.37503 0.93382 0.32936 0.0
C461 C 0.36468 0.99605 0.33444 0.0
C462 C 0.39704 0.83055 0.34911 0.0
C463 C 0.36309 0.60421 0.31931 0.0
C464 C 0.29788 0.70922 0.37731 0.0
C465 C 0.31939 0.4146 0.40138 0.0
C466 C 0.3317 0.28657 0.38724 0.0
C467 C 0.35673 0.33233 0.38121 0.0
C468 C 0.3506 0.39563 0.38812 0.0
C469 C 0.29415 0.36934 0.40709 0.0
C470 C 0.30024 0.30585 0.40013 0.0
C471 C 0.31352 0.481 0.41008 0.0
H472 H 0.37687 1.00369 0.41511 0.0
H473 H 0.39454 0.89495 0.4064 0.0
H474 H 0.37464 0.91505 0.30525 0.0
H475 H 0.35691 1.02408 0.31408 0.0
H476 H 0.38114 0.31909 0.37114 0.0
H477 H 0.37039 0.42979 0.38346 0.0
H478 H 0.26992 0.38296 0.4174 0.0
H479 H 0.28064 0.2717 0.4056 0.0
Dy480 Dy 0.34353 0.49108 0.88727 0.0
Dy481 Dy 0.38006 0.35604 0.86536 0.0
C482 C 0.36051 0.46352 0.81578 0.0
O483 O 0.30362 0.41815 0.89555 0.0
O484 O 0.32427 0.3428 0.86097 0.0
O485 O 0.30595 0.56381 0.87925 0.0
O486 O 0.34262 0.57332 0.91745 0.0
O487 O 0.36517 0.34111 0.91689 0.0
O488 O 0.35891 0.44462 0.93252 0.0
O489 O 0.42135 0.41647 0.88395 0.0
O490 O 0.39733 0.51227 0.87345 0.0
O491 O 0.41484 0.27866 0.8725 0.0
O492 O 0.38501 0.28409 0.82912 0.0
C493 C 0.30011 0.36561 0.87931 0.0
O494 O 0.33545 0.47588 0.83539 0.0
O495 O 0.38517 0.42562 0.82469 0.0
C496 C 0.32549 0.66605 0.89155 0.0
C497 C 0.3408 0.79245 0.87684 0.0
C498 C 0.35972 0.74322 0.86301 0.0
C499 C 0.35211 0.68051 0.87029 0.0
C500 C 0.30629 0.71485 0.90502 0.0
C501 C 0.31388 0.77748 0.89777 0.0
C502 C 0.31862 0.60068 0.90111 0.0
C503 C 0.36156 0.38453 0.93911 0.0
C504 C 0.42411 0.47704 0.8792 0.0
C505 C 0.39572 0.18337 0.85012 0.0
C506 C 0.37713 0.05581 0.85669 0.0
C507 C 0.35898 0.10307 0.87299 0.0
C508 C 0.36818 0.16626 0.86972 0.0
C509 C 0.41394 0.13656 0.83385 0.0
C510 C 0.40481 0.07329 0.83716 0.0
C511 C 0.4054 0.24981 0.84645 0.0
H512 H 0.38099 0.75322 0.84727 0.0
H513 H 0.36737 0.64337 0.85983 0.0
H514 H 0.28572 0.70455 0.92153 0.0
H515 H 0.29878 0.81433 0.90868 0.0
H516 H 0.33751 0.09116 0.88815 0.0
H517 H 0.35387 0.20182 0.88252 0.0
H518 H 0.43535 0.14891 0.81871 0.0
H519 H 0.41975 1.03797 0.82485 0.0
Dy520 Dy 0.6371 0.58745 0.88861 0.0
Dy521 Dy 0.6004 0.72104 0.86505 0.0
C522 C 0.62252 0.61443 0.81595 0.0
O523 O 0.67372 0.66414 0.90087 0.0
O524 O 0.65633 0.73196 0.8616 0.0
O525 O 0.67491 0.5148 0.88108 0.0
O526 O 0.64011 0.50849 0.92102 0.0
O527 O 0.61173 0.73197 0.91755 0.0
O528 O 0.6095 0.6273 0.93044 0.0
O529 O 0.55797 0.65722 0.87867 0.0
O530 O 0.58503 0.56219 0.87199 0.0
O531 O 0.56537 0.79819 0.87198 0.0
O532 O 0.59808 0.79621 0.83022 0.0
C533 C 0.67833 0.71484 0.8834 0.0
O534 O 0.64646 0.60094 0.83654 0.0
O535 O 0.59759 0.65281 0.82379 0.0
C536 C 0.65654 0.41339 0.89678 0.0
C537 C 0.64068 0.28562 0.88577 0.0
C538 C 0.6238 0.33346 0.86879 0.0
C539 C 0.63161 0.3968 0.8743 0.0
C540 C 0.674 0.36588 0.91317 0.0
C541 C 0.66622 0.30259 0.90768 0.0
C542 C 0.66347 0.47984 0.90436 0.0
C543 C 0.6077 0.68666 0.9386 0.0
C544 C 0.5572 0.59575 0.87578 0.0
C545 C 0.58648 0.89531 0.85313 0.0
C546 C 0.60465 1.02207 0.86427 0.0
C547 C 0.62067 0.97307 0.88116 0.0
C548 C 0.61159 0.91034 0.87571 0.0
C549 C 0.57075 0.94383 0.83594 0.0
C550 C 0.57976 1.00661 0.84141 0.0
C551 C 0.57676 0.82934 0.84726 0.0
H552 H 0.60401 0.32192 0.85177 0.0
H553 H 0.61787 0.43286 0.86137 0.0
H554 H 0.69343 0.37775 0.9305 0.0
H555 H 0.6802 0.26686 0.92062 0.0
H556 H 0.64045 0.98318 0.8984 0.0
H557 H 0.62414 0.8735 0.88913 0.0
H558 H 0.55138 0.93317 0.81835 0.0
H559 H 0.56692 0.04319 0.82806 0.0
Dy560 Dy 0.3408 0.59005 0.62887 0.0
Dy561 Dy 0.37903 0.72446 0.6509 0.0
C562 C 0.35893 0.61638 0.70021 0.0
O563 O 0.30161 0.66396 0.6203 0.0
O564 O 0.32315 0.739 0.65452 0.0
O565 O 0.30339 0.51708 0.63702 0.0
O566 O 0.33967 0.50843 0.5982 0.0
O567 O 0.36588 0.7392 0.59913 0.0
O568 O 0.35702 0.63615 0.58362 0.0
O569 O 0.42048 0.6616 0.63404 0.0
O570 O 0.39404 0.567 0.64284 0.0
O571 O 0.41477 0.80055 0.64461 0.0
O572 O 0.38281 0.7973 0.68692 0.0
C573 C 0.29909 0.71762 0.63572 0.0
O574 O 0.33345 0.60494 0.68103 0.0
O575 O 0.38349 0.6546 0.69135 0.0
C576 C 0.32357 0.41495 0.62406 0.0
C577 C 0.34133 0.28922 0.63842 0.0
C578 C 0.34949 0.33823 0.65974 0.0
C579 C 0.34089 0.40059 0.65252 0.0
C580 C 0.31492 0.36623 0.60305 0.0
C581 C 0.32367 0.30405 0.61013 0.0
C582 C 0.31611 0.48049 0.61494 0.0
C583 C 0.3614 0.69592 0.57703 0.0
C584 C 0.42165 0.60056 0.63826 0.0
C585 C 0.39557 0.89767 0.66587 0.0
C586 C 0.37872 1.02616 0.65889 0.0
C587 C 0.37184 0.98308 0.63421 0.0
C588 C 0.38017 0.91947 0.63765 0.0
C589 C 0.4023 0.94045 0.69062 0.0
C590 C 0.39398 1.00412 0.68718 0.0
C591 C 0.40418 0.83056 0.67002 0.0
H592 H 0.36245 0.32844 0.68204 0.0
H593 H 0.34802 0.4376 0.669 0.0
H594 H 0.30184 0.37641 0.58084 0.0
H595 H 0.31721 0.26765 0.59309 0.0
H596 H 0.36017 0.9987 0.61213 0.0
H597 H 0.37448 0.88731 0.61829 0.0
H598 H 0.41388 0.92454 0.7127 0.0
H599 H 0.39906 1.03597 0.70681 0.0
Dy600 Dy 0.63356 0.49392 0.62485 0.0
Dy601 Dy 0.59928 0.35896 0.6501 0.0
C602 C 0.62176 0.46767 0.69826 0.0
O603 O 0.67173 0.41953 0.61275 0.0
O604 O 0.65524 0.34731 0.65081 0.0
O605 O 0.67206 0.5662 0.62861 0.0
O606 O 0.6326 0.57383 0.59291 0.0
O607 O 0.60993 0.34638 0.59752 0.0
O608 O 0.6065 0.45052 0.5838 0.0
O609 O 0.5562 0.4212 0.63702 0.0
O610 O 0.58179 0.51765 0.64334 0.0
O611 O 0.56362 0.2825 0.64497 0.0
O612 O 0.59824 0.2842 0.68523 0.0
C613 C 0.67695 0.36814 0.62949 0.0
O614 O 0.64445 0.48369 0.67676 0.0
O615 O 0.59746 0.42736 0.69138 0.0
C616 C 0.65239 0.66814 0.6155 0.0
C617 C 0.63944 0.79582 0.62959 0.0
C618 C 0.62857 0.74811 0.65063 0.0
C619 C 0.63497 0.68481 0.64364 0.0
C620 C 0.66333 0.71544 0.59452 0.0
C621 C 0.65686 0.77866 0.60143 0.0
C622 C 0.65796 0.60176 0.60696 0.0
C623 C 0.60574 0.39086 0.57606 0.0
C624 C 0.55448 0.48228 0.64093 0.0
C625 C 0.58517 0.18513 0.66317 0.0
C626 C 0.60399 0.05858 0.65291 0.0
C627 C 0.61154 0.10479 0.62989 0.0
C628 C 0.60233 0.16753 0.63502 0.0
C629 C 0.57723 0.13908 0.68601 0.0
C630 C 0.58646 0.0763 0.6809 0.0
C631 C 0.57606 0.25133 0.66918 0.0
H632 H 0.61511 0.75978 0.6725 0.0
H633 H 0.62607 0.64887 0.66003 0.0
H634 H 0.67645 0.70341 0.5725 0.0
H635 H 0.6648 0.81401 0.58432 0.0
H636 H 0.62428 0.09226 0.60777 0.0
H637 H 0.60859 0.2023 0.61699 0.0
H638 H 0.56404 0.15174 0.7079 0.0
H639 H 0.58029 0.04169 0.69903 0.0
C640 C 0.20796 0.31797 0.1244 0.0
C641 C 0.20857 0.25442 0.13361 0.0
C642 C 0.23752 0.35474 0.12527 0.0
C643 C 0.26836 0.32954 0.13634 0.0
H644 H 0.18439 0.33947 0.11662 0.0
H645 H 0.23597 0.40354 0.11805 0.0
S646 S 0.28274 0.16528 0.16351 0.0
N647 N 0.24212 0.16747 0.15368 0.0
N648 N 0.29765 0.23642 0.15633 0.0
C649 C 0.26919 0.26568 0.14545 0.0
C650 C 0.23928 0.22809 0.1438 0.0
C651 C 0.7713 0.75656 0.14073 0.0
C652 C 0.76981 0.81915 0.12958 0.0
C653 C 0.74329 0.71627 0.13829 0.0
C654 C 0.71287 0.7372 0.12466 0.0
H655 H 0.79408 0.73863 0.15206 0.0
H656 H 0.74494 0.66952 0.14845 0.0
S657 S 0.69601 0.89401 0.08966 0.0
N658 N 0.73566 0.89824 0.10245 0.0
N659 N 0.68282 0.82235 0.09842 0.0
C660 C 0.71124 0.79844 0.1123 0.0
C661 C 0.73983 0.83946 0.11451 0.0
C662 C 0.25096 0.76473 0.40709 0.0
C663 C 0.26818 0.75208 0.37815 0.0
C664 C 0.22456 0.8094 0.40843 0.0
C665 C 0.21446 0.84212 0.3808 0.0
H666 H 0.25811 0.74052 0.42887 0.0
H667 H 0.21123 0.81672 0.43087 0.0
S668 S 0.25123 0.82701 0.29937 0.0
N669 N 0.27313 0.77692 0.32135 0.0
N670 N 0.2236 0.85981 0.32405 0.0
C671 C 0.23156 0.83026 0.35193 0.0
C672 C 0.2584 0.78549 0.35054 0.0
C673 C 0.75209 0.26488 0.4084 0.0
C674 C 0.76665 0.24413 0.37944 0.0
C675 C 0.72403 0.30604 0.40847 0.0
C676 C 0.70953 0.32672 0.37957 0.0
H677 H 0.76294 0.25061 0.43106 0.0
H678 H 0.71319 0.32058 0.43118 0.0
S679 S 0.73806 0.28522 0.29748 0.0
N680 N 0.7644 0.24714 0.3213 0.0
N681 N 0.71172 0.32338 0.32141 0.0
C682 C 0.72378 0.30581 0.35058 0.0
C683 C 0.75233 0.26478 0.35051 0.0
C684 C 0.70641 0.81937 0.87964 0.0
C685 C 0.70838 0.75526 0.88806 0.0
C686 C 0.73501 0.8584 0.88104 0.0
C687 C 0.76653 0.83422 0.89043 0.0
H688 H 0.68275 0.83938 0.87119 0.0
H689 H 0.73283 0.90675 0.87318 0.0
S690 S 0.78493 0.67196 0.91746 0.0
N691 N 0.74405 0.67103 0.90846 0.0
N692 N 0.79811 0.74431 0.9103 0.0
C693 C 0.76869 0.7712 0.90018 0.0
C694 C 0.73947 0.73167 0.89928 0.0
C695 C 0.2696 0.26323 0.87905 0.0
C696 C 0.26834 0.32918 0.88172 0.0
C697 C 0.23988 0.22707 0.87942 0.0
C698 C 0.20787 0.25582 0.88169 0.0
H699 H 0.29377 0.2393 0.87645 0.0
H700 H 0.24193 0.17657 0.87677 0.0
S701 S 0.19078 0.42637 0.89093 0.0
N702 N 0.23262 0.42137 0.88841 0.0
N703 N 0.17651 0.35359 0.88827 0.0
C704 C 0.20624 0.32155 0.88512 0.0
C705 C 0.23657 0.35822 0.88541 0.0
C706 C 0.73924 0.35634 0.63535 0.0
C707 C 0.70816 0.33169 0.62506 0.0
C708 C 0.76803 0.31791 0.63739 0.0
C709 C 0.76676 0.25384 0.62876 0.0
H710 H 0.7409 0.40464 0.64339 0.0
H711 H 0.7913 0.33844 0.64641 0.0
S712 S 0.69151 0.16929 0.59738 0.0
N713 N 0.67765 0.24123 0.6045 0.0
N714 N 0.73216 0.16914 0.60726 0.0
C715 C 0.7361 0.22973 0.61676 0.0
C716 C 0.70664 0.26867 0.61527 0.0
C717 C 0.20638 0.7641 0.63174 0.0
C718 C 0.20803 0.83019 0.63132 0.0
C719 C 0.23602 0.72753 0.63181 0.0
C720 C 0.26818 0.75604 0.63238 0.0
H721 H 0.18198 0.74049 0.63235 0.0
H722 H 0.23371 0.67684 0.63267 0.0
S723 S 0.28616 0.92716 0.62989 0.0
N724 N 0.24423 0.92247 0.62979 0.0
N725 N 0.3001 0.85397 0.63086 0.0
C726 C 0.27016 0.82204 0.63116 0.0
C727 C 0.24001 0.85913 0.63035 0.0
C728 C 0.09169 1.03146 0.27254 0.0
C729 C 0.12273 1.01586 0.28733 0.0
C730 C 0.09075 0.07103 0.24546 0.0
C731 C 0.12085 0.09578 0.2321 0.0
H732 H 0.06793 1.01405 0.2823 0.0
H733 H 0.06639 0.08105 0.23451 0.0
S734 S 0.20865 0.06902 0.26178 0.0
N735 N 0.18426 1.02833 0.28642 0.0
N736 N 0.18248 0.10208 0.23596 0.0
C737 C 0.15196 0.08045 0.24675 0.0
C738 C 0.15291 0.04066 0.27421 0.0
C739 C 0.88976 0.05452 0.27283 0.0
C740 C 0.85945 0.07627 0.28708 0.0
C741 C 0.88904 1.01602 0.24532 0.0
C742 C 0.85802 0.99875 0.23091 0.0
H743 H 0.91409 0.06585 0.28348 0.0
H744 H 0.91294 1.0006 0.23499 0.0
S745 S 0.7717 0.04517 0.25864 0.0
N746 N 0.79774 0.07854 0.28446 0.0
N747 N 0.79632 1.00735 0.23302 0.0
C748 C 0.82766 1.02105 0.24483 0.0
C749 C 0.8284 0.05946 0.27283 0.0
C750 C 0.88594 0.06088 0.74456 0.0
C751 C 0.8553 0.08073 0.73035 0.0
C752 C 0.88585 1.02336 0.77239 0.0
C753 C 0.85514 1.00538 0.78726 0.0
H754 H 0.9101 0.07316 0.73369 0.0
H755 H 0.90998 1.00951 0.7827 0.0
S756 S 0.76811 0.04574 0.75974 0.0
N757 N 0.79353 0.07949 0.73333 0.0
N758 N 0.79339 1.01045 0.78562 0.0
C759 C 0.82443 1.02541 0.77336 0.0
C760 C 0.82451 0.06265 0.74494 0.0
C761 C 0.14638 0.06888 0.76855 0.0
C762 C 0.11584 0.08686 0.7836 0.0
C763 C 0.14655 1.02845 0.74214 0.0
C764 C 0.11621 1.00325 0.72977 0.0
H765 H 0.17056 0.08616 0.7773 0.0
H766 H 0.17083 1.01687 0.7313 0.0
S767 S 0.02919 1.0345 0.7607 0.0
N768 N 0.05425 0.07577 0.78442 0.0
N769 N 0.05455 0.99942 0.73461 0.0
C770 C 0.08537 1.02037 0.74465 0.0
C771 C 0.08517 0.06239 0.7715 0.0
C772 C 0.59027 0.51645 0.2711 0.0
C773 C 0.62011 0.49132 0.28456 0.0
C774 C 0.59156 0.55334 0.2431 0.0
C775 C 0.62266 0.56538 0.22736 0.0
H776 H 0.56595 0.50917 0.28281 0.0
H777 H 0.56801 0.5717 0.23346 0.0
S778 S 0.70778 0.50849 0.25265 0.0
N779 N 0.68142 0.48032 0.27994 0.0
N780 N 0.68385 0.54816 0.22727 0.0
C781 C 0.65252 0.53951 0.24043 0.0
C782 C 0.65123 0.50291 0.26903 0.0
C783 C 0.36931 0.60266 0.25954 0.0
C784 C 0.36694 0.56998 0.28866 0.0
C785 C 0.36907 0.57025 0.23022 0.0
C786 C 0.36752 0.50411 0.22907 0.0
H787 H 0.3699 0.65353 0.25936 0.0
H788 H 0.36976 0.5972 0.20822 0.0
S789 S 0.36399 0.39673 0.29872 0.0
N790 N 0.36458 0.46775 0.31465 0.0
N791 N 0.36558 0.40718 0.25954 0.0
C792 C 0.3669 0.47088 0.25802 0.0
C793 C 0.3662 0.5038 0.28783 0.0
C794 C 0.33096 0.5219 0.77236 0.0
C795 C 0.36163 0.49887 0.78515 0.0
C796 C 0.33061 0.56086 0.74539 0.0
C797 C 0.36094 0.57958 0.73028 0.0
H798 H 0.30682 0.50985 0.78335 0.0
H799 H 0.30625 0.57671 0.73637 0.0
S800 S 0.4482 0.53132 0.75348 0.0
N801 N 0.42331 0.49672 0.78014 0.0
N802 N 0.42263 0.57064 0.72935 0.0
C803 C 0.3919 0.55684 0.74258 0.0
C804 C 0.39225 0.51617 0.76995 0.0
C805 C 0.59166 0.55977 0.77123 0.0
C806 C 0.62243 0.5798 0.7851 0.0
C807 C 0.5915 0.52099 0.74389 0.0
C808 C 0.6221 0.5018 0.72922 0.0
H809 H 0.56758 0.57296 0.78197 0.0
H810 H 0.56729 0.50724 0.73374 0.0
S811 S 0.70938 0.54166 0.75608 0.0
N812 N 0.6842 0.57715 0.7821 0.0
N813 N 0.68387 0.50567 0.73068 0.0
C814 C 0.65293 0.52181 0.74282 0.0
C815 C 0.65311 0.5604 0.77075 0.0
C816 C 0.09716 0.23253 0.99028 0.0
C817 C 0.11843 0.19121 0.97311 0.0
C818 C 0.09702 0.23258 0.0241 0.0
C819 C 0.11814 0.19129 0.04136 0.0
H820 H 0.07928 0.26219 0.97764 0.0
H821 H 0.07905 0.26229 0.03669 0.0
S822 S 0.18295 0.08338 0.00737 0.0
N823 N 0.16434 0.11494 0.97585 0.0
N824 N 0.16405 0.11499 0.03881 0.0
C825 C 0.14125 0.15366 0.02429 0.0
C826 C 0.14141 0.15364 0.99027 0.0
C827 C 0.89056 0.85109 0.99163 0.0
C828 C 0.86076 0.86639 0.97475 0.0
C829 C 0.89081 0.8506 0.02539 0.0
C830 C 0.86128 0.86543 0.04294 0.0
H831 H 0.91426 0.84422 0.9788 0.0
H832 H 0.9147 0.84329 0.03772 0.0
S833 S 0.77618 0.9015 0.00978 0.0
N834 N 0.80056 0.89098 0.97793 0.0
N835 N 0.80105 0.8901 0.04107 0.0
C836 C 0.83094 0.87627 0.02621 0.0
C837 C 0.83068 0.87674 0.99212 0.0
C838 C 0.08349 0.92379 0.49113 0.0
C839 C 0.10593 0.88491 0.47393 0.0
C840 C 0.08246 0.92279 0.52453 0.0
C841 C 0.10375 0.88275 0.54216 0.0
H842 H 0.0679 0.95797 0.47871 0.0
H843 H 0.06612 0.95621 0.53671 0.0
S844 S 0.16451 0.76678 0.50859 0.0
N845 N 0.14785 0.80115 0.47676 0.0
N846 N 0.14583 0.7991 0.54007 0.0
C847 C 0.12435 0.83984 0.52535 0.0
C848 C 0.12545 0.84094 0.49103 0.0
C849 C 0.88862 0.23515 0.5254 0.0
C850 C 0.85936 0.21613 0.54229 0.0
C851 C 0.88904 0.23576 0.49163 0.0
C852 C 0.86017 0.21763 0.47406 0.0
H853 H 0.91196 0.2448 0.53822 0.0
H854 H 0.91273 0.24568 0.4793 0.0
S855 S 0.77647 0.17062 0.50732 0.0
N856 N 0.80021 0.18429 0.53913 0.0
N857 N 0.80104 0.18515 0.47602 0.0
C858 C 0.83023 0.20297 0.49083 0.0
C859 C 0.82981 0.20232 0.52493 0.0
C860 C 0.62474 0.73822 0.0238 0.0
C861 C 0.60278 0.69817 0.04096 0.0
C862 C 0.62431 0.73929 0.99002 0.0
C863 C 0.60192 0.70033 0.97281 0.0
H864 H 0.64409 0.76476 0.03632 0.0
H865 H 0.64334 0.76666 0.97741 0.0
S866 S 0.53519 0.59697 1.00694 0.0
N867 N 0.55491 0.62623 0.03845 0.0
N868 N 0.5542 0.62813 0.9754 0.0
C869 C 0.57785 0.66496 0.9899 0.0
C870 C 0.57825 0.66394 0.02394 0.0
C871 C 0.38495 0.34008 0.99018 0.0
C872 C 0.35785 0.36729 0.97314 0.0
C873 C 0.38514 0.34042 0.02397 0.0
C874 C 0.35819 0.36779 0.0413 0.0
H875 H 0.40718 0.32308 0.97746 0.0
H876 H 0.40749 0.32364 0.03644 0.0
S877 S 0.27944 0.43659 0.00771 0.0
N878 N 0.30198 0.41562 0.97603 0.0
N879 N 0.30238 0.41625 0.03912 0.0
C880 C 0.32992 0.39032 0.02443 0.0
C881 C 0.32973 0.39003 0.99038 0.0
C882 C 0.57925 0.4147 0.49071 0.0
C883 C 0.60129 0.37494 0.47358 0.0
C884 C 0.57895 0.41532 0.52412 0.0
C885 C 0.60063 0.37613 0.54184 0.0
H886 H 0.5634 0.4483 0.47818 0.0
H887 H 0.56292 0.44941 0.53618 0.0
S888 S 0.66047 0.25819 0.5086 0.0
N889 N 0.64316 0.29109 0.47668 0.0
N890 N 0.64252 0.29218 0.53999 0.0
C891 C 0.62079 0.3323 0.52518 0.0
C892 C 0.62113 0.33171 0.49085 0.0
C893 C 0.38751 0.73408 0.52584 0.0
C894 C 0.35876 0.71352 0.54303 0.0
C895 C 0.3877 0.73358 0.49209 0.0
C896 C 0.35908 0.71288 0.47491 0.0
H897 H 0.41072 0.74578 0.53844 0.0
H898 H 0.41105 0.74488 0.4795 0.0
S899 S 0.27637 0.6625 0.50894 0.0
N900 N 0.30012 0.67823 0.54051 0.0
N901 N 0.30049 0.67741 0.47739 0.0
C902 C 0.32952 0.697 0.49192 0.0
C903 C 0.32934 0.69734 0.52599 0.0
C904 C 0.98528 0.97407 0.13623 0.0
C905 C 0.95515 1.00982 0.1382 0.0
C906 C 0.01732 1.00283 0.13647 0.0
C907 C 0.02045 0.06845 0.13843 0.0
H908 H 0.98426 0.92334 0.13451 0.0
H909 H 0.03974 0.9734 0.13472 0.0
S910 S 0.94964 0.1836 0.14538 0.0
N911 N 0.93073 0.11465 0.14298 0.0
N912 N -0.00925 0.16849 0.14355 0.0
C913 C -0.00942 0.10482 0.14073 0.0
C914 C 0.958 0.07558 0.14058 0.0
C915 C 0.96381 1.01212 0.38212 0.0
C916 C 0.95929 0.07732 0.37899 0.0
C917 C -0.00369 0.98528 0.38163 0.0
C918 C 0.02572 1.02243 0.37786 0.0
H919 H 0.94209 0.98137 0.38525 0.0
H920 H -0.00176 0.93482 0.3844 0.0
S921 S 0.02784 0.1957 0.36724 0.0
N922 N 0.98709 0.17855 0.371 0.0
N923 N 0.04806 0.12804 0.37008 0.0
C924 C 0.02159 0.08775 0.37433 0.0
C925 C 0.98845 0.11517 0.37491 0.0
C926 C -0.00757 0.09911 0.88367 0.0
C927 C 0.02202 0.06332 0.87814 0.0
C928 C 0.96025 0.07134 0.88392 0.0
C929 C 0.95632 1.00656 0.87887 0.0
H930 H -0.00607 0.14926 0.88779 0.0
H931 H 0.93834 0.10099 0.8884 0.0
S932 S 0.02544 0.8917 0.86238 0.0
N933 N 0.04519 0.95948 0.86687 0.0
N934 N 0.98463 0.90717 0.86738 0.0
C935 C 0.98561 0.97001 0.87316 0.0
C936 C 0.01846 0.99841 0.87277 0.0
C937 C 0.95886 1.00954 0.63563 0.0
C938 C 0.95526 0.07504 0.63805 0.0
C939 C -0.00903 0.98129 0.63608 0.0
C940 C 0.02082 1.01733 0.63914 0.0
H941 H 0.93673 0.97963 0.6331 0.0
H942 H -0.00776 0.93063 0.63398 0.0
S943 S 0.0253 0.19093 0.64747 0.0
N944 N 0.98432 0.1754 0.64445 0.0
N945 N 0.04461 0.12228 0.64526 0.0
C946 C 0.0176 0.08296 0.64193 0.0
C947 C 0.98486 0.1118 0.64137 0.0
C948 C 0.48615 0.47389 0.13005 0.0
C949 C 0.4569 0.50999 0.13658 0.0
C950 C 0.51867 0.50053 0.13097 0.0
C951 C 0.52322 0.56436 0.13833 0.0
H952 H 0.48402 0.42461 0.12393 0.0
H953 H 0.54033 0.47098 0.12535 0.0
S954 S 0.45525 0.67873 0.15941 0.0
N955 N 0.43485 0.6126 0.15212 0.0
N956 N 0.49589 0.66258 0.15379 0.0
C957 C 0.49428 0.60091 0.14542 0.0
C958 C 0.46116 0.57377 0.14455 0.0
C959 C 0.48489 0.60057 0.38612 0.0
C960 C 0.45523 0.56682 0.37828 0.0
C961 C 0.51708 0.57229 0.3847 0.0
C962 C 0.52081 0.50914 0.37548 0.0
H963 H 0.48326 0.64906 0.39383 0.0
H964 H 0.53909 0.5998 0.39152 0.0
S965 S 0.45171 0.40196 0.34924 0.0
N966 N 0.43214 0.46802 0.3586 0.0
N967 N 0.49241 0.41492 0.35616 0.0
C968 C 0.4915 0.47532 0.36675 0.0
C969 C 0.45879 0.50411 0.36811 0.0
C970 C 0.46176 0.5711 0.87498 0.0
C971 C 0.45841 0.50573 0.87867 0.0
C972 C 0.49378 0.59958 0.87396 0.0
C973 C 0.5238 0.56387 0.87642 0.0
H974 H 0.4395 0.60082 0.87288 0.0
H975 H 0.49488 0.65011 0.87107 0.0
S976 S 0.52923 0.39079 0.88654 0.0
N977 N 0.4881 0.40581 0.88483 0.0
N978 N 0.54819 0.45955 0.88299 0.0
C979 C 0.52091 0.4984 0.88008 0.0
C980 C 0.48826 0.46931 0.88122 0.0
C981 C 0.48472 0.60291 0.63107 0.0
C982 C 0.45523 0.56944 0.63982 0.0
C983 C 0.51685 0.57477 0.63219 0.0
C984 C 0.52066 0.51202 0.64192 0.0
H985 H 0.48307 0.65113 0.62294 0.0
H986 H 0.53875 0.60204 0.62469 0.0
S987 S 0.45212 0.40535 0.67018 0.0
N988 N 0.43233 0.47105 0.66062 0.0
N989 N 0.49273 0.41824 0.66251 0.0
C990 C 0.49158 0.47834 0.65149 0.0
C991 C 0.45886 0.50701 0.65049 0.0
C992 C 0.14354 0.67443 0.14213 0.0
C993 C 0.11931 0.72038 0.1339 0.0
C994 C 0.13432 0.61119 0.14591 0.0
C995 C 0.10049 0.5913 0.14168 0.0
H996 H 0.16979 0.68758 0.14622 0.0
H997 H 0.15379 0.57775 0.15273 0.0
S998 S 0.02782 0.69189 0.11753 0.0
N999 N 0.06031 0.74081 0.11989 0.0
N1000 N 0.043 0.62207 0.12715 0.0
C1001 C 0.07608 0.63653 0.13301 0.0
C1002 C 0.08547 0.70095 0.12909 0.0
C1003 C 0.82383 0.40262 0.14777 0.0
C1004 C 0.84889 0.35596 0.14364 0.0
C1005 C 0.83265 0.46592 0.15263 0.0
C1006 C 0.8669 0.48529 0.15355 0.0
H1007 H 0.79713 0.39007 0.14744 0.0
H1008 H 0.81243 0.49992 0.15594 0.0
S1009 S 0.94225 0.38251 0.14164 0.0
N1010 N 0.90946 0.33427 0.13928 0.0
N1011 N 0.92599 0.45282 0.14839 0.0
C1012 C 0.89221 0.43918 0.14922 0.0
C1013 C 0.88324 0.37475 0.14429 0.0
C1014 C 0.13433 0.4131 0.403 0.0
C1015 C 0.13977 0.37099 0.37747 0.0
C1016 C 0.12615 0.47647 0.39747 0.0
C1017 C 0.12305 0.50044 0.36618 0.0
H1018 H 0.13577 0.39668 0.42751 0.0
H1019 H 0.12156 0.50665 0.41792 0.0
S1020 S 0.13811 0.41142 0.29102 0.0
N1021 N 0.14369 0.359 0.31969 0.0
N1022 N 0.12836 0.47783 0.30932 0.0
C1023 C 0.12916 0.45918 0.34043 0.0
C1024 C 0.13749 0.39465 0.34606 0.0
C1025 C 0.85844 0.61361 0.39546 0.0
C1026 C 0.86127 0.59042 0.364 0.0
C1027 C 0.85072 0.67692 0.40145 0.0
C1028 C 0.84546 0.71975 0.37623 0.0
H1029 H 0.86284 0.58278 0.41568 0.0
H1030 H 0.84944 0.6927 0.42608 0.0
S1031 S 0.847 0.6817 0.28949 0.0
N1032 N 0.85627 0.61458 0.3073 0.0
N1033 N 0.8417 0.73347 0.31854 0.0
C1034 C 0.84763 0.69697 0.34464 0.0
C1035 C 0.85553 0.63244 0.33854 0.0
C1036 C 0.8738 0.38265 0.86266 0.0
C1037 C 0.84129 0.36513 0.8738 0.0
C1038 C 0.88203 0.44581 0.85682 0.0
C1039 C 0.85814 0.49401 0.862 0.0
H1040 H 0.89337 0.34743 0.85923 0.0
H1041 H 0.90761 0.45716 0.84898 0.0
S1042 S 0.76834 0.47284 0.88746 0.0
N1043 N 0.78421 0.40099 0.88719 0.0
N1044 N 0.79984 0.51958 0.87652 0.0
C1045 C 0.82526 0.47708 0.8722 0.0
C1046 C 0.81681 0.41276 0.87803 0.0
C1047 C 0.11329 0.62601 0.84502 0.0
C1048 C 0.10077 0.59105 0.87117 0.0
C1049 C 0.12275 0.68926 0.84845 0.0
C1050 C 0.1202 0.71997 0.87819 0.0
H1051 H 0.11638 0.60402 0.82181 0.0
H1052 H 0.13272 0.71399 0.82778 0.0
S1053 S 0.086 0.65167 0.95339 0.0
N1054 N 0.08418 0.59346 0.92732 0.0
N1055 N 0.10232 0.71197 0.93377 0.0
C1056 C 0.10715 0.68603 0.90438 0.0
C1057 C 0.09737 0.62174 0.90087 0.0
C1058 C 0.84722 0.6783 0.6178 0.0
C1059 C 0.84284 0.72051 0.64344 0.0
C1060 C 0.85568 0.61509 0.62312 0.0
C1061 C 0.86007 0.59133 0.65431 0.0
H1062 H 0.84468 0.69451 0.59333 0.0
H1063 H 0.85937 0.58482 0.60255 0.0
S1064 S 0.84868 0.68105 0.72983 0.0
N1065 N 0.84177 0.73321 0.70128 0.0
N1066 N 0.85746 0.61442 0.71131 0.0
C1067 C 0.85521 0.63278 0.68021 0.0
C1068 C 0.84666 0.69726 0.67478 0.0
C1069 C 0.12279 0.38841 0.66539 0.0
C1070 C 0.12546 0.36297 0.63436 0.0
C1071 C 0.11401 0.4517 0.67024 0.0
C1072 C 0.10758 0.49212 0.64424 0.0
H1073 H 0.12801 0.3594 0.68612 0.0
H1074 H 0.11273 0.46936 0.69454 0.0
S1075 S 0.10793 0.44735 0.55837 0.0
N1076 N 0.11875 0.38231 0.57734 0.0
N1077 N 0.10241 0.50104 0.58644 0.0
C1078 C 0.10956 0.46702 0.61313 0.0
C1079 C 0.11845 0.4026 0.6082 0.0
C1080 C 0.59836 0.12724 0.1527 0.0
C1081 C 0.62262 0.07936 0.14826 0.0
C1082 C 0.6064 0.19043 0.14682 0.0
C1083 C 0.63906 0.20837 0.13631 0.0
H1084 H 0.5727 0.11564 0.16016 0.0
H1085 H 0.58662 0.22537 0.14986 0.0
S1086 S 0.71275 0.10176 0.12408 0.0
N1087 N 0.68131 0.05461 0.1347 0.0
N1088 N 0.6965 0.17333 0.12382 0.0
C1089 C 0.66382 0.1611 0.13251 0.0
C1090 C 0.65559 0.09669 0.13843 0.0
C1091 C 0.37693 0.87912 0.14153 0.0
C1092 C 0.34305 0.86081 0.13581 0.0
C1093 C 0.38554 0.94229 0.14671 0.0
C1094 C 0.36067 0.98984 0.14624 0.0
H1095 H 0.39713 0.84448 0.14141 0.0
H1096 H 0.41202 0.95414 0.15054 0.0
S1097 S 0.26786 0.96652 0.13523 0.0
N1098 N 0.28415 0.89524 0.13213 0.0
N1099 N 0.30045 1.01389 0.14144 0.0
C1100 C 0.32662 0.97218 0.14109 0.0
C1101 C 0.3178 0.90779 0.13599 0.0
C1102 C 0.61002 0.94124 0.34931 0.0
C1103 C 0.61231 0.98612 0.37399 0.0
C1104 C 0.61831 0.87791 0.35464 0.0
C1105 C 0.62925 0.8568 0.38487 0.0
H1106 H 0.60208 0.9553 0.32554 0.0
H1107 H 0.61649 0.84531 0.33481 0.0
S1108 S 0.63696 0.95428 0.45818 0.0
N1109 N 0.62464 1.00421 0.43024 0.0
N1110 N 0.64022 0.8854 0.44024 0.0
C1111 C 0.63131 0.90103 0.40985 0.0
C1112 C 0.62286 0.96553 0.40442 0.0
C1113 C 0.37779 0.12912 0.38761 0.0
C1114 C 0.35565 0.08921 0.37074 0.0
C1115 C 0.36984 0.19263 0.39267 0.0
C1116 C 0.33923 0.21882 0.38136 0.0
H1117 H 0.40172 0.11129 0.39667 0.0
H1118 H 0.38772 0.22137 0.40584 0.0
S1119 S 0.27217 0.13406 0.33626 0.0
N1120 N 0.3015 0.08015 0.34314 0.0
N1121 N 0.28661 0.19959 0.35247 0.0
C1122 C 0.3167 0.17932 0.36464 0.0
C1123 C 0.32493 0.11463 0.3593 0.0
C1124 C 0.35326 0.90118 0.89667 0.0
C1125 C 0.34993 0.85935 0.87076 0.0
C1126 C 0.36198 0.96437 0.89185 0.0
C1127 C 0.36774 0.98846 0.86091 0.0
H1128 H 0.34954 0.88473 0.92098 0.0
H1129 H 0.36469 0.99444 0.91262 0.0
S1130 S 0.35992 0.8997 0.78477 0.0
N1131 N 0.35159 0.84726 0.81288 0.0
N1132 N 0.3679 0.96607 0.8038 0.0
C1133 C 0.36416 0.94734 0.83473 0.0
C1134 C 0.3553 0.88287 0.83965 0.0
C1135 C 0.62882 0.19348 0.84969 0.0
C1136 C 0.63144 0.2183 0.88084 0.0
C1137 C 0.62022 0.13018 0.84455 0.0
C1138 C 0.61383 0.08911 0.87034 0.0
H1139 H 0.63388 0.22304 0.8291 0.0
H1140 H 0.61896 0.11308 0.82015 0.0
S1141 S 0.6142 0.13222 0.95647 0.0
N1142 N 0.62493 0.19767 0.93778 0.0
N1143 N 0.60871 0.07909 0.92815 0.0
C1144 C 0.61583 0.11363 0.90159 0.0
C1145 C 0.62462 0.17802 0.90682 0.0
C1146 C 0.33675 0.11063 0.64481 0.0
C1147 C 0.36958 0.09372 0.65506 0.0
C1148 C 0.32773 0.17377 0.64009 0.0
C1149 C 0.35121 0.22274 0.64523 0.0
H1150 H 0.31779 0.0747 0.6405 0.0
H1151 H 0.30207 0.18431 0.63235 0.0
S1152 S 0.44112 0.20318 0.67051 0.0
N1153 N 0.42594 0.13087 0.66944 0.0
N1154 N 0.40924 0.24937 0.66013 0.0
C1155 C 0.38417 0.20641 0.65551 0.0
C1156 C 0.39328 0.14205 0.6605 0.0
C1157 C 0.59833 0.88054 0.64581 0.0
C1158 C 0.63144 0.86304 0.63637 0.0
C1159 C 0.58977 0.94366 0.65135 0.0
C1160 C 0.61394 0.99188 0.64757 0.0
H1161 H 0.57864 0.84527 0.64835 0.0
H1162 H 0.56384 0.95491 0.65807 0.0
S1163 S 0.70496 0.97084 0.62622 0.0
N1164 N 0.6891 0.89901 0.6256 0.0
N1165 N 0.67292 1.0175 0.63576 0.0
C1166 C 0.64729 0.97502 0.63875 0.0
C1167 C 0.65606 0.91073 0.63322 0.0
loop_
_geom_bond_atom_site_label_1
_geom_bond_atom_site_label_2
_geom_bond_distance
_geom_bond_site_symmetry_2
_ccdc_geom_bond_type
Dy0 O3 2.307 . S
Dy0 O5 2.395 . S
Dy0 O6 2.379 . S
Dy0 O8 2.339 . S
Dy0 O10 2.298 . S
Dy0 O14 2.275 . S
Dy0 C22 2.738 . S
Dy1 O4 2.298 . S
Dy1 O7 2.275 . S
Dy1 O9 2.307 . S
Dy1 O11 2.395 1_545 S
Dy1 O12 2.379 1_545 S
Dy1 O15 2.339 . S
Dy1 C31 2.738 1_545 S
C2 O14 1.254 . S
C2 O15 1.257 . S
O3 Dy0 2.307 . S
O3 C13 1.266 . S
O4 Dy1 2.298 . S
O4 C13 1.236 . S
O5 Dy0 2.395 . S
O5 C22 1.255 . S
O6 Dy0 2.379 . S
O6 C22 1.249 . S
O7 Dy1 2.275 . S
O7 C23 1.254 . S
O8 Dy0 2.339 . S
O8 C23 1.257 . S
O9 Dy1 2.307 . S
O9 C24 1.266 . S
O10 Dy0 2.298 . S
O10 C24 1.236 . S
O11 Dy1 2.395 1_565 S
O11 C31 1.255 . S
O12 Dy1 2.379 1_565 S
O12 C31 1.249 . S
C13 O3 1.266 . S
C13 O4 1.236 . S
O14 Dy0 2.275 . S
O14 C2 1.254 . S
O15 Dy1 2.339 . S
O15 C2 1.257 . S
C16 C19 1.344 . S
C16 C20 1.328 . S
C16 C22 1.516 . S
C17 C18 1.304 . S
C17 C21 1.323 . S
C18 C17 1.304 . S
C18 C19 1.371 . S
C18 H32 0.930 . S
C19 C16 1.344 . S
C19 C18 1.371 . S
C19 H33 0.931 . S
C20 C16 1.328 . S
C20 C21 1.433 . S
C20 H34 0.931 . S
C21 C17 1.323 . S
C21 C20 1.433 . S
C21 H35 0.933 . S
C22 Dy0 2.738 . S
C22 O5 1.255 . S
C22 O6 1.249 . S
C22 C16 1.516 . S
C23 O7 1.254 . S
C23 O8 1.257 . S
C24 O9 1.266 . S
C24 O10 1.236 . S
C25 C28 1.344 . S
C25 C29 1.328 . S
C25 C31 1.516 . S
C26 C27 1.304 . S
C26 C30 1.323 . S
C27 C26 1.304 . S
C27 C28 1.371 . S
C27 H36 0.930 . S
C28 C25 1.344 . S
C28 C27 1.371 . S
C28 H37 0.931 . S
C29 C25 1.328 . S
C29 C30 1.433 . S
C29 H38 0.931 . S
C30 C26 1.323 . S
C30 C29 1.433 . S
C30 H39 0.933 . S
C31 Dy1 2.738 1_565 S
C31 O11 1.255 . S
C31 O12 1.249 . S
C31 C25 1.516 . S
H32 C18 0.930 . S
H33 C19 0.931 . S
H34 C20 0.931 . S
H35 C21 0.933 . S
H36 C27 0.930 . S
H37 C28 0.931 . S
H38 C29 0.931 . S
H39 C30 0.933 . S
Dy40 O43 2.307 . S
Dy40 O45 2.395 . S
Dy40 O46 2.379 . S
Dy40 O48 2.339 . S
Dy40 O50 2.298 . S
Dy40 O54 2.275 . S
Dy40 C62 2.738 . S
Dy41 O44 2.298 . S
Dy41 O47 2.275 . S
Dy41 O49 2.307 . S
Dy41 O51 2.395 1_565 S
Dy41 O52 2.379 1_565 S
Dy41 O55 2.339 . S
Dy41 C71 2.738 1_565 S
C42 O54 1.254 . S
C42 O55 1.257 . S
O43 Dy40 2.307 . S
O43 C53 1.266 . S
O44 Dy41 2.298 . S
O44 C53 1.236 . S
O45 Dy40 2.395 . S
O45 C62 1.255 . S
O46 Dy40 2.379 . S
O46 C62 1.249 . S
O47 Dy41 2.275 . S
O47 C63 1.254 . S
O48 Dy40 2.339 . S
O48 C63 1.257 . S
O49 Dy41 2.307 . S
O49 C64 1.266 . S
O50 Dy40 2.298 . S
O50 C64 1.236 . S
O51 Dy41 2.395 1_545 S
O51 C71 1.255 . S
O52 Dy41 2.379 1_545 S
O52 C71 1.249 . S
C53 O43 1.266 . S
C53 O44 1.236 . S
O54 Dy40 2.275 . S
O54 C42 1.254 . S
O55 Dy41 2.339 . S
O55 C42 1.257 . S
C56 C59 1.344 . S
C56 C60 1.328 . S
C56 C62 1.516 . S
C57 C58 1.304 . S
C57 C61 1.323 . S
C58 C57 1.304 . S
C58 C59 1.371 . S
C58 H72 0.930 . S
C59 C56 1.344 . S
C59 C58 1.371 . S
C59 H73 0.931 . S
C60 C56 1.328 . S
C60 C61 1.433 . S
C60 H74 0.931 . S
C61 C57 1.323 . S
C61 C60 1.433 . S
C61 H75 0.933 . S
C62 Dy40 2.738 . S
C62 O45 1.255 . S
C62 O46 1.249 . S
C62 C56 1.516 . S
C63 O47 1.254 . S
C63 O48 1.257 . S
C64 O49 1.266 . S
C64 O50 1.236 . S
C65 C68 1.344 . S
C65 C69 1.328 . S
C65 C71 1.516 . S
C66 C67 1.304 . S
C66 C70 1.323 . S
C67 C66 1.304 . S
C67 C68 1.371 . S
C67 H76 0.930 . S
C68 C65 1.344 . S
C68 C67 1.371 . S
C68 H77 0.931 . S
C69 C65 1.328 . S
C69 C70 1.433 . S
C69 H78 0.931 . S
C70 C66 1.323 . S
C70 C69 1.433 . S
C70 H79 0.933 . S
C71 Dy41 2.738 1_545 S
C71 O51 1.255 . S
C71 O52 1.249 . S
C71 C65 1.516 . S
H72 C58 0.930 . S
H73 C59 0.931 . S
H74 C60 0.931 . S
H75 C61 0.933 . S
H76 C67 0.930 . S
H77 C68 0.931 . S
H78 C69 0.931 . S
H79 C70 0.933 . S
Dy80 O83 2.307 . S
Dy80 O85 2.395 . S
Dy80 O86 2.379 . S
Dy80 O88 2.339 . S
Dy80 O90 2.298 . S
Dy80 O94 2.275 . S
Dy80 C102 2.738 . S
Dy81 O84 2.298 . S
Dy81 O87 2.275 . S
Dy81 O89 2.307 . S
Dy81 O91 2.395 1_565 S
Dy81 O92 2.379 1_565 S
Dy81 O95 2.339 . S
Dy81 C111 2.738 1_565 S
C82 O94 1.254 . S
C82 O95 1.257 . S
O83 Dy80 2.307 . S
O83 C93 1.266 . S
O84 Dy81 2.298 . S
O84 C93 1.236 . S
O85 Dy80 2.395 . S
O85 C102 1.255 . S
O86 Dy80 2.379 . S
O86 C102 1.249 . S
O87 Dy81 2.275 . S
O87 C103 1.254 . S
O88 Dy80 2.339 . S
O88 C103 1.257 . S
O89 Dy81 2.307 . S
O89 C104 1.266 . S
O90 Dy80 2.298 . S
O90 C104 1.236 . S
O91 Dy81 2.395 1_545 S
O91 C111 1.255 . S
O92 Dy81 2.379 1_545 S
O92 C111 1.249 . S
C93 O83 1.266 . S
C93 O84 1.236 . S
O94 Dy80 2.275 . S
O94 C82 1.254 . S
O95 Dy81 2.339 . S
O95 C82 1.257 . S
C96 C99 1.344 . S
C96 C100 1.328 . S
C96 C102 1.516 . S
C97 C98 1.304 . S
C97 C101 1.323 . S
C98 C97 1.304 . S
C98 C99 1.371 . S
C98 H112 0.930 . S
C99 C96 1.344 . S
C99 C98 1.371 . S
C99 H113 0.931 . S
C100 C96 1.328 . S
C100 C101 1.433 . S
C100 H114 0.931 . S
C101 C97 1.323 . S
C101 C100 1.433 . S
C101 H115 0.933 . S
C102 Dy80 2.738 . S
C102 O85 1.255 . S
C102 O86 1.249 . S
C102 C96 1.516 . S
C103 O87 1.254 . S
C103 O88 1.257 . S
C104 O89 1.266 . S
C104 O90 1.236 . S
C105 C108 1.344 . S
C105 C109 1.328 . S
C105 C111 1.516 . S
C106 C107 1.304 . S
C106 C110 1.323 . S
C107 C106 1.304 . S
C107 C108 1.371 . S
C107 H116 0.930 . S
C108 C105 1.344 . S
C108 C107 1.371 . S
C108 H117 0.931 . S
C109 C105 1.328 . S
C109 C110 1.433 . S
C109 H118 0.931 . S
C110 C106 1.323 . S
C110 C109 1.433 . S
C110 H119 0.933 . S
C111 Dy81 2.738 1_545 S
C111 O91 1.255 . S
C111 O92 1.249 . S
C111 C105 1.516 . S
H112 C98 0.930 . S
H113 C99 0.931 . S
H114 C100 0.931 . S
H115 C101 0.933 . S
H116 C107 0.930 . S
H117 C108 0.931 . S
H118 C109 0.931 . S
H119 C110 0.933 . S
Dy120 O123 2.307 . S
Dy120 O125 2.395 . S
Dy120 O126 2.379 . S
Dy120 O128 2.339 . S
Dy120 O130 2.298 . S
Dy120 O134 2.275 . S
Dy120 C142 2.738 . S
Dy121 O124 2.298 . S
Dy121 O127 2.275 . S
Dy121 O129 2.307 . S
Dy121 O131 2.395 1_545 S
Dy121 O132 2.379 1_545 S
Dy121 O135 2.339 . S
Dy121 C151 2.738 1_545 S
C122 O134 1.254 . S
C122 O135 1.257 . S
O123 Dy120 2.307 . S
O123 C133 1.266 . S
O124 Dy121 2.298 . S
O124 C133 1.236 . S
O125 Dy120 2.395 . S
O125 C142 1.255 . S
O126 Dy120 2.379 . S
O126 C142 1.249 . S
O127 Dy121 2.275 . S
O127 C143 1.254 . S
O128 Dy120 2.339 . S
O128 C143 1.257 . S
O129 Dy121 2.307 . S
O129 C144 1.266 . S
O130 Dy120 2.298 . S
O130 C144 1.236 . S
O131 Dy121 2.395 1_565 S
O131 C151 1.255 . S
O132 Dy121 2.379 1_565 S
O132 C151 1.249 . S
C133 O123 1.266 . S
C133 O124 1.236 . S
O134 Dy120 2.275 . S
O134 C122 1.254 . S
O135 Dy121 2.339 . S
O135 C122 1.257 . S
C136 C139 1.344 . S
C136 C140 1.328 . S
C136 C142 1.516 . S
C137 C138 1.304 . S
C137 C141 1.323 . S
C138 C137 1.304 . S
C138 C139 1.371 . S
C138 H152 0.930 . S
C139 C136 1.344 . S
C139 C138 1.371 . S
C139 H153 0.931 . S
C140 C136 1.328 . S
C140 C141 1.433 . S
C140 H154 0.931 . S
C141 C137 1.323 . S
C141 C140 1.433 . S
C141 H155 0.933 . S
C142 Dy120 2.738 . S
C142 O125 1.255 . S
C142 O126 1.249 . S
C142 C136 1.516 . S
C143 O127 1.254 . S
C143 O128 1.257 . S
C144 O129 1.266 . S
C144 O130 1.236 . S
C145 C148 1.344 . S
C145 C149 1.328 . S
C145 C151 1.516 . S
C146 C147 1.304 . S
C146 C150 1.323 . S
C147 C146 1.304 . S
C147 C148 1.371 . S
C147 H156 0.930 . S
C148 C145 1.344 . S
C148 C147 1.371 . S
C148 H157 0.931 . S
C149 C145 1.328 . S
C149 C150 1.433 . S
C149 H158 0.931 . S
C150 C146 1.323 . S
C150 C149 1.433 . S
C150 H159 0.933 . S
C151 Dy121 2.738 1_565 S
C151 O131 1.255 . S
C151 O132 1.249 . S
C151 C145 1.516 . S
H152 C138 0.930 . S
H153 C139 0.931 . S
H154 C140 0.931 . S
H155 C141 0.933 . S
H156 C147 0.930 . S
H157 C148 0.931 . S
H158 C149 0.931 . S
H159 C150 0.933 . S
Dy160 O163 2.307 . S
Dy160 O165 2.395 1_565 S
Dy160 O166 2.379 1_565 S
Dy160 O168 2.339 . S
Dy160 O170 2.298 . S
Dy160 O174 2.275 . S
Dy160 C182 2.738 1_565 S
Dy161 O164 2.298 . S
Dy161 O167 2.275 . S
Dy161 O169 2.307 . S
Dy161 O171 2.395 . S
Dy161 O172 2.379 . S
Dy161 O175 2.339 . S
Dy161 C191 2.738 . S
C162 O174 1.254 . S
C162 O175 1.257 . S
O163 Dy160 2.307 . S
O163 C173 1.266 . S
O164 Dy161 2.298 . S
O164 C173 1.236 . S
O165 Dy160 2.395 1_545 S
O165 C182 1.255 . S
O166 Dy160 2.379 1_545 S
O166 C182 1.249 . S
O167 Dy161 2.275 . S
O167 C183 1.254 . S
O168 Dy160 2.339 . S
O168 C183 1.257 . S
O169 Dy161 2.307 . S
O169 C184 1.266 . S
O170 Dy160 2.298 . S
O170 C184 1.236 . S
O171 Dy161 2.395 . S
O171 C191 1.255 . S
O172 Dy161 2.379 . S
O172 C191 1.249 . S
C173 O163 1.266 . S
C173 O164 1.236 . S
O174 Dy160 2.275 . S
O174 C162 1.254 . S
O175 Dy161 2.339 . S
O175 C162 1.257 . S
C176 C179 1.344 . S
C176 C180 1.328 . S
C176 C182 1.516 . S
C177 C178 1.304 . S
C177 C181 1.323 . S
C178 C177 1.304 . S
C178 C179 1.371 . S
C178 H192 0.930 . S
C179 C176 1.344 . S
C179 C178 1.371 . S
C179 H193 0.931 . S
C180 C176 1.328 . S
C180 C181 1.433 . S
C180 H194 0.931 . S
C181 C177 1.323 . S
C181 C180 1.433 . S
C181 H195 0.933 . S
C182 Dy160 2.738 1_545 S
C182 O165 1.255 . S
C182 O166 1.249 . S
C182 C176 1.516 . S
C183 O167 1.254 . S
C183 O168 1.257 . S
C184 O169 1.266 . S
C184 O170 1.236 . S
C185 C188 1.344 . S
C185 C189 1.328 . S
C185 C191 1.516 . S
C186 C187 1.304 . S
C186 C190 1.323 . S
C187 C186 1.304 . S
C187 C188 1.371 . S
C187 H196 0.930 . S
C188 C185 1.344 . S
C188 C187 1.371 . S
C188 H197 0.931 . S
C189 C185 1.328 . S
C189 C190 1.433 . S
C189 H198 0.931 . S
C190 C186 1.323 . S
C190 C189 1.433 . S
C190 H199 0.933 . S
C191 Dy161 2.738 . S
C191 O171 1.255 . S
C191 O172 1.249 . S
C191 C185 1.516 . S
H192 C178 0.930 . S
H193 C179 0.931 . S
H194 C180 0.931 . S
H195 C181 0.933 . S
H196 C187 0.930 . S
H197 C188 0.931 . S
H198 C189 0.931 . S
H199 C190 0.933 . S
Dy200 O203 2.307 . S
Dy200 O205 2.395 1_545 S
Dy200 O206 2.379 1_545 S
Dy200 O208 2.339 . S
Dy200 O210 2.298 . S
Dy200 O214 2.275 . S
Dy200 C222 2.738 1_545 S
Dy201 O204 2.298 . S
Dy201 O207 2.275 . S
Dy201 O209 2.307 . S
Dy201 O211 2.395 . S
Dy201 O212 2.379 . S
Dy201 O215 2.339 . S
Dy201 C231 2.738 . S
C202 O214 1.254 . S
C202 O215 1.257 . S
O203 Dy200 2.307 . S
O203 C213 1.266 . S
O204 Dy201 2.298 . S
O204 C213 1.236 . S
O205 Dy200 2.395 1_565 S
O205 C222 1.255 . S
O206 Dy200 2.379 1_565 S
O206 C222 1.249 . S
O207 Dy201 2.275 . S
O207 C223 1.254 . S
O208 Dy200 2.339 . S
O208 C223 1.257 . S
O209 Dy201 2.307 . S
O209 C224 1.266 . S
O210 Dy200 2.298 . S
O210 C224 1.236 . S
O211 Dy201 2.395 . S
O211 C231 1.255 . S
O212 Dy201 2.379 . S
O212 C231 1.249 . S
C213 O203 1.266 . S
C213 O204 1.236 . S
O214 Dy200 2.275 . S
O214 C202 1.254 . S
O215 Dy201 2.339 . S
O215 C202 1.257 . S
C216 C219 1.344 . S
C216 C220 1.328 . S
C216 C222 1.516 . S
C217 C218 1.304 . S
C217 C221 1.323 . S
C218 C217 1.304 . S
C218 C219 1.371 . S
C218 H232 0.930 . S
C219 C216 1.344 . S
C219 C218 1.371 . S
C219 H233 0.931 . S
C220 C216 1.328 . S
C220 C221 1.433 . S
C220 H234 0.931 . S
C221 C217 1.323 . S
C221 C220 1.433 . S
C221 H235 0.933 . S
C222 Dy200 2.738 1_565 S
C222 O205 1.255 . S
C222 O206 1.249 . S
C222 C216 1.516 . S
C223 O207 1.254 . S
C223 O208 1.257 . S
C224 O209 1.266 . S
C224 O210 1.236 . S
C225 C228 1.344 . S
C225 C229 1.328 . S
C225 C231 1.516 . S
C226 C227 1.304 . S
C226 C230 1.323 . S
C227 C226 1.304 . S
C227 C228 1.371 . S
C227 H236 0.930 . S
C228 C225 1.344 . S
C228 C227 1.371 . S
C228 H237 0.931 . S
C229 C225 1.328 . S
C229 C230 1.433 . S
C229 H238 0.931 . S
C230 C226 1.323 . S
C230 C229 1.433 . S
C230 H239 0.933 . S
C231 Dy201 2.738 . S
C231 O211 1.255 . S
C231 O212 1.249 . S
C231 C225 1.516 . S
H232 C218 0.930 . S
H233 C219 0.931 . S
H234 C220 0.931 . S
H235 C221 0.933 . S
H236 C227 0.930 . S
H237 C228 0.931 . S
H238 C229 0.931 . S
H239 C230 0.933 . S
Dy240 O243 2.307 . S
Dy240 O245 2.395 1_545 S
Dy240 O246 2.379 1_545 S
Dy240 O248 2.339 . S
Dy240 O250 2.298 . S
Dy240 O254 2.275 . S
Dy240 C262 2.738 1_545 S
Dy241 O244 2.298 . S
Dy241 O247 2.275 . S
Dy241 O249 2.307 . S
Dy241 O251 2.395 . S
Dy241 O252 2.379 . S
Dy241 O255 2.339 . S
Dy241 C271 2.738 . S
C242 O254 1.254 . S
C242 O255 1.257 . S
O243 Dy240 2.307 . S
O243 C253 1.266 . S
O244 Dy241 2.298 . S
O244 C253 1.236 . S
O245 Dy240 2.395 1_565 S
O245 C262 1.255 . S
O246 Dy240 2.379 1_565 S
O246 C262 1.249 . S
O247 Dy241 2.275 . S
O247 C263 1.254 . S
O248 Dy240 2.339 . S
O248 C263 1.257 . S
O249 Dy241 2.307 . S
O249 C264 1.266 . S
O250 Dy240 2.298 . S
O250 C264 1.236 . S
O251 Dy241 2.395 . S
O251 C271 1.255 . S
O252 Dy241 2.379 . S
O252 C271 1.249 . S
C253 O243 1.266 . S
C253 O244 1.236 . S
O254 Dy240 2.275 . S
O254 C242 1.254 . S
O255 Dy241 2.339 . S
O255 C242 1.257 . S
C256 C259 1.344 . S
C256 C260 1.328 . S
C256 C262 1.516 . S
C257 C258 1.304 . S
C257 C261 1.323 . S
C258 C257 1.304 . S
C258 C259 1.371 . S
C258 H272 0.930 . S
C259 C256 1.344 . S
C259 C258 1.371 . S
C259 H273 0.931 . S
C260 C256 1.328 . S
C260 C261 1.433 . S
C260 H274 0.931 . S
C261 C257 1.323 . S
C261 C260 1.433 . S
C261 H275 0.933 . S
C262 Dy240 2.738 1_565 S
C262 O245 1.255 . S
C262 O246 1.249 . S
C262 C256 1.516 . S
C263 O247 1.254 . S
C263 O248 1.257 . S
C264 O249 1.266 . S
C264 O250 1.236 . S
C265 C268 1.344 . S
C265 C269 1.328 . S
C265 C271 1.516 . S
C266 C267 1.304 . S
C266 C270 1.323 . S
C267 C266 1.304 . S
C267 C268 1.371 . S
C267 H276 0.930 . S
C268 C265 1.344 . S
C268 C267 1.371 . S
C268 H277 0.931 . S
C269 C265 1.328 . S
C269 C270 1.433 . S
C269 H278 0.931 . S
C270 C266 1.323 . S
C270 C269 1.433 . S
C270 H279 0.933 . S
C271 Dy241 2.738 . S
C271 O251 1.255 . S
C271 O252 1.249 . S
C271 C265 1.516 . S
H272 C258 0.930 . S
H273 C259 0.931 . S
H274 C260 0.931 . S
H275 C261 0.933 . S
H276 C267 0.930 . S
H277 C268 0.931 . S
H278 C269 0.931 . S
H279 C270 0.933 . S
Dy280 O283 2.307 . S
Dy280 O285 2.395 1_565 S
Dy280 O286 2.379 1_565 S
Dy280 O288 2.339 . S
Dy280 O290 2.298 . S
Dy280 O294 2.275 . S
Dy280 C302 2.738 1_565 S
Dy281 O284 2.298 . S
Dy281 O287 2.275 . S
Dy281 O289 2.307 . S
Dy281 O291 2.395 . S
Dy281 O292 2.379 . S
Dy281 O295 2.339 . S
Dy281 C311 2.738 . S
C282 O294 1.254 . S
C282 O295 1.257 . S
O283 Dy280 2.307 . S
O283 C293 1.266 . S
O284 Dy281 2.298 . S
O284 C293 1.236 . S
O285 Dy280 2.395 1_545 S
O285 C302 1.255 . S
O286 Dy280 2.379 1_545 S
O286 C302 1.249 . S
O287 Dy281 2.275 . S
O287 C303 1.254 . S
O288 Dy280 2.339 . S
O288 C303 1.257 . S
O289 Dy281 2.307 . S
O289 C304 1.266 . S
O290 Dy280 2.298 . S
O290 C304 1.236 . S
O291 Dy281 2.395 . S
O291 C311 1.255 . S
O292 Dy281 2.379 . S
O292 C311 1.249 . S
C293 O283 1.266 . S
C293 O284 1.236 . S
O294 Dy280 2.275 . S
O294 C282 1.254 . S
O295 Dy281 2.339 . S
O295 C282 1.257 . S
C296 C299 1.344 . S
C296 C300 1.328 . S
C296 C302 1.516 . S
C297 C298 1.304 . S
C297 C301 1.323 . S
C298 C297 1.304 . S
C298 C299 1.371 . S
C298 H312 0.930 . S
C299 C296 1.344 . S
C299 C298 1.371 . S
C299 H313 0.931 . S
C300 C296 1.328 . S
C300 C301 1.433 . S
C300 H314 0.931 . S
C301 C297 1.323 . S
C301 C300 1.433 . S
C301 H315 0.933 . S
C302 Dy280 2.738 1_545 S
C302 O285 1.255 . S
C302 O286 1.249 . S
C302 C296 1.516 . S
C303 O287 1.254 . S
C303 O288 1.257 . S
C304 O289 1.266 . S
C304 O290 1.236 . S
C305 C308 1.344 . S
C305 C309 1.328 . S
C305 C311 1.516 . S
C306 C307 1.304 . S
C306 C310 1.323 . S
C307 C306 1.304 . S
C307 C308 1.371 . S
C307 H316 0.930 . S
C308 C305 1.344 . S
C308 C307 1.371 . S
C308 H317 0.931 . S
C309 C305 1.328 . S
C309 C310 1.433 . S
C309 H318 0.931 . S
C310 C306 1.323 . S
C310 C309 1.433 . S
C310 H319 0.933 . S
C311 Dy281 2.738 . S
C311 O291 1.255 . S
C311 O292 1.249 . S
C311 C305 1.516 . S
H312 C298 0.930 . S
H313 C299 0.931 . S
H314 C300 0.931 . S
H315 C301 0.933 . S
H316 C307 0.930 . S
H317 C308 0.931 . S
H318 C309 0.931 . S
H319 C310 0.933 . S
Dy320 O323 2.307 . S
Dy320 O325 2.395 . S
Dy320 O326 2.379 . S
Dy320 O328 2.339 . S
Dy320 O330 2.298 . S
Dy320 O334 2.275 . S
Dy320 C342 2.738 . S
Dy321 O324 2.298 . S
Dy321 O327 2.275 . S
Dy321 O329 2.307 . S
Dy321 O331 2.395 . S
Dy321 O332 2.379 . S
Dy321 O335 2.339 . S
Dy321 C351 2.738 . S
C322 O334 1.254 . S
C322 O335 1.257 . S
O323 Dy320 2.307 . S
O323 C333 1.266 . S
O324 Dy321 2.298 . S
O324 C333 1.236 . S
O325 Dy320 2.395 . S
O325 C342 1.255 . S
O326 Dy320 2.379 . S
O326 C342 1.249 . S
O327 Dy321 2.275 . S
O327 C343 1.254 . S
O328 Dy320 2.339 . S
O328 C343 1.257 . S
O329 Dy321 2.307 . S
O329 C344 1.266 . S
O330 Dy320 2.298 . S
O330 C344 1.236 . S
O331 Dy321 2.395 . S
O331 C351 1.255 . S
O332 Dy321 2.379 . S
O332 C351 1.249 . S
C333 O323 1.266 . S
C333 O324 1.236 . S
O334 Dy320 2.275 . S
O334 C322 1.254 . S
O335 Dy321 2.339 . S
O335 C322 1.257 . S
C336 C339 1.344 . S
C336 C340 1.328 . S
C336 C342 1.516 . S
C337 C338 1.304 . S
C337 C341 1.323 . S
C338 C337 1.304 . S
C338 C339 1.371 . S
C338 H352 0.930 . S
C339 C336 1.344 . S
C339 C338 1.371 . S
C339 H353 0.931 . S
C340 C336 1.328 . S
C340 C341 1.433 . S
C340 H354 0.931 . S
C341 C337 1.323 . S
C341 C340 1.433 . S
C341 H355 0.933 . S
C342 Dy320 2.738 . S
C342 O325 1.255 . S
C342 O326 1.249 . S
C342 C336 1.516 . S
C343 O327 1.254 . S
C343 O328 1.257 . S
C344 O329 1.266 . S
C344 O330 1.236 . S
C345 C348 1.344 . S
C345 C349 1.328 . S
C345 C351 1.516 . S
C346 C347 1.304 . S
C346 C350 1.323 . S
C347 C346 1.304 . S
C347 C348 1.371 . S
C347 H356 0.930 . S
C348 C345 1.344 . S
C348 C347 1.371 . S
C348 H357 0.931 . S
C349 C345 1.328 . S
C349 C350 1.433 . S
C349 H358 0.931 . S
C350 C346 1.323 . S
C350 C349 1.433 . S
C350 H359 0.933 . S
C351 Dy321 2.738 . S
C351 O331 1.255 . S
C351 O332 1.249 . S
C351 C345 1.516 . S
H352 C338 0.930 . S
H353 C339 0.931 . S
H354 C340 0.931 . S
H355 C341 0.933 . S
H356 C347 0.930 . S
H357 C348 0.931 . S
H358 C349 0.931 . S
H359 C350 0.933 . S
Dy360 O363 2.307 . S
Dy360 O365 2.395 . S
Dy360 O366 2.379 . S
Dy360 O368 2.339 . S
Dy360 O370 2.298 . S
Dy360 O374 2.275 . S
Dy360 C382 2.738 . S
Dy361 O364 2.298 . S
Dy361 O367 2.275 . S
Dy361 O369 2.307 . S
Dy361 O371 2.395 . S
Dy361 O372 2.379 . S
Dy361 O375 2.339 . S
Dy361 C391 2.738 . S
C362 O374 1.254 . S
C362 O375 1.257 . S
O363 Dy360 2.307 . S
O363 C373 1.266 . S
O364 Dy361 2.298 . S
O364 C373 1.236 . S
O365 Dy360 2.395 . S
O365 C382 1.255 . S
O366 Dy360 2.379 . S
O366 C382 1.249 . S
O367 Dy361 2.275 . S
O367 C383 1.254 . S
O368 Dy360 2.339 . S
O368 C383 1.257 . S
O369 Dy361 2.307 . S
O369 C384 1.266 . S
O370 Dy360 2.298 . S
O370 C384 1.236 . S
O371 Dy361 2.395 . S
O371 C391 1.255 . S
O372 Dy361 2.379 . S
O372 C391 1.249 . S
C373 O363 1.266 . S
C373 O364 1.236 . S
O374 Dy360 2.275 . S
O374 C362 1.254 . S
O375 Dy361 2.339 . S
O375 C362 1.257 . S
C376 C379 1.344 . S
C376 C380 1.328 . S
C376 C382 1.516 . S
C377 C378 1.304 . S
C377 C381 1.323 . S
C378 C377 1.304 . S
C378 C379 1.371 . S
C378 H392 0.930 . S
C379 C376 1.344 . S
C379 C378 1.371 . S
C379 H393 0.931 . S
C380 C376 1.328 . S
C380 C381 1.433 . S
C380 H394 0.931 . S
C381 C377 1.323 . S
C381 C380 1.433 . S
C381 H395 0.933 . S
C382 Dy360 2.738 . S
C382 O365 1.255 . S
C382 O366 1.249 . S
C382 C376 1.516 . S
C383 O367 1.254 . S
C383 O368 1.257 . S
C384 O369 1.266 . S
C384 O370 1.236 . S
C385 C388 1.344 . S
C385 C389 1.328 . S
C385 C391 1.516 . S
C386 C387 1.304 . S
C386 C390 1.323 . S
C387 C386 1.304 . S
C387 C388 1.371 . S
C387 H396 0.930 . S
C388 C385 1.344 . S
C388 C387 1.371 . S
C388 H397 0.931 . S
C389 C385 1.328 . S
C389 C390 1.433 . S
C389 H398 0.931 . S
C390 C386 1.323 . S
C390 C389 1.433 . S
C390 H399 0.933 . S
C391 Dy361 2.738 . S
C391 O371 1.255 . S
C391 O372 1.249 . S
C391 C385 1.516 . S
H392 C378 0.930 . S
H393 C379 0.931 . S
H394 C380 0.931 . S
H395 C381 0.933 . S
H396 C387 0.930 . S
H397 C388 0.931 . S
H398 C389 0.931 . S
H399 C390 0.933 . S
Dy400 O403 2.307 . S
Dy400 O405 2.395 . S
Dy400 O406 2.379 . S
Dy400 O408 2.339 . S
Dy400 O410 2.298 . S
Dy400 O414 2.275 . S
Dy400 C422 2.738 . S
Dy401 O404 2.298 . S
Dy401 O407 2.275 . S
Dy401 O409 2.307 . S
Dy401 O411 2.395 . S
Dy401 O412 2.379 . S
Dy401 O415 2.339 . S
Dy401 C431 2.738 . S
C402 O414 1.254 . S
C402 O415 1.257 . S
O403 Dy400 2.307 . S
O403 C413 1.266 . S
O404 Dy401 2.298 . S
O404 C413 1.236 . S
O405 Dy400 2.395 . S
O405 C422 1.255 . S
O406 Dy400 2.379 . S
O406 C422 1.249 . S
O407 Dy401 2.275 . S
O407 C423 1.254 . S
O408 Dy400 2.339 . S
O408 C423 1.257 . S
O409 Dy401 2.307 . S
O409 C424 1.266 . S
O410 Dy400 2.298 . S
O410 C424 1.236 . S
O411 Dy401 2.395 . S
O411 C431 1.255 . S
O412 Dy401 2.379 . S
O412 C431 1.249 . S
C413 O403 1.266 . S
C413 O404 1.236 . S
O414 Dy400 2.275 . S
O414 C402 1.254 . S
O415 Dy401 2.339 . S
O415 C402 1.257 . S
C416 C419 1.344 . S
C416 C420 1.328 . S
C416 C422 1.516 . S
C417 C418 1.304 . S
C417 C421 1.323 . S
C418 C417 1.304 . S
C418 C419 1.371 . S
C418 H432 0.930 . S
C419 C416 1.344 . S
C419 C418 1.371 . S
C419 H433 0.931 . S
C420 C416 1.328 . S
C420 C421 1.433 . S
C420 H434 0.931 . S
C421 C417 1.323 . S
C421 C420 1.433 . S
C421 H435 0.933 . S
C422 Dy400 2.738 . S
C422 O405 1.255 . S
C422 O406 1.249 . S
C422 C416 1.516 . S
C423 O407 1.254 . S
C423 O408 1.257 . S
C424 O409 1.266 . S
C424 O410 1.236 . S
C425 C428 1.344 . S
C425 C429 1.328 . S
C425 C431 1.516 . S
C426 C427 1.304 . S
C426 C430 1.323 . S
C427 C426 1.304 . S
C427 C428 1.371 . S
C427 H436 0.930 . S
C428 C425 1.344 . S
C428 C427 1.371 . S
C428 H437 0.931 . S
C429 C425 1.328 . S
C429 C430 1.433 . S
C429 H438 0.931 . S
C430 C426 1.323 . S
C430 C429 1.433 . S
C430 H439 0.933 . S
C431 Dy401 2.738 . S
C431 O411 1.255 . S
C431 O412 1.249 . S
C431 C425 1.516 . S
H432 C418 0.930 . S
H433 C419 0.931 . S
H434 C420 0.931 . S
H435 C421 0.933 . S
H436 C427 0.930 . S
H437 C428 0.931 . S
H438 C429 0.931 . S
H439 C430 0.933 . S
Dy440 O443 2.307 . S
Dy440 O445 2.395 . S
Dy440 O446 2.379 . S
Dy440 O448 2.339 . S
Dy440 O450 2.298 . S
Dy440 O454 2.275 . S
Dy440 C462 2.738 . S
Dy441 O444 2.298 . S
Dy441 O447 2.275 . S
Dy441 O449 2.307 . S
Dy441 O451 2.395 . S
Dy441 O452 2.379 . S
Dy441 O455 2.339 . S
Dy441 C471 2.738 . S
C442 O454 1.254 . S
C442 O455 1.257 . S
O443 Dy440 2.307 . S
O443 C453 1.266 . S
O444 Dy441 2.298 . S
O444 C453 1.236 . S
O445 Dy440 2.395 . S
O445 C462 1.255 . S
O446 Dy440 2.379 . S
O446 C462 1.249 . S
O447 Dy441 2.275 . S
O447 C463 1.254 . S
O448 Dy440 2.339 . S
O448 C463 1.257 . S
O449 Dy441 2.307 . S
O449 C464 1.266 . S
O450 Dy440 2.298 . S
O450 C464 1.236 . S
O451 Dy441 2.395 . S
O451 C471 1.255 . S
O452 Dy441 2.379 . S
O452 C471 1.249 . S
C453 O443 1.266 . S
C453 O444 1.236 . S
O454 Dy440 2.275 . S
O454 C442 1.254 . S
O455 Dy441 2.339 . S
O455 C442 1.257 . S
C456 C459 1.344 . S
C456 C460 1.328 . S
C456 C462 1.516 . S
C457 C458 1.304 . S
C457 C461 1.323 . S
C458 C457 1.304 . S
C458 C459 1.371 . S
C458 H472 0.930 . S
C459 C456 1.344 . S
C459 C458 1.371 . S
C459 H473 0.931 . S
C460 C456 1.328 . S
C460 C461 1.433 . S
C460 H474 0.931 . S
C461 C457 1.323 . S
C461 C460 1.433 . S
C461 H475 0.933 . S
C462 Dy440 2.738 . S
C462 O445 1.255 . S
C462 O446 1.249 . S
C462 C456 1.516 . S
C463 O447 1.254 . S
C463 O448 1.257 . S
C464 O449 1.266 . S
C464 O450 1.236 . S
C465 C468 1.344 . S
C465 C469 1.328 . S
C465 C471 1.516 . S
C466 C467 1.304 . S
C466 C470 1.323 . S
C467 C466 1.304 . S
C467 C468 1.371 . S
C467 H476 0.930 . S
C468 C465 1.344 . S
C468 C467 1.371 . S
C468 H477 0.931 . S
C469 C465 1.328 . S
C469 C470 1.433 . S
C469 H478 0.931 . S
C470 C466 1.323 . S
C470 C469 1.433 . S
C470 H479 0.933 . S
C471 Dy441 2.738 . S
C471 O451 1.255 . S
C471 O452 1.249 . S
C471 C465 1.516 . S
H472 C458 0.930 . S
H473 C459 0.931 . S
H474 C460 0.931 . S
H475 C461 0.933 . S
H476 C467 0.930 . S
H477 C468 0.931 . S
H478 C469 0.931 . S
H479 C470 0.933 . S
Dy480 O483 2.307 . S
Dy480 O485 2.395 . S
Dy480 O486 2.379 . S
Dy480 O488 2.339 . S
Dy480 O490 2.298 . S
Dy480 O494 2.275 . S
Dy480 C502 2.738 . S
Dy481 O484 2.298 . S
Dy481 O487 2.275 . S
Dy481 O489 2.307 . S
Dy481 O491 2.395 . S
Dy481 O492 2.379 . S
Dy481 O495 2.339 . S
Dy481 C511 2.738 . S
C482 O494 1.254 . S
C482 O495 1.257 . S
O483 Dy480 2.307 . S
O483 C493 1.266 . S
O484 Dy481 2.298 . S
O484 C493 1.236 . S
O485 Dy480 2.395 . S
O485 C502 1.255 . S
O486 Dy480 2.379 . S
O486 C502 1.249 . S
O487 Dy481 2.275 . S
O487 C503 1.254 . S
O488 Dy480 2.339 . S
O488 C503 1.257 . S
O489 Dy481 2.307 . S
O489 C504 1.266 . S
O490 Dy480 2.298 . S
O490 C504 1.236 . S
O491 Dy481 2.395 . S
O491 C511 1.255 . S
O492 Dy481 2.379 . S
O492 C511 1.249 . S
C493 O483 1.266 . S
C493 O484 1.236 . S
O494 Dy480 2.275 . S
O494 C482 1.254 . S
O495 Dy481 2.339 . S
O495 C482 1.257 . S
C496 C499 1.344 . S
C496 C500 1.328 . S
C496 C502 1.516 . S
C497 C498 1.304 . S
C497 C501 1.323 . S
C498 C497 1.304 . S
C498 C499 1.371 . S
C498 H512 0.930 . S
C499 C496 1.344 . S
C499 C498 1.371 . S
C499 H513 0.931 . S
C500 C496 1.328 . S
C500 C501 1.433 . S
C500 H514 0.931 . S
C501 C497 1.323 . S
C501 C500 1.433 . S
C501 H515 0.933 . S
C502 Dy480 2.738 . S
C502 O485 1.255 . S
C502 O486 1.249 . S
C502 C496 1.516 . S
C503 O487 1.254 . S
C503 O488 1.257 . S
C504 O489 1.266 . S
C504 O490 1.236 . S
C505 C508 1.344 . S
C505 C509 1.328 . S
C505 C511 1.516 . S
C506 C507 1.304 . S
C506 C510 1.323 . S
C507 C506 1.304 . S
C507 C508 1.371 . S
C507 H516 0.930 . S
C508 C505 1.344 . S
C508 C507 1.371 . S
C508 H517 0.931 . S
C509 C505 1.328 . S
C509 C510 1.433 . S
C509 H518 0.931 . S
C510 C506 1.323 . S
C510 C509 1.433 . S
C510 H519 0.933 . S
C511 Dy481 2.738 . S
C511 O491 1.255 . S
C511 O492 1.249 . S
C511 C505 1.516 . S
H512 C498 0.930 . S
H513 C499 0.931 . S
H514 C500 0.931 . S
H515 C501 0.933 . S
H516 C507 0.930 . S
H517 C508 0.931 . S
H518 C509 0.931 . S
H519 C510 0.933 . S
Dy520 O523 2.307 . S
Dy520 O525 2.395 . S
Dy520 O526 2.379 . S
Dy520 O528 2.339 . S
Dy520 O530 2.298 . S
Dy520 O534 2.275 . S
Dy520 C542 2.738 . S
Dy521 O524 2.298 . S
Dy521 O527 2.275 . S
Dy521 O529 2.307 . S
Dy521 O531 2.395 . S
Dy521 O532 2.379 . S
Dy521 O535 2.339 . S
Dy521 C551 2.738 . S
C522 O534 1.254 . S
C522 O535 1.257 . S
O523 Dy520 2.307 . S
O523 C533 1.266 . S
O524 Dy521 2.298 . S
O524 C533 1.236 . S
O525 Dy520 2.395 . S
O525 C542 1.255 . S
O526 Dy520 2.379 . S
O526 C542 1.249 . S
O527 Dy521 2.275 . S
O527 C543 1.254 . S
O528 Dy520 2.339 . S
O528 C543 1.257 . S
O529 Dy521 2.307 . S
O529 C544 1.266 . S
O530 Dy520 2.298 . S
O530 C544 1.236 . S
O531 Dy521 2.395 . S
O531 C551 1.255 . S
O532 Dy521 2.379 . S
O532 C551 1.249 . S
C533 O523 1.266 . S
C533 O524 1.236 . S
O534 Dy520 2.275 . S
O534 C522 1.254 . S
O535 Dy521 2.339 . S
O535 C522 1.257 . S
C536 C539 1.344 . S
C536 C540 1.328 . S
C536 C542 1.516 . S
C537 C538 1.304 . S
C537 C541 1.323 . S
C538 C537 1.304 . S
C538 C539 1.371 . S
C538 H552 0.930 . S
C539 C536 1.344 . S
C539 C538 1.371 . S
C539 H553 0.931 . S
C540 C536 1.328 . S
C540 C541 1.433 . S
C540 H554 0.931 . S
C541 C537 1.323 . S
C541 C540 1.433 . S
C541 H555 0.933 . S
C542 Dy520 2.738 . S
C542 O525 1.255 . S
C542 O526 1.249 . S
C542 C536 1.516 . S
C543 O527 1.254 . S
C543 O528 1.257 . S
C544 O529 1.266 . S
C544 O530 1.236 . S
C545 C548 1.344 . S
C545 C549 1.328 . S
C545 C551 1.516 . S
C546 C547 1.304 . S
C546 C550 1.323 . S
C547 C546 1.304 . S
C547 C548 1.371 . S
C547 H556 0.930 . S
C548 C545 1.344 . S
C548 C547 1.371 . S
C548 H557 0.931 . S
C549 C545 1.328 . S
C549 C550 1.433 . S
C549 H558 0.931 . S
C550 C546 1.323 . S
C550 C549 1.433 . S
C550 H559 0.933 . S
C551 Dy521 2.738 . S
C551 O531 1.255 . S
C551 O532 1.249 . S
C551 C545 1.516 . S
H552 C538 0.930 . S
H553 C539 0.931 . S
H554 C540 0.931 . S
H555 C541 0.933 . S
H556 C547 0.930 . S
H557 C548 0.931 . S
H558 C549 0.931 . S
H559 C550 0.933 . S
Dy560 O563 2.307 . S
Dy560 O565 2.395 . S
Dy560 O566 2.379 . S
Dy560 O568 2.339 . S
Dy560 O570 2.298 . S
Dy560 O574 2.275 . S
Dy560 C582 2.738 . S
Dy561 O564 2.298 . S
Dy561 O567 2.275 . S
Dy561 O569 2.307 . S
Dy561 O571 2.395 . S
Dy561 O572 2.379 . S
Dy561 O575 2.339 . S
Dy561 C591 2.738 . S
C562 O574 1.254 . S
C562 O575 1.257 . S
O563 Dy560 2.307 . S
O563 C573 1.266 . S
O564 Dy561 2.298 . S
O564 C573 1.236 . S
O565 Dy560 2.395 . S
O565 C582 1.255 . S
O566 Dy560 2.379 . S
O566 C582 1.249 . S
O567 Dy561 2.275 . S
O567 C583 1.254 . S
O568 Dy560 2.339 . S
O568 C583 1.257 . S
O569 Dy561 2.307 . S
O569 C584 1.266 . S
O570 Dy560 2.298 . S
O570 C584 1.236 . S
O571 Dy561 2.395 . S
O571 C591 1.255 . S
O572 Dy561 2.379 . S
O572 C591 1.249 . S
C573 O563 1.266 . S
C573 O564 1.236 . S
O574 Dy560 2.275 . S
O574 C562 1.254 . S
O575 Dy561 2.339 . S
O575 C562 1.257 . S
C576 C579 1.344 . S
C576 C580 1.328 . S
C576 C582 1.516 . S
C577 C578 1.304 . S
C577 C581 1.323 . S
C578 C577 1.304 . S
C578 C579 1.371 . S
C578 H592 0.930 . S
C579 C576 1.344 . S
C579 C578 1.371 . S
C579 H593 0.931 . S
C580 C576 1.328 . S
C580 C581 1.433 . S
C580 H594 0.931 . S
C581 C577 1.323 . S
C581 C580 1.433 . S
C581 H595 0.933 . S
C582 Dy560 2.738 . S
C582 O565 1.255 . S
C582 O566 1.249 . S
C582 C576 1.516 . S
C583 O567 1.254 . S
C583 O568 1.257 . S
C584 O569 1.266 . S
C584 O570 1.236 . S
C585 C588 1.344 . S
C585 C589 1.328 . S
C585 C591 1.516 . S
C586 C587 1.304 . S
C586 C590 1.323 . S
C587 C586 1.304 . S
C587 C588 1.371 . S
C587 H596 0.930 . S
C588 C585 1.344 . S
C588 C587 1.371 . S
C588 H597 0.931 . S
C589 C585 1.328 . S
C589 C590 1.433 . S
C589 H598 0.931 . S
C590 C586 1.323 . S
C590 C589 1.433 . S
C590 H599 0.933 . S
C591 Dy561 2.738 . S
C591 O571 1.255 . S
C591 O572 1.249 . S
C591 C585 1.516 . S
H592 C578 0.930 . S
H593 C579 0.931 . S
H594 C580 0.931 . S
H595 C581 0.933 . S
H596 C587 0.930 . S
H597 C588 0.931 . S
H598 C589 0.931 . S
H599 C590 0.933 . S
Dy600 O603 2.307 . S
Dy600 O605 2.395 . S
Dy600 O606 2.379 . S
Dy600 O608 2.339 . S
Dy600 O610 2.298 . S
Dy600 O614 2.275 . S
Dy600 C622 2.738 . S
Dy601 O604 2.298 . S
Dy601 O607 2.275 . S
Dy601 O609 2.307 . S
Dy601 O611 2.395 . S
Dy601 O612 2.379 . S
Dy601 O615 2.339 . S
Dy601 C631 2.738 . S
C602 O614 1.254 . S
C602 O615 1.257 . S
O603 Dy600 2.307 . S
O603 C613 1.266 . S
O604 Dy601 2.298 . S
O604 C613 1.236 . S
O605 Dy600 2.395 . S
O605 C622 1.255 . S
O606 Dy600 2.379 . S
O606 C622 1.249 . S
O607 Dy601 2.275 . S
O607 C623 1.254 . S
O608 Dy600 2.339 . S
O608 C623 1.257 . S
O609 Dy601 2.307 . S
O609 C624 1.266 . S
O610 Dy600 2.298 . S
O610 C624 1.236 . S
O611 Dy601 2.395 . S
O611 C631 1.255 . S
O612 Dy601 2.379 . S
O612 C631 1.249 . S
C613 O603 1.266 . S
C613 O604 1.236 . S
O614 Dy600 2.275 . S
O614 C602 1.254 . S
O615 Dy601 2.339 . S
O615 C602 1.257 . S
C616 C619 1.344 . S
C616 C620 1.328 . S
C616 C622 1.516 . S
C617 C618 1.304 . S
C617 C621 1.323 . S
C618 C617 1.304 . S
C618 C619 1.371 . S
C618 H632 0.930 . S
C619 C616 1.344 . S
C619 C618 1.371 . S
C619 H633 0.931 . S
C620 C616 1.328 . S
C620 C621 1.433 . S
C620 H634 0.931 . S
C621 C617 1.323 . S
C621 C620 1.433 . S
C621 H635 0.933 . S
C622 Dy600 2.738 . S
C622 O605 1.255 . S
C622 O606 1.249 . S
C622 C616 1.516 . S
C623 O607 1.254 . S
C623 O608 1.257 . S
C624 O609 1.266 . S
C624 O610 1.236 . S
C625 C628 1.344 . S
C625 C629 1.328 . S
C625 C631 1.516 . S
C626 C627 1.304 . S
C626 C630 1.323 . S
C627 C626 1.304 . S
C627 C628 1.371 . S
C627 H636 0.930 . S
C628 C625 1.344 . S
C628 C627 1.371 . S
C628 H637 0.931 . S
C629 C625 1.328 . S
C629 C630 1.433 . S
C629 H638 0.931 . S
C630 C626 1.323 . S
C630 C629 1.433 . S
C630 H639 0.933 . S
C631 Dy601 2.738 . S
C631 O611 1.255 . S
C631 O612 1.249 . S
C631 C625 1.516 . S
H632 C618 0.930 . S
H633 C619 0.931 . S
H634 C620 0.931 . S
H635 C621 0.933 . S
H636 C627 0.930 . S
H637 C628 0.931 . S
H638 C629 0.931 . S
H639 C630 0.933 . S
C640 C641 1.369 . S
C640 C642 1.419 . S
C640 H644 0.930 . S
C641 C640 1.369 . S
C641 C650 1.429 . S
C642 C640 1.419 . S
C642 C643 1.363 . S
C642 H645 0.929 . S
C643 C642 1.363 . S
C643 C649 1.428 . S
H644 C640 0.930 . S
H645 C642 0.929 . S
S646 N647 1.613 . S
S646 N648 1.610 . S
N647 S646 1.613 . S
N647 C650 1.350 . S
N648 S646 1.610 . S
N648 C649 1.351 . S
C649 C643 1.428 . S
C649 N648 1.351 . S
C649 C650 1.434 . S
C650 C641 1.429 . S
C650 N647 1.350 . S
C650 C649 1.434 . S
C651 C652 1.369 . S
C651 C653 1.419 . S
C651 H655 0.930 . S
C652 C651 1.369 . S
C652 C661 1.429 . S
C653 C651 1.419 . S
C653 C654 1.363 . S
C653 H656 0.929 . S
C654 C653 1.363 . S
C654 C660 1.428 . S
H655 C651 0.930 . S
H656 C653 0.929 . S
S657 N658 1.613 . S
S657 N659 1.610 . S
N658 S657 1.613 . S
N658 C661 1.350 . S
N659 S657 1.610 . S
N659 C660 1.351 . S
C660 C654 1.428 . S
C660 N659 1.351 . S
C660 C661 1.434 . S
C661 C652 1.429 . S
C661 N658 1.350 . S
C661 C660 1.434 . S
C662 C663 1.369 . S
C662 C664 1.419 . S
C662 H666 0.930 . S
C663 C662 1.369 . S
C663 C672 1.429 . S
C664 C662 1.419 . S
C664 C665 1.363 . S
C664 H667 0.929 . S
C665 C664 1.363 . S
C665 C671 1.428 . S
H666 C662 0.930 . S
H667 C664 0.929 . S
S668 N669 1.613 . S
S668 N670 1.610 . S
N669 S668 1.613 . S
N669 C672 1.350 . S
N670 S668 1.610 . S
N670 C671 1.351 . S
C671 C665 1.428 . S
C671 N670 1.351 . S
C671 C672 1.434 . S
C672 C663 1.429 . S
C672 N669 1.350 . S
C672 C671 1.434 . S
C673 C674 1.369 . S
C673 C675 1.419 . S
C673 H677 0.930 . S
C674 C673 1.369 . S
C674 C683 1.429 . S
C675 C673 1.419 . S
C675 C676 1.363 . S
C675 H678 0.929 . S
C676 C675 1.363 . S
C676 C682 1.428 . S
H677 C673 0.930 . S
H678 C675 0.929 . S
S679 N680 1.613 . S
S679 N681 1.610 . S
N680 S679 1.613 . S
N680 C683 1.350 . S
N681 S679 1.610 . S
N681 C682 1.351 . S
C682 C676 1.428 . S
C682 N681 1.351 . S
C682 C683 1.434 . S
C683 C674 1.429 . S
C683 N680 1.350 . S
C683 C682 1.434 . S
C684 C685 1.369 . S
C684 C686 1.419 . S
C684 H688 0.930 . S
C685 C684 1.369 . S
C685 C694 1.429 . S
C686 C684 1.419 . S
C686 C687 1.363 . S
C686 H689 0.929 . S
C687 C686 1.363 . S
C687 C693 1.428 . S
H688 C684 0.930 . S
H689 C686 0.929 . S
S690 N691 1.613 . S
S690 N692 1.610 . S
N691 S690 1.613 . S
N691 C694 1.350 . S
N692 S690 1.610 . S
N692 C693 1.351 . S
C693 C687 1.428 . S
C693 N692 1.351 . S
C693 C694 1.434 . S
C694 C685 1.429 . S
C694 N691 1.350 . S
C694 C693 1.434 . S
C695 C696 1.369 . S
C695 C697 1.419 . S
C695 H699 0.930 . S
C696 C695 1.369 . S
C696 C705 1.429 . S
C697 C695 1.419 . S
C697 C698 1.363 . S
C697 H700 0.929 . S
C698 C697 1.363 . S
C698 C704 1.428 . S
H699 C695 0.930 . S
H700 C697 0.929 . S
S701 N702 1.613 . S
S701 N703 1.610 . S
N702 S701 1.613 . S
N702 C705 1.350 . S
N703 S701 1.610 . S
N703 C704 1.351 . S
C704 C698 1.428 . S
C704 N703 1.351 . S
C704 C705 1.434 . S
C705 C696 1.429 . S
C705 N702 1.350 . S
C705 C704 1.434 . S
C706 C707 1.369 . S
C706 C708 1.419 . S
C706 H710 0.930 . S
C707 C706 1.369 . S
C707 C716 1.429 . S
C708 C706 1.419 . S
C708 C709 1.363 . S
C708 H711 0.929 . S
C709 C708 1.363 . S
C709 C715 1.428 . S
H710 C706 0.930 . S
H711 C708 0.929 . S
S712 N713 1.613 . S
S712 N714 1.610 . S
N713 S712 1.613 . S
N713 C716 1.350 . S
N714 S712 1.610 . S
N714 C715 1.351 . S
C715 C709 1.428 . S
C715 N714 1.351 . S
C715 C716 1.434 . S
C716 C707 1.429 . S
C716 N713 1.350 . S
C716 C715 1.434 . S
C717 C718 1.369 . S
C717 C719 1.419 . S
C717 H721 0.930 . S
C718 C717 1.369 . S
C718 C727 1.429 . S
C719 C717 1.419 . S
C719 C720 1.363 . S
C719 H722 0.929 . S
C720 C719 1.363 . S
C720 C726 1.428 . S
H721 C717 0.930 . S
H722 C719 0.929 . S
S723 N724 1.613 . S
S723 N725 1.610 . S
N724 S723 1.613 . S
N724 C727 1.350 . S
N725 S723 1.610 . S
N725 C726 1.351 . S
C726 C720 1.428 . S
C726 N725 1.351 . S
C726 C727 1.434 . S
C727 C718 1.429 . S
C727 N724 1.350 . S
C727 C726 1.434 . S
C728 C729 1.369 . S
C728 C730 1.419 . S
C728 H732 0.930 . S
C729 C728 1.369 . S
C729 C738 1.429 1_565 S
C730 C728 1.419 . S
C730 C731 1.363 1_565 S
C730 H733 0.929 . S
C731 C730 1.363 1_545 S
C731 C737 1.428 . S
H732 C728 0.930 . S
H733 C730 0.929 . S
S734 N735 1.613 . S
S734 N736 1.610 . S
N735 S734 1.613 . S
N735 C738 1.350 . S
N736 S734 1.610 . S
N736 C737 1.351 . S
C737 C731 1.428 . S
C737 N736 1.351 . S
C737 C738 1.434 . S
C738 C729 1.429 1_545 S
C738 N735 1.350 . S
C738 C737 1.434 . S
C739 C740 1.369 . S
C739 C741 1.416 1_545 S
C739 H743 0.930 . S
C740 C739 1.369 . S
C740 C749 1.429 1_545 S
C741 C739 1.416 1_565 S
C741 C742 1.366 . S
C741 H744 0.929 1_565 S
C742 C741 1.366 . S
C742 C748 1.428 . S
H743 C739 0.930 . S
H744 C741 0.929 1_545 S
S745 N746 1.613 . S
S745 N747 1.610 . S
N746 S745 1.613 . S
N746 C749 1.350 . S
N747 S745 1.610 . S
N747 C748 1.351 . S
C748 C742 1.428 . S
C748 N747 1.351 . S
C748 C749 1.434 . S
C749 C740 1.429 1_565 S
C749 N746 1.350 . S
C749 C748 1.434 . S
C750 C751 1.369 1_565 S
C750 C752 1.419 . S
C750 H754 0.930 . S
C751 C750 1.369 1_545 S
C751 C760 1.429 . S
C752 C750 1.419 . S
C752 C753 1.363 . S
C752 H755 0.929 . S
C753 C752 1.363 . S
C753 C759 1.428 1_565 S
H754 C750 0.930 . S
H755 C752 0.929 . S
S756 N757 1.613 . S
S756 N758 1.610 . S
N757 S756 1.613 . S
N757 C760 1.350 . S
N758 S756 1.610 . S
N758 C759 1.351 . S
C759 C753 1.428 1_545 S
C759 N758 1.351 . S
C759 C760 1.434 . S
C760 C751 1.429 . S
C760 N757 1.350 . S
C760 C759 1.434 . S
C761 C762 1.369 . S
C761 C763 1.419 . S
C761 H765 0.930 . S
C762 C761 1.369 . S
C762 C771 1.429 1_545 S
C763 C761 1.419 . S
C763 C764 1.363 1_545 S
C763 H766 0.929 . S
C764 C763 1.363 1_565 S
C764 C770 1.428 . S
H765 C761 0.930 . S
H766 C763 0.929 . S
S767 N768 1.613 . S
S767 N769 1.610 . S
N768 S767 1.613 . S
N768 C771 1.350 . S
N769 S767 1.610 . S
N769 C770 1.351 . S
C770 C764 1.428 . S
C770 N769 1.351 . S
C770 C771 1.434 . S
C771 C762 1.429 1_565 S
C771 N768 1.350 . S
C771 C770 1.434 . S
C772 C773 1.369 . S
C772 C774 1.419 . S
C772 H776 0.930 . S
C773 C772 1.369 . S
C773 C782 1.429 . S
C774 C772 1.419 . S
C774 C775 1.363 . S
C774 H777 0.929 . S
C775 C774 1.363 . S
C775 C781 1.428 . S
H776 C772 0.930 . S
H777 C774 0.929 . S
S778 N779 1.613 . S
S778 N780 1.610 . S
N779 S778 1.613 . S
N779 C782 1.350 . S
N780 S778 1.610 . S
N780 C781 1.351 . S
C781 C775 1.428 . S
C781 N780 1.351 . S
C781 C782 1.434 . S
C782 C773 1.429 . S
C782 N779 1.350 . S
C782 C781 1.434 . S
C783 C784 1.369 . S
C783 C785 1.419 . S
C783 H787 0.930 . S
C784 C783 1.369 . S
C784 C793 1.429 . S
C785 C783 1.419 . S
C785 C786 1.363 . S
C785 H788 0.929 . S
C786 C785 1.363 . S
C786 C792 1.428 . S
H787 C783 0.930 . S
H788 C785 0.929 . S
S789 N790 1.613 . S
S789 N791 1.610 . S
N790 S789 1.613 . S
N790 C793 1.350 . S
N791 S789 1.610 . S
N791 C792 1.351 . S
C792 C786 1.428 . S
C792 N791 1.351 . S
C792 C793 1.434 . S
C793 C784 1.429 . S
C793 N790 1.350 . S
C793 C792 1.434 . S
C794 C795 1.369 . S
C794 C796 1.419 . S
C794 H798 0.930 . S
C795 C794 1.369 . S
C795 C804 1.429 . S
C796 C794 1.419 . S
C796 C797 1.363 . S
C796 H799 0.929 . S
C797 C796 1.363 . S
C797 C803 1.428 . S
H798 C794 0.930 . S
H799 C796 0.929 . S
S800 N801 1.613 . S
S800 N802 1.610 . S
N801 S800 1.613 . S
N801 C804 1.350 . S
N802 S800 1.610 . S
N802 C803 1.351 . S
C803 C797 1.428 . S
C803 N802 1.351 . S
C803 C804 1.434 . S
C804 C795 1.429 . S
C804 N801 1.350 . S
C804 C803 1.434 . S
C805 C806 1.369 . S
C805 C807 1.419 . S
C805 H809 0.930 . S
C806 C805 1.369 . S
C806 C815 1.429 . S
C807 C805 1.419 . S
C807 C808 1.363 . S
C807 H810 0.929 . S
C808 C807 1.363 . S
C808 C814 1.428 . S
H809 C805 0.930 . S
H810 C807 0.929 . S
S811 N812 1.613 . S
S811 N813 1.610 . S
N812 S811 1.613 . S
N812 C815 1.350 . S
N813 S811 1.610 . S
N813 C814 1.351 . S
C814 C808 1.428 . S
C814 N813 1.351 . S
C814 C815 1.434 . S
C815 C806 1.429 . S
C815 N812 1.350 . S
C815 C814 1.434 . S
C816 C817 1.369 . S
C816 C818 1.419 1_556 S
C816 H820 0.930 . S
C817 C816 1.369 . S
C817 C826 1.429 . S
C818 C816 1.419 1_554 S
C818 C819 1.363 . S
C818 H821 0.929 . S
C819 C818 1.363 . S
C819 C825 1.428 . S
H820 C816 0.930 . S
H821 C818 0.929 . S
S822 N823 1.616 1_564 S
S822 N824 1.608 1_565 S
N823 S822 1.616 1_546 S
N823 C826 1.350 . S
N824 S822 1.608 1_545 S
N824 C825 1.351 . S
C825 C819 1.428 . S
C825 N824 1.351 . S
C825 C826 1.434 1_554 S
C826 C817 1.429 . S
C826 N823 1.350 . S
C826 C825 1.434 1_556 S
C827 C828 1.369 . S
C827 C829 1.419 1_556 S
C827 H831 0.930 . S
C828 C827 1.369 . S
C828 C837 1.429 . S
C829 C827 1.419 1_554 S
C829 C830 1.363 . S
C829 H832 0.929 . S
C830 C829 1.363 . S
C830 C836 1.428 . S
H831 C827 0.930 . S
H832 C829 0.929 . S
S833 N834 1.616 1_544 S
S833 N835 1.608 1_545 S
N834 S833 1.616 1_566 S
N834 C837 1.350 . S
N835 S833 1.608 1_565 S
N835 C836 1.351 . S
C836 C830 1.428 . S
C836 N835 1.351 . S
C836 C837 1.434 1_554 S
C837 C828 1.429 . S
C837 N834 1.350 . S
C837 C836 1.434 1_556 S
C838 C839 1.369 . S
C838 C840 1.419 . S
C838 H842 0.930 . S
C839 C838 1.369 . S
C839 C848 1.429 . S
C840 C838 1.419 . S
C840 C841 1.363 . S
C840 H843 0.929 . S
C841 C840 1.363 . S
C841 C847 1.428 . S
H842 C838 0.930 . S
H843 C840 0.929 . S
S844 N845 1.613 . S
S844 N846 1.610 . S
N845 S844 1.613 . S
N845 C848 1.350 . S
N846 S844 1.610 . S
N846 C847 1.351 . S
C847 C841 1.428 . S
C847 N846 1.351 . S
C847 C848 1.434 . S
C848 C839 1.429 . S
C848 N845 1.350 . S
C848 C847 1.434 . S
C849 C850 1.369 . S
C849 C851 1.419 . S
C849 H853 0.930 . S
C850 C849 1.369 . S
C850 C859 1.429 . S
C851 C849 1.419 . S
C851 C852 1.363 . S
C851 H854 0.929 . S
C852 C851 1.363 . S
C852 C858 1.428 . S
H853 C849 0.930 . S
H854 C851 0.929 . S
S855 N856 1.613 . S
S855 N857 1.610 . S
N856 S855 1.613 . S
N856 C859 1.350 . S
N857 S855 1.610 . S
N857 C858 1.351 . S
C858 C852 1.428 . S
C858 N857 1.351 . S
C858 C859 1.434 . S
C859 C850 1.429 . S
C859 N856 1.350 . S
C859 C858 1.434 . S
C860 C861 1.369 . S
C860 C862 1.419 1_554 S
C860 H864 0.930 . S
C861 C860 1.369 . S
C861 C870 1.429 . S
C862 C860 1.419 1_556 S
C862 C863 1.363 . S
C862 H865 0.929 . S
C863 C862 1.363 . S
C863 C869 1.428 . S
H864 C860 0.930 . S
H865 C862 0.929 . S
S866 N867 1.616 1_556 S
S866 N868 1.608 . S
N867 S866 1.616 1_554 S
N867 C870 1.350 . S
N868 S866 1.608 . S
N868 C869 1.351 . S
C869 C863 1.428 . S
C869 N868 1.351 . S
C869 C870 1.434 1_556 S
C870 C861 1.429 . S
C870 N867 1.350 . S
C870 C869 1.434 1_554 S
C871 C872 1.369 . S
C871 C873 1.419 1_556 S
C871 H875 0.930 . S
C872 C871 1.369 . S
C872 C881 1.429 . S
C873 C871 1.419 1_554 S
C873 C874 1.363 . S
C873 H876 0.929 . S
C874 C873 1.363 . S
C874 C880 1.428 . S
H875 C871 0.930 . S
H876 C873 0.929 . S
S877 N878 1.616 1_554 S
S877 N879 1.608 . S
N878 S877 1.616 1_556 S
N878 C881 1.350 . S
N879 S877 1.608 . S
N879 C880 1.351 . S
C880 C874 1.428 . S
C880 N879 1.351 . S
C880 C881 1.434 1_554 S
C881 C872 1.429 . S
C881 N878 1.350 . S
C881 C880 1.434 1_556 S
C882 C883 1.369 . S
C882 C884 1.419 . S
C882 H886 0.930 . S
C883 C882 1.369 . S
C883 C892 1.429 . S
C884 C882 1.419 . S
C884 C885 1.363 . S
C884 H887 0.929 . S
C885 C884 1.363 . S
C885 C891 1.428 . S
H886 C882 0.930 . S
H887 C884 0.929 . S
S888 N889 1.613 . S
S888 N890 1.610 . S
N889 S888 1.613 . S
N889 C892 1.350 . S
N890 S888 1.610 . S
N890 C891 1.351 . S
C891 C885 1.428 . S
C891 N890 1.351 . S
C891 C892 1.434 . S
C892 C883 1.429 . S
C892 N889 1.350 . S
C892 C891 1.434 . S
C893 C894 1.369 . S
C893 C895 1.419 . S
C893 H897 0.930 . S
C894 C893 1.369 . S
C894 C903 1.429 . S
C895 C893 1.419 . S
C895 C896 1.363 . S
C895 H898 0.929 . S
C896 C895 1.363 . S
C896 C902 1.428 . S
H897 C893 0.930 . S
H898 C895 0.929 . S
S899 N900 1.613 . S
S899 N901 1.610 . S
N900 S899 1.613 . S
N900 C903 1.350 . S
N901 S899 1.610 . S
N901 C902 1.351 . S
C902 C896 1.428 . S
C902 N901 1.351 . S
C902 C903 1.434 . S
C903 C894 1.429 . S
C903 N900 1.350 . S
C903 C902 1.434 . S
C904 C905 1.369 . S
C904 C906 1.419 1_655 S
C904 H908 0.930 . S
C905 C904 1.369 . S
C905 C914 1.429 1_565 S
C906 C904 1.419 1_455 S
C906 C907 1.363 1_565 S
C906 H909 0.929 . S
C907 C906 1.363 1_545 S
C907 C913 1.428 . S
H908 C904 0.930 . S
H909 C906 0.929 . S
S910 N911 1.613 . S
S910 N912 1.610 1_655 S
N911 S910 1.613 . S
N911 C914 1.350 . S
N912 S910 1.610 1_455 S
N912 C913 1.351 . S
C913 C907 1.428 . S
C913 N912 1.351 . S
C913 C914 1.434 1_455 S
C914 C905 1.429 1_545 S
C914 N911 1.350 . S
C914 C913 1.434 1_655 S
C915 C916 1.369 1_565 S
C915 C917 1.419 1_655 S
C915 H919 0.930 . S
C916 C915 1.369 1_545 S
C916 C925 1.429 . S
C917 C915 1.419 1_455 S
C917 C918 1.363 . S
C917 H920 0.929 . S
C918 C917 1.363 . S
C918 C924 1.428 1_565 S
H919 C915 0.930 . S
H920 C917 0.929 . S
S921 N922 1.613 1_455 S
S921 N923 1.610 . S
N922 S921 1.613 1_655 S
N922 C925 1.350 . S
N923 S921 1.610 . S
N923 C924 1.351 . S
C924 C918 1.428 1_545 S
C924 N923 1.351 . S
C924 C925 1.434 1_455 S
C925 C916 1.429 . S
C925 N922 1.350 . S
C925 C924 1.434 1_655 S
C926 C927 1.369 . S
C926 C928 1.419 1_455 S
C926 H930 0.930 . S
C927 C926 1.369 . S
C927 C936 1.429 1_545 S
C928 C926 1.419 1_655 S
C928 C929 1.363 1_545 S
C928 H931 0.929 . S
C929 C928 1.363 1_565 S
C929 C935 1.428 . S
H930 C926 0.930 . S
H931 C928 0.929 . S
S932 N933 1.613 . S
S932 N934 1.610 1_455 S
N933 S932 1.613 . S
N933 C936 1.350 . S
N934 S932 1.610 1_655 S
N934 C935 1.351 . S
C935 C929 1.428 . S
C935 N934 1.351 . S
C935 C936 1.434 1_655 S
C936 C927 1.429 1_565 S
C936 N933 1.350 . S
C936 C935 1.434 1_455 S
C937 C938 1.369 1_565 S
C937 C939 1.419 1_655 S
C937 H941 0.930 . S
C938 C937 1.369 1_545 S
C938 C947 1.429 . S
C939 C937 1.419 1_455 S
C939 C940 1.363 . S
C939 H942 0.929 . S
C940 C939 1.363 . S
C940 C946 1.428 1_565 S
H941 C937 0.930 . S
H942 C939 0.929 . S
S943 N944 1.613 1_455 S
S943 N945 1.610 . S
N944 S943 1.613 1_655 S
N944 C947 1.350 . S
N945 S943 1.610 . S
N945 C946 1.351 . S
C946 C940 1.428 1_545 S
C946 N945 1.351 . S
C946 C947 1.434 1_455 S
C947 C938 1.429 . S
C947 N944 1.350 . S
C947 C946 1.434 1_655 S
C948 C949 1.369 . S
C948 C950 1.419 . S
C948 H952 0.930 . S
C949 C948 1.369 . S
C949 C958 1.429 . S
C950 C948 1.419 . S
C950 C951 1.363 . S
C950 H953 0.929 . S
C951 C950 1.363 . S
C951 C957 1.428 . S
H952 C948 0.930 . S
H953 C950 0.929 . S
S954 N955 1.613 . S
S954 N956 1.610 . S
N955 S954 1.613 . S
N955 C958 1.350 . S
N956 S954 1.610 . S
N956 C957 1.351 . S
C957 C951 1.428 . S
C957 N956 1.351 . S
C957 C958 1.434 . S
C958 C949 1.429 . S
C958 N955 1.350 . S
C958 C957 1.434 . S
C959 C960 1.369 . S
C959 C961 1.419 . S
C959 H963 0.930 . S
C960 C959 1.369 . S
C960 C969 1.429 . S
C961 C959 1.419 . S
C961 C962 1.363 . S
C961 H964 0.929 . S
C962 C961 1.363 . S
C962 C968 1.428 . S
H963 C959 0.930 . S
H964 C961 0.929 . S
S965 N966 1.613 . S
S965 N967 1.610 . S
N966 S965 1.613 . S
N966 C969 1.350 . S
N967 S965 1.610 . S
N967 C968 1.351 . S
C968 C962 1.428 . S
C968 N967 1.351 . S
C968 C969 1.434 . S
C969 C960 1.429 . S
C969 N966 1.350 . S
C969 C968 1.434 . S
C970 C971 1.369 . S
C970 C972 1.419 . S
C970 H974 0.930 . S
C971 C970 1.369 . S
C971 C980 1.429 . S
C972 C970 1.419 . S
C972 C973 1.363 . S
C972 H975 0.929 . S
C973 C972 1.363 . S
C973 C979 1.428 . S
H974 C970 0.930 . S
H975 C972 0.929 . S
S976 N977 1.613 . S
S976 N978 1.610 . S
N977 S976 1.613 . S
N977 C980 1.350 . S
N978 S976 1.610 . S
N978 C979 1.351 . S
C979 C973 1.428 . S
C979 N978 1.351 . S
C979 C980 1.434 . S
C980 C971 1.429 . S
C980 N977 1.350 . S
C980 C979 1.434 . S
C981 C982 1.369 . S
C981 C983 1.419 . S
C981 H985 0.930 . S
C982 C981 1.369 . S
C982 C991 1.429 . S
C983 C981 1.419 . S
C983 C984 1.363 . S
C983 H986 0.929 . S
C984 C983 1.363 . S
C984 C990 1.428 . S
H985 C981 0.930 . S
H986 C983 0.929 . S
S987 N988 1.613 . S
S987 N989 1.610 . S
N988 S987 1.613 . S
N988 C991 1.350 . S
N989 S987 1.610 . S
N989 C990 1.351 . S
C990 C984 1.428 . S
C990 N989 1.351 . S
C990 C991 1.434 . S
C991 C982 1.429 . S
C991 N988 1.350 . S
C991 C990 1.434 . S
C992 C993 1.369 . S
C992 C994 1.419 . S
C992 H996 0.930 . S
C993 C992 1.369 . S
C993 C1002 1.429 . S
C994 C992 1.419 . S
C994 C995 1.363 . S
C994 H997 0.929 . S
C995 C994 1.363 . S
C995 C1001 1.428 . S
H996 C992 0.930 . S
H997 C994 0.929 . S
S998 N999 1.613 . S
S998 N1000 1.610 . S
N999 S998 1.613 . S
N999 C1002 1.350 . S
N1000 S998 1.610 . S
N1000 C1001 1.351 . S
C1001 C995 1.428 . S
C1001 N1000 1.351 . S
C1001 C1002 1.434 . S
C1002 C993 1.429 . S
C1002 N999 1.350 . S
C1002 C1001 1.434 . S
C1003 C1004 1.369 . S
C1003 C1005 1.419 . S
C1003 H1007 0.930 . S
C1004 C1003 1.369 . S
C1004 C1013 1.429 . S
C1005 C1003 1.419 . S
C1005 C1006 1.363 . S
C1005 H1008 0.929 . S
C1006 C1005 1.363 . S
C1006 C1012 1.428 . S
H1007 C1003 0.930 . S
H1008 C1005 0.929 . S
S1009 N1010 1.613 . S
S1009 N1011 1.610 . S
N1010 S1009 1.613 . S
N1010 C1013 1.350 . S
N1011 S1009 1.610 . S
N1011 C1012 1.351 . S
C1012 C1006 1.428 . S
C1012 N1011 1.351 . S
C1012 C1013 1.434 . S
C1013 C1004 1.429 . S
C1013 N1010 1.350 . S
C1013 C1012 1.434 . S
C1014 C1015 1.369 . S
C1014 C1016 1.419 . S
C1014 H1018 0.930 . S
C1015 C1014 1.369 . S
C1015 C1024 1.429 . S
C1016 C1014 1.419 . S
C1016 C1017 1.363 . S
C1016 H1019 0.929 . S
C1017 C1016 1.363 . S
C1017 C1023 1.428 . S
H1018 C1014 0.930 . S
H1019 C1016 0.929 . S
S1020 N1021 1.613 . S
S1020 N1022 1.610 . S
N1021 S1020 1.613 . S
N1021 C1024 1.350 . S
N1022 S1020 1.610 . S
N1022 C1023 1.351 . S
C1023 C1017 1.428 . S
C1023 N1022 1.351 . S
C1023 C1024 1.434 . S
C1024 C1015 1.429 . S
C1024 N1021 1.350 . S
C1024 C1023 1.434 . S
C1025 C1026 1.369 . S
C1025 C1027 1.419 . S
C1025 H1029 0.930 . S
C1026 C1025 1.369 . S
C1026 C1035 1.429 . S
C1027 C1025 1.419 . S
C1027 C1028 1.363 . S
C1027 H1030 0.929 . S
C1028 C1027 1.363 . S
C1028 C1034 1.428 . S
H1029 C1025 0.930 . S
H1030 C1027 0.929 . S
S1031 N1032 1.613 . S
S1031 N1033 1.610 . S
N1032 S1031 1.613 . S
N1032 C1035 1.350 . S
N1033 S1031 1.610 . S
N1033 C1034 1.351 . S
C1034 C1028 1.428 . S
C1034 N1033 1.351 . S
C1034 C1035 1.434 . S
C1035 C1026 1.429 . S
C1035 N1032 1.350 . S
C1035 C1034 1.434 . S
C1036 C1037 1.369 . S
C1036 C1038 1.419 . S
C1036 H1040 0.930 . S
C1037 C1036 1.369 . S
C1037 C1046 1.429 . S
C1038 C1036 1.419 . S
C1038 C1039 1.363 . S
C1038 H1041 0.929 . S
C1039 C1038 1.363 . S
C1039 C1045 1.428 . S
H1040 C1036 0.930 . S
H1041 C1038 0.929 . S
S1042 N1043 1.613 . S
S1042 N1044 1.610 . S
N1043 S1042 1.613 . S
N1043 C1046 1.350 . S
N1044 S1042 1.610 . S
N1044 C1045 1.351 . S
C1045 C1039 1.428 . S
C1045 N1044 1.351 . S
C1045 C1046 1.434 . S
C1046 C1037 1.429 . S
C1046 N1043 1.350 . S
C1046 C1045 1.434 . S
C1047 C1048 1.369 . S
C1047 C1049 1.419 . S
C1047 H1051 0.930 . S
C1048 C1047 1.369 . S
C1048 C1057 1.429 . S
C1049 C1047 1.419 . S
C1049 C1050 1.363 . S
C1049 H1052 0.929 . S
C1050 C1049 1.363 . S
C1050 C1056 1.428 . S
H1051 C1047 0.930 . S
H1052 C1049 0.929 . S
S1053 N1054 1.613 . S
S1053 N1055 1.610 . S
N1054 S1053 1.613 . S
N1054 C1057 1.350 . S
N1055 S1053 1.610 . S
N1055 C1056 1.351 . S
C1056 C1050 1.428 . S
C1056 N1055 1.351 . S
C1056 C1057 1.434 . S
C1057 C1048 1.429 . S
C1057 N1054 1.350 . S
C1057 C1056 1.434 . S
C1058 C1059 1.369 . S
C1058 C1060 1.419 . S
C1058 H1062 0.930 . S
C1059 C1058 1.369 . S
C1059 C1068 1.429 . S
C1060 C1058 1.419 . S
C1060 C1061 1.363 . S
C1060 H1063 0.929 . S
C1061 C1060 1.363 . S
C1061 C1067 1.428 . S
H1062 C1058 0.930 . S
H1063 C1060 0.929 . S
S1064 N1065 1.613 . S
S1064 N1066 1.610 . S
N1065 S1064 1.613 . S
N1065 C1068 1.350 . S
N1066 S1064 1.610 . S
N1066 C1067 1.351 . S
C1067 C1061 1.428 . S
C1067 N1066 1.351 . S
C1067 C1068 1.434 . S
C1068 C1059 1.429 . S
C1068 N1065 1.350 . S
C1068 C1067 1.434 . S
C1069 C1070 1.369 . S
C1069 C1071 1.419 . S
C1069 H1073 0.930 . S
C1070 C1069 1.369 . S
C1070 C1079 1.429 . S
C1071 C1069 1.419 . S
C1071 C1072 1.363 . S
C1071 H1074 0.929 . S
C1072 C1071 1.363 . S
C1072 C1078 1.428 . S
H1073 C1069 0.930 . S
H1074 C1071 0.929 . S
S1075 N1076 1.613 . S
S1075 N1077 1.610 . S
N1076 S1075 1.613 . S
N1076 C1079 1.350 . S
N1077 S1075 1.610 . S
N1077 C1078 1.351 . S
C1078 C1072 1.428 . S
C1078 N1077 1.351 . S
C1078 C1079 1.434 . S
C1079 C1070 1.429 . S
C1079 N1076 1.350 . S
C1079 C1078 1.434 . S
C1080 C1081 1.369 . S
C1080 C1082 1.419 . S
C1080 H1084 0.930 . S
C1081 C1080 1.369 . S
C1081 C1090 1.429 . S
C1082 C1080 1.419 . S
C1082 C1083 1.363 . S
C1082 H1085 0.929 . S
C1083 C1082 1.363 . S
C1083 C1089 1.428 . S
H1084 C1080 0.930 . S
H1085 C1082 0.929 . S
S1086 N1087 1.613 . S
S1086 N1088 1.610 . S
N1087 S1086 1.613 . S
N1087 C1090 1.350 . S
N1088 S1086 1.610 . S
N1088 C1089 1.351 . S
C1089 C1083 1.428 . S
C1089 N1088 1.351 . S
C1089 C1090 1.434 . S
C1090 C1081 1.429 . S
C1090 N1087 1.350 . S
C1090 C1089 1.434 . S
C1091 C1092 1.369 . S
C1091 C1093 1.419 . S
C1091 H1095 0.930 . S
C1092 C1091 1.369 . S
C1092 C1101 1.429 . S
C1093 C1091 1.419 . S
C1093 C1094 1.363 . S
C1093 H1096 0.929 . S
C1094 C1093 1.363 . S
C1094 C1100 1.428 . S
H1095 C1091 0.930 . S
H1096 C1093 0.929 . S
S1097 N1098 1.613 . S
S1097 N1099 1.610 . S
N1098 S1097 1.613 . S
N1098 C1101 1.350 . S
N1099 S1097 1.610 . S
N1099 C1100 1.351 . S
C1100 C1094 1.428 . S
C1100 N1099 1.351 . S
C1100 C1101 1.434 . S
C1101 C1092 1.429 . S
C1101 N1098 1.350 . S
C1101 C1100 1.434 . S
C1102 C1103 1.369 . S
C1102 C1104 1.419 . S
C1102 H1106 0.930 . S
C1103 C1102 1.369 . S
C1103 C1112 1.429 . S
C1104 C1102 1.419 . S
C1104 C1105 1.363 . S
C1104 H1107 0.929 . S
C1105 C1104 1.363 . S
C1105 C1111 1.428 . S
H1106 C1102 0.930 . S
H1107 C1104 0.929 . S
S1108 N1109 1.613 . S
S1108 N1110 1.610 . S
N1109 S1108 1.613 . S
N1109 C1112 1.350 . S
N1110 S1108 1.610 . S
N1110 C1111 1.351 . S
C1111 C1105 1.428 . S
C1111 N1110 1.351 . S
C1111 C1112 1.434 . S
C1112 C1103 1.429 . S
C1112 N1109 1.350 . S
C1112 C1111 1.434 . S
C1113 C1114 1.369 . S
C1113 C1115 1.419 . S
C1113 H1117 0.930 . S
C1114 C1113 1.369 . S
C1114 C1123 1.429 . S
C1115 C1113 1.419 . S
C1115 C1116 1.363 . S
C1115 H1118 0.929 . S
C1116 C1115 1.363 . S
C1116 C1122 1.428 . S
H1117 C1113 0.930 . S
H1118 C1115 0.929 . S
S1119 N1120 1.613 . S
S1119 N1121 1.610 . S
N1120 S1119 1.613 . S
N1120 C1123 1.350 . S
N1121 S1119 1.610 . S
N1121 C1122 1.351 . S
C1122 C1116 1.428 . S
C1122 N1121 1.351 . S
C1122 C1123 1.434 . S
C1123 C1114 1.429 . S
C1123 N1120 1.350 . S
C1123 C1122 1.434 . S
C1124 C1125 1.369 . S
C1124 C1126 1.419 . S
C1124 H1128 0.930 . S
C1125 C1124 1.369 . S
C1125 C1134 1.429 . S
C1126 C1124 1.419 . S
C1126 C1127 1.363 . S
C1126 H1129 0.929 . S
C1127 C1126 1.363 . S
C1127 C1133 1.428 . S
H1128 C1124 0.930 . S
H1129 C1126 0.929 . S
S1130 N1131 1.613 . S
S1130 N1132 1.610 . S
N1131 S1130 1.613 . S
N1131 C1134 1.350 . S
N1132 S1130 1.610 . S
N1132 C1133 1.351 . S
C1133 C1127 1.428 . S
C1133 N1132 1.351 . S
C1133 C1134 1.434 . S
C1134 C1125 1.429 . S
C1134 N1131 1.350 . S
C1134 C1133 1.434 . S
C1135 C1136 1.369 . S
C1135 C1137 1.419 . S
C1135 H1139 0.930 . S
C1136 C1135 1.369 . S
C1136 C1145 1.429 . S
C1137 C1135 1.419 . S
C1137 C1138 1.363 . S
C1137 H1140 0.929 . S
C1138 C1137 1.363 . S
C1138 C1144 1.428 . S
H1139 C1135 0.930 . S
H1140 C1137 0.929 . S
S1141 N1142 1.613 . S
S1141 N1143 1.610 . S
N1142 S1141 1.613 . S
N1142 C1145 1.350 . S
N1143 S1141 1.610 . S
N1143 C1144 1.351 . S
C1144 C1138 1.428 . S
C1144 N1143 1.351 . S
C1144 C1145 1.434 . S
C1145 C1136 1.429 . S
C1145 N1142 1.350 . S
C1145 C1144 1.434 . S
C1146 C1147 1.369 . S
C1146 C1148 1.419 . S
C1146 H1150 0.930 . S
C1147 C1146 1.369 . S
C1147 C1156 1.429 . S
C1148 C1146 1.419 . S
C1148 C1149 1.363 . S
C1148 H1151 0.929 . S
C1149 C1148 1.363 . S
C1149 C1155 1.428 . S
H1150 C1146 0.930 . S
H1151 C1148 0.929 . S
S1152 N1153 1.613 . S
S1152 N1154 1.610 . S
N1153 S1152 1.613 . S
N1153 C1156 1.350 . S
N1154 S1152 1.610 . S
N1154 C1155 1.351 . S
C1155 C1149 1.428 . S
C1155 N1154 1.351 . S
C1155 C1156 1.434 . S
C1156 C1147 1.429 . S
C1156 N1153 1.350 . S
C1156 C1155 1.434 . S
C1157 C1158 1.369 . S
C1157 C1159 1.419 . S
C1157 H1161 0.930 . S
C1158 C1157 1.369 . S
C1158 C1167 1.429 . S
C1159 C1157 1.419 . S
C1159 C1160 1.363 . S
C1159 H1162 0.929 . S
C1160 C1159 1.363 . S
C1160 C1166 1.428 . S
H1161 C1157 0.930 . S
H1162 C1159 0.929 . S
S1163 N1164 1.613 . S
S1163 N1165 1.610 . S
N1164 S1163 1.613 . S
N1164 C1167 1.350 . S
N1165 S1163 1.610 . S
N1165 C1166 1.351 . S
C1166 C1160 1.428 . S
C1166 N1165 1.351 . S
C1166 C1167 1.434 . S
C1167 C1158 1.429 . S
C1167 N1164 1.350 . S
C1167 C1166 1.434 . S
C641 C24 1.615 . S
C643 C384 1.612 . S
C652 C64 1.617 . S
C654 C344 1.612 . S
C663 C464 1.613 . S
C665 C104 1.613 . S
C674 C144 1.613 . S
C676 C424 1.613 . S
C685 C533 1.615 . S
C687 C173 1.615 . S
C696 C493 1.616 . S
C698 C213 1.612 . S
C707 C613 1.612 . S
C709 C253 1.615 . S
C718 C293 1.617 . S
C720 C573 1.612 . S
C729 C103 1.763 . S
C731 C23 1.764 . S
C740 C143 1.763 . S
C742 C63 1.764 . S
C751 C242 1.764 . S
C753 C162 1.763 . S
C762 C202 1.762 . S
C764 C282 1.763 . S
C773 C423 1.762 . S
C775 C343 1.764 . S
C784 C463 1.762 . S
C786 C383 1.764 . S
C795 C482 1.762 . S
C797 C562 1.763 . S
C806 C522 1.764 . S
C808 C602 1.763 . S
C817 C223 1.551 . S
C819 C2 1.552 . S
C828 C183 1.551 . S
C830 C42 1.552 . S
C839 C82 1.559 . S
C841 C303 1.558 . S
C850 C263 1.552 . S
C852 C122 1.553 . S
C861 C322 1.552 . S
C863 C543 1.553 . S
C872 C503 1.551 . S
C874 C362 1.552 . S
C883 C402 1.556 . S
C885 C623 1.556 . S
C894 C583 1.552 . S
C896 C442 1.553 . S
C905 C53 1.573 . S
C907 C13 1.569 . S
C916 C133 1.571 . S
C918 C93 1.572 . S
C927 C224 1.572 . S
C929 C184 1.568 . S
C938 C264 1.567 . S
C940 C304 1.572 . S
C949 C373 1.573 . S
C951 C333 1.569 . S
C960 C453 1.573 . S
C962 C413 1.570 . S
C971 C504 1.569 . S
C973 C544 1.570 . S
C982 C584 1.573 . S
C984 C624 1.569 . S
C993 C26 1.377 . S
C995 C17 1.381 . S
C1004 C66 1.377 . S
C1006 C57 1.381 . S
C1015 C106 1.379 . S
C1017 C97 1.380 . S
C1026 C137 1.382 . S
C1028 C146 1.378 . S
C1037 C177 1.381 . S
C1039 C186 1.378 . S
C1048 C226 1.379 . S
C1050 C217 1.379 . S
C1059 C257 1.377 . S
C1061 C266 1.381 . S
C1070 C297 1.381 . S
C1072 C306 1.378 . S
C1081 C337 1.377 1_545 S
C1083 C346 1.381 . S
C1092 C386 1.382 . S
C1094 C377 1.378 1_565 S
C1103 C417 1.377 1_565 S
C1105 C426 1.381 . S
C1114 C457 1.380 1_545 S
C1116 C466 1.379 . S
C1125 C497 1.377 . S
C1127 C506 1.381 1_565 S
C1136 C537 1.381 . S
C1138 C546 1.378 1_545 S
C1147 C586 1.382 1_545 S
C1149 C577 1.378 . S
C1158 C617 1.381 . S
C1160 C626 1.378 1_565 S
