# Generated by pormake.
# Topology ukk, (4)-cn, num edge types: 1
# Building blocks:
#     Node 0, Type 0, BuildingBlock: QUQFOY_clean_sbu_3, # of connection points: 4
#     Node 1, Type 0, BuildingBlock: QUQFOY_clean_sbu_3, # of connection points: 4
#     Node 2, Type 0, BuildingBlock: QUQFOY_clean_sbu_3, # of connection points: 4
#     Node 3, Type 0, BuildingBlock: QUQFOY_clean_sbu_3, # of connection points: 4
#     Node 4, Type 0, BuildingBlock: QUQFOY_clean_sbu_3, # of connection points: 4
#     Node 5, Type 0, BuildingBlock: QUQFOY_clean_sbu_3, # of connection points: 4
#     Node 6, Type 0, BuildingBlock: QUQFOY_clean_sbu_3, # of connection points: 4
#     Node 7, Type 0, BuildingBlock: QUQFOY_clean_sbu_3, # of connection points: 4
#     Node 8, Type 0, BuildingBlock: QUQFOY_clean_sbu_3, # of connection points: 4
#     Node 9, Type 0, BuildingBlock: QUQFOY_clean_sbu_3, # of connection points: 4
#     Node 10, Type 0, BuildingBlock: QUQFOY_clean_sbu_3, # of connection points: 4
#     Node 11, Type 0, BuildingBlock: QUQFOY_clean_sbu_3, # of connection points: 4
#     Node 12, Type 0, BuildingBlock: QUQFOY_clean_sbu_3, # of connection points: 4
#     Node 13, Type 0, BuildingBlock: QUQFOY_clean_sbu_3, # of connection points: 4
#     Node 14, Type 0, BuildingBlock: QUQFOY_clean_sbu_3, # of connection points: 4
#     Node 15, Type 0, BuildingBlock: QUQFOY_clean_sbu_3, # of connection points: 4
#     Edge 16, Type (0, 0), BuildingBlock: MIFKUJ_clean_linker_0, # of connection points: 2
#     Edge 17, Type (0, 0), BuildingBlock: MIFKUJ_clean_linker_0, # of connection points: 2
#     Edge 18, Type (0, 0), BuildingBlock: MIFKUJ_clean_linker_0, # of connection points: 2
#     Edge 19, Type (0, 0), BuildingBlock: MIFKUJ_clean_linker_0, # of connection points: 2
#     Edge 20, Type (0, 0), BuildingBlock: MIFKUJ_clean_linker_0, # of connection points: 2
#     Edge 21, Type (0, 0), BuildingBlock: MIFKUJ_clean_linker_0, # of connection points: 2
#     Edge 22, Type (0, 0), BuildingBlock: MIFKUJ_clean_linker_0, # of connection points: 2
#     Edge 23, Type (0, 0), BuildingBlock: MIFKUJ_clean_linker_0, # of connection points: 2
#     Edge 24, Type (0, 0), BuildingBlock: MIFKUJ_clean_linker_0, # of connection points: 2
#     Edge 25, Type (0, 0), BuildingBlock: MIFKUJ_clean_linker_0, # of connection points: 2
#     Edge 26, Type (0, 0), BuildingBlock: MIFKUJ_clean_linker_0, # of connection points: 2
#     Edge 27, Type (0, 0), BuildingBlock: MIFKUJ_clean_linker_0, # of connection points: 2
#     Edge 28, Type (0, 0), BuildingBlock: MIFKUJ_clean_linker_0, # of connection points: 2
#     Edge 29, Type (0, 0), BuildingBlock: MIFKUJ_clean_linker_0, # of connection points: 2
#     Edge 30, Type (0, 0), BuildingBlock: MIFKUJ_clean_linker_0, # of connection points: 2
#     Edge 31, Type (0, 0), BuildingBlock: MIFKUJ_clean_linker_0, # of connection points: 2
#     Edge 32, Type (0, 0), BuildingBlock: MIFKUJ_clean_linker_0, # of connection points: 2
#     Edge 33, Type (0, 0), BuildingBlock: MIFKUJ_clean_linker_0, # of connection points: 2
#     Edge 34, Type (0, 0), BuildingBlock: MIFKUJ_clean_linker_0, # of connection points: 2
#     Edge 35, Type (0, 0), BuildingBlock: MIFKUJ_clean_linker_0, # of connection points: 2
#     Edge 36, Type (0, 0), BuildingBlock: MIFKUJ_clean_linker_0, # of connection points: 2
#     Edge 37, Type (0, 0), BuildingBlock: MIFKUJ_clean_linker_0, # of connection points: 2
#     Edge 38, Type (0, 0), BuildingBlock: MIFKUJ_clean_linker_0, # of connection points: 2
#     Edge 39, Type (0, 0), BuildingBlock: MIFKUJ_clean_linker_0, # of connection points: 2
#     Edge 40, Type (0, 0), BuildingBlock: MIFKUJ_clean_linker_0, # of connection points: 2
#     Edge 41, Type (0, 0), BuildingBlock: MIFKUJ_clean_linker_0, # of connection points: 2
#     Edge 42, Type (0, 0), BuildingBlock: MIFKUJ_clean_linker_0, # of connection points: 2
#     Edge 43, Type (0, 0), BuildingBlock: MIFKUJ_clean_linker_0, # of connection points: 2
#     Edge 44, Type (0, 0), BuildingBlock: MIFKUJ_clean_linker_0, # of connection points: 2
#     Edge 45, Type (0, 0), BuildingBlock: MIFKUJ_clean_linker_0, # of connection points: 2
#     Edge 46, Type (0, 0), BuildingBlock: MIFKUJ_clean_linker_0, # of connection points: 2
#     Edge 47, Type (0, 0), BuildingBlock: MIFKUJ_clean_linker_0, # of connection points: 2
# Relax obj value: 0.125
# Max RMSD: 0.295
# Mean RMSD: 0.295
data_MOF--net-ukk--node1-QUQFOY_clean_sbu_3--edge1-MIFKUJ_clean_linker_0
_symmetry_space_group_name_H-M    P1
_symmetry_Int_Tables_number       1
_symmetry_cell_setting            triclinic
loop_
_symmetry_equiv_pos_as_xyz
'x, y, z'
_cell_length_a     70.656821
_cell_length_b     70.651311
_cell_length_c     22.246833
_cell_angle_alpha  90.065281
_cell_angle_beta   90.039807
_cell_angle_gamma 89.918771
loop_
_atom_site_label
_atom_site_type_symbol
_atom_site_fract_x
_atom_site_fract_y
_atom_site_fract_z
_atom_type_partial_charge
C0 C 0.35355 0.08818 0.29708 0.0
O1 O 0.35779 0.10393 0.32093 0.0
Cd2 Cd 0.36138 0.13158 0.25811 0.0
O3 O 0.35035 0.08704 0.24091 0.0
Cd4 Cd 0.3483 0.10584 0.14818 0.0
C5 C 0.39509 0.11358 0.16029 0.0
O6 O 0.33529 0.13535 0.18958 0.0
O7 O 0.34606 0.13612 0.09857 0.0
O8 O 0.31895 0.08898 0.13334 0.0
C9 C 0.3377 0.14461 0.14121 0.0
O10 O 0.39025 0.12442 0.20344 0.0
C11 C 0.32202 0.08424 0.07922 0.0
O12 O 0.38275 0.10396 0.13168 0.0
O13 O 0.33786 0.08906 0.05684 0.0
C14 C 0.07615 0.63827 0.72295 0.0
O15 O 0.09069 0.63621 0.69013 0.0
Cd16 Cd 0.12133 0.6337 0.73897 0.0
O17 O 0.07791 0.64002 0.77956 0.0
Cd18 Cd 0.10051 0.64221 0.86258 0.0
C19 C 0.11205 0.59677 0.8372 0.0
O20 O 0.12646 0.65886 0.81051 0.0
O21 O 0.13209 0.64727 0.89879 0.0
O22 O 0.07947 0.66781 0.89109 0.0
C23 C 0.13791 0.65672 0.85418 0.0
O24 O 0.12015 0.60333 0.79049 0.0
C25 C 0.07952 0.66414 0.94687 0.0
O26 O 0.10263 0.60762 0.87196 0.0
O27 O 0.08901 0.64981 0.96388 0.0
C28 C 0.64637 0.90197 0.30715 0.0
O29 O 0.64194 0.88741 0.33724 0.0
Cd30 Cd 0.63502 0.85858 0.28274 0.0
O31 O 0.64829 0.90085 0.25046 0.0
Cd32 Cd 0.64735 0.87805 0.16719 0.0
C33 C 0.60052 0.87482 0.18602 0.0
O34 O 0.65918 0.84834 0.21261 0.0
O35 O 0.64387 0.84652 0.1284 0.0
O36 O 0.67817 0.88998 0.14004 0.0
C37 C 0.65387 0.83836 0.16801 0.0
O38 O 0.6052 0.86516 0.232 0.0
C39 C 0.67404 0.89432 0.08633 0.0
O40 O 0.61312 0.88252 0.15322 0.0
O41 O 0.65706 0.8914 0.06967 0.0
C42 C 0.90881 0.36784 0.73098 0.0
O43 O 0.89452 0.37025 0.69737 0.0
Cd44 Cd 0.86469 0.37488 0.74899 0.0
O45 O 0.90651 0.36502 0.78689 0.0
Cd46 Cd 0.882 0.35996 0.86309 0.0
C47 C 0.87699 0.40661 0.86069 0.0
O48 O 0.85311 0.34908 0.81028 0.0
O49 O 0.85021 0.36186 0.89858 0.0
O50 O 0.89357 0.32819 0.87866 0.0
C51 C 0.84261 0.35302 0.85521 0.0
O52 O 0.86936 0.40319 0.80993 0.0
C53 C 0.89792 0.33028 0.93358 0.0
O54 O 0.88384 0.39328 0.89251 0.0
O55 O 0.8952 0.34659 0.9564 0.0
C56 C 0.35476 0.40335 0.94171 0.0
O57 O 0.3587 0.388 0.91478 0.0
Cd58 Cd 0.36016 0.35844 0.97017 0.0
O59 O 0.35127 0.40336 0.99776 0.0
Cd60 Cd 0.34875 0.38216 0.08446 0.0
C61 C 0.39458 0.36927 0.07428 0.0
O62 O 0.33381 0.3541 0.0373 0.0
O63 O 0.34434 0.35159 0.12845 0.0
O64 O 0.32034 0.39983 0.10784 0.0
C65 C 0.33563 0.34415 0.08464 0.0
O66 O 0.38899 0.3598 0.02891 0.0
C67 C 0.32456 0.40332 0.16216 0.0
O68 O 0.38324 0.38028 0.10215 0.0
O69 O 0.3406 0.39751 0.18046 0.0
C70 C 0.39713 0.63583 0.01818 0.0
O71 O 0.38194 0.63247 0.04658 0.0
Cd72 Cd 0.35267 0.63059 0.98922 0.0
O73 O 0.39662 0.63915 0.96211 0.0
Cd74 Cd 0.37572 0.64305 0.87587 0.0
C75 C 0.36548 0.59677 0.88446 0.0
O76 O 0.34716 0.65696 0.92254 0.0
O77 O 0.34505 0.64623 0.8314 0.0
O78 O 0.39287 0.6721 0.86102 0.0
C79 C 0.33731 0.65482 0.87502 0.0
O80 O 0.35577 0.60185 0.92994 0.0
C81 C 0.39703 0.66926 0.8063 0.0
O82 O 0.37572 0.60869 0.85633 0.0
O83 O 0.39163 0.65368 0.78328 0.0
C84 C 0.63757 0.57524 0.96493 0.0
O85 O 0.63825 0.58974 0.93152 0.0
Cd86 Cd 0.6311 0.61941 0.9805 0.0
O87 O 0.63636 0.5772 0.02161 0.0
Cd88 Cd 0.63735 0.60196 0.09957 0.0
C89 C 0.59218 0.60821 0.0681 0.0
O90 O 0.65366 0.62983 0.05518 0.0
O91 O 0.63398 0.63448 0.12829 0.0
O92 O 0.66479 0.58481 0.13647 0.0
C93 C 0.64675 0.64105 0.09429 0.0
O94 O 0.59909 0.61636 0.02198 0.0
C95 C 0.6601 0.58545 0.19142 0.0
O96 O 0.603 0.60019 0.10613 0.0
O97 O 0.64443 0.59337 0.20407 0.0
C98 C 0.5864 0.34205 0.03079 0.0
O99 O 0.60186 0.34506 0.05836 0.0
Cd100 Cd 0.63221 0.3451 0.00713 0.0
O101 O 0.5863 0.33875 0.97454 0.0
Cd102 Cd 0.60698 0.33541 0.88656 0.0
C103 C 0.62286 0.38044 0.90398 0.0
O104 O 0.6336 0.31965 0.9364 0.0
O105 O 0.63712 0.32708 0.84301 0.0
O106 O 0.58507 0.31024 0.85981 0.0
C107 C 0.64423 0.32016 0.89036 0.0
O108 O 0.6318 0.37416 0.94955 0.0
C109 C 0.5841 0.31459 0.80455 0.0
O110 O 0.61163 0.36981 0.87424 0.0
O111 O 0.59323 0.32913 0.78764 0.0
C112 C 0.83969 0.5928 0.82456 0.0
O113 O 0.84303 0.60887 0.84792 0.0
Cd114 Cd 0.84476 0.63738 0.78846 0.0
O115 O 0.83651 0.59128 0.7684 0.0
Cd116 Cd 0.834 0.61074 0.67673 0.0
C117 C 0.88004 0.62289 0.69135 0.0
O118 O 0.81856 0.63902 0.71996 0.0
O119 O 0.82872 0.64068 0.62847 0.0
O120 O 0.80753 0.59027 0.64971 0.0
C121 C 0.82007 0.64849 0.67166 0.0
O122 O 0.8744 0.63332 0.73453 0.0
C123 C 0.81232 0.58854 0.59498 0.0
O124 O 0.86851 0.61225 0.66306 0.0
O125 O 0.8277 0.59635 0.57904 0.0
C126 C 0.58833 0.13301 0.20702 0.0
O127 O 0.60364 0.13101 0.17785 0.0
Cd128 Cd 0.63361 0.13231 0.23141 0.0
O129 O 0.58877 0.13634 0.26318 0.0
Cd130 Cd 0.61008 0.14159 0.34817 0.0
C131 C 0.62646 0.09689 0.33538 0.0
O132 O 0.63565 0.15941 0.29722 0.0
O133 O 0.64023 0.15005 0.38881 0.0
O134 O 0.58737 0.16629 0.37328 0.0
C135 C 0.64615 0.15921 0.34372 0.0
O136 O 0.63507 0.10311 0.28915 0.0
C137 C 0.58691 0.16263 0.42907 0.0
O138 O 0.61512 0.10751 0.36466 0.0
O139 O 0.59671 0.14865 0.44716 0.0
C140 C 0.14718 0.4036 0.80184 0.0
O141 O 0.14304 0.38826 0.8283 0.0
Cd142 Cd 0.13979 0.35956 0.76924 0.0
O143 O 0.15033 0.40367 0.74561 0.0
Cd144 Cd 0.15199 0.38279 0.65826 0.0
C145 C 0.1055 0.37472 0.67036 0.0
O146 O 0.16525 0.35329 0.6998 0.0
O147 O 0.15022 0.35167 0.61506 0.0
O148 O 0.18215 0.3966 0.6315 0.0
C149 C 0.16046 0.34355 0.65412 0.0
O150 O 0.11047 0.36374 0.71295 0.0
C151 C 0.17734 0.40177 0.57907 0.0
O152 O 0.11759 0.38521 0.64404 0.0
O153 O 0.16033 0.39853 0.56342 0.0
C154 C 0.40574 0.85825 0.21063 0.0
O155 O 0.39074 0.86196 0.1816 0.0
Cd156 Cd 0.36096 0.86338 0.23641 0.0
O157 O 0.40488 0.85454 0.26641 0.0
Cd158 Cd 0.38275 0.85076 0.34949 0.0
C159 C 0.37172 0.89688 0.34325 0.0
O160 O 0.35445 0.83671 0.30105 0.0
O161 O 0.35168 0.84834 0.39091 0.0
O162 O 0.39827 0.82108 0.37147 0.0
C163 C 0.34435 0.83914 0.34786 0.0
O164 O 0.36232 0.89199 0.29692 0.0
C165 C 0.40249 0.82501 0.42548 0.0
O166 O 0.38217 0.88495 0.37066 0.0
O167 O 0.39802 0.84143 0.44431 0.0
C168 C 0.85605 0.90477 0.46011 0.0
O169 O 0.86014 0.88943 0.43339 0.0
Cd170 Cd 0.86318 0.86042 0.49018 0.0
O171 O 0.8532 0.9049 0.51655 0.0
Cd172 Cd 0.85216 0.88348 0.60341 0.0
C173 C 0.89822 0.87252 0.59076 0.0
O174 O 0.83698 0.8555 0.55738 0.0
O175 O 0.84947 0.8523 0.64569 0.0
O176 O 0.82331 0.90005 0.62821 0.0
C177 C 0.83952 0.84532 0.60382 0.0
O178 O 0.89257 0.8627 0.54621 0.0
C179 C 0.82723 0.90294 0.68307 0.0
O180 O 0.88673 0.88321 0.61919 0.0
O181 O 0.84348 0.8976 0.70098 0.0
C182 C 0.90438 0.13518 0.51035 0.0
O183 O 0.8895 0.13314 0.54157 0.0
Cd184 Cd 0.85923 0.13268 0.48971 0.0
O185 O 0.90312 0.13813 0.45415 0.0
Cd186 Cd 0.8806 0.14292 0.37212 0.0
C187 C 0.86786 0.09752 0.38508 0.0
O188 O 0.85387 0.15899 0.42274 0.0
O189 O 0.84916 0.14685 0.33447 0.0
O190 O 0.89885 0.17094 0.35141 0.0
C191 C 0.84294 0.15673 0.37774 0.0
O192 O 0.85937 0.10346 0.43198 0.0
C193 C 0.90103 0.16792 0.29564 0.0
O194 O 0.87828 0.10862 0.35435 0.0
O195 O 0.89424 0.15257 0.27482 0.0
C196 C 0.14342 0.0826 0.46037 0.0
O197 O 0.14059 0.09766 0.43069 0.0
Cd198 Cd 0.1368 0.12708 0.48576 0.0
O199 O 0.14514 0.08327 0.51718 0.0
Cd200 Cd 0.14586 0.10504 0.6026 0.0
C201 C 0.10001 0.11438 0.57954 0.0
O202 O 0.16087 0.13354 0.5601 0.0
O203 O 0.14512 0.13647 0.64315 0.0
O204 O 0.17518 0.09017 0.63157 0.0
C205 C 0.15598 0.14386 0.60441 0.0
O206 O 0.10634 0.12395 0.53543 0.0
C207 C 0.17013 0.08562 0.68429 0.0
O208 O 0.11116 0.10445 0.61178 0.0
O209 O 0.15326 0.08974 0.69948 0.0
C210 C 0.08966 0.85096 0.52241 0.0
O211 O 0.10549 0.85393 0.54778 0.0
Cd212 Cd 0.13483 0.85273 0.49113 0.0
O213 O 0.08885 0.84711 0.46658 0.0
Cd214 Cd 0.10846 0.84252 0.37671 0.0
C215 C 0.12454 0.88738 0.38636 0.0
O216 O 0.13499 0.82591 0.42503 0.0
O217 O 0.13842 0.83418 0.33223 0.0
O218 O 0.08571 0.81754 0.3566 0.0
C219 C 0.14526 0.82611 0.37815 0.0
O220 O 0.13428 0.8813 0.43057 0.0
C221 C 0.08434 0.82084 0.30073 0.0
O222 O 0.11255 0.87673 0.36002 0.0
O223 O 0.09371 0.83475 0.28021 0.0
H224 H 0.34543 0.92289 0.31016 0.0
H225 H 0.34358 0.95601 0.33871 0.0
H226 H 0.3925 0.9493 0.45295 0.0
H227 H 0.39455 0.91575 0.42404 0.0
H228 H 0.33895 0.97453 0.44456 0.0
H229 H 0.41751 0.99182 0.43984 0.0
H230 H 0.44762 0.97965 0.39856 0.0
H231 H 0.41783 0.95552 0.2487 0.0
H232 H 0.38763 0.96764 0.28891 0.0
H233 H 0.37519 0.07972 0.39573 0.0
H234 H 0.37904 0.0484 0.44243 0.0
H235 H 0.3361 0.02587 0.32453 0.0
H236 H 0.33246 0.05679 0.27742 0.0
H237 H 0.3906 0.01664 0.37521 0.0
H238 H 0.31199 0.99197 0.39481 0.0
H239 H 0.28136 0.00513 0.42764 0.0
H240 H 0.31012 0.04552 0.53929 0.0
H241 H 0.34093 0.03244 0.50788 0.0
C242 C 0.35579 0.92834 0.34164 0.0
C243 C 0.37026 0.9167 0.3644 0.0
C244 C 0.3546 0.94729 0.35833 0.0
C245 C 0.3679 0.95514 0.39788 0.0
C246 C 0.38212 0.9435 0.42219 0.0
C247 C 0.38326 0.92437 0.40568 0.0
C248 C 0.36728 0.97581 0.40924 0.0
C249 C 0.35028 0.98379 0.42999 0.0
C250 C 0.38232 0.98785 0.39221 0.0
C251 C 0.40034 0.98039 0.36783 0.0
C252 C 0.41743 0.98389 0.39814 0.0
C253 C 0.43449 0.97701 0.37493 0.0
C254 C 0.43463 0.96675 0.32117 0.0
C255 C 0.4177 0.96336 0.29049 0.0
C256 C 0.40061 0.97021 0.31352 0.0
C257 C 0.36626 0.06816 0.381 0.0
C258 C 0.35358 0.07061 0.33285 0.0
C259 C 0.36852 0.05032 0.40751 0.0
C260 C 0.35777 0.03488 0.3872 0.0
C261 C 0.34436 0.03764 0.34148 0.0
C262 C 0.34235 0.05529 0.31437 0.0
C263 C 0.36188 0.01534 0.40739 0.0
C264 C 0.37953 0.00752 0.39247 0.0
C265 C 0.34735 0.00344 0.42916 0.0
C266 C 0.32881 0.01123 0.44883 0.0
C267 C 0.3118 0.00356 0.42673 0.0
C268 C 0.2944 0.01104 0.445 0.0
C269 C 0.29379 0.02616 0.48547 0.0
C270 C 0.3106 0.03383 0.50783 0.0
C271 C 0.32805 0.02641 0.48973 0.0
H272 H 0.2803 0.03193 0.49953 0.0
H273 H 0.44786 0.96149 0.30318 0.0
H274 H 0.04361 0.64928 0.77717 0.0
H275 H 0.01137 0.64369 0.74358 0.0
H276 H 0.03214 0.61989 0.57772 0.0
H277 H 0.0649 0.62544 0.61129 0.0
H278 H -0.0039 0.64599 0.57513 0.0
H279 H 0.02103 0.58865 0.65778 0.0
H280 H 0.03965 0.56984 0.73004 0.0
H281 H 0.00397 0.58891 0.87411 0.0
H282 H 0.98533 0.6081 0.80287 0.0
H283 H 0.8975 0.60997 0.58831 0.0
H284 H 0.93174 0.60959 0.56713 0.0
H285 H 0.94257 0.63455 0.74068 0.0
H286 H 0.90882 0.63531 0.76169 0.0
H287 H 0.96414 0.60031 0.71063 0.0
H288 H 0.94431 0.66208 0.63116 0.0
H289 H 0.92603 0.68213 0.56138 0.0
H290 H 0.95208 0.65436 0.41081 0.0
H291 H 0.9703 0.63392 0.47984 0.0
C292 C 0.04143 0.64311 0.73311 0.0
C293 C 0.05684 0.63754 0.69726 0.0
C294 C 0.02297 0.63999 0.71393 0.0
C295 C 0.01945 0.6312 0.65859 0.0
C296 C 0.03466 0.6267 0.62062 0.0
C297 C 0.05331 0.62985 0.6399 0.0
C298 C -0.00012 0.62522 0.64495 0.0
C299 C 0.98915 0.63556 0.60325 0.0
C300 C 0.99089 0.61168 0.68192 0.0
C301 C 0.00182 0.59987 0.72494 0.0
C302 C 0.01722 0.58892 0.70492 0.0
C303 C 0.02777 0.57818 0.7457 0.0
C304 C 0.023 0.57819 0.80664 0.0
C305 C 0.00764 0.5889 0.82689 0.0
C306 C -0.00295 0.59969 0.7863 0.0
C307 C 0.90723 0.6154 0.62175 0.0
C308 C 0.90046 0.62268 0.67665 0.0
C309 C 0.92671 0.6152 0.60954 0.0
C310 C 0.93958 0.62199 0.6525 0.0
C311 C 0.93282 0.6292 0.7071 0.0
C312 C 0.9135 0.62969 0.71888 0.0
C313 C 0.96024 0.62156 0.64248 0.0
C314 C 0.97116 0.61008 0.68036 0.0
C315 C 0.96932 0.63395 0.60183 0.0
C316 C 0.95844 0.64629 0.56057 0.0
C317 C 0.94598 0.66011 0.58317 0.0
C318 C 0.93567 0.67157 0.54377 0.0
C319 C 0.93783 0.66947 0.48169 0.0
C320 C 0.95037 0.65594 0.4589 0.0
C321 C 0.96069 0.64441 0.49813 0.0
H322 H 0.92984 0.67836 0.45126 0.0
H323 H 0.0312 0.56987 0.83815 0.0
H324 H 0.66581 0.93245 0.26631 0.0
H325 H 0.66424 0.96483 0.30361 0.0
H326 H 0.6283 0.94679 0.44934 0.0
H327 H 0.62992 0.91406 0.41211 0.0
H328 H 0.61301 0.97606 0.38294 0.0
H329 H 0.67088 0.96402 0.48364 0.0
H330 H 0.70345 0.95212 0.4963 0.0
H331 H 0.72289 0.9899 0.3586 0.0
H332 H 0.6904 0.00186 0.34444 0.0
H333 H 0.60901 0.0769 0.42607 0.0
H334 H 0.61373 0.04344 0.45178 0.0
H335 H 0.65552 0.03855 0.3113 0.0
H336 H 0.65118 0.0717 0.28614 0.0
H337 H 0.66696 0.02013 0.40927 0.0
H338 H 0.60906 0.02504 0.29084 0.0
H339 H 0.57651 0.0359 0.27021 0.0
H340 H 0.55749 0.01082 0.43515 0.0
H341 H 0.59002 1e-05 0.45708 0.0
C342 C 0.6579 0.93526 0.30706 0.0
C343 C 0.64792 0.92074 0.33615 0.0
C344 C 0.6571 0.95378 0.32857 0.0
C345 C 0.64624 0.95821 0.37947 0.0
C346 C 0.63685 0.94363 0.41017 0.0
C347 C 0.63784 0.92496 0.38902 0.0
C348 C 0.64315 0.97836 0.39543 0.0
C349 C 0.62474 0.98567 0.39062 0.0
C350 C 0.6585 0.99088 0.40442 0.0
C351 C 0.67814 0.98381 0.4129 0.0
C352 C 0.68207 0.96972 0.45578 0.0
C353 C 0.70053 0.96297 0.46327 0.0
C354 C 0.71523 0.97024 0.42826 0.0
C355 C 0.7115 0.9843 0.38574 0.0
C356 C 0.69306 0.9911 0.37806 0.0
C357 C 0.61931 0.06871 0.40105 0.0
C358 C 0.62961 0.07697 0.35375 0.0
C359 C 0.62196 0.0496 0.41574 0.0
C360 C 0.63491 0.03847 0.38323 0.0
C361 C 0.64553 0.04686 0.33723 0.0
C362 C 0.64291 0.06584 0.32261 0.0
C363 C 0.63695 0.01783 0.39399 0.0
C364 C 0.65517 0.01047 0.40377 0.0
C365 C 0.62146 0.00525 0.38883 0.0
C366 C 0.60199 0.01196 0.37601 0.0
C367 C 0.59797 0.02201 0.32298 0.0
C368 C 0.57952 0.02813 0.311 0.0
C369 C 0.56495 0.0241 0.35144 0.0
C370 C 0.5688 0.01396 0.40395 0.0
C371 C 0.58723 0.00784 0.41619 0.0
H372 H 0.55066 0.02876 0.34196 0.0
H373 H 0.72951 0.965 0.4341 0.0
H374 H 0.08625 0.40324 0.61239 0.0
H375 H 0.05195 0.40506 0.59451 0.0
H376 H 0.04513 0.34954 0.67199 0.0
H377 H 0.07906 0.34763 0.68982 0.0
H378 H 0.02181 0.35455 0.57435 0.0
H379 H 0.04017 0.3884 0.75884 0.0
H380 H 0.05691 0.41344 0.81509 0.0
H381 H 0.03046 0.45592 0.70547 0.0
H382 H 0.01366 0.43108 0.64832 0.0
H383 H 0.94155 0.36637 0.79481 0.0
H384 H 0.97366 0.37071 0.7588 0.0
H385 H 0.95302 0.37721 0.57752 0.0
H386 H 0.92037 0.37296 0.61352 0.0
H387 H 0.98876 0.40211 0.70064 0.0
H388 H 0.99087 0.35678 0.48926 0.0
H389 H 0.97397 0.33007 0.44187 0.0
H390 H 0.95949 0.30833 0.61604 0.0
H391 H 0.97649 0.33477 0.66434 0.0
C392 C 0.07743 0.39131 0.62457 0.0
C393 C 0.08529 0.37537 0.65309 0.0
C394 C 0.05788 0.39237 0.61437 0.0
C395 C 0.04601 0.37744 0.6321 0.0
C396 C 0.05402 0.36117 0.65764 0.0
C397 C 0.07342 0.36018 0.66833 0.0
C398 C 0.02511 0.3792 0.63058 0.0
C399 C 0.01453 0.3652 0.60087 0.0
C400 C 0.0156 0.39306 0.66515 0.0
C401 C 0.02587 0.40792 0.69893 0.0
C402 C 0.03805 0.40308 0.74649 0.0
C403 C 0.04749 0.41722 0.77862 0.0
C404 C 0.04475 0.43625 0.76383 0.0
C405 C 0.03257 0.44117 0.71684 0.0
C406 C 0.02308 0.42708 0.6846 0.0
C407 C 0.9437 0.36865 0.74716 0.0
C408 C 0.92833 0.36934 0.70705 0.0
C409 C 0.96212 0.37126 0.72674 0.0
C410 C 0.9657 0.37445 0.66566 0.0
C411 C 0.9505 0.37482 0.62492 0.0
C412 C 0.9319 0.37234 0.64553 0.0
C413 C 0.98554 0.3771 0.6461 0.0
C414 C -0.00408 0.39196 0.67191 0.0
C415 C -0.00515 0.3639 0.60858 0.0
C416 C 0.98469 0.34788 0.58027 0.0
C417 C 0.98407 0.34628 0.51736 0.0
C418 C 0.97449 0.33119 0.49037 0.0
C419 C 0.96559 0.31756 0.52592 0.0
C420 C 0.96631 0.31895 0.58855 0.0
C421 C 0.97589 0.334 0.61575 0.0
H422 H 0.95818 0.30589 0.50495 0.0
H423 H 0.05206 0.44719 0.78881 0.0
H424 H 0.37457 0.41306 0.84006 0.0
H425 H 0.37724 0.44484 0.79567 0.0
H426 H 0.33764 0.46631 0.92662 0.0
H427 H 0.33511 0.43495 0.97125 0.0
H428 H 0.33174 0.48075 0.80966 0.0
H429 H 0.38341 0.46941 0.95427 0.0
H430 H 0.41183 0.45224 0.9888 0.0
H431 H 0.43987 0.4649 0.82246 0.0
H432 H 0.41149 0.48195 0.78671 0.0
H433 H 0.3414 0.5698 0.92534 0.0
H434 H 0.34064 0.53646 0.9001 0.0
H435 H 0.38682 0.54421 0.77584 0.0
H436 H 0.38788 0.57807 0.80175 0.0
H437 H 0.39244 0.51381 0.84879 0.0
H438 H 0.34344 0.53383 0.71992 0.0
H439 H 0.31512 0.55161 0.68818 0.0
H440 H 0.28191 0.52298 0.82152 0.0
H441 H 0.31008 0.50523 0.85475 0.0
C442 C 0.3662 0.42453 0.85854 0.0
C443 C 0.35474 0.4216 0.90936 0.0
C444 C 0.36778 0.44263 0.83328 0.0
C445 C 0.35767 0.4579 0.85804 0.0
C446 C 0.3455 0.45471 0.9067 0.0
C447 C 0.34415 0.4368 0.93239 0.0
C448 C 0.36071 0.47761 0.83776 0.0
C449 C 0.34504 0.48801 0.81752 0.0
C450 C 0.37826 0.48688 0.84591 0.0
C451 C 0.39528 0.4767 0.86753 0.0
C452 C 0.39558 0.46839 0.9249 0.0
C453 C 0.41169 0.45871 0.94472 0.0
C454 C 0.42762 0.45742 0.90775 0.0
C455 C 0.4275 0.46586 0.85097 0.0
C456 C 0.41142 0.47553 0.83091 0.0
C457 C 0.35136 0.56457 0.89225 0.0
C458 C 0.36473 0.57666 0.8656 0.0
C459 C 0.35078 0.54546 0.87743 0.0
C460 C 0.36342 0.53788 0.8352 0.0
C461 C 0.3768 0.54983 0.80809 0.0
C462 C 0.37737 0.56914 0.82287 0.0
C463 C 0.36316 0.51718 0.82375 0.0
C464 C 0.37933 0.50656 0.83817 0.0
C465 C 0.34605 0.50769 0.80997 0.0
C466 C 0.32893 0.51818 0.78983 0.0
C467 C 0.33013 0.53138 0.74268 0.0
C468 C 0.31409 0.54145 0.72441 0.0
C469 C 0.29672 0.53842 0.75281 0.0
C470 C 0.29536 0.52529 0.79949 0.0
C471 C 0.31136 0.51517 0.81796 0.0
H472 H 0.28433 0.54625 0.73863 0.0
H473 H 0.44008 0.44992 0.92318 0.0
H474 H 0.4302 0.65035 0.97777 0.0
H475 H 0.46195 0.64285 0.0128 0.0
H476 H 0.43874 0.61051 0.15935 0.0
H477 H 0.40651 0.61788 0.1241 0.0
H478 H 0.47693 0.6376 0.17358 0.0
H479 H 0.44913 0.58278 0.07614 0.0
H480 H 0.42932 0.56782 0.99815 0.0
H481 H 0.46488 0.5911 0.86045 0.0
H482 H 0.48472 0.60646 0.93766 0.0
H483 H 0.57209 0.59807 0.16898 0.0
H484 H 0.53765 0.59968 0.18323 0.0
H485 H 0.53117 0.62047 0.00215 0.0
H486 H 0.56525 0.6189 0.98752 0.0
H487 H 0.50576 0.59267 0.02821 0.0
H488 H 0.53026 0.65035 0.11952 0.0
H489 H 0.54958 0.66821 0.19242 0.0
H490 H 0.52048 0.64128 0.33848 0.0
H491 H 0.50115 0.62306 0.26631 0.0
C492 C 0.43175 0.64197 0.01823 0.0
C493 C 0.41585 0.63445 0.04765 0.0
C494 C 0.44992 0.63778 0.03831 0.0
C495 C 0.4526 0.62603 0.08821 0.0
C496 C 0.43685 0.61966 0.12078 0.0
C497 C 0.4185 0.62387 0.10057 0.0
C498 C 0.47181 0.6186 0.09968 0.0
C499 C 0.48319 0.6273 0.14328 0.0
C500 C 0.47992 0.60547 0.05922 0.0
C501 C 0.46834 0.59585 0.01268 0.0
C502 C 0.45265 0.5848 0.02922 0.0
C503 C 0.44142 0.57624 0.98516 0.0
C504 C 0.44582 0.57853 0.92438 0.0
C505 C 0.46149 0.58933 0.90755 0.0
C506 C 0.47275 0.59795 0.95145 0.0
C507 C 0.56329 0.60288 0.13215 0.0
C508 C 0.57142 0.6084 0.07714 0.0
C509 C 0.54365 0.60384 0.14046 0.0
C510 C 0.53189 0.61024 0.09378 0.0
C511 C 0.53998 0.61543 0.03869 0.0
C512 C 0.55951 0.6146 0.03051 0.0
C513 C 0.51113 0.61194 0.10137 0.0
C514 C 0.49946 0.60229 0.06058 0.0
C515 C 0.50285 0.62423 0.14436 0.0
C516 C 0.51446 0.63516 0.1876 0.0
C517 C 0.52811 0.64811 0.16718 0.0
C518 C 0.53904 0.65832 0.20835 0.0
C519 C 0.53632 0.65582 0.27005 0.0
C520 C 0.52261 0.64315 0.29068 0.0
C521 C 0.51167 0.63289 0.24968 0.0
H522 H 0.54478 0.66375 0.30185 0.0
H523 H 0.43709 0.57192 0.89033 0.0
H524 H 0.60523 0.40063 0.81386 0.0
H525 H 0.6089 0.43447 0.79157 0.0
H526 H 0.64954 0.43936 0.9356 0.0
H527 H 0.64641 0.40592 0.9569 0.0
H528 H 0.60081 0.46373 0.8613 0.0
H529 H 0.68135 0.47166 0.91281 0.0
H530 H 0.71035 0.45269 0.89944 0.0
H531 H 0.68516 0.42397 0.7493 0.0
H532 H 0.65612 0.44299 0.76101 0.0
H533 H 0.62808 0.54265 0.02192 0.0
H534 H 0.62599 0.51093 0.97985 0.0
H535 H 0.64418 0.53188 0.80742 0.0
H536 H 0.64606 0.56413 0.84919 0.0
H537 H 0.66293 0.49643 0.85453 0.0
H538 H 0.60253 0.52177 0.80525 0.0
H539 H 0.57316 0.53977 0.82339 0.0
H540 H 0.55805 0.5015 0.96518 0.0
H541 H 0.58747 0.48343 0.94856 0.0
C542 C 0.61513 0.4089 0.84014 0.0
C543 C 0.62547 0.40055 0.88725 0.0
C544 C 0.61721 0.42821 0.82737 0.0
C545 C 0.62974 0.43939 0.86122 0.0
C546 C 0.64016 0.43098 0.90774 0.0
C547 C 0.63818 0.4118 0.92029 0.0
C548 C 0.63096 0.46016 0.85228 0.0
C549 C 0.61436 0.47088 0.85849 0.0
C550 C 0.64863 0.46952 0.84743 0.0
C551 C 0.66651 0.45879 0.83785 0.0
C552 C 0.68207 0.4615 0.8764 0.0
C553 C 0.6985 0.45067 0.86925 0.0
C554 C 0.69959 0.43713 0.82358 0.0
C555 C 0.6843 0.43446 0.78469 0.0
C556 C 0.66784 0.44527 0.79155 0.0
C557 C 0.63174 0.54061 0.97507 0.0
C558 C 0.63723 0.55595 0.93887 0.0
C559 C 0.63046 0.52246 0.95108 0.0
C560 C 0.63479 0.51915 0.89054 0.0
C561 C 0.64072 0.53425 0.85426 0.0
C562 C 0.64176 0.5526 0.87814 0.0
C563 C 0.63289 0.49972 0.86659 0.0
C564 C 0.64936 0.48927 0.85474 0.0
C565 C 0.61511 0.49058 0.86581 0.0
C566 C 0.59726 0.50127 0.87572 0.0
C567 C 0.593 0.51725 0.84056 0.0
C568 C 0.57634 0.52747 0.85054 0.0
C569 C 0.56375 0.52179 0.89544 0.0
C570 C 0.5678 0.50587 0.93038 0.0
C571 C 0.58446 0.49561 0.92061 0.0
H572 H 0.55086 0.52972 0.90311 0.0
H573 H 0.71228 0.42868 0.81838 0.0
H574 H 0.42014 0.3437 0.03279 0.0
H575 H 0.453 0.33995 0.06133 0.0
H576 H 0.44762 0.3856 0.18914 0.0
H577 H 0.41422 0.38965 0.16013 0.0
H578 H 0.47935 0.38896 0.11873 0.0
H579 H 0.45369 0.3416 0.24299 0.0
H580 H 0.43312 0.31495 0.27158 0.0
H581 H 0.45998 0.27965 0.13951 0.0
H582 H 0.48053 0.30616 0.1094 0.0
H583 H 0.57784 0.36214 0.13303 0.0
H584 H 0.54617 0.36734 0.176 0.0
H585 H 0.52225 0.32999 0.04265 0.0
H586 H 0.55353 0.32494 0.99946 0.0
H587 H 0.50639 0.32527 0.15768 0.0
H588 H 0.52351 0.37616 0.0164 0.0
H589 H 0.54346 0.40296 0.98449 0.0
H590 H 0.5322 0.43147 0.1513 0.0
H591 H 0.51236 0.40469 0.18443 0.0
C592 C 0.42578 0.35295 0.06725 0.0
C593 C 0.41449 0.36702 0.0941 0.0
C594 C 0.44461 0.35065 0.08395 0.0
C595 C 0.45269 0.36224 0.12821 0.0
C596 C 0.44157 0.37637 0.15532 0.0
C597 C 0.42253 0.37866 0.1387 0.0
C598 C 0.47312 0.36004 0.14196 0.0
C599 C 0.48528 0.37519 0.12935 0.0
C600 C 0.48087 0.34206 0.15573 0.0
C601 C 0.46867 0.32593 0.17393 0.0
C602 C 0.45516 0.32819 0.21982 0.0
C603 C 0.4435 0.3131 0.23631 0.0
C604 C 0.44525 0.29562 0.20739 0.0
C605 C 0.45867 0.29319 0.16195 0.0
C606 C 0.47037 0.30824 0.14525 0.0
C607 C 0.56584 0.35478 0.11376 0.0
C608 C 0.56809 0.34326 0.06262 0.0
C609 C 0.5478 0.35779 0.13822 0.0
C610 C 0.5319 0.3491 0.11229 0.0
C611 C 0.53435 0.33678 0.06345 0.0
C612 C 0.55222 0.33399 0.03859 0.0
C613 C 0.51239 0.35391 0.13127 0.0
C614 C 0.50044 0.33922 0.14988 0.0
C615 C 0.50484 0.3723 0.12324 0.0
C616 C 0.51669 0.38836 0.10319 0.0
C617 C 0.52542 0.38808 0.04643 0.0
C618 C 0.53669 0.40327 0.0281 0.0
C619 C 0.53916 0.41888 0.06594 0.0
C620 C 0.53032 0.41935 0.12211 0.0
C621 C 0.51907 0.40418 0.14069 0.0
H622 H 0.54787 0.43063 0.05166 0.0
H623 H 0.4362 0.28395 0.22019 0.0
H624 H 0.87921 0.43822 0.79273 0.0
H625 H 0.87601 0.47099 0.82552 0.0
H626 H 0.87135 0.45262 0.00974 0.0
H627 H 0.87496 0.41947 0.97699 0.0
H628 H 0.84145 0.47735 0.96796 0.0
H629 H 0.90809 0.47673 0.98323 0.0
H630 H 0.94083 0.46934 0.95295 0.0
H631 H 0.93438 0.50366 0.79509 0.0
H632 H 0.90151 0.51103 0.82387 0.0
H633 H 0.86071 0.58741 0.92647 0.0
H634 H 0.86834 0.557 0.97389 0.0
H635 H 0.8305 0.52862 0.85125 0.0
H636 H 0.82307 0.55877 0.80331 0.0
H637 H 0.88557 0.52861 0.90876 0.0
H638 H 0.81228 0.49011 0.91741 0.0
H639 H 0.77954 0.49742 0.94788 0.0
H640 H 0.79967 0.54165 0.06383 0.0
H641 H 0.83257 0.53445 0.03476 0.0
C642 C 0.87781 0.44115 0.84034 0.0
C643 C 0.87729 0.42635 0.88234 0.0
C644 C 0.87607 0.45987 0.85904 0.0
C645 C 0.87354 0.4642 0.92004 0.0
C646 C 0.8734 0.44951 0.9625 0.0
C647 C 0.87553 0.43067 0.94381 0.0
C648 C 0.86953 0.48403 0.93717 0.0
C649 C 0.85117 0.48863 0.95625 0.0
C650 C 0.88243 0.49865 0.92328 0.0
C651 C 0.90229 0.49443 0.90579 0.0
C652 C 0.91361 0.48263 0.94189 0.0
C653 C 0.93221 0.47845 0.925 0.0
C654 C 0.93968 0.48602 0.87214 0.0
C655 C 0.92858 0.49782 0.83609 0.0
C656 C 0.90997 0.50204 0.85276 0.0
C657 C 0.85363 0.57474 0.9108 0.0
C658 C 0.8414 0.5754 0.86091 0.0
C659 C 0.85803 0.5574 0.93785 0.0
C660 C 0.84992 0.54059 0.91629 0.0
C661 C 0.83673 0.54145 0.86916 0.0
C662 C 0.83258 0.55867 0.84152 0.0
C663 C 0.8571 0.52188 0.93577 0.0
C664 C 0.87604 0.51746 0.92298 0.0
C665 C 0.84474 0.50746 0.9557 0.0
C666 C 0.82494 0.51175 0.97373 0.0
C667 C 0.80977 0.5013 0.94974 0.0
C668 C 0.79116 0.50546 0.96668 0.0
C669 C 0.78753 0.52 0.00772 0.0
C670 C 0.8025 0.53042 0.03193 0.0
C671 C 0.82113 0.52633 0.01514 0.0
H672 H 0.77312 0.5232 0.02078 0.0
H673 H 0.95408 0.48276 0.85912 0.0
H674 H 0.55414 0.14343 0.25117 0.0
H675 H 0.52306 0.13503 0.21278 0.0
H676 H 0.54865 0.10809 0.059 0.0
H677 H 0.58026 0.11648 0.09749 0.0
H678 H 0.51093 0.13284 0.04424 0.0
H679 H 0.53731 0.07806 0.14021 0.0
H680 H 0.55614 0.06213 0.21863 0.0
H681 H 0.51795 0.08251 0.35413 0.0
H682 H 0.49906 0.09885 0.27663 0.0
H683 H 0.41201 0.09936 0.05768 0.0
H684 H 0.44625 0.0972 0.03705 0.0
H685 H 0.45803 0.12139 0.21115 0.0
H686 H 0.42441 0.12378 0.23166 0.0
H687 H 0.47929 0.08832 0.18421 0.0
H688 H 0.45926 0.14886 0.09398 0.0
H689 H 0.44118 0.16763 0.02015 0.0
H690 H 0.46743 0.13701 0.8756 0.0
H691 H 0.48549 0.11789 0.94876 0.0
C692 C 0.55327 0.13596 0.2087 0.0
C693 C 0.5697 0.13039 0.1778 0.0
C694 C 0.53547 0.13123 0.18674 0.0
C695 C 0.53364 0.1208 0.13351 0.0
C696 C 0.54986 0.11617 0.10021 0.0
C697 C 0.56785 0.12095 0.12229 0.0
C698 C 0.51474 0.11338 0.1177 0.0
C699 C 0.50409 0.12258 0.07323 0.0
C700 C 0.5059 0.10008 0.15585 0.0
C701 C 0.51679 0.08971 0.20254 0.0
C702 C 0.53296 0.0792 0.18675 0.0
C703 C 0.54365 0.07009 0.23105 0.0
C704 C 0.53826 0.07132 0.29134 0.0
C705 C 0.5221 0.08156 0.3074 0.0
C706 C 0.51137 0.09071 0.26328 0.0
C707 C 0.42196 0.10415 0.09144 0.0
C708 C 0.41549 0.11179 0.14621 0.0
C709 C 0.44145 0.10293 0.07958 0.0
C710 C 0.4546 0.10907 0.12276 0.0
C711 C 0.4481 0.11647 0.17741 0.0
C712 C 0.42883 0.11792 0.18888 0.0
C713 C 0.47527 0.10836 0.11247 0.0
C714 C 0.48625 0.09773 0.15272 0.0
C715 C 0.48434 0.1203 0.07043 0.0
C716 C 0.47349 0.13178 0.02674 0.0
C717 C 0.46103 0.14601 0.04647 0.0
C718 C 0.45082 0.15674 0.00476 0.0
C719 C 0.4531 0.15347 0.94322 0.0
C720 C 0.46564 0.13949 0.92327 0.0
C721 C 0.47586 0.12871 0.96482 0.0
H722 H 0.44519 0.16179 0.911 0.0
H723 H 0.54662 0.06438 0.32562 0.0
H724 H 0.09888 0.57685 0.93531 0.0
H725 H 0.10169 0.5426 0.95319 0.0
H726 H 0.13147 0.53632 0.78514 0.0
H727 H 0.12873 0.57006 0.7669 0.0
H728 H 0.10351 0.51016 0.79785 0.0
H729 H 0.15499 0.53717 0.91721 0.0
H730 H 0.16782 0.55712 0.99865 0.0
H731 H 0.13498 0.52638 0.12819 0.0
H732 H 0.12179 0.50639 0.04729 0.0
H733 H 0.16369 0.43654 0.76846 0.0
H734 H 0.15517 0.46818 0.80247 0.0
H735 H 0.11912 0.44437 0.93902 0.0
H736 H 0.12758 0.41234 0.90494 0.0
H737 H 0.14243 0.4832 0.96285 0.0
H738 H 0.09575 0.45198 0.83879 0.0
H739 H 0.08689 0.43135 0.75391 0.0
H740 H 0.11172 0.47063 0.62998 0.0
H741 H 0.12154 0.49108 0.7143 0.0
C742 C 0.10601 0.56813 0.90224 0.0
C743 C 0.11357 0.57622 0.84964 0.0
C744 C 0.10762 0.5486 0.91259 0.0
C745 C 0.11676 0.53695 0.8704 0.0
C746 C 0.12425 0.54503 0.81809 0.0
C747 C 0.12272 0.5644 0.80788 0.0
C748 C 0.11882 0.51627 0.87937 0.0
C749 C 0.11181 0.50425 0.83436 0.0
C750 C 0.12927 0.50849 0.92776 0.0
C751 C 0.13722 0.52048 0.9762 0.0
C752 C 0.15038 0.53479 0.963 0.0
C753 C 0.15775 0.54607 0.00906 0.0
C754 C 0.15216 0.54307 0.06853 0.0
C755 C 0.13925 0.52872 0.08208 0.0
C756 C 0.13183 0.51742 0.03617 0.0
C757 C 0.15438 0.43796 0.80691 0.0
C758 C 0.14603 0.42198 0.83336 0.0
C759 C 0.1496 0.45605 0.82644 0.0
C760 C 0.13636 0.45852 0.87262 0.0
C761 C 0.12941 0.44266 0.90334 0.0
C762 C 0.13424 0.42441 0.88377 0.0
C763 C 0.12766 0.47739 0.88023 0.0
C764 C 0.13345 0.48902 0.92787 0.0
C765 C 0.1161 0.4849 0.83412 0.0
C766 C 0.10951 0.47301 0.78303 0.0
C767 C 0.09948 0.45615 0.79351 0.0
C768 C 0.09428 0.44448 0.74548 0.0
C769 C 0.09865 0.44971 0.6866 0.0
C770 C 0.10831 0.4666 0.67563 0.0
C771 C 0.11375 0.47822 0.72355 0.0
H772 H 0.09457 0.44067 0.64949 0.0
H773 H 0.15788 0.55181 0.10413 0.0
H774 H 0.43869 0.84389 0.25321 0.0
H775 H 0.47058 0.85107 0.2192 0.0
H776 H 0.44802 0.88314 0.0708 0.0
H777 H 0.41563 0.8761 0.10503 0.0
H778 H 0.48602 0.85482 0.05992 0.0
H779 H 0.45911 0.91131 0.14945 0.0
H780 H 0.43896 0.92743 0.22408 0.0
H781 H 0.4728 0.90468 0.36722 0.0
H782 H 0.49295 0.8881 0.2934 0.0
H783 H 0.58398 0.88698 0.0805 0.0
H784 H 0.5499 0.88896 0.05823 0.0
H785 H 0.53731 0.86953 0.23753 0.0
H786 H 0.57089 0.86749 0.25991 0.0
H787 H 0.51519 0.89972 0.20448 0.0
H788 H 0.53702 0.83923 0.12153 0.0
H789 H 0.55632 0.81974 0.05281 0.0
H790 H 0.5321 0.84841 0.90093 0.0
H791 H 0.51282 0.86823 0.96893 0.0
C792 C 0.4404 0.85217 0.21263 0.0
C793 C 0.42463 0.85966 0.18229 0.0
C794 C 0.45865 0.85618 0.19314 0.0
C795 C 0.46157 0.86773 0.1429 0.0
C796 C 0.44596 0.87415 0.10964 0.0
C797 C 0.42752 0.87013 0.12927 0.0
C798 C 0.48092 0.8747 0.13147 0.0
C799 C 0.49237 0.86515 0.08985 0.0
C800 C 0.48914 0.88794 0.17134 0.0
C801 C 0.47748 0.8984 0.21587 0.0
C802 C 0.46219 0.90967 0.19685 0.0
C803 C 0.45077 0.91889 0.23902 0.0
C804 C 0.45457 0.91706 0.30038 0.0
C805 C 0.46987 0.90608 0.31967 0.0
C806 C 0.48132 0.89679 0.27767 0.0
C807 C 0.5739 0.88327 0.11517 0.0
C808 C 0.58014 0.87699 0.17188 0.0
C809 C 0.55448 0.88438 0.10235 0.0
C810 C 0.54111 0.87939 0.14627 0.0
C811 C 0.54738 0.87354 0.20308 0.0
C812 C 0.56663 0.87227 0.21567 0.0
C813 C 0.52049 0.87947 0.13399 0.0
C814 C 0.50882 0.89019 0.17203 0.0
C815 C 0.51215 0.86728 0.09092 0.0
C816 C 0.52371 0.85538 0.05024 0.0
C817 C 0.53595 0.84149 0.0735 0.0
C818 C 0.54685 0.83036 0.0347 0.0
C819 C 0.54549 0.83288 0.97255 0.0
C820 C 0.53318 0.8465 0.94908 0.0
C821 C 0.52226 0.85769 0.98771 0.0
H822 H 0.55394 0.82425 0.94257 0.0
H823 H 0.44567 0.92415 0.33298 0.0
H824 H 0.83746 0.93671 0.49348 0.0
H825 H 0.8382 0.96758 0.44504 0.0
H826 H 0.87341 0.94498 0.30373 0.0
H827 H 0.87258 0.91371 0.35211 0.0
H828 H 0.88801 0.9776 0.35811 0.0
H829 H 0.83075 0.95915 0.26465 0.0
H830 H 0.79887 0.94522 0.2571 0.0
H831 H 0.77753 0.98654 0.38154 0.0
H832 H 0.80933 0.00057 0.39055 0.0
H833 H 0.88616 0.07758 0.29546 0.0
H834 H 0.88326 0.04362 0.27335 0.0
H835 H 0.84188 0.03822 0.41484 0.0
H836 H 0.84439 0.07175 0.43627 0.0
H837 H 0.8316 0.01771 0.32006 0.0
H838 H 0.88971 0.02828 0.43645 0.0
H839 H 0.92156 0.04177 0.45159 0.0
H840 H 0.94086 0.01485 0.28961 0.0
H841 H 0.90903 0.00138 0.27326 0.0
C842 C 0.84515 0.93819 0.45164 0.0
C843 C 0.85504 0.92281 0.42673 0.0
C844 C 0.84544 0.95582 0.42373 0.0
C845 C 0.85571 0.95852 0.37049 0.0
C846 C 0.86529 0.94312 0.34457 0.0
C847 C 0.86477 0.9253 0.37216 0.0
C848 C 0.85775 0.97794 0.34639 0.0
C849 C 0.87575 0.98628 0.34781 0.0
C850 C 0.84172 0.98925 0.33357 0.0
C851 C 0.82249 0.98091 0.3283 0.0
C852 C 0.8193 0.96521 0.29069 0.0
C853 C 0.80122 0.9573 0.28611 0.0
C854 C 0.78618 0.96499 0.31882 0.0
C855 C 0.78918 0.98061 0.35615 0.0
C856 C 0.80723 0.98858 0.3609 0.0
C857 C 0.87631 0.06915 0.32133 0.0
C858 C 0.86565 0.07737 0.36801 0.0
C859 C 0.87469 0.04976 0.3087 0.0
C860 C 0.86242 0.03835 0.34269 0.0
C861 C 0.85136 0.04672 0.38777 0.0
C862 C 0.85294 0.06594 0.4003 0.0
C863 C 0.8617 0.01749 0.33531 0.0
C864 C 0.84394 0.0089 0.32791 0.0
C865 C 0.8779 0.00597 0.34335 0.0
C866 C 0.89697 0.01407 0.3532 0.0
C867 C 0.90072 0.02537 0.40386 0.0
C868 C 0.91876 0.03299 0.4127 0.0
C869 C 0.9332 0.02923 0.37146 0.0
C870 C 0.92964 0.0178 0.32141 0.0
C871 C 0.91161 0.01017 0.31233 0.0
H872 H 0.94717 0.03513 0.37839 0.0
H873 H 0.7722 0.95884 0.31523 0.0
H874 H 0.91428 0.11942 0.61943 0.0
H875 H 0.94655 0.11234 0.65484 0.0
H876 H 0.96945 0.13916 0.49679 0.0
H877 H 0.93769 0.14615 0.46138 0.0
H878 H 0.98233 0.10265 0.51291 0.0
H879 H 0.9721 0.16014 0.6313 0.0
H880 H 0.95599 0.17919 0.70894 0.0
H881 H 0.96924 0.13717 0.84183 0.0
H882 H 0.98522 0.11774 0.7647 0.0
H883 H 0.07329 0.1343 0.51854 0.0
H884 H 0.03921 0.13355 0.53145 0.0
H885 H 0.04522 0.0947 0.67948 0.0
H886 H 0.07985 0.09522 0.66678 0.0
H887 H 0.0164 0.12824 0.69029 0.0
H888 H 0.03189 0.0737 0.57219 0.0
H889 H 0.0491 0.05628 0.49314 0.0
H890 H 0.02602 0.09334 0.35888 0.0
H891 H 0.00891 0.11118 0.43722 0.0
C892 C 0.92624 0.12407 0.59289 0.0
C893 C 0.92344 0.13313 0.53724 0.0
C894 C 0.94463 0.11999 0.61312 0.0
C895 C 0.96034 0.12505 0.57802 0.0
C896 C 0.9575 0.13494 0.52418 0.0
C897 C 0.9393 0.13894 0.50403 0.0
C898 C 0.97985 0.1192 0.59391 0.0
C899 C 0.98973 0.10811 0.55201 0.0
C900 C 0.9893 0.12573 0.64604 0.0
C901 C 0.9796 0.13737 0.6921 0.0
C902 C 0.97139 0.15487 0.67693 0.0
C903 C 0.96233 0.16575 0.72088 0.0
C904 C 0.96153 0.15936 0.78024 0.0
C905 C 0.96983 0.14208 0.7958 0.0
C906 C 0.97889 0.13113 0.75201 0.0
C907 C 0.06753 0.12564 0.55425 0.0
C908 C 0.07936 0.11465 0.59124 0.0
C909 C 0.048 0.1253 0.56163 0.0
C910 C 0.03976 0.114 0.60612 0.0
C911 C 0.0514 0.10352 0.64493 0.0
C912 C 0.07112 0.10378 0.6374 0.0
C913 C 0.01891 0.1125 0.60773 0.0
C914 C 0.0088 0.12217 0.65255 0.0
C915 C 0.00913 0.10468 0.55821 0.0
C916 C 0.01916 0.09381 0.51068 0.0
C917 C 0.03057 0.07821 0.52585 0.0
C918 C 0.0403 0.06825 0.48116 0.0
C919 C 0.03867 0.07371 0.42103 0.0
C920 C 0.02726 0.08912 0.40547 0.0
C921 C 0.01751 0.09913 0.45 0.0
H922 H 0.04622 0.06599 0.3865 0.0
H923 H 0.95453 0.16782 0.81421 0.0
H924 H 0.15237 0.91154 0.42096 0.0
H925 H 0.15339 0.94565 0.40729 0.0
H926 H 0.10287 0.94332 0.29891 0.0
H927 H 0.10154 0.9088 0.31279 0.0
H928 H 0.13761 0.97225 0.26711 0.0
H929 H 0.09055 0.954 0.41358 0.0
H930 H 0.07908 0.93424 0.4971 0.0
H931 H 0.12454 0.954 0.6088 0.0
H932 H 0.13667 0.97341 0.52515 0.0
H933 H 0.12577 0.07208 0.35535 0.0
H934 H 0.12096 0.03953 0.3191 0.0
H935 H 0.15603 0.01857 0.46334 0.0
H936 H 0.16054 0.05071 0.50005 0.0
H937 H 0.12185 0.00211 0.46285 0.0
H938 H 0.17043 0.01781 0.31614 0.0
H939 H 0.18384 0.03617 0.23213 0.0
H940 H 0.13615 0.02159 0.12171 0.0
H941 H 0.12235 0.00334 0.20538 0.0
C942 C 0.14159 0.91814 0.39332 0.0
C943 C 0.12664 0.90748 0.36893 0.0
C944 C 0.14232 0.93764 0.38517 0.0
C945 C 0.12817 0.94692 0.35241 0.0
C946 C 0.11396 0.9363 0.32408 0.0
C947 C 0.11318 0.91664 0.33236 0.0
C948 C 0.127 0.96774 0.35663 0.0
C949 C 0.13372 0.97895 0.30924 0.0
C950 C 0.12211 0.9763 0.4119 0.0
C951 C 0.11459 0.96504 0.4629 0.0
C952 C 0.0982 0.954 0.45577 0.0
C953 C 0.09156 0.94288 0.50317 0.0
C954 C 0.10104 0.94288 0.5583 0.0
C955 C 0.1172 0.95401 0.56609 0.0
C956 C 0.12397 0.96506 0.51865 0.0
C957 C 0.13278 0.06052 0.37832 0.0
C958 C 0.14335 0.06386 0.43089 0.0
C959 C 0.13001 0.04196 0.35765 0.0
C960 C 0.13798 0.02663 0.38894 0.0
C961 C 0.14955 0.03017 0.43895 0.0
C962 C 0.15216 0.04855 0.45981 0.0
C963 C 0.13314 0.00676 0.37405 0.0
C964 C 0.12525 -0.00434 0.41989 0.0
C965 C 0.13693 -0.00155 0.31737 0.0
C966 C 0.14524 0.00942 0.26723 0.0
C967 C 0.16272 0.01868 0.27413 0.0
C968 C 0.17041 0.02902 0.22653 0.0
C969 C 0.16082 0.0301 0.17168 0.0
C970 C 0.14355 0.02078 0.16426 0.0
C971 C 0.13579 0.01042 0.21173 0.0
H972 H 0.1668 0.03812 0.13489 0.0
H973 H 0.09586 0.93428 0.59497 0.0
H974 H 0.92428 0.84752 0.54891 0.0
H975 H 0.95758 0.84537 0.57384 0.0
H976 H 0.95177 0.89192 0.69813 0.0
H977 H 0.91793 0.89434 0.67273 0.0
H978 H 0.98252 0.89606 0.62472 0.0
H979 H 0.96059 0.84879 0.7552 0.0
H980 H 0.94164 0.8216 0.78944 0.0
H981 H 0.96802 0.78614 0.65686 0.0
H982 H 0.98694 0.81315 0.62112 0.0
H983 H 0.08234 0.87189 0.6241 0.0
H984 H 0.0513 0.87692 0.67179 0.0
H985 H 0.02588 0.83849 0.54447 0.0
H986 H 0.05649 0.83361 0.4967 0.0
H987 H 0.01261 0.83372 0.663 0.0
H988 H 0.02625 0.88503 0.51784 0.0
H989 H 0.04457 0.91273 0.48385 0.0
H990 H 0.03354 0.94085 0.65146 0.0
H991 H 0.01536 0.91318 0.6867 0.0
C992 C 0.92992 0.8573 0.58187 0.0
C993 C 0.91838 0.87114 0.60873 0.0
C994 C 0.94901 0.85592 0.59652 0.0
C995 C 0.95712 0.86824 0.6387 0.0
C996 C 0.94573 0.88214 0.66589 0.0
C997 C 0.92643 0.8835 0.65135 0.0
C998 C 0.97778 0.86702 0.65009 0.0
C999 C 0.98914 0.88259 0.63511 0.0
C1000 C 0.98645 0.84949 0.66403 0.0
C1001 C 0.97521 0.83305 0.68546 0.0
C1002 C 0.9623 0.83522 0.73311 0.0
C1003 C 0.95156 0.81983 0.75281 0.0
C1004 C 0.95363 0.80215 0.72536 0.0
C1005 C 0.96646 0.79983 0.67816 0.0
C1006 C 0.97723 0.81518 0.65825 0.0
C1007 C 0.07015 0.8643 0.60711 0.0
C1008 C 0.07177 0.85246 0.55646 0.0
C1009 C 0.05247 0.86722 0.63424 0.0
C1010 C 0.03632 0.85811 0.61148 0.0
C1011 C 0.03817 0.8456 0.56286 0.0
C1012 C 0.05566 0.84291 0.53537 0.0
C1013 C 0.01707 0.8624 0.63402 0.0
C1014 C 0.00601 0.84738 0.65534 0.0
C1015 C 0.00871 0.88045 0.62651 0.0
C1016 C 0.01969 0.89697 0.60518 0.0
C1017 C 0.02788 0.89705 0.54761 0.0
C1018 C 0.03821 0.91276 0.5281 0.0
C1019 C 0.04025 0.92852 0.56554 0.0
C1020 C 0.03198 0.92861 0.62257 0.0
C1021 C 0.02168 0.91293 0.64234 0.0
H1022 H 0.04817 0.9407 0.55032 0.0
H1023 H 0.94529 0.79026 0.74066 0.0
H1024 H 0.33018 0.3188 0.99282 0.0
H1025 H 0.32463 0.28467 0.00284 0.0
H1026 H 0.32081 0.29101 0.1955 0.0
H1027 H 0.327 0.32479 0.18576 0.0
H1028 H 0.34498 0.265 0.17054 0.0
H1029 H 0.28196 0.27863 0.10512 0.0
H1030 H 0.25708 0.2917 0.03936 0.0
H1031 H 0.27684 0.25722 0.8932 0.0
H1032 H 0.30201 0.24412 0.95785 0.0
H1033 H 0.32555 0.16872 0.22971 0.0
H1034 H 0.31933 0.20274 0.22039 0.0
H1035 H 0.33133 0.19983 0.03053 0.0
H1036 H 0.33752 0.16593 0.03936 0.0
H1037 H 0.30077 0.22376 0.05717 0.0
H1038 H 0.36534 0.2128 0.12128 0.0
H1039 H 0.39001 0.19957 0.18759 0.0
H1040 H 0.36643 0.2296 0.33791 0.0
H1041 H 0.34144 0.24279 0.27257 0.0
C1042 C 0.32777 0.31291 0.03708 0.0
C1043 C 0.32921 0.32434 0.08854 0.0
C1044 C 0.32453 0.29343 0.04282 0.0
C1045 C 0.3223 0.28524 0.10001 0.0
C1046 C 0.32262 0.29695 0.15098 0.0
C1047 C 0.32615 0.31626 0.14535 0.0
C1048 C 0.32171 0.26437 0.1077 0.0
C1049 C 0.335 0.25608 0.14659 0.0
C1050 C 0.30907 0.25261 0.07534 0.0
C1051 C 0.294 0.26052 0.03622 0.0
C1052 C 0.28111 0.27396 0.05881 0.0
C1053 C 0.26693 0.28135 0.02176 0.0
C1054 C 0.26541 0.27533 0.9621 0.0
C1055 C 0.27805 0.26188 0.9394 0.0
C1056 C 0.29226 0.25446 0.97625 0.0
C1057 C 0.32662 0.17529 0.18589 0.0
C1058 C 0.33223 0.16472 0.13542 0.0
C1059 C 0.32306 0.1947 0.18062 0.0
C1060 C 0.32502 0.20378 0.12483 0.0
C1061 C 0.32971 0.19307 0.07392 0.0
C1062 C 0.33337 0.17373 0.07919 0.0
C1063 C 0.32388 0.22465 0.12025 0.0
C1064 C 0.31045 0.23285 0.08166 0.0
C1065 C 0.33633 0.23642 0.153 0.0
C1066 C 0.35141 0.2286 0.19221 0.0
C1067 C 0.36533 0.21645 0.16857 0.0
C1068 C 0.37938 0.20899 0.20596 0.0
C1069 C 0.37975 0.2137 0.26697 0.0
C1070 C 0.3661 0.22593 0.29067 0.0
C1071 C 0.352 0.23342 0.25349 0.0
H1072 H 0.39065 0.20791 0.29584 0.0
H1073 H 0.25441 0.28106 0.9335 0.0
H1074 H 0.15898 0.66647 0.75546 0.0
H1075 H 0.19313 0.67286 0.75317 0.0
H1076 H 0.19541 0.66828 0.94637 0.0
H1077 H 0.16151 0.66185 0.94897 0.0
H1078 H 0.2193 0.69676 0.90112 0.0
H1079 H 0.20431 0.63056 0.86801 0.0
H1080 H 0.18848 0.60419 0.81558 0.0
H1081 H 0.21551 0.62003 0.65034 0.0
H1082 H 0.23129 0.64669 0.7017 0.0
H1083 H 0.31289 0.66416 0.9663 0.0
H1084 H 0.27895 0.67086 0.95724 0.0
H1085 H 0.2832 0.66672 0.76412 0.0
H1086 H 0.31681 0.65951 0.77303 0.0
H1087 H 0.25582 0.64563 0.80127 0.0
H1088 H 0.27443 0.70954 0.8378 0.0
H1089 H 0.29023 0.73582 0.89074 0.0
H1090 H 0.25699 0.72487 0.04838 0.0
H1091 H 0.24117 0.69834 0.99666 0.0
C1092 C 0.16672 0.66724 0.79744 0.0
C1093 C 0.15767 0.66343 0.85231 0.0
C1094 C 0.18619 0.67086 0.79609 0.0
C1095 C 0.19678 0.67088 0.84962 0.0
C1096 C 0.18749 0.66836 0.90463 0.0
C1097 C 0.16815 0.66455 0.90596 0.0
C1098 C 0.21772 0.67126 0.84836 0.0
C1099 C 0.22736 0.68562 0.87939 0.0
C1100 C 0.22815 0.65683 0.81928 0.0
C1101 C 0.21878 0.64075 0.78849 0.0
C1102 C 0.20675 0.62851 0.82039 0.0
C1103 C 0.19781 0.6135 0.79089 0.0
C1104 C 0.20094 0.61047 0.72962 0.0
C1105 C 0.21307 0.62242 0.69776 0.0
C1106 C 0.22201 0.63748 0.72703 0.0
C1107 C 0.3066 0.66497 0.92196 0.0
C1108 C 0.31743 0.66114 0.87044 0.0
C1109 C 0.28723 0.6689 0.91676 0.0
C1110 C 0.27851 0.66937 0.8599 0.0
C1111 C 0.28956 0.66635 0.80843 0.0
C1112 C 0.30879 0.66222 0.81363 0.0
C1113 C 0.25765 0.67121 0.85403 0.0
C1114 C 0.24793 0.65709 0.82204 0.0
C1115 C 0.24724 0.68589 0.88217 0.0
C1116 C 0.25672 0.70184 0.91347 0.0
C1117 C 0.2706 0.71263 0.88391 0.0
C1118 C 0.27954 0.72759 0.91368 0.0
C1119 C 0.27465 0.73198 0.97293 0.0
C1120 C 0.26078 0.72144 0.0025 0.0
C1121 C 0.2518 0.70645 0.97295 0.0
H1122 H 0.28159 0.74357 0.99589 0.0
H1123 H 0.19401 0.59884 0.70686 0.0
H1124 H 0.67867 0.81727 0.23594 0.0
H1125 H 0.68642 0.78359 0.22345 0.0
H1126 H 0.6472 0.78015 0.075 0.0
H1127 H 0.63994 0.81357 0.08596 0.0
H1128 H 0.66655 0.75363 0.2356 0.0
H1129 H 0.65889 0.749 0.97277 0.0
H1130 H 0.66749 0.76818 0.88443 0.0
H1131 H 0.71053 0.79634 0.98721 0.0
H1132 H 0.7024 0.77715 0.07595 0.0
H1133 H 0.6275 0.66908 0.15038 0.0
H1134 H 0.63683 0.70184 0.16421 0.0
H1135 H 0.68862 0.69135 0.06689 0.0
H1136 H 0.6789 0.65828 0.05086 0.0
H1137 H 0.67518 0.72397 0.03511 0.0
H1138 H 0.68904 0.69707 0.22248 0.0
H1139 H 0.68453 0.67754 0.3131 0.0
H1140 H 0.63721 0.71199 0.36538 0.0
H1141 H 0.64123 0.73156 0.27463 0.0
C1142 C 0.67184 0.80931 0.20042 0.0
C1143 C 0.65874 0.81808 0.16184 0.0
C1144 C 0.6763 0.79009 0.19324 0.0
C1145 C 0.66771 0.77938 0.14744 0.0
C1146 C 0.6545 0.78817 0.10945 0.0
C1147 C 0.6502 0.8073 0.11619 0.0
C1148 C 0.67127 0.75872 0.14136 0.0
C1149 C 0.66868 0.74716 0.19189 0.0
C1150 C 0.67487 0.7502 0.08478 0.0
C1151 C 0.67996 0.76166 0.03119 0.0
C1152 C 0.67028 0.75918 0.97647 0.0
C1153 C 0.67505 0.77009 0.92632 0.0
C1154 C 0.68952 0.78349 0.93023 0.0
C1155 C 0.69929 0.78599 0.98428 0.0
C1156 C 0.69458 0.77512 0.03455 0.0
C1157 C 0.64091 0.67367 0.13187 0.0
C1158 C 0.65255 0.66106 0.09989 0.0
C1159 C 0.64631 0.69242 0.14027 0.0
C1160 C 0.6637 0.69897 0.11819 0.0
C1161 C 0.67523 0.68655 0.08494 0.0
C1162 C 0.66967 0.66771 0.07572 0.0
C1163 C 0.66916 0.71902 0.12863 0.0
C1164 C 0.67351 0.73044 0.07901 0.0
C1165 C 0.66787 0.72738 0.18644 0.0
C1166 C 0.66542 0.71577 0.24155 0.0
C1167 C 0.67761 0.70043 0.25313 0.0
C1168 C 0.67514 0.68935 0.30455 0.0
C1169 C 0.66059 0.69352 0.34496 0.0
C1170 C 0.64849 0.7088 0.33407 0.0
C1171 C 0.65088 0.71991 0.28269 0.0
H1172 H 0.65869 0.68492 0.38473 0.0
H1173 H 0.69319 0.79192 0.89136 0.0
H1174 H 0.66765 0.32642 0.98598 0.0
H1175 H 0.7023 0.32871 0.98235 0.0
H1176 H 0.70171 0.31002 0.79775 0.0
H1177 H 0.66714 0.30812 0.80069 0.0
H1178 H 0.73268 0.29519 0.87015 0.0
H1179 H 0.70201 0.35348 0.81375 0.0
H1180 H 0.6802 0.38049 0.82627 0.0
H1181 H 0.70915 0.39684 0.98786 0.0
H1182 H 0.73096 0.36972 0.97685 0.0
H1183 H 0.82152 0.33341 0.77187 0.0
H1184 H 0.78797 0.32466 0.77948 0.0
H1185 H 0.78491 0.35137 0.95371 0.0
H1186 H 0.81806 0.36029 0.94624 0.0
H1187 H 0.75556 0.36141 0.88547 0.0
H1188 H 0.78698 0.30342 0.94002 0.0
H1189 H 0.80893 0.27662 0.92589 0.0
H1190 H 0.77881 0.25985 0.76685 0.0
H1191 H 0.75683 0.28672 0.77959 0.0
C1192 C 0.67498 0.32225 0.9453 0.0
C1193 C 0.66481 0.31716 0.89352 0.0
C1194 C 0.69471 0.32367 0.94315 0.0
C1195 C 0.70444 0.31971 0.88956 0.0
C1196 C 0.69441 0.31313 0.83942 0.0
C1197 C 0.67471 0.31207 0.84118 0.0
C1198 C 0.72474 0.32431 0.88362 0.0
C1199 C 0.73773 0.30966 0.87306 0.0
C1200 C 0.7312 0.3432 0.88778 0.0
C1201 C 0.71796 0.3594 0.89492 0.0
C1202 C 0.70359 0.36269 0.85238 0.0
C1203 C 0.69126 0.37805 0.8591 0.0
C1204 C 0.69325 0.39034 0.90793 0.0
C1205 C 0.70759 0.38729 0.95013 0.0
C1206 C 0.71994 0.37192 0.94367 0.0
C1207 C 0.81366 0.33739 0.81171 0.0
C1208 C 0.82244 0.34754 0.85838 0.0
C1209 C 0.79455 0.33232 0.81615 0.0
C1210 C 0.78399 0.33726 0.8674 0.0
C1211 C 0.79276 0.34743 0.91377 0.0
C1212 C 0.81176 0.35248 0.90939 0.0
C1213 C 0.7637 0.33226 0.87282 0.0
C1214 C 0.75061 0.3469 0.88291 0.0
C1215 C 0.75719 0.31337 0.86814 0.0
C1216 C 0.77039 0.29721 0.8604 0.0
C1217 C 0.78514 0.29412 0.90174 0.0
C1218 C 0.79757 0.27889 0.89404 0.0
C1219 C 0.7953 0.26657 0.8454 0.0
C1220 C 0.78057 0.26942 0.80445 0.0
C1221 C 0.76812 0.28464 0.81191 0.0
H1222 H 0.80494 0.25479 0.83953 0.0
H1223 H 0.68373 0.40226 0.91294 0.0
H1224 H 0.80965 0.66704 0.57067 0.0
H1225 H 0.80573 0.70112 0.558 0.0
H1226 H 0.81448 0.70928 0.74826 0.0
H1227 H 0.81772 0.67492 0.76149 0.0
H1228 H 0.78978 0.73539 0.70367 0.0
H1229 H 0.85149 0.71169 0.65306 0.0
H1230 H 0.87444 0.69096 0.60145 0.0
H1231 H 0.85523 0.71149 0.43032 0.0
H1232 H 0.83197 0.73216 0.48096 0.0
H1233 H 0.8369 0.82405 0.70507 0.0
H1234 H 0.82652 0.79126 0.71365 0.0
H1235 H 0.81446 0.78991 0.52359 0.0
H1236 H 0.82483 0.82294 0.51459 0.0
H1237 H 0.83782 0.76077 0.56247 0.0
H1238 H 0.7785 0.7881 0.6192 0.0
H1239 H 0.75767 0.80968 0.67592 0.0
H1240 H 0.77463 0.78343 0.8414 0.0
H1241 H 0.79574 0.76179 0.78572 0.0
C1242 C 0.8103 0.67607 0.61001 0.0
C1243 C 0.81425 0.66845 0.66692 0.0
C1244 C 0.80808 0.69553 0.60271 0.0
C1245 C 0.81031 0.70776 0.65192 0.0
C1246 C 0.81281 0.70008 0.70964 0.0
C1247 C 0.81469 0.68049 0.71717 0.0
C1248 C 0.81219 0.7284 0.64186 0.0
C1249 C 0.80033 0.74097 0.67307 0.0
C1250 C 0.82583 0.73566 0.60134 0.0
C1251 C 0.83986 0.72331 0.57076 0.0
C1252 C 0.85207 0.71167 0.60441 0.0
C1253 C 0.86515 0.69996 0.57534 0.0
C1254 C 0.86626 0.69987 0.51264 0.0
C1255 C 0.85433 0.71155 0.47888 0.0
C1256 C 0.8412 0.72327 0.50774 0.0
C1257 C 0.83186 0.81686 0.66514 0.0
C1258 C 0.8318 0.82599 0.60903 0.0
C1259 C 0.82578 0.79817 0.67025 0.0
C1260 C 0.81959 0.78824 0.61937 0.0
C1261 C 0.81911 0.79742 0.56343 0.0
C1262 C 0.82502 0.81624 0.55836 0.0
C1263 C 0.81539 0.76779 0.62406 0.0
C1264 C 0.827 0.75521 0.59219 0.0
C1265 C 0.80175 0.76063 0.66463 0.0
C1266 C 0.78882 0.7734 0.69826 0.0
C1267 C 0.77789 0.787 0.66772 0.0
C1268 C 0.76602 0.79924 0.69969 0.0
C1269 C 0.76489 0.79799 0.76224 0.0
C1270 C 0.77554 0.7844 0.79293 0.0
C1271 C 0.78743 0.77211 0.76117 0.0
H1272 H 0.75572 0.80751 0.7869 0.0
H1273 H 0.8764 0.6908 0.49022 0.0
H1274 H 0.82269 0.17341 0.46908 0.0
H1275 H 0.78916 0.18259 0.46685 0.0
H1276 H 0.78577 0.16588 0.28057 0.0
H1277 H 0.81905 0.15697 0.28218 0.0
H1278 H 0.7647 0.1975 0.30184 0.0
H1279 H 0.77396 0.13515 0.3902 0.0
H1280 H 0.78729 0.11289 0.46441 0.0
H1281 H 0.76165 0.14454 0.60782 0.0
H1282 H 0.74837 0.16714 0.5344 0.0
H1283 H 0.67119 0.16349 0.25096 0.0
H1284 H 0.70477 0.17169 0.25987 0.0
H1285 H 0.69712 0.1828 0.44922 0.0
H1286 H 0.6639 0.17382 0.44082 0.0
H1287 H 0.72401 0.15916 0.43616 0.0
H1288 H 0.7096 0.21833 0.34428 0.0
H1289 H 0.69607 0.24003 0.26887 0.0
H1290 H 0.73065 0.21481 0.13178 0.0
H1291 H 0.7442 0.19276 0.20616 0.0
C1292 C 0.81484 0.17199 0.42749 0.0
C1293 C 0.82341 0.16422 0.37609 0.0
C1294 C 0.79572 0.17724 0.42625 0.0
C1295 C 0.78496 0.17473 0.37366 0.0
C1296 C 0.79381 0.16797 0.32155 0.0
C1297 C 0.81281 0.16273 0.32276 0.0
C1298 C 0.76413 0.17717 0.37383 0.0
C1299 C 0.75572 0.18918 0.33118 0.0
C1300 C 0.75249 0.16657 0.41291 0.0
C1301 C 0.76039 0.15294 0.45695 0.0
C1302 C 0.77129 0.13743 0.4376 0.0
C1303 C 0.77882 0.12475 0.4795 0.0
C1304 C 0.77537 0.12733 0.54081 0.0
C1305 C 0.76435 0.14258 0.56033 0.0
C1306 C 0.75682 0.15533 0.51861 0.0
C1307 C 0.67663 0.16816 0.29402 0.0
C1308 C 0.66509 0.16785 0.34531 0.0
C1309 C 0.69579 0.17293 0.29912 0.0
C1310 C 0.70352 0.17788 0.35532 0.0
C1311 C 0.69155 0.17891 0.40553 0.0
C1312 C 0.67257 0.1738 0.40067 0.0
C1313 C 0.72433 0.17943 0.36363 0.0
C1314 C 0.73281 0.16797 0.4077 0.0
C1315 C 0.73594 0.19055 0.32576 0.0
C1316 C 0.72783 0.2038 0.28081 0.0
C1317 C 0.71422 0.21731 0.29797 0.0
C1318 C 0.70656 0.22969 0.25541 0.0
C1319 C 0.71247 0.22878 0.19556 0.0
C1320 C 0.72608 0.2155 0.17816 0.0
C1321 C 0.73378 0.20307 0.22053 0.0
H1322 H 0.70652 0.23838 0.16268 0.0
H1323 H 0.78121 0.1175 0.57318 0.0
H1324 H 0.14149 0.31765 0.58785 0.0
H1325 H 0.14755 0.2839 0.57978 0.0
H1326 H 0.196 0.28963 0.69688 0.0
H1327 H 0.18922 0.32357 0.70777 0.0
H1328 H 0.17357 0.26351 0.53709 0.0
H1329 H 0.20324 0.24821 0.7716 0.0
H1330 H 0.20273 0.26134 0.87449 0.0
H1331 H 0.1479 0.28553 0.84162 0.0
H1332 H 0.14803 0.27238 0.7388 0.0
H1333 H 0.18394 0.16284 0.54335 0.0
H1334 H 0.19226 0.19645 0.55283 0.0
H1335 H 0.14811 0.20366 0.68503 0.0
H1336 H 0.1404 0.17026 0.67768 0.0
H1337 H 0.1766 0.22309 0.71886 0.0
H1338 H 0.14297 0.21515 0.52965 0.0
H1339 H 0.13814 0.2021 0.42788 0.0
H1340 H 0.19173 0.22465 0.37211 0.0
H1341 H 0.19695 0.23766 0.47384 0.0
C1342 C 0.15344 0.31175 0.61197 0.0
C1343 C 0.16481 0.32319 0.64879 0.0
C1344 C 0.15698 0.29243 0.60701 0.0
C1345 C 0.17218 0.2841 0.63791 0.0
C1346 C 0.18397 0.29563 0.67345 0.0
C1347 C 0.18013 0.315 0.67957 0.0
C1348 C 0.17491 0.26326 0.63394 0.0
C1349 C 0.17442 0.25469 0.57691 0.0
C1350 C 0.17609 0.25166 0.68566 0.0
C1351 C 0.17578 0.25954 0.74739 0.0
C1352 C 0.19108 0.25631 0.78644 0.0
C1353 C 0.19086 0.26376 0.8447 0.0
C1354 C 0.17533 0.27433 0.86449 0.0
C1355 C 0.15995 0.27741 0.82615 0.0
C1356 C 0.1601 0.26998 0.76788 0.0
C1357 C 0.17613 0.17164 0.5746 0.0
C1358 C 0.16146 0.16396 0.60952 0.0
C1359 C 0.18087 0.19082 0.57997 0.0
C1360 C 0.17071 0.20267 0.61932 0.0
C1361 C 0.15627 0.19485 0.65471 0.0
C1362 C 0.15178 0.17573 0.65014 0.0
C1363 C 0.17415 0.22339 0.62226 0.0
C1364 C 0.17613 0.23192 0.67901 0.0
C1365 C 0.17356 0.23498 0.57045 0.0
C1366 C 0.17046 0.22714 0.50944 0.0
C1367 C 0.15378 0.2172 0.49577 0.0
C1368 C 0.15096 0.20983 0.43811 0.0
C1369 C 0.16465 0.21248 0.39362 0.0
C1370 C 0.18116 0.22256 0.40666 0.0
C1371 C 0.18406 0.22993 0.46429 0.0
H1372 H 0.16245 0.20677 0.34899 0.0
H1373 H 0.17518 0.28009 0.90959 0.0
H1374 H 0.16801 0.81955 0.47573 0.0
H1375 H 0.20247 0.8153 0.47486 0.0
H1376 H 0.20207 0.8153 0.28098 0.0
H1377 H 0.16777 0.81951 0.28146 0.0
H1378 H 0.22899 0.79024 0.32926 0.0
H1379 H 0.20866 0.85539 0.34868 0.0
H1380 H 0.19081 0.88145 0.39609 0.0
H1381 H 0.22036 0.87209 0.5622 0.0
H1382 H 0.23816 0.84574 0.51597 0.0
H1383 H 0.32066 0.82742 0.2572 0.0
H1384 H 0.28703 0.81928 0.26623 0.0
H1385 H 0.29034 0.82691 0.45847 0.0
H1386 H 0.32358 0.83548 0.44956 0.0
H1387 H 0.26188 0.84598 0.41577 0.0
H1388 H 0.28488 0.78259 0.39243 0.0
H1389 H 0.30239 0.75648 0.34412 0.0
H1390 H 0.26833 0.76233 0.1853 0.0
H1391 H 0.25077 0.78866 0.23236 0.0
C1392 C 0.17523 0.81817 0.433 0.0
C1393 C 0.16528 0.82013 0.37867 0.0
C1394 C 0.19488 0.81577 0.43255 0.0
C1395 C 0.20478 0.81522 0.37781 0.0
C1396 C 0.19468 0.8157 0.32364 0.0
C1397 C 0.1751 0.81823 0.32404 0.0
C1398 C 0.22567 0.81663 0.37658 0.0
C1399 C 0.23625 0.80241 0.34798 0.0
C1400 C 0.23506 0.83246 0.4015 0.0
C1401 C 0.22457 0.84846 0.4291 0.0
C1402 C 0.21124 0.8588 0.39544 0.0
C1403 C 0.20115 0.87363 0.42207 0.0
C1404 C 0.20441 0.87839 0.48217 0.0
C1405 C 0.21782 0.86836 0.51569 0.0
C1406 C 0.22791 0.85348 0.4893 0.0
C1407 C 0.31423 0.8271 0.30136 0.0
C1408 C 0.32468 0.83226 0.35257 0.0
C1409 C 0.29505 0.82237 0.30656 0.0
C1410 C 0.28616 0.82243 0.36313 0.0
C1411 C 0.29684 0.82686 0.41437 0.0
C1412 C 0.31586 0.83176 0.40916 0.0
C1413 C 0.26545 0.81948 0.36886 0.0
C1414 C 0.2548 0.83358 0.39785 0.0
C1415 C 0.25608 0.80355 0.3442 0.0
C1416 C 0.26662 0.78772 0.31575 0.0
C1417 C 0.28122 0.77842 0.34702 0.0
C1418 C 0.29114 0.76356 0.31989 0.0
C1419 C 0.28651 0.75778 0.26163 0.0
C1420 C 0.27191 0.76683 0.23041 0.0
C1421 C 0.26196 0.78171 0.25731 0.0
H1422 H 0.2942 0.74627 0.24071 0.0
H1423 H 0.19658 0.88987 0.50272 0.0
H1424 H 0.16412 0.07422 0.80067 0.0
H1425 H 0.18823 0.0647 0.87397 0.0
H1426 H 0.23134 0.06959 0.73758 0.0
H1427 H 0.2074 0.07843 0.6641 0.0
H1428 H 0.23999 0.04148 0.81046 0.0
H1429 H 0.22005 0.10688 0.8332 0.0
H1430 H 0.1968 0.13239 0.8505 0.0
H1431 H 0.18235 0.10816 0.02132 0.0
H1432 H 0.20538 0.08236 0.00464 0.0
H1433 H 0.32154 0.07813 0.95762 0.0
H1434 H 0.2942 0.06908 0.89663 0.0
H1435 H 0.26108 0.06133 0.05756 0.0
H1436 H 0.28823 0.07056 0.11869 0.0
H1437 H 0.24473 0.08572 0.98303 0.0
H1438 H 0.27098 0.02382 0.96555 0.0
H1439 H 0.29563 -0.0001 0.94577 0.0
H1440 H 0.29996 0.01885 0.76299 0.0
H1441 H 0.27552 0.04308 0.78186 0.0
C1442 C 0.17869 0.07289 0.78614 0.0
C1443 C 0.18391 0.07735 0.72689 0.0
C1444 C 0.19245 0.06749 0.82804 0.0
C1445 C 0.21165 0.0668 0.81153 0.0
C1446 C 0.21665 0.07005 0.75145 0.0
C1447 C 0.20292 0.07524 0.70953 0.0
C1448 C 0.2268 0.06471 0.85728 0.0
C1449 C 0.24107 0.05112 0.84827 0.0
C1450 C 0.22802 0.07708 0.90723 0.0
C1451 C 0.21423 0.09259 0.91735 0.0
C1452 C 0.21181 0.10693 0.87425 0.0
C1453 C 0.1987 0.12145 0.88396 0.0
C1454 C 0.18806 0.12186 0.93689 0.0
C1455 C 0.19056 0.10779 0.98029 0.0
C1456 C 0.20364 0.09322 0.97074 0.0
C1457 C 0.30858 0.07403 0.98005 0.0
C1458 C 0.30696 0.07529 0.04287 0.0
C1459 C 0.29298 0.06877 0.94515 0.0
C1460 C 0.27558 0.06453 0.97258 0.0
C1461 C 0.27434 0.06458 0.03549 0.0
C1462 C 0.28989 0.06988 0.07033 0.0
C1463 C 0.25818 0.0627 0.93577 0.0
C1464 C 0.2435 0.07569 0.94627 0.0
C1465 C 0.25678 0.04995 0.8869 0.0
C1466 C 0.27148 0.03537 0.87527 0.0
C1467 C 0.27728 0.023 0.92125 0.0
C1468 C 0.2912 0.00935 0.91017 0.0
C1469 C 0.29938 0.00787 0.85319 0.0
C1470 C 0.29361 0.02001 0.80712 0.0
C1471 C 0.2797 0.03369 0.81796 0.0
H1472 H 0.31015 -0.0027 0.84471 0.0
H1473 H 0.17792 0.13311 0.94433 0.0
H1474 H 0.09262 0.81263 0.18468 0.0
H1475 H 0.08064 0.78624 0.12583 0.0
H1476 H 0.04079 0.77304 0.26692 0.0
H1477 H 0.05394 0.7987 0.32797 0.0
H1478 H 0.05511 0.7431 0.23974 0.0
H1479 H 0.02703 0.78827 0.11616 0.0
H1480 H 0.02301 0.81747 0.05697 0.0
H1481 H 0.06652 0.7993 0.9352 0.0
H1482 H 0.07103 0.77011 0.9941 0.0
H1483 H 0.04825 0.68606 0.92974 0.0
H1484 H 0.03686 0.71159 0.99483 0.0
H1485 H 0.08119 0.69865 0.12237 0.0
H1486 H 0.09148 0.67235 0.05973 0.0
H1487 H 0.05164 0.74161 0.01732 0.0
H1488 H 0.07558 0.71481 0.25668 0.0
H1489 H 0.07334 0.68559 0.31664 0.0
H1490 H 0.02646 0.66693 0.20905 0.0
H1491 H 0.02821 0.69617 0.14896 0.0
C1492 C 0.08098 0.80438 0.20249 0.0
C1493 C 0.07423 0.80763 0.26083 0.0
C1494 C 0.07399 0.78932 0.16855 0.0
C1495 C 0.05957 0.77763 0.19131 0.0
C1496 C 0.05196 0.78171 0.24827 0.0
C1497 C 0.05939 0.79644 0.28303 0.0
C1498 C 0.05434 0.75992 0.15887 0.0
C1499 C 0.05406 0.74282 0.19114 0.0
C1500 C 0.05198 0.75942 0.09567 0.0
C1501 C 0.04939 0.77698 0.05976 0.0
C1502 C 0.03583 0.79053 0.07696 0.0
C1503 C 0.03345 0.80709 0.04342 0.0
C1504 C 0.04451 0.81024 0.99238 0.0
C1505 C 0.05795 0.79683 0.97472 0.0
C1506 C 0.06039 0.78024 0.00811 0.0
C1507 C 0.0551 0.68836 0.97271 0.0
C1508 C 0.07068 0.67726 0.98998 0.0
C1509 C 0.04867 0.70301 0.00975 0.0
C1510 C 0.05803 0.70713 0.06399 0.0
C1511 C 0.07324 0.69554 0.08196 0.0
C1512 C 0.07926 0.68053 0.04585 0.0
C1513 C 0.05366 0.72479 0.09799 0.0
C1514 C 0.05211 0.74188 0.06601 0.0
C1515 C 0.05328 0.72527 0.16161 0.0
C1516 C 0.05208 0.7077 0.1981 0.0
C1517 C 0.06469 0.70456 0.24605 0.0
C1518 C 0.06354 0.68796 0.28 0.0
C1519 C 0.04978 0.6744 0.26661 0.0
C1520 C 0.03714 0.67743 0.21929 0.0
C1521 C 0.03822 0.694 0.1852 0.0
H1522 H 0.04892 0.66156 0.29294 0.0
H1523 H 0.04265 0.82307 0.96648 0.0
H1524 H 0.71105 0.90129 0.1119 0.0
H1525 H 0.73624 0.9093 0.0418 0.0
H1526 H 0.69575 0.91131 0.89663 0.0
H1527 H 0.67039 0.90287 0.9667 0.0
H1528 H 0.72499 0.88955 0.86863 0.0
H1529 H 0.71787 0.95187 0.94938 0.0
H1530 H 0.71522 0.97604 0.02898 0.0
H1531 H 0.77086 0.96185 0.09244 0.0
H1532 H 0.77375 0.93741 0.01369 0.0
H1533 H 0.792 0.91574 0.6547 0.0
H1534 H 0.76558 0.92072 0.72342 0.0
H1535 H 0.80239 0.91048 0.87462 0.0
H1536 H 0.82905 0.90543 0.80596 0.0
H1537 H 0.7741 0.93902 0.89564 0.0
H1538 H 0.77955 0.87461 0.82547 0.0
H1539 H 0.78259 0.84959 0.74861 0.0
H1540 H 0.73019 0.86729 0.66843 0.0
H1541 H 0.72695 0.89255 0.7445 0.0
C1542 C 0.70742 0.90369 0.06521 0.0
C1543 C 0.68873 0.90134 0.04473 0.0
C1544 C 0.72185 0.90842 0.02522 0.0
C1545 C 0.71787 0.91109 0.96403 0.0
C1546 C 0.69911 0.90936 0.94374 0.0
C1547 C 0.68464 0.90457 0.98378 0.0
C1548 C 0.73357 0.91382 0.92069 0.0
C1549 C 0.73546 0.90066 0.87381 0.0
C1550 C 0.7476 0.92793 0.9286 0.0
C1551 C 0.74596 0.94271 0.97583 0.0
C1552 C 0.72949 0.95381 0.98055 0.0
C1553 C 0.72796 0.96758 0.02548 0.0
C1554 C 0.74285 0.97045 0.0658 0.0
C1555 C 0.75933 0.9596 0.06118 0.0
C1556 C 0.76094 0.94581 0.01633 0.0
C1557 C 0.79462 0.91496 0.70262 0.0
C1558 C 0.81256 0.90991 0.72493 0.0
C1559 C 0.77949 0.91782 0.74178 0.0
C1560 C 0.782 0.91566 0.80389 0.0
C1561 C 0.8002 0.91216 0.82672 0.0
C1562 C 0.81539 0.90926 0.78746 0.0
C1563 C 0.76532 0.91482 0.84392 0.0
C1564 C 0.76338 0.92817 0.89017 0.0
C1565 C 0.75125 0.90083 0.83586 0.0
C1566 C 0.75313 0.88561 0.7902 0.0
C1567 C 0.76876 0.87326 0.79114 0.0
C1568 C 0.7705 0.85901 0.74781 0.0
C1569 C 0.75663 0.8569 0.70353 0.0
C1570 C 0.74094 0.86897 0.70268 0.0
C1571 C 0.73914 0.88324 0.74592 0.0
H1572 H 0.75802 0.84591 0.66992 0.0
H1573 H 0.74163 0.98111 0.10058 0.0
H1574 H 0.90108 0.1694 0.1725 0.0
H1575 H 0.90843 0.19703 0.11043 0.0
H1576 H 0.92621 0.22763 0.26855 0.0
H1577 H 0.91881 0.20022 0.33073 0.0
H1578 H 0.89826 0.24555 0.20844 0.0
H1579 H 0.95781 0.21693 0.15964 0.0
H1580 H 0.97902 0.19147 0.12461 0.0
H1581 H 0.95173 0.19181 0.9521 0.0
H1582 H 0.93017 0.21709 0.98634 0.0
H1583 H 0.91132 0.33045 0.0493 0.0
H1584 H 0.91946 0.3029 0.11094 0.0
H1585 H 0.90718 0.26598 0.96128 0.0
H1586 H 0.89972 0.29336 0.8991 0.0
H1587 H 0.93593 0.25216 0.02164 0.0
H1588 H 0.8739 0.27575 0.07138 0.0
H1589 H 0.85053 0.29971 0.10328 0.0
H1590 H 0.88006 0.30688 0.27053 0.0
H1591 H 0.90375 0.28311 0.23924 0.0
C1592 C 0.90705 0.18183 0.19377 0.0
C1593 C 0.90913 0.18273 0.25655 0.0
C1594 C 0.9113 0.1976 0.15824 0.0
C1595 C 0.9178 0.2144 0.18498 0.0
C1596 C 0.92114 0.21482 0.24709 0.0
C1597 C 0.91689 0.19913 0.28253 0.0
C1598 C 0.91859 0.2322 0.14995 0.0
C1599 C 0.90685 0.24715 0.16835 0.0
C1600 C 0.92928 0.234 0.09656 0.0
C1601 C 0.94227 0.21882 0.07576 0.0
C1602 C 0.95622 0.21148 0.11439 0.0
C1603 C 0.96833 0.19709 0.09464 0.0
C1604 C 0.9667 0.19 0.03621 0.0
C1605 C 0.95298 0.19731 0.99736 0.0
C1606 C 0.94082 0.21169 0.0169 0.0
C1607 C 0.91062 0.31647 0.02938 0.0
C1608 C 0.90467 0.31405 0.96961 0.0
C1609 C 0.91524 0.30074 0.06463 0.0
C1610 C 0.91359 0.28234 0.04104 0.0
C1611 C 0.90855 0.28001 0.98051 0.0
C1612 C 0.90418 0.2957 0.9451 0.0
C1613 C 0.91558 0.26546 0.08023 0.0
C1614 C 0.92766 0.25066 0.06242 0.0
C1615 C 0.90493 0.26358 0.13376 0.0
C1616 C 0.89071 0.27784 0.15268 0.0
C1617 C 0.87548 0.28255 0.11477 0.0
C1618 C 0.86217 0.29607 0.13276 0.0
C1619 C 0.86385 0.30485 0.18881 0.0
C1620 C 0.87881 0.30009 0.22707 0.0
C1621 C 0.89218 0.2866 0.20925 0.0
H1622 H 0.85353 0.31531 0.20267 0.0
H1623 H 0.97609 0.17887 0.02101 0.0
H1624 H 0.17142 0.41509 0.46492 0.0
H1625 H 0.19559 0.42398 0.39138 0.0
H1626 H 0.23917 0.41451 0.52399 0.0
H1627 H 0.21516 0.40621 0.59794 0.0
H1628 H 0.24885 0.44327 0.45363 0.0
H1629 H 0.2257 0.37948 0.42527 0.0
H1630 H 0.20124 0.3552 0.40782 0.0
H1631 H 0.18612 0.38178 0.24102 0.0
H1632 H 0.21035 0.40637 0.25792 0.0
H1633 H 0.32669 0.40697 0.28455 0.0
H1634 H 0.30086 0.41539 0.35272 0.0
H1635 H 0.26474 0.42714 0.2008 0.0
H1636 H 0.29037 0.41855 0.13249 0.0
H1637 H 0.24938 0.40163 0.27396 0.0
H1638 H 0.27777 0.46246 0.29723 0.0
H1639 H 0.3035 0.48517 0.31683 0.0
H1640 H 0.31043 0.46275 0.4948 0.0
H1641 H 0.28491 0.4397 0.47601 0.0
C1642 C 0.18612 0.41525 0.47866 0.0
C1643 C 0.19141 0.40968 0.53692 0.0
C1644 C 0.19992 0.4203 0.4366 0.0
C1645 C 0.21921 0.41954 0.45188 0.0
C1646 C 0.22439 0.41516 0.51112 0.0
C1647 C 0.21062 0.41031 0.55329 0.0
C1648 C 0.2341 0.42135 0.40524 0.0
C1649 C 0.24902 0.43417 0.41432 0.0
C1650 C 0.23417 0.40967 0.35352 0.0
C1651 C 0.21965 0.39488 0.3432 0.0
C1652 C 0.21706 0.38021 0.38509 0.0
C1653 C 0.20326 0.36639 0.37527 0.0
C1654 C 0.19209 0.36698 0.32344 0.0
C1655 C 0.19475 0.38137 0.28122 0.0
C1656 C 0.20851 0.39525 0.29088 0.0
C1657 C 0.3134 0.41181 0.26569 0.0
C1658 C 0.31049 0.41188 0.20319 0.0
C1659 C 0.29867 0.4167 0.30471 0.0
C1660 C 0.28086 0.42189 0.28181 0.0
C1661 C 0.27835 0.42314 0.2194 0.0
C1662 C 0.29302 0.41822 0.18044 0.0
C1663 C 0.26429 0.42345 0.32237 0.0
C1664 C 0.24907 0.4111 0.31239 0.0
C1665 C 0.26415 0.43538 0.37349 0.0
C1666 C 0.27949 0.44925 0.38502 0.0
C1667 C 0.28487 0.46226 0.34039 0.0
C1668 C 0.2994 0.47522 0.35139 0.0
C1669 C 0.30861 0.47538 0.40698 0.0
C1670 C 0.30328 0.4626 0.45174 0.0
C1671 C 0.28877 0.4496 0.44097 0.0
H1672 H 0.31986 0.48543 0.41541 0.0
H1673 H 0.18141 0.35627 0.31591 0.0
H1674 H 0.40966 0.7881 0.39852 0.0
H1675 H 0.41706 0.76267 0.46857 0.0
H1676 H 0.42117 0.80321 0.6132 0.0
H1677 H 0.41313 0.82877 0.54342 0.0
H1678 H 0.44371 0.7518 0.54555 0.0
H1679 H 0.39965 0.78515 0.73596 0.0
H1680 H 0.37397 0.80849 0.74977 0.0
H1681 H 0.35337 0.79666 0.57201 0.0
H1682 H 0.37876 0.77311 0.55752 0.0
H1683 H 0.41101 0.70279 0.84693 0.0
H1684 H 0.42089 0.72989 0.78691 0.0
H1685 H 0.41314 0.69727 0.62476 0.0
H1686 H 0.40329 0.66995 0.68468 0.0
H1687 H 0.39653 0.74645 0.70965 0.0
H1688 H 0.44157 0.71622 0.51373 0.0
H1689 H 0.46562 0.69145 0.4968 0.0
H1690 H 0.48221 0.69454 0.68225 0.0
H1691 H 0.45846 0.71951 0.70014 0.0
C1692 C 0.41244 0.79168 0.44503 0.0
C1693 C 0.41045 0.8104 0.46573 0.0
C1694 C 0.41679 0.77711 0.48499 0.0
C1695 C 0.4193 0.78098 0.5463 0.0
C1696 C 0.41893 0.79987 0.5662 0.0
C1697 C 0.41437 0.81446 0.5263 0.0
C1698 C 0.42003 0.76509 0.58972 0.0
C1699 C 0.43341 0.75059 0.58146 0.0
C1700 C 0.40671 0.76361 0.63698 0.0
C1701 C 0.39125 0.77758 0.64544 0.0
C1702 C 0.38961 0.78752 0.69992 0.0
C1703 C 0.3751 0.80078 0.70785 0.0
C1704 C 0.36209 0.80411 0.6617 0.0
C1705 C 0.3635 0.79413 0.60763 0.0
C1706 C 0.37795 0.78084 0.59952 0.0
C1707 C 0.41178 0.70121 0.79855 0.0
C1708 C 0.40614 0.6843 0.77043 0.0
C1709 C 0.41746 0.71673 0.76437 0.0
C1710 C 0.41772 0.7156 0.70147 0.0
C1711 C 0.41324 0.69837 0.67333 0.0
C1712 C 0.40753 0.68279 0.70759 0.0
C1713 C 0.42013 0.73304 0.66541 0.0
C1714 C 0.40717 0.7478 0.67475 0.0
C1715 C 0.43363 0.73454 0.61876 0.0
C1716 C 0.4481 0.71964 0.60835 0.0
C1717 C 0.4504 0.71168 0.55085 0.0
C1718 C 0.46398 0.69759 0.54109 0.0
C1719 C 0.4754 0.69139 0.58845 0.0
C1720 C 0.47331 0.69931 0.64565 0.0
C1721 C 0.45976 0.7134 0.65564 0.0
H1722 H 0.4859 0.68048 0.58081 0.0
H1723 H 0.35089 0.81439 0.66791 0.0
H1724 H 0.66672 0.60226 0.29876 0.0
H1725 H 0.69271 0.59566 0.36781 0.0
H1726 H 0.70867 0.54714 0.26068 0.0
H1727 H 0.6836 0.55486 0.18864 0.0
H1728 H 0.70394 0.57189 0.43922 0.0
H1729 H 0.75568 0.53889 0.26743 0.0
H1730 H 0.76222 0.5391 0.15841 0.0
H1731 H 0.73684 0.59416 0.1434 0.0
H1732 H 0.73039 0.59437 0.25238 0.0
H1733 H 0.78605 0.56071 0.61237 0.0
H1734 H 0.76077 0.55146 0.54288 0.0
H1735 H 0.78281 0.59035 0.41063 0.0
H1736 H 0.80877 0.59835 0.4779 0.0
H1737 H 0.76825 0.56423 0.3534 0.0
H1738 H 0.74596 0.60165 0.52084 0.0
H1739 H 0.7404 0.60902 0.62783 0.0
H1740 H 0.70793 0.55804 0.6469 0.0
H1741 H 0.71349 0.55029 0.5401 0.0
C1742 C 0.67565 0.59005 0.2905 0.0
C1743 C 0.67333 0.57915 0.23836 0.0
C1744 C 0.69052 0.58623 0.33001 0.0
C1745 C 0.70305 0.57112 0.31897 0.0
C1746 C 0.69969 0.55927 0.26928 0.0
C1747 C 0.68524 0.56354 0.22848 0.0
C1748 C 0.7201 0.56869 0.35767 0.0
C1749 C 0.71798 0.57012 0.42027 0.0
C1750 C 0.73855 0.5665 0.33342 0.0
C1751 C 0.7423 0.5665 0.26783 0.0
C1752 C 0.7515 0.55103 0.24081 0.0
C1753 C 0.75521 0.55108 0.17906 0.0
C1754 C 0.74987 0.56659 0.14397 0.0
C1755 C 0.74089 0.58212 0.17058 0.0
C1756 C 0.7372 0.58215 0.23232 0.0
C1757 C 0.78572 0.56683 0.56776 0.0
C1758 C 0.79923 0.58033 0.55052 0.0
C1759 C 0.77119 0.56169 0.52827 0.0
C1760 C 0.76945 0.57065 0.47208 0.0
C1761 C 0.7837 0.58323 0.45364 0.0
C1762 C 0.79857 0.58785 0.49222 0.0
C1763 C 0.75213 0.56842 0.43453 0.0
C1764 C 0.75418 0.56579 0.37229 0.0
C1765 C 0.7337 0.57066 0.45869 0.0
C1766 C 0.73035 0.57527 0.52282 0.0
C1767 C 0.73774 0.59197 0.548 0.0
C1768 C 0.73458 0.59622 0.60856 0.0
C1769 C 0.72387 0.58397 0.64419 0.0
C1770 C 0.71626 0.56748 0.61928 0.0
C1771 C 0.71941 0.56315 0.55876 0.0
H1772 H 0.72144 0.58729 0.69107 0.0
H1773 H 0.75274 0.5666 0.09618 0.0
H1774 H 0.59668 0.16979 0.54468 0.0
H1775 H 0.5851 0.19532 0.60809 0.0
H1776 H 0.54336 0.20974 0.47357 0.0
H1777 H 0.55608 0.18497 0.40789 0.0
H1778 H 0.55722 0.23957 0.50382 0.0
H1779 H 0.53166 0.19207 0.62329 0.0
H1780 H 0.52895 0.16193 0.67825 0.0
H1781 H 0.5735 0.17906 0.79774 0.0
H1782 H 0.5767 0.2092 0.74301 0.0
H1783 H 0.55364 0.29165 0.82345 0.0
H1784 H 0.54174 0.26692 0.7562 0.0
H1785 H 0.58359 0.2828 0.62402 0.0
H1786 H 0.59426 0.30833 0.68888 0.0
H1787 H 0.55647 0.23763 0.72644 0.0
H1788 H 0.57665 0.26853 0.48857 0.0
H1789 H 0.57292 0.29856 0.43353 0.0
H1790 H 0.52715 0.31455 0.5499 0.0
H1791 H 0.53039 0.2845 0.60515 0.0
C1792 C 0.58474 0.17813 0.52924 0.0
C1793 C 0.57728 0.17546 0.47145 0.0
C1794 C 0.57798 0.19269 0.56581 0.0
C1795 C 0.56309 0.20445 0.54634 0.0
C1796 C 0.55489 0.201 0.48977 0.0
C1797 C 0.56207 0.18678 0.45236 0.0
C1798 C 0.55786 0.22154 0.58201 0.0
C1799 C 0.55676 0.2391 0.55249 0.0
C1800 C 0.55624 0.22104 0.64543 0.0
C1801 C 0.55444 0.20292 0.67884 0.0
C1802 C 0.54096 0.18938 0.66107 0.0
C1803 C 0.53933 0.17229 0.69223 0.0
C1804 C 0.55104 0.16858 0.74144 0.0
C1805 C 0.56441 0.18197 0.75965 0.0
C1806 C 0.56611 0.19908 0.72864 0.0
C1807 C 0.5598 0.29018 0.7791 0.0
C1808 C 0.57479 0.30189 0.76111 0.0
C1809 C 0.55309 0.27598 0.74079 0.0
C1810 C 0.56161 0.27291 0.68447 0.0
C1811 C 0.57623 0.28511 0.66603 0.0
C1812 C 0.58248 0.29967 0.70345 0.0
C1813 C 0.55711 0.2557 0.64834 0.0
C1814 C 0.55634 0.23812 0.67776 0.0
C1815 C 0.55593 0.25617 0.58478 0.0
C1816 C 0.55381 0.27423 0.5512 0.0
C1817 C 0.56568 0.27837 0.50218 0.0
C1818 C 0.56368 0.29542 0.47101 0.0
C1819 C 0.54982 0.30846 0.48825 0.0
C1820 C 0.53791 0.30446 0.53667 0.0
C1821 C 0.53984 0.28742 0.568 0.0
H1822 H 0.54831 0.32166 0.46407 0.0
H1823 H 0.54976 0.15534 0.76549 0.0
loop_
_geom_bond_atom_site_label_1
_geom_bond_atom_site_label_2
_geom_bond_distance
_geom_bond_site_symmetry_2
_ccdc_geom_bond_type
C0 O1 1.306 . S
C0 O3 1.160 . S
O1 C0 1.306 . S
O1 Cd2 2.228 . S
Cd2 O1 2.228 . S
Cd2 O6 2.273 . S
Cd2 O10 2.277 . S
O3 C0 1.160 . S
O3 Cd4 2.203 . S
Cd4 O3 2.203 . S
Cd4 O6 2.411 . S
Cd4 O7 2.333 . S
Cd4 O8 2.352 . S
Cd4 O12 2.277 . S
Cd4 O13 2.356 . S
C5 O10 1.209 . S
C5 O12 1.226 . S
O6 Cd2 2.273 . S
O6 Cd4 2.411 . S
O6 C9 1.320 . S
O7 Cd4 2.333 . S
O7 C9 1.214 . S
O8 Cd4 2.352 . S
O8 C11 1.258 . S
C9 O6 1.320 . S
C9 O7 1.214 . S
O10 Cd2 2.277 . S
O10 C5 1.209 . S
C11 O8 1.258 . S
C11 O13 1.282 . S
O12 Cd4 2.277 . S
O12 C5 1.226 . S
O13 Cd4 2.356 . S
O13 C11 1.282 . S
C14 O15 1.306 . S
C14 O17 1.160 . S
O15 C14 1.306 . S
O15 Cd16 2.228 . S
Cd16 O15 2.228 . S
Cd16 O20 2.273 . S
Cd16 O24 2.277 . S
O17 C14 1.160 . S
O17 Cd18 2.203 . S
Cd18 O17 2.203 . S
Cd18 O20 2.411 . S
Cd18 O21 2.333 . S
Cd18 O22 2.352 . S
Cd18 O26 2.277 . S
Cd18 O27 2.356 . S
C19 O24 1.209 . S
C19 O26 1.226 . S
O20 Cd16 2.273 . S
O20 Cd18 2.411 . S
O20 C23 1.320 . S
O21 Cd18 2.333 . S
O21 C23 1.214 . S
O22 Cd18 2.352 . S
O22 C25 1.258 . S
C23 O20 1.320 . S
C23 O21 1.214 . S
O24 Cd16 2.277 . S
O24 C19 1.209 . S
C25 O22 1.258 . S
C25 O27 1.282 . S
O26 Cd18 2.277 . S
O26 C19 1.226 . S
O27 Cd18 2.356 . S
O27 C25 1.282 . S
C28 O29 1.306 . S
C28 O31 1.160 . S
O29 C28 1.306 . S
O29 Cd30 2.228 . S
Cd30 O29 2.228 . S
Cd30 O34 2.273 . S
Cd30 O38 2.277 . S
O31 C28 1.160 . S
O31 Cd32 2.203 . S
Cd32 O31 2.203 . S
Cd32 O34 2.411 . S
Cd32 O35 2.333 . S
Cd32 O36 2.352 . S
Cd32 O40 2.277 . S
Cd32 O41 2.356 . S
C33 O38 1.209 . S
C33 O40 1.226 . S
O34 Cd30 2.273 . S
O34 Cd32 2.411 . S
O34 C37 1.320 . S
O35 Cd32 2.333 . S
O35 C37 1.214 . S
O36 Cd32 2.352 . S
O36 C39 1.258 . S
C37 O34 1.320 . S
C37 O35 1.214 . S
O38 Cd30 2.277 . S
O38 C33 1.209 . S
C39 O36 1.258 . S
C39 O41 1.282 . S
O40 Cd32 2.277 . S
O40 C33 1.226 . S
O41 Cd32 2.356 . S
O41 C39 1.282 . S
C42 O43 1.306 . S
C42 O45 1.160 . S
O43 C42 1.306 . S
O43 Cd44 2.228 . S
Cd44 O43 2.228 . S
Cd44 O48 2.273 . S
Cd44 O52 2.277 . S
O45 C42 1.160 . S
O45 Cd46 2.203 . S
Cd46 O45 2.203 . S
Cd46 O48 2.411 . S
Cd46 O49 2.333 . S
Cd46 O50 2.352 . S
Cd46 O54 2.277 . S
Cd46 O55 2.356 . S
C47 O52 1.209 . S
C47 O54 1.226 . S
O48 Cd44 2.273 . S
O48 Cd46 2.411 . S
O48 C51 1.320 . S
O49 Cd46 2.333 . S
O49 C51 1.214 . S
O50 Cd46 2.352 . S
O50 C53 1.258 . S
C51 O48 1.320 . S
C51 O49 1.214 . S
O52 Cd44 2.277 . S
O52 C47 1.209 . S
C53 O50 1.258 . S
C53 O55 1.282 . S
O54 Cd46 2.277 . S
O54 C47 1.226 . S
O55 Cd46 2.356 . S
O55 C53 1.282 . S
C56 O57 1.306 1_554 S
C56 O59 1.160 . S
O57 C56 1.306 1_556 S
O57 Cd58 2.228 . S
Cd58 O57 2.228 . S
Cd58 O62 2.273 1_556 S
Cd58 O66 2.277 1_556 S
O59 C56 1.160 . S
O59 Cd60 2.203 . S
Cd60 O59 2.203 . S
Cd60 O62 2.411 . S
Cd60 O63 2.333 . S
Cd60 O64 2.352 . S
Cd60 O68 2.277 . S
Cd60 O69 2.356 . S
C61 O66 1.209 . S
C61 O68 1.226 . S
O62 Cd58 2.273 1_554 S
O62 Cd60 2.411 . S
O62 C65 1.320 . S
O63 Cd60 2.333 . S
O63 C65 1.214 . S
O64 Cd60 2.352 . S
O64 C67 1.258 . S
C65 O62 1.320 . S
C65 O63 1.214 . S
O66 Cd58 2.277 1_554 S
O66 C61 1.209 . S
C67 O64 1.258 . S
C67 O69 1.282 . S
O68 Cd60 2.277 . S
O68 C61 1.226 . S
O69 Cd60 2.356 . S
O69 C67 1.282 . S
C70 O71 1.306 1_556 S
C70 O73 1.160 . S
O71 C70 1.306 1_554 S
O71 Cd72 2.228 . S
Cd72 O71 2.228 . S
Cd72 O76 2.273 1_554 S
Cd72 O80 2.277 1_554 S
O73 C70 1.160 . S
O73 Cd74 2.203 . S
Cd74 O73 2.203 . S
Cd74 O76 2.411 . S
Cd74 O77 2.333 . S
Cd74 O78 2.352 . S
Cd74 O82 2.277 . S
Cd74 O83 2.356 . S
C75 O80 1.209 . S
C75 O82 1.226 . S
O76 Cd72 2.273 1_556 S
O76 Cd74 2.411 . S
O76 C79 1.320 . S
O77 Cd74 2.333 . S
O77 C79 1.214 . S
O78 Cd74 2.352 . S
O78 C81 1.258 . S
C79 O76 1.320 . S
C79 O77 1.214 . S
O80 Cd72 2.277 1_556 S
O80 C75 1.209 . S
C81 O78 1.258 . S
C81 O83 1.282 . S
O82 Cd74 2.277 . S
O82 C75 1.226 . S
O83 Cd74 2.356 . S
O83 C81 1.282 . S
C84 O85 1.306 1_554 S
C84 O87 1.160 . S
O85 C84 1.306 1_556 S
O85 Cd86 2.228 . S
Cd86 O85 2.228 . S
Cd86 O90 2.273 1_556 S
Cd86 O94 2.277 1_556 S
O87 C84 1.160 . S
O87 Cd88 2.203 . S
Cd88 O87 2.203 . S
Cd88 O90 2.411 . S
Cd88 O91 2.333 . S
Cd88 O92 2.352 . S
Cd88 O96 2.277 . S
Cd88 O97 2.356 . S
C89 O94 1.209 . S
C89 O96 1.226 . S
O90 Cd86 2.273 1_554 S
O90 Cd88 2.411 . S
O90 C93 1.320 . S
O91 Cd88 2.333 . S
O91 C93 1.214 . S
O92 Cd88 2.352 . S
O92 C95 1.258 . S
C93 O90 1.320 . S
C93 O91 1.214 . S
O94 Cd86 2.277 1_554 S
O94 C89 1.209 . S
C95 O92 1.258 . S
C95 O97 1.282 . S
O96 Cd88 2.277 . S
O96 C89 1.226 . S
O97 Cd88 2.356 . S
O97 C95 1.282 . S
C98 O99 1.306 1_556 S
C98 O101 1.160 . S
O99 C98 1.306 1_554 S
O99 Cd100 2.228 . S
Cd100 O99 2.228 . S
Cd100 O104 2.273 1_554 S
Cd100 O108 2.277 1_554 S
O101 C98 1.160 . S
O101 Cd102 2.203 . S
Cd102 O101 2.203 . S
Cd102 O104 2.411 . S
Cd102 O105 2.333 . S
Cd102 O106 2.352 . S
Cd102 O110 2.277 . S
Cd102 O111 2.356 . S
C103 O108 1.209 . S
C103 O110 1.226 . S
O104 Cd100 2.273 1_556 S
O104 Cd102 2.411 . S
O104 C107 1.320 . S
O105 Cd102 2.333 . S
O105 C107 1.214 . S
O106 Cd102 2.352 . S
O106 C109 1.258 . S
C107 O104 1.320 . S
C107 O105 1.214 . S
O108 Cd100 2.277 1_556 S
O108 C103 1.209 . S
C109 O106 1.258 . S
C109 O111 1.282 . S
O110 Cd102 2.277 . S
O110 C103 1.226 . S
O111 Cd102 2.356 . S
O111 C109 1.282 . S
C112 O113 1.306 . S
C112 O115 1.160 . S
O113 C112 1.306 . S
O113 Cd114 2.228 . S
Cd114 O113 2.228 . S
Cd114 O118 2.273 . S
Cd114 O122 2.277 . S
O115 C112 1.160 . S
O115 Cd116 2.203 . S
Cd116 O115 2.203 . S
Cd116 O118 2.411 . S
Cd116 O119 2.333 . S
Cd116 O120 2.352 . S
Cd116 O124 2.277 . S
Cd116 O125 2.356 . S
C117 O122 1.209 . S
C117 O124 1.226 . S
O118 Cd114 2.273 . S
O118 Cd116 2.411 . S
O118 C121 1.320 . S
O119 Cd116 2.333 . S
O119 C121 1.214 . S
O120 Cd116 2.352 . S
O120 C123 1.258 . S
C121 O118 1.320 . S
C121 O119 1.214 . S
O122 Cd114 2.277 . S
O122 C117 1.209 . S
C123 O120 1.258 . S
C123 O125 1.282 . S
O124 Cd116 2.277 . S
O124 C117 1.226 . S
O125 Cd116 2.356 . S
O125 C123 1.282 . S
C126 O127 1.306 . S
C126 O129 1.160 . S
O127 C126 1.306 . S
O127 Cd128 2.228 . S
Cd128 O127 2.228 . S
Cd128 O132 2.273 . S
Cd128 O136 2.277 . S
O129 C126 1.160 . S
O129 Cd130 2.203 . S
Cd130 O129 2.203 . S
Cd130 O132 2.411 . S
Cd130 O133 2.333 . S
Cd130 O134 2.352 . S
Cd130 O138 2.277 . S
Cd130 O139 2.356 . S
C131 O136 1.209 . S
C131 O138 1.226 . S
O132 Cd128 2.273 . S
O132 Cd130 2.411 . S
O132 C135 1.320 . S
O133 Cd130 2.333 . S
O133 C135 1.214 . S
O134 Cd130 2.352 . S
O134 C137 1.258 . S
C135 O132 1.320 . S
C135 O133 1.214 . S
O136 Cd128 2.277 . S
O136 C131 1.209 . S
C137 O134 1.258 . S
C137 O139 1.282 . S
O138 Cd130 2.277 . S
O138 C131 1.226 . S
O139 Cd130 2.356 . S
O139 C137 1.282 . S
C140 O141 1.306 . S
C140 O143 1.160 . S
O141 C140 1.306 . S
O141 Cd142 2.228 . S
Cd142 O141 2.228 . S
Cd142 O146 2.273 . S
Cd142 O150 2.277 . S
O143 C140 1.160 . S
O143 Cd144 2.203 . S
Cd144 O143 2.203 . S
Cd144 O146 2.411 . S
Cd144 O147 2.333 . S
Cd144 O148 2.352 . S
Cd144 O152 2.277 . S
Cd144 O153 2.356 . S
C145 O150 1.209 . S
C145 O152 1.226 . S
O146 Cd142 2.273 . S
O146 Cd144 2.411 . S
O146 C149 1.320 . S
O147 Cd144 2.333 . S
O147 C149 1.214 . S
O148 Cd144 2.352 . S
O148 C151 1.258 . S
C149 O146 1.320 . S
C149 O147 1.214 . S
O150 Cd142 2.277 . S
O150 C145 1.209 . S
C151 O148 1.258 . S
C151 O153 1.282 . S
O152 Cd144 2.277 . S
O152 C145 1.226 . S
O153 Cd144 2.356 . S
O153 C151 1.282 . S
C154 O155 1.306 . S
C154 O157 1.160 . S
O155 C154 1.306 . S
O155 Cd156 2.228 . S
Cd156 O155 2.228 . S
Cd156 O160 2.273 . S
Cd156 O164 2.277 . S
O157 C154 1.160 . S
O157 Cd158 2.203 . S
Cd158 O157 2.203 . S
Cd158 O160 2.411 . S
Cd158 O161 2.333 . S
Cd158 O162 2.352 . S
Cd158 O166 2.277 . S
Cd158 O167 2.356 . S
C159 O164 1.209 . S
C159 O166 1.226 . S
O160 Cd156 2.273 . S
O160 Cd158 2.411 . S
O160 C163 1.320 . S
O161 Cd158 2.333 . S
O161 C163 1.214 . S
O162 Cd158 2.352 . S
O162 C165 1.258 . S
C163 O160 1.320 . S
C163 O161 1.214 . S
O164 Cd156 2.277 . S
O164 C159 1.209 . S
C165 O162 1.258 . S
C165 O167 1.282 . S
O166 Cd158 2.277 . S
O166 C159 1.226 . S
O167 Cd158 2.356 . S
O167 C165 1.282 . S
C168 O169 1.306 . S
C168 O171 1.160 . S
O169 C168 1.306 . S
O169 Cd170 2.228 . S
Cd170 O169 2.228 . S
Cd170 O174 2.273 . S
Cd170 O178 2.277 . S
O171 C168 1.160 . S
O171 Cd172 2.203 . S
Cd172 O171 2.203 . S
Cd172 O174 2.411 . S
Cd172 O175 2.333 . S
Cd172 O176 2.352 . S
Cd172 O180 2.277 . S
Cd172 O181 2.356 . S
C173 O178 1.209 . S
C173 O180 1.226 . S
O174 Cd170 2.273 . S
O174 Cd172 2.411 . S
O174 C177 1.320 . S
O175 Cd172 2.333 . S
O175 C177 1.214 . S
O176 Cd172 2.352 . S
O176 C179 1.258 . S
C177 O174 1.320 . S
C177 O175 1.214 . S
O178 Cd170 2.277 . S
O178 C173 1.209 . S
C179 O176 1.258 . S
C179 O181 1.282 . S
O180 Cd172 2.277 . S
O180 C173 1.226 . S
O181 Cd172 2.356 . S
O181 C179 1.282 . S
C182 O183 1.306 . S
C182 O185 1.160 . S
O183 C182 1.306 . S
O183 Cd184 2.228 . S
Cd184 O183 2.228 . S
Cd184 O188 2.273 . S
Cd184 O192 2.277 . S
O185 C182 1.160 . S
O185 Cd186 2.203 . S
Cd186 O185 2.203 . S
Cd186 O188 2.411 . S
Cd186 O189 2.333 . S
Cd186 O190 2.352 . S
Cd186 O194 2.277 . S
Cd186 O195 2.356 . S
C187 O192 1.209 . S
C187 O194 1.226 . S
O188 Cd184 2.273 . S
O188 Cd186 2.411 . S
O188 C191 1.320 . S
O189 Cd186 2.333 . S
O189 C191 1.214 . S
O190 Cd186 2.352 . S
O190 C193 1.258 . S
C191 O188 1.320 . S
C191 O189 1.214 . S
O192 Cd184 2.277 . S
O192 C187 1.209 . S
C193 O190 1.258 . S
C193 O195 1.282 . S
O194 Cd186 2.277 . S
O194 C187 1.226 . S
O195 Cd186 2.356 . S
O195 C193 1.282 . S
C196 O197 1.306 . S
C196 O199 1.160 . S
O197 C196 1.306 . S
O197 Cd198 2.228 . S
Cd198 O197 2.228 . S
Cd198 O202 2.273 . S
Cd198 O206 2.277 . S
O199 C196 1.160 . S
O199 Cd200 2.203 . S
Cd200 O199 2.203 . S
Cd200 O202 2.411 . S
Cd200 O203 2.333 . S
Cd200 O204 2.352 . S
Cd200 O208 2.277 . S
Cd200 O209 2.356 . S
C201 O206 1.209 . S
C201 O208 1.226 . S
O202 Cd198 2.273 . S
O202 Cd200 2.411 . S
O202 C205 1.320 . S
O203 Cd200 2.333 . S
O203 C205 1.214 . S
O204 Cd200 2.352 . S
O204 C207 1.258 . S
C205 O202 1.320 . S
C205 O203 1.214 . S
O206 Cd198 2.277 . S
O206 C201 1.209 . S
C207 O204 1.258 . S
C207 O209 1.282 . S
O208 Cd200 2.277 . S
O208 C201 1.226 . S
O209 Cd200 2.356 . S
O209 C207 1.282 . S
C210 O211 1.306 . S
C210 O213 1.160 . S
O211 C210 1.306 . S
O211 Cd212 2.228 . S
Cd212 O211 2.228 . S
Cd212 O216 2.273 . S
Cd212 O220 2.277 . S
O213 C210 1.160 . S
O213 Cd214 2.203 . S
Cd214 O213 2.203 . S
Cd214 O216 2.411 . S
Cd214 O217 2.333 . S
Cd214 O218 2.352 . S
Cd214 O222 2.277 . S
Cd214 O223 2.356 . S
C215 O220 1.209 . S
C215 O222 1.226 . S
O216 Cd212 2.273 . S
O216 Cd214 2.411 . S
O216 C219 1.320 . S
O217 Cd214 2.333 . S
O217 C219 1.214 . S
O218 Cd214 2.352 . S
O218 C221 1.258 . S
C219 O216 1.320 . S
C219 O217 1.214 . S
O220 Cd212 2.277 . S
O220 C215 1.209 . S
C221 O218 1.258 . S
C221 O223 1.282 . S
O222 Cd214 2.277 . S
O222 C215 1.226 . S
O223 Cd214 2.356 . S
O223 C221 1.282 . S
H224 C242 0.951 . S
H225 C244 0.951 . S
H226 C246 0.950 . S
H227 C247 0.950 . S
H228 C249 0.950 . S
H229 C252 0.950 . S
H230 C253 0.950 . S
H231 C255 0.950 . S
H232 C256 0.950 . S
H233 C257 0.951 . S
H234 C259 0.951 . S
H235 C261 0.950 . S
H236 C262 0.950 . S
H237 C264 0.950 . S
H238 C267 0.950 . S
H239 C268 0.950 . S
H240 C270 0.950 . S
H241 C271 0.945 1_565 S
C242 H224 0.951 . S
C242 C243 1.366 . S
C242 C244 1.388 . S
C243 C242 1.366 . S
C243 C247 1.385 . S
C244 H225 0.951 . S
C244 C242 1.388 . S
C244 C245 1.366 . S
C245 C244 1.366 . S
C245 C246 1.414 . S
C245 C248 1.499 . S
C246 H226 0.950 . S
C246 C245 1.414 . S
C246 C247 1.374 . S
C247 H227 0.950 . S
C247 C243 1.385 . S
C247 C246 1.374 . S
C248 C245 1.499 . S
C248 C249 1.373 . S
C248 C250 1.389 . S
C249 H228 0.950 . S
C249 C248 1.373 . S
C249 C265 1.377 1_565 S
C250 C248 1.389 . S
C250 C251 1.524 . S
C250 C264 1.377 1_565 S
C251 C250 1.524 . S
C251 C252 1.397 . S
C251 C256 1.363 . S
C252 H229 0.950 . S
C252 C251 1.397 . S
C252 C253 1.334 . S
C253 H230 0.950 . S
C253 C252 1.334 . S
C253 C254 1.287 . S
C254 C253 1.287 . S
C254 C255 1.524 . S
C254 H273 0.913 . S
C255 H231 0.950 . S
C255 C254 1.524 . S
C255 C256 1.415 . S
C256 H232 0.950 . S
C256 C251 1.363 . S
C256 C255 1.415 . S
C257 H233 0.951 . S
C257 C258 1.366 . S
C257 C259 1.388 . S
C258 C257 1.366 . S
C258 C262 1.385 . S
C259 H234 0.951 . S
C259 C257 1.388 . S
C259 C260 1.366 . S
C260 C259 1.366 . S
C260 C261 1.414 . S
C260 C263 1.499 . S
C261 H235 0.950 . S
C261 C260 1.414 . S
C261 C262 1.374 . S
C262 H236 0.950 . S
C262 C258 1.385 . S
C262 C261 1.374 . S
C263 C260 1.499 . S
C263 C264 1.373 . S
C263 C265 1.389 . S
C264 H237 0.950 . S
C264 C250 1.377 1_545 S
C264 C263 1.373 . S
C265 C249 1.377 1_545 S
C265 C263 1.389 . S
C265 C266 1.524 . S
C266 C265 1.524 . S
C266 C267 1.397 . S
C266 C271 1.363 . S
C267 H238 0.950 . S
C267 C266 1.397 . S
C267 C268 1.334 . S
C268 H239 0.950 . S
C268 C267 1.334 . S
C268 C269 1.287 . S
C269 C268 1.287 . S
C269 C270 1.524 . S
C269 H272 0.999 . S
C270 H240 0.950 . S
C270 C269 1.524 . S
C270 C271 1.415 . S
C271 H241 0.945 1_545 S
C271 C266 1.363 . S
C271 C270 1.415 . S
H272 C269 0.999 . S
H273 C254 0.913 . S
H274 C292 0.951 . S
H275 C294 0.951 . S
H276 C296 0.950 . S
H277 C297 0.950 . S
H278 C299 0.950 . S
H279 C302 0.950 . S
H280 C303 0.950 . S
H281 C305 0.950 . S
H282 C306 0.933 1_655 S
H283 C307 0.951 . S
H284 C309 0.951 . S
H285 C311 0.950 . S
H286 C312 0.950 . S
H287 C314 0.950 . S
H288 C317 0.950 . S
H289 C318 0.950 . S
H290 C320 0.950 . S
H291 C321 0.950 . S
C292 H274 0.951 . S
C292 C293 1.366 . S
C292 C294 1.388 . S
C293 C292 1.366 . S
C293 C297 1.385 . S
C294 H275 0.951 . S
C294 C292 1.388 . S
C294 C295 1.366 . S
C295 C294 1.366 . S
C295 C296 1.414 . S
C295 C298 1.499 . S
C296 H276 0.950 . S
C296 C295 1.414 . S
C296 C297 1.374 . S
C297 H277 0.950 . S
C297 C293 1.385 . S
C297 C296 1.374 . S
C298 C295 1.499 . S
C298 C299 1.373 . S
C298 C300 1.389 . S
C299 H278 0.950 . S
C299 C298 1.373 . S
C299 C315 1.377 1_455 S
C300 C298 1.389 . S
C300 C301 1.524 . S
C300 C314 1.377 1_455 S
C301 C300 1.524 . S
C301 C302 1.397 . S
C301 C306 1.363 . S
C302 H279 0.950 . S
C302 C301 1.397 . S
C302 C303 1.334 . S
C303 H280 0.950 . S
C303 C302 1.334 . S
C303 C304 1.287 . S
C304 C303 1.287 . S
C304 C305 1.524 . S
C304 H323 0.913 . S
C305 H281 0.950 . S
C305 C304 1.524 . S
C305 C306 1.415 . S
C306 H282 0.933 1_455 S
C306 C301 1.363 . S
C306 C305 1.415 . S
C307 H283 0.951 . S
C307 C308 1.366 . S
C307 C309 1.388 . S
C308 C307 1.366 . S
C308 C312 1.385 . S
C309 H284 0.951 . S
C309 C307 1.388 . S
C309 C310 1.366 . S
C310 C309 1.366 . S
C310 C311 1.414 . S
C310 C313 1.499 . S
C311 H285 0.950 . S
C311 C310 1.414 . S
C311 C312 1.374 . S
C312 H286 0.950 . S
C312 C308 1.385 . S
C312 C311 1.374 . S
C313 C310 1.499 . S
C313 C314 1.373 . S
C313 C315 1.389 . S
C314 H287 0.950 . S
C314 C300 1.377 1_655 S
C314 C313 1.373 . S
C315 C299 1.377 1_655 S
C315 C313 1.389 . S
C315 C316 1.524 . S
C316 C315 1.524 . S
C316 C317 1.397 . S
C316 C321 1.363 . S
C317 H288 0.950 . S
C317 C316 1.397 . S
C317 C318 1.334 . S
C318 H289 0.950 . S
C318 C317 1.334 . S
C318 C319 1.287 . S
C319 C318 1.287 . S
C319 C320 1.524 . S
C319 H322 0.999 . S
C320 H290 0.950 . S
C320 C319 1.524 . S
C320 C321 1.415 . S
C321 H291 0.950 . S
C321 C316 1.363 . S
C321 C320 1.415 . S
H322 C319 0.999 . S
H323 C304 0.913 . S
H324 C342 0.951 . S
H325 C344 0.951 . S
H326 C346 0.950 . S
H327 C347 0.950 . S
H328 C349 0.950 . S
H329 C352 0.950 . S
H330 C353 0.950 . S
H331 C355 0.950 . S
H332 C356 0.950 1_545 S
H333 C357 0.951 . S
H334 C359 0.951 . S
H335 C361 0.950 . S
H336 C362 0.950 . S
H337 C364 0.950 . S
H338 C367 0.950 . S
H339 C368 0.950 . S
H340 C370 0.950 . S
H341 C371 0.950 . S
C342 H324 0.951 . S
C342 C343 1.366 . S
C342 C344 1.388 . S
C343 C342 1.366 . S
C343 C347 1.385 . S
C344 H325 0.951 . S
C344 C342 1.388 . S
C344 C345 1.366 . S
C345 C344 1.366 . S
C345 C346 1.414 . S
C345 C348 1.499 . S
C346 H326 0.950 . S
C346 C345 1.414 . S
C346 C347 1.374 . S
C347 H327 0.950 . S
C347 C343 1.385 . S
C347 C346 1.374 . S
C348 C345 1.499 . S
C348 C349 1.373 . S
C348 C350 1.389 . S
C349 H328 0.950 . S
C349 C348 1.373 . S
C349 C365 1.377 1_565 S
C350 C348 1.389 . S
C350 C351 1.524 . S
C350 C364 1.377 1_565 S
C351 C350 1.524 . S
C351 C352 1.397 . S
C351 C356 1.363 . S
C352 H329 0.950 . S
C352 C351 1.397 . S
C352 C353 1.334 . S
C353 H330 0.950 . S
C353 C352 1.334 . S
C353 C354 1.287 . S
C354 C353 1.287 . S
C354 C355 1.524 . S
C354 H373 0.913 . S
C355 H331 0.950 . S
C355 C354 1.524 . S
C355 C356 1.415 . S
C356 H332 0.950 1_565 S
C356 C351 1.363 . S
C356 C355 1.415 . S
C357 H333 0.951 . S
C357 C358 1.366 . S
C357 C359 1.388 . S
C358 C357 1.366 . S
C358 C362 1.385 . S
C359 H334 0.951 . S
C359 C357 1.388 . S
C359 C360 1.366 . S
C360 C359 1.366 . S
C360 C361 1.414 . S
C360 C363 1.499 . S
C361 H335 0.950 . S
C361 C360 1.414 . S
C361 C362 1.374 . S
C362 H336 0.950 . S
C362 C358 1.385 . S
C362 C361 1.374 . S
C363 C360 1.499 . S
C363 C364 1.373 . S
C363 C365 1.389 . S
C364 H337 0.950 . S
C364 C350 1.377 1_545 S
C364 C363 1.373 . S
C365 C349 1.377 1_545 S
C365 C363 1.389 . S
C365 C366 1.524 . S
C366 C365 1.524 . S
C366 C367 1.397 . S
C366 C371 1.363 . S
C367 H338 0.950 . S
C367 C366 1.397 . S
C367 C368 1.334 . S
C368 H339 0.950 . S
C368 C367 1.334 . S
C368 C369 1.287 . S
C369 C368 1.287 . S
C369 C370 1.524 . S
C369 H372 0.999 . S
C370 H340 0.950 . S
C370 C369 1.524 . S
C370 C371 1.415 . S
C371 H341 0.950 . S
C371 C366 1.363 . S
C371 C370 1.415 . S
H372 C369 0.999 . S
H373 C354 0.913 . S
H374 C392 0.951 . S
H375 C394 0.951 . S
H376 C396 0.950 . S
H377 C397 0.950 . S
H378 C399 0.950 . S
H379 C402 0.950 . S
H380 C403 0.950 . S
H381 C405 0.950 . S
H382 C406 0.950 . S
H383 C407 0.951 . S
H384 C409 0.951 . S
H385 C411 0.950 . S
H386 C412 0.950 . S
H387 C414 0.950 . S
H388 C417 0.950 . S
H389 C418 0.950 . S
H390 C420 0.950 . S
H391 C421 0.950 . S
C392 H374 0.951 . S
C392 C393 1.366 . S
C392 C394 1.388 . S
C393 C392 1.366 . S
C393 C397 1.385 . S
C394 H375 0.951 . S
C394 C392 1.388 . S
C394 C395 1.366 . S
C395 C394 1.366 . S
C395 C396 1.414 . S
C395 C398 1.499 . S
C396 H376 0.950 . S
C396 C395 1.414 . S
C396 C397 1.374 . S
C397 H377 0.950 . S
C397 C393 1.385 . S
C397 C396 1.374 . S
C398 C395 1.499 . S
C398 C399 1.373 . S
C398 C400 1.389 . S
C399 H378 0.950 . S
C399 C398 1.373 . S
C399 C415 1.377 1_455 S
C400 C398 1.389 . S
C400 C401 1.524 . S
C400 C414 1.377 1_455 S
C401 C400 1.524 . S
C401 C402 1.397 . S
C401 C406 1.363 . S
C402 H379 0.950 . S
C402 C401 1.397 . S
C402 C403 1.334 . S
C403 H380 0.950 . S
C403 C402 1.334 . S
C403 C404 1.287 . S
C404 C403 1.287 . S
C404 C405 1.524 . S
C404 H423 0.913 . S
C405 H381 0.950 . S
C405 C404 1.524 . S
C405 C406 1.415 . S
C406 H382 0.950 . S
C406 C401 1.363 . S
C406 C405 1.415 . S
C407 H383 0.951 . S
C407 C408 1.366 . S
C407 C409 1.388 . S
C408 C407 1.366 . S
C408 C412 1.385 . S
C409 H384 0.951 . S
C409 C407 1.388 . S
C409 C410 1.366 . S
C410 C409 1.366 . S
C410 C411 1.414 . S
C410 C413 1.499 . S
C411 H385 0.950 . S
C411 C410 1.414 . S
C411 C412 1.374 . S
C412 H386 0.950 . S
C412 C408 1.385 . S
C412 C411 1.374 . S
C413 C410 1.499 . S
C413 C414 1.373 . S
C413 C415 1.389 . S
C414 H387 0.950 . S
C414 C400 1.377 1_655 S
C414 C413 1.373 . S
C415 C399 1.377 1_655 S
C415 C413 1.389 . S
C415 C416 1.524 . S
C416 C415 1.524 . S
C416 C417 1.397 . S
C416 C421 1.363 . S
C417 H388 0.950 . S
C417 C416 1.397 . S
C417 C418 1.334 . S
C418 H389 0.950 . S
C418 C417 1.334 . S
C418 C419 1.287 . S
C419 C418 1.287 . S
C419 C420 1.524 . S
C419 H422 0.999 . S
C420 H390 0.950 . S
C420 C419 1.524 . S
C420 C421 1.415 . S
C421 H391 0.950 . S
C421 C416 1.363 . S
C421 C420 1.415 . S
H422 C419 0.999 . S
H423 C404 0.913 . S
H424 C442 0.951 . S
H425 C444 0.951 . S
H426 C446 0.950 . S
H427 C447 0.950 . S
H428 C449 0.950 . S
H429 C452 0.950 . S
H430 C453 0.950 . S
H431 C455 0.950 . S
H432 C456 0.950 . S
H433 C457 0.951 . S
H434 C459 0.951 . S
H435 C461 0.950 . S
H436 C462 0.950 . S
H437 C464 0.950 . S
H438 C467 0.950 . S
H439 C468 0.950 . S
H440 C470 0.950 . S
H441 C471 0.950 . S
C442 H424 0.951 . S
C442 C443 1.366 1_556 S
C442 C444 1.388 . S
C443 C442 1.366 1_554 S
C443 C447 1.385 . S
C444 H425 0.951 . S
C444 C442 1.388 . S
C444 C445 1.366 . S
C445 C444 1.366 . S
C445 C446 1.414 1_556 S
C445 C448 1.499 . S
C446 H426 0.950 . S
C446 C445 1.414 1_554 S
C446 C447 1.374 . S
C447 H427 0.950 . S
C447 C443 1.385 . S
C447 C446 1.374 . S
C448 C445 1.499 . S
C448 C449 1.373 1_556 S
C448 C450 1.389 . S
C449 H428 0.950 . S
C449 C448 1.373 1_554 S
C449 C465 1.377 . S
C450 C448 1.389 . S
C450 C451 1.524 . S
C450 C464 1.377 . S
C451 C450 1.524 . S
C451 C452 1.397 . S
C451 C456 1.363 . S
C452 H429 0.950 . S
C452 C451 1.397 . S
C452 C453 1.334 . S
C453 H430 0.950 . S
C453 C452 1.334 . S
C453 C454 1.287 . S
C454 C453 1.287 . S
C454 C455 1.524 . S
C454 H473 0.913 . S
C455 H431 0.950 . S
C455 C454 1.524 . S
C455 C456 1.415 . S
C456 H432 0.950 . S
C456 C451 1.363 . S
C456 C455 1.415 . S
C457 H433 0.951 . S
C457 C458 1.366 . S
C457 C459 1.388 . S
C458 C457 1.366 . S
C458 C462 1.385 . S
C459 H434 0.951 . S
C459 C457 1.388 . S
C459 C460 1.366 . S
C460 C459 1.366 . S
C460 C461 1.414 . S
C460 C463 1.499 . S
C461 H435 0.950 . S
C461 C460 1.414 . S
C461 C462 1.374 . S
C462 H436 0.950 . S
C462 C458 1.385 . S
C462 C461 1.374 . S
C463 C460 1.499 . S
C463 C464 1.373 . S
C463 C465 1.389 1_556 S
C464 H437 0.950 . S
C464 C450 1.377 . S
C464 C463 1.373 . S
C465 C449 1.377 . S
C465 C463 1.389 1_554 S
C465 C466 1.524 . S
C466 C465 1.524 . S
C466 C467 1.397 . S
C466 C471 1.363 . S
C467 H438 0.950 . S
C467 C466 1.397 . S
C467 C468 1.334 . S
C468 H439 0.950 . S
C468 C467 1.334 . S
C468 C469 1.287 . S
C469 C468 1.287 . S
C469 C470 1.524 . S
C469 H472 0.999 . S
C470 H440 0.950 . S
C470 C469 1.524 . S
C470 C471 1.415 . S
C471 H441 0.950 . S
C471 C466 1.363 . S
C471 C470 1.415 . S
H472 C469 0.999 . S
H473 C454 0.913 . S
H474 C492 0.951 . S
H475 C494 0.951 . S
H476 C496 0.950 . S
H477 C497 0.950 . S
H478 C499 0.950 . S
H479 C502 0.950 1_554 S
H480 C503 0.950 . S
H481 C505 0.950 . S
H482 C506 0.950 . S
H483 C507 0.951 . S
H484 C509 0.951 . S
H485 C511 0.950 1_556 S
H486 C512 0.950 . S
H487 C514 0.950 1_556 S
H488 C517 0.950 . S
H489 C518 0.950 . S
H490 C520 0.950 . S
H491 C521 0.950 . S
C492 H474 0.951 . S
C492 C493 1.366 . S
C492 C494 1.388 . S
C493 C492 1.366 . S
C493 C497 1.385 1_556 S
C494 H475 0.951 . S
C494 C492 1.388 . S
C494 C495 1.366 1_556 S
C495 C494 1.366 1_554 S
C495 C496 1.414 . S
C495 C498 1.499 . S
C496 H476 0.950 . S
C496 C495 1.414 . S
C496 C497 1.374 . S
C497 H477 0.950 . S
C497 C493 1.385 1_554 S
C497 C496 1.374 . S
C498 C495 1.499 . S
C498 C499 1.373 . S
C498 C500 1.389 . S
C499 H478 0.950 . S
C499 C498 1.373 . S
C499 C515 1.377 . S
C500 C498 1.389 . S
C500 C501 1.524 1_554 S
C500 C514 1.377 . S
C501 C500 1.524 1_556 S
C501 C502 1.397 . S
C501 C506 1.363 . S
C502 H479 0.950 1_556 S
C502 C501 1.397 . S
C502 C503 1.334 . S
C503 H480 0.950 . S
C503 C502 1.334 . S
C503 C504 1.287 . S
C504 C503 1.287 . S
C504 C505 1.524 . S
C504 H523 0.913 . S
C505 H481 0.950 . S
C505 C504 1.524 . S
C505 C506 1.415 . S
C506 H482 0.950 . S
C506 C501 1.363 . S
C506 C505 1.415 . S
C507 H483 0.951 . S
C507 C508 1.366 . S
C507 C509 1.388 . S
C508 C507 1.366 . S
C508 C512 1.385 . S
C509 H484 0.951 . S
C509 C507 1.388 . S
C509 C510 1.366 . S
C510 C509 1.366 . S
C510 C511 1.414 . S
C510 C513 1.499 . S
C511 H485 0.950 1_554 S
C511 C510 1.414 . S
C511 C512 1.374 . S
C512 H486 0.950 . S
C512 C508 1.385 . S
C512 C511 1.374 . S
C513 C510 1.499 . S
C513 C514 1.373 . S
C513 C515 1.389 . S
C514 H487 0.950 1_554 S
C514 C500 1.377 . S
C514 C513 1.373 . S
C515 C499 1.377 . S
C515 C513 1.389 . S
C515 C516 1.524 . S
C516 C515 1.524 . S
C516 C517 1.397 . S
C516 C521 1.363 . S
C517 H488 0.950 . S
C517 C516 1.397 . S
C517 C518 1.334 . S
C518 H489 0.950 . S
C518 C517 1.334 . S
C518 C519 1.287 . S
C519 C518 1.287 . S
C519 C520 1.524 . S
C519 H522 0.999 . S
C520 H490 0.950 . S
C520 C519 1.524 . S
C520 C521 1.415 . S
C521 H491 0.950 . S
C521 C516 1.363 . S
C521 C520 1.415 . S
H522 C519 0.999 . S
H523 C504 0.913 . S
H524 C542 0.951 . S
H525 C544 0.951 . S
H526 C546 0.950 . S
H527 C547 0.950 . S
H528 C549 0.950 . S
H529 C552 0.950 . S
H530 C553 0.950 . S
H531 C555 0.953 . S
H532 C556 0.950 . S
H533 C557 0.951 . S
H534 C559 0.951 . S
H535 C561 0.950 . S
H536 C562 0.950 . S
H537 C564 0.946 1_554 S
H538 C567 0.950 . S
H539 C568 0.950 . S
H540 C570 0.950 . S
H541 C571 0.950 . S
C542 H524 0.951 . S
C542 C543 1.366 . S
C542 C544 1.388 . S
C543 C542 1.366 . S
C543 C547 1.385 . S
C544 H525 0.951 . S
C544 C542 1.388 . S
C544 C545 1.366 . S
C545 C544 1.366 . S
C545 C546 1.414 . S
C545 C548 1.499 . S
C546 H526 0.950 . S
C546 C545 1.414 . S
C546 C547 1.374 . S
C547 H527 0.950 . S
C547 C543 1.385 . S
C547 C546 1.374 . S
C548 C545 1.499 . S
C548 C549 1.373 . S
C548 C550 1.389 . S
C549 H528 0.950 . S
C549 C548 1.373 . S
C549 C565 1.377 . S
C550 C548 1.389 . S
C550 C551 1.524 . S
C550 C564 1.377 . S
C551 C550 1.524 . S
C551 C552 1.397 1_556 S
C551 C556 1.363 . S
C552 H529 0.950 . S
C552 C551 1.397 1_554 S
C552 C553 1.334 . S
C553 H530 0.950 . S
C553 C552 1.334 . S
C553 C554 1.287 . S
C554 C553 1.287 . S
C554 C555 1.517 1_554 S
C554 H573 0.913 . S
C555 H531 0.953 . S
C555 C554 1.517 1_556 S
C555 C556 1.419 . S
C556 H532 0.950 . S
C556 C551 1.363 . S
C556 C555 1.419 . S
C557 H533 0.951 . S
C557 C558 1.366 . S
C557 C559 1.388 . S
C558 C557 1.366 . S
C558 C562 1.385 1_554 S
C559 H534 0.951 . S
C559 C557 1.388 . S
C559 C560 1.366 1_554 S
C560 C559 1.366 1_556 S
C560 C561 1.414 . S
C560 C563 1.499 . S
C561 H535 0.950 . S
C561 C560 1.414 . S
C561 C562 1.374 . S
C562 H536 0.950 . S
C562 C558 1.385 1_556 S
C562 C561 1.374 . S
C563 C560 1.499 . S
C563 C564 1.373 . S
C563 C565 1.389 . S
C564 H537 0.946 1_556 S
C564 C550 1.377 . S
C564 C563 1.373 . S
C565 C549 1.377 . S
C565 C563 1.389 . S
C565 C566 1.524 . S
C566 C565 1.524 . S
C566 C567 1.397 . S
C566 C571 1.363 . S
C567 H538 0.950 . S
C567 C566 1.397 . S
C567 C568 1.334 . S
C568 H539 0.950 . S
C568 C567 1.334 . S
C568 C569 1.287 . S
C569 C568 1.287 . S
C569 C570 1.524 . S
C569 H572 0.999 . S
C570 H540 0.950 . S
C570 C569 1.524 . S
C570 C571 1.415 . S
C571 H541 0.950 . S
C571 C566 1.363 . S
C571 C570 1.415 . S
H572 C569 0.999 . S
H573 C554 0.913 . S
H574 C592 0.951 . S
H575 C594 0.951 1_556 S
H576 C596 0.950 . S
H577 C597 0.950 . S
H578 C599 0.950 . S
H579 C602 0.949 . S
H580 C603 0.950 . S
H581 C605 0.950 . S
H582 C606 0.950 . S
H583 C607 0.951 . S
H584 C609 0.951 . S
H585 C611 0.950 . S
H586 C612 0.950 . S
H587 C614 0.950 . S
H588 C617 0.950 . S
H589 C618 0.950 . S
H590 C620 0.950 . S
H591 C621 0.950 . S
C592 H574 0.951 . S
C592 C593 1.366 . S
C592 C594 1.388 . S
C593 C592 1.366 . S
C593 C597 1.385 . S
C594 H575 0.951 1_554 S
C594 C592 1.388 . S
C594 C595 1.366 . S
C595 C594 1.366 . S
C595 C596 1.414 . S
C595 C598 1.499 . S
C596 H576 0.950 . S
C596 C595 1.414 . S
C596 C597 1.374 . S
C597 H577 0.950 . S
C597 C593 1.385 . S
C597 C596 1.374 . S
C598 C595 1.499 . S
C598 C599 1.373 . S
C598 C600 1.389 1_554 S
C599 H578 0.950 . S
C599 C598 1.373 . S
C599 C615 1.377 . S
C600 C598 1.389 1_556 S
C600 C601 1.524 . S
C600 C614 1.377 . S
C601 C600 1.524 . S
C601 C602 1.397 . S
C601 C606 1.363 . S
C602 H579 0.949 . S
C602 C601 1.397 . S
C602 C603 1.334 . S
C603 H580 0.950 . S
C603 C602 1.334 . S
C603 C604 1.287 . S
C604 C603 1.287 . S
C604 C605 1.524 . S
C604 H623 0.913 . S
C605 H581 0.950 . S
C605 C604 1.524 . S
C605 C606 1.415 . S
C606 H582 0.950 . S
C606 C601 1.363 . S
C606 C605 1.415 . S
C607 H583 0.951 . S
C607 C608 1.366 1_554 S
C607 C609 1.388 . S
C608 C607 1.366 1_556 S
C608 C612 1.385 . S
C609 H584 0.951 . S
C609 C607 1.388 . S
C609 C610 1.366 . S
C610 C609 1.366 . S
C610 C611 1.414 1_554 S
C610 C613 1.499 . S
C611 H585 0.950 . S
C611 C610 1.414 1_556 S
C611 C612 1.374 . S
C612 H586 0.950 . S
C612 C608 1.385 . S
C612 C611 1.374 . S
C613 C610 1.499 . S
C613 C614 1.373 1_554 S
C613 C615 1.389 . S
C614 H587 0.950 . S
C614 C600 1.377 . S
C614 C613 1.373 1_556 S
C615 C599 1.377 . S
C615 C613 1.389 . S
C615 C616 1.524 . S
C616 C615 1.524 . S
C616 C617 1.397 . S
C616 C621 1.363 . S
C617 H588 0.950 . S
C617 C616 1.397 . S
C617 C618 1.334 . S
C618 H589 0.950 . S
C618 C617 1.334 . S
C618 C619 1.287 . S
C619 C618 1.287 . S
C619 C620 1.524 . S
C619 H622 0.999 . S
C620 H590 0.950 . S
C620 C619 1.524 . S
C620 C621 1.415 . S
C621 H591 0.950 . S
C621 C616 1.363 . S
C621 C620 1.415 . S
H622 C619 0.999 . S
H623 C604 0.913 . S
H624 C642 0.951 . S
H625 C644 0.951 . S
H626 C646 0.950 . S
H627 C647 0.950 . S
H628 C649 0.950 . S
H629 C652 0.950 . S
H630 C653 0.950 . S
H631 C655 0.950 . S
H632 C656 0.950 . S
H633 C657 0.951 . S
H634 C659 0.951 . S
H635 C661 0.950 . S
H636 C662 0.950 . S
H637 C664 0.950 . S
H638 C667 0.950 . S
H639 C668 0.950 . S
H640 C670 0.950 . S
H641 C671 0.950 . S
C642 H624 0.951 . S
C642 C643 1.366 . S
C642 C644 1.388 . S
C643 C642 1.366 . S
C643 C647 1.385 . S
C644 H625 0.951 . S
C644 C642 1.388 . S
C644 C645 1.366 . S
C645 C644 1.366 . S
C645 C646 1.414 . S
C645 C648 1.499 . S
C646 H626 0.950 . S
C646 C645 1.414 . S
C646 C647 1.374 . S
C647 H627 0.950 . S
C647 C643 1.385 . S
C647 C646 1.374 . S
C648 C645 1.499 . S
C648 C649 1.373 . S
C648 C650 1.389 . S
C649 H628 0.950 . S
C649 C648 1.373 . S
C649 C665 1.377 . S
C650 C648 1.389 . S
C650 C651 1.524 . S
C650 C664 1.377 . S
C651 C650 1.524 . S
C651 C652 1.397 . S
C651 C656 1.363 . S
C652 H629 0.950 . S
C652 C651 1.397 . S
C652 C653 1.334 . S
C653 H630 0.950 . S
C653 C652 1.334 . S
C653 C654 1.287 . S
C654 C653 1.287 . S
C654 C655 1.524 . S
C654 H673 0.913 . S
C655 H631 0.950 . S
C655 C654 1.524 . S
C655 C656 1.415 . S
C656 H632 0.950 . S
C656 C651 1.363 . S
C656 C655 1.415 . S
C657 H633 0.951 . S
C657 C658 1.366 . S
C657 C659 1.388 . S
C658 C657 1.366 . S
C658 C662 1.385 . S
C659 H634 0.951 . S
C659 C657 1.388 . S
C659 C660 1.366 . S
C660 C659 1.366 . S
C660 C661 1.414 . S
C660 C663 1.499 . S
C661 H635 0.950 . S
C661 C660 1.414 . S
C661 C662 1.374 . S
C662 H636 0.950 . S
C662 C658 1.385 . S
C662 C661 1.374 . S
C663 C660 1.499 . S
C663 C664 1.373 . S
C663 C665 1.389 . S
C664 H637 0.950 . S
C664 C650 1.377 . S
C664 C663 1.373 . S
C665 C649 1.377 . S
C665 C663 1.389 . S
C665 C666 1.524 . S
C666 C665 1.524 . S
C666 C667 1.397 . S
C666 C671 1.363 . S
C667 H638 0.950 . S
C667 C666 1.397 . S
C667 C668 1.334 . S
C668 H639 0.950 . S
C668 C667 1.334 . S
C668 C669 1.287 . S
C669 C668 1.287 . S
C669 C670 1.524 . S
C669 H672 0.999 . S
C670 H640 0.950 . S
C670 C669 1.524 . S
C670 C671 1.415 . S
C671 H641 0.950 . S
C671 C666 1.363 . S
C671 C670 1.415 . S
H672 C669 0.999 . S
H673 C654 0.913 . S
H674 C692 0.951 . S
H675 C694 0.951 . S
H676 C696 0.950 . S
H677 C697 0.950 . S
H678 C699 0.950 . S
H679 C702 0.950 . S
H680 C703 0.950 . S
H681 C705 0.950 . S
H682 C706 0.950 . S
H683 C707 0.951 . S
H684 C709 0.951 . S
H685 C711 0.950 . S
H686 C712 0.950 . S
H687 C714 0.950 . S
H688 C717 0.950 . S
H689 C718 0.951 . S
H690 C720 0.950 . S
H691 C721 0.950 . S
C692 H674 0.951 . S
C692 C693 1.366 . S
C692 C694 1.388 . S
C693 C692 1.366 . S
C693 C697 1.385 . S
C694 H675 0.951 . S
C694 C692 1.388 . S
C694 C695 1.366 . S
C695 C694 1.366 . S
C695 C696 1.414 . S
C695 C698 1.499 . S
C696 H676 0.950 . S
C696 C695 1.414 . S
C696 C697 1.374 . S
C697 H677 0.950 . S
C697 C693 1.385 . S
C697 C696 1.374 . S
C698 C695 1.499 . S
C698 C699 1.373 . S
C698 C700 1.389 . S
C699 H678 0.950 . S
C699 C698 1.373 . S
C699 C715 1.377 . S
C700 C698 1.389 . S
C700 C701 1.524 . S
C700 C714 1.377 . S
C701 C700 1.524 . S
C701 C702 1.397 . S
C701 C706 1.363 . S
C702 H679 0.950 . S
C702 C701 1.397 . S
C702 C703 1.334 . S
C703 H680 0.950 . S
C703 C702 1.334 . S
C703 C704 1.287 . S
C704 C703 1.287 . S
C704 C705 1.524 . S
C704 H723 0.913 . S
C705 H681 0.950 . S
C705 C704 1.524 . S
C705 C706 1.415 . S
C706 H682 0.950 . S
C706 C701 1.363 . S
C706 C705 1.415 . S
C707 H683 0.951 . S
C707 C708 1.366 . S
C707 C709 1.388 . S
C708 C707 1.366 . S
C708 C712 1.385 . S
C709 H684 0.951 . S
C709 C707 1.388 . S
C709 C710 1.366 . S
C710 C709 1.366 . S
C710 C711 1.414 . S
C710 C713 1.499 . S
C711 H685 0.950 . S
C711 C710 1.414 . S
C711 C712 1.374 . S
C712 H686 0.950 . S
C712 C708 1.385 . S
C712 C711 1.374 . S
C713 C710 1.499 . S
C713 C714 1.373 . S
C713 C715 1.389 . S
C714 H687 0.950 . S
C714 C700 1.377 . S
C714 C713 1.373 . S
C715 C699 1.377 . S
C715 C713 1.389 . S
C715 C716 1.524 . S
C716 C715 1.524 . S
C716 C717 1.397 . S
C716 C721 1.363 . S
C717 H688 0.950 . S
C717 C716 1.397 . S
C717 C718 1.332 1_554 S
C718 H689 0.951 . S
C718 C717 1.332 1_556 S
C718 C719 1.288 . S
C719 C718 1.288 . S
C719 C720 1.524 . S
C719 H722 0.999 . S
C720 H690 0.950 . S
C720 C719 1.524 . S
C720 C721 1.415 1_556 S
C721 H691 0.950 . S
C721 C716 1.363 . S
C721 C720 1.415 1_554 S
H722 C719 0.999 . S
H723 C704 0.913 . S
H724 C742 0.951 . S
H725 C744 0.951 . S
H726 C746 0.950 . S
H727 C747 0.950 . S
H728 C749 0.950 . S
H729 C752 0.950 . S
H730 C753 0.950 1_554 S
H731 C755 0.950 . S
H732 C756 0.950 . S
H733 C757 0.951 . S
H734 C759 0.951 . S
H735 C761 0.950 . S
H736 C762 0.950 . S
H737 C764 0.950 . S
H738 C767 0.950 . S
H739 C768 0.950 . S
H740 C770 0.950 . S
H741 C771 0.950 . S
C742 H724 0.951 . S
C742 C743 1.366 . S
C742 C744 1.388 . S
C743 C742 1.366 . S
C743 C747 1.385 . S
C744 H725 0.951 . S
C744 C742 1.388 . S
C744 C745 1.366 . S
C745 C744 1.366 . S
C745 C746 1.414 . S
C745 C748 1.499 . S
C746 H726 0.950 . S
C746 C745 1.414 . S
C746 C747 1.374 . S
C747 H727 0.950 . S
C747 C743 1.385 . S
C747 C746 1.374 . S
C748 C745 1.499 . S
C748 C749 1.373 . S
C748 C750 1.389 . S
C749 H728 0.950 . S
C749 C748 1.373 . S
C749 C765 1.377 . S
C750 C748 1.389 . S
C750 C751 1.524 . S
C750 C764 1.377 . S
C751 C750 1.524 . S
C751 C752 1.397 . S
C751 C756 1.363 . S
C752 H729 0.950 . S
C752 C751 1.397 . S
C752 C753 1.334 . S
C753 H730 0.950 1_556 S
C753 C752 1.334 . S
C753 C754 1.287 1_556 S
C754 C753 1.287 1_554 S
C754 C755 1.524 1_554 S
C754 H773 0.913 . S
C755 H731 0.950 . S
C755 C754 1.524 1_556 S
C755 C756 1.415 . S
C756 H732 0.950 . S
C756 C751 1.363 . S
C756 C755 1.415 . S
C757 H733 0.951 . S
C757 C758 1.366 . S
C757 C759 1.388 . S
C758 C757 1.366 . S
C758 C762 1.385 . S
C759 H734 0.951 . S
C759 C757 1.388 . S
C759 C760 1.366 . S
C760 C759 1.366 . S
C760 C761 1.414 . S
C760 C763 1.499 . S
C761 H735 0.950 . S
C761 C760 1.414 . S
C761 C762 1.374 . S
C762 H736 0.950 . S
C762 C758 1.385 . S
C762 C761 1.374 . S
C763 C760 1.499 . S
C763 C764 1.373 . S
C763 C765 1.389 . S
C764 H737 0.950 . S
C764 C750 1.377 . S
C764 C763 1.373 . S
C765 C749 1.377 . S
C765 C763 1.389 . S
C765 C766 1.524 . S
C766 C765 1.524 . S
C766 C767 1.397 . S
C766 C771 1.363 . S
C767 H738 0.950 . S
C767 C766 1.397 . S
C767 C768 1.334 . S
C768 H739 0.950 . S
C768 C767 1.334 . S
C768 C769 1.287 . S
C769 C768 1.287 . S
C769 C770 1.524 . S
C769 H772 0.999 . S
C770 H740 0.950 . S
C770 C769 1.524 . S
C770 C771 1.415 . S
C771 H741 0.950 . S
C771 C766 1.363 . S
C771 C770 1.415 . S
H772 C769 0.999 . S
H773 C754 0.913 . S
H774 C792 0.951 . S
H775 C794 0.951 . S
H776 C796 0.950 . S
H777 C797 0.950 . S
H778 C799 0.950 . S
H779 C802 0.950 . S
H780 C803 0.950 . S
H781 C805 0.950 . S
H782 C806 0.950 . S
H783 C807 0.951 . S
H784 C809 0.951 . S
H785 C811 0.950 . S
H786 C812 0.950 . S
H787 C814 0.950 . S
H788 C817 0.950 . S
H789 C818 0.950 1_556 S
H790 C820 0.950 . S
H791 C821 0.950 . S
C792 H774 0.951 . S
C792 C793 1.366 . S
C792 C794 1.388 . S
C793 C792 1.366 . S
C793 C797 1.385 . S
C794 H775 0.951 . S
C794 C792 1.388 . S
C794 C795 1.366 . S
C795 C794 1.366 . S
C795 C796 1.414 . S
C795 C798 1.499 . S
C796 H776 0.950 . S
C796 C795 1.414 . S
C796 C797 1.374 . S
C797 H777 0.950 . S
C797 C793 1.385 . S
C797 C796 1.374 . S
C798 C795 1.499 . S
C798 C799 1.373 . S
C798 C800 1.389 . S
C799 H778 0.950 . S
C799 C798 1.373 . S
C799 C815 1.377 . S
C800 C798 1.389 . S
C800 C801 1.524 . S
C800 C814 1.377 . S
C801 C800 1.524 . S
C801 C802 1.397 . S
C801 C806 1.363 . S
C802 H779 0.950 . S
C802 C801 1.397 . S
C802 C803 1.334 . S
C803 H780 0.950 . S
C803 C802 1.334 . S
C803 C804 1.287 . S
C804 C803 1.287 . S
C804 C805 1.524 . S
C804 H823 0.913 . S
C805 H781 0.950 . S
C805 C804 1.524 . S
C805 C806 1.415 . S
C806 H782 0.950 . S
C806 C801 1.363 . S
C806 C805 1.415 . S
C807 H783 0.951 . S
C807 C808 1.366 . S
C807 C809 1.388 . S
C808 C807 1.366 . S
C808 C812 1.385 . S
C809 H784 0.951 . S
C809 C807 1.388 . S
C809 C810 1.366 . S
C810 C809 1.366 . S
C810 C811 1.414 . S
C810 C813 1.499 . S
C811 H785 0.950 . S
C811 C810 1.414 . S
C811 C812 1.374 . S
C812 H786 0.950 . S
C812 C808 1.385 . S
C812 C811 1.374 . S
C813 C810 1.499 . S
C813 C814 1.373 . S
C813 C815 1.389 . S
C814 H787 0.950 . S
C814 C800 1.377 . S
C814 C813 1.373 . S
C815 C799 1.377 . S
C815 C813 1.389 . S
C815 C816 1.524 . S
C816 C815 1.524 . S
C816 C817 1.397 . S
C816 C821 1.363 . S
C817 H788 0.950 . S
C817 C816 1.397 . S
C817 C818 1.334 . S
C818 H789 0.950 1_554 S
C818 C817 1.334 . S
C818 C819 1.287 1_554 S
C819 C818 1.287 1_556 S
C819 C820 1.524 . S
C819 H822 0.999 . S
C820 H790 0.950 . S
C820 C819 1.524 . S
C820 C821 1.415 1_556 S
C821 H791 0.950 . S
C821 C816 1.363 . S
C821 C820 1.415 1_554 S
H822 C819 0.999 . S
H823 C804 0.913 . S
H824 C842 0.951 . S
H825 C844 0.951 . S
H826 C846 0.950 . S
H827 C847 0.950 . S
H828 C849 0.950 . S
H829 C852 0.950 . S
H830 C853 0.950 . S
H831 C855 0.938 1_545 S
H832 C856 0.950 . S
H833 C857 0.951 . S
H834 C859 0.951 . S
H835 C861 0.950 . S
H836 C862 0.950 . S
H837 C864 0.950 . S
H838 C867 0.950 . S
H839 C868 0.950 . S
H840 C870 0.950 . S
H841 C871 0.940 1_565 S
C842 H824 0.951 . S
C842 C843 1.366 . S
C842 C844 1.388 . S
C843 C842 1.366 . S
C843 C847 1.385 . S
C844 H825 0.951 . S
C844 C842 1.388 . S
C844 C845 1.366 . S
C845 C844 1.366 . S
C845 C846 1.414 . S
C845 C848 1.499 . S
C846 H826 0.950 . S
C846 C845 1.414 . S
C846 C847 1.374 . S
C847 H827 0.950 . S
C847 C843 1.385 . S
C847 C846 1.374 . S
C848 C845 1.499 . S
C848 C849 1.373 . S
C848 C850 1.429 . S
C849 H828 0.950 . S
C849 C848 1.373 . S
C849 C865 1.377 1_565 S
C850 C848 1.429 . S
C850 C851 1.535 . S
C850 C864 1.324 1_565 S
C851 C850 1.535 . S
C851 C852 1.397 . S
C851 C856 1.363 1_565 S
C852 H829 0.950 . S
C852 C851 1.397 . S
C852 C853 1.334 . S
C853 H830 0.950 . S
C853 C852 1.334 . S
C853 C854 1.287 . S
C854 C853 1.287 . S
C854 C855 1.546 . S
C854 H873 0.913 . S
C855 H831 0.938 1_565 S
C855 C854 1.546 . S
C855 C856 1.409 1_565 S
C856 H832 0.950 . S
C856 C851 1.363 1_545 S
C856 C855 1.409 1_545 S
C857 H833 0.951 . S
C857 C858 1.366 . S
C857 C859 1.388 . S
C858 C857 1.366 . S
C858 C862 1.385 . S
C859 H834 0.951 . S
C859 C857 1.388 . S
C859 C860 1.366 . S
C860 C859 1.366 . S
C860 C861 1.414 . S
C860 C863 1.499 . S
C861 H835 0.950 . S
C861 C860 1.414 . S
C861 C862 1.374 . S
C862 H836 0.950 . S
C862 C858 1.385 . S
C862 C861 1.374 . S
C863 C860 1.499 . S
C863 C864 1.373 . S
C863 C865 1.389 . S
C864 H837 0.950 . S
C864 C850 1.324 1_545 S
C864 C863 1.373 . S
C865 C849 1.377 1_545 S
C865 C863 1.389 . S
C865 C866 1.524 . S
C866 C865 1.524 . S
C866 C867 1.397 . S
C866 C871 1.363 . S
C867 H838 0.950 . S
C867 C866 1.397 . S
C867 C868 1.334 . S
C868 H839 0.950 . S
C868 C867 1.334 . S
C868 C869 1.287 . S
C869 C868 1.287 . S
C869 C870 1.524 . S
C869 H872 0.999 . S
C870 H840 0.950 . S
C870 C869 1.524 . S
C870 C871 1.415 . S
C871 H841 0.940 1_545 S
C871 C866 1.363 . S
C871 C870 1.415 . S
H872 C869 0.999 . S
H873 C854 0.913 . S
H874 C892 0.951 . S
H875 C894 0.951 . S
H876 C896 0.950 . S
H877 C897 0.950 . S
H878 C899 0.950 . S
H879 C902 0.950 . S
H880 C903 0.950 . S
H881 C905 0.950 . S
H882 C906 0.950 . S
H883 C907 0.951 . S
H884 C909 0.951 . S
H885 C911 0.950 . S
H886 C912 0.950 . S
H887 C914 0.950 . S
H888 C917 0.950 . S
H889 C918 0.950 . S
H890 C920 0.950 . S
H891 C921 0.950 . S
C892 H874 0.951 . S
C892 C893 1.366 . S
C892 C894 1.388 . S
C893 C892 1.366 . S
C893 C897 1.385 . S
C894 H875 0.951 . S
C894 C892 1.388 . S
C894 C895 1.366 . S
C895 C894 1.366 . S
C895 C896 1.414 . S
C895 C898 1.499 . S
C896 H876 0.950 . S
C896 C895 1.414 . S
C896 C897 1.374 . S
C897 H877 0.950 . S
C897 C893 1.385 . S
C897 C896 1.374 . S
C898 C895 1.499 . S
C898 C899 1.373 . S
C898 C900 1.389 . S
C899 H878 0.950 . S
C899 C898 1.373 . S
C899 C915 1.377 1_655 S
C900 C898 1.389 . S
C900 C901 1.524 . S
C900 C914 1.377 1_655 S
C901 C900 1.524 . S
C901 C902 1.397 . S
C901 C906 1.363 . S
C902 H879 0.950 . S
C902 C901 1.397 . S
C902 C903 1.334 . S
C903 H880 0.950 . S
C903 C902 1.334 . S
C903 C904 1.287 . S
C904 C903 1.287 . S
C904 C905 1.524 . S
C904 H923 0.913 . S
C905 H881 0.950 . S
C905 C904 1.524 . S
C905 C906 1.415 . S
C906 H882 0.950 . S
C906 C901 1.363 . S
C906 C905 1.415 . S
C907 H883 0.951 . S
C907 C908 1.366 . S
C907 C909 1.388 . S
C908 C907 1.366 . S
C908 C912 1.385 . S
C909 H884 0.951 . S
C909 C907 1.388 . S
C909 C910 1.366 . S
C910 C909 1.366 . S
C910 C911 1.414 . S
C910 C913 1.499 . S
C911 H885 0.950 . S
C911 C910 1.414 . S
C911 C912 1.374 . S
C912 H886 0.950 . S
C912 C908 1.385 . S
C912 C911 1.374 . S
C913 C910 1.499 . S
C913 C914 1.373 . S
C913 C915 1.389 . S
C914 H887 0.950 . S
C914 C900 1.377 1_455 S
C914 C913 1.373 . S
C915 C899 1.377 1_455 S
C915 C913 1.389 . S
C915 C916 1.524 . S
C916 C915 1.524 . S
C916 C917 1.397 . S
C916 C921 1.363 . S
C917 H888 0.950 . S
C917 C916 1.397 . S
C917 C918 1.334 . S
C918 H889 0.950 . S
C918 C917 1.334 . S
C918 C919 1.287 . S
C919 C918 1.287 . S
C919 C920 1.524 . S
C919 H922 0.999 . S
C920 H890 0.950 . S
C920 C919 1.524 . S
C920 C921 1.415 . S
C921 H891 0.950 . S
C921 C916 1.363 . S
C921 C920 1.415 . S
H922 C919 0.999 . S
H923 C904 0.913 . S
H924 C942 0.951 . S
H925 C944 0.951 . S
H926 C946 0.950 . S
H927 C947 0.950 . S
H928 C949 0.950 . S
H929 C952 0.950 . S
H930 C953 0.950 . S
H931 C955 0.950 . S
H932 C956 0.950 . S
H933 C957 0.951 . S
H934 C959 0.951 . S
H935 C961 0.950 . S
H936 C962 0.950 . S
H937 C964 0.950 . S
H938 C967 0.950 . S
H939 C968 0.950 . S
H940 C970 0.950 . S
H941 C971 0.950 . S
C942 H924 0.951 . S
C942 C943 1.366 . S
C942 C944 1.388 . S
C943 C942 1.366 . S
C943 C947 1.385 . S
C944 H925 0.951 . S
C944 C942 1.388 . S
C944 C945 1.366 . S
C945 C944 1.366 . S
C945 C946 1.414 . S
C945 C948 1.499 . S
C946 H926 0.950 . S
C946 C945 1.414 . S
C946 C947 1.374 . S
C947 H927 0.950 . S
C947 C943 1.385 . S
C947 C946 1.374 . S
C948 C945 1.499 . S
C948 C949 1.373 . S
C948 C950 1.389 . S
C949 H928 0.950 . S
C949 C948 1.373 . S
C949 C965 1.377 1_565 S
C950 C948 1.389 . S
C950 C951 1.524 . S
C950 C964 1.377 1_565 S
C951 C950 1.524 . S
C951 C952 1.397 . S
C951 C956 1.363 . S
C952 H929 0.950 . S
C952 C951 1.397 . S
C952 C953 1.334 . S
C953 H930 0.950 . S
C953 C952 1.334 . S
C953 C954 1.287 . S
C954 C953 1.287 . S
C954 C955 1.524 . S
C954 H973 0.913 . S
C955 H931 0.950 . S
C955 C954 1.524 . S
C955 C956 1.415 . S
C956 H932 0.950 . S
C956 C951 1.363 . S
C956 C955 1.415 . S
C957 H933 0.951 . S
C957 C958 1.366 . S
C957 C959 1.388 . S
C958 C957 1.366 . S
C958 C962 1.385 . S
C959 H934 0.951 . S
C959 C957 1.388 . S
C959 C960 1.366 . S
C960 C959 1.366 . S
C960 C961 1.414 . S
C960 C963 1.499 . S
C961 H935 0.950 . S
C961 C960 1.414 . S
C961 C962 1.374 . S
C962 H936 0.950 . S
C962 C958 1.385 . S
C962 C961 1.374 . S
C963 C960 1.499 . S
C963 C964 1.373 . S
C963 C965 1.389 . S
C964 H937 0.950 . S
C964 C950 1.377 1_545 S
C964 C963 1.373 . S
C965 C949 1.377 1_545 S
C965 C963 1.389 . S
C965 C966 1.524 . S
C966 C965 1.524 . S
C966 C967 1.397 . S
C966 C971 1.363 . S
C967 H938 0.950 . S
C967 C966 1.397 . S
C967 C968 1.334 . S
C968 H939 0.950 . S
C968 C967 1.334 . S
C968 C969 1.287 . S
C969 C968 1.287 . S
C969 C970 1.524 . S
C969 H972 0.999 . S
C970 H940 0.950 . S
C970 C969 1.524 . S
C970 C971 1.415 . S
C971 H941 0.950 . S
C971 C966 1.363 . S
C971 C970 1.415 . S
H972 C969 0.999 . S
H973 C954 0.913 . S
H974 C992 0.951 . S
H975 C994 0.951 . S
H976 C996 0.950 . S
H977 C997 0.950 . S
H978 C999 0.950 . S
H979 C1002 0.950 . S
H980 C1003 0.950 . S
H981 C1005 0.950 . S
H982 C1006 0.950 . S
H983 C1007 0.951 . S
H984 C1009 0.951 . S
H985 C1011 0.950 . S
H986 C1012 0.950 . S
H987 C1014 0.950 . S
H988 C1017 0.950 . S
H989 C1018 0.950 . S
H990 C1020 0.950 . S
H991 C1021 0.950 . S
C992 H974 0.951 . S
C992 C993 1.366 . S
C992 C994 1.388 . S
C993 C992 1.366 . S
C993 C997 1.385 . S
C994 H975 0.951 . S
C994 C992 1.388 . S
C994 C995 1.366 . S
C995 C994 1.366 . S
C995 C996 1.414 . S
C995 C998 1.499 . S
C996 H976 0.950 . S
C996 C995 1.414 . S
C996 C997 1.374 . S
C997 H977 0.950 . S
C997 C993 1.385 . S
C997 C996 1.374 . S
C998 C995 1.499 . S
C998 C999 1.373 . S
C998 C1000 1.389 . S
C999 H978 0.950 . S
C999 C998 1.373 . S
C999 C1015 1.377 1_655 S
C1000 C998 1.389 . S
C1000 C1001 1.524 . S
C1000 C1014 1.377 1_655 S
C1001 C1000 1.524 . S
C1001 C1002 1.397 . S
C1001 C1006 1.363 . S
C1002 H979 0.950 . S
C1002 C1001 1.397 . S
C1002 C1003 1.334 . S
C1003 H980 0.950 . S
C1003 C1002 1.334 . S
C1003 C1004 1.287 . S
C1004 C1003 1.287 . S
C1004 C1005 1.524 . S
C1004 H1023 0.913 . S
C1005 H981 0.950 . S
C1005 C1004 1.524 . S
C1005 C1006 1.415 . S
C1006 H982 0.950 . S
C1006 C1001 1.363 . S
C1006 C1005 1.415 . S
C1007 H983 0.951 . S
C1007 C1008 1.366 . S
C1007 C1009 1.388 . S
C1008 C1007 1.366 . S
C1008 C1012 1.385 . S
C1009 H984 0.951 . S
C1009 C1007 1.388 . S
C1009 C1010 1.366 . S
C1010 C1009 1.366 . S
C1010 C1011 1.414 . S
C1010 C1013 1.499 . S
C1011 H985 0.950 . S
C1011 C1010 1.414 . S
C1011 C1012 1.374 . S
C1012 H986 0.950 . S
C1012 C1008 1.385 . S
C1012 C1011 1.374 . S
C1013 C1010 1.499 . S
C1013 C1014 1.373 . S
C1013 C1015 1.389 . S
C1014 H987 0.950 . S
C1014 C1000 1.377 1_455 S
C1014 C1013 1.373 . S
C1015 C999 1.377 1_455 S
C1015 C1013 1.389 . S
C1015 C1016 1.524 . S
C1016 C1015 1.524 . S
C1016 C1017 1.397 . S
C1016 C1021 1.363 . S
C1017 H988 0.950 . S
C1017 C1016 1.397 . S
C1017 C1018 1.334 . S
C1018 H989 0.950 . S
C1018 C1017 1.334 . S
C1018 C1019 1.287 . S
C1019 C1018 1.287 . S
C1019 C1020 1.524 . S
C1019 H1022 0.999 . S
C1020 H990 0.950 . S
C1020 C1019 1.524 . S
C1020 C1021 1.415 . S
C1021 H991 0.950 . S
C1021 C1016 1.363 . S
C1021 C1020 1.415 . S
H1022 C1019 0.999 . S
H1023 C1004 0.913 . S
H1024 C1042 0.951 1_556 S
H1025 C1044 0.951 . S
H1026 C1046 0.950 . S
H1027 C1047 0.950 . S
H1028 C1049 0.950 . S
H1029 C1052 0.950 . S
H1030 C1053 0.950 . S
H1031 C1055 0.950 . S
H1032 C1056 0.950 . S
H1033 C1057 0.951 . S
H1034 C1059 0.951 . S
H1035 C1061 0.950 . S
H1036 C1062 0.950 . S
H1037 C1064 0.950 . S
H1038 C1067 0.950 . S
H1039 C1068 0.950 . S
H1040 C1070 0.950 . S
H1041 C1071 0.950 . S
C1042 H1024 0.951 1_554 S
C1042 C1043 1.366 . S
C1042 C1044 1.388 . S
C1043 C1042 1.366 . S
C1043 C1047 1.385 . S
C1044 H1025 0.951 . S
C1044 C1042 1.388 . S
C1044 C1045 1.366 . S
C1045 C1044 1.366 . S
C1045 C1046 1.414 . S
C1045 C1048 1.499 . S
C1046 H1026 0.950 . S
C1046 C1045 1.414 . S
C1046 C1047 1.374 . S
C1047 H1027 0.950 . S
C1047 C1043 1.385 . S
C1047 C1046 1.374 . S
C1048 C1045 1.499 . S
C1048 C1049 1.373 . S
C1048 C1050 1.389 . S
C1049 H1028 0.950 . S
C1049 C1048 1.373 . S
C1049 C1065 1.377 . S
C1050 C1048 1.389 . S
C1050 C1051 1.524 . S
C1050 C1064 1.377 . S
C1051 C1050 1.524 . S
C1051 C1052 1.397 . S
C1051 C1056 1.363 1_554 S
C1052 H1029 0.950 . S
C1052 C1051 1.397 . S
C1052 C1053 1.334 . S
C1053 H1030 0.950 . S
C1053 C1052 1.334 . S
C1053 C1054 1.287 1_554 S
C1054 C1053 1.287 1_556 S
C1054 C1055 1.524 . S
C1054 H1073 0.913 . S
C1055 H1031 0.950 . S
C1055 C1054 1.524 . S
C1055 C1056 1.415 . S
C1056 H1032 0.950 . S
C1056 C1051 1.363 1_556 S
C1056 C1055 1.415 . S
C1057 H1033 0.951 . S
C1057 C1058 1.366 . S
C1057 C1059 1.388 . S
C1058 C1057 1.366 . S
C1058 C1062 1.385 . S
C1059 H1034 0.951 . S
C1059 C1057 1.388 . S
C1059 C1060 1.366 . S
C1060 C1059 1.366 . S
C1060 C1061 1.414 . S
C1060 C1063 1.499 . S
C1061 H1035 0.950 . S
C1061 C1060 1.414 . S
C1061 C1062 1.374 . S
C1062 H1036 0.950 . S
C1062 C1058 1.385 . S
C1062 C1061 1.374 . S
C1063 C1060 1.499 . S
C1063 C1064 1.373 . S
C1063 C1065 1.389 . S
C1064 H1037 0.950 . S
C1064 C1050 1.377 . S
C1064 C1063 1.373 . S
C1065 C1049 1.377 . S
C1065 C1063 1.389 . S
C1065 C1066 1.524 . S
C1066 C1065 1.524 . S
C1066 C1067 1.397 . S
C1066 C1071 1.363 . S
C1067 H1038 0.950 . S
C1067 C1066 1.397 . S
C1067 C1068 1.334 . S
C1068 H1039 0.950 . S
C1068 C1067 1.334 . S
C1068 C1069 1.287 . S
C1069 C1068 1.287 . S
C1069 C1070 1.524 . S
C1069 H1072 0.999 . S
C1070 H1040 0.950 . S
C1070 C1069 1.524 . S
C1070 C1071 1.415 . S
C1071 H1041 0.950 . S
C1071 C1066 1.363 . S
C1071 C1070 1.415 . S
H1072 C1069 0.999 . S
H1073 C1054 0.913 . S
H1074 C1092 0.951 . S
H1075 C1094 0.951 . S
H1076 C1096 0.950 . S
H1077 C1097 0.950 . S
H1078 C1099 0.950 . S
H1079 C1102 0.950 . S
H1080 C1103 0.950 . S
H1081 C1105 0.950 . S
H1082 C1106 0.950 . S
H1083 C1107 0.951 1_554 S
H1084 C1109 0.951 . S
H1085 C1111 0.950 . S
H1086 C1112 0.950 . S
H1087 C1114 0.950 . S
H1088 C1117 0.950 . S
H1089 C1118 0.950 . S
H1090 C1120 0.950 1_554 S
H1091 C1121 0.950 . S
C1092 H1074 0.951 . S
C1092 C1093 1.366 . S
C1092 C1094 1.388 . S
C1093 C1092 1.366 . S
C1093 C1097 1.385 . S
C1094 H1075 0.951 . S
C1094 C1092 1.388 . S
C1094 C1095 1.366 . S
C1095 C1094 1.366 . S
C1095 C1096 1.414 . S
C1095 C1098 1.499 . S
C1096 H1076 0.950 . S
C1096 C1095 1.414 . S
C1096 C1097 1.374 . S
C1097 H1077 0.950 . S
C1097 C1093 1.385 . S
C1097 C1096 1.374 . S
C1098 C1095 1.499 . S
C1098 C1099 1.373 . S
C1098 C1100 1.389 . S
C1099 H1078 0.950 . S
C1099 C1098 1.373 . S
C1099 C1115 1.377 . S
C1100 C1098 1.389 . S
C1100 C1101 1.524 . S
C1100 C1114 1.377 . S
C1101 C1100 1.524 . S
C1101 C1102 1.397 . S
C1101 C1106 1.363 . S
C1102 H1079 0.950 . S
C1102 C1101 1.397 . S
C1102 C1103 1.334 . S
C1103 H1080 0.950 . S
C1103 C1102 1.334 . S
C1103 C1104 1.287 . S
C1104 C1103 1.287 . S
C1104 C1105 1.524 . S
C1104 H1123 0.913 . S
C1105 H1081 0.950 . S
C1105 C1104 1.524 . S
C1105 C1106 1.415 . S
C1106 H1082 0.950 . S
C1106 C1101 1.363 . S
C1106 C1105 1.415 . S
C1107 H1083 0.951 1_556 S
C1107 C1108 1.366 . S
C1107 C1109 1.388 . S
C1108 C1107 1.366 . S
C1108 C1112 1.385 . S
C1109 H1084 0.951 . S
C1109 C1107 1.388 . S
C1109 C1110 1.366 . S
C1110 C1109 1.366 . S
C1110 C1111 1.414 . S
C1110 C1113 1.499 . S
C1111 H1085 0.950 . S
C1111 C1110 1.414 . S
C1111 C1112 1.374 . S
C1112 H1086 0.950 . S
C1112 C1108 1.385 . S
C1112 C1111 1.374 . S
C1113 C1110 1.499 . S
C1113 C1114 1.373 . S
C1113 C1115 1.389 . S
C1114 H1087 0.950 . S
C1114 C1100 1.377 . S
C1114 C1113 1.373 . S
C1115 C1099 1.377 . S
C1115 C1113 1.389 . S
C1115 C1116 1.524 . S
C1116 C1115 1.524 . S
C1116 C1117 1.397 . S
C1116 C1121 1.363 . S
C1117 H1088 0.950 . S
C1117 C1116 1.397 . S
C1117 C1118 1.334 . S
C1118 H1089 0.950 . S
C1118 C1117 1.334 . S
C1118 C1119 1.287 . S
C1119 C1118 1.287 . S
C1119 C1120 1.524 . S
C1119 H1122 0.999 . S
C1120 H1090 0.950 1_556 S
C1120 C1119 1.524 . S
C1120 C1121 1.415 . S
C1121 H1091 0.950 . S
C1121 C1116 1.363 . S
C1121 C1120 1.415 . S
H1122 C1119 0.999 . S
H1123 C1104 0.913 . S
H1124 C1142 0.951 . S
H1125 C1144 0.951 . S
H1126 C1146 0.950 . S
H1127 C1147 0.950 . S
H1128 C1149 0.950 . S
H1129 C1152 0.950 . S
H1130 C1153 0.950 . S
H1131 C1155 0.950 . S
H1132 C1156 0.950 . S
H1133 C1157 0.951 . S
H1134 C1159 0.951 . S
H1135 C1161 0.950 . S
H1136 C1162 0.950 . S
H1137 C1164 0.950 . S
H1138 C1167 0.950 . S
H1139 C1168 0.950 . S
H1140 C1170 0.950 . S
H1141 C1171 0.950 . S
C1142 H1124 0.951 . S
C1142 C1143 1.366 . S
C1142 C1144 1.388 . S
C1143 C1142 1.366 . S
C1143 C1147 1.385 . S
C1144 H1125 0.951 . S
C1144 C1142 1.388 . S
C1144 C1145 1.366 . S
C1145 C1144 1.366 . S
C1145 C1146 1.414 . S
C1145 C1148 1.499 . S
C1146 H1126 0.950 . S
C1146 C1145 1.414 . S
C1146 C1147 1.374 . S
C1147 H1127 0.950 . S
C1147 C1143 1.385 . S
C1147 C1146 1.374 . S
C1148 C1145 1.499 . S
C1148 C1149 1.373 . S
C1148 C1150 1.389 . S
C1149 H1128 0.950 . S
C1149 C1148 1.373 . S
C1149 C1165 1.377 . S
C1150 C1148 1.389 . S
C1150 C1151 1.524 . S
C1150 C1164 1.377 . S
C1151 C1150 1.524 . S
C1151 C1152 1.397 . S
C1151 C1156 1.363 . S
C1152 H1129 0.950 . S
C1152 C1151 1.397 . S
C1152 C1153 1.334 1_554 S
C1153 H1130 0.950 . S
C1153 C1152 1.334 1_556 S
C1153 C1154 1.287 . S
C1154 C1153 1.287 . S
C1154 C1155 1.524 . S
C1154 H1173 0.913 . S
C1155 H1131 0.950 . S
C1155 C1154 1.524 . S
C1155 C1156 1.415 1_556 S
C1156 H1132 0.950 . S
C1156 C1151 1.363 . S
C1156 C1155 1.415 1_554 S
C1157 H1133 0.951 . S
C1157 C1158 1.366 . S
C1157 C1159 1.388 . S
C1158 C1157 1.366 . S
C1158 C1162 1.385 . S
C1159 H1134 0.951 . S
C1159 C1157 1.388 . S
C1159 C1160 1.366 . S
C1160 C1159 1.366 . S
C1160 C1161 1.414 . S
C1160 C1163 1.499 . S
C1161 H1135 0.950 . S
C1161 C1160 1.414 . S
C1161 C1162 1.374 . S
C1162 H1136 0.950 . S
C1162 C1158 1.385 . S
C1162 C1161 1.374 . S
C1163 C1160 1.499 . S
C1163 C1164 1.373 . S
C1163 C1165 1.389 . S
C1164 H1137 0.950 . S
C1164 C1150 1.377 . S
C1164 C1163 1.373 . S
C1165 C1149 1.377 . S
C1165 C1163 1.389 . S
C1165 C1166 1.524 . S
C1166 C1165 1.524 . S
C1166 C1167 1.397 . S
C1166 C1171 1.363 . S
C1167 H1138 0.950 . S
C1167 C1166 1.397 . S
C1167 C1168 1.334 . S
C1168 H1139 0.950 . S
C1168 C1167 1.334 . S
C1168 C1169 1.287 . S
C1169 C1168 1.287 . S
C1169 C1170 1.524 . S
C1169 H1172 0.999 . S
C1170 H1140 0.950 . S
C1170 C1169 1.524 . S
C1170 C1171 1.415 . S
C1171 H1141 0.950 . S
C1171 C1166 1.363 . S
C1171 C1170 1.415 . S
H1172 C1169 0.999 . S
H1173 C1154 0.913 . S
H1174 C1192 0.951 1_554 S
H1175 C1194 0.951 . S
H1176 C1196 0.950 . S
H1177 C1197 0.950 . S
H1178 C1199 0.950 . S
H1179 C1202 0.950 . S
H1180 C1203 0.950 . S
H1181 C1205 0.950 . S
H1182 C1206 0.950 1_554 S
H1183 C1207 0.951 . S
H1184 C1209 0.951 . S
H1185 C1211 0.950 . S
H1186 C1212 0.950 . S
H1187 C1214 0.950 . S
H1188 C1217 0.950 . S
H1189 C1218 0.950 . S
H1190 C1220 0.950 . S
H1191 C1221 0.950 . S
C1192 H1174 0.951 1_556 S
C1192 C1193 1.366 . S
C1192 C1194 1.388 . S
C1193 C1192 1.366 . S
C1193 C1197 1.385 . S
C1194 H1175 0.951 . S
C1194 C1192 1.388 . S
C1194 C1195 1.366 . S
C1195 C1194 1.366 . S
C1195 C1196 1.414 . S
C1195 C1198 1.499 . S
C1196 H1176 0.950 . S
C1196 C1195 1.414 . S
C1196 C1197 1.374 . S
C1197 H1177 0.950 . S
C1197 C1193 1.385 . S
C1197 C1196 1.374 . S
C1198 C1195 1.499 . S
C1198 C1199 1.373 . S
C1198 C1200 1.389 . S
C1199 H1178 0.950 . S
C1199 C1198 1.373 . S
C1199 C1215 1.377 . S
C1200 C1198 1.389 . S
C1200 C1201 1.524 . S
C1200 C1214 1.377 . S
C1201 C1200 1.524 . S
C1201 C1202 1.397 . S
C1201 C1206 1.363 . S
C1202 H1179 0.950 . S
C1202 C1201 1.397 . S
C1202 C1203 1.334 . S
C1203 H1180 0.950 . S
C1203 C1202 1.334 . S
C1203 C1204 1.287 . S
C1204 C1203 1.287 . S
C1204 C1205 1.524 1_556 S
C1204 H1223 0.913 1_556 S
C1205 H1181 0.950 . S
C1205 C1204 1.524 1_554 S
C1205 C1206 1.415 1_554 S
C1206 H1182 0.950 1_556 S
C1206 C1201 1.363 . S
C1206 C1205 1.415 1_556 S
C1207 H1183 0.951 . S
C1207 C1208 1.366 . S
C1207 C1209 1.388 . S
C1208 C1207 1.366 . S
C1208 C1212 1.385 . S
C1209 H1184 0.951 . S
C1209 C1207 1.388 . S
C1209 C1210 1.366 . S
C1210 C1209 1.366 . S
C1210 C1211 1.414 . S
C1210 C1213 1.499 . S
C1211 H1185 0.950 . S
C1211 C1210 1.414 . S
C1211 C1212 1.374 . S
C1212 H1186 0.950 . S
C1212 C1208 1.385 . S
C1212 C1211 1.374 . S
C1213 C1210 1.499 . S
C1213 C1214 1.373 . S
C1213 C1215 1.389 . S
C1214 H1187 0.950 . S
C1214 C1200 1.377 . S
C1214 C1213 1.373 . S
C1215 C1199 1.377 . S
C1215 C1213 1.389 . S
C1215 C1216 1.524 . S
C1216 C1215 1.524 . S
C1216 C1217 1.397 . S
C1216 C1221 1.363 . S
C1217 H1188 0.950 . S
C1217 C1216 1.397 . S
C1217 C1218 1.334 . S
C1218 H1189 0.950 . S
C1218 C1217 1.334 . S
C1218 C1219 1.287 . S
C1219 C1218 1.287 . S
C1219 C1220 1.524 . S
C1219 H1222 0.999 . S
C1220 H1190 0.950 . S
C1220 C1219 1.524 . S
C1220 C1221 1.415 . S
C1221 H1191 0.950 . S
C1221 C1216 1.363 . S
C1221 C1220 1.415 . S
H1222 C1219 0.999 . S
H1223 C1204 0.913 1_554 S
H1224 C1242 0.951 . S
H1225 C1244 0.951 . S
H1226 C1246 0.950 . S
H1227 C1247 0.950 . S
H1228 C1249 0.950 . S
H1229 C1252 0.950 . S
H1230 C1253 0.950 . S
H1231 C1255 0.950 . S
H1232 C1256 0.950 . S
H1233 C1257 0.951 . S
H1234 C1259 0.951 . S
H1235 C1261 0.950 . S
H1236 C1262 0.950 . S
H1237 C1264 0.950 . S
H1238 C1267 0.950 . S
H1239 C1268 0.950 . S
H1240 C1270 0.950 . S
H1241 C1271 0.950 . S
C1242 H1224 0.951 . S
C1242 C1243 1.366 . S
C1242 C1244 1.388 . S
C1243 C1242 1.366 . S
C1243 C1247 1.385 . S
C1244 H1225 0.951 . S
C1244 C1242 1.388 . S
C1244 C1245 1.366 . S
C1245 C1244 1.366 . S
C1245 C1246 1.414 . S
C1245 C1248 1.499 . S
C1246 H1226 0.950 . S
C1246 C1245 1.414 . S
C1246 C1247 1.374 . S
C1247 H1227 0.950 . S
C1247 C1243 1.385 . S
C1247 C1246 1.374 . S
C1248 C1245 1.499 . S
C1248 C1249 1.373 . S
C1248 C1250 1.389 . S
C1249 H1228 0.950 . S
C1249 C1248 1.373 . S
C1249 C1265 1.377 . S
C1250 C1248 1.389 . S
C1250 C1251 1.524 . S
C1250 C1264 1.377 . S
C1251 C1250 1.524 . S
C1251 C1252 1.397 . S
C1251 C1256 1.363 . S
C1252 H1229 0.950 . S
C1252 C1251 1.397 . S
C1252 C1253 1.334 . S
C1253 H1230 0.950 . S
C1253 C1252 1.334 . S
C1253 C1254 1.287 . S
C1254 C1253 1.287 . S
C1254 C1255 1.524 . S
C1254 H1273 0.913 . S
C1255 H1231 0.950 . S
C1255 C1254 1.524 . S
C1255 C1256 1.415 . S
C1256 H1232 0.950 . S
C1256 C1251 1.363 . S
C1256 C1255 1.415 . S
C1257 H1233 0.951 . S
C1257 C1258 1.366 . S
C1257 C1259 1.388 . S
C1258 C1257 1.366 . S
C1258 C1262 1.385 . S
C1259 H1234 0.951 . S
C1259 C1257 1.388 . S
C1259 C1260 1.366 . S
C1260 C1259 1.366 . S
C1260 C1261 1.414 . S
C1260 C1263 1.499 . S
C1261 H1235 0.950 . S
C1261 C1260 1.414 . S
C1261 C1262 1.374 . S
C1262 H1236 0.950 . S
C1262 C1258 1.385 . S
C1262 C1261 1.374 . S
C1263 C1260 1.499 . S
C1263 C1264 1.373 . S
C1263 C1265 1.389 . S
C1264 H1237 0.950 . S
C1264 C1250 1.377 . S
C1264 C1263 1.373 . S
C1265 C1249 1.377 . S
C1265 C1263 1.389 . S
C1265 C1266 1.524 . S
C1266 C1265 1.524 . S
C1266 C1267 1.397 . S
C1266 C1271 1.363 . S
C1267 H1238 0.950 . S
C1267 C1266 1.397 . S
C1267 C1268 1.334 . S
C1268 H1239 0.950 . S
C1268 C1267 1.334 . S
C1268 C1269 1.287 . S
C1269 C1268 1.287 . S
C1269 C1270 1.524 . S
C1269 H1272 0.999 . S
C1270 H1240 0.950 . S
C1270 C1269 1.524 . S
C1270 C1271 1.415 . S
C1271 H1241 0.950 . S
C1271 C1266 1.363 . S
C1271 C1270 1.415 . S
H1272 C1269 0.999 . S
H1273 C1254 0.913 . S
H1274 C1292 0.951 . S
H1275 C1294 0.951 . S
H1276 C1296 0.950 . S
H1277 C1297 0.950 . S
H1278 C1299 0.950 . S
H1279 C1302 0.950 . S
H1280 C1303 0.950 . S
H1281 C1305 0.950 . S
H1282 C1306 0.950 . S
H1283 C1307 0.951 . S
H1284 C1309 0.951 . S
H1285 C1311 0.950 . S
H1286 C1312 0.950 . S
H1287 C1314 0.950 . S
H1288 C1317 0.950 . S
H1289 C1318 0.950 . S
H1290 C1320 0.950 . S
H1291 C1321 0.950 . S
C1292 H1274 0.951 . S
C1292 C1293 1.366 . S
C1292 C1294 1.388 . S
C1293 C1292 1.366 . S
C1293 C1297 1.385 . S
C1294 H1275 0.951 . S
C1294 C1292 1.388 . S
C1294 C1295 1.366 . S
C1295 C1294 1.366 . S
C1295 C1296 1.414 . S
C1295 C1298 1.499 . S
C1296 H1276 0.950 . S
C1296 C1295 1.414 . S
C1296 C1297 1.374 . S
C1297 H1277 0.950 . S
C1297 C1293 1.385 . S
C1297 C1296 1.374 . S
C1298 C1295 1.499 . S
C1298 C1299 1.373 . S
C1298 C1300 1.389 . S
C1299 H1278 0.950 . S
C1299 C1298 1.373 . S
C1299 C1315 1.377 . S
C1300 C1298 1.389 . S
C1300 C1301 1.524 . S
C1300 C1314 1.377 . S
C1301 C1300 1.524 . S
C1301 C1302 1.397 . S
C1301 C1306 1.363 . S
C1302 H1279 0.950 . S
C1302 C1301 1.397 . S
C1302 C1303 1.334 . S
C1303 H1280 0.950 . S
C1303 C1302 1.334 . S
C1303 C1304 1.287 . S
C1304 C1303 1.287 . S
C1304 C1305 1.524 . S
C1304 H1323 0.913 . S
C1305 H1281 0.950 . S
C1305 C1304 1.524 . S
C1305 C1306 1.415 . S
C1306 H1282 0.950 . S
C1306 C1301 1.363 . S
C1306 C1305 1.415 . S
C1307 H1283 0.951 . S
C1307 C1308 1.366 . S
C1307 C1309 1.388 . S
C1308 C1307 1.366 . S
C1308 C1312 1.385 . S
C1309 H1284 0.951 . S
C1309 C1307 1.388 . S
C1309 C1310 1.366 . S
C1310 C1309 1.366 . S
C1310 C1311 1.414 . S
C1310 C1313 1.499 . S
C1311 H1285 0.950 . S
C1311 C1310 1.414 . S
C1311 C1312 1.374 . S
C1312 H1286 0.950 . S
C1312 C1308 1.385 . S
C1312 C1311 1.374 . S
C1313 C1310 1.499 . S
C1313 C1314 1.373 . S
C1313 C1315 1.389 . S
C1314 H1287 0.950 . S
C1314 C1300 1.377 . S
C1314 C1313 1.373 . S
C1315 C1299 1.377 . S
C1315 C1313 1.389 . S
C1315 C1316 1.524 . S
C1316 C1315 1.524 . S
C1316 C1317 1.397 . S
C1316 C1321 1.363 . S
C1317 H1288 0.950 . S
C1317 C1316 1.397 . S
C1317 C1318 1.334 . S
C1318 H1289 0.950 . S
C1318 C1317 1.334 . S
C1318 C1319 1.287 . S
C1319 C1318 1.287 . S
C1319 C1320 1.524 . S
C1319 H1322 0.999 . S
C1320 H1290 0.950 . S
C1320 C1319 1.524 . S
C1320 C1321 1.415 . S
C1321 H1291 0.950 . S
C1321 C1316 1.363 . S
C1321 C1320 1.415 . S
H1322 C1319 0.999 . S
H1323 C1304 0.913 . S
H1324 C1342 0.951 . S
H1325 C1344 0.951 . S
H1326 C1346 0.950 . S
H1327 C1347 0.950 . S
H1328 C1349 0.950 . S
H1329 C1352 0.950 . S
H1330 C1353 0.950 . S
H1331 C1355 0.950 . S
H1332 C1356 0.950 . S
H1333 C1357 0.951 . S
H1334 C1359 0.951 . S
H1335 C1361 0.950 . S
H1336 C1362 0.950 . S
H1337 C1364 0.950 . S
H1338 C1367 0.950 . S
H1339 C1368 0.950 . S
H1340 C1370 0.950 . S
H1341 C1371 0.950 . S
C1342 H1324 0.951 . S
C1342 C1343 1.366 . S
C1342 C1344 1.388 . S
C1343 C1342 1.366 . S
C1343 C1347 1.385 . S
C1344 H1325 0.951 . S
C1344 C1342 1.388 . S
C1344 C1345 1.366 . S
C1345 C1344 1.366 . S
C1345 C1346 1.414 . S
C1345 C1348 1.499 . S
C1346 H1326 0.950 . S
C1346 C1345 1.414 . S
C1346 C1347 1.374 . S
C1347 H1327 0.950 . S
C1347 C1343 1.385 . S
C1347 C1346 1.374 . S
C1348 C1345 1.499 . S
C1348 C1349 1.373 . S
C1348 C1350 1.389 . S
C1349 H1328 0.950 . S
C1349 C1348 1.373 . S
C1349 C1365 1.377 . S
C1350 C1348 1.389 . S
C1350 C1351 1.524 . S
C1350 C1364 1.377 . S
C1351 C1350 1.524 . S
C1351 C1352 1.397 . S
C1351 C1356 1.363 . S
C1352 H1329 0.950 . S
C1352 C1351 1.397 . S
C1352 C1353 1.334 . S
C1353 H1330 0.950 . S
C1353 C1352 1.334 . S
C1353 C1354 1.287 . S
C1354 C1353 1.287 . S
C1354 C1355 1.524 . S
C1354 H1373 0.913 . S
C1355 H1331 0.950 . S
C1355 C1354 1.524 . S
C1355 C1356 1.415 . S
C1356 H1332 0.950 . S
C1356 C1351 1.363 . S
C1356 C1355 1.415 . S
C1357 H1333 0.951 . S
C1357 C1358 1.366 . S
C1357 C1359 1.388 . S
C1358 C1357 1.366 . S
C1358 C1362 1.385 . S
C1359 H1334 0.951 . S
C1359 C1357 1.388 . S
C1359 C1360 1.366 . S
C1360 C1359 1.366 . S
C1360 C1361 1.414 . S
C1360 C1363 1.499 . S
C1361 H1335 0.950 . S
C1361 C1360 1.414 . S
C1361 C1362 1.374 . S
C1362 H1336 0.950 . S
C1362 C1358 1.385 . S
C1362 C1361 1.374 . S
C1363 C1360 1.499 . S
C1363 C1364 1.373 . S
C1363 C1365 1.389 . S
C1364 H1337 0.950 . S
C1364 C1350 1.377 . S
C1364 C1363 1.373 . S
C1365 C1349 1.377 . S
C1365 C1363 1.389 . S
C1365 C1366 1.524 . S
C1366 C1365 1.524 . S
C1366 C1367 1.397 . S
C1366 C1371 1.363 . S
C1367 H1338 0.950 . S
C1367 C1366 1.397 . S
C1367 C1368 1.334 . S
C1368 H1339 0.950 . S
C1368 C1367 1.334 . S
C1368 C1369 1.287 . S
C1369 C1368 1.287 . S
C1369 C1370 1.524 . S
C1369 H1372 0.999 . S
C1370 H1340 0.950 . S
C1370 C1369 1.524 . S
C1370 C1371 1.415 . S
C1371 H1341 0.950 . S
C1371 C1366 1.363 . S
C1371 C1370 1.415 . S
H1372 C1369 0.999 . S
H1373 C1354 0.913 . S
H1374 C1392 0.951 . S
H1375 C1394 0.951 . S
H1376 C1396 0.950 . S
H1377 C1397 0.950 . S
H1378 C1399 0.950 . S
H1379 C1402 0.950 . S
H1380 C1403 0.950 . S
H1381 C1405 0.950 . S
H1382 C1406 0.950 . S
H1383 C1407 0.951 . S
H1384 C1409 0.951 . S
H1385 C1411 0.950 . S
H1386 C1412 0.950 . S
H1387 C1414 0.950 . S
H1388 C1417 0.950 . S
H1389 C1418 0.950 . S
H1390 C1420 0.950 . S
H1391 C1421 0.950 . S
C1392 H1374 0.951 . S
C1392 C1393 1.366 . S
C1392 C1394 1.388 . S
C1393 C1392 1.366 . S
C1393 C1397 1.385 . S
C1394 H1375 0.951 . S
C1394 C1392 1.388 . S
C1394 C1395 1.366 . S
C1395 C1394 1.366 . S
C1395 C1396 1.414 . S
C1395 C1398 1.499 . S
C1396 H1376 0.950 . S
C1396 C1395 1.414 . S
C1396 C1397 1.374 . S
C1397 H1377 0.950 . S
C1397 C1393 1.385 . S
C1397 C1396 1.374 . S
C1398 C1395 1.499 . S
C1398 C1399 1.373 . S
C1398 C1400 1.389 . S
C1399 H1378 0.950 . S
C1399 C1398 1.373 . S
C1399 C1415 1.377 . S
C1400 C1398 1.389 . S
C1400 C1401 1.524 . S
C1400 C1414 1.377 . S
C1401 C1400 1.524 . S
C1401 C1402 1.397 . S
C1401 C1406 1.363 . S
C1402 H1379 0.950 . S
C1402 C1401 1.397 . S
C1402 C1403 1.334 . S
C1403 H1380 0.950 . S
C1403 C1402 1.334 . S
C1403 C1404 1.287 . S
C1404 C1403 1.287 . S
C1404 C1405 1.524 . S
C1404 H1423 0.913 . S
C1405 H1381 0.950 . S
C1405 C1404 1.524 . S
C1405 C1406 1.415 . S
C1406 H1382 0.950 . S
C1406 C1401 1.363 . S
C1406 C1405 1.415 . S
C1407 H1383 0.951 . S
C1407 C1408 1.366 . S
C1407 C1409 1.388 . S
C1408 C1407 1.366 . S
C1408 C1412 1.385 . S
C1409 H1384 0.951 . S
C1409 C1407 1.388 . S
C1409 C1410 1.366 . S
C1410 C1409 1.366 . S
C1410 C1411 1.414 . S
C1410 C1413 1.499 . S
C1411 H1385 0.950 . S
C1411 C1410 1.414 . S
C1411 C1412 1.374 . S
C1412 H1386 0.950 . S
C1412 C1408 1.385 . S
C1412 C1411 1.374 . S
C1413 C1410 1.499 . S
C1413 C1414 1.373 . S
C1413 C1415 1.389 . S
C1414 H1387 0.950 . S
C1414 C1400 1.377 . S
C1414 C1413 1.373 . S
C1415 C1399 1.377 . S
C1415 C1413 1.389 . S
C1415 C1416 1.524 . S
C1416 C1415 1.524 . S
C1416 C1417 1.397 . S
C1416 C1421 1.363 . S
C1417 H1388 0.950 . S
C1417 C1416 1.397 . S
C1417 C1418 1.334 . S
C1418 H1389 0.950 . S
C1418 C1417 1.334 . S
C1418 C1419 1.287 . S
C1419 C1418 1.287 . S
C1419 C1420 1.524 . S
C1419 H1422 0.999 . S
C1420 H1390 0.950 . S
C1420 C1419 1.524 . S
C1420 C1421 1.415 . S
C1421 H1391 0.950 . S
C1421 C1416 1.363 . S
C1421 C1420 1.415 . S
H1422 C1419 0.999 . S
H1423 C1404 0.913 . S
H1424 C1442 0.951 . S
H1425 C1444 0.951 . S
H1426 C1446 0.950 . S
H1427 C1447 0.950 . S
H1428 C1449 0.950 . S
H1429 C1452 0.950 . S
H1430 C1453 0.950 . S
H1431 C1455 0.950 1_554 S
H1432 C1456 0.950 . S
H1433 C1457 0.951 . S
H1434 C1459 0.951 . S
H1435 C1461 0.950 . S
H1436 C1462 0.950 . S
H1437 C1464 0.950 . S
H1438 C1467 0.950 . S
H1439 C1468 0.950 . S
H1440 C1470 0.950 . S
H1441 C1471 0.950 . S
C1442 H1424 0.951 . S
C1442 C1443 1.366 . S
C1442 C1444 1.388 . S
C1443 C1442 1.366 . S
C1443 C1447 1.385 . S
C1444 H1425 0.951 . S
C1444 C1442 1.388 . S
C1444 C1445 1.366 . S
C1445 C1444 1.366 . S
C1445 C1446 1.414 . S
C1445 C1448 1.499 . S
C1446 H1426 0.950 . S
C1446 C1445 1.414 . S
C1446 C1447 1.374 . S
C1447 H1427 0.950 . S
C1447 C1443 1.385 . S
C1447 C1446 1.374 . S
C1448 C1445 1.499 . S
C1448 C1449 1.373 . S
C1448 C1450 1.389 . S
C1449 H1428 0.950 . S
C1449 C1448 1.373 . S
C1449 C1465 1.377 . S
C1450 C1448 1.389 . S
C1450 C1451 1.524 . S
C1450 C1464 1.377 . S
C1451 C1450 1.524 . S
C1451 C1452 1.397 . S
C1451 C1456 1.363 . S
C1452 H1429 0.950 . S
C1452 C1451 1.397 . S
C1452 C1453 1.334 . S
C1453 H1430 0.950 . S
C1453 C1452 1.334 . S
C1453 C1454 1.287 . S
C1454 C1453 1.287 . S
C1454 C1455 1.524 . S
C1454 H1473 0.913 . S
C1455 H1431 0.950 1_556 S
C1455 C1454 1.524 . S
C1455 C1456 1.415 . S
C1456 H1432 0.950 . S
C1456 C1451 1.363 . S
C1456 C1455 1.415 . S
C1457 H1433 0.951 . S
C1457 C1458 1.366 1_556 S
C1457 C1459 1.388 . S
C1458 C1457 1.366 1_554 S
C1458 C1462 1.385 . S
C1459 H1434 0.951 . S
C1459 C1457 1.388 . S
C1459 C1460 1.366 . S
C1460 C1459 1.366 . S
C1460 C1461 1.414 1_556 S
C1460 C1463 1.499 . S
C1461 H1435 0.950 . S
C1461 C1460 1.414 1_554 S
C1461 C1462 1.374 . S
C1462 H1436 0.950 . S
C1462 C1458 1.385 . S
C1462 C1461 1.374 . S
C1463 C1460 1.499 . S
C1463 C1464 1.373 . S
C1463 C1465 1.389 . S
C1464 H1437 0.950 . S
C1464 C1450 1.377 . S
C1464 C1463 1.373 . S
C1465 C1449 1.377 . S
C1465 C1463 1.389 . S
C1465 C1466 1.524 . S
C1466 C1465 1.524 . S
C1466 C1467 1.397 . S
C1466 C1471 1.363 . S
C1467 H1438 0.950 . S
C1467 C1466 1.397 . S
C1467 C1468 1.334 . S
C1468 H1439 0.950 . S
C1468 C1467 1.334 . S
C1468 C1469 1.287 . S
C1469 C1468 1.287 . S
C1469 C1470 1.524 . S
C1469 H1472 0.999 . S
C1470 H1440 0.950 . S
C1470 C1469 1.524 . S
C1470 C1471 1.415 . S
C1471 H1441 0.950 . S
C1471 C1466 1.363 . S
C1471 C1470 1.415 . S
H1472 C1469 0.999 . S
H1473 C1454 0.913 . S
H1474 C1492 0.951 . S
H1475 C1494 0.951 . S
H1476 C1496 0.950 . S
H1477 C1497 0.950 . S
H1478 C1499 0.950 . S
H1479 C1502 0.950 . S
H1480 C1503 0.950 . S
H1481 C1505 0.950 1_556 S
H1482 C1506 0.950 . S
H1483 C1507 0.951 . S
H1484 C1509 0.951 . S
H1485 C1511 0.950 . S
H1486 C1512 0.950 1_556 S
H1487 C1514 0.950 . S
H1488 C1517 0.950 . S
H1489 C1518 0.950 . S
H1490 C1520 0.950 . S
H1491 C1521 0.950 . S
C1492 H1474 0.951 . S
C1492 C1493 1.366 . S
C1492 C1494 1.388 . S
C1493 C1492 1.366 . S
C1493 C1497 1.385 . S
C1494 H1475 0.951 . S
C1494 C1492 1.388 . S
C1494 C1495 1.366 . S
C1495 C1494 1.366 . S
C1495 C1496 1.414 . S
C1495 C1498 1.499 . S
C1496 H1476 0.950 . S
C1496 C1495 1.414 . S
C1496 C1497 1.374 . S
C1497 H1477 0.950 . S
C1497 C1493 1.385 . S
C1497 C1496 1.374 . S
C1498 C1495 1.499 . S
C1498 C1499 1.373 . S
C1498 C1500 1.389 . S
C1499 H1478 0.950 . S
C1499 C1498 1.373 . S
C1499 C1515 1.377 . S
C1500 C1498 1.389 . S
C1500 C1501 1.524 . S
C1500 C1514 1.377 . S
C1501 C1500 1.524 . S
C1501 C1502 1.397 . S
C1501 C1506 1.363 . S
C1502 H1479 0.950 . S
C1502 C1501 1.397 . S
C1502 C1503 1.334 . S
C1503 H1480 0.950 . S
C1503 C1502 1.334 . S
C1503 C1504 1.287 1_554 S
C1504 C1503 1.287 1_556 S
C1504 C1505 1.524 1_556 S
C1504 H1523 0.913 . S
C1505 H1481 0.950 1_554 S
C1505 C1504 1.524 1_554 S
C1505 C1506 1.415 . S
C1506 H1482 0.950 . S
C1506 C1501 1.363 . S
C1506 C1505 1.415 . S
C1507 H1483 0.951 . S
C1507 C1508 1.366 1_554 S
C1507 C1509 1.388 . S
C1508 C1507 1.366 1_556 S
C1508 C1512 1.385 1_556 S
C1509 H1484 0.951 . S
C1509 C1507 1.388 . S
C1509 C1510 1.366 . S
C1510 C1509 1.366 . S
C1510 C1511 1.414 . S
C1510 C1513 1.499 . S
C1511 H1485 0.950 . S
C1511 C1510 1.414 . S
C1511 C1512 1.374 . S
C1512 H1486 0.950 1_554 S
C1512 C1508 1.385 1_554 S
C1512 C1511 1.374 . S
C1513 C1510 1.499 . S
C1513 C1514 1.373 . S
C1513 C1515 1.389 . S
C1514 H1487 0.950 . S
C1514 C1500 1.377 . S
C1514 C1513 1.373 . S
C1515 C1499 1.377 . S
C1515 C1513 1.389 . S
C1515 C1516 1.524 . S
C1516 C1515 1.524 . S
C1516 C1517 1.397 . S
C1516 C1521 1.363 . S
C1517 H1488 0.950 . S
C1517 C1516 1.397 . S
C1517 C1518 1.334 . S
C1518 H1489 0.950 . S
C1518 C1517 1.334 . S
C1518 C1519 1.287 . S
C1519 C1518 1.287 . S
C1519 C1520 1.524 . S
C1519 H1522 0.999 . S
C1520 H1490 0.950 . S
C1520 C1519 1.524 . S
C1520 C1521 1.415 . S
C1521 H1491 0.950 . S
C1521 C1516 1.363 . S
C1521 C1520 1.415 . S
H1522 C1519 0.999 . S
H1523 C1504 0.913 . S
H1524 C1542 0.951 . S
H1525 C1544 0.951 . S
H1526 C1546 0.950 . S
H1527 C1547 0.950 . S
H1528 C1549 0.950 . S
H1529 C1552 0.950 . S
H1530 C1553 0.950 . S
H1531 C1555 0.950 . S
H1532 C1556 0.950 . S
H1533 C1557 0.951 . S
H1534 C1559 0.951 . S
H1535 C1561 0.950 . S
H1536 C1562 0.950 . S
H1537 C1564 0.950 . S
H1538 C1567 0.950 . S
H1539 C1568 0.950 . S
H1540 C1570 0.950 . S
H1541 C1571 0.950 . S
C1542 H1524 0.951 . S
C1542 C1543 1.366 . S
C1542 C1544 1.388 . S
C1543 C1542 1.366 . S
C1543 C1547 1.385 1_554 S
C1544 H1525 0.951 . S
C1544 C1542 1.388 . S
C1544 C1545 1.366 1_554 S
C1545 C1544 1.366 1_556 S
C1545 C1546 1.414 . S
C1545 C1548 1.499 . S
C1546 H1526 0.950 . S
C1546 C1545 1.414 . S
C1546 C1547 1.374 . S
C1547 H1527 0.950 . S
C1547 C1543 1.385 1_556 S
C1547 C1546 1.374 . S
C1548 C1545 1.499 . S
C1548 C1549 1.373 . S
C1548 C1550 1.389 . S
C1549 H1528 0.950 . S
C1549 C1548 1.373 . S
C1549 C1565 1.377 . S
C1550 C1548 1.389 . S
C1550 C1551 1.524 . S
C1550 C1564 1.377 . S
C1551 C1550 1.524 . S
C1551 C1552 1.397 . S
C1551 C1556 1.363 1_556 S
C1552 H1529 0.950 . S
C1552 C1551 1.397 . S
C1552 C1553 1.334 1_556 S
C1553 H1530 0.950 . S
C1553 C1552 1.334 1_554 S
C1553 C1554 1.287 . S
C1554 C1553 1.287 . S
C1554 C1555 1.524 . S
C1554 H1573 0.913 . S
C1555 H1531 0.950 . S
C1555 C1554 1.524 . S
C1555 C1556 1.415 . S
C1556 H1532 0.950 . S
C1556 C1551 1.363 1_554 S
C1556 C1555 1.415 . S
C1557 H1533 0.951 . S
C1557 C1558 1.366 . S
C1557 C1559 1.388 . S
C1558 C1557 1.366 . S
C1558 C1562 1.385 . S
C1559 H1534 0.951 . S
C1559 C1557 1.388 . S
C1559 C1560 1.366 . S
C1560 C1559 1.366 . S
C1560 C1561 1.414 . S
C1560 C1563 1.499 . S
C1561 H1535 0.950 . S
C1561 C1560 1.414 . S
C1561 C1562 1.374 . S
C1562 H1536 0.950 . S
C1562 C1558 1.385 . S
C1562 C1561 1.374 . S
C1563 C1560 1.499 . S
C1563 C1564 1.373 . S
C1563 C1565 1.389 . S
C1564 H1537 0.950 . S
C1564 C1550 1.377 . S
C1564 C1563 1.373 . S
C1565 C1549 1.377 . S
C1565 C1563 1.389 . S
C1565 C1566 1.524 . S
C1566 C1565 1.524 . S
C1566 C1567 1.397 . S
C1566 C1571 1.363 . S
C1567 H1538 0.950 . S
C1567 C1566 1.397 . S
C1567 C1568 1.334 . S
C1568 H1539 0.950 . S
C1568 C1567 1.334 . S
C1568 C1569 1.287 . S
C1569 C1568 1.287 . S
C1569 C1570 1.524 . S
C1569 H1572 0.999 . S
C1570 H1540 0.950 . S
C1570 C1569 1.524 . S
C1570 C1571 1.415 . S
C1571 H1541 0.950 . S
C1571 C1566 1.363 . S
C1571 C1570 1.415 . S
H1572 C1569 0.999 . S
H1573 C1554 0.913 . S
H1574 C1592 0.951 . S
H1575 C1594 0.951 . S
H1576 C1596 0.950 . S
H1577 C1597 0.950 . S
H1578 C1599 0.950 . S
H1579 C1602 0.950 . S
H1580 C1603 0.950 . S
H1581 C1605 0.950 . S
H1582 C1606 0.950 1_556 S
H1583 C1607 0.951 . S
H1584 C1609 0.951 . S
H1585 C1611 0.950 . S
H1586 C1612 0.950 . S
H1587 C1614 0.950 . S
H1588 C1617 0.950 . S
H1589 C1618 0.950 . S
H1590 C1620 0.950 . S
H1591 C1621 0.950 . S
C1592 H1574 0.951 . S
C1592 C1593 1.366 . S
C1592 C1594 1.388 . S
C1593 C1592 1.366 . S
C1593 C1597 1.385 . S
C1594 H1575 0.951 . S
C1594 C1592 1.388 . S
C1594 C1595 1.366 . S
C1595 C1594 1.366 . S
C1595 C1596 1.414 . S
C1595 C1598 1.499 . S
C1596 H1576 0.950 . S
C1596 C1595 1.414 . S
C1596 C1597 1.374 . S
C1597 H1577 0.950 . S
C1597 C1593 1.385 . S
C1597 C1596 1.374 . S
C1598 C1595 1.499 . S
C1598 C1599 1.373 . S
C1598 C1600 1.389 . S
C1599 H1578 0.950 . S
C1599 C1598 1.373 . S
C1599 C1615 1.377 . S
C1600 C1598 1.389 . S
C1600 C1601 1.524 . S
C1600 C1614 1.377 . S
C1601 C1600 1.524 . S
C1601 C1602 1.397 . S
C1601 C1606 1.363 . S
C1602 H1579 0.950 . S
C1602 C1601 1.397 . S
C1602 C1603 1.334 . S
C1603 H1580 0.950 . S
C1603 C1602 1.334 . S
C1603 C1604 1.287 . S
C1604 C1603 1.287 . S
C1604 C1605 1.524 1_554 S
C1604 H1623 0.913 . S
C1605 H1581 0.950 . S
C1605 C1604 1.524 1_556 S
C1605 C1606 1.415 1_556 S
C1606 H1582 0.950 1_554 S
C1606 C1601 1.363 . S
C1606 C1605 1.415 1_554 S
C1607 H1583 0.951 . S
C1607 C1608 1.366 1_554 S
C1607 C1609 1.388 . S
C1608 C1607 1.366 1_556 S
C1608 C1612 1.385 . S
C1609 H1584 0.951 . S
C1609 C1607 1.388 . S
C1609 C1610 1.366 . S
C1610 C1609 1.366 . S
C1610 C1611 1.414 1_554 S
C1610 C1613 1.499 . S
C1611 H1585 0.950 . S
C1611 C1610 1.414 1_556 S
C1611 C1612 1.374 . S
C1612 H1586 0.950 . S
C1612 C1608 1.385 . S
C1612 C1611 1.374 . S
C1613 C1610 1.499 . S
C1613 C1614 1.373 . S
C1613 C1615 1.389 . S
C1614 H1587 0.950 . S
C1614 C1600 1.377 . S
C1614 C1613 1.373 . S
C1615 C1599 1.377 . S
C1615 C1613 1.389 . S
C1615 C1616 1.524 . S
C1616 C1615 1.524 . S
C1616 C1617 1.397 . S
C1616 C1621 1.363 . S
C1617 H1588 0.950 . S
C1617 C1616 1.397 . S
C1617 C1618 1.334 . S
C1618 H1589 0.950 . S
C1618 C1617 1.334 . S
C1618 C1619 1.287 . S
C1619 C1618 1.287 . S
C1619 C1620 1.524 . S
C1619 H1622 0.999 . S
C1620 H1590 0.950 . S
C1620 C1619 1.524 . S
C1620 C1621 1.415 . S
C1621 H1591 0.950 . S
C1621 C1616 1.363 . S
C1621 C1620 1.415 . S
H1622 C1619 0.999 . S
H1623 C1604 0.913 . S
H1624 C1642 0.951 . S
H1625 C1644 0.951 . S
H1626 C1646 0.950 . S
H1627 C1647 0.950 . S
H1628 C1649 0.950 . S
H1629 C1652 0.950 . S
H1630 C1653 0.950 . S
H1631 C1655 0.950 . S
H1632 C1656 0.950 . S
H1633 C1657 0.951 . S
H1634 C1659 0.951 . S
H1635 C1661 0.950 . S
H1636 C1662 0.950 . S
H1637 C1664 0.950 . S
H1638 C1667 0.950 . S
H1639 C1668 0.950 . S
H1640 C1670 0.950 . S
H1641 C1671 0.950 . S
C1642 H1624 0.951 . S
C1642 C1643 1.366 . S
C1642 C1644 1.388 . S
C1643 C1642 1.366 . S
C1643 C1647 1.385 . S
C1644 H1625 0.951 . S
C1644 C1642 1.388 . S
C1644 C1645 1.366 . S
C1645 C1644 1.366 . S
C1645 C1646 1.414 . S
C1645 C1648 1.499 . S
C1646 H1626 0.950 . S
C1646 C1645 1.414 . S
C1646 C1647 1.374 . S
C1647 H1627 0.950 . S
C1647 C1643 1.385 . S
C1647 C1646 1.374 . S
C1648 C1645 1.499 . S
C1648 C1649 1.373 . S
C1648 C1650 1.389 . S
C1649 H1628 0.950 . S
C1649 C1648 1.373 . S
C1649 C1665 1.377 . S
C1650 C1648 1.389 . S
C1650 C1651 1.524 . S
C1650 C1664 1.377 . S
C1651 C1650 1.524 . S
C1651 C1652 1.397 . S
C1651 C1656 1.363 . S
C1652 H1629 0.950 . S
C1652 C1651 1.397 . S
C1652 C1653 1.334 . S
C1653 H1630 0.950 . S
C1653 C1652 1.334 . S
C1653 C1654 1.287 . S
C1654 C1653 1.287 . S
C1654 C1655 1.524 . S
C1654 H1673 0.913 . S
C1655 H1631 0.950 . S
C1655 C1654 1.524 . S
C1655 C1656 1.415 . S
C1656 H1632 0.950 . S
C1656 C1651 1.363 . S
C1656 C1655 1.415 . S
C1657 H1633 0.951 . S
C1657 C1658 1.366 . S
C1657 C1659 1.388 . S
C1658 C1657 1.366 . S
C1658 C1662 1.385 . S
C1659 H1634 0.951 . S
C1659 C1657 1.388 . S
C1659 C1660 1.366 . S
C1660 C1659 1.366 . S
C1660 C1661 1.414 . S
C1660 C1663 1.499 . S
C1661 H1635 0.950 . S
C1661 C1660 1.414 . S
C1661 C1662 1.374 . S
C1662 H1636 0.950 . S
C1662 C1658 1.385 . S
C1662 C1661 1.374 . S
C1663 C1660 1.499 . S
C1663 C1664 1.373 . S
C1663 C1665 1.389 . S
C1664 H1637 0.950 . S
C1664 C1650 1.377 . S
C1664 C1663 1.373 . S
C1665 C1649 1.377 . S
C1665 C1663 1.389 . S
C1665 C1666 1.524 . S
C1666 C1665 1.524 . S
C1666 C1667 1.397 . S
C1666 C1671 1.363 . S
C1667 H1638 0.950 . S
C1667 C1666 1.397 . S
C1667 C1668 1.334 . S
C1668 H1639 0.950 . S
C1668 C1667 1.334 . S
C1668 C1669 1.287 . S
C1669 C1668 1.287 . S
C1669 C1670 1.524 . S
C1669 H1672 0.999 . S
C1670 H1640 0.950 . S
C1670 C1669 1.524 . S
C1670 C1671 1.415 . S
C1671 H1641 0.950 . S
C1671 C1666 1.363 . S
C1671 C1670 1.415 . S
H1672 C1669 0.999 . S
H1673 C1654 0.913 . S
H1674 C1692 0.951 . S
H1675 C1694 0.951 . S
H1676 C1696 0.950 . S
H1677 C1697 0.950 . S
H1678 C1699 0.950 . S
H1679 C1702 0.950 . S
H1680 C1703 0.950 . S
H1681 C1705 0.950 . S
H1682 C1706 0.950 . S
H1683 C1707 0.951 . S
H1684 C1709 0.951 . S
H1685 C1711 0.950 . S
H1686 C1712 0.950 . S
H1687 C1714 0.950 . S
H1688 C1717 0.950 . S
H1689 C1718 0.950 . S
H1690 C1720 0.950 . S
H1691 C1721 0.950 . S
C1692 H1674 0.951 . S
C1692 C1693 1.366 . S
C1692 C1694 1.388 . S
C1693 C1692 1.366 . S
C1693 C1697 1.385 . S
C1694 H1675 0.951 . S
C1694 C1692 1.388 . S
C1694 C1695 1.366 . S
C1695 C1694 1.366 . S
C1695 C1696 1.414 . S
C1695 C1698 1.499 . S
C1696 H1676 0.950 . S
C1696 C1695 1.414 . S
C1696 C1697 1.374 . S
C1697 H1677 0.950 . S
C1697 C1693 1.385 . S
C1697 C1696 1.374 . S
C1698 C1695 1.499 . S
C1698 C1699 1.373 . S
C1698 C1700 1.389 . S
C1699 H1678 0.950 . S
C1699 C1698 1.373 . S
C1699 C1715 1.377 . S
C1700 C1698 1.389 . S
C1700 C1701 1.524 . S
C1700 C1714 1.377 . S
C1701 C1700 1.524 . S
C1701 C1702 1.397 . S
C1701 C1706 1.363 . S
C1702 H1679 0.950 . S
C1702 C1701 1.397 . S
C1702 C1703 1.334 . S
C1703 H1680 0.950 . S
C1703 C1702 1.334 . S
C1703 C1704 1.287 . S
C1704 C1703 1.287 . S
C1704 C1705 1.524 . S
C1704 H1723 0.913 . S
C1705 H1681 0.950 . S
C1705 C1704 1.524 . S
C1705 C1706 1.415 . S
C1706 H1682 0.950 . S
C1706 C1701 1.363 . S
C1706 C1705 1.415 . S
C1707 H1683 0.951 . S
C1707 C1708 1.366 . S
C1707 C1709 1.388 . S
C1708 C1707 1.366 . S
C1708 C1712 1.385 . S
C1709 H1684 0.951 . S
C1709 C1707 1.388 . S
C1709 C1710 1.366 . S
C1710 C1709 1.366 . S
C1710 C1711 1.414 . S
C1710 C1713 1.499 . S
C1711 H1685 0.950 . S
C1711 C1710 1.414 . S
C1711 C1712 1.374 . S
C1712 H1686 0.950 . S
C1712 C1708 1.385 . S
C1712 C1711 1.374 . S
C1713 C1710 1.499 . S
C1713 C1714 1.373 . S
C1713 C1715 1.389 . S
C1714 H1687 0.950 . S
C1714 C1700 1.377 . S
C1714 C1713 1.373 . S
C1715 C1699 1.377 . S
C1715 C1713 1.389 . S
C1715 C1716 1.524 . S
C1716 C1715 1.524 . S
C1716 C1717 1.397 . S
C1716 C1721 1.363 . S
C1717 H1688 0.950 . S
C1717 C1716 1.397 . S
C1717 C1718 1.334 . S
C1718 H1689 0.950 . S
C1718 C1717 1.334 . S
C1718 C1719 1.287 . S
C1719 C1718 1.287 . S
C1719 C1720 1.524 . S
C1719 H1722 0.999 . S
C1720 H1690 0.950 . S
C1720 C1719 1.524 . S
C1720 C1721 1.415 . S
C1721 H1691 0.950 . S
C1721 C1716 1.363 . S
C1721 C1720 1.415 . S
H1722 C1719 0.999 . S
H1723 C1704 0.913 . S
H1724 C1742 0.951 . S
H1725 C1744 0.951 . S
H1726 C1746 0.950 . S
H1727 C1747 0.950 . S
H1728 C1749 0.950 . S
H1729 C1752 0.950 . S
H1730 C1753 0.950 . S
H1731 C1755 0.950 . S
H1732 C1756 0.950 . S
H1733 C1757 0.951 . S
H1734 C1759 0.951 . S
H1735 C1761 0.950 . S
H1736 C1762 0.950 . S
H1737 C1764 0.950 . S
H1738 C1767 0.950 . S
H1739 C1768 0.950 . S
H1740 C1770 0.950 . S
H1741 C1771 0.950 . S
C1742 H1724 0.951 . S
C1742 C1743 1.366 . S
C1742 C1744 1.388 . S
C1743 C1742 1.366 . S
C1743 C1747 1.385 . S
C1744 H1725 0.951 . S
C1744 C1742 1.388 . S
C1744 C1745 1.366 . S
C1745 C1744 1.366 . S
C1745 C1746 1.414 . S
C1745 C1748 1.499 . S
C1746 H1726 0.950 . S
C1746 C1745 1.414 . S
C1746 C1747 1.374 . S
C1747 H1727 0.950 . S
C1747 C1743 1.385 . S
C1747 C1746 1.374 . S
C1748 C1745 1.499 . S
C1748 C1749 1.373 . S
C1748 C1750 1.389 . S
C1749 H1728 0.950 . S
C1749 C1748 1.373 . S
C1749 C1765 1.377 . S
C1750 C1748 1.389 . S
C1750 C1751 1.524 . S
C1750 C1764 1.377 . S
C1751 C1750 1.524 . S
C1751 C1752 1.397 . S
C1751 C1756 1.363 . S
C1752 H1729 0.950 . S
C1752 C1751 1.397 . S
C1752 C1753 1.334 . S
C1753 H1730 0.950 . S
C1753 C1752 1.334 . S
C1753 C1754 1.287 . S
C1754 C1753 1.287 . S
C1754 C1755 1.524 . S
C1754 H1773 0.913 . S
C1755 H1731 0.950 . S
C1755 C1754 1.524 . S
C1755 C1756 1.415 . S
C1756 H1732 0.950 . S
C1756 C1751 1.363 . S
C1756 C1755 1.415 . S
C1757 H1733 0.951 . S
C1757 C1758 1.366 . S
C1757 C1759 1.388 . S
C1758 C1757 1.366 . S
C1758 C1762 1.385 . S
C1759 H1734 0.951 . S
C1759 C1757 1.388 . S
C1759 C1760 1.366 . S
C1760 C1759 1.366 . S
C1760 C1761 1.414 . S
C1760 C1763 1.499 . S
C1761 H1735 0.950 . S
C1761 C1760 1.414 . S
C1761 C1762 1.374 . S
C1762 H1736 0.950 . S
C1762 C1758 1.385 . S
C1762 C1761 1.374 . S
C1763 C1760 1.499 . S
C1763 C1764 1.373 . S
C1763 C1765 1.389 . S
C1764 H1737 0.950 . S
C1764 C1750 1.377 . S
C1764 C1763 1.373 . S
C1765 C1749 1.377 . S
C1765 C1763 1.389 . S
C1765 C1766 1.524 . S
C1766 C1765 1.524 . S
C1766 C1767 1.397 . S
C1766 C1771 1.363 . S
C1767 H1738 0.950 . S
C1767 C1766 1.397 . S
C1767 C1768 1.334 . S
C1768 H1739 0.950 . S
C1768 C1767 1.334 . S
C1768 C1769 1.287 . S
C1769 C1768 1.287 . S
C1769 C1770 1.524 . S
C1769 H1772 0.999 . S
C1770 H1740 0.950 . S
C1770 C1769 1.524 . S
C1770 C1771 1.415 . S
C1771 H1741 0.950 . S
C1771 C1766 1.363 . S
C1771 C1770 1.415 . S
H1772 C1769 0.999 . S
H1773 C1754 0.913 . S
H1774 C1792 0.951 . S
H1775 C1794 0.951 . S
H1776 C1796 0.950 . S
H1777 C1797 0.950 . S
H1778 C1799 0.950 . S
H1779 C1802 0.950 . S
H1780 C1803 0.950 . S
H1781 C1805 0.950 . S
H1782 C1806 0.950 . S
H1783 C1807 0.951 . S
H1784 C1809 0.951 . S
H1785 C1811 0.950 . S
H1786 C1812 0.950 . S
H1787 C1814 0.950 . S
H1788 C1817 0.950 . S
H1789 C1818 0.950 . S
H1790 C1820 0.950 . S
H1791 C1821 0.950 . S
C1792 H1774 0.951 . S
C1792 C1793 1.366 . S
C1792 C1794 1.388 . S
C1793 C1792 1.366 . S
C1793 C1797 1.385 . S
C1794 H1775 0.951 . S
C1794 C1792 1.388 . S
C1794 C1795 1.366 . S
C1795 C1794 1.366 . S
C1795 C1796 1.414 . S
C1795 C1798 1.499 . S
C1796 H1776 0.950 . S
C1796 C1795 1.414 . S
C1796 C1797 1.374 . S
C1797 H1777 0.950 . S
C1797 C1793 1.385 . S
C1797 C1796 1.374 . S
C1798 C1795 1.499 . S
C1798 C1799 1.373 . S
C1798 C1800 1.389 . S
C1799 H1778 0.950 . S
C1799 C1798 1.373 . S
C1799 C1815 1.377 . S
C1800 C1798 1.389 . S
C1800 C1801 1.524 . S
C1800 C1814 1.377 . S
C1801 C1800 1.524 . S
C1801 C1802 1.397 . S
C1801 C1806 1.363 . S
C1802 H1779 0.950 . S
C1802 C1801 1.397 . S
C1802 C1803 1.334 . S
C1803 H1780 0.950 . S
C1803 C1802 1.334 . S
C1803 C1804 1.287 . S
C1804 C1803 1.287 . S
C1804 C1805 1.524 . S
C1804 H1823 0.913 . S
C1805 H1781 0.950 . S
C1805 C1804 1.524 . S
C1805 C1806 1.415 . S
C1806 H1782 0.950 . S
C1806 C1801 1.363 . S
C1806 C1805 1.415 . S
C1807 H1783 0.951 . S
C1807 C1808 1.366 . S
C1807 C1809 1.388 . S
C1808 C1807 1.366 . S
C1808 C1812 1.385 . S
C1809 H1784 0.951 . S
C1809 C1807 1.388 . S
C1809 C1810 1.366 . S
C1810 C1809 1.366 . S
C1810 C1811 1.414 . S
C1810 C1813 1.499 . S
C1811 H1785 0.950 . S
C1811 C1810 1.414 . S
C1811 C1812 1.374 . S
C1812 H1786 0.950 . S
C1812 C1808 1.385 . S
C1812 C1811 1.374 . S
C1813 C1810 1.499 . S
C1813 C1814 1.373 . S
C1813 C1815 1.389 . S
C1814 H1787 0.950 . S
C1814 C1800 1.377 . S
C1814 C1813 1.373 . S
C1815 C1799 1.377 . S
C1815 C1813 1.389 . S
C1815 C1816 1.524 . S
C1816 C1815 1.524 . S
C1816 C1817 1.397 . S
C1816 C1821 1.363 . S
C1817 H1788 0.950 . S
C1817 C1816 1.397 . S
C1817 C1818 1.334 . S
C1818 H1789 0.950 . S
C1818 C1817 1.334 . S
C1818 C1819 1.287 . S
C1819 C1818 1.287 . S
C1819 C1820 1.524 . S
C1819 H1822 0.999 . S
C1820 H1790 0.950 . S
C1820 C1819 1.524 . S
C1820 C1821 1.415 . S
C1821 H1791 0.950 . S
C1821 C1816 1.363 . S
C1821 C1820 1.415 . S
H1822 C1819 0.999 . S
H1823 C1804 0.913 . S
C243 C159 1.175 . S
C258 C0 1.164 . S
C293 C14 1.166 . S
C308 C117 1.176 . S
C343 C28 1.164 . S
C358 C131 1.176 . S
C393 C145 1.176 . S
C408 C42 1.164 . S
C443 C56 1.165 . S
C458 C75 1.176 . S
C493 C70 1.166 . S
C508 C89 1.176 . S
C543 C103 1.177 . S
C558 C84 1.165 . S
C593 C61 1.176 . S
C608 C98 1.165 . S
C643 C47 1.175 . S
C658 C112 1.164 . S
C693 C126 1.165 . S
C708 C5 1.176 . S
C743 C19 1.176 . S
C758 C140 1.165 . S
C793 C154 1.165 . S
C808 C33 1.175 . S
C843 C168 1.165 . S
C858 C187 1.175 . S
C893 C182 1.165 . S
C908 C201 1.176 . S
C943 C215 1.176 . S
C958 C196 1.165 . S
C993 C173 1.176 . S
C1008 C210 1.165 . S
C1043 C65 0.995 . S
C1058 C9 0.995 . S
C1093 C23 0.996 . S
C1108 C79 0.995 . S
C1143 C37 0.997 . S
C1158 C93 0.997 . S
C1193 C107 0.996 . S
C1208 C51 0.995 . S
C1243 C121 0.997 . S
C1258 C177 0.996 . S
C1293 C191 0.995 . S
C1308 C135 0.995 . S
C1343 C149 0.995 . S
C1358 C205 0.995 . S
C1393 C219 0.996 . S
C1408 C163 0.995 . S
C1443 C207 1.292 . S
C1458 C11 1.291 . S
C1493 C221 1.291 . S
C1508 C25 1.291 . S
C1543 C39 1.291 . S
C1558 C179 1.291 . S
C1593 C193 1.291 . S
C1608 C53 1.291 . S
C1643 C151 1.291 . S
C1658 C67 1.291 . S
C1693 C165 1.291 . S
C1708 C81 1.291 . S
C1743 C95 1.292 . S
C1758 C123 1.292 . S
C1793 C137 1.291 . S
C1808 C109 1.291 . S
