# Generated by pormake.
# Topology unj, (4)-cn, num edge types: 1
# Building blocks:
#     Node 0, Type 0, BuildingBlock: ICAMEG_clean_sbu_1, # of connection points: 4
#     Node 1, Type 0, BuildingBlock: ICAMEG_clean_sbu_1, # of connection points: 4
#     Node 2, Type 0, BuildingBlock: ICAMEG_clean_sbu_1, # of connection points: 4
#     Node 3, Type 0, BuildingBlock: ICAMEG_clean_sbu_1, # of connection points: 4
#     Node 4, Type 0, BuildingBlock: ICAMEG_clean_sbu_1, # of connection points: 4
#     Node 5, Type 0, BuildingBlock: ICAMEG_clean_sbu_1, # of connection points: 4
#     Edge 6, Type (0, 0), BuildingBlock: KIFKEQ_clean_linker_1, # of connection points: 2
#     Edge 7, Type (0, 0), BuildingBlock: KIFKEQ_clean_linker_1, # of connection points: 2
#     Edge 8, Type (0, 0), BuildingBlock: KIFKEQ_clean_linker_1, # of connection points: 2
#     Edge 9, Type (0, 0), BuildingBlock: KIFKEQ_clean_linker_1, # of connection points: 2
#     Edge 10, Type (0, 0), BuildingBlock: KIFKEQ_clean_linker_1, # of connection points: 2
#     Edge 11, Type (0, 0), BuildingBlock: KIFKEQ_clean_linker_1, # of connection points: 2
#     Edge 12, Type (0, 0), BuildingBlock: KIFKEQ_clean_linker_1, # of connection points: 2
#     Edge 13, Type (0, 0), BuildingBlock: KIFKEQ_clean_linker_1, # of connection points: 2
#     Edge 14, Type (0, 0), BuildingBlock: KIFKEQ_clean_linker_1, # of connection points: 2
#     Edge 15, Type (0, 0), BuildingBlock: KIFKEQ_clean_linker_1, # of connection points: 2
#     Edge 16, Type (0, 0), BuildingBlock: KIFKEQ_clean_linker_1, # of connection points: 2
#     Edge 17, Type (0, 0), BuildingBlock: KIFKEQ_clean_linker_1, # of connection points: 2
# Relax obj value: 0.088
# Max RMSD: 0.190
# Mean RMSD: 0.155
data_MOF--net-unj--node1-ICAMEG_clean_sbu_1--edge1-KIFKEQ_clean_linker_1
_symmetry_space_group_name_H-M    P1
_symmetry_Int_Tables_number       1
_symmetry_cell_setting            triclinic
loop_
_symmetry_equiv_pos_as_xyz
'x, y, z'
_cell_length_a     32.110336
_cell_length_b     35.448509
_cell_length_c     40.474216
_cell_angle_alpha  90.037142
_cell_angle_beta   89.957331
_cell_angle_gamma 120.38394
loop_
_atom_site_label
_atom_site_type_symbol
_atom_site_fract_x
_atom_site_fract_y
_atom_site_fract_z
_atom_type_partial_charge
Co0 Co 0.59098 0.31854 0.59791 0.0
Co1 Co 0.48107 0.22747 0.61078 0.0
O2 O 0.53496 0.265 0.58159 0.0
C3 C 0.5705 0.35379 0.53635 0.0
O4 O 0.52614 0.34035 0.54613 0.0
C5 C 0.50127 0.16307 0.57732 0.0
O6 O 0.54721 0.1879 0.58458 0.0
O7 O 0.52592 0.22216 0.64199 0.0
O8 O 0.58628 0.2918 0.64218 0.0
H9 H 0.39695 0.1765 0.72024 0.0
H10 H 0.59805 0.27747 0.53605 0.0
O11 O 0.59872 0.3468 0.55395 0.0
H12 H 0.72325 0.28236 0.60938 0.0
H13 H 0.75729 0.45142 0.5892 0.0
H14 H 0.61375 0.36974 0.65995 0.0
H15 H 0.67234 0.31207 0.62778 0.0
H16 H 0.68712 0.38284 0.56954 0.0
O17 O 0.47106 0.17447 0.586 0.0
H18 H 0.46393 0.22427 0.68298 0.0
H19 H 0.38373 0.14885 0.60021 0.0
H20 H 0.6833 0.43798 0.68071 0.0
H21 H 0.64855 0.24781 0.51647 0.0
H22 H 0.75574 0.47933 0.64523 0.0
H23 H 0.71158 0.25002 0.5533 0.0
O24 O 0.54817 0.34062 0.61331 0.0
H25 H 0.41454 0.22861 0.49873 0.0
H26 H 0.40167 0.2475 0.61831 0.0
H27 H 0.34793 0.25652 0.57975 0.0
H28 H 0.35409 0.24696 0.51948 0.0
H29 H 0.46786 0.22022 0.53816 0.0
H30 H 0.31604 0.10002 0.6366 0.0
H31 H 0.32233 0.11384 0.69708 0.0
O32 O 0.48856 0.27934 0.63606 0.0
C33 C 0.56447 0.2534 0.65446 0.0
C34 C 0.39372 0.1702 0.69392 0.0
C35 C 0.34834 0.12725 0.64699 0.0
N36 N 0.42764 0.18953 0.63944 0.0
C37 C 0.43149 0.19721 0.67269 0.0
C38 C 0.38684 0.15494 0.62651 0.0
C39 C 0.35188 0.13503 0.68091 0.0
C40 C 0.62564 0.27884 0.55213 0.0
N41 N 0.63219 0.29648 0.58304 0.0
C42 C 0.65403 0.26187 0.54094 0.0
C43 C 0.68934 0.26307 0.56164 0.0
C44 C 0.69587 0.28117 0.59311 0.0
C45 C 0.66678 0.29778 0.60347 0.0
C46 C 0.72595 0.43368 0.60491 0.0
C47 C 0.64521 0.38744 0.64441 0.0
C48 C 0.68604 0.39489 0.59386 0.0
N49 N 0.64643 0.37218 0.61363 0.0
C50 C 0.68445 0.42611 0.65628 0.0
C51 C 0.72507 0.44931 0.63635 0.0
C52 C 0.51108 0.32076 0.63185 0.0
C53 C 0.41142 0.23274 0.52494 0.0
C54 C 0.40469 0.24342 0.59212 0.0
C55 C 0.37408 0.24847 0.57041 0.0
C56 C 0.37755 0.24309 0.5366 0.0
N57 N 0.43773 0.23314 0.5805 0.0
C58 C 0.44141 0.2279 0.54738 0.0
Co59 Co 0.25909 0.45079 0.77951 0.0
Co60 Co 0.26336 0.54595 0.75942 0.0
O61 O 0.26934 0.49561 0.7472 0.0
C62 C 0.35157 0.46819 0.74723 0.0
O63 O 0.3717 0.51015 0.75364 0.0
C64 C 0.20248 0.54851 0.7054 0.0
O65 O 0.17204 0.54609 0.72816 0.0
O66 O 0.19603 0.50565 0.77505 0.0
O67 O 0.20781 0.45719 0.80281 0.0
H68 H 0.21522 0.63144 0.83334 0.0
H69 H 0.25298 0.4319 0.70776 0.0
O70 O 0.30849 0.44168 0.75645 0.0
H71 H 0.0959 0.32055 0.75359 0.0
H72 H 0.24279 0.30808 0.81604 0.0
H73 H 0.24621 0.44249 0.8522 0.0
H74 H 0.15912 0.37547 0.7899 0.0
H75 H 0.25339 0.36415 0.77547 0.0
O76 O 0.23938 0.54602 0.71361 0.0
H77 H 0.22449 0.56887 0.81753 0.0
H78 H 0.28811 0.63031 0.72633 0.0
H79 H 0.23514 0.3871 0.89356 0.0
H80 H 0.19096 0.37722 0.67058 0.0
H81 H 0.23336 0.3193 0.87554 0.0
H82 H 0.1117 0.32108 0.69346 0.0
O83 O 0.30944 0.49627 0.80886 0.0
H84 H 0.4018 0.59627 0.67998 0.0
H85 H 0.35027 0.62438 0.78746 0.0
H86 H 0.43436 0.67173 0.76912 0.0
H87 H 0.46059 0.6579 0.71495 0.0
H88 H 0.31816 0.54937 0.69946 0.0
H89 H 0.27944 0.69349 0.74112 0.0
H90 H 0.2428 0.69434 0.79499 0.0
O91 O 0.28837 0.54749 0.805 0.0
C92 C 0.18209 0.47412 0.79552 0.0
C93 C 0.23127 0.63147 0.8098 0.0
C94 C 0.26731 0.6663 0.75805 0.0
N95 N 0.25687 0.59593 0.77108 0.0
C96 C 0.23661 0.59613 0.80072 0.0
C97 C 0.27212 0.63043 0.74981 0.0
C98 C 0.24675 0.66675 0.78827 0.0
C99 C 0.21866 0.40745 0.71793 0.0
N100 N 0.20973 0.40691 0.75099 0.0
C101 C 0.18365 0.37662 0.69674 0.0
C102 C 0.13918 0.34516 0.70959 0.0
C103 C 0.13027 0.34486 0.74332 0.0
C104 C 0.16616 0.37617 0.76375 0.0
C105 C 0.24344 0.33746 0.82419 0.0
C106 C 0.24525 0.41299 0.84414 0.0
C107 C 0.24957 0.3694 0.80134 0.0
N108 N 0.25012 0.40646 0.81143 0.0
C109 C 0.23908 0.38178 0.86769 0.0
C110 C 0.23813 0.34377 0.85757 0.0
C111 C 0.31105 0.53104 0.8192 0.0
C112 C 0.39076 0.60272 0.70358 0.0
C113 C 0.36141 0.61797 0.76394 0.0
C114 C 0.40907 0.645 0.75364 0.0
C115 C 0.42375 0.63725 0.72323 0.0
N116 N 0.32919 0.58424 0.74447 0.0
C117 C 0.34339 0.57638 0.71468 0.0
Co118 Co 0.76339 0.30245 0.92872 0.0
Co119 Co 0.7726 0.21303 0.90868 0.0
O120 O 0.75984 0.24745 0.94075 0.0
C121 C 0.82714 0.35891 0.98328 0.0
O122 O 0.86156 0.38125 0.96174 0.0
C123 C 0.68073 0.14636 0.9414 0.0
O124 O 0.66394 0.1732 0.93923 0.0
O125 O 0.72303 0.21149 0.87817 0.0
O126 O 0.73782 0.28018 0.88348 0.0
H127 H 0.80312 0.1743 0.79533 0.0
H128 H 0.71114 0.2559 0.9895 0.0
O129 O 0.78759 0.32545 0.97431 0.0
H130 H 0.59053 0.26697 0.92137 0.0
H131 H 0.7437 0.43315 0.94795 0.0
H132 H 0.79887 0.36038 0.87015 0.0
H133 H 0.67431 0.29816 0.90186 0.0
H134 H 0.73702 0.36272 0.9623 0.0
O135 O 0.72247 0.15749 0.93019 0.0
H136 H 0.78873 0.21798 0.83632 0.0
H137 H 0.78109 0.13309 0.91311 0.0
H138 H 0.80585 0.43061 0.85462 0.0
H139 H 0.6279 0.22482 1.01021 0.0
H140 H 0.77822 0.46753 0.89369 0.0
H141 H 0.56687 0.2301 0.97599 0.0
O142 O 0.83048 0.32587 0.91224 0.0
H143 H 0.83584 0.20115 0.01934 0.0
H144 H 0.87403 0.23201 0.90095 0.0
H145 H 0.93599 0.23582 0.93894 0.0
H146 H 0.917 0.22016 0.99861 0.0
H147 H 0.77511 0.19822 0.98049 0.0
H148 H 0.79498 0.08827 0.87291 0.0
H149 H 0.80631 0.10892 0.81356 0.0
O150 O 0.82428 0.26731 0.88648 0.0
C151 C 0.71829 0.2434 0.86857 0.0
C152 C 0.79836 0.16504 0.82113 0.0
C153 C 0.79372 0.11672 0.86467 0.0
N154 N 0.78435 0.17826 0.87709 0.0
C155 C 0.79031 0.1897 0.84447 0.0
C156 C 0.78572 0.14215 0.8873 0.0
C157 C 0.8001 0.12833 0.83137 0.0
C158 C 0.68493 0.25871 0.97459 0.0
N159 N 0.69766 0.27887 0.94448 0.0
C160 C 0.63779 0.24088 0.9864 0.0
C161 C 0.60354 0.24379 0.96716 0.0
C162 C 0.61678 0.26441 0.93649 0.0
C163 C 0.66424 0.28182 0.92548 0.0
C164 C 0.75594 0.41743 0.93073 0.0
C165 C 0.7867 0.3762 0.88727 0.0
C166 C 0.75242 0.37762 0.9388 0.0
N167 N 0.76768 0.3575 0.91717 0.0
C168 C 0.79077 0.41598 0.87834 0.0
C169 C 0.77528 0.43668 0.90028 0.0
C170 C 0.84682 0.30827 0.89263 0.0
C171 C 0.84454 0.20799 0.99338 0.0
C172 C 0.86559 0.2255 0.92689 0.0
C173 C 0.90077 0.22752 0.94828 0.0
C174 C 0.89008 0.2187 0.98175 0.0
N175 N 0.82096 0.21489 0.93847 0.0
C176 C 0.81026 0.20629 0.97126 0.0
Co177 Co 0.4422 0.71208 0.09902 0.0
Co178 Co 0.55237 0.80317 0.10928 0.0
O179 O 0.49715 0.76532 0.08128 0.0
C180 C 0.46003 0.67744 0.0363 0.0
O181 O 0.50488 0.69175 0.04529 0.0
C182 C 0.53247 0.86749 0.07529 0.0
O183 O 0.48657 0.84337 0.08297 0.0
O184 O 0.5088 0.80972 0.14098 0.0
O185 O 0.45004 0.73948 0.14364 0.0
H186 H 0.64069 0.85632 0.21713 0.0
H187 H 0.43024 0.75172 0.03796 0.0
O188 O 0.43177 0.68334 0.05484 0.0
H189 H 0.3118 0.74934 0.11683 0.0
H190 H 0.27545 0.57928 0.09444 0.0
H191 H 0.42328 0.66149 0.16108 0.0
H192 H 0.36408 0.72 0.13266 0.0
H193 H 0.34449 0.64755 0.07321 0.0
O194 O 0.56232 0.85572 0.08401 0.0
H195 H 0.57207 0.80814 0.18119 0.0
H196 H 0.64986 0.88076 0.09676 0.0
H197 H 0.35494 0.59358 0.18338 0.0
H198 H 0.37828 0.78099 0.02099 0.0
H199 H 0.28035 0.55197 0.14996 0.0
H200 H 0.31863 0.78002 0.06061 0.0
O201 O 0.48587 0.69021 0.11252 0.0
H202 H 0.61413 0.798 0.99629 0.0
H203 H 0.63137 0.78242 0.11579 0.0
H204 H 0.68315 0.77162 0.0765 0.0
H205 H 0.67478 0.77951 0.01627 0.0
H206 H 0.56279 0.80818 0.03645 0.0
H207 H 0.71915 0.92999 0.13181 0.0
H208 H 0.71491 0.91778 0.19245 0.0
O209 O 0.54521 0.75175 0.13505 0.0
C210 C 0.47195 0.77842 0.15504 0.0
C211 C 0.64302 0.86192 0.19073 0.0
C212 C 0.68703 0.9033 0.14285 0.0
N213 N 0.60703 0.84148 0.1369 0.0
C214 C 0.60431 0.83469 0.17025 0.0
C215 C 0.64761 0.8754 0.12314 0.0
C216 C 0.68464 0.89642 0.17687 0.0
C217 C 0.40407 0.75083 0.05523 0.0
N218 N 0.40009 0.73401 0.0862 0.0
C219 C 0.37487 0.7676 0.04553 0.0
C220 C 0.34146 0.7671 0.06779 0.0
C221 C 0.33763 0.74992 0.09934 0.0
C222 C 0.36743 0.73346 0.10819 0.0
C223 C 0.30773 0.59716 0.10926 0.0
C224 C 0.39085 0.64371 0.14647 0.0
C225 C 0.34698 0.63579 0.09734 0.0
N226 N 0.38776 0.65867 0.116 0.0
C227 C 0.35231 0.60521 0.15919 0.0
C228 C 0.31049 0.58186 0.14042 0.0
C229 C 0.52316 0.71035 0.13081 0.0
C230 C 0.61822 0.7946 0.02248 0.0
C231 C 0.62739 0.78578 0.08962 0.0
C232 C 0.65689 0.77972 0.06749 0.0
C233 C 0.65219 0.78417 0.0337 0.0
N234 N 0.59422 0.79612 0.07842 0.0
C235 C 0.58935 0.80046 0.04533 0.0
Co236 Co 0.77508 0.58356 0.28135 0.0
Co237 Co 0.7717 0.48861 0.26264 0.0
O238 O 0.76463 0.53806 0.24955 0.0
C239 C 0.68261 0.56526 0.24883 0.0
O240 O 0.66258 0.52346 0.25579 0.0
C241 C 0.83324 0.49046 0.20647 0.0
O242 O 0.86967 0.50246 0.22677 0.0
O243 O 0.83917 0.53007 0.27697 0.0
O244 O 0.82654 0.57778 0.30504 0.0
H245 H 0.82534 0.40837 0.33761 0.0
H246 H 0.78117 0.60114 0.2094 0.0
O247 O 0.72563 0.59209 0.25795 0.0
H248 H 0.93812 0.71355 0.25464 0.0
H249 H 0.79103 0.72676 0.31619 0.0
H250 H 0.78792 0.59314 0.35399 0.0
H251 H 0.87498 0.65919 0.29131 0.0
H252 H 0.78056 0.67003 0.27627 0.0
O253 O 0.79356 0.48635 0.21662 0.0
H254 H 0.81317 0.46902 0.32097 0.0
H255 H 0.7478 0.40347 0.23139 0.0
H256 H 0.79886 0.64921 0.39472 0.0
H257 H 0.84313 0.65523 0.17185 0.0
H258 H 0.80049 0.71662 0.37588 0.0
H259 H 0.92231 0.7119 0.19444 0.0
O260 O 0.72477 0.53847 0.3109 0.0
H261 H 0.62987 0.4337 0.18579 0.0
H262 H 0.68696 0.41006 0.29254 0.0
H263 H 0.60242 0.36101 0.27591 0.0
H264 H 0.57338 0.3726 0.22211 0.0
H265 H 0.71402 0.48231 0.20358 0.0
H266 H 0.75963 0.34228 0.24686 0.0
H267 H 0.79854 0.34443 0.30041 0.0
O268 O 0.74804 0.48867 0.30841 0.0
C269 C 0.85277 0.56143 0.29752 0.0
C270 C 0.80836 0.40706 0.31421 0.0
C271 C 0.77154 0.36999 0.26327 0.0
N272 N 0.77994 0.43988 0.27516 0.0
C273 C 0.80136 0.4413 0.30465 0.0
C274 C 0.76512 0.40482 0.25455 0.0
C275 C 0.79334 0.3712 0.29332 0.0
C276 C 0.81546 0.62582 0.21944 0.0
N277 N 0.82439 0.62699 0.25253 0.0
C278 C 0.85044 0.65631 0.19804 0.0
C279 C 0.89487 0.68808 0.21073 0.0
C280 C 0.90377 0.68901 0.24449 0.0
C281 C 0.86793 0.65802 0.26513 0.0
C282 C 0.79046 0.69756 0.3247 0.0
C283 C 0.78883 0.62247 0.34558 0.0
C284 C 0.78441 0.66526 0.30222 0.0
N285 N 0.78396 0.62842 0.31276 0.0
C286 C 0.79492 0.65407 0.36876 0.0
C287 C 0.79578 0.69186 0.35818 0.0
C288 C 0.72395 0.50431 0.3218 0.0
C289 C 0.64212 0.42825 0.20926 0.0
C290 C 0.67458 0.41551 0.26921 0.0
C291 C 0.62668 0.38752 0.25986 0.0
C292 C 0.61042 0.39401 0.22966 0.0
N293 N 0.7055 0.449 0.24904 0.0
C294 C 0.68978 0.45559 0.21942 0.0
Co295 Co 0.27521 0.72558 0.42259 0.0
Co296 Co 0.26331 0.8155 0.41348 0.0
O297 O 0.28022 0.77922 0.4405 0.0
C298 C 0.22523 0.69543 0.48744 0.0
O299 O 0.20174 0.71602 0.48115 0.0
C300 C 0.35628 0.88187 0.44621 0.0
O301 O 0.37411 0.85592 0.44307 0.0
O302 O 0.31099 0.82156 0.37915 0.0
O303 O 0.29424 0.75201 0.37749 0.0
H304 H 0.22064 0.86212 0.30771 0.0
H305 H 0.33492 0.76576 0.48222 0.0
O306 O 0.25623 0.69702 0.46701 0.0
H307 H 0.44668 0.76523 0.39884 0.0
H308 H 0.2968 0.59442 0.4251 0.0
H309 H 0.2339 0.67353 0.3615 0.0
H310 H 0.36059 0.73495 0.38568 0.0
H311 H 0.30436 0.66269 0.44668 0.0
O312 O 0.31397 0.87 0.43585 0.0
H313 H 0.24085 0.8166 0.3426 0.0
H314 H 0.25152 0.8925 0.42685 0.0
H315 H 0.22596 0.60558 0.33888 0.0
H316 H 0.42068 0.79586 0.49659 0.0
H317 H 0.25753 0.56552 0.37077 0.0
H318 H 0.47722 0.79584 0.45468 0.0
O319 O 0.20611 0.7023 0.41155 0.0
H320 H 0.20922 0.81549 0.52996 0.0
H321 H 0.16015 0.79327 0.41289 0.0
H322 H 0.10095 0.78365 0.45572 0.0
H323 H 0.1254 0.7949 0.51476 0.0
H324 H 0.2671 0.82423 0.48632 0.0
H325 H 0.2319 0.9391 0.39281 0.0
H326 H 0.21609 0.9239 0.33281 0.0
O327 O 0.21073 0.7626 0.39035 0.0
C328 C 0.31286 0.79024 0.36511 0.0
C329 C 0.22738 0.86903 0.33384 0.0
C330 C 0.23375 0.91226 0.38159 0.0
N331 N 0.2472 0.85177 0.38675 0.0
C332 C 0.23876 0.84332 0.35373 0.0
C333 C 0.24501 0.88585 0.40072 0.0
C334 C 0.22487 0.90371 0.34793 0.0
C335 C 0.35923 0.76527 0.46398 0.0
N336 N 0.34274 0.74853 0.43321 0.0
C337 C 0.40778 0.78252 0.4722 0.0
C338 C 0.4395 0.78256 0.44866 0.0
C339 C 0.4224 0.76543 0.41731 0.0
C340 C 0.37363 0.74847 0.40997 0.0
C341 C 0.28297 0.61161 0.41095 0.0
C342 C 0.24798 0.65643 0.37544 0.0
C343 C 0.28704 0.65023 0.42308 0.0
N344 N 0.26985 0.67224 0.40527 0.0
C345 C 0.24327 0.61791 0.36255 0.0
C346 C 0.26095 0.59542 0.38046 0.0
C347 C 0.18834 0.72128 0.39488 0.0
C348 C 0.19815 0.81058 0.50432 0.0
C349 C 0.17099 0.79791 0.43851 0.0
C350 C 0.13735 0.7926 0.46266 0.0
C351 C 0.15111 0.79896 0.49578 0.0
N352 N 0.21707 0.80931 0.44708 0.0
C353 C 0.23082 0.81564 0.47949 0.0
H354 H 0.55398 0.12928 0.54933 0.0
H355 H 0.40803 0.1027 0.56278 0.0
H356 H 0.52316 0.06212 0.51652 0.0
H357 H 0.37766 0.03606 0.53095 0.0
H358 H 0.33925 0.94938 0.44304 0.0
H359 H 0.37785 0.01728 0.47385 0.0
H360 H 0.47381 0.98045 0.51924 0.0
H361 H 0.4353 0.91195 0.48749 0.0
C362 C 0.51542 0.10909 0.5455 0.0
C363 C 0.48358 0.12169 0.55849 0.0
C364 C 0.49777 0.07053 0.52682 0.0
C365 C 0.44797 0.04395 0.5207 0.0
C366 C 0.4163 0.05618 0.53445 0.0
C367 C 0.4338 0.09445 0.55294 0.0
C368 C 0.36868 0.95561 0.45946 0.0
C369 C 0.3837 0.92484 0.46311 0.0
C370 C 0.39075 0.99461 0.47728 0.0
C371 C 0.42833 1.00403 0.49957 0.0
C372 C 0.44495 0.97421 0.50227 0.0
C373 C 0.42285 0.93495 0.48415 0.0
H374 H 0.53616 0.40704 0.62338 0.0
H375 H 0.44412 0.29174 0.68112 0.0
H376 H 0.50032 0.44571 0.6507 0.0
H377 H 0.40974 0.33032 0.70864 0.0
H378 H 0.31394 0.38666 0.72137 0.0
H379 H 0.35539 0.35475 0.69345 0.0
H380 H 0.49077 0.47613 0.7036 0.0
H381 H 0.44853 0.50893 0.73125 0.0
C382 C 0.50873 0.39009 0.64207 0.0
C383 C 0.49264 0.34606 0.64968 0.0
C384 C 0.48835 0.41231 0.65782 0.0
C385 C 0.45157 0.39094 0.68152 0.0
C386 C 0.43704 0.34752 0.68991 0.0
C387 C 0.45705 0.32539 0.67417 0.0
C388 C 0.35257 0.40679 0.71777 0.0
C389 C 0.37797 0.4503 0.729 0.0
C390 C 0.37646 0.3883 0.70182 0.0
C391 C 0.42663 0.41254 0.69677 0.0
C392 C 0.45208 0.45655 0.70707 0.0
C393 C 0.42795 0.47528 0.72303 0.0
H394 H 0.89645 0.28141 0.85361 0.0
H395 H 0.90559 0.39804 0.89472 0.0
H396 H 0.97709 0.32515 0.83084 0.0
H397 H 0.98673 0.44202 0.87105 0.0
H398 H 0.11304 0.49821 0.78806 0.0
H399 H 0.03093 0.46121 0.81113 0.0
H400 H 0.0598 0.36951 0.86124 0.0
H401 H 0.14116 0.40626 0.83921 0.0
C402 C 0.91546 0.31638 0.85779 0.0
C403 C 0.89462 0.33598 0.87664 0.0
C404 C 0.96175 0.34144 0.84464 0.0
C405 C 0.98829 0.38687 0.84947 0.0
C406 C 0.96697 0.40701 0.86699 0.0
C407 C 0.92065 0.38176 0.88065 0.0
C408 C 0.10199 0.47042 0.80424 0.0
C409 C 0.13367 0.45491 0.81127 0.0
C410 C 0.05507 0.44937 0.81748 0.0
C411 C 0.03892 0.41217 0.83757 0.0
C412 C 0.07106 0.39768 0.8454 0.0
C413 C 0.11782 0.4189 0.83268 0.0
H414 H 0.48063 0.90164 0.04655 0.0
H415 H 0.6259 0.92654 0.06016 0.0
H416 H 0.51229 0.96808 0.01278 0.0
H417 H 0.65708 0.99245 0.02742 0.0
H418 H 0.69691 0.07821 0.93894 0.0
H419 H 0.65738 1.01062 0.97019 0.0
H420 H 0.56256 0.04951 0.01475 0.0
H421 H 0.60189 0.11753 0.98258 0.0
C422 C 0.51921 0.9213 0.04254 0.0
C423 C 0.55061 0.90845 0.05588 0.0
C424 C 0.53734 0.95944 0.02331 0.0
C425 C 0.58719 0.98533 0.01699 0.0
C426 C 0.61841 0.97283 0.03105 0.0
C427 C 0.60044 0.93499 0.05008 0.0
C428 C 0.66748 0.07243 0.95523 0.0
C429 C 0.65298 0.10361 0.95852 0.0
C430 C 0.6449 0.03364 0.97331 0.0
C431 C 0.60735 0.02491 0.99549 0.0
C432 C 0.59132 0.05518 0.99785 0.0
C433 C 0.61392 0.09418 0.97949 0.0
H434 H 0.72047 0.64573 0.22114 0.0
H435 H 0.58552 0.52429 0.23329 0.0
H436 H 0.67908 0.67697 0.19234 0.0
H437 H 0.54335 0.55646 0.20472 0.0
H438 H 0.49786 0.62388 0.12315 0.0
H439 H 0.53369 0.58558 0.15098 0.0
H440 H 0.62516 0.70212 0.20754 0.0
H441 H 0.59082 0.74031 0.17955 0.0
C442 C 0.68178 0.62564 0.21784 0.0
C443 C 0.65624 0.5826 0.22999 0.0
C444 C 0.65794 0.64374 0.20137 0.0
C445 C 0.6077 0.61957 0.19672 0.0
C446 C 0.5821 0.57596 0.20789 0.0
C447 C 0.60619 0.5576 0.22436 0.0
C448 C 0.52552 0.64118 0.14161 0.0
C449 C 0.54186 0.68539 0.14872 0.0
C450 C 0.54587 0.61917 0.15766 0.0
C451 C 0.58286 0.64096 0.18113 0.0
C452 C 0.59768 0.6846 0.189 0.0
C453 C 0.57771 0.70651 0.17297 0.0
H454 H 0.12877 0.63158 0.39442 0.0
H455 H 0.13761 0.75114 0.36055 0.0
H456 H 0.04714 0.58953 0.37122 0.0
H457 H 0.05675 0.70933 0.33802 0.0
H458 H 0.89355 0.62908 0.34147 0.0
H459 H 0.97428 0.66454 0.36456 0.0
H460 H 1.00282 0.57278 0.31395 0.0
H461 H 0.92134 0.5369 0.29022 0.0
C462 C 0.11349 0.6489 0.38207 0.0
C463 C 0.13967 0.69487 0.37982 0.0
C464 C 0.06688 0.62479 0.36868 0.0
C465 C 0.04544 0.64623 0.35317 0.0
C466 C 0.07202 0.69196 0.35032 0.0
C467 C 0.11853 0.71592 0.36327 0.0
C468 C 0.91673 0.61619 0.33511 0.0
C469 C 0.90097 0.58044 0.31345 0.0
C470 C 0.96314 0.63667 0.34839 0.0
C471 C 0.99503 0.62177 0.34074 0.0
C472 C 0.97891 0.58493 0.32025 0.0
C473 C 0.93236 0.56455 0.30657 0.0
H474 H 0.52507 0.37887 0.49054 0.0
H475 H 0.65958 0.38287 0.51044 0.0
H476 H 0.55843 0.41656 0.43765 0.0
H477 H 0.69221 0.42032 0.4588 0.0
H478 H 0.71406 0.43072 0.35024 0.0
H479 H 0.67238 0.39518 0.40056 0.0
H480 H 0.62895 0.49125 0.41376 0.0
H481 H 0.67054 0.52724 0.36214 0.0
C482 C 0.56158 0.38785 0.48379 0.0
C483 C 0.5894 0.37744 0.50466 0.0
C484 C 0.58071 0.40962 0.45369 0.0
C485 C 0.62771 0.42091 0.444 0.0
C486 C 0.65561 0.41139 0.4653 0.0
C487 C 0.63678 0.38995 0.49508 0.0
C488 C 0.69543 0.44442 0.36345 0.0
C489 C 0.69611 0.48223 0.35208 0.0
C490 C 0.67159 0.42396 0.39249 0.0
C491 C 0.64792 0.44072 0.41131 0.0
C492 C 0.64687 0.4776 0.39963 0.0
C493 C 0.6709 0.49829 0.37024 0.0
H494 H 0.18216 0.70013 0.54477 0.0
H495 H 0.2473 0.63209 0.49942 0.0
H496 H 0.17235 0.66036 0.59627 0.0
H497 H 0.23586 0.59131 0.55002 0.0
H498 H 0.2684 0.57094 0.65573 0.0
H499 H 0.26996 0.60378 0.60296 0.0
H500 H 0.13189 0.59169 0.62471 0.0
H501 H 0.13122 0.56006 0.67846 0.0
C502 C 0.1938 0.6763 0.54568 0.0
C503 C 0.21607 0.6697 0.51817 0.0
C504 C 0.18792 0.65326 0.57512 0.0
C505 C 0.20372 0.6228 0.57752 0.0
C506 C 0.22433 0.61521 0.54947 0.0
C507 C 0.23073 0.63854 0.52033 0.0
C508 C 0.23798 0.57469 0.6492 0.0
C509 C 0.19969 0.56285 0.67145 0.0
C510 C 0.23878 0.59346 0.61873 0.0
C511 C 0.20106 0.60056 0.60941 0.0
C512 C 0.16193 0.5874 0.63122 0.0
C513 C 0.16131 0.56884 0.66192 0.0
H514 H 0.67756 0.17509 0.82373 0.0
H515 H 0.69582 0.30242 0.84421 0.0
H516 H 0.63696 0.17253 0.77159 0.0
H517 H 0.65479 0.29909 0.79346 0.0
H518 H 0.64793 0.31202 0.68489 0.0
H519 H 0.68136 0.30404 0.73586 0.0
H520 H 0.56182 0.17206 0.74642 0.0
H521 H 0.52799 0.17955 0.69395 0.0
C522 C 0.67244 0.20217 0.81744 0.0
C523 C 0.69041 0.23911 0.83814 0.0
C524 C 0.649 0.20056 0.78771 0.0
C525 C 0.64333 0.23588 0.77828 0.0
C526 C 0.65945 0.27173 0.7997 0.0
C527 C 0.68285 0.27347 0.82903 0.0
C528 C 0.62856 0.28098 0.69764 0.0
C529 C 0.58492 0.24647 0.6852 0.0
C530 C 0.64777 0.27656 0.72713 0.0
C531 C 0.62385 0.2377 0.74544 0.0
C532 C 0.581 0.20242 0.73276 0.0
C533 C 0.56159 0.2068 0.70285 0.0
H534 H 0.3216 0.60521 0.84728 0.0
H535 H 0.36175 0.50669 0.86085 0.0
H536 H 0.361 0.63958 0.89861 0.0
H537 H 0.40142 0.54171 0.91314 0.0
H538 H 0.50474 0.65164 0.99061 0.0
H539 H 0.47199 0.61517 0.93735 0.0
H540 H 0.33981 0.61504 0.95713 0.0
H541 H 0.37191 0.65115 1.00952 0.0
C542 C 0.339 0.59083 0.86108 0.0
C543 C 0.33802 0.55279 0.84988 0.0
C544 C 0.36153 0.61062 0.89068 0.0
C545 C 0.38381 0.59308 0.9101 0.0
C546 C 0.38457 0.55597 0.89858 0.0
C547 C 0.36169 0.53586 0.86875 0.0
C548 C 0.46869 0.64372 0.98353 0.0
C549 C 0.44115 0.65463 1.00429 0.0
C550 C 0.44989 0.62264 0.95318 0.0
C551 C 0.40352 0.61262 0.94298 0.0
C552 C 0.37592 0.6229 0.96405 0.0
C553 C 0.39439 0.64353 0.99422 0.0
H554 H 0.7535 0.35526 0.01828 0.0
H555 H 0.90674 0.40467 0.02281 0.0
H556 H 0.75696 0.39064 0.06968 0.0
H557 H 0.90989 0.43616 0.0771 0.0
H558 H 0.90989 0.51834 0.16383 0.0
H559 H 0.90992 0.48794 0.10963 0.0
H560 H 0.75957 0.38913 0.1237 0.0
H561 H 0.75872 0.42286 0.17495 0.0
C562 C 0.78793 0.37294 0.03082 0.0
C563 C 0.82985 0.37716 0.01652 0.0
C564 C 0.78996 0.39296 0.06085 0.0
C565 C 0.83362 0.41606 0.07854 0.0
C566 C 0.87561 0.4195 0.06435 0.0
C567 C 0.87386 0.40094 0.03337 0.0
C568 C 0.87685 0.49055 0.15477 0.0
C569 C 0.83425 0.47326 0.17342 0.0
C570 C 0.87685 0.4726 0.12384 0.0
C571 C 0.8346 0.4359 0.11151 0.0
C572 C 0.79252 0.41824 0.13105 0.0
C573 C 0.79208 0.4373 0.16102 0.0
H574 H 0.39829 0.85944 0.34237 0.0
H575 H 0.27769 0.73435 0.31397 0.0
H576 H 0.44027 0.86135 0.2909 0.0
H577 H 0.31798 0.73683 0.2626 0.0
H578 H 0.42129 0.71832 0.20213 0.0
H579 H 0.38476 0.7269 0.25162 0.0
H580 H 0.44305 0.86373 0.22921 0.0
H581 H 0.48148 0.85525 0.17935 0.0
C582 C 0.38037 0.83301 0.32473 0.0
C583 C 0.33516 0.79647 0.3322 0.0
C584 C 0.4043 0.83403 0.29534 0.0
C585 C 0.38301 0.79869 0.27301 0.0
C586 C 0.3362 0.76391 0.27968 0.0
C587 C 0.31287 0.7626 0.309 0.0
C588 C 0.42657 0.75037 0.20764 0.0
C589 C 0.45373 0.78597 0.18651 0.0
C590 C 0.40529 0.75525 0.23601 0.0
C591 C 0.40981 0.79575 0.24399 0.0
C592 C 0.43871 0.83204 0.22369 0.0
C593 C 0.46065 0.8272 0.19517 0.0
loop_
_geom_bond_atom_site_label_1
_geom_bond_atom_site_label_2
_geom_bond_distance
_geom_bond_site_symmetry_2
_ccdc_geom_bond_type
Co0 O2 2.143 . S
Co0 O8 2.074 . S
Co0 O11 2.093 . S
Co0 O24 2.097 . S
Co0 N41 2.151 . S
Co0 N49 2.214 . S
Co1 O2 2.160 . S
Co1 O7 2.058 . S
Co1 O17 2.057 . S
Co1 O32 2.037 . S
Co1 N36 2.145 . S
Co1 N57 2.257 . S
O2 Co0 2.143 . S
O2 Co1 2.160 . S
C3 O4 1.278 . S
C3 O11 1.224 . S
O4 C3 1.278 . S
C5 O6 1.245 . S
C5 O17 1.232 . S
O6 C5 1.245 . S
O7 Co1 2.058 . S
O7 C33 1.269 . S
O8 Co0 2.074 . S
O8 C33 1.257 . S
H9 C34 0.930 . S
H10 C40 0.930 . S
O11 Co0 2.093 . S
O11 C3 1.224 . S
H12 C44 0.929 . S
H13 C46 0.930 . S
H14 C47 0.930 . S
H15 C45 0.929 . S
H16 C48 0.928 . S
O17 Co1 2.057 . S
O17 C5 1.232 . S
H18 C37 0.929 . S
H19 C38 0.929 . S
H20 C50 0.931 . S
H21 C42 0.929 . S
H22 C51 0.930 . S
H23 C43 0.931 . S
O24 Co0 2.097 . S
O24 C52 1.214 . S
H25 C53 0.929 . S
H26 C54 0.929 . S
H27 C55 0.930 . S
H28 C56 0.929 . S
H29 C58 0.930 . S
H30 C35 0.930 . S
H31 C39 0.930 . S
O32 Co1 2.037 . S
O32 C52 1.234 . S
C33 O7 1.269 . S
C33 O8 1.257 . S
C34 H9 0.930 . S
C34 C37 1.388 . S
C34 C39 1.418 . S
C35 H30 0.930 . S
C35 C38 1.404 . S
C35 C39 1.353 . S
N36 Co1 2.145 . S
N36 C37 1.397 . S
N36 C38 1.334 . S
C37 H18 0.929 . S
C37 C34 1.388 . S
C37 N36 1.397 . S
C38 H19 0.929 . S
C38 C35 1.404 . S
C38 N36 1.334 . S
C39 H31 0.930 . S
C39 C34 1.418 . S
C39 C35 1.353 . S
C40 H10 0.930 . S
C40 N41 1.330 . S
C40 C42 1.446 . S
N41 Co0 2.151 . S
N41 C40 1.330 . S
N41 C45 1.418 . S
C42 H21 0.929 . S
C42 C40 1.446 . S
C42 C43 1.332 . S
C43 H23 0.931 . S
C43 C42 1.332 . S
C43 C44 1.267 . S
C44 H12 0.929 . S
C44 C43 1.267 . S
C44 C45 1.251 . S
C45 H15 0.929 . S
C45 N41 1.418 . S
C45 C44 1.251 . S
C46 H13 0.930 . S
C46 C48 1.406 . S
C46 C51 1.261 . S
C47 H14 0.930 . S
C47 N49 1.325 . S
C47 C50 1.357 . S
C48 H16 0.928 . S
C48 C46 1.406 . S
C48 N49 1.261 . S
N49 Co0 2.214 . S
N49 C47 1.325 . S
N49 C48 1.261 . S
C50 H20 0.931 . S
C50 C47 1.357 . S
C50 C51 1.312 . S
C51 H22 0.930 . S
C51 C46 1.261 . S
C51 C50 1.312 . S
C52 O24 1.214 . S
C52 O32 1.234 . S
C53 H25 0.929 . S
C53 C56 1.391 . S
C53 C58 1.391 . S
C54 H26 0.929 . S
C54 C55 1.390 . S
C54 N57 1.391 . S
C55 H27 0.930 . S
C55 C54 1.390 . S
C55 C56 1.392 . S
C56 H28 0.929 . S
C56 C53 1.391 . S
C56 C55 1.392 . S
N57 Co1 2.257 . S
N57 C54 1.391 . S
N57 C58 1.388 . S
C58 H29 0.930 . S
C58 C53 1.391 . S
C58 N57 1.388 . S
Co59 O61 2.143 . S
Co59 O67 2.074 . S
Co59 O70 2.093 . S
Co59 O83 2.097 . S
Co59 N100 2.151 . S
Co59 N108 2.214 . S
Co60 O61 2.160 . S
Co60 O66 2.058 . S
Co60 O76 2.057 . S
Co60 O91 2.037 . S
Co60 N95 2.145 . S
Co60 N116 2.257 . S
O61 Co59 2.143 . S
O61 Co60 2.160 . S
C62 O63 1.278 . S
C62 O70 1.224 . S
O63 C62 1.278 . S
C64 O65 1.245 . S
C64 O76 1.232 . S
O65 C64 1.245 . S
O66 Co60 2.058 . S
O66 C92 1.269 . S
O67 Co59 2.074 . S
O67 C92 1.257 . S
H68 C93 0.930 . S
H69 C99 0.930 . S
O70 Co59 2.093 . S
O70 C62 1.224 . S
H71 C103 0.929 . S
H72 C105 0.930 . S
H73 C106 0.930 . S
H74 C104 0.929 . S
H75 C107 0.928 . S
O76 Co60 2.057 . S
O76 C64 1.232 . S
H77 C96 0.929 . S
H78 C97 0.929 . S
H79 C109 0.931 . S
H80 C101 0.929 . S
H81 C110 0.930 . S
H82 C102 0.931 . S
O83 Co59 2.097 . S
O83 C111 1.214 . S
H84 C112 0.929 . S
H85 C113 0.929 . S
H86 C114 0.930 . S
H87 C115 0.929 . S
H88 C117 0.930 . S
H89 C94 0.930 . S
H90 C98 0.930 . S
O91 Co60 2.037 . S
O91 C111 1.234 . S
C92 O66 1.269 . S
C92 O67 1.257 . S
C93 H68 0.930 . S
C93 C96 1.388 . S
C93 C98 1.418 . S
C94 H89 0.930 . S
C94 C97 1.404 . S
C94 C98 1.353 . S
N95 Co60 2.145 . S
N95 C96 1.397 . S
N95 C97 1.334 . S
C96 H77 0.929 . S
C96 C93 1.388 . S
C96 N95 1.397 . S
C97 H78 0.929 . S
C97 C94 1.404 . S
C97 N95 1.334 . S
C98 H90 0.930 . S
C98 C93 1.418 . S
C98 C94 1.353 . S
C99 H69 0.930 . S
C99 N100 1.330 . S
C99 C101 1.446 . S
N100 Co59 2.151 . S
N100 C99 1.330 . S
N100 C104 1.418 . S
C101 H80 0.929 . S
C101 C99 1.446 . S
C101 C102 1.332 . S
C102 H82 0.931 . S
C102 C101 1.332 . S
C102 C103 1.267 . S
C103 H71 0.929 . S
C103 C102 1.267 . S
C103 C104 1.251 . S
C104 H74 0.929 . S
C104 N100 1.418 . S
C104 C103 1.251 . S
C105 H72 0.930 . S
C105 C107 1.406 . S
C105 C110 1.261 . S
C106 H73 0.930 . S
C106 N108 1.325 . S
C106 C109 1.357 . S
C107 H75 0.928 . S
C107 C105 1.406 . S
C107 N108 1.261 . S
N108 Co59 2.214 . S
N108 C106 1.325 . S
N108 C107 1.261 . S
C109 H79 0.931 . S
C109 C106 1.357 . S
C109 C110 1.312 . S
C110 H81 0.930 . S
C110 C105 1.261 . S
C110 C109 1.312 . S
C111 O83 1.214 . S
C111 O91 1.234 . S
C112 H84 0.929 . S
C112 C115 1.391 . S
C112 C117 1.391 . S
C113 H85 0.929 . S
C113 C114 1.390 . S
C113 N116 1.391 . S
C114 H86 0.930 . S
C114 C113 1.390 . S
C114 C115 1.392 . S
C115 H87 0.929 . S
C115 C112 1.391 . S
C115 C114 1.392 . S
N116 Co60 2.257 . S
N116 C113 1.391 . S
N116 C117 1.388 . S
C117 H88 0.930 . S
C117 C112 1.391 . S
C117 N116 1.388 . S
Co118 O120 2.143 . S
Co118 O126 2.074 . S
Co118 O129 2.093 . S
Co118 O142 2.097 . S
Co118 N159 2.151 . S
Co118 N167 2.214 . S
Co119 O120 2.160 . S
Co119 O125 2.058 . S
Co119 O135 2.057 . S
Co119 O150 2.037 . S
Co119 N154 2.145 . S
Co119 N175 2.257 . S
O120 Co118 2.143 . S
O120 Co119 2.160 . S
C121 O122 1.278 . S
C121 O129 1.224 . S
O122 C121 1.278 . S
C123 O124 1.245 . S
C123 O135 1.232 . S
O124 C123 1.245 . S
O125 Co119 2.058 . S
O125 C151 1.269 . S
O126 Co118 2.074 . S
O126 C151 1.257 . S
H127 C152 0.930 . S
H128 C158 0.930 . S
O129 Co118 2.093 . S
O129 C121 1.224 . S
H130 C162 0.929 . S
H131 C164 0.930 . S
H132 C165 0.930 . S
H133 C163 0.929 . S
H134 C166 0.928 . S
O135 Co119 2.057 . S
O135 C123 1.232 . S
H136 C155 0.929 . S
H137 C156 0.929 . S
H138 C168 0.931 . S
H139 C160 0.929 . S
H140 C169 0.930 . S
H141 C161 0.931 . S
O142 Co118 2.097 . S
O142 C170 1.214 . S
H143 C171 0.924 1_554 S
H144 C172 0.929 . S
H145 C173 0.930 . S
H146 C174 0.929 1_554 S
H147 C176 0.930 . S
H148 C153 0.930 . S
H149 C157 0.930 . S
O150 Co119 2.037 . S
O150 C170 1.234 . S
C151 O125 1.269 . S
C151 O126 1.257 . S
C152 H127 0.930 . S
C152 C155 1.388 . S
C152 C157 1.418 . S
C153 H148 0.930 . S
C153 C156 1.404 . S
C153 C157 1.353 . S
N154 Co119 2.145 . S
N154 C155 1.397 . S
N154 C156 1.334 . S
C155 H136 0.929 . S
C155 C152 1.388 . S
C155 N154 1.397 . S
C156 H137 0.929 . S
C156 C153 1.404 . S
C156 N154 1.334 . S
C157 H149 0.930 . S
C157 C152 1.418 . S
C157 C153 1.353 . S
C158 H128 0.930 . S
C158 N159 1.330 . S
C158 C160 1.446 . S
N159 Co118 2.151 . S
N159 C158 1.330 . S
N159 C163 1.418 . S
C160 H139 0.929 . S
C160 C158 1.446 . S
C160 C161 1.332 . S
C161 H141 0.931 . S
C161 C160 1.332 . S
C161 C162 1.267 . S
C162 H130 0.929 . S
C162 C161 1.267 . S
C162 C163 1.251 . S
C163 H133 0.929 . S
C163 N159 1.418 . S
C163 C162 1.251 . S
C164 H131 0.930 . S
C164 C166 1.406 . S
C164 C169 1.261 . S
C165 H132 0.930 . S
C165 N167 1.325 . S
C165 C168 1.357 . S
C166 H134 0.928 . S
C166 C164 1.406 . S
C166 N167 1.261 . S
N167 Co118 2.214 . S
N167 C165 1.325 . S
N167 C166 1.261 . S
C168 H138 0.931 . S
C168 C165 1.357 . S
C168 C169 1.312 . S
C169 H140 0.930 . S
C169 C164 1.261 . S
C169 C168 1.312 . S
C170 O142 1.214 . S
C170 O150 1.234 . S
C171 H143 0.924 1_556 S
C171 C174 1.392 . S
C171 C176 1.395 . S
C172 H144 0.929 . S
C172 C173 1.390 . S
C172 N175 1.391 . S
C173 H145 0.930 . S
C173 C172 1.390 . S
C173 C174 1.392 . S
C174 H146 0.929 1_556 S
C174 C171 1.392 . S
C174 C173 1.392 . S
N175 Co119 2.257 . S
N175 C172 1.391 . S
N175 C176 1.388 . S
C176 H147 0.930 . S
C176 C171 1.395 . S
C176 N175 1.388 . S
Co177 O179 2.143 . S
Co177 O185 2.074 . S
Co177 O188 2.093 . S
Co177 O201 2.097 . S
Co177 N218 2.151 . S
Co177 N226 2.214 . S
Co178 O179 2.160 . S
Co178 O184 2.058 . S
Co178 O194 2.057 . S
Co178 O209 2.037 . S
Co178 N213 2.145 . S
Co178 N234 2.257 . S
O179 Co177 2.143 . S
O179 Co178 2.160 . S
C180 O181 1.278 . S
C180 O188 1.224 . S
O181 C180 1.278 . S
C182 O183 1.245 . S
C182 O194 1.232 . S
O183 C182 1.245 . S
O184 Co178 2.058 . S
O184 C210 1.269 . S
O185 Co177 2.074 . S
O185 C210 1.257 . S
H186 C211 0.930 . S
H187 C217 0.930 . S
O188 Co177 2.093 . S
O188 C180 1.224 . S
H189 C221 0.929 . S
H190 C223 0.930 . S
H191 C224 0.930 . S
H192 C222 0.929 . S
H193 C225 0.928 . S
O194 Co178 2.057 . S
O194 C182 1.232 . S
H195 C214 0.929 . S
H196 C215 0.929 . S
H197 C227 0.931 . S
H198 C219 0.929 . S
H199 C228 0.930 . S
H200 C220 0.931 . S
O201 Co177 2.097 . S
O201 C229 1.214 . S
H202 C230 0.929 1_556 S
H203 C231 0.929 . S
H204 C232 0.930 . S
H205 C233 0.929 1_556 S
H206 C235 0.930 . S
H207 C212 0.930 . S
H208 C216 0.930 . S
O209 Co178 2.037 . S
O209 C229 1.234 . S
C210 O184 1.269 . S
C210 O185 1.257 . S
C211 H186 0.930 . S
C211 C214 1.388 . S
C211 C216 1.418 . S
C212 H207 0.930 . S
C212 C215 1.404 . S
C212 C216 1.353 . S
N213 Co178 2.145 . S
N213 C214 1.397 . S
N213 C215 1.334 . S
C214 H195 0.929 . S
C214 C211 1.388 . S
C214 N213 1.397 . S
C215 H196 0.929 . S
C215 C212 1.404 . S
C215 N213 1.334 . S
C216 H208 0.930 . S
C216 C211 1.418 . S
C216 C212 1.353 . S
C217 H187 0.930 . S
C217 N218 1.330 . S
C217 C219 1.446 . S
N218 Co177 2.151 . S
N218 C217 1.330 . S
N218 C222 1.418 . S
C219 H198 0.929 . S
C219 C217 1.446 . S
C219 C220 1.332 . S
C220 H200 0.931 . S
C220 C219 1.332 . S
C220 C221 1.267 . S
C221 H189 0.929 . S
C221 C220 1.267 . S
C221 C222 1.251 . S
C222 H192 0.929 . S
C222 N218 1.418 . S
C222 C221 1.251 . S
C223 H190 0.930 . S
C223 C225 1.406 . S
C223 C228 1.261 . S
C224 H191 0.930 . S
C224 N226 1.325 . S
C224 C227 1.357 . S
C225 H193 0.928 . S
C225 C223 1.406 . S
C225 N226 1.261 . S
N226 Co177 2.214 . S
N226 C224 1.325 . S
N226 C225 1.261 . S
C227 H197 0.931 . S
C227 C224 1.357 . S
C227 C228 1.312 . S
C228 H199 0.930 . S
C228 C223 1.261 . S
C228 C227 1.312 . S
C229 O201 1.214 . S
C229 O209 1.234 . S
C230 H202 0.929 1_554 S
C230 C233 1.391 . S
C230 C235 1.391 . S
C231 H203 0.929 . S
C231 C232 1.390 . S
C231 N234 1.391 . S
C232 H204 0.930 . S
C232 C231 1.390 . S
C232 C233 1.392 . S
C233 H205 0.929 1_554 S
C233 C230 1.391 . S
C233 C232 1.392 . S
N234 Co178 2.257 . S
N234 C231 1.391 . S
N234 C235 1.388 . S
C235 H206 0.930 . S
C235 C230 1.391 . S
C235 N234 1.388 . S
Co236 O238 2.143 . S
Co236 O244 2.074 . S
Co236 O247 2.093 . S
Co236 O260 2.097 . S
Co236 N277 2.151 . S
Co236 N285 2.214 . S
Co237 O238 2.160 . S
Co237 O243 2.058 . S
Co237 O253 2.057 . S
Co237 O268 2.037 . S
Co237 N272 2.145 . S
Co237 N293 2.257 . S
O238 Co236 2.143 . S
O238 Co237 2.160 . S
C239 O240 1.278 . S
C239 O247 1.224 . S
O240 C239 1.278 . S
C241 O242 1.245 . S
C241 O253 1.232 . S
O242 C241 1.245 . S
O243 Co237 2.058 . S
O243 C269 1.269 . S
O244 Co236 2.074 . S
O244 C269 1.257 . S
H245 C270 0.930 . S
H246 C276 0.930 . S
O247 Co236 2.093 . S
O247 C239 1.224 . S
H248 C280 0.929 . S
H249 C282 0.930 . S
H250 C283 0.930 . S
H251 C281 0.929 . S
H252 C284 0.928 . S
O253 Co237 2.057 . S
O253 C241 1.232 . S
H254 C273 0.929 . S
H255 C274 0.929 . S
H256 C286 0.931 . S
H257 C278 0.929 . S
H258 C287 0.930 . S
H259 C279 0.931 . S
O260 Co236 2.097 . S
O260 C288 1.214 . S
H261 C289 0.929 . S
H262 C290 0.929 . S
H263 C291 0.930 . S
H264 C292 0.929 . S
H265 C294 0.930 . S
H266 C271 0.930 . S
H267 C275 0.930 . S
O268 Co237 2.037 . S
O268 C288 1.234 . S
C269 O243 1.269 . S
C269 O244 1.257 . S
C270 H245 0.930 . S
C270 C273 1.388 . S
C270 C275 1.418 . S
C271 H266 0.930 . S
C271 C274 1.404 . S
C271 C275 1.353 . S
N272 Co237 2.145 . S
N272 C273 1.397 . S
N272 C274 1.334 . S
C273 H254 0.929 . S
C273 C270 1.388 . S
C273 N272 1.397 . S
C274 H255 0.929 . S
C274 C271 1.404 . S
C274 N272 1.334 . S
C275 H267 0.930 . S
C275 C270 1.418 . S
C275 C271 1.353 . S
C276 H246 0.930 . S
C276 N277 1.330 . S
C276 C278 1.446 . S
N277 Co236 2.151 . S
N277 C276 1.330 . S
N277 C281 1.418 . S
C278 H257 0.929 . S
C278 C276 1.446 . S
C278 C279 1.332 . S
C279 H259 0.931 . S
C279 C278 1.332 . S
C279 C280 1.267 . S
C280 H248 0.929 . S
C280 C279 1.267 . S
C280 C281 1.251 . S
C281 H251 0.929 . S
C281 N277 1.418 . S
C281 C280 1.251 . S
C282 H249 0.930 . S
C282 C284 1.406 . S
C282 C287 1.261 . S
C283 H250 0.930 . S
C283 N285 1.325 . S
C283 C286 1.357 . S
C284 H252 0.928 . S
C284 C282 1.406 . S
C284 N285 1.261 . S
N285 Co236 2.214 . S
N285 C283 1.325 . S
N285 C284 1.261 . S
C286 H256 0.931 . S
C286 C283 1.357 . S
C286 C287 1.312 . S
C287 H258 0.930 . S
C287 C282 1.261 . S
C287 C286 1.312 . S
C288 O260 1.214 . S
C288 O268 1.234 . S
C289 H261 0.929 . S
C289 C292 1.391 . S
C289 C294 1.391 . S
C290 H262 0.929 . S
C290 C291 1.390 . S
C290 N293 1.391 . S
C291 H263 0.930 . S
C291 C290 1.390 . S
C291 C292 1.392 . S
C292 H264 0.929 . S
C292 C289 1.391 . S
C292 C291 1.392 . S
N293 Co237 2.257 . S
N293 C290 1.391 . S
N293 C294 1.388 . S
C294 H265 0.930 . S
C294 C289 1.391 . S
C294 N293 1.388 . S
Co295 O297 2.143 . S
Co295 O303 2.074 . S
Co295 O306 2.093 . S
Co295 O319 2.097 . S
Co295 N336 2.151 . S
Co295 N344 2.214 . S
Co296 O297 2.160 . S
Co296 O302 2.058 . S
Co296 O312 2.057 . S
Co296 O327 2.037 . S
Co296 N331 2.145 . S
Co296 N352 2.257 . S
O297 Co295 2.143 . S
O297 Co296 2.160 . S
C298 O299 1.278 . S
C298 O306 1.224 . S
O299 C298 1.278 . S
C300 O301 1.245 . S
C300 O312 1.232 . S
O301 C300 1.245 . S
O302 Co296 2.058 . S
O302 C328 1.269 . S
O303 Co295 2.074 . S
O303 C328 1.257 . S
H304 C329 0.930 . S
H305 C335 0.930 . S
O306 Co295 2.093 . S
O306 C298 1.224 . S
H307 C339 0.929 . S
H308 C341 0.930 . S
H309 C342 0.930 . S
H310 C340 0.929 . S
H311 C343 0.928 . S
O312 Co296 2.057 . S
O312 C300 1.232 . S
H313 C332 0.929 . S
H314 C333 0.929 . S
H315 C345 0.931 . S
H316 C337 0.929 . S
H317 C346 0.930 . S
H318 C338 0.931 . S
O319 Co295 2.097 . S
O319 C347 1.214 . S
H320 C348 0.929 . S
H321 C349 0.929 . S
H322 C350 0.930 . S
H323 C351 0.929 . S
H324 C353 0.930 . S
H325 C330 0.930 . S
H326 C334 0.930 . S
O327 Co296 2.037 . S
O327 C347 1.234 . S
C328 O302 1.269 . S
C328 O303 1.257 . S
C329 H304 0.930 . S
C329 C332 1.388 . S
C329 C334 1.418 . S
C330 H325 0.930 . S
C330 C333 1.404 . S
C330 C334 1.353 . S
N331 Co296 2.145 . S
N331 C332 1.397 . S
N331 C333 1.334 . S
C332 H313 0.929 . S
C332 C329 1.388 . S
C332 N331 1.397 . S
C333 H314 0.929 . S
C333 C330 1.404 . S
C333 N331 1.334 . S
C334 H326 0.930 . S
C334 C329 1.418 . S
C334 C330 1.353 . S
C335 H305 0.930 . S
C335 N336 1.330 . S
C335 C337 1.446 . S
N336 Co295 2.151 . S
N336 C335 1.330 . S
N336 C340 1.418 . S
C337 H316 0.929 . S
C337 C335 1.446 . S
C337 C338 1.332 . S
C338 H318 0.931 . S
C338 C337 1.332 . S
C338 C339 1.267 . S
C339 H307 0.929 . S
C339 C338 1.267 . S
C339 C340 1.251 . S
C340 H310 0.929 . S
C340 N336 1.418 . S
C340 C339 1.251 . S
C341 H308 0.930 . S
C341 C343 1.406 . S
C341 C346 1.261 . S
C342 H309 0.930 . S
C342 N344 1.325 . S
C342 C345 1.357 . S
C343 H311 0.928 . S
C343 C341 1.406 . S
C343 N344 1.261 . S
N344 Co295 2.214 . S
N344 C342 1.325 . S
N344 C343 1.261 . S
C345 H315 0.931 . S
C345 C342 1.357 . S
C345 C346 1.312 . S
C346 H317 0.930 . S
C346 C341 1.261 . S
C346 C345 1.312 . S
C347 O319 1.214 . S
C347 O327 1.234 . S
C348 H320 0.929 . S
C348 C351 1.391 . S
C348 C353 1.391 . S
C349 H321 0.929 . S
C349 C350 1.390 . S
C349 N352 1.391 . S
C350 H322 0.930 . S
C350 C349 1.390 . S
C350 C351 1.392 . S
C351 H323 0.929 . S
C351 C348 1.391 . S
C351 C350 1.392 . S
N352 Co296 2.257 . S
N352 C349 1.391 . S
N352 C353 1.388 . S
C353 H324 0.930 . S
C353 C348 1.391 . S
C353 N352 1.388 . S
H354 C362 0.950 . S
H355 C367 0.950 . S
H356 C364 0.950 . S
H357 C366 0.950 . S
H358 C368 0.950 . S
H359 C370 0.950 . S
H360 C372 0.950 . S
H361 C373 0.950 . S
C362 H354 0.950 . S
C362 C363 1.386 . S
C362 C364 1.391 . S
C363 C362 1.386 . S
C363 C367 1.393 . S
C364 H356 0.950 . S
C364 C362 1.391 . S
C364 C365 1.400 . S
C365 C364 1.400 . S
C365 C366 1.398 . S
C365 C371 1.491 1_545 S
C366 H357 0.950 . S
C366 C365 1.398 . S
C366 C367 1.391 . S
C367 H355 0.950 . S
C367 C363 1.393 . S
C367 C366 1.391 . S
C368 H358 0.950 . S
C368 C369 1.386 . S
C368 C370 1.391 . S
C369 C368 1.386 . S
C369 C373 1.393 . S
C370 H359 0.950 . S
C370 C368 1.391 . S
C370 C371 1.400 . S
C371 C365 1.491 1_565 S
C371 C370 1.400 . S
C371 C372 1.398 . S
C372 H360 0.950 . S
C372 C371 1.398 . S
C372 C373 1.391 . S
C373 H361 0.950 . S
C373 C369 1.393 . S
C373 C372 1.391 . S
H374 C382 0.950 . S
H375 C387 0.950 . S
H376 C384 0.950 . S
H377 C386 0.950 . S
H378 C388 0.950 . S
H379 C390 0.950 . S
H380 C392 0.950 . S
H381 C393 0.950 . S
C382 H374 0.950 . S
C382 C383 1.386 . S
C382 C384 1.391 . S
C383 C382 1.386 . S
C383 C387 1.393 . S
C384 H376 0.950 . S
C384 C382 1.391 . S
C384 C385 1.400 . S
C385 C384 1.400 . S
C385 C386 1.398 . S
C385 C391 1.491 . S
C386 H377 0.950 . S
C386 C385 1.398 . S
C386 C387 1.391 . S
C387 H375 0.950 . S
C387 C383 1.393 . S
C387 C386 1.391 . S
C388 H378 0.950 . S
C388 C389 1.386 . S
C388 C390 1.391 . S
C389 C388 1.386 . S
C389 C393 1.393 . S
C390 H379 0.950 . S
C390 C388 1.391 . S
C390 C391 1.400 . S
C391 C385 1.491 . S
C391 C390 1.400 . S
C391 C392 1.398 . S
C392 H380 0.950 . S
C392 C391 1.398 . S
C392 C393 1.391 . S
C393 H381 0.950 . S
C393 C389 1.393 . S
C393 C392 1.391 . S
H394 C402 0.950 . S
H395 C407 0.950 . S
H396 C404 0.950 . S
H397 C406 0.950 . S
H398 C408 0.950 . S
H399 C410 0.950 . S
H400 C412 0.950 . S
H401 C413 0.950 . S
C402 H394 0.950 . S
C402 C403 1.386 . S
C402 C404 1.391 . S
C403 C402 1.386 . S
C403 C407 1.393 . S
C404 H396 0.950 . S
C404 C402 1.391 . S
C404 C405 1.400 . S
C405 C404 1.400 . S
C405 C406 1.398 . S
C405 C411 1.491 1_655 S
C406 H397 0.950 . S
C406 C405 1.398 . S
C406 C407 1.391 . S
C407 H395 0.950 . S
C407 C403 1.393 . S
C407 C406 1.391 . S
C408 H398 0.950 . S
C408 C409 1.386 . S
C408 C410 1.391 . S
C409 C408 1.386 . S
C409 C413 1.393 . S
C410 H399 0.950 . S
C410 C408 1.391 . S
C410 C411 1.400 . S
C411 C405 1.491 1_455 S
C411 C410 1.400 . S
C411 C412 1.398 . S
C412 H400 0.950 . S
C412 C411 1.398 . S
C412 C413 1.391 . S
C413 H401 0.950 . S
C413 C409 1.393 . S
C413 C412 1.391 . S
H414 C422 0.950 . S
H415 C427 0.950 . S
H416 C424 0.950 . S
H417 C426 0.950 1_556 S
H418 C428 0.950 . S
H419 C430 0.950 . S
H420 C432 0.950 1_554 S
H421 C433 0.950 . S
C422 H414 0.950 . S
C422 C423 1.386 . S
C422 C424 1.391 . S
C423 C422 1.386 . S
C423 C427 1.393 . S
C424 H416 0.950 . S
C424 C422 1.391 . S
C424 C425 1.400 . S
C425 C424 1.400 . S
C425 C426 1.398 . S
C425 C431 1.491 1_564 S
C426 H417 0.950 1_554 S
C426 C425 1.398 . S
C426 C427 1.391 . S
C427 H415 0.950 . S
C427 C423 1.393 . S
C427 C426 1.391 . S
C428 H418 0.950 . S
C428 C429 1.386 . S
C428 C430 1.391 . S
C429 C428 1.386 . S
C429 C433 1.393 . S
C430 H419 0.950 . S
C430 C428 1.391 . S
C430 C431 1.400 . S
C431 C425 1.491 1_546 S
C431 C430 1.400 . S
C431 C432 1.398 . S
C432 H420 0.950 1_556 S
C432 C431 1.398 . S
C432 C433 1.391 . S
C433 H421 0.950 . S
C433 C429 1.393 . S
C433 C432 1.391 . S
H434 C442 0.950 . S
H435 C447 0.950 . S
H436 C444 0.950 . S
H437 C446 0.950 . S
H438 C448 0.950 . S
H439 C450 0.950 . S
H440 C452 0.950 . S
H441 C453 0.950 . S
C442 H434 0.950 . S
C442 C443 1.386 . S
C442 C444 1.391 . S
C443 C442 1.386 . S
C443 C447 1.393 . S
C444 H436 0.950 . S
C444 C442 1.391 . S
C444 C445 1.400 . S
C445 C444 1.400 . S
C445 C446 1.398 . S
C445 C451 1.491 . S
C446 H437 0.950 . S
C446 C445 1.398 . S
C446 C447 1.391 . S
C447 H435 0.950 . S
C447 C443 1.393 . S
C447 C446 1.391 . S
C448 H438 0.950 . S
C448 C449 1.386 . S
C448 C450 1.391 . S
C449 C448 1.386 . S
C449 C453 1.393 . S
C450 H439 0.950 . S
C450 C448 1.391 . S
C450 C451 1.400 . S
C451 C445 1.491 . S
C451 C450 1.400 . S
C451 C452 1.398 . S
C452 H440 0.950 . S
C452 C451 1.398 . S
C452 C453 1.391 . S
C453 H441 0.950 . S
C453 C449 1.393 . S
C453 C452 1.391 . S
H454 C462 0.950 . S
H455 C467 0.950 . S
H456 C464 0.950 . S
H457 C466 0.950 . S
H458 C468 0.950 . S
H459 C470 0.950 . S
H460 C472 0.950 . S
H461 C473 0.950 . S
C462 H454 0.950 . S
C462 C463 1.386 . S
C462 C464 1.391 . S
C463 C462 1.386 . S
C463 C467 1.393 . S
C464 H456 0.950 . S
C464 C462 1.391 . S
C464 C465 1.400 . S
C465 C464 1.400 . S
C465 C466 1.398 . S
C465 C471 1.491 1_455 S
C466 H457 0.950 . S
C466 C465 1.398 . S
C466 C467 1.391 . S
C467 H455 0.950 . S
C467 C463 1.393 . S
C467 C466 1.391 . S
C468 H458 0.950 . S
C468 C469 1.386 . S
C468 C470 1.391 . S
C469 C468 1.386 . S
C469 C473 1.393 . S
C470 H459 0.950 . S
C470 C468 1.391 . S
C470 C471 1.400 . S
C471 C465 1.491 1_655 S
C471 C470 1.400 . S
C471 C472 1.398 . S
C472 H460 0.950 . S
C472 C471 1.398 . S
C472 C473 1.391 . S
C473 H461 0.950 . S
C473 C469 1.393 . S
C473 C472 1.391 . S
H474 C482 0.950 . S
H475 C487 0.950 . S
H476 C484 0.950 . S
H477 C486 0.950 . S
H478 C488 0.950 . S
H479 C490 0.950 . S
H480 C492 0.950 . S
H481 C493 0.950 . S
C482 H474 0.950 . S
C482 C483 1.386 . S
C482 C484 1.391 . S
C483 C482 1.386 . S
C483 C487 1.393 . S
C484 H476 0.950 . S
C484 C482 1.391 . S
C484 C485 1.400 . S
C485 C484 1.400 . S
C485 C486 1.398 . S
C485 C491 1.491 . S
C486 H477 0.950 . S
C486 C485 1.398 . S
C486 C487 1.391 . S
C487 H475 0.950 . S
C487 C483 1.393 . S
C487 C486 1.391 . S
C488 H478 0.950 . S
C488 C489 1.386 . S
C488 C490 1.391 . S
C489 C488 1.386 . S
C489 C493 1.393 . S
C490 H479 0.950 . S
C490 C488 1.391 . S
C490 C491 1.400 . S
C491 C485 1.491 . S
C491 C490 1.400 . S
C491 C492 1.398 . S
C492 H480 0.950 . S
C492 C491 1.398 . S
C492 C493 1.391 . S
C493 H481 0.950 . S
C493 C489 1.393 . S
C493 C492 1.391 . S
H494 C502 0.950 . S
H495 C507 0.950 . S
H496 C504 0.950 . S
H497 C506 0.950 . S
H498 C508 0.950 . S
H499 C510 0.950 . S
H500 C512 0.950 . S
H501 C513 0.950 . S
C502 H494 0.950 . S
C502 C503 1.386 . S
C502 C504 1.391 . S
C503 C502 1.386 . S
C503 C507 1.393 . S
C504 H496 0.950 . S
C504 C502 1.391 . S
C504 C505 1.400 . S
C505 C504 1.400 . S
C505 C506 1.398 . S
C505 C511 1.491 . S
C506 H497 0.950 . S
C506 C505 1.398 . S
C506 C507 1.391 . S
C507 H495 0.950 . S
C507 C503 1.393 . S
C507 C506 1.391 . S
C508 H498 0.950 . S
C508 C509 1.386 . S
C508 C510 1.391 . S
C509 C508 1.386 . S
C509 C513 1.393 . S
C510 H499 0.950 . S
C510 C508 1.391 . S
C510 C511 1.400 . S
C511 C505 1.491 . S
C511 C510 1.400 . S
C511 C512 1.398 . S
C512 H500 0.950 . S
C512 C511 1.398 . S
C512 C513 1.391 . S
C513 H501 0.950 . S
C513 C509 1.393 . S
C513 C512 1.391 . S
H514 C522 0.950 . S
H515 C527 0.950 . S
H516 C524 0.950 . S
H517 C526 0.950 . S
H518 C528 0.950 . S
H519 C530 0.950 . S
H520 C532 0.950 . S
H521 C533 0.950 . S
C522 H514 0.950 . S
C522 C523 1.386 . S
C522 C524 1.391 . S
C523 C522 1.386 . S
C523 C527 1.393 . S
C524 H516 0.950 . S
C524 C522 1.391 . S
C524 C525 1.400 . S
C525 C524 1.400 . S
C525 C526 1.398 . S
C525 C531 1.491 . S
C526 H517 0.950 . S
C526 C525 1.398 . S
C526 C527 1.391 . S
C527 H515 0.950 . S
C527 C523 1.393 . S
C527 C526 1.391 . S
C528 H518 0.950 . S
C528 C529 1.386 . S
C528 C530 1.391 . S
C529 C528 1.386 . S
C529 C533 1.393 . S
C530 H519 0.950 . S
C530 C528 1.391 . S
C530 C531 1.400 . S
C531 C525 1.491 . S
C531 C530 1.400 . S
C531 C532 1.398 . S
C532 H520 0.950 . S
C532 C531 1.398 . S
C532 C533 1.391 . S
C533 H521 0.950 . S
C533 C529 1.393 . S
C533 C532 1.391 . S
H534 C542 0.950 . S
H535 C547 0.950 . S
H536 C544 0.950 . S
H537 C546 0.950 . S
H538 C548 0.950 . S
H539 C550 0.950 . S
H540 C552 0.950 . S
H541 C553 0.950 . S
C542 H534 0.950 . S
C542 C543 1.386 . S
C542 C544 1.391 . S
C543 C542 1.386 . S
C543 C547 1.393 . S
C544 H536 0.950 . S
C544 C542 1.391 . S
C544 C545 1.400 . S
C545 C544 1.400 . S
C545 C546 1.398 . S
C545 C551 1.491 . S
C546 H537 0.950 . S
C546 C545 1.398 . S
C546 C547 1.391 . S
C547 H535 0.950 . S
C547 C543 1.393 . S
C547 C546 1.391 . S
C548 H538 0.950 . S
C548 C549 1.386 . S
C548 C550 1.391 . S
C549 C548 1.386 . S
C549 C553 1.393 . S
C550 H539 0.950 . S
C550 C548 1.391 . S
C550 C551 1.400 . S
C551 C545 1.491 . S
C551 C550 1.400 . S
C551 C552 1.398 . S
C552 H540 0.950 . S
C552 C551 1.398 . S
C552 C553 1.391 . S
C553 H541 0.950 . S
C553 C549 1.393 . S
C553 C552 1.391 . S
H554 C562 0.950 . S
H555 C567 0.950 . S
H556 C564 0.950 . S
H557 C566 0.950 . S
H558 C568 0.950 . S
H559 C570 0.950 . S
H560 C572 0.950 . S
H561 C573 0.950 . S
C562 H554 0.950 . S
C562 C563 1.386 . S
C562 C564 1.391 . S
C563 C562 1.386 . S
C563 C567 1.393 . S
C564 H556 0.950 . S
C564 C562 1.391 . S
C564 C565 1.400 . S
C565 C564 1.400 . S
C565 C566 1.398 . S
C565 C571 1.491 . S
C566 H557 0.950 . S
C566 C565 1.398 . S
C566 C567 1.391 . S
C567 H555 0.950 . S
C567 C563 1.393 . S
C567 C566 1.391 . S
C568 H558 0.950 . S
C568 C569 1.386 . S
C568 C570 1.391 . S
C569 C568 1.386 . S
C569 C573 1.393 . S
C570 H559 0.950 . S
C570 C568 1.391 . S
C570 C571 1.400 . S
C571 C565 1.491 . S
C571 C570 1.400 . S
C571 C572 1.398 . S
C572 H560 0.950 . S
C572 C571 1.398 . S
C572 C573 1.391 . S
C573 H561 0.950 . S
C573 C569 1.393 . S
C573 C572 1.391 . S
H574 C582 0.950 . S
H575 C587 0.950 . S
H576 C584 0.950 . S
H577 C586 0.950 . S
H578 C588 0.950 . S
H579 C590 0.950 . S
H580 C592 0.950 . S
H581 C593 0.950 . S
C582 H574 0.950 . S
C582 C583 1.386 . S
C582 C584 1.391 . S
C583 C582 1.386 . S
C583 C587 1.393 . S
C584 H576 0.950 . S
C584 C582 1.391 . S
C584 C585 1.400 . S
C585 C584 1.400 . S
C585 C586 1.398 . S
C585 C591 1.491 . S
C586 H577 0.950 . S
C586 C585 1.398 . S
C586 C587 1.391 . S
C587 H575 0.950 . S
C587 C583 1.393 . S
C587 C586 1.391 . S
C588 H578 0.950 . S
C588 C589 1.386 . S
C588 C590 1.391 . S
C589 C588 1.386 . S
C589 C593 1.393 . S
C590 H579 0.950 . S
C590 C588 1.391 . S
C590 C591 1.400 . S
C591 C585 1.491 . S
C591 C590 1.400 . S
C591 C592 1.398 . S
C592 H580 0.950 . S
C592 C591 1.398 . S
C592 C593 1.391 . S
C593 H581 0.950 . S
C593 C589 1.393 . S
C593 C592 1.391 . S
C363 C5 1.797 . S
C369 C300 1.799 . S
C383 C52 1.734 . S
C389 C62 1.736 . S
C403 C170 1.675 . S
C409 C92 1.677 . S
C423 C182 1.797 . S
C429 C123 1.799 . S
C443 C239 1.735 . S
C449 C229 1.737 . S
C463 C347 1.675 . S
C469 C269 1.678 . S
C483 C3 1.467 . S
C489 C288 1.462 . S
C503 C298 1.316 . S
C509 C64 1.321 . S
C523 C151 1.580 . S
C529 C33 1.581 . S
C543 C111 1.475 . S
C549 C180 1.478 1_556 S
C563 C121 1.326 1_554 S
C569 C241 1.327 . S
C583 C328 1.578 . S
C589 C210 1.581 . S
