# Generated by pormake.
# Topology wse, (4)-cn, num edge types: 1
# Building blocks:
#     Node 0, Type 0, BuildingBlock: NAHDIM_clean_sbu_0, # of connection points: 4
#     Node 1, Type 0, BuildingBlock: NAHDIM_clean_sbu_0, # of connection points: 4
#     Node 2, Type 0, BuildingBlock: NAHDIM_clean_sbu_0, # of connection points: 4
#     Node 3, Type 0, BuildingBlock: NAHDIM_clean_sbu_0, # of connection points: 4
#     Node 4, Type 0, BuildingBlock: NAHDIM_clean_sbu_0, # of connection points: 4
#     Node 5, Type 0, BuildingBlock: NAHDIM_clean_sbu_0, # of connection points: 4
#     Node 6, Type 0, BuildingBlock: NAHDIM_clean_sbu_0, # of connection points: 4
#     Node 7, Type 0, BuildingBlock: NAHDIM_clean_sbu_0, # of connection points: 4
#     Node 8, Type 0, BuildingBlock: NAHDIM_clean_sbu_0, # of connection points: 4
#     Node 9, Type 0, BuildingBlock: NAHDIM_clean_sbu_0, # of connection points: 4
#     Node 10, Type 0, BuildingBlock: NAHDIM_clean_sbu_0, # of connection points: 4
#     Node 11, Type 0, BuildingBlock: NAHDIM_clean_sbu_0, # of connection points: 4
#     Node 12, Type 0, BuildingBlock: NAHDIM_clean_sbu_0, # of connection points: 4
#     Node 13, Type 0, BuildingBlock: NAHDIM_clean_sbu_0, # of connection points: 4
#     Node 14, Type 0, BuildingBlock: NAHDIM_clean_sbu_0, # of connection points: 4
#     Node 15, Type 0, BuildingBlock: NAHDIM_clean_sbu_0, # of connection points: 4
#     Node 16, Type 0, BuildingBlock: NAHDIM_clean_sbu_0, # of connection points: 4
#     Node 17, Type 0, BuildingBlock: NAHDIM_clean_sbu_0, # of connection points: 4
#     Node 18, Type 0, BuildingBlock: NAHDIM_clean_sbu_0, # of connection points: 4
#     Node 19, Type 0, BuildingBlock: NAHDIM_clean_sbu_0, # of connection points: 4
#     Node 20, Type 0, BuildingBlock: NAHDIM_clean_sbu_0, # of connection points: 4
#     Node 21, Type 0, BuildingBlock: NAHDIM_clean_sbu_0, # of connection points: 4
#     Node 22, Type 0, BuildingBlock: NAHDIM_clean_sbu_0, # of connection points: 4
#     Node 23, Type 0, BuildingBlock: NAHDIM_clean_sbu_0, # of connection points: 4
#     Node 24, Type 0, BuildingBlock: NAHDIM_clean_sbu_0, # of connection points: 4
#     Node 25, Type 0, BuildingBlock: NAHDIM_clean_sbu_0, # of connection points: 4
#     Node 26, Type 0, BuildingBlock: NAHDIM_clean_sbu_0, # of connection points: 4
#     Node 27, Type 0, BuildingBlock: NAHDIM_clean_sbu_0, # of connection points: 4
#     Node 28, Type 0, BuildingBlock: NAHDIM_clean_sbu_0, # of connection points: 4
#     Node 29, Type 0, BuildingBlock: NAHDIM_clean_sbu_0, # of connection points: 4
#     Node 30, Type 0, BuildingBlock: NAHDIM_clean_sbu_0, # of connection points: 4
#     Node 31, Type 0, BuildingBlock: NAHDIM_clean_sbu_0, # of connection points: 4
#     Node 32, Type 0, BuildingBlock: NAHDIM_clean_sbu_0, # of connection points: 4
#     Node 33, Type 0, BuildingBlock: NAHDIM_clean_sbu_0, # of connection points: 4
#     Node 34, Type 0, BuildingBlock: NAHDIM_clean_sbu_0, # of connection points: 4
#     Node 35, Type 0, BuildingBlock: NAHDIM_clean_sbu_0, # of connection points: 4
#     Node 36, Type 0, BuildingBlock: NAHDIM_clean_sbu_0, # of connection points: 4
#     Node 37, Type 0, BuildingBlock: NAHDIM_clean_sbu_0, # of connection points: 4
#     Node 38, Type 0, BuildingBlock: NAHDIM_clean_sbu_0, # of connection points: 4
#     Node 39, Type 0, BuildingBlock: NAHDIM_clean_sbu_0, # of connection points: 4
#     Node 40, Type 0, BuildingBlock: NAHDIM_clean_sbu_0, # of connection points: 4
#     Node 41, Type 0, BuildingBlock: NAHDIM_clean_sbu_0, # of connection points: 4
#     Node 42, Type 0, BuildingBlock: NAHDIM_clean_sbu_0, # of connection points: 4
#     Node 43, Type 0, BuildingBlock: NAHDIM_clean_sbu_0, # of connection points: 4
#     Node 44, Type 0, BuildingBlock: NAHDIM_clean_sbu_0, # of connection points: 4
#     Node 45, Type 0, BuildingBlock: NAHDIM_clean_sbu_0, # of connection points: 4
#     Node 46, Type 0, BuildingBlock: NAHDIM_clean_sbu_0, # of connection points: 4
#     Node 47, Type 0, BuildingBlock: NAHDIM_clean_sbu_0, # of connection points: 4
#     Node 48, Type 0, BuildingBlock: NAHDIM_clean_sbu_0, # of connection points: 4
#     Node 49, Type 0, BuildingBlock: NAHDIM_clean_sbu_0, # of connection points: 4
#     Node 50, Type 0, BuildingBlock: NAHDIM_clean_sbu_0, # of connection points: 4
#     Node 51, Type 0, BuildingBlock: NAHDIM_clean_sbu_0, # of connection points: 4
#     Node 52, Type 0, BuildingBlock: NAHDIM_clean_sbu_0, # of connection points: 4
#     Node 53, Type 0, BuildingBlock: NAHDIM_clean_sbu_0, # of connection points: 4
#     Node 54, Type 0, BuildingBlock: NAHDIM_clean_sbu_0, # of connection points: 4
#     Node 55, Type 0, BuildingBlock: NAHDIM_clean_sbu_0, # of connection points: 4
#     Node 56, Type 0, BuildingBlock: NAHDIM_clean_sbu_0, # of connection points: 4
#     Node 57, Type 0, BuildingBlock: NAHDIM_clean_sbu_0, # of connection points: 4
#     Node 58, Type 0, BuildingBlock: NAHDIM_clean_sbu_0, # of connection points: 4
#     Node 59, Type 0, BuildingBlock: NAHDIM_clean_sbu_0, # of connection points: 4
#     Node 60, Type 0, BuildingBlock: NAHDIM_clean_sbu_0, # of connection points: 4
#     Node 61, Type 0, BuildingBlock: NAHDIM_clean_sbu_0, # of connection points: 4
#     Node 62, Type 0, BuildingBlock: NAHDIM_clean_sbu_0, # of connection points: 4
#     Node 63, Type 0, BuildingBlock: NAHDIM_clean_sbu_0, # of connection points: 4
#     Node 64, Type 0, BuildingBlock: NAHDIM_clean_sbu_0, # of connection points: 4
#     Node 65, Type 0, BuildingBlock: NAHDIM_clean_sbu_0, # of connection points: 4
#     Node 66, Type 0, BuildingBlock: NAHDIM_clean_sbu_0, # of connection points: 4
#     Node 67, Type 0, BuildingBlock: NAHDIM_clean_sbu_0, # of connection points: 4
#     Node 68, Type 0, BuildingBlock: NAHDIM_clean_sbu_0, # of connection points: 4
#     Node 69, Type 0, BuildingBlock: NAHDIM_clean_sbu_0, # of connection points: 4
#     Node 70, Type 0, BuildingBlock: NAHDIM_clean_sbu_0, # of connection points: 4
#     Node 71, Type 0, BuildingBlock: NAHDIM_clean_sbu_0, # of connection points: 4
#     Node 72, Type 0, BuildingBlock: NAHDIM_clean_sbu_0, # of connection points: 4
#     Node 73, Type 0, BuildingBlock: NAHDIM_clean_sbu_0, # of connection points: 4
#     Node 74, Type 0, BuildingBlock: NAHDIM_clean_sbu_0, # of connection points: 4
#     Node 75, Type 0, BuildingBlock: NAHDIM_clean_sbu_0, # of connection points: 4
#     Node 76, Type 0, BuildingBlock: NAHDIM_clean_sbu_0, # of connection points: 4
#     Node 77, Type 0, BuildingBlock: NAHDIM_clean_sbu_0, # of connection points: 4
#     Node 78, Type 0, BuildingBlock: NAHDIM_clean_sbu_0, # of connection points: 4
#     Node 79, Type 0, BuildingBlock: NAHDIM_clean_sbu_0, # of connection points: 4
#     Node 80, Type 0, BuildingBlock: NAHDIM_clean_sbu_0, # of connection points: 4
#     Node 81, Type 0, BuildingBlock: NAHDIM_clean_sbu_0, # of connection points: 4
#     Node 82, Type 0, BuildingBlock: NAHDIM_clean_sbu_0, # of connection points: 4
#     Node 83, Type 0, BuildingBlock: NAHDIM_clean_sbu_0, # of connection points: 4
#     Node 84, Type 0, BuildingBlock: NAHDIM_clean_sbu_0, # of connection points: 4
#     Node 85, Type 0, BuildingBlock: NAHDIM_clean_sbu_0, # of connection points: 4
#     Node 86, Type 0, BuildingBlock: NAHDIM_clean_sbu_0, # of connection points: 4
#     Node 87, Type 0, BuildingBlock: NAHDIM_clean_sbu_0, # of connection points: 4
#     Node 88, Type 0, BuildingBlock: NAHDIM_clean_sbu_0, # of connection points: 4
#     Node 89, Type 0, BuildingBlock: NAHDIM_clean_sbu_0, # of connection points: 4
#     Node 90, Type 0, BuildingBlock: NAHDIM_clean_sbu_0, # of connection points: 4
#     Node 91, Type 0, BuildingBlock: NAHDIM_clean_sbu_0, # of connection points: 4
#     Node 92, Type 0, BuildingBlock: NAHDIM_clean_sbu_0, # of connection points: 4
#     Node 93, Type 0, BuildingBlock: NAHDIM_clean_sbu_0, # of connection points: 4
#     Node 94, Type 0, BuildingBlock: NAHDIM_clean_sbu_0, # of connection points: 4
#     Node 95, Type 0, BuildingBlock: NAHDIM_clean_sbu_0, # of connection points: 4
#     Edge 96, Type (0, 0), BuildingBlock: AJUNOK_clean_linker_0, # of connection points: 2
#     Edge 97, Type (0, 0), BuildingBlock: AJUNOK_clean_linker_0, # of connection points: 2
#     Edge 98, Type (0, 0), BuildingBlock: AJUNOK_clean_linker_0, # of connection points: 2
#     Edge 99, Type (0, 0), BuildingBlock: AJUNOK_clean_linker_0, # of connection points: 2
#     Edge 100, Type (0, 0), BuildingBlock: AJUNOK_clean_linker_0, # of connection points: 2
#     Edge 101, Type (0, 0), BuildingBlock: AJUNOK_clean_linker_0, # of connection points: 2
#     Edge 102, Type (0, 0), BuildingBlock: AJUNOK_clean_linker_0, # of connection points: 2
#     Edge 103, Type (0, 0), BuildingBlock: AJUNOK_clean_linker_0, # of connection points: 2
#     Edge 104, Type (0, 0), BuildingBlock: AJUNOK_clean_linker_0, # of connection points: 2
#     Edge 105, Type (0, 0), BuildingBlock: AJUNOK_clean_linker_0, # of connection points: 2
#     Edge 106, Type (0, 0), BuildingBlock: AJUNOK_clean_linker_0, # of connection points: 2
#     Edge 107, Type (0, 0), BuildingBlock: AJUNOK_clean_linker_0, # of connection points: 2
#     Edge 108, Type (0, 0), BuildingBlock: AJUNOK_clean_linker_0, # of connection points: 2
#     Edge 109, Type (0, 0), BuildingBlock: AJUNOK_clean_linker_0, # of connection points: 2
#     Edge 110, Type (0, 0), BuildingBlock: AJUNOK_clean_linker_0, # of connection points: 2
#     Edge 111, Type (0, 0), BuildingBlock: AJUNOK_clean_linker_0, # of connection points: 2
#     Edge 112, Type (0, 0), BuildingBlock: AJUNOK_clean_linker_0, # of connection points: 2
#     Edge 113, Type (0, 0), BuildingBlock: AJUNOK_clean_linker_0, # of connection points: 2
#     Edge 114, Type (0, 0), BuildingBlock: AJUNOK_clean_linker_0, # of connection points: 2
#     Edge 115, Type (0, 0), BuildingBlock: AJUNOK_clean_linker_0, # of connection points: 2
#     Edge 116, Type (0, 0), BuildingBlock: AJUNOK_clean_linker_0, # of connection points: 2
#     Edge 117, Type (0, 0), BuildingBlock: AJUNOK_clean_linker_0, # of connection points: 2
#     Edge 118, Type (0, 0), BuildingBlock: AJUNOK_clean_linker_0, # of connection points: 2
#     Edge 119, Type (0, 0), BuildingBlock: AJUNOK_clean_linker_0, # of connection points: 2
#     Edge 120, Type (0, 0), BuildingBlock: AJUNOK_clean_linker_0, # of connection points: 2
#     Edge 121, Type (0, 0), BuildingBlock: AJUNOK_clean_linker_0, # of connection points: 2
#     Edge 122, Type (0, 0), BuildingBlock: AJUNOK_clean_linker_0, # of connection points: 2
#     Edge 123, Type (0, 0), BuildingBlock: AJUNOK_clean_linker_0, # of connection points: 2
#     Edge 124, Type (0, 0), BuildingBlock: AJUNOK_clean_linker_0, # of connection points: 2
#     Edge 125, Type (0, 0), BuildingBlock: AJUNOK_clean_linker_0, # of connection points: 2
#     Edge 126, Type (0, 0), BuildingBlock: AJUNOK_clean_linker_0, # of connection points: 2
#     Edge 127, Type (0, 0), BuildingBlock: AJUNOK_clean_linker_0, # of connection points: 2
#     Edge 128, Type (0, 0), BuildingBlock: AJUNOK_clean_linker_0, # of connection points: 2
#     Edge 129, Type (0, 0), BuildingBlock: AJUNOK_clean_linker_0, # of connection points: 2
#     Edge 130, Type (0, 0), BuildingBlock: AJUNOK_clean_linker_0, # of connection points: 2
#     Edge 131, Type (0, 0), BuildingBlock: AJUNOK_clean_linker_0, # of connection points: 2
#     Edge 132, Type (0, 0), BuildingBlock: AJUNOK_clean_linker_0, # of connection points: 2
#     Edge 133, Type (0, 0), BuildingBlock: AJUNOK_clean_linker_0, # of connection points: 2
#     Edge 134, Type (0, 0), BuildingBlock: AJUNOK_clean_linker_0, # of connection points: 2
#     Edge 135, Type (0, 0), BuildingBlock: AJUNOK_clean_linker_0, # of connection points: 2
#     Edge 136, Type (0, 0), BuildingBlock: AJUNOK_clean_linker_0, # of connection points: 2
#     Edge 137, Type (0, 0), BuildingBlock: AJUNOK_clean_linker_0, # of connection points: 2
#     Edge 138, Type (0, 0), BuildingBlock: AJUNOK_clean_linker_0, # of connection points: 2
#     Edge 139, Type (0, 0), BuildingBlock: AJUNOK_clean_linker_0, # of connection points: 2
#     Edge 140, Type (0, 0), BuildingBlock: AJUNOK_clean_linker_0, # of connection points: 2
#     Edge 141, Type (0, 0), BuildingBlock: AJUNOK_clean_linker_0, # of connection points: 2
#     Edge 142, Type (0, 0), BuildingBlock: AJUNOK_clean_linker_0, # of connection points: 2
#     Edge 143, Type (0, 0), BuildingBlock: AJUNOK_clean_linker_0, # of connection points: 2
#     Edge 144, Type (0, 0), BuildingBlock: AJUNOK_clean_linker_0, # of connection points: 2
#     Edge 145, Type (0, 0), BuildingBlock: AJUNOK_clean_linker_0, # of connection points: 2
#     Edge 146, Type (0, 0), BuildingBlock: AJUNOK_clean_linker_0, # of connection points: 2
#     Edge 147, Type (0, 0), BuildingBlock: AJUNOK_clean_linker_0, # of connection points: 2
#     Edge 148, Type (0, 0), BuildingBlock: AJUNOK_clean_linker_0, # of connection points: 2
#     Edge 149, Type (0, 0), BuildingBlock: AJUNOK_clean_linker_0, # of connection points: 2
#     Edge 150, Type (0, 0), BuildingBlock: AJUNOK_clean_linker_0, # of connection points: 2
#     Edge 151, Type (0, 0), BuildingBlock: AJUNOK_clean_linker_0, # of connection points: 2
#     Edge 152, Type (0, 0), BuildingBlock: AJUNOK_clean_linker_0, # of connection points: 2
#     Edge 153, Type (0, 0), BuildingBlock: AJUNOK_clean_linker_0, # of connection points: 2
#     Edge 154, Type (0, 0), BuildingBlock: AJUNOK_clean_linker_0, # of connection points: 2
#     Edge 155, Type (0, 0), BuildingBlock: AJUNOK_clean_linker_0, # of connection points: 2
#     Edge 156, Type (0, 0), BuildingBlock: AJUNOK_clean_linker_0, # of connection points: 2
#     Edge 157, Type (0, 0), BuildingBlock: AJUNOK_clean_linker_0, # of connection points: 2
#     Edge 158, Type (0, 0), BuildingBlock: AJUNOK_clean_linker_0, # of connection points: 2
#     Edge 159, Type (0, 0), BuildingBlock: AJUNOK_clean_linker_0, # of connection points: 2
#     Edge 160, Type (0, 0), BuildingBlock: AJUNOK_clean_linker_0, # of connection points: 2
#     Edge 161, Type (0, 0), BuildingBlock: AJUNOK_clean_linker_0, # of connection points: 2
#     Edge 162, Type (0, 0), BuildingBlock: AJUNOK_clean_linker_0, # of connection points: 2
#     Edge 163, Type (0, 0), BuildingBlock: AJUNOK_clean_linker_0, # of connection points: 2
#     Edge 164, Type (0, 0), BuildingBlock: AJUNOK_clean_linker_0, # of connection points: 2
#     Edge 165, Type (0, 0), BuildingBlock: AJUNOK_clean_linker_0, # of connection points: 2
#     Edge 166, Type (0, 0), BuildingBlock: AJUNOK_clean_linker_0, # of connection points: 2
#     Edge 167, Type (0, 0), BuildingBlock: AJUNOK_clean_linker_0, # of connection points: 2
#     Edge 168, Type (0, 0), BuildingBlock: AJUNOK_clean_linker_0, # of connection points: 2
#     Edge 169, Type (0, 0), BuildingBlock: AJUNOK_clean_linker_0, # of connection points: 2
#     Edge 170, Type (0, 0), BuildingBlock: AJUNOK_clean_linker_0, # of connection points: 2
#     Edge 171, Type (0, 0), BuildingBlock: AJUNOK_clean_linker_0, # of connection points: 2
#     Edge 172, Type (0, 0), BuildingBlock: AJUNOK_clean_linker_0, # of connection points: 2
#     Edge 173, Type (0, 0), BuildingBlock: AJUNOK_clean_linker_0, # of connection points: 2
#     Edge 174, Type (0, 0), BuildingBlock: AJUNOK_clean_linker_0, # of connection points: 2
#     Edge 175, Type (0, 0), BuildingBlock: AJUNOK_clean_linker_0, # of connection points: 2
#     Edge 176, Type (0, 0), BuildingBlock: AJUNOK_clean_linker_0, # of connection points: 2
#     Edge 177, Type (0, 0), BuildingBlock: AJUNOK_clean_linker_0, # of connection points: 2
#     Edge 178, Type (0, 0), BuildingBlock: AJUNOK_clean_linker_0, # of connection points: 2
#     Edge 179, Type (0, 0), BuildingBlock: AJUNOK_clean_linker_0, # of connection points: 2
#     Edge 180, Type (0, 0), BuildingBlock: AJUNOK_clean_linker_0, # of connection points: 2
#     Edge 181, Type (0, 0), BuildingBlock: AJUNOK_clean_linker_0, # of connection points: 2
#     Edge 182, Type (0, 0), BuildingBlock: AJUNOK_clean_linker_0, # of connection points: 2
#     Edge 183, Type (0, 0), BuildingBlock: AJUNOK_clean_linker_0, # of connection points: 2
#     Edge 184, Type (0, 0), BuildingBlock: AJUNOK_clean_linker_0, # of connection points: 2
#     Edge 185, Type (0, 0), BuildingBlock: AJUNOK_clean_linker_0, # of connection points: 2
#     Edge 186, Type (0, 0), BuildingBlock: AJUNOK_clean_linker_0, # of connection points: 2
#     Edge 187, Type (0, 0), BuildingBlock: AJUNOK_clean_linker_0, # of connection points: 2
#     Edge 188, Type (0, 0), BuildingBlock: AJUNOK_clean_linker_0, # of connection points: 2
#     Edge 189, Type (0, 0), BuildingBlock: AJUNOK_clean_linker_0, # of connection points: 2
#     Edge 190, Type (0, 0), BuildingBlock: AJUNOK_clean_linker_0, # of connection points: 2
#     Edge 191, Type (0, 0), BuildingBlock: AJUNOK_clean_linker_0, # of connection points: 2
#     Edge 192, Type (0, 0), BuildingBlock: AJUNOK_clean_linker_0, # of connection points: 2
#     Edge 193, Type (0, 0), BuildingBlock: AJUNOK_clean_linker_0, # of connection points: 2
#     Edge 194, Type (0, 0), BuildingBlock: AJUNOK_clean_linker_0, # of connection points: 2
#     Edge 195, Type (0, 0), BuildingBlock: AJUNOK_clean_linker_0, # of connection points: 2
#     Edge 196, Type (0, 0), BuildingBlock: AJUNOK_clean_linker_0, # of connection points: 2
#     Edge 197, Type (0, 0), BuildingBlock: AJUNOK_clean_linker_0, # of connection points: 2
#     Edge 198, Type (0, 0), BuildingBlock: AJUNOK_clean_linker_0, # of connection points: 2
#     Edge 199, Type (0, 0), BuildingBlock: AJUNOK_clean_linker_0, # of connection points: 2
#     Edge 200, Type (0, 0), BuildingBlock: AJUNOK_clean_linker_0, # of connection points: 2
#     Edge 201, Type (0, 0), BuildingBlock: AJUNOK_clean_linker_0, # of connection points: 2
#     Edge 202, Type (0, 0), BuildingBlock: AJUNOK_clean_linker_0, # of connection points: 2
#     Edge 203, Type (0, 0), BuildingBlock: AJUNOK_clean_linker_0, # of connection points: 2
#     Edge 204, Type (0, 0), BuildingBlock: AJUNOK_clean_linker_0, # of connection points: 2
#     Edge 205, Type (0, 0), BuildingBlock: AJUNOK_clean_linker_0, # of connection points: 2
#     Edge 206, Type (0, 0), BuildingBlock: AJUNOK_clean_linker_0, # of connection points: 2
#     Edge 207, Type (0, 0), BuildingBlock: AJUNOK_clean_linker_0, # of connection points: 2
#     Edge 208, Type (0, 0), BuildingBlock: AJUNOK_clean_linker_0, # of connection points: 2
#     Edge 209, Type (0, 0), BuildingBlock: AJUNOK_clean_linker_0, # of connection points: 2
#     Edge 210, Type (0, 0), BuildingBlock: AJUNOK_clean_linker_0, # of connection points: 2
#     Edge 211, Type (0, 0), BuildingBlock: AJUNOK_clean_linker_0, # of connection points: 2
#     Edge 212, Type (0, 0), BuildingBlock: AJUNOK_clean_linker_0, # of connection points: 2
#     Edge 213, Type (0, 0), BuildingBlock: AJUNOK_clean_linker_0, # of connection points: 2
#     Edge 214, Type (0, 0), BuildingBlock: AJUNOK_clean_linker_0, # of connection points: 2
#     Edge 215, Type (0, 0), BuildingBlock: AJUNOK_clean_linker_0, # of connection points: 2
#     Edge 216, Type (0, 0), BuildingBlock: AJUNOK_clean_linker_0, # of connection points: 2
#     Edge 217, Type (0, 0), BuildingBlock: AJUNOK_clean_linker_0, # of connection points: 2
#     Edge 218, Type (0, 0), BuildingBlock: AJUNOK_clean_linker_0, # of connection points: 2
#     Edge 219, Type (0, 0), BuildingBlock: AJUNOK_clean_linker_0, # of connection points: 2
#     Edge 220, Type (0, 0), BuildingBlock: AJUNOK_clean_linker_0, # of connection points: 2
#     Edge 221, Type (0, 0), BuildingBlock: AJUNOK_clean_linker_0, # of connection points: 2
#     Edge 222, Type (0, 0), BuildingBlock: AJUNOK_clean_linker_0, # of connection points: 2
#     Edge 223, Type (0, 0), BuildingBlock: AJUNOK_clean_linker_0, # of connection points: 2
#     Edge 224, Type (0, 0), BuildingBlock: AJUNOK_clean_linker_0, # of connection points: 2
#     Edge 225, Type (0, 0), BuildingBlock: AJUNOK_clean_linker_0, # of connection points: 2
#     Edge 226, Type (0, 0), BuildingBlock: AJUNOK_clean_linker_0, # of connection points: 2
#     Edge 227, Type (0, 0), BuildingBlock: AJUNOK_clean_linker_0, # of connection points: 2
#     Edge 228, Type (0, 0), BuildingBlock: AJUNOK_clean_linker_0, # of connection points: 2
#     Edge 229, Type (0, 0), BuildingBlock: AJUNOK_clean_linker_0, # of connection points: 2
#     Edge 230, Type (0, 0), BuildingBlock: AJUNOK_clean_linker_0, # of connection points: 2
#     Edge 231, Type (0, 0), BuildingBlock: AJUNOK_clean_linker_0, # of connection points: 2
#     Edge 232, Type (0, 0), BuildingBlock: AJUNOK_clean_linker_0, # of connection points: 2
#     Edge 233, Type (0, 0), BuildingBlock: AJUNOK_clean_linker_0, # of connection points: 2
#     Edge 234, Type (0, 0), BuildingBlock: AJUNOK_clean_linker_0, # of connection points: 2
#     Edge 235, Type (0, 0), BuildingBlock: AJUNOK_clean_linker_0, # of connection points: 2
#     Edge 236, Type (0, 0), BuildingBlock: AJUNOK_clean_linker_0, # of connection points: 2
#     Edge 237, Type (0, 0), BuildingBlock: AJUNOK_clean_linker_0, # of connection points: 2
#     Edge 238, Type (0, 0), BuildingBlock: AJUNOK_clean_linker_0, # of connection points: 2
#     Edge 239, Type (0, 0), BuildingBlock: AJUNOK_clean_linker_0, # of connection points: 2
#     Edge 240, Type (0, 0), BuildingBlock: AJUNOK_clean_linker_0, # of connection points: 2
#     Edge 241, Type (0, 0), BuildingBlock: AJUNOK_clean_linker_0, # of connection points: 2
#     Edge 242, Type (0, 0), BuildingBlock: AJUNOK_clean_linker_0, # of connection points: 2
#     Edge 243, Type (0, 0), BuildingBlock: AJUNOK_clean_linker_0, # of connection points: 2
#     Edge 244, Type (0, 0), BuildingBlock: AJUNOK_clean_linker_0, # of connection points: 2
#     Edge 245, Type (0, 0), BuildingBlock: AJUNOK_clean_linker_0, # of connection points: 2
#     Edge 246, Type (0, 0), BuildingBlock: AJUNOK_clean_linker_0, # of connection points: 2
#     Edge 247, Type (0, 0), BuildingBlock: AJUNOK_clean_linker_0, # of connection points: 2
#     Edge 248, Type (0, 0), BuildingBlock: AJUNOK_clean_linker_0, # of connection points: 2
#     Edge 249, Type (0, 0), BuildingBlock: AJUNOK_clean_linker_0, # of connection points: 2
#     Edge 250, Type (0, 0), BuildingBlock: AJUNOK_clean_linker_0, # of connection points: 2
#     Edge 251, Type (0, 0), BuildingBlock: AJUNOK_clean_linker_0, # of connection points: 2
#     Edge 252, Type (0, 0), BuildingBlock: AJUNOK_clean_linker_0, # of connection points: 2
#     Edge 253, Type (0, 0), BuildingBlock: AJUNOK_clean_linker_0, # of connection points: 2
#     Edge 254, Type (0, 0), BuildingBlock: AJUNOK_clean_linker_0, # of connection points: 2
#     Edge 255, Type (0, 0), BuildingBlock: AJUNOK_clean_linker_0, # of connection points: 2
#     Edge 256, Type (0, 0), BuildingBlock: AJUNOK_clean_linker_0, # of connection points: 2
#     Edge 257, Type (0, 0), BuildingBlock: AJUNOK_clean_linker_0, # of connection points: 2
#     Edge 258, Type (0, 0), BuildingBlock: AJUNOK_clean_linker_0, # of connection points: 2
#     Edge 259, Type (0, 0), BuildingBlock: AJUNOK_clean_linker_0, # of connection points: 2
#     Edge 260, Type (0, 0), BuildingBlock: AJUNOK_clean_linker_0, # of connection points: 2
#     Edge 261, Type (0, 0), BuildingBlock: AJUNOK_clean_linker_0, # of connection points: 2
#     Edge 262, Type (0, 0), BuildingBlock: AJUNOK_clean_linker_0, # of connection points: 2
#     Edge 263, Type (0, 0), BuildingBlock: AJUNOK_clean_linker_0, # of connection points: 2
#     Edge 264, Type (0, 0), BuildingBlock: AJUNOK_clean_linker_0, # of connection points: 2
#     Edge 265, Type (0, 0), BuildingBlock: AJUNOK_clean_linker_0, # of connection points: 2
#     Edge 266, Type (0, 0), BuildingBlock: AJUNOK_clean_linker_0, # of connection points: 2
#     Edge 267, Type (0, 0), BuildingBlock: AJUNOK_clean_linker_0, # of connection points: 2
#     Edge 268, Type (0, 0), BuildingBlock: AJUNOK_clean_linker_0, # of connection points: 2
#     Edge 269, Type (0, 0), BuildingBlock: AJUNOK_clean_linker_0, # of connection points: 2
#     Edge 270, Type (0, 0), BuildingBlock: AJUNOK_clean_linker_0, # of connection points: 2
#     Edge 271, Type (0, 0), BuildingBlock: AJUNOK_clean_linker_0, # of connection points: 2
#     Edge 272, Type (0, 0), BuildingBlock: AJUNOK_clean_linker_0, # of connection points: 2
#     Edge 273, Type (0, 0), BuildingBlock: AJUNOK_clean_linker_0, # of connection points: 2
#     Edge 274, Type (0, 0), BuildingBlock: AJUNOK_clean_linker_0, # of connection points: 2
#     Edge 275, Type (0, 0), BuildingBlock: AJUNOK_clean_linker_0, # of connection points: 2
#     Edge 276, Type (0, 0), BuildingBlock: AJUNOK_clean_linker_0, # of connection points: 2
#     Edge 277, Type (0, 0), BuildingBlock: AJUNOK_clean_linker_0, # of connection points: 2
#     Edge 278, Type (0, 0), BuildingBlock: AJUNOK_clean_linker_0, # of connection points: 2
#     Edge 279, Type (0, 0), BuildingBlock: AJUNOK_clean_linker_0, # of connection points: 2
#     Edge 280, Type (0, 0), BuildingBlock: AJUNOK_clean_linker_0, # of connection points: 2
#     Edge 281, Type (0, 0), BuildingBlock: AJUNOK_clean_linker_0, # of connection points: 2
#     Edge 282, Type (0, 0), BuildingBlock: AJUNOK_clean_linker_0, # of connection points: 2
#     Edge 283, Type (0, 0), BuildingBlock: AJUNOK_clean_linker_0, # of connection points: 2
#     Edge 284, Type (0, 0), BuildingBlock: AJUNOK_clean_linker_0, # of connection points: 2
#     Edge 285, Type (0, 0), BuildingBlock: AJUNOK_clean_linker_0, # of connection points: 2
#     Edge 286, Type (0, 0), BuildingBlock: AJUNOK_clean_linker_0, # of connection points: 2
#     Edge 287, Type (0, 0), BuildingBlock: AJUNOK_clean_linker_0, # of connection points: 2
# Relax obj value: 0.230
# Max RMSD: 0.098
# Mean RMSD: 0.097
data_MOF--net-wse--node1-NAHDIM_clean_sbu_0--edge1-AJUNOK_clean_linker_0
_symmetry_space_group_name_H-M    P1
_symmetry_Int_Tables_number       1
_symmetry_cell_setting            triclinic
loop_
_symmetry_equiv_pos_as_xyz
'x, y, z'
_cell_length_a     74.505641
_cell_length_b     74.489326
_cell_length_c     74.514669
_cell_angle_alpha  90.005444
_cell_angle_beta   90.003336
_cell_angle_gamma 90.008353
loop_
_atom_site_label
_atom_site_type_symbol
_atom_site_fract_x
_atom_site_fract_y
_atom_site_fract_z
_atom_type_partial_charge
C0 C 0.10292 0.14174 0.40881 0.0
O1 O 0.08694 0.1352 0.41238 0.0
O2 O 0.06212 0.17187 0.40892 0.0
Zn3 Zn 0.08639 0.17457 0.42063 0.0
O4 O 0.08333 0.1694 0.44698 0.0
C5 C 0.08946 0.20951 0.40455 0.0
O6 O 0.08115 0.20152 0.39121 0.0
O7 O 0.10553 0.15847 0.41063 0.0
C8 C 0.09307 0.17686 0.45882 0.0
O9 O 0.10601 0.18767 0.45365 0.0
C10 C 0.05028 0.16179 0.4159 0.0
O11 O 0.05484 0.15151 0.42949 0.0
O12 O 0.09371 0.20034 0.41828 0.0
C13 C 0.85598 0.1038 0.41124 0.0
O14 O 0.86178 0.08729 0.4134 0.0
O15 O 0.82522 0.0643 0.41238 0.0
Zn16 Zn 0.82205 0.08887 0.42326 0.0
O17 O 0.824 0.08619 0.45007 0.0
C18 C 0.78866 0.09139 0.40432 0.0
O19 O 0.7974 0.0818 0.3924 0.0
O20 O 0.83959 0.10728 0.41432 0.0
C21 C 0.81277 0.07567 0.45745 0.0
O22 O 0.80082 0.0676 0.44728 0.0
C23 C 0.83493 0.05253 0.42 0.0
O24 O 0.8447 0.05729 0.43389 0.0
O25 O 0.7969 0.09682 0.41821 0.0
C26 C 0.89868 0.86135 0.41382 0.0
O27 O 0.9134 0.86701 0.42172 0.0
O28 O 0.93855 0.82876 0.41443 0.0
Zn29 Zn 0.91318 0.82724 0.42389 0.0
O30 O 0.91361 0.83195 0.45056 0.0
C31 C 0.90949 0.79241 0.40728 0.0
O32 O 0.92012 0.79949 0.39512 0.0
O33 O 0.89613 0.84457 0.41234 0.0
C34 C 0.91802 0.81917 0.46095 0.0
O35 O 0.92214 0.80352 0.45393 0.0
C36 C 0.95059 0.83725 0.42303 0.0
O37 O 0.94592 0.8465 0.4373 0.0
O38 O 0.9043 0.80206 0.42032 0.0
C39 C 0.13974 0.89796 0.40498 0.0
O40 O 0.13383 0.91455 0.40423 0.0
O41 O 0.16954 0.93817 0.40952 0.0
Zn42 Zn 0.17164 0.91391 0.42126 0.0
O43 O 0.16632 0.91715 0.44759 0.0
C44 C 0.20695 0.90968 0.40588 0.0
O45 O 0.19973 0.91823 0.39226 0.0
O46 O 0.15539 0.89501 0.41106 0.0
C47 C 0.17376 0.90731 0.45937 0.0
O48 O 0.18433 0.89423 0.4541 0.0
C49 C 0.15865 0.94965 0.41587 0.0
O50 O 0.14752 0.94461 0.42858 0.0
O51 O 0.19723 0.90593 0.41936 0.0
C52 C 0.09978 0.8566 0.59013 0.0
O53 O 0.08343 0.86315 0.58966 0.0
O54 O 0.059 0.82686 0.58766 0.0
Zn55 Zn 0.08308 0.82433 0.57566 0.0
O56 O 0.07962 0.8295 0.54935 0.0
C57 C 0.08715 0.78975 0.59218 0.0
O58 O 0.07922 0.79789 0.60565 0.0
O59 O 0.10232 0.84041 0.58544 0.0
C60 C 0.08918 0.82213 0.53732 0.0
O61 O 0.10221 0.81133 0.54222 0.0
C62 C 0.04718 0.83714 0.58094 0.0
O63 O 0.05175 0.84774 0.56762 0.0
O64 O 0.09068 0.79865 0.57807 0.0
C65 C 0.13874 0.09856 0.58968 0.0
O66 O 0.13135 0.08347 0.58431 0.0
O67 O 0.16826 0.05664 0.58529 0.0
Zn68 Zn 0.17134 0.08208 0.57641 0.0
O69 O 0.16642 0.08246 0.54986 0.0
C70 C 0.20602 0.08391 0.59323 0.0
O71 O 0.19796 0.0744 0.60569 0.0
O72 O 0.15563 0.10034 0.58839 0.0
C73 C 0.17721 0.07419 0.53957 0.0
O74 O 0.19114 0.06604 0.54668 0.0
C75 C 0.15837 0.0457 0.57671 0.0
O76 O 0.14853 0.05181 0.56343 0.0
O77 O 0.19704 0.08912 0.57972 0.0
C78 C 0.90204 0.13871 0.58705 0.0
O79 O 0.9169 0.13279 0.57966 0.0
O80 O 0.94234 0.17021 0.58379 0.0
Zn81 Zn 0.91648 0.17261 0.57587 0.0
O82 O 0.91539 0.16828 0.54925 0.0
C83 C 0.91391 0.20674 0.59373 0.0
O84 O 0.92407 0.19869 0.60567 0.0
O85 O 0.89945 0.15554 0.58787 0.0
C86 C 0.92336 0.17915 0.53881 0.0
O87 O 0.93165 0.19307 0.54578 0.0
C88 C 0.95333 0.16102 0.57451 0.0
O89 O 0.94716 0.15154 0.56099 0.0
O90 O 0.90857 0.19792 0.58016 0.0
C91 C 0.85663 0.89655 0.59145 0.0
O92 O 0.86349 0.91249 0.58828 0.0
O93 O 0.82613 0.93741 0.58783 0.0
Zn94 Zn 0.82404 0.9125 0.57738 0.0
O95 O 0.82974 0.91402 0.55105 0.0
C96 C 0.78824 0.90999 0.59172 0.0
O97 O 0.79474 0.92077 0.60408 0.0
O98 O 0.84003 0.89402 0.5886 0.0
C99 C 0.81893 0.92247 0.54094 0.0
O100 O 0.80443 0.92957 0.54806 0.0
C101 C 0.8365 0.94887 0.58061 0.0
O102 O 0.84731 0.94359 0.56772 0.0
O103 O 0.79851 0.90443 0.57933 0.0
C104 C 0.41111 0.09682 0.14374 0.0
O105 O 0.41528 0.08055 0.13835 0.0
O106 O 0.41321 0.05789 0.17524 0.0
Zn107 Zn 0.42232 0.08325 0.17832 0.0
O108 O 0.44927 0.08285 0.17642 0.0
C109 C 0.40435 0.08524 0.21274 0.0
O110 O 0.39387 0.07285 0.20584 0.0
O111 O 0.41249 0.10063 0.16029 0.0
C112 C 0.45778 0.07413 0.18834 0.0
O113 O 0.4486 0.06598 0.20101 0.0
C114 C 0.4221 0.04657 0.16607 0.0
O115 O 0.43644 0.05206 0.15739 0.0
O116 O 0.41679 0.09185 0.20317 0.0
C117 C 0.89839 0.40671 0.14606 0.0
O118 O 0.91499 0.4044 0.1406 0.0
O119 O 0.93869 0.41308 0.17494 0.0
Zn120 Zn 0.91419 0.4242 0.17767 0.0
O121 O 0.91664 0.45084 0.17397 0.0
C122 C 0.91008 0.40739 0.21237 0.0
O123 O 0.91993 0.39464 0.20519 0.0
O124 O 0.8955 0.41439 0.161 0.0
C125 C 0.92767 0.45907 0.18406 0.0
O126 O 0.93678 0.44977 0.19596 0.0
C127 C 0.94972 0.4194 0.16358 0.0
O128 O 0.94417 0.4319 0.15244 0.0
O129 O 0.90585 0.42092 0.20295 0.0
C130 C 0.58636 0.89867 0.13819 0.0
O131 O 0.57935 0.9135 0.13167 0.0
O132 O 0.58366 0.94077 0.16583 0.0
Zn133 Zn 0.57534 0.91541 0.17056 0.0
O134 O 0.54881 0.91523 0.16504 0.0
C135 C 0.59043 0.91756 0.20629 0.0
O136 O 0.6017 0.9287 0.19856 0.0
O137 O 0.58716 0.89683 0.1551 0.0
C138 C 0.53737 0.90777 0.17526 0.0
O139 O 0.54307 0.89883 0.18934 0.0
C140 C 0.5735 0.95209 0.17359 0.0
O141 O 0.56038 0.94609 0.18372 0.0
O142 O 0.57863 0.9098 0.19675 0.0
C143 C 0.095 0.59122 0.14263 0.0
O144 O 0.07821 0.5912 0.13726 0.0
O145 O 0.05629 0.58758 0.17374 0.0
Zn146 Zn 0.08082 0.57645 0.1761 0.0
O147 O 0.07793 0.54966 0.17383 0.0
C148 C 0.086 0.59516 0.20955 0.0
O149 O 0.07661 0.60775 0.20153 0.0
O150 O 0.09876 0.58571 0.15831 0.0
C151 C 0.06725 0.54241 0.185 0.0
O152 O 0.05925 0.55271 0.19687 0.0
C153 C 0.04475 0.58062 0.16329 0.0
O154 O 0.04974 0.56736 0.15278 0.0
O155 O 0.08987 0.58097 0.20094 0.0
C156 C 0.41001 0.90019 0.85933 0.0
O157 O 0.41432 0.91575 0.86639 0.0
O158 O 0.40845 0.94236 0.83006 0.0
Zn159 Zn 0.41991 0.91803 0.82629 0.0
O160 O 0.44643 0.92089 0.83079 0.0
C161 C 0.40706 0.91886 0.78935 0.0
O162 O 0.39719 0.93234 0.79501 0.0
O163 O 0.41058 0.89842 0.84239 0.0
C164 C 0.45807 0.91206 0.82199 0.0
O165 O 0.45262 0.90019 0.81015 0.0
C166 C 0.41571 0.95358 0.84069 0.0
O167 O 0.42939 0.94833 0.85049 0.0
O168 O 0.41708 0.91069 0.80046 0.0
C169 C 0.09352 0.41054 0.85732 0.0
O170 O 0.07682 0.41232 0.86266 0.0
O171 O 0.05514 0.41334 0.82536 0.0
Zn172 Zn 0.07959 0.42479 0.82404 0.0
O173 O 0.07671 0.45115 0.82929 0.0
C174 C 0.0862 0.40803 0.78991 0.0
O175 O 0.0783 0.39431 0.79767 0.0
O176 O 0.09746 0.41434 0.84119 0.0
C177 C 0.08725 0.46285 0.82274 0.0
O178 O 0.10074 0.45751 0.81273 0.0
C179 C 0.04304 0.42027 0.83516 0.0
O180 O 0.04733 0.43379 0.84565 0.0
O181 O 0.08861 0.42233 0.79886 0.0
C182 C 0.58957 0.09855 0.85022 0.0
O183 O 0.59421 0.08215 0.85473 0.0
O184 O 0.58261 0.05748 0.82391 0.0
Zn185 Zn 0.57189 0.08187 0.81925 0.0
O186 O 0.5451 0.07942 0.8218 0.0
C187 C 0.58824 0.08152 0.78403 0.0
O188 O 0.59817 0.06869 0.79093 0.0
O189 O 0.58065 0.10107 0.83592 0.0
C190 C 0.53753 0.06704 0.81282 0.0
O191 O 0.54745 0.05696 0.80229 0.0
C192 C 0.5756 0.04734 0.83569 0.0
O193 O 0.56294 0.05393 0.84604 0.0
O194 O 0.57659 0.0892 0.79382 0.0
C195 C 0.90275 0.58957 0.85358 0.0
O196 O 0.91904 0.58954 0.86031 0.0
O197 O 0.94369 0.58542 0.82464 0.0
Zn198 Zn 0.91956 0.57354 0.82199 0.0
O199 O 0.92252 0.54726 0.82752 0.0
C200 C 0.9144 0.58967 0.78721 0.0
O201 O 0.92178 0.60366 0.79501 0.0
O202 O 0.90032 0.58387 0.83771 0.0
C203 C 0.9112 0.53573 0.82209 0.0
O204 O 0.89699 0.54128 0.81325 0.0
C205 C 0.95514 0.57903 0.83554 0.0
O206 O 0.95024 0.56589 0.84624 0.0
O207 O 0.91189 0.57549 0.79631 0.0
C208 C 0.14543 0.41091 0.09956 0.0
O209 O 0.14061 0.40798 0.08287 0.0
O210 O 0.17279 0.41648 0.05901 0.0
Zn211 Zn 0.17787 0.42638 0.08369 0.0
O212 O 0.17609 0.45326 0.08195 0.0
C213 C 0.2125 0.409 0.08236 0.0
O214 O 0.20477 0.39939 0.06977 0.0
O215 O 0.16069 0.41787 0.10268 0.0
C216 C 0.18621 0.4614 0.0709 0.0
O217 O 0.19762 0.45194 0.06132 0.0
C218 C 0.1615 0.42431 0.0489 0.0
O219 O 0.15197 0.43757 0.05555 0.0
O220 O 0.20331 0.42074 0.09062 0.0
C221 C 0.1476 0.59518 0.89828 0.0
O222 O 0.14315 0.5986 0.91498 0.0
O223 O 0.17544 0.58844 0.93828 0.0
Zn224 Zn 0.17969 0.57835 0.91357 0.0
O225 O 0.17787 0.55145 0.91554 0.0
C226 C 0.21391 0.59662 0.9125 0.0
O227 O 0.20612 0.6076 0.92388 0.0
O228 O 0.16234 0.58726 0.89501 0.0
C229 C 0.18952 0.54371 0.92532 0.0
O230 O 0.20178 0.5536 0.93325 0.0
C231 C 0.16395 0.58101 0.94845 0.0
O232 O 0.15399 0.56801 0.9419 0.0
O233 O 0.20488 0.58376 0.90591 0.0
C234 C 0.40851 0.14945 0.90115 0.0
O235 O 0.40511 0.14398 0.91755 0.0
O236 O 0.41619 0.17137 0.94355 0.0
Zn237 Zn 0.42495 0.1798 0.91936 0.0
O238 O 0.45196 0.17833 0.91966 0.0
C239 C 0.41414 0.21527 0.92959 0.0
O240 O 0.41141 0.20709 0.94495 0.0
O241 O 0.41606 0.16458 0.89889 0.0
C242 C 0.4606 0.18697 0.93157 0.0
O243 O 0.45159 0.19667 0.94322 0.0
C244 C 0.42513 0.16002 0.95261 0.0
O245 O 0.43878 0.15192 0.94494 0.0
O246 O 0.41886 0.20602 0.91604 0.0
C247 C 0.85518 0.40631 0.89731 0.0
O248 O 0.86221 0.40379 0.91328 0.0
O249 O 0.82792 0.41111 0.93946 0.0
Zn250 Zn 0.8259 0.42464 0.9162 0.0
O251 O 0.8334 0.4502 0.92067 0.0
C252 C 0.79019 0.41133 0.91012 0.0
O253 O 0.79714 0.3962 0.91596 0.0
O254 O 0.84022 0.41434 0.89595 0.0
C255 C 0.82744 0.46286 0.91094 0.0
O256 O 0.81689 0.45892 0.89737 0.0
C257 C 0.83997 0.41547 0.95071 0.0
O258 O 0.85209 0.42736 0.94595 0.0
O259 O 0.8001 0.42512 0.90901 0.0
C260 C 0.59094 0.85614 0.89861 0.0
O261 O 0.58754 0.86181 0.91496 0.0
O262 O 0.58511 0.82486 0.9372 0.0
Zn263 Zn 0.576 0.82279 0.9118 0.0
O264 O 0.54932 0.8271 0.91196 0.0
C265 C 0.59384 0.78886 0.908 0.0
O266 O 0.6064 0.79709 0.91725 0.0
O267 O 0.58765 0.8399 0.89464 0.0
C268 C 0.53948 0.81525 0.9193 0.0
O269 O 0.54716 0.801 0.92628 0.0
C270 C 0.57703 0.83486 0.94841 0.0
O271 O 0.56372 0.84494 0.94275 0.0
O272 O 0.57989 0.79755 0.90351 0.0
C273 C 0.85143 0.58686 0.09762 0.0
O274 O 0.85681 0.59066 0.08127 0.0
O275 O 0.82451 0.58164 0.05616 0.0
Zn276 Zn 0.82135 0.56895 0.0798 0.0
O277 O 0.82649 0.54269 0.07624 0.0
C278 C 0.78543 0.58369 0.08476 0.0
O279 O 0.79244 0.5988 0.07895 0.0
O280 O 0.83677 0.57842 0.09977 0.0
C281 C 0.81695 0.53443 0.06477 0.0
O282 O 0.80498 0.54357 0.05559 0.0
C283 C 0.83623 0.57625 0.04501 0.0
O284 O 0.84745 0.56357 0.04997 0.0
O285 O 0.79545 0.57004 0.08662 0.0
C286 C 0.40661 0.85588 0.09842 0.0
O287 O 0.41198 0.86145 0.08259 0.0
O288 O 0.40999 0.82323 0.05975 0.0
Zn289 Zn 0.41964 0.82216 0.08502 0.0
O290 O 0.44606 0.82773 0.08432 0.0
C291 C 0.40324 0.78768 0.08915 0.0
O292 O 0.39046 0.79548 0.07984 0.0
O293 O 0.40773 0.83927 0.10207 0.0
C294 C 0.45666 0.81651 0.07709 0.0
O295 O 0.45001 0.80153 0.07057 0.0
C296 C 0.41766 0.83258 0.04774 0.0
O297 O 0.43101 0.84313 0.05239 0.0
O298 O 0.41687 0.79685 0.09371 0.0
C299 C 0.59688 0.13846 0.09501 0.0
O300 O 0.59239 0.13164 0.07939 0.0
O301 O 0.59704 0.16783 0.05361 0.0
Zn302 Zn 0.58596 0.17143 0.07805 0.0
O303 O 0.55938 0.16679 0.07585 0.0
C304 C 0.58668 0.20878 0.07261 0.0
O305 O 0.58272 0.20311 0.05638 0.0
O306 O 0.59599 0.15534 0.09718 0.0
C307 C 0.54775 0.17548 0.08479 0.0
O308 O 0.55319 0.18755 0.09642 0.0
C309 C 0.58916 0.15791 0.04219 0.0
O310 O 0.57541 0.14821 0.04746 0.0
O311 O 0.58922 0.19728 0.08493 0.0
C312 C 0.90359 0.83489 0.58968 0.0
O313 O 0.8968 0.81892 0.58653 0.0
O314 O 0.93112 0.79374 0.58362 0.0
Zn315 Zn 0.93543 0.81899 0.57455 0.0
O316 O 0.92913 0.81839 0.5483 0.0
C317 C 0.97138 0.82145 0.5898 0.0
O318 O 0.96469 0.81161 0.6028 0.0
O319 O 0.92007 0.8376 0.58636 0.0
C320 C 0.92735 0.83152 0.5376 0.0
O321 O 0.92949 0.84795 0.54366 0.0
C322 C 0.9361 0.7818 0.57246 0.0
O323 O 0.94436 0.78683 0.55773 0.0
O324 O 0.96133 0.82598 0.57678 0.0
C325 C 0.16242 0.90235 0.5883 0.0
O326 O 0.17818 0.89489 0.58567 0.0
O327 O 0.20423 0.93018 0.58094 0.0
Zn328 Zn 0.17902 0.93317 0.57121 0.0
O329 O 0.17922 0.92479 0.54556 0.0
C330 C 0.17357 0.96952 0.58479 0.0
O331 O 0.18119 0.96335 0.59945 0.0
O332 O 0.16027 0.91873 0.58411 0.0
C333 C 0.16695 0.9285 0.53434 0.0
O334 O 0.15342 0.93861 0.53944 0.0
C335 C 0.2142 0.91794 0.57437 0.0
O336 O 0.20727 0.90682 0.56259 0.0
O337 O 0.17167 0.95913 0.5714 0.0
C338 C 0.09553 0.16284 0.58943 0.0
O339 O 0.10333 0.17864 0.58901 0.0
O340 O 0.06964 0.20577 0.58038 0.0
Zn341 Zn 0.06628 0.18075 0.57038 0.0
O342 O 0.07524 0.18116 0.54495 0.0
C343 C 0.02961 0.17576 0.5831 0.0
O344 O 0.03578 0.18246 0.5982 0.0
O345 O 0.07972 0.16128 0.58327 0.0
C346 C 0.07173 0.16894 0.5336 0.0
O347 O 0.06157 0.15537 0.53846 0.0
C348 C 0.0824 0.21538 0.5743 0.0
O349 O 0.09404 0.20799 0.56333 0.0
O350 O 0.04014 0.17421 0.56978 0.0
C351 C 0.84028 0.09184 0.58896 0.0
O352 O 0.82424 0.09916 0.58915 0.0
O353 O 0.79749 0.0666 0.58024 0.0
Zn354 Zn 0.82262 0.0614 0.57135 0.0
O355 O 0.8236 0.0671 0.545 0.0
C356 C 0.82296 0.02548 0.58708 0.0
O357 O 0.81292 0.03271 0.59963 0.0
O358 O 0.84204 0.07597 0.58301 0.0
C359 C 0.8129 0.05959 0.53407 0.0
O360 O 0.80122 0.04791 0.54027 0.0
C361 C 0.78827 0.07911 0.57314 0.0
O362 O 0.79595 0.08956 0.5612 0.0
O363 O 0.82843 0.03521 0.57418 0.0
C364 C 0.90667 0.16277 0.4087 0.0
O365 O 0.90179 0.17944 0.40578 0.0
O366 O 0.93422 0.20332 0.4158 0.0
Zn367 Zn 0.93891 0.17836 0.42525 0.0
O368 O 0.93617 0.1797 0.45214 0.0
C369 C 0.9743 0.1768 0.408 0.0
O370 O 0.96773 0.18871 0.39678 0.0
O371 O 0.92185 0.15969 0.41583 0.0
C372 C 0.92827 0.16782 0.4615 0.0
O373 O 0.92164 0.15359 0.45348 0.0
C374 C 0.92191 0.21254 0.42323 0.0
O375 O 0.91189 0.20487 0.43555 0.0
O376 O 0.96433 0.17073 0.42044 0.0
C377 C 0.83817 0.91002 0.4101 0.0
O378 O 0.82205 0.9047 0.40539 0.0
O379 O 0.79588 0.93534 0.41685 0.0
Zn380 Zn 0.82011 0.94048 0.42782 0.0
O381 O 0.81783 0.93662 0.45447 0.0
C382 C 0.82107 0.97628 0.41172 0.0
O383 O 0.8099 0.96951 0.39988 0.0
O384 O 0.83992 0.92462 0.41873 0.0
C385 C 0.83102 0.93188 0.4642 0.0
O386 O 0.84678 0.92953 0.45667 0.0
C387 C 0.78627 0.92278 0.42328 0.0
O388 O 0.79308 0.91252 0.4359 0.0
O389 O 0.82701 0.96629 0.4242 0.0
C390 C 0.09295 0.83623 0.40594 0.0
O391 O 0.09982 0.82 0.40623 0.0
O392 O 0.06678 0.79463 0.41574 0.0
Zn393 Zn 0.06326 0.81976 0.42534 0.0
O394 O 0.07173 0.81946 0.45097 0.0
C395 C 0.02663 0.82284 0.41214 0.0
O396 O 0.03311 0.81468 0.39792 0.0
O397 O 0.0774 0.83875 0.41243 0.0
C398 C 0.06739 0.83101 0.46271 0.0
O399 O 0.05646 0.84411 0.45825 0.0
C400 C 0.07953 0.78519 0.42208 0.0
O401 O 0.09094 0.79276 0.43317 0.0
O402 O 0.03707 0.82631 0.42518 0.0
C403 C 0.1637 0.09324 0.40902 0.0
O404 O 0.18033 0.09854 0.40663 0.0
O405 O 0.2041 0.0644 0.41653 0.0
Zn406 Zn 0.17893 0.06067 0.42584 0.0
O407 O 0.18004 0.06354 0.45268 0.0
C408 C 0.17609 0.0251 0.40902 0.0
O409 O 0.18893 0.03061 0.39827 0.0
O410 O 0.16074 0.07801 0.41609 0.0
C411 C 0.16708 0.0694 0.4621 0.0
O412 O 0.152 0.0738 0.45411 0.0
C413 C 0.21373 0.0764 0.42396 0.0
O414 O 0.20632 0.08686 0.43607 0.0
O415 O 0.17027 0.03558 0.42114 0.0
C416 C 0.5921 0.90589 0.83942 0.0
O417 O 0.59726 0.90172 0.8231 0.0
O418 O 0.5824 0.93062 0.79803 0.0
Zn419 Zn 0.57098 0.93429 0.82225 0.0
O420 O 0.5451 0.92715 0.81989 0.0
C421 C 0.58489 0.97062 0.82573 0.0
O422 O 0.59867 0.96429 0.81673 0.0
O423 O 0.58181 0.91928 0.84174 0.0
C424 C 0.53348 0.93048 0.83189 0.0
O425 O 0.53844 0.93915 0.84643 0.0
C426 C 0.57725 0.91755 0.78833 0.0
O427 O 0.56573 0.906 0.79504 0.0
O428 O 0.57187 0.96025 0.82938 0.0
C429 C 0.0983 0.59487 0.83853 0.0
O430 O 0.1044 0.59507 0.822 0.0
O431 O 0.07155 0.58579 0.79769 0.0
Zn432 Zn 0.06782 0.57627 0.82278 0.0
O433 O 0.07493 0.55023 0.82215 0.0
C434 C 0.03145 0.59034 0.82428 0.0
O435 O 0.03812 0.60332 0.81438 0.0
O436 O 0.08285 0.58837 0.84159 0.0
C437 C 0.06918 0.53833 0.83289 0.0
O438 O 0.05772 0.54293 0.84548 0.0
C439 C 0.08391 0.57898 0.78806 0.0
O440 O 0.09496 0.56741 0.79544 0.0
O441 O 0.04173 0.57776 0.82946 0.0
C442 C 0.4118 0.09999 0.84124 0.0
O443 O 0.41624 0.10599 0.82528 0.0
O444 O 0.41534 0.06976 0.80143 0.0
Zn445 Zn 0.42395 0.06587 0.82687 0.0
O446 O 0.45081 0.06871 0.82698 0.0
C447 C 0.40793 0.02986 0.82748 0.0
O448 O 0.39849 0.0355 0.81369 0.0
O449 O 0.4134 0.08334 0.84455 0.0
C450 C 0.46003 0.05735 0.81821 0.0
O451 O 0.45162 0.04436 0.80976 0.0
C452 C 0.42401 0.08005 0.79091 0.0
O453 O 0.43786 0.08897 0.79723 0.0
O454 O 0.41889 0.04056 0.83497 0.0
C455 C 0.89914 0.40783 0.83374 0.0
O456 O 0.89207 0.41351 0.81864 0.0
O457 O 0.92834 0.41375 0.79257 0.0
Zn458 Zn 0.93096 0.42264 0.81803 0.0
O459 O 0.92321 0.44852 0.81859 0.0
C460 C 0.96735 0.40892 0.82042 0.0
O461 O 0.96111 0.39596 0.81022 0.0
O462 O 0.91597 0.4093 0.83594 0.0
C463 C 0.92957 0.46006 0.8294 0.0
O464 O 0.94195 0.45511 0.84095 0.0
C465 C 0.91736 0.42136 0.78195 0.0
O466 O 0.9067 0.4339 0.78829 0.0
O467 O 0.95682 0.42138 0.82537 0.0
C468 C 0.59317 0.09351 0.15808 0.0
O469 O 0.59593 0.09984 0.1743 0.0
O470 O 0.58177 0.07296 0.2011 0.0
Zn471 Zn 0.5719 0.06662 0.17673 0.0
O472 O 0.54572 0.07318 0.17629 0.0
C473 C 0.5851 0.02928 0.16994 0.0
O474 O 0.60124 0.0358 0.16709 0.0
O475 O 0.58411 0.07917 0.15625 0.0
C476 C 0.53552 0.0652 0.18739 0.0
O477 O 0.54268 0.05369 0.19867 0.0
C478 C 0.57545 0.08619 0.20985 0.0
O479 O 0.56365 0.09669 0.20202 0.0
O480 O 0.57232 0.03989 0.17374 0.0
C481 C 0.89909 0.58636 0.15895 0.0
O482 O 0.89264 0.5812 0.17452 0.0
O483 O 0.92806 0.58149 0.19989 0.0
Zn484 Zn 0.9323 0.57366 0.17423 0.0
O485 O 0.9283 0.547 0.17278 0.0
C486 C 0.96821 0.58928 0.17507 0.0
O487 O 0.96155 0.59949 0.18781 0.0
O488 O 0.91589 0.58531 0.15627 0.0
C489 C 0.93843 0.53658 0.18168 0.0
O490 O 0.95128 0.54362 0.19151 0.0
C491 C 0.91746 0.57271 0.21002 0.0
O492 O 0.90825 0.55935 0.20313 0.0
O493 O 0.95804 0.57797 0.16736 0.0
C494 C 0.4053 0.9046 0.1586 0.0
O495 O 0.40246 0.8985 0.17489 0.0
O496 O 0.41474 0.92872 0.20095 0.0
Zn497 Zn 0.42545 0.93317 0.17649 0.0
O498 O 0.45124 0.92544 0.17797 0.0
C499 C 0.41176 0.96961 0.17483 0.0
O500 O 0.3977 0.96251 0.18275 0.0
O501 O 0.41391 0.91917 0.15657 0.0
C502 C 0.46203 0.92576 0.16479 0.0
O503 O 0.45643 0.9319 0.14924 0.0
C504 C 0.42051 0.91556 0.21017 0.0
O505 O 0.43174 0.90425 0.20265 0.0
O506 O 0.42493 0.95954 0.17079 0.0
C507 C 0.09503 0.41342 0.15869 0.0
O508 O 0.10101 0.41527 0.17517 0.0
O509 O 0.06675 0.42029 0.19894 0.0
Zn510 Zn 0.06219 0.42855 0.17347 0.0
O511 O 0.0656 0.45535 0.17284 0.0
C512 C 0.02661 0.41216 0.17423 0.0
O513 O 0.03363 0.40187 0.1867 0.0
O514 O 0.07885 0.41755 0.15526 0.0
C515 C 0.05579 0.46493 0.183 0.0
O516 O 0.04382 0.45691 0.19317 0.0
C517 C 0.07796 0.42858 0.2088 0.0
O518 O 0.08751 0.44159 0.2017 0.0
O519 O 0.03647 0.42385 0.16665 0.0
C520 C 0.84098 0.58976 0.90039 0.0
O521 O 0.82516 0.58577 0.89371 0.0
O522 O 0.79999 0.58467 0.92914 0.0
Zn523 Zn 0.82518 0.57512 0.93234 0.0
O524 O 0.82504 0.54901 0.92544 0.0
C525 C 0.82621 0.58888 0.9688 0.0
O526 O 0.81558 0.60134 0.96228 0.0
O527 O 0.84367 0.58736 0.91704 0.0
C528 C 0.83671 0.5379 0.931 0.0
O529 O 0.84954 0.54359 0.94167 0.0
C530 C 0.78913 0.57703 0.9184 0.0
O531 O 0.79505 0.56389 0.90824 0.0
O532 O 0.83212 0.57675 0.95835 0.0
C533 C 0.83895 0.40572 0.09628 0.0
O534 O 0.8225 0.40876 0.10182 0.0
O535 O 0.79955 0.41216 0.06642 0.0
Zn536 Zn 0.82539 0.41975 0.06266 0.0
O537 O 0.82694 0.44647 0.0661 0.0
C538 C 0.82535 0.40484 0.02625 0.0
O539 O 0.81081 0.39626 0.03138 0.0
O540 O 0.84275 0.40852 0.07991 0.0
C541 C 0.8191 0.45682 0.05506 0.0
O542 O 0.81009 0.44969 0.04167 0.0
C543 C 0.78941 0.42106 0.07689 0.0
O544 O 0.79631 0.43447 0.08604 0.0
O545 O 0.83342 0.4149 0.03739 0.0
C546 C 0.58796 0.83639 0.0917 0.0
O547 O 0.59217 0.82021 0.09728 0.0
O548 O 0.58107 0.79432 0.06526 0.0
Zn549 Zn 0.57006 0.81868 0.06098 0.0
O550 O 0.54348 0.81619 0.06514 0.0
C551 C 0.58494 0.82041 0.02458 0.0
O552 O 0.5965 0.80837 0.03027 0.0
O553 O 0.57947 0.83818 0.07703 0.0
C554 C 0.53352 0.82933 0.06952 0.0
O555 O 0.54078 0.84528 0.07147 0.0
C556 C 0.5748 0.78461 0.07782 0.0
O557 O 0.56264 0.79151 0.08858 0.0
O558 O 0.5731 0.82632 0.03532 0.0
C559 C 0.15378 0.59384 0.09215 0.0
O560 O 0.17038 0.59753 0.09676 0.0
O561 O 0.19476 0.58536 0.06683 0.0
Zn562 Zn 0.17017 0.57516 0.06189 0.0
O563 O 0.17101 0.54864 0.06678 0.0
C564 C 0.17115 0.58956 0.02555 0.0
O565 O 0.18346 0.60036 0.03208 0.0
O566 O 0.15087 0.58543 0.07761 0.0
C567 C 0.18222 0.53867 0.05869 0.0
O568 O 0.19324 0.546 0.04703 0.0
C569 C 0.20422 0.57924 0.07964 0.0
O570 O 0.19722 0.56707 0.09032 0.0
O571 O 0.16369 0.57824 0.0359 0.0
C572 C 0.41295 0.15577 0.09343 0.0
O573 O 0.40739 0.17209 0.09711 0.0
O574 O 0.42288 0.19694 0.06822 0.0
Zn575 Zn 0.43436 0.17265 0.06501 0.0
O576 O 0.4603 0.17531 0.07192 0.0
C577 C 0.41899 0.16637 0.02987 0.0
O578 O 0.40434 0.17274 0.03734 0.0
O579 O 0.42363 0.15336 0.08038 0.0
C580 C 0.4722 0.1638 0.06791 0.0
O581 O 0.46751 0.14948 0.05872 0.0
C582 C 0.42803 0.20681 0.08117 0.0
O583 O 0.43929 0.2001 0.09295 0.0
O584 O 0.43323 0.16522 0.03916 0.0
C585 C 0.1533 0.41117 0.90651 0.0
O586 O 0.16969 0.40734 0.90125 0.0
O587 O 0.19498 0.42058 0.93087 0.0
Zn588 Zn 0.17054 0.43118 0.9357 0.0
O589 O 0.17196 0.45768 0.93054 0.0
C590 C 0.16947 0.41608 0.97186 0.0
O591 O 0.18 0.4036 0.9652 0.0
O592 O 0.15099 0.42055 0.92055 0.0
C593 C 0.18451 0.46659 0.9379 0.0
O594 O 0.1957 0.45817 0.94861 0.0
C595 C 0.20427 0.42639 0.91777 0.0
O596 O 0.19699 0.43805 0.90674 0.0
O597 O 0.16402 0.42864 0.96171 0.0
C598 C 0.58967 0.15922 0.89857 0.0
O599 O 0.58791 0.17557 0.89221 0.0
O600 O 0.58424 0.19984 0.92648 0.0
Zn601 Zn 0.57515 0.17475 0.93126 0.0
O602 O 0.54835 0.17457 0.92792 0.0
C603 C 0.59348 0.17264 0.9659 0.0
O604 O 0.60547 0.18319 0.95844 0.0
O605 O 0.58566 0.15619 0.91484 0.0
C606 C 0.5386 0.18427 0.938 0.0
O607 O 0.54639 0.19414 0.95038 0.0
C608 C 0.57624 0.20996 0.91529 0.0
O609 O 0.56265 0.20344 0.90614 0.0
O610 O 0.58 0.16758 0.95676 0.0
C611 C 0.41114 0.83606 0.90351 0.0
O612 O 0.41127 0.82019 0.89585 0.0
O613 O 0.41503 0.79296 0.93004 0.0
Zn614 Zn 0.42538 0.81748 0.9354 0.0
O615 O 0.45208 0.81524 0.93196 0.0
C616 C 0.40998 0.81708 0.97164 0.0
O617 O 0.39906 0.8048 0.96523 0.0
O618 O 0.41598 0.83746 0.9198 0.0
C619 C 0.4624 0.82727 0.9257 0.0
O620 O 0.45563 0.84291 0.92116 0.0
C621 C 0.42263 0.78349 0.91802 0.0
O622 O 0.4354 0.79084 0.90834 0.0
O623 O 0.42158 0.82409 0.96129 0.0
C624 C 0.60091 0.64392 0.91111 0.0
O625 O 0.58439 0.63778 0.91167 0.0
O626 O 0.56065 0.67374 0.9123 0.0
Zn627 Zn 0.5851 0.67773 0.92321 0.0
O628 O 0.58222 0.67639 0.95006 0.0
C629 C 0.58756 0.71159 0.90434 0.0
O630 O 0.57623 0.70397 0.89317 0.0
O631 O 0.60388 0.66022 0.9151 0.0
C632 C 0.57109 0.68729 0.95704 0.0
O633 O 0.56266 0.69862 0.94648 0.0
C634 C 0.54965 0.66324 0.92001 0.0
O635 O 0.55525 0.6537 0.93374 0.0
O636 O 0.59331 0.7027 0.91768 0.0
C637 C 0.35904 0.59459 0.90961 0.0
O638 O 0.36472 0.57913 0.91592 0.0
O639 O 0.32472 0.5566 0.91373 0.0
Zn640 Zn 0.32494 0.58207 0.92295 0.0
O641 O 0.33051 0.58186 0.94941 0.0
C642 C 0.29088 0.58901 0.90626 0.0
O643 O 0.29787 0.57946 0.89319 0.0
O644 O 0.34243 0.5982 0.91046 0.0
C645 C 0.31829 0.57671 0.96013 0.0
O646 O 0.30272 0.57174 0.95348 0.0
C647 C 0.33355 0.54426 0.92151 0.0
O648 O 0.3443 0.54858 0.9348 0.0
O649 O 0.30025 0.59218 0.92012 0.0
C650 C 0.40319 0.36024 0.91725 0.0
O651 O 0.41595 0.36475 0.92853 0.0
O652 O 0.44758 0.33209 0.90666 0.0
Zn653 Zn 0.42342 0.3285 0.91821 0.0
O654 O 0.42601 0.33236 0.94497 0.0
C655 C 0.42524 0.29197 0.92498 0.0
O656 O 0.43828 0.29837 0.93498 0.0
O657 O 0.40394 0.34507 0.90951 0.0
C658 C 0.41424 0.32649 0.95582 0.0
O659 O 0.39994 0.3184 0.9494 0.0
C660 C 0.45918 0.34196 0.91434 0.0
O661 O 0.4543 0.35135 0.92845 0.0
O662 O 0.41638 0.30261 0.91503 0.0
C663 C 0.6473 0.40201 0.90683 0.0
O664 O 0.64045 0.41825 0.90622 0.0
O665 O 0.67332 0.44388 0.91515 0.0
Zn666 Zn 0.67859 0.41885 0.92395 0.0
O667 O 0.67625 0.41894 0.95088 0.0
C668 C 0.71314 0.42086 0.90648 0.0
O669 O 0.70519 0.43308 0.89657 0.0
O670 O 0.66281 0.39974 0.91349 0.0
C671 C 0.68621 0.42983 0.95944 0.0
O672 O 0.6973 0.44008 0.95033 0.0
C673 C 0.66225 0.45371 0.92361 0.0
O674 O 0.65273 0.44649 0.93657 0.0
O675 O 0.70418 0.41282 0.91854 0.0
C676 C 0.59803 0.3521 0.08764 0.0
O677 O 0.58185 0.3591 0.08775 0.0
O678 O 0.55587 0.32548 0.08166 0.0
Zn679 Zn 0.58017 0.32216 0.0703 0.0
O680 O 0.57822 0.32921 0.04432 0.0
C681 C 0.58424 0.2859 0.08418 0.0
O682 O 0.57918 0.29302 0.0995 0.0
O683 O 0.60011 0.33629 0.08162 0.0
C684 C 0.58932 0.32318 0.03288 0.0
O685 O 0.60257 0.31298 0.03846 0.0
C686 C 0.54505 0.33685 0.07498 0.0
O687 O 0.55091 0.34769 0.06238 0.0
O688 O 0.58591 0.29594 0.07052 0.0
C689 C 0.63788 0.59459 0.09631 0.0
O690 O 0.63137 0.5788 0.09192 0.0
O691 O 0.66729 0.5531 0.09702 0.0
Zn692 Zn 0.67109 0.57773 0.08624 0.0
O693 O 0.66677 0.57548 0.05963 0.0
C694 C 0.70833 0.57237 0.08709 0.0
O695 O 0.70263 0.55628 0.08263 0.0
O696 O 0.65475 0.59691 0.09586 0.0
C697 C 0.67578 0.58367 0.04771 0.0
O698 O 0.68854 0.59477 0.05271 0.0
C699 C 0.65726 0.54198 0.08882 0.0
O700 O 0.64774 0.54769 0.07514 0.0
O701 O 0.69687 0.58466 0.08987 0.0
C702 C 0.39777 0.64164 0.08815 0.0
O703 O 0.41406 0.63531 0.08594 0.0
O704 O 0.4381 0.6725 0.08699 0.0
Zn705 Zn 0.41336 0.67578 0.07647 0.0
O706 O 0.41555 0.67359 0.04963 0.0
C707 C 0.41109 0.71045 0.09403 0.0
O708 O 0.42284 0.70344 0.10515 0.0
O709 O 0.39491 0.65824 0.08546 0.0
C710 C 0.42575 0.68474 0.0417 0.0
O711 O 0.43407 0.69694 0.05136 0.0
C712 C 0.44935 0.66231 0.07921 0.0
O713 O 0.44391 0.65251 0.06559 0.0
O714 O 0.40499 0.7009 0.0813 0.0
C715 C 0.35763 0.39938 0.08859 0.0
O716 O 0.36503 0.41497 0.08493 0.0
O717 O 0.32931 0.44147 0.08632 0.0
Zn718 Zn 0.32568 0.41689 0.07566 0.0
O719 O 0.3314 0.41902 0.04933 0.0
C720 C 0.2898 0.41335 0.09089 0.0
O721 O 0.29673 0.42155 0.10489 0.0
O722 O 0.34085 0.39756 0.08641 0.0
C723 C 0.32351 0.409 0.038 0.0
O724 O 0.31261 0.39646 0.04388 0.0
C725 C 0.3194 0.45298 0.07856 0.0
O726 O 0.30832 0.44736 0.06602 0.0
O727 O 0.29975 0.40996 0.0775 0.0
C728 C 0.90248 0.59812 0.6415 0.0
O729 O 0.9039 0.58143 0.63598 0.0
O730 O 0.91035 0.55868 0.6707 0.0
Zn731 Zn 0.91876 0.58423 0.67409 0.0
O732 O 0.94544 0.58467 0.66977 0.0
C733 C 0.90454 0.58327 0.71021 0.0
O734 O 0.8949 0.56995 0.70383 0.0
O735 O 0.90724 0.602 0.6574 0.0
C736 C 0.95557 0.57748 0.68145 0.0
O737 O 0.94823 0.5702 0.69573 0.0
C738 C 0.91858 0.54837 0.65988 0.0
O739 O 0.93142 0.55512 0.64986 0.0
O740 O 0.915 0.59168 0.69972 0.0
C741 C 0.4048 0.90932 0.64453 0.0
O742 O 0.4211 0.91099 0.63804 0.0
O743 O 0.44545 0.91102 0.67479 0.0
Zn744 Zn 0.42131 0.9231 0.6769 0.0
O745 O 0.42474 0.94909 0.67051 0.0
C746 C 0.41723 0.90885 0.71267 0.0
O747 O 0.42589 0.89512 0.70578 0.0
O748 O 0.40211 0.91288 0.66098 0.0
C749 C 0.41405 0.96123 0.67584 0.0
O750 O 0.40009 0.95664 0.68559 0.0
C751 C 0.45711 0.91733 0.66405 0.0
O752 O 0.45239 0.93028 0.65307 0.0
O753 O 0.41343 0.92209 0.70263 0.0
C754 C 0.09117 0.40133 0.64407 0.0
O755 O 0.09053 0.41806 0.63854 0.0
O756 O 0.08872 0.44081 0.67449 0.0
Zn757 Zn 0.07825 0.41607 0.67794 0.0
O758 O 0.05138 0.41846 0.67604 0.0
C759 C 0.09495 0.41488 0.71302 0.0
O760 O 0.10518 0.42764 0.70642 0.0
O761 O 0.08699 0.39775 0.6602 0.0
C762 C 0.04385 0.4288 0.68735 0.0
O763 O 0.05391 0.43691 0.69934 0.0
C764 C 0.08088 0.45192 0.6642 0.0
O765 O 0.06728 0.4463 0.65447 0.0
O766 O 0.08318 0.40767 0.70303 0.0
C767 C 0.59565 0.09058 0.64101 0.0
O768 O 0.57963 0.09043 0.63365 0.0
O769 O 0.55367 0.08612 0.66927 0.0
Zn770 Zn 0.57782 0.07422 0.6719 0.0
O771 O 0.57483 0.04813 0.66555 0.0
C772 C 0.58282 0.08965 0.70689 0.0
O773 O 0.57647 0.10407 0.69896 0.0
O774 O 0.59749 0.0849 0.65696 0.0
C775 C 0.58504 0.03605 0.67189 0.0
O776 O 0.59838 0.04083 0.6824 0.0
C777 C 0.54239 0.07971 0.65819 0.0
O778 O 0.54768 0.06702 0.64716 0.0
O779 O 0.58488 0.07542 0.69775 0.0
C780 C 0.90805 0.4016 0.35642 0.0
O781 O 0.90647 0.41833 0.36172 0.0
O782 O 0.9122 0.44163 0.32695 0.0
Zn783 Zn 0.92273 0.41695 0.32336 0.0
O784 O 0.94956 0.41913 0.32537 0.0
C785 C 0.9042 0.41434 0.28945 0.0
O786 O 0.89245 0.4248 0.29743 0.0
O787 O 0.91401 0.39836 0.34078 0.0
C788 C 0.95739 0.43004 0.31485 0.0
O789 O 0.94761 0.43922 0.3034 0.0
C790 C 0.9196 0.45252 0.3378 0.0
O791 O 0.93282 0.44672 0.34791 0.0
O792 O 0.91773 0.40888 0.29825 0.0
C793 C 0.59634 0.91084 0.35069 0.0
O794 O 0.5803 0.91331 0.35756 0.0
O795 O 0.55508 0.91622 0.32354 0.0
Zn796 Zn 0.5798 0.92685 0.31974 0.0
O797 O 0.57852 0.95281 0.32739 0.0
C798 C 0.58176 0.91269 0.28368 0.0
O799 O 0.5726 0.89934 0.29067 0.0
O800 O 0.59896 0.9149 0.33435 0.0
C801 C 0.58595 0.96552 0.31882 0.0
O802 O 0.59611 0.96167 0.30493 0.0
C803 C 0.5423 0.92714 0.3206 0.0
O804 O 0.54604 0.94335 0.31478 0.0
O805 O 0.58628 0.92575 0.29364 0.0
C806 C 0.08961 0.59861 0.35406 0.0
O807 O 0.09205 0.58172 0.35846 0.0
O808 O 0.08622 0.55995 0.32303 0.0
Zn809 Zn 0.075 0.58442 0.32043 0.0
O810 O 0.04823 0.58122 0.32207 0.0
C811 C 0.09319 0.5889 0.28644 0.0
O812 O 0.10496 0.57782 0.29348 0.0
O813 O 0.08312 0.60239 0.33876 0.0
C814 C 0.04108 0.57065 0.31073 0.0
O815 O 0.05146 0.56272 0.29889 0.0
C816 C 0.07919 0.54854 0.33357 0.0
O817 O 0.06592 0.55369 0.34398 0.0
O818 O 0.07983 0.59384 0.29577 0.0
C819 C 0.40299 0.08539 0.35716 0.0
O820 O 0.41971 0.08689 0.3625 0.0
O821 O 0.44218 0.08641 0.3257 0.0
Zn822 Zn 0.41857 0.07344 0.32315 0.0
O823 O 0.42399 0.04714 0.32512 0.0
C824 C 0.41191 0.09173 0.28966 0.0
O825 O 0.42038 0.10501 0.29758 0.0
O826 O 0.3998 0.08043 0.34117 0.0
C827 C 0.4123 0.03483 0.32366 0.0
O828 O 0.39537 0.0393 0.32153 0.0
C829 C 0.45422 0.07963 0.33569 0.0
O830 O 0.45005 0.06571 0.34569 0.0
O831 O 0.40916 0.07731 0.29832 0.0
C832 C 0.64657 0.9064 0.59517 0.0
O833 O 0.64145 0.89963 0.57972 0.0
O834 O 0.67335 0.90877 0.55275 0.0
Zn835 Zn 0.67736 0.92226 0.57577 0.0
O836 O 0.6745 0.94837 0.56974 0.0
C837 C 0.71151 0.90462 0.58068 0.0
O838 O 0.7036 0.89131 0.57226 0.0
O839 O 0.66083 0.91571 0.59593 0.0
C840 C 0.67575 0.96101 0.58109 0.0
O841 O 0.67862 0.95705 0.59803 0.0
C842 C 0.66121 0.91451 0.54222 0.0
O843 O 0.65035 0.92713 0.54801 0.0
O844 O 0.70271 0.91887 0.58385 0.0
C845 C 0.64543 0.0903 0.39987 0.0
O846 O 0.63917 0.0902 0.41635 0.0
O847 O 0.67474 0.0843 0.44002 0.0
Zn848 Zn 0.6778 0.07393 0.41522 0.0
O849 O 0.67449 0.04714 0.41669 0.0
C850 C 0.71134 0.09264 0.41046 0.0
O851 O 0.70311 0.10546 0.41934 0.0
O852 O 0.66109 0.08431 0.39685 0.0
C853 C 0.68464 0.0386 0.42741 0.0
O854 O 0.69648 0.04767 0.43684 0.0
C855 C 0.66365 0.07722 0.45089 0.0
O856 O 0.65319 0.06427 0.44507 0.0
O857 O 0.70301 0.07816 0.40712 0.0
C858 C 0.90887 0.64829 0.3966 0.0
O859 O 0.90638 0.64253 0.41307 0.0
O860 O 0.91237 0.67537 0.43795 0.0
Zn861 Zn 0.92316 0.68071 0.41368 0.0
O862 O 0.94998 0.67914 0.41657 0.0
C863 C 0.90478 0.71498 0.41359 0.0
O864 O 0.89386 0.70685 0.42478 0.0
O865 O 0.91532 0.66387 0.39409 0.0
C866 C 0.95704 0.68899 0.42858 0.0
O867 O 0.94658 0.69966 0.43794 0.0
C868 C 0.91981 0.66376 0.448 0.0
O869 O 0.93308 0.65417 0.44146 0.0
O870 O 0.9177 0.70617 0.40678 0.0
C871 C 0.35097 0.90415 0.40082 0.0
O872 O 0.35711 0.90142 0.41712 0.0
O873 O 0.32315 0.90867 0.44219 0.0
Zn874 Zn 0.31908 0.92011 0.41804 0.0
O875 O 0.32165 0.94684 0.42128 0.0
C876 C 0.28376 0.90373 0.4166 0.0
O877 O 0.29025 0.89294 0.42894 0.0
O878 O 0.33575 0.91152 0.39872 0.0
C879 C 0.31177 0.95405 0.43319 0.0
O880 O 0.30067 0.94378 0.44227 0.0
C881 C 0.33487 0.91526 0.45267 0.0
O882 O 0.34545 0.928 0.44659 0.0
O883 O 0.29376 0.91587 0.41006 0.0
C884 C 0.08917 0.35326 0.39731 0.0
O885 O 0.09503 0.35767 0.41333 0.0
O886 O 0.08524 0.326 0.43864 0.0
Zn887 Zn 0.07369 0.32123 0.41465 0.0
O888 O 0.04697 0.32244 0.41839 0.0
C889 C 0.0918 0.28679 0.41329 0.0
O890 O 0.10228 0.29399 0.42551 0.0
O891 O 0.08053 0.33869 0.3953 0.0
C892 C 0.04022 0.31292 0.43085 0.0
O893 O 0.05093 0.30268 0.4404 0.0
C894 C 0.07848 0.33782 0.44893 0.0
O895 O 0.06552 0.34801 0.44268 0.0
O896 O 0.07919 0.29612 0.40664 0.0
C897 C 0.34973 0.09044 0.60238 0.0
O898 O 0.35563 0.09344 0.58605 0.0
O899 O 0.3222 0.08533 0.56097 0.0
Zn900 Zn 0.31844 0.07368 0.58509 0.0
O901 O 0.32179 0.04706 0.58175 0.0
C902 C 0.28332 0.09007 0.58718 0.0
O903 O 0.29048 0.10214 0.57651 0.0
O904 O 0.33473 0.08265 0.60456 0.0
C905 C 0.31234 0.03973 0.56957 0.0
O906 O 0.30117 0.04979 0.56037 0.0
C907 C 0.33401 0.07913 0.55037 0.0
O908 O 0.34502 0.06669 0.55632 0.0
O909 O 0.29291 0.07712 0.5927 0.0
C910 C 0.90991 0.35198 0.59899 0.0
O911 O 0.90896 0.35685 0.58208 0.0
O912 O 0.91273 0.32116 0.56031 0.0
Zn913 Zn 0.92426 0.3185 0.58464 0.0
O914 O 0.95093 0.32118 0.58115 0.0
C915 C 0.90707 0.28396 0.58847 0.0
O916 O 0.89502 0.29109 0.57774 0.0
O917 O 0.91557 0.33638 0.60287 0.0
C918 C 0.95817 0.31091 0.56959 0.0
O919 O 0.94802 0.29922 0.56114 0.0
C920 C 0.91944 0.33198 0.54896 0.0
O921 O 0.93257 0.34259 0.55408 0.0
O922 O 0.92027 0.29345 0.59356 0.0
C923 C 0.08797 0.64367 0.59917 0.0
O924 O 0.08646 0.63813 0.58252 0.0
O925 O 0.0864 0.67405 0.55957 0.0
Zn926 Zn 0.07586 0.6775 0.58429 0.0
O927 O 0.0491 0.6747 0.58214 0.0
C928 C 0.09274 0.71241 0.58575 0.0
O929 O 0.10367 0.70532 0.57387 0.0
O930 O 0.08491 0.66006 0.60273 0.0
C931 C 0.04083 0.68526 0.5716 0.0
O932 O 0.05009 0.69753 0.56295 0.0
C933 C 0.07874 0.66372 0.54836 0.0
O934 O 0.06508 0.65395 0.55377 0.0
O935 O 0.08033 0.70279 0.59238 0.0
C936 C 0.40196 0.33583 0.08636 0.0
O937 O 0.39473 0.3198 0.08519 0.0
O938 O 0.42968 0.29431 0.07944 0.0
Zn939 Zn 0.43277 0.31912 0.06903 0.0
O940 O 0.42566 0.3184 0.04298 0.0
C941 C 0.46893 0.32286 0.0834 0.0
O942 O 0.46278 0.3132 0.09681 0.0
O943 O 0.41799 0.33806 0.08107 0.0
C944 C 0.43011 0.33084 0.03222 0.0
O945 O 0.43965 0.34438 0.03829 0.0
C946 C 0.41814 0.2836 0.07285 0.0
O947 O 0.40736 0.28946 0.06019 0.0
O948 O 0.45859 0.32659 0.07037 0.0
C949 C 0.66087 0.39758 0.08818 0.0
O950 O 0.67667 0.39059 0.0847 0.0
O951 O 0.70206 0.42682 0.08181 0.0
Zn952 Zn 0.6763 0.43092 0.07416 0.0
O953 O 0.67496 0.42748 0.04741 0.0
C954 C 0.67379 0.46604 0.09205 0.0
O955 O 0.68562 0.45966 0.10345 0.0
O956 O 0.6584 0.41422 0.08546 0.0
C957 C 0.68442 0.43747 0.03734 0.0
O958 O 0.69463 0.44977 0.04481 0.0
C959 C 0.7116 0.41549 0.07328 0.0
O960 O 0.70397 0.40579 0.06069 0.0
O961 O 0.66852 0.45626 0.07912 0.0
C962 C 0.59118 0.65644 0.09104 0.0
O963 O 0.59605 0.67288 0.09515 0.0
O964 O 0.56719 0.69814 0.07959 0.0
Zn965 Zn 0.56199 0.67321 0.07035 0.0
O966 O 0.56647 0.67337 0.04371 0.0
C967 C 0.52623 0.6733 0.08648 0.0
O968 O 0.53348 0.68412 0.09836 0.0
O969 O 0.57734 0.65402 0.08139 0.0
C970 C 0.55773 0.68449 0.03417 0.0
O971 O 0.54616 0.69516 0.04212 0.0
C972 C 0.58009 0.7071 0.0729 0.0
O973 O 0.59077 0.69917 0.06133 0.0
O974 O 0.53595 0.66708 0.07391 0.0
C975 C 0.33474 0.596 0.08918 0.0
O976 O 0.31893 0.60379 0.08887 0.0
O977 O 0.29074 0.57411 0.08398 0.0
Zn978 Zn 0.31473 0.56655 0.074 0.0
O979 O 0.31407 0.57082 0.04735 0.0
C980 C 0.32515 0.53039 0.08816 0.0
O981 O 0.33499 0.53827 0.10048 0.0
O982 O 0.33594 0.57969 0.08437 0.0
C983 C 0.32799 0.57271 0.03767 0.0
O984 O 0.34387 0.57227 0.04531 0.0
C985 C 0.28147 0.586 0.07597 0.0
O986 O 0.28878 0.59482 0.06257 0.0
O987 O 0.31659 0.53988 0.07688 0.0
C988 C 0.40814 0.65439 0.90724 0.0
O989 O 0.40303 0.67072 0.90298 0.0
O990 O 0.43152 0.69664 0.91799 0.0
Zn991 Zn 0.43686 0.67194 0.92773 0.0
O992 O 0.43149 0.67188 0.95417 0.0
C993 C 0.47262 0.6721 0.91196 0.0
O994 O 0.46512 0.68206 0.8995 0.0
O995 O 0.42215 0.6523 0.91671 0.0
C996 C 0.43921 0.68295 0.96458 0.0
O997 O 0.45073 0.69443 0.95775 0.0
C998 C 0.41874 0.70602 0.9243 0.0
O999 O 0.40807 0.69883 0.93637 0.0
O1000 O 0.46304 0.6663 0.92482 0.0
C1001 C 0.33638 0.39944 0.92229 0.0
O1002 O 0.32386 0.3945 0.93365 0.0
O1003 O 0.2919 0.42796 0.91556 0.0
Zn1004 Zn 0.31682 0.43155 0.92566 0.0
O1005 O 0.31563 0.42618 0.9521 0.0
C1006 C 0.31681 0.46842 0.91246 0.0
O1007 O 0.30366 0.46269 0.90222 0.0
O1008 O 0.33553 0.41496 0.91526 0.0
C1009 C 0.32914 0.42775 0.96238 0.0
O1010 O 0.34423 0.43418 0.95589 0.0
C1011 C 0.28132 0.41663 0.92272 0.0
O1012 O 0.28745 0.40622 0.93555 0.0
O1013 O 0.32448 0.45739 0.92299 0.0
C1014 C 0.60236 0.33899 0.90417 0.0
O1015 O 0.60945 0.32308 0.90684 0.0
O1016 O 0.57406 0.29721 0.91038 0.0
Zn1017 Zn 0.57077 0.32251 0.91972 0.0
O1018 O 0.5779 0.32217 0.94571 0.0
C1019 C 0.53512 0.32764 0.90452 0.0
O1020 O 0.54211 0.32029 0.8901 0.0
O1021 O 0.58582 0.34127 0.90759 0.0
C1022 C 0.57291 0.3337 0.95722 0.0
O1023 O 0.56225 0.34682 0.95221 0.0
C1024 C 0.58588 0.28727 0.91768 0.0
O1025 O 0.59669 0.2944 0.92964 0.0
O1026 O 0.54488 0.32975 0.91834 0.0
C1027 C 0.66157 0.59568 0.91461 0.0
O1028 O 0.67813 0.60047 0.91095 0.0
O1029 O 0.70252 0.56995 0.92395 0.0
Zn1030 Zn 0.67795 0.56609 0.93465 0.0
O1031 O 0.67939 0.57209 0.96092 0.0
C1032 C 0.67306 0.53073 0.91861 0.0
O1033 O 0.68097 0.5379 0.90457 0.0
O1034 O 0.65882 0.58154 0.92372 0.0
C1035 C 0.66683 0.56773 0.9716 0.0
O1036 O 0.65274 0.55929 0.96517 0.0
C1037 C 0.7123 0.58266 0.92983 0.0
O1038 O 0.70552 0.59373 0.94176 0.0
O1039 O 0.67066 0.54023 0.93256 0.0
C1040 C 0.0842 0.40277 0.33749 0.0
O1041 O 0.07777 0.39661 0.32227 0.0
O1042 O 0.08017 0.43225 0.29683 0.0
Zn1043 Zn 0.07212 0.43605 0.32248 0.0
O1044 O 0.04555 0.43153 0.3239 0.0
C1045 C 0.08778 0.47187 0.32235 0.0
O1046 O 0.09855 0.46507 0.31017 0.0
O1047 O 0.08412 0.4196 0.34019 0.0
C1048 C 0.03484 0.44141 0.31506 0.0
O1049 O 0.0415 0.45439 0.30514 0.0
C1050 C 0.07162 0.42193 0.28626 0.0
O1051 O 0.05805 0.41261 0.29258 0.0
O1052 O 0.07604 0.46179 0.32956 0.0
C1053 C 0.59801 0.09443 0.33866 0.0
O1054 O 0.60424 0.09496 0.32219 0.0
O1055 O 0.57072 0.08885 0.29725 0.0
Zn1056 Zn 0.56675 0.07822 0.32186 0.0
O1057 O 0.57299 0.05199 0.32022 0.0
C1058 C 0.5301 0.09203 0.32282 0.0
O1059 O 0.53631 0.10436 0.31185 0.0
O1060 O 0.58212 0.08885 0.34128 0.0
C1061 C 0.56798 0.04056 0.33184 0.0
O1062 O 0.55834 0.04597 0.34556 0.0
C1063 C 0.58273 0.08216 0.28713 0.0
O1064 O 0.59337 0.06971 0.29369 0.0
O1065 O 0.54073 0.08007 0.32874 0.0
C1066 C 0.91217 0.59821 0.3372 0.0
O1067 O 0.91319 0.60351 0.32043 0.0
O1068 O 0.91809 0.56822 0.29799 0.0
Zn1069 Zn 0.9274 0.565 0.32329 0.0
O1070 O 0.95411 0.56887 0.3229 0.0
C1071 C 0.91193 0.52896 0.32495 0.0
O1072 O 0.90137 0.53471 0.31205 0.0
O1073 O 0.91674 0.58226 0.34111 0.0
C1074 C 0.96367 0.55895 0.31285 0.0
O1075 O 0.95571 0.54651 0.3032 0.0
C1076 C 0.9257 0.57916 0.28731 0.0
O1077 O 0.93882 0.58925 0.2934 0.0
O1078 O 0.92344 0.53963 0.33162 0.0
C1079 C 0.3977 0.90591 0.33906 0.0
O1080 O 0.39096 0.91077 0.32352 0.0
O1081 O 0.42486 0.91291 0.29784 0.0
Zn1082 Zn 0.42882 0.9214 0.32329 0.0
O1083 O 0.42155 0.94739 0.32497 0.0
C1084 C 0.46655 0.90961 0.32296 0.0
O1085 O 0.46096 0.89604 0.31318 0.0
O1086 O 0.4144 0.90801 0.3417 0.0
C1087 C 0.43243 0.9594 0.31968 0.0
O1088 O 0.44787 0.95449 0.31273 0.0
C1089 C 0.41385 0.92097 0.28757 0.0
O1090 O 0.40412 0.93411 0.29417 0.0
O1091 O 0.45516 0.92073 0.32904 0.0
C1092 C 0.08665 0.59479 0.65959 0.0
O1093 O 0.08996 0.60052 0.67593 0.0
O1094 O 0.08122 0.56919 0.7012 0.0
Zn1095 Zn 0.06992 0.56387 0.67723 0.0
O1096 O 0.0433 0.56709 0.68039 0.0
C1097 C 0.08728 0.52876 0.6755 0.0
O1098 O 0.0997 0.53625 0.68553 0.0
O1099 O 0.07873 0.57986 0.65742 0.0
C1100 C 0.03257 0.57253 0.66832 0.0
O1101 O 0.03889 0.57635 0.6523 0.0
C1102 C 0.07449 0.58148 0.71094 0.0
O1103 O 0.06139 0.59129 0.70436 0.0
O1104 O 0.07395 0.53811 0.67043 0.0
C1105 C 0.39759 0.08955 0.6634 0.0
O1106 O 0.39149 0.08661 0.67966 0.0
O1107 O 0.42738 0.08291 0.70341 0.0
Zn1108 Zn 0.43033 0.07427 0.67782 0.0
O1109 O 0.4244 0.04794 0.67761 0.0
C1110 C 0.46675 0.08905 0.67434 0.0
O1111 O 0.46137 0.10138 0.68575 0.0
O1112 O 0.41398 0.08627 0.66005 0.0
C1113 C 0.43065 0.03702 0.6661 0.0
O1114 O 0.44136 0.04307 0.65348 0.0
C1115 C 0.4161 0.07496 0.7135 0.0
O1116 O 0.40589 0.06239 0.70652 0.0
O1117 O 0.45588 0.07681 0.66956 0.0
C1118 C 0.91144 0.40476 0.65583 0.0
O1119 O 0.90701 0.40149 0.67256 0.0
O1120 O 0.92129 0.43095 0.69551 0.0
Zn1121 Zn 0.93073 0.43561 0.67057 0.0
O1122 O 0.95751 0.43212 0.67133 0.0
C1123 C 0.91438 0.47122 0.67034 0.0
O1124 O 0.90399 0.4646 0.68295 0.0
O1125 O 0.92069 0.41862 0.65219 0.0
C1126 C 0.96653 0.44061 0.68306 0.0
O1127 O 0.95804 0.45155 0.69397 0.0
C1128 C 0.92796 0.41831 0.70484 0.0
O1129 O 0.94 0.40776 0.69745 0.0
O1130 O 0.9262 0.4612 0.66322 0.0
C1131 C 0.60185 0.91088 0.65863 0.0
O1132 O 0.60906 0.91759 0.67325 0.0
O1133 O 0.57442 0.91416 0.70125 0.0
Zn1134 Zn 0.56974 0.92282 0.67594 0.0
O1135 O 0.57542 0.94923 0.67521 0.0
C1136 C 0.53348 0.90787 0.67646 0.0
O1137 O 0.54025 0.89628 0.68789 0.0
O1138 O 0.58488 0.91069 0.65723 0.0
C1139 C 0.56863 0.95997 0.66385 0.0
O1140 O 0.55746 0.95368 0.65174 0.0
C1141 C 0.5855 0.92258 0.71117 0.0
O1142 O 0.59472 0.93588 0.70418 0.0
O1143 O 0.54364 0.91984 0.66978 0.0
C1144 C 0.34251 0.08275 0.40608 0.0
O1145 O 0.32613 0.08218 0.39958 0.0
O1146 O 0.30106 0.07685 0.43249 0.0
Zn1147 Zn 0.32596 0.06764 0.43808 0.0
O1148 O 0.32578 0.04081 0.43487 0.0
C1149 C 0.32487 0.08486 0.47323 0.0
O1150 O 0.31325 0.09569 0.46558 0.0
O1151 O 0.3452 0.07784 0.42217 0.0
C1152 C 0.31571 0.03141 0.44494 0.0
O1153 O 0.30594 0.0396 0.45712 0.0
C1154 C 0.29121 0.06888 0.42104 0.0
O1155 O 0.29801 0.05542 0.41189 0.0
O1156 O 0.33203 0.07248 0.46393 0.0
C1157 C 0.34322 0.91134 0.59721 0.0
O1158 O 0.32705 0.91306 0.60402 0.0
O1159 O 0.30185 0.91718 0.56988 0.0
Zn1160 Zn 0.32692 0.92625 0.56494 0.0
O1161 O 0.32688 0.95305 0.56838 0.0
C1162 C 0.32664 0.90899 0.52985 0.0
O1163 O 0.31551 0.89768 0.53754 0.0
O1164 O 0.34582 0.91557 0.58091 0.0
C1165 C 0.31742 0.96248 0.55777 0.0
O1166 O 0.30829 0.95432 0.54509 0.0
C1167 C 0.29155 0.92533 0.58078 0.0
O1168 O 0.29798 0.9389 0.59004 0.0
O1169 O 0.33328 0.92168 0.53912 0.0
C1170 C 0.08947 0.34282 0.59301 0.0
O1171 O 0.09249 0.32601 0.59738 0.0
O1172 O 0.08088 0.30272 0.56604 0.0
Zn1173 Zn 0.07115 0.32767 0.56176 0.0
O1174 O 0.04448 0.32679 0.56578 0.0
C1175 C 0.08668 0.32837 0.52575 0.0
O1176 O 0.09755 0.31598 0.53203 0.0
O1177 O 0.08139 0.34626 0.57839 0.0
C1178 C 0.03504 0.31666 0.55581 0.0
O1179 O 0.04308 0.30733 0.5432 0.0
C1180 C 0.07385 0.29277 0.57801 0.0
O1181 O 0.06117 0.29948 0.58826 0.0
O1182 O 0.07497 0.33515 0.5361 0.0
C1183 C 0.65894 0.08974 0.59635 0.0
O1184 O 0.67439 0.08524 0.60354 0.0
O1185 O 0.70043 0.08285 0.56804 0.0
Zn1186 Zn 0.67482 0.07454 0.56438 0.0
O1187 O 0.67339 0.04828 0.57086 0.0
C1188 C 0.67478 0.08778 0.52736 0.0
O1189 O 0.68742 0.09875 0.53294 0.0
O1190 O 0.65669 0.0874 0.57962 0.0
C1191 C 0.67536 0.03611 0.55907 0.0
O1192 O 0.67847 0.04081 0.54237 0.0
C1193 C 0.71059 0.07474 0.57912 0.0
O1194 O 0.70377 0.06185 0.58903 0.0
O1195 O 0.6677 0.07695 0.53845 0.0
C1196 C 0.9049 0.65624 0.59056 0.0
O1197 O 0.90086 0.67302 0.59417 0.0
O1198 O 0.9201 0.69624 0.56497 0.0
Zn1199 Zn 0.92726 0.67047 0.56114 0.0
O1200 O 0.95372 0.66933 0.56619 0.0
C1201 C 0.91207 0.67075 0.52515 0.0
O1202 O 0.90118 0.68289 0.53187 0.0
O1203 O 0.91496 0.65273 0.57725 0.0
C1204 C 0.96387 0.68044 0.55818 0.0
O1205 O 0.95665 0.69176 0.54673 0.0
C1206 C 0.92567 0.705 0.57853 0.0
O1207 O 0.93431 0.69644 0.5913 0.0
O1208 O 0.92378 0.66362 0.53527 0.0
C1209 C 0.65816 0.90885 0.39739 0.0
O1210 O 0.67428 0.91103 0.3906 0.0
O1211 O 0.69928 0.91616 0.42591 0.0
Zn1212 Zn 0.67363 0.92397 0.43018 0.0
O1213 O 0.67245 0.95072 0.42654 0.0
C1214 C 0.67292 0.90727 0.46579 0.0
O1215 O 0.68548 0.89664 0.45945 0.0
O1216 O 0.65548 0.9127 0.41376 0.0
C1217 C 0.68189 0.96085 0.43647 0.0
O1218 O 0.69202 0.95348 0.44889 0.0
C1219 C 0.70886 0.92454 0.41451 0.0
O1220 O 0.70126 0.93702 0.40464 0.0
O1221 O 0.66633 0.91933 0.45571 0.0
C1222 C 0.08786 0.65729 0.40482 0.0
O1223 O 0.0893 0.67397 0.39929 0.0
O1224 O 0.07962 0.69803 0.43081 0.0
Zn1225 Zn 0.0702 0.67314 0.4359 0.0
O1226 O 0.04349 0.67361 0.43199 0.0
C1227 C 0.08653 0.67355 0.47147 0.0
O1228 O 0.09781 0.68501 0.46424 0.0
O1229 O 0.08076 0.65414 0.41998 0.0
C1230 C 0.03416 0.68433 0.44142 0.0
O1231 O 0.04236 0.6944 0.45335 0.0
C1232 C 0.07226 0.70772 0.41884 0.0
O1233 O 0.05941 0.70075 0.40897 0.0
O1234 O 0.07426 0.66675 0.46176 0.0
C1235 C 0.90972 0.34106 0.40501 0.0
O1236 O 0.90954 0.32461 0.39866 0.0
O1237 O 0.91781 0.29966 0.43078 0.0
Zn1238 Zn 0.92648 0.32471 0.43638 0.0
O1239 O 0.95325 0.32504 0.43291 0.0
C1240 C 0.91085 0.3222 0.47218 0.0
O1241 O 0.90102 0.30938 0.46511 0.0
O1242 O 0.91572 0.34382 0.42072 0.0
C1243 C 0.96292 0.31535 0.44308 0.0
O1244 O 0.95504 0.30562 0.45549 0.0
C1245 C 0.92582 0.29018 0.41907 0.0
O1246 O 0.93879 0.29751 0.40963 0.0
O1247 O 0.92194 0.33057 0.46229 0.0
C1248 C 0.11603 0.11091 0.40844 0.0
C1249 C 0.1183 0.12946 0.40576 0.0
C1250 C 0.13073 0.09923 0.40855 0.0
C1251 C 0.14835 0.10557 0.40593 0.0
H1252 H 0.10289 0.10538 0.41127 0.0
H1253 H 0.12825 0.08519 0.4114 0.0
S1254 S 0.1613 0.15259 0.39561 0.0
N1255 N 0.13933 0.15337 0.3984 0.0
N1256 N 0.16699 0.13138 0.3986 0.0
C1257 C 0.1507 0.12389 0.40197 0.0
C1258 C 0.13569 0.13584 0.40191 0.0
C1259 C 0.88728 0.11575 0.41042 0.0
C1260 C 0.86882 0.11861 0.40778 0.0
C1261 C 0.89951 0.13001 0.4098 0.0
C1262 C 0.8938 0.14772 0.40641 0.0
H1263 H 0.89232 0.10253 0.41379 0.0
H1264 H 0.91347 0.12715 0.41265 0.0
S1265 S 0.84718 0.16193 0.39596 0.0
N1266 N 0.84562 0.14015 0.39974 0.0
N1267 N 0.8686 0.16696 0.3985 0.0
C1268 C 0.87553 0.15058 0.40255 0.0
C1269 C 0.86304 0.13603 0.40327 0.0
C1270 C 0.87084 0.90384 0.41445 0.0
C1271 C 0.85403 0.89812 0.40795 0.0
C1272 C 0.88548 0.89212 0.41529 0.0
C1273 C 0.88397 0.87415 0.40972 0.0
H1274 H 0.8726 0.9173 0.41964 0.0
H1275 H 0.89785 0.89704 0.42115 0.0
S1276 S 0.84376 0.8532 0.38892 0.0
N1277 N 0.83734 0.87383 0.39383 0.0
N1278 N 0.8649 0.85177 0.39541 0.0
C1279 C 0.86763 0.86858 0.40197 0.0
C1280 C 0.85267 0.88057 0.40108 0.0
C1281 C 0.12326 0.84996 0.40207 0.0
C1282 C 0.10449 0.85192 0.40185 0.0
C1283 C 0.13458 0.86496 0.40199 0.0
C1284 C 0.1276 0.88253 0.40157 0.0
H1285 H 0.12932 0.8368 0.40337 0.0
H1286 H 0.1489 0.86272 0.40309 0.0
S1287 S 0.07946 0.89479 0.39747 0.0
N1288 N 0.07947 0.87266 0.39871 0.0
N1289 N 0.10074 0.90089 0.39847 0.0
C1290 C 0.10891 0.88463 0.39976 0.0
C1291 C 0.09736 0.86931 0.39994 0.0
C1292 C 0.14815 0.87222 0.59179 0.0
C1293 C 0.14657 0.89102 0.59244 0.0
C1294 C 0.13296 0.86117 0.59212 0.0
C1295 C 0.11554 0.86844 0.59316 0.0
H1296 H 0.16114 0.86594 0.59005 0.0
H1297 H 0.13493 0.84683 0.59072 0.0
S1298 S 0.10427 0.91671 0.59854 0.0
N1299 N 0.12634 0.91635 0.59666 0.0
N1300 N 0.09778 0.89556 0.59729 0.0
C1301 C 0.11384 0.88714 0.59534 0.0
C1302 C 0.12935 0.89843 0.59497 0.0
C1303 C 0.09841 0.1294 0.58998 0.0
C1304 C 0.10604 0.14637 0.59341 0.0
C1305 C 0.10887 0.11379 0.59005 0.0
C1306 C 0.1274 0.11448 0.59356 0.0
H1307 H 0.08441 0.12819 0.58624 0.0
H1308 H 0.1025 0.10126 0.58632 0.0
S1309 S 0.15319 0.15499 0.60705 0.0
N1310 N 0.13273 0.16252 0.60312 0.0
N1311 N 0.1524 0.13317 0.60331 0.0
C1312 C 0.13488 0.13111 0.59865 0.0
C1313 C 0.1242 0.14704 0.59856 0.0
C1314 C 0.86968 0.13302 0.59402 0.0
C1315 C 0.88707 0.1262 0.59109 0.0
C1316 C 0.8547 0.12167 0.5945 0.0
C1317 C 0.85649 0.10302 0.59212 0.0
H1318 H 0.86742 0.14735 0.595 0.0
H1319 H 0.84154 0.12772 0.59582 0.0
S1320 S 0.89944 0.07806 0.5875 0.0
N1321 N 0.90546 0.09936 0.5883 0.0
N1322 N 0.87736 0.07799 0.5893 0.0
C1323 C 0.87396 0.09587 0.59074 0.0
C1324 C 0.88922 0.10746 0.5902 0.0
C1325 C 0.8986 0.86797 0.59235 0.0
C1326 C 0.89175 0.85039 0.59372 0.0
C1327 C 0.88724 0.88293 0.59283 0.0
C1328 C 0.86857 0.88094 0.59472 0.0
H1329 H 0.91275 0.87024 0.58994 0.0
H1330 H 0.89311 0.89607 0.59074 0.0
S1331 S 0.84427 0.83807 0.60246 0.0
N1332 N 0.8654 0.83204 0.59967 0.0
N1333 N 0.84403 0.86015 0.60064 0.0
C1334 C 0.86171 0.86356 0.59768 0.0
C1335 C 0.8733 0.84829 0.59715 0.0
C1336 C 0.41329 0.1087 0.11252 0.0
C1337 C 0.40817 0.11134 0.13048 0.0
C1338 C 0.41382 0.12302 0.10038 0.0
C1339 C 0.40912 0.14055 0.10567 0.0
H1340 H 0.41786 0.09566 0.10796 0.0
H1341 H 0.41866 0.1204 0.08693 0.0
S1342 S 0.39186 0.15402 0.15043 0.0
N1343 N 0.39617 0.13237 0.15242 0.0
N1344 N 0.39709 0.15931 0.12956 0.0
C1345 C 0.40259 0.14312 0.1232 0.0
C1346 C 0.40216 0.12852 0.13562 0.0
C1347 C 0.886 0.40195 0.11527 0.0
C1348 C 0.88311 0.40307 0.13387 0.0
C1349 C 0.87156 0.4017 0.10323 0.0
C1350 C 0.85367 0.40248 0.10932 0.0
H1351 H 0.89949 0.40225 0.10986 0.0
H1352 H 0.87454 0.40174 0.089 0.0
S1353 S 0.83895 0.40208 0.15695 0.0
N1354 N 0.86108 0.40247 0.15797 0.0
N1355 N 0.83394 0.40192 0.13537 0.0
C1356 C 0.85061 0.40209 0.12796 0.0
C1357 C 0.86533 0.40243 0.14022 0.0
C1358 C 0.58571 0.88455 0.10783 0.0
C1359 C 0.59005 0.88323 0.12615 0.0
C1360 C 0.58601 0.86948 0.09664 0.0
C1361 C 0.59071 0.8524 0.10325 0.0
H1362 H 0.58124 0.89718 0.10217 0.0
H1363 H 0.58182 0.87118 0.08282 0.0
S1364 S 0.60595 0.84217 0.14958 0.0
N1365 N 0.60124 0.86382 0.14996 0.0
N1366 N 0.6018 0.83546 0.12888 0.0
C1367 C 0.59637 0.8511 0.12123 0.0
C1368 C 0.59603 0.8665 0.13268 0.0
C1369 C 0.10671 0.59312 0.11131 0.0
C1370 C 0.10968 0.59506 0.12983 0.0
C1371 C 0.12098 0.59376 0.0991 0.0
C1372 C 0.13875 0.59654 0.10492 0.0
H1373 H 0.09341 0.59015 0.10624 0.0
H1374 H 0.1181 0.59134 0.08506 0.0
S1375 S 0.15321 0.6053 0.15181 0.0
N1376 N 0.13136 0.60196 0.15325 0.0
N1377 N 0.15818 0.60332 0.13031 0.0
C1378 C 0.14171 0.59988 0.12327 0.0
C1379 C 0.12717 0.59907 0.13573 0.0
C1380 C 0.4073 0.86689 0.86317 0.0
C1381 C 0.40741 0.88415 0.87091 0.0
C1382 C 0.40759 0.8514 0.87383 0.0
C1383 C 0.40801 0.8525 0.89267 0.0
H1384 H 0.40775 0.86526 0.84873 0.0
H1385 H 0.40827 0.83848 0.86717 0.0
S1386 S 0.40554 0.89439 0.91965 0.0
N1387 N 0.40584 0.90136 0.89862 0.0
N1388 N 0.40637 0.87227 0.91865 0.0
C1389 C 0.4069 0.86964 0.9006 0.0
C1390 C 0.4066 0.88544 0.88973 0.0
C1391 C 0.12594 0.40534 0.8642 0.0
C1392 C 0.10817 0.4072 0.87039 0.0
C1393 C 0.14047 0.4054 0.87612 0.0
C1394 C 0.1378 0.40747 0.89467 0.0
H1395 H 0.12877 0.40462 0.84996 0.0
H1396 H 0.15392 0.40486 0.87061 0.0
S1397 S 0.09389 0.40966 0.91809 0.0
N1398 N 0.08866 0.40875 0.89658 0.0
N1399 N 0.11602 0.40902 0.91893 0.0
C1400 C 0.12008 0.40794 0.90118 0.0
C1401 C 0.10525 0.40774 0.88905 0.0
C1402 C 0.59007 0.13152 0.85608 0.0
C1403 C 0.59272 0.11392 0.86245 0.0
C1404 C 0.59027 0.14625 0.86772 0.0
C1405 C 0.59294 0.14396 0.88626 0.0
H1406 H 0.58719 0.13393 0.84203 0.0
H1407 H 0.58737 0.15939 0.86222 0.0
S1408 S 0.60304 0.10101 0.90945 0.0
N1409 N 0.60005 0.09528 0.88826 0.0
N1410 N 0.60031 0.12299 0.9102 0.0
C1411 C 0.59681 0.1266 0.89266 0.0
C1412 C 0.59674 0.11158 0.88075 0.0
C1413 C 0.874 0.59318 0.89532 0.0
C1414 C 0.85643 0.59339 0.88834 0.0
C1415 C 0.889 0.5931 0.88397 0.0
C1416 C 0.88701 0.5932 0.86521 0.0
H1417 H 0.87627 0.59213 0.90964 0.0
H1418 H 0.90218 0.59196 0.89001 0.0
S1419 S 0.84408 0.59736 0.84022 0.0
N1420 N 0.83803 0.59635 0.8615 0.0
N1421 N 0.8662 0.59617 0.8402 0.0
C1422 C 0.86959 0.59495 0.85809 0.0
C1423 C 0.85431 0.59506 0.86964 0.0
C1424 C 0.13841 0.41104 0.13236 0.0
C1425 C 0.13254 0.40852 0.11457 0.0
C1426 C 0.12626 0.41154 0.14668 0.0
C1427 C 0.1077 0.40967 0.1438 0.0
H1428 H 0.15249 0.4133 0.13525 0.0
H1429 H 0.13145 0.41428 0.15998 0.0
S1430 S 0.08555 0.40014 0.10018 0.0
N1431 N 0.10703 0.40213 0.09516 0.0
N1432 N 0.08418 0.40317 0.12209 0.0
C1433 C 0.10172 0.40595 0.12626 0.0
C1434 C 0.11414 0.40533 0.11166 0.0
C1435 C 0.1292 0.59786 0.85102 0.0
C1436 C 0.11054 0.59852 0.85376 0.0
C1437 C 0.14112 0.5977 0.86554 0.0
C1438 C 0.13487 0.59843 0.88335 0.0
H1439 H 0.13468 0.59642 0.83764 0.0
H1440 H 0.15532 0.59633 0.86275 0.0
S1441 S 0.08737 0.6032 0.89762 0.0
N1442 N 0.08644 0.60201 0.87551 0.0
N1443 N 0.10887 0.60188 0.90282 0.0
C1444 C 0.11633 0.60053 0.88623 0.0
C1445 C 0.10416 0.60052 0.87143 0.0
C1446 C 0.41191 0.13108 0.85381 0.0
C1447 C 0.4079 0.11276 0.85601 0.0
C1448 C 0.41115 0.14302 0.86831 0.0
C1449 C 0.40627 0.13716 0.8856 0.0
H1450 H 0.41651 0.13616 0.84099 0.0
H1451 H 0.41514 0.15681 0.86602 0.0
S1452 S 0.3916 0.09108 0.89782 0.0
N1453 N 0.39678 0.08973 0.87633 0.0
N1454 N 0.39527 0.11216 0.90358 0.0
C1455 C 0.40094 0.11914 0.8877 0.0
C1456 C 0.40178 0.10695 0.87292 0.0
C1457 C 0.88459 0.40134 0.882 0.0
C1458 C 0.86582 0.40284 0.88089 0.0
C1459 C 0.89526 0.40168 0.86652 0.0
C1460 C 0.88755 0.40351 0.84934 0.0
H1461 H 0.89122 0.40098 0.89493 0.0
H1462 H 0.9097 0.40153 0.86817 0.0
S1463 S 0.83879 0.40404 0.83904 0.0
N1464 N 0.8398 0.40338 0.86116 0.0
N1465 N 0.85981 0.40399 0.83207 0.0
C1466 C 0.86871 0.40333 0.84798 0.0
C1467 C 0.85785 0.40302 0.86376 0.0
C1468 C 0.59131 0.89945 0.87226 0.0
C1469 C 0.59557 0.89371 0.85476 0.0
C1470 C 0.59111 0.88741 0.88668 0.0
C1471 C 0.59502 0.86913 0.88414 0.0
H1472 H 0.58729 0.9132 0.87476 0.0
H1473 H 0.58682 0.89234 0.89967 0.0
S1474 S 0.61003 0.84785 0.84166 0.0
N1475 N 0.60611 0.86897 0.8362 0.0
N1476 N 0.60563 0.84631 0.86331 0.0
C1477 C 0.60072 0.86349 0.86703 0.0
C1478 C 0.60105 0.8758 0.85234 0.0
C1479 C 0.86839 0.58589 0.14554 0.0
C1480 C 0.88674 0.5899 0.14372 0.0
C1481 C 0.85691 0.58589 0.13068 0.0
C1482 C 0.86326 0.58998 0.11336 0.0
H1483 H 0.86293 0.58184 0.15839 0.0
H1484 H 0.84307 0.58195 0.13275 0.0
S1485 S 0.90959 0.60434 0.10183 0.0
N1486 N 0.91031 0.60023 0.12358 0.0
N1487 N 0.88871 0.60027 0.09563 0.0
C1488 C 0.88129 0.59537 0.11155 0.0
C1489 C 0.89303 0.59531 0.12673 0.0
C1490 C 0.39965 0.86265 0.13056 0.0
C1491 C 0.40261 0.86891 0.11297 0.0
C1492 C 0.39926 0.87446 0.14518 0.0
C1493 C 0.40188 0.893 0.1428 0.0
H1494 H 0.39853 0.8484 0.13326 0.0
H1495 H 0.39795 0.86883 0.15852 0.0
S1496 S 0.40655 0.91667 0.09919 0.0
N1497 N 0.40553 0.89521 0.09378 0.0
N1498 N 0.40487 0.91738 0.12127 0.0
C1499 C 0.40328 0.89962 0.12515 0.0
C1500 C 0.40362 0.88758 0.11024 0.0
C1501 C 0.59478 0.10831 0.10949 0.0
C1502 C 0.59952 0.12654 0.11074 0.0
C1503 C 0.59383 0.09745 0.12479 0.0
C1504 C 0.59766 0.10434 0.14197 0.0
H1505 H 0.59082 0.10254 0.09675 0.0
H1506 H 0.58926 0.08374 0.12316 0.0
S1507 S 0.61395 0.15038 0.15207 0.0
N1508 N 0.61045 0.1504 0.1302 0.0
N1509 N 0.60872 0.12998 0.15897 0.0
C1510 C 0.60389 0.12214 0.14321 0.0
C1511 C 0.60479 0.13325 0.12761 0.0
C1512 C 0.62858 0.60142 0.91311 0.0
C1513 C 0.64623 0.60769 0.91053 0.0
C1514 C 0.61386 0.61305 0.91218 0.0
C1515 C 0.61621 0.63146 0.9088 0.0
H1516 H 0.62611 0.5875 0.91654 0.0
H1517 H 0.60065 0.60769 0.91505 0.0
S1518 S 0.6593 0.65426 0.89847 0.0
N1519 N 0.66498 0.63321 0.90244 0.0
N1520 N 0.63729 0.6551 0.90082 0.0
C1521 C 0.63363 0.63772 0.905 0.0
C1522 C 0.64864 0.62582 0.90581 0.0
C1523 C 0.40204 0.6215 0.9094 0.0
C1524 C 0.39629 0.63869 0.90403 0.0
C1525 C 0.39018 0.60695 0.90993 0.0
C1526 C 0.37204 0.609 0.90516 0.0
H1527 H 0.41563 0.61938 0.91411 0.0
H1528 H 0.39509 0.59428 0.91511 0.0
S1529 S 0.35101 0.65029 0.88674 0.0
N1530 N 0.37185 0.65627 0.89133 0.0
N1531 N 0.34952 0.62889 0.89231 0.0
C1532 C 0.36648 0.6257 0.89822 0.0
C1533 C 0.37861 0.64054 0.89764 0.0
C1534 C 0.37874 0.37845 0.90309 0.0
C1535 C 0.38597 0.36975 0.91816 0.0
C1536 C 0.36254 0.38805 0.90439 0.0
C1537 C 0.35292 0.38867 0.92065 0.0
H1538 H 0.38583 0.37816 0.8904 0.0
H1539 H 0.35748 0.39496 0.89264 0.0
S1540 S 0.36633 0.36763 0.96378 0.0
N1541 N 0.38252 0.36222 0.94965 0.0
N1542 N 0.35191 0.37969 0.95205 0.0
C1543 C 0.35995 0.37966 0.93566 0.0
C1544 C 0.37655 0.37032 0.93443 0.0
C1545 C 0.60645 0.37224 0.90181 0.0
C1546 C 0.61396 0.35489 0.90104 0.0
C1547 C 0.61734 0.38756 0.90253 0.0
C1548 C 0.63614 0.38612 0.90254 0.0
H1549 H 0.59206 0.37405 0.90283 0.0
H1550 H 0.61093 0.40052 0.9041 0.0
S1551 S 0.66246 0.34415 0.89705 0.0
N1552 N 0.64136 0.33742 0.89764 0.0
N1553 N 0.6618 0.36621 0.89903 0.0
C1554 C 0.6438 0.369 0.90022 0.0
C1555 C 0.63272 0.35339 0.89944 0.0
C1556 C 0.63134 0.35624 0.08841 0.0
C1557 C 0.61407 0.36336 0.09135 0.0
C1558 C 0.64659 0.36723 0.0886 0.0
C1559 C 0.64521 0.38579 0.09172 0.0
H1560 H 0.63309 0.3422 0.08504 0.0
H1561 H 0.65941 0.36122 0.08531 0.0
S1562 S 0.60358 0.41054 0.10358 0.0
N1563 N 0.59683 0.38974 0.09999 0.0
N1564 N 0.6255 0.41039 0.10035 0.0
C1565 C 0.62823 0.39283 0.09617 0.0
C1566 C 0.61267 0.38162 0.096 0.0
C1567 C 0.60747 0.60837 0.09369 0.0
C1568 C 0.62568 0.61021 0.0983 0.0
C1569 C 0.59623 0.62335 0.09228 0.0
C1570 C 0.60268 0.64081 0.09554 0.0
H1571 H 0.60196 0.59535 0.09027 0.0
H1572 H 0.58251 0.62121 0.08796 0.0
S1573 S 0.64862 0.65269 0.11079 0.0
N1574 N 0.64916 0.63069 0.10816 0.0
N1575 N 0.628 0.65888 0.10556 0.0
C1576 C 0.62052 0.64275 0.10147 0.0
C1577 C 0.63202 0.62745 0.10283 0.0
C1578 C 0.34973 0.62569 0.09342 0.0
C1579 C 0.35118 0.60692 0.09196 0.0
C1580 C 0.36495 0.63671 0.09308 0.0
C1581 C 0.3823 0.62944 0.09131 0.0
H1582 H 0.33669 0.63208 0.09406 0.0
H1583 H 0.36296 0.6511 0.09354 0.0
S1584 S 0.39367 0.58091 0.08974 0.0
N1585 N 0.37154 0.58138 0.0907 0.0
N1586 N 0.40016 0.60209 0.09008 0.0
C1587 C 0.38406 0.61062 0.09111 0.0
C1588 C 0.36851 0.59936 0.09142 0.0
C1589 C 0.39836 0.3691 0.08881 0.0
C1590 C 0.39084 0.35183 0.09057 0.0
C1591 C 0.38765 0.38452 0.08939 0.0
C1592 C 0.36897 0.38332 0.09175 0.0
H1593 H 0.41255 0.37077 0.08607 0.0
H1594 H 0.39401 0.39738 0.08701 0.0
S1595 S 0.3431 0.34158 0.1005 0.0
N1596 N 0.36389 0.33464 0.09732 0.0
N1597 N 0.34374 0.36363 0.09846 0.0
C1598 C 0.36148 0.36627 0.09508 0.0
C1599 C 0.37241 0.35053 0.09448 0.0
C1600 C 0.9024 0.62363 0.5977 0.0
C1601 C 0.9004 0.64159 0.60324 0.0
C1602 C 0.90169 0.60948 0.61003 0.0
C1603 C 0.89915 0.61274 0.62844 0.0
H1604 H 0.90534 0.62049 0.58381 0.0
H1605 H 0.90425 0.59601 0.60517 0.0
S1606 S 0.89023 0.65701 0.64951 0.0
N1607 N 0.89347 0.66164 0.62809 0.0
N1608 N 0.89227 0.63502 0.65131 0.0
C1609 C 0.8957 0.63048 0.63398 0.0
C1610 C 0.89627 0.64491 0.62136 0.0
C1611 C 0.35675 0.90856 0.62778 0.0
C1612 C 0.35878 0.90752 0.60905 0.0
C1613 C 0.37166 0.90808 0.63922 0.0
C1614 C 0.38923 0.90651 0.6324 0.0
H1615 H 0.34363 0.91065 0.63369 0.0
H1616 H 0.36938 0.90978 0.65347 0.0
S1617 S 0.40154 0.90004 0.58453 0.0
N1618 N 0.37952 0.90245 0.58432 0.0
N1619 N 0.40754 0.90152 0.6058 0.0
C1620 C 0.39133 0.90404 0.61378 0.0
C1621 C 0.37612 0.90456 0.60212 0.0
C1622 C 0.09124 0.38971 0.61264 0.0
C1623 C 0.09384 0.38653 0.63106 0.0
C1624 C 0.09075 0.37553 0.60032 0.0
C1625 C 0.093 0.3576 0.60589 0.0
H1626 H 0.08866 0.40316 0.60776 0.0
H1627 H 0.08793 0.37865 0.58641 0.0
S1628 S 0.10305 0.34239 0.65228 0.0
N1629 N 0.10074 0.36436 0.65402 0.0
N1630 N 0.09994 0.33769 0.63085 0.0
C1631 C 0.09693 0.35436 0.62408 0.0
C1632 C 0.0973 0.36882 0.63667 0.0
C1633 C 0.61049 0.09414 0.61113 0.0
C1634 C 0.61182 0.09413 0.62995 0.0
C1635 C 0.62586 0.09397 0.60031 0.0
C1636 C 0.64319 0.09378 0.60788 0.0
H1637 H 0.5975 0.09325 0.60464 0.0
H1638 H 0.62406 0.09298 0.58592 0.0
S1639 S 0.65396 0.09747 0.65639 0.0
N1640 N 0.63183 0.09671 0.65566 0.0
N1641 N 0.66071 0.09637 0.63533 0.0
C1642 C 0.6447 0.0954 0.62663 0.0
C1643 C 0.62903 0.09557 0.63766 0.0
C1644 C 0.90622 0.35403 0.37433 0.0
C1645 C 0.90606 0.35651 0.39303 0.0
C1646 C 0.90593 0.36871 0.3626 0.0
C1647 C 0.90534 0.38646 0.36908 0.0
H1648 H 0.90748 0.34071 0.36864 0.0
H1649 H 0.90686 0.36607 0.34833 0.0
S1650 S 0.90182 0.40007 0.4169 0.0
N1651 N 0.90316 0.37796 0.4175 0.0
N1652 N 0.90254 0.40556 0.39545 0.0
C1653 C 0.90381 0.38908 0.38772 0.0
C1654 C 0.90422 0.3741 0.39969 0.0
C1655 C 0.64448 0.90763 0.36679 0.0
C1656 C 0.64256 0.90556 0.38545 0.0
C1657 C 0.62947 0.90818 0.35549 0.0
C1658 C 0.61192 0.90667 0.36239 0.0
H1659 H 0.65759 0.90985 0.3609 0.0
H1660 H 0.63167 0.91074 0.34135 0.0
S1661 S 0.59986 0.89738 0.40984 0.0
N1662 N 0.62193 0.8993 0.41 0.0
N1663 N 0.59372 0.90036 0.38876 0.0
C1664 C 0.60992 0.90302 0.38081 0.0
C1665 C 0.62523 0.90246 0.39233 0.0
C1666 C 0.09177 0.64542 0.37376 0.0
C1667 C 0.09147 0.64224 0.39235 0.0
C1668 C 0.09204 0.63119 0.3615 0.0
C1669 C 0.09221 0.61321 0.36733 0.0
H1670 H 0.09086 0.65897 0.36856 0.0
H1671 H 0.09148 0.63435 0.34732 0.0
S1672 S 0.09428 0.59776 0.41466 0.0
N1673 N 0.09335 0.61985 0.41606 0.0
N1674 N 0.094 0.59308 0.393 0.0
C1675 C 0.09324 0.60986 0.38588 0.0
C1676 C 0.09281 0.62438 0.3984 0.0
C1677 C 0.37008 0.08647 0.36355 0.0
C1678 C 0.38784 0.08739 0.36995 0.0
C1679 C 0.35546 0.08596 0.37533 0.0
C1680 C 0.35797 0.08623 0.39403 0.0
H1681 H 0.36739 0.08556 0.34929 0.0
H1682 H 0.34214 0.08455 0.36967 0.0
S1683 S 0.40158 0.09098 0.41773 0.0
N1684 N 0.40699 0.09036 0.39626 0.0
N1685 N 0.3795 0.08934 0.41842 0.0
C1686 C 0.37558 0.08824 0.40063 0.0
C1687 C 0.3905 0.08885 0.3886 0.0
C1688 C 0.63173 0.91085 0.64355 0.0
C1689 C 0.61332 0.90672 0.64289 0.0
C1690 C 0.64246 0.90994 0.62819 0.0
C1691 C 0.6353 0.90474 0.61149 0.0
H1692 H 0.63784 0.91559 0.65586 0.0
H1693 H 0.6564 0.9139 0.62936 0.0
S1694 S 0.58841 0.89017 0.60298 0.0
N1695 N 0.58875 0.89548 0.62449 0.0
N1696 N 0.609 0.89372 0.59557 0.0
C1697 C 0.61719 0.89941 0.61084 0.0
C1698 C 0.60619 0.90042 0.62654 0.0
C1699 C 0.61483 0.0939 0.38666 0.0
C1700 C 0.63355 0.09472 0.38456 0.0
C1701 C 0.60336 0.09493 0.3718 0.0
C1702 C 0.61016 0.09692 0.35426 0.0
H1703 H 0.60896 0.09148 0.39974 0.0
H1704 H 0.58908 0.09334 0.37406 0.0
S1705 S 0.6581 0.10305 0.342 0.0
N1706 N 0.65831 0.10002 0.36394 0.0
N1707 N 0.63679 0.10206 0.33602 0.0
C1708 C 0.6288 0.09924 0.35217 0.0
C1709 C 0.64048 0.09809 0.36731 0.0
C1710 C 0.90759 0.60515 0.36973 0.0
C1711 C 0.90838 0.61121 0.35183 0.0
C1712 C 0.90674 0.61723 0.3841 0.0
C1713 C 0.90678 0.63588 0.38119 0.0
H1714 H 0.90828 0.59094 0.37276 0.0
H1715 H 0.90692 0.61187 0.39762 0.0
S1716 S 0.90598 0.65874 0.33692 0.0
N1717 N 0.90711 0.63716 0.332 0.0
N1718 N 0.90563 0.65984 0.35904 0.0
C1719 C 0.90639 0.64213 0.36336 0.0
C1720 C 0.90714 0.62981 0.34869 0.0
C1721 C 0.39267 0.90109 0.37194 0.0
C1722 C 0.38566 0.90178 0.35438 0.0
C1723 C 0.38134 0.90074 0.38695 0.0
C1724 C 0.36258 0.90114 0.38498 0.0
H1725 H 0.40701 0.90176 0.3742 0.0
H1726 H 0.38737 0.90118 0.40017 0.0
S1727 S 0.33743 0.89938 0.342 0.0
N1728 N 0.35872 0.90017 0.33595 0.0
N1729 N 0.33748 0.89963 0.36415 0.0
C1730 C 0.3554 0.90034 0.36753 0.0
C1731 C 0.36692 0.90061 0.35224 0.0
C1732 C 0.08474 0.37177 0.35017 0.0
C1733 C 0.08845 0.39016 0.35232 0.0
C1734 C 0.0858 0.35987 0.36464 0.0
C1735 C 0.09073 0.36579 0.3819 0.0
H1736 H 0.08022 0.36656 0.33737 0.0
H1737 H 0.08216 0.34598 0.36234 0.0
S1738 S 0.10422 0.41218 0.39419 0.0
N1739 N 0.09905 0.41343 0.37269 0.0
N1740 N 0.10109 0.391 0.39992 0.0
C1741 C 0.09565 0.38391 0.38401 0.0
C1742 C 0.0945 0.3961 0.36923 0.0
C1743 C 0.38017 0.09452 0.61585 0.0
C1744 C 0.36147 0.09355 0.61812 0.0
C1745 C 0.39175 0.09433 0.63067 0.0
C1746 C 0.38507 0.09325 0.64833 0.0
H1747 H 0.386 0.09446 0.60253 0.0
H1748 H 0.40607 0.09419 0.62815 0.0
S1749 S 0.33699 0.09381 0.66151 0.0
N1750 N 0.33669 0.0939 0.63936 0.0
N1751 N 0.35839 0.09365 0.66722 0.0
C1752 C 0.36634 0.09377 0.6508 0.0
C1753 C 0.35456 0.09386 0.63569 0.0
C1754 C 0.9093 0.38372 0.60963 0.0
C1755 C 0.90724 0.36535 0.61343 0.0
C1756 C 0.90979 0.39648 0.62342 0.0
C1757 C 0.90798 0.39139 0.64152 0.0
H1758 H 0.91148 0.38825 0.59598 0.0
H1759 H 0.91219 0.41038 0.61987 0.0
S1760 S 0.89973 0.3452 0.65836 0.0
N1761 N 0.90157 0.34286 0.6364 0.0
N1762 N 0.90227 0.36686 0.66234 0.0
C1763 C 0.90465 0.3732 0.64541 0.0
C1764 C 0.90436 0.36018 0.63135 0.0
C1765 C 0.09172 0.62523 0.64646 0.0
C1766 C 0.08978 0.60663 0.64393 0.0
C1767 C 0.092 0.63703 0.63183 0.0
C1768 C 0.0905 0.63069 0.61408 0.0
H1769 H 0.09218 0.63085 0.65986 0.0
H1770 H 0.09277 0.65129 0.63455 0.0
S1771 S 0.08792 0.58287 0.60016 0.0
N1772 N 0.08833 0.5822 0.6223 0.0
N1773 N 0.08897 0.60433 0.59479 0.0
C1774 C 0.08981 0.612 0.61132 0.0
C1775 C 0.0894 0.59999 0.62625 0.0
C1776 C 0.1019 0.23726 0.4187 0.0
C1777 C 0.09185 0.22927 0.40483 0.0
C1778 C 0.10253 0.25593 0.42078 0.0
C1779 C 0.09302 0.26737 0.40917 0.0
H1780 H 0.10894 0.22904 0.4284 0.0
H1781 H 0.10994 0.26134 0.43206 0.0
S1782 S 0.06633 0.2534 0.36945 0.0
N1783 N 0.07343 0.23438 0.37832 0.0
N1784 N 0.07456 0.26946 0.3823 0.0
C1785 C 0.0837 0.25963 0.39466 0.0
C1786 C 0.08314 0.2406 0.39246 0.0
C1787 C 0.76023 0.1057 0.41477 0.0
C1788 C 0.76892 0.09343 0.40332 0.0
C1789 C 0.7415 0.10603 0.41626 0.0
C1790 C 0.73076 0.09396 0.40652 0.0
H1791 H 0.76796 0.11474 0.42313 0.0
H1792 H 0.7355 0.11524 0.42577 0.0
S1793 S 0.74671 0.06058 0.37312 0.0
N1794 N 0.76521 0.07001 0.38082 0.0
N1795 N 0.73002 0.07055 0.38373 0.0
C1796 C 0.73919 0.08232 0.39425 0.0
C1797 C 0.75827 0.0821 0.3926 0.0
C1798 C 0.91599 0.76146 0.39613 0.0
C1799 C 0.90594 0.77282 0.40737 0.0
C1800 C 0.91491 0.74276 0.39774 0.0
C1801 C 0.90365 0.73464 0.41056 0.0
H1802 H 0.92537 0.76699 0.3865 0.0
H1803 H 0.92344 0.73465 0.3892 0.0
S1804 S 0.8728 0.75838 0.44171 0.0
N1805 N 0.88307 0.77459 0.43063 0.0
N1806 N 0.88099 0.73946 0.43361 0.0
C1807 C 0.89268 0.74582 0.42113 0.0
C1808 C 0.89385 0.7649 0.41956 0.0
C1809 C 0.23369 0.89644 0.42118 0.0
C1810 C 0.22656 0.90634 0.40674 0.0
C1811 C 0.25224 0.89493 0.42376 0.0
C1812 C 0.26441 0.90338 0.41209 0.0
H1813 H 0.2249 0.89021 0.43094 0.0
H1814 H 0.257 0.8877 0.43544 0.0
S1815 S 0.25281 0.92907 0.37098 0.0
N1816 N 0.23325 0.92336 0.37965 0.0
N1817 N 0.26811 0.92058 0.38457 0.0
C1818 C 0.25752 0.91251 0.39704 0.0
C1819 C 0.2386 0.91395 0.39434 0.0
C1820 C 0.10218 0.74346 0.57737 0.0
C1821 C 0.0931 0.73198 0.5893 0.0
C1822 C 0.1007 0.76213 0.57885 0.0
C1823 C 0.09024 0.77009 0.59242 0.0
H1824 H 0.10989 0.73803 0.56631 0.0
H1825 H 0.10745 0.77036 0.56895 0.0
S1826 S 0.06546 0.74598 0.62833 0.0
N1827 N 0.0745 0.7299 0.61607 0.0
N1828 N 0.07181 0.76501 0.61892 0.0
C1829 C 0.08193 0.75879 0.60507 0.0
C1830 C 0.08332 0.73974 0.60348 0.0
C1831 C 0.23361 0.09853 0.58103 0.0
C1832 C 0.22568 0.08696 0.59369 0.0
C1833 C 0.25228 0.10012 0.57962 0.0
C1834 C 0.26377 0.09008 0.59072 0.0
H1835 H 0.22537 0.10609 0.57174 0.0
H1836 H 0.25769 0.10874 0.56923 0.0
S1837 S 0.24987 0.05937 0.62743 0.0
N1838 N 0.23082 0.06644 0.6186 0.0
N1839 N 0.26591 0.06937 0.61588 0.0
C1840 C 0.25605 0.07916 0.60407 0.0
C1841 C 0.23701 0.07763 0.60559 0.0
C1842 C 0.89675 0.25294 0.58117 0.0
C1843 C 0.90696 0.26442 0.59212 0.0
C1844 C 0.89852 0.23427 0.58237 0.0
C1845 C 0.91046 0.22632 0.59467 0.0
H1846 H 0.88791 0.25836 0.57098 0.0
H1847 H 0.89086 0.22605 0.57314 0.0
S1848 S 0.93843 0.25046 0.62815 0.0
N1849 N 0.92809 0.26653 0.61694 0.0
N1850 N 0.93136 0.23143 0.61928 0.0
C1851 C 0.91987 0.23763 0.60654 0.0
C1852 C 0.91815 0.25668 0.60523 0.0
C1853 C 0.75673 0.91809 0.59959 0.0
C1854 C 0.7687 0.90659 0.59063 0.0
C1855 C 0.7382 0.91688 0.59677 0.0
C1856 C 0.73089 0.90399 0.58504 0.0
H1857 H 0.7617 0.92866 0.60826 0.0
H1858 H 0.72959 0.92646 0.60351 0.0
S1859 S 0.75638 0.86929 0.55995 0.0
N1860 N 0.77189 0.88088 0.57072 0.0
N1861 N 0.73702 0.87851 0.56553 0.0
C1862 C 0.74263 0.89171 0.57681 0.0
C1863 C 0.76155 0.89305 0.57956 0.0
C1864 C 0.39724 0.07859 0.26254 0.0
C1865 C 0.40773 0.09232 0.27022 0.0
C1866 C 0.39528 0.07707 0.24392 0.0
C1867 C 0.40387 0.08913 0.23222 0.0
H1868 H 0.39099 0.06849 0.27093 0.0
H1869 H 0.38773 0.06579 0.2387 0.0
S1870 S 0.43077 0.12895 0.24548 0.0
N1871 N 0.42523 0.11936 0.26467 0.0
N1872 N 0.42161 0.11645 0.22965 0.0
C1873 C 0.4134 0.10363 0.23972 0.0
C1874 C 0.41531 0.10525 0.25872 0.0
C1875 C 0.91656 0.39667 0.24343 0.0
C1876 C 0.90622 0.40739 0.23185 0.0
C1877 C 0.91516 0.39843 0.26207 0.0
C1878 C 0.90326 0.41087 0.26989 0.0
H1879 H 0.92644 0.38743 0.2381 0.0
H1880 H 0.92395 0.39038 0.27039 0.0
S1881 S 0.87135 0.44031 0.24542 0.0
N1882 N 0.88234 0.42955 0.22948 0.0
N1883 N 0.87964 0.43281 0.26454 0.0
C1884 C 0.89196 0.4208 0.25847 0.0
C1885 C 0.89348 0.41909 0.23945 0.0
C1886 C 0.57649 0.9014 0.25253 0.0
C1887 C 0.58555 0.9132 0.26415 0.0
C1888 C 0.57861 0.90257 0.23389 0.0
C1889 C 0.58999 0.91549 0.22609 0.0
H1890 H 0.56724 0.89149 0.25779 0.0
H1891 H 0.57094 0.89347 0.22554 0.0
S1892 S 0.61801 0.94859 0.25072 0.0
N1893 N 0.60725 0.93752 0.26659 0.0
N1894 N 0.61129 0.93967 0.23159 0.0
C1895 C 0.59973 0.9269 0.2376 0.0
C1896 C 0.59748 0.92578 0.2566 0.0
C1897 C 0.10162 0.58339 0.23673 0.0
C1898 C 0.08992 0.59607 0.22901 0.0
C1899 C 0.10349 0.58194 0.25536 0.0
C1900 C 0.0936 0.593 0.26701 0.0
H1901 H 0.10893 0.57402 0.22835 0.0
H1902 H 0.11203 0.57141 0.26062 0.0
S1903 S 0.06305 0.63004 0.25366 0.0
N1904 N 0.06976 0.6212 0.23449 0.0
N1905 N 0.0732 0.61839 0.26953 0.0
C1906 C 0.08278 0.60654 0.25949 0.0
C1907 C 0.08097 0.60811 0.24048 0.0
C1908 C 0.40039 0.92647 0.75737 0.0
C1909 C 0.40819 0.91471 0.76991 0.0
C1910 C 0.40294 0.9241 0.73891 0.0
C1911 C 0.4133 0.90981 0.73217 0.0
H1912 H 0.39271 0.93799 0.76181 0.0
H1913 H 0.39702 0.93385 0.72988 0.0
S1914 S 0.43529 0.8742 0.75928 0.0
N1915 N 0.42572 0.88745 0.77422 0.0
N1916 N 0.43046 0.88298 0.73953 0.0
C1917 C 0.42051 0.89744 0.74451 0.0
C1918 C 0.41797 0.8999 0.76336 0.0
C1919 C 0.10046 0.422 0.76299 0.0
C1920 C 0.09043 0.40784 0.77047 0.0
C1921 C 0.10273 0.42358 0.74441 0.0
C1922 C 0.09493 0.41115 0.73255 0.0
H1923 H 0.10617 0.43232 0.7715 0.0
H1924 H 0.10997 0.43513 0.73934 0.0
S1925 S 0.06925 0.37037 0.7453 0.0
N1926 N 0.07404 0.38017 0.76458 0.0
N1927 N 0.07824 0.38321 0.72964 0.0
C1928 C 0.08575 0.39634 0.73986 0.0
C1929 C 0.08353 0.39465 0.75882 0.0
C1930 C 0.59482 0.0744 0.73419 0.0
C1931 C 0.58597 0.08923 0.72652 0.0
C1932 C 0.59627 0.07248 0.75281 0.0
C1933 C 0.58877 0.08523 0.76453 0.0
H1934 H 0.60031 0.06389 0.72577 0.0
H1935 H 0.60268 0.06051 0.75802 0.0
S1936 S 0.56591 0.12751 0.75135 0.0
N1937 N 0.5709 0.11768 0.73213 0.0
N1938 N 0.57353 0.114 0.76716 0.0
C1939 C 0.58067 0.10058 0.75707 0.0
C1940 C 0.57931 0.10261 0.73806 0.0
C1941 C 0.89795 0.57392 0.74171 0.0
C1942 C 0.90528 0.58662 0.72982 0.0
C1943 C 0.90049 0.57538 0.76026 0.0
C1944 C 0.91035 0.58968 0.76772 0.0
H1945 H 0.89075 0.56234 0.73667 0.0
H1946 H 0.89502 0.56494 0.76877 0.0
S1947 S 0.93073 0.62758 0.74255 0.0
N1948 N 0.92164 0.61477 0.72692 0.0
N1949 N 0.92635 0.61755 0.76181 0.0
C1950 C 0.91696 0.603 0.75607 0.0
C1951 C 0.91445 0.60145 0.73712 0.0
C1952 C 0.23988 0.41735 0.09988 0.0
C1953 C 0.23214 0.40787 0.08548 0.0
C1954 C 0.25853 0.41838 0.10199 0.0
C1955 C 0.27021 0.41007 0.08971 0.0
H1956 H 0.2315 0.42448 0.10939 0.0
H1957 H 0.2638 0.42632 0.11298 0.0
S1958 S 0.25682 0.38213 0.05063 0.0
N1959 N 0.23766 0.38887 0.05946 0.0
N1960 N 0.27267 0.39083 0.0634 0.0
C1961 C 0.26266 0.39982 0.07573 0.0
C1962 C 0.24364 0.3987 0.07363 0.0
C1963 C 0.24122 0.58619 0.89614 0.0
C1964 C 0.23353 0.59736 0.9093 0.0
C1965 C 0.25985 0.58437 0.89456 0.0
C1966 C 0.27153 0.59354 0.90619 0.0
H1967 H 0.23279 0.57823 0.88735 0.0
H1968 H 0.26504 0.57502 0.88471 0.0
S1969 S 0.2584 0.62634 0.94135 0.0
N1970 N 0.23918 0.61919 0.93296 0.0
N1971 N 0.2742 0.61569 0.93006 0.0
C1972 C 0.2641 0.60564 0.91866 0.0
C1973 C 0.2451 0.60759 0.92019 0.0
C1974 C 0.41443 0.24401 0.91209 0.0
C1975 C 0.41469 0.23513 0.92879 0.0
C1976 C 0.41705 0.26264 0.91092 0.0
C1977 C 0.42043 0.27287 0.92637 0.0
H1978 H 0.41256 0.23647 0.8998 0.0
H1979 H 0.41719 0.26893 0.89781 0.0
S1980 S 0.42096 0.25666 0.97338 0.0
N1981 N 0.41724 0.23849 0.96125 0.0
N1982 N 0.4226 0.27331 0.95886 0.0
C1983 C 0.42008 0.26436 0.94315 0.0
C1984 C 0.41707 0.24553 0.94442 0.0
C1985 C 0.7589 0.40023 0.91446 0.0
C1986 C 0.77066 0.41292 0.90694 0.0
C1987 C 0.74029 0.40261 0.91365 0.0
C1988 C 0.7327 0.41767 0.90511 0.0
H1989 H 0.76407 0.38871 0.92167 0.0
H1990 H 0.73181 0.39276 0.92017 0.0
S1991 S 0.75768 0.4538 0.88155 0.0
N1992 N 0.77343 0.44035 0.88941 0.0
N1993 N 0.73842 0.44477 0.88778 0.0
C1994 C 0.74429 0.42996 0.89667 0.0
C1995 C 0.76327 0.42761 0.89763 0.0
C1996 C 0.58116 0.76096 0.89442 0.0
C1997 C 0.59448 0.7692 0.905 0.0
C1998 C 0.57967 0.74225 0.89344 0.0
C1999 C 0.59134 0.73105 0.90313 0.0
H2000 H 0.57135 0.76899 0.8873 0.0
H2001 H 0.56871 0.73661 0.88573 0.0
S2002 S 0.63009 0.74574 0.93082 0.0
N2003 N 0.62079 0.7646 0.92385 0.0
N2004 N 0.61789 0.72943 0.92209 0.0
C2005 C 0.60543 0.73905 0.91285 0.0
C2006 C 0.60704 0.75812 0.91375 0.0
C2007 C 0.73987 0.56152 0.08856 0.0
C2008 C 0.72784 0.57603 0.08799 0.0
C2009 C 0.75842 0.56425 0.08814 0.0
C2010 C 0.76577 0.58162 0.08694 0.0
H2011 H 0.73497 0.54783 0.08911 0.0
H2012 H 0.76702 0.55252 0.08825 0.0
S2013 S 0.74009 0.62432 0.08612 0.0
N2014 N 0.72455 0.60853 0.08704 0.0
N2015 N 0.75953 0.61368 0.0861 0.0
C2016 C 0.75392 0.59633 0.08688 0.0
C2017 C 0.73494 0.59354 0.08746 0.0
C2018 C 0.41827 0.74152 0.1044 0.0
C2019 C 0.40704 0.72992 0.09463 0.0
C2020 C 0.41641 0.76018 0.10315 0.0
C2021 C 0.40314 0.768 0.0922 0.0
H2022 H 0.42913 0.73622 0.11249 0.0
H2023 H 0.42586 0.76853 0.11041 0.0
S2024 S 0.36881 0.74346 0.06565 0.0
N2025 N 0.38107 0.72753 0.07495 0.0
N2026 N 0.37751 0.76259 0.07265 0.0
C2027 C 0.39109 0.75654 0.08323 0.0
C2028 C 0.39307 0.73751 0.08442 0.0
C2029 C 0.58877 0.24037 0.06197 0.0
C2030 C 0.58738 0.22827 0.07637 0.0
C2031 C 0.5883 0.25892 0.06477 0.0
C2032 C 0.58623 0.26619 0.08209 0.0
H2033 H 0.59007 0.23551 0.04833 0.0
H2034 H 0.58916 0.26757 0.05312 0.0
S2035 S 0.58275 0.24026 0.12451 0.0
N2036 N 0.58451 0.22481 0.10872 0.0
N2037 N 0.58349 0.25976 0.114 0.0
C2038 C 0.58526 0.25426 0.09671 0.0
C2039 C 0.58589 0.23529 0.09385 0.0
C2040 C 0.92855 0.75199 0.55968 0.0
C2041 C 0.93167 0.76264 0.57494 0.0
C2042 C 0.92557 0.73353 0.56113 0.0
C2043 C 0.92596 0.72487 0.5779 0.0
H2044 H 0.92862 0.75794 0.54641 0.0
H2045 H 0.92374 0.72589 0.54889 0.0
S2046 S 0.93248 0.74689 0.62211 0.0
N2047 N 0.9339 0.76348 0.60746 0.0
N2048 N 0.92877 0.72853 0.61023 0.0
C2049 C 0.9285 0.73544 0.59337 0.0
C2050 C 0.9312 0.75439 0.59188 0.0
C2051 C 0.24157 0.93149 0.58849 0.0
C2052 C 0.23384 0.91786 0.57794 0.0
C2053 C 0.26023 0.93324 0.59004 0.0
C2054 C 0.27198 0.92145 0.58107 0.0
H2055 H 0.23318 0.94135 0.59511 0.0
H2056 H 0.26544 0.94439 0.59778 0.0
S2057 S 0.25865 0.882 0.55367 0.0
N2058 N 0.23947 0.89122 0.55981 0.0
N2059 N 0.2745 0.89457 0.56269 0.0
C2060 C 0.26445 0.90711 0.57135 0.0
C2061 C 0.24542 0.90529 0.5698 0.0
C2062 C 0.06902 0.24305 0.58794 0.0
C2063 C 0.08236 0.23514 0.57716 0.0
C2064 C 0.06696 0.26173 0.5888 0.0
C2065 C 0.07808 0.2733 0.57883 0.0
H2066 H 0.05964 0.23476 0.59533 0.0
H2067 H 0.05605 0.26704 0.5968 0.0
S2068 S 0.11655 0.2596 0.55026 0.0
N2069 N 0.10804 0.24052 0.55762 0.0
N2070 N 0.10405 0.27557 0.55917 0.0
C2071 C 0.09214 0.26565 0.5688 0.0
C2072 C 0.09431 0.24661 0.56799 0.0
C2073 C 0.76028 0.06752 0.58772 0.0
C2074 C 0.76858 0.08011 0.57634 0.0
C2075 C 0.74156 0.06648 0.58913 0.0
C2076 C 0.73029 0.07795 0.57919 0.0
H2077 H 0.76826 0.05792 0.59517 0.0
H2078 H 0.73593 0.05611 0.59762 0.0
S2079 S 0.74522 0.11482 0.54915 0.0
N2080 N 0.76402 0.10549 0.55622 0.0
N2081 N 0.72886 0.10346 0.55885 0.0
C2082 C 0.73839 0.09129 0.56854 0.0
C2083 C 0.75751 0.09239 0.56713 0.0
C2084 C 0.93382 0.24082 0.40952 0.0
C2085 C 0.92074 0.2322 0.42008 0.0
C2086 C 0.93475 0.25958 0.40852 0.0
C2087 C 0.92265 0.27052 0.41806 0.0
H2088 H 0.94395 0.23307 0.40253 0.0
H2089 H 0.94556 0.26549 0.40081 0.0
S2090 S 0.88412 0.25468 0.44542 0.0
N2091 N 0.89409 0.2361 0.43861 0.0
N2092 N 0.8959 0.27133 0.43678 0.0
C2093 C 0.90875 0.2621 0.4277 0.0
C2094 C 0.90778 0.24296 0.42869 0.0
C2095 C 0.73689 0.91088 0.42707 0.0
C2096 C 0.72869 0.92228 0.41443 0.0
C2097 C 0.75558 0.91046 0.42916 0.0
C2098 C 0.76688 0.92147 0.41875 0.0
H2099 H 0.72882 0.90268 0.43595 0.0
H2100 H 0.7611 0.90196 0.43958 0.0
S2101 S 0.75241 0.95183 0.38197 0.0
N2102 N 0.73353 0.94343 0.38997 0.0
N2103 N 0.76861 0.94269 0.39399 0.0
C2104 C 0.75897 0.93209 0.40528 0.0
C2105 C 0.7399 0.93248 0.4031 0.0
C2106 C 0.06644 0.75726 0.40871 0.0
C2107 C 0.0798 0.76544 0.41926 0.0
C2108 C 0.0647 0.73855 0.40795 0.0
C2109 C 0.0762 0.72722 0.41777 0.0
H2110 H 0.05677 0.76536 0.40147 0.0
H2111 H 0.05373 0.73301 0.40017 0.0
S2112 S 0.11495 0.74171 0.44557 0.0
N2113 N 0.10595 0.76061 0.43832 0.0
N2114 N 0.10258 0.72548 0.43694 0.0
C2115 C 0.09031 0.73515 0.42751 0.0
C2116 C 0.09214 0.75423 0.42823 0.0
C2117 C 0.24166 0.06312 0.4108 0.0
C2118 C 0.23349 0.07663 0.42117 0.0
C2119 C 0.26037 0.0613 0.41014 0.0
C2120 C 0.27171 0.07289 0.41984 0.0
H2121 H 0.23357 0.05336 0.40368 0.0
H2122 H 0.26589 0.05021 0.40252 0.0
S2123 S 0.25724 0.11216 0.44692 0.0
N2124 N 0.23833 0.10308 0.43978 0.0
N2125 N 0.27346 0.0996 0.43858 0.0
C2126 C 0.26379 0.08719 0.42933 0.0
C2127 C 0.24471 0.08907 0.42997 0.0
C2128 C 0.57349 0.90739 0.73863 0.0
C2129 C 0.58583 0.9194 0.73085 0.0
C2130 C 0.57152 0.90618 0.75729 0.0
C2131 C 0.58176 0.91697 0.76895 0.0
H2132 H 0.5647 0.89937 0.73027 0.0
H2133 H 0.56128 0.89729 0.76253 0.0
S2134 S 0.61794 0.94851 0.75557 0.0
N2135 N 0.60998 0.94075 0.73641 0.0
N2136 N 0.60616 0.93852 0.77145 0.0
C2137 C 0.59499 0.92814 0.76142 0.0
C2138 C 0.59706 0.92933 0.7424 0.0
C2139 C 0.06843 0.59326 0.74175 0.0
C2140 C 0.07923 0.58287 0.73023 0.0
C2141 C 0.07069 0.59268 0.7604 0.0
C2142 C 0.08389 0.58173 0.76832 0.0
H2143 H 0.05757 0.60133 0.73644 0.0
H2144 H 0.0615 0.60033 0.76866 0.0
S2145 S 0.11748 0.55403 0.74395 0.0
N2146 N 0.10493 0.56286 0.72798 0.0
N2147 N 0.10927 0.5618 0.763 0.0
C2148 C 0.09563 0.57226 0.75689 0.0
C2149 C 0.09327 0.57281 0.73787 0.0
C2150 C 0.42969 0.08865 0.74102 0.0
C2151 C 0.4162 0.078 0.73321 0.0
C2152 C 0.4316 0.08981 0.75969 0.0
C2153 C 0.4201 0.08038 0.77136 0.0
H2154 H 0.43933 0.09566 0.73269 0.0
H2155 H 0.44262 0.09771 0.76495 0.0
S2156 S 0.38111 0.05243 0.7578 0.0
N2157 N 0.39001 0.05919 0.73868 0.0
N2158 N 0.39366 0.06135 0.77373 0.0
C2159 C 0.40591 0.07048 0.76376 0.0
C2160 C 0.40395 0.0693 0.74472 0.0
C2161 C 0.91138 0.42893 0.73201 0.0
C2162 C 0.92375 0.41694 0.72427 0.0
C2163 C 0.90876 0.42958 0.7506 0.0
C2164 C 0.91845 0.41833 0.76229 0.0
H2165 H 0.90404 0.43835 0.72373 0.0
H2166 H 0.89954 0.43953 0.75584 0.0
S2167 S 0.95086 0.38295 0.74875 0.0
N2168 N 0.94458 0.39232 0.72968 0.0
N2169 N 0.9397 0.39362 0.76463 0.0
C2170 C 0.93011 0.40555 0.75469 0.0
C2171 C 0.93275 0.40483 0.7357 0.0
C2172 C 0.5917 0.07622 0.23745 0.0
C2173 C 0.57919 0.08783 0.22937 0.0
C2174 C 0.59349 0.0753 0.25613 0.0
C2175 C 0.58277 0.08587 0.26755 0.0
H2176 H 0.59973 0.06721 0.22935 0.0
H2177 H 0.6028 0.06557 0.26161 0.0
S2178 S 0.54981 0.12038 0.25316 0.0
N2179 N 0.55729 0.11162 0.23423 0.0
N2180 N 0.56061 0.10981 0.26935 0.0
C2181 C 0.57109 0.09845 0.25965 0.0
C2182 C 0.56932 0.09945 0.24057 0.0
C2183 C 0.93002 0.58779 0.2373 0.0
C2184 C 0.91747 0.57587 0.22971 0.0
C2185 C 0.932 0.5893 0.25593 0.0
C2186 C 0.92154 0.57897 0.26781 0.0
H2187 H 0.93888 0.59559 0.22881 0.0
H2188 H 0.9423 0.59823 0.261 0.0
S2189 S 0.88516 0.54741 0.25489 0.0
N2190 N 0.89321 0.55477 0.23562 0.0
N2191 N 0.89698 0.5576 0.27061 0.0
C2192 C 0.90824 0.56774 0.26044 0.0
C2193 C 0.9062 0.5662 0.24143 0.0
C2194 C 0.40569 0.92763 0.23778 0.0
C2195 C 0.4169 0.91472 0.22977 0.0
C2196 C 0.40412 0.92893 0.25646 0.0
C2197 C 0.41375 0.91743 0.26796 0.0
H2198 H 0.39853 0.93729 0.22961 0.0
H2199 H 0.39581 0.93956 0.26189 0.0
S2200 S 0.44321 0.87979 0.25379 0.0
N2201 N 0.43648 0.88902 0.23482 0.0
N2202 N 0.43357 0.89153 0.26991 0.0
C2203 C 0.42418 0.90375 0.26013 0.0
C2204 C 0.42573 0.90237 0.24106 0.0
C2205 C 0.06416 0.41218 0.255 0.0
C2206 C 0.07527 0.42209 0.26665 0.0
C2207 C 0.06568 0.41374 0.23633 0.0
C2208 C 0.07839 0.42531 0.22847 0.0
H2209 H 0.05372 0.40354 0.2603 0.0
H2210 H 0.05635 0.40628 0.22804 0.0
S2211 S 0.11223 0.45262 0.25292 0.0
N2212 N 0.10054 0.44268 0.2689 0.0
N2213 N 0.10344 0.44562 0.23383 0.0
C2214 C 0.09027 0.43455 0.23993 0.0
C2215 C 0.08871 0.43295 0.25898 0.0
C2216 C 0.73892 0.57056 0.91331 0.0
C2217 C 0.73166 0.58342 0.92509 0.0
C2218 C 0.75746 0.56926 0.9105 0.0
C2219 C 0.76957 0.58072 0.91941 0.0
H2220 H 0.73029 0.56093 0.90666 0.0
H2221 H 0.76232 0.55865 0.90183 0.0
S2222 S 0.75738 0.61837 0.94973 0.0
N2223 N 0.73799 0.60913 0.94429 0.0
N2224 N 0.77283 0.60662 0.93906 0.0
C2225 C 0.76245 0.59439 0.93035 0.0
C2226 C 0.74352 0.59576 0.93317 0.0
C2227 C 0.75858 0.42936 0.08736 0.0
C2228 C 0.76972 0.41779 0.07738 0.0
C2229 C 0.73984 0.428 0.08657 0.0
C2230 C 0.7314 0.41502 0.07575 0.0
H2231 H 0.76432 0.43998 0.09547 0.0
H2232 H 0.73194 0.43765 0.09404 0.0
S2233 S 0.75442 0.38006 0.04861 0.0
N2234 N 0.7709 0.39188 0.05752 0.0
N2235 N 0.73571 0.38929 0.05604 0.0
C2236 C 0.74237 0.40274 0.06642 0.0
C2237 C 0.76149 0.40413 0.06723 0.0
C2238 C 0.56918 0.73506 0.08797 0.0
C2239 C 0.58121 0.72678 0.07599 0.0
C2240 C 0.56797 0.75378 0.08919 0.0
C2241 C 0.57865 0.76505 0.07842 0.0
H2242 H 0.5601 0.72705 0.09602 0.0
H2243 H 0.55795 0.7594 0.09811 0.0
S2244 S 0.6141 0.75022 0.04669 0.0
N2245 N 0.60543 0.73138 0.0545 0.0
N2246 N 0.60304 0.76656 0.05676 0.0
C2247 C 0.59156 0.75699 0.06723 0.0
C2248 C 0.59287 0.73787 0.06604 0.0
C2249 C 0.25359 0.5748 0.09097 0.0
C2250 C 0.26182 0.5871 0.07922 0.0
C2251 C 0.23489 0.57309 0.09177 0.0
C2252 C 0.22362 0.58359 0.08083 0.0
H2253 H 0.26163 0.56574 0.09902 0.0
H2254 H 0.22932 0.56281 0.1004 0.0
S2255 S 0.23824 0.62007 0.05017 0.0
N2256 N 0.25711 0.61167 0.05819 0.0
N2257 N 0.22197 0.6084 0.05965 0.0
C2258 C 0.23159 0.59693 0.07007 0.0
C2259 C 0.25067 0.5987 0.06929 0.0
C2260 C 0.41197 0.2333 0.06816 0.0
C2261 C 0.42356 0.22626 0.0813 0.0
C2262 C 0.40956 0.25184 0.06618 0.0
C2263 C 0.41873 0.26416 0.0772 0.0
H2264 H 0.40515 0.22446 0.05883 0.0
H2265 H 0.40103 0.25651 0.05538 0.0
S2266 S 0.44878 0.25271 0.11527 0.0
N2267 N 0.44291 0.23311 0.10676 0.0
N2268 N 0.43844 0.26794 0.10296 0.0
C2269 C 0.4295 0.25731 0.09113 0.0
C2270 C 0.43189 0.23838 0.09321 0.0
C2271 C 0.23129 0.40992 0.92896 0.0
C2272 C 0.22371 0.42208 0.91666 0.0
C2273 C 0.24989 0.40752 0.93008 0.0
C2274 C 0.26174 0.41724 0.91903 0.0
H2275 H 0.22286 0.40264 0.93829 0.0
H2276 H 0.25499 0.39852 0.94029 0.0
S2277 S 0.2487 0.44899 0.88289 0.0
N2278 N 0.22948 0.44262 0.89188 0.0
N2279 N 0.26444 0.43815 0.89408 0.0
C2280 C 0.25432 0.4286 0.90588 0.0
C2281 C 0.23532 0.431 0.90467 0.0
C2282 C 0.5717 0.25962 0.90483 0.0
C2283 C 0.58549 0.26749 0.91506 0.0
C2284 C 0.56935 0.24096 0.90436 0.0
C2285 C 0.58065 0.22937 0.91412 0.0
H2286 H 0.56217 0.26793 0.89766 0.0
H2287 H 0.5581 0.23568 0.8968 0.0
S2288 S 0.62032 0.24298 0.94106 0.0
N2289 N 0.61179 0.26206 0.93372 0.0
N2290 N 0.60729 0.22705 0.93287 0.0
C2291 C 0.59516 0.23698 0.92353 0.0
C2292 C 0.5976 0.256 0.92398 0.0
C2293 C 0.40818 0.75553 0.9299 0.0
C2294 C 0.41948 0.76379 0.9172 0.0
C2295 C 0.40728 0.73679 0.93142 0.0
C2296 C 0.41768 0.72553 0.92036 0.0
H2297 H 0.40053 0.76355 0.9393 0.0
H2298 H 0.39897 0.73117 0.94195 0.0
S2299 S 0.44728 0.74029 0.88309 0.0
N2300 N 0.43969 0.75913 0.89193 0.0
N2301 N 0.43804 0.72398 0.89489 0.0
C2302 C 0.42808 0.73357 0.9068 0.0
C2303 C 0.42896 0.75266 0.90519 0.0
C2304 C 0.01802 0.15411 0.42069 0.0
C2305 C 0.03102 0.16399 0.4112 0.0
C2306 C -0.00029 0.15788 0.41893 0.0
C2307 C 0.99355 0.17164 0.40755 0.0
H2308 H 0.02199 0.14382 0.43016 0.0
H2309 H 0.99037 0.15025 0.42705 0.0
S2310 S 0.02191 0.20004 0.37796 0.0
N2311 N 0.03633 0.18706 0.38866 0.0
N2312 N 0.00187 0.19412 0.38533 0.0
C2313 C 0.0063 0.18088 0.39708 0.0
C2314 C 0.02503 0.17705 0.3989 0.0
C2315 C 0.84274 0.02035 0.4251 0.0
C2316 C 0.83286 0.03323 0.41547 0.0
C2317 C 0.83925 0.00199 0.42325 0.0
C2318 C 0.82575 0.99566 0.41164 0.0
H2319 H 0.85289 0.02445 0.43467 0.0
H2320 H 0.84693 0.99272 0.4314 0.0
S2321 S 0.79707 0.0237 0.38203 0.0
N2322 N 0.8098 0.03827 0.39283 0.0
N2323 N 0.80326 0.00372 0.38936 0.0
C2324 C 0.81638 0.00831 0.40118 0.0
C2325 C 0.81993 0.02708 0.40308 0.0
C2326 C 0.98301 0.84193 0.43024 0.0
C2327 C 0.9699 0.83482 0.41864 0.0
C2328 C 0.00127 0.83827 0.42775 0.0
C2329 C 0.00727 0.82743 0.4135 0.0
H2330 H 0.97917 0.85002 0.44169 0.0
H2331 H 0.01071 0.84381 0.43732 0.0
S2332 S 0.97856 0.80654 0.37849 0.0
N2333 N 0.9643 0.81715 0.39172 0.0
N2334 N 0.99865 0.81034 0.38701 0.0
C2335 C 0.99439 0.82078 0.40136 0.0
C2336 C 0.97572 0.82445 0.40394 0.0
C2337 C 0.17601 0.97471 0.40167 0.0
C2338 C 0.16098 0.96899 0.41162 0.0
C2339 C 0.18032 0.99297 0.40012 0.0
C2340 C 0.16981 0.00622 0.4085 0.0
H2341 H 0.18504 0.96501 0.39569 0.0
H2342 H 0.19247 0.99662 0.39301 0.0
S2343 S 0.12734 0.99859 0.43346 0.0
N2344 N 0.1343 0.97827 0.42803 0.0
N2345 N 0.14244 0.01252 0.42518 0.0
C2346 C 0.15404 0.00078 0.41741 0.0
C2347 C 0.14962 0.9822 0.41893 0.0
C2348 C 0.99656 0.83963 0.57725 0.0
C2349 C 0.99061 0.82661 0.58957 0.0
C2350 C 0.0148 0.84366 0.57534 0.0
C2351 C 0.02793 0.83473 0.58556 0.0
H2352 H 0.98709 0.84654 0.56865 0.0
H2353 H 0.01862 0.85338 0.56522 0.0
S2354 S 0.01935 0.80067 0.62096 0.0
N2355 N 0.99924 0.80572 0.61316 0.0
N2356 N 0.03358 0.81321 0.60951 0.0
C2357 C 0.02213 0.82232 0.5986 0.0
C2358 C 0.00348 0.81827 0.60061 0.0
C2359 C 0.17124 0.01968 0.59374 0.0
C2360 C 0.16021 0.02606 0.57976 0.0
C2361 C 0.17503 0.00133 0.59561 0.0
C2362 C 0.16809 0.98862 0.58348 0.0
H2363 H 0.1774 0.02896 0.60308 0.0
H2364 H 0.18395 0.99718 0.60631 0.0
S2365 S 0.1371 0.998 0.54558 0.0
N2366 N 0.1413 0.0179 0.55437 0.0
N2367 N 0.14854 0.98353 0.55782 0.0
C2368 C 0.15645 0.9947 0.56989 0.0
C2369 C 0.15247 0.01337 0.56807 0.0
C2370 C 0.9978 0.17673 0.594 0.0
C2371 C 0.01043 0.17065 0.58135 0.0
C2372 C 0.97945 0.17307 0.592 0.0
C2373 C 0.97298 0.16302 0.57734 0.0
H2374 H 0.00204 0.18482 0.60532 0.0
H2375 H 0.97024 0.17849 0.60185 0.0
S2376 S 0.00074 0.14267 0.54123 0.0
N2377 N 0.01531 0.15315 0.5542 0.0
N2378 N 0.98093 0.14616 0.55048 0.0
C2379 C 0.98557 0.15625 0.56496 0.0
C2380 C 0.00424 0.1601 0.56694 0.0
C2381 C 0.84022 0.99931 0.57518 0.0
C2382 C 0.82734 0.00602 0.58725 0.0
C2383 C 0.84368 0.9809 0.57382 0.0
C2384 C 0.83434 0.96834 0.58438 0.0
H2385 H 0.8475 0.00831 0.56638 0.0
H2386 H 0.85338 0.9765 0.56392 0.0
S2387 S 0.80026 0.97897 0.61919 0.0
N2388 N 0.80598 0.99869 0.61087 0.0
N2389 N 0.81244 0.96404 0.60825 0.0
C2390 C 0.82196 0.97489 0.5971 0.0
C2391 C 0.81848 0.99372 0.59854 0.0
C2392 C 0.42984 0.01465 0.15934 0.0
C2393 C 0.41788 0.0271 0.16699 0.0
C2394 C 0.42746 0.99615 0.16159 0.0
C2395 C 0.41294 0.98925 0.17152 0.0
H2396 H 0.44151 0.01917 0.15193 0.0
H2397 H 0.43732 0.98722 0.15574 0.0
S2398 S 0.37687 0.01607 0.19311 0.0
N2399 N 0.3903 0.03117 0.18403 0.0
N2400 N 0.38577 0.99637 0.18821 0.0
C2401 C 0.40042 0.0015 0.17863 0.0
C2402 C 0.4029 0.02041 0.17639 0.0
C2403 C 1e-05 0.42303 0.15688 0.0
C2404 C 0.00706 0.41172 0.17028 0.0
C2405 C 0.98149 0.42467 0.15421 0.0
C2406 C 0.96916 0.41512 0.16486 0.0
H2407 H 0.00884 0.43117 0.14868 0.0
H2408 H 0.97685 0.43406 0.14413 0.0
S2409 S 0.9806 0.38206 0.2004 0.0
N2410 N 0.0002 0.38955 0.1933 0.0
N2411 N 0.96537 0.39266 0.1883 0.0
C2412 C 0.976 0.40297 0.17764 0.0
C2413 C 0.99493 0.40127 0.18034 0.0
C2414 C 0.5932 0.97879 0.1677 0.0
C2415 C 0.57614 0.97166 0.17148 0.0
C2416 C 0.59599 0.99744 0.16693 0.0
C2417 C 0.58177 0.0096 0.16973 0.0
H2418 H 0.60458 0.96994 0.16582 0.0
H2419 H 0.60945 0.00232 0.1644 0.0
S2420 S 0.53405 0.99748 0.17817 0.0
N2421 N 0.54459 0.97806 0.17677 0.0
N2422 N 0.54965 0.0129 0.17518 0.0
C2423 C 0.56448 0.00251 0.17284 0.0
C2424 C 0.56172 0.98361 0.17376 0.0
C2425 C 0.01278 0.57614 0.15432 0.0
C2426 C 0.02544 0.58526 0.16495 0.0
C2427 C 0.99434 0.57814 0.15724 0.0
C2428 C 0.98772 0.58937 0.17092 0.0
H2429 H 0.01709 0.56684 0.144 0.0
H2430 H 0.98524 0.57034 0.14901 0.0
S2431 S 0.01518 0.61784 0.2013 0.0
N2432 N 0.03002 0.60716 0.18879 0.0
N2433 N 0.99533 0.61093 0.19428 0.0
C2434 C 0.00018 0.59938 0.18102 0.0
C2435 C 0.01903 0.59733 0.17804 0.0
C2436 C 0.40123 0.9794 0.82472 0.0
C2437 C 0.41121 0.97296 0.83942 0.0
C2438 C 0.39947 0.99786 0.82145 0.0
C2439 C 0.40763 0.01062 0.83275 0.0
H2440 H 0.39543 0.97014 0.81512 0.0
H2441 H 0.39234 0.00207 0.8095 0.0
S2442 S 0.43261 0.00083 0.87477 0.0
N2443 N 0.42745 0.98088 0.86662 0.0
N2444 N 0.42417 0.01551 0.8605 0.0
C2445 C 0.41655 0.00439 0.8482 0.0
C2446 C 0.41833 0.98559 0.85153 0.0
C2447 C 0.01057 0.4251 0.8418 0.0
C2448 C 0.02391 0.41523 0.83279 0.0
C2449 C 0.99235 0.42252 0.83809 0.0
C2450 C 0.98664 0.40987 0.82527 0.0
H2451 H 0.01418 0.4354 0.85141 0.0
H2452 H 0.9827 0.43085 0.84507 0.0
S2453 S 0.01606 0.37928 0.79912 0.0
N2454 N 0.03007 0.39133 0.81135 0.0
N2455 N 0.99577 0.38643 0.80441 0.0
C2456 C -0.00024 0.39923 0.81679 0.0
C2457 C 0.01839 0.40191 0.82054 0.0
C2458 C 0.59265 0.02093 0.82381 0.0
C2459 C 0.57941 0.02778 0.83545 0.0
C2460 C 0.59482 0.00241 0.82131 0.0
C2461 C 0.58376 0.98998 0.83023 0.0
H2462 H 0.60105 0.02993 0.81608 0.0
H2463 H 0.6048 0.99787 0.81176 0.0
S2464 S 0.54848 0.00075 0.86375 0.0
N2465 N 0.55614 0.02049 0.85722 0.0
N2466 N 0.56018 0.98575 0.85242 0.0
C2467 C 0.5711 0.99658 0.84261 0.0
C2468 C 0.56896 0.01545 0.84526 0.0
C2469 C 0.00566 0.57664 0.84075 0.0
C2470 C 0.01196 0.58943 0.82836 0.0
C2471 C 0.98728 0.57407 0.84364 0.0
C2472 C 0.97437 0.58408 0.83417 0.0
H2473 H 0.01498 0.56817 0.84802 0.0
H2474 H 0.98323 0.56364 0.85291 0.0
S2475 S 0.98377 0.62054 0.80147 0.0
N2476 N 0.00379 0.61324 0.80752 0.0
N2477 N 0.96922 0.60834 0.81288 0.0
C2478 C 0.98046 0.59756 0.82238 0.0
C2479 C 0.99925 0.60025 0.8195 0.0
C2480 C 0.17384 0.40836 0.02201 0.0
C2481 C 0.16135 0.42052 0.02933 0.0
C2482 C 0.17584 0.40643 0.0034 0.0
C2483 C 0.16549 0.41664 0.99136 0.0
H2484 H 0.18266 0.40071 0.03067 0.0
H2485 H 0.1861 0.39739 0.99847 0.0
S2486 S 0.12913 0.44851 0.00355 0.0
N2487 N 0.13715 0.44155 0.02298 0.0
N2488 N 0.14097 0.43797 0.98807 0.0
C2489 C 0.15222 0.42807 0.99847 0.0
C2490 C 0.15013 0.42998 0.01743 0.0
C2491 C 0.17733 0.59597 0.97541 0.0
C2492 C 0.16383 0.58501 0.96797 0.0
C2493 C 0.17911 0.59797 0.99402 0.0
C2494 C 0.1675 0.58909 0.00597 0.0
H2495 H 0.18707 0.60254 0.96685 0.0
H2496 H 0.19014 0.60601 0.99904 0.0
S2497 S 0.12835 0.56088 0.99336 0.0
N2498 N 0.13748 0.56666 0.97403 0.0
N2499 N 0.14085 0.5704 0.00897 0.0
C2500 C 0.15329 0.57894 0.99871 0.0
C2501 C 0.15145 0.57692 0.97973 0.0
C2502 C 0.4064 0.16967 0.99893 0.0
C2503 C 0.41948 0.16233 0.0104 0.0
C2504 C 0.40783 0.16801 0.98026 0.0
C2505 C 0.4223 0.15881 0.97229 0.0
H2506 H 0.39538 0.17746 0.00434 0.0
H2507 H 0.39783 0.17458 0.972 0.0
S2508 S 0.45874 0.13492 0.99658 0.0
N2509 N 0.44637 0.14394 0.01258 0.0
N2510 N 0.449 0.14068 0.97753 0.0
C2511 C 0.43482 0.15037 0.98368 0.0
C2512 C 0.43344 0.1522 0.0027 0.0
C2513 C 0.82251 0.40112 0.97559 0.0
C2514 C 0.83818 0.40999 0.96979 0.0
C2515 C 0.81891 0.39863 0.99388 0.0
C2516 C 0.83083 0.40492 0.00711 0.0
H2517 H 0.81247 0.39681 0.96599 0.0
H2518 H 0.80628 0.3925 0.99763 0.0
S2519 S 0.87521 0.42615 0.99898 0.0
N2520 N 0.86679 0.42297 0.97874 0.0
N2521 N 0.86004 0.41831 0.01308 0.0
C2522 C 0.84716 0.41259 0.00148 0.0
C2523 C 0.85084 0.41511 0.98284 0.0
C2524 C 0.59381 0.81563 0.99252 0.0
C2525 C 0.5845 0.8258 0.00541 0.0
C2526 C 0.59197 0.81918 0.97413 0.0
C2527 C 0.58076 0.83308 0.9679 0.0
H2528 H 0.60209 0.80438 0.99657 0.0
H2529 H 0.59889 0.8105 0.96475 0.0
S2530 S 0.55545 0.8653 0.99631 0.0
N2531 N 0.56511 0.85156 0.01075 0.0
N2532 N 0.56166 0.85824 0.97626 0.0
C2533 C 0.5722 0.84402 0.98071 0.0
C2534 C 0.57405 0.84038 -0.00057 0.0
C2535 C 0.84532 0.57237 0.01298 0.0
C2536 C 0.83523 0.58176 0.02589 0.0
C2537 C 0.84275 0.57528 0.99461 0.0
C2538 C 0.83006 0.58779 0.98832 0.0
H2539 H 0.85481 0.56213 0.01702 0.0
H2540 H 0.85047 0.56724 0.98526 0.0
S2541 S 0.80163 0.61741 0.0166 0.0
N2542 N 0.8131 0.60524 0.03112 0.0
N2543 N 0.80832 0.61076 0.99656 0.0
C2544 C 0.8206 0.59804 0.00107 0.0
C2545 C 0.82317 0.59502 0.01985 0.0
C2546 C 0.42104 0.83591 0.9971 0.0
C2547 C 0.40992 0.8219 0.99099 0.0
C2548 C 0.42279 0.83974 0.0154 0.0
C2549 C 0.4135 0.82974 0.02844 0.0
H2550 H 0.42888 0.84377 0.98771 0.0
H2551 H 0.43194 0.85034 0.01933 0.0
S2552 S 0.38145 0.79255 0.01954 0.0
N2553 N 0.38853 0.79869 -0.00054 0.0
N2554 N 0.3918 0.80589 0.03388 0.0
C2555 C 0.40166 0.81622 0.02252 0.0
C2556 C 0.39987 0.8123 0.00381 0.0
C2557 C 0.58313 0.15425 0.99191 0.0
C2558 C 0.59467 0.16758 0.98513 0.0
C2559 C 0.5823 0.15048 0.01028 0.0
C2560 C 0.59289 0.15995 0.02272 0.0
H2561 H 0.57424 0.14694 0.98302 0.0
H2562 H 0.57269 0.14053 0.01477 0.0
S2563 S 0.62677 0.19488 0.01175 0.0
N2564 N 0.61807 0.18926 0.99216 0.0
N2565 N 0.61647 0.18225 0.02675 0.0
C2566 C 0.60527 0.17261 0.01604 0.0
C2567 C 0.60617 0.17641 0.99725 0.0
C2568 C 0.51802 0.65421 0.92636 0.0
C2569 C 0.53019 0.66399 0.91574 0.0
C2570 C 0.49948 0.65651 0.92457 0.0
C2571 C 0.49225 0.66863 0.91201 0.0
H2572 H 0.5228 0.64512 0.93665 0.0
H2573 H 0.49077 0.64901 0.93347 0.0
S2574 S 0.51822 0.6962 0.87959 0.0
N2575 N 0.53363 0.68529 0.89118 0.0
N2576 N 0.49873 0.68958 0.88779 0.0
C2577 C 0.5042 0.67781 0.90061 0.0
C2578 C 0.52317 0.6755 0.90247 0.0
C2579 C 0.34017 0.51166 0.92606 0.0
C2580 C 0.33017 0.52505 0.91726 0.0
C2581 C 0.33608 0.49343 0.92396 0.0
C2582 C 0.32179 0.48775 0.91297 0.0
H2583 H 0.35103 0.51526 0.93503 0.0
H2584 H 0.344 0.48375 0.93138 0.0
S2585 S 0.29207 0.51736 0.88599 0.0
N2586 N 0.30583 0.53129 0.89635 0.0
N2587 N 0.29815 0.49704 0.89241 0.0
C2588 C 0.31208 0.50095 0.90353 0.0
C2589 C 0.31626 0.51957 0.90566 0.0
C2590 C 0.49143 0.34722 0.92166 0.0
C2591 C 0.4785 0.3402 0.90982 0.0
C2592 C 0.5097 0.3435 0.91947 0.0
C2593 C 0.51588 0.33272 0.90525 0.0
H2594 H 0.48742 0.35511 0.9332 0.0
H2595 H 0.519 0.34882 0.92931 0.0
S2596 S 0.48778 0.31266 0.86931 0.0
N2597 N 0.47332 0.3231 0.88246 0.0
N2598 N 0.50773 0.3162 0.87827 0.0
C2599 C 0.50324 0.32642 0.8927 0.0
C2600 C 0.48455 0.33013 0.895 0.0
C2601 C 0.67621 0.49959 0.90638 0.0
C2602 C 0.6683 0.5114 0.9188 0.0
C2603 C 0.67348 0.48101 0.90752 0.0
C2604 C 0.66261 0.47348 0.92104 0.0
H2605 H 0.68516 0.50464 0.89609 0.0
H2606 H 0.68044 0.47245 0.89805 0.0
S2607 S 0.63696 0.49887 0.95548 0.0
N2608 N 0.64781 0.51443 0.94405 0.0
N2609 N 0.64257 0.47958 0.94614 0.0
C2610 C 0.65376 0.48526 0.9329 0.0
C2611 C 0.65666 0.50418 0.93181 0.0
C2612 C 0.51926 0.32251 0.09111 0.0
C2613 C 0.52555 0.33552 0.07891 0.0
C2614 C 0.50087 0.319 0.09303 0.0
C2615 C 0.48805 0.32826 0.08273 0.0
H2616 H 0.52861 0.31448 0.09881 0.0
H2617 H 0.49676 0.30843 0.10213 0.0
S2618 S 0.49719 0.36533 0.05069 0.0
N2619 N 0.51721 0.35901 0.05774 0.0
N2620 N 0.48274 0.35228 0.06126 0.0
C2621 C 0.49405 0.342 0.07124 0.0
C2622 C 0.51276 0.34568 0.06938 0.0
C2623 C 0.67363 0.51594 0.10249 0.0
C2624 C 0.65926 0.52241 0.09203 0.0
C2625 C 0.67777 0.49758 0.10308 0.0
C2626 C 0.66775 0.48499 0.0932 0.0
H2627 H 0.68231 0.52518 0.10961 0.0
H2628 H 0.68941 0.49336 0.1107 0.0
S2629 S 0.62701 0.49459 0.06611 0.0
N2630 N 0.63367 0.51444 0.07335 0.0
N2631 N 0.6415 0.48002 0.07439 0.0
C2632 C 0.65263 0.49113 0.08367 0.0
C2633 C 0.64836 0.5098 0.08312 0.0
C2634 C 0.48117 0.65393 0.07284 0.0
C2635 C 0.46882 0.66367 0.0833 0.0
C2636 C 0.49967 0.65673 0.07445 0.0
C2637 C 0.50669 0.66935 0.08664 0.0
H2638 H 0.47654 0.64446 0.06282 0.0
H2639 H 0.5085 0.64922 0.06567 0.0
S2640 S 0.48023 0.69708 0.11853 0.0
N2641 N 0.46502 0.68551 0.10732 0.0
N2642 N 0.49983 0.69074 0.11037 0.0
C2643 C 0.49457 0.67852 0.09788 0.0
C2644 C 0.47565 0.67569 0.09621 0.0
C2645 C 0.31017 0.48445 0.07238 0.0
C2646 C 0.3208 0.47248 0.08237 0.0
C2647 C 0.31163 0.50299 0.0746 0.0
C2648 C 0.32375 0.51053 0.08697 0.0
H2649 H 0.30072 0.47954 0.06248 0.0
H2650 H 0.30317 0.51146 0.06635 0.0
S2651 S 0.35419 0.4851 0.11716 0.0
N2652 N 0.34354 0.46944 0.10563 0.0
N2653 N 0.34626 0.50448 0.10987 0.0
C2654 C 0.33423 0.49876 0.09741 0.0
C2655 C 0.33277 0.47972 0.0951 0.0
C2656 C 0.90519 0.52119 0.67447 0.0
C2657 C 0.91567 0.52866 0.66062 0.0
C2658 C 0.90425 0.50257 0.67704 0.0
C2659 C 0.91375 0.49065 0.66589 0.0
H2660 H 0.89819 0.52978 0.68388 0.0
H2661 H 0.89654 0.49757 0.68831 0.0
S2662 S 0.94104 0.50317 0.62608 0.0
N2663 N 0.93422 0.52252 0.63444 0.0
N2664 N 0.93247 0.48759 0.63928 0.0
C2665 C 0.92342 0.49787 0.65134 0.0
C2666 C 0.92436 0.51684 0.6487 0.0
C2667 C 0.5076 0.91941 0.65856 0.0
C2668 C 0.514 0.9081 0.67228 0.0
C2669 C 0.48921 0.92151 0.65542 0.0
C2670 C 0.47636 0.91248 0.66592 0.0
H2671 H 0.51686 0.92711 0.65041 0.0
H2672 H 0.48509 0.93084 0.64506 0.0
S2673 S 0.48602 0.87993 0.70244 0.0
N2674 N 0.50599 0.88667 0.69561 0.0
N2675 N 0.47138 0.89067 0.68975 0.0
C2676 C 0.48255 0.9004 0.67909 0.0
C2677 C 0.50136 0.89821 0.68226 0.0
C2678 C 0.07518 0.50216 0.65908 0.0
C2679 C 0.08774 0.50929 0.67126 0.0
C2680 C 0.07377 0.48366 0.6562 0.0
C2681 C 0.08479 0.47143 0.66544 0.0
H2682 H 0.06596 0.5109 0.652 0.0
H2683 H 0.06344 0.47894 0.64712 0.0
S2684 S 0.12121 0.48319 0.69741 0.0
N2685 N 0.11247 0.5027 0.69158 0.0
N2686 N 0.10979 0.46787 0.68619 0.0
C2687 C 0.0981 0.47839 0.67694 0.0
C2688 C 0.09958 0.49731 0.67984 0.0
C2689 C 0.49899 0.09797 0.67773 0.0
C2690 C 0.48573 0.08833 0.66836 0.0
C2691 C 0.51726 0.09582 0.67372 0.0
C2692 C 0.523 0.08401 0.66011 0.0
H2693 H 0.49534 0.10671 0.68876 0.0
H2694 H 0.52695 0.10299 0.68185 0.0
S2695 S 0.49341 0.05756 0.62988 0.0
N2696 N 0.47948 0.06793 0.64361 0.0
N2697 N 0.51371 0.06394 0.63602 0.0
C2698 C 0.50979 0.07516 0.64987 0.0
C2699 C 0.4912 0.07729 0.65402 0.0
C2700 C 0.90473 0.47857 0.32261 0.0
C2701 C 0.91558 0.47202 0.33664 0.0
C2702 C 0.90297 0.49703 0.31944 0.0
C2703 C 0.912 0.50971 0.33014 0.0
H2704 H 0.89811 0.46938 0.31349 0.0
H2705 H 0.89504 0.50132 0.30802 0.0
S2706 S 0.93986 0.4997 0.37026 0.0
N2707 N 0.93387 0.4798 0.36256 0.0
N2708 N 0.93059 0.51445 0.35659 0.0
C2709 C 0.92197 0.50339 0.34491 0.0
C2710 C 0.92374 0.48458 0.34816 0.0
C2711 C 0.49884 0.90066 0.31919 0.0
C2712 C 0.48604 0.91347 0.3247 0.0
C2713 C 0.51723 0.90481 0.31872 0.0
C2714 C 0.52339 0.922 0.32342 0.0
H2715 H 0.49461 0.88747 0.31478 0.0
H2716 H 0.52658 0.89477 0.31388 0.0
S2717 S 0.4959 0.95982 0.34049 0.0
N2718 N 0.48128 0.94367 0.33646 0.0
N2719 N 0.51567 0.95144 0.3351 0.0
C2720 C 0.51091 0.93467 0.32966 0.0
C2721 C 0.49228 0.9304 0.33045 0.0
C2722 C 0.07423 0.51661 0.3425 0.0
C2723 C 0.08375 0.52918 0.33212 0.0
C2724 C 0.07619 0.49814 0.3397 0.0
C2725 C 0.08782 0.49139 0.32642 0.0
H2726 H 0.06463 0.52102 0.3525 0.0
H2727 H 0.06808 0.48912 0.34771 0.0
S2728 S 0.1174 0.51857 0.29687 0.0
N2729 N 0.10643 0.53353 0.30899 0.0
N2730 N 0.11014 0.49879 0.30373 0.0
C2731 C 0.09821 0.50377 0.3166 0.0
C2732 C 0.09618 0.52264 0.31944 0.0
C2733 C 0.50483 0.07867 0.34034 0.0
C2734 C 0.51069 0.09099 0.32727 0.0
C2735 C 0.48655 0.07585 0.3436 0.0
C2736 C 0.47329 0.08514 0.33388 0.0
H2737 H 0.51442 0.07074 0.34785 0.0
H2738 H 0.48285 0.06578 0.35341 0.0
S2739 S 0.48147 0.12016 0.29932 0.0
N2740 N 0.50173 0.11359 0.30544 0.0
N2741 N 0.46734 0.10824 0.31153 0.0
C2742 C 0.47893 0.0982 0.3214 0.0
C2743 C 0.49762 0.10112 0.3181 0.0
C2744 C 0.67938 0.8983 0.49752 0.0
C2745 C 0.66798 0.90674 0.48507 0.0
C2746 C 0.67644 0.89991 0.51604 0.0
C2747 C 0.66194 0.90999 0.52282 0.0
H2748 H 0.69119 0.89112 0.49301 0.0
H2749 H 0.68614 0.89392 0.52506 0.0
S2750 S 0.62635 0.93199 0.49573 0.0
N2751 N 0.64032 0.92357 0.48075 0.0
N2752 N 0.63474 0.92654 0.51548 0.0
C2753 C 0.64966 0.91731 0.51047 0.0
C2754 C 0.6527 0.91573 0.49162 0.0
C2755 C 0.68085 0.09557 0.49523 0.0
C2756 C 0.67018 0.08664 0.508 0.0
C2757 C 0.67811 0.09308 0.47678 0.0
C2758 C 0.66455 0.08158 0.47033 0.0
H2759 H 0.69186 0.10407 0.49946 0.0
H2760 H 0.68714 0.09977 0.46756 0.0
S2761 S 0.63139 0.05685 0.49817 0.0
N2762 N 0.64439 0.06714 0.51284 0.0
N2763 N 0.63923 0.06251 0.47824 0.0
C2764 C 0.65312 0.07336 0.48294 0.0
C2765 C 0.65594 0.07587 0.50173 0.0
C2766 C 0.90479 0.67679 0.47511 0.0
C2767 C 0.91579 0.66341 0.46752 0.0
C2768 C 0.90301 0.67854 0.49375 0.0
C2769 C 0.91218 0.66702 0.50558 0.0
H2770 H 0.89806 0.6865 0.46664 0.0
H2771 H 0.89496 0.68951 0.49888 0.0
S2772 S 0.94048 0.62809 0.49258 0.0
N2773 N 0.93438 0.63718 0.47333 0.0
N2774 N 0.93107 0.64051 0.50832 0.0
C2775 C 0.92231 0.65289 0.49817 0.0
C2776 C 0.92409 0.65107 0.47918 0.0
C2777 C 0.34489 0.9215 0.48403 0.0
C2778 C 0.3344 0.9112 0.47218 0.0
C2779 C 0.34276 0.92012 0.50264 0.0
C2780 C 0.33011 0.90832 0.51023 0.0
H2781 H 0.35436 0.93129 0.47896 0.0
H2782 H 0.35077 0.92883 0.51109 0.0
S2783 S 0.30082 0.8767 0.48516 0.0
N2784 N 0.31202 0.88754 0.46942 0.0
N2785 N 0.30804 0.88492 0.50442 0.0
C2786 C 0.32029 0.89712 0.49859 0.0
C2787 C 0.32242 0.89857 0.47957 0.0
C2788 C 0.09563 0.32164 0.49407 0.0
C2789 C 0.08654 0.33277 0.50631 0.0
C2790 C 0.09374 0.324 0.4755 0.0
C2791 C 0.08271 0.33762 0.46841 0.0
H2792 H 0.10368 0.31049 0.4988 0.0
H2793 H 0.1004 0.31454 0.46669 0.0
S2794 S 0.05823 0.37216 0.49475 0.0
N2795 N 0.06772 0.35922 0.51002 0.0
N2796 N 0.0642 0.36369 0.47518 0.0
C2797 C 0.07452 0.34961 0.48051 0.0
C2798 C 0.07641 0.34717 0.49943 0.0
C2799 C 0.34414 0.07345 0.51893 0.0
C2800 C 0.33319 0.08316 0.53086 0.0
C2801 C 0.34178 0.07467 0.50034 0.0
C2802 C 0.32843 0.08573 0.49283 0.0
H2803 H 0.35419 0.06422 0.52394 0.0
H2804 H 0.3502 0.06642 0.49183 0.0
S2805 S 0.29756 0.11564 0.5181 0.0
N2806 N 0.3095 0.10549 0.53376 0.0
N2807 N 0.3051 0.10782 0.49879 0.0
C2808 C 0.31808 0.09637 0.50454 0.0
C2809 C 0.32045 0.09508 0.52354 0.0
C2810 C 0.92118 0.33978 0.49879 0.0
C2811 C 0.91063 0.32575 0.49179 0.0
C2812 C 0.92316 0.34222 0.5173 0.0
C2813 C 0.9147 0.33072 0.52965 0.0
H2814 H 0.92847 0.3487 0.48992 0.0
H2815 H 0.93193 0.35287 0.52189 0.0
S2816 S 0.88403 0.29302 0.5184 0.0
N2817 N 0.8904 0.30104 0.49875 0.0
N2818 N 0.89412 0.30561 0.53357 0.0
C2819 C 0.90328 0.31723 0.52289 0.0
C2820 C 0.90125 0.31474 0.50397 0.0
C2821 C 0.07482 0.65698 0.49815 0.0
C2822 C 0.08674 0.66979 0.49104 0.0
C2823 C 0.07304 0.6545 0.51667 0.0
C2824 C 0.08309 0.66475 0.52894 0.0
H2825 H 0.06632 0.64909 0.48937 0.0
H2826 H 0.06321 0.64487 0.52136 0.0
S2827 S 0.11766 0.69878 0.51732 0.0
N2828 N 0.10989 0.69187 0.49776 0.0
N2829 N 0.10655 0.68722 0.53261 0.0
C2830 C 0.09581 0.67694 0.52204 0.0
C2831 C 0.09764 0.67945 0.5031 0.0
C2832 C 0.07064 0.15979 0.50132 0.0
C2833 C 0.07829 0.17048 0.51487 0.0
C2834 C 0.07578 0.16172 0.48333 0.0
C2835 C 0.0889 0.17432 0.47815 0.0
H2836 H 0.06028 0.15011 0.50452 0.0
H2837 H 0.0692 0.15339 0.4734 0.0
S2838 S 0.11401 0.20474 0.50868 0.0
N2839 N 0.10034 0.19352 0.52201 0.0
N2840 N 0.11005 0.1971 0.48827 0.0
C2841 C 0.09708 0.18471 0.49165 0.0
C2842 C 0.09176 0.18282 0.50997 0.0
C2843 C 0.80092 0.05984 0.48454 0.0
C2844 C 0.81322 0.07208 0.47705 0.0
C2845 C 0.80097 0.05593 0.50292 0.0
C2846 C 0.81332 0.06408 0.51465 0.0
H2847 H 0.79112 0.05313 0.47617 0.0
H2848 H 0.79119 0.0464 0.50792 0.0
S2849 S 0.84838 0.09723 0.50191 0.0
N2850 N 0.83813 0.09242 0.48287 0.0
N2851 N 0.83823 0.0851 0.51742 0.0
C2852 C 0.82571 0.07641 0.50738 0.0
C2853 C 0.82566 0.08039 0.4886 0.0
C2854 C 0.92339 0.84251 0.50599 0.0
C2855 C 0.92388 0.82812 0.51824 0.0
C2856 C 0.92111 0.83954 0.48754 0.0
C2857 C 0.91934 0.82206 0.48058 0.0
H2858 H 0.92506 0.85619 0.51062 0.0
H2859 H 0.92115 0.85103 0.47862 0.0
S2860 S 0.91818 0.7798 0.50697 0.0
N2861 N 0.92124 0.79571 0.52206 0.0
N2862 N 0.91712 0.79022 0.48747 0.0
C2863 C 0.91931 0.80758 0.49269 0.0
C2864 C 0.92152 0.81058 0.51148 0.0
C2865 C 0.15914 0.92477 0.48411 0.0
C2866 C 0.17151 0.91153 0.47873 0.0
C2867 C 0.15749 0.92989 0.50213 0.0
C2868 C 0.16826 0.92209 0.51553 0.0
H2869 H 0.15075 0.93145 0.47429 0.0
H2870 H 0.14795 0.94033 0.5055 0.0
S2871 S 0.20211 0.88608 0.5088 0.0
N2872 N 0.19423 0.89015 0.48851 0.0
N2873 N 0.19119 0.89982 0.52231 0.0
C2874 C 0.18042 0.90853 0.51044 0.0
C2875 C 0.18201 0.90323 0.49208 0.0
C2876 C 0.0659 0.83921 0.49526 0.0
C2877 C 0.07396 0.8292 0.48143 0.0
C2878 C 0.07115 0.83705 0.51319 0.0
C2879 C 0.08477 0.82488 0.51806 0.0
H2880 H 0.05516 0.84856 0.4923 0.0
H2881 H 0.06426 0.84488 0.52332 0.0
S2882 S 0.11102 0.79623 0.48678 0.0
N2883 N 0.09689 0.80722 0.47373 0.0
N2884 N 0.10678 0.80321 0.50737 0.0
C2885 C 0.09332 0.81514 0.5043 0.0
C2886 C 0.08791 0.81727 0.48603 0.0
C2887 C 0.18502 0.06494 0.49011 0.0
C2888 C 0.16913 0.07101 0.48187 0.0
C2889 C 0.18744 0.06608 0.5087 0.0
C2890 C 0.17414 0.07342 0.5199 0.0
H2891 H 0.19574 0.05916 0.48217 0.0
H2892 H 0.19993 0.06116 0.51429 0.0
S2893 S 0.13002 0.09137 0.50515 0.0
N2894 N 0.13982 0.08473 0.48643 0.0
N2895 N 0.14441 0.08691 0.52139 0.0
C2896 C 0.15818 0.07964 0.51188 0.0
C2897 C 0.15568 0.07842 0.49289 0.0
C2898 C 0.93238 0.18853 0.5079 0.0
C2899 C 0.924 0.1759 0.51916 0.0
C2900 C 0.93362 0.18577 0.48936 0.0
C2901 C 0.92656 0.17025 0.48122 0.0
H2902 H 0.93813 0.2007 0.51341 0.0
H2903 H 0.94025 0.19596 0.48138 0.0
S2904 S 0.90311 0.13297 0.50466 0.0
N2905 N 0.90837 0.14722 0.52078 0.0
N2906 N 0.91071 0.14205 0.48593 0.0
C2907 C 0.91803 0.1575 0.49229 0.0
C2908 C 0.91675 0.16032 0.51123 0.0
C2909 C 0.81192 0.9336 0.49174 0.0
C2910 C 0.82848 0.92919 0.48379 0.0
C2911 C 0.80903 0.93137 0.51017 0.0
C2912 C 0.82252 0.92451 0.52146 0.0
H2913 H 0.80103 0.93893 0.48371 0.0
H2914 H 0.79602 0.93501 0.51556 0.0
S2915 S 0.86836 0.91081 0.50743 0.0
N2916 N 0.85864 0.91759 0.48872 0.0
N2917 N 0.85316 0.91333 0.52335 0.0
C2918 C 0.83916 0.91996 0.51372 0.0
C2919 C 0.84214 0.92232 0.49491 0.0
C2920 C 0.48642 0.06156 0.2004 0.0
C2921 C 0.47764 0.07261 0.18785 0.0
C2922 C 0.50508 0.05944 0.20019 0.0
C2923 C 0.51583 0.0683 0.18744 0.0
H2924 H 0.47884 0.05431 0.21046 0.0
H2925 H 0.51107 0.05065 0.2101 0.0
S2926 S 0.4996 0.09921 0.15184 0.0
N2927 N 0.48122 0.09284 0.16244 0.0
N2928 N 0.51632 0.08889 0.16206 0.0
C2929 C 0.50729 0.07959 0.17491 0.0
C2930 C 0.48822 0.08173 0.1751 0.0
C2931 C 0.94333 0.48723 0.19339 0.0
C2932 C 0.93022 0.4788 0.18271 0.0
C2933 C 0.94594 0.50583 0.19281 0.0
C2934 C 0.93553 0.51686 0.18156 0.0
H2935 H 0.95168 0.47944 0.20239 0.0
H2936 H 0.95615 0.51159 0.20141 0.0
S2937 S 0.89959 0.50148 0.15056 0.0
N2938 N 0.90684 0.48293 0.16027 0.0
N2939 N 0.91171 0.5179 0.15919 0.0
C2940 C 0.92245 0.50862 0.17065 0.0
C2941 C 0.91981 0.48961 0.17122 0.0
C2942 C 0.49401 0.9249 0.15456 0.0
C2943 C 0.48091 0.91991 0.16719 0.0
C2944 C 0.51213 0.9205 0.15707 0.0
C2945 C 0.51789 0.91081 0.17225 0.0
H2946 H 0.49035 0.93266 0.14282 0.0
H2947 H 0.52172 0.92505 0.14713 0.0
S2948 S 0.48861 0.89322 0.2086 0.0
N2949 N 0.47477 0.9038 0.19494 0.0
N2950 N 0.50874 0.89546 0.19962 0.0
C2951 C 0.50481 0.90517 0.18468 0.0
C2952 C 0.48636 0.90975 0.18217 0.0
C2953 C 0.07356 0.51169 0.1728 0.0
C2954 C 0.06387 0.52275 0.18466 0.0
C2955 C 0.0708 0.49308 0.17233 0.0
C2956 C 0.05819 0.48472 0.18366 0.0
H2957 H 0.08347 0.51741 0.16382 0.0
H2958 H 0.07869 0.48521 0.16299 0.0
S2959 S 0.02907 0.50763 0.21705 0.0
N2960 N 0.04095 0.52394 0.20793 0.0
N2961 N 0.03577 0.48905 0.20703 0.0
C2962 C 0.04831 0.49563 0.19552 0.0
C2963 C 0.05115 0.51459 0.19603 0.0
C2964 C 0.48308 0.92693 0.83879 0.0
C2965 C 0.47747 0.91584 0.82455 0.0
C2966 C 0.5012 0.93137 0.84117 0.0
C2967 C 0.51448 0.92503 0.82934 0.0
H2968 H 0.4734 0.93234 0.84819 0.0
H2969 H 0.50475 0.94006 0.85228 0.0
S2970 S 0.50697 0.89522 0.79004 0.0
N2971 N 0.48677 0.89833 0.79858 0.0
N2972 N 0.52077 0.90671 0.803 0.0
C2973 C 0.5091 0.91375 0.81513 0.0
C2974 C 0.49063 0.90914 0.81276 0.0
C2975 C 0.06579 0.5057 0.84025 0.0
C2976 C 0.07474 0.5193 0.83069 0.0
C2977 C 0.07012 0.48756 0.83777 0.0
C2978 C 0.08367 0.48225 0.8257 0.0
H2979 H 0.0551 0.50901 0.84953 0.0
H2980 H 0.06263 0.47763 0.84529 0.0
S2981 S 0.1118 0.51268 0.79795 0.0
N2982 N 0.09828 0.52623 0.80908 0.0
N2983 N 0.10643 0.4922 0.80446 0.0
C2984 C 0.09304 0.49574 0.81635 0.0
C2985 C 0.08857 0.51423 0.81881 0.0
C2986 C 0.48841 0.07426 0.82455 0.0
C2987 C 0.47985 0.05919 0.817 0.0
C2988 C 0.50703 0.07661 0.82323 0.0
C2989 C 0.51788 0.06402 0.81426 0.0
H2990 H 0.48068 0.08446 0.83144 0.0
H2991 H 0.5129 0.08852 0.82915 0.0
S2992 S 0.5023 0.02172 0.7929 0.0
N2993 N 0.48383 0.03111 0.80073 0.0
N2994 N 0.51876 0.03554 0.79824 0.0
C2995 C 0.50956 0.04875 0.80685 0.0
C2996 C 0.49058 0.04633 0.80822 0.0
C2997 C 0.93425 0.49256 0.83648 0.0
C2998 C 0.92385 0.47911 0.82828 0.0
C2999 C 0.92983 0.51075 0.83468 0.0
C3000 C 0.91475 0.51627 0.8247 0.0
H3001 H 0.94618 0.48908 0.84403 0.0
H3002 H 0.93852 0.52056 0.84099 0.0
S3003 S 0.88225 0.48621 0.80173 0.0
N3004 N 0.89718 0.47247 0.81061 0.0
N3005 N 0.88883 0.50662 0.80728 0.0
C3006 C 0.90387 0.50291 0.81691 0.0
C3007 C 0.90844 0.48436 0.81867 0.0
C3008 C 0.19634 0.48973 0.056 0.0
C3009 C 0.18495 0.48114 0.06838 0.0
C3010 C 0.19537 0.50828 0.05304 0.0
C3011 C 0.18295 0.51906 0.06232 0.0
H3012 H 0.20613 0.4821 0.04842 0.0
H3013 H 0.20444 0.51415 0.04332 0.0
S3014 S 0.15009 0.50325 0.09636 0.0
N3015 N 0.16086 0.48492 0.09013 0.0
N3016 N 0.15902 0.51974 0.08458 0.0
C3017 C 0.1715 0.51068 0.07482 0.0
C3018 C 0.1725 0.49176 0.07785 0.0
C3019 C 0.17276 0.4955 0.92534 0.0
C3020 C 0.18638 0.48615 0.93452 0.0
C3021 C 0.17398 0.51403 0.92228 0.0
C3022 C 0.18888 0.524 0.92825 0.0
H3023 H 0.16091 0.48851 0.92062 0.0
H3024 H 0.16302 0.52059 0.91534 0.0
S3025 S 0.22878 0.50577 0.95197 0.0
N3026 N 0.21565 0.4882 0.94889 0.0
N3027 N 0.21795 0.52295 0.94314 0.0
C3028 C 0.20276 0.51478 0.93717 0.0
C3029 C 0.20151 0.4959 0.9403 0.0
C3030 C 0.48962 0.19599 0.94582 0.0
C3031 C 0.48049 0.18597 0.93266 0.0
C3032 C 0.50833 0.19533 0.94738 0.0
C3033 C 0.51878 0.18461 0.93586 0.0
H3034 H 0.48228 0.20447 0.95508 0.0
H3035 H 0.51462 0.20333 0.95776 0.0
S3036 S 0.5015 0.1557 0.89905 0.0
N3037 N 0.48337 0.16493 0.90782 0.0
N3038 N 0.51854 0.16369 0.91074 0.0
C3039 C 0.50985 0.1745 0.9226 0.0
C3040 C 0.49074 0.17518 0.921 0.0
C3041 C 0.8236 0.51365 0.91188 0.0
C3042 C 0.83546 0.51873 0.92568 0.0
C3043 C 0.82149 0.49564 0.90694 0.0
C3044 C 0.83104 0.48189 0.91568 0.0
H3045 H 0.81572 0.52365 0.90485 0.0
H3046 H 0.81198 0.4925 0.8964 0.0
S3047 S 0.8643 0.48802 0.95233 0.0
N3048 N 0.85733 0.50854 0.9477 0.0
N3049 N 0.8533 0.47467 0.93849 0.0
C3050 C 0.84322 0.48678 0.92929 0.0
C3051 C 0.84545 0.50519 0.93426 0.0
C3052 C 0.49362 0.83763 0.91862 0.0
C3053 C 0.48192 0.82371 0.92375 0.0
C3054 C 0.51215 0.83472 0.91702 0.0
C3055 C 0.51976 0.81779 0.92053 0.0
H3056 H 0.4885 0.85097 0.91595 0.0
H3057 H 0.52058 0.84594 0.91323 0.0
S3058 S 0.49492 0.77648 0.93335 0.0
N3059 N 0.47928 0.79206 0.93159 0.0
N3060 N 0.51402 0.78666 0.92865 0.0
C3061 C 0.5082 0.80365 0.9254 0.0
C3062 C 0.48932 0.80659 0.92698 0.0
C3063 C 0.80885 0.48758 0.04646 0.0
C3064 C 0.8195 0.47659 0.05752 0.0
C3065 C 0.80837 0.50622 0.04878 0.0
C3066 C 0.81857 0.51473 0.06221 0.0
H3067 H 0.80057 0.48176 0.03602 0.0
H3068 H 0.79975 0.51398 0.04 0.0
S3069 S 0.84935 0.49218 0.09431 0.0
N3070 N 0.84099 0.47567 0.08213 0.0
N3071 N 0.84012 0.51072 0.08644 0.0
C3072 C 0.82959 0.50396 0.07316 0.0
C3073 C 0.83003 0.48492 0.07084 0.0
C3074 C 0.48786 0.80667 0.06969 0.0
C3075 C 0.47619 0.82026 0.07568 0.0
C3076 C 0.50631 0.80974 0.06791 0.0
C3077 C 0.51392 0.82656 0.07194 0.0
H3078 H 0.48275 0.79348 0.06632 0.0
H3079 H 0.51462 0.79878 0.06319 0.0
S3080 S 0.48926 0.86671 0.0883 0.0
N3081 N 0.47361 0.85123 0.0858 0.0
N3082 N 0.50829 0.85701 0.08241 0.0
C3083 C 0.50243 0.84029 0.07804 0.0
C3084 C 0.48359 0.83713 0.07993 0.0
C3085 C 0.52285 0.15834 0.0701 0.0
C3086 C 0.52832 0.17245 0.08143 0.0
C3087 C 0.50471 0.15552 0.06604 0.0
C3088 C 0.49124 0.16675 0.07304 0.0
H3089 H 0.53267 0.1494 0.06416 0.0
H3090 H 0.50129 0.14456 0.05711 0.0
S3091 S 0.49829 0.20537 0.10384 0.0
N3092 N 0.51866 0.19758 0.09996 0.0
N3093 N 0.48461 0.19232 0.0923 0.0
C3094 C 0.49647 0.18079 0.0846 0.0
C3095 C 0.51497 0.18361 0.08881 0.0
C3096 C 0.57703 0.67517 0.98785 0.0
C3097 C 0.56743 0.68696 0.97664 0.0
C3098 C 0.57379 0.67447 0.00636 0.0
C3099 C 0.56078 0.68552 0.01449 0.0
H3100 H 0.5872 0.66637 0.98231 0.0
H3101 H 0.5816 0.66517 0.01435 0.0
S3102 S 0.53173 0.71866 0.99113 0.0
N3103 N 0.5442 0.7099 0.97506 0.0
N3104 N 0.53811 0.70858 0.00978 0.0
C3105 C 0.55104 0.69737 0.00344 0.0
C3106 C 0.55435 0.69809 0.98456 0.0
C3107 C 0.30909 0.57206 0.00997 0.0
C3108 C 0.32608 0.57442 0.0179 0.0
C3109 C 0.30679 0.57289 0.99136 0.0
C3110 C 0.32134 0.57624 0.97981 0.0
H3111 H 0.2974 0.56933 0.01817 0.0
H3112 H 0.29342 0.57086 0.98603 0.0
S3113 S 0.36861 0.58396 0.99369 0.0
N3114 N 0.35774 0.58064 0.01271 0.0
N3115 N 0.35339 0.58228 0.97768 0.0
C3116 C 0.33841 0.5789 0.98752 0.0
C3117 C 0.34078 0.57796 0.00655 0.0
C3118 C 0.43339 0.34151 0.00055 0.0
C3119 C 0.4252 0.32983 0.01293 0.0
C3120 C 0.4296 0.34044 0.98216 0.0
C3121 C 0.41728 0.32782 0.97542 0.0
H3122 H 0.44307 0.35139 0.005 0.0
H3123 H 0.43643 0.34959 0.97315 0.0
S3124 S 0.3918 0.29437 0.00217 0.0
N3125 N 0.40392 0.30535 0.01711 0.0
N3126 N 0.3967 0.30349 0.98259 0.0
C3127 C 0.40871 0.31626 0.98765 0.0
C3128 C 0.41271 0.31722 0.00638 0.0
C3129 C 0.69553 0.44598 0.00686 0.0
C3130 C 0.68435 0.43514 0.01754 0.0
C3131 C 0.69599 0.44411 0.98817 0.0
C3132 C 0.68528 0.43132 0.9793 0.0
H3133 H 0.70409 0.45604 0.01293 0.0
H3134 H 0.70487 0.45283 0.98066 0.0
S3135 S 0.65353 0.39957 0.001 0.0
N3136 N 0.66219 0.4111 0.01781 0.0
N3137 N 0.66304 0.4076 0.98268 0.0
C3138 C 0.67397 0.42038 0.98978 0.0
C3139 C 0.67351 0.42228 0.00888 0.0
C3140 C 0.57302 0.33869 0.00793 0.0
C3141 C 0.58644 0.32657 0.01346 0.0
C3142 C 0.56907 0.34126 0.98972 0.0
C3143 C 0.57827 0.3317 0.97629 0.0
H3144 H 0.56527 0.34611 0.01774 0.0
H3145 H 0.5584 0.35049 0.98621 0.0
S3146 S 0.6154 0.29918 0.98349 0.0
N3147 N 0.60955 0.30553 0.00388 0.0
N3148 N 0.6021 0.31032 0.96972 0.0
C3149 C 0.59207 0.31991 0.98158 0.0
C3150 C 0.59617 0.31737 0.00013 0.0
C3151 C 0.68234 0.58306 0.99715 0.0
C3152 C 0.66831 0.57198 0.99102 0.0
C3153 C 0.68443 0.587 0.01542 0.0
C3154 C 0.67264 0.57995 0.02837 0.0
H3155 H 0.69191 0.58874 0.98779 0.0
H3156 H 0.69556 0.59546 0.01939 0.0
S3157 S 0.63341 0.55043 0.01938 0.0
N3158 N 0.64221 0.5542 -0.00059 0.0
N3159 N 0.64612 0.56157 0.0337 0.0
C3160 C 0.65839 0.569 0.02243 0.0
C3161 C 0.65623 0.56504 0.00378 0.0
C3162 C 0.44057 0.69608 0.01382 0.0
C3163 C 0.42865 0.68391 0.022 0.0
C3164 C 0.44382 0.69565 0.99531 0.0
C3165 C 0.43531 0.68303 0.98414 0.0
H3166 H 0.44754 0.70607 0.02174 0.0
H3167 H 0.45315 0.70533 0.98978 0.0
S3168 S 0.40274 0.64817 0.99878 0.0
N3169 N 0.40818 0.65884 0.01741 0.0
N3170 N 0.41428 0.65803 0.98265 0.0
C3171 C 0.42328 0.67077 0.9921 0.0
C3172 C 0.41997 0.67121 0.011 0.0
C3173 C 0.33985 0.42931 0.99415 0.0
C3174 C 0.32794 0.42214 0.9814 0.0
C3175 C 0.33853 0.42473 0.01235 0.0
C3176 C 0.32539 0.41259 0.01849 0.0
H3177 H 0.35005 0.43886 0.99013 0.0
H3178 H 0.34779 0.43091 0.0217 0.0
S3179 S 0.2918 0.38895 0.99018 0.0
N3180 N 0.30316 0.40157 0.97597 0.0
N3181 N 0.30073 0.39283 0.01008 0.0
C3182 C 0.31375 0.40487 0.00575 0.0
C3183 C 0.31499 0.40969 0.98725 0.0
C3184 C 0.98254 0.58012 0.66156 0.0
C3185 C 0.97527 0.5767 0.67866 0.0
C3186 C 0.00105 0.57886 0.65839 0.0
C3187 C 0.01307 0.57421 0.6722 0.0
H3188 H 0.97386 0.58353 0.65041 0.0
H3189 H 0.00591 0.58142 0.64493 0.0
S3190 S 0.00099 0.56508 0.71975 0.0
N3191 N 0.98164 0.56922 0.70979 0.0
N3192 N 0.01636 0.56693 0.70391 0.0
C3193 C 0.00601 0.57111 0.68948 0.0
C3194 C 0.98714 0.57233 0.69268 0.0
C3195 C 0.4124 0.01204 0.6791 0.0
C3196 C 0.42618 0.01765 0.66745 0.0
C3197 C 0.40832 0.99383 0.68136 0.0
C3198 C 0.41794 0.98043 0.67219 0.0
H3199 H 0.40472 0.02178 0.68669 0.0
H3200 H 0.39775 0.99028 0.69068 0.0
S3201 S 0.4549 0.98796 0.63955 0.0
N3202 N 0.44913 0.0083 0.64617 0.0
N3203 N 0.44153 0.97407 0.65047 0.0
C3204 C 0.43155 0.98584 0.66021 0.0
C3205 C 0.43564 0.00443 0.65782 0.0
C3206 C 0.01374 0.42388 0.6732 0.0
C3207 C 0.02417 0.43197 0.68671 0.0
C3208 C 0.99518 0.42677 0.67214 0.0
C3209 C 0.98624 0.43789 0.68453 0.0
H3210 H 0.01992 0.41525 0.66327 0.0
H3211 H 0.98782 0.42022 0.66145 0.0
S3212 S 0.0073 0.46209 0.72273 0.0
N3213 N 0.02409 0.4515 0.71293 0.0
N3214 N 0.98929 0.45692 0.71093 0.0
C3215 C 0.99649 0.44604 0.69817 0.0
C3216 C 0.01541 0.44309 0.69926 0.0
C3217 C 0.58693 0.9853 0.6761 0.0
C3218 C 0.57301 0.97939 0.66476 0.0
C3219 C 0.59096 0.00357 0.67794 0.0
C3220 C 0.58118 0.01676 0.66862 0.0
H3221 H 0.59476 0.97575 0.68378 0.0
H3222 H 0.60166 0.00734 0.68704 0.0
S3223 S 0.54373 0.00843 0.63674 0.0
N3224 N 0.5497 0.98825 0.64365 0.0
N3225 N 0.55723 0.02258 0.64715 0.0
C3226 C 0.56743 0.01105 0.65695 0.0
C3227 C 0.56336 0.99239 0.65501 0.0
C3228 C 0.00377 0.44843 0.30449 0.0
C3229 C 0.01518 0.43819 0.31553 0.0
C3230 C 0.98519 0.44566 0.30442 0.0
C3231 C 0.97715 0.43258 0.31543 0.0
H3232 H 0.00921 0.45866 0.29572 0.0
H3233 H 0.97708 0.45392 0.29562 0.0
S3234 S 0.00095 0.40222 0.34702 0.0
N3235 N 0.01702 0.41444 0.33792 0.0
N3236 N 0.98209 0.40928 0.3378 0.0
C3237 C 0.98836 0.42227 0.32663 0.0
C3238 C 0.00734 0.42506 0.32667 0.0
C3239 C 0.58579 0.01645 0.31672 0.0
C3240 C 0.57284 0.02136 0.32958 0.0
C3241 C 0.59024 0.99844 0.3137 0.0
C3242 C 0.58189 0.98452 0.32335 0.0
H3243 H 0.59252 0.0266 0.30878 0.0
H3244 H 0.60015 0.99544 0.30349 0.0
S3245 S 0.54709 0.99013 0.35868 0.0
N3246 N 0.55182 0.01079 0.35222 0.0
N3247 N 0.5601 0.97694 0.34654 0.0
C3248 C 0.56909 0.98923 0.33648 0.0
C3249 C 0.56459 0.00763 0.33959 0.0
C3250 C 0.9918 0.57395 0.32352 0.0
C3251 C 0.98342 0.56154 0.31198 0.0
C3252 C 0.01039 0.57674 0.32303 0.0
C3253 C 0.02142 0.56731 0.31094 0.0
H3254 H 0.98397 0.58159 0.33309 0.0
H3255 H 0.01612 0.58645 0.33222 0.0
S3256 S 0.0062 0.53332 0.27774 0.0
N3257 N 0.98766 0.53973 0.28802 0.0
N3258 N 0.02254 0.54499 0.28708 0.0
C3259 C 0.01324 0.55486 0.29929 0.0
C3260 C 0.99428 0.55197 0.29982 0.0
C3261 C 0.40961 0.98388 0.32244 0.0
C3262 C 0.42771 0.97865 0.32119 0.0
C3263 C 0.40478 0.00205 0.32339 0.0
C3264 C 0.41786 0.01569 0.32336 0.0
H3265 H 0.39905 0.97389 0.32237 0.0
H3266 H 0.39064 0.00538 0.32408 0.0
S3267 S 0.46728 0.00894 0.32142 0.0
N3268 N 0.45883 0.98847 0.32068 0.0
N3269 N 0.44985 0.02255 0.32264 0.0
C3270 C 0.43606 0.01058 0.32253 0.0
C3271 C 0.44096 0.99209 0.32138 0.0
C3272 C 0.67622 0.99397 0.58778 0.0
C3273 C 0.67484 0.98002 0.57511 0.0
C3274 C 0.67612 0.01203 0.58248 0.0
C3275 C 0.67476 0.0169 0.56428 0.0
H3276 H 0.67754 0.99097 0.60194 0.0
H3277 H 0.67742 0.02223 0.59276 0.0
S3278 S 0.66987 0.98562 0.52577 0.0
N3279 N 0.67136 0.97242 0.54348 0.0
N3280 N 0.67127 0.0063 0.53359 0.0
C3281 C 0.67307 0.00312 0.55147 0.0
C3282 C 0.67307 0.98472 0.55686 0.0
C3283 C 0.69329 0.99138 0.44452 0.0
C3284 C 0.68195 0.98063 0.4339 0.0
C3285 C 0.69397 0.01003 0.44232 0.0
C3286 C 0.68331 0.01881 0.42942 0.0
H3287 H 0.70184 0.98537 0.45462 0.0
H3288 H 0.70299 0.01759 0.45084 0.0
S3289 S 0.65112 0.99693 0.39825 0.0
N3290 N 0.65964 0.98021 0.41002 0.0
N3291 N 0.6609 0.01528 0.40591 0.0
C3292 C 0.67179 0.00827 0.41876 0.0
C3293 C 0.67112 0.98921 0.42098 0.0
C3294 C 0.00616 0.67568 0.42493 0.0
C3295 C 0.01447 0.68575 0.4386 0.0
C3296 C 0.98765 0.67685 0.4218 0.0
C3297 C 0.97663 0.68814 0.43219 0.0
H3298 H 0.014 0.66682 0.41648 0.0
H3299 H 0.98198 0.66882 0.41109 0.0
S3300 S 0.99164 0.71718 0.46988 0.0
N3301 N 0.01014 0.7073 0.46279 0.0
N3302 N 0.97542 0.7095 0.45691 0.0
C3303 C 0.98474 0.69826 0.44597 0.0
C3304 C 0.00361 0.69706 0.44917 0.0
C3305 C 0.32423 0.00333 0.42851 0.0
C3306 C 0.31468 0.01163 0.44255 0.0
C3307 C 0.32328 0.98475 0.42567 0.0
C3308 C 0.31271 0.97366 0.43672 0.0
H3309 H 0.33247 0.01123 0.4195 0.0
H3310 H 0.33082 0.9791 0.4146 0.0
S3311 S 0.28553 0.98857 0.4758 0.0
N3312 N 0.29461 0.00718 0.46794 0.0
N3313 N 0.29281 0.97234 0.46261 0.0
C3314 C 0.30322 0.98174 0.45094 0.0
C3315 C 0.3042 0.00068 0.45385 0.0
C3316 C 0.99059 0.32359 0.42588 0.0
C3317 C 0.98269 0.31469 0.44055 0.0
C3318 C 0.00915 0.32298 0.42292 0.0
C3319 C 0.02063 0.31344 0.43449 0.0
H3320 H 0.98239 0.33103 0.41646 0.0
H3321 H 0.01449 0.32999 0.41135 0.0
S3322 S 0.00685 0.28839 0.47536 0.0
N3323 N 0.98792 0.29641 0.46713 0.0
N3324 N 0.02275 0.29525 0.46157 0.0
C3325 C 0.01295 0.30462 0.44935 0.0
C3326 C 0.99402 0.30524 0.45238 0.0
C3327 C 0.32356 0.00908 0.57768 0.0
C3328 C 0.31375 0.02017 0.56596 0.0
C3329 C 0.32478 0.99052 0.57484 0.0
C3330 C 0.31627 0.98225 0.56012 0.0
H3331 H 0.33024 0.01472 0.58931 0.0
H3332 H 0.33235 0.9826 0.58439 0.0
S3333 S 0.28968 0.00541 0.52485 0.0
N3334 N 0.29588 0.02159 0.53864 0.0
N3335 N 0.29818 0.98678 0.53328 0.0
C3336 C 0.30664 0.99323 0.54811 0.0
C3337 C 0.30538 0.01214 0.55103 0.0
C3338 C 0.98881 0.32292 0.57648 0.0
C3339 C 0.97766 0.31223 0.56562 0.0
C3340 C 0.00726 0.32432 0.57315 0.0
C3341 C 0.01537 0.31511 0.55876 0.0
H3342 H 0.98329 0.33022 0.58778 0.0
H3343 H 0.01522 0.33264 0.58202 0.0
S3344 S 0.99203 0.28585 0.52579 0.0
N3345 N 0.97603 0.2926 0.53953 0.0
N3346 N 0.01066 0.29524 0.53325 0.0
C3347 C 0.00435 0.30451 0.54765 0.0
C3348 C 0.98554 0.30306 0.55108 0.0
C3349 C 0.99414 0.69402 0.55323 0.0
C3350 C 0.98344 0.68109 0.5619 0.0
C3351 C 0.01259 0.69524 0.55652 0.0
C3352 C 0.0212 0.68358 0.56864 0.0
H3353 H 0.98825 0.70337 0.54379 0.0
H3354 H 0.02014 0.70545 0.54944 0.0
S3355 S -0.00066 0.64724 0.59489 0.0
N3356 N 0.98286 0.6563 0.58319 0.0
N3357 N 0.01755 0.65858 0.58937 0.0
C3358 C 0.01069 0.67054 0.57743 0.0
C3359 C 0.99184 0.6693 0.57407 0.0
loop_
_geom_bond_atom_site_label_1
_geom_bond_atom_site_label_2
_geom_bond_distance
_geom_bond_site_symmetry_2
_ccdc_geom_bond_type
C0 O1 1.160 . S
C0 O7 1.185 . S
O1 C0 1.160 . S
O2 Zn3 1.899 . S
O2 C10 1.284 . S
Zn3 O2 1.899 . S
Zn3 O4 2.032 . S
Zn3 O7 2.086 . S
Zn3 O12 1.977 . S
O4 Zn3 2.032 . S
O4 C8 1.278 . S
C5 O6 1.203 . S
C5 O12 1.267 . S
O6 C5 1.203 . S
O7 C0 1.185 . S
O7 Zn3 2.086 . S
C8 O4 1.278 . S
C8 O9 1.211 . S
O9 C8 1.211 . S
C10 O2 1.284 . S
C10 O11 1.273 . S
O11 C10 1.273 . S
O12 Zn3 1.977 . S
O12 C5 1.267 . S
C13 O14 1.160 . S
C13 O20 1.185 . S
O14 C13 1.160 . S
O15 Zn16 1.899 . S
O15 C23 1.284 . S
Zn16 O15 1.899 . S
Zn16 O17 2.032 . S
Zn16 O20 2.086 . S
Zn16 O25 1.977 . S
O17 Zn16 2.032 . S
O17 C21 1.278 . S
C18 O19 1.203 . S
C18 O25 1.267 . S
O19 C18 1.203 . S
O20 C13 1.185 . S
O20 Zn16 2.086 . S
C21 O17 1.278 . S
C21 O22 1.211 . S
O22 C21 1.211 . S
C23 O15 1.284 . S
C23 O24 1.273 . S
O24 C23 1.273 . S
O25 Zn16 1.977 . S
O25 C18 1.267 . S
C26 O27 1.160 . S
C26 O33 1.185 . S
O27 C26 1.160 . S
O28 Zn29 1.899 . S
O28 C36 1.284 . S
Zn29 O28 1.899 . S
Zn29 O30 2.032 . S
Zn29 O33 2.086 . S
Zn29 O38 1.977 . S
O30 Zn29 2.032 . S
O30 C34 1.278 . S
C31 O32 1.203 . S
C31 O38 1.267 . S
O32 C31 1.203 . S
O33 C26 1.185 . S
O33 Zn29 2.086 . S
C34 O30 1.278 . S
C34 O35 1.211 . S
O35 C34 1.211 . S
C36 O28 1.284 . S
C36 O37 1.273 . S
O37 C36 1.273 . S
O38 Zn29 1.977 . S
O38 C31 1.267 . S
C39 O40 1.160 . S
C39 O46 1.185 . S
O40 C39 1.160 . S
O41 Zn42 1.899 . S
O41 C49 1.284 . S
Zn42 O41 1.899 . S
Zn42 O43 2.032 . S
Zn42 O46 2.086 . S
Zn42 O51 1.977 . S
O43 Zn42 2.032 . S
O43 C47 1.278 . S
C44 O45 1.203 . S
C44 O51 1.267 . S
O45 C44 1.203 . S
O46 C39 1.185 . S
O46 Zn42 2.086 . S
C47 O43 1.278 . S
C47 O48 1.211 . S
O48 C47 1.211 . S
C49 O41 1.284 . S
C49 O50 1.273 . S
O50 C49 1.273 . S
O51 Zn42 1.977 . S
O51 C44 1.267 . S
C52 O53 1.160 . S
C52 O59 1.185 . S
O53 C52 1.160 . S
O54 Zn55 1.899 . S
O54 C62 1.284 . S
Zn55 O54 1.899 . S
Zn55 O56 2.032 . S
Zn55 O59 2.086 . S
Zn55 O64 1.977 . S
O56 Zn55 2.032 . S
O56 C60 1.278 . S
C57 O58 1.203 . S
C57 O64 1.267 . S
O58 C57 1.203 . S
O59 C52 1.185 . S
O59 Zn55 2.086 . S
C60 O56 1.278 . S
C60 O61 1.211 . S
O61 C60 1.211 . S
C62 O54 1.284 . S
C62 O63 1.273 . S
O63 C62 1.273 . S
O64 Zn55 1.977 . S
O64 C57 1.267 . S
C65 O66 1.160 . S
C65 O72 1.185 . S
O66 C65 1.160 . S
O67 Zn68 1.899 . S
O67 C75 1.284 . S
Zn68 O67 1.899 . S
Zn68 O69 2.032 . S
Zn68 O72 2.086 . S
Zn68 O77 1.977 . S
O69 Zn68 2.032 . S
O69 C73 1.278 . S
C70 O71 1.203 . S
C70 O77 1.267 . S
O71 C70 1.203 . S
O72 C65 1.185 . S
O72 Zn68 2.086 . S
C73 O69 1.278 . S
C73 O74 1.211 . S
O74 C73 1.211 . S
C75 O67 1.284 . S
C75 O76 1.273 . S
O76 C75 1.273 . S
O77 Zn68 1.977 . S
O77 C70 1.267 . S
C78 O79 1.160 . S
C78 O85 1.185 . S
O79 C78 1.160 . S
O80 Zn81 1.899 . S
O80 C88 1.284 . S
Zn81 O80 1.899 . S
Zn81 O82 2.032 . S
Zn81 O85 2.086 . S
Zn81 O90 1.977 . S
O82 Zn81 2.032 . S
O82 C86 1.278 . S
C83 O84 1.203 . S
C83 O90 1.267 . S
O84 C83 1.203 . S
O85 C78 1.185 . S
O85 Zn81 2.086 . S
C86 O82 1.278 . S
C86 O87 1.211 . S
O87 C86 1.211 . S
C88 O80 1.284 . S
C88 O89 1.273 . S
O89 C88 1.273 . S
O90 Zn81 1.977 . S
O90 C83 1.267 . S
C91 O92 1.160 . S
C91 O98 1.185 . S
O92 C91 1.160 . S
O93 Zn94 1.899 . S
O93 C101 1.284 . S
Zn94 O93 1.899 . S
Zn94 O95 2.032 . S
Zn94 O98 2.086 . S
Zn94 O103 1.977 . S
O95 Zn94 2.032 . S
O95 C99 1.278 . S
C96 O97 1.203 . S
C96 O103 1.267 . S
O97 C96 1.203 . S
O98 C91 1.185 . S
O98 Zn94 2.086 . S
C99 O95 1.278 . S
C99 O100 1.211 . S
O100 C99 1.211 . S
C101 O93 1.284 . S
C101 O102 1.273 . S
O102 C101 1.273 . S
O103 Zn94 1.977 . S
O103 C96 1.267 . S
C104 O105 1.160 . S
C104 O111 1.185 . S
O105 C104 1.160 . S
O106 Zn107 1.899 . S
O106 C114 1.284 . S
Zn107 O106 1.899 . S
Zn107 O108 2.032 . S
Zn107 O111 2.086 . S
Zn107 O116 1.977 . S
O108 Zn107 2.032 . S
O108 C112 1.278 . S
C109 O110 1.203 . S
C109 O116 1.267 . S
O110 C109 1.203 . S
O111 C104 1.185 . S
O111 Zn107 2.086 . S
C112 O108 1.278 . S
C112 O113 1.211 . S
O113 C112 1.211 . S
C114 O106 1.284 . S
C114 O115 1.273 . S
O115 C114 1.273 . S
O116 Zn107 1.977 . S
O116 C109 1.267 . S
C117 O118 1.160 . S
C117 O124 1.185 . S
O118 C117 1.160 . S
O119 Zn120 1.899 . S
O119 C127 1.284 . S
Zn120 O119 1.899 . S
Zn120 O121 2.032 . S
Zn120 O124 2.086 . S
Zn120 O129 1.977 . S
O121 Zn120 2.032 . S
O121 C125 1.278 . S
C122 O123 1.203 . S
C122 O129 1.267 . S
O123 C122 1.203 . S
O124 C117 1.185 . S
O124 Zn120 2.086 . S
C125 O121 1.278 . S
C125 O126 1.211 . S
O126 C125 1.211 . S
C127 O119 1.284 . S
C127 O128 1.273 . S
O128 C127 1.273 . S
O129 Zn120 1.977 . S
O129 C122 1.267 . S
C130 O131 1.160 . S
C130 O137 1.185 . S
O131 C130 1.160 . S
O132 Zn133 1.899 . S
O132 C140 1.284 . S
Zn133 O132 1.899 . S
Zn133 O134 2.032 . S
Zn133 O137 2.086 . S
Zn133 O142 1.977 . S
O134 Zn133 2.032 . S
O134 C138 1.278 . S
C135 O136 1.203 . S
C135 O142 1.267 . S
O136 C135 1.203 . S
O137 C130 1.185 . S
O137 Zn133 2.086 . S
C138 O134 1.278 . S
C138 O139 1.211 . S
O139 C138 1.211 . S
C140 O132 1.284 . S
C140 O141 1.273 . S
O141 C140 1.273 . S
O142 Zn133 1.977 . S
O142 C135 1.267 . S
C143 O144 1.160 . S
C143 O150 1.185 . S
O144 C143 1.160 . S
O145 Zn146 1.899 . S
O145 C153 1.284 . S
Zn146 O145 1.899 . S
Zn146 O147 2.032 . S
Zn146 O150 2.086 . S
Zn146 O155 1.977 . S
O147 Zn146 2.032 . S
O147 C151 1.278 . S
C148 O149 1.203 . S
C148 O155 1.267 . S
O149 C148 1.203 . S
O150 C143 1.185 . S
O150 Zn146 2.086 . S
C151 O147 1.278 . S
C151 O152 1.211 . S
O152 C151 1.211 . S
C153 O145 1.284 . S
C153 O154 1.273 . S
O154 C153 1.273 . S
O155 Zn146 1.977 . S
O155 C148 1.267 . S
C156 O157 1.160 . S
C156 O163 1.185 . S
O157 C156 1.160 . S
O158 Zn159 1.899 . S
O158 C166 1.284 . S
Zn159 O158 1.899 . S
Zn159 O160 2.032 . S
Zn159 O163 2.086 . S
Zn159 O168 1.977 . S
O160 Zn159 2.032 . S
O160 C164 1.278 . S
C161 O162 1.203 . S
C161 O168 1.267 . S
O162 C161 1.203 . S
O163 C156 1.185 . S
O163 Zn159 2.086 . S
C164 O160 1.278 . S
C164 O165 1.211 . S
O165 C164 1.211 . S
C166 O158 1.284 . S
C166 O167 1.273 . S
O167 C166 1.273 . S
O168 Zn159 1.977 . S
O168 C161 1.267 . S
C169 O170 1.160 . S
C169 O176 1.185 . S
O170 C169 1.160 . S
O171 Zn172 1.899 . S
O171 C179 1.284 . S
Zn172 O171 1.899 . S
Zn172 O173 2.032 . S
Zn172 O176 2.086 . S
Zn172 O181 1.977 . S
O173 Zn172 2.032 . S
O173 C177 1.278 . S
C174 O175 1.203 . S
C174 O181 1.267 . S
O175 C174 1.203 . S
O176 C169 1.185 . S
O176 Zn172 2.086 . S
C177 O173 1.278 . S
C177 O178 1.211 . S
O178 C177 1.211 . S
C179 O171 1.284 . S
C179 O180 1.273 . S
O180 C179 1.273 . S
O181 Zn172 1.977 . S
O181 C174 1.267 . S
C182 O183 1.160 . S
C182 O189 1.185 . S
O183 C182 1.160 . S
O184 Zn185 1.899 . S
O184 C192 1.284 . S
Zn185 O184 1.899 . S
Zn185 O186 2.032 . S
Zn185 O189 2.086 . S
Zn185 O194 1.977 . S
O186 Zn185 2.032 . S
O186 C190 1.278 . S
C187 O188 1.203 . S
C187 O194 1.267 . S
O188 C187 1.203 . S
O189 C182 1.185 . S
O189 Zn185 2.086 . S
C190 O186 1.278 . S
C190 O191 1.211 . S
O191 C190 1.211 . S
C192 O184 1.284 . S
C192 O193 1.273 . S
O193 C192 1.273 . S
O194 Zn185 1.977 . S
O194 C187 1.267 . S
C195 O196 1.160 . S
C195 O202 1.185 . S
O196 C195 1.160 . S
O197 Zn198 1.899 . S
O197 C205 1.284 . S
Zn198 O197 1.899 . S
Zn198 O199 2.032 . S
Zn198 O202 2.086 . S
Zn198 O207 1.977 . S
O199 Zn198 2.032 . S
O199 C203 1.278 . S
C200 O201 1.203 . S
C200 O207 1.267 . S
O201 C200 1.203 . S
O202 C195 1.185 . S
O202 Zn198 2.086 . S
C203 O199 1.278 . S
C203 O204 1.211 . S
O204 C203 1.211 . S
C205 O197 1.284 . S
C205 O206 1.273 . S
O206 C205 1.273 . S
O207 Zn198 1.977 . S
O207 C200 1.267 . S
C208 O209 1.160 . S
C208 O215 1.185 . S
O209 C208 1.160 . S
O210 Zn211 1.899 . S
O210 C218 1.284 . S
Zn211 O210 1.899 . S
Zn211 O212 2.032 . S
Zn211 O215 2.086 . S
Zn211 O220 1.977 . S
O212 Zn211 2.032 . S
O212 C216 1.278 . S
C213 O214 1.203 . S
C213 O220 1.267 . S
O214 C213 1.203 . S
O215 C208 1.185 . S
O215 Zn211 2.086 . S
C216 O212 1.278 . S
C216 O217 1.211 . S
O217 C216 1.211 . S
C218 O210 1.284 . S
C218 O219 1.273 . S
O219 C218 1.273 . S
O220 Zn211 1.977 . S
O220 C213 1.267 . S
C221 O222 1.160 . S
C221 O228 1.185 . S
O222 C221 1.160 . S
O223 Zn224 1.899 . S
O223 C231 1.284 . S
Zn224 O223 1.899 . S
Zn224 O225 2.032 . S
Zn224 O228 2.086 . S
Zn224 O233 1.977 . S
O225 Zn224 2.032 . S
O225 C229 1.278 . S
C226 O227 1.203 . S
C226 O233 1.267 . S
O227 C226 1.203 . S
O228 C221 1.185 . S
O228 Zn224 2.086 . S
C229 O225 1.278 . S
C229 O230 1.211 . S
O230 C229 1.211 . S
C231 O223 1.284 . S
C231 O232 1.273 . S
O232 C231 1.273 . S
O233 Zn224 1.977 . S
O233 C226 1.267 . S
C234 O235 1.160 . S
C234 O241 1.185 . S
O235 C234 1.160 . S
O236 Zn237 1.899 . S
O236 C244 1.284 . S
Zn237 O236 1.899 . S
Zn237 O238 2.032 . S
Zn237 O241 2.086 . S
Zn237 O246 1.977 . S
O238 Zn237 2.032 . S
O238 C242 1.278 . S
C239 O240 1.203 . S
C239 O246 1.267 . S
O240 C239 1.203 . S
O241 C234 1.185 . S
O241 Zn237 2.086 . S
C242 O238 1.278 . S
C242 O243 1.211 . S
O243 C242 1.211 . S
C244 O236 1.284 . S
C244 O245 1.273 . S
O245 C244 1.273 . S
O246 Zn237 1.977 . S
O246 C239 1.267 . S
C247 O248 1.160 . S
C247 O254 1.185 . S
O248 C247 1.160 . S
O249 Zn250 1.899 . S
O249 C257 1.284 . S
Zn250 O249 1.899 . S
Zn250 O251 2.032 . S
Zn250 O254 2.086 . S
Zn250 O259 1.977 . S
O251 Zn250 2.032 . S
O251 C255 1.278 . S
C252 O253 1.203 . S
C252 O259 1.267 . S
O253 C252 1.203 . S
O254 C247 1.185 . S
O254 Zn250 2.086 . S
C255 O251 1.278 . S
C255 O256 1.211 . S
O256 C255 1.211 . S
C257 O249 1.284 . S
C257 O258 1.273 . S
O258 C257 1.273 . S
O259 Zn250 1.977 . S
O259 C252 1.267 . S
C260 O261 1.160 . S
C260 O267 1.185 . S
O261 C260 1.160 . S
O262 Zn263 1.899 . S
O262 C270 1.284 . S
Zn263 O262 1.899 . S
Zn263 O264 2.032 . S
Zn263 O267 2.086 . S
Zn263 O272 1.977 . S
O264 Zn263 2.032 . S
O264 C268 1.278 . S
C265 O266 1.203 . S
C265 O272 1.267 . S
O266 C265 1.203 . S
O267 C260 1.185 . S
O267 Zn263 2.086 . S
C268 O264 1.278 . S
C268 O269 1.211 . S
O269 C268 1.211 . S
C270 O262 1.284 . S
C270 O271 1.273 . S
O271 C270 1.273 . S
O272 Zn263 1.977 . S
O272 C265 1.267 . S
C273 O274 1.160 . S
C273 O280 1.185 . S
O274 C273 1.160 . S
O275 Zn276 1.899 . S
O275 C283 1.284 . S
Zn276 O275 1.899 . S
Zn276 O277 2.032 . S
Zn276 O280 2.086 . S
Zn276 O285 1.977 . S
O277 Zn276 2.032 . S
O277 C281 1.278 . S
C278 O279 1.203 . S
C278 O285 1.267 . S
O279 C278 1.203 . S
O280 C273 1.185 . S
O280 Zn276 2.086 . S
C281 O277 1.278 . S
C281 O282 1.211 . S
O282 C281 1.211 . S
C283 O275 1.284 . S
C283 O284 1.273 . S
O284 C283 1.273 . S
O285 Zn276 1.977 . S
O285 C278 1.267 . S
C286 O287 1.160 . S
C286 O293 1.185 . S
O287 C286 1.160 . S
O288 Zn289 1.899 . S
O288 C296 1.284 . S
Zn289 O288 1.899 . S
Zn289 O290 2.032 . S
Zn289 O293 2.086 . S
Zn289 O298 1.977 . S
O290 Zn289 2.032 . S
O290 C294 1.278 . S
C291 O292 1.203 . S
C291 O298 1.267 . S
O292 C291 1.203 . S
O293 C286 1.185 . S
O293 Zn289 2.086 . S
C294 O290 1.278 . S
C294 O295 1.211 . S
O295 C294 1.211 . S
C296 O288 1.284 . S
C296 O297 1.273 . S
O297 C296 1.273 . S
O298 Zn289 1.977 . S
O298 C291 1.267 . S
C299 O300 1.160 . S
C299 O306 1.185 . S
O300 C299 1.160 . S
O301 Zn302 1.899 . S
O301 C309 1.284 . S
Zn302 O301 1.899 . S
Zn302 O303 2.032 . S
Zn302 O306 2.086 . S
Zn302 O311 1.977 . S
O303 Zn302 2.032 . S
O303 C307 1.278 . S
C304 O305 1.203 . S
C304 O311 1.267 . S
O305 C304 1.203 . S
O306 C299 1.185 . S
O306 Zn302 2.086 . S
C307 O303 1.278 . S
C307 O308 1.211 . S
O308 C307 1.211 . S
C309 O301 1.284 . S
C309 O310 1.273 . S
O310 C309 1.273 . S
O311 Zn302 1.977 . S
O311 C304 1.267 . S
C312 O313 1.160 . S
C312 O319 1.185 . S
O313 C312 1.160 . S
O314 Zn315 1.899 . S
O314 C322 1.284 . S
Zn315 O314 1.899 . S
Zn315 O316 2.032 . S
Zn315 O319 2.086 . S
Zn315 O324 1.977 . S
O316 Zn315 2.032 . S
O316 C320 1.278 . S
C317 O318 1.203 . S
C317 O324 1.267 . S
O318 C317 1.203 . S
O319 C312 1.185 . S
O319 Zn315 2.086 . S
C320 O316 1.278 . S
C320 O321 1.211 . S
O321 C320 1.211 . S
C322 O314 1.284 . S
C322 O323 1.273 . S
O323 C322 1.273 . S
O324 Zn315 1.977 . S
O324 C317 1.267 . S
C325 O326 1.160 . S
C325 O332 1.185 . S
O326 C325 1.160 . S
O327 Zn328 1.899 . S
O327 C335 1.284 . S
Zn328 O327 1.899 . S
Zn328 O329 2.032 . S
Zn328 O332 2.086 . S
Zn328 O337 1.977 . S
O329 Zn328 2.032 . S
O329 C333 1.278 . S
C330 O331 1.203 . S
C330 O337 1.267 . S
O331 C330 1.203 . S
O332 C325 1.185 . S
O332 Zn328 2.086 . S
C333 O329 1.278 . S
C333 O334 1.211 . S
O334 C333 1.211 . S
C335 O327 1.284 . S
C335 O336 1.273 . S
O336 C335 1.273 . S
O337 Zn328 1.977 . S
O337 C330 1.267 . S
C338 O339 1.160 . S
C338 O345 1.185 . S
O339 C338 1.160 . S
O340 Zn341 1.899 . S
O340 C348 1.284 . S
Zn341 O340 1.899 . S
Zn341 O342 2.032 . S
Zn341 O345 2.086 . S
Zn341 O350 1.977 . S
O342 Zn341 2.032 . S
O342 C346 1.278 . S
C343 O344 1.203 . S
C343 O350 1.267 . S
O344 C343 1.203 . S
O345 C338 1.185 . S
O345 Zn341 2.086 . S
C346 O342 1.278 . S
C346 O347 1.211 . S
O347 C346 1.211 . S
C348 O340 1.284 . S
C348 O349 1.273 . S
O349 C348 1.273 . S
O350 Zn341 1.977 . S
O350 C343 1.267 . S
C351 O352 1.160 . S
C351 O358 1.185 . S
O352 C351 1.160 . S
O353 Zn354 1.899 . S
O353 C361 1.284 . S
Zn354 O353 1.899 . S
Zn354 O355 2.032 . S
Zn354 O358 2.086 . S
Zn354 O363 1.977 . S
O355 Zn354 2.032 . S
O355 C359 1.278 . S
C356 O357 1.203 . S
C356 O363 1.267 . S
O357 C356 1.203 . S
O358 C351 1.185 . S
O358 Zn354 2.086 . S
C359 O355 1.278 . S
C359 O360 1.211 . S
O360 C359 1.211 . S
C361 O353 1.284 . S
C361 O362 1.273 . S
O362 C361 1.273 . S
O363 Zn354 1.977 . S
O363 C356 1.267 . S
C364 O365 1.160 . S
C364 O371 1.185 . S
O365 C364 1.160 . S
O366 Zn367 1.899 . S
O366 C374 1.284 . S
Zn367 O366 1.899 . S
Zn367 O368 2.032 . S
Zn367 O371 2.086 . S
Zn367 O376 1.977 . S
O368 Zn367 2.032 . S
O368 C372 1.278 . S
C369 O370 1.203 . S
C369 O376 1.267 . S
O370 C369 1.203 . S
O371 C364 1.185 . S
O371 Zn367 2.086 . S
C372 O368 1.278 . S
C372 O373 1.211 . S
O373 C372 1.211 . S
C374 O366 1.284 . S
C374 O375 1.273 . S
O375 C374 1.273 . S
O376 Zn367 1.977 . S
O376 C369 1.267 . S
C377 O378 1.160 . S
C377 O384 1.185 . S
O378 C377 1.160 . S
O379 Zn380 1.899 . S
O379 C387 1.284 . S
Zn380 O379 1.899 . S
Zn380 O381 2.032 . S
Zn380 O384 2.086 . S
Zn380 O389 1.977 . S
O381 Zn380 2.032 . S
O381 C385 1.278 . S
C382 O383 1.203 . S
C382 O389 1.267 . S
O383 C382 1.203 . S
O384 C377 1.185 . S
O384 Zn380 2.086 . S
C385 O381 1.278 . S
C385 O386 1.211 . S
O386 C385 1.211 . S
C387 O379 1.284 . S
C387 O388 1.273 . S
O388 C387 1.273 . S
O389 Zn380 1.977 . S
O389 C382 1.267 . S
C390 O391 1.160 . S
C390 O397 1.185 . S
O391 C390 1.160 . S
O392 Zn393 1.899 . S
O392 C400 1.284 . S
Zn393 O392 1.899 . S
Zn393 O394 2.032 . S
Zn393 O397 2.086 . S
Zn393 O402 1.977 . S
O394 Zn393 2.032 . S
O394 C398 1.278 . S
C395 O396 1.203 . S
C395 O402 1.267 . S
O396 C395 1.203 . S
O397 C390 1.185 . S
O397 Zn393 2.086 . S
C398 O394 1.278 . S
C398 O399 1.211 . S
O399 C398 1.211 . S
C400 O392 1.284 . S
C400 O401 1.273 . S
O401 C400 1.273 . S
O402 Zn393 1.977 . S
O402 C395 1.267 . S
C403 O404 1.160 . S
C403 O410 1.185 . S
O404 C403 1.160 . S
O405 Zn406 1.899 . S
O405 C413 1.284 . S
Zn406 O405 1.899 . S
Zn406 O407 2.032 . S
Zn406 O410 2.086 . S
Zn406 O415 1.977 . S
O407 Zn406 2.032 . S
O407 C411 1.278 . S
C408 O409 1.203 . S
C408 O415 1.267 . S
O409 C408 1.203 . S
O410 C403 1.185 . S
O410 Zn406 2.086 . S
C411 O407 1.278 . S
C411 O412 1.211 . S
O412 C411 1.211 . S
C413 O405 1.284 . S
C413 O414 1.273 . S
O414 C413 1.273 . S
O415 Zn406 1.977 . S
O415 C408 1.267 . S
C416 O417 1.160 . S
C416 O423 1.185 . S
O417 C416 1.160 . S
O418 Zn419 1.899 . S
O418 C426 1.284 . S
Zn419 O418 1.899 . S
Zn419 O420 2.032 . S
Zn419 O423 2.086 . S
Zn419 O428 1.977 . S
O420 Zn419 2.032 . S
O420 C424 1.278 . S
C421 O422 1.203 . S
C421 O428 1.267 . S
O422 C421 1.203 . S
O423 C416 1.185 . S
O423 Zn419 2.086 . S
C424 O420 1.278 . S
C424 O425 1.211 . S
O425 C424 1.211 . S
C426 O418 1.284 . S
C426 O427 1.273 . S
O427 C426 1.273 . S
O428 Zn419 1.977 . S
O428 C421 1.267 . S
C429 O430 1.160 . S
C429 O436 1.185 . S
O430 C429 1.160 . S
O431 Zn432 1.899 . S
O431 C439 1.284 . S
Zn432 O431 1.899 . S
Zn432 O433 2.032 . S
Zn432 O436 2.086 . S
Zn432 O441 1.977 . S
O433 Zn432 2.032 . S
O433 C437 1.278 . S
C434 O435 1.203 . S
C434 O441 1.267 . S
O435 C434 1.203 . S
O436 C429 1.185 . S
O436 Zn432 2.086 . S
C437 O433 1.278 . S
C437 O438 1.211 . S
O438 C437 1.211 . S
C439 O431 1.284 . S
C439 O440 1.273 . S
O440 C439 1.273 . S
O441 Zn432 1.977 . S
O441 C434 1.267 . S
C442 O443 1.160 . S
C442 O449 1.185 . S
O443 C442 1.160 . S
O444 Zn445 1.899 . S
O444 C452 1.284 . S
Zn445 O444 1.899 . S
Zn445 O446 2.032 . S
Zn445 O449 2.086 . S
Zn445 O454 1.977 . S
O446 Zn445 2.032 . S
O446 C450 1.278 . S
C447 O448 1.203 . S
C447 O454 1.267 . S
O448 C447 1.203 . S
O449 C442 1.185 . S
O449 Zn445 2.086 . S
C450 O446 1.278 . S
C450 O451 1.211 . S
O451 C450 1.211 . S
C452 O444 1.284 . S
C452 O453 1.273 . S
O453 C452 1.273 . S
O454 Zn445 1.977 . S
O454 C447 1.267 . S
C455 O456 1.160 . S
C455 O462 1.185 . S
O456 C455 1.160 . S
O457 Zn458 1.899 . S
O457 C465 1.284 . S
Zn458 O457 1.899 . S
Zn458 O459 2.032 . S
Zn458 O462 2.086 . S
Zn458 O467 1.977 . S
O459 Zn458 2.032 . S
O459 C463 1.278 . S
C460 O461 1.203 . S
C460 O467 1.267 . S
O461 C460 1.203 . S
O462 C455 1.185 . S
O462 Zn458 2.086 . S
C463 O459 1.278 . S
C463 O464 1.211 . S
O464 C463 1.211 . S
C465 O457 1.284 . S
C465 O466 1.273 . S
O466 C465 1.273 . S
O467 Zn458 1.977 . S
O467 C460 1.267 . S
C468 O469 1.160 . S
C468 O475 1.185 . S
O469 C468 1.160 . S
O470 Zn471 1.899 . S
O470 C478 1.284 . S
Zn471 O470 1.899 . S
Zn471 O472 2.032 . S
Zn471 O475 2.086 . S
Zn471 O480 1.977 . S
O472 Zn471 2.032 . S
O472 C476 1.278 . S
C473 O474 1.203 . S
C473 O480 1.267 . S
O474 C473 1.203 . S
O475 C468 1.185 . S
O475 Zn471 2.086 . S
C476 O472 1.278 . S
C476 O477 1.211 . S
O477 C476 1.211 . S
C478 O470 1.284 . S
C478 O479 1.273 . S
O479 C478 1.273 . S
O480 Zn471 1.977 . S
O480 C473 1.267 . S
C481 O482 1.160 . S
C481 O488 1.185 . S
O482 C481 1.160 . S
O483 Zn484 1.899 . S
O483 C491 1.284 . S
Zn484 O483 1.899 . S
Zn484 O485 2.032 . S
Zn484 O488 2.086 . S
Zn484 O493 1.977 . S
O485 Zn484 2.032 . S
O485 C489 1.278 . S
C486 O487 1.203 . S
C486 O493 1.267 . S
O487 C486 1.203 . S
O488 C481 1.185 . S
O488 Zn484 2.086 . S
C489 O485 1.278 . S
C489 O490 1.211 . S
O490 C489 1.211 . S
C491 O483 1.284 . S
C491 O492 1.273 . S
O492 C491 1.273 . S
O493 Zn484 1.977 . S
O493 C486 1.267 . S
C494 O495 1.160 . S
C494 O501 1.185 . S
O495 C494 1.160 . S
O496 Zn497 1.899 . S
O496 C504 1.284 . S
Zn497 O496 1.899 . S
Zn497 O498 2.032 . S
Zn497 O501 2.086 . S
Zn497 O506 1.977 . S
O498 Zn497 2.032 . S
O498 C502 1.278 . S
C499 O500 1.203 . S
C499 O506 1.267 . S
O500 C499 1.203 . S
O501 C494 1.185 . S
O501 Zn497 2.086 . S
C502 O498 1.278 . S
C502 O503 1.211 . S
O503 C502 1.211 . S
C504 O496 1.284 . S
C504 O505 1.273 . S
O505 C504 1.273 . S
O506 Zn497 1.977 . S
O506 C499 1.267 . S
C507 O508 1.160 . S
C507 O514 1.185 . S
O508 C507 1.160 . S
O509 Zn510 1.899 . S
O509 C517 1.284 . S
Zn510 O509 1.899 . S
Zn510 O511 2.032 . S
Zn510 O514 2.086 . S
Zn510 O519 1.977 . S
O511 Zn510 2.032 . S
O511 C515 1.278 . S
C512 O513 1.203 . S
C512 O519 1.267 . S
O513 C512 1.203 . S
O514 C507 1.185 . S
O514 Zn510 2.086 . S
C515 O511 1.278 . S
C515 O516 1.211 . S
O516 C515 1.211 . S
C517 O509 1.284 . S
C517 O518 1.273 . S
O518 C517 1.273 . S
O519 Zn510 1.977 . S
O519 C512 1.267 . S
C520 O521 1.160 . S
C520 O527 1.185 . S
O521 C520 1.160 . S
O522 Zn523 1.899 . S
O522 C530 1.284 . S
Zn523 O522 1.899 . S
Zn523 O524 2.032 . S
Zn523 O527 2.086 . S
Zn523 O532 1.977 . S
O524 Zn523 2.032 . S
O524 C528 1.278 . S
C525 O526 1.203 . S
C525 O532 1.267 . S
O526 C525 1.203 . S
O527 C520 1.185 . S
O527 Zn523 2.086 . S
C528 O524 1.278 . S
C528 O529 1.211 . S
O529 C528 1.211 . S
C530 O522 1.284 . S
C530 O531 1.273 . S
O531 C530 1.273 . S
O532 Zn523 1.977 . S
O532 C525 1.267 . S
C533 O534 1.160 . S
C533 O540 1.185 . S
O534 C533 1.160 . S
O535 Zn536 1.899 . S
O535 C543 1.284 . S
Zn536 O535 1.899 . S
Zn536 O537 2.032 . S
Zn536 O540 2.086 . S
Zn536 O545 1.977 . S
O537 Zn536 2.032 . S
O537 C541 1.278 . S
C538 O539 1.203 . S
C538 O545 1.267 . S
O539 C538 1.203 . S
O540 C533 1.185 . S
O540 Zn536 2.086 . S
C541 O537 1.278 . S
C541 O542 1.211 . S
O542 C541 1.211 . S
C543 O535 1.284 . S
C543 O544 1.273 . S
O544 C543 1.273 . S
O545 Zn536 1.977 . S
O545 C538 1.267 . S
C546 O547 1.160 . S
C546 O553 1.185 . S
O547 C546 1.160 . S
O548 Zn549 1.899 . S
O548 C556 1.284 . S
Zn549 O548 1.899 . S
Zn549 O550 2.032 . S
Zn549 O553 2.086 . S
Zn549 O558 1.977 . S
O550 Zn549 2.032 . S
O550 C554 1.278 . S
C551 O552 1.203 . S
C551 O558 1.267 . S
O552 C551 1.203 . S
O553 C546 1.185 . S
O553 Zn549 2.086 . S
C554 O550 1.278 . S
C554 O555 1.211 . S
O555 C554 1.211 . S
C556 O548 1.284 . S
C556 O557 1.273 . S
O557 C556 1.273 . S
O558 Zn549 1.977 . S
O558 C551 1.267 . S
C559 O560 1.160 . S
C559 O566 1.185 . S
O560 C559 1.160 . S
O561 Zn562 1.899 . S
O561 C569 1.284 . S
Zn562 O561 1.899 . S
Zn562 O563 2.032 . S
Zn562 O566 2.086 . S
Zn562 O571 1.977 . S
O563 Zn562 2.032 . S
O563 C567 1.278 . S
C564 O565 1.203 . S
C564 O571 1.267 . S
O565 C564 1.203 . S
O566 C559 1.185 . S
O566 Zn562 2.086 . S
C567 O563 1.278 . S
C567 O568 1.211 . S
O568 C567 1.211 . S
C569 O561 1.284 . S
C569 O570 1.273 . S
O570 C569 1.273 . S
O571 Zn562 1.977 . S
O571 C564 1.267 . S
C572 O573 1.160 . S
C572 O579 1.185 . S
O573 C572 1.160 . S
O574 Zn575 1.899 . S
O574 C582 1.284 . S
Zn575 O574 1.899 . S
Zn575 O576 2.032 . S
Zn575 O579 2.086 . S
Zn575 O584 1.977 . S
O576 Zn575 2.032 . S
O576 C580 1.278 . S
C577 O578 1.203 . S
C577 O584 1.267 . S
O578 C577 1.203 . S
O579 C572 1.185 . S
O579 Zn575 2.086 . S
C580 O576 1.278 . S
C580 O581 1.211 . S
O581 C580 1.211 . S
C582 O574 1.284 . S
C582 O583 1.273 . S
O583 C582 1.273 . S
O584 Zn575 1.977 . S
O584 C577 1.267 . S
C585 O586 1.160 . S
C585 O592 1.185 . S
O586 C585 1.160 . S
O587 Zn588 1.899 . S
O587 C595 1.284 . S
Zn588 O587 1.899 . S
Zn588 O589 2.032 . S
Zn588 O592 2.086 . S
Zn588 O597 1.977 . S
O589 Zn588 2.032 . S
O589 C593 1.278 . S
C590 O591 1.203 . S
C590 O597 1.267 . S
O591 C590 1.203 . S
O592 C585 1.185 . S
O592 Zn588 2.086 . S
C593 O589 1.278 . S
C593 O594 1.211 . S
O594 C593 1.211 . S
C595 O587 1.284 . S
C595 O596 1.273 . S
O596 C595 1.273 . S
O597 Zn588 1.977 . S
O597 C590 1.267 . S
C598 O599 1.160 . S
C598 O605 1.185 . S
O599 C598 1.160 . S
O600 Zn601 1.899 . S
O600 C608 1.284 . S
Zn601 O600 1.899 . S
Zn601 O602 2.032 . S
Zn601 O605 2.086 . S
Zn601 O610 1.977 . S
O602 Zn601 2.032 . S
O602 C606 1.278 . S
C603 O604 1.203 . S
C603 O610 1.267 . S
O604 C603 1.203 . S
O605 C598 1.185 . S
O605 Zn601 2.086 . S
C606 O602 1.278 . S
C606 O607 1.211 . S
O607 C606 1.211 . S
C608 O600 1.284 . S
C608 O609 1.273 . S
O609 C608 1.273 . S
O610 Zn601 1.977 . S
O610 C603 1.267 . S
C611 O612 1.160 . S
C611 O618 1.185 . S
O612 C611 1.160 . S
O613 Zn614 1.899 . S
O613 C621 1.284 . S
Zn614 O613 1.899 . S
Zn614 O615 2.032 . S
Zn614 O618 2.086 . S
Zn614 O623 1.977 . S
O615 Zn614 2.032 . S
O615 C619 1.278 . S
C616 O617 1.203 . S
C616 O623 1.267 . S
O617 C616 1.203 . S
O618 C611 1.185 . S
O618 Zn614 2.086 . S
C619 O615 1.278 . S
C619 O620 1.211 . S
O620 C619 1.211 . S
C621 O613 1.284 . S
C621 O622 1.273 . S
O622 C621 1.273 . S
O623 Zn614 1.977 . S
O623 C616 1.267 . S
C624 O625 1.160 . S
C624 O631 1.185 . S
O625 C624 1.160 . S
O626 Zn627 1.899 . S
O626 C634 1.284 . S
Zn627 O626 1.899 . S
Zn627 O628 2.032 . S
Zn627 O631 2.086 . S
Zn627 O636 1.977 . S
O628 Zn627 2.032 . S
O628 C632 1.278 . S
C629 O630 1.203 . S
C629 O636 1.267 . S
O630 C629 1.203 . S
O631 C624 1.185 . S
O631 Zn627 2.086 . S
C632 O628 1.278 . S
C632 O633 1.211 . S
O633 C632 1.211 . S
C634 O626 1.284 . S
C634 O635 1.273 . S
O635 C634 1.273 . S
O636 Zn627 1.977 . S
O636 C629 1.267 . S
C637 O638 1.160 . S
C637 O644 1.185 . S
O638 C637 1.160 . S
O639 Zn640 1.899 . S
O639 C647 1.284 . S
Zn640 O639 1.899 . S
Zn640 O641 2.032 . S
Zn640 O644 2.086 . S
Zn640 O649 1.977 . S
O641 Zn640 2.032 . S
O641 C645 1.278 . S
C642 O643 1.203 . S
C642 O649 1.267 . S
O643 C642 1.203 . S
O644 C637 1.185 . S
O644 Zn640 2.086 . S
C645 O641 1.278 . S
C645 O646 1.211 . S
O646 C645 1.211 . S
C647 O639 1.284 . S
C647 O648 1.273 . S
O648 C647 1.273 . S
O649 Zn640 1.977 . S
O649 C642 1.267 . S
C650 O651 1.160 . S
C650 O657 1.185 . S
O651 C650 1.160 . S
O652 Zn653 1.899 . S
O652 C660 1.284 . S
Zn653 O652 1.899 . S
Zn653 O654 2.032 . S
Zn653 O657 2.086 . S
Zn653 O662 1.977 . S
O654 Zn653 2.032 . S
O654 C658 1.278 . S
C655 O656 1.203 . S
C655 O662 1.267 . S
O656 C655 1.203 . S
O657 C650 1.185 . S
O657 Zn653 2.086 . S
C658 O654 1.278 . S
C658 O659 1.211 . S
O659 C658 1.211 . S
C660 O652 1.284 . S
C660 O661 1.273 . S
O661 C660 1.273 . S
O662 Zn653 1.977 . S
O662 C655 1.267 . S
C663 O664 1.160 . S
C663 O670 1.185 . S
O664 C663 1.160 . S
O665 Zn666 1.899 . S
O665 C673 1.284 . S
Zn666 O665 1.899 . S
Zn666 O667 2.032 . S
Zn666 O670 2.086 . S
Zn666 O675 1.977 . S
O667 Zn666 2.032 . S
O667 C671 1.278 . S
C668 O669 1.203 . S
C668 O675 1.267 . S
O669 C668 1.203 . S
O670 C663 1.185 . S
O670 Zn666 2.086 . S
C671 O667 1.278 . S
C671 O672 1.211 . S
O672 C671 1.211 . S
C673 O665 1.284 . S
C673 O674 1.273 . S
O674 C673 1.273 . S
O675 Zn666 1.977 . S
O675 C668 1.267 . S
C676 O677 1.160 . S
C676 O683 1.185 . S
O677 C676 1.160 . S
O678 Zn679 1.899 . S
O678 C686 1.284 . S
Zn679 O678 1.899 . S
Zn679 O680 2.032 . S
Zn679 O683 2.086 . S
Zn679 O688 1.977 . S
O680 Zn679 2.032 . S
O680 C684 1.278 . S
C681 O682 1.203 . S
C681 O688 1.267 . S
O682 C681 1.203 . S
O683 C676 1.185 . S
O683 Zn679 2.086 . S
C684 O680 1.278 . S
C684 O685 1.211 . S
O685 C684 1.211 . S
C686 O678 1.284 . S
C686 O687 1.273 . S
O687 C686 1.273 . S
O688 Zn679 1.977 . S
O688 C681 1.267 . S
C689 O690 1.160 . S
C689 O696 1.185 . S
O690 C689 1.160 . S
O691 Zn692 1.899 . S
O691 C699 1.284 . S
Zn692 O691 1.899 . S
Zn692 O693 2.032 . S
Zn692 O696 2.086 . S
Zn692 O701 1.977 . S
O693 Zn692 2.032 . S
O693 C697 1.278 . S
C694 O695 1.203 . S
C694 O701 1.267 . S
O695 C694 1.203 . S
O696 C689 1.185 . S
O696 Zn692 2.086 . S
C697 O693 1.278 . S
C697 O698 1.211 . S
O698 C697 1.211 . S
C699 O691 1.284 . S
C699 O700 1.273 . S
O700 C699 1.273 . S
O701 Zn692 1.977 . S
O701 C694 1.267 . S
C702 O703 1.160 . S
C702 O709 1.185 . S
O703 C702 1.160 . S
O704 Zn705 1.899 . S
O704 C712 1.284 . S
Zn705 O704 1.899 . S
Zn705 O706 2.032 . S
Zn705 O709 2.086 . S
Zn705 O714 1.977 . S
O706 Zn705 2.032 . S
O706 C710 1.278 . S
C707 O708 1.203 . S
C707 O714 1.267 . S
O708 C707 1.203 . S
O709 C702 1.185 . S
O709 Zn705 2.086 . S
C710 O706 1.278 . S
C710 O711 1.211 . S
O711 C710 1.211 . S
C712 O704 1.284 . S
C712 O713 1.273 . S
O713 C712 1.273 . S
O714 Zn705 1.977 . S
O714 C707 1.267 . S
C715 O716 1.160 . S
C715 O722 1.185 . S
O716 C715 1.160 . S
O717 Zn718 1.899 . S
O717 C725 1.284 . S
Zn718 O717 1.899 . S
Zn718 O719 2.032 . S
Zn718 O722 2.086 . S
Zn718 O727 1.977 . S
O719 Zn718 2.032 . S
O719 C723 1.278 . S
C720 O721 1.203 . S
C720 O727 1.267 . S
O721 C720 1.203 . S
O722 C715 1.185 . S
O722 Zn718 2.086 . S
C723 O719 1.278 . S
C723 O724 1.211 . S
O724 C723 1.211 . S
C725 O717 1.284 . S
C725 O726 1.273 . S
O726 C725 1.273 . S
O727 Zn718 1.977 . S
O727 C720 1.267 . S
C728 O729 1.160 . S
C728 O735 1.185 . S
O729 C728 1.160 . S
O730 Zn731 1.899 . S
O730 C738 1.284 . S
Zn731 O730 1.899 . S
Zn731 O732 2.032 . S
Zn731 O735 2.086 . S
Zn731 O740 1.977 . S
O732 Zn731 2.032 . S
O732 C736 1.278 . S
C733 O734 1.203 . S
C733 O740 1.267 . S
O734 C733 1.203 . S
O735 C728 1.185 . S
O735 Zn731 2.086 . S
C736 O732 1.278 . S
C736 O737 1.211 . S
O737 C736 1.211 . S
C738 O730 1.284 . S
C738 O739 1.273 . S
O739 C738 1.273 . S
O740 Zn731 1.977 . S
O740 C733 1.267 . S
C741 O742 1.160 . S
C741 O748 1.185 . S
O742 C741 1.160 . S
O743 Zn744 1.899 . S
O743 C751 1.284 . S
Zn744 O743 1.899 . S
Zn744 O745 2.032 . S
Zn744 O748 2.086 . S
Zn744 O753 1.977 . S
O745 Zn744 2.032 . S
O745 C749 1.278 . S
C746 O747 1.203 . S
C746 O753 1.267 . S
O747 C746 1.203 . S
O748 C741 1.185 . S
O748 Zn744 2.086 . S
C749 O745 1.278 . S
C749 O750 1.211 . S
O750 C749 1.211 . S
C751 O743 1.284 . S
C751 O752 1.273 . S
O752 C751 1.273 . S
O753 Zn744 1.977 . S
O753 C746 1.267 . S
C754 O755 1.160 . S
C754 O761 1.185 . S
O755 C754 1.160 . S
O756 Zn757 1.899 . S
O756 C764 1.284 . S
Zn757 O756 1.899 . S
Zn757 O758 2.032 . S
Zn757 O761 2.086 . S
Zn757 O766 1.977 . S
O758 Zn757 2.032 . S
O758 C762 1.278 . S
C759 O760 1.203 . S
C759 O766 1.267 . S
O760 C759 1.203 . S
O761 C754 1.185 . S
O761 Zn757 2.086 . S
C762 O758 1.278 . S
C762 O763 1.211 . S
O763 C762 1.211 . S
C764 O756 1.284 . S
C764 O765 1.273 . S
O765 C764 1.273 . S
O766 Zn757 1.977 . S
O766 C759 1.267 . S
C767 O768 1.160 . S
C767 O774 1.185 . S
O768 C767 1.160 . S
O769 Zn770 1.899 . S
O769 C777 1.284 . S
Zn770 O769 1.899 . S
Zn770 O771 2.032 . S
Zn770 O774 2.086 . S
Zn770 O779 1.977 . S
O771 Zn770 2.032 . S
O771 C775 1.278 . S
C772 O773 1.203 . S
C772 O779 1.267 . S
O773 C772 1.203 . S
O774 C767 1.185 . S
O774 Zn770 2.086 . S
C775 O771 1.278 . S
C775 O776 1.211 . S
O776 C775 1.211 . S
C777 O769 1.284 . S
C777 O778 1.273 . S
O778 C777 1.273 . S
O779 Zn770 1.977 . S
O779 C772 1.267 . S
C780 O781 1.160 . S
C780 O787 1.185 . S
O781 C780 1.160 . S
O782 Zn783 1.899 . S
O782 C790 1.284 . S
Zn783 O782 1.899 . S
Zn783 O784 2.032 . S
Zn783 O787 2.086 . S
Zn783 O792 1.977 . S
O784 Zn783 2.032 . S
O784 C788 1.278 . S
C785 O786 1.203 . S
C785 O792 1.267 . S
O786 C785 1.203 . S
O787 C780 1.185 . S
O787 Zn783 2.086 . S
C788 O784 1.278 . S
C788 O789 1.211 . S
O789 C788 1.211 . S
C790 O782 1.284 . S
C790 O791 1.273 . S
O791 C790 1.273 . S
O792 Zn783 1.977 . S
O792 C785 1.267 . S
C793 O794 1.160 . S
C793 O800 1.185 . S
O794 C793 1.160 . S
O795 Zn796 1.899 . S
O795 C803 1.284 . S
Zn796 O795 1.899 . S
Zn796 O797 2.032 . S
Zn796 O800 2.086 . S
Zn796 O805 1.977 . S
O797 Zn796 2.032 . S
O797 C801 1.278 . S
C798 O799 1.203 . S
C798 O805 1.267 . S
O799 C798 1.203 . S
O800 C793 1.185 . S
O800 Zn796 2.086 . S
C801 O797 1.278 . S
C801 O802 1.211 . S
O802 C801 1.211 . S
C803 O795 1.284 . S
C803 O804 1.273 . S
O804 C803 1.273 . S
O805 Zn796 1.977 . S
O805 C798 1.267 . S
C806 O807 1.160 . S
C806 O813 1.185 . S
O807 C806 1.160 . S
O808 Zn809 1.899 . S
O808 C816 1.284 . S
Zn809 O808 1.899 . S
Zn809 O810 2.032 . S
Zn809 O813 2.086 . S
Zn809 O818 1.977 . S
O810 Zn809 2.032 . S
O810 C814 1.278 . S
C811 O812 1.203 . S
C811 O818 1.267 . S
O812 C811 1.203 . S
O813 C806 1.185 . S
O813 Zn809 2.086 . S
C814 O810 1.278 . S
C814 O815 1.211 . S
O815 C814 1.211 . S
C816 O808 1.284 . S
C816 O817 1.273 . S
O817 C816 1.273 . S
O818 Zn809 1.977 . S
O818 C811 1.267 . S
C819 O820 1.160 . S
C819 O826 1.185 . S
O820 C819 1.160 . S
O821 Zn822 1.899 . S
O821 C829 1.284 . S
Zn822 O821 1.899 . S
Zn822 O823 2.032 . S
Zn822 O826 2.086 . S
Zn822 O831 1.977 . S
O823 Zn822 2.032 . S
O823 C827 1.278 . S
C824 O825 1.203 . S
C824 O831 1.267 . S
O825 C824 1.203 . S
O826 C819 1.185 . S
O826 Zn822 2.086 . S
C827 O823 1.278 . S
C827 O828 1.211 . S
O828 C827 1.211 . S
C829 O821 1.284 . S
C829 O830 1.273 . S
O830 C829 1.273 . S
O831 Zn822 1.977 . S
O831 C824 1.267 . S
C832 O833 1.160 . S
C832 O839 1.185 . S
O833 C832 1.160 . S
O834 Zn835 1.899 . S
O834 C842 1.284 . S
Zn835 O834 1.899 . S
Zn835 O836 2.032 . S
Zn835 O839 2.086 . S
Zn835 O844 1.977 . S
O836 Zn835 2.032 . S
O836 C840 1.278 . S
C837 O838 1.203 . S
C837 O844 1.267 . S
O838 C837 1.203 . S
O839 C832 1.185 . S
O839 Zn835 2.086 . S
C840 O836 1.278 . S
C840 O841 1.211 . S
O841 C840 1.211 . S
C842 O834 1.284 . S
C842 O843 1.273 . S
O843 C842 1.273 . S
O844 Zn835 1.977 . S
O844 C837 1.267 . S
C845 O846 1.160 . S
C845 O852 1.185 . S
O846 C845 1.160 . S
O847 Zn848 1.899 . S
O847 C855 1.284 . S
Zn848 O847 1.899 . S
Zn848 O849 2.032 . S
Zn848 O852 2.086 . S
Zn848 O857 1.977 . S
O849 Zn848 2.032 . S
O849 C853 1.278 . S
C850 O851 1.203 . S
C850 O857 1.267 . S
O851 C850 1.203 . S
O852 C845 1.185 . S
O852 Zn848 2.086 . S
C853 O849 1.278 . S
C853 O854 1.211 . S
O854 C853 1.211 . S
C855 O847 1.284 . S
C855 O856 1.273 . S
O856 C855 1.273 . S
O857 Zn848 1.977 . S
O857 C850 1.267 . S
C858 O859 1.160 . S
C858 O865 1.185 . S
O859 C858 1.160 . S
O860 Zn861 1.899 . S
O860 C868 1.284 . S
Zn861 O860 1.899 . S
Zn861 O862 2.032 . S
Zn861 O865 2.086 . S
Zn861 O870 1.977 . S
O862 Zn861 2.032 . S
O862 C866 1.278 . S
C863 O864 1.203 . S
C863 O870 1.267 . S
O864 C863 1.203 . S
O865 C858 1.185 . S
O865 Zn861 2.086 . S
C866 O862 1.278 . S
C866 O867 1.211 . S
O867 C866 1.211 . S
C868 O860 1.284 . S
C868 O869 1.273 . S
O869 C868 1.273 . S
O870 Zn861 1.977 . S
O870 C863 1.267 . S
C871 O872 1.160 . S
C871 O878 1.185 . S
O872 C871 1.160 . S
O873 Zn874 1.899 . S
O873 C881 1.284 . S
Zn874 O873 1.899 . S
Zn874 O875 2.032 . S
Zn874 O878 2.086 . S
Zn874 O883 1.977 . S
O875 Zn874 2.032 . S
O875 C879 1.278 . S
C876 O877 1.203 . S
C876 O883 1.267 . S
O877 C876 1.203 . S
O878 C871 1.185 . S
O878 Zn874 2.086 . S
C879 O875 1.278 . S
C879 O880 1.211 . S
O880 C879 1.211 . S
C881 O873 1.284 . S
C881 O882 1.273 . S
O882 C881 1.273 . S
O883 Zn874 1.977 . S
O883 C876 1.267 . S
C884 O885 1.160 . S
C884 O891 1.185 . S
O885 C884 1.160 . S
O886 Zn887 1.899 . S
O886 C894 1.284 . S
Zn887 O886 1.899 . S
Zn887 O888 2.032 . S
Zn887 O891 2.086 . S
Zn887 O896 1.977 . S
O888 Zn887 2.032 . S
O888 C892 1.278 . S
C889 O890 1.203 . S
C889 O896 1.267 . S
O890 C889 1.203 . S
O891 C884 1.185 . S
O891 Zn887 2.086 . S
C892 O888 1.278 . S
C892 O893 1.211 . S
O893 C892 1.211 . S
C894 O886 1.284 . S
C894 O895 1.273 . S
O895 C894 1.273 . S
O896 Zn887 1.977 . S
O896 C889 1.267 . S
C897 O898 1.160 . S
C897 O904 1.185 . S
O898 C897 1.160 . S
O899 Zn900 1.899 . S
O899 C907 1.284 . S
Zn900 O899 1.899 . S
Zn900 O901 2.032 . S
Zn900 O904 2.086 . S
Zn900 O909 1.977 . S
O901 Zn900 2.032 . S
O901 C905 1.278 . S
C902 O903 1.203 . S
C902 O909 1.267 . S
O903 C902 1.203 . S
O904 C897 1.185 . S
O904 Zn900 2.086 . S
C905 O901 1.278 . S
C905 O906 1.211 . S
O906 C905 1.211 . S
C907 O899 1.284 . S
C907 O908 1.273 . S
O908 C907 1.273 . S
O909 Zn900 1.977 . S
O909 C902 1.267 . S
C910 O911 1.160 . S
C910 O917 1.185 . S
O911 C910 1.160 . S
O912 Zn913 1.899 . S
O912 C920 1.284 . S
Zn913 O912 1.899 . S
Zn913 O914 2.032 . S
Zn913 O917 2.086 . S
Zn913 O922 1.977 . S
O914 Zn913 2.032 . S
O914 C918 1.278 . S
C915 O916 1.203 . S
C915 O922 1.267 . S
O916 C915 1.203 . S
O917 C910 1.185 . S
O917 Zn913 2.086 . S
C918 O914 1.278 . S
C918 O919 1.211 . S
O919 C918 1.211 . S
C920 O912 1.284 . S
C920 O921 1.273 . S
O921 C920 1.273 . S
O922 Zn913 1.977 . S
O922 C915 1.267 . S
C923 O924 1.160 . S
C923 O930 1.185 . S
O924 C923 1.160 . S
O925 Zn926 1.899 . S
O925 C933 1.284 . S
Zn926 O925 1.899 . S
Zn926 O927 2.032 . S
Zn926 O930 2.086 . S
Zn926 O935 1.977 . S
O927 Zn926 2.032 . S
O927 C931 1.278 . S
C928 O929 1.203 . S
C928 O935 1.267 . S
O929 C928 1.203 . S
O930 C923 1.185 . S
O930 Zn926 2.086 . S
C931 O927 1.278 . S
C931 O932 1.211 . S
O932 C931 1.211 . S
C933 O925 1.284 . S
C933 O934 1.273 . S
O934 C933 1.273 . S
O935 Zn926 1.977 . S
O935 C928 1.267 . S
C936 O937 1.160 . S
C936 O943 1.185 . S
O937 C936 1.160 . S
O938 Zn939 1.899 . S
O938 C946 1.284 . S
Zn939 O938 1.899 . S
Zn939 O940 2.032 . S
Zn939 O943 2.086 . S
Zn939 O948 1.977 . S
O940 Zn939 2.032 . S
O940 C944 1.278 . S
C941 O942 1.203 . S
C941 O948 1.267 . S
O942 C941 1.203 . S
O943 C936 1.185 . S
O943 Zn939 2.086 . S
C944 O940 1.278 . S
C944 O945 1.211 . S
O945 C944 1.211 . S
C946 O938 1.284 . S
C946 O947 1.273 . S
O947 C946 1.273 . S
O948 Zn939 1.977 . S
O948 C941 1.267 . S
C949 O950 1.160 . S
C949 O956 1.185 . S
O950 C949 1.160 . S
O951 Zn952 1.899 . S
O951 C959 1.284 . S
Zn952 O951 1.899 . S
Zn952 O953 2.032 . S
Zn952 O956 2.086 . S
Zn952 O961 1.977 . S
O953 Zn952 2.032 . S
O953 C957 1.278 . S
C954 O955 1.203 . S
C954 O961 1.267 . S
O955 C954 1.203 . S
O956 C949 1.185 . S
O956 Zn952 2.086 . S
C957 O953 1.278 . S
C957 O958 1.211 . S
O958 C957 1.211 . S
C959 O951 1.284 . S
C959 O960 1.273 . S
O960 C959 1.273 . S
O961 Zn952 1.977 . S
O961 C954 1.267 . S
C962 O963 1.160 . S
C962 O969 1.185 . S
O963 C962 1.160 . S
O964 Zn965 1.899 . S
O964 C972 1.284 . S
Zn965 O964 1.899 . S
Zn965 O966 2.032 . S
Zn965 O969 2.086 . S
Zn965 O974 1.977 . S
O966 Zn965 2.032 . S
O966 C970 1.278 . S
C967 O968 1.203 . S
C967 O974 1.267 . S
O968 C967 1.203 . S
O969 C962 1.185 . S
O969 Zn965 2.086 . S
C970 O966 1.278 . S
C970 O971 1.211 . S
O971 C970 1.211 . S
C972 O964 1.284 . S
C972 O973 1.273 . S
O973 C972 1.273 . S
O974 Zn965 1.977 . S
O974 C967 1.267 . S
C975 O976 1.160 . S
C975 O982 1.185 . S
O976 C975 1.160 . S
O977 Zn978 1.899 . S
O977 C985 1.284 . S
Zn978 O977 1.899 . S
Zn978 O979 2.032 . S
Zn978 O982 2.086 . S
Zn978 O987 1.977 . S
O979 Zn978 2.032 . S
O979 C983 1.278 . S
C980 O981 1.203 . S
C980 O987 1.267 . S
O981 C980 1.203 . S
O982 C975 1.185 . S
O982 Zn978 2.086 . S
C983 O979 1.278 . S
C983 O984 1.211 . S
O984 C983 1.211 . S
C985 O977 1.284 . S
C985 O986 1.273 . S
O986 C985 1.273 . S
O987 Zn978 1.977 . S
O987 C980 1.267 . S
C988 O989 1.160 . S
C988 O995 1.185 . S
O989 C988 1.160 . S
O990 Zn991 1.899 . S
O990 C998 1.284 . S
Zn991 O990 1.899 . S
Zn991 O992 2.032 . S
Zn991 O995 2.086 . S
Zn991 O1000 1.977 . S
O992 Zn991 2.032 . S
O992 C996 1.278 . S
C993 O994 1.203 . S
C993 O1000 1.267 . S
O994 C993 1.203 . S
O995 C988 1.185 . S
O995 Zn991 2.086 . S
C996 O992 1.278 . S
C996 O997 1.211 . S
O997 C996 1.211 . S
C998 O990 1.284 . S
C998 O999 1.273 . S
O999 C998 1.273 . S
O1000 Zn991 1.977 . S
O1000 C993 1.267 . S
C1001 O1002 1.160 . S
C1001 O1008 1.185 . S
O1002 C1001 1.160 . S
O1003 Zn1004 1.899 . S
O1003 C1011 1.284 . S
Zn1004 O1003 1.899 . S
Zn1004 O1005 2.032 . S
Zn1004 O1008 2.086 . S
Zn1004 O1013 1.977 . S
O1005 Zn1004 2.032 . S
O1005 C1009 1.278 . S
C1006 O1007 1.203 . S
C1006 O1013 1.267 . S
O1007 C1006 1.203 . S
O1008 C1001 1.185 . S
O1008 Zn1004 2.086 . S
C1009 O1005 1.278 . S
C1009 O1010 1.211 . S
O1010 C1009 1.211 . S
C1011 O1003 1.284 . S
C1011 O1012 1.273 . S
O1012 C1011 1.273 . S
O1013 Zn1004 1.977 . S
O1013 C1006 1.267 . S
C1014 O1015 1.160 . S
C1014 O1021 1.185 . S
O1015 C1014 1.160 . S
O1016 Zn1017 1.899 . S
O1016 C1024 1.284 . S
Zn1017 O1016 1.899 . S
Zn1017 O1018 2.032 . S
Zn1017 O1021 2.086 . S
Zn1017 O1026 1.977 . S
O1018 Zn1017 2.032 . S
O1018 C1022 1.278 . S
C1019 O1020 1.203 . S
C1019 O1026 1.267 . S
O1020 C1019 1.203 . S
O1021 C1014 1.185 . S
O1021 Zn1017 2.086 . S
C1022 O1018 1.278 . S
C1022 O1023 1.211 . S
O1023 C1022 1.211 . S
C1024 O1016 1.284 . S
C1024 O1025 1.273 . S
O1025 C1024 1.273 . S
O1026 Zn1017 1.977 . S
O1026 C1019 1.267 . S
C1027 O1028 1.160 . S
C1027 O1034 1.185 . S
O1028 C1027 1.160 . S
O1029 Zn1030 1.899 . S
O1029 C1037 1.284 . S
Zn1030 O1029 1.899 . S
Zn1030 O1031 2.032 . S
Zn1030 O1034 2.086 . S
Zn1030 O1039 1.977 . S
O1031 Zn1030 2.032 . S
O1031 C1035 1.278 . S
C1032 O1033 1.203 . S
C1032 O1039 1.267 . S
O1033 C1032 1.203 . S
O1034 C1027 1.185 . S
O1034 Zn1030 2.086 . S
C1035 O1031 1.278 . S
C1035 O1036 1.211 . S
O1036 C1035 1.211 . S
C1037 O1029 1.284 . S
C1037 O1038 1.273 . S
O1038 C1037 1.273 . S
O1039 Zn1030 1.977 . S
O1039 C1032 1.267 . S
C1040 O1041 1.160 . S
C1040 O1047 1.185 . S
O1041 C1040 1.160 . S
O1042 Zn1043 1.899 . S
O1042 C1050 1.284 . S
Zn1043 O1042 1.899 . S
Zn1043 O1044 2.032 . S
Zn1043 O1047 2.086 . S
Zn1043 O1052 1.977 . S
O1044 Zn1043 2.032 . S
O1044 C1048 1.278 . S
C1045 O1046 1.203 . S
C1045 O1052 1.267 . S
O1046 C1045 1.203 . S
O1047 C1040 1.185 . S
O1047 Zn1043 2.086 . S
C1048 O1044 1.278 . S
C1048 O1049 1.211 . S
O1049 C1048 1.211 . S
C1050 O1042 1.284 . S
C1050 O1051 1.273 . S
O1051 C1050 1.273 . S
O1052 Zn1043 1.977 . S
O1052 C1045 1.267 . S
C1053 O1054 1.160 . S
C1053 O1060 1.185 . S
O1054 C1053 1.160 . S
O1055 Zn1056 1.899 . S
O1055 C1063 1.284 . S
Zn1056 O1055 1.899 . S
Zn1056 O1057 2.032 . S
Zn1056 O1060 2.086 . S
Zn1056 O1065 1.977 . S
O1057 Zn1056 2.032 . S
O1057 C1061 1.278 . S
C1058 O1059 1.203 . S
C1058 O1065 1.267 . S
O1059 C1058 1.203 . S
O1060 C1053 1.185 . S
O1060 Zn1056 2.086 . S
C1061 O1057 1.278 . S
C1061 O1062 1.211 . S
O1062 C1061 1.211 . S
C1063 O1055 1.284 . S
C1063 O1064 1.273 . S
O1064 C1063 1.273 . S
O1065 Zn1056 1.977 . S
O1065 C1058 1.267 . S
C1066 O1067 1.160 . S
C1066 O1073 1.185 . S
O1067 C1066 1.160 . S
O1068 Zn1069 1.899 . S
O1068 C1076 1.284 . S
Zn1069 O1068 1.899 . S
Zn1069 O1070 2.032 . S
Zn1069 O1073 2.086 . S
Zn1069 O1078 1.977 . S
O1070 Zn1069 2.032 . S
O1070 C1074 1.278 . S
C1071 O1072 1.203 . S
C1071 O1078 1.267 . S
O1072 C1071 1.203 . S
O1073 C1066 1.185 . S
O1073 Zn1069 2.086 . S
C1074 O1070 1.278 . S
C1074 O1075 1.211 . S
O1075 C1074 1.211 . S
C1076 O1068 1.284 . S
C1076 O1077 1.273 . S
O1077 C1076 1.273 . S
O1078 Zn1069 1.977 . S
O1078 C1071 1.267 . S
C1079 O1080 1.160 . S
C1079 O1086 1.185 . S
O1080 C1079 1.160 . S
O1081 Zn1082 1.899 . S
O1081 C1089 1.284 . S
Zn1082 O1081 1.899 . S
Zn1082 O1083 2.032 . S
Zn1082 O1086 2.086 . S
Zn1082 O1091 1.977 . S
O1083 Zn1082 2.032 . S
O1083 C1087 1.278 . S
C1084 O1085 1.203 . S
C1084 O1091 1.267 . S
O1085 C1084 1.203 . S
O1086 C1079 1.185 . S
O1086 Zn1082 2.086 . S
C1087 O1083 1.278 . S
C1087 O1088 1.211 . S
O1088 C1087 1.211 . S
C1089 O1081 1.284 . S
C1089 O1090 1.273 . S
O1090 C1089 1.273 . S
O1091 Zn1082 1.977 . S
O1091 C1084 1.267 . S
C1092 O1093 1.160 . S
C1092 O1099 1.185 . S
O1093 C1092 1.160 . S
O1094 Zn1095 1.899 . S
O1094 C1102 1.284 . S
Zn1095 O1094 1.899 . S
Zn1095 O1096 2.032 . S
Zn1095 O1099 2.086 . S
Zn1095 O1104 1.977 . S
O1096 Zn1095 2.032 . S
O1096 C1100 1.278 . S
C1097 O1098 1.203 . S
C1097 O1104 1.267 . S
O1098 C1097 1.203 . S
O1099 C1092 1.185 . S
O1099 Zn1095 2.086 . S
C1100 O1096 1.278 . S
C1100 O1101 1.211 . S
O1101 C1100 1.211 . S
C1102 O1094 1.284 . S
C1102 O1103 1.273 . S
O1103 C1102 1.273 . S
O1104 Zn1095 1.977 . S
O1104 C1097 1.267 . S
C1105 O1106 1.160 . S
C1105 O1112 1.185 . S
O1106 C1105 1.160 . S
O1107 Zn1108 1.899 . S
O1107 C1115 1.284 . S
Zn1108 O1107 1.899 . S
Zn1108 O1109 2.032 . S
Zn1108 O1112 2.086 . S
Zn1108 O1117 1.977 . S
O1109 Zn1108 2.032 . S
O1109 C1113 1.278 . S
C1110 O1111 1.203 . S
C1110 O1117 1.267 . S
O1111 C1110 1.203 . S
O1112 C1105 1.185 . S
O1112 Zn1108 2.086 . S
C1113 O1109 1.278 . S
C1113 O1114 1.211 . S
O1114 C1113 1.211 . S
C1115 O1107 1.284 . S
C1115 O1116 1.273 . S
O1116 C1115 1.273 . S
O1117 Zn1108 1.977 . S
O1117 C1110 1.267 . S
C1118 O1119 1.160 . S
C1118 O1125 1.185 . S
O1119 C1118 1.160 . S
O1120 Zn1121 1.899 . S
O1120 C1128 1.284 . S
Zn1121 O1120 1.899 . S
Zn1121 O1122 2.032 . S
Zn1121 O1125 2.086 . S
Zn1121 O1130 1.977 . S
O1122 Zn1121 2.032 . S
O1122 C1126 1.278 . S
C1123 O1124 1.203 . S
C1123 O1130 1.267 . S
O1124 C1123 1.203 . S
O1125 C1118 1.185 . S
O1125 Zn1121 2.086 . S
C1126 O1122 1.278 . S
C1126 O1127 1.211 . S
O1127 C1126 1.211 . S
C1128 O1120 1.284 . S
C1128 O1129 1.273 . S
O1129 C1128 1.273 . S
O1130 Zn1121 1.977 . S
O1130 C1123 1.267 . S
C1131 O1132 1.160 . S
C1131 O1138 1.185 . S
O1132 C1131 1.160 . S
O1133 Zn1134 1.899 . S
O1133 C1141 1.284 . S
Zn1134 O1133 1.899 . S
Zn1134 O1135 2.032 . S
Zn1134 O1138 2.086 . S
Zn1134 O1143 1.977 . S
O1135 Zn1134 2.032 . S
O1135 C1139 1.278 . S
C1136 O1137 1.203 . S
C1136 O1143 1.267 . S
O1137 C1136 1.203 . S
O1138 C1131 1.185 . S
O1138 Zn1134 2.086 . S
C1139 O1135 1.278 . S
C1139 O1140 1.211 . S
O1140 C1139 1.211 . S
C1141 O1133 1.284 . S
C1141 O1142 1.273 . S
O1142 C1141 1.273 . S
O1143 Zn1134 1.977 . S
O1143 C1136 1.267 . S
C1144 O1145 1.160 . S
C1144 O1151 1.185 . S
O1145 C1144 1.160 . S
O1146 Zn1147 1.899 . S
O1146 C1154 1.284 . S
Zn1147 O1146 1.899 . S
Zn1147 O1148 2.032 . S
Zn1147 O1151 2.086 . S
Zn1147 O1156 1.977 . S
O1148 Zn1147 2.032 . S
O1148 C1152 1.278 . S
C1149 O1150 1.203 . S
C1149 O1156 1.267 . S
O1150 C1149 1.203 . S
O1151 C1144 1.185 . S
O1151 Zn1147 2.086 . S
C1152 O1148 1.278 . S
C1152 O1153 1.211 . S
O1153 C1152 1.211 . S
C1154 O1146 1.284 . S
C1154 O1155 1.273 . S
O1155 C1154 1.273 . S
O1156 Zn1147 1.977 . S
O1156 C1149 1.267 . S
C1157 O1158 1.160 . S
C1157 O1164 1.185 . S
O1158 C1157 1.160 . S
O1159 Zn1160 1.899 . S
O1159 C1167 1.284 . S
Zn1160 O1159 1.899 . S
Zn1160 O1161 2.032 . S
Zn1160 O1164 2.086 . S
Zn1160 O1169 1.977 . S
O1161 Zn1160 2.032 . S
O1161 C1165 1.278 . S
C1162 O1163 1.203 . S
C1162 O1169 1.267 . S
O1163 C1162 1.203 . S
O1164 C1157 1.185 . S
O1164 Zn1160 2.086 . S
C1165 O1161 1.278 . S
C1165 O1166 1.211 . S
O1166 C1165 1.211 . S
C1167 O1159 1.284 . S
C1167 O1168 1.273 . S
O1168 C1167 1.273 . S
O1169 Zn1160 1.977 . S
O1169 C1162 1.267 . S
C1170 O1171 1.160 . S
C1170 O1177 1.185 . S
O1171 C1170 1.160 . S
O1172 Zn1173 1.899 . S
O1172 C1180 1.284 . S
Zn1173 O1172 1.899 . S
Zn1173 O1174 2.032 . S
Zn1173 O1177 2.086 . S
Zn1173 O1182 1.977 . S
O1174 Zn1173 2.032 . S
O1174 C1178 1.278 . S
C1175 O1176 1.203 . S
C1175 O1182 1.267 . S
O1176 C1175 1.203 . S
O1177 C1170 1.185 . S
O1177 Zn1173 2.086 . S
C1178 O1174 1.278 . S
C1178 O1179 1.211 . S
O1179 C1178 1.211 . S
C1180 O1172 1.284 . S
C1180 O1181 1.273 . S
O1181 C1180 1.273 . S
O1182 Zn1173 1.977 . S
O1182 C1175 1.267 . S
C1183 O1184 1.160 . S
C1183 O1190 1.185 . S
O1184 C1183 1.160 . S
O1185 Zn1186 1.899 . S
O1185 C1193 1.284 . S
Zn1186 O1185 1.899 . S
Zn1186 O1187 2.032 . S
Zn1186 O1190 2.086 . S
Zn1186 O1195 1.977 . S
O1187 Zn1186 2.032 . S
O1187 C1191 1.278 . S
C1188 O1189 1.203 . S
C1188 O1195 1.267 . S
O1189 C1188 1.203 . S
O1190 C1183 1.185 . S
O1190 Zn1186 2.086 . S
C1191 O1187 1.278 . S
C1191 O1192 1.211 . S
O1192 C1191 1.211 . S
C1193 O1185 1.284 . S
C1193 O1194 1.273 . S
O1194 C1193 1.273 . S
O1195 Zn1186 1.977 . S
O1195 C1188 1.267 . S
C1196 O1197 1.160 . S
C1196 O1203 1.185 . S
O1197 C1196 1.160 . S
O1198 Zn1199 1.899 . S
O1198 C1206 1.284 . S
Zn1199 O1198 1.899 . S
Zn1199 O1200 2.032 . S
Zn1199 O1203 2.086 . S
Zn1199 O1208 1.977 . S
O1200 Zn1199 2.032 . S
O1200 C1204 1.278 . S
C1201 O1202 1.203 . S
C1201 O1208 1.267 . S
O1202 C1201 1.203 . S
O1203 C1196 1.185 . S
O1203 Zn1199 2.086 . S
C1204 O1200 1.278 . S
C1204 O1205 1.211 . S
O1205 C1204 1.211 . S
C1206 O1198 1.284 . S
C1206 O1207 1.273 . S
O1207 C1206 1.273 . S
O1208 Zn1199 1.977 . S
O1208 C1201 1.267 . S
C1209 O1210 1.160 . S
C1209 O1216 1.185 . S
O1210 C1209 1.160 . S
O1211 Zn1212 1.899 . S
O1211 C1219 1.284 . S
Zn1212 O1211 1.899 . S
Zn1212 O1213 2.032 . S
Zn1212 O1216 2.086 . S
Zn1212 O1221 1.977 . S
O1213 Zn1212 2.032 . S
O1213 C1217 1.278 . S
C1214 O1215 1.203 . S
C1214 O1221 1.267 . S
O1215 C1214 1.203 . S
O1216 C1209 1.185 . S
O1216 Zn1212 2.086 . S
C1217 O1213 1.278 . S
C1217 O1218 1.211 . S
O1218 C1217 1.211 . S
C1219 O1211 1.284 . S
C1219 O1220 1.273 . S
O1220 C1219 1.273 . S
O1221 Zn1212 1.977 . S
O1221 C1214 1.267 . S
C1222 O1223 1.160 . S
C1222 O1229 1.185 . S
O1223 C1222 1.160 . S
O1224 Zn1225 1.899 . S
O1224 C1232 1.284 . S
Zn1225 O1224 1.899 . S
Zn1225 O1226 2.032 . S
Zn1225 O1229 2.086 . S
Zn1225 O1234 1.977 . S
O1226 Zn1225 2.032 . S
O1226 C1230 1.278 . S
C1227 O1228 1.203 . S
C1227 O1234 1.267 . S
O1228 C1227 1.203 . S
O1229 C1222 1.185 . S
O1229 Zn1225 2.086 . S
C1230 O1226 1.278 . S
C1230 O1231 1.211 . S
O1231 C1230 1.211 . S
C1232 O1224 1.284 . S
C1232 O1233 1.273 . S
O1233 C1232 1.273 . S
O1234 Zn1225 1.977 . S
O1234 C1227 1.267 . S
C1235 O1236 1.160 . S
C1235 O1242 1.185 . S
O1236 C1235 1.160 . S
O1237 Zn1238 1.899 . S
O1237 C1245 1.284 . S
Zn1238 O1237 1.899 . S
Zn1238 O1239 2.032 . S
Zn1238 O1242 2.086 . S
Zn1238 O1247 1.977 . S
O1239 Zn1238 2.032 . S
O1239 C1243 1.278 . S
C1240 O1241 1.203 . S
C1240 O1247 1.267 . S
O1241 C1240 1.203 . S
O1242 C1235 1.185 . S
O1242 Zn1238 2.086 . S
C1243 O1239 1.278 . S
C1243 O1244 1.211 . S
O1244 C1243 1.211 . S
C1245 O1237 1.284 . S
C1245 O1246 1.273 . S
O1246 C1245 1.273 . S
O1247 Zn1238 1.977 . S
O1247 C1240 1.267 . S
C1248 C1249 1.369 . S
C1248 C1250 1.419 . S
C1248 H1252 0.930 . S
C1249 C1248 1.369 . S
C1249 C1258 1.429 . S
C1250 C1248 1.419 . S
C1250 C1251 1.363 . S
C1250 H1253 0.929 . S
C1251 C1250 1.363 . S
C1251 C1257 1.428 . S
H1252 C1248 0.930 . S
H1253 C1250 0.929 . S
S1254 N1255 1.613 . S
S1254 N1256 1.610 . S
N1255 S1254 1.613 . S
N1255 C1258 1.350 . S
N1256 S1254 1.610 . S
N1256 C1257 1.351 . S
C1257 C1251 1.428 . S
C1257 N1256 1.351 . S
C1257 C1258 1.434 . S
C1258 C1249 1.429 . S
C1258 N1255 1.350 . S
C1258 C1257 1.434 . S
C1259 C1260 1.369 . S
C1259 C1261 1.419 . S
C1259 H1263 0.930 . S
C1260 C1259 1.369 . S
C1260 C1269 1.429 . S
C1261 C1259 1.419 . S
C1261 C1262 1.363 . S
C1261 H1264 0.929 . S
C1262 C1261 1.363 . S
C1262 C1268 1.428 . S
H1263 C1259 0.930 . S
H1264 C1261 0.929 . S
S1265 N1266 1.613 . S
S1265 N1267 1.610 . S
N1266 S1265 1.613 . S
N1266 C1269 1.350 . S
N1267 S1265 1.610 . S
N1267 C1268 1.351 . S
C1268 C1262 1.428 . S
C1268 N1267 1.351 . S
C1268 C1269 1.434 . S
C1269 C1260 1.429 . S
C1269 N1266 1.350 . S
C1269 C1268 1.434 . S
C1270 C1271 1.369 . S
C1270 C1272 1.419 . S
C1270 H1274 0.930 . S
C1271 C1270 1.369 . S
C1271 C1280 1.429 . S
C1272 C1270 1.419 . S
C1272 C1273 1.363 . S
C1272 H1275 0.929 . S
C1273 C1272 1.363 . S
C1273 C1279 1.428 . S
H1274 C1270 0.930 . S
H1275 C1272 0.929 . S
S1276 N1277 1.613 . S
S1276 N1278 1.610 . S
N1277 S1276 1.613 . S
N1277 C1280 1.350 . S
N1278 S1276 1.610 . S
N1278 C1279 1.351 . S
C1279 C1273 1.428 . S
C1279 N1278 1.351 . S
C1279 C1280 1.434 . S
C1280 C1271 1.429 . S
C1280 N1277 1.350 . S
C1280 C1279 1.434 . S
C1281 C1282 1.369 . S
C1281 C1283 1.419 . S
C1281 H1285 0.930 . S
C1282 C1281 1.369 . S
C1282 C1291 1.429 . S
C1283 C1281 1.419 . S
C1283 C1284 1.363 . S
C1283 H1286 0.929 . S
C1284 C1283 1.363 . S
C1284 C1290 1.428 . S
H1285 C1281 0.930 . S
H1286 C1283 0.929 . S
S1287 N1288 1.613 . S
S1287 N1289 1.610 . S
N1288 S1287 1.613 . S
N1288 C1291 1.350 . S
N1289 S1287 1.610 . S
N1289 C1290 1.351 . S
C1290 C1284 1.428 . S
C1290 N1289 1.351 . S
C1290 C1291 1.434 . S
C1291 C1282 1.429 . S
C1291 N1288 1.350 . S
C1291 C1290 1.434 . S
C1292 C1293 1.369 . S
C1292 C1294 1.419 . S
C1292 H1296 0.930 . S
C1293 C1292 1.369 . S
C1293 C1302 1.429 . S
C1294 C1292 1.419 . S
C1294 C1295 1.363 . S
C1294 H1297 0.929 . S
C1295 C1294 1.363 . S
C1295 C1301 1.428 . S
H1296 C1292 0.930 . S
H1297 C1294 0.929 . S
S1298 N1299 1.613 . S
S1298 N1300 1.610 . S
N1299 S1298 1.613 . S
N1299 C1302 1.350 . S
N1300 S1298 1.610 . S
N1300 C1301 1.351 . S
C1301 C1295 1.428 . S
C1301 N1300 1.351 . S
C1301 C1302 1.434 . S
C1302 C1293 1.429 . S
C1302 N1299 1.350 . S
C1302 C1301 1.434 . S
C1303 C1304 1.369 . S
C1303 C1305 1.419 . S
C1303 H1307 0.930 . S
C1304 C1303 1.369 . S
C1304 C1313 1.429 . S
C1305 C1303 1.419 . S
C1305 C1306 1.363 . S
C1305 H1308 0.929 . S
C1306 C1305 1.363 . S
C1306 C1312 1.428 . S
H1307 C1303 0.930 . S
H1308 C1305 0.929 . S
S1309 N1310 1.613 . S
S1309 N1311 1.610 . S
N1310 S1309 1.613 . S
N1310 C1313 1.350 . S
N1311 S1309 1.610 . S
N1311 C1312 1.351 . S
C1312 C1306 1.428 . S
C1312 N1311 1.351 . S
C1312 C1313 1.434 . S
C1313 C1304 1.429 . S
C1313 N1310 1.350 . S
C1313 C1312 1.434 . S
C1314 C1315 1.369 . S
C1314 C1316 1.419 . S
C1314 H1318 0.930 . S
C1315 C1314 1.369 . S
C1315 C1324 1.429 . S
C1316 C1314 1.419 . S
C1316 C1317 1.363 . S
C1316 H1319 0.929 . S
C1317 C1316 1.363 . S
C1317 C1323 1.428 . S
H1318 C1314 0.930 . S
H1319 C1316 0.929 . S
S1320 N1321 1.613 . S
S1320 N1322 1.610 . S
N1321 S1320 1.613 . S
N1321 C1324 1.350 . S
N1322 S1320 1.610 . S
N1322 C1323 1.351 . S
C1323 C1317 1.428 . S
C1323 N1322 1.351 . S
C1323 C1324 1.434 . S
C1324 C1315 1.429 . S
C1324 N1321 1.350 . S
C1324 C1323 1.434 . S
C1325 C1326 1.369 . S
C1325 C1327 1.419 . S
C1325 H1329 0.930 . S
C1326 C1325 1.369 . S
C1326 C1335 1.429 . S
C1327 C1325 1.419 . S
C1327 C1328 1.363 . S
C1327 H1330 0.929 . S
C1328 C1327 1.363 . S
C1328 C1334 1.428 . S
H1329 C1325 0.930 . S
H1330 C1327 0.929 . S
S1331 N1332 1.613 . S
S1331 N1333 1.610 . S
N1332 S1331 1.613 . S
N1332 C1335 1.350 . S
N1333 S1331 1.610 . S
N1333 C1334 1.351 . S
C1334 C1328 1.428 . S
C1334 N1333 1.351 . S
C1334 C1335 1.434 . S
C1335 C1326 1.429 . S
C1335 N1332 1.350 . S
C1335 C1334 1.434 . S
C1336 C1337 1.369 . S
C1336 C1338 1.419 . S
C1336 H1340 0.930 . S
C1337 C1336 1.369 . S
C1337 C1346 1.429 . S
C1338 C1336 1.419 . S
C1338 C1339 1.363 . S
C1338 H1341 0.929 . S
C1339 C1338 1.363 . S
C1339 C1345 1.428 . S
H1340 C1336 0.930 . S
H1341 C1338 0.929 . S
S1342 N1343 1.613 . S
S1342 N1344 1.610 . S
N1343 S1342 1.613 . S
N1343 C1346 1.350 . S
N1344 S1342 1.610 . S
N1344 C1345 1.351 . S
C1345 C1339 1.428 . S
C1345 N1344 1.351 . S
C1345 C1346 1.434 . S
C1346 C1337 1.429 . S
C1346 N1343 1.350 . S
C1346 C1345 1.434 . S
C1347 C1348 1.369 . S
C1347 C1349 1.419 . S
C1347 H1351 0.930 . S
C1348 C1347 1.369 . S
C1348 C1357 1.429 . S
C1349 C1347 1.419 . S
C1349 C1350 1.363 . S
C1349 H1352 0.929 . S
C1350 C1349 1.363 . S
C1350 C1356 1.428 . S
H1351 C1347 0.930 . S
H1352 C1349 0.929 . S
S1353 N1354 1.613 . S
S1353 N1355 1.610 . S
N1354 S1353 1.613 . S
N1354 C1357 1.350 . S
N1355 S1353 1.610 . S
N1355 C1356 1.351 . S
C1356 C1350 1.428 . S
C1356 N1355 1.351 . S
C1356 C1357 1.434 . S
C1357 C1348 1.429 . S
C1357 N1354 1.350 . S
C1357 C1356 1.434 . S
C1358 C1359 1.369 . S
C1358 C1360 1.419 . S
C1358 H1362 0.930 . S
C1359 C1358 1.369 . S
C1359 C1368 1.429 . S
C1360 C1358 1.419 . S
C1360 C1361 1.363 . S
C1360 H1363 0.929 . S
C1361 C1360 1.363 . S
C1361 C1367 1.428 . S
H1362 C1358 0.930 . S
H1363 C1360 0.929 . S
S1364 N1365 1.613 . S
S1364 N1366 1.610 . S
N1365 S1364 1.613 . S
N1365 C1368 1.350 . S
N1366 S1364 1.610 . S
N1366 C1367 1.351 . S
C1367 C1361 1.428 . S
C1367 N1366 1.351 . S
C1367 C1368 1.434 . S
C1368 C1359 1.429 . S
C1368 N1365 1.350 . S
C1368 C1367 1.434 . S
C1369 C1370 1.369 . S
C1369 C1371 1.419 . S
C1369 H1373 0.930 . S
C1370 C1369 1.369 . S
C1370 C1379 1.429 . S
C1371 C1369 1.419 . S
C1371 C1372 1.363 . S
C1371 H1374 0.929 . S
C1372 C1371 1.363 . S
C1372 C1378 1.428 . S
H1373 C1369 0.930 . S
H1374 C1371 0.929 . S
S1375 N1376 1.613 . S
S1375 N1377 1.610 . S
N1376 S1375 1.613 . S
N1376 C1379 1.350 . S
N1377 S1375 1.610 . S
N1377 C1378 1.351 . S
C1378 C1372 1.428 . S
C1378 N1377 1.351 . S
C1378 C1379 1.434 . S
C1379 C1370 1.429 . S
C1379 N1376 1.350 . S
C1379 C1378 1.434 . S
C1380 C1381 1.369 . S
C1380 C1382 1.419 . S
C1380 H1384 0.930 . S
C1381 C1380 1.369 . S
C1381 C1390 1.429 . S
C1382 C1380 1.419 . S
C1382 C1383 1.363 . S
C1382 H1385 0.929 . S
C1383 C1382 1.363 . S
C1383 C1389 1.428 . S
H1384 C1380 0.930 . S
H1385 C1382 0.929 . S
S1386 N1387 1.613 . S
S1386 N1388 1.610 . S
N1387 S1386 1.613 . S
N1387 C1390 1.350 . S
N1388 S1386 1.610 . S
N1388 C1389 1.351 . S
C1389 C1383 1.428 . S
C1389 N1388 1.351 . S
C1389 C1390 1.434 . S
C1390 C1381 1.429 . S
C1390 N1387 1.350 . S
C1390 C1389 1.434 . S
C1391 C1392 1.369 . S
C1391 C1393 1.419 . S
C1391 H1395 0.930 . S
C1392 C1391 1.369 . S
C1392 C1401 1.429 . S
C1393 C1391 1.419 . S
C1393 C1394 1.363 . S
C1393 H1396 0.929 . S
C1394 C1393 1.363 . S
C1394 C1400 1.428 . S
H1395 C1391 0.930 . S
H1396 C1393 0.929 . S
S1397 N1398 1.613 . S
S1397 N1399 1.610 . S
N1398 S1397 1.613 . S
N1398 C1401 1.350 . S
N1399 S1397 1.610 . S
N1399 C1400 1.351 . S
C1400 C1394 1.428 . S
C1400 N1399 1.351 . S
C1400 C1401 1.434 . S
C1401 C1392 1.429 . S
C1401 N1398 1.350 . S
C1401 C1400 1.434 . S
C1402 C1403 1.369 . S
C1402 C1404 1.419 . S
C1402 H1406 0.930 . S
C1403 C1402 1.369 . S
C1403 C1412 1.429 . S
C1404 C1402 1.419 . S
C1404 C1405 1.363 . S
C1404 H1407 0.929 . S
C1405 C1404 1.363 . S
C1405 C1411 1.428 . S
H1406 C1402 0.930 . S
H1407 C1404 0.929 . S
S1408 N1409 1.613 . S
S1408 N1410 1.610 . S
N1409 S1408 1.613 . S
N1409 C1412 1.350 . S
N1410 S1408 1.610 . S
N1410 C1411 1.351 . S
C1411 C1405 1.428 . S
C1411 N1410 1.351 . S
C1411 C1412 1.434 . S
C1412 C1403 1.429 . S
C1412 N1409 1.350 . S
C1412 C1411 1.434 . S
C1413 C1414 1.369 . S
C1413 C1415 1.419 . S
C1413 H1417 0.930 . S
C1414 C1413 1.369 . S
C1414 C1423 1.429 . S
C1415 C1413 1.419 . S
C1415 C1416 1.363 . S
C1415 H1418 0.929 . S
C1416 C1415 1.363 . S
C1416 C1422 1.428 . S
H1417 C1413 0.930 . S
H1418 C1415 0.929 . S
S1419 N1420 1.613 . S
S1419 N1421 1.610 . S
N1420 S1419 1.613 . S
N1420 C1423 1.350 . S
N1421 S1419 1.610 . S
N1421 C1422 1.351 . S
C1422 C1416 1.428 . S
C1422 N1421 1.351 . S
C1422 C1423 1.434 . S
C1423 C1414 1.429 . S
C1423 N1420 1.350 . S
C1423 C1422 1.434 . S
C1424 C1425 1.369 . S
C1424 C1426 1.419 . S
C1424 H1428 0.930 . S
C1425 C1424 1.369 . S
C1425 C1434 1.429 . S
C1426 C1424 1.419 . S
C1426 C1427 1.363 . S
C1426 H1429 0.929 . S
C1427 C1426 1.363 . S
C1427 C1433 1.428 . S
H1428 C1424 0.930 . S
H1429 C1426 0.929 . S
S1430 N1431 1.613 . S
S1430 N1432 1.610 . S
N1431 S1430 1.613 . S
N1431 C1434 1.350 . S
N1432 S1430 1.610 . S
N1432 C1433 1.351 . S
C1433 C1427 1.428 . S
C1433 N1432 1.351 . S
C1433 C1434 1.434 . S
C1434 C1425 1.429 . S
C1434 N1431 1.350 . S
C1434 C1433 1.434 . S
C1435 C1436 1.369 . S
C1435 C1437 1.419 . S
C1435 H1439 0.930 . S
C1436 C1435 1.369 . S
C1436 C1445 1.429 . S
C1437 C1435 1.419 . S
C1437 C1438 1.363 . S
C1437 H1440 0.929 . S
C1438 C1437 1.363 . S
C1438 C1444 1.428 . S
H1439 C1435 0.930 . S
H1440 C1437 0.929 . S
S1441 N1442 1.613 . S
S1441 N1443 1.610 . S
N1442 S1441 1.613 . S
N1442 C1445 1.350 . S
N1443 S1441 1.610 . S
N1443 C1444 1.351 . S
C1444 C1438 1.428 . S
C1444 N1443 1.351 . S
C1444 C1445 1.434 . S
C1445 C1436 1.429 . S
C1445 N1442 1.350 . S
C1445 C1444 1.434 . S
C1446 C1447 1.369 . S
C1446 C1448 1.419 . S
C1446 H1450 0.930 . S
C1447 C1446 1.369 . S
C1447 C1456 1.429 . S
C1448 C1446 1.419 . S
C1448 C1449 1.363 . S
C1448 H1451 0.929 . S
C1449 C1448 1.363 . S
C1449 C1455 1.428 . S
H1450 C1446 0.930 . S
H1451 C1448 0.929 . S
S1452 N1453 1.613 . S
S1452 N1454 1.610 . S
N1453 S1452 1.613 . S
N1453 C1456 1.350 . S
N1454 S1452 1.610 . S
N1454 C1455 1.351 . S
C1455 C1449 1.428 . S
C1455 N1454 1.351 . S
C1455 C1456 1.434 . S
C1456 C1447 1.429 . S
C1456 N1453 1.350 . S
C1456 C1455 1.434 . S
C1457 C1458 1.369 . S
C1457 C1459 1.419 . S
C1457 H1461 0.930 . S
C1458 C1457 1.369 . S
C1458 C1467 1.429 . S
C1459 C1457 1.419 . S
C1459 C1460 1.363 . S
C1459 H1462 0.929 . S
C1460 C1459 1.363 . S
C1460 C1466 1.428 . S
H1461 C1457 0.930 . S
H1462 C1459 0.929 . S
S1463 N1464 1.613 . S
S1463 N1465 1.610 . S
N1464 S1463 1.613 . S
N1464 C1467 1.350 . S
N1465 S1463 1.610 . S
N1465 C1466 1.351 . S
C1466 C1460 1.428 . S
C1466 N1465 1.351 . S
C1466 C1467 1.434 . S
C1467 C1458 1.429 . S
C1467 N1464 1.350 . S
C1467 C1466 1.434 . S
C1468 C1469 1.369 . S
C1468 C1470 1.419 . S
C1468 H1472 0.930 . S
C1469 C1468 1.369 . S
C1469 C1478 1.429 . S
C1470 C1468 1.419 . S
C1470 C1471 1.363 . S
C1470 H1473 0.929 . S
C1471 C1470 1.363 . S
C1471 C1477 1.428 . S
H1472 C1468 0.930 . S
H1473 C1470 0.929 . S
S1474 N1475 1.613 . S
S1474 N1476 1.610 . S
N1475 S1474 1.613 . S
N1475 C1478 1.350 . S
N1476 S1474 1.610 . S
N1476 C1477 1.351 . S
C1477 C1471 1.428 . S
C1477 N1476 1.351 . S
C1477 C1478 1.434 . S
C1478 C1469 1.429 . S
C1478 N1475 1.350 . S
C1478 C1477 1.434 . S
C1479 C1480 1.369 . S
C1479 C1481 1.419 . S
C1479 H1483 0.930 . S
C1480 C1479 1.369 . S
C1480 C1489 1.429 . S
C1481 C1479 1.419 . S
C1481 C1482 1.363 . S
C1481 H1484 0.929 . S
C1482 C1481 1.363 . S
C1482 C1488 1.428 . S
H1483 C1479 0.930 . S
H1484 C1481 0.929 . S
S1485 N1486 1.613 . S
S1485 N1487 1.610 . S
N1486 S1485 1.613 . S
N1486 C1489 1.350 . S
N1487 S1485 1.610 . S
N1487 C1488 1.351 . S
C1488 C1482 1.428 . S
C1488 N1487 1.351 . S
C1488 C1489 1.434 . S
C1489 C1480 1.429 . S
C1489 N1486 1.350 . S
C1489 C1488 1.434 . S
C1490 C1491 1.369 . S
C1490 C1492 1.419 . S
C1490 H1494 0.930 . S
C1491 C1490 1.369 . S
C1491 C1500 1.429 . S
C1492 C1490 1.419 . S
C1492 C1493 1.363 . S
C1492 H1495 0.929 . S
C1493 C1492 1.363 . S
C1493 C1499 1.428 . S
H1494 C1490 0.930 . S
H1495 C1492 0.929 . S
S1496 N1497 1.613 . S
S1496 N1498 1.610 . S
N1497 S1496 1.613 . S
N1497 C1500 1.350 . S
N1498 S1496 1.610 . S
N1498 C1499 1.351 . S
C1499 C1493 1.428 . S
C1499 N1498 1.351 . S
C1499 C1500 1.434 . S
C1500 C1491 1.429 . S
C1500 N1497 1.350 . S
C1500 C1499 1.434 . S
C1501 C1502 1.369 . S
C1501 C1503 1.419 . S
C1501 H1505 0.930 . S
C1502 C1501 1.369 . S
C1502 C1511 1.429 . S
C1503 C1501 1.419 . S
C1503 C1504 1.363 . S
C1503 H1506 0.929 . S
C1504 C1503 1.363 . S
C1504 C1510 1.428 . S
H1505 C1501 0.930 . S
H1506 C1503 0.929 . S
S1507 N1508 1.613 . S
S1507 N1509 1.610 . S
N1508 S1507 1.613 . S
N1508 C1511 1.350 . S
N1509 S1507 1.610 . S
N1509 C1510 1.351 . S
C1510 C1504 1.428 . S
C1510 N1509 1.351 . S
C1510 C1511 1.434 . S
C1511 C1502 1.429 . S
C1511 N1508 1.350 . S
C1511 C1510 1.434 . S
C1512 C1513 1.369 . S
C1512 C1514 1.419 . S
C1512 H1516 0.930 . S
C1513 C1512 1.369 . S
C1513 C1522 1.429 . S
C1514 C1512 1.419 . S
C1514 C1515 1.363 . S
C1514 H1517 0.929 . S
C1515 C1514 1.363 . S
C1515 C1521 1.428 . S
H1516 C1512 0.930 . S
H1517 C1514 0.929 . S
S1518 N1519 1.613 . S
S1518 N1520 1.610 . S
N1519 S1518 1.613 . S
N1519 C1522 1.350 . S
N1520 S1518 1.610 . S
N1520 C1521 1.351 . S
C1521 C1515 1.428 . S
C1521 N1520 1.351 . S
C1521 C1522 1.434 . S
C1522 C1513 1.429 . S
C1522 N1519 1.350 . S
C1522 C1521 1.434 . S
C1523 C1524 1.369 . S
C1523 C1525 1.419 . S
C1523 H1527 0.930 . S
C1524 C1523 1.369 . S
C1524 C1533 1.429 . S
C1525 C1523 1.419 . S
C1525 C1526 1.363 . S
C1525 H1528 0.929 . S
C1526 C1525 1.363 . S
C1526 C1532 1.428 . S
H1527 C1523 0.930 . S
H1528 C1525 0.929 . S
S1529 N1530 1.613 . S
S1529 N1531 1.610 . S
N1530 S1529 1.613 . S
N1530 C1533 1.350 . S
N1531 S1529 1.610 . S
N1531 C1532 1.351 . S
C1532 C1526 1.428 . S
C1532 N1531 1.351 . S
C1532 C1533 1.434 . S
C1533 C1524 1.429 . S
C1533 N1530 1.350 . S
C1533 C1532 1.434 . S
C1534 C1535 1.369 . S
C1534 C1536 1.419 . S
C1534 H1538 0.930 . S
C1535 C1534 1.369 . S
C1535 C1544 1.429 . S
C1536 C1534 1.419 . S
C1536 C1537 1.363 . S
C1536 H1539 0.929 . S
C1537 C1536 1.363 . S
C1537 C1543 1.428 . S
H1538 C1534 0.930 . S
H1539 C1536 0.929 . S
S1540 N1541 1.613 . S
S1540 N1542 1.610 . S
N1541 S1540 1.613 . S
N1541 C1544 1.350 . S
N1542 S1540 1.610 . S
N1542 C1543 1.351 . S
C1543 C1537 1.428 . S
C1543 N1542 1.351 . S
C1543 C1544 1.434 . S
C1544 C1535 1.429 . S
C1544 N1541 1.350 . S
C1544 C1543 1.434 . S
C1545 C1546 1.369 . S
C1545 C1547 1.419 . S
C1545 H1549 0.930 . S
C1546 C1545 1.369 . S
C1546 C1555 1.429 . S
C1547 C1545 1.419 . S
C1547 C1548 1.363 . S
C1547 H1550 0.929 . S
C1548 C1547 1.363 . S
C1548 C1554 1.428 . S
H1549 C1545 0.930 . S
H1550 C1547 0.929 . S
S1551 N1552 1.613 . S
S1551 N1553 1.610 . S
N1552 S1551 1.613 . S
N1552 C1555 1.350 . S
N1553 S1551 1.610 . S
N1553 C1554 1.351 . S
C1554 C1548 1.428 . S
C1554 N1553 1.351 . S
C1554 C1555 1.434 . S
C1555 C1546 1.429 . S
C1555 N1552 1.350 . S
C1555 C1554 1.434 . S
C1556 C1557 1.369 . S
C1556 C1558 1.419 . S
C1556 H1560 0.930 . S
C1557 C1556 1.369 . S
C1557 C1566 1.429 . S
C1558 C1556 1.419 . S
C1558 C1559 1.363 . S
C1558 H1561 0.929 . S
C1559 C1558 1.363 . S
C1559 C1565 1.428 . S
H1560 C1556 0.930 . S
H1561 C1558 0.929 . S
S1562 N1563 1.613 . S
S1562 N1564 1.610 . S
N1563 S1562 1.613 . S
N1563 C1566 1.350 . S
N1564 S1562 1.610 . S
N1564 C1565 1.351 . S
C1565 C1559 1.428 . S
C1565 N1564 1.351 . S
C1565 C1566 1.434 . S
C1566 C1557 1.429 . S
C1566 N1563 1.350 . S
C1566 C1565 1.434 . S
C1567 C1568 1.369 . S
C1567 C1569 1.419 . S
C1567 H1571 0.930 . S
C1568 C1567 1.369 . S
C1568 C1577 1.429 . S
C1569 C1567 1.419 . S
C1569 C1570 1.363 . S
C1569 H1572 0.929 . S
C1570 C1569 1.363 . S
C1570 C1576 1.428 . S
H1571 C1567 0.930 . S
H1572 C1569 0.929 . S
S1573 N1574 1.613 . S
S1573 N1575 1.610 . S
N1574 S1573 1.613 . S
N1574 C1577 1.350 . S
N1575 S1573 1.610 . S
N1575 C1576 1.351 . S
C1576 C1570 1.428 . S
C1576 N1575 1.351 . S
C1576 C1577 1.434 . S
C1577 C1568 1.429 . S
C1577 N1574 1.350 . S
C1577 C1576 1.434 . S
C1578 C1579 1.369 . S
C1578 C1580 1.419 . S
C1578 H1582 0.930 . S
C1579 C1578 1.369 . S
C1579 C1588 1.429 . S
C1580 C1578 1.419 . S
C1580 C1581 1.363 . S
C1580 H1583 0.929 . S
C1581 C1580 1.363 . S
C1581 C1587 1.428 . S
H1582 C1578 0.930 . S
H1583 C1580 0.929 . S
S1584 N1585 1.613 . S
S1584 N1586 1.610 . S
N1585 S1584 1.613 . S
N1585 C1588 1.350 . S
N1586 S1584 1.610 . S
N1586 C1587 1.351 . S
C1587 C1581 1.428 . S
C1587 N1586 1.351 . S
C1587 C1588 1.434 . S
C1588 C1579 1.429 . S
C1588 N1585 1.350 . S
C1588 C1587 1.434 . S
C1589 C1590 1.369 . S
C1589 C1591 1.419 . S
C1589 H1593 0.930 . S
C1590 C1589 1.369 . S
C1590 C1599 1.429 . S
C1591 C1589 1.419 . S
C1591 C1592 1.363 . S
C1591 H1594 0.929 . S
C1592 C1591 1.363 . S
C1592 C1598 1.428 . S
H1593 C1589 0.930 . S
H1594 C1591 0.929 . S
S1595 N1596 1.613 . S
S1595 N1597 1.610 . S
N1596 S1595 1.613 . S
N1596 C1599 1.350 . S
N1597 S1595 1.610 . S
N1597 C1598 1.351 . S
C1598 C1592 1.428 . S
C1598 N1597 1.351 . S
C1598 C1599 1.434 . S
C1599 C1590 1.429 . S
C1599 N1596 1.350 . S
C1599 C1598 1.434 . S
C1600 C1601 1.369 . S
C1600 C1602 1.419 . S
C1600 H1604 0.930 . S
C1601 C1600 1.369 . S
C1601 C1610 1.429 . S
C1602 C1600 1.419 . S
C1602 C1603 1.363 . S
C1602 H1605 0.929 . S
C1603 C1602 1.363 . S
C1603 C1609 1.428 . S
H1604 C1600 0.930 . S
H1605 C1602 0.929 . S
S1606 N1607 1.613 . S
S1606 N1608 1.610 . S
N1607 S1606 1.613 . S
N1607 C1610 1.350 . S
N1608 S1606 1.610 . S
N1608 C1609 1.351 . S
C1609 C1603 1.428 . S
C1609 N1608 1.351 . S
C1609 C1610 1.434 . S
C1610 C1601 1.429 . S
C1610 N1607 1.350 . S
C1610 C1609 1.434 . S
C1611 C1612 1.369 . S
C1611 C1613 1.419 . S
C1611 H1615 0.930 . S
C1612 C1611 1.369 . S
C1612 C1621 1.429 . S
C1613 C1611 1.419 . S
C1613 C1614 1.363 . S
C1613 H1616 0.929 . S
C1614 C1613 1.363 . S
C1614 C1620 1.428 . S
H1615 C1611 0.930 . S
H1616 C1613 0.929 . S
S1617 N1618 1.613 . S
S1617 N1619 1.610 . S
N1618 S1617 1.613 . S
N1618 C1621 1.350 . S
N1619 S1617 1.610 . S
N1619 C1620 1.351 . S
C1620 C1614 1.428 . S
C1620 N1619 1.351 . S
C1620 C1621 1.434 . S
C1621 C1612 1.429 . S
C1621 N1618 1.350 . S
C1621 C1620 1.434 . S
C1622 C1623 1.369 . S
C1622 C1624 1.419 . S
C1622 H1626 0.930 . S
C1623 C1622 1.369 . S
C1623 C1632 1.429 . S
C1624 C1622 1.419 . S
C1624 C1625 1.363 . S
C1624 H1627 0.929 . S
C1625 C1624 1.363 . S
C1625 C1631 1.428 . S
H1626 C1622 0.930 . S
H1627 C1624 0.929 . S
S1628 N1629 1.613 . S
S1628 N1630 1.610 . S
N1629 S1628 1.613 . S
N1629 C1632 1.350 . S
N1630 S1628 1.610 . S
N1630 C1631 1.351 . S
C1631 C1625 1.428 . S
C1631 N1630 1.351 . S
C1631 C1632 1.434 . S
C1632 C1623 1.429 . S
C1632 N1629 1.350 . S
C1632 C1631 1.434 . S
C1633 C1634 1.369 . S
C1633 C1635 1.419 . S
C1633 H1637 0.930 . S
C1634 C1633 1.369 . S
C1634 C1643 1.429 . S
C1635 C1633 1.419 . S
C1635 C1636 1.363 . S
C1635 H1638 0.929 . S
C1636 C1635 1.363 . S
C1636 C1642 1.428 . S
H1637 C1633 0.930 . S
H1638 C1635 0.929 . S
S1639 N1640 1.613 . S
S1639 N1641 1.610 . S
N1640 S1639 1.613 . S
N1640 C1643 1.350 . S
N1641 S1639 1.610 . S
N1641 C1642 1.351 . S
C1642 C1636 1.428 . S
C1642 N1641 1.351 . S
C1642 C1643 1.434 . S
C1643 C1634 1.429 . S
C1643 N1640 1.350 . S
C1643 C1642 1.434 . S
C1644 C1645 1.369 . S
C1644 C1646 1.419 . S
C1644 H1648 0.930 . S
C1645 C1644 1.369 . S
C1645 C1654 1.429 . S
C1646 C1644 1.419 . S
C1646 C1647 1.363 . S
C1646 H1649 0.929 . S
C1647 C1646 1.363 . S
C1647 C1653 1.428 . S
H1648 C1644 0.930 . S
H1649 C1646 0.929 . S
S1650 N1651 1.613 . S
S1650 N1652 1.610 . S
N1651 S1650 1.613 . S
N1651 C1654 1.350 . S
N1652 S1650 1.610 . S
N1652 C1653 1.351 . S
C1653 C1647 1.428 . S
C1653 N1652 1.351 . S
C1653 C1654 1.434 . S
C1654 C1645 1.429 . S
C1654 N1651 1.350 . S
C1654 C1653 1.434 . S
C1655 C1656 1.369 . S
C1655 C1657 1.419 . S
C1655 H1659 0.930 . S
C1656 C1655 1.369 . S
C1656 C1665 1.429 . S
C1657 C1655 1.419 . S
C1657 C1658 1.363 . S
C1657 H1660 0.929 . S
C1658 C1657 1.363 . S
C1658 C1664 1.428 . S
H1659 C1655 0.930 . S
H1660 C1657 0.929 . S
S1661 N1662 1.613 . S
S1661 N1663 1.610 . S
N1662 S1661 1.613 . S
N1662 C1665 1.350 . S
N1663 S1661 1.610 . S
N1663 C1664 1.351 . S
C1664 C1658 1.428 . S
C1664 N1663 1.351 . S
C1664 C1665 1.434 . S
C1665 C1656 1.429 . S
C1665 N1662 1.350 . S
C1665 C1664 1.434 . S
C1666 C1667 1.369 . S
C1666 C1668 1.419 . S
C1666 H1670 0.930 . S
C1667 C1666 1.369 . S
C1667 C1676 1.429 . S
C1668 C1666 1.419 . S
C1668 C1669 1.363 . S
C1668 H1671 0.929 . S
C1669 C1668 1.363 . S
C1669 C1675 1.428 . S
H1670 C1666 0.930 . S
H1671 C1668 0.929 . S
S1672 N1673 1.613 . S
S1672 N1674 1.610 . S
N1673 S1672 1.613 . S
N1673 C1676 1.350 . S
N1674 S1672 1.610 . S
N1674 C1675 1.351 . S
C1675 C1669 1.428 . S
C1675 N1674 1.351 . S
C1675 C1676 1.434 . S
C1676 C1667 1.429 . S
C1676 N1673 1.350 . S
C1676 C1675 1.434 . S
C1677 C1678 1.369 . S
C1677 C1679 1.419 . S
C1677 H1681 0.930 . S
C1678 C1677 1.369 . S
C1678 C1687 1.429 . S
C1679 C1677 1.419 . S
C1679 C1680 1.363 . S
C1679 H1682 0.929 . S
C1680 C1679 1.363 . S
C1680 C1686 1.428 . S
H1681 C1677 0.930 . S
H1682 C1679 0.929 . S
S1683 N1684 1.613 . S
S1683 N1685 1.610 . S
N1684 S1683 1.613 . S
N1684 C1687 1.350 . S
N1685 S1683 1.610 . S
N1685 C1686 1.351 . S
C1686 C1680 1.428 . S
C1686 N1685 1.351 . S
C1686 C1687 1.434 . S
C1687 C1678 1.429 . S
C1687 N1684 1.350 . S
C1687 C1686 1.434 . S
C1688 C1689 1.369 . S
C1688 C1690 1.419 . S
C1688 H1692 0.930 . S
C1689 C1688 1.369 . S
C1689 C1698 1.429 . S
C1690 C1688 1.419 . S
C1690 C1691 1.363 . S
C1690 H1693 0.929 . S
C1691 C1690 1.363 . S
C1691 C1697 1.428 . S
H1692 C1688 0.930 . S
H1693 C1690 0.929 . S
S1694 N1695 1.613 . S
S1694 N1696 1.610 . S
N1695 S1694 1.613 . S
N1695 C1698 1.350 . S
N1696 S1694 1.610 . S
N1696 C1697 1.351 . S
C1697 C1691 1.428 . S
C1697 N1696 1.351 . S
C1697 C1698 1.434 . S
C1698 C1689 1.429 . S
C1698 N1695 1.350 . S
C1698 C1697 1.434 . S
C1699 C1700 1.369 . S
C1699 C1701 1.419 . S
C1699 H1703 0.930 . S
C1700 C1699 1.369 . S
C1700 C1709 1.429 . S
C1701 C1699 1.419 . S
C1701 C1702 1.363 . S
C1701 H1704 0.929 . S
C1702 C1701 1.363 . S
C1702 C1708 1.428 . S
H1703 C1699 0.930 . S
H1704 C1701 0.929 . S
S1705 N1706 1.613 . S
S1705 N1707 1.610 . S
N1706 S1705 1.613 . S
N1706 C1709 1.350 . S
N1707 S1705 1.610 . S
N1707 C1708 1.351 . S
C1708 C1702 1.428 . S
C1708 N1707 1.351 . S
C1708 C1709 1.434 . S
C1709 C1700 1.429 . S
C1709 N1706 1.350 . S
C1709 C1708 1.434 . S
C1710 C1711 1.369 . S
C1710 C1712 1.419 . S
C1710 H1714 0.930 . S
C1711 C1710 1.369 . S
C1711 C1720 1.429 . S
C1712 C1710 1.419 . S
C1712 C1713 1.363 . S
C1712 H1715 0.929 . S
C1713 C1712 1.363 . S
C1713 C1719 1.428 . S
H1714 C1710 0.930 . S
H1715 C1712 0.929 . S
S1716 N1717 1.613 . S
S1716 N1718 1.610 . S
N1717 S1716 1.613 . S
N1717 C1720 1.350 . S
N1718 S1716 1.610 . S
N1718 C1719 1.351 . S
C1719 C1713 1.428 . S
C1719 N1718 1.351 . S
C1719 C1720 1.434 . S
C1720 C1711 1.429 . S
C1720 N1717 1.350 . S
C1720 C1719 1.434 . S
C1721 C1722 1.369 . S
C1721 C1723 1.419 . S
C1721 H1725 0.930 . S
C1722 C1721 1.369 . S
C1722 C1731 1.429 . S
C1723 C1721 1.419 . S
C1723 C1724 1.363 . S
C1723 H1726 0.929 . S
C1724 C1723 1.363 . S
C1724 C1730 1.428 . S
H1725 C1721 0.930 . S
H1726 C1723 0.929 . S
S1727 N1728 1.613 . S
S1727 N1729 1.610 . S
N1728 S1727 1.613 . S
N1728 C1731 1.350 . S
N1729 S1727 1.610 . S
N1729 C1730 1.351 . S
C1730 C1724 1.428 . S
C1730 N1729 1.351 . S
C1730 C1731 1.434 . S
C1731 C1722 1.429 . S
C1731 N1728 1.350 . S
C1731 C1730 1.434 . S
C1732 C1733 1.369 . S
C1732 C1734 1.419 . S
C1732 H1736 0.930 . S
C1733 C1732 1.369 . S
C1733 C1742 1.429 . S
C1734 C1732 1.419 . S
C1734 C1735 1.363 . S
C1734 H1737 0.929 . S
C1735 C1734 1.363 . S
C1735 C1741 1.428 . S
H1736 C1732 0.930 . S
H1737 C1734 0.929 . S
S1738 N1739 1.613 . S
S1738 N1740 1.610 . S
N1739 S1738 1.613 . S
N1739 C1742 1.350 . S
N1740 S1738 1.610 . S
N1740 C1741 1.351 . S
C1741 C1735 1.428 . S
C1741 N1740 1.351 . S
C1741 C1742 1.434 . S
C1742 C1733 1.429 . S
C1742 N1739 1.350 . S
C1742 C1741 1.434 . S
C1743 C1744 1.369 . S
C1743 C1745 1.419 . S
C1743 H1747 0.930 . S
C1744 C1743 1.369 . S
C1744 C1753 1.429 . S
C1745 C1743 1.419 . S
C1745 C1746 1.363 . S
C1745 H1748 0.929 . S
C1746 C1745 1.363 . S
C1746 C1752 1.428 . S
H1747 C1743 0.930 . S
H1748 C1745 0.929 . S
S1749 N1750 1.613 . S
S1749 N1751 1.610 . S
N1750 S1749 1.613 . S
N1750 C1753 1.350 . S
N1751 S1749 1.610 . S
N1751 C1752 1.351 . S
C1752 C1746 1.428 . S
C1752 N1751 1.351 . S
C1752 C1753 1.434 . S
C1753 C1744 1.429 . S
C1753 N1750 1.350 . S
C1753 C1752 1.434 . S
C1754 C1755 1.369 . S
C1754 C1756 1.419 . S
C1754 H1758 0.930 . S
C1755 C1754 1.369 . S
C1755 C1764 1.429 . S
C1756 C1754 1.419 . S
C1756 C1757 1.363 . S
C1756 H1759 0.929 . S
C1757 C1756 1.363 . S
C1757 C1763 1.428 . S
H1758 C1754 0.930 . S
H1759 C1756 0.929 . S
S1760 N1761 1.613 . S
S1760 N1762 1.610 . S
N1761 S1760 1.613 . S
N1761 C1764 1.350 . S
N1762 S1760 1.610 . S
N1762 C1763 1.351 . S
C1763 C1757 1.428 . S
C1763 N1762 1.351 . S
C1763 C1764 1.434 . S
C1764 C1755 1.429 . S
C1764 N1761 1.350 . S
C1764 C1763 1.434 . S
C1765 C1766 1.369 . S
C1765 C1767 1.419 . S
C1765 H1769 0.930 . S
C1766 C1765 1.369 . S
C1766 C1775 1.429 . S
C1767 C1765 1.419 . S
C1767 C1768 1.363 . S
C1767 H1770 0.929 . S
C1768 C1767 1.363 . S
C1768 C1774 1.428 . S
H1769 C1765 0.930 . S
H1770 C1767 0.929 . S
S1771 N1772 1.613 . S
S1771 N1773 1.610 . S
N1772 S1771 1.613 . S
N1772 C1775 1.350 . S
N1773 S1771 1.610 . S
N1773 C1774 1.351 . S
C1774 C1768 1.428 . S
C1774 N1773 1.351 . S
C1774 C1775 1.434 . S
C1775 C1766 1.429 . S
C1775 N1772 1.350 . S
C1775 C1774 1.434 . S
C1776 C1777 1.369 . S
C1776 C1778 1.419 . S
C1776 H1780 0.930 . S
C1777 C1776 1.369 . S
C1777 C1786 1.429 . S
C1778 C1776 1.419 . S
C1778 C1779 1.363 . S
C1778 H1781 0.929 . S
C1779 C1778 1.363 . S
C1779 C1785 1.428 . S
H1780 C1776 0.930 . S
H1781 C1778 0.929 . S
S1782 N1783 1.613 . S
S1782 N1784 1.610 . S
N1783 S1782 1.613 . S
N1783 C1786 1.350 . S
N1784 S1782 1.610 . S
N1784 C1785 1.351 . S
C1785 C1779 1.428 . S
C1785 N1784 1.351 . S
C1785 C1786 1.434 . S
C1786 C1777 1.429 . S
C1786 N1783 1.350 . S
C1786 C1785 1.434 . S
C1787 C1788 1.369 . S
C1787 C1789 1.419 . S
C1787 H1791 0.930 . S
C1788 C1787 1.369 . S
C1788 C1797 1.429 . S
C1789 C1787 1.419 . S
C1789 C1790 1.363 . S
C1789 H1792 0.929 . S
C1790 C1789 1.363 . S
C1790 C1796 1.428 . S
H1791 C1787 0.930 . S
H1792 C1789 0.929 . S
S1793 N1794 1.613 . S
S1793 N1795 1.610 . S
N1794 S1793 1.613 . S
N1794 C1797 1.350 . S
N1795 S1793 1.610 . S
N1795 C1796 1.351 . S
C1796 C1790 1.428 . S
C1796 N1795 1.351 . S
C1796 C1797 1.434 . S
C1797 C1788 1.429 . S
C1797 N1794 1.350 . S
C1797 C1796 1.434 . S
C1798 C1799 1.369 . S
C1798 C1800 1.419 . S
C1798 H1802 0.930 . S
C1799 C1798 1.369 . S
C1799 C1808 1.429 . S
C1800 C1798 1.419 . S
C1800 C1801 1.363 . S
C1800 H1803 0.929 . S
C1801 C1800 1.363 . S
C1801 C1807 1.428 . S
H1802 C1798 0.930 . S
H1803 C1800 0.929 . S
S1804 N1805 1.613 . S
S1804 N1806 1.610 . S
N1805 S1804 1.613 . S
N1805 C1808 1.350 . S
N1806 S1804 1.610 . S
N1806 C1807 1.351 . S
C1807 C1801 1.428 . S
C1807 N1806 1.351 . S
C1807 C1808 1.434 . S
C1808 C1799 1.429 . S
C1808 N1805 1.350 . S
C1808 C1807 1.434 . S
C1809 C1810 1.369 . S
C1809 C1811 1.419 . S
C1809 H1813 0.930 . S
C1810 C1809 1.369 . S
C1810 C1819 1.429 . S
C1811 C1809 1.419 . S
C1811 C1812 1.363 . S
C1811 H1814 0.929 . S
C1812 C1811 1.363 . S
C1812 C1818 1.428 . S
H1813 C1809 0.930 . S
H1814 C1811 0.929 . S
S1815 N1816 1.613 . S
S1815 N1817 1.610 . S
N1816 S1815 1.613 . S
N1816 C1819 1.350 . S
N1817 S1815 1.610 . S
N1817 C1818 1.351 . S
C1818 C1812 1.428 . S
C1818 N1817 1.351 . S
C1818 C1819 1.434 . S
C1819 C1810 1.429 . S
C1819 N1816 1.350 . S
C1819 C1818 1.434 . S
C1820 C1821 1.369 . S
C1820 C1822 1.419 . S
C1820 H1824 0.930 . S
C1821 C1820 1.369 . S
C1821 C1830 1.429 . S
C1822 C1820 1.419 . S
C1822 C1823 1.363 . S
C1822 H1825 0.929 . S
C1823 C1822 1.363 . S
C1823 C1829 1.428 . S
H1824 C1820 0.930 . S
H1825 C1822 0.929 . S
S1826 N1827 1.613 . S
S1826 N1828 1.610 . S
N1827 S1826 1.613 . S
N1827 C1830 1.350 . S
N1828 S1826 1.610 . S
N1828 C1829 1.351 . S
C1829 C1823 1.428 . S
C1829 N1828 1.351 . S
C1829 C1830 1.434 . S
C1830 C1821 1.429 . S
C1830 N1827 1.350 . S
C1830 C1829 1.434 . S
C1831 C1832 1.369 . S
C1831 C1833 1.419 . S
C1831 H1835 0.930 . S
C1832 C1831 1.369 . S
C1832 C1841 1.429 . S
C1833 C1831 1.419 . S
C1833 C1834 1.363 . S
C1833 H1836 0.929 . S
C1834 C1833 1.363 . S
C1834 C1840 1.428 . S
H1835 C1831 0.930 . S
H1836 C1833 0.929 . S
S1837 N1838 1.613 . S
S1837 N1839 1.610 . S
N1838 S1837 1.613 . S
N1838 C1841 1.350 . S
N1839 S1837 1.610 . S
N1839 C1840 1.351 . S
C1840 C1834 1.428 . S
C1840 N1839 1.351 . S
C1840 C1841 1.434 . S
C1841 C1832 1.429 . S
C1841 N1838 1.350 . S
C1841 C1840 1.434 . S
C1842 C1843 1.369 . S
C1842 C1844 1.419 . S
C1842 H1846 0.930 . S
C1843 C1842 1.369 . S
C1843 C1852 1.429 . S
C1844 C1842 1.419 . S
C1844 C1845 1.363 . S
C1844 H1847 0.929 . S
C1845 C1844 1.363 . S
C1845 C1851 1.428 . S
H1846 C1842 0.930 . S
H1847 C1844 0.929 . S
S1848 N1849 1.613 . S
S1848 N1850 1.610 . S
N1849 S1848 1.613 . S
N1849 C1852 1.350 . S
N1850 S1848 1.610 . S
N1850 C1851 1.351 . S
C1851 C1845 1.428 . S
C1851 N1850 1.351 . S
C1851 C1852 1.434 . S
C1852 C1843 1.429 . S
C1852 N1849 1.350 . S
C1852 C1851 1.434 . S
C1853 C1854 1.369 . S
C1853 C1855 1.419 . S
C1853 H1857 0.930 . S
C1854 C1853 1.369 . S
C1854 C1863 1.429 . S
C1855 C1853 1.419 . S
C1855 C1856 1.363 . S
C1855 H1858 0.929 . S
C1856 C1855 1.363 . S
C1856 C1862 1.428 . S
H1857 C1853 0.930 . S
H1858 C1855 0.929 . S
S1859 N1860 1.613 . S
S1859 N1861 1.610 . S
N1860 S1859 1.613 . S
N1860 C1863 1.350 . S
N1861 S1859 1.610 . S
N1861 C1862 1.351 . S
C1862 C1856 1.428 . S
C1862 N1861 1.351 . S
C1862 C1863 1.434 . S
C1863 C1854 1.429 . S
C1863 N1860 1.350 . S
C1863 C1862 1.434 . S
C1864 C1865 1.369 . S
C1864 C1866 1.419 . S
C1864 H1868 0.930 . S
C1865 C1864 1.369 . S
C1865 C1874 1.429 . S
C1866 C1864 1.419 . S
C1866 C1867 1.363 . S
C1866 H1869 0.929 . S
C1867 C1866 1.363 . S
C1867 C1873 1.428 . S
H1868 C1864 0.930 . S
H1869 C1866 0.929 . S
S1870 N1871 1.613 . S
S1870 N1872 1.610 . S
N1871 S1870 1.613 . S
N1871 C1874 1.350 . S
N1872 S1870 1.610 . S
N1872 C1873 1.351 . S
C1873 C1867 1.428 . S
C1873 N1872 1.351 . S
C1873 C1874 1.434 . S
C1874 C1865 1.429 . S
C1874 N1871 1.350 . S
C1874 C1873 1.434 . S
C1875 C1876 1.369 . S
C1875 C1877 1.419 . S
C1875 H1879 0.930 . S
C1876 C1875 1.369 . S
C1876 C1885 1.429 . S
C1877 C1875 1.419 . S
C1877 C1878 1.363 . S
C1877 H1880 0.929 . S
C1878 C1877 1.363 . S
C1878 C1884 1.428 . S
H1879 C1875 0.930 . S
H1880 C1877 0.929 . S
S1881 N1882 1.613 . S
S1881 N1883 1.610 . S
N1882 S1881 1.613 . S
N1882 C1885 1.350 . S
N1883 S1881 1.610 . S
N1883 C1884 1.351 . S
C1884 C1878 1.428 . S
C1884 N1883 1.351 . S
C1884 C1885 1.434 . S
C1885 C1876 1.429 . S
C1885 N1882 1.350 . S
C1885 C1884 1.434 . S
C1886 C1887 1.369 . S
C1886 C1888 1.419 . S
C1886 H1890 0.930 . S
C1887 C1886 1.369 . S
C1887 C1896 1.429 . S
C1888 C1886 1.419 . S
C1888 C1889 1.363 . S
C1888 H1891 0.929 . S
C1889 C1888 1.363 . S
C1889 C1895 1.428 . S
H1890 C1886 0.930 . S
H1891 C1888 0.929 . S
S1892 N1893 1.613 . S
S1892 N1894 1.610 . S
N1893 S1892 1.613 . S
N1893 C1896 1.350 . S
N1894 S1892 1.610 . S
N1894 C1895 1.351 . S
C1895 C1889 1.428 . S
C1895 N1894 1.351 . S
C1895 C1896 1.434 . S
C1896 C1887 1.429 . S
C1896 N1893 1.350 . S
C1896 C1895 1.434 . S
C1897 C1898 1.369 . S
C1897 C1899 1.419 . S
C1897 H1901 0.930 . S
C1898 C1897 1.369 . S
C1898 C1907 1.429 . S
C1899 C1897 1.419 . S
C1899 C1900 1.363 . S
C1899 H1902 0.929 . S
C1900 C1899 1.363 . S
C1900 C1906 1.428 . S
H1901 C1897 0.930 . S
H1902 C1899 0.929 . S
S1903 N1904 1.613 . S
S1903 N1905 1.610 . S
N1904 S1903 1.613 . S
N1904 C1907 1.350 . S
N1905 S1903 1.610 . S
N1905 C1906 1.351 . S
C1906 C1900 1.428 . S
C1906 N1905 1.351 . S
C1906 C1907 1.434 . S
C1907 C1898 1.429 . S
C1907 N1904 1.350 . S
C1907 C1906 1.434 . S
C1908 C1909 1.369 . S
C1908 C1910 1.419 . S
C1908 H1912 0.930 . S
C1909 C1908 1.369 . S
C1909 C1918 1.429 . S
C1910 C1908 1.419 . S
C1910 C1911 1.363 . S
C1910 H1913 0.929 . S
C1911 C1910 1.363 . S
C1911 C1917 1.428 . S
H1912 C1908 0.930 . S
H1913 C1910 0.929 . S
S1914 N1915 1.613 . S
S1914 N1916 1.610 . S
N1915 S1914 1.613 . S
N1915 C1918 1.350 . S
N1916 S1914 1.610 . S
N1916 C1917 1.351 . S
C1917 C1911 1.428 . S
C1917 N1916 1.351 . S
C1917 C1918 1.434 . S
C1918 C1909 1.429 . S
C1918 N1915 1.350 . S
C1918 C1917 1.434 . S
C1919 C1920 1.369 . S
C1919 C1921 1.419 . S
C1919 H1923 0.930 . S
C1920 C1919 1.369 . S
C1920 C1929 1.429 . S
C1921 C1919 1.419 . S
C1921 C1922 1.363 . S
C1921 H1924 0.929 . S
C1922 C1921 1.363 . S
C1922 C1928 1.428 . S
H1923 C1919 0.930 . S
H1924 C1921 0.929 . S
S1925 N1926 1.613 . S
S1925 N1927 1.610 . S
N1926 S1925 1.613 . S
N1926 C1929 1.350 . S
N1927 S1925 1.610 . S
N1927 C1928 1.351 . S
C1928 C1922 1.428 . S
C1928 N1927 1.351 . S
C1928 C1929 1.434 . S
C1929 C1920 1.429 . S
C1929 N1926 1.350 . S
C1929 C1928 1.434 . S
C1930 C1931 1.369 . S
C1930 C1932 1.419 . S
C1930 H1934 0.930 . S
C1931 C1930 1.369 . S
C1931 C1940 1.429 . S
C1932 C1930 1.419 . S
C1932 C1933 1.363 . S
C1932 H1935 0.929 . S
C1933 C1932 1.363 . S
C1933 C1939 1.428 . S
H1934 C1930 0.930 . S
H1935 C1932 0.929 . S
S1936 N1937 1.613 . S
S1936 N1938 1.610 . S
N1937 S1936 1.613 . S
N1937 C1940 1.350 . S
N1938 S1936 1.610 . S
N1938 C1939 1.351 . S
C1939 C1933 1.428 . S
C1939 N1938 1.351 . S
C1939 C1940 1.434 . S
C1940 C1931 1.429 . S
C1940 N1937 1.350 . S
C1940 C1939 1.434 . S
C1941 C1942 1.369 . S
C1941 C1943 1.419 . S
C1941 H1945 0.930 . S
C1942 C1941 1.369 . S
C1942 C1951 1.429 . S
C1943 C1941 1.419 . S
C1943 C1944 1.363 . S
C1943 H1946 0.929 . S
C1944 C1943 1.363 . S
C1944 C1950 1.428 . S
H1945 C1941 0.930 . S
H1946 C1943 0.929 . S
S1947 N1948 1.613 . S
S1947 N1949 1.610 . S
N1948 S1947 1.613 . S
N1948 C1951 1.350 . S
N1949 S1947 1.610 . S
N1949 C1950 1.351 . S
C1950 C1944 1.428 . S
C1950 N1949 1.351 . S
C1950 C1951 1.434 . S
C1951 C1942 1.429 . S
C1951 N1948 1.350 . S
C1951 C1950 1.434 . S
C1952 C1953 1.369 . S
C1952 C1954 1.419 . S
C1952 H1956 0.930 . S
C1953 C1952 1.369 . S
C1953 C1962 1.429 . S
C1954 C1952 1.419 . S
C1954 C1955 1.363 . S
C1954 H1957 0.929 . S
C1955 C1954 1.363 . S
C1955 C1961 1.428 . S
H1956 C1952 0.930 . S
H1957 C1954 0.929 . S
S1958 N1959 1.613 . S
S1958 N1960 1.610 . S
N1959 S1958 1.613 . S
N1959 C1962 1.350 . S
N1960 S1958 1.610 . S
N1960 C1961 1.351 . S
C1961 C1955 1.428 . S
C1961 N1960 1.351 . S
C1961 C1962 1.434 . S
C1962 C1953 1.429 . S
C1962 N1959 1.350 . S
C1962 C1961 1.434 . S
C1963 C1964 1.369 . S
C1963 C1965 1.419 . S
C1963 H1967 0.930 . S
C1964 C1963 1.369 . S
C1964 C1973 1.429 . S
C1965 C1963 1.419 . S
C1965 C1966 1.363 . S
C1965 H1968 0.929 . S
C1966 C1965 1.363 . S
C1966 C1972 1.428 . S
H1967 C1963 0.930 . S
H1968 C1965 0.929 . S
S1969 N1970 1.613 . S
S1969 N1971 1.610 . S
N1970 S1969 1.613 . S
N1970 C1973 1.350 . S
N1971 S1969 1.610 . S
N1971 C1972 1.351 . S
C1972 C1966 1.428 . S
C1972 N1971 1.351 . S
C1972 C1973 1.434 . S
C1973 C1964 1.429 . S
C1973 N1970 1.350 . S
C1973 C1972 1.434 . S
C1974 C1975 1.369 . S
C1974 C1976 1.419 . S
C1974 H1978 0.930 . S
C1975 C1974 1.369 . S
C1975 C1984 1.429 . S
C1976 C1974 1.419 . S
C1976 C1977 1.363 . S
C1976 H1979 0.929 . S
C1977 C1976 1.363 . S
C1977 C1983 1.428 . S
H1978 C1974 0.930 . S
H1979 C1976 0.929 . S
S1980 N1981 1.613 . S
S1980 N1982 1.610 . S
N1981 S1980 1.613 . S
N1981 C1984 1.350 . S
N1982 S1980 1.610 . S
N1982 C1983 1.351 . S
C1983 C1977 1.428 . S
C1983 N1982 1.351 . S
C1983 C1984 1.434 . S
C1984 C1975 1.429 . S
C1984 N1981 1.350 . S
C1984 C1983 1.434 . S
C1985 C1986 1.369 . S
C1985 C1987 1.419 . S
C1985 H1989 0.930 . S
C1986 C1985 1.369 . S
C1986 C1995 1.429 . S
C1987 C1985 1.419 . S
C1987 C1988 1.363 . S
C1987 H1990 0.929 . S
C1988 C1987 1.363 . S
C1988 C1994 1.428 . S
H1989 C1985 0.930 . S
H1990 C1987 0.929 . S
S1991 N1992 1.613 . S
S1991 N1993 1.610 . S
N1992 S1991 1.613 . S
N1992 C1995 1.350 . S
N1993 S1991 1.610 . S
N1993 C1994 1.351 . S
C1994 C1988 1.428 . S
C1994 N1993 1.351 . S
C1994 C1995 1.434 . S
C1995 C1986 1.429 . S
C1995 N1992 1.350 . S
C1995 C1994 1.434 . S
C1996 C1997 1.369 . S
C1996 C1998 1.419 . S
C1996 H2000 0.930 . S
C1997 C1996 1.369 . S
C1997 C2006 1.429 . S
C1998 C1996 1.419 . S
C1998 C1999 1.363 . S
C1998 H2001 0.929 . S
C1999 C1998 1.363 . S
C1999 C2005 1.428 . S
H2000 C1996 0.930 . S
H2001 C1998 0.929 . S
S2002 N2003 1.613 . S
S2002 N2004 1.610 . S
N2003 S2002 1.613 . S
N2003 C2006 1.350 . S
N2004 S2002 1.610 . S
N2004 C2005 1.351 . S
C2005 C1999 1.428 . S
C2005 N2004 1.351 . S
C2005 C2006 1.434 . S
C2006 C1997 1.429 . S
C2006 N2003 1.350 . S
C2006 C2005 1.434 . S
C2007 C2008 1.369 . S
C2007 C2009 1.419 . S
C2007 H2011 0.930 . S
C2008 C2007 1.369 . S
C2008 C2017 1.429 . S
C2009 C2007 1.419 . S
C2009 C2010 1.363 . S
C2009 H2012 0.929 . S
C2010 C2009 1.363 . S
C2010 C2016 1.428 . S
H2011 C2007 0.930 . S
H2012 C2009 0.929 . S
S2013 N2014 1.613 . S
S2013 N2015 1.610 . S
N2014 S2013 1.613 . S
N2014 C2017 1.350 . S
N2015 S2013 1.610 . S
N2015 C2016 1.351 . S
C2016 C2010 1.428 . S
C2016 N2015 1.351 . S
C2016 C2017 1.434 . S
C2017 C2008 1.429 . S
C2017 N2014 1.350 . S
C2017 C2016 1.434 . S
C2018 C2019 1.369 . S
C2018 C2020 1.419 . S
C2018 H2022 0.930 . S
C2019 C2018 1.369 . S
C2019 C2028 1.429 . S
C2020 C2018 1.419 . S
C2020 C2021 1.363 . S
C2020 H2023 0.929 . S
C2021 C2020 1.363 . S
C2021 C2027 1.428 . S
H2022 C2018 0.930 . S
H2023 C2020 0.929 . S
S2024 N2025 1.613 . S
S2024 N2026 1.610 . S
N2025 S2024 1.613 . S
N2025 C2028 1.350 . S
N2026 S2024 1.610 . S
N2026 C2027 1.351 . S
C2027 C2021 1.428 . S
C2027 N2026 1.351 . S
C2027 C2028 1.434 . S
C2028 C2019 1.429 . S
C2028 N2025 1.350 . S
C2028 C2027 1.434 . S
C2029 C2030 1.369 . S
C2029 C2031 1.419 . S
C2029 H2033 0.930 . S
C2030 C2029 1.369 . S
C2030 C2039 1.429 . S
C2031 C2029 1.419 . S
C2031 C2032 1.363 . S
C2031 H2034 0.929 . S
C2032 C2031 1.363 . S
C2032 C2038 1.428 . S
H2033 C2029 0.930 . S
H2034 C2031 0.929 . S
S2035 N2036 1.613 . S
S2035 N2037 1.610 . S
N2036 S2035 1.613 . S
N2036 C2039 1.350 . S
N2037 S2035 1.610 . S
N2037 C2038 1.351 . S
C2038 C2032 1.428 . S
C2038 N2037 1.351 . S
C2038 C2039 1.434 . S
C2039 C2030 1.429 . S
C2039 N2036 1.350 . S
C2039 C2038 1.434 . S
C2040 C2041 1.369 . S
C2040 C2042 1.419 . S
C2040 H2044 0.930 . S
C2041 C2040 1.369 . S
C2041 C2050 1.429 . S
C2042 C2040 1.419 . S
C2042 C2043 1.363 . S
C2042 H2045 0.929 . S
C2043 C2042 1.363 . S
C2043 C2049 1.428 . S
H2044 C2040 0.930 . S
H2045 C2042 0.929 . S
S2046 N2047 1.613 . S
S2046 N2048 1.610 . S
N2047 S2046 1.613 . S
N2047 C2050 1.350 . S
N2048 S2046 1.610 . S
N2048 C2049 1.351 . S
C2049 C2043 1.428 . S
C2049 N2048 1.351 . S
C2049 C2050 1.434 . S
C2050 C2041 1.429 . S
C2050 N2047 1.350 . S
C2050 C2049 1.434 . S
C2051 C2052 1.369 . S
C2051 C2053 1.419 . S
C2051 H2055 0.930 . S
C2052 C2051 1.369 . S
C2052 C2061 1.429 . S
C2053 C2051 1.419 . S
C2053 C2054 1.363 . S
C2053 H2056 0.929 . S
C2054 C2053 1.363 . S
C2054 C2060 1.428 . S
H2055 C2051 0.930 . S
H2056 C2053 0.929 . S
S2057 N2058 1.613 . S
S2057 N2059 1.610 . S
N2058 S2057 1.613 . S
N2058 C2061 1.350 . S
N2059 S2057 1.610 . S
N2059 C2060 1.351 . S
C2060 C2054 1.428 . S
C2060 N2059 1.351 . S
C2060 C2061 1.434 . S
C2061 C2052 1.429 . S
C2061 N2058 1.350 . S
C2061 C2060 1.434 . S
C2062 C2063 1.369 . S
C2062 C2064 1.419 . S
C2062 H2066 0.930 . S
C2063 C2062 1.369 . S
C2063 C2072 1.429 . S
C2064 C2062 1.419 . S
C2064 C2065 1.363 . S
C2064 H2067 0.929 . S
C2065 C2064 1.363 . S
C2065 C2071 1.428 . S
H2066 C2062 0.930 . S
H2067 C2064 0.929 . S
S2068 N2069 1.613 . S
S2068 N2070 1.610 . S
N2069 S2068 1.613 . S
N2069 C2072 1.350 . S
N2070 S2068 1.610 . S
N2070 C2071 1.351 . S
C2071 C2065 1.428 . S
C2071 N2070 1.351 . S
C2071 C2072 1.434 . S
C2072 C2063 1.429 . S
C2072 N2069 1.350 . S
C2072 C2071 1.434 . S
C2073 C2074 1.369 . S
C2073 C2075 1.419 . S
C2073 H2077 0.930 . S
C2074 C2073 1.369 . S
C2074 C2083 1.429 . S
C2075 C2073 1.419 . S
C2075 C2076 1.363 . S
C2075 H2078 0.929 . S
C2076 C2075 1.363 . S
C2076 C2082 1.428 . S
H2077 C2073 0.930 . S
H2078 C2075 0.929 . S
S2079 N2080 1.613 . S
S2079 N2081 1.610 . S
N2080 S2079 1.613 . S
N2080 C2083 1.350 . S
N2081 S2079 1.610 . S
N2081 C2082 1.351 . S
C2082 C2076 1.428 . S
C2082 N2081 1.351 . S
C2082 C2083 1.434 . S
C2083 C2074 1.429 . S
C2083 N2080 1.350 . S
C2083 C2082 1.434 . S
C2084 C2085 1.369 . S
C2084 C2086 1.419 . S
C2084 H2088 0.930 . S
C2085 C2084 1.369 . S
C2085 C2094 1.429 . S
C2086 C2084 1.419 . S
C2086 C2087 1.363 . S
C2086 H2089 0.929 . S
C2087 C2086 1.363 . S
C2087 C2093 1.428 . S
H2088 C2084 0.930 . S
H2089 C2086 0.929 . S
S2090 N2091 1.613 . S
S2090 N2092 1.610 . S
N2091 S2090 1.613 . S
N2091 C2094 1.350 . S
N2092 S2090 1.610 . S
N2092 C2093 1.351 . S
C2093 C2087 1.428 . S
C2093 N2092 1.351 . S
C2093 C2094 1.434 . S
C2094 C2085 1.429 . S
C2094 N2091 1.350 . S
C2094 C2093 1.434 . S
C2095 C2096 1.369 . S
C2095 C2097 1.419 . S
C2095 H2099 0.930 . S
C2096 C2095 1.369 . S
C2096 C2105 1.429 . S
C2097 C2095 1.419 . S
C2097 C2098 1.363 . S
C2097 H2100 0.929 . S
C2098 C2097 1.363 . S
C2098 C2104 1.428 . S
H2099 C2095 0.930 . S
H2100 C2097 0.929 . S
S2101 N2102 1.613 . S
S2101 N2103 1.610 . S
N2102 S2101 1.613 . S
N2102 C2105 1.350 . S
N2103 S2101 1.610 . S
N2103 C2104 1.351 . S
C2104 C2098 1.428 . S
C2104 N2103 1.351 . S
C2104 C2105 1.434 . S
C2105 C2096 1.429 . S
C2105 N2102 1.350 . S
C2105 C2104 1.434 . S
C2106 C2107 1.369 . S
C2106 C2108 1.419 . S
C2106 H2110 0.930 . S
C2107 C2106 1.369 . S
C2107 C2116 1.429 . S
C2108 C2106 1.419 . S
C2108 C2109 1.363 . S
C2108 H2111 0.929 . S
C2109 C2108 1.363 . S
C2109 C2115 1.428 . S
H2110 C2106 0.930 . S
H2111 C2108 0.929 . S
S2112 N2113 1.613 . S
S2112 N2114 1.610 . S
N2113 S2112 1.613 . S
N2113 C2116 1.350 . S
N2114 S2112 1.610 . S
N2114 C2115 1.351 . S
C2115 C2109 1.428 . S
C2115 N2114 1.351 . S
C2115 C2116 1.434 . S
C2116 C2107 1.429 . S
C2116 N2113 1.350 . S
C2116 C2115 1.434 . S
C2117 C2118 1.369 . S
C2117 C2119 1.419 . S
C2117 H2121 0.930 . S
C2118 C2117 1.369 . S
C2118 C2127 1.429 . S
C2119 C2117 1.419 . S
C2119 C2120 1.363 . S
C2119 H2122 0.929 . S
C2120 C2119 1.363 . S
C2120 C2126 1.428 . S
H2121 C2117 0.930 . S
H2122 C2119 0.929 . S
S2123 N2124 1.613 . S
S2123 N2125 1.610 . S
N2124 S2123 1.613 . S
N2124 C2127 1.350 . S
N2125 S2123 1.610 . S
N2125 C2126 1.351 . S
C2126 C2120 1.428 . S
C2126 N2125 1.351 . S
C2126 C2127 1.434 . S
C2127 C2118 1.429 . S
C2127 N2124 1.350 . S
C2127 C2126 1.434 . S
C2128 C2129 1.369 . S
C2128 C2130 1.419 . S
C2128 H2132 0.930 . S
C2129 C2128 1.369 . S
C2129 C2138 1.429 . S
C2130 C2128 1.419 . S
C2130 C2131 1.363 . S
C2130 H2133 0.929 . S
C2131 C2130 1.363 . S
C2131 C2137 1.428 . S
H2132 C2128 0.930 . S
H2133 C2130 0.929 . S
S2134 N2135 1.613 . S
S2134 N2136 1.610 . S
N2135 S2134 1.613 . S
N2135 C2138 1.350 . S
N2136 S2134 1.610 . S
N2136 C2137 1.351 . S
C2137 C2131 1.428 . S
C2137 N2136 1.351 . S
C2137 C2138 1.434 . S
C2138 C2129 1.429 . S
C2138 N2135 1.350 . S
C2138 C2137 1.434 . S
C2139 C2140 1.369 . S
C2139 C2141 1.419 . S
C2139 H2143 0.930 . S
C2140 C2139 1.369 . S
C2140 C2149 1.429 . S
C2141 C2139 1.419 . S
C2141 C2142 1.363 . S
C2141 H2144 0.929 . S
C2142 C2141 1.363 . S
C2142 C2148 1.428 . S
H2143 C2139 0.930 . S
H2144 C2141 0.929 . S
S2145 N2146 1.613 . S
S2145 N2147 1.610 . S
N2146 S2145 1.613 . S
N2146 C2149 1.350 . S
N2147 S2145 1.610 . S
N2147 C2148 1.351 . S
C2148 C2142 1.428 . S
C2148 N2147 1.351 . S
C2148 C2149 1.434 . S
C2149 C2140 1.429 . S
C2149 N2146 1.350 . S
C2149 C2148 1.434 . S
C2150 C2151 1.369 . S
C2150 C2152 1.419 . S
C2150 H2154 0.930 . S
C2151 C2150 1.369 . S
C2151 C2160 1.429 . S
C2152 C2150 1.419 . S
C2152 C2153 1.363 . S
C2152 H2155 0.929 . S
C2153 C2152 1.363 . S
C2153 C2159 1.428 . S
H2154 C2150 0.930 . S
H2155 C2152 0.929 . S
S2156 N2157 1.613 . S
S2156 N2158 1.610 . S
N2157 S2156 1.613 . S
N2157 C2160 1.350 . S
N2158 S2156 1.610 . S
N2158 C2159 1.351 . S
C2159 C2153 1.428 . S
C2159 N2158 1.351 . S
C2159 C2160 1.434 . S
C2160 C2151 1.429 . S
C2160 N2157 1.350 . S
C2160 C2159 1.434 . S
C2161 C2162 1.369 . S
C2161 C2163 1.419 . S
C2161 H2165 0.930 . S
C2162 C2161 1.369 . S
C2162 C2171 1.429 . S
C2163 C2161 1.419 . S
C2163 C2164 1.363 . S
C2163 H2166 0.929 . S
C2164 C2163 1.363 . S
C2164 C2170 1.428 . S
H2165 C2161 0.930 . S
H2166 C2163 0.929 . S
S2167 N2168 1.613 . S
S2167 N2169 1.610 . S
N2168 S2167 1.613 . S
N2168 C2171 1.350 . S
N2169 S2167 1.610 . S
N2169 C2170 1.351 . S
C2170 C2164 1.428 . S
C2170 N2169 1.351 . S
C2170 C2171 1.434 . S
C2171 C2162 1.429 . S
C2171 N2168 1.350 . S
C2171 C2170 1.434 . S
C2172 C2173 1.369 . S
C2172 C2174 1.419 . S
C2172 H2176 0.930 . S
C2173 C2172 1.369 . S
C2173 C2182 1.429 . S
C2174 C2172 1.419 . S
C2174 C2175 1.363 . S
C2174 H2177 0.929 . S
C2175 C2174 1.363 . S
C2175 C2181 1.428 . S
H2176 C2172 0.930 . S
H2177 C2174 0.929 . S
S2178 N2179 1.613 . S
S2178 N2180 1.610 . S
N2179 S2178 1.613 . S
N2179 C2182 1.350 . S
N2180 S2178 1.610 . S
N2180 C2181 1.351 . S
C2181 C2175 1.428 . S
C2181 N2180 1.351 . S
C2181 C2182 1.434 . S
C2182 C2173 1.429 . S
C2182 N2179 1.350 . S
C2182 C2181 1.434 . S
C2183 C2184 1.369 . S
C2183 C2185 1.419 . S
C2183 H2187 0.930 . S
C2184 C2183 1.369 . S
C2184 C2193 1.429 . S
C2185 C2183 1.419 . S
C2185 C2186 1.363 . S
C2185 H2188 0.929 . S
C2186 C2185 1.363 . S
C2186 C2192 1.428 . S
H2187 C2183 0.930 . S
H2188 C2185 0.929 . S
S2189 N2190 1.613 . S
S2189 N2191 1.610 . S
N2190 S2189 1.613 . S
N2190 C2193 1.350 . S
N2191 S2189 1.610 . S
N2191 C2192 1.351 . S
C2192 C2186 1.428 . S
C2192 N2191 1.351 . S
C2192 C2193 1.434 . S
C2193 C2184 1.429 . S
C2193 N2190 1.350 . S
C2193 C2192 1.434 . S
C2194 C2195 1.369 . S
C2194 C2196 1.419 . S
C2194 H2198 0.930 . S
C2195 C2194 1.369 . S
C2195 C2204 1.429 . S
C2196 C2194 1.419 . S
C2196 C2197 1.363 . S
C2196 H2199 0.929 . S
C2197 C2196 1.363 . S
C2197 C2203 1.428 . S
H2198 C2194 0.930 . S
H2199 C2196 0.929 . S
S2200 N2201 1.613 . S
S2200 N2202 1.610 . S
N2201 S2200 1.613 . S
N2201 C2204 1.350 . S
N2202 S2200 1.610 . S
N2202 C2203 1.351 . S
C2203 C2197 1.428 . S
C2203 N2202 1.351 . S
C2203 C2204 1.434 . S
C2204 C2195 1.429 . S
C2204 N2201 1.350 . S
C2204 C2203 1.434 . S
C2205 C2206 1.369 . S
C2205 C2207 1.419 . S
C2205 H2209 0.930 . S
C2206 C2205 1.369 . S
C2206 C2215 1.429 . S
C2207 C2205 1.419 . S
C2207 C2208 1.363 . S
C2207 H2210 0.929 . S
C2208 C2207 1.363 . S
C2208 C2214 1.428 . S
H2209 C2205 0.930 . S
H2210 C2207 0.929 . S
S2211 N2212 1.613 . S
S2211 N2213 1.610 . S
N2212 S2211 1.613 . S
N2212 C2215 1.350 . S
N2213 S2211 1.610 . S
N2213 C2214 1.351 . S
C2214 C2208 1.428 . S
C2214 N2213 1.351 . S
C2214 C2215 1.434 . S
C2215 C2206 1.429 . S
C2215 N2212 1.350 . S
C2215 C2214 1.434 . S
C2216 C2217 1.369 . S
C2216 C2218 1.419 . S
C2216 H2220 0.930 . S
C2217 C2216 1.369 . S
C2217 C2226 1.429 . S
C2218 C2216 1.419 . S
C2218 C2219 1.363 . S
C2218 H2221 0.929 . S
C2219 C2218 1.363 . S
C2219 C2225 1.428 . S
H2220 C2216 0.930 . S
H2221 C2218 0.929 . S
S2222 N2223 1.613 . S
S2222 N2224 1.610 . S
N2223 S2222 1.613 . S
N2223 C2226 1.350 . S
N2224 S2222 1.610 . S
N2224 C2225 1.351 . S
C2225 C2219 1.428 . S
C2225 N2224 1.351 . S
C2225 C2226 1.434 . S
C2226 C2217 1.429 . S
C2226 N2223 1.350 . S
C2226 C2225 1.434 . S
C2227 C2228 1.369 . S
C2227 C2229 1.419 . S
C2227 H2231 0.930 . S
C2228 C2227 1.369 . S
C2228 C2237 1.429 . S
C2229 C2227 1.419 . S
C2229 C2230 1.363 . S
C2229 H2232 0.929 . S
C2230 C2229 1.363 . S
C2230 C2236 1.428 . S
H2231 C2227 0.930 . S
H2232 C2229 0.929 . S
S2233 N2234 1.613 . S
S2233 N2235 1.610 . S
N2234 S2233 1.613 . S
N2234 C2237 1.350 . S
N2235 S2233 1.610 . S
N2235 C2236 1.351 . S
C2236 C2230 1.428 . S
C2236 N2235 1.351 . S
C2236 C2237 1.434 . S
C2237 C2228 1.429 . S
C2237 N2234 1.350 . S
C2237 C2236 1.434 . S
C2238 C2239 1.369 . S
C2238 C2240 1.419 . S
C2238 H2242 0.930 . S
C2239 C2238 1.369 . S
C2239 C2248 1.429 . S
C2240 C2238 1.419 . S
C2240 C2241 1.363 . S
C2240 H2243 0.929 . S
C2241 C2240 1.363 . S
C2241 C2247 1.428 . S
H2242 C2238 0.930 . S
H2243 C2240 0.929 . S
S2244 N2245 1.613 . S
S2244 N2246 1.610 . S
N2245 S2244 1.613 . S
N2245 C2248 1.350 . S
N2246 S2244 1.610 . S
N2246 C2247 1.351 . S
C2247 C2241 1.428 . S
C2247 N2246 1.351 . S
C2247 C2248 1.434 . S
C2248 C2239 1.429 . S
C2248 N2245 1.350 . S
C2248 C2247 1.434 . S
C2249 C2250 1.369 . S
C2249 C2251 1.419 . S
C2249 H2253 0.930 . S
C2250 C2249 1.369 . S
C2250 C2259 1.429 . S
C2251 C2249 1.419 . S
C2251 C2252 1.363 . S
C2251 H2254 0.929 . S
C2252 C2251 1.363 . S
C2252 C2258 1.428 . S
H2253 C2249 0.930 . S
H2254 C2251 0.929 . S
S2255 N2256 1.613 . S
S2255 N2257 1.610 . S
N2256 S2255 1.613 . S
N2256 C2259 1.350 . S
N2257 S2255 1.610 . S
N2257 C2258 1.351 . S
C2258 C2252 1.428 . S
C2258 N2257 1.351 . S
C2258 C2259 1.434 . S
C2259 C2250 1.429 . S
C2259 N2256 1.350 . S
C2259 C2258 1.434 . S
C2260 C2261 1.369 . S
C2260 C2262 1.419 . S
C2260 H2264 0.930 . S
C2261 C2260 1.369 . S
C2261 C2270 1.429 . S
C2262 C2260 1.419 . S
C2262 C2263 1.363 . S
C2262 H2265 0.929 . S
C2263 C2262 1.363 . S
C2263 C2269 1.428 . S
H2264 C2260 0.930 . S
H2265 C2262 0.929 . S
S2266 N2267 1.613 . S
S2266 N2268 1.610 . S
N2267 S2266 1.613 . S
N2267 C2270 1.350 . S
N2268 S2266 1.610 . S
N2268 C2269 1.351 . S
C2269 C2263 1.428 . S
C2269 N2268 1.351 . S
C2269 C2270 1.434 . S
C2270 C2261 1.429 . S
C2270 N2267 1.350 . S
C2270 C2269 1.434 . S
C2271 C2272 1.369 . S
C2271 C2273 1.419 . S
C2271 H2275 0.930 . S
C2272 C2271 1.369 . S
C2272 C2281 1.429 . S
C2273 C2271 1.419 . S
C2273 C2274 1.363 . S
C2273 H2276 0.929 . S
C2274 C2273 1.363 . S
C2274 C2280 1.428 . S
H2275 C2271 0.930 . S
H2276 C2273 0.929 . S
S2277 N2278 1.613 . S
S2277 N2279 1.610 . S
N2278 S2277 1.613 . S
N2278 C2281 1.350 . S
N2279 S2277 1.610 . S
N2279 C2280 1.351 . S
C2280 C2274 1.428 . S
C2280 N2279 1.351 . S
C2280 C2281 1.434 . S
C2281 C2272 1.429 . S
C2281 N2278 1.350 . S
C2281 C2280 1.434 . S
C2282 C2283 1.369 . S
C2282 C2284 1.419 . S
C2282 H2286 0.930 . S
C2283 C2282 1.369 . S
C2283 C2292 1.429 . S
C2284 C2282 1.419 . S
C2284 C2285 1.363 . S
C2284 H2287 0.929 . S
C2285 C2284 1.363 . S
C2285 C2291 1.428 . S
H2286 C2282 0.930 . S
H2287 C2284 0.929 . S
S2288 N2289 1.613 . S
S2288 N2290 1.610 . S
N2289 S2288 1.613 . S
N2289 C2292 1.350 . S
N2290 S2288 1.610 . S
N2290 C2291 1.351 . S
C2291 C2285 1.428 . S
C2291 N2290 1.351 . S
C2291 C2292 1.434 . S
C2292 C2283 1.429 . S
C2292 N2289 1.350 . S
C2292 C2291 1.434 . S
C2293 C2294 1.369 . S
C2293 C2295 1.419 . S
C2293 H2297 0.930 . S
C2294 C2293 1.369 . S
C2294 C2303 1.429 . S
C2295 C2293 1.419 . S
C2295 C2296 1.363 . S
C2295 H2298 0.929 . S
C2296 C2295 1.363 . S
C2296 C2302 1.428 . S
H2297 C2293 0.930 . S
H2298 C2295 0.929 . S
S2299 N2300 1.613 . S
S2299 N2301 1.610 . S
N2300 S2299 1.613 . S
N2300 C2303 1.350 . S
N2301 S2299 1.610 . S
N2301 C2302 1.351 . S
C2302 C2296 1.428 . S
C2302 N2301 1.351 . S
C2302 C2303 1.434 . S
C2303 C2294 1.429 . S
C2303 N2300 1.350 . S
C2303 C2302 1.434 . S
C2304 C2305 1.369 . S
C2304 C2306 1.419 1_455 S
C2304 H2308 0.930 . S
C2305 C2304 1.369 . S
C2305 C2314 1.429 . S
C2306 C2304 1.419 1_655 S
C2306 C2307 1.363 . S
C2306 H2309 0.929 . S
C2307 C2306 1.363 . S
C2307 C2313 1.428 . S
H2308 C2304 0.930 . S
H2309 C2306 0.929 . S
S2310 N2311 1.613 . S
S2310 N2312 1.610 1_455 S
N2311 S2310 1.613 . S
N2311 C2314 1.350 . S
N2312 S2310 1.610 1_655 S
N2312 C2313 1.351 . S
C2313 C2307 1.428 . S
C2313 N2312 1.351 . S
C2313 C2314 1.434 1_655 S
C2314 C2305 1.429 . S
C2314 N2311 1.350 . S
C2314 C2313 1.434 1_455 S
C2315 C2316 1.369 . S
C2315 C2317 1.419 1_545 S
C2315 H2319 0.930 . S
C2316 C2315 1.369 . S
C2316 C2325 1.429 . S
C2317 C2315 1.419 1_565 S
C2317 C2318 1.363 . S
C2317 H2320 0.929 . S
C2318 C2317 1.363 . S
C2318 C2324 1.428 . S
H2319 C2315 0.930 . S
H2320 C2317 0.929 . S
S2321 N2322 1.613 . S
S2321 N2323 1.610 1_545 S
N2322 S2321 1.613 . S
N2322 C2325 1.350 . S
N2323 S2321 1.610 1_565 S
N2323 C2324 1.351 . S
C2324 C2318 1.428 . S
C2324 N2323 1.351 . S
C2324 C2325 1.434 1_565 S
C2325 C2316 1.429 . S
C2325 N2322 1.350 . S
C2325 C2324 1.434 1_545 S
C2326 C2327 1.369 . S
C2326 C2328 1.419 1_655 S
C2326 H2330 0.930 . S
C2327 C2326 1.369 . S
C2327 C2336 1.429 . S
C2328 C2326 1.419 1_455 S
C2328 C2329 1.363 . S
C2328 H2331 0.929 . S
C2329 C2328 1.363 . S
C2329 C2335 1.428 . S
H2330 C2326 0.930 . S
H2331 C2328 0.929 . S
S2332 N2333 1.613 . S
S2332 N2334 1.610 1_655 S
N2333 S2332 1.613 . S
N2333 C2336 1.350 . S
N2334 S2332 1.610 1_455 S
N2334 C2335 1.351 . S
C2335 C2329 1.428 . S
C2335 N2334 1.351 . S
C2335 C2336 1.434 1_455 S
C2336 C2327 1.429 . S
C2336 N2333 1.350 . S
C2336 C2335 1.434 1_655 S
C2337 C2338 1.369 . S
C2337 C2339 1.419 1_565 S
C2337 H2341 0.930 . S
C2338 C2337 1.369 . S
C2338 C2347 1.429 . S
C2339 C2337 1.419 1_545 S
C2339 C2340 1.363 . S
C2339 H2342 0.929 . S
C2340 C2339 1.363 . S
C2340 C2346 1.428 . S
H2341 C2337 0.930 . S
H2342 C2339 0.929 . S
S2343 N2344 1.660 . S
S2343 N2345 1.568 1_565 S
N2344 S2343 1.660 . S
N2344 C2347 1.350 . S
N2345 S2343 1.568 1_545 S
N2345 C2346 1.351 . S
C2346 C2340 1.428 . S
C2346 N2345 1.351 . S
C2346 C2347 1.434 1_545 S
C2347 C2338 1.429 . S
C2347 N2344 1.350 . S
C2347 C2346 1.434 1_565 S
C2348 C2349 1.369 . S
C2348 C2350 1.419 1_655 S
C2348 H2352 0.930 . S
C2349 C2348 1.369 . S
C2349 C2358 1.429 . S
C2350 C2348 1.419 1_455 S
C2350 C2351 1.363 . S
C2350 H2353 0.929 . S
C2351 C2350 1.363 . S
C2351 C2357 1.428 . S
H2352 C2348 0.930 . S
H2353 C2350 0.929 . S
S2354 N2355 1.613 1_455 S
S2354 N2356 1.610 . S
N2355 S2354 1.613 1_655 S
N2355 C2358 1.350 . S
N2356 S2354 1.610 . S
N2356 C2357 1.351 . S
C2357 C2351 1.428 . S
C2357 N2356 1.351 . S
C2357 C2358 1.434 1_455 S
C2358 C2349 1.429 . S
C2358 N2355 1.350 . S
C2358 C2357 1.434 1_655 S
C2359 C2360 1.369 . S
C2359 C2361 1.419 1_545 S
C2359 H2363 0.930 . S
C2360 C2359 1.369 . S
C2360 C2369 1.429 . S
C2361 C2359 1.419 1_565 S
C2361 C2362 1.363 . S
C2361 H2364 0.929 . S
C2362 C2361 1.363 . S
C2362 C2368 1.428 . S
H2363 C2359 0.930 . S
H2364 C2361 0.929 . S
S2365 N2366 1.613 . S
S2365 N2367 1.610 1_545 S
N2366 S2365 1.613 . S
N2366 C2369 1.350 . S
N2367 S2365 1.610 1_565 S
N2367 C2368 1.351 . S
C2368 C2362 1.428 . S
C2368 N2367 1.351 . S
C2368 C2369 1.434 1_565 S
C2369 C2360 1.429 . S
C2369 N2366 1.350 . S
C2369 C2368 1.434 1_545 S
C2370 C2371 1.369 . S
C2370 C2372 1.419 1_455 S
C2370 H2374 0.930 . S
C2371 C2370 1.369 . S
C2371 C2380 1.429 . S
C2372 C2370 1.419 1_655 S
C2372 C2373 1.363 . S
C2372 H2375 0.929 . S
C2373 C2372 1.363 . S
C2373 C2379 1.428 . S
H2374 C2370 0.930 . S
H2375 C2372 0.929 . S
S2376 N2377 1.613 1_655 S
S2376 N2378 1.610 . S
N2377 S2376 1.613 1_455 S
N2377 C2380 1.350 . S
N2378 S2376 1.610 . S
N2378 C2379 1.351 . S
C2379 C2373 1.428 . S
C2379 N2378 1.351 . S
C2379 C2380 1.434 1_655 S
C2380 C2371 1.429 . S
C2380 N2377 1.350 . S
C2380 C2379 1.434 1_455 S
C2381 C2382 1.369 . S
C2381 C2383 1.419 1_545 S
C2381 H2385 0.930 . S
C2382 C2381 1.369 . S
C2382 C2391 1.429 . S
C2383 C2381 1.419 1_565 S
C2383 C2384 1.363 . S
C2383 H2386 0.929 . S
C2384 C2383 1.363 . S
C2384 C2390 1.428 . S
H2385 C2381 0.930 . S
H2386 C2383 0.929 . S
S2387 N2388 1.613 1_565 S
S2387 N2389 1.610 . S
N2388 S2387 1.613 1_545 S
N2388 C2391 1.350 . S
N2389 S2387 1.610 . S
N2389 C2390 1.351 . S
C2390 C2384 1.428 . S
C2390 N2389 1.351 . S
C2390 C2391 1.434 1_565 S
C2391 C2382 1.429 . S
C2391 N2388 1.350 . S
C2391 C2390 1.434 1_545 S
C2392 C2393 1.369 . S
C2392 C2394 1.419 1_545 S
C2392 H2396 0.930 . S
C2393 C2392 1.369 . S
C2393 C2402 1.429 . S
C2394 C2392 1.419 1_565 S
C2394 C2395 1.363 . S
C2394 H2397 0.929 . S
C2395 C2394 1.363 . S
C2395 C2401 1.428 . S
H2396 C2392 0.930 . S
H2397 C2394 0.929 . S
S2398 N2399 1.613 . S
S2398 N2400 1.610 1_545 S
N2399 S2398 1.613 . S
N2399 C2402 1.350 . S
N2400 S2398 1.610 1_565 S
N2400 C2401 1.351 . S
C2401 C2395 1.428 . S
C2401 N2400 1.351 . S
C2401 C2402 1.434 1_565 S
C2402 C2393 1.429 . S
C2402 N2399 1.350 . S
C2402 C2401 1.434 1_545 S
C2403 C2404 1.369 . S
C2403 C2405 1.419 1_455 S
C2403 H2407 0.930 . S
C2404 C2403 1.369 . S
C2404 C2413 1.429 . S
C2405 C2403 1.419 1_655 S
C2405 C2406 1.363 . S
C2405 H2408 0.929 . S
C2406 C2405 1.363 . S
C2406 C2412 1.428 . S
H2407 C2403 0.930 . S
H2408 C2405 0.929 . S
S2409 N2410 1.613 1_655 S
S2409 N2411 1.610 . S
N2410 S2409 1.613 1_455 S
N2410 C2413 1.350 . S
N2411 S2409 1.610 . S
N2411 C2412 1.351 . S
C2412 C2406 1.428 . S
C2412 N2411 1.351 . S
C2412 C2413 1.434 1_655 S
C2413 C2404 1.429 . S
C2413 N2410 1.350 . S
C2413 C2412 1.434 1_455 S
C2414 C2415 1.369 . S
C2414 C2416 1.419 1_565 S
C2414 H2418 0.930 . S
C2415 C2414 1.369 . S
C2415 C2424 1.429 . S
C2416 C2414 1.419 1_545 S
C2416 C2417 1.363 . S
C2416 H2419 0.929 . S
C2417 C2416 1.363 . S
C2417 C2423 1.428 . S
H2418 C2414 0.930 . S
H2419 C2416 0.929 . S
S2420 N2421 1.613 . S
S2420 N2422 1.610 1_565 S
N2421 S2420 1.613 . S
N2421 C2424 1.350 . S
N2422 S2420 1.610 1_545 S
N2422 C2423 1.351 . S
C2423 C2417 1.428 . S
C2423 N2422 1.351 . S
C2423 C2424 1.434 1_545 S
C2424 C2415 1.429 . S
C2424 N2421 1.350 . S
C2424 C2423 1.434 1_565 S
C2425 C2426 1.369 . S
C2425 C2427 1.419 1_455 S
C2425 H2429 0.930 . S
C2426 C2425 1.369 . S
C2426 C2435 1.429 . S
C2427 C2425 1.419 1_655 S
C2427 C2428 1.363 . S
C2427 H2430 0.929 . S
C2428 C2427 1.363 . S
C2428 C2434 1.428 . S
H2429 C2425 0.930 . S
H2430 C2427 0.929 . S
S2431 N2432 1.613 . S
S2431 N2433 1.610 1_455 S
N2432 S2431 1.613 . S
N2432 C2435 1.350 . S
N2433 S2431 1.610 1_655 S
N2433 C2434 1.351 . S
C2434 C2428 1.428 . S
C2434 N2433 1.351 . S
C2434 C2435 1.434 1_655 S
C2435 C2426 1.429 . S
C2435 N2432 1.350 . S
C2435 C2434 1.434 1_455 S
C2436 C2437 1.369 . S
C2436 C2438 1.419 1_565 S
C2436 H2440 0.930 . S
C2437 C2436 1.369 . S
C2437 C2446 1.429 . S
C2438 C2436 1.419 1_545 S
C2438 C2439 1.363 . S
C2438 H2441 0.929 . S
C2439 C2438 1.363 . S
C2439 C2445 1.428 . S
H2440 C2436 0.930 . S
H2441 C2438 0.929 . S
S2442 N2443 1.613 . S
S2442 N2444 1.610 1_565 S
N2443 S2442 1.613 . S
N2443 C2446 1.350 . S
N2444 S2442 1.610 1_545 S
N2444 C2445 1.351 . S
C2445 C2439 1.428 . S
C2445 N2444 1.351 . S
C2445 C2446 1.434 1_545 S
C2446 C2437 1.429 . S
C2446 N2443 1.350 . S
C2446 C2445 1.434 1_565 S
C2447 C2448 1.369 . S
C2447 C2449 1.419 1_455 S
C2447 H2451 0.930 . S
C2448 C2447 1.369 . S
C2448 C2457 1.429 . S
C2449 C2447 1.419 1_655 S
C2449 C2450 1.363 . S
C2449 H2452 0.929 . S
C2450 C2449 1.363 . S
C2450 C2456 1.428 . S
H2451 C2447 0.930 . S
H2452 C2449 0.929 . S
S2453 N2454 1.613 . S
S2453 N2455 1.610 1_455 S
N2454 S2453 1.613 . S
N2454 C2457 1.350 . S
N2455 S2453 1.610 1_655 S
N2455 C2456 1.351 . S
C2456 C2450 1.428 . S
C2456 N2455 1.351 . S
C2456 C2457 1.434 1_655 S
C2457 C2448 1.429 . S
C2457 N2454 1.350 . S
C2457 C2456 1.434 1_455 S
C2458 C2459 1.369 . S
C2458 C2460 1.419 1_545 S
C2458 H2462 0.930 . S
C2459 C2458 1.369 . S
C2459 C2468 1.429 . S
C2460 C2458 1.419 1_565 S
C2460 C2461 1.363 . S
C2460 H2463 0.929 . S
C2461 C2460 1.363 . S
C2461 C2467 1.428 . S
H2462 C2458 0.930 . S
H2463 C2460 0.929 . S
S2464 N2465 1.660 . S
S2464 N2466 1.568 1_545 S
N2465 S2464 1.660 . S
N2465 C2468 1.350 . S
N2466 S2464 1.568 1_565 S
N2466 C2467 1.351 . S
C2467 C2461 1.428 . S
C2467 N2466 1.351 . S
C2467 C2468 1.434 1_565 S
C2468 C2459 1.429 . S
C2468 N2465 1.350 . S
C2468 C2467 1.434 1_545 S
C2469 C2470 1.369 . S
C2469 C2471 1.419 1_455 S
C2469 H2473 0.930 . S
C2470 C2469 1.369 . S
C2470 C2479 1.429 . S
C2471 C2469 1.419 1_655 S
C2471 C2472 1.363 . S
C2471 H2474 0.929 . S
C2472 C2471 1.363 . S
C2472 C2478 1.428 . S
H2473 C2469 0.930 . S
H2474 C2471 0.929 . S
S2475 N2476 1.613 1_655 S
S2475 N2477 1.610 . S
N2476 S2475 1.613 1_455 S
N2476 C2479 1.350 . S
N2477 S2475 1.610 . S
N2477 C2478 1.351 . S
C2478 C2472 1.428 . S
C2478 N2477 1.351 . S
C2478 C2479 1.434 1_655 S
C2479 C2470 1.429 . S
C2479 N2476 1.350 . S
C2479 C2478 1.434 1_455 S
C2480 C2481 1.369 . S
C2480 C2482 1.419 1_554 S
C2480 H2484 0.930 . S
C2481 C2480 1.369 . S
C2481 C2490 1.429 . S
C2482 C2480 1.419 1_556 S
C2482 C2483 1.363 . S
C2482 H2485 0.929 . S
C2483 C2482 1.363 . S
C2483 C2489 1.428 . S
H2484 C2480 0.930 . S
H2485 C2482 0.929 . S
S2486 N2487 1.613 . S
S2486 N2488 1.610 1_554 S
N2487 S2486 1.613 . S
N2487 C2490 1.350 . S
N2488 S2486 1.610 1_556 S
N2488 C2489 1.351 . S
C2489 C2483 1.428 . S
C2489 N2488 1.351 . S
C2489 C2490 1.434 1_556 S
C2490 C2481 1.429 . S
C2490 N2487 1.350 . S
C2490 C2489 1.434 1_554 S
C2491 C2492 1.369 . S
C2491 C2493 1.419 1_556 S
C2491 H2495 0.930 . S
C2492 C2491 1.369 . S
C2492 C2501 1.429 . S
C2493 C2491 1.419 1_554 S
C2493 C2494 1.363 . S
C2493 H2496 0.929 . S
C2494 C2493 1.363 . S
C2494 C2500 1.428 . S
H2495 C2491 0.930 . S
H2496 C2493 0.929 . S
S2497 N2498 1.613 . S
S2497 N2499 1.610 1_556 S
N2498 S2497 1.613 . S
N2498 C2501 1.350 . S
N2499 S2497 1.610 1_554 S
N2499 C2500 1.351 . S
C2500 C2494 1.428 . S
C2500 N2499 1.351 . S
C2500 C2501 1.434 1_554 S
C2501 C2492 1.429 . S
C2501 N2498 1.350 . S
C2501 C2500 1.434 1_556 S
C2502 C2503 1.369 . S
C2502 C2504 1.419 1_554 S
C2502 H2506 0.930 . S
C2503 C2502 1.369 . S
C2503 C2512 1.429 . S
C2504 C2502 1.419 1_556 S
C2504 C2505 1.363 . S
C2504 H2507 0.929 . S
C2505 C2504 1.363 . S
C2505 C2511 1.428 . S
H2506 C2502 0.930 . S
H2507 C2504 0.929 . S
S2508 N2509 1.613 1_556 S
S2508 N2510 1.610 . S
N2509 S2508 1.613 1_554 S
N2509 C2512 1.350 . S
N2510 S2508 1.610 . S
N2510 C2511 1.351 . S
C2511 C2505 1.428 . S
C2511 N2510 1.351 . S
C2511 C2512 1.434 1_556 S
C2512 C2503 1.429 . S
C2512 N2509 1.350 . S
C2512 C2511 1.434 1_554 S
C2513 C2514 1.369 . S
C2513 C2515 1.419 1_556 S
C2513 H2517 0.930 . S
C2514 C2513 1.369 . S
C2514 C2523 1.429 . S
C2515 C2513 1.419 1_554 S
C2515 C2516 1.363 . S
C2515 H2518 0.929 . S
C2516 C2515 1.363 . S
C2516 C2522 1.428 . S
H2517 C2513 0.930 . S
H2518 C2515 0.929 . S
S2519 N2520 1.613 . S
S2519 N2521 1.610 1_556 S
N2520 S2519 1.613 . S
N2520 C2523 1.350 . S
N2521 S2519 1.610 1_554 S
N2521 C2522 1.351 . S
C2522 C2516 1.428 . S
C2522 N2521 1.351 . S
C2522 C2523 1.434 1_554 S
C2523 C2514 1.429 . S
C2523 N2520 1.350 . S
C2523 C2522 1.434 1_556 S
C2524 C2525 1.369 . S
C2524 C2526 1.419 1_554 S
C2524 H2528 0.930 . S
C2525 C2524 1.369 . S
C2525 C2534 1.429 . S
C2526 C2524 1.419 1_556 S
C2526 C2527 1.363 . S
C2526 H2529 0.929 . S
C2527 C2526 1.363 . S
C2527 C2533 1.428 . S
H2528 C2524 0.930 . S
H2529 C2526 0.929 . S
S2530 N2531 1.613 1_556 S
S2530 N2532 1.610 . S
N2531 S2530 1.613 1_554 S
N2531 C2534 1.350 . S
N2532 S2530 1.610 . S
N2532 C2533 1.351 . S
C2533 C2527 1.428 . S
C2533 N2532 1.351 . S
C2533 C2534 1.434 1_556 S
C2534 C2525 1.429 . S
C2534 N2531 1.350 . S
C2534 C2533 1.434 1_554 S
C2535 C2536 1.369 . S
C2535 C2537 1.419 1_554 S
C2535 H2539 0.930 . S
C2536 C2535 1.369 . S
C2536 C2545 1.429 . S
C2537 C2535 1.419 1_556 S
C2537 C2538 1.363 . S
C2537 H2540 0.929 . S
C2538 C2537 1.363 . S
C2538 C2544 1.428 . S
H2539 C2535 0.930 . S
H2540 C2537 0.929 . S
S2541 N2542 1.613 . S
S2541 N2543 1.610 1_554 S
N2542 S2541 1.613 . S
N2542 C2545 1.350 . S
N2543 S2541 1.610 1_556 S
N2543 C2544 1.351 . S
C2544 C2538 1.428 . S
C2544 N2543 1.351 . S
C2544 C2545 1.434 1_556 S
C2545 C2536 1.429 . S
C2545 N2542 1.350 . S
C2545 C2544 1.434 1_554 S
C2546 C2547 1.369 . S
C2546 C2548 1.419 1_556 S
C2546 H2550 0.930 . S
C2547 C2546 1.369 . S
C2547 C2556 1.429 . S
C2548 C2546 1.419 1_554 S
C2548 C2549 1.363 . S
C2548 H2551 0.929 . S
C2549 C2548 1.363 . S
C2549 C2555 1.428 . S
H2550 C2546 0.930 . S
H2551 C2548 0.929 . S
S2552 N2553 1.613 1_554 S
S2552 N2554 1.610 . S
N2553 S2552 1.613 1_556 S
N2553 C2556 1.350 . S
N2554 S2552 1.610 . S
N2554 C2555 1.351 . S
C2555 C2549 1.428 . S
C2555 N2554 1.351 . S
C2555 C2556 1.434 1_554 S
C2556 C2547 1.429 . S
C2556 N2553 1.350 . S
C2556 C2555 1.434 1_556 S
C2557 C2558 1.369 . S
C2557 C2559 1.419 1_556 S
C2557 H2561 0.930 . S
C2558 C2557 1.369 . S
C2558 C2567 1.429 . S
C2559 C2557 1.419 1_554 S
C2559 C2560 1.363 . S
C2559 H2562 0.929 . S
C2560 C2559 1.363 . S
C2560 C2566 1.428 . S
H2561 C2557 0.930 . S
H2562 C2559 0.929 . S
S2563 N2564 1.613 1_554 S
S2563 N2565 1.610 . S
N2564 S2563 1.613 1_556 S
N2564 C2567 1.350 . S
N2565 S2563 1.610 . S
N2565 C2566 1.351 . S
C2566 C2560 1.428 . S
C2566 N2565 1.351 . S
C2566 C2567 1.434 1_554 S
C2567 C2558 1.429 . S
C2567 N2564 1.350 . S
C2567 C2566 1.434 1_556 S
C2568 C2569 1.369 . S
C2568 C2570 1.419 . S
C2568 H2572 0.930 . S
C2569 C2568 1.369 . S
C2569 C2578 1.429 . S
C2570 C2568 1.419 . S
C2570 C2571 1.363 . S
C2570 H2573 0.929 . S
C2571 C2570 1.363 . S
C2571 C2577 1.428 . S
H2572 C2568 0.930 . S
H2573 C2570 0.929 . S
S2574 N2575 1.613 . S
S2574 N2576 1.610 . S
N2575 S2574 1.613 . S
N2575 C2578 1.350 . S
N2576 S2574 1.610 . S
N2576 C2577 1.351 . S
C2577 C2571 1.428 . S
C2577 N2576 1.351 . S
C2577 C2578 1.434 . S
C2578 C2569 1.429 . S
C2578 N2575 1.350 . S
C2578 C2577 1.434 . S
C2579 C2580 1.369 . S
C2579 C2581 1.419 . S
C2579 H2583 0.930 . S
C2580 C2579 1.369 . S
C2580 C2589 1.429 . S
C2581 C2579 1.419 . S
C2581 C2582 1.363 . S
C2581 H2584 0.929 . S
C2582 C2581 1.363 . S
C2582 C2588 1.428 . S
H2583 C2579 0.930 . S
H2584 C2581 0.929 . S
S2585 N2586 1.613 . S
S2585 N2587 1.610 . S
N2586 S2585 1.613 . S
N2586 C2589 1.350 . S
N2587 S2585 1.610 . S
N2587 C2588 1.351 . S
C2588 C2582 1.428 . S
C2588 N2587 1.351 . S
C2588 C2589 1.434 . S
C2589 C2580 1.429 . S
C2589 N2586 1.350 . S
C2589 C2588 1.434 . S
C2590 C2591 1.369 . S
C2590 C2592 1.419 . S
C2590 H2594 0.930 . S
C2591 C2590 1.369 . S
C2591 C2600 1.429 . S
C2592 C2590 1.419 . S
C2592 C2593 1.363 . S
C2592 H2595 0.929 . S
C2593 C2592 1.363 . S
C2593 C2599 1.428 . S
H2594 C2590 0.930 . S
H2595 C2592 0.929 . S
S2596 N2597 1.613 . S
S2596 N2598 1.610 . S
N2597 S2596 1.613 . S
N2597 C2600 1.350 . S
N2598 S2596 1.610 . S
N2598 C2599 1.351 . S
C2599 C2593 1.428 . S
C2599 N2598 1.351 . S
C2599 C2600 1.434 . S
C2600 C2591 1.429 . S
C2600 N2597 1.350 . S
C2600 C2599 1.434 . S
C2601 C2602 1.369 . S
C2601 C2603 1.419 . S
C2601 H2605 0.930 . S
C2602 C2601 1.369 . S
C2602 C2611 1.429 . S
C2603 C2601 1.419 . S
C2603 C2604 1.363 . S
C2603 H2606 0.929 . S
C2604 C2603 1.363 . S
C2604 C2610 1.428 . S
H2605 C2601 0.930 . S
H2606 C2603 0.929 . S
S2607 N2608 1.613 . S
S2607 N2609 1.610 . S
N2608 S2607 1.613 . S
N2608 C2611 1.350 . S
N2609 S2607 1.610 . S
N2609 C2610 1.351 . S
C2610 C2604 1.428 . S
C2610 N2609 1.351 . S
C2610 C2611 1.434 . S
C2611 C2602 1.429 . S
C2611 N2608 1.350 . S
C2611 C2610 1.434 . S
C2612 C2613 1.369 . S
C2612 C2614 1.419 . S
C2612 H2616 0.930 . S
C2613 C2612 1.369 . S
C2613 C2622 1.429 . S
C2614 C2612 1.419 . S
C2614 C2615 1.363 . S
C2614 H2617 0.929 . S
C2615 C2614 1.363 . S
C2615 C2621 1.428 . S
H2616 C2612 0.930 . S
H2617 C2614 0.929 . S
S2618 N2619 1.613 . S
S2618 N2620 1.610 . S
N2619 S2618 1.613 . S
N2619 C2622 1.350 . S
N2620 S2618 1.610 . S
N2620 C2621 1.351 . S
C2621 C2615 1.428 . S
C2621 N2620 1.351 . S
C2621 C2622 1.434 . S
C2622 C2613 1.429 . S
C2622 N2619 1.350 . S
C2622 C2621 1.434 . S
C2623 C2624 1.369 . S
C2623 C2625 1.419 . S
C2623 H2627 0.930 . S
C2624 C2623 1.369 . S
C2624 C2633 1.429 . S
C2625 C2623 1.419 . S
C2625 C2626 1.363 . S
C2625 H2628 0.929 . S
C2626 C2625 1.363 . S
C2626 C2632 1.428 . S
H2627 C2623 0.930 . S
H2628 C2625 0.929 . S
S2629 N2630 1.613 . S
S2629 N2631 1.610 . S
N2630 S2629 1.613 . S
N2630 C2633 1.350 . S
N2631 S2629 1.610 . S
N2631 C2632 1.351 . S
C2632 C2626 1.428 . S
C2632 N2631 1.351 . S
C2632 C2633 1.434 . S
C2633 C2624 1.429 . S
C2633 N2630 1.350 . S
C2633 C2632 1.434 . S
C2634 C2635 1.369 . S
C2634 C2636 1.419 . S
C2634 H2638 0.930 . S
C2635 C2634 1.369 . S
C2635 C2644 1.429 . S
C2636 C2634 1.419 . S
C2636 C2637 1.363 . S
C2636 H2639 0.929 . S
C2637 C2636 1.363 . S
C2637 C2643 1.428 . S
H2638 C2634 0.930 . S
H2639 C2636 0.929 . S
S2640 N2641 1.613 . S
S2640 N2642 1.610 . S
N2641 S2640 1.613 . S
N2641 C2644 1.350 . S
N2642 S2640 1.610 . S
N2642 C2643 1.351 . S
C2643 C2637 1.428 . S
C2643 N2642 1.351 . S
C2643 C2644 1.434 . S
C2644 C2635 1.429 . S
C2644 N2641 1.350 . S
C2644 C2643 1.434 . S
C2645 C2646 1.369 . S
C2645 C2647 1.419 . S
C2645 H2649 0.930 . S
C2646 C2645 1.369 . S
C2646 C2655 1.429 . S
C2647 C2645 1.419 . S
C2647 C2648 1.363 . S
C2647 H2650 0.929 . S
C2648 C2647 1.363 . S
C2648 C2654 1.428 . S
H2649 C2645 0.930 . S
H2650 C2647 0.929 . S
S2651 N2652 1.613 . S
S2651 N2653 1.610 . S
N2652 S2651 1.613 . S
N2652 C2655 1.350 . S
N2653 S2651 1.610 . S
N2653 C2654 1.351 . S
C2654 C2648 1.428 . S
C2654 N2653 1.351 . S
C2654 C2655 1.434 . S
C2655 C2646 1.429 . S
C2655 N2652 1.350 . S
C2655 C2654 1.434 . S
C2656 C2657 1.369 . S
C2656 C2658 1.419 . S
C2656 H2660 0.930 . S
C2657 C2656 1.369 . S
C2657 C2666 1.429 . S
C2658 C2656 1.419 . S
C2658 C2659 1.363 . S
C2658 H2661 0.929 . S
C2659 C2658 1.363 . S
C2659 C2665 1.428 . S
H2660 C2656 0.930 . S
H2661 C2658 0.929 . S
S2662 N2663 1.613 . S
S2662 N2664 1.610 . S
N2663 S2662 1.613 . S
N2663 C2666 1.350 . S
N2664 S2662 1.610 . S
N2664 C2665 1.351 . S
C2665 C2659 1.428 . S
C2665 N2664 1.351 . S
C2665 C2666 1.434 . S
C2666 C2657 1.429 . S
C2666 N2663 1.350 . S
C2666 C2665 1.434 . S
C2667 C2668 1.369 . S
C2667 C2669 1.419 . S
C2667 H2671 0.930 . S
C2668 C2667 1.369 . S
C2668 C2677 1.429 . S
C2669 C2667 1.419 . S
C2669 C2670 1.363 . S
C2669 H2672 0.929 . S
C2670 C2669 1.363 . S
C2670 C2676 1.428 . S
H2671 C2667 0.930 . S
H2672 C2669 0.929 . S
S2673 N2674 1.613 . S
S2673 N2675 1.610 . S
N2674 S2673 1.613 . S
N2674 C2677 1.350 . S
N2675 S2673 1.610 . S
N2675 C2676 1.351 . S
C2676 C2670 1.428 . S
C2676 N2675 1.351 . S
C2676 C2677 1.434 . S
C2677 C2668 1.429 . S
C2677 N2674 1.350 . S
C2677 C2676 1.434 . S
C2678 C2679 1.369 . S
C2678 C2680 1.419 . S
C2678 H2682 0.930 . S
C2679 C2678 1.369 . S
C2679 C2688 1.429 . S
C2680 C2678 1.419 . S
C2680 C2681 1.363 . S
C2680 H2683 0.929 . S
C2681 C2680 1.363 . S
C2681 C2687 1.428 . S
H2682 C2678 0.930 . S
H2683 C2680 0.929 . S
S2684 N2685 1.613 . S
S2684 N2686 1.610 . S
N2685 S2684 1.613 . S
N2685 C2688 1.350 . S
N2686 S2684 1.610 . S
N2686 C2687 1.351 . S
C2687 C2681 1.428 . S
C2687 N2686 1.351 . S
C2687 C2688 1.434 . S
C2688 C2679 1.429 . S
C2688 N2685 1.350 . S
C2688 C2687 1.434 . S
C2689 C2690 1.369 . S
C2689 C2691 1.419 . S
C2689 H2693 0.930 . S
C2690 C2689 1.369 . S
C2690 C2699 1.429 . S
C2691 C2689 1.419 . S
C2691 C2692 1.363 . S
C2691 H2694 0.929 . S
C2692 C2691 1.363 . S
C2692 C2698 1.428 . S
H2693 C2689 0.930 . S
H2694 C2691 0.929 . S
S2695 N2696 1.613 . S
S2695 N2697 1.610 . S
N2696 S2695 1.613 . S
N2696 C2699 1.350 . S
N2697 S2695 1.610 . S
N2697 C2698 1.351 . S
C2698 C2692 1.428 . S
C2698 N2697 1.351 . S
C2698 C2699 1.434 . S
C2699 C2690 1.429 . S
C2699 N2696 1.350 . S
C2699 C2698 1.434 . S
C2700 C2701 1.369 . S
C2700 C2702 1.419 . S
C2700 H2704 0.930 . S
C2701 C2700 1.369 . S
C2701 C2710 1.429 . S
C2702 C2700 1.419 . S
C2702 C2703 1.363 . S
C2702 H2705 0.929 . S
C2703 C2702 1.363 . S
C2703 C2709 1.428 . S
H2704 C2700 0.930 . S
H2705 C2702 0.929 . S
S2706 N2707 1.613 . S
S2706 N2708 1.610 . S
N2707 S2706 1.613 . S
N2707 C2710 1.350 . S
N2708 S2706 1.610 . S
N2708 C2709 1.351 . S
C2709 C2703 1.428 . S
C2709 N2708 1.351 . S
C2709 C2710 1.434 . S
C2710 C2701 1.429 . S
C2710 N2707 1.350 . S
C2710 C2709 1.434 . S
C2711 C2712 1.369 . S
C2711 C2713 1.419 . S
C2711 H2715 0.930 . S
C2712 C2711 1.369 . S
C2712 C2721 1.429 . S
C2713 C2711 1.419 . S
C2713 C2714 1.363 . S
C2713 H2716 0.929 . S
C2714 C2713 1.363 . S
C2714 C2720 1.428 . S
H2715 C2711 0.930 . S
H2716 C2713 0.929 . S
S2717 N2718 1.613 . S
S2717 N2719 1.610 . S
N2718 S2717 1.613 . S
N2718 C2721 1.350 . S
N2719 S2717 1.610 . S
N2719 C2720 1.351 . S
C2720 C2714 1.428 . S
C2720 N2719 1.351 . S
C2720 C2721 1.434 . S
C2721 C2712 1.429 . S
C2721 N2718 1.350 . S
C2721 C2720 1.434 . S
C2722 C2723 1.369 . S
C2722 C2724 1.419 . S
C2722 H2726 0.930 . S
C2723 C2722 1.369 . S
C2723 C2732 1.429 . S
C2724 C2722 1.419 . S
C2724 C2725 1.363 . S
C2724 H2727 0.929 . S
C2725 C2724 1.363 . S
C2725 C2731 1.428 . S
H2726 C2722 0.930 . S
H2727 C2724 0.929 . S
S2728 N2729 1.613 . S
S2728 N2730 1.610 . S
N2729 S2728 1.613 . S
N2729 C2732 1.350 . S
N2730 S2728 1.610 . S
N2730 C2731 1.351 . S
C2731 C2725 1.428 . S
C2731 N2730 1.351 . S
C2731 C2732 1.434 . S
C2732 C2723 1.429 . S
C2732 N2729 1.350 . S
C2732 C2731 1.434 . S
C2733 C2734 1.369 . S
C2733 C2735 1.419 . S
C2733 H2737 0.930 . S
C2734 C2733 1.369 . S
C2734 C2743 1.429 . S
C2735 C2733 1.419 . S
C2735 C2736 1.363 . S
C2735 H2738 0.929 . S
C2736 C2735 1.363 . S
C2736 C2742 1.428 . S
H2737 C2733 0.930 . S
H2738 C2735 0.929 . S
S2739 N2740 1.613 . S
S2739 N2741 1.610 . S
N2740 S2739 1.613 . S
N2740 C2743 1.350 . S
N2741 S2739 1.610 . S
N2741 C2742 1.351 . S
C2742 C2736 1.428 . S
C2742 N2741 1.351 . S
C2742 C2743 1.434 . S
C2743 C2734 1.429 . S
C2743 N2740 1.350 . S
C2743 C2742 1.434 . S
C2744 C2745 1.369 . S
C2744 C2746 1.419 . S
C2744 H2748 0.930 . S
C2745 C2744 1.369 . S
C2745 C2754 1.429 . S
C2746 C2744 1.419 . S
C2746 C2747 1.363 . S
C2746 H2749 0.929 . S
C2747 C2746 1.363 . S
C2747 C2753 1.428 . S
H2748 C2744 0.930 . S
H2749 C2746 0.929 . S
S2750 N2751 1.613 . S
S2750 N2752 1.610 . S
N2751 S2750 1.613 . S
N2751 C2754 1.350 . S
N2752 S2750 1.610 . S
N2752 C2753 1.351 . S
C2753 C2747 1.428 . S
C2753 N2752 1.351 . S
C2753 C2754 1.434 . S
C2754 C2745 1.429 . S
C2754 N2751 1.350 . S
C2754 C2753 1.434 . S
C2755 C2756 1.369 . S
C2755 C2757 1.419 . S
C2755 H2759 0.930 . S
C2756 C2755 1.369 . S
C2756 C2765 1.429 . S
C2757 C2755 1.419 . S
C2757 C2758 1.363 . S
C2757 H2760 0.929 . S
C2758 C2757 1.363 . S
C2758 C2764 1.428 . S
H2759 C2755 0.930 . S
H2760 C2757 0.929 . S
S2761 N2762 1.613 . S
S2761 N2763 1.610 . S
N2762 S2761 1.613 . S
N2762 C2765 1.350 . S
N2763 S2761 1.610 . S
N2763 C2764 1.351 . S
C2764 C2758 1.428 . S
C2764 N2763 1.351 . S
C2764 C2765 1.434 . S
C2765 C2756 1.429 . S
C2765 N2762 1.350 . S
C2765 C2764 1.434 . S
C2766 C2767 1.369 . S
C2766 C2768 1.419 . S
C2766 H2770 0.930 . S
C2767 C2766 1.369 . S
C2767 C2776 1.429 . S
C2768 C2766 1.419 . S
C2768 C2769 1.363 . S
C2768 H2771 0.929 . S
C2769 C2768 1.363 . S
C2769 C2775 1.428 . S
H2770 C2766 0.930 . S
H2771 C2768 0.929 . S
S2772 N2773 1.613 . S
S2772 N2774 1.610 . S
N2773 S2772 1.613 . S
N2773 C2776 1.350 . S
N2774 S2772 1.610 . S
N2774 C2775 1.351 . S
C2775 C2769 1.428 . S
C2775 N2774 1.351 . S
C2775 C2776 1.434 . S
C2776 C2767 1.429 . S
C2776 N2773 1.350 . S
C2776 C2775 1.434 . S
C2777 C2778 1.369 . S
C2777 C2779 1.419 . S
C2777 H2781 0.930 . S
C2778 C2777 1.369 . S
C2778 C2787 1.429 . S
C2779 C2777 1.419 . S
C2779 C2780 1.363 . S
C2779 H2782 0.929 . S
C2780 C2779 1.363 . S
C2780 C2786 1.428 . S
H2781 C2777 0.930 . S
H2782 C2779 0.929 . S
S2783 N2784 1.613 . S
S2783 N2785 1.610 . S
N2784 S2783 1.613 . S
N2784 C2787 1.350 . S
N2785 S2783 1.610 . S
N2785 C2786 1.351 . S
C2786 C2780 1.428 . S
C2786 N2785 1.351 . S
C2786 C2787 1.434 . S
C2787 C2778 1.429 . S
C2787 N2784 1.350 . S
C2787 C2786 1.434 . S
C2788 C2789 1.369 . S
C2788 C2790 1.419 . S
C2788 H2792 0.930 . S
C2789 C2788 1.369 . S
C2789 C2798 1.429 . S
C2790 C2788 1.419 . S
C2790 C2791 1.363 . S
C2790 H2793 0.929 . S
C2791 C2790 1.363 . S
C2791 C2797 1.428 . S
H2792 C2788 0.930 . S
H2793 C2790 0.929 . S
S2794 N2795 1.613 . S
S2794 N2796 1.610 . S
N2795 S2794 1.613 . S
N2795 C2798 1.350 . S
N2796 S2794 1.610 . S
N2796 C2797 1.351 . S
C2797 C2791 1.428 . S
C2797 N2796 1.351 . S
C2797 C2798 1.434 . S
C2798 C2789 1.429 . S
C2798 N2795 1.350 . S
C2798 C2797 1.434 . S
C2799 C2800 1.369 . S
C2799 C2801 1.419 . S
C2799 H2803 0.930 . S
C2800 C2799 1.369 . S
C2800 C2809 1.429 . S
C2801 C2799 1.419 . S
C2801 C2802 1.363 . S
C2801 H2804 0.929 . S
C2802 C2801 1.363 . S
C2802 C2808 1.428 . S
H2803 C2799 0.930 . S
H2804 C2801 0.929 . S
S2805 N2806 1.613 . S
S2805 N2807 1.610 . S
N2806 S2805 1.613 . S
N2806 C2809 1.350 . S
N2807 S2805 1.610 . S
N2807 C2808 1.351 . S
C2808 C2802 1.428 . S
C2808 N2807 1.351 . S
C2808 C2809 1.434 . S
C2809 C2800 1.429 . S
C2809 N2806 1.350 . S
C2809 C2808 1.434 . S
C2810 C2811 1.369 . S
C2810 C2812 1.419 . S
C2810 H2814 0.930 . S
C2811 C2810 1.369 . S
C2811 C2820 1.429 . S
C2812 C2810 1.419 . S
C2812 C2813 1.363 . S
C2812 H2815 0.929 . S
C2813 C2812 1.363 . S
C2813 C2819 1.428 . S
H2814 C2810 0.930 . S
H2815 C2812 0.929 . S
S2816 N2817 1.613 . S
S2816 N2818 1.610 . S
N2817 S2816 1.613 . S
N2817 C2820 1.350 . S
N2818 S2816 1.610 . S
N2818 C2819 1.351 . S
C2819 C2813 1.428 . S
C2819 N2818 1.351 . S
C2819 C2820 1.434 . S
C2820 C2811 1.429 . S
C2820 N2817 1.350 . S
C2820 C2819 1.434 . S
C2821 C2822 1.369 . S
C2821 C2823 1.419 . S
C2821 H2825 0.930 . S
C2822 C2821 1.369 . S
C2822 C2831 1.429 . S
C2823 C2821 1.419 . S
C2823 C2824 1.363 . S
C2823 H2826 0.929 . S
C2824 C2823 1.363 . S
C2824 C2830 1.428 . S
H2825 C2821 0.930 . S
H2826 C2823 0.929 . S
S2827 N2828 1.613 . S
S2827 N2829 1.610 . S
N2828 S2827 1.613 . S
N2828 C2831 1.350 . S
N2829 S2827 1.610 . S
N2829 C2830 1.351 . S
C2830 C2824 1.428 . S
C2830 N2829 1.351 . S
C2830 C2831 1.434 . S
C2831 C2822 1.429 . S
C2831 N2828 1.350 . S
C2831 C2830 1.434 . S
C2832 C2833 1.369 . S
C2832 C2834 1.419 . S
C2832 H2836 0.930 . S
C2833 C2832 1.369 . S
C2833 C2842 1.429 . S
C2834 C2832 1.419 . S
C2834 C2835 1.363 . S
C2834 H2837 0.929 . S
C2835 C2834 1.363 . S
C2835 C2841 1.428 . S
H2836 C2832 0.930 . S
H2837 C2834 0.929 . S
S2838 N2839 1.613 . S
S2838 N2840 1.610 . S
N2839 S2838 1.613 . S
N2839 C2842 1.350 . S
N2840 S2838 1.610 . S
N2840 C2841 1.351 . S
C2841 C2835 1.428 . S
C2841 N2840 1.351 . S
C2841 C2842 1.434 . S
C2842 C2833 1.429 . S
C2842 N2839 1.350 . S
C2842 C2841 1.434 . S
C2843 C2844 1.369 . S
C2843 C2845 1.419 . S
C2843 H2847 0.930 . S
C2844 C2843 1.369 . S
C2844 C2853 1.429 . S
C2845 C2843 1.419 . S
C2845 C2846 1.363 . S
C2845 H2848 0.929 . S
C2846 C2845 1.363 . S
C2846 C2852 1.428 . S
H2847 C2843 0.930 . S
H2848 C2845 0.929 . S
S2849 N2850 1.613 . S
S2849 N2851 1.610 . S
N2850 S2849 1.613 . S
N2850 C2853 1.350 . S
N2851 S2849 1.610 . S
N2851 C2852 1.351 . S
C2852 C2846 1.428 . S
C2852 N2851 1.351 . S
C2852 C2853 1.434 . S
C2853 C2844 1.429 . S
C2853 N2850 1.350 . S
C2853 C2852 1.434 . S
C2854 C2855 1.369 . S
C2854 C2856 1.419 . S
C2854 H2858 0.930 . S
C2855 C2854 1.369 . S
C2855 C2864 1.429 . S
C2856 C2854 1.419 . S
C2856 C2857 1.363 . S
C2856 H2859 0.929 . S
C2857 C2856 1.363 . S
C2857 C2863 1.428 . S
H2858 C2854 0.930 . S
H2859 C2856 0.929 . S
S2860 N2861 1.613 . S
S2860 N2862 1.610 . S
N2861 S2860 1.613 . S
N2861 C2864 1.350 . S
N2862 S2860 1.610 . S
N2862 C2863 1.351 . S
C2863 C2857 1.428 . S
C2863 N2862 1.351 . S
C2863 C2864 1.434 . S
C2864 C2855 1.429 . S
C2864 N2861 1.350 . S
C2864 C2863 1.434 . S
C2865 C2866 1.369 . S
C2865 C2867 1.419 . S
C2865 H2869 0.930 . S
C2866 C2865 1.369 . S
C2866 C2875 1.429 . S
C2867 C2865 1.419 . S
C2867 C2868 1.363 . S
C2867 H2870 0.929 . S
C2868 C2867 1.363 . S
C2868 C2874 1.428 . S
H2869 C2865 0.930 . S
H2870 C2867 0.929 . S
S2871 N2872 1.613 . S
S2871 N2873 1.610 . S
N2872 S2871 1.613 . S
N2872 C2875 1.350 . S
N2873 S2871 1.610 . S
N2873 C2874 1.351 . S
C2874 C2868 1.428 . S
C2874 N2873 1.351 . S
C2874 C2875 1.434 . S
C2875 C2866 1.429 . S
C2875 N2872 1.350 . S
C2875 C2874 1.434 . S
C2876 C2877 1.369 . S
C2876 C2878 1.419 . S
C2876 H2880 0.930 . S
C2877 C2876 1.369 . S
C2877 C2886 1.429 . S
C2878 C2876 1.419 . S
C2878 C2879 1.363 . S
C2878 H2881 0.929 . S
C2879 C2878 1.363 . S
C2879 C2885 1.428 . S
H2880 C2876 0.930 . S
H2881 C2878 0.929 . S
S2882 N2883 1.613 . S
S2882 N2884 1.610 . S
N2883 S2882 1.613 . S
N2883 C2886 1.350 . S
N2884 S2882 1.610 . S
N2884 C2885 1.351 . S
C2885 C2879 1.428 . S
C2885 N2884 1.351 . S
C2885 C2886 1.434 . S
C2886 C2877 1.429 . S
C2886 N2883 1.350 . S
C2886 C2885 1.434 . S
C2887 C2888 1.369 . S
C2887 C2889 1.419 . S
C2887 H2891 0.930 . S
C2888 C2887 1.369 . S
C2888 C2897 1.429 . S
C2889 C2887 1.419 . S
C2889 C2890 1.363 . S
C2889 H2892 0.929 . S
C2890 C2889 1.363 . S
C2890 C2896 1.428 . S
H2891 C2887 0.930 . S
H2892 C2889 0.929 . S
S2893 N2894 1.613 . S
S2893 N2895 1.610 . S
N2894 S2893 1.613 . S
N2894 C2897 1.350 . S
N2895 S2893 1.610 . S
N2895 C2896 1.351 . S
C2896 C2890 1.428 . S
C2896 N2895 1.351 . S
C2896 C2897 1.434 . S
C2897 C2888 1.429 . S
C2897 N2894 1.350 . S
C2897 C2896 1.434 . S
C2898 C2899 1.369 . S
C2898 C2900 1.419 . S
C2898 H2902 0.930 . S
C2899 C2898 1.369 . S
C2899 C2908 1.429 . S
C2900 C2898 1.419 . S
C2900 C2901 1.363 . S
C2900 H2903 0.929 . S
C2901 C2900 1.363 . S
C2901 C2907 1.428 . S
H2902 C2898 0.930 . S
H2903 C2900 0.929 . S
S2904 N2905 1.613 . S
S2904 N2906 1.610 . S
N2905 S2904 1.613 . S
N2905 C2908 1.350 . S
N2906 S2904 1.610 . S
N2906 C2907 1.351 . S
C2907 C2901 1.428 . S
C2907 N2906 1.351 . S
C2907 C2908 1.434 . S
C2908 C2899 1.429 . S
C2908 N2905 1.350 . S
C2908 C2907 1.434 . S
C2909 C2910 1.369 . S
C2909 C2911 1.419 . S
C2909 H2913 0.930 . S
C2910 C2909 1.369 . S
C2910 C2919 1.429 . S
C2911 C2909 1.419 . S
C2911 C2912 1.363 . S
C2911 H2914 0.929 . S
C2912 C2911 1.363 . S
C2912 C2918 1.428 . S
H2913 C2909 0.930 . S
H2914 C2911 0.929 . S
S2915 N2916 1.613 . S
S2915 N2917 1.610 . S
N2916 S2915 1.613 . S
N2916 C2919 1.350 . S
N2917 S2915 1.610 . S
N2917 C2918 1.351 . S
C2918 C2912 1.428 . S
C2918 N2917 1.351 . S
C2918 C2919 1.434 . S
C2919 C2910 1.429 . S
C2919 N2916 1.350 . S
C2919 C2918 1.434 . S
C2920 C2921 1.369 . S
C2920 C2922 1.419 . S
C2920 H2924 0.930 . S
C2921 C2920 1.369 . S
C2921 C2930 1.429 . S
C2922 C2920 1.419 . S
C2922 C2923 1.363 . S
C2922 H2925 0.929 . S
C2923 C2922 1.363 . S
C2923 C2929 1.428 . S
H2924 C2920 0.930 . S
H2925 C2922 0.929 . S
S2926 N2927 1.613 . S
S2926 N2928 1.610 . S
N2927 S2926 1.613 . S
N2927 C2930 1.350 . S
N2928 S2926 1.610 . S
N2928 C2929 1.351 . S
C2929 C2923 1.428 . S
C2929 N2928 1.351 . S
C2929 C2930 1.434 . S
C2930 C2921 1.429 . S
C2930 N2927 1.350 . S
C2930 C2929 1.434 . S
C2931 C2932 1.369 . S
C2931 C2933 1.419 . S
C2931 H2935 0.930 . S
C2932 C2931 1.369 . S
C2932 C2941 1.429 . S
C2933 C2931 1.419 . S
C2933 C2934 1.363 . S
C2933 H2936 0.929 . S
C2934 C2933 1.363 . S
C2934 C2940 1.428 . S
H2935 C2931 0.930 . S
H2936 C2933 0.929 . S
S2937 N2938 1.613 . S
S2937 N2939 1.610 . S
N2938 S2937 1.613 . S
N2938 C2941 1.350 . S
N2939 S2937 1.610 . S
N2939 C2940 1.351 . S
C2940 C2934 1.428 . S
C2940 N2939 1.351 . S
C2940 C2941 1.434 . S
C2941 C2932 1.429 . S
C2941 N2938 1.350 . S
C2941 C2940 1.434 . S
C2942 C2943 1.369 . S
C2942 C2944 1.419 . S
C2942 H2946 0.930 . S
C2943 C2942 1.369 . S
C2943 C2952 1.429 . S
C2944 C2942 1.419 . S
C2944 C2945 1.363 . S
C2944 H2947 0.929 . S
C2945 C2944 1.363 . S
C2945 C2951 1.428 . S
H2946 C2942 0.930 . S
H2947 C2944 0.929 . S
S2948 N2949 1.613 . S
S2948 N2950 1.610 . S
N2949 S2948 1.613 . S
N2949 C2952 1.350 . S
N2950 S2948 1.610 . S
N2950 C2951 1.351 . S
C2951 C2945 1.428 . S
C2951 N2950 1.351 . S
C2951 C2952 1.434 . S
C2952 C2943 1.429 . S
C2952 N2949 1.350 . S
C2952 C2951 1.434 . S
C2953 C2954 1.369 . S
C2953 C2955 1.419 . S
C2953 H2957 0.930 . S
C2954 C2953 1.369 . S
C2954 C2963 1.429 . S
C2955 C2953 1.419 . S
C2955 C2956 1.363 . S
C2955 H2958 0.929 . S
C2956 C2955 1.363 . S
C2956 C2962 1.428 . S
H2957 C2953 0.930 . S
H2958 C2955 0.929 . S
S2959 N2960 1.613 . S
S2959 N2961 1.610 . S
N2960 S2959 1.613 . S
N2960 C2963 1.350 . S
N2961 S2959 1.610 . S
N2961 C2962 1.351 . S
C2962 C2956 1.428 . S
C2962 N2961 1.351 . S
C2962 C2963 1.434 . S
C2963 C2954 1.429 . S
C2963 N2960 1.350 . S
C2963 C2962 1.434 . S
C2964 C2965 1.369 . S
C2964 C2966 1.419 . S
C2964 H2968 0.930 . S
C2965 C2964 1.369 . S
C2965 C2974 1.429 . S
C2966 C2964 1.419 . S
C2966 C2967 1.363 . S
C2966 H2969 0.929 . S
C2967 C2966 1.363 . S
C2967 C2973 1.428 . S
H2968 C2964 0.930 . S
H2969 C2966 0.929 . S
S2970 N2971 1.613 . S
S2970 N2972 1.610 . S
N2971 S2970 1.613 . S
N2971 C2974 1.350 . S
N2972 S2970 1.610 . S
N2972 C2973 1.351 . S
C2973 C2967 1.428 . S
C2973 N2972 1.351 . S
C2973 C2974 1.434 . S
C2974 C2965 1.429 . S
C2974 N2971 1.350 . S
C2974 C2973 1.434 . S
C2975 C2976 1.369 . S
C2975 C2977 1.419 . S
C2975 H2979 0.930 . S
C2976 C2975 1.369 . S
C2976 C2985 1.429 . S
C2977 C2975 1.419 . S
C2977 C2978 1.363 . S
C2977 H2980 0.929 . S
C2978 C2977 1.363 . S
C2978 C2984 1.428 . S
H2979 C2975 0.930 . S
H2980 C2977 0.929 . S
S2981 N2982 1.613 . S
S2981 N2983 1.610 . S
N2982 S2981 1.613 . S
N2982 C2985 1.350 . S
N2983 S2981 1.610 . S
N2983 C2984 1.351 . S
C2984 C2978 1.428 . S
C2984 N2983 1.351 . S
C2984 C2985 1.434 . S
C2985 C2976 1.429 . S
C2985 N2982 1.350 . S
C2985 C2984 1.434 . S
C2986 C2987 1.369 . S
C2986 C2988 1.419 . S
C2986 H2990 0.930 . S
C2987 C2986 1.369 . S
C2987 C2996 1.429 . S
C2988 C2986 1.419 . S
C2988 C2989 1.363 . S
C2988 H2991 0.929 . S
C2989 C2988 1.363 . S
C2989 C2995 1.428 . S
H2990 C2986 0.930 . S
H2991 C2988 0.929 . S
S2992 N2993 1.613 . S
S2992 N2994 1.610 . S
N2993 S2992 1.613 . S
N2993 C2996 1.350 . S
N2994 S2992 1.610 . S
N2994 C2995 1.351 . S
C2995 C2989 1.428 . S
C2995 N2994 1.351 . S
C2995 C2996 1.434 . S
C2996 C2987 1.429 . S
C2996 N2993 1.350 . S
C2996 C2995 1.434 . S
C2997 C2998 1.369 . S
C2997 C2999 1.419 . S
C2997 H3001 0.930 . S
C2998 C2997 1.369 . S
C2998 C3007 1.429 . S
C2999 C2997 1.419 . S
C2999 C3000 1.363 . S
C2999 H3002 0.929 . S
C3000 C2999 1.363 . S
C3000 C3006 1.428 . S
H3001 C2997 0.930 . S
H3002 C2999 0.929 . S
S3003 N3004 1.613 . S
S3003 N3005 1.610 . S
N3004 S3003 1.613 . S
N3004 C3007 1.350 . S
N3005 S3003 1.610 . S
N3005 C3006 1.351 . S
C3006 C3000 1.428 . S
C3006 N3005 1.351 . S
C3006 C3007 1.434 . S
C3007 C2998 1.429 . S
C3007 N3004 1.350 . S
C3007 C3006 1.434 . S
C3008 C3009 1.369 . S
C3008 C3010 1.419 . S
C3008 H3012 0.930 . S
C3009 C3008 1.369 . S
C3009 C3018 1.429 . S
C3010 C3008 1.419 . S
C3010 C3011 1.363 . S
C3010 H3013 0.929 . S
C3011 C3010 1.363 . S
C3011 C3017 1.428 . S
H3012 C3008 0.930 . S
H3013 C3010 0.929 . S
S3014 N3015 1.613 . S
S3014 N3016 1.610 . S
N3015 S3014 1.613 . S
N3015 C3018 1.350 . S
N3016 S3014 1.610 . S
N3016 C3017 1.351 . S
C3017 C3011 1.428 . S
C3017 N3016 1.351 . S
C3017 C3018 1.434 . S
C3018 C3009 1.429 . S
C3018 N3015 1.350 . S
C3018 C3017 1.434 . S
C3019 C3020 1.369 . S
C3019 C3021 1.419 . S
C3019 H3023 0.930 . S
C3020 C3019 1.369 . S
C3020 C3029 1.429 . S
C3021 C3019 1.419 . S
C3021 C3022 1.363 . S
C3021 H3024 0.929 . S
C3022 C3021 1.363 . S
C3022 C3028 1.428 . S
H3023 C3019 0.930 . S
H3024 C3021 0.929 . S
S3025 N3026 1.613 . S
S3025 N3027 1.610 . S
N3026 S3025 1.613 . S
N3026 C3029 1.350 . S
N3027 S3025 1.610 . S
N3027 C3028 1.351 . S
C3028 C3022 1.428 . S
C3028 N3027 1.351 . S
C3028 C3029 1.434 . S
C3029 C3020 1.429 . S
C3029 N3026 1.350 . S
C3029 C3028 1.434 . S
C3030 C3031 1.369 . S
C3030 C3032 1.419 . S
C3030 H3034 0.930 . S
C3031 C3030 1.369 . S
C3031 C3040 1.429 . S
C3032 C3030 1.419 . S
C3032 C3033 1.363 . S
C3032 H3035 0.929 . S
C3033 C3032 1.363 . S
C3033 C3039 1.428 . S
H3034 C3030 0.930 . S
H3035 C3032 0.929 . S
S3036 N3037 1.613 . S
S3036 N3038 1.610 . S
N3037 S3036 1.613 . S
N3037 C3040 1.350 . S
N3038 S3036 1.610 . S
N3038 C3039 1.351 . S
C3039 C3033 1.428 . S
C3039 N3038 1.351 . S
C3039 C3040 1.434 . S
C3040 C3031 1.429 . S
C3040 N3037 1.350 . S
C3040 C3039 1.434 . S
C3041 C3042 1.369 . S
C3041 C3043 1.419 . S
C3041 H3045 0.930 . S
C3042 C3041 1.369 . S
C3042 C3051 1.429 . S
C3043 C3041 1.419 . S
C3043 C3044 1.363 . S
C3043 H3046 0.929 . S
C3044 C3043 1.363 . S
C3044 C3050 1.428 . S
H3045 C3041 0.930 . S
H3046 C3043 0.929 . S
S3047 N3048 1.613 . S
S3047 N3049 1.610 . S
N3048 S3047 1.613 . S
N3048 C3051 1.350 . S
N3049 S3047 1.610 . S
N3049 C3050 1.351 . S
C3050 C3044 1.428 . S
C3050 N3049 1.351 . S
C3050 C3051 1.434 . S
C3051 C3042 1.429 . S
C3051 N3048 1.350 . S
C3051 C3050 1.434 . S
C3052 C3053 1.369 . S
C3052 C3054 1.419 . S
C3052 H3056 0.930 . S
C3053 C3052 1.369 . S
C3053 C3062 1.429 . S
C3054 C3052 1.419 . S
C3054 C3055 1.363 . S
C3054 H3057 0.929 . S
C3055 C3054 1.363 . S
C3055 C3061 1.428 . S
H3056 C3052 0.930 . S
H3057 C3054 0.929 . S
S3058 N3059 1.613 . S
S3058 N3060 1.610 . S
N3059 S3058 1.613 . S
N3059 C3062 1.350 . S
N3060 S3058 1.610 . S
N3060 C3061 1.351 . S
C3061 C3055 1.428 . S
C3061 N3060 1.351 . S
C3061 C3062 1.434 . S
C3062 C3053 1.429 . S
C3062 N3059 1.350 . S
C3062 C3061 1.434 . S
C3063 C3064 1.369 . S
C3063 C3065 1.419 . S
C3063 H3067 0.930 . S
C3064 C3063 1.369 . S
C3064 C3073 1.429 . S
C3065 C3063 1.419 . S
C3065 C3066 1.363 . S
C3065 H3068 0.929 . S
C3066 C3065 1.363 . S
C3066 C3072 1.428 . S
H3067 C3063 0.930 . S
H3068 C3065 0.929 . S
S3069 N3070 1.613 . S
S3069 N3071 1.610 . S
N3070 S3069 1.613 . S
N3070 C3073 1.350 . S
N3071 S3069 1.610 . S
N3071 C3072 1.351 . S
C3072 C3066 1.428 . S
C3072 N3071 1.351 . S
C3072 C3073 1.434 . S
C3073 C3064 1.429 . S
C3073 N3070 1.350 . S
C3073 C3072 1.434 . S
C3074 C3075 1.369 . S
C3074 C3076 1.419 . S
C3074 H3078 0.930 . S
C3075 C3074 1.369 . S
C3075 C3084 1.429 . S
C3076 C3074 1.419 . S
C3076 C3077 1.363 . S
C3076 H3079 0.929 . S
C3077 C3076 1.363 . S
C3077 C3083 1.428 . S
H3078 C3074 0.930 . S
H3079 C3076 0.929 . S
S3080 N3081 1.613 . S
S3080 N3082 1.610 . S
N3081 S3080 1.613 . S
N3081 C3084 1.350 . S
N3082 S3080 1.610 . S
N3082 C3083 1.351 . S
C3083 C3077 1.428 . S
C3083 N3082 1.351 . S
C3083 C3084 1.434 . S
C3084 C3075 1.429 . S
C3084 N3081 1.350 . S
C3084 C3083 1.434 . S
C3085 C3086 1.369 . S
C3085 C3087 1.419 . S
C3085 H3089 0.930 . S
C3086 C3085 1.369 . S
C3086 C3095 1.429 . S
C3087 C3085 1.419 . S
C3087 C3088 1.363 . S
C3087 H3090 0.929 . S
C3088 C3087 1.363 . S
C3088 C3094 1.428 . S
H3089 C3085 0.930 . S
H3090 C3087 0.929 . S
S3091 N3092 1.613 . S
S3091 N3093 1.610 . S
N3092 S3091 1.613 . S
N3092 C3095 1.350 . S
N3093 S3091 1.610 . S
N3093 C3094 1.351 . S
C3094 C3088 1.428 . S
C3094 N3093 1.351 . S
C3094 C3095 1.434 . S
C3095 C3086 1.429 . S
C3095 N3092 1.350 . S
C3095 C3094 1.434 . S
C3096 C3097 1.369 . S
C3096 C3098 1.419 1_556 S
C3096 H3100 0.930 . S
C3097 C3096 1.369 . S
C3097 C3106 1.429 . S
C3098 C3096 1.419 1_554 S
C3098 C3099 1.363 . S
C3098 H3101 0.929 . S
C3099 C3098 1.363 . S
C3099 C3105 1.428 . S
H3100 C3096 0.930 . S
H3101 C3098 0.929 . S
S3102 N3103 1.601 1_554 S
S3102 N3104 1.623 . S
N3103 S3102 1.601 1_556 S
N3103 C3106 1.350 . S
N3104 S3102 1.623 . S
N3104 C3105 1.351 . S
C3105 C3099 1.428 . S
C3105 N3104 1.351 . S
C3105 C3106 1.434 1_554 S
C3106 C3097 1.429 . S
C3106 N3103 1.350 . S
C3106 C3105 1.434 1_556 S
C3107 C3108 1.369 . S
C3107 C3109 1.419 1_554 S
C3107 H3111 0.930 . S
C3108 C3107 1.369 . S
C3108 C3117 1.429 . S
C3109 C3107 1.419 1_556 S
C3109 C3110 1.363 . S
C3109 H3112 0.929 . S
C3110 C3109 1.363 . S
C3110 C3116 1.428 . S
H3111 C3107 0.930 . S
H3112 C3109 0.929 . S
S3113 N3114 1.619 . S
S3113 N3115 1.604 1_554 S
N3114 S3113 1.619 . S
N3114 C3117 1.350 . S
N3115 S3113 1.604 1_556 S
N3115 C3116 1.351 . S
C3116 C3110 1.428 . S
C3116 N3115 1.351 . S
C3116 C3117 1.434 1_556 S
C3117 C3108 1.429 . S
C3117 N3114 1.350 . S
C3117 C3116 1.434 1_554 S
C3118 C3119 1.369 . S
C3118 C3120 1.419 1_554 S
C3118 H3122 0.930 . S
C3119 C3118 1.369 . S
C3119 C3128 1.429 . S
C3120 C3118 1.419 1_556 S
C3120 C3121 1.363 . S
C3120 H3123 0.929 . S
C3121 C3120 1.363 . S
C3121 C3127 1.428 . S
H3122 C3118 0.930 . S
H3123 C3120 0.929 . S
S3124 N3125 1.613 . S
S3124 N3126 1.610 1_554 S
N3125 S3124 1.613 . S
N3125 C3128 1.350 . S
N3126 S3124 1.610 1_556 S
N3126 C3127 1.351 . S
C3127 C3121 1.428 . S
C3127 N3126 1.351 . S
C3127 C3128 1.434 1_556 S
C3128 C3119 1.429 . S
C3128 N3125 1.350 . S
C3128 C3127 1.434 1_554 S
C3129 C3130 1.369 . S
C3129 C3131 1.419 1_554 S
C3129 H3133 0.930 . S
C3130 C3129 1.369 . S
C3130 C3139 1.429 . S
C3131 C3129 1.419 1_556 S
C3131 C3132 1.363 . S
C3131 H3134 0.929 . S
C3132 C3131 1.363 . S
C3132 C3138 1.428 . S
H3133 C3129 0.930 . S
H3134 C3131 0.929 . S
S3135 N3136 1.613 . S
S3135 N3137 1.610 1_554 S
N3136 S3135 1.613 . S
N3136 C3139 1.350 . S
N3137 S3135 1.610 1_556 S
N3137 C3138 1.351 . S
C3138 C3132 1.428 . S
C3138 N3137 1.351 . S
C3138 C3139 1.434 1_556 S
C3139 C3130 1.429 . S
C3139 N3136 1.350 . S
C3139 C3138 1.434 1_554 S
C3140 C3141 1.369 . S
C3140 C3142 1.419 1_554 S
C3140 H3144 0.930 . S
C3141 C3140 1.369 . S
C3141 C3150 1.429 . S
C3142 C3140 1.419 1_556 S
C3142 C3143 1.363 . S
C3142 H3145 0.929 . S
C3143 C3142 1.363 . S
C3143 C3149 1.428 . S
H3144 C3140 0.930 . S
H3145 C3142 0.929 . S
S3146 N3147 1.613 1_556 S
S3146 N3148 1.610 . S
N3147 S3146 1.613 1_554 S
N3147 C3150 1.350 . S
N3148 S3146 1.610 . S
N3148 C3149 1.351 . S
C3149 C3143 1.428 . S
C3149 N3148 1.351 . S
C3149 C3150 1.434 1_556 S
C3150 C3141 1.429 . S
C3150 N3147 1.350 . S
C3150 C3149 1.434 1_554 S
C3151 C3152 1.369 . S
C3151 C3153 1.419 1_556 S
C3151 H3155 0.930 . S
C3152 C3151 1.369 . S
C3152 C3161 1.429 . S
C3153 C3151 1.419 1_554 S
C3153 C3154 1.363 . S
C3153 H3156 0.929 . S
C3154 C3153 1.363 . S
C3154 C3160 1.428 . S
H3155 C3151 0.930 . S
H3156 C3153 0.929 . S
S3157 N3158 1.640 . S
S3157 N3159 1.585 1_556 S
N3158 S3157 1.640 . S
N3158 C3161 1.350 . S
N3159 S3157 1.585 1_554 S
N3159 C3160 1.351 . S
C3160 C3154 1.428 . S
C3160 N3159 1.351 . S
C3160 C3161 1.434 1_554 S
C3161 C3152 1.429 . S
C3161 N3158 1.350 . S
C3161 C3160 1.434 1_556 S
C3162 C3163 1.369 . S
C3162 C3164 1.419 1_554 S
C3162 H3166 0.930 . S
C3163 C3162 1.369 . S
C3163 C3172 1.429 . S
C3164 C3162 1.419 1_556 S
C3164 C3165 1.363 . S
C3164 H3167 0.929 . S
C3165 C3164 1.363 . S
C3165 C3171 1.428 . S
H3166 C3162 0.930 . S
H3167 C3164 0.929 . S
S3168 N3169 1.613 1_556 S
S3168 N3170 1.610 . S
N3169 S3168 1.613 1_554 S
N3169 C3172 1.350 . S
N3170 S3168 1.610 . S
N3170 C3171 1.351 . S
C3171 C3165 1.428 . S
C3171 N3170 1.351 . S
C3171 C3172 1.434 1_556 S
C3172 C3163 1.429 . S
C3172 N3169 1.350 . S
C3172 C3171 1.434 1_554 S
C3173 C3174 1.369 . S
C3173 C3175 1.419 1_556 S
C3173 H3177 0.930 . S
C3174 C3173 1.369 . S
C3174 C3183 1.429 . S
C3175 C3173 1.419 1_554 S
C3175 C3176 1.363 . S
C3175 H3178 0.929 . S
C3176 C3175 1.363 . S
C3176 C3182 1.428 . S
H3177 C3173 0.930 . S
H3178 C3175 0.929 . S
S3179 N3180 1.613 . S
S3179 N3181 1.610 1_556 S
N3180 S3179 1.613 . S
N3180 C3183 1.350 . S
N3181 S3179 1.610 1_554 S
N3181 C3182 1.351 . S
C3182 C3176 1.428 . S
C3182 N3181 1.351 . S
C3182 C3183 1.434 1_554 S
C3183 C3174 1.429 . S
C3183 N3180 1.350 . S
C3183 C3182 1.434 1_556 S
C3184 C3185 1.369 . S
C3184 C3186 1.419 1_655 S
C3184 H3188 0.930 . S
C3185 C3184 1.369 . S
C3185 C3194 1.429 . S
C3186 C3184 1.419 1_455 S
C3186 C3187 1.363 . S
C3186 H3189 0.929 . S
C3187 C3186 1.363 . S
C3187 C3193 1.428 . S
H3188 C3184 0.930 . S
H3189 C3186 0.929 . S
S3190 N3191 1.613 1_455 S
S3190 N3192 1.610 . S
N3191 S3190 1.613 1_655 S
N3191 C3194 1.350 . S
N3192 S3190 1.610 . S
N3192 C3193 1.351 . S
C3193 C3187 1.428 . S
C3193 N3192 1.351 . S
C3193 C3194 1.434 1_455 S
C3194 C3185 1.429 . S
C3194 N3191 1.350 . S
C3194 C3193 1.434 1_655 S
C3195 C3196 1.369 . S
C3195 C3197 1.419 1_545 S
C3195 H3199 0.930 . S
C3196 C3195 1.369 . S
C3196 C3205 1.429 . S
C3197 C3195 1.419 1_565 S
C3197 C3198 1.363 . S
C3197 H3200 0.929 . S
C3198 C3197 1.363 . S
C3198 C3204 1.428 . S
H3199 C3195 0.930 . S
H3200 C3197 0.929 . S
S3201 N3202 1.598 1_565 S
S3201 N3203 1.625 . S
N3202 S3201 1.598 1_545 S
N3202 C3205 1.350 . S
N3203 S3201 1.625 . S
N3203 C3204 1.351 . S
C3204 C3198 1.428 . S
C3204 N3203 1.351 . S
C3204 C3205 1.434 1_565 S
C3205 C3196 1.429 . S
C3205 N3202 1.350 . S
C3205 C3204 1.434 1_545 S
C3206 C3207 1.369 . S
C3206 C3208 1.419 1_455 S
C3206 H3210 0.930 . S
C3207 C3206 1.369 . S
C3207 C3216 1.429 . S
C3208 C3206 1.419 1_655 S
C3208 C3209 1.363 . S
C3208 H3211 0.929 . S
C3209 C3208 1.363 . S
C3209 C3215 1.428 . S
H3210 C3206 0.930 . S
H3211 C3208 0.929 . S
S3212 N3213 1.613 1_655 S
S3212 N3214 1.610 . S
N3213 S3212 1.613 1_455 S
N3213 C3216 1.350 . S
N3214 S3212 1.610 . S
N3214 C3215 1.351 . S
C3215 C3209 1.428 . S
C3215 N3214 1.351 . S
C3215 C3216 1.434 1_655 S
C3216 C3207 1.429 . S
C3216 N3213 1.350 . S
C3216 C3215 1.434 1_455 S
C3217 C3218 1.369 . S
C3217 C3219 1.419 1_565 S
C3217 H3221 0.930 . S
C3218 C3217 1.369 . S
C3218 C3227 1.429 . S
C3219 C3217 1.419 1_545 S
C3219 C3220 1.363 . S
C3219 H3222 0.929 . S
C3220 C3219 1.363 . S
C3220 C3226 1.428 . S
H3221 C3217 0.930 . S
H3222 C3219 0.929 . S
S3223 N3224 1.608 1_545 S
S3223 N3225 1.615 . S
N3224 S3223 1.608 1_565 S
N3224 C3227 1.350 . S
N3225 S3223 1.615 . S
N3225 C3226 1.351 . S
C3226 C3220 1.428 . S
C3226 N3225 1.351 . S
C3226 C3227 1.434 1_545 S
C3227 C3218 1.429 . S
C3227 N3224 1.350 . S
C3227 C3226 1.434 1_565 S
C3228 C3229 1.369 . S
C3228 C3230 1.419 1_455 S
C3228 H3232 0.930 . S
C3229 C3228 1.369 . S
C3229 C3238 1.429 . S
C3230 C3228 1.419 1_655 S
C3230 C3231 1.363 . S
C3230 H3233 0.929 . S
C3231 C3230 1.363 . S
C3231 C3237 1.428 . S
H3232 C3228 0.930 . S
H3233 C3230 0.929 . S
S3234 N3235 1.613 . S
S3234 N3236 1.610 1_455 S
N3235 S3234 1.613 . S
N3235 C3238 1.350 . S
N3236 S3234 1.610 1_655 S
N3236 C3237 1.351 . S
C3237 C3231 1.428 . S
C3237 N3236 1.351 . S
C3237 C3238 1.434 1_655 S
C3238 C3229 1.429 . S
C3238 N3235 1.350 . S
C3238 C3237 1.434 1_455 S
C3239 C3240 1.369 . S
C3239 C3241 1.419 1_545 S
C3239 H3243 0.930 . S
C3240 C3239 1.369 . S
C3240 C3249 1.429 . S
C3241 C3239 1.419 1_565 S
C3241 C3242 1.363 . S
C3241 H3244 0.929 . S
C3242 C3241 1.363 . S
C3242 C3248 1.428 . S
H3243 C3239 0.930 . S
H3244 C3241 0.929 . S
S3245 N3246 1.603 1_565 S
S3245 N3247 1.620 . S
N3246 S3245 1.603 1_545 S
N3246 C3249 1.350 . S
N3247 S3245 1.620 . S
N3247 C3248 1.351 . S
C3248 C3242 1.428 . S
C3248 N3247 1.351 . S
C3248 C3249 1.434 1_565 S
C3249 C3240 1.429 . S
C3249 N3246 1.350 . S
C3249 C3248 1.434 1_545 S
C3250 C3251 1.369 . S
C3250 C3252 1.419 1_655 S
C3250 H3254 0.930 . S
C3251 C3250 1.369 . S
C3251 C3260 1.429 . S
C3252 C3250 1.419 1_455 S
C3252 C3253 1.363 . S
C3252 H3255 0.929 . S
C3253 C3252 1.363 . S
C3253 C3259 1.428 . S
H3254 C3250 0.930 . S
H3255 C3252 0.929 . S
S3256 N3257 1.657 . S
S3256 N3258 1.568 1_655 S
N3257 S3256 1.657 . S
N3257 C3260 1.350 . S
N3258 S3256 1.568 1_455 S
N3258 C3259 1.351 . S
C3259 C3253 1.428 . S
C3259 N3258 1.351 . S
C3259 C3260 1.434 1_455 S
C3260 C3251 1.429 . S
C3260 N3257 1.350 . S
C3260 C3259 1.434 1_655 S
C3261 C3262 1.369 . S
C3261 C3263 1.419 1_565 S
C3261 H3265 0.930 . S
C3262 C3261 1.369 . S
C3262 C3271 1.429 . S
C3263 C3261 1.419 1_545 S
C3263 C3264 1.363 . S
C3263 H3266 0.929 . S
C3264 C3263 1.363 . S
C3264 C3270 1.428 . S
H3265 C3261 0.930 . S
H3266 C3263 0.929 . S
S3267 N3268 1.590 1_545 S
S3267 N3269 1.632 . S
N3268 S3267 1.590 1_565 S
N3268 C3271 1.350 . S
N3269 S3267 1.632 . S
N3269 C3270 1.351 . S
C3270 C3264 1.428 . S
C3270 N3269 1.351 . S
C3270 C3271 1.434 1_545 S
C3271 C3262 1.429 . S
C3271 N3268 1.350 . S
C3271 C3270 1.434 1_565 S
C3272 C3273 1.369 . S
C3272 C3274 1.419 1_565 S
C3272 H3276 0.930 . S
C3273 C3272 1.369 . S
C3273 C3282 1.429 . S
C3274 C3272 1.419 1_545 S
C3274 C3275 1.363 . S
C3274 H3277 0.929 . S
C3275 C3274 1.363 . S
C3275 C3281 1.428 . S
H3276 C3272 0.930 . S
H3277 C3274 0.929 . S
S3278 N3279 1.637 . S
S3278 N3280 1.585 1_565 S
N3279 S3278 1.637 . S
N3279 C3282 1.350 . S
N3280 S3278 1.585 1_545 S
N3280 C3281 1.351 . S
C3281 C3275 1.428 . S
C3281 N3280 1.351 . S
C3281 C3282 1.434 1_545 S
C3282 C3273 1.429 . S
C3282 N3279 1.350 . S
C3282 C3281 1.434 1_565 S
C3283 C3284 1.369 . S
C3283 C3285 1.419 1_565 S
C3283 H3287 0.930 . S
C3284 C3283 1.369 . S
C3284 C3293 1.429 . S
C3285 C3283 1.419 1_545 S
C3285 C3286 1.363 . S
C3285 H3288 0.929 . S
C3286 C3285 1.363 . S
C3286 C3292 1.428 . S
H3287 C3283 0.930 . S
H3288 C3285 0.929 . S
S3289 N3290 1.613 . S
S3289 N3291 1.610 1_565 S
N3290 S3289 1.613 . S
N3290 C3293 1.350 . S
N3291 S3289 1.610 1_545 S
N3291 C3292 1.351 . S
C3292 C3286 1.428 . S
C3292 N3291 1.351 . S
C3292 C3293 1.434 1_545 S
C3293 C3284 1.429 . S
C3293 N3290 1.350 . S
C3293 C3292 1.434 1_565 S
C3294 C3295 1.369 . S
C3294 C3296 1.419 1_455 S
C3294 H3298 0.930 . S
C3295 C3294 1.369 . S
C3295 C3304 1.429 . S
C3296 C3294 1.419 1_655 S
C3296 C3297 1.363 . S
C3296 H3299 0.929 . S
C3297 C3296 1.363 . S
C3297 C3303 1.428 . S
H3298 C3294 0.930 . S
H3299 C3296 0.929 . S
S3300 N3301 1.635 . S
S3300 N3302 1.589 1_455 S
N3301 S3300 1.635 . S
N3301 C3304 1.350 . S
N3302 S3300 1.589 1_655 S
N3302 C3303 1.351 . S
C3303 C3297 1.428 . S
C3303 N3302 1.351 . S
C3303 C3304 1.434 1_655 S
C3304 C3295 1.429 . S
C3304 N3301 1.350 . S
C3304 C3303 1.434 1_455 S
C3305 C3306 1.369 . S
C3305 C3307 1.419 1_545 S
C3305 H3309 0.930 . S
C3306 C3305 1.369 . S
C3306 C3315 1.429 . S
C3307 C3305 1.419 1_565 S
C3307 C3308 1.363 . S
C3307 H3310 0.929 . S
C3308 C3307 1.363 . S
C3308 C3314 1.428 . S
H3309 C3305 0.930 . S
H3310 C3307 0.929 . S
S3311 N3312 1.661 . S
S3311 N3313 1.565 1_545 S
N3312 S3311 1.661 . S
N3312 C3315 1.350 . S
N3313 S3311 1.565 1_565 S
N3313 C3314 1.351 . S
C3314 C3308 1.428 . S
C3314 N3313 1.351 . S
C3314 C3315 1.434 1_565 S
C3315 C3306 1.429 . S
C3315 N3312 1.350 . S
C3315 C3314 1.434 1_545 S
C3316 C3317 1.369 . S
C3316 C3318 1.419 1_655 S
C3316 H3320 0.930 . S
C3317 C3316 1.369 . S
C3317 C3326 1.429 . S
C3318 C3316 1.419 1_455 S
C3318 C3319 1.363 . S
C3318 H3321 0.929 . S
C3319 C3318 1.363 . S
C3319 C3325 1.428 . S
H3320 C3316 0.930 . S
H3321 C3318 0.929 . S
S3322 N3323 1.607 1_455 S
S3322 N3324 1.616 . S
N3323 S3322 1.607 1_655 S
N3323 C3326 1.350 . S
N3324 S3322 1.616 . S
N3324 C3325 1.351 . S
C3325 C3319 1.428 . S
C3325 N3324 1.351 . S
C3325 C3326 1.434 1_455 S
C3326 C3317 1.429 . S
C3326 N3323 1.350 . S
C3326 C3325 1.434 1_655 S
C3327 C3328 1.369 . S
C3327 C3329 1.419 1_545 S
C3327 H3331 0.930 . S
C3328 C3327 1.369 . S
C3328 C3337 1.429 . S
C3329 C3327 1.419 1_565 S
C3329 C3330 1.363 . S
C3329 H3332 0.929 . S
C3330 C3329 1.363 . S
C3330 C3336 1.428 . S
H3331 C3327 0.930 . S
H3332 C3329 0.929 . S
S3333 N3334 1.613 1_565 S
S3333 N3335 1.610 . S
N3334 S3333 1.613 1_545 S
N3334 C3337 1.350 . S
N3335 S3333 1.610 . S
N3335 C3336 1.351 . S
C3336 C3330 1.428 . S
C3336 N3335 1.351 . S
C3336 C3337 1.434 1_565 S
C3337 C3328 1.429 . S
C3337 N3334 1.350 . S
C3337 C3336 1.434 1_545 S
C3338 C3339 1.369 . S
C3338 C3340 1.419 1_655 S
C3338 H3342 0.930 . S
C3339 C3338 1.369 . S
C3339 C3348 1.429 . S
C3340 C3338 1.419 1_455 S
C3340 C3341 1.363 . S
C3340 H3343 0.929 . S
C3341 C3340 1.363 . S
C3341 C3347 1.428 . S
H3342 C3338 0.930 . S
H3343 C3340 0.929 . S
S3344 N3345 1.620 . S
S3344 N3346 1.603 1_655 S
N3345 S3344 1.620 . S
N3345 C3348 1.350 . S
N3346 S3344 1.603 1_455 S
N3346 C3347 1.351 . S
C3347 C3341 1.428 . S
C3347 N3346 1.351 . S
C3347 C3348 1.434 1_455 S
C3348 C3339 1.429 . S
C3348 N3345 1.350 . S
C3348 C3347 1.434 1_655 S
C3349 C3350 1.369 . S
C3349 C3351 1.419 1_655 S
C3349 H3353 0.930 . S
C3350 C3349 1.369 . S
C3350 C3359 1.429 . S
C3351 C3349 1.419 1_455 S
C3351 C3352 1.363 . S
C3351 H3354 0.929 . S
C3352 C3351 1.363 . S
C3352 C3358 1.428 . S
H3353 C3349 0.930 . S
H3354 C3351 0.929 . S
S3355 N3356 1.613 . S
S3355 N3357 1.610 1_655 S
N3356 S3355 1.613 . S
N3356 C3359 1.350 . S
N3357 S3355 1.610 1_455 S
N3357 C3358 1.351 . S
C3358 C3352 1.428 . S
C3358 N3357 1.351 . S
C3358 C3359 1.434 1_455 S
C3359 C3350 1.429 . S
C3359 N3356 1.350 . S
C3359 C3358 1.434 1_655 S
C1249 C0 1.310 . S
C1251 C403 1.302 . S
C1260 C13 1.310 . S
C1262 C364 1.302 . S
C1271 C377 1.302 . S
C1273 C26 1.310 . S
C1282 C390 1.305 . S
C1284 C39 1.307 . S
C1293 C325 1.302 . S
C1295 C52 1.307 . S
C1304 C338 1.301 . S
C1306 C65 1.310 . S
C1315 C78 1.308 . S
C1317 C351 1.300 . S
C1326 C312 1.300 . S
C1328 C91 1.310 . S
C1337 C104 1.310 . S
C1339 C572 1.301 . S
C1348 C117 1.310 . S
C1350 C533 1.303 . S
C1359 C130 1.309 . S
C1361 C546 1.303 . S
C1370 C143 1.310 . S
C1372 C559 1.301 . S
C1381 C156 1.306 . S
C1383 C611 1.302 . S
C1392 C169 1.307 . S
C1394 C585 1.304 . S
C1403 C182 1.306 . S
C1405 C598 1.303 . S
C1414 C520 1.300 . S
C1416 C195 1.308 . S
C1425 C208 1.306 . S
C1427 C507 1.304 . S
C1436 C429 1.305 . S
C1438 C221 1.307 . S
C1447 C442 1.305 . S
C1449 C234 1.306 . S
C1458 C247 1.310 . S
C1460 C455 1.301 . S
C1469 C416 1.300 . S
C1471 C260 1.310 . S
C1480 C481 1.305 . S
C1482 C273 1.308 . S
C1491 C286 1.308 . S
C1493 C494 1.304 . S
C1502 C299 1.310 . S
C1504 C468 1.302 . S
C1513 C1027 1.299 . S
C1515 C624 1.309 . S
C1524 C988 1.300 . S
C1526 C637 1.310 . S
C1535 C650 1.308 . S
C1537 C1001 1.300 . S
C1546 C1014 1.300 . S
C1548 C663 1.310 . S
C1557 C676 1.308 . S
C1559 C949 1.301 . S
C1568 C689 1.310 . S
C1570 C962 1.302 . S
C1579 C975 1.305 . S
C1581 C702 1.306 . S
C1590 C936 1.299 . S
C1592 C715 1.309 . S
C1601 C1196 1.300 . S
C1603 C728 1.310 . S
C1612 C1157 1.305 . S
C1614 C741 1.307 . S
C1623 C754 1.310 . S
C1625 C1170 1.303 . S
C1634 C767 1.310 . S
C1636 C1183 1.302 . S
C1645 C1235 1.305 . S
C1647 C780 1.306 . S
C1656 C1209 1.305 . S
C1658 C793 1.307 . S
C1667 C1222 1.305 . S
C1669 C806 1.306 . S
C1678 C819 1.308 . S
C1680 C1144 1.300 . S
C1689 C1131 1.305 . S
C1691 C832 1.308 . S
C1700 C845 1.311 . S
C1702 C1053 1.301 . S
C1711 C1066 1.299 . S
C1713 C858 1.310 . S
C1722 C1079 1.299 . S
C1724 C871 1.309 . S
C1733 C1040 1.301 . S
C1735 C884 1.307 . S
C1744 C897 1.310 . S
C1746 C1105 1.300 . S
C1755 C910 1.310 . S
C1757 C1118 1.300 . S
C1766 C1092 1.305 . S
C1768 C923 1.306 . S
C1777 C5 1.299 . S
C1779 C889 1.298 . S
C1788 C18 1.298 . S
C1790 C850 1.297 . S
C1799 C31 1.294 . S
C1801 C863 1.293 . S
C1810 C44 1.296 . S
C1812 C876 1.296 . S
C1821 C928 1.298 . S
C1823 C57 1.297 . S
C1832 C70 1.291 . S
C1834 C902 1.292 . S
C1843 C915 1.293 . S
C1845 C83 1.293 . S
C1854 C96 1.291 . S
C1856 C837 1.291 . S
C1865 C824 1.297 . S
C1867 C109 1.296 . S
C1876 C122 1.288 . S
C1878 C785 1.289 . S
C1887 C798 1.288 . S
C1889 C135 1.289 . S
C1898 C148 1.295 . S
C1900 C811 1.295 . S
C1909 C161 1.296 . S
C1911 C746 1.295 . S
C1920 C174 1.298 . S
C1922 C759 1.297 . S
C1931 C772 1.298 . S
C1933 C187 1.297 . S
C1942 C733 1.293 . S
C1944 C200 1.292 . S
C1953 C213 1.289 . S
C1955 C720 1.290 . S
C1964 C226 1.289 . S
C1966 C642 1.291 . S
C1975 C239 1.288 . S
C1977 C655 1.290 . S
C1986 C252 1.288 . S
C1988 C668 1.289 . S
C1997 C265 1.296 . S
C1999 C629 1.296 . S
C2008 C694 1.299 . S
C2010 C278 1.297 . S
C2019 C707 1.292 . S
C2021 C291 1.292 . S
C2030 C304 1.298 . S
C2032 C681 1.297 . S
C2041 C322 1.551 . S
C2043 C1206 1.545 . S
C2052 C335 1.541 . S
C2054 C1167 1.547 . S
C2063 C348 1.542 . S
C2065 C1180 1.548 . S
C2074 C361 1.550 . S
C2076 C1193 1.549 . S
C2085 C374 1.549 . S
C2087 C1245 1.550 . S
C2096 C1219 1.544 . S
C2098 C387 1.549 . S
C2107 C400 1.540 . S
C2109 C1232 1.545 . S
C2118 C413 1.547 . S
C2120 C1154 1.550 . S
C2129 C1141 1.540 . S
C2131 C426 1.544 . S
C2140 C1102 1.546 . S
C2142 C439 1.542 . S
C2151 C1115 1.540 . S
C2153 C452 1.546 . S
C2162 C1128 1.550 . S
C2164 C465 1.549 . S
C2173 C478 1.546 . S
C2175 C1063 1.550 . S
C2184 C491 1.551 . S
C2186 C1076 1.548 . S
C2195 C504 1.546 . S
C2197 C1089 1.550 . S
C2206 C1050 1.545 . S
C2208 C517 1.541 . S
C2217 C1037 1.548 . S
C2219 C530 1.550 . S
C2228 C543 1.541 . S
C2230 C959 1.543 . S
C2239 C972 1.541 . S
C2241 C556 1.547 . S
C2250 C985 1.544 . S
C2252 C569 1.549 . S
C2261 C582 1.545 . S
C2263 C946 1.550 . S
C2272 C595 1.548 . S
C2274 C1011 1.550 . S
C2283 C1024 1.548 . S
C2285 C608 1.550 . S
C2294 C621 1.548 . S
C2296 C998 1.550 . S
C2305 C10 1.386 . S
C2307 C369 1.383 . S
C2316 C23 1.375 . S
C2318 C382 1.376 . S
C2327 C36 1.381 . S
C2329 C395 1.378 . S
C2338 C49 1.381 . S
C2340 C408 1.382 . S
C2349 C317 1.376 . S
C2351 C62 1.379 . S
C2360 C75 1.376 . S
C2362 C330 1.378 . S
C2371 C343 1.375 . S
C2373 C88 1.377 . S
C2382 C356 1.382 . S
C2384 C101 1.384 . S
C2393 C114 1.381 . S
C2395 C499 1.378 . S
C2404 C512 1.381 . S
C2406 C127 1.384 . S
C2415 C140 1.377 . S
C2417 C473 1.379 . S
C2426 C153 1.383 . S
C2428 C486 1.380 . S
C2437 C166 1.384 . S
C2439 C447 1.384 . S
C2448 C179 1.381 . S
C2450 C460 1.378 . S
C2459 C192 1.381 . S
C2461 C421 1.382 . S
C2470 C434 1.380 . S
C2472 C205 1.383 . S
C2481 C218 1.376 . S
C2483 C590 1.378 . S
C2492 C231 1.386 . S
C2494 C564 1.384 . S
C2503 C577 1.381 . S
C2505 C244 1.379 . S
C2514 C257 1.384 . S
C2516 C538 1.384 . S
C2525 C551 1.375 . S
C2527 C270 1.377 . S
C2536 C283 1.376 . S
C2538 C525 1.376 . S
C2547 C616 1.375 . S
C2549 C296 1.378 . S
C2558 C603 1.385 . S
C2560 C309 1.384 . S
C2569 C634 1.386 . S
C2571 C993 1.383 . S
C2580 C647 1.375 . S
C2582 C1006 1.376 . S
C2591 C660 1.380 . S
C2593 C1019 1.378 . S
C2602 C1032 1.377 . S
C2604 C673 1.377 . S
C2613 C686 1.375 . S
C2615 C941 1.377 . S
C2624 C699 1.378 . S
C2626 C954 1.380 . S
C2635 C712 1.376 . S
C2637 C967 1.376 . S
C2646 C725 1.385 . S
C2648 C980 1.382 . S
C2657 C738 1.385 . S
C2659 C1123 1.384 . S
C2668 C1136 1.376 . S
C2670 C751 1.379 . S
C2679 C1097 1.385 . S
C2681 C764 1.384 . S
C2690 C1110 1.375 . S
C2692 C777 1.377 . S
C2701 C790 1.376 . S
C2703 C1071 1.379 . S
C2712 C1084 1.376 . S
C2714 C803 1.377 . S
C2723 C816 1.376 . S
C2725 C1045 1.376 . S
C2734 C1058 1.376 . S
C2736 C829 1.379 . S
C2745 C1214 1.379 . S
C2747 C842 1.378 . S
C2756 C1188 1.376 . S
C2758 C855 1.377 . S
C2767 C868 1.380 . S
C2769 C1201 1.382 . S
C2778 C881 1.386 . S
C2780 C1162 1.383 . S
C2789 C1175 1.375 . S
C2791 C894 1.377 . S
C2800 C907 1.380 . S
C2802 C1149 1.377 . S
C2811 C1240 1.375 . S
C2813 C920 1.378 . S
C2822 C1227 1.377 . S
C2824 C933 1.380 . S
C2833 C346 1.504 . S
C2835 C8 1.496 . S
C2844 C21 1.502 . S
C2846 C359 1.507 . S
C2855 C320 1.504 . S
C2857 C34 1.496 . S
C2866 C47 1.499 . S
C2868 C333 1.507 . S
C2877 C398 1.508 . S
C2879 C60 1.498 . S
C2888 C411 1.507 . S
C2890 C73 1.502 . S
C2899 C86 1.501 . S
C2901 C372 1.504 . S
C2910 C385 1.506 . S
C2912 C99 1.502 . S
C2921 C112 1.502 . S
C2923 C476 1.506 . S
C2932 C125 1.502 . S
C2934 C489 1.506 . S
C2943 C502 1.508 . S
C2945 C138 1.498 . S
C2954 C151 1.495 . S
C2956 C515 1.503 . S
C2965 C164 1.497 . S
C2967 C424 1.507 . S
C2976 C437 1.505 . S
C2978 C177 1.496 . S
C2987 C450 1.502 . S
C2989 C190 1.499 . S
C2998 C463 1.506 . S
C3000 C203 1.497 . S
C3009 C216 1.502 . S
C3011 C567 1.505 . S
C3020 C593 1.502 . S
C3022 C229 1.496 . S
C3031 C242 1.502 . S
C3033 C606 1.505 . S
C3042 C528 1.503 . S
C3044 C255 1.500 . S
C3053 C619 1.504 . S
C3055 C268 1.496 . S
C3064 C541 1.508 . S
C3066 C281 1.501 . S
C3075 C294 1.502 . S
C3077 C554 1.505 . S
C3086 C307 1.500 . S
C3088 C580 1.508 . S
C3097 C632 1.495 . S
C3099 C970 1.503 . S
C3108 C983 1.505 . S
C3110 C645 1.501 . S
C3119 C944 1.504 . S
C3121 C658 1.496 . S
C3130 C957 1.508 . S
C3132 C671 1.500 . S
C3141 C684 1.500 . S
C3143 C1022 1.508 . S
C3152 C1035 1.506 . S
C3154 C697 1.502 . S
C3163 C710 1.502 . S
C3165 C996 1.506 . S
C3174 C1009 1.508 . S
C3176 C723 1.500 . S
C3185 C736 1.495 . S
C3187 C1100 1.505 . S
C3196 C1113 1.504 . S
C3198 C749 1.501 . S
C3207 C762 1.495 . S
C3209 C1126 1.504 . S
C3218 C1139 1.504 . S
C3220 C775 1.501 . S
C3229 C1048 1.508 . S
C3231 C788 1.500 . S
C3240 C1061 1.502 . S
C3242 C801 1.498 . S
C3251 C1074 1.502 . S
C3253 C814 1.496 . S
C3262 C1087 1.503 . S
C3264 C827 1.500 . S
C3273 C840 1.497 . S
C3275 C1191 1.502 . S
C3284 C1217 1.508 . S
C3286 C853 1.499 . S
C3295 C1230 1.502 . S
C3297 C866 1.497 . S
C3306 C1152 1.502 . S
C3308 C879 1.496 . S
C3317 C1243 1.502 . S
C3319 C892 1.498 . S
C3328 C905 1.495 . S
C3330 C1165 1.504 . S
C3339 C918 1.496 . S
C3341 C1178 1.503 . S
C3350 C1204 1.507 . S
C3352 C931 1.502 . S
