# Generated by pormake.
# Topology wiu, (6)-cn, num edge types: 1
# Building blocks:
#     Node 0, Type 0, BuildingBlock: IZENUY_clean_sbu_0, # of connection points: 6
#     Node 1, Type 0, BuildingBlock: IZENUY_clean_sbu_0, # of connection points: 6
#     Node 2, Type 0, BuildingBlock: IZENUY_clean_sbu_0, # of connection points: 6
#     Node 3, Type 0, BuildingBlock: IZENUY_clean_sbu_0, # of connection points: 6
#     Node 4, Type 0, BuildingBlock: IZENUY_clean_sbu_0, # of connection points: 6
#     Node 5, Type 0, BuildingBlock: IZENUY_clean_sbu_0, # of connection points: 6
#     Node 6, Type 0, BuildingBlock: IZENUY_clean_sbu_0, # of connection points: 6
#     Node 7, Type 0, BuildingBlock: IZENUY_clean_sbu_0, # of connection points: 6
#     Node 8, Type 0, BuildingBlock: IZENUY_clean_sbu_0, # of connection points: 6
#     Node 9, Type 0, BuildingBlock: IZENUY_clean_sbu_0, # of connection points: 6
#     Node 10, Type 0, BuildingBlock: IZENUY_clean_sbu_0, # of connection points: 6
#     Node 11, Type 0, BuildingBlock: IZENUY_clean_sbu_0, # of connection points: 6
#     Node 12, Type 0, BuildingBlock: IZENUY_clean_sbu_0, # of connection points: 6
#     Node 13, Type 0, BuildingBlock: IZENUY_clean_sbu_0, # of connection points: 6
#     Node 14, Type 0, BuildingBlock: IZENUY_clean_sbu_0, # of connection points: 6
#     Node 15, Type 0, BuildingBlock: IZENUY_clean_sbu_0, # of connection points: 6
#     Edge 16, Type (0, 0), BuildingBlock: XUDNAN_clean_linker_2, # of connection points: 2
#     Edge 17, Type (0, 0), BuildingBlock: XUDNAN_clean_linker_2, # of connection points: 2
#     Edge 18, Type (0, 0), BuildingBlock: XUDNAN_clean_linker_2, # of connection points: 2
#     Edge 19, Type (0, 0), BuildingBlock: XUDNAN_clean_linker_2, # of connection points: 2
#     Edge 20, Type (0, 0), BuildingBlock: XUDNAN_clean_linker_2, # of connection points: 2
#     Edge 21, Type (0, 0), BuildingBlock: XUDNAN_clean_linker_2, # of connection points: 2
#     Edge 22, Type (0, 0), BuildingBlock: XUDNAN_clean_linker_2, # of connection points: 2
#     Edge 23, Type (0, 0), BuildingBlock: XUDNAN_clean_linker_2, # of connection points: 2
#     Edge 24, Type (0, 0), BuildingBlock: XUDNAN_clean_linker_2, # of connection points: 2
#     Edge 25, Type (0, 0), BuildingBlock: XUDNAN_clean_linker_2, # of connection points: 2
#     Edge 26, Type (0, 0), BuildingBlock: XUDNAN_clean_linker_2, # of connection points: 2
#     Edge 27, Type (0, 0), BuildingBlock: XUDNAN_clean_linker_2, # of connection points: 2
#     Edge 28, Type (0, 0), BuildingBlock: XUDNAN_clean_linker_2, # of connection points: 2
#     Edge 29, Type (0, 0), BuildingBlock: XUDNAN_clean_linker_2, # of connection points: 2
#     Edge 30, Type (0, 0), BuildingBlock: XUDNAN_clean_linker_2, # of connection points: 2
#     Edge 31, Type (0, 0), BuildingBlock: XUDNAN_clean_linker_2, # of connection points: 2
#     Edge 32, Type (0, 0), BuildingBlock: XUDNAN_clean_linker_2, # of connection points: 2
#     Edge 33, Type (0, 0), BuildingBlock: XUDNAN_clean_linker_2, # of connection points: 2
#     Edge 34, Type (0, 0), BuildingBlock: XUDNAN_clean_linker_2, # of connection points: 2
#     Edge 35, Type (0, 0), BuildingBlock: XUDNAN_clean_linker_2, # of connection points: 2
#     Edge 36, Type (0, 0), BuildingBlock: XUDNAN_clean_linker_2, # of connection points: 2
#     Edge 37, Type (0, 0), BuildingBlock: XUDNAN_clean_linker_2, # of connection points: 2
#     Edge 38, Type (0, 0), BuildingBlock: XUDNAN_clean_linker_2, # of connection points: 2
#     Edge 39, Type (0, 0), BuildingBlock: XUDNAN_clean_linker_2, # of connection points: 2
#     Edge 40, Type (0, 0), BuildingBlock: XUDNAN_clean_linker_2, # of connection points: 2
#     Edge 41, Type (0, 0), BuildingBlock: XUDNAN_clean_linker_2, # of connection points: 2
#     Edge 42, Type (0, 0), BuildingBlock: XUDNAN_clean_linker_2, # of connection points: 2
#     Edge 43, Type (0, 0), BuildingBlock: XUDNAN_clean_linker_2, # of connection points: 2
#     Edge 44, Type (0, 0), BuildingBlock: XUDNAN_clean_linker_2, # of connection points: 2
#     Edge 45, Type (0, 0), BuildingBlock: XUDNAN_clean_linker_2, # of connection points: 2
#     Edge 46, Type (0, 0), BuildingBlock: XUDNAN_clean_linker_2, # of connection points: 2
#     Edge 47, Type (0, 0), BuildingBlock: XUDNAN_clean_linker_2, # of connection points: 2
#     Edge 48, Type (0, 0), BuildingBlock: XUDNAN_clean_linker_2, # of connection points: 2
#     Edge 49, Type (0, 0), BuildingBlock: XUDNAN_clean_linker_2, # of connection points: 2
#     Edge 50, Type (0, 0), BuildingBlock: XUDNAN_clean_linker_2, # of connection points: 2
#     Edge 51, Type (0, 0), BuildingBlock: XUDNAN_clean_linker_2, # of connection points: 2
#     Edge 52, Type (0, 0), BuildingBlock: XUDNAN_clean_linker_2, # of connection points: 2
#     Edge 53, Type (0, 0), BuildingBlock: XUDNAN_clean_linker_2, # of connection points: 2
#     Edge 54, Type (0, 0), BuildingBlock: XUDNAN_clean_linker_2, # of connection points: 2
#     Edge 55, Type (0, 0), BuildingBlock: XUDNAN_clean_linker_2, # of connection points: 2
#     Edge 56, Type (0, 0), BuildingBlock: XUDNAN_clean_linker_2, # of connection points: 2
#     Edge 57, Type (0, 0), BuildingBlock: XUDNAN_clean_linker_2, # of connection points: 2
#     Edge 58, Type (0, 0), BuildingBlock: XUDNAN_clean_linker_2, # of connection points: 2
#     Edge 59, Type (0, 0), BuildingBlock: XUDNAN_clean_linker_2, # of connection points: 2
#     Edge 60, Type (0, 0), BuildingBlock: XUDNAN_clean_linker_2, # of connection points: 2
#     Edge 61, Type (0, 0), BuildingBlock: XUDNAN_clean_linker_2, # of connection points: 2
#     Edge 62, Type (0, 0), BuildingBlock: XUDNAN_clean_linker_2, # of connection points: 2
#     Edge 63, Type (0, 0), BuildingBlock: XUDNAN_clean_linker_2, # of connection points: 2
# Relax obj value: 0.193
# Max RMSD: 0.208
# Mean RMSD: 0.207
data_MOF--net-wiu--node1-IZENUY_clean_sbu_0--edge1-XUDNAN_clean_linker_2
_symmetry_space_group_name_H-M    P1
_symmetry_Int_Tables_number       1
_symmetry_cell_setting            triclinic
loop_
_symmetry_equiv_pos_as_xyz
'x, y, z'
_cell_length_a     30.943278
_cell_length_b     31.15537
_cell_length_c     53.870742
_cell_angle_alpha  90.141438
_cell_angle_beta   89.976046
_cell_angle_gamma 89.539914
loop_
_atom_site_label
_atom_site_type_symbol
_atom_site_fract_x
_atom_site_fract_y
_atom_site_fract_z
_atom_type_partial_charge
Fe0 Fe 0.32506 0.08685 0.0571 0.0
Fe1 Fe 0.36308 0.17609 0.04856 0.0
O2 O 0.3402 0.13814 0.06872 0.0
Fe3 Fe 0.33391 0.15121 0.10054 0.0
O4 O 0.36868 0.10698 0.10898 0.0
O5 O 0.33823 0.05788 0.08568 0.0
O6 O 0.38053 0.07437 0.04605 0.0
C7 C 0.40098 0.09758 0.03077 0.0
C8 C 0.25801 0.10236 0.08959 0.0
O9 O 0.38959 0.13646 0.02783 0.0
C10 C 0.3113 0.22879 0.08089 0.0
O11 O 0.30993 0.10733 0.02641 0.0
O12 O 0.31459 0.17717 0.03017 0.0
O13 O 0.28491 0.11894 0.10453 0.0
O14 O 0.2687 0.09456 0.06727 0.0
C15 C 0.41531 0.18473 0.08879 0.0
O16 O 0.3415 0.22352 0.06519 0.0
O17 O 0.29933 0.19783 0.09433 0.0
C18 C 0.30316 0.14477 0.01795 0.0
O19 O 0.4126 0.17626 0.066 0.0
O20 O 0.38203 0.18493 0.10239 0.0
C21 C 0.36314 0.06824 0.10325 0.0
Fe22 Fe 0.74208 0.59842 0.31261 0.0
Fe23 Fe 0.68941 0.58711 0.36076 0.0
O24 O 0.69294 0.60383 0.32937 0.0
Fe25 Fe 0.64696 0.62687 0.31526 0.0
O26 O 0.6454 0.58498 0.29233 0.0
O27 O 0.71492 0.58671 0.28312 0.0
O28 O 0.74377 0.54053 0.31834 0.0
C29 C 0.74304 0.5226 0.33938 0.0
C30 C 0.71567 0.67683 0.2939 0.0
O31 O 0.72972 0.54323 0.3582 0.0
C32 C 0.64195 0.66444 0.36041 0.0
O33 O 0.77641 0.61035 0.33962 0.0
O34 O 0.7295 0.62552 0.36921 0.0
O35 O 0.67708 0.66304 0.29413 0.0
O36 O 0.74496 0.65586 0.305 0.0
C37 C 0.61118 0.55976 0.34527 0.0
O38 O 0.64885 0.62791 0.36985 0.0
O39 O 0.6469 0.67018 0.33749 0.0
C40 C 0.76568 0.63091 0.35904 0.0
O41 O 0.64769 0.5483 0.35356 0.0
O42 O 0.60727 0.59506 0.33355 0.0
C43 C 0.67626 0.57687 0.27778 0.0
Fe44 Fe 0.22302 0.91035 0.60983 0.0
Fe45 Fe 0.22564 0.96787 0.56385 0.0
O46 O 0.2139 0.91756 0.57778 0.0
Fe47 Fe 0.1923 0.87472 0.56036 0.0
O48 O 0.14475 0.87204 0.57988 0.0
O49 O 0.18099 0.87088 0.6146 0.0
O50 O 0.183 0.95106 0.6165 0.0
C51 C 0.18356 0.98875 0.60803 0.0
C52 C 0.25383 0.8338 0.5928 0.0
O53 O 0.21018 0.9993 0.59131 0.0
C54 C 0.24949 0.90632 0.52714 0.0
O55 O 0.2669 0.94875 0.612 0.0
O56 O 0.2828 0.96494 0.57363 0.0
O57 O 0.22107 0.83205 0.57844 0.0
O58 O 0.26297 0.86832 0.60404 0.0
C59 C 0.14878 0.94926 0.53988 0.0
O60 O 0.2414 0.94435 0.53415 0.0
O61 O 0.23797 0.87441 0.53967 0.0
C62 C 0.29377 0.96197 0.59621 0.0
O63 O 0.16999 0.9756 0.55287 0.0
O64 O 0.16004 0.90977 0.53923 0.0
C65 C 0.14638 0.8657 0.6029 0.0
Fe66 Fe 0.83672 0.49898 0.80224 0.0
Fe67 Fe 0.9241 0.45432 0.79233 0.0
O68 O 0.88941 0.48393 0.81224 0.0
Fe69 Fe 0.90676 0.49752 0.84264 0.0
O70 O 0.86368 0.46643 0.85566 0.0
O71 O 0.81198 0.49466 0.83302 0.0
O72 O 0.82154 0.4432 0.79681 0.0
C73 C 0.84071 0.41729 0.78225 0.0
C74 C 0.85881 0.57164 0.82782 0.0
O75 O 0.88026 0.42318 0.77673 0.0
C76 C 0.98175 0.51228 0.81791 0.0
O77 O 0.85183 0.50447 0.76961 0.0
O78 O 0.92219 0.49604 0.76924 0.0
O79 O 0.87519 0.54794 0.84448 0.0
O80 O 0.84786 0.55609 0.80702 0.0
C81 C 0.94235 0.41454 0.8359 0.0
O82 O 0.97419 0.47964 0.80428 0.0
O83 O 0.95226 0.52841 0.83136 0.0
C84 C 0.88764 0.50585 0.75834 0.0
O85 O 0.92835 0.41055 0.81411 0.0
O86 O 0.94142 0.45038 0.84678 0.0
C87 C 0.82417 0.47207 0.8512 0.0
Fe88 Fe 0.73084 0.99256 0.91506 0.0
Fe89 Fe 0.70011 0.89939 0.92098 0.0
O90 O 0.72276 0.9405 0.90268 0.0
Fe91 Fe 0.73647 0.9299 0.87143 0.0
O92 O 0.69705 0.9687 0.86125 0.0
O93 O 0.71946 1.02042 0.8857 0.0
O94 O 0.6736 0.99888 0.92208 0.0
C95 C 0.65084 0.97436 0.93532 0.0
C96 C 0.80389 0.98558 0.88678 0.0
O97 O 0.66343 0.93591 0.93946 0.0
C98 C 0.76576 0.85586 0.89178 0.0
O99 O 0.74168 0.97356 0.94663 0.0
O100 O 0.74306 0.90337 0.94329 0.0
O101 O 0.78038 0.96918 0.8701 0.0
O102 O 0.78922 0.99039 0.90858 0.0
C103 C 0.66016 0.88265 0.87745 0.0
O104 O 0.73213 0.85529 0.90559 0.0
O105 O 0.77598 0.88979 0.88046 0.0
C106 C 0.74959 0.93687 0.95573 0.0
O107 O 0.65563 0.89301 0.89985 0.0
O108 O 0.69534 0.88886 0.8663 0.0
C109 C 0.69648 1.00756 0.86773 0.0
Fe110 Fe 0.44623 0.42645 0.65869 0.0
Fe111 Fe 0.39738 0.47397 0.61757 0.0
O112 O 0.40131 0.45787 0.64902 0.0
Fe113 Fe 0.36027 0.47302 0.67061 0.0
O114 O 0.3636 0.42276 0.6889 0.0
O115 O 0.41082 0.38266 0.66857 0.0
O116 O 0.45287 0.39893 0.62925 0.0
C117 C 0.42748 0.39246 0.61136 0.0
C118 C 0.43119 0.48052 0.70001 0.0
O119 O 0.39722 0.41846 0.60646 0.0
C120 C 0.36992 0.54806 0.64019 0.0
O121 O 0.48517 0.46801 0.64925 0.0
O122 O 0.45563 0.47811 0.61261 0.0
O123 O 0.39926 0.49984 0.69045 0.0
O124 O 0.44728 0.44754 0.69001 0.0
C125 C 0.31185 0.45317 0.63018 0.0
O126 O 0.39752 0.53029 0.62622 0.0
O127 O 0.3486 0.52603 0.6558 0.0
C128 C 0.48753 0.48184 0.62712 0.0
O129 O 0.33854 0.47288 0.61677 0.0
O130 O 0.31877 0.44641 0.65277 0.0
C131 C 0.37944 0.38603 0.68369 0.0
Fe132 Fe 0.85645 0.14623 0.36873 0.0
Fe133 Fe 0.83861 0.08855 0.41319 0.0
O134 O 0.85992 0.13677 0.40092 0.0
Fe135 Fe 0.88623 0.17454 0.42012 0.0
O136 O 0.93558 0.17041 0.40238 0.0
O137 O 0.90515 0.17885 0.36627 0.0
O138 O 0.89022 0.0999 0.36302 0.0
C139 C 0.88183 0.0625 0.37037 0.0
C140 C 0.83621 0.22616 0.38542 0.0
O141 O 0.85145 0.05614 0.38562 0.0
C142 C 0.82169 0.15077 0.45083 0.0
O143 O 0.80672 0.11547 0.36421 0.0
O144 O 0.78391 0.10081 0.40171 0.0
O145 O 0.86582 0.22226 0.40194 0.0
O146 O 0.82337 0.19357 0.37355 0.0
C147 C 0.91639 0.09289 0.43884 0.0
O148 O 0.82414 0.11245 0.44307 0.0
O149 O 0.83909 0.181 0.43927 0.0
C150 C 0.77635 0.10511 0.37872 0.0
O151 O 0.89101 0.07218 0.425 0.0
O152 O 0.91149 0.13346 0.44143 0.0
C153 C 0.93841 0.1791 0.37971 0.0
Fe154 Fe 0.23251 0.5913 0.16398 0.0
Fe155 Fe 0.13982 0.6155 0.18021 0.0
O156 O 0.17646 0.59843 0.15694 0.0
Fe157 Fe 0.15746 0.58916 0.12635 0.0
O158 O 0.19279 0.62993 0.11482 0.0
O159 O 0.25179 0.607 0.1331 0.0
O160 O 0.23879 0.64785 0.17427 0.0
C161 C 0.21572 0.66533 0.19113 0.0
C162 C 0.21865 0.52142 0.13355 0.0
O163 O 0.17916 0.64954 0.19656 0.0
C164 C 0.08919 0.55611 0.15146 0.0
O165 O 0.22327 0.57523 0.19593 0.0
O166 O 0.15297 0.56949 0.1993 0.0
O167 O 0.19639 0.54585 0.11968 0.0
O168 O 0.23076 0.53427 0.15478 0.0
C169 C 0.11074 0.66274 0.14087 0.0
O170 O 0.09359 0.58518 0.16782 0.0
O171 O 0.11892 0.5486 0.13591 0.0
C172 C 0.19033 0.56417 0.2081 0.0
O173 O 0.1242 0.66288 0.16292 0.0
O174 O 0.11571 0.63055 0.12699 0.0
C175 C 0.2331 0.6304 0.11722 0.0
Fe176 Fe 0.83365 0.65357 0.599 0.0
Fe177 Fe 0.84355 0.60395 0.54988 0.0
O178 O 0.85235 0.65092 0.56795 0.0
Fe179 Fe 0.88141 0.69456 0.55564 0.0
O180 O 0.92214 0.68919 0.5794 0.0
O181 O 0.87704 0.68766 0.61058 0.0
O182 O 0.86738 0.60835 0.60693 0.0
C183 C 0.86723 0.57228 0.59632 0.0
C184 C 0.81501 0.73566 0.58559 0.0
O185 O 0.84724 0.56674 0.57614 0.0
C186 C 0.8363 0.67272 0.51489 0.0
O187 O 0.78647 0.61936 0.59385 0.0
O188 O 0.78482 0.60899 0.55353 0.0
O189 O 0.85059 0.7365 0.57355 0.0
O190 O 0.79978 0.70012 0.59266 0.0
C191 C 0.92736 0.62116 0.53558 0.0
O192 O 0.83985 0.63337 0.52055 0.0
O193 O 0.84295 0.70173 0.53072 0.0
C194 C 0.76609 0.60862 0.57448 0.0
O195 O 0.90153 0.59439 0.54491 0.0
O196 O 0.91773 0.66103 0.5358 0.0
C197 C 0.91493 0.69086 0.60235 0.0
Fe198 Fe 0.1721 0.10237 0.85275 0.0
Fe199 Fe 0.14832 0.13862 0.80219 0.0
O200 O 0.18316 0.10708 0.82066 0.0
Fe201 Fe 0.22974 0.08176 0.80775 0.0
O202 O 0.21268 1.02845 0.81821 0.0
O203 O 0.19793 0.04959 0.85611 0.0
O204 O 0.12106 0.07537 0.8471 0.0
C205 C 0.09091 0.09246 0.83458 0.0
C206 C 0.25855 0.11888 0.85177 0.0
O207 O 0.09899 0.12327 0.81972 0.0
C208 C 0.23212 0.15945 0.78277 0.0
O209 O 0.14431 0.15419 0.85617 0.0
O210 O 0.15775 0.18561 0.821 0.0
O211 O 0.26314 0.08976 0.83554 0.0
O212 O 0.2216 0.12985 0.85949 0.0
C213 C 0.16526 0.07345 0.77037 0.0
O214 O 0.1911 0.15952 0.78115 0.0
O215 O 0.25127 0.1323 0.79635 0.0
C216 C 0.14782 0.18802 0.84357 0.0
O217 O 0.13694 0.09394 0.78225 0.0
O218 O 0.2041 0.07131 0.77775 0.0
C219 C 0.20628 1.01971 0.84085 0.0
Fe220 Fe 0.72652 0.42035 0.10246 0.0
Fe221 Fe 0.72682 0.49237 0.06452 0.0
O222 O 0.71822 0.43762 0.07171 0.0
Fe223 Fe 0.70107 0.40067 0.04877 0.0
O224 O 0.65365 0.38633 0.06625 0.0
O225 O 0.68682 0.37764 0.1018 0.0
O226 O 0.68371 0.45531 0.11304 0.0
C227 C 0.68386 0.49533 0.11009 0.0
C228 C 0.76329 0.35285 0.07832 0.0
O229 O 0.71028 0.51237 0.0952 0.0
C230 C 0.75295 0.44908 0.02045 0.0
O231 O 0.76844 0.45972 0.1096 0.0
O232 O 0.78413 0.48887 0.07381 0.0
O233 O 0.73307 0.35438 0.06208 0.0
O234 O 0.76903 0.38406 0.09292 0.0
C235 C 0.65109 0.47764 0.03848 0.0
O236 O 0.74265 0.48237 0.03252 0.0
O237 O 0.7472 0.41239 0.02946 0.0
C238 C 0.79518 0.47849 0.09566 0.0
O239 O 0.67076 0.49924 0.05489 0.0
O240 O 0.66541 0.44058 0.03201 0.0
C241 C 0.65448 0.3723 0.08809 0.0
Fe242 Fe 0.41806 0.97677 0.35345 0.0
Fe243 Fe 0.3435 0.97882 0.31602 0.0
O244 O 0.39816 0.96657 0.32317 0.0
Fe245 Fe 0.43265 0.94247 0.30084 0.0
O246 O 0.44166 0.89585 0.3204 0.0
O247 O 0.45771 0.93312 0.35354 0.0
O248 O 0.38027 0.93903 0.36594 0.0
C249 C 0.34011 0.94005 0.36244 0.0
C250 C 0.48736 1.00245 0.32703 0.0
O251 O 0.32331 0.96595 0.34711 0.0
C252 C 0.3888 0.99701 0.27116 0.0
O253 O 0.38165 1.0225 0.35977 0.0
O254 O 0.35012 0.03586 0.32415 0.0
O255 O 0.48172 0.97029 0.31262 0.0
O256 O 0.45811 1.01401 0.3421 0.0
C257 C 0.35167 0.90069 0.29142 0.0
O258 O 0.35456 0.99168 0.2836 0.0
O259 O 0.42523 0.987 0.27989 0.0
C260 C 0.36125 0.04802 0.34568 0.0
O261 O 0.3321 0.92323 0.30755 0.0
O262 O 0.38992 0.91037 0.28494 0.0
C263 C 0.4561 0.89788 0.34218 0.0
Fe264 Fe 0.25581 0.4067 0.38594 0.0
Fe265 Fe 0.2521 0.47739 0.42578 0.0
O266 O 0.23856 0.4249 0.41557 0.0
Fe267 Fe 0.20653 0.39121 0.43441 0.0
O268 O 0.16505 0.38768 0.41096 0.0
O269 O 0.20892 0.37279 0.38015 0.0
O270 O 0.2259 0.44925 0.37138 0.0
C271 C 0.22978 0.48858 0.37597 0.0
C272 C 0.26747 0.33234 0.41098 0.0
O273 O 0.25068 0.50133 0.39471 0.0
C274 C 0.25443 0.42738 0.47017 0.0
O275 O 0.30646 0.43739 0.38592 0.0
O276 O 0.31007 0.46622 0.42323 0.0
O277 O 0.23315 0.34056 0.42338 0.0
O278 O 0.28573 0.36173 0.39882 0.0
C279 C 0.16807 0.47481 0.4428 0.0
O280 O 0.25427 0.46276 0.45865 0.0
O281 O 0.24584 0.39287 0.45912 0.0
C282 C 0.32817 0.45421 0.40328 0.0
O283 O 0.19544 0.49296 0.42896 0.0
O284 O 0.17351 0.43555 0.44879 0.0
C285 C 0.17149 0.37354 0.38937 0.0
Fe286 Fe 0.82945 0.99783 0.16836 0.0
Fe287 Fe 0.91419 0.94715 0.17271 0.0
O288 O 0.87731 0.97694 0.15468 0.0
Fe289 Fe 0.88769 0.98457 0.12261 0.0
O290 O 0.83946 0.95546 0.11517 0.0
O291 O 0.79639 0.9914 0.14029 0.0
O292 O 0.81132 0.94447 0.17783 0.0
C293 C 0.83238 0.91836 0.1913 0.0
C294 C 0.84991 0.06432 0.13746 0.0
O295 O 0.87305 0.92262 0.19365 0.0
C296 C 0.96865 0.9975 0.14089 0.0
O297 O 0.85416 1.00653 0.19891 0.0
O298 O 0.92276 0.99203 0.19293 0.0
O299 O 0.85929 0.03702 0.12075 0.0
O300 O 0.84416 0.05261 0.15973 0.0
C301 C 0.9161 0.89944 0.13068 0.0
O302 O 0.96235 0.96581 0.15535 0.0
O303 O 0.93768 1.01341 0.12853 0.0
C304 C 0.89309 1.00731 0.20619 0.0
O305 O 0.90727 0.90073 0.1534 0.0
O306 O 0.91764 0.93374 0.1182 0.0
C307 C 0.80212 0.96453 0.12295 0.0
Fe308 Fe 0.34076 0.5901 0.90703 0.0
Fe309 Fe 0.36762 0.68269 0.9186 0.0
O310 O 0.34977 0.64383 0.89726 0.0
Fe311 Fe 0.34208 0.65919 0.86591 0.0
O312 O 0.38275 0.62175 0.85645 0.0
O313 O 0.36076 0.5659 0.87783 0.0
O314 O 0.39613 0.58325 0.91933 0.0
C315 C 0.41276 0.60724 0.93567 0.0
C316 C 0.27342 0.60059 0.87378 0.0
O317 O 0.39764 0.64487 0.93887 0.0
C318 C 0.30904 0.73033 0.88796 0.0
O319 O 0.32012 0.60634 0.93782 0.0
O320 O 0.31907 0.67709 0.93632 0.0
O321 O 0.29875 0.62087 0.8597 0.0
O322 O 0.28454 0.59148 0.89578 0.0
C323 C 0.41833 0.701 0.87901 0.0
O324 O 0.34061 0.72849 0.90301 0.0
O325 O 0.30111 0.69912 0.87373 0.0
C326 C 0.30719 0.64251 0.94607 0.0
O327 O 0.41728 0.68979 0.90146 0.0
O328 O 0.38464 0.69959 0.86583 0.0
C329 C 0.38432 0.58227 0.86106 0.0
Fe330 Fe 0.72032 0.10298 0.66477 0.0
Fe331 Fe 0.62628 0.1362 0.66712 0.0
O332 O 0.66827 0.10939 0.65106 0.0
Fe333 Fe 0.65841 0.08961 0.62054 0.0
O334 O 0.698 0.12613 0.60867 0.0
O335 O 0.74933 0.10934 0.63534 0.0
O336 O 0.72768 0.16098 0.67014 0.0
C337 C 0.70124 0.18498 0.68179 0.0
C338 C 0.71374 1.02525 0.64043 0.0
O339 O 0.66176 0.17441 0.68344 0.0
C340 C 0.58345 0.06621 0.64274 0.0
O341 O 0.69972 0.09713 0.6963 0.0
O342 O 0.62889 0.09873 0.6926 0.0
O343 O 0.6981 0.04513 0.62202 0.0
O344 O 0.71777 0.04429 0.66112 0.0
C345 C 0.60987 0.16659 0.6208 0.0
O346 O 0.58339 0.10217 0.65401 0.0
O347 O 0.61661 0.053 0.63108 0.0
C348 C 0.66236 0.0922 0.7053 0.0
O349 O 0.62036 0.17614 0.64271 0.0
O350 O 0.61704 0.12942 0.61249 0.0
C351 C 0.73635 0.12918 0.61626 0.0
H352 H 0.49187 0.18704 0.06455 0.0
H353 H 0.42985 0.22349 0.13381 0.0
H354 H 0.49335 0.26689 0.14487 0.0
H355 H 0.60931 0.19344 0.08747 0.0
H356 H 0.62536 0.21544 0.05801 0.0
H357 H 0.58244 0.17669 0.05943 0.0
H358 H 0.53217 0.23011 0.03623 0.0
H359 H 0.57417 0.26935 0.03531 0.0
H360 H 0.52279 0.28281 0.04919 0.0
H361 H 0.55518 0.31761 0.14419 0.0
H362 H 0.61081 0.37044 0.13188 0.0
H363 H 0.6277 0.30434 0.06169 0.0
C364 C 0.49229 0.20286 0.08247 0.0
C365 C 0.45598 0.20237 0.09821 0.0
C366 C 0.45748 0.22355 0.12146 0.0
C367 C 0.49348 0.24808 0.12795 0.0
C368 C 0.52759 0.25041 0.11112 0.0
C369 C 0.52755 0.22774 0.08899 0.0
C370 C 0.56401 0.24107 0.07215 0.0
C371 C 0.59725 0.20448 0.0691 0.0
C372 C 0.54724 0.25678 0.04675 0.0
C373 C 0.58224 0.2773 0.0873 0.0
C374 C 0.56209 0.28118 0.11014 0.0
C375 C 0.57174 0.31439 0.12658 0.0
C376 C 0.60282 0.34435 0.11941 0.0
C377 C 0.6223 0.34135 0.09576 0.0
C378 C 0.61241 0.30729 0.07972 0.0
H379 H 0.65576 0.7493 0.36285 0.0
H380 H 0.56631 0.64994 0.38409 0.0
H381 H 0.50868 0.70432 0.38943 0.0
H382 H 0.602 0.84135 0.40276 0.0
H383 H 0.61408 0.87893 0.37839 0.0
H384 H 0.65086 0.83516 0.38483 0.0
H385 H 0.64638 0.81237 0.33871 0.0
H386 H 0.60838 0.85455 0.33219 0.0
H387 H 0.5945 0.79967 0.32544 0.0
H388 H 0.4578 0.76269 0.37825 0.0
H389 H 0.41956 0.82516 0.35978 0.0
H390 H 0.54191 0.88831 0.34813 0.0
C391 C 0.62476 0.73972 0.37027 0.0
C392 C 0.61519 0.69604 0.37338 0.0
C393 C 0.5742 0.68361 0.38222 0.0
C394 C 0.54126 0.71427 0.38513 0.0
C395 C 0.55056 0.757 0.37978 0.0
C396 C 0.59186 0.77007 0.37351 0.0
C397 C 0.59219 0.81635 0.36509 0.0
C398 C 0.61619 0.84462 0.3839 0.0
C399 C 0.61146 0.82092 0.33881 0.0
C400 C 0.54432 0.82593 0.36528 0.0
C401 C 0.52079 0.79158 0.37413 0.0
C402 C 0.47581 0.79047 0.37231 0.0
C403 C 0.45442 0.82559 0.36153 0.0
C404 C 0.4782 0.86097 0.35291 0.0
C405 C 0.5234 0.86154 0.35512 0.0
H406 H 0.13721 0.7818 0.59539 0.0
H407 H 0.08417 0.89004 0.63582 0.0
H408 H 1.02651 0.84371 0.65278 0.0
H409 H 0.04844 0.74468 0.57311 0.0
H410 H 0.06007 0.68803 0.57569 0.0
H411 H 0.10351 0.72528 0.57405 0.0
H412 H 0.13409 0.69518 0.61525 0.0
H413 H 0.08977 0.6581 0.61733 0.0
H414 H 0.10066 0.69437 0.64265 0.0
H415 H 0.9667 0.79341 0.65566 0.0
H416 H 0.90742 0.74831 0.6403 0.0
H417 H 0.99906 0.67085 0.5989 0.0
C418 C 0.11388 0.79506 0.60837 0.0
C419 C 0.11391 0.83889 0.61424 0.0
C420 C 0.08375 0.8562 0.63116 0.0
C421 C 0.05158 0.82999 0.64113 0.0
C422 C 0.05119 0.78666 0.63436 0.0
C423 C 0.08198 0.76924 0.6185 0.0
C424 C 0.07025 0.72457 0.6102 0.0
C425 C 0.0705 0.7205 0.5816 0.0
C426 C 0.10048 0.69108 0.62209 0.0
C427 C 1.02528 0.72193 0.62098 0.0
C428 C 1.01586 0.75683 0.63615 0.0
C429 C 0.97397 0.76527 0.64456 0.0
C430 C 0.94045 0.73954 0.63575 0.0
C431 C 0.94933 0.70665 0.61838 0.0
C432 C 0.99221 0.69581 0.61239 0.0
H433 H 0.14317 0.26416 0.81933 0.0
H434 H 0.1062 0.20169 0.88794 0.0
H435 H 0.05567 0.26123 0.89706 0.0
H436 H 0.12305 0.38044 0.84059 0.0
H437 H 0.10197 0.39343 0.81032 0.0
H438 H 0.14486 0.35428 0.81339 0.0
H439 H 0.09836 0.29941 0.78932 0.0
H440 H 0.05483 0.33747 0.78682 0.0
H441 H 0.04549 0.28596 0.80092 0.0
H442 H 0.99841 0.31873 0.89417 0.0
H443 H 0.94231 0.37085 0.87998 0.0
H444 H 1.01363 0.38988 0.81177 0.0
C445 C 0.1259 0.26389 0.83682 0.0
C446 C 0.12829 0.22825 0.8528 0.0
C447 C 0.10488 0.2288 0.87541 0.0
C448 C 0.0761 0.26253 0.88077 0.0
C449 C 0.07171 0.29546 0.86349 0.0
C450 C 0.09667 0.29679 0.84216 0.0
C451 C 0.08113 0.33113 0.82451 0.0
C452 C 0.11475 0.36695 0.82207 0.0
C453 C 0.06924 0.31232 0.79891 0.0
C454 C 0.04167 0.34665 0.83833 0.0
C455 C 1.03741 0.32696 0.86116 0.0
C456 C 1.00179 0.33483 0.87651 0.0
C457 C 0.96996 0.36385 0.86827 0.0
C458 C 0.97366 0.38296 0.84465 0.0
C459 C 1.00999 0.37466 0.82972 0.0
H460 H 0.64209 0.80695 0.89757 0.0
H461 H 0.61094 0.88944 0.83549 0.0
H462 H 0.55192 0.84012 0.82325 0.0
H463 H 0.60927 0.70091 0.86676 0.0
H464 H 0.58847 0.68171 0.89592 0.0
H465 H 0.63477 0.7165 0.89544 0.0
H466 H 0.59549 0.76914 0.92529 0.0
H467 H 0.54917 0.73504 0.92584 0.0
H468 H 0.5432 0.79044 0.91677 0.0
H469 H 0.48818 0.79194 0.82388 0.0
H470 H 0.42516 0.74963 0.83694 0.0
H471 H 0.49883 0.69885 0.89893 0.0
C472 C 0.62358 0.81364 0.88093 0.0
C473 C 0.63018 0.85147 0.86741 0.0
C474 C 0.60588 0.86013 0.84585 0.0
C475 C 0.57271 0.83224 0.83876 0.0
C476 C 0.56553 0.79579 0.85321 0.0
C477 C 0.59088 0.78612 0.87364 0.0
C478 C 0.57308 0.74909 0.88833 0.0
C479 C 0.60318 0.70972 0.88649 0.0
C480 C 0.56472 0.76174 0.91564 0.0
C481 C 0.53158 0.74191 0.87436 0.0
C482 C 0.52843 0.76801 0.85366 0.0
C483 C 0.49072 0.77054 0.83962 0.0
C484 C 0.45504 0.74663 0.84728 0.0
C485 C 0.45726 0.72137 0.86908 0.0
C486 C 0.4964 0.71794 0.8822 0.0
H487 H 0.61761 0.24905 0.60448 0.0
H488 H 0.52856 0.14306 0.6097 0.0
H489 H 0.46943 0.18937 0.59413 0.0
H490 H 0.55478 0.32622 0.62627 0.0
H491 H 0.57104 0.36842 0.60548 0.0
H492 H 0.60694 0.3243 0.61132 0.0
H493 H 0.61101 0.30932 0.56394 0.0
H494 H 0.57399 0.3532 0.55817 0.0
H495 H 0.56203 0.30023 0.54667 0.0
H496 H 0.41857 0.25043 0.59166 0.0
H497 H 0.38281 0.31956 0.60104 0.0
H498 H 0.503 0.38545 0.5885 0.0
C499 C 0.5859 0.23555 0.60144 0.0
C500 C 0.57722 0.19294 0.60818 0.0
C501 C 0.53556 0.17582 0.60438 0.0
C502 C 0.50193 0.20176 0.59539 0.0
C503 C 0.51097 0.24426 0.58944 0.0
C504 C 0.55228 0.26074 0.59167 0.0
C505 C 0.5525 0.30847 0.58677 0.0
C506 C 0.57242 0.33325 0.60877 0.0
C507 C 0.57629 0.31837 0.56243 0.0
C508 C 0.50441 0.31702 0.5842 0.0
C509 C 0.48089 0.27944 0.58526 0.0
C510 C 0.43624 0.27999 0.58938 0.0
C511 C 0.41578 0.31951 0.5943 0.0
C512 C 0.43996 0.35766 0.59446 0.0
C513 C 0.48376 0.35659 0.5873 0.0
H514 H 0.14977 0.29936 0.41004 0.0
H515 H 0.12433 0.38046 0.3465 0.0
H516 H 0.06914 0.3287 0.33164 0.0
H517 H 0.13136 0.19394 0.37741 0.0
H518 H 0.10744 0.17148 0.40493 0.0
H519 H 0.14957 0.21089 0.40763 0.0
H520 H 0.09948 0.25842 0.43513 0.0
H521 H 0.05764 0.21917 0.43265 0.0
H522 H 0.04694 0.2739 0.42358 0.0
H523 H 1.00944 0.27491 0.32827 0.0
H524 H 0.94874 0.22657 0.33735 0.0
H525 H 1.01665 0.1793 0.40233 0.0
C526 C 0.13288 0.3057 0.3928 0.0
C527 C 0.14016 0.34357 0.37944 0.0
C528 C 0.11838 0.35136 0.35689 0.0
C529 C 0.08754 0.32204 0.34829 0.0
C530 C 0.08036 0.28498 0.36221 0.0
C531 C 0.10285 0.27664 0.38387 0.0
C532 C 0.08647 0.23725 0.39692 0.0
C533 C 0.12075 0.20126 0.3967 0.0
C534 C 0.07173 0.24786 0.42362 0.0
C535 C 0.04891 0.22645 0.38029 0.0
C536 C 0.04655 0.25348 0.35996 0.0
C537 C 1.01151 0.25287 0.34373 0.0
C538 C 0.97717 0.22531 0.34905 0.0
C539 C 0.97808 0.19944 0.37064 0.0
C540 C 1.01529 0.19859 0.38564 0.0
H541 H 1.03793 0.68999 0.16356 0.0
H542 H 0.11809 0.70979 0.09875 0.0
H543 H 0.06717 0.76608 0.08387 0.0
H544 H 0.93306 0.70707 0.1307 0.0
H545 H 0.90916 0.7327 0.15748 0.0
H546 H 0.94975 0.69143 0.16145 0.0
H547 H 0.99621 0.74343 0.1879 0.0
H548 H 0.95535 0.78414 0.18442 0.0
H549 H 1.01025 0.79505 0.17531 0.0
H550 H 1.01383 0.82695 0.08002 0.0
H551 H 0.96421 0.88791 0.08815 0.0
H552 H 0.91438 0.82164 0.15275 0.0
C553 C 0.0445 0.70627 0.14622 0.0
C554 C 0.08185 0.69677 0.13242 0.0
C555 C 0.08953 0.71752 0.10957 0.0
C556 C 0.06068 0.74899 0.10091 0.0
C557 C 1.02382 0.75781 0.11498 0.0
C558 C 1.01547 0.73663 0.13701 0.0
C559 C 0.97508 0.75343 0.1494 0.0
C560 C 0.93967 0.71911 0.14976 0.0
C561 C 0.98484 0.77002 0.17579 0.0
C562 C 0.96363 0.78945 0.13185 0.0
C563 C 0.99157 0.79115 0.11185 0.0
C564 C 0.99096 0.82538 0.09519 0.0
C565 C 0.9626 0.85981 0.0999 0.0
C566 C 0.93568 0.85949 0.12114 0.0
C567 C 0.93445 0.82267 0.13628 0.0
H568 H 0.46129 1.02914 0.037 0.0
H569 H 0.41701 0.12458 0.98397 0.0
H570 H 0.47279 0.10087 0.95451 0.0
H571 H 0.5755 0.04038 0.02339 0.0
H572 H 0.58847 0.98411 0.02629 0.0
H573 H 0.54369 1.00674 0.04341 0.0
H574 H 0.49293 0.95025 0.02393 0.0
H575 H 0.5377 0.92779 0.00669 0.0
H576 H 0.48973 0.94553 -0.00938 0.0
H577 H 0.53473 0.07075 0.93101 0.0
H578 H 0.59965 1.03499 0.91442 0.0
H579 H 0.60802 0.95637 0.98069 0.0
C580 C 0.46306 0.04461 0.01907 0.0
C581 C 0.43426 0.0791 0.01306 0.0
C582 C 0.43844 0.09858 -0.01062 0.0
C583 C 0.47014 0.08517 0.97234 0.0
C584 C 0.49827 0.05195 0.97887 0.0
C585 C 0.49529 1.03169 0.00159 0.0
C586 C 0.53115 0.99758 0.00373 0.0
C587 C 0.56149 1.00783 0.02551 0.0
C588 C 0.51171 0.95261 0.00641 0.0
C589 C 0.55457 1.00223 0.97879 0.0
C590 C 0.53465 1.03392 0.9649 0.0
C591 C 0.55041 0.04569 0.94168 0.0
C592 C 0.58759 1.0251 0.93238 0.0
C593 C 0.6093 0.99246 0.94596 0.0
C594 C 0.59204 0.9806 0.96954 0.0
H595 H 0.79622 0.71571 0.28468 0.0
H596 H 0.65963 0.72701 0.26717 0.0
H597 H 0.6749 0.78856 0.24015 0.0
H598 H 0.8174 0.83175 0.28543 0.0
H599 H 0.87008 0.82677 0.27141 0.0
H600 H 0.84913 0.78363 0.29001 0.0
H601 H 0.86029 0.73085 0.25335 0.0
H602 H 0.88126 0.77379 0.23463 0.0
H603 H 0.83613 0.74281 0.22369 0.0
H604 H 0.70424 0.84835 0.21384 0.0
H605 H 0.74532 0.90275 0.19094 0.0
H606 H 0.86413 0.85601 0.22459 0.0
C607 C 0.76945 0.73126 0.27529 0.0
C608 C 0.72644 0.71583 0.27834 0.0
C609 C 0.69276 0.73755 0.26544 0.0
C610 C 0.70113 0.77282 0.24991 0.0
C611 C 0.74356 0.78687 0.24718 0.0
C612 C 0.77728 0.767 0.25958 0.0
C613 C 0.81993 0.78895 0.2531 0.0
C614 C 0.84035 0.80895 0.27637 0.0
C615 C 0.85126 0.7572 0.24044 0.0
C616 C 0.80488 0.82374 0.23498 0.0
C617 C 0.76061 0.82183 0.23197 0.0
C618 C 0.73892 0.85013 0.21616 0.0
C619 C 0.76275 0.88113 0.20313 0.0
C620 C 0.8083 0.8843 0.2057 0.0
C621 C 0.82947 0.85486 0.22202 0.0
H622 H 0.10904 1.031 0.53726 0.0
H623 H 0.10592 0.90375 0.5042 0.0
H624 H 0.04853 0.92772 0.47579 0.0
H625 H 0.99204 0.05083 0.5336 0.0
H626 H 0.99695 0.10693 0.52615 0.0
H627 H 1.03819 0.08057 0.54433 0.0
H628 H 0.0962 0.1044 0.51275 0.0
H629 H 0.05511 0.13071 0.49443 0.0
H630 H 0.08989 0.09079 0.48041 0.0
H631 H 0.99244 0.96412 0.45039 0.0
H632 H 0.939 1.0099 0.42987 0.0
H633 H 0.97368 0.11624 0.47812 0.0
C634 C 0.09621 1.00813 0.52409 0.0
C635 C 0.11256 0.96507 0.52325 0.0
C636 C 0.09442 0.93659 0.50558 0.0
C637 C 0.06164 0.95002 0.4892 0.0
C638 C 0.04648 0.99227 0.49047 0.0
C639 C 0.06284 1.02104 0.50749 0.0
C640 C 0.03985 0.06461 0.50472 0.0
C641 C 1.01531 0.07643 0.52862 0.0
C642 C 0.0722 0.09971 0.49766 0.0
C643 C 1.0084 0.05576 0.48338 0.0
C644 C 1.01316 1.01364 0.47564 0.0
C645 C 0.98837 0.99708 0.4564 0.0
C646 C 0.95774 1.02372 0.44481 0.0
C647 C 0.9512 0.0672 0.45217 0.0
C648 C 0.97745 0.08341 0.47183 0.0
H649 H 0.86645 0.35532 0.74676 0.0
H650 H 0.75448 0.40152 0.78786 0.0
H651 H 0.70881 0.34977 0.7659 0.0
H652 H 0.81085 0.33634 0.68846 0.0
H653 H 0.83993 0.28763 0.68098 0.0
H654 H 0.86512 0.32833 0.69977 0.0
H655 H 0.87941 0.27261 0.73438 0.0
H656 H 0.85453 0.23166 0.71564 0.0
H657 H 0.83497 0.24213 0.74661 0.0
H658 H 0.67372 0.29501 0.73915 0.0
H659 H 0.65185 0.23664 0.71148 0.0
H660 H 0.78496 0.22034 0.68722 0.0
C661 C 0.83238 0.35436 0.75127 0.0
C662 C 0.81447 0.38308 0.76931 0.0
C663 C 0.76952 0.38037 0.77435 0.0
C664 C 0.74303 0.35095 0.76184 0.0
C665 C 0.76146 0.32363 0.74417 0.0
C666 C 0.80513 0.32458 0.73896 0.0
C667 C 0.81618 0.29071 0.71923 0.0
C668 C 0.83409 0.31202 0.69571 0.0
C669 C 0.84818 0.25729 0.72959 0.0
C670 C 0.77193 0.27073 0.7143 0.0
C671 C 0.741 0.29078 0.72886 0.0
C672 C 0.69774 0.27898 0.72775 0.0
C673 C 0.6856 0.24555 0.71175 0.0
C674 C 0.71633 0.2232 0.69683 0.0
C675 C 0.76034 0.23647 0.69815 0.0
H676 H 0.30166 0.37516 0.70898 0.0
H677 H 0.41986 0.30773 0.68881 0.0
H678 H 0.39468 0.24375 0.71139 0.0
H679 H 0.28953 0.3306 0.77032 0.0
H680 H 0.2316 0.32577 0.76852 0.0
H681 H 0.25872 0.36668 0.75096 0.0
H682 H 0.22413 0.33803 0.71051 0.0
H683 H 0.19687 0.29707 0.72798 0.0
H684 H 0.23114 0.2823 0.70223 0.0
H685 H 0.35843 0.18772 0.7379 0.0
H686 H 0.312 0.1421 0.76382 0.0
H687 H 0.21392 0.24236 0.76527 0.0
C688 C 0.3223 0.34694 0.70932 0.0
C689 C 0.36313 0.34694 0.69708 0.0
C690 C 0.38864 0.30894 0.69789 0.0
C691 C 0.37457 0.2723 0.71077 0.0
C692 C 0.33442 0.27344 0.72264 0.0
C693 C 0.30835 0.3096 0.72182 0.0
C694 C 0.26612 0.30175 0.73574 0.0
C695 C 0.26121 0.33307 0.75769 0.0
C696 C 0.22726 0.30498 0.71806 0.0
C697 C 0.27276 0.25577 0.74477 0.0
C698 C 0.31261 0.24033 0.7371 0.0
C699 C 0.32705 0.19945 0.7438 0.0
C700 C 0.30036 0.17373 0.75867 0.0
C701 C 0.25902 0.18823 0.76664 0.0
C702 C 0.24503 0.22994 0.75933 0.0
H703 H 0.37435 0.84988 0.24963 0.0
H704 H 0.27299 0.8692 0.30448 0.0
H705 H 0.22982 0.81334 0.28443 0.0
H706 H 0.30269 0.83021 0.19731 0.0
H707 H 0.33583 0.78882 0.18341 0.0
H708 H 0.36038 0.83029 0.20192 0.0
H709 H 0.39556 0.77263 0.23001 0.0
H710 H 0.37122 0.73097 0.21155 0.0
H711 H 0.36199 0.73292 0.24458 0.0
H712 H 0.19591 0.75727 0.25895 0.0
H713 H 0.17326 0.7013 0.2302 0.0
H714 H 0.29469 0.71249 0.1901 0.0
C715 C 0.34321 0.84212 0.25752 0.0
C716 C 0.32744 0.86457 0.27891 0.0
C717 C 0.28623 0.85317 0.28829 0.0
C718 C 0.26123 0.82123 0.27696 0.0
C719 C 0.27734 0.8002 0.25601 0.0
C720 C 0.31739 0.80978 0.24631 0.0
C721 C 0.32624 0.78156 0.22344 0.0
C722 C 0.33161 0.80938 0.20014 0.0
C723 C 0.36613 0.75281 0.22765 0.0
C724 C 0.28492 0.75478 0.22196 0.0
C725 C 0.25741 0.76665 0.24104 0.0
C726 C 0.21725 0.74766 0.24399 0.0
C727 C 0.20464 0.71558 0.22728 0.0
C728 C 0.2318 0.70166 0.20746 0.0
C729 C 0.27282 0.72197 0.20484 0.0
H730 H 0.10228 0.45203 0.47656 0.0
H731 H 0.15341 0.5606 0.43586 0.0
H732 H 0.09992 0.60805 0.45574 0.0
H733 H 0.98886 0.48602 0.47282 0.0
H734 H 0.97542 0.46791 0.50361 0.0
H735 H 1.01804 0.4416 0.4864 0.0
H736 H 0.07111 0.45569 0.52256 0.0
H737 H 1.02872 0.48228 0.53982 0.0
H738 H 0.07859 0.50978 0.53359 0.0
H739 H 0.0426 0.64551 0.4808 0.0
H740 H 0.98156 0.66922 0.50684 0.0
H741 H 0.96253 0.53786 0.53106 0.0
C742 C 0.10204 0.48571 0.47168 0.0
C743 C 0.13268 0.5021 0.4544 0.0
C744 C 0.13082 0.54666 0.44885 0.0
C745 C 0.1004 0.57419 0.46017 0.0
C746 C 0.07117 0.55725 0.47714 0.0
C747 C 0.07127 0.51399 0.48277 0.0
C748 C 1.03543 0.50448 0.50149 0.0
C749 C 1.00248 0.47314 0.49042 0.0
C750 C 0.05461 0.48702 0.52581 0.0
C751 C 1.01531 0.54904 0.50537 0.0
C752 C 1.03694 0.57893 0.49125 0.0
C753 C 1.02529 0.62228 0.49182 0.0
C754 C 0.99041 0.63552 0.50685 0.0
C755 C 0.96654 0.60574 0.52117 0.0
C756 C 0.97968 0.56172 0.5204 0.0
H757 H 0.61114 0.46063 -0.00804 0.0
H758 H 0.60218 0.54304 0.05694 0.0
H759 H 0.54172 0.58225 0.03793 0.0
H760 H 0.5869 0.54393 0.94701 0.0
H761 H 0.5548 0.51054 0.92694 0.0
H762 H 0.597 0.48692 0.94562 0.0
H763 H 0.54174 0.43494 0.96501 0.0
H764 H 0.49939 0.45841 0.94636 0.0
H765 H 0.49375 0.45633 0.97964 0.0
H766 H 0.48387 0.61521 0.01224 0.0
H767 H 0.43044 0.63914 0.98153 0.0
H768 H 0.47172 0.53713 0.93156 0.0
C769 C 0.59606 0.48655 0.00229 0.0
C770 C 0.61204 0.49835 0.02623 0.0
C771 C 0.59132 0.53306 0.03872 0.0
C772 C 0.55662 0.55572 0.02803 0.0
C773 C 0.54213 0.54387 0.00453 0.0
C774 C 0.56088 0.51005 -0.00828 0.0
C775 C 0.53874 0.50515 0.96639 0.0
C776 C 0.5713 0.51204 0.94523 0.0
C777 C 0.51712 0.46108 0.96422 0.0
C778 C 0.50487 0.5414 0.96714 0.0
C779 C 0.50786 0.56317 -0.01056 0.0
C780 C 0.48123 0.59832 -0.00526 0.0
C781 C 0.45085 0.61184 0.97696 0.0
C782 C 0.44633 0.59047 0.9538 0.0
C783 C 0.47387 0.55431 0.949 0.0
H784 H 0.28412 0.26876 0.12481 0.0
H785 H 0.30124 0.29025 0.04588 0.0
H786 H 0.28018 0.36611 0.05137 0.0
H787 H 0.19162 0.34235 0.1335 0.0
H788 H 0.20984 0.36157 0.16327 0.0
H789 H 0.22372 0.30798 0.15322 0.0
H790 H 0.30473 0.32459 0.15974 0.0
H791 H 0.29113 0.37835 0.16958 0.0
H792 H 0.32825 0.36996 0.14421 0.0
H793 H 0.25873 0.43939 0.06474 0.0
H794 H 0.23711 0.50674 0.08521 0.0
H795 H 0.23612 0.44225 0.15655 0.0
C796 C 0.28259 0.28933 0.10866 0.0
C797 C 0.29392 0.27323 0.08478 0.0
C798 C 0.29256 0.30158 0.06427 0.0
C799 C 0.28068 0.34484 0.06721 0.0
C800 C 0.27057 0.35991 0.09091 0.0
C801 C 0.27132 0.33322 0.11135 0.0
C802 C 0.26035 0.35868 0.13483 0.0
C803 C 0.21891 0.34162 0.14692 0.0
C804 C 0.29838 0.35783 0.15318 0.0
C805 C 0.25327 0.40365 0.12431 0.0
C806 C 0.25924 0.40321 0.09887 0.0
C807 C 0.25397 0.4401 0.08464 0.0
C808 C 0.24164 0.47834 0.09651 0.0
C809 C 0.23494 0.48015 0.12255 0.0
C810 C 0.24142 0.44217 0.13669 0.0
H811 H 0.52781 0.59078 0.35164 0.0
H812 H 0.60613 0.47535 0.35874 0.0
H813 H 0.54311 0.43674 0.37555 0.0
H814 H 0.46881 0.57655 0.40858 0.0
H815 H 0.41857 0.59744 0.39653 0.0
H816 H 0.46919 0.6157 0.384 0.0
H817 H 0.44491 0.59346 0.33985 0.0
H818 H 0.39409 0.57548 0.3522 0.0
H819 H 0.42743 0.53922 0.33427 0.0
H820 H 0.47096 0.41005 0.3911 0.0
H821 H 0.3953 0.39769 0.40429 0.0
H822 H 0.36415 0.53091 0.38944 0.0
C823 C 0.53154 0.5572 0.35639 0.0
C824 C 0.57201 0.53598 0.35357 0.0
C825 C 0.57558 0.49228 0.36058 0.0
C826 C 0.53991 0.47008 0.37021 0.0
C827 C 0.50074 0.49203 0.37309 0.0
C828 C 0.49632 0.53466 0.36643 0.0
C829 C 0.45089 0.55102 0.37206 0.0
C830 C 0.45194 0.58733 0.39144 0.0
C831 C 0.42798 0.56565 0.34817 0.0
C832 C 0.4303 0.51083 0.38264 0.0
C833 C 0.45968 0.47715 0.38304 0.0
C834 C 0.4479 0.43634 0.39115 0.0
C835 C 0.40496 0.42961 0.39874 0.0
C836 C 0.37437 0.46355 0.39853 0.0
C837 C 0.38732 0.50473 0.39047 0.0
H838 H 0.22224 0.75294 0.60345 0.0
H839 H 0.34095 0.8252 0.59773 0.0
H840 H 0.38288 0.76075 0.61011 0.0
H841 H 0.25503 0.6942 0.65876 0.0
H842 H 0.22811 0.64545 0.64981 0.0
H843 H 0.20758 0.69662 0.63941 0.0
H844 H 0.21233 0.67045 0.59382 0.0
H845 H 0.2329 0.61929 0.60417 0.0
H846 H 0.26308 0.65023 0.58197 0.0
H847 H 0.41236 0.68773 0.62138 0.0
H848 H 0.42723 0.61236 0.63305 0.0
H849 H 0.28964 0.58772 0.63573 0.0
C850 C 0.25712 0.75492 0.60452 0.0
C851 C 0.27849 0.79399 0.59919 0.0
C852 C 0.32401 0.79562 0.60151 0.0
C853 C 0.34806 0.75915 0.60856 0.0
C854 C 0.32615 0.72127 0.61388 0.0
C855 C 0.28165 0.71894 0.61225 0.0
C856 C 0.26612 0.6747 0.62012 0.0
C857 C 0.23751 0.67795 0.64341 0.0
C858 C 0.2422 0.65235 0.59874 0.0
C859 C 0.3089 0.65226 0.62589 0.0
C860 C 0.34306 0.67979 0.622 0.0
C861 C 0.38582 0.66612 0.62482 0.0
C862 C 0.39399 0.62324 0.63152 0.0
C863 C 0.35972 0.59435 0.63586 0.0
C864 C 0.31652 0.60934 0.63324 0.0
H865 H 1.0189 0.54997 0.85929 0.0
H866 H 0.04876 0.50395 0.78511 0.0
H867 H 0.1258 0.52064 0.79188 0.0
H868 H 0.09706 0.63688 0.86147 0.0
H869 H 0.11098 0.62789 0.89354 0.0
H870 H 0.05782 0.61457 0.88244 0.0
H871 H 0.06815 0.53684 0.89835 0.0
H872 H 0.12152 0.54978 0.90929 0.0
H873 H 0.11413 0.50572 0.888 0.0
H874 H 0.19937 0.54286 0.80631 0.0
H875 H 0.26518 0.56747 0.8276 0.0
H876 H 0.19037 0.59508 0.89393 0.0
C877 C 0.04154 0.54413 0.8443 0.0
C878 C 1.02746 0.52624 0.82142 0.0
C879 C 0.05849 0.51799 0.80263 0.0
C880 C 0.10241 0.52728 0.80636 0.0
C881 C 0.11525 0.54432 0.82916 0.0
C882 C 0.08583 0.55254 0.84789 0.0
C883 C 0.10868 0.56938 0.87098 0.0
C884 C 0.09268 0.61489 0.87749 0.0
C885 C 0.10276 0.53859 0.89296 0.0
C886 C 0.15548 0.56971 0.86223 0.0
C887 C 0.15827 0.55532 0.83796 0.0
C888 C 0.19755 0.55392 0.82534 0.0
C889 C 0.23483 0.56801 0.83763 0.0
C890 C 0.23319 0.58289 0.86252 0.0
C891 C 0.19287 0.58323 0.87507 0.0
H892 H 0.78742 0.60671 0.8511 0.0
H893 H 0.91205 0.63894 0.81996 0.0
H894 H 0.90302 0.71382 0.83482 0.0
H895 H 0.73395 0.70935 0.83628 0.0
H896 H 0.70268 0.71068 0.8645 0.0
H897 H 0.71829 0.65992 0.85098 0.0
H898 H 0.75429 0.63761 0.89235 0.0
H899 H 0.73901 0.68839 0.90598 0.0
H900 H 0.7949 0.67155 0.90593 0.0
H901 H 0.88165 0.78444 0.854 0.0
H902 H 0.84714 0.84805 0.87298 0.0
H903 H 0.73505 0.77191 0.89194 0.0
C904 C 0.81233 0.6299 0.84706 0.0
C905 C 0.85019 0.61741 0.83396 0.0
C906 C 0.88257 0.64816 0.82951 0.0
C907 C 0.87779 0.69064 0.83806 0.0
C908 C 0.84038 0.70198 0.85113 0.0
C909 C 0.80789 0.67271 0.85538 0.0
C910 C 0.77086 0.69359 0.86983 0.0
C911 C 0.72897 0.69337 0.85448 0.0
C912 C 0.7644 0.67146 0.89502 0.0
C913 C 0.78775 0.73904 0.87317 0.0
C914 C 0.82802 0.74294 0.86229 0.0
C915 C 0.85012 0.78172 0.86253 0.0
C916 C 0.83024 0.81775 0.87348 0.0
C917 C 0.78845 0.81524 0.88421 0.0
C918 C 0.76731 0.77492 0.88437 0.0
H919 H 0.56069 0.51775 0.64993 0.0
H920 H 0.50824 0.48082 0.57826 0.0
H921 H 0.57226 0.50926 0.55748 0.0
H922 H 0.6076 0.61684 0.62946 0.0
H923 H 0.65564 0.61215 0.6482 0.0
H924 H 0.60619 0.58743 0.65823 0.0
H925 H 0.64534 0.51384 0.66115 0.0
H926 H 0.69497 0.53842 0.6513 0.0
H927 H 0.67391 0.49311 0.63446 0.0
H928 H 0.64091 0.54326 0.54353 0.0
H929 H 0.71157 0.57849 0.53804 0.0
H930 H 0.72114 0.59459 0.61797 0.0
C931 C 0.56294 0.51532 0.62992 0.0
C932 C 0.52888 0.49718 0.61587 0.0
C933 C 0.5333 0.49493 0.58962 0.0
C934 C 0.56976 0.51095 0.5775 0.0
C935 C 0.60218 0.52939 0.59168 0.0
C936 C 0.59946 0.53153 0.61731 0.0
C937 C 0.63914 0.55362 0.62784 0.0
C938 C 0.62637 0.59497 0.64176 0.0
C939 C 0.66486 0.52291 0.64468 0.0
C940 C 0.66404 0.5636 0.60416 0.0
C941 C 0.6421 0.54924 0.58353 0.0
C942 C 0.6585 0.55462 0.55957 0.0
C943 C 0.69868 0.57482 0.5566 0.0
C944 C 0.72218 0.58958 0.57745 0.0
C945 C 0.70415 0.58396 0.60153 0.0
H946 H 0.8235 0.3056 0.40984 0.0
H947 H 0.81981 0.2446 0.33732 0.0
H948 H 0.79818 0.31295 0.31835 0.0
H949 H 0.72865 0.37292 0.39958 0.0
H950 H 0.74931 0.41871 0.41613 0.0
H951 H 0.76678 0.36537 0.42452 0.0
H952 H 0.84648 0.38741 0.4182 0.0
H953 H 0.82921 0.44081 0.40977 0.0
H954 H 0.86293 0.40999 0.38893 0.0
H955 H 0.77775 0.38742 0.30633 0.0
H956 H 0.75483 0.46306 0.30259 0.0
H957 H 0.76637 0.47831 0.38245 0.0
C958 C 0.81834 0.30681 0.38998 0.0
C959 C 0.82345 0.26925 0.37517 0.0
C960 C 0.81588 0.27242 0.34924 0.0
C961 C 0.80373 0.31134 0.33816 0.0
C962 C 0.79856 0.34747 0.35311 0.0
C963 C 0.80518 0.34574 0.37849 0.0
C964 C 0.79535 0.38952 0.39011 0.0
C965 C 0.75779 0.38643 0.40869 0.0
C966 C 0.83591 0.40802 0.40249 0.0
C967 C 0.78235 0.41571 0.3673 0.0
C968 C 0.785 0.39069 0.34618 0.0
C969 C 0.77541 0.40732 0.32277 0.0
C970 C 0.76248 0.45054 0.32081 0.0
C971 C 0.75858 0.47705 0.34213 0.0
C972 C 0.76877 0.45908 0.36573 0.0
H973 H 0.87605 0.49247 0.07357 0.0
H974 H 0.80844 0.49596 0.14423 0.0
H975 H 0.87635 0.51193 0.16568 0.0
H976 H 0.97333 0.44192 0.09645 0.0
H977 H 1.00986 0.47276 0.07765 0.0
H978 H 0.95567 0.46284 0.06694 0.0
H979 H 0.9421 0.54452 0.06217 0.0
H980 H 0.99647 0.55461 0.0725 0.0
H981 H 0.95142 0.57958 0.08827 0.0
H982 H 0.95064 0.52646 0.18023 0.0
H983 H 1.0274 0.54398 0.18658 0.0
H984 H 0.05031 0.53056 0.10745 0.0
C985 C 0.87558 0.49718 0.09348 0.0
C986 C 0.83663 0.49273 0.10714 0.0
C987 C 0.83765 0.49876 0.13327 0.0
C988 C 0.87619 0.50785 0.14572 0.0
C989 C 0.91406 0.51084 0.13196 0.0
C990 C 0.91429 0.50613 0.10643 0.0
C991 C 0.96007 0.51114 0.09643 0.0
C992 C 0.97564 0.46969 0.08361 0.0
C993 C 0.96266 0.54976 0.0788 0.0
C994 C 0.98516 0.5193 0.12033 0.0
C995 C 0.95773 0.51887 0.14055 0.0
C996 C 0.97253 0.52673 0.16456 0.0
C997 C 1.01629 0.53646 0.16802 0.0
C998 C 0.04519 0.53806 0.14765 0.0
C999 C 1.02937 0.52857 0.1235 0.0
H1000 H 0.81211 0.81953 0.56661 0.0
H1001 H 0.77686 0.74367 0.63085 0.0
H1002 H 0.75028 0.80884 0.652 0.0
H1003 H 0.84518 0.91539 0.59944 0.0
H1004 H 0.82147 0.95233 0.57754 0.0
H1005 H 0.83945 0.90003 0.56733 0.0
H1006 H 0.76328 0.88455 0.54978 0.0
H1007 H 0.74527 0.93694 0.5598 0.0
H1008 H 0.71683 0.88976 0.56981 0.0
H1009 H 0.73096 0.88318 0.66768 0.0
H1010 H 0.71092 0.95954 0.67412 0.0
H1011 H 0.75089 0.98783 0.5988 0.0
C1012 C 0.79866 0.81669 0.58509 0.0
C1013 C 0.79672 0.77605 0.59696 0.0
C1014 C 0.77853 0.77401 0.62113 0.0
C1015 C 0.76353 0.81107 0.63346 0.0
C1016 C 0.76597 0.85047 0.62138 0.0
C1017 C 0.78226 0.85354 0.59753 0.0
C1018 C 0.77892 0.8998 0.58845 0.0
C1019 C 0.82394 0.91795 0.58286 0.0
C1020 C 0.74931 0.90294 0.5656 0.0
C1021 C 0.75857 0.92202 0.61092 0.0
C1022 C 0.75215 0.89302 0.62988 0.0
C1023 C 0.73542 0.90606 0.65283 0.0
C1024 C 0.7243 0.94961 0.65641 0.0
C1025 C 0.72893 0.97979 0.63701 0.0
C1026 C 0.74649 0.96554 0.61397 0.0
H1027 H 0.88888 0.98039 0.90428 0.0
H1028 H 0.80732 0.04236 0.84936 0.0
H1029 H 0.87114 0.0767 0.8309 0.0
H1030 H 0.96692 0.06903 0.91134 0.0
H1031 H 1.01303 1.03361 0.91395 0.0
H1032 H 0.96064 1.01613 0.92428 0.0
H1033 H 0.96664 0.94968 0.89551 0.0
H1034 H 1.01885 0.96716 0.88494 0.0
H1035 H 0.97641 0.95713 0.86281 0.0
H1036 H 0.94308 0.10221 0.81701 0.0
H1037 H 1.01942 0.11865 0.80883 0.0
H1038 H 0.0575 0.03952 0.87153 0.0
C1039 C 0.88457 1.00192 0.88872 0.0
C1040 C 0.84297 1.0091 0.87841 0.0
C1041 C 0.83876 0.03659 0.85762 0.0
C1042 C 0.87487 0.05624 0.84698 0.0
C1043 C 0.91546 0.04797 0.85712 0.0
C1044 C 0.92074 1.02161 0.87754 0.0
C1045 C 0.96857 1.01699 0.88388 0.0
C1046 C 0.97783 1.03502 0.90991 0.0
C1047 C 0.98349 0.96994 0.88165 0.0
C1048 C 0.98905 0.04463 0.8638 0.0
C1049 C 0.95759 0.06225 0.84868 0.0
C1050 C 0.96802 0.08872 0.82878 0.0
C1051 C 1.01167 0.09785 0.82425 0.0
C1052 C 0.04488 0.08052 0.83944 0.0
C1053 C 1.03313 0.05327 0.85945 0.0
H1054 H 0.793 0.09816 0.10297 0.0
H1055 H 0.89206 0.13356 0.15588 0.0
H1056 H 0.88497 0.20951 0.14294 0.0
H1057 H 0.81841 0.17511 0.05463 0.0
H1058 H 0.7629 0.18772 0.04732 0.0
H1059 H 0.77705 0.13552 0.05929 0.0
H1060 H 0.72227 0.1452 0.09513 0.0
H1061 H 0.70741 0.19717 0.08312 0.0
H1062 H 0.72544 0.19199 0.11479 0.0
H1063 H 0.86906 0.28069 0.12371 0.0
H1064 H 0.83719 0.34544 0.10517 0.0
H1065 H 0.74225 0.26743 0.06695 0.0
C1066 C 0.81319 0.12206 0.11173 0.0
C1067 C 0.84347 0.11005 0.13033 0.0
C1068 C 0.86881 0.14212 0.14167 0.0
C1069 C 0.86515 0.18525 0.13428 0.0
C1070 C 0.8353 0.19611 0.11584 0.0
C1071 C 0.80898 0.1657 0.10508 0.0
C1072 C 0.77722 0.1869 0.0871 0.0
C1073 C 0.78434 0.17031 0.06051 0.0
C1074 C 0.73031 0.1799 0.09554 0.0
C1075 C 0.78993 0.23394 0.08942 0.0
C1076 C 0.82414 0.23807 0.10575 0.0
C1077 C 0.84205 0.27784 0.11107 0.0
C1078 C 0.82365 0.31458 0.10029 0.0
C1079 C 0.78693 0.31202 0.08455 0.0
C1080 C 0.77053 0.27075 0.0786 0.0
H1081 H 0.69492 0.09288 0.40058 0.0
H1082 H 0.76364 0.08374 0.33038 0.0
H1083 H 0.69777 0.05884 0.30989 0.0
H1084 H 0.62787 0.99936 0.39145 0.0
H1085 H 0.58031 1.02306 0.40532 0.0
H1086 H 0.63317 0.04013 0.41504 0.0
H1087 H 0.61264 0.11883 0.40469 0.0
H1088 H 0.55978 0.10191 0.39484 0.0
H1089 H 0.59358 0.13192 0.37399 0.0
H1090 H 0.6256 1.03198 0.29663 0.0
H1091 H 0.55037 1.00724 0.29159 0.0
H1092 H 0.52509 0.03694 0.369 0.0
C1093 C 0.69601 0.08569 0.38092 0.0
C1094 C 0.73487 0.09052 0.36724 0.0
C1095 C 0.73459 0.08077 0.34144 0.0
C1096 C 0.69718 0.06642 0.3295 0.0
C1097 C 0.65955 0.06224 0.34335 0.0
C1098 C 0.65839 0.07177 0.36845 0.0
C1099 C 0.61314 0.06465 0.3787 0.0
C1100 C 0.61367 1.02972 0.39882 0.0
C1101 C 0.59364 0.10685 0.38864 0.0
C1102 C 0.58948 0.04951 0.3555 0.0
C1103 C 0.61708 0.04811 0.33539 0.0
C1104 C 0.60351 1.03339 0.31219 0.0
C1105 C 0.56068 1.01942 0.30947 0.0
C1106 C 0.53151 1.02076 0.3297 0.0
C1107 C 0.54624 0.03642 0.35298 0.0
H1108 H 0.3167 0.29971 0.3722 0.0
H1109 H 0.24551 0.26068 0.43769 0.0
H1110 H 0.26073 0.18462 0.42745 0.0
H1111 H 0.27846 0.21513 0.33282 0.0
H1112 H 0.32871 0.20829 0.31628 0.0
H1113 H 0.31459 0.25982 0.32935 0.0
H1114 H 0.38636 0.2607 0.35398 0.0
H1115 H 0.40094 0.20938 0.34081 0.0
H1116 H 0.3997 0.21628 0.37403 0.0
H1117 H 0.2844 0.11252 0.41038 0.0
H1118 H 0.31339 0.04984 0.38753 0.0
H1119 H 0.36557 0.13403 0.33123 0.0
C1120 C 0.30492 0.27525 0.38468 0.0
C1121 C 0.28039 0.28656 0.40611 0.0
C1122 C 0.26473 0.25318 0.42142 0.0
C1123 C 0.27312 0.20977 0.41567 0.0
C1124 C 0.29685 0.19984 0.39431 0.0
C1125 C 0.31245 0.23162 0.37899 0.0
C1126 C 0.33579 0.21211 0.35667 0.0
C1127 C 0.31302 0.22459 0.33234 0.0
C1128 C 0.38354 0.22541 0.35636 0.0
C1129 C 0.33122 0.16435 0.36188 0.0
C1130 C 0.30879 0.15815 0.38381 0.0
C1131 C 0.30166 0.11712 0.39312 0.0
C1132 C 0.31821 0.08163 0.37996 0.0
C1133 C 0.3412 0.08686 0.35741 0.0
C1134 C 0.34739 0.12892 0.34813 0.0
H1135 H 1.00543 1.0353 0.09905 0.0
H1136 H 1.03454 0.99422 0.17417 0.0
H1137 H 0.11008 1.01693 0.16877 0.0
H1138 H 0.10685 0.99867 0.07252 0.0
H1139 H 0.11179 0.04283 0.05117 0.0
H1140 H 0.05908 1.0254 0.06095 0.0
H1141 H 0.04082 0.10233 0.07606 0.0
H1142 H 0.09343 0.12004 0.06626 0.0
H1143 H 0.07621 0.12838 0.09789 0.0
H1144 H 0.18177 0.04448 0.15604 0.0
H1145 H 0.24719 0.07242 0.13622 0.0
H1146 H 0.17604 0.09281 0.06773 0.0
C1147 C 1.02767 1.03151 0.11442 0.0
C1148 C 1.01376 1.01316 0.13719 0.0
C1149 C 0.04419 1.0081 0.15662 0.0
C1150 C 0.08725 1.021 0.15373 0.0
C1151 C 0.1 0.03852 0.13112 0.0
C1152 C 0.07136 0.04358 0.11167 0.0
C1153 C 0.09446 0.06195 0.08905 0.0
C1154 C 0.09294 1.03032 0.06712 0.0
C1155 C 0.07507 0.10578 0.0819 0.0
C1156 C 0.1404 0.06658 0.09892 0.0
C1157 C 0.14242 0.05312 0.12333 0.0
C1158 C 0.18058 0.055 0.13692 0.0
C1159 C 0.21767 0.07116 0.12544 0.0
C1160 C 0.21708 0.08502 0.10036 0.0
C1161 C 0.17776 0.08227 0.08684 0.0
H1162 H 0.23255 0.94425 0.81634 0.0
H1163 H 0.19988 0.99545 0.88918 0.0
H1164 H 0.21834 0.92639 0.90811 0.0
H1165 H 0.19113 0.83496 0.82821 0.0
H1166 H 0.234 0.80883 0.81111 0.0
H1167 H 0.21625 0.86198 0.80247 0.0
H1168 H 0.29457 0.88955 0.80693 0.0
H1169 H 0.31253 0.83654 0.81559 0.0
H1170 H 0.32302 0.88149 0.83577 0.0
H1171 H 0.24639 0.85482 0.92033 0.0
H1172 H 0.27879 0.78241 0.92446 0.0
H1173 H 0.28981 0.7731 0.8444 0.0
C1174 C 0.22871 0.94071 0.83621 0.0
C1175 C 0.21464 0.97579 0.85112 0.0
C1176 C 0.21046 0.96954 0.87713 0.0
C1177 C 0.22089 0.93022 0.8882 0.0
C1178 C 0.23513 0.89668 0.87316 0.0
C1179 C 0.23869 0.90112 0.84771 0.0
C1180 C 0.25582 0.85967 0.83614 0.0
C1181 C 0.22229 0.84021 0.81843 0.0
C1182 C 0.29905 0.86728 0.82282 0.0
C1183 C 0.26194 0.83184 0.85912 0.0
C1184 C 0.24986 0.8541 0.88025 0.0
C1185 C 0.25521 0.83672 0.9039 0.0
C1186 C 0.27365 0.79561 0.9061 0.0
C1187 C 0.28591 0.77186 0.8848 0.0
C1188 C 0.27953 0.7901 0.86096 0.0
H1189 H 0.54589 1.0315 0.60052 0.0
H1190 H 0.52498 0.05428 0.67909 0.0
H1191 H 0.44989 1.02948 0.67499 0.0
H1192 H 0.4431 0.06977 0.58111 0.0
H1193 H 0.43525 1.03084 0.55674 0.0
H1194 H 0.48914 0.04594 0.56569 0.0
H1195 H 0.50884 0.96645 0.57416 0.0
H1196 H 0.45522 0.95095 0.56486 0.0
H1197 H 0.47568 0.93551 0.5949 0.0
H1198 H 0.37715 1.00815 0.66268 0.0
H1199 H 0.30941 0.98595 0.64357 0.0
H1200 H 0.37299 0.97631 0.57172 0.0
C1201 C 0.52577 1.02986 0.61694 0.0
C1202 C 0.54147 0.044 0.64031 0.0
C1203 C 0.51377 0.04305 0.66118 0.0
C1204 C 0.47103 1.0292 0.65898 0.0
C1205 C 0.4561 1.01667 0.63569 0.0
C1206 C 0.48245 1.01645 0.615 0.0
C1207 C 0.45687 1.0033 0.59201 0.0
C1208 C 0.45605 0.03963 0.57275 0.0
C1209 C 0.47525 0.96156 0.58082 0.0
C1210 C 0.41214 0.99632 0.60312 0.0
C1211 C 0.41293 1.0044 0.62836 0.0
C1212 C 0.3762 1.00122 0.643 0.0
C1213 C 0.33769 0.98848 0.63181 0.0
C1214 C 0.33553 0.9788 0.60605 0.0
C1215 C 0.37338 0.98342 0.5914 0.0
H1216 H 0.31086 0.08155 0.98316 0.0
H1217 H 0.29225 0.21918 -0.00841 0.0
H1218 H 0.30436 0.22839 0.94668 0.0
H1219 H 0.3942 0.0879 0.93295 0.0
H1220 H 0.37309 0.04082 0.91789 0.0
H1221 H 0.36993 0.04611 0.9512 0.0
H1222 H 0.28641 0.03557 0.9496 0.0
H1223 H 0.29046 1.02857 0.91669 0.0
H1224 H 0.25462 0.0691 0.92923 0.0
H1225 H 0.309 0.22221 0.90171 0.0
H1226 H 0.28537 0.19943 0.86024 0.0
H1227 H 0.30591 0.06667 0.88021 0.0
C1228 C 0.30908 0.1137 0.97562 0.0
C1229 C 0.30063 0.14966 -0.00912 0.0
C1230 C 0.2986 0.19112 0.9802 0.0
C1231 C 0.30645 0.19676 0.95486 0.0
C1232 C 0.31685 0.16075 0.9406 0.0
C1233 C 0.31735 0.11995 0.95053 0.0
C1234 C 0.32343 0.08598 0.93082 0.0
C1235 C 0.3678 0.0639 0.93338 0.0
C1236 C 0.28652 0.05295 0.93162 0.0
C1237 C 0.32175 0.11381 0.90787 0.0
C1238 C 0.32043 0.15711 0.91402 0.0
C1239 C 0.31121 0.18869 0.89652 0.0
C1240 C 0.29828 0.17557 0.87291 0.0
C1241 C 0.29444 0.13146 0.86743 0.0
C1242 C 0.31028 0.10051 0.88405 0.0
H1243 H 0.72062 0.56023 0.13498 0.0
H1244 H 0.60476 0.48374 0.13036 0.0
H1245 H 0.5832 0.508 0.1722 0.0
H1246 H 0.74837 0.52732 0.1888 0.0
H1247 H 0.77045 0.57575 0.20185 0.0
H1248 H 0.76931 0.56863 0.16883 0.0
H1249 H 0.72565 0.63908 0.16306 0.0
H1250 H 0.72824 0.6479 0.19612 0.0
H1251 H 0.67668 0.64779 0.18057 0.0
H1252 H 0.58425 0.52363 0.21695 0.0
H1253 H 0.60452 0.53552 0.26081 0.0
H1254 H 0.72316 0.5963 0.2369 0.0
C1255 C 0.68934 0.5511 0.14221 0.0
C1256 C 0.66385 0.52092 0.12966 0.0
C1257 C 0.62413 0.50753 0.13984 0.0
C1258 C 0.61173 0.52112 0.16353 0.0
C1259 C 0.63962 0.54783 0.17656 0.0
C1260 C 0.6773 0.56344 0.16609 0.0
C1261 C 0.706 0.58397 0.18537 0.0
C1262 C 0.75114 0.5626 0.18625 0.0
C1263 C 0.70931 0.63258 0.18102 0.0
C1264 C 0.68025 0.57443 0.20843 0.0
C1265 C 0.6415 0.55484 0.20296 0.0
C1266 C 0.61396 0.53997 0.22146 0.0
C1267 C 0.62596 0.54627 0.24623 0.0
C1268 C 0.66555 0.5663 0.25206 0.0
C1269 C 0.69292 0.58041 0.23292 0.0
H1270 H 0.23176 0.95941 0.48895 0.0
H1271 H 0.29063 0.83645 0.50686 0.0
H1272 H 0.30452 0.82357 0.46217 0.0
H1273 H 0.18257 0.92472 0.42878 0.0
H1274 H 0.1927 0.97629 0.41494 0.0
H1275 H 0.18152 0.97248 0.44772 0.0
H1276 H 0.25336 1.01153 0.45782 0.0
H1277 H 0.26373 1.01635 0.42522 0.0
H1278 H 0.30325 0.9909 0.44503 0.0
H1279 H 0.32312 0.83032 0.41801 0.0
H1280 H 0.35041 0.85865 0.37836 0.0
H1281 H 0.27397 0.97429 0.38839 0.0
C1282 C 0.24759 0.92973 0.48348 0.0
C1283 C 0.26093 0.89917 0.50116 0.0
C1284 C 0.28068 0.86035 0.4934 0.0
C1285 C 0.28801 0.85255 0.46814 0.0
C1286 C 0.27415 0.88337 0.45112 0.0
C1287 C 0.25427 0.92115 0.45849 0.0
C1288 C 0.24652 0.95116 0.43701 0.0
C1289 C 0.19794 0.95645 0.43181 0.0
C1290 C 0.26804 0.99501 0.44154 0.0
C1291 C 0.2686 0.92597 0.41662 0.0
C1292 C 0.28312 0.8863 0.42497 0.0
C1293 C 0.31077 0.86049 0.41093 0.0
C1294 C 0.32612 0.87676 0.38852 0.0
C1295 C 0.31352 0.91817 0.38058 0.0
C1296 C 0.28256 0.94192 0.39391 0.0
H1297 H 0.93945 0.56802 0.62328 0.0
H1298 H 0.82453 0.49763 0.60382 0.0
H1299 H 0.83076 0.45602 0.64236 0.0
H1300 H 0.99103 0.4762 0.66756 0.0
H1301 H 1.00982 0.51846 0.68765 0.0
H1302 H 1.01027 0.52567 0.65443 0.0
H1303 H 0.96619 0.59566 0.6603 0.0
H1304 H 0.96326 0.58798 0.69313 0.0
H1305 H 0.91416 0.59368 0.6754 0.0
H1306 H 0.82847 0.44886 0.68671 0.0
H1307 H 0.82835 0.46232 0.73158 0.0
H1308 H 0.94571 0.53646 0.72475 0.0
C1309 C 0.91769 0.54154 0.62653 0.0
C1310 C 0.88155 0.53576 0.6111 0.0
C1311 C 0.8527 0.5019 0.6155 0.0
C1312 C 0.856 0.47827 0.63743 0.0
C1313 C 0.88875 0.4887 0.65418 0.0
C1314 C 0.92051 0.51827 0.64852 0.0
C1315 C 0.94618 0.53077 0.67136 0.0
C1316 C 0.99204 0.5116 0.67018 0.0
C1317 C 0.94741 0.57989 0.67525 0.0
C1318 C 0.91972 0.50901 0.69112 0.0
C1319 C 0.88773 0.48376 0.68077 0.0
C1320 C 0.85447 0.46691 0.69504 0.0
C1321 C 0.8541 0.47564 0.72044 0.0
C1322 C 0.88688 0.50088 0.73135 0.0
C1323 C 0.92055 0.51692 0.71665 0.0
H1324 H 0.75784 1.01772 0.0935 0.0
H1325 H 0.77411 0.88462 0.11394 0.0
H1326 H 0.74844 0.86218 0.07276 0.0
H1327 H 0.66601 0.9994 0.04276 0.0
H1328 H 0.69068 0.04012 0.02388 0.0
H1329 H 0.69025 0.04555 0.05722 0.0
H1330 H 0.7732 0.05423 0.05645 0.0
H1331 H 0.77471 0.04703 0.02346 0.0
H1332 H 0.80643 1.01227 0.04314 0.0
H1333 H 0.7492 0.85511 0.02782 0.0
H1334 H 0.75817 0.86287 0.98268 0.0
H1335 H 0.74485 1.00125 -0.00979 0.0
C1336 C 0.75225 0.98402 0.08981 0.0
C1337 C 0.7669 0.95272 0.10661 0.0
C1338 C 0.76183 0.90873 0.10124 0.0
C1339 C 0.74766 0.89581 0.07782 0.0
C1340 C 0.73865 0.92747 0.06032 0.0
C1341 C 0.73908 0.97084 0.06624 0.0
C1342 C 0.73693 0.99832 0.0431 0.0
C1343 C 0.69337 1.02225 0.04165 0.0
C1344 C 0.7751 1.02975 0.04147 0.0
C1345 C 0.74009 0.96384 0.02345 0.0
C1346 C 0.7399 0.92326 0.03369 0.0
C1347 C 0.74758 0.88662 0.01945 0.0
C1348 C 0.7535 0.89143 -0.00611 0.0
C1349 C 0.75205 0.93267 0.98288 0.0
C1350 C 0.74594 0.96926 -0.00198 0.0
H1351 H 0.43314 0.6107 0.82303 0.0
H1352 H 0.38842 0.49381 0.85804 0.0
H1353 H 0.41501 0.45213 0.82196 0.0
H1354 H 0.38751 0.59107 0.77026 0.0
H1355 H 0.42735 0.61444 0.75007 0.0
H1356 H 0.42235 0.63307 0.78142 0.0
H1357 H 0.50309 0.61594 0.78971 0.0
H1358 H 0.50884 0.59803 0.75801 0.0
H1359 H 0.52418 0.56302 0.78315 0.0
H1360 H 0.43034 0.4262 0.7796 0.0
H1361 H 0.42751 0.4181 0.73417 0.0
H1362 H 0.45114 0.55403 0.72512 0.0
C1363 C 0.43026 0.5761 0.82365 0.0
C1364 C 0.40843 0.5554 0.84324 0.0
C1365 C 0.40516 0.51022 0.84322 0.0
C1366 C 0.42041 0.48637 0.82286 0.0
C1367 C 0.43862 0.50837 0.80289 0.0
C1368 C 0.44364 0.55238 0.80321 0.0
C1369 C 0.45418 0.56995 0.77777 0.0
C1370 C 0.42084 0.60408 0.76942 0.0
C1371 C 0.50033 0.58777 0.77713 0.0
C1372 C 0.45086 0.52944 0.76262 0.0
C1373 C 0.44417 0.49398 0.77762 0.0
C1374 C 0.43654 0.45349 0.76776 0.0
C1375 C 0.43478 0.4493 0.742 0.0
C1376 C 0.43924 0.48565 0.72651 0.0
C1377 C 0.44807 0.52599 0.73681 0.0
H1378 H 0.79596 0.08589 0.59026 0.0
H1379 H 0.73971 0.21169 0.60202 0.0
H1380 H 0.76797 0.23563 0.56163 0.0
H1381 H 0.89088 0.12149 0.54619 0.0
H1382 H 0.88261 0.07377 0.52789 0.0
H1383 H 0.87495 0.07232 0.56107 0.0
H1384 H 0.79814 0.04259 0.55395 0.0
H1385 H 0.80421 0.04588 0.52093 0.0
H1386 H 0.75985 0.07341 0.53592 0.0
H1387 H 0.78268 0.23931 0.5169 0.0
H1388 H 0.79106 0.22488 0.47194 0.0
H1389 H 0.83129 0.09426 0.48842 0.0
C1390 C 0.7927 0.11929 0.58496 0.0
C1391 C 0.76704 0.14751 0.59906 0.0
C1392 C 0.76053 0.19033 0.59142 0.0
C1393 C 0.77631 0.20405 0.56852 0.0
C1394 C 0.79813 0.17426 0.55372 0.0
C1395 C 0.80733 0.13292 0.56184 0.0
C1396 C 0.82278 0.10456 0.54078 0.0
C1397 C 0.87065 0.09234 0.54418 0.0
C1398 C 0.79452 0.0643 0.53774 0.0
C1399 C 0.81686 0.13513 0.51939 0.0
C1400 C 0.80414 0.17552 0.52723 0.0
C1401 C 0.79372 0.20812 0.51054 0.0
C1402 C 0.7978 0.19951 0.48514 0.0
C1403 C 0.81098 0.15833 0.47689 0.0
C1404 C 0.82033 0.12583 0.49425 0.0
H1405 H 0.16423 0.47786 0.34379 0.0
H1406 H 0.26706 0.56491 0.36402 0.0
H1407 H 0.2574 0.60308 0.32435 0.0
H1408 H 0.19514 0.45864 0.28784 0.0
H1409 H 0.14373 0.45684 0.27216 0.0
H1410 H 0.14669 0.4455 0.30474 0.0
H1411 H 0.0908 0.50539 0.31451 0.0
H1412 H 0.08616 0.51611 0.28173 0.0
H1413 H 0.09924 0.55891 0.30294 0.0
H1414 H 0.25314 0.61578 0.28001 0.0
H1415 H 0.24645 0.61149 0.23482 0.0
H1416 H 0.1445 0.5174 0.24214 0.0
C1417 C 0.18324 0.50626 0.34026 0.0
C1418 C 0.21648 0.51857 0.35661 0.0
C1419 C 0.24122 0.55541 0.35166 0.0
C1420 C 0.2359 0.5772 0.32921 0.0
C1421 C 0.20513 0.56206 0.31247 0.0
C1422 C 0.17819 0.52823 0.318 0.0
C1423 C 0.15264 0.51392 0.29552 0.0
C1424 C 0.16005 0.46591 0.28975 0.0
C1425 C 0.10434 0.52422 0.29887 0.0
C1426 C 0.17254 0.54213 0.27596 0.0
C1427 C 0.20207 0.57019 0.28628 0.0
C1428 C 0.22908 0.59513 0.27179 0.0
C1429 C 0.22555 0.59176 0.24611 0.0
C1430 C 0.19505 0.56376 0.23512 0.0
C1431 C 0.16775 0.53916 0.25021 0.0
H1432 H 0.74646 0.70101 0.38548 0.0
H1433 H 0.85304 0.61847 0.36394 0.0
H1434 H 0.89581 0.64594 0.39894 0.0
H1435 H 0.81771 0.78747 0.42359 0.0
H1436 H 0.77434 0.79082 0.44588 0.0
H1437 H 0.76238 0.78526 0.41325 0.0
H1438 H 0.71597 0.71905 0.42322 0.0
H1439 H 0.7286 0.72319 0.45545 0.0
H1440 H 0.74034 0.67392 0.43904 0.0
H1441 H 0.91149 0.65339 0.44191 0.0
H1442 H 0.90232 0.64539 0.48666 0.0
H1443 H 0.78533 0.72209 0.48453 0.0
C1444 C 0.77981 0.69079 0.38754 0.0
C1445 C 0.7966 0.65743 0.37259 0.0
C1446 C 0.8399 0.64419 0.37529 0.0
C1447 C 0.86434 0.65982 0.39516 0.0
C1448 C 0.84482 0.68864 0.41179 0.0
C1449 C 0.80375 0.70524 0.40774 0.0
C1450 C 0.78546 0.72629 0.43097 0.0
C1451 C 0.78498 0.77538 0.42826 0.0
C1452 C 0.74 0.70951 0.43753 0.0
C1453 C 0.81905 0.71228 0.44967 0.0
C1454 C 0.8542 0.69296 0.43794 0.0
C1455 C 0.88523 0.67003 0.45119 0.0
C1456 C 0.87947 0.66519 0.47664 0.0
C1457 C 0.84319 0.68339 0.48877 0.0
C1458 C 0.81364 0.70878 0.47544 0.0
H1459 H 0.22377 0.0532 0.63061 0.0
H1460 H 0.09974 0.99248 0.6217 0.0
H1461 H 0.07495 1.02388 0.66121 0.0
H1462 H 0.23994 1.0198 0.68361 0.0
H1463 H 0.26633 0.06435 0.6985 0.0
H1464 H 0.26855 0.05903 0.66545 0.0
H1465 H 0.2348 0.13435 0.65916 0.0
H1466 H 0.23462 0.14149 0.6924 0.0
H1467 H 0.18539 0.14869 0.67498 0.0
H1468 H 0.07259 0.03871 0.70567 0.0
H1469 H 0.08994 0.04423 0.75044 0.0
H1470 H 0.21892 0.08717 0.73196 0.0
C1471 C 0.19035 0.04968 0.63619 0.0
C1472 C 0.1632 1.02147 0.62336 0.0
C1473 C 0.12036 1.01498 0.63136 0.0
C1474 C 0.10617 1.0326 0.65379 0.0
C1475 C 0.13554 0.05609 0.66781 0.0
C1476 C 0.1766 0.06567 0.65906 0.0
C1477 C 0.20557 0.08149 0.67969 0.0
C1478 C 0.24748 0.05451 0.68192 0.0
C1479 C 0.21566 0.12936 0.67636 0.0
C1480 C 0.17612 0.07462 0.70156 0.0
C1481 C 0.13537 0.06183 0.69435 0.0
C1482 C 0.10399 0.04988 0.71154 0.0
C1483 C 0.11429 0.05224 0.7368 0.0
C1484 C 0.15598 0.065 0.74432 0.0
C1485 C 0.1871 0.07632 0.72653 0.0
H1486 H 0.83328 0.408 0.8844 0.0
H1487 H 0.7485 0.51287 0.86279 0.0
H1488 H 0.71156 0.50865 0.90317 0.0
H1489 H 0.7511 0.35171 0.92871 0.0
H1490 H 0.79487 0.33836 0.94945 0.0
H1491 H 0.80388 0.33913 0.91637 0.0
H1492 H 0.86691 0.39189 0.92323 0.0
H1493 H 0.85722 0.393 0.95605 0.0
H1494 H 0.85659 0.44239 0.93868 0.0
H1495 H 0.70126 0.50958 0.94784 0.0
H1496 H 0.70739 0.50639 -0.00684 0.0
H1497 H 0.79771 0.39953 -0.013 0.0
C1498 C 0.80545 0.42851 0.8878 0.0
C1499 C 0.7937 0.46088 0.87082 0.0
C1500 C 0.75762 0.48765 0.87562 0.0
C1501 C 0.73652 0.48548 0.8985 0.0
C1502 C 0.7515 0.45575 0.91585 0.0
C1503 C 0.78419 0.42663 0.91052 0.0
C1504 C 0.79889 0.40272 0.93349 0.0
C1505 C 0.78642 0.35516 0.93191 0.0
C1506 C 0.84777 0.40787 0.93811 0.0
C1507 C 0.77247 0.42599 0.95291 0.0
C1508 C 0.74481 0.45584 0.94225 0.0
C1509 C 0.7216 0.48537 0.95639 0.0
C1510 C 0.72608 0.48386 0.9821 0.0
C1511 C 0.75344 0.45286 -0.00659 0.0
C1512 C 0.77653 0.4233 0.97867 0.0
H1513 H 0.43969 0.03873 0.23755 0.0
H1514 H 0.32955 0.95423 0.24419 0.0
H1515 H 0.32615 0.94716 0.19883 0.0
H1516 H 0.39749 0.09786 0.18966 0.0
H1517 H 0.4481 0.1064 0.17389 0.0
H1518 H 0.44766 0.09669 0.20668 0.0
H1519 H 0.501 1.03291 0.19989 0.0
H1520 H 0.50019 0.04186 0.16683 0.0
H1521 H 0.48655 0.98993 0.1791 0.0
H1522 H 0.32763 0.95597 0.15405 0.0
H1523 H 0.32294 0.99304 0.11391 0.0
H1524 H 0.43056 0.07358 0.13498 0.0
C1525 C 0.41519 1.01858 0.22929 0.0
C1526 C 0.38472 0.9974 0.24414 0.0
C1527 C 0.35275 0.97141 0.23298 0.0
C1528 C 0.35117 0.96636 0.20728 0.0
C1529 C 0.38165 0.98762 0.19301 0.0
C1530 C 0.41253 1.01395 0.20354 0.0
C1531 C 0.4362 0.03922 0.18397 0.0
C1532 C 0.43205 0.08789 0.18883 0.0
C1533 C 0.48381 1.02512 0.18236 0.0
C1534 C 0.41146 1.0254 0.1611 0.0
C1535 C 0.3817 0.99391 0.16656 0.0
C1536 C 0.35132 0.97995 0.1493 0.0
C1537 C 0.34899 1.00105 0.12648 0.0
C1538 C 0.37626 0.0362 0.12164 0.0
C1539 C 0.4097 0.04644 0.13835 0.0
H1540 H 0.30506 0.37814 0.60735 0.0
H1541 H 0.23717 0.49655 0.62309 0.0
H1542 H 0.19687 0.4898 0.58406 0.0
H1543 H 0.33497 0.40069 0.55599 0.0
H1544 H 0.32981 0.3518 0.53827 0.0
H1545 H 0.33463 0.34923 0.57124 0.0
H1546 H 0.26337 0.30802 0.57565 0.0
H1547 H 0.25878 0.3077 0.54227 0.0
H1548 H 0.21499 0.32828 0.56102 0.0
H1549 H 0.19222 0.49019 0.53969 0.0
H1550 H 0.2093 0.48833 0.49525 0.0
H1551 H 0.28087 0.36943 0.50517 0.0
C1552 C 0.27876 0.40025 0.60338 0.0
C1553 C 0.27325 0.43731 0.61802 0.0
C1554 C 0.24063 0.46738 0.61224 0.0
C1555 C 0.21794 0.46387 0.58993 0.0
C1556 C 0.2285 0.43007 0.57391 0.0
C1557 C 0.25695 0.39754 0.58074 0.0
C1558 C 0.27085 0.37099 0.5584 0.0
C1559 C 0.32048 0.36814 0.55583 0.0
C1560 C 0.25077 0.32609 0.55939 0.0
C1561 C 0.25107 0.39731 0.53779 0.0
C1562 C 0.22562 0.43034 0.54716 0.0
C1563 C 0.21048 0.46344 0.53211 0.0
C1564 C 0.22126 0.46264 0.50696 0.0
C1565 C 0.24688 0.42888 0.49702 0.0
C1566 C 0.26106 0.39534 0.51249 0.0
H1567 H 0.83411 1.00523 0.34594 0.0
H1568 H 0.96509 0.04665 0.35865 0.0
H1569 H 0.98673 1.01863 0.31785 0.0
H1570 H 0.86433 0.91279 0.29523 0.0
H1571 H 0.81619 0.92804 0.27855 0.0
H1572 H 0.81609 0.92766 0.31204 0.0
H1573 H 0.78895 1.00617 0.31144 0.0
H1574 H 0.79136 1.00842 0.27832 0.0
H1575 H 0.8212 0.0467 0.29653 0.0
H1576 H 0.987 1.01743 0.27304 0.0
H1577 H 0.96974 1.02592 0.22857 0.0
H1578 H 0.83687 0.99065 0.24346 0.0
C1579 C 0.86795 1.00478 0.34079 0.0
C1580 C 0.89812 1.02762 0.35496 0.0
C1581 C 0.94191 1.02863 0.34781 0.0
C1582 C 0.95435 1.01292 0.32462 0.0
C1583 C 0.92245 0.99637 0.30916 0.0
C1584 C 0.88026 0.99036 0.31726 0.0
C1585 C 0.85012 0.982 0.29565 0.0
C1586 C 0.83587 0.93483 0.29535 0.0
C1587 C 0.81068 1.0127 0.2955 0.0
C1588 C 0.88038 0.99098 0.2744 0.0
C1589 C 0.92225 0.99722 0.28243 0.0
C1590 C 0.95471 1.01091 0.2664 0.0
C1591 C 0.94445 1.01663 0.24135 0.0
C1592 C 0.90189 1.00961 0.23281 0.0
C1593 C 0.86955 0.9969 0.2496 0.0
H1594 H 0.29199 0.58866 0.08902 0.0
H1595 H 0.22231 0.70894 0.09739 0.0
H1596 H 0.23719 0.72659 0.05367 0.0
H1597 H 0.37292 0.62803 0.03917 0.0
H1598 H 0.37027 0.5767 0.02379 0.0
H1599 H 0.36552 0.57986 0.0571 0.0
H1600 H 0.29354 0.53872 0.05398 0.0
H1601 H 0.29608 0.53766 0.02067 0.0
H1602 H 0.24967 0.56097 0.03598 0.0
H1603 H 0.24406 0.72344 0.00838 0.0
H1604 H 0.25716 0.70722 0.96419 0.0
H1605 H 0.32032 0.58749 0.98468 0.0
C1606 C 0.28263 0.61995 0.08201 0.0
C1607 C 0.25687 0.64798 0.09635 0.0
C1608 C 0.24292 0.68774 0.08654 0.0
C1609 C 0.25087 0.69777 0.06175 0.0
C1610 C 0.27295 0.66768 0.04733 0.0
C1611 C 0.28996 0.63017 0.05717 0.0
C1612 C 0.30771 0.60104 0.037 0.0
C1613 C 0.35703 0.59614 0.0394 0.0
C1614 C 0.28538 0.55703 0.03693 0.0
C1615 C 0.29563 0.62692 0.01434 0.0
C1616 C 0.27601 0.66536 0.02076 0.0
C1617 C 0.26031 0.69393 0.00308 0.0
C1618 C 0.26727 0.68415 0.97809 0.0
C1619 C 0.28953 0.64609 0.97117 0.0
C1620 C 0.30265 0.6165 -0.01052 0.0
H1621 H 0.63273 0.99142 0.83494 0.0
H1622 H 0.71721 0.09193 0.86136 0.0
H1623 H 0.69997 0.13491 0.82439 0.0
H1624 H 0.66777 0.98638 0.78027 0.0
H1625 H 0.61874 0.97795 0.76291 0.0
H1626 H 0.62111 0.96304 0.79495 0.0
H1627 H 0.55503 1.01125 0.80513 0.0
H1628 H 0.55124 1.02549 0.77276 0.0
H1629 H 0.55486 0.06691 0.79607 0.0
H1630 H 0.69685 0.15278 0.78091 0.0
H1631 H 0.69976 0.14976 0.73535 0.0
H1632 H 0.61609 0.03899 0.73529 0.0
C1633 C 0.6458 1.02346 0.83343 0.0
C1634 C 0.67656 0.03837 0.85063 0.0
C1635 C 0.69343 0.08012 0.84833 0.0
C1636 C 0.68367 0.10477 0.8274 0.0
C1637 C 0.65645 0.08737 0.80941 0.0
C1638 C 0.63654 0.04813 0.81255 0.0
C1639 C 0.61579 1.03267 0.7887 0.0
C1640 C 0.63188 0.98739 0.7813 0.0
C1641 C 0.56629 1.0342 0.79079 0.0
C1642 C 0.63185 0.0665 0.77101 0.0
C1643 C 0.65396 0.0985 0.78351 0.0
C1644 C 0.67819 0.12903 0.77101 0.0
C1645 C 0.68028 0.12661 0.7452 0.0
C1646 C 0.65818 0.09399 0.73222 0.0
C1647 C 0.6326 0.06444 0.74509 0.0
loop_
_geom_bond_atom_site_label_1
_geom_bond_atom_site_label_2
_geom_bond_distance
_geom_bond_site_symmetry_2
_ccdc_geom_bond_type
Fe0 O2 1.918 . S
Fe0 O5 1.997 . S
Fe0 O6 2.002 . S
Fe0 O11 1.976 . S
Fe0 O14 1.996 . S
Fe1 O2 1.918 . S
Fe1 O9 1.997 . S
Fe1 O12 1.996 . S
Fe1 O16 1.976 . S
Fe1 O19 2.002 . S
O2 Fe0 1.918 . S
O2 Fe1 1.918 . S
O2 Fe3 1.918 . S
Fe3 O2 1.918 . S
Fe3 O4 2.002 . S
Fe3 O13 1.976 . S
Fe3 O17 1.996 . S
Fe3 O20 1.997 . S
O4 Fe3 2.002 . S
O4 C21 1.295 . S
O5 Fe0 1.997 . S
O5 C21 1.235 . S
O6 Fe0 2.002 . S
O6 C7 1.295 . S
C7 O6 1.295 . S
C7 O9 1.235 . S
C8 O13 1.287 . S
C8 O14 1.255 . S
O9 Fe1 1.997 . S
O9 C7 1.235 . S
C10 O16 1.287 . S
C10 O17 1.255 . S
O11 Fe0 1.976 . S
O11 C18 1.287 . S
O12 Fe1 1.996 . S
O12 C18 1.255 . S
O13 Fe3 1.976 . S
O13 C8 1.287 . S
O14 Fe0 1.996 . S
O14 C8 1.255 . S
C15 O19 1.295 . S
C15 O20 1.235 . S
O16 Fe1 1.976 . S
O16 C10 1.287 . S
O17 Fe3 1.996 . S
O17 C10 1.255 . S
C18 O11 1.287 . S
C18 O12 1.255 . S
O19 Fe1 2.002 . S
O19 C15 1.295 . S
O20 Fe3 1.997 . S
O20 C15 1.235 . S
C21 O4 1.295 . S
C21 O5 1.235 . S
Fe22 O24 1.918 . S
Fe22 O27 1.997 . S
Fe22 O28 2.002 . S
Fe22 O33 1.976 . S
Fe22 O36 1.996 . S
Fe23 O24 1.918 . S
Fe23 O31 1.997 . S
Fe23 O34 1.996 . S
Fe23 O38 1.976 . S
Fe23 O41 2.002 . S
O24 Fe22 1.918 . S
O24 Fe23 1.918 . S
O24 Fe25 1.918 . S
Fe25 O24 1.918 . S
Fe25 O26 2.002 . S
Fe25 O35 1.976 . S
Fe25 O39 1.996 . S
Fe25 O42 1.997 . S
O26 Fe25 2.002 . S
O26 C43 1.295 . S
O27 Fe22 1.997 . S
O27 C43 1.235 . S
O28 Fe22 2.002 . S
O28 C29 1.295 . S
C29 O28 1.295 . S
C29 O31 1.235 . S
C30 O35 1.287 . S
C30 O36 1.255 . S
O31 Fe23 1.997 . S
O31 C29 1.235 . S
C32 O38 1.287 . S
C32 O39 1.255 . S
O33 Fe22 1.976 . S
O33 C40 1.287 . S
O34 Fe23 1.996 . S
O34 C40 1.255 . S
O35 Fe25 1.976 . S
O35 C30 1.287 . S
O36 Fe22 1.996 . S
O36 C30 1.255 . S
C37 O41 1.295 . S
C37 O42 1.235 . S
O38 Fe23 1.976 . S
O38 C32 1.287 . S
O39 Fe25 1.996 . S
O39 C32 1.255 . S
C40 O33 1.287 . S
C40 O34 1.255 . S
O41 Fe23 2.002 . S
O41 C37 1.295 . S
O42 Fe25 1.997 . S
O42 C37 1.235 . S
C43 O26 1.295 . S
C43 O27 1.235 . S
Fe44 O46 1.918 . S
Fe44 O49 1.997 . S
Fe44 O50 2.002 . S
Fe44 O55 1.976 . S
Fe44 O58 1.996 . S
Fe45 O46 1.918 . S
Fe45 O53 1.997 . S
Fe45 O56 1.996 . S
Fe45 O60 1.976 . S
Fe45 O63 2.002 . S
O46 Fe44 1.918 . S
O46 Fe45 1.918 . S
O46 Fe47 1.918 . S
Fe47 O46 1.918 . S
Fe47 O48 2.002 . S
Fe47 O57 1.976 . S
Fe47 O61 1.996 . S
Fe47 O64 1.997 . S
O48 Fe47 2.002 . S
O48 C65 1.295 . S
O49 Fe44 1.997 . S
O49 C65 1.235 . S
O50 Fe44 2.002 . S
O50 C51 1.295 . S
C51 O50 1.295 . S
C51 O53 1.235 . S
C52 O57 1.287 . S
C52 O58 1.255 . S
O53 Fe45 1.997 . S
O53 C51 1.235 . S
C54 O60 1.287 . S
C54 O61 1.255 . S
O55 Fe44 1.976 . S
O55 C62 1.287 . S
O56 Fe45 1.996 . S
O56 C62 1.255 . S
O57 Fe47 1.976 . S
O57 C52 1.287 . S
O58 Fe44 1.996 . S
O58 C52 1.255 . S
C59 O63 1.295 . S
C59 O64 1.235 . S
O60 Fe45 1.976 . S
O60 C54 1.287 . S
O61 Fe47 1.996 . S
O61 C54 1.255 . S
C62 O55 1.287 . S
C62 O56 1.255 . S
O63 Fe45 2.002 . S
O63 C59 1.295 . S
O64 Fe47 1.997 . S
O64 C59 1.235 . S
C65 O48 1.295 . S
C65 O49 1.235 . S
Fe66 O68 1.918 . S
Fe66 O71 1.997 . S
Fe66 O72 2.002 . S
Fe66 O77 1.976 . S
Fe66 O80 1.996 . S
Fe67 O68 1.918 . S
Fe67 O75 1.997 . S
Fe67 O78 1.996 . S
Fe67 O82 1.976 . S
Fe67 O85 2.002 . S
O68 Fe66 1.918 . S
O68 Fe67 1.918 . S
O68 Fe69 1.918 . S
Fe69 O68 1.918 . S
Fe69 O70 2.002 . S
Fe69 O79 1.976 . S
Fe69 O83 1.996 . S
Fe69 O86 1.997 . S
O70 Fe69 2.002 . S
O70 C87 1.295 . S
O71 Fe66 1.997 . S
O71 C87 1.235 . S
O72 Fe66 2.002 . S
O72 C73 1.295 . S
C73 O72 1.295 . S
C73 O75 1.235 . S
C74 O79 1.287 . S
C74 O80 1.255 . S
O75 Fe67 1.997 . S
O75 C73 1.235 . S
C76 O82 1.287 . S
C76 O83 1.255 . S
O77 Fe66 1.976 . S
O77 C84 1.287 . S
O78 Fe67 1.996 . S
O78 C84 1.255 . S
O79 Fe69 1.976 . S
O79 C74 1.287 . S
O80 Fe66 1.996 . S
O80 C74 1.255 . S
C81 O85 1.295 . S
C81 O86 1.235 . S
O82 Fe67 1.976 . S
O82 C76 1.287 . S
O83 Fe69 1.996 . S
O83 C76 1.255 . S
C84 O77 1.287 . S
C84 O78 1.255 . S
O85 Fe67 2.002 . S
O85 C81 1.295 . S
O86 Fe69 1.997 . S
O86 C81 1.235 . S
C87 O70 1.295 . S
C87 O71 1.235 . S
Fe88 O90 1.918 . S
Fe88 O93 1.997 . S
Fe88 O94 2.002 . S
Fe88 O99 1.976 . S
Fe88 O102 1.996 . S
Fe89 O90 1.918 . S
Fe89 O97 1.997 . S
Fe89 O100 1.996 . S
Fe89 O104 1.976 . S
Fe89 O107 2.002 . S
O90 Fe88 1.918 . S
O90 Fe89 1.918 . S
O90 Fe91 1.918 . S
Fe91 O90 1.918 . S
Fe91 O92 2.002 . S
Fe91 O101 1.976 . S
Fe91 O105 1.996 . S
Fe91 O108 1.997 . S
O92 Fe91 2.002 . S
O92 C109 1.295 . S
O93 Fe88 1.997 . S
O93 C109 1.235 . S
O94 Fe88 2.002 . S
O94 C95 1.295 . S
C95 O94 1.295 . S
C95 O97 1.235 . S
C96 O101 1.287 . S
C96 O102 1.255 . S
O97 Fe89 1.997 . S
O97 C95 1.235 . S
C98 O104 1.287 . S
C98 O105 1.255 . S
O99 Fe88 1.976 . S
O99 C106 1.287 . S
O100 Fe89 1.996 . S
O100 C106 1.255 . S
O101 Fe91 1.976 . S
O101 C96 1.287 . S
O102 Fe88 1.996 . S
O102 C96 1.255 . S
C103 O107 1.295 . S
C103 O108 1.235 . S
O104 Fe89 1.976 . S
O104 C98 1.287 . S
O105 Fe91 1.996 . S
O105 C98 1.255 . S
C106 O99 1.287 . S
C106 O100 1.255 . S
O107 Fe89 2.002 . S
O107 C103 1.295 . S
O108 Fe91 1.997 . S
O108 C103 1.235 . S
C109 O92 1.295 . S
C109 O93 1.235 . S
Fe110 O112 1.918 . S
Fe110 O115 1.997 . S
Fe110 O116 2.002 . S
Fe110 O121 1.976 . S
Fe110 O124 1.996 . S
Fe111 O112 1.918 . S
Fe111 O119 1.997 . S
Fe111 O122 1.996 . S
Fe111 O126 1.976 . S
Fe111 O129 2.002 . S
O112 Fe110 1.918 . S
O112 Fe111 1.918 . S
O112 Fe113 1.918 . S
Fe113 O112 1.918 . S
Fe113 O114 2.002 . S
Fe113 O123 1.976 . S
Fe113 O127 1.996 . S
Fe113 O130 1.997 . S
O114 Fe113 2.002 . S
O114 C131 1.295 . S
O115 Fe110 1.997 . S
O115 C131 1.235 . S
O116 Fe110 2.002 . S
O116 C117 1.295 . S
C117 O116 1.295 . S
C117 O119 1.235 . S
C118 O123 1.287 . S
C118 O124 1.255 . S
O119 Fe111 1.997 . S
O119 C117 1.235 . S
C120 O126 1.287 . S
C120 O127 1.255 . S
O121 Fe110 1.976 . S
O121 C128 1.287 . S
O122 Fe111 1.996 . S
O122 C128 1.255 . S
O123 Fe113 1.976 . S
O123 C118 1.287 . S
O124 Fe110 1.996 . S
O124 C118 1.255 . S
C125 O129 1.295 . S
C125 O130 1.235 . S
O126 Fe111 1.976 . S
O126 C120 1.287 . S
O127 Fe113 1.996 . S
O127 C120 1.255 . S
C128 O121 1.287 . S
C128 O122 1.255 . S
O129 Fe111 2.002 . S
O129 C125 1.295 . S
O130 Fe113 1.997 . S
O130 C125 1.235 . S
C131 O114 1.295 . S
C131 O115 1.235 . S
Fe132 O134 1.918 . S
Fe132 O137 1.997 . S
Fe132 O138 2.002 . S
Fe132 O143 1.976 . S
Fe132 O146 1.996 . S
Fe133 O134 1.918 . S
Fe133 O141 1.997 . S
Fe133 O144 1.996 . S
Fe133 O148 1.976 . S
Fe133 O151 2.002 . S
O134 Fe132 1.918 . S
O134 Fe133 1.918 . S
O134 Fe135 1.918 . S
Fe135 O134 1.918 . S
Fe135 O136 2.002 . S
Fe135 O145 1.976 . S
Fe135 O149 1.996 . S
Fe135 O152 1.997 . S
O136 Fe135 2.002 . S
O136 C153 1.295 . S
O137 Fe132 1.997 . S
O137 C153 1.235 . S
O138 Fe132 2.002 . S
O138 C139 1.295 . S
C139 O138 1.295 . S
C139 O141 1.235 . S
C140 O145 1.287 . S
C140 O146 1.255 . S
O141 Fe133 1.997 . S
O141 C139 1.235 . S
C142 O148 1.287 . S
C142 O149 1.255 . S
O143 Fe132 1.976 . S
O143 C150 1.287 . S
O144 Fe133 1.996 . S
O144 C150 1.255 . S
O145 Fe135 1.976 . S
O145 C140 1.287 . S
O146 Fe132 1.996 . S
O146 C140 1.255 . S
C147 O151 1.295 . S
C147 O152 1.235 . S
O148 Fe133 1.976 . S
O148 C142 1.287 . S
O149 Fe135 1.996 . S
O149 C142 1.255 . S
C150 O143 1.287 . S
C150 O144 1.255 . S
O151 Fe133 2.002 . S
O151 C147 1.295 . S
O152 Fe135 1.997 . S
O152 C147 1.235 . S
C153 O136 1.295 . S
C153 O137 1.235 . S
Fe154 O156 1.918 . S
Fe154 O159 1.997 . S
Fe154 O160 2.002 . S
Fe154 O165 1.976 . S
Fe154 O168 1.996 . S
Fe155 O156 1.918 . S
Fe155 O163 1.997 . S
Fe155 O166 1.996 . S
Fe155 O170 1.976 . S
Fe155 O173 2.002 . S
O156 Fe154 1.918 . S
O156 Fe155 1.918 . S
O156 Fe157 1.918 . S
Fe157 O156 1.918 . S
Fe157 O158 2.002 . S
Fe157 O167 1.976 . S
Fe157 O171 1.996 . S
Fe157 O174 1.997 . S
O158 Fe157 2.002 . S
O158 C175 1.295 . S
O159 Fe154 1.997 . S
O159 C175 1.235 . S
O160 Fe154 2.002 . S
O160 C161 1.295 . S
C161 O160 1.295 . S
C161 O163 1.235 . S
C162 O167 1.287 . S
C162 O168 1.255 . S
O163 Fe155 1.997 . S
O163 C161 1.235 . S
C164 O170 1.287 . S
C164 O171 1.255 . S
O165 Fe154 1.976 . S
O165 C172 1.287 . S
O166 Fe155 1.996 . S
O166 C172 1.255 . S
O167 Fe157 1.976 . S
O167 C162 1.287 . S
O168 Fe154 1.996 . S
O168 C162 1.255 . S
C169 O173 1.295 . S
C169 O174 1.235 . S
O170 Fe155 1.976 . S
O170 C164 1.287 . S
O171 Fe157 1.996 . S
O171 C164 1.255 . S
C172 O165 1.287 . S
C172 O166 1.255 . S
O173 Fe155 2.002 . S
O173 C169 1.295 . S
O174 Fe157 1.997 . S
O174 C169 1.235 . S
C175 O158 1.295 . S
C175 O159 1.235 . S
Fe176 O178 1.918 . S
Fe176 O181 1.997 . S
Fe176 O182 2.002 . S
Fe176 O187 1.976 . S
Fe176 O190 1.996 . S
Fe177 O178 1.918 . S
Fe177 O185 1.997 . S
Fe177 O188 1.996 . S
Fe177 O192 1.976 . S
Fe177 O195 2.002 . S
O178 Fe176 1.918 . S
O178 Fe177 1.918 . S
O178 Fe179 1.918 . S
Fe179 O178 1.918 . S
Fe179 O180 2.002 . S
Fe179 O189 1.976 . S
Fe179 O193 1.996 . S
Fe179 O196 1.997 . S
O180 Fe179 2.002 . S
O180 C197 1.295 . S
O181 Fe176 1.997 . S
O181 C197 1.235 . S
O182 Fe176 2.002 . S
O182 C183 1.295 . S
C183 O182 1.295 . S
C183 O185 1.235 . S
C184 O189 1.287 . S
C184 O190 1.255 . S
O185 Fe177 1.997 . S
O185 C183 1.235 . S
C186 O192 1.287 . S
C186 O193 1.255 . S
O187 Fe176 1.976 . S
O187 C194 1.287 . S
O188 Fe177 1.996 . S
O188 C194 1.255 . S
O189 Fe179 1.976 . S
O189 C184 1.287 . S
O190 Fe176 1.996 . S
O190 C184 1.255 . S
C191 O195 1.295 . S
C191 O196 1.235 . S
O192 Fe177 1.976 . S
O192 C186 1.287 . S
O193 Fe179 1.996 . S
O193 C186 1.255 . S
C194 O187 1.287 . S
C194 O188 1.255 . S
O195 Fe177 2.002 . S
O195 C191 1.295 . S
O196 Fe179 1.997 . S
O196 C191 1.235 . S
C197 O180 1.295 . S
C197 O181 1.235 . S
Fe198 O200 1.918 . S
Fe198 O203 1.997 . S
Fe198 O204 2.002 . S
Fe198 O209 1.976 . S
Fe198 O212 1.996 . S
Fe199 O200 1.918 . S
Fe199 O207 1.997 . S
Fe199 O210 1.996 . S
Fe199 O214 1.976 . S
Fe199 O217 2.002 . S
O200 Fe198 1.918 . S
O200 Fe199 1.918 . S
O200 Fe201 1.918 . S
Fe201 O200 1.918 . S
Fe201 O202 2.002 . S
Fe201 O211 1.976 . S
Fe201 O215 1.996 . S
Fe201 O218 1.997 . S
O202 Fe201 2.002 . S
O202 C219 1.295 1_545 S
O203 Fe198 1.997 . S
O203 C219 1.235 1_545 S
O204 Fe198 2.002 . S
O204 C205 1.295 . S
C205 O204 1.295 . S
C205 O207 1.235 . S
C206 O211 1.287 . S
C206 O212 1.255 . S
O207 Fe199 1.997 . S
O207 C205 1.235 . S
C208 O214 1.287 . S
C208 O215 1.255 . S
O209 Fe198 1.976 . S
O209 C216 1.287 . S
O210 Fe199 1.996 . S
O210 C216 1.255 . S
O211 Fe201 1.976 . S
O211 C206 1.287 . S
O212 Fe198 1.996 . S
O212 C206 1.255 . S
C213 O217 1.295 . S
C213 O218 1.235 . S
O214 Fe199 1.976 . S
O214 C208 1.287 . S
O215 Fe201 1.996 . S
O215 C208 1.255 . S
C216 O209 1.287 . S
C216 O210 1.255 . S
O217 Fe199 2.002 . S
O217 C213 1.295 . S
O218 Fe201 1.997 . S
O218 C213 1.235 . S
C219 O202 1.295 1_565 S
C219 O203 1.235 1_565 S
Fe220 O222 1.918 . S
Fe220 O225 1.997 . S
Fe220 O226 2.002 . S
Fe220 O231 1.976 . S
Fe220 O234 1.996 . S
Fe221 O222 1.918 . S
Fe221 O229 1.997 . S
Fe221 O232 1.996 . S
Fe221 O236 1.976 . S
Fe221 O239 2.002 . S
O222 Fe220 1.918 . S
O222 Fe221 1.918 . S
O222 Fe223 1.918 . S
Fe223 O222 1.918 . S
Fe223 O224 2.002 . S
Fe223 O233 1.976 . S
Fe223 O237 1.996 . S
Fe223 O240 1.997 . S
O224 Fe223 2.002 . S
O224 C241 1.295 . S
O225 Fe220 1.997 . S
O225 C241 1.235 . S
O226 Fe220 2.002 . S
O226 C227 1.295 . S
C227 O226 1.295 . S
C227 O229 1.235 . S
C228 O233 1.287 . S
C228 O234 1.255 . S
O229 Fe221 1.997 . S
O229 C227 1.235 . S
C230 O236 1.287 . S
C230 O237 1.255 . S
O231 Fe220 1.976 . S
O231 C238 1.287 . S
O232 Fe221 1.996 . S
O232 C238 1.255 . S
O233 Fe223 1.976 . S
O233 C228 1.287 . S
O234 Fe220 1.996 . S
O234 C228 1.255 . S
C235 O239 1.295 . S
C235 O240 1.235 . S
O236 Fe221 1.976 . S
O236 C230 1.287 . S
O237 Fe223 1.996 . S
O237 C230 1.255 . S
C238 O231 1.287 . S
C238 O232 1.255 . S
O239 Fe221 2.002 . S
O239 C235 1.295 . S
O240 Fe223 1.997 . S
O240 C235 1.235 . S
C241 O224 1.295 . S
C241 O225 1.235 . S
Fe242 O244 1.918 . S
Fe242 O247 1.997 . S
Fe242 O248 2.002 . S
Fe242 O253 1.976 . S
Fe242 O256 1.996 . S
Fe243 O244 1.918 . S
Fe243 O251 1.997 . S
Fe243 O254 1.996 . S
Fe243 O258 1.976 . S
Fe243 O261 2.002 . S
O244 Fe242 1.918 . S
O244 Fe243 1.918 . S
O244 Fe245 1.918 . S
Fe245 O244 1.918 . S
Fe245 O246 2.002 . S
Fe245 O255 1.976 . S
Fe245 O259 1.996 . S
Fe245 O262 1.997 . S
O246 Fe245 2.002 . S
O246 C263 1.295 . S
O247 Fe242 1.997 . S
O247 C263 1.235 . S
O248 Fe242 2.002 . S
O248 C249 1.295 . S
C249 O248 1.295 . S
C249 O251 1.235 . S
C250 O255 1.287 . S
C250 O256 1.255 . S
O251 Fe243 1.997 . S
O251 C249 1.235 . S
C252 O258 1.287 . S
C252 O259 1.255 . S
O253 Fe242 1.976 . S
O253 C260 1.287 1_565 S
O254 Fe243 1.996 . S
O254 C260 1.255 1_565 S
O255 Fe245 1.976 . S
O255 C250 1.287 . S
O256 Fe242 1.996 . S
O256 C250 1.255 . S
C257 O261 1.295 . S
C257 O262 1.235 . S
O258 Fe243 1.976 . S
O258 C252 1.287 . S
O259 Fe245 1.996 . S
O259 C252 1.255 . S
C260 O253 1.287 1_545 S
C260 O254 1.255 1_545 S
O261 Fe243 2.002 . S
O261 C257 1.295 . S
O262 Fe245 1.997 . S
O262 C257 1.235 . S
C263 O246 1.295 . S
C263 O247 1.235 . S
Fe264 O266 1.918 . S
Fe264 O269 1.997 . S
Fe264 O270 2.002 . S
Fe264 O275 1.976 . S
Fe264 O278 1.996 . S
Fe265 O266 1.918 . S
Fe265 O273 1.997 . S
Fe265 O276 1.996 . S
Fe265 O280 1.976 . S
Fe265 O283 2.002 . S
O266 Fe264 1.918 . S
O266 Fe265 1.918 . S
O266 Fe267 1.918 . S
Fe267 O266 1.918 . S
Fe267 O268 2.002 . S
Fe267 O277 1.976 . S
Fe267 O281 1.996 . S
Fe267 O284 1.997 . S
O268 Fe267 2.002 . S
O268 C285 1.295 . S
O269 Fe264 1.997 . S
O269 C285 1.235 . S
O270 Fe264 2.002 . S
O270 C271 1.295 . S
C271 O270 1.295 . S
C271 O273 1.235 . S
C272 O277 1.287 . S
C272 O278 1.255 . S
O273 Fe265 1.997 . S
O273 C271 1.235 . S
C274 O280 1.287 . S
C274 O281 1.255 . S
O275 Fe264 1.976 . S
O275 C282 1.287 . S
O276 Fe265 1.996 . S
O276 C282 1.255 . S
O277 Fe267 1.976 . S
O277 C272 1.287 . S
O278 Fe264 1.996 . S
O278 C272 1.255 . S
C279 O283 1.295 . S
C279 O284 1.235 . S
O280 Fe265 1.976 . S
O280 C274 1.287 . S
O281 Fe267 1.996 . S
O281 C274 1.255 . S
C282 O275 1.287 . S
C282 O276 1.255 . S
O283 Fe265 2.002 . S
O283 C279 1.295 . S
O284 Fe267 1.997 . S
O284 C279 1.235 . S
C285 O268 1.295 . S
C285 O269 1.235 . S
Fe286 O288 1.918 . S
Fe286 O291 1.997 . S
Fe286 O292 2.002 . S
Fe286 O297 1.976 . S
Fe286 O300 1.996 . S
Fe287 O288 1.918 . S
Fe287 O295 1.997 . S
Fe287 O298 1.996 . S
Fe287 O302 1.976 . S
Fe287 O305 2.002 . S
O288 Fe286 1.918 . S
O288 Fe287 1.918 . S
O288 Fe289 1.918 . S
Fe289 O288 1.918 . S
Fe289 O290 2.002 . S
Fe289 O299 1.976 . S
Fe289 O303 1.996 . S
Fe289 O306 1.997 . S
O290 Fe289 2.002 . S
O290 C307 1.295 . S
O291 Fe286 1.997 . S
O291 C307 1.235 . S
O292 Fe286 2.002 . S
O292 C293 1.295 . S
C293 O292 1.295 . S
C293 O295 1.235 . S
C294 O299 1.287 1_545 S
C294 O300 1.255 1_545 S
O295 Fe287 1.997 . S
O295 C293 1.235 . S
C296 O302 1.287 . S
C296 O303 1.255 . S
O297 Fe286 1.976 . S
O297 C304 1.287 . S
O298 Fe287 1.996 . S
O298 C304 1.255 . S
O299 Fe289 1.976 . S
O299 C294 1.287 1_565 S
O300 Fe286 1.996 . S
O300 C294 1.255 1_565 S
C301 O305 1.295 . S
C301 O306 1.235 . S
O302 Fe287 1.976 . S
O302 C296 1.287 . S
O303 Fe289 1.996 . S
O303 C296 1.255 . S
C304 O297 1.287 . S
C304 O298 1.255 . S
O305 Fe287 2.002 . S
O305 C301 1.295 . S
O306 Fe289 1.997 . S
O306 C301 1.235 . S
C307 O290 1.295 . S
C307 O291 1.235 . S
Fe308 O310 1.918 . S
Fe308 O313 1.997 . S
Fe308 O314 2.002 . S
Fe308 O319 1.976 . S
Fe308 O322 1.996 . S
Fe309 O310 1.918 . S
Fe309 O317 1.997 . S
Fe309 O320 1.996 . S
Fe309 O324 1.976 . S
Fe309 O327 2.002 . S
O310 Fe308 1.918 . S
O310 Fe309 1.918 . S
O310 Fe311 1.918 . S
Fe311 O310 1.918 . S
Fe311 O312 2.002 . S
Fe311 O321 1.976 . S
Fe311 O325 1.996 . S
Fe311 O328 1.997 . S
O312 Fe311 2.002 . S
O312 C329 1.295 . S
O313 Fe308 1.997 . S
O313 C329 1.235 . S
O314 Fe308 2.002 . S
O314 C315 1.295 . S
C315 O314 1.295 . S
C315 O317 1.235 . S
C316 O321 1.287 . S
C316 O322 1.255 . S
O317 Fe309 1.997 . S
O317 C315 1.235 . S
C318 O324 1.287 . S
C318 O325 1.255 . S
O319 Fe308 1.976 . S
O319 C326 1.287 . S
O320 Fe309 1.996 . S
O320 C326 1.255 . S
O321 Fe311 1.976 . S
O321 C316 1.287 . S
O322 Fe308 1.996 . S
O322 C316 1.255 . S
C323 O327 1.295 . S
C323 O328 1.235 . S
O324 Fe309 1.976 . S
O324 C318 1.287 . S
O325 Fe311 1.996 . S
O325 C318 1.255 . S
C326 O319 1.287 . S
C326 O320 1.255 . S
O327 Fe309 2.002 . S
O327 C323 1.295 . S
O328 Fe311 1.997 . S
O328 C323 1.235 . S
C329 O312 1.295 . S
C329 O313 1.235 . S
Fe330 O332 1.918 . S
Fe330 O335 1.997 . S
Fe330 O336 2.002 . S
Fe330 O341 1.976 . S
Fe330 O344 1.996 . S
Fe331 O332 1.918 . S
Fe331 O339 1.997 . S
Fe331 O342 1.996 . S
Fe331 O346 1.976 . S
Fe331 O349 2.002 . S
O332 Fe330 1.918 . S
O332 Fe331 1.918 . S
O332 Fe333 1.918 . S
Fe333 O332 1.918 . S
Fe333 O334 2.002 . S
Fe333 O343 1.976 . S
Fe333 O347 1.996 . S
Fe333 O350 1.997 . S
O334 Fe333 2.002 . S
O334 C351 1.295 . S
O335 Fe330 1.997 . S
O335 C351 1.235 . S
O336 Fe330 2.002 . S
O336 C337 1.295 . S
C337 O336 1.295 . S
C337 O339 1.235 . S
C338 O343 1.287 1_565 S
C338 O344 1.255 1_565 S
O339 Fe331 1.997 . S
O339 C337 1.235 . S
C340 O346 1.287 . S
C340 O347 1.255 . S
O341 Fe330 1.976 . S
O341 C348 1.287 . S
O342 Fe331 1.996 . S
O342 C348 1.255 . S
O343 Fe333 1.976 . S
O343 C338 1.287 1_545 S
O344 Fe330 1.996 . S
O344 C338 1.255 1_545 S
C345 O349 1.295 . S
C345 O350 1.235 . S
O346 Fe331 1.976 . S
O346 C340 1.287 . S
O347 Fe333 1.996 . S
O347 C340 1.255 . S
C348 O341 1.287 . S
C348 O342 1.255 . S
O349 Fe331 2.002 . S
O349 C345 1.295 . S
O350 Fe333 1.997 . S
O350 C345 1.235 . S
C351 O334 1.295 . S
C351 O335 1.235 . S
H352 C364 0.930 . S
H353 C366 0.930 . S
H354 C367 0.930 . S
H355 C371 0.959 . S
H356 C371 0.959 . S
H357 C371 0.961 . S
H358 C372 0.960 . S
H359 C372 0.961 . S
H360 C372 0.959 . S
H361 C375 0.929 . S
H362 C376 0.931 . S
H363 C378 0.930 . S
C364 H352 0.930 . S
C364 C365 1.399 . S
C364 C369 1.399 . S
C365 C364 1.399 . S
C365 C366 1.376 . S
C366 H353 0.930 . S
C366 C365 1.376 . S
C366 C367 1.388 . S
C367 H354 0.930 . S
C367 C366 1.388 . S
C367 C368 1.390 . S
C368 C367 1.390 . S
C368 C369 1.394 . S
C368 C374 1.465 . S
C369 C364 1.399 . S
C369 C368 1.394 . S
C369 C370 1.516 . S
C370 C369 1.516 . S
C370 C371 1.502 . S
C370 C372 1.561 . S
C370 C373 1.526 . S
C371 H355 0.959 . S
C371 H356 0.959 . S
C371 H357 0.961 . S
C371 C370 1.502 . S
C372 H358 0.960 . S
C372 H359 0.961 . S
C372 H360 0.959 . S
C372 C370 1.561 . S
C373 C370 1.526 . S
C373 C374 1.396 . S
C373 C378 1.390 . S
C374 C368 1.465 . S
C374 C373 1.396 . S
C374 C375 1.399 . S
C375 H361 0.929 . S
C375 C374 1.399 . S
C375 C376 1.385 . S
C376 H362 0.931 . S
C376 C375 1.385 . S
C376 C377 1.389 . S
C377 C376 1.389 . S
C377 C378 1.387 . S
C378 H363 0.930 . S
C378 C373 1.390 . S
C378 C377 1.387 . S
H379 C391 0.930 . S
H380 C393 0.930 . S
H381 C394 0.930 . S
H382 C398 0.959 . S
H383 C398 0.959 . S
H384 C398 0.961 . S
H385 C399 0.960 . S
H386 C399 0.961 . S
H387 C399 0.959 . S
H388 C402 0.929 . S
H389 C403 0.931 . S
H390 C405 0.930 . S
C391 H379 0.930 . S
C391 C392 1.399 . S
C391 C396 1.399 . S
C392 C391 1.399 . S
C392 C393 1.376 . S
C393 H380 0.930 . S
C393 C392 1.376 . S
C393 C394 1.388 . S
C394 H381 0.930 . S
C394 C393 1.388 . S
C394 C395 1.390 . S
C395 C394 1.390 . S
C395 C396 1.394 . S
C395 C401 1.465 . S
C396 C391 1.399 . S
C396 C395 1.394 . S
C396 C397 1.516 . S
C397 C396 1.516 . S
C397 C398 1.502 . S
C397 C399 1.561 . S
C397 C400 1.526 . S
C398 H382 0.959 . S
C398 H383 0.959 . S
C398 H384 0.961 . S
C398 C397 1.502 . S
C399 H385 0.960 . S
C399 H386 0.961 . S
C399 H387 0.959 . S
C399 C397 1.561 . S
C400 C397 1.526 . S
C400 C401 1.396 . S
C400 C405 1.390 . S
C401 C395 1.465 . S
C401 C400 1.396 . S
C401 C402 1.399 . S
C402 H388 0.929 . S
C402 C401 1.399 . S
C402 C403 1.385 . S
C403 H389 0.931 . S
C403 C402 1.385 . S
C403 C404 1.389 . S
C404 C403 1.389 . S
C404 C405 1.387 . S
C405 H390 0.930 . S
C405 C400 1.390 . S
C405 C404 1.387 . S
H406 C418 0.930 . S
H407 C420 0.930 . S
H408 C421 0.930 . S
H409 C425 0.959 . S
H410 C425 0.959 . S
H411 C425 0.961 . S
H412 C426 0.960 1_455 S
H413 C426 0.961 . S
H414 C426 0.959 . S
H415 C429 0.929 . S
H416 C430 0.931 . S
H417 C432 0.930 . S
C418 H406 0.930 . S
C418 C419 1.399 . S
C418 C423 1.399 . S
C419 C418 1.399 . S
C419 C420 1.376 . S
C420 H407 0.930 . S
C420 C419 1.376 . S
C420 C421 1.388 . S
C421 H408 0.930 . S
C421 C420 1.388 . S
C421 C422 1.390 . S
C422 C421 1.390 . S
C422 C423 1.394 . S
C422 C428 1.465 1_455 S
C423 C418 1.399 . S
C423 C422 1.394 . S
C423 C424 1.516 . S
C424 C423 1.516 . S
C424 C425 1.502 . S
C424 C426 1.561 1_455 S
C424 C427 1.526 1_455 S
C425 H409 0.959 . S
C425 H410 0.959 . S
C425 H411 0.961 . S
C425 C424 1.502 . S
C426 H412 0.960 1_655 S
C426 H413 0.961 . S
C426 H414 0.959 . S
C426 C424 1.561 1_655 S
C427 C424 1.526 1_655 S
C427 C428 1.396 . S
C427 C432 1.390 . S
C428 C422 1.465 1_655 S
C428 C427 1.396 . S
C428 C429 1.399 . S
C429 H415 0.929 . S
C429 C428 1.399 . S
C429 C430 1.385 . S
C430 H416 0.931 . S
C430 C429 1.385 . S
C430 C431 1.389 . S
C431 C430 1.389 . S
C431 C432 1.387 . S
C432 H417 0.930 . S
C432 C427 1.390 . S
C432 C431 1.387 . S
H433 C445 0.930 . S
H434 C447 0.930 . S
H435 C448 0.930 . S
H436 C452 0.959 . S
H437 C452 0.959 . S
H438 C452 0.956 1_455 S
H439 C453 0.960 . S
H440 C453 0.961 . S
H441 C453 0.959 . S
H442 C456 0.929 . S
H443 C457 0.931 . S
H444 C459 0.930 . S
C445 H433 0.930 . S
C445 C446 1.399 . S
C445 C450 1.399 . S
C446 C445 1.399 . S
C446 C447 1.376 . S
C447 H434 0.930 . S
C447 C446 1.376 . S
C447 C448 1.388 . S
C448 H435 0.930 . S
C448 C447 1.388 . S
C448 C449 1.390 . S
C449 C448 1.390 . S
C449 C450 1.394 . S
C449 C455 1.465 1_455 S
C450 C445 1.399 . S
C450 C449 1.394 . S
C450 C451 1.516 . S
C451 C450 1.516 . S
C451 C452 1.502 1_455 S
C451 C453 1.561 . S
C451 C454 1.526 1_455 S
C452 H436 0.959 . S
C452 H437 0.959 . S
C452 H438 0.956 1_655 S
C452 C451 1.502 1_655 S
C453 H439 0.960 . S
C453 H440 0.961 . S
C453 H441 0.959 . S
C453 C451 1.561 . S
C454 C451 1.526 1_655 S
C454 C455 1.396 . S
C454 C459 1.390 . S
C455 C449 1.465 1_655 S
C455 C454 1.396 . S
C455 C456 1.399 . S
C456 H442 0.929 . S
C456 C455 1.399 . S
C456 C457 1.385 . S
C457 H443 0.931 . S
C457 C456 1.385 . S
C457 C458 1.389 . S
C458 C457 1.389 . S
C458 C459 1.387 . S
C459 H444 0.930 . S
C459 C454 1.390 . S
C459 C458 1.387 . S
H460 C472 0.930 . S
H461 C474 0.930 . S
H462 C475 0.930 . S
H463 C479 0.959 . S
H464 C479 0.959 . S
H465 C479 0.961 . S
H466 C480 0.960 . S
H467 C480 0.961 . S
H468 C480 0.959 . S
H469 C483 0.929 . S
H470 C484 0.931 . S
H471 C486 0.930 . S
C472 H460 0.930 . S
C472 C473 1.399 . S
C472 C477 1.399 . S
C473 C472 1.399 . S
C473 C474 1.376 . S
C474 H461 0.930 . S
C474 C473 1.376 . S
C474 C475 1.388 . S
C475 H462 0.930 . S
C475 C474 1.388 . S
C475 C476 1.390 . S
C476 C475 1.390 . S
C476 C477 1.394 . S
C476 C482 1.465 . S
C477 C472 1.399 . S
C477 C476 1.394 . S
C477 C478 1.516 . S
C478 C477 1.516 . S
C478 C479 1.502 . S
C478 C480 1.561 . S
C478 C481 1.526 . S
C479 H463 0.959 . S
C479 H464 0.959 . S
C479 H465 0.961 . S
C479 C478 1.502 . S
C480 H466 0.960 . S
C480 H467 0.961 . S
C480 H468 0.959 . S
C480 C478 1.561 . S
C481 C478 1.526 . S
C481 C482 1.396 . S
C481 C486 1.390 . S
C482 C476 1.465 . S
C482 C481 1.396 . S
C482 C483 1.399 . S
C483 H469 0.929 . S
C483 C482 1.399 . S
C483 C484 1.385 . S
C484 H470 0.931 . S
C484 C483 1.385 . S
C484 C485 1.389 . S
C485 C484 1.389 . S
C485 C486 1.387 . S
C486 H471 0.930 . S
C486 C481 1.390 . S
C486 C485 1.387 . S
H487 C499 0.930 . S
H488 C501 0.930 . S
H489 C502 0.930 . S
H490 C506 0.959 . S
H491 C506 0.959 . S
H492 C506 0.961 . S
H493 C507 0.960 . S
H494 C507 0.961 . S
H495 C507 0.959 . S
H496 C510 0.929 . S
H497 C511 0.931 . S
H498 C513 0.930 . S
C499 H487 0.930 . S
C499 C500 1.399 . S
C499 C504 1.399 . S
C500 C499 1.399 . S
C500 C501 1.376 . S
C501 H488 0.930 . S
C501 C500 1.376 . S
C501 C502 1.388 . S
C502 H489 0.930 . S
C502 C501 1.388 . S
C502 C503 1.390 . S
C503 C502 1.390 . S
C503 C504 1.394 . S
C503 C509 1.465 . S
C504 C499 1.399 . S
C504 C503 1.394 . S
C504 C505 1.516 . S
C505 C504 1.516 . S
C505 C506 1.502 . S
C505 C507 1.561 . S
C505 C508 1.526 . S
C506 H490 0.959 . S
C506 H491 0.959 . S
C506 H492 0.961 . S
C506 C505 1.502 . S
C507 H493 0.960 . S
C507 H494 0.961 . S
C507 H495 0.959 . S
C507 C505 1.561 . S
C508 C505 1.526 . S
C508 C509 1.396 . S
C508 C513 1.390 . S
C509 C503 1.465 . S
C509 C508 1.396 . S
C509 C510 1.399 . S
C510 H496 0.929 . S
C510 C509 1.399 . S
C510 C511 1.385 . S
C511 H497 0.931 . S
C511 C510 1.385 . S
C511 C512 1.389 . S
C512 C511 1.389 . S
C512 C513 1.387 . S
C513 H498 0.930 . S
C513 C508 1.390 . S
C513 C512 1.387 . S
H514 C526 0.930 . S
H515 C528 0.930 . S
H516 C529 0.930 . S
H517 C533 0.959 . S
H518 C533 0.959 . S
H519 C533 0.961 . S
H520 C534 0.960 1_455 S
H521 C534 0.961 . S
H522 C534 0.959 . S
H523 C537 0.929 . S
H524 C538 0.931 . S
H525 C540 0.930 . S
C526 H514 0.930 . S
C526 C527 1.399 . S
C526 C531 1.399 . S
C527 C526 1.399 . S
C527 C528 1.376 . S
C528 H515 0.930 . S
C528 C527 1.376 . S
C528 C529 1.388 . S
C529 H516 0.930 . S
C529 C528 1.388 . S
C529 C530 1.390 . S
C530 C529 1.390 . S
C530 C531 1.394 . S
C530 C536 1.465 1_455 S
C531 C526 1.399 . S
C531 C530 1.394 . S
C531 C532 1.516 . S
C532 C531 1.516 . S
C532 C533 1.502 . S
C532 C534 1.561 1_455 S
C532 C535 1.526 1_455 S
C533 H517 0.959 . S
C533 H518 0.959 . S
C533 H519 0.961 . S
C533 C532 1.502 . S
C534 H520 0.960 1_655 S
C534 H521 0.961 . S
C534 H522 0.959 . S
C534 C532 1.561 1_655 S
C535 C532 1.526 1_655 S
C535 C536 1.396 . S
C535 C540 1.390 . S
C536 C530 1.465 1_655 S
C536 C535 1.396 . S
C536 C537 1.399 . S
C537 H523 0.929 . S
C537 C536 1.399 . S
C537 C538 1.385 . S
C538 H524 0.931 . S
C538 C537 1.385 . S
C538 C539 1.389 . S
C539 C538 1.389 . S
C539 C540 1.387 . S
C540 H525 0.930 . S
C540 C535 1.390 . S
C540 C539 1.387 . S
H541 C553 0.930 . S
H542 C555 0.930 . S
H543 C556 0.930 . S
H544 C560 0.959 . S
H545 C560 0.959 . S
H546 C560 0.961 . S
H547 C561 0.960 . S
H548 C561 0.961 . S
H549 C561 0.959 . S
H550 C564 0.929 1_455 S
H551 C565 0.931 . S
H552 C567 0.930 . S
C553 H541 0.930 . S
C553 C554 1.399 . S
C553 C558 1.399 . S
C554 C553 1.399 . S
C554 C555 1.376 . S
C555 H542 0.930 . S
C555 C554 1.376 . S
C555 C556 1.388 . S
C556 H543 0.930 . S
C556 C555 1.388 . S
C556 C557 1.390 . S
C557 C556 1.390 . S
C557 C558 1.394 . S
C557 C563 1.465 1_455 S
C558 C553 1.399 . S
C558 C557 1.394 . S
C558 C559 1.516 1_455 S
C559 C558 1.516 1_655 S
C559 C560 1.502 . S
C559 C561 1.561 1_655 S
C559 C562 1.526 . S
C560 H544 0.959 . S
C560 H545 0.959 . S
C560 H546 0.961 . S
C560 C559 1.502 . S
C561 H547 0.960 . S
C561 H548 0.961 . S
C561 H549 0.959 . S
C561 C559 1.561 1_455 S
C562 C559 1.526 . S
C562 C563 1.396 . S
C562 C567 1.390 . S
C563 C557 1.465 1_655 S
C563 C562 1.396 . S
C563 C564 1.399 . S
C564 H550 0.929 1_655 S
C564 C563 1.399 . S
C564 C565 1.385 . S
C565 H551 0.931 . S
C565 C564 1.385 . S
C565 C566 1.389 . S
C566 C565 1.389 . S
C566 C567 1.387 . S
C567 H552 0.930 . S
C567 C562 1.390 . S
C567 C566 1.387 . S
H568 C580 0.930 . S
H569 C582 0.930 . S
H570 C583 0.930 . S
H571 C587 0.959 . S
H572 C587 0.959 . S
H573 C587 0.961 . S
H574 C588 0.960 . S
H575 C588 0.961 . S
H576 C588 0.959 1_556 S
H577 C591 0.929 . S
H578 C592 0.931 . S
H579 C594 0.930 . S
C580 H568 0.930 . S
C580 C581 1.399 . S
C580 C585 1.399 . S
C581 C580 1.399 . S
C581 C582 1.376 . S
C582 H569 0.930 . S
C582 C581 1.376 . S
C582 C583 1.388 1_554 S
C583 H570 0.930 . S
C583 C582 1.388 1_556 S
C583 C584 1.390 . S
C584 C583 1.390 . S
C584 C585 1.394 1_556 S
C584 C590 1.465 . S
C585 C580 1.399 . S
C585 C584 1.394 1_554 S
C585 C586 1.516 1_545 S
C586 C585 1.516 1_565 S
C586 C587 1.502 . S
C586 C588 1.561 . S
C586 C589 1.526 1_554 S
C587 H571 0.959 . S
C587 H572 0.959 . S
C587 H573 0.961 . S
C587 C586 1.502 . S
C588 H574 0.960 . S
C588 H575 0.961 . S
C588 H576 0.959 1_554 S
C588 C586 1.561 . S
C589 C586 1.526 1_556 S
C589 C590 1.396 1_565 S
C589 C594 1.390 . S
C590 C584 1.465 . S
C590 C589 1.396 1_545 S
C590 C591 1.399 . S
C591 H577 0.929 . S
C591 C590 1.399 . S
C591 C592 1.385 1_545 S
C592 H578 0.931 . S
C592 C591 1.385 1_565 S
C592 C593 1.389 . S
C593 C592 1.389 . S
C593 C594 1.387 . S
C594 H579 0.930 . S
C594 C589 1.390 . S
C594 C593 1.387 . S
H595 C607 0.930 . S
H596 C609 0.930 . S
H597 C610 0.930 . S
H598 C614 0.959 . S
H599 C614 0.959 . S
H600 C614 0.961 . S
H601 C615 0.960 . S
H602 C615 0.961 . S
H603 C615 0.959 . S
H604 C618 0.929 . S
H605 C619 0.931 . S
H606 C621 0.930 . S
C607 H595 0.930 . S
C607 C608 1.399 . S
C607 C612 1.399 . S
C608 C607 1.399 . S
C608 C609 1.376 . S
C609 H596 0.930 . S
C609 C608 1.376 . S
C609 C610 1.388 . S
C610 H597 0.930 . S
C610 C609 1.388 . S
C610 C611 1.390 . S
C611 C610 1.390 . S
C611 C612 1.394 . S
C611 C617 1.465 . S
C612 C607 1.399 . S
C612 C611 1.394 . S
C612 C613 1.516 . S
C613 C612 1.516 . S
C613 C614 1.502 . S
C613 C615 1.561 . S
C613 C616 1.526 . S
C614 H598 0.959 . S
C614 H599 0.959 . S
C614 H600 0.961 . S
C614 C613 1.502 . S
C615 H601 0.960 . S
C615 H602 0.961 . S
C615 H603 0.959 . S
C615 C613 1.561 . S
C616 C613 1.526 . S
C616 C617 1.396 . S
C616 C621 1.390 . S
C617 C611 1.465 . S
C617 C616 1.396 . S
C617 C618 1.399 . S
C618 H604 0.929 . S
C618 C617 1.399 . S
C618 C619 1.385 . S
C619 H605 0.931 . S
C619 C618 1.385 . S
C619 C620 1.389 . S
C620 C619 1.389 . S
C620 C621 1.387 . S
C621 H606 0.930 . S
C621 C616 1.390 . S
C621 C620 1.387 . S
H622 C634 0.943 . S
H623 C636 0.930 . S
H624 C637 0.930 . S
H625 C641 0.959 . S
H626 C641 0.959 . S
H627 C641 0.961 1_455 S
H628 C642 0.960 . S
H629 C642 0.961 . S
H630 C642 0.959 . S
H631 C645 0.929 . S
H632 C646 0.931 . S
H633 C648 0.930 . S
C634 H622 0.943 . S
C634 C635 1.399 . S
C634 C639 1.399 . S
C635 C634 1.399 . S
C635 C636 1.376 . S
C636 H623 0.930 . S
C636 C635 1.376 . S
C636 C637 1.388 . S
C637 H624 0.930 . S
C637 C636 1.388 . S
C637 C638 1.390 . S
C638 C637 1.390 . S
C638 C639 1.394 . S
C638 C644 1.465 1_455 S
C639 C634 1.399 . S
C639 C638 1.394 . S
C639 C640 1.516 1_565 S
C640 C639 1.516 1_545 S
C640 C641 1.502 1_455 S
C640 C642 1.561 . S
C640 C643 1.526 1_455 S
C641 H625 0.959 . S
C641 H626 0.959 . S
C641 H627 0.961 1_655 S
C641 C640 1.502 1_655 S
C642 H628 0.960 . S
C642 H629 0.961 . S
C642 H630 0.959 . S
C642 C640 1.561 . S
C643 C640 1.526 1_655 S
C643 C644 1.396 1_545 S
C643 C648 1.390 . S
C644 C638 1.465 1_655 S
C644 C643 1.396 1_565 S
C644 C645 1.399 . S
C645 H631 0.929 . S
C645 C644 1.399 . S
C645 C646 1.385 1_565 S
C646 H632 0.931 . S
C646 C645 1.385 1_545 S
C646 C647 1.389 . S
C647 C646 1.389 . S
C647 C648 1.387 . S
C648 H633 0.930 . S
C648 C643 1.390 . S
C648 C647 1.387 . S
H649 C661 0.930 . S
H650 C663 0.930 . S
H651 C664 0.930 . S
H652 C668 0.959 . S
H653 C668 0.959 . S
H654 C668 0.961 . S
H655 C669 0.960 . S
H656 C669 0.961 . S
H657 C669 0.959 . S
H658 C672 0.929 . S
H659 C673 0.931 . S
H660 C675 0.930 . S
C661 H649 0.930 . S
C661 C662 1.399 . S
C661 C666 1.399 . S
C662 C661 1.399 . S
C662 C663 1.376 . S
C663 H650 0.930 . S
C663 C662 1.376 . S
C663 C664 1.388 . S
C664 H651 0.930 . S
C664 C663 1.388 . S
C664 C665 1.390 . S
C665 C664 1.390 . S
C665 C666 1.394 . S
C665 C671 1.465 . S
C666 C661 1.399 . S
C666 C665 1.394 . S
C666 C667 1.516 . S
C667 C666 1.516 . S
C667 C668 1.502 . S
C667 C669 1.561 . S
C667 C670 1.526 . S
C668 H652 0.959 . S
C668 H653 0.959 . S
C668 H654 0.961 . S
C668 C667 1.502 . S
C669 H655 0.960 . S
C669 H656 0.961 . S
C669 H657 0.959 . S
C669 C667 1.561 . S
C670 C667 1.526 . S
C670 C671 1.396 . S
C670 C675 1.390 . S
C671 C665 1.465 . S
C671 C670 1.396 . S
C671 C672 1.399 . S
C672 H658 0.929 . S
C672 C671 1.399 . S
C672 C673 1.385 . S
C673 H659 0.931 . S
C673 C672 1.385 . S
C673 C674 1.389 . S
C674 C673 1.389 . S
C674 C675 1.387 . S
C675 H660 0.930 . S
C675 C670 1.390 . S
C675 C674 1.387 . S
H676 C688 0.930 . S
H677 C690 0.930 . S
H678 C691 0.930 . S
H679 C695 0.959 . S
H680 C695 0.959 . S
H681 C695 0.961 . S
H682 C696 0.960 . S
H683 C696 0.961 . S
H684 C696 0.959 . S
H685 C699 0.929 . S
H686 C700 0.931 . S
H687 C702 0.930 . S
C688 H676 0.930 . S
C688 C689 1.399 . S
C688 C693 1.399 . S
C689 C688 1.399 . S
C689 C690 1.376 . S
C690 H677 0.930 . S
C690 C689 1.376 . S
C690 C691 1.388 . S
C691 H678 0.930 . S
C691 C690 1.388 . S
C691 C692 1.390 . S
C692 C691 1.390 . S
C692 C693 1.394 . S
C692 C698 1.465 . S
C693 C688 1.399 . S
C693 C692 1.394 . S
C693 C694 1.516 . S
C694 C693 1.516 . S
C694 C695 1.502 . S
C694 C696 1.561 . S
C694 C697 1.526 . S
C695 H679 0.959 . S
C695 H680 0.959 . S
C695 H681 0.961 . S
C695 C694 1.502 . S
C696 H682 0.960 . S
C696 H683 0.961 . S
C696 H684 0.959 . S
C696 C694 1.561 . S
C697 C694 1.526 . S
C697 C698 1.396 . S
C697 C702 1.390 . S
C698 C692 1.465 . S
C698 C697 1.396 . S
C698 C699 1.399 . S
C699 H685 0.929 . S
C699 C698 1.399 . S
C699 C700 1.385 . S
C700 H686 0.931 . S
C700 C699 1.385 . S
C700 C701 1.389 . S
C701 C700 1.389 . S
C701 C702 1.387 . S
C702 H687 0.930 . S
C702 C697 1.390 . S
C702 C701 1.387 . S
H703 C715 0.930 . S
H704 C717 0.930 . S
H705 C718 0.930 . S
H706 C722 0.959 . S
H707 C722 0.959 . S
H708 C722 0.961 . S
H709 C723 0.960 . S
H710 C723 0.961 . S
H711 C723 0.959 . S
H712 C726 0.929 . S
H713 C727 0.931 . S
H714 C729 0.930 . S
C715 H703 0.930 . S
C715 C716 1.399 . S
C715 C720 1.399 . S
C716 C715 1.399 . S
C716 C717 1.376 . S
C717 H704 0.930 . S
C717 C716 1.376 . S
C717 C718 1.388 . S
C718 H705 0.930 . S
C718 C717 1.388 . S
C718 C719 1.390 . S
C719 C718 1.390 . S
C719 C720 1.394 . S
C719 C725 1.465 . S
C720 C715 1.399 . S
C720 C719 1.394 . S
C720 C721 1.516 . S
C721 C720 1.516 . S
C721 C722 1.502 . S
C721 C723 1.561 . S
C721 C724 1.526 . S
C722 H706 0.959 . S
C722 H707 0.959 . S
C722 H708 0.961 . S
C722 C721 1.502 . S
C723 H709 0.960 . S
C723 H710 0.961 . S
C723 H711 0.959 . S
C723 C721 1.561 . S
C724 C721 1.526 . S
C724 C725 1.396 . S
C724 C729 1.390 . S
C725 C719 1.465 . S
C725 C724 1.396 . S
C725 C726 1.399 . S
C726 H712 0.929 . S
C726 C725 1.399 . S
C726 C727 1.385 . S
C727 H713 0.931 . S
C727 C726 1.385 . S
C727 C728 1.389 . S
C728 C727 1.389 . S
C728 C729 1.387 . S
C729 H714 0.930 . S
C729 C724 1.390 . S
C729 C728 1.387 . S
H730 C742 0.930 . S
H731 C744 0.930 . S
H732 C745 0.930 . S
H733 C749 0.959 . S
H734 C749 0.959 . S
H735 C749 0.961 . S
H736 C750 0.960 . S
H737 C750 0.961 1_655 S
H738 C750 0.959 . S
H739 C753 0.929 . S
H740 C754 0.931 . S
H741 C756 0.930 . S
C742 H730 0.930 . S
C742 C743 1.399 . S
C742 C747 1.399 . S
C743 C742 1.399 . S
C743 C744 1.376 . S
C744 H731 0.930 . S
C744 C743 1.376 . S
C744 C745 1.388 . S
C745 H732 0.930 . S
C745 C744 1.388 . S
C745 C746 1.390 . S
C746 C745 1.390 . S
C746 C747 1.394 . S
C746 C752 1.465 1_455 S
C747 C742 1.399 . S
C747 C746 1.394 . S
C747 C748 1.516 1_455 S
C748 C747 1.516 1_655 S
C748 C749 1.502 . S
C748 C750 1.561 1_655 S
C748 C751 1.526 . S
C749 H733 0.959 . S
C749 H734 0.959 . S
C749 H735 0.961 . S
C749 C748 1.502 . S
C750 H736 0.960 . S
C750 H737 0.961 1_455 S
C750 H738 0.959 . S
C750 C748 1.561 1_455 S
C751 C748 1.526 . S
C751 C752 1.396 . S
C751 C756 1.390 . S
C752 C746 1.465 1_655 S
C752 C751 1.396 . S
C752 C753 1.399 . S
C753 H739 0.929 . S
C753 C752 1.399 . S
C753 C754 1.385 . S
C754 H740 0.931 . S
C754 C753 1.385 . S
C754 C755 1.389 . S
C755 C754 1.389 . S
C755 C756 1.387 . S
C756 H741 0.930 . S
C756 C751 1.390 . S
C756 C755 1.387 . S
H757 C769 0.930 . S
H758 C771 0.930 . S
H759 C772 0.930 . S
H760 C776 0.959 . S
H761 C776 0.959 . S
H762 C776 0.961 . S
H763 C777 0.960 . S
H764 C777 0.961 . S
H765 C777 0.959 . S
H766 C780 0.929 . S
H767 C781 0.931 . S
H768 C783 0.930 . S
C769 H757 0.930 . S
C769 C770 1.399 . S
C769 C774 1.399 . S
C770 C769 1.399 . S
C770 C771 1.376 . S
C771 H758 0.930 . S
C771 C770 1.376 . S
C771 C772 1.388 . S
C772 H759 0.930 . S
C772 C771 1.388 . S
C772 C773 1.390 . S
C773 C772 1.390 . S
C773 C774 1.394 . S
C773 C779 1.465 . S
C774 C769 1.399 . S
C774 C773 1.394 . S
C774 C775 1.516 1_554 S
C775 C774 1.516 1_556 S
C775 C776 1.502 . S
C775 C777 1.561 . S
C775 C778 1.526 . S
C776 H760 0.959 . S
C776 H761 0.959 . S
C776 H762 0.961 . S
C776 C775 1.502 . S
C777 H763 0.960 . S
C777 H764 0.961 . S
C777 H765 0.959 . S
C777 C775 1.561 . S
C778 C775 1.526 . S
C778 C779 1.396 1_556 S
C778 C783 1.390 . S
C779 C773 1.465 . S
C779 C778 1.396 1_554 S
C779 C780 1.399 . S
C780 H766 0.929 . S
C780 C779 1.399 . S
C780 C781 1.385 1_554 S
C781 H767 0.931 . S
C781 C780 1.385 1_556 S
C781 C782 1.389 . S
C782 C781 1.389 . S
C782 C783 1.387 . S
C783 H768 0.930 . S
C783 C778 1.390 . S
C783 C782 1.387 . S
H784 C796 0.930 . S
H785 C798 0.930 . S
H786 C799 0.930 . S
H787 C803 0.959 . S
H788 C803 0.959 . S
H789 C803 0.961 . S
H790 C804 0.960 . S
H791 C804 0.961 . S
H792 C804 0.959 . S
H793 C807 0.929 . S
H794 C808 0.931 . S
H795 C810 0.930 . S
C796 H784 0.930 . S
C796 C797 1.399 . S
C796 C801 1.399 . S
C797 C796 1.399 . S
C797 C798 1.376 . S
C798 H785 0.930 . S
C798 C797 1.376 . S
C798 C799 1.388 . S
C799 H786 0.930 . S
C799 C798 1.388 . S
C799 C800 1.390 . S
C800 C799 1.390 . S
C800 C801 1.394 . S
C800 C806 1.465 . S
C801 C796 1.399 . S
C801 C800 1.394 . S
C801 C802 1.516 . S
C802 C801 1.516 . S
C802 C803 1.502 . S
C802 C804 1.561 . S
C802 C805 1.526 . S
C803 H787 0.959 . S
C803 H788 0.959 . S
C803 H789 0.961 . S
C803 C802 1.502 . S
C804 H790 0.960 . S
C804 H791 0.961 . S
C804 H792 0.959 . S
C804 C802 1.561 . S
C805 C802 1.526 . S
C805 C806 1.396 . S
C805 C810 1.390 . S
C806 C800 1.465 . S
C806 C805 1.396 . S
C806 C807 1.399 . S
C807 H793 0.929 . S
C807 C806 1.399 . S
C807 C808 1.385 . S
C808 H794 0.931 . S
C808 C807 1.385 . S
C808 C809 1.389 . S
C809 C808 1.389 . S
C809 C810 1.387 . S
C810 H795 0.930 . S
C810 C805 1.390 . S
C810 C809 1.387 . S
H811 C823 0.930 . S
H812 C825 0.930 . S
H813 C826 0.930 . S
H814 C830 0.959 . S
H815 C830 0.959 . S
H816 C830 0.961 . S
H817 C831 0.960 . S
H818 C831 0.961 . S
H819 C831 0.959 . S
H820 C834 0.929 . S
H821 C835 0.931 . S
H822 C837 0.930 . S
C823 H811 0.930 . S
C823 C824 1.399 . S
C823 C828 1.399 . S
C824 C823 1.399 . S
C824 C825 1.376 . S
C825 H812 0.930 . S
C825 C824 1.376 . S
C825 C826 1.388 . S
C826 H813 0.930 . S
C826 C825 1.388 . S
C826 C827 1.390 . S
C827 C826 1.390 . S
C827 C828 1.394 . S
C827 C833 1.465 . S
C828 C823 1.399 . S
C828 C827 1.394 . S
C828 C829 1.516 . S
C829 C828 1.516 . S
C829 C830 1.502 . S
C829 C831 1.561 . S
C829 C832 1.526 . S
C830 H814 0.959 . S
C830 H815 0.959 . S
C830 H816 0.961 . S
C830 C829 1.502 . S
C831 H817 0.960 . S
C831 H818 0.961 . S
C831 H819 0.959 . S
C831 C829 1.561 . S
C832 C829 1.526 . S
C832 C833 1.396 . S
C832 C837 1.390 . S
C833 C827 1.465 . S
C833 C832 1.396 . S
C833 C834 1.399 . S
C834 H820 0.929 . S
C834 C833 1.399 . S
C834 C835 1.385 . S
C835 H821 0.931 . S
C835 C834 1.385 . S
C835 C836 1.389 . S
C836 C835 1.389 . S
C836 C837 1.387 . S
C837 H822 0.930 . S
C837 C832 1.390 . S
C837 C836 1.387 . S
H838 C850 0.930 . S
H839 C852 0.930 . S
H840 C853 0.930 . S
H841 C857 0.959 . S
H842 C857 0.959 . S
H843 C857 0.961 . S
H844 C858 0.960 . S
H845 C858 0.961 . S
H846 C858 0.959 . S
H847 C861 0.929 . S
H848 C862 0.931 . S
H849 C864 0.930 . S
C850 H838 0.930 . S
C850 C851 1.399 . S
C850 C855 1.399 . S
C851 C850 1.399 . S
C851 C852 1.376 . S
C852 H839 0.930 . S
C852 C851 1.376 . S
C852 C853 1.388 . S
C853 H840 0.930 . S
C853 C852 1.388 . S
C853 C854 1.390 . S
C854 C853 1.390 . S
C854 C855 1.394 . S
C854 C860 1.465 . S
C855 C850 1.399 . S
C855 C854 1.394 . S
C855 C856 1.516 . S
C856 C855 1.516 . S
C856 C857 1.502 . S
C856 C858 1.561 . S
C856 C859 1.526 . S
C857 H841 0.959 . S
C857 H842 0.959 . S
C857 H843 0.961 . S
C857 C856 1.502 . S
C858 H844 0.960 . S
C858 H845 0.961 . S
C858 H846 0.959 . S
C858 C856 1.561 . S
C859 C856 1.526 . S
C859 C860 1.396 . S
C859 C864 1.390 . S
C860 C854 1.465 . S
C860 C859 1.396 . S
C860 C861 1.399 . S
C861 H847 0.929 . S
C861 C860 1.399 . S
C861 C862 1.385 . S
C862 H848 0.931 . S
C862 C861 1.385 . S
C862 C863 1.389 . S
C863 C862 1.389 . S
C863 C864 1.387 . S
C864 H849 0.930 . S
C864 C859 1.390 . S
C864 C863 1.387 . S
H865 C877 0.930 . S
H866 C879 0.930 . S
H867 C880 0.930 . S
H868 C884 0.959 . S
H869 C884 0.959 . S
H870 C884 0.961 . S
H871 C885 0.960 . S
H872 C885 0.961 . S
H873 C885 0.959 . S
H874 C888 0.929 . S
H875 C889 0.931 . S
H876 C891 0.930 . S
C877 H865 0.930 . S
C877 C878 1.399 . S
C877 C882 1.399 . S
C878 C877 1.399 . S
C878 C879 1.376 . S
C879 H866 0.930 . S
C879 C878 1.376 . S
C879 C880 1.388 . S
C880 H867 0.930 . S
C880 C879 1.388 . S
C880 C881 1.390 . S
C881 C880 1.390 . S
C881 C882 1.394 . S
C881 C887 1.465 . S
C882 C877 1.399 . S
C882 C881 1.394 . S
C882 C883 1.516 . S
C883 C882 1.516 . S
C883 C884 1.502 . S
C883 C885 1.561 . S
C883 C886 1.526 . S
C884 H868 0.959 . S
C884 H869 0.959 . S
C884 H870 0.961 . S
C884 C883 1.502 . S
C885 H871 0.960 . S
C885 H872 0.961 . S
C885 H873 0.959 . S
C885 C883 1.561 . S
C886 C883 1.526 . S
C886 C887 1.396 . S
C886 C891 1.390 . S
C887 C881 1.465 . S
C887 C886 1.396 . S
C887 C888 1.399 . S
C888 H874 0.929 . S
C888 C887 1.399 . S
C888 C889 1.385 . S
C889 H875 0.931 . S
C889 C888 1.385 . S
C889 C890 1.389 . S
C890 C889 1.389 . S
C890 C891 1.387 . S
C891 H876 0.930 . S
C891 C886 1.390 . S
C891 C890 1.387 . S
H892 C904 0.930 . S
H893 C906 0.930 . S
H894 C907 0.930 . S
H895 C911 0.959 . S
H896 C911 0.959 . S
H897 C911 0.961 . S
H898 C912 0.960 . S
H899 C912 0.961 . S
H900 C912 0.959 . S
H901 C915 0.929 . S
H902 C916 0.931 . S
H903 C918 0.930 . S
C904 H892 0.930 . S
C904 C905 1.399 . S
C904 C909 1.399 . S
C905 C904 1.399 . S
C905 C906 1.376 . S
C906 H893 0.930 . S
C906 C905 1.376 . S
C906 C907 1.388 . S
C907 H894 0.930 . S
C907 C906 1.388 . S
C907 C908 1.390 . S
C908 C907 1.390 . S
C908 C909 1.394 . S
C908 C914 1.465 . S
C909 C904 1.399 . S
C909 C908 1.394 . S
C909 C910 1.516 . S
C910 C909 1.516 . S
C910 C911 1.502 . S
C910 C912 1.561 . S
C910 C913 1.526 . S
C911 H895 0.959 . S
C911 H896 0.959 . S
C911 H897 0.961 . S
C911 C910 1.502 . S
C912 H898 0.960 . S
C912 H899 0.961 . S
C912 H900 0.959 . S
C912 C910 1.561 . S
C913 C910 1.526 . S
C913 C914 1.396 . S
C913 C918 1.390 . S
C914 C908 1.465 . S
C914 C913 1.396 . S
C914 C915 1.399 . S
C915 H901 0.929 . S
C915 C914 1.399 . S
C915 C916 1.385 . S
C916 H902 0.931 . S
C916 C915 1.385 . S
C916 C917 1.389 . S
C917 C916 1.389 . S
C917 C918 1.387 . S
C918 H903 0.930 . S
C918 C913 1.390 . S
C918 C917 1.387 . S
H919 C931 0.930 . S
H920 C933 0.930 . S
H921 C934 0.930 . S
H922 C938 0.959 . S
H923 C938 0.959 . S
H924 C938 0.961 . S
H925 C939 0.960 . S
H926 C939 0.961 . S
H927 C939 0.959 . S
H928 C942 0.929 . S
H929 C943 0.931 . S
H930 C945 0.930 . S
C931 H919 0.930 . S
C931 C932 1.399 . S
C931 C936 1.399 . S
C932 C931 1.399 . S
C932 C933 1.376 . S
C933 H920 0.930 . S
C933 C932 1.376 . S
C933 C934 1.388 . S
C934 H921 0.930 . S
C934 C933 1.388 . S
C934 C935 1.390 . S
C935 C934 1.390 . S
C935 C936 1.394 . S
C935 C941 1.465 . S
C936 C931 1.399 . S
C936 C935 1.394 . S
C936 C937 1.516 . S
C937 C936 1.516 . S
C937 C938 1.502 . S
C937 C939 1.561 . S
C937 C940 1.526 . S
C938 H922 0.959 . S
C938 H923 0.959 . S
C938 H924 0.961 . S
C938 C937 1.502 . S
C939 H925 0.960 . S
C939 H926 0.961 . S
C939 H927 0.959 . S
C939 C937 1.561 . S
C940 C937 1.526 . S
C940 C941 1.396 . S
C940 C945 1.390 . S
C941 C935 1.465 . S
C941 C940 1.396 . S
C941 C942 1.399 . S
C942 H928 0.929 . S
C942 C941 1.399 . S
C942 C943 1.385 . S
C943 H929 0.931 . S
C943 C942 1.385 . S
C943 C944 1.389 . S
C944 C943 1.389 . S
C944 C945 1.387 . S
C945 H930 0.930 . S
C945 C940 1.390 . S
C945 C944 1.387 . S
H946 C958 0.930 . S
H947 C960 0.930 . S
H948 C961 0.930 . S
H949 C965 0.959 . S
H950 C965 0.959 . S
H951 C965 0.961 . S
H952 C966 0.960 . S
H953 C966 0.961 . S
H954 C966 0.959 . S
H955 C969 0.929 . S
H956 C970 0.931 . S
H957 C972 0.930 . S
C958 H946 0.930 . S
C958 C959 1.399 . S
C958 C963 1.399 . S
C959 C958 1.399 . S
C959 C960 1.376 . S
C960 H947 0.930 . S
C960 C959 1.376 . S
C960 C961 1.388 . S
C961 H948 0.930 . S
C961 C960 1.388 . S
C961 C962 1.390 . S
C962 C961 1.390 . S
C962 C963 1.394 . S
C962 C968 1.465 . S
C963 C958 1.399 . S
C963 C962 1.394 . S
C963 C964 1.516 . S
C964 C963 1.516 . S
C964 C965 1.502 . S
C964 C966 1.561 . S
C964 C967 1.526 . S
C965 H949 0.959 . S
C965 H950 0.959 . S
C965 H951 0.961 . S
C965 C964 1.502 . S
C966 H952 0.960 . S
C966 H953 0.961 . S
C966 H954 0.959 . S
C966 C964 1.561 . S
C967 C964 1.526 . S
C967 C968 1.396 . S
C967 C972 1.390 . S
C968 C962 1.465 . S
C968 C967 1.396 . S
C968 C969 1.399 . S
C969 H955 0.929 . S
C969 C968 1.399 . S
C969 C970 1.385 . S
C970 H956 0.931 . S
C970 C969 1.385 . S
C970 C971 1.389 . S
C971 C970 1.389 . S
C971 C972 1.387 . S
C972 H957 0.930 . S
C972 C967 1.390 . S
C972 C971 1.387 . S
H973 C985 0.930 . S
H974 C987 0.930 . S
H975 C988 0.930 . S
H976 C992 0.959 . S
H977 C992 0.959 . S
H978 C992 0.961 . S
H979 C993 0.960 . S
H980 C993 0.961 . S
H981 C993 0.959 . S
H982 C996 0.929 . S
H983 C997 0.931 . S
H984 C999 0.930 . S
C985 H973 0.930 . S
C985 C986 1.399 . S
C985 C990 1.399 . S
C986 C985 1.399 . S
C986 C987 1.376 . S
C987 H974 0.930 . S
C987 C986 1.376 . S
C987 C988 1.388 . S
C988 H975 0.930 . S
C988 C987 1.388 . S
C988 C989 1.390 . S
C989 C988 1.390 . S
C989 C990 1.394 . S
C989 C995 1.465 . S
C990 C985 1.399 . S
C990 C989 1.394 . S
C990 C991 1.516 . S
C991 C990 1.516 . S
C991 C992 1.502 . S
C991 C993 1.561 . S
C991 C994 1.526 . S
C992 H976 0.959 . S
C992 H977 0.959 . S
C992 H978 0.961 . S
C992 C991 1.502 . S
C993 H979 0.960 . S
C993 H980 0.961 . S
C993 H981 0.959 . S
C993 C991 1.561 . S
C994 C991 1.526 . S
C994 C995 1.396 . S
C994 C999 1.390 . S
C995 C989 1.465 . S
C995 C994 1.396 . S
C995 C996 1.399 . S
C996 H982 0.929 . S
C996 C995 1.399 . S
C996 C997 1.385 . S
C997 H983 0.931 . S
C997 C996 1.385 . S
C997 C998 1.389 . S
C998 C997 1.389 . S
C998 C999 1.387 . S
C999 H984 0.930 . S
C999 C994 1.390 . S
C999 C998 1.387 . S
H1000 C1012 0.930 . S
H1001 C1014 0.930 . S
H1002 C1015 0.930 . S
H1003 C1019 0.959 . S
H1004 C1019 0.959 . S
H1005 C1019 0.961 . S
H1006 C1020 0.960 . S
H1007 C1020 0.961 . S
H1008 C1020 0.959 . S
H1009 C1023 0.929 . S
H1010 C1024 0.931 . S
H1011 C1026 0.930 . S
C1012 H1000 0.930 . S
C1012 C1013 1.399 . S
C1012 C1017 1.399 . S
C1013 C1012 1.399 . S
C1013 C1014 1.376 . S
C1014 H1001 0.930 . S
C1014 C1013 1.376 . S
C1014 C1015 1.388 . S
C1015 H1002 0.930 . S
C1015 C1014 1.388 . S
C1015 C1016 1.390 . S
C1016 C1015 1.390 . S
C1016 C1017 1.394 . S
C1016 C1022 1.465 . S
C1017 C1012 1.399 . S
C1017 C1016 1.394 . S
C1017 C1018 1.516 . S
C1018 C1017 1.516 . S
C1018 C1019 1.502 . S
C1018 C1020 1.561 . S
C1018 C1021 1.526 . S
C1019 H1003 0.959 . S
C1019 H1004 0.959 . S
C1019 H1005 0.961 . S
C1019 C1018 1.502 . S
C1020 H1006 0.960 . S
C1020 H1007 0.961 . S
C1020 H1008 0.959 . S
C1020 C1018 1.561 . S
C1021 C1018 1.526 . S
C1021 C1022 1.396 . S
C1021 C1026 1.390 . S
C1022 C1016 1.465 . S
C1022 C1021 1.396 . S
C1022 C1023 1.399 . S
C1023 H1009 0.929 . S
C1023 C1022 1.399 . S
C1023 C1024 1.385 . S
C1024 H1010 0.931 . S
C1024 C1023 1.385 . S
C1024 C1025 1.389 . S
C1025 C1024 1.389 . S
C1025 C1026 1.387 . S
C1026 H1011 0.930 . S
C1026 C1021 1.390 . S
C1026 C1025 1.387 . S
H1027 C1039 0.930 . S
H1028 C1041 0.930 . S
H1029 C1042 0.930 . S
H1030 C1046 0.959 . S
H1031 C1046 0.959 . S
H1032 C1046 0.961 . S
H1033 C1047 0.962 . S
H1034 C1047 0.944 1_545 S
H1035 C1047 0.975 . S
H1036 C1050 0.929 . S
H1037 C1051 0.931 1_455 S
H1038 C1053 0.930 . S
C1039 H1027 0.930 . S
C1039 C1040 1.399 . S
C1039 C1044 1.399 . S
C1040 C1039 1.399 . S
C1040 C1041 1.376 . S
C1041 H1028 0.930 . S
C1041 C1040 1.376 . S
C1041 C1042 1.388 . S
C1042 H1029 0.930 . S
C1042 C1041 1.388 . S
C1042 C1043 1.390 . S
C1043 C1042 1.390 . S
C1043 C1044 1.394 . S
C1043 C1049 1.465 . S
C1044 C1039 1.399 . S
C1044 C1043 1.394 . S
C1044 C1045 1.516 1_565 S
C1045 C1044 1.516 1_545 S
C1045 C1046 1.502 . S
C1045 C1047 1.560 1_545 S
C1045 C1048 1.526 1_545 S
C1046 H1030 0.959 . S
C1046 H1031 0.959 . S
C1046 H1032 0.961 . S
C1046 C1045 1.502 . S
C1047 H1033 0.962 . S
C1047 H1034 0.944 1_565 S
C1047 H1035 0.975 . S
C1047 C1045 1.560 1_565 S
C1048 C1045 1.526 1_565 S
C1048 C1049 1.396 . S
C1048 C1053 1.390 1_565 S
C1049 C1043 1.465 . S
C1049 C1048 1.396 . S
C1049 C1050 1.399 . S
C1050 H1036 0.929 . S
C1050 C1049 1.399 . S
C1050 C1051 1.385 . S
C1051 H1037 0.931 1_655 S
C1051 C1050 1.385 . S
C1051 C1052 1.389 1_565 S
C1052 C1051 1.389 1_545 S
C1052 C1053 1.387 . S
C1053 H1038 0.930 . S
C1053 C1048 1.390 1_545 S
C1053 C1052 1.387 . S
H1054 C1066 0.930 . S
H1055 C1068 0.930 . S
H1056 C1069 0.930 . S
H1057 C1073 0.959 . S
H1058 C1073 0.959 . S
H1059 C1073 0.961 . S
H1060 C1074 0.960 . S
H1061 C1074 0.961 . S
H1062 C1074 0.959 . S
H1063 C1077 0.929 . S
H1064 C1078 0.931 . S
H1065 C1080 0.930 . S
C1066 H1054 0.930 . S
C1066 C1067 1.399 . S
C1066 C1071 1.399 . S
C1067 C1066 1.399 . S
C1067 C1068 1.376 . S
C1068 H1055 0.930 . S
C1068 C1067 1.376 . S
C1068 C1069 1.388 . S
C1069 H1056 0.930 . S
C1069 C1068 1.388 . S
C1069 C1070 1.390 . S
C1070 C1069 1.390 . S
C1070 C1071 1.394 . S
C1070 C1076 1.465 . S
C1071 C1066 1.399 . S
C1071 C1070 1.394 . S
C1071 C1072 1.516 . S
C1072 C1071 1.516 . S
C1072 C1073 1.502 . S
C1072 C1074 1.561 . S
C1072 C1075 1.526 . S
C1073 H1057 0.959 . S
C1073 H1058 0.959 . S
C1073 H1059 0.961 . S
C1073 C1072 1.502 . S
C1074 H1060 0.960 . S
C1074 H1061 0.961 . S
C1074 H1062 0.959 . S
C1074 C1072 1.561 . S
C1075 C1072 1.526 . S
C1075 C1076 1.396 . S
C1075 C1080 1.390 . S
C1076 C1070 1.465 . S
C1076 C1075 1.396 . S
C1076 C1077 1.399 . S
C1077 H1063 0.929 . S
C1077 C1076 1.399 . S
C1077 C1078 1.385 . S
C1078 H1064 0.931 . S
C1078 C1077 1.385 . S
C1078 C1079 1.389 . S
C1079 C1078 1.389 . S
C1079 C1080 1.387 . S
C1080 H1065 0.930 . S
C1080 C1075 1.390 . S
C1080 C1079 1.387 . S
H1081 C1093 0.930 . S
H1082 C1095 0.930 . S
H1083 C1096 0.930 . S
H1084 C1100 0.959 . S
H1085 C1100 0.959 . S
H1086 C1100 0.961 . S
H1087 C1101 0.960 . S
H1088 C1101 0.961 . S
H1089 C1101 0.959 . S
H1090 C1104 0.929 . S
H1091 C1105 0.931 . S
H1092 C1107 0.930 . S
C1093 H1081 0.930 . S
C1093 C1094 1.399 . S
C1093 C1098 1.399 . S
C1094 C1093 1.399 . S
C1094 C1095 1.376 . S
C1095 H1082 0.930 . S
C1095 C1094 1.376 . S
C1095 C1096 1.388 . S
C1096 H1083 0.930 . S
C1096 C1095 1.388 . S
C1096 C1097 1.390 . S
C1097 C1096 1.390 . S
C1097 C1098 1.394 . S
C1097 C1103 1.465 . S
C1098 C1093 1.399 . S
C1098 C1097 1.394 . S
C1098 C1099 1.516 . S
C1099 C1098 1.516 . S
C1099 C1100 1.502 . S
C1099 C1101 1.561 . S
C1099 C1102 1.526 . S
C1100 H1084 0.959 . S
C1100 H1085 0.959 . S
C1100 H1086 0.961 . S
C1100 C1099 1.502 . S
C1101 H1087 0.960 . S
C1101 H1088 0.961 . S
C1101 H1089 0.959 . S
C1101 C1099 1.561 . S
C1102 C1099 1.526 . S
C1102 C1103 1.396 . S
C1102 C1107 1.390 . S
C1103 C1097 1.465 . S
C1103 C1102 1.396 . S
C1103 C1104 1.399 1_545 S
C1104 H1090 0.929 . S
C1104 C1103 1.399 1_565 S
C1104 C1105 1.385 . S
C1105 H1091 0.931 . S
C1105 C1104 1.385 . S
C1105 C1106 1.389 . S
C1106 C1105 1.389 . S
C1106 C1107 1.387 1_565 S
C1107 H1092 0.930 . S
C1107 C1102 1.390 . S
C1107 C1106 1.387 1_545 S
H1108 C1120 0.930 . S
H1109 C1122 0.930 . S
H1110 C1123 0.930 . S
H1111 C1127 0.959 . S
H1112 C1127 0.959 . S
H1113 C1127 0.961 . S
H1114 C1128 0.960 . S
H1115 C1128 0.961 . S
H1116 C1128 0.959 . S
H1117 C1131 0.929 . S
H1118 C1132 0.931 . S
H1119 C1134 0.930 . S
C1120 H1108 0.930 . S
C1120 C1121 1.399 . S
C1120 C1125 1.399 . S
C1121 C1120 1.399 . S
C1121 C1122 1.376 . S
C1122 H1109 0.930 . S
C1122 C1121 1.376 . S
C1122 C1123 1.388 . S
C1123 H1110 0.930 . S
C1123 C1122 1.388 . S
C1123 C1124 1.390 . S
C1124 C1123 1.390 . S
C1124 C1125 1.394 . S
C1124 C1130 1.465 . S
C1125 C1120 1.399 . S
C1125 C1124 1.394 . S
C1125 C1126 1.516 . S
C1126 C1125 1.516 . S
C1126 C1127 1.502 . S
C1126 C1128 1.561 . S
C1126 C1129 1.526 . S
C1127 H1111 0.959 . S
C1127 H1112 0.959 . S
C1127 H1113 0.961 . S
C1127 C1126 1.502 . S
C1128 H1114 0.960 . S
C1128 H1115 0.961 . S
C1128 H1116 0.959 . S
C1128 C1126 1.561 . S
C1129 C1126 1.526 . S
C1129 C1130 1.396 . S
C1129 C1134 1.390 . S
C1130 C1124 1.465 . S
C1130 C1129 1.396 . S
C1130 C1131 1.399 . S
C1131 H1117 0.929 . S
C1131 C1130 1.399 . S
C1131 C1132 1.385 . S
C1132 H1118 0.931 . S
C1132 C1131 1.385 . S
C1132 C1133 1.389 . S
C1133 C1132 1.389 . S
C1133 C1134 1.387 . S
C1134 H1119 0.930 . S
C1134 C1129 1.390 . S
C1134 C1133 1.387 . S
H1135 C1147 0.930 . S
H1136 C1149 0.930 . S
H1137 C1150 0.930 . S
H1138 C1154 0.959 . S
H1139 C1154 0.959 . S
H1140 C1154 0.961 . S
H1141 C1155 0.960 . S
H1142 C1155 0.961 . S
H1143 C1155 0.959 . S
H1144 C1158 0.929 . S
H1145 C1159 0.931 . S
H1146 C1161 0.930 . S
C1147 H1135 0.930 . S
C1147 C1148 1.399 . S
C1147 C1152 1.399 1_565 S
C1148 C1147 1.399 . S
C1148 C1149 1.376 1_565 S
C1149 H1136 0.930 . S
C1149 C1148 1.376 1_545 S
C1149 C1150 1.388 . S
C1150 H1137 0.930 . S
C1150 C1149 1.388 . S
C1150 C1151 1.390 . S
C1151 C1150 1.390 . S
C1151 C1152 1.394 . S
C1151 C1157 1.465 . S
C1152 C1147 1.399 1_545 S
C1152 C1151 1.394 . S
C1152 C1153 1.516 . S
C1153 C1152 1.516 . S
C1153 C1154 1.502 1_545 S
C1153 C1155 1.561 . S
C1153 C1156 1.526 . S
C1154 H1138 0.959 . S
C1154 H1139 0.959 . S
C1154 H1140 0.961 . S
C1154 C1153 1.502 1_565 S
C1155 H1141 0.960 . S
C1155 H1142 0.961 . S
C1155 H1143 0.959 . S
C1155 C1153 1.561 . S
C1156 C1153 1.526 . S
C1156 C1157 1.396 . S
C1156 C1161 1.390 . S
C1157 C1151 1.465 . S
C1157 C1156 1.396 . S
C1157 C1158 1.399 . S
C1158 H1144 0.929 . S
C1158 C1157 1.399 . S
C1158 C1159 1.385 . S
C1159 H1145 0.931 . S
C1159 C1158 1.385 . S
C1159 C1160 1.389 . S
C1160 C1159 1.389 . S
C1160 C1161 1.387 . S
C1161 H1146 0.930 . S
C1161 C1156 1.390 . S
C1161 C1160 1.387 . S
H1162 C1174 0.930 . S
H1163 C1176 0.930 . S
H1164 C1177 0.930 . S
H1165 C1181 0.959 . S
H1166 C1181 0.959 . S
H1167 C1181 0.961 . S
H1168 C1182 0.960 . S
H1169 C1182 0.961 . S
H1170 C1182 0.959 . S
H1171 C1185 0.929 . S
H1172 C1186 0.931 . S
H1173 C1188 0.930 . S
C1174 H1162 0.930 . S
C1174 C1175 1.399 . S
C1174 C1179 1.399 . S
C1175 C1174 1.399 . S
C1175 C1176 1.376 . S
C1176 H1163 0.930 . S
C1176 C1175 1.376 . S
C1176 C1177 1.388 . S
C1177 H1164 0.930 . S
C1177 C1176 1.388 . S
C1177 C1178 1.390 . S
C1178 C1177 1.390 . S
C1178 C1179 1.394 . S
C1178 C1184 1.465 . S
C1179 C1174 1.399 . S
C1179 C1178 1.394 . S
C1179 C1180 1.516 . S
C1180 C1179 1.516 . S
C1180 C1181 1.502 . S
C1180 C1182 1.561 . S
C1180 C1183 1.526 . S
C1181 H1165 0.959 . S
C1181 H1166 0.959 . S
C1181 H1167 0.961 . S
C1181 C1180 1.502 . S
C1182 H1168 0.960 . S
C1182 H1169 0.961 . S
C1182 H1170 0.959 . S
C1182 C1180 1.561 . S
C1183 C1180 1.526 . S
C1183 C1184 1.396 . S
C1183 C1188 1.390 . S
C1184 C1178 1.465 . S
C1184 C1183 1.396 . S
C1184 C1185 1.399 . S
C1185 H1171 0.929 . S
C1185 C1184 1.399 . S
C1185 C1186 1.385 . S
C1186 H1172 0.931 . S
C1186 C1185 1.385 . S
C1186 C1187 1.389 . S
C1187 C1186 1.389 . S
C1187 C1188 1.387 . S
C1188 H1173 0.930 . S
C1188 C1183 1.390 . S
C1188 C1187 1.387 . S
H1189 C1201 0.930 . S
H1190 C1203 0.930 . S
H1191 C1204 0.930 . S
H1192 C1208 0.959 . S
H1193 C1208 0.959 . S
H1194 C1208 0.961 . S
H1195 C1209 0.960 1_545 S
H1196 C1209 0.961 . S
H1197 C1209 0.959 . S
H1198 C1212 0.929 . S
H1199 C1213 0.931 . S
H1200 C1215 0.930 . S
C1201 H1189 0.930 . S
C1201 C1202 1.399 . S
C1201 C1206 1.399 1_545 S
C1202 C1201 1.399 . S
C1202 C1203 1.376 1_545 S
C1203 H1190 0.930 . S
C1203 C1202 1.376 1_565 S
C1203 C1204 1.388 . S
C1204 H1191 0.930 . S
C1204 C1203 1.388 . S
C1204 C1205 1.390 . S
C1205 C1204 1.390 . S
C1205 C1206 1.394 . S
C1205 C1211 1.465 . S
C1206 C1201 1.399 1_565 S
C1206 C1205 1.394 . S
C1206 C1207 1.516 . S
C1207 C1206 1.516 . S
C1207 C1208 1.502 1_565 S
C1207 C1209 1.561 . S
C1207 C1210 1.526 . S
C1208 H1192 0.959 . S
C1208 H1193 0.959 . S
C1208 H1194 0.961 . S
C1208 C1207 1.502 1_545 S
C1209 H1195 0.960 1_565 S
C1209 H1196 0.961 . S
C1209 H1197 0.959 . S
C1209 C1207 1.561 . S
C1210 C1207 1.526 . S
C1210 C1211 1.396 . S
C1210 C1215 1.390 . S
C1211 C1205 1.465 . S
C1211 C1210 1.396 . S
C1211 C1212 1.399 . S
C1212 H1198 0.929 . S
C1212 C1211 1.399 . S
C1212 C1213 1.385 . S
C1213 H1199 0.931 . S
C1213 C1212 1.385 . S
C1213 C1214 1.389 . S
C1214 C1213 1.389 . S
C1214 C1215 1.387 . S
C1215 H1200 0.930 . S
C1215 C1210 1.390 . S
C1215 C1214 1.387 . S
H1216 C1228 0.930 . S
H1217 C1230 0.930 . S
H1218 C1231 0.930 . S
H1219 C1235 0.959 . S
H1220 C1235 0.959 . S
H1221 C1235 0.961 . S
H1222 C1236 0.960 . S
H1223 C1236 0.961 . S
H1224 C1236 0.959 . S
H1225 C1239 0.929 . S
H1226 C1240 0.931 . S
H1227 C1242 0.930 . S
C1228 H1216 0.930 . S
C1228 C1229 1.399 . S
C1228 C1233 1.399 1_554 S
C1229 C1228 1.399 . S
C1229 C1230 1.376 . S
C1230 H1217 0.930 . S
C1230 C1229 1.376 . S
C1230 C1231 1.388 1_554 S
C1231 H1218 0.930 . S
C1231 C1230 1.388 1_556 S
C1231 C1232 1.390 . S
C1232 C1231 1.390 . S
C1232 C1233 1.394 . S
C1232 C1238 1.465 . S
C1233 C1228 1.399 1_556 S
C1233 C1232 1.394 . S
C1233 C1234 1.516 . S
C1234 C1233 1.516 . S
C1234 C1235 1.502 . S
C1234 C1236 1.561 . S
C1234 C1237 1.526 . S
C1235 H1219 0.959 . S
C1235 H1220 0.959 . S
C1235 H1221 0.961 . S
C1235 C1234 1.502 . S
C1236 H1222 0.960 . S
C1236 H1223 0.961 . S
C1236 H1224 0.959 . S
C1236 C1234 1.561 . S
C1237 C1234 1.526 . S
C1237 C1238 1.396 . S
C1237 C1242 1.390 . S
C1238 C1232 1.465 . S
C1238 C1237 1.396 . S
C1238 C1239 1.399 . S
C1239 H1225 0.929 . S
C1239 C1238 1.399 . S
C1239 C1240 1.385 . S
C1240 H1226 0.931 . S
C1240 C1239 1.385 . S
C1240 C1241 1.389 . S
C1241 C1240 1.389 . S
C1241 C1242 1.387 . S
C1242 H1227 0.930 . S
C1242 C1237 1.390 . S
C1242 C1241 1.387 . S
H1243 C1255 0.930 . S
H1244 C1257 0.930 . S
H1245 C1258 0.930 . S
H1246 C1262 0.959 . S
H1247 C1262 0.959 . S
H1248 C1262 0.961 . S
H1249 C1263 0.960 . S
H1250 C1263 0.961 . S
H1251 C1263 0.959 . S
H1252 C1266 0.929 . S
H1253 C1267 0.931 . S
H1254 C1269 0.930 . S
C1255 H1243 0.930 . S
C1255 C1256 1.399 . S
C1255 C1260 1.399 . S
C1256 C1255 1.399 . S
C1256 C1257 1.376 . S
C1257 H1244 0.930 . S
C1257 C1256 1.376 . S
C1257 C1258 1.388 . S
C1258 H1245 0.930 . S
C1258 C1257 1.388 . S
C1258 C1259 1.390 . S
C1259 C1258 1.390 . S
C1259 C1260 1.394 . S
C1259 C1265 1.465 . S
C1260 C1255 1.399 . S
C1260 C1259 1.394 . S
C1260 C1261 1.516 . S
C1261 C1260 1.516 . S
C1261 C1262 1.502 . S
C1261 C1263 1.561 . S
C1261 C1264 1.526 . S
C1262 H1246 0.959 . S
C1262 H1247 0.959 . S
C1262 H1248 0.961 . S
C1262 C1261 1.502 . S
C1263 H1249 0.960 . S
C1263 H1250 0.961 . S
C1263 H1251 0.959 . S
C1263 C1261 1.561 . S
C1264 C1261 1.526 . S
C1264 C1265 1.396 . S
C1264 C1269 1.390 . S
C1265 C1259 1.465 . S
C1265 C1264 1.396 . S
C1265 C1266 1.399 . S
C1266 H1252 0.929 . S
C1266 C1265 1.399 . S
C1266 C1267 1.385 . S
C1267 H1253 0.931 . S
C1267 C1266 1.385 . S
C1267 C1268 1.389 . S
C1268 C1267 1.389 . S
C1268 C1269 1.387 . S
C1269 H1254 0.930 . S
C1269 C1264 1.390 . S
C1269 C1268 1.387 . S
H1270 C1282 0.930 . S
H1271 C1284 0.930 . S
H1272 C1285 0.930 . S
H1273 C1289 0.959 . S
H1274 C1289 0.959 . S
H1275 C1289 0.961 . S
H1276 C1290 0.960 . S
H1277 C1290 0.961 . S
H1278 C1290 0.959 . S
H1279 C1293 0.929 . S
H1280 C1294 0.931 . S
H1281 C1296 0.930 . S
C1282 H1270 0.930 . S
C1282 C1283 1.399 . S
C1282 C1287 1.399 . S
C1283 C1282 1.399 . S
C1283 C1284 1.376 . S
C1284 H1271 0.930 . S
C1284 C1283 1.376 . S
C1284 C1285 1.388 . S
C1285 H1272 0.930 . S
C1285 C1284 1.388 . S
C1285 C1286 1.390 . S
C1286 C1285 1.390 . S
C1286 C1287 1.394 . S
C1286 C1292 1.465 . S
C1287 C1282 1.399 . S
C1287 C1286 1.394 . S
C1287 C1288 1.516 . S
C1288 C1287 1.516 . S
C1288 C1289 1.502 . S
C1288 C1290 1.561 . S
C1288 C1291 1.526 . S
C1289 H1273 0.959 . S
C1289 H1274 0.959 . S
C1289 H1275 0.961 . S
C1289 C1288 1.502 . S
C1290 H1276 0.960 . S
C1290 H1277 0.961 . S
C1290 H1278 0.959 . S
C1290 C1288 1.561 . S
C1291 C1288 1.526 . S
C1291 C1292 1.396 . S
C1291 C1296 1.390 . S
C1292 C1286 1.465 . S
C1292 C1291 1.396 . S
C1292 C1293 1.399 . S
C1293 H1279 0.929 . S
C1293 C1292 1.399 . S
C1293 C1294 1.385 . S
C1294 H1280 0.931 . S
C1294 C1293 1.385 . S
C1294 C1295 1.389 . S
C1295 C1294 1.389 . S
C1295 C1296 1.387 . S
C1296 H1281 0.930 . S
C1296 C1291 1.390 . S
C1296 C1295 1.387 . S
H1297 C1309 0.930 . S
H1298 C1311 0.930 . S
H1299 C1312 0.930 . S
H1300 C1316 0.959 . S
H1301 C1316 0.959 . S
H1302 C1316 0.961 . S
H1303 C1317 0.960 . S
H1304 C1317 0.961 . S
H1305 C1317 0.959 . S
H1306 C1320 0.929 . S
H1307 C1321 0.931 . S
H1308 C1323 0.930 . S
C1309 H1297 0.930 . S
C1309 C1310 1.399 . S
C1309 C1314 1.399 . S
C1310 C1309 1.399 . S
C1310 C1311 1.376 . S
C1311 H1298 0.930 . S
C1311 C1310 1.376 . S
C1311 C1312 1.388 . S
C1312 H1299 0.930 . S
C1312 C1311 1.388 . S
C1312 C1313 1.390 . S
C1313 C1312 1.390 . S
C1313 C1314 1.394 . S
C1313 C1319 1.465 . S
C1314 C1309 1.399 . S
C1314 C1313 1.394 . S
C1314 C1315 1.516 . S
C1315 C1314 1.516 . S
C1315 C1316 1.502 . S
C1315 C1317 1.561 . S
C1315 C1318 1.526 . S
C1316 H1300 0.959 . S
C1316 H1301 0.959 . S
C1316 H1302 0.961 . S
C1316 C1315 1.502 . S
C1317 H1303 0.960 . S
C1317 H1304 0.961 . S
C1317 H1305 0.959 . S
C1317 C1315 1.561 . S
C1318 C1315 1.526 . S
C1318 C1319 1.396 . S
C1318 C1323 1.390 . S
C1319 C1313 1.465 . S
C1319 C1318 1.396 . S
C1319 C1320 1.399 . S
C1320 H1306 0.929 . S
C1320 C1319 1.399 . S
C1320 C1321 1.385 . S
C1321 H1307 0.931 . S
C1321 C1320 1.385 . S
C1321 C1322 1.389 . S
C1322 C1321 1.389 . S
C1322 C1323 1.387 . S
C1323 H1308 0.930 . S
C1323 C1318 1.390 . S
C1323 C1322 1.387 . S
H1324 C1336 0.930 . S
H1325 C1338 0.930 . S
H1326 C1339 0.930 . S
H1327 C1343 0.959 . S
H1328 C1343 0.959 . S
H1329 C1343 0.961 . S
H1330 C1344 0.960 . S
H1331 C1344 0.961 . S
H1332 C1344 0.959 . S
H1333 C1347 0.929 . S
H1334 C1348 0.931 . S
H1335 C1350 0.930 . S
C1336 H1324 0.930 . S
C1336 C1337 1.399 . S
C1336 C1341 1.399 . S
C1337 C1336 1.399 . S
C1337 C1338 1.376 . S
C1338 H1325 0.930 . S
C1338 C1337 1.376 . S
C1338 C1339 1.388 . S
C1339 H1326 0.930 . S
C1339 C1338 1.388 . S
C1339 C1340 1.390 . S
C1340 C1339 1.390 . S
C1340 C1341 1.394 . S
C1340 C1346 1.465 . S
C1341 C1336 1.399 . S
C1341 C1340 1.394 . S
C1341 C1342 1.516 . S
C1342 C1341 1.516 . S
C1342 C1343 1.502 . S
C1342 C1344 1.561 . S
C1342 C1345 1.526 . S
C1343 H1327 0.959 . S
C1343 H1328 0.959 . S
C1343 H1329 0.961 . S
C1343 C1342 1.502 . S
C1344 H1330 0.960 . S
C1344 H1331 0.961 . S
C1344 H1332 0.959 . S
C1344 C1342 1.561 . S
C1345 C1342 1.526 . S
C1345 C1346 1.396 . S
C1345 C1350 1.390 1_554 S
C1346 C1340 1.465 . S
C1346 C1345 1.396 . S
C1346 C1347 1.399 . S
C1347 H1333 0.929 . S
C1347 C1346 1.399 . S
C1347 C1348 1.385 1_554 S
C1348 H1334 0.931 . S
C1348 C1347 1.385 1_556 S
C1348 C1349 1.389 . S
C1349 C1348 1.389 . S
C1349 C1350 1.387 . S
C1350 H1335 0.930 . S
C1350 C1345 1.390 1_556 S
C1350 C1349 1.387 . S
H1351 C1363 0.930 . S
H1352 C1365 0.930 . S
H1353 C1366 0.930 . S
H1354 C1370 0.959 . S
H1355 C1370 0.959 . S
H1356 C1370 0.961 . S
H1357 C1371 0.960 . S
H1358 C1371 0.961 . S
H1359 C1371 0.959 . S
H1360 C1374 0.929 . S
H1361 C1375 0.931 . S
H1362 C1377 0.930 . S
C1363 H1351 0.930 . S
C1363 C1364 1.399 . S
C1363 C1368 1.399 . S
C1364 C1363 1.399 . S
C1364 C1365 1.376 . S
C1365 H1352 0.930 . S
C1365 C1364 1.376 . S
C1365 C1366 1.388 . S
C1366 H1353 0.930 . S
C1366 C1365 1.388 . S
C1366 C1367 1.390 . S
C1367 C1366 1.390 . S
C1367 C1368 1.394 . S
C1367 C1373 1.465 . S
C1368 C1363 1.399 . S
C1368 C1367 1.394 . S
C1368 C1369 1.516 . S
C1369 C1368 1.516 . S
C1369 C1370 1.502 . S
C1369 C1371 1.561 . S
C1369 C1372 1.526 . S
C1370 H1354 0.959 . S
C1370 H1355 0.959 . S
C1370 H1356 0.961 . S
C1370 C1369 1.502 . S
C1371 H1357 0.960 . S
C1371 H1358 0.961 . S
C1371 H1359 0.959 . S
C1371 C1369 1.561 . S
C1372 C1369 1.526 . S
C1372 C1373 1.396 . S
C1372 C1377 1.390 . S
C1373 C1367 1.465 . S
C1373 C1372 1.396 . S
C1373 C1374 1.399 . S
C1374 H1360 0.929 . S
C1374 C1373 1.399 . S
C1374 C1375 1.385 . S
C1375 H1361 0.931 . S
C1375 C1374 1.385 . S
C1375 C1376 1.389 . S
C1376 C1375 1.389 . S
C1376 C1377 1.387 . S
C1377 H1362 0.930 . S
C1377 C1372 1.390 . S
C1377 C1376 1.387 . S
H1378 C1390 0.930 . S
H1379 C1392 0.930 . S
H1380 C1393 0.930 . S
H1381 C1397 0.959 . S
H1382 C1397 0.959 . S
H1383 C1397 0.961 . S
H1384 C1398 0.960 . S
H1385 C1398 0.961 . S
H1386 C1398 0.959 . S
H1387 C1401 0.929 . S
H1388 C1402 0.931 . S
H1389 C1404 0.930 . S
C1390 H1378 0.930 . S
C1390 C1391 1.399 . S
C1390 C1395 1.399 . S
C1391 C1390 1.399 . S
C1391 C1392 1.376 . S
C1392 H1379 0.930 . S
C1392 C1391 1.376 . S
C1392 C1393 1.388 . S
C1393 H1380 0.930 . S
C1393 C1392 1.388 . S
C1393 C1394 1.390 . S
C1394 C1393 1.390 . S
C1394 C1395 1.394 . S
C1394 C1400 1.465 . S
C1395 C1390 1.399 . S
C1395 C1394 1.394 . S
C1395 C1396 1.516 . S
C1396 C1395 1.516 . S
C1396 C1397 1.502 . S
C1396 C1398 1.561 . S
C1396 C1399 1.526 . S
C1397 H1381 0.959 . S
C1397 H1382 0.959 . S
C1397 H1383 0.961 . S
C1397 C1396 1.502 . S
C1398 H1384 0.960 . S
C1398 H1385 0.961 . S
C1398 H1386 0.959 . S
C1398 C1396 1.561 . S
C1399 C1396 1.526 . S
C1399 C1400 1.396 . S
C1399 C1404 1.390 . S
C1400 C1394 1.465 . S
C1400 C1399 1.396 . S
C1400 C1401 1.399 . S
C1401 H1387 0.929 . S
C1401 C1400 1.399 . S
C1401 C1402 1.385 . S
C1402 H1388 0.931 . S
C1402 C1401 1.385 . S
C1402 C1403 1.389 . S
C1403 C1402 1.389 . S
C1403 C1404 1.387 . S
C1404 H1389 0.930 . S
C1404 C1399 1.390 . S
C1404 C1403 1.387 . S
H1405 C1417 0.930 . S
H1406 C1419 0.930 . S
H1407 C1420 0.930 . S
H1408 C1424 0.959 . S
H1409 C1424 0.959 . S
H1410 C1424 0.961 . S
H1411 C1425 0.960 . S
H1412 C1425 0.961 . S
H1413 C1425 0.959 . S
H1414 C1428 0.929 . S
H1415 C1429 0.931 . S
H1416 C1431 0.930 . S
C1417 H1405 0.930 . S
C1417 C1418 1.399 . S
C1417 C1422 1.399 . S
C1418 C1417 1.399 . S
C1418 C1419 1.376 . S
C1419 H1406 0.930 . S
C1419 C1418 1.376 . S
C1419 C1420 1.388 . S
C1420 H1407 0.930 . S
C1420 C1419 1.388 . S
C1420 C1421 1.390 . S
C1421 C1420 1.390 . S
C1421 C1422 1.394 . S
C1421 C1427 1.465 . S
C1422 C1417 1.399 . S
C1422 C1421 1.394 . S
C1422 C1423 1.516 . S
C1423 C1422 1.516 . S
C1423 C1424 1.502 . S
C1423 C1425 1.561 . S
C1423 C1426 1.526 . S
C1424 H1408 0.959 . S
C1424 H1409 0.959 . S
C1424 H1410 0.961 . S
C1424 C1423 1.502 . S
C1425 H1411 0.960 . S
C1425 H1412 0.961 . S
C1425 H1413 0.959 . S
C1425 C1423 1.561 . S
C1426 C1423 1.526 . S
C1426 C1427 1.396 . S
C1426 C1431 1.390 . S
C1427 C1421 1.465 . S
C1427 C1426 1.396 . S
C1427 C1428 1.399 . S
C1428 H1414 0.929 . S
C1428 C1427 1.399 . S
C1428 C1429 1.385 . S
C1429 H1415 0.931 . S
C1429 C1428 1.385 . S
C1429 C1430 1.389 . S
C1430 C1429 1.389 . S
C1430 C1431 1.387 . S
C1431 H1416 0.930 . S
C1431 C1426 1.390 . S
C1431 C1430 1.387 . S
H1432 C1444 0.930 . S
H1433 C1446 0.930 . S
H1434 C1447 0.930 . S
H1435 C1451 0.959 . S
H1436 C1451 0.959 . S
H1437 C1451 0.961 . S
H1438 C1452 0.960 . S
H1439 C1452 0.961 . S
H1440 C1452 0.959 . S
H1441 C1455 0.929 . S
H1442 C1456 0.931 . S
H1443 C1458 0.930 . S
C1444 H1432 0.930 . S
C1444 C1445 1.399 . S
C1444 C1449 1.399 . S
C1445 C1444 1.399 . S
C1445 C1446 1.376 . S
C1446 H1433 0.930 . S
C1446 C1445 1.376 . S
C1446 C1447 1.388 . S
C1447 H1434 0.930 . S
C1447 C1446 1.388 . S
C1447 C1448 1.390 . S
C1448 C1447 1.390 . S
C1448 C1449 1.394 . S
C1448 C1454 1.465 . S
C1449 C1444 1.399 . S
C1449 C1448 1.394 . S
C1449 C1450 1.516 . S
C1450 C1449 1.516 . S
C1450 C1451 1.502 . S
C1450 C1452 1.561 . S
C1450 C1453 1.526 . S
C1451 H1435 0.959 . S
C1451 H1436 0.959 . S
C1451 H1437 0.961 . S
C1451 C1450 1.502 . S
C1452 H1438 0.960 . S
C1452 H1439 0.961 . S
C1452 H1440 0.959 . S
C1452 C1450 1.561 . S
C1453 C1450 1.526 . S
C1453 C1454 1.396 . S
C1453 C1458 1.390 . S
C1454 C1448 1.465 . S
C1454 C1453 1.396 . S
C1454 C1455 1.399 . S
C1455 H1441 0.929 . S
C1455 C1454 1.399 . S
C1455 C1456 1.385 . S
C1456 H1442 0.931 . S
C1456 C1455 1.385 . S
C1456 C1457 1.389 . S
C1457 C1456 1.389 . S
C1457 C1458 1.387 . S
C1458 H1443 0.930 . S
C1458 C1453 1.390 . S
C1458 C1457 1.387 . S
H1459 C1471 0.930 . S
H1460 C1473 0.930 . S
H1461 C1474 0.930 . S
H1462 C1478 0.959 . S
H1463 C1478 0.959 . S
H1464 C1478 0.961 . S
H1465 C1479 0.960 . S
H1466 C1479 0.961 . S
H1467 C1479 0.959 . S
H1468 C1482 0.929 . S
H1469 C1483 0.931 . S
H1470 C1485 0.930 . S
C1471 H1459 0.930 . S
C1471 C1472 1.399 . S
C1471 C1476 1.399 . S
C1472 C1471 1.399 . S
C1472 C1473 1.376 . S
C1473 H1460 0.930 . S
C1473 C1472 1.376 . S
C1473 C1474 1.388 . S
C1474 H1461 0.930 . S
C1474 C1473 1.388 . S
C1474 C1475 1.390 . S
C1475 C1474 1.390 . S
C1475 C1476 1.394 . S
C1475 C1481 1.465 . S
C1476 C1471 1.399 . S
C1476 C1475 1.394 . S
C1476 C1477 1.516 1_565 S
C1477 C1476 1.516 1_545 S
C1477 C1478 1.502 . S
C1477 C1479 1.561 . S
C1477 C1480 1.526 . S
C1478 H1462 0.959 . S
C1478 H1463 0.959 . S
C1478 H1464 0.961 . S
C1478 C1477 1.502 . S
C1479 H1465 0.960 . S
C1479 H1466 0.961 . S
C1479 H1467 0.959 . S
C1479 C1477 1.561 . S
C1480 C1477 1.526 . S
C1480 C1481 1.396 1_545 S
C1480 C1485 1.390 . S
C1481 C1475 1.465 . S
C1481 C1480 1.396 1_565 S
C1481 C1482 1.399 . S
C1482 H1468 0.929 . S
C1482 C1481 1.399 . S
C1482 C1483 1.385 . S
C1483 H1469 0.931 . S
C1483 C1482 1.385 . S
C1483 C1484 1.389 1_565 S
C1484 C1483 1.389 1_545 S
C1484 C1485 1.387 . S
C1485 H1470 0.930 . S
C1485 C1480 1.390 . S
C1485 C1484 1.387 . S
H1486 C1498 0.930 . S
H1487 C1500 0.930 . S
H1488 C1501 0.930 . S
H1489 C1505 0.959 . S
H1490 C1505 0.959 . S
H1491 C1505 0.961 . S
H1492 C1506 0.960 . S
H1493 C1506 0.961 . S
H1494 C1506 0.959 . S
H1495 C1509 0.929 . S
H1496 C1510 0.931 . S
H1497 C1512 0.930 . S
C1498 H1486 0.930 . S
C1498 C1499 1.399 . S
C1498 C1503 1.399 . S
C1499 C1498 1.399 . S
C1499 C1500 1.376 . S
C1500 H1487 0.930 . S
C1500 C1499 1.376 . S
C1500 C1501 1.388 . S
C1501 H1488 0.930 . S
C1501 C1500 1.388 . S
C1501 C1502 1.390 . S
C1502 C1501 1.390 . S
C1502 C1503 1.394 . S
C1502 C1508 1.465 . S
C1503 C1498 1.399 . S
C1503 C1502 1.394 . S
C1503 C1504 1.516 . S
C1504 C1503 1.516 . S
C1504 C1505 1.502 . S
C1504 C1506 1.561 . S
C1504 C1507 1.526 . S
C1505 H1489 0.959 . S
C1505 H1490 0.959 . S
C1505 H1491 0.961 . S
C1505 C1504 1.502 . S
C1506 H1492 0.960 . S
C1506 H1493 0.961 . S
C1506 H1494 0.959 . S
C1506 C1504 1.561 . S
C1507 C1504 1.526 . S
C1507 C1508 1.396 . S
C1507 C1512 1.390 1_556 S
C1508 C1502 1.465 . S
C1508 C1507 1.396 . S
C1508 C1509 1.399 . S
C1509 H1495 0.929 . S
C1509 C1508 1.399 . S
C1509 C1510 1.385 1_556 S
C1510 H1496 0.931 . S
C1510 C1509 1.385 1_554 S
C1510 C1511 1.389 . S
C1511 C1510 1.389 . S
C1511 C1512 1.387 . S
C1512 H1497 0.930 . S
C1512 C1507 1.390 1_554 S
C1512 C1511 1.387 . S
H1513 C1525 0.930 . S
H1514 C1527 0.930 . S
H1515 C1528 0.930 . S
H1516 C1532 0.959 . S
H1517 C1532 0.959 . S
H1518 C1532 0.961 . S
H1519 C1533 0.960 . S
H1520 C1533 0.961 . S
H1521 C1533 0.959 . S
H1522 C1536 0.923 1_565 S
H1523 C1537 0.931 . S
H1524 C1539 0.930 . S
C1525 H1513 0.930 . S
C1525 C1526 1.399 1_545 S
C1525 C1530 1.399 . S
C1526 C1525 1.399 1_565 S
C1526 C1527 1.376 . S
C1527 H1514 0.930 . S
C1527 C1526 1.376 . S
C1527 C1528 1.388 . S
C1528 H1515 0.930 . S
C1528 C1527 1.388 . S
C1528 C1529 1.390 . S
C1529 C1528 1.390 . S
C1529 C1530 1.394 1_565 S
C1529 C1535 1.465 1_565 S
C1530 C1525 1.399 . S
C1530 C1529 1.394 1_545 S
C1530 C1531 1.516 . S
C1531 C1530 1.516 . S
C1531 C1532 1.502 . S
C1531 C1533 1.561 . S
C1531 C1534 1.526 . S
C1532 H1516 0.959 . S
C1532 H1517 0.959 . S
C1532 H1518 0.961 . S
C1532 C1531 1.502 . S
C1533 H1519 0.960 . S
C1533 H1520 0.961 . S
C1533 H1521 0.959 . S
C1533 C1531 1.561 . S
C1534 C1531 1.526 . S
C1534 C1535 1.396 . S
C1534 C1539 1.390 . S
C1535 C1529 1.465 1_545 S
C1535 C1534 1.396 . S
C1535 C1536 1.401 . S
C1536 H1522 0.923 1_545 S
C1536 C1535 1.401 . S
C1536 C1537 1.389 . S
C1537 H1523 0.931 . S
C1537 C1536 1.389 . S
C1537 C1538 1.389 . S
C1538 C1537 1.389 . S
C1538 C1539 1.387 . S
C1539 H1524 0.930 . S
C1539 C1534 1.390 . S
C1539 C1538 1.387 . S
H1540 C1552 0.930 . S
H1541 C1554 0.930 . S
H1542 C1555 0.930 . S
H1543 C1559 0.959 . S
H1544 C1559 0.959 . S
H1545 C1559 0.961 . S
H1546 C1560 0.960 . S
H1547 C1560 0.961 . S
H1548 C1560 0.959 . S
H1549 C1563 0.929 . S
H1550 C1564 0.931 . S
H1551 C1566 0.930 . S
C1552 H1540 0.930 . S
C1552 C1553 1.399 . S
C1552 C1557 1.399 . S
C1553 C1552 1.399 . S
C1553 C1554 1.376 . S
C1554 H1541 0.930 . S
C1554 C1553 1.376 . S
C1554 C1555 1.388 . S
C1555 H1542 0.930 . S
C1555 C1554 1.388 . S
C1555 C1556 1.390 . S
C1556 C1555 1.390 . S
C1556 C1557 1.394 . S
C1556 C1562 1.465 . S
C1557 C1552 1.399 . S
C1557 C1556 1.394 . S
C1557 C1558 1.516 . S
C1558 C1557 1.516 . S
C1558 C1559 1.502 . S
C1558 C1560 1.561 . S
C1558 C1561 1.526 . S
C1559 H1543 0.959 . S
C1559 H1544 0.959 . S
C1559 H1545 0.961 . S
C1559 C1558 1.502 . S
C1560 H1546 0.960 . S
C1560 H1547 0.961 . S
C1560 H1548 0.959 . S
C1560 C1558 1.561 . S
C1561 C1558 1.526 . S
C1561 C1562 1.396 . S
C1561 C1566 1.390 . S
C1562 C1556 1.465 . S
C1562 C1561 1.396 . S
C1562 C1563 1.399 . S
C1563 H1549 0.929 . S
C1563 C1562 1.399 . S
C1563 C1564 1.385 . S
C1564 H1550 0.931 . S
C1564 C1563 1.385 . S
C1564 C1565 1.389 . S
C1565 C1564 1.389 . S
C1565 C1566 1.387 . S
C1566 H1551 0.930 . S
C1566 C1561 1.390 . S
C1566 C1565 1.387 . S
H1567 C1579 0.930 . S
H1568 C1581 0.930 . S
H1569 C1582 0.930 . S
H1570 C1586 0.959 . S
H1571 C1586 0.959 . S
H1572 C1586 0.961 . S
H1573 C1587 0.960 . S
H1574 C1587 0.961 . S
H1575 C1587 0.959 . S
H1576 C1590 0.929 . S
H1577 C1591 0.931 . S
H1578 C1593 0.930 . S
C1579 H1567 0.930 . S
C1579 C1580 1.399 . S
C1579 C1584 1.399 . S
C1580 C1579 1.399 . S
C1580 C1581 1.376 . S
C1581 H1568 0.930 . S
C1581 C1580 1.376 . S
C1581 C1582 1.388 . S
C1582 H1569 0.930 . S
C1582 C1581 1.388 . S
C1582 C1583 1.390 . S
C1583 C1582 1.390 . S
C1583 C1584 1.394 . S
C1583 C1589 1.465 . S
C1584 C1579 1.399 . S
C1584 C1583 1.394 . S
C1584 C1585 1.516 1_545 S
C1585 C1584 1.516 1_565 S
C1585 C1586 1.502 . S
C1585 C1587 1.561 . S
C1585 C1588 1.526 . S
C1586 H1570 0.959 . S
C1586 H1571 0.959 . S
C1586 H1572 0.961 . S
C1586 C1585 1.502 . S
C1587 H1573 0.960 . S
C1587 H1574 0.961 . S
C1587 H1575 0.959 . S
C1587 C1585 1.561 . S
C1588 C1585 1.526 . S
C1588 C1589 1.396 1_565 S
C1588 C1593 1.390 . S
C1589 C1583 1.465 . S
C1589 C1588 1.396 1_545 S
C1589 C1590 1.399 . S
C1590 H1576 0.929 . S
C1590 C1589 1.399 . S
C1590 C1591 1.385 . S
C1591 H1577 0.931 . S
C1591 C1590 1.385 . S
C1591 C1592 1.389 1_545 S
C1592 C1591 1.389 1_565 S
C1592 C1593 1.387 . S
C1593 H1578 0.930 . S
C1593 C1588 1.390 . S
C1593 C1592 1.387 . S
H1594 C1606 0.930 . S
H1595 C1608 0.930 . S
H1596 C1609 0.930 . S
H1597 C1613 0.959 . S
H1598 C1613 0.959 . S
H1599 C1613 0.961 . S
H1600 C1614 0.960 . S
H1601 C1614 0.961 . S
H1602 C1614 0.959 . S
H1603 C1617 0.929 . S
H1604 C1618 0.931 . S
H1605 C1620 0.930 . S
C1606 H1594 0.930 . S
C1606 C1607 1.399 . S
C1606 C1611 1.399 . S
C1607 C1606 1.399 . S
C1607 C1608 1.376 . S
C1608 H1595 0.930 . S
C1608 C1607 1.376 . S
C1608 C1609 1.388 . S
C1609 H1596 0.930 . S
C1609 C1608 1.388 . S
C1609 C1610 1.390 . S
C1610 C1609 1.390 . S
C1610 C1611 1.394 . S
C1610 C1616 1.465 . S
C1611 C1606 1.399 . S
C1611 C1610 1.394 . S
C1611 C1612 1.516 . S
C1612 C1611 1.516 . S
C1612 C1613 1.502 . S
C1612 C1614 1.561 . S
C1612 C1615 1.526 . S
C1613 H1597 0.959 . S
C1613 H1598 0.959 . S
C1613 H1599 0.961 . S
C1613 C1612 1.502 . S
C1614 H1600 0.960 . S
C1614 H1601 0.961 . S
C1614 H1602 0.959 . S
C1614 C1612 1.561 . S
C1615 C1612 1.526 . S
C1615 C1616 1.396 . S
C1615 C1620 1.390 1_554 S
C1616 C1610 1.465 . S
C1616 C1615 1.396 . S
C1616 C1617 1.399 . S
C1617 H1603 0.929 . S
C1617 C1616 1.399 . S
C1617 C1618 1.385 1_554 S
C1618 H1604 0.931 . S
C1618 C1617 1.385 1_556 S
C1618 C1619 1.389 . S
C1619 C1618 1.389 . S
C1619 C1620 1.387 . S
C1620 H1605 0.930 . S
C1620 C1615 1.390 1_556 S
C1620 C1619 1.387 . S
H1621 C1633 0.930 . S
H1622 C1635 0.930 . S
H1623 C1636 0.930 . S
H1624 C1640 0.959 . S
H1625 C1640 0.959 . S
H1626 C1640 0.961 . S
H1627 C1641 0.960 . S
H1628 C1641 0.961 . S
H1629 C1641 0.959 . S
H1630 C1644 0.929 . S
H1631 C1645 0.931 . S
H1632 C1647 0.930 . S
C1633 H1621 0.930 . S
C1633 C1634 1.399 . S
C1633 C1638 1.399 . S
C1634 C1633 1.399 . S
C1634 C1635 1.376 . S
C1635 H1622 0.930 . S
C1635 C1634 1.376 . S
C1635 C1636 1.388 . S
C1636 H1623 0.930 . S
C1636 C1635 1.388 . S
C1636 C1637 1.390 . S
C1637 C1636 1.390 . S
C1637 C1638 1.394 . S
C1637 C1643 1.465 . S
C1638 C1633 1.399 . S
C1638 C1637 1.394 . S
C1638 C1639 1.516 . S
C1639 C1638 1.516 . S
C1639 C1640 1.502 . S
C1639 C1641 1.561 1_565 S
C1639 C1642 1.526 . S
C1640 H1624 0.959 . S
C1640 H1625 0.959 . S
C1640 H1626 0.961 . S
C1640 C1639 1.502 . S
C1641 H1627 0.960 . S
C1641 H1628 0.961 . S
C1641 H1629 0.959 . S
C1641 C1639 1.561 1_545 S
C1642 C1639 1.526 . S
C1642 C1643 1.396 . S
C1642 C1647 1.390 1_565 S
C1643 C1637 1.465 . S
C1643 C1642 1.396 . S
C1643 C1644 1.399 1_565 S
C1644 H1630 0.929 . S
C1644 C1643 1.399 1_545 S
C1644 C1645 1.385 . S
C1645 H1631 0.931 . S
C1645 C1644 1.385 . S
C1645 C1646 1.389 . S
C1646 C1645 1.389 . S
C1646 C1647 1.387 . S
C1647 H1632 0.930 . S
C1647 C1642 1.390 1_545 S
C1647 C1646 1.387 . S
C365 C15 0.655 . S
C377 C241 0.703 . S
C392 C32 0.564 . S
C404 C263 0.567 . S
C419 C65 0.628 . S
C431 C197 0.594 . S
C446 C216 0.564 . S
C458 C81 0.567 . S
C473 C103 0.721 . S
C485 C323 0.705 . S
C500 C345 0.609 . S
C512 C117 0.621 . S
C527 C285 0.726 . S
C539 C153 0.712 . S
C554 C169 0.714 . S
C566 C301 0.704 . S
C581 C7 2.090 . S
C593 C95 2.102 . S
C608 C30 2.068 . S
C620 C293 2.034 . S
C635 C59 2.103 . S
C647 C147 2.114 . S
C662 C73 2.075 . S
C674 C337 2.103 . S
C689 C131 2.055 . S
C701 C208 2.058 . S
C716 C257 2.095 . S
C728 C161 2.088 . S
C743 C279 2.091 . S
C755 C191 2.101 . S
C770 C235 2.124 . S
C782 C315 2.101 . S
C797 C10 1.784 . S
C809 C162 1.772 . S
C824 C37 1.815 . S
C836 C282 1.817 . S
C851 C52 1.777 . S
C863 C120 1.762 . S
C878 C76 1.785 1_455 S
C890 C316 1.783 . S
C905 C74 1.753 . S
C917 C98 1.732 . S
C932 C128 1.733 . S
C944 C194 1.745 . S
C959 C140 1.798 . S
C971 C29 1.785 . S
C986 C238 1.767 . S
C998 C164 1.784 1_655 S
C1013 C184 1.754 . S
C1025 C338 1.763 . S
C1040 C96 1.825 . S
C1052 C205 1.816 1_655 S
C1067 C294 1.750 . S
C1079 C228 1.749 . S
C1094 C150 1.745 . S
C1106 C250 1.755 . S
C1121 C272 1.753 . S
C1133 C260 1.757 . S
C1148 C296 1.765 1_455 S
C1160 C8 1.766 . S
C1175 C219 1.781 . S
C1187 C318 1.824 . S
C1202 C340 1.771 . S
C1214 C62 1.782 . S
C1229 C18 0.872 . S
C1241 C206 0.859 . S
C1256 C227 0.884 . S
C1268 C43 0.980 . S
C1283 C54 0.919 . S
C1295 C249 0.933 . S
C1310 C183 0.858 . S
C1322 C84 0.881 . S
C1337 C307 0.901 . S
C1349 C106 0.901 . S
C1364 C329 0.957 . S
C1376 C118 0.887 . S
C1391 C351 0.911 . S
C1403 C142 0.905 . S
C1418 C271 0.874 . S
C1430 C172 0.905 . S
C1445 C40 0.791 . S
C1457 C186 0.882 . S
C1472 C51 0.961 . S
C1484 C213 0.968 . S
C1499 C87 0.824 . S
C1511 C230 0.935 . S
C1526 C252 0.870 . S
C1538 C21 0.941 . S
C1553 C125 0.892 . S
C1565 C274 0.896 . S
C1580 C139 0.825 . S
C1592 C304 0.937 . S
C1607 C175 0.955 . S
C1619 C326 0.885 . S
C1634 C109 0.848 . S
C1646 C348 0.914 . S
