# Generated by pormake.
# Topology qtz-e, (6)-cn, num edge types: 1
# Building blocks:
#     Node 0, Type 0, BuildingBlock: KUMBUR_clean_sbu_0, # of connection points: 6
#     Node 1, Type 0, BuildingBlock: KUMBUR_clean_sbu_0, # of connection points: 6
#     Node 2, Type 0, BuildingBlock: KUMBUR_clean_sbu_0, # of connection points: 6
#     Node 3, Type 0, BuildingBlock: KUMBUR_clean_sbu_0, # of connection points: 6
#     Node 4, Type 0, BuildingBlock: KUMBUR_clean_sbu_0, # of connection points: 6
#     Node 5, Type 0, BuildingBlock: KUMBUR_clean_sbu_0, # of connection points: 6
#     Edge 6, Type (0, 0), BuildingBlock: UVAHIK_clean_linker_0, # of connection points: 2
#     Edge 7, Type (0, 0), BuildingBlock: UVAHIK_clean_linker_0, # of connection points: 2
#     Edge 8, Type (0, 0), BuildingBlock: UVAHIK_clean_linker_0, # of connection points: 2
#     Edge 9, Type (0, 0), BuildingBlock: UVAHIK_clean_linker_0, # of connection points: 2
#     Edge 10, Type (0, 0), BuildingBlock: UVAHIK_clean_linker_0, # of connection points: 2
#     Edge 11, Type (0, 0), BuildingBlock: UVAHIK_clean_linker_0, # of connection points: 2
#     Edge 12, Type (0, 0), BuildingBlock: UVAHIK_clean_linker_0, # of connection points: 2
#     Edge 13, Type (0, 0), BuildingBlock: UVAHIK_clean_linker_0, # of connection points: 2
#     Edge 14, Type (0, 0), BuildingBlock: UVAHIK_clean_linker_0, # of connection points: 2
#     Edge 15, Type (0, 0), BuildingBlock: UVAHIK_clean_linker_0, # of connection points: 2
#     Edge 16, Type (0, 0), BuildingBlock: UVAHIK_clean_linker_0, # of connection points: 2
#     Edge 17, Type (0, 0), BuildingBlock: UVAHIK_clean_linker_0, # of connection points: 2
#     Edge 18, Type (0, 0), BuildingBlock: UVAHIK_clean_linker_0, # of connection points: 2
#     Edge 19, Type (0, 0), BuildingBlock: UVAHIK_clean_linker_0, # of connection points: 2
#     Edge 20, Type (0, 0), BuildingBlock: UVAHIK_clean_linker_0, # of connection points: 2
#     Edge 21, Type (0, 0), BuildingBlock: UVAHIK_clean_linker_0, # of connection points: 2
#     Edge 22, Type (0, 0), BuildingBlock: UVAHIK_clean_linker_0, # of connection points: 2
#     Edge 23, Type (0, 0), BuildingBlock: UVAHIK_clean_linker_0, # of connection points: 2
# Relax obj value: 0.056
# Max RMSD: 0.138
# Mean RMSD: 0.138
data_MOF--net-qtz-e--node1-KUMBUR_clean_sbu_0--edge1-UVAHIK_clean_linker_0
_symmetry_space_group_name_H-M    P1
_symmetry_Int_Tables_number       1
_symmetry_cell_setting            triclinic
loop_
_symmetry_equiv_pos_as_xyz
'x, y, z'
_cell_length_a     37.450045
_cell_length_b     37.433362
_cell_length_c     56.423041
_cell_angle_alpha  90.01863
_cell_angle_beta   90.011729
_cell_angle_gamma 119.92413
loop_
_atom_site_label
_atom_site_type_symbol
_atom_site_fract_x
_atom_site_fract_y
_atom_site_fract_z
_atom_type_partial_charge
Tb0 Tb 0.25098 0.47378 0.03494 0.0
C1 C 0.10302 0.30173 0.01433 0.0
C2 C 0.10583 0.262 0.04722 0.0
C3 C 0.04002 0.24276 0.02874 0.0
C4 C 0.1254 0.29538 0.03135 0.0
C5 C 0.06022 0.27487 0.01227 0.0
C6 C 0.06283 0.23639 0.04626 0.0
C7 C 0.06163 0.31089 0.97647 0.0
N8 N 0.12385 0.33272 0.99873 0.0
C9 C 0.10415 0.33661 0.97931 0.0
C10 C 0.03941 0.28026 0.99323 0.0
Tb11 Tb 0.19302 0.37478 1.00507 0.0
N12 N 0.1668 0.32048 0.03131 0.0
C13 C 0.19091 0.31161 0.0456 0.0
C14 C 0.13023 0.25457 0.06296 0.0
C15 C 0.17302 0.27906 0.06184 0.0
H16 H 0.12103 0.36043 0.96637 0.0
H17 H 0.19229 0.27303 0.07356 0.0
H18 H 0.04714 0.21084 0.05846 0.0
H19 H 0.04604 0.31478 0.96138 0.0
H20 H 0.224 0.3302 0.04525 0.0
H21 H 0.26024 0.58781 0.9724 0.0
H22 H 0.11645 0.22933 0.07551 0.0
H23 H 0.32191 0.4766 0.0713 0.0
H24 H 0.22499 0.52701 0.99811 0.0
H25 H 0.39767 0.51593 0.07533 0.0
H26 H 0.00706 0.22203 0.02766 0.0
H27 H 0.3363 0.62636 0.97006 0.0
H28 H 0.40404 0.63663 0.98512 0.0
H29 H 0.00652 0.26026 0.99096 0.0
H30 H 0.44165 0.61716 0.01332 0.0
N31 N 0.28041 0.52982 0.01007 0.0
C32 C 0.25819 0.54334 0.99747 0.0
C33 C 0.32101 0.59961 0.98147 0.0
C34 C 0.3437 0.58734 0.99558 0.0
C35 C 0.27808 0.57799 0.98281 0.0
C36 C 0.32222 0.55224 0.01007 0.0
H37 H 0.4395 0.57246 0.04732 0.0
N38 N 0.32094 0.50962 0.04081 0.0
C39 C 0.38277 0.52346 0.06134 0.0
C40 C 0.34326 0.54191 0.02613 0.0
C41 C 0.33985 0.50131 0.05904 0.0
C42 C 0.40628 0.55527 0.04545 0.0
C43 C 0.38651 0.56542 0.02785 0.0
O44 O 0.25713 0.493 0.0706 0.0
O45 O 0.20469 0.4093 0.03772 0.0
O46 O 0.14788 0.39531 0.01268 0.0
O47 O 0.19216 0.46527 0.02167 0.0
O48 O 0.24497 0.43389 0.06499 0.0
O49 O 0.22843 0.51286 0.04463 0.0
O50 O 0.194 0.3618 0.96871 0.0
O51 O 0.23624 0.43939 1.00255 0.0
O52 O 0.2949 0.45759 0.02123 0.0
O53 O 0.2541 0.38612 0.01832 0.0
O54 O 0.19585 0.41336 0.9751 0.0
O55 O 0.21832 0.33792 0.99466 0.0
C56 C 0.21266 0.40099 0.05799 0.0
C57 C 0.26702 0.56014 0.07476 0.0
C58 C 0.28523 0.61027 0.10645 0.0
C59 C 0.26338 0.56936 0.09844 0.0
C60 C 0.31147 0.6418 0.09097 0.0
C61 C 0.29302 0.59224 0.0594 0.0
C62 C 0.31545 0.63271 0.06754 0.0
C63 C 0.15515 0.4335 0.01684 0.0
C64 C 0.24248 0.51742 0.0662 0.0
C65 C 0.40836 0.59889 0.01245 0.0
C66 C 0.38695 0.60991 0.99636 0.0
C67 C 0.22654 0.44713 0.98264 0.0
C68 C 0.1945 0.30077 0.9585 0.0
C69 C 0.21509 0.29884 0.93791 0.0
C70 C 0.20008 0.26158 0.92506 0.0
C71 C 0.1638 0.22673 0.93303 0.0
C72 C 0.15841 0.26555 0.96589 0.0
C73 C 0.14317 0.22882 0.95317 0.0
C74 C 0.29049 0.42053 0.01967 0.0
C75 C 0.21121 0.33954 0.97219 0.0
H76 H 0.24271 0.54508 0.11036 0.0
H77 H 0.32823 0.67354 0.09695 0.0
H78 H 0.2955 0.5865 0.04101 0.0
H79 H 0.3353 0.65716 0.05552 0.0
H80 H 0.24312 0.32601 0.93221 0.0
H81 H 0.15105 0.1978 0.92351 0.0
H82 H 0.14213 0.26643 0.98155 0.0
H83 H 0.11524 0.20174 0.95898 0.0
Tb84 Tb 0.76584 0.23678 0.36614 0.0
C85 C 0.80795 0.10248 0.34516 0.0
C86 C 0.85117 0.10834 0.37843 0.0
C87 C 0.80886 0.04178 0.35957 0.0
C88 C 0.83557 0.12612 0.36243 0.0
C89 C 0.79505 0.06025 0.34302 0.0
C90 C 0.83685 0.06581 0.3773 0.0
C91 C 0.75937 0.05895 0.30705 0.0
N92 N 0.79581 0.12165 0.32947 0.0
C93 C 0.77328 0.10101 0.30991 0.0
C94 C 0.76983 0.03831 0.32387 0.0
Tb95 Tb 0.81838 0.19003 0.33606 0.0
N96 N 0.84891 0.16707 0.36263 0.0
C97 C 0.88033 0.19264 0.37743 0.0
C98 C 0.88158 0.13406 0.39454 0.0
C99 C 0.8967 0.1765 0.39375 0.0
H100 H 0.76487 0.11678 0.29695 0.0
H101 H 0.92082 0.19681 0.40581 0.0
H102 H 0.84812 0.05146 0.38959 0.0
H103 H 0.74065 0.04251 0.29189 0.0
H104 H 0.89222 0.22544 0.37731 0.0
H105 H 0.66353 0.24786 0.30236 0.0
H106 H 0.89431 0.12165 0.40719 0.0
H107 H 0.82705 0.3036 0.40679 0.0
H108 H 0.69121 0.21226 0.32589 0.0
H109 H 0.85532 0.37706 0.41627 0.0
H110 H 0.79898 0.00926 0.35841 0.0
H111 H 0.69276 0.32311 0.30641 0.0
H112 H 0.74185 0.38892 0.32731 0.0
H113 H 0.75924 0.0058 0.32156 0.0
H114 H 0.79393 0.42414 0.35847 0.0
N115 N 0.7374 0.26681 0.343 0.0
C116 C 0.70474 0.24508 0.32803 0.0
C117 C 0.70523 0.30763 0.31689 0.0
C118 C 0.73684 0.32936 0.33325 0.0
C119 C 0.68864 0.26518 0.31458 0.0
C120 C 0.75202 0.30769 0.34639 0.0
H121 H 0.83616 0.41988 0.39191 0.0
N122 N 0.7929 0.30466 0.37682 0.0
C123 C 0.83445 0.3635 0.40145 0.0
C124 C 0.78074 0.32732 0.36398 0.0
C125 C 0.81823 0.32175 0.39603 0.0
C126 C 0.82364 0.38758 0.38764 0.0
C127 C 0.79596 0.36942 0.36885 0.0
O128 O 0.74571 0.23362 0.40135 0.0
O129 O 0.79014 0.19511 0.3683 0.0
O130 O 0.75393 0.14085 0.34217 0.0
O131 O 0.72189 0.18043 0.34746 0.0
O132 O 0.7985 0.23089 0.3969 0.0
O133 O 0.70232 0.20432 0.37276 0.0
O134 O 0.83492 0.19174 0.30015 0.0
O135 O 0.79225 0.22938 0.33403 0.0
O136 O 0.82525 0.28684 0.35527 0.0
O137 O 0.86268 0.25259 0.35034 0.0
O138 O 0.78559 0.19418 0.30484 0.0
O139 O 0.8814 0.21947 0.32707 0.0
C140 C 0.80419 0.20194 0.38911 0.0
C141 C 0.68226 0.23242 0.40409 0.0
C142 C 0.64818 0.24434 0.43733 0.0
C143 C 0.67353 0.2298 0.42838 0.0
C144 C 0.6322 0.26231 0.42188 0.0
C145 C 0.66617 0.25065 0.38885 0.0
C146 C 0.64147 0.26569 0.39777 0.0
C147 C 0.72077 0.14516 0.343 0.0
C148 C 0.70711 0.2149 0.39503 0.0
C149 C 0.78241 0.39169 0.35514 0.0
C150 C 0.75282 0.37165 0.33738 0.0
C151 C 0.77841 0.22191 0.31321 0.0
C152 C 0.89897 0.1962 0.29212 0.0
C153 C 0.92213 0.21691 0.27176 0.0
C154 C 0.94663 0.20329 0.26007 0.0
C155 C 0.94677 0.16821 0.26894 0.0
C156 C 0.89982 0.16139 0.30047 0.0
C157 C 0.92351 0.14748 0.28887 0.0
C158 C 0.86024 0.28663 0.35345 0.0
C159 C 0.87425 0.21127 0.30453 0.0
H160 H 0.68548 0.21542 0.44022 0.0
H161 H 0.61262 0.27374 0.42851 0.0
H162 H 0.67208 0.2529 0.37006 0.0
H163 H 0.62912 0.27958 0.38592 0.0
H164 H 0.92171 0.24399 0.26535 0.0
H165 H 0.96469 0.1565 0.2603 0.0
H166 H 0.8823 0.14506 0.31598 0.0
H167 H 0.92394 0.12051 0.29541 0.0
Tb168 Tb 0.53591 0.77551 0.70207 0.0
C169 C 0.7069 0.80082 0.67855 0.0
C170 C 0.74784 0.84417 0.71089 0.0
C171 C 0.76669 0.79742 0.69217 0.0
C172 C 0.71377 0.82987 0.69548 0.0
C173 C 0.73387 0.78501 0.67614 0.0
C174 C 0.77363 0.82695 0.70958 0.0
C175 C 0.6965 0.74956 0.64083 0.0
N176 N 0.67525 0.79022 0.66336 0.0
C177 C 0.67076 0.76633 0.64398 0.0
C178 C 0.72785 0.75844 0.6572 0.0
Tb179 Tb 0.63309 0.81714 0.67031 0.0
N180 N 0.68846 0.84599 0.69579 0.0
C181 C 0.69767 0.87918 0.70997 0.0
C182 C 0.75571 0.87626 0.72652 0.0
C183 C 0.73093 0.89433 0.72575 0.0
H184 H 0.64639 0.75908 0.63134 0.0
H185 H 0.73727 0.91982 0.73738 0.0
H186 H 0.79971 0.83717 0.72143 0.0
H187 H 0.69211 0.72979 0.62581 0.0
H188 H 0.67884 0.89347 0.70989 0.0
H189 H 0.4188 0.67176 0.64067 0.0
H190 H 0.78148 0.88809 0.73872 0.0
H191 H 0.53551 0.84343 0.73974 0.0
H192 H 0.48132 0.69733 0.6649 0.0
H193 H 0.49576 0.87902 0.74599 0.0
H194 H 0.78754 0.78531 0.69081 0.0
H195 H 0.37879 0.70802 0.64101 0.0
H196 H 0.36821 0.76408 0.6582 0.0
H197 H 0.74789 0.74561 0.65467 0.0
H198 H 0.38903 0.82049 0.68704 0.0
N199 N 0.4781 0.7488 0.67862 0.0
C200 C 0.46439 0.71366 0.66542 0.0
C201 C 0.40633 0.71949 0.65177 0.0
C202 C 0.41889 0.75377 0.66649 0.0
C203 C 0.42877 0.6989 0.65158 0.0
C204 C 0.45502 0.76745 0.68008 0.0
H205 H 0.43641 0.86337 0.72007 0.0
N206 N 0.49988 0.80891 0.71003 0.0
C207 C 0.48718 0.85651 0.73194 0.0
C208 C 0.4662 0.79852 0.69646 0.0
C209 C 0.50959 0.83622 0.72837 0.0
C210 C 0.45376 0.84768 0.71723 0.0
C211 C 0.4424 0.81779 0.69949 0.0
O212 O 0.51882 0.76143 0.73795 0.0
O213 O 0.60066 0.79432 0.70351 0.0
O214 O 0.61348 0.75164 0.67768 0.0
O215 O 0.54389 0.7255 0.68769 0.0
O216 O 0.57727 0.80949 0.7316 0.0
O217 O 0.49857 0.71359 0.71142 0.0
O218 O 0.64521 0.8306 0.63385 0.0
O219 O 0.56829 0.79543 0.66907 0.0
O220 O 0.55026 0.83535 0.68883 0.0
O221 O 0.62149 0.86664 0.68386 0.0
O222 O 0.593 0.78134 0.64083 0.0
O223 O 0.66877 0.87916 0.65958 0.0
C224 C 0.60998 0.81055 0.72379 0.0
C225 C 0.45302 0.7027 0.74293 0.0
C226 C 0.40634 0.66884 0.77584 0.0
C227 C 0.4465 0.69048 0.76673 0.0
C228 C 0.37273 0.66048 0.76121 0.0
C229 C 0.41904 0.694 0.72847 0.0
C230 C 0.37918 0.67337 0.73766 0.0
C231 C 0.57566 0.72058 0.68225 0.0
C232 C 0.49509 0.72237 0.73333 0.0
C233 C 0.4076 0.80587 0.68513 0.0
C234 C 0.39579 0.77382 0.66869 0.0
C235 C 0.55956 0.77807 0.64913 0.0
C236 C 0.7058 0.8923 0.62346 0.0
C237 C 0.70772 0.91511 0.60301 0.0
C238 C 0.74501 0.9376 0.59026 0.0
C239 C 0.77989 0.93609 0.59817 0.0
C240 C 0.74108 0.89138 0.6308 0.0
C241 C 0.77782 0.91308 0.61816 0.0
C242 C 0.58692 0.86818 0.68637 0.0
C243 C 0.6671 0.87014 0.63716 0.0
H244 H 0.47246 0.69639 0.77791 0.0
H245 H 0.34154 0.64375 0.768 0.0
H246 H 0.42294 0.70222 0.71001 0.0
H247 H 0.3532 0.66668 0.72637 0.0
H248 H 0.68054 0.91606 0.59735 0.0
H249 H 0.80885 0.95247 0.58872 0.0
H250 H 0.74024 0.87407 0.64636 0.0
H251 H 0.80493 0.9122 0.62394 0.0
Tb252 Tb 0.76652 0.52922 0.03375 0.0
C253 C 0.90715 0.70186 0.01112 0.0
C254 C 0.90455 0.74205 0.04389 0.0
C255 C 0.97001 0.76188 0.02477 0.0
C256 C 0.88493 0.7082 0.02832 0.0
C257 C 0.94979 0.72914 1.00866 0.0
C258 C 0.94741 0.76829 0.0424 0.0
C259 C 0.94821 0.69196 0.9733 0.0
N260 N 0.88635 0.67019 0.99587 0.0
C261 C 0.90583 0.66591 0.97646 0.0
C262 C 0.97043 0.72341 0.98966 0.0
Tb263 Tb 0.81753 0.62772 1.00304 0.0
N264 N 0.84363 0.68239 0.02891 0.0
C265 C 0.81962 0.69062 0.04365 0.0
C266 C 0.88035 0.74916 0.05995 0.0
C267 C 0.83761 0.72371 0.05956 0.0
H268 H 0.88885 0.64144 0.96385 0.0
H269 H 0.81849 0.72938 0.07159 0.0
H270 H 0.96315 0.79423 0.05436 0.0
H271 H 0.96368 0.68777 0.95826 0.0
H272 H 0.78661 0.67118 0.04385 0.0
H273 H 0.74595 0.41211 0.97007 0.0
H274 H 0.8942 0.77474 0.07228 0.0
H275 H 0.70297 0.52811 0.07534 0.0
H276 H 0.78529 0.47494 0.99363 0.0
H277 H 0.62931 0.48721 0.08525 0.0
H278 H 1.00286 0.78298 0.02336 0.0
H279 H 0.67027 0.37053 0.9744 0.0
H280 H 0.60623 0.35862 0.99566 0.0
H281 H 1.00321 0.74369 0.98712 0.0
H282 H 0.5744 0.37897 0.02716 0.0
N283 N 0.7327 0.47071 0.01089 0.0
C284 C 0.75242 0.45753 0.99584 0.0
C285 C 0.68746 0.39829 0.98485 0.0
C286 C 0.66768 0.41033 1.00137 0.0
C287 C 0.73014 0.42163 0.98239 0.0
C288 C 0.69156 0.4468 0.01446 0.0
H289 H 0.58283 0.42673 0.06083 0.0
N290 N 0.69853 0.4921 0.04501 0.0
C291 C 0.64138 0.47866 0.07022 0.0
C292 C 0.67381 0.45782 0.03223 0.0
C293 C 0.68326 0.50179 0.06452 0.0
C294 C 0.61523 0.44461 0.05637 0.0
C295 C 0.63148 0.43335 0.03734 0.0
O296 O 0.76993 0.513 0.06907 0.0
O297 O 0.81096 0.59452 0.03552 0.0
O298 O 0.86442 0.60938 1.00986 0.0
O299 O 0.82201 0.5382 0.01521 0.0
O300 O 0.77488 0.56905 0.06427 0.0
O301 O 0.79441 0.49358 0.04031 0.0
O302 O 0.81608 0.6418 0.96695 0.0
O303 O 0.77528 0.56277 1.00141 0.0
O304 O 0.71864 0.54212 0.0231 0.0
O305 O 0.75628 0.61361 0.01765 0.0
O306 O 0.81149 0.58914 0.97231 0.0
O307 O 0.79065 0.6636 0.99361 0.0
C308 C 0.80478 0.60276 0.05624 0.0
C309 C 0.763 0.44704 0.07215 0.0
C310 C 0.74153 0.40104 0.10639 0.0
C311 C 0.76106 0.44105 0.09675 0.0
C312 C 0.72328 0.36702 0.09089 0.0
C313 C 0.74448 0.4126 0.05706 0.0
C314 C 0.72457 0.37288 0.06644 0.0
C315 C 0.85828 0.57118 0.01076 0.0
C316 C 0.78458 0.48936 0.0627 0.0
C317 C 0.60706 0.39804 0.02365 0.0
C318 C 0.62517 0.3865 1.0057 0.0
C319 C 0.78234 0.55521 0.98076 0.0
C320 C 0.8145 0.70274 0.9581 0.0
C321 C 0.7941 0.7054 0.93762 0.0
C322 C 0.80894 0.74323 0.9254 0.0
C323 C 0.84489 0.77791 0.9339 0.0
C324 C 0.8502 0.73786 0.96605 0.0
C325 C 0.86529 0.77514 0.95395 0.0
C326 C 0.72112 0.57838 0.02108 0.0
C327 C 0.79817 0.66331 0.97105 0.0
H328 H 0.77482 0.46772 0.10833 0.0
H329 H 0.70882 0.33577 0.09756 0.0
H330 H 0.74557 0.41612 0.03804 0.0
H331 H 0.7106 0.34651 0.05469 0.0
H332 H 0.76636 0.67832 0.9315 0.0
H333 H 0.85758 0.80727 0.92486 0.0
H334 H 0.86632 0.73647 0.98163 0.0
H335 H 0.89294 0.80211 0.96018 0.0
Tb336 Tb 0.24718 0.77351 0.36606 0.0
C337 C 0.19276 0.90018 0.3499 0.0
C338 C 0.14687 0.88656 0.383 0.0
C339 C 0.18545 0.95586 0.36685 0.0
C340 C 0.16555 0.87317 0.36622 0.0
C341 C 0.20225 0.94164 0.34948 0.0
C342 C 0.15781 0.92833 0.38365 0.0
C343 C 0.24063 0.95043 0.31345 0.0
N344 N 0.20776 0.88498 0.33337 0.0
C345 C 0.23002 0.90894 0.3146 0.0
C346 C 0.22717 0.96704 0.33117 0.0
Tb347 Tb 0.19107 0.81744 0.33731 0.0
N348 N 0.15553 0.83313 0.36467 0.0
C349 C 0.1244 0.80409 0.37835 0.0
C350 C 0.11684 0.85733 0.39804 0.0
C351 C 0.10507 0.8158 0.39541 0.0
H352 H 0.24075 0.89636 0.30093 0.0
H353 H 0.08123 0.79277 0.4066 0.0
H354 H 0.14416 0.93937 0.39657 0.0
H355 H 0.25916 0.96953 0.29891 0.0
H356 H 0.11505 0.77191 0.37677 0.0
H357 H 0.3618 0.7835 0.30388 0.0
H358 H 0.10178 0.8663 0.41123 0.0
H359 H 0.18195 0.6969 0.40078 0.0
H360 H 0.32679 0.81065 0.32865 0.0
H361 H 0.15795 0.62293 0.40594 0.0
H362 H 0.19269 0.98773 0.36704 0.0
H363 H 0.33789 0.70884 0.30372 0.0
H364 H 0.29047 0.63841 0.32043 0.0
H365 H 0.23521 0.99911 0.33018 0.0
H366 H 0.2355 0.5948 0.34853 0.0
N367 N 0.28197 0.75177 0.342 0.0
C368 C 0.3157 0.77796 0.32883 0.0
C369 C 0.32224 0.72056 0.31466 0.0
C370 C 0.28944 0.69425 0.3293 0.0
C371 C 0.33584 0.76271 0.31473 0.0
C372 C 0.27009 0.71111 0.34313 0.0
H373 H 0.18616 0.58884 0.38067 0.0
N374 N 0.223 0.70472 0.37253 0.0
C375 C 0.18095 0.64053 0.39266 0.0
C376 C 0.23978 0.68678 0.35911 0.0
C377 C 0.19475 0.68254 0.38973 0.0
C378 C 0.19691 0.62138 0.37835 0.0
C379 C 0.22703 0.64461 0.36147 0.0
O380 O 0.2634 0.77047 0.40145 0.0
O381 O 0.21795 0.81047 0.3696 0.0
O382 O 0.2534 0.86978 0.3453 0.0
O383 O 0.29016 0.83513 0.35279 0.0
O384 O 0.20923 0.77134 0.39638 0.0
O385 O 0.3096 0.80719 0.37532 0.0
O386 O 0.17623 0.81704 0.30117 0.0
O387 O 0.2236 0.78422 0.33381 0.0
O388 O 0.193 0.7237 0.34988 0.0
O389 O 0.14992 0.75179 0.34881 0.0
O390 O 0.22998 0.82336 0.30684 0.0
O391 O 0.12868 0.78455 0.32683 0.0
C392 C 0.20221 0.80013 0.3899 0.0
C393 C 0.32862 0.77567 0.40519 0.0
C394 C 0.36339 0.76324 0.43786 0.0
C395 C 0.33691 0.77682 0.42948 0.0
C396 C 0.38076 0.74747 0.42184 0.0
C397 C 0.34642 0.75997 0.38937 0.0
C398 C 0.37203 0.74563 0.39771 0.0
C399 C 0.28823 0.86901 0.34884 0.0
C400 C 0.30268 0.79236 0.3968 0.0
C401 C 0.24502 0.62721 0.3471 0.0
C402 C 0.27623 0.65201 0.33106 0.0
C403 C 0.24039 0.79723 0.31394 0.0
C404 C 0.11076 0.80849 0.29233 0.0
C405 C 0.08923 0.78851 0.27137 0.0
C406 C 0.06379 0.80108 0.25975 0.0
C407 C 0.06111 0.83441 0.26933 0.0
C408 C 0.10724 0.84144 0.30139 0.0
C409 C 0.08266 0.85434 0.28989 0.0
C410 C 0.15601 0.71958 0.3484 0.0
C411 C 0.13678 0.79481 0.30459 0.0
H412 H 0.32385 0.78953 0.44175 0.0
H413 H 0.40117 0.73672 0.428 0.0
H414 H 0.34125 0.75928 0.37056 0.0
H415 H 0.38562 0.73362 0.3854 0.0
H416 H 0.09171 0.76285 0.26441 0.0
H417 H 0.04255 0.84545 0.26077 0.0
H418 H 0.12344 0.85716 0.31737 0.0
H419 H 0.08024 0.87994 0.29696 0.0
Tb420 Tb 0.47732 0.23968 0.70013 0.0
C421 C 0.30209 0.20057 0.67893 0.0
C422 C 0.26408 0.15806 0.71225 0.0
C423 C 0.2412 0.20133 0.6931 0.0
C424 C 0.29746 0.17288 0.69632 0.0
C425 C 0.27347 0.21437 0.67662 0.0
C426 C 0.23656 0.17323 0.71093 0.0
C427 C 0.30847 0.24946 0.64069 0.0
N428 N 0.33335 0.21198 0.66333 0.0
C429 C 0.3359 0.23467 0.64371 0.0
C430 C 0.27743 0.23973 0.65741 0.0
Tb431 Tb 0.37804 0.1881 0.67024 0.0
N432 N 0.32446 0.15875 0.69674 0.0
C433 C 0.31795 0.12729 0.7117 0.0
C434 C 0.25871 0.12758 0.72851 0.0
C435 C 0.28537 0.11164 0.72794 0.0
H436 H 0.36006 0.24253 0.63083 0.0
H437 H 0.28104 0.08748 0.74013 0.0
H438 H 0.21095 0.16257 0.72317 0.0
H439 H 0.31128 0.26831 0.62549 0.0
H440 H 0.33836 0.11479 0.71178 0.0
H441 H 0.59025 0.33572 0.63449 0.0
H442 H 0.23353 0.11543 0.74111 0.0
H443 H 0.48337 0.18178 0.74285 0.0
H444 H 0.52807 0.31142 0.65866 0.0
H445 H 0.52738 0.15257 0.75328 0.0
H446 H 0.2191 0.2119 0.69182 0.0
H447 H 0.63447 0.30448 0.63912 0.0
H448 H 0.64999 0.25545 0.66118 0.0
H449 H 0.25607 0.25102 0.65498 0.0
H450 H 0.63305 0.20568 0.69372 0.0
N451 N 0.53517 0.26517 0.67661 0.0
C452 C 0.54659 0.29711 0.66103 0.0
C453 C 0.60698 0.2935 0.64985 0.0
C454 C 0.59679 0.26285 0.66691 0.0
C455 C 0.58214 0.31124 0.64722 0.0
C456 C 0.56057 0.24964 0.68035 0.0
H457 H 0.58762 0.16748 0.72837 0.0
N458 N 0.51739 0.21218 0.71178 0.0
C459 C 0.53443 0.172 0.73779 0.0
C460 C 0.55144 0.22222 0.69866 0.0
C461 C 0.50955 0.18873 0.73181 0.0
C462 C 0.56833 0.1804 0.72367 0.0
C463 C 0.57763 0.20637 0.70404 0.0
O464 O 0.49431 0.2616 0.73506 0.0
O465 O 0.41164 0.21672 0.70231 0.0
O466 O 0.39444 0.25306 0.67619 0.0
O467 O 0.46592 0.28386 0.68075 0.0
O468 O 0.43886 0.20874 0.73117 0.0
O469 O 0.51026 0.30358 0.70557 0.0
O470 O 0.36283 0.17139 0.63436 0.0
O471 O 0.44322 0.21236 0.66822 0.0
O472 O 0.46633 0.17889 0.69095 0.0
O473 O 0.3949 0.14287 0.68488 0.0
O474 O 0.41533 0.21998 0.63903 0.0
O475 O 0.34367 0.12503 0.6614 0.0
C476 C 0.40439 0.20321 0.72324 0.0
C477 C 0.55802 0.3235 0.73707 0.0
C478 C 0.6044 0.35685 0.77025 0.0
C479 C 0.56436 0.33272 0.7613 0.0
C480 C 0.63825 0.37117 0.75485 0.0
C481 C 0.59224 0.33787 0.72187 0.0
C482 C 0.6321 0.36141 0.73079 0.0
C483 C 0.43216 0.28582 0.67649 0.0
C484 C 0.51558 0.29974 0.72803 0.0
C485 C 0.61268 0.21776 0.69001 0.0
C486 C 0.62228 0.24603 0.67148 0.0
C487 C 0.44983 0.22596 0.64735 0.0
C488 C 0.30293 0.1075 0.62641 0.0
C489 C 0.30046 0.08448 0.60594 0.0
C490 C 0.26232 0.05982 0.59436 0.0
C491 C 0.22708 0.05936 0.60342 0.0
C492 C 0.26727 0.10643 0.63491 0.0
C493 C 0.22964 0.08258 0.62342 0.0
C494 C 0.43075 0.14439 0.68889 0.0
C495 C 0.3427 0.13208 0.63883 0.0
H496 H 0.53812 0.32205 0.7731 0.0
H497 H 0.66938 0.38981 0.76147 0.0
H498 H 0.58839 0.33145 0.70312 0.0
H499 H 0.65828 0.37245 0.71899 0.0
H500 H 0.32796 0.08507 0.59938 0.0
H501 H 0.19743 0.04125 0.59487 0.0
H502 H 0.26848 0.12388 0.65049 0.0
H503 H 0.20223 0.08194 0.6301 0.0
C504 C 0.28349 0.79873 0.28044 0.0
C505 C 0.25249 0.77564 0.29693 0.0
C506 C 0.29223 0.77904 0.26227 0.0
C507 C 0.27107 0.67689 0.23961 0.0
H508 H 0.28235 0.72953 0.17873 0.0
C509 C 0.29904 0.61719 0.14993 0.0
C510 C 0.27839 0.62121 0.1303 0.0
C511 C 0.29677 0.63324 0.17192 0.0
C512 C 0.27896 0.71427 0.19558 0.0
H513 H 0.20532 0.71421 0.30704 0.0
H514 H 0.22004 0.67962 0.2752 0.0
H515 H 0.27969 0.76384 0.21452 0.0
H516 H 0.23785 0.64281 0.1179 0.0
H517 H 0.23288 0.66996 0.15633 0.0
H518 H 0.26875 0.62646 0.22021 0.0
C519 C 0.23882 0.71278 0.27679 0.0
C520 C 0.27816 0.73428 0.21616 0.0
C521 C 0.23035 0.73254 0.29508 0.0
C522 C 0.25402 0.6396 0.13296 0.0
C523 C 0.25153 0.65537 0.15484 0.0
C524 C 0.27178 0.65672 0.21888 0.0
C525 C 0.26923 0.73591 0.25986 0.0
C526 C 0.27377 0.7157 0.2384 0.0
C527 C 0.27385 0.65349 0.17438 0.0
C528 C 0.27502 0.67499 0.19664 0.0
H529 H 0.30063 0.83209 0.28148 0.0
H530 H 0.31624 0.79768 0.2497 0.0
H531 H 0.26801 0.66198 0.25654 0.0
H532 H 0.31818 0.60321 0.14801 0.0
H533 H 0.31437 0.63148 0.18665 0.0
C534 C 0.49503 0.2584 0.61279 0.0
C535 C 0.48293 0.23042 0.63164 0.0
C536 C 0.52388 0.2607 0.59637 0.0
C537 C 0.55386 0.19522 0.56721 0.0
H538 H 0.63998 0.29762 0.54038 0.0
C539 C 0.59538 0.21867 0.46919 0.0
C540 C 0.63701 0.23939 0.46261 0.0
C541 C 0.58437 0.21484 0.49302 0.0
C542 C 0.61662 0.26875 0.54797 0.0
H543 H 0.49 0.18179 0.64779 0.0
H544 H 0.54013 0.1853 0.61873 0.0
H545 H 0.60799 0.29864 0.57805 0.0
H546 H 0.69992 0.27193 0.47541 0.0
H547 H 0.68047 0.26641 0.51745 0.0
H548 H 0.56052 0.16568 0.53637 0.0
C549 C 0.52819 0.20625 0.61712 0.0
C550 C 0.59824 0.26937 0.56937 0.0
C551 C 0.49972 0.20438 0.63377 0.0
C552 C 0.6676 0.25578 0.48021 0.0
C553 C 0.65655 0.25266 0.50411 0.0
C554 C 0.57184 0.19468 0.54567 0.0
C555 C 0.54023 0.23422 0.59819 0.0
C556 C 0.56574 0.23278 0.5787 0.0
C557 C 0.61482 0.23224 0.51065 0.0
C558 C 0.60232 0.23161 0.5355 0.0
H559 H 0.48188 0.27826 0.61068 0.0
H560 H 0.53203 0.28193 0.58164 0.0
H561 H 0.52868 0.16664 0.57399 0.0
H562 H 0.57137 0.2056 0.45586 0.0
H563 H 0.55198 0.19945 0.49763 0.0
C564 C 0.23848 0.4934 0.94864 0.0
C565 C 0.2546 0.47835 0.96583 0.0
C566 C 0.26437 0.52166 0.93178 0.0
C567 C 0.33182 0.59702 0.90618 0.0
H568 H 0.38893 0.55776 0.86584 0.0
C569 C 0.41641 0.67921 0.8196 0.0
C570 C 0.39918 0.65263 0.80015 0.0
C571 C 0.40784 0.66345 0.84266 0.0
C572 C 0.37372 0.5694 0.87721 0.0
H573 H 0.30949 0.47836 0.97796 0.0
H574 H 0.35484 0.52748 0.94822 0.0
H575 H 0.35603 0.52057 0.9023 0.0
H576 H 0.3612 0.58918 0.78905 0.0
H577 H 0.34683 0.56146 0.8293 0.0
H578 H 0.34806 0.64486 0.88051 0.0
C579 C 0.32249 0.51848 0.94833 0.0
C580 C 0.35511 0.54832 0.89804 0.0
C581 C 0.29665 0.49064 0.96541 0.0
C582 C 0.3745 0.61013 0.80389 0.0
C583 C 0.36665 0.59434 0.82682 0.0
C584 C 0.35095 0.61847 0.88549 0.0
C585 C 0.30653 0.53429 0.93145 0.0
C586 C 0.3327 0.56108 0.91219 0.0
C587 C 0.38282 0.62089 0.84637 0.0
C588 C 0.37065 0.60385 0.87043 0.0
H589 H 0.2059 0.48349 0.9484 0.0
H590 H 0.25123 0.53273 0.91857 0.0
H591 H 0.31491 0.6075 0.91699 0.0
H592 H 0.43556 0.71213 0.81696 0.0
H593 H 0.42045 0.68439 0.85755 0.0
C594 C 0.7417 0.23146 0.27958 0.0
C595 C 0.77108 0.24896 0.29769 0.0
C596 C 0.73622 0.25666 0.26356 0.0
C597 C 0.72047 0.32175 0.23994 0.0
H598 H 0.81675 0.38525 0.20064 0.0
C599 C 0.70837 0.36084 0.14343 0.0
C600 C 0.7418 0.39461 0.13239 0.0
C601 C 0.71069 0.35177 0.16716 0.0
C602 C 0.78974 0.36883 0.21171 0.0
H603 H 0.81927 0.30613 0.31264 0.0
H604 H 0.81047 0.35035 0.2841 0.0
H605 H 0.8229 0.35337 0.23671 0.0
H606 H 0.80298 0.44697 0.13832 0.0
H607 H 0.80598 0.43258 0.17995 0.0
H608 H 0.68706 0.33677 0.21497 0.0
C609 C 0.79073 0.31723 0.28292 0.0
C610 C 0.79335 0.3504 0.23235 0.0
C611 C 0.79565 0.29199 0.29925 0.0
C612 C 0.77649 0.42075 0.14616 0.0
C613 C 0.77849 0.41213 0.17003 0.0
C614 C 0.71696 0.34085 0.21951 0.0
C615 C 0.76101 0.29969 0.26495 0.0
C616 C 0.75847 0.32552 0.2461 0.0
C617 C 0.74623 0.37671 0.18063 0.0
C618 C 0.75123 0.36325 0.20461 0.0
H619 H 0.72303 0.19829 0.27785 0.0
H620 H 0.71369 0.24251 0.24952 0.0
H621 H 0.69328 0.30292 0.25051 0.0
H622 H 0.68071 0.34061 0.13358 0.0
H623 H 0.68529 0.32401 0.17452 0.0
C624 C 0.5137 0.80345 0.6337 0.0
C625 C 0.52721 0.77459 0.63306 0.0
C626 C 0.48571 0.80198 0.61687 0.0
C627 C 0.41282 0.73719 0.57021 0.0
H628 H 0.45311 0.84036 0.53627 0.0
C629 C 0.34414 0.75083 0.48077 0.0
C630 C 0.37463 0.76739 0.46314 0.0
C631 C 0.35533 0.7537 0.50464 0.0
C632 C 0.44114 0.8115 0.5458 0.0
H633 H 0.52324 0.72234 0.61429 0.0
H634 H 0.47432 0.71971 0.58468 0.0
H635 H 0.48496 0.83933 0.57379 0.0
H636 H 0.44027 0.80119 0.45633 0.0
H637 H 0.45986 0.80663 0.49797 0.0
H638 H 0.37046 0.70908 0.54144 0.0
C639 C 0.48436 0.7427 0.59858 0.0
C640 C 0.45912 0.81093 0.56732 0.0
C641 C 0.51256 0.74439 0.61531 0.0
C642 C 0.4163 0.7879 0.46966 0.0
C643 C 0.42744 0.79137 0.49344 0.0
C644 C 0.39456 0.73784 0.54875 0.0
C645 C 0.47113 0.77184 0.59901 0.0
C646 C 0.44623 0.7735 0.57921 0.0
C647 C 0.3971 0.77396 0.51111 0.0
C648 C 0.40978 0.77473 0.53594 0.0
H649 H 0.52543 0.82775 0.64675 0.0
H650 H 0.47616 0.82492 0.6175 0.0
H651 H 0.40211 0.70804 0.57922 0.0
H652 H 0.31179 0.73487 0.47604 0.0
H653 H 0.33148 0.73999 0.51801 0.0
C654 C 0.76932 0.5085 0.9469 0.0
C655 C 0.75358 0.52198 0.96517 0.0
C656 C 0.7428 0.47977 0.93041 0.0
C657 C 0.67655 0.40639 0.90301 0.0
H658 H 0.61531 0.44773 0.86819 0.0
C659 C 0.5951 0.33812 0.81324 0.0
C660 C 0.61089 0.36843 0.79548 0.0
C661 C 0.60288 0.34944 0.83711 0.0
C662 C 0.63166 0.43543 0.87799 0.0
H663 H 0.69823 0.51738 0.98026 0.0
H664 H 0.65171 0.46749 0.95108 0.0
H665 H 0.64716 0.47914 0.90607 0.0
H666 H 0.64559 0.43396 0.78841 0.0
H667 H 0.6586 0.45386 0.83013 0.0
H668 H 0.66269 0.36402 0.87426 0.0
C669 C 0.68441 0.47826 0.94998 0.0
C670 C 0.64961 0.45316 0.89968 0.0
C671 C 0.71095 0.5066 0.96669 0.0
C672 C 0.63341 0.41014 0.80186 0.0
C673 C 0.64046 0.42146 0.82566 0.0
C674 C 0.65808 0.38826 0.88144 0.0
C675 C 0.70022 0.46495 0.93157 0.0
C676 C 0.67362 0.43991 0.91186 0.0
C677 C 0.62567 0.39122 0.84345 0.0
C678 C 0.63698 0.40383 0.86834 0.0
H679 H 0.8022 0.52055 0.94526 0.0
H680 H 0.75582 0.47062 0.9161 0.0
H681 H 0.69479 0.39561 0.9122 0.0
H682 H 0.57767 0.30574 0.8086 0.0
H683 H 0.59135 0.32568 0.85059 0.0
C684 C 0.35023 0.42269 0.03984 0.0
C685 C 0.32924 0.41964 0.01868 0.0
C686 C 0.39294 0.4385 0.03976 0.0
C687 C 0.48377 0.50872 1.00351 0.0
H688 H 0.5431 0.47789 0.04761 0.0
C689 C 0.6602 0.57032 0.99929 0.0
C690 C 0.68134 0.57726 0.02084 0.0
C691 C 0.61745 0.5542 0.99904 0.0
C692 C 0.52697 0.48723 0.03539 0.0
H693 H 0.3356 0.42825 0.98073 0.0
H694 H 0.40973 0.45399 0.98029 0.0
H695 H 0.46798 0.43829 0.04646 0.0
H696 H 0.67518 0.57495 0.05896 0.0
H697 H 0.60055 0.54716 0.05867 0.0
H698 H 0.54289 0.55739 0.99228 0.0
C699 C 0.39364 0.44518 0.99709 0.0
C700 C 0.48384 0.46441 0.03467 0.0
C701 C 0.35102 0.42959 0.99724 0.0
C702 C 0.65955 0.57034 0.04213 0.0
C703 C 0.61679 0.55388 0.04193 0.0
C704 C 0.52689 0.53137 1.00413 0.0
C705 C 0.41549 0.45161 0.01846 0.0
C706 C 0.46159 0.47479 0.01871 0.0
C707 C 0.59501 0.54421 0.02037 0.0
C708 C 0.54904 0.52102 0.02013 0.0
H709 H 0.33424 0.41629 0.05666 0.0
H710 H 0.40856 0.44322 0.0566 0.0
H711 H 0.4678 0.51837 0.99137 0.0
H712 H 0.67622 0.57434 0.98265 0.0
H713 H 0.60166 0.54692 0.98212 0.0
C714 C 0.08076 0.66399 0.3524 0.0
C715 C 0.1215 0.67652 0.34575 0.0
C716 C 0.05039 0.62189 0.35185 0.0
C717 C 0.03081 0.52061 0.32708 0.0
H718 H 0.95405 0.47297 0.37922 0.0
C719 C 0.90922 0.34697 0.32988 0.0
C720 C 0.89737 0.32749 0.35199 0.0
C721 C 0.93598 0.38955 0.32841 0.0
C722 C 0.97565 0.48566 0.36466 0.0
H723 H 0.16158 0.65457 0.33233 0.0
H724 H 0.1102 0.58294 0.33208 0.0
H725 H 0.99941 0.54754 0.37729 0.0
H726 H 0.90452 0.33657 0.38988 0.0
H727 H 0.95306 0.41068 0.38749 0.0
H728 H 0.00895 0.45909 0.31502 0.0
C729 C 0.10088 0.60489 0.33738 0.0
C730 C 1.00115 0.52861 0.36333 0.0
C731 C 0.13073 0.64638 0.33782 0.0
C732 C 0.91399 0.3509 0.37262 0.0
C733 C 0.94111 0.39349 0.37119 0.0
C734 C 1.00579 0.47783 0.32855 0.0
C735 C 0.06028 0.59178 0.34447 0.0
C736 C 0.02958 0.54664 0.3447 0.0
C737 C 0.95168 0.41366 0.34906 0.0
C738 C 0.97808 0.45958 0.34747 0.0
H739 H 0.07268 0.68641 0.35863 0.0
H740 H 0.01931 0.61292 0.35728 0.0
H741 H 0.05169 0.53325 0.31219 0.0
H742 H 0.89576 0.32966 0.31377 0.0
H743 H 0.94268 0.40372 0.31105 0.0
C744 C 0.43773 0.09052 0.66725 0.0
C745 C 0.43338 0.10646 0.68887 0.0
C746 C 0.45372 0.06373 0.66667 0.0
C747 C 0.48152 0.99915 0.70444 0.0
H748 H 0.56269 0.02256 0.6553 0.0
C749 C 0.58497 0.92576 0.70677 0.0
C750 C 0.58713 0.90754 0.68551 0.0
C751 C 0.5694 0.9529 0.70701 0.0
C752 C 0.53995 0.01545 0.66905 0.0
H753 H 0.44056 0.10585 0.72683 0.0
H754 H 0.46841 0.05918 0.72602 0.0
H755 H 0.5246 0.05972 0.65585 0.0
H756 H 0.57649 0.90448 0.64772 0.0
H757 H 0.55037 0.95269 0.64789 0.0
H758 H 0.49704 0.95497 0.71768 0.0
C759 C 0.45909 0.06668 0.70945 0.0
C760 C 0.51786 0.03658 0.6693 0.0
C761 C 0.44304 0.09339 0.70998 0.0
C762 C 0.57618 0.91905 0.66426 0.0
C763 C 0.56085 0.94638 0.66443 0.0
C764 C 0.5037 0.9781 0.70423 0.0
C765 C 0.46597 0.05257 0.68773 0.0
C766 C 0.48829 0.02873 0.68699 0.0
C767 C 0.5557 0.96236 0.68594 0.0
C768 C 0.53329 0.98602 0.68656 0.0
H769 H 0.43138 0.10097 0.6507 0.0
H770 H 0.45788 0.05296 0.64965 0.0
H771 H 0.45869 0.99185 0.71817 0.0
H772 H 0.59232 0.91656 0.72345 0.0
H773 H 0.56643 0.96508 0.72385 0.0
C774 C 0.53494 0.64797 0.69617 0.0
C775 C 0.56626 0.67701 0.6814 0.0
C776 C 0.52056 0.60589 0.69372 0.0
C777 C 0.54452 0.52849 0.67023 0.0
H778 H 0.42582 0.4572 0.67273 0.0
C779 C 0.47134 0.35346 0.6563 0.0
C780 C 0.43885 0.32746 0.67139 0.0
C781 C 0.48476 0.39556 0.65501 0.0
C782 C 0.45902 0.47649 0.67222 0.0
H783 H 0.60831 0.68424 0.65308 0.0
H784 H 0.58352 0.61011 0.64896 0.0
H785 H 0.45558 0.53167 0.67574 0.0
H786 H 0.39356 0.32465 0.6962 0.0
H787 H 0.4172 0.39863 0.6943 0.0
H788 H 0.54815 0.47342 0.66728 0.0
C789 C 0.57 0.62033 0.66241 0.0
C790 C 0.47615 0.51931 0.6739 0.0
C791 C 0.58442 0.66285 0.66484 0.0
C792 C 0.41837 0.34397 0.68422 0.0
C793 C 0.43212 0.38643 0.68314 0.0
C794 C 0.52741 0.48562 0.66869 0.0
C795 C 0.53709 0.59129 0.67646 0.0
C796 C 0.51914 0.54588 0.67318 0.0
C797 C 0.4664 0.41305 0.66904 0.0
C798 C 0.48438 0.45891 0.66981 0.0
H799 H 0.52082 0.65768 0.70952 0.0
H800 H 0.4961 0.58466 0.70533 0.0
H801 H 0.57772 0.54794 0.66986 0.0
H802 H 0.48734 0.34137 0.64598 0.0
H803 H 0.51029 0.41457 0.64338 0.0
C804 C 0.08572 0.42109 1.00203 0.0
C805 C 0.1212 0.44334 0.01601 0.0
C806 C 0.05692 0.43465 0.99968 0.0
C807 C 0.04974 0.52991 1.00593 0.0
H808 H 0.93188 0.45551 1.00778 0.0
C809 C 0.93119 0.58655 0.01699 0.0
C810 C 0.89256 0.56316 1.00615 0.0
C811 C 0.96029 0.57325 0.01608 0.0
C812 C 0.96472 0.47679 1.00685 0.0
H813 H 0.15239 0.49574 0.03979 0.0
H814 H 0.10287 0.51879 0.03579 0.0
H815 H 0.9785 0.42783 0.01025 0.0
H816 H 0.85549 0.50987 0.98412 0.0
H817 H 0.90606 0.48738 0.98198 0.0
H818 H 0.03611 0.5789 1.00259 0.0
C819 C 0.09766 0.49169 0.02602 0.0
C820 C 0.99145 0.46079 1.00829 0.0
C821 C 0.12611 0.47822 0.02836 0.0
C822 C 0.88465 0.52798 0.99311 0.0
C823 C 0.91363 0.51494 0.99201 0.0
C824 C 0.02304 0.5459 1.0044 0.0
C825 C 0.06312 0.47073 0.01127 0.0
C826 C 0.03433 0.48717 1.00814 0.0
C827 C 0.95135 0.53653 1.00412 0.0
C828 C 0.98011 0.51962 1.00501 0.0
H829 H 0.08093 0.39424 0.99225 0.0
H830 H 0.03054 0.41766 0.98821 0.0
H831 H 0.08263 0.55114 1.00534 0.0
H832 H 0.93796 0.61367 0.02726 0.0
H833 H 0.98895 0.59072 0.02566 0.0
C834 C 0.34428 0.93124 0.32828 0.0
C835 C 0.32866 0.90713 0.3488 0.0
C836 C 0.38686 0.95882 0.32606 0.0
C837 C 0.48378 0.96789 0.34692 0.0
H838 H 0.53701 0.08068 0.32467 0.0
C839 C 0.66026 0.07763 0.35439 0.0
C840 C 0.67949 0.11003 0.33811 0.0
C841 C 0.61747 0.05097 0.35346 0.0
C842 C 0.52275 0.04893 0.33046 0.0
H843 H 0.34436 0.89472 0.38358 0.0
H844 H 0.41797 0.94279 0.37988 0.0
H845 H 0.46201 0.04114 0.32763 0.0
H846 H 0.67007 0.13895 0.30744 0.0
H847 H 0.59613 0.09129 0.30484 0.0
H848 H 0.54398 0.975 0.34944 0.0
C849 C 0.39786 0.94026 0.36538 0.0
C850 C 0.47966 0.02641 0.33228 0.0
C851 C 0.35565 0.91314 0.36761 0.0
C852 C 0.65586 0.11383 0.32004 0.0
C853 C 0.61333 0.08692 0.31886 0.0
C854 C 0.52673 0.99014 0.34481 0.0
C855 C 0.41422 0.96219 0.34425 0.0
C856 C 0.45975 0.98586 0.34091 0.0
C857 C 0.59316 0.05606 0.3361 0.0
C858 C 0.54702 0.03123 0.33685 0.0
H859 H 0.32419 0.92649 0.31334 0.0
H860 H 0.39863 0.97542 0.30958 0.0
H861 H 0.46926 0.93638 0.35322 0.0
H862 H 0.67775 0.07479 0.36883 0.0
H863 H 0.60328 0.02797 0.36723 0.0
C864 C 0.36162 0.23423 0.73746 0.0
C865 C 0.37481 0.20523 0.74007 0.0
C866 C 0.33949 0.24027 0.7557 0.0
C867 C 0.27749 0.19228 0.80996 0.0
H868 H 0.31684 0.30429 0.83124 0.0
C869 C 0.22717 0.22377 0.9007 0.0
C870 C 0.22176 0.25811 0.90356 0.0
C871 C 0.24463 0.21839 0.87999 0.0
C872 C 0.30485 0.27279 0.82542 0.0
H873 H 0.37494 0.15981 0.76368 0.0
H874 H 0.33554 0.16935 0.79505 0.0
H875 H 0.34632 0.29173 0.79573 0.0
H876 H 0.2313 0.31417 0.88674 0.0
H877 H 0.26105 0.30452 0.85032 0.0
H878 H 0.23575 0.17304 0.83925 0.0
C879 C 0.34199 0.18736 0.77899 0.0
C880 C 0.32188 0.26561 0.80496 0.0
C881 C 0.3646 0.18187 0.76101 0.0
C882 C 0.23525 0.2875 0.88524 0.0
C883 C 0.25239 0.2819 0.8643 0.0
C884 C 0.26017 0.19942 0.8302 0.0
C885 C 0.3298 0.21721 0.77685 0.0
C886 C 0.30892 0.22521 0.79719 0.0
C887 C 0.25693 0.24692 0.86119 0.0
C888 C 0.27404 0.23976 0.83861 0.0
H889 H 0.36973 0.25334 0.72178 0.0
H890 H 0.33042 0.26336 0.75338 0.0
H891 H 0.26629 0.16079 0.80432 0.0
H892 H 0.21783 0.20084 0.91458 0.0
H893 H 0.2486 0.19171 0.87885 0.0
C894 C 0.01323 0.23261 0.23729 0.0
C895 C 0.97263 0.22535 0.23895 0.0
C896 C 0.03728 0.25105 0.21713 0.0
C897 C 0.03125 0.2699 0.15317 0.0
H898 H 0.1466 0.35119 0.16124 0.0
C899 C 0.13983 0.3622 0.07402 0.0
C900 C 0.18169 0.37375 0.07584 0.0
C901 C 0.11255 0.34214 0.09293 0.0
C902 C 0.11465 0.32803 0.15851 0.0
H903 H 0.92574 0.23223 0.22046 0.0
H904 H 0.96784 0.26449 0.18506 0.0
H905 H 0.10305 0.3218 0.19587 0.0
H906 H 0.22739 0.37224 0.09857 0.0
H907 H 0.18007 0.3363 0.13106 0.0
H908 H 0.0431 0.2758 0.11571 0.0
C909 C 0.98094 0.25568 0.19947 0.0
C910 C 0.08952 0.31128 0.1785 0.0
C911 C 0.95693 0.23758 0.21987 0.0
C912 C 0.1953 0.36368 0.09663 0.0
C913 C 0.16813 0.34344 0.11539 0.0
C914 C 0.05655 0.2865 0.13307 0.0
C915 C 0.02148 0.26263 0.19782 0.0
C916 C 0.04752 0.28173 0.1762 0.0
C917 C 0.12653 0.33335 0.11419 0.0
C918 C 0.09882 0.3156 0.13543 0.0
H919 H 0.02652 0.22393 0.25168 0.0
H920 H 0.06814 0.25551 0.2165 0.0
H921 H 0.99914 0.24697 0.15067 0.0
H922 H 0.12846 0.37011 0.05841 0.0
H923 H 0.08093 0.33518 0.09123 0.0
C924 C 0.78265 1.00302 0.56644 0.0
C925 C 0.74853 0.96312 0.56895 0.0
C926 C 0.78818 0.02622 0.54588 0.0
C927 C 0.73448 0.03254 0.49105 0.0
H928 H 0.84662 0.10692 0.47078 0.0
C929 C 0.77358 0.12831 0.40339 0.0
C930 C 0.80225 0.17053 0.40607 0.0
C931 C 0.76756 0.10021 0.42164 0.0
C932 C 0.81509 0.08639 0.4762 0.0
H933 H 0.69301 0.91672 0.55169 0.0
H934 H 0.70294 0.95673 0.5155 0.0
H935 H 0.83414 0.06375 0.50554 0.0
H936 H 0.84717 0.21617 0.42982 0.0
H937 H 0.83764 0.16731 0.46126 0.0
H938 H 0.71573 0.05517 0.4613 0.0
C939 C 0.72526 0.97054 0.52965 0.0
C940 C 0.80782 0.06169 0.49633 0.0
C941 C 0.71949 0.94744 0.55044 0.0
C942 C 0.82534 0.18376 0.4271 0.0
C943 C 0.81986 0.1557 0.44511 0.0
C944 C 0.7418 0.05697 0.4707 0.0
C945 C 0.76004 0.0102 0.52688 0.0
C946 C 0.76741 0.03485 0.50443 0.0
C947 C 0.79031 0.11364 0.44289 0.0
C948 C 0.78225 0.08474 0.46321 0.0
H949 H 0.8053 0.01642 0.58048 0.0
H950 H 0.81467 0.05695 0.545 0.0
H951 H 0.70293 0.01276 0.49664 0.0
H952 H 0.75471 0.11723 0.38762 0.0
H953 H 0.74473 0.06803 0.41924 0.0
C954 C 0.65001 0.83106 0.76159 0.0
C955 C 0.63829 0.80691 0.74092 0.0
C956 C 0.67178 0.82454 0.77967 0.0
C957 C 0.68796 0.74349 0.80591 0.0
H958 H 0.77573 0.83455 0.84033 0.0
C959 C 0.77389 0.71851 0.88542 0.0
C960 C 0.78749 0.74744 0.90401 0.0
C961 C 0.75695 0.72481 0.86461 0.0
C962 C 0.75086 0.80862 0.83121 0.0
H963 H 0.64006 0.75651 0.72317 0.0
H964 H 0.67806 0.74491 0.75483 0.0
H965 H 0.74603 0.84819 0.8055 0.0
H966 H 0.79176 0.80462 0.91563 0.0
H967 H 0.76157 0.81505 0.88004 0.0
H968 H 0.69197 0.70391 0.83197 0.0
C969 C 0.67064 0.76923 0.75695 0.0
C970 C 0.73396 0.81653 0.81106 0.0
C971 C 0.64925 0.77616 0.73866 0.0
C972 C 0.78239 0.78205 0.90153 0.0
C973 C 0.76523 0.78816 0.88093 0.0
C974 C 0.70464 0.73554 0.82624 0.0
C975 C 0.68176 0.79302 0.77786 0.0
C976 C 0.70194 0.78416 0.79824 0.0
C977 C 0.75282 0.76008 0.86189 0.0
C978 C 0.73604 0.76804 0.83945 0.0
H979 H 0.64151 0.85458 0.76398 0.0
H980 H 0.67936 0.84321 0.79555 0.0
H981 H 0.66305 0.71777 0.79666 0.0
H982 H 0.77759 0.69166 0.88662 0.0
H983 H 0.74815 0.70252 0.85042 0.0
C984 C 0.05721 0.76961 0.21892 0.0
C985 C 0.0396 0.77995 0.23787 0.0
C986 C 0.03512 0.75312 0.19771 0.0
C987 C 0.94436 0.74399 0.16415 0.0
H988 H 0.95254 0.66027 0.12805 0.0
C989 C 0.8237 0.6428 0.0939 0.0
C990 C 0.83658 0.63202 0.07306 0.0
C991 C 0.85179 0.66496 0.11195 0.0
C992 C 0.95032 0.68409 0.13771 0.0
H993 H 0.98388 0.77864 0.24967 0.0
H994 H 0.94548 0.7495 0.21331 0.0
H995 H 0.99427 0.68885 0.16379 0.0
H996 H 0.88932 0.63577 0.05496 0.0
H997 H 0.93872 0.67465 0.08658 0.0
H998 H 0.89978 0.73856 0.13843 0.0
C999 C 0.97681 0.75535 0.2143 0.0
C1000 C 0.9743 0.70053 0.1583 0.0
C1001 C 0.99886 0.77194 0.23532 0.0
C1002 C 0.87855 0.64434 0.07058 0.0
C1003 C 0.90674 0.66619 0.08884 0.0
C1004 C 0.92031 0.72743 0.14372 0.0
C1005 C 0.99473 0.74631 0.19494 0.0
C1006 C 0.97119 0.73027 0.1721 0.0
C1007 C 0.8936 0.67633 0.10994 0.0
C1008 C 0.9224 0.69678 0.13038 0.0
H1009 H 0.08857 0.77556 0.22016 0.0
H1010 H 0.0502 0.74681 0.18327 0.0
H1011 H 0.94177 0.76762 0.17377 0.0
H1012 H 0.79146 0.63315 0.09648 0.0
H1013 H 0.8403 0.67167 0.12797 0.0
C1014 C 0.22578 0.993 0.57166 0.0
C1015 C 0.25838 0.03399 0.57312 0.0
C1016 C 0.22011 0.9691 0.55137 0.0
C1017 C 0.24197 0.97591 0.48709 0.0
H1018 H 0.21436 0.86203 0.49424 0.0
C1019 C 0.22979 0.87196 0.40649 0.0
C1020 C 0.20281 0.8292 0.40819 0.0
C1021 C 0.23536 0.89811 0.42575 0.0
C1022 C 0.22123 0.8935 0.49176 0.0
H1023 H 0.31073 0.08178 0.55418 0.0
H1024 H 0.30065 0.04002 0.51853 0.0
H1025 H 0.22764 0.90484 0.52918 0.0
H1026 H 0.15958 0.78066 0.43116 0.0
H1027 H 0.16771 0.82597 0.46427 0.0
H1028 H 0.23478 0.96438 0.44965 0.0
C1029 C 0.27944 0.02646 0.53321 0.0
C1030 C 0.22917 0.91823 0.51194 0.0
C1031 C 0.28548 0.05027 0.55373 0.0
C1032 C 0.18049 0.81348 0.42927 0.0
C1033 C 0.18566 0.83955 0.44841 0.0
C1034 C 0.23356 0.95098 0.46684 0.0
C1035 C 0.24659 0.98551 0.53174 0.0
C1036 C 0.23954 0.95977 0.50996 0.0
C1037 C 0.21412 0.88219 0.44729 0.0
C1038 C 0.22286 0.90923 0.46882 0.0
H1039 H 0.20445 0.97932 0.58628 0.0
H1040 H 0.19433 0.93788 0.55089 0.0
H1041 H 0.24944 0.00763 0.48486 0.0
H1042 H 0.24806 0.88509 0.39069 0.0
H1043 H 0.25779 0.93053 0.42404 0.0
loop_
_geom_bond_atom_site_label_1
_geom_bond_atom_site_label_2
_geom_bond_distance
_geom_bond_site_symmetry_2
_ccdc_geom_bond_type
Tb0 N31 2.660 . S
Tb0 N38 2.600 . S
Tb0 O44 2.546 . S
Tb0 O45 2.610 . S
Tb0 O47 2.320 . S
Tb0 O48 2.552 . S
Tb0 O49 2.413 . S
Tb0 O51 2.362 1_554 S
Tb0 O52 2.421 . S
Tb0 C64 2.833 . S
C1 C4 1.432 . S
C1 C5 1.414 . S
C1 N8 1.359 1_554 S
C2 C4 1.417 . S
C2 C6 1.432 . S
C2 C14 1.410 . S
C3 C5 1.444 . S
C3 C6 1.317 . S
C3 H26 0.929 . S
C4 C1 1.432 . S
C4 C2 1.417 . S
C4 N12 1.360 . S
C5 C1 1.414 . S
C5 C3 1.444 . S
C5 C10 1.385 1_554 S
C6 C2 1.432 . S
C6 C3 1.317 . S
C6 H18 0.930 . S
C7 C9 1.392 . S
C7 C10 1.370 . S
C7 H19 0.931 . S
N8 C1 1.359 1_556 S
N8 C9 1.327 . S
N8 Tb11 2.600 . S
C9 C7 1.392 . S
C9 N8 1.327 . S
C9 H16 0.930 . S
C10 C5 1.385 1_556 S
C10 C7 1.370 . S
C10 H29 0.930 . S
Tb11 N8 2.600 . S
Tb11 N12 2.660 1_556 S
Tb11 O45 2.362 1_556 S
Tb11 O46 2.421 . S
Tb11 O50 2.546 . S
Tb11 O51 2.610 . S
Tb11 O53 2.320 1_556 S
Tb11 O54 2.552 . S
Tb11 O55 2.413 . S
Tb11 C75 2.833 . S
N12 C4 1.360 . S
N12 Tb11 2.660 1_554 S
N12 C13 1.305 . S
C13 N12 1.305 . S
C13 C15 1.407 . S
C13 H20 0.930 . S
C14 C2 1.410 . S
C14 C15 1.345 . S
C14 H22 0.930 . S
C15 C13 1.407 . S
C15 C14 1.345 . S
C15 H17 0.930 . S
H16 C9 0.930 . S
H17 C15 0.930 . S
H18 C6 0.930 . S
H19 C7 0.931 . S
H20 C13 0.930 . S
H21 C35 0.930 . S
H22 C14 0.930 . S
H23 C41 0.930 . S
H24 C32 0.930 . S
H25 C39 0.931 . S
H26 C3 0.929 . S
H27 C33 0.930 . S
H28 C66 0.930 . S
H29 C10 0.930 . S
H30 C65 0.929 . S
N31 Tb0 2.660 . S
N31 C32 1.305 1_554 S
N31 C36 1.362 . S
C32 H24 0.930 . S
C32 N31 1.305 1_556 S
C32 C35 1.407 . S
C33 H27 0.930 . S
C33 C34 1.410 . S
C33 C35 1.345 . S
C34 C33 1.410 . S
C34 C36 1.399 1_556 S
C34 C66 1.432 . S
C35 H21 0.930 . S
C35 C32 1.407 . S
C35 C33 1.345 . S
C36 N31 1.362 . S
C36 C34 1.399 1_554 S
C36 C40 1.449 . S
H37 C42 0.930 . S
N38 Tb0 2.600 . S
N38 C40 1.359 . S
N38 C41 1.327 . S
C39 H25 0.931 . S
C39 C41 1.392 . S
C39 C42 1.370 . S
C40 C36 1.449 . S
C40 N38 1.359 . S
C40 C43 1.414 . S
C41 H23 0.930 . S
C41 N38 1.327 . S
C41 C39 1.392 . S
C42 H37 0.930 . S
C42 C39 1.370 . S
C42 C43 1.385 . S
C43 C40 1.414 . S
C43 C42 1.385 . S
C43 C65 1.459 . S
O44 Tb0 2.546 . S
O44 C64 1.251 . S
O45 Tb0 2.610 . S
O45 Tb11 2.362 1_554 S
O45 C56 1.283 . S
O46 Tb11 2.421 . S
O46 C63 1.262 1_556 S
O47 Tb0 2.320 . S
O47 C63 1.260 . S
O48 Tb0 2.552 . S
O48 C56 1.243 . S
O49 Tb0 2.413 . S
O49 C64 1.256 . S
O50 Tb11 2.546 . S
O50 C75 1.251 . S
O51 Tb0 2.362 1_556 S
O51 Tb11 2.610 . S
O51 C67 1.283 . S
O52 Tb0 2.421 . S
O52 C74 1.262 . S
O53 Tb11 2.320 1_554 S
O53 C74 1.260 . S
O54 Tb11 2.552 . S
O54 C67 1.243 . S
O55 Tb11 2.413 . S
O55 C75 1.256 . S
C56 O45 1.283 . S
C56 O48 1.243 . S
C57 C59 1.382 . S
C57 C61 1.393 . S
C57 C64 1.500 . S
C58 C59 1.400 . S
C58 C60 1.384 . S
C59 C57 1.382 . S
C59 C58 1.400 . S
C59 H76 0.930 . S
C60 C58 1.384 . S
C60 C62 1.392 . S
C60 H77 0.931 . S
C61 C57 1.393 . S
C61 C62 1.401 . S
C61 H78 0.930 . S
C62 C60 1.392 . S
C62 C61 1.401 . S
C62 H79 0.930 . S
C63 O46 1.262 1_554 S
C63 O47 1.260 . S
C64 Tb0 2.833 . S
C64 O44 1.251 . S
C64 O49 1.256 . S
C64 C57 1.500 . S
C65 H30 0.929 . S
C65 C43 1.459 . S
C65 C66 1.302 1_554 S
C66 H28 0.930 . S
C66 C34 1.432 . S
C66 C65 1.302 1_556 S
C67 O51 1.283 . S
C67 O54 1.243 . S
C68 C69 1.382 . S
C68 C72 1.393 . S
C68 C75 1.500 . S
C69 C68 1.382 . S
C69 C70 1.400 . S
C69 H80 0.930 . S
C70 C69 1.400 . S
C70 C71 1.384 . S
C71 C70 1.384 . S
C71 C73 1.392 . S
C71 H81 0.931 . S
C72 C68 1.393 . S
C72 C73 1.401 . S
C72 H82 0.930 . S
C73 C71 1.392 . S
C73 C72 1.401 . S
C73 H83 0.930 . S
C74 O52 1.262 . S
C74 O53 1.260 . S
C75 Tb11 2.833 . S
C75 O50 1.251 . S
C75 O55 1.256 . S
C75 C68 1.500 . S
H76 C59 0.930 . S
H77 C60 0.931 . S
H78 C61 0.930 . S
H79 C62 0.930 . S
H80 C69 0.930 . S
H81 C71 0.931 . S
H82 C72 0.930 . S
H83 C73 0.930 . S
Tb84 N115 2.660 . S
Tb84 N122 2.600 . S
Tb84 O128 2.546 . S
Tb84 O129 2.610 . S
Tb84 O131 2.320 . S
Tb84 O132 2.552 . S
Tb84 O133 2.413 . S
Tb84 O135 2.362 . S
Tb84 O136 2.421 . S
Tb84 C148 2.833 . S
C85 C88 1.432 . S
C85 C89 1.414 . S
C85 N92 1.359 . S
C86 C88 1.417 . S
C86 C90 1.432 . S
C86 C98 1.410 . S
C87 C89 1.444 . S
C87 C90 1.317 . S
C87 H110 0.929 . S
C88 C85 1.432 . S
C88 C86 1.417 . S
C88 N96 1.360 . S
C89 C85 1.414 . S
C89 C87 1.444 . S
C89 C94 1.385 . S
C90 C86 1.432 . S
C90 C87 1.317 . S
C90 H102 0.930 . S
C91 C93 1.392 . S
C91 C94 1.370 . S
C91 H103 0.931 . S
N92 C85 1.359 . S
N92 C93 1.327 . S
N92 Tb95 2.600 . S
C93 C91 1.392 . S
C93 N92 1.327 . S
C93 H100 0.930 . S
C94 C89 1.385 . S
C94 C91 1.370 . S
C94 H113 0.930 . S
Tb95 N92 2.600 . S
Tb95 N96 2.660 . S
Tb95 O129 2.362 . S
Tb95 O130 2.421 . S
Tb95 O134 2.546 . S
Tb95 O135 2.610 . S
Tb95 O137 2.320 . S
Tb95 O138 2.552 . S
Tb95 O139 2.413 . S
Tb95 C159 2.833 . S
N96 C88 1.360 . S
N96 Tb95 2.660 . S
N96 C97 1.305 . S
C97 N96 1.305 . S
C97 C99 1.407 . S
C97 H104 0.930 . S
C98 C86 1.410 . S
C98 C99 1.345 . S
C98 H106 0.930 . S
C99 C97 1.407 . S
C99 C98 1.345 . S
C99 H101 0.930 . S
H100 C93 0.930 . S
H101 C99 0.930 . S
H102 C90 0.930 . S
H103 C91 0.931 . S
H104 C97 0.930 . S
H105 C119 0.930 . S
H106 C98 0.930 . S
H107 C125 0.930 . S
H108 C116 0.930 . S
H109 C123 0.931 . S
H110 C87 0.929 . S
H111 C117 0.930 . S
H112 C150 0.930 . S
H113 C94 0.930 . S
H114 C149 0.929 . S
N115 Tb84 2.660 . S
N115 C116 1.305 . S
N115 C120 1.360 . S
C116 H108 0.930 . S
C116 N115 1.305 . S
C116 C119 1.407 . S
C117 H111 0.930 . S
C117 C118 1.410 . S
C117 C119 1.345 . S
C118 C117 1.410 . S
C118 C120 1.417 . S
C118 C150 1.432 . S
C119 H105 0.930 . S
C119 C116 1.407 . S
C119 C117 1.345 . S
C120 N115 1.360 . S
C120 C118 1.417 . S
C120 C124 1.432 . S
H121 C126 0.930 . S
N122 Tb84 2.600 . S
N122 C124 1.359 . S
N122 C125 1.327 . S
C123 H109 0.931 . S
C123 C125 1.392 . S
C123 C126 1.370 . S
C124 C120 1.432 . S
C124 N122 1.359 . S
C124 C127 1.414 . S
C125 H107 0.930 . S
C125 N122 1.327 . S
C125 C123 1.392 . S
C126 H121 0.930 . S
C126 C123 1.370 . S
C126 C127 1.385 . S
C127 C124 1.414 . S
C127 C126 1.385 . S
C127 C149 1.444 . S
O128 Tb84 2.546 . S
O128 C148 1.251 . S
O129 Tb84 2.610 . S
O129 Tb95 2.362 . S
O129 C140 1.283 . S
O130 Tb95 2.421 . S
O130 C147 1.262 . S
O131 Tb84 2.320 . S
O131 C147 1.260 . S
O132 Tb84 2.552 . S
O132 C140 1.243 . S
O133 Tb84 2.413 . S
O133 C148 1.256 . S
O134 Tb95 2.546 . S
O134 C159 1.251 . S
O135 Tb84 2.362 . S
O135 Tb95 2.610 . S
O135 C151 1.283 . S
O136 Tb84 2.421 . S
O136 C158 1.262 . S
O137 Tb95 2.320 . S
O137 C158 1.260 . S
O138 Tb95 2.552 . S
O138 C151 1.243 . S
O139 Tb95 2.413 . S
O139 C159 1.256 . S
C140 O129 1.283 . S
C140 O132 1.243 . S
C141 C143 1.382 . S
C141 C145 1.393 . S
C141 C148 1.500 . S
C142 C143 1.400 . S
C142 C144 1.384 . S
C143 C141 1.382 . S
C143 C142 1.400 . S
C143 H160 0.930 . S
C144 C142 1.384 . S
C144 C146 1.392 . S
C144 H161 0.931 . S
C145 C141 1.393 . S
C145 C146 1.401 . S
C145 H162 0.930 . S
C146 C144 1.392 . S
C146 C145 1.401 . S
C146 H163 0.930 . S
C147 O130 1.262 . S
C147 O131 1.260 . S
C148 Tb84 2.833 . S
C148 O128 1.251 . S
C148 O133 1.256 . S
C148 C141 1.500 . S
C149 H114 0.929 . S
C149 C127 1.444 . S
C149 C150 1.317 . S
C150 H112 0.930 . S
C150 C118 1.432 . S
C150 C149 1.317 . S
C151 O135 1.283 . S
C151 O138 1.243 . S
C152 C153 1.382 . S
C152 C156 1.393 . S
C152 C159 1.500 . S
C153 C152 1.382 . S
C153 C154 1.400 . S
C153 H164 0.930 . S
C154 C153 1.400 . S
C154 C155 1.384 . S
C155 C154 1.384 . S
C155 C157 1.392 . S
C155 H165 0.931 . S
C156 C152 1.393 . S
C156 C157 1.401 . S
C156 H166 0.930 . S
C157 C155 1.392 . S
C157 C156 1.401 . S
C157 H167 0.930 . S
C158 O136 1.262 . S
C158 O137 1.260 . S
C159 Tb95 2.833 . S
C159 O134 1.251 . S
C159 O139 1.256 . S
C159 C152 1.500 . S
H160 C143 0.930 . S
H161 C144 0.931 . S
H162 C145 0.930 . S
H163 C146 0.930 . S
H164 C153 0.930 . S
H165 C155 0.931 . S
H166 C156 0.930 . S
H167 C157 0.930 . S
Tb168 N199 2.660 . S
Tb168 N206 2.600 . S
Tb168 O212 2.546 . S
Tb168 O213 2.610 . S
Tb168 O215 2.320 . S
Tb168 O216 2.552 . S
Tb168 O217 2.413 . S
Tb168 O219 2.362 . S
Tb168 O220 2.421 . S
Tb168 C232 2.833 . S
C169 C172 1.432 . S
C169 C173 1.414 . S
C169 N176 1.359 . S
C170 C172 1.417 . S
C170 C174 1.432 . S
C170 C182 1.410 . S
C171 C173 1.444 . S
C171 C174 1.317 . S
C171 H194 0.929 . S
C172 C169 1.432 . S
C172 C170 1.417 . S
C172 N180 1.360 . S
C173 C169 1.414 . S
C173 C171 1.444 . S
C173 C178 1.385 . S
C174 C170 1.432 . S
C174 C171 1.317 . S
C174 H186 0.930 . S
C175 C177 1.392 . S
C175 C178 1.370 . S
C175 H187 0.931 . S
N176 C169 1.359 . S
N176 C177 1.327 . S
N176 Tb179 2.600 . S
C177 C175 1.392 . S
C177 N176 1.327 . S
C177 H184 0.930 . S
C178 C173 1.385 . S
C178 C175 1.370 . S
C178 H197 0.930 . S
Tb179 N176 2.600 . S
Tb179 N180 2.660 . S
Tb179 O213 2.362 . S
Tb179 O214 2.421 . S
Tb179 O218 2.546 . S
Tb179 O219 2.610 . S
Tb179 O221 2.320 . S
Tb179 O222 2.552 . S
Tb179 O223 2.413 . S
Tb179 C243 2.833 . S
N180 C172 1.360 . S
N180 Tb179 2.660 . S
N180 C181 1.305 . S
C181 N180 1.305 . S
C181 C183 1.407 . S
C181 H188 0.930 . S
C182 C170 1.410 . S
C182 C183 1.345 . S
C182 H190 0.930 . S
C183 C181 1.407 . S
C183 C182 1.345 . S
C183 H185 0.930 . S
H184 C177 0.930 . S
H185 C183 0.930 . S
H186 C174 0.930 . S
H187 C175 0.931 . S
H188 C181 0.930 . S
H189 C203 0.930 . S
H190 C182 0.930 . S
H191 C209 0.930 . S
H192 C200 0.930 . S
H193 C207 0.931 . S
H194 C171 0.929 . S
H195 C201 0.930 . S
H196 C234 0.930 . S
H197 C178 0.930 . S
H198 C233 0.929 . S
N199 Tb168 2.660 . S
N199 C200 1.305 . S
N199 C204 1.360 . S
C200 H192 0.930 . S
C200 N199 1.305 . S
C200 C203 1.407 . S
C201 H195 0.930 . S
C201 C202 1.410 . S
C201 C203 1.345 . S
C202 C201 1.410 . S
C202 C204 1.417 . S
C202 C234 1.432 . S
C203 H189 0.930 . S
C203 C200 1.407 . S
C203 C201 1.345 . S
C204 N199 1.360 . S
C204 C202 1.417 . S
C204 C208 1.432 . S
H205 C210 0.930 . S
N206 Tb168 2.600 . S
N206 C208 1.359 . S
N206 C209 1.327 . S
C207 H193 0.931 . S
C207 C209 1.392 . S
C207 C210 1.370 . S
C208 C204 1.432 . S
C208 N206 1.359 . S
C208 C211 1.414 . S
C209 H191 0.930 . S
C209 N206 1.327 . S
C209 C207 1.392 . S
C210 H205 0.930 . S
C210 C207 1.370 . S
C210 C211 1.385 . S
C211 C208 1.414 . S
C211 C210 1.385 . S
C211 C233 1.444 . S
O212 Tb168 2.546 . S
O212 C232 1.251 . S
O213 Tb168 2.610 . S
O213 Tb179 2.362 . S
O213 C224 1.283 . S
O214 Tb179 2.421 . S
O214 C231 1.262 . S
O215 Tb168 2.320 . S
O215 C231 1.260 . S
O216 Tb168 2.552 . S
O216 C224 1.243 . S
O217 Tb168 2.413 . S
O217 C232 1.256 . S
O218 Tb179 2.546 . S
O218 C243 1.251 . S
O219 Tb168 2.362 . S
O219 Tb179 2.610 . S
O219 C235 1.283 . S
O220 Tb168 2.421 . S
O220 C242 1.262 . S
O221 Tb179 2.320 . S
O221 C242 1.260 . S
O222 Tb179 2.552 . S
O222 C235 1.243 . S
O223 Tb179 2.413 . S
O223 C243 1.256 . S
C224 O213 1.283 . S
C224 O216 1.243 . S
C225 C227 1.382 . S
C225 C229 1.393 . S
C225 C232 1.500 . S
C226 C227 1.400 . S
C226 C228 1.384 . S
C227 C225 1.382 . S
C227 C226 1.400 . S
C227 H244 0.930 . S
C228 C226 1.384 . S
C228 C230 1.392 . S
C228 H245 0.931 . S
C229 C225 1.393 . S
C229 C230 1.401 . S
C229 H246 0.930 . S
C230 C228 1.392 . S
C230 C229 1.401 . S
C230 H247 0.930 . S
C231 O214 1.262 . S
C231 O215 1.260 . S
C232 Tb168 2.833 . S
C232 O212 1.251 . S
C232 O217 1.256 . S
C232 C225 1.500 . S
C233 H198 0.929 . S
C233 C211 1.444 . S
C233 C234 1.317 . S
C234 H196 0.930 . S
C234 C202 1.432 . S
C234 C233 1.317 . S
C235 O219 1.283 . S
C235 O222 1.243 . S
C236 C237 1.382 . S
C236 C240 1.393 . S
C236 C243 1.500 . S
C237 C236 1.382 . S
C237 C238 1.400 . S
C237 H248 0.930 . S
C238 C237 1.400 . S
C238 C239 1.384 . S
C239 C238 1.384 . S
C239 C241 1.392 . S
C239 H249 0.931 . S
C240 C236 1.393 . S
C240 C241 1.401 . S
C240 H250 0.930 . S
C241 C239 1.392 . S
C241 C240 1.401 . S
C241 H251 0.930 . S
C242 O220 1.262 . S
C242 O221 1.260 . S
C243 Tb179 2.833 . S
C243 O218 1.251 . S
C243 O223 1.256 . S
C243 C236 1.500 . S
H244 C227 0.930 . S
H245 C228 0.931 . S
H246 C229 0.930 . S
H247 C230 0.930 . S
H248 C237 0.930 . S
H249 C239 0.931 . S
H250 C240 0.930 . S
H251 C241 0.930 . S
Tb252 N283 2.660 . S
Tb252 N290 2.600 . S
Tb252 O296 2.546 . S
Tb252 O297 2.610 . S
Tb252 O299 2.320 . S
Tb252 O300 2.552 . S
Tb252 O301 2.413 . S
Tb252 O303 2.362 1_554 S
Tb252 O304 2.421 . S
Tb252 C316 2.833 . S
C253 C256 1.432 . S
C253 C257 1.414 . S
C253 N260 1.359 1_554 S
C254 C256 1.417 . S
C254 C258 1.432 . S
C254 C266 1.410 . S
C255 C257 1.444 . S
C255 C258 1.317 . S
C255 H278 0.929 . S
C256 C253 1.432 . S
C256 C254 1.417 . S
C256 N264 1.360 . S
C257 C253 1.414 . S
C257 C255 1.444 . S
C257 C262 1.385 1_554 S
C258 C254 1.432 . S
C258 C255 1.317 . S
C258 H270 0.930 . S
C259 C261 1.392 . S
C259 C262 1.370 . S
C259 H271 0.931 . S
N260 C253 1.359 1_556 S
N260 C261 1.327 . S
N260 Tb263 2.600 . S
C261 C259 1.392 . S
C261 N260 1.327 . S
C261 H268 0.930 . S
C262 C257 1.385 1_556 S
C262 C259 1.370 . S
C262 H281 0.930 . S
Tb263 N260 2.600 . S
Tb263 N264 2.660 1_556 S
Tb263 O297 2.362 1_556 S
Tb263 O298 2.421 . S
Tb263 O302 2.546 . S
Tb263 O303 2.610 . S
Tb263 O305 2.320 1_556 S
Tb263 O306 2.552 . S
Tb263 O307 2.413 . S
Tb263 C327 2.833 . S
N264 C256 1.360 . S
N264 Tb263 2.660 1_554 S
N264 C265 1.305 . S
C265 N264 1.305 . S
C265 C267 1.407 . S
C265 H272 0.930 . S
C266 C254 1.410 . S
C266 C267 1.345 . S
C266 H274 0.930 . S
C267 C265 1.407 . S
C267 C266 1.345 . S
C267 H269 0.930 . S
H268 C261 0.930 . S
H269 C267 0.930 . S
H270 C258 0.930 . S
H271 C259 0.931 . S
H272 C265 0.930 . S
H273 C287 0.930 . S
H274 C266 0.930 . S
H275 C293 0.930 . S
H276 C284 0.930 . S
H277 C291 0.931 . S
H278 C255 0.929 . S
H279 C285 0.930 . S
H280 C318 0.930 . S
H281 C262 0.930 . S
H282 C317 0.929 . S
N283 Tb252 2.660 . S
N283 C284 1.305 1_554 S
N283 C288 1.362 . S
C284 H276 0.930 . S
C284 N283 1.305 1_556 S
C284 C287 1.407 . S
C285 H279 0.930 . S
C285 C286 1.410 . S
C285 C287 1.345 . S
C286 C285 1.410 . S
C286 C288 1.399 1_556 S
C286 C318 1.432 . S
C287 H273 0.930 . S
C287 C284 1.407 . S
C287 C285 1.345 . S
C288 N283 1.362 . S
C288 C286 1.399 1_554 S
C288 C292 1.449 . S
H289 C294 0.930 . S
N290 Tb252 2.600 . S
N290 C292 1.359 . S
N290 C293 1.327 . S
C291 H277 0.931 . S
C291 C293 1.392 . S
C291 C294 1.370 . S
C292 C288 1.449 . S
C292 N290 1.359 . S
C292 C295 1.414 . S
C293 H275 0.930 . S
C293 N290 1.327 . S
C293 C291 1.392 . S
C294 H289 0.930 . S
C294 C291 1.370 . S
C294 C295 1.385 . S
C295 C292 1.414 . S
C295 C294 1.385 . S
C295 C317 1.459 . S
O296 Tb252 2.546 . S
O296 C316 1.251 . S
O297 Tb252 2.610 . S
O297 Tb263 2.362 1_554 S
O297 C308 1.283 . S
O298 Tb263 2.421 . S
O298 C315 1.262 1_556 S
O299 Tb252 2.320 . S
O299 C315 1.260 . S
O300 Tb252 2.552 . S
O300 C308 1.243 . S
O301 Tb252 2.413 . S
O301 C316 1.256 . S
O302 Tb263 2.546 . S
O302 C327 1.251 . S
O303 Tb252 2.362 1_556 S
O303 Tb263 2.610 . S
O303 C319 1.283 . S
O304 Tb252 2.421 . S
O304 C326 1.262 . S
O305 Tb263 2.320 1_554 S
O305 C326 1.260 . S
O306 Tb263 2.552 . S
O306 C319 1.243 . S
O307 Tb263 2.413 . S
O307 C327 1.256 . S
C308 O297 1.283 . S
C308 O300 1.243 . S
C309 C311 1.382 . S
C309 C313 1.393 . S
C309 C316 1.500 . S
C310 C311 1.400 . S
C310 C312 1.384 . S
C311 C309 1.382 . S
C311 C310 1.400 . S
C311 H328 0.930 . S
C312 C310 1.384 . S
C312 C314 1.392 . S
C312 H329 0.931 . S
C313 C309 1.393 . S
C313 C314 1.401 . S
C313 H330 0.930 . S
C314 C312 1.392 . S
C314 C313 1.401 . S
C314 H331 0.930 . S
C315 O298 1.262 1_554 S
C315 O299 1.260 . S
C316 Tb252 2.833 . S
C316 O296 1.251 . S
C316 O301 1.256 . S
C316 C309 1.500 . S
C317 H282 0.929 . S
C317 C295 1.459 . S
C317 C318 1.302 1_554 S
C318 H280 0.930 . S
C318 C286 1.432 . S
C318 C317 1.302 1_556 S
C319 O303 1.283 . S
C319 O306 1.243 . S
C320 C321 1.382 . S
C320 C324 1.393 . S
C320 C327 1.500 . S
C321 C320 1.382 . S
C321 C322 1.400 . S
C321 H332 0.930 . S
C322 C321 1.400 . S
C322 C323 1.384 . S
C323 C322 1.384 . S
C323 C325 1.392 . S
C323 H333 0.931 . S
C324 C320 1.393 . S
C324 C325 1.401 . S
C324 H334 0.930 . S
C325 C323 1.392 . S
C325 C324 1.401 . S
C325 H335 0.930 . S
C326 O304 1.262 . S
C326 O305 1.260 . S
C327 Tb263 2.833 . S
C327 O302 1.251 . S
C327 O307 1.256 . S
C327 C320 1.500 . S
H328 C311 0.930 . S
H329 C312 0.931 . S
H330 C313 0.930 . S
H331 C314 0.930 . S
H332 C321 0.930 . S
H333 C323 0.931 . S
H334 C324 0.930 . S
H335 C325 0.930 . S
Tb336 N367 2.660 . S
Tb336 N374 2.600 . S
Tb336 O380 2.546 . S
Tb336 O381 2.610 . S
Tb336 O383 2.320 . S
Tb336 O384 2.552 . S
Tb336 O385 2.413 . S
Tb336 O387 2.362 . S
Tb336 O388 2.421 . S
Tb336 C400 2.833 . S
C337 C340 1.432 . S
C337 C341 1.414 . S
C337 N344 1.359 . S
C338 C340 1.417 . S
C338 C342 1.432 . S
C338 C350 1.410 . S
C339 C341 1.444 . S
C339 C342 1.317 . S
C339 H362 0.929 . S
C340 C337 1.432 . S
C340 C338 1.417 . S
C340 N348 1.360 . S
C341 C337 1.414 . S
C341 C339 1.444 . S
C341 C346 1.385 . S
C342 C338 1.432 . S
C342 C339 1.317 . S
C342 H354 0.930 . S
C343 C345 1.392 . S
C343 C346 1.370 . S
C343 H355 0.931 . S
N344 C337 1.359 . S
N344 C345 1.327 . S
N344 Tb347 2.600 . S
C345 C343 1.392 . S
C345 N344 1.327 . S
C345 H352 0.930 . S
C346 C341 1.385 . S
C346 C343 1.370 . S
C346 H365 0.930 . S
Tb347 N344 2.600 . S
Tb347 N348 2.660 . S
Tb347 O381 2.362 . S
Tb347 O382 2.421 . S
Tb347 O386 2.546 . S
Tb347 O387 2.610 . S
Tb347 O389 2.320 . S
Tb347 O390 2.552 . S
Tb347 O391 2.413 . S
Tb347 C411 2.833 . S
N348 C340 1.360 . S
N348 Tb347 2.660 . S
N348 C349 1.305 . S
C349 N348 1.305 . S
C349 C351 1.407 . S
C349 H356 0.930 . S
C350 C338 1.410 . S
C350 C351 1.345 . S
C350 H358 0.930 . S
C351 C349 1.407 . S
C351 C350 1.345 . S
C351 H353 0.930 . S
H352 C345 0.930 . S
H353 C351 0.930 . S
H354 C342 0.930 . S
H355 C343 0.931 . S
H356 C349 0.930 . S
H357 C371 0.930 . S
H358 C350 0.930 . S
H359 C377 0.930 . S
H360 C368 0.930 . S
H361 C375 0.931 . S
H362 C339 0.929 . S
H363 C369 0.930 . S
H364 C402 0.930 . S
H365 C346 0.930 . S
H366 C401 0.929 . S
N367 Tb336 2.660 . S
N367 C368 1.305 . S
N367 C372 1.360 . S
C368 H360 0.930 . S
C368 N367 1.305 . S
C368 C371 1.407 . S
C369 H363 0.930 . S
C369 C370 1.410 . S
C369 C371 1.345 . S
C370 C369 1.410 . S
C370 C372 1.417 . S
C370 C402 1.432 . S
C371 H357 0.930 . S
C371 C368 1.407 . S
C371 C369 1.345 . S
C372 N367 1.360 . S
C372 C370 1.417 . S
C372 C376 1.432 . S
H373 C378 0.930 . S
N374 Tb336 2.600 . S
N374 C376 1.359 . S
N374 C377 1.327 . S
C375 H361 0.931 . S
C375 C377 1.392 . S
C375 C378 1.370 . S
C376 C372 1.432 . S
C376 N374 1.359 . S
C376 C379 1.414 . S
C377 H359 0.930 . S
C377 N374 1.327 . S
C377 C375 1.392 . S
C378 H373 0.930 . S
C378 C375 1.370 . S
C378 C379 1.385 . S
C379 C376 1.414 . S
C379 C378 1.385 . S
C379 C401 1.444 . S
O380 Tb336 2.546 . S
O380 C400 1.251 . S
O381 Tb336 2.610 . S
O381 Tb347 2.362 . S
O381 C392 1.283 . S
O382 Tb347 2.421 . S
O382 C399 1.262 . S
O383 Tb336 2.320 . S
O383 C399 1.260 . S
O384 Tb336 2.552 . S
O384 C392 1.243 . S
O385 Tb336 2.413 . S
O385 C400 1.256 . S
O386 Tb347 2.546 . S
O386 C411 1.251 . S
O387 Tb336 2.362 . S
O387 Tb347 2.610 . S
O387 C403 1.283 . S
O388 Tb336 2.421 . S
O388 C410 1.262 . S
O389 Tb347 2.320 . S
O389 C410 1.260 . S
O390 Tb347 2.552 . S
O390 C403 1.243 . S
O391 Tb347 2.413 . S
O391 C411 1.256 . S
C392 O381 1.283 . S
C392 O384 1.243 . S
C393 C395 1.382 . S
C393 C397 1.393 . S
C393 C400 1.500 . S
C394 C395 1.400 . S
C394 C396 1.384 . S
C395 C393 1.382 . S
C395 C394 1.400 . S
C395 H412 0.930 . S
C396 C394 1.384 . S
C396 C398 1.392 . S
C396 H413 0.931 . S
C397 C393 1.393 . S
C397 C398 1.401 . S
C397 H414 0.930 . S
C398 C396 1.392 . S
C398 C397 1.401 . S
C398 H415 0.930 . S
C399 O382 1.262 . S
C399 O383 1.260 . S
C400 Tb336 2.833 . S
C400 O380 1.251 . S
C400 O385 1.256 . S
C400 C393 1.500 . S
C401 H366 0.929 . S
C401 C379 1.444 . S
C401 C402 1.317 . S
C402 H364 0.930 . S
C402 C370 1.432 . S
C402 C401 1.317 . S
C403 O387 1.283 . S
C403 O390 1.243 . S
C404 C405 1.382 . S
C404 C408 1.393 . S
C404 C411 1.500 . S
C405 C404 1.382 . S
C405 C406 1.400 . S
C405 H416 0.930 . S
C406 C405 1.400 . S
C406 C407 1.384 . S
C407 C406 1.384 . S
C407 C409 1.392 . S
C407 H417 0.931 . S
C408 C404 1.393 . S
C408 C409 1.401 . S
C408 H418 0.930 . S
C409 C407 1.392 . S
C409 C408 1.401 . S
C409 H419 0.930 . S
C410 O388 1.262 . S
C410 O389 1.260 . S
C411 Tb347 2.833 . S
C411 O386 1.251 . S
C411 O391 1.256 . S
C411 C404 1.500 . S
H412 C395 0.930 . S
H413 C396 0.931 . S
H414 C397 0.930 . S
H415 C398 0.930 . S
H416 C405 0.930 . S
H417 C407 0.931 . S
H418 C408 0.930 . S
H419 C409 0.930 . S
Tb420 N451 2.660 . S
Tb420 N458 2.600 . S
Tb420 O464 2.546 . S
Tb420 O465 2.610 . S
Tb420 O467 2.320 . S
Tb420 O468 2.552 . S
Tb420 O469 2.413 . S
Tb420 O471 2.362 . S
Tb420 O472 2.421 . S
Tb420 C484 2.833 . S
C421 C424 1.432 . S
C421 C425 1.414 . S
C421 N428 1.359 . S
C422 C424 1.417 . S
C422 C426 1.432 . S
C422 C434 1.410 . S
C423 C425 1.444 . S
C423 C426 1.317 . S
C423 H446 0.929 . S
C424 C421 1.432 . S
C424 C422 1.417 . S
C424 N432 1.360 . S
C425 C421 1.414 . S
C425 C423 1.444 . S
C425 C430 1.385 . S
C426 C422 1.432 . S
C426 C423 1.317 . S
C426 H438 0.930 . S
C427 C429 1.392 . S
C427 C430 1.370 . S
C427 H439 0.931 . S
N428 C421 1.359 . S
N428 C429 1.327 . S
N428 Tb431 2.600 . S
C429 C427 1.392 . S
C429 N428 1.327 . S
C429 H436 0.930 . S
C430 C425 1.385 . S
C430 C427 1.370 . S
C430 H449 0.930 . S
Tb431 N428 2.600 . S
Tb431 N432 2.660 . S
Tb431 O465 2.362 . S
Tb431 O466 2.421 . S
Tb431 O470 2.546 . S
Tb431 O471 2.610 . S
Tb431 O473 2.320 . S
Tb431 O474 2.552 . S
Tb431 O475 2.413 . S
Tb431 C495 2.833 . S
N432 C424 1.360 . S
N432 Tb431 2.660 . S
N432 C433 1.305 . S
C433 N432 1.305 . S
C433 C435 1.407 . S
C433 H440 0.930 . S
C434 C422 1.410 . S
C434 C435 1.345 . S
C434 H442 0.930 . S
C435 C433 1.407 . S
C435 C434 1.345 . S
C435 H437 0.930 . S
H436 C429 0.930 . S
H437 C435 0.930 . S
H438 C426 0.930 . S
H439 C427 0.931 . S
H440 C433 0.930 . S
H441 C455 0.930 . S
H442 C434 0.930 . S
H443 C461 0.930 . S
H444 C452 0.930 . S
H445 C459 0.931 . S
H446 C423 0.929 . S
H447 C453 0.930 . S
H448 C486 0.930 . S
H449 C430 0.930 . S
H450 C485 0.929 . S
N451 Tb420 2.660 . S
N451 C452 1.305 . S
N451 C456 1.360 . S
C452 H444 0.930 . S
C452 N451 1.305 . S
C452 C455 1.407 . S
C453 H447 0.930 . S
C453 C454 1.410 . S
C453 C455 1.345 . S
C454 C453 1.410 . S
C454 C456 1.417 . S
C454 C486 1.432 . S
C455 H441 0.930 . S
C455 C452 1.407 . S
C455 C453 1.345 . S
C456 N451 1.360 . S
C456 C454 1.417 . S
C456 C460 1.432 . S
H457 C462 0.930 . S
N458 Tb420 2.600 . S
N458 C460 1.359 . S
N458 C461 1.327 . S
C459 H445 0.931 . S
C459 C461 1.392 . S
C459 C462 1.370 . S
C460 C456 1.432 . S
C460 N458 1.359 . S
C460 C463 1.414 . S
C461 H443 0.930 . S
C461 N458 1.327 . S
C461 C459 1.392 . S
C462 H457 0.930 . S
C462 C459 1.370 . S
C462 C463 1.385 . S
C463 C460 1.414 . S
C463 C462 1.385 . S
C463 C485 1.444 . S
O464 Tb420 2.546 . S
O464 C484 1.251 . S
O465 Tb420 2.610 . S
O465 Tb431 2.362 . S
O465 C476 1.283 . S
O466 Tb431 2.421 . S
O466 C483 1.262 . S
O467 Tb420 2.320 . S
O467 C483 1.260 . S
O468 Tb420 2.552 . S
O468 C476 1.243 . S
O469 Tb420 2.413 . S
O469 C484 1.256 . S
O470 Tb431 2.546 . S
O470 C495 1.251 . S
O471 Tb420 2.362 . S
O471 Tb431 2.610 . S
O471 C487 1.283 . S
O472 Tb420 2.421 . S
O472 C494 1.262 . S
O473 Tb431 2.320 . S
O473 C494 1.260 . S
O474 Tb431 2.552 . S
O474 C487 1.243 . S
O475 Tb431 2.413 . S
O475 C495 1.256 . S
C476 O465 1.283 . S
C476 O468 1.243 . S
C477 C479 1.382 . S
C477 C481 1.393 . S
C477 C484 1.500 . S
C478 C479 1.400 . S
C478 C480 1.384 . S
C479 C477 1.382 . S
C479 C478 1.400 . S
C479 H496 0.930 . S
C480 C478 1.384 . S
C480 C482 1.392 . S
C480 H497 0.931 . S
C481 C477 1.393 . S
C481 C482 1.401 . S
C481 H498 0.930 . S
C482 C480 1.392 . S
C482 C481 1.401 . S
C482 H499 0.930 . S
C483 O466 1.262 . S
C483 O467 1.260 . S
C484 Tb420 2.833 . S
C484 O464 1.251 . S
C484 O469 1.256 . S
C484 C477 1.500 . S
C485 H450 0.929 . S
C485 C463 1.444 . S
C485 C486 1.317 . S
C486 H448 0.930 . S
C486 C454 1.432 . S
C486 C485 1.317 . S
C487 O471 1.283 . S
C487 O474 1.243 . S
C488 C489 1.382 . S
C488 C492 1.393 . S
C488 C495 1.500 . S
C489 C488 1.382 . S
C489 C490 1.400 . S
C489 H500 0.930 . S
C490 C489 1.400 . S
C490 C491 1.384 . S
C491 C490 1.384 . S
C491 C493 1.392 . S
C491 H501 0.931 . S
C492 C488 1.393 . S
C492 C493 1.401 . S
C492 H502 0.930 . S
C493 C491 1.392 . S
C493 C492 1.401 . S
C493 H503 0.930 . S
C494 O472 1.262 . S
C494 O473 1.260 . S
C495 Tb431 2.833 . S
C495 O470 1.251 . S
C495 O475 1.256 . S
C495 C488 1.500 . S
H496 C479 0.930 . S
H497 C480 0.931 . S
H498 C481 0.930 . S
H499 C482 0.930 . S
H500 C489 0.930 . S
H501 C491 0.931 . S
H502 C492 0.930 . S
H503 C493 0.930 . S
C504 C505 1.349 . S
C504 C506 1.327 . S
C504 H529 0.950 . S
C505 C504 1.349 . S
C505 C521 1.349 . S
C506 C504 1.327 . S
C506 C525 1.429 . S
C506 H530 0.950 . S
C507 C524 1.574 . S
C507 C526 1.368 . S
C507 H531 0.949 . S
H508 C512 0.949 . S
C509 C510 1.349 . S
C509 C511 1.327 . S
C509 H532 0.950 . S
C510 C509 1.349 . S
C510 C522 1.349 . S
C511 C509 1.327 . S
C511 C527 1.429 . S
C511 H533 0.950 . S
C512 H508 0.949 . S
C512 C520 1.574 . S
C512 C528 1.368 . S
H513 C521 0.950 . S
H514 C519 0.950 . S
H515 C520 0.949 . S
H516 C522 0.950 . S
H517 C523 0.950 . S
H518 C524 0.949 . S
C519 H514 0.950 . S
C519 C521 1.327 . S
C519 C525 1.429 . S
C520 C512 1.574 . S
C520 H515 0.949 . S
C520 C526 1.368 . S
C521 C505 1.349 . S
C521 H513 0.950 . S
C521 C519 1.327 . S
C522 C510 1.349 . S
C522 H516 0.950 . S
C522 C523 1.327 . S
C523 H517 0.950 . S
C523 C522 1.327 . S
C523 C527 1.429 . S
C524 C507 1.574 . S
C524 H518 0.949 . S
C524 C528 1.368 . S
C525 C506 1.429 . S
C525 C519 1.429 . S
C525 C526 1.523 . S
C526 C507 1.368 . S
C526 C520 1.368 . S
C526 C525 1.523 . S
C527 C511 1.429 . S
C527 C523 1.429 . S
C527 C528 1.523 . S
C528 C512 1.368 . S
C528 C524 1.368 . S
C528 C527 1.523 . S
H529 C504 0.950 . S
H530 C506 0.950 . S
H531 C507 0.949 . S
H532 C509 0.950 . S
H533 C511 0.950 . S
C534 C535 1.349 . S
C534 C536 1.327 . S
C534 H559 0.950 . S
C535 C534 1.349 . S
C535 C551 1.349 . S
C536 C534 1.327 . S
C536 C555 1.429 . S
C536 H560 0.950 . S
C537 C554 1.574 . S
C537 C556 1.368 . S
C537 H561 0.949 . S
H538 C542 0.949 . S
C539 C540 1.349 . S
C539 C541 1.327 . S
C539 H562 0.950 . S
C540 C539 1.349 . S
C540 C552 1.349 . S
C541 C539 1.327 . S
C541 C557 1.429 . S
C541 H563 0.950 . S
C542 H538 0.949 . S
C542 C550 1.574 . S
C542 C558 1.368 . S
H543 C551 0.950 . S
H544 C549 0.950 . S
H545 C550 0.949 . S
H546 C552 0.950 . S
H547 C553 0.950 . S
H548 C554 0.949 . S
C549 H544 0.950 . S
C549 C551 1.327 . S
C549 C555 1.429 . S
C550 C542 1.574 . S
C550 H545 0.949 . S
C550 C556 1.368 . S
C551 C535 1.349 . S
C551 H543 0.950 . S
C551 C549 1.327 . S
C552 C540 1.349 . S
C552 H546 0.950 . S
C552 C553 1.327 . S
C553 H547 0.950 . S
C553 C552 1.327 . S
C553 C557 1.429 . S
C554 C537 1.574 . S
C554 H548 0.949 . S
C554 C558 1.368 . S
C555 C536 1.429 . S
C555 C549 1.429 . S
C555 C556 1.523 . S
C556 C537 1.368 . S
C556 C550 1.368 . S
C556 C555 1.523 . S
C557 C541 1.429 . S
C557 C553 1.429 . S
C557 C558 1.523 . S
C558 C542 1.368 . S
C558 C554 1.368 . S
C558 C557 1.523 . S
H559 C534 0.950 . S
H560 C536 0.950 . S
H561 C537 0.949 . S
H562 C539 0.950 . S
H563 C541 0.950 . S
C564 C565 1.349 . S
C564 C566 1.327 . S
C564 H589 0.950 . S
C565 C564 1.349 . S
C565 C581 1.349 . S
C566 C564 1.327 . S
C566 C585 1.429 . S
C566 H590 0.950 . S
C567 C584 1.574 . S
C567 C586 1.368 . S
C567 H591 0.949 . S
H568 C572 0.949 . S
C569 C570 1.349 . S
C569 C571 1.327 . S
C569 H592 0.950 . S
C570 C569 1.349 . S
C570 C582 1.349 . S
C571 C569 1.327 . S
C571 C587 1.429 . S
C571 H593 0.950 . S
C572 H568 0.949 . S
C572 C580 1.574 . S
C572 C588 1.368 . S
H573 C581 0.950 . S
H574 C579 0.950 . S
H575 C580 0.949 . S
H576 C582 0.950 . S
H577 C583 0.950 . S
H578 C584 0.949 . S
C579 H574 0.950 . S
C579 C581 1.327 . S
C579 C585 1.429 . S
C580 C572 1.574 . S
C580 H575 0.949 . S
C580 C586 1.368 . S
C581 C565 1.349 . S
C581 H573 0.950 . S
C581 C579 1.327 . S
C582 C570 1.349 . S
C582 H576 0.950 . S
C582 C583 1.327 . S
C583 H577 0.950 . S
C583 C582 1.327 . S
C583 C587 1.429 . S
C584 C567 1.574 . S
C584 H578 0.949 . S
C584 C588 1.368 . S
C585 C566 1.429 . S
C585 C579 1.429 . S
C585 C586 1.523 . S
C586 C567 1.368 . S
C586 C580 1.368 . S
C586 C585 1.523 . S
C587 C571 1.429 . S
C587 C583 1.429 . S
C587 C588 1.523 . S
C588 C572 1.368 . S
C588 C584 1.368 . S
C588 C587 1.523 . S
H589 C564 0.950 . S
H590 C566 0.950 . S
H591 C567 0.949 . S
H592 C569 0.950 . S
H593 C571 0.950 . S
C594 C595 1.349 . S
C594 C596 1.327 . S
C594 H619 0.950 . S
C595 C594 1.349 . S
C595 C611 1.349 . S
C596 C594 1.327 . S
C596 C615 1.429 . S
C596 H620 0.950 . S
C597 C614 1.574 . S
C597 C616 1.368 . S
C597 H621 0.949 . S
H598 C602 0.949 . S
C599 C600 1.349 . S
C599 C601 1.327 . S
C599 H622 0.950 . S
C600 C599 1.349 . S
C600 C612 1.349 . S
C601 C599 1.327 . S
C601 C617 1.429 . S
C601 H623 0.950 . S
C602 H598 0.949 . S
C602 C610 1.574 . S
C602 C618 1.368 . S
H603 C611 0.950 . S
H604 C609 0.950 . S
H605 C610 0.949 . S
H606 C612 0.950 . S
H607 C613 0.950 . S
H608 C614 0.949 . S
C609 H604 0.950 . S
C609 C611 1.327 . S
C609 C615 1.429 . S
C610 C602 1.574 . S
C610 H605 0.949 . S
C610 C616 1.368 . S
C611 C595 1.349 . S
C611 H603 0.950 . S
C611 C609 1.327 . S
C612 C600 1.349 . S
C612 H606 0.950 . S
C612 C613 1.327 . S
C613 H607 0.950 . S
C613 C612 1.327 . S
C613 C617 1.429 . S
C614 C597 1.574 . S
C614 H608 0.949 . S
C614 C618 1.368 . S
C615 C596 1.429 . S
C615 C609 1.429 . S
C615 C616 1.523 . S
C616 C597 1.368 . S
C616 C610 1.368 . S
C616 C615 1.523 . S
C617 C601 1.429 . S
C617 C613 1.429 . S
C617 C618 1.523 . S
C618 C602 1.368 . S
C618 C614 1.368 . S
C618 C617 1.523 . S
H619 C594 0.950 . S
H620 C596 0.950 . S
H621 C597 0.949 . S
H622 C599 0.950 . S
H623 C601 0.950 . S
C624 C625 1.349 . S
C624 C626 1.327 . S
C624 H649 0.950 . S
C625 C624 1.349 . S
C625 C641 1.349 . S
C626 C624 1.327 . S
C626 C645 1.429 . S
C626 H650 0.950 . S
C627 C644 1.574 . S
C627 C646 1.368 . S
C627 H651 0.949 . S
H628 C632 0.949 . S
C629 C630 1.349 . S
C629 C631 1.327 . S
C629 H652 0.950 . S
C630 C629 1.349 . S
C630 C642 1.349 . S
C631 C629 1.327 . S
C631 C647 1.429 . S
C631 H653 0.950 . S
C632 H628 0.949 . S
C632 C640 1.574 . S
C632 C648 1.368 . S
H633 C641 0.950 . S
H634 C639 0.950 . S
H635 C640 0.949 . S
H636 C642 0.950 . S
H637 C643 0.950 . S
H638 C644 0.949 . S
C639 H634 0.950 . S
C639 C641 1.327 . S
C639 C645 1.429 . S
C640 C632 1.574 . S
C640 H635 0.949 . S
C640 C646 1.368 . S
C641 C625 1.349 . S
C641 H633 0.950 . S
C641 C639 1.327 . S
C642 C630 1.349 . S
C642 H636 0.950 . S
C642 C643 1.327 . S
C643 H637 0.950 . S
C643 C642 1.327 . S
C643 C647 1.429 . S
C644 C627 1.574 . S
C644 H638 0.949 . S
C644 C648 1.368 . S
C645 C626 1.429 . S
C645 C639 1.429 . S
C645 C646 1.523 . S
C646 C627 1.368 . S
C646 C640 1.368 . S
C646 C645 1.523 . S
C647 C631 1.429 . S
C647 C643 1.429 . S
C647 C648 1.523 . S
C648 C632 1.368 . S
C648 C644 1.368 . S
C648 C647 1.523 . S
H649 C624 0.950 . S
H650 C626 0.950 . S
H651 C627 0.949 . S
H652 C629 0.950 . S
H653 C631 0.950 . S
C654 C655 1.349 . S
C654 C656 1.327 . S
C654 H679 0.950 . S
C655 C654 1.349 . S
C655 C671 1.349 . S
C656 C654 1.327 . S
C656 C675 1.429 . S
C656 H680 0.950 . S
C657 C674 1.574 . S
C657 C676 1.368 . S
C657 H681 0.949 . S
H658 C662 0.949 . S
C659 C660 1.349 . S
C659 C661 1.327 . S
C659 H682 0.950 . S
C660 C659 1.349 . S
C660 C672 1.349 . S
C661 C659 1.327 . S
C661 C677 1.429 . S
C661 H683 0.950 . S
C662 H658 0.949 . S
C662 C670 1.574 . S
C662 C678 1.368 . S
H663 C671 0.950 . S
H664 C669 0.950 . S
H665 C670 0.949 . S
H666 C672 0.950 . S
H667 C673 0.950 . S
H668 C674 0.949 . S
C669 H664 0.950 . S
C669 C671 1.327 . S
C669 C675 1.429 . S
C670 C662 1.574 . S
C670 H665 0.949 . S
C670 C676 1.368 . S
C671 C655 1.349 . S
C671 H663 0.950 . S
C671 C669 1.327 . S
C672 C660 1.349 . S
C672 H666 0.950 . S
C672 C673 1.327 . S
C673 H667 0.950 . S
C673 C672 1.327 . S
C673 C677 1.429 . S
C674 C657 1.574 . S
C674 H668 0.949 . S
C674 C678 1.368 . S
C675 C656 1.429 . S
C675 C669 1.429 . S
C675 C676 1.523 . S
C676 C657 1.368 . S
C676 C670 1.368 . S
C676 C675 1.523 . S
C677 C661 1.429 . S
C677 C673 1.429 . S
C677 C678 1.523 . S
C678 C662 1.368 . S
C678 C674 1.368 . S
C678 C677 1.523 . S
H679 C654 0.950 . S
H680 C656 0.950 . S
H681 C657 0.949 . S
H682 C659 0.950 . S
H683 C661 0.950 . S
C684 C685 1.349 . S
C684 C686 1.327 . S
C684 H709 0.950 . S
C685 C684 1.349 . S
C685 C701 1.349 1_554 S
C686 C684 1.327 . S
C686 C705 1.429 . S
C686 H710 0.950 . S
C687 C704 1.574 . S
C687 C706 1.368 1_556 S
C687 H711 0.949 . S
H688 C692 0.949 . S
C689 C690 1.349 1_556 S
C689 C691 1.327 . S
C689 H712 0.950 . S
C690 C689 1.349 1_554 S
C690 C702 1.349 . S
C691 C689 1.327 . S
C691 C707 1.429 1_556 S
C691 H713 0.950 . S
C692 H688 0.949 . S
C692 C700 1.574 . S
C692 C708 1.368 . S
H693 C701 0.950 . S
H694 C699 0.950 . S
H695 C700 0.949 . S
H696 C702 0.950 . S
H697 C703 0.950 . S
H698 C704 0.949 . S
C699 H694 0.950 . S
C699 C701 1.327 . S
C699 C705 1.429 1_556 S
C700 C692 1.574 . S
C700 H695 0.949 . S
C700 C706 1.368 . S
C701 C685 1.349 1_556 S
C701 H693 0.950 . S
C701 C699 1.327 . S
C702 C690 1.349 . S
C702 H696 0.950 . S
C702 C703 1.327 . S
C703 H697 0.950 . S
C703 C702 1.327 . S
C703 C707 1.429 . S
C704 C687 1.574 . S
C704 H698 0.949 . S
C704 C708 1.368 1_556 S
C705 C686 1.429 . S
C705 C699 1.429 1_554 S
C705 C706 1.523 . S
C706 C687 1.368 1_554 S
C706 C700 1.368 . S
C706 C705 1.523 . S
C707 C691 1.429 1_554 S
C707 C703 1.429 . S
C707 C708 1.523 . S
C708 C692 1.368 . S
C708 C704 1.368 1_554 S
C708 C707 1.523 . S
H709 C684 0.950 . S
H710 C686 0.950 . S
H711 C687 0.949 . S
H712 C689 0.950 . S
H713 C691 0.950 . S
C714 C715 1.349 . S
C714 C716 1.327 . S
C714 H739 0.950 . S
C715 C714 1.349 . S
C715 C731 1.349 . S
C716 C714 1.327 . S
C716 C735 1.429 . S
C716 H740 0.950 . S
C717 C734 1.574 . S
C717 C736 1.368 . S
C717 H741 0.949 . S
H718 C722 0.949 . S
C719 C720 1.349 . S
C719 C721 1.327 . S
C719 H742 0.950 . S
C720 C719 1.349 . S
C720 C732 1.349 . S
C721 C719 1.327 . S
C721 C737 1.429 . S
C721 H743 0.950 . S
C722 H718 0.949 . S
C722 C730 1.574 . S
C722 C738 1.368 . S
H723 C731 0.950 . S
H724 C729 0.950 . S
H725 C730 0.949 . S
H726 C732 0.950 . S
H727 C733 0.950 . S
H728 C734 0.949 . S
C729 H724 0.950 . S
C729 C731 1.327 . S
C729 C735 1.429 . S
C730 C722 1.574 . S
C730 H725 0.949 . S
C730 C736 1.368 1_655 S
C731 C715 1.349 . S
C731 H723 0.950 . S
C731 C729 1.327 . S
C732 C720 1.349 . S
C732 H726 0.950 . S
C732 C733 1.327 . S
C733 H727 0.950 . S
C733 C732 1.327 . S
C733 C737 1.429 . S
C734 C717 1.574 . S
C734 H728 0.949 . S
C734 C738 1.368 1_455 S
C735 C716 1.429 . S
C735 C729 1.429 . S
C735 C736 1.523 . S
C736 C717 1.368 . S
C736 C730 1.368 1_455 S
C736 C735 1.523 . S
C737 C721 1.429 . S
C737 C733 1.429 . S
C737 C738 1.523 . S
C738 C722 1.368 . S
C738 C734 1.368 1_655 S
C738 C737 1.523 . S
H739 C714 0.950 . S
H740 C716 0.950 . S
H741 C717 0.949 . S
H742 C719 0.950 . S
H743 C721 0.950 . S
C744 C745 1.349 . S
C744 C746 1.327 . S
C744 H769 0.950 . S
C745 C744 1.349 . S
C745 C761 1.349 . S
C746 C744 1.327 . S
C746 C765 1.429 . S
C746 H770 0.950 . S
C747 C764 1.574 . S
C747 C766 1.368 1_565 S
C747 H771 0.949 . S
H748 C752 0.949 . S
C749 C750 1.349 . S
C749 C751 1.327 . S
C749 H772 0.950 . S
C750 C749 1.349 . S
C750 C762 1.349 . S
C751 C749 1.327 . S
C751 C767 1.429 . S
C751 H773 0.950 . S
C752 H748 0.949 . S
C752 C760 1.574 . S
C752 C768 1.368 1_545 S
H753 C761 0.950 . S
H754 C759 0.950 . S
H755 C760 0.949 . S
H756 C762 0.950 . S
H757 C763 0.950 . S
H758 C764 0.949 . S
C759 H754 0.950 . S
C759 C761 1.327 . S
C759 C765 1.429 . S
C760 C752 1.574 . S
C760 H755 0.949 . S
C760 C766 1.368 . S
C761 C745 1.349 . S
C761 H753 0.950 . S
C761 C759 1.327 . S
C762 C750 1.349 . S
C762 H756 0.950 . S
C762 C763 1.327 . S
C763 H757 0.950 . S
C763 C762 1.327 . S
C763 C767 1.429 . S
C764 C747 1.574 . S
C764 H758 0.949 . S
C764 C768 1.368 . S
C765 C746 1.429 . S
C765 C759 1.429 . S
C765 C766 1.523 . S
C766 C747 1.368 1_545 S
C766 C760 1.368 . S
C766 C765 1.523 . S
C767 C751 1.429 . S
C767 C763 1.429 . S
C767 C768 1.523 . S
C768 C752 1.368 1_565 S
C768 C764 1.368 . S
C768 C767 1.523 . S
H769 C744 0.950 . S
H770 C746 0.950 . S
H771 C747 0.949 . S
H772 C749 0.950 . S
H773 C751 0.950 . S
C774 C775 1.349 . S
C774 C776 1.327 . S
C774 H799 0.950 . S
C775 C774 1.349 . S
C775 C791 1.349 . S
C776 C774 1.327 . S
C776 C795 1.429 . S
C776 H800 0.950 . S
C777 C794 1.574 . S
C777 C796 1.368 . S
C777 H801 0.949 . S
H778 C782 0.949 . S
C779 C780 1.349 . S
C779 C781 1.327 . S
C779 H802 0.950 . S
C780 C779 1.349 . S
C780 C792 1.349 . S
C781 C779 1.327 . S
C781 C797 1.429 . S
C781 H803 0.950 . S
C782 H778 0.949 . S
C782 C790 1.574 . S
C782 C798 1.368 . S
H783 C791 0.950 . S
H784 C789 0.950 . S
H785 C790 0.949 . S
H786 C792 0.950 . S
H787 C793 0.950 . S
H788 C794 0.949 . S
C789 H784 0.950 . S
C789 C791 1.327 . S
C789 C795 1.429 . S
C790 C782 1.574 . S
C790 H785 0.949 . S
C790 C796 1.368 . S
C791 C775 1.349 . S
C791 H783 0.950 . S
C791 C789 1.327 . S
C792 C780 1.349 . S
C792 H786 0.950 . S
C792 C793 1.327 . S
C793 H787 0.950 . S
C793 C792 1.327 . S
C793 C797 1.429 . S
C794 C777 1.574 . S
C794 H788 0.949 . S
C794 C798 1.368 . S
C795 C776 1.429 . S
C795 C789 1.429 . S
C795 C796 1.523 . S
C796 C777 1.368 . S
C796 C790 1.368 . S
C796 C795 1.523 . S
C797 C781 1.429 . S
C797 C793 1.429 . S
C797 C798 1.523 . S
C798 C782 1.368 . S
C798 C794 1.368 . S
C798 C797 1.523 . S
H799 C774 0.950 . S
H800 C776 0.950 . S
H801 C777 0.949 . S
H802 C779 0.950 . S
H803 C781 0.950 . S
C804 C805 1.349 1_556 S
C804 C806 1.327 . S
C804 H829 0.950 . S
C805 C804 1.349 1_554 S
C805 C821 1.349 . S
C806 C804 1.327 . S
C806 C825 1.429 1_556 S
C806 H830 0.950 . S
C807 C824 1.574 . S
C807 C826 1.368 . S
C807 H831 0.949 . S
H808 C812 0.949 . S
C809 C810 1.349 . S
C809 C811 1.327 . S
C809 H832 0.950 . S
C810 C809 1.349 . S
C810 C822 1.349 1_554 S
C811 C809 1.327 . S
C811 C827 1.429 . S
C811 H833 0.950 . S
C812 H808 0.949 . S
C812 C820 1.574 . S
C812 C828 1.368 1_556 S
H813 C821 0.950 . S
H814 C819 0.950 . S
H815 C820 0.949 . S
H816 C822 0.950 . S
H817 C823 0.950 . S
H818 C824 0.949 . S
C819 H814 0.950 . S
C819 C821 1.327 . S
C819 C825 1.429 . S
C820 C812 1.574 . S
C820 H815 0.949 . S
C820 C826 1.368 1_656 S
C821 C805 1.349 . S
C821 H813 0.950 . S
C821 C819 1.327 . S
C822 C810 1.349 1_556 S
C822 H816 0.950 . S
C822 C823 1.327 . S
C823 H817 0.950 . S
C823 C822 1.327 . S
C823 C827 1.429 1_556 S
C824 C807 1.574 . S
C824 H818 0.949 . S
C824 C828 1.368 1_455 S
C825 C806 1.429 1_554 S
C825 C819 1.429 . S
C825 C826 1.523 . S
C826 C807 1.368 . S
C826 C820 1.368 1_454 S
C826 C825 1.523 . S
C827 C811 1.429 . S
C827 C823 1.429 1_554 S
C827 C828 1.523 . S
C828 C812 1.368 1_554 S
C828 C824 1.368 1_655 S
C828 C827 1.523 . S
H829 C804 0.950 . S
H830 C806 0.950 . S
H831 C807 0.949 . S
H832 C809 0.950 . S
H833 C811 0.950 . S
C834 C835 1.349 . S
C834 C836 1.327 . S
C834 H859 0.950 . S
C835 C834 1.349 . S
C835 C851 1.349 . S
C836 C834 1.327 . S
C836 C855 1.429 . S
C836 H860 0.950 . S
C837 C854 1.574 . S
C837 C856 1.368 . S
C837 H861 0.949 . S
H838 C842 0.949 . S
C839 C840 1.349 . S
C839 C841 1.327 . S
C839 H862 0.950 . S
C840 C839 1.349 . S
C840 C852 1.349 . S
C841 C839 1.327 . S
C841 C857 1.429 . S
C841 H863 0.950 . S
C842 H838 0.949 . S
C842 C850 1.574 . S
C842 C858 1.368 . S
H843 C851 0.950 . S
H844 C849 0.950 . S
H845 C850 0.949 . S
H846 C852 0.950 . S
H847 C853 0.950 . S
H848 C854 0.949 . S
C849 H844 0.950 . S
C849 C851 1.327 . S
C849 C855 1.429 . S
C850 C842 1.574 . S
C850 H845 0.949 . S
C850 C856 1.368 1_545 S
C851 C835 1.349 . S
C851 H843 0.950 . S
C851 C849 1.327 . S
C852 C840 1.349 . S
C852 H846 0.950 . S
C852 C853 1.327 . S
C853 H847 0.950 . S
C853 C852 1.327 . S
C853 C857 1.429 . S
C854 C837 1.574 . S
C854 H848 0.949 . S
C854 C858 1.368 1_565 S
C855 C836 1.429 . S
C855 C849 1.429 . S
C855 C856 1.523 . S
C856 C837 1.368 . S
C856 C850 1.368 1_565 S
C856 C855 1.523 . S
C857 C841 1.429 . S
C857 C853 1.429 . S
C857 C858 1.523 . S
C858 C842 1.368 . S
C858 C854 1.368 1_545 S
C858 C857 1.523 . S
H859 C834 0.950 . S
H860 C836 0.950 . S
H861 C837 0.949 . S
H862 C839 0.950 . S
H863 C841 0.950 . S
C864 C865 1.349 . S
C864 C866 1.327 . S
C864 H889 0.950 . S
C865 C864 1.349 . S
C865 C881 1.349 . S
C866 C864 1.327 . S
C866 C885 1.429 . S
C866 H890 0.950 . S
C867 C884 1.574 . S
C867 C886 1.368 . S
C867 H891 0.949 . S
H868 C872 0.949 . S
C869 C870 1.349 . S
C869 C871 1.327 . S
C869 H892 0.950 . S
C870 C869 1.349 . S
C870 C882 1.349 . S
C871 C869 1.327 . S
C871 C887 1.429 . S
C871 H893 0.950 . S
C872 H868 0.949 . S
C872 C880 1.574 . S
C872 C888 1.368 . S
H873 C881 0.950 . S
H874 C879 0.950 . S
H875 C880 0.949 . S
H876 C882 0.950 . S
H877 C883 0.950 . S
H878 C884 0.949 . S
C879 H874 0.950 . S
C879 C881 1.327 . S
C879 C885 1.429 . S
C880 C872 1.574 . S
C880 H875 0.949 . S
C880 C886 1.368 . S
C881 C865 1.349 . S
C881 H873 0.950 . S
C881 C879 1.327 . S
C882 C870 1.349 . S
C882 H876 0.950 . S
C882 C883 1.327 . S
C883 H877 0.950 . S
C883 C882 1.327 . S
C883 C887 1.429 . S
C884 C867 1.574 . S
C884 H878 0.949 . S
C884 C888 1.368 . S
C885 C866 1.429 . S
C885 C879 1.429 . S
C885 C886 1.523 . S
C886 C867 1.368 . S
C886 C880 1.368 . S
C886 C885 1.523 . S
C887 C871 1.429 . S
C887 C883 1.429 . S
C887 C888 1.523 . S
C888 C872 1.368 . S
C888 C884 1.368 . S
C888 C887 1.523 . S
H889 C864 0.950 . S
H890 C866 0.950 . S
H891 C867 0.949 . S
H892 C869 0.950 . S
H893 C871 0.950 . S
C894 C895 1.349 . S
C894 C896 1.327 1_655 S
C894 H919 0.950 . S
C895 C894 1.349 . S
C895 C911 1.349 . S
C896 C894 1.327 1_455 S
C896 C915 1.429 . S
C896 H920 0.950 . S
C897 C914 1.574 . S
C897 C916 1.368 . S
C897 H921 0.949 . S
H898 C902 0.949 . S
C899 C900 1.349 . S
C899 C901 1.327 . S
C899 H922 0.950 . S
C900 C899 1.349 . S
C900 C912 1.349 . S
C901 C899 1.327 . S
C901 C917 1.429 . S
C901 H923 0.950 . S
C902 H898 0.949 . S
C902 C910 1.574 . S
C902 C918 1.368 . S
H903 C911 0.950 . S
H904 C909 0.950 . S
H905 C910 0.949 . S
H906 C912 0.950 . S
H907 C913 0.950 . S
H908 C914 0.949 . S
C909 H904 0.950 . S
C909 C911 1.327 . S
C909 C915 1.429 1_655 S
C910 C902 1.574 . S
C910 H905 0.949 . S
C910 C916 1.368 . S
C911 C895 1.349 . S
C911 H903 0.950 . S
C911 C909 1.327 . S
C912 C900 1.349 . S
C912 H906 0.950 . S
C912 C913 1.327 . S
C913 H907 0.950 . S
C913 C912 1.327 . S
C913 C917 1.429 . S
C914 C897 1.574 . S
C914 H908 0.949 . S
C914 C918 1.368 . S
C915 C896 1.429 . S
C915 C909 1.429 1_455 S
C915 C916 1.523 . S
C916 C897 1.368 . S
C916 C910 1.368 . S
C916 C915 1.523 . S
C917 C901 1.429 . S
C917 C913 1.429 . S
C917 C918 1.523 . S
C918 C902 1.368 . S
C918 C914 1.368 . S
C918 C917 1.523 . S
H919 C894 0.950 . S
H920 C896 0.950 . S
H921 C897 0.949 . S
H922 C899 0.950 . S
H923 C901 0.950 . S
C924 C925 1.349 . S
C924 C926 1.327 1_565 S
C924 H949 0.950 1_565 S
C925 C924 1.349 . S
C925 C941 1.349 . S
C926 C924 1.327 1_545 S
C926 C945 1.429 . S
C926 H950 0.950 . S
C927 C944 1.574 . S
C927 C946 1.368 . S
C927 H951 0.949 1_545 S
H928 C932 0.949 . S
C929 C930 1.349 . S
C929 C931 1.327 . S
C929 H952 0.950 . S
C930 C929 1.349 . S
C930 C942 1.349 . S
C931 C929 1.327 . S
C931 C947 1.429 . S
C931 H953 0.950 . S
C932 H928 0.949 . S
C932 C940 1.574 . S
C932 C948 1.368 . S
H933 C941 0.950 . S
H934 C939 0.950 . S
H935 C940 0.949 . S
H936 C942 0.950 . S
H937 C943 0.950 . S
H938 C944 0.949 . S
C939 H934 0.950 . S
C939 C941 1.327 . S
C939 C945 1.429 1_565 S
C940 C932 1.574 . S
C940 H935 0.949 . S
C940 C946 1.368 . S
C941 C925 1.349 . S
C941 H933 0.950 . S
C941 C939 1.327 . S
C942 C930 1.349 . S
C942 H936 0.950 . S
C942 C943 1.327 . S
C943 H937 0.950 . S
C943 C942 1.327 . S
C943 C947 1.429 . S
C944 C927 1.574 . S
C944 H938 0.949 . S
C944 C948 1.368 . S
C945 C926 1.429 . S
C945 C939 1.429 1_545 S
C945 C946 1.523 . S
C946 C927 1.368 . S
C946 C940 1.368 . S
C946 C945 1.523 . S
C947 C931 1.429 . S
C947 C943 1.429 . S
C947 C948 1.523 . S
C948 C932 1.368 . S
C948 C944 1.368 . S
C948 C947 1.523 . S
H949 C924 0.950 1_545 S
H950 C926 0.950 . S
H951 C927 0.949 1_565 S
H952 C929 0.950 . S
H953 C931 0.950 . S
C954 C955 1.349 . S
C954 C956 1.327 . S
C954 H979 0.950 . S
C955 C954 1.349 . S
C955 C971 1.349 . S
C956 C954 1.327 . S
C956 C975 1.429 . S
C956 H980 0.950 . S
C957 C974 1.574 . S
C957 C976 1.368 . S
C957 H981 0.949 . S
H958 C962 0.949 . S
C959 C960 1.349 . S
C959 C961 1.327 . S
C959 H982 0.950 . S
C960 C959 1.349 . S
C960 C972 1.349 . S
C961 C959 1.327 . S
C961 C977 1.429 . S
C961 H983 0.950 . S
C962 H958 0.949 . S
C962 C970 1.574 . S
C962 C978 1.368 . S
H963 C971 0.950 . S
H964 C969 0.950 . S
H965 C970 0.949 . S
H966 C972 0.950 . S
H967 C973 0.950 . S
H968 C974 0.949 . S
C969 H964 0.950 . S
C969 C971 1.327 . S
C969 C975 1.429 . S
C970 C962 1.574 . S
C970 H965 0.949 . S
C970 C976 1.368 . S
C971 C955 1.349 . S
C971 H963 0.950 . S
C971 C969 1.327 . S
C972 C960 1.349 . S
C972 H966 0.950 . S
C972 C973 1.327 . S
C973 H967 0.950 . S
C973 C972 1.327 . S
C973 C977 1.429 . S
C974 C957 1.574 . S
C974 H968 0.949 . S
C974 C978 1.368 . S
C975 C956 1.429 . S
C975 C969 1.429 . S
C975 C976 1.523 . S
C976 C957 1.368 . S
C976 C970 1.368 . S
C976 C975 1.523 . S
C977 C961 1.429 . S
C977 C973 1.429 . S
C977 C978 1.523 . S
C978 C962 1.368 . S
C978 C974 1.368 . S
C978 C977 1.523 . S
H979 C954 0.950 . S
H980 C956 0.950 . S
H981 C957 0.949 . S
H982 C959 0.950 . S
H983 C961 0.950 . S
C984 C985 1.349 . S
C984 C986 1.327 1_455 S
C984 H1009 0.950 . S
C985 C984 1.349 . S
C985 C1001 1.349 . S
C986 C984 1.327 1_655 S
C986 C1005 1.429 . S
C986 H1010 0.950 . S
C987 C1004 1.574 . S
C987 C1006 1.368 . S
C987 H1011 0.949 . S
H988 C992 0.949 . S
C989 C990 1.349 . S
C989 C991 1.327 . S
C989 H1012 0.950 . S
C990 C989 1.349 . S
C990 C1002 1.349 . S
C991 C989 1.327 . S
C991 C1007 1.429 . S
C991 H1013 0.950 . S
C992 H988 0.949 . S
C992 C1000 1.574 . S
C992 C1008 1.368 . S
H993 C1001 0.950 . S
H994 C999 0.950 . S
H995 C1000 0.949 . S
H996 C1002 0.950 . S
H997 C1003 0.950 . S
H998 C1004 0.949 . S
C999 H994 0.950 . S
C999 C1001 1.327 . S
C999 C1005 1.429 1_455 S
C1000 C992 1.574 . S
C1000 H995 0.949 . S
C1000 C1006 1.368 . S
C1001 C985 1.349 . S
C1001 H993 0.950 . S
C1001 C999 1.327 . S
C1002 C990 1.349 . S
C1002 H996 0.950 . S
C1002 C1003 1.327 . S
C1003 H997 0.950 . S
C1003 C1002 1.327 . S
C1003 C1007 1.429 . S
C1004 C987 1.574 . S
C1004 H998 0.949 . S
C1004 C1008 1.368 . S
C1005 C986 1.429 . S
C1005 C999 1.429 1_655 S
C1005 C1006 1.523 . S
C1006 C987 1.368 . S
C1006 C1000 1.368 . S
C1006 C1005 1.523 . S
C1007 C991 1.429 . S
C1007 C1003 1.429 . S
C1007 C1008 1.523 . S
C1008 C992 1.368 . S
C1008 C1004 1.368 . S
C1008 C1007 1.523 . S
H1009 C984 0.950 . S
H1010 C986 0.950 . S
H1011 C987 0.949 . S
H1012 C989 0.950 . S
H1013 C991 0.950 . S
C1014 C1015 1.349 . S
C1014 C1016 1.327 1_545 S
C1014 H1039 0.950 1_545 S
C1015 C1014 1.349 . S
C1015 C1031 1.349 . S
C1016 C1014 1.327 1_565 S
C1016 C1035 1.429 . S
C1016 H1040 0.950 . S
C1017 C1034 1.574 . S
C1017 C1036 1.368 . S
C1017 H1041 0.949 1_565 S
H1018 C1022 0.949 . S
C1019 C1020 1.349 . S
C1019 C1021 1.327 . S
C1019 H1042 0.950 . S
C1020 C1019 1.349 . S
C1020 C1032 1.349 . S
C1021 C1019 1.327 . S
C1021 C1037 1.429 . S
C1021 H1043 0.950 . S
C1022 H1018 0.949 . S
C1022 C1030 1.574 . S
C1022 C1038 1.368 . S
H1023 C1031 0.950 . S
H1024 C1029 0.950 . S
H1025 C1030 0.949 . S
H1026 C1032 0.950 . S
H1027 C1033 0.950 . S
H1028 C1034 0.949 . S
C1029 H1024 0.950 . S
C1029 C1031 1.327 . S
C1029 C1035 1.429 1_545 S
C1030 C1022 1.574 . S
C1030 H1025 0.949 . S
C1030 C1036 1.368 . S
C1031 C1015 1.349 . S
C1031 H1023 0.950 . S
C1031 C1029 1.327 . S
C1032 C1020 1.349 . S
C1032 H1026 0.950 . S
C1032 C1033 1.327 . S
C1033 H1027 0.950 . S
C1033 C1032 1.327 . S
C1033 C1037 1.429 . S
C1034 C1017 1.574 . S
C1034 H1028 0.949 . S
C1034 C1038 1.368 . S
C1035 C1016 1.429 . S
C1035 C1029 1.429 1_565 S
C1035 C1036 1.523 . S
C1036 C1017 1.368 . S
C1036 C1030 1.368 . S
C1036 C1035 1.523 . S
C1037 C1021 1.429 . S
C1037 C1033 1.429 . S
C1037 C1038 1.523 . S
C1038 C1022 1.368 . S
C1038 C1034 1.368 . S
C1038 C1037 1.523 . S
H1039 C1014 0.950 1_565 S
H1040 C1016 0.950 . S
H1041 C1017 0.949 1_545 S
H1042 C1019 0.950 . S
H1043 C1021 0.950 . S
C505 C403 1.111 . S
C510 C58 0.990 . S
C535 C487 1.112 . S
C540 C142 0.990 . S
C565 C67 1.112 . S
C570 C226 0.990 . S
C595 C151 1.111 . S
C600 C310 0.990 . S
C625 C235 1.112 . S
C630 C394 0.990 . S
C655 C319 1.112 . S
C660 C478 0.990 . S
C685 C74 1.627 . S
C690 C326 1.627 . S
C715 C410 1.627 . S
C720 C158 1.627 . S
C745 C494 1.626 . S
C750 C242 1.626 . S
C775 C231 1.679 . S
C780 C483 1.679 . S
C805 C63 1.680 . S
C810 C315 1.680 . S
C835 C399 1.680 . S
C840 C147 1.680 . S
C865 C476 1.197 . S
C870 C70 1.183 . S
C895 C154 1.184 . S
C900 C56 1.197 . S
C925 C238 1.183 . S
C930 C140 1.196 . S
C955 C224 1.196 . S
C960 C322 1.183 . S
C985 C406 1.184 . S
C990 C308 1.197 . S
C1015 C490 1.183 . S
C1020 C392 1.196 . S
