# Generated by pormake.
# Topology umb, (4)-cn, num edge types: 1
# Building blocks:
#     Node 0, Type 0, BuildingBlock: KOZSID_clean_sbu_0, # of connection points: 4
#     Node 1, Type 0, BuildingBlock: KOZSID_clean_sbu_0, # of connection points: 4
#     Node 2, Type 0, BuildingBlock: KOZSID_clean_sbu_0, # of connection points: 4
#     Node 3, Type 0, BuildingBlock: KOZSID_clean_sbu_0, # of connection points: 4
#     Node 4, Type 0, BuildingBlock: KOZSID_clean_sbu_0, # of connection points: 4
#     Node 5, Type 0, BuildingBlock: KOZSID_clean_sbu_0, # of connection points: 4
#     Node 6, Type 0, BuildingBlock: KOZSID_clean_sbu_0, # of connection points: 4
#     Node 7, Type 0, BuildingBlock: KOZSID_clean_sbu_0, # of connection points: 4
#     Node 8, Type 0, BuildingBlock: KOZSID_clean_sbu_0, # of connection points: 4
#     Node 9, Type 0, BuildingBlock: KOZSID_clean_sbu_0, # of connection points: 4
#     Node 10, Type 0, BuildingBlock: KOZSID_clean_sbu_0, # of connection points: 4
#     Node 11, Type 0, BuildingBlock: KOZSID_clean_sbu_0, # of connection points: 4
#     Edge 12, Type (0, 0), None
#     Edge 13, Type (0, 0), None
#     Edge 14, Type (0, 0), None
#     Edge 15, Type (0, 0), None
#     Edge 16, Type (0, 0), None
#     Edge 17, Type (0, 0), None
#     Edge 18, Type (0, 0), None
#     Edge 19, Type (0, 0), None
#     Edge 20, Type (0, 0), None
#     Edge 21, Type (0, 0), None
#     Edge 22, Type (0, 0), None
#     Edge 23, Type (0, 0), None
#     Edge 24, Type (0, 0), None
#     Edge 25, Type (0, 0), None
#     Edge 26, Type (0, 0), None
#     Edge 27, Type (0, 0), None
#     Edge 28, Type (0, 0), None
#     Edge 29, Type (0, 0), None
#     Edge 30, Type (0, 0), None
#     Edge 31, Type (0, 0), None
#     Edge 32, Type (0, 0), None
#     Edge 33, Type (0, 0), None
#     Edge 34, Type (0, 0), None
#     Edge 35, Type (0, 0), None
# Relax obj value: 0.259
# Max RMSD: 0.246
# Mean RMSD: 0.245
data_MOF--net-umb--node1-KOZSID_clean_sbu_0--edge1-none
_symmetry_space_group_name_H-M    P1
_symmetry_Int_Tables_number       1
_symmetry_cell_setting            triclinic
loop_
_symmetry_equiv_pos_as_xyz
'x, y, z'
_cell_length_a     34.27401
_cell_length_b     34.339948
_cell_length_c     19.897757
_cell_angle_alpha  90.00005
_cell_angle_beta   90.000023
_cell_angle_gamma 119.98493
loop_
_atom_site_label
_atom_site_type_symbol
_atom_site_fract_x
_atom_site_fract_y
_atom_site_fract_z
_atom_type_partial_charge
C0 C 0.57012 0.23577 0.17606 0.0
C1 C 0.58797 0.23419 0.11461 0.0
C2 C 0.60925 0.2091 0.12275 0.0
C3 C 0.60255 0.19544 0.18895 0.0
N4 N 0.57704 0.20902 0.22089 0.0
Co5 Co 0.56384 0.20104 0.31838 0.0
N6 N 0.61542 0.19378 0.34321 0.0
C7 C 0.63259 0.17678 0.2985 0.0
C8 C 0.65133 0.15441 0.32975 0.0
C9 C 0.64578 0.15809 0.39766 0.0
C10 C 0.62665 0.18537 0.4056 0.0
N11 N 0.54913 0.19717 0.41564 0.0
C12 C 0.57724 0.208 0.46915 0.0
C13 C 0.56094 0.22217 0.52211 0.0
C14 C 0.51802 0.21164 0.50528 0.0
C15 C 0.51185 0.19554 0.44077 0.0
N16 N 0.5125 0.21023 0.29191 0.0
C17 C 0.47569 0.19892 0.32943 0.0
C18 C 0.45081 0.21729 0.30515 0.0
C19 C 0.47447 0.24371 0.25169 0.0
C20 C 0.51236 0.23949 0.24451 0.0
N21 N 0.53023 0.13105 0.31119 0.0
C22 C 0.53518 0.04696 0.30754 0.0
C23 C 0.53089 0.06683 0.36759 0.0
C24 C 0.52784 0.10694 0.36833 0.0
C25 C 0.53069 0.06833 0.24891 0.0
C26 C 0.52709 0.1086 0.25183 0.0
N27 N 0.60255 0.26651 0.32581 0.0
C28 C 0.62686 0.33974 0.37283 0.0
C29 C 0.66428 0.35858 0.32945 0.0
C30 C 0.66984 0.33075 0.28484 0.0
C31 C 0.64116 0.28508 0.2882 0.0
C32 C 0.59466 0.29373 0.3671 0.0
H33 H 0.65141 0.26488 0.26083 0.0
H34 H 0.56475 0.28018 0.39762 0.0
H35 H 0.52756 0.11984 0.41739 0.0
H36 H 0.52483 0.12291 0.20472 0.0
C37 C 0.62613 0.17894 0.22784 0.0
C38 C 0.54804 0.26384 0.19243 0.0
C39 C 0.61516 0.19859 0.47281 0.0
C40 C 0.47777 0.192 0.39816 0.0
H41 H 0.58574 0.24973 0.06926 0.0
H42 H 0.62927 0.20383 0.08573 0.0
H43 H 0.66491 0.13534 0.30617 0.0
H44 H 0.65405 0.14161 0.4369 0.0
H45 H 0.5775 0.23728 0.56905 0.0
H46 H 0.49552 0.21851 0.53458 0.0
H47 H 0.42262 0.21732 0.32965 0.0
H48 H 0.46617 0.26573 0.22406 0.0
H49 H 0.53121 0.0527 0.41586 0.0
H50 H 0.53088 0.05484 0.19992 0.0
H51 H 0.62287 0.36011 0.41068 0.0
H52 H 0.69996 0.34342 0.25416 0.0
C53 C 0.36049 0.5573 0.50955 0.0
C54 C 0.38 0.57512 0.44814 0.0
C55 C 0.42639 0.5963 0.45642 0.0
C56 C 0.43327 0.58958 0.52266 0.0
N57 N 0.39412 0.56419 0.55451 0.0
Co58 Co 0.38875 0.55108 0.65205 0.0
N59 N 0.44764 0.60247 0.67693 0.0
C60 C 0.48189 0.61951 0.63229 0.0
C61 C 0.52299 0.63811 0.66363 0.0
C62 C 0.5137 0.63261 0.73152 0.0
C63 C 0.46726 0.61366 0.73935 0.0
N64 N 0.3778 0.53649 0.74933 0.0
C65 C 0.3951 0.56455 0.80282 0.0
C66 C 0.36458 0.54839 0.85577 0.0
C67 C 0.33213 0.50559 0.83894 0.0
C68 C 0.34208 0.49936 0.77446 0.0
N69 N 0.32821 0.49992 0.62555 0.0
C70 C 0.30262 0.46323 0.66311 0.0
C71 C 0.2594 0.43842 0.63867 0.0
C72 C 0.25673 0.46201 0.58504 0.0
C73 C 0.29887 0.49978 0.57796 0.0
N74 N 0.42506 0.51734 0.64509 0.0
C75 C 0.51411 0.5221 0.64152 0.0
C76 C 0.48997 0.51793 0.70158 0.0
C77 C 0.44678 0.51496 0.70227 0.0
C78 C 0.48822 0.51755 0.58288 0.0
C79 C 0.44432 0.51405 0.58576 0.0
N80 N 0.36201 0.58987 0.6592 0.0
C81 C 0.31302 0.61434 0.7059 0.0
C82 C 0.33165 0.65164 0.66245 0.0
C83 C 0.3651 0.65706 0.61793 0.0
C84 C 0.38208 0.62835 0.62149 0.0
C85 C 0.32684 0.58212 0.70038 0.0
H86 H 0.41258 0.6385 0.59419 0.0
H87 H 0.31045 0.55231 0.73097 0.0
H88 H 0.43359 0.51478 0.75132 0.0
H89 H 0.42771 0.51174 0.53865 0.0
C90 C 0.47333 0.61305 0.56163 0.0
C91 C 0.3103 0.53535 0.52578 0.0
C92 C 0.44249 0.60228 0.80653 0.0
C93 C 0.31154 0.46535 0.73188 0.0
H94 H 0.36228 0.57297 0.40272 0.0
H95 H 0.45174 0.61629 0.41947 0.0
H96 H 0.55569 0.65157 0.64011 0.0
H97 H 0.53844 0.64081 0.7708 0.0
H98 H 0.36606 0.56496 0.90269 0.0
H99 H 0.30273 0.48321 0.86824 0.0
H100 H 0.23112 0.41033 0.66313 0.0
H101 H 0.22645 0.45373 0.5572 0.0
H102 H 0.50445 0.5183 0.74986 0.0
H103 H 0.5019 0.51764 0.5339 0.0
H104 H 0.28865 0.61046 0.74372 0.0
H105 H 0.38258 0.68709 0.58719 0.0
C106 C 0.82915 0.34715 0.84258 0.0
C107 C 0.83079 0.36655 0.78111 0.0
C108 C 0.85588 0.41286 0.78929 0.0
C109 C 0.86948 0.41982 0.85553 0.0
N110 N 0.85587 0.38079 0.88745 0.0
Co111 Co 0.86375 0.37555 0.98498 0.0
N112 N 0.87097 0.43427 0.00978 0.0
C113 C 0.88801 0.46841 0.96508 0.0
C114 C 0.91035 0.50947 0.99635 0.0
C115 C 0.90661 0.50025 0.06426 0.0
C116 C 0.87932 0.45389 0.07217 0.0
N117 N 0.86754 0.36472 0.08226 0.0
C118 C 0.85667 0.38196 0.13575 0.0
C119 C 0.84247 0.35153 0.18873 0.0
C120 C 0.85304 0.31923 0.17193 0.0
C121 C 0.86919 0.32916 0.10743 0.0
N122 N 0.85462 0.31516 0.95855 0.0
C123 C 0.86593 0.28972 0.99612 0.0
C124 C 0.8476 0.24655 0.97181 0.0
C125 C 0.82119 0.24376 0.91826 0.0
C126 C 0.82538 0.28578 0.91108 0.0
N127 N 0.93386 0.41198 0.97794 0.0
C128 C 1.01798 0.50101 0.97433 0.0
C129 C 0.99807 0.47688 0.03439 0.0
C130 C 0.95795 0.43371 0.0351 0.0
C131 C 0.99667 0.47514 0.9157 0.0
C132 C 0.95638 0.43126 0.9186 0.0
N133 N 0.79815 0.34871 0.99224 0.0
C134 C 0.72477 0.29979 0.03923 0.0
C135 C 0.7059 0.31826 0.99578 0.0
C136 C 0.73378 0.35158 0.95109 0.0
C137 C 0.77954 0.36862 0.95452 0.0
C138 C 0.77087 0.31365 0.03356 0.0
H139 H 0.79977 0.39904 0.92712 0.0
H140 H 0.78445 0.29738 0.06416 0.0
H141 H 0.945 0.42053 0.08415 0.0
H142 H 0.9421 0.41466 0.87149 0.0
C143 C 0.88593 0.45983 0.89443 0.0
C144 C 0.80104 0.29706 0.85892 0.0
C145 C 0.86607 0.4292 0.13939 0.0
C146 C 0.87279 0.2987 0.06486 0.0
H147 H 0.81526 0.3488 0.73572 0.0
H148 H 0.86118 0.43812 0.75226 0.0
H149 H 0.92944 0.5421 0.97278 0.0
H150 H 0.92307 0.52499 0.10351 0.0
H151 H 0.82734 0.35298 0.23566 0.0
H152 H 0.84618 0.28993 0.20126 0.0
H153 H 0.84756 0.21838 0.99632 0.0
H154 H 0.79919 0.21348 0.89056 0.0
H155 H 1.01217 0.49135 0.08267 0.0
H156 H 1.01021 0.48881 0.86671 0.0
H157 H 0.70439 0.27551 0.07716 0.0
H158 H 0.72108 0.36895 0.92034 0.0
C159 C 0.50793 0.81605 0.17607 0.0
C160 C 0.49009 0.81763 0.11461 0.0
C161 C 0.46881 0.84272 0.12275 0.0
C162 C 0.47551 0.85638 0.18896 0.0
N163 N 0.50102 0.8428 0.22089 0.0
Co164 Co 0.51422 0.85078 0.31838 0.0
N165 N 0.46264 0.85804 0.34321 0.0
C166 C 0.44547 0.87504 0.2985 0.0
C167 C 0.42673 0.89741 0.32975 0.0
C168 C 0.43228 0.89373 0.39766 0.0
C169 C 0.45141 0.86645 0.4056 0.0
N170 N 0.52893 0.85465 0.41564 0.0
C171 C 0.50082 0.84382 0.46915 0.0
C172 C 0.51712 0.82965 0.52212 0.0
C173 C 0.56004 0.84018 0.50528 0.0
C174 C 0.56621 0.85628 0.44077 0.0
N175 N 0.56556 0.84159 0.29191 0.0
C176 C 0.60237 0.8529 0.32944 0.0
C177 C 0.62725 0.83454 0.30515 0.0
C178 C 0.60359 0.80811 0.25169 0.0
C179 C 0.5657 0.81233 0.24451 0.0
N180 N 0.54783 0.92077 0.31119 0.0
C181 C 0.54288 1.00486 0.30754 0.0
C182 C 0.54716 0.98499 0.36759 0.0
C183 C 0.55022 0.94488 0.36833 0.0
C184 C 0.54737 0.98349 0.24891 0.0
C185 C 0.55097 0.94322 0.25183 0.0
N186 N 0.47551 0.78531 0.32581 0.0
C187 C 0.45119 0.71208 0.37283 0.0
C188 C 0.41378 0.69324 0.32945 0.0
C189 C 0.40821 0.72108 0.28484 0.0
C190 C 0.4369 0.76674 0.2882 0.0
C191 C 0.4834 0.75809 0.3671 0.0
H192 H 0.42665 0.78694 0.26083 0.0
H193 H 0.51331 0.77164 0.39762 0.0
H194 H 0.55049 0.93198 0.41739 0.0
H195 H 0.55323 0.92891 0.20472 0.0
C196 C 0.45193 0.87288 0.22784 0.0
C197 C 0.53002 0.78798 0.19243 0.0
C198 C 0.4629 0.85323 0.47281 0.0
C199 C 0.60029 0.85982 0.39816 0.0
H200 H 0.49232 0.80209 0.06926 0.0
H201 H 0.44879 0.84799 0.08573 0.0
H202 H 0.41314 0.91648 0.30617 0.0
H203 H 0.424 0.91021 0.4369 0.0
H204 H 0.50056 0.81454 0.56905 0.0
H205 H 0.58254 0.83331 0.53458 0.0
H206 H 0.65544 0.8345 0.32965 0.0
H207 H 0.61188 0.78609 0.22406 0.0
H208 H 0.54685 0.99912 0.41586 0.0
H209 H 0.54718 0.99698 0.19992 0.0
H210 H 0.45519 0.69171 0.41068 0.0
H211 H 0.3781 0.7084 0.25416 0.0
C212 C 0.71757 0.49452 0.50955 0.0
C213 C 0.69805 0.4767 0.44814 0.0
C214 C 0.65167 0.45552 0.45642 0.0
C215 C 0.64478 0.46223 0.52266 0.0
N216 N 0.68393 0.48763 0.55451 0.0
Co217 Co 0.68931 0.50074 0.65205 0.0
N218 N 0.63042 0.44935 0.67693 0.0
C219 C 0.59617 0.43231 0.63229 0.0
C220 C 0.55506 0.41371 0.66363 0.0
C221 C 0.56436 0.41921 0.73152 0.0
C222 C 0.6108 0.43816 0.73935 0.0
N223 N 0.70026 0.51533 0.74933 0.0
C224 C 0.68296 0.48727 0.80282 0.0
C225 C 0.71347 0.50343 0.85577 0.0
C226 C 0.74592 0.54623 0.83894 0.0
C227 C 0.73597 0.55246 0.77446 0.0
N228 N 0.74985 0.5519 0.62555 0.0
C229 C 0.77543 0.58859 0.66311 0.0
C230 C 0.81866 0.6134 0.63867 0.0
C231 C 0.82132 0.58981 0.58504 0.0
C232 C 0.77918 0.55204 0.57796 0.0
N233 N 0.653 0.53448 0.64509 0.0
C234 C 0.56394 0.52973 0.64152 0.0
C235 C 0.58809 0.53389 0.70157 0.0
C236 C 0.63127 0.53686 0.70227 0.0
C237 C 0.58984 0.53427 0.58288 0.0
C238 C 0.63373 0.53777 0.58576 0.0
N239 N 0.71605 0.46195 0.65919 0.0
C240 C 0.76503 0.43748 0.7059 0.0
C241 C 0.74641 0.40018 0.66245 0.0
C242 C 0.71296 0.39476 0.61793 0.0
C243 C 0.69598 0.42347 0.62149 0.0
C244 C 0.75122 0.4697 0.70038 0.0
H245 H 0.66547 0.41332 0.59419 0.0
H246 H 0.76761 0.49951 0.73097 0.0
H247 H 0.64447 0.53704 0.75132 0.0
H248 H 0.65034 0.54008 0.53865 0.0
C249 C 0.60472 0.43877 0.56163 0.0
C250 C 0.76775 0.51647 0.52578 0.0
C251 C 0.63557 0.44954 0.80653 0.0
C252 C 0.76651 0.58647 0.73188 0.0
H253 H 0.71578 0.47885 0.40272 0.0
H254 H 0.62632 0.43553 0.41947 0.0
H255 H 0.52236 0.40025 0.64011 0.0
H256 H 0.53962 0.41101 0.7708 0.0
H257 H 0.712 0.48686 0.90268 0.0
H258 H 0.77533 0.56861 0.86824 0.0
H259 H 0.84694 0.64149 0.66313 0.0
H260 H 0.8516 0.59809 0.5572 0.0
H261 H 0.57361 0.53352 0.74986 0.0
H262 H 0.57616 0.53418 0.5339 0.0
H263 H 0.78941 0.44136 0.74372 0.0
H264 H 0.69547 0.36473 0.58719 0.0
C265 C 0.2489 0.70467 0.84258 0.0
C266 C 0.24727 0.68527 0.78111 0.0
C267 C 0.22218 0.63896 0.78929 0.0
C268 C 0.20858 0.632 0.85553 0.0
N269 N 0.22218 0.67103 0.88745 0.0
Co270 Co 0.21431 0.67627 0.98498 0.0
N271 N 0.20709 0.61755 0.00979 0.0
C272 C 0.19005 0.5834 0.96508 0.0
C273 C 0.16771 0.54234 0.99635 0.0
C274 C 0.17145 0.55157 0.06426 0.0
C275 C 0.19873 0.59793 0.07217 0.0
N276 N 0.21052 0.6871 0.08226 0.0
C277 C 0.22138 0.66986 0.13575 0.0
C278 C 0.23558 0.70029 0.18873 0.0
C279 C 0.22501 0.73259 0.17193 0.0
C280 C 0.20887 0.72266 0.10743 0.0
N281 N 0.22344 0.73666 0.95855 0.0
C282 C 0.21213 0.7621 0.99612 0.0
C283 C 0.23046 0.80527 0.9718 0.0
C284 C 0.25687 0.80806 0.91826 0.0
C285 C 0.25268 0.76604 0.91108 0.0
N286 N 0.14419 0.63984 0.97793 0.0
C287 C 0.06007 0.55081 0.97433 0.0
C288 C 0.07998 0.57494 0.03439 0.0
C289 C 0.1201 0.61811 0.0351 0.0
C290 C 0.08138 0.57668 0.9157 0.0
C291 C 0.12168 0.62056 0.9186 0.0
N292 N 0.27991 0.70311 0.99224 0.0
C293 C 0.35328 0.75203 0.03923 0.0
C294 C 0.37216 0.73356 0.99578 0.0
C295 C 0.34427 0.70024 0.95109 0.0
C296 C 0.29852 0.6832 0.95452 0.0
C297 C 0.30718 0.73817 0.03356 0.0
H298 H 0.27828 0.65278 0.92712 0.0
H299 H 0.2936 0.75444 0.06416 0.0
H300 H 0.13306 0.63129 0.08415 0.0
H301 H 0.13595 0.63716 0.87149 0.0
C302 C 0.19213 0.59199 0.89443 0.0
C303 C 0.27701 0.75476 0.85892 0.0
C304 C 0.21199 0.62262 0.13939 0.0
C305 C 0.20527 0.75312 0.06486 0.0
H306 H 0.26279 0.70302 0.73572 0.0
H307 H 0.21687 0.6137 0.75226 0.0
H308 H 0.14861 0.50971 0.97278 0.0
H309 H 0.15499 0.52683 0.10351 0.0
H310 H 0.25071 0.69884 0.23566 0.0
H311 H 0.23187 0.76189 0.20126 0.0
H312 H 0.2305 0.83344 0.99632 0.0
H313 H 0.27887 0.83834 0.89056 0.0
H314 H 0.06588 0.56047 0.08267 0.0
H315 H 0.06784 0.56301 0.86671 0.0
H316 H 0.37367 0.77631 0.07716 0.0
H317 H 0.35697 0.68287 0.92035 0.0
C318 C 0.82913 0.49451 0.49815 0.0
C319 C 0.83084 0.47672 0.55956 0.0
C320 C 0.85603 0.45556 0.55124 0.0
C321 C 0.8696 0.46226 0.48499 0.0
N322 N 0.85586 0.48764 0.45316 0.0
Co323 Co 0.86358 0.50074 0.35561 0.0
N324 N 0.87104 0.44936 0.33072 0.0
C325 C 0.88824 0.43234 0.37536 0.0
C326 C 0.91072 0.41375 0.34402 0.0
C327 C 0.90691 0.41923 0.27613 0.0
C328 C 0.87944 0.43817 0.26831 0.0
N329 N 0.86721 0.51531 0.25832 0.0
C330 C 0.85644 0.48725 0.20482 0.0
C331 C 0.84209 0.50339 0.15186 0.0
C332 C 0.85247 0.54618 0.16868 0.0
C333 C 0.86866 0.55243 0.23317 0.0
N334 N 0.85423 0.55189 0.38209 0.0
C335 C 0.86534 0.58855 0.3445 0.0
C336 C 0.84691 0.61332 0.36891 0.0
C337 C 0.82065 0.58974 0.42256 0.0
C338 C 0.82502 0.552 0.42968 0.0
N339 N 0.93367 0.53452 0.36253 0.0
C340 C 1.01794 0.52973 0.36609 0.0
C341 C 0.99797 0.5339 0.30604 0.0
C342 C 0.95777 0.53689 0.30535 0.0
C343 C 0.99662 0.5343 0.42474 0.0
C344 C 0.95624 0.53783 0.42186 0.0
N345 N 0.79799 0.46192 0.3485 0.0
C346 C 0.7245 0.43742 0.3018 0.0
C347 C 0.7058 0.40015 0.34531 0.0
C348 C 0.73381 0.39475 0.38985 0.0
C349 C 0.77954 0.42346 0.38625 0.0
C350 C 0.77058 0.46965 0.3073 0.0
H351 H 0.7999 0.41333 0.41354 0.0
H352 H 0.78403 0.49945 0.27667 0.0
H353 H 0.94476 0.53707 0.25631 0.0
H354 H 0.94195 0.54015 0.46897 0.0
C355 C 0.88617 0.43881 0.44602 0.0
C356 C 0.80097 0.51652 0.48201 0.0
C357 C 0.86606 0.44954 0.20113 0.0
C358 C 0.87214 0.58643 0.27574 0.0
H359 H 0.8153 0.47888 0.60501 0.0
H360 H 0.86141 0.43559 0.58819 0.0
H361 H 0.92995 0.4003 0.36753 0.0
H362 H 0.92344 0.41103 0.23684 0.0
H363 H 0.82699 0.48682 0.10495 0.0
H364 H 0.84547 0.56855 0.13937 0.0
H365 H 0.84672 0.64139 0.34443 0.0
H366 H 0.79865 0.598 0.45041 0.0
H367 H 1.01207 0.53352 0.25775 0.0
H368 H 1.01021 0.53422 0.47371 0.0
H369 H 0.704 0.44126 0.26396 0.0
H370 H 0.72124 0.36473 0.42061 0.0
C371 C 0.36042 0.81605 0.83146 0.0
C372 C 0.37992 0.81769 0.89287 0.0
C373 C 0.42631 0.84282 0.88463 0.0
C374 C 0.43321 0.85646 0.81842 0.0
N375 N 0.39407 0.8428 0.78656 0.0
Co376 Co 0.38874 0.85068 0.68905 0.0
N377 N 0.44765 0.85809 0.66416 0.0
C378 C 0.48187 0.87518 0.70882 0.0
C379 C 0.52299 0.89763 0.67752 0.0
C380 C 0.51372 0.89391 0.60962 0.0
C381 C 0.46728 0.86653 0.60175 0.0
N382 N 0.37783 0.85446 0.59178 0.0
C383 C 0.39514 0.84369 0.53826 0.0
C384 C 0.36463 0.82944 0.48531 0.0
C385 C 0.33218 0.83986 0.50217 0.0
C386 C 0.34212 0.85598 0.56667 0.0
N387 N 0.32816 0.84137 0.71556 0.0
C388 C 0.30257 0.85255 0.67802 0.0
C389 C 0.25932 0.83413 0.70236 0.0
C390 C 0.25662 0.8078 0.75588 0.0
C391 C 0.29878 0.81213 0.76303 0.0
N392 N 0.42507 0.92067 0.69617 0.0
C393 C 0.51412 1.00484 0.69979 0.0
C394 C 0.48995 0.98493 0.63974 0.0
C395 C 0.44678 0.94478 0.63902 0.0
C396 C 0.48825 0.98346 0.75843 0.0
C397 C 0.44436 0.94314 0.75552 0.0
N398 N 0.36202 0.78522 0.68171 0.0
C399 C 0.31306 0.71192 0.63484 0.0
C400 C 0.33168 0.69318 0.67826 0.0
C401 C 0.36514 0.72109 0.72279 0.0
C402 C 0.38211 0.76674 0.71933 0.0
C403 C 0.32687 0.75792 0.64047 0.0
H404 H 0.4126 0.78701 0.74665 0.0
H405 H 0.31047 0.7714 0.60993 0.0
H406 H 0.43359 0.93184 0.58996 0.0
H407 H 0.42778 0.92882 0.80263 0.0
C408 C 0.47329 0.87303 0.77948 0.0
C409 C 0.31022 0.788 0.81526 0.0
C410 C 0.44252 0.85323 0.53456 0.0
C411 C 0.31155 0.85945 0.60928 0.0
H412 H 0.36219 0.80215 0.93828 0.0
H413 H 0.45166 0.84814 0.9216 0.0
H414 H 0.55568 0.91678 0.70106 0.0
H415 H 0.53846 0.91043 0.57036 0.0
H416 H 0.36609 0.81435 0.43838 0.0
H417 H 0.30278 0.83291 0.47288 0.0
H418 H 0.23104 0.83401 0.67787 0.0
H419 H 0.22632 0.78579 0.78361 0.0
H420 H 0.50441 0.99906 0.59146 0.0
H421 H 0.50194 0.99698 0.80742 0.0
H422 H 0.28866 0.69149 0.59703 0.0
H423 H 0.38263 0.70848 0.75348 0.0
C424 C 0.57013 0.34716 0.1651 0.0
C425 C 0.58793 0.36657 0.22655 0.0
C426 C 0.60918 0.41288 0.21837 0.0
C427 C 0.60252 0.41983 0.15214 0.0
N428 N 0.57704 0.38079 0.12023 0.0
Co429 Co 0.56386 0.37556 0.02272 0.0
N430 N 0.61543 0.43429 0.99788 0.0
C431 C 0.63259 0.46843 0.04259 0.0
C432 C 0.65135 0.50949 0.01132 0.0
C433 C 0.64582 0.50027 0.94341 0.0
C434 C 0.62669 0.45391 0.93549 0.0
N435 N 0.54917 0.36474 0.92545 0.0
C436 C 0.57729 0.38197 0.87195 0.0
C437 C 0.561 0.35154 0.81897 0.0
C438 C 0.51809 0.31924 0.8358 0.0
C439 C 0.51191 0.32918 0.90031 0.0
N440 N 0.51253 0.31514 0.04918 0.0
C441 C 0.47574 0.28969 0.01162 0.0
C442 C 0.45089 0.2465 0.03588 0.0
C443 C 0.47454 0.24371 0.08937 0.0
C444 C 0.5124 0.28575 0.09659 0.0
N445 N 0.53023 0.412 0.02986 0.0
C446 C 0.53518 0.50102 0.03348 0.0
C447 C 0.53092 0.47688 0.97343 0.0
C448 C 0.52786 0.43373 0.97271 0.0
C449 C 0.53065 0.47516 0.09211 0.0
C450 C 0.52705 0.4313 0.0892 0.0
N451 N 0.60259 0.34874 0.01535 0.0
C452 C 0.62695 0.29981 0.9683 0.0
C453 C 0.66433 0.31829 0.01174 0.0
C454 C 0.66986 0.35163 0.05641 0.0
C455 C 0.64117 0.36866 0.05302 0.0
C456 C 0.59473 0.31367 0.97402 0.0
H457 H 0.65141 0.39909 0.08042 0.0
H458 H 0.56485 0.2974 0.94346 0.0
H459 H 0.52761 0.42056 0.92365 0.0
H460 H 0.52475 0.41472 0.13631 0.0
C461 C 0.6261 0.45984 0.11324 0.0
C462 C 0.54799 0.29705 0.14882 0.0
C463 C 0.61519 0.42922 0.86828 0.0
C464 C 0.47783 0.2987 0.9429 0.0
H465 H 0.58567 0.34883 0.27195 0.0
H466 H 0.62916 0.43815 0.2554 0.0
H467 H 0.66493 0.54212 0.03489 0.0
H468 H 0.65411 0.525 0.90417 0.0
H469 H 0.57757 0.35298 0.77204 0.0
H470 H 0.49561 0.28993 0.80649 0.0
H471 H 0.42273 0.21833 0.01136 0.0
H472 H 0.46626 0.21342 0.11702 0.0
H473 H 0.53127 0.49134 0.92516 0.0
H474 H 0.53082 0.48883 0.1411 0.0
H475 H 0.62301 0.27551 0.93039 0.0
H476 H 0.69997 0.369 0.08712 0.0
C477 C 0.24893 0.55731 0.49815 0.0
C478 C 0.24722 0.5751 0.55956 0.0
C479 C 0.22203 0.59626 0.55125 0.0
C480 C 0.20845 0.58956 0.48499 0.0
N481 N 0.2222 0.56418 0.45316 0.0
Co482 Co 0.21448 0.55108 0.35561 0.0
N483 N 0.20702 0.60245 0.33073 0.0
C484 C 0.18982 0.61948 0.37536 0.0
C485 C 0.16734 0.63807 0.34402 0.0
C486 C 0.17114 0.63259 0.27613 0.0
C487 C 0.19861 0.61365 0.26831 0.0
N488 N 0.21085 0.53651 0.25832 0.0
C489 C 0.22162 0.56457 0.20482 0.0
C490 C 0.23596 0.54843 0.15187 0.0
C491 C 0.22559 0.50564 0.16868 0.0
C492 C 0.2094 0.49939 0.23317 0.0
N493 N 0.22383 0.49993 0.38209 0.0
C494 C 0.21272 0.46327 0.3445 0.0
C495 C 0.23115 0.4385 0.36891 0.0
C496 C 0.25741 0.46208 0.42256 0.0
C497 C 0.25304 0.49982 0.42968 0.0
N498 N 0.14438 0.5173 0.36254 0.0
C499 C 0.06011 0.52208 0.36609 0.0
C500 C 0.08009 0.51792 0.30604 0.0
C501 C 0.12029 0.51493 0.30535 0.0
C502 C 0.08144 0.51751 0.42474 0.0
C503 C 0.12181 0.51399 0.42186 0.0
N504 N 0.28006 0.5899 0.3485 0.0
C505 C 0.35356 0.6144 0.3018 0.0
C506 C 0.37226 0.65167 0.34531 0.0
C507 C 0.34424 0.65707 0.38985 0.0
C508 C 0.29851 0.62836 0.38625 0.0
C509 C 0.30748 0.58217 0.3073 0.0
H510 H 0.27816 0.63849 0.41354 0.0
H511 H 0.29403 0.55237 0.27667 0.0
H512 H 0.1333 0.51475 0.25631 0.0
H513 H 0.1361 0.51167 0.46897 0.0
C514 C 0.19189 0.61301 0.44602 0.0
C515 C 0.27709 0.5353 0.48201 0.0
C516 C 0.212 0.60228 0.20113 0.0
C517 C 0.20592 0.46539 0.27574 0.0
H518 H 0.26275 0.57294 0.60501 0.0
H519 H 0.21665 0.61622 0.58819 0.0
H520 H 0.1481 0.65152 0.36753 0.0
H521 H 0.15462 0.64079 0.23684 0.0
H522 H 0.25107 0.565 0.10495 0.0
H523 H 0.23259 0.48327 0.13937 0.0
H524 H 0.23134 0.41043 0.34443 0.0
H525 H 0.27941 0.45382 0.45041 0.0
H526 H 0.06598 0.51829 0.25775 0.0
H527 H 0.06785 0.5176 0.47371 0.0
H528 H 0.37405 0.61056 0.26396 0.0
H529 H 0.35682 0.68709 0.42061 0.0
C530 C 0.71763 0.23576 0.83146 0.0
C531 C 0.69813 0.23413 0.89287 0.0
C532 C 0.65175 0.209 0.88463 0.0
C533 C 0.64485 0.19536 0.81842 0.0
N534 N 0.68399 0.20901 0.78656 0.0
Co535 Co 0.68932 0.20114 0.68905 0.0
N536 N 0.63041 0.19373 0.66416 0.0
C537 C 0.59618 0.17664 0.70882 0.0
C538 C 0.55507 0.15419 0.67752 0.0
C539 C 0.56434 0.15791 0.60962 0.0
C540 C 0.61078 0.18529 0.60175 0.0
N541 N 0.70023 0.19736 0.59178 0.0
C542 C 0.68292 0.20813 0.53826 0.0
C543 C 0.71343 0.22238 0.48531 0.0
C544 C 0.74588 0.21196 0.50217 0.0
C545 C 0.73594 0.19584 0.56667 0.0
N546 N 0.7499 0.21045 0.71556 0.0
C547 C 0.77548 0.19927 0.67802 0.0
C548 C 0.81874 0.21769 0.70236 0.0
C549 C 0.82144 0.24402 0.75588 0.0
C550 C 0.77928 0.23969 0.76303 0.0
N551 N 0.65298 0.13115 0.69617 0.0
C552 C 0.56394 0.04698 0.69979 0.0
C553 C 0.5881 0.06689 0.63974 0.0
C554 C 0.63127 0.10704 0.63902 0.0
C555 C 0.58981 0.06836 0.75843 0.0
C556 C 0.6337 0.10868 0.75552 0.0
N557 N 0.71604 0.2666 0.68171 0.0
C558 C 0.765 0.3399 0.63484 0.0
C559 C 0.74637 0.35863 0.67826 0.0
C560 C 0.71292 0.33073 0.72279 0.0
C561 C 0.69595 0.28508 0.71933 0.0
C562 C 0.75119 0.2939 0.64047 0.0
H563 H 0.66545 0.26481 0.74665 0.0
H564 H 0.76759 0.28042 0.60993 0.0
H565 H 0.64447 0.11998 0.58996 0.0
H566 H 0.65028 0.12299 0.80263 0.0
C567 C 0.60476 0.17879 0.77948 0.0
C568 C 0.76783 0.26382 0.81525 0.0
C569 C 0.63554 0.19859 0.53456 0.0
C570 C 0.76651 0.19237 0.60928 0.0
H571 H 0.71587 0.24967 0.93828 0.0
H572 H 0.6264 0.20368 0.9216 0.0
H573 H 0.52237 0.13504 0.70106 0.0
H574 H 0.5396 0.14139 0.57036 0.0
H575 H 0.71196 0.23747 0.43839 0.0
H576 H 0.77528 0.21891 0.47288 0.0
H577 H 0.84702 0.21781 0.67787 0.0
H578 H 0.85174 0.26603 0.78361 0.0
H579 H 0.57365 0.05275 0.59146 0.0
H580 H 0.57612 0.05484 0.80742 0.0
H581 H 0.78939 0.36033 0.59703 0.0
H582 H 0.69543 0.34333 0.75348 0.0
C583 C 0.50793 0.70466 0.1651 0.0
C584 C 0.49013 0.68525 0.22655 0.0
C585 C 0.46887 0.63894 0.21837 0.0
C586 C 0.47553 0.63199 0.15214 0.0
N587 N 0.50101 0.67103 0.12023 0.0
Co588 Co 0.5142 0.67626 0.02272 0.0
N589 N 0.46263 0.61753 0.99788 0.0
C590 C 0.44547 0.58339 0.04259 0.0
C591 C 0.42671 0.54233 0.01132 0.0
C592 C 0.43223 0.55155 0.94341 0.0
C593 C 0.45137 0.59791 0.93549 0.0
N594 N 0.52888 0.68708 0.92545 0.0
C595 C 0.50077 0.66985 0.87195 0.0
C596 C 0.51705 0.70028 0.81897 0.0
C597 C 0.55996 0.73258 0.8358 0.0
C598 C 0.56615 0.72264 0.90031 0.0
N599 N 0.56553 0.73668 0.04918 0.0
C600 C 0.60232 0.76213 0.01162 0.0
C601 C 0.62717 0.80532 0.03588 0.0
C602 C 0.60351 0.80811 0.08937 0.0
C603 C 0.56566 0.76607 0.09659 0.0
N604 N 0.54783 0.63982 0.02985 0.0
C605 C 0.54289 0.5508 0.03348 0.0
C606 C 0.54714 0.57494 0.97343 0.0
C607 C 0.5502 0.61809 0.97271 0.0
C608 C 0.54741 0.57666 0.09211 0.0
C609 C 0.55101 0.62053 0.0892 0.0
N610 N 0.47546 0.70308 0.01535 0.0
C611 C 0.4511 0.75201 0.9683 0.0
C612 C 0.41372 0.73353 0.01174 0.0
C613 C 0.40819 0.70019 0.05641 0.0
C614 C 0.43689 0.68316 0.05302 0.0
C615 C 0.48332 0.73815 0.97402 0.0
H616 H 0.42665 0.65273 0.08042 0.0
H617 H 0.51321 0.75442 0.94346 0.0
H618 H 0.55045 0.63126 0.92364 0.0
H619 H 0.5533 0.6371 0.13631 0.0
C620 C 0.45195 0.59198 0.11324 0.0
C621 C 0.53006 0.75477 0.14882 0.0
C622 C 0.46286 0.6226 0.86828 0.0
C623 C 0.60022 0.75312 0.9429 0.0
H624 H 0.49239 0.70299 0.27195 0.0
H625 H 0.4489 0.61368 0.2554 0.0
H626 H 0.41313 0.5097 0.03489 0.0
H627 H 0.42394 0.52682 0.90417 0.0
H628 H 0.50048 0.69884 0.77204 0.0
H629 H 0.58245 0.76189 0.80649 0.0
H630 H 0.65533 0.83349 0.01136 0.0
H631 H 0.6118 0.8384 0.11702 0.0
H632 H 0.54679 0.56048 0.92516 0.0
H633 H 0.54725 0.56299 0.1411 0.0
H634 H 0.45505 0.77631 0.93039 0.0
H635 H 0.37809 0.68282 0.08712 0.0
loop_
_geom_bond_atom_site_label_1
_geom_bond_atom_site_label_2
_geom_bond_distance
_geom_bond_site_symmetry_2
_ccdc_geom_bond_type
C0 C1 1.443 . S
C0 N4 1.376 . S
C0 C38 1.389 . S
C1 C0 1.443 . S
C1 C2 1.340 . S
C1 H41 0.951 . S
C2 C1 1.340 . S
C2 C3 1.439 . S
C2 H42 0.950 . S
C3 C2 1.439 . S
C3 N4 1.374 . S
C3 C37 1.395 . S
N4 C0 1.376 . S
N4 C3 1.374 . S
N4 Co5 2.008 . S
Co5 N4 2.008 . S
Co5 N6 1.995 . S
Co5 N11 2.008 . S
Co5 N16 1.995 . S
Co5 N21 2.282 . S
Co5 N27 2.282 . S
N6 Co5 1.995 . S
N6 C7 1.376 . S
N6 C10 1.383 . S
C7 N6 1.376 . S
C7 C8 1.446 . S
C7 C37 1.391 . S
C8 C7 1.446 . S
C8 C9 1.339 . S
C8 H43 0.949 . S
C9 C8 1.339 . S
C9 C10 1.439 . S
C9 H44 0.950 . S
C10 N6 1.383 . S
C10 C9 1.439 . S
C10 C39 1.392 . S
N11 Co5 2.008 . S
N11 C12 1.376 . S
N11 C15 1.374 . S
C12 N11 1.376 . S
C12 C13 1.443 . S
C12 C39 1.389 . S
C13 C12 1.443 . S
C13 C14 1.340 . S
C13 H45 0.951 . S
C14 C13 1.340 . S
C14 C15 1.439 . S
C14 H46 0.950 . S
C15 N11 1.374 . S
C15 C14 1.439 . S
C15 C40 1.395 . S
N16 Co5 1.995 . S
N16 C17 1.376 . S
N16 C20 1.383 . S
C17 N16 1.376 . S
C17 C18 1.446 . S
C17 C40 1.391 . S
C18 C17 1.446 . S
C18 C19 1.339 . S
C18 H47 0.949 . S
C19 C18 1.339 . S
C19 C20 1.439 . S
C19 H48 0.950 . S
C20 N16 1.383 . S
C20 C19 1.439 . S
C20 C38 1.392 . S
N21 Co5 2.282 . S
N21 C24 1.332 . S
N21 C26 1.332 . S
C22 C23 1.386 . S
C22 C25 1.388 . S
C23 C22 1.386 . S
C23 C24 1.382 . S
C23 H49 0.950 . S
C24 N21 1.332 . S
C24 C23 1.382 . S
C24 H35 0.952 . S
C25 C22 1.388 . S
C25 C26 1.382 . S
C25 H50 0.950 . S
C26 N21 1.332 . S
C26 C25 1.382 . S
C26 H36 0.948 . S
N27 Co5 2.282 . S
N27 C31 1.332 . S
N27 C32 1.332 . S
C28 C29 1.388 . S
C28 C32 1.382 . S
C28 H51 0.950 . S
C29 C28 1.388 . S
C29 C30 1.386 . S
C30 C29 1.386 . S
C30 C31 1.382 . S
C30 H52 0.950 . S
C31 N27 1.332 . S
C31 C30 1.382 . S
C31 H33 0.952 . S
C32 N27 1.332 . S
C32 C28 1.382 . S
C32 H34 0.948 . S
H33 C31 0.952 . S
H34 C32 0.948 . S
H35 C24 0.952 . S
H36 C26 0.948 . S
C37 C3 1.395 . S
C37 C7 1.391 . S
C38 C0 1.389 . S
C38 C20 1.392 . S
C39 C10 1.392 . S
C39 C12 1.389 . S
C40 C15 1.395 . S
C40 C17 1.391 . S
H41 C1 0.951 . S
H42 C2 0.950 . S
H43 C8 0.949 . S
H44 C9 0.950 . S
H45 C13 0.951 . S
H46 C14 0.950 . S
H47 C18 0.949 . S
H48 C19 0.950 . S
H49 C23 0.950 . S
H50 C25 0.950 . S
H51 C28 0.950 . S
H52 C30 0.950 . S
C53 C54 1.443 . S
C53 N57 1.376 . S
C53 C91 1.389 . S
C54 C53 1.443 . S
C54 C55 1.340 . S
C54 H94 0.951 . S
C55 C54 1.340 . S
C55 C56 1.439 . S
C55 H95 0.950 . S
C56 C55 1.439 . S
C56 N57 1.374 . S
C56 C90 1.395 . S
N57 C53 1.376 . S
N57 C56 1.374 . S
N57 Co58 2.008 . S
Co58 N57 2.008 . S
Co58 N59 1.995 . S
Co58 N64 2.008 . S
Co58 N69 1.995 . S
Co58 N74 2.282 . S
Co58 N80 2.282 . S
N59 Co58 1.995 . S
N59 C60 1.376 . S
N59 C63 1.383 . S
C60 N59 1.376 . S
C60 C61 1.446 . S
C60 C90 1.391 . S
C61 C60 1.446 . S
C61 C62 1.339 . S
C61 H96 0.949 . S
C62 C61 1.339 . S
C62 C63 1.439 . S
C62 H97 0.950 . S
C63 N59 1.383 . S
C63 C62 1.439 . S
C63 C92 1.392 . S
N64 Co58 2.008 . S
N64 C65 1.376 . S
N64 C68 1.374 . S
C65 N64 1.376 . S
C65 C66 1.443 . S
C65 C92 1.389 . S
C66 C65 1.443 . S
C66 C67 1.340 . S
C66 H98 0.951 . S
C67 C66 1.340 . S
C67 C68 1.439 . S
C67 H99 0.950 . S
C68 N64 1.374 . S
C68 C67 1.439 . S
C68 C93 1.395 . S
N69 Co58 1.995 . S
N69 C70 1.376 . S
N69 C73 1.383 . S
C70 N69 1.376 . S
C70 C71 1.446 . S
C70 C93 1.391 . S
C71 C70 1.446 . S
C71 C72 1.339 . S
C71 H100 0.949 . S
C72 C71 1.339 . S
C72 C73 1.439 . S
C72 H101 0.950 . S
C73 N69 1.383 . S
C73 C72 1.439 . S
C73 C91 1.392 . S
N74 Co58 2.282 . S
N74 C77 1.332 . S
N74 C79 1.332 . S
C75 C76 1.386 . S
C75 C78 1.388 . S
C76 C75 1.386 . S
C76 C77 1.382 . S
C76 H102 0.950 . S
C77 N74 1.332 . S
C77 C76 1.382 . S
C77 H88 0.952 . S
C78 C75 1.388 . S
C78 C79 1.382 . S
C78 H103 0.950 . S
C79 N74 1.332 . S
C79 C78 1.382 . S
C79 H89 0.948 . S
N80 Co58 2.282 . S
N80 C84 1.332 . S
N80 C85 1.332 . S
C81 C82 1.388 . S
C81 C85 1.382 . S
C81 H104 0.950 . S
C82 C81 1.388 . S
C82 C83 1.386 . S
C83 C82 1.386 . S
C83 C84 1.382 . S
C83 H105 0.950 . S
C84 N80 1.332 . S
C84 C83 1.382 . S
C84 H86 0.952 . S
C85 N80 1.332 . S
C85 C81 1.382 . S
C85 H87 0.948 . S
H86 C84 0.952 . S
H87 C85 0.948 . S
H88 C77 0.952 . S
H89 C79 0.948 . S
C90 C56 1.395 . S
C90 C60 1.391 . S
C91 C53 1.389 . S
C91 C73 1.392 . S
C92 C63 1.392 . S
C92 C65 1.389 . S
C93 C68 1.395 . S
C93 C70 1.391 . S
H94 C54 0.951 . S
H95 C55 0.950 . S
H96 C61 0.949 . S
H97 C62 0.950 . S
H98 C66 0.951 . S
H99 C67 0.950 . S
H100 C71 0.949 . S
H101 C72 0.950 . S
H102 C76 0.950 . S
H103 C78 0.950 . S
H104 C81 0.950 . S
H105 C83 0.950 . S
C106 C107 1.443 . S
C106 N110 1.376 . S
C106 C144 1.389 . S
C107 C106 1.443 . S
C107 C108 1.340 . S
C107 H147 0.951 . S
C108 C107 1.340 . S
C108 C109 1.439 . S
C108 H148 0.950 . S
C109 C108 1.439 . S
C109 N110 1.374 . S
C109 C143 1.395 . S
N110 C106 1.376 . S
N110 C109 1.374 . S
N110 Co111 2.008 . S
Co111 N110 2.008 . S
Co111 N112 1.995 1_556 S
Co111 N117 2.008 1_556 S
Co111 N122 1.995 . S
Co111 N127 2.282 . S
Co111 N133 2.282 1_556 S
N112 Co111 1.995 1_554 S
N112 C113 1.376 1_554 S
N112 C116 1.383 . S
C113 N112 1.376 1_556 S
C113 C114 1.446 1_556 S
C113 C143 1.391 . S
C114 C113 1.446 1_554 S
C114 C115 1.339 . S
C114 H149 0.949 . S
C115 C114 1.339 . S
C115 C116 1.439 . S
C115 H150 0.950 . S
C116 N112 1.383 . S
C116 C115 1.439 . S
C116 C145 1.392 . S
N117 Co111 2.008 1_554 S
N117 C118 1.376 . S
N117 C121 1.374 . S
C118 N117 1.376 . S
C118 C119 1.443 . S
C118 C145 1.389 . S
C119 C118 1.443 . S
C119 C120 1.340 . S
C119 H151 0.951 . S
C120 C119 1.340 . S
C120 C121 1.439 . S
C120 H152 0.950 . S
C121 N117 1.374 . S
C121 C120 1.439 . S
C121 C146 1.395 . S
N122 Co111 1.995 . S
N122 C123 1.376 1_556 S
N122 C126 1.383 . S
C123 N122 1.376 1_554 S
C123 C124 1.446 1_554 S
C123 C146 1.391 . S
C124 C123 1.446 1_556 S
C124 C125 1.339 . S
C124 H153 0.949 . S
C125 C124 1.339 . S
C125 C126 1.439 . S
C125 H154 0.950 . S
C126 N122 1.383 . S
C126 C125 1.439 . S
C126 C144 1.392 . S
N127 Co111 2.282 . S
N127 C130 1.332 1_556 S
N127 C132 1.332 . S
C128 C129 1.386 . S
C128 C131 1.388 1_554 S
C129 C128 1.386 . S
C129 C130 1.382 . S
C129 H155 0.950 . S
C130 N127 1.332 1_554 S
C130 C129 1.382 . S
C130 H141 0.952 . S
C131 C128 1.388 1_556 S
C131 C132 1.382 . S
C131 H156 0.950 . S
C132 N127 1.332 . S
C132 C131 1.382 . S
C132 H142 0.948 . S
N133 Co111 2.282 1_554 S
N133 C137 1.332 1_554 S
N133 C138 1.332 . S
C134 C135 1.388 1_554 S
C134 C138 1.382 . S
C134 H157 0.950 . S
C135 C134 1.388 1_556 S
C135 C136 1.386 . S
C136 C135 1.386 . S
C136 C137 1.382 . S
C136 H158 0.950 . S
C137 N133 1.332 1_556 S
C137 C136 1.382 . S
C137 H139 0.952 . S
C138 N133 1.332 . S
C138 C134 1.382 . S
C138 H140 0.948 . S
H139 C137 0.952 . S
H140 C138 0.948 . S
H141 C130 0.952 . S
H142 C132 0.948 . S
C143 C109 1.395 . S
C143 C113 1.391 . S
C144 C106 1.389 . S
C144 C126 1.392 . S
C145 C116 1.392 . S
C145 C118 1.389 . S
C146 C121 1.395 . S
C146 C123 1.391 . S
H147 C107 0.951 . S
H148 C108 0.950 . S
H149 C114 0.949 . S
H150 C115 0.950 . S
H151 C119 0.951 . S
H152 C120 0.950 . S
H153 C124 0.949 . S
H154 C125 0.950 . S
H155 C129 0.950 . S
H156 C131 0.950 . S
H157 C134 0.950 . S
H158 C136 0.950 . S
C159 C160 1.443 . S
C159 N163 1.376 . S
C159 C197 1.389 . S
C160 C159 1.443 . S
C160 C161 1.340 . S
C160 H200 0.951 . S
C161 C160 1.340 . S
C161 C162 1.439 . S
C161 H201 0.950 . S
C162 C161 1.439 . S
C162 N163 1.374 . S
C162 C196 1.395 . S
N163 C159 1.376 . S
N163 C162 1.374 . S
N163 Co164 2.008 . S
Co164 N163 2.008 . S
Co164 N165 1.995 . S
Co164 N170 2.008 . S
Co164 N175 1.995 . S
Co164 N180 2.282 . S
Co164 N186 2.282 . S
N165 Co164 1.995 . S
N165 C166 1.376 . S
N165 C169 1.383 . S
C166 N165 1.376 . S
C166 C167 1.446 . S
C166 C196 1.391 . S
C167 C166 1.446 . S
C167 C168 1.339 . S
C167 H202 0.949 . S
C168 C167 1.339 . S
C168 C169 1.439 . S
C168 H203 0.950 . S
C169 N165 1.383 . S
C169 C168 1.439 . S
C169 C198 1.392 . S
N170 Co164 2.008 . S
N170 C171 1.376 . S
N170 C174 1.374 . S
C171 N170 1.376 . S
C171 C172 1.443 . S
C171 C198 1.389 . S
C172 C171 1.443 . S
C172 C173 1.340 . S
C172 H204 0.951 . S
C173 C172 1.340 . S
C173 C174 1.439 . S
C173 H205 0.950 . S
C174 N170 1.374 . S
C174 C173 1.439 . S
C174 C199 1.395 . S
N175 Co164 1.995 . S
N175 C176 1.376 . S
N175 C179 1.383 . S
C176 N175 1.376 . S
C176 C177 1.446 . S
C176 C199 1.391 . S
C177 C176 1.446 . S
C177 C178 1.339 . S
C177 H206 0.949 . S
C178 C177 1.339 . S
C178 C179 1.439 . S
C178 H207 0.950 . S
C179 N175 1.383 . S
C179 C178 1.439 . S
C179 C197 1.392 . S
N180 Co164 2.282 . S
N180 C183 1.332 . S
N180 C185 1.332 . S
C181 C182 1.386 . S
C181 C184 1.388 . S
C182 C181 1.386 . S
C182 C183 1.382 . S
C182 H208 0.950 . S
C183 N180 1.332 . S
C183 C182 1.382 . S
C183 H194 0.952 . S
C184 C181 1.388 . S
C184 C185 1.382 . S
C184 H209 0.950 . S
C185 N180 1.332 . S
C185 C184 1.382 . S
C185 H195 0.948 . S
N186 Co164 2.282 . S
N186 C190 1.332 . S
N186 C191 1.332 . S
C187 C188 1.388 . S
C187 C191 1.382 . S
C187 H210 0.950 . S
C188 C187 1.388 . S
C188 C189 1.386 . S
C189 C188 1.386 . S
C189 C190 1.382 . S
C189 H211 0.950 . S
C190 N186 1.332 . S
C190 C189 1.382 . S
C190 H192 0.952 . S
C191 N186 1.332 . S
C191 C187 1.382 . S
C191 H193 0.948 . S
H192 C190 0.952 . S
H193 C191 0.948 . S
H194 C183 0.952 . S
H195 C185 0.948 . S
C196 C162 1.395 . S
C196 C166 1.391 . S
C197 C159 1.389 . S
C197 C179 1.392 . S
C198 C169 1.392 . S
C198 C171 1.389 . S
C199 C174 1.395 . S
C199 C176 1.391 . S
H200 C160 0.951 . S
H201 C161 0.950 . S
H202 C167 0.949 . S
H203 C168 0.950 . S
H204 C172 0.951 . S
H205 C173 0.950 . S
H206 C177 0.949 . S
H207 C178 0.950 . S
H208 C182 0.950 . S
H209 C184 0.950 . S
H210 C187 0.950 . S
H211 C189 0.950 . S
C212 C213 1.443 . S
C212 N216 1.376 . S
C212 C250 1.389 . S
C213 C212 1.443 . S
C213 C214 1.340 . S
C213 H253 0.951 . S
C214 C213 1.340 . S
C214 C215 1.439 . S
C214 H254 0.950 . S
C215 C214 1.439 . S
C215 N216 1.374 . S
C215 C249 1.395 . S
N216 C212 1.376 . S
N216 C215 1.374 . S
N216 Co217 2.008 . S
Co217 N216 2.008 . S
Co217 N218 1.995 . S
Co217 N223 2.008 . S
Co217 N228 1.995 . S
Co217 N233 2.282 . S
Co217 N239 2.282 . S
N218 Co217 1.995 . S
N218 C219 1.376 . S
N218 C222 1.383 . S
C219 N218 1.376 . S
C219 C220 1.446 . S
C219 C249 1.391 . S
C220 C219 1.446 . S
C220 C221 1.339 . S
C220 H255 0.949 . S
C221 C220 1.339 . S
C221 C222 1.439 . S
C221 H256 0.950 . S
C222 N218 1.383 . S
C222 C221 1.439 . S
C222 C251 1.392 . S
N223 Co217 2.008 . S
N223 C224 1.376 . S
N223 C227 1.374 . S
C224 N223 1.376 . S
C224 C225 1.443 . S
C224 C251 1.389 . S
C225 C224 1.443 . S
C225 C226 1.340 . S
C225 H257 0.951 . S
C226 C225 1.340 . S
C226 C227 1.439 . S
C226 H258 0.950 . S
C227 N223 1.374 . S
C227 C226 1.439 . S
C227 C252 1.395 . S
N228 Co217 1.995 . S
N228 C229 1.376 . S
N228 C232 1.383 . S
C229 N228 1.376 . S
C229 C230 1.446 . S
C229 C252 1.391 . S
C230 C229 1.446 . S
C230 C231 1.339 . S
C230 H259 0.949 . S
C231 C230 1.339 . S
C231 C232 1.439 . S
C231 H260 0.950 . S
C232 N228 1.383 . S
C232 C231 1.439 . S
C232 C250 1.392 . S
N233 Co217 2.282 . S
N233 C236 1.332 . S
N233 C238 1.332 . S
C234 C235 1.386 . S
C234 C237 1.388 . S
C235 C234 1.386 . S
C235 C236 1.382 . S
C235 H261 0.950 . S
C236 N233 1.332 . S
C236 C235 1.382 . S
C236 H247 0.952 . S
C237 C234 1.388 . S
C237 C238 1.382 . S
C237 H262 0.950 . S
C238 N233 1.332 . S
C238 C237 1.382 . S
C238 H248 0.948 . S
N239 Co217 2.282 . S
N239 C243 1.332 . S
N239 C244 1.332 . S
C240 C241 1.388 . S
C240 C244 1.382 . S
C240 H263 0.950 . S
C241 C240 1.388 . S
C241 C242 1.386 . S
C242 C241 1.386 . S
C242 C243 1.382 . S
C242 H264 0.950 . S
C243 N239 1.332 . S
C243 C242 1.382 . S
C243 H245 0.952 . S
C244 N239 1.332 . S
C244 C240 1.382 . S
C244 H246 0.948 . S
H245 C243 0.952 . S
H246 C244 0.948 . S
H247 C236 0.952 . S
H248 C238 0.948 . S
C249 C215 1.395 . S
C249 C219 1.391 . S
C250 C212 1.389 . S
C250 C232 1.392 . S
C251 C222 1.392 . S
C251 C224 1.389 . S
C252 C227 1.395 . S
C252 C229 1.391 . S
H253 C213 0.951 . S
H254 C214 0.950 . S
H255 C220 0.949 . S
H256 C221 0.950 . S
H257 C225 0.951 . S
H258 C226 0.950 . S
H259 C230 0.949 . S
H260 C231 0.950 . S
H261 C235 0.950 . S
H262 C237 0.950 . S
H263 C240 0.950 . S
H264 C242 0.950 . S
C265 C266 1.443 . S
C265 N269 1.376 . S
C265 C303 1.389 . S
C266 C265 1.443 . S
C266 C267 1.340 . S
C266 H306 0.951 . S
C267 C266 1.340 . S
C267 C268 1.439 . S
C267 H307 0.950 . S
C268 C267 1.439 . S
C268 N269 1.374 . S
C268 C302 1.395 . S
N269 C265 1.376 . S
N269 C268 1.374 . S
N269 Co270 2.008 . S
Co270 N269 2.008 . S
Co270 N271 1.995 1_556 S
Co270 N276 2.008 1_556 S
Co270 N281 1.995 . S
Co270 N286 2.282 . S
Co270 N292 2.282 1_556 S
N271 Co270 1.995 1_554 S
N271 C272 1.376 1_554 S
N271 C275 1.383 . S
C272 N271 1.376 1_556 S
C272 C273 1.446 1_556 S
C272 C302 1.391 . S
C273 C272 1.446 1_554 S
C273 C274 1.339 . S
C273 H308 0.949 . S
C274 C273 1.339 . S
C274 C275 1.439 . S
C274 H309 0.950 . S
C275 N271 1.383 . S
C275 C274 1.439 . S
C275 C304 1.392 . S
N276 Co270 2.008 1_554 S
N276 C277 1.376 . S
N276 C280 1.374 . S
C277 N276 1.376 . S
C277 C278 1.443 . S
C277 C304 1.389 . S
C278 C277 1.443 . S
C278 C279 1.340 . S
C278 H310 0.951 . S
C279 C278 1.340 . S
C279 C280 1.439 . S
C279 H311 0.950 . S
C280 N276 1.374 . S
C280 C279 1.439 . S
C280 C305 1.395 . S
N281 Co270 1.995 . S
N281 C282 1.376 1_556 S
N281 C285 1.383 . S
C282 N281 1.376 1_554 S
C282 C283 1.446 1_554 S
C282 C305 1.391 . S
C283 C282 1.446 1_556 S
C283 C284 1.339 . S
C283 H312 0.949 . S
C284 C283 1.339 . S
C284 C285 1.439 . S
C284 H313 0.950 . S
C285 N281 1.383 . S
C285 C284 1.439 . S
C285 C303 1.392 . S
N286 Co270 2.282 . S
N286 C289 1.332 1_556 S
N286 C291 1.332 . S
C287 C288 1.386 . S
C287 C290 1.388 1_554 S
C288 C287 1.386 . S
C288 C289 1.382 . S
C288 H314 0.950 . S
C289 N286 1.332 1_554 S
C289 C288 1.382 . S
C289 H300 0.952 . S
C290 C287 1.388 1_556 S
C290 C291 1.382 . S
C290 H315 0.950 . S
C291 N286 1.332 . S
C291 C290 1.382 . S
C291 H301 0.948 . S
N292 Co270 2.282 1_554 S
N292 C296 1.332 1_554 S
N292 C297 1.332 . S
C293 C294 1.388 1_554 S
C293 C297 1.382 . S
C293 H316 0.950 . S
C294 C293 1.388 1_556 S
C294 C295 1.386 . S
C295 C294 1.386 . S
C295 C296 1.382 . S
C295 H317 0.950 . S
C296 N292 1.332 1_556 S
C296 C295 1.382 . S
C296 H298 0.952 . S
C297 N292 1.332 . S
C297 C293 1.382 . S
C297 H299 0.948 . S
H298 C296 0.952 . S
H299 C297 0.948 . S
H300 C289 0.952 . S
H301 C291 0.948 . S
C302 C268 1.395 . S
C302 C272 1.391 . S
C303 C265 1.389 . S
C303 C285 1.392 . S
C304 C275 1.392 . S
C304 C277 1.389 . S
C305 C280 1.395 . S
C305 C282 1.391 . S
H306 C266 0.951 . S
H307 C267 0.950 . S
H308 C273 0.949 . S
H309 C274 0.950 . S
H310 C278 0.951 . S
H311 C279 0.950 . S
H312 C283 0.949 . S
H313 C284 0.950 . S
H314 C288 0.950 . S
H315 C290 0.950 . S
H316 C293 0.950 . S
H317 C295 0.950 . S
C318 C319 1.443 . S
C318 N322 1.376 . S
C318 C356 1.389 . S
C319 C318 1.443 . S
C319 C320 1.340 . S
C319 H359 0.951 . S
C320 C319 1.340 . S
C320 C321 1.439 . S
C320 H360 0.950 . S
C321 C320 1.439 . S
C321 N322 1.374 . S
C321 C355 1.395 . S
N322 C318 1.376 . S
N322 C321 1.374 . S
N322 Co323 2.008 . S
Co323 N322 2.008 . S
Co323 N324 1.995 . S
Co323 N329 2.008 . S
Co323 N334 1.995 . S
Co323 N339 2.282 . S
Co323 N345 2.282 . S
N324 Co323 1.995 . S
N324 C325 1.376 . S
N324 C328 1.383 . S
C325 N324 1.376 . S
C325 C326 1.446 . S
C325 C355 1.391 . S
C326 C325 1.446 . S
C326 C327 1.339 . S
C326 H361 0.949 . S
C327 C326 1.339 . S
C327 C328 1.439 . S
C327 H362 0.950 . S
C328 N324 1.383 . S
C328 C327 1.439 . S
C328 C357 1.392 . S
N329 Co323 2.008 . S
N329 C330 1.376 . S
N329 C333 1.374 . S
C330 N329 1.376 . S
C330 C331 1.443 . S
C330 C357 1.389 . S
C331 C330 1.443 . S
C331 C332 1.340 . S
C331 H363 0.951 . S
C332 C331 1.340 . S
C332 C333 1.439 . S
C332 H364 0.950 . S
C333 N329 1.374 . S
C333 C332 1.439 . S
C333 C358 1.395 . S
N334 Co323 1.995 . S
N334 C335 1.376 . S
N334 C338 1.383 . S
C335 N334 1.376 . S
C335 C336 1.446 . S
C335 C358 1.391 . S
C336 C335 1.446 . S
C336 C337 1.339 . S
C336 H365 0.949 . S
C337 C336 1.339 . S
C337 C338 1.439 . S
C337 H366 0.950 . S
C338 N334 1.383 . S
C338 C337 1.439 . S
C338 C356 1.392 . S
N339 Co323 2.282 . S
N339 C342 1.332 . S
N339 C344 1.332 . S
C340 C341 1.386 . S
C340 C343 1.388 . S
C341 C340 1.386 . S
C341 C342 1.382 . S
C341 H367 0.950 . S
C342 N339 1.332 . S
C342 C341 1.382 . S
C342 H353 0.952 . S
C343 C340 1.388 . S
C343 C344 1.382 . S
C343 H368 0.950 . S
C344 N339 1.332 . S
C344 C343 1.382 . S
C344 H354 0.948 . S
N345 Co323 2.282 . S
N345 C349 1.332 . S
N345 C350 1.332 . S
C346 C347 1.388 . S
C346 C350 1.382 . S
C346 H369 0.950 . S
C347 C346 1.388 . S
C347 C348 1.386 . S
C348 C347 1.386 . S
C348 C349 1.382 . S
C348 H370 0.950 . S
C349 N345 1.332 . S
C349 C348 1.382 . S
C349 H351 0.952 . S
C350 N345 1.332 . S
C350 C346 1.382 . S
C350 H352 0.948 . S
H351 C349 0.952 . S
H352 C350 0.948 . S
H353 C342 0.952 . S
H354 C344 0.948 . S
C355 C321 1.395 . S
C355 C325 1.391 . S
C356 C318 1.389 . S
C356 C338 1.392 . S
C357 C328 1.392 . S
C357 C330 1.389 . S
C358 C333 1.395 . S
C358 C335 1.391 . S
H359 C319 0.951 . S
H360 C320 0.950 . S
H361 C326 0.949 . S
H362 C327 0.950 . S
H363 C331 0.951 . S
H364 C332 0.950 . S
H365 C336 0.949 . S
H366 C337 0.950 . S
H367 C341 0.950 . S
H368 C343 0.950 . S
H369 C346 0.950 . S
H370 C348 0.950 . S
C371 C372 1.443 . S
C371 N375 1.376 . S
C371 C409 1.389 . S
C372 C371 1.443 . S
C372 C373 1.340 . S
C372 H412 0.951 . S
C373 C372 1.340 . S
C373 C374 1.439 . S
C373 H413 0.950 . S
C374 C373 1.439 . S
C374 N375 1.374 . S
C374 C408 1.395 . S
N375 C371 1.376 . S
N375 C374 1.374 . S
N375 Co376 2.008 . S
Co376 N375 2.008 . S
Co376 N377 1.995 . S
Co376 N382 2.008 . S
Co376 N387 1.995 . S
Co376 N392 2.282 . S
Co376 N398 2.282 . S
N377 Co376 1.995 . S
N377 C378 1.376 . S
N377 C381 1.383 . S
C378 N377 1.376 . S
C378 C379 1.446 . S
C378 C408 1.391 . S
C379 C378 1.446 . S
C379 C380 1.339 . S
C379 H414 0.949 . S
C380 C379 1.339 . S
C380 C381 1.439 . S
C380 H415 0.950 . S
C381 N377 1.383 . S
C381 C380 1.439 . S
C381 C410 1.392 . S
N382 Co376 2.008 . S
N382 C383 1.376 . S
N382 C386 1.374 . S
C383 N382 1.376 . S
C383 C384 1.443 . S
C383 C410 1.389 . S
C384 C383 1.443 . S
C384 C385 1.340 . S
C384 H416 0.951 . S
C385 C384 1.340 . S
C385 C386 1.439 . S
C385 H417 0.950 . S
C386 N382 1.374 . S
C386 C385 1.439 . S
C386 C411 1.395 . S
N387 Co376 1.995 . S
N387 C388 1.376 . S
N387 C391 1.383 . S
C388 N387 1.376 . S
C388 C389 1.446 . S
C388 C411 1.391 . S
C389 C388 1.446 . S
C389 C390 1.339 . S
C389 H418 0.949 . S
C390 C389 1.339 . S
C390 C391 1.439 . S
C390 H419 0.950 . S
C391 N387 1.383 . S
C391 C390 1.439 . S
C391 C409 1.392 . S
N392 Co376 2.282 . S
N392 C395 1.332 . S
N392 C397 1.332 . S
C393 C394 1.386 . S
C393 C396 1.388 . S
C394 C393 1.386 . S
C394 C395 1.382 . S
C394 H420 0.950 . S
C395 N392 1.332 . S
C395 C394 1.382 . S
C395 H406 0.952 . S
C396 C393 1.388 . S
C396 C397 1.382 . S
C396 H421 0.950 . S
C397 N392 1.332 . S
C397 C396 1.382 . S
C397 H407 0.948 . S
N398 Co376 2.282 . S
N398 C402 1.332 . S
N398 C403 1.332 . S
C399 C400 1.388 . S
C399 C403 1.382 . S
C399 H422 0.950 . S
C400 C399 1.388 . S
C400 C401 1.386 . S
C401 C400 1.386 . S
C401 C402 1.382 . S
C401 H423 0.950 . S
C402 N398 1.332 . S
C402 C401 1.382 . S
C402 H404 0.952 . S
C403 N398 1.332 . S
C403 C399 1.382 . S
C403 H405 0.948 . S
H404 C402 0.952 . S
H405 C403 0.948 . S
H406 C395 0.952 . S
H407 C397 0.948 . S
C408 C374 1.395 . S
C408 C378 1.391 . S
C409 C371 1.389 . S
C409 C391 1.392 . S
C410 C381 1.392 . S
C410 C383 1.389 . S
C411 C386 1.395 . S
C411 C388 1.391 . S
H412 C372 0.951 . S
H413 C373 0.950 . S
H414 C379 0.949 . S
H415 C380 0.950 . S
H416 C384 0.951 . S
H417 C385 0.950 . S
H418 C389 0.949 . S
H419 C390 0.950 . S
H420 C394 0.950 . S
H421 C396 0.950 . S
H422 C399 0.950 . S
H423 C401 0.950 . S
C424 C425 1.443 . S
C424 N428 1.376 . S
C424 C462 1.389 . S
C425 C424 1.443 . S
C425 C426 1.340 . S
C425 H465 0.951 . S
C426 C425 1.340 . S
C426 C427 1.439 . S
C426 H466 0.950 . S
C427 C426 1.439 . S
C427 N428 1.374 . S
C427 C461 1.395 . S
N428 C424 1.376 . S
N428 C427 1.374 . S
N428 Co429 2.008 . S
Co429 N428 2.008 . S
Co429 N430 1.995 1_554 S
Co429 N435 2.008 1_554 S
Co429 N440 1.995 . S
Co429 N445 2.282 . S
Co429 N451 2.282 1_554 S
N430 Co429 1.995 1_556 S
N430 C431 1.376 1_556 S
N430 C434 1.383 . S
C431 N430 1.376 1_554 S
C431 C432 1.446 1_554 S
C431 C461 1.391 . S
C432 C431 1.446 1_556 S
C432 C433 1.339 . S
C432 H467 0.949 . S
C433 C432 1.339 . S
C433 C434 1.439 . S
C433 H468 0.950 . S
C434 N430 1.383 . S
C434 C433 1.439 . S
C434 C463 1.392 . S
N435 Co429 2.008 1_556 S
N435 C436 1.376 . S
N435 C439 1.374 . S
C436 N435 1.376 . S
C436 C437 1.443 . S
C436 C463 1.389 . S
C437 C436 1.443 . S
C437 C438 1.340 . S
C437 H469 0.951 . S
C438 C437 1.340 . S
C438 C439 1.439 . S
C438 H470 0.950 . S
C439 N435 1.374 . S
C439 C438 1.439 . S
C439 C464 1.395 . S
N440 Co429 1.995 . S
N440 C441 1.376 1_554 S
N440 C444 1.383 . S
C441 N440 1.376 1_556 S
C441 C442 1.446 1_556 S
C441 C464 1.391 . S
C442 C441 1.446 1_554 S
C442 C443 1.339 . S
C442 H471 0.949 . S
C443 C442 1.339 . S
C443 C444 1.439 . S
C443 H472 0.950 . S
C444 N440 1.383 . S
C444 C443 1.439 . S
C444 C462 1.392 . S
N445 Co429 2.282 . S
N445 C448 1.332 1_554 S
N445 C450 1.332 . S
C446 C447 1.386 . S
C446 C449 1.388 1_556 S
C447 C446 1.386 . S
C447 C448 1.382 . S
C447 H473 0.950 . S
C448 N445 1.332 1_556 S
C448 C447 1.382 . S
C448 H459 0.952 . S
C449 C446 1.388 1_554 S
C449 C450 1.382 . S
C449 H474 0.950 . S
C450 N445 1.332 . S
C450 C449 1.382 . S
C450 H460 0.948 . S
N451 Co429 2.282 1_556 S
N451 C455 1.332 1_556 S
N451 C456 1.332 . S
C452 C453 1.388 1_556 S
C452 C456 1.382 . S
C452 H475 0.950 . S
C453 C452 1.388 1_554 S
C453 C454 1.386 . S
C454 C453 1.386 . S
C454 C455 1.382 . S
C454 H476 0.950 . S
C455 N451 1.332 1_554 S
C455 C454 1.382 . S
C455 H457 0.952 . S
C456 N451 1.332 . S
C456 C452 1.382 . S
C456 H458 0.948 . S
H457 C455 0.952 . S
H458 C456 0.948 . S
H459 C448 0.952 . S
H460 C450 0.948 . S
C461 C427 1.395 . S
C461 C431 1.391 . S
C462 C424 1.389 . S
C462 C444 1.392 . S
C463 C434 1.392 . S
C463 C436 1.389 . S
C464 C439 1.395 . S
C464 C441 1.391 . S
H465 C425 0.951 . S
H466 C426 0.950 . S
H467 C432 0.949 . S
H468 C433 0.950 . S
H469 C437 0.951 . S
H470 C438 0.950 . S
H471 C442 0.949 . S
H472 C443 0.950 . S
H473 C447 0.950 . S
H474 C449 0.950 . S
H475 C452 0.950 . S
H476 C454 0.950 . S
C477 C478 1.443 . S
C477 N481 1.376 . S
C477 C515 1.389 . S
C478 C477 1.443 . S
C478 C479 1.340 . S
C478 H518 0.951 . S
C479 C478 1.340 . S
C479 C480 1.439 . S
C479 H519 0.950 . S
C480 C479 1.439 . S
C480 N481 1.374 . S
C480 C514 1.395 . S
N481 C477 1.376 . S
N481 C480 1.374 . S
N481 Co482 2.008 . S
Co482 N481 2.008 . S
Co482 N483 1.995 . S
Co482 N488 2.008 . S
Co482 N493 1.995 . S
Co482 N498 2.282 . S
Co482 N504 2.282 . S
N483 Co482 1.995 . S
N483 C484 1.376 . S
N483 C487 1.383 . S
C484 N483 1.376 . S
C484 C485 1.446 . S
C484 C514 1.391 . S
C485 C484 1.446 . S
C485 C486 1.339 . S
C485 H520 0.949 . S
C486 C485 1.339 . S
C486 C487 1.439 . S
C486 H521 0.950 . S
C487 N483 1.383 . S
C487 C486 1.439 . S
C487 C516 1.392 . S
N488 Co482 2.008 . S
N488 C489 1.376 . S
N488 C492 1.374 . S
C489 N488 1.376 . S
C489 C490 1.443 . S
C489 C516 1.389 . S
C490 C489 1.443 . S
C490 C491 1.340 . S
C490 H522 0.951 . S
C491 C490 1.340 . S
C491 C492 1.439 . S
C491 H523 0.950 . S
C492 N488 1.374 . S
C492 C491 1.439 . S
C492 C517 1.395 . S
N493 Co482 1.995 . S
N493 C494 1.376 . S
N493 C497 1.383 . S
C494 N493 1.376 . S
C494 C495 1.446 . S
C494 C517 1.391 . S
C495 C494 1.446 . S
C495 C496 1.339 . S
C495 H524 0.949 . S
C496 C495 1.339 . S
C496 C497 1.439 . S
C496 H525 0.950 . S
C497 N493 1.383 . S
C497 C496 1.439 . S
C497 C515 1.392 . S
N498 Co482 2.282 . S
N498 C501 1.332 . S
N498 C503 1.332 . S
C499 C500 1.386 . S
C499 C502 1.388 . S
C500 C499 1.386 . S
C500 C501 1.382 . S
C500 H526 0.950 . S
C501 N498 1.332 . S
C501 C500 1.382 . S
C501 H512 0.952 . S
C502 C499 1.388 . S
C502 C503 1.382 . S
C502 H527 0.950 . S
C503 N498 1.332 . S
C503 C502 1.382 . S
C503 H513 0.948 . S
N504 Co482 2.282 . S
N504 C508 1.332 . S
N504 C509 1.332 . S
C505 C506 1.388 . S
C505 C509 1.382 . S
C505 H528 0.950 . S
C506 C505 1.388 . S
C506 C507 1.386 . S
C507 C506 1.386 . S
C507 C508 1.382 . S
C507 H529 0.950 . S
C508 N504 1.332 . S
C508 C507 1.382 . S
C508 H510 0.952 . S
C509 N504 1.332 . S
C509 C505 1.382 . S
C509 H511 0.948 . S
H510 C508 0.952 . S
H511 C509 0.948 . S
H512 C501 0.952 . S
H513 C503 0.948 . S
C514 C480 1.395 . S
C514 C484 1.391 . S
C515 C477 1.389 . S
C515 C497 1.392 . S
C516 C487 1.392 . S
C516 C489 1.389 . S
C517 C492 1.395 . S
C517 C494 1.391 . S
H518 C478 0.951 . S
H519 C479 0.950 . S
H520 C485 0.949 . S
H521 C486 0.950 . S
H522 C490 0.951 . S
H523 C491 0.950 . S
H524 C495 0.949 . S
H525 C496 0.950 . S
H526 C500 0.950 . S
H527 C502 0.950 . S
H528 C505 0.950 . S
H529 C507 0.950 . S
C530 C531 1.443 . S
C530 N534 1.376 . S
C530 C568 1.389 . S
C531 C530 1.443 . S
C531 C532 1.340 . S
C531 H571 0.951 . S
C532 C531 1.340 . S
C532 C533 1.439 . S
C532 H572 0.950 . S
C533 C532 1.439 . S
C533 N534 1.374 . S
C533 C567 1.395 . S
N534 C530 1.376 . S
N534 C533 1.374 . S
N534 Co535 2.008 . S
Co535 N534 2.008 . S
Co535 N536 1.995 . S
Co535 N541 2.008 . S
Co535 N546 1.995 . S
Co535 N551 2.282 . S
Co535 N557 2.282 . S
N536 Co535 1.995 . S
N536 C537 1.376 . S
N536 C540 1.383 . S
C537 N536 1.376 . S
C537 C538 1.446 . S
C537 C567 1.391 . S
C538 C537 1.446 . S
C538 C539 1.339 . S
C538 H573 0.949 . S
C539 C538 1.339 . S
C539 C540 1.439 . S
C539 H574 0.950 . S
C540 N536 1.383 . S
C540 C539 1.439 . S
C540 C569 1.392 . S
N541 Co535 2.008 . S
N541 C542 1.376 . S
N541 C545 1.374 . S
C542 N541 1.376 . S
C542 C543 1.443 . S
C542 C569 1.389 . S
C543 C542 1.443 . S
C543 C544 1.340 . S
C543 H575 0.951 . S
C544 C543 1.340 . S
C544 C545 1.439 . S
C544 H576 0.950 . S
C545 N541 1.374 . S
C545 C544 1.439 . S
C545 C570 1.395 . S
N546 Co535 1.995 . S
N546 C547 1.376 . S
N546 C550 1.383 . S
C547 N546 1.376 . S
C547 C548 1.446 . S
C547 C570 1.391 . S
C548 C547 1.446 . S
C548 C549 1.339 . S
C548 H577 0.949 . S
C549 C548 1.339 . S
C549 C550 1.439 . S
C549 H578 0.950 . S
C550 N546 1.383 . S
C550 C549 1.439 . S
C550 C568 1.392 . S
N551 Co535 2.282 . S
N551 C554 1.332 . S
N551 C556 1.332 . S
C552 C553 1.386 . S
C552 C555 1.388 . S
C553 C552 1.386 . S
C553 C554 1.382 . S
C553 H579 0.950 . S
C554 N551 1.332 . S
C554 C553 1.382 . S
C554 H565 0.952 . S
C555 C552 1.388 . S
C555 C556 1.382 . S
C555 H580 0.950 . S
C556 N551 1.332 . S
C556 C555 1.382 . S
C556 H566 0.948 . S
N557 Co535 2.282 . S
N557 C561 1.332 . S
N557 C562 1.332 . S
C558 C559 1.388 . S
C558 C562 1.382 . S
C558 H581 0.950 . S
C559 C558 1.388 . S
C559 C560 1.386 . S
C560 C559 1.386 . S
C560 C561 1.382 . S
C560 H582 0.950 . S
C561 N557 1.332 . S
C561 C560 1.382 . S
C561 H563 0.952 . S
C562 N557 1.332 . S
C562 C558 1.382 . S
C562 H564 0.948 . S
H563 C561 0.952 . S
H564 C562 0.948 . S
H565 C554 0.952 . S
H566 C556 0.948 . S
C567 C533 1.395 . S
C567 C537 1.391 . S
C568 C530 1.389 . S
C568 C550 1.392 . S
C569 C540 1.392 . S
C569 C542 1.389 . S
C570 C545 1.395 . S
C570 C547 1.391 . S
H571 C531 0.951 . S
H572 C532 0.950 . S
H573 C538 0.949 . S
H574 C539 0.950 . S
H575 C543 0.951 . S
H576 C544 0.950 . S
H577 C548 0.949 . S
H578 C549 0.950 . S
H579 C553 0.950 . S
H580 C555 0.950 . S
H581 C558 0.950 . S
H582 C560 0.950 . S
C583 C584 1.443 . S
C583 N587 1.376 . S
C583 C621 1.389 . S
C584 C583 1.443 . S
C584 C585 1.340 . S
C584 H624 0.951 . S
C585 C584 1.340 . S
C585 C586 1.439 . S
C585 H625 0.950 . S
C586 C585 1.439 . S
C586 N587 1.374 . S
C586 C620 1.395 . S
N587 C583 1.376 . S
N587 C586 1.374 . S
N587 Co588 2.008 . S
Co588 N587 2.008 . S
Co588 N589 1.995 1_554 S
Co588 N594 2.008 1_554 S
Co588 N599 1.995 . S
Co588 N604 2.282 . S
Co588 N610 2.282 1_554 S
N589 Co588 1.995 1_556 S
N589 C590 1.376 1_556 S
N589 C593 1.383 . S
C590 N589 1.376 1_554 S
C590 C591 1.446 1_554 S
C590 C620 1.391 . S
C591 C590 1.446 1_556 S
C591 C592 1.339 . S
C591 H626 0.949 . S
C592 C591 1.339 . S
C592 C593 1.439 . S
C592 H627 0.950 . S
C593 N589 1.383 . S
C593 C592 1.439 . S
C593 C622 1.392 . S
N594 Co588 2.008 1_556 S
N594 C595 1.376 . S
N594 C598 1.374 . S
C595 N594 1.376 . S
C595 C596 1.443 . S
C595 C622 1.389 . S
C596 C595 1.443 . S
C596 C597 1.340 . S
C596 H628 0.951 . S
C597 C596 1.340 . S
C597 C598 1.439 . S
C597 H629 0.950 . S
C598 N594 1.374 . S
C598 C597 1.439 . S
C598 C623 1.395 . S
N599 Co588 1.995 . S
N599 C600 1.376 1_554 S
N599 C603 1.383 . S
C600 N599 1.376 1_556 S
C600 C601 1.446 1_556 S
C600 C623 1.391 . S
C601 C600 1.446 1_554 S
C601 C602 1.339 . S
C601 H630 0.949 . S
C602 C601 1.339 . S
C602 C603 1.439 . S
C602 H631 0.950 . S
C603 N599 1.383 . S
C603 C602 1.439 . S
C603 C621 1.392 . S
N604 Co588 2.282 . S
N604 C607 1.332 1_554 S
N604 C609 1.332 . S
C605 C606 1.386 . S
C605 C608 1.388 1_556 S
C606 C605 1.386 . S
C606 C607 1.382 . S
C606 H632 0.950 . S
C607 N604 1.332 1_556 S
C607 C606 1.382 . S
C607 H618 0.952 . S
C608 C605 1.388 1_554 S
C608 C609 1.382 . S
C608 H633 0.950 . S
C609 N604 1.332 . S
C609 C608 1.382 . S
C609 H619 0.948 . S
N610 Co588 2.282 1_556 S
N610 C614 1.332 1_556 S
N610 C615 1.332 . S
C611 C612 1.388 1_556 S
C611 C615 1.382 . S
C611 H634 0.950 . S
C612 C611 1.388 1_554 S
C612 C613 1.386 . S
C613 C612 1.386 . S
C613 C614 1.382 . S
C613 H635 0.950 . S
C614 N610 1.332 1_554 S
C614 C613 1.382 . S
C614 H616 0.952 . S
C615 N610 1.332 . S
C615 C611 1.382 . S
C615 H617 0.948 . S
H616 C614 0.952 . S
H617 C615 0.948 . S
H618 C607 0.952 . S
H619 C609 0.948 . S
C620 C586 1.395 . S
C620 C590 1.391 . S
C621 C583 1.389 . S
C621 C603 1.392 . S
C622 C593 1.392 . S
C622 C595 1.389 . S
C623 C598 1.395 . S
C623 C600 1.391 . S
H624 C584 0.951 . S
H625 C585 0.950 . S
H626 C591 0.949 . S
H627 C592 0.950 . S
H628 C596 0.951 . S
H629 C597 0.950 . S
H630 C601 0.949 . S
H631 C602 0.950 . S
H632 C606 0.950 . S
H633 C608 0.950 . S
H634 C611 0.950 . S
H635 C613 0.950 . S
C39 C569 1.826 . S
C92 C622 1.917 . S
C357 C145 1.917 . S
C198 C410 1.826 . S
C463 C251 1.917 . S
C516 C304 1.917 . S
C347 C29 1.672 . S
C400 C82 1.672 . S
C453 C135 1.685 1_554 S
C188 C506 1.672 . S
C241 C559 1.672 . S
C294 C612 1.685 1_556 S
C22 C181 5.468 1_545 S
C75 C234 5.449 . S
C128 C287 5.420 1_655 S
C499 C340 5.450 1_455 S
C552 C393 5.468 1_545 S
C605 C446 5.420 . S
C38 C462 2.973 . S
C515 C91 3.053 . S
C144 C568 2.972 . S
C621 C197 2.973 . S
C250 C356 3.053 . S
C303 C409 2.972 . S
