# Generated by pormake.
# Topology ukk, (4)-cn, num edge types: 1
# Building blocks:
#     Node 0, Type 0, BuildingBlock: QUQFOY_clean_sbu_3, # of connection points: 4
#     Node 1, Type 0, BuildingBlock: QUQFOY_clean_sbu_3, # of connection points: 4
#     Node 2, Type 0, BuildingBlock: QUQFOY_clean_sbu_3, # of connection points: 4
#     Node 3, Type 0, BuildingBlock: QUQFOY_clean_sbu_3, # of connection points: 4
#     Node 4, Type 0, BuildingBlock: QUQFOY_clean_sbu_3, # of connection points: 4
#     Node 5, Type 0, BuildingBlock: QUQFOY_clean_sbu_3, # of connection points: 4
#     Node 6, Type 0, BuildingBlock: QUQFOY_clean_sbu_3, # of connection points: 4
#     Node 7, Type 0, BuildingBlock: QUQFOY_clean_sbu_3, # of connection points: 4
#     Node 8, Type 0, BuildingBlock: QUQFOY_clean_sbu_3, # of connection points: 4
#     Node 9, Type 0, BuildingBlock: QUQFOY_clean_sbu_3, # of connection points: 4
#     Node 10, Type 0, BuildingBlock: QUQFOY_clean_sbu_3, # of connection points: 4
#     Node 11, Type 0, BuildingBlock: QUQFOY_clean_sbu_3, # of connection points: 4
#     Node 12, Type 0, BuildingBlock: QUQFOY_clean_sbu_3, # of connection points: 4
#     Node 13, Type 0, BuildingBlock: QUQFOY_clean_sbu_3, # of connection points: 4
#     Node 14, Type 0, BuildingBlock: QUQFOY_clean_sbu_3, # of connection points: 4
#     Node 15, Type 0, BuildingBlock: QUQFOY_clean_sbu_3, # of connection points: 4
#     Edge 16, Type (0, 0), BuildingBlock: EZIPEK_clean_linker_0, # of connection points: 2
#     Edge 17, Type (0, 0), BuildingBlock: EZIPEK_clean_linker_0, # of connection points: 2
#     Edge 18, Type (0, 0), BuildingBlock: EZIPEK_clean_linker_0, # of connection points: 2
#     Edge 19, Type (0, 0), BuildingBlock: EZIPEK_clean_linker_0, # of connection points: 2
#     Edge 20, Type (0, 0), BuildingBlock: EZIPEK_clean_linker_0, # of connection points: 2
#     Edge 21, Type (0, 0), BuildingBlock: EZIPEK_clean_linker_0, # of connection points: 2
#     Edge 22, Type (0, 0), BuildingBlock: EZIPEK_clean_linker_0, # of connection points: 2
#     Edge 23, Type (0, 0), BuildingBlock: EZIPEK_clean_linker_0, # of connection points: 2
#     Edge 24, Type (0, 0), BuildingBlock: EZIPEK_clean_linker_0, # of connection points: 2
#     Edge 25, Type (0, 0), BuildingBlock: EZIPEK_clean_linker_0, # of connection points: 2
#     Edge 26, Type (0, 0), BuildingBlock: EZIPEK_clean_linker_0, # of connection points: 2
#     Edge 27, Type (0, 0), BuildingBlock: EZIPEK_clean_linker_0, # of connection points: 2
#     Edge 28, Type (0, 0), BuildingBlock: EZIPEK_clean_linker_0, # of connection points: 2
#     Edge 29, Type (0, 0), BuildingBlock: EZIPEK_clean_linker_0, # of connection points: 2
#     Edge 30, Type (0, 0), BuildingBlock: EZIPEK_clean_linker_0, # of connection points: 2
#     Edge 31, Type (0, 0), BuildingBlock: EZIPEK_clean_linker_0, # of connection points: 2
#     Edge 32, Type (0, 0), BuildingBlock: EZIPEK_clean_linker_0, # of connection points: 2
#     Edge 33, Type (0, 0), BuildingBlock: EZIPEK_clean_linker_0, # of connection points: 2
#     Edge 34, Type (0, 0), BuildingBlock: EZIPEK_clean_linker_0, # of connection points: 2
#     Edge 35, Type (0, 0), BuildingBlock: EZIPEK_clean_linker_0, # of connection points: 2
#     Edge 36, Type (0, 0), BuildingBlock: EZIPEK_clean_linker_0, # of connection points: 2
#     Edge 37, Type (0, 0), BuildingBlock: EZIPEK_clean_linker_0, # of connection points: 2
#     Edge 38, Type (0, 0), BuildingBlock: EZIPEK_clean_linker_0, # of connection points: 2
#     Edge 39, Type (0, 0), BuildingBlock: EZIPEK_clean_linker_0, # of connection points: 2
#     Edge 40, Type (0, 0), BuildingBlock: EZIPEK_clean_linker_0, # of connection points: 2
#     Edge 41, Type (0, 0), BuildingBlock: EZIPEK_clean_linker_0, # of connection points: 2
#     Edge 42, Type (0, 0), BuildingBlock: EZIPEK_clean_linker_0, # of connection points: 2
#     Edge 43, Type (0, 0), BuildingBlock: EZIPEK_clean_linker_0, # of connection points: 2
#     Edge 44, Type (0, 0), BuildingBlock: EZIPEK_clean_linker_0, # of connection points: 2
#     Edge 45, Type (0, 0), BuildingBlock: EZIPEK_clean_linker_0, # of connection points: 2
#     Edge 46, Type (0, 0), BuildingBlock: EZIPEK_clean_linker_0, # of connection points: 2
#     Edge 47, Type (0, 0), BuildingBlock: EZIPEK_clean_linker_0, # of connection points: 2
# Relax obj value: 0.123
# Max RMSD: 0.291
# Mean RMSD: 0.291
data_MOF--net-ukk--node1-QUQFOY_clean_sbu_3--edge1-EZIPEK_clean_linker_0
_symmetry_space_group_name_H-M    P1
_symmetry_Int_Tables_number       1
_symmetry_cell_setting            triclinic
loop_
_symmetry_equiv_pos_as_xyz
'x, y, z'
_cell_length_a     41.765379
_cell_length_b     41.70276
_cell_length_c     13.161646
_cell_angle_alpha  89.770774
_cell_angle_beta   90.176278
_cell_angle_gamma 89.850366
loop_
_atom_site_label
_atom_site_type_symbol
_atom_site_fract_x
_atom_site_fract_y
_atom_site_fract_z
_atom_type_partial_charge
C0 C 0.32964 0.04243 0.33214 0.0
O1 O 0.33533 0.06156 0.40431 0.0
Cd2 Cd 0.34799 0.1154 0.34193 0.0
O3 O 0.32795 0.05395 0.24313 0.0
Cd4 Cd 0.32631 0.1003 0.13422 0.0
C5 C 0.40523 0.0995 0.16088 0.0
O6 O 0.30826 0.14498 0.24164 0.0
O7 O 0.33622 0.15567 0.10646 0.0
O8 O 0.2711 0.08909 0.09218 0.0
C9 C 0.31814 0.16556 0.17711 0.0
O10 O 0.3984 0.10943 0.24957 0.0
C11 C 0.27529 0.08593 0.99747 0.0
O12 O 0.38331 0.09198 0.09785 0.0
O13 O 0.30392 0.08785 0.96499 0.0
C14 C 0.03661 0.6132 0.66279 0.0
O15 O 0.05872 0.60793 0.59905 0.0
Cd16 Cd 0.11387 0.59988 0.65922 0.0
O17 O 0.04332 0.61681 0.75592 0.0
Cd18 Cd 0.08937 0.61703 0.86805 0.0
C19 C 0.09802 0.53844 0.82172 0.0
O20 O 0.13854 0.63533 0.78183 0.0
O21 O 0.14242 0.6071 0.92135 0.0
O22 O 0.07742 0.67022 0.92318 0.0
C23 C 0.15604 0.62352 0.85273 0.0
O24 O 0.11138 0.54785 0.74016 0.0
C25 C 0.07077 0.66241 0.01388 0.0
O26 O 0.08496 0.55827 0.88265 0.0
O27 O 0.07097 0.63269 0.03663 0.0
C28 C 0.61111 0.89969 0.35896 0.0
O29 O 0.60058 0.87584 0.4095 0.0
Cd30 Cd 0.59202 0.82086 0.35069 0.0
O31 O 0.62064 0.89677 0.26761 0.0
Cd32 Cd 0.62674 0.85727 0.1309 0.0
C33 C 0.54486 0.84211 0.14243 0.0
O34 O 0.63009 0.80904 0.22636 0.0
O35 O 0.65666 0.80719 0.08964 0.0
O36 O 0.67594 0.88355 0.08601 0.0
C37 C 0.64596 0.79209 0.16524 0.0
O38 O 0.54859 0.83023 0.23119 0.0
C39 C 0.67023 0.88395 0.99101 0.0
O40 O 0.56827 0.85328 0.09049 0.0
O41 O 0.64249 0.87517 0.96146 0.0
C42 C 0.9097 0.33507 0.64955 0.0
O43 O 0.88679 0.33853 0.58692 0.0
Cd44 Cd 0.83326 0.34769 0.65849 0.0
O45 O 0.90406 0.33363 0.74405 0.0
Cd46 Cd 0.86273 0.33295 0.87201 0.0
C47 C 0.84951 0.41096 0.81807 0.0
O48 O 0.81359 0.31268 0.79177 0.0
O49 O 0.80996 0.34007 0.93212 0.0
O50 O 0.87745 0.28063 0.93481 0.0
C51 C 0.79622 0.324 0.86307 0.0
O52 O 0.8367 0.40025 0.73707 0.0
C53 C 0.88757 0.29003 0.02061 0.0
O54 O 0.86355 0.3922 0.88111 0.0
O55 O 0.88753 0.32012 0.03642 0.0
C56 C 0.33662 0.4076 0.89875 0.0
O57 O 0.33686 0.3823 0.84569 0.0
Cd58 Cd 0.33647 0.3302 0.93108 0.0
O59 O 0.33416 0.40603 0.99453 0.0
Cd60 Cd 0.32913 0.36511 0.12468 0.0
C61 C 0.40287 0.34118 0.07732 0.0
O62 O 0.29882 0.31855 0.0619 0.0
O63 O 0.33437 0.3107 0.17976 0.0
O64 O 0.27956 0.38496 0.18886 0.0
C65 C 0.31124 0.29975 0.12773 0.0
O66 O 0.38789 0.32352 0.01454 0.0
C67 C 0.28964 0.38997 0.27833 0.0
O68 O 0.38801 0.36322 0.12495 0.0
O69 O 0.31965 0.38733 0.29397 0.0
C70 C 0.40375 0.6048 0.11655 0.0
O71 O 0.37898 0.59812 0.16782 0.0
Cd72 Cd 0.32823 0.59107 0.0802 0.0
O73 O 0.40164 0.61128 0.02246 0.0
Cd74 Cd 0.36077 0.61844 0.89022 0.0
C75 C 0.3517 0.53912 0.89146 0.0
O76 O 0.30949 0.63364 0.97054 0.0
O77 O 0.30835 0.61119 0.82181 0.0
O78 O 0.37575 0.67367 0.85814 0.0
C79 C 0.29343 0.62533 0.89235 0.0
O80 O 0.3364 0.54444 0.97317 0.0
C81 C 0.38267 0.66926 0.76549 0.0
O82 O 0.36589 0.56163 0.84375 0.0
O83 O 0.38145 0.64069 0.7321 0.0
C84 C 0.59768 0.54347 0.92436 0.0
O85 O 0.59443 0.56754 0.86617 0.0
Cd86 Cd 0.58918 0.61875 0.94923 0.0
O87 O 0.60305 0.54716 0.01856 0.0
Cd88 Cd 0.61532 0.58977 0.1401 0.0
C89 C 0.5368 0.59891 0.14201 0.0
O90 O 0.63364 0.63798 0.04875 0.0
O91 O 0.61085 0.64401 0.19585 0.0
O92 O 0.66844 0.56688 0.14912 0.0
C93 C 0.62661 0.65614 0.12322 0.0
O94 O 0.54247 0.6126 0.05734 0.0
C95 C 0.67035 0.56783 0.24521 0.0
O96 O 0.55927 0.58603 0.194 0.0
O97 O 0.64525 0.57569 0.29391 0.0
C98 C 0.54019 0.3314 0.07311 0.0
O99 O 0.56208 0.33139 0.13991 0.0
Cd100 Cd 0.61312 0.34958 0.07 0.0
O101 O 0.54778 0.33323 0.98004 0.0
Cd102 Cd 0.59199 0.33131 0.86261 0.0
C103 C 0.59203 0.40911 0.89835 0.0
O104 O 0.64099 0.31438 0.95388 0.0
O105 O 0.64523 0.3426 0.81469 0.0
O106 O 0.57844 0.27707 0.81854 0.0
C107 C 0.65863 0.32621 0.8842 0.0
O108 O 0.60369 0.40099 0.98425 0.0
C109 C 0.57378 0.28282 0.72499 0.0
O110 O 0.58334 0.38823 0.8337 0.0
O111 O 0.57597 0.31181 0.69518 0.0
C112 C 0.83067 0.54779 0.8493 0.0
O113 O 0.85213 0.56674 0.88119 0.0
Cd114 Cd 0.8544 0.62509 0.85847 0.0
O115 O 0.80925 0.55796 0.78875 0.0
Cd116 Cd 0.81885 0.59844 0.65766 0.0
C117 C 0.90233 0.61124 0.66334 0.0
O118 O 0.8193 0.65064 0.73832 0.0
O119 O 0.78772 0.64593 0.61021 0.0
O120 O 0.77102 0.57498 0.59167 0.0
C121 C 0.80071 0.66402 0.67475 0.0
O122 O 0.89994 0.62412 0.75043 0.0
C123 C 0.78091 0.57309 0.50081 0.0
O124 O 0.87811 0.59891 0.61824 0.0
O125 O 0.81007 0.58028 0.48362 0.0
C126 C 0.54043 0.09773 0.1754 0.0
O127 O 0.56334 0.09508 0.11299 0.0
Cd128 Cd 0.61662 0.08778 0.18407 0.0
O129 O 0.54594 0.10167 0.2694 0.0
Cd130 Cd 0.59129 0.11251 0.38292 0.0
C131 C 0.60162 0.03371 0.37739 0.0
O132 O 0.63808 0.13083 0.28451 0.0
O133 O 0.6458 0.10999 0.43481 0.0
O134 O 0.56723 0.16489 0.39348 0.0
C135 C 0.657 0.1247 0.35853 0.0
O136 O 0.6132 0.04011 0.2903 0.0
C137 C 0.57056 0.16739 0.48887 0.0
O138 O 0.58959 0.05566 0.43292 0.0
O139 O 0.58009 0.14267 0.53756 0.0
C140 C 0.10504 0.40178 0.81943 0.0
O141 O 0.09847 0.37947 0.8817 0.0
Cd142 Cd 0.10163 0.32394 0.82047 0.0
O143 O 0.11438 0.39494 0.73084 0.0
Cd144 Cd 0.12501 0.35092 0.62024 0.0
C145 C 0.04579 0.33487 0.63789 0.0
O146 O 0.14618 0.30522 0.71851 0.0
O147 O 0.12675 0.29739 0.56634 0.0
O148 O 0.17446 0.37954 0.61351 0.0
C149 C 0.14115 0.28632 0.64384 0.0
O150 O 0.05375 0.31979 0.71834 0.0
C151 C 0.17736 0.37822 0.51777 0.0
O152 O 0.06621 0.35149 0.58826 0.0
O153 O 0.15405 0.3667 0.46689 0.0
C154 C 0.41143 0.83644 0.14948 0.0
O155 O 0.38772 0.83626 0.08912 0.0
Cd156 Cd 0.33455 0.84283 0.16084 0.0
O157 O 0.40716 0.83558 0.24492 0.0
Cd158 Cd 0.36414 0.82921 0.36965 0.0
C159 C 0.35135 0.9056 0.327 0.0
O160 O 0.3157 0.80618 0.28673 0.0
O161 O 0.30975 0.83676 0.41856 0.0
O162 O 0.38901 0.77844 0.40906 0.0
C163 C 0.29728 0.818 0.35423 0.0
O164 O 0.3375 0.89329 0.25021 0.0
C165 C 0.38591 0.78084 0.50458 0.0
O166 O 0.36781 0.88805 0.38745 0.0
O167 O 0.37605 0.80757 0.53909 0.0
C168 C 0.84591 0.91022 0.40245 0.0
O169 O 0.8502 0.88631 0.3448 0.0
Cd170 Cd 0.85689 0.83393 0.42279 0.0
O171 O 0.84114 0.90632 0.4969 0.0
Cd172 Cd 0.83472 0.86383 0.62357 0.0
C173 C 0.91349 0.85025 0.60638 0.0
O174 O 0.81386 0.81676 0.53176 0.0
O175 O 0.83666 0.80936 0.67902 0.0
O176 O 0.7812 0.88277 0.65666 0.0
C177 C 0.82032 0.79818 0.6062 0.0
O178 O 0.9058 0.83713 0.52262 0.0
C179 C 0.78508 0.88678 0.75125 0.0
O180 O 0.89255 0.86411 0.6615 0.0
O181 O 0.8131 0.88228 0.7871 0.0
C182 C 0.89843 0.10993 0.60649 0.0
O183 O 0.87304 0.10468 0.65695 0.0
Cd184 Cd 0.82078 0.09892 0.57428 0.0
O185 O 0.89727 0.11609 0.51191 0.0
Cd186 Cd 0.86064 0.12577 0.36928 0.0
C187 C 0.84546 0.04523 0.38892 0.0
O188 O 0.8109 0.13995 0.45135 0.0
O189 O 0.81014 0.13624 0.28761 0.0
O190 O 0.88674 0.17691 0.36362 0.0
C191 C 0.79452 0.1387 0.36945 0.0
O192 O 0.83083 0.05217 0.47083 0.0
C193 C 0.88944 0.1776 0.26751 0.0
O194 O 0.85928 0.06684 0.33523 0.0
O195 O 0.88264 0.15209 0.21898 0.0
C196 C 0.10077 0.04194 0.40774 0.0
O197 O 0.08942 0.06435 0.35298 0.0
Cd198 Cd 0.07679 0.11769 0.41952 0.0
O199 O 0.10945 0.04746 0.49837 0.0
Cd200 Cd 0.11306 0.09441 0.60614 0.0
C201 C 0.02945 0.10033 0.61371 0.0
O202 O 0.10446 0.14905 0.54639 0.0
O203 O 0.15325 0.1329 0.54089 0.0
O204 O 0.16154 0.06994 0.67011 0.0
C205 C 0.13382 0.15615 0.54439 0.0
O206 O 0.03047 0.10848 0.52062 0.0
C207 C 0.15897 0.08016 0.76017 0.0
O208 O 0.05507 0.09422 0.66412 0.0
O209 O 0.13314 0.09466 0.78329 0.0
C210 C 0.04767 0.84043 0.59541 0.0
O211 O 0.07197 0.84443 0.65201 0.0
Cd212 Cd 0.12371 0.85303 0.57114 0.0
O213 O 0.05096 0.83567 0.50087 0.0
Cd214 Cd 0.09284 0.82771 0.3742 0.0
C215 C 0.10014 0.90683 0.38526 0.0
O216 O 0.14322 0.81196 0.45966 0.0
O217 O 0.14531 0.83311 0.30839 0.0
O218 O 0.07481 0.77357 0.35769 0.0
C219 C 0.15981 0.81987 0.38226 0.0
O220 O 0.1146 0.9006 0.4683 0.0
C221 C 0.07073 0.77482 0.2622 0.0
O222 O 0.08697 0.8848 0.33286 0.0
O223 O 0.07457 0.80179 0.21821 0.0
C224 C 0.34157 0.95595 0.43469 0.0
C225 C 0.34811 0.94101 0.3395 0.0
C226 C 0.32779 -0.01168 0.25369 0.0
C227 C 0.32904 0.00649 0.34417 0.0
N228 N 0.33412 0.00551 0.52786 0.0
N229 N 0.35691 0.9492 0.15917 0.0
C230 C 0.33537 -0.01016 0.43722 0.0
C231 C 0.34454 0.95931 0.24944 0.0
N232 N 0.33889 0.93792 0.52109 0.0
N233 N 0.30918 -0.00243 0.17335 0.0
H234 H 0.37159 0.92903 0.15351 0.0
H235 H 0.35556 0.96321 0.09334 0.0
H236 H 0.29237 0.01602 0.17944 0.0
H237 H 0.30704 -0.01626 0.10774 0.0
H238 H 0.3308 0.94716 0.58981 0.0
H239 H 0.34184 0.91315 0.5228 0.0
H240 H 0.34338 -0.00417 0.59494 0.0
H241 H 0.32336 0.02785 0.53655 0.0
C242 C -0.01421 0.63306 0.5795 0.0
C243 C 0.00242 0.609 0.63519 0.0
C244 C 0.95215 0.57978 0.65923 0.0
C245 C 0.93512 0.60683 0.62388 0.0
N246 N 0.93448 0.65883 0.54517 0.0
N247 N 0.00074 0.56051 0.73725 0.0
C248 C 0.95162 0.63317 0.58052 0.0
C249 C -0.0145 0.58232 0.67608 0.0
N250 N 0.00258 0.65614 0.52878 0.0
N251 N 0.93614 0.55204 0.68018 0.0
H252 H 0.02496 0.56178 0.75494 0.0
H253 H -0.01116 0.54278 0.77821 0.0
H254 H 0.91154 0.54994 0.66902 0.0
H255 H 0.94754 0.53047 0.69776 0.0
H256 H -0.00801 0.67292 0.48041 0.0
H257 H 0.02754 0.657 0.52938 0.0
H258 H 0.94471 0.68049 0.52315 0.0
H259 H 0.90953 0.65849 0.54126 0.0
C260 C 0.63522 0.9507 0.42119 0.0
C261 C 0.60746 0.93262 0.39899 0.0
C262 C 0.57445 -0.01867 0.40881 0.0
C263 C 0.60282 -0.00017 0.4113 0.0
N264 N 0.66007 0.00329 0.42926 0.0
N265 N 0.55032 0.92985 0.37183 0.0
C266 C 0.63318 -0.01523 0.42221 0.0
C267 C 0.57682 0.94756 0.39564 0.0
N268 N 0.66341 0.93506 0.44049 0.0
N269 N 0.54533 -0.00383 0.41597 0.0
H270 H 0.55082 0.90501 0.3636 0.0
H271 H 0.52807 0.93979 0.35454 0.0
H272 H 0.54284 0.02093 0.42288 0.0
H273 H 0.5238 -0.01607 0.42399 0.0
H274 H 0.68429 0.94638 0.46416 0.0
H275 H 0.66512 0.91008 0.44049 0.0
H276 H 0.68331 -0.00565 0.42526 0.0
H277 H 0.65898 0.0282 0.43654 0.0
C278 C -0.00586 0.36072 0.68319 0.0
C279 C 0.01109 0.33914 0.61992 0.0
C280 C 0.96009 0.3175 0.55682 0.0
C281 C 0.94358 0.33969 0.6193 0.0
N282 N 0.94489 0.38941 0.71182 0.0
N283 N 0.01101 0.30115 0.48281 0.0
C284 C 0.96075 0.3638 0.67144 0.0
C285 C -0.00573 0.31908 0.55118 0.0
N286 N 0.00936 0.3765 0.76031 0.0
N287 N 0.94341 0.29403 0.50793 0.0
H288 H 0.03597 0.30161 0.4791 0.0
H289 H 0.00023 0.28789 0.42531 0.0
H290 H 0.91848 0.29279 0.50956 0.0
H291 H 0.95421 0.27503 0.46999 0.0
H292 H -0.00277 0.38982 0.81496 0.0
H293 H 0.0336 0.37367 0.77681 0.0
H294 H 0.95655 0.40928 0.74211 0.0
H295 H 0.92018 0.3921 0.70526 0.0
C296 C 0.3743 0.45203 0.86451 0.0
C297 C 0.34304 0.43936 0.85349 0.0
C298 C 0.32204 0.49306 0.81908 0.0
C299 C 0.35161 0.50599 0.85244 0.0
N300 N 0.40682 0.49886 0.90057 0.0
N301 N 0.28754 0.44623 0.81044 0.0
C302 C 0.37836 0.4858 0.87054 0.0
C303 C 0.3171 0.45938 0.82532 0.0
N304 N 0.39978 0.43151 0.87185 0.0
N305 N 0.29875 0.51327 0.78342 0.0
H306 H 0.28391 0.42147 0.81059 0.0
H307 H 0.26666 0.45958 0.80084 0.0
H308 H 0.30232 0.53798 0.77749 0.0
H309 H 0.2772 0.50559 0.75216 0.0
H310 H 0.42355 0.43894 0.8729 0.0
H311 H 0.39705 0.40667 0.86786 0.0
H312 H 0.42621 0.48545 0.92695 0.0
H313 H 0.41064 0.52356 0.90282 0.0
C314 C 0.45324 0.62964 0.18695 0.0
C315 C 0.4361 0.60158 0.16142 0.0
C316 C 0.48545 0.5697 0.17188 0.0
C317 C 0.50313 0.5986 0.17701 0.0
N318 N 0.50509 0.6556 0.20325 0.0
N319 N 0.43433 0.54449 0.13535 0.0
C320 C 0.48727 0.62842 0.19082 0.0
C321 C 0.45166 0.5713 0.15832 0.0
N322 N 0.43675 0.65732 0.20584 0.0
N323 N 0.50106 0.5409 0.17718 0.0
H324 H 0.40943 0.54471 0.12883 0.0
H325 H 0.44447 0.52232 0.11866 0.0
H326 H 0.52582 0.53903 0.18512 0.0
H327 H 0.48951 0.51888 0.18217 0.0
H328 H 0.44727 0.67848 0.2306 0.0
H329 H 0.41177 0.65835 0.20367 0.0
H330 H 0.4957 0.67871 0.20275 0.0
H331 H 0.52992 0.65488 0.21254 0.0
C332 C 0.56205 0.46065 0.90584 0.0
C333 C 0.58958 0.44358 0.87439 0.0
C334 C 0.61748 0.49398 0.83837 0.0
C335 C 0.59225 0.51062 0.88692 0.0
N336 N 0.53926 0.5116 0.95858 0.0
N337 N 0.64253 0.44253 0.80288 0.0
C338 C 0.56385 0.4945 0.91652 0.0
C339 C 0.61683 0.45987 0.83628 0.0
N340 N 0.53447 0.44425 0.92626 0.0
N341 N 0.6421 0.51087 0.79607 0.0
H342 H 0.64198 0.41761 0.79596 0.0
H343 H 0.66464 0.45243 0.78478 0.0
H344 H 0.64309 0.53586 0.79787 0.0
H345 H 0.66021 0.50061 0.75286 0.0
H346 H 0.51268 0.45512 0.94293 0.0
H347 H 0.53282 0.4194 0.91903 0.0
H348 H 0.51927 0.50132 0.99235 0.0
H349 H 0.53926 0.53661 0.96199 0.0
C350 C 0.45547 0.32368 0.00442 0.0
C351 C 0.43825 0.3368 0.08737 0.0
C352 C 0.48951 0.34379 0.17714 0.0
C353 C 0.50549 0.32759 0.0967 0.0
N354 N 0.49911 0.2887 0.9627 0.0
N355 N 0.43932 0.34905 0.26751 0.0
C356 C 0.48677 0.31265 0.02107 0.0
C357 C 0.45528 0.34378 0.17878 0.0
N358 N 0.44359 0.32415 0.9076 0.0
N359 N 0.50626 0.36009 0.24946 0.0
H360 H 0.41461 0.34665 0.27428 0.0
H361 H 0.45109 0.35175 0.33692 0.0
H362 H 0.53111 0.3606 0.25304 0.0
H363 H 0.49513 0.37493 0.30234 0.0
H364 H 0.45688 0.31594 0.84586 0.0
H365 H 0.42319 0.33707 0.88667 0.0
H366 H 0.48501 0.27621 0.91066 0.0
H367 H 0.52188 0.2791 0.9759 0.0
C368 C 0.83298 0.45911 0.92237 0.0
C369 C 0.84832 0.44611 0.83524 0.0
C370 C 0.85134 0.49965 0.75901 0.0
C371 C 0.83769 0.51297 0.84819 0.0
N372 N 0.82032 0.50667 0.02116 0.0
N373 N 0.87845 0.4549 0.68147 0.0
C374 C 0.83022 0.49309 0.93233 0.0
C375 C 0.8594 0.4667 0.75697 0.0
N376 N 0.81924 0.4391 0.99214 0.0
N377 N 0.85582 0.51827 0.67441 0.0
H378 H 0.88453 0.43079 0.67571 0.0
H379 H 0.89063 0.4694 0.6299 0.0
H380 H 0.85235 0.54299 0.67298 0.0
H381 H 0.86115 0.50889 0.60318 0.0
H382 H 0.8047 0.4471 0.05099 0.0
H383 H 0.82018 0.41418 0.98685 0.0
H384 H 0.81754 0.49381 0.08854 0.0
H385 H 0.81721 0.53136 0.02922 0.0
C386 C 0.49053 0.12131 0.0984 0.0
C387 C 0.50672 0.09465 0.14206 0.0
C388 C 0.45569 0.06749 0.17268 0.0
C389 C 0.43941 0.09503 0.13541 0.0
N390 N 0.44004 0.14434 0.04025 0.0
N391 N 0.50635 0.03947 0.19587 0.0
C392 C 0.45651 0.12063 0.09 0.0
C393 C 0.48972 0.06668 0.17063 0.0
N394 N 0.50756 0.14786 0.07061 0.0
N395 N 0.43851 0.04281 0.21396 0.0
H396 H 0.53132 0.03836 0.19435 0.0
H397 H 0.4957 0.01739 0.21015 0.0
H398 H 0.41354 0.04204 0.21166 0.0
H399 H 0.44871 0.02369 0.25356 0.0
H400 H 0.49716 0.16955 0.04907 0.0
H401 H 0.53252 0.14859 0.07302 0.0
H402 H 0.4509 0.16249 0.99836 0.0
H403 H 0.41512 0.14434 0.03413 0.0
C404 C 0.07572 0.48609 0.76746 0.0
C405 C 0.09471 0.50351 0.83736 0.0
C406 C 0.1127 0.45322 0.91763 0.0
C407 C 0.09699 0.43591 0.83932 0.0
N408 N 0.06192 0.43528 0.69241 0.0
N409 N 0.13154 0.50498 0.97828 0.0
C410 C 0.07744 0.45222 0.76657 0.0
C411 C 0.11275 0.48746 0.91388 0.0
N412 N 0.05621 0.50211 0.70059 0.0
N413 N 0.12813 0.43697 0.9938 0.0
H414 H 0.1318 0.52999 0.97801 0.0
H415 H 0.14811 0.49505 0.02853 0.0
H416 H 0.12963 0.41205 0.9965 0.0
H417 H 0.13762 0.44784 0.05814 0.0
H418 H 0.03781 0.49142 0.65954 0.0
H419 H 0.05735 0.52673 0.68872 0.0
H420 H 0.05141 0.44547 0.6282 0.0
H421 H 0.0606 0.41042 0.69172 0.0
C422 C 0.46176 0.81495 0.0716 0.0
C423 C 0.44446 0.84121 0.11182 0.0
C424 C 0.49397 0.87253 0.12458 0.0
C425 C 0.5116 0.84429 0.10413 0.0
N426 N 0.51369 0.7895 0.04898 0.0
N427 N 0.44254 0.89613 0.16735 0.0
C428 C 0.49584 0.81591 0.07257 0.0
C429 C 0.46011 0.87062 0.13354 0.0
N430 N 0.44555 0.78901 0.03497 0.0
N431 N 0.50987 0.90083 0.13804 0.0
H432 H 0.41759 0.89583 0.16956 0.0
H433 H 0.45237 0.91715 0.19592 0.0
H434 H 0.53472 0.90256 0.13256 0.0
H435 H 0.49866 0.92294 0.14679 0.0
H436 H 0.45641 0.76993 0.99768 0.0
H437 H 0.42061 0.78772 0.03508 0.0
H438 H 0.50422 0.76682 0.03629 0.0
H439 H 0.5386 0.79035 0.04473 0.0
C440 C 0.87409 0.95957 0.3434 0.0
C441 C 0.84497 0.9433 0.36198 0.0
C442 C 0.81591 -0.00577 0.35696 0.0
C443 C 0.84562 0.0109 0.35878 0.0
N444 N 0.90351 0.00931 0.35845 0.0
N445 N 0.78776 0.94396 0.38115 0.0
C446 C 0.87491 -0.00637 0.35046 0.0
C447 C 0.81567 0.96031 0.36526 0.0
N448 N 0.90107 0.94234 0.32182 0.0
N449 N 0.78792 0.01101 0.34801 0.0
H450 H 0.78664 0.91895 0.38066 0.0
H451 H 0.76606 0.95491 0.39868 0.0
H452 H 0.7873 0.03588 0.34424 0.0
H453 H 0.76566 0.00046 0.33628 0.0
H454 H 0.92242 0.95277 0.29814 0.0
H455 H 0.90116 0.91736 0.31821 0.0
H456 H 0.92544 -0.0024 0.36599 0.0
H457 H 0.90543 0.0341 0.36488 0.0
C458 C 0.94889 0.13155 0.68288 0.0
C459 C 0.93043 0.10477 0.65246 0.0
C460 C -0.02137 0.07121 0.64717 0.0
C461 C -0.00266 0.09907 0.6612 0.0
N462 N 0.00185 0.15294 0.72175 0.0
N463 N 0.92554 0.04784 0.62848 0.0
C464 C -0.01719 0.12832 0.69012 0.0
C465 C 0.94466 0.07398 0.64355 0.0
N466 N 0.93391 0.16021 0.69951 0.0
N467 N -0.00616 0.04257 0.63343 0.0
H468 H 0.90061 0.04948 0.62659 0.0
H469 H 0.93382 0.02442 0.62236 0.0
H470 H 0.01843 0.04029 0.64565 0.0
H471 H -0.01738 0.02132 0.61305 0.0
H472 H 0.94573 0.18162 0.71412 0.0
H473 H 0.90901 0.16247 0.69797 0.0
H474 H -0.00666 0.17481 0.74818 0.0
H475 H 0.02667 0.15039 0.72785 0.0
C476 C 0.07026 0.95664 0.41797 0.0
C477 C 0.09432 0.94092 0.36175 0.0
C478 C 0.11619 -0.00721 0.30751 0.0
C479 C 0.09578 0.00805 0.37846 0.0
N480 N 0.05244 0.00534 0.49903 0.0
N481 N 0.13903 0.94249 0.24747 0.0
C482 C 0.07219 -0.00978 0.4318 0.0
C483 C 0.11664 0.95859 0.30313 0.0
N484 N 0.04562 0.93922 0.4583 0.0
N485 N 0.13528 0.01098 0.24616 0.0
H486 H 0.13885 0.91756 0.24052 0.0
H487 H 0.15815 0.95347 0.21083 0.0
H488 H 0.13563 0.03597 0.24985 0.0
H489 H 0.14898 0.00169 0.18722 0.0
H490 H 0.02566 0.94939 0.49281 0.0
H491 H 0.04371 0.91445 0.44901 0.0
H492 H 0.03859 -0.00676 0.55237 0.0
H493 H 0.0509 0.03023 0.50431 0.0
C494 C 0.96177 0.81734 0.64537 0.0
C495 C 0.9475 0.84818 0.63836 0.0
C496 C 0.00058 0.87289 0.65045 0.0
C497 C 0.01468 0.8423 0.63587 0.0
N498 N 0.00968 0.78499 0.62415 0.0
N499 N 0.95287 0.90578 0.63361 0.0
C500 C -0.00446 0.81431 0.63648 0.0
C501 C 0.9667 0.87618 0.64351 0.0
N502 N 0.94282 0.79106 0.66033 0.0
N503 N 0.01967 0.89885 0.66811 0.0
H504 H 0.92819 0.90927 0.62915 0.0
H505 H 0.96584 0.92684 0.62361 0.0
H506 H 0.04457 0.8972 0.67142 0.0
H507 H 0.01088 0.9213 0.68837 0.0
H508 H 0.95171 0.76809 0.67382 0.0
H509 H 0.91802 0.79283 0.66856 0.0
H510 H -0.003 0.76395 0.61084 0.0
H511 H 0.0345 0.78199 0.62337 0.0
C512 C 0.29787 0.24453 0.05787 0.0
C513 C 0.30178 0.26568 0.1414 0.0
C514 C 0.30854 0.21988 0.25702 0.0
C515 C 0.30608 0.19899 0.1729 0.0
N516 N 0.28421 0.19065 0.00575 0.0
N517 N 0.29681 0.27283 0.32228 0.0
C518 C 0.29592 0.21114 0.07739 0.0
C519 C 0.30232 0.25303 0.24182 0.0
N520 N 0.29825 0.25548 0.95993 0.0
N521 N 0.3187 0.20876 0.34938 0.0
H522 H 0.29087 0.29696 0.31219 0.0
H523 H 0.29446 0.26457 0.39671 0.0
H524 H 0.32366 0.18468 0.36391 0.0
H525 H 0.32432 0.22386 0.40971 0.0
H526 H 0.29959 0.24018 0.89764 0.0
H527 H 0.29936 0.27953 0.93969 0.0
H528 H 0.27398 0.19843 0.93762 0.0
H529 H 0.28126 0.16623 0.02056 0.0
C530 C 0.20884 0.59614 0.85947 0.0
C531 C 0.19144 0.62531 0.8526 0.0
C532 C 0.24152 0.6555 0.87114 0.0
C533 C 0.25807 0.62626 0.88917 0.0
N534 N 0.25639 0.56939 0.92189 0.0
N535 N 0.19025 0.68304 0.86483 0.0
C536 C 0.24137 0.59676 0.88957 0.0
C537 C 0.2075 0.65518 0.86142 0.0
N538 N 0.1945 0.56784 0.83392 0.0
N539 N 0.25835 0.68336 0.86057 0.0
H540 H 0.16541 0.68375 0.85709 0.0
H541 H 0.20031 0.70517 0.88238 0.0
H542 H 0.28314 0.68451 0.86992 0.0
H543 H 0.24807 0.70482 0.83598 0.0
H544 H 0.20689 0.54621 0.8282 0.0
H545 H 0.17096 0.56658 0.80757 0.0
H546 H 0.24454 0.54773 0.93328 0.0
H547 H 0.28001 0.5692 0.9476 0.0
C548 C 0.62102 0.7455 0.07885 0.0
C549 C 0.64142 0.7571 0.15701 0.0
C550 C 0.65462 0.70204 0.20738 0.0
C551 C 0.63513 0.69053 0.12642 0.0
N552 N 0.60462 0.70099 0.97368 0.0
N553 N 0.68097 0.74755 0.28682 0.0
C554 C 0.62006 0.71218 0.05812 0.0
C555 C 0.65918 0.73568 0.21904 0.0
N556 N 0.60131 0.7663 0.02748 0.0
N557 N 0.66856 0.68071 0.27332 0.0
H558 H 0.68409 0.77207 0.29861 0.0
H559 H 0.69724 0.73341 0.32704 0.0
H560 H 0.66778 0.65595 0.26272 0.0
H561 H 0.67991 0.6873 0.34052 0.0
H562 H 0.58359 0.75903 0.97689 0.0
H563 H 0.60045 0.79085 0.04196 0.0
H564 H 0.59678 0.7157 0.9145 0.0
H565 H 0.60184 0.67675 0.95785 0.0
C566 C 0.70995 0.29441 0.87628 0.0
C567 C 0.6939 0.32426 0.88703 0.0
C568 C 0.74415 0.35283 0.861 0.0
C569 C 0.76085 0.32319 0.86044 0.0
N570 N 0.7606 0.26572 0.88168 0.0
N571 N 0.69661 0.38141 0.9131 0.0
C572 C 0.74404 0.29386 0.87173 0.0
C573 C 0.7113 0.35334 0.88631 0.0
N574 N 0.69266 0.2668 0.86661 0.0
N575 N 0.75948 0.38047 0.83393 0.0
H576 H 0.67272 0.38255 0.93589 0.0
H577 H 0.70889 0.40288 0.92325 0.0
H578 H 0.78336 0.38086 0.81147 0.0
H579 H 0.74773 0.4023 0.82316 0.0
H580 H 0.70285 0.24484 0.84737 0.0
H581 H 0.66774 0.26625 0.87068 0.0
H582 H 0.74987 0.24408 0.90158 0.0
H583 H 0.78549 0.26442 0.87703 0.0
C584 C 0.7816 0.72096 0.68955 0.0
C585 C 0.80386 0.69844 0.65116 0.0
C586 C 0.83429 0.74141 0.56883 0.0
C587 C 0.81191 0.76391 0.6064 0.0
N588 N 0.76073 0.77538 0.6813 0.0
N589 N 0.84693 0.68583 0.53542 0.0
C590 C 0.78436 0.75372 0.66017 0.0
C591 C 0.82881 0.70824 0.58478 0.0
N592 N 0.75845 0.71112 0.75579 0.0
N593 N 0.86149 0.75184 0.52153 0.0
H594 H 0.8447 0.6612 0.54747 0.0
H595 H 0.86253 0.69148 0.4765 0.0
H596 H 0.8656 0.77591 0.50426 0.0
H597 H 0.88078 0.73694 0.50457 0.0
H598 H 0.74349 0.72679 0.79479 0.0
H599 H 0.75559 0.68715 0.77688 0.0
H600 H 0.73882 0.76924 0.71332 0.0
H601 H 0.76202 0.7993 0.65808 0.0
C602 C 0.7451 0.10936 0.31355 0.0
C603 C 0.75908 0.13552 0.36735 0.0
C604 C 0.7054 0.15735 0.40062 0.0
C605 C 0.6918 0.13018 0.35253 0.0
N606 N 0.69773 0.07818 0.27599 0.0
N607 N 0.75301 0.18415 0.46435 0.0
C608 C 0.71138 0.10578 0.31166 0.0
C609 C 0.73933 0.15942 0.41197 0.0
N610 N 0.76396 0.08776 0.2635 0.0
N611 N 0.68569 0.18137 0.4336 0.0
H612 H 0.77764 0.18794 0.46748 0.0
H613 H 0.74026 0.20044 0.50816 0.0
H614 H 0.66084 0.18008 0.42771 0.0
H615 H 0.69358 0.20331 0.46116 0.0
H616 H 0.75521 0.07199 0.20896 0.0
H617 H 0.7886 0.08583 0.27361 0.0
H618 H 0.71066 0.05747 0.25944 0.0
H619 H 0.67306 0.07499 0.26935 0.0
C620 C 0.13156 0.23059 0.70607 0.0
C621 C 0.14955 0.25192 0.6452 0.0
C622 C 0.16437 0.20816 0.5304 0.0
C623 C 0.144 0.18751 0.58614 0.0
N624 N 0.11803 0.17565 0.74573 0.0
N625 N 0.1909 0.26002 0.5216 0.0
C626 C 0.13089 0.19764 0.6804 0.0
C627 C 0.16881 0.24016 0.56498 0.0
N628 N 0.11328 0.24209 0.78383 0.0
N629 N 0.17783 0.19784 0.44185 0.0
H630 H 0.19438 0.28343 0.54716 0.0
H631 H 0.20752 0.25262 0.46772 0.0
H632 H 0.17534 0.17441 0.41563 0.0
H633 H 0.19018 0.21273 0.39198 0.0
H634 H 0.09592 0.22857 0.82096 0.0
H635 H 0.1145 0.26571 0.8087 0.0
H636 H 0.1111 0.18103 0.81966 0.0
H637 H 0.11726 0.15123 0.72976 0.0
C638 C 0.21222 0.84685 0.35981 0.0
C639 C 0.19519 0.81826 0.3811 0.0
C640 C 0.24556 0.78775 0.37749 0.0
C641 C 0.26192 0.81608 0.34824 0.0
N642 N 0.25947 0.87031 0.28541 0.0
N643 N 0.19459 0.76063 0.39802 0.0
C644 C 0.24477 0.84494 0.33146 0.0
C645 C 0.21155 0.78839 0.3869 0.0
N646 N 0.1976 0.87602 0.37066 0.0
N647 N 0.2626 0.76057 0.39897 0.0
H648 H 0.16988 0.76027 0.40855 0.0
H649 H 0.20468 0.7379 0.3908 0.0
H650 H 0.28719 0.75897 0.38718 0.0
H651 H 0.25271 0.74026 0.43268 0.0
H652 H 0.20979 0.89773 0.3655 0.0
H653 H 0.17408 0.87854 0.39591 0.0
H654 H 0.24742 0.89106 0.26276 0.0
H655 H 0.28291 0.86892 0.25905 0.0
C656 C 0.19715 0.05459 0.88461 0.0
C657 C 0.1878 0.08151 0.82559 0.0
C658 C 0.239 0.1079 0.86209 0.0
C659 C 0.24721 0.08238 0.92903 0.0
N660 N 0.23408 0.03191 0.00845 0.0
N661 N 0.19726 0.13577 0.769 0.0
C662 C 0.2262 0.05585 0.94165 0.0
C663 C 0.20802 0.10871 0.81749 0.0
N664 N 0.17853 0.02768 0.88433 0.0
N665 N 0.26086 0.13125 0.83986 0.0
H666 H 0.175 0.13721 0.73352 0.0
H667 H 0.20907 0.15771 0.77123 0.0
H668 H 0.28362 0.13223 0.87193 0.0
H669 H 0.25758 0.14828 0.78269 0.0
H670 H 0.18545 0.00591 0.91655 0.0
H671 H 0.15652 0.02664 0.84671 0.0
H672 H 0.21834 0.01397 0.03116 0.0
H673 H 0.25633 0.03061 0.04432 0.0
C674 C 0.04145 0.73824 0.14252 0.0
C675 C 0.06857 0.74483 0.20372 0.0
C676 C 0.09188 0.69266 0.16166 0.0
C677 C 0.0668 0.68771 0.09072 0.0
N678 N 0.01821 0.70565 0.00887 0.0
N679 N 0.12258 0.73155 0.25572 0.0
C680 C 0.04161 0.71045 0.08003 0.0
C681 C 0.09445 0.72277 0.21006 0.0
N682 N 0.01542 0.75813 0.146 0.0
N683 N 0.11382 0.669 0.18122 0.0
H684 H 0.12629 0.75405 0.28779 0.0
H685 H 0.14349 0.71794 0.25237 0.0
H686 H 0.11418 0.64705 0.14394 0.0
H687 H 0.13015 0.67006 0.24109 0.0
H688 H -0.00633 0.75313 0.11072 0.0
H689 H 0.01482 0.77874 0.19067 0.0
H690 H 0.0014 0.72298 0.98827 0.0
H691 H 0.01645 0.68452 0.96702 0.0
C692 C 0.71126 0.91616 0.89429 0.0
C693 C 0.69735 0.88618 0.91933 0.0
C694 C 0.74393 0.85814 0.85098 0.0
C695 C 0.75668 0.88778 0.81763 0.0
N696 N 0.75092 0.94478 0.79396 0.0
N697 N 0.69635 0.82877 0.89542 0.0
C698 C 0.73984 0.91682 0.83504 0.0
C699 C 0.71244 0.85721 0.88972 0.0
N700 N 0.69733 0.9438 0.92785 0.0
N701 N 0.76199 0.83078 0.84691 0.0
H702 H 0.67254 0.82719 0.91779 0.0
H703 H 0.70525 0.80737 0.86601 0.0
H704 H 0.7851 0.83006 0.8173 0.0
H705 H 0.75514 0.80934 0.8814 0.0
H706 H 0.70794 0.96627 0.92113 0.0
H707 H 0.67566 0.94392 0.96716 0.0
H708 H 0.73806 0.9662 0.79487 0.0
H709 H 0.77236 0.94602 0.75359 0.0
C710 C 0.91707 0.21197 0.13662 0.0
C711 C 0.89376 0.20859 0.21396 0.0
C712 C 0.87764 0.26462 0.18967 0.0
C713 C 0.89609 0.26598 0.0997 0.0
N714 N 0.93495 0.24184 0.98856 0.0
N715 N 0.84686 0.23006 0.29854 0.0
C716 C 0.91652 0.23993 0.07396 0.0
C717 C 0.87299 0.23458 0.23759 0.0
N718 N 0.93988 0.18878 0.12435 0.0
N719 N 0.86378 0.2916 0.22858 0.0
H720 H 0.84042 0.20796 0.32932 0.0
H721 H 0.82921 0.24746 0.30856 0.0
H722 H 0.86666 0.31435 0.19743 0.0
H723 H 0.85262 0.29195 0.29931 0.0
H724 H 0.95921 0.19101 0.07507 0.0
H725 H 0.94098 0.1683 0.17005 0.0
H726 H 0.94719 0.22239 0.95785 0.0
H727 H 0.93712 0.26299 0.94645 0.0
C728 C 0.23585 0.36719 0.49725 0.0
C729 C 0.20844 0.38565 0.4697 0.0
C730 C 0.24045 0.4156 0.34606 0.0
C731 C 0.266 0.39363 0.36117 0.0
N732 N 0.28817 0.34767 0.4505 0.0
N733 N 0.18419 0.42809 0.37118 0.0
C734 C 0.26419 0.36983 0.43867 0.0
C735 C 0.21067 0.41026 0.39548 0.0
N736 N 0.2347 0.34623 0.5775 0.0
N737 N 0.24507 0.44168 0.28468 0.0
H738 H 0.1626 0.42612 0.41029 0.0
H739 H 0.18308 0.44384 0.30972 0.0
H740 H 0.26704 0.44624 0.24989 0.0
H741 H 0.2285 0.46015 0.27555 0.0
H742 H 0.25507 0.33642 0.61145 0.0
H743 H 0.21375 0.33958 0.61449 0.0
H744 H 0.28579 0.3267 0.49292 0.0
H745 H 0.31016 0.34883 0.41415 0.0
C746 C 0.36331 0.72761 0.55286 0.0
C747 C 0.38677 0.75174 0.56932 0.0
C748 C 0.41025 0.71967 0.70767 0.0
C749 C 0.38533 0.69691 0.69561 0.0
N750 N 0.33391 0.68306 0.62354 0.0
N751 N 0.43064 0.77281 0.6675 0.0
C752 C 0.36086 0.70174 0.62223 0.0
C753 C 0.40967 0.74843 0.64858 0.0
N754 N 0.34287 0.72946 0.4716 0.0
N755 N 0.43485 0.71329 0.77352 0.0
H756 H 0.43185 0.79338 0.62235 0.0
H757 H 0.44559 0.77356 0.73086 0.0
H758 H 0.4359 0.6924 0.81732 0.0
H759 H 0.45533 0.72733 0.77956 0.0
H760 H 0.3288 0.7103 0.44774 0.0
H761 H 0.34109 0.74929 0.42372 0.0
H762 H 0.31351 0.68811 0.5806 0.0
H763 H 0.33031 0.66432 0.67482 0.0
C764 C 0.72433 0.59064 0.28182 0.0
C765 C 0.70178 0.56559 0.29679 0.0
C766 C 0.73764 0.54038 0.42158 0.0
C767 C 0.75747 0.56792 0.41818 0.0
N768 N 0.76758 0.62143 0.35378 0.0
N769 N 0.68622 0.51656 0.37996 0.0
C770 C 0.75074 0.59334 0.34912 0.0
C771 C 0.70831 0.54028 0.36606 0.0
N772 N 0.72023 0.61253 0.2051 0.0
N773 N 0.74719 0.5143 0.47721 0.0
H774 H 0.66536 0.51495 0.33647 0.0
H775 H 0.68774 0.49938 0.43738 0.0
H776 H 0.76885 0.51375 0.51704 0.0
H777 H 0.73532 0.49239 0.47684 0.0
H778 H 0.73811 0.62837 0.18237 0.0
H779 H 0.70001 0.61371 0.15884 0.0
H780 H 0.76061 0.64232 0.31606 0.0
H781 H 0.78711 0.62514 0.40151 0.0
C782 C 0.58969 0.22371 0.51252 0.0
C783 C 0.5678 0.19895 0.53907 0.0
C784 C 0.54456 0.23357 0.66963 0.0
C785 C 0.5695 0.25602 0.65323 0.0
N786 N 0.6192 0.2699 0.57041 0.0
N787 N 0.52489 0.17947 0.64444 0.0
C788 C 0.5927 0.25073 0.57672 0.0
C789 C 0.54533 0.20364 0.61818 0.0
N790 N 0.60818 0.22142 0.42725 0.0
N791 N 0.51974 0.24139 0.73226 0.0
H792 H 0.52331 0.15809 0.60387 0.0
H793 H 0.51063 0.17992 0.70919 0.0
H794 H 0.51818 0.26364 0.76775 0.0
H795 H 0.49936 0.22735 0.74128 0.0
H796 H 0.62114 0.24066 0.39804 0.0
H797 H 0.60903 0.20136 0.3807 0.0
H798 H 0.6389 0.26453 0.52514 0.0
H799 H 0.62321 0.28957 0.61723 0.0
loop_
_geom_bond_atom_site_label_1
_geom_bond_atom_site_label_2
_geom_bond_distance
_geom_bond_site_symmetry_2
_ccdc_geom_bond_type
C0 O1 1.306 . S
C0 O3 1.160 . S
O1 C0 1.306 . S
O1 Cd2 2.228 . S
Cd2 O1 2.228 . S
Cd2 O6 2.273 . S
Cd2 O10 2.277 . S
O3 C0 1.160 . S
O3 Cd4 2.203 . S
Cd4 O3 2.203 . S
Cd4 O6 2.411 . S
Cd4 O7 2.333 . S
Cd4 O8 2.352 . S
Cd4 O12 2.277 . S
Cd4 O13 2.356 1_554 S
C5 O10 1.209 . S
C5 O12 1.226 . S
O6 Cd2 2.273 . S
O6 Cd4 2.411 . S
O6 C9 1.320 . S
O7 Cd4 2.333 . S
O7 C9 1.214 . S
O8 Cd4 2.352 . S
O8 C11 1.258 1_554 S
C9 O6 1.320 . S
C9 O7 1.214 . S
O10 Cd2 2.277 . S
O10 C5 1.209 . S
C11 O8 1.258 1_556 S
C11 O13 1.282 . S
O12 Cd4 2.277 . S
O12 C5 1.226 . S
O13 Cd4 2.356 1_556 S
O13 C11 1.282 . S
C14 O15 1.306 . S
C14 O17 1.160 . S
O15 C14 1.306 . S
O15 Cd16 2.228 . S
Cd16 O15 2.228 . S
Cd16 O20 2.273 . S
Cd16 O24 2.277 . S
O17 C14 1.160 . S
O17 Cd18 2.203 . S
Cd18 O17 2.203 . S
Cd18 O20 2.411 . S
Cd18 O21 2.333 . S
Cd18 O22 2.352 . S
Cd18 O26 2.277 . S
Cd18 O27 2.356 1_556 S
C19 O24 1.209 . S
C19 O26 1.226 . S
O20 Cd16 2.273 . S
O20 Cd18 2.411 . S
O20 C23 1.320 . S
O21 Cd18 2.333 . S
O21 C23 1.214 . S
O22 Cd18 2.352 . S
O22 C25 1.258 1_556 S
C23 O20 1.320 . S
C23 O21 1.214 . S
O24 Cd16 2.277 . S
O24 C19 1.209 . S
C25 O22 1.258 1_554 S
C25 O27 1.282 . S
O26 Cd18 2.277 . S
O26 C19 1.226 . S
O27 Cd18 2.356 1_554 S
O27 C25 1.282 . S
C28 O29 1.306 . S
C28 O31 1.160 . S
O29 C28 1.306 . S
O29 Cd30 2.228 . S
Cd30 O29 2.228 . S
Cd30 O34 2.273 . S
Cd30 O38 2.277 . S
O31 C28 1.160 . S
O31 Cd32 2.203 . S
Cd32 O31 2.203 . S
Cd32 O34 2.411 . S
Cd32 O35 2.333 . S
Cd32 O36 2.352 . S
Cd32 O40 2.277 . S
Cd32 O41 2.356 1_554 S
C33 O38 1.209 . S
C33 O40 1.226 . S
O34 Cd30 2.273 . S
O34 Cd32 2.411 . S
O34 C37 1.320 . S
O35 Cd32 2.333 . S
O35 C37 1.214 . S
O36 Cd32 2.352 . S
O36 C39 1.258 1_554 S
C37 O34 1.320 . S
C37 O35 1.214 . S
O38 Cd30 2.277 . S
O38 C33 1.209 . S
C39 O36 1.258 1_556 S
C39 O41 1.282 . S
O40 Cd32 2.277 . S
O40 C33 1.226 . S
O41 Cd32 2.356 1_556 S
O41 C39 1.282 . S
C42 O43 1.306 . S
C42 O45 1.160 . S
O43 C42 1.306 . S
O43 Cd44 2.228 . S
Cd44 O43 2.228 . S
Cd44 O48 2.273 . S
Cd44 O52 2.277 . S
O45 C42 1.160 . S
O45 Cd46 2.203 . S
Cd46 O45 2.203 . S
Cd46 O48 2.411 . S
Cd46 O49 2.333 . S
Cd46 O50 2.352 . S
Cd46 O54 2.277 . S
Cd46 O55 2.356 1_556 S
C47 O52 1.209 . S
C47 O54 1.226 . S
O48 Cd44 2.273 . S
O48 Cd46 2.411 . S
O48 C51 1.320 . S
O49 Cd46 2.333 . S
O49 C51 1.214 . S
O50 Cd46 2.352 . S
O50 C53 1.258 1_556 S
C51 O48 1.320 . S
C51 O49 1.214 . S
O52 Cd44 2.277 . S
O52 C47 1.209 . S
C53 O50 1.258 1_554 S
C53 O55 1.282 . S
O54 Cd46 2.277 . S
O54 C47 1.226 . S
O55 Cd46 2.356 1_554 S
O55 C53 1.282 . S
C56 O57 1.306 . S
C56 O59 1.160 1_556 S
O57 C56 1.306 . S
O57 Cd58 2.228 . S
Cd58 O57 2.228 . S
Cd58 O62 2.273 . S
Cd58 O66 2.277 1_556 S
O59 C56 1.160 1_554 S
O59 Cd60 2.203 . S
Cd60 O59 2.203 . S
Cd60 O62 2.411 1_554 S
Cd60 O63 2.333 . S
Cd60 O64 2.352 . S
Cd60 O68 2.277 . S
Cd60 O69 2.356 . S
C61 O66 1.209 . S
C61 O68 1.226 . S
O62 Cd58 2.273 . S
O62 Cd60 2.411 1_556 S
O62 C65 1.320 1_556 S
O63 Cd60 2.333 . S
O63 C65 1.214 . S
O64 Cd60 2.352 . S
O64 C67 1.258 . S
C65 O62 1.320 1_554 S
C65 O63 1.214 . S
O66 Cd58 2.277 1_554 S
O66 C61 1.209 . S
C67 O64 1.258 . S
C67 O69 1.282 . S
O68 Cd60 2.277 . S
O68 C61 1.226 . S
O69 Cd60 2.356 . S
O69 C67 1.282 . S
C70 O71 1.306 . S
C70 O73 1.160 1_554 S
O71 C70 1.306 . S
O71 Cd72 2.228 . S
Cd72 O71 2.228 . S
Cd72 O76 2.273 . S
Cd72 O80 2.277 1_554 S
O73 C70 1.160 1_556 S
O73 Cd74 2.203 . S
Cd74 O73 2.203 . S
Cd74 O76 2.411 1_556 S
Cd74 O77 2.333 . S
Cd74 O78 2.352 . S
Cd74 O82 2.277 . S
Cd74 O83 2.356 . S
C75 O80 1.209 . S
C75 O82 1.226 . S
O76 Cd72 2.273 . S
O76 Cd74 2.411 1_554 S
O76 C79 1.320 1_554 S
O77 Cd74 2.333 . S
O77 C79 1.214 . S
O78 Cd74 2.352 . S
O78 C81 1.258 . S
C79 O76 1.320 1_556 S
C79 O77 1.214 . S
O80 Cd72 2.277 1_556 S
O80 C75 1.209 . S
C81 O78 1.258 . S
C81 O83 1.282 . S
O82 Cd74 2.277 . S
O82 C75 1.226 . S
O83 Cd74 2.356 . S
O83 C81 1.282 . S
C84 O85 1.306 . S
C84 O87 1.160 1_556 S
O85 C84 1.306 . S
O85 Cd86 2.228 . S
Cd86 O85 2.228 . S
Cd86 O90 2.273 . S
Cd86 O94 2.277 1_556 S
O87 C84 1.160 1_554 S
O87 Cd88 2.203 . S
Cd88 O87 2.203 . S
Cd88 O90 2.411 1_554 S
Cd88 O91 2.333 . S
Cd88 O92 2.352 . S
Cd88 O96 2.277 . S
Cd88 O97 2.356 . S
C89 O94 1.209 . S
C89 O96 1.226 . S
O90 Cd86 2.273 . S
O90 Cd88 2.411 1_556 S
O90 C93 1.320 1_556 S
O91 Cd88 2.333 . S
O91 C93 1.214 . S
O92 Cd88 2.352 . S
O92 C95 1.258 . S
C93 O90 1.320 1_554 S
C93 O91 1.214 . S
O94 Cd86 2.277 1_554 S
O94 C89 1.209 . S
C95 O92 1.258 . S
C95 O97 1.282 . S
O96 Cd88 2.277 . S
O96 C89 1.226 . S
O97 Cd88 2.356 . S
O97 C95 1.282 . S
C98 O99 1.306 . S
C98 O101 1.160 1_554 S
O99 C98 1.306 . S
O99 Cd100 2.228 . S
Cd100 O99 2.228 . S
Cd100 O104 2.273 . S
Cd100 O108 2.277 1_554 S
O101 C98 1.160 1_556 S
O101 Cd102 2.203 . S
Cd102 O101 2.203 . S
Cd102 O104 2.411 1_556 S
Cd102 O105 2.333 . S
Cd102 O106 2.352 . S
Cd102 O110 2.277 . S
Cd102 O111 2.356 . S
C103 O108 1.209 . S
C103 O110 1.226 . S
O104 Cd100 2.273 . S
O104 Cd102 2.411 1_554 S
O104 C107 1.320 1_554 S
O105 Cd102 2.333 . S
O105 C107 1.214 . S
O106 Cd102 2.352 . S
O106 C109 1.258 . S
C107 O104 1.320 1_556 S
C107 O105 1.214 . S
O108 Cd100 2.277 1_556 S
O108 C103 1.209 . S
C109 O106 1.258 . S
C109 O111 1.282 . S
O110 Cd102 2.277 . S
O110 C103 1.226 . S
O111 Cd102 2.356 . S
O111 C109 1.282 . S
C112 O113 1.306 . S
C112 O115 1.160 . S
O113 C112 1.306 . S
O113 Cd114 2.228 . S
Cd114 O113 2.228 . S
Cd114 O118 2.273 . S
Cd114 O122 2.277 . S
O115 C112 1.160 . S
O115 Cd116 2.203 . S
Cd116 O115 2.203 . S
Cd116 O118 2.411 . S
Cd116 O119 2.333 . S
Cd116 O120 2.352 . S
Cd116 O124 2.277 . S
Cd116 O125 2.356 . S
C117 O122 1.209 . S
C117 O124 1.226 . S
O118 Cd114 2.273 . S
O118 Cd116 2.411 . S
O118 C121 1.320 . S
O119 Cd116 2.333 . S
O119 C121 1.214 . S
O120 Cd116 2.352 . S
O120 C123 1.258 . S
C121 O118 1.320 . S
C121 O119 1.214 . S
O122 Cd114 2.277 . S
O122 C117 1.209 . S
C123 O120 1.258 . S
C123 O125 1.282 . S
O124 Cd116 2.277 . S
O124 C117 1.226 . S
O125 Cd116 2.356 . S
O125 C123 1.282 . S
C126 O127 1.306 . S
C126 O129 1.160 . S
O127 C126 1.306 . S
O127 Cd128 2.228 . S
Cd128 O127 2.228 . S
Cd128 O132 2.273 . S
Cd128 O136 2.277 . S
O129 C126 1.160 . S
O129 Cd130 2.203 . S
Cd130 O129 2.203 . S
Cd130 O132 2.411 . S
Cd130 O133 2.333 . S
Cd130 O134 2.352 . S
Cd130 O138 2.277 . S
Cd130 O139 2.356 . S
C131 O136 1.209 . S
C131 O138 1.226 . S
O132 Cd128 2.273 . S
O132 Cd130 2.411 . S
O132 C135 1.320 . S
O133 Cd130 2.333 . S
O133 C135 1.214 . S
O134 Cd130 2.352 . S
O134 C137 1.258 . S
C135 O132 1.320 . S
C135 O133 1.214 . S
O136 Cd128 2.277 . S
O136 C131 1.209 . S
C137 O134 1.258 . S
C137 O139 1.282 . S
O138 Cd130 2.277 . S
O138 C131 1.226 . S
O139 Cd130 2.356 . S
O139 C137 1.282 . S
C140 O141 1.306 . S
C140 O143 1.160 . S
O141 C140 1.306 . S
O141 Cd142 2.228 . S
Cd142 O141 2.228 . S
Cd142 O146 2.273 . S
Cd142 O150 2.277 . S
O143 C140 1.160 . S
O143 Cd144 2.203 . S
Cd144 O143 2.203 . S
Cd144 O146 2.411 . S
Cd144 O147 2.333 . S
Cd144 O148 2.352 . S
Cd144 O152 2.277 . S
Cd144 O153 2.356 . S
C145 O150 1.209 . S
C145 O152 1.226 . S
O146 Cd142 2.273 . S
O146 Cd144 2.411 . S
O146 C149 1.320 . S
O147 Cd144 2.333 . S
O147 C149 1.214 . S
O148 Cd144 2.352 . S
O148 C151 1.258 . S
C149 O146 1.320 . S
C149 O147 1.214 . S
O150 Cd142 2.277 . S
O150 C145 1.209 . S
C151 O148 1.258 . S
C151 O153 1.282 . S
O152 Cd144 2.277 . S
O152 C145 1.226 . S
O153 Cd144 2.356 . S
O153 C151 1.282 . S
C154 O155 1.306 . S
C154 O157 1.160 . S
O155 C154 1.306 . S
O155 Cd156 2.228 . S
Cd156 O155 2.228 . S
Cd156 O160 2.273 . S
Cd156 O164 2.277 . S
O157 C154 1.160 . S
O157 Cd158 2.203 . S
Cd158 O157 2.203 . S
Cd158 O160 2.411 . S
Cd158 O161 2.333 . S
Cd158 O162 2.352 . S
Cd158 O166 2.277 . S
Cd158 O167 2.356 . S
C159 O164 1.209 . S
C159 O166 1.226 . S
O160 Cd156 2.273 . S
O160 Cd158 2.411 . S
O160 C163 1.320 . S
O161 Cd158 2.333 . S
O161 C163 1.214 . S
O162 Cd158 2.352 . S
O162 C165 1.258 . S
C163 O160 1.320 . S
C163 O161 1.214 . S
O164 Cd156 2.277 . S
O164 C159 1.209 . S
C165 O162 1.258 . S
C165 O167 1.282 . S
O166 Cd158 2.277 . S
O166 C159 1.226 . S
O167 Cd158 2.356 . S
O167 C165 1.282 . S
C168 O169 1.306 . S
C168 O171 1.160 . S
O169 C168 1.306 . S
O169 Cd170 2.228 . S
Cd170 O169 2.228 . S
Cd170 O174 2.273 . S
Cd170 O178 2.277 . S
O171 C168 1.160 . S
O171 Cd172 2.203 . S
Cd172 O171 2.203 . S
Cd172 O174 2.411 . S
Cd172 O175 2.333 . S
Cd172 O176 2.352 . S
Cd172 O180 2.277 . S
Cd172 O181 2.356 . S
C173 O178 1.209 . S
C173 O180 1.226 . S
O174 Cd170 2.273 . S
O174 Cd172 2.411 . S
O174 C177 1.320 . S
O175 Cd172 2.333 . S
O175 C177 1.214 . S
O176 Cd172 2.352 . S
O176 C179 1.258 . S
C177 O174 1.320 . S
C177 O175 1.214 . S
O178 Cd170 2.277 . S
O178 C173 1.209 . S
C179 O176 1.258 . S
C179 O181 1.282 . S
O180 Cd172 2.277 . S
O180 C173 1.226 . S
O181 Cd172 2.356 . S
O181 C179 1.282 . S
C182 O183 1.306 . S
C182 O185 1.160 . S
O183 C182 1.306 . S
O183 Cd184 2.228 . S
Cd184 O183 2.228 . S
Cd184 O188 2.273 . S
Cd184 O192 2.277 . S
O185 C182 1.160 . S
O185 Cd186 2.203 . S
Cd186 O185 2.203 . S
Cd186 O188 2.411 . S
Cd186 O189 2.333 . S
Cd186 O190 2.352 . S
Cd186 O194 2.277 . S
Cd186 O195 2.356 . S
C187 O192 1.209 . S
C187 O194 1.226 . S
O188 Cd184 2.273 . S
O188 Cd186 2.411 . S
O188 C191 1.320 . S
O189 Cd186 2.333 . S
O189 C191 1.214 . S
O190 Cd186 2.352 . S
O190 C193 1.258 . S
C191 O188 1.320 . S
C191 O189 1.214 . S
O192 Cd184 2.277 . S
O192 C187 1.209 . S
C193 O190 1.258 . S
C193 O195 1.282 . S
O194 Cd186 2.277 . S
O194 C187 1.226 . S
O195 Cd186 2.356 . S
O195 C193 1.282 . S
C196 O197 1.306 . S
C196 O199 1.160 . S
O197 C196 1.306 . S
O197 Cd198 2.228 . S
Cd198 O197 2.228 . S
Cd198 O202 2.273 . S
Cd198 O206 2.277 . S
O199 C196 1.160 . S
O199 Cd200 2.203 . S
Cd200 O199 2.203 . S
Cd200 O202 2.411 . S
Cd200 O203 2.333 . S
Cd200 O204 2.352 . S
Cd200 O208 2.277 . S
Cd200 O209 2.356 . S
C201 O206 1.209 . S
C201 O208 1.226 . S
O202 Cd198 2.273 . S
O202 Cd200 2.411 . S
O202 C205 1.320 . S
O203 Cd200 2.333 . S
O203 C205 1.214 . S
O204 Cd200 2.352 . S
O204 C207 1.258 . S
C205 O202 1.320 . S
C205 O203 1.214 . S
O206 Cd198 2.277 . S
O206 C201 1.209 . S
C207 O204 1.258 . S
C207 O209 1.282 . S
O208 Cd200 2.277 . S
O208 C201 1.226 . S
O209 Cd200 2.356 . S
O209 C207 1.282 . S
C210 O211 1.306 . S
C210 O213 1.160 . S
O211 C210 1.306 . S
O211 Cd212 2.228 . S
Cd212 O211 2.228 . S
Cd212 O216 2.273 . S
Cd212 O220 2.277 . S
O213 C210 1.160 . S
O213 Cd214 2.203 . S
Cd214 O213 2.203 . S
Cd214 O216 2.411 . S
Cd214 O217 2.333 . S
Cd214 O218 2.352 . S
Cd214 O222 2.277 . S
Cd214 O223 2.356 . S
C215 O220 1.209 . S
C215 O222 1.226 . S
O216 Cd212 2.273 . S
O216 Cd214 2.411 . S
O216 C219 1.320 . S
O217 Cd214 2.333 . S
O217 C219 1.214 . S
O218 Cd214 2.352 . S
O218 C221 1.258 . S
C219 O216 1.320 . S
C219 O217 1.214 . S
O220 Cd212 2.277 . S
O220 C215 1.209 . S
C221 O218 1.258 . S
C221 O223 1.282 . S
O222 Cd214 2.277 . S
O222 C215 1.226 . S
O223 Cd214 2.356 . S
O223 C221 1.282 . S
C224 C225 1.363 . S
C224 C230 1.379 1_565 S
C224 N232 1.356 . S
C225 C224 1.363 . S
C225 C231 1.363 . S
C226 C227 1.363 . S
C226 C231 1.379 1_545 S
C226 N233 1.356 . S
C227 C226 1.363 . S
C227 C230 1.363 . S
N228 C230 1.356 . S
N228 H240 0.984 . S
N228 H241 0.985 . S
N229 C231 1.356 . S
N229 H234 0.984 . S
N229 H235 0.985 . S
C230 C224 1.379 1_545 S
C230 C227 1.363 . S
C230 N228 1.356 . S
C231 C225 1.363 . S
C231 C226 1.379 1_565 S
C231 N229 1.356 . S
N232 C224 1.356 . S
N232 H238 0.984 . S
N232 H239 0.984 . S
N233 C226 1.356 . S
N233 H236 0.984 . S
N233 H237 0.985 . S
H234 N229 0.984 . S
H235 N229 0.985 . S
H236 N233 0.984 . S
H237 N233 0.985 . S
H238 N232 0.984 . S
H239 N232 0.984 . S
H240 N228 0.984 . S
H241 N228 0.985 . S
C242 C243 1.363 . S
C242 C248 1.379 1_455 S
C242 N250 1.356 . S
C243 C242 1.363 . S
C243 C249 1.363 . S
C244 C245 1.363 . S
C244 C249 1.379 1_655 S
C244 N251 1.356 . S
C245 C244 1.363 . S
C245 C248 1.363 . S
N246 C248 1.356 . S
N246 H258 0.984 . S
N246 H259 0.985 . S
N247 C249 1.356 . S
N247 H252 0.984 . S
N247 H253 0.985 . S
C248 C242 1.379 1_655 S
C248 C245 1.363 . S
C248 N246 1.356 . S
C249 C243 1.363 . S
C249 C244 1.379 1_455 S
C249 N247 1.356 . S
N250 C242 1.356 . S
N250 H256 0.984 . S
N250 H257 0.984 . S
N251 C244 1.356 . S
N251 H254 0.984 . S
N251 H255 0.985 . S
H252 N247 0.984 . S
H253 N247 0.985 . S
H254 N251 0.984 . S
H255 N251 0.985 . S
H256 N250 0.984 . S
H257 N250 0.984 . S
H258 N246 0.984 . S
H259 N246 0.985 . S
C260 C261 1.363 . S
C260 C266 1.379 1_565 S
C260 N268 1.356 . S
C261 C260 1.363 . S
C261 C267 1.363 . S
C262 C263 1.363 . S
C262 C267 1.379 1_545 S
C262 N269 1.356 . S
C263 C262 1.363 . S
C263 C266 1.363 . S
N264 C266 1.356 . S
N264 H276 0.984 . S
N264 H277 0.985 . S
N265 C267 1.356 . S
N265 H270 0.984 . S
N265 H271 0.985 . S
C266 C260 1.379 1_545 S
C266 C263 1.363 . S
C266 N264 1.356 . S
C267 C261 1.363 . S
C267 C262 1.379 1_565 S
C267 N265 1.356 . S
N268 C260 1.356 . S
N268 H274 0.984 . S
N268 H275 0.984 . S
N269 C262 1.356 . S
N269 H272 0.984 . S
N269 H273 0.985 . S
H270 N265 0.984 . S
H271 N265 0.985 . S
H272 N269 0.984 . S
H273 N269 0.985 . S
H274 N268 0.984 . S
H275 N268 0.984 . S
H276 N264 0.984 . S
H277 N264 0.985 . S
C278 C279 1.363 . S
C278 C284 1.379 1_455 S
C278 N286 1.356 . S
C279 C278 1.363 . S
C279 C285 1.363 . S
C280 C281 1.363 . S
C280 C285 1.379 1_655 S
C280 N287 1.356 . S
C281 C280 1.363 . S
C281 C284 1.363 . S
N282 C284 1.356 . S
N282 H294 0.984 . S
N282 H295 0.985 . S
N283 C285 1.356 . S
N283 H288 0.984 . S
N283 H289 0.985 . S
C284 C278 1.379 1_655 S
C284 C281 1.363 . S
C284 N282 1.356 . S
C285 C279 1.363 . S
C285 C280 1.379 1_455 S
C285 N283 1.356 . S
N286 C278 1.356 . S
N286 H292 0.984 . S
N286 H293 0.984 . S
N287 C280 1.356 . S
N287 H290 0.984 . S
N287 H291 0.985 . S
H288 N283 0.984 . S
H289 N283 0.985 . S
H290 N287 0.984 . S
H291 N287 0.985 . S
H292 N286 0.984 . S
H293 N286 0.984 . S
H294 N282 0.984 . S
H295 N282 0.985 . S
C296 C297 1.363 . S
C296 C302 1.379 . S
C296 N304 1.356 1_556 S
C297 C296 1.363 . S
C297 C303 1.363 . S
C298 C299 1.363 . S
C298 C303 1.379 . S
C298 N305 1.356 . S
C299 C298 1.363 . S
C299 C302 1.363 . S
N300 C302 1.357 . S
N300 H312 0.983 1_556 S
N300 H313 0.985 . S
N301 C303 1.356 . S
N301 H306 0.984 . S
N301 H307 0.985 . S
C302 C296 1.379 . S
C302 C299 1.363 . S
C302 N300 1.357 . S
C303 C297 1.363 . S
C303 C298 1.379 . S
C303 N301 1.356 . S
N304 C296 1.356 1_554 S
N304 H310 0.984 . S
N304 H311 0.984 . S
N305 C298 1.356 . S
N305 H308 0.984 . S
N305 H309 0.985 . S
H306 N301 0.984 . S
H307 N301 0.985 . S
H308 N305 0.984 . S
H309 N305 0.985 . S
H310 N304 0.984 . S
H311 N304 0.984 . S
H312 N300 0.983 1_554 S
H313 N300 0.985 . S
C314 C315 1.363 . S
C314 C320 1.379 . S
C314 N322 1.356 . S
C315 C314 1.363 . S
C315 C321 1.363 . S
C316 C317 1.363 . S
C316 C321 1.379 . S
C316 N323 1.356 . S
C317 C316 1.363 . S
C317 C320 1.363 . S
N318 C320 1.356 . S
N318 H330 0.984 . S
N318 H331 0.985 . S
N319 C321 1.356 . S
N319 H324 0.984 1_554 S
N319 H325 0.985 1_554 S
C320 C314 1.379 . S
C320 C317 1.363 . S
C320 N318 1.356 . S
C321 C315 1.363 . S
C321 C316 1.379 . S
C321 N319 1.356 . S
N322 C314 1.356 . S
N322 H328 0.984 . S
N322 H329 0.984 . S
N323 C316 1.356 . S
N323 H326 0.984 . S
N323 H327 0.985 . S
H324 N319 0.984 1_556 S
H325 N319 0.985 1_556 S
H326 N323 0.984 . S
H327 N323 0.985 . S
H328 N322 0.984 . S
H329 N322 0.984 . S
H330 N318 0.984 . S
H331 N318 0.985 . S
C332 C333 1.363 1_554 S
C332 C338 1.379 . S
C332 N340 1.356 . S
C333 C332 1.363 1_556 S
C333 C339 1.363 . S
C334 C335 1.363 . S
C334 C339 1.379 . S
C334 N341 1.356 . S
C335 C334 1.363 . S
C335 C338 1.363 1_556 S
N336 C338 1.356 . S
N336 H348 0.984 . S
N336 H349 0.985 . S
N337 C339 1.356 . S
N337 H342 0.984 . S
N337 H343 0.985 . S
C338 C332 1.379 . S
C338 C335 1.363 1_554 S
C338 N336 1.356 . S
C339 C333 1.363 . S
C339 C334 1.379 . S
C339 N337 1.356 . S
N340 C332 1.356 . S
N340 H346 0.984 . S
N340 H347 0.984 . S
N341 C334 1.356 . S
N341 H344 0.984 . S
N341 H345 0.985 . S
H342 N337 0.984 . S
H343 N337 0.985 . S
H344 N341 0.984 . S
H345 N341 0.985 . S
H346 N340 0.984 . S
H347 N340 0.984 . S
H348 N336 0.984 . S
H349 N336 0.985 . S
C350 C351 1.363 1_556 S
C350 C356 1.379 . S
C350 N358 1.356 . S
C351 C350 1.363 1_554 S
C351 C357 1.363 . S
C352 C353 1.363 . S
C352 C357 1.379 . S
C352 N359 1.356 . S
C353 C352 1.363 . S
C353 C356 1.363 1_554 S
N354 C356 1.356 . S
N354 H366 0.984 . S
N354 H367 0.985 . S
N355 C357 1.356 . S
N355 H360 0.984 . S
N355 H361 0.985 . S
C356 C350 1.379 . S
C356 C353 1.363 1_556 S
C356 N354 1.356 . S
C357 C351 1.363 . S
C357 C352 1.379 . S
C357 N355 1.356 . S
N358 C350 1.356 . S
N358 H364 0.984 . S
N358 H365 0.984 . S
N359 C352 1.356 . S
N359 H362 0.984 . S
N359 H363 0.985 . S
H360 N355 0.984 . S
H361 N355 0.985 . S
H362 N359 0.984 . S
H363 N359 0.985 . S
H364 N358 0.984 . S
H365 N358 0.984 . S
H366 N354 0.984 . S
H367 N354 0.985 . S
C368 C369 1.363 . S
C368 C374 1.379 . S
C368 N376 1.356 . S
C369 C368 1.363 . S
C369 C375 1.363 . S
C370 C371 1.363 . S
C370 C375 1.379 . S
C370 N377 1.356 . S
C371 C370 1.363 . S
C371 C374 1.363 . S
N372 C374 1.356 . S
N372 H384 0.984 . S
N372 H385 0.985 . S
N373 C375 1.356 . S
N373 H378 0.984 . S
N373 H379 0.985 . S
C374 C368 1.379 . S
C374 C371 1.363 . S
C374 N372 1.356 . S
C375 C369 1.363 . S
C375 C370 1.379 . S
C375 N373 1.356 . S
N376 C368 1.356 . S
N376 H382 0.984 . S
N376 H383 0.984 . S
N377 C370 1.356 . S
N377 H380 0.984 . S
N377 H381 0.985 . S
H378 N373 0.984 . S
H379 N373 0.985 . S
H380 N377 0.984 . S
H381 N377 0.985 . S
H382 N376 0.984 . S
H383 N376 0.984 . S
H384 N372 0.984 . S
H385 N372 0.985 . S
C386 C387 1.363 . S
C386 C392 1.379 . S
C386 N394 1.356 . S
C387 C386 1.363 . S
C387 C393 1.363 . S
C388 C389 1.363 . S
C388 C393 1.379 . S
C388 N395 1.356 . S
C389 C388 1.363 . S
C389 C392 1.363 . S
N390 C392 1.356 . S
N390 H402 0.984 . S
N390 H403 0.985 . S
N391 C393 1.356 . S
N391 H396 0.984 . S
N391 H397 0.985 . S
C392 C386 1.379 . S
C392 C389 1.363 . S
C392 N390 1.356 . S
C393 C387 1.363 . S
C393 C388 1.379 . S
C393 N391 1.356 . S
N394 C386 1.356 . S
N394 H400 0.984 . S
N394 H401 0.984 . S
N395 C388 1.356 . S
N395 H398 0.984 . S
N395 H399 0.985 . S
H396 N391 0.984 . S
H397 N391 0.985 . S
H398 N395 0.984 . S
H399 N395 0.985 . S
H400 N394 0.984 . S
H401 N394 0.984 . S
H402 N390 0.984 . S
H403 N390 0.985 . S
C404 C405 1.363 . S
C404 C410 1.379 . S
C404 N412 1.356 . S
C405 C404 1.363 . S
C405 C411 1.363 . S
C406 C407 1.363 . S
C406 C411 1.379 . S
C406 N413 1.356 . S
C407 C406 1.363 . S
C407 C410 1.363 . S
N408 C410 1.356 . S
N408 H420 0.984 . S
N408 H421 0.985 . S
N409 C411 1.356 . S
N409 H414 0.984 . S
N409 H415 0.985 1_556 S
C410 C404 1.379 . S
C410 C407 1.363 . S
C410 N408 1.356 . S
C411 C405 1.363 . S
C411 C406 1.379 . S
C411 N409 1.356 . S
N412 C404 1.356 . S
N412 H418 0.984 . S
N412 H419 0.984 . S
N413 C406 1.356 . S
N413 H416 0.984 . S
N413 H417 0.985 . S
H414 N409 0.984 . S
H415 N409 0.985 1_554 S
H416 N413 0.984 . S
H417 N413 0.985 . S
H418 N412 0.984 . S
H419 N412 0.984 . S
H420 N408 0.984 . S
H421 N408 0.985 . S
C422 C423 1.363 . S
C422 C428 1.379 . S
C422 N430 1.356 . S
C423 C422 1.363 . S
C423 C429 1.363 . S
C424 C425 1.363 . S
C424 C429 1.379 . S
C424 N431 1.356 . S
C425 C424 1.363 . S
C425 C428 1.363 . S
N426 C428 1.356 . S
N426 H438 0.984 . S
N426 H439 0.985 . S
N427 C429 1.356 . S
N427 H432 0.984 . S
N427 H433 0.985 . S
C428 C422 1.379 . S
C428 C425 1.363 . S
C428 N426 1.356 . S
C429 C423 1.363 . S
C429 C424 1.379 . S
C429 N427 1.356 . S
N430 C422 1.356 . S
N430 H436 0.984 . S
N430 H437 0.984 . S
N431 C424 1.356 . S
N431 H434 0.984 . S
N431 H435 0.985 . S
H432 N427 0.984 . S
H433 N427 0.985 . S
H434 N431 0.984 . S
H435 N431 0.985 . S
H436 N430 0.984 . S
H437 N430 0.984 . S
H438 N426 0.984 . S
H439 N426 0.985 . S
C440 C441 1.363 . S
C440 C446 1.379 1_565 S
C440 N448 1.356 . S
C441 C440 1.363 . S
C441 C447 1.363 . S
C442 C443 1.363 . S
C442 C447 1.379 1_545 S
C442 N449 1.356 . S
C443 C442 1.363 . S
C443 C446 1.363 . S
N444 C446 1.356 . S
N444 H456 0.984 . S
N444 H457 0.985 . S
N445 C447 1.356 . S
N445 H450 0.984 . S
N445 H451 0.985 . S
C446 C440 1.379 1_545 S
C446 C443 1.363 . S
C446 N444 1.356 . S
C447 C441 1.363 . S
C447 C442 1.379 1_565 S
C447 N445 1.356 . S
N448 C440 1.356 . S
N448 H454 0.984 . S
N448 H455 0.984 . S
N449 C442 1.356 . S
N449 H452 0.984 . S
N449 H453 0.985 . S
H450 N445 0.984 . S
H451 N445 0.985 . S
H452 N449 0.984 . S
H453 N449 0.985 . S
H454 N448 0.984 . S
H455 N448 0.984 . S
H456 N444 0.984 . S
H457 N444 0.985 . S
C458 C459 1.363 . S
C458 C464 1.379 1_655 S
C458 N466 1.356 . S
C459 C458 1.363 . S
C459 C465 1.363 . S
C460 C461 1.363 . S
C460 C465 1.379 1_455 S
C460 N467 1.356 . S
C461 C460 1.363 . S
C461 C464 1.363 . S
N462 C464 1.356 . S
N462 H474 0.984 . S
N462 H475 0.985 . S
N463 C465 1.356 . S
N463 H468 0.984 . S
N463 H469 0.985 . S
C464 C458 1.379 1_455 S
C464 C461 1.363 . S
C464 N462 1.356 . S
C465 C459 1.363 . S
C465 C460 1.379 1_655 S
C465 N463 1.356 . S
N466 C458 1.356 . S
N466 H472 0.984 . S
N466 H473 0.984 . S
N467 C460 1.356 . S
N467 H470 0.984 . S
N467 H471 0.985 . S
H468 N463 0.984 . S
H469 N463 0.985 . S
H470 N467 0.984 . S
H471 N467 0.985 . S
H472 N466 0.984 . S
H473 N466 0.984 . S
H474 N462 0.984 . S
H475 N462 0.985 . S
C476 C477 1.363 . S
C476 C482 1.379 1_565 S
C476 N484 1.356 . S
C477 C476 1.363 . S
C477 C483 1.363 . S
C478 C479 1.363 . S
C478 C483 1.379 1_545 S
C478 N485 1.356 . S
C479 C478 1.363 . S
C479 C482 1.363 . S
N480 C482 1.356 . S
N480 H492 0.984 . S
N480 H493 0.985 . S
N481 C483 1.356 . S
N481 H486 0.984 . S
N481 H487 0.985 . S
C482 C476 1.379 1_545 S
C482 C479 1.363 . S
C482 N480 1.356 . S
C483 C477 1.363 . S
C483 C478 1.379 1_565 S
C483 N481 1.356 . S
N484 C476 1.356 . S
N484 H490 0.984 . S
N484 H491 0.984 . S
N485 C478 1.356 . S
N485 H488 0.984 . S
N485 H489 0.985 . S
H486 N481 0.984 . S
H487 N481 0.985 . S
H488 N485 0.984 . S
H489 N485 0.985 . S
H490 N484 0.984 . S
H491 N484 0.984 . S
H492 N480 0.984 . S
H493 N480 0.985 . S
C494 C495 1.363 . S
C494 C500 1.379 1_655 S
C494 N502 1.356 . S
C495 C494 1.363 . S
C495 C501 1.363 . S
C496 C497 1.363 . S
C496 C501 1.379 1_455 S
C496 N503 1.356 . S
C497 C496 1.363 . S
C497 C500 1.363 . S
N498 C500 1.356 . S
N498 H510 0.984 . S
N498 H511 0.985 . S
N499 C501 1.356 . S
N499 H504 0.984 . S
N499 H505 0.985 . S
C500 C494 1.379 1_455 S
C500 C497 1.363 . S
C500 N498 1.356 . S
C501 C495 1.363 . S
C501 C496 1.379 1_655 S
C501 N499 1.356 . S
N502 C494 1.356 . S
N502 H508 0.984 . S
N502 H509 0.984 . S
N503 C496 1.356 . S
N503 H506 0.984 . S
N503 H507 0.985 . S
H504 N499 0.984 . S
H505 N499 0.985 . S
H506 N503 0.984 . S
H507 N503 0.985 . S
H508 N502 0.984 . S
H509 N502 0.984 . S
H510 N498 0.984 . S
H511 N498 0.985 . S
C512 C513 1.363 . S
C512 C518 1.379 . S
C512 N520 1.356 1_554 S
C513 C512 1.363 . S
C513 C519 1.363 . S
C514 C515 1.363 . S
C514 C519 1.379 . S
C514 N521 1.356 . S
C515 C514 1.363 . S
C515 C518 1.363 . S
N516 C518 1.356 . S
N516 H528 0.984 1_554 S
N516 H529 0.985 . S
N517 C519 1.356 . S
N517 H522 0.984 . S
N517 H523 0.985 . S
C518 C512 1.379 . S
C518 C515 1.363 . S
C518 N516 1.356 . S
C519 C513 1.363 . S
C519 C514 1.379 . S
C519 N517 1.356 . S
N520 C512 1.356 1_556 S
N520 H526 0.984 . S
N520 H527 0.984 . S
N521 C514 1.356 . S
N521 H524 0.984 . S
N521 H525 0.985 . S
H522 N517 0.984 . S
H523 N517 0.985 . S
H524 N521 0.984 . S
H525 N521 0.985 . S
H526 N520 0.984 . S
H527 N520 0.984 . S
H528 N516 0.984 1_556 S
H529 N516 0.985 . S
C530 C531 1.363 . S
C530 C536 1.379 . S
C530 N538 1.356 . S
C531 C530 1.363 . S
C531 C537 1.363 . S
C532 C533 1.363 . S
C532 C537 1.379 . S
C532 N539 1.356 . S
C533 C532 1.363 . S
C533 C536 1.363 . S
N534 C536 1.356 1_554 S
N534 H546 0.984 . S
N534 H547 0.985 . S
N535 C537 1.356 . S
N535 H540 0.984 . S
N535 H541 0.985 . S
C536 C530 1.379 . S
C536 C533 1.363 . S
C536 N534 1.356 1_556 S
C537 C531 1.363 . S
C537 C532 1.379 . S
C537 N535 1.356 . S
N538 C530 1.356 . S
N538 H544 0.984 . S
N538 H545 0.984 . S
N539 C532 1.356 . S
N539 H542 0.984 . S
N539 H543 0.985 . S
H540 N535 0.984 . S
H541 N535 0.985 . S
H542 N539 0.984 . S
H543 N539 0.985 . S
H544 N538 0.984 . S
H545 N538 0.984 . S
H546 N534 0.984 . S
H547 N534 0.985 . S
C548 C549 1.363 . S
C548 C554 1.379 . S
C548 N556 1.356 . S
C549 C548 1.363 . S
C549 C555 1.363 . S
C550 C551 1.363 . S
C550 C555 1.379 . S
C550 N557 1.356 . S
C551 C550 1.363 . S
C551 C554 1.363 . S
N552 C554 1.356 1_556 S
N552 H564 0.984 . S
N552 H565 0.985 . S
N553 C555 1.356 . S
N553 H558 0.984 . S
N553 H559 0.985 . S
C554 C548 1.379 . S
C554 C551 1.363 . S
C554 N552 1.356 1_554 S
C555 C549 1.363 . S
C555 C550 1.379 . S
C555 N553 1.356 . S
N556 C548 1.356 . S
N556 H562 0.984 . S
N556 H563 0.984 . S
N557 C550 1.356 . S
N557 H560 0.984 . S
N557 H561 0.985 . S
H558 N553 0.984 . S
H559 N553 0.985 . S
H560 N557 0.984 . S
H561 N557 0.985 . S
H562 N556 0.984 . S
H563 N556 0.984 . S
H564 N552 0.984 . S
H565 N552 0.985 . S
C566 C567 1.363 . S
C566 C572 1.379 . S
C566 N574 1.356 1_556 S
C567 C566 1.363 . S
C567 C573 1.363 . S
C568 C569 1.363 . S
C568 C573 1.379 . S
C568 N575 1.356 . S
C569 C568 1.363 . S
C569 C572 1.363 . S
N570 C572 1.356 . S
N570 H582 0.984 . S
N570 H583 0.985 . S
N571 C573 1.356 . S
N571 H576 0.984 . S
N571 H577 0.985 . S
C572 C566 1.379 . S
C572 C569 1.363 . S
C572 N570 1.356 . S
C573 C567 1.363 . S
C573 C568 1.379 . S
C573 N571 1.356 . S
N574 C566 1.356 1_554 S
N574 H580 0.984 . S
N574 H581 0.984 . S
N575 C568 1.356 . S
N575 H578 0.984 . S
N575 H579 0.985 . S
H576 N571 0.984 . S
H577 N571 0.985 . S
H578 N575 0.984 . S
H579 N575 0.985 . S
H580 N574 0.984 . S
H581 N574 0.984 . S
H582 N570 0.984 . S
H583 N570 0.985 . S
C584 C585 1.363 . S
C584 C590 1.379 . S
C584 N592 1.356 . S
C585 C584 1.363 . S
C585 C591 1.363 . S
C586 C587 1.363 . S
C586 C591 1.379 . S
C586 N593 1.356 . S
C587 C586 1.363 . S
C587 C590 1.363 . S
N588 C590 1.356 . S
N588 H600 0.984 . S
N588 H601 0.985 . S
N589 C591 1.356 . S
N589 H594 0.984 . S
N589 H595 0.985 . S
C590 C584 1.379 . S
C590 C587 1.363 . S
C590 N588 1.356 . S
C591 C585 1.363 . S
C591 C586 1.379 . S
C591 N589 1.356 . S
N592 C584 1.356 . S
N592 H598 0.984 . S
N592 H599 0.984 . S
N593 C586 1.356 . S
N593 H596 0.984 . S
N593 H597 0.985 . S
H594 N589 0.984 . S
H595 N589 0.985 . S
H596 N593 0.984 . S
H597 N593 0.985 . S
H598 N592 0.984 . S
H599 N592 0.984 . S
H600 N588 0.984 . S
H601 N588 0.985 . S
C602 C603 1.363 . S
C602 C608 1.379 . S
C602 N610 1.356 . S
C603 C602 1.363 . S
C603 C609 1.363 . S
C604 C605 1.363 . S
C604 C609 1.379 . S
C604 N611 1.356 . S
C605 C604 1.363 . S
C605 C608 1.363 . S
N606 C608 1.356 . S
N606 H618 0.984 . S
N606 H619 0.985 . S
N607 C609 1.356 . S
N607 H612 0.984 . S
N607 H613 0.985 . S
C608 C602 1.379 . S
C608 C605 1.363 . S
C608 N606 1.356 . S
C609 C603 1.363 . S
C609 C604 1.379 . S
C609 N607 1.356 . S
N610 C602 1.356 . S
N610 H616 0.984 . S
N610 H617 0.984 . S
N611 C604 1.356 . S
N611 H614 0.984 . S
N611 H615 0.985 . S
H612 N607 0.984 . S
H613 N607 0.985 . S
H614 N611 0.984 . S
H615 N611 0.985 . S
H616 N610 0.984 . S
H617 N610 0.984 . S
H618 N606 0.984 . S
H619 N606 0.985 . S
C620 C621 1.363 . S
C620 C626 1.379 . S
C620 N628 1.356 . S
C621 C620 1.363 . S
C621 C627 1.363 . S
C622 C623 1.363 . S
C622 C627 1.379 . S
C622 N629 1.356 . S
C623 C622 1.363 . S
C623 C626 1.363 . S
N624 C626 1.356 . S
N624 H636 0.984 . S
N624 H637 0.985 . S
N625 C627 1.356 . S
N625 H630 0.984 . S
N625 H631 0.985 . S
C626 C620 1.379 . S
C626 C623 1.363 . S
C626 N624 1.356 . S
C627 C621 1.363 . S
C627 C622 1.379 . S
C627 N625 1.356 . S
N628 C620 1.356 . S
N628 H634 0.984 . S
N628 H635 0.984 . S
N629 C622 1.356 . S
N629 H632 0.984 . S
N629 H633 0.985 . S
H630 N625 0.984 . S
H631 N625 0.985 . S
H632 N629 0.984 . S
H633 N629 0.985 . S
H634 N628 0.984 . S
H635 N628 0.984 . S
H636 N624 0.984 . S
H637 N624 0.985 . S
C638 C639 1.363 . S
C638 C644 1.379 . S
C638 N646 1.356 . S
C639 C638 1.363 . S
C639 C645 1.363 . S
C640 C641 1.363 . S
C640 C645 1.379 . S
C640 N647 1.356 . S
C641 C640 1.363 . S
C641 C644 1.363 . S
N642 C644 1.356 . S
N642 H654 0.984 . S
N642 H655 0.985 . S
N643 C645 1.356 . S
N643 H648 0.984 . S
N643 H649 0.985 . S
C644 C638 1.379 . S
C644 C641 1.363 . S
C644 N642 1.356 . S
C645 C639 1.363 . S
C645 C640 1.379 . S
C645 N643 1.356 . S
N646 C638 1.356 . S
N646 H652 0.984 . S
N646 H653 0.984 . S
N647 C640 1.356 . S
N647 H650 0.984 . S
N647 H651 0.985 . S
H648 N643 0.984 . S
H649 N643 0.985 . S
H650 N647 0.984 . S
H651 N647 0.985 . S
H652 N646 0.984 . S
H653 N646 0.984 . S
H654 N642 0.984 . S
H655 N642 0.985 . S
C656 C657 1.363 . S
C656 C662 1.379 . S
C656 N664 1.356 . S
C657 C656 1.363 . S
C657 C663 1.363 . S
C658 C659 1.363 . S
C658 C663 1.379 . S
C658 N665 1.356 . S
C659 C658 1.363 . S
C659 C662 1.363 . S
N660 C662 1.356 1_554 S
N660 H672 0.984 . S
N660 H673 0.985 . S
N661 C663 1.356 . S
N661 H666 0.984 . S
N661 H667 0.985 . S
C662 C656 1.379 . S
C662 C659 1.363 . S
C662 N660 1.356 1_556 S
C663 C657 1.363 . S
C663 C658 1.379 . S
C663 N661 1.356 . S
N664 C656 1.356 . S
N664 H670 0.984 . S
N664 H671 0.984 . S
N665 C658 1.356 . S
N665 H668 0.984 . S
N665 H669 0.985 . S
H666 N661 0.984 . S
H667 N661 0.985 . S
H668 N665 0.984 . S
H669 N665 0.985 . S
H670 N664 0.984 . S
H671 N664 0.984 . S
H672 N660 0.984 . S
H673 N660 0.985 . S
C674 C675 1.363 . S
C674 C680 1.379 . S
C674 N682 1.356 . S
C675 C674 1.363 . S
C675 C681 1.363 . S
C676 C677 1.363 . S
C676 C681 1.379 . S
C676 N683 1.356 . S
C677 C676 1.363 . S
C677 C680 1.363 . S
N678 C680 1.356 1_556 S
N678 H690 0.984 . S
N678 H691 0.985 . S
N679 C681 1.356 . S
N679 H684 0.984 . S
N679 H685 0.985 . S
C680 C674 1.379 . S
C680 C677 1.363 . S
C680 N678 1.356 1_554 S
C681 C675 1.363 . S
C681 C676 1.379 . S
C681 N679 1.356 . S
N682 C674 1.356 . S
N682 H688 0.984 1_554 S
N682 H689 0.984 . S
N683 C676 1.356 . S
N683 H686 0.984 . S
N683 H687 0.985 . S
H684 N679 0.984 . S
H685 N679 0.985 . S
H686 N683 0.984 . S
H687 N683 0.985 . S
H688 N682 0.984 1_556 S
H689 N682 0.984 . S
H690 N678 0.984 . S
H691 N678 0.985 . S
C692 C693 1.363 . S
C692 C698 1.379 . S
C692 N700 1.356 . S
C693 C692 1.363 . S
C693 C699 1.363 . S
C694 C695 1.363 . S
C694 C699 1.379 . S
C694 N701 1.356 . S
C695 C694 1.363 . S
C695 C698 1.363 . S
N696 C698 1.356 . S
N696 H708 0.984 . S
N696 H709 0.985 . S
N697 C699 1.356 1_554 S
N697 H702 0.984 . S
N697 H703 0.985 . S
C698 C692 1.379 . S
C698 C695 1.363 . S
C698 N696 1.356 . S
C699 C693 1.363 . S
C699 C694 1.379 . S
C699 N697 1.356 1_556 S
N700 C692 1.356 . S
N700 H706 0.984 . S
N700 H707 0.984 . S
N701 C694 1.356 . S
N701 H704 0.984 . S
N701 H705 0.985 . S
H702 N697 0.984 . S
H703 N697 0.985 . S
H704 N701 0.984 . S
H705 N701 0.985 . S
H706 N700 0.984 . S
H707 N700 0.984 . S
H708 N696 0.984 . S
H709 N696 0.985 . S
C710 C711 1.363 . S
C710 C716 1.379 . S
C710 N718 1.356 . S
C711 C710 1.363 . S
C711 C717 1.363 . S
C712 C713 1.363 . S
C712 C717 1.379 . S
C712 N719 1.356 . S
C713 C712 1.363 . S
C713 C716 1.363 . S
N714 C716 1.356 1_556 S
N714 H726 0.984 . S
N714 H727 0.985 . S
N715 C717 1.356 . S
N715 H720 0.984 . S
N715 H721 0.985 . S
C716 C710 1.379 . S
C716 C713 1.363 . S
C716 N714 1.356 1_554 S
C717 C711 1.363 . S
C717 C712 1.379 . S
C717 N715 1.356 . S
N718 C710 1.356 . S
N718 H724 0.984 1_554 S
N718 H725 0.984 . S
N719 C712 1.356 . S
N719 H722 0.984 . S
N719 H723 0.985 . S
H720 N715 0.984 . S
H721 N715 0.985 . S
H722 N719 0.984 . S
H723 N719 0.985 . S
H724 N718 0.984 1_556 S
H725 N718 0.984 . S
H726 N714 0.984 . S
H727 N714 0.985 . S
C728 C729 1.363 . S
C728 C734 1.379 . S
C728 N736 1.356 . S
C729 C728 1.363 . S
C729 C735 1.363 . S
C730 C731 1.363 . S
C730 C735 1.379 . S
C730 N737 1.356 . S
C731 C730 1.363 . S
C731 C734 1.363 . S
N732 C734 1.356 . S
N732 H744 0.984 . S
N732 H745 0.985 . S
N733 C735 1.356 . S
N733 H738 0.984 . S
N733 H739 0.985 . S
C734 C728 1.379 . S
C734 C731 1.363 . S
C734 N732 1.356 . S
C735 C729 1.363 . S
C735 C730 1.379 . S
C735 N733 1.356 . S
N736 C728 1.356 . S
N736 H742 0.984 . S
N736 H743 0.984 . S
N737 C730 1.356 . S
N737 H740 0.984 . S
N737 H741 0.985 . S
H738 N733 0.984 . S
H739 N733 0.985 . S
H740 N737 0.984 . S
H741 N737 0.985 . S
H742 N736 0.984 . S
H743 N736 0.984 . S
H744 N732 0.984 . S
H745 N732 0.985 . S
C746 C747 1.363 . S
C746 C752 1.379 . S
C746 N754 1.356 . S
C747 C746 1.363 . S
C747 C753 1.363 . S
C748 C749 1.363 . S
C748 C753 1.379 . S
C748 N755 1.356 . S
C749 C748 1.363 . S
C749 C752 1.363 . S
N750 C752 1.356 . S
N750 H762 0.984 . S
N750 H763 0.985 . S
N751 C753 1.356 . S
N751 H756 0.984 . S
N751 H757 0.985 . S
C752 C746 1.379 . S
C752 C749 1.363 . S
C752 N750 1.356 . S
C753 C747 1.363 . S
C753 C748 1.379 . S
C753 N751 1.356 . S
N754 C746 1.356 . S
N754 H760 0.984 . S
N754 H761 0.984 . S
N755 C748 1.356 . S
N755 H758 0.984 . S
N755 H759 0.985 . S
H756 N751 0.984 . S
H757 N751 0.985 . S
H758 N755 0.984 . S
H759 N755 0.985 . S
H760 N754 0.984 . S
H761 N754 0.984 . S
H762 N750 0.984 . S
H763 N750 0.985 . S
C764 C765 1.363 . S
C764 C770 1.379 . S
C764 N772 1.356 . S
C765 C764 1.363 . S
C765 C771 1.363 . S
C766 C767 1.363 . S
C766 C771 1.379 . S
C766 N773 1.356 . S
C767 C766 1.363 . S
C767 C770 1.363 . S
N768 C770 1.356 . S
N768 H780 0.984 . S
N768 H781 0.985 . S
N769 C771 1.356 . S
N769 H774 0.984 . S
N769 H775 0.985 . S
C770 C764 1.379 . S
C770 C767 1.363 . S
C770 N768 1.356 . S
C771 C765 1.363 . S
C771 C766 1.379 . S
C771 N769 1.356 . S
N772 C764 1.356 . S
N772 H778 0.984 . S
N772 H779 0.984 . S
N773 C766 1.356 . S
N773 H776 0.984 . S
N773 H777 0.985 . S
H774 N769 0.984 . S
H775 N769 0.985 . S
H776 N773 0.984 . S
H777 N773 0.985 . S
H778 N772 0.984 . S
H779 N772 0.984 . S
H780 N768 0.984 . S
H781 N768 0.985 . S
C782 C783 1.363 . S
C782 C788 1.379 . S
C782 N790 1.356 . S
C783 C782 1.363 . S
C783 C789 1.363 . S
C784 C785 1.363 . S
C784 C789 1.379 . S
C784 N791 1.356 . S
C785 C784 1.363 . S
C785 C788 1.363 . S
N786 C788 1.356 . S
N786 H798 0.984 . S
N786 H799 0.985 . S
N787 C789 1.356 . S
N787 H792 0.984 . S
N787 H793 0.985 . S
C788 C782 1.379 . S
C788 C785 1.363 . S
C788 N786 1.356 . S
C789 C783 1.363 . S
C789 C784 1.379 . S
C789 N787 1.356 . S
N790 C782 1.356 . S
N790 H796 0.984 . S
N790 H797 0.984 . S
N791 C784 1.356 . S
N791 H794 0.984 . S
N791 H795 0.985 . S
H792 N787 0.984 . S
H793 N787 0.985 . S
H794 N791 0.984 . S
H795 N791 0.985 . S
H796 N790 0.984 . S
H797 N790 0.984 . S
H798 N786 0.984 . S
H799 N786 0.985 . S
C225 C159 1.404 . S
C227 C0 1.373 . S
C243 C14 1.373 . S
C245 C117 1.404 . S
C261 C28 1.373 . S
C263 C131 1.404 . S
C279 C145 1.404 . S
C281 C42 1.373 . S
C297 C56 1.373 . S
C299 C75 1.404 . S
C315 C70 1.373 . S
C317 C89 1.404 . S
C333 C103 1.404 . S
C335 C84 1.373 . S
C351 C61 1.404 . S
C353 C98 1.373 . S
C369 C47 1.404 . S
C371 C112 1.373 . S
C387 C126 1.373 . S
C389 C5 1.404 . S
C405 C19 1.404 . S
C407 C140 1.373 . S
C423 C154 1.373 . S
C425 C33 1.404 . S
C441 C168 1.373 . S
C443 C187 1.404 . S
C459 C182 1.373 . S
C461 C201 1.404 . S
C477 C215 1.404 . S
C479 C196 1.373 . S
C495 C173 1.404 . S
C497 C210 1.373 . S
C513 C65 1.385 . S
C515 C9 1.385 . S
C531 C23 1.385 . S
C533 C79 1.385 . S
C549 C37 1.385 . S
C551 C93 1.385 . S
C567 C107 1.385 . S
C569 C51 1.385 . S
C585 C121 1.385 . S
C587 C177 1.385 . S
C603 C191 1.385 . S
C605 C135 1.385 . S
C621 C149 1.385 . S
C623 C205 1.385 . S
C639 C219 1.385 . S
C641 C163 1.385 . S
C657 C207 1.477 . S
C659 C11 1.477 . S
C675 C221 1.477 . S
C677 C25 1.477 . S
C693 C39 1.477 . S
C695 C179 1.477 . S
C711 C193 1.477 . S
C713 C53 1.477 . S
C729 C151 1.477 . S
C731 C67 1.477 . S
C747 C165 1.477 . S
C749 C81 1.477 . S
C765 C95 1.477 . S
C767 C123 1.477 . S
C783 C137 1.477 . S
C785 C109 1.477 . S
