# Generated by pormake.
# Topology hal, (4)-cn, num edge types: 1
# Building blocks:
#     Node 0, Type 0, BuildingBlock: QUQFOY_clean_sbu_1, # of connection points: 4
#     Node 1, Type 0, BuildingBlock: QUQFOY_clean_sbu_1, # of connection points: 4
#     Node 2, Type 0, BuildingBlock: QUQFOY_clean_sbu_1, # of connection points: 4
#     Node 3, Type 0, BuildingBlock: QUQFOY_clean_sbu_1, # of connection points: 4
#     Node 4, Type 0, BuildingBlock: QUQFOY_clean_sbu_1, # of connection points: 4
#     Node 5, Type 0, BuildingBlock: QUQFOY_clean_sbu_1, # of connection points: 4
#     Node 6, Type 0, BuildingBlock: QUQFOY_clean_sbu_1, # of connection points: 4
#     Node 7, Type 0, BuildingBlock: QUQFOY_clean_sbu_1, # of connection points: 4
#     Node 8, Type 0, BuildingBlock: QUQFOY_clean_sbu_1, # of connection points: 4
#     Node 9, Type 0, BuildingBlock: QUQFOY_clean_sbu_1, # of connection points: 4
#     Node 10, Type 0, BuildingBlock: QUQFOY_clean_sbu_1, # of connection points: 4
#     Node 11, Type 0, BuildingBlock: QUQFOY_clean_sbu_1, # of connection points: 4
#     Node 12, Type 0, BuildingBlock: QUQFOY_clean_sbu_1, # of connection points: 4
#     Node 13, Type 0, BuildingBlock: QUQFOY_clean_sbu_1, # of connection points: 4
#     Node 14, Type 0, BuildingBlock: QUQFOY_clean_sbu_1, # of connection points: 4
#     Node 15, Type 0, BuildingBlock: QUQFOY_clean_sbu_1, # of connection points: 4
#     Node 16, Type 0, BuildingBlock: QUQFOY_clean_sbu_1, # of connection points: 4
#     Node 17, Type 0, BuildingBlock: QUQFOY_clean_sbu_1, # of connection points: 4
#     Node 18, Type 0, BuildingBlock: QUQFOY_clean_sbu_1, # of connection points: 4
#     Node 19, Type 0, BuildingBlock: QUQFOY_clean_sbu_1, # of connection points: 4
#     Node 20, Type 0, BuildingBlock: QUQFOY_clean_sbu_1, # of connection points: 4
#     Node 21, Type 0, BuildingBlock: QUQFOY_clean_sbu_1, # of connection points: 4
#     Node 22, Type 0, BuildingBlock: QUQFOY_clean_sbu_1, # of connection points: 4
#     Node 23, Type 0, BuildingBlock: QUQFOY_clean_sbu_1, # of connection points: 4
#     Node 24, Type 0, BuildingBlock: QUQFOY_clean_sbu_1, # of connection points: 4
#     Node 25, Type 0, BuildingBlock: QUQFOY_clean_sbu_1, # of connection points: 4
#     Node 26, Type 0, BuildingBlock: QUQFOY_clean_sbu_1, # of connection points: 4
#     Node 27, Type 0, BuildingBlock: QUQFOY_clean_sbu_1, # of connection points: 4
#     Node 28, Type 0, BuildingBlock: QUQFOY_clean_sbu_1, # of connection points: 4
#     Node 29, Type 0, BuildingBlock: QUQFOY_clean_sbu_1, # of connection points: 4
#     Node 30, Type 0, BuildingBlock: QUQFOY_clean_sbu_1, # of connection points: 4
#     Node 31, Type 0, BuildingBlock: QUQFOY_clean_sbu_1, # of connection points: 4
#     Node 32, Type 0, BuildingBlock: QUQFOY_clean_sbu_1, # of connection points: 4
#     Node 33, Type 0, BuildingBlock: QUQFOY_clean_sbu_1, # of connection points: 4
#     Node 34, Type 0, BuildingBlock: QUQFOY_clean_sbu_1, # of connection points: 4
#     Node 35, Type 0, BuildingBlock: QUQFOY_clean_sbu_1, # of connection points: 4
#     Node 36, Type 0, BuildingBlock: QUQFOY_clean_sbu_1, # of connection points: 4
#     Node 37, Type 0, BuildingBlock: QUQFOY_clean_sbu_1, # of connection points: 4
#     Node 38, Type 0, BuildingBlock: QUQFOY_clean_sbu_1, # of connection points: 4
#     Node 39, Type 0, BuildingBlock: QUQFOY_clean_sbu_1, # of connection points: 4
#     Node 40, Type 0, BuildingBlock: QUQFOY_clean_sbu_1, # of connection points: 4
#     Node 41, Type 0, BuildingBlock: QUQFOY_clean_sbu_1, # of connection points: 4
#     Node 42, Type 0, BuildingBlock: QUQFOY_clean_sbu_1, # of connection points: 4
#     Node 43, Type 0, BuildingBlock: QUQFOY_clean_sbu_1, # of connection points: 4
#     Node 44, Type 0, BuildingBlock: QUQFOY_clean_sbu_1, # of connection points: 4
#     Node 45, Type 0, BuildingBlock: QUQFOY_clean_sbu_1, # of connection points: 4
#     Node 46, Type 0, BuildingBlock: QUQFOY_clean_sbu_1, # of connection points: 4
#     Node 47, Type 0, BuildingBlock: QUQFOY_clean_sbu_1, # of connection points: 4
#     Node 48, Type 0, BuildingBlock: QUQFOY_clean_sbu_1, # of connection points: 4
#     Node 49, Type 0, BuildingBlock: QUQFOY_clean_sbu_1, # of connection points: 4
#     Node 50, Type 0, BuildingBlock: QUQFOY_clean_sbu_1, # of connection points: 4
#     Node 51, Type 0, BuildingBlock: QUQFOY_clean_sbu_1, # of connection points: 4
#     Node 52, Type 0, BuildingBlock: QUQFOY_clean_sbu_1, # of connection points: 4
#     Node 53, Type 0, BuildingBlock: QUQFOY_clean_sbu_1, # of connection points: 4
#     Node 54, Type 0, BuildingBlock: QUQFOY_clean_sbu_1, # of connection points: 4
#     Node 55, Type 0, BuildingBlock: QUQFOY_clean_sbu_1, # of connection points: 4
#     Node 56, Type 0, BuildingBlock: QUQFOY_clean_sbu_1, # of connection points: 4
#     Node 57, Type 0, BuildingBlock: QUQFOY_clean_sbu_1, # of connection points: 4
#     Node 58, Type 0, BuildingBlock: QUQFOY_clean_sbu_1, # of connection points: 4
#     Node 59, Type 0, BuildingBlock: QUQFOY_clean_sbu_1, # of connection points: 4
#     Node 60, Type 0, BuildingBlock: QUQFOY_clean_sbu_1, # of connection points: 4
#     Node 61, Type 0, BuildingBlock: QUQFOY_clean_sbu_1, # of connection points: 4
#     Node 62, Type 0, BuildingBlock: QUQFOY_clean_sbu_1, # of connection points: 4
#     Node 63, Type 0, BuildingBlock: QUQFOY_clean_sbu_1, # of connection points: 4
#     Node 64, Type 0, BuildingBlock: QUQFOY_clean_sbu_1, # of connection points: 4
#     Node 65, Type 0, BuildingBlock: QUQFOY_clean_sbu_1, # of connection points: 4
#     Node 66, Type 0, BuildingBlock: QUQFOY_clean_sbu_1, # of connection points: 4
#     Node 67, Type 0, BuildingBlock: QUQFOY_clean_sbu_1, # of connection points: 4
#     Node 68, Type 0, BuildingBlock: QUQFOY_clean_sbu_1, # of connection points: 4
#     Node 69, Type 0, BuildingBlock: QUQFOY_clean_sbu_1, # of connection points: 4
#     Node 70, Type 0, BuildingBlock: QUQFOY_clean_sbu_1, # of connection points: 4
#     Node 71, Type 0, BuildingBlock: QUQFOY_clean_sbu_1, # of connection points: 4
#     Node 72, Type 0, BuildingBlock: QUQFOY_clean_sbu_1, # of connection points: 4
#     Node 73, Type 0, BuildingBlock: QUQFOY_clean_sbu_1, # of connection points: 4
#     Node 74, Type 0, BuildingBlock: QUQFOY_clean_sbu_1, # of connection points: 4
#     Node 75, Type 0, BuildingBlock: QUQFOY_clean_sbu_1, # of connection points: 4
#     Node 76, Type 0, BuildingBlock: QUQFOY_clean_sbu_1, # of connection points: 4
#     Node 77, Type 0, BuildingBlock: QUQFOY_clean_sbu_1, # of connection points: 4
#     Node 78, Type 0, BuildingBlock: QUQFOY_clean_sbu_1, # of connection points: 4
#     Node 79, Type 0, BuildingBlock: QUQFOY_clean_sbu_1, # of connection points: 4
#     Node 80, Type 0, BuildingBlock: QUQFOY_clean_sbu_1, # of connection points: 4
#     Node 81, Type 0, BuildingBlock: QUQFOY_clean_sbu_1, # of connection points: 4
#     Node 82, Type 0, BuildingBlock: QUQFOY_clean_sbu_1, # of connection points: 4
#     Node 83, Type 0, BuildingBlock: QUQFOY_clean_sbu_1, # of connection points: 4
#     Node 84, Type 0, BuildingBlock: QUQFOY_clean_sbu_1, # of connection points: 4
#     Node 85, Type 0, BuildingBlock: QUQFOY_clean_sbu_1, # of connection points: 4
#     Node 86, Type 0, BuildingBlock: QUQFOY_clean_sbu_1, # of connection points: 4
#     Node 87, Type 0, BuildingBlock: QUQFOY_clean_sbu_1, # of connection points: 4
#     Node 88, Type 0, BuildingBlock: QUQFOY_clean_sbu_1, # of connection points: 4
#     Node 89, Type 0, BuildingBlock: QUQFOY_clean_sbu_1, # of connection points: 4
#     Node 90, Type 0, BuildingBlock: QUQFOY_clean_sbu_1, # of connection points: 4
#     Node 91, Type 0, BuildingBlock: QUQFOY_clean_sbu_1, # of connection points: 4
#     Node 92, Type 0, BuildingBlock: QUQFOY_clean_sbu_1, # of connection points: 4
#     Node 93, Type 0, BuildingBlock: QUQFOY_clean_sbu_1, # of connection points: 4
#     Node 94, Type 0, BuildingBlock: QUQFOY_clean_sbu_1, # of connection points: 4
#     Node 95, Type 0, BuildingBlock: QUQFOY_clean_sbu_1, # of connection points: 4
#     Edge 96, Type (0, 0), BuildingBlock: OJICUG_clean_linker_0, # of connection points: 2
#     Edge 97, Type (0, 0), BuildingBlock: OJICUG_clean_linker_0, # of connection points: 2
#     Edge 98, Type (0, 0), BuildingBlock: OJICUG_clean_linker_0, # of connection points: 2
#     Edge 99, Type (0, 0), BuildingBlock: OJICUG_clean_linker_0, # of connection points: 2
#     Edge 100, Type (0, 0), BuildingBlock: OJICUG_clean_linker_0, # of connection points: 2
#     Edge 101, Type (0, 0), BuildingBlock: OJICUG_clean_linker_0, # of connection points: 2
#     Edge 102, Type (0, 0), BuildingBlock: OJICUG_clean_linker_0, # of connection points: 2
#     Edge 103, Type (0, 0), BuildingBlock: OJICUG_clean_linker_0, # of connection points: 2
#     Edge 104, Type (0, 0), BuildingBlock: OJICUG_clean_linker_0, # of connection points: 2
#     Edge 105, Type (0, 0), BuildingBlock: OJICUG_clean_linker_0, # of connection points: 2
#     Edge 106, Type (0, 0), BuildingBlock: OJICUG_clean_linker_0, # of connection points: 2
#     Edge 107, Type (0, 0), BuildingBlock: OJICUG_clean_linker_0, # of connection points: 2
#     Edge 108, Type (0, 0), BuildingBlock: OJICUG_clean_linker_0, # of connection points: 2
#     Edge 109, Type (0, 0), BuildingBlock: OJICUG_clean_linker_0, # of connection points: 2
#     Edge 110, Type (0, 0), BuildingBlock: OJICUG_clean_linker_0, # of connection points: 2
#     Edge 111, Type (0, 0), BuildingBlock: OJICUG_clean_linker_0, # of connection points: 2
#     Edge 112, Type (0, 0), BuildingBlock: OJICUG_clean_linker_0, # of connection points: 2
#     Edge 113, Type (0, 0), BuildingBlock: OJICUG_clean_linker_0, # of connection points: 2
#     Edge 114, Type (0, 0), BuildingBlock: OJICUG_clean_linker_0, # of connection points: 2
#     Edge 115, Type (0, 0), BuildingBlock: OJICUG_clean_linker_0, # of connection points: 2
#     Edge 116, Type (0, 0), BuildingBlock: OJICUG_clean_linker_0, # of connection points: 2
#     Edge 117, Type (0, 0), BuildingBlock: OJICUG_clean_linker_0, # of connection points: 2
#     Edge 118, Type (0, 0), BuildingBlock: OJICUG_clean_linker_0, # of connection points: 2
#     Edge 119, Type (0, 0), BuildingBlock: OJICUG_clean_linker_0, # of connection points: 2
#     Edge 120, Type (0, 0), BuildingBlock: OJICUG_clean_linker_0, # of connection points: 2
#     Edge 121, Type (0, 0), BuildingBlock: OJICUG_clean_linker_0, # of connection points: 2
#     Edge 122, Type (0, 0), BuildingBlock: OJICUG_clean_linker_0, # of connection points: 2
#     Edge 123, Type (0, 0), BuildingBlock: OJICUG_clean_linker_0, # of connection points: 2
#     Edge 124, Type (0, 0), BuildingBlock: OJICUG_clean_linker_0, # of connection points: 2
#     Edge 125, Type (0, 0), BuildingBlock: OJICUG_clean_linker_0, # of connection points: 2
#     Edge 126, Type (0, 0), BuildingBlock: OJICUG_clean_linker_0, # of connection points: 2
#     Edge 127, Type (0, 0), BuildingBlock: OJICUG_clean_linker_0, # of connection points: 2
#     Edge 128, Type (0, 0), BuildingBlock: OJICUG_clean_linker_0, # of connection points: 2
#     Edge 129, Type (0, 0), BuildingBlock: OJICUG_clean_linker_0, # of connection points: 2
#     Edge 130, Type (0, 0), BuildingBlock: OJICUG_clean_linker_0, # of connection points: 2
#     Edge 131, Type (0, 0), BuildingBlock: OJICUG_clean_linker_0, # of connection points: 2
#     Edge 132, Type (0, 0), BuildingBlock: OJICUG_clean_linker_0, # of connection points: 2
#     Edge 133, Type (0, 0), BuildingBlock: OJICUG_clean_linker_0, # of connection points: 2
#     Edge 134, Type (0, 0), BuildingBlock: OJICUG_clean_linker_0, # of connection points: 2
#     Edge 135, Type (0, 0), BuildingBlock: OJICUG_clean_linker_0, # of connection points: 2
#     Edge 136, Type (0, 0), BuildingBlock: OJICUG_clean_linker_0, # of connection points: 2
#     Edge 137, Type (0, 0), BuildingBlock: OJICUG_clean_linker_0, # of connection points: 2
#     Edge 138, Type (0, 0), BuildingBlock: OJICUG_clean_linker_0, # of connection points: 2
#     Edge 139, Type (0, 0), BuildingBlock: OJICUG_clean_linker_0, # of connection points: 2
#     Edge 140, Type (0, 0), BuildingBlock: OJICUG_clean_linker_0, # of connection points: 2
#     Edge 141, Type (0, 0), BuildingBlock: OJICUG_clean_linker_0, # of connection points: 2
#     Edge 142, Type (0, 0), BuildingBlock: OJICUG_clean_linker_0, # of connection points: 2
#     Edge 143, Type (0, 0), BuildingBlock: OJICUG_clean_linker_0, # of connection points: 2
#     Edge 144, Type (0, 0), BuildingBlock: OJICUG_clean_linker_0, # of connection points: 2
#     Edge 145, Type (0, 0), BuildingBlock: OJICUG_clean_linker_0, # of connection points: 2
#     Edge 146, Type (0, 0), BuildingBlock: OJICUG_clean_linker_0, # of connection points: 2
#     Edge 147, Type (0, 0), BuildingBlock: OJICUG_clean_linker_0, # of connection points: 2
#     Edge 148, Type (0, 0), BuildingBlock: OJICUG_clean_linker_0, # of connection points: 2
#     Edge 149, Type (0, 0), BuildingBlock: OJICUG_clean_linker_0, # of connection points: 2
#     Edge 150, Type (0, 0), BuildingBlock: OJICUG_clean_linker_0, # of connection points: 2
#     Edge 151, Type (0, 0), BuildingBlock: OJICUG_clean_linker_0, # of connection points: 2
#     Edge 152, Type (0, 0), BuildingBlock: OJICUG_clean_linker_0, # of connection points: 2
#     Edge 153, Type (0, 0), BuildingBlock: OJICUG_clean_linker_0, # of connection points: 2
#     Edge 154, Type (0, 0), BuildingBlock: OJICUG_clean_linker_0, # of connection points: 2
#     Edge 155, Type (0, 0), BuildingBlock: OJICUG_clean_linker_0, # of connection points: 2
#     Edge 156, Type (0, 0), BuildingBlock: OJICUG_clean_linker_0, # of connection points: 2
#     Edge 157, Type (0, 0), BuildingBlock: OJICUG_clean_linker_0, # of connection points: 2
#     Edge 158, Type (0, 0), BuildingBlock: OJICUG_clean_linker_0, # of connection points: 2
#     Edge 159, Type (0, 0), BuildingBlock: OJICUG_clean_linker_0, # of connection points: 2
#     Edge 160, Type (0, 0), BuildingBlock: OJICUG_clean_linker_0, # of connection points: 2
#     Edge 161, Type (0, 0), BuildingBlock: OJICUG_clean_linker_0, # of connection points: 2
#     Edge 162, Type (0, 0), BuildingBlock: OJICUG_clean_linker_0, # of connection points: 2
#     Edge 163, Type (0, 0), BuildingBlock: OJICUG_clean_linker_0, # of connection points: 2
#     Edge 164, Type (0, 0), BuildingBlock: OJICUG_clean_linker_0, # of connection points: 2
#     Edge 165, Type (0, 0), BuildingBlock: OJICUG_clean_linker_0, # of connection points: 2
#     Edge 166, Type (0, 0), BuildingBlock: OJICUG_clean_linker_0, # of connection points: 2
#     Edge 167, Type (0, 0), BuildingBlock: OJICUG_clean_linker_0, # of connection points: 2
#     Edge 168, Type (0, 0), BuildingBlock: OJICUG_clean_linker_0, # of connection points: 2
#     Edge 169, Type (0, 0), BuildingBlock: OJICUG_clean_linker_0, # of connection points: 2
#     Edge 170, Type (0, 0), BuildingBlock: OJICUG_clean_linker_0, # of connection points: 2
#     Edge 171, Type (0, 0), BuildingBlock: OJICUG_clean_linker_0, # of connection points: 2
#     Edge 172, Type (0, 0), BuildingBlock: OJICUG_clean_linker_0, # of connection points: 2
#     Edge 173, Type (0, 0), BuildingBlock: OJICUG_clean_linker_0, # of connection points: 2
#     Edge 174, Type (0, 0), BuildingBlock: OJICUG_clean_linker_0, # of connection points: 2
#     Edge 175, Type (0, 0), BuildingBlock: OJICUG_clean_linker_0, # of connection points: 2
#     Edge 176, Type (0, 0), BuildingBlock: OJICUG_clean_linker_0, # of connection points: 2
#     Edge 177, Type (0, 0), BuildingBlock: OJICUG_clean_linker_0, # of connection points: 2
#     Edge 178, Type (0, 0), BuildingBlock: OJICUG_clean_linker_0, # of connection points: 2
#     Edge 179, Type (0, 0), BuildingBlock: OJICUG_clean_linker_0, # of connection points: 2
#     Edge 180, Type (0, 0), BuildingBlock: OJICUG_clean_linker_0, # of connection points: 2
#     Edge 181, Type (0, 0), BuildingBlock: OJICUG_clean_linker_0, # of connection points: 2
#     Edge 182, Type (0, 0), BuildingBlock: OJICUG_clean_linker_0, # of connection points: 2
#     Edge 183, Type (0, 0), BuildingBlock: OJICUG_clean_linker_0, # of connection points: 2
#     Edge 184, Type (0, 0), BuildingBlock: OJICUG_clean_linker_0, # of connection points: 2
#     Edge 185, Type (0, 0), BuildingBlock: OJICUG_clean_linker_0, # of connection points: 2
#     Edge 186, Type (0, 0), BuildingBlock: OJICUG_clean_linker_0, # of connection points: 2
#     Edge 187, Type (0, 0), BuildingBlock: OJICUG_clean_linker_0, # of connection points: 2
#     Edge 188, Type (0, 0), BuildingBlock: OJICUG_clean_linker_0, # of connection points: 2
#     Edge 189, Type (0, 0), BuildingBlock: OJICUG_clean_linker_0, # of connection points: 2
#     Edge 190, Type (0, 0), BuildingBlock: OJICUG_clean_linker_0, # of connection points: 2
#     Edge 191, Type (0, 0), BuildingBlock: OJICUG_clean_linker_0, # of connection points: 2
#     Edge 192, Type (0, 0), BuildingBlock: OJICUG_clean_linker_0, # of connection points: 2
#     Edge 193, Type (0, 0), BuildingBlock: OJICUG_clean_linker_0, # of connection points: 2
#     Edge 194, Type (0, 0), BuildingBlock: OJICUG_clean_linker_0, # of connection points: 2
#     Edge 195, Type (0, 0), BuildingBlock: OJICUG_clean_linker_0, # of connection points: 2
#     Edge 196, Type (0, 0), BuildingBlock: OJICUG_clean_linker_0, # of connection points: 2
#     Edge 197, Type (0, 0), BuildingBlock: OJICUG_clean_linker_0, # of connection points: 2
#     Edge 198, Type (0, 0), BuildingBlock: OJICUG_clean_linker_0, # of connection points: 2
#     Edge 199, Type (0, 0), BuildingBlock: OJICUG_clean_linker_0, # of connection points: 2
#     Edge 200, Type (0, 0), BuildingBlock: OJICUG_clean_linker_0, # of connection points: 2
#     Edge 201, Type (0, 0), BuildingBlock: OJICUG_clean_linker_0, # of connection points: 2
#     Edge 202, Type (0, 0), BuildingBlock: OJICUG_clean_linker_0, # of connection points: 2
#     Edge 203, Type (0, 0), BuildingBlock: OJICUG_clean_linker_0, # of connection points: 2
#     Edge 204, Type (0, 0), BuildingBlock: OJICUG_clean_linker_0, # of connection points: 2
#     Edge 205, Type (0, 0), BuildingBlock: OJICUG_clean_linker_0, # of connection points: 2
#     Edge 206, Type (0, 0), BuildingBlock: OJICUG_clean_linker_0, # of connection points: 2
#     Edge 207, Type (0, 0), BuildingBlock: OJICUG_clean_linker_0, # of connection points: 2
#     Edge 208, Type (0, 0), BuildingBlock: OJICUG_clean_linker_0, # of connection points: 2
#     Edge 209, Type (0, 0), BuildingBlock: OJICUG_clean_linker_0, # of connection points: 2
#     Edge 210, Type (0, 0), BuildingBlock: OJICUG_clean_linker_0, # of connection points: 2
#     Edge 211, Type (0, 0), BuildingBlock: OJICUG_clean_linker_0, # of connection points: 2
#     Edge 212, Type (0, 0), BuildingBlock: OJICUG_clean_linker_0, # of connection points: 2
#     Edge 213, Type (0, 0), BuildingBlock: OJICUG_clean_linker_0, # of connection points: 2
#     Edge 214, Type (0, 0), BuildingBlock: OJICUG_clean_linker_0, # of connection points: 2
#     Edge 215, Type (0, 0), BuildingBlock: OJICUG_clean_linker_0, # of connection points: 2
#     Edge 216, Type (0, 0), BuildingBlock: OJICUG_clean_linker_0, # of connection points: 2
#     Edge 217, Type (0, 0), BuildingBlock: OJICUG_clean_linker_0, # of connection points: 2
#     Edge 218, Type (0, 0), BuildingBlock: OJICUG_clean_linker_0, # of connection points: 2
#     Edge 219, Type (0, 0), BuildingBlock: OJICUG_clean_linker_0, # of connection points: 2
#     Edge 220, Type (0, 0), BuildingBlock: OJICUG_clean_linker_0, # of connection points: 2
#     Edge 221, Type (0, 0), BuildingBlock: OJICUG_clean_linker_0, # of connection points: 2
#     Edge 222, Type (0, 0), BuildingBlock: OJICUG_clean_linker_0, # of connection points: 2
#     Edge 223, Type (0, 0), BuildingBlock: OJICUG_clean_linker_0, # of connection points: 2
#     Edge 224, Type (0, 0), BuildingBlock: OJICUG_clean_linker_0, # of connection points: 2
#     Edge 225, Type (0, 0), BuildingBlock: OJICUG_clean_linker_0, # of connection points: 2
#     Edge 226, Type (0, 0), BuildingBlock: OJICUG_clean_linker_0, # of connection points: 2
#     Edge 227, Type (0, 0), BuildingBlock: OJICUG_clean_linker_0, # of connection points: 2
#     Edge 228, Type (0, 0), BuildingBlock: OJICUG_clean_linker_0, # of connection points: 2
#     Edge 229, Type (0, 0), BuildingBlock: OJICUG_clean_linker_0, # of connection points: 2
#     Edge 230, Type (0, 0), BuildingBlock: OJICUG_clean_linker_0, # of connection points: 2
#     Edge 231, Type (0, 0), BuildingBlock: OJICUG_clean_linker_0, # of connection points: 2
#     Edge 232, Type (0, 0), BuildingBlock: OJICUG_clean_linker_0, # of connection points: 2
#     Edge 233, Type (0, 0), BuildingBlock: OJICUG_clean_linker_0, # of connection points: 2
#     Edge 234, Type (0, 0), BuildingBlock: OJICUG_clean_linker_0, # of connection points: 2
#     Edge 235, Type (0, 0), BuildingBlock: OJICUG_clean_linker_0, # of connection points: 2
#     Edge 236, Type (0, 0), BuildingBlock: OJICUG_clean_linker_0, # of connection points: 2
#     Edge 237, Type (0, 0), BuildingBlock: OJICUG_clean_linker_0, # of connection points: 2
#     Edge 238, Type (0, 0), BuildingBlock: OJICUG_clean_linker_0, # of connection points: 2
#     Edge 239, Type (0, 0), BuildingBlock: OJICUG_clean_linker_0, # of connection points: 2
#     Edge 240, Type (0, 0), BuildingBlock: OJICUG_clean_linker_0, # of connection points: 2
#     Edge 241, Type (0, 0), BuildingBlock: OJICUG_clean_linker_0, # of connection points: 2
#     Edge 242, Type (0, 0), BuildingBlock: OJICUG_clean_linker_0, # of connection points: 2
#     Edge 243, Type (0, 0), BuildingBlock: OJICUG_clean_linker_0, # of connection points: 2
#     Edge 244, Type (0, 0), BuildingBlock: OJICUG_clean_linker_0, # of connection points: 2
#     Edge 245, Type (0, 0), BuildingBlock: OJICUG_clean_linker_0, # of connection points: 2
#     Edge 246, Type (0, 0), BuildingBlock: OJICUG_clean_linker_0, # of connection points: 2
#     Edge 247, Type (0, 0), BuildingBlock: OJICUG_clean_linker_0, # of connection points: 2
#     Edge 248, Type (0, 0), BuildingBlock: OJICUG_clean_linker_0, # of connection points: 2
#     Edge 249, Type (0, 0), BuildingBlock: OJICUG_clean_linker_0, # of connection points: 2
#     Edge 250, Type (0, 0), BuildingBlock: OJICUG_clean_linker_0, # of connection points: 2
#     Edge 251, Type (0, 0), BuildingBlock: OJICUG_clean_linker_0, # of connection points: 2
#     Edge 252, Type (0, 0), BuildingBlock: OJICUG_clean_linker_0, # of connection points: 2
#     Edge 253, Type (0, 0), BuildingBlock: OJICUG_clean_linker_0, # of connection points: 2
#     Edge 254, Type (0, 0), BuildingBlock: OJICUG_clean_linker_0, # of connection points: 2
#     Edge 255, Type (0, 0), BuildingBlock: OJICUG_clean_linker_0, # of connection points: 2
#     Edge 256, Type (0, 0), BuildingBlock: OJICUG_clean_linker_0, # of connection points: 2
#     Edge 257, Type (0, 0), BuildingBlock: OJICUG_clean_linker_0, # of connection points: 2
#     Edge 258, Type (0, 0), BuildingBlock: OJICUG_clean_linker_0, # of connection points: 2
#     Edge 259, Type (0, 0), BuildingBlock: OJICUG_clean_linker_0, # of connection points: 2
#     Edge 260, Type (0, 0), BuildingBlock: OJICUG_clean_linker_0, # of connection points: 2
#     Edge 261, Type (0, 0), BuildingBlock: OJICUG_clean_linker_0, # of connection points: 2
#     Edge 262, Type (0, 0), BuildingBlock: OJICUG_clean_linker_0, # of connection points: 2
#     Edge 263, Type (0, 0), BuildingBlock: OJICUG_clean_linker_0, # of connection points: 2
#     Edge 264, Type (0, 0), BuildingBlock: OJICUG_clean_linker_0, # of connection points: 2
#     Edge 265, Type (0, 0), BuildingBlock: OJICUG_clean_linker_0, # of connection points: 2
#     Edge 266, Type (0, 0), BuildingBlock: OJICUG_clean_linker_0, # of connection points: 2
#     Edge 267, Type (0, 0), BuildingBlock: OJICUG_clean_linker_0, # of connection points: 2
#     Edge 268, Type (0, 0), BuildingBlock: OJICUG_clean_linker_0, # of connection points: 2
#     Edge 269, Type (0, 0), BuildingBlock: OJICUG_clean_linker_0, # of connection points: 2
#     Edge 270, Type (0, 0), BuildingBlock: OJICUG_clean_linker_0, # of connection points: 2
#     Edge 271, Type (0, 0), BuildingBlock: OJICUG_clean_linker_0, # of connection points: 2
#     Edge 272, Type (0, 0), BuildingBlock: OJICUG_clean_linker_0, # of connection points: 2
#     Edge 273, Type (0, 0), BuildingBlock: OJICUG_clean_linker_0, # of connection points: 2
#     Edge 274, Type (0, 0), BuildingBlock: OJICUG_clean_linker_0, # of connection points: 2
#     Edge 275, Type (0, 0), BuildingBlock: OJICUG_clean_linker_0, # of connection points: 2
#     Edge 276, Type (0, 0), BuildingBlock: OJICUG_clean_linker_0, # of connection points: 2
#     Edge 277, Type (0, 0), BuildingBlock: OJICUG_clean_linker_0, # of connection points: 2
#     Edge 278, Type (0, 0), BuildingBlock: OJICUG_clean_linker_0, # of connection points: 2
#     Edge 279, Type (0, 0), BuildingBlock: OJICUG_clean_linker_0, # of connection points: 2
#     Edge 280, Type (0, 0), BuildingBlock: OJICUG_clean_linker_0, # of connection points: 2
#     Edge 281, Type (0, 0), BuildingBlock: OJICUG_clean_linker_0, # of connection points: 2
#     Edge 282, Type (0, 0), BuildingBlock: OJICUG_clean_linker_0, # of connection points: 2
#     Edge 283, Type (0, 0), BuildingBlock: OJICUG_clean_linker_0, # of connection points: 2
#     Edge 284, Type (0, 0), BuildingBlock: OJICUG_clean_linker_0, # of connection points: 2
#     Edge 285, Type (0, 0), BuildingBlock: OJICUG_clean_linker_0, # of connection points: 2
#     Edge 286, Type (0, 0), BuildingBlock: OJICUG_clean_linker_0, # of connection points: 2
#     Edge 287, Type (0, 0), BuildingBlock: OJICUG_clean_linker_0, # of connection points: 2
# Relax obj value: 0.315
# Max RMSD: 0.285
# Mean RMSD: 0.285
data_MOF--net-hal--node1-QUQFOY_clean_sbu_1--edge1-OJICUG_clean_linker_0
_symmetry_space_group_name_H-M    P1
_symmetry_Int_Tables_number       1
_symmetry_cell_setting            triclinic
loop_
_symmetry_equiv_pos_as_xyz
'x, y, z'
_cell_length_a     69.820267
_cell_length_b     69.854438
_cell_length_c     69.836544
_cell_angle_alpha  90.009624
_cell_angle_beta   90.00097
_cell_angle_gamma 89.99856
loop_
_atom_site_label
_atom_site_type_symbol
_atom_site_fract_x
_atom_site_fract_y
_atom_site_fract_z
_atom_type_partial_charge
O0 O 0.06297 0.19894 0.26489 0.0
Cd1 Cd 0.06237 0.17592 0.28362 0.0
Cd2 Cd 0.08918 0.19655 0.30175 0.0
O3 O 0.07586 0.21783 0.28656 0.0
O4 O 0.03634 0.16482 0.28352 0.0
O5 O 0.04876 0.18065 0.30819 0.0
C6 C 0.03432 0.17197 0.30047 0.0
C7 C 0.10409 0.20596 0.33016 0.0
C8 C 0.06741 0.21563 0.27064 0.0
C9 C 0.10009 0.15892 0.28296 0.0
O10 O 0.10518 0.17559 0.28817 0.0
O11 O 0.0825 0.15463 0.28198 0.0
O12 O 0.11041 0.21112 0.31366 0.0
O13 O 0.08852 0.196 0.3307 0.0
O14 O 0.7933 0.06121 0.26478 0.0
Cd15 Cd 0.81578 0.06108 0.28415 0.0
Cd16 Cd 0.7948 0.08874 0.30091 0.0
O17 O 0.77394 0.07507 0.2854 0.0
O18 O 0.82675 0.03504 0.28505 0.0
O19 O 0.81036 0.04821 0.30896 0.0
C20 C 0.81918 0.03353 0.30187 0.0
C21 C 0.78457 0.10455 0.32853 0.0
C22 C 0.7765 0.066 0.26989 0.0
C23 C 0.83321 0.09861 0.28302 0.0
O24 O 0.81648 0.10405 0.28765 0.0
O25 O 0.83727 0.08095 0.28253 0.0
O26 O 0.78006 0.11046 0.3117 0.0
O27 O 0.79434 0.08891 0.32986 0.0
O28 O 0.92773 0.79514 0.26478 0.0
Cd29 Cd 0.92893 0.81722 0.28456 0.0
Cd30 Cd 0.90186 0.79609 0.30205 0.0
O31 O 0.91519 0.77546 0.28593 0.0
O32 O 0.95516 0.82784 0.28463 0.0
O33 O 0.94276 0.8111 0.30869 0.0
C34 C 0.95727 0.81984 0.30118 0.0
C35 C 0.88645 0.78541 0.32977 0.0
C36 C 0.92337 0.77825 0.26997 0.0
C37 C 0.89151 0.83474 0.28496 0.0
O38 O 0.88624 0.81791 0.28941 0.0
O39 O 0.90915 0.83887 0.28414 0.0
O40 O 0.88032 0.78116 0.31295 0.0
O41 O 0.90211 0.79516 0.33102 0.0
O42 O 0.19459 0.92928 0.26493 0.0
Cd43 Cd 0.17206 0.93048 0.2842 0.0
Cd44 Cd 0.19318 0.90375 0.30229 0.0
O45 O 0.21398 0.91752 0.28679 0.0
O46 O 0.16142 0.95669 0.28409 0.0
O47 O 0.1777 0.94426 0.30845 0.0
C48 C 0.16914 0.95879 0.30077 0.0
C49 C 0.2038 0.88786 0.32977 0.0
C50 C 0.21144 0.92535 0.27062 0.0
C51 C 0.15506 0.89294 0.28416 0.0
O52 O 0.17188 0.88795 0.28899 0.0
O53 O 0.1506 0.91049 0.28335 0.0
O54 O 0.20831 0.88218 0.31287 0.0
O55 O 0.1938 0.90333 0.33128 0.0
O56 O 0.06236 0.794 0.72744 0.0
Cd57 Cd 0.06192 0.81655 0.70817 0.0
Cd58 Cd 0.08862 0.79562 0.69046 0.0
O59 O 0.07538 0.77468 0.70623 0.0
O60 O 0.03578 0.82732 0.70717 0.0
O61 O 0.04913 0.8109 0.68339 0.0
C62 C 0.03436 0.81962 0.69041 0.0
C63 C 0.10317 0.78568 0.66205 0.0
C64 C 0.06685 0.7772 0.72206 0.0
C65 C 0.09956 0.83366 0.70844 0.0
O66 O 0.10465 0.81693 0.70343 0.0
O67 O 0.08196 0.83792 0.70951 0.0
O68 O 0.10971 0.78083 0.67856 0.0
O69 O 0.08759 0.79562 0.66151 0.0
O70 O 0.19737 0.06259 0.72692 0.0
Cd71 Cd 0.17491 0.06198 0.70752 0.0
Cd72 Cd 0.19592 0.0895 0.69053 0.0
O73 O 0.21679 0.07565 0.70584 0.0
O74 O 0.16409 0.03584 0.7073 0.0
O75 O 0.18044 0.04843 0.68308 0.0
C76 C 0.17176 0.03388 0.69058 0.0
C77 C 0.20613 0.10557 0.66304 0.0
C78 C 0.21421 0.06703 0.7216 0.0
C79 C 0.15763 0.09952 0.70854 0.0
O80 O 0.17444 0.10485 0.70407 0.0
O81 O 0.15339 0.0819 0.70879 0.0
O82 O 0.21073 0.11127 0.67992 0.0
O83 O 0.19629 0.09 0.66157 0.0
O84 O 0.92896 0.19328 0.72617 0.0
Cd85 Cd 0.93022 0.1706 0.70707 0.0
Cd86 Cd 0.90372 0.19156 0.68865 0.0
O87 O 0.91741 0.21249 0.70406 0.0
O88 O 0.95645 0.15999 0.70731 0.0
O89 O 0.94406 0.17613 0.68283 0.0
C90 C 0.95859 0.16765 0.6906 0.0
C91 C 0.88815 0.20183 0.66086 0.0
C92 C 0.92512 0.21008 0.72031 0.0
C93 C 0.89264 0.15369 0.70703 0.0
O94 O 0.88773 0.17049 0.70207 0.0
O95 O 0.91018 0.14919 0.70796 0.0
O96 O 0.88231 0.20659 0.67764 0.0
O97 O 0.90362 0.19176 0.65966 0.0
O98 O 0.79772 0.9278 0.72862 0.0
Cd99 Cd 0.82009 0.92922 0.70916 0.0
Cd100 Cd 0.79914 0.90267 0.69069 0.0
O101 O 0.77838 0.9157 0.70689 0.0
O102 O 0.83034 0.95558 0.70874 0.0
O103 O 0.81387 0.94254 0.68481 0.0
C104 C 0.82235 0.9573 0.69213 0.0
C105 C 0.78851 0.88774 0.66268 0.0
C106 C 0.78091 0.92356 0.72306 0.0
C107 C 0.83755 0.89184 0.7082 0.0
O108 O 0.8208 0.88676 0.70321 0.0
O109 O 0.84174 0.90942 0.70964 0.0
O110 O 0.78419 0.88136 0.67938 0.0
O111 O 0.79833 0.90337 0.66171 0.0
O112 O 0.26546 0.06247 0.19507 0.0
Cd113 Cd 0.28479 0.06092 0.17258 0.0
Cd114 Cd 0.30334 0.08709 0.19358 0.0
O115 O 0.28737 0.07406 0.2145 0.0
O116 O 0.28459 0.03464 0.16206 0.0
O117 O 0.30894 0.04703 0.17842 0.0
C118 C 0.30124 0.0325 0.16986 0.0
C119 C 0.33162 0.10181 0.20375 0.0
C120 C 0.27108 0.06649 0.21192 0.0
C121 C 0.28554 0.09845 0.15553 0.0
O122 O 0.29047 0.10332 0.17235 0.0
O123 O 0.28431 0.08091 0.15109 0.0
O124 O 0.31503 0.10821 0.20849 0.0
O125 O 0.33233 0.08625 0.1938 0.0
O126 O 0.92904 0.26163 0.19479 0.0
Cd127 Cd 0.93028 0.2809 0.17226 0.0
Cd128 Cd 0.90258 0.29881 0.1927 0.0
O129 O 0.91557 0.28294 0.2137 0.0
O130 O 0.95681 0.28194 0.1624 0.0
O131 O 0.94295 0.30563 0.17851 0.0
C132 C 0.958 0.29865 0.17026 0.0
C133 C 0.88673 0.32635 0.20305 0.0
C134 C 0.92418 0.26712 0.21146 0.0
C135 C 0.89313 0.28138 0.15385 0.0
O136 O 0.88754 0.28633 0.17044 0.0
O137 O 0.91085 0.27995 0.15023 0.0
O138 O 0.88054 0.3095 0.20706 0.0
O139 O 0.90267 0.32773 0.19378 0.0
O140 O 0.72748 0.92833 0.19823 0.0
Cd141 Cd 0.70872 0.92847 0.17524 0.0
Cd142 Cd 0.69083 0.90171 0.19612 0.0
O143 O 0.70601 0.9153 0.21726 0.0
O144 O 0.70824 0.95441 0.16399 0.0
O145 O 0.68388 0.94156 0.17994 0.0
C146 C 0.69127 0.9561 0.17117 0.0
C147 C 0.66247 0.88674 0.20561 0.0
C148 C 0.72182 0.92393 0.21497 0.0
C149 C 0.70976 0.89063 0.15859 0.0
O150 O 0.70451 0.88566 0.17528 0.0
O151 O 0.71065 0.90818 0.15414 0.0
O152 O 0.67899 0.88054 0.21084 0.0
O153 O 0.66186 0.90223 0.19555 0.0
O154 O 0.0622 0.7276 0.19292 0.0
Cd155 Cd 0.06096 0.7084 0.17034 0.0
Cd156 Cd 0.08746 0.68971 0.19136 0.0
O157 O 0.0741 0.70564 0.2121 0.0
O158 O 0.03467 0.70806 0.15988 0.0
O159 O 0.04762 0.68396 0.17616 0.0
C160 C 0.03292 0.69135 0.16764 0.0
C161 C 0.10274 0.66202 0.20231 0.0
C162 C 0.06626 0.72183 0.2097 0.0
C163 C 0.09845 0.70759 0.15309 0.0
O164 O 0.10344 0.70237 0.16979 0.0
O165 O 0.08089 0.70914 0.14884 0.0
O166 O 0.10883 0.67885 0.20655 0.0
O167 O 0.08724 0.66073 0.19232 0.0
O168 O 0.2657 0.92693 0.79407 0.0
Cd169 Cd 0.28494 0.92795 0.81665 0.0
Cd170 Cd 0.30254 0.90052 0.79614 0.0
O171 O 0.28681 0.91344 0.77495 0.0
O172 O 0.28488 0.95415 0.82731 0.0
O173 O 0.30934 0.94163 0.81124 0.0
C174 C 0.30169 0.95615 0.81985 0.0
C175 C 0.33074 0.88536 0.78644 0.0
C176 C 0.27101 0.92207 0.77735 0.0
C177 C 0.2847 0.89062 0.83451 0.0
O178 O 0.28948 0.88511 0.81785 0.0
O179 O 0.28381 0.90831 0.83839 0.0
O180 O 0.31413 0.87896 0.78178 0.0
O181 O 0.33152 0.90115 0.79603 0.0
O182 O 0.06151 0.26513 0.79769 0.0
Cd183 Cd 0.06022 0.28478 0.81988 0.0
Cd184 Cd 0.08717 0.30236 0.79882 0.0
O185 O 0.07353 0.28664 0.77808 0.0
O186 O 0.0339 0.28502 0.83024 0.0
O187 O 0.04667 0.30902 0.81368 0.0
C188 C 0.03199 0.30158 0.8222 0.0
C189 C 0.10308 0.32982 0.7882 0.0
C190 C 0.0656 0.27055 0.78079 0.0
C191 C 0.09757 0.28472 0.83723 0.0
O192 O 0.10274 0.28922 0.82039 0.0
O193 O 0.07996 0.28414 0.84154 0.0
O194 O 0.10885 0.31291 0.78382 0.0
O195 O 0.08751 0.33133 0.79806 0.0
O196 O 0.72552 0.06158 0.79635 0.0
Cd197 Cd 0.70594 0.06056 0.81865 0.0
Cd198 Cd 0.68872 0.08764 0.79805 0.0
O199 O 0.70408 0.07412 0.77699 0.0
O200 O 0.70554 0.0343 0.82911 0.0
O201 O 0.68155 0.04714 0.81257 0.0
C202 C 0.68892 0.03247 0.82116 0.0
C203 C 0.66081 0.10318 0.78822 0.0
C204 C 0.72006 0.06589 0.77952 0.0
C205 C 0.70661 0.09788 0.83623 0.0
O206 O 0.70221 0.1032 0.8194 0.0
O207 O 0.70692 0.08024 0.8404 0.0
O208 O 0.67753 0.10917 0.78338 0.0
O209 O 0.65975 0.08758 0.79807 0.0
O210 O 0.92873 0.72687 0.79356 0.0
Cd211 Cd 0.92896 0.70816 0.81661 0.0
Cd212 Cd 0.90275 0.68991 0.79547 0.0
O213 O 0.91653 0.70503 0.77442 0.0
O214 O 0.9549 0.70785 0.82792 0.0
O215 O 0.94226 0.68345 0.81185 0.0
C216 C 0.95675 0.69094 0.82065 0.0
C217 C 0.88794 0.6615 0.78594 0.0
C218 C 0.92476 0.72104 0.77677 0.0
C219 C 0.89095 0.70883 0.83277 0.0
O220 O 0.8863 0.70363 0.81597 0.0
O221 O 0.90843 0.70977 0.83752 0.0
O222 O 0.88181 0.67797 0.78052 0.0
O223 O 0.90331 0.66096 0.79621 0.0
O224 O 0.19785 0.26459 0.06466 0.0
Cd225 Cd 0.17484 0.28327 0.06362 0.0
Cd226 Cd 0.19522 0.3025 0.08856 0.0
O227 O 0.21683 0.28698 0.07602 0.0
O228 O 0.16357 0.28298 0.0376 0.0
O229 O 0.17988 0.3075 0.04965 0.0
C230 C 0.17103 0.29976 0.03534 0.0
C231 C 0.20145 0.33396 0.09745 0.0
C232 C 0.2146 0.27059 0.06853 0.0
C233 C 0.15873 0.28431 0.10192 0.0
O234 O 0.1756 0.28941 0.10652 0.0
O235 O 0.15413 0.28277 0.08442 0.0
O236 O 0.20953 0.3198 0.10602 0.0
O237 O 0.19026 0.33037 0.08318 0.0
O238 O 0.19866 0.72722 0.92841 0.0
Cd239 Cd 0.17598 0.70809 0.92866 0.0
Cd240 Cd 0.19662 0.69084 0.90117 0.0
O241 O 0.21772 0.70632 0.91453 0.0
O242 O 0.1651 0.70728 0.95475 0.0
O243 O 0.18127 0.68326 0.94153 0.0
C244 C 0.17255 0.69041 0.95623 0.0
C245 C 0.20637 0.66269 0.88602 0.0
C246 C 0.21538 0.72189 0.92356 0.0
C247 C 0.15839 0.70893 0.89115 0.0
O248 O 0.17504 0.70403 0.88569 0.0
O249 O 0.15444 0.70976 0.90883 0.0
O250 O 0.21113 0.6793 0.87969 0.0
O251 O 0.19663 0.6619 0.90172 0.0
O252 O 0.26376 0.19557 0.92936 0.0
Cd253 Cd 0.28324 0.17321 0.93016 0.0
Cd254 Cd 0.30074 0.19415 0.90286 0.0
O255 O 0.28499 0.21491 0.9164 0.0
O256 O 0.28397 0.16275 0.95644 0.0
O257 O 0.30782 0.17919 0.94323 0.0
C258 C 0.30065 0.17063 0.95801 0.0
C259 C 0.32826 0.20484 0.88713 0.0
C260 C 0.26914 0.21238 0.9249 0.0
C261 C 0.28308 0.15564 0.89273 0.0
O262 O 0.28781 0.17237 0.88741 0.0
O263 O 0.28221 0.15157 0.91038 0.0
O264 O 0.31136 0.20906 0.88117 0.0
O265 O 0.3297 0.19507 0.90275 0.0
O266 O 0.79516 0.26465 0.92796 0.0
Cd267 Cd 0.81708 0.28464 0.92802 0.0
Cd268 Cd 0.79605 0.30073 0.90068 0.0
O269 O 0.77539 0.28521 0.9146 0.0
O270 O 0.8273 0.28717 0.95427 0.0
O271 O 0.81018 0.30968 0.93965 0.0
C272 C 0.81883 0.30362 0.95487 0.0
C273 C 0.78571 0.32838 0.88503 0.0
C274 C 0.77823 0.26963 0.92345 0.0
C275 C 0.83448 0.28321 0.89063 0.0
O276 O 0.81759 0.28738 0.88529 0.0
O277 O 0.83874 0.28326 0.90825 0.0
O278 O 0.78112 0.31156 0.87912 0.0
O279 O 0.79563 0.32966 0.90057 0.0
O280 O 0.73 0.80155 0.92987 0.0
Cd281 Cd 0.71368 0.82544 0.93382 0.0
Cd282 Cd 0.68584 0.8062 0.9093 0.0
O283 O 0.70564 0.78552 0.91766 0.0
O284 O 0.71446 0.83425 0.96072 0.0
O285 O 0.68906 0.82065 0.94711 0.0
C286 C 0.69721 0.82765 0.96221 0.0
C287 C 0.66063 0.7924 0.89195 0.0
C288 C 0.72259 0.78594 0.92429 0.0
C289 C 0.70307 0.84708 0.90053 0.0
O290 O 0.69168 0.83315 0.89774 0.0
O291 O 0.71481 0.84697 0.91434 0.0
O292 O 0.67768 0.79362 0.88519 0.0
O293 O 0.65771 0.7987 0.90907 0.0
O294 O 0.79629 0.72379 0.06177 0.0
Cd295 Cd 0.81828 0.70399 0.05952 0.0
Cd296 Cd 0.79739 0.68636 0.08641 0.0
O297 O 0.77652 0.70194 0.07282 0.0
O298 O 0.82822 0.7048 0.03303 0.0
O299 O 0.8116 0.68044 0.04499 0.0
C300 C 0.81987 0.68849 0.03049 0.0
C301 C 0.78706 0.65893 0.10256 0.0
C302 C 0.77934 0.71831 0.06553 0.0
C303 C 0.83583 0.70386 0.09669 0.0
O304 O 0.81887 0.6998 0.10187 0.0
O305 O 0.8402 0.70397 0.07908 0.0
O306 O 0.78254 0.67584 0.1082 0.0
O307 O 0.79687 0.65739 0.08696 0.0
O308 O 0.26525 0.79287 0.06327 0.0
Cd309 Cd 0.28455 0.81541 0.0633 0.0
Cd310 Cd 0.3012 0.79439 0.09089 0.0
O311 O 0.28603 0.77351 0.0769 0.0
O312 O 0.28536 0.8265 0.03729 0.0
O313 O 0.30934 0.81009 0.05029 0.0
C314 C 0.30217 0.81893 0.03567 0.0
C315 C 0.32884 0.78435 0.10679 0.0
C316 C 0.2705 0.77606 0.06785 0.0
C317 C 0.28309 0.83255 0.10097 0.0
O318 O 0.28759 0.81576 0.10631 0.0
O319 O 0.28287 0.83677 0.08333 0.0
O320 O 0.31202 0.77958 0.11254 0.0
O321 O 0.33015 0.79427 0.09124 0.0
O322 O 0.73209 0.20061 0.06673 0.0
Cd323 Cd 0.71349 0.17751 0.06516 0.0
Cd324 Cd 0.6944 0.19717 0.09284 0.0
O325 O 0.7103 0.21864 0.08068 0.0
O326 O 0.71356 0.16725 0.03876 0.0
O327 O 0.68886 0.18256 0.05173 0.0
C328 C 0.69651 0.17424 0.03705 0.0
C329 C 0.66611 0.20693 0.10781 0.0
C330 C 0.72621 0.21699 0.07208 0.0
C331 C 0.71274 0.15875 0.10222 0.0
O332 O 0.70698 0.17501 0.10797 0.0
O333 O 0.71483 0.15548 0.08451 0.0
O334 O 0.68269 0.21116 0.11458 0.0
O335 O 0.66544 0.19766 0.09183 0.0
O336 O 0.92984 0.76335 0.69346 0.0
Cd337 Cd 0.93106 0.78253 0.67086 0.0
Cd338 Cd 0.90489 0.80137 0.692 0.0
O339 O 0.91832 0.78546 0.7127 0.0
O340 O 0.95735 0.78291 0.66039 0.0
O341 O 0.94437 0.80696 0.67672 0.0
C342 C 0.9591 0.79959 0.66822 0.0
C343 C 0.88974 0.82913 0.70296 0.0
C344 C 0.92598 0.76919 0.71026 0.0
C345 C 0.8935 0.78341 0.65389 0.0
O346 O 0.88869 0.78866 0.67063 0.0
O347 O 0.91102 0.78184 0.64947 0.0
O348 O 0.88365 0.81232 0.7073 0.0
O349 O 0.90519 0.83035 0.69288 0.0
O350 O 0.22706 0.92755 0.69482 0.0
Cd351 Cd 0.20747 0.92928 0.67256 0.0
Cd352 Cd 0.18937 0.90223 0.69349 0.0
O353 O 0.20547 0.91535 0.71426 0.0
O354 O 0.20772 0.95563 0.66224 0.0
O355 O 0.18342 0.94325 0.67865 0.0
C356 C 0.19111 0.95778 0.67012 0.0
C357 C 0.16189 0.8865 0.70433 0.0
C358 C 0.22162 0.92322 0.71164 0.0
C359 C 0.20664 0.89202 0.65479 0.0
O360 O 0.20197 0.88672 0.67156 0.0
O361 O 0.20776 0.90965 0.65075 0.0
O362 O 0.17881 0.88049 0.70836 0.0
O363 O 0.1604 0.9022 0.69469 0.0
O364 O 0.06225 0.22619 0.69854 0.0
Cd365 Cd 0.06212 0.20692 0.67597 0.0
Cd366 Cd 0.08934 0.18999 0.69702 0.0
O367 O 0.07558 0.20529 0.71798 0.0
O368 O 0.03611 0.20622 0.66484 0.0
O369 O 0.04904 0.18217 0.68119 0.0
C370 C 0.03445 0.18939 0.67233 0.0
C371 C 0.10484 0.16202 0.70681 0.0
C372 C 0.06679 0.22096 0.71538 0.0
C373 C 0.09984 0.20832 0.65907 0.0
O374 O 0.10502 0.20364 0.67587 0.0
O375 O 0.08224 0.20864 0.65469 0.0
O376 O 0.11079 0.1787 0.7118 0.0
O377 O 0.0893 0.16103 0.69684 0.0
O378 O 0.76368 0.06133 0.69688 0.0
Cd379 Cd 0.78298 0.06042 0.67436 0.0
Cd380 Cd 0.80078 0.08732 0.69506 0.0
O381 O 0.78508 0.07416 0.71611 0.0
O382 O 0.78368 0.03414 0.6639 0.0
O383 O 0.80762 0.0474 0.68016 0.0
C384 C 0.80042 0.03261 0.67163 0.0
C385 C 0.829 0.1023 0.70494 0.0
C386 C 0.76914 0.06583 0.71366 0.0
C387 C 0.78276 0.09785 0.65691 0.0
O388 O 0.78766 0.10308 0.67363 0.0
O389 O 0.78182 0.08023 0.65275 0.0
O390 O 0.8124 0.10867 0.7097 0.0
O391 O 0.82975 0.08665 0.69513 0.0
O392 O 0.9284 0.22502 0.29486 0.0
Cd393 Cd 0.92953 0.20601 0.31763 0.0
Cd394 Cd 0.90271 0.18783 0.29671 0.0
O395 O 0.91657 0.20298 0.27574 0.0
O396 O 0.95569 0.20647 0.32841 0.0
O397 O 0.94356 0.1818 0.31236 0.0
C398 C 0.95798 0.18971 0.3209 0.0
C399 C 0.88679 0.16029 0.28637 0.0
C400 C 0.92448 0.21914 0.27808 0.0
C401 C 0.89195 0.20631 0.33463 0.0
O402 O 0.88692 0.20141 0.31785 0.0
O403 O 0.90952 0.20707 0.33906 0.0
O404 O 0.88113 0.17715 0.28168 0.0
O405 O 0.90224 0.15887 0.29642 0.0
O406 O 0.7642 0.92876 0.29824 0.0
Cd407 Cd 0.78335 0.92988 0.32088 0.0
Cd408 Cd 0.80176 0.90351 0.29975 0.0
O409 O 0.7863 0.91731 0.27895 0.0
O410 O 0.78344 0.95608 0.33153 0.0
O411 O 0.80773 0.94343 0.31528 0.0
C412 C 0.80015 0.95803 0.32382 0.0
C413 C 0.82942 0.88789 0.28921 0.0
C414 C 0.77005 0.92501 0.28141 0.0
C415 C 0.78346 0.89229 0.33766 0.0
O416 O 0.78844 0.88746 0.32084 0.0
O417 O 0.78247 0.90981 0.34222 0.0
O418 O 0.81258 0.88213 0.28454 0.0
O419 O 0.83076 0.90329 0.29934 0.0
O420 O 0.0625 0.76405 0.29304 0.0
Cd421 Cd 0.06166 0.78277 0.31606 0.0
Cd422 Cd 0.08841 0.80117 0.29539 0.0
O423 O 0.0751 0.78588 0.27415 0.0
O424 O 0.03556 0.78251 0.327 0.0
O425 O 0.04793 0.80723 0.31122 0.0
C426 C 0.03348 0.79943 0.3198 0.0
C427 C 0.10344 0.82947 0.28583 0.0
C428 C 0.06683 0.76987 0.27634 0.0
C429 C 0.09934 0.78247 0.3331 0.0
O430 O 0.1044 0.78771 0.31643 0.0
O431 O 0.08175 0.78135 0.33739 0.0
O432 O 0.10969 0.81293 0.28077 0.0
O433 O 0.08787 0.83014 0.29577 0.0
O434 O 0.2268 0.0634 0.29433 0.0
Cd435 Cd 0.20733 0.06269 0.31672 0.0
Cd436 Cd 0.19026 0.09044 0.29592 0.0
O437 O 0.206 0.07709 0.27502 0.0
O438 O 0.20694 0.03651 0.32744 0.0
O439 O 0.18281 0.04931 0.3111 0.0
C440 C 0.19018 0.03471 0.31979 0.0
C441 C 0.16263 0.10622 0.28561 0.0
C442 C 0.22165 0.06825 0.27756 0.0
C443 C 0.20782 0.10008 0.33455 0.0
O444 O 0.20323 0.10563 0.31785 0.0
O445 O 0.20849 0.08238 0.33844 0.0
O446 O 0.17948 0.11225 0.28132 0.0
O447 O 0.16129 0.09048 0.2952 0.0
O448 O 0.69783 0.92737 0.76553 0.0
Cd449 Cd 0.6746 0.92819 0.78395 0.0
Cd450 Cd 0.6952 0.90376 0.80344 0.0
O451 O 0.71682 0.91666 0.78824 0.0
O452 O 0.66303 0.95408 0.78357 0.0
O453 O 0.67923 0.94218 0.80824 0.0
C454 C 0.67033 0.95641 0.80043 0.0
C455 C 0.70099 0.8949 0.835 0.0
C456 C 0.71459 0.92387 0.77173 0.0
C457 C 0.65934 0.88962 0.78464 0.0
O458 O 0.67626 0.88541 0.7899 0.0
O459 O 0.6543 0.90699 0.78323 0.0
O460 O 0.70957 0.88659 0.82097 0.0
O461 O 0.68954 0.90891 0.83124 0.0
O462 O 0.06198 0.69462 0.76578 0.0
Cd463 Cd 0.06088 0.67232 0.78534 0.0
Cd464 Cd 0.08803 0.69347 0.80286 0.0
O465 O 0.07419 0.71413 0.78726 0.0
O466 O 0.03464 0.66174 0.7855 0.0
O467 O 0.04724 0.67826 0.80962 0.0
C468 C 0.03265 0.66963 0.80212 0.0
C469 C 0.10428 0.70442 0.82999 0.0
C470 C 0.0661 0.71148 0.77124 0.0
C471 C 0.09832 0.65501 0.78516 0.0
O472 O 0.10352 0.67183 0.78972 0.0
O473 O 0.08071 0.65073 0.78455 0.0
O474 O 0.10983 0.7086 0.81295 0.0
O475 O 0.08876 0.69455 0.83181 0.0
O476 O 0.29671 0.0619 0.76537 0.0
Cd477 Cd 0.31914 0.06069 0.78475 0.0
Cd478 Cd 0.29782 0.0871 0.80293 0.0
O479 O 0.27713 0.07341 0.78719 0.0
O480 O 0.32992 0.03454 0.78456 0.0
O481 O 0.31345 0.04678 0.8089 0.0
C482 C 0.32212 0.03233 0.80119 0.0
C483 C 0.28712 0.1026 0.8306 0.0
C484 C 0.27981 0.06572 0.77097 0.0
C485 C 0.33591 0.0983 0.78499 0.0
O486 O 0.31904 0.10315 0.7898 0.0
O487 O 0.34049 0.08079 0.78409 0.0
O488 O 0.28257 0.10845 0.81376 0.0
O489 O 0.29721 0.08718 0.83192 0.0
O490 O 0.92863 0.29326 0.76293 0.0
Cd491 Cd 0.92889 0.31614 0.78182 0.0
Cd492 Cd 0.90201 0.29526 0.79973 0.0
O493 O 0.91556 0.27422 0.78436 0.0
O494 O 0.95492 0.32721 0.78251 0.0
O495 O 0.94182 0.31117 0.80669 0.0
C496 C 0.95647 0.31992 0.79945 0.0
C497 C 0.88686 0.28535 0.82786 0.0
C498 C 0.92417 0.27653 0.76854 0.0
C499 C 0.89114 0.33304 0.7811 0.0
O500 O 0.88606 0.31638 0.78633 0.0
O501 O 0.90872 0.33735 0.78006 0.0
O502 O 0.88073 0.28041 0.81123 0.0
O503 O 0.90236 0.2954 0.82871 0.0
O504 O 0.69414 0.06101 0.22576 0.0
Cd505 Cd 0.67199 0.06003 0.20605 0.0
Cd506 Cd 0.69382 0.08673 0.18838 0.0
O507 O 0.71402 0.07238 0.20415 0.0
O508 O 0.66122 0.03389 0.20579 0.0
O509 O 0.67804 0.04639 0.18183 0.0
C510 C 0.66928 0.03185 0.18926 0.0
C511 C 0.70578 0.10335 0.16188 0.0
C512 C 0.71113 0.06464 0.22031 0.0
C513 C 0.65532 0.09764 0.20596 0.0
O514 O 0.67224 0.10249 0.20134 0.0
O515 O 0.65068 0.08014 0.20667 0.0
O516 O 0.70959 0.10845 0.17913 0.0
O517 O 0.69566 0.08808 0.15946 0.0
O518 O 0.92856 0.69623 0.2254 0.0
Cd519 Cd 0.92955 0.67369 0.20613 0.0
Cd520 Cd 0.90266 0.69421 0.18855 0.0
O521 O 0.91572 0.71549 0.20405 0.0
O522 O 0.95583 0.66322 0.20561 0.0
O523 O 0.94268 0.67935 0.18152 0.0
C524 C 0.95744 0.67085 0.18884 0.0
C525 C 0.8877 0.70336 0.16006 0.0
C526 C 0.924 0.71301 0.22002 0.0
C527 C 0.89216 0.65632 0.20693 0.0
O528 O 0.88692 0.67306 0.20213 0.0
O529 O 0.90979 0.65208 0.20749 0.0
O530 O 0.88134 0.70856 0.17653 0.0
O531 O 0.90338 0.69357 0.15958 0.0
O532 O 0.29425 0.92834 0.22725 0.0
Cd533 Cd 0.31688 0.92866 0.20803 0.0
Cd534 Cd 0.29582 0.90143 0.19085 0.0
O535 O 0.27491 0.91538 0.20602 0.0
O536 O 0.32787 0.95473 0.20758 0.0
O537 O 0.31157 0.94196 0.18341 0.0
C538 C 0.3203 0.95654 0.19079 0.0
C539 C 0.28573 0.88566 0.16314 0.0
C540 C 0.27743 0.92401 0.22179 0.0
C541 C 0.33381 0.89097 0.20924 0.0
O542 O 0.31701 0.88582 0.20453 0.0
O543 O 0.33821 0.90856 0.20959 0.0
O544 O 0.28091 0.87989 0.17993 0.0
O545 O 0.29576 0.90114 0.16189 0.0
O546 O 0.06265 0.29892 0.22813 0.0
Cd547 Cd 0.06089 0.32117 0.20856 0.0
Cd548 Cd 0.0885 0.30044 0.19061 0.0
O549 O 0.07503 0.27971 0.20644 0.0
O550 O 0.03423 0.33071 0.2079 0.0
O551 O 0.04782 0.31438 0.1842 0.0
C552 C 0.03278 0.32249 0.19138 0.0
C553 C 0.1052 0.28946 0.16378 0.0
C554 C 0.06698 0.28215 0.22252 0.0
C555 C 0.09793 0.33947 0.20779 0.0
O556 O 0.10342 0.32276 0.20316 0.0
O557 O 0.08023 0.34329 0.20894 0.0
O558 O 0.1108 0.28576 0.18091 0.0
O559 O 0.08937 0.29879 0.16171 0.0
O560 O 0.76086 0.7002 0.92467 0.0
Cd561 Cd 0.77926 0.67692 0.92609 0.0
Cd562 Cd 0.79855 0.69667 0.89855 0.0
O563 O 0.78285 0.71815 0.91095 0.0
O564 O 0.77901 0.66645 0.95241 0.0
O565 O 0.80389 0.68164 0.93966 0.0
C566 C 0.7961 0.67328 0.95425 0.0
C567 C 0.82677 0.70647 0.88348 0.0
C568 C 0.76691 0.71656 0.9195 0.0
C569 C 0.77987 0.65847 0.88886 0.0
O570 O 0.78578 0.67473 0.88326 0.0
O571 O 0.77775 0.65506 0.90655 0.0
O572 O 0.81016 0.71079 0.87684 0.0
O573 O 0.82753 0.69707 0.89938 0.0
O574 O 0.76388 0.30164 0.06162 0.0
Cd575 Cd 0.78041 0.32538 0.05761 0.0
Cd576 Cd 0.80806 0.30605 0.08213 0.0
O577 O 0.78808 0.28545 0.07395 0.0
O578 O 0.77959 0.33418 0.03072 0.0
O579 O 0.80495 0.32041 0.04423 0.0
C580 C 0.7968 0.32748 0.02917 0.0
C581 C 0.83341 0.29221 0.09923 0.0
C582 C 0.77114 0.28599 0.06731 0.0
C583 C 0.79108 0.34701 0.09092 0.0
O584 O 0.80235 0.333 0.09377 0.0
O585 O 0.77941 0.34698 0.07705 0.0
O586 O 0.81642 0.29343 0.10613 0.0
O587 O 0.83618 0.29852 0.08208 0.0
O588 O 0.69772 0.76413 0.06319 0.0
Cd589 Cd 0.67605 0.78441 0.06304 0.0
Cd590 Cd 0.69682 0.80003 0.09089 0.0
O591 O 0.71749 0.78415 0.07736 0.0
O592 O 0.66613 0.78716 0.0367 0.0
O593 O 0.68335 0.80942 0.05159 0.0
C594 C 0.67475 0.80353 0.03627 0.0
C595 C 0.70721 0.82769 0.10646 0.0
C596 C 0.71461 0.76877 0.06816 0.0
C597 C 0.65791 0.78318 0.10017 0.0
O598 O 0.67473 0.78713 0.10589 0.0
O599 O 0.65407 0.78319 0.08244 0.0
O600 O 0.71148 0.81089 0.11263 0.0
O601 O 0.6976 0.82894 0.09071 0.0
O602 O 0.22727 0.69339 0.06143 0.0
Cd603 Cd 0.20798 0.6709 0.06001 0.0
Cd604 Cd 0.18917 0.69226 0.08587 0.0
O605 O 0.2051 0.7129 0.07236 0.0
O606 O 0.20794 0.66031 0.03378 0.0
O607 O 0.18374 0.67676 0.04635 0.0
C608 C 0.1913 0.66818 0.03177 0.0
C609 C 0.16133 0.70309 0.10097 0.0
C610 C 0.2215 0.71027 0.06504 0.0
C611 C 0.20714 0.65431 0.09763 0.0
O612 O 0.20205 0.67115 0.10226 0.0
O613 O 0.20848 0.64963 0.08016 0.0
O614 O 0.17811 0.70761 0.10702 0.0
O615 O 0.16017 0.69294 0.08557 0.0
O616 O 0.29768 0.22753 0.06341 0.0
Cd617 Cd 0.32011 0.20817 0.06164 0.0
Cd618 Cd 0.29957 0.18965 0.08851 0.0
O619 O 0.27856 0.20576 0.07578 0.0
O620 O 0.33012 0.20799 0.03517 0.0
O621 O 0.31395 0.18386 0.04819 0.0
C622 C 0.32227 0.19132 0.03341 0.0
C623 C 0.28917 0.16172 0.10376 0.0
C624 C 0.28094 0.22194 0.06791 0.0
C625 C 0.33807 0.20729 0.09879 0.0
O626 O 0.32142 0.20226 0.1041 0.0
O627 O 0.34202 0.20871 0.08115 0.0
O628 O 0.28494 0.17846 0.11011 0.0
O629 O 0.29876 0.16066 0.08799 0.0
O630 O 0.2259 0.29514 0.92991 0.0
Cd631 Cd 0.20657 0.31763 0.93105 0.0
Cd632 Cd 0.18866 0.29687 0.90456 0.0
O633 O 0.20406 0.27583 0.91804 0.0
O634 O 0.2064 0.3282 0.95728 0.0
O635 O 0.18222 0.31179 0.94462 0.0
C636 C 0.18974 0.32037 0.95923 0.0
C637 C 0.16052 0.28702 0.88942 0.0
C638 C 0.22022 0.27832 0.9259 0.0
C639 C 0.20685 0.33472 0.89356 0.0
O640 O 0.20213 0.31789 0.88854 0.0
O641 O 0.2075 0.33916 0.91113 0.0
O642 O 0.17715 0.28204 0.88331 0.0
O643 O 0.15968 0.29706 0.90492 0.0
O644 O 0.69614 0.22539 0.92981 0.0
Cd645 Cd 0.674 0.20578 0.93209 0.0
Cd646 Cd 0.69452 0.18786 0.90516 0.0
O647 O 0.71561 0.20343 0.91841 0.0
O648 O 0.66423 0.20651 0.95865 0.0
O649 O 0.68062 0.1821 0.94644 0.0
C650 C 0.67249 0.19012 0.96103 0.0
C651 C 0.70447 0.16008 0.88939 0.0
C652 C 0.71301 0.21978 0.92584 0.0
C653 C 0.65613 0.20551 0.89502 0.0
O654 O 0.673 0.20124 0.8897 0.0
O655 O 0.65196 0.20589 0.91267 0.0
O656 O 0.70911 0.17685 0.88343 0.0
O657 O 0.69476 0.15888 0.90508 0.0
O658 O 0.29846 0.76454 0.92992 0.0
Cd659 Cd 0.32104 0.78373 0.93148 0.0
Cd660 Cd 0.30006 0.8022 0.90472 0.0
O661 O 0.27922 0.7866 0.91831 0.0
O662 O 0.33146 0.78347 0.95779 0.0
O663 O 0.31535 0.80794 0.94532 0.0
C664 C 0.32378 0.80018 0.95989 0.0
C665 C 0.28919 0.82945 0.88859 0.0
C666 C 0.28166 0.77033 0.92596 0.0
C667 C 0.33832 0.78405 0.89409 0.0
O668 O 0.32158 0.78907 0.88904 0.0
O669 O 0.34264 0.78296 0.91167 0.0
O670 O 0.29909 0.83117 0.90411 0.0
O671 O 0.28496 0.81246 0.88298 0.0
O672 O 0.79722 0.56162 0.76428 0.0
Cd673 Cd 0.81947 0.56043 0.78387 0.0
Cd674 Cd 0.79786 0.58723 0.80183 0.0
O675 O 0.7775 0.57325 0.78592 0.0
O676 O 0.83018 0.53425 0.78385 0.0
O677 O 0.81357 0.54662 0.80803 0.0
C678 C 0.82227 0.53212 0.80044 0.0
C679 C 0.78612 0.60366 0.82857 0.0
C680 C 0.78029 0.56547 0.76976 0.0
C681 C 0.83642 0.59796 0.78425 0.0
O682 O 0.81957 0.60291 0.78903 0.0
O683 O 0.84089 0.58042 0.78328 0.0
O684 O 0.78232 0.60899 0.81139 0.0
O685 O 0.7961 0.58825 0.83078 0.0
O686 O 0.19666 0.42822 0.76544 0.0
Cd687 Cd 0.17412 0.42909 0.78474 0.0
Cd688 Cd 0.19487 0.40189 0.80231 0.0
O689 O 0.21591 0.41516 0.78668 0.0
O690 O 0.16341 0.45527 0.78491 0.0
O691 O 0.17969 0.44263 0.80917 0.0
C692 C 0.17105 0.4572 0.80166 0.0
C693 C 0.20478 0.38666 0.83038 0.0
C694 C 0.21344 0.42365 0.77083 0.0
C695 C 0.15659 0.39162 0.78444 0.0
O696 O 0.17333 0.38628 0.78916 0.0
O697 O 0.15251 0.40926 0.78365 0.0
O698 O 0.20949 0.38042 0.81371 0.0
O699 O 0.19501 0.40233 0.83127 0.0
O700 O 0.1948 0.56267 0.22683 0.0
Cd701 Cd 0.17278 0.56222 0.20693 0.0
Cd702 Cd 0.19366 0.58905 0.18999 0.0
O703 O 0.2144 0.57572 0.20591 0.0
O704 O 0.16289 0.53585 0.20425 0.0
O705 O 0.17992 0.5508 0.18188 0.0
C706 C 0.17143 0.53545 0.18783 0.0
C707 C 0.20391 0.60372 0.16179 0.0
C708 C 0.21168 0.56716 0.22169 0.0
C709 C 0.15524 0.59957 0.2073 0.0
O710 O 0.17207 0.60482 0.20281 0.0
O711 O 0.15106 0.58194 0.20797 0.0
O712 O 0.20851 0.61023 0.17838 0.0
O713 O 0.19401 0.58813 0.16106 0.0
O714 O 0.79643 0.42692 0.22611 0.0
Cd715 Cd 0.81963 0.4283 0.2077 0.0
Cd716 Cd 0.79923 0.40406 0.18781 0.0
O717 O 0.77755 0.41687 0.20302 0.0
O718 O 0.83079 0.45436 0.20835 0.0
O719 O 0.81469 0.44247 0.1836 0.0
C720 C 0.82335 0.45677 0.19156 0.0
C721 C 0.79337 0.39509 0.15628 0.0
C722 C 0.77969 0.42365 0.21973 0.0
C723 C 0.83512 0.38992 0.20656 0.0
O724 O 0.8182 0.38572 0.20132 0.0
O725 O 0.84014 0.40729 0.20807 0.0
O726 O 0.78485 0.38681 0.17035 0.0
O727 O 0.8048 0.40914 0.15997 0.0
O728 O 0.26375 0.56224 0.69536 0.0
Cd729 Cd 0.28297 0.56152 0.67275 0.0
Cd730 Cd 0.30084 0.58817 0.69376 0.0
O731 O 0.28544 0.57445 0.71466 0.0
O732 O 0.2836 0.53534 0.66208 0.0
O733 O 0.30759 0.54843 0.67842 0.0
C734 C 0.30034 0.5337 0.66982 0.0
C735 C 0.3288 0.60352 0.70387 0.0
C736 C 0.26941 0.56631 0.71218 0.0
C737 C 0.28251 0.59915 0.65588 0.0
O738 O 0.28738 0.60412 0.67268 0.0
O739 O 0.28176 0.5816 0.6514 0.0
O740 O 0.31209 0.60949 0.70875 0.0
O741 O 0.32982 0.58806 0.69378 0.0
O742 O 0.72638 0.42877 0.69312 0.0
Cd743 Cd 0.70705 0.42984 0.67063 0.0
Cd744 Cd 0.68885 0.40345 0.692 0.0
O745 O 0.70447 0.41732 0.71263 0.0
O746 O 0.70709 0.45597 0.65983 0.0
O747 O 0.68279 0.44359 0.67628 0.0
C748 C 0.69042 0.45808 0.66761 0.0
C749 C 0.66135 0.38778 0.70285 0.0
C750 C 0.72069 0.42503 0.71 0.0
C751 C 0.70685 0.3922 0.65394 0.0
O752 O 0.702 0.38739 0.6708 0.0
O753 O 0.70778 0.40971 0.64934 0.0
O754 O 0.67825 0.38207 0.70735 0.0
O755 O 0.65986 0.40315 0.69271 0.0
O756 O 0.2606 0.42411 0.2908 0.0
Cd757 Cd 0.27925 0.42556 0.31387 0.0
Cd758 Cd 0.29814 0.39813 0.29385 0.0
O759 O 0.28263 0.41095 0.27248 0.0
O760 O 0.27892 0.45186 0.32435 0.0
O761 O 0.30372 0.4393 0.30887 0.0
C762 C 0.2959 0.45384 0.31727 0.0
C763 C 0.32626 0.38281 0.28413 0.0
C764 C 0.2666 0.4193 0.2743 0.0
C765 C 0.27957 0.38828 0.33199 0.0
O766 O 0.28504 0.38276 0.31555 0.0
O767 O 0.27798 0.40596 0.33568 0.0
O768 O 0.30961 0.37644 0.27957 0.0
O769 O 0.32712 0.39861 0.29368 0.0
O770 O 0.72637 0.5615 0.29594 0.0
Cd771 Cd 0.70666 0.5603 0.31808 0.0
Cd772 Cd 0.68902 0.58718 0.29686 0.0
O773 O 0.70494 0.57356 0.27626 0.0
O774 O 0.70633 0.53401 0.3285 0.0
O775 O 0.68242 0.54678 0.3118 0.0
C776 C 0.6898 0.53211 0.32039 0.0
C777 C 0.66155 0.60286 0.28593 0.0
C778 C 0.721 0.56557 0.27903 0.0
C779 C 0.70637 0.59772 0.33541 0.0
O780 O 0.70184 0.60285 0.31855 0.0
O781 O 0.70717 0.58012 0.33969 0.0
O782 O 0.67847 0.60875 0.28173 0.0
O783 O 0.66005 0.5873 0.2958 0.0
O784 O 0.19316 0.76432 0.56143 0.0
Cd785 Cd 0.17043 0.78337 0.5602 0.0
Cd786 Cd 0.19155 0.80208 0.58636 0.0
O787 O 0.21241 0.78655 0.57269 0.0
O788 O 0.15984 0.78345 0.53396 0.0
O789 O 0.17601 0.80775 0.54669 0.0
C790 C 0.16752 0.80018 0.53205 0.0
C791 C 0.20211 0.82983 0.60183 0.0
C792 C 0.20997 0.77023 0.56515 0.0
C793 C 0.15376 0.78359 0.59783 0.0
O794 O 0.17055 0.78877 0.60255 0.0
O795 O 0.14913 0.78243 0.58033 0.0
O796 O 0.20679 0.81302 0.60766 0.0
O797 O 0.19194 0.83108 0.58645 0.0
O798 O 0.19483 0.2259 0.43046 0.0
Cd799 Cd 0.17218 0.20677 0.43149 0.0
Cd800 Cd 0.19337 0.18873 0.40474 0.0
O801 O 0.21419 0.20402 0.41871 0.0
O802 O 0.16133 0.20706 0.45761 0.0
O803 O 0.17752 0.18252 0.44538 0.0
C804 C 0.16891 0.19033 0.45982 0.0
C805 C 0.20391 0.16133 0.38866 0.0
C806 C 0.21168 0.22017 0.4266 0.0
C807 C 0.1554 0.20713 0.39386 0.0
O808 O 0.17223 0.20228 0.38893 0.0
O809 O 0.15084 0.20781 0.4114 0.0
O810 O 0.20853 0.17825 0.38314 0.0
O811 O 0.19382 0.15975 0.40407 0.0
O812 O 0.26348 0.69432 0.42968 0.0
Cd813 Cd 0.28254 0.67161 0.43106 0.0
Cd814 Cd 0.30103 0.69213 0.40458 0.0
O815 O 0.28553 0.71335 0.4177 0.0
O816 O 0.28267 0.66127 0.45739 0.0
O817 O 0.30699 0.67727 0.44449 0.0
C818 C 0.29944 0.6689 0.45919 0.0
C819 C 0.32931 0.70183 0.38958 0.0
C820 C 0.2693 0.71106 0.42551 0.0
C821 C 0.28264 0.65427 0.39367 0.0
O822 O 0.28771 0.67098 0.3886 0.0
O823 O 0.28154 0.65001 0.41126 0.0
O824 O 0.31274 0.70677 0.38329 0.0
O825 O 0.33001 0.69192 0.40517 0.0
O826 O 0.79423 0.76306 0.42946 0.0
Cd827 Cd 0.81695 0.78215 0.43016 0.0
Cd828 Cd 0.79614 0.80024 0.40351 0.0
O829 O 0.7751 0.78459 0.4167 0.0
O830 O 0.82767 0.78288 0.45634 0.0
O831 O 0.81147 0.80689 0.44314 0.0
C832 C 0.8201 0.7997 0.45787 0.0
C833 C 0.78613 0.82849 0.38872 0.0
C834 C 0.77747 0.76864 0.42503 0.0
C835 C 0.83408 0.78196 0.39253 0.0
O836 O 0.81738 0.78713 0.38748 0.0
O837 O 0.83836 0.78079 0.41011 0.0
O838 O 0.78134 0.81192 0.38232 0.0
O839 O 0.79609 0.82919 0.40428 0.0
O840 O 0.72604 0.29695 0.42862 0.0
Cd841 Cd 0.70671 0.31944 0.42995 0.0
Cd842 Cd 0.68827 0.29833 0.40383 0.0
O843 O 0.70398 0.27751 0.41733 0.0
O844 O 0.70648 0.32988 0.45627 0.0
O845 O 0.68239 0.31345 0.44347 0.0
C846 C 0.68987 0.32194 0.45816 0.0
C847 C 0.66024 0.28799 0.38875 0.0
C848 C 0.7203 0.28009 0.42486 0.0
C849 C 0.70635 0.33621 0.39234 0.0
O850 O 0.70145 0.31935 0.38758 0.0
O851 O 0.70736 0.34083 0.40985 0.0
O852 O 0.67693 0.28321 0.38266 0.0
O853 O 0.65927 0.2981 0.40419 0.0
O854 O 0.79533 0.22487 0.56234 0.0
Cd855 Cd 0.81774 0.20544 0.56111 0.0
Cd856 Cd 0.79678 0.18765 0.5882 0.0
O857 O 0.77594 0.20336 0.57472 0.0
O858 O 0.82833 0.20562 0.53488 0.0
O859 O 0.81194 0.18128 0.5472 0.0
C860 C 0.82054 0.18899 0.5327 0.0
C861 C 0.78626 0.16006 0.60391 0.0
C862 C 0.7785 0.21938 0.56659 0.0
C863 C 0.83521 0.20529 0.59854 0.0
O864 O 0.81842 0.20066 0.60379 0.0
O865 O 0.83938 0.20611 0.58091 0.0
O866 O 0.78188 0.17691 0.60984 0.0
O867 O 0.79607 0.15869 0.5883 0.0
O868 O 0.26437 0.29857 0.56166 0.0
Cd869 Cd 0.28373 0.32101 0.5602 0.0
Cd870 Cd 0.30234 0.29989 0.58644 0.0
O871 O 0.28641 0.27916 0.57305 0.0
O872 O 0.28403 0.33134 0.53386 0.0
O873 O 0.30809 0.31497 0.5468 0.0
C874 C 0.30067 0.32344 0.53207 0.0
C875 C 0.33004 0.28902 0.6018 0.0
C876 C 0.27009 0.28172 0.56553 0.0
C877 C 0.28442 0.33805 0.59766 0.0
O878 O 0.2895 0.32127 0.60252 0.0
O879 O 0.28311 0.3425 0.58014 0.0
O880 O 0.31319 0.28469 0.60781 0.0
O881 O 0.33134 0.29902 0.58632 0.0
O882 O 0.72676 0.69747 0.56169 0.0
Cd883 Cd 0.70782 0.67462 0.56114 0.0
Cd884 Cd 0.68987 0.69537 0.58807 0.0
O885 O 0.70531 0.71649 0.57475 0.0
O886 O 0.70739 0.6637 0.53505 0.0
O887 O 0.68307 0.67967 0.54799 0.0
C888 C 0.69047 0.67101 0.53337 0.0
C889 C 0.66177 0.70524 0.6033 0.0
C890 C 0.72118 0.71419 0.56624 0.0
C891 C 0.7085 0.65752 0.59876 0.0
O892 O 0.70327 0.67416 0.6039 0.0
O893 O 0.70951 0.65326 0.58117 0.0
O894 O 0.67842 0.71007 0.60946 0.0
O895 O 0.66088 0.69534 0.58772 0.0
O896 O 0.22868 0.43032 0.18981 0.0
Cd897 Cd 0.2122 0.43386 0.16593 0.0
Cd898 Cd 0.18515 0.40912 0.18498 0.0
O899 O 0.20479 0.41725 0.20587 0.0
O900 O 0.21232 0.46074 0.15709 0.0
O901 O 0.18726 0.44655 0.17073 0.0
C902 C 0.19505 0.46182 0.16369 0.0
C903 C 0.15895 0.39285 0.19824 0.0
C904 C 0.22157 0.42431 0.20541 0.0
C905 C 0.20292 0.39999 0.14455 0.0
O906 O 0.19168 0.39685 0.15853 0.0
O907 O 0.21391 0.41438 0.1444 0.0
O908 O 0.17584 0.38559 0.19779 0.0
O909 O 0.15678 0.40992 0.1915 0.0
O910 O 0.76552 0.56109 0.19685 0.0
Cd911 Cd 0.78519 0.56041 0.17463 0.0
Cd912 Cd 0.80187 0.58798 0.19516 0.0
O913 O 0.78636 0.57462 0.2162 0.0
O914 O 0.78608 0.53418 0.16413 0.0
O915 O 0.80982 0.54741 0.18071 0.0
C916 C 0.80274 0.53265 0.17204 0.0
C917 C 0.82968 0.60361 0.20511 0.0
C918 C 0.77067 0.56586 0.21365 0.0
C919 C 0.78421 0.59767 0.15673 0.0
O920 O 0.78857 0.60324 0.17348 0.0
O921 O 0.78394 0.57997 0.15279 0.0
O922 O 0.81292 0.60968 0.20971 0.0
O923 O 0.83082 0.5879 0.19542 0.0
O924 O 0.76431 0.42826 0.79266 0.0
Cd925 Cd 0.78353 0.42849 0.81528 0.0
Cd926 Cd 0.8008 0.40124 0.79416 0.0
O927 O 0.78537 0.41501 0.77333 0.0
O928 O 0.78406 0.45448 0.8264 0.0
O929 O 0.80822 0.4417 0.81008 0.0
C930 C 0.80089 0.45625 0.81892 0.0
C931 C 0.82852 0.38561 0.7839 0.0
C932 C 0.76967 0.42377 0.77585 0.0
C933 C 0.78265 0.39079 0.83229 0.0
O934 O 0.78746 0.3856 0.81553 0.0
O935 O 0.78199 0.4084 0.83658 0.0
O936 O 0.81172 0.3797 0.77925 0.0
O937 O 0.82976 0.40115 0.79382 0.0
O938 O 0.22667 0.56206 0.79523 0.0
Cd939 Cd 0.2077 0.56128 0.81805 0.0
Cd940 Cd 0.18947 0.58767 0.79706 0.0
O941 O 0.20476 0.57402 0.77603 0.0
O942 O 0.20769 0.53519 0.82899 0.0
O943 O 0.18324 0.54768 0.81287 0.0
C944 C 0.19088 0.53318 0.82151 0.0
C945 C 0.16127 0.60278 0.78728 0.0
C946 C 0.22088 0.56604 0.77843 0.0
C947 C 0.20812 0.59903 0.83465 0.0
O948 O 0.20308 0.60386 0.81786 0.0
O949 O 0.20897 0.58151 0.83925 0.0
O950 O 0.17787 0.60882 0.78214 0.0
O951 O 0.16048 0.58736 0.79743 0.0
O952 O 0.69626 0.42734 0.26223 0.0
Cd953 Cd 0.67353 0.4285 0.2813 0.0
Cd954 Cd 0.69405 0.40163 0.29981 0.0
O955 O 0.71517 0.41434 0.28383 0.0
O956 O 0.66303 0.45477 0.28159 0.0
O957 O 0.67905 0.44181 0.30585 0.0
C958 C 0.67053 0.45648 0.29842 0.0
C959 C 0.70399 0.38694 0.32819 0.0
C960 C 0.71293 0.42264 0.26783 0.0
C961 C 0.65583 0.39111 0.28178 0.0
O962 O 0.67242 0.38585 0.28707 0.0
O963 O 0.65188 0.40874 0.28023 0.0
O964 O 0.70859 0.38032 0.31164 0.0
O965 O 0.6943 0.40267 0.32878 0.0
O966 O 0.29406 0.5613 0.26559 0.0
Cd967 Cd 0.31632 0.55913 0.2851 0.0
Cd968 Cd 0.29578 0.58614 0.30323 0.0
O969 O 0.27472 0.57307 0.28748 0.0
O970 O 0.32631 0.53266 0.28428 0.0
O971 O 0.30999 0.5447 0.30881 0.0
C972 C 0.31825 0.5302 0.30075 0.0
C973 C 0.28555 0.60175 0.331 0.0
C974 C 0.27724 0.56546 0.2712 0.0
C975 C 0.33429 0.59627 0.28573 0.0
O976 O 0.31749 0.60163 0.29021 0.0
O977 O 0.33833 0.5786 0.28496 0.0
O978 O 0.28116 0.60785 0.31421 0.0
O979 O 0.2952 0.58603 0.33221 0.0
O980 O 0.69799 0.56208 0.72548 0.0
Cd981 Cd 0.67545 0.56173 0.70619 0.0
Cd982 Cd 0.69639 0.58923 0.68911 0.0
O983 O 0.71732 0.57571 0.70465 0.0
O984 O 0.66444 0.5357 0.7057 0.0
O985 O 0.68072 0.5485 0.68153 0.0
C986 C 0.67191 0.53394 0.68886 0.0
C987 C 0.70647 0.60487 0.66134 0.0
C988 C 0.71479 0.56681 0.72027 0.0
C989 C 0.65805 0.59927 0.70704 0.0
O990 O 0.67478 0.60465 0.70233 0.0
O991 O 0.65397 0.58162 0.70767 0.0
O992 O 0.71107 0.61088 0.67811 0.0
O993 O 0.69672 0.58921 0.66015 0.0
O994 O 0.29616 0.4291 0.7273 0.0
Cd995 Cd 0.31866 0.43034 0.70797 0.0
Cd996 Cd 0.29773 0.40401 0.68957 0.0
O997 O 0.27682 0.41704 0.70556 0.0
O998 O 0.32911 0.45663 0.70749 0.0
O999 O 0.31274 0.44359 0.6835 0.0
C1000 C 0.3213 0.45832 0.69079 0.0
C1001 C 0.28746 0.38926 0.66136 0.0
C1002 C 0.27934 0.42489 0.72173 0.0
C1003 C 0.33587 0.39286 0.70739 0.0
O1004 O 0.3191 0.38789 0.70236 0.0
O1005 O 0.34018 0.41042 0.70871 0.0
O1006 O 0.28284 0.38284 0.67797 0.0
O1007 O 0.29738 0.40484 0.6606 0.0
O1008 O 0.76364 0.19731 0.42809 0.0
Cd1009 Cd 0.78262 0.1745 0.4286 0.0
Cd1010 Cd 0.80036 0.19531 0.40156 0.0
O1011 O 0.78497 0.21643 0.41497 0.0
O1012 O 0.78274 0.16345 0.45464 0.0
O1013 O 0.80721 0.17948 0.44209 0.0
C1014 C 0.79963 0.17076 0.45658 0.0
C1015 C 0.8286 0.20491 0.38644 0.0
C1016 C 0.76915 0.21405 0.42356 0.0
C1017 C 0.7819 0.15744 0.39091 0.0
O1018 O 0.78689 0.17414 0.38574 0.0
O1019 O 0.78109 0.15318 0.40851 0.0
O1020 O 0.81202 0.20992 0.38022 0.0
O1021 O 0.82933 0.19501 0.40204 0.0
O1022 O 0.76423 0.79718 0.56253 0.0
Cd1023 Cd 0.78366 0.81959 0.56142 0.0
Cd1024 Cd 0.80203 0.79832 0.58758 0.0
O1025 O 0.78612 0.77768 0.57404 0.0
O1026 O 0.78406 0.83011 0.53515 0.0
O1027 O 0.808 0.8135 0.54799 0.0
C1028 C 0.80064 0.82207 0.5333 0.0
C1029 C 0.83003 0.78765 0.60246 0.0
C1030 C 0.7699 0.7803 0.56632 0.0
C1031 C 0.78434 0.83642 0.59907 0.0
O1032 O 0.78922 0.81957 0.60386 0.0
O1033 O 0.78313 0.84095 0.58155 0.0
O1034 O 0.81332 0.78308 0.60868 0.0
O1035 O 0.83101 0.79776 0.58702 0.0
O1036 O 0.69584 0.26305 0.56215 0.0
Cd1037 Cd 0.67327 0.28234 0.56146 0.0
Cd1038 Cd 0.69426 0.30016 0.58801 0.0
O1039 O 0.71521 0.28451 0.57467 0.0
O1040 O 0.66253 0.28309 0.53527 0.0
O1041 O 0.67896 0.30699 0.5484 0.0
C1042 C 0.67027 0.29983 0.53368 0.0
C1043 C 0.70426 0.32842 0.6028 0.0
C1044 C 0.71267 0.26853 0.56644 0.0
C1045 C 0.65634 0.28207 0.59915 0.0
O1046 O 0.67314 0.28698 0.60412 0.0
O1047 O 0.65191 0.28117 0.58158 0.0
O1048 O 0.70914 0.31186 0.60914 0.0
O1049 O 0.69424 0.32911 0.58728 0.0
O1050 O 0.22658 0.19899 0.56354 0.0
Cd1051 Cd 0.20747 0.17629 0.56354 0.0
Cd1052 Cd 0.19056 0.19718 0.59108 0.0
O1053 O 0.20577 0.2182 0.57733 0.0
O1054 O 0.20695 0.16505 0.53759 0.0
O1055 O 0.1827 0.18125 0.55035 0.0
C1056 C 0.19005 0.17238 0.53583 0.0
C1057 C 0.16259 0.20691 0.60659 0.0
C1058 C 0.22129 0.21576 0.56824 0.0
C1059 C 0.20883 0.15912 0.60124 0.0
O1060 O 0.20412 0.17585 0.60659 0.0
O1061 O 0.20927 0.15496 0.58359 0.0
O1062 O 0.17928 0.21183 0.61261 0.0
O1063 O 0.1616 0.19703 0.59099 0.0
O1064 O 0.29312 0.72743 0.56254 0.0
Cd1065 Cd 0.31584 0.70833 0.56224 0.0
Cd1066 Cd 0.29496 0.69068 0.58926 0.0
O1067 O 0.27399 0.70617 0.57574 0.0
O1068 O 0.32672 0.70751 0.53615 0.0
O1069 O 0.31047 0.68354 0.54934 0.0
C1070 C 0.31917 0.69069 0.53463 0.0
C1071 C 0.28496 0.66256 0.60431 0.0
C1072 C 0.27636 0.72192 0.56705 0.0
C1073 C 0.333 0.70893 0.5999 0.0
O1074 O 0.3163 0.7039 0.60509 0.0
O1075 O 0.3372 0.70988 0.58228 0.0
O1076 O 0.28016 0.67919 0.61056 0.0
O1077 O 0.29492 0.66173 0.58875 0.0
O1078 O 0.22625 0.79412 0.4284 0.0
Cd1079 Cd 0.20694 0.81666 0.42888 0.0
Cd1080 Cd 0.18964 0.79587 0.40136 0.0
O1081 O 0.2052 0.77496 0.4149 0.0
O1082 O 0.20612 0.82736 0.45505 0.0
O1083 O 0.18219 0.81107 0.44181 0.0
C1084 C 0.18932 0.81974 0.45655 0.0
C1085 C 0.16197 0.78556 0.38566 0.0
C1086 C 0.22088 0.77737 0.42371 0.0
C1087 C 0.20758 0.83426 0.39142 0.0
O1088 O 0.20277 0.81758 0.38599 0.0
O1089 O 0.20838 0.83825 0.40909 0.0
O1090 O 0.1788 0.78114 0.37966 0.0
O1091 O 0.16068 0.7953 0.40132 0.0
O1092 O 0.69439 0.72578 0.42855 0.0
Cd1093 Cd 0.67179 0.70656 0.42949 0.0
Cd1094 Cd 0.6929 0.68846 0.40306 0.0
O1095 O 0.71376 0.70391 0.41679 0.0
O1096 O 0.66106 0.70642 0.45566 0.0
O1097 O 0.67745 0.68221 0.44306 0.0
C1098 C 0.66884 0.68975 0.45764 0.0
C1099 C 0.70309 0.66049 0.3878 0.0
C1100 C 0.71124 0.72006 0.42468 0.0
C1101 C 0.655 0.70663 0.39184 0.0
O1102 O 0.67186 0.70181 0.38696 0.0
O1103 O 0.65046 0.70746 0.40937 0.0
O1104 O 0.70797 0.67719 0.38182 0.0
O1105 O 0.69296 0.65948 0.40323 0.0
O1106 O 0.29451 0.26357 0.42944 0.0
Cd1107 Cd 0.31701 0.2829 0.42943 0.0
Cd1108 Cd 0.29559 0.30008 0.40225 0.0
O1109 O 0.27503 0.28464 0.41645 0.0
O1110 O 0.32803 0.2841 0.45545 0.0
O1111 O 0.3115 0.30779 0.44208 0.0
C1112 C 0.32033 0.30087 0.45683 0.0
C1113 C 0.28455 0.32722 0.3861 0.0
C1114 C 0.27765 0.26894 0.42517 0.0
C1115 C 0.3338 0.28191 0.39168 0.0
O1116 O 0.31702 0.28679 0.38661 0.0
O1117 O 0.33823 0.28125 0.40926 0.0
O1118 O 0.28024 0.3102 0.38062 0.0
O1119 O 0.29464 0.32903 0.40149 0.0
O1120 O 0.56254 0.19589 0.76713 0.0
Cd1121 Cd 0.56108 0.17356 0.7866 0.0
Cd1122 Cd 0.58806 0.19422 0.80424 0.0
O1123 O 0.57493 0.21533 0.78858 0.0
O1124 O 0.53478 0.16313 0.78636 0.0
O1125 O 0.54717 0.17942 0.81074 0.0
C1126 C 0.53263 0.17092 0.80301 0.0
C1127 C 0.60345 0.20391 0.83235 0.0
C1128 C 0.56692 0.21272 0.7725 0.0
C1129 C 0.59838 0.15602 0.78633 0.0
O1130 O 0.60366 0.17282 0.79087 0.0
O1131 O 0.58074 0.15182 0.78582 0.0
O1132 O 0.6096 0.20874 0.8157 0.0
O1133 O 0.58776 0.19416 0.83324 0.0
O1134 O 0.43044 0.79431 0.76533 0.0
Cd1135 Cd 0.43181 0.81675 0.78472 0.0
Cd1136 Cd 0.40538 0.79585 0.80274 0.0
O1137 O 0.41864 0.77484 0.78708 0.0
O1138 O 0.45815 0.82714 0.78488 0.0
O1139 O 0.44539 0.81078 0.80902 0.0
C1140 C 0.46006 0.81926 0.80151 0.0
C1141 C 0.3903 0.78598 0.83092 0.0
C1142 C 0.42637 0.77746 0.77087 0.0
C1143 C 0.39429 0.83378 0.78469 0.0
O1144 O 0.38934 0.81694 0.78942 0.0
O1145 O 0.41185 0.83827 0.78395 0.0
O1146 O 0.38411 0.78106 0.81431 0.0
O1147 O 0.40587 0.79591 0.83173 0.0
O1148 O 0.56253 0.79577 0.22632 0.0
Cd1149 Cd 0.56122 0.81843 0.20721 0.0
Cd1150 Cd 0.58783 0.79737 0.18887 0.0
O1151 O 0.5739 0.77652 0.20415 0.0
O1152 O 0.53503 0.82914 0.20778 0.0
O1153 O 0.54706 0.81299 0.18313 0.0
C1154 C 0.53265 0.8215 0.1911 0.0
C1155 C 0.60374 0.78689 0.16135 0.0
C1156 C 0.56624 0.77896 0.22042 0.0
C1157 C 0.59882 0.8353 0.20719 0.0
O1158 O 0.60374 0.81847 0.20237 0.0
O1159 O 0.58127 0.83983 0.20798 0.0
O1160 O 0.60933 0.78219 0.17823 0.0
O1161 O 0.58835 0.79702 0.15988 0.0
O1162 O 0.43124 0.19262 0.22644 0.0
Cd1163 Cd 0.43277 0.17016 0.20709 0.0
Cd1164 Cd 0.40652 0.19121 0.18844 0.0
O1165 O 0.41986 0.21196 0.20436 0.0
O1166 O 0.45913 0.15987 0.2068 0.0
O1167 O 0.44618 0.17621 0.18274 0.0
C1168 C 0.46091 0.16776 0.19016 0.0
C1169 C 0.39105 0.20218 0.16085 0.0
C1170 C 0.42733 0.20945 0.22071 0.0
C1171 C 0.39533 0.15306 0.2064 0.0
O1172 O 0.39046 0.16982 0.20128 0.0
O1173 O 0.41287 0.14863 0.20774 0.0
O1174 O 0.38511 0.20644 0.17773 0.0
O1175 O 0.40653 0.19217 0.15944 0.0
O1176 O 0.42832 0.2642 0.69446 0.0
Cd1177 Cd 0.42994 0.28333 0.67183 0.0
Cd1178 Cd 0.40332 0.30215 0.69259 0.0
O1179 O 0.41647 0.28629 0.71353 0.0
O1180 O 0.4563 0.28311 0.66153 0.0
O1181 O 0.44372 0.30753 0.67761 0.0
C1182 C 0.45834 0.29981 0.66923 0.0
C1183 C 0.38799 0.32995 0.70318 0.0
C1184 C 0.4242 0.27004 0.7112 0.0
C1185 C 0.39258 0.28424 0.65431 0.0
O1186 O 0.38748 0.28938 0.671 0.0
O1187 O 0.41017 0.28274 0.65016 0.0
O1188 O 0.38183 0.31316 0.7075 0.0
O1189 O 0.40361 0.33113 0.69336 0.0
O1190 O 0.56284 0.72588 0.69585 0.0
Cd1191 Cd 0.56138 0.70716 0.67285 0.0
Cd1192 Cd 0.58834 0.68843 0.69335 0.0
O1193 O 0.57492 0.70362 0.71457 0.0
O1194 O 0.5351 0.70753 0.66236 0.0
O1195 O 0.54764 0.68276 0.67792 0.0
C1196 C 0.53307 0.69062 0.66958 0.0
C1197 C 0.60443 0.66094 0.7036 0.0
C1198 C 0.56706 0.71984 0.7125 0.0
C1199 C 0.59878 0.70727 0.65542 0.0
O1200 O 0.60393 0.70193 0.67203 0.0
O1201 O 0.58117 0.70845 0.65123 0.0
O1202 O 0.61014 0.67783 0.70811 0.0
O1203 O 0.58885 0.65945 0.69376 0.0
O1204 O 0.56127 0.2644 0.2969 0.0
Cd1205 Cd 0.55978 0.28375 0.31936 0.0
Cd1206 Cd 0.5865 0.30221 0.29826 0.0
O1207 O 0.57305 0.28629 0.27757 0.0
O1208 O 0.53349 0.28358 0.32985 0.0
O1209 O 0.54592 0.30791 0.31353 0.0
C1210 C 0.53138 0.30023 0.32207 0.0
C1211 C 0.60239 0.32947 0.28709 0.0
C1212 C 0.56532 0.27007 0.28008 0.0
C1213 C 0.59721 0.28449 0.33669 0.0
O1214 O 0.60226 0.28947 0.31994 0.0
O1215 O 0.57963 0.2832 0.34095 0.0
O1216 O 0.60817 0.31248 0.28307 0.0
O1217 O 0.58685 0.33117 0.29695 0.0
O1218 O 0.4284 0.72348 0.29834 0.0
Cd1219 Cd 0.4299 0.70371 0.3204 0.0
Cd1220 Cd 0.40314 0.68615 0.29932 0.0
O1221 O 0.41662 0.702 0.27856 0.0
O1222 O 0.45626 0.70363 0.33068 0.0
O1223 O 0.44364 0.67963 0.314 0.0
C1224 C 0.45829 0.68715 0.32249 0.0
C1225 C 0.38751 0.6584 0.28896 0.0
C1226 C 0.42438 0.71816 0.2814 0.0
C1227 C 0.39256 0.70368 0.3377 0.0
O1228 O 0.38745 0.69931 0.32079 0.0
O1229 O 0.41015 0.70413 0.34209 0.0
O1230 O 0.3816 0.67521 0.28439 0.0
O1231 O 0.4031 0.65715 0.29883 0.0
O1232 O 0.42817 0.76348 0.19967 0.0
Cd1233 Cd 0.42856 0.78293 0.17726 0.0
Cd1234 Cd 0.40122 0.79983 0.19827 0.0
O1235 O 0.4146 0.78416 0.2192 0.0
O1236 O 0.45458 0.78336 0.16614 0.0
O1237 O 0.44195 0.80751 0.18258 0.0
C1238 C 0.45644 0.80016 0.17366 0.0
C1239 C 0.38598 0.82794 0.20806 0.0
C1240 C 0.4234 0.76851 0.21651 0.0
C1241 C 0.39092 0.78195 0.16006 0.0
O1242 O 0.38561 0.78654 0.17685 0.0
O1243 O 0.40855 0.78151 0.15585 0.0
O1244 O 0.37978 0.81131 0.21291 0.0
O1245 O 0.40164 0.82879 0.19826 0.0
O1246 O 0.5636 0.22694 0.19717 0.0
Cd1247 Cd 0.5637 0.20796 0.17434 0.0
Cd1248 Cd 0.58987 0.1903 0.19561 0.0
O1249 O 0.57597 0.20544 0.21657 0.0
O1250 O 0.53775 0.20693 0.16308 0.0
O1251 O 0.55095 0.18307 0.17951 0.0
C1252 C 0.53627 0.19011 0.17065 0.0
C1253 C 0.60438 0.16168 0.20493 0.0
C1254 C 0.56757 0.22133 0.21403 0.0
C1255 C 0.60175 0.20901 0.15831 0.0
O1256 O 0.60638 0.20406 0.17519 0.0
O1257 O 0.58428 0.20964 0.15346 0.0
O1258 O 0.61065 0.17805 0.21054 0.0
O1259 O 0.58904 0.16138 0.1946 0.0
O1260 O 0.42771 0.22771 0.79454 0.0
Cd1261 Cd 0.42847 0.20889 0.81747 0.0
Cd1262 Cd 0.40184 0.19049 0.79672 0.0
O1263 O 0.41507 0.20597 0.77557 0.0
O1264 O 0.45455 0.20888 0.82845 0.0
O1265 O 0.44201 0.18436 0.8125 0.0
C1266 C 0.4565 0.19198 0.82117 0.0
C1267 C 0.38705 0.16212 0.787 0.0
C1268 C 0.42335 0.22196 0.77782 0.0
C1269 C 0.39076 0.20896 0.83451 0.0
O1270 O 0.38574 0.20372 0.81783 0.0
O1271 O 0.40834 0.21022 0.83878 0.0
O1272 O 0.38067 0.17864 0.78201 0.0
O1273 O 0.40262 0.16153 0.79696 0.0
O1274 O 0.56486 0.76168 0.7962 0.0
Cd1275 Cd 0.56385 0.78083 0.81885 0.0
Cd1276 Cd 0.59168 0.79866 0.79822 0.0
O1277 O 0.57834 0.78298 0.77728 0.0
O1278 O 0.5375 0.78119 0.8292 0.0
O1279 O 0.55052 0.80533 0.81308 0.0
C1280 C 0.53578 0.79793 0.82153 0.0
C1281 C 0.60761 0.82614 0.7879 0.0
C1282 C 0.56958 0.76724 0.77952 0.0
C1283 C 0.60117 0.78126 0.83705 0.0
O1284 O 0.60674 0.78608 0.82042 0.0
O1285 O 0.58345 0.77992 0.84071 0.0
O1286 O 0.61369 0.80928 0.78378 0.0
O1287 O 0.59172 0.82756 0.79726 0.0
O1288 O 0.56215 0.69579 0.26306 0.0
Cd1289 Cd 0.56165 0.67294 0.28197 0.0
Cd1290 Cd 0.5886 0.69373 0.3001 0.0
O1291 O 0.57536 0.71477 0.28447 0.0
O1292 O 0.53555 0.662 0.28253 0.0
O1293 O 0.54859 0.67801 0.30676 0.0
C1294 C 0.53395 0.66931 0.29946 0.0
C1295 C 0.6036 0.70379 0.32825 0.0
C1296 C 0.56677 0.71249 0.26864 0.0
C1297 C 0.59932 0.65574 0.28171 0.0
O1298 O 0.60447 0.67236 0.28702 0.0
O1299 O 0.58171 0.65159 0.28041 0.0
O1300 O 0.60993 0.70848 0.31162 0.0
O1301 O 0.588 0.6939 0.32906 0.0
O1302 O 0.42801 0.29221 0.26415 0.0
Cd1303 Cd 0.4278 0.3149 0.28328 0.0
Cd1304 Cd 0.40098 0.29352 0.30045 0.0
O1305 O 0.41508 0.27273 0.28525 0.0
O1306 O 0.45369 0.32631 0.28395 0.0
O1307 O 0.44094 0.30985 0.30802 0.0
C1308 C 0.45546 0.3188 0.30077 0.0
C1309 C 0.38583 0.28369 0.32857 0.0
C1310 C 0.42384 0.27534 0.26956 0.0
C1311 C 0.38981 0.33125 0.28208 0.0
O1312 O 0.38491 0.31439 0.28681 0.0
O1313 O 0.40734 0.33589 0.28163 0.0
O1314 O 0.37983 0.2785 0.31196 0.0
O1315 O 0.40123 0.29389 0.32939 0.0
O1316 O 0.42857 0.6953 0.72616 0.0
Cd1317 Cd 0.4291 0.67316 0.70641 0.0
Cd1318 Cd 0.40186 0.69451 0.68952 0.0
O1319 O 0.41575 0.71506 0.70525 0.0
O1320 O 0.45523 0.66231 0.70584 0.0
O1321 O 0.44251 0.67915 0.68201 0.0
C1322 C 0.4571 0.67032 0.68926 0.0
C1323 C 0.38608 0.70522 0.66205 0.0
C1324 C 0.42428 0.71222 0.72102 0.0
C1325 C 0.39149 0.65602 0.7069 0.0
O1326 O 0.38628 0.67291 0.70259 0.0
O1327 O 0.40911 0.65171 0.70728 0.0
O1328 O 0.38026 0.7096 0.67895 0.0
O1329 O 0.40161 0.6953 0.66057 0.0
O1330 O 0.56311 0.29464 0.7274 0.0
Cd1331 Cd 0.56214 0.31676 0.70767 0.0
Cd1332 Cd 0.58932 0.29575 0.69031 0.0
O1333 O 0.5762 0.27503 0.70649 0.0
O1334 O 0.53589 0.32733 0.7071 0.0
O1335 O 0.54881 0.31066 0.68325 0.0
C1336 C 0.53415 0.3194 0.69047 0.0
C1337 C 0.6045 0.28526 0.66239 0.0
C1338 C 0.56775 0.27779 0.72232 0.0
C1339 C 0.59955 0.33439 0.70751 0.0
O1340 O 0.6049 0.31762 0.70293 0.0
O1341 O 0.58189 0.33843 0.7084 0.0
O1342 O 0.61082 0.28096 0.67913 0.0
O1343 O 0.58879 0.29495 0.66134 0.0
C1344 C 0.06387 0.26727 0.25492 0.0
C1345 C 0.06401 0.26534 0.23494 0.0
H1346 H 0.06493 0.25288 0.28195 0.0
C1347 C 0.06309 0.24692 0.22683 0.0
H1348 H 0.06456 0.28128 0.26154 0.0
C1349 C 0.06302 0.23068 0.23848 0.0
C1350 C 0.06424 0.23257 0.25843 0.0
H1351 H 0.06301 0.24504 0.21143 0.0
H1352 H 0.06304 0.21667 0.23183 0.0
C1353 C 0.06417 0.25101 0.26657 0.0
C1354 C 0.74623 0.06039 0.2255 0.0
C1355 C 0.72763 0.06164 0.23314 0.0
H1356 H 0.77638 0.06039 0.23121 0.0
C1357 C 0.72524 0.06205 0.25308 0.0
H1358 H 0.74846 0.05989 0.21015 0.0
C1359 C 0.74123 0.06263 0.26509 0.0
C1360 C 0.75985 0.06244 0.25738 0.0
H1361 H 0.71109 0.06302 0.25935 0.0
H1362 H 0.739 0.06385 0.28039 0.0
C1363 C 0.76221 0.0606 0.23753 0.0
C1364 C 0.92765 0.72721 0.25265 0.0
C1365 C 0.9268 0.72964 0.23274 0.0
H1366 H 0.92714 0.74082 0.2801 0.0
C1367 C 0.92689 0.74829 0.22512 0.0
H1368 H 0.9276 0.71302 0.25892 0.0
C1369 C 0.92692 0.76422 0.23722 0.0
C1370 C 0.92647 0.76175 0.25715 0.0
H1371 H 0.92639 0.75058 0.20978 0.0
H1372 H 0.9263 0.7784 0.23098 0.0
C1373 C 0.9273 0.74312 0.26475 0.0
C1374 C 0.24216 0.92782 0.22626 0.0
C1375 C 0.26068 0.92752 0.23419 0.0
H1376 H 0.21195 0.92778 0.23161 0.0
C1377 C 0.26282 0.92882 0.25411 0.0
H1378 H 0.2401 0.92701 0.2109 0.0
C1379 C 0.2467 0.92899 0.26595 0.0
C1380 C 0.22817 0.92824 0.25805 0.0
H1381 H 0.27691 0.92865 0.26061 0.0
H1382 H 0.24875 0.92909 0.28133 0.0
C1383 C 0.22604 0.92835 0.23808 0.0
C1384 C 0.06294 0.72587 0.73863 0.0
C1385 C 0.0631 0.72812 0.75858 0.0
H1386 H 0.0641 0.7398 0.71137 0.0
C1387 C 0.06229 0.74667 0.76639 0.0
H1388 H 0.06355 0.71176 0.73224 0.0
C1389 C 0.06233 0.76272 0.75447 0.0
C1390 C 0.06356 0.76049 0.73456 0.0
H1391 H 0.06224 0.7488 0.78176 0.0
H1392 H 0.06245 0.77684 0.7609 0.0
C1393 C 0.06335 0.74193 0.72672 0.0
C1394 C 0.2446 0.06204 0.766 0.0
C1395 C 0.26318 0.06289 0.75825 0.0
H1396 H 0.21443 0.0623 0.7604 0.0
C1397 C 0.26548 0.06289 0.7383 0.0
H1398 H 0.24242 0.06186 0.78135 0.0
C1399 C 0.24946 0.06342 0.72635 0.0
C1400 C 0.23087 0.0636 0.73412 0.0
H1401 H 0.27963 0.06353 0.73195 0.0
H1402 H 0.25164 0.06429 0.71101 0.0
C1403 C 0.22857 0.06222 0.75402 0.0
C1404 C 0.92889 0.24536 0.72466 0.0
C1405 C 0.92803 0.22692 0.73273 0.0
H1406 H 0.92875 0.27561 0.72973 0.0
C1407 C 0.92812 0.22497 0.75271 0.0
H1408 H 0.92901 0.24727 0.70926 0.0
C1409 C 0.92769 0.2412 0.76439 0.0
C1410 C 0.92753 0.25965 0.75629 0.0
H1411 H 0.92747 0.21095 0.75931 0.0
H1412 H 0.92688 0.2393 0.77977 0.0
C1413 C 0.92883 0.26159 0.73635 0.0
C1414 C 0.75004 0.92684 0.76736 0.0
C1415 C 0.73153 0.92662 0.75937 0.0
H1416 H 0.78029 0.92643 0.76209 0.0
C1417 C 0.7295 0.92741 0.7394 0.0
H1418 H 0.75203 0.9264 0.78274 0.0
C1419 C 0.74566 0.92718 0.72763 0.0
C1420 C 0.76415 0.92648 0.7356 0.0
H1421 H 0.71545 0.92729 0.73283 0.0
H1422 H 0.74365 0.92702 0.71224 0.0
C1423 C 0.76622 0.92695 0.75557 0.0
C1424 C 0.23838 0.0641 0.22628 0.0
C1425 C 0.25833 0.06394 0.22858 0.0
H1426 H 0.21109 0.06571 0.24012 0.0
C1427 C 0.26607 0.06311 0.24716 0.0
H1428 H 0.23203 0.06474 0.21214 0.0
C1429 C 0.25409 0.06339 0.26319 0.0
C1430 C 0.23419 0.06488 0.26089 0.0
H1431 H 0.28143 0.06282 0.24934 0.0
H1432 H 0.26046 0.06344 0.27733 0.0
C1433 C 0.22642 0.06476 0.2423 0.0
C1434 C 0.9275 0.26303 0.24679 0.0
C1435 C 0.92729 0.25487 0.22837 0.0
H1436 H 0.9272 0.25809 0.27706 0.0
C1437 C 0.92838 0.23491 0.2265 0.0
H1438 H 0.92686 0.27842 0.24864 0.0
C1439 C 0.92831 0.22329 0.24278 0.0
C1440 C 0.92751 0.23145 0.26119 0.0
H1441 H 0.92827 0.22825 0.21249 0.0
H1442 H 0.92827 0.20789 0.24093 0.0
C1443 C 0.92779 0.25143 0.26307 0.0
C1444 C 0.72594 0.92744 0.25032 0.0
C1445 C 0.73404 0.92736 0.23187 0.0
H1446 H 0.73102 0.92719 0.28057 0.0
C1447 C 0.75398 0.9288 0.22993 0.0
H1448 H 0.71056 0.92652 0.25222 0.0
C1449 C 0.76567 0.92891 0.24616 0.0
C1450 C 0.7576 0.92795 0.2646 0.0
H1451 H 0.76061 0.92879 0.2159 0.0
H1452 H 0.78107 0.92913 0.24425 0.0
C1453 C 0.73761 0.92791 0.26655 0.0
C1454 C 0.06322 0.7542 0.22467 0.0
C1455 C 0.06335 0.73422 0.22656 0.0
H1456 H 0.06431 0.78121 0.2391 0.0
C1457 C 0.06248 0.72609 0.24498 0.0
H1458 H 0.06387 0.76084 0.21067 0.0
C1459 C 0.06247 0.73772 0.26125 0.0
C1460 C 0.06369 0.75767 0.25938 0.0
H1461 H 0.0624 0.71069 0.24684 0.0
H1462 H 0.06252 0.73105 0.27525 0.0
C1463 C 0.06356 0.76583 0.24095 0.0
C1464 C 0.25434 0.92565 0.72598 0.0
C1465 C 0.23438 0.92586 0.72827 0.0
H1466 H 0.28162 0.92416 0.73986 0.0
C1467 C 0.22663 0.92681 0.74684 0.0
H1468 H 0.26068 0.9249 0.71185 0.0
C1469 C 0.23859 0.92667 0.76287 0.0
C1470 C 0.2585 0.92519 0.76061 0.0
H1471 H 0.21127 0.92713 0.749 0.0
H1472 H 0.2322 0.92676 0.77701 0.0
C1473 C 0.26628 0.92513 0.74202 0.0
C1474 C 0.06197 0.25341 0.72964 0.0
C1475 C 0.06334 0.23352 0.73201 0.0
H1476 H 0.06169 0.28079 0.74339 0.0
C1477 C 0.0632 0.22582 0.75062 0.0
H1478 H 0.06204 0.25973 0.71548 0.0
C1479 C 0.0627 0.23783 0.7666 0.0
C1480 C 0.06272 0.25777 0.76423 0.0
H1481 H 0.06407 0.21049 0.75285 0.0
H1482 H 0.06336 0.23154 0.78076 0.0
C1483 C 0.06185 0.26544 0.74562 0.0
C1484 C 0.76447 0.06246 0.74894 0.0
C1485 C 0.75661 0.06281 0.73039 0.0
H1486 H 0.75902 0.06274 0.77913 0.0
C1487 C 0.73666 0.062 0.7282 0.0
H1488 H 0.77984 0.06291 0.75103 0.0
C1489 C 0.72477 0.06219 0.74428 0.0
C1490 C 0.73263 0.06281 0.76283 0.0
H1491 H 0.73021 0.06223 0.71409 0.0
H1492 H 0.7094 0.06242 0.74219 0.0
C1493 C 0.75259 0.06227 0.76503 0.0
C1494 C 0.92963 0.76485 0.74555 0.0
C1495 C 0.92883 0.75676 0.72711 0.0
H1496 H 0.92936 0.75984 0.7758 0.0
C1497 C 0.92891 0.73678 0.72518 0.0
H1498 H 0.92976 0.78024 0.74745 0.0
C1499 C 0.92842 0.72513 0.74143 0.0
C1500 C 0.92818 0.73325 0.75987 0.0
H1501 H 0.92832 0.73017 0.71116 0.0
H1502 H 0.92762 0.70975 0.73953 0.0
C1503 C 0.92948 0.75319 0.76179 0.0
C1504 C 0.22948 0.23827 0.06477 0.0
C1505 C 0.23151 0.25823 0.0657 0.0
H1506 H 0.24365 0.21112 0.06481 0.0
C1507 C 0.25001 0.26622 0.06538 0.0
H1508 H 0.21542 0.23171 0.06496 0.0
C1509 C 0.26619 0.25445 0.06501 0.0
C1510 C 0.26414 0.23448 0.0653 0.0
H1511 H 0.252 0.2816 0.06592 0.0
H1512 H 0.28026 0.26097 0.06543 0.0
C1513 C 0.24564 0.22651 0.06475 0.0
C1514 C 0.23019 0.75401 0.92904 0.0
C1515 C 0.23222 0.73413 0.92718 0.0
H1516 H 0.24442 0.78113 0.93006 0.0
C1517 C 0.2507 0.7261 0.92717 0.0
H1518 H 0.21613 0.76057 0.92912 0.0
C1519 C 0.26689 0.73781 0.92803 0.0
C1520 C 0.26486 0.75778 0.92852 0.0
H1521 H 0.25267 0.71076 0.92594 0.0
H1522 H 0.28095 0.73129 0.92724 0.0
C1523 C 0.24638 0.76575 0.92952 0.0
C1524 C 0.22488 0.24305 0.92937 0.0
C1525 C 0.23277 0.26157 0.92877 0.0
H1526 H 0.23025 0.21285 0.92901 0.0
C1527 C 0.25274 0.26372 0.92907 0.0
H1528 H 0.2095 0.24099 0.92931 0.0
C1529 C 0.26458 0.24762 0.92862 0.0
C1530 C 0.25667 0.22909 0.92822 0.0
H1531 H 0.25921 0.27781 0.92863 0.0
H1532 H 0.27995 0.24968 0.928 0.0
C1533 C 0.23673 0.22694 0.92928 0.0
C1534 C 0.72718 0.25252 0.92834 0.0
C1535 C 0.72962 0.2326 0.92828 0.0
H1536 H 0.7408 0.27991 0.92679 0.0
C1537 C 0.74828 0.22499 0.9288 0.0
H1538 H 0.71299 0.25878 0.92796 0.0
C1539 C 0.76422 0.23708 0.92841 0.0
C1540 C 0.76174 0.25695 0.92712 0.0
H1541 H 0.75057 0.20965 0.92893 0.0
H1542 H 0.77841 0.23082 0.92809 0.0
C1543 C 0.7431 0.26459 0.92759 0.0
C1544 C 0.76462 0.75189 0.92377 0.0
C1545 C 0.75544 0.734 0.9227 0.0
H1546 H 0.76144 0.78231 0.92544 0.0
C1547 C 0.73538 0.73322 0.9234 0.0
H1548 H 0.7801 0.7529 0.92339 0.0
C1549 C 0.72467 0.75013 0.92423 0.0
C1550 C 0.73387 0.76805 0.92479 0.0
H1551 H 0.72796 0.71963 0.92255 0.0
H1552 H 0.70919 0.74918 0.9242 0.0
C1553 C 0.75395 0.76873 0.925 0.0
C1554 C 0.74972 0.76343 0.06434 0.0
C1555 C 0.731 0.75598 0.06449 0.0
H1556 H 0.77977 0.75732 0.06412 0.0
C1557 C 0.72834 0.73616 0.06278 0.0
H1558 H 0.75217 0.77871 0.06546 0.0
C1559 C 0.74415 0.72391 0.0623 0.0
C1560 C 0.76288 0.73132 0.06313 0.0
H1561 H 0.71408 0.73005 0.06284 0.0
H1562 H 0.74171 0.7086 0.06186 0.0
C1563 C 0.76552 0.75122 0.06348 0.0
C1564 C 0.2383 0.76155 0.062 0.0
C1565 C 0.25816 0.75935 0.06402 0.0
H1566 H 0.21105 0.74758 0.06078 0.0
C1567 C 0.26603 0.7408 0.06405 0.0
H1568 H 0.23185 0.77566 0.0619 0.0
C1569 C 0.25417 0.72473 0.06312 0.0
C1570 C 0.23422 0.72694 0.0625 0.0
H1571 H 0.28134 0.7387 0.0654 0.0
H1572 H 0.26057 0.71063 0.06395 0.0
C1573 C 0.22641 0.74548 0.06143 0.0
C1574 C 0.73962 0.26907 0.06675 0.0
C1575 C 0.75969 0.26821 0.06688 0.0
H1576 H 0.71333 0.25346 0.06842 0.0
C1577 C 0.76874 0.2502 0.06738 0.0
H1578 H 0.73226 0.28271 0.06636 0.0
C1579 C 0.75788 0.23339 0.06821 0.0
C1580 C 0.73782 0.23435 0.06897 0.0
H1581 H 0.78421 0.24911 0.06734 0.0
H1582 H 0.76518 0.21972 0.06899 0.0
C1583 C 0.7288 0.25232 0.06799 0.0
C1584 C 0.72914 0.56168 0.75265 0.0
C1585 C 0.73146 0.56336 0.73278 0.0
H1586 H 0.74293 0.56108 0.78001 0.0
C1587 C 0.75007 0.56344 0.72504 0.0
H1588 H 0.71498 0.56156 0.759 0.0
C1589 C 0.76608 0.56287 0.73702 0.0
C1590 C 0.76373 0.56258 0.75696 0.0
H1591 H 0.75227 0.56454 0.70972 0.0
H1592 H 0.78023 0.56372 0.73072 0.0
C1593 C 0.74514 0.56148 0.76465 0.0
C1594 C 0.24874 0.42713 0.76622 0.0
C1595 C 0.23019 0.4269 0.75835 0.0
H1596 H 0.27894 0.42711 0.76076 0.0
C1597 C 0.22799 0.42815 0.73843 0.0
H1598 H 0.25085 0.42635 0.78157 0.0
C1599 C 0.24408 0.42831 0.72654 0.0
C1600 C 0.26263 0.42759 0.73437 0.0
H1601 H 0.21388 0.42802 0.73199 0.0
H1602 H 0.24197 0.42843 0.71117 0.0
C1603 C 0.26483 0.42766 0.75433 0.0
C1604 C 0.24686 0.56325 0.22657 0.0
C1605 C 0.22826 0.56377 0.23432 0.0
H1606 H 0.27702 0.56297 0.2322 0.0
C1607 C 0.22592 0.56273 0.25423 0.0
H1608 H 0.24907 0.56385 0.21123 0.0
C1609 C 0.24194 0.5625 0.26622 0.0
C1610 C 0.26055 0.56294 0.25849 0.0
H1611 H 0.21177 0.5631 0.26058 0.0
H1612 H 0.23974 0.56255 0.28158 0.0
C1613 C 0.26286 0.56265 0.23855 0.0
C1614 C 0.76454 0.42624 0.25205 0.0
C1615 C 0.76268 0.42615 0.23205 0.0
H1616 H 0.75016 0.42512 0.27906 0.0
C1617 C 0.74425 0.42686 0.22391 0.0
H1618 H 0.77854 0.42572 0.25872 0.0
C1619 C 0.72797 0.42678 0.23557 0.0
C1620 C 0.72985 0.42563 0.25553 0.0
H1621 H 0.74239 0.42695 0.20851 0.0
H1622 H 0.71395 0.42667 0.22891 0.0
C1623 C 0.74828 0.42581 0.26367 0.0
C1624 C 0.23703 0.56239 0.72693 0.0
C1625 C 0.257 0.5631 0.72897 0.0
H1626 H 0.20988 0.56284 0.74114 0.0
C1627 C 0.26501 0.56252 0.74745 0.0
H1628 H 0.23047 0.5628 0.71288 0.0
C1629 C 0.25325 0.56228 0.76363 0.0
C1630 C 0.23328 0.56296 0.7616 0.0
H1631 H 0.28039 0.56287 0.74943 0.0
H1632 H 0.25982 0.5626 0.77768 0.0
C1633 C 0.22527 0.5625 0.74312 0.0
C1634 C 0.75328 0.42795 0.7245 0.0
C1635 C 0.73331 0.42797 0.72669 0.0
H1636 H 0.78049 0.42652 0.7385 0.0
C1637 C 0.72546 0.42888 0.74522 0.0
H1638 H 0.75971 0.42726 0.7104 0.0
C1639 C 0.73734 0.42871 0.76131 0.0
C1640 C 0.75725 0.42728 0.75913 0.0
H1641 H 0.71009 0.42907 0.74731 0.0
H1642 H 0.73088 0.42865 0.77542 0.0
C1643 C 0.76514 0.42743 0.74059 0.0
C1644 C 0.22399 0.42383 0.24119 0.0
C1645 C 0.23301 0.4248 0.22319 0.0
H1646 H 0.2276 0.42176 0.27164 0.0
C1647 C 0.25308 0.42539 0.22233 0.0
H1648 H 0.20852 0.42351 0.24229 0.0
C1649 C 0.26393 0.4241 0.23906 0.0
C1650 C 0.25494 0.4226 0.25701 0.0
H1651 H 0.26042 0.42615 0.20869 0.0
H1652 H 0.2794 0.424 0.23791 0.0
C1653 C 0.23487 0.42295 0.25799 0.0
C1654 C 0.76574 0.5626 0.24889 0.0
C1655 C 0.75804 0.56269 0.23027 0.0
H1656 H 0.76001 0.56302 0.27903 0.0
C1657 C 0.73813 0.56151 0.2279 0.0
H1658 H 0.78108 0.56333 0.25112 0.0
C1659 C 0.72609 0.56162 0.24387 0.0
C1660 C 0.73377 0.56254 0.26248 0.0
H1661 H 0.73181 0.56154 0.21373 0.0
H1662 H 0.71073 0.56159 0.24164 0.0
C1663 C 0.75371 0.56234 0.26487 0.0
C1664 C 0.24527 0.76578 0.56155 0.0
C1665 C 0.22681 0.75775 0.56244 0.0
H1666 H 0.27553 0.76067 0.56194 0.0
C1667 C 0.22483 0.73778 0.56265 0.0
H1668 H 0.24721 0.78116 0.56122 0.0
C1669 C 0.24104 0.72609 0.56335 0.0
C1670 C 0.25951 0.73416 0.56349 0.0
H1671 H 0.21079 0.73121 0.56332 0.0
H1672 H 0.2391 0.71073 0.56437 0.0
C1673 C 0.26149 0.75407 0.5619 0.0
C1674 C 0.24696 0.22478 0.43017 0.0
C1675 C 0.22843 0.23269 0.42955 0.0
H1676 H 0.27718 0.23012 0.42968 0.0
C1677 C 0.22631 0.25265 0.42983 0.0
H1678 H 0.24901 0.2094 0.43015 0.0
C1679 C 0.24243 0.26446 0.42929 0.0
C1680 C 0.26095 0.25653 0.42882 0.0
H1681 H 0.21222 0.25913 0.42937 0.0
H1682 H 0.24037 0.27982 0.42858 0.0
C1683 C 0.26309 0.23661 0.42999 0.0
C1684 C 0.22515 0.74212 0.42758 0.0
C1685 C 0.2332 0.76058 0.4272 0.0
H1686 H 0.23029 0.71188 0.42777 0.0
C1687 C 0.25315 0.76259 0.42847 0.0
H1688 H 0.20978 0.74017 0.42679 0.0
C1689 C 0.26488 0.74639 0.42875 0.0
C1690 C 0.25685 0.72792 0.42814 0.0
H1691 H 0.25973 0.77663 0.42822 0.0
H1692 H 0.28027 0.74833 0.42885 0.0
C1693 C 0.23687 0.72593 0.42823 0.0
C1694 C 0.74214 0.76423 0.42828 0.0
C1695 C 0.76064 0.75624 0.42805 0.0
H1696 H 0.7119 0.75901 0.42779 0.0
C1697 C 0.76268 0.73629 0.42892 0.0
H1698 H 0.74015 0.77961 0.42779 0.0
C1699 C 0.74651 0.72452 0.42865 0.0
C1700 C 0.72802 0.7325 0.42786 0.0
H1701 H 0.77675 0.72974 0.42878 0.0
H1702 H 0.7485 0.70914 0.42846 0.0
C1703 C 0.72596 0.75247 0.42836 0.0
C1704 C 0.75289 0.26551 0.42742 0.0
C1705 C 0.73292 0.26338 0.42762 0.0
H1706 H 0.78006 0.25142 0.42589 0.0
C1707 C 0.72503 0.24487 0.42862 0.0
H1708 H 0.75935 0.27958 0.42666 0.0
C1709 C 0.73686 0.22875 0.42844 0.0
C1710 C 0.75678 0.23086 0.4269 0.0
H1711 H 0.70965 0.24282 0.42895 0.0
H1712 H 0.73036 0.21467 0.42851 0.0
C1713 C 0.76471 0.24938 0.42689 0.0
C1714 C 0.74324 0.22412 0.56297 0.0
C1715 C 0.7618 0.23195 0.56352 0.0
H1716 H 0.71305 0.2296 0.56305 0.0
C1717 C 0.76402 0.25189 0.56283 0.0
H1718 H 0.74112 0.20876 0.56332 0.0
C1719 C 0.74794 0.2638 0.56295 0.0
C1720 C 0.72938 0.25596 0.5634 0.0
H1721 H 0.77814 0.25832 0.56321 0.0
H1722 H 0.75006 0.27916 0.56329 0.0
C1723 C 0.72716 0.23602 0.56273 0.0
C1724 C 0.22565 0.25104 0.56453 0.0
C1725 C 0.23358 0.23252 0.56448 0.0
H1726 H 0.23102 0.28124 0.56446 0.0
C1727 C 0.25345 0.23039 0.56248 0.0
H1728 H 0.21033 0.2531 0.56588 0.0
C1729 C 0.26528 0.2465 0.56192 0.0
C1730 C 0.25742 0.26502 0.563 0.0
H1731 H 0.25994 0.2163 0.56236 0.0
H1732 H 0.28065 0.24445 0.56128 0.0
C1733 C 0.23746 0.26716 0.56361 0.0
C1734 C 0.76529 0.74511 0.56216 0.0
C1735 C 0.75735 0.7636 0.56322 0.0
H1736 H 0.76002 0.7149 0.56188 0.0
C1737 C 0.73738 0.76569 0.56306 0.0
H1738 H 0.78068 0.74309 0.56209 0.0
C1739 C 0.72558 0.74954 0.56321 0.0
C1740 C 0.73355 0.73103 0.56316 0.0
H1741 H 0.73087 0.77975 0.56384 0.0
H1742 H 0.71021 0.75154 0.56396 0.0
C1743 C 0.75349 0.72897 0.56196 0.0
C1744 C 0.56381 0.24795 0.76722 0.0
C1745 C 0.56421 0.22928 0.75967 0.0
H1746 H 0.56419 0.27804 0.76126 0.0
C1747 C 0.56373 0.22676 0.73975 0.0
H1748 H 0.56402 0.2503 0.78255 0.0
C1749 C 0.56414 0.24263 0.7276 0.0
C1750 C 0.56464 0.2613 0.73515 0.0
H1751 H 0.56403 0.21255 0.73354 0.0
H1752 H 0.56459 0.24028 0.71227 0.0
C1753 C 0.56383 0.26383 0.75506 0.0
C1754 C 0.42903 0.72627 0.7536 0.0
C1755 C 0.42785 0.72873 0.73371 0.0
H1756 H 0.42942 0.73993 0.78103 0.0
C1757 C 0.4284 0.74736 0.72606 0.0
H1758 H 0.42865 0.71209 0.75987 0.0
C1759 C 0.42913 0.76328 0.73813 0.0
C1760 C 0.42895 0.76085 0.75807 0.0
H1761 H 0.42769 0.74965 0.71074 0.0
H1762 H 0.4288 0.77746 0.73187 0.0
C1763 C 0.4294 0.74221 0.76569 0.0
C1764 C 0.56347 0.74783 0.26448 0.0
C1765 C 0.56355 0.72939 0.25638 0.0
H1766 H 0.56384 0.77808 0.25942 0.0
C1767 C 0.56229 0.72746 0.23643 0.0
H1768 H 0.56424 0.74974 0.27986 0.0
C1769 C 0.56233 0.74369 0.22475 0.0
C1770 C 0.56326 0.76212 0.23283 0.0
H1771 H 0.56231 0.71343 0.22981 0.0
H1772 H 0.56223 0.74178 0.20935 0.0
C1773 C 0.56314 0.76407 0.25281 0.0
C1774 C 0.42973 0.2608 0.23738 0.0
C1775 C 0.42781 0.25863 0.25725 0.0
H1776 H 0.43105 0.24678 0.21018 0.0
C1777 C 0.42808 0.24011 0.26516 0.0
H1778 H 0.42961 0.27489 0.2309 0.0
C1779 C 0.42919 0.22401 0.25334 0.0
C1780 C 0.42971 0.22617 0.23339 0.0
H1781 H 0.42682 0.23802 0.28048 0.0
H1782 H 0.42858 0.20991 0.25977 0.0
C1783 C 0.43049 0.24471 0.22554 0.0
C1784 C 0.42764 0.25414 0.76278 0.0
C1785 C 0.42651 0.23419 0.76089 0.0
H1786 H 0.42771 0.28118 0.7484 0.0
C1787 C 0.42676 0.22604 0.74246 0.0
H1788 H 0.4275 0.2608 0.77679 0.0
C1789 C 0.42716 0.23768 0.7262 0.0
C1790 C 0.42696 0.25766 0.72809 0.0
H1791 H 0.42608 0.21066 0.74059 0.0
H1792 H 0.42662 0.23104 0.71219 0.0
C1793 C 0.42768 0.26578 0.74652 0.0
C1794 C 0.56468 0.75206 0.72784 0.0
C1795 C 0.56454 0.73206 0.72954 0.0
H1796 H 0.56652 0.7789 0.74248 0.0
C1797 C 0.56397 0.72377 0.7479 0.0
H1798 H 0.56514 0.75883 0.71389 0.0
C1799 C 0.5645 0.73524 0.76427 0.0
C1800 C 0.56599 0.75519 0.76255 0.0
H1801 H 0.56371 0.70836 0.74961 0.0
H1802 H 0.56474 0.72846 0.77822 0.0
C1803 C 0.56558 0.76351 0.74421 0.0
C1804 C 0.5624 0.25357 0.22868 0.0
C1805 C 0.56388 0.23366 0.23079 0.0
H1806 H 0.56173 0.28075 0.24278 0.0
C1807 C 0.56354 0.22571 0.24931 0.0
H1808 H 0.56259 0.26008 0.21461 0.0
C1809 C 0.56277 0.23751 0.26544 0.0
C1810 C 0.56268 0.25747 0.26333 0.0
H1811 H 0.56449 0.21036 0.25135 0.0
H1812 H 0.56331 0.23103 0.27953 0.0
C1813 C 0.56198 0.26538 0.24481 0.0
C1814 C 0.42672 0.76323 0.25172 0.0
C1815 C 0.42667 0.75574 0.23302 0.0
H1816 H 0.42647 0.75717 0.28179 0.0
C1817 C 0.42801 0.73587 0.23043 0.0
H1818 H 0.42586 0.77853 0.25412 0.0
C1819 C 0.42806 0.72366 0.24627 0.0
C1820 C 0.42716 0.73112 0.26496 0.0
H1821 H 0.428 0.72971 0.21619 0.0
H1822 H 0.42824 0.70834 0.24386 0.0
C1823 C 0.42716 0.75103 0.26756 0.0
C1824 C 0.1118 0.12514 0.28527 0.0
C1825 C 0.11498 0.14429 0.27998 0.0
H1826 H 0.12458 0.09787 0.29138 0.0
C1827 C 0.13333 0.14994 0.27412 0.0
H1828 H 0.09776 0.12046 0.28991 0.0
C1829 C 0.14852 0.13703 0.27468 0.0
C1830 C 0.14576 0.11829 0.28148 0.0
H1831 H 0.13611 0.16458 0.26983 0.0
H1832 H 0.16265 0.14214 0.2708 0.0
C1833 C 0.12714 0.11225 0.28618 0.0
C1834 C 0.84299 0.13152 0.2739 0.0
C1835 C 0.84817 0.11319 0.28021 0.0
H1836 H 0.85135 0.16064 0.27041 0.0
C1837 C 0.8671 0.1098 0.28615 0.0
H1838 H 0.82852 0.13446 0.26911 0.0
C1839 C 0.88021 0.12494 0.28724 0.0
C1840 C 0.87459 0.14356 0.28209 0.0
H1841 H 0.87141 0.09576 0.29114 0.0
H1842 H 0.89438 0.12224 0.29293 0.0
C1843 C 0.85612 0.14651 0.27464 0.0
C1844 C 0.85846 0.84442 0.27623 0.0
C1845 C 0.87679 0.84963 0.28255 0.0
H1846 H 0.82927 0.85264 0.27289 0.0
C1847 C 0.88008 0.8685 0.28873 0.0
H1848 H 0.8556 0.83001 0.27125 0.0
C1849 C 0.86485 0.88149 0.29002 0.0
C1850 C 0.84624 0.87584 0.28481 0.0
H1851 H 0.89411 0.87282 0.29373 0.0
H1852 H 0.86748 0.89561 0.29587 0.0
C1853 C 0.84339 0.85743 0.27717 0.0
C1854 C 0.12152 0.88058 0.28705 0.0
C1855 C 0.14057 0.87793 0.28112 0.0
H1856 H 0.09462 0.86711 0.29337 0.0
C1857 C 0.14636 0.85993 0.27441 0.0
H1858 H 0.11676 0.89436 0.29235 0.0
C1859 C 0.13372 0.84453 0.2747 0.0
C1860 C 0.11512 0.8467 0.28209 0.0
H1861 H 0.16093 0.85757 0.26961 0.0
H1862 H 0.13896 0.83066 0.27013 0.0
C1863 C 0.1089 0.865 0.2877 0.0
C1864 C 0.11113 0.86745 0.70551 0.0
C1865 C 0.11442 0.84839 0.71105 0.0
H1866 H 0.12375 0.89467 0.69887 0.0
C1867 C 0.13285 0.84288 0.71679 0.0
H1868 H 0.09701 0.87202 0.70096 0.0
C1869 C 0.14799 0.85582 0.71587 0.0
C1870 C 0.1451 0.87445 0.70883 0.0
H1871 H 0.13573 0.82831 0.72127 0.0
H1872 H 0.16218 0.85081 0.71967 0.0
C1873 C 0.12642 0.88038 0.70425 0.0
C1874 C 0.14828 0.13235 0.71842 0.0
C1875 C 0.14286 0.11425 0.71164 0.0
H1876 H 0.14031 0.16147 0.7227 0.0
C1877 C 0.12387 0.11127 0.70565 0.0
H1878 H 0.16279 0.13497 0.72326 0.0
C1879 C 0.11096 0.12661 0.705 0.0
C1880 C 0.11682 0.14502 0.71064 0.0
H1881 H 0.11937 0.09742 0.70031 0.0
H1882 H 0.09674 0.12424 0.69927 0.0
C1883 C 0.13535 0.14752 0.7181 0.0
C1884 C 0.86459 0.10762 0.70349 0.0
C1885 C 0.84624 0.11393 0.70885 0.0
H1886 H 0.89403 0.11535 0.69912 0.0
C1887 C 0.84405 0.13257 0.71612 0.0
H1888 H 0.86671 0.09331 0.69791 0.0
C1889 C 0.8595 0.14515 0.71653 0.0
C1890 C 0.87756 0.13927 0.71004 0.0
H1891 H 0.83014 0.13787 0.72051 0.0
H1892 H 0.85713 0.15975 0.72122 0.0
C1893 C 0.88021 0.12018 0.70424 0.0
C1894 C 0.87117 0.88006 0.70427 0.0
C1895 C 0.85229 0.87696 0.71052 0.0
H1896 H 0.89804 0.86713 0.69677 0.0
C1897 C 0.84685 0.85866 0.71667 0.0
H1898 H 0.87566 0.89407 0.69938 0.0
C1899 C 0.85963 0.84342 0.71546 0.0
C1900 C 0.87801 0.84607 0.7077 0.0
H1901 H 0.83241 0.85596 0.72169 0.0
H1902 H 0.85464 0.82933 0.7196 0.0
C1903 C 0.88393 0.86465 0.7027 0.0
C1904 C 0.28868 0.11063 0.12194 0.0
C1905 C 0.28294 0.11352 0.14102 0.0
H1906 H 0.29534 0.12382 0.09498 0.0
C1907 C 0.2769 0.13176 0.14679 0.0
H1908 H 0.29347 0.09666 0.11718 0.0
C1909 C 0.27769 0.14712 0.13413 0.0
C1910 C 0.2849 0.14466 0.1155 0.0
H1911 H 0.27225 0.13432 0.16138 0.0
H1912 H 0.27363 0.16115 0.13935 0.0
C1913 C 0.28982 0.12615 0.10929 0.0
C1914 C 0.86849 0.28772 0.10613 0.0
C1915 C 0.84923 0.28546 0.11156 0.0
H1916 H 0.89781 0.28783 0.1154 0.0
C1917 C 0.84503 0.2787 0.13004 0.0
H1918 H 0.87215 0.29281 0.09195 0.0
C1919 C 0.85959 0.27597 0.14338 0.0
C1920 C 0.8787 0.27976 0.1385 0.0
H1921 H 0.83037 0.27652 0.13461 0.0
H1922 H 0.85576 0.27186 0.15784 0.0
C1923 C 0.88316 0.2848 0.11952 0.0
C1924 C 0.71873 0.85736 0.14991 0.0
C1925 C 0.71285 0.87564 0.14409 0.0
H1926 H 0.72204 0.82799 0.14238 0.0
C1927 C 0.7076 0.87865 0.12489 0.0
H1928 H 0.72298 0.85471 0.16459 0.0
C1929 C 0.70672 0.8632 0.11214 0.0
C1930 C 0.71139 0.84465 0.11837 0.0
H1931 H 0.70296 0.89264 0.12008 0.0
H1932 H 0.70154 0.86563 0.09772 0.0
C1933 C 0.71819 0.84206 0.13714 0.0
C1934 C 0.1317 0.71612 0.14402 0.0
C1935 C 0.11339 0.71006 0.13844 0.0
H1936 H 0.16106 0.71918 0.13633 0.0
C1937 C 0.11034 0.70409 0.11947 0.0
H1938 H 0.13437 0.72092 0.15853 0.0
C1939 C 0.12578 0.70271 0.10672 0.0
C1940 C 0.14435 0.70764 0.11274 0.0
H1941 H 0.09633 0.69928 0.11487 0.0
H1942 H 0.12333 0.69699 0.09252 0.0
C1943 C 0.14697 0.71511 0.13125 0.0
C1944 C 0.28945 0.86477 0.88173 0.0
C1945 C 0.2846 0.84602 0.87628 0.0
H1946 H 0.29286 0.89393 0.87268 0.0
C1947 C 0.27715 0.8428 0.85786 0.0
H1948 H 0.29513 0.86768 0.89586 0.0
C1949 C 0.27613 0.85765 0.84461 0.0
C1950 C 0.28216 0.87613 0.84961 0.0
H1951 H 0.27313 0.82855 0.85322 0.0
H1952 H 0.27136 0.85451 0.83018 0.0
C1953 C 0.28808 0.87978 0.8685 0.0
C1954 C 0.14574 0.27543 0.85918 0.0
C1955 C 0.1434 0.28309 0.87765 0.0
H1956 H 0.13296 0.26998 0.83192 0.0
C1957 C 0.12503 0.2888 0.88361 0.0
H1958 H 0.15966 0.27076 0.85416 0.0
C1959 C 0.10958 0.28801 0.87084 0.0
C1960 C 0.11241 0.28182 0.85191 0.0
H1961 H 0.12279 0.29468 0.89779 0.0
H1962 H 0.09576 0.2934 0.8754 0.0
C1963 C 0.13046 0.27498 0.8464 0.0
C1964 C 0.7157 0.14587 0.85873 0.0
C1965 C 0.70838 0.14318 0.87728 0.0
H1966 H 0.72087 0.13354 0.8312 0.0
C1967 C 0.70296 0.12468 0.88306 0.0
H1968 H 0.72014 0.1599 0.85383 0.0
C1969 C 0.70371 0.10942 0.87005 0.0
C1970 C 0.70957 0.11258 0.85106 0.0
H1971 H 0.69734 0.12217 0.89729 0.0
H1972 H 0.69854 0.09549 0.8745 0.0
C1973 C 0.71612 0.13077 0.84571 0.0
C1974 C 0.85755 0.71791 0.84077 0.0
C1975 C 0.87566 0.71188 0.84697 0.0
H1976 H 0.82803 0.72142 0.84764 0.0
C1977 C 0.87819 0.70644 0.86618 0.0
H1978 H 0.85527 0.72231 0.82607 0.0
C1979 C 0.86243 0.70558 0.87857 0.0
C1980 C 0.84406 0.71046 0.87196 0.0
H1981 H 0.89205 0.70166 0.87127 0.0
H1982 H 0.8645 0.70028 0.893 0.0
C1983 C 0.84195 0.71739 0.85318 0.0
C1984 C 0.12485 0.28662 0.11335 0.0
C1985 C 0.14416 0.28222 0.11703 0.0
H1986 H 0.09721 0.29255 0.12541 0.0
C1987 C 0.14983 0.27795 0.13581 0.0
H1988 H 0.12012 0.29003 0.09898 0.0
C1989 C 0.13673 0.2791 0.1508 0.0
C1990 C 0.11775 0.28491 0.14739 0.0
H1991 H 0.16459 0.27438 0.13901 0.0
H1992 H 0.1418 0.27642 0.16521 0.0
C1993 C 0.11176 0.28813 0.12846 0.0
C1994 C 0.14841 0.71731 0.85808 0.0
C1995 C 0.14333 0.71153 0.87662 0.0
H1996 H 0.13984 0.72008 0.82893 0.0
C1997 C 0.12437 0.70586 0.88031 0.0
H1998 H 0.16289 0.72188 0.85489 0.0
C1999 C 0.11114 0.70447 0.8653 0.0
C2000 C 0.11664 0.70906 0.8465 0.0
H2001 H 0.12013 0.70127 0.89451 0.0
H2002 H 0.09694 0.69898 0.86827 0.0
C2003 C 0.13516 0.71627 0.84322 0.0
C2004 C 0.27413 0.146 0.85973 0.0
C2005 C 0.28046 0.14075 0.87804 0.0
H2006 H 0.27077 0.13785 0.83053 0.0
C2007 C 0.28658 0.12186 0.8813 0.0
H2008 H 0.26921 0.16044 0.8569 0.0
C2009 C 0.28783 0.10889 0.86604 0.0
C2010 C 0.28266 0.1146 0.84744 0.0
H2011 H 0.29159 0.1175 0.89531 0.0
H2012 H 0.29366 0.09476 0.86864 0.0
C2013 C 0.27503 0.13301 0.84464 0.0
C2014 C 0.86813 0.28656 0.87873 0.0
C2015 C 0.84926 0.28015 0.87591 0.0
H2016 H 0.89505 0.29339 0.86554 0.0
C2017 C 0.8439 0.27304 0.85792 0.0
H2018 H 0.87258 0.29217 0.8925 0.0
C2019 C 0.85673 0.27347 0.84267 0.0
C2020 C 0.8751 0.28138 0.84499 0.0
H2021 H 0.82948 0.26787 0.85542 0.0
H2022 H 0.8518 0.26861 0.82879 0.0
C2023 C 0.88095 0.28732 0.86331 0.0
C2024 C 0.68606 0.87121 0.88072 0.0
C2025 C 0.70332 0.86271 0.88651 0.0
H2026 H 0.67203 0.88904 0.86007 0.0
C2027 C 0.72035 0.86729 0.87693 0.0
H2028 H 0.67277 0.86774 0.88794 0.0
C2029 C 0.71984 0.87896 0.86068 0.0
C2030 C 0.70241 0.88669 0.85429 0.0
H2031 H 0.73377 0.86071 0.8811 0.0
H2032 H 0.73289 0.8812 0.85258 0.0
C2033 C 0.68567 0.88343 0.8649 0.0
C2034 C 0.86939 0.70076 0.10904 0.0
C2035 C 0.85044 0.70705 0.11156 0.0
H2036 H 0.89627 0.69451 0.12261 0.0
C2037 C 0.84484 0.71443 0.12937 0.0
H2038 H 0.87402 0.69496 0.09542 0.0
C2039 C 0.85754 0.71446 0.14473 0.0
C2040 C 0.87603 0.70675 0.14274 0.0
H2041 H 0.83036 0.71954 0.13163 0.0
H2042 H 0.85243 0.71957 0.15846 0.0
C2043 C 0.88208 0.70046 0.12459 0.0
C2044 C 0.28693 0.87933 0.12774 0.0
C2045 C 0.28164 0.87357 0.14627 0.0
H2046 H 0.29111 0.87079 0.09851 0.0
C2047 C 0.27425 0.85504 0.14901 0.0
H2048 H 0.29258 0.89355 0.12519 0.0
C2049 C 0.27368 0.84204 0.13391 0.0
C2050 C 0.28012 0.84738 0.11567 0.0
H2051 H 0.26992 0.85016 0.16308 0.0
H2052 H 0.26892 0.82754 0.1367 0.0
C2053 C 0.28602 0.86635 0.11248 0.0
C2054 C 0.72018 0.14785 0.13519 0.0
C2055 C 0.71487 0.14329 0.11638 0.0
H2056 H 0.72197 0.13858 0.16419 0.0
C2057 C 0.70903 0.12452 0.11206 0.0
H2058 H 0.72484 0.16219 0.13884 0.0
C2059 C 0.70698 0.11098 0.12672 0.0
C2060 C 0.7111 0.11598 0.14577 0.0
H2061 H 0.70477 0.12071 0.09764 0.0
H2062 H 0.70135 0.09695 0.12326 0.0
C2063 C 0.71851 0.13428 0.14969 0.0
C2064 C 0.11034 0.62141 0.78845 0.0
C2065 C 0.11316 0.64033 0.78223 0.0
H2066 H 0.12356 0.59447 0.79511 0.0
C2067 C 0.13119 0.64581 0.77533 0.0
H2068 H 0.09653 0.61687 0.7939 0.0
C2069 C 0.14647 0.63302 0.77573 0.0
C2070 C 0.14414 0.61457 0.78342 0.0
H2071 H 0.13368 0.66028 0.77031 0.0
H2072 H 0.16037 0.63803 0.77101 0.0
C2073 C 0.12579 0.60863 0.78921 0.0
C2074 C 0.85775 0.64635 0.77472 0.0
C2075 C 0.87631 0.64424 0.78225 0.0
H2076 H 0.83059 0.63324 0.76953 0.0
C2077 C 0.8825 0.62599 0.78804 0.0
H2078 H 0.85254 0.66017 0.77002 0.0
C2079 C 0.8699 0.61039 0.7874 0.0
C2080 C 0.85089 0.61298 0.7813 0.0
H2081 H 0.89674 0.62393 0.79383 0.0
H2082 H 0.87464 0.59665 0.79281 0.0
C2083 C 0.84513 0.63093 0.77445 0.0
C2084 C 0.87937 0.36678 0.78361 0.0
C2085 C 0.87624 0.34766 0.77816 0.0
H2086 H 0.86652 0.39398 0.78989 0.0
C2087 C 0.85792 0.34202 0.77219 0.0
H2088 H 0.89339 0.37144 0.78834 0.0
C2089 C 0.84271 0.3549 0.77279 0.0
C2090 C 0.84542 0.37359 0.77975 0.0
H2091 H 0.85518 0.3274 0.76779 0.0
H2092 H 0.82861 0.3498 0.76883 0.0
C2093 C 0.864 0.37963 0.78457 0.0
C2094 C 0.12269 0.38036 0.78758 0.0
C2095 C 0.14167 0.37695 0.78179 0.0
H2096 H 0.09539 0.36794 0.79432 0.0
C2097 C 0.14692 0.35855 0.77572 0.0
H2098 H 0.11833 0.39445 0.79238 0.0
C2099 C 0.13382 0.34355 0.77655 0.0
C2100 C 0.11528 0.34654 0.78383 0.0
H2101 H 0.16142 0.35558 0.77105 0.0
H2102 H 0.13863 0.32937 0.7725 0.0
C2103 C 0.10961 0.3652 0.78875 0.0
C2104 C 0.13137 0.34954 0.2143 0.0
C2105 C 0.11252 0.35463 0.2096 0.0
H2106 H 0.16072 0.35783 0.21485 0.0
C2107 C 0.10859 0.37355 0.20395 0.0
H2108 H 0.13477 0.33512 0.21891 0.0
C2109 C 0.12359 0.38664 0.20137 0.0
C2110 C 0.14264 0.38096 0.20459 0.0
H2111 H 0.09415 0.37782 0.20021 0.0
H2112 H 0.12039 0.40075 0.1958 0.0
C2113 C 0.14624 0.36258 0.21193 0.0
C2114 C 0.12156 0.61119 0.20338 0.0
C2115 C 0.1404 0.61433 0.20976 0.0
H2116 H 0.09466 0.62403 0.19584 0.0
C2117 C 0.14569 0.63261 0.21613 0.0
H2118 H 0.11717 0.5972 0.19834 0.0
C2119 C 0.13283 0.64779 0.21496 0.0
C2120 C 0.11451 0.64511 0.20705 0.0
H2121 H 0.16008 0.63535 0.22125 0.0
H2122 H 0.13772 0.66188 0.21925 0.0
C2123 C 0.10873 0.62654 0.20188 0.0
C2124 C 0.84403 0.63424 0.21618 0.0
C2125 C 0.84664 0.61561 0.20903 0.0
H2126 H 0.85652 0.66173 0.2211 0.0
C2127 C 0.86512 0.60965 0.20375 0.0
H2128 H 0.83001 0.63927 0.22052 0.0
C2129 C 0.88046 0.62256 0.20442 0.0
C2130 C 0.87739 0.64162 0.21007 0.0
H2131 H 0.86756 0.59535 0.19827 0.0
H2132 H 0.89439 0.61797 0.19934 0.0
C2133 C 0.85921 0.64715 0.21652 0.0
C2134 C 0.86865 0.37741 0.20463 0.0
C2135 C 0.84923 0.37443 0.20901 0.0
H2136 H 0.89594 0.36438 0.19913 0.0
C2137 C 0.84295 0.35595 0.21367 0.0
H2138 H 0.87383 0.39156 0.20093 0.0
C2139 C 0.85558 0.34054 0.21295 0.0
C2140 C 0.87469 0.34323 0.20717 0.0
H2141 H 0.82808 0.35329 0.21724 0.0
H2142 H 0.85005 0.32636 0.21593 0.0
C2143 C 0.88127 0.36188 0.20354 0.0
C2144 C 0.27353 0.64765 0.63455 0.0
C2145 C 0.28093 0.64539 0.61596 0.0
H2146 H 0.26826 0.63466 0.66174 0.0
C2147 C 0.28629 0.62701 0.60973 0.0
H2148 H 0.26914 0.66157 0.63978 0.0
C2149 C 0.28543 0.61144 0.62234 0.0
C2150 C 0.27952 0.61416 0.64139 0.0
H2151 H 0.29195 0.62484 0.59546 0.0
H2152 H 0.29057 0.59761 0.61758 0.0
C2153 C 0.27302 0.63224 0.64717 0.0
C2154 C 0.86016 0.77482 0.64521 0.0
C2155 C 0.87839 0.78089 0.63942 0.0
H2156 H 0.83072 0.77169 0.63786 0.0
C2157 C 0.88122 0.78682 0.6204 0.0
H2158 H 0.85766 0.77005 0.65977 0.0
C2159 C 0.86563 0.78813 0.60783 0.0
C2160 C 0.84714 0.78318 0.61406 0.0
H2161 H 0.89517 0.79164 0.61563 0.0
H2162 H 0.86791 0.79381 0.59358 0.0
C2163 C 0.84474 0.77576 0.63262 0.0
C2164 C 0.70288 0.364 0.608 0.0
C2165 C 0.70827 0.34568 0.61434 0.0
H2166 H 0.69861 0.39346 0.61566 0.0
C2167 C 0.71569 0.34355 0.63293 0.0
H2168 H 0.69718 0.36607 0.59372 0.0
C2169 C 0.71622 0.35903 0.64545 0.0
C2170 C 0.70971 0.37707 0.63956 0.0
H2171 H 0.72011 0.32966 0.63824 0.0
H2172 H 0.72102 0.35672 0.66003 0.0
C2173 C 0.70376 0.37966 0.62051 0.0
C2174 C 0.14803 0.21786 0.63719 0.0
C2175 C 0.14556 0.21069 0.61854 0.0
H2176 H 0.13539 0.2227 0.66464 0.0
C2177 C 0.12713 0.20527 0.61252 0.0
H2178 H 0.16201 0.22228 0.64228 0.0
C2179 C 0.11173 0.20586 0.62536 0.0
C2180 C 0.11467 0.21154 0.64444 0.0
H2181 H 0.12479 0.19978 0.5982 0.0
H2182 H 0.09786 0.20069 0.62071 0.0
C2183 C 0.1328 0.2181 0.65005 0.0
C2184 C 0.27242 0.34043 0.35535 0.0
C2185 C 0.27981 0.34374 0.37378 0.0
H2186 H 0.26655 0.35208 0.32766 0.0
C2187 C 0.28445 0.36254 0.37923 0.0
H2188 H 0.26856 0.32615 0.35071 0.0
C2189 C 0.28292 0.37754 0.366 0.0
C2190 C 0.27706 0.37382 0.34711 0.0
H2191 H 0.29009 0.36552 0.39337 0.0
H2192 H 0.28755 0.39175 0.37017 0.0
C2193 C 0.27125 0.35528 0.3421 0.0
C2194 C 0.1111 0.78505 0.36685 0.0
C2195 C 0.11425 0.77961 0.34773 0.0
H2196 H 0.12394 0.79139 0.39406 0.0
C2197 C 0.13259 0.77372 0.34209 0.0
H2198 H 0.09706 0.78972 0.37152 0.0
C2199 C 0.1478 0.7744 0.35495 0.0
C2200 C 0.14508 0.78135 0.37365 0.0
H2201 H 0.13534 0.76932 0.32746 0.0
H2202 H 0.16192 0.77049 0.34984 0.0
C2203 C 0.12648 0.78608 0.3797 0.0
C2204 C 0.71556 0.63074 0.34467 0.0
C2205 C 0.70901 0.61258 0.35012 0.0
H2206 H 0.71932 0.65997 0.35251 0.0
C2207 C 0.70283 0.60961 0.36904 0.0
H2208 H 0.72054 0.63335 0.3302 0.0
C2209 C 0.70179 0.62501 0.38185 0.0
C2210 C 0.70723 0.64347 0.37596 0.0
H2211 H 0.69766 0.5957 0.37356 0.0
H2212 H 0.69594 0.62265 0.39602 0.0
C2213 C 0.71487 0.64598 0.3575 0.0
C2214 C 0.87968 0.20365 0.36822 0.0
C2215 C 0.87697 0.20945 0.34914 0.0
H2216 H 0.86629 0.19748 0.39519 0.0
C2217 C 0.85894 0.21611 0.34337 0.0
H2218 H 0.89348 0.19839 0.37297 0.0
C2219 C 0.84356 0.21588 0.35605 0.0
C2220 C 0.8458 0.20861 0.37469 0.0
H2221 H 0.85653 0.2208 0.32877 0.0
H2222 H 0.82967 0.2204 0.35084 0.0
C2223 C 0.86413 0.20307 0.38089 0.0
C2224 C 0.12039 0.78636 0.61063 0.0
C2225 C 0.13951 0.78054 0.61305 0.0
H2226 H 0.09369 0.79273 0.62447 0.0
C2227 C 0.14561 0.77402 0.63102 0.0
H2228 H 0.1154 0.79151 0.59688 0.0
C2229 C 0.13321 0.77442 0.64662 0.0
C2230 C 0.11456 0.78174 0.64467 0.0
H2231 H 0.16024 0.76932 0.63319 0.0
H2232 H 0.13868 0.77001 0.66045 0.0
C2233 C 0.10802 0.78712 0.62641 0.0
C2234 C 0.1469 0.2171 0.36087 0.0
C2235 C 0.141 0.21032 0.37881 0.0
H2236 H 0.13964 0.22155 0.33158 0.0
C2237 C 0.12191 0.20445 0.38134 0.0
H2238 H 0.1615 0.22185 0.35861 0.0
C2239 C 0.10936 0.20392 0.3657 0.0
C2240 C 0.11569 0.20959 0.34745 0.0
H2241 H 0.11706 0.1991 0.39507 0.0
H2242 H 0.09505 0.19829 0.36771 0.0
C2243 C 0.13433 0.21693 0.34541 0.0
C2244 C 0.27436 0.63238 0.34527 0.0
C2245 C 0.28142 0.61372 0.34794 0.0
H2246 H 0.26924 0.65983 0.35778 0.0
C2247 C 0.28635 0.60769 0.36649 0.0
H2248 H 0.27031 0.63747 0.33119 0.0
C2249 C 0.28538 0.62054 0.38187 0.0
C2250 C 0.27981 0.63962 0.37878 0.0
H2251 H 0.29175 0.59337 0.36898 0.0
H2252 H 0.29018 0.6159 0.39588 0.0
C2253 C 0.27375 0.64524 0.36049 0.0
C2254 C 0.8678 0.78477 0.38069 0.0
C2255 C 0.84872 0.77916 0.37761 0.0
H2256 H 0.89492 0.79132 0.36778 0.0
C2257 C 0.84308 0.77318 0.3593 0.0
H2258 H 0.87246 0.78951 0.39471 0.0
C2259 C 0.85591 0.77393 0.34405 0.0
C2260 C 0.87455 0.78105 0.34671 0.0
H2261 H 0.82849 0.76866 0.35659 0.0
H2262 H 0.85079 0.76996 0.32996 0.0
C2263 C 0.88061 0.78587 0.36529 0.0
C2264 C 0.71578 0.34448 0.35913 0.0
C2265 C 0.70927 0.35051 0.37713 0.0
H2266 H 0.71972 0.35147 0.3297 0.0
C2267 C 0.70338 0.36959 0.37959 0.0
H2268 H 0.72055 0.32988 0.35691 0.0
C2269 C 0.70257 0.38199 0.36383 0.0
C2270 C 0.70795 0.37552 0.34554 0.0
H2271 H 0.69824 0.37454 0.39336 0.0
H2272 H 0.69692 0.3963 0.36581 0.0
C2273 C 0.71531 0.35689 0.34355 0.0
C2274 C 0.88191 0.20075 0.62542 0.0
C2275 C 0.87615 0.20604 0.64396 0.0
H2276 H 0.87339 0.19678 0.59615 0.0
C2277 C 0.85767 0.21358 0.64668 0.0
H2278 H 0.89609 0.19497 0.62289 0.0
C2279 C 0.84471 0.21433 0.63155 0.0
C2280 C 0.85004 0.20792 0.61329 0.0
H2281 H 0.85279 0.21792 0.66075 0.0
H2282 H 0.83025 0.21922 0.63432 0.0
C2283 C 0.86897 0.20185 0.61012 0.0
C2284 C 0.28762 0.3715 0.61011 0.0
C2285 C 0.28165 0.35248 0.61276 0.0
H2286 H 0.29432 0.39829 0.62363 0.0
C2287 C 0.27522 0.34663 0.63085 0.0
H2288 H 0.2927 0.37631 0.59627 0.0
C2289 C 0.27585 0.35917 0.64632 0.0
C2290 C 0.2833 0.37774 0.64412 0.0
H2291 H 0.2704 0.33207 0.63321 0.0
H2292 H 0.27149 0.35388 0.66023 0.0
C2293 C 0.28861 0.38403 0.62575 0.0
C2294 C 0.71732 0.63563 0.64707 0.0
C2295 C 0.71042 0.61691 0.64441 0.0
H2296 H 0.72209 0.66316 0.6346 0.0
C2297 C 0.70544 0.61087 0.62587 0.0
H2298 H 0.7214 0.64073 0.66114 0.0
C2299 C 0.70619 0.62375 0.61051 0.0
C2300 C 0.71159 0.64288 0.61362 0.0
H2301 H 0.70016 0.5965 0.62338 0.0
H2302 H 0.70135 0.61908 0.59653 0.0
C2303 C 0.71771 0.64852 0.63188 0.0
C2304 C 0.64641 0.13373 0.77699 0.0
C2305 C 0.64383 0.11519 0.78437 0.0
H2306 H 0.63393 0.16119 0.77186 0.0
C2307 C 0.62539 0.10934 0.78991 0.0
H2308 H 0.6604 0.13868 0.77246 0.0
C2309 C 0.61006 0.12227 0.78923 0.0
C2310 C 0.61312 0.14126 0.78332 0.0
H2311 H 0.62297 0.09511 0.79557 0.0
H2312 H 0.59617 0.11778 0.79448 0.0
C2313 C 0.63126 0.14668 0.77665 0.0
C2314 C 0.35691 0.14689 0.77574 0.0
C2315 C 0.37551 0.14483 0.78317 0.0
H2316 H 0.32981 0.13367 0.77055 0.0
C2317 C 0.38185 0.12655 0.78873 0.0
H2318 H 0.35159 0.16073 0.7712 0.0
C2319 C 0.36934 0.11089 0.78801 0.0
C2320 C 0.35029 0.11342 0.78204 0.0
H2321 H 0.39614 0.12453 0.79443 0.0
H2322 H 0.37419 0.09713 0.79327 0.0
C2323 C 0.34439 0.1314 0.77537 0.0
C2324 C 0.36118 0.84238 0.77513 0.0
C2325 C 0.37924 0.84823 0.78166 0.0
H2326 H 0.33185 0.84973 0.77102 0.0
C2327 C 0.38191 0.86733 0.78742 0.0
H2328 H 0.35879 0.82778 0.77046 0.0
C2329 C 0.36631 0.87994 0.78807 0.0
C2330 C 0.34796 0.87366 0.78266 0.0
H2331 H 0.39573 0.87215 0.79257 0.0
H2332 H 0.36845 0.89426 0.79361 0.0
C2333 C 0.34575 0.855 0.77545 0.0
C2334 C 0.62579 0.87716 0.78638 0.0
C2335 C 0.64524 0.87414 0.78211 0.0
H2336 H 0.59845 0.86418 0.79173 0.0
C2337 C 0.65151 0.85564 0.7775 0.0
H2338 H 0.62061 0.89131 0.79003 0.0
C2339 C 0.63884 0.84025 0.77816 0.0
C2340 C 0.61971 0.84298 0.78383 0.0
H2341 H 0.66639 0.85295 0.77402 0.0
H2342 H 0.64436 0.82606 0.77523 0.0
C2343 C 0.61314 0.86165 0.78741 0.0
C2344 C 0.64733 0.85648 0.21665 0.0
C2345 C 0.64521 0.87509 0.2093 0.0
H2346 H 0.6342 0.8293 0.2217 0.0
C2347 C 0.62691 0.88136 0.20369 0.0
H2348 H 0.66119 0.85121 0.22122 0.0
C2349 C 0.61129 0.86878 0.20433 0.0
C2350 C 0.61389 0.84973 0.21023 0.0
H2351 H 0.62484 0.89565 0.19805 0.0
H2352 H 0.59752 0.87359 0.19904 0.0
C2353 C 0.63188 0.84388 0.21693 0.0
C2354 C 0.63441 0.14613 0.21602 0.0
C2355 C 0.61585 0.14427 0.20845 0.0
H2356 H 0.66145 0.13271 0.22109 0.0
C2357 C 0.6095 0.12614 0.20244 0.0
H2358 H 0.63975 0.15985 0.22088 0.0
C2359 C 0.62196 0.11042 0.20291 0.0
C2360 C 0.64098 0.11277 0.20905 0.0
H2361 H 0.59524 0.12428 0.19662 0.0
H2362 H 0.6171 0.09679 0.19734 0.0
C2363 C 0.6469 0.13059 0.21612 0.0
C2364 C 0.34671 0.13194 0.21522 0.0
C2365 C 0.34888 0.11335 0.2078 0.0
H2366 H 0.35983 0.15906 0.22054 0.0
C2367 C 0.36723 0.10705 0.20242 0.0
H2368 H 0.33281 0.13723 0.21963 0.0
C2369 C 0.38288 0.11959 0.20331 0.0
C2370 C 0.38024 0.13863 0.20925 0.0
H2371 H 0.36934 0.09279 0.19673 0.0
H2372 H 0.39671 0.11478 0.19817 0.0
C2373 C 0.36218 0.14449 0.21575 0.0
C2374 C 0.38025 0.86343 0.20624 0.0
C2375 C 0.37415 0.84508 0.2118 0.0
H2376 H 0.37219 0.8927 0.20147 0.0
C2377 C 0.35551 0.84276 0.21904 0.0
H2378 H 0.39456 0.86565 0.20067 0.0
C2379 C 0.34273 0.85806 0.21922 0.0
C2380 C 0.34841 0.8761 0.21251 0.0
H2381 H 0.35036 0.82885 0.22358 0.0
H2382 H 0.32814 0.85558 0.22389 0.0
C2383 C 0.36749 0.8789 0.20675 0.0
C2384 C 0.78688 0.12462 0.61014 0.0
C2385 C 0.78194 0.14323 0.61598 0.0
H2386 H 0.79059 0.09531 0.61861 0.0
C2387 C 0.7747 0.14606 0.63455 0.0
H2388 H 0.79241 0.12201 0.59589 0.0
C2389 C 0.77393 0.13095 0.64752 0.0
C2390 C 0.78002 0.11261 0.64211 0.0
H2391 H 0.77063 0.16019 0.63949 0.0
H2392 H 0.7693 0.1338 0.66206 0.0
C2393 C 0.78576 0.10935 0.6231 0.0
C2394 C 0.35937 0.27582 0.645 0.0
C2395 C 0.37773 0.28182 0.63955 0.0
H2396 H 0.33004 0.27288 0.63713 0.0
C2397 C 0.38091 0.28781 0.62061 0.0
H2398 H 0.35659 0.271 0.65949 0.0
C2399 C 0.36555 0.28925 0.60777 0.0
C2400 C 0.34693 0.2844 0.61367 0.0
H2401 H 0.39497 0.29257 0.6161 0.0
H2402 H 0.36811 0.29498 0.59359 0.0
C2403 C 0.34417 0.2769 0.63215 0.0
C2404 C 0.2144 0.84392 0.63212 0.0
C2405 C 0.20658 0.84669 0.61378 0.0
H2406 H 0.22053 0.85622 0.65947 0.0
C2407 C 0.20128 0.86526 0.60812 0.0
H2408 H 0.21877 0.82984 0.63692 0.0
C2409 C 0.20265 0.88054 0.62106 0.0
C2410 C 0.20901 0.87731 0.63988 0.0
H2411 H 0.19528 0.86783 0.59405 0.0
H2412 H 0.19757 0.89454 0.61676 0.0
C2413 C 0.21542 0.85902 0.64508 0.0
C2414 C 0.61076 0.70455 0.62176 0.0
C2415 C 0.61364 0.71037 0.64081 0.0
H2416 H 0.62396 0.69817 0.59473 0.0
C2417 C 0.63175 0.7169 0.64646 0.0
H2418 H 0.59689 0.69939 0.6171 0.0
C2419 C 0.64705 0.7165 0.6337 0.0
C2420 C 0.64466 0.70918 0.6151 0.0
H2421 H 0.63428 0.7216 0.66104 0.0
H2422 H 0.66101 0.72091 0.63884 0.0
C2423 C 0.62624 0.70379 0.60901 0.0
C2424 C 0.78743 0.86408 0.38357 0.0
C2425 C 0.78207 0.84576 0.37721 0.0
H2426 H 0.79165 0.89356 0.37594 0.0
C2427 C 0.77463 0.84363 0.35863 0.0
H2428 H 0.79313 0.86615 0.39784 0.0
C2429 C 0.77407 0.85914 0.34612 0.0
C2430 C 0.78056 0.87717 0.35204 0.0
H2431 H 0.77024 0.82975 0.3533 0.0
H2432 H 0.76927 0.85683 0.33155 0.0
C2433 C 0.78652 0.87976 0.37109 0.0
C2434 C 0.60922 0.28794 0.37029 0.0
C2435 C 0.61214 0.28185 0.35133 0.0
H2436 H 0.62236 0.29485 0.39721 0.0
C2437 C 0.63032 0.27544 0.34576 0.0
H2438 H 0.5953 0.29302 0.37488 0.0
C2439 C 0.64562 0.27619 0.35851 0.0
C2440 C 0.64316 0.28375 0.377 0.0
H2441 H 0.63289 0.27054 0.33126 0.0
H2442 H 0.65962 0.27184 0.35343 0.0
C2443 C 0.62469 0.28905 0.38302 0.0
C2444 C 0.2167 0.13295 0.34469 0.0
C2445 C 0.21042 0.11455 0.34966 0.0
H2446 H 0.22006 0.16201 0.35332 0.0
C2447 C 0.20436 0.11099 0.36852 0.0
H2448 H 0.22157 0.13603 0.33028 0.0
C2449 C 0.20314 0.12602 0.38175 0.0
C2450 C 0.20828 0.1447 0.37634 0.0
H2451 H 0.19938 0.0969 0.37267 0.0
H2452 H 0.19737 0.12318 0.39586 0.0
C2453 C 0.21583 0.14782 0.35793 0.0
C2454 C 0.36482 0.69978 0.38395 0.0
C2455 C 0.34653 0.70562 0.3779 0.0
H2456 H 0.3941 0.69495 0.37588 0.0
C2457 C 0.34433 0.71329 0.35941 0.0
H2458 H 0.36695 0.69389 0.39813 0.0
C2459 C 0.35968 0.71361 0.34671 0.0
C2460 C 0.37765 0.70664 0.3523 0.0
H2461 H 0.33048 0.71806 0.35432 0.0
H2462 H 0.35729 0.71863 0.33222 0.0
C2463 C 0.38035 0.70044 0.37125 0.0
C2464 C 0.63486 0.27375 0.64774 0.0
C2465 C 0.61624 0.281 0.64531 0.0
H2466 H 0.66214 0.26842 0.63492 0.0
C2467 C 0.61005 0.28603 0.62682 0.0
H2468 H 0.64007 0.26961 0.66175 0.0
C2469 C 0.62272 0.285 0.6113 0.0
C2470 C 0.6418 0.27925 0.61417 0.0
H2471 H 0.59575 0.29158 0.62451 0.0
H2472 H 0.61797 0.2899 0.59737 0.0
C2473 C 0.64755 0.27307 0.63237 0.0
C2474 C 0.60894 0.70261 0.36382 0.0
C2475 C 0.61522 0.70788 0.34544 0.0
H2476 H 0.6167 0.69851 0.39329 0.0
C2477 C 0.63381 0.71527 0.3432 0.0
H2478 H 0.59466 0.69696 0.36599 0.0
C2479 C 0.6464 0.71587 0.35865 0.0
C2480 C 0.64056 0.70947 0.37675 0.0
H2481 H 0.63908 0.71959 0.32927 0.0
H2482 H 0.66097 0.72064 0.35625 0.0
C2483 C 0.6215 0.70357 0.37944 0.0
C2484 C 0.77293 0.14828 0.35776 0.0
C2485 C 0.77896 0.14274 0.37608 0.0
H2486 H 0.76949 0.14036 0.32849 0.0
C2487 C 0.78443 0.12364 0.37928 0.0
H2488 H 0.7685 0.16288 0.35496 0.0
C2489 C 0.78534 0.11071 0.36398 0.0
C2490 C 0.78047 0.11665 0.34538 0.0
H2491 H 0.7892 0.11904 0.39331 0.0
H2492 H 0.79067 0.09637 0.36655 0.0
C2493 C 0.77349 0.13533 0.34261 0.0
C2494 C 0.38015 0.28531 0.36406 0.0
C2495 C 0.37403 0.27984 0.34569 0.0
H2496 H 0.37213 0.28982 0.39339 0.0
C2497 C 0.35541 0.27253 0.34335 0.0
H2498 H 0.39444 0.29091 0.3663 0.0
C2499 C 0.34266 0.27221 0.35867 0.0
C2500 C 0.34836 0.2788 0.37675 0.0
H2501 H 0.35025 0.26808 0.32941 0.0
H2502 H 0.32808 0.2675 0.35619 0.0
C2503 C 0.36742 0.28462 0.37956 0.0
C2504 C 0.21562 0.8572 0.34347 0.0
C2505 C 0.20821 0.87567 0.34648 0.0
H2506 H 0.22123 0.82961 0.35546 0.0
C2507 C 0.20318 0.88127 0.36515 0.0
H2508 H 0.21976 0.85245 0.3293 0.0
C2509 C 0.20438 0.86816 0.38028 0.0
C2510 C 0.21029 0.84923 0.37683 0.0
H2511 H 0.19751 0.89543 0.3679 0.0
H2512 H 0.19948 0.87245 0.39436 0.0
C2513 C 0.21647 0.84407 0.35845 0.0
C2514 C 0.36684 0.70609 0.61137 0.0
C2515 C 0.34778 0.71166 0.61469 0.0
H2516 H 0.3941 0.6995 0.62394 0.0
C2517 C 0.34234 0.71754 0.6331 0.0
H2518 H 0.37135 0.70144 0.59727 0.0
C2519 C 0.35534 0.71671 0.6482 0.0
C2520 C 0.37396 0.70963 0.64528 0.0
H2521 H 0.32777 0.72203 0.636 0.0
H2522 H 0.35038 0.7206 0.66237 0.0
C2523 C 0.37982 0.70491 0.62662 0.0
C2524 C 0.77573 0.84504 0.63243 0.0
C2525 C 0.78182 0.85087 0.61422 0.0
H2526 H 0.77257 0.85233 0.66188 0.0
C2527 C 0.78775 0.86989 0.61145 0.0
H2528 H 0.77095 0.83049 0.6349 0.0
C2529 C 0.78903 0.88244 0.62706 0.0
C2530 C 0.78407 0.87616 0.64553 0.0
H2531 H 0.79258 0.87469 0.59751 0.0
H2532 H 0.7947 0.89669 0.62481 0.0
C2533 C 0.77666 0.8576 0.64788 0.0
C2534 C 0.21791 0.14956 0.63426 0.0
C2535 C 0.21177 0.14425 0.6159 0.0
H2536 H 0.22142 0.1413 0.66342 0.0
C2537 C 0.20618 0.12522 0.61251 0.0
H2538 H 0.22243 0.1641 0.63721 0.0
C2539 C 0.20526 0.11212 0.62767 0.0
C2540 C 0.21024 0.11784 0.64631 0.0
H2541 H 0.20133 0.12079 0.59846 0.0
H2542 H 0.19984 0.09785 0.62496 0.0
C2543 C 0.21733 0.13645 0.64927 0.0
C2544 C 0.61081 0.62194 0.28461 0.0
C2545 C 0.61413 0.64098 0.27904 0.0
H2546 H 0.6234 0.59473 0.29135 0.0
C2547 C 0.63257 0.64645 0.27329 0.0
H2548 H 0.59669 0.61741 0.28918 0.0
C2549 C 0.6477 0.6335 0.27425 0.0
C2550 C 0.64478 0.6149 0.28136 0.0
H2551 H 0.63547 0.66102 0.2688 0.0
H2552 H 0.66189 0.63849 0.27046 0.0
C2553 C 0.62608 0.609 0.28593 0.0
C2554 C 0.35698 0.64427 0.27726 0.0
C2555 C 0.37545 0.64152 0.2848 0.0
H2556 H 0.32951 0.63201 0.27167 0.0
C2557 C 0.38113 0.62298 0.29018 0.0
H2558 H 0.35215 0.65833 0.27285 0.0
C2559 C 0.36812 0.60773 0.28916 0.0
C2560 C 0.3492 0.61095 0.28308 0.0
H2561 H 0.3953 0.62042 0.29597 0.0
H2562 H 0.37248 0.59376 0.29429 0.0
C2563 C 0.34396 0.6292 0.27659 0.0
C2564 C 0.37743 0.36479 0.28466 0.0
C2565 C 0.37471 0.34566 0.27903 0.0
H2566 H 0.36403 0.39175 0.29086 0.0
C2567 C 0.35659 0.33977 0.27271 0.0
H2568 H 0.39129 0.36966 0.28965 0.0
C2569 C 0.34116 0.35239 0.27314 0.0
C2570 C 0.34344 0.37108 0.28025 0.0
H2571 H 0.35416 0.32514 0.26816 0.0
H2572 H 0.32721 0.34708 0.2689 0.0
C2573 C 0.36184 0.3774 0.28542 0.0
C2574 C 0.62193 0.38 0.28518 0.0
C2575 C 0.64089 0.37644 0.2794 0.0
H2576 H 0.59467 0.36772 0.29234 0.0
C2577 C 0.64612 0.35792 0.27374 0.0
H2578 H 0.61759 0.39419 0.28968 0.0
C2579 C 0.63304 0.34294 0.27497 0.0
C2580 C 0.61454 0.34609 0.28227 0.0
H2581 H 0.66061 0.35486 0.2691 0.0
H2582 H 0.63785 0.32868 0.27122 0.0
C2583 C 0.60886 0.36486 0.28677 0.0
C2584 C 0.61078 0.3682 0.70377 0.0
C2585 C 0.6142 0.34935 0.70992 0.0
H2586 H 0.62321 0.39536 0.69653 0.0
C2587 C 0.63258 0.34423 0.71612 0.0
H2588 H 0.59669 0.37247 0.69886 0.0
C2589 C 0.64759 0.3573 0.71508 0.0
C2590 C 0.64461 0.37568 0.70744 0.0
H2591 H 0.63554 0.32982 0.72107 0.0
H2592 H 0.66176 0.35257 0.71925 0.0
C2593 C 0.62594 0.38126 0.70238 0.0
C2594 C 0.64833 0.63227 0.71591 0.0
C2595 C 0.64311 0.61389 0.70978 0.0
H2596 H 0.64 0.66142 0.71924 0.0
C2597 C 0.62414 0.61046 0.70399 0.0
H2598 H 0.66283 0.63525 0.72058 0.0
C2599 C 0.61103 0.62559 0.70288 0.0
C2600 C 0.61668 0.64425 0.70785 0.0
H2601 H 0.61979 0.59638 0.69914 0.0
H2602 H 0.59681 0.62284 0.69731 0.0
C2603 C 0.63521 0.64725 0.71513 0.0
C2604 C 0.37965 0.62237 0.70343 0.0
C2605 C 0.37667 0.64128 0.70964 0.0
H2606 H 0.36664 0.59539 0.69656 0.0
C2607 C 0.35852 0.64668 0.7163 0.0
H2608 H 0.39354 0.61789 0.69817 0.0
C2609 C 0.3433 0.63382 0.71565 0.0
C2610 C 0.34582 0.61539 0.70798 0.0
H2611 H 0.3559 0.66113 0.7213 0.0
H2612 H 0.32931 0.63877 0.72018 0.0
C2613 C 0.36427 0.60954 0.70245 0.0
C2614 C 0.34486 0.3596 0.71592 0.0
C2615 C 0.35049 0.37789 0.70991 0.0
H2616 H 0.35251 0.33024 0.719 0.0
C2617 C 0.36951 0.38092 0.70404 0.0
H2618 H 0.33032 0.35694 0.72064 0.0
C2619 C 0.38225 0.36548 0.70274 0.0
C2620 C 0.37618 0.34692 0.70762 0.0
H2621 H 0.37415 0.39493 0.69927 0.0
H2622 H 0.3965 0.36792 0.69712 0.0
C2623 C 0.35762 0.34432 0.71497 0.0
C2624 C 0.77497 0.63048 0.14667 0.0
C2625 C 0.78137 0.61214 0.14165 0.0
H2626 H 0.77125 0.6595 0.13805 0.0
C2627 C 0.78725 0.60861 0.12272 0.0
H2628 H 0.77021 0.63353 0.16112 0.0
C2629 C 0.78818 0.62363 0.10947 0.0
C2630 C 0.78292 0.64228 0.11492 0.0
H2631 H 0.79231 0.59456 0.11851 0.0
H2632 H 0.79382 0.62083 0.0953 0.0
C2633 C 0.77556 0.64535 0.13341 0.0
C2634 C 0.36423 0.78555 0.11319 0.0
C2635 C 0.34566 0.78036 0.11896 0.0
H2636 H 0.39345 0.78971 0.12176 0.0
C2637 C 0.34285 0.77317 0.13756 0.0
H2638 H 0.36683 0.79105 0.09893 0.0
C2639 C 0.35792 0.77269 0.1506 0.0
C2640 C 0.3762 0.77901 0.14524 0.0
H2641 H 0.32876 0.76892 0.14245 0.0
H2642 H 0.35508 0.76807 0.16514 0.0
C2643 C 0.37946 0.78472 0.12622 0.0
C2644 C 0.22057 0.37534 0.12607 0.0
C2645 C 0.20374 0.38584 0.1291 0.0
H2646 H 0.23296 0.35021 0.11352 0.0
C2647 C 0.18694 0.38077 0.11931 0.0
H2648 H 0.23359 0.37896 0.13369 0.0
C2649 C 0.18673 0.36477 0.10732 0.0
C2650 C 0.20312 0.35328 0.10558 0.0
H2651 H 0.1738 0.38869 0.12162 0.0
H2652 H 0.17335 0.36052 0.10069 0.0
C2653 C 0.22019 0.35895 0.1146 0.0
C2654 C 0.61464 0.20664 0.12494 0.0
C2655 C 0.61706 0.21212 0.14415 0.0
H2656 H 0.62845 0.20052 0.09816 0.0
C2657 C 0.63512 0.2183 0.15038 0.0
H2658 H 0.60083 0.20176 0.11981 0.0
C2659 C 0.65076 0.21785 0.13803 0.0
C2660 C 0.64876 0.21086 0.11926 0.0
H2661 H 0.63733 0.22274 0.16509 0.0
H2662 H 0.66464 0.22197 0.1436 0.0
C2663 C 0.63043 0.20586 0.11259 0.0
C2664 C 0.77358 0.3577 0.84152 0.0
C2665 C 0.77977 0.37599 0.84701 0.0
H2666 H 0.77011 0.32845 0.84943 0.0
C2667 C 0.7855 0.37914 0.86605 0.0
H2668 H 0.76895 0.35495 0.82696 0.0
C2669 C 0.78651 0.36382 0.87894 0.0
C2670 C 0.78148 0.34525 0.87302 0.0
H2671 H 0.79039 0.39313 0.8706 0.0
H2672 H 0.79204 0.36634 0.89321 0.0
C2673 C 0.77424 0.34254 0.85443 0.0
C2674 C 0.64924 0.77899 0.86099 0.0
C2675 C 0.64491 0.78563 0.87949 0.0
H2676 H 0.63867 0.77216 0.83312 0.0
C2677 C 0.62562 0.78769 0.88486 0.0
H2678 H 0.66394 0.77697 0.85646 0.0
C2679 C 0.61102 0.78468 0.87141 0.0
C2680 C 0.61559 0.77975 0.85242 0.0
H2681 H 0.62186 0.79267 0.89905 0.0
H2682 H 0.59634 0.78755 0.87551 0.0
C2683 C 0.63476 0.77618 0.84759 0.0
C2684 C 0.20503 0.62713 0.88073 0.0
C2685 C 0.2102 0.64549 0.87433 0.0
H2686 H 0.20074 0.59766 0.8731 0.0
C2687 C 0.21719 0.6477 0.85559 0.0
H2688 H 0.19967 0.62499 0.89513 0.0
C2689 C 0.21752 0.63224 0.84301 0.0
C2690 C 0.21123 0.61416 0.849 0.0
H2691 H 0.22142 0.66162 0.85022 0.0
H2692 H 0.222 0.63462 0.82835 0.0
C2693 C 0.20571 0.6115 0.86817 0.0
C2694 C 0.34223 0.21632 0.85646 0.0
C2695 C 0.34507 0.20932 0.87511 0.0
H2696 H 0.35459 0.22169 0.82898 0.0
C2697 C 0.36375 0.20481 0.88112 0.0
H2698 H 0.32806 0.22006 0.85139 0.0
C2699 C 0.37909 0.2061 0.86826 0.0
C2700 C 0.37585 0.2116 0.84917 0.0
H2701 H 0.36637 0.19947 0.89545 0.0
H2702 H 0.39319 0.2016 0.87289 0.0
C2703 C 0.35742 0.21726 0.84358 0.0
C2704 C 0.63422 0.77455 0.14765 0.0
C2705 C 0.61598 0.78253 0.14465 0.0
H2706 H 0.66178 0.7685 0.13581 0.0
C2707 C 0.61072 0.78816 0.12606 0.0
H2708 H 0.6387 0.76992 0.16176 0.0
C2709 C 0.62396 0.78701 0.11104 0.0
C2710 C 0.6427 0.78052 0.11453 0.0
H2711 H 0.59673 0.79428 0.12331 0.0
H2712 H 0.61995 0.79238 0.09705 0.0
C2713 C 0.64749 0.77372 0.13279 0.0
C2714 C 0.64676 0.21545 0.86223 0.0
C2715 C 0.64135 0.2085 0.88027 0.0
H2716 H 0.63883 0.21994 0.83313 0.0
C2717 C 0.6224 0.20238 0.88317 0.0
H2718 H 0.66125 0.22041 0.85967 0.0
C2719 C 0.60951 0.20179 0.86779 0.0
C2720 C 0.61537 0.20762 0.84944 0.0
H2721 H 0.61791 0.19692 0.89698 0.0
H2722 H 0.59532 0.19598 0.87009 0.0
C2723 C 0.63387 0.21519 0.84703 0.0
C2724 C 0.78512 0.61091 0.86382 0.0
C2725 C 0.78097 0.61616 0.84484 0.0
H2726 H 0.78753 0.62031 0.89299 0.0
C2727 C 0.7737 0.63456 0.84115 0.0
H2728 H 0.79065 0.5968 0.86709 0.0
C2729 C 0.77221 0.64798 0.85581 0.0
C2730 C 0.77755 0.64318 0.87455 0.0
H2731 H 0.77022 0.63905 0.82671 0.0
H2732 H 0.76766 0.6624 0.85234 0.0
C2733 C 0.78325 0.62432 0.87863 0.0
C2734 C 0.34718 0.7745 0.86107 0.0
C2735 C 0.35289 0.78106 0.87915 0.0
H2736 H 0.35473 0.77038 0.83181 0.0
C2737 C 0.37195 0.78689 0.88195 0.0
H2738 H 0.3326 0.76978 0.85859 0.0
C2739 C 0.38466 0.7876 0.86645 0.0
C2740 C 0.37853 0.78214 0.84807 0.0
H2741 H 0.37665 0.79208 0.8958 0.0
H2742 H 0.39895 0.7932 0.86867 0.0
C2743 C 0.35991 0.77484 0.84574 0.0
C2744 C 0.20332 0.38103 0.8659 0.0
C2745 C 0.20868 0.37488 0.8475 0.0
H2746 H 0.19894 0.37306 0.89526 0.0
C2747 C 0.21594 0.35625 0.84515 0.0
H2748 H 0.19775 0.39533 0.86815 0.0
C2749 C 0.21634 0.34354 0.86049 0.0
C2750 C 0.20984 0.34926 0.87859 0.0
H2751 H 0.22033 0.35107 0.8312 0.0
H2752 H 0.22102 0.32896 0.85799 0.0
C2753 C 0.20406 0.36833 0.88141 0.0
C2754 C 0.38481 0.20188 0.12539 0.0
C2755 C 0.37913 0.20691 0.14404 0.0
H2756 H 0.37616 0.1985 0.09607 0.0
C2757 C 0.36077 0.21468 0.14691 0.0
H2758 H 0.39889 0.19595 0.12274 0.0
C2759 C 0.3478 0.21585 0.13183 0.0
C2760 C 0.35301 0.20966 0.11346 0.0
H2761 H 0.35597 0.21885 0.16106 0.0
H2762 H 0.3334 0.22087 0.1347 0.0
C2763 C 0.37185 0.20341 0.11014 0.0
C2764 C 0.80864 0.38343 0.12643 0.0
C2765 C 0.79191 0.3868 0.13702 0.0
H2766 H 0.82148 0.36759 0.10345 0.0
C2767 C 0.77445 0.37911 0.13067 0.0
H2768 H 0.8223 0.389 0.13124 0.0
C2769 C 0.77389 0.36737 0.11448 0.0
C2770 C 0.7909 0.36268 0.1049 0.0
H2771 H 0.76142 0.38144 0.13876 0.0
H2772 H 0.76045 0.36083 0.11033 0.0
C2773 C 0.8082 0.37113 0.11066 0.0
C2774 C 0.21539 0.63377 0.14658 0.0
C2775 C 0.2081 0.61513 0.14449 0.0
H2776 H 0.22077 0.66078 0.13325 0.0
C2777 C 0.20301 0.60861 0.12614 0.0
H2778 H 0.21957 0.63923 0.16049 0.0
C2779 C 0.20405 0.62098 0.11039 0.0
C2780 C 0.20986 0.64007 0.11291 0.0
H2781 H 0.19743 0.59429 0.1241 0.0
H2782 H 0.19913 0.61599 0.09655 0.0
C2783 C 0.21608 0.64616 0.13099 0.0
C2784 C 0.99267 0.18986 0.32942 0.0
C2785 C 0.97729 0.18127 0.31968 0.0
H2786 H 0.02305 0.1933 0.33119 0.0
C2787 C 0.98107 0.16672 0.30633 0.0
H2788 H 0.99018 0.20095 0.33997 0.0
C2789 C -9e-05 0.16243 0.3012 0.0
C2790 C 0.01524 0.17251 0.30948 0.0
H2791 H 0.96951 0.15972 0.2987 0.0
H2792 H 0.00237 0.15218 0.28983 0.0
C2793 C 0.01152 0.18544 0.32442 0.0
C2794 C 0.82833 -0.00092 0.30363 0.0
C2795 C 0.81832 0.01471 0.31138 0.0
H2796 H 0.83068 0.96862 0.30187 0.0
C2797 C 0.80513 0.01152 0.32622 0.0
H2798 H 0.83879 0.00113 0.29235 0.0
C2799 C 0.80041 0.99287 0.3316 0.0
C2800 C 0.80891 0.97717 0.32233 0.0
H2801 H 0.79732 0.02331 0.3326 0.0
H2802 H 0.78913 0.99078 0.34204 0.0
C2803 C 0.82372 0.98044 0.30912 0.0
C2804 C 0.01074 0.82343 0.30633 0.0
C2805 C 0.01433 0.80829 0.31906 0.0
H2806 H 0.98959 0.83916 0.29076 0.0
C2807 C -0.00112 0.79973 0.3287 0.0
H2808 H 0.02236 0.83043 0.29881 0.0
C2809 C 0.98008 0.80482 0.32417 0.0
C2810 C 0.97648 0.81843 0.30983 0.0
H2811 H 0.00123 0.78819 0.33879 0.0
H2812 H 0.96845 0.79701 0.33083 0.0
C2813 C 0.99194 0.8284 0.30169 0.0
C2814 C 0.18377 0.98145 0.32416 0.0
C2815 C 0.17056 0.97801 0.3094 0.0
H2816 H 0.20028 0.00237 0.33922 0.0
C2817 C 0.16111 0.99359 0.30088 0.0
H2818 H 0.19117 0.96973 0.33112 0.0
C2819 C 0.16626 0.01231 0.30559 0.0
C2820 C 0.18104 0.01571 0.31879 0.0
H2821 H 0.15067 0.99136 0.28962 0.0
H2822 H 0.1597 0.02401 0.2978 0.0
C2823 C 0.18903 0.00017 0.32877 0.0
C2824 C 0.99399 0.80026 0.6606 0.0
C2825 C 0.97814 0.80855 0.66983 0.0
H2826 H 0.02448 0.79761 0.65967 0.0
C2827 C 0.98118 0.82338 0.68306 0.0
H2828 H 0.99208 0.78897 0.65015 0.0
C2829 C -0.00025 0.82825 0.6886 0.0
C2830 C 0.01555 0.81847 0.68088 0.0
H2831 H 0.96924 0.83018 0.69028 0.0
H2832 H 0.00163 0.83873 0.69989 0.0
C2833 C 0.01257 0.80525 0.66603 0.0
C2834 C 0.19093 0.99256 0.66194 0.0
C2835 C 0.18251 0.97702 0.67155 0.0
H2836 H 0.19379 0.02298 0.6602 0.0
C2837 C 0.16778 0.98051 0.68479 0.0
H2838 H 0.20216 0.99029 0.65148 0.0
C2839 C 0.16306 -0.00075 0.68986 0.0
C2840 C 0.17289 0.01478 0.68166 0.0
H2841 H 0.1609 0.96882 0.69231 0.0
H2842 H 0.15261 0.00151 0.70111 0.0
C2843 C 0.1861 0.01131 0.6669 0.0
C2844 C 0.99345 0.15982 0.69071 0.0
C2845 C 0.97785 0.16915 0.68207 0.0
H2846 H 0.02387 0.15871 0.69408 0.0
C2847 C 0.98131 0.18238 0.66734 0.0
H2848 H 0.99122 0.14936 0.70194 0.0
C2849 C 3e-05 0.18782 0.66292 0.0
C2850 C 0.01555 0.17999 0.67304 0.0
H2851 H 0.96958 0.18968 0.66028 0.0
H2852 H 0.00222 0.19911 0.65251 0.0
C2853 C 0.01218 0.16515 0.68617 0.0
C2854 C 0.80729 0.97933 0.6684 0.0
C2855 C 0.82063 0.97633 0.68315 0.0
H2856 H 0.7905 -0.00025 0.65299 0.0
C2857 C 0.82998 0.99219 0.69128 0.0
H2858 H 0.79997 0.96739 0.66174 0.0
C2859 C 0.82463 0.01075 0.68618 0.0
C2860 C 0.80974 0.01372 0.67299 0.0
H2861 H 0.84051 0.9903 0.70251 0.0
H2862 H 0.83113 0.02268 0.69367 0.0
C2863 C 0.80183 -0.00211 0.66341 0.0
C2864 C 0.30611 0.97897 0.1669 0.0
C2865 C 0.31932 0.97555 0.18167 0.0
H2866 H 0.29009 -7e-05 0.15137 0.0
C2867 C 0.32926 0.99109 0.18971 0.0
H2868 H 0.29833 0.96727 0.16031 0.0
C2869 C 0.32462 0.00982 0.1845 0.0
C2870 C 0.30985 0.01327 0.1713 0.0
H2871 H 0.33971 0.98888 0.20095 0.0
H2872 H 0.33156 0.02153 0.19193 0.0
C2873 C 0.30135 -0.0023 0.16181 0.0
C2874 C 0.97926 0.32325 0.1851 0.0
C2875 C 0.97675 0.30825 0.17194 0.0
H2876 H -0.00081 0.33973 0.2015 0.0
C2877 C 0.99287 0.30064 0.1626 0.0
H2878 H 0.9671 0.32952 0.19243 0.0
C2879 C 0.01126 0.30657 0.16771 0.0
C2880 C 0.01382 0.32011 0.18236 0.0
H2881 H 0.99136 0.28922 0.15221 0.0
H2882 H 0.02344 0.29951 0.16119 0.0
C2883 C -0.00234 0.32908 0.19033 0.0
C2884 C 0.66667 0.97834 0.18442 0.0
C2885 C 0.68186 0.975 0.17168 0.0
H2886 H 0.65053 -0.00074 0.19989 0.0
C2887 C 0.68999 0.99054 0.16182 0.0
H2888 H 0.65999 0.96664 0.19209 0.0
C2889 C 0.68448 0.00924 0.1662 0.0
C2890 C 0.67088 0.01266 0.18061 0.0
H2891 H 0.70155 0.98836 0.1517 0.0
H2892 H 0.69201 0.02097 0.15941 0.0
C2893 C 0.66127 -0.00295 0.18891 0.0
C2894 C 0.97949 0.6854 0.16482 0.0
C2895 C 0.97639 0.67216 0.17962 0.0
H2896 H 9e-05 0.70179 0.14919 0.0
C2897 C 0.99215 0.66252 0.1876 0.0
H2898 H 0.96761 0.69293 0.15827 0.0
C2899 C 0.01077 0.66752 0.18232 0.0
C2900 C 0.01388 0.68234 0.1691 0.0
H2901 H 0.99018 0.65205 0.19887 0.0
H2902 H 0.02265 0.66082 0.18971 0.0
C2903 C -0.00189 0.6905 0.15964 0.0
C2904 C 0.30237 0.99069 0.82887 0.0
C2905 C 0.31062 0.97525 0.81894 0.0
H2906 H 0.2999 0.02109 0.83128 0.0
C2907 C 0.32548 0.97882 0.80588 0.0
H2908 H 0.29105 0.98834 0.83921 0.0
C2909 C 0.33048 -0.00239 0.80126 0.0
C2910 C 0.3208 0.01308 0.80974 0.0
H2911 H 0.33223 0.96721 0.79813 0.0
H2912 H 0.34101 -3e-05 0.79011 0.0
C2913 C 0.30748 0.00947 0.82436 0.0
C2914 C 0.97845 0.30654 0.8242 0.0
C2915 C 0.97529 0.31929 0.80899 0.0
H2916 H -0.00085 0.29102 0.84056 0.0
C2917 C 0.99096 0.32909 0.80102 0.0
H2918 H 0.96664 0.29891 0.83077 0.0
C2919 C 0.0096 0.32466 0.80671 0.0
C2920 C 0.01283 0.31025 0.82035 0.0
H2921 H 0.98893 0.33921 0.78944 0.0
H2922 H 0.02144 0.33141 0.79931 0.0
C2923 C -0.00291 0.30199 0.82979 0.0
C2924 C 0.66163 0.99108 0.80032 0.0
C2925 C 0.67088 0.97559 0.80923 0.0
H2926 H 0.65985 0.02151 0.79745 0.0
C2927 C 0.68312 0.97914 0.82479 0.0
H2928 H 0.65192 0.98877 0.78844 0.0
C2929 C 0.68775 -0.00211 0.82986 0.0
C2930 C 0.68007 0.01338 0.81958 0.0
H2931 H 0.69031 0.9675 0.83208 0.0
H2932 H 0.69834 0.0002 0.84097 0.0
C2933 C 0.66613 0.00985 0.80552 0.0
C2934 C 0.01002 0.68472 0.82526 0.0
C2935 C 0.01348 0.67114 0.81084 0.0
H2936 H 0.98907 0.70158 0.83988 0.0
C2937 C -0.00209 0.66138 0.80264 0.0
H2938 H 0.02174 0.69235 0.83197 0.0
C2939 C 0.97917 0.66659 0.80726 0.0
C2940 C 0.97575 0.68174 0.82003 0.0
H2941 H 0.00015 0.65065 0.79167 0.0
H2942 H 0.96747 0.65978 0.79967 0.0
C2943 C 0.99129 0.69003 0.82976 0.0
C2944 C 0.18431 0.32388 0.01263 0.0
C2945 C 0.17175 0.30859 0.01617 0.0
H2946 H 0.19976 0.33982 0.99156 0.0
C2947 C 0.16226 0.29992 0.00069 0.0
H2948 H 0.19169 0.33098 0.02428 0.0
C2949 C 0.16678 0.30509 0.98191 0.0
C2950 C 0.18098 0.31888 0.97838 0.0
H2951 H 0.15231 0.28824 0.00299 0.0
H2952 H 0.16027 0.2972 0.97025 0.0
C2953 C 0.18895 0.32894 0.99387 0.0
C2954 C 0.19115 0.66054 -0.00312 0.0
C2955 C 0.18264 0.66979 0.01259 0.0
H2956 H 0.19431 0.65961 0.96644 0.0
C2957 C 0.16789 0.68306 0.00932 0.0
H2958 H 0.20239 0.65005 -0.00103 0.0
C2959 C 0.16334 0.68862 0.99067 0.0
C2960 C 0.17336 0.68088 0.97504 0.0
H2961 H 0.16092 0.6903 0.02114 0.0
H2962 H 0.15293 0.69994 0.98862 0.0
C2963 C 0.18649 0.66599 0.97822 0.0
C2964 C 0.30739 0.16752 0.01134 0.0
C2965 C 0.32059 0.18238 0.01436 0.0
H2966 H 0.29079 0.15194 0.99087 0.0
C2967 C 0.3299 0.19059 -0.00148 0.0
H2968 H 0.3001 0.1608 0.02327 0.0
C2969 C 0.32464 0.18543 0.97994 0.0
C2970 C 0.30989 0.1721 0.97694 0.0
H2971 H 0.34033 0.20191 0.00042 0.0
H2972 H 0.3311 0.19296 0.96802 0.0
C2973 C 0.30202 0.16247 0.99276 0.0
C2974 C 0.79684 0.33336 0.99391 0.0
C2975 C 0.80577 0.32554 0.01015 0.0
H2976 H 0.79432 0.33281 0.9634 0.0
C2977 C 0.8216 0.31337 0.00771 0.0
H2978 H 0.78475 0.34297 0.99536 0.0
C2979 C 0.827 0.30745 0.98941 0.0
C2980 C 0.81678 0.31375 0.97327 0.0
H2981 H 0.8289 0.30725 0.01995 0.0
H2982 H 0.83835 0.29696 0.98803 0.0
C2983 C 0.80237 0.32758 0.97559 0.0
C2984 C 0.69719 0.83329 -0.00249 0.0
C2985 C 0.68818 0.8257 0.9812 0.0
H2986 H 0.69967 0.83245 0.02802 0.0
C2987 C 0.67219 0.81373 0.98352 0.0
H2988 H 0.70941 0.84275 -0.00384 0.0
C2989 C 0.66669 0.80774 0.00176 0.0
C2990 C 0.67698 0.81377 0.01796 0.0
H2991 H 0.66482 0.8078 0.97122 0.0
H2992 H 0.6552 0.79739 0.00305 0.0
C2993 C 0.69157 0.82743 0.01578 0.0
C2994 C 0.8033 0.66697 0.0073 0.0
C2995 C 0.8174 0.68083 0.01096 0.0
H2996 H 0.7855 0.6536 0.98627 0.0
C2997 C 0.8268 0.68954 0.99545 0.0
H2998 H 0.79586 0.65992 0.01895 0.0
C2999 C 0.82093 0.68584 0.97669 0.0
C3000 C 0.80545 0.6735 0.97319 0.0
H3001 H 0.83787 0.70015 -0.00218 0.0
H3002 H 0.82761 0.69371 0.96511 0.0
C3003 C 0.7973 0.6634 0.98857 0.0
C3004 C 0.33159 0.80016 0.99475 0.0
C3005 C 0.32229 0.80877 0.97912 0.0
H3006 H 0.33272 0.79695 0.02518 0.0
C3007 C 0.30914 0.8236 0.98252 0.0
H3008 H 0.34199 0.78885 0.99256 0.0
C3009 C 0.30376 0.82816 0.00121 0.0
C3010 C 0.31156 0.81807 0.01678 0.0
H3011 H 0.30187 0.83064 0.97076 0.0
H3012 H 0.29253 0.83865 0.00337 0.0
C3013 C 0.32632 0.80483 0.01345 0.0
C3014 C 0.67167 0.18713 0.01481 0.0
C3015 C 0.68709 0.17466 0.01815 0.0
H3016 H 0.65473 0.2017 0.99387 0.0
C3017 C 0.69509 0.16461 0.00266 0.0
H3018 H 0.66511 0.19496 0.02648 0.0
C3019 C 0.68903 0.16834 0.98398 0.0
C3020 C 0.67501 0.18232 0.9805 0.0
H3021 H 0.70683 0.1547 0.00483 0.0
H3022 H 0.69635 0.16132 0.97225 0.0
C3023 C 0.66574 0.191 -0.00388 0.0
C3024 C 0.83032 0.49733 0.80055 0.0
C3025 C 0.82081 0.5129 0.80904 0.0
H3026 H 0.83168 0.46692 0.79735 0.0
C3027 C 0.80748 0.50943 0.82369 0.0
H3028 H 0.84085 0.49958 0.78939 0.0
C3029 C 0.80214 0.4907 0.82817 0.0
C3030 C 0.81017 0.47519 0.81818 0.0
H3031 H 0.80004 0.52113 0.83063 0.0
H3032 H 0.79079 0.48848 0.83851 0.0
C3033 C 0.82509 0.4786 0.80514 0.0
C3034 C 0.19045 0.49851 0.83009 0.0
C3035 C 0.18202 0.51404 0.82046 0.0
H3036 H 0.19324 0.46809 0.83192 0.0
C3037 C 0.16713 0.51055 0.8074 0.0
H3038 H 0.20179 0.50079 0.84043 0.0
C3039 C 0.16232 0.49181 0.80244 0.0
C3040 C 0.1722 0.47629 0.81059 0.0
H3041 H 0.16025 0.52223 0.79987 0.0
H3042 H 0.15178 0.48954 0.79128 0.0
C3043 C 0.18551 0.47977 0.82525 0.0
C3044 C 0.19408 0.49704 0.1578 0.0
C3045 C 0.18558 0.48058 0.16564 0.0
H3046 H 0.19591 0.52758 0.15842 0.0
C3047 C 0.16974 0.48262 0.17788 0.0
H3048 H 0.20616 0.4959 0.14813 0.0
C3049 C 0.16395 0.50077 0.18388 0.0
C3050 C 0.17379 0.51715 0.1776 0.0
H3051 H 0.16277 0.4702 0.18401 0.0
H3052 H 0.15264 0.50187 0.19444 0.0
C3053 C 0.18817 0.5152 0.16366 0.0
C3054 C 0.80477 0.49824 0.16285 0.0
C3055 C 0.81205 0.51375 0.17336 0.0
H3056 H 0.80303 0.46782 0.16012 0.0
C3057 C 0.82611 0.51038 0.18735 0.0
H3058 H 0.7941 0.50044 0.15179 0.0
C3059 C 0.83114 0.49166 0.19222 0.0
C3060 C 0.8223 0.47607 0.18306 0.0
H3061 H 0.83209 0.52208 0.19559 0.0
H3062 H 0.84093 0.48942 0.20404 0.0
C3063 C 0.80992 0.47954 0.16759 0.0
C3064 C 0.30147 0.49895 0.66168 0.0
C3065 C 0.30951 0.51474 0.67121 0.0
H3066 H 0.29924 0.46847 0.66019 0.0
C3067 C 0.32431 0.51168 0.68448 0.0
H3068 H 0.2902 0.50089 0.65119 0.0
C3069 C 0.32941 0.49308 0.68972 0.0
C3070 C 0.31989 0.47729 0.68166 0.0
H3071 H 0.33091 0.52357 0.69194 0.0
H3072 H 0.33986 0.49114 0.70102 0.0
C3073 C 0.30668 0.48036 0.66681 0.0
C3074 C 0.68571 0.51158 0.6647 0.0
C3075 C 0.67265 0.515 0.67959 0.0
H3076 H 0.7015 0.49059 0.64898 0.0
C3077 C 0.66262 0.4995 0.68759 0.0
H3078 H 0.69353 0.52326 0.65813 0.0
C3079 C 0.6671 0.48078 0.68226 0.0
C3080 C 0.68179 0.47729 0.66898 0.0
H3081 H 0.65225 0.50174 0.69891 0.0
H3082 H 0.66014 0.46908 0.68969 0.0
C3083 C 0.69031 0.49285 0.65948 0.0
C3084 C 0.3202 0.47648 0.30408 0.0
C3085 C 0.30499 0.4729 0.31673 0.0
H3086 H 0.33655 0.49766 0.2892 0.0
C3087 C 0.29676 0.48828 0.32675 0.0
H3088 H 0.32693 0.4649 0.29625 0.0
C3089 C 0.30237 0.50705 0.32283 0.0
C3090 C 0.31617 0.51074 0.30867 0.0
H3091 H 0.28515 0.48593 0.33678 0.0
H3092 H 0.29487 0.51868 0.32984 0.0
C3093 C 0.32569 0.49526 0.30002 0.0
C3094 C 0.66657 0.50976 0.30503 0.0
C3095 C 0.68105 0.51298 0.31861 0.0
H3096 H 0.65171 0.4891 0.28804 0.0
C3097 C 0.68922 0.49726 0.32814 0.0
H3098 H 0.65989 0.5216 0.29756 0.0
C3099 C 0.68445 0.47862 0.32275 0.0
C3100 C 0.67156 0.47544 0.30765 0.0
H3101 H 0.70025 0.49931 0.33885 0.0
H3102 H 0.69198 0.4668 0.32941 0.0
C3103 C 0.66192 0.49113 0.29953 0.0
C3104 C 0.16513 0.80537 0.47854 0.0
C3105 C 0.17988 0.81866 0.4754 0.0
H3106 H 0.14941 0.78917 0.49921 0.0
C3107 C 0.18761 0.82861 0.49109 0.0
H3108 H 0.15878 0.7976 0.46671 0.0
C3109 C 0.18215 0.82387 0.50972 0.0
C3110 C 0.16902 0.80899 0.51292 0.0
H3111 H 0.19882 0.83914 0.48908 0.0
H3112 H 0.18937 0.83081 0.52157 0.0
C3113 C 0.15979 0.80051 0.49718 0.0
C3114 C 0.16071 0.1905 0.49459 0.0
C3115 C 0.17019 0.18182 0.4791 0.0
H3116 H 0.15936 0.19399 0.52497 0.0
C3117 C 0.1834 0.1671 0.48271 0.0
H3118 H 0.15027 0.20172 0.49222 0.0
C3119 C 0.18869 0.16275 0.50148 0.0
C3120 C 0.18074 0.17295 0.5169 0.0
H3121 H 0.19081 0.16001 0.47107 0.0
H3122 H 0.19998 0.15237 0.50381 0.0
C3123 C 0.1659 0.18604 0.51337 0.0
C3124 C 0.32795 0.68909 0.50005 0.0
C3125 C 0.31813 0.68126 0.51577 0.0
H3126 H 0.32997 0.69095 0.46957 0.0
C3127 C 0.30494 0.66641 0.51266 0.0
H3128 H 0.3384 0.70038 0.50204 0.0
C3129 C 0.30002 0.66109 0.49404 0.0
C3130 C 0.30834 0.67042 0.47828 0.0
H3131 H 0.29727 0.65997 0.52451 0.0
H3132 H 0.28874 0.65063 0.49203 0.0
C3133 C 0.32315 0.68365 0.48144 0.0
C3134 C 0.82409 0.80686 0.51108 0.0
C3135 C 0.80946 0.8203 0.5142 0.0
H3136 H 0.83912 0.78984 0.49055 0.0
C3137 C 0.80122 0.82963 0.49839 0.0
H3138 H 0.83084 0.79954 0.52298 0.0
C3139 C 0.80604 0.82414 0.47979 0.0
C3140 C 0.81907 0.80914 0.47673 0.0
H3141 H 0.79007 0.84024 0.50036 0.0
H3142 H 0.79845 0.83063 0.46792 0.0
C3143 C 0.8288 0.80126 0.49249 0.0
C3144 C 0.68457 0.32407 0.5117 0.0
C3145 C 0.67141 0.30919 0.51479 0.0
H3146 H 0.70065 0.34001 0.4911 0.0
C3147 C 0.66162 0.30135 0.49905 0.0
H3148 H 0.69222 0.33052 0.52356 0.0
C3149 C 0.66637 0.30687 0.48044 0.0
C3150 C 0.68109 0.32021 0.47729 0.0
H3151 H 0.65121 0.29002 0.50101 0.0
H3152 H 0.65955 0.29959 0.46856 0.0
C3153 C 0.68943 0.32949 0.49308 0.0
C3154 C 0.80044 0.16153 0.49107 0.0
C3155 C 0.8087 0.17144 0.47563 0.0
H3156 H 0.79807 0.15907 0.52149 0.0
C3157 C 0.82371 0.18435 0.47918 0.0
H3158 H 0.78902 0.1513 0.48874 0.0
C3159 C 0.82882 0.18888 0.49796 0.0
C3160 C 0.81911 0.18046 0.51345 0.0
H3161 H 0.83047 0.19208 0.46756 0.0
H3162 H 0.83944 0.19994 0.50032 0.0
C3163 C 0.80567 0.16595 0.50984 0.0
C3164 C 0.32914 0.30282 0.49138 0.0
C3165 C 0.3193 0.31049 0.47559 0.0
H3166 H 0.33118 0.30126 0.52188 0.0
C3167 C 0.30611 0.32537 0.47857 0.0
H3168 H 0.33959 0.29151 0.4895 0.0
C3169 C 0.30122 0.33089 0.49714 0.0
C3170 C 0.30955 0.32171 0.51299 0.0
H3171 H 0.29844 0.3317 0.46667 0.0
H3172 H 0.28995 0.34138 0.49906 0.0
C3173 C 0.32435 0.30844 0.50995 0.0
C3174 C 0.66081 0.68936 0.49243 0.0
C3175 C 0.67034 0.68101 0.4768 0.0
H3176 H 0.65951 0.69241 0.52287 0.0
C3177 C 0.68376 0.66643 0.48017 0.0
H3178 H 0.6502 0.70047 0.49026 0.0
C3179 C 0.68918 0.6619 0.49886 0.0
C3180 C 0.68114 0.67177 0.51444 0.0
H3181 H 0.69122 0.6596 0.4684 0.0
H3182 H 0.70061 0.65163 0.501 0.0
C3183 C 0.66611 0.68471 0.51113 0.0
C3184 C 0.50979 0.18595 0.82597 0.0
C3185 C 0.51337 0.17243 0.81152 0.0
H3186 H 0.4887 0.20269 0.84054 0.0
C3187 C 0.49787 0.16271 0.80314 0.0
H3188 H 0.52145 0.19356 0.83281 0.0
C3189 C 0.47909 0.16786 0.80765 0.0
C3190 C 0.47556 0.18292 0.82049 0.0
H3191 H 0.50021 0.15204 0.79213 0.0
H3192 H 0.46746 0.16107 0.79996 0.0
C3193 C 0.49102 0.19121 0.83036 0.0
C3194 C 0.51359 0.82186 0.807 0.0
C3195 C 0.51677 0.80704 0.82021 0.0
H3196 H 0.49289 0.83756 0.79079 0.0
C3197 C 0.50106 0.79903 0.8299 0.0
H3198 H 0.52542 0.82842 0.79941 0.0
C3199 C 0.48241 0.80435 0.82504 0.0
C3200 C 0.4792 0.81765 0.81031 0.0
H3201 H 0.50309 0.78775 0.84034 0.0
H3202 H 0.47057 0.79697 0.83181 0.0
C3203 C 0.49493 0.82707 0.80203 0.0
C3204 C 0.49782 0.82945 0.19167 0.0
C3205 C 0.51327 0.82007 0.18282 0.0
H3206 H 0.46745 0.8307 0.1954 0.0
C3207 C 0.50957 0.80685 0.16813 0.0
H3208 H 0.50024 0.83989 0.20288 0.0
C3209 C 0.49078 0.80149 0.16393 0.0
C3210 C 0.47541 0.8094 0.17424 0.0
H3211 H 0.52119 0.7995 0.16093 0.0
H3212 H 0.48841 0.79023 0.15353 0.0
C3213 C 0.47901 0.82421 0.18735 0.0
C3214 C 0.50169 0.18841 0.16183 0.0
C3215 C 0.51745 0.18056 0.17157 0.0
H3216 H 0.47119 0.19016 0.15985 0.0
C3217 C 0.51441 0.16558 0.18463 0.0
H3218 H 0.50362 0.19981 0.1515 0.0
C3219 C 0.49581 0.16013 0.1895 0.0
C3220 C 0.48 0.16947 0.18127 0.0
H3221 H 0.52629 0.15912 0.19223 0.0
H3222 H 0.49385 0.14955 0.20067 0.0
C3223 C 0.48309 0.18285 0.16659 0.0
C3224 C 0.49322 0.29991 0.66147 0.0
C3225 C 0.47754 0.30846 0.67075 0.0
H3226 H 0.52368 0.29699 0.66023 0.0
C3227 C 0.48085 0.32335 0.68385 0.0
H3228 H 0.49109 0.28856 0.65112 0.0
C3229 C 0.49953 0.3281 0.68915 0.0
C3230 C 0.51516 0.31815 0.68132 0.0
H3231 H 0.46905 0.33033 0.69112 0.0
H3232 H 0.50163 0.33868 0.7003 0.0
C3233 C 0.5119 0.30478 0.66666 0.0
C3234 C 0.51048 0.66663 0.68333 0.0
C3235 C 0.51391 0.6818 0.67059 0.0
H3236 H 0.48952 0.65088 0.69914 0.0
C3237 C 0.49834 0.6904 0.66118 0.0
H3238 H 0.5222 0.6596 0.69066 0.0
C3239 C 0.4796 0.68532 0.66595 0.0
C3240 C 0.47618 0.67168 0.68031 0.0
H3241 H 0.50057 0.70197 0.65109 0.0
H3242 H 0.46789 0.69317 0.65948 0.0
C3243 C 0.49174 0.66166 0.68821 0.0
C3244 C 0.48994 0.32805 0.30203 0.0
C3245 C 0.47441 0.31806 0.31005 0.0
H3246 H 0.52039 0.33045 0.2999 0.0
C3247 C 0.47783 0.30499 0.32493 0.0
H3248 H 0.48772 0.3384 0.2907 0.0
C3249 C 0.49657 0.30035 0.33012 0.0
C3250 C 0.51215 0.30884 0.32061 0.0
H3251 H 0.46614 0.2972 0.33151 0.0
H3252 H 0.49882 0.28916 0.34062 0.0
C3253 C 0.50867 0.32352 0.30733 0.0
C3254 C 0.48082 0.66436 0.30675 0.0
C3255 C 0.47753 0.67868 0.32048 0.0
H3256 H 0.50152 0.64999 0.28937 0.0
C3257 C 0.49325 0.68703 0.32988 0.0
H3258 H 0.46899 0.65755 0.29937 0.0
C3259 C 0.51191 0.68262 0.32421 0.0
C3260 C 0.5151 0.66991 0.30896 0.0
H3261 H 0.49115 0.69794 0.3407 0.0
H3262 H 0.52368 0.69029 0.33078 0.0
C3263 C 0.49947 0.66007 0.30098 0.0
loop_
_geom_bond_atom_site_label_1
_geom_bond_atom_site_label_2
_geom_bond_distance
_geom_bond_site_symmetry_2
_ccdc_geom_bond_type
O0 Cd1 2.223 . S
O0 C8 1.315 . S
Cd1 O0 2.223 . S
Cd1 O4 2.297 . S
Cd1 O5 2.439 . S
Cd1 O11 2.240 . S
Cd2 O3 2.240 . S
Cd2 O10 2.223 . S
Cd2 O12 2.297 . S
Cd2 O13 2.439 . S
O3 Cd2 2.240 . S
O3 C8 1.279 . S
O4 Cd1 2.297 . S
O4 C6 1.247 . S
O5 Cd1 2.439 . S
O5 C6 1.208 . S
C6 O4 1.247 . S
C6 O5 1.208 . S
C7 O12 1.247 . S
C7 O13 1.208 . S
C8 O0 1.315 . S
C8 O3 1.279 . S
C9 O10 1.315 . S
C9 O11 1.279 . S
O10 Cd2 2.223 . S
O10 C9 1.315 . S
O11 Cd1 2.240 . S
O11 C9 1.279 . S
O12 Cd2 2.297 . S
O12 C7 1.247 . S
O13 Cd2 2.439 . S
O13 C7 1.208 . S
O14 Cd15 2.223 . S
O14 C22 1.315 . S
Cd15 O14 2.223 . S
Cd15 O18 2.297 . S
Cd15 O19 2.439 . S
Cd15 O25 2.240 . S
Cd16 O17 2.240 . S
Cd16 O24 2.223 . S
Cd16 O26 2.297 . S
Cd16 O27 2.439 . S
O17 Cd16 2.240 . S
O17 C22 1.279 . S
O18 Cd15 2.297 . S
O18 C20 1.247 . S
O19 Cd15 2.439 . S
O19 C20 1.208 . S
C20 O18 1.247 . S
C20 O19 1.208 . S
C21 O26 1.247 . S
C21 O27 1.208 . S
C22 O14 1.315 . S
C22 O17 1.279 . S
C23 O24 1.315 . S
C23 O25 1.279 . S
O24 Cd16 2.223 . S
O24 C23 1.315 . S
O25 Cd15 2.240 . S
O25 C23 1.279 . S
O26 Cd16 2.297 . S
O26 C21 1.247 . S
O27 Cd16 2.439 . S
O27 C21 1.208 . S
O28 Cd29 2.223 . S
O28 C36 1.315 . S
Cd29 O28 2.223 . S
Cd29 O32 2.297 . S
Cd29 O33 2.439 . S
Cd29 O39 2.240 . S
Cd30 O31 2.240 . S
Cd30 O38 2.223 . S
Cd30 O40 2.297 . S
Cd30 O41 2.439 . S
O31 Cd30 2.240 . S
O31 C36 1.279 . S
O32 Cd29 2.297 . S
O32 C34 1.247 . S
O33 Cd29 2.439 . S
O33 C34 1.208 . S
C34 O32 1.247 . S
C34 O33 1.208 . S
C35 O40 1.247 . S
C35 O41 1.208 . S
C36 O28 1.315 . S
C36 O31 1.279 . S
C37 O38 1.315 . S
C37 O39 1.279 . S
O38 Cd30 2.223 . S
O38 C37 1.315 . S
O39 Cd29 2.240 . S
O39 C37 1.279 . S
O40 Cd30 2.297 . S
O40 C35 1.247 . S
O41 Cd30 2.439 . S
O41 C35 1.208 . S
O42 Cd43 2.223 . S
O42 C50 1.315 . S
Cd43 O42 2.223 . S
Cd43 O46 2.297 . S
Cd43 O47 2.439 . S
Cd43 O53 2.240 . S
Cd44 O45 2.240 . S
Cd44 O52 2.223 . S
Cd44 O54 2.297 . S
Cd44 O55 2.439 . S
O45 Cd44 2.240 . S
O45 C50 1.279 . S
O46 Cd43 2.297 . S
O46 C48 1.247 . S
O47 Cd43 2.439 . S
O47 C48 1.208 . S
C48 O46 1.247 . S
C48 O47 1.208 . S
C49 O54 1.247 . S
C49 O55 1.208 . S
C50 O42 1.315 . S
C50 O45 1.279 . S
C51 O52 1.315 . S
C51 O53 1.279 . S
O52 Cd44 2.223 . S
O52 C51 1.315 . S
O53 Cd43 2.240 . S
O53 C51 1.279 . S
O54 Cd44 2.297 . S
O54 C49 1.247 . S
O55 Cd44 2.439 . S
O55 C49 1.208 . S
O56 Cd57 2.223 . S
O56 C64 1.315 . S
Cd57 O56 2.223 . S
Cd57 O60 2.297 . S
Cd57 O61 2.439 . S
Cd57 O67 2.240 . S
Cd58 O59 2.240 . S
Cd58 O66 2.223 . S
Cd58 O68 2.297 . S
Cd58 O69 2.439 . S
O59 Cd58 2.240 . S
O59 C64 1.279 . S
O60 Cd57 2.297 . S
O60 C62 1.247 . S
O61 Cd57 2.439 . S
O61 C62 1.208 . S
C62 O60 1.247 . S
C62 O61 1.208 . S
C63 O68 1.247 . S
C63 O69 1.208 . S
C64 O56 1.315 . S
C64 O59 1.279 . S
C65 O66 1.315 . S
C65 O67 1.279 . S
O66 Cd58 2.223 . S
O66 C65 1.315 . S
O67 Cd57 2.240 . S
O67 C65 1.279 . S
O68 Cd58 2.297 . S
O68 C63 1.247 . S
O69 Cd58 2.439 . S
O69 C63 1.208 . S
O70 Cd71 2.223 . S
O70 C78 1.315 . S
Cd71 O70 2.223 . S
Cd71 O74 2.297 . S
Cd71 O75 2.439 . S
Cd71 O81 2.240 . S
Cd72 O73 2.240 . S
Cd72 O80 2.223 . S
Cd72 O82 2.297 . S
Cd72 O83 2.439 . S
O73 Cd72 2.240 . S
O73 C78 1.279 . S
O74 Cd71 2.297 . S
O74 C76 1.247 . S
O75 Cd71 2.439 . S
O75 C76 1.208 . S
C76 O74 1.247 . S
C76 O75 1.208 . S
C77 O82 1.247 . S
C77 O83 1.208 . S
C78 O70 1.315 . S
C78 O73 1.279 . S
C79 O80 1.315 . S
C79 O81 1.279 . S
O80 Cd72 2.223 . S
O80 C79 1.315 . S
O81 Cd71 2.240 . S
O81 C79 1.279 . S
O82 Cd72 2.297 . S
O82 C77 1.247 . S
O83 Cd72 2.439 . S
O83 C77 1.208 . S
O84 Cd85 2.223 . S
O84 C92 1.315 . S
Cd85 O84 2.223 . S
Cd85 O88 2.297 . S
Cd85 O89 2.439 . S
Cd85 O95 2.240 . S
Cd86 O87 2.240 . S
Cd86 O94 2.223 . S
Cd86 O96 2.297 . S
Cd86 O97 2.439 . S
O87 Cd86 2.240 . S
O87 C92 1.279 . S
O88 Cd85 2.297 . S
O88 C90 1.247 . S
O89 Cd85 2.439 . S
O89 C90 1.208 . S
C90 O88 1.247 . S
C90 O89 1.208 . S
C91 O96 1.247 . S
C91 O97 1.208 . S
C92 O84 1.315 . S
C92 O87 1.279 . S
C93 O94 1.315 . S
C93 O95 1.279 . S
O94 Cd86 2.223 . S
O94 C93 1.315 . S
O95 Cd85 2.240 . S
O95 C93 1.279 . S
O96 Cd86 2.297 . S
O96 C91 1.247 . S
O97 Cd86 2.439 . S
O97 C91 1.208 . S
O98 Cd99 2.223 . S
O98 C106 1.315 . S
Cd99 O98 2.223 . S
Cd99 O102 2.297 . S
Cd99 O103 2.439 . S
Cd99 O109 2.240 . S
Cd100 O101 2.240 . S
Cd100 O108 2.223 . S
Cd100 O110 2.297 . S
Cd100 O111 2.439 . S
O101 Cd100 2.240 . S
O101 C106 1.279 . S
O102 Cd99 2.297 . S
O102 C104 1.247 . S
O103 Cd99 2.439 . S
O103 C104 1.208 . S
C104 O102 1.247 . S
C104 O103 1.208 . S
C105 O110 1.247 . S
C105 O111 1.208 . S
C106 O98 1.315 . S
C106 O101 1.279 . S
C107 O108 1.315 . S
C107 O109 1.279 . S
O108 Cd100 2.223 . S
O108 C107 1.315 . S
O109 Cd99 2.240 . S
O109 C107 1.279 . S
O110 Cd100 2.297 . S
O110 C105 1.247 . S
O111 Cd100 2.439 . S
O111 C105 1.208 . S
O112 Cd113 2.223 . S
O112 C120 1.315 . S
Cd113 O112 2.223 . S
Cd113 O116 2.297 . S
Cd113 O117 2.439 . S
Cd113 O123 2.240 . S
Cd114 O115 2.240 . S
Cd114 O122 2.223 . S
Cd114 O124 2.297 . S
Cd114 O125 2.439 . S
O115 Cd114 2.240 . S
O115 C120 1.279 . S
O116 Cd113 2.297 . S
O116 C118 1.247 . S
O117 Cd113 2.439 . S
O117 C118 1.208 . S
C118 O116 1.247 . S
C118 O117 1.208 . S
C119 O124 1.247 . S
C119 O125 1.208 . S
C120 O112 1.315 . S
C120 O115 1.279 . S
C121 O122 1.315 . S
C121 O123 1.279 . S
O122 Cd114 2.223 . S
O122 C121 1.315 . S
O123 Cd113 2.240 . S
O123 C121 1.279 . S
O124 Cd114 2.297 . S
O124 C119 1.247 . S
O125 Cd114 2.439 . S
O125 C119 1.208 . S
O126 Cd127 2.223 . S
O126 C134 1.315 . S
Cd127 O126 2.223 . S
Cd127 O130 2.297 . S
Cd127 O131 2.439 . S
Cd127 O137 2.240 . S
Cd128 O129 2.240 . S
Cd128 O136 2.223 . S
Cd128 O138 2.297 . S
Cd128 O139 2.439 . S
O129 Cd128 2.240 . S
O129 C134 1.279 . S
O130 Cd127 2.297 . S
O130 C132 1.247 . S
O131 Cd127 2.439 . S
O131 C132 1.208 . S
C132 O130 1.247 . S
C132 O131 1.208 . S
C133 O138 1.247 . S
C133 O139 1.208 . S
C134 O126 1.315 . S
C134 O129 1.279 . S
C135 O136 1.315 . S
C135 O137 1.279 . S
O136 Cd128 2.223 . S
O136 C135 1.315 . S
O137 Cd127 2.240 . S
O137 C135 1.279 . S
O138 Cd128 2.297 . S
O138 C133 1.247 . S
O139 Cd128 2.439 . S
O139 C133 1.208 . S
O140 Cd141 2.223 . S
O140 C148 1.315 . S
Cd141 O140 2.223 . S
Cd141 O144 2.297 . S
Cd141 O145 2.439 . S
Cd141 O151 2.240 . S
Cd142 O143 2.240 . S
Cd142 O150 2.223 . S
Cd142 O152 2.297 . S
Cd142 O153 2.439 . S
O143 Cd142 2.240 . S
O143 C148 1.279 . S
O144 Cd141 2.297 . S
O144 C146 1.247 . S
O145 Cd141 2.439 . S
O145 C146 1.208 . S
C146 O144 1.247 . S
C146 O145 1.208 . S
C147 O152 1.247 . S
C147 O153 1.208 . S
C148 O140 1.315 . S
C148 O143 1.279 . S
C149 O150 1.315 . S
C149 O151 1.279 . S
O150 Cd142 2.223 . S
O150 C149 1.315 . S
O151 Cd141 2.240 . S
O151 C149 1.279 . S
O152 Cd142 2.297 . S
O152 C147 1.247 . S
O153 Cd142 2.439 . S
O153 C147 1.208 . S
O154 Cd155 2.223 . S
O154 C162 1.315 . S
Cd155 O154 2.223 . S
Cd155 O158 2.297 . S
Cd155 O159 2.439 . S
Cd155 O165 2.240 . S
Cd156 O157 2.240 . S
Cd156 O164 2.223 . S
Cd156 O166 2.297 . S
Cd156 O167 2.439 . S
O157 Cd156 2.240 . S
O157 C162 1.279 . S
O158 Cd155 2.297 . S
O158 C160 1.247 . S
O159 Cd155 2.439 . S
O159 C160 1.208 . S
C160 O158 1.247 . S
C160 O159 1.208 . S
C161 O166 1.247 . S
C161 O167 1.208 . S
C162 O154 1.315 . S
C162 O157 1.279 . S
C163 O164 1.315 . S
C163 O165 1.279 . S
O164 Cd156 2.223 . S
O164 C163 1.315 . S
O165 Cd155 2.240 . S
O165 C163 1.279 . S
O166 Cd156 2.297 . S
O166 C161 1.247 . S
O167 Cd156 2.439 . S
O167 C161 1.208 . S
O168 Cd169 2.223 . S
O168 C176 1.315 . S
Cd169 O168 2.223 . S
Cd169 O172 2.297 . S
Cd169 O173 2.439 . S
Cd169 O179 2.240 . S
Cd170 O171 2.240 . S
Cd170 O178 2.223 . S
Cd170 O180 2.297 . S
Cd170 O181 2.439 . S
O171 Cd170 2.240 . S
O171 C176 1.279 . S
O172 Cd169 2.297 . S
O172 C174 1.247 . S
O173 Cd169 2.439 . S
O173 C174 1.208 . S
C174 O172 1.247 . S
C174 O173 1.208 . S
C175 O180 1.247 . S
C175 O181 1.208 . S
C176 O168 1.315 . S
C176 O171 1.279 . S
C177 O178 1.315 . S
C177 O179 1.279 . S
O178 Cd170 2.223 . S
O178 C177 1.315 . S
O179 Cd169 2.240 . S
O179 C177 1.279 . S
O180 Cd170 2.297 . S
O180 C175 1.247 . S
O181 Cd170 2.439 . S
O181 C175 1.208 . S
O182 Cd183 2.223 . S
O182 C190 1.315 . S
Cd183 O182 2.223 . S
Cd183 O186 2.297 . S
Cd183 O187 2.439 . S
Cd183 O193 2.240 . S
Cd184 O185 2.240 . S
Cd184 O192 2.223 . S
Cd184 O194 2.297 . S
Cd184 O195 2.439 . S
O185 Cd184 2.240 . S
O185 C190 1.279 . S
O186 Cd183 2.297 . S
O186 C188 1.247 . S
O187 Cd183 2.439 . S
O187 C188 1.208 . S
C188 O186 1.247 . S
C188 O187 1.208 . S
C189 O194 1.247 . S
C189 O195 1.208 . S
C190 O182 1.315 . S
C190 O185 1.279 . S
C191 O192 1.315 . S
C191 O193 1.279 . S
O192 Cd184 2.223 . S
O192 C191 1.315 . S
O193 Cd183 2.240 . S
O193 C191 1.279 . S
O194 Cd184 2.297 . S
O194 C189 1.247 . S
O195 Cd184 2.439 . S
O195 C189 1.208 . S
O196 Cd197 2.223 . S
O196 C204 1.315 . S
Cd197 O196 2.223 . S
Cd197 O200 2.297 . S
Cd197 O201 2.439 . S
Cd197 O207 2.240 . S
Cd198 O199 2.240 . S
Cd198 O206 2.223 . S
Cd198 O208 2.297 . S
Cd198 O209 2.439 . S
O199 Cd198 2.240 . S
O199 C204 1.279 . S
O200 Cd197 2.297 . S
O200 C202 1.247 . S
O201 Cd197 2.439 . S
O201 C202 1.208 . S
C202 O200 1.247 . S
C202 O201 1.208 . S
C203 O208 1.247 . S
C203 O209 1.208 . S
C204 O196 1.315 . S
C204 O199 1.279 . S
C205 O206 1.315 . S
C205 O207 1.279 . S
O206 Cd198 2.223 . S
O206 C205 1.315 . S
O207 Cd197 2.240 . S
O207 C205 1.279 . S
O208 Cd198 2.297 . S
O208 C203 1.247 . S
O209 Cd198 2.439 . S
O209 C203 1.208 . S
O210 Cd211 2.223 . S
O210 C218 1.315 . S
Cd211 O210 2.223 . S
Cd211 O214 2.297 . S
Cd211 O215 2.439 . S
Cd211 O221 2.240 . S
Cd212 O213 2.240 . S
Cd212 O220 2.223 . S
Cd212 O222 2.297 . S
Cd212 O223 2.439 . S
O213 Cd212 2.240 . S
O213 C218 1.279 . S
O214 Cd211 2.297 . S
O214 C216 1.247 . S
O215 Cd211 2.439 . S
O215 C216 1.208 . S
C216 O214 1.247 . S
C216 O215 1.208 . S
C217 O222 1.247 . S
C217 O223 1.208 . S
C218 O210 1.315 . S
C218 O213 1.279 . S
C219 O220 1.315 . S
C219 O221 1.279 . S
O220 Cd212 2.223 . S
O220 C219 1.315 . S
O221 Cd211 2.240 . S
O221 C219 1.279 . S
O222 Cd212 2.297 . S
O222 C217 1.247 . S
O223 Cd212 2.439 . S
O223 C217 1.208 . S
O224 Cd225 2.223 . S
O224 C232 1.315 . S
Cd225 O224 2.223 . S
Cd225 O228 2.297 . S
Cd225 O229 2.439 . S
Cd225 O235 2.240 . S
Cd226 O227 2.240 . S
Cd226 O234 2.223 . S
Cd226 O236 2.297 . S
Cd226 O237 2.439 . S
O227 Cd226 2.240 . S
O227 C232 1.279 . S
O228 Cd225 2.297 . S
O228 C230 1.247 . S
O229 Cd225 2.439 . S
O229 C230 1.208 . S
C230 O228 1.247 . S
C230 O229 1.208 . S
C231 O236 1.247 . S
C231 O237 1.208 . S
C232 O224 1.315 . S
C232 O227 1.279 . S
C233 O234 1.315 . S
C233 O235 1.279 . S
O234 Cd226 2.223 . S
O234 C233 1.315 . S
O235 Cd225 2.240 . S
O235 C233 1.279 . S
O236 Cd226 2.297 . S
O236 C231 1.247 . S
O237 Cd226 2.439 . S
O237 C231 1.208 . S
O238 Cd239 2.223 . S
O238 C246 1.315 . S
Cd239 O238 2.223 . S
Cd239 O242 2.297 . S
Cd239 O243 2.439 . S
Cd239 O249 2.240 . S
Cd240 O241 2.240 . S
Cd240 O248 2.223 . S
Cd240 O250 2.297 . S
Cd240 O251 2.439 . S
O241 Cd240 2.240 . S
O241 C246 1.279 . S
O242 Cd239 2.297 . S
O242 C244 1.247 . S
O243 Cd239 2.439 . S
O243 C244 1.208 . S
C244 O242 1.247 . S
C244 O243 1.208 . S
C245 O250 1.247 . S
C245 O251 1.208 . S
C246 O238 1.315 . S
C246 O241 1.279 . S
C247 O248 1.315 . S
C247 O249 1.279 . S
O248 Cd240 2.223 . S
O248 C247 1.315 . S
O249 Cd239 2.240 . S
O249 C247 1.279 . S
O250 Cd240 2.297 . S
O250 C245 1.247 . S
O251 Cd240 2.439 . S
O251 C245 1.208 . S
O252 Cd253 2.223 . S
O252 C260 1.315 . S
Cd253 O252 2.223 . S
Cd253 O256 2.297 . S
Cd253 O257 2.439 . S
Cd253 O263 2.240 . S
Cd254 O255 2.240 . S
Cd254 O262 2.223 . S
Cd254 O264 2.297 . S
Cd254 O265 2.439 . S
O255 Cd254 2.240 . S
O255 C260 1.279 . S
O256 Cd253 2.297 . S
O256 C258 1.247 . S
O257 Cd253 2.439 . S
O257 C258 1.208 . S
C258 O256 1.247 . S
C258 O257 1.208 . S
C259 O264 1.247 . S
C259 O265 1.208 . S
C260 O252 1.315 . S
C260 O255 1.279 . S
C261 O262 1.315 . S
C261 O263 1.279 . S
O262 Cd254 2.223 . S
O262 C261 1.315 . S
O263 Cd253 2.240 . S
O263 C261 1.279 . S
O264 Cd254 2.297 . S
O264 C259 1.247 . S
O265 Cd254 2.439 . S
O265 C259 1.208 . S
O266 Cd267 2.223 . S
O266 C274 1.315 . S
Cd267 O266 2.223 . S
Cd267 O270 2.297 . S
Cd267 O271 2.439 . S
Cd267 O277 2.240 . S
Cd268 O269 2.240 . S
Cd268 O276 2.223 . S
Cd268 O278 2.297 . S
Cd268 O279 2.439 . S
O269 Cd268 2.240 . S
O269 C274 1.279 . S
O270 Cd267 2.297 . S
O270 C272 1.247 . S
O271 Cd267 2.439 . S
O271 C272 1.208 . S
C272 O270 1.247 . S
C272 O271 1.208 . S
C273 O278 1.247 . S
C273 O279 1.208 . S
C274 O266 1.315 . S
C274 O269 1.279 . S
C275 O276 1.315 . S
C275 O277 1.279 . S
O276 Cd268 2.223 . S
O276 C275 1.315 . S
O277 Cd267 2.240 . S
O277 C275 1.279 . S
O278 Cd268 2.297 . S
O278 C273 1.247 . S
O279 Cd268 2.439 . S
O279 C273 1.208 . S
O280 Cd281 2.223 . S
O280 C288 1.315 . S
Cd281 O280 2.223 . S
Cd281 O284 2.297 . S
Cd281 O285 2.439 . S
Cd281 O291 2.240 . S
Cd282 O283 2.240 . S
Cd282 O290 2.223 . S
Cd282 O292 2.297 . S
Cd282 O293 2.439 . S
O283 Cd282 2.240 . S
O283 C288 1.279 . S
O284 Cd281 2.297 . S
O284 C286 1.247 . S
O285 Cd281 2.439 . S
O285 C286 1.208 . S
C286 O284 1.247 . S
C286 O285 1.208 . S
C287 O292 1.247 . S
C287 O293 1.208 . S
C288 O280 1.315 . S
C288 O283 1.279 . S
C289 O290 1.315 . S
C289 O291 1.279 . S
O290 Cd282 2.223 . S
O290 C289 1.315 . S
O291 Cd281 2.240 . S
O291 C289 1.279 . S
O292 Cd282 2.297 . S
O292 C287 1.247 . S
O293 Cd282 2.439 . S
O293 C287 1.208 . S
O294 Cd295 2.223 . S
O294 C302 1.315 . S
Cd295 O294 2.223 . S
Cd295 O298 2.297 . S
Cd295 O299 2.439 . S
Cd295 O305 2.240 . S
Cd296 O297 2.240 . S
Cd296 O304 2.223 . S
Cd296 O306 2.297 . S
Cd296 O307 2.439 . S
O297 Cd296 2.240 . S
O297 C302 1.279 . S
O298 Cd295 2.297 . S
O298 C300 1.247 . S
O299 Cd295 2.439 . S
O299 C300 1.208 . S
C300 O298 1.247 . S
C300 O299 1.208 . S
C301 O306 1.247 . S
C301 O307 1.208 . S
C302 O294 1.315 . S
C302 O297 1.279 . S
C303 O304 1.315 . S
C303 O305 1.279 . S
O304 Cd296 2.223 . S
O304 C303 1.315 . S
O305 Cd295 2.240 . S
O305 C303 1.279 . S
O306 Cd296 2.297 . S
O306 C301 1.247 . S
O307 Cd296 2.439 . S
O307 C301 1.208 . S
O308 Cd309 2.223 . S
O308 C316 1.315 . S
Cd309 O308 2.223 . S
Cd309 O312 2.297 . S
Cd309 O313 2.439 . S
Cd309 O319 2.240 . S
Cd310 O311 2.240 . S
Cd310 O318 2.223 . S
Cd310 O320 2.297 . S
Cd310 O321 2.439 . S
O311 Cd310 2.240 . S
O311 C316 1.279 . S
O312 Cd309 2.297 . S
O312 C314 1.247 . S
O313 Cd309 2.439 . S
O313 C314 1.208 . S
C314 O312 1.247 . S
C314 O313 1.208 . S
C315 O320 1.247 . S
C315 O321 1.208 . S
C316 O308 1.315 . S
C316 O311 1.279 . S
C317 O318 1.315 . S
C317 O319 1.279 . S
O318 Cd310 2.223 . S
O318 C317 1.315 . S
O319 Cd309 2.240 . S
O319 C317 1.279 . S
O320 Cd310 2.297 . S
O320 C315 1.247 . S
O321 Cd310 2.439 . S
O321 C315 1.208 . S
O322 Cd323 2.223 . S
O322 C330 1.315 . S
Cd323 O322 2.223 . S
Cd323 O326 2.297 . S
Cd323 O327 2.439 . S
Cd323 O333 2.240 . S
Cd324 O325 2.240 . S
Cd324 O332 2.223 . S
Cd324 O334 2.297 . S
Cd324 O335 2.439 . S
O325 Cd324 2.240 . S
O325 C330 1.279 . S
O326 Cd323 2.297 . S
O326 C328 1.247 . S
O327 Cd323 2.439 . S
O327 C328 1.208 . S
C328 O326 1.247 . S
C328 O327 1.208 . S
C329 O334 1.247 . S
C329 O335 1.208 . S
C330 O322 1.315 . S
C330 O325 1.279 . S
C331 O332 1.315 . S
C331 O333 1.279 . S
O332 Cd324 2.223 . S
O332 C331 1.315 . S
O333 Cd323 2.240 . S
O333 C331 1.279 . S
O334 Cd324 2.297 . S
O334 C329 1.247 . S
O335 Cd324 2.439 . S
O335 C329 1.208 . S
O336 Cd337 2.223 . S
O336 C344 1.315 . S
Cd337 O336 2.223 . S
Cd337 O340 2.297 . S
Cd337 O341 2.439 . S
Cd337 O347 2.240 . S
Cd338 O339 2.240 . S
Cd338 O346 2.223 . S
Cd338 O348 2.297 . S
Cd338 O349 2.439 . S
O339 Cd338 2.240 . S
O339 C344 1.279 . S
O340 Cd337 2.297 . S
O340 C342 1.247 . S
O341 Cd337 2.439 . S
O341 C342 1.208 . S
C342 O340 1.247 . S
C342 O341 1.208 . S
C343 O348 1.247 . S
C343 O349 1.208 . S
C344 O336 1.315 . S
C344 O339 1.279 . S
C345 O346 1.315 . S
C345 O347 1.279 . S
O346 Cd338 2.223 . S
O346 C345 1.315 . S
O347 Cd337 2.240 . S
O347 C345 1.279 . S
O348 Cd338 2.297 . S
O348 C343 1.247 . S
O349 Cd338 2.439 . S
O349 C343 1.208 . S
O350 Cd351 2.223 . S
O350 C358 1.315 . S
Cd351 O350 2.223 . S
Cd351 O354 2.297 . S
Cd351 O355 2.439 . S
Cd351 O361 2.240 . S
Cd352 O353 2.240 . S
Cd352 O360 2.223 . S
Cd352 O362 2.297 . S
Cd352 O363 2.439 . S
O353 Cd352 2.240 . S
O353 C358 1.279 . S
O354 Cd351 2.297 . S
O354 C356 1.247 . S
O355 Cd351 2.439 . S
O355 C356 1.208 . S
C356 O354 1.247 . S
C356 O355 1.208 . S
C357 O362 1.247 . S
C357 O363 1.208 . S
C358 O350 1.315 . S
C358 O353 1.279 . S
C359 O360 1.315 . S
C359 O361 1.279 . S
O360 Cd352 2.223 . S
O360 C359 1.315 . S
O361 Cd351 2.240 . S
O361 C359 1.279 . S
O362 Cd352 2.297 . S
O362 C357 1.247 . S
O363 Cd352 2.439 . S
O363 C357 1.208 . S
O364 Cd365 2.223 . S
O364 C372 1.315 . S
Cd365 O364 2.223 . S
Cd365 O368 2.297 . S
Cd365 O369 2.439 . S
Cd365 O375 2.240 . S
Cd366 O367 2.240 . S
Cd366 O374 2.223 . S
Cd366 O376 2.297 . S
Cd366 O377 2.439 . S
O367 Cd366 2.240 . S
O367 C372 1.279 . S
O368 Cd365 2.297 . S
O368 C370 1.247 . S
O369 Cd365 2.439 . S
O369 C370 1.208 . S
C370 O368 1.247 . S
C370 O369 1.208 . S
C371 O376 1.247 . S
C371 O377 1.208 . S
C372 O364 1.315 . S
C372 O367 1.279 . S
C373 O374 1.315 . S
C373 O375 1.279 . S
O374 Cd366 2.223 . S
O374 C373 1.315 . S
O375 Cd365 2.240 . S
O375 C373 1.279 . S
O376 Cd366 2.297 . S
O376 C371 1.247 . S
O377 Cd366 2.439 . S
O377 C371 1.208 . S
O378 Cd379 2.223 . S
O378 C386 1.315 . S
Cd379 O378 2.223 . S
Cd379 O382 2.297 . S
Cd379 O383 2.439 . S
Cd379 O389 2.240 . S
Cd380 O381 2.240 . S
Cd380 O388 2.223 . S
Cd380 O390 2.297 . S
Cd380 O391 2.439 . S
O381 Cd380 2.240 . S
O381 C386 1.279 . S
O382 Cd379 2.297 . S
O382 C384 1.247 . S
O383 Cd379 2.439 . S
O383 C384 1.208 . S
C384 O382 1.247 . S
C384 O383 1.208 . S
C385 O390 1.247 . S
C385 O391 1.208 . S
C386 O378 1.315 . S
C386 O381 1.279 . S
C387 O388 1.315 . S
C387 O389 1.279 . S
O388 Cd380 2.223 . S
O388 C387 1.315 . S
O389 Cd379 2.240 . S
O389 C387 1.279 . S
O390 Cd380 2.297 . S
O390 C385 1.247 . S
O391 Cd380 2.439 . S
O391 C385 1.208 . S
O392 Cd393 2.223 . S
O392 C400 1.315 . S
Cd393 O392 2.223 . S
Cd393 O396 2.297 . S
Cd393 O397 2.439 . S
Cd393 O403 2.240 . S
Cd394 O395 2.240 . S
Cd394 O402 2.223 . S
Cd394 O404 2.297 . S
Cd394 O405 2.439 . S
O395 Cd394 2.240 . S
O395 C400 1.279 . S
O396 Cd393 2.297 . S
O396 C398 1.247 . S
O397 Cd393 2.439 . S
O397 C398 1.208 . S
C398 O396 1.247 . S
C398 O397 1.208 . S
C399 O404 1.247 . S
C399 O405 1.208 . S
C400 O392 1.315 . S
C400 O395 1.279 . S
C401 O402 1.315 . S
C401 O403 1.279 . S
O402 Cd394 2.223 . S
O402 C401 1.315 . S
O403 Cd393 2.240 . S
O403 C401 1.279 . S
O404 Cd394 2.297 . S
O404 C399 1.247 . S
O405 Cd394 2.439 . S
O405 C399 1.208 . S
O406 Cd407 2.223 . S
O406 C414 1.315 . S
Cd407 O406 2.223 . S
Cd407 O410 2.297 . S
Cd407 O411 2.439 . S
Cd407 O417 2.240 . S
Cd408 O409 2.240 . S
Cd408 O416 2.223 . S
Cd408 O418 2.297 . S
Cd408 O419 2.439 . S
O409 Cd408 2.240 . S
O409 C414 1.279 . S
O410 Cd407 2.297 . S
O410 C412 1.247 . S
O411 Cd407 2.439 . S
O411 C412 1.208 . S
C412 O410 1.247 . S
C412 O411 1.208 . S
C413 O418 1.247 . S
C413 O419 1.208 . S
C414 O406 1.315 . S
C414 O409 1.279 . S
C415 O416 1.315 . S
C415 O417 1.279 . S
O416 Cd408 2.223 . S
O416 C415 1.315 . S
O417 Cd407 2.240 . S
O417 C415 1.279 . S
O418 Cd408 2.297 . S
O418 C413 1.247 . S
O419 Cd408 2.439 . S
O419 C413 1.208 . S
O420 Cd421 2.223 . S
O420 C428 1.315 . S
Cd421 O420 2.223 . S
Cd421 O424 2.297 . S
Cd421 O425 2.439 . S
Cd421 O431 2.240 . S
Cd422 O423 2.240 . S
Cd422 O430 2.223 . S
Cd422 O432 2.297 . S
Cd422 O433 2.439 . S
O423 Cd422 2.240 . S
O423 C428 1.279 . S
O424 Cd421 2.297 . S
O424 C426 1.247 . S
O425 Cd421 2.439 . S
O425 C426 1.208 . S
C426 O424 1.247 . S
C426 O425 1.208 . S
C427 O432 1.247 . S
C427 O433 1.208 . S
C428 O420 1.315 . S
C428 O423 1.279 . S
C429 O430 1.315 . S
C429 O431 1.279 . S
O430 Cd422 2.223 . S
O430 C429 1.315 . S
O431 Cd421 2.240 . S
O431 C429 1.279 . S
O432 Cd422 2.297 . S
O432 C427 1.247 . S
O433 Cd422 2.439 . S
O433 C427 1.208 . S
O434 Cd435 2.223 . S
O434 C442 1.315 . S
Cd435 O434 2.223 . S
Cd435 O438 2.297 . S
Cd435 O439 2.439 . S
Cd435 O445 2.240 . S
Cd436 O437 2.240 . S
Cd436 O444 2.223 . S
Cd436 O446 2.297 . S
Cd436 O447 2.439 . S
O437 Cd436 2.240 . S
O437 C442 1.279 . S
O438 Cd435 2.297 . S
O438 C440 1.247 . S
O439 Cd435 2.439 . S
O439 C440 1.208 . S
C440 O438 1.247 . S
C440 O439 1.208 . S
C441 O446 1.247 . S
C441 O447 1.208 . S
C442 O434 1.315 . S
C442 O437 1.279 . S
C443 O444 1.315 . S
C443 O445 1.279 . S
O444 Cd436 2.223 . S
O444 C443 1.315 . S
O445 Cd435 2.240 . S
O445 C443 1.279 . S
O446 Cd436 2.297 . S
O446 C441 1.247 . S
O447 Cd436 2.439 . S
O447 C441 1.208 . S
O448 Cd449 2.223 . S
O448 C456 1.315 . S
Cd449 O448 2.223 . S
Cd449 O452 2.297 . S
Cd449 O453 2.439 . S
Cd449 O459 2.240 . S
Cd450 O451 2.240 . S
Cd450 O458 2.223 . S
Cd450 O460 2.297 . S
Cd450 O461 2.439 . S
O451 Cd450 2.240 . S
O451 C456 1.279 . S
O452 Cd449 2.297 . S
O452 C454 1.247 . S
O453 Cd449 2.439 . S
O453 C454 1.208 . S
C454 O452 1.247 . S
C454 O453 1.208 . S
C455 O460 1.247 . S
C455 O461 1.208 . S
C456 O448 1.315 . S
C456 O451 1.279 . S
C457 O458 1.315 . S
C457 O459 1.279 . S
O458 Cd450 2.223 . S
O458 C457 1.315 . S
O459 Cd449 2.240 . S
O459 C457 1.279 . S
O460 Cd450 2.297 . S
O460 C455 1.247 . S
O461 Cd450 2.439 . S
O461 C455 1.208 . S
O462 Cd463 2.223 . S
O462 C470 1.315 . S
Cd463 O462 2.223 . S
Cd463 O466 2.297 . S
Cd463 O467 2.439 . S
Cd463 O473 2.240 . S
Cd464 O465 2.240 . S
Cd464 O472 2.223 . S
Cd464 O474 2.297 . S
Cd464 O475 2.439 . S
O465 Cd464 2.240 . S
O465 C470 1.279 . S
O466 Cd463 2.297 . S
O466 C468 1.247 . S
O467 Cd463 2.439 . S
O467 C468 1.208 . S
C468 O466 1.247 . S
C468 O467 1.208 . S
C469 O474 1.247 . S
C469 O475 1.208 . S
C470 O462 1.315 . S
C470 O465 1.279 . S
C471 O472 1.315 . S
C471 O473 1.279 . S
O472 Cd464 2.223 . S
O472 C471 1.315 . S
O473 Cd463 2.240 . S
O473 C471 1.279 . S
O474 Cd464 2.297 . S
O474 C469 1.247 . S
O475 Cd464 2.439 . S
O475 C469 1.208 . S
O476 Cd477 2.223 . S
O476 C484 1.315 . S
Cd477 O476 2.223 . S
Cd477 O480 2.297 . S
Cd477 O481 2.439 . S
Cd477 O487 2.240 . S
Cd478 O479 2.240 . S
Cd478 O486 2.223 . S
Cd478 O488 2.297 . S
Cd478 O489 2.439 . S
O479 Cd478 2.240 . S
O479 C484 1.279 . S
O480 Cd477 2.297 . S
O480 C482 1.247 . S
O481 Cd477 2.439 . S
O481 C482 1.208 . S
C482 O480 1.247 . S
C482 O481 1.208 . S
C483 O488 1.247 . S
C483 O489 1.208 . S
C484 O476 1.315 . S
C484 O479 1.279 . S
C485 O486 1.315 . S
C485 O487 1.279 . S
O486 Cd478 2.223 . S
O486 C485 1.315 . S
O487 Cd477 2.240 . S
O487 C485 1.279 . S
O488 Cd478 2.297 . S
O488 C483 1.247 . S
O489 Cd478 2.439 . S
O489 C483 1.208 . S
O490 Cd491 2.223 . S
O490 C498 1.315 . S
Cd491 O490 2.223 . S
Cd491 O494 2.297 . S
Cd491 O495 2.439 . S
Cd491 O501 2.240 . S
Cd492 O493 2.240 . S
Cd492 O500 2.223 . S
Cd492 O502 2.297 . S
Cd492 O503 2.439 . S
O493 Cd492 2.240 . S
O493 C498 1.279 . S
O494 Cd491 2.297 . S
O494 C496 1.247 . S
O495 Cd491 2.439 . S
O495 C496 1.208 . S
C496 O494 1.247 . S
C496 O495 1.208 . S
C497 O502 1.247 . S
C497 O503 1.208 . S
C498 O490 1.315 . S
C498 O493 1.279 . S
C499 O500 1.315 . S
C499 O501 1.279 . S
O500 Cd492 2.223 . S
O500 C499 1.315 . S
O501 Cd491 2.240 . S
O501 C499 1.279 . S
O502 Cd492 2.297 . S
O502 C497 1.247 . S
O503 Cd492 2.439 . S
O503 C497 1.208 . S
O504 Cd505 2.223 . S
O504 C512 1.315 . S
Cd505 O504 2.223 . S
Cd505 O508 2.297 . S
Cd505 O509 2.439 . S
Cd505 O515 2.240 . S
Cd506 O507 2.240 . S
Cd506 O514 2.223 . S
Cd506 O516 2.297 . S
Cd506 O517 2.439 . S
O507 Cd506 2.240 . S
O507 C512 1.279 . S
O508 Cd505 2.297 . S
O508 C510 1.247 . S
O509 Cd505 2.439 . S
O509 C510 1.208 . S
C510 O508 1.247 . S
C510 O509 1.208 . S
C511 O516 1.247 . S
C511 O517 1.208 . S
C512 O504 1.315 . S
C512 O507 1.279 . S
C513 O514 1.315 . S
C513 O515 1.279 . S
O514 Cd506 2.223 . S
O514 C513 1.315 . S
O515 Cd505 2.240 . S
O515 C513 1.279 . S
O516 Cd506 2.297 . S
O516 C511 1.247 . S
O517 Cd506 2.439 . S
O517 C511 1.208 . S
O518 Cd519 2.223 . S
O518 C526 1.315 . S
Cd519 O518 2.223 . S
Cd519 O522 2.297 . S
Cd519 O523 2.439 . S
Cd519 O529 2.240 . S
Cd520 O521 2.240 . S
Cd520 O528 2.223 . S
Cd520 O530 2.297 . S
Cd520 O531 2.439 . S
O521 Cd520 2.240 . S
O521 C526 1.279 . S
O522 Cd519 2.297 . S
O522 C524 1.247 . S
O523 Cd519 2.439 . S
O523 C524 1.208 . S
C524 O522 1.247 . S
C524 O523 1.208 . S
C525 O530 1.247 . S
C525 O531 1.208 . S
C526 O518 1.315 . S
C526 O521 1.279 . S
C527 O528 1.315 . S
C527 O529 1.279 . S
O528 Cd520 2.223 . S
O528 C527 1.315 . S
O529 Cd519 2.240 . S
O529 C527 1.279 . S
O530 Cd520 2.297 . S
O530 C525 1.247 . S
O531 Cd520 2.439 . S
O531 C525 1.208 . S
O532 Cd533 2.223 . S
O532 C540 1.315 . S
Cd533 O532 2.223 . S
Cd533 O536 2.297 . S
Cd533 O537 2.439 . S
Cd533 O543 2.240 . S
Cd534 O535 2.240 . S
Cd534 O542 2.223 . S
Cd534 O544 2.297 . S
Cd534 O545 2.439 . S
O535 Cd534 2.240 . S
O535 C540 1.279 . S
O536 Cd533 2.297 . S
O536 C538 1.247 . S
O537 Cd533 2.439 . S
O537 C538 1.208 . S
C538 O536 1.247 . S
C538 O537 1.208 . S
C539 O544 1.247 . S
C539 O545 1.208 . S
C540 O532 1.315 . S
C540 O535 1.279 . S
C541 O542 1.315 . S
C541 O543 1.279 . S
O542 Cd534 2.223 . S
O542 C541 1.315 . S
O543 Cd533 2.240 . S
O543 C541 1.279 . S
O544 Cd534 2.297 . S
O544 C539 1.247 . S
O545 Cd534 2.439 . S
O545 C539 1.208 . S
O546 Cd547 2.223 . S
O546 C554 1.315 . S
Cd547 O546 2.223 . S
Cd547 O550 2.297 . S
Cd547 O551 2.439 . S
Cd547 O557 2.240 . S
Cd548 O549 2.240 . S
Cd548 O556 2.223 . S
Cd548 O558 2.297 . S
Cd548 O559 2.439 . S
O549 Cd548 2.240 . S
O549 C554 1.279 . S
O550 Cd547 2.297 . S
O550 C552 1.247 . S
O551 Cd547 2.439 . S
O551 C552 1.208 . S
C552 O550 1.247 . S
C552 O551 1.208 . S
C553 O558 1.247 . S
C553 O559 1.208 . S
C554 O546 1.315 . S
C554 O549 1.279 . S
C555 O556 1.315 . S
C555 O557 1.279 . S
O556 Cd548 2.223 . S
O556 C555 1.315 . S
O557 Cd547 2.240 . S
O557 C555 1.279 . S
O558 Cd548 2.297 . S
O558 C553 1.247 . S
O559 Cd548 2.439 . S
O559 C553 1.208 . S
O560 Cd561 2.223 . S
O560 C568 1.315 . S
Cd561 O560 2.223 . S
Cd561 O564 2.297 . S
Cd561 O565 2.439 . S
Cd561 O571 2.240 . S
Cd562 O563 2.240 . S
Cd562 O570 2.223 . S
Cd562 O572 2.297 . S
Cd562 O573 2.439 . S
O563 Cd562 2.240 . S
O563 C568 1.279 . S
O564 Cd561 2.297 . S
O564 C566 1.247 . S
O565 Cd561 2.439 . S
O565 C566 1.208 . S
C566 O564 1.247 . S
C566 O565 1.208 . S
C567 O572 1.247 . S
C567 O573 1.208 . S
C568 O560 1.315 . S
C568 O563 1.279 . S
C569 O570 1.315 . S
C569 O571 1.279 . S
O570 Cd562 2.223 . S
O570 C569 1.315 . S
O571 Cd561 2.240 . S
O571 C569 1.279 . S
O572 Cd562 2.297 . S
O572 C567 1.247 . S
O573 Cd562 2.439 . S
O573 C567 1.208 . S
O574 Cd575 2.223 . S
O574 C582 1.315 . S
Cd575 O574 2.223 . S
Cd575 O578 2.297 . S
Cd575 O579 2.439 . S
Cd575 O585 2.240 . S
Cd576 O577 2.240 . S
Cd576 O584 2.223 . S
Cd576 O586 2.297 . S
Cd576 O587 2.439 . S
O577 Cd576 2.240 . S
O577 C582 1.279 . S
O578 Cd575 2.297 . S
O578 C580 1.247 . S
O579 Cd575 2.439 . S
O579 C580 1.208 . S
C580 O578 1.247 . S
C580 O579 1.208 . S
C581 O586 1.247 . S
C581 O587 1.208 . S
C582 O574 1.315 . S
C582 O577 1.279 . S
C583 O584 1.315 . S
C583 O585 1.279 . S
O584 Cd576 2.223 . S
O584 C583 1.315 . S
O585 Cd575 2.240 . S
O585 C583 1.279 . S
O586 Cd576 2.297 . S
O586 C581 1.247 . S
O587 Cd576 2.439 . S
O587 C581 1.208 . S
O588 Cd589 2.223 . S
O588 C596 1.315 . S
Cd589 O588 2.223 . S
Cd589 O592 2.297 . S
Cd589 O593 2.439 . S
Cd589 O599 2.240 . S
Cd590 O591 2.240 . S
Cd590 O598 2.223 . S
Cd590 O600 2.297 . S
Cd590 O601 2.439 . S
O591 Cd590 2.240 . S
O591 C596 1.279 . S
O592 Cd589 2.297 . S
O592 C594 1.247 . S
O593 Cd589 2.439 . S
O593 C594 1.208 . S
C594 O592 1.247 . S
C594 O593 1.208 . S
C595 O600 1.247 . S
C595 O601 1.208 . S
C596 O588 1.315 . S
C596 O591 1.279 . S
C597 O598 1.315 . S
C597 O599 1.279 . S
O598 Cd590 2.223 . S
O598 C597 1.315 . S
O599 Cd589 2.240 . S
O599 C597 1.279 . S
O600 Cd590 2.297 . S
O600 C595 1.247 . S
O601 Cd590 2.439 . S
O601 C595 1.208 . S
O602 Cd603 2.223 . S
O602 C610 1.315 . S
Cd603 O602 2.223 . S
Cd603 O606 2.297 . S
Cd603 O607 2.439 . S
Cd603 O613 2.240 . S
Cd604 O605 2.240 . S
Cd604 O612 2.223 . S
Cd604 O614 2.297 . S
Cd604 O615 2.439 . S
O605 Cd604 2.240 . S
O605 C610 1.279 . S
O606 Cd603 2.297 . S
O606 C608 1.247 . S
O607 Cd603 2.439 . S
O607 C608 1.208 . S
C608 O606 1.247 . S
C608 O607 1.208 . S
C609 O614 1.247 . S
C609 O615 1.208 . S
C610 O602 1.315 . S
C610 O605 1.279 . S
C611 O612 1.315 . S
C611 O613 1.279 . S
O612 Cd604 2.223 . S
O612 C611 1.315 . S
O613 Cd603 2.240 . S
O613 C611 1.279 . S
O614 Cd604 2.297 . S
O614 C609 1.247 . S
O615 Cd604 2.439 . S
O615 C609 1.208 . S
O616 Cd617 2.223 . S
O616 C624 1.315 . S
Cd617 O616 2.223 . S
Cd617 O620 2.297 . S
Cd617 O621 2.439 . S
Cd617 O627 2.240 . S
Cd618 O619 2.240 . S
Cd618 O626 2.223 . S
Cd618 O628 2.297 . S
Cd618 O629 2.439 . S
O619 Cd618 2.240 . S
O619 C624 1.279 . S
O620 Cd617 2.297 . S
O620 C622 1.247 . S
O621 Cd617 2.439 . S
O621 C622 1.208 . S
C622 O620 1.247 . S
C622 O621 1.208 . S
C623 O628 1.247 . S
C623 O629 1.208 . S
C624 O616 1.315 . S
C624 O619 1.279 . S
C625 O626 1.315 . S
C625 O627 1.279 . S
O626 Cd618 2.223 . S
O626 C625 1.315 . S
O627 Cd617 2.240 . S
O627 C625 1.279 . S
O628 Cd618 2.297 . S
O628 C623 1.247 . S
O629 Cd618 2.439 . S
O629 C623 1.208 . S
O630 Cd631 2.223 . S
O630 C638 1.315 . S
Cd631 O630 2.223 . S
Cd631 O634 2.297 . S
Cd631 O635 2.439 . S
Cd631 O641 2.240 . S
Cd632 O633 2.240 . S
Cd632 O640 2.223 . S
Cd632 O642 2.297 . S
Cd632 O643 2.439 . S
O633 Cd632 2.240 . S
O633 C638 1.279 . S
O634 Cd631 2.297 . S
O634 C636 1.247 . S
O635 Cd631 2.439 . S
O635 C636 1.208 . S
C636 O634 1.247 . S
C636 O635 1.208 . S
C637 O642 1.247 . S
C637 O643 1.208 . S
C638 O630 1.315 . S
C638 O633 1.279 . S
C639 O640 1.315 . S
C639 O641 1.279 . S
O640 Cd632 2.223 . S
O640 C639 1.315 . S
O641 Cd631 2.240 . S
O641 C639 1.279 . S
O642 Cd632 2.297 . S
O642 C637 1.247 . S
O643 Cd632 2.439 . S
O643 C637 1.208 . S
O644 Cd645 2.223 . S
O644 C652 1.315 . S
Cd645 O644 2.223 . S
Cd645 O648 2.297 . S
Cd645 O649 2.439 . S
Cd645 O655 2.240 . S
Cd646 O647 2.240 . S
Cd646 O654 2.223 . S
Cd646 O656 2.297 . S
Cd646 O657 2.439 . S
O647 Cd646 2.240 . S
O647 C652 1.279 . S
O648 Cd645 2.297 . S
O648 C650 1.247 . S
O649 Cd645 2.439 . S
O649 C650 1.208 . S
C650 O648 1.247 . S
C650 O649 1.208 . S
C651 O656 1.247 . S
C651 O657 1.208 . S
C652 O644 1.315 . S
C652 O647 1.279 . S
C653 O654 1.315 . S
C653 O655 1.279 . S
O654 Cd646 2.223 . S
O654 C653 1.315 . S
O655 Cd645 2.240 . S
O655 C653 1.279 . S
O656 Cd646 2.297 . S
O656 C651 1.247 . S
O657 Cd646 2.439 . S
O657 C651 1.208 . S
O658 Cd659 2.223 . S
O658 C666 1.315 . S
Cd659 O658 2.223 . S
Cd659 O662 2.297 . S
Cd659 O663 2.439 . S
Cd659 O669 2.240 . S
Cd660 O661 2.240 . S
Cd660 O668 2.223 . S
Cd660 O670 2.297 . S
Cd660 O671 2.439 . S
O661 Cd660 2.240 . S
O661 C666 1.279 . S
O662 Cd659 2.297 . S
O662 C664 1.247 . S
O663 Cd659 2.439 . S
O663 C664 1.208 . S
C664 O662 1.247 . S
C664 O663 1.208 . S
C665 O670 1.247 . S
C665 O671 1.208 . S
C666 O658 1.315 . S
C666 O661 1.279 . S
C667 O668 1.315 . S
C667 O669 1.279 . S
O668 Cd660 2.223 . S
O668 C667 1.315 . S
O669 Cd659 2.240 . S
O669 C667 1.279 . S
O670 Cd660 2.297 . S
O670 C665 1.247 . S
O671 Cd660 2.439 . S
O671 C665 1.208 . S
O672 Cd673 2.223 . S
O672 C680 1.315 . S
Cd673 O672 2.223 . S
Cd673 O676 2.297 . S
Cd673 O677 2.439 . S
Cd673 O683 2.240 . S
Cd674 O675 2.240 . S
Cd674 O682 2.223 . S
Cd674 O684 2.297 . S
Cd674 O685 2.439 . S
O675 Cd674 2.240 . S
O675 C680 1.279 . S
O676 Cd673 2.297 . S
O676 C678 1.247 . S
O677 Cd673 2.439 . S
O677 C678 1.208 . S
C678 O676 1.247 . S
C678 O677 1.208 . S
C679 O684 1.247 . S
C679 O685 1.208 . S
C680 O672 1.315 . S
C680 O675 1.279 . S
C681 O682 1.315 . S
C681 O683 1.279 . S
O682 Cd674 2.223 . S
O682 C681 1.315 . S
O683 Cd673 2.240 . S
O683 C681 1.279 . S
O684 Cd674 2.297 . S
O684 C679 1.247 . S
O685 Cd674 2.439 . S
O685 C679 1.208 . S
O686 Cd687 2.223 . S
O686 C694 1.315 . S
Cd687 O686 2.223 . S
Cd687 O690 2.297 . S
Cd687 O691 2.439 . S
Cd687 O697 2.240 . S
Cd688 O689 2.240 . S
Cd688 O696 2.223 . S
Cd688 O698 2.297 . S
Cd688 O699 2.439 . S
O689 Cd688 2.240 . S
O689 C694 1.279 . S
O690 Cd687 2.297 . S
O690 C692 1.247 . S
O691 Cd687 2.439 . S
O691 C692 1.208 . S
C692 O690 1.247 . S
C692 O691 1.208 . S
C693 O698 1.247 . S
C693 O699 1.208 . S
C694 O686 1.315 . S
C694 O689 1.279 . S
C695 O696 1.315 . S
C695 O697 1.279 . S
O696 Cd688 2.223 . S
O696 C695 1.315 . S
O697 Cd687 2.240 . S
O697 C695 1.279 . S
O698 Cd688 2.297 . S
O698 C693 1.247 . S
O699 Cd688 2.439 . S
O699 C693 1.208 . S
O700 Cd701 2.223 . S
O700 C708 1.315 . S
Cd701 O700 2.223 . S
Cd701 O704 2.297 . S
Cd701 O705 2.439 . S
Cd701 O711 2.240 . S
Cd702 O703 2.240 . S
Cd702 O710 2.223 . S
Cd702 O712 2.297 . S
Cd702 O713 2.439 . S
O703 Cd702 2.240 . S
O703 C708 1.279 . S
O704 Cd701 2.297 . S
O704 C706 1.247 . S
O705 Cd701 2.439 . S
O705 C706 1.208 . S
C706 O704 1.247 . S
C706 O705 1.208 . S
C707 O712 1.247 . S
C707 O713 1.208 . S
C708 O700 1.315 . S
C708 O703 1.279 . S
C709 O710 1.315 . S
C709 O711 1.279 . S
O710 Cd702 2.223 . S
O710 C709 1.315 . S
O711 Cd701 2.240 . S
O711 C709 1.279 . S
O712 Cd702 2.297 . S
O712 C707 1.247 . S
O713 Cd702 2.439 . S
O713 C707 1.208 . S
O714 Cd715 2.223 . S
O714 C722 1.315 . S
Cd715 O714 2.223 . S
Cd715 O718 2.297 . S
Cd715 O719 2.439 . S
Cd715 O725 2.240 . S
Cd716 O717 2.240 . S
Cd716 O724 2.223 . S
Cd716 O726 2.297 . S
Cd716 O727 2.439 . S
O717 Cd716 2.240 . S
O717 C722 1.279 . S
O718 Cd715 2.297 . S
O718 C720 1.247 . S
O719 Cd715 2.439 . S
O719 C720 1.208 . S
C720 O718 1.247 . S
C720 O719 1.208 . S
C721 O726 1.247 . S
C721 O727 1.208 . S
C722 O714 1.315 . S
C722 O717 1.279 . S
C723 O724 1.315 . S
C723 O725 1.279 . S
O724 Cd716 2.223 . S
O724 C723 1.315 . S
O725 Cd715 2.240 . S
O725 C723 1.279 . S
O726 Cd716 2.297 . S
O726 C721 1.247 . S
O727 Cd716 2.439 . S
O727 C721 1.208 . S
O728 Cd729 2.223 . S
O728 C736 1.315 . S
Cd729 O728 2.223 . S
Cd729 O732 2.297 . S
Cd729 O733 2.439 . S
Cd729 O739 2.240 . S
Cd730 O731 2.240 . S
Cd730 O738 2.223 . S
Cd730 O740 2.297 . S
Cd730 O741 2.439 . S
O731 Cd730 2.240 . S
O731 C736 1.279 . S
O732 Cd729 2.297 . S
O732 C734 1.247 . S
O733 Cd729 2.439 . S
O733 C734 1.208 . S
C734 O732 1.247 . S
C734 O733 1.208 . S
C735 O740 1.247 . S
C735 O741 1.208 . S
C736 O728 1.315 . S
C736 O731 1.279 . S
C737 O738 1.315 . S
C737 O739 1.279 . S
O738 Cd730 2.223 . S
O738 C737 1.315 . S
O739 Cd729 2.240 . S
O739 C737 1.279 . S
O740 Cd730 2.297 . S
O740 C735 1.247 . S
O741 Cd730 2.439 . S
O741 C735 1.208 . S
O742 Cd743 2.223 . S
O742 C750 1.315 . S
Cd743 O742 2.223 . S
Cd743 O746 2.297 . S
Cd743 O747 2.439 . S
Cd743 O753 2.240 . S
Cd744 O745 2.240 . S
Cd744 O752 2.223 . S
Cd744 O754 2.297 . S
Cd744 O755 2.439 . S
O745 Cd744 2.240 . S
O745 C750 1.279 . S
O746 Cd743 2.297 . S
O746 C748 1.247 . S
O747 Cd743 2.439 . S
O747 C748 1.208 . S
C748 O746 1.247 . S
C748 O747 1.208 . S
C749 O754 1.247 . S
C749 O755 1.208 . S
C750 O742 1.315 . S
C750 O745 1.279 . S
C751 O752 1.315 . S
C751 O753 1.279 . S
O752 Cd744 2.223 . S
O752 C751 1.315 . S
O753 Cd743 2.240 . S
O753 C751 1.279 . S
O754 Cd744 2.297 . S
O754 C749 1.247 . S
O755 Cd744 2.439 . S
O755 C749 1.208 . S
O756 Cd757 2.223 . S
O756 C764 1.315 . S
Cd757 O756 2.223 . S
Cd757 O760 2.297 . S
Cd757 O761 2.439 . S
Cd757 O767 2.240 . S
Cd758 O759 2.240 . S
Cd758 O766 2.223 . S
Cd758 O768 2.297 . S
Cd758 O769 2.439 . S
O759 Cd758 2.240 . S
O759 C764 1.279 . S
O760 Cd757 2.297 . S
O760 C762 1.247 . S
O761 Cd757 2.439 . S
O761 C762 1.208 . S
C762 O760 1.247 . S
C762 O761 1.208 . S
C763 O768 1.247 . S
C763 O769 1.208 . S
C764 O756 1.315 . S
C764 O759 1.279 . S
C765 O766 1.315 . S
C765 O767 1.279 . S
O766 Cd758 2.223 . S
O766 C765 1.315 . S
O767 Cd757 2.240 . S
O767 C765 1.279 . S
O768 Cd758 2.297 . S
O768 C763 1.247 . S
O769 Cd758 2.439 . S
O769 C763 1.208 . S
O770 Cd771 2.223 . S
O770 C778 1.315 . S
Cd771 O770 2.223 . S
Cd771 O774 2.297 . S
Cd771 O775 2.439 . S
Cd771 O781 2.240 . S
Cd772 O773 2.240 . S
Cd772 O780 2.223 . S
Cd772 O782 2.297 . S
Cd772 O783 2.439 . S
O773 Cd772 2.240 . S
O773 C778 1.279 . S
O774 Cd771 2.297 . S
O774 C776 1.247 . S
O775 Cd771 2.439 . S
O775 C776 1.208 . S
C776 O774 1.247 . S
C776 O775 1.208 . S
C777 O782 1.247 . S
C777 O783 1.208 . S
C778 O770 1.315 . S
C778 O773 1.279 . S
C779 O780 1.315 . S
C779 O781 1.279 . S
O780 Cd772 2.223 . S
O780 C779 1.315 . S
O781 Cd771 2.240 . S
O781 C779 1.279 . S
O782 Cd772 2.297 . S
O782 C777 1.247 . S
O783 Cd772 2.439 . S
O783 C777 1.208 . S
O784 Cd785 2.223 . S
O784 C792 1.315 . S
Cd785 O784 2.223 . S
Cd785 O788 2.297 . S
Cd785 O789 2.439 . S
Cd785 O795 2.240 . S
Cd786 O787 2.240 . S
Cd786 O794 2.223 . S
Cd786 O796 2.297 . S
Cd786 O797 2.439 . S
O787 Cd786 2.240 . S
O787 C792 1.279 . S
O788 Cd785 2.297 . S
O788 C790 1.247 . S
O789 Cd785 2.439 . S
O789 C790 1.208 . S
C790 O788 1.247 . S
C790 O789 1.208 . S
C791 O796 1.247 . S
C791 O797 1.208 . S
C792 O784 1.315 . S
C792 O787 1.279 . S
C793 O794 1.315 . S
C793 O795 1.279 . S
O794 Cd786 2.223 . S
O794 C793 1.315 . S
O795 Cd785 2.240 . S
O795 C793 1.279 . S
O796 Cd786 2.297 . S
O796 C791 1.247 . S
O797 Cd786 2.439 . S
O797 C791 1.208 . S
O798 Cd799 2.223 . S
O798 C806 1.315 . S
Cd799 O798 2.223 . S
Cd799 O802 2.297 . S
Cd799 O803 2.439 . S
Cd799 O809 2.240 . S
Cd800 O801 2.240 . S
Cd800 O808 2.223 . S
Cd800 O810 2.297 . S
Cd800 O811 2.439 . S
O801 Cd800 2.240 . S
O801 C806 1.279 . S
O802 Cd799 2.297 . S
O802 C804 1.247 . S
O803 Cd799 2.439 . S
O803 C804 1.208 . S
C804 O802 1.247 . S
C804 O803 1.208 . S
C805 O810 1.247 . S
C805 O811 1.208 . S
C806 O798 1.315 . S
C806 O801 1.279 . S
C807 O808 1.315 . S
C807 O809 1.279 . S
O808 Cd800 2.223 . S
O808 C807 1.315 . S
O809 Cd799 2.240 . S
O809 C807 1.279 . S
O810 Cd800 2.297 . S
O810 C805 1.247 . S
O811 Cd800 2.439 . S
O811 C805 1.208 . S
O812 Cd813 2.223 . S
O812 C820 1.315 . S
Cd813 O812 2.223 . S
Cd813 O816 2.297 . S
Cd813 O817 2.439 . S
Cd813 O823 2.240 . S
Cd814 O815 2.240 . S
Cd814 O822 2.223 . S
Cd814 O824 2.297 . S
Cd814 O825 2.439 . S
O815 Cd814 2.240 . S
O815 C820 1.279 . S
O816 Cd813 2.297 . S
O816 C818 1.247 . S
O817 Cd813 2.439 . S
O817 C818 1.208 . S
C818 O816 1.247 . S
C818 O817 1.208 . S
C819 O824 1.247 . S
C819 O825 1.208 . S
C820 O812 1.315 . S
C820 O815 1.279 . S
C821 O822 1.315 . S
C821 O823 1.279 . S
O822 Cd814 2.223 . S
O822 C821 1.315 . S
O823 Cd813 2.240 . S
O823 C821 1.279 . S
O824 Cd814 2.297 . S
O824 C819 1.247 . S
O825 Cd814 2.439 . S
O825 C819 1.208 . S
O826 Cd827 2.223 . S
O826 C834 1.315 . S
Cd827 O826 2.223 . S
Cd827 O830 2.297 . S
Cd827 O831 2.439 . S
Cd827 O837 2.240 . S
Cd828 O829 2.240 . S
Cd828 O836 2.223 . S
Cd828 O838 2.297 . S
Cd828 O839 2.439 . S
O829 Cd828 2.240 . S
O829 C834 1.279 . S
O830 Cd827 2.297 . S
O830 C832 1.247 . S
O831 Cd827 2.439 . S
O831 C832 1.208 . S
C832 O830 1.247 . S
C832 O831 1.208 . S
C833 O838 1.247 . S
C833 O839 1.208 . S
C834 O826 1.315 . S
C834 O829 1.279 . S
C835 O836 1.315 . S
C835 O837 1.279 . S
O836 Cd828 2.223 . S
O836 C835 1.315 . S
O837 Cd827 2.240 . S
O837 C835 1.279 . S
O838 Cd828 2.297 . S
O838 C833 1.247 . S
O839 Cd828 2.439 . S
O839 C833 1.208 . S
O840 Cd841 2.223 . S
O840 C848 1.315 . S
Cd841 O840 2.223 . S
Cd841 O844 2.297 . S
Cd841 O845 2.439 . S
Cd841 O851 2.240 . S
Cd842 O843 2.240 . S
Cd842 O850 2.223 . S
Cd842 O852 2.297 . S
Cd842 O853 2.439 . S
O843 Cd842 2.240 . S
O843 C848 1.279 . S
O844 Cd841 2.297 . S
O844 C846 1.247 . S
O845 Cd841 2.439 . S
O845 C846 1.208 . S
C846 O844 1.247 . S
C846 O845 1.208 . S
C847 O852 1.247 . S
C847 O853 1.208 . S
C848 O840 1.315 . S
C848 O843 1.279 . S
C849 O850 1.315 . S
C849 O851 1.279 . S
O850 Cd842 2.223 . S
O850 C849 1.315 . S
O851 Cd841 2.240 . S
O851 C849 1.279 . S
O852 Cd842 2.297 . S
O852 C847 1.247 . S
O853 Cd842 2.439 . S
O853 C847 1.208 . S
O854 Cd855 2.223 . S
O854 C862 1.315 . S
Cd855 O854 2.223 . S
Cd855 O858 2.297 . S
Cd855 O859 2.439 . S
Cd855 O865 2.240 . S
Cd856 O857 2.240 . S
Cd856 O864 2.223 . S
Cd856 O866 2.297 . S
Cd856 O867 2.439 . S
O857 Cd856 2.240 . S
O857 C862 1.279 . S
O858 Cd855 2.297 . S
O858 C860 1.247 . S
O859 Cd855 2.439 . S
O859 C860 1.208 . S
C860 O858 1.247 . S
C860 O859 1.208 . S
C861 O866 1.247 . S
C861 O867 1.208 . S
C862 O854 1.315 . S
C862 O857 1.279 . S
C863 O864 1.315 . S
C863 O865 1.279 . S
O864 Cd856 2.223 . S
O864 C863 1.315 . S
O865 Cd855 2.240 . S
O865 C863 1.279 . S
O866 Cd856 2.297 . S
O866 C861 1.247 . S
O867 Cd856 2.439 . S
O867 C861 1.208 . S
O868 Cd869 2.223 . S
O868 C876 1.315 . S
Cd869 O868 2.223 . S
Cd869 O872 2.297 . S
Cd869 O873 2.439 . S
Cd869 O879 2.240 . S
Cd870 O871 2.240 . S
Cd870 O878 2.223 . S
Cd870 O880 2.297 . S
Cd870 O881 2.439 . S
O871 Cd870 2.240 . S
O871 C876 1.279 . S
O872 Cd869 2.297 . S
O872 C874 1.247 . S
O873 Cd869 2.439 . S
O873 C874 1.208 . S
C874 O872 1.247 . S
C874 O873 1.208 . S
C875 O880 1.247 . S
C875 O881 1.208 . S
C876 O868 1.315 . S
C876 O871 1.279 . S
C877 O878 1.315 . S
C877 O879 1.279 . S
O878 Cd870 2.223 . S
O878 C877 1.315 . S
O879 Cd869 2.240 . S
O879 C877 1.279 . S
O880 Cd870 2.297 . S
O880 C875 1.247 . S
O881 Cd870 2.439 . S
O881 C875 1.208 . S
O882 Cd883 2.223 . S
O882 C890 1.315 . S
Cd883 O882 2.223 . S
Cd883 O886 2.297 . S
Cd883 O887 2.439 . S
Cd883 O893 2.240 . S
Cd884 O885 2.240 . S
Cd884 O892 2.223 . S
Cd884 O894 2.297 . S
Cd884 O895 2.439 . S
O885 Cd884 2.240 . S
O885 C890 1.279 . S
O886 Cd883 2.297 . S
O886 C888 1.247 . S
O887 Cd883 2.439 . S
O887 C888 1.208 . S
C888 O886 1.247 . S
C888 O887 1.208 . S
C889 O894 1.247 . S
C889 O895 1.208 . S
C890 O882 1.315 . S
C890 O885 1.279 . S
C891 O892 1.315 . S
C891 O893 1.279 . S
O892 Cd884 2.223 . S
O892 C891 1.315 . S
O893 Cd883 2.240 . S
O893 C891 1.279 . S
O894 Cd884 2.297 . S
O894 C889 1.247 . S
O895 Cd884 2.439 . S
O895 C889 1.208 . S
O896 Cd897 2.223 . S
O896 C904 1.315 . S
Cd897 O896 2.223 . S
Cd897 O900 2.297 . S
Cd897 O901 2.439 . S
Cd897 O907 2.240 . S
Cd898 O899 2.240 . S
Cd898 O906 2.223 . S
Cd898 O908 2.297 . S
Cd898 O909 2.439 . S
O899 Cd898 2.240 . S
O899 C904 1.279 . S
O900 Cd897 2.297 . S
O900 C902 1.247 . S
O901 Cd897 2.439 . S
O901 C902 1.208 . S
C902 O900 1.247 . S
C902 O901 1.208 . S
C903 O908 1.247 . S
C903 O909 1.208 . S
C904 O896 1.315 . S
C904 O899 1.279 . S
C905 O906 1.315 . S
C905 O907 1.279 . S
O906 Cd898 2.223 . S
O906 C905 1.315 . S
O907 Cd897 2.240 . S
O907 C905 1.279 . S
O908 Cd898 2.297 . S
O908 C903 1.247 . S
O909 Cd898 2.439 . S
O909 C903 1.208 . S
O910 Cd911 2.223 . S
O910 C918 1.315 . S
Cd911 O910 2.223 . S
Cd911 O914 2.297 . S
Cd911 O915 2.439 . S
Cd911 O921 2.240 . S
Cd912 O913 2.240 . S
Cd912 O920 2.223 . S
Cd912 O922 2.297 . S
Cd912 O923 2.439 . S
O913 Cd912 2.240 . S
O913 C918 1.279 . S
O914 Cd911 2.297 . S
O914 C916 1.247 . S
O915 Cd911 2.439 . S
O915 C916 1.208 . S
C916 O914 1.247 . S
C916 O915 1.208 . S
C917 O922 1.247 . S
C917 O923 1.208 . S
C918 O910 1.315 . S
C918 O913 1.279 . S
C919 O920 1.315 . S
C919 O921 1.279 . S
O920 Cd912 2.223 . S
O920 C919 1.315 . S
O921 Cd911 2.240 . S
O921 C919 1.279 . S
O922 Cd912 2.297 . S
O922 C917 1.247 . S
O923 Cd912 2.439 . S
O923 C917 1.208 . S
O924 Cd925 2.223 . S
O924 C932 1.315 . S
Cd925 O924 2.223 . S
Cd925 O928 2.297 . S
Cd925 O929 2.439 . S
Cd925 O935 2.240 . S
Cd926 O927 2.240 . S
Cd926 O934 2.223 . S
Cd926 O936 2.297 . S
Cd926 O937 2.439 . S
O927 Cd926 2.240 . S
O927 C932 1.279 . S
O928 Cd925 2.297 . S
O928 C930 1.247 . S
O929 Cd925 2.439 . S
O929 C930 1.208 . S
C930 O928 1.247 . S
C930 O929 1.208 . S
C931 O936 1.247 . S
C931 O937 1.208 . S
C932 O924 1.315 . S
C932 O927 1.279 . S
C933 O934 1.315 . S
C933 O935 1.279 . S
O934 Cd926 2.223 . S
O934 C933 1.315 . S
O935 Cd925 2.240 . S
O935 C933 1.279 . S
O936 Cd926 2.297 . S
O936 C931 1.247 . S
O937 Cd926 2.439 . S
O937 C931 1.208 . S
O938 Cd939 2.223 . S
O938 C946 1.315 . S
Cd939 O938 2.223 . S
Cd939 O942 2.297 . S
Cd939 O943 2.439 . S
Cd939 O949 2.240 . S
Cd940 O941 2.240 . S
Cd940 O948 2.223 . S
Cd940 O950 2.297 . S
Cd940 O951 2.439 . S
O941 Cd940 2.240 . S
O941 C946 1.279 . S
O942 Cd939 2.297 . S
O942 C944 1.247 . S
O943 Cd939 2.439 . S
O943 C944 1.208 . S
C944 O942 1.247 . S
C944 O943 1.208 . S
C945 O950 1.247 . S
C945 O951 1.208 . S
C946 O938 1.315 . S
C946 O941 1.279 . S
C947 O948 1.315 . S
C947 O949 1.279 . S
O948 Cd940 2.223 . S
O948 C947 1.315 . S
O949 Cd939 2.240 . S
O949 C947 1.279 . S
O950 Cd940 2.297 . S
O950 C945 1.247 . S
O951 Cd940 2.439 . S
O951 C945 1.208 . S
O952 Cd953 2.223 . S
O952 C960 1.315 . S
Cd953 O952 2.223 . S
Cd953 O956 2.297 . S
Cd953 O957 2.439 . S
Cd953 O963 2.240 . S
Cd954 O955 2.240 . S
Cd954 O962 2.223 . S
Cd954 O964 2.297 . S
Cd954 O965 2.439 . S
O955 Cd954 2.240 . S
O955 C960 1.279 . S
O956 Cd953 2.297 . S
O956 C958 1.247 . S
O957 Cd953 2.439 . S
O957 C958 1.208 . S
C958 O956 1.247 . S
C958 O957 1.208 . S
C959 O964 1.247 . S
C959 O965 1.208 . S
C960 O952 1.315 . S
C960 O955 1.279 . S
C961 O962 1.315 . S
C961 O963 1.279 . S
O962 Cd954 2.223 . S
O962 C961 1.315 . S
O963 Cd953 2.240 . S
O963 C961 1.279 . S
O964 Cd954 2.297 . S
O964 C959 1.247 . S
O965 Cd954 2.439 . S
O965 C959 1.208 . S
O966 Cd967 2.223 . S
O966 C974 1.315 . S
Cd967 O966 2.223 . S
Cd967 O970 2.297 . S
Cd967 O971 2.439 . S
Cd967 O977 2.240 . S
Cd968 O969 2.240 . S
Cd968 O976 2.223 . S
Cd968 O978 2.297 . S
Cd968 O979 2.439 . S
O969 Cd968 2.240 . S
O969 C974 1.279 . S
O970 Cd967 2.297 . S
O970 C972 1.247 . S
O971 Cd967 2.439 . S
O971 C972 1.208 . S
C972 O970 1.247 . S
C972 O971 1.208 . S
C973 O978 1.247 . S
C973 O979 1.208 . S
C974 O966 1.315 . S
C974 O969 1.279 . S
C975 O976 1.315 . S
C975 O977 1.279 . S
O976 Cd968 2.223 . S
O976 C975 1.315 . S
O977 Cd967 2.240 . S
O977 C975 1.279 . S
O978 Cd968 2.297 . S
O978 C973 1.247 . S
O979 Cd968 2.439 . S
O979 C973 1.208 . S
O980 Cd981 2.223 . S
O980 C988 1.315 . S
Cd981 O980 2.223 . S
Cd981 O984 2.297 . S
Cd981 O985 2.439 . S
Cd981 O991 2.240 . S
Cd982 O983 2.240 . S
Cd982 O990 2.223 . S
Cd982 O992 2.297 . S
Cd982 O993 2.439 . S
O983 Cd982 2.240 . S
O983 C988 1.279 . S
O984 Cd981 2.297 . S
O984 C986 1.247 . S
O985 Cd981 2.439 . S
O985 C986 1.208 . S
C986 O984 1.247 . S
C986 O985 1.208 . S
C987 O992 1.247 . S
C987 O993 1.208 . S
C988 O980 1.315 . S
C988 O983 1.279 . S
C989 O990 1.315 . S
C989 O991 1.279 . S
O990 Cd982 2.223 . S
O990 C989 1.315 . S
O991 Cd981 2.240 . S
O991 C989 1.279 . S
O992 Cd982 2.297 . S
O992 C987 1.247 . S
O993 Cd982 2.439 . S
O993 C987 1.208 . S
O994 Cd995 2.223 . S
O994 C1002 1.315 . S
Cd995 O994 2.223 . S
Cd995 O998 2.297 . S
Cd995 O999 2.439 . S
Cd995 O1005 2.240 . S
Cd996 O997 2.240 . S
Cd996 O1004 2.223 . S
Cd996 O1006 2.297 . S
Cd996 O1007 2.439 . S
O997 Cd996 2.240 . S
O997 C1002 1.279 . S
O998 Cd995 2.297 . S
O998 C1000 1.247 . S
O999 Cd995 2.439 . S
O999 C1000 1.208 . S
C1000 O998 1.247 . S
C1000 O999 1.208 . S
C1001 O1006 1.247 . S
C1001 O1007 1.208 . S
C1002 O994 1.315 . S
C1002 O997 1.279 . S
C1003 O1004 1.315 . S
C1003 O1005 1.279 . S
O1004 Cd996 2.223 . S
O1004 C1003 1.315 . S
O1005 Cd995 2.240 . S
O1005 C1003 1.279 . S
O1006 Cd996 2.297 . S
O1006 C1001 1.247 . S
O1007 Cd996 2.439 . S
O1007 C1001 1.208 . S
O1008 Cd1009 2.223 . S
O1008 C1016 1.315 . S
Cd1009 O1008 2.223 . S
Cd1009 O1012 2.297 . S
Cd1009 O1013 2.439 . S
Cd1009 O1019 2.240 . S
Cd1010 O1011 2.240 . S
Cd1010 O1018 2.223 . S
Cd1010 O1020 2.297 . S
Cd1010 O1021 2.439 . S
O1011 Cd1010 2.240 . S
O1011 C1016 1.279 . S
O1012 Cd1009 2.297 . S
O1012 C1014 1.247 . S
O1013 Cd1009 2.439 . S
O1013 C1014 1.208 . S
C1014 O1012 1.247 . S
C1014 O1013 1.208 . S
C1015 O1020 1.247 . S
C1015 O1021 1.208 . S
C1016 O1008 1.315 . S
C1016 O1011 1.279 . S
C1017 O1018 1.315 . S
C1017 O1019 1.279 . S
O1018 Cd1010 2.223 . S
O1018 C1017 1.315 . S
O1019 Cd1009 2.240 . S
O1019 C1017 1.279 . S
O1020 Cd1010 2.297 . S
O1020 C1015 1.247 . S
O1021 Cd1010 2.439 . S
O1021 C1015 1.208 . S
O1022 Cd1023 2.223 . S
O1022 C1030 1.315 . S
Cd1023 O1022 2.223 . S
Cd1023 O1026 2.297 . S
Cd1023 O1027 2.439 . S
Cd1023 O1033 2.240 . S
Cd1024 O1025 2.240 . S
Cd1024 O1032 2.223 . S
Cd1024 O1034 2.297 . S
Cd1024 O1035 2.439 . S
O1025 Cd1024 2.240 . S
O1025 C1030 1.279 . S
O1026 Cd1023 2.297 . S
O1026 C1028 1.247 . S
O1027 Cd1023 2.439 . S
O1027 C1028 1.208 . S
C1028 O1026 1.247 . S
C1028 O1027 1.208 . S
C1029 O1034 1.247 . S
C1029 O1035 1.208 . S
C1030 O1022 1.315 . S
C1030 O1025 1.279 . S
C1031 O1032 1.315 . S
C1031 O1033 1.279 . S
O1032 Cd1024 2.223 . S
O1032 C1031 1.315 . S
O1033 Cd1023 2.240 . S
O1033 C1031 1.279 . S
O1034 Cd1024 2.297 . S
O1034 C1029 1.247 . S
O1035 Cd1024 2.439 . S
O1035 C1029 1.208 . S
O1036 Cd1037 2.223 . S
O1036 C1044 1.315 . S
Cd1037 O1036 2.223 . S
Cd1037 O1040 2.297 . S
Cd1037 O1041 2.439 . S
Cd1037 O1047 2.240 . S
Cd1038 O1039 2.240 . S
Cd1038 O1046 2.223 . S
Cd1038 O1048 2.297 . S
Cd1038 O1049 2.439 . S
O1039 Cd1038 2.240 . S
O1039 C1044 1.279 . S
O1040 Cd1037 2.297 . S
O1040 C1042 1.247 . S
O1041 Cd1037 2.439 . S
O1041 C1042 1.208 . S
C1042 O1040 1.247 . S
C1042 O1041 1.208 . S
C1043 O1048 1.247 . S
C1043 O1049 1.208 . S
C1044 O1036 1.315 . S
C1044 O1039 1.279 . S
C1045 O1046 1.315 . S
C1045 O1047 1.279 . S
O1046 Cd1038 2.223 . S
O1046 C1045 1.315 . S
O1047 Cd1037 2.240 . S
O1047 C1045 1.279 . S
O1048 Cd1038 2.297 . S
O1048 C1043 1.247 . S
O1049 Cd1038 2.439 . S
O1049 C1043 1.208 . S
O1050 Cd1051 2.223 . S
O1050 C1058 1.315 . S
Cd1051 O1050 2.223 . S
Cd1051 O1054 2.297 . S
Cd1051 O1055 2.439 . S
Cd1051 O1061 2.240 . S
Cd1052 O1053 2.240 . S
Cd1052 O1060 2.223 . S
Cd1052 O1062 2.297 . S
Cd1052 O1063 2.439 . S
O1053 Cd1052 2.240 . S
O1053 C1058 1.279 . S
O1054 Cd1051 2.297 . S
O1054 C1056 1.247 . S
O1055 Cd1051 2.439 . S
O1055 C1056 1.208 . S
C1056 O1054 1.247 . S
C1056 O1055 1.208 . S
C1057 O1062 1.247 . S
C1057 O1063 1.208 . S
C1058 O1050 1.315 . S
C1058 O1053 1.279 . S
C1059 O1060 1.315 . S
C1059 O1061 1.279 . S
O1060 Cd1052 2.223 . S
O1060 C1059 1.315 . S
O1061 Cd1051 2.240 . S
O1061 C1059 1.279 . S
O1062 Cd1052 2.297 . S
O1062 C1057 1.247 . S
O1063 Cd1052 2.439 . S
O1063 C1057 1.208 . S
O1064 Cd1065 2.223 . S
O1064 C1072 1.315 . S
Cd1065 O1064 2.223 . S
Cd1065 O1068 2.297 . S
Cd1065 O1069 2.439 . S
Cd1065 O1075 2.240 . S
Cd1066 O1067 2.240 . S
Cd1066 O1074 2.223 . S
Cd1066 O1076 2.297 . S
Cd1066 O1077 2.439 . S
O1067 Cd1066 2.240 . S
O1067 C1072 1.279 . S
O1068 Cd1065 2.297 . S
O1068 C1070 1.247 . S
O1069 Cd1065 2.439 . S
O1069 C1070 1.208 . S
C1070 O1068 1.247 . S
C1070 O1069 1.208 . S
C1071 O1076 1.247 . S
C1071 O1077 1.208 . S
C1072 O1064 1.315 . S
C1072 O1067 1.279 . S
C1073 O1074 1.315 . S
C1073 O1075 1.279 . S
O1074 Cd1066 2.223 . S
O1074 C1073 1.315 . S
O1075 Cd1065 2.240 . S
O1075 C1073 1.279 . S
O1076 Cd1066 2.297 . S
O1076 C1071 1.247 . S
O1077 Cd1066 2.439 . S
O1077 C1071 1.208 . S
O1078 Cd1079 2.223 . S
O1078 C1086 1.315 . S
Cd1079 O1078 2.223 . S
Cd1079 O1082 2.297 . S
Cd1079 O1083 2.439 . S
Cd1079 O1089 2.240 . S
Cd1080 O1081 2.240 . S
Cd1080 O1088 2.223 . S
Cd1080 O1090 2.297 . S
Cd1080 O1091 2.439 . S
O1081 Cd1080 2.240 . S
O1081 C1086 1.279 . S
O1082 Cd1079 2.297 . S
O1082 C1084 1.247 . S
O1083 Cd1079 2.439 . S
O1083 C1084 1.208 . S
C1084 O1082 1.247 . S
C1084 O1083 1.208 . S
C1085 O1090 1.247 . S
C1085 O1091 1.208 . S
C1086 O1078 1.315 . S
C1086 O1081 1.279 . S
C1087 O1088 1.315 . S
C1087 O1089 1.279 . S
O1088 Cd1080 2.223 . S
O1088 C1087 1.315 . S
O1089 Cd1079 2.240 . S
O1089 C1087 1.279 . S
O1090 Cd1080 2.297 . S
O1090 C1085 1.247 . S
O1091 Cd1080 2.439 . S
O1091 C1085 1.208 . S
O1092 Cd1093 2.223 . S
O1092 C1100 1.315 . S
Cd1093 O1092 2.223 . S
Cd1093 O1096 2.297 . S
Cd1093 O1097 2.439 . S
Cd1093 O1103 2.240 . S
Cd1094 O1095 2.240 . S
Cd1094 O1102 2.223 . S
Cd1094 O1104 2.297 . S
Cd1094 O1105 2.439 . S
O1095 Cd1094 2.240 . S
O1095 C1100 1.279 . S
O1096 Cd1093 2.297 . S
O1096 C1098 1.247 . S
O1097 Cd1093 2.439 . S
O1097 C1098 1.208 . S
C1098 O1096 1.247 . S
C1098 O1097 1.208 . S
C1099 O1104 1.247 . S
C1099 O1105 1.208 . S
C1100 O1092 1.315 . S
C1100 O1095 1.279 . S
C1101 O1102 1.315 . S
C1101 O1103 1.279 . S
O1102 Cd1094 2.223 . S
O1102 C1101 1.315 . S
O1103 Cd1093 2.240 . S
O1103 C1101 1.279 . S
O1104 Cd1094 2.297 . S
O1104 C1099 1.247 . S
O1105 Cd1094 2.439 . S
O1105 C1099 1.208 . S
O1106 Cd1107 2.223 . S
O1106 C1114 1.315 . S
Cd1107 O1106 2.223 . S
Cd1107 O1110 2.297 . S
Cd1107 O1111 2.439 . S
Cd1107 O1117 2.240 . S
Cd1108 O1109 2.240 . S
Cd1108 O1116 2.223 . S
Cd1108 O1118 2.297 . S
Cd1108 O1119 2.439 . S
O1109 Cd1108 2.240 . S
O1109 C1114 1.279 . S
O1110 Cd1107 2.297 . S
O1110 C1112 1.247 . S
O1111 Cd1107 2.439 . S
O1111 C1112 1.208 . S
C1112 O1110 1.247 . S
C1112 O1111 1.208 . S
C1113 O1118 1.247 . S
C1113 O1119 1.208 . S
C1114 O1106 1.315 . S
C1114 O1109 1.279 . S
C1115 O1116 1.315 . S
C1115 O1117 1.279 . S
O1116 Cd1108 2.223 . S
O1116 C1115 1.315 . S
O1117 Cd1107 2.240 . S
O1117 C1115 1.279 . S
O1118 Cd1108 2.297 . S
O1118 C1113 1.247 . S
O1119 Cd1108 2.439 . S
O1119 C1113 1.208 . S
O1120 Cd1121 2.223 . S
O1120 C1128 1.315 . S
Cd1121 O1120 2.223 . S
Cd1121 O1124 2.297 . S
Cd1121 O1125 2.439 . S
Cd1121 O1131 2.240 . S
Cd1122 O1123 2.240 . S
Cd1122 O1130 2.223 . S
Cd1122 O1132 2.297 . S
Cd1122 O1133 2.439 . S
O1123 Cd1122 2.240 . S
O1123 C1128 1.279 . S
O1124 Cd1121 2.297 . S
O1124 C1126 1.247 . S
O1125 Cd1121 2.439 . S
O1125 C1126 1.208 . S
C1126 O1124 1.247 . S
C1126 O1125 1.208 . S
C1127 O1132 1.247 . S
C1127 O1133 1.208 . S
C1128 O1120 1.315 . S
C1128 O1123 1.279 . S
C1129 O1130 1.315 . S
C1129 O1131 1.279 . S
O1130 Cd1122 2.223 . S
O1130 C1129 1.315 . S
O1131 Cd1121 2.240 . S
O1131 C1129 1.279 . S
O1132 Cd1122 2.297 . S
O1132 C1127 1.247 . S
O1133 Cd1122 2.439 . S
O1133 C1127 1.208 . S
O1134 Cd1135 2.223 . S
O1134 C1142 1.315 . S
Cd1135 O1134 2.223 . S
Cd1135 O1138 2.297 . S
Cd1135 O1139 2.439 . S
Cd1135 O1145 2.240 . S
Cd1136 O1137 2.240 . S
Cd1136 O1144 2.223 . S
Cd1136 O1146 2.297 . S
Cd1136 O1147 2.439 . S
O1137 Cd1136 2.240 . S
O1137 C1142 1.279 . S
O1138 Cd1135 2.297 . S
O1138 C1140 1.247 . S
O1139 Cd1135 2.439 . S
O1139 C1140 1.208 . S
C1140 O1138 1.247 . S
C1140 O1139 1.208 . S
C1141 O1146 1.247 . S
C1141 O1147 1.208 . S
C1142 O1134 1.315 . S
C1142 O1137 1.279 . S
C1143 O1144 1.315 . S
C1143 O1145 1.279 . S
O1144 Cd1136 2.223 . S
O1144 C1143 1.315 . S
O1145 Cd1135 2.240 . S
O1145 C1143 1.279 . S
O1146 Cd1136 2.297 . S
O1146 C1141 1.247 . S
O1147 Cd1136 2.439 . S
O1147 C1141 1.208 . S
O1148 Cd1149 2.223 . S
O1148 C1156 1.315 . S
Cd1149 O1148 2.223 . S
Cd1149 O1152 2.297 . S
Cd1149 O1153 2.439 . S
Cd1149 O1159 2.240 . S
Cd1150 O1151 2.240 . S
Cd1150 O1158 2.223 . S
Cd1150 O1160 2.297 . S
Cd1150 O1161 2.439 . S
O1151 Cd1150 2.240 . S
O1151 C1156 1.279 . S
O1152 Cd1149 2.297 . S
O1152 C1154 1.247 . S
O1153 Cd1149 2.439 . S
O1153 C1154 1.208 . S
C1154 O1152 1.247 . S
C1154 O1153 1.208 . S
C1155 O1160 1.247 . S
C1155 O1161 1.208 . S
C1156 O1148 1.315 . S
C1156 O1151 1.279 . S
C1157 O1158 1.315 . S
C1157 O1159 1.279 . S
O1158 Cd1150 2.223 . S
O1158 C1157 1.315 . S
O1159 Cd1149 2.240 . S
O1159 C1157 1.279 . S
O1160 Cd1150 2.297 . S
O1160 C1155 1.247 . S
O1161 Cd1150 2.439 . S
O1161 C1155 1.208 . S
O1162 Cd1163 2.223 . S
O1162 C1170 1.315 . S
Cd1163 O1162 2.223 . S
Cd1163 O1166 2.297 . S
Cd1163 O1167 2.439 . S
Cd1163 O1173 2.240 . S
Cd1164 O1165 2.240 . S
Cd1164 O1172 2.223 . S
Cd1164 O1174 2.297 . S
Cd1164 O1175 2.439 . S
O1165 Cd1164 2.240 . S
O1165 C1170 1.279 . S
O1166 Cd1163 2.297 . S
O1166 C1168 1.247 . S
O1167 Cd1163 2.439 . S
O1167 C1168 1.208 . S
C1168 O1166 1.247 . S
C1168 O1167 1.208 . S
C1169 O1174 1.247 . S
C1169 O1175 1.208 . S
C1170 O1162 1.315 . S
C1170 O1165 1.279 . S
C1171 O1172 1.315 . S
C1171 O1173 1.279 . S
O1172 Cd1164 2.223 . S
O1172 C1171 1.315 . S
O1173 Cd1163 2.240 . S
O1173 C1171 1.279 . S
O1174 Cd1164 2.297 . S
O1174 C1169 1.247 . S
O1175 Cd1164 2.439 . S
O1175 C1169 1.208 . S
O1176 Cd1177 2.223 . S
O1176 C1184 1.315 . S
Cd1177 O1176 2.223 . S
Cd1177 O1180 2.297 . S
Cd1177 O1181 2.439 . S
Cd1177 O1187 2.240 . S
Cd1178 O1179 2.240 . S
Cd1178 O1186 2.223 . S
Cd1178 O1188 2.297 . S
Cd1178 O1189 2.439 . S
O1179 Cd1178 2.240 . S
O1179 C1184 1.279 . S
O1180 Cd1177 2.297 . S
O1180 C1182 1.247 . S
O1181 Cd1177 2.439 . S
O1181 C1182 1.208 . S
C1182 O1180 1.247 . S
C1182 O1181 1.208 . S
C1183 O1188 1.247 . S
C1183 O1189 1.208 . S
C1184 O1176 1.315 . S
C1184 O1179 1.279 . S
C1185 O1186 1.315 . S
C1185 O1187 1.279 . S
O1186 Cd1178 2.223 . S
O1186 C1185 1.315 . S
O1187 Cd1177 2.240 . S
O1187 C1185 1.279 . S
O1188 Cd1178 2.297 . S
O1188 C1183 1.247 . S
O1189 Cd1178 2.439 . S
O1189 C1183 1.208 . S
O1190 Cd1191 2.223 . S
O1190 C1198 1.315 . S
Cd1191 O1190 2.223 . S
Cd1191 O1194 2.297 . S
Cd1191 O1195 2.439 . S
Cd1191 O1201 2.240 . S
Cd1192 O1193 2.240 . S
Cd1192 O1200 2.223 . S
Cd1192 O1202 2.297 . S
Cd1192 O1203 2.439 . S
O1193 Cd1192 2.240 . S
O1193 C1198 1.279 . S
O1194 Cd1191 2.297 . S
O1194 C1196 1.247 . S
O1195 Cd1191 2.439 . S
O1195 C1196 1.208 . S
C1196 O1194 1.247 . S
C1196 O1195 1.208 . S
C1197 O1202 1.247 . S
C1197 O1203 1.208 . S
C1198 O1190 1.315 . S
C1198 O1193 1.279 . S
C1199 O1200 1.315 . S
C1199 O1201 1.279 . S
O1200 Cd1192 2.223 . S
O1200 C1199 1.315 . S
O1201 Cd1191 2.240 . S
O1201 C1199 1.279 . S
O1202 Cd1192 2.297 . S
O1202 C1197 1.247 . S
O1203 Cd1192 2.439 . S
O1203 C1197 1.208 . S
O1204 Cd1205 2.223 . S
O1204 C1212 1.315 . S
Cd1205 O1204 2.223 . S
Cd1205 O1208 2.297 . S
Cd1205 O1209 2.439 . S
Cd1205 O1215 2.240 . S
Cd1206 O1207 2.240 . S
Cd1206 O1214 2.223 . S
Cd1206 O1216 2.297 . S
Cd1206 O1217 2.439 . S
O1207 Cd1206 2.240 . S
O1207 C1212 1.279 . S
O1208 Cd1205 2.297 . S
O1208 C1210 1.247 . S
O1209 Cd1205 2.439 . S
O1209 C1210 1.208 . S
C1210 O1208 1.247 . S
C1210 O1209 1.208 . S
C1211 O1216 1.247 . S
C1211 O1217 1.208 . S
C1212 O1204 1.315 . S
C1212 O1207 1.279 . S
C1213 O1214 1.315 . S
C1213 O1215 1.279 . S
O1214 Cd1206 2.223 . S
O1214 C1213 1.315 . S
O1215 Cd1205 2.240 . S
O1215 C1213 1.279 . S
O1216 Cd1206 2.297 . S
O1216 C1211 1.247 . S
O1217 Cd1206 2.439 . S
O1217 C1211 1.208 . S
O1218 Cd1219 2.223 . S
O1218 C1226 1.315 . S
Cd1219 O1218 2.223 . S
Cd1219 O1222 2.297 . S
Cd1219 O1223 2.439 . S
Cd1219 O1229 2.240 . S
Cd1220 O1221 2.240 . S
Cd1220 O1228 2.223 . S
Cd1220 O1230 2.297 . S
Cd1220 O1231 2.439 . S
O1221 Cd1220 2.240 . S
O1221 C1226 1.279 . S
O1222 Cd1219 2.297 . S
O1222 C1224 1.247 . S
O1223 Cd1219 2.439 . S
O1223 C1224 1.208 . S
C1224 O1222 1.247 . S
C1224 O1223 1.208 . S
C1225 O1230 1.247 . S
C1225 O1231 1.208 . S
C1226 O1218 1.315 . S
C1226 O1221 1.279 . S
C1227 O1228 1.315 . S
C1227 O1229 1.279 . S
O1228 Cd1220 2.223 . S
O1228 C1227 1.315 . S
O1229 Cd1219 2.240 . S
O1229 C1227 1.279 . S
O1230 Cd1220 2.297 . S
O1230 C1225 1.247 . S
O1231 Cd1220 2.439 . S
O1231 C1225 1.208 . S
O1232 Cd1233 2.223 . S
O1232 C1240 1.315 . S
Cd1233 O1232 2.223 . S
Cd1233 O1236 2.297 . S
Cd1233 O1237 2.439 . S
Cd1233 O1243 2.240 . S
Cd1234 O1235 2.240 . S
Cd1234 O1242 2.223 . S
Cd1234 O1244 2.297 . S
Cd1234 O1245 2.439 . S
O1235 Cd1234 2.240 . S
O1235 C1240 1.279 . S
O1236 Cd1233 2.297 . S
O1236 C1238 1.247 . S
O1237 Cd1233 2.439 . S
O1237 C1238 1.208 . S
C1238 O1236 1.247 . S
C1238 O1237 1.208 . S
C1239 O1244 1.247 . S
C1239 O1245 1.208 . S
C1240 O1232 1.315 . S
C1240 O1235 1.279 . S
C1241 O1242 1.315 . S
C1241 O1243 1.279 . S
O1242 Cd1234 2.223 . S
O1242 C1241 1.315 . S
O1243 Cd1233 2.240 . S
O1243 C1241 1.279 . S
O1244 Cd1234 2.297 . S
O1244 C1239 1.247 . S
O1245 Cd1234 2.439 . S
O1245 C1239 1.208 . S
O1246 Cd1247 2.223 . S
O1246 C1254 1.315 . S
Cd1247 O1246 2.223 . S
Cd1247 O1250 2.297 . S
Cd1247 O1251 2.439 . S
Cd1247 O1257 2.240 . S
Cd1248 O1249 2.240 . S
Cd1248 O1256 2.223 . S
Cd1248 O1258 2.297 . S
Cd1248 O1259 2.439 . S
O1249 Cd1248 2.240 . S
O1249 C1254 1.279 . S
O1250 Cd1247 2.297 . S
O1250 C1252 1.247 . S
O1251 Cd1247 2.439 . S
O1251 C1252 1.208 . S
C1252 O1250 1.247 . S
C1252 O1251 1.208 . S
C1253 O1258 1.247 . S
C1253 O1259 1.208 . S
C1254 O1246 1.315 . S
C1254 O1249 1.279 . S
C1255 O1256 1.315 . S
C1255 O1257 1.279 . S
O1256 Cd1248 2.223 . S
O1256 C1255 1.315 . S
O1257 Cd1247 2.240 . S
O1257 C1255 1.279 . S
O1258 Cd1248 2.297 . S
O1258 C1253 1.247 . S
O1259 Cd1248 2.439 . S
O1259 C1253 1.208 . S
O1260 Cd1261 2.223 . S
O1260 C1268 1.315 . S
Cd1261 O1260 2.223 . S
Cd1261 O1264 2.297 . S
Cd1261 O1265 2.439 . S
Cd1261 O1271 2.240 . S
Cd1262 O1263 2.240 . S
Cd1262 O1270 2.223 . S
Cd1262 O1272 2.297 . S
Cd1262 O1273 2.439 . S
O1263 Cd1262 2.240 . S
O1263 C1268 1.279 . S
O1264 Cd1261 2.297 . S
O1264 C1266 1.247 . S
O1265 Cd1261 2.439 . S
O1265 C1266 1.208 . S
C1266 O1264 1.247 . S
C1266 O1265 1.208 . S
C1267 O1272 1.247 . S
C1267 O1273 1.208 . S
C1268 O1260 1.315 . S
C1268 O1263 1.279 . S
C1269 O1270 1.315 . S
C1269 O1271 1.279 . S
O1270 Cd1262 2.223 . S
O1270 C1269 1.315 . S
O1271 Cd1261 2.240 . S
O1271 C1269 1.279 . S
O1272 Cd1262 2.297 . S
O1272 C1267 1.247 . S
O1273 Cd1262 2.439 . S
O1273 C1267 1.208 . S
O1274 Cd1275 2.223 . S
O1274 C1282 1.315 . S
Cd1275 O1274 2.223 . S
Cd1275 O1278 2.297 . S
Cd1275 O1279 2.439 . S
Cd1275 O1285 2.240 . S
Cd1276 O1277 2.240 . S
Cd1276 O1284 2.223 . S
Cd1276 O1286 2.297 . S
Cd1276 O1287 2.439 . S
O1277 Cd1276 2.240 . S
O1277 C1282 1.279 . S
O1278 Cd1275 2.297 . S
O1278 C1280 1.247 . S
O1279 Cd1275 2.439 . S
O1279 C1280 1.208 . S
C1280 O1278 1.247 . S
C1280 O1279 1.208 . S
C1281 O1286 1.247 . S
C1281 O1287 1.208 . S
C1282 O1274 1.315 . S
C1282 O1277 1.279 . S
C1283 O1284 1.315 . S
C1283 O1285 1.279 . S
O1284 Cd1276 2.223 . S
O1284 C1283 1.315 . S
O1285 Cd1275 2.240 . S
O1285 C1283 1.279 . S
O1286 Cd1276 2.297 . S
O1286 C1281 1.247 . S
O1287 Cd1276 2.439 . S
O1287 C1281 1.208 . S
O1288 Cd1289 2.223 . S
O1288 C1296 1.315 . S
Cd1289 O1288 2.223 . S
Cd1289 O1292 2.297 . S
Cd1289 O1293 2.439 . S
Cd1289 O1299 2.240 . S
Cd1290 O1291 2.240 . S
Cd1290 O1298 2.223 . S
Cd1290 O1300 2.297 . S
Cd1290 O1301 2.439 . S
O1291 Cd1290 2.240 . S
O1291 C1296 1.279 . S
O1292 Cd1289 2.297 . S
O1292 C1294 1.247 . S
O1293 Cd1289 2.439 . S
O1293 C1294 1.208 . S
C1294 O1292 1.247 . S
C1294 O1293 1.208 . S
C1295 O1300 1.247 . S
C1295 O1301 1.208 . S
C1296 O1288 1.315 . S
C1296 O1291 1.279 . S
C1297 O1298 1.315 . S
C1297 O1299 1.279 . S
O1298 Cd1290 2.223 . S
O1298 C1297 1.315 . S
O1299 Cd1289 2.240 . S
O1299 C1297 1.279 . S
O1300 Cd1290 2.297 . S
O1300 C1295 1.247 . S
O1301 Cd1290 2.439 . S
O1301 C1295 1.208 . S
O1302 Cd1303 2.223 . S
O1302 C1310 1.315 . S
Cd1303 O1302 2.223 . S
Cd1303 O1306 2.297 . S
Cd1303 O1307 2.439 . S
Cd1303 O1313 2.240 . S
Cd1304 O1305 2.240 . S
Cd1304 O1312 2.223 . S
Cd1304 O1314 2.297 . S
Cd1304 O1315 2.439 . S
O1305 Cd1304 2.240 . S
O1305 C1310 1.279 . S
O1306 Cd1303 2.297 . S
O1306 C1308 1.247 . S
O1307 Cd1303 2.439 . S
O1307 C1308 1.208 . S
C1308 O1306 1.247 . S
C1308 O1307 1.208 . S
C1309 O1314 1.247 . S
C1309 O1315 1.208 . S
C1310 O1302 1.315 . S
C1310 O1305 1.279 . S
C1311 O1312 1.315 . S
C1311 O1313 1.279 . S
O1312 Cd1304 2.223 . S
O1312 C1311 1.315 . S
O1313 Cd1303 2.240 . S
O1313 C1311 1.279 . S
O1314 Cd1304 2.297 . S
O1314 C1309 1.247 . S
O1315 Cd1304 2.439 . S
O1315 C1309 1.208 . S
O1316 Cd1317 2.223 . S
O1316 C1324 1.315 . S
Cd1317 O1316 2.223 . S
Cd1317 O1320 2.297 . S
Cd1317 O1321 2.439 . S
Cd1317 O1327 2.240 . S
Cd1318 O1319 2.240 . S
Cd1318 O1326 2.223 . S
Cd1318 O1328 2.297 . S
Cd1318 O1329 2.439 . S
O1319 Cd1318 2.240 . S
O1319 C1324 1.279 . S
O1320 Cd1317 2.297 . S
O1320 C1322 1.247 . S
O1321 Cd1317 2.439 . S
O1321 C1322 1.208 . S
C1322 O1320 1.247 . S
C1322 O1321 1.208 . S
C1323 O1328 1.247 . S
C1323 O1329 1.208 . S
C1324 O1316 1.315 . S
C1324 O1319 1.279 . S
C1325 O1326 1.315 . S
C1325 O1327 1.279 . S
O1326 Cd1318 2.223 . S
O1326 C1325 1.315 . S
O1327 Cd1317 2.240 . S
O1327 C1325 1.279 . S
O1328 Cd1318 2.297 . S
O1328 C1323 1.247 . S
O1329 Cd1318 2.439 . S
O1329 C1323 1.208 . S
O1330 Cd1331 2.223 . S
O1330 C1338 1.315 . S
Cd1331 O1330 2.223 . S
Cd1331 O1334 2.297 . S
Cd1331 O1335 2.439 . S
Cd1331 O1341 2.240 . S
Cd1332 O1333 2.240 . S
Cd1332 O1340 2.223 . S
Cd1332 O1342 2.297 . S
Cd1332 O1343 2.439 . S
O1333 Cd1332 2.240 . S
O1333 C1338 1.279 . S
O1334 Cd1331 2.297 . S
O1334 C1336 1.247 . S
O1335 Cd1331 2.439 . S
O1335 C1336 1.208 . S
C1336 O1334 1.247 . S
C1336 O1335 1.208 . S
C1337 O1342 1.247 . S
C1337 O1343 1.208 . S
C1338 O1330 1.315 . S
C1338 O1333 1.279 . S
C1339 O1340 1.315 . S
C1339 O1341 1.279 . S
O1340 Cd1332 2.223 . S
O1340 C1339 1.315 . S
O1341 Cd1331 2.240 . S
O1341 C1339 1.279 . S
O1342 Cd1332 2.297 . S
O1342 C1337 1.247 . S
O1343 Cd1332 2.439 . S
O1343 C1337 1.208 . S
C1344 C1345 1.387 . S
C1344 H1348 0.950 . S
C1344 C1353 1.390 . S
C1345 C1344 1.387 . S
C1345 C1347 1.387 . S
H1346 C1353 0.950 . S
C1347 C1345 1.387 . S
C1347 C1349 1.390 . S
C1347 H1351 0.950 . S
H1348 C1344 0.950 . S
C1349 C1347 1.390 . S
C1349 C1350 1.387 . S
C1349 H1352 0.950 . S
C1350 C1349 1.387 . S
C1350 C1353 1.387 . S
H1351 C1347 0.950 . S
H1352 C1349 0.950 . S
C1353 C1344 1.390 . S
C1353 H1346 0.950 . S
C1353 C1350 1.387 . S
C1354 C1355 1.387 . S
C1354 H1358 0.950 . S
C1354 C1363 1.390 . S
C1355 C1354 1.387 . S
C1355 C1357 1.387 . S
H1356 C1363 0.950 . S
C1357 C1355 1.387 . S
C1357 C1359 1.390 . S
C1357 H1361 0.950 . S
H1358 C1354 0.950 . S
C1359 C1357 1.390 . S
C1359 C1360 1.387 . S
C1359 H1362 0.950 . S
C1360 C1359 1.387 . S
C1360 C1363 1.387 . S
H1361 C1357 0.950 . S
H1362 C1359 0.950 . S
C1363 C1354 1.390 . S
C1363 H1356 0.950 . S
C1363 C1360 1.387 . S
C1364 C1365 1.387 . S
C1364 H1368 0.950 . S
C1364 C1373 1.390 . S
C1365 C1364 1.387 . S
C1365 C1367 1.387 . S
H1366 C1373 0.950 . S
C1367 C1365 1.387 . S
C1367 C1369 1.390 . S
C1367 H1371 0.950 . S
H1368 C1364 0.950 . S
C1369 C1367 1.390 . S
C1369 C1370 1.387 . S
C1369 H1372 0.950 . S
C1370 C1369 1.387 . S
C1370 C1373 1.387 . S
H1371 C1367 0.950 . S
H1372 C1369 0.950 . S
C1373 C1364 1.390 . S
C1373 H1366 0.950 . S
C1373 C1370 1.387 . S
C1374 C1375 1.387 . S
C1374 H1378 0.950 . S
C1374 C1383 1.390 . S
C1375 C1374 1.387 . S
C1375 C1377 1.387 . S
H1376 C1383 0.950 . S
C1377 C1375 1.387 . S
C1377 C1379 1.390 . S
C1377 H1381 0.950 . S
H1378 C1374 0.950 . S
C1379 C1377 1.390 . S
C1379 C1380 1.387 . S
C1379 H1382 0.950 . S
C1380 C1379 1.387 . S
C1380 C1383 1.387 . S
H1381 C1377 0.950 . S
H1382 C1379 0.950 . S
C1383 C1374 1.390 . S
C1383 H1376 0.950 . S
C1383 C1380 1.387 . S
C1384 C1385 1.387 . S
C1384 H1388 0.950 . S
C1384 C1393 1.390 . S
C1385 C1384 1.387 . S
C1385 C1387 1.387 . S
H1386 C1393 0.950 . S
C1387 C1385 1.387 . S
C1387 C1389 1.390 . S
C1387 H1391 0.950 . S
H1388 C1384 0.950 . S
C1389 C1387 1.390 . S
C1389 C1390 1.387 . S
C1389 H1392 0.950 . S
C1390 C1389 1.387 . S
C1390 C1393 1.387 . S
H1391 C1387 0.950 . S
H1392 C1389 0.950 . S
C1393 C1384 1.390 . S
C1393 H1386 0.950 . S
C1393 C1390 1.387 . S
C1394 C1395 1.387 . S
C1394 H1398 0.950 . S
C1394 C1403 1.390 . S
C1395 C1394 1.387 . S
C1395 C1397 1.387 . S
H1396 C1403 0.950 . S
C1397 C1395 1.387 . S
C1397 C1399 1.390 . S
C1397 H1401 0.950 . S
H1398 C1394 0.950 . S
C1399 C1397 1.390 . S
C1399 C1400 1.387 . S
C1399 H1402 0.950 . S
C1400 C1399 1.387 . S
C1400 C1403 1.387 . S
H1401 C1397 0.950 . S
H1402 C1399 0.950 . S
C1403 C1394 1.390 . S
C1403 H1396 0.950 . S
C1403 C1400 1.387 . S
C1404 C1405 1.387 . S
C1404 H1408 0.950 . S
C1404 C1413 1.390 . S
C1405 C1404 1.387 . S
C1405 C1407 1.387 . S
H1406 C1413 0.950 . S
C1407 C1405 1.387 . S
C1407 C1409 1.390 . S
C1407 H1411 0.950 . S
H1408 C1404 0.950 . S
C1409 C1407 1.390 . S
C1409 C1410 1.387 . S
C1409 H1412 0.950 . S
C1410 C1409 1.387 . S
C1410 C1413 1.387 . S
H1411 C1407 0.950 . S
H1412 C1409 0.950 . S
C1413 C1404 1.390 . S
C1413 H1406 0.950 . S
C1413 C1410 1.387 . S
C1414 C1415 1.387 . S
C1414 H1418 0.950 . S
C1414 C1423 1.390 . S
C1415 C1414 1.387 . S
C1415 C1417 1.387 . S
H1416 C1423 0.950 . S
C1417 C1415 1.387 . S
C1417 C1419 1.390 . S
C1417 H1421 0.950 . S
H1418 C1414 0.950 . S
C1419 C1417 1.390 . S
C1419 C1420 1.387 . S
C1419 H1422 0.950 . S
C1420 C1419 1.387 . S
C1420 C1423 1.387 . S
H1421 C1417 0.950 . S
H1422 C1419 0.950 . S
C1423 C1414 1.390 . S
C1423 H1416 0.950 . S
C1423 C1420 1.387 . S
C1424 C1425 1.387 . S
C1424 H1428 0.950 . S
C1424 C1433 1.390 . S
C1425 C1424 1.387 . S
C1425 C1427 1.387 . S
H1426 C1433 0.950 . S
C1427 C1425 1.387 . S
C1427 C1429 1.390 . S
C1427 H1431 0.950 . S
H1428 C1424 0.950 . S
C1429 C1427 1.390 . S
C1429 C1430 1.387 . S
C1429 H1432 0.950 . S
C1430 C1429 1.387 . S
C1430 C1433 1.387 . S
H1431 C1427 0.950 . S
H1432 C1429 0.950 . S
C1433 C1424 1.390 . S
C1433 H1426 0.950 . S
C1433 C1430 1.387 . S
C1434 C1435 1.387 . S
C1434 H1438 0.950 . S
C1434 C1443 1.390 . S
C1435 C1434 1.387 . S
C1435 C1437 1.387 . S
H1436 C1443 0.950 . S
C1437 C1435 1.387 . S
C1437 C1439 1.390 . S
C1437 H1441 0.950 . S
H1438 C1434 0.950 . S
C1439 C1437 1.390 . S
C1439 C1440 1.387 . S
C1439 H1442 0.950 . S
C1440 C1439 1.387 . S
C1440 C1443 1.387 . S
H1441 C1437 0.950 . S
H1442 C1439 0.950 . S
C1443 C1434 1.390 . S
C1443 H1436 0.950 . S
C1443 C1440 1.387 . S
C1444 C1445 1.387 . S
C1444 H1448 0.950 . S
C1444 C1453 1.390 . S
C1445 C1444 1.387 . S
C1445 C1447 1.387 . S
H1446 C1453 0.950 . S
C1447 C1445 1.387 . S
C1447 C1449 1.390 . S
C1447 H1451 0.950 . S
H1448 C1444 0.950 . S
C1449 C1447 1.390 . S
C1449 C1450 1.387 . S
C1449 H1452 0.950 . S
C1450 C1449 1.387 . S
C1450 C1453 1.387 . S
H1451 C1447 0.950 . S
H1452 C1449 0.950 . S
C1453 C1444 1.390 . S
C1453 H1446 0.950 . S
C1453 C1450 1.387 . S
C1454 C1455 1.387 . S
C1454 H1458 0.950 . S
C1454 C1463 1.390 . S
C1455 C1454 1.387 . S
C1455 C1457 1.387 . S
H1456 C1463 0.950 . S
C1457 C1455 1.387 . S
C1457 C1459 1.390 . S
C1457 H1461 0.950 . S
H1458 C1454 0.950 . S
C1459 C1457 1.390 . S
C1459 C1460 1.387 . S
C1459 H1462 0.950 . S
C1460 C1459 1.387 . S
C1460 C1463 1.387 . S
H1461 C1457 0.950 . S
H1462 C1459 0.950 . S
C1463 C1454 1.390 . S
C1463 H1456 0.950 . S
C1463 C1460 1.387 . S
C1464 C1465 1.387 . S
C1464 H1468 0.950 . S
C1464 C1473 1.390 . S
C1465 C1464 1.387 . S
C1465 C1467 1.387 . S
H1466 C1473 0.950 . S
C1467 C1465 1.387 . S
C1467 C1469 1.390 . S
C1467 H1471 0.950 . S
H1468 C1464 0.950 . S
C1469 C1467 1.390 . S
C1469 C1470 1.387 . S
C1469 H1472 0.950 . S
C1470 C1469 1.387 . S
C1470 C1473 1.387 . S
H1471 C1467 0.950 . S
H1472 C1469 0.950 . S
C1473 C1464 1.390 . S
C1473 H1466 0.950 . S
C1473 C1470 1.387 . S
C1474 C1475 1.387 . S
C1474 H1478 0.950 . S
C1474 C1483 1.390 . S
C1475 C1474 1.387 . S
C1475 C1477 1.387 . S
H1476 C1483 0.950 . S
C1477 C1475 1.387 . S
C1477 C1479 1.390 . S
C1477 H1481 0.950 . S
H1478 C1474 0.950 . S
C1479 C1477 1.390 . S
C1479 C1480 1.387 . S
C1479 H1482 0.950 . S
C1480 C1479 1.387 . S
C1480 C1483 1.387 . S
H1481 C1477 0.950 . S
H1482 C1479 0.950 . S
C1483 C1474 1.390 . S
C1483 H1476 0.950 . S
C1483 C1480 1.387 . S
C1484 C1485 1.387 . S
C1484 H1488 0.950 . S
C1484 C1493 1.390 . S
C1485 C1484 1.387 . S
C1485 C1487 1.387 . S
H1486 C1493 0.950 . S
C1487 C1485 1.387 . S
C1487 C1489 1.390 . S
C1487 H1491 0.950 . S
H1488 C1484 0.950 . S
C1489 C1487 1.390 . S
C1489 C1490 1.387 . S
C1489 H1492 0.950 . S
C1490 C1489 1.387 . S
C1490 C1493 1.387 . S
H1491 C1487 0.950 . S
H1492 C1489 0.950 . S
C1493 C1484 1.390 . S
C1493 H1486 0.950 . S
C1493 C1490 1.387 . S
C1494 C1495 1.387 . S
C1494 H1498 0.950 . S
C1494 C1503 1.390 . S
C1495 C1494 1.387 . S
C1495 C1497 1.387 . S
H1496 C1503 0.950 . S
C1497 C1495 1.387 . S
C1497 C1499 1.390 . S
C1497 H1501 0.950 . S
H1498 C1494 0.950 . S
C1499 C1497 1.390 . S
C1499 C1500 1.387 . S
C1499 H1502 0.950 . S
C1500 C1499 1.387 . S
C1500 C1503 1.387 . S
H1501 C1497 0.950 . S
H1502 C1499 0.950 . S
C1503 C1494 1.390 . S
C1503 H1496 0.950 . S
C1503 C1500 1.387 . S
C1504 C1505 1.387 . S
C1504 H1508 0.950 . S
C1504 C1513 1.390 . S
C1505 C1504 1.387 . S
C1505 C1507 1.387 . S
H1506 C1513 0.950 . S
C1507 C1505 1.387 . S
C1507 C1509 1.390 . S
C1507 H1511 0.950 . S
H1508 C1504 0.950 . S
C1509 C1507 1.390 . S
C1509 C1510 1.387 . S
C1509 H1512 0.950 . S
C1510 C1509 1.387 . S
C1510 C1513 1.387 . S
H1511 C1507 0.950 . S
H1512 C1509 0.950 . S
C1513 C1504 1.390 . S
C1513 H1506 0.950 . S
C1513 C1510 1.387 . S
C1514 C1515 1.387 . S
C1514 H1518 0.950 . S
C1514 C1523 1.390 . S
C1515 C1514 1.387 . S
C1515 C1517 1.387 . S
H1516 C1523 0.950 . S
C1517 C1515 1.387 . S
C1517 C1519 1.390 . S
C1517 H1521 0.950 . S
H1518 C1514 0.950 . S
C1519 C1517 1.390 . S
C1519 C1520 1.387 . S
C1519 H1522 0.950 . S
C1520 C1519 1.387 . S
C1520 C1523 1.387 . S
H1521 C1517 0.950 . S
H1522 C1519 0.950 . S
C1523 C1514 1.390 . S
C1523 H1516 0.950 . S
C1523 C1520 1.387 . S
C1524 C1525 1.387 . S
C1524 H1528 0.950 . S
C1524 C1533 1.390 . S
C1525 C1524 1.387 . S
C1525 C1527 1.387 . S
H1526 C1533 0.950 . S
C1527 C1525 1.387 . S
C1527 C1529 1.390 . S
C1527 H1531 0.950 . S
H1528 C1524 0.950 . S
C1529 C1527 1.390 . S
C1529 C1530 1.387 . S
C1529 H1532 0.950 . S
C1530 C1529 1.387 . S
C1530 C1533 1.387 . S
H1531 C1527 0.950 . S
H1532 C1529 0.950 . S
C1533 C1524 1.390 . S
C1533 H1526 0.950 . S
C1533 C1530 1.387 . S
C1534 C1535 1.387 . S
C1534 H1538 0.950 . S
C1534 C1543 1.390 . S
C1535 C1534 1.387 . S
C1535 C1537 1.387 . S
H1536 C1543 0.950 . S
C1537 C1535 1.387 . S
C1537 C1539 1.390 . S
C1537 H1541 0.950 . S
H1538 C1534 0.950 . S
C1539 C1537 1.390 . S
C1539 C1540 1.387 . S
C1539 H1542 0.950 . S
C1540 C1539 1.387 . S
C1540 C1543 1.387 . S
H1541 C1537 0.950 . S
H1542 C1539 0.950 . S
C1543 C1534 1.390 . S
C1543 H1536 0.950 . S
C1543 C1540 1.387 . S
C1544 C1545 1.387 . S
C1544 H1548 0.950 . S
C1544 C1553 1.390 . S
C1545 C1544 1.387 . S
C1545 C1547 1.387 . S
H1546 C1553 0.950 . S
C1547 C1545 1.387 . S
C1547 C1549 1.390 . S
C1547 H1551 0.950 . S
H1548 C1544 0.950 . S
C1549 C1547 1.390 . S
C1549 C1550 1.387 . S
C1549 H1552 0.950 . S
C1550 C1549 1.387 . S
C1550 C1553 1.387 . S
H1551 C1547 0.950 . S
H1552 C1549 0.950 . S
C1553 C1544 1.390 . S
C1553 H1546 0.950 . S
C1553 C1550 1.387 . S
C1554 C1555 1.387 . S
C1554 H1558 0.950 . S
C1554 C1563 1.390 . S
C1555 C1554 1.387 . S
C1555 C1557 1.387 . S
H1556 C1563 0.950 . S
C1557 C1555 1.387 . S
C1557 C1559 1.390 . S
C1557 H1561 0.950 . S
H1558 C1554 0.950 . S
C1559 C1557 1.390 . S
C1559 C1560 1.387 . S
C1559 H1562 0.950 . S
C1560 C1559 1.387 . S
C1560 C1563 1.387 . S
H1561 C1557 0.950 . S
H1562 C1559 0.950 . S
C1563 C1554 1.390 . S
C1563 H1556 0.950 . S
C1563 C1560 1.387 . S
C1564 C1565 1.387 . S
C1564 H1568 0.950 . S
C1564 C1573 1.390 . S
C1565 C1564 1.387 . S
C1565 C1567 1.387 . S
H1566 C1573 0.950 . S
C1567 C1565 1.387 . S
C1567 C1569 1.390 . S
C1567 H1571 0.950 . S
H1568 C1564 0.950 . S
C1569 C1567 1.390 . S
C1569 C1570 1.387 . S
C1569 H1572 0.950 . S
C1570 C1569 1.387 . S
C1570 C1573 1.387 . S
H1571 C1567 0.950 . S
H1572 C1569 0.950 . S
C1573 C1564 1.390 . S
C1573 H1566 0.950 . S
C1573 C1570 1.387 . S
C1574 C1575 1.387 . S
C1574 H1578 0.950 . S
C1574 C1583 1.390 . S
C1575 C1574 1.387 . S
C1575 C1577 1.387 . S
H1576 C1583 0.950 . S
C1577 C1575 1.387 . S
C1577 C1579 1.390 . S
C1577 H1581 0.950 . S
H1578 C1574 0.950 . S
C1579 C1577 1.390 . S
C1579 C1580 1.387 . S
C1579 H1582 0.950 . S
C1580 C1579 1.387 . S
C1580 C1583 1.387 . S
H1581 C1577 0.950 . S
H1582 C1579 0.950 . S
C1583 C1574 1.390 . S
C1583 H1576 0.950 . S
C1583 C1580 1.387 . S
C1584 C1585 1.387 . S
C1584 H1588 0.950 . S
C1584 C1593 1.390 . S
C1585 C1584 1.387 . S
C1585 C1587 1.387 . S
H1586 C1593 0.950 . S
C1587 C1585 1.387 . S
C1587 C1589 1.390 . S
C1587 H1591 0.950 . S
H1588 C1584 0.950 . S
C1589 C1587 1.390 . S
C1589 C1590 1.387 . S
C1589 H1592 0.950 . S
C1590 C1589 1.387 . S
C1590 C1593 1.387 . S
H1591 C1587 0.950 . S
H1592 C1589 0.950 . S
C1593 C1584 1.390 . S
C1593 H1586 0.950 . S
C1593 C1590 1.387 . S
C1594 C1595 1.387 . S
C1594 H1598 0.950 . S
C1594 C1603 1.390 . S
C1595 C1594 1.387 . S
C1595 C1597 1.387 . S
H1596 C1603 0.950 . S
C1597 C1595 1.387 . S
C1597 C1599 1.390 . S
C1597 H1601 0.950 . S
H1598 C1594 0.950 . S
C1599 C1597 1.390 . S
C1599 C1600 1.387 . S
C1599 H1602 0.950 . S
C1600 C1599 1.387 . S
C1600 C1603 1.387 . S
H1601 C1597 0.950 . S
H1602 C1599 0.950 . S
C1603 C1594 1.390 . S
C1603 H1596 0.950 . S
C1603 C1600 1.387 . S
C1604 C1605 1.387 . S
C1604 H1608 0.950 . S
C1604 C1613 1.390 . S
C1605 C1604 1.387 . S
C1605 C1607 1.387 . S
H1606 C1613 0.950 . S
C1607 C1605 1.387 . S
C1607 C1609 1.390 . S
C1607 H1611 0.950 . S
H1608 C1604 0.950 . S
C1609 C1607 1.390 . S
C1609 C1610 1.387 . S
C1609 H1612 0.950 . S
C1610 C1609 1.387 . S
C1610 C1613 1.387 . S
H1611 C1607 0.950 . S
H1612 C1609 0.950 . S
C1613 C1604 1.390 . S
C1613 H1606 0.950 . S
C1613 C1610 1.387 . S
C1614 C1615 1.387 . S
C1614 H1618 0.950 . S
C1614 C1623 1.390 . S
C1615 C1614 1.387 . S
C1615 C1617 1.387 . S
H1616 C1623 0.950 . S
C1617 C1615 1.387 . S
C1617 C1619 1.390 . S
C1617 H1621 0.950 . S
H1618 C1614 0.950 . S
C1619 C1617 1.390 . S
C1619 C1620 1.387 . S
C1619 H1622 0.950 . S
C1620 C1619 1.387 . S
C1620 C1623 1.387 . S
H1621 C1617 0.950 . S
H1622 C1619 0.950 . S
C1623 C1614 1.390 . S
C1623 H1616 0.950 . S
C1623 C1620 1.387 . S
C1624 C1625 1.387 . S
C1624 H1628 0.950 . S
C1624 C1633 1.390 . S
C1625 C1624 1.387 . S
C1625 C1627 1.387 . S
H1626 C1633 0.950 . S
C1627 C1625 1.387 . S
C1627 C1629 1.390 . S
C1627 H1631 0.950 . S
H1628 C1624 0.950 . S
C1629 C1627 1.390 . S
C1629 C1630 1.387 . S
C1629 H1632 0.950 . S
C1630 C1629 1.387 . S
C1630 C1633 1.387 . S
H1631 C1627 0.950 . S
H1632 C1629 0.950 . S
C1633 C1624 1.390 . S
C1633 H1626 0.950 . S
C1633 C1630 1.387 . S
C1634 C1635 1.387 . S
C1634 H1638 0.950 . S
C1634 C1643 1.390 . S
C1635 C1634 1.387 . S
C1635 C1637 1.387 . S
H1636 C1643 0.950 . S
C1637 C1635 1.387 . S
C1637 C1639 1.390 . S
C1637 H1641 0.950 . S
H1638 C1634 0.950 . S
C1639 C1637 1.390 . S
C1639 C1640 1.387 . S
C1639 H1642 0.950 . S
C1640 C1639 1.387 . S
C1640 C1643 1.387 . S
H1641 C1637 0.950 . S
H1642 C1639 0.950 . S
C1643 C1634 1.390 . S
C1643 H1636 0.950 . S
C1643 C1640 1.387 . S
C1644 C1645 1.387 . S
C1644 H1648 0.950 . S
C1644 C1653 1.390 . S
C1645 C1644 1.387 . S
C1645 C1647 1.387 . S
H1646 C1653 0.950 . S
C1647 C1645 1.387 . S
C1647 C1649 1.390 . S
C1647 H1651 0.950 . S
H1648 C1644 0.950 . S
C1649 C1647 1.390 . S
C1649 C1650 1.387 . S
C1649 H1652 0.950 . S
C1650 C1649 1.387 . S
C1650 C1653 1.387 . S
H1651 C1647 0.950 . S
H1652 C1649 0.950 . S
C1653 C1644 1.390 . S
C1653 H1646 0.950 . S
C1653 C1650 1.387 . S
C1654 C1655 1.387 . S
C1654 H1658 0.950 . S
C1654 C1663 1.390 . S
C1655 C1654 1.387 . S
C1655 C1657 1.387 . S
H1656 C1663 0.950 . S
C1657 C1655 1.387 . S
C1657 C1659 1.390 . S
C1657 H1661 0.950 . S
H1658 C1654 0.950 . S
C1659 C1657 1.390 . S
C1659 C1660 1.387 . S
C1659 H1662 0.950 . S
C1660 C1659 1.387 . S
C1660 C1663 1.387 . S
H1661 C1657 0.950 . S
H1662 C1659 0.950 . S
C1663 C1654 1.390 . S
C1663 H1656 0.950 . S
C1663 C1660 1.387 . S
C1664 C1665 1.387 . S
C1664 H1668 0.950 . S
C1664 C1673 1.390 . S
C1665 C1664 1.387 . S
C1665 C1667 1.387 . S
H1666 C1673 0.950 . S
C1667 C1665 1.387 . S
C1667 C1669 1.390 . S
C1667 H1671 0.950 . S
H1668 C1664 0.950 . S
C1669 C1667 1.390 . S
C1669 C1670 1.387 . S
C1669 H1672 0.950 . S
C1670 C1669 1.387 . S
C1670 C1673 1.387 . S
H1671 C1667 0.950 . S
H1672 C1669 0.950 . S
C1673 C1664 1.390 . S
C1673 H1666 0.950 . S
C1673 C1670 1.387 . S
C1674 C1675 1.387 . S
C1674 H1678 0.950 . S
C1674 C1683 1.390 . S
C1675 C1674 1.387 . S
C1675 C1677 1.387 . S
H1676 C1683 0.950 . S
C1677 C1675 1.387 . S
C1677 C1679 1.390 . S
C1677 H1681 0.950 . S
H1678 C1674 0.950 . S
C1679 C1677 1.390 . S
C1679 C1680 1.387 . S
C1679 H1682 0.950 . S
C1680 C1679 1.387 . S
C1680 C1683 1.387 . S
H1681 C1677 0.950 . S
H1682 C1679 0.950 . S
C1683 C1674 1.390 . S
C1683 H1676 0.950 . S
C1683 C1680 1.387 . S
C1684 C1685 1.387 . S
C1684 H1688 0.950 . S
C1684 C1693 1.390 . S
C1685 C1684 1.387 . S
C1685 C1687 1.387 . S
H1686 C1693 0.950 . S
C1687 C1685 1.387 . S
C1687 C1689 1.390 . S
C1687 H1691 0.950 . S
H1688 C1684 0.950 . S
C1689 C1687 1.390 . S
C1689 C1690 1.387 . S
C1689 H1692 0.950 . S
C1690 C1689 1.387 . S
C1690 C1693 1.387 . S
H1691 C1687 0.950 . S
H1692 C1689 0.950 . S
C1693 C1684 1.390 . S
C1693 H1686 0.950 . S
C1693 C1690 1.387 . S
C1694 C1695 1.387 . S
C1694 H1698 0.950 . S
C1694 C1703 1.390 . S
C1695 C1694 1.387 . S
C1695 C1697 1.387 . S
H1696 C1703 0.950 . S
C1697 C1695 1.387 . S
C1697 C1699 1.390 . S
C1697 H1701 0.950 . S
H1698 C1694 0.950 . S
C1699 C1697 1.390 . S
C1699 C1700 1.387 . S
C1699 H1702 0.950 . S
C1700 C1699 1.387 . S
C1700 C1703 1.387 . S
H1701 C1697 0.950 . S
H1702 C1699 0.950 . S
C1703 C1694 1.390 . S
C1703 H1696 0.950 . S
C1703 C1700 1.387 . S
C1704 C1705 1.387 . S
C1704 H1708 0.950 . S
C1704 C1713 1.390 . S
C1705 C1704 1.387 . S
C1705 C1707 1.387 . S
H1706 C1713 0.950 . S
C1707 C1705 1.387 . S
C1707 C1709 1.390 . S
C1707 H1711 0.950 . S
H1708 C1704 0.950 . S
C1709 C1707 1.390 . S
C1709 C1710 1.387 . S
C1709 H1712 0.950 . S
C1710 C1709 1.387 . S
C1710 C1713 1.387 . S
H1711 C1707 0.950 . S
H1712 C1709 0.950 . S
C1713 C1704 1.390 . S
C1713 H1706 0.950 . S
C1713 C1710 1.387 . S
C1714 C1715 1.387 . S
C1714 H1718 0.950 . S
C1714 C1723 1.390 . S
C1715 C1714 1.387 . S
C1715 C1717 1.387 . S
H1716 C1723 0.950 . S
C1717 C1715 1.387 . S
C1717 C1719 1.390 . S
C1717 H1721 0.950 . S
H1718 C1714 0.950 . S
C1719 C1717 1.390 . S
C1719 C1720 1.387 . S
C1719 H1722 0.950 . S
C1720 C1719 1.387 . S
C1720 C1723 1.387 . S
H1721 C1717 0.950 . S
H1722 C1719 0.950 . S
C1723 C1714 1.390 . S
C1723 H1716 0.950 . S
C1723 C1720 1.387 . S
C1724 C1725 1.387 . S
C1724 H1728 0.950 . S
C1724 C1733 1.390 . S
C1725 C1724 1.387 . S
C1725 C1727 1.387 . S
H1726 C1733 0.950 . S
C1727 C1725 1.387 . S
C1727 C1729 1.390 . S
C1727 H1731 0.950 . S
H1728 C1724 0.950 . S
C1729 C1727 1.390 . S
C1729 C1730 1.387 . S
C1729 H1732 0.950 . S
C1730 C1729 1.387 . S
C1730 C1733 1.387 . S
H1731 C1727 0.950 . S
H1732 C1729 0.950 . S
C1733 C1724 1.390 . S
C1733 H1726 0.950 . S
C1733 C1730 1.387 . S
C1734 C1735 1.387 . S
C1734 H1738 0.950 . S
C1734 C1743 1.390 . S
C1735 C1734 1.387 . S
C1735 C1737 1.387 . S
H1736 C1743 0.950 . S
C1737 C1735 1.387 . S
C1737 C1739 1.390 . S
C1737 H1741 0.950 . S
H1738 C1734 0.950 . S
C1739 C1737 1.390 . S
C1739 C1740 1.387 . S
C1739 H1742 0.950 . S
C1740 C1739 1.387 . S
C1740 C1743 1.387 . S
H1741 C1737 0.950 . S
H1742 C1739 0.950 . S
C1743 C1734 1.390 . S
C1743 H1736 0.950 . S
C1743 C1740 1.387 . S
C1744 C1745 1.387 . S
C1744 H1748 0.950 . S
C1744 C1753 1.390 . S
C1745 C1744 1.387 . S
C1745 C1747 1.387 . S
H1746 C1753 0.950 . S
C1747 C1745 1.387 . S
C1747 C1749 1.390 . S
C1747 H1751 0.950 . S
H1748 C1744 0.950 . S
C1749 C1747 1.390 . S
C1749 C1750 1.387 . S
C1749 H1752 0.950 . S
C1750 C1749 1.387 . S
C1750 C1753 1.387 . S
H1751 C1747 0.950 . S
H1752 C1749 0.950 . S
C1753 C1744 1.390 . S
C1753 H1746 0.950 . S
C1753 C1750 1.387 . S
C1754 C1755 1.387 . S
C1754 H1758 0.950 . S
C1754 C1763 1.390 . S
C1755 C1754 1.387 . S
C1755 C1757 1.387 . S
H1756 C1763 0.950 . S
C1757 C1755 1.387 . S
C1757 C1759 1.390 . S
C1757 H1761 0.950 . S
H1758 C1754 0.950 . S
C1759 C1757 1.390 . S
C1759 C1760 1.387 . S
C1759 H1762 0.950 . S
C1760 C1759 1.387 . S
C1760 C1763 1.387 . S
H1761 C1757 0.950 . S
H1762 C1759 0.950 . S
C1763 C1754 1.390 . S
C1763 H1756 0.950 . S
C1763 C1760 1.387 . S
C1764 C1765 1.387 . S
C1764 H1768 0.950 . S
C1764 C1773 1.390 . S
C1765 C1764 1.387 . S
C1765 C1767 1.387 . S
H1766 C1773 0.950 . S
C1767 C1765 1.387 . S
C1767 C1769 1.390 . S
C1767 H1771 0.950 . S
H1768 C1764 0.950 . S
C1769 C1767 1.390 . S
C1769 C1770 1.387 . S
C1769 H1772 0.950 . S
C1770 C1769 1.387 . S
C1770 C1773 1.387 . S
H1771 C1767 0.950 . S
H1772 C1769 0.950 . S
C1773 C1764 1.390 . S
C1773 H1766 0.950 . S
C1773 C1770 1.387 . S
C1774 C1775 1.387 . S
C1774 H1778 0.950 . S
C1774 C1783 1.390 . S
C1775 C1774 1.387 . S
C1775 C1777 1.387 . S
H1776 C1783 0.950 . S
C1777 C1775 1.387 . S
C1777 C1779 1.390 . S
C1777 H1781 0.950 . S
H1778 C1774 0.950 . S
C1779 C1777 1.390 . S
C1779 C1780 1.387 . S
C1779 H1782 0.950 . S
C1780 C1779 1.387 . S
C1780 C1783 1.387 . S
H1781 C1777 0.950 . S
H1782 C1779 0.950 . S
C1783 C1774 1.390 . S
C1783 H1776 0.950 . S
C1783 C1780 1.387 . S
C1784 C1785 1.387 . S
C1784 H1788 0.950 . S
C1784 C1793 1.390 . S
C1785 C1784 1.387 . S
C1785 C1787 1.387 . S
H1786 C1793 0.950 . S
C1787 C1785 1.387 . S
C1787 C1789 1.390 . S
C1787 H1791 0.950 . S
H1788 C1784 0.950 . S
C1789 C1787 1.390 . S
C1789 C1790 1.387 . S
C1789 H1792 0.950 . S
C1790 C1789 1.387 . S
C1790 C1793 1.387 . S
H1791 C1787 0.950 . S
H1792 C1789 0.950 . S
C1793 C1784 1.390 . S
C1793 H1786 0.950 . S
C1793 C1790 1.387 . S
C1794 C1795 1.387 . S
C1794 H1798 0.950 . S
C1794 C1803 1.390 . S
C1795 C1794 1.387 . S
C1795 C1797 1.387 . S
H1796 C1803 0.950 . S
C1797 C1795 1.387 . S
C1797 C1799 1.390 . S
C1797 H1801 0.950 . S
H1798 C1794 0.950 . S
C1799 C1797 1.390 . S
C1799 C1800 1.387 . S
C1799 H1802 0.950 . S
C1800 C1799 1.387 . S
C1800 C1803 1.387 . S
H1801 C1797 0.950 . S
H1802 C1799 0.950 . S
C1803 C1794 1.390 . S
C1803 H1796 0.950 . S
C1803 C1800 1.387 . S
C1804 C1805 1.387 . S
C1804 H1808 0.950 . S
C1804 C1813 1.390 . S
C1805 C1804 1.387 . S
C1805 C1807 1.387 . S
H1806 C1813 0.950 . S
C1807 C1805 1.387 . S
C1807 C1809 1.390 . S
C1807 H1811 0.950 . S
H1808 C1804 0.950 . S
C1809 C1807 1.390 . S
C1809 C1810 1.387 . S
C1809 H1812 0.950 . S
C1810 C1809 1.387 . S
C1810 C1813 1.387 . S
H1811 C1807 0.950 . S
H1812 C1809 0.950 . S
C1813 C1804 1.390 . S
C1813 H1806 0.950 . S
C1813 C1810 1.387 . S
C1814 C1815 1.387 . S
C1814 H1818 0.950 . S
C1814 C1823 1.390 . S
C1815 C1814 1.387 . S
C1815 C1817 1.387 . S
H1816 C1823 0.950 . S
C1817 C1815 1.387 . S
C1817 C1819 1.390 . S
C1817 H1821 0.950 . S
H1818 C1814 0.950 . S
C1819 C1817 1.390 . S
C1819 C1820 1.387 . S
C1819 H1822 0.950 . S
C1820 C1819 1.387 . S
C1820 C1823 1.387 . S
H1821 C1817 0.950 . S
H1822 C1819 0.950 . S
C1823 C1814 1.390 . S
C1823 H1816 0.950 . S
C1823 C1820 1.387 . S
C1824 C1825 1.387 . S
C1824 H1828 0.950 . S
C1824 C1833 1.390 . S
C1825 C1824 1.387 . S
C1825 C1827 1.387 . S
H1826 C1833 0.950 . S
C1827 C1825 1.387 . S
C1827 C1829 1.390 . S
C1827 H1831 0.950 . S
H1828 C1824 0.950 . S
C1829 C1827 1.390 . S
C1829 C1830 1.387 . S
C1829 H1832 0.950 . S
C1830 C1829 1.387 . S
C1830 C1833 1.387 . S
H1831 C1827 0.950 . S
H1832 C1829 0.950 . S
C1833 C1824 1.390 . S
C1833 H1826 0.950 . S
C1833 C1830 1.387 . S
C1834 C1835 1.387 . S
C1834 H1838 0.950 . S
C1834 C1843 1.390 . S
C1835 C1834 1.387 . S
C1835 C1837 1.387 . S
H1836 C1843 0.950 . S
C1837 C1835 1.387 . S
C1837 C1839 1.390 . S
C1837 H1841 0.950 . S
H1838 C1834 0.950 . S
C1839 C1837 1.390 . S
C1839 C1840 1.387 . S
C1839 H1842 0.950 . S
C1840 C1839 1.387 . S
C1840 C1843 1.387 . S
H1841 C1837 0.950 . S
H1842 C1839 0.950 . S
C1843 C1834 1.390 . S
C1843 H1836 0.950 . S
C1843 C1840 1.387 . S
C1844 C1845 1.387 . S
C1844 H1848 0.950 . S
C1844 C1853 1.390 . S
C1845 C1844 1.387 . S
C1845 C1847 1.387 . S
H1846 C1853 0.950 . S
C1847 C1845 1.387 . S
C1847 C1849 1.390 . S
C1847 H1851 0.950 . S
H1848 C1844 0.950 . S
C1849 C1847 1.390 . S
C1849 C1850 1.387 . S
C1849 H1852 0.950 . S
C1850 C1849 1.387 . S
C1850 C1853 1.387 . S
H1851 C1847 0.950 . S
H1852 C1849 0.950 . S
C1853 C1844 1.390 . S
C1853 H1846 0.950 . S
C1853 C1850 1.387 . S
C1854 C1855 1.387 . S
C1854 H1858 0.950 . S
C1854 C1863 1.390 . S
C1855 C1854 1.387 . S
C1855 C1857 1.387 . S
H1856 C1863 0.950 . S
C1857 C1855 1.387 . S
C1857 C1859 1.390 . S
C1857 H1861 0.950 . S
H1858 C1854 0.950 . S
C1859 C1857 1.390 . S
C1859 C1860 1.387 . S
C1859 H1862 0.950 . S
C1860 C1859 1.387 . S
C1860 C1863 1.387 . S
H1861 C1857 0.950 . S
H1862 C1859 0.950 . S
C1863 C1854 1.390 . S
C1863 H1856 0.950 . S
C1863 C1860 1.387 . S
C1864 C1865 1.387 . S
C1864 H1868 0.950 . S
C1864 C1873 1.390 . S
C1865 C1864 1.387 . S
C1865 C1867 1.387 . S
H1866 C1873 0.950 . S
C1867 C1865 1.387 . S
C1867 C1869 1.390 . S
C1867 H1871 0.950 . S
H1868 C1864 0.950 . S
C1869 C1867 1.390 . S
C1869 C1870 1.387 . S
C1869 H1872 0.950 . S
C1870 C1869 1.387 . S
C1870 C1873 1.387 . S
H1871 C1867 0.950 . S
H1872 C1869 0.950 . S
C1873 C1864 1.390 . S
C1873 H1866 0.950 . S
C1873 C1870 1.387 . S
C1874 C1875 1.387 . S
C1874 H1878 0.950 . S
C1874 C1883 1.390 . S
C1875 C1874 1.387 . S
C1875 C1877 1.387 . S
H1876 C1883 0.950 . S
C1877 C1875 1.387 . S
C1877 C1879 1.390 . S
C1877 H1881 0.950 . S
H1878 C1874 0.950 . S
C1879 C1877 1.390 . S
C1879 C1880 1.387 . S
C1879 H1882 0.950 . S
C1880 C1879 1.387 . S
C1880 C1883 1.387 . S
H1881 C1877 0.950 . S
H1882 C1879 0.950 . S
C1883 C1874 1.390 . S
C1883 H1876 0.950 . S
C1883 C1880 1.387 . S
C1884 C1885 1.387 . S
C1884 H1888 0.950 . S
C1884 C1893 1.390 . S
C1885 C1884 1.387 . S
C1885 C1887 1.387 . S
H1886 C1893 0.950 . S
C1887 C1885 1.387 . S
C1887 C1889 1.390 . S
C1887 H1891 0.950 . S
H1888 C1884 0.950 . S
C1889 C1887 1.390 . S
C1889 C1890 1.387 . S
C1889 H1892 0.950 . S
C1890 C1889 1.387 . S
C1890 C1893 1.387 . S
H1891 C1887 0.950 . S
H1892 C1889 0.950 . S
C1893 C1884 1.390 . S
C1893 H1886 0.950 . S
C1893 C1890 1.387 . S
C1894 C1895 1.387 . S
C1894 H1898 0.950 . S
C1894 C1903 1.390 . S
C1895 C1894 1.387 . S
C1895 C1897 1.387 . S
H1896 C1903 0.950 . S
C1897 C1895 1.387 . S
C1897 C1899 1.390 . S
C1897 H1901 0.950 . S
H1898 C1894 0.950 . S
C1899 C1897 1.390 . S
C1899 C1900 1.387 . S
C1899 H1902 0.950 . S
C1900 C1899 1.387 . S
C1900 C1903 1.387 . S
H1901 C1897 0.950 . S
H1902 C1899 0.950 . S
C1903 C1894 1.390 . S
C1903 H1896 0.950 . S
C1903 C1900 1.387 . S
C1904 C1905 1.387 . S
C1904 H1908 0.950 . S
C1904 C1913 1.390 . S
C1905 C1904 1.387 . S
C1905 C1907 1.387 . S
H1906 C1913 0.950 . S
C1907 C1905 1.387 . S
C1907 C1909 1.390 . S
C1907 H1911 0.950 . S
H1908 C1904 0.950 . S
C1909 C1907 1.390 . S
C1909 C1910 1.387 . S
C1909 H1912 0.950 . S
C1910 C1909 1.387 . S
C1910 C1913 1.387 . S
H1911 C1907 0.950 . S
H1912 C1909 0.950 . S
C1913 C1904 1.390 . S
C1913 H1906 0.950 . S
C1913 C1910 1.387 . S
C1914 C1915 1.387 . S
C1914 H1918 0.950 . S
C1914 C1923 1.390 . S
C1915 C1914 1.387 . S
C1915 C1917 1.387 . S
H1916 C1923 0.950 . S
C1917 C1915 1.387 . S
C1917 C1919 1.390 . S
C1917 H1921 0.950 . S
H1918 C1914 0.950 . S
C1919 C1917 1.390 . S
C1919 C1920 1.387 . S
C1919 H1922 0.950 . S
C1920 C1919 1.387 . S
C1920 C1923 1.387 . S
H1921 C1917 0.950 . S
H1922 C1919 0.950 . S
C1923 C1914 1.390 . S
C1923 H1916 0.950 . S
C1923 C1920 1.387 . S
C1924 C1925 1.387 . S
C1924 H1928 0.950 . S
C1924 C1933 1.390 . S
C1925 C1924 1.387 . S
C1925 C1927 1.387 . S
H1926 C1933 0.950 . S
C1927 C1925 1.387 . S
C1927 C1929 1.390 . S
C1927 H1931 0.950 . S
H1928 C1924 0.950 . S
C1929 C1927 1.390 . S
C1929 C1930 1.387 . S
C1929 H1932 0.950 . S
C1930 C1929 1.387 . S
C1930 C1933 1.387 . S
H1931 C1927 0.950 . S
H1932 C1929 0.950 . S
C1933 C1924 1.390 . S
C1933 H1926 0.950 . S
C1933 C1930 1.387 . S
C1934 C1935 1.387 . S
C1934 H1938 0.950 . S
C1934 C1943 1.390 . S
C1935 C1934 1.387 . S
C1935 C1937 1.387 . S
H1936 C1943 0.950 . S
C1937 C1935 1.387 . S
C1937 C1939 1.390 . S
C1937 H1941 0.950 . S
H1938 C1934 0.950 . S
C1939 C1937 1.390 . S
C1939 C1940 1.387 . S
C1939 H1942 0.950 . S
C1940 C1939 1.387 . S
C1940 C1943 1.387 . S
H1941 C1937 0.950 . S
H1942 C1939 0.950 . S
C1943 C1934 1.390 . S
C1943 H1936 0.950 . S
C1943 C1940 1.387 . S
C1944 C1945 1.387 . S
C1944 H1948 0.950 . S
C1944 C1953 1.390 . S
C1945 C1944 1.387 . S
C1945 C1947 1.387 . S
H1946 C1953 0.950 . S
C1947 C1945 1.387 . S
C1947 C1949 1.390 . S
C1947 H1951 0.950 . S
H1948 C1944 0.950 . S
C1949 C1947 1.390 . S
C1949 C1950 1.387 . S
C1949 H1952 0.950 . S
C1950 C1949 1.387 . S
C1950 C1953 1.387 . S
H1951 C1947 0.950 . S
H1952 C1949 0.950 . S
C1953 C1944 1.390 . S
C1953 H1946 0.950 . S
C1953 C1950 1.387 . S
C1954 C1955 1.387 . S
C1954 H1958 0.950 . S
C1954 C1963 1.390 . S
C1955 C1954 1.387 . S
C1955 C1957 1.387 . S
H1956 C1963 0.950 . S
C1957 C1955 1.387 . S
C1957 C1959 1.390 . S
C1957 H1961 0.950 . S
H1958 C1954 0.950 . S
C1959 C1957 1.390 . S
C1959 C1960 1.387 . S
C1959 H1962 0.950 . S
C1960 C1959 1.387 . S
C1960 C1963 1.387 . S
H1961 C1957 0.950 . S
H1962 C1959 0.950 . S
C1963 C1954 1.390 . S
C1963 H1956 0.950 . S
C1963 C1960 1.387 . S
C1964 C1965 1.387 . S
C1964 H1968 0.950 . S
C1964 C1973 1.390 . S
C1965 C1964 1.387 . S
C1965 C1967 1.387 . S
H1966 C1973 0.950 . S
C1967 C1965 1.387 . S
C1967 C1969 1.390 . S
C1967 H1971 0.950 . S
H1968 C1964 0.950 . S
C1969 C1967 1.390 . S
C1969 C1970 1.387 . S
C1969 H1972 0.950 . S
C1970 C1969 1.387 . S
C1970 C1973 1.387 . S
H1971 C1967 0.950 . S
H1972 C1969 0.950 . S
C1973 C1964 1.390 . S
C1973 H1966 0.950 . S
C1973 C1970 1.387 . S
C1974 C1975 1.387 . S
C1974 H1978 0.950 . S
C1974 C1983 1.390 . S
C1975 C1974 1.387 . S
C1975 C1977 1.387 . S
H1976 C1983 0.950 . S
C1977 C1975 1.387 . S
C1977 C1979 1.390 . S
C1977 H1981 0.950 . S
H1978 C1974 0.950 . S
C1979 C1977 1.390 . S
C1979 C1980 1.387 . S
C1979 H1982 0.950 . S
C1980 C1979 1.387 . S
C1980 C1983 1.387 . S
H1981 C1977 0.950 . S
H1982 C1979 0.950 . S
C1983 C1974 1.390 . S
C1983 H1976 0.950 . S
C1983 C1980 1.387 . S
C1984 C1985 1.387 . S
C1984 H1988 0.950 . S
C1984 C1993 1.390 . S
C1985 C1984 1.387 . S
C1985 C1987 1.387 . S
H1986 C1993 0.950 . S
C1987 C1985 1.387 . S
C1987 C1989 1.390 . S
C1987 H1991 0.950 . S
H1988 C1984 0.950 . S
C1989 C1987 1.390 . S
C1989 C1990 1.387 . S
C1989 H1992 0.950 . S
C1990 C1989 1.387 . S
C1990 C1993 1.387 . S
H1991 C1987 0.950 . S
H1992 C1989 0.950 . S
C1993 C1984 1.390 . S
C1993 H1986 0.950 . S
C1993 C1990 1.387 . S
C1994 C1995 1.387 . S
C1994 H1998 0.950 . S
C1994 C2003 1.390 . S
C1995 C1994 1.387 . S
C1995 C1997 1.387 . S
H1996 C2003 0.950 . S
C1997 C1995 1.387 . S
C1997 C1999 1.390 . S
C1997 H2001 0.950 . S
H1998 C1994 0.950 . S
C1999 C1997 1.390 . S
C1999 C2000 1.387 . S
C1999 H2002 0.950 . S
C2000 C1999 1.387 . S
C2000 C2003 1.387 . S
H2001 C1997 0.950 . S
H2002 C1999 0.950 . S
C2003 C1994 1.390 . S
C2003 H1996 0.950 . S
C2003 C2000 1.387 . S
C2004 C2005 1.387 . S
C2004 H2008 0.950 . S
C2004 C2013 1.390 . S
C2005 C2004 1.387 . S
C2005 C2007 1.387 . S
H2006 C2013 0.950 . S
C2007 C2005 1.387 . S
C2007 C2009 1.390 . S
C2007 H2011 0.950 . S
H2008 C2004 0.950 . S
C2009 C2007 1.390 . S
C2009 C2010 1.387 . S
C2009 H2012 0.950 . S
C2010 C2009 1.387 . S
C2010 C2013 1.387 . S
H2011 C2007 0.950 . S
H2012 C2009 0.950 . S
C2013 C2004 1.390 . S
C2013 H2006 0.950 . S
C2013 C2010 1.387 . S
C2014 C2015 1.387 . S
C2014 H2018 0.950 . S
C2014 C2023 1.390 . S
C2015 C2014 1.387 . S
C2015 C2017 1.387 . S
H2016 C2023 0.950 . S
C2017 C2015 1.387 . S
C2017 C2019 1.390 . S
C2017 H2021 0.950 . S
H2018 C2014 0.950 . S
C2019 C2017 1.390 . S
C2019 C2020 1.387 . S
C2019 H2022 0.950 . S
C2020 C2019 1.387 . S
C2020 C2023 1.387 . S
H2021 C2017 0.950 . S
H2022 C2019 0.950 . S
C2023 C2014 1.390 . S
C2023 H2016 0.950 . S
C2023 C2020 1.387 . S
C2024 C2025 1.387 . S
C2024 H2028 0.950 . S
C2024 C2033 1.390 . S
C2025 C2024 1.387 . S
C2025 C2027 1.387 . S
H2026 C2033 0.950 . S
C2027 C2025 1.387 . S
C2027 C2029 1.390 . S
C2027 H2031 0.950 . S
H2028 C2024 0.950 . S
C2029 C2027 1.390 . S
C2029 C2030 1.387 . S
C2029 H2032 0.950 . S
C2030 C2029 1.387 . S
C2030 C2033 1.387 . S
H2031 C2027 0.950 . S
H2032 C2029 0.950 . S
C2033 C2024 1.390 . S
C2033 H2026 0.950 . S
C2033 C2030 1.387 . S
C2034 C2035 1.387 . S
C2034 H2038 0.950 . S
C2034 C2043 1.390 . S
C2035 C2034 1.387 . S
C2035 C2037 1.387 . S
H2036 C2043 0.950 . S
C2037 C2035 1.387 . S
C2037 C2039 1.390 . S
C2037 H2041 0.950 . S
H2038 C2034 0.950 . S
C2039 C2037 1.390 . S
C2039 C2040 1.387 . S
C2039 H2042 0.950 . S
C2040 C2039 1.387 . S
C2040 C2043 1.387 . S
H2041 C2037 0.950 . S
H2042 C2039 0.950 . S
C2043 C2034 1.390 . S
C2043 H2036 0.950 . S
C2043 C2040 1.387 . S
C2044 C2045 1.387 . S
C2044 H2048 0.950 . S
C2044 C2053 1.390 . S
C2045 C2044 1.387 . S
C2045 C2047 1.387 . S
H2046 C2053 0.950 . S
C2047 C2045 1.387 . S
C2047 C2049 1.390 . S
C2047 H2051 0.950 . S
H2048 C2044 0.950 . S
C2049 C2047 1.390 . S
C2049 C2050 1.387 . S
C2049 H2052 0.950 . S
C2050 C2049 1.387 . S
C2050 C2053 1.387 . S
H2051 C2047 0.950 . S
H2052 C2049 0.950 . S
C2053 C2044 1.390 . S
C2053 H2046 0.950 . S
C2053 C2050 1.387 . S
C2054 C2055 1.387 . S
C2054 H2058 0.950 . S
C2054 C2063 1.390 . S
C2055 C2054 1.387 . S
C2055 C2057 1.387 . S
H2056 C2063 0.950 . S
C2057 C2055 1.387 . S
C2057 C2059 1.390 . S
C2057 H2061 0.950 . S
H2058 C2054 0.950 . S
C2059 C2057 1.390 . S
C2059 C2060 1.387 . S
C2059 H2062 0.950 . S
C2060 C2059 1.387 . S
C2060 C2063 1.387 . S
H2061 C2057 0.950 . S
H2062 C2059 0.950 . S
C2063 C2054 1.390 . S
C2063 H2056 0.950 . S
C2063 C2060 1.387 . S
C2064 C2065 1.387 . S
C2064 H2068 0.950 . S
C2064 C2073 1.390 . S
C2065 C2064 1.387 . S
C2065 C2067 1.387 . S
H2066 C2073 0.950 . S
C2067 C2065 1.387 . S
C2067 C2069 1.390 . S
C2067 H2071 0.950 . S
H2068 C2064 0.950 . S
C2069 C2067 1.390 . S
C2069 C2070 1.387 . S
C2069 H2072 0.950 . S
C2070 C2069 1.387 . S
C2070 C2073 1.387 . S
H2071 C2067 0.950 . S
H2072 C2069 0.950 . S
C2073 C2064 1.390 . S
C2073 H2066 0.950 . S
C2073 C2070 1.387 . S
C2074 C2075 1.387 . S
C2074 H2078 0.950 . S
C2074 C2083 1.390 . S
C2075 C2074 1.387 . S
C2075 C2077 1.387 . S
H2076 C2083 0.950 . S
C2077 C2075 1.387 . S
C2077 C2079 1.390 . S
C2077 H2081 0.950 . S
H2078 C2074 0.950 . S
C2079 C2077 1.390 . S
C2079 C2080 1.387 . S
C2079 H2082 0.950 . S
C2080 C2079 1.387 . S
C2080 C2083 1.387 . S
H2081 C2077 0.950 . S
H2082 C2079 0.950 . S
C2083 C2074 1.390 . S
C2083 H2076 0.950 . S
C2083 C2080 1.387 . S
C2084 C2085 1.387 . S
C2084 H2088 0.950 . S
C2084 C2093 1.390 . S
C2085 C2084 1.387 . S
C2085 C2087 1.387 . S
H2086 C2093 0.950 . S
C2087 C2085 1.387 . S
C2087 C2089 1.390 . S
C2087 H2091 0.950 . S
H2088 C2084 0.950 . S
C2089 C2087 1.390 . S
C2089 C2090 1.387 . S
C2089 H2092 0.950 . S
C2090 C2089 1.387 . S
C2090 C2093 1.387 . S
H2091 C2087 0.950 . S
H2092 C2089 0.950 . S
C2093 C2084 1.390 . S
C2093 H2086 0.950 . S
C2093 C2090 1.387 . S
C2094 C2095 1.387 . S
C2094 H2098 0.950 . S
C2094 C2103 1.390 . S
C2095 C2094 1.387 . S
C2095 C2097 1.387 . S
H2096 C2103 0.950 . S
C2097 C2095 1.387 . S
C2097 C2099 1.390 . S
C2097 H2101 0.950 . S
H2098 C2094 0.950 . S
C2099 C2097 1.390 . S
C2099 C2100 1.387 . S
C2099 H2102 0.950 . S
C2100 C2099 1.387 . S
C2100 C2103 1.387 . S
H2101 C2097 0.950 . S
H2102 C2099 0.950 . S
C2103 C2094 1.390 . S
C2103 H2096 0.950 . S
C2103 C2100 1.387 . S
C2104 C2105 1.387 . S
C2104 H2108 0.950 . S
C2104 C2113 1.390 . S
C2105 C2104 1.387 . S
C2105 C2107 1.387 . S
H2106 C2113 0.950 . S
C2107 C2105 1.387 . S
C2107 C2109 1.390 . S
C2107 H2111 0.950 . S
H2108 C2104 0.950 . S
C2109 C2107 1.390 . S
C2109 C2110 1.387 . S
C2109 H2112 0.950 . S
C2110 C2109 1.387 . S
C2110 C2113 1.387 . S
H2111 C2107 0.950 . S
H2112 C2109 0.950 . S
C2113 C2104 1.390 . S
C2113 H2106 0.950 . S
C2113 C2110 1.387 . S
C2114 C2115 1.387 . S
C2114 H2118 0.950 . S
C2114 C2123 1.390 . S
C2115 C2114 1.387 . S
C2115 C2117 1.387 . S
H2116 C2123 0.950 . S
C2117 C2115 1.387 . S
C2117 C2119 1.390 . S
C2117 H2121 0.950 . S
H2118 C2114 0.950 . S
C2119 C2117 1.390 . S
C2119 C2120 1.387 . S
C2119 H2122 0.950 . S
C2120 C2119 1.387 . S
C2120 C2123 1.387 . S
H2121 C2117 0.950 . S
H2122 C2119 0.950 . S
C2123 C2114 1.390 . S
C2123 H2116 0.950 . S
C2123 C2120 1.387 . S
C2124 C2125 1.387 . S
C2124 H2128 0.950 . S
C2124 C2133 1.390 . S
C2125 C2124 1.387 . S
C2125 C2127 1.387 . S
H2126 C2133 0.950 . S
C2127 C2125 1.387 . S
C2127 C2129 1.390 . S
C2127 H2131 0.950 . S
H2128 C2124 0.950 . S
C2129 C2127 1.390 . S
C2129 C2130 1.387 . S
C2129 H2132 0.950 . S
C2130 C2129 1.387 . S
C2130 C2133 1.387 . S
H2131 C2127 0.950 . S
H2132 C2129 0.950 . S
C2133 C2124 1.390 . S
C2133 H2126 0.950 . S
C2133 C2130 1.387 . S
C2134 C2135 1.387 . S
C2134 H2138 0.950 . S
C2134 C2143 1.390 . S
C2135 C2134 1.387 . S
C2135 C2137 1.387 . S
H2136 C2143 0.950 . S
C2137 C2135 1.387 . S
C2137 C2139 1.390 . S
C2137 H2141 0.950 . S
H2138 C2134 0.950 . S
C2139 C2137 1.390 . S
C2139 C2140 1.387 . S
C2139 H2142 0.950 . S
C2140 C2139 1.387 . S
C2140 C2143 1.387 . S
H2141 C2137 0.950 . S
H2142 C2139 0.950 . S
C2143 C2134 1.390 . S
C2143 H2136 0.950 . S
C2143 C2140 1.387 . S
C2144 C2145 1.387 . S
C2144 H2148 0.950 . S
C2144 C2153 1.390 . S
C2145 C2144 1.387 . S
C2145 C2147 1.387 . S
H2146 C2153 0.950 . S
C2147 C2145 1.387 . S
C2147 C2149 1.390 . S
C2147 H2151 0.950 . S
H2148 C2144 0.950 . S
C2149 C2147 1.390 . S
C2149 C2150 1.387 . S
C2149 H2152 0.950 . S
C2150 C2149 1.387 . S
C2150 C2153 1.387 . S
H2151 C2147 0.950 . S
H2152 C2149 0.950 . S
C2153 C2144 1.390 . S
C2153 H2146 0.950 . S
C2153 C2150 1.387 . S
C2154 C2155 1.387 . S
C2154 H2158 0.950 . S
C2154 C2163 1.390 . S
C2155 C2154 1.387 . S
C2155 C2157 1.387 . S
H2156 C2163 0.950 . S
C2157 C2155 1.387 . S
C2157 C2159 1.390 . S
C2157 H2161 0.950 . S
H2158 C2154 0.950 . S
C2159 C2157 1.390 . S
C2159 C2160 1.387 . S
C2159 H2162 0.950 . S
C2160 C2159 1.387 . S
C2160 C2163 1.387 . S
H2161 C2157 0.950 . S
H2162 C2159 0.950 . S
C2163 C2154 1.390 . S
C2163 H2156 0.950 . S
C2163 C2160 1.387 . S
C2164 C2165 1.387 . S
C2164 H2168 0.950 . S
C2164 C2173 1.390 . S
C2165 C2164 1.387 . S
C2165 C2167 1.387 . S
H2166 C2173 0.950 . S
C2167 C2165 1.387 . S
C2167 C2169 1.390 . S
C2167 H2171 0.950 . S
H2168 C2164 0.950 . S
C2169 C2167 1.390 . S
C2169 C2170 1.387 . S
C2169 H2172 0.950 . S
C2170 C2169 1.387 . S
C2170 C2173 1.387 . S
H2171 C2167 0.950 . S
H2172 C2169 0.950 . S
C2173 C2164 1.390 . S
C2173 H2166 0.950 . S
C2173 C2170 1.387 . S
C2174 C2175 1.387 . S
C2174 H2178 0.950 . S
C2174 C2183 1.390 . S
C2175 C2174 1.387 . S
C2175 C2177 1.387 . S
H2176 C2183 0.950 . S
C2177 C2175 1.387 . S
C2177 C2179 1.390 . S
C2177 H2181 0.950 . S
H2178 C2174 0.950 . S
C2179 C2177 1.390 . S
C2179 C2180 1.387 . S
C2179 H2182 0.950 . S
C2180 C2179 1.387 . S
C2180 C2183 1.387 . S
H2181 C2177 0.950 . S
H2182 C2179 0.950 . S
C2183 C2174 1.390 . S
C2183 H2176 0.950 . S
C2183 C2180 1.387 . S
C2184 C2185 1.387 . S
C2184 H2188 0.950 . S
C2184 C2193 1.390 . S
C2185 C2184 1.387 . S
C2185 C2187 1.387 . S
H2186 C2193 0.950 . S
C2187 C2185 1.387 . S
C2187 C2189 1.390 . S
C2187 H2191 0.950 . S
H2188 C2184 0.950 . S
C2189 C2187 1.390 . S
C2189 C2190 1.387 . S
C2189 H2192 0.950 . S
C2190 C2189 1.387 . S
C2190 C2193 1.387 . S
H2191 C2187 0.950 . S
H2192 C2189 0.950 . S
C2193 C2184 1.390 . S
C2193 H2186 0.950 . S
C2193 C2190 1.387 . S
C2194 C2195 1.387 . S
C2194 H2198 0.950 . S
C2194 C2203 1.390 . S
C2195 C2194 1.387 . S
C2195 C2197 1.387 . S
H2196 C2203 0.950 . S
C2197 C2195 1.387 . S
C2197 C2199 1.390 . S
C2197 H2201 0.950 . S
H2198 C2194 0.950 . S
C2199 C2197 1.390 . S
C2199 C2200 1.387 . S
C2199 H2202 0.950 . S
C2200 C2199 1.387 . S
C2200 C2203 1.387 . S
H2201 C2197 0.950 . S
H2202 C2199 0.950 . S
C2203 C2194 1.390 . S
C2203 H2196 0.950 . S
C2203 C2200 1.387 . S
C2204 C2205 1.387 . S
C2204 H2208 0.950 . S
C2204 C2213 1.390 . S
C2205 C2204 1.387 . S
C2205 C2207 1.387 . S
H2206 C2213 0.950 . S
C2207 C2205 1.387 . S
C2207 C2209 1.390 . S
C2207 H2211 0.950 . S
H2208 C2204 0.950 . S
C2209 C2207 1.390 . S
C2209 C2210 1.387 . S
C2209 H2212 0.950 . S
C2210 C2209 1.387 . S
C2210 C2213 1.387 . S
H2211 C2207 0.950 . S
H2212 C2209 0.950 . S
C2213 C2204 1.390 . S
C2213 H2206 0.950 . S
C2213 C2210 1.387 . S
C2214 C2215 1.387 . S
C2214 H2218 0.950 . S
C2214 C2223 1.390 . S
C2215 C2214 1.387 . S
C2215 C2217 1.387 . S
H2216 C2223 0.950 . S
C2217 C2215 1.387 . S
C2217 C2219 1.390 . S
C2217 H2221 0.950 . S
H2218 C2214 0.950 . S
C2219 C2217 1.390 . S
C2219 C2220 1.387 . S
C2219 H2222 0.950 . S
C2220 C2219 1.387 . S
C2220 C2223 1.387 . S
H2221 C2217 0.950 . S
H2222 C2219 0.950 . S
C2223 C2214 1.390 . S
C2223 H2216 0.950 . S
C2223 C2220 1.387 . S
C2224 C2225 1.387 . S
C2224 H2228 0.950 . S
C2224 C2233 1.390 . S
C2225 C2224 1.387 . S
C2225 C2227 1.387 . S
H2226 C2233 0.950 . S
C2227 C2225 1.387 . S
C2227 C2229 1.390 . S
C2227 H2231 0.950 . S
H2228 C2224 0.950 . S
C2229 C2227 1.390 . S
C2229 C2230 1.387 . S
C2229 H2232 0.950 . S
C2230 C2229 1.387 . S
C2230 C2233 1.387 . S
H2231 C2227 0.950 . S
H2232 C2229 0.950 . S
C2233 C2224 1.390 . S
C2233 H2226 0.950 . S
C2233 C2230 1.387 . S
C2234 C2235 1.387 . S
C2234 H2238 0.950 . S
C2234 C2243 1.390 . S
C2235 C2234 1.387 . S
C2235 C2237 1.387 . S
H2236 C2243 0.950 . S
C2237 C2235 1.387 . S
C2237 C2239 1.390 . S
C2237 H2241 0.950 . S
H2238 C2234 0.950 . S
C2239 C2237 1.390 . S
C2239 C2240 1.387 . S
C2239 H2242 0.950 . S
C2240 C2239 1.387 . S
C2240 C2243 1.387 . S
H2241 C2237 0.950 . S
H2242 C2239 0.950 . S
C2243 C2234 1.390 . S
C2243 H2236 0.950 . S
C2243 C2240 1.387 . S
C2244 C2245 1.387 . S
C2244 H2248 0.950 . S
C2244 C2253 1.390 . S
C2245 C2244 1.387 . S
C2245 C2247 1.387 . S
H2246 C2253 0.950 . S
C2247 C2245 1.387 . S
C2247 C2249 1.390 . S
C2247 H2251 0.950 . S
H2248 C2244 0.950 . S
C2249 C2247 1.390 . S
C2249 C2250 1.387 . S
C2249 H2252 0.950 . S
C2250 C2249 1.387 . S
C2250 C2253 1.387 . S
H2251 C2247 0.950 . S
H2252 C2249 0.950 . S
C2253 C2244 1.390 . S
C2253 H2246 0.950 . S
C2253 C2250 1.387 . S
C2254 C2255 1.387 . S
C2254 H2258 0.950 . S
C2254 C2263 1.390 . S
C2255 C2254 1.387 . S
C2255 C2257 1.387 . S
H2256 C2263 0.950 . S
C2257 C2255 1.387 . S
C2257 C2259 1.390 . S
C2257 H2261 0.950 . S
H2258 C2254 0.950 . S
C2259 C2257 1.390 . S
C2259 C2260 1.387 . S
C2259 H2262 0.950 . S
C2260 C2259 1.387 . S
C2260 C2263 1.387 . S
H2261 C2257 0.950 . S
H2262 C2259 0.950 . S
C2263 C2254 1.390 . S
C2263 H2256 0.950 . S
C2263 C2260 1.387 . S
C2264 C2265 1.387 . S
C2264 H2268 0.950 . S
C2264 C2273 1.390 . S
C2265 C2264 1.387 . S
C2265 C2267 1.387 . S
H2266 C2273 0.950 . S
C2267 C2265 1.387 . S
C2267 C2269 1.390 . S
C2267 H2271 0.950 . S
H2268 C2264 0.950 . S
C2269 C2267 1.390 . S
C2269 C2270 1.387 . S
C2269 H2272 0.950 . S
C2270 C2269 1.387 . S
C2270 C2273 1.387 . S
H2271 C2267 0.950 . S
H2272 C2269 0.950 . S
C2273 C2264 1.390 . S
C2273 H2266 0.950 . S
C2273 C2270 1.387 . S
C2274 C2275 1.387 . S
C2274 H2278 0.950 . S
C2274 C2283 1.390 . S
C2275 C2274 1.387 . S
C2275 C2277 1.387 . S
H2276 C2283 0.950 . S
C2277 C2275 1.387 . S
C2277 C2279 1.390 . S
C2277 H2281 0.950 . S
H2278 C2274 0.950 . S
C2279 C2277 1.390 . S
C2279 C2280 1.387 . S
C2279 H2282 0.950 . S
C2280 C2279 1.387 . S
C2280 C2283 1.387 . S
H2281 C2277 0.950 . S
H2282 C2279 0.950 . S
C2283 C2274 1.390 . S
C2283 H2276 0.950 . S
C2283 C2280 1.387 . S
C2284 C2285 1.387 . S
C2284 H2288 0.950 . S
C2284 C2293 1.390 . S
C2285 C2284 1.387 . S
C2285 C2287 1.387 . S
H2286 C2293 0.950 . S
C2287 C2285 1.387 . S
C2287 C2289 1.390 . S
C2287 H2291 0.950 . S
H2288 C2284 0.950 . S
C2289 C2287 1.390 . S
C2289 C2290 1.387 . S
C2289 H2292 0.950 . S
C2290 C2289 1.387 . S
C2290 C2293 1.387 . S
H2291 C2287 0.950 . S
H2292 C2289 0.950 . S
C2293 C2284 1.390 . S
C2293 H2286 0.950 . S
C2293 C2290 1.387 . S
C2294 C2295 1.387 . S
C2294 H2298 0.950 . S
C2294 C2303 1.390 . S
C2295 C2294 1.387 . S
C2295 C2297 1.387 . S
H2296 C2303 0.950 . S
C2297 C2295 1.387 . S
C2297 C2299 1.390 . S
C2297 H2301 0.950 . S
H2298 C2294 0.950 . S
C2299 C2297 1.390 . S
C2299 C2300 1.387 . S
C2299 H2302 0.950 . S
C2300 C2299 1.387 . S
C2300 C2303 1.387 . S
H2301 C2297 0.950 . S
H2302 C2299 0.950 . S
C2303 C2294 1.390 . S
C2303 H2296 0.950 . S
C2303 C2300 1.387 . S
C2304 C2305 1.387 . S
C2304 H2308 0.950 . S
C2304 C2313 1.390 . S
C2305 C2304 1.387 . S
C2305 C2307 1.387 . S
H2306 C2313 0.950 . S
C2307 C2305 1.387 . S
C2307 C2309 1.390 . S
C2307 H2311 0.950 . S
H2308 C2304 0.950 . S
C2309 C2307 1.390 . S
C2309 C2310 1.387 . S
C2309 H2312 0.950 . S
C2310 C2309 1.387 . S
C2310 C2313 1.387 . S
H2311 C2307 0.950 . S
H2312 C2309 0.950 . S
C2313 C2304 1.390 . S
C2313 H2306 0.950 . S
C2313 C2310 1.387 . S
C2314 C2315 1.387 . S
C2314 H2318 0.950 . S
C2314 C2323 1.390 . S
C2315 C2314 1.387 . S
C2315 C2317 1.387 . S
H2316 C2323 0.950 . S
C2317 C2315 1.387 . S
C2317 C2319 1.390 . S
C2317 H2321 0.950 . S
H2318 C2314 0.950 . S
C2319 C2317 1.390 . S
C2319 C2320 1.387 . S
C2319 H2322 0.950 . S
C2320 C2319 1.387 . S
C2320 C2323 1.387 . S
H2321 C2317 0.950 . S
H2322 C2319 0.950 . S
C2323 C2314 1.390 . S
C2323 H2316 0.950 . S
C2323 C2320 1.387 . S
C2324 C2325 1.387 . S
C2324 H2328 0.950 . S
C2324 C2333 1.390 . S
C2325 C2324 1.387 . S
C2325 C2327 1.387 . S
H2326 C2333 0.950 . S
C2327 C2325 1.387 . S
C2327 C2329 1.390 . S
C2327 H2331 0.950 . S
H2328 C2324 0.950 . S
C2329 C2327 1.390 . S
C2329 C2330 1.387 . S
C2329 H2332 0.950 . S
C2330 C2329 1.387 . S
C2330 C2333 1.387 . S
H2331 C2327 0.950 . S
H2332 C2329 0.950 . S
C2333 C2324 1.390 . S
C2333 H2326 0.950 . S
C2333 C2330 1.387 . S
C2334 C2335 1.387 . S
C2334 H2338 0.950 . S
C2334 C2343 1.390 . S
C2335 C2334 1.387 . S
C2335 C2337 1.387 . S
H2336 C2343 0.950 . S
C2337 C2335 1.387 . S
C2337 C2339 1.390 . S
C2337 H2341 0.950 . S
H2338 C2334 0.950 . S
C2339 C2337 1.390 . S
C2339 C2340 1.387 . S
C2339 H2342 0.950 . S
C2340 C2339 1.387 . S
C2340 C2343 1.387 . S
H2341 C2337 0.950 . S
H2342 C2339 0.950 . S
C2343 C2334 1.390 . S
C2343 H2336 0.950 . S
C2343 C2340 1.387 . S
C2344 C2345 1.387 . S
C2344 H2348 0.950 . S
C2344 C2353 1.390 . S
C2345 C2344 1.387 . S
C2345 C2347 1.387 . S
H2346 C2353 0.950 . S
C2347 C2345 1.387 . S
C2347 C2349 1.390 . S
C2347 H2351 0.950 . S
H2348 C2344 0.950 . S
C2349 C2347 1.390 . S
C2349 C2350 1.387 . S
C2349 H2352 0.950 . S
C2350 C2349 1.387 . S
C2350 C2353 1.387 . S
H2351 C2347 0.950 . S
H2352 C2349 0.950 . S
C2353 C2344 1.390 . S
C2353 H2346 0.950 . S
C2353 C2350 1.387 . S
C2354 C2355 1.387 . S
C2354 H2358 0.950 . S
C2354 C2363 1.390 . S
C2355 C2354 1.387 . S
C2355 C2357 1.387 . S
H2356 C2363 0.950 . S
C2357 C2355 1.387 . S
C2357 C2359 1.390 . S
C2357 H2361 0.950 . S
H2358 C2354 0.950 . S
C2359 C2357 1.390 . S
C2359 C2360 1.387 . S
C2359 H2362 0.950 . S
C2360 C2359 1.387 . S
C2360 C2363 1.387 . S
H2361 C2357 0.950 . S
H2362 C2359 0.950 . S
C2363 C2354 1.390 . S
C2363 H2356 0.950 . S
C2363 C2360 1.387 . S
C2364 C2365 1.387 . S
C2364 H2368 0.950 . S
C2364 C2373 1.390 . S
C2365 C2364 1.387 . S
C2365 C2367 1.387 . S
H2366 C2373 0.950 . S
C2367 C2365 1.387 . S
C2367 C2369 1.390 . S
C2367 H2371 0.950 . S
H2368 C2364 0.950 . S
C2369 C2367 1.390 . S
C2369 C2370 1.387 . S
C2369 H2372 0.950 . S
C2370 C2369 1.387 . S
C2370 C2373 1.387 . S
H2371 C2367 0.950 . S
H2372 C2369 0.950 . S
C2373 C2364 1.390 . S
C2373 H2366 0.950 . S
C2373 C2370 1.387 . S
C2374 C2375 1.387 . S
C2374 H2378 0.950 . S
C2374 C2383 1.390 . S
C2375 C2374 1.387 . S
C2375 C2377 1.387 . S
H2376 C2383 0.950 . S
C2377 C2375 1.387 . S
C2377 C2379 1.390 . S
C2377 H2381 0.950 . S
H2378 C2374 0.950 . S
C2379 C2377 1.390 . S
C2379 C2380 1.387 . S
C2379 H2382 0.950 . S
C2380 C2379 1.387 . S
C2380 C2383 1.387 . S
H2381 C2377 0.950 . S
H2382 C2379 0.950 . S
C2383 C2374 1.390 . S
C2383 H2376 0.950 . S
C2383 C2380 1.387 . S
C2384 C2385 1.387 . S
C2384 H2388 0.950 . S
C2384 C2393 1.390 . S
C2385 C2384 1.387 . S
C2385 C2387 1.387 . S
H2386 C2393 0.950 . S
C2387 C2385 1.387 . S
C2387 C2389 1.390 . S
C2387 H2391 0.950 . S
H2388 C2384 0.950 . S
C2389 C2387 1.390 . S
C2389 C2390 1.387 . S
C2389 H2392 0.950 . S
C2390 C2389 1.387 . S
C2390 C2393 1.387 . S
H2391 C2387 0.950 . S
H2392 C2389 0.950 . S
C2393 C2384 1.390 . S
C2393 H2386 0.950 . S
C2393 C2390 1.387 . S
C2394 C2395 1.387 . S
C2394 H2398 0.950 . S
C2394 C2403 1.390 . S
C2395 C2394 1.387 . S
C2395 C2397 1.387 . S
H2396 C2403 0.950 . S
C2397 C2395 1.387 . S
C2397 C2399 1.390 . S
C2397 H2401 0.950 . S
H2398 C2394 0.950 . S
C2399 C2397 1.390 . S
C2399 C2400 1.387 . S
C2399 H2402 0.950 . S
C2400 C2399 1.387 . S
C2400 C2403 1.387 . S
H2401 C2397 0.950 . S
H2402 C2399 0.950 . S
C2403 C2394 1.390 . S
C2403 H2396 0.950 . S
C2403 C2400 1.387 . S
C2404 C2405 1.387 . S
C2404 H2408 0.950 . S
C2404 C2413 1.390 . S
C2405 C2404 1.387 . S
C2405 C2407 1.387 . S
H2406 C2413 0.950 . S
C2407 C2405 1.387 . S
C2407 C2409 1.390 . S
C2407 H2411 0.950 . S
H2408 C2404 0.950 . S
C2409 C2407 1.390 . S
C2409 C2410 1.387 . S
C2409 H2412 0.950 . S
C2410 C2409 1.387 . S
C2410 C2413 1.387 . S
H2411 C2407 0.950 . S
H2412 C2409 0.950 . S
C2413 C2404 1.390 . S
C2413 H2406 0.950 . S
C2413 C2410 1.387 . S
C2414 C2415 1.387 . S
C2414 H2418 0.950 . S
C2414 C2423 1.390 . S
C2415 C2414 1.387 . S
C2415 C2417 1.387 . S
H2416 C2423 0.950 . S
C2417 C2415 1.387 . S
C2417 C2419 1.390 . S
C2417 H2421 0.950 . S
H2418 C2414 0.950 . S
C2419 C2417 1.390 . S
C2419 C2420 1.387 . S
C2419 H2422 0.950 . S
C2420 C2419 1.387 . S
C2420 C2423 1.387 . S
H2421 C2417 0.950 . S
H2422 C2419 0.950 . S
C2423 C2414 1.390 . S
C2423 H2416 0.950 . S
C2423 C2420 1.387 . S
C2424 C2425 1.387 . S
C2424 H2428 0.950 . S
C2424 C2433 1.390 . S
C2425 C2424 1.387 . S
C2425 C2427 1.387 . S
H2426 C2433 0.950 . S
C2427 C2425 1.387 . S
C2427 C2429 1.390 . S
C2427 H2431 0.950 . S
H2428 C2424 0.950 . S
C2429 C2427 1.390 . S
C2429 C2430 1.387 . S
C2429 H2432 0.950 . S
C2430 C2429 1.387 . S
C2430 C2433 1.387 . S
H2431 C2427 0.950 . S
H2432 C2429 0.950 . S
C2433 C2424 1.390 . S
C2433 H2426 0.950 . S
C2433 C2430 1.387 . S
C2434 C2435 1.387 . S
C2434 H2438 0.950 . S
C2434 C2443 1.390 . S
C2435 C2434 1.387 . S
C2435 C2437 1.387 . S
H2436 C2443 0.950 . S
C2437 C2435 1.387 . S
C2437 C2439 1.390 . S
C2437 H2441 0.950 . S
H2438 C2434 0.950 . S
C2439 C2437 1.390 . S
C2439 C2440 1.387 . S
C2439 H2442 0.950 . S
C2440 C2439 1.387 . S
C2440 C2443 1.387 . S
H2441 C2437 0.950 . S
H2442 C2439 0.950 . S
C2443 C2434 1.390 . S
C2443 H2436 0.950 . S
C2443 C2440 1.387 . S
C2444 C2445 1.387 . S
C2444 H2448 0.950 . S
C2444 C2453 1.390 . S
C2445 C2444 1.387 . S
C2445 C2447 1.387 . S
H2446 C2453 0.950 . S
C2447 C2445 1.387 . S
C2447 C2449 1.390 . S
C2447 H2451 0.950 . S
H2448 C2444 0.950 . S
C2449 C2447 1.390 . S
C2449 C2450 1.387 . S
C2449 H2452 0.950 . S
C2450 C2449 1.387 . S
C2450 C2453 1.387 . S
H2451 C2447 0.950 . S
H2452 C2449 0.950 . S
C2453 C2444 1.390 . S
C2453 H2446 0.950 . S
C2453 C2450 1.387 . S
C2454 C2455 1.387 . S
C2454 H2458 0.950 . S
C2454 C2463 1.390 . S
C2455 C2454 1.387 . S
C2455 C2457 1.387 . S
H2456 C2463 0.950 . S
C2457 C2455 1.387 . S
C2457 C2459 1.390 . S
C2457 H2461 0.950 . S
H2458 C2454 0.950 . S
C2459 C2457 1.390 . S
C2459 C2460 1.387 . S
C2459 H2462 0.950 . S
C2460 C2459 1.387 . S
C2460 C2463 1.387 . S
H2461 C2457 0.950 . S
H2462 C2459 0.950 . S
C2463 C2454 1.390 . S
C2463 H2456 0.950 . S
C2463 C2460 1.387 . S
C2464 C2465 1.387 . S
C2464 H2468 0.950 . S
C2464 C2473 1.390 . S
C2465 C2464 1.387 . S
C2465 C2467 1.387 . S
H2466 C2473 0.950 . S
C2467 C2465 1.387 . S
C2467 C2469 1.390 . S
C2467 H2471 0.950 . S
H2468 C2464 0.950 . S
C2469 C2467 1.390 . S
C2469 C2470 1.387 . S
C2469 H2472 0.950 . S
C2470 C2469 1.387 . S
C2470 C2473 1.387 . S
H2471 C2467 0.950 . S
H2472 C2469 0.950 . S
C2473 C2464 1.390 . S
C2473 H2466 0.950 . S
C2473 C2470 1.387 . S
C2474 C2475 1.387 . S
C2474 H2478 0.950 . S
C2474 C2483 1.390 . S
C2475 C2474 1.387 . S
C2475 C2477 1.387 . S
H2476 C2483 0.950 . S
C2477 C2475 1.387 . S
C2477 C2479 1.390 . S
C2477 H2481 0.950 . S
H2478 C2474 0.950 . S
C2479 C2477 1.390 . S
C2479 C2480 1.387 . S
C2479 H2482 0.950 . S
C2480 C2479 1.387 . S
C2480 C2483 1.387 . S
H2481 C2477 0.950 . S
H2482 C2479 0.950 . S
C2483 C2474 1.390 . S
C2483 H2476 0.950 . S
C2483 C2480 1.387 . S
C2484 C2485 1.387 . S
C2484 H2488 0.950 . S
C2484 C2493 1.390 . S
C2485 C2484 1.387 . S
C2485 C2487 1.387 . S
H2486 C2493 0.950 . S
C2487 C2485 1.387 . S
C2487 C2489 1.390 . S
C2487 H2491 0.950 . S
H2488 C2484 0.950 . S
C2489 C2487 1.390 . S
C2489 C2490 1.387 . S
C2489 H2492 0.950 . S
C2490 C2489 1.387 . S
C2490 C2493 1.387 . S
H2491 C2487 0.950 . S
H2492 C2489 0.950 . S
C2493 C2484 1.390 . S
C2493 H2486 0.950 . S
C2493 C2490 1.387 . S
C2494 C2495 1.387 . S
C2494 H2498 0.950 . S
C2494 C2503 1.390 . S
C2495 C2494 1.387 . S
C2495 C2497 1.387 . S
H2496 C2503 0.950 . S
C2497 C2495 1.387 . S
C2497 C2499 1.390 . S
C2497 H2501 0.950 . S
H2498 C2494 0.950 . S
C2499 C2497 1.390 . S
C2499 C2500 1.387 . S
C2499 H2502 0.950 . S
C2500 C2499 1.387 . S
C2500 C2503 1.387 . S
H2501 C2497 0.950 . S
H2502 C2499 0.950 . S
C2503 C2494 1.390 . S
C2503 H2496 0.950 . S
C2503 C2500 1.387 . S
C2504 C2505 1.387 . S
C2504 H2508 0.950 . S
C2504 C2513 1.390 . S
C2505 C2504 1.387 . S
C2505 C2507 1.387 . S
H2506 C2513 0.950 . S
C2507 C2505 1.387 . S
C2507 C2509 1.390 . S
C2507 H2511 0.950 . S
H2508 C2504 0.950 . S
C2509 C2507 1.390 . S
C2509 C2510 1.387 . S
C2509 H2512 0.950 . S
C2510 C2509 1.387 . S
C2510 C2513 1.387 . S
H2511 C2507 0.950 . S
H2512 C2509 0.950 . S
C2513 C2504 1.390 . S
C2513 H2506 0.950 . S
C2513 C2510 1.387 . S
C2514 C2515 1.387 . S
C2514 H2518 0.950 . S
C2514 C2523 1.390 . S
C2515 C2514 1.387 . S
C2515 C2517 1.387 . S
H2516 C2523 0.950 . S
C2517 C2515 1.387 . S
C2517 C2519 1.390 . S
C2517 H2521 0.950 . S
H2518 C2514 0.950 . S
C2519 C2517 1.390 . S
C2519 C2520 1.387 . S
C2519 H2522 0.950 . S
C2520 C2519 1.387 . S
C2520 C2523 1.387 . S
H2521 C2517 0.950 . S
H2522 C2519 0.950 . S
C2523 C2514 1.390 . S
C2523 H2516 0.950 . S
C2523 C2520 1.387 . S
C2524 C2525 1.387 . S
C2524 H2528 0.950 . S
C2524 C2533 1.390 . S
C2525 C2524 1.387 . S
C2525 C2527 1.387 . S
H2526 C2533 0.950 . S
C2527 C2525 1.387 . S
C2527 C2529 1.390 . S
C2527 H2531 0.950 . S
H2528 C2524 0.950 . S
C2529 C2527 1.390 . S
C2529 C2530 1.387 . S
C2529 H2532 0.950 . S
C2530 C2529 1.387 . S
C2530 C2533 1.387 . S
H2531 C2527 0.950 . S
H2532 C2529 0.950 . S
C2533 C2524 1.390 . S
C2533 H2526 0.950 . S
C2533 C2530 1.387 . S
C2534 C2535 1.387 . S
C2534 H2538 0.950 . S
C2534 C2543 1.390 . S
C2535 C2534 1.387 . S
C2535 C2537 1.387 . S
H2536 C2543 0.950 . S
C2537 C2535 1.387 . S
C2537 C2539 1.390 . S
C2537 H2541 0.950 . S
H2538 C2534 0.950 . S
C2539 C2537 1.390 . S
C2539 C2540 1.387 . S
C2539 H2542 0.950 . S
C2540 C2539 1.387 . S
C2540 C2543 1.387 . S
H2541 C2537 0.950 . S
H2542 C2539 0.950 . S
C2543 C2534 1.390 . S
C2543 H2536 0.950 . S
C2543 C2540 1.387 . S
C2544 C2545 1.387 . S
C2544 H2548 0.950 . S
C2544 C2553 1.390 . S
C2545 C2544 1.387 . S
C2545 C2547 1.387 . S
H2546 C2553 0.950 . S
C2547 C2545 1.387 . S
C2547 C2549 1.390 . S
C2547 H2551 0.950 . S
H2548 C2544 0.950 . S
C2549 C2547 1.390 . S
C2549 C2550 1.387 . S
C2549 H2552 0.950 . S
C2550 C2549 1.387 . S
C2550 C2553 1.387 . S
H2551 C2547 0.950 . S
H2552 C2549 0.950 . S
C2553 C2544 1.390 . S
C2553 H2546 0.950 . S
C2553 C2550 1.387 . S
C2554 C2555 1.387 . S
C2554 H2558 0.950 . S
C2554 C2563 1.390 . S
C2555 C2554 1.387 . S
C2555 C2557 1.387 . S
H2556 C2563 0.950 . S
C2557 C2555 1.387 . S
C2557 C2559 1.390 . S
C2557 H2561 0.950 . S
H2558 C2554 0.950 . S
C2559 C2557 1.390 . S
C2559 C2560 1.387 . S
C2559 H2562 0.950 . S
C2560 C2559 1.387 . S
C2560 C2563 1.387 . S
H2561 C2557 0.950 . S
H2562 C2559 0.950 . S
C2563 C2554 1.390 . S
C2563 H2556 0.950 . S
C2563 C2560 1.387 . S
C2564 C2565 1.387 . S
C2564 H2568 0.950 . S
C2564 C2573 1.390 . S
C2565 C2564 1.387 . S
C2565 C2567 1.387 . S
H2566 C2573 0.950 . S
C2567 C2565 1.387 . S
C2567 C2569 1.390 . S
C2567 H2571 0.950 . S
H2568 C2564 0.950 . S
C2569 C2567 1.390 . S
C2569 C2570 1.387 . S
C2569 H2572 0.950 . S
C2570 C2569 1.387 . S
C2570 C2573 1.387 . S
H2571 C2567 0.950 . S
H2572 C2569 0.950 . S
C2573 C2564 1.390 . S
C2573 H2566 0.950 . S
C2573 C2570 1.387 . S
C2574 C2575 1.387 . S
C2574 H2578 0.950 . S
C2574 C2583 1.390 . S
C2575 C2574 1.387 . S
C2575 C2577 1.387 . S
H2576 C2583 0.950 . S
C2577 C2575 1.387 . S
C2577 C2579 1.390 . S
C2577 H2581 0.950 . S
H2578 C2574 0.950 . S
C2579 C2577 1.390 . S
C2579 C2580 1.387 . S
C2579 H2582 0.950 . S
C2580 C2579 1.387 . S
C2580 C2583 1.387 . S
H2581 C2577 0.950 . S
H2582 C2579 0.950 . S
C2583 C2574 1.390 . S
C2583 H2576 0.950 . S
C2583 C2580 1.387 . S
C2584 C2585 1.387 . S
C2584 H2588 0.950 . S
C2584 C2593 1.390 . S
C2585 C2584 1.387 . S
C2585 C2587 1.387 . S
H2586 C2593 0.950 . S
C2587 C2585 1.387 . S
C2587 C2589 1.390 . S
C2587 H2591 0.950 . S
H2588 C2584 0.950 . S
C2589 C2587 1.390 . S
C2589 C2590 1.387 . S
C2589 H2592 0.950 . S
C2590 C2589 1.387 . S
C2590 C2593 1.387 . S
H2591 C2587 0.950 . S
H2592 C2589 0.950 . S
C2593 C2584 1.390 . S
C2593 H2586 0.950 . S
C2593 C2590 1.387 . S
C2594 C2595 1.387 . S
C2594 H2598 0.950 . S
C2594 C2603 1.390 . S
C2595 C2594 1.387 . S
C2595 C2597 1.387 . S
H2596 C2603 0.950 . S
C2597 C2595 1.387 . S
C2597 C2599 1.390 . S
C2597 H2601 0.950 . S
H2598 C2594 0.950 . S
C2599 C2597 1.390 . S
C2599 C2600 1.387 . S
C2599 H2602 0.950 . S
C2600 C2599 1.387 . S
C2600 C2603 1.387 . S
H2601 C2597 0.950 . S
H2602 C2599 0.950 . S
C2603 C2594 1.390 . S
C2603 H2596 0.950 . S
C2603 C2600 1.387 . S
C2604 C2605 1.387 . S
C2604 H2608 0.950 . S
C2604 C2613 1.390 . S
C2605 C2604 1.387 . S
C2605 C2607 1.387 . S
H2606 C2613 0.950 . S
C2607 C2605 1.387 . S
C2607 C2609 1.390 . S
C2607 H2611 0.950 . S
H2608 C2604 0.950 . S
C2609 C2607 1.390 . S
C2609 C2610 1.387 . S
C2609 H2612 0.950 . S
C2610 C2609 1.387 . S
C2610 C2613 1.387 . S
H2611 C2607 0.950 . S
H2612 C2609 0.950 . S
C2613 C2604 1.390 . S
C2613 H2606 0.950 . S
C2613 C2610 1.387 . S
C2614 C2615 1.387 . S
C2614 H2618 0.950 . S
C2614 C2623 1.390 . S
C2615 C2614 1.387 . S
C2615 C2617 1.387 . S
H2616 C2623 0.950 . S
C2617 C2615 1.387 . S
C2617 C2619 1.390 . S
C2617 H2621 0.950 . S
H2618 C2614 0.950 . S
C2619 C2617 1.390 . S
C2619 C2620 1.387 . S
C2619 H2622 0.950 . S
C2620 C2619 1.387 . S
C2620 C2623 1.387 . S
H2621 C2617 0.950 . S
H2622 C2619 0.950 . S
C2623 C2614 1.390 . S
C2623 H2616 0.950 . S
C2623 C2620 1.387 . S
C2624 C2625 1.387 . S
C2624 H2628 0.950 . S
C2624 C2633 1.390 . S
C2625 C2624 1.387 . S
C2625 C2627 1.387 . S
H2626 C2633 0.950 . S
C2627 C2625 1.387 . S
C2627 C2629 1.390 . S
C2627 H2631 0.950 . S
H2628 C2624 0.950 . S
C2629 C2627 1.390 . S
C2629 C2630 1.387 . S
C2629 H2632 0.950 . S
C2630 C2629 1.387 . S
C2630 C2633 1.387 . S
H2631 C2627 0.950 . S
H2632 C2629 0.950 . S
C2633 C2624 1.390 . S
C2633 H2626 0.950 . S
C2633 C2630 1.387 . S
C2634 C2635 1.387 . S
C2634 H2638 0.950 . S
C2634 C2643 1.390 . S
C2635 C2634 1.387 . S
C2635 C2637 1.387 . S
H2636 C2643 0.950 . S
C2637 C2635 1.387 . S
C2637 C2639 1.390 . S
C2637 H2641 0.950 . S
H2638 C2634 0.950 . S
C2639 C2637 1.390 . S
C2639 C2640 1.387 . S
C2639 H2642 0.950 . S
C2640 C2639 1.387 . S
C2640 C2643 1.387 . S
H2641 C2637 0.950 . S
H2642 C2639 0.950 . S
C2643 C2634 1.390 . S
C2643 H2636 0.950 . S
C2643 C2640 1.387 . S
C2644 C2645 1.387 . S
C2644 H2648 0.950 . S
C2644 C2653 1.390 . S
C2645 C2644 1.387 . S
C2645 C2647 1.387 . S
H2646 C2653 0.950 . S
C2647 C2645 1.387 . S
C2647 C2649 1.390 . S
C2647 H2651 0.950 . S
H2648 C2644 0.950 . S
C2649 C2647 1.390 . S
C2649 C2650 1.387 . S
C2649 H2652 0.950 . S
C2650 C2649 1.387 . S
C2650 C2653 1.387 . S
H2651 C2647 0.950 . S
H2652 C2649 0.950 . S
C2653 C2644 1.390 . S
C2653 H2646 0.950 . S
C2653 C2650 1.387 . S
C2654 C2655 1.387 . S
C2654 H2658 0.950 . S
C2654 C2663 1.390 . S
C2655 C2654 1.387 . S
C2655 C2657 1.387 . S
H2656 C2663 0.950 . S
C2657 C2655 1.387 . S
C2657 C2659 1.390 . S
C2657 H2661 0.950 . S
H2658 C2654 0.950 . S
C2659 C2657 1.390 . S
C2659 C2660 1.387 . S
C2659 H2662 0.950 . S
C2660 C2659 1.387 . S
C2660 C2663 1.387 . S
H2661 C2657 0.950 . S
H2662 C2659 0.950 . S
C2663 C2654 1.390 . S
C2663 H2656 0.950 . S
C2663 C2660 1.387 . S
C2664 C2665 1.387 . S
C2664 H2668 0.950 . S
C2664 C2673 1.390 . S
C2665 C2664 1.387 . S
C2665 C2667 1.387 . S
H2666 C2673 0.950 . S
C2667 C2665 1.387 . S
C2667 C2669 1.390 . S
C2667 H2671 0.950 . S
H2668 C2664 0.950 . S
C2669 C2667 1.390 . S
C2669 C2670 1.387 . S
C2669 H2672 0.950 . S
C2670 C2669 1.387 . S
C2670 C2673 1.387 . S
H2671 C2667 0.950 . S
H2672 C2669 0.950 . S
C2673 C2664 1.390 . S
C2673 H2666 0.950 . S
C2673 C2670 1.387 . S
C2674 C2675 1.387 . S
C2674 H2678 0.950 . S
C2674 C2683 1.390 . S
C2675 C2674 1.387 . S
C2675 C2677 1.387 . S
H2676 C2683 0.950 . S
C2677 C2675 1.387 . S
C2677 C2679 1.390 . S
C2677 H2681 0.950 . S
H2678 C2674 0.950 . S
C2679 C2677 1.390 . S
C2679 C2680 1.387 . S
C2679 H2682 0.950 . S
C2680 C2679 1.387 . S
C2680 C2683 1.387 . S
H2681 C2677 0.950 . S
H2682 C2679 0.950 . S
C2683 C2674 1.390 . S
C2683 H2676 0.950 . S
C2683 C2680 1.387 . S
C2684 C2685 1.387 . S
C2684 H2688 0.950 . S
C2684 C2693 1.390 . S
C2685 C2684 1.387 . S
C2685 C2687 1.387 . S
H2686 C2693 0.950 . S
C2687 C2685 1.387 . S
C2687 C2689 1.390 . S
C2687 H2691 0.950 . S
H2688 C2684 0.950 . S
C2689 C2687 1.390 . S
C2689 C2690 1.387 . S
C2689 H2692 0.950 . S
C2690 C2689 1.387 . S
C2690 C2693 1.387 . S
H2691 C2687 0.950 . S
H2692 C2689 0.950 . S
C2693 C2684 1.390 . S
C2693 H2686 0.950 . S
C2693 C2690 1.387 . S
C2694 C2695 1.387 . S
C2694 H2698 0.950 . S
C2694 C2703 1.390 . S
C2695 C2694 1.387 . S
C2695 C2697 1.387 . S
H2696 C2703 0.950 . S
C2697 C2695 1.387 . S
C2697 C2699 1.390 . S
C2697 H2701 0.950 . S
H2698 C2694 0.950 . S
C2699 C2697 1.390 . S
C2699 C2700 1.387 . S
C2699 H2702 0.950 . S
C2700 C2699 1.387 . S
C2700 C2703 1.387 . S
H2701 C2697 0.950 . S
H2702 C2699 0.950 . S
C2703 C2694 1.390 . S
C2703 H2696 0.950 . S
C2703 C2700 1.387 . S
C2704 C2705 1.387 . S
C2704 H2708 0.950 . S
C2704 C2713 1.390 . S
C2705 C2704 1.387 . S
C2705 C2707 1.387 . S
H2706 C2713 0.950 . S
C2707 C2705 1.387 . S
C2707 C2709 1.390 . S
C2707 H2711 0.950 . S
H2708 C2704 0.950 . S
C2709 C2707 1.390 . S
C2709 C2710 1.387 . S
C2709 H2712 0.950 . S
C2710 C2709 1.387 . S
C2710 C2713 1.387 . S
H2711 C2707 0.950 . S
H2712 C2709 0.950 . S
C2713 C2704 1.390 . S
C2713 H2706 0.950 . S
C2713 C2710 1.387 . S
C2714 C2715 1.387 . S
C2714 H2718 0.950 . S
C2714 C2723 1.390 . S
C2715 C2714 1.387 . S
C2715 C2717 1.387 . S
H2716 C2723 0.950 . S
C2717 C2715 1.387 . S
C2717 C2719 1.390 . S
C2717 H2721 0.950 . S
H2718 C2714 0.950 . S
C2719 C2717 1.390 . S
C2719 C2720 1.387 . S
C2719 H2722 0.950 . S
C2720 C2719 1.387 . S
C2720 C2723 1.387 . S
H2721 C2717 0.950 . S
H2722 C2719 0.950 . S
C2723 C2714 1.390 . S
C2723 H2716 0.950 . S
C2723 C2720 1.387 . S
C2724 C2725 1.387 . S
C2724 H2728 0.950 . S
C2724 C2733 1.390 . S
C2725 C2724 1.387 . S
C2725 C2727 1.387 . S
H2726 C2733 0.950 . S
C2727 C2725 1.387 . S
C2727 C2729 1.390 . S
C2727 H2731 0.950 . S
H2728 C2724 0.950 . S
C2729 C2727 1.390 . S
C2729 C2730 1.387 . S
C2729 H2732 0.950 . S
C2730 C2729 1.387 . S
C2730 C2733 1.387 . S
H2731 C2727 0.950 . S
H2732 C2729 0.950 . S
C2733 C2724 1.390 . S
C2733 H2726 0.950 . S
C2733 C2730 1.387 . S
C2734 C2735 1.387 . S
C2734 H2738 0.950 . S
C2734 C2743 1.390 . S
C2735 C2734 1.387 . S
C2735 C2737 1.387 . S
H2736 C2743 0.950 . S
C2737 C2735 1.387 . S
C2737 C2739 1.390 . S
C2737 H2741 0.950 . S
H2738 C2734 0.950 . S
C2739 C2737 1.390 . S
C2739 C2740 1.387 . S
C2739 H2742 0.950 . S
C2740 C2739 1.387 . S
C2740 C2743 1.387 . S
H2741 C2737 0.950 . S
H2742 C2739 0.950 . S
C2743 C2734 1.390 . S
C2743 H2736 0.950 . S
C2743 C2740 1.387 . S
C2744 C2745 1.387 . S
C2744 H2748 0.950 . S
C2744 C2753 1.390 . S
C2745 C2744 1.387 . S
C2745 C2747 1.387 . S
H2746 C2753 0.950 . S
C2747 C2745 1.387 . S
C2747 C2749 1.390 . S
C2747 H2751 0.950 . S
H2748 C2744 0.950 . S
C2749 C2747 1.390 . S
C2749 C2750 1.387 . S
C2749 H2752 0.950 . S
C2750 C2749 1.387 . S
C2750 C2753 1.387 . S
H2751 C2747 0.950 . S
H2752 C2749 0.950 . S
C2753 C2744 1.390 . S
C2753 H2746 0.950 . S
C2753 C2750 1.387 . S
C2754 C2755 1.387 . S
C2754 H2758 0.950 . S
C2754 C2763 1.390 . S
C2755 C2754 1.387 . S
C2755 C2757 1.387 . S
H2756 C2763 0.950 . S
C2757 C2755 1.387 . S
C2757 C2759 1.390 . S
C2757 H2761 0.950 . S
H2758 C2754 0.950 . S
C2759 C2757 1.390 . S
C2759 C2760 1.387 . S
C2759 H2762 0.950 . S
C2760 C2759 1.387 . S
C2760 C2763 1.387 . S
H2761 C2757 0.950 . S
H2762 C2759 0.950 . S
C2763 C2754 1.390 . S
C2763 H2756 0.950 . S
C2763 C2760 1.387 . S
C2764 C2765 1.387 . S
C2764 H2768 0.950 . S
C2764 C2773 1.390 . S
C2765 C2764 1.387 . S
C2765 C2767 1.387 . S
H2766 C2773 0.950 . S
C2767 C2765 1.387 . S
C2767 C2769 1.390 . S
C2767 H2771 0.950 . S
H2768 C2764 0.950 . S
C2769 C2767 1.390 . S
C2769 C2770 1.387 . S
C2769 H2772 0.950 . S
C2770 C2769 1.387 . S
C2770 C2773 1.387 . S
H2771 C2767 0.950 . S
H2772 C2769 0.950 . S
C2773 C2764 1.390 . S
C2773 H2766 0.950 . S
C2773 C2770 1.387 . S
C2774 C2775 1.387 . S
C2774 H2778 0.950 . S
C2774 C2783 1.390 . S
C2775 C2774 1.387 . S
C2775 C2777 1.387 . S
H2776 C2783 0.950 . S
C2777 C2775 1.387 . S
C2777 C2779 1.390 . S
C2777 H2781 0.950 . S
H2778 C2774 0.950 . S
C2779 C2777 1.390 . S
C2779 C2780 1.387 . S
C2779 H2782 0.950 . S
C2780 C2779 1.387 . S
C2780 C2783 1.387 . S
H2781 C2777 0.950 . S
H2782 C2779 0.950 . S
C2783 C2774 1.390 . S
C2783 H2776 0.950 . S
C2783 C2780 1.387 . S
C2784 C2785 1.387 . S
C2784 H2788 0.950 . S
C2784 C2793 1.390 1_655 S
C2785 C2784 1.387 . S
C2785 C2787 1.387 . S
H2786 C2793 0.950 . S
C2787 C2785 1.387 . S
C2787 C2789 1.390 1_655 S
C2787 H2791 0.950 . S
H2788 C2784 0.950 . S
C2789 C2787 1.390 1_455 S
C2789 C2790 1.387 . S
C2789 H2792 0.950 . S
C2790 C2789 1.387 . S
C2790 C2793 1.387 . S
H2791 C2787 0.950 . S
H2792 C2789 0.950 . S
C2793 C2784 1.390 1_455 S
C2793 H2786 0.950 . S
C2793 C2790 1.387 . S
C2794 C2795 1.387 . S
C2794 H2798 0.950 . S
C2794 C2803 1.390 1_545 S
C2795 C2794 1.387 . S
C2795 C2797 1.387 . S
H2796 C2803 0.950 . S
C2797 C2795 1.387 . S
C2797 C2799 1.390 1_545 S
C2797 H2801 0.950 . S
H2798 C2794 0.950 . S
C2799 C2797 1.390 1_565 S
C2799 C2800 1.387 . S
C2799 H2802 0.950 . S
C2800 C2799 1.387 . S
C2800 C2803 1.387 . S
H2801 C2797 0.950 . S
H2802 C2799 0.950 . S
C2803 C2794 1.390 1_565 S
C2803 H2796 0.950 . S
C2803 C2800 1.387 . S
C2804 C2805 1.387 . S
C2804 H2808 0.950 . S
C2804 C2813 1.390 1_455 S
C2805 C2804 1.387 . S
C2805 C2807 1.387 . S
H2806 C2813 0.950 . S
C2807 C2805 1.387 . S
C2807 C2809 1.390 1_455 S
C2807 H2811 0.950 . S
H2808 C2804 0.950 . S
C2809 C2807 1.390 1_655 S
C2809 C2810 1.387 . S
C2809 H2812 0.950 . S
C2810 C2809 1.387 . S
C2810 C2813 1.387 . S
H2811 C2807 0.950 . S
H2812 C2809 0.950 . S
C2813 C2804 1.390 1_655 S
C2813 H2806 0.950 . S
C2813 C2810 1.387 . S
C2814 C2815 1.387 . S
C2814 H2818 0.950 . S
C2814 C2823 1.390 1_565 S
C2815 C2814 1.387 . S
C2815 C2817 1.387 . S
H2816 C2823 0.950 . S
C2817 C2815 1.387 . S
C2817 C2819 1.390 1_565 S
C2817 H2821 0.950 . S
H2818 C2814 0.950 . S
C2819 C2817 1.390 1_545 S
C2819 C2820 1.387 . S
C2819 H2822 0.950 . S
C2820 C2819 1.387 . S
C2820 C2823 1.387 . S
H2821 C2817 0.950 . S
H2822 C2819 0.950 . S
C2823 C2814 1.390 1_545 S
C2823 H2816 0.950 . S
C2823 C2820 1.387 . S
C2824 C2825 1.387 . S
C2824 H2828 0.950 . S
C2824 C2833 1.390 1_655 S
C2825 C2824 1.387 . S
C2825 C2827 1.387 . S
H2826 C2833 0.950 . S
C2827 C2825 1.387 . S
C2827 C2829 1.390 1_655 S
C2827 H2831 0.950 . S
H2828 C2824 0.950 . S
C2829 C2827 1.390 1_455 S
C2829 C2830 1.387 . S
C2829 H2832 0.950 . S
C2830 C2829 1.387 . S
C2830 C2833 1.387 . S
H2831 C2827 0.950 . S
H2832 C2829 0.950 . S
C2833 C2824 1.390 1_455 S
C2833 H2826 0.950 . S
C2833 C2830 1.387 . S
C2834 C2835 1.387 . S
C2834 H2838 0.950 . S
C2834 C2843 1.390 1_565 S
C2835 C2834 1.387 . S
C2835 C2837 1.387 . S
H2836 C2843 0.950 . S
C2837 C2835 1.387 . S
C2837 C2839 1.390 1_565 S
C2837 H2841 0.950 . S
H2838 C2834 0.950 . S
C2839 C2837 1.390 1_545 S
C2839 C2840 1.387 . S
C2839 H2842 0.950 . S
C2840 C2839 1.387 . S
C2840 C2843 1.387 . S
H2841 C2837 0.950 . S
H2842 C2839 0.950 . S
C2843 C2834 1.390 1_545 S
C2843 H2836 0.950 . S
C2843 C2840 1.387 . S
C2844 C2845 1.387 . S
C2844 H2848 0.950 . S
C2844 C2853 1.390 1_655 S
C2845 C2844 1.387 . S
C2845 C2847 1.387 . S
H2846 C2853 0.950 . S
C2847 C2845 1.387 . S
C2847 C2849 1.390 1_655 S
C2847 H2851 0.950 . S
H2848 C2844 0.950 . S
C2849 C2847 1.390 1_455 S
C2849 C2850 1.387 . S
C2849 H2852 0.950 . S
C2850 C2849 1.387 . S
C2850 C2853 1.387 . S
H2851 C2847 0.950 . S
H2852 C2849 0.950 . S
C2853 C2844 1.390 1_455 S
C2853 H2846 0.950 . S
C2853 C2850 1.387 . S
C2854 C2855 1.387 . S
C2854 H2858 0.950 . S
C2854 C2863 1.390 1_565 S
C2855 C2854 1.387 . S
C2855 C2857 1.387 . S
H2856 C2863 0.950 . S
C2857 C2855 1.387 . S
C2857 C2859 1.390 1_565 S
C2857 H2861 0.950 . S
H2858 C2854 0.950 . S
C2859 C2857 1.390 1_545 S
C2859 C2860 1.387 . S
C2859 H2862 0.950 . S
C2860 C2859 1.387 . S
C2860 C2863 1.387 . S
H2861 C2857 0.950 . S
H2862 C2859 0.950 . S
C2863 C2854 1.390 1_545 S
C2863 H2856 0.950 . S
C2863 C2860 1.387 . S
C2864 C2865 1.387 . S
C2864 H2868 0.950 . S
C2864 C2873 1.390 1_565 S
C2865 C2864 1.387 . S
C2865 C2867 1.387 . S
H2866 C2873 0.950 . S
C2867 C2865 1.387 . S
C2867 C2869 1.390 1_565 S
C2867 H2871 0.950 . S
H2868 C2864 0.950 . S
C2869 C2867 1.390 1_545 S
C2869 C2870 1.387 . S
C2869 H2872 0.950 . S
C2870 C2869 1.387 . S
C2870 C2873 1.387 . S
H2871 C2867 0.950 . S
H2872 C2869 0.950 . S
C2873 C2864 1.390 1_545 S
C2873 H2866 0.950 . S
C2873 C2870 1.387 . S
C2874 C2875 1.387 . S
C2874 H2878 0.950 . S
C2874 C2883 1.390 1_655 S
C2875 C2874 1.387 . S
C2875 C2877 1.387 . S
H2876 C2883 0.950 . S
C2877 C2875 1.387 . S
C2877 C2879 1.390 1_655 S
C2877 H2881 0.950 . S
H2878 C2874 0.950 . S
C2879 C2877 1.390 1_455 S
C2879 C2880 1.387 . S
C2879 H2882 0.950 . S
C2880 C2879 1.387 . S
C2880 C2883 1.387 . S
H2881 C2877 0.950 . S
H2882 C2879 0.950 . S
C2883 C2874 1.390 1_455 S
C2883 H2876 0.950 . S
C2883 C2880 1.387 . S
C2884 C2885 1.387 . S
C2884 H2888 0.950 . S
C2884 C2893 1.390 1_565 S
C2885 C2884 1.387 . S
C2885 C2887 1.387 . S
H2886 C2893 0.950 . S
C2887 C2885 1.387 . S
C2887 C2889 1.390 1_565 S
C2887 H2891 0.950 . S
H2888 C2884 0.950 . S
C2889 C2887 1.390 1_545 S
C2889 C2890 1.387 . S
C2889 H2892 0.950 . S
C2890 C2889 1.387 . S
C2890 C2893 1.387 . S
H2891 C2887 0.950 . S
H2892 C2889 0.950 . S
C2893 C2884 1.390 1_545 S
C2893 H2886 0.950 . S
C2893 C2890 1.387 . S
C2894 C2895 1.387 . S
C2894 H2898 0.950 . S
C2894 C2903 1.390 1_655 S
C2895 C2894 1.387 . S
C2895 C2897 1.387 . S
H2896 C2903 0.950 . S
C2897 C2895 1.387 . S
C2897 C2899 1.390 1_655 S
C2897 H2901 0.950 . S
H2898 C2894 0.950 . S
C2899 C2897 1.390 1_455 S
C2899 C2900 1.387 . S
C2899 H2902 0.950 . S
C2900 C2899 1.387 . S
C2900 C2903 1.387 . S
H2901 C2897 0.950 . S
H2902 C2899 0.950 . S
C2903 C2894 1.390 1_455 S
C2903 H2896 0.950 . S
C2903 C2900 1.387 . S
C2904 C2905 1.387 . S
C2904 H2908 0.950 . S
C2904 C2913 1.390 1_565 S
C2905 C2904 1.387 . S
C2905 C2907 1.387 . S
H2906 C2913 0.950 . S
C2907 C2905 1.387 . S
C2907 C2909 1.390 1_565 S
C2907 H2911 0.950 . S
H2908 C2904 0.950 . S
C2909 C2907 1.390 1_545 S
C2909 C2910 1.387 . S
C2909 H2912 0.950 . S
C2910 C2909 1.387 . S
C2910 C2913 1.387 . S
H2911 C2907 0.950 . S
H2912 C2909 0.950 . S
C2913 C2904 1.390 1_545 S
C2913 H2906 0.950 . S
C2913 C2910 1.387 . S
C2914 C2915 1.387 . S
C2914 H2918 0.950 . S
C2914 C2923 1.390 1_655 S
C2915 C2914 1.387 . S
C2915 C2917 1.387 . S
H2916 C2923 0.950 . S
C2917 C2915 1.387 . S
C2917 C2919 1.390 1_655 S
C2917 H2921 0.950 . S
H2918 C2914 0.950 . S
C2919 C2917 1.390 1_455 S
C2919 C2920 1.387 . S
C2919 H2922 0.950 . S
C2920 C2919 1.387 . S
C2920 C2923 1.387 . S
H2921 C2917 0.950 . S
H2922 C2919 0.950 . S
C2923 C2914 1.390 1_455 S
C2923 H2916 0.950 . S
C2923 C2920 1.387 . S
C2924 C2925 1.387 . S
C2924 H2928 0.950 . S
C2924 C2933 1.390 1_565 S
C2925 C2924 1.387 . S
C2925 C2927 1.387 . S
H2926 C2933 0.950 . S
C2927 C2925 1.387 . S
C2927 C2929 1.390 1_565 S
C2927 H2931 0.950 . S
H2928 C2924 0.950 . S
C2929 C2927 1.390 1_545 S
C2929 C2930 1.387 . S
C2929 H2932 0.950 . S
C2930 C2929 1.387 . S
C2930 C2933 1.387 . S
H2931 C2927 0.950 . S
H2932 C2929 0.950 . S
C2933 C2924 1.390 1_545 S
C2933 H2926 0.950 . S
C2933 C2930 1.387 . S
C2934 C2935 1.387 . S
C2934 H2938 0.950 . S
C2934 C2943 1.390 1_455 S
C2935 C2934 1.387 . S
C2935 C2937 1.387 . S
H2936 C2943 0.950 . S
C2937 C2935 1.387 . S
C2937 C2939 1.390 1_455 S
C2937 H2941 0.950 . S
H2938 C2934 0.950 . S
C2939 C2937 1.390 1_655 S
C2939 C2940 1.387 . S
C2939 H2942 0.950 . S
C2940 C2939 1.387 . S
C2940 C2943 1.387 . S
H2941 C2937 0.950 . S
H2942 C2939 0.950 . S
C2943 C2934 1.390 1_655 S
C2943 H2936 0.950 . S
C2943 C2940 1.387 . S
C2944 C2945 1.387 . S
C2944 H2948 0.950 . S
C2944 C2953 1.390 1_554 S
C2945 C2944 1.387 . S
C2945 C2947 1.387 . S
H2946 C2953 0.950 . S
C2947 C2945 1.387 . S
C2947 C2949 1.390 1_554 S
C2947 H2951 0.950 . S
H2948 C2944 0.950 . S
C2949 C2947 1.390 1_556 S
C2949 C2950 1.387 . S
C2949 H2952 0.950 . S
C2950 C2949 1.387 . S
C2950 C2953 1.387 . S
H2951 C2947 0.950 . S
H2952 C2949 0.950 . S
C2953 C2944 1.390 1_556 S
C2953 H2946 0.950 . S
C2953 C2950 1.387 . S
C2954 C2955 1.387 . S
C2954 H2958 0.950 . S
C2954 C2963 1.390 1_554 S
C2955 C2954 1.387 . S
C2955 C2957 1.387 . S
H2956 C2963 0.950 . S
C2957 C2955 1.387 . S
C2957 C2959 1.390 1_554 S
C2957 H2961 0.950 . S
H2958 C2954 0.950 . S
C2959 C2957 1.390 1_556 S
C2959 C2960 1.387 . S
C2959 H2962 0.950 . S
C2960 C2959 1.387 . S
C2960 C2963 1.387 . S
H2961 C2957 0.950 . S
H2962 C2959 0.950 . S
C2963 C2954 1.390 1_556 S
C2963 H2956 0.950 . S
C2963 C2960 1.387 . S
C2964 C2965 1.387 . S
C2964 H2968 0.950 . S
C2964 C2973 1.390 1_554 S
C2965 C2964 1.387 . S
C2965 C2967 1.387 . S
H2966 C2973 0.950 . S
C2967 C2965 1.387 . S
C2967 C2969 1.390 1_554 S
C2967 H2971 0.950 . S
H2968 C2964 0.950 . S
C2969 C2967 1.390 1_556 S
C2969 C2970 1.387 . S
C2969 H2972 0.950 . S
C2970 C2969 1.387 . S
C2970 C2973 1.387 . S
H2971 C2967 0.950 . S
H2972 C2969 0.950 . S
C2973 C2964 1.390 1_556 S
C2973 H2966 0.950 . S
C2973 C2970 1.387 . S
C2974 C2975 1.387 . S
C2974 H2978 0.950 . S
C2974 C2983 1.390 1_554 S
C2975 C2974 1.387 . S
C2975 C2977 1.387 . S
H2976 C2983 0.950 . S
C2977 C2975 1.387 . S
C2977 C2979 1.390 1_554 S
C2977 H2981 0.950 . S
H2978 C2974 0.950 . S
C2979 C2977 1.390 1_556 S
C2979 C2980 1.387 . S
C2979 H2982 0.950 . S
C2980 C2979 1.387 . S
C2980 C2983 1.387 . S
H2981 C2977 0.950 . S
H2982 C2979 0.950 . S
C2983 C2974 1.390 1_556 S
C2983 H2976 0.950 . S
C2983 C2980 1.387 . S
C2984 C2985 1.387 . S
C2984 H2988 0.950 . S
C2984 C2993 1.390 1_556 S
C2985 C2984 1.387 . S
C2985 C2987 1.387 . S
H2986 C2993 0.950 . S
C2987 C2985 1.387 . S
C2987 C2989 1.390 1_556 S
C2987 H2991 0.950 . S
H2988 C2984 0.950 . S
C2989 C2987 1.390 1_554 S
C2989 C2990 1.387 . S
C2989 H2992 0.950 . S
C2990 C2989 1.387 . S
C2990 C2993 1.387 . S
H2991 C2987 0.950 . S
H2992 C2989 0.950 . S
C2993 C2984 1.390 1_554 S
C2993 H2986 0.950 . S
C2993 C2990 1.387 . S
C2994 C2995 1.387 . S
C2994 H2998 0.950 . S
C2994 C3003 1.390 1_554 S
C2995 C2994 1.387 . S
C2995 C2997 1.387 . S
H2996 C3003 0.950 . S
C2997 C2995 1.387 . S
C2997 C2999 1.390 1_554 S
C2997 H3001 0.950 . S
H2998 C2994 0.950 . S
C2999 C2997 1.390 1_556 S
C2999 C3000 1.387 . S
C2999 H3002 0.950 . S
C3000 C2999 1.387 . S
C3000 C3003 1.387 . S
H3001 C2997 0.950 . S
H3002 C2999 0.950 . S
C3003 C2994 1.390 1_556 S
C3003 H2996 0.950 . S
C3003 C3000 1.387 . S
C3004 C3005 1.387 . S
C3004 H3008 0.950 . S
C3004 C3013 1.390 1_556 S
C3005 C3004 1.387 . S
C3005 C3007 1.387 . S
H3006 C3013 0.950 . S
C3007 C3005 1.387 . S
C3007 C3009 1.390 1_556 S
C3007 H3011 0.950 . S
H3008 C3004 0.950 . S
C3009 C3007 1.390 1_554 S
C3009 C3010 1.387 . S
C3009 H3012 0.950 . S
C3010 C3009 1.387 . S
C3010 C3013 1.387 . S
H3011 C3007 0.950 . S
H3012 C3009 0.950 . S
C3013 C3004 1.390 1_554 S
C3013 H3006 0.950 . S
C3013 C3010 1.387 . S
C3014 C3015 1.387 . S
C3014 H3018 0.950 . S
C3014 C3023 1.390 1_554 S
C3015 C3014 1.387 . S
C3015 C3017 1.387 . S
H3016 C3023 0.950 . S
C3017 C3015 1.387 . S
C3017 C3019 1.390 1_554 S
C3017 H3021 0.950 . S
H3018 C3014 0.950 . S
C3019 C3017 1.390 1_556 S
C3019 C3020 1.387 . S
C3019 H3022 0.950 . S
C3020 C3019 1.387 . S
C3020 C3023 1.387 . S
H3021 C3017 0.950 . S
H3022 C3019 0.950 . S
C3023 C3014 1.390 1_556 S
C3023 H3016 0.950 . S
C3023 C3020 1.387 . S
C3024 C3025 1.387 . S
C3024 H3028 0.950 . S
C3024 C3033 1.390 . S
C3025 C3024 1.387 . S
C3025 C3027 1.387 . S
H3026 C3033 0.950 . S
C3027 C3025 1.387 . S
C3027 C3029 1.390 . S
C3027 H3031 0.950 . S
H3028 C3024 0.950 . S
C3029 C3027 1.390 . S
C3029 C3030 1.387 . S
C3029 H3032 0.950 . S
C3030 C3029 1.387 . S
C3030 C3033 1.387 . S
H3031 C3027 0.950 . S
H3032 C3029 0.950 . S
C3033 C3024 1.390 . S
C3033 H3026 0.950 . S
C3033 C3030 1.387 . S
C3034 C3035 1.387 . S
C3034 H3038 0.950 . S
C3034 C3043 1.390 . S
C3035 C3034 1.387 . S
C3035 C3037 1.387 . S
H3036 C3043 0.950 . S
C3037 C3035 1.387 . S
C3037 C3039 1.390 . S
C3037 H3041 0.950 . S
H3038 C3034 0.950 . S
C3039 C3037 1.390 . S
C3039 C3040 1.387 . S
C3039 H3042 0.950 . S
C3040 C3039 1.387 . S
C3040 C3043 1.387 . S
H3041 C3037 0.950 . S
H3042 C3039 0.950 . S
C3043 C3034 1.390 . S
C3043 H3036 0.950 . S
C3043 C3040 1.387 . S
C3044 C3045 1.387 . S
C3044 H3048 0.950 . S
C3044 C3053 1.390 . S
C3045 C3044 1.387 . S
C3045 C3047 1.387 . S
H3046 C3053 0.950 . S
C3047 C3045 1.387 . S
C3047 C3049 1.390 . S
C3047 H3051 0.950 . S
H3048 C3044 0.950 . S
C3049 C3047 1.390 . S
C3049 C3050 1.387 . S
C3049 H3052 0.950 . S
C3050 C3049 1.387 . S
C3050 C3053 1.387 . S
H3051 C3047 0.950 . S
H3052 C3049 0.950 . S
C3053 C3044 1.390 . S
C3053 H3046 0.950 . S
C3053 C3050 1.387 . S
C3054 C3055 1.387 . S
C3054 H3058 0.950 . S
C3054 C3063 1.390 . S
C3055 C3054 1.387 . S
C3055 C3057 1.387 . S
H3056 C3063 0.950 . S
C3057 C3055 1.387 . S
C3057 C3059 1.390 . S
C3057 H3061 0.950 . S
H3058 C3054 0.950 . S
C3059 C3057 1.390 . S
C3059 C3060 1.387 . S
C3059 H3062 0.950 . S
C3060 C3059 1.387 . S
C3060 C3063 1.387 . S
H3061 C3057 0.950 . S
H3062 C3059 0.950 . S
C3063 C3054 1.390 . S
C3063 H3056 0.950 . S
C3063 C3060 1.387 . S
C3064 C3065 1.387 . S
C3064 H3068 0.950 . S
C3064 C3073 1.390 . S
C3065 C3064 1.387 . S
C3065 C3067 1.387 . S
H3066 C3073 0.950 . S
C3067 C3065 1.387 . S
C3067 C3069 1.390 . S
C3067 H3071 0.950 . S
H3068 C3064 0.950 . S
C3069 C3067 1.390 . S
C3069 C3070 1.387 . S
C3069 H3072 0.950 . S
C3070 C3069 1.387 . S
C3070 C3073 1.387 . S
H3071 C3067 0.950 . S
H3072 C3069 0.950 . S
C3073 C3064 1.390 . S
C3073 H3066 0.950 . S
C3073 C3070 1.387 . S
C3074 C3075 1.387 . S
C3074 H3078 0.950 . S
C3074 C3083 1.390 . S
C3075 C3074 1.387 . S
C3075 C3077 1.387 . S
H3076 C3083 0.950 . S
C3077 C3075 1.387 . S
C3077 C3079 1.390 . S
C3077 H3081 0.950 . S
H3078 C3074 0.950 . S
C3079 C3077 1.390 . S
C3079 C3080 1.387 . S
C3079 H3082 0.950 . S
C3080 C3079 1.387 . S
C3080 C3083 1.387 . S
H3081 C3077 0.950 . S
H3082 C3079 0.950 . S
C3083 C3074 1.390 . S
C3083 H3076 0.950 . S
C3083 C3080 1.387 . S
C3084 C3085 1.387 . S
C3084 H3088 0.950 . S
C3084 C3093 1.390 . S
C3085 C3084 1.387 . S
C3085 C3087 1.387 . S
H3086 C3093 0.950 . S
C3087 C3085 1.387 . S
C3087 C3089 1.390 . S
C3087 H3091 0.950 . S
H3088 C3084 0.950 . S
C3089 C3087 1.390 . S
C3089 C3090 1.387 . S
C3089 H3092 0.950 . S
C3090 C3089 1.387 . S
C3090 C3093 1.387 . S
H3091 C3087 0.950 . S
H3092 C3089 0.950 . S
C3093 C3084 1.390 . S
C3093 H3086 0.950 . S
C3093 C3090 1.387 . S
C3094 C3095 1.387 . S
C3094 H3098 0.950 . S
C3094 C3103 1.390 . S
C3095 C3094 1.387 . S
C3095 C3097 1.387 . S
H3096 C3103 0.950 . S
C3097 C3095 1.387 . S
C3097 C3099 1.390 . S
C3097 H3101 0.950 . S
H3098 C3094 0.950 . S
C3099 C3097 1.390 . S
C3099 C3100 1.387 . S
C3099 H3102 0.950 . S
C3100 C3099 1.387 . S
C3100 C3103 1.387 . S
H3101 C3097 0.950 . S
H3102 C3099 0.950 . S
C3103 C3094 1.390 . S
C3103 H3096 0.950 . S
C3103 C3100 1.387 . S
C3104 C3105 1.387 . S
C3104 H3108 0.950 . S
C3104 C3113 1.390 . S
C3105 C3104 1.387 . S
C3105 C3107 1.387 . S
H3106 C3113 0.950 . S
C3107 C3105 1.387 . S
C3107 C3109 1.390 . S
C3107 H3111 0.950 . S
H3108 C3104 0.950 . S
C3109 C3107 1.390 . S
C3109 C3110 1.387 . S
C3109 H3112 0.950 . S
C3110 C3109 1.387 . S
C3110 C3113 1.387 . S
H3111 C3107 0.950 . S
H3112 C3109 0.950 . S
C3113 C3104 1.390 . S
C3113 H3106 0.950 . S
C3113 C3110 1.387 . S
C3114 C3115 1.387 . S
C3114 H3118 0.950 . S
C3114 C3123 1.390 . S
C3115 C3114 1.387 . S
C3115 C3117 1.387 . S
H3116 C3123 0.950 . S
C3117 C3115 1.387 . S
C3117 C3119 1.390 . S
C3117 H3121 0.950 . S
H3118 C3114 0.950 . S
C3119 C3117 1.390 . S
C3119 C3120 1.387 . S
C3119 H3122 0.950 . S
C3120 C3119 1.387 . S
C3120 C3123 1.387 . S
H3121 C3117 0.950 . S
H3122 C3119 0.950 . S
C3123 C3114 1.390 . S
C3123 H3116 0.950 . S
C3123 C3120 1.387 . S
C3124 C3125 1.387 . S
C3124 H3128 0.950 . S
C3124 C3133 1.390 . S
C3125 C3124 1.387 . S
C3125 C3127 1.387 . S
H3126 C3133 0.950 . S
C3127 C3125 1.387 . S
C3127 C3129 1.390 . S
C3127 H3131 0.950 . S
H3128 C3124 0.950 . S
C3129 C3127 1.390 . S
C3129 C3130 1.387 . S
C3129 H3132 0.950 . S
C3130 C3129 1.387 . S
C3130 C3133 1.387 . S
H3131 C3127 0.950 . S
H3132 C3129 0.950 . S
C3133 C3124 1.390 . S
C3133 H3126 0.950 . S
C3133 C3130 1.387 . S
C3134 C3135 1.387 . S
C3134 H3138 0.950 . S
C3134 C3143 1.390 . S
C3135 C3134 1.387 . S
C3135 C3137 1.387 . S
H3136 C3143 0.950 . S
C3137 C3135 1.387 . S
C3137 C3139 1.390 . S
C3137 H3141 0.950 . S
H3138 C3134 0.950 . S
C3139 C3137 1.390 . S
C3139 C3140 1.387 . S
C3139 H3142 0.950 . S
C3140 C3139 1.387 . S
C3140 C3143 1.387 . S
H3141 C3137 0.950 . S
H3142 C3139 0.950 . S
C3143 C3134 1.390 . S
C3143 H3136 0.950 . S
C3143 C3140 1.387 . S
C3144 C3145 1.387 . S
C3144 H3148 0.950 . S
C3144 C3153 1.390 . S
C3145 C3144 1.387 . S
C3145 C3147 1.387 . S
H3146 C3153 0.950 . S
C3147 C3145 1.387 . S
C3147 C3149 1.390 . S
C3147 H3151 0.950 . S
H3148 C3144 0.950 . S
C3149 C3147 1.390 . S
C3149 C3150 1.387 . S
C3149 H3152 0.950 . S
C3150 C3149 1.387 . S
C3150 C3153 1.387 . S
H3151 C3147 0.950 . S
H3152 C3149 0.950 . S
C3153 C3144 1.390 . S
C3153 H3146 0.950 . S
C3153 C3150 1.387 . S
C3154 C3155 1.387 . S
C3154 H3158 0.950 . S
C3154 C3163 1.390 . S
C3155 C3154 1.387 . S
C3155 C3157 1.387 . S
H3156 C3163 0.950 . S
C3157 C3155 1.387 . S
C3157 C3159 1.390 . S
C3157 H3161 0.950 . S
H3158 C3154 0.950 . S
C3159 C3157 1.390 . S
C3159 C3160 1.387 . S
C3159 H3162 0.950 . S
C3160 C3159 1.387 . S
C3160 C3163 1.387 . S
H3161 C3157 0.950 . S
H3162 C3159 0.950 . S
C3163 C3154 1.390 . S
C3163 H3156 0.950 . S
C3163 C3160 1.387 . S
C3164 C3165 1.387 . S
C3164 H3168 0.950 . S
C3164 C3173 1.390 . S
C3165 C3164 1.387 . S
C3165 C3167 1.387 . S
H3166 C3173 0.950 . S
C3167 C3165 1.387 . S
C3167 C3169 1.390 . S
C3167 H3171 0.950 . S
H3168 C3164 0.950 . S
C3169 C3167 1.390 . S
C3169 C3170 1.387 . S
C3169 H3172 0.950 . S
C3170 C3169 1.387 . S
C3170 C3173 1.387 . S
H3171 C3167 0.950 . S
H3172 C3169 0.950 . S
C3173 C3164 1.390 . S
C3173 H3166 0.950 . S
C3173 C3170 1.387 . S
C3174 C3175 1.387 . S
C3174 H3178 0.950 . S
C3174 C3183 1.390 . S
C3175 C3174 1.387 . S
C3175 C3177 1.387 . S
H3176 C3183 0.950 . S
C3177 C3175 1.387 . S
C3177 C3179 1.390 . S
C3177 H3181 0.950 . S
H3178 C3174 0.950 . S
C3179 C3177 1.390 . S
C3179 C3180 1.387 . S
C3179 H3182 0.950 . S
C3180 C3179 1.387 . S
C3180 C3183 1.387 . S
H3181 C3177 0.950 . S
H3182 C3179 0.950 . S
C3183 C3174 1.390 . S
C3183 H3176 0.950 . S
C3183 C3180 1.387 . S
C3184 C3185 1.387 . S
C3184 H3188 0.950 . S
C3184 C3193 1.390 . S
C3185 C3184 1.387 . S
C3185 C3187 1.387 . S
H3186 C3193 0.950 . S
C3187 C3185 1.387 . S
C3187 C3189 1.390 . S
C3187 H3191 0.950 . S
H3188 C3184 0.950 . S
C3189 C3187 1.390 . S
C3189 C3190 1.387 . S
C3189 H3192 0.950 . S
C3190 C3189 1.387 . S
C3190 C3193 1.387 . S
H3191 C3187 0.950 . S
H3192 C3189 0.950 . S
C3193 C3184 1.390 . S
C3193 H3186 0.950 . S
C3193 C3190 1.387 . S
C3194 C3195 1.387 . S
C3194 H3198 0.950 . S
C3194 C3203 1.390 . S
C3195 C3194 1.387 . S
C3195 C3197 1.387 . S
H3196 C3203 0.950 . S
C3197 C3195 1.387 . S
C3197 C3199 1.390 . S
C3197 H3201 0.950 . S
H3198 C3194 0.950 . S
C3199 C3197 1.390 . S
C3199 C3200 1.387 . S
C3199 H3202 0.950 . S
C3200 C3199 1.387 . S
C3200 C3203 1.387 . S
H3201 C3197 0.950 . S
H3202 C3199 0.950 . S
C3203 C3194 1.390 . S
C3203 H3196 0.950 . S
C3203 C3200 1.387 . S
C3204 C3205 1.387 . S
C3204 H3208 0.950 . S
C3204 C3213 1.390 . S
C3205 C3204 1.387 . S
C3205 C3207 1.387 . S
H3206 C3213 0.950 . S
C3207 C3205 1.387 . S
C3207 C3209 1.390 . S
C3207 H3211 0.950 . S
H3208 C3204 0.950 . S
C3209 C3207 1.390 . S
C3209 C3210 1.387 . S
C3209 H3212 0.950 . S
C3210 C3209 1.387 . S
C3210 C3213 1.387 . S
H3211 C3207 0.950 . S
H3212 C3209 0.950 . S
C3213 C3204 1.390 . S
C3213 H3206 0.950 . S
C3213 C3210 1.387 . S
C3214 C3215 1.387 . S
C3214 H3218 0.950 . S
C3214 C3223 1.390 . S
C3215 C3214 1.387 . S
C3215 C3217 1.387 . S
H3216 C3223 0.950 . S
C3217 C3215 1.387 . S
C3217 C3219 1.390 . S
C3217 H3221 0.950 . S
H3218 C3214 0.950 . S
C3219 C3217 1.390 . S
C3219 C3220 1.387 . S
C3219 H3222 0.950 . S
C3220 C3219 1.387 . S
C3220 C3223 1.387 . S
H3221 C3217 0.950 . S
H3222 C3219 0.950 . S
C3223 C3214 1.390 . S
C3223 H3216 0.950 . S
C3223 C3220 1.387 . S
C3224 C3225 1.387 . S
C3224 H3228 0.950 . S
C3224 C3233 1.390 . S
C3225 C3224 1.387 . S
C3225 C3227 1.387 . S
H3226 C3233 0.950 . S
C3227 C3225 1.387 . S
C3227 C3229 1.390 . S
C3227 H3231 0.950 . S
H3228 C3224 0.950 . S
C3229 C3227 1.390 . S
C3229 C3230 1.387 . S
C3229 H3232 0.950 . S
C3230 C3229 1.387 . S
C3230 C3233 1.387 . S
H3231 C3227 0.950 . S
H3232 C3229 0.950 . S
C3233 C3224 1.390 . S
C3233 H3226 0.950 . S
C3233 C3230 1.387 . S
C3234 C3235 1.387 . S
C3234 H3238 0.950 . S
C3234 C3243 1.390 . S
C3235 C3234 1.387 . S
C3235 C3237 1.387 . S
H3236 C3243 0.950 . S
C3237 C3235 1.387 . S
C3237 C3239 1.390 . S
C3237 H3241 0.950 . S
H3238 C3234 0.950 . S
C3239 C3237 1.390 . S
C3239 C3240 1.387 . S
C3239 H3242 0.950 . S
C3240 C3239 1.387 . S
C3240 C3243 1.387 . S
H3241 C3237 0.950 . S
H3242 C3239 0.950 . S
C3243 C3234 1.390 . S
C3243 H3236 0.950 . S
C3243 C3240 1.387 . S
C3244 C3245 1.387 . S
C3244 H3248 0.950 . S
C3244 C3253 1.390 . S
C3245 C3244 1.387 . S
C3245 C3247 1.387 . S
H3246 C3253 0.950 . S
C3247 C3245 1.387 . S
C3247 C3249 1.390 . S
C3247 H3251 0.950 . S
H3248 C3244 0.950 . S
C3249 C3247 1.390 . S
C3249 C3250 1.387 . S
C3249 H3252 0.950 . S
C3250 C3249 1.387 . S
C3250 C3253 1.387 . S
H3251 C3247 0.950 . S
H3252 C3249 0.950 . S
C3253 C3244 1.390 . S
C3253 H3246 0.950 . S
C3253 C3250 1.387 . S
C3254 C3255 1.387 . S
C3254 H3258 0.950 . S
C3254 C3263 1.390 . S
C3255 C3254 1.387 . S
C3255 C3257 1.387 . S
H3256 C3263 0.950 . S
C3257 C3255 1.387 . S
C3257 C3259 1.390 . S
C3257 H3261 0.950 . S
H3258 C3254 0.950 . S
C3259 C3257 1.390 . S
C3259 C3260 1.387 . S
C3259 H3262 0.950 . S
C3260 C3259 1.387 . S
C3260 C3263 1.387 . S
H3261 C3257 0.950 . S
H3262 C3259 0.950 . S
C3263 C3254 1.390 . S
C3263 H3256 0.950 . S
C3263 C3260 1.387 . S
C1345 C554 1.454 . S
C1350 C8 1.454 . S
C1355 C512 1.455 . S
C1360 C22 1.455 . S
C1365 C526 1.454 . S
C1370 C36 1.454 . S
C1375 C540 1.454 . S
C1380 C50 1.454 . S
C1385 C470 1.454 . S
C1390 C64 1.454 . S
C1395 C484 1.455 . S
C1400 C78 1.455 . S
C1405 C92 1.455 . S
C1410 C498 1.455 . S
C1415 C456 1.454 . S
C1420 C106 1.454 . S
C1425 C120 1.455 . S
C1430 C442 1.455 . S
C1435 C134 1.454 . S
C1440 C400 1.454 . S
C1445 C148 1.454 . S
C1450 C414 1.454 . S
C1455 C162 1.454 . S
C1460 C428 1.454 . S
C1465 C358 1.454 . S
C1470 C176 1.454 . S
C1475 C372 1.455 . S
C1480 C190 1.455 . S
C1485 C386 1.454 . S
C1490 C204 1.454 . S
C1495 C344 1.455 . S
C1500 C218 1.455 . S
C1505 C232 1.455 . S
C1510 C624 1.455 . S
C1515 C246 1.455 . S
C1520 C666 1.455 . S
C1525 C638 1.455 . S
C1530 C260 1.455 . S
C1535 C652 1.455 . S
C1540 C274 1.455 . S
C1545 C568 1.455 . S
C1550 C288 1.455 . S
C1555 C596 1.454 . S
C1560 C302 1.454 . S
C1565 C316 1.455 . S
C1570 C610 1.455 . S
C1575 C582 1.455 . S
C1580 C330 1.455 . S
C1585 C988 1.455 . S
C1590 C680 1.455 . S
C1595 C694 1.454 . S
C1600 C1002 1.454 . S
C1605 C708 1.455 . S
C1610 C974 1.455 . S
C1615 C722 1.454 . S
C1620 C960 1.454 . S
C1625 C736 1.454 . S
C1630 C946 1.454 . S
C1635 C750 1.454 . S
C1640 C932 1.454 . S
C1645 C904 1.454 . S
C1650 C764 1.454 . S
C1655 C918 1.454 . S
C1660 C778 1.454 . S
C1665 C792 1.455 . S
C1670 C1072 1.455 . S
C1675 C806 1.455 . S
C1680 C1114 1.455 . S
C1685 C1086 1.455 . S
C1690 C820 1.455 . S
C1695 C834 1.454 . S
C1700 C1100 1.454 . S
C1705 C848 1.454 . S
C1710 C1016 1.454 . S
C1715 C862 1.455 . S
C1720 C1044 1.455 . S
C1725 C1058 1.454 . S
C1730 C876 1.454 . S
C1735 C1030 1.454 . S
C1740 C890 1.454 . S
C1745 C1128 1.455 . S
C1750 C1338 1.455 . S
C1755 C1324 1.454 . S
C1760 C1142 1.454 . S
C1765 C1296 1.454 . S
C1770 C1156 1.454 . S
C1775 C1310 1.455 . S
C1780 C1170 1.455 . S
C1785 C1268 1.455 . S
C1790 C1184 1.455 . S
C1795 C1198 1.454 . S
C1800 C1282 1.454 . S
C1805 C1254 1.455 . S
C1810 C1212 1.455 . S
C1815 C1240 1.454 . S
C1820 C1226 1.454 . S
C1825 C9 1.375 . S
C1830 C441 1.214 . S
C1835 C23 1.374 . S
C1840 C399 1.208 . S
C1845 C37 1.374 . S
C1850 C413 1.208 . S
C1855 C51 1.374 . S
C1860 C427 1.214 . S
C1865 C65 1.375 . S
C1870 C357 1.214 . S
C1875 C79 1.374 . S
C1880 C371 1.208 . S
C1885 C385 1.214 . S
C1890 C93 1.375 . S
C1895 C107 1.374 . S
C1900 C343 1.214 . S
C1905 C121 1.375 . S
C1910 C623 1.214 . S
C1915 C581 1.214 . S
C1920 C135 1.375 . S
C1925 C149 1.375 . S
C1930 C595 1.208 . S
C1935 C163 1.374 . S
C1940 C609 1.208 . S
C1945 C665 1.211 . S
C1950 C177 1.373 . S
C1955 C637 1.208 . S
C1960 C191 1.374 . S
C1965 C651 1.208 . S
C1970 C205 1.374 . S
C1975 C219 1.374 . S
C1980 C567 1.208 . S
C1985 C233 1.374 . S
C1990 C553 1.214 . S
C1995 C247 1.375 . S
C2000 C469 1.208 . S
C2005 C261 1.376 . S
C2010 C483 1.214 . S
C2015 C275 1.375 . S
C2020 C497 1.214 . S
C2025 C289 1.376 . S
C2030 C455 1.214 . S
C2035 C303 1.375 . S
C2040 C525 1.214 . S
C2045 C539 1.214 . S
C2050 C317 1.375 . S
C2055 C331 1.376 . S
C2060 C511 1.211 . S
C2065 C471 1.375 . S
C2070 C945 1.214 . S
C2075 C217 1.208 . S
C2080 C681 1.374 . S
C2085 C499 1.375 . S
C2090 C931 1.214 . S
C2095 C695 1.375 . S
C2100 C189 1.214 . S
C2105 C555 1.374 . S
C2110 C903 1.208 . S
C2115 C709 1.374 . S
C2120 C161 1.214 . S
C2125 C917 1.208 . S
C2130 C527 1.374 . S
C2135 C723 1.375 . S
C2140 C133 1.214 . S
C2145 C1071 1.208 . S
C2150 C737 1.375 . S
C2155 C345 1.374 . S
C2160 C1029 1.208 . S
C2165 C1043 1.214 . S
C2170 C751 1.375 . S
C2175 C1057 1.208 . S
C2180 C373 1.374 . S
C2185 C1113 1.208 . S
C2190 C765 1.373 . S
C2195 C429 1.375 . S
C2200 C1085 1.214 . S
C2205 C779 1.376 . S
C2210 C1099 1.213 . S
C2215 C401 1.375 . S
C2220 C1015 1.214 . S
C2225 C793 1.375 . S
C2230 C63 1.214 . S
C2235 C807 1.375 . S
C2240 C7 1.208 . S
C2245 C973 1.209 . S
C2250 C821 1.375 . S
C2255 C835 1.375 . S
C2260 C35 1.214 . S
C2265 C849 1.375 . S
C2270 C959 1.208 . S
C2275 C91 1.214 . S
C2280 C863 1.375 . S
C2285 C877 1.373 . S
C2290 C1001 1.209 . S
C2295 C987 1.209 . S
C2300 C891 1.375 . S
C2305 C203 1.208 . S
C2310 C1129 1.374 . S
C2315 C1267 1.208 . S
C2320 C485 1.375 . S
C2325 C1143 1.374 . S
C2330 C175 1.208 . S
C2335 C457 1.374 . S
C2340 C1281 1.214 . S
C2345 C147 1.208 . S
C2350 C1157 1.374 . S
C2355 C1253 1.208 . S
C2360 C513 1.375 . S
C2365 C119 1.208 . S
C2370 C1171 1.374 . S
C2375 C1239 1.214 . S
C2380 C541 1.375 . S
C2385 C861 1.214 . S
C2390 C387 1.375 . S
C2395 C1185 1.374 . S
C2400 C875 1.208 . S
C2405 C791 1.212 . S
C2410 C359 1.376 . S
C2415 C1199 1.375 . S
C2420 C889 1.214 . S
C2425 C833 1.214 . S
C2430 C415 1.375 . S
C2435 C1213 1.375 . S
C2440 C847 1.214 . S
C2445 C443 1.376 . S
C2450 C805 1.209 . S
C2455 C819 1.214 . S
C2460 C1227 1.375 . S
C2465 C1337 1.208 . S
C2470 C1045 1.374 . S
C2475 C1295 1.214 . S
C2480 C1101 1.374 . S
C2485 C1017 1.374 . S
C2490 C21 1.208 . S
C2495 C1309 1.214 . S
C2500 C1115 1.375 . S
C2505 C49 1.212 . S
C2510 C1087 1.376 . S
C2515 C1073 1.374 . S
C2520 C1323 1.214 . S
C2525 C1031 1.375 . S
C2530 C105 1.208 . S
C2535 C1059 1.374 . S
C2540 C77 1.208 . S
C2545 C1297 1.373 . S
C2550 C777 1.209 . S
C2555 C1225 1.208 . S
C2560 C975 1.374 . S
C2565 C1311 1.375 . S
C2570 C763 1.214 . S
C2575 C961 1.374 . S
C2580 C1211 1.214 . S
C2585 C1339 1.373 . S
C2590 C749 1.209 . S
C2595 C989 1.375 . S
C2600 C1197 1.208 . S
C2605 C1325 1.375 . S
C2610 C735 1.214 . S
C2615 C1003 1.375 . S
C2620 C1183 1.208 . S
C2625 C919 1.375 . S
C2630 C301 1.208 . S
C2635 C315 1.214 . S
C2640 C1241 1.375 . S
C2645 C905 1.373 . S
C2650 C231 1.208 . S
C2655 C1255 1.375 . S
C2660 C329 1.214 . S
C2665 C933 1.375 . S
C2670 C273 1.208 . S
C2675 C287 1.208 . S
C2680 C1283 1.374 . S
C2685 C245 1.214 . S
C2690 C947 1.374 . S
C2695 C259 1.208 . S
C2700 C1269 1.374 . S
C2705 C1155 1.208 . S
C2710 C597 1.375 . S
C2715 C653 1.374 . S
C2720 C1127 1.208 . S
C2725 C679 1.209 . S
C2730 C569 1.373 . S
C2735 C667 1.374 . S
C2740 C1141 1.208 . S
C2745 C693 1.213 . S
C2750 C639 1.374 . S
C2755 C1169 1.214 . S
C2760 C625 1.375 . S
C2765 C721 1.214 . S
C2770 C583 1.376 . S
C2775 C707 1.208 . S
C2780 C611 1.375 . S
C2785 C398 1.419 . S
C2790 C6 1.419 . S
C2795 C20 1.422 . S
C2800 C412 1.422 . S
C2805 C426 1.419 . S
C2810 C34 1.419 . S
C2815 C48 1.419 . S
C2820 C440 1.419 . S
C2825 C342 1.419 . S
C2830 C62 1.419 . S
C2835 C356 1.421 . S
C2840 C76 1.421 . S
C2845 C90 1.419 . S
C2850 C370 1.419 . S
C2855 C104 1.421 . S
C2860 C384 1.421 . S
C2865 C538 1.420 . S
C2870 C118 1.420 . S
C2875 C132 1.420 . S
C2880 C552 1.420 . S
C2885 C146 1.420 . S
C2890 C510 1.420 . S
C2895 C524 1.424 . S
C2900 C160 1.424 . S
C2905 C174 1.421 . S
C2910 C482 1.421 . S
C2915 C496 1.419 . S
C2920 C188 1.419 . S
C2925 C454 1.423 . S
C2930 C202 1.424 . S
C2935 C468 1.424 . S
C2940 C216 1.424 . S
C2945 C230 1.420 . S
C2950 C636 1.420 . S
C2955 C608 1.419 . S
C2960 C244 1.420 . S
C2965 C622 1.419 . S
C2970 C258 1.419 . S
C2975 C580 1.419 . S
C2980 C272 1.419 . S
C2985 C286 1.419 . S
C2990 C594 1.419 . S
C2995 C300 1.421 . S
C3000 C566 1.421 . S
C3005 C664 1.421 . S
C3010 C314 1.421 . S
C3015 C328 1.423 . S
C3020 C650 1.423 . S
C3025 C678 1.424 . S
C3030 C930 1.424 . S
C3035 C944 1.420 . S
C3040 C692 1.420 . S
C3045 C902 1.421 . S
C3050 C706 1.421 . S
C3055 C916 1.420 . S
C3060 C720 1.420 . S
C3065 C734 1.419 . S
C3070 C1000 1.420 . S
C3075 C986 1.424 . S
C3080 C748 1.424 . S
C3085 C762 1.424 . S
C3090 C972 1.424 . S
C3095 C776 1.423 . S
C3100 C958 1.423 . S
C3105 C1084 1.422 . S
C3110 C790 1.422 . S
C3115 C804 1.423 . S
C3120 C1056 1.424 . S
C3125 C1070 1.424 . S
C3130 C818 1.424 . S
C3135 C1028 1.422 . S
C3140 C832 1.421 . S
C3145 C1042 1.419 . S
C3150 C846 1.419 . S
C3155 C1014 1.424 . S
C3160 C860 1.424 . S
C3165 C1112 1.424 . S
C3170 C874 1.424 . S
C3175 C1098 1.421 . S
C3180 C888 1.422 . S
C3185 C1126 1.424 . S
C3190 C1266 1.424 . S
C3195 C1280 1.419 . S
C3200 C1140 1.419 . S
C3205 C1154 1.419 . S
C3210 C1238 1.419 . S
C3215 C1252 1.420 . S
C3220 C1168 1.420 . S
C3225 C1182 1.421 . S
C3230 C1336 1.421 . S
C3235 C1196 1.419 . S
C3240 C1322 1.419 . S
C3245 C1308 1.424 . S
C3250 C1210 1.424 . S
C3255 C1224 1.424 . S
C3260 C1294 1.424 . S
