# Generated by pormake.
# Topology ukc, (4)-cn, num edge types: 1
# Building blocks:
#     Node 0, Type 0, BuildingBlock: KUFVIS_clean_sbu_0, # of connection points: 4
#     Node 1, Type 0, BuildingBlock: KUFVIS_clean_sbu_0, # of connection points: 4
#     Node 2, Type 0, BuildingBlock: KUFVIS_clean_sbu_0, # of connection points: 4
#     Node 3, Type 0, BuildingBlock: KUFVIS_clean_sbu_0, # of connection points: 4
#     Node 4, Type 0, BuildingBlock: KUFVIS_clean_sbu_0, # of connection points: 4
#     Node 5, Type 0, BuildingBlock: KUFVIS_clean_sbu_0, # of connection points: 4
#     Node 6, Type 0, BuildingBlock: KUFVIS_clean_sbu_0, # of connection points: 4
#     Node 7, Type 0, BuildingBlock: KUFVIS_clean_sbu_0, # of connection points: 4
#     Node 8, Type 0, BuildingBlock: KUFVIS_clean_sbu_0, # of connection points: 4
#     Node 9, Type 0, BuildingBlock: KUFVIS_clean_sbu_0, # of connection points: 4
#     Node 10, Type 0, BuildingBlock: KUFVIS_clean_sbu_0, # of connection points: 4
#     Node 11, Type 0, BuildingBlock: KUFVIS_clean_sbu_0, # of connection points: 4
#     Node 12, Type 0, BuildingBlock: KUFVIS_clean_sbu_0, # of connection points: 4
#     Node 13, Type 0, BuildingBlock: KUFVIS_clean_sbu_0, # of connection points: 4
#     Node 14, Type 0, BuildingBlock: KUFVIS_clean_sbu_0, # of connection points: 4
#     Node 15, Type 0, BuildingBlock: KUFVIS_clean_sbu_0, # of connection points: 4
#     Node 16, Type 0, BuildingBlock: KUFVIS_clean_sbu_0, # of connection points: 4
#     Node 17, Type 0, BuildingBlock: KUFVIS_clean_sbu_0, # of connection points: 4
#     Node 18, Type 0, BuildingBlock: KUFVIS_clean_sbu_0, # of connection points: 4
#     Node 19, Type 0, BuildingBlock: KUFVIS_clean_sbu_0, # of connection points: 4
#     Node 20, Type 0, BuildingBlock: KUFVIS_clean_sbu_0, # of connection points: 4
#     Node 21, Type 0, BuildingBlock: KUFVIS_clean_sbu_0, # of connection points: 4
#     Node 22, Type 0, BuildingBlock: KUFVIS_clean_sbu_0, # of connection points: 4
#     Node 23, Type 0, BuildingBlock: KUFVIS_clean_sbu_0, # of connection points: 4
#     Node 24, Type 0, BuildingBlock: KUFVIS_clean_sbu_0, # of connection points: 4
#     Node 25, Type 0, BuildingBlock: KUFVIS_clean_sbu_0, # of connection points: 4
#     Node 26, Type 0, BuildingBlock: KUFVIS_clean_sbu_0, # of connection points: 4
#     Node 27, Type 0, BuildingBlock: KUFVIS_clean_sbu_0, # of connection points: 4
#     Node 28, Type 0, BuildingBlock: KUFVIS_clean_sbu_0, # of connection points: 4
#     Node 29, Type 0, BuildingBlock: KUFVIS_clean_sbu_0, # of connection points: 4
#     Node 30, Type 0, BuildingBlock: KUFVIS_clean_sbu_0, # of connection points: 4
#     Node 31, Type 0, BuildingBlock: KUFVIS_clean_sbu_0, # of connection points: 4
#     Edge 32, Type (0, 0), BuildingBlock: XUDNAN_clean_linker_2, # of connection points: 2
#     Edge 33, Type (0, 0), BuildingBlock: XUDNAN_clean_linker_2, # of connection points: 2
#     Edge 34, Type (0, 0), BuildingBlock: XUDNAN_clean_linker_2, # of connection points: 2
#     Edge 35, Type (0, 0), BuildingBlock: XUDNAN_clean_linker_2, # of connection points: 2
#     Edge 36, Type (0, 0), BuildingBlock: XUDNAN_clean_linker_2, # of connection points: 2
#     Edge 37, Type (0, 0), BuildingBlock: XUDNAN_clean_linker_2, # of connection points: 2
#     Edge 38, Type (0, 0), BuildingBlock: XUDNAN_clean_linker_2, # of connection points: 2
#     Edge 39, Type (0, 0), BuildingBlock: XUDNAN_clean_linker_2, # of connection points: 2
#     Edge 40, Type (0, 0), BuildingBlock: XUDNAN_clean_linker_2, # of connection points: 2
#     Edge 41, Type (0, 0), BuildingBlock: XUDNAN_clean_linker_2, # of connection points: 2
#     Edge 42, Type (0, 0), BuildingBlock: XUDNAN_clean_linker_2, # of connection points: 2
#     Edge 43, Type (0, 0), BuildingBlock: XUDNAN_clean_linker_2, # of connection points: 2
#     Edge 44, Type (0, 0), BuildingBlock: XUDNAN_clean_linker_2, # of connection points: 2
#     Edge 45, Type (0, 0), BuildingBlock: XUDNAN_clean_linker_2, # of connection points: 2
#     Edge 46, Type (0, 0), BuildingBlock: XUDNAN_clean_linker_2, # of connection points: 2
#     Edge 47, Type (0, 0), BuildingBlock: XUDNAN_clean_linker_2, # of connection points: 2
#     Edge 48, Type (0, 0), BuildingBlock: XUDNAN_clean_linker_2, # of connection points: 2
#     Edge 49, Type (0, 0), BuildingBlock: XUDNAN_clean_linker_2, # of connection points: 2
#     Edge 50, Type (0, 0), BuildingBlock: XUDNAN_clean_linker_2, # of connection points: 2
#     Edge 51, Type (0, 0), BuildingBlock: XUDNAN_clean_linker_2, # of connection points: 2
#     Edge 52, Type (0, 0), BuildingBlock: XUDNAN_clean_linker_2, # of connection points: 2
#     Edge 53, Type (0, 0), BuildingBlock: XUDNAN_clean_linker_2, # of connection points: 2
#     Edge 54, Type (0, 0), BuildingBlock: XUDNAN_clean_linker_2, # of connection points: 2
#     Edge 55, Type (0, 0), BuildingBlock: XUDNAN_clean_linker_2, # of connection points: 2
#     Edge 56, Type (0, 0), BuildingBlock: XUDNAN_clean_linker_2, # of connection points: 2
#     Edge 57, Type (0, 0), BuildingBlock: XUDNAN_clean_linker_2, # of connection points: 2
#     Edge 58, Type (0, 0), BuildingBlock: XUDNAN_clean_linker_2, # of connection points: 2
#     Edge 59, Type (0, 0), BuildingBlock: XUDNAN_clean_linker_2, # of connection points: 2
#     Edge 60, Type (0, 0), BuildingBlock: XUDNAN_clean_linker_2, # of connection points: 2
#     Edge 61, Type (0, 0), BuildingBlock: XUDNAN_clean_linker_2, # of connection points: 2
#     Edge 62, Type (0, 0), BuildingBlock: XUDNAN_clean_linker_2, # of connection points: 2
#     Edge 63, Type (0, 0), BuildingBlock: XUDNAN_clean_linker_2, # of connection points: 2
#     Edge 64, Type (0, 0), BuildingBlock: XUDNAN_clean_linker_2, # of connection points: 2
#     Edge 65, Type (0, 0), BuildingBlock: XUDNAN_clean_linker_2, # of connection points: 2
#     Edge 66, Type (0, 0), BuildingBlock: XUDNAN_clean_linker_2, # of connection points: 2
#     Edge 67, Type (0, 0), BuildingBlock: XUDNAN_clean_linker_2, # of connection points: 2
#     Edge 68, Type (0, 0), BuildingBlock: XUDNAN_clean_linker_2, # of connection points: 2
#     Edge 69, Type (0, 0), BuildingBlock: XUDNAN_clean_linker_2, # of connection points: 2
#     Edge 70, Type (0, 0), BuildingBlock: XUDNAN_clean_linker_2, # of connection points: 2
#     Edge 71, Type (0, 0), BuildingBlock: XUDNAN_clean_linker_2, # of connection points: 2
#     Edge 72, Type (0, 0), BuildingBlock: XUDNAN_clean_linker_2, # of connection points: 2
#     Edge 73, Type (0, 0), BuildingBlock: XUDNAN_clean_linker_2, # of connection points: 2
#     Edge 74, Type (0, 0), BuildingBlock: XUDNAN_clean_linker_2, # of connection points: 2
#     Edge 75, Type (0, 0), BuildingBlock: XUDNAN_clean_linker_2, # of connection points: 2
#     Edge 76, Type (0, 0), BuildingBlock: XUDNAN_clean_linker_2, # of connection points: 2
#     Edge 77, Type (0, 0), BuildingBlock: XUDNAN_clean_linker_2, # of connection points: 2
#     Edge 78, Type (0, 0), BuildingBlock: XUDNAN_clean_linker_2, # of connection points: 2
#     Edge 79, Type (0, 0), BuildingBlock: XUDNAN_clean_linker_2, # of connection points: 2
#     Edge 80, Type (0, 0), BuildingBlock: XUDNAN_clean_linker_2, # of connection points: 2
#     Edge 81, Type (0, 0), BuildingBlock: XUDNAN_clean_linker_2, # of connection points: 2
#     Edge 82, Type (0, 0), BuildingBlock: XUDNAN_clean_linker_2, # of connection points: 2
#     Edge 83, Type (0, 0), BuildingBlock: XUDNAN_clean_linker_2, # of connection points: 2
#     Edge 84, Type (0, 0), BuildingBlock: XUDNAN_clean_linker_2, # of connection points: 2
#     Edge 85, Type (0, 0), BuildingBlock: XUDNAN_clean_linker_2, # of connection points: 2
#     Edge 86, Type (0, 0), BuildingBlock: XUDNAN_clean_linker_2, # of connection points: 2
#     Edge 87, Type (0, 0), BuildingBlock: XUDNAN_clean_linker_2, # of connection points: 2
#     Edge 88, Type (0, 0), BuildingBlock: XUDNAN_clean_linker_2, # of connection points: 2
#     Edge 89, Type (0, 0), BuildingBlock: XUDNAN_clean_linker_2, # of connection points: 2
#     Edge 90, Type (0, 0), BuildingBlock: XUDNAN_clean_linker_2, # of connection points: 2
#     Edge 91, Type (0, 0), BuildingBlock: XUDNAN_clean_linker_2, # of connection points: 2
#     Edge 92, Type (0, 0), BuildingBlock: XUDNAN_clean_linker_2, # of connection points: 2
#     Edge 93, Type (0, 0), BuildingBlock: XUDNAN_clean_linker_2, # of connection points: 2
#     Edge 94, Type (0, 0), BuildingBlock: XUDNAN_clean_linker_2, # of connection points: 2
#     Edge 95, Type (0, 0), BuildingBlock: XUDNAN_clean_linker_2, # of connection points: 2
# Relax obj value: 0.035
# Max RMSD: 0.053
# Mean RMSD: 0.053
data_MOF--net-ukc--node1-KUFVIS_clean_sbu_0--edge1-XUDNAN_clean_linker_2
_symmetry_space_group_name_H-M    P1
_symmetry_Int_Tables_number       1
_symmetry_cell_setting            triclinic
loop_
_symmetry_equiv_pos_as_xyz
'x, y, z'
_cell_length_a     43.660617
_cell_length_b     43.662485
_cell_length_c     87.554383
_cell_angle_alpha  90.015248
_cell_angle_beta   89.918473
_cell_angle_gamma 89.982038
loop_
_atom_site_label
_atom_site_type_symbol
_atom_site_fract_x
_atom_site_fract_y
_atom_site_fract_z
_atom_type_partial_charge
Mn0 Mn 0.09978 0.39619 0.06032 0.0
Mn1 Mn 0.10293 0.35892 0.02649 0.0
C2 C 0.06538 0.3566 0.05515 0.0
C3 C 0.11329 0.40374 0.08602 0.0
C4 C 0.07351 0.42136 0.03029 0.0
O5 O 0.14224 0.40845 0.05209 0.0
O6 O 0.14183 0.38083 0.03034 0.0
C7 C 0.15038 0.31321 0.03444 0.0
N8 N 0.12196 0.31993 0.02902 0.0
C9 C 0.114 0.26792 0.02097 0.0
C10 C 0.14314 0.26031 0.02654 0.0
C11 C 0.16128 0.283 0.03345 0.0
C12 C 0.10386 0.29806 0.02291 0.0
H13 H 0.1647 0.33086 0.03932 0.0
C14 C 0.15475 0.39909 0.03972 0.0
O15 O 0.10259 0.42566 0.0776 0.0
O16 O 0.11795 0.3776 0.07929 0.0
N17 N 0.06734 0.33658 0.02058 0.0
C18 C 0.04 0.34793 1.01565 0.0
C19 C 0.01974 0.32873 1.00776 0.0
C20 C 0.02814 0.29834 1.00466 0.0
C21 C 0.05609 0.28691 1.01015 0.0
C22 C 0.07518 0.30705 0.01811 0.0
H23 H 0.03405 0.37168 1.01735 0.0
O24 O 0.05959 0.37711 0.06547 0.0
O25 O 0.09174 0.35913 0.04827 0.0
O26 O 0.07853 0.42399 0.04457 0.0
O27 O 0.08236 0.3983 0.02251 0.0
C28 C 0.06628 0.2567 1.00755 0.0
C29 C 0.09495 0.24704 1.01321 0.0
H30 H 0.15193 0.23721 0.02543 0.0
H31 H 0.18385 0.27736 0.0377 0.0
H32 H 0.99814 0.33761 1.00363 0.0
H33 H 0.01299 0.2841 0.99793 0.0
H34 H 0.05216 0.24063 1.00129 0.0
H35 H 0.10232 0.22365 1.01134 0.0
Mn36 Mn 0.87474 0.8567 0.31262 0.0
Mn37 Mn 0.91048 0.86312 0.2784 0.0
C38 C 0.91543 0.82422 0.30646 0.0
C39 C 0.86757 0.86937 0.33854 0.0
C40 C 0.85043 0.82957 0.28243 0.0
O41 O 0.85976 0.89873 0.30507 0.0
O42 O 0.88475 0.89931 0.28259 0.0
C43 C 0.95102 0.91455 0.28707 0.0
N44 N 0.94733 0.88588 0.28123 0.0
C45 C 1.00021 0.88335 0.27371 0.0
C46 C 1.0047 0.91282 0.27969 0.0
C47 C 0.98005 0.92836 0.28654 0.0
C48 C 0.97112 0.87024 0.2752 0.0
H49 H 0.9319 0.92684 0.29195 0.0
C50 C 0.86652 0.9112 0.2923 0.0
O51 O 0.84593 0.85769 0.33026 0.0
O52 O 0.89328 0.87507 0.3316 0.0
N53 N 0.93635 0.83039 0.27187 0.0
C54 C 0.92763 0.80292 0.2659 0.0
C55 C 0.94892 0.78529 0.25774 0.0
C56 C 0.97863 0.79654 0.25536 0.0
C57 C 0.98726 0.82472 0.26171 0.0
C58 C 0.96513 0.84113 0.26989 0.0
H59 H 0.90435 0.79488 0.267 0.0
O60 O 0.89594 0.81716 0.31707 0.0
O61 O 0.91152 0.85083 0.30001 0.0
O62 O 0.84742 0.83498 0.2967 0.0
O63 O 0.87325 0.83897 0.27458 0.0
C64 C 0.01643 0.83793 0.25958 0.0
C65 C 0.02312 0.8669 0.26589 0.0
H66 H 0.02687 0.92386 0.27892 0.0
H67 H 0.98328 0.95116 0.29111 0.0
H68 H 0.94211 0.76363 0.25279 0.0
H69 H 0.9942 0.78379 0.24817 0.0
H70 H 0.03394 0.82603 0.25312 0.0
H71 H 0.04574 0.87661 0.26433 0.0
Mn72 Mn 0.40662 0.60702 0.56272 0.0
Mn73 Mn 0.41153 0.63198 0.52626 0.0
C74 C 0.43877 0.64786 0.55638 0.0
C75 C 0.38993 0.60372 0.58824 0.0
C76 C 0.4426 0.57457 0.53695 0.0
O77 O 0.36635 0.59088 0.55341 0.0
O78 O 0.37482 0.60587 0.52906 0.0
C79 C 0.35639 0.67164 0.52665 0.0
N80 N 0.38708 0.66813 0.52437 0.0
C81 C 0.39268 0.72129 0.51771 0.0
C82 C 0.36113 0.72543 0.5199 0.0
C83 C 0.34292 0.70049 0.5244 0.0
C84 C 0.40477 0.69194 0.52 0.0
H85 H 0.34228 0.65262 0.53017 0.0
C86 C 0.35884 0.59221 0.53926 0.0
O87 O 0.40253 0.58113 0.58109 0.0
O88 O 0.38483 0.62836 0.58023 0.0
N89 N 0.4456 0.65786 0.52192 0.0
C90 C 0.47582 0.6503 0.52105 0.0
C91 C 0.49722 0.67284 0.51707 0.0
C92 C 0.48727 0.70278 0.51403 0.0
C93 C 0.45605 0.70994 0.51475 0.0
C94 C 0.43574 0.68644 0.5186 0.0
H95 H 0.48354 0.62733 0.52351 0.0
O96 O 0.44479 0.63058 0.56807 0.0
O97 O 0.41473 0.6402 0.54847 0.0
O98 O 0.43128 0.57647 0.55026 0.0
O99 O 0.43795 0.59488 0.52675 0.0
C100 C 0.44436 0.73959 0.51218 0.0
C101 C 0.41269 0.74525 0.51365 0.0
H102 H 0.35069 0.7477 0.51828 0.0
H103 H 0.31857 0.70351 0.52618 0.0
H104 H 0.52135 0.66725 0.51649 0.0
H105 H 0.50383 0.72018 0.51139 0.0
H106 H 0.45953 0.75833 0.50934 0.0
H107 H 0.40404 0.76822 0.51185 0.0
Mn108 Mn 0.63924 0.16195 0.81046 0.0
Mn109 Mn 0.60179 0.15696 0.7767 0.0
C110 C 0.59915 0.19566 0.80495 0.0
C111 C 0.64721 0.14936 0.83632 0.0
C112 C 0.66362 0.18774 0.78004 0.0
O113 O 0.65235 0.11943 0.80259 0.0
O114 O 0.62513 0.11903 0.78075 0.0
C115 C 0.55815 0.10821 0.78553 0.0
N116 N 0.56359 0.13665 0.77976 0.0
C117 C 0.51091 0.14258 0.77244 0.0
C118 C 0.50462 0.11339 0.77835 0.0
C119 C 0.5283 0.09626 0.78507 0.0
C120 C 0.54078 0.1538 0.77385 0.0
H121 H 0.5765 0.09469 0.79031 0.0
C122 C 0.64357 0.10664 0.7902 0.0
O123 O 0.66885 0.16017 0.82774 0.0
O124 O 0.62109 0.14417 0.8297 0.0
N125 N 0.57795 0.19144 0.77053 0.0
C126 C 0.58817 0.21872 0.76495 0.0
C127 C 0.56781 0.23803 0.75718 0.0
C128 C 0.53746 0.22866 0.7548 0.0
C129 C 0.52729 0.20065 0.76079 0.0
C130 C 0.54853 0.18257 0.76864 0.0
H131 H 0.61187 0.22536 0.76607 0.0
O132 O 0.61947 0.20209 0.81524 0.0
O133 O 0.60207 0.16905 0.79836 0.0
O134 O 0.66653 0.18288 0.79434 0.0
O135 O 0.64045 0.17872 0.77238 0.0
C136 C 0.49736 0.18929 0.75869 0.0
C137 C 0.48899 0.16059 0.7648 0.0
H138 H 0.4818 0.10378 0.77765 0.0
H139 H 0.52369 0.07365 0.78959 0.0
H140 H 0.57577 0.2596 0.75256 0.0
H141 H 0.52242 0.24291 0.74802 0.0
H142 H 0.48051 0.20243 0.75242 0.0
H143 H 0.4658 0.15233 0.7633 0.0
Mn144 Mn 0.1092 0.62095 0.47059 0.0
Mn145 Mn 0.10429 0.64804 0.50674 0.0
C146 C 0.07751 0.66264 0.47618 0.0
C147 C 0.12756 0.61605 0.44544 0.0
C148 C 0.07104 0.59139 0.49626 0.0
O149 O 0.14826 0.60335 0.48055 0.0
O150 O 0.141 0.62189 0.50428 0.0
C151 C 0.15958 0.68746 0.50593 0.0
N152 N 0.12888 0.68416 0.50824 0.0
C153 C 0.12347 0.73762 0.51436 0.0
C154 C 0.15504 0.74154 0.51214 0.0
C155 C 0.17316 0.71634 0.50789 0.0
C156 C 0.11128 0.70823 0.51234 0.0
H157 H 0.17363 0.66825 0.50258 0.0
C158 C 0.15659 0.60664 0.49451 0.0
O159 O 0.11353 0.59422 0.45252 0.0
O160 O 0.13293 0.6408 0.45332 0.0
N161 N 0.07034 0.67421 0.51086 0.0
C162 C 0.0402 0.66665 0.51221 0.0
C163 C 0.01895 0.68936 0.51612 0.0
C164 C 0.02896 0.71951 0.51854 0.0
C165 C 0.06014 0.72657 0.5176 0.0
C166 C 0.08033 0.70288 0.51387 0.0
H167 H 0.03239 0.64355 0.51019 0.0
O168 O 0.07215 0.64533 0.46444 0.0
O169 O 0.10121 0.6551 0.48441 0.0
O170 O 0.08237 0.59229 0.48293 0.0
O171 O 0.07744 0.61115 0.50651 0.0
C172 C 0.07188 0.75629 0.51984 0.0
C173 C 0.10355 0.76181 0.51822 0.0
H174 H 0.16556 0.76382 0.51355 0.0
H175 H 0.19752 0.71919 0.5061 0.0
H176 H 0.99491 0.6837 0.51711 0.0
H177 H 0.01253 0.73718 0.52085 0.0
H178 H 0.05674 0.77515 0.52258 0.0
H179 H 0.11229 0.78481 0.51981 0.0
Mn180 Mn 0.63742 0.85141 0.72185 0.0
Mn181 Mn 0.61456 0.84325 0.75857 0.0
C182 C 0.60332 0.81227 0.72874 0.0
C183 C 0.6367 0.87007 0.69658 0.0
C184 C 0.67693 0.82345 0.74729 0.0
O185 O 0.64804 0.89353 0.73126 0.0
O186 O 0.62946 0.8854 0.75494 0.0
C187 C 0.56128 0.88522 0.75811 0.0
N188 N 0.57338 0.85706 0.76096 0.0
C189 C 0.52713 0.84036 0.77328 0.0
C190 C 0.51407 0.86917 0.7705 0.0
C191 C 0.5311 0.89157 0.76269 0.0
C192 C 0.55672 0.8349 0.76779 0.0
H193 H 0.57467 0.90274 0.75252 0.0
C194 C 0.64189 0.9026 0.74487 0.0
O195 O 0.66124 0.86038 0.70321 0.0
O196 O 0.61192 0.87039 0.7049 0.0
N197 N 0.59938 0.80381 0.76411 0.0
C198 C 0.61545 0.7773 0.76593 0.0
C199 C 0.60188 0.75258 0.77361 0.0
C200 C 0.57242 0.75578 0.77982 0.0
C201 C 0.55636 0.78334 0.77786 0.0
C202 C 0.57067 0.80682 0.76967 0.0
H203 H 0.63861 0.77512 0.76175 0.0
O204 O 0.62005 0.81006 0.71652 0.0
O205 O 0.6067 0.83731 0.73657 0.0
O206 O 0.67216 0.83126 0.73355 0.0
O207 O 0.65719 0.82745 0.75782 0.0
C208 C 0.52737 0.78899 0.78431 0.0
C209 C 0.51244 0.8172 0.78175 0.0
H210 H 0.49111 0.87442 0.77441 0.0
H211 H 0.52123 0.91389 0.76053 0.0
H212 H 0.61447 0.73146 0.77514 0.0
H213 H 0.56271 0.7371 0.78633 0.0
H214 H 0.5165 0.77194 0.79145 0.0
H215 H 0.48989 0.82102 0.78656 0.0
Mn216 Mn 0.41256 0.38539 0.97483 0.0
Mn217 Mn 0.42098 0.36578 1.01195 0.0
C218 C 0.45102 0.35129 0.9821 0.0
C219 C 0.39212 0.38051 0.95027 0.0
C220 C 0.44214 0.42648 0.99904 0.0
O221 O 0.37143 0.39863 0.9844 0.0
O222 O 0.37883 0.38089 1.00828 0.0
C223 C 0.37843 0.313 1.01265 0.0
N224 N 0.40686 0.32488 1.01503 0.0
C225 C 0.42444 0.2779 0.02632 0.0
C226 C 0.39535 0.26511 0.02403 0.0
C227 C 0.37233 0.28265 1.01701 0.0
C228 C 0.42948 0.30784 0.02122 0.0
H229 H 0.36054 0.32663 1.00753 0.0
C230 C 0.36207 0.39336 0.99804 0.0
O231 O 0.40343 0.40608 0.95514 0.0
O232 O 0.39131 0.35779 0.95988 0.0
N233 N 0.46047 0.35052 1.01741 0.0
C234 C 0.48716 0.36641 0.01898 0.0
C235 C 0.51246 0.35227 0.02586 0.0
C236 C 0.50978 0.32234 0.03153 0.0
C237 C 0.48196 0.30658 0.02999 0.0
C238 C 0.45775 0.32157 0.02268 0.0
H239 H 0.48911 0.3898 1.01511 0.0
O240 O 0.45285 0.36624 0.96934 0.0
O241 O 0.42647 0.35617 0.99016 0.0
O242 O 0.43455 0.4205 0.98535 0.0
O243 O 0.43713 0.40815 1.01011 0.0
C244 C 0.4769 0.27708 0.03594 0.0
C245 C 0.44839 0.26247 0.03385 0.0
H246 H 0.39039 0.24193 0.02768 0.0
H247 H 0.34981 0.27297 1.0152 0.0
H248 H 0.53378 0.36466 0.02711 0.0
H249 H 0.52909 0.31195 0.03727 0.0
H250 H 0.49462 0.26564 0.04239 0.0
H251 H 0.44498 0.23957 0.03829 0.0
Mn252 Mn 0.88124 0.1625 0.22466 0.0
Mn253 Mn 0.90109 0.17136 0.26172 0.0
C254 C 0.91987 0.19702 0.23169 0.0
C255 C 0.88486 0.14031 0.20027 0.0
C256 C 0.84281 0.19748 0.24838 0.0
O257 O 0.86418 0.12313 0.23474 0.0
O258 O 0.88111 0.13131 0.25873 0.0
C259 C 0.94815 0.12262 0.2636 0.0
N260 N 0.93993 0.15254 0.26524 0.0
C261 C 0.99019 0.16598 0.27418 0.0
C262 C 0.99917 0.13529 0.2727 0.0
C263 C 0.97807 0.11353 0.26733 0.0
C264 C 0.96009 0.17369 0.27027 0.0
H265 H 0.93204 0.10584 0.25944 0.0
C266 C 0.86782 0.1147 0.24868 0.0
O267 O 0.86036 0.1543 0.20484 0.0
O268 O 0.90704 0.13789 0.2101 0.0
N269 N 0.92115 0.20913 0.2661 0.0
C270 C 0.90922 0.23797 0.26618 0.0
C271 C 0.92736 0.26245 0.27122 0.0
C272 C 0.95741 0.25696 0.27617 0.0
C273 C 0.96928 0.22713 0.2758 0.0
C274 C 0.95005 0.20362 0.27084 0.0
H275 H 0.886 0.24224 0.26254 0.0
O276 O 0.90509 0.2005 0.21896 0.0
O277 O 0.91141 0.17378 0.23991 0.0
O278 O 0.84797 0.18823 0.23484 0.0
O279 O 0.86095 0.19213 0.25947 0.0
C280 C 0.99941 0.21977 0.28015 0.0
C281 C 0.00999 0.18931 0.27924 0.0
H282 H 0.02225 0.12821 0.27555 0.0
H283 H 0.98485 0.08982 0.26608 0.0
H284 H 0.91815 0.28547 0.27138 0.0
H285 H 0.97107 0.27588 0.28021 0.0
H286 H 0.01465 0.23737 0.28413 0.0
H287 H 0.03339 0.18411 0.28242 0.0
Mn288 Mn 0.90941 0.63065 0.97094 0.0
Mn289 Mn 0.9189 0.65059 1.00792 0.0
C290 C 0.94759 0.66553 0.97776 0.0
C291 C 0.88725 0.63537 0.9467 0.0
C292 C 0.94074 0.5901 0.99486 0.0
O293 O 0.86891 0.61687 0.98093 0.0
O294 O 0.8768 0.63519 1.00464 0.0
C295 C 0.87589 0.70298 1.00901 0.0
N296 N 0.90448 0.69133 1.01119 0.0
C297 C 0.92158 0.73787 0.02306 0.0
C298 C 0.89235 0.75049 0.02094 0.0
C299 C 0.86949 0.73307 1.01372 0.0
C300 C 0.92696 0.7083 0.01752 0.0
H301 H 0.85807 0.68934 1.00383 0.0
C302 C 0.85984 0.6224 0.99459 0.0
O303 O 0.89938 0.60998 0.95133 0.0
O304 O 0.88685 0.65802 0.95636 0.0
N305 N 0.95839 0.66616 1.01311 0.0
C306 C 0.9852 0.65039 1.01449 0.0
C307 C 0.01017 0.66412 0.02185 0.0
C308 C 0.00703 0.6935 0.02815 0.0
C309 C 0.97925 0.70935 0.02656 0.0
C310 C 0.95537 0.69476 0.01881 0.0
H311 H 0.98741 0.62728 1.01025 0.0
O312 O 0.94908 0.65056 0.96498 0.0
O313 O 0.92352 0.66019 0.9861 0.0
O314 O 0.93271 0.59575 0.98119 0.0
O315 O 0.93541 0.60843 1.0059 0.0
C316 C 0.97383 0.73845 0.03296 0.0
C317 C 0.94529 0.75303 0.0309 0.0
H318 H 0.88713 0.7734 0.02491 0.0
H319 H 0.84684 0.74258 1.01208 0.0
H320 H 0.03149 0.65172 0.02308 0.0
H321 H 0.02596 0.70333 0.03442 0.0
H322 H 0.99138 0.74975 0.03961 0.0
H323 H 0.94162 0.77564 0.03567 0.0
Mn324 Mn 0.14204 0.16451 0.72138 0.0
Mn325 Mn 0.10837 0.15979 0.756 0.0
C326 C 0.10315 0.19898 0.72807 0.0
C327 C 0.14721 0.15122 0.69549 0.0
C328 C 0.17219 0.18568 0.75083 0.0
O329 O 0.15467 0.12159 0.72923 0.0
O330 O 0.12448 0.11918 0.75017 0.0
C331 C 0.05593 0.11912 0.74917 0.0
N332 N 0.067 0.14604 0.75473 0.0
C333 C 0.01811 0.15921 0.76552 0.0
C334 C 1.00606 0.13166 0.75989 0.0
C335 C 0.02497 0.1117 0.7515 0.0
C336 C 0.04871 0.16599 0.7622 0.0
H337 H 0.07074 0.10333 0.74319 0.0
C338 C 0.14322 0.10722 0.74067 0.0
O339 O 0.16983 0.16174 0.70346 0.0
O340 O 0.12156 0.14679 0.70273 0.0
N341 N 0.09167 0.19738 0.7634 0.0
C342 C 0.10692 0.22301 0.76798 0.0
C343 C 0.09148 0.24525 0.77661 0.0
C344 C 0.06087 0.24042 0.78087 0.0
C345 C 0.04557 0.21396 0.77593 0.0
C346 C 0.06189 0.19303 0.76698 0.0
H347 H 0.13085 0.22621 0.76536 0.0
O348 O 0.12221 0.20518 0.71711 0.0
O349 O 0.10674 0.17246 0.73452 0.0
O350 O 0.17159 0.18502 0.73633 0.0
O351 O 0.15064 0.17483 0.75907 0.0
C352 C 0.01525 0.20683 0.78011 0.0
C353 C 1.00133 0.17975 0.77469 0.0
H354 H 0.98241 0.12549 0.76203 0.0
H355 H 0.01589 0.09034 0.74717 0.0
H356 H 0.10344 0.26556 0.78041 0.0
H357 H 0.04966 0.25694 0.78819 0.0
H358 H 1.00257 0.22184 0.78764 0.0
H359 H 0.97783 0.17479 0.7778 0.0
Mn360 Mn 0.60287 0.38248 0.47014 0.0
Mn361 Mn 0.60783 0.34523 0.50393 0.0
C362 C 0.57376 0.3382 0.47445 0.0
C363 C 0.61892 0.39237 0.44496 0.0
C364 C 0.5718 0.40408 0.49973 0.0
O365 O 0.64266 0.39977 0.47943 0.0
O366 O 0.6439 0.37197 0.50114 0.0
C367 C 0.66166 0.30628 0.49701 0.0
N368 N 0.63188 0.30899 0.50146 0.0
C369 C 0.62718 0.25446 0.50457 0.0
C370 C 0.65786 0.25108 0.5001 0.0
C371 C 0.67516 0.27712 0.49629 0.0
C372 C 0.61506 0.28413 0.50516 0.0
H373 H 0.67498 0.32621 0.49402 0.0
C374 C 0.65505 0.39201 0.4921 0.0
O375 O 0.60418 0.41244 0.45304 0.0
O376 O 0.62532 0.36661 0.45167 0.0
N377 N 0.57466 0.31835 0.50833 0.0
C378 C 0.54519 0.32562 0.51193 0.0
C379 C 0.52467 0.30218 0.5157 0.0
C380 C 0.53472 0.27165 0.5157 0.0
C381 C 0.56532 0.26477 0.51242 0.0
C382 C 0.58483 0.28913 0.50893 0.0
H383 H 0.53735 0.34906 0.51181 0.0
O384 O 0.56577 0.35785 0.46408 0.0
O385 O 0.59873 0.34483 0.48189 0.0
O386 O 0.57728 0.40722 0.48551 0.0
O387 O 0.58228 0.38184 0.50764 0.0
C388 C 0.57704 0.23469 0.51208 0.0
C389 C 0.60797 0.22954 0.50816 0.0
H390 H 0.66828 0.2286 0.49945 0.0
H391 H 0.69882 0.27472 0.49278 0.0
H392 H 0.5011 0.30759 0.51842 0.0
H393 H 0.51866 0.25365 0.51795 0.0
H394 H 0.56239 0.21533 0.51457 0.0
H395 H 0.61664 0.20631 0.50776 0.0
Mn396 Mn 0.38166 0.85876 0.2224 0.0
Mn397 Mn 0.41234 0.85679 0.25758 0.0
C398 C 0.41876 0.82182 0.22833 0.0
C399 C 0.38179 0.87873 0.19748 0.0
C400 C 0.34777 0.83499 0.25025 0.0
O401 O 0.36933 0.90039 0.23195 0.0
O402 O 0.39932 0.89896 0.25287 0.0
C403 C 0.46772 0.89487 0.25332 0.0
N404 N 0.45451 0.86802 0.25767 0.0
C405 C 0.50124 0.85048 0.26917 0.0
C406 C 0.51552 0.87788 0.26477 0.0
C407 C 0.49878 0.9 0.25662 0.0
C408 C 0.47074 0.84604 0.26487 0.0
H409 H 0.45452 0.91233 0.24758 0.0
C410 C 0.38112 0.91295 0.24382 0.0
O411 O 0.35735 0.86663 0.20337 0.0
O412 O 0.40586 0.87995 0.20614 0.0
N413 N 0.42596 0.81726 0.26392 0.0
C414 C 0.40882 0.79198 0.26713 0.0
C415 C 0.42201 0.76766 0.27526 0.0
C416 C 0.45229 0.77007 0.28047 0.0
C417 C 0.4695 0.79628 0.27698 0.0
C418 C 0.45548 0.8193 0.26837 0.0
H419 H 0.38508 0.79059 0.26381 0.0
O420 O 0.40092 0.81842 0.21662 0.0
O421 O 0.41504 0.84707 0.23589 0.0
O422 O 0.34966 0.83653 0.23572 0.0
O423 O 0.36907 0.84425 0.25908 0.0
C424 C 0.49956 0.80108 0.28224 0.0
C425 C 0.51566 0.82787 0.27809 0.0
H426 H 0.53921 0.88227 0.26769 0.0
H427 H 0.50958 0.92126 0.25324 0.0
H428 H 0.40856 0.74755 0.27795 0.0
H429 H 0.46187 0.75183 0.28735 0.0
H430 H 0.51049 0.78429 0.28952 0.0
H431 H 0.539 0.83099 0.28197 0.0
Mn432 Mn 0.91272 0.39237 0.55897 0.0
Mn433 Mn 0.91295 0.35915 0.52409 0.0
C434 C 0.9492 0.35475 0.55278 0.0
C435 C 0.89832 0.39713 0.58477 0.0
C436 C 0.93654 0.42338 0.53001 0.0
O437 O 0.86945 0.40298 0.55058 0.0
O438 O 0.87225 0.37566 0.52883 0.0
C439 C 0.87083 0.30728 0.52969 0.0
N440 N 0.89849 0.31801 0.52489 0.0
C441 C 0.91133 0.26962 0.51351 0.0
C442 C 0.88308 0.25786 0.51841 0.0
C443 C 0.86292 0.27667 0.52673 0.0
C444 C 0.91863 0.29973 0.51754 0.0
H445 H 0.85481 0.32215 0.53549 0.0
C446 C 0.85749 0.39239 0.53826 0.0
O447 O 0.90795 0.42008 0.57676 0.0
O448 O 0.89518 0.37124 0.57756 0.0
N449 N 0.95096 0.34207 0.51756 0.0
C450 C 0.97704 0.35719 0.51353 0.0
C451 C 0.99941 0.34198 0.50489 0.0
C452 C 0.99421 0.31184 0.49999 0.0
C453 C 0.96728 0.29663 0.50439 0.0
C454 C 0.94628 0.31263 0.51344 0.0
H455 H 0.98041 0.38092 0.51655 0.0
O456 O 0.95405 0.37417 0.56373 0.0
O457 O 0.92305 0.35737 0.5459 0.0
O458 O 0.9328 0.42314 0.5444 0.0
O459 O 0.92868 0.40112 0.52147 0.0
C460 C 0.95966 0.26688 0.49948 0.0
C461 C 0.932 0.25313 0.50427 0.0
H462 H 0.8765 0.23457 0.51571 0.0
H463 H 0.84099 0.26785 0.53046 0.0
H464 H 0.02008 0.35387 0.50149 0.0
H465 H 0.01077 0.30098 0.49256 0.0
H466 H 0.97471 0.25447 0.49184 0.0
H467 H 0.92666 0.23006 0.50059 0.0
Mn468 Mn 0.3756 0.17102 0.31013 0.0
Mn469 Mn 0.41001 0.16929 0.27552 0.0
C470 C 0.41452 0.20586 0.30448 0.0
C471 C 0.37216 0.15302 0.33532 0.0
C472 C 0.34734 0.19777 0.28112 0.0
O473 O 0.36175 0.12961 0.30122 0.0
O474 O 0.39067 0.12935 0.27989 0.0
C475 C 0.45871 0.12408 0.28215 0.0
N476 N 0.45009 0.15216 0.27695 0.0
C477 C 0.50058 0.16231 0.26726 0.0
C478 C 0.5101 0.13348 0.2725 0.0
C479 C 0.48914 0.11443 0.28015 0.0
C480 C 0.47035 0.17119 0.2702 0.0
H481 H 0.44239 0.10911 0.28762 0.0
C482 C 0.37196 0.11668 0.28914 0.0
O483 O 0.34898 0.1659 0.32865 0.0
O484 O 0.39699 0.14989 0.32733 0.0
N485 N 0.43005 0.20601 0.26915 0.0
C486 C 0.41707 0.233 0.26478 0.0
C487 C 0.43467 0.25448 0.25672 0.0
C488 C 0.46505 0.24755 0.25277 0.0
C489 C 0.47804 0.21971 0.25749 0.0
C490 C 0.4596 0.19953 0.26582 0.0
H491 H 0.39329 0.23785 0.26713 0.0
O492 O 0.39576 0.21057 0.31573 0.0
O493 O 0.41105 0.1801 0.29722 0.0
O494 O 0.34642 0.19401 0.29559 0.0
O495 O 0.36929 0.18796 0.27279 0.0
C496 C 0.50815 0.21065 0.25375 0.0
C497 C 0.51959 0.18223 0.25888 0.0
H498 H 0.53335 0.12566 0.27062 0.0
H499 H 0.49626 0.09211 0.28419 0.0
H500 H 0.42452 0.2759 0.25311 0.0
H501 H 0.47797 0.26361 0.2459 0.0
H502 H 0.5228 0.22537 0.24699 0.0
H503 H 0.54293 0.17579 0.25617 0.0
Mn504 Mn 0.60065 0.63018 0.05892 0.0
Mn505 Mn 0.59881 0.66301 0.02397 0.0
C506 C 0.56504 0.6686 0.05373 0.0
C507 C 0.62004 0.62762 0.0838 0.0
C508 C 0.57101 0.60077 0.03082 0.0
O509 O 0.64159 0.61661 0.04938 0.0
O510 O 0.63875 0.64262 0.02721 0.0
C511 C 0.64564 0.71095 0.02895 0.0
N512 N 0.61682 0.70277 0.02467 0.0
C513 C 0.60605 0.7535 1.01549 0.0
C514 C 0.63558 0.76261 0.01985 0.0
C515 C 0.65535 0.74131 0.02677 0.0
C516 C 0.59722 0.72334 0.01859 0.0
H517 H 0.66113 0.69433 0.03383 0.0
C518 C 0.6527 0.62503 0.03653 0.0
O519 O 0.60713 0.60411 0.07744 0.0
O520 O 0.6226 0.65226 0.07562 0.0
N521 N 0.56182 0.68353 0.01853 0.0
C522 C 0.53432 0.67081 1.01482 0.0
C523 C 0.51236 0.68849 1.00717 0.0
C524 C 0.51923 0.71875 1.00303 0.0
C525 C 0.54747 0.7316 1.00722 0.0
C526 C 0.56829 0.71296 1.01502 0.0
H527 H 0.52944 0.64711 1.01733 0.0
O528 O 0.56135 0.65 0.06512 0.0
O529 O 0.59025 0.66516 0.04594 0.0
O530 O 0.57695 0.6001 0.0451 0.0
O531 O 0.5792 0.62271 0.0221 0.0
C532 C 0.55627 0.76173 1.00344 0.0
C533 C 0.58531 0.77286 1.00783 0.0
H534 H 0.6434 0.7858 0.01783 0.0
H535 H 0.67821 0.74811 0.0301 0.0
H536 H 0.49059 0.6785 1.00402 0.0
H537 H 0.50276 0.73169 0.99643 0.0
H538 H 0.54084 0.77664 0.99725 0.0
H539 H 0.59161 0.79621 1.00507 0.0
Mn540 Mn 0.13484 0.85075 0.80871 0.0
Mn541 Mn 0.101 0.84805 0.77409 0.0
C542 C 0.09754 0.81363 0.80367 0.0
C543 C 0.13709 0.86997 0.83371 0.0
C544 C 0.16536 0.82421 0.78027 0.0
O545 O 0.14656 0.89238 0.79903 0.0
O546 O 0.11749 0.88946 0.77786 0.0
C547 C 0.04914 0.89031 0.77958 0.0
N548 N 0.05983 0.86251 0.77498 0.0
C549 C 0.01064 0.84836 0.76495 0.0
C550 C 0.999 0.87685 0.76956 0.0
C551 C 0.01825 0.89777 0.77709 0.0
C552 C 0.04121 0.84171 0.76838 0.0
H553 H 0.06418 0.90672 0.78495 0.0
C554 C 0.13543 0.90403 0.78679 0.0
O555 O 0.16098 0.85815 0.82716 0.0
O556 O 0.11225 0.87167 0.82564 0.0
N557 N 0.08372 0.80957 0.76841 0.0
C558 C 0.09856 0.78303 0.76488 0.0
C559 C 0.08273 0.7597 0.75721 0.0
C560 C 0.05219 0.76431 0.7528 0.0
C561 C 0.03727 0.79172 0.75668 0.0
C562 C 0.05399 0.8138 0.76468 0.0
H563 H 0.12248 0.77996 0.76758 0.0
O564 O 0.11658 0.81052 0.81491 0.0
O565 O 0.09998 0.83898 0.79597 0.0
O566 O 0.16551 0.8285 0.79469 0.0
O567 O 0.14303 0.83212 0.77174 0.0
C568 C 0.00683 0.79847 0.75247 0.0
C569 C 0.99339 0.82657 0.7568 0.0
H570 H 0.97539 0.88297 0.76731 0.0
H571 H 0.00946 0.91982 0.78066 0.0
H572 H 0.09435 0.7386 0.75426 0.0
H573 H 0.04055 0.74672 0.7463 0.0
H574 H 0.99348 0.78217 0.74596 0.0
H575 H 0.96982 0.83123 0.75373 0.0
Mn576 Mn 0.59296 0.87843 0.55985 0.0
Mn577 Mn 0.59594 0.8451 0.52498 0.0
C578 C 0.55995 0.83806 0.55394 0.0
C579 C 0.60949 0.88225 0.58525 0.0
C580 C 0.56339 0.90543 0.53089 0.0
O581 O 0.63427 0.89374 0.55142 0.0
O582 O 0.63337 0.86947 0.52875 0.0
C583 C 0.64718 0.80273 0.53154 0.0
N584 N 0.61801 0.80752 0.52659 0.0
C585 C 0.61308 0.75505 0.51871 0.0
C586 C 0.64307 0.74947 0.52373 0.0
C587 C 0.66009 0.77337 0.53031 0.0
C588 C 0.60105 0.78446 0.5208 0.0
H589 H 0.66056 0.82124 0.53627 0.0
C590 C 0.64613 0.88703 0.53849 0.0
O591 O 0.59621 0.90503 0.57844 0.0
O592 O 0.61401 0.85765 0.57726 0.0
N593 N 0.56187 0.82046 0.51903 0.0
C594 C 0.53369 0.82998 0.51431 0.0
C595 C 0.51421 0.80927 0.50687 0.0
C596 C 0.52428 0.77933 0.5039 0.0
C597 C 0.55329 0.76994 0.50892 0.0
C598 C 0.57151 0.79146 0.51649 0.0
H599 H 0.52636 0.85335 0.51596 0.0
O600 O 0.55402 0.85676 0.56506 0.0
O601 O 0.5857 0.84273 0.54678 0.0
O602 O 0.56951 0.90721 0.54515 0.0
O603 O 0.57234 0.88326 0.52245 0.0
C604 C 0.56539 0.74051 0.50613 0.0
C605 C 0.595 0.73286 0.51131 0.0
H606 H 0.65333 0.72702 0.52246 0.0
H607 H 0.68327 0.76931 0.53417 0.0
H608 H 0.49188 0.81666 0.50299 0.0
H609 H 0.50979 0.76403 0.49742 0.0
H610 H 0.55221 0.72352 0.49999 0.0
H611 H 0.60385 0.71004 0.50929 0.0
Mn612 Mn 0.37087 0.35418 0.81326 0.0
Mn613 Mn 0.39802 0.3494 0.77713 0.0
C614 C 0.41213 0.32201 0.80756 0.0
C615 C 0.36609 0.37097 0.83866 0.0
C616 C 0.33983 0.31832 0.78729 0.0
O617 O 0.35488 0.39423 0.80351 0.0
O618 O 0.37399 0.38758 0.77979 0.0
C619 C 0.44056 0.40231 0.77774 0.0
N620 N 0.43548 0.37185 0.7755 0.0
C621 C 0.48832 0.36344 0.76886 0.0
C622 C 0.49407 0.39473 0.77101 0.0
C623 C 0.47009 0.41424 0.77548 0.0
C624 C 0.45836 0.35292 0.77113 0.0
H625 H 0.42227 0.4174 0.78124 0.0
C626 C 0.35919 0.40331 0.78971 0.0
O627 O 0.34394 0.35831 0.83123 0.0
O628 O 0.39105 0.37639 0.83093 0.0
N629 N 0.42221 0.31394 0.7731 0.0
C630 C 0.41322 0.28409 0.77254 0.0
C631 C 0.43473 0.26147 0.76885 0.0
C632 C 0.46512 0.26984 0.76575 0.0
C633 C 0.47379 0.30069 0.76617 0.0
C634 C 0.45129 0.32227 0.76981 0.0
H635 H 0.38992 0.27755 0.77507 0.0
O636 O 0.39436 0.31629 0.81911 0.0
O637 O 0.4049 0.34595 0.79946 0.0
O638 O 0.34141 0.32868 0.80077 0.0
O639 O 0.35971 0.32465 0.7771 0.0
C640 C 0.50401 0.31078 0.76359 0.0
C641 C 0.51126 0.34215 0.76491 0.0
H642 H 0.51687 0.40398 0.7694 0.0
H643 H 0.47437 0.4384 0.77723 0.0
H644 H 0.42802 0.23762 0.76856 0.0
H645 H 0.4817 0.25232 0.76338 0.0
H646 H 0.52199 0.29459 0.76087 0.0
H647 H 0.53466 0.34958 0.76312 0.0
Mn648 Mn 0.91162 0.12418 0.06314 0.0
Mn649 Mn 0.90948 0.16215 0.02947 0.0
C650 C 0.94232 0.16758 0.05919 0.0
C651 C 0.89685 0.11527 0.08863 0.0
C652 C 0.94228 0.10148 0.03365 0.0
O653 O 0.87066 0.10928 0.05366 0.0
O654 O 0.87208 0.13753 0.03213 0.0
C655 C 0.85758 0.20417 0.03554 0.0
N656 N 0.88737 0.1997 0.0315 0.0
C657 C 0.89498 0.25369 0.02752 0.0
C658 C 0.86434 0.2589 0.03159 0.0
C659 C 0.84558 0.23403 0.03565 0.0
C660 C 0.90556 0.22342 0.02751 0.0
H661 H 0.8431 0.18511 0.03865 0.0
C662 C 0.85893 0.11825 0.04095 0.0
O663 O 0.90963 0.0943 0.08031 0.0
O664 O 0.89051 0.14096 0.08183 0.0
N665 N 0.94432 0.18706 0.02545 0.0
C666 C 0.97378 0.17818 0.02288 0.0
C667 C 0.99585 0.20037 0.01942 0.0
C668 C 0.98729 0.23129 0.01863 0.0
C669 C 0.95674 0.23983 0.02092 0.0
C670 C 0.93572 0.21669 0.02426 0.0
H671 H 0.98045 0.15442 0.02364 0.0
O672 O 0.94982 0.1472 0.06929 0.0
O673 O 0.91739 0.16187 0.05159 0.0
O674 O 0.93617 0.09823 0.04779 0.0
O675 O 0.93309 0.12437 0.02587 0.0
C676 C 0.94654 0.27046 0.02056 0.0
C677 C 0.91564 0.27738 0.02382 0.0
H678 H 0.85507 0.2819 0.03179 0.0
H679 H 0.82195 0.23787 0.03885 0.0
H680 H 0.01945 0.19372 0.01759 0.0
H681 H 1.00451 0.24832 1.01669 0.0
H682 H 0.96238 0.28889 0.01809 0.0
H683 H 0.90816 0.30103 0.02376 0.0
Mn684 Mn 0.1434 0.6665 0.31007 0.0
Mn685 Mn 0.12039 0.67518 0.27344 0.0
C686 C 0.10254 0.69879 0.30426 0.0
C687 C 0.14283 0.64368 0.33426 0.0
C688 C 0.17702 0.70567 0.28606 0.0
O689 O 0.16162 0.6284 0.29948 0.0
O690 O 0.14463 0.63707 0.2755 0.0
C691 C 0.07829 0.62211 0.27163 0.0
N692 N 0.08333 0.65279 0.27032 0.0
C693 C 0.03098 0.66172 0.26305 0.0
C694 C 0.02526 0.63021 0.26421 0.0
C695 C 0.04903 0.61033 0.26854 0.0
C696 C 0.06067 0.6721 0.26613 0.0
H697 H 0.09643 0.60675 0.27502 0.0
C698 C 0.15905 0.62098 0.28536 0.0
O699 O 0.16621 0.65913 0.32942 0.0
O700 O 0.12017 0.64012 0.32481 0.0
N701 N 0.09638 0.71093 0.26991 0.0
C702 C 0.10524 0.74082 0.27038 0.0
C703 C 0.08394 0.76376 0.2669 0.0
C704 C 0.05389 0.75567 0.26295 0.0
C705 C 0.04532 0.72477 0.26241 0.0
C706 C 0.06763 0.70289 0.26585 0.0
H707 H 0.1283 0.74712 0.27352 0.0
O708 O 0.11834 0.70277 0.31664 0.0
O709 O 0.11132 0.67625 0.29554 0.0
O710 O 0.17416 0.69475 0.29948 0.0
O711 O 0.15838 0.69965 0.27528 0.0
C712 C 0.01537 0.71483 0.25902 0.0
C713 C 0.00822 0.68333 0.25932 0.0
H714 H 1.00266 0.62106 0.26196 0.0
H715 H 0.04476 0.58599 0.26954 0.0
H716 H 0.09055 0.78763 0.26738 0.0
H717 H 0.03757 0.77344 0.2606 0.0
H718 H 0.99751 0.73117 0.25643 0.0
H719 H 0.98501 0.67602 0.25692 0.0
Mn720 Mn 0.60914 0.12563 0.97287 0.0
Mn721 Mn 0.602 0.14329 1.01033 0.0
C722 C 0.57627 0.16487 0.9808 0.0
C723 C 0.63019 0.13024 0.94826 0.0
C724 C 0.57234 0.08768 0.99621 0.0
O725 O 0.64829 0.10679 0.98224 0.0
O726 O 0.64026 0.12004 1.00688 0.0
C727 C 0.65438 0.18614 1.01262 0.0
N728 N 0.62391 0.1803 1.01429 0.0
C729 C 0.61451 0.23134 0.0235 0.0
C730 C 0.6458 0.23789 0.02196 0.0
C731 C 0.66581 0.21519 1.01646 0.0
C732 C 0.60445 0.20199 0.0195 0.0
H733 H 0.66982 0.16879 1.00836 0.0
C734 C 0.65609 0.10724 0.99637 0.0
O735 O 0.61579 0.10583 0.9526 0.0
O736 O 0.63388 0.15159 0.95846 0.0
N737 N 0.56606 0.166 1.01531 0.0
C738 C 0.53643 0.15625 1.01557 0.0
C739 C 0.51349 0.17612 0.0208 0.0
C740 C 0.52132 0.20566 0.02573 0.0
C741 C 0.55194 0.21525 0.02528 0.0
C742 C 0.57386 0.19429 0.02018 0.0
H743 H 0.53034 0.13347 1.01187 0.0
O744 O 0.57178 0.15085 0.96792 0.0
O745 O 0.59955 0.15528 0.98871 0.0
O746 O 0.58255 0.09255 0.9828 0.0
O747 O 0.57814 0.10525 1.00748 0.0
C748 C 0.5616 0.24477 0.02961 0.0
C749 C 0.59281 0.25289 0.02865 0.0
H750 H 0.65468 0.2603 0.02487 0.0
H751 H 0.68997 0.22009 1.01518 0.0
H752 H 0.48985 0.16868 0.02107 0.0
H753 H 0.50353 0.22066 0.02981 0.0
H754 H 0.54523 0.26148 0.03357 0.0
H755 H 0.59985 0.2758 0.03184 0.0
Mn756 Mn 0.13858 0.36283 0.22214 0.0
Mn757 Mn 0.12037 0.35614 0.25955 0.0
C758 C 0.10407 0.32532 0.2301 0.0
C759 C 0.13232 0.38326 0.19759 0.0
C760 C 0.17968 0.3322 0.24613 0.0
O761 O 0.15343 0.40378 0.23119 0.0
O762 O 0.13708 0.39748 0.25537 0.0
C763 C 0.06942 0.40087 0.26029 0.0
N764 N 0.08017 0.37204 0.26283 0.0
C765 C 0.03263 0.35667 0.27438 0.0
C766 C 0.02097 0.38618 0.27188 0.0
C767 C 0.03937 0.4083 0.26468 0.0
C768 C 0.06232 0.3503 0.26925 0.0
H769 H 0.08372 0.41809 0.25503 0.0
C770 C 0.1495 0.41359 0.24485 0.0
O771 O 0.158 0.37133 0.20198 0.0
O772 O 0.11043 0.38458 0.20766 0.0
N773 N 0.10379 0.31757 0.26564 0.0
C774 C 0.11892 0.29056 0.26768 0.0
C775 C 0.10415 0.26627 0.27512 0.0
C776 C 0.07439 0.2703 0.28083 0.0
C777 C 0.05934 0.29838 0.27873 0.0
C778 C 0.07502 0.3216 0.27098 0.0
H779 H 0.14221 0.28762 0.26382 0.0
O780 O 0.11822 0.32299 0.21712 0.0
O781 O 0.10982 0.34996 0.23794 0.0
O782 O 0.17375 0.33991 0.23242 0.0
O783 O 0.16186 0.33822 0.25731 0.0
C784 C 0.02998 0.30475 0.28461 0.0
C785 C 0.01635 0.33362 0.28216 0.0
H786 H 0.99804 0.39217 0.27555 0.0
H787 H 0.03057 0.43114 0.26274 0.0
H788 H 0.11598 0.24475 0.27681 0.0
H789 H 0.06375 0.25184 0.28711 0.0
H790 H 0.01789 0.28784 0.29131 0.0
H791 H 0.9936 0.33805 0.28659 0.0
Mn792 Mn 0.90694 0.8814 0.4754 0.0
Mn793 Mn 0.90908 0.84778 0.51013 0.0
C794 C 0.944 0.84422 0.48069 0.0
C795 C 0.88793 0.88275 0.45029 0.0
C796 C 0.93495 0.91134 0.50391 0.0
O797 O 0.86503 0.89321 0.48466 0.0
O798 O 0.86872 0.86691 0.50659 0.0
C799 C 0.86354 0.79907 0.50418 0.0
N800 N 0.89202 0.80766 0.50883 0.0
C801 C 0.90369 0.75662 0.51723 0.0
C802 C 0.87452 0.74711 0.51251 0.0
C803 C 0.85447 0.76838 0.5058 0.0
C804 C 0.91191 0.78717 0.5147 0.0
H805 H 0.8478 0.81557 0.4994 0.0
C806 C 0.85379 0.88383 0.49733 0.0
O807 O 0.8997 0.90691 0.45663 0.0
O808 O 0.88636 0.85827 0.45862 0.0
N809 N 0.94632 0.82785 0.51575 0.0
C810 C 0.97333 0.84095 0.51998 0.0
C811 C 0.99561 0.8231 0.52733 0.0
C812 C 0.98945 0.7923 0.53074 0.0
C813 C 0.9615 0.77925 0.52626 0.0
C814 C 0.94047 0.79799 0.51866 0.0
H815 H 0.9776 0.86499 0.51806 0.0
O816 O 0.94731 0.86316 0.46942 0.0
O817 O 0.91847 0.84666 0.48828 0.0
O818 O 0.92906 0.91224 0.48959 0.0
O819 O 0.92765 0.8887 0.51243 0.0
C820 C 0.95314 0.74876 0.52958 0.0
C821 C 0.92456 0.73726 0.52477 0.0
H822 H 0.86717 0.72363 0.51411 0.0
H823 H 0.83187 0.76128 0.50217 0.0
H824 H 0.01709 0.83331 0.53079 0.0
H825 H 1.00617 0.77909 0.53704 0.0
H826 H 0.96847 0.73388 0.53585 0.0
H827 H 0.91865 0.71365 0.52716 0.0
Mn828 Mn 0.3747 0.656 0.72393 0.0
Mn829 Mn 0.39385 0.6641 0.76107 0.0
C830 C 0.41498 0.68839 0.731 0.0
C831 C 0.37736 0.6338 0.6996 0.0
C832 C 0.33818 0.69422 0.74722 0.0
O833 O 0.3555 0.61756 0.73391 0.0
O834 O 0.37047 0.62566 0.75828 0.0
C835 C 0.43677 0.61178 0.76351 0.0
N836 N 0.43102 0.64233 0.76485 0.0
C837 C 0.48259 0.65217 0.7731 0.0
C838 C 0.48906 0.6208 0.7719 0.0
C839 C 0.46605 0.60053 0.76705 0.0
C840 C 0.45298 0.66202 0.76946 0.0
H841 H 0.41919 0.59614 0.75973 0.0
C842 C 0.35693 0.60977 0.74804 0.0
O843 O 0.35361 0.6491 0.70409 0.0
O844 O 0.39926 0.63002 0.70948 0.0
N845 N 0.41675 0.70022 0.76532 0.0
C846 C 0.40708 0.72989 0.76518 0.0
C847 C 0.4273 0.7531 0.76966 0.0
C848 C 0.45711 0.7455 0.77423 0.0
C849 C 0.46662 0.71483 0.77417 0.0
C850 C 0.44532 0.69265 0.76983 0.0
H851 H 0.38412 0.73582 0.76171 0.0
O852 O 0.40048 0.69255 0.71825 0.0
O853 O 0.40524 0.66563 0.73929 0.0
O854 O 0.3428 0.68384 0.73384 0.0
O855 O 0.35561 0.68799 0.75847 0.0
C856 C 0.49641 0.70539 0.77812 0.0
C857 C 0.50447 0.67413 0.77753 0.0
H858 H 0.51165 0.61206 0.77455 0.0
H859 H 0.47088 0.5763 0.76602 0.0
H860 H 0.41995 0.77677 0.7696 0.0
H861 H 0.47239 0.76349 0.77771 0.0
H862 H 0.51336 0.72199 0.78145 0.0
H863 H 0.52759 0.66727 0.78041 0.0
Mn864 Mn 0.4052 0.11866 0.47113 0.0
Mn865 Mn 0.41676 0.14249 0.50736 0.0
C866 C 0.44497 0.15256 0.47675 0.0
C867 C 0.38532 0.11913 0.44613 0.0
C868 C 0.43854 0.0813 0.49619 0.0
O869 O 0.36375 0.1085 0.48116 0.0
O870 O 0.37662 0.12166 0.50515 0.0
C871 C 0.36798 0.18967 0.50713 0.0
N872 N 0.39773 0.18163 0.50955 0.0
C873 C 0.4094 0.23127 0.51987 0.0
C874 C 0.37891 0.24016 0.51748 0.0
C875 C 0.35819 0.21935 0.51094 0.0
C876 C 0.41812 0.20184 0.51525 0.0
H877 H 0.35182 0.1735 0.50245 0.0
C878 C 0.35791 0.11032 0.49545 0.0
O879 O 0.39494 0.09446 0.45272 0.0
O880 O 0.38553 0.14394 0.4544 0.0
N881 N 0.45418 0.16312 0.51194 0.0
C882 C 0.48251 0.1506 0.51383 0.0
C883 C 0.50561 0.1678 0.5209 0.0
C884 C 0.49907 0.19728 0.52638 0.0
C885 C 0.46983 0.20987 0.52418 0.0
C886 C 0.44787 0.19181 0.51684 0.0
H887 H 0.48726 0.12738 0.51029 0.0
O888 O 0.44607 0.13494 0.46483 0.0
O889 O 0.42047 0.15018 0.48518 0.0
O890 O 0.426 0.08424 0.48315 0.0
O891 O 0.43774 0.10229 0.5063 0.0
C892 C 0.46123 0.23913 0.52952 0.0
C893 C 0.43126 0.25009 0.52705 0.0
H894 H 0.37111 0.26279 0.52075 0.0
H895 H 0.3346 0.22599 0.50909 0.0
H896 H 0.52812 0.15798 0.52258 0.0
H897 H 0.51658 0.2098 0.5325 0.0
H898 H 0.47746 0.25346 0.53554 0.0
H899 H 0.42509 0.27279 0.53099 0.0
Mn900 Mn 0.64728 0.66432 0.21951 0.0
Mn901 Mn 0.62331 0.67059 0.2561 0.0
C902 C 0.60706 0.69754 0.22586 0.0
C903 C 0.64925 0.64454 0.19454 0.0
C904 C 0.68234 0.69842 0.24472 0.0
O905 O 0.66346 0.6245 0.22943 0.0
O906 O 0.64416 0.63091 0.25313 0.0
C907 C 0.57676 0.62122 0.25665 0.0
N908 N 0.5844 0.65122 0.25857 0.0
C909 C 0.53304 0.66399 0.26624 0.0
C910 C 0.52461 0.63323 0.26439 0.0
C911 C 0.54657 0.61176 0.25956 0.0
C912 C 0.5635 0.67202 0.26326 0.0
H913 H 0.59355 0.60466 0.25292 0.0
C914 C 0.65871 0.61516 0.24315 0.0
O915 O 0.67218 0.65808 0.20094 0.0
O916 O 0.62482 0.641 0.20292 0.0
N917 N 0.60245 0.70792 0.2603 0.0
C918 C 0.61396 0.73691 0.26058 0.0
C919 C 0.59493 0.76118 0.26496 0.0
C920 C 0.56442 0.7553 0.26898 0.0
C921 C 0.55297 0.72535 0.26845 0.0
C922 C 0.57313 0.70203 0.26423 0.0
H923 H 0.63745 0.7415 0.2575 0.0
O924 O 0.62357 0.70236 0.21374 0.0
O925 O 0.61495 0.6739 0.23398 0.0
O926 O 0.67855 0.6898 0.23102 0.0
O927 O 0.66338 0.692 0.2553 0.0
C928 C 0.52231 0.71778 0.27168 0.0
C929 C 0.5123 0.68714 0.27059 0.0
H930 H 0.5013 0.62588 0.26653 0.0
H931 H 0.54022 0.58799 0.25806 0.0
H932 H 0.60372 0.78435 0.26523 0.0
H933 H 0.55006 0.77407 0.27235 0.0
H934 H 0.50615 0.73541 0.27473 0.0
H935 H 0.48854 0.68173 0.2729 0.0
Mn936 Mn 0.10323 0.89512 0.9702 0.0
Mn937 Mn 0.09712 0.87054 1.0067 0.0
C938 C 0.06985 0.85493 0.97659 0.0
C939 C 0.12206 0.89738 0.94497 0.0
C940 C 0.06899 0.92965 0.99575 0.0
O941 O 0.1435 0.9109 0.97994 0.0
O942 O 0.13609 0.89251 1.00372 0.0
C943 C 0.14789 0.82548 1.00644 0.0
N944 N 0.11775 0.83217 1.00871 0.0
C945 C 0.10679 0.78014 1.01584 0.0
C946 C 0.13773 0.7727 1.01365 0.0
C947 C 0.15836 0.79548 1.00891 0.0
C948 C 0.09772 0.81045 1.01325 0.0
H949 H 0.16383 0.84287 1.00273 0.0
C950 C 0.15228 0.90666 0.99379 0.0
O951 O 0.10905 0.92029 0.95167 0.0
O952 O 0.1258 0.87281 0.95321 0.0
N953 N 0.06054 0.84843 1.01105 0.0
C954 C 0.0313 0.85915 1.012 0.0
C955 C 0.00786 0.83933 1.01667 0.0
C956 C 0.01481 0.80881 0.02027 0.0
C957 C 0.04499 0.79821 0.01901 0.0
C958 C 0.06747 0.81915 1.01461 0.0
H959 H 0.02591 0.88266 1.00931 0.0
O960 O 0.06482 0.8717 0.9646 0.0
O961 O 0.09369 0.86258 0.98457 0.0
O962 O 0.07842 0.92642 0.98213 0.0
O963 O 0.07454 0.91007 1.00618 0.0
C964 C 0.05364 0.76767 0.02179 0.0
C965 C 0.08446 0.75857 0.02019 0.0
H966 H 0.14584 0.74954 1.01547 0.0
H967 H 0.18226 0.78992 1.00713 0.0
H968 H 0.98453 0.84753 0.01754 0.0
H969 H 0.99671 0.79381 0.02398 0.0
H970 H 0.03669 0.75094 0.02489 0.0
H971 H 0.09067 0.73489 0.02219 0.0
Mn972 Mn 0.87315 0.35293 0.72063 0.0
Mn973 Mn 0.89193 0.3439 0.75775 0.0
C974 C 0.91248 0.31928 0.72766 0.0
C975 C 0.87747 0.37533 0.69638 0.0
C976 C 0.83421 0.31748 0.74379 0.0
O977 O 0.85526 0.39189 0.73086 0.0
O978 O 0.87273 0.38452 0.75485 0.0
C979 C 0.93967 0.39165 0.76097 0.0
N980 N 0.93094 0.36177 0.76194 0.0
C981 C 0.98081 0.34672 0.77084 0.0
C982 C 0.99033 0.37735 0.77001 0.0
C983 C 0.96966 0.3999 0.76503 0.0
C984 C 0.95059 0.33991 0.76676 0.0
H985 H 0.9239 0.40904 0.75709 0.0
C986 C 0.85919 0.40081 0.74473 0.0
O987 O 0.85293 0.36104 0.70064 0.0
O988 O 0.89908 0.37821 0.70648 0.0
N989 N 0.91113 0.30553 0.76176 0.0
C990 C 0.89893 0.27686 0.76088 0.0
C991 C 0.91678 0.25159 0.76512 0.0
C992 C 0.94687 0.25612 0.77021 0.0
C993 C 0.95905 0.2858 0.77084 0.0
C994 C 0.94005 0.31013 0.76668 0.0
H995 H 0.87578 0.27326 0.75698 0.0
O996 O 0.89795 0.3156 0.71487 0.0
O997 O 0.9031 0.34205 0.73601 0.0
O998 O 0.83997 0.32613 0.73022 0.0
O999 O 0.85157 0.32391 0.75504 0.0
C1000 C 0.98937 0.29218 0.77521 0.0
C1001 C 1.00031 0.32257 0.77521 0.0
H1002 H 0.01351 0.38376 0.77302 0.0
H1003 H 0.97686 0.42357 0.76429 0.0
H1004 H 0.90738 0.2287 0.76448 0.0
H1005 H 0.96035 0.23655 0.77351 0.0
H1006 H 1.00455 0.27382 0.77834 0.0
H1007 H 0.02386 0.32704 0.77838 0.0
Mn1008 Mn 0.40699 0.8974 0.06058 0.0
Mn1009 Mn 0.40292 0.86068 0.02659 0.0
C1010 C 0.43664 0.85378 0.05611 0.0
C1011 C 0.39228 0.90582 0.08611 0.0
C1012 C 0.43793 0.91984 0.03105 0.0
O1013 O 0.36666 0.91391 0.05147 0.0
O1014 O 0.36658 0.88712 0.02938 0.0
C1015 C 0.34955 0.82083 0.03302 0.0
N1016 N 0.37935 0.82408 0.02871 0.0
C1017 C 0.38487 0.76973 0.02505 0.0
C1018 C 0.35418 0.76579 0.02937 0.0
C1019 C 0.33646 0.79145 0.0334 0.0
C1020 C 0.39656 0.79957 0.02478 0.0
H1021 H 0.33591 0.8405 0.03615 0.0
C1022 C 0.35479 0.90652 0.03859 0.0
O1023 O 0.40577 0.92671 0.07801 0.0
O1024 O 0.38551 0.88049 0.0791 0.0
N1025 N 0.43658 0.83437 0.02224 0.0
C1026 C 0.46616 0.84212 0.01917 0.0
C1027 C 0.48723 0.81908 1.01553 0.0
C1028 C 0.47759 0.78845 1.01508 0.0
C1029 C 0.44686 0.78109 0.01781 0.0
C1030 C 0.42684 0.80508 0.02126 0.0
H1031 H 0.47371 0.86563 0.01967 0.0
O1032 O 0.4446 0.87356 0.06642 0.0
O1033 O 0.41158 0.86005 0.04867 0.0
O1034 O 0.43199 0.92295 0.04523 0.0
O1035 O 0.428 0.89748 0.0231 0.0
C1036 C 0.43554 0.75086 0.01773 0.0
C1037 C 0.40453 0.74519 0.02134 0.0
H1038 H 0.34406 0.74315 0.02978 0.0
H1039 H 0.3128 0.78858 0.0368 0.0
H1040 H 0.5109 0.82488 1.01326 0.0
H1041 H 0.49412 0.77077 1.013 0.0
H1042 H 0.45059 0.7318 1.01519 0.0
H1043 H 0.39617 0.72184 0.02148 0.0
Mn1044 Mn 0.86754 0.65707 0.8099 0.0
Mn1045 Mn 0.90411 0.65294 0.77588 0.0
C1046 C 0.91163 0.68603 0.8055 0.0
C1047 C 0.85853 0.64352 0.83545 0.0
C1048 C 0.8463 0.68985 0.78062 0.0
O1049 O 0.85076 0.6167 0.80092 0.0
O1050 O 0.87569 0.61797 0.77832 0.0
C1051 C 0.94062 0.59706 0.78203 0.0
N1052 N 0.93923 0.62712 0.77793 0.0
C1053 C 0.99393 0.62949 0.77471 0.0
C1054 C 0.99594 0.59851 0.77881 0.0
C1055 C 0.96916 0.58224 0.78251 0.0
C1056 C 0.96483 0.64295 0.77433 0.0
H1057 H 0.92013 0.5845 0.78493 0.0
C1058 C 0.85695 0.60564 0.78771 0.0
O1059 O 0.83789 0.65686 0.82716 0.0
O1060 O 0.88383 0.63591 0.82858 0.0
N1061 N 0.93251 0.68502 0.77179 0.0
C1062 C 0.92663 0.71501 0.76868 0.0
C1063 C 0.95098 0.73465 0.76519 0.0
C1064 C 0.98103 0.72324 0.765 0.0
C1065 C 0.98645 0.69213 0.76771 0.0
C1066 C 0.96121 0.67356 0.77095 0.0
H1067 H 0.90358 0.72394 0.769 0.0
O1068 O 0.89171 0.69443 0.81567 0.0
O1069 O 0.90516 0.661 0.79805 0.0
O1070 O 0.84241 0.68223 0.79454 0.0
O1071 O 0.86886 0.68046 0.77261 0.0
C1072 C 0.01595 0.67904 0.76778 0.0
C1073 C 0.01969 0.64771 0.77128 0.0
H1074 H 0.01792 0.58705 0.77929 0.0
H1075 H 0.97053 0.55836 0.78575 0.0
H1076 H 0.9466 0.75856 0.76282 0.0
H1077 H 0.99981 0.73859 0.76305 0.0
H1078 H 0.03594 0.69296 0.76541 0.0
H1079 H 0.0425 0.63796 0.77151 0.0
Mn1080 Mn 0.10112 0.12364 0.55997 0.0
Mn1081 Mn 0.09289 0.14141 0.52271 0.0
C1082 C 0.06786 0.16291 0.55258 0.0
C1083 C 0.12347 0.12853 0.58418 0.0
C1084 C 0.06554 0.08436 0.53693 0.0
O1085 O 0.14013 0.10545 0.55005 0.0
O1086 O 0.13331 0.12186 0.52584 0.0
C1087 C 0.14135 0.18846 0.51948 0.0
N1088 N 0.11135 0.18013 0.51846 0.0
C1089 C 0.09703 0.23037 0.50978 0.0
C1090 C 0.12777 0.23947 0.51067 0.0
C1091 C 0.15002 0.2184 0.51555 0.0
C1092 C 0.08979 0.20015 0.51371 0.0
H1093 H 0.15852 0.17242 0.52332 0.0
C1094 C 0.14939 0.10884 0.53621 0.0
O1095 O 0.10899 0.10396 0.58012 0.0
O1096 O 0.1264 0.14985 0.57392 0.0
N1097 N 0.05484 0.16103 0.51848 0.0
C1098 C 0.02601 0.14919 0.51925 0.0
C1099 C 1.00101 0.16745 0.51504 0.0
C1100 C 1.00598 0.19759 0.51012 0.0
C1101 C 0.03583 0.20939 0.50961 0.0
C1102 C 0.05987 0.18999 0.5137 0.0
H1103 H 0.02206 0.12601 0.52305 0.0
O1104 O 0.06387 0.1487 0.56545 0.0
O1105 O 0.0907 0.1532 0.54436 0.0
O1106 O 0.07424 0.09042 0.55047 0.0
O1107 O 0.07229 0.10128 0.52555 0.0
C1108 C 0.04265 0.23973 0.50544 0.0
C1109 C 0.07316 0.25028 0.50551 0.0
H1110 H 0.1345 0.26263 0.50777 0.0
H1111 H 0.17378 0.22527 0.51634 0.0
H1112 H 0.97799 0.15834 0.51558 0.0
H1113 H 0.98662 0.2114 0.50684 0.0
H1114 H 0.02453 0.25521 0.5024 0.0
H1115 H 0.07794 0.27385 0.50247 0.0
Mn1116 Mn 0.64368 0.36229 0.3091 0.0
Mn1117 Mn 0.61139 0.36231 0.27403 0.0
C1118 C 0.60026 0.33275 0.30432 0.0
C1119 C 0.64705 0.38217 0.33395 0.0
C1120 C 0.66912 0.32666 0.28156 0.0
O1121 O 0.66227 0.40084 0.29918 0.0
O1122 O 0.63839 0.39833 0.27635 0.0
C1123 C 0.57244 0.41741 0.27752 0.0
N1124 N 0.57529 0.38703 0.27429 0.0
C1125 C 0.52124 0.3824 0.26951 0.0
C1126 C 0.51773 0.41369 0.27268 0.0
C1127 C 0.54344 0.43125 0.27673 0.0
C1128 C 0.55074 0.36995 0.27036 0.0
H1129 H 0.59212 0.43094 0.2807 0.0
C1130 C 0.65679 0.41107 0.28574 0.0
O1131 O 0.66928 0.36629 0.32805 0.0
O1132 O 0.6237 0.38758 0.32524 0.0
N1133 N 0.58463 0.3288 0.27004 0.0
C1134 C 0.5918 0.29868 0.26816 0.0
C1135 C 0.56854 0.27779 0.26461 0.0
C1136 C 0.53829 0.28816 0.26305 0.0
C1137 C 0.53156 0.31933 0.26462 0.0
C1138 C 0.55574 0.33914 0.26801 0.0
H1139 H 0.61501 0.29061 0.26951 0.0
O1140 O 0.61835 0.32617 0.31557 0.0
O1141 O 0.60803 0.35649 0.29618 0.0
O1142 O 0.67102 0.33443 0.29562 0.0
O1143 O 0.64781 0.33599 0.27274 0.0
C1144 C 0.50171 0.33139 0.26344 0.0
C1145 C 0.49655 0.36292 0.26587 0.0
H1146 H 0.49537 0.4244 0.2722 0.0
H1147 H 0.54089 0.45538 0.27928 0.0
H1148 H 0.57385 0.25373 0.26326 0.0
H1149 H 0.52033 0.27195 0.26093 0.0
H1150 H 0.48249 0.31654 0.26093 0.0
H1151 H 0.47346 0.37187 0.26516 0.0
H1152 H 0.96816 0.57139 0.02182 0.0
H1153 H 0.9548 0.54467 0.97446 0.0
H1154 H 0.98773 0.49969 0.97847 0.0
H1155 H 0.04696 0.54958 0.02423 0.0
H1156 H 0.04439 0.53529 0.0435 0.0
H1157 H 0.01895 0.56523 0.03721 0.0
H1158 H 0.97206 0.53237 0.045 0.0
H1159 H 0.99736 0.50243 0.05141 0.0
H1160 H 0.96819 0.49413 0.03747 0.0
H1161 H 0.02316 0.45865 0.98708 0.0
H1162 H 0.05674 0.42202 1.0002 0.0
H1163 H 0.04745 0.47422 0.04225 0.0
C1164 C 0.97187 0.55594 1.01232 0.0
C1165 C 0.95874 0.56175 0.9978 0.0
C1166 C 0.96447 0.54092 0.98569 0.0
C1167 C 0.98324 0.51525 0.98783 0.0
C1168 C 0.99617 0.51053 1.00216 0.0
C1169 C 0.9906 0.53008 1.01425 0.0
C1170 C 0.00755 0.5196 0.02846 0.0
C1171 C 0.03084 0.54387 0.03365 0.0
C1172 C 0.98494 0.51166 0.04134 0.0
C1173 C 0.02352 0.49115 0.02243 0.0
C1174 C 0.01665 0.48651 1.0072 0.0
C1175 C 0.02864 0.46196 0.99902 0.0
C1176 C 0.04783 0.44128 1.00661 0.0
C1177 C 0.05491 0.44506 0.02232 0.0
C1178 C 0.04265 0.4706 0.03026 0.0
H1179 H 0.69898 0.72623 0.27208 0.0
H1180 H 0.72825 0.71372 0.22499 0.0
H1181 H 0.77316 0.74597 0.22974 0.0
H1182 H 0.7225 0.80517 0.27534 0.0
H1183 H 0.7358 0.80171 0.29475 0.0
H1184 H 0.70553 0.77724 0.28794 0.0
H1185 H 0.73683 0.72937 0.29577 0.0
H1186 H 0.76715 0.7537 0.30265 0.0
H1187 H 0.77526 0.72463 0.28859 0.0
H1188 H 0.8143 0.77962 0.23894 0.0
H1189 H 0.85105 0.81216 0.25248 0.0
H1190 H 0.79702 0.80368 0.29405 0.0
C1191 C 0.71491 0.73016 0.2628 0.0
C1192 C 0.70986 0.7173 0.24814 0.0
C1193 C 0.73133 0.7232 0.23631 0.0
C1194 C 0.75703 0.74156 0.23887 0.0
C1195 C 0.7612 0.75398 0.25334 0.0
C1196 C 0.74093 0.74854 0.26515 0.0
C1197 C 0.75123 0.76487 0.27961 0.0
C1198 C 0.72734 0.78866 0.2847 0.0
C1199 C 0.75803 0.74176 0.29241 0.0
C1200 C 0.78039 0.78024 0.27398 0.0
C1201 C 0.78548 0.7736 0.25877 0.0
C1202 C 0.81065 0.78499 0.25087 0.0
C1203 C 0.83142 0.80356 0.25872 0.0
C1204 C 0.82711 0.81065 0.2744 0.0
C1205 C 0.80106 0.79881 0.28209 0.0
H1206 H 0.5472 0.4579 0.48809 0.0
H1207 H 0.55193 0.40261 0.52933 0.0
H1208 H 0.52007 0.4403 0.54279 0.0
H1209 H 0.55076 0.53149 0.50701 0.0
H1210 H 0.52404 0.54984 0.49428 0.0
H1211 H 0.54732 0.51854 0.48754 0.0
H1212 H 0.49855 0.48929 0.47918 0.0
H1213 H 0.47512 0.52052 0.48588 0.0
H1214 H 0.46859 0.48229 0.49294 0.0
H1215 H 0.48824 0.48292 0.55199 0.0
H1216 H 0.45725 0.52864 0.55669 0.0
H1217 H 0.47191 0.55813 0.50978 0.0
C1218 C 0.54152 0.45369 0.49995 0.0
C1219 C 0.55225 0.42713 0.50761 0.0
C1220 C 0.54421 0.42265 0.52315 0.0
C1221 C 0.52605 0.44396 0.53094 0.0
C1222 C 0.516 0.46978 0.5231 0.0
C1223 C 0.52333 0.47486 0.50797 0.0
C1224 C 0.50931 0.50473 0.50237 0.0
C1225 C 0.53436 0.5275 0.49752 0.0
C1226 C 0.48654 0.49885 0.48932 0.0
C1227 C 0.49295 0.51549 0.51674 0.0
C1228 C 0.49727 0.49484 0.5285 0.0
C1229 C 0.48464 0.49929 0.54289 0.0
C1230 C 0.46699 0.5255 0.54541 0.0
C1231 C 0.46192 0.54724 0.53361 0.0
C1232 C 0.47525 0.54207 0.51905 0.0
H1233 H 0.81476 0.29095 0.77082 0.0
H1234 H 0.79082 0.30029 0.72288 0.0
H1235 H 0.74563 0.2676 0.72698 0.0
H1236 H 0.79213 0.212 0.77469 0.0
H1237 H 0.777 0.21665 0.79372 0.0
H1238 H 0.80763 0.24097 0.78715 0.0
H1239 H 0.77516 0.28902 0.79348 0.0
H1240 H 0.74448 0.26485 0.80011 0.0
H1241 H 0.73739 0.29283 0.7854 0.0
H1242 H 0.70313 0.23395 0.73605 0.0
H1243 H 0.66525 0.20237 0.74963 0.0
H1244 H 0.71611 0.21443 0.79185 0.0
C1245 C 0.79999 0.28624 0.76118 0.0
C1246 C 0.8065 0.29835 0.7465 0.0
C1247 C 0.7865 0.29141 0.73423 0.0
C1248 C 0.76071 0.27279 0.73643 0.0
C1249 C 0.75509 0.26117 0.75097 0.0
C1250 C 0.77406 0.26765 0.76316 0.0
C1251 C 0.76262 0.25225 0.77764 0.0
C1252 C 0.78625 0.22909 0.78365 0.0
C1253 C 0.75442 0.27617 0.78988 0.0
C1254 C 0.73422 0.2362 0.77166 0.0
C1255 C 0.73042 0.24164 0.75624 0.0
C1256 C 0.70586 0.2295 0.74813 0.0
C1257 C 0.68444 0.21151 0.75599 0.0
C1258 C 0.68755 0.20572 0.77186 0.0
C1259 C 0.713 0.21822 0.77973 0.0
H1260 H 0.97031 0.4696 0.54373 0.0
H1261 H 0.93849 0.43682 0.49964 0.0
H1262 H 0.96737 0.47775 0.48688 0.0
H1263 H 0.96957 0.55206 0.53392 0.0
H1264 H 1.00401 0.56009 0.54452 0.0
H1265 H 0.9789 0.52963 0.55057 0.0
H1266 H 0.02421 0.49142 0.54942 0.0
H1267 H 0.0494 0.52168 0.5433 0.0
H1268 H 0.04569 0.48745 0.53193 0.0
H1269 H 1.00166 0.51883 0.4786 0.0
H1270 H 0.03925 0.5597 0.4749 0.0
H1271 H 0.05011 0.56804 0.52408 0.0
C1272 C 0.96898 0.47139 0.53141 0.0
C1273 C 0.95197 0.44992 0.52271 0.0
C1274 C 0.95128 0.45284 0.50659 0.0
C1275 C 0.96758 0.4761 0.49921 0.0
C1276 C 0.9845 0.49643 0.50806 0.0
C1277 C 0.98528 0.49457 0.52379 0.0
C1278 C 1.00656 0.5188 0.53039 0.0
C1279 C 0.98869 0.54149 0.54045 0.0
C1280 C 0.03303 0.50394 0.53928 0.0
C1281 C 0.01796 0.53408 0.51586 0.0
C1282 C 1.00468 0.52071 0.50318 0.0
C1283 C 0.01208 0.52967 0.48842 0.0
C1284 C 0.0337 0.55288 0.48647 0.0
C1285 C 0.04789 0.56714 0.4992 0.0
C1286 C 0.03961 0.55775 0.51413 0.0
H1287 H 0.69269 0.79019 0.7731 0.0
H1288 H 0.72756 0.82013 0.72905 0.0
H1289 H 0.77448 0.79018 0.73317 0.0
H1290 H 0.76685 0.79031 0.79293 0.0
H1291 H 0.75809 0.75642 0.80385 0.0
H1292 H 0.72772 0.78172 0.79795 0.0
H1293 H 0.70019 0.73624 0.78483 0.0
H1294 H 0.73057 0.71086 0.79061 0.0
H1295 H 0.72041 0.71392 0.77072 0.0
H1296 H 0.81617 0.75495 0.74104 0.0
H1297 H 0.85164 0.71823 0.75288 0.0
H1298 H 0.79092 0.71071 0.79209 0.0
C1299 C 0.71039 0.79083 0.76443 0.0
C1300 C 0.70627 0.8076 0.75073 0.0
C1301 C 0.72997 0.80748 0.73962 0.0
C1302 C 0.7568 0.79052 0.74184 0.0
C1303 C 0.75983 0.77375 0.75526 0.0
C1304 C 0.73746 0.7739 0.76644 0.0
C1305 C 0.74633 0.75307 0.77961 0.0
C1306 C 0.74997 0.77148 0.79446 0.0
C1307 C 0.72298 0.72698 0.78155 0.0
C1308 C 0.77699 0.74106 0.77396 0.0
C1309 C 0.78423 0.75335 0.75989 0.0
C1310 C 0.81089 0.74531 0.75212 0.0
C1311 C 0.83087 0.72428 0.75895 0.0
C1312 C 0.82425 0.71148 0.77347 0.0
C1313 C 0.79682 0.7201 0.78103 0.0
H1314 H 0.47029 0.44648 0.02569 0.0
H1315 H 0.45263 0.47228 0.97853 0.0
H1316 H 0.48374 0.51848 0.98189 0.0
H1317 H 0.46819 0.52452 0.04107 0.0
H1318 H 0.49864 0.51777 0.05454 0.0
H1319 H 0.47411 0.48668 0.04877 0.0
H1320 H 0.52168 0.45544 0.04037 0.0
H1321 H 0.54634 0.48652 0.04601 0.0
H1322 H 0.54811 0.47177 0.0268 0.0
H1323 H 0.51808 0.56006 0.98938 0.0
H1324 H 0.55153 0.59802 1.0013 0.0
H1325 H 0.54737 0.54781 0.04418 0.0
C1326 C 0.47268 0.46202 1.01613 0.0
C1327 C 0.45895 0.45552 1.00182 0.0
C1328 C 0.46287 0.47648 0.9896 0.0
C1329 C 0.48057 0.50288 0.99136 0.0
C1330 C 0.4942 0.50827 1.00544 0.0
C1331 C 0.49033 0.48876 0.01769 0.0
C1332 C 0.50787 0.50032 0.03154 0.0
C1333 C 0.48588 0.50777 0.04476 0.0
C1334 C 0.53246 0.47713 0.03647 0.0
C1335 C 0.52226 0.52923 0.02504 0.0
C1336 C 0.51404 0.53307 1.00994 0.0
C1337 C 0.52456 0.55749 1.00124 0.0
C1338 C 0.54372 0.57894 1.00817 0.0
C1339 C 0.5522 0.57615 0.02377 0.0
C1340 C 0.54137 0.55072 0.03227 0.0
H1341 H 0.82514 0.22874 0.2746 0.0
H1342 H 0.79561 0.20659 0.22849 0.0
H1343 H 0.74842 0.23605 0.23252 0.0
H1344 H 0.74963 0.22489 0.29216 0.0
H1345 H 0.75622 0.25682 0.30479 0.0
H1346 H 0.78789 0.23339 0.29862 0.0
H1347 H 0.81567 0.28153 0.2883 0.0
H1348 H 0.78411 0.30511 0.29445 0.0
H1349 H 0.7964 0.30599 0.27479 0.0
H1350 H 0.7051 0.26772 0.24093 0.0
H1351 H 0.6674 0.30114 0.25317 0.0
H1352 H 0.72341 0.30438 0.2942 0.0
C1353 C 0.80868 0.22996 0.26538 0.0
C1354 C 0.81426 0.2152 0.2512 0.0
C1355 C 0.79211 0.21763 0.23943 0.0
C1356 C 0.7651 0.23429 0.24161 0.0
C1357 C 0.76038 0.24855 0.25562 0.0
C1358 C 0.78143 0.24669 0.26734 0.0
C1359 C 0.77058 0.26485 0.28116 0.0
C1360 C 0.7658 0.24372 0.295 0.0
C1361 C 0.79303 0.29092 0.28489 0.0
C1362 C 0.74025 0.27724 0.27529 0.0
C1363 C 0.73498 0.26733 0.26054 0.0
C1364 C 0.70891 0.27565 0.25248 0.0
C1365 C 0.68759 0.29479 0.2596 0.0
C1366 C 0.69227 0.30565 0.27471 0.0
C1367 C 0.71902 0.29651 0.28268 0.0
H1368 H 0.31804 0.29733 0.75918 0.0
H1369 H 0.30422 0.28929 0.80822 0.0
H1370 H 0.26251 0.25293 0.80394 0.0
H1371 H 0.23804 0.29492 0.74941 0.0
H1372 H 0.24333 0.27265 0.73227 0.0
H1373 H 0.27355 0.29732 0.73894 0.0
H1374 H 0.31093 0.25125 0.73924 0.0
H1375 H 0.28076 0.22641 0.73262 0.0
H1376 H 0.30107 0.21741 0.74996 0.0
H1377 H 0.22196 0.21845 0.795 0.0
H1378 H 0.18238 0.18907 0.78156 0.0
H1379 H 0.22007 0.21872 0.73801 0.0
C1380 C 0.3063 0.2878 0.76899 0.0
C1381 C 0.31455 0.29642 0.78404 0.0
C1382 C 0.2984 0.28344 0.79656 0.0
C1383 C 0.27466 0.26252 0.79428 0.0
C1384 C 0.26703 0.25463 0.7794 0.0
C1385 C 0.2821 0.26687 0.76693 0.0
C1386 C 0.26811 0.25506 0.75216 0.0
C1387 C 0.25497 0.28157 0.74264 0.0
C1388 C 0.29162 0.23642 0.74295 0.0
C1389 C 0.24278 0.23462 0.75839 0.0
C1390 C 0.24291 0.23462 0.77415 0.0
C1391 C 0.2216 0.21814 0.78265 0.0
C1392 C 0.19916 0.20147 0.77486 0.0
C1393 C 0.19796 0.20141 0.75868 0.0
C1394 C 0.2204 0.21803 0.75036 0.0
H1395 H 0.20195 0.72339 0.25831 0.0
H1396 H 0.20997 0.73724 0.30728 0.0
H1397 H 0.25187 0.77387 0.30297 0.0
H1398 H 0.28279 0.72541 0.25064 0.0
H1399 H 0.27914 0.74517 0.23265 0.0
H1400 H 0.24852 0.72102 0.23938 0.0
H1401 H 0.21064 0.76645 0.23712 0.0
H1402 H 0.2412 0.7908 0.23046 0.0
H1403 H 0.21888 0.80184 0.2469 0.0
H1404 H 0.29266 0.80826 0.29383 0.0
H1405 H 0.33331 0.83623 0.2805 0.0
H1406 H 0.30141 0.79996 0.23709 0.0
C1407 C 0.21243 0.73427 0.26811 0.0
C1408 C 0.20254 0.7274 0.28316 0.0
C1409 C 0.21712 0.74192 0.29567 0.0
C1410 C 0.24087 0.76294 0.29334 0.0
C1411 C 0.25003 0.76917 0.27843 0.0
C1412 C 0.23655 0.75516 0.266 0.0
C1413 C 0.25201 0.7651 0.25123 0.0
C1414 C 0.26648 0.73753 0.24299 0.0
C1415 C 0.22933 0.78206 0.24081 0.0
C1416 C 0.27636 0.78671 0.25736 0.0
C1417 C 0.27442 0.78883 0.27308 0.0
C1418 C 0.29446 0.80681 0.28152 0.0
C1419 C 0.31755 0.82264 0.27378 0.0
C1420 C 0.32079 0.82038 0.25768 0.0
C1421 C 0.2995 0.80243 0.24935 0.0
H1422 H 0.29657 0.22685 0.29382 0.0
H1423 H 0.34343 0.21073 0.25069 0.0
H1424 H 0.30663 0.24396 0.23763 0.0
H1425 H 0.21935 0.22783 0.27771 0.0
H1426 H 0.20597 0.25771 0.29026 0.0
H1427 H 0.23578 0.23204 0.29647 0.0
H1428 H 0.27088 0.27848 0.30216 0.0
H1429 H 0.24128 0.30427 0.29584 0.0
H1430 H 0.27878 0.3058 0.28723 0.0
H1431 H 0.26659 0.28002 0.22909 0.0
H1432 H 0.22263 0.31425 0.22518 0.0
H1433 H 0.19992 0.30722 0.27342 0.0
C1434 C 0.29892 0.23007 0.28161 0.0
C1435 C 0.32312 0.21604 0.27337 0.0
C1436 C 0.32527 0.22105 0.25737 0.0
C1437 C 0.30447 0.24003 0.24979 0.0
C1438 C 0.28135 0.25385 0.25825 0.0
C1439 C 0.27812 0.24895 0.27376 0.0
C1440 C 0.25086 0.26666 0.27999 0.0
C1441 C 0.22655 0.24475 0.28649 0.0
C1442 C 0.26107 0.2902 0.29202 0.0
C1443 C 0.23958 0.28234 0.26557 0.0
C1444 C 0.25766 0.27464 0.25321 0.0
C1445 C 0.25212 0.28616 0.23865 0.0
C1446 C 0.22706 0.30571 0.23657 0.0
C1447 C 0.20763 0.31357 0.24896 0.0
C1448 C 0.21429 0.30184 0.26369 0.0
H1449 H 0.21453 0.79422 0.7938 0.0
H1450 H 0.17504 0.81704 0.74968 0.0
H1451 H 0.21533 0.78746 0.73686 0.0
H1452 H 0.29489 0.79716 0.7813 0.0
H1453 H 0.30624 0.76516 0.793 0.0
H1454 H 0.27507 0.78947 0.79897 0.0
H1455 H 0.23961 0.74208 0.80092 0.0
H1456 H 0.2706 0.71766 0.79488 0.0
H1457 H 0.23494 0.71752 0.78453 0.0
H1458 H 0.25757 0.75367 0.7286 0.0
H1459 H 0.30118 0.71877 0.72526 0.0
H1460 H 0.31502 0.71735 0.77442 0.0
C1461 C 0.2146 0.79334 0.78144 0.0
C1462 C 0.19145 0.80811 0.77281 0.0
C1463 C 0.19233 0.80603 0.75663 0.0
C1464 C 0.21519 0.78924 0.74919 0.0
C1465 C 0.23726 0.77463 0.758 0.0
C1466 C 0.2374 0.77659 0.77375 0.0
C1467 C 0.2636 0.75793 0.78038 0.0
C1468 C 0.2863 0.77867 0.78892 0.0
C1469 C 0.25145 0.73228 0.79079 0.0
C1470 C 0.27778 0.74498 0.76589 0.0
C1471 C 0.26212 0.75501 0.75315 0.0
C1472 C 0.27017 0.74577 0.73848 0.0
C1473 C 0.295 0.72579 0.73672 0.0
C1474 C 0.3117 0.71517 0.74956 0.0
C1475 C 0.30288 0.72506 0.76435 0.0
H1476 H 0.54312 0.96112 0.54284 0.0
H1477 H 0.5398 0.90432 0.50206 0.0
H1478 H 0.50737 0.94247 0.48948 0.0
H1479 H 0.46511 0.98895 0.54068 0.0
H1480 H 0.47429 0.02723 0.54687 0.0
H1481 H 0.49735 0.99539 0.55311 0.0
H1482 H 0.54592 0.0219 0.54244 0.0
H1483 H 0.52301 0.05385 0.53619 0.0
H1484 H 0.54686 0.03368 0.52271 0.0
H1485 H 0.47515 0.98551 0.48108 0.0
H1486 H 0.44605 0.03278 0.47686 0.0
H1487 H 0.46988 0.064 0.52249 0.0
C1488 C 0.53556 0.95671 0.53127 0.0
C1489 C 0.54414 0.92946 0.52353 0.0
C1490 C 0.53376 0.92482 0.50834 0.0
C1491 C 0.51518 0.94639 0.50104 0.0
C1492 C 0.50713 0.97279 0.50896 0.0
C1493 C 0.51702 0.97827 0.52368 0.0
C1494 C 0.50517 0.00904 0.52935 0.0
C1495 C 0.48423 1.00489 0.54333 0.0
C1496 C 0.53183 0.03091 0.53288 0.0
C1497 C 0.48709 0.01975 0.5155 0.0
C1498 C 0.48856 0.99829 0.50394 0.0
C1499 C 0.47384 1.00257 0.49003 0.0
C1500 C 0.45728 0.02961 0.48776 0.0
C1501 C 0.45551 0.05235 0.49931 0.0
C1502 C 0.47065 0.04716 0.51342 0.0
H1503 H 0.03985 0.94605 0.02291 0.0
H1504 H 0.05654 0.97697 0.97642 0.0
H1505 H 0.02628 0.02316 0.98133 0.0
H1506 H 0.9618 0.9735 0.02531 0.0
H1507 H 0.96468 0.98558 0.04494 0.0
H1508 H 0.98799 0.95443 0.03806 0.0
H1509 H 0.03684 0.98276 0.04707 0.0
H1510 H 0.01367 0.01399 0.05399 0.0
H1511 H 0.04404 0.02123 0.0405 0.0
H1512 H 0.99452 0.06575 0.99066 0.0
H1513 H 0.96273 0.10333 1.00419 0.0
H1514 H 0.96547 0.04665 0.04501 0.0
C1515 C 0.0372 0.96257 1.01379 0.0
C1516 C 0.05073 0.95762 0.99926 0.0
C1517 C 0.04652 0.97992 0.98764 0.0
C1518 C 0.02932 1.00639 0.9903 0.0
C1519 C 0.0163 0.01052 1.00464 0.0
C1520 C 0.01995 0.98939 1.01624 0.0
C1521 C 1.00322 0.99983 0.03058 0.0
C1522 C 0.97792 0.97697 0.03498 0.0
C1523 C 0.02579 1.00475 0.04382 0.0
C1524 C 0.98973 0.03005 0.02515 0.0
C1525 C 0.99766 0.03557 1.01013 0.0
C1526 C 0.98812 0.06174 1.00244 0.0
C1527 C 0.96996 0.08298 1.01027 0.0
C1528 C 0.9614 0.07811 0.02571 0.0
C1529 C 0.97153 0.05115 0.03322 0.0
H1530 H 0.54313 0.06974 0.02279 0.0
H1531 H 0.55655 0.04371 0.97533 0.0
H1532 H 0.52362 0.99865 0.97922 0.0
H1533 H 0.54388 0.99317 0.0382 0.0
H1534 H 0.5146 1.00076 0.05223 0.0
H1535 H 0.53922 0.03126 0.04581 0.0
H1536 H 0.49171 0.06327 0.03812 0.0
H1537 H 0.46694 0.03286 0.04452 0.0
H1538 H 0.46388 0.04707 0.02525 0.0
H1539 H 0.48957 0.95652 0.98801 0.0
H1540 H 0.45646 0.91948 1.00119 0.0
H1541 H 0.46452 0.97216 0.04313 0.0
C1542 C 0.53922 0.05457 1.01321 0.0
C1543 C 0.55258 0.06041 0.99873 0.0
C1544 C 0.54669 0.0399 0.98652 0.0
C1545 C 0.52797 0.01417 0.98861 0.0
C1546 C 0.51521 0.00916 1.00297 0.0
C1547 C 0.52054 0.0287 1.01508 0.0
C1548 C 0.50393 0.01788 0.02934 0.0
C1549 C 0.52677 0.01031 0.04215 0.0
C1550 C 0.48021 0.04169 0.03461 0.0
C1551 C 0.48852 0.98916 0.02333 0.0
C1552 C 0.49537 0.98467 1.00808 0.0
C1553 C 0.484 0.95979 0.99995 0.0
C1554 C 0.46513 0.93885 1.00758 0.0
C1555 C 0.4577 0.94278 0.02325 0.0
C1556 C 0.46964 0.96842 0.03118 0.0
H1557 H 0.0417 0.06164 0.50977 0.0
H1558 H 0.04405 0.04487 0.55869 0.0
H1559 H 0.01008 1.00055 0.55531 0.0
H1560 H 0.96238 0.0408 0.50411 0.0
H1561 H 0.96888 0.02227 0.48599 0.0
H1562 H 0.99347 0.05313 0.49202 0.0
H1563 H 0.04095 0.01819 0.48871 0.0
H1564 H 0.01654 0.98727 0.48261 0.0
H1565 H 0.04226 0.98185 0.49846 0.0
H1566 H 0.97604 0.9585 0.5471 0.0
H1567 H 0.94521 0.91919 0.53438 0.0
H1568 H 0.96421 0.96133 0.49038 0.0
C1569 C 0.03515 0.04862 0.51977 0.0
C1570 C 0.04573 0.05696 0.53453 0.0
C1571 C 0.03646 0.03915 0.54727 0.0
C1572 C 0.01704 0.01389 0.54549 0.0
C1573 C 0.00697 1.00646 0.53088 0.0
C1574 C 0.01574 0.02309 0.5182 0.0
C1575 C 1.00175 0.00962 0.50377 0.0
C1576 C 0.98035 0.03284 0.49602 0.0
C1577 C 0.02687 0.99858 0.49274 0.0
C1578 C 0.98384 0.98282 0.51037 0.0
C1579 C 0.98719 0.98168 0.52604 0.0
C1580 C 0.97325 0.95911 0.53482 0.0
C1581 C 0.9557 0.93681 0.52742 0.0
C1582 C 0.9521 0.93693 0.5113 0.0
C1583 C 0.96625 0.96057 0.5027 0.0
H1584 H 1.00417 0.18278 0.06002 0.0
H1585 H 0.91298 0.22194 0.06021 0.0
H1586 H 0.93501 0.27376 0.05795 0.0
H1587 H 0.03476 0.24828 0.0837 0.0
H1588 H 0.0722 0.2464 0.07507 0.0
H1589 H 0.04953 0.21212 0.07701 0.0
H1590 H 0.05368 0.20222 0.04771 0.0
H1591 H 0.07736 0.23593 0.04648 0.0
H1592 H 0.04373 0.23276 0.03484 0.0
H1593 H 0.96581 0.32029 0.05259 0.0
H1594 H 1.0045 0.36141 0.05108 0.0
H1595 H 0.07697 0.29427 0.05598 0.0
C1596 C 0.98899 0.20236 0.05952 0.0
C1597 C 0.95675 0.19837 0.05926 0.0
C1598 C 0.93762 0.22448 0.05953 0.0
C1599 C 0.94994 0.254 0.05835 0.0
C1600 C 0.98161 0.25715 0.05736 0.0
C1601 C 1.00105 0.23229 0.05859 0.0
C1602 C 0.03432 0.24288 0.05878 0.0
C1603 C 0.04854 0.23708 0.07458 0.0
C1604 C 0.05337 0.22748 0.0462 0.0
C1605 C 0.03042 0.27707 0.05588 0.0
C1606 C 0.99971 0.28467 0.05531 0.0
C1607 C 0.98993 0.31471 0.05314 0.0
C1608 C 0.01204 0.33787 0.05215 0.0
C1609 C 0.04362 0.33095 0.05306 0.0
C1610 C 0.05298 0.30006 0.05476 0.0
H1611 H 0.08754 0.75973 0.30815 0.0
H1612 H 0.04858 0.6706 0.29848 0.0
H1613 H 0.99729 0.69396 0.29602 0.0
H1614 H 0.02278 0.78442 0.33142 0.0
H1615 H 0.02537 0.8239 0.32555 0.0
H1616 H 0.05925 0.80035 0.32593 0.0
H1617 H 0.06944 0.81345 0.29764 0.0
H1618 H 0.03524 0.8366 0.29702 0.0
H1619 H 0.04034 0.80564 0.28367 0.0
H1620 H 0.95025 0.72617 0.29538 0.0
H1621 H 0.90942 0.76503 0.29821 0.0
H1622 H 0.97768 0.8343 0.30793 0.0
C1623 C 0.06818 0.74533 0.30531 0.0
C1624 C 0.07215 0.71358 0.30268 0.0
C1625 C 0.04618 0.69516 0.29975 0.0
C1626 C 0.01695 0.70821 0.29846 0.0
C1627 C 0.0139 0.73973 0.30044 0.0
C1628 C 0.03866 0.75806 0.30406 0.0
C1629 C 0.02848 0.79095 0.30674 0.0
C1630 C 0.03431 0.80045 0.3234 0.0
C1631 C 0.04433 0.81299 0.29561 0.0
C1632 C 0.99435 0.78841 0.3035 0.0
C1633 C 0.9865 0.75851 0.30007 0.0
C1634 C 0.95615 0.74973 0.29784 0.0
C1635 C 0.93314 0.77191 0.29943 0.0
C1636 C 0.94053 0.8027 0.30279 0.0
C1637 C 0.97158 0.81111 0.30477 0.0
H1638 H 0.50016 0.66417 0.55835 0.0
H1639 H 0.4089 0.70151 0.55271 0.0
H1640 H 0.43066 0.75325 0.54956 0.0
H1641 H 0.52723 0.73 0.5807 0.0
H1642 H 0.56565 0.72833 0.57319 0.0
H1643 H 0.54314 0.69387 0.57464 0.0
H1644 H 0.55126 0.6836 0.54571 0.0
H1645 H 0.57406 0.71796 0.54452 0.0
H1646 H 0.54149 0.71312 0.53223 0.0
H1647 H 0.4615 0.80068 0.54689 0.0
H1648 H 0.49967 0.84244 0.54775 0.0
H1649 H 0.57197 0.77605 0.55496 0.0
C1650 C 0.48492 0.68329 0.55631 0.0
C1651 C 0.45289 0.67869 0.555 0.0
C1652 C 0.43354 0.70437 0.55305 0.0
C1653 C 0.44569 0.73387 0.55133 0.0
C1654 C 0.47735 0.73754 0.55186 0.0
C1655 C 0.49678 0.71315 0.55463 0.0
C1656 C 0.52979 0.72416 0.55584 0.0
C1657 C 0.54218 0.71878 0.57205 0.0
C1658 C 0.55037 0.70876 0.54387 0.0
C1659 C 0.52592 0.75821 0.55262 0.0
C1660 C 0.49536 0.76532 0.5505 0.0
C1661 C 0.48552 0.79538 0.54837 0.0
C1662 C 0.50733 0.81892 0.5488 0.0
C1663 C 0.53874 0.81235 0.55093 0.0
C1664 C 0.5482 0.78154 0.55273 0.0
H1665 H 0.53683 0.18547 0.807 0.0
H1666 H 0.60478 0.25552 0.79804 0.0
H1667 H 0.56408 0.29484 0.7974 0.0
H1668 H 0.47391 0.21655 0.78467 0.0
H1669 H 0.44483 0.20793 0.79858 0.0
H1670 H 0.47874 0.18447 0.79731 0.0
H1671 H 0.49025 0.19398 0.82571 0.0
H1672 H 0.45641 0.21741 0.82729 0.0
H1673 H 0.49316 0.23268 0.83273 0.0
H1674 H 0.51773 0.32721 0.80061 0.0
H1675 H 0.46657 0.35045 0.80375 0.0
H1676 H 0.42694 0.26042 0.81024 0.0
C1677 C 0.54286 0.20898 0.80446 0.0
C1678 C 0.57383 0.21748 0.80214 0.0
C1679 C 0.58114 0.24859 0.79955 0.0
C1680 C 0.55821 0.27105 0.79924 0.0
C1681 C 0.52802 0.26219 0.80191 0.0
C1682 C 0.52014 0.23192 0.8044 0.0
C1683 C 0.48611 0.22917 0.80799 0.0
C1684 C 0.46992 0.20828 0.79645 0.0
C1685 C 0.48121 0.21763 0.8244 0.0
C1686 C 0.47597 0.26239 0.80642 0.0
C1687 C 0.5008 0.28103 0.80334 0.0
C1688 C 0.49797 0.31277 0.80257 0.0
C1689 C 0.46881 0.32576 0.80427 0.0
C1690 C 0.44264 0.30715 0.80636 0.0
C1691 C 0.44644 0.27508 0.80803 0.0
H1692 H 0.93657 0.78173 0.47943 0.0
H1693 H 1.00427 0.85297 0.48604 0.0
H1694 H 0.04543 0.814 0.48608 0.0
H1695 H 0.97118 0.72264 0.50141 0.0
H1696 H 0.96418 0.69145 0.48839 0.0
H1697 H 0.93847 0.72377 0.48906 0.0
H1698 H 0.94532 0.73527 0.46071 0.0
H1699 H 0.9697 0.70215 0.45898 0.0
H1700 H 0.98325 0.73913 0.4528 0.0
H1701 H 0.0795 0.76851 0.48283 0.0
H1702 H 0.10439 0.71807 0.47961 0.0
H1703 H 0.01544 0.6752 0.47487 0.0
C1704 C 0.96001 0.78887 0.48131 0.0
C1705 C 0.96732 0.8202 0.48321 0.0
C1706 C 0.99829 0.82899 0.48492 0.0
C1707 C 0.02178 0.80705 0.48486 0.0
C1708 C 0.01401 0.77642 0.48263 0.0
C1709 C 0.98391 0.76723 0.48088 0.0
C1710 C 0.98216 0.73304 0.47766 0.0
C1711 C 0.96287 0.71669 0.48985 0.0
C1712 C 0.96935 0.72706 0.46158 0.0
C1713 C 0.01586 0.72427 0.47853 0.0
C1714 C 0.0338 0.74988 0.48103 0.0
C1715 C 0.06567 0.74821 0.48123 0.0
C1716 C 0.07962 0.71947 0.47947 0.0
C1717 C 0.06182 0.69265 0.47775 0.0
C1718 C 0.02953 0.69525 0.47674 0.0
H1719 H 0.54145 0.82242 0.72988 0.0
H1720 H 0.60984 0.75093 0.73323 0.0
H1721 H 0.56881 0.71229 0.73665 0.0
H1722 H 0.48418 0.79188 0.75531 0.0
H1723 H 0.45179 0.80097 0.74342 0.0
H1724 H 0.48588 0.82426 0.7427 0.0
H1725 H 0.49158 0.81578 0.71383 0.0
H1726 H 0.45693 0.79343 0.71389 0.0
H1727 H 0.49179 0.77737 0.70628 0.0
H1728 H 0.52045 0.68116 0.73842 0.0
H1729 H 0.46851 0.65903 0.73643 0.0
H1730 H 0.43069 0.74972 0.72961 0.0
C1731 C 0.54766 0.79868 0.73168 0.0
C1732 C 0.57879 0.78964 0.73186 0.0
C1733 C 0.58614 0.75828 0.73345 0.0
C1734 C 0.56299 0.73624 0.73541 0.0
C1735 C 0.53247 0.74579 0.73513 0.0
C1736 C 0.52473 0.77619 0.73301 0.0
C1737 C 0.49025 0.77983 0.73129 0.0
C1738 C 0.47721 0.80046 0.74393 0.0
C1739 C 0.48217 0.79234 0.71537 0.0
C1740 C 0.47974 0.7468 0.73308 0.0
C1741 C 0.50452 0.72762 0.73539 0.0
C1742 C 0.50089 0.69601 0.73676 0.0
C1743 C 0.47128 0.68364 0.7357 0.0
C1744 C 0.44551 0.7027 0.73334 0.0
C1745 C 0.44992 0.73469 0.7318 0.0
H1746 H 0.51467 0.1797 0.98041 0.0
H1747 H 0.60521 0.2183 0.98656 0.0
H1748 H 0.58253 0.26967 0.99 0.0
H1749 H 0.4854 0.24173 0.95869 0.0
H1750 H 0.4473 0.24051 0.96661 0.0
H1751 H 0.47013 0.20619 0.96591 0.0
H1752 H 0.47301 0.23073 1.00773 0.0
H1753 H 0.46401 0.19903 0.99534 0.0
H1754 H 0.4401 0.23274 0.99551 0.0
H1755 H 0.551 0.31742 0.98963 0.0
H1756 H 0.51201 0.35824 0.98686 0.0
H1757 H 0.44092 0.28956 0.98324 0.0
C1758 C 0.52954 0.19897 0.98276 0.0
C1759 C 0.56165 0.19498 0.98371 0.0
C1760 C 0.58053 0.22078 0.98628 0.0
C1761 C 0.56784 0.25005 0.98819 0.0
C1762 C 0.53613 0.25327 0.98746 0.0
C1763 C 0.51711 0.22845 0.9849 0.0
C1764 C 0.4839 0.23872 0.98369 0.0
C1765 C 0.47093 0.23135 0.96778 0.0
C1766 C 0.4641 0.2244 0.99632 0.0
C1767 C 0.4873 0.27305 0.986 0.0
C1768 C 0.51769 0.28094 0.98797 0.0
C1769 C 0.52704 0.31147 0.98857 0.0
C1770 C 0.50482 0.3345 0.98702 0.0
C1771 C 0.4735 0.32697 0.98553 0.0
C1772 C 0.46463 0.29584 0.98509 0.0
H1773 H 0.04221 0.33471 0.23195 0.0
H1774 H 0.11213 0.26478 0.2355 0.0
H1775 H 0.07207 0.22527 0.23894 0.0
H1776 H 0.98516 0.3021 0.2574 0.0
H1777 H 0.95266 0.31039 0.24542 0.0
H1778 H 0.98597 0.33484 0.24501 0.0
H1779 H 0.99278 0.32751 0.21617 0.0
H1780 H 0.95883 0.30414 0.21578 0.0
H1781 H 0.99438 0.28938 0.2083 0.0
H1782 H 0.02507 0.193 0.23976 0.0
H1783 H 0.97409 0.16932 0.23688 0.0
H1784 H 0.93344 0.25902 0.23078 0.0
C1785 C 0.04892 0.31117 0.23395 0.0
C1786 C 0.0802 0.30278 0.23416 0.0
C1787 C 0.08829 0.27163 0.23584 0.0
C1788 C 0.06569 0.24911 0.23777 0.0
C1789 C 0.035 0.25796 0.23738 0.0
C1790 C 0.02652 0.28818 0.23529 0.0
C1791 C 0.99203 0.29091 0.23332 0.0
C1792 C 0.97808 0.31073 0.24604 0.0
C1793 C 0.98405 0.30374 0.21745 0.0
C1794 C 0.98242 0.25754 0.23474 0.0
C1795 C 0.00767 0.23904 0.23719 0.0
C1796 C 1.00511 0.20729 0.23807 0.0
C1797 C 0.97605 0.19404 0.23646 0.0
C1798 C 0.94978 0.21238 0.23408 0.0
C1799 C 0.95309 0.24455 0.23297 0.0
H1800 H 0.93633 0.72719 0.97884 0.0
H1801 H 0.00884 0.65982 0.98193 0.0
H1802 H 0.04726 0.70138 0.98359 0.0
H1803 H 0.9791 0.77599 0.95344 0.0
H1804 H 0.96317 0.81109 0.96085 0.0
H1805 H 0.94127 0.77617 0.96171 0.0
H1806 H 0.95874 0.81787 0.99082 0.0
H1807 H 0.96696 0.78495 1.00258 0.0
H1808 H 0.93445 0.78448 0.99016 0.0
H1809 H 0.07794 0.74934 0.98242 0.0
H1810 H 0.09957 0.80119 0.97957 0.0
H1811 H 0.00806 0.839 0.97609 0.0
C1812 C 0.96026 0.72137 0.98031 0.0
C1813 C 0.96971 0.69038 0.98087 0.0
C1814 C 1.00123 0.68344 0.98195 0.0
C1815 C 0.02315 0.70689 0.98282 0.0
C1816 C 0.01325 0.73723 0.98201 0.0
C1817 C 0.98259 0.7446 0.98062 0.0
C1818 C 0.97847 0.77894 0.97846 0.0
C1819 C 0.96469 0.78595 0.96268 0.0
C1820 C 0.95853 0.79244 0.99127 0.0
C1821 C 0.01156 0.78985 0.97934 0.0
C1822 C 0.03115 0.76521 0.9812 0.0
C1823 C 0.06283 0.76884 0.98124 0.0
C1824 C 0.07492 0.7984 0.97964 0.0
C1825 C 0.05553 0.8242 0.97818 0.0
C1826 C 0.02338 0.81976 0.97765 0.0
H1827 H 0.92923 0.25827 0.72473 0.0
H1828 H 0.96524 0.34872 0.73422 0.0
H1829 H 0.01692 0.32693 0.7376 0.0
H1830 H 0.97853 0.2142 0.75045 0.0
H1831 H 0.9833 0.18318 0.73714 0.0
H1832 H 0.94883 0.20596 0.73682 0.0
H1833 H 0.95889 0.21745 0.70812 0.0
H1834 H 0.99362 0.19523 0.70876 0.0
H1835 H 0.99477 0.23453 0.70251 0.0
H1836 H 0.06509 0.29635 0.7385 0.0
H1837 H 0.10727 0.25882 0.73591 0.0
H1838 H 0.04138 0.18718 0.72646 0.0
C1839 C 0.948 0.27329 0.72775 0.0
C1840 C 0.94303 0.30504 0.72993 0.0
C1841 C 0.96832 0.3242 0.73318 0.0
C1842 C 0.99781 0.31203 0.73503 0.0
C1843 C 1.0019 0.28058 0.73331 0.0
C1844 C 0.97782 0.26142 0.72958 0.0
C1845 C 0.98916 0.22879 0.72724 0.0
C1846 C 0.97401 0.2067 0.73859 0.0
C1847 C 0.98379 0.2184 0.71067 0.0
C1848 C 0.02316 0.23257 0.73055 0.0
C1849 C 0.02995 0.26275 0.73391 0.0
C1850 C 0.06001 0.27256 0.73615 0.0
C1851 C 0.08381 0.25114 0.73469 0.0
C1852 C 0.07747 0.22008 0.73146 0.0
C1853 C 0.04671 0.21063 0.72948 0.0
H1854 H 0.512 0.32411 0.47621 0.0
H1855 H 0.60208 0.28313 0.47258 0.0
H1856 H 0.57899 0.23154 0.47412 0.0
H1857 H 0.47507 0.26976 0.50198 0.0
H1858 H 0.43976 0.27075 0.4916 0.0
H1859 H 0.46488 0.30353 0.4913 0.0
H1860 H 0.46337 0.29964 0.46143 0.0
H1861 H 0.44003 0.26568 0.46257 0.0
H1862 H 0.47589 0.26472 0.45237 0.0
H1863 H 0.54669 0.18446 0.47676 0.0
H1864 H 0.50646 0.14454 0.47722 0.0
H1865 H 0.43656 0.21484 0.47934 0.0
C1866 C 0.52675 0.30418 0.4759 0.0
C1867 C 0.55902 0.30753 0.47507 0.0
C1868 C 0.5775 0.28103 0.47392 0.0
C1869 C 0.56454 0.25165 0.4747 0.0
C1870 C 0.53289 0.24903 0.47638 0.0
C1871 C 0.51407 0.27451 0.47666 0.0
C1872 C 0.48053 0.26492 0.47732 0.0
C1873 C 0.46413 0.2781 0.49138 0.0
C1874 C 0.46398 0.27429 0.46254 0.0
C1875 C 0.48365 0.23029 0.4784 0.0
C1876 C 0.51408 0.22167 0.4776 0.0
C1877 C 0.52281 0.19095 0.4775 0.0
C1878 C 0.49987 0.16843 0.47785 0.0
C1879 C 0.46858 0.1766 0.47876 0.0
C1880 C 0.4604 0.20798 0.47918 0.0
H1881 H 0.48068 0.83243 0.22738 0.0
H1882 H 0.41306 0.7612 0.23426 0.0
H1883 H 0.45435 0.72242 0.23557 0.0
H1884 H 0.52672 0.78678 0.20195 0.0
H1885 H 0.56268 0.80278 0.20814 0.0
H1886 H 0.52818 0.82531 0.2093 0.0
H1887 H 0.53867 0.83446 0.23753 0.0
H1888 H 0.57225 0.81038 0.23755 0.0
H1889 H 0.54101 0.80273 0.25046 0.0
H1890 H 0.50174 0.69096 0.23343 0.0
H1891 H 0.55317 0.66854 0.23009 0.0
H1892 H 0.59159 0.75927 0.22422 0.0
C1893 C 0.4748 0.80874 0.22957 0.0
C1894 C 0.44381 0.79974 0.23119 0.0
C1895 C 0.43671 0.76848 0.23334 0.0
C1896 C 0.46 0.74636 0.23404 0.0
C1897 C 0.49029 0.75576 0.23211 0.0
C1898 C 0.49782 0.78617 0.22986 0.0
C1899 C 0.53199 0.78965 0.22682 0.0
C1900 C 0.53771 0.80185 0.21059 0.0
C1901 C 0.54692 0.81052 0.2388 0.0
C1902 C 0.54263 0.75656 0.22826 0.0
C1903 C 0.51798 0.73745 0.23103 0.0
C1904 C 0.5213 0.70575 0.23162 0.0
C1905 C 0.55063 0.69321 0.22977 0.0
C1906 C 0.57652 0.7122 0.2276 0.0
C1907 C 0.57232 0.74429 0.2264 0.0
H1908 H 0.93731 0.2931 0.55385 0.0
H1909 H 0.01002 0.35897 0.54657 0.0
H1910 H 0.0474 0.3166 0.54389 0.0
H1911 H 0.98293 0.24466 0.57785 0.0
H1912 H 0.96556 0.20945 0.57149 0.0
H1913 H 0.94396 0.24459 0.57107 0.0
H1914 H 0.93322 0.23636 0.54249 0.0
H1915 H 0.95545 0.20152 0.54238 0.0
H1916 H 0.96481 0.23215 0.52944 0.0
H1917 H 0.07732 0.26765 0.54369 0.0
H1918 H 0.09825 0.2154 0.54638 0.0
H1919 H 0.00705 0.18033 0.55499 0.0
C1920 C 0.96103 0.29843 0.55136 0.0
C1921 C 0.9708 0.32921 0.54997 0.0
C1922 C 1.00213 0.3355 0.54738 0.0
C1923 C 0.02344 0.31159 0.54584 0.0
C1924 C 0.01322 0.28147 0.5474 0.0
C1925 C 0.98282 0.27478 0.55029 0.0
C1926 C 0.97849 0.24063 0.55298 0.0
C1927 C 0.96706 0.23448 0.56932 0.0
C1928 C 0.95666 0.22681 0.54112 0.0
C1929 C 0.01106 0.22908 0.55081 0.0
C1930 C 0.03068 0.25312 0.54762 0.0
C1931 C 0.06208 0.24862 0.54591 0.0
C1932 C 0.07375 0.21883 0.54736 0.0
C1933 C 0.05415 0.19369 0.55027 0.0
C1934 C 0.02242 0.19902 0.55229 0.0
H1935 H 0.47676 0.19627 0.30415 0.0
H1936 H 0.40714 0.26629 0.29932 0.0
H1937 H 0.44732 0.30617 0.29832 0.0
H1938 H 0.52325 0.24108 0.32955 0.0
H1939 H 0.55925 0.22669 0.32245 0.0
H1940 H 0.52541 0.20318 0.32145 0.0
H1941 H 0.53335 0.19672 0.29258 0.0
H1942 H 0.56699 0.22063 0.29308 0.0
H1943 H 0.53571 0.2301 0.28058 0.0
H1944 H 0.494 0.33872 0.30081 0.0
H1945 H 0.54553 0.36184 0.3028 0.0
H1946 H 0.58591 0.27141 0.30564 0.0
C1947 C 0.4702 0.21994 0.30243 0.0
C1948 C 0.43899 0.22832 0.30138 0.0
C1949 C 0.431 0.25954 0.29984 0.0
C1950 C 0.45362 0.28229 0.29935 0.0
C1951 C 0.48415 0.27349 0.30079 0.0
C1952 C 0.49258 0.24309 0.30223 0.0
C1953 C 0.52695 0.24022 0.30456 0.0
C1954 C 0.53412 0.22701 0.32045 0.0
C1955 C 0.54165 0.22074 0.29195 0.0
C1956 C 0.53659 0.27359 0.30351 0.0
C1957 C 0.51136 0.29239 0.30177 0.0
C1958 C 0.514 0.3242 0.3017 0.0
C1959 C 0.54332 0.33713 0.30272 0.0
C1960 C 0.56965 0.31835 0.30343 0.0
C1961 C 0.56615 0.2862 0.30442 0.0
H1962 H 0.49843 0.84003 0.05586 0.0
H1963 H 0.40829 0.79869 0.05704 0.0
H1964 H 0.43164 0.74728 0.05502 0.0
H1965 H 0.53727 0.78922 0.03037 0.0
H1966 H 0.57195 0.78798 0.04136 0.0
H1967 H 0.54743 0.82115 0.04235 0.0
H1968 H 0.5454 0.81404 0.07188 0.0
H1969 H 0.5691 0.78037 0.07037 0.0
H1970 H 0.53231 0.77811 0.07965 0.0
H1971 H 0.46401 0.70092 0.05107 0.0
H1972 H 0.50416 0.66101 0.05051 0.0
H1973 H 0.57429 0.73104 0.05276 0.0
C1974 C 0.48374 0.82007 0.05556 0.0
C1975 C 0.45145 0.82324 0.05563 0.0
C1976 C 0.43296 0.7967 0.05613 0.0
C1977 C 0.44604 0.76744 0.0551 0.0
C1978 C 0.47779 0.76506 0.05397 0.0
C1979 C 0.49654 0.79051 0.05471 0.0
C1980 C 0.5301 0.78104 0.05466 0.0
C1981 C 0.54772 0.79578 0.04139 0.0
C1982 C 0.54511 0.78885 0.07005 0.0
C1983 C 0.52718 0.74658 0.05259 0.0
C1984 C 0.49671 0.73795 0.05239 0.0
C1985 C 0.48794 0.70737 0.05122 0.0
C1986 C 0.51085 0.6849 0.05079 0.0
C1987 C 0.54218 0.69303 0.05118 0.0
C1988 C 0.55048 0.72432 0.05192 0.0
H1989 H 0.92598 0.74755 0.80564 0.0
H1990 H 0.96657 0.65705 0.80631 0.0
H1991 H 0.01824 0.68003 0.80469 0.0
H1992 H 0.97751 0.78601 0.7805 0.0
H1993 H 0.97844 0.82068 0.79158 0.0
H1994 H 0.94527 0.79617 0.79232 0.0
H1995 H 0.95186 0.79412 0.82191 0.0
H1996 H 0.98567 0.81765 0.82058 0.0
H1997 H 0.98759 0.78078 0.82979 0.0
H1998 H 0.06511 0.7124 0.80128 0.0
H1999 H 0.10513 0.7525 0.80077 0.0
H2000 H 0.03515 0.82273 0.80294 0.0
C2001 C 0.94583 0.73269 0.80533 0.0
C2002 C 0.94237 0.70045 0.80516 0.0
C2003 C 0.96877 0.68172 0.8056 0.0
C2004 C 0.99818 0.69459 0.80481 0.0
C2005 C 1.00085 0.72635 0.80396 0.0
C2006 C 0.97549 0.74526 0.8047 0.0
C2007 C 0.9851 0.77875 0.80478 0.0
C2008 C 0.97066 0.79646 0.7915 0.0
C2009 C 0.97708 0.7937 0.82018 0.0
C2010 C 0.01957 0.77567 0.80283 0.0
C2011 C 0.02811 0.74518 0.80258 0.0
C2012 C 0.0587 0.73634 0.80146 0.0
C2013 C 0.08125 0.75922 0.80106 0.0
C2014 C 0.07315 0.79057 0.80141 0.0
C2015 C 0.04186 0.7989 0.80215 0.0
H2016 H 0.3297 0.36962 0.02201 0.0
H2017 H 0.32186 0.43439 0.98463 0.0
H2018 H 0.26938 0.44762 0.99338 0.0
H2019 H 0.25354 0.3416 0.01966 0.0
H2020 H 0.24967 0.3364 0.03999 0.0
H2021 H 0.28686 0.33396 0.03119 0.0
H2022 H 0.3068 0.37592 0.04962 0.0
H2023 H 0.26947 0.37884 0.05831 0.0
H2024 H 0.28757 0.41243 0.05044 0.0
H2025 H 0.21678 0.45224 1.00599 0.0
H2026 H 0.16746 0.4439 0.01939 0.0
H2027 H 0.21007 0.37554 0.04812 0.0
C2028 C 0.31717 0.38683 1.01567 0.0
C2029 C 0.33015 0.40121 1.00267 0.0
C2030 C 0.31252 0.42311 0.99461 0.0
C2031 C 0.28277 0.43089 0.99958 0.0
C2032 C 0.27091 0.41645 1.01256 0.0
C2033 C 0.28752 0.39458 0.02036 0.0
C2034 C 0.26907 0.38077 0.03333 0.0
C2035 C 0.26451 0.34614 0.03089 0.0
C2036 C 0.28413 0.3874 0.04884 0.0
C2037 C 0.23923 0.39812 0.03164 0.0
C2038 C 0.24084 0.41889 0.01971 0.0
C2039 C 0.2155 0.43638 1.01546 0.0
C2040 C 0.18768 0.43176 0.02323 0.0
C2041 C 0.18538 0.40996 0.03514 0.0
C2042 C 0.21161 0.3933 0.03952 0.0
H2043 H 0.88474 0.08623 0.27508 0.0
H2044 H 0.83037 0.07212 0.23419 0.0
H2045 H 0.81721 0.01992 0.2434 0.0
H2046 H 0.91724 0.01335 0.27565 0.0
H2047 H 0.91811 0.01076 0.29618 0.0
H2048 H 0.91974 0.04761 0.28707 0.0
H2049 H 0.87244 0.06506 0.30279 0.0
H2050 H 0.87041 0.028 0.31179 0.0
H2051 H 0.83753 0.04309 0.30189 0.0
H2052 H 0.81378 0.96768 0.25638 0.0
H2053 H 0.82428 0.91943 0.27024 0.0
H2054 H 0.8816 0.96842 0.30223 0.0
C2055 C 0.86955 0.07258 0.26807 0.0
C2056 C 0.85828 0.08363 0.25392 0.0
C2057 C 0.83913 0.06437 0.24509 0.0
C2058 C 0.83143 0.03476 0.25029 0.0
C2059 C 0.84311 0.02475 0.26432 0.0
C2060 C 0.86199 0.04314 0.27299 0.0
C2061 C 0.87416 0.02639 0.28687 0.0
C2062 C 0.90938 0.02441 0.28641 0.0
C2063 C 0.86296 0.04155 0.30171 0.0
C2064 C 0.85958 0.99529 0.28466 0.0
C2065 C 0.84136 0.99489 0.2717 0.0
C2066 C 0.82746 0.96799 0.26668 0.0
C2067 C 0.83329 0.94075 0.2747 0.0
C2068 C 0.85276 0.94054 0.28762 0.0
C2069 C 0.86546 0.96828 0.29285 0.0
H2070 H 0.18439 0.61843 0.52188 0.0
H2071 H 0.19784 0.5686 0.47947 0.0
H2072 H 0.24917 0.5524 0.48854 0.0
H2073 H 0.25827 0.648 0.52393 0.0
H2074 H 0.26054 0.64615 0.54446 0.0
H2075 H 0.22391 0.65016 0.53532 0.0
H2076 H 0.20466 0.60154 0.54939 0.0
H2077 H 0.24148 0.5972 0.55842 0.0
H2078 H 0.22557 0.56614 0.54743 0.0
H2079 H 0.30112 0.54634 0.5013 0.0
H2080 H 0.3495 0.55369 0.51547 0.0
H2081 H 0.30162 0.60741 0.5495 0.0
C2082 C 0.19767 0.60354 0.51453 0.0
C2083 C 0.18669 0.59453 0.49995 0.0
C2084 C 0.20547 0.57564 0.4907 0.0
C2085 C 0.23464 0.56625 0.4958 0.0
C2086 C 0.24472 0.57589 0.51019 0.0
C2087 C 0.22673 0.59422 0.51938 0.0
C2088 C 0.24367 0.60403 0.53369 0.0
C2089 C 0.24678 0.63915 0.53438 0.0
C2090 C 0.2279 0.59147 0.54809 0.0
C2091 C 0.27439 0.58877 0.5311 0.0
C2092 C 0.27444 0.57234 0.51755 0.0
C2093 C 0.30106 0.55857 0.51205 0.0
C2094 C 0.32841 0.56265 0.52024 0.0
C2095 C 0.32906 0.58022 0.53385 0.0
C2096 C 0.30149 0.59268 0.53954 0.0
H2097 H 0.6182 0.05123 0.7966 0.0
H2098 H 0.69195 0.09475 0.77174 0.0
H2099 H 0.70137 0.04655 0.75751 0.0
H2100 H 0.65305 0.97276 0.7985 0.0
H2101 H 0.61625 0.95477 0.79598 0.0
H2102 H 0.61888 0.99122 0.80554 0.0
H2103 H 0.57986 0.0138 0.78632 0.0
H2104 H 0.5777 0.9777 0.77646 0.0
H2105 H 0.58797 0.01192 0.76614 0.0
H2106 H 0.69751 0.995 0.74344 0.0
H2107 H 0.68492 0.94331 0.73331 0.0
H2108 H 0.61415 0.93432 0.76786 0.0
C2109 C 0.63731 0.05004 0.78872 0.0
C2110 C 0.65518 0.07624 0.78566 0.0
C2111 C 0.67886 0.07449 0.77464 0.0
C2112 C 0.68409 0.04732 0.76638 0.0
C2113 C 0.66535 0.02208 0.76927 0.0
C2114 C 0.64283 0.02307 0.78042 0.0
C2115 C 0.62453 0.99363 0.78071 0.0
C2116 C 0.62843 0.97711 0.7961 0.0
C2117 C 0.59051 0.99964 0.7772 0.0
C2118 C 0.63986 0.97611 0.76786 0.0
C2119 C 0.66327 0.99279 0.7613 0.0
C2120 C 0.67953 0.98157 0.74868 0.0
C2121 C 0.67209 0.9523 0.74291 0.0
C2122 C 0.64875 0.93454 0.74982 0.0
C2123 C 0.63243 0.94699 0.76238 0.0
H2124 H 0.70996 0.64185 0.04613 0.0
H2125 H 0.66194 0.58465 1.01368 0.0
H2126 H 0.71062 0.57422 1.00013 0.0
H2127 H 0.75686 0.67719 0.01973 0.0
H2128 H 0.79051 0.67931 0.03159 0.0
H2129 H 0.75313 0.67829 0.04024 0.0
H2130 H 0.76853 0.63068 0.05613 0.0
H2131 H 0.80621 0.63186 0.04772 0.0
H2132 H 0.78365 0.59737 0.04656 0.0
H2133 H 0.76356 0.57577 0.9881 0.0
H2134 H 0.81684 0.58641 0.97979 0.0
H2135 H 0.82996 0.64253 0.02021 0.0
C2136 C 0.71008 0.62603 0.0366 0.0
C2137 C 0.68251 0.61318 0.03121 0.0
C2138 C 0.68309 0.59391 0.01821 0.0
C2139 C 0.71058 0.58805 1.01039 0.0
C2140 C 0.73736 0.60177 1.01568 0.0
C2141 C 0.7374 0.62006 0.02862 0.0
C2142 C 0.76872 0.63408 0.03118 0.0
C2143 C 0.76719 0.6693 0.03065 0.0
C2144 C 0.7826 0.62282 0.04629 0.0
C2145 C 0.78603 0.62135 0.01755 0.0
C2146 C 0.76766 0.60271 1.00873 0.0
C2147 C 0.77831 0.58993 0.99507 0.0
C2148 C 0.80857 0.5962 0.99039 0.0
C2149 C 0.82787 0.61504 0.99936 0.0
C2150 C 0.81618 0.6276 1.01313 0.0
H2151 H 0.0991 0.94349 0.77119 0.0
H2152 H 0.18997 0.93565 0.79068 0.0
H2153 H 0.20426 0.98524 0.7786 0.0
H2154 H 0.12036 0.97511 0.73553 0.0
H2155 H 0.08779 1.0004 0.73441 0.0
H2156 H 0.08491 0.96493 0.74481 0.0
H2157 H 0.06807 0.99416 0.7692 0.0
H2158 H 0.07006 0.0296 0.75876 0.0
H2159 H 0.09141 0.02516 0.77622 0.0
H2160 H 0.20826 0.03605 0.76315 0.0
H2161 H 0.19908 0.08542 0.74977 0.0
H2162 H 0.10544 0.05828 0.74105 0.0
C2163 C 0.12198 0.95225 0.77308 0.0
C2164 C 0.14345 0.93564 0.78189 0.0
C2165 C 0.17306 0.9481 0.78411 0.0
C2166 C 0.18143 0.97607 0.77714 0.0
C2167 C 0.15985 0.99132 0.76809 0.0
C2168 C 0.13052 0.97997 0.76636 0.0
C2169 C 0.11098 1.00076 0.75657 0.0
C2170 C 0.1004 0.98431 0.74197 0.0
C2171 C 0.08352 0.01316 0.76574 0.0
C2172 C 0.13377 0.02578 0.75295 0.0
C2173 C 0.16201 0.01994 0.75949 0.0
C2174 C 0.18627 0.04061 0.75794 0.0
C2175 C 0.18105 0.06839 0.75012 0.0
C2176 C 0.15181 0.07521 0.74404 0.0
C2177 C 0.12824 0.05326 0.74522 0.0
H2178 H 0.82435 0.36284 0.51659 0.0
H2179 H 0.81747 0.43751 0.54917 0.0
H2180 H 0.76571 0.44988 0.5389 0.0
H2181 H 0.78919 0.40069 0.48518 0.0
H2182 H 0.77047 0.36647 0.47845 0.0
H2183 H 0.80621 0.3637 0.48861 0.0
H2184 H 0.78145 0.32706 0.50841 0.0
H2185 H 0.74589 0.32914 0.49812 0.0
H2186 H 0.74691 0.33866 0.51814 0.0
H2187 H 0.71302 0.45208 0.52484 0.0
H2188 H 0.6653 0.44165 0.51031 0.0
H2189 H 0.71063 0.36785 0.48634 0.0
C2190 C 0.81227 0.38197 0.52168 0.0
C2191 C 0.8253 0.39935 0.5337 0.0
C2192 C 0.80807 0.42378 0.54001 0.0
C2193 C 0.77877 0.43108 0.53414 0.0
C2194 C 0.76719 0.41382 0.52193 0.0
C2195 C 0.78357 0.38962 0.51592 0.0
C2196 C 0.76652 0.37386 0.50311 0.0
C2197 C 0.78416 0.37635 0.48795 0.0
C2198 C 0.75979 0.34021 0.50719 0.0
C2199 C 0.73759 0.39275 0.50277 0.0
C2200 C 0.73819 0.41578 0.51366 0.0
C2201 C 0.71272 0.43453 0.51611 0.0
C2202 C 0.68584 0.42876 0.50767 0.0
C2203 C 0.68481 0.40477 0.4968 0.0
C2204 C 0.71126 0.38715 0.49411 0.0
H2205 H 0.40756 0.06634 0.2907 0.0
H2206 H 0.31774 0.09744 0.27685 0.0
H2207 H 0.30928 0.04823 0.26319 0.0
H2208 H 0.4275 0.03282 0.25642 0.0
H2209 H 0.44816 1.00104 0.26457 0.0
H2210 H 0.44518 0.03652 0.27492 0.0
H2211 H 0.42145 0.00827 0.29814 0.0
H2212 H 0.42518 0.97254 0.28802 0.0
H2213 H 0.38839 0.98417 0.29538 0.0
H2214 H 0.3139 0.99665 0.24855 0.0
H2215 H 0.32851 0.94628 0.23741 0.0
H2216 H 0.41581 0.95157 0.26085 0.0
C2217 C 0.38566 0.06227 0.28529 0.0
C2218 C 0.36294 0.08517 0.28515 0.0
C2219 C 0.33496 0.07962 0.27749 0.0
C2220 C 0.33019 0.05193 0.26954 0.0
C2221 C 0.35369 0.03018 0.26938 0.0
C2222 C 0.38064 0.03495 0.27734 0.0
C2223 C 0.40308 0.00906 0.27487 0.0
C2224 C 0.43272 0.02057 0.26724 0.0
C2225 C 0.40991 0.99253 0.29 0.0
C2226 C 0.38482 0.98902 0.26415 0.0
C2227 C 0.35641 1.00139 0.26101 0.0
C2228 C 0.33603 0.98672 0.25108 0.0
C2229 C 0.3446 0.95828 0.24466 0.0
C2230 C 0.37324 0.94487 0.24826 0.0
C2231 C 0.39363 0.96098 0.2579 0.0
H2232 H 0.82084 0.85931 0.52092 0.0
H2233 H 0.81406 0.9264 0.48449 0.0
H2234 H 0.76143 0.93925 0.49319 0.0
H2235 H 0.745 0.83177 0.51815 0.0
H2236 H 0.74096 0.82568 0.53841 0.0
H2237 H 0.77821 0.8236 0.52967 0.0
H2238 H 0.79806 0.86475 0.54858 0.0
H2239 H 0.76067 0.8673 0.55723 0.0
H2240 H 0.77882 0.90122 0.54976 0.0
H2241 H 0.70795 0.94228 0.50536 0.0
H2242 H 0.65843 0.93273 0.51842 0.0
H2243 H 0.70156 0.8644 0.54696 0.0
C2244 C 0.8086 0.87701 0.51478 0.0
C2245 C 0.82191 0.89204 0.50203 0.0
C2246 C 0.80454 0.91459 0.49427 0.0
C2247 C 0.77467 0.92214 0.49921 0.0
C2248 C 0.76249 0.90695 0.51192 0.0
C2249 C 0.77898 0.8847 0.5195 0.0
C2250 C 0.76045 0.87032 0.53228 0.0
C2251 C 0.75588 0.83581 0.52945 0.0
C2252 C 0.7754 0.87627 0.54789 0.0
C2253 C 0.73064 0.88774 0.53072 0.0
C2254 C 0.73226 0.90896 0.51899 0.0
C2255 C 0.70672 0.92618 0.51474 0.0
C2256 C 0.67877 0.92086 0.52231 0.0
C2257 C 0.67658 0.89876 0.53409 0.0
C2258 C 0.703 0.88243 0.53849 0.0
H2259 H 0.36928 0.55212 0.73709 0.0
H2260 H 0.31931 0.60087 0.77224 0.0
H2261 H 0.30932 0.55213 0.78569 0.0
H2262 H 0.32297 0.4791 0.73817 0.0
H2263 H 0.35675 0.45593 0.73553 0.0
H2264 H 0.35486 0.4937 0.72728 0.0
H2265 H 0.40519 0.50813 0.74115 0.0
H2266 H 0.407 0.47068 0.74964 0.0
H2267 H 0.40742 0.50425 0.76162 0.0
H2268 H 0.31166 0.49897 0.79742 0.0
H2269 H 0.32409 0.44596 0.80548 0.0
H2270 H 0.37254 0.43213 0.76267 0.0
C2271 C 0.35492 0.55223 0.74719 0.0
C2272 C 0.34425 0.58014 0.75339 0.0
C2273 C 0.32701 0.57963 0.76711 0.0
C2274 C 0.32137 0.55205 0.77488 0.0
C2275 C 0.33322 0.52499 0.76884 0.0
C2276 C 0.34935 0.52481 0.75519 0.0
C2277 C 0.36235 0.49324 0.752 0.0
C2278 C 0.34839 0.47969 0.73737 0.0
C2279 C 0.39756 0.49415 0.75105 0.0
C2280 C 0.35162 0.47598 0.76607 0.0
C2281 C 0.33472 0.49454 0.77565 0.0
C2282 C 0.32439 0.48405 0.78985 0.0
C2283 C 0.3316 0.45388 0.79437 0.0
C2284 C 0.34903 0.43448 0.78473 0.0
C2285 C 0.35872 0.4459 0.77032 0.0
H2286 H 0.82958 0.1342 1.01459 0.0
H2287 H 0.81843 0.0776 0.05501 0.0
H2288 H 0.76695 0.06214 0.04569 0.0
H2289 H 0.75508 0.16263 1.01377 0.0
H2290 H 0.75287 0.16356 0.99322 0.0
H2291 H 0.78938 0.16713 1.00251 0.0
H2292 H 0.80975 0.12102 0.9868 0.0
H2293 H 0.77304 0.11707 0.97762 0.0
H2294 H 0.7897 0.08496 0.98753 0.0
H2295 H 0.71444 0.05738 0.03285 0.0
H2296 H 0.66595 0.06575 0.01886 0.0
H2297 H 0.71293 0.12467 0.98676 0.0
C2298 C 0.81675 0.11815 0.02152 0.0
C2299 C 0.82841 0.10702 0.03561 0.0
C2300 C 0.81025 0.08638 0.04419 0.0
C2301 C 0.78101 0.07741 0.03893 0.0
C2302 C 0.77036 0.0891 0.02502 0.0
C2303 C 0.78783 0.10908 1.01648 0.0
C2304 C 0.77071 0.12045 1.00253 0.0
C2305 C 0.76678 0.1555 1.00305 0.0
C2306 C 0.78676 0.11026 0.98774 0.0
C2307 C 0.74039 0.10419 1.00457 0.0
C2308 C 0.74067 0.08598 0.01754 0.0
C2309 C 0.7143 0.071 0.02252 0.0
C2310 C 0.6869 0.07568 1.01443 0.0
C2311 C 0.68598 0.09496 1.00142 0.0
C2312 C 0.7133 0.10866 0.99621 0.0
H2313 H 0.14642 0.56401 0.29674 0.0
H2314 H 0.19394 0.61105 0.26022 0.0
H2315 H 0.20099 0.56193 0.24661 0.0
H2316 H 0.19004 0.48954 0.29457 0.0
H2317 H 0.15582 0.46757 0.29815 0.0
H2318 H 0.15988 0.50529 0.30626 0.0
H2319 H 0.10863 0.52131 0.29372 0.0
H2320 H 0.10468 0.48394 0.28531 0.0
H2321 H 0.10412 0.51752 0.27334 0.0
H2322 H 0.19614 0.5088 0.23519 0.0
H2323 H 0.18236 0.45578 0.2278 0.0
H2324 H 0.13709 0.44388 0.2716 0.0
C2325 C 0.15968 0.56363 0.28628 0.0
C2326 C 0.17051 0.59113 0.27974 0.0
C2327 C 0.18621 0.59006 0.26558 0.0
C2328 C 0.19014 0.56229 0.25773 0.0
C2329 C 0.17806 0.53568 0.26413 0.0
C2330 C 0.16344 0.53605 0.27818 0.0
C2331 C 0.14974 0.50497 0.28178 0.0
C2332 C 0.16478 0.49102 0.29604 0.0
C2333 C 0.11473 0.50708 0.28364 0.0
C2334 C 0.15838 0.48734 0.26748 0.0
C2335 C 0.17485 0.5053 0.25744 0.0
C2336 C 0.18369 0.49436 0.24309 0.0
C2337 C 0.17564 0.46423 0.23894 0.0
C2338 C 0.15883 0.44536 0.2491 0.0
C2339 C 0.15031 0.45733 0.26357 0.0
H2340 H 0.17818 0.11979 0.50886 0.0
H2341 H 0.19338 0.07889 0.55344 0.0
H2342 H 0.24746 0.06917 0.54631 0.0
H2343 H 0.2298 0.07012 0.48668 0.0
H2344 H 0.24244 0.10129 0.47474 0.0
H2345 H 0.20431 0.10158 0.48265 0.0
H2346 H 0.21463 0.15466 0.49484 0.0
H2347 H 0.25269 0.15458 0.48695 0.0
H2348 H 0.24725 0.15947 0.50721 0.0
H2349 H 0.30092 0.06868 0.53523 0.0
H2350 H 0.34946 0.07856 0.52164 0.0
H2351 H 0.29949 0.12002 0.48424 0.0
C2352 C 0.19254 0.10815 0.5171 0.0
C2353 C 0.18119 0.09984 0.53174 0.0
C2354 C 0.20127 0.08526 0.54214 0.0
C2355 C 0.23205 0.07961 0.53817 0.0
C2356 C 0.24245 0.08863 0.52374 0.0
C2357 C 0.22322 0.10257 0.51336 0.0
C2358 C 0.24047 0.1124 0.4991 0.0
C2359 C 0.22854 0.09532 0.48495 0.0
C2360 C 0.23865 0.14734 0.49691 0.0
C2361 C 0.27269 0.1023 0.50311 0.0
C2362 C 0.27324 0.08839 0.51733 0.0
C2363 C 0.30061 0.07909 0.52401 0.0
C2364 C 0.32809 0.08478 0.51619 0.0
C2365 C 0.32822 0.09958 0.50177 0.0
C2366 C 0.30003 0.10784 0.49501 0.0
H2367 H 0.64832 0.46885 0.2968 0.0
H2368 H 0.69362 0.41735 0.26111 0.0
H2369 H 0.70498 0.4654 0.24726 0.0
H2370 H 0.61042 0.51688 0.27284 0.0
H2371 H 0.61269 0.55082 0.2845 0.0
H2372 H 0.61408 0.51364 0.29328 0.0
H2373 H 0.66587 0.52696 0.30608 0.0
H2374 H 0.66441 0.56452 0.29756 0.0
H2375 H 0.6973 0.54032 0.29448 0.0
H2376 H 0.70353 0.51832 0.23522 0.0
H2377 H 0.69159 0.57134 0.22694 0.0
H2378 H 0.64693 0.58758 0.27057 0.0
C2379 C 0.66212 0.46799 0.28651 0.0
C2380 C 0.6711 0.43962 0.28026 0.0
C2381 C 0.68744 0.43904 0.26628 0.0
C2382 C 0.6938 0.4662 0.2583 0.0
C2383 C 0.68353 0.49383 0.26441 0.0
C2384 C 0.66835 0.49494 0.27832 0.0
C2385 C 0.65651 0.5269 0.28152 0.0
C2386 C 0.62136 0.52704 0.28312 0.0
C2387 C 0.67196 0.54048 0.29575 0.0
C2388 C 0.66666 0.54331 0.26713 0.0
C2389 C 0.68239 0.52406 0.2574 0.0
C2390 C 0.69178 0.53379 0.2429 0.0
C2391 C 0.68482 0.56393 0.23826 0.0
C2392 C 0.66854 0.58396 0.24807 0.0
C2393 C 0.65981 0.57329 0.26275 0.0
H2394 H 0.17975 0.89167 0.02074 0.0
H2395 H 0.19592 0.9424 0.97884 0.0
H2396 H 0.2483 0.95493 0.98801 0.0
H2397 H 0.22363 0.93988 0.04677 0.0
H2398 H 0.23759 0.90739 0.05739 0.0
H2399 H 0.20065 0.90571 0.04827 0.0
H2400 H 0.21704 0.85673 0.03361 0.0
H2401 H 0.25378 0.85805 0.04282 0.0
H2402 H 0.25153 0.85737 0.02228 0.0
H2403 H 0.30066 0.95754 1.00108 0.0
H2404 H 0.34831 0.94677 1.0154 0.0
H2405 H 0.2969 0.89396 0.04842 0.0
C2406 C 0.19386 0.90597 1.01349 0.0
C2407 C 0.18334 0.91634 0.99905 0.0
C2408 C 0.20321 0.93436 0.98995 0.0
C2409 C 0.23296 0.94167 0.99513 0.0
C2410 C 0.24246 0.93079 1.00941 0.0
C2411 C 0.22339 0.91318 0.01838 0.0
C2412 C 0.23955 0.90165 0.03258 0.0
C2413 C 0.22445 0.91443 0.04711 0.0
C2414 C 0.24054 0.86638 0.03283 0.0
C2415 C 0.27109 0.91515 0.0302 0.0
C2416 C 0.27227 0.93223 1.01687 0.0
C2417 C 0.29972 0.9448 1.01167 0.0
C2418 C 0.32663 0.93882 0.01994 0.0
C2419 C 0.32598 0.92058 0.03332 0.0
C2420 C 0.29774 0.9092 0.03867 0.0
H2421 H 0.87341 0.42941 0.77163 0.0
H2422 H 0.82421 0.4439 0.72917 0.0
H2423 H 0.81143 0.49663 0.73767 0.0
H2424 H 0.824 0.47453 0.79674 0.0
H2425 H 0.85593 0.48908 0.80757 0.0
H2426 H 0.85819 0.45175 0.79884 0.0
H2427 H 0.90776 0.46771 0.78456 0.0
H2428 H 0.90583 0.50485 0.79339 0.0
H2429 H 0.9075 0.50172 0.77289 0.0
H2430 H 0.80832 0.54951 0.75004 0.0
H2431 H 0.81811 0.59784 0.76398 0.0
H2432 H 0.86927 0.54813 0.79822 0.0
C2433 C 0.85941 0.44327 0.76413 0.0
C2434 C 0.84954 0.43213 0.74971 0.0
C2435 C 0.83189 0.45166 0.74027 0.0
C2436 C 0.82443 0.48163 0.74505 0.0
C2437 C 0.83478 0.49178 0.75931 0.0
C2438 C 0.85203 0.4731 0.76865 0.0
C2439 C 0.86281 0.48997 0.78281 0.0
C2440 C 0.84942 0.47546 0.79735 0.0
C2441 C 0.89805 0.49113 0.78344 0.0
C2442 C 0.84928 0.5214 0.77998 0.0
C2443 C 0.8329 0.52193 0.76644 0.0
C2444 C 0.82051 0.5491 0.76079 0.0
C2445 C 0.82592 0.57641 0.76886 0.0
C2446 C 0.84336 0.57647 0.78248 0.0
C2447 C 0.85457 0.54848 0.78827 0.0
H2448 H 0.14458 0.3673 0.10668 0.0
H2449 H 0.08809 0.44884 0.10343 0.0
H2450 H 0.08781 0.45334 0.13149 0.0
H2451 H 0.11037 0.3359 0.13981 0.0
H2452 H 0.14559 0.32244 0.14817 0.0
H2453 H 0.14239 0.32602 0.12775 0.0
H2454 H 0.19011 0.36125 0.12725 0.0
H2455 H 0.19357 0.35762 0.14768 0.0
H2456 H 0.19088 0.39503 0.13909 0.0
H2457 H 0.08891 0.44587 0.16004 0.0
H2458 H 0.09699 0.43049 0.187 0.0
H2459 H 0.15662 0.35699 0.17196 0.0
C2460 C 0.13251 0.38631 0.11188 0.0
C2461 C 0.11634 0.4077 0.10282 0.0
C2462 C 0.10081 0.43225 0.11008 0.0
C2463 C 0.10039 0.43496 0.12605 0.0
C2464 C 0.1161 0.41327 0.13468 0.0
C2465 C 0.13241 0.38977 0.12786 0.0
C2466 C 0.14754 0.3697 0.13983 0.0
C2467 C 0.13576 0.33656 0.13883 0.0
C2468 C 0.18261 0.37099 0.13837 0.0
C2469 C 0.13667 0.38524 0.15439 0.0
C2470 C 0.11827 0.41014 0.15116 0.0
C2471 C 0.10378 0.42679 0.16272 0.0
C2472 C 0.10838 0.41787 0.17798 0.0
C2473 C 0.1278 0.39296 0.18154 0.0
C2474 C 0.1422 0.3766 0.16956 0.0
H2475 H 0.91703 0.90692 0.42511 0.0
H2476 H 0.8365 0.85612 0.43911 0.0
H2477 H 0.82057 0.85145 0.41211 0.0
H2478 H 0.88347 0.94674 0.39187 0.0
H2479 H 0.91738 0.94217 0.38033 0.0
H2480 H 0.92061 0.94503 0.4008 0.0
H2481 H 0.95006 0.89356 0.40144 0.0
H2482 H 0.94689 0.89053 0.381 0.0
H2483 H 0.93298 0.86 0.393 0.0
H2484 H 0.81413 0.85071 0.38377 0.0
H2485 H 0.81963 0.84952 0.35581 0.0
H2486 H 0.90664 0.89707 0.35944 0.0
C2487 C 0.89569 0.89548 0.42245 0.0
C2488 C 0.87757 0.88241 0.43419 0.0
C2489 C 0.85043 0.86659 0.43029 0.0
C2490 C 0.8412 0.86389 0.415 0.0
C2491 C 0.85968 0.87665 0.40366 0.0
C2492 C 0.88655 0.89185 0.40714 0.0
C2493 C 0.90363 0.90077 0.39265 0.0
C2494 C 0.90643 0.93576 0.39134 0.0
C2495 C 0.93526 0.88528 0.39199 0.0
C2496 C 0.88229 0.88799 0.3805 0.0
C2497 C 0.85684 0.87469 0.38716 0.0
C2498 C 0.83394 0.86109 0.37843 0.0
C2499 C 0.83728 0.86059 0.3625 0.0
C2500 C 0.86356 0.87318 0.35534 0.0
C2501 C 0.88623 0.88732 0.36453 0.0
H2502 H 0.35645 0.66237 0.67384 0.0
H2503 H 0.4047 0.58136 0.68933 0.0
H2504 H 0.40902 0.56346 0.66256 0.0
H2505 H 0.31518 0.62823 0.64195 0.0
H2506 H 0.32051 0.66079 0.62958 0.0
H2507 H 0.31877 0.66608 0.64998 0.0
H2508 H 0.37142 0.69335 0.64942 0.0
H2509 H 0.37325 0.68828 0.62903 0.0
H2510 H 0.40383 0.6742 0.64093 0.0
H2511 H 0.40755 0.55421 0.63445 0.0
H2512 H 0.40728 0.55667 0.60649 0.0
H2513 H 0.36418 0.6463 0.60838 0.0
C2514 C 0.36757 0.64067 0.67157 0.0
C2515 C 0.37984 0.62289 0.68364 0.0
C2516 C 0.39501 0.59512 0.68025 0.0
C2517 C 0.39742 0.58477 0.6651 0.0
C2518 C 0.38507 0.6028 0.65346 0.0
C2519 C 0.37092 0.63043 0.65646 0.0
C2520 C 0.36193 0.64654 0.64172 0.0
C2521 C 0.32702 0.65065 0.64076 0.0
C2522 C 0.37861 0.67742 0.64019 0.0
C2523 C 0.37327 0.62364 0.62993 0.0
C2524 C 0.38597 0.59836 0.63705 0.0
C2525 C 0.39782 0.57394 0.62876 0.0
C2526 C 0.39743 0.5756 0.6128 0.0
C2527 C 0.38577 0.60176 0.60511 0.0
C2528 C 0.37316 0.62598 0.61386 0.0
H2529 H 0.61067 0.11906 0.85741 0.0
H2530 H 0.69338 0.17358 0.85338 0.0
H2531 H 0.69898 0.17346 0.88138 0.0
H2532 H 0.58146 0.1539 0.89099 0.0
H2533 H 0.56738 0.11895 0.8994 0.0
H2534 H 0.57024 0.12233 0.87895 0.0
H2535 H 0.6041 0.07365 0.87797 0.0
H2536 H 0.60123 0.07004 0.89842 0.0
H2537 H 0.63834 0.0718 0.88942 0.0
H2538 H 0.69288 0.17186 0.91008 0.0
H2539 H 0.67838 0.16388 0.93718 0.0
H2540 H 0.60247 0.10681 0.92279 0.0
C2541 C 0.63015 0.13064 0.86242 0.0
C2542 C 0.65157 0.14635 0.85313 0.0
C2543 C 0.67672 0.16124 0.86018 0.0
C2544 C 0.68008 0.16141 0.87613 0.0
C2545 C 0.65839 0.14613 0.88497 0.0
C2546 C 0.6342 0.13054 0.87837 0.0
C2547 C 0.61424 0.11582 0.89054 0.0
C2548 C 0.58139 0.12851 0.88993 0.0
C2549 C 0.61451 0.08074 0.88899 0.0
C2550 C 0.63064 0.12605 0.90496 0.0
C2551 C 0.65591 0.14377 0.9015 0.0
C2552 C 0.67347 0.15754 0.91293 0.0
C2553 C 0.66506 0.15297 0.92828 0.0
C2554 C 0.63969 0.13433 0.93209 0.0
C2555 C 0.62244 0.1206 0.92023 0.0
H2556 H 0.16311 0.67302 0.35992 0.0
H2557 H 0.11799 0.59015 0.34457 0.0
H2558 H 0.11419 0.57236 0.37138 0.0
H2559 H 0.20507 0.64076 0.39239 0.0
H2560 H 0.19815 0.67345 0.40449 0.0
H2561 H 0.20047 0.67825 0.38408 0.0
H2562 H 0.1469 0.70374 0.384 0.0
H2563 H 0.14447 0.69913 0.40439 0.0
H2564 H 0.11486 0.68371 0.39231 0.0
H2565 H 0.11491 0.56388 0.39955 0.0
H2566 H 0.11327 0.56747 0.42748 0.0
H2567 H 0.15364 0.65831 0.42534 0.0
C2568 C 0.15293 0.65089 0.36224 0.0
C2569 C 0.14133 0.63258 0.35021 0.0
C2570 C 0.12723 0.60428 0.35364 0.0
C2571 C 0.12512 0.594 0.3688 0.0
C2572 C 0.13668 0.6126 0.38042 0.0
C2573 C 0.14985 0.64069 0.37737 0.0
C2574 C 0.15771 0.65748 0.39208 0.0
C2575 C 0.19242 0.66279 0.39333 0.0
C2576 C 0.13992 0.68781 0.39326 0.0
C2577 C 0.14674 0.6345 0.4039 0.0
C2578 C 0.13531 0.60856 0.39685 0.0
C2579 C 0.12371 0.5841 0.40519 0.0
C2580 C 0.12297 0.58642 0.42113 0.0
C2581 C 0.13325 0.61325 0.42872 0.0
C2582 C 0.14576 0.63745 0.41993 0.0
H2583 H 0.58865 0.88338 0.67645 0.0
H2584 H 0.68747 0.87267 0.67884 0.0
H2585 H 0.691 0.87739 0.65103 0.0
H2586 H 0.57732 0.84091 0.64277 0.0
H2587 H 0.54854 0.86555 0.63461 0.0
H2588 H 0.55322 0.86378 0.65502 0.0
H2589 H 0.56109 0.92251 0.65601 0.0
H2590 H 0.55621 0.9245 0.63558 0.0
H2591 H 0.59028 0.93989 0.64429 0.0
H2592 H 0.68414 0.87617 0.623 0.0
H2593 H 0.6671 0.8755 0.59606 0.0
H2594 H 0.57362 0.89154 0.61069 0.0
C2595 C 0.61103 0.88273 0.67113 0.0
C2596 C 0.63774 0.87752 0.67996 0.0
C2597 C 0.66658 0.87651 0.67247 0.0
C2598 C 0.66892 0.87918 0.65659 0.0
C2599 C 0.64229 0.88338 0.64819 0.0
C2600 C 0.61391 0.88578 0.65513 0.0
C2601 C 0.58899 0.88975 0.64314 0.0
C2602 C 0.56564 0.86342 0.64394 0.0
C2603 C 0.57321 0.92103 0.64486 0.0
C2604 C 0.60782 0.88826 0.6285 0.0
C2605 C 0.63852 0.88441 0.63175 0.0
C2606 C 0.66026 0.87991 0.62027 0.0
C2607 C 0.65044 0.87946 0.60503 0.0
C2608 C 0.6193 0.88408 0.60137 0.0
C2609 C 0.59772 0.88874 0.61324 0.0
H2610 H 0.40662 0.39819 0.85932 0.0
H2611 H 0.3197 0.35009 0.85641 0.0
H2612 H 0.31676 0.34796 0.88432 0.0
H2613 H 0.43622 0.3587 0.89132 0.0
H2614 H 0.45313 0.39169 0.90036 0.0
H2615 H 0.44845 0.39087 0.87993 0.0
H2616 H 0.41759 0.44149 0.88102 0.0
H2617 H 0.42245 0.44263 0.90145 0.0
H2618 H 0.38457 0.44413 0.89334 0.0
H2619 H 0.32566 0.3451 0.91242 0.0
H2620 H 0.34244 0.34943 0.93937 0.0
H2621 H 0.42032 0.40384 0.92496 0.0
C2622 C 0.38675 0.38772 0.86457 0.0
C2623 C 0.36349 0.37424 0.85554 0.0
C2624 C 0.3379 0.36067 0.86294 0.0
C2625 C 0.33598 0.35918 0.87887 0.0
C2626 C 0.3595 0.37191 0.88743 0.0
C2627 C 0.38406 0.38661 0.88062 0.0
C2628 C 0.40592 0.39868 0.89269 0.0
C2629 C 0.43782 0.38411 0.89097 0.0
C2630 C 0.40773 0.43382 0.89209 0.0
C2631 C 0.39008 0.38783 0.9072 0.0
C2632 C 0.36353 0.37208 0.90386 0.0
C2633 C 0.34607 0.35795 0.91523 0.0
C2634 C 0.35579 0.36036 0.93048 0.0
C2635 C 0.38228 0.37732 0.93421 0.0
C2636 C 0.39957 0.39125 0.9224 0.0
H2637 H 0.85923 0.16575 0.17477 0.0
H2638 H 0.91807 0.09149 0.18954 0.0
H2639 H 0.92367 0.07455 0.16264 0.0
H2640 H 0.82153 0.12682 0.14309 0.0
H2641 H 0.82211 0.1601 0.13092 0.0
H2642 H 0.82038 0.16462 0.15136 0.0
H2643 H 0.86896 0.19862 0.15059 0.0
H2644 H 0.87075 0.19432 0.13016 0.0
H2645 H 0.90332 0.18411 0.14172 0.0
H2646 H 0.92281 0.06591 0.13409 0.0
H2647 H 0.92132 0.06965 0.10602 0.0
H2648 H 0.86654 0.15234 0.10947 0.0
C2649 C 0.87292 0.14563 0.17234 0.0
C2650 C 0.88784 0.12956 0.18425 0.0
C2651 C 0.90629 0.10394 0.1806 0.0
C2652 C 0.90947 0.09412 0.16537 0.0
C2653 C 0.8945 0.11051 0.15389 0.0
C2654 C 0.87696 0.13602 0.15717 0.0
C2655 C 0.86546 0.15114 0.14264 0.0
C2656 C 0.83028 0.15063 0.14197 0.0
C2657 C 0.87787 0.18399 0.1412 0.0
C2658 C 0.8793 0.13022 0.13062 0.0
C2659 C 0.89547 0.10661 0.13739 0.0
C2660 C 0.91027 0.08435 0.12869 0.0
C2661 C 0.90915 0.08662 0.11271 0.0
C2662 C 0.8938 0.11128 0.10546 0.0
C2663 C 0.87837 0.13315 0.11462 0.0
H2664 H 0.89442 0.61201 0.85619 0.0
H2665 H 0.81489 0.67129 0.85292 0.0
H2666 H 0.81241 0.67445 0.88099 0.0
H2667 H 0.86773 0.57031 0.89061 0.0
H2668 H 0.90583 0.56732 0.89837 0.0
H2669 H 0.90032 0.56835 0.87798 0.0
H2670 H 0.93722 0.61466 0.87612 0.0
H2671 H 0.94261 0.61396 0.8965 0.0
H2672 H 0.92957 0.6485 0.8873 0.0
H2673 H 0.82243 0.67646 0.90939 0.0
H2674 H 0.84025 0.67125 0.93616 0.0
H2675 H 0.91017 0.6073 0.92129 0.0
C2676 C 0.87614 0.62515 0.8614 0.0
C2677 C 0.85485 0.64138 0.8523 0.0
C2678 C 0.83138 0.65848 0.85959 0.0
C2679 C 0.82983 0.66055 0.87557 0.0
C2680 C 0.85157 0.64493 0.88419 0.0
C2681 C 0.87389 0.62701 0.87739 0.0
C2682 C 0.89456 0.61269 0.88934 0.0
C2683 C 0.89194 0.57758 0.88906 0.0
C2684 C 0.92796 0.62308 0.88718 0.0
C2685 C 0.88082 0.62593 0.90384 0.0
C2686 C 0.85621 0.64472 0.90063 0.0
C2687 C 0.84127 0.66129 0.91208 0.0
C2688 C 0.85159 0.65833 0.92723 0.0
C2689 C 0.87619 0.63854 0.9308 0.0
C2690 C 0.89083 0.62208 0.91892 0.0
H2691 H 0.09673 0.10629 0.61017 0.0
H2692 H 0.17279 0.16155 0.59421 0.0
H2693 H 0.18885 0.17022 0.621 0.0
H2694 H 0.07813 0.15484 0.6416 0.0
H2695 H 0.06691 0.12407 0.65413 0.0
H2696 H 0.06319 0.11971 0.63377 0.0
H2697 H 0.09624 0.07048 0.63479 0.0
H2698 H 0.10009 0.0747 0.65517 0.0
H2699 H 0.13377 0.07192 0.64332 0.0
H2700 H 0.1965 0.1728 0.64944 0.0
H2701 H 0.19251 0.17413 0.67748 0.0
H2702 H 0.10866 0.12092 0.67531 0.0
C2703 C 0.11707 0.11979 0.61233 0.0
C2704 C 0.13391 0.13284 0.60013 0.0
C2705 C 0.15979 0.15116 0.60339 0.0
C2706 C 0.16909 0.15611 0.61856 0.0
C2707 C 0.15189 0.14305 0.63034 0.0
C2708 C 0.12618 0.12561 0.62742 0.0
C2709 C 0.11034 0.11629 0.64217 0.0
C2710 C 0.07771 0.12952 0.64296 0.0
C2711 C 0.11011 0.08126 0.64397 0.0
C2712 C 0.13115 0.13122 0.65388 0.0
C2713 C 0.15525 0.14607 0.64677 0.0
C2714 C 0.17768 0.16132 0.6551 0.0
C2715 C 0.17523 0.16184 0.67107 0.0
C2716 C 0.15024 0.14766 0.67865 0.0
C2717 C 0.128 0.13199 0.66988 0.0
H2718 H 0.64816 0.35434 0.42415 0.0
H2719 H 0.60491 0.44347 0.42853 0.0
H2720 H 0.61178 0.45224 0.40097 0.0
H2721 H 0.7046 0.37744 0.3945 0.0
H2722 H 0.70186 0.34141 0.38454 0.0
H2723 H 0.69589 0.3429 0.4049 0.0
H2724 H 0.64281 0.31732 0.40158 0.0
H2725 H 0.6486 0.31577 0.38124 0.0
H2726 H 0.61514 0.33447 0.38892 0.0
H2727 H 0.61744 0.44913 0.37266 0.0
H2728 H 0.62432 0.43525 0.3455 0.0
H2729 H 0.66692 0.34976 0.35896 0.0
C2730 C 0.64065 0.37592 0.41935 0.0
C2731 C 0.62602 0.39823 0.42858 0.0
C2732 C 0.61625 0.42603 0.42178 0.0
C2733 C 0.62007 0.43127 0.40609 0.0
C2734 C 0.63406 0.40869 0.39728 0.0
C2735 C 0.64454 0.38168 0.40364 0.0
C2736 C 0.65767 0.36073 0.3914 0.0
C2737 C 0.69205 0.35531 0.39399 0.0
C2738 C 0.63999 0.33028 0.39075 0.0
C2739 C 0.65216 0.37986 0.37716 0.0
C2740 C 0.6385 0.40746 0.38086 0.0
C2741 C 0.62875 0.42792 0.36964 0.0
C2742 C 0.63272 0.41986 0.35425 0.0
C2743 C 0.64675 0.39182 0.35016 0.0
C2744 C 0.65703 0.3718 0.36179 0.0
H2745 H 0.36286 0.86734 0.10663 0.0
H2746 H 0.41413 0.95233 0.10376 0.0
H2747 H 0.41443 0.95597 0.13183 0.0
H2748 H 0.31581 0.89042 0.14019 0.0
H2749 H 0.31629 0.85245 0.14826 0.0
H2750 H 0.31821 0.85744 0.12785 0.0
H2751 H 0.36824 0.82562 0.12706 0.0
H2752 H 0.3666 0.82071 0.14746 0.0
H2753 H 0.40024 0.83707 0.13874 0.0
H2754 H 0.41522 0.94716 0.16009 0.0
H2755 H 0.41115 0.92934 0.18684 0.0
H2756 H 0.3557 0.85256 0.17206 0.0
C2757 C 0.3736 0.88703 0.11191 0.0
C2758 C 0.38846 0.90957 0.10292 0.0
C2759 C 0.40245 0.93483 0.11032 0.0
C2760 C 0.40283 0.93708 0.1263 0.0
C2761 C 0.38866 0.91419 0.13483 0.0
C2762 C 0.37377 0.88992 0.12793 0.0
C2763 C 0.36084 0.86817 0.13986 0.0
C2764 C 0.3257 0.86707 0.13899 0.0
C2765 C 0.37482 0.83599 0.13817 0.0
C2766 C 0.37148 0.8836 0.15449 0.0
C2767 C 0.38767 0.91002 0.15128 0.0
C2768 C 0.40199 0.9269 0.16277 0.0
C2769 C 0.39967 0.91658 0.17791 0.0
C2770 C 0.38267 0.88997 0.18152 0.0
C2771 C 0.36816 0.87345 0.16965 0.0
H2772 H 0.85585 0.3472 0.67066 0.0
H2773 H 0.90916 0.42517 0.68588 0.0
H2774 H 0.91707 0.44075 0.65893 0.0
H2775 H 0.90467 0.32916 0.63914 0.0
H2776 H 0.87408 0.31671 0.62681 0.0
H2777 H 0.87009 0.31338 0.64721 0.0
H2778 H 0.81989 0.34491 0.64615 0.0
H2779 H 0.82374 0.34837 0.62573 0.0
H2780 H 0.8201 0.38225 0.63736 0.0
H2781 H 0.91883 0.44786 0.63047 0.0
H2782 H 0.91985 0.44338 0.60248 0.0
H2783 H 0.86945 0.35786 0.6053 0.0
C2784 C 0.86878 0.36784 0.6683 0.0
C2785 C 0.88146 0.38539 0.68034 0.0
C2786 C 0.89905 0.41164 0.67682 0.0
C2787 C 0.90356 0.42066 0.66157 0.0
C2788 C 0.89085 0.40279 0.64995 0.0
C2789 C 0.8742 0.37667 0.65312 0.0
C2790 C 0.86517 0.36018 0.6385 0.0
C2791 C 0.87936 0.32795 0.63788 0.0
C2792 C 0.83014 0.35886 0.63684 0.0
C2793 C 0.87932 0.38113 0.62658 0.0
C2794 C 0.89353 0.40583 0.63349 0.0
C2795 C 0.90789 0.42856 0.62497 0.0
C2796 C 0.90822 0.42581 0.60902 0.0
C2797 C 0.89476 0.40023 0.60162 0.0
C2798 C 0.87996 0.37766 0.61058 0.0
H2799 H 0.36164 0.18675 0.36133 0.0
H2800 H 0.38064 0.0949 0.34516 0.0
H2801 H 0.38057 0.07599 0.37181 0.0
H2802 H 0.41241 0.18252 0.39303 0.0
H2803 H 0.389 0.20513 0.40572 0.0
H2804 H 0.38668 0.21095 0.3854 0.0
H2805 H 0.3282 0.2013 0.38637 0.0
H2806 H 0.33036 0.19536 0.40672 0.0
H2807 H 0.3139 0.16629 0.39463 0.0
H2808 H 0.37975 0.06718 0.39981 0.0
H2809 H 0.38448 0.06918 0.4277 0.0
H2810 H 0.37036 0.16765 0.42671 0.0
C2811 C 0.36517 0.16258 0.36348 0.0
C2812 C 0.37052 0.14201 0.35126 0.0
C2813 C 0.37612 0.11079 0.3544 0.0
C2814 C 0.37602 0.0999 0.36947 0.0
C2815 C 0.37084 0.12067 0.38132 0.0
C2816 C 0.36594 0.15144 0.37856 0.0
C2817 C 0.36398 0.16921 0.3935 0.0
C2818 C 0.38954 0.19337 0.39447 0.0
C2819 C 0.33221 0.18391 0.39541 0.0
C2820 C 0.36886 0.14366 0.40506 0.0
C2821 C 0.37213 0.11583 0.39769 0.0
C2822 C 0.37724 0.08883 0.4057 0.0
C2823 C 0.37986 0.09027 0.42162 0.0
C2824 C 0.37786 0.11859 0.42952 0.0
C2825 C 0.37177 0.14562 0.42108 0.0
H2826 H 0.60314 0.62407 0.17494 0.0
H2827 H 0.69964 0.64805 0.17653 0.0
H2828 H 0.70304 0.64302 0.14871 0.0
H2829 H 0.61129 0.56752 0.14293 0.0
H2830 H 0.57517 0.57819 0.13452 0.0
H2831 H 0.58047 0.58103 0.15489 0.0
H2832 H 0.56482 0.63819 0.1539 0.0
H2833 H 0.55971 0.63561 0.13354 0.0
H2834 H 0.58526 0.66392 0.14142 0.0
H2835 H 0.69503 0.6431 0.12072 0.0
H2836 H 0.67688 0.64175 0.09396 0.0
H2837 H 0.58705 0.61322 0.10951 0.0
C2838 C 0.6251 0.6275 0.16945 0.0
C2839 C 0.65108 0.63656 0.17802 0.0
C2840 C 0.67933 0.64118 0.17033 0.0
C2841 C 0.68158 0.63838 0.15445 0.0
C2842 C 0.65551 0.63041 0.14629 0.0
C2843 C 0.62791 0.62439 0.15347 0.0
C2844 C 0.60332 0.61704 0.14173 0.0
C2845 C 0.59189 0.58397 0.14363 0.0
C2846 C 0.57671 0.64007 0.14271 0.0
C2847 C 0.62127 0.62084 0.12694 0.0
C2848 C 0.65132 0.62872 0.1299 0.0
C2849 C 0.67178 0.63618 0.11822 0.0
C2850 C 0.66131 0.63547 0.10308 0.0
C2851 C 0.6309 0.62677 0.09974 0.0
C2852 C 0.61069 0.61911 0.11181 0.0
H2853 H 0.15242 0.83681 0.85926 0.0
H2854 H 0.12157 0.92621 0.84429 0.0
H2855 H 0.11992 0.94379 0.87116 0.0
H2856 H 0.1021 0.83325 0.89123 0.0
H2857 H 0.12836 0.81315 0.90354 0.0
H2858 H 0.13101 0.80859 0.88314 0.0
H2859 H 0.18786 0.82537 0.88396 0.0
H2860 H 0.18534 0.83007 0.90438 0.0
H2861 H 0.19786 0.8615 0.89259 0.0
H2862 H 0.12038 0.95141 0.89921 0.0
H2863 H 0.11648 0.94768 0.92707 0.0
H2864 H 0.14257 0.85173 0.92493 0.0
C2865 C 0.14594 0.86025 0.86171 0.0
C2866 C 0.13774 0.88051 0.84976 0.0
C2867 C 0.12829 0.91061 0.85331 0.0
C2868 C 0.1274 0.92076 0.86851 0.0
C2869 C 0.13543 0.90028 0.88007 0.0
C2870 C 0.14409 0.87051 0.87692 0.0
C2871 C 0.14851 0.85244 0.89164 0.0
C2872 C 0.12616 0.82525 0.89243 0.0
C2873 C 0.18188 0.84171 0.89323 0.0
C2874 C 0.14071 0.87665 0.90353 0.0
C2875 C 0.13387 0.90418 0.8965 0.0
C2876 C 0.12563 0.92998 0.90484 0.0
C2877 C 0.12351 0.92755 0.92074 0.0
C2878 C 0.12911 0.89936 0.92832 0.0
C2879 C 0.13835 0.87364 0.91955 0.0
loop_
_geom_bond_atom_site_label_1
_geom_bond_atom_site_label_2
_geom_bond_distance
_geom_bond_site_symmetry_2
_ccdc_geom_bond_type
Mn0 O5 2.095 . S
Mn0 O15 2.162 . S
Mn0 O16 2.297 . S
Mn0 O24 2.385 . S
Mn0 O25 2.209 . S
Mn0 O26 2.094 . S
Mn1 O6 2.121 . S
Mn1 N8 2.264 . S
Mn1 N17 2.282 . S
Mn1 O25 2.215 . S
Mn1 O27 2.117 . S
C2 O24 1.234 . S
C2 O25 1.283 . S
C3 O15 1.281 . S
C3 O16 1.236 . S
C4 O26 1.240 . S
C4 O27 1.264 . S
O5 Mn0 2.095 . S
O5 C14 1.250 . S
O6 Mn1 2.121 . S
O6 C14 1.258 . S
C7 N8 1.324 1_556 S
C7 C11 1.460 . S
C7 H13 0.929 1_556 S
N8 Mn1 2.264 . S
N8 C7 1.324 1_554 S
N8 C12 1.356 1_554 S
C9 C10 1.258 . S
C9 C12 1.431 . S
C9 C29 1.449 . S
C10 C9 1.258 . S
C10 C11 1.477 . S
C10 H30 0.931 . S
C11 C7 1.460 . S
C11 C10 1.477 . S
C11 H31 0.930 . S
C12 N8 1.356 1_556 S
C12 C9 1.431 . S
C12 C22 1.476 . S
H13 C7 0.929 1_554 S
C14 O5 1.250 . S
C14 O6 1.258 . S
O15 Mn0 2.162 . S
O15 C3 1.281 . S
O16 Mn0 2.297 . S
O16 C3 1.236 . S
N17 Mn1 2.282 . S
N17 C18 1.328 . S
N17 C22 1.318 1_554 S
C18 N17 1.328 . S
C18 C19 1.457 1_455 S
C18 H23 0.929 . S
C19 C18 1.457 1_655 S
C19 C20 1.291 1_554 S
C19 H32 0.931 . S
C20 C19 1.291 1_556 S
C20 C21 1.373 1_655 S
C20 H33 0.929 . S
C21 C20 1.373 1_455 S
C21 C22 1.396 . S
C21 C28 1.403 . S
C22 C12 1.476 . S
C22 N17 1.318 1_556 S
C22 C21 1.396 . S
H23 C18 0.929 . S
O24 Mn0 2.385 . S
O24 C2 1.234 . S
O25 Mn0 2.209 . S
O25 Mn1 2.215 . S
O25 C2 1.283 . S
O26 Mn0 2.094 . S
O26 C4 1.240 . S
O27 Mn1 2.117 . S
O27 C4 1.264 . S
C28 C21 1.403 . S
C28 C29 1.399 . S
C28 H34 0.929 . S
C29 C9 1.449 . S
C29 C28 1.399 . S
C29 H35 0.930 . S
H30 C10 0.931 . S
H31 C11 0.930 . S
H32 C19 0.931 . S
H33 C20 0.929 . S
H34 C28 0.929 . S
H35 C29 0.930 . S
Mn36 O41 2.095 . S
Mn36 O51 2.162 . S
Mn36 O52 2.297 . S
Mn36 O60 2.385 . S
Mn36 O61 2.209 . S
Mn36 O62 2.094 . S
Mn37 O42 2.121 . S
Mn37 N44 2.257 . S
Mn37 N53 2.282 . S
Mn37 O61 2.215 . S
Mn37 O63 2.117 . S
C38 O60 1.234 . S
C38 O61 1.283 . S
C39 O51 1.281 . S
C39 O52 1.236 . S
C40 O62 1.240 . S
C40 O63 1.264 . S
O41 Mn36 2.095 . S
O41 C50 1.250 . S
O42 Mn37 2.121 . S
O42 C50 1.258 . S
C43 N44 1.326 . S
C43 C47 1.460 . S
C43 H49 0.929 . S
N44 Mn37 2.257 . S
N44 C43 1.326 . S
N44 C48 1.362 . S
C45 C46 1.258 . S
C45 C48 1.431 . S
C45 C65 1.449 . S
C46 C45 1.258 . S
C46 C47 1.477 . S
C46 H66 0.931 1_655 S
C47 C43 1.460 . S
C47 C46 1.477 . S
C47 H67 0.930 . S
C48 N44 1.362 . S
C48 C45 1.431 . S
C48 C58 1.476 . S
H49 C43 0.929 . S
C50 O41 1.250 . S
C50 O42 1.258 . S
O51 Mn36 2.162 . S
O51 C39 1.281 . S
O52 Mn36 2.297 . S
O52 C39 1.236 . S
N53 Mn37 2.282 . S
N53 C54 1.328 . S
N53 C58 1.318 . S
C54 N53 1.328 . S
C54 C55 1.457 . S
C54 H59 0.929 . S
C55 C54 1.457 . S
C55 C56 1.291 . S
C55 H68 0.931 . S
C56 C55 1.291 . S
C56 C57 1.373 . S
C56 H69 0.929 . S
C57 C56 1.373 . S
C57 C58 1.396 . S
C57 C64 1.403 . S
C58 C48 1.476 . S
C58 N53 1.318 . S
C58 C57 1.396 . S
H59 C54 0.929 . S
O60 Mn36 2.385 . S
O60 C38 1.234 . S
O61 Mn36 2.209 . S
O61 Mn37 2.215 . S
O61 C38 1.283 . S
O62 Mn36 2.094 . S
O62 C40 1.240 . S
O63 Mn37 2.117 . S
O63 C40 1.264 . S
C64 C57 1.403 . S
C64 C65 1.399 . S
C64 H70 0.929 . S
C65 C45 1.449 . S
C65 C64 1.399 . S
C65 H71 0.930 1_655 S
H66 C46 0.931 1_455 S
H67 C47 0.930 . S
H68 C55 0.931 . S
H69 C56 0.929 . S
H70 C64 0.929 . S
H71 C65 0.930 1_455 S
Mn72 O77 2.095 . S
Mn72 O87 2.162 . S
Mn72 O88 2.297 . S
Mn72 O96 2.385 . S
Mn72 O97 2.209 . S
Mn72 O98 2.094 . S
Mn73 O78 2.121 . S
Mn73 N80 2.257 . S
Mn73 N89 2.282 . S
Mn73 O97 2.215 . S
Mn73 O99 2.117 . S
C74 O96 1.234 . S
C74 O97 1.283 . S
C75 O87 1.281 . S
C75 O88 1.236 . S
C76 O98 1.240 . S
C76 O99 1.264 . S
O77 Mn72 2.095 . S
O77 C86 1.250 . S
O78 Mn73 2.121 . S
O78 C86 1.258 . S
C79 N80 1.326 . S
C79 C83 1.460 . S
C79 H85 0.929 . S
N80 Mn73 2.257 . S
N80 C79 1.326 . S
N80 C84 1.362 . S
C81 C82 1.258 . S
C81 C84 1.431 . S
C81 C101 1.449 . S
C82 C81 1.258 . S
C82 C83 1.477 . S
C82 H102 0.931 . S
C83 C79 1.460 . S
C83 C82 1.477 . S
C83 H103 0.930 . S
C84 N80 1.362 . S
C84 C81 1.431 . S
C84 C94 1.476 . S
H85 C79 0.929 . S
C86 O77 1.250 . S
C86 O78 1.258 . S
O87 Mn72 2.162 . S
O87 C75 1.281 . S
O88 Mn72 2.297 . S
O88 C75 1.236 . S
N89 Mn73 2.282 . S
N89 C90 1.328 . S
N89 C94 1.318 . S
C90 N89 1.328 . S
C90 C91 1.457 . S
C90 H95 0.929 . S
C91 C90 1.457 . S
C91 C92 1.291 . S
C91 H104 0.931 . S
C92 C91 1.291 . S
C92 C93 1.373 . S
C92 H105 0.929 . S
C93 C92 1.373 . S
C93 C94 1.396 . S
C93 C100 1.403 . S
C94 C84 1.476 . S
C94 N89 1.318 . S
C94 C93 1.396 . S
H95 C90 0.929 . S
O96 Mn72 2.385 . S
O96 C74 1.234 . S
O97 Mn72 2.209 . S
O97 Mn73 2.215 . S
O97 C74 1.283 . S
O98 Mn72 2.094 . S
O98 C76 1.240 . S
O99 Mn73 2.117 . S
O99 C76 1.264 . S
C100 C93 1.403 . S
C100 C101 1.399 . S
C100 H106 0.929 . S
C101 C81 1.449 . S
C101 C100 1.399 . S
C101 H107 0.930 . S
H102 C82 0.931 . S
H103 C83 0.930 . S
H104 C91 0.931 . S
H105 C92 0.929 . S
H106 C100 0.929 . S
H107 C101 0.930 . S
Mn108 O113 2.095 . S
Mn108 O123 2.162 . S
Mn108 O124 2.297 . S
Mn108 O132 2.385 . S
Mn108 O133 2.209 . S
Mn108 O134 2.094 . S
Mn109 O114 2.121 . S
Mn109 N116 2.257 . S
Mn109 N125 2.282 . S
Mn109 O133 2.215 . S
Mn109 O135 2.117 . S
C110 O132 1.234 . S
C110 O133 1.283 . S
C111 O123 1.281 . S
C111 O124 1.236 . S
C112 O134 1.240 . S
C112 O135 1.264 . S
O113 Mn108 2.095 . S
O113 C122 1.250 . S
O114 Mn109 2.121 . S
O114 C122 1.258 . S
C115 N116 1.326 . S
C115 C119 1.460 . S
C115 H121 0.929 . S
N116 Mn109 2.257 . S
N116 C115 1.326 . S
N116 C120 1.362 . S
C117 C118 1.258 . S
C117 C120 1.431 . S
C117 C137 1.449 . S
C118 C117 1.258 . S
C118 C119 1.477 . S
C118 H138 0.931 . S
C119 C115 1.460 . S
C119 C118 1.477 . S
C119 H139 0.930 . S
C120 N116 1.362 . S
C120 C117 1.431 . S
C120 C130 1.476 . S
H121 C115 0.929 . S
C122 O113 1.250 . S
C122 O114 1.258 . S
O123 Mn108 2.162 . S
O123 C111 1.281 . S
O124 Mn108 2.297 . S
O124 C111 1.236 . S
N125 Mn109 2.282 . S
N125 C126 1.328 . S
N125 C130 1.318 . S
C126 N125 1.328 . S
C126 C127 1.457 . S
C126 H131 0.929 . S
C127 C126 1.457 . S
C127 C128 1.291 . S
C127 H140 0.931 . S
C128 C127 1.291 . S
C128 C129 1.373 . S
C128 H141 0.929 . S
C129 C128 1.373 . S
C129 C130 1.396 . S
C129 C136 1.403 . S
C130 C120 1.476 . S
C130 N125 1.318 . S
C130 C129 1.396 . S
H131 C126 0.929 . S
O132 Mn108 2.385 . S
O132 C110 1.234 . S
O133 Mn108 2.209 . S
O133 Mn109 2.215 . S
O133 C110 1.283 . S
O134 Mn108 2.094 . S
O134 C112 1.240 . S
O135 Mn109 2.117 . S
O135 C112 1.264 . S
C136 C129 1.403 . S
C136 C137 1.399 . S
C136 H142 0.929 . S
C137 C117 1.449 . S
C137 C136 1.399 . S
C137 H143 0.930 . S
H138 C118 0.931 . S
H139 C119 0.930 . S
H140 C127 0.931 . S
H141 C128 0.929 . S
H142 C136 0.929 . S
H143 C137 0.930 . S
Mn144 O149 2.095 . S
Mn144 O159 2.162 . S
Mn144 O160 2.297 . S
Mn144 O168 2.385 . S
Mn144 O169 2.209 . S
Mn144 O170 2.094 . S
Mn145 O150 2.121 . S
Mn145 N152 2.257 . S
Mn145 N161 2.282 . S
Mn145 O169 2.215 . S
Mn145 O171 2.117 . S
C146 O168 1.234 . S
C146 O169 1.283 . S
C147 O159 1.281 . S
C147 O160 1.236 . S
C148 O170 1.240 . S
C148 O171 1.264 . S
O149 Mn144 2.095 . S
O149 C158 1.250 . S
O150 Mn145 2.121 . S
O150 C158 1.258 . S
C151 N152 1.326 . S
C151 C155 1.460 . S
C151 H157 0.929 . S
N152 Mn145 2.257 . S
N152 C151 1.326 . S
N152 C156 1.362 . S
C153 C154 1.258 . S
C153 C156 1.431 . S
C153 C173 1.449 . S
C154 C153 1.258 . S
C154 C155 1.477 . S
C154 H174 0.931 . S
C155 C151 1.460 . S
C155 C154 1.477 . S
C155 H175 0.930 . S
C156 N152 1.362 . S
C156 C153 1.431 . S
C156 C166 1.476 . S
H157 C151 0.929 . S
C158 O149 1.250 . S
C158 O150 1.258 . S
O159 Mn144 2.162 . S
O159 C147 1.281 . S
O160 Mn144 2.297 . S
O160 C147 1.236 . S
N161 Mn145 2.282 . S
N161 C162 1.328 . S
N161 C166 1.318 . S
C162 N161 1.328 . S
C162 C163 1.457 1_455 S
C162 H167 0.929 . S
C163 C162 1.457 1_655 S
C163 C164 1.291 . S
C163 H176 0.931 . S
C164 C163 1.291 . S
C164 C165 1.373 1_655 S
C164 H177 0.929 . S
C165 C164 1.373 1_455 S
C165 C166 1.396 . S
C165 C172 1.403 . S
C166 C156 1.476 . S
C166 N161 1.318 . S
C166 C165 1.396 . S
H167 C162 0.929 . S
O168 Mn144 2.385 . S
O168 C146 1.234 . S
O169 Mn144 2.209 . S
O169 Mn145 2.215 . S
O169 C146 1.283 . S
O170 Mn144 2.094 . S
O170 C148 1.240 . S
O171 Mn145 2.117 . S
O171 C148 1.264 . S
C172 C165 1.403 . S
C172 C173 1.399 . S
C172 H178 0.929 . S
C173 C153 1.449 . S
C173 C172 1.399 . S
C173 H179 0.930 . S
H174 C154 0.931 . S
H175 C155 0.930 . S
H176 C163 0.931 . S
H177 C164 0.929 . S
H178 C172 0.929 . S
H179 C173 0.930 . S
Mn180 O185 2.095 . S
Mn180 O195 2.162 . S
Mn180 O196 2.297 . S
Mn180 O204 2.385 . S
Mn180 O205 2.209 . S
Mn180 O206 2.094 . S
Mn181 O186 2.121 . S
Mn181 N188 2.257 . S
Mn181 N197 2.282 . S
Mn181 O205 2.215 . S
Mn181 O207 2.117 . S
C182 O204 1.234 . S
C182 O205 1.283 . S
C183 O195 1.281 . S
C183 O196 1.236 . S
C184 O206 1.240 . S
C184 O207 1.264 . S
O185 Mn180 2.095 . S
O185 C194 1.250 . S
O186 Mn181 2.121 . S
O186 C194 1.258 . S
C187 N188 1.326 . S
C187 C191 1.460 . S
C187 H193 0.929 . S
N188 Mn181 2.257 . S
N188 C187 1.326 . S
N188 C192 1.362 . S
C189 C190 1.258 . S
C189 C192 1.431 . S
C189 C209 1.449 . S
C190 C189 1.258 . S
C190 C191 1.477 . S
C190 H210 0.931 . S
C191 C187 1.460 . S
C191 C190 1.477 . S
C191 H211 0.930 . S
C192 N188 1.362 . S
C192 C189 1.431 . S
C192 C202 1.476 . S
H193 C187 0.929 . S
C194 O185 1.250 . S
C194 O186 1.258 . S
O195 Mn180 2.162 . S
O195 C183 1.281 . S
O196 Mn180 2.297 . S
O196 C183 1.236 . S
N197 Mn181 2.282 . S
N197 C198 1.328 . S
N197 C202 1.318 . S
C198 N197 1.328 . S
C198 C199 1.457 . S
C198 H203 0.929 . S
C199 C198 1.457 . S
C199 C200 1.291 . S
C199 H212 0.931 . S
C200 C199 1.291 . S
C200 C201 1.373 . S
C200 H213 0.929 . S
C201 C200 1.373 . S
C201 C202 1.396 . S
C201 C208 1.403 . S
C202 C192 1.476 . S
C202 N197 1.318 . S
C202 C201 1.396 . S
H203 C198 0.929 . S
O204 Mn180 2.385 . S
O204 C182 1.234 . S
O205 Mn180 2.209 . S
O205 Mn181 2.215 . S
O205 C182 1.283 . S
O206 Mn180 2.094 . S
O206 C184 1.240 . S
O207 Mn181 2.117 . S
O207 C184 1.264 . S
C208 C201 1.403 . S
C208 C209 1.399 . S
C208 H214 0.929 . S
C209 C189 1.449 . S
C209 C208 1.399 . S
C209 H215 0.930 . S
H210 C190 0.931 . S
H211 C191 0.930 . S
H212 C199 0.931 . S
H213 C200 0.929 . S
H214 C208 0.929 . S
H215 C209 0.930 . S
Mn216 O221 2.095 . S
Mn216 O231 2.162 . S
Mn216 O232 2.297 . S
Mn216 O240 2.385 . S
Mn216 O241 2.209 . S
Mn216 O242 2.094 . S
Mn217 O222 2.121 . S
Mn217 N224 2.264 . S
Mn217 N233 2.282 . S
Mn217 O241 2.215 . S
Mn217 O243 2.117 . S
C218 O240 1.234 . S
C218 O241 1.283 . S
C219 O231 1.281 . S
C219 O232 1.236 . S
C220 O242 1.240 . S
C220 O243 1.264 . S
O221 Mn216 2.095 . S
O221 C230 1.250 . S
O222 Mn217 2.121 . S
O222 C230 1.258 . S
C223 N224 1.324 1_554 S
C223 C227 1.460 . S
C223 H229 0.929 1_554 S
N224 Mn217 2.264 . S
N224 C223 1.324 1_556 S
N224 C228 1.356 1_556 S
C225 C226 1.258 . S
C225 C228 1.431 . S
C225 C245 1.449 . S
C226 C225 1.258 . S
C226 C227 1.477 . S
C226 H246 0.931 . S
C227 C223 1.460 . S
C227 C226 1.477 . S
C227 H247 0.930 . S
C228 N224 1.356 1_554 S
C228 C225 1.431 . S
C228 C238 1.476 . S
H229 C223 0.929 1_556 S
C230 O221 1.250 . S
C230 O222 1.258 . S
O231 Mn216 2.162 . S
O231 C219 1.281 . S
O232 Mn216 2.297 . S
O232 C219 1.236 . S
N233 Mn217 2.282 . S
N233 C234 1.328 . S
N233 C238 1.318 1_556 S
C234 N233 1.328 . S
C234 C235 1.457 . S
C234 H239 0.929 . S
C235 C234 1.457 . S
C235 C236 1.291 1_556 S
C235 H248 0.931 . S
C236 C235 1.291 1_554 S
C236 C237 1.373 . S
C236 H249 0.929 . S
C237 C236 1.373 . S
C237 C238 1.396 . S
C237 C244 1.403 . S
C238 C228 1.476 . S
C238 N233 1.318 1_554 S
C238 C237 1.396 . S
H239 C234 0.929 . S
O240 Mn216 2.385 . S
O240 C218 1.234 . S
O241 Mn216 2.209 . S
O241 Mn217 2.215 . S
O241 C218 1.283 . S
O242 Mn216 2.094 . S
O242 C220 1.240 . S
O243 Mn217 2.117 . S
O243 C220 1.264 . S
C244 C237 1.403 . S
C244 C245 1.399 . S
C244 H250 0.929 . S
C245 C225 1.449 . S
C245 C244 1.399 . S
C245 H251 0.930 . S
H246 C226 0.931 . S
H247 C227 0.930 . S
H248 C235 0.931 . S
H249 C236 0.929 . S
H250 C244 0.929 . S
H251 C245 0.930 . S
Mn252 O257 2.095 . S
Mn252 O267 2.162 . S
Mn252 O268 2.297 . S
Mn252 O276 2.385 . S
Mn252 O277 2.209 . S
Mn252 O278 2.094 . S
Mn253 O258 2.121 . S
Mn253 N260 2.257 . S
Mn253 N269 2.282 . S
Mn253 O277 2.215 . S
Mn253 O279 2.117 . S
C254 O276 1.234 . S
C254 O277 1.283 . S
C255 O267 1.281 . S
C255 O268 1.236 . S
C256 O278 1.240 . S
C256 O279 1.264 . S
O257 Mn252 2.095 . S
O257 C266 1.250 . S
O258 Mn253 2.121 . S
O258 C266 1.258 . S
C259 N260 1.326 . S
C259 C263 1.460 . S
C259 H265 0.929 . S
N260 Mn253 2.257 . S
N260 C259 1.326 . S
N260 C264 1.362 . S
C261 C262 1.258 . S
C261 C264 1.431 . S
C261 C281 1.449 . S
C262 C261 1.258 . S
C262 C263 1.477 . S
C262 H282 0.931 1_655 S
C263 C259 1.460 . S
C263 C262 1.477 . S
C263 H283 0.930 . S
C264 N260 1.362 . S
C264 C261 1.431 . S
C264 C274 1.476 . S
H265 C259 0.929 . S
C266 O257 1.250 . S
C266 O258 1.258 . S
O267 Mn252 2.162 . S
O267 C255 1.281 . S
O268 Mn252 2.297 . S
O268 C255 1.236 . S
N269 Mn253 2.282 . S
N269 C270 1.328 . S
N269 C274 1.318 . S
C270 N269 1.328 . S
C270 C271 1.457 . S
C270 H275 0.929 . S
C271 C270 1.457 . S
C271 C272 1.291 . S
C271 H284 0.931 . S
C272 C271 1.291 . S
C272 C273 1.373 . S
C272 H285 0.929 . S
C273 C272 1.373 . S
C273 C274 1.396 . S
C273 C280 1.403 . S
C274 C264 1.476 . S
C274 N269 1.318 . S
C274 C273 1.396 . S
H275 C270 0.929 . S
O276 Mn252 2.385 . S
O276 C254 1.234 . S
O277 Mn252 2.209 . S
O277 Mn253 2.215 . S
O277 C254 1.283 . S
O278 Mn252 2.094 . S
O278 C256 1.240 . S
O279 Mn253 2.117 . S
O279 C256 1.264 . S
C280 C273 1.403 . S
C280 C281 1.399 . S
C280 H286 0.929 . S
C281 C261 1.449 . S
C281 C280 1.399 . S
C281 H287 0.930 1_655 S
H282 C262 0.931 1_455 S
H283 C263 0.930 . S
H284 C271 0.931 . S
H285 C272 0.929 . S
H286 C280 0.929 . S
H287 C281 0.930 1_455 S
Mn288 O293 2.095 . S
Mn288 O303 2.162 . S
Mn288 O304 2.297 . S
Mn288 O312 2.385 . S
Mn288 O313 2.209 . S
Mn288 O314 2.094 . S
Mn289 O294 2.121 . S
Mn289 N296 2.264 . S
Mn289 N305 2.282 . S
Mn289 O313 2.215 . S
Mn289 O315 2.117 . S
C290 O312 1.234 . S
C290 O313 1.283 . S
C291 O303 1.281 . S
C291 O304 1.236 . S
C292 O314 1.240 . S
C292 O315 1.264 . S
O293 Mn288 2.095 . S
O293 C302 1.250 . S
O294 Mn289 2.121 . S
O294 C302 1.258 . S
C295 N296 1.324 1_554 S
C295 C299 1.460 . S
C295 H301 0.929 1_554 S
N296 Mn289 2.264 . S
N296 C295 1.324 1_556 S
N296 C300 1.356 1_556 S
C297 C298 1.258 . S
C297 C300 1.431 . S
C297 C317 1.449 . S
C298 C297 1.258 . S
C298 C299 1.477 . S
C298 H318 0.931 . S
C299 C295 1.460 . S
C299 C298 1.477 . S
C299 H319 0.930 . S
C300 N296 1.356 1_554 S
C300 C297 1.431 . S
C300 C310 1.476 . S
H301 C295 0.929 1_556 S
C302 O293 1.250 . S
C302 O294 1.258 . S
O303 Mn288 2.162 . S
O303 C291 1.281 . S
O304 Mn288 2.297 . S
O304 C291 1.236 . S
N305 Mn289 2.282 . S
N305 C306 1.328 . S
N305 C310 1.318 1_556 S
C306 N305 1.328 . S
C306 C307 1.457 1_655 S
C306 H311 0.929 . S
C307 C306 1.457 1_455 S
C307 C308 1.291 1_556 S
C307 H320 0.931 . S
C308 C307 1.291 1_554 S
C308 C309 1.373 1_455 S
C308 H321 0.929 . S
C309 C308 1.373 1_655 S
C309 C310 1.396 . S
C309 C316 1.403 . S
C310 C300 1.476 . S
C310 N305 1.318 1_554 S
C310 C309 1.396 . S
H311 C306 0.929 . S
O312 Mn288 2.385 . S
O312 C290 1.234 . S
O313 Mn288 2.209 . S
O313 Mn289 2.215 . S
O313 C290 1.283 . S
O314 Mn288 2.094 . S
O314 C292 1.240 . S
O315 Mn289 2.117 . S
O315 C292 1.264 . S
C316 C309 1.403 . S
C316 C317 1.399 . S
C316 H322 0.929 . S
C317 C297 1.449 . S
C317 C316 1.399 . S
C317 H323 0.930 . S
H318 C298 0.931 . S
H319 C299 0.930 . S
H320 C307 0.931 . S
H321 C308 0.929 . S
H322 C316 0.929 . S
H323 C317 0.930 . S
Mn324 O329 2.095 . S
Mn324 O339 2.162 . S
Mn324 O340 2.297 . S
Mn324 O348 2.385 . S
Mn324 O349 2.209 . S
Mn324 O350 2.094 . S
Mn325 O330 2.121 . S
Mn325 N332 2.257 . S
Mn325 N341 2.282 . S
Mn325 O349 2.215 . S
Mn325 O351 2.117 . S
C326 O348 1.234 . S
C326 O349 1.283 . S
C327 O339 1.281 . S
C327 O340 1.236 . S
C328 O350 1.240 . S
C328 O351 1.264 . S
O329 Mn324 2.095 . S
O329 C338 1.250 . S
O330 Mn325 2.121 . S
O330 C338 1.258 . S
C331 N332 1.326 . S
C331 C335 1.460 . S
C331 H337 0.929 . S
N332 Mn325 2.257 . S
N332 C331 1.326 . S
N332 C336 1.362 . S
C333 C334 1.258 . S
C333 C336 1.431 . S
C333 C353 1.449 . S
C334 C333 1.258 . S
C334 C335 1.477 . S
C334 H354 0.931 1_455 S
C335 C331 1.460 . S
C335 C334 1.477 . S
C335 H355 0.930 . S
C336 N332 1.362 . S
C336 C333 1.431 . S
C336 C346 1.476 . S
H337 C331 0.929 . S
C338 O329 1.250 . S
C338 O330 1.258 . S
O339 Mn324 2.162 . S
O339 C327 1.281 . S
O340 Mn324 2.297 . S
O340 C327 1.236 . S
N341 Mn325 2.282 . S
N341 C342 1.328 . S
N341 C346 1.318 . S
C342 N341 1.328 . S
C342 C343 1.457 . S
C342 H347 0.929 . S
C343 C342 1.457 . S
C343 C344 1.291 . S
C343 H356 0.931 . S
C344 C343 1.291 . S
C344 C345 1.373 . S
C344 H357 0.929 . S
C345 C344 1.373 . S
C345 C346 1.396 . S
C345 C352 1.403 . S
C346 C336 1.476 . S
C346 N341 1.318 . S
C346 C345 1.396 . S
H347 C342 0.929 . S
O348 Mn324 2.385 . S
O348 C326 1.234 . S
O349 Mn324 2.209 . S
O349 Mn325 2.215 . S
O349 C326 1.283 . S
O350 Mn324 2.094 . S
O350 C328 1.240 . S
O351 Mn325 2.117 . S
O351 C328 1.264 . S
C352 C345 1.403 . S
C352 C353 1.399 . S
C352 H358 0.929 . S
C353 C333 1.449 . S
C353 C352 1.399 . S
C353 H359 0.930 1_455 S
H354 C334 0.931 1_655 S
H355 C335 0.930 . S
H356 C343 0.931 . S
H357 C344 0.929 . S
H358 C352 0.929 . S
H359 C353 0.930 1_655 S
Mn360 O365 2.095 . S
Mn360 O375 2.162 . S
Mn360 O376 2.297 . S
Mn360 O384 2.385 . S
Mn360 O385 2.209 . S
Mn360 O386 2.094 . S
Mn361 O366 2.121 . S
Mn361 N368 2.257 . S
Mn361 N377 2.282 . S
Mn361 O385 2.215 . S
Mn361 O387 2.117 . S
C362 O384 1.234 . S
C362 O385 1.283 . S
C363 O375 1.281 . S
C363 O376 1.236 . S
C364 O386 1.240 . S
C364 O387 1.264 . S
O365 Mn360 2.095 . S
O365 C374 1.250 . S
O366 Mn361 2.121 . S
O366 C374 1.258 . S
C367 N368 1.326 . S
C367 C371 1.460 . S
C367 H373 0.929 . S
N368 Mn361 2.257 . S
N368 C367 1.326 . S
N368 C372 1.362 . S
C369 C370 1.258 . S
C369 C372 1.431 . S
C369 C389 1.449 . S
C370 C369 1.258 . S
C370 C371 1.477 . S
C370 H390 0.931 . S
C371 C367 1.460 . S
C371 C370 1.477 . S
C371 H391 0.930 . S
C372 N368 1.362 . S
C372 C369 1.431 . S
C372 C382 1.476 . S
H373 C367 0.929 . S
C374 O365 1.250 . S
C374 O366 1.258 . S
O375 Mn360 2.162 . S
O375 C363 1.281 . S
O376 Mn360 2.297 . S
O376 C363 1.236 . S
N377 Mn361 2.282 . S
N377 C378 1.328 . S
N377 C382 1.318 . S
C378 N377 1.328 . S
C378 C379 1.457 . S
C378 H383 0.929 . S
C379 C378 1.457 . S
C379 C380 1.291 . S
C379 H392 0.931 . S
C380 C379 1.291 . S
C380 C381 1.373 . S
C380 H393 0.929 . S
C381 C380 1.373 . S
C381 C382 1.396 . S
C381 C388 1.403 . S
C382 C372 1.476 . S
C382 N377 1.318 . S
C382 C381 1.396 . S
H383 C378 0.929 . S
O384 Mn360 2.385 . S
O384 C362 1.234 . S
O385 Mn360 2.209 . S
O385 Mn361 2.215 . S
O385 C362 1.283 . S
O386 Mn360 2.094 . S
O386 C364 1.240 . S
O387 Mn361 2.117 . S
O387 C364 1.264 . S
C388 C381 1.403 . S
C388 C389 1.399 . S
C388 H394 0.929 . S
C389 C369 1.449 . S
C389 C388 1.399 . S
C389 H395 0.930 . S
H390 C370 0.931 . S
H391 C371 0.930 . S
H392 C379 0.931 . S
H393 C380 0.929 . S
H394 C388 0.929 . S
H395 C389 0.930 . S
Mn396 O401 2.095 . S
Mn396 O411 2.162 . S
Mn396 O412 2.297 . S
Mn396 O420 2.385 . S
Mn396 O421 2.209 . S
Mn396 O422 2.094 . S
Mn397 O402 2.121 . S
Mn397 N404 2.257 . S
Mn397 N413 2.282 . S
Mn397 O421 2.215 . S
Mn397 O423 2.117 . S
C398 O420 1.234 . S
C398 O421 1.283 . S
C399 O411 1.281 . S
C399 O412 1.236 . S
C400 O422 1.240 . S
C400 O423 1.264 . S
O401 Mn396 2.095 . S
O401 C410 1.250 . S
O402 Mn397 2.121 . S
O402 C410 1.258 . S
C403 N404 1.326 . S
C403 C407 1.460 . S
C403 H409 0.929 . S
N404 Mn397 2.257 . S
N404 C403 1.326 . S
N404 C408 1.362 . S
C405 C406 1.258 . S
C405 C408 1.431 . S
C405 C425 1.449 . S
C406 C405 1.258 . S
C406 C407 1.477 . S
C406 H426 0.931 . S
C407 C403 1.460 . S
C407 C406 1.477 . S
C407 H427 0.930 . S
C408 N404 1.362 . S
C408 C405 1.431 . S
C408 C418 1.476 . S
H409 C403 0.929 . S
C410 O401 1.250 . S
C410 O402 1.258 . S
O411 Mn396 2.162 . S
O411 C399 1.281 . S
O412 Mn396 2.297 . S
O412 C399 1.236 . S
N413 Mn397 2.282 . S
N413 C414 1.328 . S
N413 C418 1.318 . S
C414 N413 1.328 . S
C414 C415 1.457 . S
C414 H419 0.929 . S
C415 C414 1.457 . S
C415 C416 1.291 . S
C415 H428 0.931 . S
C416 C415 1.291 . S
C416 C417 1.373 . S
C416 H429 0.929 . S
C417 C416 1.373 . S
C417 C418 1.396 . S
C417 C424 1.403 . S
C418 C408 1.476 . S
C418 N413 1.318 . S
C418 C417 1.396 . S
H419 C414 0.929 . S
O420 Mn396 2.385 . S
O420 C398 1.234 . S
O421 Mn396 2.209 . S
O421 Mn397 2.215 . S
O421 C398 1.283 . S
O422 Mn396 2.094 . S
O422 C400 1.240 . S
O423 Mn397 2.117 . S
O423 C400 1.264 . S
C424 C417 1.403 . S
C424 C425 1.399 . S
C424 H430 0.929 . S
C425 C405 1.449 . S
C425 C424 1.399 . S
C425 H431 0.930 . S
H426 C406 0.931 . S
H427 C407 0.930 . S
H428 C415 0.931 . S
H429 C416 0.929 . S
H430 C424 0.929 . S
H431 C425 0.930 . S
Mn432 O437 2.095 . S
Mn432 O447 2.162 . S
Mn432 O448 2.297 . S
Mn432 O456 2.385 . S
Mn432 O457 2.209 . S
Mn432 O458 2.094 . S
Mn433 O438 2.121 . S
Mn433 N440 2.257 . S
Mn433 N449 2.282 . S
Mn433 O457 2.215 . S
Mn433 O459 2.117 . S
C434 O456 1.234 . S
C434 O457 1.283 . S
C435 O447 1.281 . S
C435 O448 1.236 . S
C436 O458 1.240 . S
C436 O459 1.264 . S
O437 Mn432 2.095 . S
O437 C446 1.250 . S
O438 Mn433 2.121 . S
O438 C446 1.258 . S
C439 N440 1.326 . S
C439 C443 1.460 . S
C439 H445 0.929 . S
N440 Mn433 2.257 . S
N440 C439 1.326 . S
N440 C444 1.362 . S
C441 C442 1.258 . S
C441 C444 1.431 . S
C441 C461 1.449 . S
C442 C441 1.258 . S
C442 C443 1.477 . S
C442 H462 0.931 . S
C443 C439 1.460 . S
C443 C442 1.477 . S
C443 H463 0.930 . S
C444 N440 1.362 . S
C444 C441 1.431 . S
C444 C454 1.476 . S
H445 C439 0.929 . S
C446 O437 1.250 . S
C446 O438 1.258 . S
O447 Mn432 2.162 . S
O447 C435 1.281 . S
O448 Mn432 2.297 . S
O448 C435 1.236 . S
N449 Mn433 2.282 . S
N449 C450 1.328 . S
N449 C454 1.318 . S
C450 N449 1.328 . S
C450 C451 1.457 1_655 S
C450 H455 0.929 . S
C451 C450 1.457 1_455 S
C451 C452 1.291 . S
C451 H464 0.931 . S
C452 C451 1.291 . S
C452 C453 1.373 1_455 S
C452 H465 0.929 . S
C453 C452 1.373 1_655 S
C453 C454 1.396 . S
C453 C460 1.403 . S
C454 C444 1.476 . S
C454 N449 1.318 . S
C454 C453 1.396 . S
H455 C450 0.929 . S
O456 Mn432 2.385 . S
O456 C434 1.234 . S
O457 Mn432 2.209 . S
O457 Mn433 2.215 . S
O457 C434 1.283 . S
O458 Mn432 2.094 . S
O458 C436 1.240 . S
O459 Mn433 2.117 . S
O459 C436 1.264 . S
C460 C453 1.403 . S
C460 C461 1.399 . S
C460 H466 0.929 . S
C461 C441 1.449 . S
C461 C460 1.399 . S
C461 H467 0.930 . S
H462 C442 0.931 . S
H463 C443 0.930 . S
H464 C451 0.931 . S
H465 C452 0.929 . S
H466 C460 0.929 . S
H467 C461 0.930 . S
Mn468 O473 2.095 . S
Mn468 O483 2.162 . S
Mn468 O484 2.297 . S
Mn468 O492 2.385 . S
Mn468 O493 2.209 . S
Mn468 O494 2.094 . S
Mn469 O474 2.121 . S
Mn469 N476 2.257 . S
Mn469 N485 2.282 . S
Mn469 O493 2.215 . S
Mn469 O495 2.117 . S
C470 O492 1.234 . S
C470 O493 1.283 . S
C471 O483 1.281 . S
C471 O484 1.236 . S
C472 O494 1.240 . S
C472 O495 1.264 . S
O473 Mn468 2.095 . S
O473 C482 1.250 . S
O474 Mn469 2.121 . S
O474 C482 1.258 . S
C475 N476 1.326 . S
C475 C479 1.460 . S
C475 H481 0.929 . S
N476 Mn469 2.257 . S
N476 C475 1.326 . S
N476 C480 1.362 . S
C477 C478 1.258 . S
C477 C480 1.431 . S
C477 C497 1.449 . S
C478 C477 1.258 . S
C478 C479 1.477 . S
C478 H498 0.931 . S
C479 C475 1.460 . S
C479 C478 1.477 . S
C479 H499 0.930 . S
C480 N476 1.362 . S
C480 C477 1.431 . S
C480 C490 1.476 . S
H481 C475 0.929 . S
C482 O473 1.250 . S
C482 O474 1.258 . S
O483 Mn468 2.162 . S
O483 C471 1.281 . S
O484 Mn468 2.297 . S
O484 C471 1.236 . S
N485 Mn469 2.282 . S
N485 C486 1.328 . S
N485 C490 1.318 . S
C486 N485 1.328 . S
C486 C487 1.457 . S
C486 H491 0.929 . S
C487 C486 1.457 . S
C487 C488 1.291 . S
C487 H500 0.931 . S
C488 C487 1.291 . S
C488 C489 1.373 . S
C488 H501 0.929 . S
C489 C488 1.373 . S
C489 C490 1.396 . S
C489 C496 1.403 . S
C490 C480 1.476 . S
C490 N485 1.318 . S
C490 C489 1.396 . S
H491 C486 0.929 . S
O492 Mn468 2.385 . S
O492 C470 1.234 . S
O493 Mn468 2.209 . S
O493 Mn469 2.215 . S
O493 C470 1.283 . S
O494 Mn468 2.094 . S
O494 C472 1.240 . S
O495 Mn469 2.117 . S
O495 C472 1.264 . S
C496 C489 1.403 . S
C496 C497 1.399 . S
C496 H502 0.929 . S
C497 C477 1.449 . S
C497 C496 1.399 . S
C497 H503 0.930 . S
H498 C478 0.931 . S
H499 C479 0.930 . S
H500 C487 0.931 . S
H501 C488 0.929 . S
H502 C496 0.929 . S
H503 C497 0.930 . S
Mn504 O509 2.095 . S
Mn504 O519 2.162 . S
Mn504 O520 2.297 . S
Mn504 O528 2.385 . S
Mn504 O529 2.209 . S
Mn504 O530 2.094 . S
Mn505 O510 2.121 . S
Mn505 N512 2.264 . S
Mn505 N521 2.282 . S
Mn505 O529 2.215 . S
Mn505 O531 2.117 . S
C506 O528 1.234 . S
C506 O529 1.283 . S
C507 O519 1.281 . S
C507 O520 1.236 . S
C508 O530 1.240 . S
C508 O531 1.264 . S
O509 Mn504 2.095 . S
O509 C518 1.250 . S
O510 Mn505 2.121 . S
O510 C518 1.258 . S
C511 N512 1.324 1_556 S
C511 C515 1.460 . S
C511 H517 0.929 1_556 S
N512 Mn505 2.264 . S
N512 C511 1.324 1_554 S
N512 C516 1.356 1_554 S
C513 C514 1.258 . S
C513 C516 1.431 . S
C513 C533 1.449 . S
C514 C513 1.258 . S
C514 C515 1.477 . S
C514 H534 0.931 . S
C515 C511 1.460 . S
C515 C514 1.477 . S
C515 H535 0.930 . S
C516 N512 1.356 1_556 S
C516 C513 1.431 . S
C516 C526 1.476 . S
H517 C511 0.929 1_554 S
C518 O509 1.250 . S
C518 O510 1.258 . S
O519 Mn504 2.162 . S
O519 C507 1.281 . S
O520 Mn504 2.297 . S
O520 C507 1.236 . S
N521 Mn505 2.282 . S
N521 C522 1.328 . S
N521 C526 1.318 1_554 S
C522 N521 1.328 . S
C522 C523 1.457 . S
C522 H527 0.929 . S
C523 C522 1.457 . S
C523 C524 1.291 1_554 S
C523 H536 0.931 . S
C524 C523 1.291 1_556 S
C524 C525 1.373 . S
C524 H537 0.929 . S
C525 C524 1.373 . S
C525 C526 1.396 . S
C525 C532 1.403 . S
C526 C516 1.476 . S
C526 N521 1.318 1_556 S
C526 C525 1.396 . S
H527 C522 0.929 . S
O528 Mn504 2.385 . S
O528 C506 1.234 . S
O529 Mn504 2.209 . S
O529 Mn505 2.215 . S
O529 C506 1.283 . S
O530 Mn504 2.094 . S
O530 C508 1.240 . S
O531 Mn505 2.117 . S
O531 C508 1.264 . S
C532 C525 1.403 . S
C532 C533 1.399 . S
C532 H538 0.929 . S
C533 C513 1.449 . S
C533 C532 1.399 . S
C533 H539 0.930 . S
H534 C514 0.931 . S
H535 C515 0.930 . S
H536 C523 0.931 . S
H537 C524 0.929 . S
H538 C532 0.929 . S
H539 C533 0.930 . S
Mn540 O545 2.095 . S
Mn540 O555 2.162 . S
Mn540 O556 2.297 . S
Mn540 O564 2.385 . S
Mn540 O565 2.209 . S
Mn540 O566 2.094 . S
Mn541 O546 2.121 . S
Mn541 N548 2.257 . S
Mn541 N557 2.282 . S
Mn541 O565 2.215 . S
Mn541 O567 2.117 . S
C542 O564 1.234 . S
C542 O565 1.283 . S
C543 O555 1.281 . S
C543 O556 1.236 . S
C544 O566 1.240 . S
C544 O567 1.264 . S
O545 Mn540 2.095 . S
O545 C554 1.250 . S
O546 Mn541 2.121 . S
O546 C554 1.258 . S
C547 N548 1.326 . S
C547 C551 1.460 . S
C547 H553 0.929 . S
N548 Mn541 2.257 . S
N548 C547 1.326 . S
N548 C552 1.362 . S
C549 C550 1.258 . S
C549 C552 1.431 . S
C549 C569 1.449 . S
C550 C549 1.258 . S
C550 C551 1.477 . S
C550 H570 0.931 1_455 S
C551 C547 1.460 . S
C551 C550 1.477 . S
C551 H571 0.930 . S
C552 N548 1.362 . S
C552 C549 1.431 . S
C552 C562 1.476 . S
H553 C547 0.929 . S
C554 O545 1.250 . S
C554 O546 1.258 . S
O555 Mn540 2.162 . S
O555 C543 1.281 . S
O556 Mn540 2.297 . S
O556 C543 1.236 . S
N557 Mn541 2.282 . S
N557 C558 1.328 . S
N557 C562 1.318 . S
C558 N557 1.328 . S
C558 C559 1.457 . S
C558 H563 0.929 . S
C559 C558 1.457 . S
C559 C560 1.291 . S
C559 H572 0.931 . S
C560 C559 1.291 . S
C560 C561 1.373 . S
C560 H573 0.929 . S
C561 C560 1.373 . S
C561 C562 1.396 . S
C561 C568 1.403 . S
C562 C552 1.476 . S
C562 N557 1.318 . S
C562 C561 1.396 . S
H563 C558 0.929 . S
O564 Mn540 2.385 . S
O564 C542 1.234 . S
O565 Mn540 2.209 . S
O565 Mn541 2.215 . S
O565 C542 1.283 . S
O566 Mn540 2.094 . S
O566 C544 1.240 . S
O567 Mn541 2.117 . S
O567 C544 1.264 . S
C568 C561 1.403 . S
C568 C569 1.399 . S
C568 H574 0.929 . S
C569 C549 1.449 . S
C569 C568 1.399 . S
C569 H575 0.930 1_455 S
H570 C550 0.931 1_655 S
H571 C551 0.930 . S
H572 C559 0.931 . S
H573 C560 0.929 . S
H574 C568 0.929 . S
H575 C569 0.930 1_655 S
Mn576 O581 2.095 . S
Mn576 O591 2.162 . S
Mn576 O592 2.297 . S
Mn576 O600 2.385 . S
Mn576 O601 2.209 . S
Mn576 O602 2.094 . S
Mn577 O582 2.121 . S
Mn577 N584 2.257 . S
Mn577 N593 2.282 . S
Mn577 O601 2.215 . S
Mn577 O603 2.117 . S
C578 O600 1.234 . S
C578 O601 1.283 . S
C579 O591 1.281 . S
C579 O592 1.236 . S
C580 O602 1.240 . S
C580 O603 1.264 . S
O581 Mn576 2.095 . S
O581 C590 1.250 . S
O582 Mn577 2.121 . S
O582 C590 1.258 . S
C583 N584 1.326 . S
C583 C587 1.460 . S
C583 H589 0.929 . S
N584 Mn577 2.257 . S
N584 C583 1.326 . S
N584 C588 1.362 . S
C585 C586 1.258 . S
C585 C588 1.431 . S
C585 C605 1.449 . S
C586 C585 1.258 . S
C586 C587 1.477 . S
C586 H606 0.931 . S
C587 C583 1.460 . S
C587 C586 1.477 . S
C587 H607 0.930 . S
C588 N584 1.362 . S
C588 C585 1.431 . S
C588 C598 1.476 . S
H589 C583 0.929 . S
C590 O581 1.250 . S
C590 O582 1.258 . S
O591 Mn576 2.162 . S
O591 C579 1.281 . S
O592 Mn576 2.297 . S
O592 C579 1.236 . S
N593 Mn577 2.282 . S
N593 C594 1.328 . S
N593 C598 1.318 . S
C594 N593 1.328 . S
C594 C595 1.457 . S
C594 H599 0.929 . S
C595 C594 1.457 . S
C595 C596 1.291 . S
C595 H608 0.931 . S
C596 C595 1.291 . S
C596 C597 1.373 . S
C596 H609 0.929 . S
C597 C596 1.373 . S
C597 C598 1.396 . S
C597 C604 1.403 . S
C598 C588 1.476 . S
C598 N593 1.318 . S
C598 C597 1.396 . S
H599 C594 0.929 . S
O600 Mn576 2.385 . S
O600 C578 1.234 . S
O601 Mn576 2.209 . S
O601 Mn577 2.215 . S
O601 C578 1.283 . S
O602 Mn576 2.094 . S
O602 C580 1.240 . S
O603 Mn577 2.117 . S
O603 C580 1.264 . S
C604 C597 1.403 . S
C604 C605 1.399 . S
C604 H610 0.929 . S
C605 C585 1.449 . S
C605 C604 1.399 . S
C605 H611 0.930 . S
H606 C586 0.931 . S
H607 C587 0.930 . S
H608 C595 0.931 . S
H609 C596 0.929 . S
H610 C604 0.929 . S
H611 C605 0.930 . S
Mn612 O617 2.095 . S
Mn612 O627 2.162 . S
Mn612 O628 2.297 . S
Mn612 O636 2.385 . S
Mn612 O637 2.209 . S
Mn612 O638 2.094 . S
Mn613 O618 2.121 . S
Mn613 N620 2.257 . S
Mn613 N629 2.282 . S
Mn613 O637 2.215 . S
Mn613 O639 2.117 . S
C614 O636 1.234 . S
C614 O637 1.283 . S
C615 O627 1.281 . S
C615 O628 1.236 . S
C616 O638 1.240 . S
C616 O639 1.264 . S
O617 Mn612 2.095 . S
O617 C626 1.250 . S
O618 Mn613 2.121 . S
O618 C626 1.258 . S
C619 N620 1.326 . S
C619 C623 1.460 . S
C619 H625 0.929 . S
N620 Mn613 2.257 . S
N620 C619 1.326 . S
N620 C624 1.362 . S
C621 C622 1.258 . S
C621 C624 1.431 . S
C621 C641 1.449 . S
C622 C621 1.258 . S
C622 C623 1.477 . S
C622 H642 0.931 . S
C623 C619 1.460 . S
C623 C622 1.477 . S
C623 H643 0.930 . S
C624 N620 1.362 . S
C624 C621 1.431 . S
C624 C634 1.476 . S
H625 C619 0.929 . S
C626 O617 1.250 . S
C626 O618 1.258 . S
O627 Mn612 2.162 . S
O627 C615 1.281 . S
O628 Mn612 2.297 . S
O628 C615 1.236 . S
N629 Mn613 2.282 . S
N629 C630 1.328 . S
N629 C634 1.318 . S
C630 N629 1.328 . S
C630 C631 1.457 . S
C630 H635 0.929 . S
C631 C630 1.457 . S
C631 C632 1.291 . S
C631 H644 0.931 . S
C632 C631 1.291 . S
C632 C633 1.373 . S
C632 H645 0.929 . S
C633 C632 1.373 . S
C633 C634 1.396 . S
C633 C640 1.403 . S
C634 C624 1.476 . S
C634 N629 1.318 . S
C634 C633 1.396 . S
H635 C630 0.929 . S
O636 Mn612 2.385 . S
O636 C614 1.234 . S
O637 Mn612 2.209 . S
O637 Mn613 2.215 . S
O637 C614 1.283 . S
O638 Mn612 2.094 . S
O638 C616 1.240 . S
O639 Mn613 2.117 . S
O639 C616 1.264 . S
C640 C633 1.403 . S
C640 C641 1.399 . S
C640 H646 0.929 . S
C641 C621 1.449 . S
C641 C640 1.399 . S
C641 H647 0.930 . S
H642 C622 0.931 . S
H643 C623 0.930 . S
H644 C631 0.931 . S
H645 C632 0.929 . S
H646 C640 0.929 . S
H647 C641 0.930 . S
Mn648 O653 2.095 . S
Mn648 O663 2.162 . S
Mn648 O664 2.297 . S
Mn648 O672 2.385 . S
Mn648 O673 2.209 . S
Mn648 O674 2.094 . S
Mn649 O654 2.121 . S
Mn649 N656 2.264 . S
Mn649 N665 2.282 . S
Mn649 O673 2.215 . S
Mn649 O675 2.117 . S
C650 O672 1.234 . S
C650 O673 1.283 . S
C651 O663 1.281 . S
C651 O664 1.236 . S
C652 O674 1.240 . S
C652 O675 1.264 . S
O653 Mn648 2.095 . S
O653 C662 1.250 . S
O654 Mn649 2.121 . S
O654 C662 1.258 . S
C655 N656 1.324 1_556 S
C655 C659 1.460 . S
C655 H661 0.929 1_556 S
N656 Mn649 2.264 . S
N656 C655 1.324 1_554 S
N656 C660 1.356 1_554 S
C657 C658 1.258 . S
C657 C660 1.431 . S
C657 C677 1.449 . S
C658 C657 1.258 . S
C658 C659 1.477 . S
C658 H678 0.931 . S
C659 C655 1.460 . S
C659 C658 1.477 . S
C659 H679 0.930 . S
C660 N656 1.356 1_556 S
C660 C657 1.431 . S
C660 C670 1.476 . S
H661 C655 0.929 1_554 S
C662 O653 1.250 . S
C662 O654 1.258 . S
O663 Mn648 2.162 . S
O663 C651 1.281 . S
O664 Mn648 2.297 . S
O664 C651 1.236 . S
N665 Mn649 2.282 . S
N665 C666 1.328 . S
N665 C670 1.318 1_554 S
C666 N665 1.328 . S
C666 C667 1.457 1_655 S
C666 H671 0.929 . S
C667 C666 1.457 1_455 S
C667 C668 1.291 1_554 S
C667 H680 0.931 . S
C668 C667 1.291 1_556 S
C668 C669 1.373 1_455 S
C668 H681 0.929 . S
C669 C668 1.373 1_655 S
C669 C670 1.396 . S
C669 C676 1.403 . S
C670 C660 1.476 . S
C670 N665 1.318 1_556 S
C670 C669 1.396 . S
H671 C666 0.929 . S
O672 Mn648 2.385 . S
O672 C650 1.234 . S
O673 Mn648 2.209 . S
O673 Mn649 2.215 . S
O673 C650 1.283 . S
O674 Mn648 2.094 . S
O674 C652 1.240 . S
O675 Mn649 2.117 . S
O675 C652 1.264 . S
C676 C669 1.403 . S
C676 C677 1.399 . S
C676 H682 0.929 . S
C677 C657 1.449 . S
C677 C676 1.399 . S
C677 H683 0.930 . S
H678 C658 0.931 . S
H679 C659 0.930 . S
H680 C667 0.931 . S
H681 C668 0.929 . S
H682 C676 0.929 . S
H683 C677 0.930 . S
Mn684 O689 2.095 . S
Mn684 O699 2.162 . S
Mn684 O700 2.297 . S
Mn684 O708 2.385 . S
Mn684 O709 2.209 . S
Mn684 O710 2.094 . S
Mn685 O690 2.121 . S
Mn685 N692 2.257 . S
Mn685 N701 2.282 . S
Mn685 O709 2.215 . S
Mn685 O711 2.117 . S
C686 O708 1.234 . S
C686 O709 1.283 . S
C687 O699 1.281 . S
C687 O700 1.236 . S
C688 O710 1.240 . S
C688 O711 1.264 . S
O689 Mn684 2.095 . S
O689 C698 1.250 . S
O690 Mn685 2.121 . S
O690 C698 1.258 . S
C691 N692 1.326 . S
C691 C695 1.460 . S
C691 H697 0.929 . S
N692 Mn685 2.257 . S
N692 C691 1.326 . S
N692 C696 1.362 . S
C693 C694 1.258 . S
C693 C696 1.431 . S
C693 C713 1.449 . S
C694 C693 1.258 . S
C694 C695 1.477 . S
C694 H714 0.931 1_455 S
C695 C691 1.460 . S
C695 C694 1.477 . S
C695 H715 0.930 . S
C696 N692 1.362 . S
C696 C693 1.431 . S
C696 C706 1.476 . S
H697 C691 0.929 . S
C698 O689 1.250 . S
C698 O690 1.258 . S
O699 Mn684 2.162 . S
O699 C687 1.281 . S
O700 Mn684 2.297 . S
O700 C687 1.236 . S
N701 Mn685 2.282 . S
N701 C702 1.328 . S
N701 C706 1.318 . S
C702 N701 1.328 . S
C702 C703 1.457 . S
C702 H707 0.929 . S
C703 C702 1.457 . S
C703 C704 1.291 . S
C703 H716 0.931 . S
C704 C703 1.291 . S
C704 C705 1.373 . S
C704 H717 0.929 . S
C705 C704 1.373 . S
C705 C706 1.396 . S
C705 C712 1.403 . S
C706 C696 1.476 . S
C706 N701 1.318 . S
C706 C705 1.396 . S
H707 C702 0.929 . S
O708 Mn684 2.385 . S
O708 C686 1.234 . S
O709 Mn684 2.209 . S
O709 Mn685 2.215 . S
O709 C686 1.283 . S
O710 Mn684 2.094 . S
O710 C688 1.240 . S
O711 Mn685 2.117 . S
O711 C688 1.264 . S
C712 C705 1.403 . S
C712 C713 1.399 . S
C712 H718 0.929 . S
C713 C693 1.449 . S
C713 C712 1.399 . S
C713 H719 0.930 1_455 S
H714 C694 0.931 1_655 S
H715 C695 0.930 . S
H716 C703 0.931 . S
H717 C704 0.929 . S
H718 C712 0.929 . S
H719 C713 0.930 1_655 S
Mn720 O725 2.095 . S
Mn720 O735 2.162 . S
Mn720 O736 2.297 . S
Mn720 O744 2.385 . S
Mn720 O745 2.209 . S
Mn720 O746 2.094 . S
Mn721 O726 2.121 . S
Mn721 N728 2.264 . S
Mn721 N737 2.282 . S
Mn721 O745 2.215 . S
Mn721 O747 2.117 . S
C722 O744 1.234 . S
C722 O745 1.283 . S
C723 O735 1.281 . S
C723 O736 1.236 . S
C724 O746 1.240 . S
C724 O747 1.264 . S
O725 Mn720 2.095 . S
O725 C734 1.250 . S
O726 Mn721 2.121 . S
O726 C734 1.258 . S
C727 N728 1.324 1_554 S
C727 C731 1.460 . S
C727 H733 0.929 1_554 S
N728 Mn721 2.264 . S
N728 C727 1.324 1_556 S
N728 C732 1.356 1_556 S
C729 C730 1.258 . S
C729 C732 1.431 . S
C729 C749 1.449 . S
C730 C729 1.258 . S
C730 C731 1.477 . S
C730 H750 0.931 . S
C731 C727 1.460 . S
C731 C730 1.477 . S
C731 H751 0.930 . S
C732 N728 1.356 1_554 S
C732 C729 1.431 . S
C732 C742 1.476 . S
H733 C727 0.929 1_556 S
C734 O725 1.250 . S
C734 O726 1.258 . S
O735 Mn720 2.162 . S
O735 C723 1.281 . S
O736 Mn720 2.297 . S
O736 C723 1.236 . S
N737 Mn721 2.282 . S
N737 C738 1.328 . S
N737 C742 1.318 1_556 S
C738 N737 1.328 . S
C738 C739 1.457 . S
C738 H743 0.929 . S
C739 C738 1.457 . S
C739 C740 1.291 1_556 S
C739 H752 0.931 . S
C740 C739 1.291 1_554 S
C740 C741 1.373 . S
C740 H753 0.929 . S
C741 C740 1.373 . S
C741 C742 1.396 . S
C741 C748 1.403 . S
C742 C732 1.476 . S
C742 N737 1.318 1_554 S
C742 C741 1.396 . S
H743 C738 0.929 . S
O744 Mn720 2.385 . S
O744 C722 1.234 . S
O745 Mn720 2.209 . S
O745 Mn721 2.215 . S
O745 C722 1.283 . S
O746 Mn720 2.094 . S
O746 C724 1.240 . S
O747 Mn721 2.117 . S
O747 C724 1.264 . S
C748 C741 1.403 . S
C748 C749 1.399 . S
C748 H754 0.929 . S
C749 C729 1.449 . S
C749 C748 1.399 . S
C749 H755 0.930 . S
H750 C730 0.931 . S
H751 C731 0.930 . S
H752 C739 0.931 . S
H753 C740 0.929 . S
H754 C748 0.929 . S
H755 C749 0.930 . S
Mn756 O761 2.095 . S
Mn756 O771 2.162 . S
Mn756 O772 2.297 . S
Mn756 O780 2.385 . S
Mn756 O781 2.209 . S
Mn756 O782 2.094 . S
Mn757 O762 2.121 . S
Mn757 N764 2.257 . S
Mn757 N773 2.282 . S
Mn757 O781 2.215 . S
Mn757 O783 2.117 . S
C758 O780 1.234 . S
C758 O781 1.283 . S
C759 O771 1.281 . S
C759 O772 1.236 . S
C760 O782 1.240 . S
C760 O783 1.264 . S
O761 Mn756 2.095 . S
O761 C770 1.250 . S
O762 Mn757 2.121 . S
O762 C770 1.258 . S
C763 N764 1.326 . S
C763 C767 1.460 . S
C763 H769 0.929 . S
N764 Mn757 2.257 . S
N764 C763 1.326 . S
N764 C768 1.362 . S
C765 C766 1.258 . S
C765 C768 1.431 . S
C765 C785 1.449 . S
C766 C765 1.258 . S
C766 C767 1.477 . S
C766 H786 0.931 1_455 S
C767 C763 1.460 . S
C767 C766 1.477 . S
C767 H787 0.930 . S
C768 N764 1.362 . S
C768 C765 1.431 . S
C768 C778 1.476 . S
H769 C763 0.929 . S
C770 O761 1.250 . S
C770 O762 1.258 . S
O771 Mn756 2.162 . S
O771 C759 1.281 . S
O772 Mn756 2.297 . S
O772 C759 1.236 . S
N773 Mn757 2.282 . S
N773 C774 1.328 . S
N773 C778 1.318 . S
C774 N773 1.328 . S
C774 C775 1.457 . S
C774 H779 0.929 . S
C775 C774 1.457 . S
C775 C776 1.291 . S
C775 H788 0.931 . S
C776 C775 1.291 . S
C776 C777 1.373 . S
C776 H789 0.929 . S
C777 C776 1.373 . S
C777 C778 1.396 . S
C777 C784 1.403 . S
C778 C768 1.476 . S
C778 N773 1.318 . S
C778 C777 1.396 . S
H779 C774 0.929 . S
O780 Mn756 2.385 . S
O780 C758 1.234 . S
O781 Mn756 2.209 . S
O781 Mn757 2.215 . S
O781 C758 1.283 . S
O782 Mn756 2.094 . S
O782 C760 1.240 . S
O783 Mn757 2.117 . S
O783 C760 1.264 . S
C784 C777 1.403 . S
C784 C785 1.399 . S
C784 H790 0.929 . S
C785 C765 1.449 . S
C785 C784 1.399 . S
C785 H791 0.930 1_455 S
H786 C766 0.931 1_655 S
H787 C767 0.930 . S
H788 C775 0.931 . S
H789 C776 0.929 . S
H790 C784 0.929 . S
H791 C785 0.930 1_655 S
Mn792 O797 2.095 . S
Mn792 O807 2.162 . S
Mn792 O808 2.297 . S
Mn792 O816 2.385 . S
Mn792 O817 2.209 . S
Mn792 O818 2.094 . S
Mn793 O798 2.121 . S
Mn793 N800 2.257 . S
Mn793 N809 2.282 . S
Mn793 O817 2.215 . S
Mn793 O819 2.117 . S
C794 O816 1.234 . S
C794 O817 1.283 . S
C795 O807 1.281 . S
C795 O808 1.236 . S
C796 O818 1.240 . S
C796 O819 1.264 . S
O797 Mn792 2.095 . S
O797 C806 1.250 . S
O798 Mn793 2.121 . S
O798 C806 1.258 . S
C799 N800 1.326 . S
C799 C803 1.460 . S
C799 H805 0.929 . S
N800 Mn793 2.257 . S
N800 C799 1.326 . S
N800 C804 1.362 . S
C801 C802 1.258 . S
C801 C804 1.431 . S
C801 C821 1.449 . S
C802 C801 1.258 . S
C802 C803 1.477 . S
C802 H822 0.931 . S
C803 C799 1.460 . S
C803 C802 1.477 . S
C803 H823 0.930 . S
C804 N800 1.362 . S
C804 C801 1.431 . S
C804 C814 1.476 . S
H805 C799 0.929 . S
C806 O797 1.250 . S
C806 O798 1.258 . S
O807 Mn792 2.162 . S
O807 C795 1.281 . S
O808 Mn792 2.297 . S
O808 C795 1.236 . S
N809 Mn793 2.282 . S
N809 C810 1.328 . S
N809 C814 1.318 . S
C810 N809 1.328 . S
C810 C811 1.457 1_655 S
C810 H815 0.929 . S
C811 C810 1.457 1_455 S
C811 C812 1.291 . S
C811 H824 0.931 . S
C812 C811 1.291 . S
C812 C813 1.373 1_455 S
C812 H825 0.929 . S
C813 C812 1.373 1_655 S
C813 C814 1.396 . S
C813 C820 1.403 . S
C814 C804 1.476 . S
C814 N809 1.318 . S
C814 C813 1.396 . S
H815 C810 0.929 . S
O816 Mn792 2.385 . S
O816 C794 1.234 . S
O817 Mn792 2.209 . S
O817 Mn793 2.215 . S
O817 C794 1.283 . S
O818 Mn792 2.094 . S
O818 C796 1.240 . S
O819 Mn793 2.117 . S
O819 C796 1.264 . S
C820 C813 1.403 . S
C820 C821 1.399 . S
C820 H826 0.929 . S
C821 C801 1.449 . S
C821 C820 1.399 . S
C821 H827 0.930 . S
H822 C802 0.931 . S
H823 C803 0.930 . S
H824 C811 0.931 . S
H825 C812 0.929 . S
H826 C820 0.929 . S
H827 C821 0.930 . S
Mn828 O833 2.095 . S
Mn828 O843 2.162 . S
Mn828 O844 2.297 . S
Mn828 O852 2.385 . S
Mn828 O853 2.209 . S
Mn828 O854 2.094 . S
Mn829 O834 2.121 . S
Mn829 N836 2.257 . S
Mn829 N845 2.282 . S
Mn829 O853 2.215 . S
Mn829 O855 2.117 . S
C830 O852 1.234 . S
C830 O853 1.283 . S
C831 O843 1.281 . S
C831 O844 1.236 . S
C832 O854 1.240 . S
C832 O855 1.264 . S
O833 Mn828 2.095 . S
O833 C842 1.250 . S
O834 Mn829 2.121 . S
O834 C842 1.258 . S
C835 N836 1.326 . S
C835 C839 1.460 . S
C835 H841 0.929 . S
N836 Mn829 2.257 . S
N836 C835 1.326 . S
N836 C840 1.362 . S
C837 C838 1.258 . S
C837 C840 1.431 . S
C837 C857 1.449 . S
C838 C837 1.258 . S
C838 C839 1.477 . S
C838 H858 0.931 . S
C839 C835 1.460 . S
C839 C838 1.477 . S
C839 H859 0.930 . S
C840 N836 1.362 . S
C840 C837 1.431 . S
C840 C850 1.476 . S
H841 C835 0.929 . S
C842 O833 1.250 . S
C842 O834 1.258 . S
O843 Mn828 2.162 . S
O843 C831 1.281 . S
O844 Mn828 2.297 . S
O844 C831 1.236 . S
N845 Mn829 2.282 . S
N845 C846 1.328 . S
N845 C850 1.318 . S
C846 N845 1.328 . S
C846 C847 1.457 . S
C846 H851 0.929 . S
C847 C846 1.457 . S
C847 C848 1.291 . S
C847 H860 0.931 . S
C848 C847 1.291 . S
C848 C849 1.373 . S
C848 H861 0.929 . S
C849 C848 1.373 . S
C849 C850 1.396 . S
C849 C856 1.403 . S
C850 C840 1.476 . S
C850 N845 1.318 . S
C850 C849 1.396 . S
H851 C846 0.929 . S
O852 Mn828 2.385 . S
O852 C830 1.234 . S
O853 Mn828 2.209 . S
O853 Mn829 2.215 . S
O853 C830 1.283 . S
O854 Mn828 2.094 . S
O854 C832 1.240 . S
O855 Mn829 2.117 . S
O855 C832 1.264 . S
C856 C849 1.403 . S
C856 C857 1.399 . S
C856 H862 0.929 . S
C857 C837 1.449 . S
C857 C856 1.399 . S
C857 H863 0.930 . S
H858 C838 0.931 . S
H859 C839 0.930 . S
H860 C847 0.931 . S
H861 C848 0.929 . S
H862 C856 0.929 . S
H863 C857 0.930 . S
Mn864 O869 2.095 . S
Mn864 O879 2.162 . S
Mn864 O880 2.297 . S
Mn864 O888 2.385 . S
Mn864 O889 2.209 . S
Mn864 O890 2.094 . S
Mn865 O870 2.121 . S
Mn865 N872 2.257 . S
Mn865 N881 2.282 . S
Mn865 O889 2.215 . S
Mn865 O891 2.117 . S
C866 O888 1.234 . S
C866 O889 1.283 . S
C867 O879 1.281 . S
C867 O880 1.236 . S
C868 O890 1.240 . S
C868 O891 1.264 . S
O869 Mn864 2.095 . S
O869 C878 1.250 . S
O870 Mn865 2.121 . S
O870 C878 1.258 . S
C871 N872 1.326 . S
C871 C875 1.460 . S
C871 H877 0.929 . S
N872 Mn865 2.257 . S
N872 C871 1.326 . S
N872 C876 1.362 . S
C873 C874 1.258 . S
C873 C876 1.431 . S
C873 C893 1.449 . S
C874 C873 1.258 . S
C874 C875 1.477 . S
C874 H894 0.931 . S
C875 C871 1.460 . S
C875 C874 1.477 . S
C875 H895 0.930 . S
C876 N872 1.362 . S
C876 C873 1.431 . S
C876 C886 1.476 . S
H877 C871 0.929 . S
C878 O869 1.250 . S
C878 O870 1.258 . S
O879 Mn864 2.162 . S
O879 C867 1.281 . S
O880 Mn864 2.297 . S
O880 C867 1.236 . S
N881 Mn865 2.282 . S
N881 C882 1.328 . S
N881 C886 1.318 . S
C882 N881 1.328 . S
C882 C883 1.457 . S
C882 H887 0.929 . S
C883 C882 1.457 . S
C883 C884 1.291 . S
C883 H896 0.931 . S
C884 C883 1.291 . S
C884 C885 1.373 . S
C884 H897 0.929 . S
C885 C884 1.373 . S
C885 C886 1.396 . S
C885 C892 1.403 . S
C886 C876 1.476 . S
C886 N881 1.318 . S
C886 C885 1.396 . S
H887 C882 0.929 . S
O888 Mn864 2.385 . S
O888 C866 1.234 . S
O889 Mn864 2.209 . S
O889 Mn865 2.215 . S
O889 C866 1.283 . S
O890 Mn864 2.094 . S
O890 C868 1.240 . S
O891 Mn865 2.117 . S
O891 C868 1.264 . S
C892 C885 1.403 . S
C892 C893 1.399 . S
C892 H898 0.929 . S
C893 C873 1.449 . S
C893 C892 1.399 . S
C893 H899 0.930 . S
H894 C874 0.931 . S
H895 C875 0.930 . S
H896 C883 0.931 . S
H897 C884 0.929 . S
H898 C892 0.929 . S
H899 C893 0.930 . S
Mn900 O905 2.095 . S
Mn900 O915 2.162 . S
Mn900 O916 2.297 . S
Mn900 O924 2.385 . S
Mn900 O925 2.209 . S
Mn900 O926 2.094 . S
Mn901 O906 2.121 . S
Mn901 N908 2.257 . S
Mn901 N917 2.282 . S
Mn901 O925 2.215 . S
Mn901 O927 2.117 . S
C902 O924 1.234 . S
C902 O925 1.283 . S
C903 O915 1.281 . S
C903 O916 1.236 . S
C904 O926 1.240 . S
C904 O927 1.264 . S
O905 Mn900 2.095 . S
O905 C914 1.250 . S
O906 Mn901 2.121 . S
O906 C914 1.258 . S
C907 N908 1.326 . S
C907 C911 1.460 . S
C907 H913 0.929 . S
N908 Mn901 2.257 . S
N908 C907 1.326 . S
N908 C912 1.362 . S
C909 C910 1.258 . S
C909 C912 1.431 . S
C909 C929 1.449 . S
C910 C909 1.258 . S
C910 C911 1.477 . S
C910 H930 0.931 . S
C911 C907 1.460 . S
C911 C910 1.477 . S
C911 H931 0.930 . S
C912 N908 1.362 . S
C912 C909 1.431 . S
C912 C922 1.476 . S
H913 C907 0.929 . S
C914 O905 1.250 . S
C914 O906 1.258 . S
O915 Mn900 2.162 . S
O915 C903 1.281 . S
O916 Mn900 2.297 . S
O916 C903 1.236 . S
N917 Mn901 2.282 . S
N917 C918 1.328 . S
N917 C922 1.318 . S
C918 N917 1.328 . S
C918 C919 1.457 . S
C918 H923 0.929 . S
C919 C918 1.457 . S
C919 C920 1.291 . S
C919 H932 0.931 . S
C920 C919 1.291 . S
C920 C921 1.373 . S
C920 H933 0.929 . S
C921 C920 1.373 . S
C921 C922 1.396 . S
C921 C928 1.403 . S
C922 C912 1.476 . S
C922 N917 1.318 . S
C922 C921 1.396 . S
H923 C918 0.929 . S
O924 Mn900 2.385 . S
O924 C902 1.234 . S
O925 Mn900 2.209 . S
O925 Mn901 2.215 . S
O925 C902 1.283 . S
O926 Mn900 2.094 . S
O926 C904 1.240 . S
O927 Mn901 2.117 . S
O927 C904 1.264 . S
C928 C921 1.403 . S
C928 C929 1.399 . S
C928 H934 0.929 . S
C929 C909 1.449 . S
C929 C928 1.399 . S
C929 H935 0.930 . S
H930 C910 0.931 . S
H931 C911 0.930 . S
H932 C919 0.931 . S
H933 C920 0.929 . S
H934 C928 0.929 . S
H935 C929 0.930 . S
Mn936 O941 2.095 . S
Mn936 O951 2.162 . S
Mn936 O952 2.297 . S
Mn936 O960 2.385 . S
Mn936 O961 2.209 . S
Mn936 O962 2.094 . S
Mn937 O942 2.121 . S
Mn937 N944 2.264 . S
Mn937 N953 2.282 . S
Mn937 O961 2.215 . S
Mn937 O963 2.117 . S
C938 O960 1.234 . S
C938 O961 1.283 . S
C939 O951 1.281 . S
C939 O952 1.236 . S
C940 O962 1.240 . S
C940 O963 1.264 . S
O941 Mn936 2.095 . S
O941 C950 1.250 . S
O942 Mn937 2.121 . S
O942 C950 1.258 . S
C943 N944 1.324 1_554 S
C943 C947 1.460 . S
C943 H949 0.929 1_554 S
N944 Mn937 2.264 . S
N944 C943 1.324 1_556 S
N944 C948 1.356 1_556 S
C945 C946 1.258 . S
C945 C948 1.431 . S
C945 C965 1.449 . S
C946 C945 1.258 . S
C946 C947 1.477 . S
C946 H966 0.931 . S
C947 C943 1.460 . S
C947 C946 1.477 . S
C947 H967 0.930 . S
C948 N944 1.356 1_554 S
C948 C945 1.431 . S
C948 C958 1.476 . S
H949 C943 0.929 1_556 S
C950 O941 1.250 . S
C950 O942 1.258 . S
O951 Mn936 2.162 . S
O951 C939 1.281 . S
O952 Mn936 2.297 . S
O952 C939 1.236 . S
N953 Mn937 2.282 . S
N953 C954 1.328 . S
N953 C958 1.318 1_556 S
C954 N953 1.328 . S
C954 C955 1.457 1_455 S
C954 H959 0.929 . S
C955 C954 1.457 1_655 S
C955 C956 1.291 1_556 S
C955 H968 0.931 . S
C956 C955 1.291 1_554 S
C956 C957 1.373 1_655 S
C956 H969 0.929 . S
C957 C956 1.373 1_455 S
C957 C958 1.396 . S
C957 C964 1.403 . S
C958 C948 1.476 . S
C958 N953 1.318 1_554 S
C958 C957 1.396 . S
H959 C954 0.929 . S
O960 Mn936 2.385 . S
O960 C938 1.234 . S
O961 Mn936 2.209 . S
O961 Mn937 2.215 . S
O961 C938 1.283 . S
O962 Mn936 2.094 . S
O962 C940 1.240 . S
O963 Mn937 2.117 . S
O963 C940 1.264 . S
C964 C957 1.403 . S
C964 C965 1.399 . S
C964 H970 0.929 . S
C965 C945 1.449 . S
C965 C964 1.399 . S
C965 H971 0.930 . S
H966 C946 0.931 . S
H967 C947 0.930 . S
H968 C955 0.931 . S
H969 C956 0.929 . S
H970 C964 0.929 . S
H971 C965 0.930 . S
Mn972 O977 2.095 . S
Mn972 O987 2.162 . S
Mn972 O988 2.297 . S
Mn972 O996 2.385 . S
Mn972 O997 2.209 . S
Mn972 O998 2.094 . S
Mn973 O978 2.121 . S
Mn973 N980 2.257 . S
Mn973 N989 2.282 . S
Mn973 O997 2.215 . S
Mn973 O999 2.117 . S
C974 O996 1.234 . S
C974 O997 1.283 . S
C975 O987 1.281 . S
C975 O988 1.236 . S
C976 O998 1.240 . S
C976 O999 1.264 . S
O977 Mn972 2.095 . S
O977 C986 1.250 . S
O978 Mn973 2.121 . S
O978 C986 1.258 . S
C979 N980 1.326 . S
C979 C983 1.460 . S
C979 H985 0.929 . S
N980 Mn973 2.257 . S
N980 C979 1.326 . S
N980 C984 1.362 . S
C981 C982 1.258 . S
C981 C984 1.431 . S
C981 C1001 1.449 . S
C982 C981 1.258 . S
C982 C983 1.477 . S
C982 H1002 0.931 1_655 S
C983 C979 1.460 . S
C983 C982 1.477 . S
C983 H1003 0.930 . S
C984 N980 1.362 . S
C984 C981 1.431 . S
C984 C994 1.476 . S
H985 C979 0.929 . S
C986 O977 1.250 . S
C986 O978 1.258 . S
O987 Mn972 2.162 . S
O987 C975 1.281 . S
O988 Mn972 2.297 . S
O988 C975 1.236 . S
N989 Mn973 2.282 . S
N989 C990 1.328 . S
N989 C994 1.318 . S
C990 N989 1.328 . S
C990 C991 1.457 . S
C990 H995 0.929 . S
C991 C990 1.457 . S
C991 C992 1.291 . S
C991 H1004 0.931 . S
C992 C991 1.291 . S
C992 C993 1.373 . S
C992 H1005 0.929 . S
C993 C992 1.373 . S
C993 C994 1.396 . S
C993 C1000 1.403 . S
C994 C984 1.476 . S
C994 N989 1.318 . S
C994 C993 1.396 . S
H995 C990 0.929 . S
O996 Mn972 2.385 . S
O996 C974 1.234 . S
O997 Mn972 2.209 . S
O997 Mn973 2.215 . S
O997 C974 1.283 . S
O998 Mn972 2.094 . S
O998 C976 1.240 . S
O999 Mn973 2.117 . S
O999 C976 1.264 . S
C1000 C993 1.403 . S
C1000 C1001 1.399 . S
C1000 H1006 0.929 . S
C1001 C981 1.449 . S
C1001 C1000 1.399 . S
C1001 H1007 0.930 1_655 S
H1002 C982 0.931 1_455 S
H1003 C983 0.930 . S
H1004 C991 0.931 . S
H1005 C992 0.929 . S
H1006 C1000 0.929 . S
H1007 C1001 0.930 1_455 S
Mn1008 O1013 2.095 . S
Mn1008 O1023 2.162 . S
Mn1008 O1024 2.297 . S
Mn1008 O1032 2.385 . S
Mn1008 O1033 2.209 . S
Mn1008 O1034 2.094 . S
Mn1009 O1014 2.121 . S
Mn1009 N1016 2.264 . S
Mn1009 N1025 2.282 . S
Mn1009 O1033 2.215 . S
Mn1009 O1035 2.117 . S
C1010 O1032 1.234 . S
C1010 O1033 1.283 . S
C1011 O1023 1.281 . S
C1011 O1024 1.236 . S
C1012 O1034 1.240 . S
C1012 O1035 1.264 . S
O1013 Mn1008 2.095 . S
O1013 C1022 1.250 . S
O1014 Mn1009 2.121 . S
O1014 C1022 1.258 . S
C1015 N1016 1.324 1_556 S
C1015 C1019 1.460 . S
C1015 H1021 0.929 1_556 S
N1016 Mn1009 2.264 . S
N1016 C1015 1.324 1_554 S
N1016 C1020 1.356 1_554 S
C1017 C1018 1.258 . S
C1017 C1020 1.431 . S
C1017 C1037 1.449 . S
C1018 C1017 1.258 . S
C1018 C1019 1.477 . S
C1018 H1038 0.931 . S
C1019 C1015 1.460 . S
C1019 C1018 1.477 . S
C1019 H1039 0.930 . S
C1020 N1016 1.356 1_556 S
C1020 C1017 1.431 . S
C1020 C1030 1.476 . S
H1021 C1015 0.929 1_554 S
C1022 O1013 1.250 . S
C1022 O1014 1.258 . S
O1023 Mn1008 2.162 . S
O1023 C1011 1.281 . S
O1024 Mn1008 2.297 . S
O1024 C1011 1.236 . S
N1025 Mn1009 2.282 . S
N1025 C1026 1.328 . S
N1025 C1030 1.318 1_554 S
C1026 N1025 1.328 . S
C1026 C1027 1.457 . S
C1026 H1031 0.929 . S
C1027 C1026 1.457 . S
C1027 C1028 1.291 1_554 S
C1027 H1040 0.931 . S
C1028 C1027 1.291 1_556 S
C1028 C1029 1.373 . S
C1028 H1041 0.929 . S
C1029 C1028 1.373 . S
C1029 C1030 1.396 . S
C1029 C1036 1.403 . S
C1030 C1020 1.476 . S
C1030 N1025 1.318 1_556 S
C1030 C1029 1.396 . S
H1031 C1026 0.929 . S
O1032 Mn1008 2.385 . S
O1032 C1010 1.234 . S
O1033 Mn1008 2.209 . S
O1033 Mn1009 2.215 . S
O1033 C1010 1.283 . S
O1034 Mn1008 2.094 . S
O1034 C1012 1.240 . S
O1035 Mn1009 2.117 . S
O1035 C1012 1.264 . S
C1036 C1029 1.403 . S
C1036 C1037 1.399 . S
C1036 H1042 0.929 . S
C1037 C1017 1.449 . S
C1037 C1036 1.399 . S
C1037 H1043 0.930 . S
H1038 C1018 0.931 . S
H1039 C1019 0.930 . S
H1040 C1027 0.931 . S
H1041 C1028 0.929 . S
H1042 C1036 0.929 . S
H1043 C1037 0.930 . S
Mn1044 O1049 2.095 . S
Mn1044 O1059 2.162 . S
Mn1044 O1060 2.297 . S
Mn1044 O1068 2.385 . S
Mn1044 O1069 2.209 . S
Mn1044 O1070 2.094 . S
Mn1045 O1050 2.121 . S
Mn1045 N1052 2.257 . S
Mn1045 N1061 2.282 . S
Mn1045 O1069 2.215 . S
Mn1045 O1071 2.117 . S
C1046 O1068 1.234 . S
C1046 O1069 1.283 . S
C1047 O1059 1.281 . S
C1047 O1060 1.236 . S
C1048 O1070 1.240 . S
C1048 O1071 1.264 . S
O1049 Mn1044 2.095 . S
O1049 C1058 1.250 . S
O1050 Mn1045 2.121 . S
O1050 C1058 1.258 . S
C1051 N1052 1.326 . S
C1051 C1055 1.460 . S
C1051 H1057 0.929 . S
N1052 Mn1045 2.257 . S
N1052 C1051 1.326 . S
N1052 C1056 1.362 . S
C1053 C1054 1.258 . S
C1053 C1056 1.431 . S
C1053 C1073 1.449 . S
C1054 C1053 1.258 . S
C1054 C1055 1.477 . S
C1054 H1074 0.931 1_655 S
C1055 C1051 1.460 . S
C1055 C1054 1.477 . S
C1055 H1075 0.930 . S
C1056 N1052 1.362 . S
C1056 C1053 1.431 . S
C1056 C1066 1.476 . S
H1057 C1051 0.929 . S
C1058 O1049 1.250 . S
C1058 O1050 1.258 . S
O1059 Mn1044 2.162 . S
O1059 C1047 1.281 . S
O1060 Mn1044 2.297 . S
O1060 C1047 1.236 . S
N1061 Mn1045 2.282 . S
N1061 C1062 1.328 . S
N1061 C1066 1.318 . S
C1062 N1061 1.328 . S
C1062 C1063 1.457 . S
C1062 H1067 0.929 . S
C1063 C1062 1.457 . S
C1063 C1064 1.291 . S
C1063 H1076 0.931 . S
C1064 C1063 1.291 . S
C1064 C1065 1.373 . S
C1064 H1077 0.929 . S
C1065 C1064 1.373 . S
C1065 C1066 1.396 . S
C1065 C1072 1.403 . S
C1066 C1056 1.476 . S
C1066 N1061 1.318 . S
C1066 C1065 1.396 . S
H1067 C1062 0.929 . S
O1068 Mn1044 2.385 . S
O1068 C1046 1.234 . S
O1069 Mn1044 2.209 . S
O1069 Mn1045 2.215 . S
O1069 C1046 1.283 . S
O1070 Mn1044 2.094 . S
O1070 C1048 1.240 . S
O1071 Mn1045 2.117 . S
O1071 C1048 1.264 . S
C1072 C1065 1.403 . S
C1072 C1073 1.399 . S
C1072 H1078 0.929 . S
C1073 C1053 1.449 . S
C1073 C1072 1.399 . S
C1073 H1079 0.930 1_655 S
H1074 C1054 0.931 1_455 S
H1075 C1055 0.930 . S
H1076 C1063 0.931 . S
H1077 C1064 0.929 . S
H1078 C1072 0.929 . S
H1079 C1073 0.930 1_455 S
Mn1080 O1085 2.095 . S
Mn1080 O1095 2.162 . S
Mn1080 O1096 2.297 . S
Mn1080 O1104 2.385 . S
Mn1080 O1105 2.209 . S
Mn1080 O1106 2.094 . S
Mn1081 O1086 2.121 . S
Mn1081 N1088 2.257 . S
Mn1081 N1097 2.282 . S
Mn1081 O1105 2.215 . S
Mn1081 O1107 2.117 . S
C1082 O1104 1.234 . S
C1082 O1105 1.283 . S
C1083 O1095 1.281 . S
C1083 O1096 1.236 . S
C1084 O1106 1.240 . S
C1084 O1107 1.264 . S
O1085 Mn1080 2.095 . S
O1085 C1094 1.250 . S
O1086 Mn1081 2.121 . S
O1086 C1094 1.258 . S
C1087 N1088 1.326 . S
C1087 C1091 1.460 . S
C1087 H1093 0.929 . S
N1088 Mn1081 2.257 . S
N1088 C1087 1.326 . S
N1088 C1092 1.362 . S
C1089 C1090 1.258 . S
C1089 C1092 1.431 . S
C1089 C1109 1.449 . S
C1090 C1089 1.258 . S
C1090 C1091 1.477 . S
C1090 H1110 0.931 . S
C1091 C1087 1.460 . S
C1091 C1090 1.477 . S
C1091 H1111 0.930 . S
C1092 N1088 1.362 . S
C1092 C1089 1.431 . S
C1092 C1102 1.476 . S
H1093 C1087 0.929 . S
C1094 O1085 1.250 . S
C1094 O1086 1.258 . S
O1095 Mn1080 2.162 . S
O1095 C1083 1.281 . S
O1096 Mn1080 2.297 . S
O1096 C1083 1.236 . S
N1097 Mn1081 2.282 . S
N1097 C1098 1.328 . S
N1097 C1102 1.318 . S
C1098 N1097 1.328 . S
C1098 C1099 1.457 1_455 S
C1098 H1103 0.929 . S
C1099 C1098 1.457 1_655 S
C1099 C1100 1.291 . S
C1099 H1112 0.931 . S
C1100 C1099 1.291 . S
C1100 C1101 1.373 1_655 S
C1100 H1113 0.929 . S
C1101 C1100 1.373 1_455 S
C1101 C1102 1.396 . S
C1101 C1108 1.403 . S
C1102 C1092 1.476 . S
C1102 N1097 1.318 . S
C1102 C1101 1.396 . S
H1103 C1098 0.929 . S
O1104 Mn1080 2.385 . S
O1104 C1082 1.234 . S
O1105 Mn1080 2.209 . S
O1105 Mn1081 2.215 . S
O1105 C1082 1.283 . S
O1106 Mn1080 2.094 . S
O1106 C1084 1.240 . S
O1107 Mn1081 2.117 . S
O1107 C1084 1.264 . S
C1108 C1101 1.403 . S
C1108 C1109 1.399 . S
C1108 H1114 0.929 . S
C1109 C1089 1.449 . S
C1109 C1108 1.399 . S
C1109 H1115 0.930 . S
H1110 C1090 0.931 . S
H1111 C1091 0.930 . S
H1112 C1099 0.931 . S
H1113 C1100 0.929 . S
H1114 C1108 0.929 . S
H1115 C1109 0.930 . S
Mn1116 O1121 2.095 . S
Mn1116 O1131 2.162 . S
Mn1116 O1132 2.297 . S
Mn1116 O1140 2.385 . S
Mn1116 O1141 2.209 . S
Mn1116 O1142 2.094 . S
Mn1117 O1122 2.121 . S
Mn1117 N1124 2.257 . S
Mn1117 N1133 2.282 . S
Mn1117 O1141 2.215 . S
Mn1117 O1143 2.117 . S
C1118 O1140 1.234 . S
C1118 O1141 1.283 . S
C1119 O1131 1.281 . S
C1119 O1132 1.236 . S
C1120 O1142 1.240 . S
C1120 O1143 1.264 . S
O1121 Mn1116 2.095 . S
O1121 C1130 1.250 . S
O1122 Mn1117 2.121 . S
O1122 C1130 1.258 . S
C1123 N1124 1.326 . S
C1123 C1127 1.460 . S
C1123 H1129 0.929 . S
N1124 Mn1117 2.257 . S
N1124 C1123 1.326 . S
N1124 C1128 1.362 . S
C1125 C1126 1.258 . S
C1125 C1128 1.431 . S
C1125 C1145 1.449 . S
C1126 C1125 1.258 . S
C1126 C1127 1.477 . S
C1126 H1146 0.931 . S
C1127 C1123 1.460 . S
C1127 C1126 1.477 . S
C1127 H1147 0.930 . S
C1128 N1124 1.362 . S
C1128 C1125 1.431 . S
C1128 C1138 1.476 . S
H1129 C1123 0.929 . S
C1130 O1121 1.250 . S
C1130 O1122 1.258 . S
O1131 Mn1116 2.162 . S
O1131 C1119 1.281 . S
O1132 Mn1116 2.297 . S
O1132 C1119 1.236 . S
N1133 Mn1117 2.282 . S
N1133 C1134 1.328 . S
N1133 C1138 1.318 . S
C1134 N1133 1.328 . S
C1134 C1135 1.457 . S
C1134 H1139 0.929 . S
C1135 C1134 1.457 . S
C1135 C1136 1.291 . S
C1135 H1148 0.931 . S
C1136 C1135 1.291 . S
C1136 C1137 1.373 . S
C1136 H1149 0.929 . S
C1137 C1136 1.373 . S
C1137 C1138 1.396 . S
C1137 C1144 1.403 . S
C1138 C1128 1.476 . S
C1138 N1133 1.318 . S
C1138 C1137 1.396 . S
H1139 C1134 0.929 . S
O1140 Mn1116 2.385 . S
O1140 C1118 1.234 . S
O1141 Mn1116 2.209 . S
O1141 Mn1117 2.215 . S
O1141 C1118 1.283 . S
O1142 Mn1116 2.094 . S
O1142 C1120 1.240 . S
O1143 Mn1117 2.117 . S
O1143 C1120 1.264 . S
C1144 C1137 1.403 . S
C1144 C1145 1.399 . S
C1144 H1150 0.929 . S
C1145 C1125 1.449 . S
C1145 C1144 1.399 . S
C1145 H1151 0.930 . S
H1146 C1126 0.931 . S
H1147 C1127 0.930 . S
H1148 C1135 0.931 . S
H1149 C1136 0.929 . S
H1150 C1144 0.929 . S
H1151 C1145 0.930 . S
H1152 C1164 0.930 . S
H1153 C1166 0.930 . S
H1154 C1167 0.930 . S
H1155 C1171 0.989 . S
H1156 C1171 0.938 1_554 S
H1157 C1171 0.969 . S
H1158 C1172 0.960 . S
H1159 C1172 0.961 . S
H1160 C1172 0.959 1_655 S
H1161 C1175 0.935 . S
H1162 C1176 0.931 . S
H1163 C1178 0.930 . S
C1164 H1152 0.930 . S
C1164 C1165 1.399 . S
C1164 C1169 1.399 . S
C1165 C1164 1.399 . S
C1165 C1166 1.376 . S
C1166 H1153 0.930 . S
C1166 C1165 1.376 . S
C1166 C1167 1.388 . S
C1167 H1154 0.930 . S
C1167 C1166 1.388 . S
C1167 C1168 1.390 . S
C1168 C1167 1.390 . S
C1168 C1169 1.394 . S
C1168 C1174 1.480 1_556 S
C1169 C1164 1.399 . S
C1169 C1168 1.394 . S
C1169 C1170 1.516 1_656 S
C1170 C1169 1.516 1_454 S
C1170 C1171 1.488 1_554 S
C1170 C1172 1.561 . S
C1170 C1173 1.526 . S
C1171 H1155 0.989 . S
C1171 H1156 0.938 1_556 S
C1171 H1157 0.969 . S
C1171 C1170 1.488 1_556 S
C1172 H1158 0.960 . S
C1172 H1159 0.961 . S
C1172 H1160 0.959 1_455 S
C1172 C1170 1.561 . S
C1173 C1170 1.526 . S
C1173 C1174 1.378 1_455 S
C1173 C1178 1.390 . S
C1174 C1168 1.480 1_554 S
C1174 C1173 1.378 1_655 S
C1174 C1175 1.400 . S
C1175 H1161 0.935 . S
C1175 C1174 1.400 . S
C1175 C1176 1.385 1_655 S
C1176 H1162 0.931 . S
C1176 C1175 1.385 1_455 S
C1176 C1177 1.389 . S
C1177 C1176 1.389 . S
C1177 C1178 1.387 . S
C1178 H1163 0.930 . S
C1178 C1173 1.390 . S
C1178 C1177 1.387 . S
H1179 C1191 0.930 . S
H1180 C1193 0.930 . S
H1181 C1194 0.930 . S
H1182 C1198 0.959 . S
H1183 C1198 0.959 . S
H1184 C1198 0.961 . S
H1185 C1199 0.960 . S
H1186 C1199 0.961 . S
H1187 C1199 0.959 . S
H1188 C1202 0.929 . S
H1189 C1203 0.931 . S
H1190 C1205 0.930 . S
C1191 H1179 0.930 . S
C1191 C1192 1.399 . S
C1191 C1196 1.399 . S
C1192 C1191 1.399 . S
C1192 C1193 1.376 . S
C1193 H1180 0.930 . S
C1193 C1192 1.376 . S
C1193 C1194 1.388 . S
C1194 H1181 0.930 . S
C1194 C1193 1.388 . S
C1194 C1195 1.390 . S
C1195 C1194 1.390 . S
C1195 C1196 1.394 . S
C1195 C1201 1.465 . S
C1196 C1191 1.399 . S
C1196 C1195 1.394 . S
C1196 C1197 1.516 . S
C1197 C1196 1.516 . S
C1197 C1198 1.502 . S
C1197 C1199 1.561 . S
C1197 C1200 1.526 . S
C1198 H1182 0.959 . S
C1198 H1183 0.959 . S
C1198 H1184 0.961 . S
C1198 C1197 1.502 . S
C1199 H1185 0.960 . S
C1199 H1186 0.961 . S
C1199 H1187 0.959 . S
C1199 C1197 1.561 . S
C1200 C1197 1.526 . S
C1200 C1201 1.396 . S
C1200 C1205 1.390 . S
C1201 C1195 1.465 . S
C1201 C1200 1.396 . S
C1201 C1202 1.399 . S
C1202 H1188 0.929 . S
C1202 C1201 1.399 . S
C1202 C1203 1.385 . S
C1203 H1189 0.931 . S
C1203 C1202 1.385 . S
C1203 C1204 1.389 . S
C1204 C1203 1.389 . S
C1204 C1205 1.387 . S
C1205 H1190 0.930 . S
C1205 C1200 1.390 . S
C1205 C1204 1.387 . S
H1206 C1218 0.930 . S
H1207 C1220 0.930 . S
H1208 C1221 0.930 . S
H1209 C1225 0.959 . S
H1210 C1225 0.959 . S
H1211 C1225 0.961 . S
H1212 C1226 0.960 . S
H1213 C1226 0.961 . S
H1214 C1226 0.959 . S
H1215 C1229 0.929 . S
H1216 C1230 0.931 . S
H1217 C1232 0.930 . S
C1218 H1206 0.930 . S
C1218 C1219 1.399 . S
C1218 C1223 1.399 . S
C1219 C1218 1.399 . S
C1219 C1220 1.376 . S
C1220 H1207 0.930 . S
C1220 C1219 1.376 . S
C1220 C1221 1.388 . S
C1221 H1208 0.930 . S
C1221 C1220 1.388 . S
C1221 C1222 1.390 . S
C1222 C1221 1.390 . S
C1222 C1223 1.394 . S
C1222 C1228 1.465 . S
C1223 C1218 1.399 . S
C1223 C1222 1.394 . S
C1223 C1224 1.516 . S
C1224 C1223 1.516 . S
C1224 C1225 1.502 . S
C1224 C1226 1.561 . S
C1224 C1227 1.526 . S
C1225 H1209 0.959 . S
C1225 H1210 0.959 . S
C1225 H1211 0.961 . S
C1225 C1224 1.502 . S
C1226 H1212 0.960 . S
C1226 H1213 0.961 . S
C1226 H1214 0.959 . S
C1226 C1224 1.561 . S
C1227 C1224 1.526 . S
C1227 C1228 1.396 . S
C1227 C1232 1.390 . S
C1228 C1222 1.465 . S
C1228 C1227 1.396 . S
C1228 C1229 1.399 . S
C1229 H1215 0.929 . S
C1229 C1228 1.399 . S
C1229 C1230 1.385 . S
C1230 H1216 0.931 . S
C1230 C1229 1.385 . S
C1230 C1231 1.389 . S
C1231 C1230 1.389 . S
C1231 C1232 1.387 . S
C1232 H1217 0.930 . S
C1232 C1227 1.390 . S
C1232 C1231 1.387 . S
H1233 C1245 0.930 . S
H1234 C1247 0.930 . S
H1235 C1248 0.930 . S
H1236 C1252 0.959 . S
H1237 C1252 0.959 . S
H1238 C1252 0.961 . S
H1239 C1253 0.960 . S
H1240 C1253 0.961 . S
H1241 C1253 0.959 . S
H1242 C1256 0.929 . S
H1243 C1257 0.931 . S
H1244 C1259 0.930 . S
C1245 H1233 0.930 . S
C1245 C1246 1.399 . S
C1245 C1250 1.399 . S
C1246 C1245 1.399 . S
C1246 C1247 1.376 . S
C1247 H1234 0.930 . S
C1247 C1246 1.376 . S
C1247 C1248 1.388 . S
C1248 H1235 0.930 . S
C1248 C1247 1.388 . S
C1248 C1249 1.390 . S
C1249 C1248 1.390 . S
C1249 C1250 1.394 . S
C1249 C1255 1.465 . S
C1250 C1245 1.399 . S
C1250 C1249 1.394 . S
C1250 C1251 1.516 . S
C1251 C1250 1.516 . S
C1251 C1252 1.502 . S
C1251 C1253 1.561 . S
C1251 C1254 1.526 . S
C1252 H1236 0.959 . S
C1252 H1237 0.959 . S
C1252 H1238 0.961 . S
C1252 C1251 1.502 . S
C1253 H1239 0.960 . S
C1253 H1240 0.961 . S
C1253 H1241 0.959 . S
C1253 C1251 1.561 . S
C1254 C1251 1.526 . S
C1254 C1255 1.396 . S
C1254 C1259 1.390 . S
C1255 C1249 1.465 . S
C1255 C1254 1.396 . S
C1255 C1256 1.399 . S
C1256 H1242 0.929 . S
C1256 C1255 1.399 . S
C1256 C1257 1.385 . S
C1257 H1243 0.931 . S
C1257 C1256 1.385 . S
C1257 C1258 1.389 . S
C1258 C1257 1.389 . S
C1258 C1259 1.387 . S
C1259 H1244 0.930 . S
C1259 C1254 1.390 . S
C1259 C1258 1.387 . S
H1260 C1272 0.930 . S
H1261 C1274 0.930 . S
H1262 C1275 0.930 . S
H1263 C1279 0.959 . S
H1264 C1279 0.959 . S
H1265 C1279 0.961 . S
H1266 C1280 0.960 . S
H1267 C1280 0.961 . S
H1268 C1280 0.959 . S
H1269 C1283 0.929 . S
H1270 C1284 0.931 . S
H1271 C1286 0.930 . S
C1272 H1260 0.930 . S
C1272 C1273 1.399 . S
C1272 C1277 1.399 . S
C1273 C1272 1.399 . S
C1273 C1274 1.376 . S
C1274 H1261 0.930 . S
C1274 C1273 1.376 . S
C1274 C1275 1.388 . S
C1275 H1262 0.930 . S
C1275 C1274 1.388 . S
C1275 C1276 1.390 . S
C1276 C1275 1.390 . S
C1276 C1277 1.394 . S
C1276 C1282 1.465 1_655 S
C1277 C1272 1.399 . S
C1277 C1276 1.394 . S
C1277 C1278 1.508 1_655 S
C1278 C1277 1.508 1_455 S
C1278 C1279 1.491 1_455 S
C1278 C1280 1.573 . S
C1278 C1281 1.535 . S
C1279 H1263 0.959 . S
C1279 H1264 0.959 . S
C1279 H1265 0.961 . S
C1279 C1278 1.491 1_655 S
C1280 H1266 0.960 . S
C1280 H1267 0.961 . S
C1280 H1268 0.959 . S
C1280 C1278 1.573 . S
C1281 C1278 1.535 . S
C1281 C1282 1.396 . S
C1281 C1286 1.390 . S
C1282 C1276 1.465 1_455 S
C1282 C1281 1.396 . S
C1282 C1283 1.399 . S
C1283 H1269 0.929 . S
C1283 C1282 1.399 . S
C1283 C1284 1.385 . S
C1284 H1270 0.931 . S
C1284 C1283 1.385 . S
C1284 C1285 1.389 . S
C1285 C1284 1.389 . S
C1285 C1286 1.387 . S
C1286 H1271 0.930 . S
C1286 C1281 1.390 . S
C1286 C1285 1.387 . S
H1287 C1299 0.930 . S
H1288 C1301 0.930 . S
H1289 C1302 0.930 . S
H1290 C1306 0.959 . S
H1291 C1306 0.959 . S
H1292 C1306 0.961 . S
H1293 C1307 0.960 . S
H1294 C1307 0.961 . S
H1295 C1307 0.959 . S
H1296 C1310 0.929 . S
H1297 C1311 0.931 . S
H1298 C1313 0.930 . S
C1299 H1287 0.930 . S
C1299 C1300 1.399 . S
C1299 C1304 1.399 . S
C1300 C1299 1.399 . S
C1300 C1301 1.376 . S
C1301 H1288 0.930 . S
C1301 C1300 1.376 . S
C1301 C1302 1.388 . S
C1302 H1289 0.930 . S
C1302 C1301 1.388 . S
C1302 C1303 1.390 . S
C1303 C1302 1.390 . S
C1303 C1304 1.394 . S
C1303 C1309 1.465 . S
C1304 C1299 1.399 . S
C1304 C1303 1.394 . S
C1304 C1305 1.516 . S
C1305 C1304 1.516 . S
C1305 C1306 1.502 . S
C1305 C1307 1.561 . S
C1305 C1308 1.526 . S
C1306 H1290 0.959 . S
C1306 H1291 0.959 . S
C1306 H1292 0.961 . S
C1306 C1305 1.502 . S
C1307 H1293 0.960 . S
C1307 H1294 0.961 . S
C1307 H1295 0.959 . S
C1307 C1305 1.561 . S
C1308 C1305 1.526 . S
C1308 C1309 1.396 . S
C1308 C1313 1.390 . S
C1309 C1303 1.465 . S
C1309 C1308 1.396 . S
C1309 C1310 1.399 . S
C1310 H1296 0.929 . S
C1310 C1309 1.399 . S
C1310 C1311 1.385 . S
C1311 H1297 0.931 . S
C1311 C1310 1.385 . S
C1311 C1312 1.389 . S
C1312 C1311 1.389 . S
C1312 C1313 1.387 . S
C1313 H1298 0.930 . S
C1313 C1308 1.390 . S
C1313 C1312 1.387 . S
H1314 C1326 0.930 . S
H1315 C1328 0.930 . S
H1316 C1329 0.930 . S
H1317 C1333 0.959 . S
H1318 C1333 0.959 . S
H1319 C1333 0.961 . S
H1320 C1334 0.960 . S
H1321 C1334 0.961 . S
H1322 C1334 0.959 . S
H1323 C1337 0.929 . S
H1324 C1338 0.931 . S
H1325 C1340 0.930 . S
C1326 H1314 0.930 . S
C1326 C1327 1.399 . S
C1326 C1331 1.399 . S
C1327 C1326 1.399 . S
C1327 C1328 1.376 . S
C1328 H1315 0.930 . S
C1328 C1327 1.376 . S
C1328 C1329 1.388 . S
C1329 H1316 0.930 . S
C1329 C1328 1.388 . S
C1329 C1330 1.390 . S
C1330 C1329 1.390 . S
C1330 C1331 1.394 . S
C1330 C1336 1.465 1_556 S
C1331 C1326 1.399 . S
C1331 C1330 1.394 . S
C1331 C1332 1.490 1_556 S
C1332 C1331 1.490 1_554 S
C1332 C1333 1.450 1_554 S
C1332 C1334 1.624 . S
C1332 C1335 1.554 . S
C1333 H1317 0.959 . S
C1333 H1318 0.959 . S
C1333 H1319 0.961 . S
C1333 C1332 1.450 1_556 S
C1334 H1320 0.960 . S
C1334 H1321 0.961 . S
C1334 H1322 0.959 . S
C1334 C1332 1.624 . S
C1335 C1332 1.554 . S
C1335 C1336 1.396 . S
C1335 C1340 1.390 . S
C1336 C1330 1.465 1_554 S
C1336 C1335 1.396 . S
C1336 C1337 1.399 . S
C1337 H1323 0.929 . S
C1337 C1336 1.399 . S
C1337 C1338 1.385 . S
C1338 H1324 0.931 . S
C1338 C1337 1.385 . S
C1338 C1339 1.389 . S
C1339 C1338 1.389 . S
C1339 C1340 1.387 . S
C1340 H1325 0.930 . S
C1340 C1335 1.390 . S
C1340 C1339 1.387 . S
H1341 C1353 0.930 . S
H1342 C1355 0.930 . S
H1343 C1356 0.930 . S
H1344 C1360 0.959 . S
H1345 C1360 0.959 . S
H1346 C1360 0.961 . S
H1347 C1361 0.960 . S
H1348 C1361 0.961 . S
H1349 C1361 0.959 . S
H1350 C1364 0.929 . S
H1351 C1365 0.931 . S
H1352 C1367 0.930 . S
C1353 H1341 0.930 . S
C1353 C1354 1.399 . S
C1353 C1358 1.399 . S
C1354 C1353 1.399 . S
C1354 C1355 1.376 . S
C1355 H1342 0.930 . S
C1355 C1354 1.376 . S
C1355 C1356 1.388 . S
C1356 H1343 0.930 . S
C1356 C1355 1.388 . S
C1356 C1357 1.390 . S
C1357 C1356 1.390 . S
C1357 C1358 1.394 . S
C1357 C1363 1.465 . S
C1358 C1353 1.399 . S
C1358 C1357 1.394 . S
C1358 C1359 1.516 . S
C1359 C1358 1.516 . S
C1359 C1360 1.502 . S
C1359 C1361 1.561 . S
C1359 C1362 1.526 . S
C1360 H1344 0.959 . S
C1360 H1345 0.959 . S
C1360 H1346 0.961 . S
C1360 C1359 1.502 . S
C1361 H1347 0.960 . S
C1361 H1348 0.961 . S
C1361 H1349 0.959 . S
C1361 C1359 1.561 . S
C1362 C1359 1.526 . S
C1362 C1363 1.396 . S
C1362 C1367 1.390 . S
C1363 C1357 1.465 . S
C1363 C1362 1.396 . S
C1363 C1364 1.399 . S
C1364 H1350 0.929 . S
C1364 C1363 1.399 . S
C1364 C1365 1.385 . S
C1365 H1351 0.931 . S
C1365 C1364 1.385 . S
C1365 C1366 1.389 . S
C1366 C1365 1.389 . S
C1366 C1367 1.387 . S
C1367 H1352 0.930 . S
C1367 C1362 1.390 . S
C1367 C1366 1.387 . S
H1368 C1380 0.930 . S
H1369 C1382 0.930 . S
H1370 C1383 0.930 . S
H1371 C1387 0.959 . S
H1372 C1387 0.959 . S
H1373 C1387 0.961 . S
H1374 C1388 0.960 . S
H1375 C1388 0.961 . S
H1376 C1388 0.959 . S
H1377 C1391 0.929 . S
H1378 C1392 0.931 . S
H1379 C1394 0.930 . S
C1380 H1368 0.930 . S
C1380 C1381 1.399 . S
C1380 C1385 1.399 . S
C1381 C1380 1.399 . S
C1381 C1382 1.376 . S
C1382 H1369 0.930 . S
C1382 C1381 1.376 . S
C1382 C1383 1.388 . S
C1383 H1370 0.930 . S
C1383 C1382 1.388 . S
C1383 C1384 1.390 . S
C1384 C1383 1.390 . S
C1384 C1385 1.394 . S
C1384 C1390 1.465 . S
C1385 C1380 1.399 . S
C1385 C1384 1.394 . S
C1385 C1386 1.516 . S
C1386 C1385 1.516 . S
C1386 C1387 1.502 . S
C1386 C1388 1.561 . S
C1386 C1389 1.526 . S
C1387 H1371 0.959 . S
C1387 H1372 0.959 . S
C1387 H1373 0.961 . S
C1387 C1386 1.502 . S
C1388 H1374 0.960 . S
C1388 H1375 0.961 . S
C1388 H1376 0.959 . S
C1388 C1386 1.561 . S
C1389 C1386 1.526 . S
C1389 C1390 1.396 . S
C1389 C1394 1.390 . S
C1390 C1384 1.465 . S
C1390 C1389 1.396 . S
C1390 C1391 1.399 . S
C1391 H1377 0.929 . S
C1391 C1390 1.399 . S
C1391 C1392 1.385 . S
C1392 H1378 0.931 . S
C1392 C1391 1.385 . S
C1392 C1393 1.389 . S
C1393 C1392 1.389 . S
C1393 C1394 1.387 . S
C1394 H1379 0.930 . S
C1394 C1389 1.390 . S
C1394 C1393 1.387 . S
H1395 C1407 0.930 . S
H1396 C1409 0.930 . S
H1397 C1410 0.930 . S
H1398 C1414 0.959 . S
H1399 C1414 0.959 . S
H1400 C1414 0.961 . S
H1401 C1415 0.960 . S
H1402 C1415 0.961 . S
H1403 C1415 0.959 . S
H1404 C1418 0.929 . S
H1405 C1419 0.931 . S
H1406 C1421 0.930 . S
C1407 H1395 0.930 . S
C1407 C1408 1.399 . S
C1407 C1412 1.399 . S
C1408 C1407 1.399 . S
C1408 C1409 1.376 . S
C1409 H1396 0.930 . S
C1409 C1408 1.376 . S
C1409 C1410 1.388 . S
C1410 H1397 0.930 . S
C1410 C1409 1.388 . S
C1410 C1411 1.390 . S
C1411 C1410 1.390 . S
C1411 C1412 1.394 . S
C1411 C1417 1.465 . S
C1412 C1407 1.399 . S
C1412 C1411 1.394 . S
C1412 C1413 1.516 . S
C1413 C1412 1.516 . S
C1413 C1414 1.502 . S
C1413 C1415 1.561 . S
C1413 C1416 1.526 . S
C1414 H1398 0.959 . S
C1414 H1399 0.959 . S
C1414 H1400 0.961 . S
C1414 C1413 1.502 . S
C1415 H1401 0.960 . S
C1415 H1402 0.961 . S
C1415 H1403 0.959 . S
C1415 C1413 1.561 . S
C1416 C1413 1.526 . S
C1416 C1417 1.396 . S
C1416 C1421 1.390 . S
C1417 C1411 1.465 . S
C1417 C1416 1.396 . S
C1417 C1418 1.399 . S
C1418 H1404 0.929 . S
C1418 C1417 1.399 . S
C1418 C1419 1.385 . S
C1419 H1405 0.931 . S
C1419 C1418 1.385 . S
C1419 C1420 1.389 . S
C1420 C1419 1.389 . S
C1420 C1421 1.387 . S
C1421 H1406 0.930 . S
C1421 C1416 1.390 . S
C1421 C1420 1.387 . S
H1422 C1434 0.930 . S
H1423 C1436 0.930 . S
H1424 C1437 0.930 . S
H1425 C1441 0.959 . S
H1426 C1441 0.959 . S
H1427 C1441 0.961 . S
H1428 C1442 0.960 . S
H1429 C1442 0.961 . S
H1430 C1442 0.959 . S
H1431 C1445 0.929 . S
H1432 C1446 0.931 . S
H1433 C1448 0.930 . S
C1434 H1422 0.930 . S
C1434 C1435 1.399 . S
C1434 C1439 1.399 . S
C1435 C1434 1.399 . S
C1435 C1436 1.376 . S
C1436 H1423 0.930 . S
C1436 C1435 1.376 . S
C1436 C1437 1.388 . S
C1437 H1424 0.930 . S
C1437 C1436 1.388 . S
C1437 C1438 1.390 . S
C1438 C1437 1.390 . S
C1438 C1439 1.394 . S
C1438 C1444 1.465 . S
C1439 C1434 1.399 . S
C1439 C1438 1.394 . S
C1439 C1440 1.516 . S
C1440 C1439 1.516 . S
C1440 C1441 1.502 . S
C1440 C1442 1.561 . S
C1440 C1443 1.526 . S
C1441 H1425 0.959 . S
C1441 H1426 0.959 . S
C1441 H1427 0.961 . S
C1441 C1440 1.502 . S
C1442 H1428 0.960 . S
C1442 H1429 0.961 . S
C1442 H1430 0.959 . S
C1442 C1440 1.561 . S
C1443 C1440 1.526 . S
C1443 C1444 1.396 . S
C1443 C1448 1.390 . S
C1444 C1438 1.465 . S
C1444 C1443 1.396 . S
C1444 C1445 1.399 . S
C1445 H1431 0.929 . S
C1445 C1444 1.399 . S
C1445 C1446 1.385 . S
C1446 H1432 0.931 . S
C1446 C1445 1.385 . S
C1446 C1447 1.389 . S
C1447 C1446 1.389 . S
C1447 C1448 1.387 . S
C1448 H1433 0.930 . S
C1448 C1443 1.390 . S
C1448 C1447 1.387 . S
H1449 C1461 0.930 . S
H1450 C1463 0.930 . S
H1451 C1464 0.930 . S
H1452 C1468 0.959 . S
H1453 C1468 0.959 . S
H1454 C1468 0.961 . S
H1455 C1469 0.960 . S
H1456 C1469 0.961 . S
H1457 C1469 0.959 . S
H1458 C1472 0.929 . S
H1459 C1473 0.931 . S
H1460 C1475 0.930 . S
C1461 H1449 0.930 . S
C1461 C1462 1.399 . S
C1461 C1466 1.399 . S
C1462 C1461 1.399 . S
C1462 C1463 1.376 . S
C1463 H1450 0.930 . S
C1463 C1462 1.376 . S
C1463 C1464 1.388 . S
C1464 H1451 0.930 . S
C1464 C1463 1.388 . S
C1464 C1465 1.390 . S
C1465 C1464 1.390 . S
C1465 C1466 1.394 . S
C1465 C1471 1.465 . S
C1466 C1461 1.399 . S
C1466 C1465 1.394 . S
C1466 C1467 1.516 . S
C1467 C1466 1.516 . S
C1467 C1468 1.502 . S
C1467 C1469 1.561 . S
C1467 C1470 1.526 . S
C1468 H1452 0.959 . S
C1468 H1453 0.959 . S
C1468 H1454 0.961 . S
C1468 C1467 1.502 . S
C1469 H1455 0.960 . S
C1469 H1456 0.961 . S
C1469 H1457 0.959 . S
C1469 C1467 1.561 . S
C1470 C1467 1.526 . S
C1470 C1471 1.396 . S
C1470 C1475 1.390 . S
C1471 C1465 1.465 . S
C1471 C1470 1.396 . S
C1471 C1472 1.399 . S
C1472 H1458 0.929 . S
C1472 C1471 1.399 . S
C1472 C1473 1.385 . S
C1473 H1459 0.931 . S
C1473 C1472 1.385 . S
C1473 C1474 1.389 . S
C1474 C1473 1.389 . S
C1474 C1475 1.387 . S
C1475 H1460 0.930 . S
C1475 C1470 1.390 . S
C1475 C1474 1.387 . S
H1476 C1488 0.930 . S
H1477 C1490 0.930 . S
H1478 C1491 0.930 . S
H1479 C1495 0.959 1_565 S
H1480 C1495 0.959 . S
H1481 C1495 0.961 1_565 S
H1482 C1496 0.960 . S
H1483 C1496 0.961 . S
H1484 C1496 0.959 . S
H1485 C1499 0.929 . S
H1486 C1500 0.931 . S
H1487 C1502 0.930 . S
C1488 H1476 0.930 . S
C1488 C1489 1.399 . S
C1488 C1493 1.399 . S
C1489 C1488 1.399 . S
C1489 C1490 1.376 . S
C1490 H1477 0.930 . S
C1490 C1489 1.376 . S
C1490 C1491 1.388 . S
C1491 H1478 0.930 . S
C1491 C1490 1.388 . S
C1491 C1492 1.390 . S
C1492 C1491 1.390 . S
C1492 C1493 1.394 . S
C1492 C1498 1.465 1_565 S
C1493 C1488 1.399 . S
C1493 C1492 1.394 . S
C1493 C1494 1.516 1_565 S
C1494 C1493 1.516 1_545 S
C1494 C1495 1.502 . S
C1494 C1496 1.561 . S
C1494 C1497 1.526 . S
C1495 H1479 0.959 1_545 S
C1495 H1480 0.959 . S
C1495 H1481 0.961 1_545 S
C1495 C1494 1.502 . S
C1496 H1482 0.960 . S
C1496 H1483 0.961 . S
C1496 H1484 0.959 . S
C1496 C1494 1.561 . S
C1497 C1494 1.526 . S
C1497 C1498 1.396 . S
C1497 C1502 1.390 . S
C1498 C1492 1.465 1_545 S
C1498 C1497 1.396 . S
C1498 C1499 1.399 . S
C1499 H1485 0.929 . S
C1499 C1498 1.399 . S
C1499 C1500 1.385 . S
C1500 H1486 0.931 . S
C1500 C1499 1.385 . S
C1500 C1501 1.389 . S
C1501 C1500 1.389 . S
C1501 C1502 1.387 . S
C1502 H1487 0.930 . S
C1502 C1497 1.390 . S
C1502 C1501 1.387 . S
H1503 C1515 0.930 1_554 S
H1504 C1517 0.930 . S
H1505 C1518 0.930 1_655 S
H1506 C1522 0.990 . S
H1507 C1522 0.959 . S
H1508 C1522 0.961 . S
H1509 C1523 0.960 . S
H1510 C1523 0.961 . S
H1511 C1523 0.959 . S
H1512 C1526 0.929 . S
H1513 C1527 0.911 1_556 S
H1514 C1529 0.930 . S
C1515 H1503 0.930 1_556 S
C1515 C1516 1.399 . S
C1515 C1520 1.397 . S
C1516 C1515 1.399 . S
C1516 C1517 1.376 . S
C1517 H1504 0.930 . S
C1517 C1516 1.376 . S
C1517 C1518 1.388 . S
C1518 H1505 0.930 1_455 S
C1518 C1517 1.388 . S
C1518 C1519 1.390 . S
C1519 C1518 1.390 . S
C1519 C1520 1.389 . S
C1519 C1525 1.465 1_465 S
C1520 C1515 1.397 . S
C1520 C1519 1.389 . S
C1520 C1521 1.524 1_566 S
C1521 C1520 1.524 1_544 S
C1521 C1522 1.504 1_545 S
C1521 C1523 1.559 . S
C1521 C1524 1.524 1_455 S
C1522 H1506 0.990 . S
C1522 H1507 0.959 . S
C1522 H1508 0.961 . S
C1522 C1521 1.504 1_565 S
C1523 H1509 0.960 . S
C1523 H1510 0.961 . S
C1523 H1511 0.959 . S
C1523 C1521 1.559 . S
C1524 C1521 1.524 1_655 S
C1524 C1525 1.396 1_554 S
C1524 C1529 1.390 . S
C1525 C1519 1.465 1_645 S
C1525 C1524 1.396 1_556 S
C1525 C1526 1.399 . S
C1526 H1512 0.929 . S
C1526 C1525 1.399 . S
C1526 C1527 1.347 1_556 S
C1527 H1513 0.911 1_554 S
C1527 C1526 1.347 1_554 S
C1527 C1528 1.450 . S
C1528 C1527 1.450 . S
C1528 C1529 1.387 . S
C1529 H1514 0.930 . S
C1529 C1524 1.390 . S
C1529 C1528 1.387 . S
H1530 C1542 0.930 . S
H1531 C1544 0.930 . S
H1532 C1545 0.930 . S
H1533 C1549 0.959 . S
H1534 C1549 0.959 . S
H1535 C1549 0.961 . S
H1536 C1550 0.960 . S
H1537 C1550 0.961 . S
H1538 C1550 0.959 1_556 S
H1539 C1553 0.929 . S
H1540 C1554 0.931 . S
H1541 C1556 0.930 . S
C1542 H1530 0.930 . S
C1542 C1543 1.399 . S
C1542 C1547 1.399 . S
C1543 C1542 1.399 . S
C1543 C1544 1.376 . S
C1544 H1531 0.930 . S
C1544 C1543 1.376 . S
C1544 C1545 1.388 1_545 S
C1545 H1532 0.930 . S
C1545 C1544 1.388 1_565 S
C1545 C1546 1.390 1_565 S
C1546 C1545 1.390 1_545 S
C1546 C1547 1.396 . S
C1546 C1552 1.463 1_545 S
C1547 C1542 1.399 . S
C1547 C1546 1.396 . S
C1547 C1548 1.516 1_556 S
C1548 C1547 1.516 1_554 S
C1548 C1549 1.502 . S
C1548 C1550 1.561 . S
C1548 C1551 1.526 1_545 S
C1549 H1533 0.959 . S
C1549 H1534 0.959 . S
C1549 H1535 0.961 . S
C1549 C1548 1.502 . S
C1550 H1536 0.960 . S
C1550 H1537 0.961 . S
C1550 H1538 0.959 1_554 S
C1550 C1548 1.561 . S
C1551 C1548 1.526 1_565 S
C1551 C1552 1.396 1_554 S
C1551 C1556 1.390 . S
C1552 C1546 1.463 1_565 S
C1552 C1551 1.396 1_556 S
C1552 C1553 1.399 . S
C1553 H1539 0.929 . S
C1553 C1552 1.399 . S
C1553 C1554 1.385 1_556 S
C1554 H1540 0.931 . S
C1554 C1553 1.385 1_554 S
C1554 C1555 1.389 . S
C1555 C1554 1.389 . S
C1555 C1556 1.387 . S
C1556 H1541 0.930 . S
C1556 C1551 1.390 . S
C1556 C1555 1.387 . S
H1557 C1569 0.930 . S
H1558 C1571 0.930 . S
H1559 C1572 0.930 . S
H1560 C1576 0.959 . S
H1561 C1576 0.959 . S
H1562 C1576 0.961 . S
H1563 C1577 0.960 . S
H1564 C1577 0.961 . S
H1565 C1577 0.959 . S
H1566 C1580 0.929 . S
H1567 C1581 0.931 . S
H1568 C1583 0.930 . S
C1569 H1557 0.930 . S
C1569 C1570 1.399 . S
C1569 C1574 1.399 . S
C1570 C1569 1.399 . S
C1570 C1571 1.376 . S
C1571 H1558 0.930 . S
C1571 C1570 1.376 . S
C1571 C1572 1.388 1_545 S
C1572 H1559 0.930 . S
C1572 C1571 1.388 1_565 S
C1572 C1573 1.393 . S
C1573 C1572 1.393 . S
C1573 C1574 1.366 1_565 S
C1573 C1579 1.486 1_455 S
C1574 C1569 1.399 . S
C1574 C1573 1.366 1_545 S
C1574 C1575 1.516 1_455 S
C1575 C1574 1.516 1_655 S
C1575 C1576 1.502 . S
C1575 C1577 1.561 1_655 S
C1575 C1578 1.526 1_545 S
C1576 H1560 0.959 . S
C1576 H1561 0.959 . S
C1576 H1562 0.961 . S
C1576 C1575 1.502 . S
C1577 H1563 0.960 . S
C1577 H1564 0.961 . S
C1577 H1565 0.959 . S
C1577 C1575 1.561 1_455 S
C1578 C1575 1.526 1_565 S
C1578 C1579 1.396 . S
C1578 C1583 1.390 . S
C1579 C1573 1.486 1_655 S
C1579 C1578 1.396 . S
C1579 C1580 1.399 . S
C1580 H1566 0.929 . S
C1580 C1579 1.399 . S
C1580 C1581 1.385 . S
C1581 H1567 0.931 . S
C1581 C1580 1.385 . S
C1581 C1582 1.389 . S
C1582 C1581 1.389 . S
C1582 C1583 1.387 . S
C1583 H1568 0.930 . S
C1583 C1578 1.390 . S
C1583 C1582 1.387 . S
H1584 C1596 0.930 . S
H1585 C1598 0.930 . S
H1586 C1599 0.930 . S
H1587 C1603 0.959 . S
H1588 C1603 0.959 . S
H1589 C1603 0.961 . S
H1590 C1604 0.960 . S
H1591 C1604 0.961 1_455 S
H1592 C1604 0.959 . S
H1593 C1607 0.929 1_655 S
H1594 C1608 0.931 . S
H1595 C1610 0.930 . S
C1596 H1584 0.930 . S
C1596 C1597 1.399 . S
C1596 C1601 1.399 . S
C1597 C1596 1.399 . S
C1597 C1598 1.376 . S
C1598 H1585 0.930 . S
C1598 C1597 1.376 . S
C1598 C1599 1.388 . S
C1599 H1586 0.930 . S
C1599 C1598 1.388 . S
C1599 C1600 1.390 . S
C1600 C1599 1.390 . S
C1600 C1601 1.394 . S
C1600 C1606 1.465 1_655 S
C1601 C1596 1.399 . S
C1601 C1600 1.394 . S
C1601 C1602 1.516 1_655 S
C1602 C1601 1.516 1_455 S
C1602 C1603 1.502 . S
C1602 C1604 1.561 1_455 S
C1602 C1605 1.526 . S
C1603 H1587 0.959 . S
C1603 H1588 0.959 . S
C1603 H1589 0.961 . S
C1603 C1602 1.502 . S
C1604 H1590 0.960 . S
C1604 H1591 0.961 1_655 S
C1604 H1592 0.959 . S
C1604 C1602 1.561 1_655 S
C1605 C1602 1.526 . S
C1605 C1606 1.396 . S
C1605 C1610 1.390 . S
C1606 C1600 1.465 1_455 S
C1606 C1605 1.396 . S
C1606 C1607 1.399 . S
C1607 H1593 0.929 1_455 S
C1607 C1606 1.399 . S
C1607 C1608 1.385 . S
C1608 H1594 0.931 . S
C1608 C1607 1.385 . S
C1608 C1609 1.389 . S
C1609 C1608 1.389 . S
C1609 C1610 1.387 . S
C1610 H1595 0.930 . S
C1610 C1605 1.390 . S
C1610 C1609 1.387 . S
H1611 C1623 0.930 . S
H1612 C1625 0.930 . S
H1613 C1626 0.930 . S
H1614 C1630 0.959 . S
H1615 C1630 0.959 . S
H1616 C1630 0.961 . S
H1617 C1631 0.960 . S
H1618 C1631 0.961 1_655 S
H1619 C1631 0.959 1_655 S
H1620 C1634 0.929 . S
H1621 C1635 0.931 . S
H1622 C1637 0.930 . S
C1623 H1611 0.930 . S
C1623 C1624 1.399 . S
C1623 C1628 1.399 . S
C1624 C1623 1.399 . S
C1624 C1625 1.376 . S
C1625 H1612 0.930 . S
C1625 C1624 1.376 . S
C1625 C1626 1.388 . S
C1626 H1613 0.930 . S
C1626 C1625 1.388 . S
C1626 C1627 1.390 . S
C1627 C1626 1.390 . S
C1627 C1628 1.394 . S
C1627 C1633 1.465 1_455 S
C1628 C1623 1.399 . S
C1628 C1627 1.394 . S
C1628 C1629 1.516 . S
C1629 C1628 1.516 . S
C1629 C1630 1.502 . S
C1629 C1631 1.561 . S
C1629 C1632 1.526 1_455 S
C1630 H1614 0.959 . S
C1630 H1615 0.959 . S
C1630 H1616 0.961 . S
C1630 C1629 1.502 . S
C1631 H1617 0.960 . S
C1631 H1618 0.961 1_455 S
C1631 H1619 0.959 1_455 S
C1631 C1629 1.561 . S
C1632 C1629 1.526 1_655 S
C1632 C1633 1.396 . S
C1632 C1637 1.390 . S
C1633 C1627 1.465 1_655 S
C1633 C1632 1.396 . S
C1633 C1634 1.399 . S
C1634 H1620 0.929 . S
C1634 C1633 1.399 . S
C1634 C1635 1.385 . S
C1635 H1621 0.931 . S
C1635 C1634 1.385 . S
C1635 C1636 1.389 . S
C1636 C1635 1.389 . S
C1636 C1637 1.387 . S
C1637 H1622 0.930 . S
C1637 C1632 1.390 . S
C1637 C1636 1.387 . S
H1638 C1650 0.930 . S
H1639 C1652 0.930 . S
H1640 C1653 0.930 . S
H1641 C1657 0.959 . S
H1642 C1657 0.959 . S
H1643 C1657 0.961 . S
H1644 C1658 0.960 . S
H1645 C1658 0.961 . S
H1646 C1658 0.959 . S
H1647 C1661 0.929 . S
H1648 C1662 0.931 . S
H1649 C1664 0.930 . S
C1650 H1638 0.930 . S
C1650 C1651 1.399 . S
C1650 C1655 1.399 . S
C1651 C1650 1.399 . S
C1651 C1652 1.376 . S
C1652 H1639 0.930 . S
C1652 C1651 1.376 . S
C1652 C1653 1.388 . S
C1653 H1640 0.930 . S
C1653 C1652 1.388 . S
C1653 C1654 1.390 . S
C1654 C1653 1.390 . S
C1654 C1655 1.394 . S
C1654 C1660 1.465 . S
C1655 C1650 1.399 . S
C1655 C1654 1.394 . S
C1655 C1656 1.516 . S
C1656 C1655 1.516 . S
C1656 C1657 1.502 . S
C1656 C1658 1.561 . S
C1656 C1659 1.526 . S
C1657 H1641 0.959 . S
C1657 H1642 0.959 . S
C1657 H1643 0.961 . S
C1657 C1656 1.502 . S
C1658 H1644 0.960 . S
C1658 H1645 0.961 . S
C1658 H1646 0.959 . S
C1658 C1656 1.561 . S
C1659 C1656 1.526 . S
C1659 C1660 1.396 . S
C1659 C1664 1.390 . S
C1660 C1654 1.465 . S
C1660 C1659 1.396 . S
C1660 C1661 1.399 . S
C1661 H1647 0.929 . S
C1661 C1660 1.399 . S
C1661 C1662 1.385 . S
C1662 H1648 0.931 . S
C1662 C1661 1.385 . S
C1662 C1663 1.389 . S
C1663 C1662 1.389 . S
C1663 C1664 1.387 . S
C1664 H1649 0.930 . S
C1664 C1659 1.390 . S
C1664 C1663 1.387 . S
H1665 C1677 0.930 . S
H1666 C1679 0.930 . S
H1667 C1680 0.930 . S
H1668 C1684 0.959 . S
H1669 C1684 0.959 . S
H1670 C1684 0.961 . S
H1671 C1685 0.960 . S
H1672 C1685 0.961 . S
H1673 C1685 0.959 . S
H1674 C1688 0.929 . S
H1675 C1689 0.931 . S
H1676 C1691 0.930 . S
C1677 H1665 0.930 . S
C1677 C1678 1.399 . S
C1677 C1682 1.399 . S
C1678 C1677 1.399 . S
C1678 C1679 1.376 . S
C1679 H1666 0.930 . S
C1679 C1678 1.376 . S
C1679 C1680 1.388 . S
C1680 H1667 0.930 . S
C1680 C1679 1.388 . S
C1680 C1681 1.390 . S
C1681 C1680 1.390 . S
C1681 C1682 1.394 . S
C1681 C1687 1.465 . S
C1682 C1677 1.399 . S
C1682 C1681 1.394 . S
C1682 C1683 1.516 . S
C1683 C1682 1.516 . S
C1683 C1684 1.502 . S
C1683 C1685 1.561 . S
C1683 C1686 1.526 . S
C1684 H1668 0.959 . S
C1684 H1669 0.959 . S
C1684 H1670 0.961 . S
C1684 C1683 1.502 . S
C1685 H1671 0.960 . S
C1685 H1672 0.961 . S
C1685 H1673 0.959 . S
C1685 C1683 1.561 . S
C1686 C1683 1.526 . S
C1686 C1687 1.396 . S
C1686 C1691 1.390 . S
C1687 C1681 1.465 . S
C1687 C1686 1.396 . S
C1687 C1688 1.399 . S
C1688 H1674 0.929 . S
C1688 C1687 1.399 . S
C1688 C1689 1.385 . S
C1689 H1675 0.931 . S
C1689 C1688 1.385 . S
C1689 C1690 1.389 . S
C1690 C1689 1.389 . S
C1690 C1691 1.387 . S
C1691 H1676 0.930 . S
C1691 C1686 1.390 . S
C1691 C1690 1.387 . S
H1692 C1704 0.930 . S
H1693 C1706 0.930 . S
H1694 C1707 0.930 . S
H1695 C1711 0.959 . S
H1696 C1711 0.959 . S
H1697 C1711 0.961 . S
H1698 C1712 0.960 . S
H1699 C1712 0.961 . S
H1700 C1712 0.959 . S
H1701 C1715 0.929 . S
H1702 C1716 0.931 . S
H1703 C1718 0.930 . S
C1704 H1692 0.930 . S
C1704 C1705 1.399 . S
C1704 C1709 1.399 . S
C1705 C1704 1.399 . S
C1705 C1706 1.376 . S
C1706 H1693 0.930 . S
C1706 C1705 1.376 . S
C1706 C1707 1.388 1_655 S
C1707 H1694 0.930 . S
C1707 C1706 1.388 1_455 S
C1707 C1708 1.390 . S
C1708 C1707 1.390 . S
C1708 C1709 1.394 1_455 S
C1708 C1714 1.465 . S
C1709 C1704 1.399 . S
C1709 C1708 1.394 1_655 S
C1709 C1710 1.516 . S
C1710 C1709 1.516 . S
C1710 C1711 1.502 . S
C1710 C1712 1.561 . S
C1710 C1713 1.526 1_655 S
C1711 H1695 0.959 . S
C1711 H1696 0.959 . S
C1711 H1697 0.961 . S
C1711 C1710 1.502 . S
C1712 H1698 0.960 . S
C1712 H1699 0.961 . S
C1712 H1700 0.959 . S
C1712 C1710 1.561 . S
C1713 C1710 1.526 1_455 S
C1713 C1714 1.396 . S
C1713 C1718 1.390 . S
C1714 C1708 1.465 . S
C1714 C1713 1.396 . S
C1714 C1715 1.399 . S
C1715 H1701 0.929 . S
C1715 C1714 1.399 . S
C1715 C1716 1.385 . S
C1716 H1702 0.931 . S
C1716 C1715 1.385 . S
C1716 C1717 1.389 . S
C1717 C1716 1.389 . S
C1717 C1718 1.387 . S
C1718 H1703 0.930 . S
C1718 C1713 1.390 . S
C1718 C1717 1.387 . S
H1719 C1731 0.930 . S
H1720 C1733 0.930 . S
H1721 C1734 0.930 . S
H1722 C1738 0.959 . S
H1723 C1738 0.959 . S
H1724 C1738 0.961 . S
H1725 C1739 0.960 . S
H1726 C1739 0.961 . S
H1727 C1739 0.959 . S
H1728 C1742 0.929 . S
H1729 C1743 0.931 . S
H1730 C1745 0.930 . S
C1731 H1719 0.930 . S
C1731 C1732 1.399 . S
C1731 C1736 1.399 . S
C1732 C1731 1.399 . S
C1732 C1733 1.376 . S
C1733 H1720 0.930 . S
C1733 C1732 1.376 . S
C1733 C1734 1.388 . S
C1734 H1721 0.930 . S
C1734 C1733 1.388 . S
C1734 C1735 1.390 . S
C1735 C1734 1.390 . S
C1735 C1736 1.394 . S
C1735 C1741 1.465 . S
C1736 C1731 1.399 . S
C1736 C1735 1.394 . S
C1736 C1737 1.516 . S
C1737 C1736 1.516 . S
C1737 C1738 1.502 . S
C1737 C1739 1.561 . S
C1737 C1740 1.526 . S
C1738 H1722 0.959 . S
C1738 H1723 0.959 . S
C1738 H1724 0.961 . S
C1738 C1737 1.502 . S
C1739 H1725 0.960 . S
C1739 H1726 0.961 . S
C1739 H1727 0.959 . S
C1739 C1737 1.561 . S
C1740 C1737 1.526 . S
C1740 C1741 1.396 . S
C1740 C1745 1.390 . S
C1741 C1735 1.465 . S
C1741 C1740 1.396 . S
C1741 C1742 1.399 . S
C1742 H1728 0.929 . S
C1742 C1741 1.399 . S
C1742 C1743 1.385 . S
C1743 H1729 0.931 . S
C1743 C1742 1.385 . S
C1743 C1744 1.389 . S
C1744 C1743 1.389 . S
C1744 C1745 1.387 . S
C1745 H1730 0.930 . S
C1745 C1740 1.390 . S
C1745 C1744 1.387 . S
H1746 C1758 0.930 . S
H1747 C1760 0.930 . S
H1748 C1761 0.930 . S
H1749 C1765 0.959 . S
H1750 C1765 0.959 . S
H1751 C1765 0.961 . S
H1752 C1766 0.960 . S
H1753 C1766 0.961 . S
H1754 C1766 0.959 . S
H1755 C1769 0.929 . S
H1756 C1770 0.931 . S
H1757 C1772 0.930 . S
C1758 H1746 0.930 . S
C1758 C1759 1.399 . S
C1758 C1763 1.399 . S
C1759 C1758 1.399 . S
C1759 C1760 1.376 . S
C1760 H1747 0.930 . S
C1760 C1759 1.376 . S
C1760 C1761 1.388 . S
C1761 H1748 0.930 . S
C1761 C1760 1.388 . S
C1761 C1762 1.390 . S
C1762 C1761 1.390 . S
C1762 C1763 1.394 . S
C1762 C1768 1.465 . S
C1763 C1758 1.399 . S
C1763 C1762 1.394 . S
C1763 C1764 1.516 . S
C1764 C1763 1.516 . S
C1764 C1765 1.502 . S
C1764 C1766 1.561 . S
C1764 C1767 1.526 . S
C1765 H1749 0.959 . S
C1765 H1750 0.959 . S
C1765 H1751 0.961 . S
C1765 C1764 1.502 . S
C1766 H1752 0.960 . S
C1766 H1753 0.961 . S
C1766 H1754 0.959 . S
C1766 C1764 1.561 . S
C1767 C1764 1.526 . S
C1767 C1768 1.396 . S
C1767 C1772 1.390 . S
C1768 C1762 1.465 . S
C1768 C1767 1.396 . S
C1768 C1769 1.399 . S
C1769 H1755 0.929 . S
C1769 C1768 1.399 . S
C1769 C1770 1.385 . S
C1770 H1756 0.931 . S
C1770 C1769 1.385 . S
C1770 C1771 1.389 . S
C1771 C1770 1.389 . S
C1771 C1772 1.387 . S
C1772 H1757 0.930 . S
C1772 C1767 1.390 . S
C1772 C1771 1.387 . S
H1773 C1785 0.930 . S
H1774 C1787 0.930 . S
H1775 C1788 0.930 . S
H1776 C1792 0.959 . S
H1777 C1792 0.959 . S
H1778 C1792 0.961 . S
H1779 C1793 0.960 . S
H1780 C1793 0.961 1_655 S
H1781 C1793 0.959 . S
H1782 C1796 0.929 . S
H1783 C1797 0.931 . S
H1784 C1799 0.930 . S
C1785 H1773 0.930 . S
C1785 C1786 1.399 . S
C1785 C1790 1.399 . S
C1786 C1785 1.399 . S
C1786 C1787 1.376 . S
C1787 H1774 0.930 . S
C1787 C1786 1.376 . S
C1787 C1788 1.388 . S
C1788 H1775 0.930 . S
C1788 C1787 1.388 . S
C1788 C1789 1.390 . S
C1789 C1788 1.390 . S
C1789 C1790 1.394 . S
C1789 C1795 1.465 1_455 S
C1790 C1785 1.399 . S
C1790 C1789 1.394 . S
C1790 C1791 1.516 1_455 S
C1791 C1790 1.516 1_655 S
C1791 C1792 1.502 . S
C1791 C1793 1.561 1_655 S
C1791 C1794 1.526 . S
C1792 H1776 0.959 . S
C1792 H1777 0.959 . S
C1792 H1778 0.961 . S
C1792 C1791 1.502 . S
C1793 H1779 0.960 . S
C1793 H1780 0.961 1_455 S
C1793 H1781 0.959 . S
C1793 C1791 1.561 1_455 S
C1794 C1791 1.526 . S
C1794 C1795 1.396 . S
C1794 C1799 1.390 . S
C1795 C1789 1.465 1_655 S
C1795 C1794 1.396 . S
C1795 C1796 1.399 . S
C1796 H1782 0.929 . S
C1796 C1795 1.399 . S
C1796 C1797 1.385 . S
C1797 H1783 0.931 . S
C1797 C1796 1.385 . S
C1797 C1798 1.389 . S
C1798 C1797 1.389 . S
C1798 C1799 1.387 . S
C1799 H1784 0.930 . S
C1799 C1794 1.390 . S
C1799 C1798 1.387 . S
H1800 C1812 0.930 . S
H1801 C1814 0.930 . S
H1802 C1815 0.925 1_455 S
H1803 C1819 0.959 . S
H1804 C1819 0.959 . S
H1805 C1819 0.961 . S
H1806 C1820 0.960 . S
H1807 C1820 0.961 . S
H1808 C1820 0.959 . S
H1809 C1823 0.929 . S
H1810 C1824 0.931 . S
H1811 C1826 0.930 . S
C1812 H1800 0.930 . S
C1812 C1813 1.399 . S
C1812 C1817 1.399 . S
C1813 C1812 1.399 . S
C1813 C1814 1.376 . S
C1814 H1801 0.930 . S
C1814 C1813 1.376 . S
C1814 C1815 1.388 . S
C1815 H1802 0.925 1_655 S
C1815 C1814 1.388 . S
C1815 C1816 1.390 . S
C1816 C1815 1.390 . S
C1816 C1817 1.394 . S
C1816 C1822 1.465 1_655 S
C1817 C1812 1.399 . S
C1817 C1816 1.394 . S
C1817 C1818 1.516 . S
C1818 C1817 1.516 . S
C1818 C1819 1.502 . S
C1818 C1820 1.561 1_655 S
C1818 C1821 1.526 1_655 S
C1819 H1803 0.959 . S
C1819 H1804 0.959 . S
C1819 H1805 0.961 . S
C1819 C1818 1.502 . S
C1820 H1806 0.960 . S
C1820 H1807 0.961 . S
C1820 H1808 0.959 . S
C1820 C1818 1.561 1_455 S
C1821 C1818 1.526 1_455 S
C1821 C1822 1.396 . S
C1821 C1826 1.390 . S
C1822 C1816 1.465 1_455 S
C1822 C1821 1.396 . S
C1822 C1823 1.399 . S
C1823 H1809 0.929 . S
C1823 C1822 1.399 . S
C1823 C1824 1.385 . S
C1824 H1810 0.931 . S
C1824 C1823 1.385 . S
C1824 C1825 1.389 . S
C1825 C1824 1.389 . S
C1825 C1826 1.387 . S
C1826 H1811 0.930 . S
C1826 C1821 1.390 . S
C1826 C1825 1.387 . S
H1827 C1839 0.930 . S
H1828 C1841 0.930 . S
H1829 C1842 0.930 1_455 S
H1830 C1846 0.959 . S
H1831 C1846 0.959 . S
H1832 C1846 0.961 . S
H1833 C1847 0.960 . S
H1834 C1847 0.972 . S
H1835 C1847 0.959 1_455 S
H1836 C1850 0.929 . S
H1837 C1851 0.931 . S
H1838 C1853 0.930 . S
C1839 H1827 0.930 . S
C1839 C1840 1.399 . S
C1839 C1844 1.399 . S
C1840 C1839 1.399 . S
C1840 C1841 1.376 . S
C1841 H1828 0.930 . S
C1841 C1840 1.376 . S
C1841 C1842 1.388 . S
C1842 H1829 0.930 1_655 S
C1842 C1841 1.388 . S
C1842 C1843 1.390 . S
C1843 C1842 1.390 . S
C1843 C1844 1.394 . S
C1843 C1849 1.465 1_655 S
C1844 C1839 1.399 . S
C1844 C1843 1.394 . S
C1844 C1845 1.516 . S
C1845 C1844 1.516 . S
C1845 C1846 1.502 . S
C1845 C1847 1.561 . S
C1845 C1848 1.526 1_655 S
C1846 H1830 0.959 . S
C1846 H1831 0.959 . S
C1846 H1832 0.961 . S
C1846 C1845 1.502 . S
C1847 H1833 0.960 . S
C1847 H1834 0.972 . S
C1847 H1835 0.959 1_655 S
C1847 C1845 1.561 . S
C1848 C1845 1.526 1_455 S
C1848 C1849 1.396 . S
C1848 C1853 1.390 . S
C1849 C1843 1.465 1_455 S
C1849 C1848 1.396 . S
C1849 C1850 1.399 . S
C1850 H1836 0.929 . S
C1850 C1849 1.399 . S
C1850 C1851 1.385 . S
C1851 H1837 0.931 . S
C1851 C1850 1.385 . S
C1851 C1852 1.389 . S
C1852 C1851 1.389 . S
C1852 C1853 1.387 . S
C1853 H1838 0.930 . S
C1853 C1848 1.390 . S
C1853 C1852 1.387 . S
H1854 C1866 0.930 . S
H1855 C1868 0.930 . S
H1856 C1869 0.930 . S
H1857 C1873 0.959 . S
H1858 C1873 0.959 . S
H1859 C1873 0.961 . S
H1860 C1874 0.960 . S
H1861 C1874 0.961 . S
H1862 C1874 0.959 . S
H1863 C1877 0.929 . S
H1864 C1878 0.931 . S
H1865 C1880 0.930 . S
C1866 H1854 0.930 . S
C1866 C1867 1.399 . S
C1866 C1871 1.399 . S
C1867 C1866 1.399 . S
C1867 C1868 1.376 . S
C1868 H1855 0.930 . S
C1868 C1867 1.376 . S
C1868 C1869 1.388 . S
C1869 H1856 0.930 . S
C1869 C1868 1.388 . S
C1869 C1870 1.390 . S
C1870 C1869 1.390 . S
C1870 C1871 1.394 . S
C1870 C1876 1.465 . S
C1871 C1866 1.399 . S
C1871 C1870 1.394 . S
C1871 C1872 1.516 . S
C1872 C1871 1.516 . S
C1872 C1873 1.502 . S
C1872 C1874 1.561 . S
C1872 C1875 1.526 . S
C1873 H1857 0.959 . S
C1873 H1858 0.959 . S
C1873 H1859 0.961 . S
C1873 C1872 1.502 . S
C1874 H1860 0.960 . S
C1874 H1861 0.961 . S
C1874 H1862 0.959 . S
C1874 C1872 1.561 . S
C1875 C1872 1.526 . S
C1875 C1876 1.396 . S
C1875 C1880 1.390 . S
C1876 C1870 1.465 . S
C1876 C1875 1.396 . S
C1876 C1877 1.399 . S
C1877 H1863 0.929 . S
C1877 C1876 1.399 . S
C1877 C1878 1.385 . S
C1878 H1864 0.931 . S
C1878 C1877 1.385 . S
C1878 C1879 1.389 . S
C1879 C1878 1.389 . S
C1879 C1880 1.387 . S
C1880 H1865 0.930 . S
C1880 C1875 1.390 . S
C1880 C1879 1.387 . S
H1881 C1893 0.930 . S
H1882 C1895 0.930 . S
H1883 C1896 0.930 . S
H1884 C1900 0.959 . S
H1885 C1900 0.959 . S
H1886 C1900 0.961 . S
H1887 C1901 0.960 . S
H1888 C1901 0.961 . S
H1889 C1901 0.959 . S
H1890 C1904 0.929 . S
H1891 C1905 0.931 . S
H1892 C1907 0.930 . S
C1893 H1881 0.930 . S
C1893 C1894 1.399 . S
C1893 C1898 1.399 . S
C1894 C1893 1.399 . S
C1894 C1895 1.376 . S
C1895 H1882 0.930 . S
C1895 C1894 1.376 . S
C1895 C1896 1.388 . S
C1896 H1883 0.930 . S
C1896 C1895 1.388 . S
C1896 C1897 1.390 . S
C1897 C1896 1.390 . S
C1897 C1898 1.394 . S
C1897 C1903 1.465 . S
C1898 C1893 1.399 . S
C1898 C1897 1.394 . S
C1898 C1899 1.516 . S
C1899 C1898 1.516 . S
C1899 C1900 1.502 . S
C1899 C1901 1.561 . S
C1899 C1902 1.526 . S
C1900 H1884 0.959 . S
C1900 H1885 0.959 . S
C1900 H1886 0.961 . S
C1900 C1899 1.502 . S
C1901 H1887 0.960 . S
C1901 H1888 0.961 . S
C1901 H1889 0.959 . S
C1901 C1899 1.561 . S
C1902 C1899 1.526 . S
C1902 C1903 1.396 . S
C1902 C1907 1.390 . S
C1903 C1897 1.465 . S
C1903 C1902 1.396 . S
C1903 C1904 1.399 . S
C1904 H1890 0.929 . S
C1904 C1903 1.399 . S
C1904 C1905 1.385 . S
C1905 H1891 0.931 . S
C1905 C1904 1.385 . S
C1905 C1906 1.389 . S
C1906 C1905 1.389 . S
C1906 C1907 1.387 . S
C1907 H1892 0.930 . S
C1907 C1902 1.390 . S
C1907 C1906 1.387 . S
H1908 C1920 0.930 . S
H1909 C1922 0.930 . S
H1910 C1923 0.930 . S
H1911 C1927 0.959 . S
H1912 C1927 0.959 . S
H1913 C1927 0.961 . S
H1914 C1928 0.960 . S
H1915 C1928 0.961 . S
H1916 C1928 0.959 . S
H1917 C1931 0.929 . S
H1918 C1932 0.931 . S
H1919 C1934 0.930 . S
C1920 H1908 0.930 . S
C1920 C1921 1.399 . S
C1920 C1925 1.399 . S
C1921 C1920 1.399 . S
C1921 C1922 1.376 . S
C1922 H1909 0.930 . S
C1922 C1921 1.376 . S
C1922 C1923 1.388 . S
C1923 H1910 0.930 . S
C1923 C1922 1.388 . S
C1923 C1924 1.390 . S
C1924 C1923 1.390 . S
C1924 C1925 1.394 . S
C1924 C1930 1.465 1_655 S
C1925 C1920 1.399 . S
C1925 C1924 1.394 . S
C1925 C1926 1.516 . S
C1926 C1925 1.516 . S
C1926 C1927 1.502 . S
C1926 C1928 1.561 1_655 S
C1926 C1929 1.526 1_655 S
C1927 H1911 0.959 . S
C1927 H1912 0.959 . S
C1927 H1913 0.961 . S
C1927 C1926 1.502 . S
C1928 H1914 0.960 . S
C1928 H1915 0.961 . S
C1928 H1916 0.959 . S
C1928 C1926 1.561 1_455 S
C1929 C1926 1.526 1_455 S
C1929 C1930 1.396 . S
C1929 C1934 1.390 . S
C1930 C1924 1.465 1_455 S
C1930 C1929 1.396 . S
C1930 C1931 1.399 . S
C1931 H1917 0.929 . S
C1931 C1930 1.399 . S
C1931 C1932 1.385 . S
C1932 H1918 0.931 . S
C1932 C1931 1.385 . S
C1932 C1933 1.389 . S
C1933 C1932 1.389 . S
C1933 C1934 1.387 . S
C1934 H1919 0.930 . S
C1934 C1929 1.390 . S
C1934 C1933 1.387 . S
H1935 C1947 0.930 . S
H1936 C1949 0.930 . S
H1937 C1950 0.930 . S
H1938 C1954 0.959 . S
H1939 C1954 0.959 . S
H1940 C1954 0.961 . S
H1941 C1955 0.960 . S
H1942 C1955 0.961 . S
H1943 C1955 0.959 . S
H1944 C1958 0.929 . S
H1945 C1959 0.931 . S
H1946 C1961 0.930 . S
C1947 H1935 0.930 . S
C1947 C1948 1.399 . S
C1947 C1952 1.399 . S
C1948 C1947 1.399 . S
C1948 C1949 1.376 . S
C1949 H1936 0.930 . S
C1949 C1948 1.376 . S
C1949 C1950 1.388 . S
C1950 H1937 0.930 . S
C1950 C1949 1.388 . S
C1950 C1951 1.390 . S
C1951 C1950 1.390 . S
C1951 C1952 1.394 . S
C1951 C1957 1.465 . S
C1952 C1947 1.399 . S
C1952 C1951 1.394 . S
C1952 C1953 1.516 . S
C1953 C1952 1.516 . S
C1953 C1954 1.502 . S
C1953 C1955 1.561 . S
C1953 C1956 1.526 . S
C1954 H1938 0.959 . S
C1954 H1939 0.959 . S
C1954 H1940 0.961 . S
C1954 C1953 1.502 . S
C1955 H1941 0.960 . S
C1955 H1942 0.961 . S
C1955 H1943 0.959 . S
C1955 C1953 1.561 . S
C1956 C1953 1.526 . S
C1956 C1957 1.396 . S
C1956 C1961 1.390 . S
C1957 C1951 1.465 . S
C1957 C1956 1.396 . S
C1957 C1958 1.399 . S
C1958 H1944 0.929 . S
C1958 C1957 1.399 . S
C1958 C1959 1.385 . S
C1959 H1945 0.931 . S
C1959 C1958 1.385 . S
C1959 C1960 1.389 . S
C1960 C1959 1.389 . S
C1960 C1961 1.387 . S
C1961 H1946 0.930 . S
C1961 C1956 1.390 . S
C1961 C1960 1.387 . S
H1962 C1974 0.930 . S
H1963 C1976 0.930 . S
H1964 C1977 0.930 . S
H1965 C1981 0.959 . S
H1966 C1981 0.959 . S
H1967 C1981 0.961 . S
H1968 C1982 0.960 . S
H1969 C1982 0.961 . S
H1970 C1982 0.959 . S
H1971 C1985 0.929 . S
H1972 C1986 0.931 . S
H1973 C1988 0.930 . S
C1974 H1962 0.930 . S
C1974 C1975 1.399 . S
C1974 C1979 1.399 . S
C1975 C1974 1.399 . S
C1975 C1976 1.376 . S
C1976 H1963 0.930 . S
C1976 C1975 1.376 . S
C1976 C1977 1.388 . S
C1977 H1964 0.930 . S
C1977 C1976 1.388 . S
C1977 C1978 1.390 . S
C1978 C1977 1.390 . S
C1978 C1979 1.394 . S
C1978 C1984 1.465 . S
C1979 C1974 1.399 . S
C1979 C1978 1.394 . S
C1979 C1980 1.516 . S
C1980 C1979 1.516 . S
C1980 C1981 1.502 . S
C1980 C1982 1.561 . S
C1980 C1983 1.526 . S
C1981 H1965 0.959 . S
C1981 H1966 0.959 . S
C1981 H1967 0.961 . S
C1981 C1980 1.502 . S
C1982 H1968 0.960 . S
C1982 H1969 0.961 . S
C1982 H1970 0.959 . S
C1982 C1980 1.561 . S
C1983 C1980 1.526 . S
C1983 C1984 1.396 . S
C1983 C1988 1.390 . S
C1984 C1978 1.465 . S
C1984 C1983 1.396 . S
C1984 C1985 1.399 . S
C1985 H1971 0.929 . S
C1985 C1984 1.399 . S
C1985 C1986 1.385 . S
C1986 H1972 0.931 . S
C1986 C1985 1.385 . S
C1986 C1987 1.389 . S
C1987 C1986 1.389 . S
C1987 C1988 1.387 . S
C1988 H1973 0.930 . S
C1988 C1983 1.390 . S
C1988 C1987 1.387 . S
H1989 C2001 0.930 . S
H1990 C2003 0.930 . S
H1991 C2004 0.930 1_455 S
H1992 C2008 0.959 . S
H1993 C2008 0.959 . S
H1994 C2008 0.961 . S
H1995 C2009 0.960 . S
H1996 C2009 0.961 . S
H1997 C2009 0.959 1_455 S
H1998 C2012 0.929 . S
H1999 C2013 0.931 . S
H2000 C2015 0.930 . S
C2001 H1989 0.930 . S
C2001 C2002 1.399 . S
C2001 C2006 1.399 . S
C2002 C2001 1.399 . S
C2002 C2003 1.376 . S
C2003 H1990 0.930 . S
C2003 C2002 1.376 . S
C2003 C2004 1.388 . S
C2004 H1991 0.930 1_655 S
C2004 C2003 1.388 . S
C2004 C2005 1.390 . S
C2005 C2004 1.390 . S
C2005 C2006 1.394 . S
C2005 C2011 1.465 1_655 S
C2006 C2001 1.399 . S
C2006 C2005 1.394 . S
C2006 C2007 1.516 . S
C2007 C2006 1.516 . S
C2007 C2008 1.502 . S
C2007 C2009 1.561 . S
C2007 C2010 1.526 1_655 S
C2008 H1992 0.959 . S
C2008 H1993 0.959 . S
C2008 H1994 0.961 . S
C2008 C2007 1.502 . S
C2009 H1995 0.960 . S
C2009 H1996 0.961 . S
C2009 H1997 0.959 1_655 S
C2009 C2007 1.561 . S
C2010 C2007 1.526 1_455 S
C2010 C2011 1.396 . S
C2010 C2015 1.390 . S
C2011 C2005 1.465 1_455 S
C2011 C2010 1.396 . S
C2011 C2012 1.399 . S
C2012 H1998 0.929 . S
C2012 C2011 1.399 . S
C2012 C2013 1.385 . S
C2013 H1999 0.931 . S
C2013 C2012 1.385 . S
C2013 C2014 1.389 . S
C2014 C2013 1.389 . S
C2014 C2015 1.387 . S
C2015 H2000 0.930 . S
C2015 C2010 1.390 . S
C2015 C2014 1.387 . S
H2016 C2028 0.930 . S
H2017 C2030 0.930 . S
H2018 C2031 0.930 . S
H2019 C2035 0.959 . S
H2020 C2035 0.959 . S
H2021 C2035 0.961 . S
H2022 C2036 0.960 . S
H2023 C2036 0.961 1_554 S
H2024 C2036 0.959 . S
H2025 C2039 0.930 1_556 S
H2026 C2040 0.931 . S
H2027 C2042 0.930 . S
C2028 H2016 0.930 . S
C2028 C2029 1.399 . S
C2028 C2033 1.399 . S
C2029 C2028 1.399 . S
C2029 C2030 1.376 . S
C2030 H2017 0.930 . S
C2030 C2029 1.376 . S
C2030 C2031 1.388 . S
C2031 H2018 0.930 . S
C2031 C2030 1.388 . S
C2031 C2032 1.390 . S
C2032 C2031 1.390 . S
C2032 C2033 1.394 . S
C2032 C2038 1.469 . S
C2033 C2028 1.399 . S
C2033 C2032 1.394 . S
C2033 C2034 1.516 1_556 S
C2034 C2033 1.516 1_554 S
C2034 C2035 1.502 . S
C2034 C2036 1.561 1_554 S
C2034 C2037 1.526 . S
C2035 H2019 0.959 . S
C2035 H2020 0.959 . S
C2035 H2021 0.961 . S
C2035 C2034 1.502 . S
C2036 H2022 0.960 . S
C2036 H2023 0.961 1_556 S
C2036 H2024 0.959 . S
C2036 C2034 1.561 1_556 S
C2037 C2034 1.526 . S
C2037 C2038 1.392 1_554 S
C2037 C2042 1.390 . S
C2038 C2032 1.469 . S
C2038 C2037 1.392 1_556 S
C2038 C2039 1.399 1_556 S
C2039 H2025 0.930 1_554 S
C2039 C2038 1.399 1_554 S
C2039 C2040 1.384 . S
C2040 H2026 0.931 . S
C2040 C2039 1.384 . S
C2040 C2041 1.389 . S
C2041 C2040 1.389 . S
C2041 C2042 1.387 . S
C2042 H2027 0.930 . S
C2042 C2037 1.390 . S
C2042 C2041 1.387 . S
H2043 C2055 0.930 . S
H2044 C2057 0.930 . S
H2045 C2058 0.930 . S
H2046 C2062 0.959 . S
H2047 C2062 0.959 . S
H2048 C2062 0.961 . S
H2049 C2063 0.960 1_545 S
H2050 C2063 0.961 . S
H2051 C2063 0.959 . S
H2052 C2066 0.929 . S
H2053 C2067 0.931 . S
H2054 C2069 0.930 . S
C2055 H2043 0.930 . S
C2055 C2056 1.399 . S
C2055 C2060 1.399 . S
C2056 C2055 1.399 . S
C2056 C2057 1.376 . S
C2057 H2044 0.930 . S
C2057 C2056 1.376 . S
C2057 C2058 1.388 . S
C2058 H2045 0.930 . S
C2058 C2057 1.388 . S
C2058 C2059 1.390 . S
C2059 C2058 1.390 . S
C2059 C2060 1.394 . S
C2059 C2065 1.465 1_545 S
C2060 C2055 1.399 . S
C2060 C2059 1.394 . S
C2060 C2061 1.516 . S
C2061 C2060 1.516 . S
C2061 C2062 1.502 . S
C2061 C2063 1.561 1_545 S
C2061 C2064 1.526 1_545 S
C2062 H2046 0.959 . S
C2062 H2047 0.959 . S
C2062 H2048 0.961 . S
C2062 C2061 1.502 . S
C2063 H2049 0.960 1_565 S
C2063 H2050 0.961 . S
C2063 H2051 0.959 . S
C2063 C2061 1.561 1_565 S
C2064 C2061 1.526 1_565 S
C2064 C2065 1.396 . S
C2064 C2069 1.390 . S
C2065 C2059 1.465 1_565 S
C2065 C2064 1.396 . S
C2065 C2066 1.399 . S
C2066 H2052 0.929 . S
C2066 C2065 1.399 . S
C2066 C2067 1.385 . S
C2067 H2053 0.931 . S
C2067 C2066 1.385 . S
C2067 C2068 1.389 . S
C2068 C2067 1.389 . S
C2068 C2069 1.387 . S
C2069 H2054 0.930 . S
C2069 C2064 1.390 . S
C2069 C2068 1.387 . S
H2070 C2082 0.930 . S
H2071 C2084 0.930 . S
H2072 C2085 0.930 . S
H2073 C2089 0.959 . S
H2074 C2089 0.959 . S
H2075 C2089 0.961 . S
H2076 C2090 0.960 . S
H2077 C2090 0.961 . S
H2078 C2090 0.959 . S
H2079 C2093 0.929 . S
H2080 C2094 0.931 . S
H2081 C2096 0.930 . S
C2082 H2070 0.930 . S
C2082 C2083 1.399 . S
C2082 C2087 1.399 . S
C2083 C2082 1.399 . S
C2083 C2084 1.376 . S
C2084 H2071 0.930 . S
C2084 C2083 1.376 . S
C2084 C2085 1.388 . S
C2085 H2072 0.930 . S
C2085 C2084 1.388 . S
C2085 C2086 1.390 . S
C2086 C2085 1.390 . S
C2086 C2087 1.394 . S
C2086 C2092 1.465 . S
C2087 C2082 1.399 . S
C2087 C2086 1.394 . S
C2087 C2088 1.516 . S
C2088 C2087 1.516 . S
C2088 C2089 1.502 . S
C2088 C2090 1.561 . S
C2088 C2091 1.526 . S
C2089 H2073 0.959 . S
C2089 H2074 0.959 . S
C2089 H2075 0.961 . S
C2089 C2088 1.502 . S
C2090 H2076 0.960 . S
C2090 H2077 0.961 . S
C2090 H2078 0.959 . S
C2090 C2088 1.561 . S
C2091 C2088 1.526 . S
C2091 C2092 1.396 . S
C2091 C2096 1.390 . S
C2092 C2086 1.465 . S
C2092 C2091 1.396 . S
C2092 C2093 1.399 . S
C2093 H2079 0.929 . S
C2093 C2092 1.399 . S
C2093 C2094 1.385 . S
C2094 H2080 0.931 . S
C2094 C2093 1.385 . S
C2094 C2095 1.389 . S
C2095 C2094 1.389 . S
C2095 C2096 1.387 . S
C2096 H2081 0.930 . S
C2096 C2091 1.390 . S
C2096 C2095 1.387 . S
H2097 C2109 0.930 . S
H2098 C2111 0.930 . S
H2099 C2112 0.930 . S
H2100 C2116 0.959 . S
H2101 C2116 0.959 . S
H2102 C2116 0.961 . S
H2103 C2117 0.960 1_545 S
H2104 C2117 0.961 . S
H2105 C2117 0.966 . S
H2106 C2120 0.929 . S
H2107 C2121 0.931 . S
H2108 C2123 0.930 . S
C2109 H2097 0.930 . S
C2109 C2110 1.399 . S
C2109 C2114 1.399 . S
C2110 C2109 1.399 . S
C2110 C2111 1.376 . S
C2111 H2098 0.930 . S
C2111 C2110 1.376 . S
C2111 C2112 1.388 . S
C2112 H2099 0.930 . S
C2112 C2111 1.388 . S
C2112 C2113 1.390 . S
C2113 C2112 1.390 . S
C2113 C2114 1.394 . S
C2113 C2119 1.465 1_545 S
C2114 C2109 1.399 . S
C2114 C2113 1.394 . S
C2114 C2115 1.516 1_545 S
C2115 C2114 1.516 1_565 S
C2115 C2116 1.502 . S
C2115 C2117 1.561 . S
C2115 C2118 1.526 . S
C2116 H2100 0.959 . S
C2116 H2101 0.959 . S
C2116 H2102 0.961 . S
C2116 C2115 1.502 . S
C2117 H2103 0.960 1_565 S
C2117 H2104 0.961 . S
C2117 H2105 0.966 . S
C2117 C2115 1.561 . S
C2118 C2115 1.526 . S
C2118 C2119 1.396 . S
C2118 C2123 1.390 . S
C2119 C2113 1.465 1_565 S
C2119 C2118 1.396 . S
C2119 C2120 1.399 . S
C2120 H2106 0.929 . S
C2120 C2119 1.399 . S
C2120 C2121 1.385 . S
C2121 H2107 0.931 . S
C2121 C2120 1.385 . S
C2121 C2122 1.389 . S
C2122 C2121 1.389 . S
C2122 C2123 1.387 . S
C2123 H2108 0.930 . S
C2123 C2118 1.390 . S
C2123 C2122 1.387 . S
H2124 C2136 0.930 . S
H2125 C2138 0.930 . S
H2126 C2139 0.930 . S
H2127 C2143 0.959 . S
H2128 C2143 0.959 . S
H2129 C2143 0.961 . S
H2130 C2144 0.960 . S
H2131 C2144 0.961 . S
H2132 C2144 0.959 1_556 S
H2133 C2147 0.929 . S
H2134 C2148 0.931 . S
H2135 C2150 0.930 . S
C2136 H2124 0.930 . S
C2136 C2137 1.399 . S
C2136 C2141 1.399 . S
C2137 C2136 1.399 . S
C2137 C2138 1.376 . S
C2138 H2125 0.930 . S
C2138 C2137 1.376 . S
C2138 C2139 1.388 1_554 S
C2139 H2126 0.930 . S
C2139 C2138 1.388 1_556 S
C2139 C2140 1.390 . S
C2140 C2139 1.390 . S
C2140 C2141 1.394 1_556 S
C2140 C2146 1.465 . S
C2141 C2136 1.399 . S
C2141 C2140 1.394 1_554 S
C2141 C2142 1.516 . S
C2142 C2141 1.516 . S
C2142 C2143 1.502 . S
C2142 C2144 1.561 . S
C2142 C2145 1.526 1_554 S
C2143 H2127 0.959 . S
C2143 H2128 0.959 . S
C2143 H2129 0.961 . S
C2143 C2142 1.502 . S
C2144 H2130 0.960 . S
C2144 H2131 0.961 . S
C2144 H2132 0.959 1_554 S
C2144 C2142 1.561 . S
C2145 C2142 1.526 1_556 S
C2145 C2146 1.396 . S
C2145 C2150 1.390 . S
C2146 C2140 1.465 . S
C2146 C2145 1.396 . S
C2146 C2147 1.399 . S
C2147 H2133 0.929 . S
C2147 C2146 1.399 . S
C2147 C2148 1.385 . S
C2148 H2134 0.931 . S
C2148 C2147 1.385 . S
C2148 C2149 1.389 . S
C2149 C2148 1.389 . S
C2149 C2150 1.387 . S
C2150 H2135 0.930 . S
C2150 C2145 1.390 . S
C2150 C2149 1.387 . S
H2151 C2163 0.930 . S
H2152 C2165 0.930 . S
H2153 C2166 0.930 . S
H2154 C2170 0.959 . S
H2155 C2170 0.959 . S
H2156 C2170 0.961 . S
H2157 C2171 0.960 . S
H2158 C2171 0.961 . S
H2159 C2171 0.959 . S
H2160 C2174 0.929 . S
H2161 C2175 0.931 . S
H2162 C2177 0.930 . S
C2163 H2151 0.930 . S
C2163 C2164 1.399 . S
C2163 C2168 1.399 . S
C2164 C2163 1.399 . S
C2164 C2165 1.376 . S
C2165 H2152 0.930 . S
C2165 C2164 1.376 . S
C2165 C2166 1.388 . S
C2166 H2153 0.930 . S
C2166 C2165 1.388 . S
C2166 C2167 1.390 . S
C2167 C2166 1.390 . S
C2167 C2168 1.394 . S
C2167 C2173 1.465 1_565 S
C2168 C2163 1.399 . S
C2168 C2167 1.394 . S
C2168 C2169 1.516 . S
C2169 C2168 1.516 . S
C2169 C2170 1.502 . S
C2169 C2171 1.561 . S
C2169 C2172 1.526 1_565 S
C2170 H2154 0.959 . S
C2170 H2155 0.959 . S
C2170 H2156 0.961 . S
C2170 C2169 1.502 . S
C2171 H2157 0.960 . S
C2171 H2158 0.961 . S
C2171 H2159 0.959 . S
C2171 C2169 1.561 . S
C2172 C2169 1.526 1_545 S
C2172 C2173 1.396 . S
C2172 C2177 1.390 . S
C2173 C2167 1.465 1_545 S
C2173 C2172 1.396 . S
C2173 C2174 1.399 . S
C2174 H2160 0.929 . S
C2174 C2173 1.399 . S
C2174 C2175 1.385 . S
C2175 H2161 0.931 . S
C2175 C2174 1.385 . S
C2175 C2176 1.389 . S
C2176 C2175 1.389 . S
C2176 C2177 1.387 . S
C2177 H2162 0.930 . S
C2177 C2172 1.390 . S
C2177 C2176 1.387 . S
H2178 C2190 0.930 . S
H2179 C2192 0.930 . S
H2180 C2193 0.930 . S
H2181 C2197 0.959 . S
H2182 C2197 0.959 . S
H2183 C2197 0.961 . S
H2184 C2198 0.960 . S
H2185 C2198 0.961 . S
H2186 C2198 0.959 . S
H2187 C2201 0.929 . S
H2188 C2202 0.931 . S
H2189 C2204 0.930 . S
C2190 H2178 0.930 . S
C2190 C2191 1.399 . S
C2190 C2195 1.399 . S
C2191 C2190 1.399 . S
C2191 C2192 1.376 . S
C2192 H2179 0.930 . S
C2192 C2191 1.376 . S
C2192 C2193 1.388 . S
C2193 H2180 0.930 . S
C2193 C2192 1.388 . S
C2193 C2194 1.390 . S
C2194 C2193 1.390 . S
C2194 C2195 1.394 . S
C2194 C2200 1.465 . S
C2195 C2190 1.399 . S
C2195 C2194 1.394 . S
C2195 C2196 1.516 . S
C2196 C2195 1.516 . S
C2196 C2197 1.502 . S
C2196 C2198 1.561 . S
C2196 C2199 1.526 . S
C2197 H2181 0.959 . S
C2197 H2182 0.959 . S
C2197 H2183 0.961 . S
C2197 C2196 1.502 . S
C2198 H2184 0.960 . S
C2198 H2185 0.961 . S
C2198 H2186 0.959 . S
C2198 C2196 1.561 . S
C2199 C2196 1.526 . S
C2199 C2200 1.396 . S
C2199 C2204 1.390 . S
C2200 C2194 1.465 . S
C2200 C2199 1.396 . S
C2200 C2201 1.399 . S
C2201 H2187 0.929 . S
C2201 C2200 1.399 . S
C2201 C2202 1.385 . S
C2202 H2188 0.931 . S
C2202 C2201 1.385 . S
C2202 C2203 1.389 . S
C2203 C2202 1.389 . S
C2203 C2204 1.387 . S
C2204 H2189 0.930 . S
C2204 C2199 1.390 . S
C2204 C2203 1.387 . S
H2205 C2217 0.930 . S
H2206 C2219 0.930 . S
H2207 C2220 0.930 . S
H2208 C2224 0.959 . S
H2209 C2224 0.959 1_565 S
H2210 C2224 0.961 . S
H2211 C2225 0.960 . S
H2212 C2225 0.961 . S
H2213 C2225 0.959 . S
H2214 C2228 0.929 . S
H2215 C2229 0.931 . S
H2216 C2231 0.930 . S
C2217 H2205 0.930 . S
C2217 C2218 1.399 . S
C2217 C2222 1.399 . S
C2218 C2217 1.399 . S
C2218 C2219 1.376 . S
C2219 H2206 0.930 . S
C2219 C2218 1.376 . S
C2219 C2220 1.388 . S
C2220 H2207 0.930 . S
C2220 C2219 1.388 . S
C2220 C2221 1.390 . S
C2221 C2220 1.390 . S
C2221 C2222 1.394 . S
C2221 C2227 1.465 1_545 S
C2222 C2217 1.399 . S
C2222 C2221 1.394 . S
C2222 C2223 1.516 1_545 S
C2223 C2222 1.516 1_565 S
C2223 C2224 1.502 1_565 S
C2223 C2225 1.561 . S
C2223 C2226 1.526 . S
C2224 H2208 0.959 . S
C2224 H2209 0.959 1_545 S
C2224 H2210 0.961 . S
C2224 C2223 1.502 1_545 S
C2225 H2211 0.960 . S
C2225 H2212 0.961 . S
C2225 H2213 0.959 . S
C2225 C2223 1.561 . S
C2226 C2223 1.526 . S
C2226 C2227 1.396 . S
C2226 C2231 1.390 . S
C2227 C2221 1.465 1_565 S
C2227 C2226 1.396 . S
C2227 C2228 1.399 . S
C2228 H2214 0.929 . S
C2228 C2227 1.399 . S
C2228 C2229 1.385 . S
C2229 H2215 0.931 . S
C2229 C2228 1.385 . S
C2229 C2230 1.389 . S
C2230 C2229 1.389 . S
C2230 C2231 1.387 . S
C2231 H2216 0.930 . S
C2231 C2226 1.390 . S
C2231 C2230 1.387 . S
H2232 C2244 0.930 . S
H2233 C2246 0.930 . S
H2234 C2247 0.930 . S
H2235 C2251 0.959 . S
H2236 C2251 0.959 . S
H2237 C2251 0.961 . S
H2238 C2252 0.960 . S
H2239 C2252 0.961 . S
H2240 C2252 0.959 . S
H2241 C2255 0.929 . S
H2242 C2256 0.931 . S
H2243 C2258 0.930 . S
C2244 H2232 0.930 . S
C2244 C2245 1.399 . S
C2244 C2249 1.399 . S
C2245 C2244 1.399 . S
C2245 C2246 1.376 . S
C2246 H2233 0.930 . S
C2246 C2245 1.376 . S
C2246 C2247 1.388 . S
C2247 H2234 0.930 . S
C2247 C2246 1.388 . S
C2247 C2248 1.390 . S
C2248 C2247 1.390 . S
C2248 C2249 1.394 . S
C2248 C2254 1.465 . S
C2249 C2244 1.399 . S
C2249 C2248 1.394 . S
C2249 C2250 1.516 . S
C2250 C2249 1.516 . S
C2250 C2251 1.502 . S
C2250 C2252 1.561 . S
C2250 C2253 1.526 . S
C2251 H2235 0.959 . S
C2251 H2236 0.959 . S
C2251 H2237 0.961 . S
C2251 C2250 1.502 . S
C2252 H2238 0.960 . S
C2252 H2239 0.961 . S
C2252 H2240 0.959 . S
C2252 C2250 1.561 . S
C2253 C2250 1.526 . S
C2253 C2254 1.396 . S
C2253 C2258 1.390 . S
C2254 C2248 1.465 . S
C2254 C2253 1.396 . S
C2254 C2255 1.399 . S
C2255 H2241 0.929 . S
C2255 C2254 1.399 . S
C2255 C2256 1.385 . S
C2256 H2242 0.931 . S
C2256 C2255 1.385 . S
C2256 C2257 1.389 . S
C2257 C2256 1.389 . S
C2257 C2258 1.387 . S
C2258 H2243 0.930 . S
C2258 C2253 1.390 . S
C2258 C2257 1.387 . S
H2259 C2271 0.930 . S
H2260 C2273 0.930 . S
H2261 C2274 0.930 . S
H2262 C2278 0.959 . S
H2263 C2278 0.959 . S
H2264 C2278 0.961 . S
H2265 C2279 0.960 . S
H2266 C2279 0.961 . S
H2267 C2279 0.959 . S
H2268 C2282 0.929 . S
H2269 C2283 0.931 . S
H2270 C2285 0.930 . S
C2271 H2259 0.930 . S
C2271 C2272 1.399 . S
C2271 C2276 1.399 . S
C2272 C2271 1.399 . S
C2272 C2273 1.376 . S
C2273 H2260 0.930 . S
C2273 C2272 1.376 . S
C2273 C2274 1.388 . S
C2274 H2261 0.930 . S
C2274 C2273 1.388 . S
C2274 C2275 1.390 . S
C2275 C2274 1.390 . S
C2275 C2276 1.394 . S
C2275 C2281 1.465 . S
C2276 C2271 1.399 . S
C2276 C2275 1.394 . S
C2276 C2277 1.516 . S
C2277 C2276 1.516 . S
C2277 C2278 1.502 . S
C2277 C2279 1.561 . S
C2277 C2280 1.526 . S
C2278 H2262 0.959 . S
C2278 H2263 0.959 . S
C2278 H2264 0.961 . S
C2278 C2277 1.502 . S
C2279 H2265 0.960 . S
C2279 H2266 0.961 . S
C2279 H2267 0.959 . S
C2279 C2277 1.561 . S
C2280 C2277 1.526 . S
C2280 C2281 1.396 . S
C2280 C2285 1.390 . S
C2281 C2275 1.465 . S
C2281 C2280 1.396 . S
C2281 C2282 1.399 . S
C2282 H2268 0.929 . S
C2282 C2281 1.399 . S
C2282 C2283 1.385 . S
C2283 H2269 0.931 . S
C2283 C2282 1.385 . S
C2283 C2284 1.389 . S
C2284 C2283 1.389 . S
C2284 C2285 1.387 . S
C2285 H2270 0.930 . S
C2285 C2280 1.390 . S
C2285 C2284 1.387 . S
H2286 C2298 0.930 . S
H2287 C2300 0.930 . S
H2288 C2301 0.930 . S
H2289 C2305 0.959 . S
H2290 C2305 0.959 . S
H2291 C2305 0.961 . S
H2292 C2306 0.960 . S
H2293 C2306 0.961 . S
H2294 C2306 0.959 1_554 S
H2295 C2309 0.929 . S
H2296 C2310 0.931 . S
H2297 C2312 0.930 . S
C2298 H2286 0.930 . S
C2298 C2299 1.399 . S
C2298 C2303 1.399 . S
C2299 C2298 1.399 . S
C2299 C2300 1.376 . S
C2300 H2287 0.930 . S
C2300 C2299 1.376 . S
C2300 C2301 1.388 . S
C2301 H2288 0.930 . S
C2301 C2300 1.388 . S
C2301 C2302 1.390 . S
C2302 C2301 1.390 . S
C2302 C2303 1.394 . S
C2302 C2308 1.465 . S
C2303 C2298 1.399 . S
C2303 C2302 1.394 . S
C2303 C2304 1.516 1_554 S
C2304 C2303 1.516 1_556 S
C2304 C2305 1.502 . S
C2304 C2306 1.561 . S
C2304 C2307 1.526 . S
C2305 H2289 0.959 . S
C2305 H2290 0.959 . S
C2305 H2291 0.961 . S
C2305 C2304 1.502 . S
C2306 H2292 0.960 . S
C2306 H2293 0.961 . S
C2306 H2294 0.959 1_556 S
C2306 C2304 1.561 . S
C2307 C2304 1.526 . S
C2307 C2308 1.396 1_556 S
C2307 C2312 1.390 . S
C2308 C2302 1.465 . S
C2308 C2307 1.396 1_554 S
C2308 C2309 1.399 . S
C2309 H2295 0.929 . S
C2309 C2308 1.399 . S
C2309 C2310 1.385 1_554 S
C2310 H2296 0.931 . S
C2310 C2309 1.385 1_556 S
C2310 C2311 1.389 . S
C2311 C2310 1.389 . S
C2311 C2312 1.387 . S
C2312 H2297 0.930 . S
C2312 C2307 1.390 . S
C2312 C2311 1.387 . S
H2313 C2325 0.930 . S
H2314 C2327 0.930 . S
H2315 C2328 0.930 . S
H2316 C2332 0.959 . S
H2317 C2332 0.959 . S
H2318 C2332 0.961 . S
H2319 C2333 0.960 . S
H2320 C2333 0.961 . S
H2321 C2333 0.959 . S
H2322 C2336 0.929 . S
H2323 C2337 0.931 . S
H2324 C2339 0.930 . S
C2325 H2313 0.930 . S
C2325 C2326 1.399 . S
C2325 C2330 1.399 . S
C2326 C2325 1.399 . S
C2326 C2327 1.376 . S
C2327 H2314 0.930 . S
C2327 C2326 1.376 . S
C2327 C2328 1.388 . S
C2328 H2315 0.930 . S
C2328 C2327 1.388 . S
C2328 C2329 1.390 . S
C2329 C2328 1.390 . S
C2329 C2330 1.394 . S
C2329 C2335 1.465 . S
C2330 C2325 1.399 . S
C2330 C2329 1.394 . S
C2330 C2331 1.516 . S
C2331 C2330 1.516 . S
C2331 C2332 1.502 . S
C2331 C2333 1.561 . S
C2331 C2334 1.526 . S
C2332 H2316 0.959 . S
C2332 H2317 0.959 . S
C2332 H2318 0.961 . S
C2332 C2331 1.502 . S
C2333 H2319 0.960 . S
C2333 H2320 0.961 . S
C2333 H2321 0.959 . S
C2333 C2331 1.561 . S
C2334 C2331 1.526 . S
C2334 C2335 1.396 . S
C2334 C2339 1.390 . S
C2335 C2329 1.465 . S
C2335 C2334 1.396 . S
C2335 C2336 1.399 . S
C2336 H2322 0.929 . S
C2336 C2335 1.399 . S
C2336 C2337 1.385 . S
C2337 H2323 0.931 . S
C2337 C2336 1.385 . S
C2337 C2338 1.389 . S
C2338 C2337 1.389 . S
C2338 C2339 1.387 . S
C2339 H2324 0.930 . S
C2339 C2334 1.390 . S
C2339 C2338 1.387 . S
H2340 C2352 0.930 . S
H2341 C2354 0.930 . S
H2342 C2355 0.930 . S
H2343 C2359 0.959 . S
H2344 C2359 0.959 . S
H2345 C2359 0.961 . S
H2346 C2360 0.960 . S
H2347 C2360 0.961 . S
H2348 C2360 0.959 . S
H2349 C2363 0.929 . S
H2350 C2364 0.931 . S
H2351 C2366 0.930 . S
C2352 H2340 0.930 . S
C2352 C2353 1.399 . S
C2352 C2357 1.399 . S
C2353 C2352 1.399 . S
C2353 C2354 1.376 . S
C2354 H2341 0.930 . S
C2354 C2353 1.376 . S
C2354 C2355 1.388 . S
C2355 H2342 0.930 . S
C2355 C2354 1.388 . S
C2355 C2356 1.390 . S
C2356 C2355 1.390 . S
C2356 C2357 1.394 . S
C2356 C2362 1.465 . S
C2357 C2352 1.399 . S
C2357 C2356 1.394 . S
C2357 C2358 1.516 . S
C2358 C2357 1.516 . S
C2358 C2359 1.502 . S
C2358 C2360 1.561 . S
C2358 C2361 1.526 . S
C2359 H2343 0.959 . S
C2359 H2344 0.959 . S
C2359 H2345 0.961 . S
C2359 C2358 1.502 . S
C2360 H2346 0.960 . S
C2360 H2347 0.961 . S
C2360 H2348 0.959 . S
C2360 C2358 1.561 . S
C2361 C2358 1.526 . S
C2361 C2362 1.396 . S
C2361 C2366 1.390 . S
C2362 C2356 1.465 . S
C2362 C2361 1.396 . S
C2362 C2363 1.399 . S
C2363 H2349 0.929 . S
C2363 C2362 1.399 . S
C2363 C2364 1.385 . S
C2364 H2350 0.931 . S
C2364 C2363 1.385 . S
C2364 C2365 1.389 . S
C2365 C2364 1.389 . S
C2365 C2366 1.387 . S
C2366 H2351 0.930 . S
C2366 C2361 1.390 . S
C2366 C2365 1.387 . S
H2367 C2379 0.930 . S
H2368 C2381 0.930 . S
H2369 C2382 0.930 . S
H2370 C2386 0.959 . S
H2371 C2386 0.959 . S
H2372 C2386 0.961 . S
H2373 C2387 0.960 . S
H2374 C2387 0.961 . S
H2375 C2387 0.959 . S
H2376 C2390 0.929 . S
H2377 C2391 0.931 . S
H2378 C2393 0.930 . S
C2379 H2367 0.930 . S
C2379 C2380 1.399 . S
C2379 C2384 1.399 . S
C2380 C2379 1.399 . S
C2380 C2381 1.376 . S
C2381 H2368 0.930 . S
C2381 C2380 1.376 . S
C2381 C2382 1.388 . S
C2382 H2369 0.930 . S
C2382 C2381 1.388 . S
C2382 C2383 1.390 . S
C2383 C2382 1.390 . S
C2383 C2384 1.394 . S
C2383 C2389 1.465 . S
C2384 C2379 1.399 . S
C2384 C2383 1.394 . S
C2384 C2385 1.516 . S
C2385 C2384 1.516 . S
C2385 C2386 1.502 . S
C2385 C2387 1.561 . S
C2385 C2388 1.526 . S
C2386 H2370 0.959 . S
C2386 H2371 0.959 . S
C2386 H2372 0.961 . S
C2386 C2385 1.502 . S
C2387 H2373 0.960 . S
C2387 H2374 0.961 . S
C2387 H2375 0.959 . S
C2387 C2385 1.561 . S
C2388 C2385 1.526 . S
C2388 C2389 1.396 . S
C2388 C2393 1.390 . S
C2389 C2383 1.465 . S
C2389 C2388 1.396 . S
C2389 C2390 1.399 . S
C2390 H2376 0.929 . S
C2390 C2389 1.399 . S
C2390 C2391 1.385 . S
C2391 H2377 0.931 . S
C2391 C2390 1.385 . S
C2391 C2392 1.389 . S
C2392 C2391 1.389 . S
C2392 C2393 1.387 . S
C2393 H2378 0.930 . S
C2393 C2388 1.390 . S
C2393 C2392 1.387 . S
H2394 C2406 0.930 . S
H2395 C2408 0.930 . S
H2396 C2409 0.930 . S
H2397 C2413 0.959 . S
H2398 C2413 0.959 . S
H2399 C2413 0.961 . S
H2400 C2414 0.964 . S
H2401 C2414 0.953 1_554 S
H2402 C2414 0.969 . S
H2403 C2417 0.983 . S
H2404 C2418 0.931 . S
H2405 C2420 0.930 . S
C2406 H2394 0.930 . S
C2406 C2407 1.399 . S
C2406 C2411 1.399 . S
C2407 C2406 1.399 . S
C2407 C2408 1.376 . S
C2408 H2395 0.930 . S
C2408 C2407 1.376 . S
C2408 C2409 1.388 . S
C2409 H2396 0.930 . S
C2409 C2408 1.388 . S
C2409 C2410 1.390 . S
C2410 C2409 1.390 . S
C2410 C2411 1.394 . S
C2410 C2416 1.487 . S
C2411 C2406 1.399 . S
C2411 C2410 1.394 . S
C2411 C2412 1.516 1_556 S
C2412 C2411 1.516 1_554 S
C2412 C2413 1.502 . S
C2412 C2414 1.556 1_554 S
C2412 C2415 1.526 . S
C2413 H2397 0.959 . S
C2413 H2398 0.959 . S
C2413 H2399 0.961 . S
C2413 C2412 1.502 . S
C2414 H2400 0.964 . S
C2414 H2401 0.953 1_556 S
C2414 H2402 0.969 . S
C2414 C2412 1.556 1_556 S
C2415 C2412 1.526 . S
C2415 C2416 1.370 1_554 S
C2415 C2420 1.390 . S
C2416 C2410 1.487 . S
C2416 C2415 1.370 1_556 S
C2416 C2417 1.398 . S
C2417 H2403 0.983 . S
C2417 C2416 1.398 . S
C2417 C2418 1.336 1_556 S
C2418 H2404 0.931 . S
C2418 C2417 1.336 1_554 S
C2418 C2419 1.389 . S
C2419 C2418 1.389 . S
C2419 C2420 1.387 . S
C2420 H2405 0.930 . S
C2420 C2415 1.390 . S
C2420 C2419 1.387 . S
H2421 C2433 0.930 . S
H2422 C2435 0.930 . S
H2423 C2436 0.930 . S
H2424 C2440 0.959 . S
H2425 C2440 0.959 . S
H2426 C2440 0.961 . S
H2427 C2441 0.960 . S
H2428 C2441 0.961 . S
H2429 C2441 0.959 . S
H2430 C2444 0.929 . S
H2431 C2445 0.931 . S
H2432 C2447 0.930 . S
C2433 H2421 0.930 . S
C2433 C2434 1.399 . S
C2433 C2438 1.399 . S
C2434 C2433 1.399 . S
C2434 C2435 1.376 . S
C2435 H2422 0.930 . S
C2435 C2434 1.376 . S
C2435 C2436 1.388 . S
C2436 H2423 0.930 . S
C2436 C2435 1.388 . S
C2436 C2437 1.390 . S
C2437 C2436 1.390 . S
C2437 C2438 1.394 . S
C2437 C2443 1.465 . S
C2438 C2433 1.399 . S
C2438 C2437 1.394 . S
C2438 C2439 1.516 . S
C2439 C2438 1.516 . S
C2439 C2440 1.502 . S
C2439 C2441 1.561 . S
C2439 C2442 1.526 . S
C2440 H2424 0.959 . S
C2440 H2425 0.959 . S
C2440 H2426 0.961 . S
C2440 C2439 1.502 . S
C2441 H2427 0.960 . S
C2441 H2428 0.961 . S
C2441 H2429 0.959 . S
C2441 C2439 1.561 . S
C2442 C2439 1.526 . S
C2442 C2443 1.396 . S
C2442 C2447 1.390 . S
C2443 C2437 1.465 . S
C2443 C2442 1.396 . S
C2443 C2444 1.399 . S
C2444 H2430 0.929 . S
C2444 C2443 1.399 . S
C2444 C2445 1.385 . S
C2445 H2431 0.931 . S
C2445 C2444 1.385 . S
C2445 C2446 1.389 . S
C2446 C2445 1.389 . S
C2446 C2447 1.387 . S
C2447 H2432 0.930 . S
C2447 C2442 1.390 . S
C2447 C2446 1.387 . S
H2448 C2460 0.930 . S
H2449 C2462 0.930 . S
H2450 C2463 0.930 . S
H2451 C2467 0.959 . S
H2452 C2467 0.959 . S
H2453 C2467 0.961 . S
H2454 C2468 0.960 . S
H2455 C2468 0.961 . S
H2456 C2468 0.959 . S
H2457 C2471 0.929 . S
H2458 C2472 0.931 . S
H2459 C2474 0.930 . S
C2460 H2448 0.930 . S
C2460 C2461 1.399 . S
C2460 C2465 1.399 . S
C2461 C2460 1.399 . S
C2461 C2462 1.376 . S
C2462 H2449 0.930 . S
C2462 C2461 1.376 . S
C2462 C2463 1.388 . S
C2463 H2450 0.930 . S
C2463 C2462 1.388 . S
C2463 C2464 1.390 . S
C2464 C2463 1.390 . S
C2464 C2465 1.394 . S
C2464 C2470 1.465 . S
C2465 C2460 1.399 . S
C2465 C2464 1.394 . S
C2465 C2466 1.516 . S
C2466 C2465 1.516 . S
C2466 C2467 1.502 . S
C2466 C2468 1.561 . S
C2466 C2469 1.526 . S
C2467 H2451 0.959 . S
C2467 H2452 0.959 . S
C2467 H2453 0.961 . S
C2467 C2466 1.502 . S
C2468 H2454 0.960 . S
C2468 H2455 0.961 . S
C2468 H2456 0.959 . S
C2468 C2466 1.561 . S
C2469 C2466 1.526 . S
C2469 C2470 1.396 . S
C2469 C2474 1.390 . S
C2470 C2464 1.465 . S
C2470 C2469 1.396 . S
C2470 C2471 1.399 . S
C2471 H2457 0.929 . S
C2471 C2470 1.399 . S
C2471 C2472 1.385 . S
C2472 H2458 0.931 . S
C2472 C2471 1.385 . S
C2472 C2473 1.389 . S
C2473 C2472 1.389 . S
C2473 C2474 1.387 . S
C2474 H2459 0.930 . S
C2474 C2469 1.390 . S
C2474 C2473 1.387 . S
H2475 C2487 0.930 . S
H2476 C2489 0.930 . S
H2477 C2490 0.930 . S
H2478 C2494 0.959 . S
H2479 C2494 0.959 . S
H2480 C2494 0.961 . S
H2481 C2495 0.960 . S
H2482 C2495 0.961 . S
H2483 C2495 0.959 . S
H2484 C2498 0.929 . S
H2485 C2499 0.931 . S
H2486 C2501 0.930 . S
C2487 H2475 0.930 . S
C2487 C2488 1.399 . S
C2487 C2492 1.399 . S
C2488 C2487 1.399 . S
C2488 C2489 1.376 . S
C2489 H2476 0.930 . S
C2489 C2488 1.376 . S
C2489 C2490 1.388 . S
C2490 H2477 0.930 . S
C2490 C2489 1.388 . S
C2490 C2491 1.390 . S
C2491 C2490 1.390 . S
C2491 C2492 1.394 . S
C2491 C2497 1.465 . S
C2492 C2487 1.399 . S
C2492 C2491 1.394 . S
C2492 C2493 1.516 . S
C2493 C2492 1.516 . S
C2493 C2494 1.502 . S
C2493 C2495 1.561 . S
C2493 C2496 1.526 . S
C2494 H2478 0.959 . S
C2494 H2479 0.959 . S
C2494 H2480 0.961 . S
C2494 C2493 1.502 . S
C2495 H2481 0.960 . S
C2495 H2482 0.961 . S
C2495 H2483 0.959 . S
C2495 C2493 1.561 . S
C2496 C2493 1.526 . S
C2496 C2497 1.396 . S
C2496 C2501 1.390 . S
C2497 C2491 1.465 . S
C2497 C2496 1.396 . S
C2497 C2498 1.399 . S
C2498 H2484 0.929 . S
C2498 C2497 1.399 . S
C2498 C2499 1.385 . S
C2499 H2485 0.931 . S
C2499 C2498 1.385 . S
C2499 C2500 1.389 . S
C2500 C2499 1.389 . S
C2500 C2501 1.387 . S
C2501 H2486 0.930 . S
C2501 C2496 1.390 . S
C2501 C2500 1.387 . S
H2502 C2514 0.930 . S
H2503 C2516 0.930 . S
H2504 C2517 0.930 . S
H2505 C2521 0.959 . S
H2506 C2521 0.959 . S
H2507 C2521 0.961 . S
H2508 C2522 0.960 . S
H2509 C2522 0.961 . S
H2510 C2522 0.959 . S
H2511 C2525 0.929 . S
H2512 C2526 0.931 . S
H2513 C2528 0.930 . S
C2514 H2502 0.930 . S
C2514 C2515 1.399 . S
C2514 C2519 1.399 . S
C2515 C2514 1.399 . S
C2515 C2516 1.376 . S
C2516 H2503 0.930 . S
C2516 C2515 1.376 . S
C2516 C2517 1.388 . S
C2517 H2504 0.930 . S
C2517 C2516 1.388 . S
C2517 C2518 1.390 . S
C2518 C2517 1.390 . S
C2518 C2519 1.394 . S
C2518 C2524 1.465 . S
C2519 C2514 1.399 . S
C2519 C2518 1.394 . S
C2519 C2520 1.516 . S
C2520 C2519 1.516 . S
C2520 C2521 1.502 . S
C2520 C2522 1.561 . S
C2520 C2523 1.526 . S
C2521 H2505 0.959 . S
C2521 H2506 0.959 . S
C2521 H2507 0.961 . S
C2521 C2520 1.502 . S
C2522 H2508 0.960 . S
C2522 H2509 0.961 . S
C2522 H2510 0.959 . S
C2522 C2520 1.561 . S
C2523 C2520 1.526 . S
C2523 C2524 1.396 . S
C2523 C2528 1.390 . S
C2524 C2518 1.465 . S
C2524 C2523 1.396 . S
C2524 C2525 1.399 . S
C2525 H2511 0.929 . S
C2525 C2524 1.399 . S
C2525 C2526 1.385 . S
C2526 H2512 0.931 . S
C2526 C2525 1.385 . S
C2526 C2527 1.389 . S
C2527 C2526 1.389 . S
C2527 C2528 1.387 . S
C2528 H2513 0.930 . S
C2528 C2523 1.390 . S
C2528 C2527 1.387 . S
H2529 C2541 0.930 . S
H2530 C2543 0.930 . S
H2531 C2544 0.930 . S
H2532 C2548 0.959 . S
H2533 C2548 0.959 . S
H2534 C2548 0.961 . S
H2535 C2549 0.960 . S
H2536 C2549 0.961 . S
H2537 C2549 0.959 . S
H2538 C2552 0.929 . S
H2539 C2553 0.931 . S
H2540 C2555 0.930 . S
C2541 H2529 0.930 . S
C2541 C2542 1.399 . S
C2541 C2546 1.399 . S
C2542 C2541 1.399 . S
C2542 C2543 1.376 . S
C2543 H2530 0.930 . S
C2543 C2542 1.376 . S
C2543 C2544 1.388 . S
C2544 H2531 0.930 . S
C2544 C2543 1.388 . S
C2544 C2545 1.390 . S
C2545 C2544 1.390 . S
C2545 C2546 1.394 . S
C2545 C2551 1.465 . S
C2546 C2541 1.399 . S
C2546 C2545 1.394 . S
C2546 C2547 1.516 . S
C2547 C2546 1.516 . S
C2547 C2548 1.502 . S
C2547 C2549 1.561 . S
C2547 C2550 1.526 . S
C2548 H2532 0.959 . S
C2548 H2533 0.959 . S
C2548 H2534 0.961 . S
C2548 C2547 1.502 . S
C2549 H2535 0.960 . S
C2549 H2536 0.961 . S
C2549 H2537 0.959 . S
C2549 C2547 1.561 . S
C2550 C2547 1.526 . S
C2550 C2551 1.396 . S
C2550 C2555 1.390 . S
C2551 C2545 1.465 . S
C2551 C2550 1.396 . S
C2551 C2552 1.399 . S
C2552 H2538 0.929 . S
C2552 C2551 1.399 . S
C2552 C2553 1.385 . S
C2553 H2539 0.931 . S
C2553 C2552 1.385 . S
C2553 C2554 1.389 . S
C2554 C2553 1.389 . S
C2554 C2555 1.387 . S
C2555 H2540 0.930 . S
C2555 C2550 1.390 . S
C2555 C2554 1.387 . S
H2556 C2568 0.930 . S
H2557 C2570 0.930 . S
H2558 C2571 0.930 . S
H2559 C2575 0.959 . S
H2560 C2575 0.959 . S
H2561 C2575 0.961 . S
H2562 C2576 0.960 . S
H2563 C2576 0.961 . S
H2564 C2576 0.959 . S
H2565 C2579 0.929 . S
H2566 C2580 0.931 . S
H2567 C2582 0.930 . S
C2568 H2556 0.930 . S
C2568 C2569 1.399 . S
C2568 C2573 1.399 . S
C2569 C2568 1.399 . S
C2569 C2570 1.376 . S
C2570 H2557 0.930 . S
C2570 C2569 1.376 . S
C2570 C2571 1.388 . S
C2571 H2558 0.930 . S
C2571 C2570 1.388 . S
C2571 C2572 1.390 . S
C2572 C2571 1.390 . S
C2572 C2573 1.394 . S
C2572 C2578 1.465 . S
C2573 C2568 1.399 . S
C2573 C2572 1.394 . S
C2573 C2574 1.516 . S
C2574 C2573 1.516 . S
C2574 C2575 1.502 . S
C2574 C2576 1.561 . S
C2574 C2577 1.526 . S
C2575 H2559 0.959 . S
C2575 H2560 0.959 . S
C2575 H2561 0.961 . S
C2575 C2574 1.502 . S
C2576 H2562 0.960 . S
C2576 H2563 0.961 . S
C2576 H2564 0.959 . S
C2576 C2574 1.561 . S
C2577 C2574 1.526 . S
C2577 C2578 1.396 . S
C2577 C2582 1.390 . S
C2578 C2572 1.465 . S
C2578 C2577 1.396 . S
C2578 C2579 1.399 . S
C2579 H2565 0.929 . S
C2579 C2578 1.399 . S
C2579 C2580 1.385 . S
C2580 H2566 0.931 . S
C2580 C2579 1.385 . S
C2580 C2581 1.389 . S
C2581 C2580 1.389 . S
C2581 C2582 1.387 . S
C2582 H2567 0.930 . S
C2582 C2577 1.390 . S
C2582 C2581 1.387 . S
H2583 C2595 0.930 . S
H2584 C2597 0.930 . S
H2585 C2598 0.930 . S
H2586 C2602 0.959 . S
H2587 C2602 0.959 . S
H2588 C2602 0.961 . S
H2589 C2603 0.960 . S
H2590 C2603 0.961 . S
H2591 C2603 0.959 . S
H2592 C2606 0.929 . S
H2593 C2607 0.931 . S
H2594 C2609 0.930 . S
C2595 H2583 0.930 . S
C2595 C2596 1.399 . S
C2595 C2600 1.399 . S
C2596 C2595 1.399 . S
C2596 C2597 1.376 . S
C2597 H2584 0.930 . S
C2597 C2596 1.376 . S
C2597 C2598 1.388 . S
C2598 H2585 0.930 . S
C2598 C2597 1.388 . S
C2598 C2599 1.390 . S
C2599 C2598 1.390 . S
C2599 C2600 1.394 . S
C2599 C2605 1.465 . S
C2600 C2595 1.399 . S
C2600 C2599 1.394 . S
C2600 C2601 1.516 . S
C2601 C2600 1.516 . S
C2601 C2602 1.502 . S
C2601 C2603 1.561 . S
C2601 C2604 1.526 . S
C2602 H2586 0.959 . S
C2602 H2587 0.959 . S
C2602 H2588 0.961 . S
C2602 C2601 1.502 . S
C2603 H2589 0.960 . S
C2603 H2590 0.961 . S
C2603 H2591 0.959 . S
C2603 C2601 1.561 . S
C2604 C2601 1.526 . S
C2604 C2605 1.396 . S
C2604 C2609 1.390 . S
C2605 C2599 1.465 . S
C2605 C2604 1.396 . S
C2605 C2606 1.399 . S
C2606 H2592 0.929 . S
C2606 C2605 1.399 . S
C2606 C2607 1.385 . S
C2607 H2593 0.931 . S
C2607 C2606 1.385 . S
C2607 C2608 1.389 . S
C2608 C2607 1.389 . S
C2608 C2609 1.387 . S
C2609 H2594 0.930 . S
C2609 C2604 1.390 . S
C2609 C2608 1.387 . S
H2610 C2622 0.930 . S
H2611 C2624 0.930 . S
H2612 C2625 0.930 . S
H2613 C2629 0.959 . S
H2614 C2629 0.959 . S
H2615 C2629 0.961 . S
H2616 C2630 0.960 . S
H2617 C2630 0.961 . S
H2618 C2630 0.959 . S
H2619 C2633 0.929 . S
H2620 C2634 0.931 . S
H2621 C2636 0.930 . S
C2622 H2610 0.930 . S
C2622 C2623 1.399 . S
C2622 C2627 1.399 . S
C2623 C2622 1.399 . S
C2623 C2624 1.376 . S
C2624 H2611 0.930 . S
C2624 C2623 1.376 . S
C2624 C2625 1.388 . S
C2625 H2612 0.930 . S
C2625 C2624 1.388 . S
C2625 C2626 1.390 . S
C2626 C2625 1.390 . S
C2626 C2627 1.394 . S
C2626 C2632 1.465 . S
C2627 C2622 1.399 . S
C2627 C2626 1.394 . S
C2627 C2628 1.516 . S
C2628 C2627 1.516 . S
C2628 C2629 1.502 . S
C2628 C2630 1.561 . S
C2628 C2631 1.526 . S
C2629 H2613 0.959 . S
C2629 H2614 0.959 . S
C2629 H2615 0.961 . S
C2629 C2628 1.502 . S
C2630 H2616 0.960 . S
C2630 H2617 0.961 . S
C2630 H2618 0.959 . S
C2630 C2628 1.561 . S
C2631 C2628 1.526 . S
C2631 C2632 1.396 . S
C2631 C2636 1.390 . S
C2632 C2626 1.465 . S
C2632 C2631 1.396 . S
C2632 C2633 1.399 . S
C2633 H2619 0.929 . S
C2633 C2632 1.399 . S
C2633 C2634 1.385 . S
C2634 H2620 0.931 . S
C2634 C2633 1.385 . S
C2634 C2635 1.389 . S
C2635 C2634 1.389 . S
C2635 C2636 1.387 . S
C2636 H2621 0.930 . S
C2636 C2631 1.390 . S
C2636 C2635 1.387 . S
H2637 C2649 0.930 . S
H2638 C2651 0.930 . S
H2639 C2652 0.930 . S
H2640 C2656 0.959 . S
H2641 C2656 0.959 . S
H2642 C2656 0.961 . S
H2643 C2657 0.960 . S
H2644 C2657 0.961 . S
H2645 C2657 0.959 . S
H2646 C2660 0.929 . S
H2647 C2661 0.931 . S
H2648 C2663 0.930 . S
C2649 H2637 0.930 . S
C2649 C2650 1.399 . S
C2649 C2654 1.399 . S
C2650 C2649 1.399 . S
C2650 C2651 1.376 . S
C2651 H2638 0.930 . S
C2651 C2650 1.376 . S
C2651 C2652 1.388 . S
C2652 H2639 0.930 . S
C2652 C2651 1.388 . S
C2652 C2653 1.390 . S
C2653 C2652 1.390 . S
C2653 C2654 1.394 . S
C2653 C2659 1.465 . S
C2654 C2649 1.399 . S
C2654 C2653 1.394 . S
C2654 C2655 1.516 . S
C2655 C2654 1.516 . S
C2655 C2656 1.502 . S
C2655 C2657 1.561 . S
C2655 C2658 1.526 . S
C2656 H2640 0.959 . S
C2656 H2641 0.959 . S
C2656 H2642 0.961 . S
C2656 C2655 1.502 . S
C2657 H2643 0.960 . S
C2657 H2644 0.961 . S
C2657 H2645 0.959 . S
C2657 C2655 1.561 . S
C2658 C2655 1.526 . S
C2658 C2659 1.396 . S
C2658 C2663 1.390 . S
C2659 C2653 1.465 . S
C2659 C2658 1.396 . S
C2659 C2660 1.399 . S
C2660 H2646 0.929 . S
C2660 C2659 1.399 . S
C2660 C2661 1.385 . S
C2661 H2647 0.931 . S
C2661 C2660 1.385 . S
C2661 C2662 1.389 . S
C2662 C2661 1.389 . S
C2662 C2663 1.387 . S
C2663 H2648 0.930 . S
C2663 C2658 1.390 . S
C2663 C2662 1.387 . S
H2664 C2676 0.930 . S
H2665 C2678 0.930 . S
H2666 C2679 0.930 . S
H2667 C2683 0.959 . S
H2668 C2683 0.959 . S
H2669 C2683 0.961 . S
H2670 C2684 0.960 . S
H2671 C2684 0.961 . S
H2672 C2684 0.959 . S
H2673 C2687 0.929 . S
H2674 C2688 0.931 . S
H2675 C2690 0.930 . S
C2676 H2664 0.930 . S
C2676 C2677 1.399 . S
C2676 C2681 1.399 . S
C2677 C2676 1.399 . S
C2677 C2678 1.376 . S
C2678 H2665 0.930 . S
C2678 C2677 1.376 . S
C2678 C2679 1.388 . S
C2679 H2666 0.930 . S
C2679 C2678 1.388 . S
C2679 C2680 1.390 . S
C2680 C2679 1.390 . S
C2680 C2681 1.394 . S
C2680 C2686 1.465 . S
C2681 C2676 1.399 . S
C2681 C2680 1.394 . S
C2681 C2682 1.516 . S
C2682 C2681 1.516 . S
C2682 C2683 1.502 . S
C2682 C2684 1.561 . S
C2682 C2685 1.526 . S
C2683 H2667 0.959 . S
C2683 H2668 0.959 . S
C2683 H2669 0.961 . S
C2683 C2682 1.502 . S
C2684 H2670 0.960 . S
C2684 H2671 0.961 . S
C2684 H2672 0.959 . S
C2684 C2682 1.561 . S
C2685 C2682 1.526 . S
C2685 C2686 1.396 . S
C2685 C2690 1.390 . S
C2686 C2680 1.465 . S
C2686 C2685 1.396 . S
C2686 C2687 1.399 . S
C2687 H2673 0.929 . S
C2687 C2686 1.399 . S
C2687 C2688 1.385 . S
C2688 H2674 0.931 . S
C2688 C2687 1.385 . S
C2688 C2689 1.389 . S
C2689 C2688 1.389 . S
C2689 C2690 1.387 . S
C2690 H2675 0.930 . S
C2690 C2685 1.390 . S
C2690 C2689 1.387 . S
H2691 C2703 0.930 . S
H2692 C2705 0.930 . S
H2693 C2706 0.930 . S
H2694 C2710 0.959 . S
H2695 C2710 0.959 . S
H2696 C2710 0.961 . S
H2697 C2711 0.960 . S
H2698 C2711 0.961 . S
H2699 C2711 0.959 . S
H2700 C2714 0.929 . S
H2701 C2715 0.931 . S
H2702 C2717 0.930 . S
C2703 H2691 0.930 . S
C2703 C2704 1.399 . S
C2703 C2708 1.399 . S
C2704 C2703 1.399 . S
C2704 C2705 1.376 . S
C2705 H2692 0.930 . S
C2705 C2704 1.376 . S
C2705 C2706 1.388 . S
C2706 H2693 0.930 . S
C2706 C2705 1.388 . S
C2706 C2707 1.390 . S
C2707 C2706 1.390 . S
C2707 C2708 1.394 . S
C2707 C2713 1.465 . S
C2708 C2703 1.399 . S
C2708 C2707 1.394 . S
C2708 C2709 1.516 . S
C2709 C2708 1.516 . S
C2709 C2710 1.502 . S
C2709 C2711 1.561 . S
C2709 C2712 1.526 . S
C2710 H2694 0.959 . S
C2710 H2695 0.959 . S
C2710 H2696 0.961 . S
C2710 C2709 1.502 . S
C2711 H2697 0.960 . S
C2711 H2698 0.961 . S
C2711 H2699 0.959 . S
C2711 C2709 1.561 . S
C2712 C2709 1.526 . S
C2712 C2713 1.396 . S
C2712 C2717 1.390 . S
C2713 C2707 1.465 . S
C2713 C2712 1.396 . S
C2713 C2714 1.399 . S
C2714 H2700 0.929 . S
C2714 C2713 1.399 . S
C2714 C2715 1.385 . S
C2715 H2701 0.931 . S
C2715 C2714 1.385 . S
C2715 C2716 1.389 . S
C2716 C2715 1.389 . S
C2716 C2717 1.387 . S
C2717 H2702 0.930 . S
C2717 C2712 1.390 . S
C2717 C2716 1.387 . S
H2718 C2730 0.930 . S
H2719 C2732 0.930 . S
H2720 C2733 0.930 . S
H2721 C2737 0.959 . S
H2722 C2737 0.959 . S
H2723 C2737 0.961 . S
H2724 C2738 0.960 . S
H2725 C2738 0.961 . S
H2726 C2738 0.959 . S
H2727 C2741 0.929 . S
H2728 C2742 0.931 . S
H2729 C2744 0.930 . S
C2730 H2718 0.930 . S
C2730 C2731 1.399 . S
C2730 C2735 1.399 . S
C2731 C2730 1.399 . S
C2731 C2732 1.376 . S
C2732 H2719 0.930 . S
C2732 C2731 1.376 . S
C2732 C2733 1.388 . S
C2733 H2720 0.930 . S
C2733 C2732 1.388 . S
C2733 C2734 1.390 . S
C2734 C2733 1.390 . S
C2734 C2735 1.394 . S
C2734 C2740 1.465 . S
C2735 C2730 1.399 . S
C2735 C2734 1.394 . S
C2735 C2736 1.516 . S
C2736 C2735 1.516 . S
C2736 C2737 1.502 . S
C2736 C2738 1.561 . S
C2736 C2739 1.526 . S
C2737 H2721 0.959 . S
C2737 H2722 0.959 . S
C2737 H2723 0.961 . S
C2737 C2736 1.502 . S
C2738 H2724 0.960 . S
C2738 H2725 0.961 . S
C2738 H2726 0.959 . S
C2738 C2736 1.561 . S
C2739 C2736 1.526 . S
C2739 C2740 1.396 . S
C2739 C2744 1.390 . S
C2740 C2734 1.465 . S
C2740 C2739 1.396 . S
C2740 C2741 1.399 . S
C2741 H2727 0.929 . S
C2741 C2740 1.399 . S
C2741 C2742 1.385 . S
C2742 H2728 0.931 . S
C2742 C2741 1.385 . S
C2742 C2743 1.389 . S
C2743 C2742 1.389 . S
C2743 C2744 1.387 . S
C2744 H2729 0.930 . S
C2744 C2739 1.390 . S
C2744 C2743 1.387 . S
H2745 C2757 0.930 . S
H2746 C2759 0.930 . S
H2747 C2760 0.930 . S
H2748 C2764 0.959 . S
H2749 C2764 0.959 . S
H2750 C2764 0.961 . S
H2751 C2765 0.960 . S
H2752 C2765 0.961 . S
H2753 C2765 0.959 . S
H2754 C2768 0.929 . S
H2755 C2769 0.931 . S
H2756 C2771 0.930 . S
C2757 H2745 0.930 . S
C2757 C2758 1.399 . S
C2757 C2762 1.399 . S
C2758 C2757 1.399 . S
C2758 C2759 1.376 . S
C2759 H2746 0.930 . S
C2759 C2758 1.376 . S
C2759 C2760 1.388 . S
C2760 H2747 0.930 . S
C2760 C2759 1.388 . S
C2760 C2761 1.390 . S
C2761 C2760 1.390 . S
C2761 C2762 1.394 . S
C2761 C2767 1.465 . S
C2762 C2757 1.399 . S
C2762 C2761 1.394 . S
C2762 C2763 1.516 . S
C2763 C2762 1.516 . S
C2763 C2764 1.502 . S
C2763 C2765 1.561 . S
C2763 C2766 1.526 . S
C2764 H2748 0.959 . S
C2764 H2749 0.959 . S
C2764 H2750 0.961 . S
C2764 C2763 1.502 . S
C2765 H2751 0.960 . S
C2765 H2752 0.961 . S
C2765 H2753 0.959 . S
C2765 C2763 1.561 . S
C2766 C2763 1.526 . S
C2766 C2767 1.396 . S
C2766 C2771 1.390 . S
C2767 C2761 1.465 . S
C2767 C2766 1.396 . S
C2767 C2768 1.399 . S
C2768 H2754 0.929 . S
C2768 C2767 1.399 . S
C2768 C2769 1.385 . S
C2769 H2755 0.931 . S
C2769 C2768 1.385 . S
C2769 C2770 1.389 . S
C2770 C2769 1.389 . S
C2770 C2771 1.387 . S
C2771 H2756 0.930 . S
C2771 C2766 1.390 . S
C2771 C2770 1.387 . S
H2772 C2784 0.930 . S
H2773 C2786 0.930 . S
H2774 C2787 0.930 . S
H2775 C2791 0.959 . S
H2776 C2791 0.959 . S
H2777 C2791 0.961 . S
H2778 C2792 0.960 . S
H2779 C2792 0.961 . S
H2780 C2792 0.959 . S
H2781 C2795 0.929 . S
H2782 C2796 0.931 . S
H2783 C2798 0.930 . S
C2784 H2772 0.930 . S
C2784 C2785 1.399 . S
C2784 C2789 1.399 . S
C2785 C2784 1.399 . S
C2785 C2786 1.376 . S
C2786 H2773 0.930 . S
C2786 C2785 1.376 . S
C2786 C2787 1.388 . S
C2787 H2774 0.930 . S
C2787 C2786 1.388 . S
C2787 C2788 1.390 . S
C2788 C2787 1.390 . S
C2788 C2789 1.394 . S
C2788 C2794 1.465 . S
C2789 C2784 1.399 . S
C2789 C2788 1.394 . S
C2789 C2790 1.516 . S
C2790 C2789 1.516 . S
C2790 C2791 1.502 . S
C2790 C2792 1.561 . S
C2790 C2793 1.526 . S
C2791 H2775 0.959 . S
C2791 H2776 0.959 . S
C2791 H2777 0.961 . S
C2791 C2790 1.502 . S
C2792 H2778 0.960 . S
C2792 H2779 0.961 . S
C2792 H2780 0.959 . S
C2792 C2790 1.561 . S
C2793 C2790 1.526 . S
C2793 C2794 1.396 . S
C2793 C2798 1.390 . S
C2794 C2788 1.465 . S
C2794 C2793 1.396 . S
C2794 C2795 1.399 . S
C2795 H2781 0.929 . S
C2795 C2794 1.399 . S
C2795 C2796 1.385 . S
C2796 H2782 0.931 . S
C2796 C2795 1.385 . S
C2796 C2797 1.389 . S
C2797 C2796 1.389 . S
C2797 C2798 1.387 . S
C2798 H2783 0.930 . S
C2798 C2793 1.390 . S
C2798 C2797 1.387 . S
H2799 C2811 0.930 . S
H2800 C2813 0.930 . S
H2801 C2814 0.930 . S
H2802 C2818 0.959 . S
H2803 C2818 0.959 . S
H2804 C2818 0.961 . S
H2805 C2819 0.960 . S
H2806 C2819 0.961 . S
H2807 C2819 0.959 . S
H2808 C2822 0.929 . S
H2809 C2823 0.931 . S
H2810 C2825 0.930 . S
C2811 H2799 0.930 . S
C2811 C2812 1.399 . S
C2811 C2816 1.399 . S
C2812 C2811 1.399 . S
C2812 C2813 1.376 . S
C2813 H2800 0.930 . S
C2813 C2812 1.376 . S
C2813 C2814 1.388 . S
C2814 H2801 0.930 . S
C2814 C2813 1.388 . S
C2814 C2815 1.390 . S
C2815 C2814 1.390 . S
C2815 C2816 1.394 . S
C2815 C2821 1.465 . S
C2816 C2811 1.399 . S
C2816 C2815 1.394 . S
C2816 C2817 1.516 . S
C2817 C2816 1.516 . S
C2817 C2818 1.502 . S
C2817 C2819 1.561 . S
C2817 C2820 1.526 . S
C2818 H2802 0.959 . S
C2818 H2803 0.959 . S
C2818 H2804 0.961 . S
C2818 C2817 1.502 . S
C2819 H2805 0.960 . S
C2819 H2806 0.961 . S
C2819 H2807 0.959 . S
C2819 C2817 1.561 . S
C2820 C2817 1.526 . S
C2820 C2821 1.396 . S
C2820 C2825 1.390 . S
C2821 C2815 1.465 . S
C2821 C2820 1.396 . S
C2821 C2822 1.399 . S
C2822 H2808 0.929 . S
C2822 C2821 1.399 . S
C2822 C2823 1.385 . S
C2823 H2809 0.931 . S
C2823 C2822 1.385 . S
C2823 C2824 1.389 . S
C2824 C2823 1.389 . S
C2824 C2825 1.387 . S
C2825 H2810 0.930 . S
C2825 C2820 1.390 . S
C2825 C2824 1.387 . S
H2826 C2838 0.930 . S
H2827 C2840 0.930 . S
H2828 C2841 0.930 . S
H2829 C2845 0.959 . S
H2830 C2845 0.959 . S
H2831 C2845 0.961 . S
H2832 C2846 0.960 . S
H2833 C2846 0.961 . S
H2834 C2846 0.959 . S
H2835 C2849 0.929 . S
H2836 C2850 0.931 . S
H2837 C2852 0.930 . S
C2838 H2826 0.930 . S
C2838 C2839 1.399 . S
C2838 C2843 1.399 . S
C2839 C2838 1.399 . S
C2839 C2840 1.376 . S
C2840 H2827 0.930 . S
C2840 C2839 1.376 . S
C2840 C2841 1.388 . S
C2841 H2828 0.930 . S
C2841 C2840 1.388 . S
C2841 C2842 1.390 . S
C2842 C2841 1.390 . S
C2842 C2843 1.394 . S
C2842 C2848 1.465 . S
C2843 C2838 1.399 . S
C2843 C2842 1.394 . S
C2843 C2844 1.516 . S
C2844 C2843 1.516 . S
C2844 C2845 1.502 . S
C2844 C2846 1.561 . S
C2844 C2847 1.526 . S
C2845 H2829 0.959 . S
C2845 H2830 0.959 . S
C2845 H2831 0.961 . S
C2845 C2844 1.502 . S
C2846 H2832 0.960 . S
C2846 H2833 0.961 . S
C2846 H2834 0.959 . S
C2846 C2844 1.561 . S
C2847 C2844 1.526 . S
C2847 C2848 1.396 . S
C2847 C2852 1.390 . S
C2848 C2842 1.465 . S
C2848 C2847 1.396 . S
C2848 C2849 1.399 . S
C2849 H2835 0.929 . S
C2849 C2848 1.399 . S
C2849 C2850 1.385 . S
C2850 H2836 0.931 . S
C2850 C2849 1.385 . S
C2850 C2851 1.389 . S
C2851 C2850 1.389 . S
C2851 C2852 1.387 . S
C2852 H2837 0.930 . S
C2852 C2847 1.390 . S
C2852 C2851 1.387 . S
H2853 C2865 0.930 . S
H2854 C2867 0.930 . S
H2855 C2868 0.930 . S
H2856 C2872 0.959 . S
H2857 C2872 0.959 . S
H2858 C2872 0.961 . S
H2859 C2873 0.960 . S
H2860 C2873 0.961 . S
H2861 C2873 0.959 . S
H2862 C2876 0.929 . S
H2863 C2877 0.931 . S
H2864 C2879 0.930 . S
C2865 H2853 0.930 . S
C2865 C2866 1.399 . S
C2865 C2870 1.399 . S
C2866 C2865 1.399 . S
C2866 C2867 1.376 . S
C2867 H2854 0.930 . S
C2867 C2866 1.376 . S
C2867 C2868 1.388 . S
C2868 H2855 0.930 . S
C2868 C2867 1.388 . S
C2868 C2869 1.390 . S
C2869 C2868 1.390 . S
C2869 C2870 1.394 . S
C2869 C2875 1.465 . S
C2870 C2865 1.399 . S
C2870 C2869 1.394 . S
C2870 C2871 1.516 . S
C2871 C2870 1.516 . S
C2871 C2872 1.502 . S
C2871 C2873 1.561 . S
C2871 C2874 1.526 . S
C2872 H2856 0.959 . S
C2872 H2857 0.959 . S
C2872 H2858 0.961 . S
C2872 C2871 1.502 . S
C2873 H2859 0.960 . S
C2873 H2860 0.961 . S
C2873 H2861 0.959 . S
C2873 C2871 1.561 . S
C2874 C2871 1.526 . S
C2874 C2875 1.396 . S
C2874 C2879 1.390 . S
C2875 C2869 1.465 . S
C2875 C2874 1.396 . S
C2875 C2876 1.399 . S
C2876 H2862 0.929 . S
C2876 C2875 1.399 . S
C2876 C2877 1.385 . S
C2877 H2863 0.931 . S
C2877 C2876 1.385 . S
C2877 C2878 1.389 . S
C2878 C2877 1.389 . S
C2878 C2879 1.387 . S
C2879 H2864 0.930 . S
C2879 C2874 1.390 . S
C2879 C2878 1.387 . S
C1165 C292 1.345 . S
C1177 C4 1.310 . S
C1192 C904 1.314 . S
C1204 C40 1.345 . S
C1219 C364 1.323 . S
C1231 C76 1.328 . S
C1246 C976 1.343 . S
C1258 C112 1.311 . S
C1273 C436 1.310 . S
C1285 C148 1.344 . S
C1300 C184 1.311 . S
C1312 C1048 1.342 . S
C1327 C220 1.309 . S
C1339 C508 1.346 . S
C1354 C256 1.315 . S
C1366 C1120 1.337 . S
C1381 C616 1.312 . S
C1393 C328 1.341 . S
C1408 C688 1.309 . S
C1420 C400 1.346 . S
C1435 C472 1.320 . S
C1447 C760 1.331 . S
C1462 C544 1.317 . S
C1474 C832 1.335 . S
C1489 C580 1.330 . S
C1501 C868 1.332 . S
C1516 C940 1.337 . S
C1528 C652 1.325 . S
C1543 C724 1.342 . S
C1555 C1012 1.312 . S
C1570 C1084 1.347 . S
C1582 C796 1.311 . S
C1597 C650 1.496 . S
C1609 C2 1.475 . S
C1624 C686 1.498 . S
C1636 C38 1.475 . S
C1651 C74 1.493 . S
C1663 C578 1.476 . S
C1678 C110 1.495 . S
C1690 C614 1.510 . S
C1705 C794 1.479 . S
C1717 C146 1.509 . S
C1732 C182 1.493 . S
C1744 C830 1.511 . S
C1759 C722 1.492 . S
C1771 C218 1.476 . S
C1786 C758 1.493 . S
C1798 C254 1.511 . S
C1813 C290 1.475 . S
C1825 C938 1.487 . S
C1840 C974 1.509 . S
C1852 C326 1.491 . S
C1867 C362 1.511 . S
C1879 C866 1.497 . S
C1894 C398 1.487 . S
C1906 C902 1.507 . S
C1921 C434 1.475 . S
C1933 C1082 1.486 . S
C1948 C470 1.475 . S
C1960 C1118 1.490 . S
C1975 C1010 1.511 . S
C1987 C506 1.497 . S
C2002 C1046 1.508 . S
C2014 C542 1.489 . S
C2029 C230 1.589 . S
C2041 C14 1.535 . S
C2056 C266 1.586 . S
C2068 C50 1.539 . S
C2083 C158 1.593 . S
C2095 C86 1.531 . S
C2110 C122 1.525 . S
C2122 C194 1.596 . S
C2137 C518 1.522 . S
C2149 C302 1.590 . S
C2164 C554 1.572 . S
C2176 C338 1.533 . S
C2191 C446 1.583 . S
C2203 C374 1.560 . S
C2218 C482 1.577 . S
C2230 C410 1.567 . S
C2245 C806 1.575 . S
C2257 C590 1.550 . S
C2272 C842 1.528 . S
C2284 C626 1.594 . S
C2299 C662 1.596 . S
C2311 C734 1.527 . S
C2326 C698 1.529 . S
C2338 C770 1.594 . S
C2353 C1094 1.587 . S
C2365 C878 1.555 . S
C2380 C1130 1.561 . S
C2392 C914 1.541 . S
C2407 C950 1.596 . S
C2419 C1022 1.540 . S
C2434 C986 1.595 . S
C2446 C1058 1.523 . S
C2461 C3 1.456 . S
C2473 C759 1.458 . S
C2488 C795 1.446 . S
C2500 C39 1.445 . S
C2515 C831 1.453 . S
C2527 C75 1.442 . S
C2542 C111 1.444 . S
C2554 C723 1.458 . S
C2569 C687 1.446 . S
C2581 C147 1.444 . S
C2596 C183 1.442 . S
C2608 C579 1.452 . S
C2623 C615 1.445 . S
C2635 C219 1.459 . S
C2650 C255 1.457 . S
C2662 C651 1.444 . S
C2677 C1047 1.448 . S
C2689 C291 1.447 . S
C2704 C1083 1.458 . S
C2716 C327 1.450 . S
C2731 C363 1.443 . S
C2743 C1119 1.460 . S
C2758 C1011 1.445 . S
C2770 C399 1.450 . S
C2785 C975 1.459 . S
C2797 C435 1.449 . S
C2812 C471 1.457 . S
C2824 C867 1.452 . S
C2839 C903 1.447 . S
C2851 C507 1.448 . S
C2866 C543 1.456 . S
C2878 C939 1.453 . S
