# Generated by pormake.
# Topology acs-a, (4)-cn, num edge types: 1
# Building blocks:
#     Node 0, Type 0, BuildingBlock: NAHDIM_clean_sbu_0, # of connection points: 4
#     Node 1, Type 0, BuildingBlock: NAHDIM_clean_sbu_0, # of connection points: 4
#     Node 2, Type 0, BuildingBlock: NAHDIM_clean_sbu_0, # of connection points: 4
#     Node 3, Type 0, BuildingBlock: NAHDIM_clean_sbu_0, # of connection points: 4
#     Node 4, Type 0, BuildingBlock: NAHDIM_clean_sbu_0, # of connection points: 4
#     Node 5, Type 0, BuildingBlock: NAHDIM_clean_sbu_0, # of connection points: 4
#     Node 6, Type 0, BuildingBlock: NAHDIM_clean_sbu_0, # of connection points: 4
#     Node 7, Type 0, BuildingBlock: NAHDIM_clean_sbu_0, # of connection points: 4
#     Node 8, Type 0, BuildingBlock: NAHDIM_clean_sbu_0, # of connection points: 4
#     Node 9, Type 0, BuildingBlock: NAHDIM_clean_sbu_0, # of connection points: 4
#     Node 10, Type 0, BuildingBlock: NAHDIM_clean_sbu_0, # of connection points: 4
#     Node 11, Type 0, BuildingBlock: NAHDIM_clean_sbu_0, # of connection points: 4
#     Edge 12, Type (0, 0), BuildingBlock: MIFKUJ_clean_linker_0, # of connection points: 2
#     Edge 13, Type (0, 0), BuildingBlock: MIFKUJ_clean_linker_0, # of connection points: 2
#     Edge 14, Type (0, 0), BuildingBlock: MIFKUJ_clean_linker_0, # of connection points: 2
#     Edge 15, Type (0, 0), BuildingBlock: MIFKUJ_clean_linker_0, # of connection points: 2
#     Edge 16, Type (0, 0), BuildingBlock: MIFKUJ_clean_linker_0, # of connection points: 2
#     Edge 17, Type (0, 0), BuildingBlock: MIFKUJ_clean_linker_0, # of connection points: 2
#     Edge 18, Type (0, 0), BuildingBlock: MIFKUJ_clean_linker_0, # of connection points: 2
#     Edge 19, Type (0, 0), BuildingBlock: MIFKUJ_clean_linker_0, # of connection points: 2
#     Edge 20, Type (0, 0), BuildingBlock: MIFKUJ_clean_linker_0, # of connection points: 2
#     Edge 21, Type (0, 0), BuildingBlock: MIFKUJ_clean_linker_0, # of connection points: 2
#     Edge 22, Type (0, 0), BuildingBlock: MIFKUJ_clean_linker_0, # of connection points: 2
#     Edge 23, Type (0, 0), BuildingBlock: MIFKUJ_clean_linker_0, # of connection points: 2
#     Edge 24, Type (0, 0), BuildingBlock: MIFKUJ_clean_linker_0, # of connection points: 2
#     Edge 25, Type (0, 0), BuildingBlock: MIFKUJ_clean_linker_0, # of connection points: 2
#     Edge 26, Type (0, 0), BuildingBlock: MIFKUJ_clean_linker_0, # of connection points: 2
#     Edge 27, Type (0, 0), BuildingBlock: MIFKUJ_clean_linker_0, # of connection points: 2
#     Edge 28, Type (0, 0), BuildingBlock: MIFKUJ_clean_linker_0, # of connection points: 2
#     Edge 29, Type (0, 0), BuildingBlock: MIFKUJ_clean_linker_0, # of connection points: 2
#     Edge 30, Type (0, 0), BuildingBlock: MIFKUJ_clean_linker_0, # of connection points: 2
#     Edge 31, Type (0, 0), BuildingBlock: MIFKUJ_clean_linker_0, # of connection points: 2
#     Edge 32, Type (0, 0), BuildingBlock: MIFKUJ_clean_linker_0, # of connection points: 2
#     Edge 33, Type (0, 0), BuildingBlock: MIFKUJ_clean_linker_0, # of connection points: 2
#     Edge 34, Type (0, 0), BuildingBlock: MIFKUJ_clean_linker_0, # of connection points: 2
#     Edge 35, Type (0, 0), BuildingBlock: MIFKUJ_clean_linker_0, # of connection points: 2
# Relax obj value: 0.414
# Max RMSD: 0.205
# Mean RMSD: 0.200
data_MOF--net-acs-a--node1-NAHDIM_clean_sbu_0--edge1-MIFKUJ_clean_linker_0
_symmetry_space_group_name_H-M    P1
_symmetry_Int_Tables_number       1
_symmetry_cell_setting            triclinic
loop_
_symmetry_equiv_pos_as_xyz
'x, y, z'
_cell_length_a     61.470526
_cell_length_b     61.38975
_cell_length_c     55.368416
_cell_angle_alpha  89.969089
_cell_angle_beta   90.017807
_cell_angle_gamma 115.05837
loop_
_atom_site_label
_atom_site_type_symbol
_atom_site_fract_x
_atom_site_fract_y
_atom_site_fract_z
_atom_type_partial_charge
C0 C 0.55744 0.09185 0.05769 0.0
O1 O 0.54765 0.09217 0.0787 0.0
O2 O 0.58492 0.1657 0.06236 0.0
Zn3 Zn 0.59464 0.13923 0.0707 0.0
O4 O 0.59083 0.13212 0.10628 0.0
C5 C 0.64722 0.15737 0.07438 0.0
O6 O 0.64429 0.15742 0.09788 0.0
O7 O 0.57632 0.10982 0.05119 0.0
C8 C 0.59693 0.11672 0.11582 0.0
O9 O 0.60549 0.10475 0.10203 0.0
C10 C 0.5706 0.171 0.07499 0.0
O11 O 0.56049 0.158 0.09414 0.0
O12 O 0.62903 0.15054 0.06058 0.0
C13 C 0.45233 0.56775 0.57465 0.0
O14 O 0.43651 0.55356 0.59018 0.0
O15 O 0.39825 0.58034 0.57972 0.0
Zn16 Zn 0.43223 0.59873 0.59091 0.0
O17 O 0.43414 0.59231 0.62627 0.0
C18 C 0.42972 0.63907 0.56803 0.0
O19 O 0.4183 0.62252 0.55183 0.0
O20 O 0.45421 0.58899 0.57169 0.0
C21 C 0.42671 0.6031 0.64149 0.0
O22 O 0.41884 0.61868 0.63367 0.0
C23 C 0.38128 0.56475 0.59191 0.0
O24 O 0.386 0.55779 0.61293 0.0
O25 O 0.43926 0.63356 0.58602 0.0
C26 C 0.91136 0.41493 0.02034 0.0
O27 O 0.91316 0.39949 0.03574 0.0
O28 O 0.85225 0.35335 0.01144 0.0
Zn29 Zn 0.86171 0.38543 0.02733 0.0
O30 O 0.8689 0.3823 0.06224 0.0
C31 C 0.81714 0.38525 0.04158 0.0
O32 O 0.81817 0.36944 0.05699 0.0
O33 O 0.89072 0.41167 0.01268 0.0
C34 C 0.87476 0.39997 0.07664 0.0
O35 O 0.87599 0.42058 0.06855 0.0
C36 C 0.85998 0.33868 0.01987 0.0
O37 O 0.8764 0.34597 0.0369 0.0
O38 O 0.8339 0.39461 0.02619 0.0
C39 C 0.38515 0.89481 0.56764 0.0
O40 O 0.37411 0.87258 0.55985 0.0
O41 O 0.35894 0.84355 0.5992 0.0
Zn42 Zn 0.35433 0.87338 0.60694 0.0
O43 O 0.3598 0.87783 0.64266 0.0
C44 C 0.31376 0.86949 0.57721 0.0
O45 O 0.32997 0.87895 0.56023 0.0
O46 O 0.37908 0.90038 0.58786 0.0
C47 C 0.34594 0.86002 0.65522 0.0
O48 O 0.32804 0.84247 0.6444 0.0
C49 C 0.37735 0.84196 0.60789 0.0
O50 O 0.39205 0.85936 0.62172 0.0
O51 O 0.32044 0.86706 0.59837 0.0
C52 C 0.56166 0.4803 0.04402 0.0
O53 O 0.57551 0.49543 0.06026 0.0
O54 O 0.61085 0.45573 0.06168 0.0
Zn55 Zn 0.57552 0.44538 0.06735 0.0
O56 O 0.57009 0.45281 0.10158 0.0
C57 C 0.5679 0.40111 0.04554 0.0
O58 O 0.58163 0.41609 0.02912 0.0
O59 O 0.55987 0.45891 0.0436 0.0
C60 C 0.54999 0.44076 0.11173 0.0
O61 O 0.53248 0.42471 0.09903 0.0
C62 C 0.61976 0.4462 0.07684 0.0
O63 O 0.60624 0.43372 0.09481 0.0
O64 O 0.56131 0.4095 0.06367 0.0
C65 C 0.08413 0.55574 0.58004 0.0
O66 O 0.09013 0.54462 0.59729 0.0
O67 O 0.13936 0.63113 0.58375 0.0
Zn68 Zn 0.12601 0.59717 0.59578 0.0
O69 O 0.11938 0.59687 0.63131 0.0
C70 C 0.16427 0.59025 0.57217 0.0
O71 O 0.16178 0.60485 0.55618 0.0
O72 O 0.09656 0.57808 0.57682 0.0
C73 C 0.13779 0.60462 0.64487 0.0
O74 O 0.1591 0.61147 0.63498 0.0
C75 C 0.13416 0.647 0.5936 0.0
O76 O 0.11961 0.64116 0.61227 0.0
O77 O 0.15049 0.58399 0.59044 0.0
C78 C 0.91406 0.42315 0.39796 0.0
O79 O 0.90825 0.4346 0.38088 0.0
O80 O 0.84998 0.3961 0.38418 0.0
Zn81 Zn 0.87448 0.38295 0.37829 0.0
O82 O 0.88431 0.38734 0.34345 0.0
C83 C 0.85444 0.34285 0.40944 0.0
O84 O 0.85926 0.36031 0.42517 0.0
O85 O 0.90245 0.40053 0.39978 0.0
C86 C 0.8878 0.37166 0.33115 0.0
O87 O 0.88572 0.35167 0.34162 0.0
C88 C 0.84685 0.41059 0.36969 0.0
O89 O 0.85988 0.41726 0.34995 0.0
O90 O 0.85978 0.34812 0.38739 0.0
C91 C 0.4739 0.87053 0.92668 0.0
O92 O 0.46263 0.86828 0.90602 0.0
O93 O 0.41444 0.81763 0.94001 0.0
Zn94 Zn 0.44587 0.82022 0.92658 0.0
O95 O 0.44343 0.82044 0.89041 0.0
C96 C 0.4426 0.78149 0.95755 0.0
O97 O 0.43072 0.79034 0.97108 0.0
O98 O 0.47085 0.85172 0.93853 0.0
C99 C 0.42559 0.80412 0.87992 0.0
O100 O 0.41042 0.78609 0.89278 0.0
C101 C 0.40253 0.8276 0.92969 0.0
O102 O 0.41058 0.83958 0.90952 0.0
O103 O 0.45163 0.79187 0.93774 0.0
C104 C 0.58119 0.46937 0.42775 0.0
O105 O 0.59515 0.48142 0.40985 0.0
O106 O 0.58549 0.39877 0.41951 0.0
Zn107 Zn 0.59364 0.43283 0.4096 0.0
O108 O 0.58462 0.43474 0.37498 0.0
C109 C 0.64357 0.4608 0.39603 0.0
O110 O 0.63451 0.46441 0.37573 0.0
O111 O 0.5778 0.44774 0.43138 0.0
C112 C 0.56356 0.43052 0.36787 0.0
O113 O 0.54595 0.424 0.38362 0.0
C114 C 0.56813 0.37959 0.41249 0.0
O115 O 0.55214 0.38087 0.39751 0.0
O116 O 0.62948 0.44945 0.41306 0.0
C117 C 0.10802 0.64241 0.98242 0.0
O118 O 0.12878 0.64623 0.99223 0.0
O119 O 0.16001 0.65247 0.95152 0.0
Zn120 Zn 0.13848 0.66875 0.94375 0.0
O121 O 0.13169 0.66364 0.90823 0.0
C122 C 0.16303 0.71202 0.97188 0.0
O123 O 0.15469 0.69733 0.99031 0.0
O124 O 0.10774 0.65213 0.96222 0.0
C125 C 0.14946 0.66677 0.89468 0.0
O126 O 0.17099 0.6746 0.90431 0.0
C127 C 0.15231 0.63002 0.9477 0.0
O128 O 0.13028 0.61805 0.9397 0.0
O129 O 0.15673 0.70395 0.95067 0.0
C130 C 0.5794 0.07322 0.4365 0.0
O131 O 0.58912 0.06919 0.41686 0.0
O132 O 0.6395 0.13432 0.43475 0.0
Zn133 Zn 0.60554 0.12319 0.42352 0.0
O134 O 0.60315 0.11586 0.38801 0.0
C135 C 0.60624 0.16797 0.44156 0.0
O136 O 0.62587 0.17001 0.45273 0.0
O137 O 0.58411 0.09468 0.44255 0.0
C138 C 0.61817 0.13127 0.37394 0.0
O139 O 0.63488 0.15099 0.38313 0.0
C140 C 0.65465 0.12746 0.42598 0.0
O141 O 0.64797 0.11111 0.40887 0.0
O142 O 0.59484 0.14961 0.42851 0.0
C143 C 0.34611 0.45575 0.94955 0.0
O144 O 0.33332 0.43311 0.95532 0.0
O145 O 0.37383 0.52554 0.95131 0.0
Zn146 Zn 0.34863 0.50211 0.92909 0.0
O147 O 0.36035 0.50811 0.89465 0.0
C148 C 0.31618 0.51896 0.95089 0.0
O149 O 0.3288 0.5196 0.97025 0.0
O150 O 0.33596 0.46703 0.93839 0.0
C151 C 0.36219 0.52788 0.88564 0.0
O152 O 0.3565 0.54236 0.89903 0.0
C153 C 0.3946 0.53992 0.94401 0.0
O154 O 0.40186 0.53656 0.9226 0.0
O155 O 0.32084 0.5112 0.93118 0.0
H156 H 0.58064 0.09844 0.34825 0.0
H157 H 0.57715 0.09377 0.3044 0.0
H158 H 0.64856 0.1504 0.29622 0.0
H159 H 0.65179 0.15574 0.33998 0.0
H160 H 0.62082 0.15723 0.26569 0.0
H161 H 0.63534 0.08936 0.2876 0.0
H162 H 0.62902 0.05229 0.30973 0.0
H163 H 0.55782 0.01713 0.28047 0.0
H164 H 0.5636 0.05411 0.2584 0.0
H165 H 0.61994 0.09569 0.14299 0.0
H166 H 0.62335 0.09591 0.18701 0.0
H167 H 0.57658 0.1319 0.19263 0.0
H168 H 0.57374 0.13245 0.14866 0.0
H169 H 0.59449 0.07861 0.22404 0.0
H170 H 0.59481 0.17246 0.23737 0.0
H171 H 0.60589 0.21027 0.21469 0.0
H172 H 0.6565 0.1949 0.1728 0.0
H173 H 0.64597 0.15719 0.19546 0.0
C174 C 0.59565 0.10979 0.3371 0.0
C175 C 0.61648 0.12748 0.34754 0.0
C176 C 0.59368 0.10702 0.31204 0.0
C177 C 0.61269 0.12155 0.29698 0.0
C178 C 0.63363 0.13901 0.30744 0.0
C179 C 0.63548 0.14201 0.33247 0.0
C180 C 0.61045 0.11926 0.27029 0.0
C181 C 0.61509 0.14002 0.25662 0.0
C182 C 0.60336 0.09689 0.25835 0.0
C183 C 0.59984 0.07458 0.27152 0.0
C184 C 0.61827 0.07378 0.28602 0.0
C185 C 0.6148 0.05277 0.29853 0.0
C186 C 0.59301 0.03239 0.29656 0.0
C187 C 0.57467 0.03295 0.28201 0.0
C188 C 0.57805 0.05392 0.26947 0.0
C189 C 0.61021 0.10346 0.15362 0.0
C190 C 0.59682 0.11433 0.14237 0.0
C191 C 0.61214 0.10352 0.17878 0.0
C192 C 0.6006 0.11433 0.1931 0.0
C193 C 0.58611 0.12397 0.18192 0.0
C194 C 0.58443 0.12419 0.15679 0.0
C195 C 0.60459 0.11653 0.21959 0.0
C196 C 0.60022 0.09578 0.23318 0.0
C197 C 0.61266 0.13903 0.23144 0.0
C198 C 0.61941 0.16189 0.21796 0.0
C199 C 0.60838 0.17721 0.22339 0.0
C200 C 0.61455 0.19861 0.21053 0.0
C201 C 0.63183 0.20495 0.19226 0.0
C202 C 0.64306 0.18994 0.1869 0.0
C203 C 0.63698 0.16854 0.19973 0.0
H204 H 0.63656 0.22151 0.1823 0.0
H205 H 0.59035 0.01614 0.30626 0.0
H206 H 0.43562 0.56747 0.66285 0.0
H207 H 0.42911 0.55476 0.70514 0.0
H208 H 0.40691 0.61115 0.72082 0.0
H209 H 0.41348 0.62407 0.67867 0.0
H210 H 0.43592 0.60621 0.75652 0.0
H211 H 0.36571 0.55574 0.7106 0.0
H212 H 0.34454 0.52787 0.67756 0.0
H213 H 0.36964 0.47686 0.70418 0.0
H214 H 0.39129 0.50464 0.73717 0.0
H215 H 0.36545 0.56756 0.86105 0.0
H216 H 0.38054 0.57984 0.82029 0.0
H217 H 0.39506 0.51725 0.81327 0.0
H218 H 0.37946 0.5045 0.85411 0.0
H219 H 0.37384 0.52391 0.77349 0.0
H220 H 0.44078 0.57287 0.82215 0.0
H221 H 0.46168 0.60082 0.8552 0.0
H222 H 0.44311 0.65466 0.82379 0.0
H223 H 0.42177 0.62689 0.79074 0.0
C224 C 0.42961 0.57734 0.67535 0.0
C225 C 0.42487 0.59667 0.66737 0.0
C226 C 0.42585 0.57002 0.69948 0.0
C227 C 0.41729 0.58187 0.71601 0.0
C228 C 0.41351 0.60177 0.70832 0.0
C229 C 0.41718 0.60905 0.6842 0.0
C230 C 0.41097 0.57281 0.741 0.0
C231 C 0.42227 0.58828 0.76029 0.0
C232 C 0.39358 0.54919 0.74582 0.0
C233 C 0.38033 0.53237 0.72618 0.0
C234 C 0.36686 0.53866 0.7093 0.0
C235 C 0.35476 0.52288 0.6906 0.0
C236 C 0.3558 0.50064 0.68874 0.0
C237 C 0.36888 0.49411 0.70562 0.0
C238 C 0.38107 0.50987 0.72432 0.0
C239 C 0.37187 0.55637 0.8509 0.0
C240 C 0.37131 0.53507 0.86084 0.0
C241 C 0.38064 0.56351 0.82762 0.0
C242 C 0.38931 0.54968 0.81388 0.0
C243 C 0.38856 0.52825 0.82362 0.0
C244 C 0.37966 0.52101 0.84694 0.0
C245 C 0.39855 0.55743 0.78913 0.0
C246 C 0.38777 0.54173 0.76983 0.0
C247 C 0.41645 0.58084 0.78432 0.0
C248 C 0.42952 0.59772 0.80404 0.0
C249 C 0.44101 0.59061 0.82236 0.0
C250 C 0.45296 0.60643 0.8411 0.0
C251 C 0.45369 0.62949 0.84162 0.0
C252 C 0.44252 0.63679 0.82337 0.0
C253 C 0.43052 0.62103 0.80461 0.0
H254 H 0.46293 0.6417 0.85614 0.0
H255 H 0.34642 0.48844 0.67425 0.0
H256 H 0.88485 0.43296 0.11298 0.0
H257 H 0.89178 0.42761 0.15557 0.0
H258 H 0.88341 0.35548 0.14079 0.0
H259 H 0.87602 0.36051 0.09825 0.0
H260 H 0.85796 0.3561 0.17909 0.0
H261 H 0.93878 0.40081 0.15287 0.0
H262 H 0.97246 0.43407 0.13305 0.0
H263 H 0.96467 0.48454 0.18199 0.0
H264 H 0.93069 0.45161 0.2019 0.0
H265 H 0.89063 0.33973 0.29817 0.0
H266 H 0.8934 0.34424 0.2542 0.0
H267 H 0.89672 0.41559 0.26074 0.0
H268 H 0.8942 0.41138 0.30459 0.0
H269 H 0.92746 0.41333 0.22599 0.0
H270 H 0.84422 0.36907 0.24903 0.0
H271 H 0.81027 0.33592 0.26868 0.0
H272 H 0.82296 0.28456 0.22518 0.0
H273 H 0.85722 0.31743 0.2055 0.0
C274 C 0.88462 0.41601 0.11876 0.0
C275 C 0.87984 0.39715 0.10225 0.0
C276 C 0.88873 0.41303 0.14308 0.0
C277 C 0.88839 0.39124 0.1513 0.0
C278 C 0.8838 0.37245 0.13482 0.0
C279 C 0.87959 0.37538 0.11052 0.0
C280 C 0.89161 0.38765 0.17729 0.0
C281 C 0.87341 0.36836 0.18923 0.0
C282 C 0.91154 0.40389 0.19061 0.0
C283 C 0.93205 0.42375 0.17875 0.0
C284 C 0.94412 0.41902 0.15929 0.0
C285 C 0.96329 0.43781 0.14806 0.0
C286 C 0.97067 0.46141 0.15622 0.0
C287 C 0.95893 0.46625 0.17568 0.0
C288 C 0.93973 0.44753 0.18696 0.0
C289 C 0.89226 0.3565 0.29027 0.0
C290 C 0.89194 0.3751 0.30484 0.0
C291 C 0.89378 0.35901 0.26516 0.0
C292 C 0.89495 0.38013 0.25425 0.0
C293 C 0.8958 0.39915 0.26881 0.0
C294 C 0.89424 0.39665 0.29388 0.0
C295 C 0.89372 0.38196 0.22768 0.0
C296 C 0.91223 0.40093 0.21569 0.0
C297 C 0.87409 0.36542 0.21426 0.0
C298 C 0.85344 0.34567 0.226 0.0
C299 C 0.83989 0.35069 0.2438 0.0
C300 C 0.82057 0.33196 0.25491 0.0
C301 C 0.81451 0.30814 0.24824 0.0
C302 C 0.82771 0.30301 0.23037 0.0
C303 C 0.84707 0.32168 0.21922 0.0
H304 H 0.79954 0.29366 0.25686 0.0
H305 H 0.98552 0.47593 0.1475 0.0
H306 H 0.45096 0.8417 0.84987 0.0
H307 H 0.4379 0.85095 0.81109 0.0
H308 H 0.3734 0.78483 0.81465 0.0
H309 H 0.3864 0.77527 0.85339 0.0
H310 H 0.39198 0.7946 0.76861 0.0
H311 H 0.37154 0.83549 0.83244 0.0
H312 H 0.37985 0.86167 0.86823 0.0
H313 H 0.43001 0.92111 0.82726 0.0
H314 H 0.4223 0.89517 0.79129 0.0
H315 H 0.32124 0.82292 0.68584 0.0
H316 H 0.33514 0.81394 0.72425 0.0
H317 H 0.39958 0.88 0.71938 0.0
H318 H 0.38574 0.88928 0.68092 0.0
H319 H 0.38141 0.87041 0.76588 0.0
H320 H 0.40158 0.82912 0.70192 0.0
H321 H 0.39306 0.80262 0.66635 0.0
H322 H 0.3427 0.7437 0.70772 0.0
H323 H 0.35075 0.76991 0.74352 0.0
C324 C 0.43418 0.8289 0.84224 0.0
C325 C 0.41959 0.80785 0.85485 0.0
C326 C 0.42671 0.83428 0.82012 0.0
C327 C 0.40449 0.81879 0.81026 0.0
C328 C 0.39056 0.79707 0.82204 0.0
C329 C 0.39802 0.79166 0.84419 0.0
C330 C 0.39512 0.82594 0.78848 0.0
C331 C 0.38942 0.81103 0.76808 0.0
C332 C 0.39213 0.84758 0.78774 0.0
C333 C 0.39652 0.86333 0.80923 0.0
C334 C 0.38447 0.85411 0.8311 0.0
C335 C 0.38906 0.8689 0.85142 0.0
C336 C 0.4055 0.89302 0.85004 0.0
C337 C 0.41731 0.90241 0.82831 0.0
C338 C 0.41283 0.88768 0.80794 0.0
C339 C 0.3382 0.83576 0.69308 0.0
C340 C 0.35251 0.85671 0.6802 0.0
C341 C 0.34616 0.83053 0.71499 0.0
C342 C 0.36859 0.84607 0.72436 0.0
C343 C 0.38227 0.86771 0.71234 0.0
C344 C 0.37432 0.87298 0.69038 0.0
C345 C 0.3783 0.83909 0.74601 0.0
C346 C 0.38402 0.85401 0.76639 0.0
C347 C 0.38125 0.81743 0.74675 0.0
C348 C 0.37661 0.80154 0.72534 0.0
C349 C 0.38857 0.81056 0.70339 0.0
C350 C 0.38384 0.79558 0.68319 0.0
C351 C 0.36728 0.77153 0.68474 0.0
C352 C 0.35549 0.76235 0.70653 0.0
C353 C 0.36017 0.77724 0.7268 0.0
H354 H 0.36362 0.75998 0.66907 0.0
H355 H 0.40904 0.90445 0.86579 0.0
H356 H 0.52064 0.41124 0.34381 0.0
H357 H 0.51388 0.41427 0.30049 0.0
H358 H 0.5895 0.45847 0.29047 0.0
H359 H 0.59649 0.45523 0.33351 0.0
H360 H 0.55791 0.47574 0.2668 0.0
H361 H 0.57088 0.40361 0.27611 0.0
H362 H 0.56252 0.36374 0.29316 0.0
H363 H 0.49033 0.33608 0.26605 0.0
H364 H 0.49819 0.37594 0.24914 0.0
H365 H 0.58371 0.46987 0.1436 0.0
H366 H 0.5809 0.46968 0.18753 0.0
H367 H 0.50771 0.41585 0.1837 0.0
H368 H 0.51049 0.41564 0.13964 0.0
H369 H 0.53248 0.40303 0.21522 0.0
H370 H 0.52036 0.47339 0.20153 0.0
H371 H 0.52802 0.51308 0.18447 0.0
H372 H 0.5967 0.54412 0.21967 0.0
H373 H 0.58961 0.50453 0.23667 0.0
C374 C 0.53579 0.42169 0.33237 0.0
C375 C 0.55911 0.4329 0.342 0.0
C376 C 0.5319 0.42338 0.30768 0.0
C377 C 0.55121 0.43658 0.29237 0.0
C378 C 0.57438 0.44826 0.30205 0.0
C379 C 0.57834 0.44627 0.3266 0.0
C380 C 0.54757 0.43759 0.26607 0.0
C381 C 0.55247 0.45991 0.25543 0.0
C382 C 0.53976 0.41677 0.25149 0.0
C383 C 0.53502 0.39283 0.26166 0.0
C384 C 0.55315 0.3891 0.27401 0.0
C385 C 0.54852 0.36648 0.2836 0.0
C386 C 0.52588 0.34741 0.28077 0.0
C387 C 0.50784 0.35089 0.26828 0.0
C388 C 0.51237 0.37348 0.25869 0.0
C389 C 0.56688 0.45823 0.15205 0.0
C390 C 0.54735 0.4427 0.13811 0.0
C391 C 0.56527 0.45822 0.1772 0.0
C392 C 0.54403 0.44288 0.18892 0.0
C393 C 0.52426 0.42785 0.17503 0.0
C394 C 0.52587 0.42781 0.14984 0.0
C395 C 0.54319 0.44134 0.21568 0.0
C396 C 0.53751 0.41888 0.22649 0.0
C397 C 0.55012 0.46204 0.23042 0.0
C398 C 0.55451 0.48592 0.22023 0.0
C399 C 0.53718 0.48863 0.20548 0.0
C400 C 0.54141 0.51113 0.19585 0.0
C401 C 0.56285 0.5311 0.20095 0.0
C402 C 0.5801 0.52863 0.21573 0.0
C403 C 0.57597 0.50617 0.22539 0.0
H404 H 0.56609 0.5485 0.19348 0.0
H405 H 0.52233 0.32991 0.28819 0.0
H406 H 0.17317 0.61659 0.67863 0.0
H407 H 0.17037 0.6232 0.7217 0.0
H408 H 0.09488 0.60535 0.71388 0.0
H409 H 0.09755 0.59879 0.67052 0.0
H410 H 0.11847 0.64676 0.73947 0.0
H411 H 0.11137 0.56664 0.7419 0.0
H412 H 0.12173 0.53294 0.73247 0.0
H413 H 0.19036 0.5701 0.76668 0.0
H414 H 0.18057 0.60421 0.776 0.0
H415 H 0.10774 0.65111 0.8685 0.0
H416 H 0.10171 0.63751 0.82643 0.0
H417 H 0.17676 0.65265 0.82086 0.0
H418 H 0.18293 0.66612 0.86278 0.0
H419 H 0.14762 0.60837 0.80279 0.0
H420 H 0.15602 0.6901 0.79613 0.0
H421 H 0.14572 0.72393 0.8052 0.0
H422 H 0.0741 0.68315 0.77885 0.0
H423 H 0.0839 0.64893 0.76992 0.0
C424 C 0.1559 0.61388 0.68605 0.0
C425 C 0.13558 0.60718 0.67117 0.0
C426 C 0.15432 0.61756 0.71071 0.0
C427 C 0.13237 0.61455 0.721 0.0
C428 C 0.11196 0.60768 0.70626 0.0
C429 C 0.11351 0.60388 0.68154 0.0
C430 C 0.13125 0.61975 0.74696 0.0
C431 C 0.12434 0.63802 0.7534 0.0
C432 C 0.13929 0.60858 0.76502 0.0
C433 C 0.14528 0.58808 0.75949 0.0
C434 C 0.12875 0.56772 0.74724 0.0
C435 C 0.13451 0.54852 0.74195 0.0
C436 C 0.1567 0.54939 0.74893 0.0
C437 C 0.17317 0.56945 0.76127 0.0
C438 C 0.16751 0.58872 0.76659 0.0
C439 C 0.12298 0.65168 0.85826 0.0
C440 C 0.14583 0.65976 0.86895 0.0
C441 C 0.1195 0.64392 0.83424 0.0
C442 C 0.13881 0.64415 0.82055 0.0
C443 C 0.16162 0.65229 0.83115 0.0
C444 C 0.16513 0.66011 0.85508 0.0
C445 C 0.13539 0.63576 0.79518 0.0
C446 C 0.14141 0.61686 0.78889 0.0
C447 C 0.1265 0.64631 0.77728 0.0
C448 C 0.1206 0.66686 0.78264 0.0
C449 C 0.13801 0.68827 0.79248 0.0
C450 C 0.13228 0.70753 0.79755 0.0
C451 C 0.10925 0.70566 0.79268 0.0
C452 C 0.09192 0.68455 0.78266 0.0
C453 C 0.09755 0.66522 0.77758 0.0
H454 H 0.10485 0.7206 0.79661 0.0
H455 H 0.16112 0.53451 0.74482 0.0
H456 H 0.57608 0.08501 0.01527 0.0
H457 H 0.56261 0.04841 0.99125 0.0
H458 H 0.50453 0.01261 0.04129 0.0
H459 H 0.5179 0.04936 0.06562 0.0
H460 H 0.55976 0.00468 0.00503 0.0
H461 H 0.45676 0.97239 0.00755 0.0
H462 H 0.42703 0.98949 0.01037 0.0
H463 H 0.4775 0.05539 0.97866 0.0
H464 H 0.50738 0.03857 0.97534 0.0
H465 H 0.49607 0.88158 0.97077 0.0
H466 H 0.51197 0.92061 0.99104 0.0
H467 H 0.49587 0.95265 0.92816 0.0
H468 H 0.47979 0.91372 0.9078 0.0
H469 H 0.4785 0.96362 0.96902 0.0
H470 H 0.55305 0.96492 0.94156 0.0
H471 H 0.58364 0.94924 0.93637 0.0
H472 H 0.592 0.94823 0.01331 0.0
H473 H 0.5612 0.96361 0.01897 0.0
C474 C 0.56032 0.06944 0.02115 0.0
C475 C 0.54807 0.07007 0.04242 0.0
C476 C 0.55273 0.04851 0.00742 0.0
C477 C 0.53263 0.02786 0.01452 0.0
C478 C 0.52002 0.02847 0.03546 0.0
C479 C 0.52769 0.04944 0.04933 0.0
C480 C 0.52535 0.00556 0.00022 0.0
C481 C 0.54199 0.99566 0.99717 0.0
C482 C 0.50229 0.99407 0.98974 0.0
C483 C 0.48438 0.00429 0.99146 0.0
C484 C 0.46148 0.9905 0.00112 0.0
C485 C 0.44461 0.00014 0.00281 0.0
C486 C 0.4504 0.02354 0.99478 0.0
C487 C 0.47306 0.03731 0.98497 0.0
C488 C 0.48999 0.02774 0.98322 0.0
C489 C 0.49625 0.897 0.9611 0.0
C490 C 0.48658 0.89454 0.93772 0.0
C491 C 0.50535 0.91928 0.97271 0.0
C492 C 0.50503 0.93946 0.96109 0.0
C493 C 0.49614 0.93723 0.93746 0.0
C494 C 0.48709 0.91499 0.92582 0.0
C495 C 0.51285 0.96263 0.97398 0.0
C496 C 0.49628 0.97263 0.97688 0.0
C497 C 0.53609 0.9744 0.98404 0.0
C498 C 0.55466 0.96521 0.98069 0.0
C499 C 0.56127 0.96117 0.95738 0.0
C500 C 0.57867 0.95238 0.95435 0.0
C501 C 0.58971 0.94769 0.9745 0.0
C502 C 0.58341 0.95185 0.99772 0.0
C503 C 0.566 0.96063 0.00085 0.0
H504 H 0.60319 0.94088 0.97212 0.0
H505 H 0.43732 0.03097 0.99612 0.0
H506 H 0.48566 0.59197 0.54011 0.0
H507 H 0.50932 0.57671 0.51569 0.0
H508 H 0.4762 0.5083 0.55217 0.0
H509 H 0.45268 0.52347 0.57686 0.0
H510 H 0.52423 0.52295 0.54714 0.0
H511 H 0.45767 0.51526 0.49658 0.0
H512 H 0.43083 0.52957 0.47552 0.0
H513 H 0.49064 0.5801 0.43529 0.0
H514 H 0.51791 0.56631 0.45638 0.0
H515 H 0.55059 0.44899 0.46542 0.0
H516 H 0.53069 0.46754 0.49082 0.0
H517 H 0.56515 0.53385 0.45098 0.0
H518 H 0.58491 0.51531 0.42519 0.0
H519 H 0.51817 0.52216 0.45774 0.0
H520 H 0.58453 0.52849 0.50713 0.0
H521 H 0.61116 0.51384 0.52809 0.0
H522 H 0.55173 0.4657 0.57047 0.0
H523 H 0.52466 0.47982 0.54951 0.0
C524 C 0.48346 0.5737 0.543 0.0
C525 C 0.4672 0.55888 0.56034 0.0
C526 C 0.49693 0.56499 0.52898 0.0
C527 C 0.49429 0.5413 0.53195 0.0
C528 C 0.47847 0.52664 0.54958 0.0
C529 C 0.46499 0.53532 0.56361 0.0
C530 C 0.50779 0.53164 0.5165 0.0
C531 C 0.52273 0.52253 0.5276 0.0
C532 C 0.50624 0.53166 0.491 0.0
C533 C 0.48986 0.53993 0.47825 0.0
C534 C 0.46513 0.52956 0.48339 0.0
C535 C 0.44983 0.53755 0.47142 0.0
C536 C 0.45903 0.55579 0.45413 0.0
C537 C 0.48355 0.56601 0.44872 0.0
C538 C 0.49893 0.5581 0.46066 0.0
C539 C 0.55401 0.46754 0.46208 0.0
C540 C 0.56939 0.4807 0.44332 0.0
C541 C 0.5427 0.47815 0.47669 0.0
C542 C 0.54669 0.50216 0.47296 0.0
C543 C 0.5619 0.51531 0.45418 0.0
C544 C 0.5732 0.5047 0.43951 0.0
C545 C 0.53452 0.51333 0.48837 0.0
C546 C 0.51981 0.52271 0.47726 0.0
C547 C 0.53627 0.51354 0.51387 0.0
C548 C 0.55253 0.50507 0.52659 0.0
C549 C 0.5771 0.51465 0.52078 0.0
C550 C 0.59228 0.50646 0.53269 0.0
C551 C 0.58313 0.48881 0.55056 0.0
C552 C 0.55879 0.47936 0.5566 0.0
C553 C 0.54352 0.48746 0.54473 0.0
H554 H 0.59491 0.4825 0.55976 0.0
H555 H 0.44716 0.56195 0.44487 0.0
H556 H 0.06249 0.62712 0.9644 0.0
H557 H 0.02795 0.58965 0.97422 0.0
H558 H 0.0687 0.57557 0.03064 0.0
H559 H 0.10341 0.61294 0.02088 0.0
H560 H 0.0504 0.53892 0.99836 0.0
H561 H 0.02127 0.58677 0.04481 0.0
H562 H 0.00997 0.62018 0.05249 0.0
H563 H 0.95679 0.59429 0.99646 0.0
H564 H 0.968 0.56089 0.98819 0.0
H565 H 0.95566 0.4318 0.04127 0.0
H566 H 0.9886 0.47159 0.0365 0.0
H567 H 0.94766 0.4895 0.98309 0.0
H568 H 0.91432 0.44988 0.9882 0.0
H569 H 0.96616 0.52452 0.01527 0.0
H570 H 0.99606 0.47809 0.96735 0.0
H571 H 0.00745 0.44494 0.95854 0.0
H572 H 0.05934 0.46851 0.01589 0.0
H573 H 0.04803 0.50164 0.02525 0.0
C574 C 0.06394 0.61637 0.97929 0.0
C575 C 0.08579 0.62285 0.99167 0.0
C576 C 0.04415 0.59497 0.98491 0.0
C577 C 0.04585 0.57982 0.00307 0.0
C578 C 0.06711 0.58701 0.01648 0.0
C579 C 0.08689 0.60842 0.01093 0.0
C580 C 0.02645 0.5554 0.00623 0.0
C581 C 0.03204 0.53574 0.00251 0.0
C582 C 0.00243 0.55137 0.01081 0.0
C583 C 0.99564 0.57144 0.01574 0.0
C584 C 0.00731 0.58831 0.03398 0.0
C585 C 0.00089 0.60723 0.03847 0.0
C586 C 0.98272 0.60939 0.02493 0.0
C587 C 0.97088 0.5926 0.00691 0.0
C588 C 0.97724 0.57366 0.00234 0.0
C589 C 0.95377 0.44406 0.02824 0.0
C590 C 0.93237 0.43771 0.01512 0.0
C591 C 0.97265 0.4668 0.02552 0.0
C592 C 0.97062 0.48346 0.00936 0.0
C593 C 0.94954 0.47693 0.99573 0.0
C594 C 0.93057 0.45424 0.99857 0.0
C595 C 0.99011 0.50803 0.00737 0.0
C596 C 0.98454 0.5277 0.01125 0.0
C597 C 0.01417 0.51211 0.00277 0.0
C598 C 0.02102 0.4922 0.99715 0.0
C599 C 0.00976 0.47609 0.97821 0.0
C600 C 0.01623 0.45732 0.97309 0.0
C601 C 0.03406 0.45458 0.98669 0.0
C602 C 0.04551 0.47064 0.00539 0.0
C603 C 0.03909 0.48943 0.0106 0.0
H604 H 0.03905 0.44004 0.98269 0.0
H605 H 0.97777 0.62404 0.02844 0.0
H606 H 0.56015 0.0251 0.42595 0.0
H607 H 0.52884 0.99249 0.44849 0.0
H608 H 0.5279 0.0435 0.50157 0.0
H609 H 0.55919 0.07602 0.47944 0.0
H610 H 0.52524 0.00213 0.52236 0.0
H611 H 0.48702 0.02552 0.45708 0.0
H612 H 0.48066 0.03277 0.41439 0.0
H613 H 0.4635 0.959 0.39758 0.0
H614 H 0.47006 0.95141 0.44014 0.0
H615 H 0.41185 0.94243 0.57786 0.0
H616 H 0.44641 0.97096 0.55534 0.0
H617 H 0.43887 0.91554 0.50375 0.0
H618 H 0.4041 0.88709 0.5258 0.0
H619 H 0.44716 0.95655 0.48142 0.0
H620 H 0.48221 0.93204 0.54707 0.0
H621 H 0.48859 0.92448 0.58965 0.0
H622 H 0.51205 -0.00055 0.60576 0.0
H623 H 0.50548 0.00741 0.56332 0.0
C624 C 0.55344 0.02931 0.44255 0.0
C625 C 0.56196 0.05314 0.4508 0.0
C626 C 0.53554 0.0107 0.45534 0.0
C627 C 0.52593 0.0157 0.47651 0.0
C628 C 0.53509 0.03931 0.48526 0.0
C629 C 0.55289 0.05788 0.4725 0.0
C630 C 0.50551 0.99667 0.48906 0.0
C631 C 0.50811 0.99224 0.5135 0.0
C632 C 0.48339 0.98345 0.47726 0.0
C633 C 0.47929 0.98797 0.45172 0.0
C634 C 0.48206 0.0109 0.44424 0.0
C635 C 0.4784 0.01506 0.42008 0.0
C636 C 0.47175 0.99638 0.40327 0.0
C637 C 0.46869 0.97347 0.41061 0.0
C638 C 0.47237 0.96922 0.43475 0.0
C639 C 0.41749 0.93636 0.56166 0.0
C640 C 0.40531 0.91251 0.55365 0.0
C641 C 0.43731 0.95262 0.54891 0.0
C642 C 0.4454 0.94522 0.5281 0.0
C643 C 0.43296 0.92157 0.51981 0.0
C644 C 0.4131 0.90535 0.53246 0.0
C645 C 0.46675 0.96218 0.51487 0.0
C646 C 0.46434 0.96623 0.49029 0.0
C647 C 0.48906 0.97497 0.52653 0.0
C648 C 0.49315 0.97028 0.55205 0.0
C649 C 0.48856 0.94689 0.55973 0.0
C650 C 0.49223 0.94253 0.58383 0.0
C651 C 0.50066 0.96146 0.60041 0.0
C652 C 0.50549 0.9848 0.5929 0.0
C653 C 0.50182 0.98925 0.56882 0.0
H654 H 0.5035 0.95806 0.61907 0.0
H655 H 0.46892 -0.00037 0.38457 0.0
H656 H 0.36574 0.44926 0.99109 0.0
H657 H 0.40816 0.46627 0.00206 0.0
H658 H 0.42643 0.50536 0.93471 0.0
H659 H 0.38372 0.48759 0.92342 0.0
H660 H 0.45501 0.48487 0.94179 0.0
H661 H 0.43395 0.53637 0.98868 0.0
H662 H 0.41024 0.54927 0.01637 0.0
H663 H 0.42064 0.50735 0.07346 0.0
H664 H 0.44425 0.49398 0.04616 0.0
H665 H 0.55861 0.52361 0.04127 0.0
H666 H 0.52911 0.53249 0.01853 0.0
H667 H 0.49923 0.46049 0.98944 0.0
H668 H 0.52887 0.45183 0.01129 0.0
H669 H 0.48376 0.5142 0.02442 0.0
H670 H 0.47224 0.45472 0.9378 0.0
H671 H 0.4983 0.44671 0.90871 0.0
H672 H 0.55709 0.51361 0.92743 0.0
H673 H 0.53132 0.52224 0.95638 0.0
C674 C 0.3788 0.46173 0.97878 0.0
C675 C 0.37154 0.4676 0.95666 0.0
C676 C 0.40302 0.47163 0.98514 0.0
C677 C 0.42049 0.48759 0.96947 0.0
C678 C 0.41325 0.49338 0.94724 0.0
C679 C 0.38891 0.48344 0.9409 0.0
C680 C 0.44629 0.49632 0.97575 0.0
C681 C 0.46145 0.49159 0.95973 0.0
C682 C 0.45511 0.5062 -0.00127 0.0
C683 C 0.44087 0.51413 0.01531 0.0
C684 C 0.43108 0.52978 0.0071 0.0
C685 C 0.41767 0.53719 0.02273 0.0
C686 C 0.4139 0.5291 0.04661 0.0
C687 C 0.42359 0.51362 0.05495 0.0
C688 C 0.43706 0.50617 0.03943 0.0
C689 C 0.54606 0.50987 0.0296 0.0
C690 C 0.54601 0.48697 0.02821 0.0
C691 C 0.5292 0.51496 0.01664 0.0
C692 C 0.51205 0.49727 0.00204 0.0
C693 C 0.51259 0.4747 4e-05 0.0
C694 C 0.52947 0.46967 0.0128 0.0
C695 C 0.4918 0.50099 0.9911 0.0
C696 C 0.47767 0.50814 0.00622 0.0
C697 C 0.48429 0.49411 0.96701 0.0
C698 C 0.49981 0.4891 0.94936 0.0
C699 C 0.49067 0.46784 0.9356 0.0
C700 C 0.50542 0.46316 0.91916 0.0
C701 C 0.52934 0.47963 0.91624 0.0
C702 C 0.53857 0.50084 0.92974 0.0
C703 C 0.5239 0.50562 0.9462 0.0
H704 H 0.54073 0.47596 0.90351 0.0
H705 H 0.4035 0.53487 0.05867 0.0
H706 H 0.94316 0.47135 0.39895 0.0
H707 H 0.97182 0.49364 0.43048 0.0
H708 H 0.9549 0.42765 0.46961 0.0
H709 H 0.92618 0.40522 0.43829 0.0
H710 H 0.95455 0.46383 0.49863 0.0
H711 H 0.00643 0.45263 0.43998 0.0
H712 H 0.02388 0.45443 0.39954 0.0
H713 H 0.04932 0.53125 0.39892 0.0
H714 H 0.03171 0.52987 0.43925 0.0
H715 H 0.05379 0.50774 0.58085 0.0
H716 H 0.0237 0.4852 0.55047 0.0
H717 H 0.0404 0.55062 0.51039 0.0
H718 H 0.07042 0.57324 0.54048 0.0
H719 H 0.04071 0.51447 0.48201 0.0
H720 H 0.9891 0.52599 0.54038 0.0
H721 H 0.97143 0.52455 0.58065 0.0
H722 H 0.94535 0.44768 0.58172 0.0
H723 H 0.96318 0.44869 0.54157 0.0
C724 C 0.94566 0.46156 0.41417 0.0
C725 C 0.93244 0.43654 0.41612 0.0
C726 C 0.96205 0.47431 0.43214 0.0
C727 C 0.96548 0.46223 0.45228 0.0
C728 C 0.95243 0.43726 0.4542 0.0
C729 C 0.93614 0.42449 0.43622 0.0
C730 C 0.98239 0.47571 0.4716 0.0
C731 C 0.97347 0.47465 0.49511 0.0
C732 C 0.00689 0.49023 0.46677 0.0
C733 C 0.01754 0.49112 0.44253 0.0
C734 C 0.01556 0.46989 0.43114 0.0
C735 C 0.02552 0.47084 0.40825 0.0
C736 C 0.03764 0.49294 0.39664 0.0
C737 C 0.03989 0.51414 0.40792 0.0
C738 C 0.02994 0.51329 0.4308 0.0
C739 C 0.05088 0.51735 0.56569 0.0
C740 C 0.06455 0.54224 0.56302 0.0
C741 C 0.03366 0.50447 0.54841 0.0
C742 C 0.02988 0.5163 0.52824 0.0
C743 C 0.04314 0.54119 0.5258 0.0
C744 C 0.06023 0.55407 0.54308 0.0
C745 C 0.01289 0.50263 0.50906 0.0
C746 C 0.0218 0.50364 0.48556 0.0
C747 C 0.98838 0.48812 0.5139 0.0
C748 C 0.97771 0.48745 0.53808 0.0
C749 C 0.9798 0.5088 0.5493 0.0
C750 C 0.96972 0.50806 0.57208 0.0
C751 C 0.95734 0.48604 0.58377 0.0
C752 C 0.95498 0.46472 0.57266 0.0
C753 C 0.96506 0.46536 0.54989 0.0
H754 H 0.94953 0.48551 0.6014 0.0
H755 H 0.04534 0.49363 0.37892 0.0
H756 H 0.5426 0.18878 0.09892 0.0
H757 H 0.53917 0.22637 0.09085 0.0
H758 H 0.587 0.24009 0.03001 0.0
H759 H 0.59074 0.20272 0.03805 0.0
H760 H 0.60013 0.27889 0.05866 0.0
H761 H 0.5274 0.22326 0.02145 0.0
H762 H 0.4887 0.18744 0.01919 0.0
H763 H 0.46082 0.21512 0.07669 0.0
H764 H 0.49948 0.25097 0.07953 0.0
H765 H 0.58553 0.37907 0.01323 0.0
H766 H 0.58286 0.33828 0.01552 0.0
H767 H 0.53822 0.32455 0.0789 0.0
H768 H 0.54071 0.36535 0.07675 0.0
H769 H 0.52306 0.28559 0.04764 0.0
H770 H 0.59581 0.34026 0.08587 0.0
H771 H 0.63449 0.37601 0.08885 0.0
H772 H 0.66246 0.35004 0.03004 0.0
H773 H 0.62376 0.31427 0.02643 0.0
C774 C 0.55221 0.19967 0.08368 0.0
C775 C 0.56697 0.19276 0.06916 0.0
C776 C 0.55017 0.22111 0.07905 0.0
C777 C 0.56273 0.23595 0.05974 0.0
C778 C 0.57717 0.22891 0.04501 0.0
C779 C 0.57922 0.20749 0.0496 0.0
C780 C 0.56171 0.25935 0.05556 0.0
C781 C 0.58331 0.28031 0.05583 0.0
C782 C 0.5397 0.26123 0.05251 0.0
C783 C 0.51643 0.23969 0.05085 0.0
C784 C 0.51309 0.22161 0.03375 0.0
C785 C 0.49114 0.20132 0.03234 0.0
C786 C 0.47233 0.19897 0.04783 0.0
C787 C 0.47541 0.21694 0.06473 0.0
C788 C 0.49733 0.23727 0.06623 0.0
C789 C 0.57482 0.36728 0.02745 0.0
C790 C 0.5635 0.37551 0.04495 0.0
C791 C 0.57341 0.34401 0.02877 0.0
C792 C 0.56065 0.32858 0.04759 0.0
C793 C 0.54822 0.33626 0.0643 0.0
C794 C 0.54971 0.35958 0.06306 0.0
C795 C 0.56145 0.30499 0.05066 0.0
C796 C 0.53986 0.28408 0.05028 0.0
C797 C 0.58347 0.30313 0.05367 0.0
C798 C 0.60677 0.32469 0.05571 0.0
C799 C 0.61011 0.34227 0.07341 0.0
C800 C 0.63206 0.36252 0.07524 0.0
C801 C 0.6509 0.36529 0.05964 0.0
C802 C 0.64783 0.34786 0.04211 0.0
C803 C 0.62589 0.32759 0.04016 0.0
H804 H 0.66791 0.38088 0.06123 0.0
H805 H 0.45535 0.18325 0.0467 0.0
H806 H 0.3659 0.5777 0.55042 0.0
H807 H 0.32613 0.57585 0.54264 0.0
H808 H 0.30012 0.53691 0.60915 0.0
H809 H 0.34002 0.53869 0.61724 0.0
H810 H 0.26552 0.52254 0.5701 0.0
H811 H 0.3189 0.59284 0.61299 0.0
H812 H 0.35736 0.62806 0.61975 0.0
H813 H 0.34895 0.65884 0.55271 0.0
H814 H 0.3106 0.62348 0.54529 0.0
H815 H 0.17331 0.55892 0.60109 0.0
H816 H 0.20793 0.54921 0.59956 0.0
H817 H 0.2348 0.59491 0.53715 0.0
H818 H 0.20028 0.60487 0.53861 0.0
H819 H 0.26873 0.60472 0.57195 0.0
H820 H 0.21251 0.53468 0.53123 0.0
H821 H 0.17434 0.49879 0.52558 0.0
H822 H 0.18758 0.46745 0.59009 0.0
H823 H 0.22569 0.50332 0.59632 0.0
C824 C 0.35163 0.56822 0.56316 0.0
C825 C 0.35623 0.55873 0.5847 0.0
C826 C 0.3289 0.56716 0.55864 0.0
C827 C 0.31039 0.5566 0.57552 0.0
C828 C 0.31427 0.54518 0.59595 0.0
C829 C 0.33708 0.54629 0.60056 0.0
C830 C 0.28826 0.56035 0.57341 0.0
C831 C 0.26609 0.54044 0.57067 0.0
C832 C 0.28924 0.5838 0.57387 0.0
C833 C 0.31203 0.60536 0.57844 0.0
C834 C 0.32534 0.60701 0.59957 0.0
C835 C 0.3471 0.627 0.60354 0.0
C836 C 0.35562 0.64562 0.58663 0.0
C837 C 0.34234 0.64435 0.56576 0.0
C838 C 0.32059 0.62433 0.56166 0.0
C839 C 0.18643 0.56671 0.58687 0.0
C840 C 0.18409 0.58274 0.57001 0.0
C841 C 0.20615 0.56104 0.58595 0.0
C842 C 0.22384 0.57123 0.56815 0.0
C843 C 0.2213 0.58684 0.55101 0.0
C844 C 0.20154 0.59245 0.55185 0.0
C845 C 0.24577 0.56688 0.56847 0.0
C846 C 0.26803 0.58677 0.57106 0.0
C847 C 0.24477 0.5434 0.56806 0.0
C848 C 0.22187 0.52179 0.56436 0.0
C849 C 0.20719 0.52023 0.54433 0.0
C850 C 0.18558 0.49987 0.541 0.0
C851 C 0.17851 0.48088 0.5575 0.0
C852 C 0.19307 0.48219 0.57733 0.0
C853 C 0.21469 0.50252 0.58076 0.0
H854 H 0.16178 0.46513 0.55488 0.0
H855 H 0.37248 0.66105 0.58979 0.0
H856 H 0.85538 0.30193 0.04991 0.0
H857 H 0.82288 0.26183 0.04945 0.0
H858 H 0.79992 0.27617 0.97987 0.0
H859 H 0.83179 0.31705 0.98099 0.0
H860 H 0.76578 0.26575 0.00883 0.0
H861 H 0.81579 0.22689 0.99131 0.0
H862 H 0.85095 0.21752 0.9939 0.0
H863 H 0.83352 0.19505 0.06757 0.0
H864 H 0.79845 0.2046 0.06558 0.0
H865 H 0.65906 0.1625 0.02655 0.0
H866 H 0.69889 0.18428 0.00902 0.0
H867 H 0.73029 0.19658 0.0802 0.0
H868 H 0.69042 0.1748 0.09803 0.0
H869 H 0.75925 0.1882 0.04215 0.0
H870 H 0.71579 0.23695 0.06043 0.0
H871 H 0.68075 0.24656 0.05768 0.0
H872 H 0.6871 0.25025 0.98039 0.0
H873 H 0.72198 0.2403 0.9827 0.0
C874 C 0.84397 0.29629 0.03408 0.0
C875 C 0.84578 0.31274 0.0157 0.0
C876 C 0.8254 0.27316 0.03374 0.0
C877 C 0.80875 0.26588 0.01467 0.0
C878 C 0.81238 0.28143 0.9949 0.0
C879 C 0.83061 0.30477 0.99552 0.0
C880 C 0.78532 0.24473 0.01785 0.0
C881 C 0.76446 0.24855 0.01532 0.0
C882 C 0.7834 0.22239 0.02696 0.0
C883 C 0.8045 0.21658 0.0283 0.0
C884 C 0.81953 0.22011 0.00813 0.0
C885 C 0.83944 0.21474 0.00948 0.0
C886 C 0.84448 0.20572 0.03089 0.0
C887 C 0.82959 0.20202 0.05099 0.0
C888 C 0.80966 0.20737 0.04974 0.0
C889 C 0.67445 0.16942 0.03851 0.0
C890 C 0.67155 0.16734 0.06374 0.0
C891 C 0.6972 0.18173 0.02841 0.0
C892 C 0.71741 0.19212 0.04335 0.0
C893 C 0.71484 0.18856 0.06841 0.0
C894 C 0.69204 0.17631 0.07856 0.0
C895 C 0.74039 0.20971 0.03332 0.0
C896 C 0.76089 0.20521 0.03482 0.0
C897 C 0.74213 0.23147 0.02308 0.0
C898 C 0.72126 0.23757 0.02171 0.0
C899 C 0.70957 0.2396 0.04284 0.0
C900 C 0.68977 0.24514 0.04137 0.0
C901 C 0.68165 0.24893 0.01887 0.0
C902 C 0.69337 0.24725 0.9978 0.0
C903 C 0.71314 0.24166 -0.00082 0.0
H904 H 0.66632 0.25323 0.01776 0.0
H905 H 0.85991 0.20157 0.0319 0.0
H906 H 0.35637 0.80771 0.57317 0.0
H907 H 0.3663 0.77429 0.56271 0.0
H908 H 0.41976 0.79573 0.61917 0.0
H909 H 0.41061 0.82969 0.62901 0.0
H910 H 0.43725 0.7853 0.58039 0.0
H911 H 0.36311 0.74706 0.62444 0.0
H912 H 0.32048 0.73621 0.63344 0.0
H913 H 0.30035 0.7023 0.56407 0.0
H914 H 0.34292 0.71323 0.55454 0.0
H915 H 0.45032 0.67697 0.59909 0.0
H916 H 0.44273 0.71288 0.60144 0.0
H917 H 0.397 0.68953 0.53872 0.0
H918 H 0.40436 0.65347 0.53627 0.0
H919 H 0.37531 0.70111 0.57656 0.0
H920 H 0.44987 0.73712 0.53423 0.0
H921 H 0.49258 0.7475 0.52626 0.0
H922 H 0.51193 0.78475 0.59405 0.0
H923 H 0.46928 0.77431 0.6026 0.0
C924 C 0.37019 0.80524 0.58339 0.0
C925 C 0.38265 0.82126 0.60198 0.0
C926 C 0.37579 0.78609 0.57745 0.0
C927 C 0.39359 0.78232 0.59034 0.0
C928 C 0.406 0.7983 0.60893 0.0
C929 C 0.40067 0.81764 0.61461 0.0
C930 C 0.3996 0.76195 0.58435 0.0
C931 C 0.42373 0.76685 0.57985 0.0
C932 C 0.38187 0.73794 0.58291 0.0
C933 C 0.35624 0.73125 0.58866 0.0
C934 C 0.34961 0.73747 0.61103 0.0
C935 C 0.32545 0.73126 0.61624 0.0
C936 C 0.30771 0.71865 0.5993 0.0
C937 C 0.31411 0.71212 0.57715 0.0
C938 C 0.33825 0.71831 0.57185 0.0
C939 C 0.43898 0.67966 0.58553 0.0
C940 C 0.42793 0.66234 0.56751 0.0
C941 C 0.4347 0.70022 0.58688 0.0
C942 C 0.41937 0.70388 0.5702 0.0
C943 C 0.40893 0.68704 0.55173 0.0
C944 C 0.41325 0.66649 0.55032 0.0
C945 C 0.41297 0.72443 0.57315 0.0
C946 C 0.38879 0.71956 0.57701 0.0
C947 C 0.43065 0.74842 0.57422 0.0
C948 C 0.45633 0.75475 0.56914 0.0
C949 C 0.4632 0.74735 0.54753 0.0
C950 C 0.48741 0.75328 0.54289 0.0
C951 C 0.50495 0.76673 0.55966 0.0
C952 C 0.49832 0.77432 0.58108 0.0
C953 C 0.47413 0.76842 0.58582 0.0
H954 H 0.52369 0.7713 0.55603 0.0
H955 H 0.28902 0.71387 0.60334 0.0
H956 H 0.64322 0.42816 0.10671 0.0
H957 H 0.6795 0.42285 0.09826 0.0
H958 H 0.68609 0.45754 0.02914 0.0
H959 H 0.6493 0.46266 0.03734 0.0
H960 H 0.69033 0.41533 0.02544 0.0
H961 H 0.72568 0.48602 0.07364 0.0
H962 H 0.72979 0.51228 0.10864 0.0
H963 H 0.73796 0.46063 0.1557 0.0
H964 H 0.73356 0.43388 0.12104 0.0
H965 H 0.80527 0.41198 0.00887 0.0
H966 H 0.7735 0.42596 0.0126 0.0
H967 H 0.75323 0.39052 0.08164 0.0
H968 H 0.78467 0.3763 0.078 0.0
H969 H 0.759 0.43828 0.08213 0.0
H970 H 0.71823 0.36579 0.03614 0.0
H971 H 0.71237 0.33783 0.00223 0.0
H972 H 0.71326 0.39168 0.9522 0.0
H973 H 0.71941 0.42006 0.98584 0.0
C974 C 0.65253 0.43503 0.08984 0.0
C975 C 0.64339 0.44589 0.07271 0.0
C976 C 0.67336 0.43205 0.08509 0.0
C977 C 0.68566 0.44004 0.06319 0.0
C978 C 0.67691 0.45135 0.0462 0.0
C979 C 0.65599 0.45437 0.05097 0.0
C980 C 0.70672 0.43509 0.05771 0.0
C981 C 0.70566 0.42088 0.03749 0.0
C982 C 0.72639 0.44179 0.0738 0.0
C983 C 0.72915 0.45787 0.09473 0.0
C984 C 0.72819 0.48017 0.09147 0.0
C985 C 0.7306 0.49517 0.11126 0.0
C986 C 0.7341 0.48812 0.13439 0.0
C987 C 0.73525 0.46607 0.13778 0.0
C988 C 0.73284 0.451 0.11806 0.0
C989 C 0.79396 0.40707 0.02479 0.0
C990 C 0.79747 0.39304 0.04315 0.0
C991 C 0.77582 0.41503 0.02685 0.0
C992 C 0.76107 0.40925 0.04739 0.0
C993 C 0.76449 0.3952 0.06568 0.0
C994 C 0.7824 0.38701 0.06351 0.0
C995 C 0.74231 0.41819 0.05018 0.0
C996 C 0.74388 0.43316 0.06985 0.0
C997 C 0.72303 0.41204 0.03372 0.0
C998 C 0.71964 0.39515 0.01345 0.0
C999 C 0.71747 0.37176 0.01788 0.0
C1000 C 0.71401 0.35581 -0.00128 0.0
C1001 C 0.71255 0.36301 0.97506 0.0
C1002 C 0.71447 0.38615 0.97053 0.0
C1003 C 0.71792 0.40217 0.98963 0.0
H1004 H 0.70986 0.35063 0.96025 0.0
H1005 H 0.73596 0.49975 0.14968 0.0
H1006 H 0.15627 0.66334 0.55036 0.0
H1007 H 0.17946 0.70513 0.53819 0.0
H1008 H 0.16252 0.7291 0.60595 0.0
H1009 H 0.13853 0.68735 0.61781 0.0
H1010 H 0.16451 0.7596 0.57165 0.0
H1011 H 0.2147 0.72184 0.59816 0.0
H1012 H 0.23157 0.69184 0.59872 0.0
H1013 H 0.25469 0.70903 0.5252 0.0
H1014 H 0.23769 0.73896 0.52412 0.0
H1015 H 0.27502 0.85459 0.60721 0.0
H1016 H 0.23585 0.82164 0.5993 0.0
H1017 H 0.25602 0.81928 0.5251 0.0
H1018 H 0.29514 0.85252 0.53275 0.0
H1019 H 0.24975 0.77893 0.55362 0.0
H1020 H 0.20675 0.82519 0.53382 0.0
H1021 H 0.19305 0.85729 0.53882 0.0
H1022 H 0.15958 0.8263 0.60616 0.0
H1023 H 0.17337 0.7942 0.60177 0.0
C1024 C 0.15721 0.67754 0.56251 0.0
C1025 C 0.14591 0.67212 0.58519 0.0
C1026 C 0.17046 0.70139 0.55553 0.0
C1027 C 0.17312 0.72021 0.57136 0.0
C1028 C 0.16073 0.71487 0.59345 0.0
C1029 C 0.14713 0.691 0.60027 0.0
C1030 C 0.19057 0.74519 0.56604 0.0
C1031 C 0.18316 0.76389 0.56771 0.0
C1032 C 0.21483 0.75072 0.56052 0.0
C1033 C 0.22459 0.73235 0.56093 0.0
C1034 C 0.22314 0.71902 0.58203 0.0
C1035 C 0.23278 0.70208 0.58246 0.0
C1036 C 0.24409 0.69845 0.56197 0.0
C1037 C 0.24584 0.7118 0.54102 0.0
C1038 C 0.2362 0.72875 0.54048 0.0
C1039 C 0.27073 0.84774 0.58896 0.0
C1040 C 0.28827 0.85575 0.57073 0.0
C1041 C 0.24828 0.82901 0.58442 0.0
C1042 C 0.24317 0.81796 0.56167 0.0
C1043 C 0.25967 0.82767 0.54276 0.0
C1044 C 0.28202 0.84666 0.54719 0.0
C1045 C 0.22383 0.79341 0.55958 0.0
C1046 C 0.23094 0.77468 0.55676 0.0
C1047 C 0.19959 0.78804 0.56476 0.0
C1048 C 0.19122 0.80732 0.5675 0.0
C1049 C 0.19663 0.82531 0.5498 0.0
C1050 C 0.18881 0.84349 0.5525 0.0
C1051 C 0.17548 0.84385 0.57281 0.0
C1052 C 0.1699 0.82599 0.59043 0.0
C1053 C 0.17768 0.80777 0.58782 0.0
H1054 H 0.16944 0.85794 0.57487 0.0
H1055 H 0.25158 0.68536 0.56236 0.0
H1056 H 0.83204 0.43753 0.34038 0.0
H1057 H 0.80084 0.45125 0.34853 0.0
H1058 H 0.78934 0.41826 0.41904 0.0
H1059 H 0.82013 0.40396 0.41078 0.0
H1060 H 0.7481 0.40744 0.39765 0.0
H1061 H 0.81814 0.48014 0.41157 0.0
H1062 H 0.8578 0.51283 0.40251 0.0
H1063 H 0.82847 0.53287 0.34046 0.0
H1064 H 0.78868 0.50007 0.34895 0.0
H1065 H 0.66745 0.45362 0.43464 0.0
H1066 H 0.70611 0.4513 0.43385 0.0
H1067 H 0.7158 0.47404 0.35938 0.0
H1068 H 0.67719 0.47661 0.36 0.0
H1069 H 0.75904 0.49164 0.38592 0.0
H1070 H 0.6899 0.41631 0.37083 0.0
H1071 H 0.65013 0.38425 0.38088 0.0
H1072 H 0.67851 0.36966 0.44669 0.0
H1073 H 0.71839 0.40194 0.4372 0.0
C1074 C 0.82297 0.4333 0.35767 0.0
C1075 C 0.82854 0.41963 0.37492 0.0
C1076 C 0.80523 0.4413 0.36237 0.0
C1077 C 0.79295 0.43606 0.38453 0.0
C1078 C 0.79861 0.42255 0.40184 0.0
C1079 C 0.81622 0.4144 0.39709 0.0
C1080 C 0.77339 0.44365 0.38915 0.0
C1081 C 0.75067 0.42595 0.39552 0.0
C1082 C 0.77657 0.46772 0.38594 0.0
C1083 C 0.80047 0.4875 0.38079 0.0
C1084 C 0.82018 0.49139 0.39588 0.0
C1085 C 0.84268 0.50997 0.39087 0.0
C1086 C 0.84567 0.52489 0.37089 0.0
C1087 C 0.82614 0.52129 0.35592 0.0
C1088 C 0.8036 0.50272 0.36084 0.0
C1089 C 0.67804 0.45871 0.41824 0.0
C1090 C 0.66903 0.46484 0.39722 0.0
C1091 C 0.70013 0.45735 0.41784 0.0
C1092 C 0.7135 0.462 0.39641 0.0
C1093 C 0.70564 0.47025 0.37606 0.0
C1094 C 0.68353 0.47166 0.37644 0.0
C1095 C 0.73398 0.45545 0.39434 0.0
C1096 C 0.75672 0.47324 0.38832 0.0
C1097 C 0.7309 0.43148 0.39797 0.0
C1098 C 0.70706 0.41171 0.40342 0.0
C1099 C 0.68762 0.40637 0.38751 0.0
C1100 C 0.66507 0.38815 0.39311 0.0
C1101 C 0.66178 0.37497 0.41445 0.0
C1102 C 0.68107 0.37992 0.43019 0.0
C1103 C 0.70366 0.39816 0.42471 0.0
H1104 H 0.64429 0.3609 0.41877 0.0
H1105 H 0.8631 0.53926 0.36704 0.0
H1106 H 0.38655 0.81656 0.97597 0.0
H1107 H 0.3464 0.8077 0.99135 0.0
H1108 H 0.3253 0.82172 0.92076 0.0
H1109 H 0.36575 0.83165 0.90561 0.0
H1110 H 0.30327 0.83565 0.95413 0.0
H1111 H 0.31563 0.7642 0.93906 0.0
H1112 H 0.33605 0.73742 0.94353 0.0
H1113 H 0.32231 0.73248 0.01984 0.0
H1114 H 0.30205 0.75948 0.01584 0.0
H1115 H 0.18518 0.7463 0.93759 0.0
H1116 H 0.22615 0.7774 0.93942 0.0
H1117 H 0.23033 0.7613 0.01466 0.0
H1118 H 0.18931 0.72993 0.01295 0.0
H1119 H 0.26209 0.75303 0.98716 0.0
H1120 H 0.24019 0.81801 0.99766 0.0
H1121 H 0.21796 0.84253 0.98955 0.0
H1122 H 0.24713 0.85717 0.91781 0.0
H1123 H 0.26927 0.83245 0.92534 0.0
C1124 C 0.37342 0.81806 0.96384 0.0
C1125 C 0.3791 0.82442 0.93952 0.0
C1126 C 0.35051 0.81303 0.97264 0.0
C1127 C 0.33269 0.81355 0.95707 0.0
C1128 C 0.33874 0.82117 0.9331 0.0
C1129 C 0.36181 0.8267 0.92442 0.0
C1130 C 0.30727 0.80382 0.96494 0.0
C1131 C 0.29419 0.81759 0.96135 0.0
C1132 C 0.29555 0.78041 0.97479 0.0
C1133 C 0.30762 0.76409 0.97721 0.0
C1134 C 0.31711 0.75753 0.95681 0.0
C1135 C 0.32863 0.7423 0.95925 0.0
C1136 C 0.33055 0.73333 0.98197 0.0
C1137 C 0.32087 0.73949 0.00227 0.0
C1138 C 0.30936 0.75475 -7e-05 0.0
C1139 C 0.19448 0.74992 0.95477 0.0
C1140 C 0.18422 0.73524 0.97497 0.0
C1141 C 0.2179 0.76787 0.95584 0.0
C1142 C 0.23136 0.77153 0.97714 0.0
C1143 C 0.22024 0.75869 0.99803 0.0
C1144 C 0.19677 0.74075 0.997 0.0
C1145 C 0.25784 0.78465 0.97602 0.0
C1146 C 0.27119 0.77139 0.98068 0.0
C1147 C 0.26953 0.80825 0.96667 0.0
C1148 C 0.25633 0.82326 0.96206 0.0
C1149 C 0.24175 0.82631 0.9801 0.0
C1150 C 0.22918 0.84028 0.97561 0.0
C1151 C 0.23111 0.85138 0.95317 0.0
C1152 C 0.24566 0.84857 0.93519 0.0
C1153 C 0.25826 0.83462 0.93958 0.0
H1154 H 0.22136 0.86217 0.94973 0.0
H1155 H 0.33948 0.72154 0.98382 0.0
H1156 H 0.56491 0.16798 0.42338 0.0
H1157 H 0.55327 0.20137 0.42264 0.0
H1158 H 0.61799 0.24572 0.46119 0.0
H1159 H 0.6293 0.21209 0.46286 0.0
H1160 H 0.5815 0.25439 0.47661 0.0
H1161 H 0.61402 0.24816 0.39899 0.0
H1162 H 0.61661 0.22734 0.36176 0.0
H1163 H 0.5442 0.21421 0.34347 0.0
H1164 H 0.54108 0.23468 0.38078 0.0
H1165 H 0.60099 0.37135 0.43956 0.0
H1166 H 0.60196 0.33291 0.44828 0.0
H1167 H 0.53496 0.29596 0.4103 0.0
H1168 H 0.53403 0.33459 0.40107 0.0
H1169 H 0.56795 0.28119 0.3957 0.0
H1170 H 0.53774 0.29217 0.4721 0.0
H1171 H 0.53658 0.31394 0.50914 0.0
H1172 H 0.60614 0.31951 0.52954 0.0
H1173 H 0.60787 0.29805 0.49246 0.0
C1174 C 0.57657 0.18476 0.43191 0.0
C1175 C 0.59825 0.18752 0.44282 0.0
C1176 C 0.56991 0.20386 0.43141 0.0
C1177 C 0.58501 0.2262 0.4414 0.0
C1178 C 0.60612 0.22867 0.45326 0.0
C1179 C 0.61263 0.20947 0.45407 0.0
C1180 C 0.57949 0.24734 0.43839 0.0
C1181 C 0.57869 0.26037 0.45893 0.0
C1182 C 0.57529 0.25482 0.41534 0.0
C1183 C 0.57723 0.24272 0.39278 0.0
C1184 C 0.5986 0.2407 0.3871 0.0
C1185 C 0.60017 0.22898 0.36598 0.0
C1186 C 0.58056 0.2194 0.35029 0.0
C1187 C 0.55936 0.2216 0.35565 0.0
C1188 C 0.55769 0.23327 0.37678 0.0
C1189 C 0.58625 0.35507 0.4333 0.0
C1190 C 0.56742 0.35605 0.41957 0.0
C1191 C 0.58678 0.33306 0.43844 0.0
C1192 C 0.56839 0.31154 0.4302 0.0
C1193 C 0.54929 0.31238 0.41691 0.0
C1194 C 0.54878 0.33445 0.41167 0.0
C1195 C 0.57017 0.28843 0.43391 0.0
C1196 C 0.57037 0.27505 0.41345 0.0
C1197 C 0.57401 0.2808 0.45701 0.0
C1198 C 0.57299 0.29363 0.4794 0.0
C1199 C 0.55286 0.29818 0.4844 0.0
C1200 C 0.55209 0.31044 0.50542 0.0
C1201 C 0.57129 0.31814 0.52166 0.0
C1202 C 0.59128 0.31354 0.51694 0.0
C1203 C 0.59215 0.3013 0.49594 0.0
H1204 H 0.57066 0.32763 0.53792 0.0
H1205 H 0.5818 0.21033 0.33395 0.0
H1206 H 0.20023 0.65044 0.95861 0.0
H1207 H 0.2272 0.6305 0.96077 0.0
H1208 H 0.16786 0.5623 0.94563 0.0
H1209 H 0.14071 0.58203 0.94356 0.0
H1210 H 0.19738 0.55855 0.981 0.0
H1211 H 0.20448 0.59173 0.90122 0.0
H1212 H 0.21136 0.62395 0.87153 0.0
H1213 H 0.28262 0.6637 0.89923 0.0
H1214 H 0.27601 0.63187 0.92936 0.0
H1215 H 0.28798 0.52158 0.91384 0.0
H1216 H 0.2591 0.53929 0.91469 0.0
H1217 H 0.27472 0.55677 0.99003 0.0
H1218 H 0.30344 0.53885 0.98946 0.0
H1219 H 0.26604 0.5848 0.92393 0.0
H1220 H 0.22319 0.55264 0.01772 0.0
H1221 H 0.21446 0.51861 0.04564 0.0
H1222 H 0.21141 0.47284 0.98588 0.0
H1223 H 0.2198 0.5065 0.9576 0.0
C1224 C 0.19286 0.63116 0.95595 0.0
C1225 C 0.16835 0.61783 0.95074 0.0
C1226 C 0.20831 0.61982 0.95713 0.0
C1227 C 0.19955 0.59498 0.95311 0.0
C1228 C 0.17496 0.5815 0.94876 0.0
C1229 C 0.15951 0.59283 0.94749 0.0
C1230 C 0.21615 0.58319 0.95246 0.0
C1231 C 0.21244 0.56431 0.96859 0.0
C1232 C 0.23555 0.59049 0.93597 0.0
C1233 C 0.23966 0.60953 0.9177 0.0
C1234 C 0.22155 0.60743 0.9011 0.0
C1235 C 0.22541 0.6256 0.88418 0.0
C1236 C 0.24739 0.64588 0.88353 0.0
C1237 C 0.26559 0.64799 0.89977 0.0
C1238 C 0.2618 0.62988 0.91677 0.0
C1239 C 0.28513 0.52899 0.93066 0.0
C1240 C 0.2979 0.52867 0.95163 0.0
C1241 C 0.26871 0.53921 0.93107 0.0
C1242 C 0.26465 0.54919 0.95245 0.0
C1243 C 0.27733 0.54886 0.97343 0.0
C1244 C 0.29376 0.53862 0.97305 0.0
C1245 C 0.24743 0.56027 0.95264 0.0
C1246 C 0.25105 0.57908 0.93643 0.0
C1247 C 0.22774 0.55264 0.96879 0.0
C1248 C 0.22237 0.53217 0.98559 0.0
C1249 C 0.22057 0.53529 0.01054 0.0
C1250 C 0.2157 0.51607 0.02643 0.0
C1251 C 0.21246 0.4936 0.01754 0.0
C1252 C 0.21401 0.49028 0.99275 0.0
C1253 C 0.21886 0.50944 0.97679 0.0
H1254 H 0.20871 0.47875 0.02987 0.0
H1255 H 0.25035 0.65994 0.87042 0.0
H1256 H 0.67361 0.15442 0.466 0.0
H1257 H 0.71416 0.18621 0.47005 0.0
H1258 H 0.73392 0.16531 0.40211 0.0
H1259 H 0.69341 0.13307 0.39813 0.0
H1260 H 0.77324 0.18595 0.43454 0.0
H1261 H 0.71137 0.20309 0.39877 0.0
H1262 H 0.67134 0.20309 0.39597 0.0
H1263 H 0.68491 0.24471 0.46111 0.0
H1264 H 0.72494 0.24459 0.46453 0.0
H1265 H 0.84542 0.30236 0.38293 0.0
H1266 H 0.81752 0.26109 0.39297 0.0
H1267 H 0.80367 0.28498 0.4621 0.0
H1268 H 0.83167 0.32623 0.45238 0.0
H1269 H 0.76305 0.26195 0.43217 0.0
H1270 H 0.8299 0.24898 0.46215 0.0
H1271 H 0.87005 0.24919 0.46015 0.0
H1272 H 0.84762 0.20057 0.39997 0.0
H1273 H 0.80742 0.20033 0.40137 0.0
C1274 C 0.68682 0.15606 0.45232 0.0
C1275 C 0.68027 0.14166 0.43149 0.0
C1276 C 0.70998 0.17417 0.45471 0.0
C1277 C 0.72678 0.17838 0.43612 0.0
C1278 C 0.72114 0.16234 0.41661 0.0
C1279 C 0.69796 0.14399 0.41432 0.0
C1280 C 0.74798 0.20179 0.43483 0.0
C1281 C 0.77112 0.20261 0.43396 0.0
C1282 C 0.74506 0.22344 0.43398 0.0
C1283 C 0.72102 0.2236 0.43206 0.0
C1284 C 0.70573 0.21204 0.41263 0.0
C1285 C 0.68306 0.21209 0.41091 0.0
C1286 C 0.67559 0.22387 0.42836 0.0
C1287 C 0.69074 0.23558 0.44761 0.0
C1288 C 0.71342 0.23553 0.44946 0.0
C1289 C 0.83681 0.29875 0.40047 0.0
C1290 C 0.84049 0.31757 0.41675 0.0
C1291 C 0.82102 0.27515 0.40623 0.0
C1292 C 0.80863 0.27007 0.42828 0.0
C1293 C 0.81319 0.2886 0.44504 0.0
C1294 C 0.82915 0.31215 0.43942 0.0
C1295 C 0.78849 0.24631 0.43229 0.0
C1296 C 0.76535 0.2454 0.43329 0.0
C1297 C 0.79152 0.22471 0.43262 0.0
C1298 C 0.81568 0.2248 0.43174 0.0
C1299 C 0.83358 0.2385 0.44834 0.0
C1300 C 0.85634 0.23859 0.44735 0.0
C1301 C 0.8614 0.22494 0.42991 0.0
C1302 C 0.84369 0.21114 0.41346 0.0
C1303 C 0.82089 0.211 0.41437 0.0
H1304 H 0.87903 0.22503 0.42918 0.0
H1305 H 0.65812 0.22404 0.42685 0.0
H1306 H 0.38056 0.5561 0.98452 0.0
H1307 H 0.39442 0.59799 0.99688 0.0
H1308 H 0.44973 0.61936 0.9424 0.0
H1309 H 0.43638 0.57746 0.93027 0.0
H1310 H 0.46408 0.64936 0.98136 0.0
H1311 H 0.39602 0.61633 0.92801 0.0
H1312 H 0.35562 0.58782 0.91483 0.0
H1313 H 0.32456 0.60529 0.97711 0.0
H1314 H 0.36489 0.63374 0.99085 0.0
H1315 H 0.4684 0.75991 0.93592 0.0
H1316 H 0.46536 0.71947 0.94347 0.0
H1317 H 0.41449 0.7099 0.00066 0.0
H1318 H 0.41745 0.75034 0.99331 0.0
H1319 H 0.39806 0.674 0.96639 0.0
H1320 H 0.46834 0.71337 0.01487 0.0
H1321 H 0.50942 0.74332 0.02392 0.0
H1322 H 0.53714 0.71522 0.96664 0.0
H1323 H 0.49617 0.68531 0.957 0.0
C1324 C 0.39618 0.56958 0.97568 0.0
C1325 C 0.40702 0.56352 0.95601 0.0
C1326 C 0.40404 0.59354 0.98275 0.0
C1327 C 0.42265 0.61181 0.97009 0.0
C1328 C 0.4352 0.60554 0.95228 0.0
C1329 C 0.42746 0.58156 0.9453 0.0
C1330 C 0.4266 0.63723 0.97274 0.0
C1331 C 0.44969 0.65481 0.9781 0.0
C1332 C 0.40773 0.64426 0.96862 0.0
C1333 C 0.38349 0.62695 0.9606 0.0
C1334 C 0.38061 0.61392 0.93902 0.0
C1335 C 0.35773 0.59781 0.93143 0.0
C1336 C 0.33756 0.59475 0.94514 0.0
C1337 C 0.34023 0.6077 0.96653 0.0
C1338 C 0.36309 0.62382 0.97423 0.0
C1339 C 0.45686 0.74936 0.95037 0.0
C1340 C 0.44306 0.75828 0.96392 0.0
C1341 C 0.45525 0.72631 0.95475 0.0
C1342 C 0.43978 0.71176 0.9727 0.0
C1343 C 0.42659 0.7209 0.98678 0.0
C1344 C 0.42834 0.74402 0.98256 0.0
C1345 C 0.43556 0.68623 0.97502 0.0
C1346 C 0.41237 0.66859 0.9703 0.0
C1347 C 0.45443 0.67929 0.9793 0.0
C1348 C 0.47913 0.69719 0.9851 0.0
C1349 C 0.48316 0.71369 0.00407 0.0
C1350 C 0.50644 0.73064 0.00933 0.0
C1351 C 0.52587 0.73121 0.99584 0.0
C1352 C 0.52207 0.71477 0.97708 0.0
C1353 C 0.49882 0.69779 0.97173 0.0
H1354 H 0.54388 0.74435 -6e-05 0.0
H1355 H 0.31986 0.58246 0.93909 0.0
loop_
_geom_bond_atom_site_label_1
_geom_bond_atom_site_label_2
_geom_bond_distance
_geom_bond_site_symmetry_2
_ccdc_geom_bond_type
C0 O1 1.160 . S
C0 O7 1.185 . S
O1 C0 1.160 . S
O2 Zn3 1.899 . S
O2 C10 1.284 . S
Zn3 O2 1.899 . S
Zn3 O4 2.032 . S
Zn3 O7 2.086 . S
Zn3 O12 1.977 . S
O4 Zn3 2.032 . S
O4 C8 1.278 . S
C5 O6 1.203 . S
C5 O12 1.267 . S
O6 C5 1.203 . S
O7 C0 1.185 . S
O7 Zn3 2.086 . S
C8 O4 1.278 . S
C8 O9 1.211 . S
O9 C8 1.211 . S
C10 O2 1.284 . S
C10 O11 1.273 . S
O11 C10 1.273 . S
O12 Zn3 1.977 . S
O12 C5 1.267 . S
C13 O14 1.160 . S
C13 O20 1.185 . S
O14 C13 1.160 . S
O15 Zn16 1.899 . S
O15 C23 1.284 . S
Zn16 O15 1.899 . S
Zn16 O17 2.032 . S
Zn16 O20 2.086 . S
Zn16 O25 1.977 . S
O17 Zn16 2.032 . S
O17 C21 1.278 . S
C18 O19 1.203 . S
C18 O25 1.267 . S
O19 C18 1.203 . S
O20 C13 1.185 . S
O20 Zn16 2.086 . S
C21 O17 1.278 . S
C21 O22 1.211 . S
O22 C21 1.211 . S
C23 O15 1.284 . S
C23 O24 1.273 . S
O24 C23 1.273 . S
O25 Zn16 1.977 . S
O25 C18 1.267 . S
C26 O27 1.160 . S
C26 O33 1.185 . S
O27 C26 1.160 . S
O28 Zn29 1.899 . S
O28 C36 1.284 . S
Zn29 O28 1.899 . S
Zn29 O30 2.032 . S
Zn29 O33 2.086 . S
Zn29 O38 1.977 . S
O30 Zn29 2.032 . S
O30 C34 1.278 . S
C31 O32 1.203 . S
C31 O38 1.267 . S
O32 C31 1.203 . S
O33 C26 1.185 . S
O33 Zn29 2.086 . S
C34 O30 1.278 . S
C34 O35 1.211 . S
O35 C34 1.211 . S
C36 O28 1.284 . S
C36 O37 1.273 . S
O37 C36 1.273 . S
O38 Zn29 1.977 . S
O38 C31 1.267 . S
C39 O40 1.160 . S
C39 O46 1.185 . S
O40 C39 1.160 . S
O41 Zn42 1.899 . S
O41 C49 1.284 . S
Zn42 O41 1.899 . S
Zn42 O43 2.032 . S
Zn42 O46 2.086 . S
Zn42 O51 1.977 . S
O43 Zn42 2.032 . S
O43 C47 1.278 . S
C44 O45 1.203 . S
C44 O51 1.267 . S
O45 C44 1.203 . S
O46 C39 1.185 . S
O46 Zn42 2.086 . S
C47 O43 1.278 . S
C47 O48 1.211 . S
O48 C47 1.211 . S
C49 O41 1.284 . S
C49 O50 1.273 . S
O50 C49 1.273 . S
O51 Zn42 1.977 . S
O51 C44 1.267 . S
C52 O53 1.160 . S
C52 O59 1.185 . S
O53 C52 1.160 . S
O54 Zn55 1.899 . S
O54 C62 1.284 . S
Zn55 O54 1.899 . S
Zn55 O56 2.032 . S
Zn55 O59 2.086 . S
Zn55 O64 1.977 . S
O56 Zn55 2.032 . S
O56 C60 1.278 . S
C57 O58 1.203 . S
C57 O64 1.267 . S
O58 C57 1.203 . S
O59 C52 1.185 . S
O59 Zn55 2.086 . S
C60 O56 1.278 . S
C60 O61 1.211 . S
O61 C60 1.211 . S
C62 O54 1.284 . S
C62 O63 1.273 . S
O63 C62 1.273 . S
O64 Zn55 1.977 . S
O64 C57 1.267 . S
C65 O66 1.160 . S
C65 O72 1.185 . S
O66 C65 1.160 . S
O67 Zn68 1.899 . S
O67 C75 1.284 . S
Zn68 O67 1.899 . S
Zn68 O69 2.032 . S
Zn68 O72 2.086 . S
Zn68 O77 1.977 . S
O69 Zn68 2.032 . S
O69 C73 1.278 . S
C70 O71 1.203 . S
C70 O77 1.267 . S
O71 C70 1.203 . S
O72 C65 1.185 . S
O72 Zn68 2.086 . S
C73 O69 1.278 . S
C73 O74 1.211 . S
O74 C73 1.211 . S
C75 O67 1.284 . S
C75 O76 1.273 . S
O76 C75 1.273 . S
O77 Zn68 1.977 . S
O77 C70 1.267 . S
C78 O79 1.160 . S
C78 O85 1.185 . S
O79 C78 1.160 . S
O80 Zn81 1.899 . S
O80 C88 1.284 . S
Zn81 O80 1.899 . S
Zn81 O82 2.032 . S
Zn81 O85 2.086 . S
Zn81 O90 1.977 . S
O82 Zn81 2.032 . S
O82 C86 1.278 . S
C83 O84 1.203 . S
C83 O90 1.267 . S
O84 C83 1.203 . S
O85 C78 1.185 . S
O85 Zn81 2.086 . S
C86 O82 1.278 . S
C86 O87 1.211 . S
O87 C86 1.211 . S
C88 O80 1.284 . S
C88 O89 1.273 . S
O89 C88 1.273 . S
O90 Zn81 1.977 . S
O90 C83 1.267 . S
C91 O92 1.160 . S
C91 O98 1.185 . S
O92 C91 1.160 . S
O93 Zn94 1.899 . S
O93 C101 1.284 . S
Zn94 O93 1.899 . S
Zn94 O95 2.032 . S
Zn94 O98 2.086 . S
Zn94 O103 1.977 . S
O95 Zn94 2.032 . S
O95 C99 1.278 . S
C96 O97 1.203 . S
C96 O103 1.267 . S
O97 C96 1.203 . S
O98 C91 1.185 . S
O98 Zn94 2.086 . S
C99 O95 1.278 . S
C99 O100 1.211 . S
O100 C99 1.211 . S
C101 O93 1.284 . S
C101 O102 1.273 . S
O102 C101 1.273 . S
O103 Zn94 1.977 . S
O103 C96 1.267 . S
C104 O105 1.160 . S
C104 O111 1.185 . S
O105 C104 1.160 . S
O106 Zn107 1.899 . S
O106 C114 1.284 . S
Zn107 O106 1.899 . S
Zn107 O108 2.032 . S
Zn107 O111 2.086 . S
Zn107 O116 1.977 . S
O108 Zn107 2.032 . S
O108 C112 1.278 . S
C109 O110 1.203 . S
C109 O116 1.267 . S
O110 C109 1.203 . S
O111 C104 1.185 . S
O111 Zn107 2.086 . S
C112 O108 1.278 . S
C112 O113 1.211 . S
O113 C112 1.211 . S
C114 O106 1.284 . S
C114 O115 1.273 . S
O115 C114 1.273 . S
O116 Zn107 1.977 . S
O116 C109 1.267 . S
C117 O118 1.160 . S
C117 O124 1.185 . S
O118 C117 1.160 . S
O119 Zn120 1.899 . S
O119 C127 1.284 . S
Zn120 O119 1.899 . S
Zn120 O121 2.032 . S
Zn120 O124 2.086 . S
Zn120 O129 1.977 . S
O121 Zn120 2.032 . S
O121 C125 1.278 . S
C122 O123 1.203 . S
C122 O129 1.267 . S
O123 C122 1.203 . S
O124 C117 1.185 . S
O124 Zn120 2.086 . S
C125 O121 1.278 . S
C125 O126 1.211 . S
O126 C125 1.211 . S
C127 O119 1.284 . S
C127 O128 1.273 . S
O128 C127 1.273 . S
O129 Zn120 1.977 . S
O129 C122 1.267 . S
C130 O131 1.160 . S
C130 O137 1.185 . S
O131 C130 1.160 . S
O132 Zn133 1.899 . S
O132 C140 1.284 . S
Zn133 O132 1.899 . S
Zn133 O134 2.032 . S
Zn133 O137 2.086 . S
Zn133 O142 1.977 . S
O134 Zn133 2.032 . S
O134 C138 1.278 . S
C135 O136 1.203 . S
C135 O142 1.267 . S
O136 C135 1.203 . S
O137 C130 1.185 . S
O137 Zn133 2.086 . S
C138 O134 1.278 . S
C138 O139 1.211 . S
O139 C138 1.211 . S
C140 O132 1.284 . S
C140 O141 1.273 . S
O141 C140 1.273 . S
O142 Zn133 1.977 . S
O142 C135 1.267 . S
C143 O144 1.160 . S
C143 O150 1.185 . S
O144 C143 1.160 . S
O145 Zn146 1.899 . S
O145 C153 1.284 . S
Zn146 O145 1.899 . S
Zn146 O147 2.032 . S
Zn146 O150 2.086 . S
Zn146 O155 1.977 . S
O147 Zn146 2.032 . S
O147 C151 1.278 . S
C148 O149 1.203 . S
C148 O155 1.267 . S
O149 C148 1.203 . S
O150 C143 1.185 . S
O150 Zn146 2.086 . S
C151 O147 1.278 . S
C151 O152 1.211 . S
O152 C151 1.211 . S
C153 O145 1.284 . S
C153 O154 1.273 . S
O154 C153 1.273 . S
O155 Zn146 1.977 . S
O155 C148 1.267 . S
H156 C174 0.951 . S
H157 C176 0.951 . S
H158 C178 0.950 . S
H159 C179 0.950 . S
H160 C181 0.950 . S
H161 C184 0.950 . S
H162 C185 0.950 . S
H163 C187 0.950 . S
H164 C188 0.950 . S
H165 C189 0.951 . S
H166 C191 0.951 . S
H167 C193 0.950 . S
H168 C194 0.950 . S
H169 C196 0.950 . S
H170 C199 0.950 . S
H171 C200 0.950 . S
H172 C202 0.950 . S
H173 C203 0.950 . S
C174 H156 0.951 . S
C174 C175 1.366 . S
C174 C176 1.388 . S
C175 C174 1.366 . S
C175 C179 1.385 . S
C176 H157 0.951 . S
C176 C174 1.388 . S
C176 C177 1.366 . S
C177 C176 1.366 . S
C177 C178 1.414 . S
C177 C180 1.499 . S
C178 H158 0.950 . S
C178 C177 1.414 . S
C178 C179 1.374 . S
C179 H159 0.950 . S
C179 C175 1.385 . S
C179 C178 1.374 . S
C180 C177 1.499 . S
C180 C181 1.373 . S
C180 C182 1.389 . S
C181 H160 0.950 . S
C181 C180 1.373 . S
C181 C197 1.377 . S
C182 C180 1.389 . S
C182 C183 1.524 . S
C182 C196 1.377 . S
C183 C182 1.524 . S
C183 C184 1.397 . S
C183 C188 1.363 . S
C184 H161 0.950 . S
C184 C183 1.397 . S
C184 C185 1.334 . S
C185 H162 0.950 . S
C185 C184 1.334 . S
C185 C186 1.287 . S
C186 C185 1.287 . S
C186 C187 1.524 . S
C186 H205 0.913 . S
C187 H163 0.950 . S
C187 C186 1.524 . S
C187 C188 1.415 . S
C188 H164 0.950 . S
C188 C183 1.363 . S
C188 C187 1.415 . S
C189 H165 0.951 . S
C189 C190 1.366 . S
C189 C191 1.388 . S
C190 C189 1.366 . S
C190 C194 1.385 . S
C191 H166 0.951 . S
C191 C189 1.388 . S
C191 C192 1.366 . S
C192 C191 1.366 . S
C192 C193 1.414 . S
C192 C195 1.499 . S
C193 H167 0.950 . S
C193 C192 1.414 . S
C193 C194 1.374 . S
C194 H168 0.950 . S
C194 C190 1.385 . S
C194 C193 1.374 . S
C195 C192 1.499 . S
C195 C196 1.373 . S
C195 C197 1.389 . S
C196 H169 0.950 . S
C196 C182 1.377 . S
C196 C195 1.373 . S
C197 C181 1.377 . S
C197 C195 1.389 . S
C197 C198 1.524 . S
C198 C197 1.524 . S
C198 C199 1.397 . S
C198 C203 1.363 . S
C199 H170 0.950 . S
C199 C198 1.397 . S
C199 C200 1.334 . S
C200 H171 0.950 . S
C200 C199 1.334 . S
C200 C201 1.287 . S
C201 C200 1.287 . S
C201 C202 1.524 . S
C201 H204 0.999 . S
C202 H172 0.950 . S
C202 C201 1.524 . S
C202 C203 1.415 . S
C203 H173 0.950 . S
C203 C198 1.363 . S
C203 C202 1.415 . S
H204 C201 0.999 . S
H205 C186 0.913 . S
H206 C224 0.951 . S
H207 C226 0.951 . S
H208 C228 0.950 . S
H209 C229 0.950 . S
H210 C231 0.950 . S
H211 C234 0.950 . S
H212 C235 0.950 . S
H213 C237 0.950 . S
H214 C238 0.950 . S
H215 C239 0.951 . S
H216 C241 0.951 . S
H217 C243 0.950 . S
H218 C244 0.950 . S
H219 C246 0.950 . S
H220 C249 0.950 . S
H221 C250 0.950 . S
H222 C252 0.950 . S
H223 C253 0.950 . S
C224 H206 0.951 . S
C224 C225 1.366 . S
C224 C226 1.388 . S
C225 C224 1.366 . S
C225 C229 1.385 . S
C226 H207 0.951 . S
C226 C224 1.388 . S
C226 C227 1.366 . S
C227 C226 1.366 . S
C227 C228 1.414 . S
C227 C230 1.499 . S
C228 H208 0.950 . S
C228 C227 1.414 . S
C228 C229 1.374 . S
C229 H209 0.950 . S
C229 C225 1.385 . S
C229 C228 1.374 . S
C230 C227 1.499 . S
C230 C231 1.373 . S
C230 C232 1.389 . S
C231 H210 0.950 . S
C231 C230 1.373 . S
C231 C247 1.377 . S
C232 C230 1.389 . S
C232 C233 1.524 . S
C232 C246 1.377 . S
C233 C232 1.524 . S
C233 C234 1.397 . S
C233 C238 1.363 . S
C234 H211 0.950 . S
C234 C233 1.397 . S
C234 C235 1.334 . S
C235 H212 0.950 . S
C235 C234 1.334 . S
C235 C236 1.287 . S
C236 C235 1.287 . S
C236 C237 1.524 . S
C236 H255 0.913 . S
C237 H213 0.950 . S
C237 C236 1.524 . S
C237 C238 1.415 . S
C238 H214 0.950 . S
C238 C233 1.363 . S
C238 C237 1.415 . S
C239 H215 0.951 . S
C239 C240 1.366 . S
C239 C241 1.388 . S
C240 C239 1.366 . S
C240 C244 1.385 . S
C241 H216 0.951 . S
C241 C239 1.388 . S
C241 C242 1.366 . S
C242 C241 1.366 . S
C242 C243 1.414 . S
C242 C245 1.499 . S
C243 H217 0.950 . S
C243 C242 1.414 . S
C243 C244 1.374 . S
C244 H218 0.950 . S
C244 C240 1.385 . S
C244 C243 1.374 . S
C245 C242 1.499 . S
C245 C246 1.373 . S
C245 C247 1.389 . S
C246 H219 0.950 . S
C246 C232 1.377 . S
C246 C245 1.373 . S
C247 C231 1.377 . S
C247 C245 1.389 . S
C247 C248 1.524 . S
C248 C247 1.524 . S
C248 C249 1.397 . S
C248 C253 1.363 . S
C249 H220 0.950 . S
C249 C248 1.397 . S
C249 C250 1.334 . S
C250 H221 0.950 . S
C250 C249 1.334 . S
C250 C251 1.287 . S
C251 C250 1.287 . S
C251 C252 1.524 . S
C251 H254 0.999 . S
C252 H222 0.950 . S
C252 C251 1.524 . S
C252 C253 1.415 . S
C253 H223 0.950 . S
C253 C248 1.363 . S
C253 C252 1.415 . S
H254 C251 0.999 . S
H255 C236 0.913 . S
H256 C274 0.951 . S
H257 C276 0.951 . S
H258 C278 0.950 . S
H259 C279 0.950 . S
H260 C281 0.950 . S
H261 C284 0.950 . S
H262 C285 0.950 . S
H263 C287 0.950 . S
H264 C288 0.950 . S
H265 C289 0.951 . S
H266 C291 0.951 . S
H267 C293 0.950 . S
H268 C294 0.950 . S
H269 C296 0.950 . S
H270 C299 0.950 . S
H271 C300 0.950 . S
H272 C302 0.950 . S
H273 C303 0.950 . S
C274 H256 0.951 . S
C274 C275 1.366 . S
C274 C276 1.388 . S
C275 C274 1.366 . S
C275 C279 1.385 . S
C276 H257 0.951 . S
C276 C274 1.388 . S
C276 C277 1.366 . S
C277 C276 1.366 . S
C277 C278 1.414 . S
C277 C280 1.499 . S
C278 H258 0.950 . S
C278 C277 1.414 . S
C278 C279 1.374 . S
C279 H259 0.950 . S
C279 C275 1.385 . S
C279 C278 1.374 . S
C280 C277 1.499 . S
C280 C281 1.373 . S
C280 C282 1.389 . S
C281 H260 0.950 . S
C281 C280 1.373 . S
C281 C297 1.377 . S
C282 C280 1.389 . S
C282 C283 1.524 . S
C282 C296 1.377 . S
C283 C282 1.524 . S
C283 C284 1.397 . S
C283 C288 1.363 . S
C284 H261 0.950 . S
C284 C283 1.397 . S
C284 C285 1.334 . S
C285 H262 0.950 . S
C285 C284 1.334 . S
C285 C286 1.287 . S
C286 C285 1.287 . S
C286 C287 1.524 . S
C286 H305 0.913 . S
C287 H263 0.950 . S
C287 C286 1.524 . S
C287 C288 1.415 . S
C288 H264 0.950 . S
C288 C283 1.363 . S
C288 C287 1.415 . S
C289 H265 0.951 . S
C289 C290 1.366 . S
C289 C291 1.388 . S
C290 C289 1.366 . S
C290 C294 1.385 . S
C291 H266 0.951 . S
C291 C289 1.388 . S
C291 C292 1.366 . S
C292 C291 1.366 . S
C292 C293 1.414 . S
C292 C295 1.499 . S
C293 H267 0.950 . S
C293 C292 1.414 . S
C293 C294 1.374 . S
C294 H268 0.950 . S
C294 C290 1.385 . S
C294 C293 1.374 . S
C295 C292 1.499 . S
C295 C296 1.373 . S
C295 C297 1.389 . S
C296 H269 0.950 . S
C296 C282 1.377 . S
C296 C295 1.373 . S
C297 C281 1.377 . S
C297 C295 1.389 . S
C297 C298 1.524 . S
C298 C297 1.524 . S
C298 C299 1.397 . S
C298 C303 1.363 . S
C299 H270 0.950 . S
C299 C298 1.397 . S
C299 C300 1.334 . S
C300 H271 0.950 . S
C300 C299 1.334 . S
C300 C301 1.287 . S
C301 C300 1.287 . S
C301 C302 1.524 . S
C301 H304 0.999 . S
C302 H272 0.950 . S
C302 C301 1.524 . S
C302 C303 1.415 . S
C303 H273 0.950 . S
C303 C298 1.363 . S
C303 C302 1.415 . S
H304 C301 0.999 . S
H305 C286 0.913 . S
H306 C324 0.951 . S
H307 C326 0.951 . S
H308 C328 0.950 . S
H309 C329 0.950 . S
H310 C331 0.950 . S
H311 C334 0.950 . S
H312 C335 0.950 . S
H313 C337 0.950 . S
H314 C338 0.950 . S
H315 C339 0.951 . S
H316 C341 0.951 . S
H317 C343 0.950 . S
H318 C344 0.950 . S
H319 C346 0.950 . S
H320 C349 0.950 . S
H321 C350 0.950 . S
H322 C352 0.950 . S
H323 C353 0.950 . S
C324 H306 0.951 . S
C324 C325 1.366 . S
C324 C326 1.388 . S
C325 C324 1.366 . S
C325 C329 1.385 . S
C326 H307 0.951 . S
C326 C324 1.388 . S
C326 C327 1.366 . S
C327 C326 1.366 . S
C327 C328 1.414 . S
C327 C330 1.499 . S
C328 H308 0.950 . S
C328 C327 1.414 . S
C328 C329 1.374 . S
C329 H309 0.950 . S
C329 C325 1.385 . S
C329 C328 1.374 . S
C330 C327 1.499 . S
C330 C331 1.373 . S
C330 C332 1.389 . S
C331 H310 0.950 . S
C331 C330 1.373 . S
C331 C347 1.377 . S
C332 C330 1.389 . S
C332 C333 1.524 . S
C332 C346 1.377 . S
C333 C332 1.524 . S
C333 C334 1.397 . S
C333 C338 1.363 . S
C334 H311 0.950 . S
C334 C333 1.397 . S
C334 C335 1.334 . S
C335 H312 0.950 . S
C335 C334 1.334 . S
C335 C336 1.287 . S
C336 C335 1.287 . S
C336 C337 1.524 . S
C336 H355 0.913 . S
C337 H313 0.950 . S
C337 C336 1.524 . S
C337 C338 1.415 . S
C338 H314 0.950 . S
C338 C333 1.363 . S
C338 C337 1.415 . S
C339 H315 0.951 . S
C339 C340 1.366 . S
C339 C341 1.388 . S
C340 C339 1.366 . S
C340 C344 1.385 . S
C341 H316 0.951 . S
C341 C339 1.388 . S
C341 C342 1.366 . S
C342 C341 1.366 . S
C342 C343 1.414 . S
C342 C345 1.499 . S
C343 H317 0.950 . S
C343 C342 1.414 . S
C343 C344 1.374 . S
C344 H318 0.950 . S
C344 C340 1.385 . S
C344 C343 1.374 . S
C345 C342 1.499 . S
C345 C346 1.373 . S
C345 C347 1.389 . S
C346 H319 0.950 . S
C346 C332 1.377 . S
C346 C345 1.373 . S
C347 C331 1.377 . S
C347 C345 1.389 . S
C347 C348 1.524 . S
C348 C347 1.524 . S
C348 C349 1.397 . S
C348 C353 1.363 . S
C349 H320 0.950 . S
C349 C348 1.397 . S
C349 C350 1.334 . S
C350 H321 0.950 . S
C350 C349 1.334 . S
C350 C351 1.287 . S
C351 C350 1.287 . S
C351 C352 1.524 . S
C351 H354 0.999 . S
C352 H322 0.950 . S
C352 C351 1.524 . S
C352 C353 1.415 . S
C353 H323 0.950 . S
C353 C348 1.363 . S
C353 C352 1.415 . S
H354 C351 0.999 . S
H355 C336 0.913 . S
H356 C374 0.951 . S
H357 C376 0.951 . S
H358 C378 0.950 . S
H359 C379 0.950 . S
H360 C381 0.950 . S
H361 C384 0.950 . S
H362 C385 0.950 . S
H363 C387 0.950 . S
H364 C388 0.950 . S
H365 C389 0.951 . S
H366 C391 0.951 . S
H367 C393 0.950 . S
H368 C394 0.950 . S
H369 C396 0.950 . S
H370 C399 0.950 . S
H371 C400 0.950 . S
H372 C402 0.950 . S
H373 C403 0.950 . S
C374 H356 0.951 . S
C374 C375 1.366 . S
C374 C376 1.388 . S
C375 C374 1.366 . S
C375 C379 1.385 . S
C376 H357 0.951 . S
C376 C374 1.388 . S
C376 C377 1.366 . S
C377 C376 1.366 . S
C377 C378 1.414 . S
C377 C380 1.499 . S
C378 H358 0.950 . S
C378 C377 1.414 . S
C378 C379 1.374 . S
C379 H359 0.950 . S
C379 C375 1.385 . S
C379 C378 1.374 . S
C380 C377 1.499 . S
C380 C381 1.373 . S
C380 C382 1.389 . S
C381 H360 0.950 . S
C381 C380 1.373 . S
C381 C397 1.377 . S
C382 C380 1.389 . S
C382 C383 1.524 . S
C382 C396 1.377 . S
C383 C382 1.524 . S
C383 C384 1.397 . S
C383 C388 1.363 . S
C384 H361 0.950 . S
C384 C383 1.397 . S
C384 C385 1.334 . S
C385 H362 0.950 . S
C385 C384 1.334 . S
C385 C386 1.287 . S
C386 C385 1.287 . S
C386 C387 1.524 . S
C386 H405 0.913 . S
C387 H363 0.950 . S
C387 C386 1.524 . S
C387 C388 1.415 . S
C388 H364 0.950 . S
C388 C383 1.363 . S
C388 C387 1.415 . S
C389 H365 0.951 . S
C389 C390 1.366 . S
C389 C391 1.388 . S
C390 C389 1.366 . S
C390 C394 1.385 . S
C391 H366 0.951 . S
C391 C389 1.388 . S
C391 C392 1.366 . S
C392 C391 1.366 . S
C392 C393 1.414 . S
C392 C395 1.499 . S
C393 H367 0.950 . S
C393 C392 1.414 . S
C393 C394 1.374 . S
C394 H368 0.950 . S
C394 C390 1.385 . S
C394 C393 1.374 . S
C395 C392 1.499 . S
C395 C396 1.373 . S
C395 C397 1.389 . S
C396 H369 0.950 . S
C396 C382 1.377 . S
C396 C395 1.373 . S
C397 C381 1.377 . S
C397 C395 1.389 . S
C397 C398 1.524 . S
C398 C397 1.524 . S
C398 C399 1.397 . S
C398 C403 1.363 . S
C399 H370 0.950 . S
C399 C398 1.397 . S
C399 C400 1.334 . S
C400 H371 0.950 . S
C400 C399 1.334 . S
C400 C401 1.287 . S
C401 C400 1.287 . S
C401 C402 1.524 . S
C401 H404 0.999 . S
C402 H372 0.950 . S
C402 C401 1.524 . S
C402 C403 1.415 . S
C403 H373 0.950 . S
C403 C398 1.363 . S
C403 C402 1.415 . S
H404 C401 0.999 . S
H405 C386 0.913 . S
H406 C424 0.951 . S
H407 C426 0.951 . S
H408 C428 0.950 . S
H409 C429 0.950 . S
H410 C431 0.950 . S
H411 C434 0.950 . S
H412 C435 0.950 . S
H413 C437 0.950 . S
H414 C438 0.950 . S
H415 C439 0.951 . S
H416 C441 0.951 . S
H417 C443 0.950 . S
H418 C444 0.950 . S
H419 C446 0.950 . S
H420 C449 0.950 . S
H421 C450 0.950 . S
H422 C452 0.950 . S
H423 C453 0.950 . S
C424 H406 0.951 . S
C424 C425 1.366 . S
C424 C426 1.388 . S
C425 C424 1.366 . S
C425 C429 1.385 . S
C426 H407 0.951 . S
C426 C424 1.388 . S
C426 C427 1.366 . S
C427 C426 1.366 . S
C427 C428 1.414 . S
C427 C430 1.499 . S
C428 H408 0.950 . S
C428 C427 1.414 . S
C428 C429 1.374 . S
C429 H409 0.950 . S
C429 C425 1.385 . S
C429 C428 1.374 . S
C430 C427 1.499 . S
C430 C431 1.373 . S
C430 C432 1.389 . S
C431 H410 0.950 . S
C431 C430 1.373 . S
C431 C447 1.377 . S
C432 C430 1.389 . S
C432 C433 1.524 . S
C432 C446 1.377 . S
C433 C432 1.524 . S
C433 C434 1.397 . S
C433 C438 1.363 . S
C434 H411 0.950 . S
C434 C433 1.397 . S
C434 C435 1.334 . S
C435 H412 0.950 . S
C435 C434 1.334 . S
C435 C436 1.287 . S
C436 C435 1.287 . S
C436 C437 1.524 . S
C436 H455 0.913 . S
C437 H413 0.950 . S
C437 C436 1.524 . S
C437 C438 1.415 . S
C438 H414 0.950 . S
C438 C433 1.363 . S
C438 C437 1.415 . S
C439 H415 0.951 . S
C439 C440 1.366 . S
C439 C441 1.388 . S
C440 C439 1.366 . S
C440 C444 1.385 . S
C441 H416 0.951 . S
C441 C439 1.388 . S
C441 C442 1.366 . S
C442 C441 1.366 . S
C442 C443 1.414 . S
C442 C445 1.499 . S
C443 H417 0.950 . S
C443 C442 1.414 . S
C443 C444 1.374 . S
C444 H418 0.950 . S
C444 C440 1.385 . S
C444 C443 1.374 . S
C445 C442 1.499 . S
C445 C446 1.373 . S
C445 C447 1.389 . S
C446 H419 0.950 . S
C446 C432 1.377 . S
C446 C445 1.373 . S
C447 C431 1.377 . S
C447 C445 1.389 . S
C447 C448 1.524 . S
C448 C447 1.524 . S
C448 C449 1.397 . S
C448 C453 1.363 . S
C449 H420 0.950 . S
C449 C448 1.397 . S
C449 C450 1.334 . S
C450 H421 0.950 . S
C450 C449 1.334 . S
C450 C451 1.287 . S
C451 C450 1.287 . S
C451 C452 1.524 . S
C451 H454 0.999 . S
C452 H422 0.950 . S
C452 C451 1.524 . S
C452 C453 1.415 . S
C453 H423 0.950 . S
C453 C448 1.363 . S
C453 C452 1.415 . S
H454 C451 0.999 . S
H455 C436 0.913 . S
H456 C474 0.951 . S
H457 C476 0.951 1_556 S
H458 C478 0.950 . S
H459 C479 0.950 . S
H460 C481 0.950 . S
H461 C484 0.950 . S
H462 C485 0.950 . S
H463 C487 0.950 . S
H464 C488 0.950 . S
H465 C489 0.951 . S
H466 C491 0.951 1_554 S
H467 C493 0.950 . S
H468 C494 0.950 . S
H469 C496 0.950 . S
H470 C499 0.950 . S
H471 C500 0.950 . S
H472 C502 0.950 . S
H473 C503 0.950 . S
C474 H456 0.951 . S
C474 C475 1.366 . S
C474 C476 1.388 . S
C475 C474 1.366 . S
C475 C479 1.385 . S
C476 H457 0.951 1_554 S
C476 C474 1.388 . S
C476 C477 1.366 . S
C477 C476 1.366 . S
C477 C478 1.414 . S
C477 C480 1.499 . S
C478 H458 0.950 . S
C478 C477 1.414 . S
C478 C479 1.374 . S
C479 H459 0.950 . S
C479 C475 1.385 . S
C479 C478 1.374 . S
C480 C477 1.499 . S
C480 C481 1.373 . S
C480 C482 1.389 1_554 S
C481 H460 0.950 . S
C481 C480 1.373 . S
C481 C497 1.377 1_545 S
C482 C480 1.389 1_556 S
C482 C483 1.524 . S
C482 C496 1.377 1_545 S
C483 C482 1.524 . S
C483 C484 1.397 . S
C483 C488 1.363 . S
C484 H461 0.950 . S
C484 C483 1.397 . S
C484 C485 1.334 . S
C485 H462 0.950 . S
C485 C484 1.334 . S
C485 C486 1.287 . S
C486 C485 1.287 . S
C486 C487 1.524 . S
C486 H505 0.913 . S
C487 H463 0.950 . S
C487 C486 1.524 . S
C487 C488 1.415 . S
C488 H464 0.950 . S
C488 C483 1.363 . S
C488 C487 1.415 . S
C489 H465 0.951 . S
C489 C490 1.366 . S
C489 C491 1.388 . S
C490 C489 1.366 . S
C490 C494 1.385 . S
C491 H466 0.951 1_556 S
C491 C489 1.388 . S
C491 C492 1.366 . S
C492 C491 1.366 . S
C492 C493 1.414 . S
C492 C495 1.499 . S
C493 H467 0.950 . S
C493 C492 1.414 . S
C493 C494 1.374 . S
C494 H468 0.950 . S
C494 C490 1.385 . S
C494 C493 1.374 . S
C495 C492 1.499 . S
C495 C496 1.373 . S
C495 C497 1.389 1_556 S
C496 H469 0.950 . S
C496 C482 1.377 1_565 S
C496 C495 1.373 . S
C497 C481 1.377 1_565 S
C497 C495 1.389 1_554 S
C497 C498 1.524 . S
C498 C497 1.524 . S
C498 C499 1.397 . S
C498 C503 1.363 . S
C499 H470 0.950 . S
C499 C498 1.397 . S
C499 C500 1.334 . S
C500 H471 0.950 . S
C500 C499 1.334 . S
C500 C501 1.287 . S
C501 C500 1.287 . S
C501 C502 1.524 . S
C501 H504 0.999 . S
C502 H472 0.950 . S
C502 C501 1.524 . S
C502 C503 1.415 . S
C503 H473 0.950 . S
C503 C498 1.363 . S
C503 C502 1.415 . S
H504 C501 0.999 . S
H505 C486 0.913 . S
H506 C524 0.951 . S
H507 C526 0.951 . S
H508 C528 0.950 . S
H509 C529 0.950 . S
H510 C531 0.950 . S
H511 C534 0.950 . S
H512 C535 0.950 . S
H513 C537 0.950 . S
H514 C538 0.950 . S
H515 C539 0.951 . S
H516 C541 0.951 . S
H517 C543 0.950 . S
H518 C544 0.950 . S
H519 C546 0.950 . S
H520 C549 0.950 . S
H521 C550 0.950 . S
H522 C552 0.950 . S
H523 C553 0.950 . S
C524 H506 0.951 . S
C524 C525 1.366 . S
C524 C526 1.388 . S
C525 C524 1.366 . S
C525 C529 1.385 . S
C526 H507 0.951 . S
C526 C524 1.388 . S
C526 C527 1.366 . S
C527 C526 1.366 . S
C527 C528 1.414 . S
C527 C530 1.499 . S
C528 H508 0.950 . S
C528 C527 1.414 . S
C528 C529 1.374 . S
C529 H509 0.950 . S
C529 C525 1.385 . S
C529 C528 1.374 . S
C530 C527 1.499 . S
C530 C531 1.373 . S
C530 C532 1.389 . S
C531 H510 0.950 . S
C531 C530 1.373 . S
C531 C547 1.377 . S
C532 C530 1.389 . S
C532 C533 1.524 . S
C532 C546 1.377 . S
C533 C532 1.524 . S
C533 C534 1.397 . S
C533 C538 1.363 . S
C534 H511 0.950 . S
C534 C533 1.397 . S
C534 C535 1.334 . S
C535 H512 0.950 . S
C535 C534 1.334 . S
C535 C536 1.287 . S
C536 C535 1.287 . S
C536 C537 1.524 . S
C536 H555 0.913 . S
C537 H513 0.950 . S
C537 C536 1.524 . S
C537 C538 1.415 . S
C538 H514 0.950 . S
C538 C533 1.363 . S
C538 C537 1.415 . S
C539 H515 0.951 . S
C539 C540 1.366 . S
C539 C541 1.388 . S
C540 C539 1.366 . S
C540 C544 1.385 . S
C541 H516 0.951 . S
C541 C539 1.388 . S
C541 C542 1.366 . S
C542 C541 1.366 . S
C542 C543 1.414 . S
C542 C545 1.499 . S
C543 H517 0.950 . S
C543 C542 1.414 . S
C543 C544 1.374 . S
C544 H518 0.950 . S
C544 C540 1.385 . S
C544 C543 1.374 . S
C545 C542 1.499 . S
C545 C546 1.373 . S
C545 C547 1.389 . S
C546 H519 0.950 . S
C546 C532 1.377 . S
C546 C545 1.373 . S
C547 C531 1.377 . S
C547 C545 1.389 . S
C547 C548 1.524 . S
C548 C547 1.524 . S
C548 C549 1.397 . S
C548 C553 1.363 . S
C549 H520 0.950 . S
C549 C548 1.397 . S
C549 C550 1.334 . S
C550 H521 0.950 . S
C550 C549 1.334 . S
C550 C551 1.287 . S
C551 C550 1.287 . S
C551 C552 1.524 . S
C551 H554 0.999 . S
C552 H522 0.950 . S
C552 C551 1.524 . S
C552 C553 1.415 . S
C553 H523 0.950 . S
C553 C548 1.363 . S
C553 C552 1.415 . S
H554 C551 0.999 . S
H555 C536 0.913 . S
H556 C574 0.951 . S
H557 C576 0.951 . S
H558 C578 0.950 . S
H559 C579 0.950 . S
H560 C581 0.950 . S
H561 C584 0.950 . S
H562 C585 0.950 . S
H563 C587 0.950 1_655 S
H564 C588 0.961 1_556 S
H565 C589 0.951 . S
H566 C591 0.951 . S
H567 C593 0.950 . S
H568 C594 0.950 . S
H569 C596 0.950 . S
H570 C599 0.950 . S
H571 C600 0.950 . S
H572 C602 0.950 1_455 S
H573 C603 0.921 1_454 S
C574 H556 0.951 . S
C574 C575 1.366 . S
C574 C576 1.388 . S
C575 C574 1.366 . S
C575 C579 1.385 . S
C576 H557 0.951 . S
C576 C574 1.388 . S
C576 C577 1.366 . S
C577 C576 1.366 . S
C577 C578 1.414 . S
C577 C580 1.499 . S
C578 H558 0.950 . S
C578 C577 1.414 . S
C578 C579 1.374 . S
C579 H559 0.950 . S
C579 C575 1.385 . S
C579 C578 1.374 . S
C580 C577 1.499 . S
C580 C581 1.373 . S
C580 C582 1.389 1_556 S
C581 H560 0.950 . S
C581 C580 1.373 . S
C581 C597 1.377 1_455 S
C582 C580 1.389 1_554 S
C582 C583 1.524 . S
C582 C596 1.377 1_455 S
C583 C582 1.524 . S
C583 C584 1.397 . S
C583 C588 1.351 1_455 S
C584 H561 0.950 . S
C584 C583 1.397 . S
C584 C585 1.334 . S
C585 H562 0.950 . S
C585 C584 1.334 . S
C585 C586 1.287 . S
C586 C585 1.287 . S
C586 C587 1.524 . S
C586 H605 0.913 . S
C587 H563 0.950 1_455 S
C587 C586 1.524 . S
C587 C588 1.417 1_455 S
C588 H564 0.961 1_554 S
C588 C583 1.351 1_655 S
C588 C587 1.417 1_655 S
C589 H565 0.951 . S
C589 C590 1.366 . S
C589 C591 1.388 . S
C590 C589 1.366 . S
C590 C594 1.385 . S
C591 H566 0.951 . S
C591 C589 1.388 . S
C591 C592 1.366 . S
C592 C591 1.366 . S
C592 C593 1.414 . S
C592 C595 1.499 . S
C593 H567 0.950 . S
C593 C592 1.414 . S
C593 C594 1.374 . S
C594 H568 0.950 . S
C594 C590 1.385 . S
C594 C593 1.374 . S
C595 C592 1.499 . S
C595 C596 1.373 . S
C595 C597 1.389 1_554 S
C596 H569 0.950 . S
C596 C582 1.377 1_655 S
C596 C595 1.373 . S
C597 C581 1.377 1_655 S
C597 C595 1.389 1_556 S
C597 C598 1.524 . S
C598 C597 1.524 . S
C598 C599 1.397 . S
C598 C603 1.384 . S
C599 H570 0.950 . S
C599 C598 1.397 . S
C599 C600 1.334 . S
C600 H571 0.950 . S
C600 C599 1.334 . S
C600 C601 1.287 . S
C601 C600 1.287 . S
C601 C602 1.524 . S
C601 H604 0.999 . S
C602 H572 0.950 1_655 S
C602 C601 1.524 . S
C602 C603 1.411 . S
C603 H573 0.921 1_656 S
C603 C598 1.384 . S
C603 C602 1.411 . S
H604 C601 0.999 . S
H605 C586 0.913 . S
H606 C624 0.951 . S
H607 C626 0.951 . S
H608 C628 0.950 . S
H609 C629 0.950 . S
H610 C631 0.950 . S
H611 C634 0.950 . S
H612 C635 0.950 . S
H613 C637 0.950 . S
H614 C638 0.950 . S
H615 C639 0.951 . S
H616 C641 0.951 . S
H617 C643 0.950 . S
H618 C644 0.950 . S
H619 C646 0.950 . S
H620 C649 0.950 . S
H621 C650 0.950 . S
H622 C652 0.950 . S
H623 C653 0.950 . S
C624 H606 0.951 . S
C624 C625 1.366 . S
C624 C626 1.388 . S
C625 C624 1.366 . S
C625 C629 1.385 . S
C626 H607 0.951 . S
C626 C624 1.388 . S
C626 C627 1.366 . S
C627 C626 1.366 . S
C627 C628 1.414 . S
C627 C630 1.499 . S
C628 H608 0.950 . S
C628 C627 1.414 . S
C628 C629 1.374 . S
C629 H609 0.950 . S
C629 C625 1.385 . S
C629 C628 1.374 . S
C630 C627 1.499 . S
C630 C631 1.373 . S
C630 C632 1.362 1_545 S
C631 H610 0.950 . S
C631 C630 1.373 . S
C631 C647 1.377 . S
C632 C630 1.362 1_565 S
C632 C633 1.535 . S
C632 C646 1.395 . S
C633 C632 1.535 . S
C633 C634 1.397 1_565 S
C633 C638 1.363 . S
C634 H611 0.950 . S
C634 C633 1.397 1_545 S
C634 C635 1.334 . S
C635 H612 0.950 . S
C635 C634 1.334 . S
C635 C636 1.287 1_545 S
C636 C635 1.287 1_565 S
C636 C637 1.524 . S
C636 H655 0.913 . S
C637 H613 0.950 . S
C637 C636 1.524 . S
C637 C638 1.415 . S
C638 H614 0.950 . S
C638 C633 1.363 . S
C638 C637 1.415 . S
C639 H615 0.951 . S
C639 C640 1.366 . S
C639 C641 1.388 . S
C640 C639 1.366 . S
C640 C644 1.385 . S
C641 H616 0.951 . S
C641 C639 1.388 . S
C641 C642 1.366 . S
C642 C641 1.366 . S
C642 C643 1.414 . S
C642 C645 1.499 . S
C643 H617 0.950 . S
C643 C642 1.414 . S
C643 C644 1.374 . S
C644 H618 0.950 . S
C644 C640 1.385 . S
C644 C643 1.374 . S
C645 C642 1.499 . S
C645 C646 1.373 . S
C645 C647 1.389 1_565 S
C646 H619 0.950 . S
C646 C632 1.395 . S
C646 C645 1.373 . S
C647 C631 1.377 . S
C647 C645 1.389 1_545 S
C647 C648 1.524 . S
C648 C647 1.524 . S
C648 C649 1.397 1_545 S
C648 C653 1.363 . S
C649 H620 0.950 . S
C649 C648 1.397 1_565 S
C649 C650 1.334 . S
C650 H621 0.950 . S
C650 C649 1.334 . S
C650 C651 1.287 1_565 S
C651 C650 1.287 1_545 S
C651 C652 1.524 . S
C651 H654 0.999 . S
C652 H622 0.950 . S
C652 C651 1.524 . S
C652 C653 1.415 . S
C653 H623 0.950 . S
C653 C648 1.363 . S
C653 C652 1.415 . S
H654 C651 0.999 . S
H655 C636 0.913 . S
H656 C674 0.951 . S
H657 C676 0.951 . S
H658 C678 0.950 . S
H659 C679 0.950 . S
H660 C681 0.950 . S
H661 C684 0.950 . S
H662 C685 0.950 . S
H663 C687 0.950 . S
H664 C688 0.950 . S
H665 C689 0.951 . S
H666 C691 0.951 . S
H667 C693 0.950 . S
H668 C694 0.950 . S
H669 C696 0.950 . S
H670 C699 0.950 . S
H671 C700 0.950 . S
H672 C702 0.950 . S
H673 C703 0.950 . S
C674 H656 0.951 . S
C674 C675 1.366 . S
C674 C676 1.388 . S
C675 C674 1.366 . S
C675 C679 1.385 . S
C676 H657 0.951 . S
C676 C674 1.388 . S
C676 C677 1.366 . S
C677 C676 1.366 . S
C677 C678 1.414 . S
C677 C680 1.499 . S
C678 H658 0.950 . S
C678 C677 1.414 . S
C678 C679 1.374 . S
C679 H659 0.950 . S
C679 C675 1.385 . S
C679 C678 1.374 . S
C680 C677 1.499 . S
C680 C681 1.373 . S
C680 C682 1.389 1_556 S
C681 H660 0.950 . S
C681 C680 1.373 . S
C681 C697 1.377 . S
C682 C680 1.389 1_554 S
C682 C683 1.524 . S
C682 C696 1.377 . S
C683 C682 1.524 . S
C683 C684 1.397 . S
C683 C688 1.363 . S
C684 H661 0.950 . S
C684 C683 1.397 . S
C684 C685 1.334 . S
C685 H662 0.950 . S
C685 C684 1.334 . S
C685 C686 1.287 . S
C686 C685 1.287 . S
C686 C687 1.524 . S
C686 H705 0.913 . S
C687 H663 0.950 . S
C687 C686 1.524 . S
C687 C688 1.415 . S
C688 H664 0.950 . S
C688 C683 1.363 . S
C688 C687 1.415 . S
C689 H665 0.951 . S
C689 C690 1.366 . S
C689 C691 1.388 . S
C690 C689 1.366 . S
C690 C694 1.385 . S
C691 H666 0.951 . S
C691 C689 1.388 . S
C691 C692 1.366 . S
C692 C691 1.366 . S
C692 C693 1.414 . S
C692 C695 1.499 . S
C693 H667 0.950 . S
C693 C692 1.414 . S
C693 C694 1.374 . S
C694 H668 0.950 . S
C694 C690 1.385 . S
C694 C693 1.374 . S
C695 C692 1.499 . S
C695 C696 1.373 . S
C695 C697 1.389 1_554 S
C696 H669 0.950 . S
C696 C682 1.377 . S
C696 C695 1.373 . S
C697 C681 1.377 . S
C697 C695 1.389 1_556 S
C697 C698 1.524 . S
C698 C697 1.524 . S
C698 C699 1.397 . S
C698 C703 1.363 . S
C699 H670 0.950 . S
C699 C698 1.397 . S
C699 C700 1.334 . S
C700 H671 0.950 . S
C700 C699 1.334 . S
C700 C701 1.287 . S
C701 C700 1.287 . S
C701 C702 1.524 . S
C701 H704 0.999 . S
C702 H672 0.950 . S
C702 C701 1.524 . S
C702 C703 1.415 . S
C703 H673 0.950 . S
C703 C698 1.363 . S
C703 C702 1.415 . S
H704 C701 0.999 . S
H705 C686 0.913 . S
H706 C724 0.951 . S
H707 C726 0.951 . S
H708 C728 0.950 . S
H709 C729 0.950 . S
H710 C731 0.950 . S
H711 C734 0.950 . S
H712 C735 0.950 . S
H713 C737 0.950 . S
H714 C738 0.950 . S
H715 C739 0.951 . S
H716 C741 0.951 . S
H717 C743 0.950 . S
H718 C744 0.950 . S
H719 C746 0.950 . S
H720 C749 0.950 . S
H721 C750 0.950 . S
H722 C752 0.950 . S
H723 C753 0.950 . S
C724 H706 0.951 . S
C724 C725 1.366 . S
C724 C726 1.388 . S
C725 C724 1.366 . S
C725 C729 1.385 . S
C726 H707 0.951 . S
C726 C724 1.388 . S
C726 C727 1.366 . S
C727 C726 1.366 . S
C727 C728 1.414 . S
C727 C730 1.499 . S
C728 H708 0.950 . S
C728 C727 1.414 . S
C728 C729 1.374 . S
C729 H709 0.950 . S
C729 C725 1.385 . S
C729 C728 1.374 . S
C730 C727 1.499 . S
C730 C731 1.373 . S
C730 C732 1.389 1_655 S
C731 H710 0.950 . S
C731 C730 1.373 . S
C731 C747 1.397 . S
C732 C730 1.389 1_455 S
C732 C733 1.524 . S
C732 C746 1.377 . S
C733 C732 1.524 . S
C733 C734 1.397 1_455 S
C733 C738 1.363 . S
C734 H711 0.950 . S
C734 C733 1.397 1_655 S
C734 C735 1.334 . S
C735 H712 0.950 . S
C735 C734 1.334 . S
C735 C736 1.287 1_655 S
C736 C735 1.287 1_455 S
C736 C737 1.524 . S
C736 H755 0.913 . S
C737 H713 0.950 . S
C737 C736 1.524 . S
C737 C738 1.415 . S
C738 H714 0.950 . S
C738 C733 1.363 . S
C738 C737 1.415 . S
C739 H715 0.951 . S
C739 C740 1.366 . S
C739 C741 1.388 . S
C740 C739 1.366 . S
C740 C744 1.385 . S
C741 H716 0.951 . S
C741 C739 1.388 . S
C741 C742 1.366 . S
C742 C741 1.366 . S
C742 C743 1.414 . S
C742 C745 1.499 . S
C743 H717 0.950 . S
C743 C742 1.414 . S
C743 C744 1.374 . S
C744 H718 0.950 . S
C744 C740 1.385 . S
C744 C743 1.374 . S
C745 C742 1.499 . S
C745 C746 1.373 . S
C745 C747 1.361 1_455 S
C746 H719 0.950 . S
C746 C732 1.377 . S
C746 C745 1.373 . S
C747 C731 1.397 . S
C747 C745 1.361 1_655 S
C747 C748 1.536 . S
C748 C747 1.536 . S
C748 C749 1.397 1_655 S
C748 C753 1.363 . S
C749 H720 0.950 . S
C749 C748 1.397 1_455 S
C749 C750 1.334 . S
C750 H721 0.950 . S
C750 C749 1.334 . S
C750 C751 1.287 1_455 S
C751 C750 1.287 1_655 S
C751 C752 1.524 . S
C751 H754 0.999 . S
C752 H722 0.950 . S
C752 C751 1.524 . S
C752 C753 1.415 . S
C753 H723 0.950 . S
C753 C748 1.363 . S
C753 C752 1.415 . S
H754 C751 0.999 . S
H755 C736 0.913 . S
H756 C774 0.951 . S
H757 C776 0.951 . S
H758 C778 0.950 . S
H759 C779 0.950 . S
H760 C781 0.950 . S
H761 C784 0.950 . S
H762 C785 0.950 . S
H763 C787 0.950 . S
H764 C788 0.950 . S
H765 C789 0.951 . S
H766 C791 0.951 . S
H767 C793 0.950 . S
H768 C794 0.950 . S
H769 C796 0.950 . S
H770 C799 0.950 . S
H771 C800 0.950 . S
H772 C802 0.950 . S
H773 C803 0.950 . S
C774 H756 0.951 . S
C774 C775 1.366 . S
C774 C776 1.388 . S
C775 C774 1.366 . S
C775 C779 1.385 . S
C776 H757 0.951 . S
C776 C774 1.388 . S
C776 C777 1.366 . S
C777 C776 1.366 . S
C777 C778 1.414 . S
C777 C780 1.499 . S
C778 H758 0.950 . S
C778 C777 1.414 . S
C778 C779 1.374 . S
C779 H759 0.950 . S
C779 C775 1.385 . S
C779 C778 1.374 . S
C780 C777 1.499 . S
C780 C781 1.373 . S
C780 C782 1.389 . S
C781 H760 0.950 . S
C781 C780 1.373 . S
C781 C797 1.377 . S
C782 C780 1.389 . S
C782 C783 1.524 . S
C782 C796 1.377 . S
C783 C782 1.524 . S
C783 C784 1.397 . S
C783 C788 1.363 . S
C784 H761 0.950 . S
C784 C783 1.397 . S
C784 C785 1.334 1_554 S
C785 H762 0.950 . S
C785 C784 1.334 1_556 S
C785 C786 1.287 . S
C786 C785 1.287 . S
C786 C787 1.524 1_556 S
C786 H805 0.913 . S
C787 H763 0.950 . S
C787 C786 1.524 1_554 S
C787 C788 1.415 . S
C788 H764 0.950 . S
C788 C783 1.363 . S
C788 C787 1.415 . S
C789 H765 0.951 . S
C789 C790 1.366 . S
C789 C791 1.388 . S
C790 C789 1.366 . S
C790 C794 1.385 . S
C791 H766 0.951 . S
C791 C789 1.388 . S
C791 C792 1.366 . S
C792 C791 1.366 . S
C792 C793 1.414 . S
C792 C795 1.499 . S
C793 H767 0.950 . S
C793 C792 1.414 . S
C793 C794 1.374 . S
C794 H768 0.950 . S
C794 C790 1.385 . S
C794 C793 1.374 . S
C795 C792 1.499 . S
C795 C796 1.373 . S
C795 C797 1.389 . S
C796 H769 0.950 . S
C796 C782 1.377 . S
C796 C795 1.373 . S
C797 C781 1.377 . S
C797 C795 1.389 . S
C797 C798 1.524 . S
C798 C797 1.524 . S
C798 C799 1.397 . S
C798 C803 1.363 . S
C799 H770 0.950 . S
C799 C798 1.397 . S
C799 C800 1.334 . S
C800 H771 0.950 . S
C800 C799 1.334 . S
C800 C801 1.287 . S
C801 C800 1.287 . S
C801 C802 1.524 . S
C801 H804 0.999 . S
C802 H772 0.950 . S
C802 C801 1.524 . S
C802 C803 1.415 . S
C803 H773 0.950 . S
C803 C798 1.363 . S
C803 C802 1.415 . S
H804 C801 0.999 . S
H805 C786 0.913 . S
H806 C824 0.951 . S
H807 C826 0.951 . S
H808 C828 0.950 . S
H809 C829 0.950 . S
H810 C831 0.950 . S
H811 C834 0.950 . S
H812 C835 0.950 . S
H813 C837 0.950 . S
H814 C838 0.950 . S
H815 C839 0.951 . S
H816 C841 0.951 . S
H817 C843 0.950 . S
H818 C844 0.950 . S
H819 C846 0.950 . S
H820 C849 0.950 . S
H821 C850 0.950 . S
H822 C852 0.950 . S
H823 C853 0.950 . S
C824 H806 0.951 . S
C824 C825 1.366 . S
C824 C826 1.388 . S
C825 C824 1.366 . S
C825 C829 1.385 . S
C826 H807 0.951 . S
C826 C824 1.388 . S
C826 C827 1.366 . S
C827 C826 1.366 . S
C827 C828 1.414 . S
C827 C830 1.499 . S
C828 H808 0.950 . S
C828 C827 1.414 . S
C828 C829 1.374 . S
C829 H809 0.950 . S
C829 C825 1.385 . S
C829 C828 1.374 . S
C830 C827 1.499 . S
C830 C831 1.373 . S
C830 C832 1.389 . S
C831 H810 0.950 . S
C831 C830 1.373 . S
C831 C847 1.377 . S
C832 C830 1.389 . S
C832 C833 1.524 . S
C832 C846 1.377 . S
C833 C832 1.524 . S
C833 C834 1.397 . S
C833 C838 1.363 . S
C834 H811 0.950 . S
C834 C833 1.397 . S
C834 C835 1.334 . S
C835 H812 0.950 . S
C835 C834 1.334 . S
C835 C836 1.287 . S
C836 C835 1.287 . S
C836 C837 1.524 . S
C836 H855 0.913 . S
C837 H813 0.950 . S
C837 C836 1.524 . S
C837 C838 1.415 . S
C838 H814 0.950 . S
C838 C833 1.363 . S
C838 C837 1.415 . S
C839 H815 0.951 . S
C839 C840 1.366 . S
C839 C841 1.388 . S
C840 C839 1.366 . S
C840 C844 1.385 . S
C841 H816 0.951 . S
C841 C839 1.388 . S
C841 C842 1.366 . S
C842 C841 1.366 . S
C842 C843 1.414 . S
C842 C845 1.499 . S
C843 H817 0.950 . S
C843 C842 1.414 . S
C843 C844 1.374 . S
C844 H818 0.950 . S
C844 C840 1.385 . S
C844 C843 1.374 . S
C845 C842 1.499 . S
C845 C846 1.373 . S
C845 C847 1.389 . S
C846 H819 0.950 . S
C846 C832 1.377 . S
C846 C845 1.373 . S
C847 C831 1.377 . S
C847 C845 1.389 . S
C847 C848 1.524 . S
C848 C847 1.524 . S
C848 C849 1.397 . S
C848 C853 1.363 . S
C849 H820 0.950 . S
C849 C848 1.397 . S
C849 C850 1.334 . S
C850 H821 0.950 . S
C850 C849 1.334 . S
C850 C851 1.287 . S
C851 C850 1.287 . S
C851 C852 1.524 . S
C851 H854 0.999 . S
C852 H822 0.950 . S
C852 C851 1.524 . S
C852 C853 1.415 . S
C853 H823 0.950 . S
C853 C848 1.363 . S
C853 C852 1.415 . S
H854 C851 0.999 . S
H855 C836 0.913 . S
H856 C874 0.951 . S
H857 C876 0.951 . S
H858 C878 0.950 . S
H859 C879 0.950 . S
H860 C881 0.950 . S
H861 C884 0.950 . S
H862 C885 0.950 . S
H863 C887 0.950 . S
H864 C888 0.950 . S
H865 C889 0.951 . S
H866 C891 0.951 . S
H867 C893 0.950 . S
H868 C894 0.950 . S
H869 C896 0.950 . S
H870 C899 0.950 . S
H871 C900 0.950 . S
H872 C902 0.950 . S
H873 C903 0.950 . S
C874 H856 0.951 . S
C874 C875 1.366 . S
C874 C876 1.388 . S
C875 C874 1.366 . S
C875 C879 1.385 . S
C876 H857 0.951 . S
C876 C874 1.388 . S
C876 C877 1.366 . S
C877 C876 1.366 . S
C877 C878 1.414 . S
C877 C880 1.499 . S
C878 H858 0.950 . S
C878 C877 1.414 . S
C878 C879 1.374 . S
C879 H859 0.950 . S
C879 C875 1.385 . S
C879 C878 1.374 . S
C880 C877 1.499 . S
C880 C881 1.373 . S
C880 C882 1.389 . S
C881 H860 0.950 . S
C881 C880 1.373 . S
C881 C897 1.377 . S
C882 C880 1.389 . S
C882 C883 1.524 . S
C882 C896 1.377 . S
C883 C882 1.524 . S
C883 C884 1.397 . S
C883 C888 1.363 . S
C884 H861 0.950 . S
C884 C883 1.397 . S
C884 C885 1.334 . S
C885 H862 0.950 . S
C885 C884 1.334 . S
C885 C886 1.287 . S
C886 C885 1.287 . S
C886 C887 1.524 . S
C886 H905 0.913 . S
C887 H863 0.950 . S
C887 C886 1.524 . S
C887 C888 1.415 . S
C888 H864 0.950 . S
C888 C883 1.363 . S
C888 C887 1.415 . S
C889 H865 0.951 . S
C889 C890 1.366 . S
C889 C891 1.388 . S
C890 C889 1.366 . S
C890 C894 1.385 . S
C891 H866 0.951 . S
C891 C889 1.388 . S
C891 C892 1.366 . S
C892 C891 1.366 . S
C892 C893 1.414 . S
C892 C895 1.499 . S
C893 H867 0.950 . S
C893 C892 1.414 . S
C893 C894 1.374 . S
C894 H868 0.950 . S
C894 C890 1.385 . S
C894 C893 1.374 . S
C895 C892 1.499 . S
C895 C896 1.373 . S
C895 C897 1.389 . S
C896 H869 0.950 . S
C896 C882 1.377 . S
C896 C895 1.373 . S
C897 C881 1.377 . S
C897 C895 1.389 . S
C897 C898 1.524 . S
C898 C897 1.524 . S
C898 C899 1.397 . S
C898 C903 1.363 . S
C899 H870 0.950 . S
C899 C898 1.397 . S
C899 C900 1.334 . S
C900 H871 0.950 . S
C900 C899 1.334 . S
C900 C901 1.287 . S
C901 C900 1.287 . S
C901 C902 1.524 . S
C901 H904 0.999 . S
C902 H872 0.950 . S
C902 C901 1.524 . S
C902 C903 1.415 . S
C903 H873 0.950 . S
C903 C898 1.363 . S
C903 C902 1.415 . S
H904 C901 0.999 . S
H905 C886 0.913 . S
H906 C924 0.951 . S
H907 C926 0.951 . S
H908 C928 0.950 . S
H909 C929 0.950 . S
H910 C931 0.950 . S
H911 C934 0.950 . S
H912 C935 0.950 . S
H913 C937 0.950 . S
H914 C938 0.950 . S
H915 C939 0.951 . S
H916 C941 0.951 . S
H917 C943 0.950 . S
H918 C944 0.950 . S
H919 C946 0.950 . S
H920 C949 0.950 . S
H921 C950 0.950 . S
H922 C952 0.950 . S
H923 C953 0.950 . S
C924 H906 0.951 . S
C924 C925 1.366 . S
C924 C926 1.388 . S
C925 C924 1.366 . S
C925 C929 1.385 . S
C926 H907 0.951 . S
C926 C924 1.388 . S
C926 C927 1.366 . S
C927 C926 1.366 . S
C927 C928 1.414 . S
C927 C930 1.499 . S
C928 H908 0.950 . S
C928 C927 1.414 . S
C928 C929 1.374 . S
C929 H909 0.950 . S
C929 C925 1.385 . S
C929 C928 1.374 . S
C930 C927 1.499 . S
C930 C931 1.373 . S
C930 C932 1.389 . S
C931 H910 0.950 . S
C931 C930 1.373 . S
C931 C947 1.377 . S
C932 C930 1.389 . S
C932 C933 1.524 . S
C932 C946 1.377 . S
C933 C932 1.524 . S
C933 C934 1.397 . S
C933 C938 1.363 . S
C934 H911 0.950 . S
C934 C933 1.397 . S
C934 C935 1.334 . S
C935 H912 0.950 . S
C935 C934 1.334 . S
C935 C936 1.287 . S
C936 C935 1.287 . S
C936 C937 1.524 . S
C936 H955 0.913 . S
C937 H913 0.950 . S
C937 C936 1.524 . S
C937 C938 1.415 . S
C938 H914 0.950 . S
C938 C933 1.363 . S
C938 C937 1.415 . S
C939 H915 0.951 . S
C939 C940 1.366 . S
C939 C941 1.388 . S
C940 C939 1.366 . S
C940 C944 1.385 . S
C941 H916 0.951 . S
C941 C939 1.388 . S
C941 C942 1.366 . S
C942 C941 1.366 . S
C942 C943 1.414 . S
C942 C945 1.499 . S
C943 H917 0.950 . S
C943 C942 1.414 . S
C943 C944 1.374 . S
C944 H918 0.950 . S
C944 C940 1.385 . S
C944 C943 1.374 . S
C945 C942 1.499 . S
C945 C946 1.373 . S
C945 C947 1.389 . S
C946 H919 0.950 . S
C946 C932 1.377 . S
C946 C945 1.373 . S
C947 C931 1.377 . S
C947 C945 1.389 . S
C947 C948 1.524 . S
C948 C947 1.524 . S
C948 C949 1.397 . S
C948 C953 1.363 . S
C949 H920 0.950 . S
C949 C948 1.397 . S
C949 C950 1.334 . S
C950 H921 0.950 . S
C950 C949 1.334 . S
C950 C951 1.287 . S
C951 C950 1.287 . S
C951 C952 1.524 . S
C951 H954 0.999 . S
C952 H922 0.950 . S
C952 C951 1.524 . S
C952 C953 1.415 . S
C953 H923 0.950 . S
C953 C948 1.363 . S
C953 C952 1.415 . S
H954 C951 0.999 . S
H955 C936 0.913 . S
H956 C974 0.951 . S
H957 C976 0.951 . S
H958 C978 0.950 . S
H959 C979 0.950 . S
H960 C981 0.950 . S
H961 C984 0.950 . S
H962 C985 0.950 . S
H963 C987 0.950 . S
H964 C988 0.950 . S
H965 C989 0.951 . S
H966 C991 0.951 . S
H967 C993 0.950 . S
H968 C994 0.950 . S
H969 C996 0.950 . S
H970 C999 0.950 . S
H971 C1000 0.950 . S
H972 C1002 0.950 . S
H973 C1003 0.950 . S
C974 H956 0.951 . S
C974 C975 1.366 . S
C974 C976 1.388 . S
C975 C974 1.366 . S
C975 C979 1.385 . S
C976 H957 0.951 . S
C976 C974 1.388 . S
C976 C977 1.366 . S
C977 C976 1.366 . S
C977 C978 1.414 . S
C977 C980 1.499 . S
C978 H958 0.950 . S
C978 C977 1.414 . S
C978 C979 1.374 . S
C979 H959 0.950 . S
C979 C975 1.385 . S
C979 C978 1.374 . S
C980 C977 1.499 . S
C980 C981 1.373 . S
C980 C982 1.389 . S
C981 H960 0.950 . S
C981 C980 1.373 . S
C981 C997 1.377 . S
C982 C980 1.389 . S
C982 C983 1.524 . S
C982 C996 1.377 . S
C983 C982 1.524 . S
C983 C984 1.397 . S
C983 C988 1.363 . S
C984 H961 0.950 . S
C984 C983 1.397 . S
C984 C985 1.334 . S
C985 H962 0.950 . S
C985 C984 1.334 . S
C985 C986 1.287 . S
C986 C985 1.287 . S
C986 C987 1.524 . S
C986 H1005 0.913 . S
C987 H963 0.950 . S
C987 C986 1.524 . S
C987 C988 1.415 . S
C988 H964 0.950 . S
C988 C983 1.363 . S
C988 C987 1.415 . S
C989 H965 0.951 . S
C989 C990 1.366 . S
C989 C991 1.388 . S
C990 C989 1.366 . S
C990 C994 1.385 . S
C991 H966 0.951 . S
C991 C989 1.388 . S
C991 C992 1.366 . S
C992 C991 1.366 . S
C992 C993 1.414 . S
C992 C995 1.499 . S
C993 H967 0.950 . S
C993 C992 1.414 . S
C993 C994 1.374 . S
C994 H968 0.950 . S
C994 C990 1.385 . S
C994 C993 1.374 . S
C995 C992 1.499 . S
C995 C996 1.373 . S
C995 C997 1.389 . S
C996 H969 0.950 . S
C996 C982 1.377 . S
C996 C995 1.373 . S
C997 C981 1.377 . S
C997 C995 1.389 . S
C997 C998 1.524 . S
C998 C997 1.524 . S
C998 C999 1.397 . S
C998 C1003 1.363 . S
C999 H970 0.950 . S
C999 C998 1.397 . S
C999 C1000 1.334 . S
C1000 H971 0.950 . S
C1000 C999 1.334 . S
C1000 C1001 1.287 1_554 S
C1001 C1000 1.287 1_556 S
C1001 C1002 1.524 . S
C1001 H1004 0.999 . S
C1002 H972 0.950 . S
C1002 C1001 1.524 . S
C1002 C1003 1.415 1_556 S
C1003 H973 0.950 . S
C1003 C998 1.363 . S
C1003 C1002 1.415 1_554 S
H1004 C1001 0.999 . S
H1005 C986 0.913 . S
H1006 C1024 0.951 . S
H1007 C1026 0.951 . S
H1008 C1028 0.950 . S
H1009 C1029 0.950 . S
H1010 C1031 0.950 . S
H1011 C1034 0.950 . S
H1012 C1035 0.950 . S
H1013 C1037 0.950 . S
H1014 C1038 0.950 . S
H1015 C1039 0.951 . S
H1016 C1041 0.951 . S
H1017 C1043 0.950 . S
H1018 C1044 0.950 . S
H1019 C1046 0.950 . S
H1020 C1049 0.950 . S
H1021 C1050 0.950 . S
H1022 C1052 0.950 . S
H1023 C1053 0.950 . S
C1024 H1006 0.951 . S
C1024 C1025 1.366 . S
C1024 C1026 1.388 . S
C1025 C1024 1.366 . S
C1025 C1029 1.385 . S
C1026 H1007 0.951 . S
C1026 C1024 1.388 . S
C1026 C1027 1.366 . S
C1027 C1026 1.366 . S
C1027 C1028 1.414 . S
C1027 C1030 1.499 . S
C1028 H1008 0.950 . S
C1028 C1027 1.414 . S
C1028 C1029 1.374 . S
C1029 H1009 0.950 . S
C1029 C1025 1.385 . S
C1029 C1028 1.374 . S
C1030 C1027 1.499 . S
C1030 C1031 1.373 . S
C1030 C1032 1.389 . S
C1031 H1010 0.950 . S
C1031 C1030 1.373 . S
C1031 C1047 1.377 . S
C1032 C1030 1.389 . S
C1032 C1033 1.524 . S
C1032 C1046 1.377 . S
C1033 C1032 1.524 . S
C1033 C1034 1.397 . S
C1033 C1038 1.363 . S
C1034 H1011 0.950 . S
C1034 C1033 1.397 . S
C1034 C1035 1.334 . S
C1035 H1012 0.950 . S
C1035 C1034 1.334 . S
C1035 C1036 1.287 . S
C1036 C1035 1.287 . S
C1036 C1037 1.524 . S
C1036 H1055 0.913 . S
C1037 H1013 0.950 . S
C1037 C1036 1.524 . S
C1037 C1038 1.415 . S
C1038 H1014 0.950 . S
C1038 C1033 1.363 . S
C1038 C1037 1.415 . S
C1039 H1015 0.951 . S
C1039 C1040 1.366 . S
C1039 C1041 1.388 . S
C1040 C1039 1.366 . S
C1040 C1044 1.385 . S
C1041 H1016 0.951 . S
C1041 C1039 1.388 . S
C1041 C1042 1.366 . S
C1042 C1041 1.366 . S
C1042 C1043 1.414 . S
C1042 C1045 1.499 . S
C1043 H1017 0.950 . S
C1043 C1042 1.414 . S
C1043 C1044 1.374 . S
C1044 H1018 0.950 . S
C1044 C1040 1.385 . S
C1044 C1043 1.374 . S
C1045 C1042 1.499 . S
C1045 C1046 1.373 . S
C1045 C1047 1.389 . S
C1046 H1019 0.950 . S
C1046 C1032 1.377 . S
C1046 C1045 1.373 . S
C1047 C1031 1.377 . S
C1047 C1045 1.389 . S
C1047 C1048 1.524 . S
C1048 C1047 1.524 . S
C1048 C1049 1.397 . S
C1048 C1053 1.363 . S
C1049 H1020 0.950 . S
C1049 C1048 1.397 . S
C1049 C1050 1.334 . S
C1050 H1021 0.950 . S
C1050 C1049 1.334 . S
C1050 C1051 1.287 . S
C1051 C1050 1.287 . S
C1051 C1052 1.524 . S
C1051 H1054 0.999 . S
C1052 H1022 0.950 . S
C1052 C1051 1.524 . S
C1052 C1053 1.415 . S
C1053 H1023 0.950 . S
C1053 C1048 1.363 . S
C1053 C1052 1.415 . S
H1054 C1051 0.999 . S
H1055 C1036 0.913 . S
H1056 C1074 0.951 . S
H1057 C1076 0.951 . S
H1058 C1078 0.950 . S
H1059 C1079 0.950 . S
H1060 C1081 0.950 . S
H1061 C1084 0.950 . S
H1062 C1085 0.950 . S
H1063 C1087 0.950 . S
H1064 C1088 0.950 . S
H1065 C1089 0.951 . S
H1066 C1091 0.951 . S
H1067 C1093 0.950 . S
H1068 C1094 0.950 . S
H1069 C1096 0.950 . S
H1070 C1099 0.950 . S
H1071 C1100 0.950 . S
H1072 C1102 0.950 . S
H1073 C1103 0.950 . S
C1074 H1056 0.951 . S
C1074 C1075 1.366 . S
C1074 C1076 1.388 . S
C1075 C1074 1.366 . S
C1075 C1079 1.385 . S
C1076 H1057 0.951 . S
C1076 C1074 1.388 . S
C1076 C1077 1.366 . S
C1077 C1076 1.366 . S
C1077 C1078 1.414 . S
C1077 C1080 1.499 . S
C1078 H1058 0.950 . S
C1078 C1077 1.414 . S
C1078 C1079 1.374 . S
C1079 H1059 0.950 . S
C1079 C1075 1.385 . S
C1079 C1078 1.374 . S
C1080 C1077 1.499 . S
C1080 C1081 1.373 . S
C1080 C1082 1.389 . S
C1081 H1060 0.950 . S
C1081 C1080 1.373 . S
C1081 C1097 1.377 . S
C1082 C1080 1.389 . S
C1082 C1083 1.524 . S
C1082 C1096 1.377 . S
C1083 C1082 1.524 . S
C1083 C1084 1.397 . S
C1083 C1088 1.363 . S
C1084 H1061 0.950 . S
C1084 C1083 1.397 . S
C1084 C1085 1.334 . S
C1085 H1062 0.950 . S
C1085 C1084 1.334 . S
C1085 C1086 1.287 . S
C1086 C1085 1.287 . S
C1086 C1087 1.524 . S
C1086 H1105 0.913 . S
C1087 H1063 0.950 . S
C1087 C1086 1.524 . S
C1087 C1088 1.415 . S
C1088 H1064 0.950 . S
C1088 C1083 1.363 . S
C1088 C1087 1.415 . S
C1089 H1065 0.951 . S
C1089 C1090 1.366 . S
C1089 C1091 1.388 . S
C1090 C1089 1.366 . S
C1090 C1094 1.385 . S
C1091 H1066 0.951 . S
C1091 C1089 1.388 . S
C1091 C1092 1.366 . S
C1092 C1091 1.366 . S
C1092 C1093 1.414 . S
C1092 C1095 1.499 . S
C1093 H1067 0.950 . S
C1093 C1092 1.414 . S
C1093 C1094 1.374 . S
C1094 H1068 0.950 . S
C1094 C1090 1.385 . S
C1094 C1093 1.374 . S
C1095 C1092 1.499 . S
C1095 C1096 1.373 . S
C1095 C1097 1.389 . S
C1096 H1069 0.950 . S
C1096 C1082 1.377 . S
C1096 C1095 1.373 . S
C1097 C1081 1.377 . S
C1097 C1095 1.389 . S
C1097 C1098 1.524 . S
C1098 C1097 1.524 . S
C1098 C1099 1.397 . S
C1098 C1103 1.363 . S
C1099 H1070 0.950 . S
C1099 C1098 1.397 . S
C1099 C1100 1.334 . S
C1100 H1071 0.950 . S
C1100 C1099 1.334 . S
C1100 C1101 1.287 . S
C1101 C1100 1.287 . S
C1101 C1102 1.524 . S
C1101 H1104 0.999 . S
C1102 H1072 0.950 . S
C1102 C1101 1.524 . S
C1102 C1103 1.415 . S
C1103 H1073 0.950 . S
C1103 C1098 1.363 . S
C1103 C1102 1.415 . S
H1104 C1101 0.999 . S
H1105 C1086 0.913 . S
H1106 C1124 0.951 . S
H1107 C1126 0.951 . S
H1108 C1128 0.950 . S
H1109 C1129 0.950 . S
H1110 C1131 0.950 . S
H1111 C1134 0.950 . S
H1112 C1135 0.950 . S
H1113 C1137 0.950 . S
H1114 C1138 0.950 . S
H1115 C1139 0.951 . S
H1116 C1141 0.951 . S
H1117 C1143 0.950 . S
H1118 C1144 0.950 . S
H1119 C1146 0.950 . S
H1120 C1149 0.950 . S
H1121 C1150 0.950 . S
H1122 C1152 0.950 . S
H1123 C1153 0.950 . S
C1124 H1106 0.951 . S
C1124 C1125 1.366 . S
C1124 C1126 1.388 . S
C1125 C1124 1.366 . S
C1125 C1129 1.385 . S
C1126 H1107 0.951 . S
C1126 C1124 1.388 . S
C1126 C1127 1.366 . S
C1127 C1126 1.366 . S
C1127 C1128 1.414 . S
C1127 C1130 1.499 . S
C1128 H1108 0.950 . S
C1128 C1127 1.414 . S
C1128 C1129 1.374 . S
C1129 H1109 0.950 . S
C1129 C1125 1.385 . S
C1129 C1128 1.374 . S
C1130 C1127 1.499 . S
C1130 C1131 1.373 . S
C1130 C1132 1.389 . S
C1131 H1110 0.950 . S
C1131 C1130 1.373 . S
C1131 C1147 1.377 . S
C1132 C1130 1.389 . S
C1132 C1133 1.524 . S
C1132 C1146 1.377 . S
C1133 C1132 1.524 . S
C1133 C1134 1.397 . S
C1133 C1138 1.363 . S
C1134 H1111 0.950 . S
C1134 C1133 1.397 . S
C1134 C1135 1.334 . S
C1135 H1112 0.950 . S
C1135 C1134 1.334 . S
C1135 C1136 1.287 . S
C1136 C1135 1.287 . S
C1136 C1137 1.524 1_556 S
C1136 H1155 0.913 1_556 S
C1137 H1113 0.950 . S
C1137 C1136 1.524 1_554 S
C1137 C1138 1.415 1_554 S
C1138 H1114 0.950 . S
C1138 C1133 1.363 . S
C1138 C1137 1.415 1_556 S
C1139 H1115 0.951 . S
C1139 C1140 1.366 . S
C1139 C1141 1.388 . S
C1140 C1139 1.366 . S
C1140 C1144 1.385 . S
C1141 H1116 0.951 . S
C1141 C1139 1.388 . S
C1141 C1142 1.366 . S
C1142 C1141 1.366 . S
C1142 C1143 1.414 . S
C1142 C1145 1.499 . S
C1143 H1117 0.950 . S
C1143 C1142 1.414 . S
C1143 C1144 1.374 . S
C1144 H1118 0.950 . S
C1144 C1140 1.385 . S
C1144 C1143 1.374 . S
C1145 C1142 1.499 . S
C1145 C1146 1.373 . S
C1145 C1147 1.389 . S
C1146 H1119 0.950 . S
C1146 C1132 1.377 . S
C1146 C1145 1.373 . S
C1147 C1131 1.377 . S
C1147 C1145 1.389 . S
C1147 C1148 1.524 . S
C1148 C1147 1.524 . S
C1148 C1149 1.397 . S
C1148 C1153 1.363 . S
C1149 H1120 0.950 . S
C1149 C1148 1.397 . S
C1149 C1150 1.334 . S
C1150 H1121 0.950 . S
C1150 C1149 1.334 . S
C1150 C1151 1.287 . S
C1151 C1150 1.287 . S
C1151 C1152 1.524 . S
C1151 H1154 0.999 . S
C1152 H1122 0.950 . S
C1152 C1151 1.524 . S
C1152 C1153 1.415 . S
C1153 H1123 0.950 . S
C1153 C1148 1.363 . S
C1153 C1152 1.415 . S
H1154 C1151 0.999 . S
H1155 C1136 0.913 1_554 S
H1156 C1174 0.951 . S
H1157 C1176 0.951 . S
H1158 C1178 0.950 . S
H1159 C1179 0.950 . S
H1160 C1181 0.950 . S
H1161 C1184 0.950 . S
H1162 C1185 0.950 . S
H1163 C1187 0.950 . S
H1164 C1188 0.950 . S
H1165 C1189 0.951 . S
H1166 C1191 0.951 . S
H1167 C1193 0.950 . S
H1168 C1194 0.950 . S
H1169 C1196 0.950 . S
H1170 C1199 0.950 . S
H1171 C1200 0.950 . S
H1172 C1202 0.950 . S
H1173 C1203 0.950 . S
C1174 H1156 0.951 . S
C1174 C1175 1.366 . S
C1174 C1176 1.388 . S
C1175 C1174 1.366 . S
C1175 C1179 1.385 . S
C1176 H1157 0.951 . S
C1176 C1174 1.388 . S
C1176 C1177 1.366 . S
C1177 C1176 1.366 . S
C1177 C1178 1.414 . S
C1177 C1180 1.499 . S
C1178 H1158 0.950 . S
C1178 C1177 1.414 . S
C1178 C1179 1.374 . S
C1179 H1159 0.950 . S
C1179 C1175 1.385 . S
C1179 C1178 1.374 . S
C1180 C1177 1.499 . S
C1180 C1181 1.373 . S
C1180 C1182 1.389 . S
C1181 H1160 0.950 . S
C1181 C1180 1.373 . S
C1181 C1197 1.377 . S
C1182 C1180 1.389 . S
C1182 C1183 1.524 . S
C1182 C1196 1.377 . S
C1183 C1182 1.524 . S
C1183 C1184 1.397 . S
C1183 C1188 1.363 . S
C1184 H1161 0.950 . S
C1184 C1183 1.397 . S
C1184 C1185 1.334 . S
C1185 H1162 0.950 . S
C1185 C1184 1.334 . S
C1185 C1186 1.287 . S
C1186 C1185 1.287 . S
C1186 C1187 1.524 . S
C1186 H1205 0.913 . S
C1187 H1163 0.950 . S
C1187 C1186 1.524 . S
C1187 C1188 1.415 . S
C1188 H1164 0.950 . S
C1188 C1183 1.363 . S
C1188 C1187 1.415 . S
C1189 H1165 0.951 . S
C1189 C1190 1.366 . S
C1189 C1191 1.388 . S
C1190 C1189 1.366 . S
C1190 C1194 1.385 . S
C1191 H1166 0.951 . S
C1191 C1189 1.388 . S
C1191 C1192 1.366 . S
C1192 C1191 1.366 . S
C1192 C1193 1.414 . S
C1192 C1195 1.499 . S
C1193 H1167 0.950 . S
C1193 C1192 1.414 . S
C1193 C1194 1.374 . S
C1194 H1168 0.950 . S
C1194 C1190 1.385 . S
C1194 C1193 1.374 . S
C1195 C1192 1.499 . S
C1195 C1196 1.373 . S
C1195 C1197 1.389 . S
C1196 H1169 0.950 . S
C1196 C1182 1.377 . S
C1196 C1195 1.373 . S
C1197 C1181 1.377 . S
C1197 C1195 1.389 . S
C1197 C1198 1.524 . S
C1198 C1197 1.524 . S
C1198 C1199 1.397 . S
C1198 C1203 1.363 . S
C1199 H1170 0.950 . S
C1199 C1198 1.397 . S
C1199 C1200 1.334 . S
C1200 H1171 0.950 . S
C1200 C1199 1.334 . S
C1200 C1201 1.287 . S
C1201 C1200 1.287 . S
C1201 C1202 1.524 . S
C1201 H1204 0.999 . S
C1202 H1172 0.950 . S
C1202 C1201 1.524 . S
C1202 C1203 1.415 . S
C1203 H1173 0.950 . S
C1203 C1198 1.363 . S
C1203 C1202 1.415 . S
H1204 C1201 0.999 . S
H1205 C1186 0.913 . S
H1206 C1224 0.951 . S
H1207 C1226 0.951 . S
H1208 C1228 0.950 . S
H1209 C1229 0.950 . S
H1210 C1231 0.950 . S
H1211 C1234 0.950 . S
H1212 C1235 0.950 . S
H1213 C1237 0.950 . S
H1214 C1238 0.950 . S
H1215 C1239 0.951 . S
H1216 C1241 0.951 . S
H1217 C1243 0.950 . S
H1218 C1244 0.950 . S
H1219 C1246 0.950 . S
H1220 C1249 0.950 . S
H1221 C1250 0.950 . S
H1222 C1252 0.950 . S
H1223 C1253 0.950 . S
C1224 H1206 0.951 . S
C1224 C1225 1.366 . S
C1224 C1226 1.388 . S
C1225 C1224 1.366 . S
C1225 C1229 1.385 . S
C1226 H1207 0.951 . S
C1226 C1224 1.388 . S
C1226 C1227 1.366 . S
C1227 C1226 1.366 . S
C1227 C1228 1.414 . S
C1227 C1230 1.499 . S
C1228 H1208 0.950 . S
C1228 C1227 1.414 . S
C1228 C1229 1.374 . S
C1229 H1209 0.950 . S
C1229 C1225 1.385 . S
C1229 C1228 1.374 . S
C1230 C1227 1.499 . S
C1230 C1231 1.373 . S
C1230 C1232 1.389 . S
C1231 H1210 0.950 . S
C1231 C1230 1.373 . S
C1231 C1247 1.377 . S
C1232 C1230 1.389 . S
C1232 C1233 1.524 . S
C1232 C1246 1.377 . S
C1233 C1232 1.524 . S
C1233 C1234 1.397 . S
C1233 C1238 1.363 . S
C1234 H1211 0.950 . S
C1234 C1233 1.397 . S
C1234 C1235 1.334 . S
C1235 H1212 0.950 . S
C1235 C1234 1.334 . S
C1235 C1236 1.287 . S
C1236 C1235 1.287 . S
C1236 C1237 1.524 . S
C1236 H1255 0.913 . S
C1237 H1213 0.950 . S
C1237 C1236 1.524 . S
C1237 C1238 1.415 . S
C1238 H1214 0.950 . S
C1238 C1233 1.363 . S
C1238 C1237 1.415 . S
C1239 H1215 0.951 . S
C1239 C1240 1.366 . S
C1239 C1241 1.388 . S
C1240 C1239 1.366 . S
C1240 C1244 1.385 . S
C1241 H1216 0.951 . S
C1241 C1239 1.388 . S
C1241 C1242 1.366 . S
C1242 C1241 1.366 . S
C1242 C1243 1.414 . S
C1242 C1245 1.499 . S
C1243 H1217 0.950 . S
C1243 C1242 1.414 . S
C1243 C1244 1.374 . S
C1244 H1218 0.950 . S
C1244 C1240 1.385 . S
C1244 C1243 1.374 . S
C1245 C1242 1.499 . S
C1245 C1246 1.373 . S
C1245 C1247 1.389 . S
C1246 H1219 0.950 . S
C1246 C1232 1.377 . S
C1246 C1245 1.373 . S
C1247 C1231 1.377 . S
C1247 C1245 1.389 . S
C1247 C1248 1.524 . S
C1248 C1247 1.524 . S
C1248 C1249 1.397 . S
C1248 C1253 1.363 . S
C1249 H1220 0.950 . S
C1249 C1248 1.397 . S
C1249 C1250 1.334 1_556 S
C1250 H1221 0.950 . S
C1250 C1249 1.334 1_554 S
C1250 C1251 1.287 . S
C1251 C1250 1.287 . S
C1251 C1252 1.524 . S
C1251 H1254 0.999 . S
C1252 H1222 0.950 . S
C1252 C1251 1.524 . S
C1252 C1253 1.415 1_554 S
C1253 H1223 0.950 . S
C1253 C1248 1.363 . S
C1253 C1252 1.415 1_556 S
H1254 C1251 0.999 . S
H1255 C1236 0.913 . S
H1256 C1274 0.951 . S
H1257 C1276 0.951 . S
H1258 C1278 0.950 . S
H1259 C1279 0.950 . S
H1260 C1281 0.950 . S
H1261 C1284 0.950 . S
H1262 C1285 0.950 . S
H1263 C1287 0.950 . S
H1264 C1288 0.950 . S
H1265 C1289 0.951 . S
H1266 C1291 0.951 . S
H1267 C1293 0.950 . S
H1268 C1294 0.950 . S
H1269 C1296 0.950 . S
H1270 C1299 0.950 . S
H1271 C1300 0.950 . S
H1272 C1302 0.950 . S
H1273 C1303 0.950 . S
C1274 H1256 0.951 . S
C1274 C1275 1.366 . S
C1274 C1276 1.388 . S
C1275 C1274 1.366 . S
C1275 C1279 1.385 . S
C1276 H1257 0.951 . S
C1276 C1274 1.388 . S
C1276 C1277 1.366 . S
C1277 C1276 1.366 . S
C1277 C1278 1.414 . S
C1277 C1280 1.499 . S
C1278 H1258 0.950 . S
C1278 C1277 1.414 . S
C1278 C1279 1.374 . S
C1279 H1259 0.950 . S
C1279 C1275 1.385 . S
C1279 C1278 1.374 . S
C1280 C1277 1.499 . S
C1280 C1281 1.373 . S
C1280 C1282 1.389 . S
C1281 H1260 0.950 . S
C1281 C1280 1.373 . S
C1281 C1297 1.377 . S
C1282 C1280 1.389 . S
C1282 C1283 1.524 . S
C1282 C1296 1.377 . S
C1283 C1282 1.524 . S
C1283 C1284 1.397 . S
C1283 C1288 1.363 . S
C1284 H1261 0.950 . S
C1284 C1283 1.397 . S
C1284 C1285 1.334 . S
C1285 H1262 0.950 . S
C1285 C1284 1.334 . S
C1285 C1286 1.287 . S
C1286 C1285 1.287 . S
C1286 C1287 1.524 . S
C1286 H1305 0.913 . S
C1287 H1263 0.950 . S
C1287 C1286 1.524 . S
C1287 C1288 1.415 . S
C1288 H1264 0.950 . S
C1288 C1283 1.363 . S
C1288 C1287 1.415 . S
C1289 H1265 0.951 . S
C1289 C1290 1.366 . S
C1289 C1291 1.388 . S
C1290 C1289 1.366 . S
C1290 C1294 1.385 . S
C1291 H1266 0.951 . S
C1291 C1289 1.388 . S
C1291 C1292 1.366 . S
C1292 C1291 1.366 . S
C1292 C1293 1.414 . S
C1292 C1295 1.499 . S
C1293 H1267 0.950 . S
C1293 C1292 1.414 . S
C1293 C1294 1.374 . S
C1294 H1268 0.950 . S
C1294 C1290 1.385 . S
C1294 C1293 1.374 . S
C1295 C1292 1.499 . S
C1295 C1296 1.373 . S
C1295 C1297 1.389 . S
C1296 H1269 0.950 . S
C1296 C1282 1.377 . S
C1296 C1295 1.373 . S
C1297 C1281 1.377 . S
C1297 C1295 1.389 . S
C1297 C1298 1.524 . S
C1298 C1297 1.524 . S
C1298 C1299 1.397 . S
C1298 C1303 1.363 . S
C1299 H1270 0.950 . S
C1299 C1298 1.397 . S
C1299 C1300 1.334 . S
C1300 H1271 0.950 . S
C1300 C1299 1.334 . S
C1300 C1301 1.287 . S
C1301 C1300 1.287 . S
C1301 C1302 1.524 . S
C1301 H1304 0.999 . S
C1302 H1272 0.950 . S
C1302 C1301 1.524 . S
C1302 C1303 1.415 . S
C1303 H1273 0.950 . S
C1303 C1298 1.363 . S
C1303 C1302 1.415 . S
H1304 C1301 0.999 . S
H1305 C1286 0.913 . S
H1306 C1324 0.951 . S
H1307 C1326 0.951 . S
H1308 C1328 0.950 . S
H1309 C1329 0.950 . S
H1310 C1331 0.950 . S
H1311 C1334 0.950 . S
H1312 C1335 0.950 . S
H1313 C1337 0.950 . S
H1314 C1338 0.950 . S
H1315 C1339 0.951 . S
H1316 C1341 0.951 . S
H1317 C1343 0.950 . S
H1318 C1344 0.950 . S
H1319 C1346 0.950 . S
H1320 C1349 0.950 . S
H1321 C1350 0.950 . S
H1322 C1352 0.950 . S
H1323 C1353 0.950 . S
C1324 H1306 0.951 . S
C1324 C1325 1.366 . S
C1324 C1326 1.388 . S
C1325 C1324 1.366 . S
C1325 C1329 1.385 . S
C1326 H1307 0.951 . S
C1326 C1324 1.388 . S
C1326 C1327 1.366 . S
C1327 C1326 1.366 . S
C1327 C1328 1.414 . S
C1327 C1330 1.499 . S
C1328 H1308 0.950 . S
C1328 C1327 1.414 . S
C1328 C1329 1.374 . S
C1329 H1309 0.950 . S
C1329 C1325 1.385 . S
C1329 C1328 1.374 . S
C1330 C1327 1.499 . S
C1330 C1331 1.373 . S
C1330 C1332 1.389 . S
C1331 H1310 0.950 . S
C1331 C1330 1.373 . S
C1331 C1347 1.377 . S
C1332 C1330 1.389 . S
C1332 C1333 1.524 . S
C1332 C1346 1.377 . S
C1333 C1332 1.524 . S
C1333 C1334 1.397 . S
C1333 C1338 1.363 . S
C1334 H1311 0.950 . S
C1334 C1333 1.397 . S
C1334 C1335 1.334 . S
C1335 H1312 0.950 . S
C1335 C1334 1.334 . S
C1335 C1336 1.287 . S
C1336 C1335 1.287 . S
C1336 C1337 1.524 . S
C1336 H1355 0.913 . S
C1337 H1313 0.950 . S
C1337 C1336 1.524 . S
C1337 C1338 1.415 . S
C1338 H1314 0.950 . S
C1338 C1333 1.363 . S
C1338 C1337 1.415 . S
C1339 H1315 0.951 . S
C1339 C1340 1.366 . S
C1339 C1341 1.388 . S
C1340 C1339 1.366 . S
C1340 C1344 1.385 . S
C1341 H1316 0.951 . S
C1341 C1339 1.388 . S
C1341 C1342 1.366 . S
C1342 C1341 1.366 . S
C1342 C1343 1.414 . S
C1342 C1345 1.499 . S
C1343 H1317 0.950 . S
C1343 C1342 1.414 . S
C1343 C1344 1.374 . S
C1344 H1318 0.950 . S
C1344 C1340 1.385 . S
C1344 C1343 1.374 . S
C1345 C1342 1.499 . S
C1345 C1346 1.373 . S
C1345 C1347 1.389 . S
C1346 H1319 0.950 . S
C1346 C1332 1.377 . S
C1346 C1345 1.373 . S
C1347 C1331 1.377 . S
C1347 C1345 1.389 . S
C1347 C1348 1.524 . S
C1348 C1347 1.524 . S
C1348 C1349 1.397 . S
C1348 C1353 1.363 . S
C1349 H1320 0.950 . S
C1349 C1348 1.397 . S
C1349 C1350 1.334 . S
C1350 H1321 0.950 . S
C1350 C1349 1.334 . S
C1350 C1351 1.287 . S
C1351 C1350 1.287 . S
C1351 C1352 1.524 . S
C1351 H1354 0.999 . S
C1352 H1322 0.950 . S
C1352 C1351 1.524 . S
C1352 C1353 1.415 . S
C1353 H1323 0.950 . S
C1353 C1348 1.363 . S
C1353 C1352 1.415 . S
H1354 C1351 0.999 . S
H1355 C1336 0.913 . S
C175 C138 1.411 . S
C190 C8 1.420 . S
C225 C21 1.287 . S
C240 C151 1.288 . S
C275 C34 1.411 . S
C290 C86 1.421 . S
C325 C99 1.411 . S
C340 C47 1.420 . S
C375 C112 1.288 . S
C390 C60 1.287 . S
C425 C73 1.412 . S
C440 C125 1.421 . S
C475 C0 0.710 . S
C490 C91 0.704 . S
C525 C13 0.598 . S
C540 C104 0.597 . S
C575 C117 0.708 . S
C590 C26 0.704 . S
C625 C130 0.704 . S
C640 C39 0.708 . S
C675 C143 0.598 . S
C690 C52 0.597 . S
C725 C78 0.708 . S
C740 C65 0.704 . S
C775 C10 0.637 . S
C790 C57 0.667 . S
C825 C23 0.653 . S
C840 C70 0.657 . S
C875 C36 0.618 . S
C890 C5 0.650 . S
C925 C49 0.638 . S
C940 C18 0.664 . S
C975 C62 0.652 . S
C990 C31 0.659 . S
C1025 C75 0.620 . S
C1040 C44 0.646 . S
C1075 C88 0.638 . S
C1090 C109 0.667 . S
C1125 C101 0.620 . S
C1140 C122 0.646 . S
C1175 C135 0.659 . S
C1190 C114 0.651 . S
C1225 C127 0.639 . S
C1240 C148 0.665 . S
C1275 C140 0.621 . S
C1290 C83 0.646 . S
C1325 C153 0.654 . S
C1340 C96 0.657 . S
