# Generated by pormake.
# Topology oof, (8)-cn, num edge types: 1
# Building blocks:
#     Node 0, Type 0, BuildingBlock: VETTIZ_charged_sbu_0, # of connection points: 8
#     Node 1, Type 0, BuildingBlock: VETTIZ_charged_sbu_0, # of connection points: 8
#     Node 2, Type 0, BuildingBlock: VETTIZ_charged_sbu_0, # of connection points: 8
#     Node 3, Type 0, BuildingBlock: VETTIZ_charged_sbu_0, # of connection points: 8
#     Edge 4, Type (0, 0), BuildingBlock: MIFKUJ_clean_linker_0, # of connection points: 2
#     Edge 5, Type (0, 0), BuildingBlock: MIFKUJ_clean_linker_0, # of connection points: 2
#     Edge 6, Type (0, 0), BuildingBlock: MIFKUJ_clean_linker_0, # of connection points: 2
#     Edge 7, Type (0, 0), BuildingBlock: MIFKUJ_clean_linker_0, # of connection points: 2
#     Edge 8, Type (0, 0), BuildingBlock: MIFKUJ_clean_linker_0, # of connection points: 2
#     Edge 9, Type (0, 0), BuildingBlock: MIFKUJ_clean_linker_0, # of connection points: 2
#     Edge 10, Type (0, 0), BuildingBlock: MIFKUJ_clean_linker_0, # of connection points: 2
#     Edge 11, Type (0, 0), BuildingBlock: MIFKUJ_clean_linker_0, # of connection points: 2
#     Edge 12, Type (0, 0), BuildingBlock: MIFKUJ_clean_linker_0, # of connection points: 2
#     Edge 13, Type (0, 0), BuildingBlock: MIFKUJ_clean_linker_0, # of connection points: 2
#     Edge 14, Type (0, 0), BuildingBlock: MIFKUJ_clean_linker_0, # of connection points: 2
#     Edge 15, Type (0, 0), BuildingBlock: MIFKUJ_clean_linker_0, # of connection points: 2
#     Edge 16, Type (0, 0), BuildingBlock: MIFKUJ_clean_linker_0, # of connection points: 2
#     Edge 17, Type (0, 0), BuildingBlock: MIFKUJ_clean_linker_0, # of connection points: 2
#     Edge 18, Type (0, 0), BuildingBlock: MIFKUJ_clean_linker_0, # of connection points: 2
#     Edge 19, Type (0, 0), BuildingBlock: MIFKUJ_clean_linker_0, # of connection points: 2
# Relax obj value: 0.130
# Max RMSD: 0.230
# Mean RMSD: 0.230
data_MOF--net-oof--node1-VETTIZ_charged_sbu_0--edge1-MIFKUJ_clean_linker_0
_symmetry_space_group_name_H-M    P1
_symmetry_Int_Tables_number       1
_symmetry_cell_setting            triclinic
loop_
_symmetry_equiv_pos_as_xyz
'x, y, z'
_cell_length_a     21.304318
_cell_length_b     69.986121
_cell_length_c     21.135133
_cell_angle_alpha  89.386837
_cell_angle_beta   99.575787
_cell_angle_gamma 90.549166
loop_
_atom_site_label
_atom_site_type_symbol
_atom_site_fract_x
_atom_site_fract_y
_atom_site_fract_z
_atom_type_partial_charge
Fe0 Fe 0.04041 0.13962 0.31714 0.0
O1 O 0.98599 0.15772 0.25823 0.0
Fe2 Fe 0.04561 0.10038 0.21804 0.0
Fe3 Fe 0.93144 0.17656 0.2915 0.0
O4 O 0.9995 0.12057 0.25355 0.0
O5 O 0.99432 0.12046 0.24688 0.0
O6 O 0.979 0.15733 0.25211 0.0
Fe7 Fe 0.93987 0.13807 0.18587 0.0
C8 C 0.95113 0.14803 0.4063 0.0
O9 O 0.07606 0.1633 0.37445 0.0
O10 O 0.01862 0.18877 0.32457 0.0
O11 O 0.01265 0.14276 0.13359 0.0
O12 O 0.04143 0.11256 0.1257 0.0
O13 O 0.13335 0.11298 0.24362 0.0
O14 O 0.11663 0.14334 0.26796 0.0
O15 O 0.9178 0.18719 0.19868 0.0
O16 O 0.89023 0.16096 0.13319 0.0
C17 C 0.15223 0.13023 0.25192 0.0
O18 O 0.91109 0.11387 0.12319 0.0
O19 O 0.95483 0.0903 0.19011 0.0
O20 O 0.97014 0.13519 0.3721 0.0
O21 O 0.94035 0.16488 0.38405 0.0
C22 C 0.06495 0.18157 0.36535 0.0
C23 C 0.89438 0.17937 0.14425 0.0
C24 C 0.82703 0.14562 0.25246 0.0
O25 O 0.84602 0.16261 0.26619 0.0
O26 O 0.86224 0.13316 0.23208 0.0
C27 C 0.03295 0.12941 0.10174 0.0
O28 O 0.05471 0.09046 0.31118 0.0
O29 O 0.08681 0.11711 0.37207 0.0
C30 C 0.92436 0.09574 0.13545 0.0
C31 C 0.07519 0.09885 0.36517 0.0
Fe32 Fe 0.96184 0.89949 0.78476 0.0
O33 O 0.98281 0.89169 0.70024 0.0
Fe34 Fe 0.07633 0.87653 0.89277 0.0
Fe35 Fe 0.92073 0.89179 0.621 0.0
O36 O 0.00862 0.87552 0.81582 0.0
O37 O 0.014 0.87407 0.81291 0.0
O38 O 0.98659 0.89029 0.69778 0.0
Fe39 Fe 0.0376 0.86696 0.72798 0.0
C40 C 0.83068 0.88799 0.72094 0.0
O41 O 0.92107 0.92478 0.73925 0.0
O42 O 0.93064 0.92071 0.63283 0.0
O43 O 0.12031 0.88328 0.74346 0.0
O44 O 0.15489 0.8781 0.8475 0.0
O45 O 0.07599 0.90627 0.90224 0.0
O46 O 0.04535 0.9147 0.80223 0.0
O47 O 0.99849 0.88796 0.57679 0.0
O48 O 0.05449 0.86321 0.63308 0.0
C49 C 0.06663 0.91933 0.85953 0.0
O50 O 0.0886 0.8432 0.77452 0.0
O51 O 0.08136 0.84734 0.88137 0.0
O52 O 0.87511 0.88526 0.76848 0.0
O53 O 0.84234 0.89362 0.66656 0.0
C54 C 0.92437 0.93121 0.68147 0.0
C55 C 0.04034 0.87446 0.58314 0.0
C56 C 0.91894 0.84852 0.6546 0.0
O57 O 0.90785 0.86266 0.61594 0.0
O58 O 0.95825 0.84934 0.70734 0.0
C59 C 0.1651 0.88262 0.7916 0.0
O60 O 0.99681 0.87756 0.93508 0.0
O61 O 0.94548 0.9034 0.88067 0.0
C62 C 0.09608 0.83738 0.83445 0.0
C63 C 0.95618 0.89144 0.92939 0.0
Fe64 Fe 0.59916 0.64065 0.34472 0.0
O65 O 0.51373 0.64826 0.28638 0.0
Fe66 Fe 0.60089 0.60695 0.21734 0.0
Fe67 Fe 0.46236 0.67105 0.30846 0.0
O68 O 0.60742 0.63432 0.25409 0.0
O69 O 0.5119 0.61245 0.23418 0.0
O70 O 0.50513 0.6496 0.27394 0.0
Fe71 Fe 0.46293 0.63557 0.19208 0.0
C72 C 0.51762 0.65397 0.44144 0.0
O73 O 0.63406 0.66795 0.33414 0.0
O74 O 0.54713 0.68655 0.33095 0.0
O75 O 0.53544 0.64495 0.14378 0.0
O76 O 0.59763 0.62023 0.13095 0.0
O77 O 0.69846 0.60626 0.23283 0.0
O78 O 0.65251 0.62954 0.27395 0.0
O79 O 0.4477 0.68276 0.21698 0.0
O80 O 0.41207 0.65896 0.14981 0.0
C81 C 0.705 0.61921 0.27492 0.0
O82 O 0.42957 0.6176 0.113 0.0
O83 O 0.49997 0.60635 0.18947 0.0
O84 O 0.57063 0.64871 0.42766 0.0
O85 O 0.47229 0.66073 0.40083 0.0
C86 C 0.60774 0.68425 0.33775 0.0
C87 C 0.41757 0.67676 0.16336 0.0
C88 C 0.35685 0.63936 0.26932 0.0
O89 O 0.37741 0.65578 0.29032 0.0
O90 O 0.38684 0.62842 0.23649 0.0
C91 C 0.57254 0.63618 0.11247 0.0
O92 O 0.60488 0.59262 0.30207 0.0
O93 O 0.56369 0.61333 0.36316 0.0
C94 C 0.46823 0.60403 0.13063 0.0
C95 C 0.57938 0.59634 0.35055 0.0
Fe96 Fe 0.44433 0.4242 0.78432 0.0
O97 O 0.48803 0.40471 0.7419 0.0
Fe98 Fe 0.55111 0.38641 0.80253 0.0
Fe99 Fe 0.44327 0.38583 0.67907 0.0
O100 O 0.49355 0.40477 0.74766 0.0
O101 O 0.50578 0.36737 0.74008 0.0
O102 O 0.49908 0.36718 0.73466 0.0
Fe103 Fe 0.55001 0.34779 0.69902 0.0
C104 C 0.33636 0.39425 0.75264 0.0
O105 O 0.42532 0.43505 0.69289 0.0
O106 O 0.3942 0.40908 0.62792 0.0
O107 O 0.63785 0.36073 0.72195 0.0
O108 O 0.62255 0.3909 0.74818 0.0
O109 O 0.58851 0.41015 0.86044 0.0
O110 O 0.53364 0.4356 0.80824 0.0
O111 O 0.51071 0.38994 0.62069 0.0
O112 O 0.53948 0.35995 0.60836 0.0
C113 C 0.57892 0.42849 0.84994 0.0
O114 O 0.56603 0.33702 0.79123 0.0
O115 O 0.60357 0.36339 0.85174 0.0
O116 O 0.35654 0.41119 0.76485 0.0
O117 O 0.37037 0.3816 0.73188 0.0
C118 C 0.40014 0.42745 0.63886 0.0
C119 C 0.53008 0.37693 0.58717 0.0
C120 C 0.41381 0.34414 0.63015 0.0
O121 O 0.40395 0.3625 0.62199 0.0
O122 O 0.46095 0.33649 0.66871 0.0
C123 C 0.65755 0.37786 0.73102 0.0
O124 O 0.48524 0.38186 0.86235 0.0
O125 O 0.45797 0.41194 0.87558 0.0
C126 C 0.59577 0.34495 0.8431 0.0
C127 C 0.46713 0.39489 0.89669 0.0
H128 H 0.01909 0.16292 0.02967 0.0
H129 H 0.00638 0.16644 0.91238 0.0
H130 H 0.03211 0.10587 0.89525 0.0
H131 H 0.04626 0.10226 0.01179 0.0
H132 H 0.08543 0.1555 0.81523 0.0
H133 H 0.91531 0.09142 0.77042 0.0
H134 H 0.8412 0.07301 0.82629 0.0
H135 H 0.80631 0.12292 0.93093 0.0
H136 H 0.8795 0.14172 0.87525 0.0
H137 H 0.03668 0.12658 0.48719 0.0
H138 H 0.04802 0.12318 0.60396 0.0
H139 H 0.88379 0.15866 0.60323 0.0
H140 H 0.87249 0.16221 0.48576 0.0
H141 H 0.89594 0.12314 0.6919 0.0
H142 H 0.00924 0.17975 0.63638 0.0
H143 H 0.08352 0.19432 0.57166 0.0
H144 H 0.23377 0.15849 0.66598 0.0
H145 H 0.15961 0.14312 0.72942 0.0
C146 C 0.02338 0.15038 1.00117 0.0
C147 C 0.03386 0.13229 0.03107 0.0
C148 C 0.01606 0.15243 0.93383 0.0
C149 C 0.01783 0.13642 0.89436 0.0
C150 C 0.03024 0.11847 0.92416 0.0
C151 C 0.03851 0.11645 0.9913 0.0
C152 C 0.00271 0.13814 0.82226 0.0
C153 C 0.04383 0.14849 0.78852 0.0
C154 C 0.94866 0.12896 0.78648 0.0
C155 C 0.90317 0.11794 0.81891 0.0
C156 C 0.8915 0.0985 0.80504 0.0
C157 C 0.84972 0.08799 0.83669 0.0
C158 C 0.81903 0.09679 0.88196 0.0
C159 C 0.8301 0.11613 0.89582 0.0
C160 C 0.87179 0.12671 0.8643 0.0
C161 C 1.00169 0.13318 0.51145 0.0
C162 C 0.95282 0.14434 0.47659 0.0
C163 C 0.00861 0.13136 0.57855 0.0
C164 C 0.96665 0.14057 0.61287 0.0
C165 C 0.9165 0.15125 0.57807 0.0
C166 C 0.91019 0.15333 0.51086 0.0
C167 C 0.97873 0.14038 0.68508 0.0
C168 C 0.93727 0.13025 0.71874 0.0
C169 C 0.03264 0.14965 0.72066 0.0
C170 C 0.07867 0.16014 0.68723 0.0
C171 C 0.05804 0.1749 0.64312 0.0
C172 C 0.09997 0.1832 0.60628 0.0
C173 C 0.1632 0.17723 0.61432 0.0
C174 C 0.1847 0.16304 0.65959 0.0
C175 C 0.14267 0.15449 0.6959 0.0
H176 H 0.19563 0.18372 0.58586 0.0
H177 H 0.78665 0.08862 0.90629 0.0
H178 H 0.11738 0.89735 0.52612 0.0
H179 H 0.10782 0.90033 0.40959 0.0
H180 H 1.00041 0.84761 0.38737 0.0
H181 H 0.01081 0.84449 0.50409 0.0
H182 H 0.06352 0.85406 0.28654 0.0
H183 H 0.92491 0.88925 0.40247 0.0
H184 H 0.90407 0.91153 0.48612 0.0
H185 H 1.00229 0.95636 0.40124 0.0
H186 H 0.02434 0.93426 0.31745 0.0
H187 H 0.88281 0.8685 0.99087 0.0
H188 H 0.89594 0.86633 0.10776 0.0
H189 H 0.99987 0.91973 0.12257 0.0
H190 H 0.98442 0.92222 0.00545 0.0
H191 H 0.94134 0.91354 0.2271 0.0
H192 H 0.07701 0.87847 0.10865 0.0
H193 H 0.09999 0.85583 0.02693 0.0
H194 H 0.00869 0.81067 0.11762 0.0
H195 H 0.9845 0.83306 0.19925 0.0
C196 C 0.09537 0.88578 0.49643 0.0
C197 C 0.06502 0.87066 0.52385 0.0
C198 C 0.08889 0.88767 0.42981 0.0
C199 C 0.05115 0.87459 0.38993 0.0
C200 C 0.02881 0.85802 0.41735 0.0
C201 C 0.03569 0.85607 0.48412 0.0
C202 C 0.02658 0.8796 0.32188 0.0
C203 C 0.03645 0.86698 0.27358 0.0
C204 C 0.99168 0.8966 0.30489 0.0
C205 C 0.97675 0.91006 0.35404 0.0
C206 C 0.94222 0.90385 0.40177 0.0
C207 C 0.93022 0.91644 0.44921 0.0
C208 C 0.95203 0.93533 0.44913 0.0
C209 C 0.98552 0.94171 0.40131 0.0
C210 C 0.99772 0.92916 0.35378 0.0
C211 C 0.90469 0.88038 0.01906 0.0
C212 C 0.93288 0.89549 0.98937 0.0
C213 C 0.91327 0.87896 0.0859 0.0
C214 C 0.95118 0.89246 0.12377 0.0
C215 C 0.97123 0.909 0.09425 0.0
C216 C 0.96174 0.91055 0.02722 0.0
C217 C 0.97794 0.88791 0.19171 0.0
C218 C 0.96853 0.90064 0.23999 0.0
C219 C 0.01335 0.871 0.20871 0.0
C220 C 0.02845 0.85749 0.15977 0.0
C221 C 0.06153 0.86373 0.11091 0.0
C222 C 0.07481 0.85093 0.0646 0.0
C223 C 0.05572 0.83181 0.06694 0.0
C224 C 0.02345 0.82546 0.11571 0.0
C225 C 0.00997 0.8382 0.16205 0.0
H226 H 0.06601 0.82191 0.03108 0.0
H227 H 0.94288 0.94504 0.48604 0.0
H228 H 0.52571 0.66942 0.05285 0.0
H229 H 0.51871 0.67728 0.93885 0.0
H230 H 0.62627 0.62676 0.91334 0.0
H231 H 0.6359 0.61931 0.02663 0.0
H232 H 0.65357 0.65235 0.83626 0.0
H233 H 0.46155 0.62812 0.89941 0.0
H234 H 0.36899 0.6277 0.95553 0.0
H235 H 0.30083 0.67957 0.85838 0.0
H236 H 0.39383 0.68048 0.80287 0.0
H237 H 0.55193 0.62438 0.52249 0.0
H238 H 0.55378 0.62368 0.63851 0.0
H239 H 0.46949 0.67972 0.62767 0.0
H240 H 0.46468 0.68003 0.51082 0.0
H241 H 0.43082 0.65592 0.72165 0.0
H242 H 0.62518 0.67278 0.64215 0.0
H243 H 0.70769 0.66476 0.57803 0.0
H244 H 0.76878 0.61801 0.70573 0.0
H245 H 0.68349 0.62478 0.76777 0.0
C246 C 0.54951 0.66031 0.02328 0.0
C247 C 0.5804 0.64354 0.04858 0.0
C248 C 0.54511 0.66477 0.95809 0.0
C249 C 0.57043 0.65231 0.91736 0.0
C250 C 0.60601 0.63654 0.94374 0.0
C251 C 0.61129 0.63225 0.00875 0.0
C252 C 0.55495 0.65425 0.84675 0.0
C253 C 0.60486 0.65314 0.81124 0.0
C254 C 0.49122 0.65523 0.81416 0.0
C255 C 0.4356 0.65468 0.84823 0.0
C256 C 0.42738 0.6396 0.89077 0.0
C257 C 0.37471 0.63923 0.92237 0.0
C258 C 0.32922 0.65366 0.91086 0.0
C259 C 0.33632 0.66847 0.86771 0.0
C260 C 0.38914 0.66897 0.83639 0.0
C261 C 0.53254 0.63633 0.54487 0.0
C262 C 0.5094 0.65244 0.50863 0.0
C263 C 0.5334 0.6359 0.61083 0.0
C264 C 0.5135 0.65189 0.64149 0.0
C265 C 0.48556 0.66734 0.60468 0.0
C266 C 0.48312 0.66755 0.53827 0.0
C267 C 0.52922 0.65349 0.71181 0.0
C268 C 0.47949 0.65544 0.74692 0.0
C269 C 0.59294 0.65236 0.74418 0.0
C270 C 0.64739 0.64926 0.70953 0.0
C271 C 0.65591 0.66072 0.65647 0.0
C272 C 0.70287 0.65629 0.62012 0.0
C273 C 0.74375 0.64099 0.63806 0.0
C274 C 0.73719 0.62991 0.69195 0.0
C275 C 0.6891 0.63393 0.72738 0.0
H276 H 0.78043 0.6377 0.61014 0.0
H277 H 0.28838 0.65333 0.93523 0.0
H278 H 0.39662 0.41251 0.97583 0.0
H279 H 0.40545 0.40896 0.09208 0.0
H280 H 0.55205 0.36677 0.0924 0.0
H281 H 0.53987 0.36935 0.97558 0.0
H282 H 0.49121 0.35611 0.17619 0.0
H283 H 0.58226 0.41947 0.14756 0.0
H284 H 0.58757 0.45308 0.11225 0.0
H285 H 0.41568 0.46519 0.18488 0.0
H286 H 0.41053 0.43177 0.22236 0.0
H287 H 0.61301 0.36354 0.5121 0.0
H288 H 0.60312 0.36622 0.39476 0.0
H289 H 0.43241 0.39936 0.38836 0.0
H290 H 0.44188 0.39631 0.50493 0.0
H291 H 0.50641 0.41434 0.30962 0.0
H292 H 0.4316 0.35193 0.35749 0.0
H293 H 0.44311 0.32034 0.41044 0.0
H294 H 0.59056 0.30613 0.30351 0.0
H295 H 0.5822 0.33801 0.25216 0.0
C296 C 0.43007 0.40228 1.00067 0.0
C297 C 0.46734 0.39118 0.96627 0.0
C298 C 0.43597 0.40047 0.06756 0.0
C299 C 0.48108 0.38805 0.1023 0.0
C300 C 0.51701 0.37655 0.06753 0.0
C301 C 0.50988 0.37798 1.00041 0.0
C302 C 0.49077 0.38696 0.17441 0.0
C303 C 0.49546 0.36891 0.20511 0.0
C304 C 0.49496 0.40349 0.21334 0.0
C305 C 0.49553 0.42312 0.1868 0.0
C306 C 0.54525 0.42927 0.15525 0.0
C307 C 0.54841 0.4483 0.13526 0.0
C308 C 0.50153 0.46121 0.14566 0.0
C309 C 0.45172 0.45515 0.17657 0.0
C310 C 0.44889 0.43622 0.19755 0.0
C311 C 0.57412 0.37168 0.48554 0.0
C312 C 0.52949 0.3804 0.5178 0.0
C313 C 0.5682 0.37309 0.41852 0.0
C314 C 0.51677 0.38292 0.38242 0.0
C315 C 0.47287 0.39188 0.41493 0.0
C316 C 0.47891 0.39048 0.48174 0.0
C317 C 0.50744 0.38365 0.3108 0.0
C318 C 0.50242 0.40158 0.28041 0.0
C319 C 0.50358 0.36702 0.27254 0.0
C320 C 0.50689 0.34753 0.30159 0.0
C321 C 0.46703 0.34218 0.34575 0.0
C322 C 0.47318 0.32424 0.37571 0.0
C323 C 0.5176 0.31125 0.36041 0.0
C324 C 0.55622 0.31622 0.31537 0.0
C325 C 0.55104 0.33428 0.28608 0.0
H326 H 0.5219 0.2973 0.38328 0.0
H327 H 0.5038 0.47593 0.13021 0.0
H328 H 0.75398 0.16374 0.32648 0.0
H329 H 0.64029 0.1604 0.32553 0.0
H330 H 0.63155 0.11447 0.18983 0.0
H331 H 0.74664 0.11803 0.18955 0.0
H332 H 0.53819 0.14017 0.15268 0.0
H333 H 0.61374 0.10594 0.34639 0.0
H334 H 0.6791 0.10043 0.4526 0.0
H335 H 0.59533 0.14912 0.527 0.0
H336 H 0.5301 0.1551 0.42095 0.0
H337 H 0.22438 0.11085 0.18019 0.0
H338 H 0.3382 0.11388 0.1799 0.0
H339 H 0.34827 0.16135 0.30976 0.0
H340 H 0.23315 0.15826 0.31067 0.0
H341 H 0.44074 0.13454 0.34965 0.0
H342 H 0.36536 0.16867 0.15498 0.0
H343 H 0.29989 0.17386 0.04863 0.0
H344 H 0.3832 0.12478 0.97606 0.0
H345 H 0.44853 0.11912 0.08228 0.0
C346 C 0.72829 0.15274 0.29681 0.0
C347 C 0.75964 0.14118 0.25788 0.0
C348 C 0.66303 0.15079 0.29663 0.0
C349 C 0.62706 0.1371 0.25798 0.0
C350 C 0.65829 0.12513 0.22016 0.0
C351 C 0.72414 0.12705 0.22043 0.0
C352 C 0.55659 0.13616 0.25522 0.0
C353 C 0.5169 0.13858 0.19565 0.0
C354 C 0.52857 0.1347 0.31146 0.0
C355 C 0.56738 0.13106 0.37551 0.0
C356 C 0.60957 0.11556 0.38526 0.0
C357 C 0.64655 0.11234 0.44546 0.0
C358 C 0.64148 0.12445 0.49647 0.0
C359 C 0.59925 0.13977 0.48742 0.0
C360 C 0.5622 0.14307 0.42729 0.0
C361 C 0.25047 0.12213 0.20818 0.0
C362 C 0.21956 0.1343 0.24561 0.0
C363 C 0.31571 0.12388 0.20773 0.0
C364 C 0.35203 0.13788 0.24457 0.0
C365 C 0.32122 0.15043 0.28088 0.0
C366 C 0.25538 0.14877 0.28097 0.0
C367 C 0.42245 0.13859 0.24717 0.0
C368 C 0.46209 0.13611 0.30671 0.0
C369 C 0.45039 0.13994 0.1909 0.0
C370 C 0.41145 0.14337 0.1268 0.0
C371 C 0.36937 0.15889 0.1165 0.0
C372 C 0.33234 0.16193 0.0562 0.0
C373 C 0.33727 0.14963 0.00567 0.0
C374 C 0.37939 0.13429 0.01528 0.0
C375 C 0.41648 0.13117 0.0755 0.0
H376 H 0.30855 0.15201 0.95903 0.0
H377 H 0.67017 0.12193 0.54304 0.0
H378 H 0.78074 0.88545 0.83319 0.0
H379 H 0.66819 0.88489 0.84482 0.0
H380 H 0.61388 0.88526 0.63889 0.0
H381 H 0.72576 0.88627 0.62698 0.0
H382 H 0.54324 0.90952 0.68648 0.0
H383 H 0.60186 0.84432 0.73523 0.0
H384 H 0.6655 0.81814 0.79168 0.0
H385 H 0.61786 0.83643 0.971 0.0
H386 H 0.55458 0.86288 0.91569 0.0
H387 H 0.21361 0.88511 0.67843 0.0
H388 H 0.32586 0.88627 0.66566 0.0
H389 H 0.38192 0.88771 0.87125 0.0
H390 H 0.2705 0.88626 0.88442 0.0
H391 H 0.45126 0.86245 0.82308 0.0
H392 H 0.39206 0.92774 0.77286 0.0
H393 H 0.32752 0.95354 0.71506 0.0
H394 H 0.37536 0.93451 0.53667 0.0
H395 H 0.43955 0.90845 0.59333 0.0
C396 C 0.74486 0.88521 0.79037 0.0
C397 C 0.76264 0.88592 0.72914 0.0
C398 C 0.68031 0.88486 0.79706 0.0
C399 C 0.63198 0.88492 0.74271 0.0
C400 C 0.64984 0.88531 0.68166 0.0
C401 C 0.71413 0.88581 0.67495 0.0
C402 C 0.56289 0.88501 0.74901 0.0
C403 C 0.52309 0.89904 0.71575 0.0
C404 C 0.53623 0.87164 0.78808 0.0
C405 C 0.574 0.85569 0.82139 0.0
C406 C 0.60533 0.84284 0.78676 0.0
C407 C 0.64127 0.82794 0.81854 0.0
C408 C 0.64586 0.82565 0.88491 0.0
C409 C 0.61434 0.83823 0.9196 0.0
C410 C 0.57838 0.85317 0.88806 0.0
C411 C 0.24976 0.88596 0.72092 0.0
C412 C 0.2326 0.8856 0.78248 0.0
C413 C 0.31413 0.88661 0.71356 0.0
C414 C 0.36284 0.88713 0.76751 0.0
C415 C 0.3456 0.88721 0.8288 0.0
C416 C 0.28154 0.88648 0.83621 0.0
C417 C 0.43173 0.88698 0.7607 0.0
C418 C 0.47147 0.87292 0.79383 0.0
C419 C 0.45825 0.90028 0.72133 0.0
C420 C 0.42011 0.91604 0.68727 0.0
C421 C 0.38846 0.92898 0.72125 0.0
C422 C 0.352 0.94366 0.6887 0.0
C423 C 0.34721 0.94563 0.62222 0.0
C424 C 0.37905 0.93296 0.58816 0.0
C425 C 0.41553 0.91824 0.62047 0.0
H426 H 0.31893 0.957 0.5971 0.0
H427 H 0.67372 0.81411 0.90943 0.0
H428 H 0.78394 0.59618 0.35343 0.0
H429 H 0.89966 0.59974 0.37803 0.0
H430 H 0.88524 0.65568 0.28871 0.0
H431 H 0.76923 0.65251 0.26823 0.0
H432 H 0.96525 0.59994 0.28953 0.0
H433 H 0.02183 0.68076 0.3218 0.0
H434 H 0.98135 0.70864 0.37247 0.0
H435 H 0.9105 0.67176 0.50857 0.0
H436 H 0.95141 0.64365 0.45938 0.0
H437 H 0.25728 0.6238 0.18729 0.0
H438 H 0.14787 0.61955 0.20678 0.0
H439 H 0.2063 0.63685 0.4035 0.0
H440 H 0.31448 0.64227 0.38258 0.0
H441 H 0.10703 0.65478 0.36146 0.0
H442 H 0.1508 0.58642 0.3565 0.0
H443 H 0.18497 0.55648 0.31163 0.0
H444 H 0.05549 0.56651 0.13638 0.0
H445 H 0.01952 0.59622 0.18059 0.0
C446 C 0.80555 0.60963 0.34245 0.0
C447 C 0.76819 0.62418 0.30982 0.0
C448 C 0.87166 0.61158 0.35564 0.0
C449 C 0.90161 0.62789 0.3347 0.0
C450 C 0.86366 0.64308 0.30645 0.0
C451 C 0.79724 0.64132 0.2949 0.0
C452 C 0.97135 0.62769 0.33371 0.0
C453 C 0.99632 0.61187 0.30619 0.0
C454 C 0.01221 0.64321 0.35503 0.0
C455 C 0.98939 0.66007 0.38655 0.0
C456 C 0.9981 0.6786 0.36287 0.0
C457 C 0.97495 0.69444 0.39125 0.0
C458 C 0.94325 0.69196 0.44359 0.0
C459 C 0.93492 0.67364 0.46791 0.0
C460 C 0.95806 0.65774 0.43976 0.0
C461 C 0.24677 0.62629 0.23493 0.0
C462 C 0.29402 0.63337 0.28341 0.0
C463 C 0.18425 0.62378 0.24629 0.0
C464 C 0.16842 0.6277 0.30696 0.0
C465 C 0.21679 0.63384 0.35619 0.0
C466 C 0.2787 0.63683 0.34436 0.0
C467 C 0.10101 0.6269 0.31795 0.0
C468 C 0.07626 0.64267 0.34636 0.0
C469 C 0.06038 0.61117 0.29867 0.0
C470 C 0.08313 0.59361 0.27153 0.0
C471 C 0.13008 0.58229 0.30822 0.0
C472 C 0.14958 0.56535 0.28302 0.0
C473 C 0.12298 0.55973 0.22104 0.0
C474 C 0.07626 0.57092 0.18429 0.0
C475 C 0.05601 0.58773 0.20951 0.0
H476 H 0.13832 0.54665 0.20163 0.0
H477 H 0.92521 0.70424 0.4653 0.0
H478 H 0.73435 0.35707 0.66776 0.0
H479 H 0.84913 0.35987 0.67351 0.0
H480 H 0.85184 0.40956 0.79283 0.0
H481 H 0.73577 0.40696 0.78665 0.0
H482 H 0.93302 0.41396 0.70812 0.0
H483 H 0.89384 0.36583 0.8584 0.0
H484 H 0.84544 0.33666 0.89616 0.0
H485 H 0.92987 0.30303 0.76429 0.0
H486 H 0.97807 0.33209 0.72492 0.0
H487 H 0.26168 0.41385 0.82201 0.0
H488 H 0.14753 0.41044 0.82016 0.0
H489 H 0.14216 0.36225 0.69393 0.0
H490 H 0.25754 0.36544 0.69612 0.0
H491 H 0.06265 0.35706 0.7839 0.0
H492 H 0.10084 0.40615 0.63349 0.0
H493 H 0.15101 0.43565 0.60009 0.0
H494 H 0.06895 0.46774 0.73751 0.0
H495 H 0.0191 0.43836 0.77247 0.0
C496 C 0.75905 0.36874 0.69482 0.0
C497 C 0.72572 0.38169 0.72731 0.0
C498 C 0.82495 0.37025 0.69833 0.0
C499 C 0.85963 0.38461 0.73497 0.0
C500 C 0.82625 0.39823 0.76471 0.0
C501 C 0.75985 0.39679 0.76094 0.0
C502 C 0.93064 0.385 0.743 0.0
C503 C 0.96132 0.4016 0.72557 0.0
C504 C 0.96785 0.36875 0.76464 0.0
C505 C 0.93907 0.3512 0.78824 0.0
C506 C 0.90166 0.35225 0.83702 0.0
C507 C 0.87429 0.33572 0.85877 0.0
C508 C 0.88436 0.318 0.83251 0.0
C509 C 0.922 0.31677 0.78451 0.0
C510 C 0.9494 0.33327 0.76248 0.0
C511 C 0.23658 0.40236 0.79429 0.0
C512 C 0.26888 0.39005 0.75854 0.0
C513 C 0.17106 0.40048 0.79316 0.0
C514 C 0.13577 0.38639 0.7557 0.0
C515 C 0.16826 0.37334 0.72283 0.0
C516 C 0.23426 0.37515 0.72421 0.0
C517 C 0.06485 0.38599 0.7488 0.0
C518 C 0.03423 0.3694 0.76643 0.0
C519 C 0.02768 0.40228 0.72773 0.0
C520 C 0.05667 0.42002 0.70596 0.0
C521 C 0.09379 0.41948 0.65684 0.0
C522 C 0.12216 0.43618 0.63762 0.0
C523 C 0.11328 0.45355 0.66675 0.0
C524 C 0.07583 0.45427 0.71503 0.0
C525 C 0.04747 0.4376 0.73453 0.0
H526 H 0.13532 0.46646 0.65183 0.0
H527 H 0.86314 0.30521 0.84946 0.0
H528 H 0.45294 0.31448 0.56758 0.0
H529 H 0.3896 0.28775 0.5189 0.0
H530 H 0.21843 0.31536 0.5538 0.0
H531 H 0.28279 0.34237 0.60375 0.0
H532 H 0.2239 0.28 0.59973 0.0
H533 H 0.24653 0.30747 0.3991 0.0
H534 H 0.29647 0.32181 0.31249 0.0
H535 H 0.41055 0.27176 0.30843 0.0
H536 H 0.36193 0.25718 0.3956 0.0
H537 H 0.02035 0.21153 0.42242 0.0
H538 H 0.08022 0.23861 0.47324 0.0
H539 H 0.25605 0.21117 0.45244 0.0
H540 H 0.19536 0.18372 0.40072 0.0
H541 H 0.24498 0.24685 0.39826 0.0
H542 H 0.2326 0.22299 0.61584 0.0
H543 H 0.17939 0.20996 0.70251 0.0
H544 H 0.03831 0.25388 0.66648 0.0
H545 H 0.09222 0.26761 0.58144 0.0
C546 C 0.40161 0.31505 0.56367 0.0
C547 C 0.37264 0.33038 0.5898 0.0
C548 C 0.36536 0.2998 0.53536 0.0
C549 C 0.29913 0.2995 0.53239 0.0
C550 C 0.26952 0.3153 0.55551 0.0
C551 C 0.30607 0.33076 0.58362 0.0
C552 C 0.26283 0.28172 0.51198 0.0
C553 C 0.22764 0.27297 0.55502 0.0
C554 C 0.26902 0.27218 0.45456 0.0
C555 C 0.30071 0.28126 0.40421 0.0
C556 C 0.28276 0.29959 0.38027 0.0
C557 C 0.31056 0.30772 0.33079 0.0
C558 C 0.35621 0.29762 0.3046 0.0
C559 C 0.37479 0.27949 0.32842 0.0
C560 C 0.34712 0.27129 0.37787 0.0
C561 C 0.07189 0.21105 0.42995 0.0
C562 C 0.10334 0.19566 0.40703 0.0
C563 C 0.10612 0.22649 0.45965 0.0
C564 C 0.1727 0.22695 0.46703 0.0
C565 C 0.20462 0.21107 0.44743 0.0
C566 C 0.17011 0.1954 0.41815 0.0
C567 C 0.20722 0.24507 0.48648 0.0
C568 C 0.24173 0.25391 0.44303 0.0
C569 C 0.19988 0.25482 0.54304 0.0
C570 C 0.16592 0.24615 0.59198 0.0
C571 C 0.19003 0.22978 0.62625 0.0
C572 C 0.16007 0.22237 0.67538 0.0
C573 C 0.10513 0.23095 0.68949 0.0
C574 C 0.08066 0.24718 0.65529 0.0
C575 C 0.11123 0.25489 0.60708 0.0
H576 H 0.08172 0.22508 0.72713 0.0
H577 H 0.3776 0.30393 0.26623 0.0
H578 H 0.54116 0.31405 0.88949 0.0
H579 H 0.59549 0.28644 0.944 0.0
H580 H 0.77536 0.31618 0.95702 0.0
H581 H 0.72051 0.34402 0.9017 0.0
H582 H 0.77944 0.28149 0.90302 0.0
H583 H 0.71381 0.30489 0.09196 0.0
H584 H 0.63955 0.31762 0.15869 0.0
H585 H 0.52708 0.26625 0.1304 0.0
H586 H 0.60011 0.2533 0.06268 0.0
H587 H 0.9545 0.20965 0.10049 0.0
H588 H 0.90435 0.23804 0.04667 0.0
H589 H 0.72106 0.20999 0.02731 0.0
H590 H 0.7717 0.18141 0.08137 0.0
H591 H 0.72129 0.24443 0.08631 0.0
H592 H 0.78932 0.22117 0.89713 0.0
H593 H 0.86421 0.20904 0.83014 0.0
H594 H 0.97397 0.26092 0.85953 0.0
H595 H 0.90052 0.27321 0.92787 0.0
C596 C 0.59203 0.31497 0.90611 0.0
C597 C 0.62653 0.33126 0.89215 0.0
C598 C 0.62315 0.29913 0.93712 0.0
C599 C 0.68966 0.29916 0.95472 0.0
C600 C 0.72402 0.31583 0.9439 0.0
C601 C 0.69264 0.33183 0.91321 0.0
C602 C 0.72296 0.28115 0.97856 0.0
C603 C 0.76768 0.27357 0.94393 0.0
C604 C 0.70621 0.27049 0.0307 0.0
C605 C 0.66222 0.27819 0.07169 0.0
C606 C 0.67297 0.29636 0.0995 0.0
C607 C 0.63114 0.30361 0.13761 0.0
C608 C 0.57854 0.29277 0.14861 0.0
C609 C 0.56781 0.27463 0.12175 0.0
C610 C 0.60946 0.26733 0.08356 0.0
C611 C 0.90385 0.20926 0.08227 0.0
C612 C 0.8671 0.19322 0.09409 0.0
C613 C 0.87511 0.22555 0.05183 0.0
C614 C 0.80879 0.22625 0.03295 0.0
C615 C 0.77232 0.20981 0.0414 0.0
C616 C 0.80131 0.19337 0.07136 0.0
C617 C 0.77754 0.24469 0.01051 0.0
C618 C 0.73322 0.25237 0.04551 0.0
C619 C 0.795 0.25549 0.95894 0.0
C620 C 0.83974 0.24802 0.91838 0.0
C621 C 0.82985 0.22991 0.89002 0.0
C622 C 0.872 0.22301 0.85166 0.0
C623 C 0.92395 0.23417 0.84077 0.0
C624 C 0.93381 0.25226 0.86815 0.0
C625 C 0.89193 0.2592 0.90673 0.0
H626 H 0.95645 0.22882 0.81096 0.0
H627 H 0.54614 0.29842 0.178 0.0
H628 H 0.73734 0.68512 0.38142 0.0
H629 H 0.80085 0.71182 0.43234 0.0
H630 H 0.63562 0.74795 0.39746 0.0
H631 H 0.57229 0.7216 0.34558 0.0
H632 H 0.73608 0.76758 0.37624 0.0
H633 H 0.69408 0.72803 0.5637 0.0
H634 H 0.70063 0.6996 0.63421 0.0
H635 H 0.90012 0.69473 0.62671 0.0
H636 H 0.895 0.72368 0.55822 0.0
H637 H 0.79841 0.84249 0.5927 0.0
H638 H 0.75543 0.81365 0.53681 0.0
H639 H 0.93209 0.78452 0.6038 0.0
H640 H 0.97397 0.81322 0.66266 0.0
H641 H 0.8424 0.76036 0.60236 0.0
H642 H 0.8916 0.80447 0.44655 0.0
H643 H 0.89215 0.83529 0.38912 0.0
H644 H 0.68954 0.83158 0.3314 0.0
H645 H 0.68746 0.8009 0.38951 0.0
C646 C 0.71464 0.69883 0.38354 0.0
C647 C 0.64928 0.70107 0.35936 0.0
C648 C 0.75099 0.71406 0.41354 0.0
C649 C 0.7229 0.73188 0.42022 0.0
C650 C 0.65856 0.73437 0.39341 0.0
C651 C 0.62226 0.71921 0.36352 0.0
C652 C 0.75934 0.74796 0.45567 0.0
C653 C 0.75898 0.76602 0.42582 0.0
C654 C 0.79204 0.74594 0.5194 0.0
C655 C 0.79391 0.72771 0.55523 0.0
C656 C 0.73906 0.72072 0.5765 0.0
C657 C 0.74268 0.70462 0.61656 0.0
C658 C 0.8007 0.69526 0.63467 0.0
C659 C 0.85522 0.70197 0.61263 0.0
C660 C 0.85207 0.71828 0.57356 0.0
C661 C 0.82752 0.82978 0.5966 0.0
C662 C 0.88943 0.83006 0.63211 0.0
C663 C 0.8033 0.81337 0.56382 0.0
C664 C 0.8412 0.79703 0.56391 0.0
C665 C 0.90198 0.79696 0.60224 0.0
C666 C 0.92578 0.81331 0.63632 0.0
C667 C 0.81722 0.78016 0.52381 0.0
C668 C 0.82031 0.76197 0.55252 0.0
C669 C 0.7883 0.78204 0.45852 0.0
C670 C 0.78934 0.80041 0.42281 0.0
C671 C 0.84708 0.81027 0.42194 0.0
C672 C 0.84769 0.82772 0.38925 0.0
C673 C 0.79096 0.8354 0.35668 0.0
C674 C 0.73346 0.82562 0.35666 0.0
C675 C 0.73254 0.80819 0.38945 0.0
H676 H 0.79156 0.84892 0.33141 0.0
H677 H 0.80361 0.6829 0.66617 0.0
H678 H 0.36353 0.67234 0.03573 0.0
H679 H 0.30483 0.6964 0.96349 0.0
H680 H 0.33854 0.73791 0.11455 0.0
H681 H 0.39695 0.71434 0.18621 0.0
H682 H 0.20907 0.73463 0.05376 0.0
H683 H 0.42153 0.73855 0.99846 0.0
H684 H 0.51317 0.7254 0.95657 0.0
H685 H 0.39556 0.71592 0.7739 0.0
H686 H 0.30245 0.7282 0.81556 0.0
H687 H 0.15415 0.82704 0.95388 0.0
H688 H 0.20305 0.79711 0.99095 0.0
H689 H 0.16097 0.77466 0.79928 0.0
H690 H 0.11166 0.80539 0.76053 0.0
H691 H 0.28051 0.76322 0.86169 0.0
H692 H 0.07144 0.75987 0.90756 0.0
H693 H 0.97421 0.77092 0.94439 0.0
H694 H 0.07755 0.77709 0.13565 0.0
H695 H 0.17571 0.76633 0.09982 0.0
C696 C 0.35877 0.68663 0.05332 0.0
C697 C 0.38513 0.6913 0.11701 0.0
C698 C 0.32535 0.70037 0.01191 0.0
C699 C 0.31723 0.71899 0.0335 0.0
C700 C 0.34397 0.72366 0.0967 0.0
C701 C 0.37777 0.71011 0.13765 0.0
C702 C 0.2796 0.7337 0.99197 0.0
C703 C 0.22483 0.74089 0.01183 0.0
C704 C 0.29833 0.74132 0.93541 0.0
C705 C 0.35462 0.73401 0.91054 0.0
C706 C 0.41485 0.73336 0.9497 0.0
C707 C 0.46713 0.72605 0.92598 0.0
C708 C 0.4601 0.71969 0.86276 0.0
C709 C 0.40085 0.72072 0.82303 0.0
C710 C 0.34824 0.72777 0.84676 0.0
C711 C 0.15451 0.81584 0.919 0.0
C712 C 0.12742 0.81868 0.85406 0.0
C713 C 0.18288 0.79859 0.9406 0.0
C714 C 0.18464 0.78333 0.8985 0.0
C715 C 0.1598 0.78615 0.83297 0.0
C716 C 0.13145 0.8037 0.81086 0.0
C717 C 0.21141 0.76462 0.92515 0.0
C718 C 0.26397 0.7567 0.90275 0.0
C719 C 0.18999 0.75594 0.97873 0.0
C720 C 0.13104 0.76233 1.0009 0.0
C721 C 0.07355 0.76368 0.95741 0.0
C722 C 0.01825 0.76988 0.97812 0.0
C723 C 0.0197 0.77468 0.04232 0.0
C724 C 0.07649 0.77332 0.08596 0.0
C725 C 0.13196 0.76713 0.06549 0.0
H726 H 0.97677 0.77944 0.05825 0.0
H727 H 0.50061 0.71403 0.84447 0.0
H728 H 0.83995 0.08285 0.02644 0.0
H729 H 0.85874 0.05554 0.9582 0.0
H730 H 0.0488 0.05006 0.06543 0.0
H731 H 0.03185 0.07672 0.12917 0.0
H732 H 0.05923 0.0418 0.95613 0.0
H733 H 0.90497 0.0227 0.09425 0.0
H734 H 0.80088 0.02434 0.1306 0.0
H735 H 0.70559 1.01193 0.93984 0.0
H736 H 0.80921 1.01037 0.90236 0.0
H737 H 0.09248 0.93501 0.981 0.0
H738 H 0.06464 0.96717 0.01274 0.0
H739 H 0.99301 0.98114 0.81511 0.0
H740 H 0.02337 0.94957 0.78355 0.0
H741 H 0.9149 0.98567 0.95166 0.0
H742 H 0.08294 1.00489 0.82054 0.0
H743 H 0.19213 1.00179 0.79775 0.0
H744 H 0.2674 0.01257 0.99564 0.0
H745 H 0.15827 0.01547 0.01949 0.0
C746 C 0.88619 0.07614 0.03355 0.0
C747 C 0.93421 0.08226 0.08334 0.0
C748 C 0.89679 0.06033 0.99526 0.0
C749 C 0.95525 0.05034 0.0069 0.0
C750 C 0.0035 0.05729 0.05424 0.0
C751 C 0.99334 0.07282 0.09124 0.0
C752 C 0.96756 0.03195 0.9749 0.0
C753 C 0.02706 0.02965 0.95502 0.0
C754 C 0.92653 0.01579 0.97291 0.0
C755 C 0.86456 0.01663 0.99544 0.0
C756 C 0.86173 0.02041 0.06008 0.0
C757 C 0.80288 0.02131 0.08087 0.0
C758 C 0.74665 0.0183 0.03751 0.0
C759 C 0.74917 0.01431 0.97332 0.0
C760 C 0.80791 0.01341 0.95229 0.0
C761 C 0.07191 0.94505 0.94415 0.0
C762 C 0.05956 0.93957 0.87924 0.0
C763 C 0.05556 0.96338 0.96247 0.0
C764 C 0.02634 0.97654 0.91634 0.0
C765 C 0.01549 0.97129 0.85166 0.0
C766 C 0.03284 0.95319 0.83347 0.0
C767 C 0.00666 0.99574 0.93531 0.0
C768 C 0.94621 0.99801 0.95242 0.0
C769 C 0.04728 1.01182 0.93638 0.0
C770 C 0.11256 1.01015 0.92183 0.0
C771 C 0.1227 1.00641 0.8592 0.0
C772 C 0.18459 1.00473 0.84608 0.0
C773 C 0.23671 1.00691 0.89527 0.0
C774 C 0.227 1.01083 0.95761 0.0
C775 C 0.16516 0.01249 0.97092 0.0
H776 H 0.2846 1.00562 0.88505 0.0
H777 H 0.70112 0.01901 0.05368 0.0
H778 H 0.15714 0.07173 0.42312 0.0
H779 H 0.12986 0.0462 0.49462 0.0
H780 H 0.94849 0.0728 0.49824 0.0
H781 H 0.97693 0.09848 0.42917 0.0
H782 H 0.97973 0.05545 0.60541 0.0
H783 H 0.9679 0.03799 0.38844 0.0
H784 H 0.00307 0.03354 0.28422 0.0
H785 H 0.14592 0.99416 0.37138 0.0
H786 H 0.11236 0.99864 0.47644 0.0
H787 H 0.84019 0.96147 0.66984 0.0
H788 H 0.86086 0.99379 0.62918 0.0
H789 H 0.05654 0.9785 0.62827 0.0
H790 H 0.03511 0.94645 0.66501 0.0
H791 H 0.00328 0.99132 0.51527 0.0
H792 H 0.99692 1.00995 0.73703 0.0
H793 H 0.94342 0.0149 0.8301 0.0
H794 H 0.80976 0.05251 0.71877 0.0
H795 H 0.86133 0.04741 0.62422 0.0
C796 C 0.11291 0.07251 0.44187 0.0
C797 C 0.06983 0.08727 0.42231 0.0
C798 C 0.09679 0.05781 0.48184 0.0
C799 C 0.03631 0.05729 0.50058 0.0
C800 C 0.99534 0.07281 0.48467 0.0
C801 C 0.01189 0.08762 0.44565 0.0
C802 C 0.01312 0.03979 0.53048 0.0
C803 C 0.98463 0.04141 0.58558 0.0
C804 C 0.01742 0.0215 0.50356 0.0
C805 C 0.0381 0.01883 0.44051 0.0
C806 C 0.00721 0.02851 0.38552 0.0
C807 C 0.0268 0.02597 0.32627 0.0
C808 C 0.07682 0.01362 0.32122 0.0
C809 C 0.10728 1.00376 0.3754 0.0
C810 C 0.08801 1.0063 0.43483 0.0
C811 C 0.88781 0.96534 0.6625 0.0
C812 C 0.93648 0.9517 0.67162 0.0
C813 C 0.89964 0.98374 0.63921 0.0
C814 C 0.96041 0.98862 0.62563 0.0
C815 C 0.00928 0.97513 0.638 0.0
C816 C 0.99716 0.95686 0.65948 0.0
C817 C 0.97346 1.00679 0.59261 0.0
C818 C 0.99891 1.00532 0.53565 0.0
C819 C 0.96377 0.02519 0.6165 0.0
C820 C 0.93269 0.02809 0.67339 0.0
C821 C 0.95584 0.01913 0.73226 0.0
C822 C 0.92591 0.02199 0.78534 0.0
C823 C 0.87334 0.03398 0.78061 0.0
C824 C 0.85045 0.04317 0.72249 0.0
C825 C 0.87995 0.04027 0.66906 0.0
H826 H 0.85047 0.03617 0.822 0.0
H827 H 0.09187 1.01164 0.27529 0.0
H828 H 0.39917 0.58825 0.01949 0.0
H829 H 0.42322 0.55787 0.96988 0.0
H830 H 0.5994 0.55398 0.10328 0.0
H831 H 0.57512 0.58303 0.15334 0.0
H832 H 0.51707 0.5428 0.91269 0.0
H833 H 0.62196 0.51016 0.16588 0.0
H834 H 0.59906 0.51055 0.27656 0.0
H835 H 0.40839 0.52906 0.20669 0.0
H836 H 0.42967 0.52849 0.09565 0.0
H837 H 0.66136 0.45794 0.83889 0.0
H838 H 0.65166 0.48911 0.88802 0.0
H839 H 0.52675 0.46362 0.00696 0.0
H840 H 0.54396 0.43239 0.96475 0.0
H841 H 0.57598 0.4899 0.06856 0.0
H842 H 0.47873 0.48731 0.84619 0.0
H843 H 0.46986 0.48498 0.72863 0.0
H844 H 0.59881 0.53249 0.7275 0.0
H845 H 0.60883 0.53498 0.84506 0.0
C846 C 0.44344 0.58102 0.03715 0.0
C847 C 0.48503 0.58815 0.09053 0.0
C848 C 0.45711 0.56366 0.00902 0.0
C849 C 0.5125 0.55336 0.034 0.0
C850 C 0.55568 0.56131 0.08407 0.0
C851 C 0.54179 0.57822 0.11236 0.0
C852 C 0.52545 0.53391 0.0113 0.0
C853 C 0.52926 0.53111 0.94651 0.0
C854 C 0.53989 0.51849 0.05517 0.0
C855 C 0.52773 0.51948 0.12234 0.0
C856 C 0.57517 0.51434 0.1741 0.0
C857 C 0.56242 0.51456 0.23692 0.0
C858 C 0.50232 0.51982 0.24858 0.0
C859 C 0.45497 0.52502 0.19757 0.0
C860 C 0.46741 0.52479 0.1347 0.0
C861 C 0.63607 0.45883 0.87919 0.0
C862 C 0.60428 0.44264 0.89867 0.0
C863 C 0.62844 0.4768 0.90567 0.0
C864 C 0.58646 0.47904 0.9499 0.0
C865 C 0.55995 0.4625 0.97364 0.0
C866 C 0.57037 0.44446 0.94977 0.0
C867 C 0.56682 0.49837 0.96928 0.0
C868 C 0.56269 0.50133 0.03411 0.0
C869 C 0.54818 0.51345 0.92459 0.0
C870 C 0.54498 0.51121 0.85446 0.0
C871 C 0.50578 0.4971 0.82093 0.0
C872 C 0.50043 0.49579 0.75426 0.0
C873 C 0.53378 0.5086 0.72064 0.0
C874 C 0.57303 0.52259 0.75362 0.0
C875 C 0.57856 0.52396 0.82023 0.0
H876 H 0.52898 0.50784 0.66898 0.0
H877 H 0.49223 0.51976 0.29707 0.0
H878 H 0.43554 0.42786 0.52036 0.0
H879 H 0.44848 0.45675 0.458 0.0
H880 H 0.34911 0.48902 0.58259 0.0
H881 H 0.33316 0.45992 0.64259 0.0
H882 H 0.33941 0.50656 0.46532 0.0
H883 H 0.50206 0.4774 0.62203 0.0
H884 H 0.576 0.45211 0.66752 0.0
H885 H 0.66839 0.45528 0.50193 0.0
H886 H 0.59458 0.48059 0.45524 0.0
H887 H 0.50201 0.59504 0.4438 0.0
H888 H 0.46251 0.56627 0.49246 0.0
H889 H 0.57376 0.53109 0.38715 0.0
H890 H 0.61459 0.55936 0.34066 0.0
H891 H 0.57392 0.51551 0.49621 0.0
H892 H 0.40685 0.54129 0.33323 0.0
H893 H 0.34319 0.56915 0.28962 0.0
H894 H 0.26406 0.57256 0.46315 0.0
H895 H 0.32791 0.54481 0.5081 0.0
C896 C 0.41237 0.44073 0.5315 0.0
C897 C 0.38332 0.44155 0.58629 0.0
C898 C 0.42077 0.45742 0.49649 0.0
C899 C 0.40166 0.4752 0.517 0.0
C900 C 0.36484 0.47556 0.56613 0.0
C901 C 0.35567 0.45885 0.60041 0.0
C902 C 0.43036 0.49333 0.49712 0.0
C903 C 0.39066 0.5085 0.47205 0.0
C904 C 0.49741 0.496 0.50627 0.0
C905 C 0.54258 0.48095 0.53506 0.0
C906 C 0.53826 0.47281 0.59539 0.0
C907 C 0.58007 0.45841 0.62134 0.0
C908 C 0.6269 0.45208 0.58764 0.0
C909 C 0.63208 0.4602 0.528 0.0
C910 C 0.59028 0.4746 0.50181 0.0
C911 C 0.51865 0.58118 0.43181 0.0
C912 C 0.56056 0.57958 0.3873 0.0
C913 C 0.49563 0.56471 0.45921 0.0
C914 C 0.51333 0.54638 0.44175 0.0
C915 C 0.55832 0.54494 0.40069 0.0
C916 C 0.58154 0.56125 0.37385 0.0
C917 C 0.4832 0.52856 0.46269 0.0
C918 C 0.52267 0.5135 0.48871 0.0
C919 C 0.41624 0.52593 0.45377 0.0
C920 C 0.37242 0.54108 0.42415 0.0
C921 C 0.37547 0.54789 0.36185 0.0
C922 C 0.33971 0.56373 0.33708 0.0
C923 C 0.30029 0.57276 0.37396 0.0
C924 C 0.2951 0.56564 0.43493 0.0
C925 C 0.33089 0.54982 0.46 0.0
H926 H 0.27346 0.58522 0.35509 0.0
H927 H 0.65917 0.4409 0.60772 0.0
loop_
_geom_bond_atom_site_label_1
_geom_bond_atom_site_label_2
_geom_bond_distance
_geom_bond_site_symmetry_2
_ccdc_geom_bond_type
Fe0 O1 1.886 . S
Fe0 O4 1.715 . S
Fe0 O9 2.077 . S
Fe0 O14 1.935 . S
Fe0 O20 2.077 . S
Fe0 O29 1.935 . S
O1 Fe0 1.886 . S
O1 Fe3 1.715 1_455 S
Fe2 O4 1.886 . S
Fe2 O5 1.715 1_455 S
Fe2 O12 1.935 . S
Fe2 O13 2.077 . S
Fe2 O19 1.935 1_455 S
Fe2 O28 2.077 . S
Fe3 O1 1.715 1_655 S
Fe3 O6 1.886 . S
Fe3 O10 1.935 1_655 S
Fe3 O15 2.077 . S
Fe3 O21 1.935 . S
Fe3 O25 2.077 . S
O4 Fe0 1.715 . S
O4 Fe2 1.886 . S
O5 Fe2 1.715 1_655 S
O5 Fe7 1.886 . S
O6 Fe3 1.886 . S
O6 Fe7 1.715 . S
Fe7 O5 1.886 . S
Fe7 O6 1.715 . S
Fe7 O11 2.077 . S
Fe7 O16 1.935 . S
Fe7 O18 2.077 . S
Fe7 O26 1.935 . S
C8 O20 1.381 1_655 S
C8 O21 1.421 . S
O9 Fe0 2.077 . S
O9 C22 1.381 . S
O10 Fe3 1.935 1_455 S
O10 C22 1.421 . S
O11 Fe7 2.077 . S
O11 C27 1.381 1_655 S
O12 Fe2 1.935 . S
O12 C27 1.421 . S
O13 Fe2 2.077 . S
O13 C17 1.381 . S
O14 Fe0 1.935 . S
O14 C17 1.421 . S
O15 Fe3 2.077 . S
O15 C23 1.381 . S
O16 Fe7 1.935 . S
O16 C23 1.421 . S
C17 O13 1.381 . S
C17 O14 1.421 . S
O18 Fe7 2.077 . S
O18 C30 1.381 . S
O19 Fe2 1.935 1_655 S
O19 C30 1.421 . S
O20 Fe0 2.077 . S
O20 C8 1.381 1_455 S
O21 Fe3 1.935 . S
O21 C8 1.421 . S
C22 O9 1.381 . S
C22 O10 1.421 . S
C23 O15 1.381 . S
C23 O16 1.421 . S
C24 O25 1.381 . S
C24 O26 1.421 . S
O25 Fe3 2.077 . S
O25 C24 1.381 . S
O26 Fe7 1.935 . S
O26 C24 1.421 . S
C27 O11 1.381 1_455 S
C27 O12 1.421 . S
O28 Fe2 2.077 . S
O28 C31 1.381 . S
O29 Fe0 1.935 . S
O29 C31 1.421 . S
C30 O18 1.381 . S
C30 O19 1.421 . S
C31 O28 1.381 . S
C31 O29 1.421 . S
Fe32 O33 1.886 . S
Fe32 O36 1.715 1_655 S
Fe32 O41 2.077 . S
Fe32 O46 1.935 1_655 S
Fe32 O52 2.077 . S
Fe32 O61 1.935 . S
O33 Fe32 1.886 . S
O33 Fe35 1.715 . S
Fe34 O36 1.886 . S
Fe34 O37 1.715 . S
Fe34 O44 1.935 . S
Fe34 O45 2.077 . S
Fe34 O51 1.935 . S
Fe34 O60 2.077 . S
Fe35 O33 1.715 . S
Fe35 O38 1.886 . S
Fe35 O42 1.935 . S
Fe35 O47 2.077 . S
Fe35 O53 1.935 . S
Fe35 O57 2.077 . S
O36 Fe32 1.715 1_455 S
O36 Fe34 1.886 . S
O37 Fe34 1.715 . S
O37 Fe39 1.886 . S
O38 Fe35 1.886 . S
O38 Fe39 1.715 1_655 S
Fe39 O37 1.886 . S
Fe39 O38 1.715 1_455 S
Fe39 O43 2.077 . S
Fe39 O48 1.935 . S
Fe39 O50 2.077 . S
Fe39 O58 1.935 1_455 S
C40 O52 1.381 . S
C40 O53 1.421 . S
O41 Fe32 2.077 . S
O41 C54 1.381 . S
O42 Fe35 1.935 . S
O42 C54 1.421 . S
O43 Fe39 2.077 . S
O43 C59 1.381 . S
O44 Fe34 1.935 . S
O44 C59 1.421 . S
O45 Fe34 2.077 . S
O45 C49 1.381 . S
O46 Fe32 1.935 1_455 S
O46 C49 1.421 . S
O47 Fe35 2.077 . S
O47 C55 1.381 1_655 S
O48 Fe39 1.935 . S
O48 C55 1.421 . S
C49 O45 1.381 . S
C49 O46 1.421 . S
O50 Fe39 2.077 . S
O50 C62 1.381 . S
O51 Fe34 1.935 . S
O51 C62 1.421 . S
O52 Fe32 2.077 . S
O52 C40 1.381 . S
O53 Fe35 1.935 . S
O53 C40 1.421 . S
C54 O41 1.381 . S
C54 O42 1.421 . S
C55 O47 1.381 1_455 S
C55 O48 1.421 . S
C56 O57 1.381 . S
C56 O58 1.421 . S
O57 Fe35 2.077 . S
O57 C56 1.381 . S
O58 Fe39 1.935 1_655 S
O58 C56 1.421 . S
C59 O43 1.381 . S
C59 O44 1.421 . S
O60 Fe34 2.077 . S
O60 C63 1.381 1_455 S
O61 Fe32 1.935 . S
O61 C63 1.421 . S
C62 O50 1.381 . S
C62 O51 1.421 . S
C63 O60 1.381 1_655 S
C63 O61 1.421 . S
Fe64 O65 1.886 . S
Fe64 O68 1.715 . S
Fe64 O73 2.077 . S
Fe64 O78 1.935 . S
Fe64 O84 2.077 . S
Fe64 O93 1.935 . S
O65 Fe64 1.886 . S
O65 Fe67 1.715 . S
Fe66 O68 1.886 . S
Fe66 O69 1.715 . S
Fe66 O76 1.935 . S
Fe66 O77 2.077 . S
Fe66 O83 1.935 . S
Fe66 O92 2.077 . S
Fe67 O65 1.715 . S
Fe67 O70 1.886 . S
Fe67 O74 1.935 . S
Fe67 O79 2.077 . S
Fe67 O85 1.935 . S
Fe67 O89 2.077 . S
O68 Fe64 1.715 . S
O68 Fe66 1.886 . S
O69 Fe66 1.715 . S
O69 Fe71 1.886 . S
O70 Fe67 1.886 . S
O70 Fe71 1.715 . S
Fe71 O69 1.886 . S
Fe71 O70 1.715 . S
Fe71 O75 2.077 . S
Fe71 O80 1.935 . S
Fe71 O82 2.077 . S
Fe71 O90 1.935 . S
C72 O84 1.381 . S
C72 O85 1.421 . S
O73 Fe64 2.077 . S
O73 C86 1.381 . S
O74 Fe67 1.935 . S
O74 C86 1.421 . S
O75 Fe71 2.077 . S
O75 C91 1.381 . S
O76 Fe66 1.935 . S
O76 C91 1.421 . S
O77 Fe66 2.077 . S
O77 C81 1.381 . S
O78 Fe64 1.935 . S
O78 C81 1.421 . S
O79 Fe67 2.077 . S
O79 C87 1.381 . S
O80 Fe71 1.935 . S
O80 C87 1.421 . S
C81 O77 1.381 . S
C81 O78 1.421 . S
O82 Fe71 2.077 . S
O82 C94 1.381 . S
O83 Fe66 1.935 . S
O83 C94 1.421 . S
O84 Fe64 2.077 . S
O84 C72 1.381 . S
O85 Fe67 1.935 . S
O85 C72 1.421 . S
C86 O73 1.381 . S
C86 O74 1.421 . S
C87 O79 1.381 . S
C87 O80 1.421 . S
C88 O89 1.381 . S
C88 O90 1.421 . S
O89 Fe67 2.077 . S
O89 C88 1.381 . S
O90 Fe71 1.935 . S
O90 C88 1.421 . S
C91 O75 1.381 . S
C91 O76 1.421 . S
O92 Fe66 2.077 . S
O92 C95 1.381 . S
O93 Fe64 1.935 . S
O93 C95 1.421 . S
C94 O82 1.381 . S
C94 O83 1.421 . S
C95 O92 1.381 . S
C95 O93 1.421 . S
Fe96 O97 1.886 . S
Fe96 O100 1.715 . S
Fe96 O105 2.077 . S
Fe96 O110 1.935 . S
Fe96 O116 2.077 . S
Fe96 O125 1.935 . S
O97 Fe96 1.886 . S
O97 Fe99 1.715 . S
Fe98 O100 1.886 . S
Fe98 O101 1.715 . S
Fe98 O108 1.935 . S
Fe98 O109 2.077 . S
Fe98 O115 1.935 . S
Fe98 O124 2.077 . S
Fe99 O97 1.715 . S
Fe99 O102 1.886 . S
Fe99 O106 1.935 . S
Fe99 O111 2.077 . S
Fe99 O117 1.935 . S
Fe99 O121 2.077 . S
O100 Fe96 1.715 . S
O100 Fe98 1.886 . S
O101 Fe98 1.715 . S
O101 Fe103 1.886 . S
O102 Fe99 1.886 . S
O102 Fe103 1.715 . S
Fe103 O101 1.886 . S
Fe103 O102 1.715 . S
Fe103 O107 2.077 . S
Fe103 O112 1.935 . S
Fe103 O114 2.077 . S
Fe103 O122 1.935 . S
C104 O116 1.381 . S
C104 O117 1.421 . S
O105 Fe96 2.077 . S
O105 C118 1.381 . S
O106 Fe99 1.935 . S
O106 C118 1.421 . S
O107 Fe103 2.077 . S
O107 C123 1.381 . S
O108 Fe98 1.935 . S
O108 C123 1.421 . S
O109 Fe98 2.077 . S
O109 C113 1.381 . S
O110 Fe96 1.935 . S
O110 C113 1.421 . S
O111 Fe99 2.077 . S
O111 C119 1.381 . S
O112 Fe103 1.935 . S
O112 C119 1.421 . S
C113 O109 1.381 . S
C113 O110 1.421 . S
O114 Fe103 2.077 . S
O114 C126 1.381 . S
O115 Fe98 1.935 . S
O115 C126 1.421 . S
O116 Fe96 2.077 . S
O116 C104 1.381 . S
O117 Fe99 1.935 . S
O117 C104 1.421 . S
C118 O105 1.381 . S
C118 O106 1.421 . S
C119 O111 1.381 . S
C119 O112 1.421 . S
C120 O121 1.381 . S
C120 O122 1.421 . S
O121 Fe99 2.077 . S
O121 C120 1.381 . S
O122 Fe103 1.935 . S
O122 C120 1.421 . S
C123 O107 1.381 . S
C123 O108 1.421 . S
O124 Fe98 2.077 . S
O124 C127 1.381 . S
O125 Fe96 1.935 . S
O125 C127 1.421 . S
C126 O114 1.381 . S
C126 O115 1.421 . S
C127 O124 1.381 . S
C127 O125 1.421 . S
H128 C146 0.951 1_554 S
H129 C148 0.951 . S
H130 C150 0.950 . S
H131 C151 0.950 1_554 S
H132 C153 0.950 . S
H133 C156 0.950 1_455 S
H134 C157 0.950 . S
H135 C159 0.950 . S
H136 C160 0.950 . S
H137 C161 0.951 . S
H138 C163 0.951 . S
H139 C165 0.950 . S
H140 C166 0.950 . S
H141 C168 0.950 . S
H142 C171 0.950 1_655 S
H143 C172 0.950 . S
H144 C174 0.950 . S
H145 C175 0.950 . S
C146 H128 0.951 1_556 S
C146 C147 1.366 1_656 S
C146 C148 1.388 . S
C147 C146 1.366 1_454 S
C147 C151 1.385 1_554 S
C148 H129 0.951 . S
C148 C146 1.388 . S
C148 C149 1.366 1_655 S
C149 C148 1.366 1_455 S
C149 C150 1.414 . S
C149 C152 1.499 . S
C150 H130 0.950 . S
C150 C149 1.414 . S
C150 C151 1.374 . S
C151 H131 0.950 1_556 S
C151 C147 1.385 1_556 S
C151 C150 1.374 . S
C152 C149 1.499 . S
C152 C153 1.373 . S
C152 C154 1.389 1_455 S
C153 H132 0.950 . S
C153 C152 1.373 . S
C153 C169 1.377 . S
C154 C152 1.389 1_655 S
C154 C155 1.524 . S
C154 C168 1.377 . S
C155 C154 1.524 . S
C155 C156 1.397 . S
C155 C160 1.363 . S
C156 H133 0.950 1_655 S
C156 C155 1.397 . S
C156 C157 1.334 . S
C157 H134 0.950 . S
C157 C156 1.334 . S
C157 C158 1.287 . S
C158 C157 1.287 . S
C158 C159 1.524 . S
C158 H177 0.913 . S
C159 H135 0.950 . S
C159 C158 1.524 . S
C159 C160 1.415 . S
C160 H136 0.950 . S
C160 C155 1.363 . S
C160 C159 1.415 . S
C161 H137 0.951 . S
C161 C162 1.366 1_455 S
C161 C163 1.388 . S
C162 C161 1.366 1_655 S
C162 C166 1.385 . S
C163 H138 0.951 . S
C163 C161 1.388 . S
C163 C164 1.366 1_455 S
C164 C163 1.366 1_655 S
C164 C165 1.414 . S
C164 C167 1.499 . S
C165 H139 0.950 . S
C165 C164 1.414 . S
C165 C166 1.374 . S
C166 H140 0.950 . S
C166 C162 1.385 . S
C166 C165 1.374 . S
C167 C164 1.499 . S
C167 C168 1.373 . S
C167 C169 1.389 1_655 S
C168 H141 0.950 . S
C168 C154 1.377 . S
C168 C167 1.373 . S
C169 C153 1.377 . S
C169 C167 1.389 1_455 S
C169 C170 1.524 . S
C170 C169 1.524 . S
C170 C171 1.397 . S
C170 C175 1.363 . S
C171 H142 0.950 1_455 S
C171 C170 1.397 . S
C171 C172 1.334 . S
C172 H143 0.950 . S
C172 C171 1.334 . S
C172 C173 1.287 . S
C173 C172 1.287 . S
C173 C174 1.524 . S
C173 H176 0.999 . S
C174 H144 0.950 . S
C174 C173 1.524 . S
C174 C175 1.415 . S
C175 H145 0.950 . S
C175 C170 1.363 . S
C175 C174 1.415 . S
H176 C173 0.999 . S
H177 C158 0.913 . S
H178 C196 0.951 . S
H179 C198 0.951 . S
H180 C200 0.950 . S
H181 C201 0.950 . S
H182 C203 0.950 . S
H183 C206 0.950 . S
H184 C207 0.950 . S
H185 C209 0.945 1_455 S
H186 C210 0.950 . S
H187 C211 0.951 1_556 S
H188 C213 0.951 . S
H189 C215 0.950 . S
H190 C216 0.950 1_556 S
H191 C218 0.950 . S
H192 C221 0.950 . S
H193 C222 0.950 . S
H194 C224 0.950 1_655 S
H195 C225 0.950 . S
C196 H178 0.951 . S
C196 C197 1.366 . S
C196 C198 1.388 . S
C197 C196 1.366 . S
C197 C201 1.385 1_455 S
C198 H179 0.951 . S
C198 C196 1.388 . S
C198 C199 1.366 . S
C199 C198 1.366 . S
C199 C200 1.414 1_455 S
C199 C202 1.499 . S
C200 H180 0.950 . S
C200 C199 1.414 1_655 S
C200 C201 1.374 . S
C201 H181 0.950 . S
C201 C197 1.385 1_655 S
C201 C200 1.374 . S
C202 C199 1.499 . S
C202 C203 1.373 . S
C202 C204 1.389 1_455 S
C203 H182 0.950 . S
C203 C202 1.373 . S
C203 C219 1.377 . S
C204 C202 1.389 1_655 S
C204 C205 1.524 . S
C204 C218 1.377 . S
C205 C204 1.524 . S
C205 C206 1.397 . S
C205 C210 1.363 1_655 S
C206 H183 0.950 . S
C206 C205 1.397 . S
C206 C207 1.334 . S
C207 H184 0.950 . S
C207 C206 1.334 . S
C207 C208 1.287 . S
C208 C207 1.287 . S
C208 C209 1.533 . S
C208 H227 0.913 . S
C209 H185 0.945 1_655 S
C209 C208 1.533 . S
C209 C210 1.412 1_655 S
C210 H186 0.950 . S
C210 C205 1.363 1_455 S
C210 C209 1.412 1_455 S
C211 H187 0.951 1_554 S
C211 C212 1.366 1_554 S
C211 C213 1.388 . S
C212 C211 1.366 1_556 S
C212 C216 1.385 1_656 S
C213 H188 0.951 . S
C213 C211 1.388 . S
C213 C214 1.366 . S
C214 C213 1.366 . S
C214 C215 1.414 1_655 S
C214 C217 1.499 . S
C215 H189 0.950 . S
C215 C214 1.414 1_455 S
C215 C216 1.374 . S
C216 H190 0.950 1_554 S
C216 C212 1.385 1_454 S
C216 C215 1.374 . S
C217 C214 1.499 . S
C217 C218 1.373 . S
C217 C219 1.389 1_655 S
C218 H191 0.950 . S
C218 C204 1.377 . S
C218 C217 1.373 . S
C219 C203 1.377 . S
C219 C217 1.389 1_455 S
C219 C220 1.524 . S
C220 C219 1.524 . S
C220 C221 1.397 . S
C220 C225 1.363 1_455 S
C221 H192 0.950 . S
C221 C220 1.397 . S
C221 C222 1.334 . S
C222 H193 0.950 . S
C222 C221 1.334 . S
C222 C223 1.287 . S
C223 C222 1.287 . S
C223 C224 1.524 . S
C223 H226 0.999 . S
C224 H194 0.950 1_455 S
C224 C223 1.524 . S
C224 C225 1.415 1_455 S
C225 H195 0.950 . S
C225 C220 1.363 1_655 S
C225 C224 1.415 1_655 S
H226 C223 0.999 . S
H227 C208 0.913 . S
H228 C246 0.951 1_554 S
H229 C248 0.951 . S
H230 C250 0.950 . S
H231 C251 0.950 1_554 S
H232 C253 0.950 . S
H233 C256 0.950 . S
H234 C257 0.950 . S
H235 C259 0.950 . S
H236 C260 0.950 . S
H237 C261 0.951 . S
H238 C263 0.951 . S
H239 C265 0.950 . S
H240 C266 0.950 . S
H241 C268 0.950 . S
H242 C271 0.950 . S
H243 C272 0.950 . S
H244 C274 0.950 . S
H245 C275 0.950 . S
C246 H228 0.951 1_556 S
C246 C247 1.366 1_556 S
C246 C248 1.388 . S
C247 C246 1.366 1_554 S
C247 C251 1.385 1_554 S
C248 H229 0.951 . S
C248 C246 1.388 . S
C248 C249 1.366 . S
C249 C248 1.366 . S
C249 C250 1.414 . S
C249 C252 1.499 . S
C250 H230 0.950 . S
C250 C249 1.414 . S
C250 C251 1.374 . S
C251 H231 0.950 1_556 S
C251 C247 1.385 1_556 S
C251 C250 1.374 . S
C252 C249 1.499 . S
C252 C253 1.373 . S
C252 C254 1.389 . S
C253 H232 0.950 . S
C253 C252 1.373 . S
C253 C269 1.377 . S
C254 C252 1.389 . S
C254 C255 1.524 . S
C254 C268 1.377 . S
C255 C254 1.524 . S
C255 C256 1.397 . S
C255 C260 1.363 . S
C256 H233 0.950 . S
C256 C255 1.397 . S
C256 C257 1.334 . S
C257 H234 0.950 . S
C257 C256 1.334 . S
C257 C258 1.287 . S
C258 C257 1.287 . S
C258 C259 1.524 . S
C258 H277 0.913 . S
C259 H235 0.950 . S
C259 C258 1.524 . S
C259 C260 1.415 . S
C260 H236 0.950 . S
C260 C255 1.363 . S
C260 C259 1.415 . S
C261 H237 0.951 . S
C261 C262 1.366 . S
C261 C263 1.388 . S
C262 C261 1.366 . S
C262 C266 1.385 . S
C263 H238 0.951 . S
C263 C261 1.388 . S
C263 C264 1.366 . S
C264 C263 1.366 . S
C264 C265 1.414 . S
C264 C267 1.499 . S
C265 H239 0.950 . S
C265 C264 1.414 . S
C265 C266 1.374 . S
C266 H240 0.950 . S
C266 C262 1.385 . S
C266 C265 1.374 . S
C267 C264 1.499 . S
C267 C268 1.373 . S
C267 C269 1.389 . S
C268 H241 0.950 . S
C268 C254 1.377 . S
C268 C267 1.373 . S
C269 C253 1.377 . S
C269 C267 1.389 . S
C269 C270 1.524 . S
C270 C269 1.524 . S
C270 C271 1.397 . S
C270 C275 1.363 . S
C271 H242 0.950 . S
C271 C270 1.397 . S
C271 C272 1.334 . S
C272 H243 0.950 . S
C272 C271 1.334 . S
C272 C273 1.287 . S
C273 C272 1.287 . S
C273 C274 1.524 . S
C273 H276 0.999 . S
C274 H244 0.950 . S
C274 C273 1.524 . S
C274 C275 1.415 . S
C275 H245 0.950 . S
C275 C270 1.363 . S
C275 C274 1.415 . S
H276 C273 0.999 . S
H277 C258 0.913 . S
H278 C296 0.951 1_556 S
H279 C298 0.951 . S
H280 C300 0.950 . S
H281 C301 0.950 1_556 S
H282 C303 0.950 . S
H283 C306 0.950 . S
H284 C307 0.950 . S
H285 C309 0.950 . S
H286 C310 0.950 . S
H287 C311 0.951 . S
H288 C313 0.951 . S
H289 C315 0.950 . S
H290 C316 0.950 . S
H291 C318 0.950 . S
H292 C321 0.950 . S
H293 C322 0.950 . S
H294 C324 0.950 . S
H295 C325 0.950 . S
C296 H278 0.951 1_554 S
C296 C297 1.366 1_554 S
C296 C298 1.388 . S
C297 C296 1.366 1_556 S
C297 C301 1.385 1_556 S
C298 H279 0.951 . S
C298 C296 1.388 . S
C298 C299 1.366 . S
C299 C298 1.366 . S
C299 C300 1.414 . S
C299 C302 1.499 . S
C300 H280 0.950 . S
C300 C299 1.414 . S
C300 C301 1.374 . S
C301 H281 0.950 1_554 S
C301 C297 1.385 1_554 S
C301 C300 1.374 . S
C302 C299 1.499 . S
C302 C303 1.373 . S
C302 C304 1.389 . S
C303 H282 0.950 . S
C303 C302 1.373 . S
C303 C319 1.377 . S
C304 C302 1.389 . S
C304 C305 1.524 . S
C304 C318 1.377 . S
C305 C304 1.524 . S
C305 C306 1.397 . S
C305 C310 1.363 . S
C306 H283 0.950 . S
C306 C305 1.397 . S
C306 C307 1.334 . S
C307 H284 0.950 . S
C307 C306 1.334 . S
C307 C308 1.287 . S
C308 C307 1.287 . S
C308 C309 1.524 . S
C308 H327 0.913 . S
C309 H285 0.950 . S
C309 C308 1.524 . S
C309 C310 1.415 . S
C310 H286 0.950 . S
C310 C305 1.363 . S
C310 C309 1.415 . S
C311 H287 0.951 . S
C311 C312 1.366 . S
C311 C313 1.388 . S
C312 C311 1.366 . S
C312 C316 1.385 . S
C313 H288 0.951 . S
C313 C311 1.388 . S
C313 C314 1.366 . S
C314 C313 1.366 . S
C314 C315 1.414 . S
C314 C317 1.499 . S
C315 H289 0.950 . S
C315 C314 1.414 . S
C315 C316 1.374 . S
C316 H290 0.950 . S
C316 C312 1.385 . S
C316 C315 1.374 . S
C317 C314 1.499 . S
C317 C318 1.373 . S
C317 C319 1.389 . S
C318 H291 0.950 . S
C318 C304 1.377 . S
C318 C317 1.373 . S
C319 C303 1.377 . S
C319 C317 1.389 . S
C319 C320 1.524 . S
C320 C319 1.524 . S
C320 C321 1.397 . S
C320 C325 1.363 . S
C321 H292 0.950 . S
C321 C320 1.397 . S
C321 C322 1.334 . S
C322 H293 0.950 . S
C322 C321 1.334 . S
C322 C323 1.287 . S
C323 C322 1.287 . S
C323 C324 1.524 . S
C323 H326 0.999 . S
C324 H294 0.950 . S
C324 C323 1.524 . S
C324 C325 1.415 . S
C325 H295 0.950 . S
C325 C320 1.363 . S
C325 C324 1.415 . S
H326 C323 0.999 . S
H327 C308 0.913 . S
H328 C346 0.951 . S
H329 C348 0.951 . S
H330 C350 0.950 . S
H331 C351 0.950 . S
H332 C353 0.950 . S
H333 C356 0.950 . S
H334 C357 0.950 . S
H335 C359 0.950 . S
H336 C360 0.950 . S
H337 C361 0.951 . S
H338 C363 0.951 . S
H339 C365 0.950 . S
H340 C366 0.950 . S
H341 C368 0.950 . S
H342 C371 0.950 . S
H343 C372 0.950 . S
H344 C374 0.950 1_556 S
H345 C375 0.950 . S
C346 H328 0.951 . S
C346 C347 1.366 . S
C346 C348 1.388 . S
C347 C346 1.366 . S
C347 C351 1.385 . S
C348 H329 0.951 . S
C348 C346 1.388 . S
C348 C349 1.366 . S
C349 C348 1.366 . S
C349 C350 1.414 . S
C349 C352 1.499 . S
C350 H330 0.950 . S
C350 C349 1.414 . S
C350 C351 1.374 . S
C351 H331 0.950 . S
C351 C347 1.385 . S
C351 C350 1.374 . S
C352 C349 1.499 . S
C352 C353 1.373 . S
C352 C354 1.389 . S
C353 H332 0.950 . S
C353 C352 1.373 . S
C353 C369 1.377 . S
C354 C352 1.389 . S
C354 C355 1.524 . S
C354 C368 1.377 . S
C355 C354 1.524 . S
C355 C356 1.397 . S
C355 C360 1.363 . S
C356 H333 0.950 . S
C356 C355 1.397 . S
C356 C357 1.334 . S
C357 H334 0.950 . S
C357 C356 1.334 . S
C357 C358 1.287 . S
C358 C357 1.287 . S
C358 C359 1.524 . S
C358 H377 0.913 . S
C359 H335 0.950 . S
C359 C358 1.524 . S
C359 C360 1.415 . S
C360 H336 0.950 . S
C360 C355 1.363 . S
C360 C359 1.415 . S
C361 H337 0.951 . S
C361 C362 1.366 . S
C361 C363 1.388 . S
C362 C361 1.366 . S
C362 C366 1.385 . S
C363 H338 0.951 . S
C363 C361 1.388 . S
C363 C364 1.366 . S
C364 C363 1.366 . S
C364 C365 1.414 . S
C364 C367 1.499 . S
C365 H339 0.950 . S
C365 C364 1.414 . S
C365 C366 1.374 . S
C366 H340 0.950 . S
C366 C362 1.385 . S
C366 C365 1.374 . S
C367 C364 1.499 . S
C367 C368 1.373 . S
C367 C369 1.389 . S
C368 H341 0.950 . S
C368 C354 1.377 . S
C368 C367 1.373 . S
C369 C353 1.377 . S
C369 C367 1.389 . S
C369 C370 1.524 . S
C370 C369 1.524 . S
C370 C371 1.397 . S
C370 C375 1.363 . S
C371 H342 0.950 . S
C371 C370 1.397 . S
C371 C372 1.334 . S
C372 H343 0.950 . S
C372 C371 1.334 . S
C372 C373 1.287 . S
C373 C372 1.287 . S
C373 C374 1.524 . S
C373 H376 0.999 1_554 S
C374 H344 0.950 1_554 S
C374 C373 1.524 . S
C374 C375 1.415 . S
C375 H345 0.950 . S
C375 C370 1.363 . S
C375 C374 1.415 . S
H376 C373 0.999 1_556 S
H377 C358 0.913 . S
H378 C396 0.951 . S
H379 C398 0.951 . S
H380 C400 0.950 . S
H381 C401 0.950 . S
H382 C403 0.950 . S
H383 C406 0.950 . S
H384 C407 0.950 . S
H385 C409 0.950 1_554 S
H386 C410 0.950 . S
H387 C411 0.951 . S
H388 C413 0.951 . S
H389 C415 0.950 . S
H390 C416 0.950 . S
H391 C418 0.950 . S
H392 C421 0.950 . S
H393 C422 0.950 . S
H394 C424 0.950 . S
H395 C425 0.950 . S
C396 H378 0.951 . S
C396 C397 1.366 . S
C396 C398 1.388 . S
C397 C396 1.366 . S
C397 C401 1.385 . S
C398 H379 0.951 . S
C398 C396 1.388 . S
C398 C399 1.366 . S
C399 C398 1.366 . S
C399 C400 1.414 . S
C399 C402 1.499 . S
C400 H380 0.950 . S
C400 C399 1.414 . S
C400 C401 1.374 . S
C401 H381 0.950 . S
C401 C397 1.385 . S
C401 C400 1.374 . S
C402 C399 1.499 . S
C402 C403 1.373 . S
C402 C404 1.389 . S
C403 H382 0.950 . S
C403 C402 1.373 . S
C403 C419 1.377 . S
C404 C402 1.389 . S
C404 C405 1.524 . S
C404 C418 1.377 . S
C405 C404 1.524 . S
C405 C406 1.397 . S
C405 C410 1.363 . S
C406 H383 0.950 . S
C406 C405 1.397 . S
C406 C407 1.334 . S
C407 H384 0.950 . S
C407 C406 1.334 . S
C407 C408 1.287 . S
C408 C407 1.287 . S
C408 C409 1.524 . S
C408 H427 0.913 1_556 S
C409 H385 0.950 1_556 S
C409 C408 1.524 . S
C409 C410 1.415 . S
C410 H386 0.950 . S
C410 C405 1.363 . S
C410 C409 1.415 . S
C411 H387 0.951 . S
C411 C412 1.366 . S
C411 C413 1.388 . S
C412 C411 1.366 . S
C412 C416 1.385 . S
C413 H388 0.951 . S
C413 C411 1.388 . S
C413 C414 1.366 . S
C414 C413 1.366 . S
C414 C415 1.414 . S
C414 C417 1.499 . S
C415 H389 0.950 . S
C415 C414 1.414 . S
C415 C416 1.374 . S
C416 H390 0.950 . S
C416 C412 1.385 . S
C416 C415 1.374 . S
C417 C414 1.499 . S
C417 C418 1.373 . S
C417 C419 1.389 . S
C418 H391 0.950 . S
C418 C404 1.377 . S
C418 C417 1.373 . S
C419 C403 1.377 . S
C419 C417 1.389 . S
C419 C420 1.524 . S
C420 C419 1.524 . S
C420 C421 1.397 . S
C420 C425 1.363 . S
C421 H392 0.950 . S
C421 C420 1.397 . S
C421 C422 1.334 . S
C422 H393 0.950 . S
C422 C421 1.334 . S
C422 C423 1.287 . S
C423 C422 1.287 . S
C423 C424 1.524 . S
C423 H426 0.999 . S
C424 H394 0.950 . S
C424 C423 1.524 . S
C424 C425 1.415 . S
C425 H395 0.950 . S
C425 C420 1.363 . S
C425 C424 1.415 . S
H426 C423 0.999 . S
H427 C408 0.913 1_554 S
H428 C446 0.951 . S
H429 C448 0.951 . S
H430 C450 0.950 . S
H431 C451 0.950 . S
H432 C453 0.950 . S
H433 C456 0.950 . S
H434 C457 0.950 . S
H435 C459 0.950 . S
H436 C460 0.950 . S
H437 C461 0.951 . S
H438 C463 0.951 . S
H439 C465 0.950 . S
H440 C466 0.950 . S
H441 C468 0.950 . S
H442 C471 0.950 . S
H443 C472 0.950 . S
H444 C474 0.950 . S
H445 C475 0.950 . S
C446 H428 0.951 . S
C446 C447 1.366 . S
C446 C448 1.388 . S
C447 C446 1.366 . S
C447 C451 1.385 . S
C448 H429 0.951 . S
C448 C446 1.388 . S
C448 C449 1.366 . S
C449 C448 1.366 . S
C449 C450 1.414 . S
C449 C452 1.499 . S
C450 H430 0.950 . S
C450 C449 1.414 . S
C450 C451 1.374 . S
C451 H431 0.950 . S
C451 C447 1.385 . S
C451 C450 1.374 . S
C452 C449 1.499 . S
C452 C453 1.373 . S
C452 C454 1.389 . S
C453 H432 0.950 . S
C453 C452 1.373 . S
C453 C469 1.377 1_655 S
C454 C452 1.389 . S
C454 C455 1.524 . S
C454 C468 1.377 1_655 S
C455 C454 1.524 . S
C455 C456 1.397 . S
C455 C460 1.363 . S
C456 H433 0.950 . S
C456 C455 1.397 . S
C456 C457 1.334 . S
C457 H434 0.950 . S
C457 C456 1.334 . S
C457 C458 1.287 . S
C458 C457 1.287 . S
C458 C459 1.524 . S
C458 H477 0.913 . S
C459 H435 0.950 . S
C459 C458 1.524 . S
C459 C460 1.415 . S
C460 H436 0.950 . S
C460 C455 1.363 . S
C460 C459 1.415 . S
C461 H437 0.951 . S
C461 C462 1.366 . S
C461 C463 1.388 . S
C462 C461 1.366 . S
C462 C466 1.385 . S
C463 H438 0.951 . S
C463 C461 1.388 . S
C463 C464 1.366 . S
C464 C463 1.366 . S
C464 C465 1.414 . S
C464 C467 1.499 . S
C465 H439 0.950 . S
C465 C464 1.414 . S
C465 C466 1.374 . S
C466 H440 0.950 . S
C466 C462 1.385 . S
C466 C465 1.374 . S
C467 C464 1.499 . S
C467 C468 1.373 . S
C467 C469 1.389 . S
C468 H441 0.950 . S
C468 C454 1.377 1_455 S
C468 C467 1.373 . S
C469 C453 1.377 1_455 S
C469 C467 1.389 . S
C469 C470 1.524 . S
C470 C469 1.524 . S
C470 C471 1.397 . S
C470 C475 1.363 . S
C471 H442 0.950 . S
C471 C470 1.397 . S
C471 C472 1.334 . S
C472 H443 0.950 . S
C472 C471 1.334 . S
C472 C473 1.287 . S
C473 C472 1.287 . S
C473 C474 1.524 . S
C473 H476 0.999 . S
C474 H444 0.950 . S
C474 C473 1.524 . S
C474 C475 1.415 . S
C475 H445 0.950 . S
C475 C470 1.363 . S
C475 C474 1.415 . S
H476 C473 0.999 . S
H477 C458 0.913 . S
H478 C496 0.951 . S
H479 C498 0.951 . S
H480 C500 0.950 . S
H481 C501 0.950 . S
H482 C503 0.950 . S
H483 C506 0.950 . S
H484 C507 0.950 . S
H485 C509 0.950 . S
H486 C510 0.950 . S
H487 C511 0.951 . S
H488 C513 0.951 . S
H489 C515 0.950 . S
H490 C516 0.950 . S
H491 C518 0.950 . S
H492 C521 0.950 . S
H493 C522 0.950 . S
H494 C524 0.950 1_554 S
H495 C525 0.950 . S
C496 H478 0.951 . S
C496 C497 1.366 . S
C496 C498 1.388 . S
C497 C496 1.366 . S
C497 C501 1.385 . S
C498 H479 0.951 . S
C498 C496 1.388 . S
C498 C499 1.366 . S
C499 C498 1.366 . S
C499 C500 1.414 . S
C499 C502 1.499 . S
C500 H480 0.950 . S
C500 C499 1.414 . S
C500 C501 1.374 . S
C501 H481 0.950 . S
C501 C497 1.385 . S
C501 C500 1.374 . S
C502 C499 1.499 . S
C502 C503 1.373 . S
C502 C504 1.389 . S
C503 H482 0.950 . S
C503 C502 1.373 . S
C503 C519 1.377 1_655 S
C504 C502 1.389 . S
C504 C505 1.524 . S
C504 C518 1.377 1_655 S
C505 C504 1.524 . S
C505 C506 1.397 . S
C505 C510 1.363 . S
C506 H483 0.950 . S
C506 C505 1.397 . S
C506 C507 1.334 . S
C507 H484 0.950 . S
C507 C506 1.334 . S
C507 C508 1.287 . S
C508 C507 1.287 . S
C508 C509 1.524 . S
C508 H527 0.913 . S
C509 H485 0.950 . S
C509 C508 1.524 . S
C509 C510 1.415 . S
C510 H486 0.950 . S
C510 C505 1.363 . S
C510 C509 1.415 . S
C511 H487 0.951 . S
C511 C512 1.366 . S
C511 C513 1.388 . S
C512 C511 1.366 . S
C512 C516 1.385 . S
C513 H488 0.951 . S
C513 C511 1.388 . S
C513 C514 1.366 . S
C514 C513 1.366 . S
C514 C515 1.414 . S
C514 C517 1.499 . S
C515 H489 0.950 . S
C515 C514 1.414 . S
C515 C516 1.374 . S
C516 H490 0.950 . S
C516 C512 1.385 . S
C516 C515 1.374 . S
C517 C514 1.499 . S
C517 C518 1.373 . S
C517 C519 1.389 . S
C518 H491 0.950 . S
C518 C504 1.377 1_455 S
C518 C517 1.373 . S
C519 C503 1.377 1_455 S
C519 C517 1.389 . S
C519 C520 1.524 . S
C520 C519 1.524 . S
C520 C521 1.397 . S
C520 C525 1.363 . S
C521 H492 0.950 . S
C521 C520 1.397 . S
C521 C522 1.334 . S
C522 H493 0.950 . S
C522 C521 1.334 . S
C522 C523 1.287 . S
C523 C522 1.287 . S
C523 C524 1.524 . S
C523 H526 0.999 . S
C524 H494 0.950 1_556 S
C524 C523 1.524 . S
C524 C525 1.415 . S
C525 H495 0.950 . S
C525 C520 1.363 . S
C525 C524 1.415 . S
H526 C523 0.999 . S
H527 C508 0.913 . S
H528 C546 0.951 . S
H529 C548 0.951 . S
H530 C550 0.950 . S
H531 C551 0.950 . S
H532 C553 0.950 . S
H533 C556 0.950 . S
H534 C557 0.950 . S
H535 C559 0.950 . S
H536 C560 0.950 . S
H537 C561 0.951 . S
H538 C563 0.951 . S
H539 C565 0.950 . S
H540 C566 0.950 . S
H541 C568 0.950 . S
H542 C571 0.950 . S
H543 C572 0.950 . S
H544 C574 0.950 1_655 S
H545 C575 0.950 . S
C546 H528 0.951 . S
C546 C547 1.366 . S
C546 C548 1.388 . S
C547 C546 1.366 . S
C547 C551 1.385 . S
C548 H529 0.951 . S
C548 C546 1.388 . S
C548 C549 1.366 . S
C549 C548 1.366 . S
C549 C550 1.414 . S
C549 C552 1.499 . S
C550 H530 0.950 . S
C550 C549 1.414 . S
C550 C551 1.374 . S
C551 H531 0.950 . S
C551 C547 1.385 . S
C551 C550 1.374 . S
C552 C549 1.499 . S
C552 C553 1.373 . S
C552 C554 1.389 . S
C553 H532 0.950 . S
C553 C552 1.373 . S
C553 C569 1.377 . S
C554 C552 1.389 . S
C554 C555 1.524 . S
C554 C568 1.377 . S
C555 C554 1.524 . S
C555 C556 1.397 . S
C555 C560 1.363 . S
C556 H533 0.950 . S
C556 C555 1.397 . S
C556 C557 1.334 . S
C557 H534 0.950 . S
C557 C556 1.334 . S
C557 C558 1.287 . S
C558 C557 1.287 . S
C558 C559 1.524 . S
C558 H577 0.913 . S
C559 H535 0.950 . S
C559 C558 1.524 . S
C559 C560 1.415 . S
C560 H536 0.950 . S
C560 C555 1.363 . S
C560 C559 1.415 . S
C561 H537 0.951 . S
C561 C562 1.366 . S
C561 C563 1.388 . S
C562 C561 1.366 . S
C562 C566 1.385 . S
C563 H538 0.951 . S
C563 C561 1.388 . S
C563 C564 1.366 . S
C564 C563 1.366 . S
C564 C565 1.414 . S
C564 C567 1.499 . S
C565 H539 0.950 . S
C565 C564 1.414 . S
C565 C566 1.374 . S
C566 H540 0.950 . S
C566 C562 1.385 . S
C566 C565 1.374 . S
C567 C564 1.499 . S
C567 C568 1.373 . S
C567 C569 1.389 . S
C568 H541 0.950 . S
C568 C554 1.377 . S
C568 C567 1.373 . S
C569 C553 1.377 . S
C569 C567 1.389 . S
C569 C570 1.524 . S
C570 C569 1.524 . S
C570 C571 1.397 . S
C570 C575 1.363 . S
C571 H542 0.950 . S
C571 C570 1.397 . S
C571 C572 1.334 . S
C572 H543 0.950 . S
C572 C571 1.334 . S
C572 C573 1.287 . S
C573 C572 1.287 . S
C573 C574 1.524 . S
C573 H576 0.999 1_455 S
C574 H544 0.950 1_455 S
C574 C573 1.524 . S
C574 C575 1.415 . S
C575 H545 0.950 . S
C575 C570 1.363 . S
C575 C574 1.415 . S
H576 C573 0.999 1_655 S
H577 C558 0.913 . S
H578 C596 0.951 . S
H579 C598 0.951 1_554 S
H580 C600 0.950 . S
H581 C601 0.950 . S
H582 C603 0.950 . S
H583 C606 0.950 1_556 S
H584 C607 0.950 . S
H585 C609 0.950 . S
H586 C610 0.950 . S
H587 C611 0.951 . S
H588 C613 0.951 1_556 S
H589 C615 0.950 . S
H590 C616 0.950 . S
H591 C618 0.950 . S
H592 C621 0.950 1_554 S
H593 C622 0.950 . S
H594 C624 0.950 . S
H595 C625 0.950 . S
C596 H578 0.951 . S
C596 C597 1.366 . S
C596 C598 1.388 . S
C597 C596 1.366 . S
C597 C601 1.385 . S
C598 H579 0.951 1_556 S
C598 C596 1.388 . S
C598 C599 1.366 . S
C599 C598 1.366 . S
C599 C600 1.414 . S
C599 C602 1.499 . S
C600 H580 0.950 . S
C600 C599 1.414 . S
C600 C601 1.374 . S
C601 H581 0.950 . S
C601 C597 1.385 . S
C601 C600 1.374 . S
C602 C599 1.499 . S
C602 C603 1.373 . S
C602 C604 1.389 1_556 S
C603 H582 0.950 . S
C603 C602 1.373 . S
C603 C619 1.377 . S
C604 C602 1.389 1_554 S
C604 C605 1.524 . S
C604 C618 1.377 . S
C605 C604 1.524 . S
C605 C606 1.397 . S
C605 C610 1.363 . S
C606 H583 0.950 1_554 S
C606 C605 1.397 . S
C606 C607 1.334 . S
C607 H584 0.950 . S
C607 C606 1.334 . S
C607 C608 1.287 . S
C608 C607 1.287 . S
C608 C609 1.524 . S
C608 H627 0.913 . S
C609 H585 0.950 . S
C609 C608 1.524 . S
C609 C610 1.415 . S
C610 H586 0.950 . S
C610 C605 1.363 . S
C610 C609 1.415 . S
C611 H587 0.951 . S
C611 C612 1.366 . S
C611 C613 1.388 . S
C612 C611 1.366 . S
C612 C616 1.385 . S
C613 H588 0.951 1_554 S
C613 C611 1.388 . S
C613 C614 1.366 . S
C614 C613 1.366 . S
C614 C615 1.414 . S
C614 C617 1.499 . S
C615 H589 0.950 . S
C615 C614 1.414 . S
C615 C616 1.374 . S
C616 H590 0.950 . S
C616 C612 1.385 . S
C616 C615 1.374 . S
C617 C614 1.499 . S
C617 C618 1.373 . S
C617 C619 1.389 1_554 S
C618 H591 0.950 . S
C618 C604 1.377 . S
C618 C617 1.373 . S
C619 C603 1.377 . S
C619 C617 1.389 1_556 S
C619 C620 1.524 . S
C620 C619 1.524 . S
C620 C621 1.397 . S
C620 C625 1.363 . S
C621 H592 0.950 1_556 S
C621 C620 1.397 . S
C621 C622 1.334 . S
C622 H593 0.950 . S
C622 C621 1.334 . S
C622 C623 1.287 . S
C623 C622 1.287 . S
C623 C624 1.524 . S
C623 H626 0.999 . S
C624 H594 0.950 . S
C624 C623 1.524 . S
C624 C625 1.415 . S
C625 H595 0.950 . S
C625 C620 1.363 . S
C625 C624 1.415 . S
H626 C623 0.999 . S
H627 C608 0.913 . S
H628 C646 0.951 . S
H629 C648 0.951 . S
H630 C650 0.950 . S
H631 C651 0.950 . S
H632 C653 0.950 . S
H633 C656 0.950 . S
H634 C657 0.950 . S
H635 C659 0.950 . S
H636 C660 0.950 . S
H637 C661 0.951 . S
H638 C663 0.951 . S
H639 C665 0.950 . S
H640 C666 0.950 . S
H641 C668 0.950 . S
H642 C671 0.950 . S
H643 C672 0.950 . S
H644 C674 0.950 . S
H645 C675 0.950 . S
C646 H628 0.951 . S
C646 C647 1.366 . S
C646 C648 1.388 . S
C647 C646 1.366 . S
C647 C651 1.385 . S
C648 H629 0.951 . S
C648 C646 1.388 . S
C648 C649 1.366 . S
C649 C648 1.366 . S
C649 C650 1.414 . S
C649 C652 1.499 . S
C650 H630 0.950 . S
C650 C649 1.414 . S
C650 C651 1.374 . S
C651 H631 0.950 . S
C651 C647 1.385 . S
C651 C650 1.374 . S
C652 C649 1.499 . S
C652 C653 1.373 . S
C652 C654 1.389 . S
C653 H632 0.950 . S
C653 C652 1.373 . S
C653 C669 1.377 . S
C654 C652 1.389 . S
C654 C655 1.524 . S
C654 C668 1.377 . S
C655 C654 1.524 . S
C655 C656 1.397 . S
C655 C660 1.363 . S
C656 H633 0.950 . S
C656 C655 1.397 . S
C656 C657 1.334 . S
C657 H634 0.950 . S
C657 C656 1.334 . S
C657 C658 1.287 . S
C658 C657 1.287 . S
C658 C659 1.524 . S
C658 H677 0.913 . S
C659 H635 0.950 . S
C659 C658 1.524 . S
C659 C660 1.415 . S
C660 H636 0.950 . S
C660 C655 1.363 . S
C660 C659 1.415 . S
C661 H637 0.951 . S
C661 C662 1.366 . S
C661 C663 1.388 . S
C662 C661 1.366 . S
C662 C666 1.385 . S
C663 H638 0.951 . S
C663 C661 1.388 . S
C663 C664 1.366 . S
C664 C663 1.366 . S
C664 C665 1.414 . S
C664 C667 1.499 . S
C665 H639 0.950 . S
C665 C664 1.414 . S
C665 C666 1.374 . S
C666 H640 0.950 . S
C666 C662 1.385 . S
C666 C665 1.374 . S
C667 C664 1.499 . S
C667 C668 1.373 . S
C667 C669 1.389 . S
C668 H641 0.950 . S
C668 C654 1.377 . S
C668 C667 1.373 . S
C669 C653 1.377 . S
C669 C667 1.389 . S
C669 C670 1.524 . S
C670 C669 1.524 . S
C670 C671 1.397 . S
C670 C675 1.363 . S
C671 H642 0.950 . S
C671 C670 1.397 . S
C671 C672 1.334 . S
C672 H643 0.950 . S
C672 C671 1.334 . S
C672 C673 1.287 . S
C673 C672 1.287 . S
C673 C674 1.524 . S
C673 H676 0.999 . S
C674 H644 0.950 . S
C674 C673 1.524 . S
C674 C675 1.415 . S
C675 H645 0.950 . S
C675 C670 1.363 . S
C675 C674 1.415 . S
H676 C673 0.999 . S
H677 C658 0.913 . S
H678 C696 0.951 . S
H679 C698 0.951 1_556 S
H680 C700 0.950 . S
H681 C701 0.950 . S
H682 C703 0.950 . S
H683 C706 0.950 . S
H684 C707 0.950 1_554 S
H685 C709 0.950 . S
H686 C710 0.950 . S
H687 C711 0.951 . S
H688 C713 0.951 1_554 S
H689 C715 0.950 . S
H690 C716 0.950 . S
H691 C718 0.950 . S
H692 C721 0.950 . S
H693 C722 0.950 1_656 S
H694 C724 0.950 . S
H695 C725 0.950 . S
C696 H678 0.951 . S
C696 C697 1.366 . S
C696 C698 1.388 . S
C697 C696 1.366 . S
C697 C701 1.385 . S
C698 H679 0.951 1_554 S
C698 C696 1.388 . S
C698 C699 1.366 . S
C699 C698 1.366 . S
C699 C700 1.414 . S
C699 C702 1.499 . S
C700 H680 0.950 . S
C700 C699 1.414 . S
C700 C701 1.374 . S
C701 H681 0.950 . S
C701 C697 1.385 . S
C701 C700 1.374 . S
C702 C699 1.499 . S
C702 C703 1.373 . S
C702 C704 1.389 1_554 S
C703 H682 0.950 . S
C703 C702 1.373 . S
C703 C719 1.377 . S
C704 C702 1.389 1_556 S
C704 C705 1.524 . S
C704 C718 1.377 . S
C705 C704 1.524 . S
C705 C706 1.397 1_556 S
C705 C710 1.363 . S
C706 H683 0.950 . S
C706 C705 1.397 1_554 S
C706 C707 1.334 1_554 S
C707 H684 0.950 1_556 S
C707 C706 1.334 1_556 S
C707 C708 1.287 . S
C708 C707 1.287 . S
C708 C709 1.524 . S
C708 H727 0.913 . S
C709 H685 0.950 . S
C709 C708 1.524 . S
C709 C710 1.415 . S
C710 H686 0.950 . S
C710 C705 1.363 . S
C710 C709 1.415 . S
C711 H687 0.951 . S
C711 C712 1.366 . S
C711 C713 1.388 . S
C712 C711 1.366 . S
C712 C716 1.385 . S
C713 H688 0.951 1_556 S
C713 C711 1.388 . S
C713 C714 1.366 . S
C714 C713 1.366 . S
C714 C715 1.414 . S
C714 C717 1.499 . S
C715 H689 0.950 . S
C715 C714 1.414 . S
C715 C716 1.374 . S
C716 H690 0.950 . S
C716 C712 1.385 . S
C716 C715 1.374 . S
C717 C714 1.499 . S
C717 C718 1.373 . S
C717 C719 1.389 1_556 S
C718 H691 0.950 . S
C718 C704 1.377 . S
C718 C717 1.373 . S
C719 C703 1.377 . S
C719 C717 1.389 1_554 S
C719 C720 1.524 . S
C720 C719 1.524 . S
C720 C721 1.397 1_554 S
C720 C725 1.363 . S
C721 H692 0.950 . S
C721 C720 1.397 1_556 S
C721 C722 1.334 1_556 S
C722 H693 0.950 1_454 S
C722 C721 1.334 1_554 S
C722 C723 1.287 . S
C723 C722 1.287 . S
C723 C724 1.524 . S
C723 H726 0.999 1_455 S
C724 H694 0.950 . S
C724 C723 1.524 . S
C724 C725 1.415 . S
C725 H695 0.950 . S
C725 C720 1.363 . S
C725 C724 1.415 . S
H726 C723 0.999 1_655 S
H727 C708 0.913 . S
H728 C746 0.951 . S
H729 C748 0.951 . S
H730 C750 0.950 . S
H731 C751 0.950 1_455 S
H732 C753 0.950 . S
H733 C756 0.950 1_545 S
H734 C757 0.950 . S
H735 C759 0.950 . S
H736 C760 0.950 1_556 S
H737 C761 0.951 . S
H738 C763 0.951 . S
H739 C765 0.950 . S
H740 C766 0.950 1_655 S
H741 C768 0.950 . S
H742 C771 0.950 1_565 S
H743 C772 0.950 . S
H744 C774 0.950 . S
H745 C775 0.950 1_554 S
C746 H728 0.951 . S
C746 C747 1.366 . S
C746 C748 1.388 . S
C747 C746 1.366 . S
C747 C751 1.385 . S
C748 H729 0.951 . S
C748 C746 1.388 . S
C748 C749 1.366 . S
C749 C748 1.366 . S
C749 C750 1.414 1_655 S
C749 C752 1.499 . S
C750 H730 0.950 . S
C750 C749 1.414 1_455 S
C750 C751 1.374 1_455 S
C751 H731 0.950 1_655 S
C751 C747 1.385 . S
C751 C750 1.374 1_655 S
C752 C749 1.499 . S
C752 C753 1.373 1_655 S
C752 C754 1.343 1_545 S
C753 H732 0.950 . S
C753 C752 1.373 1_455 S
C753 C769 1.422 1_554 S
C754 C752 1.343 1_565 S
C754 C755 1.532 . S
C754 C768 1.422 1_554 S
C755 C754 1.532 . S
C755 C756 1.397 . S
C755 C760 1.363 . S
C756 H733 0.950 1_565 S
C756 C755 1.397 . S
C756 C757 1.334 . S
C757 H734 0.950 . S
C757 C756 1.334 . S
C757 C758 1.287 . S
C758 C757 1.287 . S
C758 C759 1.524 . S
C758 H777 0.913 . S
C759 H735 0.950 . S
C759 C758 1.524 . S
C759 C760 1.415 . S
C760 H736 0.950 1_554 S
C760 C755 1.363 . S
C760 C759 1.415 . S
C761 H737 0.951 . S
C761 C762 1.366 . S
C761 C763 1.388 . S
C762 C761 1.366 . S
C762 C766 1.385 . S
C763 H738 0.951 . S
C763 C761 1.388 . S
C763 C764 1.366 . S
C764 C763 1.366 . S
C764 C765 1.414 1_455 S
C764 C767 1.499 . S
C765 H739 0.950 . S
C765 C764 1.414 1_655 S
C765 C766 1.374 1_655 S
C766 H740 0.950 1_455 S
C766 C762 1.385 . S
C766 C765 1.374 1_455 S
C767 C764 1.499 . S
C767 C768 1.373 1_455 S
C767 C769 1.343 1_565 S
C768 H741 0.950 . S
C768 C754 1.422 1_556 S
C768 C767 1.373 1_655 S
C769 C753 1.422 1_556 S
C769 C767 1.343 1_545 S
C769 C770 1.532 . S
C770 C769 1.532 . S
C770 C771 1.397 . S
C770 C775 1.363 . S
C771 H742 0.950 1_545 S
C771 C770 1.397 . S
C771 C772 1.334 . S
C772 H743 0.950 . S
C772 C771 1.334 . S
C772 C773 1.287 . S
C773 C772 1.287 . S
C773 C774 1.524 . S
C773 H776 0.999 . S
C774 H744 0.950 . S
C774 C773 1.524 . S
C774 C775 1.415 . S
C775 H745 0.950 1_556 S
C775 C770 1.363 . S
C775 C774 1.415 . S
H776 C773 0.999 . S
H777 C758 0.913 . S
H778 C796 0.951 . S
H779 C798 0.951 . S
H780 C800 0.950 . S
H781 C801 0.950 1_655 S
H782 C803 0.950 . S
H783 C806 0.979 1_655 S
H784 C807 0.950 1_545 S
H785 C809 0.950 . S
H786 C810 0.950 . S
H787 C811 0.951 . S
H788 C813 0.951 . S
H789 C815 0.950 . S
H790 C816 0.950 1_455 S
H791 C818 0.950 . S
H792 C821 0.979 1_455 S
H793 C822 0.950 1_565 S
H794 C824 0.950 . S
H795 C825 0.950 . S
C796 H778 0.951 . S
C796 C797 1.366 . S
C796 C798 1.388 . S
C797 C796 1.366 . S
C797 C801 1.385 . S
C798 H779 0.951 . S
C798 C796 1.388 . S
C798 C799 1.366 . S
C799 C798 1.366 . S
C799 C800 1.414 1_455 S
C799 C802 1.499 . S
C800 H780 0.950 . S
C800 C799 1.414 1_655 S
C800 C801 1.374 1_655 S
C801 H781 0.950 1_455 S
C801 C797 1.385 . S
C801 C800 1.374 1_455 S
C802 C799 1.499 . S
C802 C803 1.373 1_455 S
C802 C804 1.389 1_545 S
C803 H782 0.950 . S
C803 C802 1.373 1_655 S
C803 C819 1.377 . S
C804 C802 1.389 1_565 S
C804 C805 1.524 . S
C804 C818 1.377 . S
C805 C804 1.524 . S
C805 C806 1.379 1_565 S
C805 C810 1.363 . S
C806 H783 0.979 1_455 S
C806 C805 1.379 1_545 S
C806 C807 1.325 1_545 S
C807 H784 0.950 1_565 S
C807 C806 1.325 1_565 S
C807 C808 1.287 . S
C808 C807 1.287 . S
C808 C809 1.524 . S
C808 H827 0.913 . S
C809 H785 0.950 . S
C809 C808 1.524 . S
C809 C810 1.415 . S
C810 H786 0.950 . S
C810 C805 1.363 . S
C810 C809 1.415 . S
C811 H787 0.951 . S
C811 C812 1.366 . S
C811 C813 1.388 . S
C812 C811 1.366 . S
C812 C816 1.385 . S
C813 H788 0.951 . S
C813 C811 1.388 . S
C813 C814 1.366 . S
C814 C813 1.366 . S
C814 C815 1.414 1_655 S
C814 C817 1.499 . S
C815 H789 0.950 . S
C815 C814 1.414 1_455 S
C815 C816 1.374 1_455 S
C816 H790 0.950 1_655 S
C816 C812 1.385 . S
C816 C815 1.374 1_655 S
C817 C814 1.499 . S
C817 C818 1.373 1_655 S
C817 C819 1.389 1_565 S
C818 H791 0.950 . S
C818 C804 1.377 . S
C818 C817 1.373 1_455 S
C819 C803 1.377 . S
C819 C817 1.389 1_545 S
C819 C820 1.524 . S
C820 C819 1.524 . S
C820 C821 1.379 1_545 S
C820 C825 1.363 . S
C821 H792 0.979 1_655 S
C821 C820 1.379 1_565 S
C821 C822 1.325 1_565 S
C822 H793 0.950 1_545 S
C822 C821 1.325 1_545 S
C822 C823 1.287 . S
C823 C822 1.287 . S
C823 C824 1.524 . S
C823 H826 0.999 . S
C824 H794 0.950 . S
C824 C823 1.524 . S
C824 C825 1.415 . S
C825 H795 0.950 . S
C825 C820 1.363 . S
C825 C824 1.415 . S
H826 C823 0.999 . S
H827 C808 0.913 . S
H828 C846 0.951 . S
H829 C848 0.951 . S
H830 C850 0.950 . S
H831 C851 0.950 . S
H832 C853 0.951 . S
H833 C856 0.950 . S
H834 C857 0.950 . S
H835 C859 0.950 . S
H836 C860 0.950 . S
H837 C861 0.951 . S
H838 C863 0.951 . S
H839 C865 0.950 . S
H840 C866 0.950 . S
H841 C868 0.951 . S
H842 C871 0.950 . S
H843 C872 0.950 . S
H844 C874 0.950 . S
H845 C875 0.950 . S
C846 H828 0.951 . S
C846 C847 1.366 . S
C846 C848 1.388 . S
C847 C846 1.366 . S
C847 C851 1.385 . S
C848 H829 0.951 . S
C848 C846 1.388 . S
C848 C849 1.366 . S
C849 C848 1.366 . S
C849 C850 1.414 . S
C849 C852 1.499 . S
C850 H830 0.950 . S
C850 C849 1.414 . S
C850 C851 1.374 . S
C851 H831 0.950 . S
C851 C847 1.385 . S
C851 C850 1.374 . S
C852 C849 1.499 . S
C852 C853 1.380 . S
C852 C854 1.389 . S
C853 H832 0.951 . S
C853 C852 1.380 . S
C853 C869 1.371 1_554 S
C854 C852 1.389 . S
C854 C855 1.524 . S
C854 C868 1.371 1_554 S
C855 C854 1.524 . S
C855 C856 1.397 . S
C855 C860 1.363 . S
C856 H833 0.950 . S
C856 C855 1.397 . S
C856 C857 1.334 . S
C857 H834 0.950 . S
C857 C856 1.334 . S
C857 C858 1.287 . S
C858 C857 1.287 . S
C858 C859 1.524 . S
C858 H877 0.913 . S
C859 H835 0.950 . S
C859 C858 1.524 . S
C859 C860 1.415 . S
C860 H836 0.950 . S
C860 C855 1.363 . S
C860 C859 1.415 . S
C861 H837 0.951 . S
C861 C862 1.366 . S
C861 C863 1.388 . S
C862 C861 1.366 . S
C862 C866 1.385 . S
C863 H838 0.951 . S
C863 C861 1.388 . S
C863 C864 1.366 . S
C864 C863 1.366 . S
C864 C865 1.414 . S
C864 C867 1.499 . S
C865 H839 0.950 . S
C865 C864 1.414 . S
C865 C866 1.374 . S
C866 H840 0.950 . S
C866 C862 1.385 . S
C866 C865 1.374 . S
C867 C864 1.499 . S
C867 C868 1.380 . S
C867 C869 1.389 . S
C868 H841 0.951 . S
C868 C854 1.371 1_556 S
C868 C867 1.380 . S
C869 C853 1.371 1_556 S
C869 C867 1.389 . S
C869 C870 1.524 . S
C870 C869 1.524 . S
C870 C871 1.397 . S
C870 C875 1.363 . S
C871 H842 0.950 . S
C871 C870 1.397 . S
C871 C872 1.334 . S
C872 H843 0.950 . S
C872 C871 1.334 . S
C872 C873 1.287 . S
C873 C872 1.287 . S
C873 C874 1.524 . S
C873 H876 0.999 . S
C874 H844 0.950 . S
C874 C873 1.524 . S
C874 C875 1.415 . S
C875 H845 0.950 . S
C875 C870 1.363 . S
C875 C874 1.415 . S
H876 C873 0.999 . S
H877 C858 0.913 . S
H878 C896 0.951 . S
H879 C898 0.951 . S
H880 C900 0.950 . S
H881 C901 0.950 . S
H882 C903 0.950 . S
H883 C906 0.950 . S
H884 C907 0.950 . S
H885 C909 0.950 . S
H886 C910 0.950 . S
H887 C911 0.951 . S
H888 C913 0.951 . S
H889 C915 0.950 . S
H890 C916 0.950 . S
H891 C918 0.950 . S
H892 C921 0.950 . S
H893 C922 0.950 . S
H894 C924 0.950 . S
H895 C925 0.950 . S
C896 H878 0.951 . S
C896 C897 1.366 . S
C896 C898 1.388 . S
C897 C896 1.366 . S
C897 C901 1.385 . S
C898 H879 0.951 . S
C898 C896 1.388 . S
C898 C899 1.366 . S
C899 C898 1.366 . S
C899 C900 1.414 . S
C899 C902 1.499 . S
C900 H880 0.950 . S
C900 C899 1.414 . S
C900 C901 1.374 . S
C901 H881 0.950 . S
C901 C897 1.385 . S
C901 C900 1.374 . S
C902 C899 1.499 . S
C902 C903 1.373 . S
C902 C904 1.389 . S
C903 H882 0.950 . S
C903 C902 1.373 . S
C903 C919 1.377 . S
C904 C902 1.389 . S
C904 C905 1.524 . S
C904 C918 1.377 . S
C905 C904 1.524 . S
C905 C906 1.397 . S
C905 C910 1.363 . S
C906 H883 0.950 . S
C906 C905 1.397 . S
C906 C907 1.334 . S
C907 H884 0.950 . S
C907 C906 1.334 . S
C907 C908 1.287 . S
C908 C907 1.287 . S
C908 C909 1.524 . S
C908 H927 0.913 . S
C909 H885 0.950 . S
C909 C908 1.524 . S
C909 C910 1.415 . S
C910 H886 0.950 . S
C910 C905 1.363 . S
C910 C909 1.415 . S
C911 H887 0.951 . S
C911 C912 1.366 . S
C911 C913 1.388 . S
C912 C911 1.366 . S
C912 C916 1.385 . S
C913 H888 0.951 . S
C913 C911 1.388 . S
C913 C914 1.366 . S
C914 C913 1.366 . S
C914 C915 1.414 . S
C914 C917 1.499 . S
C915 H889 0.950 . S
C915 C914 1.414 . S
C915 C916 1.374 . S
C916 H890 0.950 . S
C916 C912 1.385 . S
C916 C915 1.374 . S
C917 C914 1.499 . S
C917 C918 1.373 . S
C917 C919 1.389 . S
C918 H891 0.950 . S
C918 C904 1.377 . S
C918 C917 1.373 . S
C919 C903 1.377 . S
C919 C917 1.389 . S
C919 C920 1.524 . S
C920 C919 1.524 . S
C920 C921 1.397 . S
C920 C925 1.363 . S
C921 H892 0.950 . S
C921 C920 1.397 . S
C921 C922 1.334 . S
C922 H893 0.950 . S
C922 C921 1.334 . S
C922 C923 1.287 . S
C923 C922 1.287 . S
C923 C924 1.524 . S
C923 H926 0.999 . S
C924 H894 0.950 . S
C924 C923 1.524 . S
C924 C925 1.415 . S
C925 H895 0.950 . S
C925 C920 1.363 . S
C925 C924 1.415 . S
H926 C923 0.999 . S
H927 C908 0.913 . S
C147 C27 1.194 . S
C162 C8 1.194 . S
C197 C55 1.193 . S
C212 C63 1.193 . S
C247 C91 1.194 . S
C262 C72 1.194 . S
C297 C127 1.194 . S
C312 C119 1.194 . S
C347 C24 1.177 . S
C362 C17 1.177 . S
C397 C40 1.176 . S
C412 C59 1.176 . S
C447 C81 1.176 . S
C462 C88 1.176 . S
C497 C123 1.177 . S
C512 C104 1.177 . S
C547 C120 1.653 . S
C562 C22 1.653 . S
C597 C126 1.629 . S
C612 C23 1.629 . S
C647 C86 1.653 . S
C662 C56 1.653 . S
C697 C87 1.628 . S
C712 C62 1.628 . S
C747 C30 1.564 . S
C762 C49 1.564 . S
C797 C31 1.704 . S
C812 C54 1.704 . S
C847 C94 1.564 . S
C862 C113 1.564 . S
C897 C118 1.705 . S
C912 C95 1.705 . S
