# Generated by pormake.
# Topology npo, (4)-cn, num edge types: 1
# Building blocks:
#     Node 0, Type 0, BuildingBlock: ICAMEG_clean_sbu_1, # of connection points: 4
#     Node 1, Type 0, BuildingBlock: ICAMEG_clean_sbu_1, # of connection points: 4
#     Node 2, Type 0, BuildingBlock: ICAMEG_clean_sbu_1, # of connection points: 4
#     Node 3, Type 0, BuildingBlock: ICAMEG_clean_sbu_1, # of connection points: 4
#     Node 4, Type 0, BuildingBlock: ICAMEG_clean_sbu_1, # of connection points: 4
#     Node 5, Type 0, BuildingBlock: ICAMEG_clean_sbu_1, # of connection points: 4
#     Edge 6, Type (0, 0), BuildingBlock: AJUNOK_clean_linker_0, # of connection points: 2
#     Edge 7, Type (0, 0), BuildingBlock: AJUNOK_clean_linker_0, # of connection points: 2
#     Edge 8, Type (0, 0), BuildingBlock: AJUNOK_clean_linker_0, # of connection points: 2
#     Edge 9, Type (0, 0), BuildingBlock: AJUNOK_clean_linker_0, # of connection points: 2
#     Edge 10, Type (0, 0), BuildingBlock: AJUNOK_clean_linker_0, # of connection points: 2
#     Edge 11, Type (0, 0), BuildingBlock: AJUNOK_clean_linker_0, # of connection points: 2
#     Edge 12, Type (0, 0), BuildingBlock: AJUNOK_clean_linker_0, # of connection points: 2
#     Edge 13, Type (0, 0), BuildingBlock: AJUNOK_clean_linker_0, # of connection points: 2
#     Edge 14, Type (0, 0), BuildingBlock: AJUNOK_clean_linker_0, # of connection points: 2
#     Edge 15, Type (0, 0), BuildingBlock: AJUNOK_clean_linker_0, # of connection points: 2
#     Edge 16, Type (0, 0), BuildingBlock: AJUNOK_clean_linker_0, # of connection points: 2
#     Edge 17, Type (0, 0), BuildingBlock: AJUNOK_clean_linker_0, # of connection points: 2
# Relax obj value: 0.238
# Max RMSD: 0.246
# Mean RMSD: 0.246
data_MOF--net-npo--node1-ICAMEG_clean_sbu_1--edge1-AJUNOK_clean_linker_0
_symmetry_space_group_name_H-M    P1
_symmetry_Int_Tables_number       1
_symmetry_cell_setting            triclinic
loop_
_symmetry_equiv_pos_as_xyz
'x, y, z'
_cell_length_a     34.385708
_cell_length_b     34.474234
_cell_length_c     19.483805
_cell_angle_alpha  90.214479
_cell_angle_beta   89.956306
_cell_angle_gamma 120.15975
loop_
_atom_site_label
_atom_site_type_symbol
_atom_site_fract_x
_atom_site_fract_y
_atom_site_fract_z
_atom_type_partial_charge
Co0 Co 0.5858 0.14529 0.16815 0.0
Co1 Co 0.57488 0.12746 0.34352 0.0
O2 O 0.56777 0.105 0.24813 0.0
C3 C 0.49701 0.06429 0.1231 0.0
O4 O 0.48593 0.05038 0.18647 0.0
C5 C 0.61643 0.08443 0.42218 0.0
O6 O 0.6492 0.12494 0.43751 0.0
O7 O 0.64056 0.17068 0.32758 0.0
O8 O 0.63867 0.19164 0.21914 0.0
H9 H 0.54733 0.11217 0.5995 0.0
H10 H 0.56918 0.05247 0.15117 0.0
O11 O 0.53364 0.1004 0.11063 0.0
H12 H 0.72581 0.15125 0.07685 0.0
H13 H 0.61315 0.18554 0.91727 0.0
H14 H 0.62158 0.24309 0.15207 0.0
H15 H 0.68004 0.18332 0.11783 0.0
H16 H 0.59062 0.13454 1.01636 0.0
O17 O 0.588 0.07967 0.37579 0.0
H18 H 0.53919 0.08442 0.48078 0.0
H19 H 0.62347 0.21735 0.40933 0.0
H20 H 0.64492 0.2953 0.05452 0.0
H21 H 0.61348 0.01901 0.1094 0.0
H22 H 0.64069 0.2666 0.93601 0.0
H23 H 0.69243 0.06851 0.07187 0.0
O24 O 0.54969 0.17237 0.2022 0.0
H25 H 0.43418 0.97622 0.33576 0.0
H26 H 0.49757 0.1353 0.39844 0.0
H27 H 0.41678 0.08273 0.41564 0.0
H28 H 0.38457 1.00236 0.38479 0.0
H29 H 0.51463 0.0303 0.31781 0.0
H30 H 0.63246 0.24655 0.52726 0.0
H31 H 0.59424 0.1938 0.6235 0.0
O32 O 0.56194 0.17534 0.31553 0.0
C33 C 0.6585 0.19658 0.27611 0.0
C34 C 0.56416 0.13552 0.55803 0.0
C35 C 0.61201 0.21089 0.51753 0.0
N36 N 0.58099 0.14922 0.43775 0.0
C37 C 0.55965 0.12002 0.49055 0.0
C38 C 0.60688 0.19414 0.45074 0.0
C39 C 0.59051 0.18129 0.57147 0.0
C40 C 0.60329 0.07426 0.1342 0.0
N41 N 0.62167 0.11979 0.13594 0.0
C42 C 0.62832 0.05511 0.11095 0.0
C43 C 0.67264 0.0829 0.08999 0.0
C44 C 0.69138 0.12932 0.09278 0.0
C45 C 0.6653 0.14728 0.11619 0.0
C46 C 0.61502 0.19843 0.96864 0.0
C47 C 0.61959 0.23025 0.10073 0.0
C48 C 0.60205 0.16965 0.02498 0.0
N49 N 0.60431 0.18565 0.09006 0.0
C50 C 0.63289 0.26003 0.04565 0.0
C51 C 0.6305 0.24391 0.97918 0.0
C52 C 0.54976 0.18769 0.26221 0.0
C53 C 0.44781 0.01113 0.3496 0.0
C54 C 0.48381 0.10069 0.38374 0.0
C55 C 0.43802 0.07092 0.39414 0.0
C56 C 0.41999 0.02582 0.37696 0.0
N57 N 0.511 0.08604 0.35721 0.0
C58 C 0.49344 0.04189 0.33992 0.0
Co59 Co 0.42851 0.56485 0.65916 0.0
Co60 Co 0.44263 0.57737 0.83205 0.0
O61 O 0.44632 0.54925 0.74577 0.0
C62 C 0.4095 0.46962 0.63618 0.0
O63 O 0.41965 0.46602 0.69984 0.0
C64 C 0.52587 0.59415 0.9079 0.0
O65 O 0.5391 0.63708 0.91166 0.0
O66 O 0.4865 0.63779 0.79343 0.0
O67 O 0.45119 0.6276 0.69281 0.0
H68 H 0.43562 0.69731 0.96951 0.0
H69 H 0.49454 0.53241 0.66865 0.0
O70 O 0.40639 0.50343 0.61807 0.0
H71 H 0.56856 0.66733 0.52428 0.0
H72 H 0.40746 0.56581 0.40288 0.0
H73 H 0.38018 0.61362 0.62788 0.0
H74 H 0.49304 0.64135 0.57069 0.0
H75 H 0.4344 0.54839 0.50912 0.0
O76 O 0.49154 0.56797 0.87168 0.0
H77 H 0.43618 0.65788 0.86463 0.0
H78 H 0.44031 0.55734 0.9832 0.0
H79 H 0.35297 0.63199 0.52288 0.0
H80 H 0.56937 0.55638 0.62168 0.0
H81 H 0.36658 0.60808 0.40931 0.0
H82 H 0.60733 0.62465 0.54946 0.0
O83 O 0.36771 0.54485 0.69998 0.0
H84 H 0.37825 0.41206 0.86994 0.0
H85 H 0.35417 0.5402 0.90455 0.0
H86 H 0.29665 0.46512 0.94388 0.0
H87 H 0.30852 0.40037 0.92684 0.0
H88 H 0.43506 0.48782 0.83166 0.0
H89 H 0.43911 0.59509 0.08974 0.0
H90 H 0.43683 0.6659 0.08349 0.0
O91 O 0.39255 0.58503 0.79656 0.0
C92 C 0.47833 0.65337 0.73898 0.0
C93 C 0.43681 0.66664 0.97312 0.0
C94 C 0.43896 0.60941 0.04047 0.0
N95 N 0.43996 0.60601 0.91723 0.0
C96 C 0.43763 0.64436 0.91367 0.0
C97 C 0.44004 0.58826 0.97981 0.0
C98 C 0.43757 0.64904 0.03696 0.0
C99 C 0.50986 0.56141 0.636 0.0
N100 N 0.48828 0.58462 0.62134 0.0
C101 C 0.55271 0.57513 0.60999 0.0
C102 C 0.57401 0.61342 0.56949 0.0
C103 C 0.55231 0.63742 0.55553 0.0
C104 C 0.50943 0.62258 0.58227 0.0
C105 C 0.40134 0.57644 0.45207 0.0
C106 C 0.38632 0.6031 0.57872 0.0
C107 C 0.41635 0.5665 0.51248 0.0
N108 N 0.40904 0.58007 0.57482 0.0
C109 C 0.37079 0.6136 0.5194 0.0
C110 C 0.37842 0.60016 0.4557 0.0
C111 C 0.36133 0.56245 0.75358 0.0
C112 C 0.3727 0.44001 0.87777 0.0
C113 C 0.35972 0.51227 0.89699 0.0
C114 C 0.32696 0.46979 0.91938 0.0
C115 C 0.33361 0.43348 0.90972 0.0
N116 N 0.39823 0.51854 0.86621 0.0
C117 C 0.40472 0.48298 0.85606 0.0
Co118 Co 0.87676 0.45055 0.35529 0.0
Co119 Co 0.87951 0.44874 0.17837 0.0
O120 O 0.91096 0.46415 0.26814 0.0
C121 C 0.96498 0.53712 0.38874 0.0
O122 O 0.98077 0.54158 0.32614 0.0
C123 C 0.96048 0.43657 0.15203 0.0
O124 O 0.97409 0.44467 0.21611 0.0
O125 O 0.8418 0.38469 0.20761 0.0
O126 O 0.82572 0.39532 0.31496 0.0
H127 H 0.74129 0.37559 0.02969 0.0
H128 H 0.96981 0.46406 0.35447 0.0
O129 O 0.9258 0.50512 0.40327 0.0
H130 H 0.87401 0.31465 0.45519 0.0
H131 H 0.85725 0.4386 0.6124 0.0
H132 H 0.78112 0.41814 0.38991 0.0
H133 H 0.84107 0.35999 0.41722 0.0
H134 H 0.89964 0.45407 0.50433 0.0
O135 O 0.92377 0.43435 0.13452 0.0
H136 H 0.78332 0.397 0.13875 0.0
H137 H 0.90702 0.46523 0.03021 0.0
H138 H 0.73735 0.4018 0.49664 0.0
H139 H 1.00419 0.42027 0.39284 0.0
H140 H 0.77542 0.41211 0.60909 0.0
H141 H 0.95623 0.34489 0.44375 0.0
O142 O 0.84811 0.48559 0.32423 0.0
H143 H 0.02451 0.59598 0.15453 0.0
H144 H 0.86247 0.51434 0.10298 0.0
H145 H 0.90875 0.59257 0.06547 0.0
H146 H 0.9907 0.63393 0.09041 0.0
H147 H 0.97669 0.51822 0.19245 0.0
H148 H 0.86628 0.44399 0.92002 0.0
H149 H 0.78279 0.39912 0.91924 0.0
O150 O 0.83341 0.46284 0.21473 0.0
C151 C 0.81848 0.37076 0.26235 0.0
C152 C 0.77767 0.39525 0.02934 0.0
C153 C 0.84781 0.43359 0.96781 0.0
N154 N 0.84761 0.43266 0.09111 0.0
C155 C 0.80169 0.40759 0.09099 0.0
C156 C 0.87071 0.44535 0.03045 0.0
C157 C 0.80097 0.40843 0.9674 0.0
C158 C 0.94871 0.43176 0.37744 0.0
N159 N 0.90357 0.41527 0.3848 0.0
C160 C 0.96837 0.40687 0.39867 0.0
C161 C 0.94144 0.36455 0.42708 0.0
C162 C 0.89533 0.34757 0.4335 0.0
C163 C 0.87687 0.37345 0.41176 0.0
C164 C 0.84025 0.43402 0.56375 0.0
C165 C 0.79794 0.42257 0.43844 0.0
C166 C 0.86414 0.44294 0.50229 0.0
N167 N 0.84295 0.43724 0.44054 0.0
C168 C 0.77297 0.41331 0.49882 0.0
C169 C 0.79436 0.41914 0.56186 0.0
C170 C 0.82698 0.48057 0.26787 0.0
C171 C 0.98887 0.57833 0.14316 0.0
C172 C 0.89768 0.53214 0.1154 0.0
C173 C 0.92394 0.57647 0.09343 0.0
C174 C 0.96989 0.59962 0.10732 0.0
N175 N 0.91648 0.51116 0.14994 0.0
C176 C 0.96149 0.53398 0.16432 0.0
Co177 Co 0.44965 0.86657 0.84852 0.0
Co178 Co 0.44452 0.87101 0.67305 0.0
O179 O 0.46049 0.90135 0.76317 0.0
C180 C 0.4348 0.94371 0.88919 0.0
O181 O 0.43733 0.95677 0.82533 0.0
C182 C 0.53746 0.94822 0.63418 0.0
O183 O 0.55774 0.94124 0.68571 0.0
O184 O 0.48356 0.84481 0.69157 0.0
O185 O 0.46438 0.82382 0.801 0.0
H186 H 0.34409 0.7604 0.48908 0.0
H187 H 0.51679 0.96453 0.84025 0.0
O188 O 0.43579 0.90809 0.90276 0.0
H189 H 0.59995 0.89494 0.93475 0.0
H190 H 0.45517 0.84455 0.10341 0.0
H191 H 0.40068 0.76925 0.87956 0.0
H192 H 0.51969 0.84864 0.90531 0.0
H193 H 0.47286 0.88882 0.99715 0.0
O194 O 0.49499 0.92476 0.62712 0.0
H195 H 0.35963 0.79641 0.60076 0.0
H196 H 0.499 0.87171 0.55406 0.0
H197 H 0.38148 0.72385 0.98483 0.0
H198 H 0.59663 0.01211 0.87011 0.0
H199 H 0.40919 0.76142 0.09764 0.0
H200 H 0.63893 0.97744 0.91785 0.0
O201 O 0.38446 0.82796 0.82338 0.0
H202 H 0.41674 1.0003 0.6447 0.0
H203 H 0.34241 0.83624 0.65981 0.0
H204 H 0.29743 0.871 0.63825 0.0
H205 H 0.33409 0.95378 0.62967 0.0
H206 H 0.46119 0.96444 0.66629 0.0
H207 H 0.48445 0.83639 0.44094 0.0
H208 H 0.40644 0.78027 0.40698 0.0
O209 O 0.39352 0.81603 0.71327 0.0
C210 C 0.48169 0.82179 0.74408 0.0
C211 C 0.37804 0.78611 0.50211 0.0
C212 C 0.45667 0.82867 0.47511 0.0
N213 N 0.42989 0.84064 0.58318 0.0
C214 C 0.38717 0.80784 0.5657 0.0
C215 C 0.46454 0.84956 0.53923 0.0
C216 C 0.41301 0.79705 0.45624 0.0
C217 C 0.53449 0.94904 0.86181 0.0
N218 N 0.51303 0.90373 0.87211 0.0
C219 C 0.57995 0.97624 0.87823 0.0
C220 C 0.60369 0.95677 0.90485 0.0
C221 C 0.58185 0.91051 0.91432 0.0
C222 C 0.53636 0.88439 0.89731 0.0
C223 C 0.44308 0.82776 0.05449 0.0
C224 C 0.41283 0.78594 0.92844 0.0
C225 C 0.45293 0.85265 0.99409 0.0
N226 N 0.43796 0.83168 0.932 0.0
C227 C 0.4019 0.76001 0.98787 0.0
C228 C 0.41731 0.78113 0.05122 0.0
C229 C 0.37023 0.80532 0.76783 0.0
C230 C 0.40047 0.96407 0.64571 0.0
C231 C 0.35999 0.87184 0.65286 0.0
C232 C 0.33364 0.89162 0.64207 0.0
C233 C 0.35414 0.93802 0.63764 0.0
N234 N 0.40597 0.89727 0.65715 0.0
C235 C 0.42574 0.94314 0.65645 0.0
Co236 Co 0.56718 0.43491 0.1958 0.0
Co237 Co 0.57572 0.43807 0.37178 0.0
O238 O 0.55259 0.45001 0.28665 0.0
C239 C 0.59266 0.51719 0.11222 0.0
O240 O 0.63245 0.52167 0.10178 0.0
C241 C 0.4807 0.41604 0.41065 0.0
O242 O 0.46814 0.41283 0.34638 0.0
O243 O 0.54873 0.37356 0.34475 0.0
O244 O 0.56732 0.38132 0.23353 0.0
H245 H 0.65292 0.37167 0.50552 0.0
H246 H 0.48864 0.44738 0.21373 0.0
O247 O 0.56531 0.48756 0.15416 0.0
H248 H 0.42654 0.29512 0.11749 0.0
H249 H 0.55392 0.41028 0.93858 0.0
H250 H 0.6302 0.40533 0.14953 0.0
H251 H 0.50784 0.34251 0.13861 0.0
H252 H 0.53434 0.42898 0.05049 0.0
O253 O 0.5201 0.42398 0.42536 0.0
H254 H 0.62447 0.38947 0.40138 0.0
H255 H 0.57628 0.45987 0.52099 0.0
H256 H 0.65045 0.3856 0.03892 0.0
H257 H 0.40705 0.40129 0.19293 0.0
H258 H 0.61243 0.38827 0.93217 0.0
H259 H 0.37547 0.32454 0.14437 0.0
O260 O 0.6331 0.47257 0.21624 0.0
H261 H 0.57499 0.58267 0.40118 0.0
H262 H 0.66493 0.50861 0.42668 0.0
H263 H 0.69871 0.58864 0.45642 0.0
H264 H 0.65362 0.62624 0.44374 0.0
H265 H 0.54293 0.50293 0.3706 0.0
H266 H 0.60431 0.44283 0.62644 0.0
H267 H 0.6431 0.39856 0.61912 0.0
O268 O 0.63316 0.4526 0.32535 0.0
C269 C 0.55382 0.35794 0.28797 0.0
C270 C 0.63629 0.39118 0.50938 0.0
C271 C 0.60886 0.43098 0.57724 0.0
N272 N 0.59871 0.42571 0.45493 0.0
C273 C 0.62008 0.40138 0.45054 0.0
C274 C 0.59292 0.44039 0.51733 0.0
C275 C 0.63066 0.40618 0.57309 0.0
C276 C 0.47518 0.41402 0.19261 0.0
N277 N 0.50313 0.39773 0.17747 0.0
C278 C 0.42893 0.38806 0.18097 0.0
C279 C 0.41123 0.34502 0.15377 0.0
C280 C 0.43986 0.32849 0.13872 0.0
C281 C 0.48592 0.35542 0.15114 0.0
C282 C 0.57113 0.40948 0.98458 0.0
C283 C 0.61366 0.40696 0.10342 0.0
C284 C 0.56044 0.42056 0.04813 0.0
N285 N 0.58197 0.41978 0.10658 0.0
C286 C 0.6252 0.39555 0.04085 0.0
C287 C 0.60386 0.39704 0.98103 0.0
C288 C 0.65355 0.47021 0.26948 0.0
C289 C 0.595 0.56667 0.40682 0.0
C290 C 0.64522 0.52472 0.42047 0.0
C291 C 0.66445 0.57005 0.43772 0.0
C292 C 0.63911 0.5911 0.43072 0.0
N293 N 0.60192 0.50092 0.39705 0.0
C294 C 0.57694 0.52142 0.38991 0.0
Co295 Co 0.13225 0.54925 0.69235 0.0
Co296 Co 0.13271 0.58972 0.85379 0.0
O297 O 0.10019 0.55429 0.77234 0.0
C298 C 0.07626 0.58651 0.63122 0.0
O299 O 0.06557 0.5947 0.69212 0.0
C300 C 0.07293 0.49598 0.91264 0.0
O301 O 0.0608 0.47736 0.85163 0.0
O302 O 0.18255 0.575 0.84228 0.0
O303 O 0.16147 0.52661 0.75476 0.0
H304 H 0.26869 0.70602 0.98275 0.0
H305 H 0.03204 0.50521 0.69117 0.0
O306 O 0.10298 0.57119 0.62561 0.0
H307 H 0.06504 0.38323 0.65362 0.0
H308 H 0.14729 0.50824 0.44887 0.0
H309 H 0.22589 0.56923 0.66821 0.0
H310 H 0.12667 0.4611 0.67006 0.0
H311 H 0.10696 0.51551 0.54816 0.0
O312 O 0.10034 0.53789 0.91861 0.0
H313 H 0.22726 0.66041 0.88243 0.0
H314 H 0.10614 0.59756 0.99711 0.0
H315 H 0.26743 0.56206 0.57082 0.0
H316 H 0.96956 0.42811 0.67385 0.0
H317 H 0.22811 0.53146 0.45981 0.0
H318 H 0.98581 0.36637 0.65482 0.0
O319 O 0.18443 0.61285 0.70529 0.0
H320 H 0.97257 0.55625 0.86909 0.0
H321 H 0.13219 0.67495 0.87594 0.0
H322 H 0.0733 0.69511 0.8913 0.0
H323 H 0.99283 0.63546 0.88859 0.0
H324 H 0.0324 0.53773 0.85293 0.0
H325 H 0.14618 0.64212 0.0991 0.0
H326 H 0.22808 0.69695 0.09242 0.0
O327 O 0.16594 0.64224 0.79317 0.0
C328 C 0.18805 0.5479 0.80377 0.0
C329 C 0.23302 0.6822 0.98645 0.0
C330 C 0.16431 0.64633 0.05171 0.0
N331 N 0.16447 0.62604 0.93358 0.0
C332 C 0.20942 0.65624 0.92962 0.0
C333 C 0.14186 0.621 0.99374 0.0
C334 C 0.21023 0.67709 0.04792 0.0
C335 C 0.03959 0.47885 0.6818 0.0
N336 N 0.08313 0.48803 0.67992 0.0
C337 C 1.00396 0.43508 0.67258 0.0
C338 C 0.01309 0.40045 0.66206 0.0
C339 C 0.05753 0.40989 0.66138 0.0
C340 C 0.09229 0.45407 0.67077 0.0
C341 C 0.16483 0.52167 0.49691 0.0
C342 C 0.20848 0.55567 0.62055 0.0
C343 C 0.14221 0.52607 0.55334 0.0
N344 N 0.16407 0.54286 0.61435 0.0
C345 C 0.23221 0.55178 0.56532 0.0
C346 C 0.21015 0.53466 0.50308 0.0
C347 C 0.1921 0.64607 0.74426 0.0
C348 C 0.00752 0.5825 0.87094 0.0
C349 C 0.09724 0.64881 0.87442 0.0
C350 C 0.06405 0.66043 0.88326 0.0
C351 C 0.01891 0.62696 0.88173 0.0
N352 N 0.08585 0.60503 0.86494 0.0
C353 C 0.04163 0.57215 0.86231 0.0
C354 C 0.54435 0.25162 0.21213 0.0
C355 C 0.54234 0.22657 0.27004 0.0
C356 C 0.54699 0.2933 0.2188 0.0
C357 C 0.54646 0.31154 0.28363 0.0
H358 H 0.54625 0.2402 0.16107 0.0
H359 H 0.55097 0.31189 0.17222 0.0
S360 S 0.53637 0.25722 0.4518 0.0
N361 N 0.53663 0.22179 0.39494 0.0
N362 N 0.54006 0.29938 0.40683 0.0
C363 C 0.54158 0.28564 0.3419 0.0
C364 C 0.53975 0.2434 0.33526 0.0
C365 C 0.27692 0.51928 0.75086 0.0
C366 C 0.31715 0.55856 0.76759 0.0
C367 C 0.23506 0.51441 0.76852 0.0
C368 C 0.23178 0.54878 0.80312 0.0
H369 H 0.27775 0.49207 0.72422 0.0
H370 H 0.20492 0.48412 0.75239 0.0
S371 S 0.3278 0.65847 0.85836 0.0
N372 N 0.35133 0.63249 0.8207 0.0
N373 N 0.27319 0.62309 0.85439 0.0
C374 C 0.27201 0.58766 0.82175 0.0
C375 C 0.31448 0.59271 0.80349 0.0
C376 C 0.74186 0.244 0.26383 0.0
C377 C 0.70051 0.2396 0.28389 0.0
C378 C 0.78024 0.28667 0.25483 0.0
C379 C 0.77794 0.3259 0.2648 0.0
H380 H 0.74416 0.21436 0.25303 0.0
H381 H 0.81179 0.28902 0.24044 0.0
S382 S 0.67631 0.332 0.30999 0.0
N383 N 0.65892 0.2778 0.30836 0.0
N384 N 0.73052 0.35751 0.29184 0.0
C385 C 0.73658 0.32169 0.28384 0.0
C386 C 0.69793 0.27863 0.29313 0.0
C387 C 0.50491 0.76972 0.79517 0.0
C388 C 0.49282 0.78554 0.73695 0.0
C389 C 0.50523 0.72912 0.79369 0.0
C390 C 0.49174 0.70184 0.73462 0.0
H391 H 0.51204 0.78762 0.8434 0.0
H392 H 0.51285 0.71764 0.84071 0.0
S393 S 0.46426 0.73193 0.56507 0.0
N394 N 0.47335 0.7739 0.61608 0.0
N395 N 0.47267 0.69756 0.61314 0.0
C396 C 0.48371 0.71955 0.67431 0.0
C397 C 0.48435 0.76126 0.67559 0.0
C398 C 0.72503 0.48613 0.32809 0.0
C399 C 0.70201 0.4833 0.26654 0.0
C400 C 0.76736 0.48948 0.32799 0.0
C401 C 0.78808 0.48853 0.26636 0.0
H402 H 0.70947 0.48362 0.37736 0.0
H403 H 0.78244 0.48995 0.37694 0.0
S404 S 0.7461 0.48968 0.09068 0.0
N405 N 0.70699 0.48755 0.14218 0.0
N406 N 0.78475 0.49037 0.14157 0.0
C407 C 0.76706 0.48914 0.20433 0.0
C408 C 0.72455 0.48736 0.20452 0.0
C409 C 0.28734 0.76278 0.79353 0.0
C410 C 0.32518 0.7644 0.76342 0.0
C411 C 0.24405 0.72565 0.78305 0.0
C412 C 0.23686 0.68833 0.74276 0.0
H413 H 0.29107 0.79065 0.82442 0.0
H414 H 0.21605 0.72576 0.80841 0.0
S415 S 0.326 0.67632 0.65396 0.0
N416 N 0.35326 0.72563 0.69241 0.0
N417 N 0.27246 0.65642 0.67253 0.0
C418 C 0.27473 0.69013 0.71176 0.0
C419 C 0.31867 0.72783 0.72246 0.0
C420 C 0.43443 0.95819 1.0156 0.0
C421 C 0.44146 0.97461 0.94773 0.0
C422 C 0.44945 0.98729 0.07256 0.0
C423 C 0.47244 0.03412 0.06414 0.0
H424 H 0.41909 0.92252 0.02493 0.0
H425 H 0.44547 0.97293 0.12323 0.0
S426 S 0.49323 0.09445 0.89855 0.0
N427 N 0.46838 0.04098 0.87637 0.0
N428 N 0.49627 0.09544 0.98315 0.0
C429 C 0.47651 0.0509 0.99702 0.0
C430 C 0.46105 0.02126 0.93896 0.0
C431 C 0.46464 0.41603 0.53613 0.0
C432 C 0.45318 0.41895 0.46757 0.0
C433 C 0.44676 0.42822 0.5914 0.0
C434 C 0.41675 0.44411 0.58056 0.0
H435 H 0.48959 0.40652 0.54724 0.0
H436 H 0.4593 0.42837 0.64244 0.0
S437 S 0.36924 0.45018 0.41248 0.0
N438 N 0.40499 0.43309 0.39299 0.0
N439 N 0.37106 0.45556 0.49686 0.0
C440 C 0.40168 0.4431 0.51291 0.0
C441 C 0.41991 0.43062 0.45647 0.0
C442 C 1.00173 0.43932 0.97065 0.0
C443 C 0.04761 0.47182 0.97523 0.0
C444 C 0.97441 0.42492 0.02948 0.0
C445 C 0.99193 0.44206 0.0953 0.0
H446 H 0.98598 0.4275 0.92094 0.0
H447 H 0.93864 0.40227 0.02273 0.0
S448 S 0.11167 0.52221 0.13589 0.0
N449 N 0.11063 0.51628 0.05167 0.0
N450 N 0.05941 0.48931 0.16187 0.0
C451 C 0.03859 0.47133 0.10114 0.0
C452 C 0.06634 0.48623 0.0412 0.0
C453 C 0.56276 0.00645 0.46152 0.0
C454 C 0.60298 0.04721 0.47255 0.0
C455 C 0.54303 0.97455 0.51356 0.0
C456 C 0.56286 0.98122 0.57905 0.0
H457 H 0.54487 0.99984 0.41327 0.0
H458 H 0.51108 0.9448 0.5025 0.0
S459 S 0.67097 0.07955 0.63297 0.0
N460 N 0.66409 0.0908 0.55304 0.0
N461 N 0.62707 0.02994 0.6504 0.0
C462 C 0.60463 0.02025 0.5897 0.0
C463 C 0.62467 0.05334 0.53664 0.0
C464 C 0.58856 0.59776 0.98107 0.0
C465 C 0.54358 0.57411 0.95813 0.0
C466 C 0.60443 0.57962 0.0314 0.0
C467 C 0.57532 0.53835 0.06345 0.0
H468 H 0.6118 0.63015 0.95922 0.0
H469 H 0.63963 0.59821 0.04573 0.0
S470 S 0.45387 0.46407 0.02427 0.0
N471 N 0.4708 0.50629 0.97059 0.0
N472 N 0.49865 0.47573 0.07017 0.0
C473 C 0.52998 0.51541 0.04257 0.0
C474 C 0.51467 0.53231 0.98865 0.0
C475 C 0.06806 0.58475 0.50317 0.0
C476 C 0.05055 0.58498 0.56864 0.0
C477 C 0.04127 0.57322 0.44378 0.0
C478 C 0.99565 0.56093 0.44747 0.0
H479 H 0.1022 0.59124 0.49811 0.0
H480 H 0.05561 0.57077 0.39556 0.0
S481 S 0.93485 0.56197 0.60449 0.0
N482 N 0.9858 0.5765 0.63204 0.0
N483 N 0.93555 0.55481 0.52075 0.0
C484 C 0.97868 0.56442 0.5117 0.0
C485 C 1.00607 0.57649 0.57214 0.0
loop_
_geom_bond_atom_site_label_1
_geom_bond_atom_site_label_2
_geom_bond_distance
_geom_bond_site_symmetry_2
_ccdc_geom_bond_type
Co0 O2 2.143 . S
Co0 O8 2.074 . S
Co0 O11 2.093 . S
Co0 O24 2.097 . S
Co0 N41 2.151 . S
Co0 N49 2.214 . S
Co1 O2 2.160 . S
Co1 O7 2.058 . S
Co1 O17 2.057 . S
Co1 O32 2.037 . S
Co1 N36 2.145 . S
Co1 N57 2.257 . S
O2 Co0 2.143 . S
O2 Co1 2.160 . S
C3 O4 1.278 . S
C3 O11 1.224 . S
O4 C3 1.278 . S
C5 O6 1.245 . S
C5 O17 1.232 . S
O6 C5 1.245 . S
O7 Co1 2.058 . S
O7 C33 1.269 . S
O8 Co0 2.074 . S
O8 C33 1.257 . S
H9 C34 0.930 . S
H10 C40 0.930 . S
O11 Co0 2.093 . S
O11 C3 1.224 . S
H12 C44 0.929 . S
H13 C46 0.930 . S
H14 C47 0.930 . S
H15 C45 0.929 . S
H16 C48 0.928 . S
O17 Co1 2.057 . S
O17 C5 1.232 . S
H18 C37 0.929 . S
H19 C38 0.929 . S
H20 C50 0.931 . S
H21 C42 0.929 . S
H22 C51 0.930 . S
H23 C43 0.931 . S
O24 Co0 2.097 . S
O24 C52 1.214 . S
H25 C53 0.929 . S
H26 C54 0.929 . S
H27 C55 0.930 . S
H28 C56 0.929 . S
H29 C58 0.930 . S
H30 C35 0.930 . S
H31 C39 0.930 . S
O32 Co1 2.037 . S
O32 C52 1.234 . S
C33 O7 1.269 . S
C33 O8 1.257 . S
C34 H9 0.930 . S
C34 C37 1.388 . S
C34 C39 1.418 . S
C35 H30 0.930 . S
C35 C38 1.404 . S
C35 C39 1.353 . S
N36 Co1 2.145 . S
N36 C37 1.397 . S
N36 C38 1.334 . S
C37 H18 0.929 . S
C37 C34 1.388 . S
C37 N36 1.397 . S
C38 H19 0.929 . S
C38 C35 1.404 . S
C38 N36 1.334 . S
C39 H31 0.930 . S
C39 C34 1.418 . S
C39 C35 1.353 . S
C40 H10 0.930 . S
C40 N41 1.330 . S
C40 C42 1.446 . S
N41 Co0 2.151 . S
N41 C40 1.330 . S
N41 C45 1.418 . S
C42 H21 0.929 . S
C42 C40 1.446 . S
C42 C43 1.332 . S
C43 H23 0.931 . S
C43 C42 1.332 . S
C43 C44 1.267 . S
C44 H12 0.929 . S
C44 C43 1.267 . S
C44 C45 1.251 . S
C45 H15 0.929 . S
C45 N41 1.418 . S
C45 C44 1.251 . S
C46 H13 0.930 . S
C46 C48 1.406 1_556 S
C46 C51 1.261 . S
C47 H14 0.930 . S
C47 N49 1.325 . S
C47 C50 1.357 . S
C48 H16 0.928 . S
C48 C46 1.406 1_554 S
C48 N49 1.261 . S
N49 Co0 2.214 . S
N49 C47 1.325 . S
N49 C48 1.261 . S
C50 H20 0.931 . S
C50 C47 1.357 . S
C50 C51 1.312 1_554 S
C51 H22 0.930 . S
C51 C46 1.261 . S
C51 C50 1.312 1_556 S
C52 O24 1.214 . S
C52 O32 1.234 . S
C53 H25 0.929 . S
C53 C56 1.391 . S
C53 C58 1.391 . S
C54 H26 0.929 . S
C54 C55 1.390 . S
C54 N57 1.391 . S
C55 H27 0.930 . S
C55 C54 1.390 . S
C55 C56 1.392 . S
C56 H28 0.929 . S
C56 C53 1.391 . S
C56 C55 1.392 . S
N57 Co1 2.257 . S
N57 C54 1.391 . S
N57 C58 1.388 . S
C58 H29 0.930 . S
C58 C53 1.391 . S
C58 N57 1.388 . S
Co59 O61 2.143 . S
Co59 O67 2.074 . S
Co59 O70 2.093 . S
Co59 O83 2.097 . S
Co59 N100 2.151 . S
Co59 N108 2.214 . S
Co60 O61 2.160 . S
Co60 O66 2.058 . S
Co60 O76 2.057 . S
Co60 O91 2.037 . S
Co60 N95 2.145 . S
Co60 N116 2.257 . S
O61 Co59 2.143 . S
O61 Co60 2.160 . S
C62 O63 1.278 . S
C62 O70 1.224 . S
O63 C62 1.278 . S
C64 O65 1.245 . S
C64 O76 1.232 . S
O65 C64 1.245 . S
O66 Co60 2.058 . S
O66 C92 1.269 . S
O67 Co59 2.074 . S
O67 C92 1.257 . S
H68 C93 0.930 . S
H69 C99 0.930 . S
O70 Co59 2.093 . S
O70 C62 1.224 . S
H71 C103 0.929 . S
H72 C105 0.930 . S
H73 C106 0.930 . S
H74 C104 0.929 . S
H75 C107 0.928 . S
O76 Co60 2.057 . S
O76 C64 1.232 . S
H77 C96 0.929 . S
H78 C97 0.929 . S
H79 C109 0.931 . S
H80 C101 0.929 . S
H81 C110 0.930 . S
H82 C102 0.931 . S
O83 Co59 2.097 . S
O83 C111 1.214 . S
H84 C112 0.929 . S
H85 C113 0.929 . S
H86 C114 0.930 . S
H87 C115 0.929 . S
H88 C117 0.930 . S
H89 C94 0.930 . S
H90 C98 0.930 . S
O91 Co60 2.037 . S
O91 C111 1.234 . S
C92 O66 1.269 . S
C92 O67 1.257 . S
C93 H68 0.930 . S
C93 C96 1.388 . S
C93 C98 1.418 1_556 S
C94 H89 0.930 . S
C94 C97 1.404 1_554 S
C94 C98 1.353 . S
N95 Co60 2.145 . S
N95 C96 1.397 . S
N95 C97 1.334 . S
C96 H77 0.929 . S
C96 C93 1.388 . S
C96 N95 1.397 . S
C97 H78 0.929 . S
C97 C94 1.404 1_556 S
C97 N95 1.334 . S
C98 H90 0.930 . S
C98 C93 1.418 1_554 S
C98 C94 1.353 . S
C99 H69 0.930 . S
C99 N100 1.330 . S
C99 C101 1.446 . S
N100 Co59 2.151 . S
N100 C99 1.330 . S
N100 C104 1.418 . S
C101 H80 0.929 . S
C101 C99 1.446 . S
C101 C102 1.332 . S
C102 H82 0.931 . S
C102 C101 1.332 . S
C102 C103 1.267 . S
C103 H71 0.929 . S
C103 C102 1.267 . S
C103 C104 1.251 . S
C104 H74 0.929 . S
C104 N100 1.418 . S
C104 C103 1.251 . S
C105 H72 0.930 . S
C105 C107 1.406 . S
C105 C110 1.261 . S
C106 H73 0.930 . S
C106 N108 1.325 . S
C106 C109 1.357 . S
C107 H75 0.928 . S
C107 C105 1.406 . S
C107 N108 1.261 . S
N108 Co59 2.214 . S
N108 C106 1.325 . S
N108 C107 1.261 . S
C109 H79 0.931 . S
C109 C106 1.357 . S
C109 C110 1.312 . S
C110 H81 0.930 . S
C110 C105 1.261 . S
C110 C109 1.312 . S
C111 O83 1.214 . S
C111 O91 1.234 . S
C112 H84 0.929 . S
C112 C115 1.391 . S
C112 C117 1.391 . S
C113 H85 0.929 . S
C113 C114 1.390 . S
C113 N116 1.391 . S
C114 H86 0.930 . S
C114 C113 1.390 . S
C114 C115 1.392 . S
C115 H87 0.929 . S
C115 C112 1.391 . S
C115 C114 1.392 . S
N116 Co60 2.257 . S
N116 C113 1.391 . S
N116 C117 1.388 . S
C117 H88 0.930 . S
C117 C112 1.391 . S
C117 N116 1.388 . S
Co118 O120 2.143 . S
Co118 O126 2.074 . S
Co118 O129 2.093 . S
Co118 O142 2.097 . S
Co118 N159 2.151 . S
Co118 N167 2.214 . S
Co119 O120 2.160 . S
Co119 O125 2.058 . S
Co119 O135 2.057 . S
Co119 O150 2.037 . S
Co119 N154 2.145 . S
Co119 N175 2.257 . S
O120 Co118 2.143 . S
O120 Co119 2.160 . S
C121 O122 1.278 . S
C121 O129 1.224 . S
O122 C121 1.278 . S
C123 O124 1.245 . S
C123 O135 1.232 . S
O124 C123 1.245 . S
O125 Co119 2.058 . S
O125 C151 1.269 . S
O126 Co118 2.074 . S
O126 C151 1.257 . S
H127 C152 0.930 . S
H128 C158 0.930 . S
O129 Co118 2.093 . S
O129 C121 1.224 . S
H130 C162 0.929 . S
H131 C164 0.930 . S
H132 C165 0.930 . S
H133 C163 0.929 . S
H134 C166 0.928 . S
O135 Co119 2.057 . S
O135 C123 1.232 . S
H136 C155 0.929 . S
H137 C156 0.929 . S
H138 C168 0.931 . S
H139 C160 0.929 . S
H140 C169 0.930 . S
H141 C161 0.931 . S
O142 Co118 2.097 . S
O142 C170 1.214 . S
H143 C171 0.929 . S
H144 C172 0.929 . S
H145 C173 0.930 . S
H146 C174 0.929 . S
H147 C176 0.930 . S
H148 C153 0.930 . S
H149 C157 0.930 . S
O150 Co119 2.037 . S
O150 C170 1.234 . S
C151 O125 1.269 . S
C151 O126 1.257 . S
C152 H127 0.930 . S
C152 C155 1.388 . S
C152 C157 1.418 1_554 S
C153 H148 0.930 . S
C153 C156 1.404 1_556 S
C153 C157 1.353 . S
N154 Co119 2.145 . S
N154 C155 1.397 . S
N154 C156 1.334 . S
C155 H136 0.929 . S
C155 C152 1.388 . S
C155 N154 1.397 . S
C156 H137 0.929 . S
C156 C153 1.404 1_554 S
C156 N154 1.334 . S
C157 H149 0.930 . S
C157 C152 1.418 1_556 S
C157 C153 1.353 . S
C158 H128 0.930 . S
C158 N159 1.330 . S
C158 C160 1.446 . S
N159 Co118 2.151 . S
N159 C158 1.330 . S
N159 C163 1.418 . S
C160 H139 0.929 . S
C160 C158 1.446 . S
C160 C161 1.332 . S
C161 H141 0.931 . S
C161 C160 1.332 . S
C161 C162 1.267 . S
C162 H130 0.929 . S
C162 C161 1.267 . S
C162 C163 1.251 . S
C163 H133 0.929 . S
C163 N159 1.418 . S
C163 C162 1.251 . S
C164 H131 0.930 . S
C164 C166 1.406 . S
C164 C169 1.261 . S
C165 H132 0.930 . S
C165 N167 1.325 . S
C165 C168 1.357 . S
C166 H134 0.928 . S
C166 C164 1.406 . S
C166 N167 1.261 . S
N167 Co118 2.214 . S
N167 C165 1.325 . S
N167 C166 1.261 . S
C168 H138 0.931 . S
C168 C165 1.357 . S
C168 C169 1.312 . S
C169 H140 0.930 . S
C169 C164 1.261 . S
C169 C168 1.312 . S
C170 O142 1.214 . S
C170 O150 1.234 . S
C171 H143 0.929 . S
C171 C174 1.391 . S
C171 C176 1.391 . S
C172 H144 0.929 . S
C172 C173 1.390 . S
C172 N175 1.391 . S
C173 H145 0.930 . S
C173 C172 1.390 . S
C173 C174 1.392 . S
C174 H146 0.929 . S
C174 C171 1.391 . S
C174 C173 1.392 . S
N175 Co119 2.257 . S
N175 C172 1.391 . S
N175 C176 1.388 . S
C176 H147 0.930 . S
C176 C171 1.391 . S
C176 N175 1.388 . S
Co177 O179 2.143 . S
Co177 O185 2.074 . S
Co177 O188 2.093 . S
Co177 O201 2.097 . S
Co177 N218 2.151 . S
Co177 N226 2.214 . S
Co178 O179 2.160 . S
Co178 O184 2.058 . S
Co178 O194 2.057 . S
Co178 O209 2.037 . S
Co178 N213 2.145 . S
Co178 N234 2.257 . S
O179 Co177 2.143 . S
O179 Co178 2.160 . S
C180 O181 1.278 . S
C180 O188 1.224 . S
O181 C180 1.278 . S
C182 O183 1.245 . S
C182 O194 1.232 . S
O183 C182 1.245 . S
O184 Co178 2.058 . S
O184 C210 1.269 . S
O185 Co177 2.074 . S
O185 C210 1.257 . S
H186 C211 0.930 . S
H187 C217 0.930 . S
O188 Co177 2.093 . S
O188 C180 1.224 . S
H189 C221 0.929 . S
H190 C223 0.930 . S
H191 C224 0.930 . S
H192 C222 0.929 . S
H193 C225 0.928 . S
O194 Co178 2.057 . S
O194 C182 1.232 . S
H195 C214 0.929 . S
H196 C215 0.929 . S
H197 C227 0.931 . S
H198 C219 0.929 . S
H199 C228 0.930 . S
H200 C220 0.931 . S
O201 Co177 2.097 . S
O201 C229 1.214 . S
H202 C230 0.929 . S
H203 C231 0.929 . S
H204 C232 0.930 . S
H205 C233 0.929 . S
H206 C235 0.930 . S
H207 C212 0.930 . S
H208 C216 0.930 . S
O209 Co178 2.037 . S
O209 C229 1.234 . S
C210 O184 1.269 . S
C210 O185 1.257 . S
C211 H186 0.930 . S
C211 C214 1.388 . S
C211 C216 1.418 . S
C212 H207 0.930 . S
C212 C215 1.404 . S
C212 C216 1.353 . S
N213 Co178 2.145 . S
N213 C214 1.397 . S
N213 C215 1.334 . S
C214 H195 0.929 . S
C214 C211 1.388 . S
C214 N213 1.397 . S
C215 H196 0.929 . S
C215 C212 1.404 . S
C215 N213 1.334 . S
C216 H208 0.930 . S
C216 C211 1.418 . S
C216 C212 1.353 . S
C217 H187 0.930 . S
C217 N218 1.330 . S
C217 C219 1.446 . S
N218 Co177 2.151 . S
N218 C217 1.330 . S
N218 C222 1.418 . S
C219 H198 0.929 . S
C219 C217 1.446 . S
C219 C220 1.332 . S
C220 H200 0.931 . S
C220 C219 1.332 . S
C220 C221 1.267 . S
C221 H189 0.929 . S
C221 C220 1.267 . S
C221 C222 1.251 . S
C222 H192 0.929 . S
C222 N218 1.418 . S
C222 C221 1.251 . S
C223 H190 0.930 . S
C223 C225 1.406 1_554 S
C223 C228 1.261 . S
C224 H191 0.930 . S
C224 N226 1.325 . S
C224 C227 1.357 . S
C225 H193 0.928 . S
C225 C223 1.406 1_556 S
C225 N226 1.261 . S
N226 Co177 2.214 . S
N226 C224 1.325 . S
N226 C225 1.261 . S
C227 H197 0.931 . S
C227 C224 1.357 . S
C227 C228 1.312 1_556 S
C228 H199 0.930 . S
C228 C223 1.261 . S
C228 C227 1.312 1_554 S
C229 O201 1.214 . S
C229 O209 1.234 . S
C230 H202 0.929 . S
C230 C233 1.391 . S
C230 C235 1.391 . S
C231 H203 0.929 . S
C231 C232 1.390 . S
C231 N234 1.391 . S
C232 H204 0.930 . S
C232 C231 1.390 . S
C232 C233 1.392 . S
C233 H205 0.929 . S
C233 C230 1.391 . S
C233 C232 1.392 . S
N234 Co178 2.257 . S
N234 C231 1.391 . S
N234 C235 1.388 . S
C235 H206 0.930 . S
C235 C230 1.391 . S
C235 N234 1.388 . S
Co236 O238 2.143 . S
Co236 O244 2.074 . S
Co236 O247 2.093 . S
Co236 O260 2.097 . S
Co236 N277 2.151 . S
Co236 N285 2.214 . S
Co237 O238 2.160 . S
Co237 O243 2.058 . S
Co237 O253 2.057 . S
Co237 O268 2.037 . S
Co237 N272 2.145 . S
Co237 N293 2.257 . S
O238 Co236 2.143 . S
O238 Co237 2.160 . S
C239 O240 1.278 . S
C239 O247 1.224 . S
O240 C239 1.278 . S
C241 O242 1.245 . S
C241 O253 1.232 . S
O242 C241 1.245 . S
O243 Co237 2.058 . S
O243 C269 1.269 . S
O244 Co236 2.074 . S
O244 C269 1.257 . S
H245 C270 0.930 . S
H246 C276 0.930 . S
O247 Co236 2.093 . S
O247 C239 1.224 . S
H248 C280 0.929 . S
H249 C282 0.930 . S
H250 C283 0.930 . S
H251 C281 0.929 . S
H252 C284 0.928 . S
O253 Co237 2.057 . S
O253 C241 1.232 . S
H254 C273 0.929 . S
H255 C274 0.929 . S
H256 C286 0.931 . S
H257 C278 0.929 . S
H258 C287 0.930 . S
H259 C279 0.931 . S
O260 Co236 2.097 . S
O260 C288 1.214 . S
H261 C289 0.929 . S
H262 C290 0.929 . S
H263 C291 0.930 . S
H264 C292 0.929 . S
H265 C294 0.930 . S
H266 C271 0.930 . S
H267 C275 0.930 . S
O268 Co237 2.037 . S
O268 C288 1.234 . S
C269 O243 1.269 . S
C269 O244 1.257 . S
C270 H245 0.930 . S
C270 C273 1.388 . S
C270 C275 1.418 . S
C271 H266 0.930 . S
C271 C274 1.404 . S
C271 C275 1.353 . S
N272 Co237 2.145 . S
N272 C273 1.397 . S
N272 C274 1.334 . S
C273 H254 0.929 . S
C273 C270 1.388 . S
C273 N272 1.397 . S
C274 H255 0.929 . S
C274 C271 1.404 . S
C274 N272 1.334 . S
C275 H267 0.930 . S
C275 C270 1.418 . S
C275 C271 1.353 . S
C276 H246 0.930 . S
C276 N277 1.330 . S
C276 C278 1.446 . S
N277 Co236 2.151 . S
N277 C276 1.330 . S
N277 C281 1.418 . S
C278 H257 0.929 . S
C278 C276 1.446 . S
C278 C279 1.332 . S
C279 H259 0.931 . S
C279 C278 1.332 . S
C279 C280 1.267 . S
C280 H248 0.929 . S
C280 C279 1.267 . S
C280 C281 1.251 . S
C281 H251 0.929 . S
C281 N277 1.418 . S
C281 C280 1.251 . S
C282 H249 0.930 . S
C282 C284 1.406 1_556 S
C282 C287 1.261 . S
C283 H250 0.930 . S
C283 N285 1.325 . S
C283 C286 1.357 . S
C284 H252 0.928 . S
C284 C282 1.406 1_554 S
C284 N285 1.261 . S
N285 Co236 2.214 . S
N285 C283 1.325 . S
N285 C284 1.261 . S
C286 H256 0.931 . S
C286 C283 1.357 . S
C286 C287 1.312 1_554 S
C287 H258 0.930 . S
C287 C282 1.261 . S
C287 C286 1.312 1_556 S
C288 O260 1.214 . S
C288 O268 1.234 . S
C289 H261 0.929 . S
C289 C292 1.391 . S
C289 C294 1.391 . S
C290 H262 0.929 . S
C290 C291 1.390 . S
C290 N293 1.391 . S
C291 H263 0.930 . S
C291 C290 1.390 . S
C291 C292 1.392 . S
C292 H264 0.929 . S
C292 C289 1.391 . S
C292 C291 1.392 . S
N293 Co237 2.257 . S
N293 C290 1.391 . S
N293 C294 1.388 . S
C294 H265 0.930 . S
C294 C289 1.391 . S
C294 N293 1.388 . S
Co295 O297 2.143 . S
Co295 O303 2.074 . S
Co295 O306 2.093 . S
Co295 O319 2.097 . S
Co295 N336 2.151 . S
Co295 N344 2.214 . S
Co296 O297 2.160 . S
Co296 O302 2.058 . S
Co296 O312 2.057 . S
Co296 O327 2.037 . S
Co296 N331 2.145 . S
Co296 N352 2.257 . S
O297 Co295 2.143 . S
O297 Co296 2.160 . S
C298 O299 1.278 . S
C298 O306 1.224 . S
O299 C298 1.278 . S
C300 O301 1.245 . S
C300 O312 1.232 . S
O301 C300 1.245 . S
O302 Co296 2.058 . S
O302 C328 1.269 . S
O303 Co295 2.074 . S
O303 C328 1.257 . S
H304 C329 0.930 . S
H305 C335 0.930 . S
O306 Co295 2.093 . S
O306 C298 1.224 . S
H307 C339 0.929 . S
H308 C341 0.930 . S
H309 C342 0.930 . S
H310 C340 0.929 . S
H311 C343 0.928 . S
O312 Co296 2.057 . S
O312 C300 1.232 . S
H313 C332 0.929 . S
H314 C333 0.929 . S
H315 C345 0.931 . S
H316 C337 0.929 . S
H317 C346 0.930 . S
H318 C338 0.931 . S
O319 Co295 2.097 . S
O319 C347 1.214 . S
H320 C348 0.929 . S
H321 C349 0.929 . S
H322 C350 0.930 . S
H323 C351 0.929 . S
H324 C353 0.930 . S
H325 C330 0.930 . S
H326 C334 0.930 . S
O327 Co296 2.037 . S
O327 C347 1.234 . S
C328 O302 1.269 . S
C328 O303 1.257 . S
C329 H304 0.930 . S
C329 C332 1.388 . S
C329 C334 1.418 1_556 S
C330 H325 0.930 . S
C330 C333 1.404 1_554 S
C330 C334 1.353 . S
N331 Co296 2.145 . S
N331 C332 1.397 . S
N331 C333 1.334 . S
C332 H313 0.929 . S
C332 C329 1.388 . S
C332 N331 1.397 . S
C333 H314 0.929 . S
C333 C330 1.404 1_556 S
C333 N331 1.334 . S
C334 H326 0.930 . S
C334 C329 1.418 1_554 S
C334 C330 1.353 . S
C335 H305 0.930 . S
C335 N336 1.330 . S
C335 C337 1.446 . S
N336 Co295 2.151 . S
N336 C335 1.330 . S
N336 C340 1.418 . S
C337 H316 0.929 . S
C337 C335 1.446 . S
C337 C338 1.332 . S
C338 H318 0.931 . S
C338 C337 1.332 . S
C338 C339 1.267 . S
C339 H307 0.929 . S
C339 C338 1.267 . S
C339 C340 1.251 . S
C340 H310 0.929 . S
C340 N336 1.418 . S
C340 C339 1.251 . S
C341 H308 0.930 . S
C341 C343 1.406 . S
C341 C346 1.261 . S
C342 H309 0.930 . S
C342 N344 1.325 . S
C342 C345 1.357 . S
C343 H311 0.928 . S
C343 C341 1.406 . S
C343 N344 1.261 . S
N344 Co295 2.214 . S
N344 C342 1.325 . S
N344 C343 1.261 . S
C345 H315 0.931 . S
C345 C342 1.357 . S
C345 C346 1.312 . S
C346 H317 0.930 . S
C346 C341 1.261 . S
C346 C345 1.312 . S
C347 O319 1.214 . S
C347 O327 1.234 . S
C348 H320 0.929 . S
C348 C351 1.391 . S
C348 C353 1.391 . S
C349 H321 0.929 . S
C349 C350 1.390 . S
C349 N352 1.391 . S
C350 H322 0.930 . S
C350 C349 1.390 . S
C350 C351 1.392 . S
C351 H323 0.929 . S
C351 C348 1.391 . S
C351 C350 1.392 . S
N352 Co296 2.257 . S
N352 C349 1.391 . S
N352 C353 1.388 . S
C353 H324 0.930 . S
C353 C348 1.391 . S
C353 N352 1.388 . S
C354 C355 1.369 . S
C354 C356 1.419 . S
C354 H358 0.930 . S
C355 C354 1.369 . S
C355 C364 1.429 . S
C356 C354 1.419 . S
C356 C357 1.363 . S
C356 H359 0.929 . S
C357 C356 1.363 . S
C357 C363 1.428 . S
H358 C354 0.930 . S
H359 C356 0.929 . S
S360 N361 1.613 . S
S360 N362 1.610 . S
N361 S360 1.613 . S
N361 C364 1.350 . S
N362 S360 1.610 . S
N362 C363 1.351 . S
C363 C357 1.428 . S
C363 N362 1.351 . S
C363 C364 1.434 . S
C364 C355 1.429 . S
C364 N361 1.350 . S
C364 C363 1.434 . S
C365 C366 1.369 . S
C365 C367 1.419 . S
C365 H369 0.930 . S
C366 C365 1.369 . S
C366 C375 1.429 . S
C367 C365 1.419 . S
C367 C368 1.363 . S
C367 H370 0.929 . S
C368 C367 1.363 . S
C368 C374 1.428 . S
H369 C365 0.930 . S
H370 C367 0.929 . S
S371 N372 1.613 . S
S371 N373 1.610 . S
N372 S371 1.613 . S
N372 C375 1.350 . S
N373 S371 1.610 . S
N373 C374 1.351 . S
C374 C368 1.428 . S
C374 N373 1.351 . S
C374 C375 1.434 . S
C375 C366 1.429 . S
C375 N372 1.350 . S
C375 C374 1.434 . S
C376 C377 1.369 . S
C376 C378 1.419 . S
C376 H380 0.930 . S
C377 C376 1.369 . S
C377 C386 1.429 . S
C378 C376 1.419 . S
C378 C379 1.363 . S
C378 H381 0.929 . S
C379 C378 1.363 . S
C379 C385 1.428 . S
H380 C376 0.930 . S
H381 C378 0.929 . S
S382 N383 1.613 . S
S382 N384 1.610 . S
N383 S382 1.613 . S
N383 C386 1.350 . S
N384 S382 1.610 . S
N384 C385 1.351 . S
C385 C379 1.428 . S
C385 N384 1.351 . S
C385 C386 1.434 . S
C386 C377 1.429 . S
C386 N383 1.350 . S
C386 C385 1.434 . S
C387 C388 1.369 . S
C387 C389 1.419 . S
C387 H391 0.930 . S
C388 C387 1.369 . S
C388 C397 1.429 . S
C389 C387 1.419 . S
C389 C390 1.363 . S
C389 H392 0.929 . S
C390 C389 1.363 . S
C390 C396 1.428 . S
H391 C387 0.930 . S
H392 C389 0.929 . S
S393 N394 1.613 . S
S393 N395 1.610 . S
N394 S393 1.613 . S
N394 C397 1.350 . S
N395 S393 1.610 . S
N395 C396 1.351 . S
C396 C390 1.428 . S
C396 N395 1.351 . S
C396 C397 1.434 . S
C397 C388 1.429 . S
C397 N394 1.350 . S
C397 C396 1.434 . S
C398 C399 1.369 . S
C398 C400 1.419 . S
C398 H402 0.930 . S
C399 C398 1.369 . S
C399 C408 1.429 . S
C400 C398 1.419 . S
C400 C401 1.363 . S
C400 H403 0.929 . S
C401 C400 1.363 . S
C401 C407 1.428 . S
H402 C398 0.930 . S
H403 C400 0.929 . S
S404 N405 1.613 . S
S404 N406 1.610 . S
N405 S404 1.613 . S
N405 C408 1.350 . S
N406 S404 1.610 . S
N406 C407 1.351 . S
C407 C401 1.428 . S
C407 N406 1.351 . S
C407 C408 1.434 . S
C408 C399 1.429 . S
C408 N405 1.350 . S
C408 C407 1.434 . S
C409 C410 1.369 . S
C409 C411 1.419 . S
C409 H413 0.930 . S
C410 C409 1.369 . S
C410 C419 1.429 . S
C411 C409 1.419 . S
C411 C412 1.363 . S
C411 H414 0.929 . S
C412 C411 1.363 . S
C412 C418 1.428 . S
H413 C409 0.930 . S
H414 C411 0.929 . S
S415 N416 1.613 . S
S415 N417 1.610 . S
N416 S415 1.613 . S
N416 C419 1.350 . S
N417 S415 1.610 . S
N417 C418 1.351 . S
C418 C412 1.428 . S
C418 N417 1.351 . S
C418 C419 1.434 . S
C419 C410 1.429 . S
C419 N416 1.350 . S
C419 C418 1.434 . S
C420 C421 1.369 . S
C420 C422 1.419 1_556 S
C420 H424 0.930 . S
C421 C420 1.369 . S
C421 C430 1.429 1_565 S
C422 C420 1.419 1_554 S
C422 C423 1.363 1_565 S
C422 H425 0.929 . S
C423 C422 1.363 1_545 S
C423 C429 1.428 . S
H424 C420 0.930 . S
H425 C422 0.929 . S
S426 N427 1.613 . S
S426 N428 1.610 1_556 S
N427 S426 1.613 . S
N427 C430 1.350 . S
N428 S426 1.610 1_554 S
N428 C429 1.351 . S
C429 C423 1.428 . S
C429 N428 1.351 . S
C429 C430 1.434 1_554 S
C430 C421 1.429 1_545 S
C430 N427 1.350 . S
C430 C429 1.434 1_556 S
C431 C432 1.369 . S
C431 C433 1.419 . S
C431 H435 0.930 . S
C432 C431 1.369 . S
C432 C441 1.429 . S
C433 C431 1.419 . S
C433 C434 1.363 . S
C433 H436 0.929 . S
C434 C433 1.363 . S
C434 C440 1.428 . S
H435 C431 0.930 . S
H436 C433 0.929 . S
S437 N438 1.613 . S
S437 N439 1.610 . S
N438 S437 1.613 . S
N438 C441 1.350 . S
N439 S437 1.610 . S
N439 C440 1.351 . S
C440 C434 1.428 . S
C440 N439 1.351 . S
C440 C441 1.434 . S
C441 C432 1.429 . S
C441 N438 1.350 . S
C441 C440 1.434 . S
C442 C443 1.369 1_655 S
C442 C444 1.412 1_556 S
C442 H446 0.930 . S
C443 C442 1.369 1_455 S
C443 C452 1.429 1_556 S
C444 C442 1.412 1_554 S
C444 C445 1.371 . S
C444 H447 0.929 1_554 S
C445 C444 1.371 . S
C445 C451 1.428 1_655 S
H446 C442 0.930 . S
H447 C444 0.929 1_556 S
S448 N449 1.613 . S
S448 N450 1.610 . S
N449 S448 1.613 . S
N449 C452 1.350 . S
N450 S448 1.610 . S
N450 C451 1.351 . S
C451 C445 1.428 1_455 S
C451 N450 1.351 . S
C451 C452 1.434 . S
C452 C443 1.429 1_554 S
C452 N449 1.350 . S
C452 C451 1.434 . S
C453 C454 1.369 . S
C453 C455 1.419 . S
C453 H457 0.930 . S
C454 C453 1.369 . S
C454 C463 1.429 1_545 S
C455 C453 1.419 . S
C455 C456 1.363 1_545 S
C455 H458 0.929 . S
C456 C455 1.363 1_565 S
C456 C462 1.428 . S
H457 C453 0.930 . S
H458 C455 0.929 . S
S459 N460 1.613 . S
S459 N461 1.610 . S
N460 S459 1.613 . S
N460 C463 1.350 . S
N461 S459 1.610 . S
N461 C462 1.351 . S
C462 C456 1.428 . S
C462 N461 1.351 . S
C462 C463 1.434 . S
C463 C454 1.429 1_565 S
C463 N460 1.350 . S
C463 C462 1.434 . S
C464 C465 1.369 . S
C464 C466 1.419 1_556 S
C464 H468 0.930 . S
C465 C464 1.369 . S
C465 C474 1.429 . S
C466 C464 1.419 1_554 S
C466 C467 1.363 . S
C466 H469 0.929 . S
C467 C466 1.363 . S
C467 C473 1.428 . S
H468 C464 0.930 . S
H469 C466 0.929 . S
S470 N471 1.613 . S
S470 N472 1.610 1_556 S
N471 S470 1.613 . S
N471 C474 1.350 . S
N472 S470 1.610 1_554 S
N472 C473 1.351 . S
C473 C467 1.428 . S
C473 N472 1.351 . S
C473 C474 1.434 1_554 S
C474 C465 1.429 . S
C474 N471 1.350 . S
C474 C473 1.434 1_556 S
C475 C476 1.369 . S
C475 C477 1.419 . S
C475 H479 0.930 . S
C476 C475 1.369 . S
C476 C485 1.429 1_455 S
C477 C475 1.419 . S
C477 C478 1.363 1_455 S
C477 H480 0.929 . S
C478 C477 1.363 1_655 S
C478 C484 1.428 . S
H479 C475 0.930 . S
H480 C477 0.929 . S
S481 N482 1.613 . S
S481 N483 1.610 . S
N482 S481 1.613 . S
N482 C485 1.350 . S
N483 S481 1.610 . S
N483 C484 1.351 . S
C484 C478 1.428 . S
C484 N483 1.351 . S
C484 C485 1.434 . S
C485 C476 1.429 1_655 S
C485 N482 1.350 . S
C485 C484 1.434 . S
C355 C52 1.454 . S
C357 C269 1.453 . S
C366 C111 1.459 . S
C368 C328 1.446 . S
C377 C33 1.450 . S
C379 C151 1.446 . S
C388 C210 1.455 . S
C390 C92 1.446 . S
C399 C288 1.463 . S
C401 C170 1.455 . S
C410 C229 1.453 . S
C412 C347 1.463 . S
C421 C180 1.504 . S
C423 C3 1.503 . S
C432 C241 1.515 . S
C434 C62 1.502 . S
C443 C300 1.513 . S
C445 C123 1.516 . S
C454 C5 1.517 . S
C456 C182 1.515 . S
C465 C64 1.513 . S
C467 C239 1.504 . S
C476 C298 1.506 . S
C478 C121 1.502 . S
