# Generated by pormake.
# Topology snz, (6)-cn, num edge types: 1
# Building blocks:
#     Node 0, Type 0, BuildingBlock: CUWYAW_clean_sbu_0, # of connection points: 6
#     Node 1, Type 0, BuildingBlock: CUWYAW_clean_sbu_0, # of connection points: 6
#     Node 2, Type 0, BuildingBlock: CUWYAW_clean_sbu_0, # of connection points: 6
#     Node 3, Type 0, BuildingBlock: CUWYAW_clean_sbu_0, # of connection points: 6
#     Node 4, Type 0, BuildingBlock: CUWYAW_clean_sbu_0, # of connection points: 6
#     Node 5, Type 0, BuildingBlock: CUWYAW_clean_sbu_0, # of connection points: 6
#     Node 6, Type 0, BuildingBlock: CUWYAW_clean_sbu_0, # of connection points: 6
#     Node 7, Type 0, BuildingBlock: CUWYAW_clean_sbu_0, # of connection points: 6
#     Node 8, Type 0, BuildingBlock: CUWYAW_clean_sbu_0, # of connection points: 6
#     Edge 9, Type (0, 0), BuildingBlock: XUDNAN_clean_linker_2, # of connection points: 2
#     Edge 10, Type (0, 0), BuildingBlock: XUDNAN_clean_linker_2, # of connection points: 2
#     Edge 11, Type (0, 0), BuildingBlock: XUDNAN_clean_linker_2, # of connection points: 2
#     Edge 12, Type (0, 0), BuildingBlock: XUDNAN_clean_linker_2, # of connection points: 2
#     Edge 13, Type (0, 0), BuildingBlock: XUDNAN_clean_linker_2, # of connection points: 2
#     Edge 14, Type (0, 0), BuildingBlock: XUDNAN_clean_linker_2, # of connection points: 2
#     Edge 15, Type (0, 0), BuildingBlock: XUDNAN_clean_linker_2, # of connection points: 2
#     Edge 16, Type (0, 0), BuildingBlock: XUDNAN_clean_linker_2, # of connection points: 2
#     Edge 17, Type (0, 0), BuildingBlock: XUDNAN_clean_linker_2, # of connection points: 2
#     Edge 18, Type (0, 0), BuildingBlock: XUDNAN_clean_linker_2, # of connection points: 2
#     Edge 19, Type (0, 0), BuildingBlock: XUDNAN_clean_linker_2, # of connection points: 2
#     Edge 20, Type (0, 0), BuildingBlock: XUDNAN_clean_linker_2, # of connection points: 2
#     Edge 21, Type (0, 0), BuildingBlock: XUDNAN_clean_linker_2, # of connection points: 2
#     Edge 22, Type (0, 0), BuildingBlock: XUDNAN_clean_linker_2, # of connection points: 2
#     Edge 23, Type (0, 0), BuildingBlock: XUDNAN_clean_linker_2, # of connection points: 2
#     Edge 24, Type (0, 0), BuildingBlock: XUDNAN_clean_linker_2, # of connection points: 2
#     Edge 25, Type (0, 0), BuildingBlock: XUDNAN_clean_linker_2, # of connection points: 2
#     Edge 26, Type (0, 0), BuildingBlock: XUDNAN_clean_linker_2, # of connection points: 2
#     Edge 27, Type (0, 0), BuildingBlock: XUDNAN_clean_linker_2, # of connection points: 2
#     Edge 28, Type (0, 0), BuildingBlock: XUDNAN_clean_linker_2, # of connection points: 2
#     Edge 29, Type (0, 0), BuildingBlock: XUDNAN_clean_linker_2, # of connection points: 2
#     Edge 30, Type (0, 0), BuildingBlock: XUDNAN_clean_linker_2, # of connection points: 2
#     Edge 31, Type (0, 0), BuildingBlock: XUDNAN_clean_linker_2, # of connection points: 2
#     Edge 32, Type (0, 0), BuildingBlock: XUDNAN_clean_linker_2, # of connection points: 2
#     Edge 33, Type (0, 0), BuildingBlock: XUDNAN_clean_linker_2, # of connection points: 2
#     Edge 34, Type (0, 0), BuildingBlock: XUDNAN_clean_linker_2, # of connection points: 2
#     Edge 35, Type (0, 0), BuildingBlock: XUDNAN_clean_linker_2, # of connection points: 2
# Relax obj value: 0.147
# Max RMSD: 0.213
# Mean RMSD: 0.196
data_MOF--net-snz--node1-CUWYAW_clean_sbu_0--edge1-XUDNAN_clean_linker_2
_symmetry_space_group_name_H-M    P1
_symmetry_Int_Tables_number       1
_symmetry_cell_setting            triclinic
loop_
_symmetry_equiv_pos_as_xyz
'x, y, z'
_cell_length_a     66.17749
_cell_length_b     66.900562
_cell_length_c     14.638484
_cell_angle_alpha  90.120125
_cell_angle_beta   90.028235
_cell_angle_gamma 119.6606
loop_
_atom_site_label
_atom_site_type_symbol
_atom_site_fract_x
_atom_site_fract_y
_atom_site_fract_z
_atom_type_partial_charge
C0 C 0.13312 0.5037 0.05757 0.0
Eu1 Eu 0.16876 0.49785 0.07797 0.0
C2 C 0.1274 0.52221 0.06391 0.0
C3 C 0.10826 0.51853 0.11699 0.0
C4 C 0.09995 0.53396 0.11322 0.0
C5 C 0.11073 0.55328 0.05647 0.0
C6 C 0.13104 0.55807 0.00908 0.0
C7 C 0.13939 0.54257 0.01276 0.0
C8 C 0.18062 0.48862 0.24353 0.0
C9 C 0.21395 0.54757 0.10608 0.0
C10 C 0.24947 0.49447 0.12728 0.0
Eu11 Eu 0.21383 0.49936 0.08078 0.0
C12 C 0.26627 0.48575 0.11671 0.0
C13 C 0.28651 0.49824 0.06437 0.0
C14 C 0.30436 0.49273 0.0654 0.0
C15 C 0.30266 0.47429 0.11798 0.0
C16 C 0.28215 0.46151 0.1695 0.0
C17 C 0.26432 0.46727 0.16935 0.0
C18 C 0.20272 0.50735 0.90962 0.0
C19 C 0.16525 0.45044 0.02183 0.0
O20 O 0.14641 0.50455 0.98982 0.0
O21 O 0.13793 0.49704 0.13432 0.0
O22 O 0.1603 0.47661 0.20663 0.0
O23 O 0.19403 0.50461 0.19104 0.0
O24 O 0.19254 0.5363 0.07487 0.0
O25 O 0.22533 0.53641 0.12538 0.0
O26 O 0.22842 0.48126 0.159 0.0
O27 O 0.25055 0.50994 0.06995 0.0
O28 O 0.22365 0.51731 0.94302 0.0
O29 O 0.18919 0.49317 0.96781 0.0
O30 O 0.18788 0.46051 0.04383 0.0
O31 O 0.15423 0.46221 0.02519 0.0
H32 H 0.09898 0.50307 0.15759 0.0
H33 H 0.08426 0.5301 0.15018 0.0
H34 H 0.13942 0.57287 0.96442 0.0
H35 H 0.15442 0.54593 0.97217 0.0
H36 H 0.28906 0.51298 0.02489 0.0
H37 H 0.31991 0.50366 0.02684 0.0
H38 H 0.27981 0.44708 0.21052 0.0
H39 H 0.24924 0.45756 0.21226 0.0
C40 C 0.7963 0.61249 0.03385 0.0
Eu41 Eu 0.80215 0.65309 0.07169 0.0
C42 C 0.7766 0.58879 0.02736 0.0
C43 C 0.7676 0.57494 0.10556 0.0
C44 C 0.74839 0.55285 0.09843 0.0
C45 C 0.73785 0.54441 0.01327 0.0
C46 C 0.74719 0.55795 0.935 0.0
C47 C 0.76649 0.57987 0.94186 0.0
C48 C 0.80784 0.66994 0.24592 0.0
C49 C 0.75182 0.64826 0.09746 0.0
C50 C 0.80475 0.73608 0.14263 0.0
Eu51 Eu 0.80027 0.6965 0.08866 0.0
C52 C 0.81399 0.76158 0.1376 0.0
C53 C 0.80569 0.77107 0.07152 0.0
C54 C 0.81053 0.79401 0.07833 0.0
C55 C 0.82402 0.80827 0.15067 0.0
C56 C 0.83333 0.79924 0.21422 0.0
C57 C 0.82823 0.77615 0.20815 0.0
C58 C 0.79223 0.68016 0.9141 0.0
C59 C 0.85019 0.69811 0.03315 0.0
O60 O 0.79717 0.62693 0.97186 0.0
O61 O 0.8018 0.62178 0.11512 0.0
O62 O 0.81935 0.66058 0.21277 0.0
O63 O 0.79369 0.66939 0.18735 0.0
O64 O 0.76362 0.63955 0.05828 0.0
O65 O 0.76272 0.66967 0.12966 0.0
O66 O 0.81755 0.72774 0.17469 0.0
O67 O 0.78976 0.72265 0.08128 0.0
O68 O 0.782 0.69007 0.95401 0.0
O69 O 0.80712 0.67996 0.96815 0.0
O70 O 0.83975 0.70979 0.06108 0.0
O71 O 0.83859 0.67559 0.02737 0.0
H72 H 0.77519 0.58124 0.17231 0.0
H73 H 0.74142 0.54257 0.15951 0.0
H74 H 0.73952 0.55155 0.8684 0.0
H75 H 0.7733 0.58994 0.88021 0.0
H76 H 0.79451 0.76048 0.01667 0.0
H77 H 0.80307 0.80043 0.02839 0.0
H78 H 0.84351 0.80965 0.27143 0.0
H79 H 0.83455 0.76939 0.26131 0.0
C80 C 0.68842 0.1664 0.06186 0.0
Eu81 Eu 0.64691 0.13156 0.08388 0.0
C82 C 0.71174 0.16969 0.04731 0.0
C83 C 0.73112 0.18978 0.07945 0.0
C84 C 0.75353 0.19396 0.06015 0.0
C85 C 0.7567 0.17811 0.00793 0.0
C86 C 0.73723 0.15737 0.9806 0.0
C87 C 0.71488 0.15312 0.00058 0.0
C88 C 0.6262 0.11808 0.25072 0.0
C89 C 0.65068 0.08505 0.1031 0.0
C90 C 0.56308 0.05015 0.16294 0.0
Eu91 Eu 0.60053 0.08412 0.09122 0.0
C92 C 0.53757 0.0336 0.16591 0.0
C93 C 0.52467 1.02125 0.08864 0.0
C94 C 0.50147 1.00326 0.09774 0.0
C95 C 0.49087 0.997 0.18438 0.0
C96 C 0.50358 1.01003 0.26057 0.0
C97 C 0.5265 0.02809 0.25135 0.0
C98 C 0.61354 0.09273 0.91387 0.0
C99 C 0.60027 0.13216 0.0319 0.0
O100 O 0.67352 0.15684 0.99475 0.0
O101 O 0.67937 0.15841 0.1419 0.0
O102 O 0.63597 0.13918 0.22204 0.0
O103 O 0.62782 0.10569 0.18981 0.0
O104 O 0.66114 0.10705 0.08072 0.0
O105 O 0.62779 0.07294 0.11728 0.0
O106 O 0.57104 0.07177 0.18611 0.0
O107 O 0.57581 0.0474 0.10086 0.0
O108 O 0.59533 0.07425 0.94281 0.0
O109 O 0.62428 0.10572 0.98103 0.0
O110 O 0.58809 0.1103 0.05966 0.0
O111 O 0.62317 0.14355 0.03095 0.0
H112 H 0.7289 0.20257 0.11681 0.0
H113 H 0.7683 0.21014 0.08133 0.0
H114 H 0.73931 0.14486 0.94064 0.0
H115 H 0.70009 0.13728 0.97679 0.0
H116 H 0.53274 1.02496 0.02185 0.0
H117 H 0.49224 0.9935 0.03775 0.0
H118 H 0.49596 1.0058 0.32815 0.0
H119 H 0.53599 0.03717 0.31213 0.0
C120 C 0.82678 1.02307 0.20576 0.0
Eu121 Eu 0.863 1.01936 0.25388 0.0
C122 C 0.81083 0.03292 0.21064 0.0
C123 C 0.7923 1.02402 0.27333 0.0
C124 C 0.77423 0.02917 0.26572 0.0
C125 C 0.77415 0.04347 0.19561 0.0
C126 C 0.79334 0.05355 0.13612 0.0
C127 C 0.81137 0.04817 0.14304 0.0
C128 C 0.87352 1.01011 0.42144 0.0
C129 C 0.91044 0.06923 0.30539 0.0
C130 C 0.94562 1.01753 0.28473 0.0
Eu131 Eu 0.90945 1.0225 0.25881 0.0
C132 C 0.94865 0.99743 0.29425 0.0
C133 C 0.96998 0.99887 0.27332 0.0
C134 C 0.97315 0.97997 0.28848 0.0
C135 C 0.95492 0.95945 0.32443 0.0
C136 C 0.9333 0.95792 0.34096 0.0
C137 C 0.93025 0.97673 0.32655 0.0
C138 C 0.89522 0.02735 0.0885 0.0
C139 C 0.86416 0.97173 0.23385 0.0
O140 O 0.84697 0.03416 0.16459 0.0
O141 O 0.82677 1.01014 0.27274 0.0
O142 O 0.85277 1.00019 0.38659 0.0
O143 O 0.88775 1.02575 0.36878 0.0
O144 O 0.888 0.05837 0.28195 0.0
O145 O 0.92256 0.05855 0.30631 0.0
O146 O 0.93416 1.0206 0.3509 0.0
O147 O 0.93909 1.0205 0.20416 0.0
O148 O 0.91612 0.04037 0.1198 0.0
O149 O 0.88319 1.0133 0.1495 0.0
O150 O 0.88568 0.98366 0.26467 0.0
O151 O 0.85228 0.9823 0.21269 0.0
H152 H 0.79105 1.01207 0.32574 0.0
H153 H 0.75981 1.02125 0.31305 0.0
H154 H 0.79374 0.06452 0.08098 0.0
H155 H 0.82513 0.05507 0.09261 0.0
H156 H 0.98433 1.01477 0.24784 0.0
H157 H 0.9901 0.9818 0.27587 0.0
H158 H 0.91879 0.94236 0.36771 0.0
H159 H 0.91369 0.97522 0.34378 0.0
C160 C 0.27414 0.78288 0.2056 0.0
Eu161 Eu 0.27916 0.82315 0.24967 0.0
C162 C 0.26489 0.75745 0.2118 0.0
C163 C 0.27506 0.74869 0.27259 0.0
C164 C 0.27024 0.72582 0.26607 0.0
C165 C 0.25509 0.71086 0.19855 0.0
C166 C 0.24382 0.71916 0.14103 0.0
C167 C 0.2488 0.74222 0.1471 0.0
C168 C 0.28908 0.84508 0.41279 0.0
C169 C 0.22941 0.82208 0.30522 0.0
C170 C 0.28194 0.90744 0.25544 0.0
Eu171 Eu 0.27622 0.8661 0.24285 0.0
C172 C 0.30207 0.93056 0.2645 0.0
C173 C 0.29994 0.94983 0.24306 0.0
C174 C 0.31841 0.97194 0.26022 0.0
C175 C 0.33915 0.97488 0.29895 0.0
C176 C 0.3417 0.95556 0.31456 0.0
C177 C 0.32325 0.93357 0.29809 0.0
C178 C 0.26957 0.84446 0.07796 0.0
C179 C 0.32733 0.87084 0.22877 0.0
O180 O 0.26213 0.79137 0.1669 0.0
O181 O 0.28845 0.79642 0.2686 0.0
O182 O 0.29823 0.83291 0.38445 0.0
O183 O 0.27347 0.84314 0.35787 0.0
O184 O 0.24062 0.81029 0.29218 0.0
O185 O 0.23981 0.84439 0.29155 0.0
O186 O 0.27779 0.89386 0.32553 0.0
O187 O 0.28 0.89707 0.17764 0.0
O188 O 0.25645 0.85217 0.11012 0.0
O189 O 0.28459 0.84745 0.1375 0.0
O190 O 0.31516 0.88074 0.25211 0.0
O191 O 0.31701 0.8484 0.21287 0.0
H192 H 0.28767 0.7598 0.32281 0.0
H193 H 0.279 0.72002 0.31253 0.0
H194 H 0.23213 0.70823 0.088 0.0
H195 H 0.24087 0.7484 0.09822 0.0
H196 H 0.28373 0.94776 0.21646 0.0
H197 H 0.316 0.98659 0.24811 0.0
H198 H 0.35763 0.95742 0.34334 0.0
H199 H 0.32529 0.91898 0.31538 0.0
C200 C 0.51652 0.47087 0.20344 0.0
Eu201 Eu 0.47696 0.43708 0.26316 0.0
C202 C 0.54231 0.48668 0.20264 0.0
C203 C 0.5532 0.50598 0.26108 0.0
C204 C 0.57652 0.52318 0.24711 0.0
C205 C 0.58948 0.52171 0.17362 0.0
C206 C 0.57886 0.50179 0.11845 0.0
C207 C 0.55569 0.48464 0.13254 0.0
C208 C 0.46024 0.42678 0.43806 0.0
C209 C 0.47763 0.38853 0.31295 0.0
C210 C 0.39175 0.35935 0.36563 0.0
Eu211 Eu 0.42977 0.39027 0.28941 0.0
C212 C 0.36691 0.35198 0.35654 0.0
C213 C 0.35648 0.35005 0.27075 0.0
C214 C 0.33358 0.34589 0.26526 0.0
C215 C 0.32117 0.34405 0.34538 0.0
C216 C 0.33143 0.34543 0.43067 0.0
C217 C 0.35408 0.34924 0.43618 0.0
C218 C 0.43808 0.39842 0.10584 0.0
C219 C 0.42753 0.4358 0.23727 0.0
O220 O 0.50761 0.44957 0.1746 0.0
O221 O 0.50365 0.47344 0.26528 0.0
O222 O 0.47215 0.44777 0.40804 0.0
O223 O 0.45943 0.41329 0.37651 0.0
O224 O 0.48965 0.41114 0.29571 0.0
O225 O 0.4546 0.37683 0.31338 0.0
O226 O 0.40448 0.38018 0.39856 0.0
O227 O 0.40176 0.35467 0.2979 0.0
O228 O 0.42051 0.38041 0.14088 0.0
O229 O 0.45059 0.41113 0.17061 0.0
O230 O 0.41802 0.41674 0.28585 0.0
O231 O 0.4494 0.44529 0.20851 0.0
H232 H 0.54342 0.50834 0.31519 0.0
H233 H 0.58395 0.53823 0.29084 0.0
H234 H 0.58829 0.49975 0.06208 0.0
H235 H 0.54791 0.47023 0.08552 0.0
H236 H 0.36619 0.35245 0.20833 0.0
H237 H 0.32588 0.34496 0.19894 0.0
H238 H 0.32202 0.34402 0.49313 0.0
H239 H 0.3619 0.35089 0.50284 0.0
C240 C 0.48562 0.19394 0.62486 0.0
Eu241 Eu 0.51605 0.23682 0.64458 0.0
C242 C 0.46883 0.17697 0.56053 0.0
C243 C 0.44517 0.16558 0.58326 0.0
C244 C 0.42991 0.1449 0.5406 0.0
C245 C 0.4382 0.13544 0.47503 0.0
C246 C 0.46117 0.14807 0.44444 0.0
C247 C 0.47648 0.16881 0.48696 0.0
C248 C 0.51479 0.27524 0.58316 0.0
C249 C 0.55609 0.25863 0.49138 0.0
C250 C 0.59567 0.32766 0.70451 0.0
Eu251 Eu 0.56506 0.28466 0.68572 0.0
C252 C 0.60765 0.34467 0.77719 0.0
C253 C 0.63188 0.35859 0.7735 0.0
C254 C 0.64301 0.37837 0.82744 0.0
C255 C 0.6299 0.38449 0.88455 0.0
C256 C 0.606 0.36943 0.89468 0.0
C257 C 0.59494 0.34951 0.84192 0.0
C258 C 0.56587 0.24606 0.74761 0.0
C259 C 0.52877 0.25944 0.84815 0.0
O260 O 0.50768 0.20265 0.60443 0.0
O261 O 0.48057 0.20867 0.66367 0.0
O262 O 0.49787 0.25431 0.57219 0.0
O263 O 0.53068 0.27387 0.62542 0.0
O264 O 0.53831 0.23993 0.52533 0.0
O265 O 0.56735 0.27848 0.53556 0.0
O266 O 0.5733 0.31991 0.6972 0.0
O267 O 0.60157 0.31184 0.69079 0.0
O268 O 0.58316 0.26691 0.75663 0.0
O269 O 0.55013 0.24764 0.70525 0.0
O270 O 0.54501 0.27952 0.81594 0.0
O271 O 0.51656 0.24103 0.79649 0.0
H272 H 0.43888 0.17152 0.6396 0.0
H273 H 0.41218 0.13517 0.56514 0.0
H274 H 0.46785 0.14081 0.3946 0.0
H275 H 0.49464 0.17728 0.46752 0.0
H276 H 0.64198 0.35508 0.72433 0.0
H277 H 0.66148 0.38988 0.81846 0.0
H278 H 0.59566 0.37388 0.93877 0.0
H279 H 0.57623 0.33886 0.84728 0.0
C280 C 0.09602 0.2476 0.62356 0.0
Eu281 Eu 0.05959 0.25144 0.66116 0.0
C282 C 0.11803 0.26133 0.57568 0.0
C283 C 0.13362 0.25302 0.56831 0.0
C284 C 0.15469 0.26587 0.52277 0.0
C285 C 0.1604 0.2872 0.48338 0.0
C286 C 0.14444 0.29525 0.48957 0.0
C287 C 0.12341 0.28241 0.53561 0.0
C288 C 1.01676 0.21573 0.61506 0.0
C289 C 0.0519 0.27924 0.49873 0.0
C290 C 0.97816 0.2526 0.68104 0.0
Eu291 Eu 1.0209 0.26178 0.67375 0.0
C292 C 0.96104 0.25159 0.74759 0.0
C293 C 0.9516 0.26608 0.73569 0.0
C294 C 0.93117 0.26138 0.78051 0.0
C295 C 0.91994 0.24207 0.83726 0.0
C296 C 0.93081 0.22923 0.858 0.0
C297 C 0.95133 0.23396 0.81334 0.0
C298 C 0.05839 0.30004 0.74276 0.0
C299 C 1.03783 0.2481 0.8542 0.0
O300 O 0.09344 0.25602 0.70047 0.0
O301 O 0.07751 0.23925 0.57221 0.0
O302 O 1.03075 0.21383 0.67201 0.0
O303 O 1.02545 0.23648 0.59193 0.0
O304 O 0.06731 0.27632 0.54518 0.0
O305 O 1.03093 0.27249 0.53005 0.0
O306 O 0.98448 0.23695 0.68866 0.0
O307 O 0.99521 0.27294 0.65801 0.0
O308 O 1.03771 0.29735 0.73413 0.0
O309 O 0.05887 0.28238 0.71309 0.0
O310 O 1.01951 0.24491 0.80761 0.0
O311 O 0.05707 0.25208 0.81306 0.0
H312 H 0.1296 0.2367 0.59862 0.0
H313 H 0.16676 0.25936 0.52075 0.0
H314 H 0.14824 0.3115 0.45927 0.0
H315 H 0.11146 0.28901 0.54037 0.0
H316 H 0.95885 0.27983 0.68589 0.0
H317 H 0.92288 0.27139 0.76362 0.0
H318 H 0.92223 0.21412 0.901 0.0
H319 H 0.9584 0.22262 0.82481 0.0
C320 C 1.02935 0.81565 0.65313 0.0
Eu321 Eu 1.04167 0.7847 0.66356 0.0
C322 C 1.02512 0.82827 0.58066 0.0
C323 C 1.03774 0.85237 0.5808 0.0
C324 C 1.03039 0.86475 0.52705 0.0
C325 C 1.01028 0.85305 0.47353 0.0
C326 C 0.99919 0.82909 0.46555 0.0
C327 C 1.00666 0.81671 0.51845 0.0
C328 C 0.0797 0.78615 0.57915 0.0
C329 C 1.02509 0.75096 0.49517 0.0
C330 C 0.04905 0.70442 0.69917 0.0
Eu331 Eu 1.03893 0.73691 0.68088 0.0
C332 C 0.05138 0.69011 0.76963 0.0
C333 C 1.03187 0.67253 0.81392 0.0
C334 C 1.03425 0.65679 0.86876 0.0
C335 C 0.0561 0.65837 0.87956 0.0
C336 C 0.07581 0.67705 0.84105 0.0
C337 C 0.07343 0.69275 0.78636 0.0
C338 C 0.99999 0.7381 0.7354 0.0
C339 C 0.0591 0.77357 0.8513 0.0
O340 O 1.01448 0.79358 0.65856 0.0
O341 O 0.05096 0.82083 0.66756 0.0
O342 O 0.07651 0.80369 0.58655 0.0
O343 O 0.06266 0.76956 0.6172 0.0
O344 O 1.01936 0.76336 0.54737 0.0
O345 O 1.03558 0.7403 0.52977 0.0
O346 O 0.0647 0.72629 0.70037 0.0
O347 O 1.02809 0.70049 0.67878 0.0
O348 O 0.99955 0.72048 0.6955 0.0
O349 O 1.02087 0.75351 0.74809 0.0
O350 O 0.05497 0.75352 0.81695 0.0
O351 O 0.05492 0.78813 0.8057 0.0
H352 H 0.05213 0.86159 0.62767 0.0
H353 H 1.03888 0.88327 0.53478 0.0
H354 H 0.98344 0.81987 0.42536 0.0
H355 H 0.99681 0.7981 0.51573 0.0
H356 H 1.01467 0.67026 0.80302 0.0
H357 H 1.01884 0.64272 0.89893 0.0
H358 H 0.09285 0.67863 0.84742 0.0
H359 H 0.08873 0.70624 0.75305 0.0
H360 H 0.20948 0.53567 0.76044 0.0
H361 H 0.18957 0.46585 0.83725 0.0
H362 H 0.18105 0.45353 0.6766 0.0
H363 H 0.16792 0.52163 0.57455 0.0
H364 H 0.18799 0.54442 0.50113 0.0
H365 H 0.19112 0.54767 0.62339 0.0
H366 H 0.23356 0.55589 0.61032 0.0
H367 H 0.2305 0.5525 0.48808 0.0
H368 H 0.23941 0.53536 0.55346 0.0
H369 H 0.17317 0.4482 0.51055 0.0
H370 H 0.16962 0.45077 0.34334 0.0
H371 H 0.19893 0.52462 0.3663 0.0
C372 C 0.20327 0.51783 0.74287 0.0
C373 C 0.19908 0.50137 0.81146 0.0
C374 C 0.19159 0.47834 0.7861 0.0
C375 C 0.18703 0.47128 0.69491 0.0
C376 C 0.19078 0.48765 0.62889 0.0
C377 C 0.19904 0.51053 0.65097 0.0
C378 C 0.20238 0.52459 0.56508 0.0
C379 C 0.1864 0.5352 0.56613 0.0
C380 C 0.22799 0.54318 0.55357 0.0
C381 C 0.19489 0.50604 0.49196 0.0
C382 C 0.18791 0.48482 0.53093 0.0
C383 C 0.17894 0.46475 0.47885 0.0
C384 C 0.17701 0.46634 0.38416 0.0
C385 C 0.1845 0.48787 0.34233 0.0
C386 C 0.1937 0.50802 0.39676 0.0
H387 H 0.80342 0.65417 0.79541 0.0
H388 H 0.78668 0.70928 0.80349 0.0
H389 H 0.79039 0.71296 0.6372 0.0
H390 H 0.84524 0.6762 0.61082 0.0
H391 H 0.83527 0.64872 0.55596 0.0
H392 H 0.8318 0.65016 0.67746 0.0
H393 H 0.78761 0.62214 0.66156 0.0
H394 H 0.79093 0.62058 0.53997 0.0
H395 H 0.77075 0.62893 0.58384 0.0
H396 H 0.79366 0.71017 0.47218 0.0
H397 H 0.79754 0.7014 0.31211 0.0
H398 H 0.8139 0.64919 0.40049 0.0
C399 C 0.80067 0.66703 0.7618 0.0
C400 C 0.79474 0.68143 0.81296 0.0
C401 C 0.79103 0.69789 0.76637 0.0
C402 C 0.79317 0.70022 0.67157 0.0
C403 C 0.79882 0.6858 0.62301 0.0
C404 C 0.80243 0.66941 0.66569 0.0
C405 C 0.80741 0.65567 0.59475 0.0
C406 C 0.83137 0.65783 0.61072 0.0
C407 C 0.78803 0.63033 0.59507 0.0
C408 C 0.80686 0.66758 0.50664 0.0
C409 C 0.80144 0.68462 0.52538 0.0
C410 C 0.7983 0.69714 0.45646 0.0
C411 C 0.80067 0.69214 0.36559 0.0
C412 C 0.80676 0.67522 0.34372 0.0
C413 C 0.80996 0.66276 0.41538 0.0
H414 H 0.63233 0.13173 0.8013 0.0
H415 H 0.60919 0.05868 0.80627 0.0
H416 H 0.61121 0.05813 0.63914 0.0
H417 H 0.60112 0.13159 0.61149 0.0
H418 H 0.62314 0.15768 0.55895 0.0
H419 H 0.62348 0.15394 0.68062 0.0
H420 H 0.66556 0.16104 0.67189 0.0
H421 H 0.66556 0.16525 0.55024 0.0
H422 H 0.67222 0.14408 0.59472 0.0
H423 H 0.60964 0.0632 0.47514 0.0
H424 H 0.61053 0.07523 0.31609 0.0
H425 H 0.63613 0.14561 0.40657 0.0
C426 C 0.62859 0.11592 0.76694 0.0
C427 C 0.62069 0.09522 0.81681 0.0
C428 C 0.61531 0.0747 0.76952 0.0
C429 C 0.61635 0.07418 0.67441 0.0
C430 C 0.62301 0.0944 0.62664 0.0
C431 C 0.62964 0.11508 0.67053 0.0
C432 C 0.63526 0.13395 0.60034 0.0
C433 C 0.61982 0.14493 0.61369 0.0
C434 C 0.66119 0.15216 0.60455 0.0
C435 C 0.62944 0.12024 0.51138 0.0
C436 C 0.62259 0.0975 0.52907 0.0
C437 C 0.61539 0.08105 0.45999 0.0
C438 C 0.61579 0.08804 0.36975 0.0
C439 C 0.62341 0.11133 0.34852 0.0
C440 C 0.63014 0.12765 0.42063 0.0
H441 H 0.90636 0.04262 0.53993 0.0
H442 H 0.84817 0.97297 0.52587 0.0
H443 H 0.84885 0.96984 0.6932 0.0
H444 H 0.93639 0.03295 0.73791 0.0
H445 H 0.94503 0.06077 0.78713 0.0
H446 H 0.94184 0.05681 0.66508 0.0
H447 H 0.91261 0.07188 0.66397 0.0
H448 H 0.91629 0.07637 0.78568 0.0
H449 H 0.88762 0.05897 0.73789 0.0
H450 H 0.8521 0.97535 0.8593 0.0
H451 H 0.86052 0.98754 0.01933 0.0
H452 H 0.91774 0.05361 0.93459 0.0
C453 C 0.89423 0.02655 0.57225 0.0
C454 C 0.87718 1.00797 0.51999 0.0
C455 C 0.8613 0.98738 0.56461 0.0
C456 C 0.86155 0.98544 0.65966 0.0
C457 C 0.87787 1.00425 0.70971 0.0
C458 C 0.89419 1.02432 0.66808 0.0
C459 C 0.90893 0.04223 0.73969 0.0
C460 C 0.93457 0.04855 0.73199 0.0
C461 C 0.90619 0.06365 0.73146 0.0
C462 C 0.89803 0.02916 0.82757 0.0
C463 C 0.88009 1.00732 0.80779 0.0
C464 C 0.86634 0.99227 0.87585 0.0
C465 C 0.8712 0.99948 0.96684 0.0
C466 C 0.88988 1.02152 0.99006 0.0
C467 C 0.90347 0.03661 0.91912 0.0
H468 H 0.25582 0.81981 0.53877 0.0
H469 H 0.32284 0.88122 0.5065 0.0
H470 H 0.32461 0.88825 0.67361 0.0
H471 H 0.23357 0.84112 0.72002 0.0
H472 H 0.21966 0.81424 0.78119 0.0
H473 H 0.22292 0.8143 0.65911 0.0
H474 H 0.24422 0.79107 0.67331 0.0
H475 H 0.24099 0.79043 0.7956 0.0
H476 H 0.26946 0.80153 0.74597 0.0
H477 H 0.32029 0.8869 0.84439 0.0
H478 H 0.30929 0.87877 0.00705 0.0
H479 H 0.24433 0.8187 0.92973 0.0
C480 C 0.27055 0.83501 0.56706 0.0
C481 C 0.28905 0.85029 0.51048 0.0
C482 C 0.30846 0.86956 0.54929 0.0
C483 C 0.30958 0.87362 0.64385 0.0
C484 C 0.29118 0.85811 0.69833 0.0
C485 C 0.27195 0.83925 0.66139 0.0
C486 C 0.25501 0.82472 0.73554 0.0
C487 C 0.23139 0.82356 0.72325 0.0
C488 C 0.25227 0.8005 0.7377 0.0
C489 C 0.26762 0.83839 0.81999 0.0
C490 C 0.28856 0.85747 0.79687 0.0
C491 C 0.30386 0.87214 0.86312 0.0
C492 C 0.29754 0.86731 0.95523 0.0
C493 C 0.27602 0.8481 0.98042 0.0
C494 C 0.26083 0.83352 0.91194 0.0
H495 H 0.46976 0.45381 0.59638 0.0
H496 H 0.43916 0.38319 0.50137 0.0
H497 H 0.43166 0.36958 0.6597 0.0
H498 H 0.49845 0.44659 0.79395 0.0
H499 H 0.49317 0.465 0.86846 0.0
H500 H 0.49553 0.46992 0.74691 0.0
H501 H 0.4551 0.46709 0.74449 0.0
H502 H 0.45269 0.46238 0.86616 0.0
H503 H 0.43039 0.44196 0.79106 0.0
H504 H 0.4278 0.36292 0.82453 0.0
H505 H 0.42594 0.3631 0.99168 0.0
H506 H 0.4597 0.43768 0.99211 0.0
C507 C 0.46127 0.4355 0.60922 0.0
C508 C 0.45479 0.41956 0.53561 0.0
C509 C 0.44399 0.39576 0.55566 0.0
C510 C 0.43978 0.38782 0.64581 0.0
C511 C 0.44659 0.40382 0.7165 0.0
C512 C 0.457 0.42715 0.70005 0.0
C513 C 0.46268 0.44035 0.79049 0.0
C514 C 0.48903 0.45643 0.80052 0.0
C515 C 0.44943 0.45374 0.79851 0.0
C516 C 0.45379 0.42074 0.85969 0.0
C517 C 0.44465 0.3999 0.81431 0.0
C518 C 0.43493 0.37912 0.86088 0.0
C519 C 0.43401 0.37944 0.95622 0.0
C520 C 0.44284 0.40035 0.00563 0.0
C521 C 0.45321 0.42143 0.95657 0.0
H522 H 0.56675 0.29234 0.36602 0.0
H523 H 0.55211 0.22196 0.39831 0.0
H524 H 0.54336 0.215 0.23424 0.0
H525 H 0.52248 0.28149 0.22572 0.0
H526 H 0.5371 0.30574 0.15016 0.0
H527 H 0.54732 0.30763 0.26546 0.0
H528 H 0.58846 0.31816 0.2082 0.0
H529 H 0.57875 0.31739 0.09252 0.0
H530 H 0.59162 0.30014 0.12427 0.0
H531 H 0.52773 0.21291 0.08161 0.0
H532 H 0.51679 0.21859 0.92824 0.0
H533 H 0.54331 0.29107 0.98821 0.0
C534 C 0.56305 0.27594 0.33732 0.0
C535 C 0.56012 0.25766 0.3939 0.0
C536 C 0.5545 0.23613 0.35527 0.0
C537 C 0.54932 0.23197 0.26256 0.0
C538 C 0.55029 0.24969 0.20994 0.0
C539 C 0.5579 0.27153 0.24446 0.0
C540 C 0.55595 0.28697 0.17355 0.0
C541 C 0.53975 0.29597 0.2057 0.0
C542 C 0.58013 0.30684 0.1481 0.0
C543 C 0.54523 0.27007 0.09551 0.0
C544 C 0.54188 0.24864 0.11885 0.0
C545 C 0.5308 0.22974 0.06126 0.0
C546 C 0.52427 0.23311 0.97475 0.0
C547 C 0.52929 0.25536 0.94622 0.0
C548 C 0.53932 0.27393 0.00832 0.0
H549 H 0.0678 0.25942 0.38247 0.0
H550 H 1.04151 0.30715 0.39803 0.0
H551 H 1.03816 0.30641 0.22943 0.0
H552 H 0.09837 0.27659 0.16025 0.0
H553 H 0.08796 0.24705 0.1279 0.0
H554 H 0.09294 0.25532 0.24656 0.0
H555 H 0.05051 0.22425 0.28331 0.0
H556 H 1.04517 0.2162 0.16468 0.0
H557 H 1.02688 0.22479 0.22436 0.0
H558 H 1.03179 0.29577 0.06687 0.0
H559 H 1.02531 0.27821 0.91428 0.0
H560 H 0.05498 0.2364 0.00337 0.0
C561 C 0.06258 0.27067 0.34972 0.0
C562 C 0.05573 0.28404 0.4016 0.0
C563 C 0.04746 0.2974 0.3581 0.0
C564 C 1.04539 0.29694 0.26293 0.0
C565 C 0.05126 0.28268 0.21374 0.0
C566 C 0.05975 0.26983 0.25544 0.0
C567 C 0.06147 0.25335 0.18921 0.0
C568 C 0.0867 0.2584 0.18041 0.0
C569 C 1.04504 0.22818 0.21709 0.0
C570 C 0.05305 0.25926 0.10304 0.0
C571 C 1.047 0.27602 0.11928 0.0
C572 C 1.03676 0.2829 0.05288 0.0
C573 C 1.03287 0.2726 0.96704 0.0
C574 C 1.03949 0.25586 0.94834 0.0
C575 C 0.04983 0.24918 0.0167 0.0
H576 H 1.03169 0.72694 0.35678 0.0
H577 H 1.02467 0.78708 0.41325 0.0
H578 H 1.03867 0.80166 0.25971 0.0
H579 H 0.08225 0.7534 0.22006 0.0
H580 H 0.07255 0.73068 0.13656 0.0
H581 H 0.06198 0.72423 0.25225 0.0
H582 H 1.01932 0.70536 0.19504 0.0
H583 H 1.02977 0.71101 0.07923 0.0
H584 H 1.01084 0.72128 0.12009 0.0
H585 H 0.05652 0.81174 0.10869 0.0
H586 H 0.06565 0.81134 0.94676 0.0
H587 H 0.0583 0.74345 0.98017 0.0
C588 C 1.03267 0.74292 0.33597 0.0
C589 C 1.02733 0.75595 0.39719 0.0
C590 C 1.02861 0.77672 0.36761 0.0
C591 C 1.03692 0.7854 0.28094 0.0
C592 C 1.04333 0.77285 0.2242 0.0
C593 C 1.04039 0.75163 0.24851 0.0
C594 C 1.04673 0.74088 0.17061 0.0
C595 C 0.06709 0.73708 0.19648 0.0
C596 C 1.0254 0.71831 0.13936 0.0
C597 C 0.05394 0.7596 0.09957 0.0
C598 C 0.05239 0.77808 0.13323 0.0
C599 C 0.05762 0.79731 0.0808 0.0
C600 C 0.06296 0.79696 0.98897 0.0
C601 C 0.06232 0.77719 0.95043 0.0
C602 C 0.05902 0.75884 0.00762 0.0
H603 H 0.38918 0.43258 0.32559 0.0
H604 H 0.4304 0.45908 0.07948 0.0
H605 H 0.40239 0.47041 0.0213 0.0
H606 H 0.33289 0.41017 0.22273 0.0
H607 H 0.32079 0.41866 0.31533 0.0
H608 H 0.34404 0.41261 0.33698 0.0
H609 H 0.36847 0.4529 0.41017 0.0
H610 H 0.34529 0.45903 0.38855 0.0
H611 H 0.37409 0.47809 0.34583 0.0
H612 H 0.36822 0.47606 0.9848 0.0
H613 H 0.33392 0.48098 0.98014 0.0
H614 H 0.31649 0.45476 0.25746 0.0
C615 C 0.39245 0.441 0.25984 0.0
C616 C 0.41215 0.44503 0.20723 0.0
C617 C 0.41571 0.45608 0.12158 0.0
C618 C 0.39974 0.46239 0.08764 0.0
C619 C 0.3804 0.45792 0.14065 0.0
C620 C 0.37692 0.44789 0.22575 0.0
C621 C 0.35507 0.44566 0.27002 0.0
C622 C 0.33713 0.42027 0.28724 0.0
C623 C 0.3611 0.45977 0.3589 0.0
C624 C 0.34672 0.45592 0.19631 0.0
C625 C 0.36143 0.46251 0.12183 0.0
C626 C 0.35693 0.4715 0.04374 0.0
C627 C 0.33734 0.47445 0.0423 0.0
C628 C 0.32243 0.46901 0.11931 0.0
C629 C 0.32724 0.45925 0.19698 0.0
H630 H 0.86357 0.85171 0.14902 0.0
H631 H 0.78884 0.81712 0.1842 0.0
H632 H 0.7908 0.85467 0.20818 0.0
H633 H 0.8803 0.89838 0.31257 0.0
H634 H 0.90265 0.91861 0.23724 0.0
H635 H 0.89387 0.88863 0.23041 0.0
H636 H 0.88673 0.89163 0.05657 0.0
H637 H 0.89375 0.92117 0.06988 0.0
H638 H 0.86603 0.90033 0.02285 0.0
H639 H 0.80077 0.89638 0.22589 0.0
H640 H 0.81807 0.9386 0.24112 0.0
H641 H 0.88659 0.94688 0.19652 0.0
C642 C 0.84768 0.85212 0.16218 0.0
C643 C 0.82599 0.8314 0.16496 0.0
C644 C 0.80558 0.83271 0.18133 0.0
C645 C 0.80655 0.854 0.19513 0.0
C646 C 0.82809 0.87413 0.19129 0.0
C647 C 0.8483 0.87341 0.17476 0.0
C648 C 0.86908 0.89769 0.17104 0.0
C649 C 0.88753 0.90099 0.24231 0.0
C650 C 0.87951 0.90301 0.07435 0.0
C651 C 0.85761 0.91207 0.19331 0.0
C652 C 0.83385 0.89813 0.20246 0.0
C653 C 0.81937 0.90743 0.21927 0.0
C654 C 0.82935 0.93149 0.2276 0.0
C655 C 0.8537 0.94621 0.22095 0.0
C656 C 0.86793 0.93618 0.20333 0.0
H657 H 0.44835 0.98396 0.09889 0.0
H658 H 0.4809 0.96196 0.30207 0.0
H659 H 0.44338 0.92669 0.32898 0.0
H660 H 0.39445 0.9642 0.22273 0.0
H661 H 0.37628 0.95511 0.12232 0.0
H662 H 0.40593 0.97813 0.11474 0.0
H663 H 0.41388 0.95611 0.98694 0.0
H664 H 0.38426 0.93294 0.99435 0.0
H665 H 0.40795 0.92715 0.00757 0.0
H666 H 0.40244 0.89284 0.33096 0.0
H667 H 0.36007 0.86545 0.32165 0.0
H668 H 0.35257 0.91034 0.12856 0.0
C669 C 0.44755 0.9716 0.14849 0.0
C670 C 0.46772 0.97572 0.19798 0.0
C671 C 0.46579 0.95926 0.26336 0.0
C672 C 0.44453 0.93908 0.27887 0.0
C673 C 0.42502 0.93549 0.22929 0.0
C674 C 0.42619 0.95144 0.16638 0.0
C675 C 0.40221 0.94381 0.12608 0.0
C676 C 0.39425 0.96136 0.14779 0.0
C677 C 0.40207 0.93977 0.02259 0.0
C678 C 0.38748 0.92123 0.17642 0.0
C679 C 0.4011 0.91654 0.23421 0.0
C680 C 0.39161 0.89638 0.28606 0.0
C681 C 0.36755 0.8808 0.27988 0.0
C682 C 0.35308 0.88562 0.2239 0.0
C683 C 0.36327 0.90614 0.17153 0.0
H684 H 0.6175 0.17875 0.02753 0.0
H685 H 0.55713 0.11434 0.94892 0.0
H686 H 0.54075 0.1361 0.87058 0.0
H687 H 0.58586 0.21027 0.06757 0.0
H688 H 0.60946 0.23691 0.02547 0.0
H689 H 0.61543 0.21617 0.0792 0.0
H690 H 0.63805 0.2157 0.9356 0.0
H691 H 0.63213 0.23637 0.88135 0.0
H692 H 0.62388 0.20934 0.82563 0.0
H693 H 0.53199 0.16607 0.79371 0.0
H694 H 0.53178 0.2003 0.73019 0.0
H695 H 0.59828 0.24447 0.85847 0.0
C696 C 0.60064 0.16912 0.99502 0.0
C697 C 0.58852 0.14471 0.99522 0.0
C698 C 0.56658 0.13296 0.95129 0.0
C699 C 0.55723 0.14524 0.90603 0.0
C700 C 0.56986 0.16932 0.90608 0.0
C701 C 0.59102 0.18107 0.95051 0.0
C702 C 0.60144 0.20691 0.94026 0.0
C703 C 0.60315 0.21823 0.03366 0.0
C704 C 0.62528 0.2177 0.89286 0.0
C705 C 0.58333 0.20799 0.88013 0.0
C706 C 0.56505 0.1862 0.86195 0.0
C707 C 0.54629 0.18313 0.80782 0.0
C708 C 0.54631 0.2027 0.77144 0.0
C709 C 0.56509 0.22512 0.78783 0.0
C710 C 0.5837 0.2276 0.84368 0.0
H711 H 0.08854 0.31447 0.89377 0.0
H712 H 0.07215 0.33796 0.64334 0.0
H713 H 0.0998 0.37808 0.68508 0.0
H714 H 0.09285 0.35945 0.03459 0.0
H715 H 0.1171 0.36301 0.10285 0.0
H716 H 0.09791 0.33557 0.05095 0.0
H717 H 0.1329 0.33586 0.97104 0.0
H718 H 0.15226 0.36328 0.02315 0.0
H719 H 0.15197 0.36003 0.90081 0.0
H720 H 0.12431 0.41501 0.75881 0.0
H721 H 0.14772 0.44825 0.8563 0.0
H722 H 0.1527 0.40402 0.06072 0.0
C723 C 0.09157 0.32809 0.84643 0.0
C724 C 0.0787 0.32304 0.76348 0.0
C725 C 0.08222 0.34137 0.70561 0.0
C726 C 0.09782 0.36425 0.7291 0.0
C727 C 0.10997 0.36879 0.81127 0.0
C728 C 0.10737 0.35138 0.86905 0.0
C729 C 0.12203 0.3617 0.95545 0.0
C730 C 0.10655 0.3545 0.04102 0.0
C731 C 0.14091 0.3548 0.96307 0.0
C732 C 0.13283 0.38751 0.93739 0.0
C733 C 0.12536 0.39087 0.85348 0.0
C734 C 0.13095 0.41264 0.82303 0.0
C735 C 0.14458 0.43155 0.87891 0.0
C736 C 0.1534 0.42916 0.96409 0.0
C737 C 0.14732 0.40665 0.9941 0.0
H738 H 0.95533 0.70163 0.74863 0.0
H739 H 0.99862 0.77265 0.83227 0.0
H740 H 0.96529 0.77101 0.916 0.0
H741 H 0.90163 0.70302 0.71863 0.0
H742 H 0.88374 0.6745 0.76369 0.0
H743 H 0.91075 0.6818 0.7077 0.0
H744 H 0.92447 0.66924 0.85144 0.0
H745 H 0.89749 0.66193 0.90762 0.0
H746 H 0.92475 0.68189 0.96063 0.0
H747 H 0.92595 0.7611 0.99206 0.0
H748 H 0.88583 0.74344 0.0551 0.0
H749 H 0.86975 0.67881 0.92558 0.0
C750 C 0.95777 0.71692 0.78385 0.0
C751 C 0.97962 0.73737 0.78284 0.0
C752 C 0.98205 0.75686 0.83109 0.0
C753 C 0.96317 0.75606 0.87911 0.0
C754 C 0.94188 0.73558 0.87915 0.0
C755 C 0.93917 0.71634 0.83285 0.0
C756 C 0.91481 0.69619 0.84553 0.0
C757 C 0.90198 0.68843 0.75342 0.0
C758 C 0.91543 0.67614 0.89422 0.0
C759 C 0.90421 0.70704 0.90606 0.0
C760 C 0.91991 0.72981 0.9245 0.0
C761 C 0.91359 0.74323 0.97813 0.0
C762 C 0.89075 0.7331 0.01373 0.0
C763 C 0.87453 0.70967 0.99659 0.0
C764 C 0.88162 0.6967 0.94164 0.0
H765 H 0.09006 0.66004 0.99308 0.0
H766 H 1.0272 0.61298 0.8457 0.0
H767 H 1.03334 0.58077 0.88615 0.0
H768 H 0.12354 0.63657 0.91981 0.0
H769 H 0.13871 0.63993 0.02603 0.0
H770 H 0.1278 0.65907 0.99875 0.0
H771 H 0.10446 0.64842 0.1499 0.0
H772 H 0.11553 0.62941 0.17831 0.0
H773 H 0.08461 0.61863 0.1754 0.0
H774 H 0.0477 0.55464 0.92717 0.0
H775 H 0.06946 0.53508 0.97187 0.0
H776 H 0.12422 0.59876 0.08704 0.0
C777 C 0.07734 0.64286 0.97122 0.0
C778 C 0.05795 0.63893 0.91757 0.0
C779 C 1.04179 0.61629 0.88917 0.0
C780 C 1.04522 0.5979 0.91112 0.0
C781 C 0.06481 0.60244 0.9618 0.0
C782 C 0.08054 0.62427 0.9923 0.0
C783 C 0.10096 0.62454 0.04043 0.0
C784 C 0.12411 0.641 0.99338 0.0
C785 C 0.10141 0.63061 0.14205 0.0
C786 C 0.0947 0.59966 0.02824 0.0
C787 C 0.07353 0.58722 0.98417 0.0
C788 C 0.06411 0.56403 0.96298 0.0
C789 C 0.07653 0.55312 0.98845 0.0
C790 C 0.0982 0.5655 0.03342 0.0
C791 C 0.10754 0.58906 0.05322 0.0
H792 H 0.73205 0.50302 0.07037 0.0
H793 H 0.697 0.53492 0.93457 0.0
H794 H 0.66295 0.49666 0.90602 0.0
H795 H 0.71581 0.45844 0.91854 0.0
H796 H 0.71142 0.43664 0.00082 0.0
H797 H 0.73135 0.46639 0.02567 0.0
H798 H 0.709 0.46338 0.17502 0.0
H799 H 0.68899 0.43351 0.15068 0.0
H800 H 0.67819 0.45314 0.17028 0.0
H801 H 0.63489 0.4559 0.87884 0.0
H802 H 0.61495 0.41433 0.84564 0.0
H803 H 0.66858 0.40823 0.99223 0.0
C804 C 0.71688 0.50184 0.03704 0.0
C805 C 0.71686 0.52171 0.00517 0.0
C806 C 0.69713 0.51975 0.95949 0.0
C807 C 0.67773 0.49817 0.94364 0.0
C808 C 0.6784 0.47882 0.97415 0.0
C809 C 0.69742 0.48036 0.01985 0.0
C810 C 0.69457 0.45675 0.03651 0.0
C811 C 0.71446 0.45443 0.9927 0.0
C812 C 0.69257 0.45138 0.13924 0.0
C813 C 0.67163 0.44188 0.98849 0.0
C814 C 0.6623 0.45495 0.95571 0.0
C815 C 0.64174 0.44538 0.90562 0.0
C816 C 0.63051 0.42181 0.88745 0.0
C817 C 0.64014 0.40825 0.91791 0.0
C818 C 0.6608 0.41832 0.96974 0.0
H819 H 0.8955 0.23416 0.99894 0.0
H820 H 0.88815 0.22605 0.70457 0.0
H821 H 0.8456 0.20696 0.71913 0.0
H822 H 0.84374 0.18 0.05776 0.0
H823 H 0.8358 0.19195 0.15242 0.0
H824 H 0.86591 0.20409 0.12067 0.0
H825 H 0.86929 0.24416 0.10411 0.0
H826 H 0.8392 0.23216 0.13563 0.0
H827 H 0.84951 0.24754 0.02952 0.0
H828 H 0.80502 0.18929 0.76174 0.0
H829 H 0.76662 0.17572 0.83107 0.0
H830 H 0.79868 0.19604 0.09916 0.0
C831 C 0.88477 0.22833 0.93813 0.0
C832 C 0.8948 0.23165 0.85056 0.0
C833 C 0.88054 0.22385 0.77192 0.0
C834 C 0.85645 0.21287 0.77953 0.0
C835 C 0.84696 0.20994 0.86631 0.0
C836 C 0.86048 0.21754 0.94439 0.0
C837 C 0.84544 0.21294 0.02855 0.0
C838 C 0.84787 0.19625 0.09368 0.0
C839 C 0.8512 0.23555 0.07729 0.0
C840 C 0.8215 0.20179 0.98478 0.0
C841 C 0.82296 0.19999 0.8913 0.0
C842 C 0.80351 0.19043 0.83492 0.0
C843 C 0.7818 0.18263 0.87496 0.0
C844 C 0.77976 0.18461 0.97028 0.0
C845 C 0.79986 0.19427 0.02609 0.0
H846 H 0.69842 0.10679 0.12473 0.0
H847 H 0.63717 0.03895 0.11284 0.0
H848 H 0.66215 1.02138 0.13347 0.0
H849 H 0.73765 0.09416 0.00528 0.0
H850 H 0.76239 0.11133 0.07764 0.0
H851 H 0.74003 0.11895 0.06402 0.0
H852 H 0.73391 0.11767 0.23802 0.0
H853 H 0.75658 0.11048 0.25342 0.0
H854 H 0.7281 0.09219 0.30055 0.0
H855 H 0.69383 1.01108 0.15545 0.0
H856 H 0.72953 1.00871 0.17907 0.0
H857 H 0.77072 0.08314 0.17624 0.0
C858 C 0.69019 0.0882 0.12599 0.0
C859 C 0.66565 0.07425 0.11628 0.0
C860 C 0.65578 0.05004 0.1199 0.0
C861 C 0.66988 0.03991 0.13153 0.0
C862 C 0.69391 0.05414 0.14051 0.0
C863 C 0.704 0.0778 0.13857 0.0
C864 C 0.73024 0.08919 0.15203 0.0
C865 C 0.74335 0.10428 0.06975 0.0
C866 C 0.73764 0.10321 0.2413 0.0
C867 C 0.73346 0.06825 0.15878 0.0
C868 C 0.7122 0.04822 0.15312 0.0
C869 C 0.71051 0.02667 0.16006 0.0
C870 C 0.73091 1.02549 0.17379 0.0
C871 C 0.75295 0.04569 0.17981 0.0
C872 C 0.75418 0.06738 0.17133 0.0
H873 H 0.21526 0.66832 0.1669 0.0
H874 H 0.29019 0.7006 0.19603 0.0
H875 H 0.28784 0.66293 0.17637 0.0
H876 H 0.20225 0.61626 0.29025 0.0
H877 H 0.17818 0.59749 0.21784 0.0
H878 H 0.18548 0.62705 0.233 0.0
H879 H 0.18917 0.63298 0.05811 0.0
H880 H 0.18185 0.60344 0.04252 0.0
H881 H 0.20844 0.62621 0.99514 0.0
H882 H 0.27762 0.62145 0.15704 0.0
H883 H 0.26012 0.57943 0.13406 0.0
H884 H 0.19187 0.57342 0.11475 0.0
C885 C 0.23116 0.66745 0.16862 0.0
C886 C 0.25293 0.68759 0.18416 0.0
C887 C 0.27327 0.68553 0.18616 0.0
C888 C 0.27214 0.66415 0.17453 0.0
C889 C 0.2505 0.64466 0.16089 0.0
C890 C 0.23034 0.64605 0.15768 0.0
C891 C 0.20929 0.62224 0.14351 0.0
C892 C 0.19283 0.61536 0.22607 0.0
C893 C 0.19644 0.62117 0.05449 0.0
C894 C 0.22088 0.60746 0.13746 0.0
C895 C 0.24464 0.62072 0.1486 0.0
C896 C 0.25902 0.61091 0.14786 0.0
C897 C 0.24892 0.58696 0.13496 0.0
C898 C 0.22464 0.57296 0.12197 0.0
C899 C 0.21053 0.58354 0.12353 0.0
H900 H 0.72182 0.62668 0.24393 0.0
H901 H 0.72418 0.63436 0.94971 0.0
H902 H 0.68317 0.60369 0.93889 0.0
H903 H 0.68713 0.56567 0.24441 0.0
H904 H 0.67013 0.56369 0.34366 0.0
H905 H 0.69912 0.5877 0.33126 0.0
H906 H 0.68334 0.61601 0.34826 0.0
H907 H 0.65431 0.59206 0.36149 0.0
H908 H 0.66033 0.61318 0.27393 0.0
H909 H 0.64316 0.57056 0.95672 0.0
H910 H 0.60533 0.53828 0.00266 0.0
H911 H 0.62701 0.55052 0.28687 0.0
C912 C 0.71335 0.62245 0.17782 0.0
C913 C 0.72601 0.63353 0.09758 0.0
C914 C 0.71466 0.62665 0.01197 0.0
C915 C 0.69139 0.60908 0.00515 0.0
C916 C 0.67947 0.59823 0.0847 0.0
C917 C 0.68988 0.6047 0.16972 0.0
C918 C 0.6731 0.58929 0.24353 0.0
C919 C 0.68296 0.57579 0.29366 0.0
C920 C 0.66743 0.60349 0.3108 0.0
C921 C 0.65182 0.57324 0.18652 0.0
C922 C 0.65608 0.57875 0.09505 0.0
C923 C 0.63959 0.56618 0.02824 0.0
C924 C 0.61812 0.54765 0.05517 0.0
C925 C 0.61297 0.54153 0.14848 0.0
C926 C 0.63019 0.55472 0.21504 0.0
H927 H 1.01531 0.88128 0.3282 0.0
H928 H 0.97642 0.8513 0.57659 0.0
H929 H 0.95616 0.87358 0.5587 0.0
H930 H 1.02439 0.93674 0.35949 0.0
H931 H 1.02004 0.94194 0.24226 0.0
H932 H 1.03008 0.92203 0.26833 0.0
H933 H 0.99553 0.88994 0.17801 0.0
H934 H 0.98549 0.90985 0.15078 0.0
H935 H 0.96625 0.88299 0.20613 0.0
H936 H 0.94416 0.90165 0.5272 0.0
H937 H 0.93782 0.9329 0.47639 0.0
H938 H 0.98164 0.94355 0.23938 0.0
C939 C 1.00212 0.87917 0.37709 0.0
C940 C 0.99703 0.86461 0.45314 0.0
C941 C 0.9801 0.86227 0.51739 0.0
C942 C 0.96859 0.87481 0.50786 0.0
C943 C 0.97406 0.88928 0.43296 0.0
C944 C 0.9901 0.89135 0.36773 0.0
C945 C 0.99305 0.90885 0.29577 0.0
C946 C 1.01839 0.92856 0.29128 0.0
C947 C 0.98457 0.89721 0.20212 0.0
C948 C 0.97701 0.91697 0.33369 0.0
C949 C 0.9662 0.90524 0.41245 0.0
C950 C 0.95189 0.91054 0.46408 0.0
C951 C 0.9483 0.92827 0.43411 0.0
C952 C 0.95873 0.94035 0.35252 0.0
C953 C 0.97328 0.93455 0.30163 0.0
H954 H 0.41664 0.11211 0.31717 0.0
H955 H 0.43129 0.10341 0.59851 0.0
H956 H 0.40981 0.06129 0.57911 0.0
H957 H 0.35866 0.0656 0.31496 0.0
H958 H 0.3595 0.05648 0.19971 0.0
H959 H 0.37781 0.08612 0.23203 0.0
H960 H 0.4142 0.08441 0.17797 0.0
H961 H 0.39599 0.05476 0.14498 0.0
H962 H 0.41982 0.06258 0.22314 0.0
H963 H 0.38605 1.02119 0.53407 0.0
H964 H 0.35894 0.98362 0.46663 0.0
H965 H 0.35812 1.01708 0.21376 0.0
C966 C 0.41532 0.10118 0.37394 0.0
C967 C 0.42529 0.11061 0.45941 0.0
C968 C 0.42343 0.09616 0.53294 0.0
C969 C 0.41146 0.07235 0.52241 0.0
C970 C 0.40151 0.06339 0.43787 0.0
C971 C 0.40316 0.0772 0.36482 0.0
C972 C 0.38959 0.06282 0.28327 0.0
C973 C 0.37024 0.06806 0.25593 0.0
C974 C 0.40587 0.06636 0.20257 0.0
C975 C 0.37971 0.03889 0.32304 0.0
C976 C 0.3872 0.03976 0.4118 0.0
C977 C 0.38022 1.02015 0.46425 0.0
C978 C 0.36495 0.99891 0.42515 0.0
C979 C 0.35674 0.9975 0.33474 0.0
C980 C 0.36427 1.01775 0.28288 0.0
H981 H 0.18483 0.27303 0.37519 0.0
H982 H 0.1888 0.33364 0.50149 0.0
H983 H 0.22952 0.35661 0.45203 0.0
H984 H 0.23704 0.28207 0.45105 0.0
H985 H 0.24495 0.27187 0.35063 0.0
H986 H 0.21482 0.26134 0.37645 0.0
H987 H 0.20865 0.27428 0.21722 0.0
H988 H 0.23886 0.28481 0.19048 0.0
H989 H 0.22681 0.30372 0.18209 0.0
H990 H 0.27083 0.37109 0.41722 0.0
H991 H 0.31015 0.37617 0.3974 0.0
H992 H 0.28034 0.30663 0.2933 0.0
C993 C 0.19413 0.29126 0.39058 0.0
C994 C 0.1836 0.30157 0.44174 0.0
C995 C 0.19633 0.32545 0.46078 0.0
C996 C 0.2195 0.33864 0.43309 0.0
C997 C 0.22962 0.32777 0.38569 0.0
C998 C 0.21731 0.30465 0.36376 0.0
C999 C 0.23298 0.29653 0.32234 0.0
C1000 C 0.23241 0.2768 0.37852 0.0
C1001 C 0.22643 0.28942 0.22205 0.0
C1002 C 0.25629 0.31836 0.32979 0.0
C1003 C 0.25384 0.3363 0.36462 0.0
C1004 C 0.27297 0.35744 0.38734 0.0
C1005 C 0.29518 0.36019 0.37597 0.0
C1006 C 0.29802 0.34197 0.34195 0.0
C1007 C 0.27843 0.32098 0.31666 0.0
H1008 H 0.48836 0.2776 0.44354 0.0
H1009 H 0.53919 0.31989 0.64641 0.0
H1010 H 0.53843 0.35414 0.58847 0.0
H1011 H 0.50768 0.32098 0.26062 0.0
H1012 H 0.47842 0.31197 0.22362 0.0
H1013 H 0.48521 0.29147 0.2744 0.0
H1014 H 0.45296 0.28132 0.39508 0.0
H1015 H 0.44616 0.30184 0.34505 0.0
H1016 H 0.45353 0.30388 0.46458 0.0
H1017 H 0.53101 0.38399 0.50935 0.0
H1018 H 0.51518 0.40566 0.42776 0.0
H1019 H 0.46633 0.34336 0.28554 0.0
C1020 C 0.49961 0.29415 0.47488 0.0
C1021 C 0.51483 0.2962 0.54715 0.0
C1022 C 0.52868 0.31807 0.58759 0.0
C1023 C 0.52798 0.3376 0.55583 0.0
C1024 C 0.51302 0.33504 0.48382 0.0
C1025 C 0.49891 0.31377 0.44439 0.0
C1026 C 0.48326 0.31535 0.37197 0.0
C1027 C 0.48899 0.3096 0.27703 0.0
C1028 C 0.45745 0.29967 0.39564 0.0
C1029 C 0.49025 0.34065 0.37863 0.0
C1030 C 0.50785 0.35185 0.44201 0.0
C1031 C 0.51731 0.37536 0.45932 0.0
C1032 C 0.50836 0.38762 0.41195 0.0
C1033 C 0.48975 0.37637 0.34916 0.0
C1034 C 0.48073 0.35255 0.33231 0.0
H1035 H 0.92471 0.08455 0.47976 0.0
H1036 H 0.92557 0.10835 0.20425 0.0
H1037 H 0.95223 0.14849 0.25435 0.0
H1038 H 0.92747 0.13689 0.59424 0.0
H1039 H 0.94428 0.13497 0.68727 0.0
H1040 H 0.92343 0.10937 0.62792 0.0
H1041 H 0.95707 0.10018 0.59878 0.0
H1042 H 0.97766 0.12665 0.65348 0.0
H1043 H 0.98259 0.12083 0.53779 0.0
H1044 H 0.98011 0.18604 0.33428 0.0
H1045 H 1.00661 0.21777 0.43597 0.0
H1046 H 0.98862 0.16976 0.66055 0.0
C1047 C 0.93 0.09835 0.43074 0.0
C1048 C 0.92255 0.09346 0.33844 0.0
C1049 C 0.93043 0.11181 0.27561 0.0
C1050 C 0.94574 0.13463 0.3035 0.0
C1051 C 0.9529 0.1389 0.39485 0.0
C1052 C 0.94502 0.12128 0.45791 0.0
C1053 C 0.95555 0.1305 0.55174 0.0
C1054 C 0.93658 0.12776 0.61935 0.0
C1055 C 0.96902 0.11884 0.58748 0.0
C1056 C 0.97166 0.15578 0.53061 0.0
C1057 C 0.9694 0.16035 0.44018 0.0
C1058 C 0.98187 0.18259 0.40517 0.0
C1059 C 0.99685 0.20057 0.46377 0.0
C1060 C 0.99973 0.19634 0.55651 0.0
C1061 C 0.98692 0.17355 0.59 0.0
H1062 H 0.09381 0.77264 0.42335 0.0
H1063 H 0.11775 0.80629 0.68583 0.0
H1064 H 0.15788 0.81571 0.64777 0.0
H1065 H 0.13475 0.74945 0.40726 0.0
H1066 H 0.13932 0.75482 0.28637 0.0
H1067 H 0.11195 0.74854 0.33683 0.0
H1068 H 0.11654 0.78692 0.27231 0.0
H1069 H 0.14341 0.7924 0.21992 0.0
H1070 H 0.14289 0.8134 0.29582 0.0
H1071 H 0.19552 0.82481 0.57763 0.0
H1072 H 0.229 0.83268 0.48049 0.0
H1073 H 0.18243 0.79347 0.25986 0.0
C1074 C 0.10747 0.78137 0.47355 0.0
C1075 C 0.10265 0.78824 0.55882 0.0
C1076 C 0.12104 0.80044 0.62133 0.0
C1077 C 0.14389 0.80592 0.60008 0.0
C1078 C 0.14823 0.79916 0.5155 0.0
C1079 C 0.13061 0.7871 0.45304 0.0
C1080 C 0.14056 0.78328 0.36484 0.0
C1081 C 0.13107 0.75748 0.3478 0.0
C1082 C 0.13555 0.79467 0.28339 0.0
C1083 C 0.16647 0.7954 0.38699 0.0
C1084 C 0.17032 0.80426 0.47477 0.0
C1085 C 0.19268 0.81736 0.50991 0.0
C1086 C 0.21162 0.8216 0.45435 0.0
C1087 C 0.20838 0.81284 0.36412 0.0
C1088 C 0.18542 0.79952 0.32986 0.0
loop_
_geom_bond_atom_site_label_1
_geom_bond_atom_site_label_2
_geom_bond_distance
_geom_bond_site_symmetry_2
_ccdc_geom_bond_type
C0 Eu1 2.835 . S
C0 C2 1.500 . S
C0 O20 1.257 . S
C0 O21 1.260 . S
Eu1 C0 2.835 . S
Eu1 O20 2.473 . S
Eu1 O21 2.480 . S
Eu1 O22 2.430 . S
Eu1 O23 2.670 . S
Eu1 O24 2.394 . S
Eu1 O29 2.355 . S
Eu1 O31 2.374 . S
C2 C0 1.500 . S
C2 C3 1.377 . S
C2 C7 1.377 1_554 S
C3 C2 1.377 . S
C3 C4 1.395 . S
C3 H32 0.931 . S
C4 C3 1.395 . S
C4 C5 1.383 . S
C4 H33 0.931 . S
C5 C4 1.383 . S
C5 C6 1.394 1_554 S
C6 C5 1.394 1_556 S
C6 C7 1.378 . S
C6 H34 0.931 . S
C7 C2 1.377 1_556 S
C7 C6 1.378 . S
C7 H35 0.931 . S
C8 O22 1.259 . S
C8 O23 1.270 . S
C9 O24 1.251 . S
C9 O25 1.251 . S
C10 Eu11 2.835 . S
C10 C12 1.500 . S
C10 O26 1.257 . S
C10 O27 1.260 . S
Eu11 C10 2.835 . S
Eu11 O23 2.355 . S
Eu11 O25 2.374 . S
Eu11 O26 2.473 . S
Eu11 O27 2.480 . S
Eu11 O28 2.430 1_554 S
Eu11 O29 2.670 . S
Eu11 O30 2.394 . S
C12 C10 1.500 . S
C12 C13 1.377 . S
C12 C17 1.377 . S
C13 C12 1.377 . S
C13 C14 1.395 . S
C13 H36 0.931 . S
C14 C13 1.395 . S
C14 C15 1.383 . S
C14 H37 0.931 . S
C15 C14 1.383 . S
C15 C16 1.394 . S
C16 C15 1.394 . S
C16 C17 1.378 . S
C16 H38 0.931 . S
C17 C12 1.377 . S
C17 C16 1.378 . S
C17 H39 0.931 . S
C18 O28 1.259 . S
C18 O29 1.270 1_556 S
C19 O30 1.251 . S
C19 O31 1.251 . S
O20 C0 1.257 . S
O20 Eu1 2.473 . S
O21 C0 1.260 . S
O21 Eu1 2.480 . S
O22 Eu1 2.430 . S
O22 C8 1.259 . S
O23 Eu1 2.670 . S
O23 C8 1.270 . S
O23 Eu11 2.355 . S
O24 Eu1 2.394 . S
O24 C9 1.251 . S
O25 C9 1.251 . S
O25 Eu11 2.374 . S
O26 C10 1.257 . S
O26 Eu11 2.473 . S
O27 C10 1.260 . S
O27 Eu11 2.480 . S
O28 Eu11 2.430 1_556 S
O28 C18 1.259 . S
O29 Eu1 2.355 . S
O29 Eu11 2.670 . S
O29 C18 1.270 1_554 S
O30 Eu11 2.394 . S
O30 C19 1.251 . S
O31 Eu1 2.374 . S
O31 C19 1.251 . S
H32 C3 0.931 . S
H33 C4 0.931 . S
H34 C6 0.931 . S
H35 C7 0.931 . S
H36 C13 0.931 . S
H37 C14 0.931 . S
H38 C16 0.931 . S
H39 C17 0.931 . S
C40 Eu41 2.835 . S
C40 C42 1.500 . S
C40 O60 1.257 . S
C40 O61 1.260 . S
Eu41 C40 2.835 . S
Eu41 O60 2.473 . S
Eu41 O61 2.480 . S
Eu41 O62 2.430 . S
Eu41 O63 2.670 . S
Eu41 O64 2.394 . S
Eu41 O69 2.355 . S
Eu41 O71 2.374 . S
C42 C40 1.500 . S
C42 C43 1.377 . S
C42 C47 1.377 1_554 S
C43 C42 1.377 . S
C43 C44 1.395 . S
C43 H72 0.931 . S
C44 C43 1.395 . S
C44 C45 1.383 . S
C44 H73 0.931 . S
C45 C44 1.383 . S
C45 C46 1.394 1_554 S
C46 C45 1.394 1_556 S
C46 C47 1.378 . S
C46 H74 0.931 . S
C47 C42 1.377 1_556 S
C47 C46 1.378 . S
C47 H75 0.931 . S
C48 O62 1.259 . S
C48 O63 1.270 . S
C49 O64 1.251 . S
C49 O65 1.251 . S
C50 Eu51 2.835 . S
C50 C52 1.500 . S
C50 O66 1.257 . S
C50 O67 1.260 . S
Eu51 C50 2.835 . S
Eu51 O63 2.355 . S
Eu51 O65 2.374 . S
Eu51 O66 2.473 . S
Eu51 O67 2.480 . S
Eu51 O68 2.430 1_554 S
Eu51 O69 2.670 . S
Eu51 O70 2.394 . S
C52 C50 1.500 . S
C52 C53 1.377 . S
C52 C57 1.377 . S
C53 C52 1.377 . S
C53 C54 1.395 . S
C53 H76 0.931 . S
C54 C53 1.395 . S
C54 C55 1.383 . S
C54 H77 0.931 . S
C55 C54 1.383 . S
C55 C56 1.394 . S
C56 C55 1.394 . S
C56 C57 1.378 . S
C56 H78 0.931 . S
C57 C52 1.377 . S
C57 C56 1.378 . S
C57 H79 0.931 . S
C58 O68 1.259 . S
C58 O69 1.270 1_556 S
C59 O70 1.251 . S
C59 O71 1.251 . S
O60 C40 1.257 . S
O60 Eu41 2.473 . S
O61 C40 1.260 . S
O61 Eu41 2.480 . S
O62 Eu41 2.430 . S
O62 C48 1.259 . S
O63 Eu41 2.670 . S
O63 C48 1.270 . S
O63 Eu51 2.355 . S
O64 Eu41 2.394 . S
O64 C49 1.251 . S
O65 C49 1.251 . S
O65 Eu51 2.374 . S
O66 C50 1.257 . S
O66 Eu51 2.473 . S
O67 C50 1.260 . S
O67 Eu51 2.480 . S
O68 Eu51 2.430 1_556 S
O68 C58 1.259 . S
O69 Eu41 2.355 . S
O69 Eu51 2.670 . S
O69 C58 1.270 1_554 S
O70 Eu51 2.394 . S
O70 C59 1.251 . S
O71 Eu41 2.374 . S
O71 C59 1.251 . S
H72 C43 0.931 . S
H73 C44 0.931 . S
H74 C46 0.931 . S
H75 C47 0.931 . S
H76 C53 0.931 . S
H77 C54 0.931 . S
H78 C56 0.931 . S
H79 C57 0.931 . S
C80 Eu81 2.835 . S
C80 C82 1.500 . S
C80 O100 1.257 . S
C80 O101 1.260 . S
Eu81 C80 2.835 . S
Eu81 O100 2.473 . S
Eu81 O101 2.480 . S
Eu81 O102 2.430 . S
Eu81 O103 2.670 . S
Eu81 O104 2.394 . S
Eu81 O109 2.355 . S
Eu81 O111 2.374 . S
C82 C80 1.500 . S
C82 C83 1.377 . S
C82 C87 1.377 1_554 S
C83 C82 1.377 . S
C83 C84 1.395 . S
C83 H112 0.931 . S
C84 C83 1.395 . S
C84 C85 1.383 . S
C84 H113 0.931 . S
C85 C84 1.383 . S
C85 C86 1.394 1_554 S
C86 C85 1.394 1_556 S
C86 C87 1.378 . S
C86 H114 0.931 . S
C87 C82 1.377 1_556 S
C87 C86 1.378 . S
C87 H115 0.931 . S
C88 O102 1.259 . S
C88 O103 1.270 . S
C89 O104 1.251 . S
C89 O105 1.251 . S
C90 Eu91 2.835 . S
C90 C92 1.500 . S
C90 O106 1.257 . S
C90 O107 1.260 . S
Eu91 C90 2.835 . S
Eu91 O103 2.355 . S
Eu91 O105 2.374 . S
Eu91 O106 2.473 . S
Eu91 O107 2.480 . S
Eu91 O108 2.430 1_554 S
Eu91 O109 2.670 . S
Eu91 O110 2.394 . S
C92 C90 1.500 . S
C92 C93 1.377 . S
C92 C97 1.377 . S
C93 C92 1.377 . S
C93 C94 1.395 . S
C93 H116 0.931 . S
C94 C93 1.395 . S
C94 C95 1.383 . S
C94 H117 0.931 . S
C95 C94 1.383 . S
C95 C96 1.394 . S
C96 C95 1.394 . S
C96 C97 1.378 . S
C96 H118 0.931 . S
C97 C92 1.377 . S
C97 C96 1.378 . S
C97 H119 0.931 . S
C98 O108 1.259 . S
C98 O109 1.270 1_556 S
C99 O110 1.251 . S
C99 O111 1.251 . S
O100 C80 1.257 . S
O100 Eu81 2.473 . S
O101 C80 1.260 . S
O101 Eu81 2.480 . S
O102 Eu81 2.430 . S
O102 C88 1.259 . S
O103 Eu81 2.670 . S
O103 C88 1.270 . S
O103 Eu91 2.355 . S
O104 Eu81 2.394 . S
O104 C89 1.251 . S
O105 C89 1.251 . S
O105 Eu91 2.374 . S
O106 C90 1.257 . S
O106 Eu91 2.473 . S
O107 C90 1.260 . S
O107 Eu91 2.480 . S
O108 Eu91 2.430 1_556 S
O108 C98 1.259 . S
O109 Eu81 2.355 . S
O109 Eu91 2.670 . S
O109 C98 1.270 1_554 S
O110 Eu91 2.394 . S
O110 C99 1.251 . S
O111 Eu81 2.374 . S
O111 C99 1.251 . S
H112 C83 0.931 . S
H113 C84 0.931 . S
H114 C86 0.931 . S
H115 C87 0.931 . S
H116 C93 0.931 . S
H117 C94 0.931 . S
H118 C96 0.931 . S
H119 C97 0.931 . S
C120 Eu121 2.835 1_545 S
C120 C122 1.500 . S
C120 O140 1.257 . S
C120 O141 1.260 . S
Eu121 C120 2.835 1_565 S
Eu121 O140 2.473 1_565 S
Eu121 O141 2.480 1_565 S
Eu121 O142 2.430 . S
Eu121 O143 2.670 . S
Eu121 O144 2.394 1_565 S
Eu121 O149 2.355 . S
Eu121 O151 2.374 . S
C122 C120 1.500 . S
C122 C123 1.377 . S
C122 C127 1.377 . S
C123 C122 1.377 . S
C123 C124 1.395 . S
C123 H152 0.931 . S
C124 C123 1.395 . S
C124 C125 1.383 . S
C124 H153 0.931 . S
C125 C124 1.383 . S
C125 C126 1.394 . S
C126 C125 1.394 . S
C126 C127 1.378 . S
C126 H154 0.931 . S
C127 C122 1.377 . S
C127 C126 1.378 . S
C127 H155 0.931 . S
C128 O142 1.259 . S
C128 O143 1.270 . S
C129 O144 1.251 . S
C129 O145 1.251 . S
C130 Eu131 2.835 . S
C130 C132 1.500 . S
C130 O146 1.257 . S
C130 O147 1.260 . S
Eu131 C130 2.835 . S
Eu131 O143 2.355 . S
Eu131 O145 2.374 1_565 S
Eu131 O146 2.473 . S
Eu131 O147 2.480 . S
Eu131 O148 2.430 . S
Eu131 O149 2.670 . S
Eu131 O150 2.394 . S
C132 C130 1.500 . S
C132 C133 1.377 . S
C132 C137 1.377 . S
C133 C132 1.377 . S
C133 C134 1.395 . S
C133 H156 0.931 . S
C134 C133 1.395 . S
C134 C135 1.383 . S
C134 H157 0.931 . S
C135 C134 1.383 . S
C135 C136 1.394 . S
C136 C135 1.394 . S
C136 C137 1.378 . S
C136 H158 0.931 . S
C137 C132 1.377 . S
C137 C136 1.378 . S
C137 H159 0.931 . S
C138 O148 1.259 . S
C138 O149 1.270 . S
C139 O150 1.251 . S
C139 O151 1.251 . S
O140 C120 1.257 . S
O140 Eu121 2.473 1_545 S
O141 C120 1.260 . S
O141 Eu121 2.480 1_545 S
O142 Eu121 2.430 . S
O142 C128 1.259 . S
O143 Eu121 2.670 . S
O143 C128 1.270 . S
O143 Eu131 2.355 . S
O144 Eu121 2.394 1_545 S
O144 C129 1.251 . S
O145 C129 1.251 . S
O145 Eu131 2.374 1_545 S
O146 C130 1.257 . S
O146 Eu131 2.473 . S
O147 C130 1.260 . S
O147 Eu131 2.480 . S
O148 Eu131 2.430 . S
O148 C138 1.259 . S
O149 Eu121 2.355 . S
O149 Eu131 2.670 . S
O149 C138 1.270 . S
O150 Eu131 2.394 . S
O150 C139 1.251 . S
O151 Eu121 2.374 . S
O151 C139 1.251 . S
H152 C123 0.931 . S
H153 C124 0.931 . S
H154 C126 0.931 . S
H155 C127 0.931 . S
H156 C133 0.931 . S
H157 C134 0.931 . S
H158 C136 0.931 . S
H159 C137 0.931 . S
C160 Eu161 2.835 . S
C160 C162 1.500 . S
C160 O180 1.257 . S
C160 O181 1.260 . S
Eu161 C160 2.835 . S
Eu161 O180 2.473 . S
Eu161 O181 2.480 . S
Eu161 O182 2.430 . S
Eu161 O183 2.670 . S
Eu161 O184 2.394 . S
Eu161 O189 2.355 . S
Eu161 O191 2.374 . S
C162 C160 1.500 . S
C162 C163 1.377 . S
C162 C167 1.377 . S
C163 C162 1.377 . S
C163 C164 1.395 . S
C163 H192 0.931 . S
C164 C163 1.395 . S
C164 C165 1.383 . S
C164 H193 0.931 . S
C165 C164 1.383 . S
C165 C166 1.394 . S
C166 C165 1.394 . S
C166 C167 1.378 . S
C166 H194 0.931 . S
C167 C162 1.377 . S
C167 C166 1.378 . S
C167 H195 0.931 . S
C168 O182 1.259 . S
C168 O183 1.270 . S
C169 O184 1.251 . S
C169 O185 1.251 . S
C170 Eu171 2.835 . S
C170 C172 1.500 . S
C170 O186 1.257 . S
C170 O187 1.260 . S
Eu171 C170 2.835 . S
Eu171 O183 2.355 . S
Eu171 O185 2.374 . S
Eu171 O186 2.473 . S
Eu171 O187 2.480 . S
Eu171 O188 2.430 . S
Eu171 O189 2.670 . S
Eu171 O190 2.394 . S
C172 C170 1.500 . S
C172 C173 1.377 . S
C172 C177 1.377 . S
C173 C172 1.377 . S
C173 C174 1.395 . S
C173 H196 0.931 . S
C174 C173 1.395 . S
C174 C175 1.383 . S
C174 H197 0.931 . S
C175 C174 1.383 . S
C175 C176 1.394 . S
C176 C175 1.394 . S
C176 C177 1.378 . S
C176 H198 0.931 . S
C177 C172 1.377 . S
C177 C176 1.378 . S
C177 H199 0.931 . S
C178 O188 1.259 . S
C178 O189 1.270 . S
C179 O190 1.251 . S
C179 O191 1.251 . S
O180 C160 1.257 . S
O180 Eu161 2.473 . S
O181 C160 1.260 . S
O181 Eu161 2.480 . S
O182 Eu161 2.430 . S
O182 C168 1.259 . S
O183 Eu161 2.670 . S
O183 C168 1.270 . S
O183 Eu171 2.355 . S
O184 Eu161 2.394 . S
O184 C169 1.251 . S
O185 C169 1.251 . S
O185 Eu171 2.374 . S
O186 C170 1.257 . S
O186 Eu171 2.473 . S
O187 C170 1.260 . S
O187 Eu171 2.480 . S
O188 Eu171 2.430 . S
O188 C178 1.259 . S
O189 Eu161 2.355 . S
O189 Eu171 2.670 . S
O189 C178 1.270 . S
O190 Eu171 2.394 . S
O190 C179 1.251 . S
O191 Eu161 2.374 . S
O191 C179 1.251 . S
H192 C163 0.931 . S
H193 C164 0.931 . S
H194 C166 0.931 . S
H195 C167 0.931 . S
H196 C173 0.931 . S
H197 C174 0.931 . S
H198 C176 0.931 . S
H199 C177 0.931 . S
C200 Eu201 2.835 . S
C200 C202 1.500 . S
C200 O220 1.257 . S
C200 O221 1.260 . S
Eu201 C200 2.835 . S
Eu201 O220 2.473 . S
Eu201 O221 2.480 . S
Eu201 O222 2.430 . S
Eu201 O223 2.670 . S
Eu201 O224 2.394 . S
Eu201 O229 2.355 . S
Eu201 O231 2.374 . S
C202 C200 1.500 . S
C202 C203 1.377 . S
C202 C207 1.377 . S
C203 C202 1.377 . S
C203 C204 1.395 . S
C203 H232 0.931 . S
C204 C203 1.395 . S
C204 C205 1.383 . S
C204 H233 0.931 . S
C205 C204 1.383 . S
C205 C206 1.394 . S
C206 C205 1.394 . S
C206 C207 1.378 . S
C206 H234 0.931 . S
C207 C202 1.377 . S
C207 C206 1.378 . S
C207 H235 0.931 . S
C208 O222 1.259 . S
C208 O223 1.270 . S
C209 O224 1.251 . S
C209 O225 1.251 . S
C210 Eu211 2.835 . S
C210 C212 1.500 . S
C210 O226 1.257 . S
C210 O227 1.260 . S
Eu211 C210 2.835 . S
Eu211 O223 2.355 . S
Eu211 O225 2.374 . S
Eu211 O226 2.473 . S
Eu211 O227 2.480 . S
Eu211 O228 2.430 . S
Eu211 O229 2.670 . S
Eu211 O230 2.394 . S
C212 C210 1.500 . S
C212 C213 1.377 . S
C212 C217 1.377 . S
C213 C212 1.377 . S
C213 C214 1.395 . S
C213 H236 0.931 . S
C214 C213 1.395 . S
C214 C215 1.383 . S
C214 H237 0.931 . S
C215 C214 1.383 . S
C215 C216 1.394 . S
C216 C215 1.394 . S
C216 C217 1.378 . S
C216 H238 0.931 . S
C217 C212 1.377 . S
C217 C216 1.378 . S
C217 H239 0.931 . S
C218 O228 1.259 . S
C218 O229 1.270 . S
C219 O230 1.251 . S
C219 O231 1.251 . S
O220 C200 1.257 . S
O220 Eu201 2.473 . S
O221 C200 1.260 . S
O221 Eu201 2.480 . S
O222 Eu201 2.430 . S
O222 C208 1.259 . S
O223 Eu201 2.670 . S
O223 C208 1.270 . S
O223 Eu211 2.355 . S
O224 Eu201 2.394 . S
O224 C209 1.251 . S
O225 C209 1.251 . S
O225 Eu211 2.374 . S
O226 C210 1.257 . S
O226 Eu211 2.473 . S
O227 C210 1.260 . S
O227 Eu211 2.480 . S
O228 Eu211 2.430 . S
O228 C218 1.259 . S
O229 Eu201 2.355 . S
O229 Eu211 2.670 . S
O229 C218 1.270 . S
O230 Eu211 2.394 . S
O230 C219 1.251 . S
O231 Eu201 2.374 . S
O231 C219 1.251 . S
H232 C203 0.931 . S
H233 C204 0.931 . S
H234 C206 0.931 . S
H235 C207 0.931 . S
H236 C213 0.931 . S
H237 C214 0.931 . S
H238 C216 0.931 . S
H239 C217 0.931 . S
C240 Eu241 2.835 . S
C240 C242 1.500 . S
C240 O260 1.257 . S
C240 O261 1.260 . S
Eu241 C240 2.835 . S
Eu241 O260 2.473 . S
Eu241 O261 2.480 . S
Eu241 O262 2.430 . S
Eu241 O263 2.670 . S
Eu241 O264 2.394 . S
Eu241 O269 2.355 . S
Eu241 O271 2.374 . S
C242 C240 1.500 . S
C242 C243 1.377 . S
C242 C247 1.377 . S
C243 C242 1.377 . S
C243 C244 1.395 . S
C243 H272 0.931 . S
C244 C243 1.395 . S
C244 C245 1.383 . S
C244 H273 0.931 . S
C245 C244 1.383 . S
C245 C246 1.394 . S
C246 C245 1.394 . S
C246 C247 1.378 . S
C246 H274 0.931 . S
C247 C242 1.377 . S
C247 C246 1.378 . S
C247 H275 0.931 . S
C248 O262 1.259 . S
C248 O263 1.270 . S
C249 O264 1.251 . S
C249 O265 1.251 . S
C250 Eu251 2.835 . S
C250 C252 1.500 . S
C250 O266 1.257 . S
C250 O267 1.260 . S
Eu251 C250 2.835 . S
Eu251 O263 2.355 . S
Eu251 O265 2.374 . S
Eu251 O266 2.473 . S
Eu251 O267 2.480 . S
Eu251 O268 2.430 . S
Eu251 O269 2.670 . S
Eu251 O270 2.394 . S
C252 C250 1.500 . S
C252 C253 1.377 . S
C252 C257 1.377 . S
C253 C252 1.377 . S
C253 C254 1.395 . S
C253 H276 0.931 . S
C254 C253 1.395 . S
C254 C255 1.383 . S
C254 H277 0.931 . S
C255 C254 1.383 . S
C255 C256 1.394 . S
C256 C255 1.394 . S
C256 C257 1.378 . S
C256 H278 0.931 . S
C257 C252 1.377 . S
C257 C256 1.378 . S
C257 H279 0.931 . S
C258 O268 1.259 . S
C258 O269 1.270 . S
C259 O270 1.251 . S
C259 O271 1.251 . S
O260 C240 1.257 . S
O260 Eu241 2.473 . S
O261 C240 1.260 . S
O261 Eu241 2.480 . S
O262 Eu241 2.430 . S
O262 C248 1.259 . S
O263 Eu241 2.670 . S
O263 C248 1.270 . S
O263 Eu251 2.355 . S
O264 Eu241 2.394 . S
O264 C249 1.251 . S
O265 C249 1.251 . S
O265 Eu251 2.374 . S
O266 C250 1.257 . S
O266 Eu251 2.473 . S
O267 C250 1.260 . S
O267 Eu251 2.480 . S
O268 Eu251 2.430 . S
O268 C258 1.259 . S
O269 Eu241 2.355 . S
O269 Eu251 2.670 . S
O269 C258 1.270 . S
O270 Eu251 2.394 . S
O270 C259 1.251 . S
O271 Eu241 2.374 . S
O271 C259 1.251 . S
H272 C243 0.931 . S
H273 C244 0.931 . S
H274 C246 0.931 . S
H275 C247 0.931 . S
H276 C253 0.931 . S
H277 C254 0.931 . S
H278 C256 0.931 . S
H279 C257 0.931 . S
C280 Eu281 2.835 . S
C280 C282 1.500 . S
C280 O300 1.257 . S
C280 O301 1.260 . S
Eu281 C280 2.835 . S
Eu281 O300 2.473 . S
Eu281 O301 2.480 . S
Eu281 O302 2.430 1_455 S
Eu281 O303 2.670 1_455 S
Eu281 O304 2.394 . S
Eu281 O309 2.355 . S
Eu281 O311 2.388 . S
C282 C280 1.500 . S
C282 C283 1.377 . S
C282 C287 1.377 . S
C283 C282 1.377 . S
C283 C284 1.395 . S
C283 H312 0.931 . S
C284 C283 1.395 . S
C284 C285 1.383 . S
C284 H313 0.931 . S
C285 C284 1.383 . S
C285 C286 1.394 . S
C286 C285 1.394 . S
C286 C287 1.378 . S
C286 H314 0.931 . S
C287 C282 1.377 . S
C287 C286 1.378 . S
C287 H315 0.931 . S
C288 O302 1.259 . S
C288 O303 1.270 . S
C289 O304 1.240 1_655 S
C289 O305 1.264 . S
C290 Eu291 2.835 . S
C290 C292 1.500 . S
C290 O306 1.257 . S
C290 O307 1.260 . S
Eu291 C290 2.835 . S
Eu291 O303 2.355 . S
Eu291 O305 2.374 . S
Eu291 O306 2.473 . S
Eu291 O307 2.480 . S
Eu291 O308 2.430 . S
Eu291 O309 2.670 1_655 S
Eu291 O310 2.394 . S
C292 C290 1.500 . S
C292 C293 1.377 . S
C292 C297 1.377 . S
C293 C292 1.377 . S
C293 C294 1.395 . S
C293 H316 0.931 . S
C294 C293 1.395 . S
C294 C295 1.383 . S
C294 H317 0.931 . S
C295 C294 1.383 . S
C295 C296 1.394 . S
C296 C295 1.394 . S
C296 C297 1.378 . S
C296 H318 0.931 . S
C297 C292 1.377 . S
C297 C296 1.378 . S
C297 H319 0.931 . S
C298 O308 1.259 1_455 S
C298 O309 1.270 . S
C299 O310 1.251 . S
C299 O311 1.223 1_655 S
O300 C280 1.257 . S
O300 Eu281 2.473 . S
O301 C280 1.260 . S
O301 Eu281 2.480 . S
O302 Eu281 2.430 1_655 S
O302 C288 1.259 . S
O303 Eu281 2.670 1_655 S
O303 C288 1.270 . S
O303 Eu291 2.355 . S
O304 Eu281 2.394 . S
O304 C289 1.240 1_455 S
O305 C289 1.264 . S
O305 Eu291 2.374 . S
O306 C290 1.257 . S
O306 Eu291 2.473 . S
O307 C290 1.260 . S
O307 Eu291 2.480 . S
O308 Eu291 2.430 . S
O308 C298 1.259 1_655 S
O309 Eu281 2.355 . S
O309 Eu291 2.670 1_455 S
O309 C298 1.270 . S
O310 Eu291 2.394 . S
O310 C299 1.251 . S
O311 Eu281 2.388 . S
O311 C299 1.223 1_455 S
H312 C283 0.931 . S
H313 C284 0.931 . S
H314 C286 0.931 . S
H315 C287 0.931 . S
H316 C293 0.931 . S
H317 C294 0.931 . S
H318 C296 0.931 . S
H319 C297 0.931 . S
C320 Eu321 2.835 . S
C320 C322 1.500 . S
C320 O340 1.257 . S
C320 O341 1.209 1_655 S
Eu321 C320 2.835 . S
Eu321 O340 2.473 . S
Eu321 O341 2.496 1_655 S
Eu321 O342 2.430 1_655 S
Eu321 O343 2.670 1_655 S
Eu321 O344 2.394 . S
Eu321 O349 2.355 . S
Eu321 O351 2.365 1_655 S
C322 C320 1.500 . S
C322 C323 1.377 . S
C322 C327 1.377 . S
C323 C322 1.377 . S
C323 C324 1.395 . S
C323 H352 0.931 1_655 S
C324 C323 1.395 . S
C324 C325 1.383 . S
C324 H353 0.931 . S
C325 C324 1.383 . S
C325 C326 1.394 . S
C326 C325 1.394 . S
C326 C327 1.378 . S
C326 H354 0.931 . S
C327 C322 1.377 . S
C327 C326 1.378 . S
C327 H355 0.931 . S
C328 O342 1.259 . S
C328 O343 1.270 . S
C329 O344 1.251 . S
C329 O345 1.251 . S
C330 Eu331 2.835 1_455 S
C330 C332 1.500 . S
C330 O346 1.257 . S
C330 O347 1.260 1_455 S
Eu331 C330 2.835 1_655 S
Eu331 O343 2.355 1_655 S
Eu331 O345 2.374 . S
Eu331 O346 2.473 1_655 S
Eu331 O347 2.480 . S
Eu331 O348 2.430 . S
Eu331 O349 2.670 . S
Eu331 O350 2.394 . S
C332 C330 1.500 . S
C332 C333 1.377 1_455 S
C332 C337 1.377 . S
C333 C332 1.377 1_655 S
C333 C334 1.395 1_655 S
C333 H356 0.931 . S
C334 C333 1.395 1_455 S
C334 C335 1.383 . S
C334 H357 0.931 1_455 S
C335 C334 1.383 . S
C335 C336 1.394 . S
C336 C335 1.394 . S
C336 C337 1.378 . S
C336 H358 0.931 . S
C337 C332 1.377 . S
C337 C336 1.378 . S
C337 H359 0.931 . S
C338 O348 1.259 . S
C338 O349 1.270 . S
C339 O350 1.250 . S
C339 O351 1.273 1_655 S
O340 C320 1.257 . S
O340 Eu321 2.473 . S
O341 C320 1.209 1_455 S
O341 Eu321 2.496 1_455 S
O342 Eu321 2.430 1_455 S
O342 C328 1.259 . S
O343 Eu321 2.670 1_455 S
O343 C328 1.270 . S
O343 Eu331 2.355 1_455 S
O344 Eu321 2.394 . S
O344 C329 1.251 . S
O345 C329 1.251 . S
O345 Eu331 2.374 . S
O346 C330 1.257 . S
O346 Eu331 2.473 1_455 S
O347 C330 1.260 1_655 S
O347 Eu331 2.480 . S
O348 Eu331 2.430 . S
O348 C338 1.259 . S
O349 Eu321 2.355 . S
O349 Eu331 2.670 . S
O349 C338 1.270 . S
O350 Eu331 2.394 . S
O350 C339 1.250 . S
O351 Eu321 2.365 1_455 S
O351 C339 1.273 1_455 S
H352 C323 0.931 1_455 S
H353 C324 0.931 . S
H354 C326 0.931 . S
H355 C327 0.931 . S
H356 C333 0.931 . S
H357 C334 0.931 1_655 S
H358 C336 0.931 . S
H359 C337 0.931 . S
H360 C372 0.930 . S
H361 C374 0.930 . S
H362 C375 0.930 . S
H363 C379 0.959 . S
H364 C379 0.959 . S
H365 C379 0.961 . S
H366 C380 0.960 . S
H367 C380 0.961 . S
H368 C380 0.959 . S
H369 C383 0.929 . S
H370 C384 0.931 . S
H371 C386 0.930 . S
C372 H360 0.930 . S
C372 C373 1.399 . S
C372 C377 1.399 . S
C373 C372 1.399 . S
C373 C374 1.376 . S
C374 H361 0.930 . S
C374 C373 1.376 . S
C374 C375 1.388 . S
C375 H362 0.930 . S
C375 C374 1.388 . S
C375 C376 1.390 . S
C376 C375 1.390 . S
C376 C377 1.394 . S
C376 C382 1.465 . S
C377 C372 1.399 . S
C377 C376 1.394 . S
C377 C378 1.516 . S
C378 C377 1.516 . S
C378 C379 1.502 . S
C378 C380 1.561 . S
C378 C381 1.526 . S
C379 H363 0.959 . S
C379 H364 0.959 . S
C379 H365 0.961 . S
C379 C378 1.502 . S
C380 H366 0.960 . S
C380 H367 0.961 . S
C380 H368 0.959 . S
C380 C378 1.561 . S
C381 C378 1.526 . S
C381 C382 1.396 . S
C381 C386 1.390 . S
C382 C376 1.465 . S
C382 C381 1.396 . S
C382 C383 1.399 . S
C383 H369 0.929 . S
C383 C382 1.399 . S
C383 C384 1.385 . S
C384 H370 0.931 . S
C384 C383 1.385 . S
C384 C385 1.389 . S
C385 C384 1.389 . S
C385 C386 1.387 . S
C386 H371 0.930 . S
C386 C381 1.390 . S
C386 C385 1.387 . S
H387 C399 0.930 . S
H388 C401 0.930 . S
H389 C402 0.930 . S
H390 C406 0.959 . S
H391 C406 0.959 . S
H392 C406 0.961 . S
H393 C407 0.960 . S
H394 C407 0.961 . S
H395 C407 0.959 . S
H396 C410 0.929 . S
H397 C411 0.931 . S
H398 C413 0.930 . S
C399 H387 0.930 . S
C399 C400 1.399 . S
C399 C404 1.399 . S
C400 C399 1.399 . S
C400 C401 1.376 . S
C401 H388 0.930 . S
C401 C400 1.376 . S
C401 C402 1.388 . S
C402 H389 0.930 . S
C402 C401 1.388 . S
C402 C403 1.390 . S
C403 C402 1.390 . S
C403 C404 1.394 . S
C403 C409 1.465 . S
C404 C399 1.399 . S
C404 C403 1.394 . S
C404 C405 1.516 . S
C405 C404 1.516 . S
C405 C406 1.502 . S
C405 C407 1.561 . S
C405 C408 1.526 . S
C406 H390 0.959 . S
C406 H391 0.959 . S
C406 H392 0.961 . S
C406 C405 1.502 . S
C407 H393 0.960 . S
C407 H394 0.961 . S
C407 H395 0.959 . S
C407 C405 1.561 . S
C408 C405 1.526 . S
C408 C409 1.396 . S
C408 C413 1.390 . S
C409 C403 1.465 . S
C409 C408 1.396 . S
C409 C410 1.399 . S
C410 H396 0.929 . S
C410 C409 1.399 . S
C410 C411 1.385 . S
C411 H397 0.931 . S
C411 C410 1.385 . S
C411 C412 1.389 . S
C412 C411 1.389 . S
C412 C413 1.387 . S
C413 H398 0.930 . S
C413 C408 1.390 . S
C413 C412 1.387 . S
H414 C426 0.930 . S
H415 C428 0.930 . S
H416 C429 0.930 . S
H417 C433 0.959 . S
H418 C433 0.959 . S
H419 C433 0.961 . S
H420 C434 0.960 . S
H421 C434 0.961 . S
H422 C434 0.959 . S
H423 C437 0.929 . S
H424 C438 0.931 . S
H425 C440 0.930 . S
C426 H414 0.930 . S
C426 C427 1.399 . S
C426 C431 1.399 . S
C427 C426 1.399 . S
C427 C428 1.376 . S
C428 H415 0.930 . S
C428 C427 1.376 . S
C428 C429 1.388 . S
C429 H416 0.930 . S
C429 C428 1.388 . S
C429 C430 1.390 . S
C430 C429 1.390 . S
C430 C431 1.394 . S
C430 C436 1.465 . S
C431 C426 1.399 . S
C431 C430 1.394 . S
C431 C432 1.516 . S
C432 C431 1.516 . S
C432 C433 1.502 . S
C432 C434 1.561 . S
C432 C435 1.526 . S
C433 H417 0.959 . S
C433 H418 0.959 . S
C433 H419 0.961 . S
C433 C432 1.502 . S
C434 H420 0.960 . S
C434 H421 0.961 . S
C434 H422 0.959 . S
C434 C432 1.561 . S
C435 C432 1.526 . S
C435 C436 1.396 . S
C435 C440 1.390 . S
C436 C430 1.465 . S
C436 C435 1.396 . S
C436 C437 1.399 . S
C437 H423 0.929 . S
C437 C436 1.399 . S
C437 C438 1.385 . S
C438 H424 0.931 . S
C438 C437 1.385 . S
C438 C439 1.389 . S
C439 C438 1.389 . S
C439 C440 1.387 . S
C440 H425 0.930 . S
C440 C435 1.390 . S
C440 C439 1.387 . S
H441 C453 0.930 . S
H442 C455 0.930 . S
H443 C456 0.930 . S
H444 C460 0.959 . S
H445 C460 0.959 . S
H446 C460 0.961 . S
H447 C461 0.960 . S
H448 C461 0.961 . S
H449 C461 0.959 . S
H450 C464 0.929 . S
H451 C465 0.931 . S
H452 C467 0.930 . S
C453 H441 0.930 . S
C453 C454 1.399 1_545 S
C453 C458 1.399 . S
C454 C453 1.399 1_565 S
C454 C455 1.376 . S
C455 H442 0.930 . S
C455 C454 1.376 . S
C455 C456 1.388 . S
C456 H443 0.930 . S
C456 C455 1.388 . S
C456 C457 1.390 . S
C457 C456 1.390 . S
C457 C458 1.394 1_565 S
C457 C463 1.465 . S
C458 C453 1.399 . S
C458 C457 1.394 1_545 S
C458 C459 1.516 . S
C459 C458 1.516 . S
C459 C460 1.502 . S
C459 C461 1.561 . S
C459 C462 1.526 . S
C460 H444 0.959 . S
C460 H445 0.959 . S
C460 H446 0.961 . S
C460 C459 1.502 . S
C461 H447 0.960 . S
C461 H448 0.961 . S
C461 H449 0.959 . S
C461 C459 1.561 . S
C462 C459 1.526 . S
C462 C463 1.396 1_545 S
C462 C467 1.390 . S
C463 C457 1.465 . S
C463 C462 1.396 1_565 S
C463 C464 1.399 . S
C464 H450 0.929 . S
C464 C463 1.399 . S
C464 C465 1.385 . S
C465 H451 0.931 . S
C465 C464 1.385 . S
C465 C466 1.389 . S
C466 C465 1.389 . S
C466 C467 1.387 1_565 S
C467 H452 0.930 . S
C467 C462 1.390 . S
C467 C466 1.387 1_545 S
H468 C480 0.930 . S
H469 C482 0.930 . S
H470 C483 0.930 . S
H471 C487 0.959 . S
H472 C487 0.959 . S
H473 C487 0.961 . S
H474 C488 0.960 . S
H475 C488 0.961 . S
H476 C488 0.959 . S
H477 C491 0.929 . S
H478 C492 0.931 . S
H479 C494 0.930 . S
C480 H468 0.930 . S
C480 C481 1.399 . S
C480 C485 1.399 . S
C481 C480 1.399 . S
C481 C482 1.376 . S
C482 H469 0.930 . S
C482 C481 1.376 . S
C482 C483 1.388 . S
C483 H470 0.930 . S
C483 C482 1.388 . S
C483 C484 1.390 . S
C484 C483 1.390 . S
C484 C485 1.394 . S
C484 C490 1.465 . S
C485 C480 1.399 . S
C485 C484 1.394 . S
C485 C486 1.516 . S
C486 C485 1.516 . S
C486 C487 1.502 . S
C486 C488 1.561 . S
C486 C489 1.526 . S
C487 H471 0.959 . S
C487 H472 0.959 . S
C487 H473 0.961 . S
C487 C486 1.502 . S
C488 H474 0.960 . S
C488 H475 0.961 . S
C488 H476 0.959 . S
C488 C486 1.561 . S
C489 C486 1.526 . S
C489 C490 1.396 . S
C489 C494 1.390 . S
C490 C484 1.465 . S
C490 C489 1.396 . S
C490 C491 1.399 . S
C491 H477 0.929 . S
C491 C490 1.399 . S
C491 C492 1.385 . S
C492 H478 0.931 . S
C492 C491 1.385 . S
C492 C493 1.389 . S
C493 C492 1.389 . S
C493 C494 1.387 . S
C494 H479 0.930 . S
C494 C489 1.390 . S
C494 C493 1.387 . S
H495 C507 0.930 . S
H496 C509 0.930 . S
H497 C510 0.930 . S
H498 C514 0.959 . S
H499 C514 0.959 . S
H500 C514 0.961 . S
H501 C515 0.960 . S
H502 C515 0.961 . S
H503 C515 0.959 . S
H504 C518 0.929 . S
H505 C519 0.931 . S
H506 C521 0.930 . S
C507 H495 0.930 . S
C507 C508 1.399 . S
C507 C512 1.399 . S
C508 C507 1.399 . S
C508 C509 1.376 . S
C509 H496 0.930 . S
C509 C508 1.376 . S
C509 C510 1.388 . S
C510 H497 0.930 . S
C510 C509 1.388 . S
C510 C511 1.390 . S
C511 C510 1.390 . S
C511 C512 1.394 . S
C511 C517 1.465 . S
C512 C507 1.399 . S
C512 C511 1.394 . S
C512 C513 1.516 . S
C513 C512 1.516 . S
C513 C514 1.502 . S
C513 C515 1.561 . S
C513 C516 1.526 . S
C514 H498 0.959 . S
C514 H499 0.959 . S
C514 H500 0.961 . S
C514 C513 1.502 . S
C515 H501 0.960 . S
C515 H502 0.961 . S
C515 H503 0.959 . S
C515 C513 1.561 . S
C516 C513 1.526 . S
C516 C517 1.396 . S
C516 C521 1.390 . S
C517 C511 1.465 . S
C517 C516 1.396 . S
C517 C518 1.399 . S
C518 H504 0.929 . S
C518 C517 1.399 . S
C518 C519 1.385 . S
C519 H505 0.931 . S
C519 C518 1.385 . S
C519 C520 1.389 . S
C520 C519 1.389 . S
C520 C521 1.387 . S
C521 H506 0.930 . S
C521 C516 1.390 . S
C521 C520 1.387 . S
H522 C534 0.930 . S
H523 C536 0.930 . S
H524 C537 0.930 . S
H525 C541 0.959 . S
H526 C541 0.959 . S
H527 C541 0.961 . S
H528 C542 0.960 . S
H529 C542 0.961 . S
H530 C542 0.959 . S
H531 C545 0.929 . S
H532 C546 0.931 . S
H533 C548 0.930 . S
C534 H522 0.930 . S
C534 C535 1.399 . S
C534 C539 1.399 . S
C535 C534 1.399 . S
C535 C536 1.376 . S
C536 H523 0.930 . S
C536 C535 1.376 . S
C536 C537 1.388 . S
C537 H524 0.930 . S
C537 C536 1.388 . S
C537 C538 1.390 . S
C538 C537 1.390 . S
C538 C539 1.394 . S
C538 C544 1.465 . S
C539 C534 1.399 . S
C539 C538 1.394 . S
C539 C540 1.516 . S
C540 C539 1.516 . S
C540 C541 1.502 . S
C540 C542 1.561 . S
C540 C543 1.526 . S
C541 H525 0.959 . S
C541 H526 0.959 . S
C541 H527 0.961 . S
C541 C540 1.502 . S
C542 H528 0.960 . S
C542 H529 0.961 . S
C542 H530 0.959 . S
C542 C540 1.561 . S
C543 C540 1.526 . S
C543 C544 1.396 . S
C543 C548 1.390 . S
C544 C538 1.465 . S
C544 C543 1.396 . S
C544 C545 1.399 . S
C545 H531 0.929 . S
C545 C544 1.399 . S
C545 C546 1.385 1_554 S
C546 H532 0.931 . S
C546 C545 1.385 1_556 S
C546 C547 1.389 . S
C547 C546 1.389 . S
C547 C548 1.387 1_556 S
C548 H533 0.930 . S
C548 C543 1.390 . S
C548 C547 1.387 1_554 S
H549 C561 0.930 . S
H550 C563 0.921 . S
H551 C564 0.930 . S
H552 C568 0.959 . S
H553 C568 0.959 1_655 S
H554 C568 0.961 . S
H555 C569 0.960 . S
H556 C569 0.961 . S
H557 C569 0.959 . S
H558 C572 0.929 . S
H559 C573 0.931 . S
H560 C575 0.930 1_556 S
C561 H549 0.930 . S
C561 C562 1.399 1_655 S
C561 C566 1.399 . S
C562 C561 1.399 1_455 S
C562 C563 1.393 . S
C563 H550 0.921 . S
C563 C562 1.393 . S
C563 C564 1.382 1_455 S
C564 H551 0.930 . S
C564 C563 1.382 1_655 S
C564 C565 1.390 . S
C565 C564 1.390 . S
C565 C566 1.394 . S
C565 C571 1.465 . S
C566 C561 1.399 . S
C566 C565 1.394 . S
C566 C567 1.516 . S
C567 C566 1.516 . S
C567 C568 1.502 1_655 S
C567 C569 1.561 . S
C567 C570 1.526 . S
C568 H552 0.959 . S
C568 H553 0.959 1_455 S
C568 H554 0.961 . S
C568 C567 1.502 1_455 S
C569 H555 0.960 . S
C569 H556 0.961 . S
C569 H557 0.959 . S
C569 C567 1.561 . S
C570 C567 1.526 . S
C570 C571 1.396 . S
C570 C575 1.390 . S
C571 C565 1.465 . S
C571 C570 1.396 . S
C571 C572 1.399 . S
C572 H558 0.929 . S
C572 C571 1.399 . S
C572 C573 1.385 1_554 S
C573 H559 0.931 . S
C573 C572 1.385 1_556 S
C573 C574 1.389 . S
C574 C573 1.389 . S
C574 C575 1.387 1_556 S
C575 H560 0.930 1_554 S
C575 C570 1.390 . S
C575 C574 1.387 1_554 S
H576 C588 0.930 . S
H577 C590 0.930 . S
H578 C591 0.930 . S
H579 C595 0.959 . S
H580 C595 0.959 . S
H581 C595 0.961 1_655 S
H582 C596 0.960 . S
H583 C596 0.961 . S
H584 C596 0.959 . S
H585 C599 0.929 . S
H586 C600 0.931 . S
H587 C602 0.930 1_556 S
C588 H576 0.930 . S
C588 C589 1.399 . S
C588 C593 1.399 . S
C589 C588 1.399 . S
C589 C590 1.376 . S
C590 H577 0.930 . S
C590 C589 1.376 . S
C590 C591 1.388 . S
C591 H578 0.930 . S
C591 C590 1.388 . S
C591 C592 1.390 . S
C592 C591 1.390 . S
C592 C593 1.394 . S
C592 C598 1.465 . S
C593 C588 1.399 . S
C593 C592 1.394 . S
C593 C594 1.516 . S
C594 C593 1.516 . S
C594 C595 1.502 1_655 S
C594 C596 1.561 . S
C594 C597 1.526 . S
C595 H579 0.959 . S
C595 H580 0.959 . S
C595 H581 0.961 1_455 S
C595 C594 1.502 1_455 S
C596 H582 0.960 . S
C596 H583 0.961 . S
C596 H584 0.959 . S
C596 C594 1.561 . S
C597 C594 1.526 . S
C597 C598 1.396 . S
C597 C602 1.390 . S
C598 C592 1.465 . S
C598 C597 1.396 . S
C598 C599 1.399 . S
C599 H585 0.929 . S
C599 C598 1.399 . S
C599 C600 1.385 1_654 S
C600 H586 0.931 . S
C600 C599 1.385 1_456 S
C600 C601 1.389 . S
C601 C600 1.389 . S
C601 C602 1.387 1_456 S
C602 H587 0.930 1_554 S
C602 C597 1.390 . S
C602 C601 1.387 1_654 S
H603 C615 0.930 . S
H604 C617 0.930 . S
H605 C618 0.930 . S
H606 C622 0.959 . S
H607 C622 0.959 . S
H608 C622 0.961 . S
H609 C623 0.960 . S
H610 C623 0.961 . S
H611 C623 0.959 . S
H612 C626 0.929 . S
H613 C627 0.931 . S
H614 C629 0.930 . S
C615 H603 0.930 . S
C615 C616 1.399 . S
C615 C620 1.399 . S
C616 C615 1.399 . S
C616 C617 1.376 . S
C617 H604 0.930 . S
C617 C616 1.376 . S
C617 C618 1.388 . S
C618 H605 0.930 . S
C618 C617 1.388 . S
C618 C619 1.390 . S
C619 C618 1.390 . S
C619 C620 1.394 . S
C619 C625 1.465 . S
C620 C615 1.399 . S
C620 C619 1.394 . S
C620 C621 1.516 . S
C621 C620 1.516 . S
C621 C622 1.502 . S
C621 C623 1.561 . S
C621 C624 1.526 . S
C622 H606 0.959 . S
C622 H607 0.959 . S
C622 H608 0.961 . S
C622 C621 1.502 . S
C623 H609 0.960 . S
C623 H610 0.961 . S
C623 H611 0.959 . S
C623 C621 1.561 . S
C624 C621 1.526 . S
C624 C625 1.396 . S
C624 C629 1.390 . S
C625 C619 1.465 . S
C625 C624 1.396 . S
C625 C626 1.399 . S
C626 H612 0.929 . S
C626 C625 1.399 . S
C626 C627 1.385 . S
C627 H613 0.931 . S
C627 C626 1.385 . S
C627 C628 1.389 . S
C628 C627 1.389 . S
C628 C629 1.387 . S
C629 H614 0.930 . S
C629 C624 1.390 . S
C629 C628 1.387 . S
H630 C642 0.930 . S
H631 C644 0.930 . S
H632 C645 0.930 . S
H633 C649 0.959 . S
H634 C649 0.959 . S
H635 C649 0.961 . S
H636 C650 0.960 . S
H637 C650 0.961 . S
H638 C650 0.959 . S
H639 C653 0.929 . S
H640 C654 0.931 . S
H641 C656 0.930 . S
C642 H630 0.930 . S
C642 C643 1.399 . S
C642 C647 1.399 . S
C643 C642 1.399 . S
C643 C644 1.376 . S
C644 H631 0.930 . S
C644 C643 1.376 . S
C644 C645 1.388 . S
C645 H632 0.930 . S
C645 C644 1.388 . S
C645 C646 1.390 . S
C646 C645 1.390 . S
C646 C647 1.394 . S
C646 C652 1.465 . S
C647 C642 1.399 . S
C647 C646 1.394 . S
C647 C648 1.516 . S
C648 C647 1.516 . S
C648 C649 1.502 . S
C648 C650 1.561 . S
C648 C651 1.526 . S
C649 H633 0.959 . S
C649 H634 0.959 . S
C649 H635 0.961 . S
C649 C648 1.502 . S
C650 H636 0.960 . S
C650 H637 0.961 . S
C650 H638 0.959 . S
C650 C648 1.561 . S
C651 C648 1.526 . S
C651 C652 1.396 . S
C651 C656 1.390 . S
C652 C646 1.465 . S
C652 C651 1.396 . S
C652 C653 1.399 . S
C653 H639 0.929 . S
C653 C652 1.399 . S
C653 C654 1.385 . S
C654 H640 0.931 . S
C654 C653 1.385 . S
C654 C655 1.389 . S
C655 C654 1.389 . S
C655 C656 1.387 . S
C656 H641 0.930 . S
C656 C651 1.390 . S
C656 C655 1.387 . S
H657 C669 0.930 . S
H658 C671 0.930 . S
H659 C672 0.930 . S
H660 C676 0.959 . S
H661 C676 0.959 . S
H662 C676 0.961 . S
H663 C677 0.960 1_556 S
H664 C677 0.961 1_556 S
H665 C677 0.959 . S
H666 C680 0.929 . S
H667 C681 0.931 . S
H668 C683 0.930 . S
C669 H657 0.930 . S
C669 C670 1.399 . S
C669 C674 1.399 . S
C670 C669 1.399 . S
C670 C671 1.376 . S
C671 H658 0.930 . S
C671 C670 1.376 . S
C671 C672 1.388 . S
C672 H659 0.930 . S
C672 C671 1.388 . S
C672 C673 1.390 . S
C673 C672 1.390 . S
C673 C674 1.394 . S
C673 C679 1.465 . S
C674 C669 1.399 . S
C674 C673 1.394 . S
C674 C675 1.516 . S
C675 C674 1.516 . S
C675 C676 1.502 . S
C675 C677 1.561 . S
C675 C678 1.526 . S
C676 H660 0.959 . S
C676 H661 0.959 . S
C676 H662 0.961 . S
C676 C675 1.502 . S
C677 H663 0.960 1_554 S
C677 H664 0.961 1_554 S
C677 H665 0.959 . S
C677 C675 1.561 . S
C678 C675 1.526 . S
C678 C679 1.396 . S
C678 C683 1.390 . S
C679 C673 1.465 . S
C679 C678 1.396 . S
C679 C680 1.399 . S
C680 H666 0.929 . S
C680 C679 1.399 . S
C680 C681 1.385 . S
C681 H667 0.931 . S
C681 C680 1.385 . S
C681 C682 1.389 . S
C682 C681 1.389 . S
C682 C683 1.387 . S
C683 H668 0.930 . S
C683 C678 1.390 . S
C683 C682 1.387 . S
H684 C696 0.930 . S
H685 C698 0.930 . S
H686 C699 0.930 . S
H687 C703 0.959 . S
H688 C703 0.959 . S
H689 C703 0.961 . S
H690 C704 0.960 1_554 S
H691 C704 0.961 . S
H692 C704 0.959 . S
H693 C707 0.929 . S
H694 C708 0.931 . S
H695 C710 0.930 . S
C696 H684 0.930 . S
C696 C697 1.399 . S
C696 C701 1.399 1_554 S
C697 C696 1.399 . S
C697 C698 1.376 1_554 S
C698 H685 0.930 . S
C698 C697 1.376 1_556 S
C698 C699 1.388 . S
C699 H686 0.930 . S
C699 C698 1.388 . S
C699 C700 1.390 . S
C700 C699 1.390 . S
C700 C701 1.394 . S
C700 C706 1.465 . S
C701 C696 1.399 1_556 S
C701 C700 1.394 . S
C701 C702 1.516 . S
C702 C701 1.516 . S
C702 C703 1.502 1_556 S
C702 C704 1.561 . S
C702 C705 1.526 . S
C703 H687 0.959 . S
C703 H688 0.959 . S
C703 H689 0.961 . S
C703 C702 1.502 1_554 S
C704 H690 0.960 1_556 S
C704 H691 0.961 . S
C704 H692 0.959 . S
C704 C702 1.561 . S
C705 C702 1.526 . S
C705 C706 1.396 . S
C705 C710 1.390 . S
C706 C700 1.465 . S
C706 C705 1.396 . S
C706 C707 1.399 . S
C707 H693 0.929 . S
C707 C706 1.399 . S
C707 C708 1.385 . S
C708 H694 0.931 . S
C708 C707 1.385 . S
C708 C709 1.389 . S
C709 C708 1.389 . S
C709 C710 1.387 . S
C710 H695 0.930 . S
C710 C705 1.390 . S
C710 C709 1.387 . S
H711 C723 0.930 . S
H712 C725 0.930 . S
H713 C726 0.930 . S
H714 C730 0.959 . S
H715 C730 0.959 . S
H716 C730 0.961 . S
H717 C731 0.960 . S
H718 C731 0.961 . S
H719 C731 0.959 . S
H720 C734 0.929 . S
H721 C735 0.931 . S
H722 C737 0.930 . S
C723 H711 0.930 . S
C723 C724 1.399 . S
C723 C728 1.399 . S
C724 C723 1.399 . S
C724 C725 1.376 . S
C725 H712 0.930 . S
C725 C724 1.376 . S
C725 C726 1.388 . S
C726 H713 0.930 . S
C726 C725 1.388 . S
C726 C727 1.390 . S
C727 C726 1.390 . S
C727 C728 1.394 . S
C727 C733 1.465 . S
C728 C723 1.399 . S
C728 C727 1.394 . S
C728 C729 1.516 . S
C729 C728 1.516 . S
C729 C730 1.502 1_556 S
C729 C731 1.561 . S
C729 C732 1.526 . S
C730 H714 0.959 . S
C730 H715 0.959 . S
C730 H716 0.961 . S
C730 C729 1.502 1_554 S
C731 H717 0.960 . S
C731 H718 0.961 . S
C731 H719 0.959 . S
C731 C729 1.561 . S
C732 C729 1.526 . S
C732 C733 1.396 . S
C732 C737 1.390 1_556 S
C733 C727 1.465 . S
C733 C732 1.396 . S
C733 C734 1.399 . S
C734 H720 0.929 . S
C734 C733 1.399 . S
C734 C735 1.385 . S
C735 H721 0.931 . S
C735 C734 1.385 . S
C735 C736 1.389 1_556 S
C736 C735 1.389 1_554 S
C736 C737 1.387 . S
C737 H722 0.930 . S
C737 C732 1.390 1_554 S
C737 C736 1.387 . S
H738 C750 0.930 . S
H739 C752 0.930 . S
H740 C753 0.930 . S
H741 C757 0.959 . S
H742 C757 0.959 . S
H743 C757 0.961 . S
H744 C758 0.960 . S
H745 C758 0.961 . S
H746 C758 0.959 . S
H747 C761 0.929 . S
H748 C762 0.931 . S
H749 C764 0.930 . S
C750 H738 0.930 . S
C750 C751 1.399 . S
C750 C755 1.399 . S
C751 C750 1.399 . S
C751 C752 1.376 . S
C752 H739 0.930 . S
C752 C751 1.376 . S
C752 C753 1.388 . S
C753 H740 0.930 . S
C753 C752 1.388 . S
C753 C754 1.390 . S
C754 C753 1.390 . S
C754 C755 1.394 . S
C754 C760 1.465 . S
C755 C750 1.399 . S
C755 C754 1.394 . S
C755 C756 1.516 . S
C756 C755 1.516 . S
C756 C757 1.502 . S
C756 C758 1.561 . S
C756 C759 1.526 . S
C757 H741 0.959 . S
C757 H742 0.959 . S
C757 H743 0.961 . S
C757 C756 1.502 . S
C758 H744 0.960 . S
C758 H745 0.961 . S
C758 H746 0.959 . S
C758 C756 1.561 . S
C759 C756 1.526 . S
C759 C760 1.396 . S
C759 C764 1.390 . S
C760 C754 1.465 . S
C760 C759 1.396 . S
C760 C761 1.399 1_556 S
C761 H747 0.929 . S
C761 C760 1.399 1_554 S
C761 C762 1.385 . S
C762 H748 0.931 . S
C762 C761 1.385 . S
C762 C763 1.389 . S
C763 C762 1.389 . S
C763 C764 1.387 1_554 S
C764 H749 0.930 . S
C764 C759 1.390 . S
C764 C763 1.387 1_556 S
H765 C777 0.930 1_554 S
H766 C779 0.930 . S
H767 C780 0.930 . S
H768 C784 0.959 . S
H769 C784 0.959 . S
H770 C784 0.961 . S
H771 C785 0.960 . S
H772 C785 0.961 . S
H773 C785 0.959 . S
H774 C788 0.929 . S
H775 C789 0.931 . S
H776 C791 0.930 . S
C777 H765 0.930 1_556 S
C777 C778 1.399 . S
C777 C782 1.399 1_556 S
C778 C777 1.399 . S
C778 C779 1.376 . S
C779 H766 0.930 . S
C779 C778 1.376 . S
C779 C780 1.388 . S
C780 H767 0.930 . S
C780 C779 1.388 . S
C780 C781 1.390 . S
C781 C780 1.390 . S
C781 C782 1.394 1_556 S
C781 C787 1.465 . S
C782 C777 1.399 1_554 S
C782 C781 1.394 1_554 S
C782 C783 1.516 . S
C783 C782 1.516 . S
C783 C784 1.502 . S
C783 C785 1.561 . S
C783 C786 1.526 . S
C784 H768 0.959 . S
C784 H769 0.959 . S
C784 H770 0.961 . S
C784 C783 1.502 . S
C785 H771 0.960 . S
C785 H772 0.961 . S
C785 H773 0.959 . S
C785 C783 1.561 . S
C786 C783 1.526 . S
C786 C787 1.396 1_554 S
C786 C791 1.390 . S
C787 C781 1.465 . S
C787 C786 1.396 1_556 S
C787 C788 1.399 . S
C788 H774 0.929 . S
C788 C787 1.399 . S
C788 C789 1.385 . S
C789 H775 0.931 . S
C789 C788 1.385 . S
C789 C790 1.389 1_556 S
C790 C789 1.389 1_554 S
C790 C791 1.387 . S
C791 H776 0.930 . S
C791 C786 1.390 . S
C791 C790 1.387 . S
H792 C804 0.930 . S
H793 C806 0.930 . S
H794 C807 0.930 . S
H795 C811 0.959 . S
H796 C811 0.959 . S
H797 C811 0.961 . S
H798 C812 0.960 . S
H799 C812 0.961 . S
H800 C812 0.959 . S
H801 C815 0.929 . S
H802 C816 0.931 . S
H803 C818 0.932 . S
C804 H792 0.930 . S
C804 C805 1.399 . S
C804 C809 1.399 . S
C805 C804 1.399 . S
C805 C806 1.376 1_554 S
C806 H793 0.930 . S
C806 C805 1.376 1_556 S
C806 C807 1.388 . S
C807 H794 0.930 . S
C807 C806 1.388 . S
C807 C808 1.390 . S
C808 C807 1.390 . S
C808 C809 1.394 1_556 S
C808 C814 1.465 . S
C809 C804 1.399 . S
C809 C808 1.394 1_554 S
C809 C810 1.516 . S
C810 C809 1.516 . S
C810 C811 1.502 . S
C810 C812 1.561 . S
C810 C813 1.526 . S
C811 H795 0.959 . S
C811 H796 0.959 . S
C811 H797 0.961 . S
C811 C810 1.502 . S
C812 H798 0.960 . S
C812 H799 0.961 . S
C812 H800 0.959 . S
C812 C810 1.561 . S
C813 C810 1.526 . S
C813 C814 1.396 1_554 S
C813 C818 1.390 . S
C814 C808 1.465 . S
C814 C813 1.396 1_556 S
C814 C815 1.399 . S
C815 H801 0.929 . S
C815 C814 1.399 . S
C815 C816 1.385 . S
C816 H802 0.931 . S
C816 C815 1.385 . S
C816 C817 1.389 . S
C817 C816 1.389 . S
C817 C818 1.384 1_556 S
C818 H803 0.932 . S
C818 C813 1.390 . S
C818 C817 1.384 1_554 S
H819 C831 0.930 . S
H820 C833 0.930 . S
H821 C834 0.930 . S
H822 C838 0.959 . S
H823 C838 0.959 . S
H824 C838 0.961 . S
H825 C839 0.960 . S
H826 C839 0.961 . S
H827 C839 0.959 . S
H828 C842 0.929 . S
H829 C843 0.931 . S
H830 C845 0.930 . S
C831 H819 0.930 . S
C831 C832 1.399 1_554 S
C831 C836 1.399 . S
C832 C831 1.399 1_556 S
C832 C833 1.376 . S
C833 H820 0.930 . S
C833 C832 1.376 . S
C833 C834 1.388 . S
C834 H821 0.930 . S
C834 C833 1.388 . S
C834 C835 1.390 . S
C835 C834 1.390 . S
C835 C836 1.394 1_556 S
C835 C841 1.465 . S
C836 C831 1.399 . S
C836 C835 1.394 1_554 S
C836 C837 1.516 . S
C837 C836 1.516 . S
C837 C838 1.502 . S
C837 C839 1.561 . S
C837 C840 1.526 . S
C838 H822 0.959 . S
C838 H823 0.959 . S
C838 H824 0.961 . S
C838 C837 1.502 . S
C839 H825 0.960 . S
C839 H826 0.961 . S
C839 H827 0.959 . S
C839 C837 1.561 . S
C840 C837 1.526 . S
C840 C841 1.396 1_554 S
C840 C845 1.390 . S
C841 C835 1.465 . S
C841 C840 1.396 1_556 S
C841 C842 1.399 . S
C842 H828 0.929 . S
C842 C841 1.399 . S
C842 C843 1.385 . S
C843 H829 0.931 . S
C843 C842 1.385 . S
C843 C844 1.389 1_556 S
C844 C843 1.389 1_554 S
C844 C845 1.387 . S
C845 H830 0.930 . S
C845 C840 1.390 . S
C845 C844 1.387 . S
H846 C858 0.930 . S
H847 C860 0.930 . S
H848 C861 0.930 . S
H849 C865 0.959 . S
H850 C865 0.959 . S
H851 C865 0.961 . S
H852 C866 0.960 . S
H853 C866 0.961 . S
H854 C866 0.959 . S
H855 C869 0.929 . S
H856 C870 0.931 . S
H857 C872 0.930 . S
C858 H846 0.930 . S
C858 C859 1.399 . S
C858 C863 1.399 . S
C859 C858 1.399 . S
C859 C860 1.376 . S
C860 H847 0.930 . S
C860 C859 1.376 . S
C860 C861 1.388 . S
C861 H848 0.930 . S
C861 C860 1.388 . S
C861 C862 1.390 . S
C862 C861 1.390 . S
C862 C863 1.394 . S
C862 C868 1.465 . S
C863 C858 1.399 . S
C863 C862 1.394 . S
C863 C864 1.516 . S
C864 C863 1.516 . S
C864 C865 1.502 . S
C864 C866 1.561 . S
C864 C867 1.526 . S
C865 H849 0.959 . S
C865 H850 0.959 . S
C865 H851 0.961 . S
C865 C864 1.502 . S
C866 H852 0.960 . S
C866 H853 0.961 . S
C866 H854 0.959 . S
C866 C864 1.561 . S
C867 C864 1.526 . S
C867 C868 1.396 . S
C867 C872 1.390 . S
C868 C862 1.465 . S
C868 C867 1.396 . S
C868 C869 1.399 . S
C869 H855 0.929 . S
C869 C868 1.399 . S
C869 C870 1.385 . S
C870 H856 0.931 . S
C870 C869 1.385 . S
C870 C871 1.389 . S
C871 C870 1.389 . S
C871 C872 1.387 . S
C872 H857 0.930 . S
C872 C867 1.390 . S
C872 C871 1.387 . S
H873 C885 0.930 . S
H874 C887 0.930 . S
H875 C888 0.930 . S
H876 C892 0.959 . S
H877 C892 0.959 . S
H878 C892 0.961 . S
H879 C893 0.960 . S
H880 C893 0.961 . S
H881 C893 0.959 . S
H882 C896 0.929 . S
H883 C897 0.931 . S
H884 C899 0.930 . S
C885 H873 0.930 . S
C885 C886 1.399 . S
C885 C890 1.399 . S
C886 C885 1.399 . S
C886 C887 1.376 . S
C887 H874 0.930 . S
C887 C886 1.376 . S
C887 C888 1.388 . S
C888 H875 0.930 . S
C888 C887 1.388 . S
C888 C889 1.390 . S
C889 C888 1.390 . S
C889 C890 1.394 . S
C889 C895 1.465 . S
C890 C885 1.399 . S
C890 C889 1.394 . S
C890 C891 1.516 . S
C891 C890 1.516 . S
C891 C892 1.502 . S
C891 C893 1.561 . S
C891 C894 1.526 . S
C892 H876 0.959 . S
C892 H877 0.959 . S
C892 H878 0.961 . S
C892 C891 1.502 . S
C893 H879 0.960 . S
C893 H880 0.961 . S
C893 H881 0.959 . S
C893 C891 1.561 . S
C894 C891 1.526 . S
C894 C895 1.396 . S
C894 C899 1.390 . S
C895 C889 1.465 . S
C895 C894 1.396 . S
C895 C896 1.399 . S
C896 H882 0.929 . S
C896 C895 1.399 . S
C896 C897 1.385 . S
C897 H883 0.931 . S
C897 C896 1.385 . S
C897 C898 1.389 . S
C898 C897 1.389 . S
C898 C899 1.387 . S
C899 H884 0.930 . S
C899 C894 1.390 . S
C899 C898 1.387 . S
H900 C912 0.930 . S
H901 C914 0.930 1_556 S
H902 C915 0.930 1_556 S
H903 C919 0.959 . S
H904 C919 0.959 . S
H905 C919 0.961 . S
H906 C920 0.960 . S
H907 C920 0.961 . S
H908 C920 0.959 . S
H909 C923 0.929 1_556 S
H910 C924 0.931 1_556 S
H911 C926 0.930 . S
C912 H900 0.930 . S
C912 C913 1.399 . S
C912 C917 1.399 . S
C913 C912 1.399 . S
C913 C914 1.376 . S
C914 H901 0.930 1_554 S
C914 C913 1.376 . S
C914 C915 1.388 . S
C915 H902 0.930 1_554 S
C915 C914 1.388 . S
C915 C916 1.390 . S
C916 C915 1.390 . S
C916 C917 1.394 . S
C916 C922 1.465 . S
C917 C912 1.399 . S
C917 C916 1.394 . S
C917 C918 1.516 . S
C918 C917 1.516 . S
C918 C919 1.502 . S
C918 C920 1.561 . S
C918 C921 1.526 . S
C919 H903 0.959 . S
C919 H904 0.959 . S
C919 H905 0.961 . S
C919 C918 1.502 . S
C920 H906 0.960 . S
C920 H907 0.961 . S
C920 H908 0.959 . S
C920 C918 1.561 . S
C921 C918 1.526 . S
C921 C922 1.396 . S
C921 C926 1.390 . S
C922 C916 1.465 . S
C922 C921 1.396 . S
C922 C923 1.399 . S
C923 H909 0.929 1_554 S
C923 C922 1.399 . S
C923 C924 1.385 . S
C924 H910 0.931 1_554 S
C924 C923 1.385 . S
C924 C925 1.389 . S
C925 C924 1.389 . S
C925 C926 1.387 . S
C926 H911 0.930 . S
C926 C921 1.390 . S
C926 C925 1.387 . S
H927 C939 0.930 . S
H928 C941 0.930 . S
H929 C942 0.930 . S
H930 C946 0.959 . S
H931 C946 0.959 . S
H932 C946 0.961 . S
H933 C947 0.960 . S
H934 C947 0.961 . S
H935 C947 0.959 . S
H936 C950 0.929 . S
H937 C951 0.931 . S
H938 C953 0.930 . S
C939 H927 0.930 . S
C939 C940 1.399 . S
C939 C944 1.399 . S
C940 C939 1.399 . S
C940 C941 1.376 . S
C941 H928 0.930 . S
C941 C940 1.376 . S
C941 C942 1.388 . S
C942 H929 0.930 . S
C942 C941 1.388 . S
C942 C943 1.390 . S
C943 C942 1.390 . S
C943 C944 1.394 . S
C943 C949 1.465 . S
C944 C939 1.399 . S
C944 C943 1.394 . S
C944 C945 1.516 . S
C945 C944 1.516 . S
C945 C946 1.502 . S
C945 C947 1.561 . S
C945 C948 1.526 . S
C946 H930 0.959 . S
C946 H931 0.959 . S
C946 H932 0.961 . S
C946 C945 1.502 . S
C947 H933 0.960 . S
C947 H934 0.961 . S
C947 H935 0.959 . S
C947 C945 1.561 . S
C948 C945 1.526 . S
C948 C949 1.396 . S
C948 C953 1.390 . S
C949 C943 1.465 . S
C949 C948 1.396 . S
C949 C950 1.399 . S
C950 H936 0.929 . S
C950 C949 1.399 . S
C950 C951 1.385 . S
C951 H937 0.931 . S
C951 C950 1.385 . S
C951 C952 1.389 . S
C952 C951 1.389 . S
C952 C953 1.387 . S
C953 H938 0.930 . S
C953 C948 1.390 . S
C953 C952 1.387 . S
H954 C966 0.930 . S
H955 C968 0.930 . S
H956 C969 0.930 . S
H957 C973 0.959 . S
H958 C973 0.959 . S
H959 C973 0.961 . S
H960 C974 0.960 . S
H961 C974 0.961 . S
H962 C974 0.959 . S
H963 C977 0.929 . S
H964 C978 0.931 . S
H965 C980 0.930 . S
C966 H954 0.930 . S
C966 C967 1.399 . S
C966 C971 1.399 . S
C967 C966 1.399 . S
C967 C968 1.376 . S
C968 H955 0.930 . S
C968 C967 1.376 . S
C968 C969 1.388 . S
C969 H956 0.930 . S
C969 C968 1.388 . S
C969 C970 1.390 . S
C970 C969 1.390 . S
C970 C971 1.394 . S
C970 C976 1.465 . S
C971 C966 1.399 . S
C971 C970 1.394 . S
C971 C972 1.516 . S
C972 C971 1.516 . S
C972 C973 1.502 . S
C972 C974 1.561 . S
C972 C975 1.526 . S
C973 H957 0.959 . S
C973 H958 0.959 . S
C973 H959 0.961 . S
C973 C972 1.502 . S
C974 H960 0.960 . S
C974 H961 0.961 . S
C974 H962 0.959 . S
C974 C972 1.561 . S
C975 C972 1.526 . S
C975 C976 1.396 . S
C975 C980 1.390 . S
C976 C970 1.465 . S
C976 C975 1.396 . S
C976 C977 1.399 . S
C977 H963 0.929 . S
C977 C976 1.399 . S
C977 C978 1.385 1_545 S
C978 H964 0.931 . S
C978 C977 1.385 1_565 S
C978 C979 1.389 . S
C979 C978 1.389 . S
C979 C980 1.387 1_565 S
C980 H965 0.930 . S
C980 C975 1.390 . S
C980 C979 1.387 1_545 S
H981 C993 0.930 . S
H982 C995 0.930 . S
H983 C996 0.930 . S
H984 C1000 0.959 . S
H985 C1000 0.959 . S
H986 C1000 0.961 . S
H987 C1001 0.960 . S
H988 C1001 0.961 . S
H989 C1001 0.959 . S
H990 C1004 0.929 . S
H991 C1005 0.931 . S
H992 C1007 0.930 . S
C993 H981 0.930 . S
C993 C994 1.399 . S
C993 C998 1.399 . S
C994 C993 1.399 . S
C994 C995 1.376 . S
C995 H982 0.930 . S
C995 C994 1.376 . S
C995 C996 1.388 . S
C996 H983 0.930 . S
C996 C995 1.388 . S
C996 C997 1.390 . S
C997 C996 1.390 . S
C997 C998 1.394 . S
C997 C1003 1.465 . S
C998 C993 1.399 . S
C998 C997 1.394 . S
C998 C999 1.516 . S
C999 C998 1.516 . S
C999 C1000 1.502 . S
C999 C1001 1.561 . S
C999 C1002 1.526 . S
C1000 H984 0.959 . S
C1000 H985 0.959 . S
C1000 H986 0.961 . S
C1000 C999 1.502 . S
C1001 H987 0.960 . S
C1001 H988 0.961 . S
C1001 H989 0.959 . S
C1001 C999 1.561 . S
C1002 C999 1.526 . S
C1002 C1003 1.396 . S
C1002 C1007 1.390 . S
C1003 C997 1.465 . S
C1003 C1002 1.396 . S
C1003 C1004 1.399 . S
C1004 H990 0.929 . S
C1004 C1003 1.399 . S
C1004 C1005 1.385 . S
C1005 H991 0.931 . S
C1005 C1004 1.385 . S
C1005 C1006 1.389 . S
C1006 C1005 1.389 . S
C1006 C1007 1.387 . S
C1007 H992 0.930 . S
C1007 C1002 1.390 . S
C1007 C1006 1.387 . S
H1008 C1020 0.930 . S
H1009 C1022 0.930 . S
H1010 C1023 0.930 . S
H1011 C1027 0.959 . S
H1012 C1027 0.959 . S
H1013 C1027 0.961 . S
H1014 C1028 0.960 . S
H1015 C1028 0.961 . S
H1016 C1028 0.959 . S
H1017 C1031 0.929 . S
H1018 C1032 0.931 . S
H1019 C1034 0.930 . S
C1020 H1008 0.930 . S
C1020 C1021 1.399 . S
C1020 C1025 1.399 . S
C1021 C1020 1.399 . S
C1021 C1022 1.376 . S
C1022 H1009 0.930 . S
C1022 C1021 1.376 . S
C1022 C1023 1.388 . S
C1023 H1010 0.930 . S
C1023 C1022 1.388 . S
C1023 C1024 1.390 . S
C1024 C1023 1.390 . S
C1024 C1025 1.394 . S
C1024 C1030 1.465 . S
C1025 C1020 1.399 . S
C1025 C1024 1.394 . S
C1025 C1026 1.516 . S
C1026 C1025 1.516 . S
C1026 C1027 1.502 . S
C1026 C1028 1.561 . S
C1026 C1029 1.526 . S
C1027 H1011 0.959 . S
C1027 H1012 0.959 . S
C1027 H1013 0.961 . S
C1027 C1026 1.502 . S
C1028 H1014 0.960 . S
C1028 H1015 0.961 . S
C1028 H1016 0.959 . S
C1028 C1026 1.561 . S
C1029 C1026 1.526 . S
C1029 C1030 1.396 . S
C1029 C1034 1.390 . S
C1030 C1024 1.465 . S
C1030 C1029 1.396 . S
C1030 C1031 1.399 . S
C1031 H1017 0.929 . S
C1031 C1030 1.399 . S
C1031 C1032 1.385 . S
C1032 H1018 0.931 . S
C1032 C1031 1.385 . S
C1032 C1033 1.389 . S
C1033 C1032 1.389 . S
C1033 C1034 1.387 . S
C1034 H1019 0.930 . S
C1034 C1029 1.390 . S
C1034 C1033 1.387 . S
H1035 C1047 0.930 . S
H1036 C1049 0.930 . S
H1037 C1050 0.930 . S
H1038 C1054 0.959 . S
H1039 C1054 0.959 . S
H1040 C1054 0.961 . S
H1041 C1055 0.960 . S
H1042 C1055 0.961 . S
H1043 C1055 0.959 . S
H1044 C1058 0.929 . S
H1045 C1059 0.931 . S
H1046 C1061 0.930 . S
C1047 H1035 0.930 . S
C1047 C1048 1.399 . S
C1047 C1052 1.399 . S
C1048 C1047 1.399 . S
C1048 C1049 1.376 . S
C1049 H1036 0.930 . S
C1049 C1048 1.376 . S
C1049 C1050 1.388 . S
C1050 H1037 0.930 . S
C1050 C1049 1.388 . S
C1050 C1051 1.390 . S
C1051 C1050 1.390 . S
C1051 C1052 1.394 . S
C1051 C1057 1.465 . S
C1052 C1047 1.399 . S
C1052 C1051 1.394 . S
C1052 C1053 1.516 . S
C1053 C1052 1.516 . S
C1053 C1054 1.502 . S
C1053 C1055 1.561 . S
C1053 C1056 1.526 . S
C1054 H1038 0.959 . S
C1054 H1039 0.959 . S
C1054 H1040 0.961 . S
C1054 C1053 1.502 . S
C1055 H1041 0.960 . S
C1055 H1042 0.961 . S
C1055 H1043 0.959 . S
C1055 C1053 1.561 . S
C1056 C1053 1.526 . S
C1056 C1057 1.396 . S
C1056 C1061 1.390 . S
C1057 C1051 1.465 . S
C1057 C1056 1.396 . S
C1057 C1058 1.399 . S
C1058 H1044 0.929 . S
C1058 C1057 1.399 . S
C1058 C1059 1.385 . S
C1059 H1045 0.931 . S
C1059 C1058 1.385 . S
C1059 C1060 1.389 . S
C1060 C1059 1.389 . S
C1060 C1061 1.387 . S
C1061 H1046 0.930 . S
C1061 C1056 1.390 . S
C1061 C1060 1.387 . S
H1062 C1074 0.930 . S
H1063 C1076 0.930 . S
H1064 C1077 0.930 . S
H1065 C1081 0.959 . S
H1066 C1081 0.959 . S
H1067 C1081 0.961 . S
H1068 C1082 0.960 . S
H1069 C1082 0.961 . S
H1070 C1082 0.959 . S
H1071 C1085 0.929 . S
H1072 C1086 0.931 . S
H1073 C1088 0.930 . S
C1074 H1062 0.930 . S
C1074 C1075 1.399 . S
C1074 C1079 1.399 . S
C1075 C1074 1.399 . S
C1075 C1076 1.376 . S
C1076 H1063 0.930 . S
C1076 C1075 1.376 . S
C1076 C1077 1.388 . S
C1077 H1064 0.930 . S
C1077 C1076 1.388 . S
C1077 C1078 1.390 . S
C1078 C1077 1.390 . S
C1078 C1079 1.394 . S
C1078 C1084 1.465 . S
C1079 C1074 1.399 . S
C1079 C1078 1.394 . S
C1079 C1080 1.516 . S
C1080 C1079 1.516 . S
C1080 C1081 1.502 . S
C1080 C1082 1.561 . S
C1080 C1083 1.526 . S
C1081 H1065 0.959 . S
C1081 H1066 0.959 . S
C1081 H1067 0.961 . S
C1081 C1080 1.502 . S
C1082 H1068 0.960 . S
C1082 H1069 0.961 . S
C1082 H1070 0.959 . S
C1082 C1080 1.561 . S
C1083 C1080 1.526 . S
C1083 C1084 1.396 . S
C1083 C1088 1.390 . S
C1084 C1078 1.465 . S
C1084 C1083 1.396 . S
C1084 C1085 1.399 . S
C1085 H1071 0.929 . S
C1085 C1084 1.399 . S
C1085 C1086 1.385 . S
C1086 H1072 0.931 . S
C1086 C1085 1.385 . S
C1086 C1087 1.389 . S
C1087 C1086 1.389 . S
C1087 C1088 1.387 . S
C1088 H1073 0.930 . S
C1088 C1083 1.390 . S
C1088 C1087 1.387 . S
C373 C18 1.389 . S
C385 C8 1.426 . S
C400 C58 1.380 . S
C412 C48 1.443 . S
C427 C98 1.388 . S
C439 C88 1.441 . S
C454 C128 1.390 . S
C466 C138 1.426 1_556 S
C481 C168 1.420 . S
C493 C178 1.395 1_556 S
C508 C208 1.443 . S
C520 C218 1.380 1_556 S
C535 C249 1.348 . S
C547 C259 1.238 . S
C562 C289 1.307 1_455 S
C574 C299 1.263 . S
C589 C329 1.333 . S
C601 C339 1.264 1_455 S
C616 C219 2.486 . S
C628 C15 2.431 . S
C643 C55 2.423 . S
C655 C139 2.498 . S
C670 C95 2.433 1_565 S
C682 C179 2.496 . S
C697 C99 2.138 . S
C709 C258 2.312 . S
C724 C298 2.301 . S
C736 C19 2.128 . S
C751 C338 2.294 . S
C763 C59 2.200 . S
C778 C335 0.988 . S
C790 C5 1.024 . S
C805 C45 0.973 . S
C817 C255 0.994 . S
C832 C295 0.980 . S
C844 C85 1.001 . S
C859 C89 2.496 . S
C871 C125 2.426 . S
C886 C165 2.435 . S
C898 C9 2.498 . S
C913 C49 2.493 . S
C925 C205 2.453 . S
C940 C325 0.998 . S
C952 C135 0.984 . S
C967 C245 0.995 . S
C979 C175 0.986 . S
C994 C285 1.011 . S
C1006 C215 0.972 . S
C1021 C248 2.301 . S
C1033 C209 2.134 . S
C1048 C129 2.175 . S
C1060 C288 2.285 . S
C1075 C328 2.286 . S
C1087 C169 2.132 . S
