# Generated by pormake.
# Topology tfs, (6)-cn, num edge types: 1
# Building blocks:
#     Node 0, Type 0, BuildingBlock: GEDQOX_clean_sbu_0, # of connection points: 6
#     Node 1, Type 0, BuildingBlock: GEDQOX_clean_sbu_0, # of connection points: 6
#     Node 2, Type 0, BuildingBlock: GEDQOX_clean_sbu_0, # of connection points: 6
#     Node 3, Type 0, BuildingBlock: GEDQOX_clean_sbu_0, # of connection points: 6
#     Node 4, Type 0, BuildingBlock: GEDQOX_clean_sbu_0, # of connection points: 6
#     Node 5, Type 0, BuildingBlock: GEDQOX_clean_sbu_0, # of connection points: 6
#     Edge 6, Type (0, 0), BuildingBlock: CIFDUS_clean_linker_0, # of connection points: 2
#     Edge 7, Type (0, 0), BuildingBlock: CIFDUS_clean_linker_0, # of connection points: 2
#     Edge 8, Type (0, 0), BuildingBlock: CIFDUS_clean_linker_0, # of connection points: 2
#     Edge 9, Type (0, 0), BuildingBlock: CIFDUS_clean_linker_0, # of connection points: 2
#     Edge 10, Type (0, 0), BuildingBlock: CIFDUS_clean_linker_0, # of connection points: 2
#     Edge 11, Type (0, 0), BuildingBlock: CIFDUS_clean_linker_0, # of connection points: 2
#     Edge 12, Type (0, 0), BuildingBlock: CIFDUS_clean_linker_0, # of connection points: 2
#     Edge 13, Type (0, 0), BuildingBlock: CIFDUS_clean_linker_0, # of connection points: 2
#     Edge 14, Type (0, 0), BuildingBlock: CIFDUS_clean_linker_0, # of connection points: 2
#     Edge 15, Type (0, 0), BuildingBlock: CIFDUS_clean_linker_0, # of connection points: 2
#     Edge 16, Type (0, 0), BuildingBlock: CIFDUS_clean_linker_0, # of connection points: 2
#     Edge 17, Type (0, 0), BuildingBlock: CIFDUS_clean_linker_0, # of connection points: 2
#     Edge 18, Type (0, 0), BuildingBlock: CIFDUS_clean_linker_0, # of connection points: 2
#     Edge 19, Type (0, 0), BuildingBlock: CIFDUS_clean_linker_0, # of connection points: 2
#     Edge 20, Type (0, 0), BuildingBlock: CIFDUS_clean_linker_0, # of connection points: 2
#     Edge 21, Type (0, 0), BuildingBlock: CIFDUS_clean_linker_0, # of connection points: 2
#     Edge 22, Type (0, 0), BuildingBlock: CIFDUS_clean_linker_0, # of connection points: 2
#     Edge 23, Type (0, 0), BuildingBlock: CIFDUS_clean_linker_0, # of connection points: 2
# Relax obj value: 0.592
# Max RMSD: 0.443
# Mean RMSD: 0.359
data_MOF--net-tfs--node1-GEDQOX_clean_sbu_0--edge1-CIFDUS_clean_linker_0
_symmetry_space_group_name_H-M    P1
_symmetry_Int_Tables_number       1
_symmetry_cell_setting            triclinic
loop_
_symmetry_equiv_pos_as_xyz
'x, y, z'
_cell_length_a     42.751996
_cell_length_b     46.363208
_cell_length_c     11.573924
_cell_angle_alpha  96.89107
_cell_angle_beta   86.503976
_cell_angle_gamma 110.99814
loop_
_atom_site_label
_atom_site_type_symbol
_atom_site_fract_x
_atom_site_fract_y
_atom_site_fract_z
_atom_type_partial_charge
Nd0 Nd 0.28257 0.44601 0.89393 0.0
Nd1 Nd 0.35623 0.48363 0.80956 0.0
C2 C 0.22686 0.421 0.01399 0.0
C3 C 0.2003 0.39375 0.05424 0.0
C4 C 0.18911 0.39585 0.17002 0.0
C5 C 0.1604 0.37296 0.208 0.0
C6 C 0.14233 0.3473 0.13085 0.0
C7 C 0.15476 0.34436 0.01618 0.0
C8 C 0.18351 0.3675 -0.02205 0.0
C9 C 0.29691 0.43442 0.66284 0.0
C10 C 0.34453 0.42317 0.94771 0.0
C11 C 0.41524 0.51045 0.71164 0.0
C12 C 0.448 0.519 0.7654 0.0
C13 C 0.47625 0.54225 0.725 0.0
C14 C 0.50404 0.55675 0.79674 0.0
C15 C 0.50321 0.54921 0.91211 0.0
C16 C 0.47617 0.52328 0.94543 0.0
C17 C 0.44915 0.50824 0.87241 0.0
C18 C 0.34194 0.49498 0.04104 0.0
C19 C 0.29701 0.51159 0.79257 0.0
O20 O 0.25664 0.42942 0.05828 0.0
O21 O 0.22732 0.42599 0.9048 0.0
O22 O 0.26719 0.43236 0.70235 0.0
O23 O 0.31634 0.43896 0.74568 0.0
O24 O 0.31228 0.41891 0.96023 0.0
O25 O 0.36581 0.44471 0.8877 0.0
O26 O 0.3969 0.526 0.76132 0.0
O27 O 0.39827 0.4806 0.6921 0.0
O28 O 0.37158 0.49679 0.00164 0.0
O29 O 0.32266 0.49047 0.9578 0.0
O30 O 0.32464 0.50918 0.74113 0.0
O31 O 0.28 0.49315 0.87095 0.0
H32 H 0.20166 0.41607 0.2299 0.0
H33 H 0.1514 0.37638 0.2962 0.0
H34 H 0.14174 0.32466 0.95509 0.0
H35 H 0.19186 0.36541 0.88811 0.0
H36 H 0.47598 0.55062 0.64173 0.0
H37 H 0.52496 0.57534 0.76419 0.0
H38 H 0.47373 0.51609 0.03193 0.0
H39 H 0.4277 0.49006 0.90474 0.0
Nd40 Nd 0.82419 0.23337 0.7309 0.0
Nd41 Nd 0.7589 0.23894 0.85075 0.0
C42 C 0.87024 0.2221 0.58929 0.0
C43 C 0.90411 0.23684 0.54229 0.0
C44 C 0.91353 0.2239 0.4364 0.0
C45 C 0.94619 0.2364 0.39255 0.0
C46 C 0.96997 0.26203 0.45431 0.0
C47 C 0.96025 0.27521 0.55989 0.0
C48 C 0.9275 0.26275 0.60347 0.0
C49 C 0.81383 0.22308 0.95967 0.0
C50 C 0.75407 0.17209 0.72368 0.0
C51 C 0.71292 0.2453 0.00358 0.0
C52 C 0.69358 0.26559 0.03262 0.0
C53 C 0.66175 0.25311 0.08405 0.0
C54 C 0.6385 0.2677 0.08024 0.0
C55 C 0.64703 0.29498 0.02543 0.0
C56 C 0.68011 0.30921 -0.01455 0.0
C57 C 0.70329 0.29442 -0.01182 0.0
C58 C 0.76825 0.25016 0.6231 0.0
C59 C 0.82854 0.30267 0.84311 0.0
O60 O 0.86771 0.21833 0.70022 0.0
O61 O 0.84661 0.23053 0.55374 0.0
O62 O 0.84321 0.23903 0.91883 0.0
O63 O 0.7926 0.21377 0.88155 0.0
O64 O 0.78182 0.18683 0.66557 0.0
O65 O 0.74383 0.18642 0.81518 0.0
O66 O 0.74506 0.25676 0.02564 0.0
O67 O 0.70603 0.22886 0.90203 0.0
O68 O 0.73847 0.23664 0.66674 0.0
O69 O 0.78991 0.2581 0.69937 0.0
O70 O 0.79822 0.28924 0.89004 0.0
O71 O 0.84325 0.28647 0.77199 0.0
H72 H 0.89572 0.20383 0.38838 0.0
H73 H 0.95301 0.22564 0.31145 0.0
H74 H 0.97791 0.29528 0.60836 0.0
H75 H 0.92053 0.27311 0.68522 0.0
H76 H 0.65392 0.23075 0.11799 0.0
H77 H 0.6131 0.2564 0.11147 0.0
H78 H 0.68709 0.33009 0.94177 0.0
H79 H 0.72772 0.30414 0.94704 0.0
Nd80 Nd 0.56927 0.8472 0.51749 0.0
Nd81 Nd 0.54113 0.77909 0.59199 0.0
C82 C 0.58723 0.90089 0.42813 0.0
C83 C 0.61359 0.93193 0.44517 0.0
C84 C 0.62039 0.95211 0.35823 0.0
C85 C 0.64319 0.98264 0.37764 0.0
C86 C 0.65945 0.99357 0.48484 0.0
C87 C 0.6534 0.97284 0.57015 0.0
C88 C 0.63076 0.94233 0.55043 0.0
C89 C 0.57334 0.84232 0.7483 0.0
C90 C 0.62092 0.81119 0.55158 0.0
C91 C 0.5195 0.72506 0.67673 0.0
C92 C 0.5301 0.6984 0.64022 0.0
C93 C 0.50666 0.66805 0.63501 0.0
C94 C 0.51393 0.64372 0.56955 0.0
C95 C 0.54457 0.64964 0.5075 0.0
C96 C 0.56916 0.67945 0.52255 0.0
C97 C 0.56197 0.70365 0.58819 0.0
C98 C 0.55855 0.78431 0.3623 0.0
C99 C 0.48659 0.81074 0.54368 0.0
O100 O 0.59651 0.87787 0.3822 0.0
O101 O 0.56545 0.89333 0.51415 0.0
O102 O 0.59585 0.86332 0.69348 0.0
O103 O 0.54931 0.82648 0.68372 0.0
O104 O 0.61503 0.8308 0.48848 0.0
O105 O 0.59742 0.7943 0.62025 0.0
O106 O 0.50344 0.73174 0.59695 0.0
O107 O 0.54226 0.74971 0.72833 0.0
O108 O 0.56047 0.76203 0.41548 0.0
O109 O 0.54448 0.80006 0.42535 0.0
O110 O 0.492 0.78834 0.59078 0.0
O111 O 0.51145 0.83442 0.50399 0.0
H112 H 0.60738 0.94452 0.2764 0.0
H113 H 0.6471 0.99803 0.31048 0.0
H114 H 0.66587 0.98036 0.65296 0.0
H115 H 0.62605 0.92707 0.61848 0.0
H116 H 0.48187 0.66361 0.67364 0.0
H117 H 0.49442 0.62098 0.55856 0.0
H118 H 0.59296 0.68458 0.47586 0.0
H119 H 0.5804 0.72693 0.59009 0.0
Nd120 Nd 0.87744 0.67544 0.58193 0.0
Nd121 Nd 0.90527 0.6264 0.66479 0.0
C122 C 0.85836 0.71611 0.48922 0.0
C123 C 0.82999 0.7277 0.50582 0.0
C124 C 0.81807 0.73692 0.41132 0.0
C125 C 0.7909 0.74746 0.42591 0.0
C126 C 0.77495 0.74895 0.53554 0.0
C127 C 0.78743 0.74008 0.63025 0.0
C128 C 0.81443 0.72948 0.61549 0.0
C129 C 0.88183 0.67575 0.81669 0.0
C130 C 0.95922 0.68927 0.5839 0.0
C131 C 0.91708 0.58449 0.77598 0.0
C132 C 0.90269 0.5507 0.79199 0.0
C133 C 0.88176 0.54029 0.88858 0.0
C134 C 0.86938 0.50873 0.90669 0.0
C135 C 0.87777 0.48662 0.82924 0.0
C136 C 0.89882 0.4971 0.73286 0.0
C137 C 0.91115 0.52865 0.71466 0.0
C138 C 0.89957 0.62445 0.42999 0.0
C139 C 0.82259 0.60996 0.64972 0.0
O140 O 0.87956 0.72369 0.57453 0.0
O141 O 0.85132 0.68729 0.44384 0.0
O142 O 0.85792 0.68105 0.76967 0.0
O143 O 0.90298 0.67229 0.74131 0.0
O144 O 0.93423 0.69168 0.52707 0.0
O145 O 0.95351 0.66943 0.66307 0.0
O146 O 0.90076 0.60222 0.8231 0.0
O147 O 0.93036 0.59229 0.67412 0.0
O148 O 0.92269 0.61765 0.47589 0.0
O149 O 0.87938 0.62926 0.50665 0.0
O150 O 0.84777 0.60346 0.68724 0.0
O151 O 0.82746 0.63504 0.59677 0.0
H152 H 0.82959 0.7357 0.32575 0.0
H153 H 0.78189 0.75369 0.35062 0.0
H154 H 0.77633 0.74133 0.71646 0.0
H155 H 0.82306 0.72255 0.69002 0.0
H156 H 0.87516 0.55662 0.95114 0.0
H157 H 0.85366 0.50173 -0.01722 0.0
H158 H 0.90554 0.48084 0.67039 0.0
H159 H 0.92748 0.53575 0.63996 0.0
Nd160 Nd 0.23316 0.83355 0.54151 0.0
Nd161 Nd 0.22489 0.76676 0.41078 0.0
C162 C 0.24801 0.88832 0.66673 0.0
C163 C 0.26338 0.9206 0.63729 0.0
C164 C 0.27152 0.94558 0.72507 0.0
C165 C 0.28514 0.97627 0.69635 0.0
C166 C 0.29066 0.98249 0.57914 0.0
C167 C 0.28287 0.95725 0.49169 0.0
C168 C 0.26947 0.92666 0.52049 0.0
C169 C 0.22744 0.82771 0.30697 0.0
C170 C 0.15773 0.78127 0.51322 0.0
C171 C 0.21393 0.71766 0.25505 0.0
C172 C 0.23059 0.6975 0.19157 0.0
C173 C 0.26234 0.70993 0.13825 0.0
C174 C 0.27638 0.69044 0.07021 0.0
C175 C 0.25898 0.65817 0.0544 0.0
C176 C 0.22748 0.64585 0.10986 0.0
C177 C 0.21342 0.66534 0.1773 0.0
C178 C 0.23135 0.77306 0.64488 0.0
C179 C 0.30016 0.81184 0.48478 0.0
O180 O 0.21842 0.87262 0.62332 0.0
O181 O 0.26765 0.87201 0.65771 0.0
O182 O 0.21799 0.84743 0.37461 0.0
O183 O 0.24297 0.81543 0.3614 0.0
O184 O 0.1778 0.80431 0.58438 0.0
O185 O 0.1703 0.76711 0.42603 0.0
O186 O 0.22398 0.74626 0.22901 0.0
O187 O 0.20743 0.71536 0.36636 0.0
O188 O 0.24039 0.75272 0.57758 0.0
O189 O 0.21593 0.78537 0.5904 0.0
O190 O 0.28214 0.78698 0.41724 0.0
O191 O 0.28677 0.83111 0.54446 0.0
H192 H 0.26702 0.94138 0.81573 0.0
H193 H 0.2906 0.99513 0.76578 0.0
H194 H 0.28726 0.96113 0.40074 0.0
H195 H 0.2636 0.9077 0.45138 0.0
H196 H 0.2761 0.73474 0.1476 0.0
H197 H 0.30059 0.70071 0.02847 0.0
H198 H 0.21372 0.62106 0.10195 0.0
H199 H 0.18889 0.65529 0.21741 0.0
Nd200 Nd 0.45003 0.31244 0.49547 0.0
Nd201 Nd 0.49349 0.38232 0.5892 0.0
C202 C 0.41682 0.25689 0.38868 0.0
C203 C 0.40423 0.22477 0.42094 0.0
C204 C 0.39461 0.19956 0.33435 0.0
C205 C 0.38258 0.169 0.36434 0.0
C206 C 0.37989 0.16303 0.48183 0.0
C207 C 0.38972 0.18853 0.56826 0.0
C208 C 0.40183 0.21904 0.5381 0.0
C209 C 0.43822 0.33064 0.72363 0.0
C210 C 0.43158 0.37064 0.42695 0.0
C211 C 0.52783 0.4363 0.70581 0.0
C212 C 0.56216 0.45933 0.69899 0.0
C213 C 0.58918 0.45012 0.6588 0.0
C214 C 0.62148 0.47223 0.65013 0.0
C215 C 0.62743 0.50405 0.68057 0.0
C216 C 0.60022 0.51315 0.72041 0.0
C217 C 0.56793 0.49099 0.72969 0.0
C218 C 0.5086 0.3641 0.3644 0.0
C219 C 0.51313 0.32384 0.65775 0.0
O220 O 0.40217 0.27549 0.44114 0.0
O221 O 0.44945 0.27027 0.38076 0.0
O222 O 0.43349 0.3022 0.68215 0.0
O223 O 0.44435 0.34761 0.64134 0.0
O224 O 0.43272 0.34286 0.39171 0.0
O225 O 0.44686 0.38743 0.5216 0.0
O226 O 0.52484 0.40938 0.73869 0.0
O227 O 0.50835 0.43369 0.6195 0.0
O228 O 0.5155 0.39282 0.40625 0.0
O229 O 0.49978 0.34722 0.44676 0.0
O230 O 0.51538 0.35309 0.6811 0.0
O231 O 0.49299 0.30435 0.57793 0.0
H232 H 0.39647 0.20349 0.24336 0.0
H233 H 0.37579 0.15005 0.29525 0.0
H234 H 0.38764 0.18498 0.65959 0.0
H235 H 0.4092 0.23817 0.60641 0.0
H236 H 0.58527 0.42584 0.63323 0.0
H237 H 0.64171 0.46442 0.6175 0.0
H238 H 0.60393 0.5374 0.74551 0.0
H239 H 0.54741 0.49861 0.76047 0.0
H240 H 0.37724 0.34274 0.29133 0.0
H241 H 0.45654 0.43043 0.37852 0.0
H242 H 0.43933 0.45291 0.22423 0.0
H243 H 0.40151 0.44779 0.06664 0.0
H244 H 0.31726 0.36281 -0.00339 0.0
H245 H 0.33702 0.3386 0.14005 0.0
C246 C 0.39035 0.36689 0.27732 0.0
C247 C 0.4178 0.38508 0.34659 0.0
C248 C 0.37983 0.37983 0.19032 0.0
C249 C 0.43486 0.41625 0.32771 0.0
C250 C 0.42535 0.42895 0.23857 0.0
C251 C 0.38773 0.42383 0.08179 0.0
C252 C 0.35832 0.40685 0.02041 0.0
C253 C 0.39794 0.41093 0.1693 0.0
C254 C 0.34021 0.3761 0.04231 0.0
C255 C 0.35132 0.36242 0.12482 0.0
H256 H 0.1241 0.32519 0.34224 0.0
H257 H 0.08541 0.32148 0.00252 0.0
H258 H 1.029 0.29269 0.07078 0.0
H259 H 0.98988 0.27342 0.23182 0.0
H260 H 1.02804 0.27979 0.57423 0.0
H261 H 0.08532 0.30366 0.50091 0.0
C262 C 0.10335 0.31807 0.28298 0.0
C263 C 0.10908 0.32576 0.16763 0.0
C264 C 0.07077 0.30255 0.32389 0.0
C265 C 0.08195 0.31564 0.09138 0.0
C266 C 0.04954 0.29949 0.13072 0.0
C267 C 1.01077 0.27964 0.28997 0.0
C268 C 1.00475 0.27508 0.40838 0.0
C269 C 0.04357 0.29353 0.24747 0.0
C270 C 0.03203 0.28355 0.48307 0.0
C271 C 0.06477 0.297 0.44109 0.0
H272 H 0.75748 0.13474 0.52252 0.0
H273 H 0.70751 0.13355 0.85882 0.0
H274 H 0.67491 0.07882 0.81534 0.0
H275 H 0.65935 0.03125 0.68245 0.0
H276 H 0.70744 0.03093 0.34419 0.0
H277 H 0.74159 0.08602 0.38733 0.0
C278 C 0.73956 0.12243 0.58626 0.0
C279 C 0.73506 0.13844 0.69376 0.0
C280 C 0.72036 0.0906 0.56038 0.0
C281 C 0.71151 0.12208 0.77504 0.0
C282 C 0.69278 0.09063 0.75052 0.0
C283 C 0.67761 0.04308 0.61858 0.0
C284 C 0.68099 0.02687 0.5107 0.0
C285 C 0.6969 0.07467 0.64361 0.0
C286 C 0.70422 0.04286 0.42789 0.0
C287 C 0.72384 0.07436 0.45267 0.0
H288 H 0.76154 0.79456 0.43539 0.0
H289 H 0.71908 0.72382 0.66957 0.0
H290 H 0.6696 0.73819 0.69929 0.0
H291 H 0.63756 0.76963 0.65765 0.0
H292 H 0.67721 0.83915 0.41784 0.0
H293 H 0.7284 0.82645 0.39194 0.0
C294 C 0.74141 0.78217 0.49246 0.0
C295 C 0.74456 0.75825 0.55105 0.0
C296 C 0.71244 0.79037 0.50861 0.0
C297 C 0.71805 0.74273 0.62518 0.0
C298 C 0.68948 0.75079 0.64178 0.0
C299 C 0.65735 0.78227 0.59991 0.0
C300 C 0.65333 0.80549 0.54012 0.0
C301 C 0.68639 0.77453 0.58414 0.0
C302 C 0.6795 0.82131 0.46558 0.0
C303 C 0.70878 0.81394 0.4504 0.0
H304 H 0.10436 0.75468 0.3664 0.0
H305 H 0.12914 0.7763 0.72976 0.0
H306 H 0.07054 0.74967 0.78428 0.0
H307 H 1.01205 0.71836 0.72914 0.0
H308 H 0.98595 0.70114 0.36721 0.0
H309 H 0.04468 0.72777 0.31191 0.0
C310 C 0.09683 0.75378 0.45747 0.0
C311 C 0.12128 0.76747 0.54379 0.0
C312 C 0.06268 0.73903 0.48857 0.0
C313 C 0.11095 0.76624 0.66143 0.0
C314 C 0.07738 0.75082 0.69278 0.0
C315 C 1.01924 0.72063 0.63824 0.0
C316 C 0.99461 0.70758 0.5524 0.0
C317 C 0.05301 0.73686 0.60724 0.0
C318 C 1.00431 0.71105 0.43507 0.0
C319 C 0.03797 0.7262 0.40336 0.0
H320 H 0.34138 0.03249 0.6802 0.0
H321 H 0.26914 1.00584 0.40654 0.0
H322 H 0.29033 0.05879 0.35197 0.0
H323 H 0.32883 0.11294 0.38308 0.0
H324 H 0.40193 0.13955 0.65412 0.0
H325 H 0.38047 0.08671 0.70978 0.0
C326 C 0.33012 0.03832 0.60915 0.0
C327 C 0.30373 0.01507 0.54749 0.0
C328 C 0.34247 0.06894 0.57795 0.0
C329 C 0.28975 0.02306 0.45465 0.0
C330 C 0.30175 0.05343 0.42368 0.0
C331 C 0.34037 0.10718 0.45352 0.0
C332 C 0.36698 0.13045 0.51427 0.0
C333 C 0.32814 0.07657 0.48451 0.0
C334 C 0.38111 0.12242 0.6067 0.0
C335 C 0.36898 0.09207 0.63827 0.0
H336 H 0.22706 0.60769 0.90348 0.0
H337 H 0.32434 0.66141 0.04548 0.0
H338 H 0.34703 0.62318 0.94899 0.0
H339 H 0.33683 0.57041 0.85281 0.0
H340 H 0.23802 0.51416 0.73257 0.0
H341 H 0.21836 0.55744 0.78971 0.0
C342 C 0.25327 0.61111 0.91295 0.0
C343 C 0.27378 0.63713 -0.01661 0.0
C344 C 0.26588 0.58853 0.86045 0.0
C345 C 0.30793 0.64164 -0.00812 0.0
C346 C 0.32092 0.61968 0.93717 0.0
C347 C 0.31142 0.56823 0.83471 0.0
C348 C 0.28894 0.53954 0.78702 0.0
C349 C 0.29986 0.59254 0.8746 0.0
C350 C 0.25577 0.53635 0.76736 0.0
C351 C 0.24446 0.56091 0.80155 0.0
H352 H 0.55849 0.35799 0.82068 0.0
H353 H 0.51302 0.26464 0.65321 0.0
H354 H 0.54777 0.24693 0.76625 0.0
H355 H 0.59393 0.25883 0.9001 0.0
H356 H 0.642 0.35258 0.05723 0.0
H357 H 0.6027 0.36936 0.96172 0.0
C358 C 0.55604 0.33372 0.80872 0.0
C359 C 0.53353 0.31274 0.72714 0.0
C360 C 0.57633 0.32382 0.87268 0.0
C361 C 0.53049 0.28135 0.71409 0.0
C362 C 0.55023 0.27119 0.77903 0.0
C363 C 0.59521 0.28278 0.9156 0.0
C364 C 0.62041 0.30448 -0.01385 0.0
C365 C 0.57355 0.29232 0.85706 0.0
C366 C 0.62255 0.33558 0.00364 0.0
C367 C 0.60029 0.34512 0.9486 0.0
H368 H 0.5608 0.66157 0.28643 0.0
H369 H 0.53336 0.5874 0.50713 0.0
H370 H 0.52689 0.5494 0.33503 0.0
H371 H 0.52079 0.53728 0.12372 0.0
H372 H 0.53753 0.61237 0.91052 0.0
H373 H 0.55924 0.64973 0.07586 0.0
C374 C 0.55445 0.63717 0.29707 0.0
C375 C 0.54762 0.62722 0.40896 0.0
C376 C 0.54901 0.61552 0.19824 0.0
C377 C 0.5387 0.59551 0.42158 0.0
C378 C 0.53493 0.57386 0.32325 0.0
C379 C 0.52879 0.56174 0.11249 0.0
C380 C 0.52583 0.57135 0.00343 0.0
C381 C 0.53853 0.58353 0.21103 0.0
C382 C 0.53893 0.60347 -0.00861 0.0
C383 C 0.55101 0.62523 0.08725 0.0
H384 H 0.91031 0.44479 0.79578 0.0
H385 H 0.81486 0.45201 0.90552 0.0
H386 H 0.79229 0.39673 0.93096 0.0
H387 H 0.79842 0.34538 0.91087 0.0
H388 H 0.89331 0.33799 0.79372 0.0
H389 H 0.91708 0.39396 0.78268 0.0
C390 C 0.88451 0.43431 0.82473 0.0
C391 C 0.8644 0.45282 0.84812 0.0
C392 C 0.87148 0.40228 0.83814 0.0
C393 C 0.83117 0.43867 0.88781 0.0
C394 C 0.81812 0.4069 0.90189 0.0
C395 C 0.82447 0.35604 0.88488 0.0
C396 C 0.84398 0.33728 0.85339 0.0
C397 C 0.83792 0.38836 0.87632 0.0
C398 C 0.87761 0.35168 0.8185 0.0
C399 C 0.89124 0.38377 0.81167 0.0
H400 H 0.33085 0.76918 0.46001 0.0
H401 H 0.35141 0.86738 0.5394 0.0
H402 H 0.41108 0.87639 0.55945 0.0
H403 H 0.45789 0.85595 0.55641 0.0
H404 H 0.43496 0.75698 0.49293 0.0
H405 H 0.37629 0.74881 0.46445 0.0
C406 C 0.34838 0.79261 0.48108 0.0
C407 C 0.33657 0.81758 0.49701 0.0
C408 C 0.38248 0.7975 0.49561 0.0
C409 C 0.3597 0.8477 0.52646 0.0
C410 C 0.39391 0.85287 0.5378 0.0
C411 C 0.44001 0.83265 0.53603 0.0
C412 C 0.45098 0.80712 0.52667 0.0
C413 C 0.40569 0.82792 0.52282 0.0
C414 C 0.42732 0.77705 0.50144 0.0
C415 C 0.39366 0.77232 0.48478 0.0
H416 H 0.76332 0.61481 0.59386 0.0
H417 H 0.80359 0.55436 0.74079 0.0
H418 H 0.74731 0.51682 0.76369 0.0
H419 H 0.68652 0.5006 0.74149 0.0
H420 H 0.64573 0.56056 0.59501 0.0
H421 H 0.70211 0.59876 0.57392 0.0
C422 C 0.75983 0.59345 0.63095 0.0
C423 C 0.7879 0.58755 0.66501 0.0
C424 C 0.72718 0.57177 0.6444 0.0
C425 C 0.78267 0.5597 0.71345 0.0
C426 C 0.75039 0.53809 0.72666 0.0
C427 C 0.68995 0.52193 0.7042 0.0
C428 C 0.66183 0.52758 0.66968 0.0
C429 C 0.72247 0.54379 0.69208 0.0
C430 C 0.66682 0.55566 0.62345 0.0
C431 C 0.69911 0.57748 0.61072 0.0
H432 H 0.26582 0.45367 0.50833 0.0
H433 H 0.35505 0.43388 0.55673 0.0
H434 H 0.37841 0.45381 0.37186 0.0
H435 H 0.37346 0.4772 0.19826 0.0
H436 H 0.2836 0.49554 0.14635 0.0
H437 H 0.26057 0.47647 0.3331 0.0
C438 C 0.29017 0.45334 0.47744 0.0
C439 C 0.30888 0.44253 0.54547 0.0
C440 C 0.30343 0.46497 0.3719 0.0
C441 C 0.34047 0.4424 0.50557 0.0
C442 C 0.3538 0.45379 0.40026 0.0
C443 C 0.34891 0.4771 0.22811 0.0
C444 C 0.33002 0.48741 0.159 0.0
C445 C 0.33562 0.4654 0.33341 0.0
C446 C 0.29844 0.48757 0.19873 0.0
C447 C 0.28522 0.4765 0.30473 0.0
H448 H 0.73908 0.20831 0.44316 0.0
H449 H 0.82011 0.2945 0.53311 0.0
H450 H 0.84356 0.2929 0.33578 0.0
H451 H 0.84182 0.26604 0.13892 0.0
H452 H 0.76105 0.17956 0.04961 0.0
H453 H 0.73706 0.18169 0.2458 0.0
C454 C 0.76137 0.227 0.41808 0.0
C455 C 0.77772 0.25161 0.50042 0.0
C456 C 0.77524 0.22543 0.30588 0.0
C457 C 0.80707 0.27547 0.46934 0.0
C458 C 0.82066 0.27443 0.35735 0.0
C459 C 0.81937 0.24747 0.16367 0.0
C460 C 0.80336 0.22256 0.08184 0.0
C461 C 0.8053 0.24922 0.2755 0.0
C462 C 0.77384 0.19885 0.11278 0.0
C463 C 0.75995 0.20017 0.22419 0.0
H464 H 0.60651 0.82702 0.25284 0.0
H465 H 0.51709 0.74603 0.19892 0.0
H466 H 0.51361 0.75744 -0.00014 0.0
H467 H 0.53208 0.79422 0.8539 0.0
H468 H 0.6236 0.87354 0.90039 0.0
H469 H 0.62963 0.86 0.09406 0.0
C470 C 0.58693 0.81152 0.19575 0.0
C471 C 0.5622 0.78576 0.23786 0.0
C472 C 0.58495 0.81853 0.08307 0.0
C473 C 0.5366 0.76569 0.16568 0.0
C474 C 0.53436 0.77248 0.05324 0.0
C475 C 0.55383 0.80803 0.90507 0.0
C476 C 0.57748 0.8346 0.86367 0.0
C477 C 0.55777 0.7994 0.01287 0.0
C478 C 0.60507 0.85297 0.93154 0.0
C479 C 0.60863 0.84514 0.04142 0.0
H480 H 0.85171 0.63549 0.32225 0.0
H481 H 0.95055 0.63066 0.27127 0.0
H482 H 0.95429 0.64749 0.07687 0.0
H483 H 0.92977 0.66455 0.92412 0.0
H484 H 0.83104 0.66973 0.97589 0.0
H485 H 0.8274 0.65303 0.17038 0.0
C486 C 0.87412 0.63836 0.26866 0.0
C487 C 0.90091 0.63219 0.31043 0.0
C488 C 0.87627 0.64852 0.15857 0.0
C489 C 0.92959 0.63525 0.24008 0.0
C490 C 0.93183 0.64507 0.12962 0.0
C491 C 0.90751 0.66205 -0.02173 0.0
C492 C 0.88064 0.66811 0.93637 0.0
C493 C 0.90542 0.65199 0.08854 0.0
C494 C 0.85201 0.66512 0.00695 0.0
C495 C 0.84984 0.65541 0.11753 0.0
H496 H 0.2598 0.82595 0.77597 0.0
H497 H 0.20095 0.72918 0.79004 0.0
H498 H 0.18935 0.73933 -0.00167 0.0
H499 H 0.19379 0.77686 0.17178 0.0
H500 H 0.25916 0.87191 0.16385 0.0
H501 H 0.26789 0.86257 0.95288 0.0
C502 C 0.24503 0.80715 0.82582 0.0
C503 C 0.23155 0.77696 0.77063 0.0
C504 C 0.23853 0.8133 0.94371 0.0
C505 C 0.21216 0.75244 0.8334 0.0
C506 C 0.20505 0.75837 0.95107 0.0
C507 C 0.21075 0.79506 0.12368 0.0
C508 C 0.22678 0.82451 0.18116 0.0
C509 C 0.21776 0.78879 0.00628 0.0
C510 C 0.24667 0.84901 0.11923 0.0
C511 C 0.25209 0.84353 -4e-05 0.0
H512 H 0.49574 0.39786 0.21142 0.0
H513 H 0.49702 0.30675 0.24741 0.0
H514 H 0.47347 0.28808 0.05303 0.0
H515 H 0.45183 0.29762 0.87668 0.0
H516 H 0.45112 0.38884 0.83818 0.0
H517 H 0.47451 0.40759 0.03311 0.0
C518 C 0.49118 0.37398 0.17628 0.0
C519 C 0.49793 0.35352 0.24331 0.0
C520 C 0.47725 0.36346 0.06585 0.0
C521 C 0.4917 0.32268 0.19736 0.0
C522 C 0.47822 0.31208 0.08671 0.0
C523 C 0.4565 0.32158 0.91111 0.0
C524 C 0.44958 0.34186 0.84383 0.0
C525 C 0.47056 0.33219 0.02107 0.0
C526 C 0.45612 0.37285 0.88897 0.0
C527 C 0.46966 0.38355 -0.00026 0.0
loop_
_geom_bond_atom_site_label_1
_geom_bond_atom_site_label_2
_geom_bond_distance
_geom_bond_site_symmetry_2
_ccdc_geom_bond_type
Nd0 C2 2.836 . S
Nd0 O20 2.500 . S
Nd0 O21 2.492 1_554 S
Nd0 O22 2.487 1_554 S
Nd0 O23 2.682 1_554 S
Nd0 O24 2.410 1_554 S
Nd0 O29 2.414 . S
Nd0 O31 2.424 1_554 S
Nd1 C11 2.839 . S
Nd1 O23 2.419 . S
Nd1 O25 2.422 1_556 S
Nd1 O26 2.505 . S
Nd1 O27 2.491 1_556 S
Nd1 O28 2.480 1_556 S
Nd1 O29 2.677 1_556 S
Nd1 O30 2.410 1_556 S
C2 Nd0 2.836 . S
C2 C3 1.498 . S
C2 O20 1.258 . S
C2 O21 1.239 1_554 S
C3 C2 1.498 . S
C3 C4 1.366 . S
C3 C8 1.407 . S
C4 C3 1.366 . S
C4 C5 1.392 . S
C4 H32 0.930 . S
C5 C4 1.392 . S
C5 C6 1.398 . S
C5 H33 0.929 . S
C6 C5 1.398 . S
C6 C7 1.352 . S
C7 C6 1.352 . S
C7 C8 1.384 . S
C7 H34 0.930 1_554 S
C8 C3 1.407 . S
C8 C7 1.384 . S
C8 H35 0.929 1_554 S
C9 O22 1.241 . S
C9 O23 1.273 . S
C10 O24 1.251 1_554 S
C10 O25 1.268 . S
C11 Nd1 2.839 . S
C11 C12 1.498 . S
C11 O26 1.258 . S
C11 O27 1.239 1_556 S
C12 C11 1.498 . S
C12 C13 1.366 . S
C12 C17 1.407 . S
C13 C12 1.366 . S
C13 C14 1.392 . S
C13 H36 0.930 . S
C14 C13 1.392 . S
C14 C15 1.398 . S
C14 H37 0.929 . S
C15 C14 1.398 . S
C15 C16 1.352 . S
C16 C15 1.352 . S
C16 C17 1.384 . S
C16 H38 0.930 1_556 S
C17 C12 1.407 . S
C17 C16 1.384 . S
C17 H39 0.929 1_556 S
C18 O28 1.241 . S
C18 O29 1.273 . S
C19 O30 1.251 1_556 S
C19 O31 1.268 . S
O20 Nd0 2.500 . S
O20 C2 1.258 . S
O21 Nd0 2.492 1_556 S
O21 C2 1.239 1_556 S
O22 Nd0 2.487 1_556 S
O22 C9 1.241 . S
O23 Nd0 2.682 1_556 S
O23 Nd1 2.419 . S
O23 C9 1.273 . S
O24 Nd0 2.410 1_556 S
O24 C10 1.251 1_556 S
O25 Nd1 2.422 1_554 S
O25 C10 1.268 . S
O26 Nd1 2.505 . S
O26 C11 1.258 . S
O27 Nd1 2.491 1_554 S
O27 C11 1.239 1_554 S
O28 Nd1 2.480 1_554 S
O28 C18 1.241 . S
O29 Nd0 2.414 . S
O29 Nd1 2.677 1_554 S
O29 C18 1.273 . S
O30 Nd1 2.410 1_554 S
O30 C19 1.251 1_554 S
O31 Nd0 2.424 1_556 S
O31 C19 1.268 . S
H32 C4 0.930 . S
H33 C5 0.929 . S
H34 C7 0.930 1_556 S
H35 C8 0.929 1_556 S
H36 C13 0.930 . S
H37 C14 0.929 . S
H38 C16 0.930 1_554 S
H39 C17 0.929 1_554 S
Nd40 C42 2.835 1_554 S
Nd40 O60 2.496 1_554 S
Nd40 O61 2.493 . S
Nd40 O62 2.493 . S
Nd40 O63 2.686 . S
Nd40 O64 2.410 1_554 S
Nd40 O69 2.410 1_554 S
Nd40 O71 2.425 . S
Nd41 C51 2.834 1_556 S
Nd41 O63 2.408 1_556 S
Nd41 O65 2.425 . S
Nd41 O66 2.494 1_556 S
Nd41 O67 2.494 . S
Nd41 O68 2.496 . S
Nd41 O69 2.687 . S
Nd41 O70 2.410 1_556 S
C42 Nd40 2.835 1_556 S
C42 C43 1.498 . S
C42 O60 1.258 . S
C42 O61 1.239 1_556 S
C43 C42 1.498 . S
C43 C44 1.366 . S
C43 C48 1.407 . S
C44 C43 1.366 . S
C44 C45 1.392 . S
C44 H72 0.930 . S
C45 C44 1.392 . S
C45 C46 1.398 . S
C45 H73 0.929 . S
C46 C45 1.398 . S
C46 C47 1.352 . S
C47 C46 1.352 . S
C47 C48 1.384 . S
C47 H74 0.930 . S
C48 C43 1.407 . S
C48 C47 1.384 . S
C48 H75 0.929 1_556 S
C49 O62 1.241 . S
C49 O63 1.273 . S
C50 O64 1.251 . S
C50 O65 1.268 . S
C51 Nd41 2.834 1_554 S
C51 C52 1.498 . S
C51 O66 1.258 . S
C51 O67 1.239 1_554 S
C52 C51 1.498 . S
C52 C53 1.366 . S
C52 C57 1.407 . S
C53 C52 1.366 . S
C53 C54 1.392 . S
C53 H76 0.930 . S
C54 C53 1.392 . S
C54 C55 1.398 . S
C54 H77 0.929 . S
C55 C54 1.398 . S
C55 C56 1.352 . S
C56 C55 1.352 . S
C56 C57 1.384 . S
C56 H78 0.930 . S
C57 C52 1.407 . S
C57 C56 1.384 . S
C57 H79 0.929 1_554 S
C58 O68 1.241 . S
C58 O69 1.273 . S
C59 O70 1.251 . S
C59 O71 1.268 . S
O60 Nd40 2.496 1_556 S
O60 C42 1.258 . S
O61 Nd40 2.493 . S
O61 C42 1.239 1_554 S
O62 Nd40 2.493 . S
O62 C49 1.241 . S
O63 Nd40 2.686 . S
O63 Nd41 2.408 1_554 S
O63 C49 1.273 . S
O64 Nd40 2.410 1_556 S
O64 C50 1.251 . S
O65 Nd41 2.425 . S
O65 C50 1.268 . S
O66 Nd41 2.494 1_554 S
O66 C51 1.258 . S
O67 Nd41 2.494 . S
O67 C51 1.239 1_556 S
O68 Nd41 2.496 . S
O68 C58 1.241 . S
O69 Nd40 2.410 1_556 S
O69 Nd41 2.687 . S
O69 C58 1.273 . S
O70 Nd41 2.410 1_554 S
O70 C59 1.251 . S
O71 Nd40 2.425 . S
O71 C59 1.268 . S
H72 C44 0.930 . S
H73 C45 0.929 . S
H74 C47 0.930 . S
H75 C48 0.929 1_554 S
H76 C53 0.930 . S
H77 C54 0.929 . S
H78 C56 0.930 . S
H79 C57 0.929 1_556 S
Nd80 C82 2.836 . S
Nd80 O100 2.500 1_554 S
Nd80 O101 2.492 . S
Nd80 O102 2.487 . S
Nd80 O103 2.682 . S
Nd80 O104 2.410 . S
Nd80 O109 2.414 1_554 S
Nd80 O111 2.424 . S
Nd81 C91 2.836 . S
Nd81 O103 2.414 1_556 S
Nd81 O105 2.424 . S
Nd81 O106 2.500 1_556 S
Nd81 O107 2.492 . S
Nd81 O108 2.487 . S
Nd81 O109 2.682 . S
Nd81 O110 2.410 . S
C82 Nd80 2.836 . S
C82 C83 1.498 . S
C82 O100 1.258 1_554 S
C82 O101 1.239 . S
C83 C82 1.498 . S
C83 C84 1.366 . S
C83 C88 1.407 . S
C84 C83 1.366 . S
C84 C85 1.392 . S
C84 H112 0.930 1_554 S
C85 C84 1.392 . S
C85 C86 1.398 1_565 S
C85 H113 0.931 1_554 S
C86 C85 1.398 1_545 S
C86 C87 1.352 . S
C87 C86 1.352 . S
C87 C88 1.384 1_545 S
C87 H114 0.930 . S
C88 C83 1.407 . S
C88 C87 1.384 1_565 S
C88 H115 0.929 . S
C89 O102 1.241 . S
C89 O103 1.273 . S
C90 O104 1.251 . S
C90 O105 1.268 1_554 S
C91 Nd81 2.836 . S
C91 C92 1.498 . S
C91 O106 1.258 1_556 S
C91 O107 1.239 . S
C92 C91 1.498 . S
C92 C93 1.366 . S
C92 C97 1.407 . S
C93 C92 1.366 . S
C93 C94 1.392 . S
C93 H116 0.930 1_556 S
C94 C93 1.392 . S
C94 C95 1.398 . S
C94 H117 0.929 1_556 S
C95 C94 1.398 . S
C95 C96 1.352 . S
C96 C95 1.352 . S
C96 C97 1.384 . S
C96 H118 0.930 . S
C97 C92 1.407 . S
C97 C96 1.384 . S
C97 H119 0.929 . S
C98 O108 1.241 . S
C98 O109 1.273 . S
C99 O110 1.251 . S
C99 O111 1.268 1_556 S
O100 Nd80 2.500 1_556 S
O100 C82 1.258 1_556 S
O101 Nd80 2.492 . S
O101 C82 1.239 . S
O102 Nd80 2.487 . S
O102 C89 1.241 . S
O103 Nd80 2.682 . S
O103 Nd81 2.414 1_554 S
O103 C89 1.273 . S
O104 Nd80 2.410 . S
O104 C90 1.251 . S
O105 Nd81 2.424 . S
O105 C90 1.268 1_556 S
O106 Nd81 2.500 1_554 S
O106 C91 1.258 1_554 S
O107 Nd81 2.492 . S
O107 C91 1.239 . S
O108 Nd81 2.487 . S
O108 C98 1.241 . S
O109 Nd80 2.414 1_556 S
O109 Nd81 2.682 . S
O109 C98 1.273 . S
O110 Nd81 2.410 . S
O110 C99 1.251 . S
O111 Nd80 2.424 . S
O111 C99 1.268 1_554 S
H112 C84 0.930 1_556 S
H113 C85 0.931 1_556 S
H114 C87 0.930 . S
H115 C88 0.929 . S
H116 C93 0.930 1_554 S
H117 C94 0.929 1_554 S
H118 C96 0.930 . S
H119 C97 0.929 . S
Nd120 C122 2.836 . S
Nd120 O140 2.500 . S
Nd120 O141 2.492 1_556 S
Nd120 O142 2.487 1_556 S
Nd120 O143 2.682 1_556 S
Nd120 O144 2.410 . S
Nd120 O149 2.414 . S
Nd120 O151 2.424 . S
Nd121 C131 2.836 . S
Nd121 O143 2.414 1_556 S
Nd121 O145 2.424 . S
Nd121 O146 2.500 1_556 S
Nd121 O147 2.492 . S
Nd121 O148 2.487 . S
Nd121 O149 2.682 . S
Nd121 O150 2.410 . S
C122 Nd120 2.836 . S
C122 C123 1.498 . S
C122 O140 1.258 . S
C122 O141 1.239 1_556 S
C123 C122 1.498 . S
C123 C124 1.366 . S
C123 C128 1.407 . S
C124 C123 1.366 . S
C124 C125 1.392 . S
C124 H152 0.930 . S
C125 C124 1.392 . S
C125 C126 1.398 . S
C125 H153 0.929 . S
C126 C125 1.398 . S
C126 C127 1.352 . S
C127 C126 1.352 . S
C127 C128 1.384 . S
C127 H154 0.930 . S
C128 C123 1.407 . S
C128 C127 1.384 . S
C128 H155 0.929 1_556 S
C129 O142 1.241 . S
C129 O143 1.273 . S
C130 O144 1.251 . S
C130 O145 1.268 . S
C131 Nd121 2.836 . S
C131 C132 1.498 1_556 S
C131 O146 1.258 1_556 S
C131 O147 1.239 . S
C132 C131 1.498 1_554 S
C132 C133 1.366 . S
C132 C137 1.407 1_554 S
C133 C132 1.366 . S
C133 C134 1.392 . S
C133 H156 0.930 . S
C134 C133 1.392 . S
C134 C135 1.398 . S
C134 H157 0.929 . S
C135 C134 1.398 . S
C135 C136 1.352 1_554 S
C136 C135 1.352 1_556 S
C136 C137 1.384 . S
C136 H158 0.930 . S
C137 C132 1.407 1_556 S
C137 C136 1.384 . S
C137 H159 0.929 . S
C138 O148 1.241 . S
C138 O149 1.273 . S
C139 O150 1.251 . S
C139 O151 1.268 . S
O140 Nd120 2.500 . S
O140 C122 1.258 . S
O141 Nd120 2.492 1_554 S
O141 C122 1.239 1_554 S
O142 Nd120 2.487 1_554 S
O142 C129 1.241 . S
O143 Nd120 2.682 1_554 S
O143 Nd121 2.414 1_554 S
O143 C129 1.273 . S
O144 Nd120 2.410 . S
O144 C130 1.251 . S
O145 Nd121 2.424 . S
O145 C130 1.268 . S
O146 Nd121 2.500 1_554 S
O146 C131 1.258 1_554 S
O147 Nd121 2.492 . S
O147 C131 1.239 . S
O148 Nd121 2.487 . S
O148 C138 1.241 . S
O149 Nd120 2.414 . S
O149 Nd121 2.682 . S
O149 C138 1.273 . S
O150 Nd121 2.410 . S
O150 C139 1.251 . S
O151 Nd120 2.424 . S
O151 C139 1.268 . S
H152 C124 0.930 . S
H153 C125 0.929 . S
H154 C127 0.930 . S
H155 C128 0.929 1_554 S
H156 C133 0.930 . S
H157 C134 0.929 . S
H158 C136 0.930 . S
H159 C137 0.929 . S
Nd160 C162 2.836 . S
Nd160 O180 2.500 . S
Nd160 O181 2.492 . S
Nd160 O182 2.487 1_554 S
Nd160 O183 2.682 1_554 S
Nd160 O184 2.410 . S
Nd160 O189 2.414 . S
Nd160 O191 2.424 . S
Nd161 C171 2.836 1_554 S
Nd161 O183 2.414 1_554 S
Nd161 O185 2.424 . S
Nd161 O186 2.500 1_554 S
Nd161 O187 2.492 . S
Nd161 O188 2.487 . S
Nd161 O189 2.682 . S
Nd161 O190 2.410 . S
C162 Nd160 2.836 . S
C162 C163 1.498 . S
C162 O180 1.258 . S
C162 O181 1.239 . S
C163 C162 1.498 . S
C163 C164 1.366 . S
C163 C168 1.407 . S
C164 C163 1.366 . S
C164 C165 1.392 . S
C164 H192 0.930 . S
C165 C164 1.392 . S
C165 C166 1.398 . S
C165 H193 0.929 . S
C166 C165 1.398 . S
C166 C167 1.352 . S
C167 C166 1.352 . S
C167 C168 1.384 . S
C167 H194 0.930 . S
C168 C163 1.407 . S
C168 C167 1.384 . S
C168 H195 0.929 . S
C169 O182 1.241 . S
C169 O183 1.273 . S
C170 O184 1.251 . S
C170 O185 1.268 . S
C171 Nd161 2.836 1_556 S
C171 C172 1.498 . S
C171 O186 1.258 . S
C171 O187 1.239 1_556 S
C172 C171 1.498 . S
C172 C173 1.366 . S
C172 C177 1.407 . S
C173 C172 1.366 . S
C173 C174 1.392 . S
C173 H196 0.930 . S
C174 C173 1.392 . S
C174 C175 1.398 . S
C174 H197 0.929 . S
C175 C174 1.398 . S
C175 C176 1.352 . S
C176 C175 1.352 . S
C176 C177 1.384 . S
C176 H198 0.930 1_556 S
C177 C172 1.407 . S
C177 C176 1.384 . S
C177 H199 0.929 1_556 S
C178 O188 1.241 . S
C178 O189 1.273 . S
C179 O190 1.251 . S
C179 O191 1.268 . S
O180 Nd160 2.500 . S
O180 C162 1.258 . S
O181 Nd160 2.492 . S
O181 C162 1.239 . S
O182 Nd160 2.487 1_556 S
O182 C169 1.241 . S
O183 Nd160 2.682 1_556 S
O183 Nd161 2.414 1_556 S
O183 C169 1.273 . S
O184 Nd160 2.410 . S
O184 C170 1.251 . S
O185 Nd161 2.424 . S
O185 C170 1.268 . S
O186 Nd161 2.500 1_556 S
O186 C171 1.258 . S
O187 Nd161 2.492 . S
O187 C171 1.239 1_554 S
O188 Nd161 2.487 . S
O188 C178 1.241 . S
O189 Nd160 2.414 . S
O189 Nd161 2.682 . S
O189 C178 1.273 . S
O190 Nd161 2.410 . S
O190 C179 1.251 . S
O191 Nd160 2.424 . S
O191 C179 1.268 . S
H192 C164 0.930 . S
H193 C165 0.929 . S
H194 C167 0.930 . S
H195 C168 0.929 . S
H196 C173 0.930 . S
H197 C174 0.929 . S
H198 C176 0.930 1_554 S
H199 C177 0.929 1_554 S
Nd200 C202 2.836 . S
Nd200 O220 2.500 . S
Nd200 O221 2.492 . S
Nd200 O222 2.487 1_556 S
Nd200 O223 2.682 1_556 S
Nd200 O224 2.410 . S
Nd200 O229 2.414 . S
Nd200 O231 2.424 1_556 S
Nd201 C211 2.836 1_556 S
Nd201 O223 2.414 1_556 S
Nd201 O225 2.424 . S
Nd201 O226 2.500 1_556 S
Nd201 O227 2.492 . S
Nd201 O228 2.487 . S
Nd201 O229 2.682 . S
Nd201 O230 2.410 . S
C202 Nd200 2.836 . S
C202 C203 1.498 . S
C202 O220 1.258 . S
C202 O221 1.239 . S
C203 C202 1.498 . S
C203 C204 1.366 . S
C203 C208 1.407 . S
C204 C203 1.366 . S
C204 C205 1.392 . S
C204 H232 0.930 . S
C205 C204 1.392 . S
C205 C206 1.398 . S
C205 H233 0.929 . S
C206 C205 1.398 . S
C206 C207 1.352 . S
C207 C206 1.352 . S
C207 C208 1.384 . S
C207 H234 0.930 . S
C208 C203 1.407 . S
C208 C207 1.384 . S
C208 H235 0.929 1_556 S
C209 O222 1.241 . S
C209 O223 1.273 . S
C210 O224 1.251 . S
C210 O225 1.268 . S
C211 Nd201 2.836 1_554 S
C211 C212 1.498 . S
C211 O226 1.258 . S
C211 O227 1.239 1_554 S
C212 C211 1.498 . S
C212 C213 1.366 . S
C212 C217 1.407 . S
C213 C212 1.366 . S
C213 C214 1.392 . S
C213 H236 0.930 . S
C214 C213 1.392 . S
C214 C215 1.398 . S
C214 H237 0.929 . S
C215 C214 1.398 . S
C215 C216 1.352 . S
C216 C215 1.352 . S
C216 C217 1.384 . S
C216 H238 0.930 . S
C217 C212 1.407 . S
C217 C216 1.384 . S
C217 H239 0.929 1_554 S
C218 O228 1.241 . S
C218 O229 1.273 . S
C219 O230 1.251 1_554 S
C219 O231 1.268 . S
O220 Nd200 2.500 . S
O220 C202 1.258 . S
O221 Nd200 2.492 . S
O221 C202 1.239 . S
O222 Nd200 2.487 1_554 S
O222 C209 1.241 . S
O223 Nd200 2.682 1_554 S
O223 Nd201 2.414 1_554 S
O223 C209 1.273 . S
O224 Nd200 2.410 . S
O224 C210 1.251 . S
O225 Nd201 2.424 . S
O225 C210 1.268 . S
O226 Nd201 2.500 1_554 S
O226 C211 1.258 . S
O227 Nd201 2.492 . S
O227 C211 1.239 1_556 S
O228 Nd201 2.487 . S
O228 C218 1.241 . S
O229 Nd200 2.414 . S
O229 Nd201 2.682 . S
O229 C218 1.273 . S
O230 Nd201 2.410 . S
O230 C219 1.251 1_556 S
O231 Nd200 2.424 1_554 S
O231 C219 1.268 . S
H232 C204 0.930 . S
H233 C205 0.929 . S
H234 C207 0.930 . S
H235 C208 0.929 1_554 S
H236 C213 0.930 . S
H237 C214 0.929 . S
H238 C216 0.930 . S
H239 C217 0.929 1_556 S
H240 C246 0.930 . S
H241 C249 0.930 . S
H242 C250 0.930 . S
H243 C251 0.930 . S
H244 C254 0.930 . S
H245 C255 0.930 . S
C246 H240 0.930 . S
C246 C247 1.355 . S
C246 C248 1.415 . S
C247 C246 1.355 . S
C247 C249 1.419 . S
C248 C246 1.415 . S
C248 C253 1.425 . S
C248 C255 1.409 . S
C249 H241 0.930 . S
C249 C247 1.419 . S
C249 C250 1.362 . S
C250 H242 0.930 . S
C250 C249 1.362 . S
C250 C253 1.409 . S
C251 H243 0.930 . S
C251 C252 1.355 . S
C251 C253 1.415 . S
C252 C251 1.355 . S
C252 C254 1.419 . S
C253 C248 1.425 . S
C253 C250 1.409 . S
C253 C251 1.415 . S
C254 H244 0.930 . S
C254 C252 1.419 . S
C254 C255 1.362 . S
C255 H245 0.930 . S
C255 C248 1.409 . S
C255 C254 1.362 . S
H256 C262 0.930 . S
H257 C265 0.930 . S
H258 C266 0.930 . S
H259 C267 0.930 . S
H260 C270 0.930 . S
H261 C271 0.930 . S
C262 H256 0.930 . S
C262 C263 1.355 . S
C262 C264 1.415 . S
C263 C262 1.355 . S
C263 C265 1.419 . S
C264 C262 1.415 . S
C264 C269 1.427 . S
C264 C271 1.409 . S
C265 H257 0.930 . S
C265 C263 1.419 . S
C265 C266 1.362 1_455 S
C266 H258 0.930 . S
C266 C265 1.362 1_655 S
C266 C269 1.409 1_655 S
C267 H259 0.930 . S
C267 C268 1.355 . S
C267 C269 1.413 1_655 S
C268 C267 1.355 . S
C268 C270 1.419 1_655 S
C269 C264 1.427 . S
C269 C266 1.409 1_455 S
C269 C267 1.413 1_455 S
C270 H260 0.930 . S
C270 C268 1.419 1_455 S
C270 C271 1.362 . S
C271 H261 0.930 . S
C271 C264 1.409 . S
C271 C270 1.362 . S
H272 C278 0.930 . S
H273 C281 0.930 . S
H274 C282 0.930 . S
H275 C283 0.930 . S
H276 C286 0.930 . S
H277 C287 0.930 . S
C278 H272 0.930 . S
C278 C279 1.355 . S
C278 C280 1.415 . S
C279 C278 1.355 . S
C279 C281 1.419 . S
C280 C278 1.415 . S
C280 C285 1.425 . S
C280 C287 1.409 . S
C281 H273 0.930 . S
C281 C279 1.419 . S
C281 C282 1.362 . S
C282 H274 0.930 . S
C282 C281 1.362 . S
C282 C285 1.409 . S
C283 H275 0.930 . S
C283 C284 1.355 . S
C283 C285 1.415 . S
C284 C283 1.355 . S
C284 C286 1.419 . S
C285 C280 1.425 . S
C285 C282 1.409 . S
C285 C283 1.415 . S
C286 H276 0.930 . S
C286 C284 1.419 . S
C286 C287 1.362 . S
C287 H277 0.930 . S
C287 C280 1.409 . S
C287 C286 1.362 . S
H288 C294 0.930 . S
H289 C297 0.930 . S
H290 C298 0.930 . S
H291 C299 0.930 . S
H292 C302 0.930 . S
H293 C303 0.930 . S
C294 H288 0.930 . S
C294 C295 1.355 . S
C294 C296 1.415 . S
C295 C294 1.355 . S
C295 C297 1.419 . S
C296 C294 1.415 . S
C296 C301 1.425 . S
C296 C303 1.409 . S
C297 H289 0.930 . S
C297 C295 1.419 . S
C297 C298 1.362 . S
C298 H290 0.930 . S
C298 C297 1.362 . S
C298 C301 1.409 . S
C299 H291 0.930 . S
C299 C300 1.355 . S
C299 C301 1.415 . S
C300 C299 1.355 . S
C300 C302 1.419 . S
C301 C296 1.425 . S
C301 C298 1.409 . S
C301 C299 1.415 . S
C302 H292 0.930 . S
C302 C300 1.419 . S
C302 C303 1.362 . S
C303 H293 0.930 . S
C303 C296 1.409 . S
C303 C302 1.362 . S
H304 C310 0.930 . S
H305 C313 0.930 . S
H306 C314 0.930 . S
H307 C315 0.930 . S
H308 C318 0.930 . S
H309 C319 0.930 . S
C310 H304 0.930 . S
C310 C311 1.355 . S
C310 C312 1.415 . S
C311 C310 1.355 . S
C311 C313 1.419 . S
C312 C310 1.415 . S
C312 C317 1.425 . S
C312 C319 1.409 . S
C313 H305 0.930 . S
C313 C311 1.419 . S
C313 C314 1.362 . S
C314 H306 0.930 . S
C314 C313 1.362 . S
C314 C317 1.409 . S
C315 H307 0.930 . S
C315 C316 1.355 . S
C315 C317 1.415 1_655 S
C316 C315 1.355 . S
C316 C318 1.419 . S
C317 C312 1.425 . S
C317 C314 1.409 . S
C317 C315 1.415 1_455 S
C318 H308 0.930 . S
C318 C316 1.419 . S
C318 C319 1.362 1_655 S
C319 H309 0.930 . S
C319 C312 1.409 . S
C319 C318 1.362 1_455 S
H320 C326 0.930 . S
H321 C329 0.929 . S
H322 C330 0.930 . S
H323 C331 0.930 . S
H324 C334 0.930 . S
H325 C335 0.930 . S
C326 H320 0.930 . S
C326 C327 1.355 1_545 S
C326 C328 1.415 . S
C327 C326 1.355 1_565 S
C327 C329 1.418 . S
C328 C326 1.415 . S
C328 C333 1.425 . S
C328 C335 1.409 . S
C329 H321 0.929 . S
C329 C327 1.418 . S
C329 C330 1.364 1_565 S
C330 H322 0.930 . S
C330 C329 1.364 1_545 S
C330 C333 1.409 . S
C331 H323 0.930 . S
C331 C332 1.355 . S
C331 C333 1.415 . S
C332 C331 1.355 . S
C332 C334 1.419 . S
C333 C328 1.425 . S
C333 C330 1.409 . S
C333 C331 1.415 . S
C334 H324 0.930 . S
C334 C332 1.419 . S
C334 C335 1.362 . S
C335 H325 0.930 . S
C335 C328 1.409 . S
C335 C334 1.362 . S
H336 C342 0.930 . S
H337 C345 0.930 . S
H338 C346 0.930 . S
H339 C347 0.930 . S
H340 C350 0.930 1_554 S
H341 C351 0.930 1_554 S
C342 H336 0.930 . S
C342 C343 1.355 . S
C342 C344 1.415 . S
C343 C342 1.355 . S
C343 C345 1.419 . S
C344 C342 1.415 . S
C344 C349 1.425 . S
C344 C351 1.409 . S
C345 H337 0.930 . S
C345 C343 1.419 . S
C345 C346 1.362 . S
C346 H338 0.930 . S
C346 C345 1.362 . S
C346 C349 1.409 . S
C347 H339 0.930 . S
C347 C348 1.355 . S
C347 C349 1.415 . S
C348 C347 1.355 . S
C348 C350 1.419 . S
C349 C344 1.425 . S
C349 C346 1.409 . S
C349 C347 1.415 . S
C350 H340 0.930 1_556 S
C350 C348 1.419 . S
C350 C351 1.362 . S
C351 H341 0.930 1_556 S
C351 C344 1.409 . S
C351 C350 1.362 . S
H352 C358 0.930 . S
H353 C361 0.930 . S
H354 C362 0.930 . S
H355 C363 0.930 . S
H356 C366 0.930 . S
H357 C367 0.930 . S
C358 H352 0.930 . S
C358 C359 1.355 . S
C358 C360 1.415 . S
C359 C358 1.355 . S
C359 C361 1.419 1_554 S
C360 C358 1.415 . S
C360 C365 1.425 . S
C360 C367 1.409 . S
C361 H353 0.930 . S
C361 C359 1.419 1_556 S
C361 C362 1.362 . S
C362 H354 0.930 . S
C362 C361 1.362 . S
C362 C365 1.409 1_556 S
C363 H355 0.930 . S
C363 C364 1.355 . S
C363 C365 1.415 . S
C364 C363 1.355 . S
C364 C366 1.419 . S
C365 C360 1.425 . S
C365 C362 1.409 1_554 S
C365 C363 1.415 . S
C366 H356 0.930 . S
C366 C364 1.419 . S
C366 C367 1.362 . S
C367 H357 0.930 . S
C367 C360 1.409 . S
C367 C366 1.362 . S
H368 C374 0.930 . S
H369 C377 0.930 . S
H370 C378 0.930 . S
H371 C379 0.930 . S
H372 C382 0.930 . S
H373 C383 0.930 . S
C374 H368 0.930 . S
C374 C375 1.355 . S
C374 C376 1.415 . S
C375 C374 1.355 . S
C375 C377 1.419 . S
C376 C374 1.415 . S
C376 C381 1.425 . S
C376 C383 1.409 . S
C377 H369 0.930 . S
C377 C375 1.419 . S
C377 C378 1.362 . S
C378 H370 0.930 . S
C378 C377 1.362 . S
C378 C381 1.409 . S
C379 H371 0.930 . S
C379 C380 1.355 . S
C379 C381 1.415 . S
C380 C379 1.355 . S
C380 C382 1.419 . S
C381 C376 1.425 . S
C381 C378 1.409 . S
C381 C379 1.415 . S
C382 H372 0.930 . S
C382 C380 1.419 . S
C382 C383 1.362 . S
C383 H373 0.930 . S
C383 C376 1.409 . S
C383 C382 1.362 . S
H384 C390 0.930 1_556 S
H385 C393 0.930 . S
H386 C394 0.930 . S
H387 C395 0.930 . S
H388 C398 0.930 . S
H389 C399 0.930 . S
C390 H384 0.930 1_554 S
C390 C391 1.355 . S
C390 C392 1.415 . S
C391 C390 1.355 . S
C391 C393 1.419 . S
C392 C390 1.415 . S
C392 C397 1.425 . S
C392 C399 1.409 1_554 S
C393 H385 0.930 . S
C393 C391 1.419 . S
C393 C394 1.362 . S
C394 H386 0.930 . S
C394 C393 1.362 . S
C394 C397 1.409 . S
C395 H387 0.930 . S
C395 C396 1.355 . S
C395 C397 1.415 . S
C396 C395 1.355 . S
C396 C398 1.419 1_554 S
C397 C392 1.425 . S
C397 C394 1.409 . S
C397 C395 1.415 . S
C398 H388 0.930 . S
C398 C396 1.419 1_556 S
C398 C399 1.362 . S
C399 H389 0.930 . S
C399 C392 1.409 1_556 S
C399 C398 1.362 . S
H400 C406 0.930 . S
H401 C409 0.930 . S
H402 C410 0.930 . S
H403 C411 0.930 1_554 S
H404 C414 0.930 . S
H405 C415 0.930 . S
C406 H400 0.930 . S
C406 C407 1.355 . S
C406 C408 1.415 . S
C407 C406 1.355 . S
C407 C409 1.419 1_556 S
C408 C406 1.415 . S
C408 C413 1.425 . S
C408 C415 1.409 . S
C409 H401 0.930 . S
C409 C407 1.419 1_554 S
C409 C410 1.362 . S
C410 H402 0.930 . S
C410 C409 1.362 . S
C410 C413 1.409 1_554 S
C411 H403 0.930 1_556 S
C411 C412 1.355 . S
C411 C413 1.415 . S
C412 C411 1.355 . S
C412 C414 1.419 . S
C413 C408 1.425 . S
C413 C410 1.409 1_556 S
C413 C411 1.415 . S
C414 H404 0.930 . S
C414 C412 1.419 . S
C414 C415 1.362 . S
C415 H405 0.930 . S
C415 C408 1.409 . S
C415 C414 1.362 . S
H416 C422 0.930 . S
H417 C425 0.930 . S
H418 C426 0.930 . S
H419 C427 0.930 . S
H420 C430 0.930 1_556 S
H421 C431 0.930 . S
C422 H416 0.930 . S
C422 C423 1.355 1_556 S
C422 C424 1.415 1_556 S
C423 C422 1.355 1_554 S
C423 C425 1.419 . S
C424 C422 1.415 1_554 S
C424 C429 1.425 . S
C424 C431 1.409 1_554 S
C425 H417 0.930 . S
C425 C423 1.419 . S
C425 C426 1.362 . S
C426 H418 0.930 . S
C426 C425 1.362 . S
C426 C429 1.409 . S
C427 H419 0.930 . S
C427 C428 1.355 . S
C427 C429 1.415 . S
C428 C427 1.355 . S
C428 C430 1.419 . S
C429 C424 1.425 . S
C429 C426 1.409 . S
C429 C427 1.415 . S
C430 H420 0.930 1_554 S
C430 C428 1.419 . S
C430 C431 1.362 1_554 S
C431 H421 0.930 . S
C431 C424 1.409 1_556 S
C431 C430 1.362 1_556 S
H432 C438 0.930 . S
H433 C441 0.930 . S
H434 C442 0.930 . S
H435 C443 0.930 . S
H436 C446 0.930 . S
H437 C447 0.930 . S
C438 H432 0.930 . S
C438 C439 1.355 . S
C438 C440 1.415 . S
C439 C438 1.355 . S
C439 C441 1.419 . S
C440 C438 1.415 . S
C440 C445 1.425 . S
C440 C447 1.409 . S
C441 H433 0.930 . S
C441 C439 1.419 . S
C441 C442 1.362 . S
C442 H434 0.930 . S
C442 C441 1.362 . S
C442 C445 1.409 . S
C443 H435 0.930 . S
C443 C444 1.355 . S
C443 C445 1.415 . S
C444 C443 1.355 . S
C444 C446 1.419 . S
C445 C440 1.425 . S
C445 C442 1.409 . S
C445 C443 1.415 . S
C446 H436 0.930 . S
C446 C444 1.419 . S
C446 C447 1.362 . S
C447 H437 0.930 . S
C447 C440 1.409 . S
C447 C446 1.362 . S
H448 C454 0.930 . S
H449 C457 0.930 . S
H450 C458 0.930 . S
H451 C459 0.930 . S
H452 C462 0.930 . S
H453 C463 0.930 . S
C454 H448 0.930 . S
C454 C455 1.355 . S
C454 C456 1.415 . S
C455 C454 1.355 . S
C455 C457 1.419 . S
C456 C454 1.415 . S
C456 C461 1.425 . S
C456 C463 1.409 . S
C457 H449 0.930 . S
C457 C455 1.419 . S
C457 C458 1.362 . S
C458 H450 0.930 . S
C458 C457 1.362 . S
C458 C461 1.409 . S
C459 H451 0.930 . S
C459 C460 1.355 . S
C459 C461 1.415 . S
C460 C459 1.355 . S
C460 C462 1.419 . S
C461 C456 1.425 . S
C461 C458 1.409 . S
C461 C459 1.415 . S
C462 H452 0.930 . S
C462 C460 1.419 . S
C462 C463 1.362 . S
C463 H453 0.930 . S
C463 C456 1.409 . S
C463 C462 1.362 . S
H464 C470 0.930 . S
H465 C473 0.930 . S
H466 C474 0.930 . S
H467 C475 0.930 . S
H468 C478 0.930 . S
H469 C479 0.930 . S
C470 H464 0.930 . S
C470 C471 1.355 . S
C470 C472 1.415 . S
C471 C470 1.355 . S
C471 C473 1.419 . S
C472 C470 1.415 . S
C472 C477 1.425 . S
C472 C479 1.409 . S
C473 H465 0.930 . S
C473 C471 1.419 . S
C473 C474 1.362 . S
C474 H466 0.930 . S
C474 C473 1.362 . S
C474 C477 1.409 . S
C475 H467 0.930 . S
C475 C476 1.355 . S
C475 C477 1.415 . S
C476 C475 1.355 . S
C476 C478 1.419 . S
C477 C472 1.425 . S
C477 C474 1.409 . S
C477 C475 1.415 . S
C478 H468 0.930 . S
C478 C476 1.419 . S
C478 C479 1.362 . S
C479 H469 0.930 . S
C479 C472 1.409 . S
C479 C478 1.362 . S
H480 C486 0.930 . S
H481 C489 0.930 . S
H482 C490 0.930 . S
H483 C491 0.930 . S
H484 C494 0.930 . S
H485 C495 0.930 . S
C486 H480 0.930 . S
C486 C487 1.355 . S
C486 C488 1.415 . S
C487 C486 1.355 . S
C487 C489 1.419 . S
C488 C486 1.415 . S
C488 C493 1.425 . S
C488 C495 1.409 . S
C489 H481 0.930 . S
C489 C487 1.419 . S
C489 C490 1.362 . S
C490 H482 0.930 . S
C490 C489 1.362 . S
C490 C493 1.409 . S
C491 H483 0.930 . S
C491 C492 1.355 . S
C491 C493 1.415 . S
C492 C491 1.355 . S
C492 C494 1.419 . S
C493 C488 1.425 . S
C493 C490 1.409 . S
C493 C491 1.415 . S
C494 H484 0.930 . S
C494 C492 1.419 . S
C494 C495 1.362 . S
C495 H485 0.930 . S
C495 C488 1.409 . S
C495 C494 1.362 . S
H496 C502 0.930 . S
H497 C505 0.930 . S
H498 C506 0.930 . S
H499 C507 0.930 . S
H500 C510 0.930 . S
H501 C511 0.930 . S
C502 H496 0.930 . S
C502 C503 1.355 . S
C502 C504 1.415 . S
C503 C502 1.355 . S
C503 C505 1.419 . S
C504 C502 1.415 . S
C504 C509 1.425 . S
C504 C511 1.409 . S
C505 H497 0.930 . S
C505 C503 1.419 . S
C505 C506 1.362 . S
C506 H498 0.930 . S
C506 C505 1.362 . S
C506 C509 1.409 . S
C507 H499 0.930 . S
C507 C508 1.355 . S
C507 C509 1.415 . S
C508 C507 1.355 . S
C508 C510 1.419 . S
C509 C504 1.425 . S
C509 C506 1.409 . S
C509 C507 1.415 . S
C510 H500 0.930 . S
C510 C508 1.419 . S
C510 C511 1.362 . S
C511 H501 0.930 . S
C511 C504 1.409 . S
C511 C510 1.362 . S
H512 C518 0.930 . S
H513 C521 0.930 . S
H514 C522 0.930 . S
H515 C523 0.930 . S
H516 C526 0.930 . S
H517 C527 0.930 . S
C518 H512 0.930 . S
C518 C519 1.355 . S
C518 C520 1.415 . S
C519 C518 1.355 . S
C519 C521 1.419 . S
C520 C518 1.415 . S
C520 C525 1.425 . S
C520 C527 1.409 . S
C521 H513 0.930 . S
C521 C519 1.419 . S
C521 C522 1.362 . S
C522 H514 0.930 . S
C522 C521 1.362 . S
C522 C525 1.409 . S
C523 H515 0.930 . S
C523 C524 1.355 . S
C523 C525 1.415 . S
C524 C523 1.355 . S
C524 C526 1.419 . S
C525 C520 1.425 . S
C525 C522 1.409 . S
C525 C523 1.415 . S
C526 H516 0.930 . S
C526 C524 1.419 . S
C526 C527 1.362 . S
C527 H517 0.930 . S
C527 C520 1.409 . S
C527 C526 1.362 . S
C247 C210 2.976 . S
C252 C10 2.884 . S
C263 C6 2.140 . S
C268 C46 2.371 . S
C279 C50 3.711 . S
C284 C86 3.379 . S
C295 C126 2.897 . S
C300 C90 3.136 . S
C311 C170 4.544 . S
C316 C130 4.409 . S
C327 C166 2.644 . S
C332 C206 2.498 . S
C343 C175 2.237 . S
C348 C19 2.284 . S
C359 C219 1.282 . S
C364 C55 1.297 . S
C375 C95 0.985 . S
C380 C15 0.991 . S
C391 C135 2.148 . S
C396 C59 2.044 . S
C407 C179 3.860 1_556 S
C412 C99 3.977 . S
C423 C139 3.155 1_554 S
C428 C215 3.072 . S
C439 C9 0.632 . S
C444 C18 0.632 . S
C455 C58 0.601 . S
C460 C49 0.601 . S
C471 C98 0.677 . S
C476 C89 0.677 . S
C487 C138 0.661 . S
C492 C129 0.661 . S
C503 C178 0.475 . S
C508 C169 0.475 . S
C519 C218 0.681 . S
C524 C209 0.681 . S
