# Generated by pormake.
# Topology lvt, (4)-cn, num edge types: 1
# Building blocks:
#     Node 0, Type 0, BuildingBlock: ESEHIV_clean_sbu_0, # of connection points: 4
#     Node 1, Type 0, BuildingBlock: ESEHIV_clean_sbu_0, # of connection points: 4
#     Node 2, Type 0, BuildingBlock: ESEHIV_clean_sbu_0, # of connection points: 4
#     Node 3, Type 0, BuildingBlock: ESEHIV_clean_sbu_0, # of connection points: 4
#     Node 4, Type 0, BuildingBlock: ESEHIV_clean_sbu_0, # of connection points: 4
#     Node 5, Type 0, BuildingBlock: ESEHIV_clean_sbu_0, # of connection points: 4
#     Node 6, Type 0, BuildingBlock: ESEHIV_clean_sbu_0, # of connection points: 4
#     Node 7, Type 0, BuildingBlock: ESEHIV_clean_sbu_0, # of connection points: 4
#     Edge 8, Type (0, 0), BuildingBlock: FUNLAD_clean_linker_1, # of connection points: 2
#     Edge 9, Type (0, 0), BuildingBlock: FUNLAD_clean_linker_1, # of connection points: 2
#     Edge 10, Type (0, 0), BuildingBlock: FUNLAD_clean_linker_1, # of connection points: 2
#     Edge 11, Type (0, 0), BuildingBlock: FUNLAD_clean_linker_1, # of connection points: 2
#     Edge 12, Type (0, 0), BuildingBlock: FUNLAD_clean_linker_1, # of connection points: 2
#     Edge 13, Type (0, 0), BuildingBlock: FUNLAD_clean_linker_1, # of connection points: 2
#     Edge 14, Type (0, 0), BuildingBlock: FUNLAD_clean_linker_1, # of connection points: 2
#     Edge 15, Type (0, 0), BuildingBlock: FUNLAD_clean_linker_1, # of connection points: 2
#     Edge 16, Type (0, 0), BuildingBlock: FUNLAD_clean_linker_1, # of connection points: 2
#     Edge 17, Type (0, 0), BuildingBlock: FUNLAD_clean_linker_1, # of connection points: 2
#     Edge 18, Type (0, 0), BuildingBlock: FUNLAD_clean_linker_1, # of connection points: 2
#     Edge 19, Type (0, 0), BuildingBlock: FUNLAD_clean_linker_1, # of connection points: 2
#     Edge 20, Type (0, 0), BuildingBlock: FUNLAD_clean_linker_1, # of connection points: 2
#     Edge 21, Type (0, 0), BuildingBlock: FUNLAD_clean_linker_1, # of connection points: 2
#     Edge 22, Type (0, 0), BuildingBlock: FUNLAD_clean_linker_1, # of connection points: 2
#     Edge 23, Type (0, 0), BuildingBlock: FUNLAD_clean_linker_1, # of connection points: 2
# Relax obj value: 0.002
# Max RMSD: 0.099
# Mean RMSD: 0.095
data_MOF--net-lvt--node1-ESEHIV_clean_sbu_0--edge1-FUNLAD_clean_linker_1
_symmetry_space_group_name_H-M    P1
_symmetry_Int_Tables_number       1
_symmetry_cell_setting            triclinic
loop_
_symmetry_equiv_pos_as_xyz
'x, y, z'
_cell_length_a     40.000688
_cell_length_b     40.058523
_cell_length_c     33.293958
_cell_angle_alpha  95.80648
_cell_angle_beta   89.97857
_cell_angle_gamma 95.320251
loop_
_atom_site_label
_atom_site_type_symbol
_atom_site_fract_x
_atom_site_fract_y
_atom_site_fract_z
_atom_type_partial_charge
Cu0 Cu 0.06075 1.01883 0.52035 0.0
N1 N 0.08711 0.98472 0.53258 0.0
N2 N 0.11098 0.95103 0.5716 0.0
C3 C 0.09197 0.977 0.57049 0.0
C4 C 0.11873 0.94208 0.53275 0.0
C5 C 0.10395 0.96296 0.50872 0.0
O6 O 1.02526 1.01915 0.56008 0.0
C7 C 0.10798 0.06323 0.49005 0.0
O8 O 0.11202 0.03548 0.46665 0.0
H9 H 0.08161 0.9902 0.59693 0.0
H10 H 0.10568 0.96238 0.47629 0.0
N11 N 0.03956 1.01237 0.46972 0.0
N12 N 1.01052 0.02909 0.41933 0.0
C13 C 1.01845 0.03416 0.45884 0.0
C14 C 0.04491 0.99229 0.43581 0.0
C15 C 1.02692 1.0026 0.4045 0.0
C16 C 1.00503 0.99253 0.55661 0.0
O17 O 1.00946 0.96905 0.52704 0.0
H18 H 1.01063 0.05478 0.47918 0.0
H19 H 0.06185 0.97272 0.43342 0.0
O20 O 0.08784 0.06169 0.51959 0.0
H21 H 0.13434 0.92235 0.52237 0.0
H22 H 1.02675 0.99205 0.37326 0.0
Cu23 Cu 0.30056 0.77153 0.80598 0.0
N24 N 0.26023 0.79195 0.80724 0.0
N25 N 0.21933 0.81681 0.77946 0.0
C26 C 0.24346 0.79564 0.77313 0.0
C27 C 0.2205 0.82672 0.81949 0.0
C28 C 0.24589 0.81132 0.83659 0.0
O29 O 0.29844 0.74373 0.75441 0.0
C30 C 0.34215 0.82072 0.84925 0.0
O31 O 0.32186 0.81071 0.87759 0.0
H32 H 0.25041 0.78487 0.74351 0.0
H33 H 0.25444 0.81551 0.86765 0.0
N34 N 0.30616 0.74207 0.84516 0.0
N35 N 0.32973 0.70137 0.87284 0.0
C36 C 0.33037 0.72085 0.84221 0.0
C37 C 0.28934 0.73588 0.87907 0.0
C38 C 0.30397 0.71066 0.89638 0.0
C39 C 0.27692 0.71814 0.75421 0.0
O40 O 0.26114 0.71262 0.78788 0.0
H41 H 0.34814 0.71959 0.81767 0.0
H42 H 0.26796 0.74858 0.8902 0.0
O43 O 0.33763 0.80689 0.81321 0.0
H44 H 0.20518 0.84472 0.83504 0.0
H45 H 0.29601 0.69993 0.92376 0.0
Cu46 Cu 0.54382 0.06054 0.05375 0.0
N47 N 0.57698 0.05844 1.01419 0.0
N48 N 0.61704 0.03522 0.97732 0.0
C49 C 0.59096 0.02988 1.00211 0.0
C50 C 0.61959 0.06855 0.97319 0.0
C51 C 0.5947 0.08287 0.99608 0.0
O52 O 0.51252 1.02032 0.04231 0.0
C53 C 0.58757 0.09016 0.1121 0.0
O54 O 0.58928 0.11233 0.08547 0.0
H55 H 0.58279 1.00567 1.01239 0.0
H56 H 0.59045 0.10927 1.00012 0.0
N57 N 0.51959 0.09858 0.05499 0.0
N58 N 0.49167 0.14116 0.08181 0.0
C59 C 0.51337 0.1186 0.08869 0.0
C60 C 0.50113 0.10904 0.02565 0.0
C61 C 0.4838 0.13538 0.04217 0.0
C62 C 0.50278 1.01305 1.00574 0.0
O63 O 0.51371 0.03291 0.97852 0.0
H64 H 0.52336 0.11574 0.11823 0.0
H65 H 0.49957 0.09771 0.99475 0.0
O66 O 0.56791 0.06331 0.10499 0.0
H67 H 0.63804 0.08162 0.95516 0.0
H68 H 0.46663 0.14898 0.02639 0.0
Cu69 Cu 0.27616 0.30343 0.27049 0.0
N70 N 0.23728 0.27392 0.27198 0.0
N71 N 0.19945 0.23664 0.29626 0.0
C72 C 0.22855 0.2563 0.30334 0.0
C73 C 0.18959 0.24199 0.25892 0.0
C74 C 0.21284 0.26526 0.24408 0.0
O75 O 0.27005 0.34175 0.30967 0.0
C76 C 0.34355 0.28704 0.27006 0.0
O77 O 0.35146 0.31905 0.26591 0.0
H78 H 0.24382 0.25736 0.33034 0.0
H79 H 0.21206 0.27496 0.21499 0.0
N80 N 0.28363 0.31889 0.21983 0.0
N81 N 0.31298 0.34681 0.17452 0.0
C82 C 0.30372 0.34674 0.21353 0.0
C83 C 0.27956 0.30098 0.18347 0.0
C84 C 0.29747 0.31827 0.15544 0.0
C85 C 0.24702 0.35949 0.30007 0.0
O86 O 0.2314 0.35139 0.26523 0.0
H87 H 0.31384 0.36472 0.2379 0.0
H88 H 0.26716 0.27574 0.17838 0.0
O89 O 0.31359 0.27717 0.27902 0.0
H90 H 0.16725 0.22977 0.24342 0.0
H91 H 0.3012 0.30919 0.12416 0.0
Cu92 Cu 0.83507 0.26097 0.26116 0.0
N93 N 0.83086 0.29064 0.22161 0.0
N94 N 0.81034 0.32168 0.17673 0.0
C95 C 0.80301 0.2983 0.20285 0.0
C96 C 0.84392 0.32866 0.17891 0.0
C97 C 0.85647 0.30967 0.20665 0.0
O98 O 0.79331 0.23304 0.26639 0.0
C99 C 0.84222 0.31521 0.32356 0.0
O100 O 0.81914 0.32786 0.30328 0.0
H101 H 0.77805 0.28686 0.20803 0.0
H102 H 0.88249 0.30977 0.21554 0.0
N103 N 0.86724 0.23159 0.24506 0.0
N104 N 0.90244 0.19157 0.24713 0.0
C105 C 0.8813 0.21098 0.26835 0.0
C106 C 0.8798 0.22502 0.20791 0.0
C107 C 0.90153 0.20033 0.20914 0.0
C108 C 0.76488 0.24371 0.27459 0.0
O109 O 0.76257 0.27613 0.28291 0.0
H110 H 0.87542 0.20989 0.29993 0.0
H111 H 0.87315 0.23692 0.18166 0.0
O112 O 0.85121 0.28626 0.3115 0.0
H113 H 0.85831 0.34659 0.16192 0.0
H114 H 0.91529 0.18928 0.18394 0.0
Cu115 Cu 0.79146 0.80994 0.7919 0.0
N116 N 0.75673 0.77527 0.7921 0.0
N117 N 0.72103 0.73526 0.81489 0.0
C118 C 0.74488 0.76095 0.82487 0.0
C119 C 0.7178 0.73346 0.77442 0.0
C120 C 0.73998 0.75799 0.76039 0.0
O121 O 0.78628 0.84264 0.83831 0.0
C122 C 0.84174 0.77612 0.75372 0.0
O123 O 0.82142 0.77772 0.72312 0.0
H124 H 0.75399 0.76906 0.85519 0.0
H125 H 0.74415 0.76236 0.72919 0.0
N126 N 0.78955 0.83458 0.74734 0.0
N127 N 0.80827 0.86933 0.70222 0.0
C128 C 0.81547 0.8552 0.73589 0.0
C129 C 0.76485 0.83589 0.72024 0.0
C130 C 0.77654 0.85714 0.69206 0.0
C131 C 0.75786 0.85469 0.83935 0.0
O132 O 0.73514 0.84246 0.81192 0.0
H133 H 0.83956 0.85854 0.75125 0.0
H134 H 0.74032 0.82212 0.72059 0.0
O135 O 0.83382 0.78898 0.78868 0.0
H136 H 0.7011 0.71512 0.75621 0.0
H137 H 0.763 0.86281 0.6658 0.0
Cu138 Cu 0.5683 0.51368 0.02583 0.0
N139 N 0.53689 0.51576 0.98485 0.0
N140 N 0.49507 0.53773 0.95534 0.0
C141 C 0.51637 0.54059 0.98696 0.0
C142 C 0.50235 0.50977 0.93202 0.0
C143 C 0.52828 0.49615 0.95048 0.0
O144 O 0.59714 0.55576 0.02678 0.0
C145 C 0.52126 0.48097 0.06951 0.0
O146 O 0.52292 0.46034 0.0364 0.0
H147 H 0.51702 0.56052 1.01157 0.0
H148 H 0.53973 0.47354 0.93977 0.0
N149 N 0.59497 0.4774 0.01911 0.0
N150 N 0.62918 0.44021 0.03718 0.0
C151 C 0.60942 0.46457 0.04997 0.0
C152 C 0.60589 0.46043 0.9854 0.0
C153 C 0.62703 0.43739 0.99645 0.0
C154 C 0.61091 0.56061 0.99305 0.0
O155 O 0.60612 0.53682 0.96286 0.0
H156 H 0.6061 0.47354 0.08137 0.0
H157 H 0.59956 0.46493 0.95497 0.0
O158 O 0.54103 0.50795 0.07345 0.0
H159 H 0.48987 0.49974 0.90397 0.0
H160 H 0.63999 0.42034 0.97602 0.0
Cu161 Cu 0.03966 0.53848 0.53818 0.0
N162 N 1.0054 0.56594 0.554 0.0
N163 N 0.97869 0.6069 0.58693 0.0
C164 C 1.00773 0.59863 0.56954 0.0
C165 C 0.95732 0.5788 0.58194 0.0
C166 C 0.97381 0.55366 0.56181 0.0
O167 O 0.07622 0.54844 0.57736 0.0
C168 C 0.99923 0.48484 0.50292 0.0
O169 O 0.9921 0.5093 0.48179 0.0
H170 H 0.03071 0.61525 0.57073 0.0
H171 H 0.96402 0.52757 0.55583 0.0
N172 N 0.05854 0.54463 0.48791 0.0
N173 N 0.09134 0.53189 0.43534 0.0
C174 C 0.08386 0.52704 0.4739 0.0
C175 C 0.04949 0.56141 0.45723 0.0
C176 C 0.06968 0.55336 0.42452 0.0
C177 C 0.09604 0.57457 0.57281 0.0
O178 O 0.09029 0.59279 0.54331 0.0
H179 H 0.09502 0.50937 0.49113 0.0
H180 H 0.02873 0.57694 0.45796 0.0
O181 O 1.02016 0.49167 0.53215 0.0
H182 H 0.93196 0.57637 0.59338 0.0
H183 H 0.06775 0.56155 0.39467 0.0
H184 H 0.11913 0.11895 0.49779 0.0
C185 C 0.12264 0.09612 0.4783 0.0
H186 H 0.1416 0.07532 0.423 0.0
H187 H 0.12688 0.22413 0.36438 0.0
H188 H 0.06692 0.21201 0.37326 0.0
H189 H 0.04456 0.16195 0.40558 0.0
H190 H 0.08196 0.12403 0.42983 0.0
C191 C 0.13779 0.09815 0.44235 0.0
C192 C 0.15078 0.13052 0.42702 0.0
C193 C 0.12841 0.15192 0.41198 0.0
C194 C 0.14123 0.18007 0.39178 0.0
C195 C 0.11844 0.20176 0.37856 0.0
C196 C 0.08398 0.19525 0.38376 0.0
C197 C 0.0714 0.16712 0.4021 0.0
C198 C 0.0932 0.14555 0.41594 0.0
H199 H 0.16491 0.19311 0.30719 0.0
C200 C 0.18314 0.21265 0.32119 0.0
H201 H 0.20804 0.23281 0.37539 0.0
H202 H 0.20042 0.09642 0.45532 0.0
H203 H 0.26039 0.10826 0.44615 0.0
H204 H 0.28255 0.15558 0.40887 0.0
H205 H 0.24503 0.19141 0.38069 0.0
C206 C 0.19002 0.21341 0.36091 0.0
C207 C 0.17628 0.186 0.38526 0.0
C208 C 0.19865 0.16534 0.4017 0.0
C209 C 0.18588 0.13769 0.42266 0.0
C210 C 0.20878 0.11743 0.43864 0.0
C211 C 0.24326 0.12401 0.43371 0.0
C212 C 0.25574 0.15068 0.41278 0.0
C213 C 0.23385 0.17113 0.39684 0.0
H214 H 0.11674 0.95169 0.63686 0.0
C215 C 0.12138 0.9378 0.60792 0.0
H216 H 0.13997 0.89378 0.57934 0.0
H217 H 0.22481 0.90965 0.752 0.0
H218 H 0.25339 0.9597 0.72789 0.0
H219 H 0.23458 0.98108 0.66559 0.0
H220 H 0.18698 0.95269 0.62716 0.0
C221 C 0.13655 0.90913 0.60753 0.0
C222 C 0.14775 0.89662 0.64572 0.0
C223 C 0.17581 0.91346 0.66785 0.0
C224 C 0.18698 0.90082 0.70354 0.0
C225 C 0.21517 0.9181 0.72479 0.0
C226 C 0.2319 0.94685 0.71124 0.0
C227 C 0.22128 0.95891 0.6762 0.0
C228 C 0.19372 0.94245 0.65454 0.0
H229 H 0.20133 0.81525 0.7175 0.0
C230 C 0.20031 0.82844 0.74763 0.0
H231 H 0.18452 0.8715 0.78158 0.0
H232 H 0.09269 0.85887 0.61148 0.0
H233 H 0.06387 0.80887 0.63588 0.0
H234 H 0.08336 0.78697 0.69756 0.0
H235 H 0.13163 0.81496 0.73538 0.0
C236 C 0.18424 0.85661 0.75247 0.0
C237 C 0.17061 0.87094 0.71671 0.0
C238 C 0.14227 0.85438 0.69493 0.0
C239 C 0.13093 0.86715 0.65939 0.0
C240 C 0.10247 0.85015 0.63847 0.0
C241 C 0.08565 0.82148 0.65219 0.0
C242 C 0.09662 0.80914 0.68691 0.0
C243 C 0.1245 0.82534 0.70822 0.0
H244 H 0.46775 0.9687 1.01695 0.0
C245 C 0.47922 0.98302 0.99368 0.0
H246 H 0.48382 0.98704 0.93099 0.0
H247 H 0.43133 0.83438 0.87997 0.0
H248 H 0.49126 0.83037 0.87446 0.0
H249 H 0.53166 0.87842 0.89891 0.0
H250 H 0.51229 0.9307 0.92952 0.0
C251 C 0.47159 0.97354 0.9545 0.0
C252 C 0.44708 0.94424 0.94114 0.0
C253 C 0.45871 0.91412 0.92243 0.0
C254 C 0.43536 0.8866 0.90762 0.0
C255 C 0.44782 0.85637 0.89074 0.0
C256 C 0.48221 0.85366 0.88758 0.0
C257 C 0.50496 0.8807 0.90139 0.0
C258 C 0.4935 0.91059 0.91876 0.0
H259 H 0.38417 0.8581 0.83557 0.0
C260 C 0.36933 0.84792 0.85962 0.0
H261 H 0.36008 0.85051 0.92226 0.0
H262 H 0.41632 0.99908 0.97316 0.0
H263 H 0.35641 1.00351 0.97793 0.0
H264 H 0.31591 0.95605 0.95198 0.0
H265 H 0.33507 0.90394 0.92093 0.0
C266 C 0.37544 0.86029 0.89839 0.0
C267 C 0.40035 0.88956 0.91076 0.0
C268 C 0.38877 0.91985 0.92915 0.0
C269 C 0.41212 0.94721 0.94426 0.0
C270 C 0.39975 0.97735 0.96167 0.0
C271 C 0.36539 0.98029 0.96449 0.0
C272 C 0.34259 0.95357 0.94988 0.0
C273 C 0.35397 0.92371 0.9323 0.0
H274 H 0.35509 0.23518 0.25029 0.0
C275 C 0.36521 0.26145 0.25242 0.0
H276 H 0.40296 0.29636 0.23329 0.0
H277 H 0.44961 0.14123 0.17409 0.0
H278 H 0.45018 0.13188 0.24474 0.0
H279 H 0.43362 0.1752 0.29705 0.0
H280 H 0.41527 0.22771 0.27871 0.0
C281 C 0.39358 0.26997 0.23262 0.0
C282 C 0.40823 0.2455 0.20216 0.0
C283 C 0.42116 0.216 0.21357 0.0
C284 C 0.4331 0.19208 0.18358 0.0
C285 C 0.44251 0.16132 0.19561 0.0
C286 C 0.44258 0.15542 0.23613 0.0
C287 C 0.43309 0.17973 0.26556 0.0
C288 C 0.42242 0.20968 0.25459 0.0
H289 H 0.4954 0.17442 0.13795 0.0
C290 C 0.47946 0.16536 0.11194 0.0
H291 H 0.43194 0.16541 0.0849 0.0
H292 H 0.38194 0.2974 0.16881 0.0
H293 H 0.38543 0.30915 0.09907 0.0
H294 H 0.41241 0.27135 0.0484 0.0
H295 H 0.43544 0.22124 0.06722 0.0
C296 C 0.4481 0.17479 0.11056 0.0
C297 C 0.4348 0.19906 0.1425 0.0
C298 C 0.42262 0.22902 0.13132 0.0
C299 C 0.40854 0.25172 0.1609 0.0
C300 C 0.39448 0.28017 0.14817 0.0
C301 C 0.396 0.28708 0.10804 0.0
C302 C 0.41109 0.26575 0.07953 0.0
C303 C 0.42415 0.23698 0.09079 0.0
H304 H 0.97732 1.00451 0.61329 0.0
C305 C 0.97867 0.98649 0.5868 0.0
H306 H 0.95972 0.9396 0.55678 0.0
H307 H 0.90559 0.86631 0.70179 0.0
H308 H 0.95836 0.8418 0.6908 0.0
H309 H 1.001 0.86573 0.64556 0.0
H310 H 0.99096 0.91433 0.61085 0.0
C311 C 0.95766 0.95808 0.58269 0.0
C312 C 0.93424 0.94788 0.61486 0.0
C313 C 0.94078 0.91995 0.63566 0.0
C314 C 0.91647 0.90653 0.66228 0.0
C315 C 0.92333 0.87795 0.68169 0.0
C316 C 0.95353 0.86352 0.67558 0.0
C317 C 0.9775 0.87696 0.65007 0.0
C318 C 0.97135 0.9048 0.63024 0.0
H319 H 0.82441 0.89162 0.64746 0.0
C320 C 0.8307 0.88984 0.67889 0.0
H321 H 0.86637 0.90416 0.72571 0.0
H322 H 0.91396 1.00187 0.58016 0.0
H323 H 0.86245 0.02837 0.5939 0.0
H324 H 0.82162 1.00697 0.64292 0.0
H325 H 0.83179 0.95859 0.67803 0.0
C326 C 0.85974 0.90558 0.69438 0.0
C327 C 0.88571 0.92126 0.66831 0.0
C328 C 0.87992 0.95031 0.64919 0.0
C329 C 0.90403 0.96335 0.62194 0.0
C330 C 0.89691 0.9914 0.60183 0.0
C331 C 0.8674 1.00681 0.60938 0.0
C332 C 0.84436 0.99472 0.63691 0.0
C333 C 0.85042 0.96682 0.65669 0.0
H334 H 0.97644 0.06814 0.41692 0.0
C335 C 0.99077 0.05049 0.39871 0.0
H336 H 1.007 0.03581 0.33965 0.0
H337 H 0.872 0.11984 0.31623 0.0
H338 H 0.84018 0.07145 0.34037 0.0
H339 H 0.86893 1.0249 0.36356 0.0
H340 H 0.9297 0.02653 0.36288 0.0
C341 C 0.9913 0.05152 0.35849 0.0
C342 C 0.97363 0.07741 0.33979 0.0
C343 C 0.93807 0.07588 0.3398 0.0
C344 C 0.92149 0.10257 0.32599 0.0
C345 C 0.88593 0.10039 0.32655 0.0
C346 C 0.86733 0.0727 0.34021 0.0
C347 C 0.88351 0.0465 0.3533 0.0
C348 C 0.91843 0.04787 0.35303 0.0
H349 H 0.93478 0.15053 0.23778 0.0
C350 C 0.92127 0.16554 0.26027 0.0
H351 H 0.90889 0.17307 0.32206 0.0
H352 H 0.04196 0.08701 0.33293 0.0
H353 H 0.07386 0.135 0.308 0.0
H354 H 0.04531 0.18204 0.28586 0.0
H355 H 0.98467 0.18115 0.28778 0.0
C356 C 0.92268 0.15906 0.29908 0.0
C357 C 0.94044 0.13058 0.31161 0.0
C358 C 0.97602 0.13167 0.31057 0.0
C359 C 0.99257 0.10484 0.32419 0.0
C360 C 0.02808 0.10663 0.32292 0.0
C361 C 0.04673 0.13405 0.30871 0.0
C362 C 0.03065 0.16053 0.29622 0.0
C363 C 0.99576 0.15959 0.29727 0.0
H364 H 0.71124 0.232 0.25944 0.0
C365 C 0.7341 0.2208 0.26598 0.0
H366 H 0.75769 0.17613 0.2674 0.0
H367 H 0.59215 0.13896 0.22218 0.0
H368 H 0.5809 0.16573 0.28913 0.0
H369 H 0.62742 0.19105 0.33428 0.0
H370 H 0.68544 0.19027 0.31256 0.0
C371 C 0.73472 0.1871 0.2608 0.0
C372 C 0.70709 0.16514 0.23864 0.0
C373 C 0.67351 0.16455 0.25252 0.0
C374 C 0.64672 0.14919 0.22694 0.0
C375 C 0.61333 0.15022 0.24064 0.0
C376 C 0.60658 0.16534 0.27897 0.0
C377 C 0.63279 0.17964 0.30438 0.0
C378 C 0.66592 0.17926 0.29149 0.0
H379 H 0.61284 0.07583 0.16655 0.0
C380 C 0.60944 0.09631 0.14836 0.0
H381 H 0.62292 0.1472 0.13909 0.0
H382 H 0.769 0.157 0.20459 0.0
H383 H 0.77978 0.12655 0.14019 0.0
H384 H 0.73317 0.09848 0.09712 0.0
H385 H 0.67535 0.1009 0.11842 0.0
C386 C 0.62656 0.1267 0.1572 0.0
C387 C 0.65365 0.13366 0.18816 0.0
C388 C 0.68732 0.13094 0.17614 0.0
C389 C 0.71414 0.1468 0.20128 0.0
C390 C 0.74751 0.14508 0.18732 0.0
C391 C 0.75412 0.1277 0.15021 0.0
C392 C 0.72789 0.11194 0.12594 0.0
C393 C 0.69483 0.11359 0.1385 0.0
H394 H 0.6267 0.98329 0.95938 0.0
C395 C 0.63704 1.00943 0.95994 0.0
H396 H 0.67927 0.04197 0.9465 0.0
H397 H 0.7231 0.88272 0.94113 0.0
H398 H 0.71321 0.88811 1.01327 0.0
H399 H 0.69324 0.94002 0.04747 0.0
H400 H 0.68234 0.98661 1.00951 0.0
C401 C 0.6683 1.01613 0.94613 0.0
C402 C 0.68761 0.98829 0.92779 0.0
C403 C 0.69564 0.96202 0.95074 0.0
C404 C 0.70855 0.93264 0.93128 0.0
C405 C 0.71416 0.90594 0.95448 0.0
C406 C 0.70854 0.90869 0.99594 0.0
C407 C 0.6972 0.93788 1.01518 0.0
C408 C 0.6908 0.96431 0.99301 0.0
H409 H 0.77121 0.89613 0.88797 0.0
C410 C 0.7513 0.88423 0.86773 0.0
H411 H 0.70227 0.88624 0.84531 0.0
H412 H 0.67966 0.036 0.87597 0.0
H413 H 0.69394 0.03255 0.80499 0.0
H414 H 0.71854 0.98269 0.77195 0.0
H415 H 0.72882 0.93585 0.80971 0.0
C416 C 0.72164 0.89759 0.86665 0.0
C417 C 0.71474 0.93023 0.88922 0.0
C418 C 0.70979 0.95789 0.86715 0.0
C419 C 0.69611 0.98688 0.88637 0.0
C420 C 0.69033 1.01352 0.86308 0.0
C421 C 0.69839 1.01188 0.82226 0.0
C422 C 0.7122 0.98379 0.80364 0.0
C423 C 0.71783 0.95703 0.82563 0.0
H424 H 0.63344 0.61292 1.01123 0.0
C425 C 0.63004 0.59307 0.98643 0.0
H426 H 0.6392 0.57829 0.92499 0.0
H427 H 0.65398 0.73596 0.89559 0.0
H428 H 0.59515 0.73607 0.91381 0.0
H429 H 0.56569 0.68777 0.94368 0.0
H430 H 0.59474 0.63914 0.95561 0.0
C431 C 0.64205 0.59842 0.94954 0.0
C432 C 0.66076 0.63046 0.93975 0.0
C433 C 0.64328 0.65861 0.93278 0.0
C434 C 0.66011 0.68623 0.91479 0.0
C435 C 0.64218 0.7141 0.9084 0.0
C436 C 0.60848 0.71452 0.91885 0.0
C437 C 0.59188 0.68732 0.93567 0.0
C438 C 0.6089 0.65956 0.94246 0.0
H439 H 0.68359 0.69441 0.8267 0.0
C440 C 0.70317 0.71268 0.84039 0.0
H441 H 0.73126 0.7287 0.8939 0.0
H442 H 0.70239 0.5824 0.95326 0.0
H443 H 0.76145 0.58277 0.93611 0.0
H444 H 0.79039 0.6302 0.9041 0.0
H445 H 0.76054 0.67755 0.88903 0.0
C446 C 0.71082 0.71199 0.87967 0.0
C447 C 0.69419 0.68542 0.90325 0.0
C448 C 0.71218 0.65829 0.9126 0.0
C449 C 0.69542 0.63079 0.93076 0.0
C450 C 0.71384 0.60371 0.93906 0.0
C451 C 0.74775 0.60367 0.92952 0.0
C452 C 0.76406 0.6304 0.91154 0.0
C453 C 0.74661 0.65743 0.90306 0.0
H454 H 0.79959 0.35267 0.12901 0.0
C455 C 0.78829 0.33725 0.15141 0.0
H456 H 0.7426 0.31962 0.17738 0.0
H457 H 0.70934 0.45364 0.08336 0.0
H458 H 0.74764 0.48617 0.1319 0.0
H459 H 0.77819 0.45828 0.18137 0.0
H460 H 0.77127 0.39761 0.18186 0.0
C461 C 0.75468 0.33502 0.15558 0.0
C462 C 0.7329 0.35252 0.12941 0.0
C463 C 0.73577 0.38826 0.13099 0.0
C464 C 0.71654 0.40455 0.10405 0.0
C465 C 0.72192 0.44004 0.10438 0.0
C466 C 0.74406 0.45905 0.13192 0.0
C467 C 0.76138 0.44334 0.15964 0.0
C468 C 0.75738 0.40841 0.15935 0.0
H469 H 0.64585 0.42755 0.09568 0.0
C470 C 0.64896 0.42279 0.0632 0.0
H471 H 0.67528 0.39631 1.01705 0.0
H472 H 0.72023 0.28388 0.11922 0.0
H473 H 0.67944 0.25153 0.07341 0.0
H474 H 0.6441 0.27987 0.02927 0.0
H475 H 0.64946 0.34076 0.03044 0.0
C476 C 0.67201 0.40211 0.04926 0.0
C477 C 0.69282 0.38528 0.07721 0.0
C478 C 0.68923 0.34964 0.07654 0.0
C479 C 0.7093 0.33329 0.10251 0.0
C480 C 0.70542 0.29765 0.10058 0.0
C481 C 0.68212 0.27874 0.07436 0.0
C482 C 0.66224 0.2947 0.04948 0.0
C483 C 0.66564 0.32969 0.05041 0.0
H484 H 0.85213 0.36153 0.36508 0.0
C485 C 0.86037 0.33666 0.35685 0.0
H486 H 0.89798 0.3041 0.36464 0.0
H487 H 1.00484 0.43075 0.40572 0.0
H488 H 1.0242 0.40734 0.3406 0.0
H489 H 0.9922 0.35867 0.30257 0.0
H490 H 0.94038 0.33343 0.32895 0.0
C491 C 0.88847 0.32821 0.37394 0.0
C492 C 0.91026 0.35388 0.40007 0.0
C493 C 0.94109 0.36757 0.38476 0.0
C494 C 0.95955 0.39567 0.40665 0.0
C495 C 0.9897 0.40959 0.39009 0.0
C496 C 1.00118 0.3963 0.35289 0.0
C497 C 0.98315 0.36889 0.33147 0.0
C498 C 0.95343 0.35463 0.34701 0.0
H499 H 0.99087 0.42956 0.50744 0.0
C500 C 0.98366 0.45017 0.49149 0.0
H501 H 0.95496 0.4647 0.44403 0.0
H502 H 0.8556 0.32977 0.44116 0.0
H503 H 0.83663 0.35288 0.5067 0.0
H504 H 0.86809 0.40233 0.544 0.0
H505 H 0.91889 0.42884 0.51621 0.0
C506 C 0.96156 0.44412 0.46047 0.0
C507 C 0.94732 0.40991 0.44386 0.0
C508 C 0.91791 0.3946 0.46064 0.0
C509 C 0.89943 0.36642 0.43879 0.0
C510 C 0.87014 0.35161 0.45619 0.0
C511 C 0.85909 0.36453 0.49381 0.0
C512 C 0.87683 0.39237 0.51483 0.0
C513 C 0.90589 0.40738 0.49855 0.0
H514 H 0.88177 0.74616 0.77332 0.0
C515 C 0.87096 0.75607 0.74757 0.0
H516 H 0.87092 0.75734 0.68429 0.0
H517 H 1.00718 0.68795 0.65645 0.0
H518 H 0.03259 0.74554 0.6681 0.0
H519 H 0.99905 0.79159 0.6941 0.0
H520 H 0.93981 0.78015 0.70932 0.0
C521 C 0.88149 0.747 0.7099 0.0
C522 C 0.90313 0.71902 0.70005 0.0
C523 C 0.93747 0.72605 0.6907 0.0
C524 C 0.9566 0.69958 0.67455 0.0
C525 C 0.99118 0.70723 0.6672 0.0
C526 C 1.00615 0.74015 0.67411 0.0
C527 C 0.98725 0.76608 0.68881 0.0
C528 C 0.95331 0.75923 0.69723 0.0
H529 H 0.97334 0.6609 0.59371 0.0
C530 C 0.97178 0.63817 0.60913 0.0
H531 H 0.95865 0.61504 0.66116 0.0
H532 H 0.83826 0.69656 0.71657 0.0
H533 H 0.81252 0.63937 0.70455 0.0
H534 H 0.84482 0.59375 0.67451 0.0
H535 H 0.90288 0.605 0.65646 0.0
C536 C 0.95953 0.63828 0.64681 0.0
C537 C 0.94098 0.66624 0.66646 0.0
C538 C 0.90682 0.65908 0.67717 0.0
C539 C 0.88801 0.68544 0.69412 0.0
C540 C 0.85382 0.67761 0.70372 0.0
C541 C 0.83864 0.64483 0.69693 0.0
C542 C 0.85682 0.61916 0.68008 0.0
C543 C 0.89038 0.62604 0.67006 0.0
H544 H 0.49381 0.49059 0.1271 0.0
C545 C 0.49533 0.47344 0.09986 0.0
H546 H 0.47502 0.42859 0.06619 0.0
H547 H 0.40127 0.35459 0.20019 0.0
H548 H 0.45318 0.32741 0.19822 0.0
H549 H 0.50228 0.35012 0.16137 0.0
H550 H 0.49993 0.40032 0.12657 0.0
C551 C 0.47304 0.44608 0.09306 0.0
C552 C 0.44583 0.43674 0.12143 0.0
C553 C 0.44769 0.40759 0.14189 0.0
C554 C 0.41927 0.39424 0.1627 0.0
C555 C 0.42194 0.3653 0.1832 0.0
C556 C 0.45161 0.3496 0.18252 0.0
C557 C 0.47927 0.36239 0.16177 0.0
C558 C 0.47753 0.39111 0.14176 0.0
H559 H 0.34644 0.36128 0.12628 0.0
C560 C 0.33955 0.36774 0.15753 0.0
H561 H 0.35222 0.40036 0.21074 0.0
H562 H 0.43407 0.49398 0.08711 0.0
H563 H 0.38243 0.52143 0.09029 0.0
H564 H 0.33335 0.49835 0.12694 0.0
H565 H 0.33557 0.44739 0.16045 0.0
C566 C 0.35798 0.39299 0.17948 0.0
C567 C 0.38879 0.40962 0.16229 0.0
C568 C 0.38746 0.43985 0.14393 0.0
C569 C 0.41597 0.45339 0.12326 0.0
C570 C 0.41342 0.48285 0.10372 0.0
C571 C 0.38388 0.49883 0.10525 0.0
C572 C 0.35622 0.48581 0.12585 0.0
C573 C 0.3578 0.45659 0.14492 0.0
H574 H 0.37032 0.67128 0.85279 0.0
C575 C 0.35262 0.67615 0.87703 0.0
H576 H 0.33625 0.66277 0.93414 0.0
H577 H 0.39579 0.52092 0.91577 0.0
H578 H 0.3359 0.50433 0.91534 0.0
H579 H 0.29504 0.5466 0.91295 0.0
H580 H 0.31379 0.60579 0.91138 0.0
C581 C 0.35396 0.65919 0.90975 0.0
C582 C 0.37886 0.63382 0.91231 0.0
C583 C 0.36753 0.59925 0.91287 0.0
C584 C 0.39113 0.57476 0.91363 0.0
C585 C 0.37902 0.54051 0.91478 0.0
C586 C 0.34469 0.53064 0.91456 0.0
C587 C 0.32169 0.55444 0.91324 0.0
C588 C 0.33281 0.58836 0.91239 0.0
H589 H 0.46808 0.58137 0.97375 0.0
C590 C 0.47036 0.56095 0.95001 0.0
H591 H 0.45155 0.53887 0.89313 0.0
H592 H 0.40953 0.69831 0.91731 0.0
H593 H 0.46926 0.71455 0.91399 0.0
H594 H 0.50983 0.67159 0.90804 0.0
H595 H 0.49097 0.61223 0.90675 0.0
C596 C 0.45071 0.5593 0.917 0.0
C597 C 0.42607 0.58479 0.91357 0.0
C598 C 0.43741 0.6193 0.91207 0.0
C599 C 0.41387 0.64392 0.91285 0.0
C600 C 0.42612 0.67838 0.91454 0.0
C601 C 0.4604 0.68811 0.91302 0.0
C602 C 0.48325 0.66395 0.90991 0.0
C603 C 0.47206 0.62994 0.90948 0.0
H604 H 0.27063 0.70876 0.68763 0.0
C605 C 0.26451 0.69881 0.71618 0.0
H606 H 0.23538 0.66239 0.74619 0.0
H607 H 0.11142 0.65539 0.63027 0.0
H608 H 0.09758 0.70201 0.67774 0.0
H609 H 0.13919 0.72945 0.72818 0.0
H610 H 0.19486 0.71044 0.73144 0.0
C611 C 0.24185 0.67191 0.71749 0.0
C612 C 0.21925 0.65882 0.68305 0.0
C613 C 0.18681 0.67028 0.68161 0.0
C614 C 0.16286 0.65452 0.65256 0.0
C615 C 0.13061 0.66645 0.65176 0.0
C616 C 0.12231 0.6932 0.67884 0.0
C617 C 0.14573 0.70862 0.70726 0.0
C618 C 0.17759 0.69738 0.70884 0.0
H619 H 0.12552 0.57383 0.62908 0.0
C620 C 0.12401 0.58579 0.60134 0.0
H621 H 0.14513 0.62378 0.56661 0.0
H622 H 0.27965 0.6322 0.67667 0.0
H623 H 0.29416 0.58663 0.62771 0.0
H624 H 0.25266 0.55943 0.57694 0.0
H625 H 0.19631 0.57742 0.57493 0.0
C626 C 0.14644 0.61166 0.59425 0.0
C627 C 0.17138 0.62728 0.62514 0.0
C628 C 0.20415 0.61658 0.62567 0.0
C629 C 0.22813 0.63235 0.65481 0.0
C630 C 0.26056 0.62099 0.65512 0.0
C631 C 0.26918 0.59495 0.62718 0.0
C632 C 0.24581 0.57963 0.59858 0.0
C633 C 0.2136 0.59019 0.59772 0.0
H634 H 0.24562 0.39033 0.35931 0.0
C635 C 0.23537 0.38655 0.3288 0.0
H636 H 0.19976 0.4002 0.28811 0.0
H637 H 0.09339 0.4459 0.41407 0.0
H638 H 0.06815 0.39016 0.39005 0.0
H639 H 0.09939 0.35116 0.34564 0.0
H640 H 0.15651 0.36733 0.32598 0.0
C641 C 0.21065 0.40474 0.31829 0.0
C642 C 0.19334 0.42755 0.34784 0.0
C643 C 0.15969 0.41797 0.35842 0.0
C644 C 0.14145 0.44065 0.38347 0.0
C645 C 0.10824 0.42997 0.39452 0.0
C646 C 0.09341 0.39799 0.38097 0.0
C647 C 0.11104 0.376 0.35607 0.0
C648 C 0.14379 0.38569 0.34489 0.0
H649 H 0.10987 0.51236 0.37666 0.0
C650 C 0.11362 0.51365 0.40914 0.0
H651 H 0.14286 0.49877 0.45609 0.0
H652 H 0.25732 0.45391 0.33345 0.0
H653 H 0.28338 0.50885 0.35998 0.0
H654 H 0.25191 0.54787 0.40413 0.0
H655 H 0.19401 0.53229 0.42179 0.0
C656 C 0.13761 0.49665 0.42392 0.0
C657 C 0.15672 0.47311 0.39747 0.0
C658 C 0.19066 0.48231 0.38798 0.0
C659 C 0.20896 0.4596 0.3629 0.0
C660 C 0.24246 0.46991 0.35288 0.0
C661 C 0.25768 0.50143 0.36781 0.0
C662 C 0.23995 0.52341 0.39266 0.0
C663 C 0.20678 0.51415 0.40261 0.0
loop_
_geom_bond_atom_site_label_1
_geom_bond_atom_site_label_2
_geom_bond_distance
_geom_bond_site_symmetry_2
_ccdc_geom_bond_type
Cu0 N1 1.997 1_545 S
Cu0 O6 1.974 1_445 S
Cu0 N11 1.985 1_455 S
Cu0 O20 1.959 . S
N1 Cu0 1.997 1_565 S
N1 C3 1.268 . S
N1 C5 1.387 1_565 S
N2 C3 1.358 . S
N2 C4 1.400 . S
C3 N1 1.268 . S
C3 N2 1.358 . S
C3 H9 0.930 . S
C4 N2 1.400 . S
C4 C5 1.351 1_565 S
C4 H21 0.928 1_565 S
C5 N1 1.387 1_545 S
C5 C4 1.351 1_545 S
C5 H10 0.930 . S
O6 Cu0 1.974 1_665 S
O6 C16 1.282 . S
C7 O8 1.261 . S
C7 O20 1.251 . S
O8 C7 1.261 . S
H9 C3 0.930 . S
H10 C5 0.930 . S
N11 Cu0 1.985 1_655 S
N11 C13 1.335 . S
N11 C14 1.390 . S
N12 C13 1.345 . S
N12 C15 1.336 . S
C13 N11 1.335 . S
C13 N12 1.345 . S
C13 H18 0.930 1_655 S
C14 N11 1.390 . S
C14 C15 1.346 . S
C14 H19 0.933 1_545 S
C15 N12 1.336 . S
C15 C14 1.346 . S
C15 H22 0.929 . S
C16 O6 1.282 . S
C16 O17 1.216 . S
O17 C16 1.216 . S
H18 C13 0.930 1_455 S
H19 C14 0.933 1_565 S
O20 Cu0 1.959 . S
O20 C7 1.251 . S
H21 C4 0.928 1_545 S
H22 C15 0.929 . S
Cu23 N24 1.999 . S
Cu23 O29 1.974 . S
Cu23 N34 1.985 . S
Cu23 O43 1.959 . S
N24 Cu23 1.999 . S
N24 C26 1.263 . S
N24 C28 1.389 . S
N25 C26 1.358 . S
N25 C27 1.400 . S
C26 N24 1.263 . S
C26 N25 1.358 . S
C26 H32 0.930 . S
C27 N25 1.400 . S
C27 C28 1.351 . S
C27 H44 0.930 . S
C28 N24 1.389 . S
C28 C27 1.351 . S
C28 H33 0.930 . S
O29 Cu23 1.974 . S
O29 C39 1.282 . S
C30 O31 1.261 . S
C30 O43 1.251 . S
O31 C30 1.261 . S
H32 C26 0.930 . S
H33 C28 0.930 . S
N34 Cu23 1.985 . S
N34 C36 1.335 . S
N34 C37 1.390 . S
N35 C36 1.345 . S
N35 C38 1.336 . S
C36 N34 1.335 . S
C36 N35 1.345 . S
C36 H41 0.930 . S
C37 N34 1.390 . S
C37 C38 1.346 . S
C37 H42 0.930 . S
C38 N35 1.336 . S
C38 C37 1.346 . S
C38 H45 0.929 . S
C39 O29 1.282 . S
C39 O40 1.216 . S
O40 C39 1.216 . S
H41 C36 0.930 . S
H42 C37 0.930 . S
O43 Cu23 1.959 . S
O43 C30 1.251 . S
H44 C27 0.930 . S
H45 C38 0.929 . S
Cu46 N47 1.994 1_545 S
Cu46 O52 1.966 1_544 S
Cu46 N57 1.995 . S
Cu46 O66 1.967 . S
N47 Cu46 1.994 1_565 S
N47 C49 1.252 1_554 S
N47 C51 1.396 . S
N48 C49 1.358 . S
N48 C50 1.400 . S
C49 N47 1.252 1_556 S
C49 N48 1.358 . S
C49 H55 0.930 . S
C50 N48 1.400 . S
C50 C51 1.351 1_556 S
C50 H67 0.930 1_556 S
C51 N47 1.396 . S
C51 C50 1.351 1_554 S
C51 H56 0.930 . S
O52 Cu46 1.966 1_566 S
O52 C62 1.282 . S
C53 O54 1.261 . S
C53 O66 1.251 . S
O54 C53 1.261 . S
H55 C49 0.930 . S
H56 C51 0.930 . S
N57 Cu46 1.995 . S
N57 C59 1.335 . S
N57 C60 1.390 . S
N58 C59 1.345 . S
N58 C61 1.336 . S
C59 N57 1.335 . S
C59 N58 1.345 . S
C59 H64 0.930 . S
C60 N57 1.390 . S
C60 C61 1.346 . S
C60 H65 0.930 1_554 S
C61 N58 1.336 . S
C61 C60 1.346 . S
C61 H68 0.929 . S
C62 O52 1.282 . S
C62 O63 1.216 . S
O63 C62 1.216 . S
H64 C59 0.930 . S
H65 C60 0.930 1_556 S
O66 Cu46 1.967 . S
O66 C53 1.251 . S
H67 C50 0.930 1_554 S
H68 C61 0.929 . S
Cu69 N70 1.999 . S
Cu69 O75 1.974 . S
Cu69 N80 1.985 . S
Cu69 O89 1.959 . S
N70 Cu69 1.999 . S
N70 C72 1.263 . S
N70 C74 1.389 . S
N71 C72 1.358 . S
N71 C73 1.400 . S
C72 N70 1.263 . S
C72 N71 1.358 . S
C72 H78 0.930 . S
C73 N71 1.400 . S
C73 C74 1.351 . S
C73 H90 0.930 . S
C74 N70 1.389 . S
C74 C73 1.351 . S
C74 H79 0.930 . S
O75 Cu69 1.974 . S
O75 C85 1.282 . S
C76 O77 1.261 . S
C76 O89 1.251 . S
O77 C76 1.261 . S
H78 C72 0.930 . S
H79 C74 0.930 . S
N80 Cu69 1.985 . S
N80 C82 1.335 . S
N80 C83 1.390 . S
N81 C82 1.345 . S
N81 C84 1.336 . S
C82 N80 1.335 . S
C82 N81 1.345 . S
C82 H87 0.930 . S
C83 N80 1.390 . S
C83 C84 1.346 . S
C83 H88 0.930 . S
C84 N81 1.336 . S
C84 C83 1.346 . S
C84 H91 0.929 . S
C85 O75 1.282 . S
C85 O86 1.216 . S
O86 C85 1.216 . S
H87 C82 0.930 . S
H88 C83 0.930 . S
O89 Cu69 1.959 . S
O89 C76 1.251 . S
H90 C73 0.930 . S
H91 C84 0.929 . S
Cu92 N93 1.999 . S
Cu92 O98 1.974 . S
Cu92 N103 1.985 . S
Cu92 O112 1.959 . S
N93 Cu92 1.999 . S
N93 C95 1.263 . S
N93 C97 1.389 . S
N94 C95 1.358 . S
N94 C96 1.400 . S
C95 N93 1.263 . S
C95 N94 1.358 . S
C95 H101 0.930 . S
C96 N94 1.400 . S
C96 C97 1.351 . S
C96 H113 0.930 . S
C97 N93 1.389 . S
C97 C96 1.351 . S
C97 H102 0.930 . S
O98 Cu92 1.974 . S
O98 C108 1.282 . S
C99 O100 1.261 . S
C99 O112 1.251 . S
O100 C99 1.261 . S
H101 C95 0.930 . S
H102 C97 0.930 . S
N103 Cu92 1.985 . S
N103 C105 1.335 . S
N103 C106 1.390 . S
N104 C105 1.345 . S
N104 C107 1.336 . S
C105 N103 1.335 . S
C105 N104 1.345 . S
C105 H110 0.930 . S
C106 N103 1.390 . S
C106 C107 1.346 . S
C106 H111 0.930 . S
C107 N104 1.336 . S
C107 C106 1.346 . S
C107 H114 0.929 . S
C108 O98 1.282 . S
C108 O109 1.216 . S
O109 C108 1.216 . S
H110 C105 0.930 . S
H111 C106 0.930 . S
O112 Cu92 1.959 . S
O112 C99 1.251 . S
H113 C96 0.930 . S
H114 C107 0.929 . S
Cu115 N116 1.999 . S
Cu115 O121 1.974 . S
Cu115 N126 1.985 . S
Cu115 O135 1.959 . S
N116 Cu115 1.999 . S
N116 C118 1.263 . S
N116 C120 1.389 . S
N117 C118 1.358 . S
N117 C119 1.400 . S
C118 N116 1.263 . S
C118 N117 1.358 . S
C118 H124 0.930 . S
C119 N117 1.400 . S
C119 C120 1.351 . S
C119 H136 0.930 . S
C120 N116 1.389 . S
C120 C119 1.351 . S
C120 H125 0.930 . S
O121 Cu115 1.974 . S
O121 C131 1.282 . S
C122 O123 1.261 . S
C122 O135 1.251 . S
O123 C122 1.261 . S
H124 C118 0.930 . S
H125 C120 0.930 . S
N126 Cu115 1.985 . S
N126 C128 1.335 . S
N126 C129 1.390 . S
N127 C128 1.345 . S
N127 C130 1.336 . S
C128 N126 1.335 . S
C128 N127 1.345 . S
C128 H133 0.930 . S
C129 N126 1.390 . S
C129 C130 1.346 . S
C129 H134 0.930 . S
C130 N127 1.336 . S
C130 C129 1.346 . S
C130 H137 0.929 . S
C131 O121 1.282 . S
C131 O132 1.216 . S
O132 C131 1.216 . S
H133 C128 0.930 . S
H134 C129 0.930 . S
O135 Cu115 1.959 . S
O135 C122 1.251 . S
H136 C119 0.930 . S
H137 C130 0.929 . S
Cu138 N139 1.999 . S
Cu138 O144 1.974 1_554 S
Cu138 N149 1.985 . S
Cu138 O158 1.959 . S
N139 Cu138 1.999 . S
N139 C141 1.263 1_554 S
N139 C143 1.389 . S
N140 C141 1.358 . S
N140 C142 1.400 1_556 S
C141 N139 1.263 1_556 S
C141 N140 1.358 . S
C141 H147 0.930 . S
C142 N140 1.400 1_554 S
C142 C143 1.351 . S
C142 H159 0.930 . S
C143 N139 1.389 . S
C143 C142 1.351 . S
C143 H148 0.930 . S
O144 Cu138 1.974 1_556 S
O144 C154 1.282 . S
C145 O146 1.261 . S
C145 O158 1.251 . S
O146 C145 1.261 . S
H147 C141 0.930 . S
H148 C143 0.930 . S
N149 Cu138 1.985 . S
N149 C151 1.335 . S
N149 C152 1.390 . S
N150 C151 1.345 . S
N150 C153 1.336 . S
C151 N149 1.335 . S
C151 N150 1.345 . S
C151 H156 0.930 . S
C152 N149 1.390 . S
C152 C153 1.346 . S
C152 H157 0.930 1_554 S
C153 N150 1.336 . S
C153 C152 1.346 . S
C153 H160 0.929 . S
C154 O144 1.282 . S
C154 O155 1.216 . S
O155 C154 1.216 . S
H156 C151 0.930 . S
H157 C152 0.930 1_556 S
O158 Cu138 1.959 . S
O158 C145 1.251 . S
H159 C142 0.930 . S
H160 C153 0.929 . S
Cu161 N162 1.999 1_455 S
Cu161 O167 1.974 . S
Cu161 N172 1.985 . S
Cu161 O181 1.959 1_455 S
N162 Cu161 1.999 1_655 S
N162 C164 1.263 . S
N162 C166 1.389 . S
N163 C164 1.358 . S
N163 C165 1.400 . S
C164 N162 1.263 . S
C164 N163 1.358 . S
C164 H170 0.930 1_655 S
C165 N163 1.400 . S
C165 C166 1.351 . S
C165 H182 0.930 . S
C166 N162 1.389 . S
C166 C165 1.351 . S
C166 H171 0.930 . S
O167 Cu161 1.974 . S
O167 C177 1.282 . S
C168 O169 1.261 . S
C168 O181 1.251 . S
O169 C168 1.261 . S
H170 C164 0.930 1_455 S
H171 C166 0.930 . S
N172 Cu161 1.985 . S
N172 C174 1.335 . S
N172 C175 1.390 . S
N173 C174 1.345 . S
N173 C176 1.336 . S
C174 N172 1.335 . S
C174 N173 1.345 . S
C174 H179 0.930 . S
C175 N172 1.390 . S
C175 C176 1.346 . S
C175 H180 0.930 . S
C176 N173 1.336 . S
C176 C175 1.346 . S
C176 H183 0.929 . S
C177 O167 1.282 . S
C177 O178 1.216 . S
O178 C177 1.216 . S
H179 C174 0.930 . S
H180 C175 0.930 . S
O181 Cu161 1.959 1_655 S
O181 C168 1.251 . S
H182 C165 0.930 . S
H183 C176 0.929 . S
H184 C185 0.951 . S
C185 H184 0.951 . S
C185 C191 1.265 . S
H186 C191 0.950 . S
H187 C195 0.949 . S
H188 C196 0.950 . S
H189 C197 0.951 . S
H190 C198 0.951 . S
C191 C185 1.265 . S
C191 H186 0.950 . S
C191 C192 1.478 . S
C192 C191 1.478 . S
C192 C193 1.397 . S
C192 C209 1.394 . S
C193 C192 1.397 . S
C193 C194 1.438 . S
C193 C198 1.429 . S
C194 C193 1.438 . S
C194 C195 1.428 . S
C194 C207 1.394 . S
C195 H187 0.949 . S
C195 C194 1.428 . S
C195 C196 1.345 . S
C196 H188 0.950 . S
C196 C195 1.345 . S
C196 C197 1.424 . S
C197 H189 0.951 . S
C197 C196 1.424 . S
C197 C198 1.347 . S
C198 H190 0.951 . S
C198 C193 1.429 . S
C198 C197 1.347 . S
H199 C200 0.951 . S
C200 H199 0.951 . S
C200 C206 1.265 . S
H201 C206 0.950 . S
H202 C210 0.949 . S
H203 C211 0.950 . S
H204 C212 0.951 . S
H205 C213 0.951 . S
C206 C200 1.265 . S
C206 H201 0.950 . S
C206 C207 1.478 . S
C207 C194 1.394 . S
C207 C206 1.478 . S
C207 C208 1.397 . S
C208 C207 1.397 . S
C208 C209 1.438 . S
C208 C213 1.429 . S
C209 C192 1.394 . S
C209 C208 1.438 . S
C209 C210 1.428 . S
C210 H202 0.949 . S
C210 C209 1.428 . S
C210 C211 1.345 . S
C211 H203 0.950 . S
C211 C210 1.345 . S
C211 C212 1.424 . S
C212 H204 0.951 . S
C212 C211 1.424 . S
C212 C213 1.347 . S
C213 H205 0.951 . S
C213 C208 1.429 . S
C213 C212 1.347 . S
H214 C215 0.951 . S
C215 H214 0.951 . S
C215 C221 1.265 . S
H216 C221 0.950 . S
H217 C225 0.949 . S
H218 C226 0.950 . S
H219 C227 0.951 . S
H220 C228 0.951 . S
C221 C215 1.265 . S
C221 H216 0.950 . S
C221 C222 1.478 . S
C222 C221 1.478 . S
C222 C223 1.397 . S
C222 C239 1.394 . S
C223 C222 1.397 . S
C223 C224 1.438 . S
C223 C228 1.429 . S
C224 C223 1.438 . S
C224 C225 1.428 . S
C224 C237 1.394 . S
C225 H217 0.949 . S
C225 C224 1.428 . S
C225 C226 1.345 . S
C226 H218 0.950 . S
C226 C225 1.345 . S
C226 C227 1.424 . S
C227 H219 0.951 . S
C227 C226 1.424 . S
C227 C228 1.347 . S
C228 H220 0.951 . S
C228 C223 1.429 . S
C228 C227 1.347 . S
H229 C230 0.951 . S
C230 H229 0.951 . S
C230 C236 1.265 . S
H231 C236 0.950 . S
H232 C240 0.949 . S
H233 C241 0.950 . S
H234 C242 0.951 . S
H235 C243 0.951 . S
C236 C230 1.265 . S
C236 H231 0.950 . S
C236 C237 1.478 . S
C237 C224 1.394 . S
C237 C236 1.478 . S
C237 C238 1.397 . S
C238 C237 1.397 . S
C238 C239 1.438 . S
C238 C243 1.429 . S
C239 C222 1.394 . S
C239 C238 1.438 . S
C239 C240 1.428 . S
C240 H232 0.949 . S
C240 C239 1.428 . S
C240 C241 1.345 . S
C241 H233 0.950 . S
C241 C240 1.345 . S
C241 C242 1.424 . S
C242 H234 0.951 . S
C242 C241 1.424 . S
C242 C243 1.347 . S
C243 H235 0.951 . S
C243 C238 1.429 . S
C243 C242 1.347 . S
H244 C245 0.951 . S
C245 H244 0.951 . S
C245 C251 1.265 . S
H246 C251 0.950 . S
H247 C255 0.949 . S
H248 C256 0.950 . S
H249 C257 0.951 . S
H250 C258 0.951 . S
C251 C245 1.265 . S
C251 H246 0.950 . S
C251 C252 1.478 . S
C252 C251 1.478 . S
C252 C253 1.397 . S
C252 C269 1.394 . S
C253 C252 1.397 . S
C253 C254 1.438 . S
C253 C258 1.429 . S
C254 C253 1.438 . S
C254 C255 1.428 . S
C254 C267 1.394 . S
C255 H247 0.949 . S
C255 C254 1.428 . S
C255 C256 1.345 . S
C256 H248 0.950 . S
C256 C255 1.345 . S
C256 C257 1.424 . S
C257 H249 0.951 . S
C257 C256 1.424 . S
C257 C258 1.347 . S
C258 H250 0.951 . S
C258 C253 1.429 . S
C258 C257 1.347 . S
H259 C260 0.951 . S
C260 H259 0.951 . S
C260 C266 1.265 . S
H261 C266 0.950 . S
H262 C270 0.949 . S
H263 C271 0.950 . S
H264 C272 0.951 . S
H265 C273 0.951 . S
C266 C260 1.265 . S
C266 H261 0.950 . S
C266 C267 1.478 . S
C267 C254 1.394 . S
C267 C266 1.478 . S
C267 C268 1.397 . S
C268 C267 1.397 . S
C268 C269 1.438 . S
C268 C273 1.429 . S
C269 C252 1.394 . S
C269 C268 1.438 . S
C269 C270 1.428 . S
C270 H262 0.949 . S
C270 C269 1.428 . S
C270 C271 1.345 . S
C271 H263 0.950 . S
C271 C270 1.345 . S
C271 C272 1.424 . S
C272 H264 0.951 . S
C272 C271 1.424 . S
C272 C273 1.347 . S
C273 H265 0.951 . S
C273 C268 1.429 . S
C273 C272 1.347 . S
H274 C275 0.951 . S
C275 H274 0.951 . S
C275 C281 1.265 . S
H276 C281 0.950 . S
H277 C285 0.949 . S
H278 C286 0.950 . S
H279 C287 0.951 . S
H280 C288 0.951 . S
C281 C275 1.265 . S
C281 H276 0.950 . S
C281 C282 1.478 . S
C282 C281 1.478 . S
C282 C283 1.397 . S
C282 C299 1.394 . S
C283 C282 1.397 . S
C283 C284 1.438 . S
C283 C288 1.429 . S
C284 C283 1.438 . S
C284 C285 1.428 . S
C284 C297 1.394 . S
C285 H277 0.949 . S
C285 C284 1.428 . S
C285 C286 1.345 . S
C286 H278 0.950 . S
C286 C285 1.345 . S
C286 C287 1.424 . S
C287 H279 0.951 . S
C287 C286 1.424 . S
C287 C288 1.347 . S
C288 H280 0.951 . S
C288 C283 1.429 . S
C288 C287 1.347 . S
H289 C290 0.951 . S
C290 H289 0.951 . S
C290 C296 1.265 . S
H291 C296 0.950 . S
H292 C300 0.949 . S
H293 C301 0.950 . S
H294 C302 0.951 . S
H295 C303 0.951 . S
C296 C290 1.265 . S
C296 H291 0.950 . S
C296 C297 1.478 . S
C297 C284 1.394 . S
C297 C296 1.478 . S
C297 C298 1.397 . S
C298 C297 1.397 . S
C298 C299 1.438 . S
C298 C303 1.429 . S
C299 C282 1.394 . S
C299 C298 1.438 . S
C299 C300 1.428 . S
C300 H292 0.949 . S
C300 C299 1.428 . S
C300 C301 1.345 . S
C301 H293 0.950 . S
C301 C300 1.345 . S
C301 C302 1.424 . S
C302 H294 0.951 . S
C302 C301 1.424 . S
C302 C303 1.347 . S
C303 H295 0.951 . S
C303 C298 1.429 . S
C303 C302 1.347 . S
H304 C305 0.951 . S
C305 H304 0.951 . S
C305 C311 1.265 . S
H306 C311 0.950 . S
H307 C315 0.949 . S
H308 C316 0.950 . S
H309 C317 0.951 . S
H310 C318 0.951 . S
C311 C305 1.265 . S
C311 H306 0.950 . S
C311 C312 1.478 . S
C312 C311 1.478 . S
C312 C313 1.397 . S
C312 C329 1.394 . S
C313 C312 1.397 . S
C313 C314 1.438 . S
C313 C318 1.429 . S
C314 C313 1.438 . S
C314 C315 1.428 . S
C314 C327 1.394 . S
C315 H307 0.949 . S
C315 C314 1.428 . S
C315 C316 1.345 . S
C316 H308 0.950 . S
C316 C315 1.345 . S
C316 C317 1.424 . S
C317 H309 0.951 . S
C317 C316 1.424 . S
C317 C318 1.347 . S
C318 H310 0.951 . S
C318 C313 1.429 . S
C318 C317 1.347 . S
H319 C320 0.951 . S
C320 H319 0.951 . S
C320 C326 1.265 . S
H321 C326 0.950 . S
H322 C330 0.949 . S
H323 C331 0.950 . S
H324 C332 0.951 . S
H325 C333 0.951 . S
C326 C320 1.265 . S
C326 H321 0.950 . S
C326 C327 1.478 . S
C327 C314 1.394 . S
C327 C326 1.478 . S
C327 C328 1.397 . S
C328 C327 1.397 . S
C328 C329 1.438 . S
C328 C333 1.429 . S
C329 C312 1.394 . S
C329 C328 1.438 . S
C329 C330 1.428 . S
C330 H322 0.949 . S
C330 C329 1.428 . S
C330 C331 1.345 . S
C331 H323 0.950 . S
C331 C330 1.345 . S
C331 C332 1.424 . S
C332 H324 0.951 . S
C332 C331 1.424 . S
C332 C333 1.347 . S
C333 H325 0.951 . S
C333 C328 1.429 . S
C333 C332 1.347 . S
H334 C335 0.951 . S
C335 H334 0.951 . S
C335 C341 1.265 . S
H336 C341 0.950 . S
H337 C345 0.949 . S
H338 C346 0.950 . S
H339 C347 0.951 . S
H340 C348 0.951 . S
C341 C335 1.265 . S
C341 H336 0.950 . S
C341 C342 1.478 . S
C342 C341 1.478 . S
C342 C343 1.397 . S
C342 C359 1.394 . S
C343 C342 1.397 . S
C343 C344 1.438 . S
C343 C348 1.429 . S
C344 C343 1.438 . S
C344 C345 1.428 . S
C344 C357 1.394 . S
C345 H337 0.949 . S
C345 C344 1.428 . S
C345 C346 1.345 . S
C346 H338 0.950 . S
C346 C345 1.345 . S
C346 C347 1.424 . S
C347 H339 0.951 . S
C347 C346 1.424 . S
C347 C348 1.347 . S
C348 H340 0.951 . S
C348 C343 1.429 . S
C348 C347 1.347 . S
H349 C350 0.951 . S
C350 H349 0.951 . S
C350 C356 1.265 . S
H351 C356 0.950 . S
H352 C360 0.949 . S
H353 C361 0.950 . S
H354 C362 0.951 . S
H355 C363 0.951 . S
C356 C350 1.265 . S
C356 H351 0.950 . S
C356 C357 1.478 . S
C357 C344 1.394 . S
C357 C356 1.478 . S
C357 C358 1.397 . S
C358 C357 1.397 . S
C358 C359 1.438 . S
C358 C363 1.429 . S
C359 C342 1.394 . S
C359 C358 1.438 . S
C359 C360 1.428 . S
C360 H352 0.949 . S
C360 C359 1.428 . S
C360 C361 1.345 . S
C361 H353 0.950 . S
C361 C360 1.345 . S
C361 C362 1.424 . S
C362 H354 0.951 . S
C362 C361 1.424 . S
C362 C363 1.347 . S
C363 H355 0.951 . S
C363 C358 1.429 . S
C363 C362 1.347 . S
H364 C365 0.951 . S
C365 H364 0.951 . S
C365 C371 1.265 . S
H366 C371 0.950 . S
H367 C375 0.949 . S
H368 C376 0.950 . S
H369 C377 0.951 . S
H370 C378 0.951 . S
C371 C365 1.265 . S
C371 H366 0.950 . S
C371 C372 1.478 . S
C372 C371 1.478 . S
C372 C373 1.397 . S
C372 C389 1.394 . S
C373 C372 1.397 . S
C373 C374 1.438 . S
C373 C378 1.429 . S
C374 C373 1.438 . S
C374 C375 1.428 . S
C374 C387 1.394 . S
C375 H367 0.949 . S
C375 C374 1.428 . S
C375 C376 1.345 . S
C376 H368 0.950 . S
C376 C375 1.345 . S
C376 C377 1.424 . S
C377 H369 0.951 . S
C377 C376 1.424 . S
C377 C378 1.347 . S
C378 H370 0.951 . S
C378 C373 1.429 . S
C378 C377 1.347 . S
H379 C380 0.951 . S
C380 H379 0.951 . S
C380 C386 1.265 . S
H381 C386 0.950 . S
H382 C390 0.949 . S
H383 C391 0.950 . S
H384 C392 0.951 . S
H385 C393 0.951 . S
C386 C380 1.265 . S
C386 H381 0.950 . S
C386 C387 1.478 . S
C387 C374 1.394 . S
C387 C386 1.478 . S
C387 C388 1.397 . S
C388 C387 1.397 . S
C388 C389 1.438 . S
C388 C393 1.429 . S
C389 C372 1.394 . S
C389 C388 1.438 . S
C389 C390 1.428 . S
C390 H382 0.949 . S
C390 C389 1.428 . S
C390 C391 1.345 . S
C391 H383 0.950 . S
C391 C390 1.345 . S
C391 C392 1.424 . S
C392 H384 0.951 . S
C392 C391 1.424 . S
C392 C393 1.347 . S
C393 H385 0.951 . S
C393 C388 1.429 . S
C393 C392 1.347 . S
H394 C395 0.951 . S
C395 H394 0.951 . S
C395 C401 1.265 . S
H396 C401 0.950 . S
H397 C405 0.949 . S
H398 C406 0.950 . S
H399 C407 0.951 . S
H400 C408 0.951 . S
C401 C395 1.265 . S
C401 H396 0.950 . S
C401 C402 1.478 . S
C402 C401 1.478 . S
C402 C403 1.397 . S
C402 C419 1.394 . S
C403 C402 1.397 . S
C403 C404 1.438 . S
C403 C408 1.429 . S
C404 C403 1.438 . S
C404 C405 1.428 . S
C404 C417 1.394 . S
C405 H397 0.949 . S
C405 C404 1.428 . S
C405 C406 1.345 . S
C406 H398 0.950 . S
C406 C405 1.345 . S
C406 C407 1.424 . S
C407 H399 0.951 . S
C407 C406 1.424 . S
C407 C408 1.347 . S
C408 H400 0.951 . S
C408 C403 1.429 . S
C408 C407 1.347 . S
H409 C410 0.951 . S
C410 H409 0.951 . S
C410 C416 1.265 . S
H411 C416 0.950 . S
H412 C420 0.949 . S
H413 C421 0.950 . S
H414 C422 0.951 . S
H415 C423 0.951 . S
C416 C410 1.265 . S
C416 H411 0.950 . S
C416 C417 1.478 . S
C417 C404 1.394 . S
C417 C416 1.478 . S
C417 C418 1.397 . S
C418 C417 1.397 . S
C418 C419 1.438 . S
C418 C423 1.429 . S
C419 C402 1.394 . S
C419 C418 1.438 . S
C419 C420 1.428 . S
C420 H412 0.949 . S
C420 C419 1.428 . S
C420 C421 1.345 . S
C421 H413 0.950 . S
C421 C420 1.345 . S
C421 C422 1.424 . S
C422 H414 0.951 . S
C422 C421 1.424 . S
C422 C423 1.347 . S
C423 H415 0.951 . S
C423 C418 1.429 . S
C423 C422 1.347 . S
H424 C425 0.951 . S
C425 H424 0.951 . S
C425 C431 1.265 . S
H426 C431 0.950 . S
H427 C435 0.949 . S
H428 C436 0.950 . S
H429 C437 0.951 . S
H430 C438 0.951 . S
C431 C425 1.265 . S
C431 H426 0.950 . S
C431 C432 1.478 . S
C432 C431 1.478 . S
C432 C433 1.397 . S
C432 C449 1.394 . S
C433 C432 1.397 . S
C433 C434 1.438 . S
C433 C438 1.429 . S
C434 C433 1.438 . S
C434 C435 1.428 . S
C434 C447 1.394 . S
C435 H427 0.949 . S
C435 C434 1.428 . S
C435 C436 1.345 . S
C436 H428 0.950 . S
C436 C435 1.345 . S
C436 C437 1.424 . S
C437 H429 0.951 . S
C437 C436 1.424 . S
C437 C438 1.347 . S
C438 H430 0.951 . S
C438 C433 1.429 . S
C438 C437 1.347 . S
H439 C440 0.951 . S
C440 H439 0.951 . S
C440 C446 1.265 . S
H441 C446 0.950 . S
H442 C450 0.949 . S
H443 C451 0.950 . S
H444 C452 0.951 . S
H445 C453 0.951 . S
C446 C440 1.265 . S
C446 H441 0.950 . S
C446 C447 1.478 . S
C447 C434 1.394 . S
C447 C446 1.478 . S
C447 C448 1.397 . S
C448 C447 1.397 . S
C448 C449 1.438 . S
C448 C453 1.429 . S
C449 C432 1.394 . S
C449 C448 1.438 . S
C449 C450 1.428 . S
C450 H442 0.949 . S
C450 C449 1.428 . S
C450 C451 1.345 . S
C451 H443 0.950 . S
C451 C450 1.345 . S
C451 C452 1.424 . S
C452 H444 0.951 . S
C452 C451 1.424 . S
C452 C453 1.347 . S
C453 H445 0.951 . S
C453 C448 1.429 . S
C453 C452 1.347 . S
H454 C455 0.951 . S
C455 H454 0.951 . S
C455 C461 1.265 . S
H456 C461 0.950 . S
H457 C465 0.949 . S
H458 C466 0.950 . S
H459 C467 0.951 . S
H460 C468 0.951 . S
C461 C455 1.265 . S
C461 H456 0.950 . S
C461 C462 1.478 . S
C462 C461 1.478 . S
C462 C463 1.397 . S
C462 C479 1.394 . S
C463 C462 1.397 . S
C463 C464 1.438 . S
C463 C468 1.429 . S
C464 C463 1.438 . S
C464 C465 1.428 . S
C464 C477 1.394 . S
C465 H457 0.949 . S
C465 C464 1.428 . S
C465 C466 1.345 . S
C466 H458 0.950 . S
C466 C465 1.345 . S
C466 C467 1.424 . S
C467 H459 0.951 . S
C467 C466 1.424 . S
C467 C468 1.347 . S
C468 H460 0.951 . S
C468 C463 1.429 . S
C468 C467 1.347 . S
H469 C470 0.951 . S
C470 H469 0.951 . S
C470 C476 1.265 . S
H471 C476 0.950 . S
H472 C480 0.949 . S
H473 C481 0.950 . S
H474 C482 0.951 . S
H475 C483 0.951 . S
C476 C470 1.265 . S
C476 H471 0.950 . S
C476 C477 1.478 . S
C477 C464 1.394 . S
C477 C476 1.478 . S
C477 C478 1.397 . S
C478 C477 1.397 . S
C478 C479 1.438 . S
C478 C483 1.429 . S
C479 C462 1.394 . S
C479 C478 1.438 . S
C479 C480 1.428 . S
C480 H472 0.949 . S
C480 C479 1.428 . S
C480 C481 1.345 . S
C481 H473 0.950 . S
C481 C480 1.345 . S
C481 C482 1.424 . S
C482 H474 0.951 . S
C482 C481 1.424 . S
C482 C483 1.347 . S
C483 H475 0.951 . S
C483 C478 1.429 . S
C483 C482 1.347 . S
H484 C485 0.951 . S
C485 H484 0.951 . S
C485 C491 1.265 . S
H486 C491 0.950 . S
H487 C495 0.949 . S
H488 C496 0.950 . S
H489 C497 0.951 . S
H490 C498 0.951 . S
C491 C485 1.265 . S
C491 H486 0.950 . S
C491 C492 1.478 . S
C492 C491 1.478 . S
C492 C493 1.397 . S
C492 C509 1.394 . S
C493 C492 1.397 . S
C493 C494 1.438 . S
C493 C498 1.429 . S
C494 C493 1.438 . S
C494 C495 1.428 . S
C494 C507 1.394 . S
C495 H487 0.949 . S
C495 C494 1.428 . S
C495 C496 1.345 . S
C496 H488 0.950 . S
C496 C495 1.345 . S
C496 C497 1.424 . S
C497 H489 0.951 . S
C497 C496 1.424 . S
C497 C498 1.347 . S
C498 H490 0.951 . S
C498 C493 1.429 . S
C498 C497 1.347 . S
H499 C500 0.951 . S
C500 H499 0.951 . S
C500 C506 1.265 . S
H501 C506 0.950 . S
H502 C510 0.949 . S
H503 C511 0.950 . S
H504 C512 0.951 . S
H505 C513 0.951 . S
C506 C500 1.265 . S
C506 H501 0.950 . S
C506 C507 1.478 . S
C507 C494 1.394 . S
C507 C506 1.478 . S
C507 C508 1.397 . S
C508 C507 1.397 . S
C508 C509 1.438 . S
C508 C513 1.429 . S
C509 C492 1.394 . S
C509 C508 1.438 . S
C509 C510 1.428 . S
C510 H502 0.949 . S
C510 C509 1.428 . S
C510 C511 1.345 . S
C511 H503 0.950 . S
C511 C510 1.345 . S
C511 C512 1.424 . S
C512 H504 0.951 . S
C512 C511 1.424 . S
C512 C513 1.347 . S
C513 H505 0.951 . S
C513 C508 1.429 . S
C513 C512 1.347 . S
H514 C515 0.951 . S
C515 H514 0.951 . S
C515 C521 1.265 . S
H516 C521 0.950 . S
H517 C525 0.949 . S
H518 C526 0.950 . S
H519 C527 0.951 . S
H520 C528 0.951 . S
C521 C515 1.265 . S
C521 H516 0.950 . S
C521 C522 1.478 . S
C522 C521 1.478 . S
C522 C523 1.397 . S
C522 C539 1.394 . S
C523 C522 1.397 . S
C523 C524 1.438 . S
C523 C528 1.429 . S
C524 C523 1.438 . S
C524 C525 1.428 . S
C524 C537 1.394 . S
C525 H517 0.949 . S
C525 C524 1.428 . S
C525 C526 1.345 . S
C526 H518 0.950 . S
C526 C525 1.345 . S
C526 C527 1.424 . S
C527 H519 0.951 . S
C527 C526 1.424 . S
C527 C528 1.347 . S
C528 H520 0.951 . S
C528 C523 1.429 . S
C528 C527 1.347 . S
H529 C530 0.951 . S
C530 H529 0.951 . S
C530 C536 1.265 . S
H531 C536 0.950 . S
H532 C540 0.949 . S
H533 C541 0.950 . S
H534 C542 0.951 . S
H535 C543 0.951 . S
C536 C530 1.265 . S
C536 H531 0.950 . S
C536 C537 1.478 . S
C537 C524 1.394 . S
C537 C536 1.478 . S
C537 C538 1.397 . S
C538 C537 1.397 . S
C538 C539 1.438 . S
C538 C543 1.429 . S
C539 C522 1.394 . S
C539 C538 1.438 . S
C539 C540 1.428 . S
C540 H532 0.949 . S
C540 C539 1.428 . S
C540 C541 1.345 . S
C541 H533 0.950 . S
C541 C540 1.345 . S
C541 C542 1.424 . S
C542 H534 0.951 . S
C542 C541 1.424 . S
C542 C543 1.347 . S
C543 H535 0.951 . S
C543 C538 1.429 . S
C543 C542 1.347 . S
H544 C545 0.951 . S
C545 H544 0.951 . S
C545 C551 1.265 . S
H546 C551 0.950 . S
H547 C555 0.949 . S
H548 C556 0.950 . S
H549 C557 0.942 1_556 S
H550 C558 0.951 . S
C551 C545 1.265 . S
C551 H546 0.950 . S
C551 C552 1.478 . S
C552 C551 1.478 . S
C552 C553 1.397 . S
C552 C569 1.394 . S
C553 C552 1.397 . S
C553 C554 1.438 . S
C553 C558 1.429 . S
C554 C553 1.438 . S
C554 C555 1.428 . S
C554 C567 1.394 . S
C555 H547 0.949 . S
C555 C554 1.428 . S
C555 C556 1.345 . S
C556 H548 0.950 . S
C556 C555 1.345 . S
C556 C557 1.424 . S
C557 H549 0.942 1_554 S
C557 C556 1.424 . S
C557 C558 1.347 . S
C558 H550 0.951 . S
C558 C553 1.429 . S
C558 C557 1.347 . S
H559 C560 0.951 . S
C560 H559 0.951 . S
C560 C566 1.265 . S
H561 C566 0.950 . S
H562 C570 0.949 . S
H563 C571 0.950 . S
H564 C572 0.951 . S
H565 C573 0.951 . S
C566 C560 1.265 . S
C566 H561 0.950 . S
C566 C567 1.478 . S
C567 C554 1.394 . S
C567 C566 1.478 . S
C567 C568 1.397 . S
C568 C567 1.397 . S
C568 C569 1.438 . S
C568 C573 1.429 . S
C569 C552 1.394 . S
C569 C568 1.438 . S
C569 C570 1.428 . S
C570 H562 0.949 . S
C570 C569 1.428 . S
C570 C571 1.345 . S
C571 H563 0.950 . S
C571 C570 1.345 . S
C571 C572 1.424 . S
C572 H564 0.951 . S
C572 C571 1.424 . S
C572 C573 1.347 . S
C573 H565 0.951 . S
C573 C568 1.429 . S
C573 C572 1.347 . S
H574 C575 0.951 . S
C575 H574 0.951 . S
C575 C581 1.265 . S
H576 C581 0.950 . S
H577 C585 0.949 . S
H578 C586 0.950 . S
H579 C587 0.951 . S
H580 C588 0.951 . S
C581 C575 1.265 . S
C581 H576 0.950 . S
C581 C582 1.478 . S
C582 C581 1.478 . S
C582 C583 1.397 . S
C582 C599 1.394 . S
C583 C582 1.397 . S
C583 C584 1.438 . S
C583 C588 1.429 . S
C584 C583 1.438 . S
C584 C585 1.428 . S
C584 C597 1.394 . S
C585 H577 0.949 . S
C585 C584 1.428 . S
C585 C586 1.345 . S
C586 H578 0.950 . S
C586 C585 1.345 . S
C586 C587 1.424 . S
C587 H579 0.951 . S
C587 C586 1.424 . S
C587 C588 1.347 . S
C588 H580 0.951 . S
C588 C583 1.429 . S
C588 C587 1.347 . S
H589 C590 0.951 . S
C590 H589 0.951 . S
C590 C596 1.265 . S
H591 C596 0.950 . S
H592 C600 0.949 . S
H593 C601 0.950 . S
H594 C602 0.951 . S
H595 C603 0.951 . S
C596 C590 1.265 . S
C596 H591 0.950 . S
C596 C597 1.478 . S
C597 C584 1.394 . S
C597 C596 1.478 . S
C597 C598 1.397 . S
C598 C597 1.397 . S
C598 C599 1.438 . S
C598 C603 1.429 . S
C599 C582 1.394 . S
C599 C598 1.438 . S
C599 C600 1.428 . S
C600 H592 0.949 . S
C600 C599 1.428 . S
C600 C601 1.345 . S
C601 H593 0.950 . S
C601 C600 1.345 . S
C601 C602 1.424 . S
C602 H594 0.951 . S
C602 C601 1.424 . S
C602 C603 1.347 . S
C603 H595 0.951 . S
C603 C598 1.429 . S
C603 C602 1.347 . S
H604 C605 0.951 . S
C605 H604 0.951 . S
C605 C611 1.265 . S
H606 C611 0.950 . S
H607 C615 0.949 . S
H608 C616 0.950 . S
H609 C617 0.951 . S
H610 C618 0.951 . S
C611 C605 1.265 . S
C611 H606 0.950 . S
C611 C612 1.478 . S
C612 C611 1.478 . S
C612 C613 1.397 . S
C612 C629 1.394 . S
C613 C612 1.397 . S
C613 C614 1.438 . S
C613 C618 1.429 . S
C614 C613 1.438 . S
C614 C615 1.428 . S
C614 C627 1.394 . S
C615 H607 0.949 . S
C615 C614 1.428 . S
C615 C616 1.345 . S
C616 H608 0.950 . S
C616 C615 1.345 . S
C616 C617 1.424 . S
C617 H609 0.951 . S
C617 C616 1.424 . S
C617 C618 1.347 . S
C618 H610 0.951 . S
C618 C613 1.429 . S
C618 C617 1.347 . S
H619 C620 0.951 . S
C620 H619 0.951 . S
C620 C626 1.265 . S
H621 C626 0.950 . S
H622 C630 0.949 . S
H623 C631 0.950 . S
H624 C632 0.951 . S
H625 C633 0.951 . S
C626 C620 1.265 . S
C626 H621 0.950 . S
C626 C627 1.478 . S
C627 C614 1.394 . S
C627 C626 1.478 . S
C627 C628 1.397 . S
C628 C627 1.397 . S
C628 C629 1.438 . S
C628 C633 1.429 . S
C629 C612 1.394 . S
C629 C628 1.438 . S
C629 C630 1.428 . S
C630 H622 0.949 . S
C630 C629 1.428 . S
C630 C631 1.345 . S
C631 H623 0.950 . S
C631 C630 1.345 . S
C631 C632 1.424 . S
C632 H624 0.951 . S
C632 C631 1.424 . S
C632 C633 1.347 . S
C633 H625 0.951 . S
C633 C628 1.429 . S
C633 C632 1.347 . S
H634 C635 0.951 . S
C635 H634 0.951 . S
C635 C641 1.265 . S
H636 C641 0.950 . S
H637 C645 0.949 . S
H638 C646 0.950 . S
H639 C647 0.951 . S
H640 C648 0.951 . S
C641 C635 1.265 . S
C641 H636 0.950 . S
C641 C642 1.478 . S
C642 C641 1.478 . S
C642 C643 1.397 . S
C642 C659 1.394 . S
C643 C642 1.397 . S
C643 C644 1.438 . S
C643 C648 1.429 . S
C644 C643 1.438 . S
C644 C645 1.428 . S
C644 C657 1.394 . S
C645 H637 0.949 . S
C645 C644 1.428 . S
C645 C646 1.345 . S
C646 H638 0.950 . S
C646 C645 1.345 . S
C646 C647 1.424 . S
C647 H639 0.951 . S
C647 C646 1.424 . S
C647 C648 1.347 . S
C648 H640 0.951 . S
C648 C643 1.429 . S
C648 C647 1.347 . S
H649 C650 0.951 . S
C650 H649 0.951 . S
C650 C656 1.265 . S
H651 C656 0.950 . S
H652 C660 0.949 . S
H653 C661 0.950 . S
H654 C662 0.951 . S
H655 C663 0.951 . S
C656 C650 1.265 . S
C656 H651 0.950 . S
C656 C657 1.478 . S
C657 C644 1.394 . S
C657 C656 1.478 . S
C657 C658 1.397 . S
C658 C657 1.397 . S
C658 C659 1.438 . S
C658 C663 1.429 . S
C659 C642 1.394 . S
C659 C658 1.438 . S
C659 C660 1.428 . S
C660 H652 0.949 . S
C660 C659 1.428 . S
C660 C661 1.345 . S
C661 H653 0.950 . S
C661 C660 1.345 . S
C661 C662 1.424 . S
C662 H654 0.951 . S
C662 C661 1.424 . S
C662 C663 1.347 . S
C663 H655 0.951 . S
C663 C658 1.429 . S
C663 C662 1.347 . S
C185 C7 1.440 . S
C200 N71 1.451 . S
C215 N2 1.433 . S
C230 N25 1.372 . S
C245 C62 1.535 . S
C260 C30 1.531 . S
C275 C76 1.553 . S
C290 N58 1.543 . S
C305 C16 1.420 . S
C320 N127 1.349 . S
C335 N12 1.422 . S
C350 N104 1.345 . S
C365 C108 1.570 . S
C380 C53 1.562 . S
C395 N48 1.567 . S
C410 C131 1.576 . S
C425 C154 1.402 . S
C440 N117 1.406 . S
C455 N94 1.336 . S
C470 N150 1.407 . S
C485 C99 1.583 . S
C500 C168 1.577 . S
C515 C122 1.569 . S
C530 N163 1.535 . S
C545 C145 1.452 . S
C560 N81 1.379 . S
C575 N35 1.425 . S
C590 N140 1.399 . S
C605 C39 1.525 . S
C620 C177 1.518 . S
C635 C85 1.544 . S
C650 N173 1.464 . S
