# Generated by pormake.
# Topology uof, (4)-cn, num edge types: 1
# Building blocks:
#     Node 0, Type 0, BuildingBlock: UXUYUI_clean_sbu_0, # of connection points: 4
#     Node 1, Type 0, BuildingBlock: UXUYUI_clean_sbu_0, # of connection points: 4
#     Node 2, Type 0, BuildingBlock: UXUYUI_clean_sbu_0, # of connection points: 4
#     Node 3, Type 0, BuildingBlock: UXUYUI_clean_sbu_0, # of connection points: 4
#     Node 4, Type 0, BuildingBlock: UXUYUI_clean_sbu_0, # of connection points: 4
#     Node 5, Type 0, BuildingBlock: UXUYUI_clean_sbu_0, # of connection points: 4
#     Node 6, Type 0, BuildingBlock: UXUYUI_clean_sbu_0, # of connection points: 4
#     Node 7, Type 0, BuildingBlock: UXUYUI_clean_sbu_0, # of connection points: 4
#     Node 8, Type 0, BuildingBlock: UXUYUI_clean_sbu_0, # of connection points: 4
#     Node 9, Type 0, BuildingBlock: UXUYUI_clean_sbu_0, # of connection points: 4
#     Node 10, Type 0, BuildingBlock: UXUYUI_clean_sbu_0, # of connection points: 4
#     Node 11, Type 0, BuildingBlock: UXUYUI_clean_sbu_0, # of connection points: 4
#     Edge 12, Type (0, 0), BuildingBlock: KIFKEQ_clean_linker_1, # of connection points: 2
#     Edge 13, Type (0, 0), BuildingBlock: KIFKEQ_clean_linker_1, # of connection points: 2
#     Edge 14, Type (0, 0), BuildingBlock: KIFKEQ_clean_linker_1, # of connection points: 2
#     Edge 15, Type (0, 0), BuildingBlock: KIFKEQ_clean_linker_1, # of connection points: 2
#     Edge 16, Type (0, 0), BuildingBlock: KIFKEQ_clean_linker_1, # of connection points: 2
#     Edge 17, Type (0, 0), BuildingBlock: KIFKEQ_clean_linker_1, # of connection points: 2
#     Edge 18, Type (0, 0), BuildingBlock: KIFKEQ_clean_linker_1, # of connection points: 2
#     Edge 19, Type (0, 0), BuildingBlock: KIFKEQ_clean_linker_1, # of connection points: 2
#     Edge 20, Type (0, 0), BuildingBlock: KIFKEQ_clean_linker_1, # of connection points: 2
#     Edge 21, Type (0, 0), BuildingBlock: KIFKEQ_clean_linker_1, # of connection points: 2
#     Edge 22, Type (0, 0), BuildingBlock: KIFKEQ_clean_linker_1, # of connection points: 2
#     Edge 23, Type (0, 0), BuildingBlock: KIFKEQ_clean_linker_1, # of connection points: 2
#     Edge 24, Type (0, 0), BuildingBlock: KIFKEQ_clean_linker_1, # of connection points: 2
#     Edge 25, Type (0, 0), BuildingBlock: KIFKEQ_clean_linker_1, # of connection points: 2
#     Edge 26, Type (0, 0), BuildingBlock: KIFKEQ_clean_linker_1, # of connection points: 2
#     Edge 27, Type (0, 0), BuildingBlock: KIFKEQ_clean_linker_1, # of connection points: 2
#     Edge 28, Type (0, 0), BuildingBlock: KIFKEQ_clean_linker_1, # of connection points: 2
#     Edge 29, Type (0, 0), BuildingBlock: KIFKEQ_clean_linker_1, # of connection points: 2
#     Edge 30, Type (0, 0), BuildingBlock: KIFKEQ_clean_linker_1, # of connection points: 2
#     Edge 31, Type (0, 0), BuildingBlock: KIFKEQ_clean_linker_1, # of connection points: 2
#     Edge 32, Type (0, 0), BuildingBlock: KIFKEQ_clean_linker_1, # of connection points: 2
#     Edge 33, Type (0, 0), BuildingBlock: KIFKEQ_clean_linker_1, # of connection points: 2
#     Edge 34, Type (0, 0), BuildingBlock: KIFKEQ_clean_linker_1, # of connection points: 2
#     Edge 35, Type (0, 0), BuildingBlock: KIFKEQ_clean_linker_1, # of connection points: 2
# Relax obj value: 0.353
# Max RMSD: 0.222
# Mean RMSD: 0.221
data_MOF--net-uof--node1-UXUYUI_clean_sbu_0--edge1-KIFKEQ_clean_linker_1
_symmetry_space_group_name_H-M    P1
_symmetry_Int_Tables_number       1
_symmetry_cell_setting            triclinic
loop_
_symmetry_equiv_pos_as_xyz
'x, y, z'
_cell_length_a     47.110936
_cell_length_b     47.113951
_cell_length_c     91.13282
_cell_angle_alpha  89.999194
_cell_angle_beta   90.000187
_cell_angle_gamma 120.01986
loop_
_atom_site_label
_atom_site_type_symbol
_atom_site_fract_x
_atom_site_fract_y
_atom_site_fract_z
_atom_type_partial_charge
Li0 Li 0.20717 0.33575 0.21463 0.0
Li1 Li 0.23314 0.33018 0.23763 0.0
Li2 Li 0.26699 0.36586 0.21702 0.0
Li3 Li 0.23644 0.30648 0.21443 0.0
C4 C 0.2347 0.39905 0.22566 0.0
N5 N 0.23459 0.45565 0.21783 0.0
C6 C 0.22785 0.41645 0.23614 0.0
C7 C 0.24154 0.41045 0.2112 0.0
C8 C 0.22791 0.44501 0.23196 0.0
C9 C 0.24134 0.43911 0.20746 0.0
C10 C 0.17918 0.26276 0.22358 0.0
C11 C 0.16701 0.20782 0.22932 0.0
N12 N 0.14632 0.19635 0.21763 0.0
C13 C 0.15778 0.25043 0.21163 0.0
C14 C 0.18384 0.24132 0.23252 0.0
C15 C 0.14138 0.21677 0.20881 0.0
C16 C 0.16964 0.34519 0.19276 0.0
N17 N 0.16888 0.33416 0.20662 0.0
C18 C 0.11052 0.30994 0.20746 0.0
C19 C 0.14022 0.31749 0.21414 0.0
C20 C 0.11028 0.31959 0.19287 0.0
C21 C 0.14052 0.33825 0.18567 0.0
H22 H 0.19272 0.3582 0.18699 0.0
H23 H 0.14026 0.30847 0.22506 0.0
C24 C 0.26205 0.34728 0.26512 0.0
N25 N 0.23377 0.32553 0.2583 0.0
C26 C 0.26871 0.34099 0.27928 0.0
C27 C 0.21593 0.29124 0.27956 0.0
C28 C 0.21029 0.29848 0.26534 0.0
C29 C 0.24603 0.31202 0.28648 0.0
H30 H 0.28042 0.36834 0.25916 0.0
H31 H 0.18813 0.28148 0.25959 0.0
C32 C 0.26029 0.34258 0.18843 0.0
N33 N 0.30112 0.34844 0.16541 0.0
C34 C 0.28657 0.33717 0.1907 0.0
C35 C 0.2547 0.35078 0.17441 0.0
C36 C 0.30694 0.34029 0.17894 0.0
C37 C 0.27564 0.35369 0.16292 0.0
C38 C 0.29433 0.32632 0.23399 0.0
C39 C 0.32663 0.34292 0.22885 0.0
C40 C 0.28585 0.30367 0.24542 0.0
C41 C 0.34989 0.33665 0.23525 0.0
C42 C 0.30982 0.29811 0.25154 0.0
N43 N 0.34108 0.31459 0.24638 0.0
C44 C 0.32631 0.41585 0.22705 0.0
C45 C 0.3241 0.4149 0.20109 0.0
C46 C 0.36007 0.43752 0.22676 0.0
N47 N 0.30933 0.40395 0.21434 0.0
C48 C 0.35798 0.43619 0.20028 0.0
C49 C 0.37671 0.44678 0.21324 0.0
H50 H 0.31394 0.40676 0.23744 0.0
H51 H 0.31014 0.40572 0.1911 0.0
C52 C 0.22343 0.26041 0.19217 0.0
N53 N 0.23671 0.26968 0.20579 0.0
C54 C 0.22313 0.23402 0.18512 0.0
C55 C 0.24944 0.22661 0.20638 0.0
C56 C 0.24931 0.25322 0.21299 0.0
C57 C 0.23641 0.21684 0.19222 0.0
H58 H 0.2131 0.27363 0.18678 0.0
H59 H 0.25888 0.26035 0.22392 0.0
O60 O 0.23458 0.37098 0.22961 0.0
O61 O 0.19622 0.29575 0.22624 0.0
O62 O 0.23975 0.33944 0.19973 0.0
O63 O 0.27147 0.33304 0.22819 0.0
H64 H 0.22252 0.40792 0.24737 0.0
H65 H 0.24697 0.39742 0.20293 0.0
H66 H 0.22263 0.45872 0.23996 0.0
H67 H 0.24657 0.44819 0.19632 0.0
H68 H 0.17056 0.19098 0.23609 0.0
H69 H 0.15424 0.2667 0.20446 0.0
H70 H 0.20076 0.25049 0.24164 0.0
H71 H 0.12488 0.2069 0.19955 0.0
H72 H 0.0879 0.29516 0.21341 0.0
H73 H 0.14164 0.34666 0.17451 0.0
H74 H 0.29198 0.35794 0.28431 0.0
H75 H 0.19783 0.26859 0.28468 0.0
H76 H 0.2912 0.33057 0.2014 0.0
H77 H 0.23441 0.3549 0.1724 0.0
H78 H 0.32737 0.33622 0.18058 0.0
H79 H 0.27163 0.3601 0.15203 0.0
H80 H 0.33378 0.36049 0.22 0.0
H81 H 0.26094 0.29019 0.24942 0.0
H82 H 0.37496 0.34938 0.23138 0.0
H83 H 0.30354 0.28066 0.26039 0.0
H84 H 0.37313 0.44576 0.23706 0.0
H85 H 0.36949 0.44258 0.18958 0.0
H86 H 0.21303 0.22745 0.17416 0.0
H87 H 0.25926 0.21359 0.21237 0.0
Li88 Li 0.87655 0.21001 0.54802 0.0
Li89 Li 0.90709 0.23896 0.57065 0.0
Li90 Li 0.90543 0.27167 0.54946 0.0
Li91 Li 0.93571 0.24272 0.54797 0.0
C92 C 0.83876 0.23702 0.55785 0.0
N93 N 0.78118 0.23461 0.54955 0.0
C94 C 0.8131 0.22716 0.56789 0.0
C95 C 0.83517 0.24572 0.54359 0.0
C96 C 0.78416 0.22606 0.56348 0.0
C97 C 0.80587 0.24435 0.53961 0.0
C98 C 0.92272 0.18905 0.56725 0.0
C99 C 0.96939 0.19356 0.58024 0.0
N100 N 0.95246 0.16073 0.58284 0.0
C101 C 0.90581 0.15535 0.56999 0.0
C102 C 0.95479 0.2083 0.57236 0.0
C103 C 0.92126 0.1415 0.57792 0.0
C104 C 0.85401 0.14922 0.53597 0.0
N105 N 0.84254 0.1695 0.53987 0.0
C106 C 0.78949 0.13139 0.53023 0.0
C107 C 0.81078 0.16103 0.53732 0.0
C108 C 0.80112 0.11047 0.52569 0.0
C109 C 0.83376 0.11961 0.52888 0.0
H110 H 0.87934 0.15649 0.53807 0.0
H111 H 0.80197 0.17731 0.54053 0.0
C112 C 0.92555 0.27093 0.59742 0.0
N113 N 0.91203 0.24046 0.59147 0.0
C114 C 0.93714 0.27648 0.61182 0.0
C115 C 0.91816 0.21863 0.61417 0.0
C116 C 0.90711 0.21423 0.59964 0.0
C117 C 0.93443 0.2503 0.6203 0.0
H118 H 0.92919 0.29136 0.59066 0.0
H119 H 0.89591 0.19014 0.59474 0.0
C120 C 0.9216 0.24609 0.52057 0.0
N121 N 0.95751 0.25111 0.49574 0.0
C122 C 0.94848 0.27626 0.5166 0.0
C123 C 0.91281 0.21854 0.51183 0.0
C124 C 0.96637 0.27828 0.50403 0.0
C125 C 0.93132 0.22156 0.49934 0.0
C126 C 0.97346 0.30413 0.56368 0.0
C127 C 0.98579 0.33184 0.55466 0.0
C128 C 0.99255 0.30369 0.57534 0.0
C129 C 0.01702 0.35842 0.55737 0.0
C130 C 0.02368 0.33076 0.57768 0.0
N131 N 0.03518 0.35733 0.56873 0.0
C132 C 0.91204 0.33212 0.55668 0.0
C133 C 0.91254 0.32382 0.53103 0.0
C134 C 0.92315 0.3654 0.55452 0.0
N135 N 0.90803 0.31242 0.54504 0.0
C136 C 0.92407 0.35706 0.52839 0.0
C137 C 0.93053 0.37847 0.54027 0.0
H138 H 0.90892 0.32246 0.5677 0.0
H139 H 0.90925 0.30761 0.52199 0.0
C140 C 0.96913 0.21338 0.53575 0.0
N141 N 0.97319 0.24296 0.53982 0.0
C142 C 0.99496 0.2113 0.5294 0.0
C143 C 0.02849 0.27023 0.53125 0.0
C144 C 0.0021 0.27113 0.53764 0.0
C145 C 0.02508 0.24002 0.52707 0.0
H146 H 0.94566 0.19141 0.53731 0.0
H147 H 0.00465 0.29441 0.54055 0.0
O148 O 0.86729 0.23844 0.56211 0.0
O149 O 0.90781 0.20296 0.55958 0.0
O150 O 0.90433 0.24343 0.53308 0.0
O151 O 0.94257 0.27809 0.56139 0.0
H152 H 0.81554 0.22043 0.57898 0.0
H153 H 0.85462 0.25323 0.53562 0.0
H154 H 0.76408 0.21844 0.57113 0.0
H155 H 0.80273 0.25095 0.5286 0.0
H156 H 0.99421 0.2082 0.58426 0.0
H157 H 0.88094 0.14009 0.56611 0.0
H158 H 0.96831 0.23428 0.57016 0.0
H159 H 0.90843 0.11546 0.58017 0.0
H160 H 0.76453 0.12537 0.52798 0.0
H161 H 0.84369 0.10407 0.52588 0.0
H162 H 0.94974 0.30138 0.61592 0.0
H163 H 0.91481 0.19757 0.62037 0.0
H164 H 0.95592 0.29775 0.52333 0.0
H165 H 0.892 0.19505 0.51467 0.0
H166 H 0.98742 0.30141 0.50092 0.0
H167 H 0.92487 0.20039 0.49252 0.0
H168 H 0.97171 0.33273 0.54552 0.0
H169 H 0.98346 0.2828 0.58261 0.0
H170 H 0.02686 0.37989 0.55042 0.0
H171 H 0.03867 0.33068 0.58666 0.0
H172 H 0.92808 0.38112 0.56398 0.0
H173 H 0.92917 0.36618 0.51723 0.0
H174 H 0.99123 0.18758 0.52611 0.0
H175 H 0.05138 0.29292 0.52965 0.0
Li176 Li 0.66767 0.90433 0.90448 0.0
Li177 Li 0.6622 0.87181 0.88304 0.0
Li178 Li 0.69159 0.93022 0.88052 0.0
Li179 Li 0.6296 0.89865 0.8832 0.0
C180 C 0.72518 0.90179 0.90186 0.0
N181 N 0.77066 0.89797 0.91964 0.0
C182 C 0.72039 0.87124 0.90622 0.0
C183 C 0.75314 0.93038 0.90651 0.0
C184 C 0.74369 0.86983 0.9152 0.0
C185 C 0.77581 0.92794 0.91552 0.0
C186 C 0.60931 0.83169 0.89913 0.0
C187 C 0.56206 0.77909 0.89384 0.0
N188 N 0.57424 0.76453 0.90274 0.0
C189 C 0.62123 0.81631 0.90833 0.0
C190 C 0.57942 0.81306 0.89188 0.0
C191 C 0.6032 0.78227 0.90995 0.0
C192 C 0.6584 0.93102 0.92988 0.0
N193 N 0.67294 0.91403 0.9251 0.0
C194 C 0.69935 0.92123 0.94834 0.0
C195 C 0.69223 0.90799 0.93419 0.0
C196 C 0.68622 0.94058 0.95324 0.0
C197 C 0.66479 0.94466 0.94391 0.0
H198 H 0.64283 0.93519 0.92253 0.0
H199 H 0.70289 0.89373 0.93041 0.0
C200 C 0.69931 0.84851 0.87093 0.0
N201 N 0.66765 0.83665 0.87511 0.0
C202 C 0.70914 0.82828 0.86429 0.0
C203 C 0.65339 0.78348 0.86578 0.0
C204 C 0.64455 0.8048 0.8725 0.0
C205 C 0.68623 0.79518 0.86171 0.0
H206 H 0.71701 0.87416 0.87248 0.0
H207 H 0.61927 0.79599 0.87534 0.0
C208 C 0.67715 0.97107 0.89665 0.0
N209 N 0.70549 0.0373 0.90235 0.0
C210 C 0.66178 0.9883 0.89198 0.0
C211 C 0.70683 0.98743 0.90426 0.0
C212 C 0.67653 0.02181 0.89496 0.0
C213 C 0.7208 0.02095 0.90702 0.0
C214 C 0.65192 0.87902 0.85521 0.0
C215 C 0.6779 0.88461 0.84598 0.0
C216 C 0.62057 0.85261 0.85251 0.0
C217 C 0.67212 0.86326 0.83426 0.0
C218 C 0.61579 0.83185 0.84067 0.0
N219 N 0.64146 0.83753 0.83188 0.0
C220 C 0.75556 0.96591 0.87021 0.0
C221 C 0.72358 0.991 0.8656 0.0
C222 C 0.78262 0.99171 0.86337 0.0
N223 N 0.72698 0.96623 0.8713 0.0
C224 C 0.75007 0.0174 0.8587 0.0
C225 C 0.78007 0.01794 0.85754 0.0
H226 H 0.75726 0.9455 0.8746 0.0
H227 H 0.70026 0.99014 0.86632 0.0
C228 C 0.57198 0.89947 0.89005 0.0
N229 N 0.59315 0.90381 0.87901 0.0
C230 C 0.55065 0.91187 0.88875 0.0
C231 C 0.57234 0.93159 0.86449 0.0
C232 C 0.59322 0.91876 0.86625 0.0
C233 C 0.55146 0.92922 0.87604 0.0
H234 H 0.57316 0.88826 0.90022 0.0
H235 H 0.61112 0.92278 0.85787 0.0
O236 O 0.70291 0.90374 0.89291 0.0
O237 O 0.62636 0.86495 0.89753 0.0
O238 O 0.66322 0.93832 0.89373 0.0
O239 O 0.65727 0.89895 0.86701 0.0
H240 H 0.69888 0.84884 0.90277 0.0
H241 H 0.75731 0.95422 0.90319 0.0
H242 H 0.74028 0.84637 0.91868 0.0
H243 H 0.79751 0.94987 0.91923 0.0
H244 H 0.53893 0.7643 0.88828 0.0
H245 H 0.64413 0.83053 0.91416 0.0
H246 H 0.56978 0.82474 0.88483 0.0
H247 H 0.61218 0.76997 0.91698 0.0
H248 H 0.71541 0.91682 0.95528 0.0
H249 H 0.6542 0.95948 0.94715 0.0
H250 H 0.73447 0.83877 0.86091 0.0
H251 H 0.63484 0.7582 0.86385 0.0
H252 H 0.63875 0.97594 0.8861 0.0
H253 H 0.71894 0.97436 0.90796 0.0
H254 H 0.66497 0.03551 0.8914 0.0
H255 H 0.7438 0.03396 0.91288 0.0
H256 H 0.70232 0.90496 0.84797 0.0
H257 H 0.60026 0.84802 0.85959 0.0
H258 H 0.69202 0.86708 0.82709 0.0
H259 H 0.59171 0.81115 0.83849 0.0
H260 H 0.80536 0.99128 0.8628 0.0
H261 H 0.74696 0.03689 0.85413 0.0
H262 H 0.53469 0.90911 0.89786 0.0
H263 H 0.57418 0.94513 0.8546 0.0
Li264 Li 0.79334 0.67186 0.21548 0.0
Li265 Li 0.76478 0.67532 0.23802 0.0
Li266 Li 0.73381 0.64144 0.21721 0.0
Li267 Li 0.76282 0.69943 0.21488 0.0
C268 C 0.78471 0.62815 0.23834 0.0
N269 N 0.82395 0.61327 0.25545 0.0
C270 C 0.81146 0.65298 0.2459 0.0
C271 C 0.77794 0.59578 0.23949 0.0
C272 C 0.83097 0.64495 0.2545 0.0
C273 C 0.79808 0.58875 0.24819 0.0
C274 C 0.8165 0.74404 0.22744 0.0
C275 C 0.81897 0.79334 0.23648 0.0
N276 N 0.84427 0.81142 0.22717 0.0
C277 C 0.84262 0.76311 0.21801 0.0
C278 C 0.80462 0.75925 0.23679 0.0
C279 C 0.85629 0.79714 0.21803 0.0
C280 C 0.8404 0.69575 0.19435 0.0
N281 N 0.83271 0.67687 0.2066 0.0
C282 C 0.88284 0.6756 0.20454 0.0
C283 C 0.85292 0.66614 0.21165 0.0
C284 C 0.89185 0.6962 0.19215 0.0
C285 C 0.86962 0.70544 0.1869 0.0
H286 H 0.82415 0.70422 0.19059 0.0
H287 H 0.84645 0.65107 0.22138 0.0
C288 C 0.73286 0.66048 0.26481 0.0
N289 N 0.76278 0.67977 0.25869 0.0
C290 C 0.72658 0.66618 0.27915 0.0
C291 C 0.78278 0.71014 0.28099 0.0
C292 C 0.78787 0.70378 0.26652 0.0
C293 C 0.75148 0.69185 0.28737 0.0
H294 H 0.71337 0.64168 0.25827 0.0
H295 H 0.81141 0.71894 0.26134 0.0
C296 C 0.75947 0.64676 0.18959 0.0
N297 N 0.75693 0.60496 0.16771 0.0
C298 C 0.75746 0.65397 0.17489 0.0
C299 C 0.76022 0.61829 0.19318 0.0
C300 C 0.75618 0.63253 0.16399 0.0
C301 C 0.7589 0.59747 0.18195 0.0
C302 C 0.69681 0.6695 0.22458 0.0
C303 C 0.68969 0.67242 0.20994 0.0
C304 C 0.67278 0.66146 0.23532 0.0
C305 C 0.65862 0.66714 0.2063 0.0
C306 C 0.64198 0.65635 0.23122 0.0
N307 N 0.63559 0.65925 0.21692 0.0
C308 C 0.67516 0.58433 0.2244 0.0
C309 C 0.6774 0.60217 0.19988 0.0
C310 C 0.64136 0.56298 0.22323 0.0
N311 N 0.6922 0.60397 0.21294 0.0
C312 C 0.64363 0.58154 0.19831 0.0
C313 C 0.62505 0.56243 0.21024 0.0
H314 H 0.68736 0.58703 0.23479 0.0
H315 H 0.69119 0.61876 0.19109 0.0
C316 C 0.77957 0.74767 0.19354 0.0
N317 N 0.76308 0.73615 0.20637 0.0
C318 C 0.7813 0.77512 0.18689 0.0
C319 C 0.7488 0.77808 0.20675 0.0
C320 C 0.74791 0.75071 0.21307 0.0
C321 C 0.76568 0.79064 0.19347 0.0
H322 H 0.79165 0.73567 0.18859 0.0
H323 H 0.73523 0.74112 0.22336 0.0
O324 O 0.76494 0.63515 0.22992 0.0
O325 O 0.80218 0.71063 0.22731 0.0
O326 O 0.76088 0.66779 0.20031 0.0
O327 O 0.72674 0.67348 0.22836 0.0
H328 H 0.81735 0.6782 0.24506 0.0
H329 H 0.75731 0.57629 0.23371 0.0
H330 H 0.85177 0.66392 0.26039 0.0
H331 H 0.79313 0.5638 0.24916 0.0
H332 H 0.80985 0.80541 0.24357 0.0
H333 H 0.85215 0.75178 0.21072 0.0
H334 H 0.78409 0.74483 0.24399 0.0
H335 H 0.87643 0.81219 0.21074 0.0
H336 H 0.89919 0.66786 0.209 0.0
H337 H 0.87494 0.72058 0.17721 0.0
H338 H 0.70196 0.65163 0.28343 0.0
H339 H 0.80293 0.72974 0.28695 0.0
H340 H 0.75691 0.67596 0.17195 0.0
H341 H 0.76183 0.61223 0.20446 0.0
H342 H 0.75462 0.63781 0.15256 0.0
H343 H 0.75947 0.57536 0.18456 0.0
H344 H 0.70775 0.67811 0.20143 0.0
H345 H 0.67777 0.65905 0.24669 0.0
H346 H 0.65275 0.6691 0.195 0.0
H347 H 0.62313 0.65001 0.23942 0.0
H348 H 0.62782 0.54888 0.23272 0.0
H349 H 0.63191 0.58172 0.18811 0.0
H350 H 0.79505 0.78428 0.17679 0.0
H351 H 0.73608 0.78901 0.21212 0.0
Li352 Li 0.12927 0.79479 0.54589 0.0
Li353 Li 0.09641 0.76842 0.56731 0.0
Li354 Li 0.09843 0.73486 0.54562 0.0
Li355 Li 0.07079 0.7688 0.54381 0.0
C356 C 0.16608 0.77801 0.56336 0.0
N357 N 0.23146 0.80673 0.5709 0.0
C358 C 0.17931 0.80303 0.57381 0.0
C359 C 0.1859 0.76725 0.55686 0.0
C360 C 0.21249 0.81737 0.57743 0.0
C361 C 0.21895 0.78216 0.56081 0.0
C362 C 0.10546 0.83099 0.56568 0.0
C363 C 0.08592 0.85865 0.58147 0.0
N364 N 0.11744 0.88146 0.58471 0.0
C365 C 0.13768 0.85475 0.56914 0.0
C366 C 0.07936 0.833 0.57185 0.0
C367 C 0.14321 0.88006 0.57878 0.0
C368 C 0.1554 0.85285 0.53144 0.0
N369 N 0.16601 0.83376 0.53784 0.0
C370 C 0.22119 0.87149 0.53043 0.0
C371 C 0.19827 0.84245 0.53747 0.0
C372 C 0.21051 0.89111 0.52346 0.0
C373 C 0.17718 0.88149 0.52408 0.0
H374 H 0.12964 0.84537 0.53183 0.0
H375 H 0.2063 0.82688 0.54242 0.0
C376 C 0.0685 0.73241 0.59242 0.0
N377 N 0.08787 0.76398 0.58802 0.0
C378 C 0.05577 0.72533 0.60661 0.0
C379 C 0.08494 0.78331 0.61195 0.0
C380 C 0.09712 0.78929 0.59758 0.0
C381 C 0.06331 0.75097 0.61652 0.0
H382 H 0.06186 0.71264 0.58471 0.0
H383 H 0.11324 0.81414 0.59406 0.0
C384 C 0.12044 0.77547 0.51796 0.0
N385 N 0.16259 0.80021 0.49434 0.0
C386 C 0.11614 0.79459 0.50745 0.0
C387 C 0.1459 0.76861 0.5164 0.0
C388 C 0.1378 0.80697 0.4956 0.0
C389 C 0.16702 0.78142 0.50439 0.0
C390 C 0.02736 0.7152 0.55918 0.0
C391 C 0.00737 0.68372 0.55355 0.0
C392 C 0.01339 0.73042 0.56719 0.0
C393 C 0.97357 0.66805 0.55594 0.0
C394 C 0.97949 0.71394 0.56934 0.0
N395 N 0.96045 0.68336 0.56371 0.0
C396 C 0.09746 0.67477 0.55004 0.0
C397 C 0.0712 0.67858 0.52854 0.0
C398 C 0.08371 0.64096 0.54801 0.0
N399 N 0.09038 0.69255 0.54051 0.0
C400 C 0.05671 0.64488 0.52617 0.0
C401 C 0.06209 0.62547 0.53623 0.0
H402 H 0.11206 0.68644 0.55969 0.0
H403 H 0.06537 0.69327 0.52138 0.0
C404 C 0.03231 0.79681 0.53629 0.0
N405 N 0.03509 0.76958 0.53505 0.0
C406 C 0.00556 0.79743 0.5301 0.0
C407 C 0.98549 0.74217 0.52127 0.0
C408 C 0.0127 0.7427 0.52757 0.0
C409 C 0.98163 0.76976 0.52255 0.0
H410 H 0.05085 0.81802 0.54209 0.0
H411 H 0.016 0.72165 0.52656 0.0
O412 O 0.13365 0.76349 0.55977 0.0
O413 O 0.09944 0.80618 0.55614 0.0
O414 O 0.10025 0.76409 0.5299 0.0
O415 O 0.06044 0.73119 0.55676 0.0
H416 H 0.16409 0.81121 0.57909 0.0
H417 H 0.17586 0.74766 0.54885 0.0
H418 H 0.22314 0.83689 0.58545 0.0
H419 H 0.23466 0.77421 0.55584 0.0
H420 H 0.06595 0.86043 0.58637 0.0
H421 H 0.15822 0.85363 0.56451 0.0
H422 H 0.05427 0.81485 0.56931 0.0
H423 H 0.16801 0.89856 0.58158 0.0
H424 H 0.24677 0.87816 0.53014 0.0
H425 H 0.16804 0.89612 0.51899 0.0
H426 H 0.03907 0.70004 0.60955 0.0
H427 H 0.09201 0.80381 0.61932 0.0
H428 H 0.09653 0.80013 0.50855 0.0
H429 H 0.1495 0.75386 0.52448 0.0
H430 H 0.13497 0.82204 0.48743 0.0
H431 H 0.18699 0.77653 0.50309 0.0
H432 H 0.01782 0.67158 0.54735 0.0
H433 H 0.02858 0.75477 0.57163 0.0
H434 H 0.95777 0.64371 0.55161 0.0
H435 H 0.96832 0.72546 0.57548 0.0
H436 H 0.08819 0.62681 0.5561 0.0
H437 H 0.04037 0.63391 0.51692 0.0
H438 H 0.00339 0.81912 0.53139 0.0
H439 H 0.96789 0.72058 0.51531 0.0
Li440 Li 0.32503 0.09144 0.90009 0.0
Li441 Li 0.32968 0.12477 0.8774 0.0
Li442 Li 0.2997 0.06486 0.87645 0.0
Li443 Li 0.3587 0.09382 0.87879 0.0
C444 C 0.25683 0.07865 0.88786 0.0
N445 N 0.18951 0.04515 0.88457 0.0
C446 C 0.24183 0.09112 0.87873 0.0
C447 C 0.2376 0.04926 0.8954 0.0
C448 C 0.20775 0.0738 0.87721 0.0
C449 C 0.20361 0.03264 0.89356 0.0
C450 C 0.39083 0.16177 0.89033 0.0
C451 C 0.43804 0.20221 0.877 0.0
N452 N 0.4422 0.22516 0.88715 0.0
C453 C 0.39571 0.18565 0.9007 0.0
C454 C 0.41226 0.16999 0.87845 0.0
C455 C 0.42177 0.2176 0.89887 0.0
C456 C 0.3447 0.08252 0.92771 0.0
N457 N 0.32082 0.08547 0.92074 0.0
C458 C 0.28704 0.0673 0.94217 0.0
C459 C 0.29279 0.07913 0.92777 0.0
C460 C 0.31035 0.06188 0.94933 0.0
C461 C 0.33996 0.07069 0.94207 0.0
H462 H 0.36673 0.08772 0.92182 0.0
H463 H 0.27417 0.08165 0.92196 0.0
C464 C 0.31397 0.15499 0.85544 0.0
N465 N 0.3273 0.16096 0.8691 0.0
C466 C 0.30783 0.1777 0.84847 0.0
C467 C 0.32893 0.21261 0.86978 0.0
C468 C 0.33487 0.18913 0.87636 0.0
C469 C 0.31504 0.20691 0.85565 0.0
H470 H 0.30691 0.1319 0.85011 0.0
H471 H 0.34463 0.19301 0.88737 0.0
C472 C 0.33418 0.03126 0.88825 0.0
N473 N 0.35474 0.98614 0.88438 0.0
C474 C 0.33152 0.01696 0.8745 0.0
C475 C 0.34706 0.0224 0.90006 0.0
C476 C 0.34209 0.99425 0.87276 0.0
C477 C 0.35737 0.99959 0.89787 0.0
C478 C 0.34286 0.09845 0.84856 0.0
C479 C 0.32987 0.07109 0.83932 0.0
C480 C 0.36685 0.12896 0.84323 0.0
C481 C 0.3416 0.07461 0.82497 0.0
C482 C 0.37791 0.13147 0.82881 0.0
N483 N 0.36519 0.10446 0.82006 0.0
C484 C 0.24808 0.03446 0.85636 0.0
C485 C 0.25137 0.99822 0.87342 0.0
C486 C 0.2205 0.00857 0.84984 0.0
N487 N 0.26284 0.02879 0.86787 0.0
C488 C 0.2242 0.97153 0.86709 0.0
C489 C 0.20832 0.97648 0.85512 0.0
H490 H 0.25766 0.0592 0.85232 0.0
H491 H 0.26335 0.99456 0.88274 0.0
C492 C 0.41397 0.09014 0.88665 0.0
N493 N 0.39613 0.08906 0.87471 0.0
C494 C 0.43511 0.07741 0.88591 0.0
C495 C 0.421 0.06494 0.86032 0.0
C496 C 0.40012 0.07785 0.86156 0.0
C497 C 0.43784 0.0634 0.87275 0.0
H498 H 0.40973 0.09842 0.89706 0.0
H499 H 0.38537 0.07649 0.85228 0.0
O500 O 0.29023 0.09476 0.88917 0.0
O501 O 0.36528 0.13046 0.89192 0.0
O502 O 0.32519 0.05457 0.89001 0.0
O503 O 0.33146 0.09546 0.8626 0.0
H504 H 0.25633 0.11382 0.87283 0.0
H505 H 0.24888 0.03904 0.90234 0.0
H506 H 0.1958 0.08309 0.87013 0.0
H507 H 0.18845 0.00972 0.89921 0.0
H508 H 0.45476 0.20895 0.86783 0.0
H509 H 0.37937 0.17958 0.91 0.0
H510 H 0.40912 0.15171 0.87045 0.0
H511 H 0.42574 0.2364 0.90676 0.0
H512 H 0.26383 0.06073 0.94731 0.0
H513 H 0.35883 0.06746 0.94727 0.0
H514 H 0.29629 0.17174 0.83777 0.0
H515 H 0.33481 0.23477 0.87575 0.0
H516 H 0.32193 0.02377 0.86522 0.0
H517 H 0.34933 0.03318 0.91077 0.0
H518 H 0.34045 0.98324 0.86215 0.0
H519 H 0.36757 0.99267 0.90689 0.0
H520 H 0.31106 0.04735 0.84321 0.0
H521 H 0.37659 0.15054 0.85009 0.0
H522 H 0.33191 0.05361 0.81774 0.0
H523 H 0.39651 0.15491 0.82455 0.0
H524 H 0.20874 0.01374 0.84085 0.0
H525 H 0.21607 0.94727 0.87144 0.0
H526 H 0.44733 0.07646 0.8958 0.0
H527 H 0.42273 0.05483 0.84991 0.0
Li528 Li 0.69372 0.76317 0.45489 0.0
Li529 Li 0.63431 0.73189 0.45318 0.0
Li530 Li 0.66811 0.76512 0.43201 0.0
Li531 Li 0.66386 0.79184 0.4552 0.0
C532 C 0.67411 0.70461 0.43637 0.0
N533 N 0.68766 0.65794 0.42538 0.0
C534 C 0.65953 0.67331 0.44261 0.0
C535 C 0.69555 0.71207 0.4245 0.0
C536 C 0.66673 0.6501 0.43692 0.0
C537 C 0.70209 0.68818 0.41912 0.0
C538 C 0.65896 0.74033 0.4816 0.0
C539 C 0.64689 0.72591 0.50715 0.0
N540 N 0.65327 0.70102 0.50522 0.0
C541 C 0.66543 0.71462 0.47989 0.0
C542 C 0.64964 0.74607 0.49534 0.0
C543 C 0.66242 0.69502 0.49195 0.0
C544 C 0.74173 0.77888 0.47646 0.0
N545 N 0.73159 0.76437 0.46311 0.0
C546 C 0.77539 0.75274 0.46223 0.0
C547 C 0.748 0.75175 0.45589 0.0
C548 C 0.78604 0.76698 0.47613 0.0
C549 C 0.769 0.7804 0.48323 0.0
H550 H 0.72852 0.78922 0.48186 0.0
H551 H 0.74024 0.7413 0.44514 0.0
C552 C 0.58536 0.67079 0.44445 0.0
N553 N 0.59683 0.68967 0.45668 0.0
C554 C 0.56342 0.6372 0.44562 0.0
C555 C 0.5638 0.64335 0.47195 0.0
C556 C 0.58552 0.67697 0.47025 0.0
C557 C 0.55327 0.62287 0.45954 0.0
H558 H 0.59497 0.68149 0.43381 0.0
H559 H 0.59446 0.69245 0.47983 0.0
C560 C 0.73624 0.82006 0.44442 0.0
N561 N 0.80347 0.85359 0.44807 0.0
C562 C 0.75058 0.84334 0.45559 0.0
C563 C 0.75609 0.81397 0.43505 0.0
C564 C 0.78463 0.86001 0.45726 0.0
C565 C 0.79003 0.83114 0.43709 0.0
C566 C 0.59953 0.7629 0.445 0.0
C567 C 0.57958 0.766 0.43453 0.0
C568 C 0.5906 0.75925 0.4598 0.0
C569 C 0.55095 0.76541 0.43906 0.0
C570 C 0.56178 0.75876 0.46389 0.0
N571 N 0.54272 0.76183 0.45352 0.0
C572 C 0.65128 0.73426 0.40495 0.0
C573 C 0.69685 0.78825 0.40375 0.0
C574 C 0.65765 0.72758 0.3908 0.0
N575 N 0.67155 0.76373 0.41129 0.0
C576 C 0.70388 0.78273 0.38946 0.0
C577 C 0.6849 0.75162 0.38308 0.0
H578 H 0.63166 0.71511 0.41131 0.0
H579 H 0.71281 0.8113 0.40914 0.0
C580 C 0.67569 0.83597 0.47785 0.0
N581 N 0.66584 0.82991 0.46362 0.0
C582 C 0.68314 0.86566 0.48442 0.0
C583 C 0.6692 0.88219 0.4617 0.0
C584 C 0.66199 0.85203 0.45555 0.0
C585 C 0.68061 0.88963 0.47627 0.0
H586 H 0.67945 0.81838 0.48389 0.0
H587 H 0.65456 0.84678 0.44418 0.0
O588 O 0.66653 0.72737 0.44151 0.0
O589 O 0.66161 0.75986 0.46995 0.0
O590 O 0.7029 0.80276 0.4429 0.0
O591 O 0.62766 0.76355 0.44069 0.0
H592 H 0.64274 0.66688 0.45174 0.0
H593 H 0.70742 0.73621 0.41961 0.0
H594 H 0.6556 0.62581 0.44166 0.0
H595 H 0.71867 0.6937 0.40997 0.0
H596 H 0.63962 0.73003 0.51784 0.0
H597 H 0.67281 0.7099 0.46939 0.0
H598 H 0.64436 0.76574 0.49686 0.0
H599 H 0.66736 0.67505 0.49076 0.0
H600 H 0.78829 0.74279 0.45624 0.0
H601 H 0.77631 0.79148 0.49399 0.0
H602 H 0.55614 0.62233 0.43577 0.0
H603 H 0.55611 0.63333 0.48287 0.0
H604 H 0.73558 0.84826 0.46297 0.0
H605 H 0.74537 0.79576 0.42647 0.0
H606 H 0.79605 0.87796 0.46591 0.0
H607 H 0.80567 0.8265 0.43 0.0
H608 H 0.58618 0.76886 0.42302 0.0
H609 H 0.60566 0.75679 0.46808 0.0
H610 H 0.53527 0.76779 0.43108 0.0
H611 H 0.55457 0.75595 0.4753 0.0
H612 H 0.6423 0.70339 0.38619 0.0
H613 H 0.72518 0.80183 0.38386 0.0
H614 H 0.69247 0.87039 0.49554 0.0
H615 H 0.66662 0.89977 0.45502 0.0
Li616 Li 0.9294 0.69364 0.78383 0.0
Li617 Li 0.89852 0.63459 0.78131 0.0
Li618 Li 0.90285 0.6712 0.76049 0.0
Li619 Li 0.8711 0.66843 0.78344 0.0
C620 C 0.96666 0.67033 0.76613 0.0
N621 N 0.02666 0.67842 0.75766 0.0
C622 C 0.97982 0.65332 0.77336 0.0
C623 C 0.98406 0.69137 0.75454 0.0
C624 C 0.01017 0.65778 0.76893 0.0
C625 C 0.01433 0.69514 0.75044 0.0
C626 C 0.91551 0.66899 0.81088 0.0
C627 C 0.92385 0.68763 0.836 0.0
N628 N 0.95221 0.68666 0.83638 0.0
C629 C 0.94452 0.66778 0.8116 0.0
C630 C 0.90489 0.67868 0.82323 0.0
C631 C 0.96282 0.67697 0.82455 0.0
C632 C 0.96061 0.75019 0.80099 0.0
N633 N 0.9667 0.72959 0.79288 0.0
C634 C 0.02374 0.76067 0.79864 0.0
C635 C 0.99751 0.7342 0.79167 0.0
C636 C 0.01815 0.78269 0.80675 0.0
C637 C 0.98617 0.7773 0.8079 0.0
H638 H 0.9358 0.74553 0.80206 0.0
H639 H 0.00186 0.71734 0.78545 0.0
C640 C 0.90449 0.58123 0.77292 0.0
N641 N 0.90016 0.59575 0.78493 0.0
C642 C 0.91559 0.55892 0.7745 0.0
C643 C 0.91546 0.56532 0.80081 0.0
C644 C 0.90412 0.58736 0.79873 0.0
C645 C 0.92251 0.55175 0.78857 0.0
H646 H 0.90183 0.58898 0.76208 0.0
H647 H 0.9006 0.59935 0.80809 0.0
C648 C 0.92031 0.74018 0.7706 0.0
N649 N 0.95695 0.80773 0.76878 0.0
C650 C 0.90796 0.75946 0.77622 0.0
C651 C 0.9511 0.75528 0.76388 0.0
C652 C 0.92691 0.79357 0.77524 0.0
C653 C 0.96931 0.78945 0.76312 0.0
C654 C 0.83252 0.60482 0.77214 0.0
C655 C 0.80892 0.58836 0.7613 0.0
C656 C 0.82604 0.59355 0.78663 0.0
C657 C 0.7791 0.56086 0.76513 0.0
C658 C 0.79594 0.56597 0.79002 0.0
N659 N 0.77329 0.55034 0.77929 0.0
C660 C 0.91578 0.65408 0.73325 0.0
C661 C 0.9141 0.70355 0.73286 0.0
C662 C 0.92931 0.66025 0.71919 0.0
N663 N 0.90948 0.67613 0.73992 0.0
C664 C 0.92747 0.71063 0.71873 0.0
C665 C 0.93634 0.68938 0.71194 0.0
H666 H 0.91237 0.63278 0.73926 0.0
H667 H 0.9093 0.72088 0.73851 0.0
C668 C 0.84981 0.69849 0.80208 0.0
N669 N 0.83724 0.67431 0.79187 0.0
C670 C 0.8299 0.7082 0.80914 0.0
C671 C 0.7838 0.66782 0.79512 0.0
C672 C 0.80482 0.65869 0.78831 0.0
C673 C 0.79648 0.69331 0.80556 0.0
H674 H 0.87572 0.71081 0.8045 0.0
H675 H 0.79539 0.63969 0.78003 0.0
O676 O 0.93673 0.66597 0.77021 0.0
O677 O 0.89765 0.66074 0.79815 0.0
O678 O 0.90237 0.70673 0.77172 0.0
O679 O 0.86169 0.63191 0.76853 0.0
H680 H 0.96689 0.63689 0.78233 0.0
H681 H 0.97435 0.70459 0.7487 0.0
H682 H 0.02061 0.64479 0.77446 0.0
H683 H 0.02798 0.71132 0.74148 0.0
H684 H 0.91597 0.69528 0.84562 0.0
H685 H 0.95307 0.66033 0.80217 0.0
H686 H 0.88214 0.67904 0.82305 0.0
H687 H 0.98549 0.67646 0.82519 0.0
H688 H 0.04819 0.76416 0.79756 0.0
H689 H 0.98098 0.79363 0.81424 0.0
H690 H 0.92098 0.54931 0.76476 0.0
H691 H 0.92007 0.56009 0.81185 0.0
H692 H 0.88401 0.74825 0.78128 0.0
H693 H 0.96102 0.74077 0.7595 0.0
H694 H 0.91771 0.80878 0.7796 0.0
H695 H 0.99331 0.80142 0.75807 0.0
H696 H 0.81358 0.59681 0.75004 0.0
H697 H 0.84396 0.60589 0.79518 0.0
H698 H 0.76059 0.5479 0.75685 0.0
H699 H 0.79058 0.55699 0.80118 0.0
H700 H 0.93539 0.64304 0.71428 0.0
H701 H 0.93268 0.73343 0.71356 0.0
H702 H 0.84078 0.72744 0.81731 0.0
H703 H 0.75822 0.65575 0.79196 0.0
Li704 Li 0.23872 0.93835 0.11993 0.0
Li705 Li 0.26883 0.90662 0.11908 0.0
Li706 Li 0.23913 0.91247 0.09666 0.0
Li707 Li 0.2092 0.87999 0.11764 0.0
C708 C 0.2965 0.97977 0.10733 0.0
N709 N 0.3355 0.0472 0.10661 0.0
C710 C 0.32649 0.99513 0.11475 0.0
C711 C 0.28651 0.99867 0.09943 0.0
C712 C 0.34582 0.02926 0.11428 0.0
C713 C 0.30652 0.03273 0.09924 0.0
C714 C 0.22375 0.8875 0.14588 0.0
C715 C 0.21252 0.84173 0.16147 0.0
N716 N 0.19042 0.84655 0.16906 0.0
C717 C 0.20117 0.89223 0.1539 0.0
C718 C 0.22967 0.86222 0.14971 0.0
C719 C 0.18446 0.87116 0.16556 0.0
C720 C 0.21312 0.97907 0.12686 0.0
N721 N 0.23924 0.97467 0.1288 0.0
C722 C 0.26558 0.02184 0.14421 0.0
C723 C 0.26503 0.99506 0.1374 0.0
C724 C 0.23903 0.02717 0.14231 0.0
C725 C 0.21252 0.00537 0.13354 0.0
H726 H 0.19261 0.96197 0.12025 0.0
H727 H 0.28503 0.99035 0.13906 0.0
C728 C 0.32746 0.90588 0.11463 0.0
N729 N 0.30936 0.91079 0.12485 0.0
C730 C 0.36087 0.91785 0.11699 0.0
C731 C 0.35592 0.9384 0.1406 0.0
C732 C 0.32253 0.92575 0.13785 0.0
C733 C 0.37575 0.93549 0.12988 0.0
H734 H 0.31648 0.89476 0.10422 0.0
H735 H 0.30769 0.93009 0.14559 0.0
C736 C 0.18086 0.91094 0.09624 0.0
N737 N 0.13839 0.90888 0.07479 0.0
C738 C 0.15444 0.88088 0.09177 0.0
C739 C 0.18555 0.93994 0.08984 0.0
C740 C 0.13324 0.88037 0.08092 0.0
C741 C 0.16388 0.93838 0.07898 0.0
C742 C 0.22326 0.83957 0.10291 0.0
C743 C 0.19627 0.82426 0.09352 0.0
C744 C 0.23377 0.8208 0.11056 0.0
C745 C 0.17981 0.79017 0.09212 0.0
C746 C 0.21673 0.78677 0.10882 0.0
N747 N 0.19029 0.77229 0.09973 0.0
C748 C 0.27609 0.94371 0.07187 0.0
C749 C 0.22029 0.9083 0.06591 0.0
C750 C 0.28285 0.95583 0.05758 0.0
N751 N 0.24503 0.92123 0.07593 0.0
C752 C 0.22594 0.91983 0.05144 0.0
C753 C 0.25747 0.94446 0.04719 0.0
H754 H 0.29563 0.95304 0.07986 0.0
H755 H 0.19605 0.88959 0.06916 0.0
C756 C 0.14604 0.855 0.1274 0.0
N757 N 0.16787 0.84461 0.12501 0.0
C758 C 0.11561 0.8343 0.13368 0.0
C759 C 0.13044 0.79226 0.13557 0.0
C760 C 0.1608 0.81392 0.12909 0.0
C761 C 0.10729 0.80238 0.13784 0.0
H762 H 0.15261 0.8799 0.12476 0.0
H763 H 0.17888 0.80646 0.12775 0.0
O764 O 0.27699 0.94638 0.10779 0.0
O765 O 0.23951 0.90712 0.13413 0.0
O766 O 0.20173 0.91204 0.10697 0.0
O767 O 0.23981 0.87287 0.10435 0.0
H768 H 0.33474 0.98092 0.12083 0.0
H769 H 0.26352 0.98713 0.09353 0.0
H770 H 0.36903 0.04148 0.12002 0.0
H771 H 0.29901 0.04767 0.09322 0.0
H772 H 0.21666 0.8219 0.16451 0.0
H773 H 0.19631 0.91169 0.151 0.0
H774 H 0.24705 0.85825 0.14356 0.0
H775 H 0.16669 0.87431 0.17179 0.0
H776 H 0.2862 0.03779 0.1511 0.0
H777 H 0.19164 0.00873 0.13178 0.0
H778 H 0.37533 0.91541 0.10837 0.0
H779 H 0.36641 0.95168 0.1507 0.0
H780 H 0.15048 0.85815 0.09651 0.0
H781 H 0.20569 0.96343 0.09321 0.0
H782 H 0.11278 0.85728 0.07733 0.0
H783 H 0.16731 0.96063 0.0739 0.0
H784 H 0.18815 0.83858 0.0874 0.0
H785 H 0.25479 0.83241 0.11779 0.0
H786 H 0.15876 0.77793 0.08496 0.0
H787 H 0.22447 0.77187 0.11471 0.0
H788 H 0.30752 0.97485 0.05487 0.0
H789 H 0.20578 0.90978 0.0437 0.0
H790 H 0.09909 0.84362 0.13564 0.0
H791 H 0.12517 0.76797 0.13876 0.0
Li792 Li 0.36161 0.26565 0.45284 0.0
Li793 Li 0.30118 0.23191 0.45539 0.0
Li794 Li 0.33319 0.20538 0.45264 0.0
Li795 Li 0.32498 0.23213 0.43159 0.0
C796 C 0.35036 0.23031 0.48046 0.0
N797 N 0.37923 0.21737 0.50391 0.0
C798 C 0.33191 0.21474 0.49295 0.0
C799 C 0.38349 0.23947 0.4799 0.0
C800 C 0.34696 0.20835 0.5047 0.0
C801 C 0.39764 0.23268 0.49187 0.0
C802 C 0.30768 0.28382 0.44198 0.0
C803 C 0.25905 0.28402 0.43388 0.0
N804 N 0.26771 0.31116 0.44217 0.0
C805 C 0.31619 0.3118 0.45037 0.0
C806 C 0.27896 0.26986 0.43362 0.0
C807 C 0.29563 0.32523 0.45033 0.0
C808 C 0.42137 0.32402 0.44763 0.0
N809 N 0.39698 0.30774 0.45755 0.0
C810 C 0.41419 0.35688 0.4713 0.0
C811 C 0.39363 0.32314 0.46947 0.0
C812 C 0.43845 0.37491 0.46076 0.0
C813 C 0.44269 0.35774 0.4491 0.0
H814 H 0.42305 0.31119 0.43812 0.0
H815 H 0.37345 0.30964 0.47697 0.0
C816 C 0.23441 0.20922 0.46128 0.0
N817 N 0.26566 0.23112 0.46524 0.0
C818 C 0.20818 0.20942 0.46825 0.0
C819 C 0.24691 0.25421 0.48348 0.0
C820 C 0.27238 0.25318 0.47617 0.0
C821 C 0.21429 0.23223 0.47948 0.0
H822 H 0.22985 0.19174 0.45267 0.0
H823 H 0.29759 0.27011 0.47912 0.0
C824 C 0.38476 0.22257 0.43351 0.0
N825 N 0.41971 0.19395 0.42325 0.0
C826 C 0.3713 0.19825 0.42274 0.0
C827 C 0.41611 0.23263 0.43896 0.0
C828 C 0.38931 0.18398 0.41773 0.0
C829 C 0.43337 0.21779 0.43365 0.0
C830 C 0.27319 0.1697 0.43301 0.0
C831 C 0.2812 0.14542 0.43005 0.0
C832 C 0.2465 0.16883 0.42586 0.0
C833 C 0.26239 0.12071 0.41998 0.0
C834 C 0.22831 0.14371 0.41585 0.0
N835 N 0.23656 0.12037 0.41315 0.0
C836 C 0.30585 0.1512 0.4697 0.0
C837 C 0.35308 0.15548 0.45835 0.0
C838 C 0.29969 0.12265 0.47693 0.0
N839 N 0.33223 0.16717 0.4607 0.0
C840 C 0.3474 0.12638 0.46518 0.0
C841 C 0.3205 0.10978 0.47469 0.0
H842 H 0.28947 0.16082 0.47124 0.0
H843 H 0.37389 0.16837 0.45117 0.0
C844 C 0.33052 0.26802 0.4068 0.0
N845 N 0.32005 0.23657 0.41092 0.0
C846 C 0.32486 0.27514 0.39263 0.0
C847 C 0.29932 0.21756 0.38674 0.0
C848 C 0.3056 0.21154 0.40109 0.0
C849 C 0.30847 0.24969 0.38244 0.0
H850 H 0.34245 0.28763 0.41469 0.0
H851 H 0.29832 0.18683 0.40437 0.0
O852 O 0.33583 0.23591 0.4687 0.0
O853 O 0.32691 0.26966 0.44222 0.0
O854 O 0.36762 0.23695 0.43849 0.0
O855 O 0.29099 0.19389 0.443 0.0
H856 H 0.30619 0.20743 0.4935 0.0
H857 H 0.39802 0.25147 0.47028 0.0
H858 H 0.33297 0.19616 0.51442 0.0
H859 H 0.42324 0.23951 0.49158 0.0
H860 H 0.23666 0.27337 0.42752 0.0
H861 H 0.33827 0.32287 0.45692 0.0
H862 H 0.27198 0.24814 0.42712 0.0
H863 H 0.30182 0.34678 0.45682 0.0
H864 H 0.4096 0.36893 0.48035 0.0
H865 H 0.46139 0.37043 0.44085 0.0
H866 H 0.18345 0.19227 0.46472 0.0
H867 H 0.2527 0.27185 0.49222 0.0
H868 H 0.3472 0.19045 0.41832 0.0
H869 H 0.42699 0.25169 0.44719 0.0
H870 H 0.37914 0.165 0.40944 0.0
H871 H 0.45762 0.22523 0.43779 0.0
H872 H 0.30181 0.14567 0.43537 0.0
H873 H 0.2401 0.18757 0.42784 0.0
H874 H 0.26838 0.10183 0.41757 0.0
H875 H 0.2077 0.14285 0.4102 0.0
H876 H 0.27839 0.11033 0.48398 0.0
H877 H 0.36396 0.11711 0.46317 0.0
H878 H 0.3322 0.30026 0.38988 0.0
H879 H 0.28721 0.19727 0.37914 0.0
Li880 Li 0.06364 0.30137 0.7896 0.0
Li881 Li 0.08888 0.35964 0.78722 0.0
Li882 Li 0.08851 0.32734 0.76581 0.0
Li883 Li 0.12302 0.33508 0.78825 0.0
C884 C 0.02505 0.33028 0.77884 0.0
N885 N 0.97482 0.34303 0.78449 0.0
C886 C 0.0094 0.32246 0.79249 0.0
C887 C 0.01505 0.34453 0.76805 0.0
C888 C 0.98404 0.32904 0.79512 0.0
C889 C 0.98969 0.35085 0.77113 0.0
C890 C 0.09865 0.3525 0.81608 0.0
C891 C 0.13116 0.40229 0.82978 0.0
N892 N 0.10941 0.38974 0.84106 0.0
C893 C 0.07664 0.34004 0.82781 0.0
C894 C 0.12617 0.38382 0.81706 0.0
C895 C 0.0825 0.35927 0.84034 0.0
C896 C 0.03278 0.25266 0.81119 0.0
N897 N 0.02887 0.26288 0.7978 0.0
C898 C 0.97382 0.2186 0.79623 0.0
C899 C 1.00035 0.24638 0.79019 0.0
C900 C 0.97681 0.20781 0.81021 0.0
C901 C 0.00687 0.225 0.81766 0.0
H902 H 0.05599 0.26614 0.81685 0.0
H903 H 0.99815 0.25511 0.77951 0.0
C904 C 0.08865 0.41774 0.78049 0.0
N905 N 0.0814 0.39538 0.79136 0.0
C906 C 0.07606 0.43905 0.78089 0.0
C907 C 0.05011 0.41501 0.80401 0.0
C908 C 0.06318 0.39425 0.80316 0.0
C909 C 0.0556 0.43712 0.79255 0.0
H910 H 0.10249 0.41761 0.77104 0.0
H911 H 0.05633 0.37544 0.81135 0.0
C912 C 0.08263 0.26191 0.77919 0.0
N913 N 0.05642 0.19582 0.78478 0.0
C914 C 0.09527 0.25153 0.79053 0.0
C915 C 0.05667 0.23869 0.77069 0.0
C916 C 0.0817 0.218 0.79318 0.0
C917 C 0.04375 0.20539 0.7737 0.0
C918 C 0.15779 0.38347 0.76934 0.0
C919 C 0.16611 0.37183 0.75691 0.0
C920 C 0.18235 0.40945 0.77735 0.0
C921 C 0.199 0.38625 0.75276 0.0
C922 C 0.21496 0.42319 0.77285 0.0
N923 N 0.22254 0.4114 0.76076 0.0
C924 C 0.07359 0.34269 0.73841 0.0
C925 C 0.08051 0.29624 0.73801 0.0
C926 C 0.06157 0.33642 0.72407 0.0
N927 N 0.0817 0.32207 0.7452 0.0
C928 C 0.06889 0.28918 0.72358 0.0
C929 C 0.05819 0.3088 0.71656 0.0
H930 H 0.07504 0.36317 0.74441 0.0
H931 H 0.0874 0.28039 0.74364 0.0
C932 C 0.1668 0.33715 0.81014 0.0
N933 N 0.16166 0.33551 0.7954 0.0
C934 C 0.19018 0.33051 0.81609 0.0
C935 C 0.2035 0.32153 0.79159 0.0
C936 C 0.17975 0.32829 0.78609 0.0
C937 C 0.2084 0.32173 0.80683 0.0
H938 H 0.1514 0.34159 0.81742 0.0
H939 H 0.17452 0.32599 0.77447 0.0
O940 O 0.05054 0.3248 0.77617 0.0
O941 O 0.09323 0.3341 0.80369 0.0
O942 O 0.09491 0.29465 0.77672 0.0
O943 O 0.1258 0.36938 0.7737 0.0
H944 H 0.01728 0.31224 0.80113 0.0
H945 H 0.02685 0.35086 0.75744 0.0
H946 H 0.97191 0.32333 0.80568 0.0
H947 H 0.98185 0.36204 0.76291 0.0
H948 H 0.15233 0.4266 0.83069 0.0
H949 H 0.0551 0.31592 0.82719 0.0
H950 H 0.14341 0.39373 0.80808 0.0
H951 H 0.06563 0.35001 0.84949 0.0
H952 H 0.951 0.20621 0.79018 0.0
H953 H 0.0103 0.21716 0.82835 0.0
H954 H 0.08127 0.45595 0.77189 0.0
H955 H 0.03397 0.41208 0.81306 0.0
H956 H 0.11509 0.26915 0.79733 0.0
H957 H 0.04616 0.24631 0.76205 0.0
H958 H 0.09116 0.20962 0.80195 0.0
H959 H 0.02351 0.18716 0.76727 0.0
H960 H 0.14746 0.35165 0.75062 0.0
H961 H 0.17631 0.41894 0.78692 0.0
H962 H 0.20582 0.37739 0.7432 0.0
H963 H 0.23423 0.44326 0.77897 0.0
H964 H 0.05347 0.35216 0.71925 0.0
H965 H 0.0675 0.2681 0.71814 0.0
H966 H 0.19246 0.33032 0.82791 0.0
H967 H 0.21707 0.31513 0.78399 0.0
Li968 Li 0.73208 0.09842 0.11914 0.0
Li969 Li 0.7627 0.06999 0.12187 0.0
Li970 Li 0.79313 0.12848 0.12039 0.0
Li971 Li 0.76507 0.09573 0.09836 0.0
C972 C 0.76277 0.08804 0.14865 0.0
N973 N 0.76709 0.0582 0.17399 0.0
C974 C 0.73431 0.06442 0.15568 0.0
C975 C 0.79343 0.09645 0.15449 0.0
C976 C 0.73701 0.04962 0.16849 0.0
C977 C 0.79509 0.08111 0.16732 0.0
C978 C 0.69911 0.0304 0.1068 0.0
C979 C 0.66578 0.98091 0.09296 0.0
N980 N 0.64185 0.97101 0.10329 0.0
C981 C 0.67415 0.01961 0.11729 0.0
C982 C 0.69486 0.01083 0.09453 0.0
C983 C 0.64542 0.98958 0.11532 0.0
C984 C 0.67204 0.08966 0.11044 0.0
N985 N 0.69064 0.09509 0.12263 0.0
C986 C 0.6438 0.07789 0.13806 0.0
C987 C 0.67761 0.09093 0.13631 0.0
C988 C 0.62346 0.06938 0.12561 0.0
C989 C 0.63831 0.077 0.11168 0.0
H990 H 0.68307 0.09288 0.09971 0.0
H991 H 0.69297 0.09533 0.14582 0.0
C992 C 0.79264 0.0364 0.13391 0.0
N993 N 0.76299 0.03359 0.13105 0.0
C994 C 0.79451 0.011 0.14083 0.0
C995 C 0.73535 0.98068 0.14225 0.0
C996 C 0.73463 0.00652 0.13517 0.0
C997 C 0.76557 0.98273 0.14509 0.0
H998 H 0.81491 0.05861 0.13099 0.0
H999 H 0.71146 0.00515 0.13328 0.0
C1000 C 0.76517 0.16403 0.10924 0.0
N1001 N 0.76752 0.22239 0.11587 0.0
C1002 C 0.77346 0.1879 0.09841 0.0
C1003 C 0.75805 0.16981 0.12345 0.0
C1004 C 0.77451 0.21725 0.10198 0.0
C1005 C 0.75938 0.19948 0.12658 0.0
C1006 C 0.81289 0.07861 0.10251 0.0
C1007 C 0.8464 0.0909 0.10028 0.0
C1008 C 0.79037 0.04718 0.0975 0.0
C1009 C 0.85678 0.07165 0.09295 0.0
C1010 C 0.8017 0.02869 0.09022 0.0
N1011 N 0.8344 0.04121 0.0881 0.0
C1012 C 0.86054 0.17514 0.12042 0.0
C1013 C 0.83167 0.17902 0.14088 0.0
C1014 C 0.89054 0.19755 0.12678 0.0
N1015 N 0.83199 0.16575 0.12768 0.0
C1016 C 0.86113 0.20154 0.14765 0.0
C1017 C 0.89121 0.21043 0.14079 0.0
H1018 H 0.86009 0.16398 0.10999 0.0
H1019 H 0.80865 0.17084 0.14651 0.0
C1020 C 0.73273 0.07801 0.07163 0.0
N1021 N 0.76296 0.08951 0.07761 0.0
C1022 C 0.72649 0.06627 0.05725 0.0
C1023 C 0.78325 0.08059 0.05506 0.0
C1024 C 0.78841 0.09213 0.06951 0.0
C1025 C 0.75169 0.06654 0.0489 0.0
H1026 H 0.71295 0.07617 0.07835 0.0
H1027 H 0.81238 0.10185 0.07441 0.0
O1028 O 0.76068 0.10209 0.13586 0.0
O1029 O 0.72696 0.06043 0.10822 0.0
O1030 O 0.76433 0.13531 0.10589 0.0
O1031 O 0.80242 0.09727 0.10968 0.0
H1032 H 0.71039 0.05704 0.15116 0.0
H1033 H 0.81572 0.11418 0.14905 0.0
H1034 H 0.7152 0.03115 0.17399 0.0
H1035 H 0.81866 0.08726 0.17192 0.0
H1036 H 0.66222 0.96559 0.08351 0.0
H1037 H 0.67713 0.03392 0.12702 0.0
H1038 H 0.71375 0.01859 0.08625 0.0
H1039 H 0.62599 0.981 0.12338 0.0
H1040 H 0.63357 0.07245 0.14902 0.0
H1041 H 0.62383 0.07171 0.10177 0.0
H1042 H 0.81831 0.0137 0.14307 0.0
H1043 H 0.71249 0.95923 0.14538 0.0
H1044 H 0.77908 0.18378 0.08736 0.0
H1045 H 0.7516 0.1517 0.13199 0.0
H1046 H 0.78091 0.23596 0.0937 0.0
H1047 H 0.75396 0.2043 0.13753 0.0
H1048 H 0.86423 0.11506 0.10417 0.0
H1049 H 0.76446 0.03709 0.09929 0.0
H1050 H 0.88263 0.08089 0.09112 0.0
H1051 H 0.7845 0.00437 0.08627 0.0
H1052 H 0.91298 0.20331 0.1211 0.0
H1053 H 0.86036 0.21114 0.15835 0.0
H1054 H 0.70173 0.05545 0.05304 0.0
H1055 H 0.80353 0.08187 0.04891 0.0
H1056 H 0.94988 0.25833 0.12937 0.0
H1057 H 0.90488 0.20833 0.16986 0.0
H1058 H 0.00279 0.28798 0.14177 0.0
H1059 H 0.95761 0.23798 0.18222 0.0
H1060 H 0.05295 0.31412 0.20335 0.0
H1061 H 1.00019 0.29122 0.19083 0.0
H1062 H 0.04306 0.27571 0.15194 0.0
H1063 H 0.09561 0.29842 0.16441 0.0
C1064 C 0.95121 0.2537 0.14092 0.0
C1065 C 0.923 0.23085 0.14858 0.0
C1066 C 0.98158 0.2707 0.14803 0.0
C1067 C 0.98457 0.26533 0.163 0.0
C1068 C 0.9562 0.24315 0.17075 0.0
C1069 C 0.92587 0.22614 0.16364 0.0
C1070 C 0.05114 0.30586 0.19212 0.0
C1071 C 0.07865 0.30816 0.18492 0.0
C1072 C 0.02086 0.29271 0.18494 0.0
C1073 C 0.01727 0.28151 0.17037 0.0
C1074 C 0.04497 0.28454 0.16307 0.0
C1075 C 0.0752 0.29765 0.17024 0.0
H1076 H 0.81805 0.08621 0.50215 0.0
H1077 H 0.73623 0.0648 0.53048 0.0
H1078 H 0.78549 0.03401 0.48979 0.0
H1079 H 0.70298 0.01275 0.51765 0.0
H1080 H 0.67344 0.9057 0.50449 0.0
H1081 H 0.69976 0.95996 0.51566 0.0
H1082 H 0.74028 0.00351 0.47355 0.0
H1083 H 0.71528 0.94921 0.46254 0.0
C1084 C 0.793 0.0704 0.5057 0.0
C1085 C 0.77993 0.07958 0.51745 0.0
C1086 C 0.77411 0.04058 0.49845 0.0
C1087 C 0.74152 0.01904 0.50269 0.0
C1088 C 0.72809 0.02856 0.51419 0.0
C1089 C 0.74705 0.05854 0.52146 0.0
C1090 C 0.6879 0.92685 0.4976 0.0
C1091 C 0.69249 0.92292 0.48263 0.0
C1092 C 0.70271 0.95806 0.50398 0.0
C1093 C 0.72248 0.9862 0.49556 0.0
C1094 C 0.72571 0.98238 0.48044 0.0
C1095 C 0.71096 0.95118 0.47406 0.0
H1096 H 0.74197 0.79313 0.86725 0.0
H1097 H 0.65555 0.74921 0.83985 0.0
H1098 H 0.76496 0.76569 0.85305 0.0
H1099 H 0.67855 0.72086 0.82579 0.0
H1100 H 0.73253 0.65747 0.81547 0.0
H1101 H 0.70158 0.67804 0.82923 0.0
H1102 H 0.78318 0.7766 0.82541 0.0
H1103 H 0.81348 0.75663 0.81139 0.0
C1104 C 0.72772 0.77737 0.85826 0.0
C1105 C 0.6972 0.77392 0.8545 0.0
C1106 C 0.74088 0.76159 0.85017 0.0
C1107 C 0.72375 0.74159 0.83819 0.0
C1108 C 0.69224 0.7362 0.83497 0.0
C1109 C 0.67909 0.75234 0.84304 0.0
C1110 C 0.74359 0.68358 0.81735 0.0
C1111 C 0.77581 0.7053 0.81258 0.0
C1112 C 0.7259 0.69528 0.82525 0.0
C1113 C 0.74029 0.7288 0.8286 0.0
C1114 C 0.77179 0.75055 0.82325 0.0
C1115 C 0.78919 0.73902 0.81527 0.0
H1116 H 0.93105 0.75794 0.18152 0.0
H1117 H 0.92732 0.66496 0.18671 0.0
H1118 H 0.98207 0.77916 0.16803 0.0
H1119 H 0.97948 0.68689 0.17338 0.0
H1120 H 0.09335 0.7621 0.16192 0.0
H1121 H 0.0412 0.73328 0.17533 0.0
H1122 H 0.99638 0.76579 0.14319 0.0
H1123 H 0.04788 0.79396 0.12977 0.0
C1124 C 0.94097 0.74187 0.17971 0.0
C1125 C 0.92454 0.70942 0.18494 0.0
C1126 C 0.97035 0.75414 0.172 0.0
C1127 C 0.9845 0.73452 0.16942 0.0
C1128 C 0.96906 0.70253 0.17518 0.0
C1129 C 0.93926 0.69004 0.18284 0.0
C1130 C 0.07214 0.76243 0.15756 0.0
C1131 C 0.07492 0.78079 0.1449 0.0
C1132 C 0.04234 0.74601 0.16526 0.0
C1133 C 0.01491 0.74781 0.16045 0.0
C1134 C 0.01729 0.76456 0.14734 0.0
C1135 C 0.04682 0.78072 0.13966 0.0
H1136 H 0.3078 0.09435 0.50365 0.0
H1137 H 0.31534 0.0547 0.46211 0.0
H1138 H 0.28723 0.04069 0.5151 0.0
H1139 H 0.29461 0.00076 0.47356 0.0
H1140 H 0.2049 0.90816 0.49557 0.0
H1141 H 0.23816 0.96118 0.48361 0.0
H1142 H 0.30082 0.99647 0.52175 0.0
H1143 H 0.26743 0.94308 0.5337 0.0
C1144 C 0.30556 0.07422 0.49704 0.0
C1145 C 0.31298 0.0786 0.48198 0.0
C1146 C 0.294 0.04356 0.50361 0.0
C1147 C 0.28918 0.01646 0.49522 0.0
C1148 C 0.29792 0.02117 0.48028 0.0
C1149 C 0.30997 0.05202 0.47375 0.0
C1150 C 0.22612 0.9271 0.50128 0.0
C1151 C 0.23353 0.92164 0.51557 0.0
C1152 C 0.24529 0.95737 0.49441 0.0
C1153 C 0.27206 0.98304 0.50175 0.0
C1154 C 0.28024 0.97718 0.51585 0.0
C1155 C 0.2613 0.94664 0.52265 0.0
H1156 H 0.2869 0.23959 0.86847 0.0
H1157 H 0.32238 0.22602 0.82686 0.0
H1158 H 0.2657 0.27133 0.8563 0.0
H1159 H 0.30116 0.25767 0.8147 0.0
H1160 H 0.21619 0.27093 0.79724 0.0
H1161 H 0.24658 0.2479 0.80886 0.0
H1162 H 0.27887 0.32157 0.8428 0.0
H1163 H 0.24863 0.345 0.83106 0.0
C1164 C 0.29082 0.24396 0.85678 0.0
C1165 C 0.30606 0.22994 0.84863 0.0
C1166 C 0.27862 0.26216 0.84979 0.0
C1167 C 0.28138 0.26676 0.83448 0.0
C1168 C 0.29801 0.25404 0.82646 0.0
C1169 C 0.31021 0.23591 0.83344 0.0
C1170 C 0.23037 0.28281 0.80698 0.0
C1171 C 0.22986 0.3099 0.81318 0.0
C1172 C 0.24779 0.2695 0.81368 0.0
C1173 C 0.26514 0.28281 0.82681 0.0
C1174 C 0.2654 0.31043 0.83282 0.0
C1175 C 0.24805 0.32386 0.82607 0.0
H1176 H 0.58225 0.4991 0.2183 0.0
H1177 H 0.58597 0.58634 0.20127 0.0
H1178 H 0.52245 0.47121 0.21844 0.0
H1179 H 0.52638 0.55921 0.20195 0.0
H1180 H 0.4176 0.49296 0.19311 0.0
H1181 H 0.47699 0.51924 0.19146 0.0
H1182 H 0.47849 0.46948 0.23106 0.0
H1183 H 0.41922 0.44134 0.23203 0.0
C1184 C 0.57019 0.51228 0.21461 0.0
C1185 C 0.5887 0.54475 0.20967 0.0
C1186 C 0.53591 0.49644 0.21479 0.0
C1187 C 0.51933 0.51292 0.21028 0.0
C1188 C 0.53805 0.54543 0.20525 0.0
C1189 C 0.57228 0.56106 0.20488 0.0
C1190 C 0.43053 0.48733 0.20138 0.0
C1191 C 0.41333 0.46498 0.21273 0.0
C1192 C 0.46476 0.50277 0.20054 0.0
C1193 C 0.4828 0.49654 0.2111 0.0
C1194 C 0.4656 0.47456 0.22256 0.0
C1195 C 0.43143 0.45885 0.22329 0.0
H1196 H 0.99648 0.5872 0.53138 0.0
H1197 H 0.08397 0.58169 0.53927 0.0
H1198 H 0.96381 0.52743 0.53119 0.0
H1199 H 0.05115 0.52172 0.53915 0.0
H1200 H 0.98491 0.41532 0.52362 0.0
H1201 H 0.01661 0.47505 0.52158 0.0
H1202 H 0.94783 0.48283 0.55024 0.0
H1203 H 0.91604 0.42303 0.55224 0.0
C1204 C 0.00879 0.5732 0.53288 0.0
C1205 C 0.04284 0.58913 0.53526 0.0
C1206 C 0.99002 0.53899 0.53291 0.0
C1207 C 0.00491 0.51992 0.53517 0.0
C1208 C 0.03905 0.53581 0.53726 0.0
C1209 C 0.0578 0.57008 0.53742 0.0
C1210 C 0.97627 0.42978 0.52928 0.0
C1211 C 0.9479 0.41452 0.53803 0.0
C1212 C 0.99461 0.46396 0.52824 0.0
C1213 C 0.98475 0.48359 0.53578 0.0
C1214 C 0.9559 0.46831 0.54422 0.0
C1215 C 0.9378 0.43413 0.54542 0.0
H1216 H 0.49683 0.07932 0.88542 0.0
H1217 H 0.41826 0.00443 0.85951 0.0
H1218 H 0.52379 0.04655 0.88594 0.0
H1219 H 0.4451 0.9717 0.86005 0.0
H1220 H 0.51899 0.93642 0.85255 0.0
H1221 H 0.49274 0.96979 0.85118 0.0
H1222 H 0.51591 0.99617 0.8968 0.0
H1223 H 0.54322 0.964 0.898 0.0
C1224 C 0.48534 0.05589 0.87983 0.0
C1225 C 0.4555 0.04462 0.87235 0.0
C1226 C 0.50071 0.03704 0.88016 0.0
C1227 C 0.48657 0.00641 0.87307 0.0
C1228 C 0.45695 0.99536 0.86544 0.0
C1229 C 0.4416 0.0142 0.8651 0.0
C1230 C 0.51854 0.94941 0.86227 0.0
C1231 C 0.53315 0.94739 0.87539 0.0
C1232 C 0.50327 0.96835 0.86152 0.0
C1233 C 0.50233 0.98581 0.87386 0.0
C1234 C 0.51657 0.98344 0.88702 0.0
C1235 C 0.53179 0.96451 0.88778 0.0
H1236 H 0.56379 0.58472 0.47884 0.0
H1237 H 0.50024 0.57906 0.44346 0.0
H1238 H 0.53663 0.52505 0.47958 0.0
H1239 H 0.47251 0.51938 0.44437 0.0
H1240 H 0.45604 0.4173 0.43754 0.0
H1241 H 0.48317 0.47667 0.43802 0.0
H1242 H 0.48744 0.4752 0.48536 0.0
H1243 H 0.46193 0.41564 0.48483 0.0
C1244 C 0.54352 0.57068 0.47142 0.0
C1245 C 0.5342 0.5866 0.46106 0.0
C1246 C 0.52795 0.53643 0.47183 0.0
C1247 C 0.50255 0.51728 0.46193 0.0
C1248 C 0.49249 0.53329 0.45193 0.0
C1249 C 0.50822 0.56751 0.45145 0.0
C1250 C 0.46336 0.42955 0.44806 0.0
C1251 C 0.45686 0.41148 0.46114 0.0
C1252 C 0.47841 0.46371 0.44835 0.0
C1253 C 0.48719 0.48085 0.46173 0.0
C1254 C 0.4812 0.46289 0.47483 0.0
C1255 C 0.46627 0.42865 0.47454 0.0
H1256 H 0.97483 0.56666 0.80627 0.0
H1257 H 0.91083 0.49558 0.7744 0.0
H1258 H 0.00747 0.5398 0.80739 0.0
H1259 H 0.94311 0.46817 0.7757 0.0
H1260 H 0.02765 0.44932 0.76882 0.0
H1261 H 0.99546 0.47664 0.76838 0.0
H1262 H 0.00824 0.49193 0.81523 0.0
H1263 H 0.04203 0.46621 0.81553 0.0
C1264 C 0.96731 0.54484 0.79973 0.0
C1265 C 0.94017 0.53318 0.79027 0.0
C1266 C 0.98609 0.52944 0.80035 0.0
C1267 C 0.97811 0.50188 0.79157 0.0
C1268 C 0.95042 0.48973 0.78239 0.0
C1269 C 0.93176 0.50528 0.7817 0.0
C1270 C 0.02423 0.45913 0.77899 0.0
C1271 C 0.03765 0.45568 0.7922 0.0
C1272 C 0.00521 0.47429 0.77878 0.0
C1273 C 0.99892 0.48627 0.79179 0.0
C1274 C 0.01274 0.48325 0.80497 0.0
C1275 C 0.0319 0.46821 0.80517 0.0
H1276 H 0.41861 0.91364 0.12395 0.0
H1277 H 0.41495 0.99882 0.13867 0.0
H1278 H 0.4784 0.94536 0.12408 0.0
H1279 H 0.47458 0.03084 0.13844 0.0
H1280 H 0.58407 0.07463 0.14657 0.0
H1281 H 0.52473 0.04078 0.14922 0.0
H1282 H 0.52101 0.98714 0.11011 0.0
H1283 H 0.58013 0.01937 0.10801 0.0
C1284 C 0.43063 0.93913 0.12726 0.0
C1285 C 0.41206 0.95368 0.13132 0.0
C1286 C 0.46491 0.95742 0.12726 0.0
C1287 C 0.48148 0.99086 0.13113 0.0
C1288 C 0.46282 0.00511 0.13558 0.0
C1289 C 0.42856 0.98672 0.13572 0.0
C1290 C 0.57061 0.05542 0.13862 0.0
C1291 C 0.58702 0.05003 0.127 0.0
C1292 C 0.53649 0.03617 0.14006 0.0
C1293 C 0.51791 0.01108 0.1299 0.0
C1294 C 0.5344 0.00581 0.11829 0.0
C1295 C 0.56841 0.02484 0.11692 0.0
H1296 H 0.18832 0.02664 0.15698 0.0
H1297 H 0.28909 0.09047 0.14418 0.0
H1298 H 0.18775 0.07246 0.16911 0.0
H1299 H 0.28847 0.13647 0.15616 0.0
H1300 H 0.28571 0.20223 0.19222 0.0
H1301 H 0.28612 0.15605 0.18043 0.0
H1302 H 0.18903 0.12317 0.16327 0.0
H1303 H 0.18799 0.16847 0.17564 0.0
C1304 C 0.21024 0.05057 0.15665 0.0
C1305 C 0.23873 0.05504 0.14963 0.0
C1306 C 0.20992 0.07681 0.16357 0.0
C1307 C 0.23805 0.10811 0.16357 0.0
C1308 C 0.26655 0.11256 0.15654 0.0
C1309 C 0.26691 0.08626 0.14967 0.0
C1310 C 0.2643 0.18492 0.18607 0.0
C1311 C 0.23678 0.18896 0.18489 0.0
C1312 C 0.26471 0.1587 0.17917 0.0
C1313 C 0.23764 0.13599 0.1709 0.0
C1314 C 0.21014 0.14005 0.16969 0.0
C1315 C 0.2097 0.16623 0.17663 0.0
H1316 H 0.06539 0.27919 0.50534 0.0
H1317 H 0.04702 0.19762 0.53322 0.0
H1318 H 0.11119 0.27714 0.494 0.0
H1319 H 0.09317 0.1958 0.52206 0.0
H1320 H 0.15527 0.18044 0.4879 0.0
H1321 H 0.10933 0.1822 0.49919 0.0
H1322 H 0.16574 0.28808 0.49966 0.0
H1323 H 0.21104 0.28635 0.48768 0.0
C1324 C 0.07139 0.26102 0.50912 0.0
C1325 C 0.05274 0.23859 0.52016 0.0
C1326 C 0.09764 0.25988 0.50267 0.0
C1327 C 0.10589 0.23637 0.50717 0.0
C1328 C 0.08716 0.2139 0.51821 0.0
C1329 C 0.06078 0.21495 0.52461 0.0
C1330 C 0.15774 0.2041 0.49028 0.0
C1331 C 0.18677 0.23326 0.48685 0.0
C1332 C 0.13156 0.2051 0.49692 0.0
C1333 C 0.13388 0.23528 0.50032 0.0
C1334 C 0.16302 0.26443 0.49701 0.0
C1335 C 0.18915 0.26344 0.49033 0.0
H1336 H 0.93305 0.14959 0.79743 0.0
H1337 H 0.9563 0.20198 0.8386 0.0
H1338 H 0.88488 0.10374 0.80864 0.0
H1339 H 0.90882 0.15572 0.84994 0.0
H1340 H 0.80141 0.08329 0.86034 0.0
H1341 H 0.84884 0.12895 0.84863 0.0
H1342 H 0.87123 0.06079 0.82707 0.0
H1343 H 0.82317 0.0151 0.83838 0.0
C1344 C 0.92788 0.15126 0.80887 0.0
C1345 C 0.9484 0.17936 0.81714 0.0
C1346 C 0.90051 0.12491 0.81533 0.0
C1347 C 0.89307 0.12619 0.83016 0.0
C1348 C 0.91373 0.1542 0.83844 0.0
C1349 C 0.94113 0.1805 0.832 0.0
C1350 C 0.81627 0.07807 0.85297 0.0
C1351 C 0.80861 0.04564 0.85029 0.0
C1352 C 0.84362 0.10421 0.8464 0.0
C1353 C 0.86381 0.09843 0.83698 0.0
C1354 C 0.85597 0.06599 0.83419 0.0
C1355 C 0.82867 0.03986 0.84079 0.0
H1356 H 0.73218 0.94948 0.16954 0.0
H1357 H 0.80183 0.95468 0.13729 0.0
H1358 H 0.73313 0.90343 0.18139 0.0
H1359 H 0.80309 0.90887 0.14926 0.0
H1360 H 0.76134 0.80112 0.16424 0.0
H1361 H 0.76285 0.84858 0.15276 0.0
H1362 H 0.77325 0.89285 0.19537 0.0
H1363 H 0.77255 0.84576 0.20689 0.0
C1364 C 0.74767 0.94073 0.16501 0.0
C1365 C 0.76686 0.9555 0.15249 0.0
C1366 C 0.74843 0.91463 0.17185 0.0
C1367 C 0.76817 0.90264 0.16622 0.0
C1368 C 0.78748 0.91751 0.15374 0.0
C1369 C 0.78696 0.94383 0.14698 0.0
C1370 C 0.76443 0.82116 0.17116 0.0
C1371 C 0.76682 0.81963 0.18649 0.0
C1372 C 0.76522 0.84828 0.16458 0.0
C1373 C 0.76815 0.87431 0.17319 0.0
C1374 C 0.77058 0.87289 0.1885 0.0
C1375 C 0.77007 0.84589 0.19508 0.0
H1376 H 0.83578 0.81736 0.49135 0.0
H1377 H 0.80088 0.71795 0.47687 0.0
H1378 H 0.88267 0.81805 0.50309 0.0
H1379 H 0.84836 0.7191 0.48808 0.0
H1380 H 0.91784 0.72048 0.52329 0.0
H1381 H 0.87038 0.72005 0.51237 0.0
H1382 H 0.93295 0.81838 0.49613 0.0
H1383 H 0.98039 0.81884 0.50712 0.0
C1384 C 0.8381 0.79566 0.4907 0.0
C1385 C 0.81466 0.76761 0.48319 0.0
C1386 C 0.86512 0.79617 0.49728 0.0
C1387 C 0.86921 0.76863 0.49649 0.0
C1388 C 0.84571 0.74057 0.48901 0.0
C1389 C 0.81872 0.74006 0.48244 0.0
C1390 C 0.92145 0.74191 0.5173 0.0
C1391 C 0.95281 0.76967 0.51603 0.0
C1392 C 0.8943 0.74166 0.51105 0.0
C1393 C 0.89795 0.76916 0.50337 0.0
C1394 C 0.9293 0.797 0.50217 0.0
C1395 C 0.95645 0.79725 0.50844 0.0
H1396 H 0.19198 0.96753 0.82592 0.0
H1397 H 0.15926 0.92142 0.86841 0.0
H1398 H 0.14498 0.92101 0.81446 0.0
H1399 H 0.11326 0.8743 0.8567 0.0
H1400 H 0.06332 0.78272 0.82534 0.0
H1401 H 0.10895 0.83019 0.83735 0.0
H1402 H 0.08036 0.8941 0.81624 0.0
H1403 H 0.03447 0.84659 0.80439 0.0
C1404 C 0.17472 0.94771 0.83285 0.0
C1405 C 0.17951 0.94832 0.84812 0.0
C1406 C 0.14794 0.92103 0.82625 0.0
C1407 C 0.12574 0.8942 0.83473 0.0
C1408 C 0.13035 0.89464 0.84994 0.0
C1409 C 0.1568 0.92155 0.8566 0.0
C1410 C 0.06689 0.80695 0.8233 0.0
C1411 C 0.04557 0.8112 0.81399 0.0
C1412 C 0.09275 0.83396 0.8302 0.0
C1413 C 0.09799 0.86562 0.82767 0.0
C1414 C 0.0768 0.86988 0.81828 0.0
C1415 C 0.05058 0.84281 0.81159 0.0
H1416 H 0.25113 0.21421 0.36715 0.0
H1417 H 0.34639 0.30158 0.36443 0.0
H1418 H 0.2359 0.2281 0.34374 0.0
H1419 H 0.33075 0.31613 0.34142 0.0
H1420 H 0.30441 0.31659 0.29354 0.0
H1421 H 0.31939 0.29992 0.31614 0.0
H1422 H 0.22284 0.26808 0.3337 0.0
H1423 H 0.20774 0.28462 0.31092 0.0
C1424 C 0.26893 0.23622 0.3615 0.0
C1425 C 0.29997 0.2568 0.36768 0.0
C1426 C 0.26003 0.24442 0.34818 0.0
C1427 C 0.28201 0.27335 0.34073 0.0
C1428 C 0.31329 0.29353 0.34678 0.0
C1429 C 0.32216 0.28535 0.36006 0.0
C1430 C 0.28648 0.30642 0.30229 0.0
C1431 C 0.25498 0.30231 0.30049 0.0
C1432 C 0.29506 0.29677 0.31525 0.0
C1433 C 0.2724 0.28276 0.32678 0.0
C1434 C 0.24078 0.2784 0.32496 0.0
C1435 C 0.23214 0.28799 0.31194 0.0
H1436 H 0.93968 0.29456 0.64132 0.0
H1437 H 0.96633 0.22071 0.63251 0.0
H1438 H 0.97064 0.30838 0.66418 0.0
H1439 H 0.99637 0.23397 0.65562 0.0
H1440 H 0.01637 0.24695 0.70607 0.0
H1441 H 0.98613 0.23174 0.68301 0.0
H1442 H 0.03058 0.33387 0.67117 0.0
H1443 H 0.06173 0.34926 0.694 0.0
C1444 C 0.95206 0.28122 0.64423 0.0
C1445 C 0.95053 0.25658 0.63497 0.0
C1446 C 0.96979 0.28917 0.65735 0.0
C1447 C 0.98613 0.27243 0.66163 0.0
C1448 C 0.98384 0.24714 0.65265 0.0
C1449 C 0.9664 0.23941 0.63944 0.0
C1450 C 0.02033 0.26622 0.69844 0.0
C1451 C 0.04157 0.29941 0.70198 0.0
C1452 C 0.00279 0.25744 0.68526 0.0
C1453 C 0.00576 0.28162 0.67535 0.0
C1454 C 0.02736 0.31472 0.67872 0.0
C1455 C 0.04518 0.32351 0.69182 0.0
H1456 H 0.77416 0.02745 0.03781 0.0
H1457 H 0.7121 0.06778 0.02713 0.0
H1458 H 0.75875 0.99681 0.01487 0.0
H1459 H 0.69667 0.03708 0.00416 0.0
H1460 H 0.64756 0.94893 0.97327 0.0
H1461 H 0.66455 0.98034 0.99602 0.0
H1462 H 0.76432 0.00332 0.98836 0.0
H1463 H 0.74735 0.97193 0.96561 0.0
C1464 C 0.75767 0.03025 0.03045 0.0
C1465 C 0.74437 0.0501 0.03433 0.0
C1466 C 0.74875 0.01257 0.0173 0.0
C1467 C 0.72629 0.01429 0.00771 0.0
C1468 C 0.71354 0.0347 0.01143 0.0
C1469 C 0.72246 0.05238 0.02458 0.0
C1470 C 0.67314 0.96075 0.97642 0.0
C1471 C 0.69608 0.95788 0.9676 0.0
C1472 C 0.6829 0.97884 0.98944 0.0
C1473 C 0.71585 0.99454 0.99398 0.0
C1474 C 0.73869 0.99124 0.98528 0.0
C1475 C 0.72893 0.97315 0.97225 0.0
H1476 H 0.70993 0.65067 0.30866 0.0
H1477 H 0.77578 0.75322 0.29937 0.0
H1478 H 0.69365 0.66543 0.33136 0.0
H1479 H 0.76138 0.76784 0.32264 0.0
H1480 H 0.70188 0.78586 0.35721 0.0
H1481 H 0.71886 0.7715 0.33437 0.0
H1482 H 0.70998 0.6849 0.35517 0.0
H1483 H 0.69179 0.6987 0.37767 0.0
C1484 C 0.72118 0.67638 0.31149 0.0
C1485 C 0.74407 0.70068 0.30205 0.0
C1486 C 0.71215 0.68487 0.32467 0.0
C1487 C 0.72608 0.71791 0.32892 0.0
C1488 C 0.74965 0.74218 0.31967 0.0
C1489 C 0.75839 0.73371 0.30639 0.0
C1490 C 0.70351 0.76374 0.35681 0.0
C1491 C 0.69513 0.74319 0.36912 0.0
C1492 C 0.71347 0.75557 0.34377 0.0
C1493 C 0.71578 0.72693 0.34283 0.0
C1494 C 0.70781 0.70671 0.3553 0.0
C1495 C 0.69743 0.71464 0.36823 0.0
H1496 H 0.05042 0.70004 0.63503 0.0
H1497 H 0.03948 0.78548 0.63119 0.0
H1498 H 0.01955 0.68538 0.65785 0.0
H1499 H 0.01001 0.77173 0.65446 0.0
H1500 H 0.92576 0.71606 0.68722 0.0
H1501 H 0.95775 0.73212 0.66455 0.0
H1502 H 0.02247 0.7011 0.68289 0.0
H1503 H 0.99023 0.68463 0.70534 0.0
C1504 C 0.04163 0.71585 0.6391 0.0
C1505 C 0.04733 0.74386 0.63121 0.0
C1506 C 0.0242 0.70763 0.6523 0.0
C1507 C 0.01214 0.7273 0.65801 0.0
C1508 C 0.0185 0.75575 0.65029 0.0
C1509 C 0.03586 0.76392 0.63705 0.0
C1510 C 0.94684 0.71273 0.68637 0.0
C1511 C 0.95523 0.69874 0.698 0.0
C1512 C 0.9653 0.72207 0.67342 0.0
C1513 C 0.9927 0.71786 0.67185 0.0
C1514 C 0.00118 0.70413 0.68357 0.0
C1515 C 0.98265 0.69463 0.69645 0.0
H1516 H 0.2186 0.96067 0.031 0.0
H1517 H 0.31113 0.96242 0.0297 0.0
H1518 H 0.23078 0.98825 0.00725 0.0
H1519 H 0.32395 0.99126 0.00635 0.0
H1520 H 0.3225 0.01344 0.95784 0.0
H1521 H 0.30863 0.98379 0.98099 0.0
H1522 H 0.26682 0.04154 0.99661 0.0
H1523 H 0.28047 0.07107 0.9733 0.0
C1524 C 0.24141 0.96668 0.0256 0.0
C1525 C 0.26388 0.95933 0.03228 0.0
C1526 C 0.24862 0.98294 0.01208 0.0
C1527 C 0.27846 0.99221 0.00491 0.0
C1528 C 0.30062 0.98428 0.01148 0.0
C1529 C 0.29341 0.96801 0.02496 0.0
C1530 C 0.31073 0.02014 0.96628 0.0
C1531 C 0.30283 0.04483 0.96375 0.0
C1532 C 0.30271 0.00306 0.97956 0.0
C1533 C 0.28663 0.01026 0.9907 0.0
C1534 C 0.27875 0.035 0.98819 0.0
C1535 C 0.28669 0.05203 0.97486 0.0
loop_
_geom_bond_atom_site_label_1
_geom_bond_atom_site_label_2
_geom_bond_distance
_geom_bond_site_symmetry_2
_ccdc_geom_bond_type
Li0 N17 1.990 . S
Li0 O60 1.956 . S
Li0 O61 1.970 . S
Li0 O62 1.961 . S
Li1 N25 1.990 . S
Li1 O60 1.970 . S
Li1 O61 1.956 . S
Li1 O63 1.961 . S
Li2 N47 1.990 . S
Li2 O60 1.961 . S
Li2 O62 1.956 . S
Li2 O63 1.970 . S
Li3 N53 1.990 . S
Li3 O61 1.961 . S
Li3 O62 1.970 . S
Li3 O63 1.956 . S
C4 C6 1.348 . S
C4 C7 1.356 . S
C4 O60 1.325 . S
N5 C8 1.314 . S
N5 C9 1.279 . S
C6 C4 1.348 . S
C6 C8 1.353 . S
C6 H64 0.929 . S
C7 C4 1.356 . S
C7 C9 1.358 . S
C7 H65 0.930 . S
C8 N5 1.314 . S
C8 C6 1.353 . S
C8 H66 0.930 . S
C9 N5 1.279 . S
C9 C7 1.358 . S
C9 H67 0.930 . S
C10 C13 1.348 . S
C10 C14 1.356 . S
C10 O61 1.325 . S
C11 N12 1.279 . S
C11 C14 1.358 . S
C11 H68 0.930 . S
N12 C11 1.279 . S
N12 C15 1.314 . S
C13 C10 1.348 . S
C13 C15 1.353 . S
C13 H69 0.929 . S
C14 C10 1.356 . S
C14 C11 1.358 . S
C14 H70 0.930 . S
C15 N12 1.314 . S
C15 C13 1.353 . S
C15 H71 0.930 . S
C16 N17 1.314 . S
C16 C21 1.353 . S
C16 H22 0.930 . S
N17 Li0 1.990 . S
N17 C16 1.314 . S
N17 C19 1.279 . S
C18 C19 1.358 . S
C18 C20 1.356 . S
C18 H72 0.930 . S
C19 N17 1.279 . S
C19 C18 1.358 . S
C19 H23 0.930 . S
C20 C18 1.356 . S
C20 C21 1.348 . S
C21 C16 1.353 . S
C21 C20 1.348 . S
C21 H73 0.929 . S
H22 C16 0.930 . S
H23 C19 0.930 . S
C24 N25 1.314 . S
C24 C26 1.353 . S
C24 H30 0.930 . S
N25 Li1 1.990 . S
N25 C24 1.314 . S
N25 C28 1.279 . S
C26 C24 1.353 . S
C26 C29 1.348 . S
C26 H74 0.929 . S
C27 C28 1.358 . S
C27 C29 1.356 . S
C27 H75 0.930 . S
C28 N25 1.279 . S
C28 C27 1.358 . S
C28 H31 0.930 . S
C29 C26 1.348 . S
C29 C27 1.356 . S
H30 C24 0.930 . S
H31 C28 0.930 . S
C32 C34 1.348 . S
C32 C35 1.356 . S
C32 O62 1.325 . S
N33 C36 1.314 . S
N33 C37 1.279 . S
C34 C32 1.348 . S
C34 C36 1.353 . S
C34 H76 0.929 . S
C35 C32 1.356 . S
C35 C37 1.358 . S
C35 H77 0.930 . S
C36 N33 1.314 . S
C36 C34 1.353 . S
C36 H78 0.930 . S
C37 N33 1.279 . S
C37 C35 1.358 . S
C37 H79 0.930 . S
C38 C39 1.348 . S
C38 C40 1.356 . S
C38 O63 1.325 . S
C39 C38 1.348 . S
C39 C41 1.353 . S
C39 H80 0.929 . S
C40 C38 1.356 . S
C40 C42 1.358 . S
C40 H81 0.930 . S
C41 C39 1.353 . S
C41 N43 1.314 . S
C41 H82 0.930 . S
C42 C40 1.358 . S
C42 N43 1.279 . S
C42 H83 0.930 . S
N43 C41 1.314 . S
N43 C42 1.279 . S
C44 C46 1.353 . S
C44 N47 1.314 . S
C44 H50 0.930 . S
C45 N47 1.279 . S
C45 C48 1.358 . S
C45 H51 0.930 . S
C46 C44 1.353 . S
C46 C49 1.348 . S
C46 H84 0.929 . S
N47 Li2 1.990 . S
N47 C44 1.314 . S
N47 C45 1.279 . S
C48 C45 1.358 . S
C48 C49 1.356 . S
C48 H85 0.930 . S
C49 C46 1.348 . S
C49 C48 1.356 . S
H50 C44 0.930 . S
H51 C45 0.930 . S
C52 N53 1.314 . S
C52 C54 1.353 . S
C52 H58 0.930 . S
N53 Li3 1.990 . S
N53 C52 1.314 . S
N53 C56 1.279 . S
C54 C52 1.353 . S
C54 C57 1.348 . S
C54 H86 0.929 . S
C55 C56 1.358 . S
C55 C57 1.356 . S
C55 H87 0.930 . S
C56 N53 1.279 . S
C56 C55 1.358 . S
C56 H59 0.930 . S
C57 C54 1.348 . S
C57 C55 1.356 . S
H58 C52 0.930 . S
H59 C56 0.930 . S
O60 Li0 1.956 . S
O60 Li1 1.970 . S
O60 Li2 1.961 . S
O60 C4 1.325 . S
O61 Li0 1.970 . S
O61 Li1 1.956 . S
O61 Li3 1.961 . S
O61 C10 1.325 . S
O62 Li0 1.961 . S
O62 Li2 1.956 . S
O62 Li3 1.970 . S
O62 C32 1.325 . S
O63 Li1 1.961 . S
O63 Li2 1.970 . S
O63 Li3 1.956 . S
O63 C38 1.325 . S
H64 C6 0.929 . S
H65 C7 0.930 . S
H66 C8 0.930 . S
H67 C9 0.930 . S
H68 C11 0.930 . S
H69 C13 0.929 . S
H70 C14 0.930 . S
H71 C15 0.930 . S
H72 C18 0.930 . S
H73 C21 0.929 . S
H74 C26 0.929 . S
H75 C27 0.930 . S
H76 C34 0.929 . S
H77 C35 0.930 . S
H78 C36 0.930 . S
H79 C37 0.930 . S
H80 C39 0.929 . S
H81 C40 0.930 . S
H82 C41 0.930 . S
H83 C42 0.930 . S
H84 C46 0.929 . S
H85 C48 0.930 . S
H86 C54 0.929 . S
H87 C55 0.930 . S
Li88 N105 1.990 . S
Li88 O148 1.956 . S
Li88 O149 1.970 . S
Li88 O150 1.961 . S
Li89 N113 1.990 . S
Li89 O148 1.970 . S
Li89 O149 1.956 . S
Li89 O151 1.961 . S
Li90 N135 1.990 . S
Li90 O148 1.961 . S
Li90 O150 1.956 . S
Li90 O151 1.970 . S
Li91 N141 1.990 1_655 S
Li91 O149 1.961 . S
Li91 O150 1.970 . S
Li91 O151 1.956 . S
C92 C94 1.348 . S
C92 C95 1.356 . S
C92 O148 1.325 . S
N93 C96 1.314 . S
N93 C97 1.279 . S
C94 C92 1.348 . S
C94 C96 1.353 . S
C94 H152 0.929 . S
C95 C92 1.356 . S
C95 C97 1.358 . S
C95 H153 0.930 . S
C96 N93 1.314 . S
C96 C94 1.353 . S
C96 H154 0.930 . S
C97 N93 1.279 . S
C97 C95 1.358 . S
C97 H155 0.930 . S
C98 C101 1.348 . S
C98 C102 1.356 . S
C98 O149 1.325 . S
C99 N100 1.279 . S
C99 C102 1.358 . S
C99 H156 0.956 . S
N100 C99 1.279 . S
N100 C103 1.314 . S
C101 C98 1.348 . S
C101 C103 1.353 . S
C101 H157 0.929 . S
C102 C98 1.356 . S
C102 C99 1.358 . S
C102 H158 0.930 . S
C103 N100 1.314 . S
C103 C101 1.353 . S
C103 H159 0.930 . S
C104 N105 1.314 . S
C104 C109 1.353 . S
C104 H110 0.930 . S
N105 Li88 1.990 . S
N105 C104 1.314 . S
N105 C107 1.279 . S
C106 C107 1.358 . S
C106 C108 1.356 . S
C106 H160 0.930 . S
C107 N105 1.279 . S
C107 C106 1.358 . S
C107 H111 0.930 . S
C108 C106 1.356 . S
C108 C109 1.348 . S
C109 C104 1.353 . S
C109 C108 1.348 . S
C109 H161 0.929 . S
H110 C104 0.930 . S
H111 C107 0.930 . S
C112 N113 1.314 . S
C112 C114 1.353 . S
C112 H118 0.930 . S
N113 Li89 1.990 . S
N113 C112 1.314 . S
N113 C116 1.279 . S
C114 C112 1.353 . S
C114 C117 1.348 . S
C114 H162 0.929 . S
C115 C116 1.358 . S
C115 C117 1.356 . S
C115 H163 0.930 . S
C116 N113 1.279 . S
C116 C115 1.358 . S
C116 H119 0.930 . S
C117 C114 1.348 . S
C117 C115 1.356 . S
H118 C112 0.930 . S
H119 C116 0.930 . S
C120 C122 1.348 . S
C120 C123 1.356 . S
C120 O150 1.325 . S
N121 C124 1.314 . S
N121 C125 1.279 . S
C122 C120 1.348 . S
C122 C124 1.353 . S
C122 H164 0.929 . S
C123 C120 1.356 . S
C123 C125 1.358 . S
C123 H165 0.930 . S
C124 N121 1.314 . S
C124 C122 1.353 . S
C124 H166 0.930 . S
C125 N121 1.279 . S
C125 C123 1.358 . S
C125 H167 0.930 . S
C126 C127 1.352 1_655 S
C126 C128 1.340 1_655 S
C126 O151 1.334 . S
C127 C126 1.352 1_455 S
C127 C129 1.353 . S
C127 H168 0.929 1_455 S
C128 C126 1.340 1_455 S
C128 C130 1.358 . S
C128 H169 0.930 . S
C129 C127 1.353 . S
C129 N131 1.314 . S
C129 H170 0.930 . S
C130 C128 1.358 . S
C130 N131 1.279 . S
C130 H171 0.930 . S
N131 C129 1.314 . S
N131 C130 1.279 . S
C132 C134 1.353 . S
C132 N135 1.314 . S
C132 H138 0.930 . S
C133 N135 1.279 . S
C133 C136 1.358 . S
C133 H139 0.930 . S
C134 C132 1.353 . S
C134 C137 1.348 . S
C134 H172 0.929 . S
N135 Li90 1.990 . S
N135 C132 1.314 . S
N135 C133 1.279 . S
C136 C133 1.358 . S
C136 C137 1.356 . S
C136 H173 0.930 . S
C137 C134 1.348 . S
C137 C136 1.356 . S
H138 C132 0.930 . S
H139 C133 0.930 . S
C140 N141 1.314 . S
C140 C142 1.353 . S
C140 H146 0.930 1_455 S
N141 Li91 1.990 1_455 S
N141 C140 1.314 . S
N141 C144 1.279 . S
C142 C140 1.353 . S
C142 C145 1.348 . S
C142 H174 0.929 . S
C143 C144 1.358 . S
C143 C145 1.356 . S
C143 H175 0.930 . S
C144 N141 1.279 . S
C144 C143 1.358 . S
C144 H147 0.930 . S
C145 C142 1.348 . S
C145 C143 1.356 . S
H146 C140 0.930 1_655 S
H147 C144 0.930 . S
O148 Li88 1.956 . S
O148 Li89 1.970 . S
O148 Li90 1.961 . S
O148 C92 1.325 . S
O149 Li88 1.970 . S
O149 Li89 1.956 . S
O149 Li91 1.961 . S
O149 C98 1.325 . S
O150 Li88 1.961 . S
O150 Li90 1.956 . S
O150 Li91 1.970 . S
O150 C120 1.325 . S
O151 Li89 1.961 . S
O151 Li90 1.970 . S
O151 Li91 1.956 . S
O151 C126 1.334 . S
H152 C94 0.929 . S
H153 C95 0.930 . S
H154 C96 0.930 . S
H155 C97 0.930 . S
H156 C99 0.956 . S
H157 C101 0.929 . S
H158 C102 0.930 . S
H159 C103 0.930 . S
H160 C106 0.930 . S
H161 C109 0.929 . S
H162 C114 0.929 . S
H163 C115 0.930 . S
H164 C122 0.929 . S
H165 C123 0.930 . S
H166 C124 0.930 . S
H167 C125 0.930 . S
H168 C127 0.929 1_655 S
H169 C128 0.930 . S
H170 C129 0.930 . S
H171 C130 0.930 . S
H172 C134 0.929 . S
H173 C136 0.930 . S
H174 C142 0.929 . S
H175 C143 0.930 . S
Li176 N193 1.990 . S
Li176 O236 1.956 . S
Li176 O237 1.970 . S
Li176 O238 1.961 . S
Li177 N201 1.990 . S
Li177 O236 1.970 . S
Li177 O237 1.956 . S
Li177 O239 1.961 . S
Li178 N223 1.990 1_565 S
Li178 O236 1.961 . S
Li178 O238 1.956 . S
Li178 O239 1.970 . S
Li179 N229 1.990 . S
Li179 O237 1.961 . S
Li179 O238 1.970 . S
Li179 O239 1.956 . S
C180 C182 1.348 . S
C180 C183 1.356 . S
C180 O236 1.325 . S
N181 C184 1.314 . S
N181 C185 1.279 . S
C182 C180 1.348 . S
C182 C184 1.353 . S
C182 H240 0.929 . S
C183 C180 1.356 . S
C183 C185 1.358 . S
C183 H241 0.930 . S
C184 N181 1.314 . S
C184 C182 1.353 . S
C184 H242 0.930 . S
C185 N181 1.279 . S
C185 C183 1.358 . S
C185 H243 0.949 . S
C186 C189 1.348 . S
C186 C190 1.356 . S
C186 O237 1.325 . S
C187 N188 1.279 . S
C187 C190 1.358 . S
C187 H244 0.930 . S
N188 C187 1.279 . S
N188 C191 1.314 . S
C189 C186 1.348 . S
C189 C191 1.353 . S
C189 H245 0.929 . S
C190 C186 1.356 . S
C190 C187 1.358 . S
C190 H246 0.930 . S
C191 N188 1.314 . S
C191 C189 1.353 . S
C191 H247 0.930 . S
C192 N193 1.314 . S
C192 C197 1.353 . S
C192 H198 0.930 . S
N193 Li176 1.990 . S
N193 C192 1.314 . S
N193 C195 1.279 . S
C194 C195 1.358 . S
C194 C196 1.356 . S
C194 H248 0.930 . S
C195 N193 1.279 . S
C195 C194 1.358 . S
C195 H199 0.930 . S
C196 C194 1.356 . S
C196 C197 1.348 . S
C197 C192 1.353 . S
C197 C196 1.348 . S
C197 H249 0.929 . S
H198 C192 0.930 . S
H199 C195 0.930 . S
C200 N201 1.314 . S
C200 C202 1.353 . S
C200 H206 0.930 . S
N201 Li177 1.990 . S
N201 C200 1.314 . S
N201 C204 1.279 . S
C202 C200 1.353 . S
C202 C205 1.348 . S
C202 H250 0.929 . S
C203 C204 1.358 . S
C203 C205 1.356 . S
C203 H251 0.930 . S
C204 N201 1.279 . S
C204 C203 1.358 . S
C204 H207 0.930 . S
C205 C202 1.348 . S
C205 C203 1.356 . S
H206 C200 0.930 . S
H207 C204 0.930 . S
C208 C210 1.333 1_565 S
C208 C211 1.348 1_565 S
C208 O238 1.345 . S
N209 C212 1.314 . S
N209 C213 1.279 . S
C210 C208 1.333 1_545 S
C210 C212 1.353 . S
C210 H252 0.929 1_545 S
C211 C208 1.348 1_545 S
C211 C213 1.358 . S
C211 H253 0.930 . S
C212 N209 1.314 . S
C212 C210 1.353 . S
C212 H254 0.930 . S
C213 N209 1.279 . S
C213 C211 1.358 . S
C213 H255 0.930 . S
C214 C215 1.348 . S
C214 C216 1.356 . S
C214 O239 1.325 . S
C215 C214 1.348 . S
C215 C217 1.353 . S
C215 H256 0.929 . S
C216 C214 1.356 . S
C216 C218 1.358 . S
C216 H257 0.930 . S
C217 C215 1.353 . S
C217 N219 1.314 . S
C217 H258 0.930 . S
C218 C216 1.358 . S
C218 N219 1.279 . S
C218 H259 0.930 . S
N219 C217 1.314 . S
N219 C218 1.279 . S
C220 C222 1.353 . S
C220 N223 1.314 . S
C220 H226 0.930 1_545 S
C221 N223 1.279 . S
C221 C224 1.358 . S
C221 H227 0.930 . S
C222 C220 1.353 . S
C222 C225 1.348 . S
C222 H260 0.929 . S
N223 Li178 1.990 1_545 S
N223 C220 1.314 . S
N223 C221 1.279 . S
C224 C221 1.358 . S
C224 C225 1.356 . S
C224 H261 0.930 . S
C225 C222 1.348 . S
C225 C224 1.356 . S
H226 C220 0.930 1_565 S
H227 C221 0.930 . S
C228 N229 1.314 . S
C228 C230 1.353 . S
C228 H234 0.930 . S
N229 Li179 1.990 . S
N229 C228 1.314 . S
N229 C232 1.279 . S
C230 C228 1.353 . S
C230 C233 1.348 . S
C230 H262 0.929 . S
C231 C232 1.358 . S
C231 C233 1.356 . S
C231 H263 0.930 . S
C232 N229 1.279 . S
C232 C231 1.358 . S
C232 H235 0.930 . S
C233 C230 1.348 . S
C233 C231 1.356 . S
H234 C228 0.930 . S
H235 C232 0.930 . S
O236 Li176 1.956 . S
O236 Li177 1.970 . S
O236 Li178 1.961 . S
O236 C180 1.325 . S
O237 Li176 1.970 . S
O237 Li177 1.956 . S
O237 Li179 1.961 . S
O237 C186 1.325 . S
O238 Li176 1.961 . S
O238 Li178 1.956 . S
O238 Li179 1.970 . S
O238 C208 1.345 . S
O239 Li177 1.961 . S
O239 Li178 1.970 . S
O239 Li179 1.956 . S
O239 C214 1.325 . S
H240 C182 0.929 . S
H241 C183 0.930 . S
H242 C184 0.930 . S
H243 C185 0.949 . S
H244 C187 0.930 . S
H245 C189 0.929 . S
H246 C190 0.930 . S
H247 C191 0.930 . S
H248 C194 0.930 . S
H249 C197 0.929 . S
H250 C202 0.929 . S
H251 C203 0.930 . S
H252 C210 0.929 1_565 S
H253 C211 0.930 . S
H254 C212 0.930 . S
H255 C213 0.930 . S
H256 C215 0.929 . S
H257 C216 0.930 . S
H258 C217 0.930 . S
H259 C218 0.930 . S
H260 C222 0.929 . S
H261 C224 0.930 . S
H262 C230 0.929 . S
H263 C231 0.930 . S
Li264 N281 1.990 . S
Li264 O324 1.956 . S
Li264 O325 1.970 . S
Li264 O326 1.961 . S
Li265 N289 1.990 . S
Li265 O324 1.970 . S
Li265 O325 1.956 . S
Li265 O327 1.961 . S
Li266 N311 1.990 . S
Li266 O324 1.961 . S
Li266 O326 1.956 . S
Li266 O327 1.970 . S
Li267 N317 1.990 . S
Li267 O325 1.961 . S
Li267 O326 1.970 . S
Li267 O327 1.956 . S
C268 C270 1.348 . S
C268 C271 1.356 . S
C268 O324 1.325 . S
N269 C272 1.314 . S
N269 C273 1.279 . S
C270 C268 1.348 . S
C270 C272 1.353 . S
C270 H328 0.929 . S
C271 C268 1.356 . S
C271 C273 1.358 . S
C271 H329 0.930 . S
C272 N269 1.314 . S
C272 C270 1.353 . S
C272 H330 0.930 . S
C273 N269 1.279 . S
C273 C271 1.358 . S
C273 H331 0.930 . S
C274 C277 1.348 . S
C274 C278 1.356 . S
C274 O325 1.325 . S
C275 N276 1.279 . S
C275 C278 1.358 . S
C275 H332 0.930 . S
N276 C275 1.279 . S
N276 C279 1.314 . S
C277 C274 1.348 . S
C277 C279 1.353 . S
C277 H333 0.929 . S
C278 C274 1.356 . S
C278 C275 1.358 . S
C278 H334 0.930 . S
C279 N276 1.314 . S
C279 C277 1.353 . S
C279 H335 0.930 . S
C280 N281 1.314 . S
C280 C285 1.353 . S
C280 H286 0.930 . S
N281 Li264 1.990 . S
N281 C280 1.314 . S
N281 C283 1.279 . S
C282 C283 1.358 . S
C282 C284 1.356 . S
C282 H336 0.930 . S
C283 N281 1.279 . S
C283 C282 1.358 . S
C283 H287 0.930 . S
C284 C282 1.356 . S
C284 C285 1.348 . S
C285 C280 1.353 . S
C285 C284 1.348 . S
C285 H337 0.929 . S
H286 C280 0.930 . S
H287 C283 0.930 . S
C288 N289 1.314 . S
C288 C290 1.353 . S
C288 H294 0.930 . S
N289 Li265 1.990 . S
N289 C288 1.314 . S
N289 C292 1.279 . S
C290 C288 1.353 . S
C290 C293 1.348 . S
C290 H338 0.929 . S
C291 C292 1.358 . S
C291 C293 1.356 . S
C291 H339 0.930 . S
C292 N289 1.279 . S
C292 C291 1.358 . S
C292 H295 0.930 . S
C293 C290 1.348 . S
C293 C291 1.356 . S
H294 C288 0.930 . S
H295 C292 0.930 . S
C296 C298 1.348 . S
C296 C299 1.356 . S
C296 O326 1.325 . S
N297 C300 1.314 . S
N297 C301 1.279 . S
C298 C296 1.348 . S
C298 C300 1.353 . S
C298 H340 0.929 . S
C299 C296 1.356 . S
C299 C301 1.358 . S
C299 H341 0.930 . S
C300 N297 1.314 . S
C300 C298 1.353 . S
C300 H342 0.930 . S
C301 N297 1.279 . S
C301 C299 1.358 . S
C301 H343 0.930 . S
C302 C303 1.348 . S
C302 C304 1.356 . S
C302 O327 1.325 . S
C303 C302 1.348 . S
C303 C305 1.353 . S
C303 H344 0.929 . S
C304 C302 1.356 . S
C304 C306 1.358 . S
C304 H345 0.930 . S
C305 C303 1.353 . S
C305 N307 1.314 . S
C305 H346 0.930 . S
C306 C304 1.358 . S
C306 N307 1.279 . S
C306 H347 0.930 . S
N307 C305 1.314 . S
N307 C306 1.279 . S
C308 C310 1.353 . S
C308 N311 1.314 . S
C308 H314 0.930 . S
C309 N311 1.279 . S
C309 C312 1.358 . S
C309 H315 0.930 . S
C310 C308 1.353 . S
C310 C313 1.348 . S
C310 H348 0.929 . S
N311 Li266 1.990 . S
N311 C308 1.314 . S
N311 C309 1.279 . S
C312 C309 1.358 . S
C312 C313 1.356 . S
C312 H349 0.930 . S
C313 C310 1.348 . S
C313 C312 1.356 . S
H314 C308 0.930 . S
H315 C309 0.930 . S
C316 N317 1.314 . S
C316 C318 1.353 . S
C316 H322 0.930 . S
N317 Li267 1.990 . S
N317 C316 1.314 . S
N317 C320 1.279 . S
C318 C316 1.353 . S
C318 C321 1.348 . S
C318 H350 0.929 . S
C319 C320 1.358 . S
C319 C321 1.356 . S
C319 H351 0.930 . S
C320 N317 1.279 . S
C320 C319 1.358 . S
C320 H323 0.930 . S
C321 C318 1.348 . S
C321 C319 1.356 . S
H322 C316 0.930 . S
H323 C320 0.930 . S
O324 Li264 1.956 . S
O324 Li265 1.970 . S
O324 Li266 1.961 . S
O324 C268 1.325 . S
O325 Li264 1.970 . S
O325 Li265 1.956 . S
O325 Li267 1.961 . S
O325 C274 1.325 . S
O326 Li264 1.961 . S
O326 Li266 1.956 . S
O326 Li267 1.970 . S
O326 C296 1.325 . S
O327 Li265 1.961 . S
O327 Li266 1.970 . S
O327 Li267 1.956 . S
O327 C302 1.325 . S
H328 C270 0.929 . S
H329 C271 0.930 . S
H330 C272 0.930 . S
H331 C273 0.930 . S
H332 C275 0.930 . S
H333 C277 0.929 . S
H334 C278 0.930 . S
H335 C279 0.930 . S
H336 C282 0.930 . S
H337 C285 0.929 . S
H338 C290 0.929 . S
H339 C291 0.930 . S
H340 C298 0.929 . S
H341 C299 0.930 . S
H342 C300 0.930 . S
H343 C301 0.930 . S
H344 C303 0.929 . S
H345 C304 0.930 . S
H346 C305 0.930 . S
H347 C306 0.930 . S
H348 C310 0.929 . S
H349 C312 0.930 . S
H350 C318 0.929 . S
H351 C319 0.930 . S
Li352 N369 1.990 . S
Li352 O412 1.956 . S
Li352 O413 1.970 . S
Li352 O414 1.961 . S
Li353 N377 1.990 . S
Li353 O412 1.970 . S
Li353 O413 1.956 . S
Li353 O415 1.961 . S
Li354 N399 1.990 . S
Li354 O412 1.961 . S
Li354 O414 1.956 . S
Li354 O415 1.970 . S
Li355 N405 1.990 1_455 S
Li355 O413 1.961 . S
Li355 O414 1.970 . S
Li355 O415 1.956 . S
C356 C358 1.348 . S
C356 C359 1.356 . S
C356 O412 1.325 . S
N357 C360 1.314 . S
N357 C361 1.279 . S
C358 C356 1.348 . S
C358 C360 1.353 . S
C358 H416 0.929 . S
C359 C356 1.356 . S
C359 C361 1.358 . S
C359 H417 0.930 . S
C360 N357 1.314 . S
C360 C358 1.353 . S
C360 H418 0.930 . S
C361 N357 1.279 . S
C361 C359 1.358 . S
C361 H419 0.930 . S
C362 C365 1.348 . S
C362 C366 1.356 . S
C362 O413 1.325 . S
C363 N364 1.279 . S
C363 C366 1.358 . S
C363 H420 0.956 . S
N364 C363 1.279 . S
N364 C367 1.314 . S
C365 C362 1.348 . S
C365 C367 1.353 . S
C365 H421 0.929 . S
C366 C362 1.356 . S
C366 C363 1.358 . S
C366 H422 0.930 . S
C367 N364 1.314 . S
C367 C365 1.353 . S
C367 H423 0.930 . S
C368 N369 1.314 . S
C368 C373 1.353 . S
C368 H374 0.930 . S
N369 Li352 1.990 . S
N369 C368 1.314 . S
N369 C371 1.279 . S
C370 C371 1.358 . S
C370 C372 1.356 . S
C370 H424 0.930 . S
C371 N369 1.279 . S
C371 C370 1.358 . S
C371 H375 0.930 . S
C372 C370 1.356 . S
C372 C373 1.348 . S
C373 C368 1.353 . S
C373 C372 1.348 . S
C373 H425 0.929 . S
H374 C368 0.930 . S
H375 C371 0.930 . S
C376 N377 1.314 . S
C376 C378 1.353 . S
C376 H382 0.930 . S
N377 Li353 1.990 . S
N377 C376 1.314 . S
N377 C380 1.279 . S
C378 C376 1.353 . S
C378 C381 1.348 . S
C378 H426 0.929 . S
C379 C380 1.358 . S
C379 C381 1.356 . S
C379 H427 0.930 . S
C380 N377 1.279 . S
C380 C379 1.358 . S
C380 H383 0.930 . S
C381 C378 1.348 . S
C381 C379 1.356 . S
H382 C376 0.930 . S
H383 C380 0.930 . S
C384 C386 1.348 . S
C384 C387 1.356 . S
C384 O414 1.325 . S
N385 C388 1.314 . S
N385 C389 1.279 . S
C386 C384 1.348 . S
C386 C388 1.353 . S
C386 H428 0.929 . S
C387 C384 1.356 . S
C387 C389 1.358 . S
C387 H429 0.930 . S
C388 N385 1.314 . S
C388 C386 1.353 . S
C388 H430 0.930 . S
C389 N385 1.279 . S
C389 C387 1.358 . S
C389 H431 0.930 . S
C390 C391 1.352 1_455 S
C390 C392 1.340 1_455 S
C390 O415 1.334 . S
C391 C390 1.352 1_655 S
C391 C393 1.353 . S
C391 H432 0.929 1_655 S
C392 C390 1.340 1_655 S
C392 C394 1.358 . S
C392 H433 0.930 . S
C393 C391 1.353 . S
C393 N395 1.314 . S
C393 H434 0.930 . S
C394 C392 1.358 . S
C394 N395 1.279 . S
C394 H435 0.930 . S
N395 C393 1.314 . S
N395 C394 1.279 . S
C396 C398 1.353 . S
C396 N399 1.314 . S
C396 H402 0.930 . S
C397 N399 1.279 . S
C397 C400 1.358 . S
C397 H403 0.930 . S
C398 C396 1.353 . S
C398 C401 1.348 . S
C398 H436 0.929 . S
N399 Li354 1.990 . S
N399 C396 1.314 . S
N399 C397 1.279 . S
C400 C397 1.358 . S
C400 C401 1.356 . S
C400 H437 0.930 . S
C401 C398 1.348 . S
C401 C400 1.356 . S
H402 C396 0.930 . S
H403 C397 0.930 . S
C404 N405 1.314 . S
C404 C406 1.353 . S
C404 H410 0.930 1_655 S
N405 Li355 1.990 1_655 S
N405 C404 1.314 . S
N405 C408 1.279 . S
C406 C404 1.353 . S
C406 C409 1.348 . S
C406 H438 0.929 . S
C407 C408 1.358 . S
C407 C409 1.356 . S
C407 H439 0.930 . S
C408 N405 1.279 . S
C408 C407 1.358 . S
C408 H411 0.930 . S
C409 C406 1.348 . S
C409 C407 1.356 . S
H410 C404 0.930 1_455 S
H411 C408 0.930 . S
O412 Li352 1.956 . S
O412 Li353 1.970 . S
O412 Li354 1.961 . S
O412 C356 1.325 . S
O413 Li352 1.970 . S
O413 Li353 1.956 . S
O413 Li355 1.961 . S
O413 C362 1.325 . S
O414 Li352 1.961 . S
O414 Li354 1.956 . S
O414 Li355 1.970 . S
O414 C384 1.325 . S
O415 Li353 1.961 . S
O415 Li354 1.970 . S
O415 Li355 1.956 . S
O415 C390 1.334 . S
H416 C358 0.929 . S
H417 C359 0.930 . S
H418 C360 0.930 . S
H419 C361 0.930 . S
H420 C363 0.956 . S
H421 C365 0.929 . S
H422 C366 0.930 . S
H423 C367 0.930 . S
H424 C370 0.930 . S
H425 C373 0.929 . S
H426 C378 0.929 . S
H427 C379 0.930 . S
H428 C386 0.929 . S
H429 C387 0.930 . S
H430 C388 0.930 . S
H431 C389 0.930 . S
H432 C391 0.929 1_455 S
H433 C392 0.930 . S
H434 C393 0.930 . S
H435 C394 0.930 . S
H436 C398 0.929 . S
H437 C400 0.930 . S
H438 C406 0.929 . S
H439 C407 0.930 . S
Li440 N457 1.990 . S
Li440 O500 1.956 . S
Li440 O501 1.970 . S
Li440 O502 1.961 . S
Li441 N465 1.990 . S
Li441 O500 1.970 . S
Li441 O501 1.956 . S
Li441 O503 1.961 . S
Li442 N487 1.990 1_545 S
Li442 O500 1.961 . S
Li442 O502 1.956 . S
Li442 O503 1.970 . S
Li443 N493 1.990 . S
Li443 O501 1.961 . S
Li443 O502 1.970 . S
Li443 O503 1.956 . S
C444 C446 1.348 . S
C444 C447 1.356 . S
C444 O500 1.325 . S
N445 C448 1.314 . S
N445 C449 1.279 . S
C446 C444 1.348 . S
C446 C448 1.353 . S
C446 H504 0.929 . S
C447 C444 1.356 . S
C447 C449 1.358 . S
C447 H505 0.930 . S
C448 N445 1.314 . S
C448 C446 1.353 . S
C448 H506 0.930 . S
C449 N445 1.279 . S
C449 C447 1.358 . S
C449 H507 0.949 . S
C450 C453 1.348 . S
C450 C454 1.356 . S
C450 O501 1.325 . S
C451 N452 1.279 . S
C451 C454 1.358 . S
C451 H508 0.930 . S
N452 C451 1.279 . S
N452 C455 1.314 . S
C453 C450 1.348 . S
C453 C455 1.353 . S
C453 H509 0.929 . S
C454 C450 1.356 . S
C454 C451 1.358 . S
C454 H510 0.930 . S
C455 N452 1.314 . S
C455 C453 1.353 . S
C455 H511 0.930 . S
C456 N457 1.314 . S
C456 C461 1.353 . S
C456 H462 0.930 . S
N457 Li440 1.990 . S
N457 C456 1.314 . S
N457 C459 1.279 . S
C458 C459 1.358 . S
C458 C460 1.356 . S
C458 H512 0.930 . S
C459 N457 1.279 . S
C459 C458 1.358 . S
C459 H463 0.930 . S
C460 C458 1.356 . S
C460 C461 1.348 . S
C461 C456 1.353 . S
C461 C460 1.348 . S
C461 H513 0.929 . S
H462 C456 0.930 . S
H463 C459 0.930 . S
C464 N465 1.314 . S
C464 C466 1.353 . S
C464 H470 0.930 . S
N465 Li441 1.990 . S
N465 C464 1.314 . S
N465 C468 1.279 . S
C466 C464 1.353 . S
C466 C469 1.348 . S
C466 H514 0.929 . S
C467 C468 1.358 . S
C467 C469 1.356 . S
C467 H515 0.930 . S
C468 N465 1.279 . S
C468 C467 1.358 . S
C468 H471 0.930 . S
C469 C466 1.348 . S
C469 C467 1.356 . S
H470 C464 0.930 . S
H471 C468 0.930 . S
C472 C474 1.333 1_545 S
C472 C475 1.348 1_545 S
C472 O502 1.345 . S
N473 C476 1.314 . S
N473 C477 1.279 . S
C474 C472 1.333 1_565 S
C474 C476 1.353 . S
C474 H516 0.929 1_565 S
C475 C472 1.348 1_565 S
C475 C477 1.358 . S
C475 H517 0.930 . S
C476 N473 1.314 . S
C476 C474 1.353 . S
C476 H518 0.930 . S
C477 N473 1.279 . S
C477 C475 1.358 . S
C477 H519 0.930 . S
C478 C479 1.348 . S
C478 C480 1.356 . S
C478 O503 1.325 . S
C479 C478 1.348 . S
C479 C481 1.353 . S
C479 H520 0.929 . S
C480 C478 1.356 . S
C480 C482 1.358 . S
C480 H521 0.930 . S
C481 C479 1.353 . S
C481 N483 1.314 . S
C481 H522 0.930 . S
C482 C480 1.358 . S
C482 N483 1.279 . S
C482 H523 0.930 . S
N483 C481 1.314 . S
N483 C482 1.279 . S
C484 C486 1.353 . S
C484 N487 1.314 . S
C484 H490 0.930 1_565 S
C485 N487 1.279 . S
C485 C488 1.358 . S
C485 H491 0.930 . S
C486 C484 1.353 . S
C486 C489 1.348 . S
C486 H524 0.929 . S
N487 Li442 1.990 1_565 S
N487 C484 1.314 . S
N487 C485 1.279 . S
C488 C485 1.358 . S
C488 C489 1.356 . S
C488 H525 0.930 . S
C489 C486 1.348 . S
C489 C488 1.356 . S
H490 C484 0.930 1_545 S
H491 C485 0.930 . S
C492 N493 1.314 . S
C492 C494 1.353 . S
C492 H498 0.930 . S
N493 Li443 1.990 . S
N493 C492 1.314 . S
N493 C496 1.279 . S
C494 C492 1.353 . S
C494 C497 1.348 . S
C494 H526 0.929 . S
C495 C496 1.358 . S
C495 C497 1.356 . S
C495 H527 0.930 . S
C496 N493 1.279 . S
C496 C495 1.358 . S
C496 H499 0.930 . S
C497 C494 1.348 . S
C497 C495 1.356 . S
H498 C492 0.930 . S
H499 C496 0.930 . S
O500 Li440 1.956 . S
O500 Li441 1.970 . S
O500 Li442 1.961 . S
O500 C444 1.325 . S
O501 Li440 1.970 . S
O501 Li441 1.956 . S
O501 Li443 1.961 . S
O501 C450 1.325 . S
O502 Li440 1.961 . S
O502 Li442 1.956 . S
O502 Li443 1.970 . S
O502 C472 1.345 . S
O503 Li441 1.961 . S
O503 Li442 1.970 . S
O503 Li443 1.956 . S
O503 C478 1.325 . S
H504 C446 0.929 . S
H505 C447 0.930 . S
H506 C448 0.930 . S
H507 C449 0.949 . S
H508 C451 0.930 . S
H509 C453 0.929 . S
H510 C454 0.930 . S
H511 C455 0.930 . S
H512 C458 0.930 . S
H513 C461 0.929 . S
H514 C466 0.929 . S
H515 C467 0.930 . S
H516 C474 0.929 1_545 S
H517 C475 0.930 . S
H518 C476 0.930 . S
H519 C477 0.930 . S
H520 C479 0.929 . S
H521 C480 0.930 . S
H522 C481 0.930 . S
H523 C482 0.930 . S
H524 C486 0.929 . S
H525 C488 0.930 . S
H526 C494 0.929 . S
H527 C495 0.930 . S
Li528 N545 1.990 . S
Li528 O588 1.956 . S
Li528 O589 1.970 . S
Li528 O590 1.961 . S
Li529 N553 1.990 . S
Li529 O588 1.970 . S
Li529 O589 1.956 . S
Li529 O591 1.961 . S
Li530 N575 1.990 . S
Li530 O588 1.961 . S
Li530 O590 1.956 . S
Li530 O591 1.970 . S
Li531 N581 1.990 . S
Li531 O589 1.961 . S
Li531 O590 1.970 . S
Li531 O591 1.956 . S
C532 C534 1.348 . S
C532 C535 1.356 . S
C532 O588 1.325 . S
N533 C536 1.314 . S
N533 C537 1.279 . S
C534 C532 1.348 . S
C534 C536 1.353 . S
C534 H592 0.929 . S
C535 C532 1.356 . S
C535 C537 1.358 . S
C535 H593 0.930 . S
C536 N533 1.314 . S
C536 C534 1.353 . S
C536 H594 0.930 . S
C537 N533 1.279 . S
C537 C535 1.358 . S
C537 H595 0.930 . S
C538 C541 1.348 . S
C538 C542 1.356 . S
C538 O589 1.325 . S
C539 N540 1.279 . S
C539 C542 1.358 . S
C539 H596 0.930 . S
N540 C539 1.279 . S
N540 C543 1.314 . S
C541 C538 1.348 . S
C541 C543 1.353 . S
C541 H597 0.929 . S
C542 C538 1.356 . S
C542 C539 1.358 . S
C542 H598 0.930 . S
C543 N540 1.314 . S
C543 C541 1.353 . S
C543 H599 0.930 . S
C544 N545 1.314 . S
C544 C549 1.353 . S
C544 H550 0.930 . S
N545 Li528 1.990 . S
N545 C544 1.314 . S
N545 C547 1.279 . S
C546 C547 1.358 . S
C546 C548 1.356 . S
C546 H600 0.930 . S
C547 N545 1.279 . S
C547 C546 1.358 . S
C547 H551 0.930 . S
C548 C546 1.356 . S
C548 C549 1.348 . S
C549 C544 1.353 . S
C549 C548 1.348 . S
C549 H601 0.929 . S
H550 C544 0.930 . S
H551 C547 0.930 . S
C552 N553 1.314 . S
C552 C554 1.353 . S
C552 H558 0.930 . S
N553 Li529 1.990 . S
N553 C552 1.314 . S
N553 C556 1.279 . S
C554 C552 1.353 . S
C554 C557 1.348 . S
C554 H602 0.929 . S
C555 C556 1.358 . S
C555 C557 1.356 . S
C555 H603 0.930 . S
C556 N553 1.279 . S
C556 C555 1.358 . S
C556 H559 0.930 . S
C557 C554 1.348 . S
C557 C555 1.356 . S
H558 C552 0.930 . S
H559 C556 0.930 . S
C560 C562 1.348 . S
C560 C563 1.356 . S
C560 O590 1.325 . S
N561 C564 1.314 . S
N561 C565 1.279 . S
C562 C560 1.348 . S
C562 C564 1.353 . S
C562 H604 0.929 . S
C563 C560 1.356 . S
C563 C565 1.358 . S
C563 H605 0.930 . S
C564 N561 1.314 . S
C564 C562 1.353 . S
C564 H606 0.930 . S
C565 N561 1.279 . S
C565 C563 1.358 . S
C565 H607 0.930 . S
C566 C567 1.348 . S
C566 C568 1.356 . S
C566 O591 1.325 . S
C567 C566 1.348 . S
C567 C569 1.353 . S
C567 H608 0.929 . S
C568 C566 1.356 . S
C568 C570 1.358 . S
C568 H609 0.930 . S
C569 C567 1.353 . S
C569 N571 1.314 . S
C569 H610 0.930 . S
C570 C568 1.358 . S
C570 N571 1.279 . S
C570 H611 0.930 . S
N571 C569 1.314 . S
N571 C570 1.279 . S
C572 C574 1.353 . S
C572 N575 1.314 . S
C572 H578 0.930 . S
C573 N575 1.279 . S
C573 C576 1.358 . S
C573 H579 0.930 . S
C574 C572 1.353 . S
C574 C577 1.348 . S
C574 H612 0.929 . S
N575 Li530 1.990 . S
N575 C572 1.314 . S
N575 C573 1.279 . S
C576 C573 1.358 . S
C576 C577 1.356 . S
C576 H613 0.930 . S
C577 C574 1.348 . S
C577 C576 1.356 . S
H578 C572 0.930 . S
H579 C573 0.930 . S
C580 N581 1.314 . S
C580 C582 1.353 . S
C580 H586 0.930 . S
N581 Li531 1.990 . S
N581 C580 1.314 . S
N581 C584 1.279 . S
C582 C580 1.353 . S
C582 C585 1.348 . S
C582 H614 0.929 . S
C583 C584 1.358 . S
C583 C585 1.356 . S
C583 H615 0.930 . S
C584 N581 1.279 . S
C584 C583 1.358 . S
C584 H587 0.930 . S
C585 C582 1.348 . S
C585 C583 1.356 . S
H586 C580 0.930 . S
H587 C584 0.930 . S
O588 Li528 1.956 . S
O588 Li529 1.970 . S
O588 Li530 1.961 . S
O588 C532 1.325 . S
O589 Li528 1.970 . S
O589 Li529 1.956 . S
O589 Li531 1.961 . S
O589 C538 1.325 . S
O590 Li528 1.961 . S
O590 Li530 1.956 . S
O590 Li531 1.970 . S
O590 C560 1.325 . S
O591 Li529 1.961 . S
O591 Li530 1.970 . S
O591 Li531 1.956 . S
O591 C566 1.325 . S
H592 C534 0.929 . S
H593 C535 0.930 . S
H594 C536 0.930 . S
H595 C537 0.930 . S
H596 C539 0.930 . S
H597 C541 0.929 . S
H598 C542 0.930 . S
H599 C543 0.930 . S
H600 C546 0.930 . S
H601 C549 0.929 . S
H602 C554 0.929 . S
H603 C555 0.930 . S
H604 C562 0.929 . S
H605 C563 0.930 . S
H606 C564 0.930 . S
H607 C565 0.930 . S
H608 C567 0.929 . S
H609 C568 0.930 . S
H610 C569 0.930 . S
H611 C570 0.930 . S
H612 C574 0.929 . S
H613 C576 0.930 . S
H614 C582 0.929 . S
H615 C583 0.930 . S
Li616 N633 1.990 1_655 S
Li616 O676 1.956 . S
Li616 O677 1.970 . S
Li616 O678 1.961 . S
Li617 N641 1.990 . S
Li617 O676 1.970 . S
Li617 O677 1.956 . S
Li617 O679 1.961 . S
Li618 N663 1.990 . S
Li618 O676 1.961 . S
Li618 O678 1.956 . S
Li618 O679 1.970 . S
Li619 N669 1.990 . S
Li619 O677 1.961 . S
Li619 O678 1.970 . S
Li619 O679 1.956 . S
C620 C622 1.333 1_655 S
C620 C623 1.348 1_655 S
C620 O676 1.345 . S
N621 C624 1.314 . S
N621 C625 1.279 . S
C622 C620 1.333 1_455 S
C622 C624 1.353 . S
C622 H680 0.929 1_455 S
C623 C620 1.348 1_455 S
C623 C625 1.358 . S
C623 H681 0.930 . S
C624 N621 1.314 . S
C624 C622 1.353 . S
C624 H682 0.930 . S
C625 N621 1.279 . S
C625 C623 1.358 . S
C625 H683 0.930 . S
C626 C629 1.348 . S
C626 C630 1.356 . S
C626 O677 1.325 . S
C627 N628 1.279 . S
C627 C630 1.358 . S
C627 H684 0.930 . S
N628 C627 1.279 . S
N628 C631 1.314 . S
C629 C626 1.348 . S
C629 C631 1.353 . S
C629 H685 0.929 . S
C630 C626 1.356 . S
C630 C627 1.358 . S
C630 H686 0.930 . S
C631 N628 1.314 . S
C631 C629 1.353 . S
C631 H687 0.930 . S
C632 N633 1.314 . S
C632 C637 1.353 . S
C632 H638 0.930 1_455 S
N633 Li616 1.990 1_455 S
N633 C632 1.314 . S
N633 C635 1.279 . S
C634 C635 1.358 . S
C634 C636 1.356 . S
C634 H688 0.930 . S
C635 N633 1.279 . S
C635 C634 1.358 . S
C635 H639 0.930 . S
C636 C634 1.356 . S
C636 C637 1.348 . S
C637 C632 1.353 . S
C637 C636 1.348 . S
C637 H689 0.929 . S
H638 C632 0.930 1_655 S
H639 C635 0.930 . S
C640 N641 1.314 . S
C640 C642 1.353 . S
C640 H646 0.930 . S
N641 Li617 1.990 . S
N641 C640 1.314 . S
N641 C644 1.279 . S
C642 C640 1.353 . S
C642 C645 1.348 . S
C642 H690 0.929 . S
C643 C644 1.358 . S
C643 C645 1.356 . S
C643 H691 0.930 . S
C644 N641 1.279 . S
C644 C643 1.358 . S
C644 H647 0.930 . S
C645 C642 1.348 . S
C645 C643 1.356 . S
H646 C640 0.930 . S
H647 C644 0.930 . S
C648 C650 1.348 . S
C648 C651 1.356 . S
C648 O678 1.325 . S
N649 C652 1.314 . S
N649 C653 1.279 . S
C650 C648 1.348 . S
C650 C652 1.353 . S
C650 H692 0.929 . S
C651 C648 1.356 . S
C651 C653 1.358 . S
C651 H693 0.930 . S
C652 N649 1.314 . S
C652 C650 1.353 . S
C652 H694 0.930 . S
C653 N649 1.279 . S
C653 C651 1.358 . S
C653 H695 0.949 . S
C654 C655 1.348 . S
C654 C656 1.356 . S
C654 O679 1.325 . S
C655 C654 1.348 . S
C655 C657 1.353 . S
C655 H696 0.929 . S
C656 C654 1.356 . S
C656 C658 1.358 . S
C656 H697 0.930 . S
C657 C655 1.353 . S
C657 N659 1.314 . S
C657 H698 0.930 . S
C658 C656 1.358 . S
C658 N659 1.279 . S
C658 H699 0.930 . S
N659 C657 1.314 . S
N659 C658 1.279 . S
C660 C662 1.353 . S
C660 N663 1.314 . S
C660 H666 0.930 . S
C661 N663 1.279 . S
C661 C664 1.358 . S
C661 H667 0.930 . S
C662 C660 1.353 . S
C662 C665 1.348 . S
C662 H700 0.929 . S
N663 Li618 1.990 . S
N663 C660 1.314 . S
N663 C661 1.279 . S
C664 C661 1.358 . S
C664 C665 1.356 . S
C664 H701 0.930 . S
C665 C662 1.348 . S
C665 C664 1.356 . S
H666 C660 0.930 . S
H667 C661 0.930 . S
C668 N669 1.314 . S
C668 C670 1.353 . S
C668 H674 0.930 . S
N669 Li619 1.990 . S
N669 C668 1.314 . S
N669 C672 1.279 . S
C670 C668 1.353 . S
C670 C673 1.348 . S
C670 H702 0.929 . S
C671 C672 1.358 . S
C671 C673 1.356 . S
C671 H703 0.930 . S
C672 N669 1.279 . S
C672 C671 1.358 . S
C672 H675 0.930 . S
C673 C670 1.348 . S
C673 C671 1.356 . S
H674 C668 0.930 . S
H675 C672 0.930 . S
O676 Li616 1.956 . S
O676 Li617 1.970 . S
O676 Li618 1.961 . S
O676 C620 1.345 . S
O677 Li616 1.970 . S
O677 Li617 1.956 . S
O677 Li619 1.961 . S
O677 C626 1.325 . S
O678 Li616 1.961 . S
O678 Li618 1.956 . S
O678 Li619 1.970 . S
O678 C648 1.325 . S
O679 Li617 1.961 . S
O679 Li618 1.970 . S
O679 Li619 1.956 . S
O679 C654 1.325 . S
H680 C622 0.929 1_655 S
H681 C623 0.930 . S
H682 C624 0.930 . S
H683 C625 0.930 . S
H684 C627 0.930 . S
H685 C629 0.929 . S
H686 C630 0.930 . S
H687 C631 0.930 . S
H688 C634 0.930 . S
H689 C637 0.929 . S
H690 C642 0.929 . S
H691 C643 0.930 . S
H692 C650 0.929 . S
H693 C651 0.930 . S
H694 C652 0.930 . S
H695 C653 0.949 . S
H696 C655 0.929 . S
H697 C656 0.930 . S
H698 C657 0.930 . S
H699 C658 0.930 . S
H700 C662 0.929 . S
H701 C664 0.930 . S
H702 C670 0.929 . S
H703 C671 0.930 . S
Li704 N721 1.990 1_565 S
Li704 O764 1.956 . S
Li704 O765 1.970 . S
Li704 O766 1.961 . S
Li705 N729 1.990 . S
Li705 O764 1.970 . S
Li705 O765 1.956 . S
Li705 O767 1.961 . S
Li706 N751 1.990 . S
Li706 O764 1.961 . S
Li706 O766 1.956 . S
Li706 O767 1.970 . S
Li707 N757 1.990 . S
Li707 O765 1.961 . S
Li707 O766 1.970 . S
Li707 O767 1.956 . S
C708 C710 1.352 1_565 S
C708 C711 1.340 1_565 S
C708 O764 1.334 . S
N709 C712 1.314 . S
N709 C713 1.279 . S
C710 C708 1.352 1_545 S
C710 C712 1.353 . S
C710 H768 0.929 1_545 S
C711 C708 1.340 1_545 S
C711 C713 1.358 . S
C711 H769 0.930 . S
C712 N709 1.314 . S
C712 C710 1.353 . S
C712 H770 0.930 . S
C713 N709 1.279 . S
C713 C711 1.358 . S
C713 H771 0.930 . S
C714 C717 1.348 . S
C714 C718 1.356 . S
C714 O765 1.325 . S
C715 N716 1.279 . S
C715 C718 1.358 . S
C715 H772 0.930 . S
N716 C715 1.279 . S
N716 C719 1.314 . S
C717 C714 1.348 . S
C717 C719 1.353 . S
C717 H773 0.929 . S
C718 C714 1.356 . S
C718 C715 1.358 . S
C718 H774 0.930 . S
C719 N716 1.314 . S
C719 C717 1.353 . S
C719 H775 0.930 . S
C720 N721 1.314 . S
C720 C725 1.353 . S
C720 H726 0.930 1_545 S
N721 Li704 1.990 1_545 S
N721 C720 1.314 . S
N721 C723 1.279 . S
C722 C723 1.358 . S
C722 C724 1.356 . S
C722 H776 0.930 . S
C723 N721 1.279 . S
C723 C722 1.358 . S
C723 H727 0.930 . S
C724 C722 1.356 . S
C724 C725 1.348 . S
C725 C720 1.353 . S
C725 C724 1.348 . S
C725 H777 0.929 . S
H726 C720 0.930 1_565 S
H727 C723 0.930 . S
C728 N729 1.314 . S
C728 C730 1.353 . S
C728 H734 0.930 . S
N729 Li705 1.990 . S
N729 C728 1.314 . S
N729 C732 1.279 . S
C730 C728 1.353 . S
C730 C733 1.348 . S
C730 H778 0.929 . S
C731 C732 1.358 . S
C731 C733 1.356 . S
C731 H779 0.930 . S
C732 N729 1.279 . S
C732 C731 1.358 . S
C732 H735 0.930 . S
C733 C730 1.348 . S
C733 C731 1.356 . S
H734 C728 0.930 . S
H735 C732 0.930 . S
C736 C738 1.348 . S
C736 C739 1.356 . S
C736 O766 1.325 . S
N737 C740 1.314 . S
N737 C741 1.279 . S
C738 C736 1.348 . S
C738 C740 1.353 . S
C738 H780 0.929 . S
C739 C736 1.356 . S
C739 C741 1.358 . S
C739 H781 0.930 . S
C740 N737 1.314 . S
C740 C738 1.353 . S
C740 H782 0.930 . S
C741 N737 1.279 . S
C741 C739 1.358 . S
C741 H783 0.956 . S
C742 C743 1.348 . S
C742 C744 1.356 . S
C742 O767 1.325 . S
C743 C742 1.348 . S
C743 C745 1.353 . S
C743 H784 0.929 . S
C744 C742 1.356 . S
C744 C746 1.358 . S
C744 H785 0.930 . S
C745 C743 1.353 . S
C745 N747 1.314 . S
C745 H786 0.930 . S
C746 C744 1.358 . S
C746 N747 1.279 . S
C746 H787 0.930 . S
N747 C745 1.314 . S
N747 C746 1.279 . S
C748 C750 1.353 . S
C748 N751 1.314 . S
C748 H754 0.930 . S
C749 N751 1.279 . S
C749 C752 1.358 . S
C749 H755 0.930 . S
C750 C748 1.353 . S
C750 C753 1.348 . S
C750 H788 0.929 . S
N751 Li706 1.990 . S
N751 C748 1.314 . S
N751 C749 1.279 . S
C752 C749 1.358 . S
C752 C753 1.356 . S
C752 H789 0.930 . S
C753 C750 1.348 . S
C753 C752 1.356 . S
H754 C748 0.930 . S
H755 C749 0.930 . S
C756 N757 1.314 . S
C756 C758 1.353 . S
C756 H762 0.930 . S
N757 Li707 1.990 . S
N757 C756 1.314 . S
N757 C760 1.279 . S
C758 C756 1.353 . S
C758 C761 1.348 . S
C758 H790 0.929 . S
C759 C760 1.358 . S
C759 C761 1.356 . S
C759 H791 0.930 . S
C760 N757 1.279 . S
C760 C759 1.358 . S
C760 H763 0.930 . S
C761 C758 1.348 . S
C761 C759 1.356 . S
H762 C756 0.930 . S
H763 C760 0.930 . S
O764 Li704 1.956 . S
O764 Li705 1.970 . S
O764 Li706 1.961 . S
O764 C708 1.334 . S
O765 Li704 1.970 . S
O765 Li705 1.956 . S
O765 Li707 1.961 . S
O765 C714 1.325 . S
O766 Li704 1.961 . S
O766 Li706 1.956 . S
O766 Li707 1.970 . S
O766 C736 1.325 . S
O767 Li705 1.961 . S
O767 Li706 1.970 . S
O767 Li707 1.956 . S
O767 C742 1.325 . S
H768 C710 0.929 1_565 S
H769 C711 0.930 . S
H770 C712 0.930 . S
H771 C713 0.930 . S
H772 C715 0.930 . S
H773 C717 0.929 . S
H774 C718 0.930 . S
H775 C719 0.930 . S
H776 C722 0.930 . S
H777 C725 0.929 . S
H778 C730 0.929 . S
H779 C731 0.930 . S
H780 C738 0.929 . S
H781 C739 0.930 . S
H782 C740 0.930 . S
H783 C741 0.956 . S
H784 C743 0.929 . S
H785 C744 0.930 . S
H786 C745 0.930 . S
H787 C746 0.930 . S
H788 C750 0.929 . S
H789 C752 0.930 . S
H790 C758 0.929 . S
H791 C759 0.930 . S
Li792 N809 1.990 . S
Li792 O852 1.956 . S
Li792 O853 1.970 . S
Li792 O854 1.961 . S
Li793 N817 1.990 . S
Li793 O852 1.970 . S
Li793 O853 1.956 . S
Li793 O855 1.961 . S
Li794 N839 1.990 . S
Li794 O852 1.961 . S
Li794 O854 1.956 . S
Li794 O855 1.970 . S
Li795 N845 1.990 . S
Li795 O853 1.961 . S
Li795 O854 1.970 . S
Li795 O855 1.956 . S
C796 C798 1.348 . S
C796 C799 1.356 . S
C796 O852 1.325 . S
N797 C800 1.314 . S
N797 C801 1.279 . S
C798 C796 1.348 . S
C798 C800 1.353 . S
C798 H856 0.929 . S
C799 C796 1.356 . S
C799 C801 1.358 . S
C799 H857 0.930 . S
C800 N797 1.314 . S
C800 C798 1.353 . S
C800 H858 0.930 . S
C801 N797 1.279 . S
C801 C799 1.358 . S
C801 H859 0.930 . S
C802 C805 1.348 . S
C802 C806 1.356 . S
C802 O853 1.325 . S
C803 N804 1.279 . S
C803 C806 1.358 . S
C803 H860 0.930 . S
N804 C803 1.279 . S
N804 C807 1.314 . S
C805 C802 1.348 . S
C805 C807 1.353 . S
C805 H861 0.929 . S
C806 C802 1.356 . S
C806 C803 1.358 . S
C806 H862 0.930 . S
C807 N804 1.314 . S
C807 C805 1.353 . S
C807 H863 0.930 . S
C808 N809 1.314 . S
C808 C813 1.353 . S
C808 H814 0.930 . S
N809 Li792 1.990 . S
N809 C808 1.314 . S
N809 C811 1.279 . S
C810 C811 1.358 . S
C810 C812 1.356 . S
C810 H864 0.930 . S
C811 N809 1.279 . S
C811 C810 1.358 . S
C811 H815 0.930 . S
C812 C810 1.356 . S
C812 C813 1.348 . S
C813 C808 1.353 . S
C813 C812 1.348 . S
C813 H865 0.929 . S
H814 C808 0.930 . S
H815 C811 0.930 . S
C816 N817 1.314 . S
C816 C818 1.353 . S
C816 H822 0.930 . S
N817 Li793 1.990 . S
N817 C816 1.314 . S
N817 C820 1.279 . S
C818 C816 1.353 . S
C818 C821 1.348 . S
C818 H866 0.929 . S
C819 C820 1.358 . S
C819 C821 1.356 . S
C819 H867 0.930 . S
C820 N817 1.279 . S
C820 C819 1.358 . S
C820 H823 0.930 . S
C821 C818 1.348 . S
C821 C819 1.356 . S
H822 C816 0.930 . S
H823 C820 0.930 . S
C824 C826 1.348 . S
C824 C827 1.356 . S
C824 O854 1.325 . S
N825 C828 1.314 . S
N825 C829 1.279 . S
C826 C824 1.348 . S
C826 C828 1.353 . S
C826 H868 0.929 . S
C827 C824 1.356 . S
C827 C829 1.358 . S
C827 H869 0.930 . S
C828 N825 1.314 . S
C828 C826 1.353 . S
C828 H870 0.930 . S
C829 N825 1.279 . S
C829 C827 1.358 . S
C829 H871 0.930 . S
C830 C831 1.348 . S
C830 C832 1.356 . S
C830 O855 1.325 . S
C831 C830 1.348 . S
C831 C833 1.353 . S
C831 H872 0.929 . S
C832 C830 1.356 . S
C832 C834 1.358 . S
C832 H873 0.930 . S
C833 C831 1.353 . S
C833 N835 1.314 . S
C833 H874 0.930 . S
C834 C832 1.358 . S
C834 N835 1.279 . S
C834 H875 0.930 . S
N835 C833 1.314 . S
N835 C834 1.279 . S
C836 C838 1.353 . S
C836 N839 1.314 . S
C836 H842 0.930 . S
C837 N839 1.279 . S
C837 C840 1.358 . S
C837 H843 0.930 . S
C838 C836 1.353 . S
C838 C841 1.348 . S
C838 H876 0.929 . S
N839 Li794 1.990 . S
N839 C836 1.314 . S
N839 C837 1.279 . S
C840 C837 1.358 . S
C840 C841 1.356 . S
C840 H877 0.930 . S
C841 C838 1.348 . S
C841 C840 1.356 . S
H842 C836 0.930 . S
H843 C837 0.930 . S
C844 N845 1.314 . S
C844 C846 1.353 . S
C844 H850 0.930 . S
N845 Li795 1.990 . S
N845 C844 1.314 . S
N845 C848 1.279 . S
C846 C844 1.353 . S
C846 C849 1.348 . S
C846 H878 0.929 . S
C847 C848 1.358 . S
C847 C849 1.356 . S
C847 H879 0.930 . S
C848 N845 1.279 . S
C848 C847 1.358 . S
C848 H851 0.930 . S
C849 C846 1.348 . S
C849 C847 1.356 . S
H850 C844 0.930 . S
H851 C848 0.930 . S
O852 Li792 1.956 . S
O852 Li793 1.970 . S
O852 Li794 1.961 . S
O852 C796 1.325 . S
O853 Li792 1.970 . S
O853 Li793 1.956 . S
O853 Li795 1.961 . S
O853 C802 1.325 . S
O854 Li792 1.961 . S
O854 Li794 1.956 . S
O854 Li795 1.970 . S
O854 C824 1.325 . S
O855 Li793 1.961 . S
O855 Li794 1.970 . S
O855 Li795 1.956 . S
O855 C830 1.325 . S
H856 C798 0.929 . S
H857 C799 0.930 . S
H858 C800 0.930 . S
H859 C801 0.930 . S
H860 C803 0.930 . S
H861 C805 0.929 . S
H862 C806 0.930 . S
H863 C807 0.930 . S
H864 C810 0.930 . S
H865 C813 0.929 . S
H866 C818 0.929 . S
H867 C819 0.930 . S
H868 C826 0.929 . S
H869 C827 0.930 . S
H870 C828 0.930 . S
H871 C829 0.930 . S
H872 C831 0.929 . S
H873 C832 0.930 . S
H874 C833 0.930 . S
H875 C834 0.930 . S
H876 C838 0.929 . S
H877 C840 0.930 . S
H878 C846 0.929 . S
H879 C847 0.930 . S
Li880 N897 1.990 1_455 S
Li880 O940 1.956 . S
Li880 O941 1.970 . S
Li880 O942 1.961 . S
Li881 N905 1.990 . S
Li881 O940 1.970 . S
Li881 O941 1.956 . S
Li881 O943 1.961 . S
Li882 N927 1.990 . S
Li882 O940 1.961 . S
Li882 O942 1.956 . S
Li882 O943 1.970 . S
Li883 N933 1.990 . S
Li883 O941 1.961 . S
Li883 O942 1.970 . S
Li883 O943 1.956 . S
C884 C886 1.333 1_455 S
C884 C887 1.348 1_455 S
C884 O940 1.345 . S
N885 C888 1.314 . S
N885 C889 1.279 . S
C886 C884 1.333 1_655 S
C886 C888 1.353 . S
C886 H944 0.929 1_655 S
C887 C884 1.348 1_655 S
C887 C889 1.358 . S
C887 H945 0.930 . S
C888 N885 1.314 . S
C888 C886 1.353 . S
C888 H946 0.930 . S
C889 N885 1.279 . S
C889 C887 1.358 . S
C889 H947 0.930 . S
C890 C893 1.348 . S
C890 C894 1.356 . S
C890 O941 1.325 . S
C891 N892 1.279 . S
C891 C894 1.358 . S
C891 H948 0.930 . S
N892 C891 1.279 . S
N892 C895 1.314 . S
C893 C890 1.348 . S
C893 C895 1.353 . S
C893 H949 0.929 . S
C894 C890 1.356 . S
C894 C891 1.358 . S
C894 H950 0.930 . S
C895 N892 1.314 . S
C895 C893 1.353 . S
C895 H951 0.930 . S
C896 N897 1.314 . S
C896 C901 1.353 . S
C896 H902 0.930 1_655 S
N897 Li880 1.990 1_655 S
N897 C896 1.314 . S
N897 C899 1.279 . S
C898 C899 1.358 . S
C898 C900 1.356 . S
C898 H952 0.930 . S
C899 N897 1.279 . S
C899 C898 1.358 . S
C899 H903 0.930 . S
C900 C898 1.356 . S
C900 C901 1.348 . S
C901 C896 1.353 . S
C901 C900 1.348 . S
C901 H953 0.929 . S
H902 C896 0.930 1_455 S
H903 C899 0.930 . S
C904 N905 1.314 . S
C904 C906 1.353 . S
C904 H910 0.930 . S
N905 Li881 1.990 . S
N905 C904 1.314 . S
N905 C908 1.279 . S
C906 C904 1.353 . S
C906 C909 1.348 . S
C906 H954 0.929 . S
C907 C908 1.358 . S
C907 C909 1.356 . S
C907 H955 0.930 . S
C908 N905 1.279 . S
C908 C907 1.358 . S
C908 H911 0.930 . S
C909 C906 1.348 . S
C909 C907 1.356 . S
H910 C904 0.930 . S
H911 C908 0.930 . S
C912 C914 1.348 . S
C912 C915 1.356 . S
C912 O942 1.325 . S
N913 C916 1.314 . S
N913 C917 1.279 . S
C914 C912 1.348 . S
C914 C916 1.353 . S
C914 H956 0.929 . S
C915 C912 1.356 . S
C915 C917 1.358 . S
C915 H957 0.930 . S
C916 N913 1.314 . S
C916 C914 1.353 . S
C916 H958 0.930 . S
C917 N913 1.279 . S
C917 C915 1.358 . S
C917 H959 0.949 . S
C918 C919 1.348 . S
C918 C920 1.356 . S
C918 O943 1.325 . S
C919 C918 1.348 . S
C919 C921 1.353 . S
C919 H960 0.929 . S
C920 C918 1.356 . S
C920 C922 1.358 . S
C920 H961 0.930 . S
C921 C919 1.353 . S
C921 N923 1.314 . S
C921 H962 0.930 . S
C922 C920 1.358 . S
C922 N923 1.279 . S
C922 H963 0.930 . S
N923 C921 1.314 . S
N923 C922 1.279 . S
C924 C926 1.353 . S
C924 N927 1.314 . S
C924 H930 0.930 . S
C925 N927 1.279 . S
C925 C928 1.358 . S
C925 H931 0.930 . S
C926 C924 1.353 . S
C926 C929 1.348 . S
C926 H964 0.929 . S
N927 Li882 1.990 . S
N927 C924 1.314 . S
N927 C925 1.279 . S
C928 C925 1.358 . S
C928 C929 1.356 . S
C928 H965 0.930 . S
C929 C926 1.348 . S
C929 C928 1.356 . S
H930 C924 0.930 . S
H931 C925 0.930 . S
C932 N933 1.314 . S
C932 C934 1.353 . S
C932 H938 0.930 . S
N933 Li883 1.990 . S
N933 C932 1.314 . S
N933 C936 1.279 . S
C934 C932 1.353 . S
C934 C937 1.348 . S
C934 H966 0.929 . S
C935 C936 1.358 . S
C935 C937 1.356 . S
C935 H967 0.930 . S
C936 N933 1.279 . S
C936 C935 1.358 . S
C936 H939 0.930 . S
C937 C934 1.348 . S
C937 C935 1.356 . S
H938 C932 0.930 . S
H939 C936 0.930 . S
O940 Li880 1.956 . S
O940 Li881 1.970 . S
O940 Li882 1.961 . S
O940 C884 1.345 . S
O941 Li880 1.970 . S
O941 Li881 1.956 . S
O941 Li883 1.961 . S
O941 C890 1.325 . S
O942 Li880 1.961 . S
O942 Li882 1.956 . S
O942 Li883 1.970 . S
O942 C912 1.325 . S
O943 Li881 1.961 . S
O943 Li882 1.970 . S
O943 Li883 1.956 . S
O943 C918 1.325 . S
H944 C886 0.929 1_455 S
H945 C887 0.930 . S
H946 C888 0.930 . S
H947 C889 0.930 . S
H948 C891 0.930 . S
H949 C893 0.929 . S
H950 C894 0.930 . S
H951 C895 0.930 . S
H952 C898 0.930 . S
H953 C901 0.929 . S
H954 C906 0.929 . S
H955 C907 0.930 . S
H956 C914 0.929 . S
H957 C915 0.930 . S
H958 C916 0.930 . S
H959 C917 0.949 . S
H960 C919 0.929 . S
H961 C920 0.930 . S
H962 C921 0.930 . S
H963 C922 0.930 . S
H964 C926 0.929 . S
H965 C928 0.930 . S
H966 C934 0.929 . S
H967 C935 0.930 . S
Li968 N985 1.990 . S
Li968 O1028 1.956 . S
Li968 O1029 1.970 . S
Li968 O1030 1.961 . S
Li969 N993 1.990 1_545 S
Li969 O1028 1.970 . S
Li969 O1029 1.956 . S
Li969 O1031 1.961 . S
Li970 N1015 1.990 . S
Li970 O1028 1.961 . S
Li970 O1030 1.956 . S
Li970 O1031 1.970 . S
Li971 N1021 1.990 . S
Li971 O1029 1.961 . S
Li971 O1030 1.970 . S
Li971 O1031 1.956 . S
C972 C974 1.348 . S
C972 C975 1.356 . S
C972 O1028 1.325 . S
N973 C976 1.314 . S
N973 C977 1.279 . S
C974 C972 1.348 . S
C974 C976 1.353 . S
C974 H1032 0.929 . S
C975 C972 1.356 . S
C975 C977 1.358 . S
C975 H1033 0.930 . S
C976 N973 1.314 . S
C976 C974 1.353 . S
C976 H1034 0.930 . S
C977 N973 1.279 . S
C977 C975 1.358 . S
C977 H1035 0.930 . S
C978 C981 1.352 1_545 S
C978 C982 1.340 1_545 S
C978 O1029 1.334 . S
C979 N980 1.279 . S
C979 C982 1.358 . S
C979 H1036 0.930 . S
N980 C979 1.279 . S
N980 C983 1.314 . S
C981 C978 1.352 1_565 S
C981 C983 1.353 . S
C981 H1037 0.929 1_565 S
C982 C978 1.340 1_565 S
C982 C979 1.358 . S
C982 H1038 0.930 . S
C983 N980 1.314 . S
C983 C981 1.353 . S
C983 H1039 0.930 . S
C984 N985 1.314 . S
C984 C989 1.353 . S
C984 H990 0.930 . S
N985 Li968 1.990 . S
N985 C984 1.314 . S
N985 C987 1.279 . S
C986 C987 1.358 . S
C986 C988 1.356 . S
C986 H1040 0.930 . S
C987 N985 1.279 . S
C987 C986 1.358 . S
C987 H991 0.930 . S
C988 C986 1.356 . S
C988 C989 1.348 . S
C989 C984 1.353 . S
C989 C988 1.348 . S
C989 H1041 0.929 . S
H990 C984 0.930 . S
H991 C987 0.930 . S
C992 N993 1.314 . S
C992 C994 1.353 . S
C992 H998 0.930 1_565 S
N993 Li969 1.990 1_565 S
N993 C992 1.314 . S
N993 C996 1.279 . S
C994 C992 1.353 . S
C994 C997 1.348 . S
C994 H1042 0.929 . S
C995 C996 1.358 . S
C995 C997 1.356 . S
C995 H1043 0.930 . S
C996 N993 1.279 . S
C996 C995 1.358 . S
C996 H999 0.930 . S
C997 C994 1.348 . S
C997 C995 1.356 . S
H998 C992 0.930 1_545 S
H999 C996 0.930 . S
C1000 C1002 1.348 . S
C1000 C1003 1.356 . S
C1000 O1030 1.325 . S
N1001 C1004 1.314 . S
N1001 C1005 1.279 . S
C1002 C1000 1.348 . S
C1002 C1004 1.353 . S
C1002 H1044 0.929 . S
C1003 C1000 1.356 . S
C1003 C1005 1.358 . S
C1003 H1045 0.930 . S
C1004 N1001 1.314 . S
C1004 C1002 1.353 . S
C1004 H1046 0.930 . S
C1005 N1001 1.279 . S
C1005 C1003 1.358 . S
C1005 H1047 0.930 . S
C1006 C1007 1.348 . S
C1006 C1008 1.356 . S
C1006 O1031 1.325 . S
C1007 C1006 1.348 . S
C1007 C1009 1.353 . S
C1007 H1048 0.929 . S
C1008 C1006 1.356 . S
C1008 C1010 1.358 . S
C1008 H1049 0.930 . S
C1009 C1007 1.353 . S
C1009 N1011 1.314 . S
C1009 H1050 0.930 . S
C1010 C1008 1.358 . S
C1010 N1011 1.279 . S
C1010 H1051 0.956 . S
N1011 C1009 1.314 . S
N1011 C1010 1.279 . S
C1012 C1014 1.353 . S
C1012 N1015 1.314 . S
C1012 H1018 0.930 . S
C1013 N1015 1.279 . S
C1013 C1016 1.358 . S
C1013 H1019 0.930 . S
C1014 C1012 1.353 . S
C1014 C1017 1.348 . S
C1014 H1052 0.929 . S
N1015 Li970 1.990 . S
N1015 C1012 1.314 . S
N1015 C1013 1.279 . S
C1016 C1013 1.358 . S
C1016 C1017 1.356 . S
C1016 H1053 0.930 . S
C1017 C1014 1.348 . S
C1017 C1016 1.356 . S
H1018 C1012 0.930 . S
H1019 C1013 0.930 . S
C1020 N1021 1.314 . S
C1020 C1022 1.353 . S
C1020 H1026 0.930 . S
N1021 Li971 1.990 . S
N1021 C1020 1.314 . S
N1021 C1024 1.279 . S
C1022 C1020 1.353 . S
C1022 C1025 1.348 . S
C1022 H1054 0.929 . S
C1023 C1024 1.358 . S
C1023 C1025 1.356 . S
C1023 H1055 0.930 . S
C1024 N1021 1.279 . S
C1024 C1023 1.358 . S
C1024 H1027 0.930 . S
C1025 C1022 1.348 . S
C1025 C1023 1.356 . S
H1026 C1020 0.930 . S
H1027 C1024 0.930 . S
O1028 Li968 1.956 . S
O1028 Li969 1.970 . S
O1028 Li970 1.961 . S
O1028 C972 1.325 . S
O1029 Li968 1.970 . S
O1029 Li969 1.956 . S
O1029 Li971 1.961 . S
O1029 C978 1.334 . S
O1030 Li968 1.961 . S
O1030 Li970 1.956 . S
O1030 Li971 1.970 . S
O1030 C1000 1.325 . S
O1031 Li969 1.961 . S
O1031 Li970 1.970 . S
O1031 Li971 1.956 . S
O1031 C1006 1.325 . S
H1032 C974 0.929 . S
H1033 C975 0.930 . S
H1034 C976 0.930 . S
H1035 C977 0.930 . S
H1036 C979 0.930 . S
H1037 C981 0.929 1_545 S
H1038 C982 0.930 . S
H1039 C983 0.930 . S
H1040 C986 0.930 . S
H1041 C989 0.929 . S
H1042 C994 0.929 . S
H1043 C995 0.930 . S
H1044 C1002 0.929 . S
H1045 C1003 0.930 . S
H1046 C1004 0.930 . S
H1047 C1005 0.930 . S
H1048 C1007 0.929 . S
H1049 C1008 0.930 . S
H1050 C1009 0.930 . S
H1051 C1010 0.956 . S
H1052 C1014 0.929 . S
H1053 C1016 0.930 . S
H1054 C1022 0.929 . S
H1055 C1023 0.930 . S
H1056 C1064 0.950 . S
H1057 C1069 0.950 . S
H1058 C1066 0.950 . S
H1059 C1068 0.950 . S
H1060 C1070 0.950 . S
H1061 C1072 0.950 . S
H1062 C1074 0.950 . S
H1063 C1075 0.950 . S
C1064 H1056 0.950 . S
C1064 C1065 1.386 . S
C1064 C1066 1.391 . S
C1065 C1064 1.386 . S
C1065 C1069 1.393 . S
C1066 H1058 0.950 . S
C1066 C1064 1.391 . S
C1066 C1067 1.400 . S
C1067 C1066 1.400 . S
C1067 C1068 1.398 . S
C1067 C1073 1.491 1_655 S
C1068 H1059 0.950 . S
C1068 C1067 1.398 . S
C1068 C1069 1.391 . S
C1069 H1057 0.950 . S
C1069 C1065 1.393 . S
C1069 C1068 1.391 . S
C1070 H1060 0.950 . S
C1070 C1071 1.386 . S
C1070 C1072 1.391 . S
C1071 C1070 1.386 . S
C1071 C1075 1.393 . S
C1072 H1061 0.950 . S
C1072 C1070 1.391 . S
C1072 C1073 1.400 . S
C1073 C1067 1.491 1_455 S
C1073 C1072 1.400 . S
C1073 C1074 1.398 . S
C1074 H1062 0.950 . S
C1074 C1073 1.398 . S
C1074 C1075 1.391 . S
C1075 H1063 0.950 . S
C1075 C1071 1.393 . S
C1075 C1074 1.391 . S
H1076 C1084 0.950 . S
H1077 C1089 0.950 . S
H1078 C1086 0.950 . S
H1079 C1088 0.950 . S
H1080 C1090 0.950 . S
H1081 C1092 0.950 . S
H1082 C1094 0.950 . S
H1083 C1095 0.950 . S
C1084 H1076 0.950 . S
C1084 C1085 1.386 . S
C1084 C1086 1.391 . S
C1085 C1084 1.386 . S
C1085 C1089 1.393 . S
C1086 H1078 0.950 . S
C1086 C1084 1.391 . S
C1086 C1087 1.400 . S
C1087 C1086 1.400 . S
C1087 C1088 1.398 . S
C1087 C1093 1.491 1_545 S
C1088 H1079 0.950 . S
C1088 C1087 1.398 . S
C1088 C1089 1.391 . S
C1089 H1077 0.950 . S
C1089 C1085 1.393 . S
C1089 C1088 1.391 . S
C1090 H1080 0.950 . S
C1090 C1091 1.386 . S
C1090 C1092 1.391 . S
C1091 C1090 1.386 . S
C1091 C1095 1.393 . S
C1092 H1081 0.950 . S
C1092 C1090 1.391 . S
C1092 C1093 1.400 . S
C1093 C1087 1.491 1_565 S
C1093 C1092 1.400 . S
C1093 C1094 1.398 . S
C1094 H1082 0.950 . S
C1094 C1093 1.398 . S
C1094 C1095 1.391 . S
C1095 H1083 0.950 . S
C1095 C1091 1.393 . S
C1095 C1094 1.391 . S
H1096 C1104 0.950 . S
H1097 C1109 0.950 . S
H1098 C1106 0.950 . S
H1099 C1108 0.950 . S
H1100 C1110 0.950 . S
H1101 C1112 0.950 . S
H1102 C1114 0.950 . S
H1103 C1115 0.950 . S
C1104 H1096 0.950 . S
C1104 C1105 1.386 . S
C1104 C1106 1.391 . S
C1105 C1104 1.386 . S
C1105 C1109 1.393 . S
C1106 H1098 0.950 . S
C1106 C1104 1.391 . S
C1106 C1107 1.400 . S
C1107 C1106 1.400 . S
C1107 C1108 1.398 . S
C1107 C1113 1.491 . S
C1108 H1099 0.950 . S
C1108 C1107 1.398 . S
C1108 C1109 1.391 . S
C1109 H1097 0.950 . S
C1109 C1105 1.393 . S
C1109 C1108 1.391 . S
C1110 H1100 0.950 . S
C1110 C1111 1.386 . S
C1110 C1112 1.391 . S
C1111 C1110 1.386 . S
C1111 C1115 1.393 . S
C1112 H1101 0.950 . S
C1112 C1110 1.391 . S
C1112 C1113 1.400 . S
C1113 C1107 1.491 . S
C1113 C1112 1.400 . S
C1113 C1114 1.398 . S
C1114 H1102 0.950 . S
C1114 C1113 1.398 . S
C1114 C1115 1.391 . S
C1115 H1103 0.950 . S
C1115 C1111 1.393 . S
C1115 C1114 1.391 . S
H1116 C1124 0.950 . S
H1117 C1129 0.950 . S
H1118 C1126 0.950 . S
H1119 C1128 0.950 . S
H1120 C1130 0.950 . S
H1121 C1132 0.950 . S
H1122 C1134 0.950 . S
H1123 C1135 0.950 . S
C1124 H1116 0.950 . S
C1124 C1125 1.386 . S
C1124 C1126 1.391 . S
C1125 C1124 1.386 . S
C1125 C1129 1.393 . S
C1126 H1118 0.950 . S
C1126 C1124 1.391 . S
C1126 C1127 1.400 . S
C1127 C1126 1.400 . S
C1127 C1128 1.398 . S
C1127 C1133 1.491 1_655 S
C1128 H1119 0.950 . S
C1128 C1127 1.398 . S
C1128 C1129 1.391 . S
C1129 H1117 0.950 . S
C1129 C1125 1.393 . S
C1129 C1128 1.391 . S
C1130 H1120 0.950 . S
C1130 C1131 1.386 . S
C1130 C1132 1.391 . S
C1131 C1130 1.386 . S
C1131 C1135 1.393 . S
C1132 H1121 0.950 . S
C1132 C1130 1.391 . S
C1132 C1133 1.400 . S
C1133 C1127 1.491 1_455 S
C1133 C1132 1.400 . S
C1133 C1134 1.398 . S
C1134 H1122 0.950 . S
C1134 C1133 1.398 . S
C1134 C1135 1.391 . S
C1135 H1123 0.950 . S
C1135 C1131 1.393 . S
C1135 C1134 1.391 . S
H1136 C1144 0.950 . S
H1137 C1149 0.950 . S
H1138 C1146 0.950 . S
H1139 C1148 0.950 . S
H1140 C1150 0.950 . S
H1141 C1152 0.950 . S
H1142 C1154 0.950 . S
H1143 C1155 0.950 . S
C1144 H1136 0.950 . S
C1144 C1145 1.386 . S
C1144 C1146 1.391 . S
C1145 C1144 1.386 . S
C1145 C1149 1.393 . S
C1146 H1138 0.950 . S
C1146 C1144 1.391 . S
C1146 C1147 1.400 . S
C1147 C1146 1.400 . S
C1147 C1148 1.398 . S
C1147 C1153 1.491 1_545 S
C1148 H1139 0.950 . S
C1148 C1147 1.398 . S
C1148 C1149 1.391 . S
C1149 H1137 0.950 . S
C1149 C1145 1.393 . S
C1149 C1148 1.391 . S
C1150 H1140 0.950 . S
C1150 C1151 1.386 . S
C1150 C1152 1.391 . S
C1151 C1150 1.386 . S
C1151 C1155 1.393 . S
C1152 H1141 0.950 . S
C1152 C1150 1.391 . S
C1152 C1153 1.400 . S
C1153 C1147 1.491 1_565 S
C1153 C1152 1.400 . S
C1153 C1154 1.398 . S
C1154 H1142 0.950 . S
C1154 C1153 1.398 . S
C1154 C1155 1.391 . S
C1155 H1143 0.950 . S
C1155 C1151 1.393 . S
C1155 C1154 1.391 . S
H1156 C1164 0.950 . S
H1157 C1169 0.950 . S
H1158 C1166 0.950 . S
H1159 C1168 0.950 . S
H1160 C1170 0.950 . S
H1161 C1172 0.950 . S
H1162 C1174 0.950 . S
H1163 C1175 0.950 . S
C1164 H1156 0.950 . S
C1164 C1165 1.386 . S
C1164 C1166 1.391 . S
C1165 C1164 1.386 . S
C1165 C1169 1.393 . S
C1166 H1158 0.950 . S
C1166 C1164 1.391 . S
C1166 C1167 1.400 . S
C1167 C1166 1.400 . S
C1167 C1168 1.398 . S
C1167 C1173 1.491 . S
C1168 H1159 0.950 . S
C1168 C1167 1.398 . S
C1168 C1169 1.391 . S
C1169 H1157 0.950 . S
C1169 C1165 1.393 . S
C1169 C1168 1.391 . S
C1170 H1160 0.950 . S
C1170 C1171 1.386 . S
C1170 C1172 1.391 . S
C1171 C1170 1.386 . S
C1171 C1175 1.393 . S
C1172 H1161 0.950 . S
C1172 C1170 1.391 . S
C1172 C1173 1.400 . S
C1173 C1167 1.491 . S
C1173 C1172 1.400 . S
C1173 C1174 1.398 . S
C1174 H1162 0.950 . S
C1174 C1173 1.398 . S
C1174 C1175 1.391 . S
C1175 H1163 0.950 . S
C1175 C1171 1.393 . S
C1175 C1174 1.391 . S
H1176 C1184 0.950 . S
H1177 C1189 0.950 . S
H1178 C1186 0.950 . S
H1179 C1188 0.950 . S
H1180 C1190 0.950 . S
H1181 C1192 0.950 . S
H1182 C1194 0.950 . S
H1183 C1195 0.950 . S
C1184 H1176 0.950 . S
C1184 C1185 1.386 . S
C1184 C1186 1.391 . S
C1185 C1184 1.386 . S
C1185 C1189 1.393 . S
C1186 H1178 0.950 . S
C1186 C1184 1.391 . S
C1186 C1187 1.400 . S
C1187 C1186 1.400 . S
C1187 C1188 1.398 . S
C1187 C1193 1.491 . S
C1188 H1179 0.950 . S
C1188 C1187 1.398 . S
C1188 C1189 1.391 . S
C1189 H1177 0.950 . S
C1189 C1185 1.393 . S
C1189 C1188 1.391 . S
C1190 H1180 0.950 . S
C1190 C1191 1.386 . S
C1190 C1192 1.391 . S
C1191 C1190 1.386 . S
C1191 C1195 1.393 . S
C1192 H1181 0.950 . S
C1192 C1190 1.391 . S
C1192 C1193 1.400 . S
C1193 C1187 1.491 . S
C1193 C1192 1.400 . S
C1193 C1194 1.398 . S
C1194 H1182 0.950 . S
C1194 C1193 1.398 . S
C1194 C1195 1.391 . S
C1195 H1183 0.950 . S
C1195 C1191 1.393 . S
C1195 C1194 1.391 . S
H1196 C1204 0.950 . S
H1197 C1209 0.950 . S
H1198 C1206 0.950 1_655 S
H1199 C1208 0.950 . S
H1200 C1210 0.950 . S
H1201 C1212 0.950 1_455 S
H1202 C1214 0.950 . S
H1203 C1215 0.950 . S
C1204 H1196 0.950 . S
C1204 C1205 1.386 . S
C1204 C1206 1.391 . S
C1205 C1204 1.386 . S
C1205 C1209 1.393 . S
C1206 H1198 0.950 1_455 S
C1206 C1204 1.391 . S
C1206 C1207 1.400 . S
C1207 C1206 1.400 . S
C1207 C1208 1.398 . S
C1207 C1213 1.491 1_455 S
C1208 H1199 0.950 . S
C1208 C1207 1.398 . S
C1208 C1209 1.391 . S
C1209 H1197 0.950 . S
C1209 C1205 1.393 . S
C1209 C1208 1.391 . S
C1210 H1200 0.950 . S
C1210 C1211 1.386 . S
C1210 C1212 1.391 . S
C1211 C1210 1.386 . S
C1211 C1215 1.393 . S
C1212 H1201 0.950 1_655 S
C1212 C1210 1.391 . S
C1212 C1213 1.400 . S
C1213 C1207 1.491 1_655 S
C1213 C1212 1.400 . S
C1213 C1214 1.398 . S
C1214 H1202 0.950 . S
C1214 C1213 1.398 . S
C1214 C1215 1.391 . S
C1215 H1203 0.950 . S
C1215 C1211 1.393 . S
C1215 C1214 1.391 . S
H1216 C1224 0.950 . S
H1217 C1229 0.950 . S
H1218 C1226 0.950 . S
H1219 C1228 0.950 1_565 S
H1220 C1230 0.950 . S
H1221 C1232 0.950 . S
H1222 C1234 0.950 1_545 S
H1223 C1235 0.950 . S
C1224 H1216 0.950 . S
C1224 C1225 1.386 . S
C1224 C1226 1.391 . S
C1225 C1224 1.386 . S
C1225 C1229 1.393 . S
C1226 H1218 0.950 . S
C1226 C1224 1.391 . S
C1226 C1227 1.400 . S
C1227 C1226 1.400 . S
C1227 C1228 1.398 . S
C1227 C1233 1.491 1_545 S
C1228 H1219 0.950 1_545 S
C1228 C1227 1.398 . S
C1228 C1229 1.391 . S
C1229 H1217 0.950 . S
C1229 C1225 1.393 . S
C1229 C1228 1.391 . S
C1230 H1220 0.950 . S
C1230 C1231 1.386 . S
C1230 C1232 1.391 . S
C1231 C1230 1.386 . S
C1231 C1235 1.393 . S
C1232 H1221 0.950 . S
C1232 C1230 1.391 . S
C1232 C1233 1.400 . S
C1233 C1227 1.491 1_565 S
C1233 C1232 1.400 . S
C1233 C1234 1.398 . S
C1234 H1222 0.950 1_565 S
C1234 C1233 1.398 . S
C1234 C1235 1.391 . S
C1235 H1223 0.950 . S
C1235 C1231 1.393 . S
C1235 C1234 1.391 . S
H1236 C1244 0.950 . S
H1237 C1249 0.950 . S
H1238 C1246 0.950 . S
H1239 C1248 0.950 . S
H1240 C1250 0.950 . S
H1241 C1252 0.950 . S
H1242 C1254 0.950 . S
H1243 C1255 0.950 . S
C1244 H1236 0.950 . S
C1244 C1245 1.386 . S
C1244 C1246 1.391 . S
C1245 C1244 1.386 . S
C1245 C1249 1.393 . S
C1246 H1238 0.950 . S
C1246 C1244 1.391 . S
C1246 C1247 1.400 . S
C1247 C1246 1.400 . S
C1247 C1248 1.398 . S
C1247 C1253 1.491 . S
C1248 H1239 0.950 . S
C1248 C1247 1.398 . S
C1248 C1249 1.391 . S
C1249 H1237 0.950 . S
C1249 C1245 1.393 . S
C1249 C1248 1.391 . S
C1250 H1240 0.950 . S
C1250 C1251 1.386 . S
C1250 C1252 1.391 . S
C1251 C1250 1.386 . S
C1251 C1255 1.393 . S
C1252 H1241 0.950 . S
C1252 C1250 1.391 . S
C1252 C1253 1.400 . S
C1253 C1247 1.491 . S
C1253 C1252 1.400 . S
C1253 C1254 1.398 . S
C1254 H1242 0.950 . S
C1254 C1253 1.398 . S
C1254 C1255 1.391 . S
C1255 H1243 0.950 . S
C1255 C1251 1.393 . S
C1255 C1254 1.391 . S
H1256 C1264 0.950 . S
H1257 C1269 0.950 . S
H1258 C1266 0.950 1_455 S
H1259 C1268 0.950 . S
H1260 C1270 0.950 . S
H1261 C1272 0.950 1_655 S
H1262 C1274 0.950 . S
H1263 C1275 0.950 . S
C1264 H1256 0.950 . S
C1264 C1265 1.386 . S
C1264 C1266 1.391 . S
C1265 C1264 1.386 . S
C1265 C1269 1.393 . S
C1266 H1258 0.950 1_655 S
C1266 C1264 1.391 . S
C1266 C1267 1.400 . S
C1267 C1266 1.400 . S
C1267 C1268 1.398 . S
C1267 C1273 1.491 1_655 S
C1268 H1259 0.950 . S
C1268 C1267 1.398 . S
C1268 C1269 1.391 . S
C1269 H1257 0.950 . S
C1269 C1265 1.393 . S
C1269 C1268 1.391 . S
C1270 H1260 0.950 . S
C1270 C1271 1.386 . S
C1270 C1272 1.391 . S
C1271 C1270 1.386 . S
C1271 C1275 1.393 . S
C1272 H1261 0.950 1_455 S
C1272 C1270 1.391 . S
C1272 C1273 1.400 . S
C1273 C1267 1.491 1_455 S
C1273 C1272 1.400 . S
C1273 C1274 1.398 . S
C1274 H1262 0.950 . S
C1274 C1273 1.398 . S
C1274 C1275 1.391 . S
C1275 H1263 0.950 . S
C1275 C1271 1.393 . S
C1275 C1274 1.391 . S
H1276 C1284 0.950 . S
H1277 C1289 0.950 . S
H1278 C1286 0.950 . S
H1279 C1288 0.950 1_545 S
H1280 C1290 0.950 . S
H1281 C1292 0.950 . S
H1282 C1294 0.950 1_565 S
H1283 C1295 0.950 . S
C1284 H1276 0.950 . S
C1284 C1285 1.386 . S
C1284 C1286 1.391 . S
C1285 C1284 1.386 . S
C1285 C1289 1.393 . S
C1286 H1278 0.950 . S
C1286 C1284 1.391 . S
C1286 C1287 1.400 . S
C1287 C1286 1.400 . S
C1287 C1288 1.398 . S
C1287 C1293 1.491 1_565 S
C1288 H1279 0.950 1_565 S
C1288 C1287 1.398 . S
C1288 C1289 1.391 . S
C1289 H1277 0.950 . S
C1289 C1285 1.393 . S
C1289 C1288 1.391 . S
C1290 H1280 0.950 . S
C1290 C1291 1.386 . S
C1290 C1292 1.391 . S
C1291 C1290 1.386 . S
C1291 C1295 1.393 . S
C1292 H1281 0.950 . S
C1292 C1290 1.391 . S
C1292 C1293 1.400 . S
C1293 C1287 1.491 1_545 S
C1293 C1292 1.400 . S
C1293 C1294 1.398 . S
C1294 H1282 0.950 1_545 S
C1294 C1293 1.398 . S
C1294 C1295 1.391 . S
C1295 H1283 0.950 . S
C1295 C1291 1.393 . S
C1295 C1294 1.391 . S
H1296 C1304 0.950 . S
H1297 C1309 0.950 . S
H1298 C1306 0.950 . S
H1299 C1308 0.950 . S
H1300 C1310 0.950 . S
H1301 C1312 0.950 . S
H1302 C1314 0.950 . S
H1303 C1315 0.950 . S
C1304 H1296 0.950 . S
C1304 C1305 1.386 . S
C1304 C1306 1.391 . S
C1305 C1304 1.386 . S
C1305 C1309 1.393 . S
C1306 H1298 0.950 . S
C1306 C1304 1.391 . S
C1306 C1307 1.400 . S
C1307 C1306 1.400 . S
C1307 C1308 1.398 . S
C1307 C1313 1.491 . S
C1308 H1299 0.950 . S
C1308 C1307 1.398 . S
C1308 C1309 1.391 . S
C1309 H1297 0.950 . S
C1309 C1305 1.393 . S
C1309 C1308 1.391 . S
C1310 H1300 0.950 . S
C1310 C1311 1.386 . S
C1310 C1312 1.391 . S
C1311 C1310 1.386 . S
C1311 C1315 1.393 . S
C1312 H1301 0.950 . S
C1312 C1310 1.391 . S
C1312 C1313 1.400 . S
C1313 C1307 1.491 . S
C1313 C1312 1.400 . S
C1313 C1314 1.398 . S
C1314 H1302 0.950 . S
C1314 C1313 1.398 . S
C1314 C1315 1.391 . S
C1315 H1303 0.950 . S
C1315 C1311 1.393 . S
C1315 C1314 1.391 . S
H1316 C1324 0.950 . S
H1317 C1329 0.950 . S
H1318 C1326 0.950 . S
H1319 C1328 0.950 . S
H1320 C1330 0.950 . S
H1321 C1332 0.950 . S
H1322 C1334 0.950 . S
H1323 C1335 0.950 . S
C1324 H1316 0.950 . S
C1324 C1325 1.386 . S
C1324 C1326 1.391 . S
C1325 C1324 1.386 . S
C1325 C1329 1.393 . S
C1326 H1318 0.950 . S
C1326 C1324 1.391 . S
C1326 C1327 1.400 . S
C1327 C1326 1.400 . S
C1327 C1328 1.398 . S
C1327 C1333 1.491 . S
C1328 H1319 0.950 . S
C1328 C1327 1.398 . S
C1328 C1329 1.391 . S
C1329 H1317 0.950 . S
C1329 C1325 1.393 . S
C1329 C1328 1.391 . S
C1330 H1320 0.950 . S
C1330 C1331 1.386 . S
C1330 C1332 1.391 . S
C1331 C1330 1.386 . S
C1331 C1335 1.393 . S
C1332 H1321 0.950 . S
C1332 C1330 1.391 . S
C1332 C1333 1.400 . S
C1333 C1327 1.491 . S
C1333 C1332 1.400 . S
C1333 C1334 1.398 . S
C1334 H1322 0.950 . S
C1334 C1333 1.398 . S
C1334 C1335 1.391 . S
C1335 H1323 0.950 . S
C1335 C1331 1.393 . S
C1335 C1334 1.391 . S
H1336 C1344 0.950 . S
H1337 C1349 0.950 . S
H1338 C1346 0.950 . S
H1339 C1348 0.950 . S
H1340 C1350 0.950 . S
H1341 C1352 0.950 . S
H1342 C1354 0.950 . S
H1343 C1355 0.950 . S
C1344 H1336 0.950 . S
C1344 C1345 1.386 . S
C1344 C1346 1.391 . S
C1345 C1344 1.386 . S
C1345 C1349 1.393 . S
C1346 H1338 0.950 . S
C1346 C1344 1.391 . S
C1346 C1347 1.400 . S
C1347 C1346 1.400 . S
C1347 C1348 1.398 . S
C1347 C1353 1.491 . S
C1348 H1339 0.950 . S
C1348 C1347 1.398 . S
C1348 C1349 1.391 . S
C1349 H1337 0.950 . S
C1349 C1345 1.393 . S
C1349 C1348 1.391 . S
C1350 H1340 0.950 . S
C1350 C1351 1.386 . S
C1350 C1352 1.391 . S
C1351 C1350 1.386 . S
C1351 C1355 1.393 . S
C1352 H1341 0.950 . S
C1352 C1350 1.391 . S
C1352 C1353 1.400 . S
C1353 C1347 1.491 . S
C1353 C1352 1.400 . S
C1353 C1354 1.398 . S
C1354 H1342 0.950 . S
C1354 C1353 1.398 . S
C1354 C1355 1.391 . S
C1355 H1343 0.950 . S
C1355 C1351 1.393 . S
C1355 C1354 1.391 . S
H1356 C1364 0.950 . S
H1357 C1369 0.950 . S
H1358 C1366 0.950 . S
H1359 C1368 0.950 . S
H1360 C1370 0.950 . S
H1361 C1372 0.950 . S
H1362 C1374 0.950 . S
H1363 C1375 0.950 . S
C1364 H1356 0.950 . S
C1364 C1365 1.386 . S
C1364 C1366 1.391 . S
C1365 C1364 1.386 . S
C1365 C1369 1.393 . S
C1366 H1358 0.950 . S
C1366 C1364 1.391 . S
C1366 C1367 1.400 . S
C1367 C1366 1.400 . S
C1367 C1368 1.398 . S
C1367 C1373 1.491 . S
C1368 H1359 0.950 . S
C1368 C1367 1.398 . S
C1368 C1369 1.391 . S
C1369 H1357 0.950 . S
C1369 C1365 1.393 . S
C1369 C1368 1.391 . S
C1370 H1360 0.950 . S
C1370 C1371 1.386 . S
C1370 C1372 1.391 . S
C1371 C1370 1.386 . S
C1371 C1375 1.393 . S
C1372 H1361 0.950 . S
C1372 C1370 1.391 . S
C1372 C1373 1.400 . S
C1373 C1367 1.491 . S
C1373 C1372 1.400 . S
C1373 C1374 1.398 . S
C1374 H1362 0.950 . S
C1374 C1373 1.398 . S
C1374 C1375 1.391 . S
C1375 H1363 0.950 . S
C1375 C1371 1.393 . S
C1375 C1374 1.391 . S
H1376 C1384 0.950 . S
H1377 C1389 0.950 . S
H1378 C1386 0.950 . S
H1379 C1388 0.950 . S
H1380 C1390 0.950 . S
H1381 C1392 0.950 . S
H1382 C1394 0.950 . S
H1383 C1395 0.950 . S
C1384 H1376 0.950 . S
C1384 C1385 1.386 . S
C1384 C1386 1.391 . S
C1385 C1384 1.386 . S
C1385 C1389 1.393 . S
C1386 H1378 0.950 . S
C1386 C1384 1.391 . S
C1386 C1387 1.400 . S
C1387 C1386 1.400 . S
C1387 C1388 1.398 . S
C1387 C1393 1.491 . S
C1388 H1379 0.950 . S
C1388 C1387 1.398 . S
C1388 C1389 1.391 . S
C1389 H1377 0.950 . S
C1389 C1385 1.393 . S
C1389 C1388 1.391 . S
C1390 H1380 0.950 . S
C1390 C1391 1.386 . S
C1390 C1392 1.391 . S
C1391 C1390 1.386 . S
C1391 C1395 1.393 . S
C1392 H1381 0.950 . S
C1392 C1390 1.391 . S
C1392 C1393 1.400 . S
C1393 C1387 1.491 . S
C1393 C1392 1.400 . S
C1393 C1394 1.398 . S
C1394 H1382 0.950 . S
C1394 C1393 1.398 . S
C1394 C1395 1.391 . S
C1395 H1383 0.950 . S
C1395 C1391 1.393 . S
C1395 C1394 1.391 . S
H1396 C1404 0.950 . S
H1397 C1409 0.950 . S
H1398 C1406 0.950 . S
H1399 C1408 0.950 . S
H1400 C1410 0.950 . S
H1401 C1412 0.950 . S
H1402 C1414 0.950 . S
H1403 C1415 0.950 . S
C1404 H1396 0.950 . S
C1404 C1405 1.386 . S
C1404 C1406 1.391 . S
C1405 C1404 1.386 . S
C1405 C1409 1.393 . S
C1406 H1398 0.950 . S
C1406 C1404 1.391 . S
C1406 C1407 1.400 . S
C1407 C1406 1.400 . S
C1407 C1408 1.398 . S
C1407 C1413 1.491 . S
C1408 H1399 0.950 . S
C1408 C1407 1.398 . S
C1408 C1409 1.391 . S
C1409 H1397 0.950 . S
C1409 C1405 1.393 . S
C1409 C1408 1.391 . S
C1410 H1400 0.950 . S
C1410 C1411 1.386 . S
C1410 C1412 1.391 . S
C1411 C1410 1.386 . S
C1411 C1415 1.393 . S
C1412 H1401 0.950 . S
C1412 C1410 1.391 . S
C1412 C1413 1.400 . S
C1413 C1407 1.491 . S
C1413 C1412 1.400 . S
C1413 C1414 1.398 . S
C1414 H1402 0.950 . S
C1414 C1413 1.398 . S
C1414 C1415 1.391 . S
C1415 H1403 0.950 . S
C1415 C1411 1.393 . S
C1415 C1414 1.391 . S
H1416 C1424 0.950 . S
H1417 C1429 0.950 . S
H1418 C1426 0.950 . S
H1419 C1428 0.950 . S
H1420 C1430 0.950 . S
H1421 C1432 0.950 . S
H1422 C1434 0.950 . S
H1423 C1435 0.950 . S
C1424 H1416 0.950 . S
C1424 C1425 1.386 . S
C1424 C1426 1.391 . S
C1425 C1424 1.386 . S
C1425 C1429 1.393 . S
C1426 H1418 0.950 . S
C1426 C1424 1.391 . S
C1426 C1427 1.400 . S
C1427 C1426 1.400 . S
C1427 C1428 1.398 . S
C1427 C1433 1.491 . S
C1428 H1419 0.950 . S
C1428 C1427 1.398 . S
C1428 C1429 1.391 . S
C1429 H1417 0.950 . S
C1429 C1425 1.393 . S
C1429 C1428 1.391 . S
C1430 H1420 0.950 . S
C1430 C1431 1.386 . S
C1430 C1432 1.391 . S
C1431 C1430 1.386 . S
C1431 C1435 1.393 . S
C1432 H1421 0.950 . S
C1432 C1430 1.391 . S
C1432 C1433 1.400 . S
C1433 C1427 1.491 . S
C1433 C1432 1.400 . S
C1433 C1434 1.398 . S
C1434 H1422 0.950 . S
C1434 C1433 1.398 . S
C1434 C1435 1.391 . S
C1435 H1423 0.950 . S
C1435 C1431 1.393 . S
C1435 C1434 1.391 . S
H1436 C1444 0.950 . S
H1437 C1449 0.950 . S
H1438 C1446 0.950 . S
H1439 C1448 0.950 . S
H1440 C1450 0.950 . S
H1441 C1452 0.950 . S
H1442 C1454 0.950 . S
H1443 C1455 0.950 . S
C1444 H1436 0.950 . S
C1444 C1445 1.386 . S
C1444 C1446 1.391 . S
C1445 C1444 1.386 . S
C1445 C1449 1.393 . S
C1446 H1438 0.950 . S
C1446 C1444 1.391 . S
C1446 C1447 1.400 . S
C1447 C1446 1.400 . S
C1447 C1448 1.398 . S
C1447 C1453 1.491 1_655 S
C1448 H1439 0.950 . S
C1448 C1447 1.398 . S
C1448 C1449 1.391 . S
C1449 H1437 0.950 . S
C1449 C1445 1.393 . S
C1449 C1448 1.391 . S
C1450 H1440 0.950 . S
C1450 C1451 1.386 . S
C1450 C1452 1.391 . S
C1451 C1450 1.386 . S
C1451 C1455 1.393 . S
C1452 H1441 0.950 . S
C1452 C1450 1.391 . S
C1452 C1453 1.400 . S
C1453 C1447 1.491 1_455 S
C1453 C1452 1.400 . S
C1453 C1454 1.398 . S
C1454 H1442 0.950 . S
C1454 C1453 1.398 . S
C1454 C1455 1.391 . S
C1455 H1443 0.950 . S
C1455 C1451 1.393 . S
C1455 C1454 1.391 . S
H1456 C1464 0.950 . S
H1457 C1469 0.950 . S
H1458 C1466 0.950 . S
H1459 C1468 0.950 . S
H1460 C1470 0.950 . S
H1461 C1472 0.950 . S
H1462 C1474 0.950 . S
H1463 C1475 0.950 . S
C1464 H1456 0.950 . S
C1464 C1465 1.386 . S
C1464 C1466 1.391 . S
C1465 C1464 1.386 . S
C1465 C1469 1.393 . S
C1466 H1458 0.950 . S
C1466 C1464 1.391 . S
C1466 C1467 1.400 . S
C1467 C1466 1.400 . S
C1467 C1468 1.398 . S
C1467 C1473 1.491 1_544 S
C1468 H1459 0.950 . S
C1468 C1467 1.398 . S
C1468 C1469 1.391 . S
C1469 H1457 0.950 . S
C1469 C1465 1.393 . S
C1469 C1468 1.391 . S
C1470 H1460 0.950 . S
C1470 C1471 1.386 . S
C1470 C1472 1.391 . S
C1471 C1470 1.386 . S
C1471 C1475 1.393 . S
C1472 H1461 0.950 . S
C1472 C1470 1.391 . S
C1472 C1473 1.400 . S
C1473 C1467 1.491 1_566 S
C1473 C1472 1.400 . S
C1473 C1474 1.398 . S
C1474 H1462 0.950 . S
C1474 C1473 1.398 . S
C1474 C1475 1.391 . S
C1475 H1463 0.950 . S
C1475 C1471 1.393 . S
C1475 C1474 1.391 . S
H1476 C1484 0.950 . S
H1477 C1489 0.950 . S
H1478 C1486 0.950 . S
H1479 C1488 0.950 . S
H1480 C1490 0.950 . S
H1481 C1492 0.950 . S
H1482 C1494 0.950 . S
H1483 C1495 0.950 . S
C1484 H1476 0.950 . S
C1484 C1485 1.386 . S
C1484 C1486 1.391 . S
C1485 C1484 1.386 . S
C1485 C1489 1.393 . S
C1486 H1478 0.950 . S
C1486 C1484 1.391 . S
C1486 C1487 1.400 . S
C1487 C1486 1.400 . S
C1487 C1488 1.398 . S
C1487 C1493 1.491 . S
C1488 H1479 0.950 . S
C1488 C1487 1.398 . S
C1488 C1489 1.391 . S
C1489 H1477 0.950 . S
C1489 C1485 1.393 . S
C1489 C1488 1.391 . S
C1490 H1480 0.950 . S
C1490 C1491 1.386 . S
C1490 C1492 1.391 . S
C1491 C1490 1.386 . S
C1491 C1495 1.393 . S
C1492 H1481 0.950 . S
C1492 C1490 1.391 . S
C1492 C1493 1.400 . S
C1493 C1487 1.491 . S
C1493 C1492 1.400 . S
C1493 C1494 1.398 . S
C1494 H1482 0.950 . S
C1494 C1493 1.398 . S
C1494 C1495 1.391 . S
C1495 H1483 0.950 . S
C1495 C1491 1.393 . S
C1495 C1494 1.391 . S
H1496 C1504 0.950 . S
H1497 C1509 0.950 . S
H1498 C1506 0.950 . S
H1499 C1508 0.950 . S
H1500 C1510 0.950 . S
H1501 C1512 0.950 . S
H1502 C1514 0.950 . S
H1503 C1515 0.950 . S
C1504 H1496 0.950 . S
C1504 C1505 1.386 . S
C1504 C1506 1.391 . S
C1505 C1504 1.386 . S
C1505 C1509 1.393 . S
C1506 H1498 0.950 . S
C1506 C1504 1.391 . S
C1506 C1507 1.400 . S
C1507 C1506 1.400 . S
C1507 C1508 1.398 1_455 S
C1507 C1513 1.491 1_455 S
C1508 H1499 0.950 . S
C1508 C1507 1.398 1_655 S
C1508 C1509 1.391 1_655 S
C1509 H1497 0.950 . S
C1509 C1505 1.393 . S
C1509 C1508 1.391 1_455 S
C1510 H1500 0.950 . S
C1510 C1511 1.386 . S
C1510 C1512 1.391 . S
C1511 C1510 1.386 . S
C1511 C1515 1.393 . S
C1512 H1501 0.950 . S
C1512 C1510 1.391 . S
C1512 C1513 1.400 . S
C1513 C1507 1.491 1_655 S
C1513 C1512 1.400 . S
C1513 C1514 1.398 1_655 S
C1514 H1502 0.950 . S
C1514 C1513 1.398 1_455 S
C1514 C1515 1.391 1_455 S
C1515 H1503 0.950 . S
C1515 C1511 1.393 . S
C1515 C1514 1.391 1_655 S
H1516 C1524 0.950 . S
H1517 C1529 0.950 . S
H1518 C1526 0.950 . S
H1519 C1528 0.950 . S
H1520 C1530 0.950 . S
H1521 C1532 0.950 . S
H1522 C1534 0.950 . S
H1523 C1535 0.950 . S
C1524 H1516 0.950 . S
C1524 C1525 1.386 . S
C1524 C1526 1.391 1_565 S
C1525 C1524 1.386 . S
C1525 C1529 1.393 . S
C1526 H1518 0.950 . S
C1526 C1524 1.391 1_545 S
C1526 C1527 1.400 1_545 S
C1527 C1526 1.400 1_565 S
C1527 C1528 1.398 . S
C1527 C1533 1.491 1_564 S
C1528 H1519 0.950 . S
C1528 C1527 1.398 . S
C1528 C1529 1.391 . S
C1529 H1517 0.950 . S
C1529 C1525 1.393 . S
C1529 C1528 1.391 . S
C1530 H1520 0.950 . S
C1530 C1531 1.386 . S
C1530 C1532 1.391 1_545 S
C1531 C1530 1.386 . S
C1531 C1535 1.393 . S
C1532 H1521 0.950 . S
C1532 C1530 1.391 1_565 S
C1532 C1533 1.400 1_565 S
C1533 C1527 1.491 1_546 S
C1533 C1532 1.400 1_545 S
C1533 C1534 1.398 . S
C1534 H1522 0.950 . S
C1534 C1533 1.398 . S
C1534 C1535 1.391 . S
C1535 H1523 0.950 . S
C1535 C1531 1.393 . S
C1535 C1534 1.391 . S
C1065 C1017 1.729 . S
C1071 C20 1.722 . S
C1085 C108 1.717 . S
C1091 C585 1.734 . S
C1105 C205 1.728 . S
C1111 C673 1.722 . S
C1125 C284 1.723 . S
C1131 C761 1.728 . S
C1145 C841 1.717 . S
C1151 C372 1.734 . S
C1165 C469 1.734 . S
C1171 C937 1.717 . S
C1185 C313 1.568 . S
C1191 C49 1.576 . S
C1205 C401 1.592 . S
C1211 C137 1.583 . S
C1225 C497 1.567 . S
C1231 C233 1.572 . S
C1245 C557 1.601 . S
C1251 C812 1.598 . S
C1265 C645 1.600 . S
C1271 C909 1.594 . S
C1285 C733 1.567 . S
C1291 C988 1.574 . S
C1305 C724 0.358 . S
C1311 C57 0.346 . S
C1325 C145 0.321 . S
C1331 C821 0.317 . S
C1345 C900 0.333 . S
C1351 C225 0.350 . S
C1365 C997 0.332 . S
C1371 C321 0.318 . S
C1385 C548 0.354 . S
C1391 C409 0.358 . S
C1405 C489 0.358 . S
C1411 C636 0.351 . S
C1425 C849 1.729 . S
C1431 C29 1.731 . S
C1445 C117 1.740 . S
C1451 C929 1.739 . S
C1465 C1025 1.724 . S
C1471 C196 1.724 . S
C1485 C293 1.736 . S
C1491 C577 1.734 . S
C1505 C381 1.738 . S
C1511 C665 1.736 . S
C1525 C753 1.726 . S
C1531 C460 1.728 . S
