# Generated by pormake.
# Topology crb, (4)-cn, num edge types: 1
# Building blocks:
#     Node 0, Type 0, BuildingBlock: ICAMEG_clean_sbu_1, # of connection points: 4
#     Node 1, Type 0, BuildingBlock: ICAMEG_clean_sbu_1, # of connection points: 4
#     Node 2, Type 0, BuildingBlock: ICAMEG_clean_sbu_1, # of connection points: 4
#     Node 3, Type 0, BuildingBlock: ICAMEG_clean_sbu_1, # of connection points: 4
#     Node 4, Type 0, BuildingBlock: ICAMEG_clean_sbu_1, # of connection points: 4
#     Node 5, Type 0, BuildingBlock: ICAMEG_clean_sbu_1, # of connection points: 4
#     Node 6, Type 0, BuildingBlock: ICAMEG_clean_sbu_1, # of connection points: 4
#     Node 7, Type 0, BuildingBlock: ICAMEG_clean_sbu_1, # of connection points: 4
#     Edge 8, Type (0, 0), BuildingBlock: OJICUG_clean_linker_0, # of connection points: 2
#     Edge 9, Type (0, 0), BuildingBlock: OJICUG_clean_linker_0, # of connection points: 2
#     Edge 10, Type (0, 0), BuildingBlock: OJICUG_clean_linker_0, # of connection points: 2
#     Edge 11, Type (0, 0), BuildingBlock: OJICUG_clean_linker_0, # of connection points: 2
#     Edge 12, Type (0, 0), BuildingBlock: OJICUG_clean_linker_0, # of connection points: 2
#     Edge 13, Type (0, 0), BuildingBlock: OJICUG_clean_linker_0, # of connection points: 2
#     Edge 14, Type (0, 0), BuildingBlock: OJICUG_clean_linker_0, # of connection points: 2
#     Edge 15, Type (0, 0), BuildingBlock: OJICUG_clean_linker_0, # of connection points: 2
#     Edge 16, Type (0, 0), BuildingBlock: OJICUG_clean_linker_0, # of connection points: 2
#     Edge 17, Type (0, 0), BuildingBlock: OJICUG_clean_linker_0, # of connection points: 2
#     Edge 18, Type (0, 0), BuildingBlock: OJICUG_clean_linker_0, # of connection points: 2
#     Edge 19, Type (0, 0), BuildingBlock: OJICUG_clean_linker_0, # of connection points: 2
#     Edge 20, Type (0, 0), BuildingBlock: OJICUG_clean_linker_0, # of connection points: 2
#     Edge 21, Type (0, 0), BuildingBlock: OJICUG_clean_linker_0, # of connection points: 2
#     Edge 22, Type (0, 0), BuildingBlock: OJICUG_clean_linker_0, # of connection points: 2
#     Edge 23, Type (0, 0), BuildingBlock: OJICUG_clean_linker_0, # of connection points: 2
# Relax obj value: 0.183
# Max RMSD: 0.233
# Mean RMSD: 0.233
data_MOF--net-crb--node1-ICAMEG_clean_sbu_1--edge1-OJICUG_clean_linker_0
_symmetry_space_group_name_H-M    P1
_symmetry_Int_Tables_number       1
_symmetry_cell_setting            triclinic
loop_
_symmetry_equiv_pos_as_xyz
'x, y, z'
_cell_length_a     33.210788
_cell_length_b     33.208122
_cell_length_c     18.812847
_cell_angle_alpha  89.960824
_cell_angle_beta   89.924348
_cell_angle_gamma 90.00048
loop_
_atom_site_label
_atom_site_type_symbol
_atom_site_fract_x
_atom_site_fract_y
_atom_site_fract_z
_atom_type_partial_charge
Co0 Co 0.35322 0.34333 0.9418 0.0
Co1 Co 0.34899 0.34689 0.12628 0.0
O2 O 0.33096 0.32406 0.03393 0.0
C3 C 0.26457 0.32734 0.90491 0.0
O4 O 0.25417 0.31863 0.97049 0.0
C5 C 0.33528 0.25774 0.16253 0.0
O6 O 0.32651 0.24766 0.09689 0.0
O7 O 0.40666 0.33627 0.1012 0.0
O8 O 0.40764 0.34936 0.98443 0.0
H9 H 0.43695 0.43447 0.27889 0.0
H10 H 0.31011 0.26481 0.95213 0.0
O11 O 0.3004 0.33816 0.89054 0.0
H12 H 0.44249 0.23231 0.84877 0.0
H13 H 0.37281 0.34409 0.67579 0.0
H14 H 0.40836 0.40987 0.90209 0.0
H15 H 0.42523 0.30222 0.87975 0.0
H16 H 0.34551 0.3187 0.78912 0.0
O17 O 0.34604 0.29357 0.1772 0.0
H18 H 0.41253 0.40527 0.1665 0.0
H19 H 0.32467 0.3373 0.27892 0.0
H20 H 0.43665 0.43594 0.78993 0.0
H21 H 0.32569 0.19468 0.9206 0.0
H22 H 0.41888 0.40301 0.67569 0.0
H23 H 0.39236 0.17792 0.86852 0.0
O24 O 0.33967 0.4002 0.96702 0.0
H25 H 0.20135 0.31328 0.14604 0.0
H26 H 0.30481 0.41656 0.18971 0.0
H27 H 0.23428 0.43071 0.22118 0.0
H28 H 0.18193 0.37866 0.20013 0.0
H29 H 0.27197 0.30084 0.11395 0.0
H30 H 0.34847 0.36545 0.39248 0.0
H31 H 0.40488 0.41457 0.39297 0.0
O32 O 0.35242 0.40172 0.0839 0.0
C33 C 0.42547 0.34281 0.04302 0.0
C34 C 0.41229 0.41316 0.27936 0.0
C35 C 0.36269 0.37437 0.34312 0.0
N36 N 0.36711 0.36967 0.21591 0.0
C37 C 0.39827 0.39656 0.21585 0.0
C38 C 0.34946 0.3584 0.27859 0.0
C39 C 0.39432 0.40194 0.34335 0.0
C40 C 0.33897 0.25806 0.92881 0.0
N41 N 0.36651 0.28793 0.91727 0.0
C42 C 0.34774 0.21813 0.9114 0.0
C43 C 0.38516 0.20872 0.88233 0.0
C44 C 0.4133 0.23921 0.87131 0.0
C45 C 0.40343 0.27879 0.88936 0.0
C46 C 0.3808 0.35868 0.72522 0.0
C47 C 0.40062 0.39522 0.85267 0.0
C48 C 0.36532 0.34453 0.78962 0.0
N49 N 0.37541 0.36269 0.85238 0.0
C50 C 0.41668 0.41019 0.78929 0.0
C51 C 0.40667 0.39172 0.72521 0.0
C52 C 0.34487 0.41922 1.02528 0.0
C53 C 0.2239 0.33612 0.15594 0.0
C54 C 0.2823 0.39391 0.17957 0.0
C55 C 0.24235 0.40203 0.19787 0.0
C56 C 0.21301 0.37283 0.18611 0.0
N57 N 0.29295 0.35763 0.15076 0.0
C58 C 0.26416 0.32911 0.13829 0.0
Co59 Co 0.67212 0.35361 0.13714 0.0
Co60 Co 0.67684 0.35647 0.95283 0.0
O61 O 0.69501 0.3342 0.04557 0.0
C62 C 0.76059 0.33774 0.17563 0.0
O63 O 0.77126 0.32889 0.11027 0.0
C64 C 0.69165 0.26733 0.91723 0.0
O65 O 0.70058 0.25728 0.98285 0.0
O66 O 0.61947 0.34446 0.97775 0.0
O67 O 0.61775 0.3591 0.09381 0.0
H68 H 0.58712 0.44167 0.79913 0.0
H69 H 0.71548 0.27512 0.12791 0.0
O70 O 0.72474 0.34879 0.18933 0.0
H71 H 0.58281 0.24249 0.23002 0.0
H72 H 0.65099 0.35499 0.40279 0.0
H73 H 0.61655 0.42005 0.17515 0.0
H74 H 0.60003 0.31238 0.19887 0.0
H75 H 0.67905 0.32942 0.29023 0.0
O76 O 0.68079 0.30312 0.90247 0.0
H77 H 0.61213 0.41331 0.91188 0.0
H78 H 0.70148 0.34696 0.80027 0.0
H79 H 0.58752 0.44632 0.2865 0.0
H80 H 0.69992 0.20501 0.15968 0.0
H81 H 0.60472 0.41375 0.40141 0.0
H82 H 0.63311 0.18817 0.21112 0.0
O83 O 0.68554 0.41046 0.11134 0.0
H84 H 0.82502 0.32533 0.93533 0.0
H85 H 0.71995 0.42638 0.88749 0.0
H86 H 0.79036 0.4416 0.85676 0.0
H87 H 0.84353 0.39068 0.87998 0.0
H88 H 0.75444 0.31184 0.96663 0.0
H89 H 0.67709 0.37425 0.68638 0.0
H90 H 0.61964 0.42213 0.6853 0.0
O91 O 0.67245 0.41152 0.99454 0.0
C92 C 0.60029 0.35089 0.03554 0.0
C93 C 0.61224 0.42091 0.79892 0.0
C94 C 0.66269 0.38303 0.73563 0.0
N95 N 0.65836 0.37863 0.86289 0.0
C96 C 0.62661 0.40481 0.86263 0.0
C97 C 0.67626 0.36754 0.80035 0.0
C98 C 0.63047 0.4099 0.73507 0.0
C99 C 0.68657 0.26836 0.15102 0.0
N100 N 0.65894 0.2982 0.16212 0.0
C101 C 0.67781 0.22843 0.16855 0.0
C102 C 0.6403 0.21898 0.19725 0.0
C103 C 0.61208 0.24942 0.2078 0.0
C104 C 0.62194 0.28901 0.18967 0.0
C105 C 0.64325 0.36944 0.35306 0.0
C106 C 0.62407 0.40557 0.22487 0.0
C107 C 0.65917 0.35518 0.2891 0.0
N108 N 0.64939 0.37313 0.22596 0.0
C109 C 0.60758 0.42065 0.28779 0.0
C110 C 0.61727 0.40239 0.35224 0.0
C111 C 0.68017 0.42928 0.05286 0.0
C112 C 0.80212 0.34771 0.92462 0.0
C113 C 0.74283 0.40428 0.89874 0.0
C114 C 0.78271 0.41298 0.88076 0.0
C115 C 0.8125 0.3844 0.89372 0.0
N116 N 0.7327 0.36808 0.92847 0.0
C117 C 0.76191 0.34012 0.9419 0.0
Co118 Co 0.66421 0.67646 0.14142 0.0
Co119 Co 0.67087 0.67857 0.95914 0.0
O120 O 0.68607 0.69964 0.05328 0.0
C121 C 0.6716 0.76614 0.17199 0.0
O122 O 0.67842 0.77468 0.10499 0.0
C123 C 0.7506 0.67337 0.88369 0.0
O124 O 0.7453 0.63467 0.87283 0.0
O125 O 0.68904 0.62349 0.98827 0.0
O126 O 0.66457 0.62127 0.09929 0.0
H127 H 0.61043 0.57619 0.79426 0.0
H128 H 0.73993 0.72467 0.14076 0.0
O129 O 0.66354 0.7302 0.19079 0.0
H130 H 0.77557 0.59643 0.25649 0.0
H131 H 0.64985 0.6592 0.40667 0.0
H132 H 0.60024 0.61661 0.17149 0.0
H133 H 0.70652 0.60849 0.21414 0.0
H134 H 0.67926 0.68755 0.29721 0.0
O135 O 0.72614 0.69293 0.92307 0.0
H136 H 0.62881 0.60514 0.9103 0.0
H137 H 0.68046 0.70669 0.8079 0.0
H138 H 0.57028 0.5872 0.27967 0.0
H139 H 0.80905 0.71434 0.18402 0.0
H140 H 0.59508 0.60848 0.39835 0.0
H141 H 0.8274 0.64966 0.24186 0.0
O142 O 0.6086 0.68576 0.1053 0.0
H143 H 0.68505 0.82881 0.93665 0.0
H144 H 0.59742 0.71236 0.88845 0.0
H145 H 0.5745 0.78034 0.85538 0.0
H146 H 0.61862 0.83923 0.879 0.0
H147 H 0.70631 0.76033 0.97025 0.0
H148 H 0.66292 0.67882 0.69078 0.0
H149 H 0.62758 0.61303 0.68333 0.0
O150 O 0.61473 0.66586 0.99179 0.0
C151 C 0.67906 0.60412 0.04439 0.0
C152 C 0.62601 0.60478 0.79675 0.0
C153 C 0.6555 0.66233 0.73869 0.0
N154 N 0.65641 0.65733 0.86611 0.0
C155 C 0.63662 0.6213 0.86236 0.0
C156 C 0.66562 0.6779 0.80525 0.0
C157 C 0.63563 0.62546 0.73455 0.0
C158 C 0.74733 0.6967 0.16677 0.0
N159 N 0.71883 0.6674 0.17547 0.0
C160 C 0.7867 0.69092 0.19081 0.0
C161 C 0.79699 0.65465 0.22327 0.0
C162 C 0.76795 0.62474 0.23135 0.0
C163 C 0.72887 0.63166 0.20688 0.0
C164 C 0.6388 0.64966 0.35527 0.0
C165 C 0.61135 0.6259 0.2229 0.0
C166 C 0.65523 0.66573 0.29303 0.0
N167 N 0.64163 0.65362 0.22786 0.0
C168 C 0.5942 0.6092 0.28399 0.0
C169 C 0.6081 0.62118 0.35056 0.0
C170 C 0.59337 0.67545 0.04562 0.0
C171 C 0.66548 0.80343 0.92624 0.0
C172 C 0.61636 0.73779 0.90039 0.0
C173 C 0.60342 0.77625 0.88085 0.0
C174 C 0.62821 0.80925 0.89397 0.0
N175 N 0.65293 0.73225 0.93217 0.0
C176 C 0.67738 0.76452 0.94509 0.0
Co177 Co 0.34505 0.6662 0.9307 0.0
Co178 Co 0.34469 0.66999 0.11506 0.0
O179 O 0.32389 0.68851 1.02157 0.0
C180 C 0.32783 0.75443 0.89273 0.0
O181 O 0.31797 0.76429 0.95803 0.0
C182 C 0.25525 0.68512 0.14817 0.0
O183 O 0.24582 0.69496 0.08266 0.0
O184 O 0.33318 0.61279 0.0891 0.0
O185 O 0.35037 0.61174 0.97398 0.0
H186 H 0.42768 0.5797 0.27156 0.0
H187 H 0.2657 0.70841 0.93792 0.0
O188 O 0.34039 0.7191 0.87878 0.0
H189 H 0.23654 0.57631 0.831 0.0
H190 H 0.3509 0.64647 0.66496 0.0
H191 H 0.41236 0.61109 0.89514 0.0
H192 H 0.30568 0.59416 0.86576 0.0
H193 H 0.32334 0.67377 0.77662 0.0
O194 O 0.29078 0.67374 0.16336 0.0
H195 H 0.40088 0.60504 0.1579 0.0
H196 H 0.33319 0.69421 0.26736 0.0
H197 H 0.44056 0.58276 0.78472 0.0
H198 H 0.19639 0.69224 0.90258 0.0
H199 H 0.40982 0.60045 0.66853 0.0
H200 H 0.18128 0.62571 0.84864 0.0
O201 O 0.40158 0.67973 0.95924 0.0
H202 H 0.3136 0.81823 0.13212 0.0
H203 H 0.41366 0.71283 0.18372 0.0
H204 H 0.42859 0.78311 0.21542 0.0
H205 H 0.37815 0.83646 0.19032 0.0
H206 H 0.30045 0.74778 0.09988 0.0
H207 H 0.35893 0.6695 0.38214 0.0
H208 H 0.4067 0.61196 0.38477 0.0
O209 O 0.40004 0.66546 0.07556 0.0
C210 C 0.34131 0.59396 0.03168 0.0
C211 C 0.40695 0.60484 0.2711 0.0
C212 C 0.36832 0.65519 0.33316 0.0
N213 N 0.36558 0.65118 0.20575 0.0
C214 C 0.39172 0.6194 0.20686 0.0
C215 C 0.35371 0.66894 0.26794 0.0
C216 C 0.39514 0.62293 0.3346 0.0
C217 C 0.25976 0.67967 0.91369 0.0
N218 N 0.29016 0.65258 0.90311 0.0
C219 C 0.22024 0.67053 0.89416 0.0
C220 C 0.21176 0.63319 0.86407 0.0
C221 C 0.24273 0.60547 0.85421 0.0
C222 C 0.28188 0.61569 0.87435 0.0
C223 C 0.36456 0.63854 0.71526 0.0
C224 C 0.39868 0.61883 0.84486 0.0
C225 C 0.3492 0.65405 0.77872 0.0
N226 N 0.36616 0.64402 0.84255 0.0
C227 C 0.41484 0.60274 0.78247 0.0
C228 C 0.3976 0.6127 0.7173 0.0
C229 C 0.41913 0.6732 1.01857 0.0
C230 C 0.33577 0.79525 0.14366 0.0
C231 C 0.3918 0.73577 0.17161 0.0
C232 C 0.40031 0.77558 0.19016 0.0
C233 C 0.372 0.80548 0.17616 0.0
N234 N 0.35604 0.72579 0.14029 0.0
C235 C 0.32835 0.7551 0.12585 0.0
Co236 Co 0.84202 0.85422 0.42803 0.0
Co237 Co 0.8403 0.84803 0.61034 0.0
O238 O 0.81899 0.83261 0.51649 0.0
C239 C 0.75228 0.84667 0.39805 0.0
O240 O 0.74387 0.83976 0.46507 0.0
C241 C 0.84553 0.7684 0.68612 0.0
O242 O 0.88427 0.7736 0.69656 0.0
O243 O 0.89527 0.82966 0.58088 0.0
O244 O 0.89729 0.85393 0.46974 0.0
H245 H 0.94318 0.90871 0.77391 0.0
H246 H 0.79382 0.77847 0.42966 0.0
O247 O 0.78818 0.85481 0.37906 0.0
H248 H 0.92178 0.74255 0.3131 0.0
H249 H 0.85872 0.86793 0.16257 0.0
H250 H 0.90182 0.9181 0.39709 0.0
H251 H 0.90981 0.81172 0.35505 0.0
H252 H 0.83059 0.83879 0.27243 0.0
O253 O 0.82591 0.79288 0.64692 0.0
H254 H 0.91391 0.8901 0.65826 0.0
H255 H 0.81256 0.83884 0.76188 0.0
H256 H 0.93102 0.94778 0.28848 0.0
H257 H 0.80406 0.70924 0.38681 0.0
H258 H 0.90947 0.9227 0.17014 0.0
H259 H 0.8686 0.69075 0.32855 0.0
O260 O 0.83281 0.90992 0.46385 0.0
H261 H 0.6901 0.83424 0.63418 0.0
H262 H 0.80685 0.92172 0.68085 0.0
H263 H 0.739 0.94487 0.71435 0.0
H264 H 0.67997 0.90084 0.6915 0.0
H265 H 0.75845 0.81274 0.60014 0.0
H266 H 0.84075 0.85661 0.87864 0.0
H267 H 0.9066 0.89187 0.88528 0.0
O268 O 0.85305 0.90407 0.57719 0.0
C269 C 0.91453 0.83951 0.52457 0.0
C270 C 0.91457 0.89316 0.77178 0.0
C271 C 0.85713 0.8639 0.83054 0.0
N272 N 0.8618 0.86269 0.70308 0.0
C273 C 0.89786 0.88243 0.70639 0.0
C274 C 0.84137 0.85365 0.76419 0.0
C275 C 0.89403 0.88372 0.83422 0.0
C276 C 0.82172 0.77102 0.40344 0.0
N277 N 0.85099 0.79951 0.39428 0.0
C278 C 0.82745 0.73158 0.37965 0.0
C279 C 0.86364 0.72121 0.34696 0.0
C280 C 0.89352 0.75024 0.33841 0.0
C281 C 0.88666 0.78938 0.36266 0.0
C282 C 0.86838 0.87909 0.21382 0.0
C283 C 0.89243 0.90686 0.34582 0.0
C284 C 0.85244 0.86282 0.27628 0.0
N285 N 0.86468 0.87658 0.34127 0.0
C286 C 0.909 0.92386 0.28449 0.0
C287 C 0.89687 0.9098 0.21811 0.0
C288 C 0.84329 0.9253 0.52332 0.0
C289 C 0.71555 0.85377 0.64425 0.0
C290 C 0.78135 0.90281 0.66925 0.0
C291 C 0.74297 0.91589 0.68902 0.0
C292 C 0.70988 0.89114 0.67634 0.0
N293 N 0.78674 0.86616 0.63764 0.0
C294 C 0.75438 0.84175 0.62515 0.0
Co295 Co 0.16493 0.84603 0.43039 0.0
Co296 Co 0.16226 0.84143 0.61472 0.0
O297 O 0.18442 0.82318 0.5219 0.0
C298 C 0.18073 0.75754 0.3918 0.0
O299 O 0.18966 0.74687 0.45711 0.0
C300 C 0.2514 0.82647 0.65009 0.0
O301 O 0.2614 0.81741 0.58448 0.0
O302 O 0.17429 0.89878 0.58971 0.0
O303 O 0.15952 0.90043 0.47371 0.0
H304 H 0.07731 0.93134 0.7687 0.0
H305 H 0.24339 0.80264 0.4394 0.0
O306 O 0.16965 0.79339 0.37819 0.0
H307 H 0.27601 0.93518 0.33682 0.0
H308 H 0.16326 0.86704 0.16473 0.0
H309 H 0.09849 0.90163 0.39266 0.0
H310 H 0.20614 0.91804 0.36833 0.0
H311 H 0.18895 0.83902 0.27719 0.0
O312 O 0.21564 0.83745 0.66489 0.0
H313 H 0.10554 0.90623 0.65586 0.0
H314 H 0.17186 0.81685 0.76725 0.0
H315 H 0.07211 0.93062 0.28141 0.0
H316 H 0.31347 0.8181 0.40727 0.0
H317 H 0.10454 0.91335 0.16636 0.0
H318 H 0.3303 0.88485 0.35559 0.0
O319 O 0.10809 0.83267 0.45645 0.0
H320 H 0.19321 0.6932 0.63205 0.0
H321 H 0.09238 0.79843 0.68041 0.0
H322 H 0.0771 0.72804 0.71121 0.0
H323 H 0.12791 0.67479 0.68773 0.0
H324 H 0.20676 0.76375 0.60069 0.0
H325 H 0.14471 0.84133 0.88124 0.0
H326 H 0.0969 0.89885 0.88248 0.0
O327 O 0.10718 0.84586 0.57323 0.0
C328 C 0.16779 0.91793 0.53193 0.0
C329 C 0.09804 0.90619 0.76884 0.0
C330 C 0.13591 0.85572 0.83201 0.0
N331 N 0.1402 0.85998 0.70473 0.0
C332 C 0.11406 0.89176 0.70508 0.0
C333 C 0.15132 0.8421 0.76724 0.0
C334 C 0.10907 0.88798 0.83266 0.0
C335 C 0.25014 0.83151 0.4162 0.0
N336 N 0.22032 0.85915 0.40515 0.0
C337 C 0.29006 0.84023 0.39846 0.0
C338 C 0.29951 0.8777 0.36962 0.0
C339 C 0.26907 0.90594 0.35914 0.0
C340 C 0.22951 0.89612 0.37748 0.0
C341 C 0.14888 0.87481 0.21453 0.0
C342 C 0.1129 0.89408 0.34287 0.0
C343 C 0.16319 0.85891 0.27843 0.0
N344 N 0.14532 0.86874 0.34164 0.0
C345 C 0.09777 0.91054 0.28001 0.0
C346 C 0.11595 0.90081 0.21548 0.0
C347 C 0.08935 0.83812 0.51501 0.0
C348 C 0.17088 0.71614 0.64289 0.0
C349 C 0.11443 0.77552 0.66906 0.0
C350 C 0.1057 0.73565 0.68707 0.0
C351 C 0.13422 0.70581 0.67397 0.0
N352 N 0.15061 0.78559 0.63915 0.0
C353 C 0.17851 0.75633 0.62557 0.0
Co354 Co 0.1749 0.16516 0.62509 0.0
Co355 Co 0.17135 0.16911 0.44065 0.0
O356 O 0.19419 0.1873 0.5329 0.0
C357 C 0.19104 0.25383 0.66179 0.0
O358 O 0.19983 0.26415 0.59621 0.0
C359 C 0.26046 0.18295 0.40423 0.0
O360 O 0.27054 0.19175 0.46986 0.0
O361 O 0.18212 0.11151 0.46589 0.0
O362 O 0.16882 0.11068 0.5826 0.0
H363 H 0.08396 0.08074 0.28847 0.0
H364 H 0.25348 0.20814 0.61449 0.0
O365 O 0.18013 0.21803 0.67622 0.0
H366 H 0.2858 0.07587 0.7183 0.0
H367 H 0.17409 0.14588 0.89115 0.0
H368 H 0.10829 0.11015 0.66499 0.0
H369 H 0.21591 0.09318 0.68738 0.0
H370 H 0.19952 0.17301 0.77773 0.0
O371 O 0.22465 0.17214 0.3896 0.0
H372 H 0.11314 0.10537 0.40073 0.0
H373 H 0.18083 0.19328 0.28792 0.0
H374 H 0.08218 0.08202 0.77723 0.0
H375 H 0.32358 0.19251 0.64597 0.0
H376 H 0.11511 0.09988 0.89141 0.0
H377 H 0.34026 0.1259 0.69827 0.0
O378 O 0.11807 0.17877 0.59988 0.0
H379 H 0.20462 0.31682 0.42036 0.0
H380 H 0.10154 0.21306 0.3773 0.0
H381 H 0.08722 0.28353 0.34568 0.0
H382 H 0.13917 0.33602 0.36642 0.0
H383 H 0.21724 0.24625 0.4526 0.0
H384 H 0.1527 0.16927 0.17449 0.0
H385 H 0.10374 0.11272 0.17425 0.0
O386 O 0.11653 0.16562 0.48313 0.0
C387 C 0.17551 0.09277 0.5241 0.0
C388 C 0.10521 0.10545 0.28788 0.0
C389 C 0.14384 0.15508 0.22391 0.0
N390 N 0.14859 0.15082 0.35111 0.0
C391 C 0.12179 0.1196 0.35132 0.0
C392 C 0.1598 0.16844 0.28837 0.0
C393 C 0.11635 0.12338 0.22382 0.0
C394 C 0.26019 0.17931 0.63791 0.0
N395 N 0.23028 0.15183 0.6496 0.0
C396 C 0.30011 0.17051 0.65529 0.0
C397 C 0.30946 0.13312 0.68449 0.0
C398 C 0.27894 0.10504 0.69566 0.0
C399 C 0.23937 0.11494 0.67763 0.0
C400 C 0.15949 0.13784 0.84175 0.0
C401 C 0.12295 0.11793 0.71437 0.0
C402 C 0.17367 0.15323 0.7773 0.0
N403 N 0.15551 0.14309 0.71457 0.0
C404 C 0.10795 0.10196 0.77781 0.0
C405 C 0.12642 0.11202 0.84185 0.0
C406 C 0.09905 0.17339 0.54169 0.0
C407 C 0.18183 0.2942 0.41059 0.0
C408 C 0.12416 0.23564 0.38731 0.0
C409 C 0.11594 0.27555 0.36892 0.0
C410 C 0.14508 0.30497 0.3805 0.0
N411 N 0.16048 0.2251 0.41603 0.0
C412 C 0.18894 0.25397 0.42834 0.0
Co413 Co 0.8521 0.17394 0.63673 0.0
Co414 Co 0.84824 0.17387 0.45232 0.0
O415 O 0.82975 0.19484 0.54576 0.0
C416 C 0.76379 0.19087 0.67463 0.0
O417 O 0.75391 0.2006 0.6093 0.0
C418 C 0.83319 0.26328 0.41901 0.0
O419 O 0.82343 0.27277 0.48455 0.0
O420 O 0.90547 0.18534 0.47808 0.0
O421 O 0.90657 0.16873 0.59346 0.0
H422 H 0.93834 0.09047 0.29596 0.0
H423 H 0.80957 0.25311 0.62919 0.0
O424 O 0.79918 0.17849 0.68863 0.0
H425 H 0.94155 0.28301 0.73578 0.0
H426 H 0.87176 0.16874 0.9025 0.0
H427 H 0.90748 0.10693 0.67266 0.0
H428 H 0.92398 0.21373 0.70136 0.0
H429 H 0.84437 0.19594 0.79069 0.0
O430 O 0.84453 0.22773 0.40383 0.0
H431 H 0.91308 0.1175 0.40956 0.0
H432 H 0.82401 0.18519 0.30002 0.0
H433 H 0.93589 0.07909 0.78324 0.0
H434 H 0.82546 0.32256 0.6642 0.0
H435 H 0.91804 0.11001 0.89925 0.0
H436 H 0.89192 0.33805 0.71796 0.0
O437 O 0.8388 0.11728 0.60854 0.0
H438 H 0.70003 0.20509 0.43542 0.0
H439 H 0.80531 0.10483 0.38401 0.0
H440 H 0.73502 0.08992 0.35251 0.0
H441 H 0.68173 0.14046 0.37751 0.0
H442 H 0.77049 0.21823 0.46747 0.0
H443 H 0.84865 0.15922 0.18529 0.0
H444 H 0.90609 0.11134 0.18273 0.0
O445 O 0.85271 0.11859 0.49205 0.0
C446 C 0.92432 0.17748 0.53558 0.0
C447 C 0.91324 0.11125 0.29639 0.0
C448 C 0.86295 0.14988 0.23428 0.0
N449 N 0.86699 0.15281 0.36167 0.0
C450 C 0.89873 0.12661 0.36059 0.0
C451 C 0.84924 0.16462 0.29947 0.0
C452 C 0.89516 0.123 0.23288 0.0
C453 C 0.83829 0.25922 0.65335 0.0
N454 N 0.86549 0.22894 0.66402 0.0
C455 C 0.84726 0.29881 0.67269 0.0
C456 C 0.88457 0.3075 0.70269 0.0
C457 C 0.91241 0.27666 0.71264 0.0
C458 C 0.90235 0.23743 0.69269 0.0
C459 C 0.87977 0.155 0.85228 0.0
C460 C 0.89967 0.12069 0.72286 0.0
C461 C 0.86421 0.17016 0.78873 0.0
N462 N 0.87433 0.1531 0.72499 0.0
C463 C 0.91581 0.10473 0.78534 0.0
C464 C 0.90575 0.12207 0.85042 0.0
C465 C 0.84518 0.09962 0.54924 0.0
C466 C 0.72298 0.18288 0.42392 0.0
C467 C 0.7824 0.12674 0.39609 0.0
C468 C 0.74258 0.11824 0.37764 0.0
C469 C 0.71272 0.1466 0.39159 0.0
N470 N 0.79243 0.16255 0.42724 0.0
C471 C 0.76314 0.19029 0.44162 0.0
C472 C 0.34365 0.48625 0.96321 0.0
C473 C 0.34282 0.4639 1.02643 0.0
H474 H 0.34513 0.54438 0.91534 0.0
C475 C 0.34132 0.4848 0.0917 0.0
H476 H 0.34542 0.47131 0.91213 0.0
C477 C 0.33996 0.52687 0.09368 0.0
C478 C 0.34111 0.54922 0.03048 0.0
H479 H 0.34148 0.46878 0.14173 0.0
H480 H 0.33885 0.54183 0.1448 0.0
C481 C 0.34332 0.52833 0.96526 0.0
C482 C 0.49118 0.34359 0.97636 0.0
C483 C 0.47025 0.34391 0.04176 0.0
H484 H 0.54819 0.34486 0.92283 0.0
C485 C 0.49254 0.34702 0.10472 0.0
H486 H 0.47517 0.34215 0.92645 0.0
C487 C 0.53455 0.34987 0.10231 0.0
C488 C 0.55555 0.3486 0.03699 0.0
H489 H 0.47753 0.3481 0.15585 0.0
H490 H 0.55045 0.35327 0.15206 0.0
C491 C 0.53325 0.3454 0.97404 0.0
C492 C 0.67955 0.49656 0.11416 0.0
C493 C 0.68201 0.47403 0.0513 0.0
H494 H 0.67551 0.55479 0.16112 0.0
C495 C 0.68473 0.49482 0.98599 0.0
H496 H 0.67691 0.48173 0.16525 0.0
C497 C 0.6854 0.53694 0.98362 0.0
C498 C 0.68202 0.55945 0.04636 0.0
H499 H 0.68585 0.4787 0.9362 0.0
H500 H 0.68728 0.55178 0.93244 0.0
C501 C 0.67897 0.53866 0.11162 0.0
C502 C 0.4885 0.67182 0.96339 0.0
C503 C 0.46381 0.67404 1.02384 0.0
H504 H 0.54854 0.66837 0.92283 0.0
C505 C 0.48228 0.67544 0.09128 0.0
H506 H 0.47541 0.66977 0.91081 0.0
C507 C 0.52407 0.6762 0.09818 0.0
C508 C 0.54884 0.67423 0.03795 0.0
H509 H 0.46457 0.67583 0.13944 0.0
H510 H 0.53692 0.67777 0.15101 0.0
C511 C 0.53054 0.6712 0.97046 0.0
C512 C 0.84775 0.98833 0.59802 0.0
C513 C 0.84445 0.96985 0.5307 0.0
H514 H 0.8493 0.04361 0.65729 0.0
C515 C 0.84211 0.99447 0.47035 0.0
H516 H 0.85087 0.97044 0.64571 0.0
C517 C 0.84274 0.03629 0.47697 0.0
C518 C 0.84442 0.05492 0.54426 0.0
H519 H 0.84031 0.98149 0.41763 0.0
H520 H 0.84204 0.05389 0.42871 0.0
C521 C 0.84703 0.03038 0.60484 0.0
C522 C 0.02197 0.83875 0.4541 0.0
C523 C 0.0446 0.83634 0.51682 0.0
H524 H 0.96367 0.84283 0.4075 0.0
C525 C 0.02391 0.83373 0.58226 0.0
H526 H 0.03673 0.84131 0.4029 0.0
C527 C 0.9818 0.83315 0.5849 0.0
C528 C 0.95919 0.83649 0.5223 0.0
H529 H 0.04011 0.83265 0.63196 0.0
H530 H 0.96705 0.83135 0.63619 0.0
C531 C 0.97988 0.83941 0.4569 0.0
C532 C 0.17477 0.02712 0.59092 0.0
C533 C 0.17449 0.04799 0.52548 0.0
H534 H 0.17357 0.97015 0.64456 0.0
C535 C 0.17153 0.02563 0.46255 0.0
H536 H 0.17608 0.04319 0.6408 0.0
C537 C 0.16878 0.98361 0.46505 0.0
C538 C 0.17003 0.96268 0.53041 0.0
H539 H 0.17049 0.04057 0.41139 0.0
H540 H 0.16548 0.96765 0.41532 0.0
C541 C 0.17308 0.98505 0.59333 0.0
C542 C 0.99139 0.17818 0.47339 0.0
C543 C 0.96906 0.1776 0.53666 0.0
H544 H 0.04945 0.17606 0.42526 0.0
C545 C 0.98996 0.17578 0.60188 0.0
H546 H 0.97642 0.17897 0.42229 0.0
C547 C 0.03203 0.17527 0.60385 0.0
C548 C 0.05436 0.17554 0.54058 0.0
H549 H 0.97392 0.17441 0.65186 0.0
H550 H 0.04698 0.17383 0.65493 0.0
C551 C 0.03345 0.17666 0.47531 0.0
C552 C 0.31778 0.22299 0.35226 0.0
C553 C 0.2868 0.19466 0.34338 0.0
H554 H 0.35795 0.26464 0.30191 0.0
C555 C 0.27701 0.18236 0.27375 0.0
H556 H 0.32618 0.23319 0.40487 0.0
C557 C 0.29522 0.20043 0.21447 0.0
C558 C 0.32356 0.2314 0.22335 0.0
H559 H 0.25355 0.16028 0.26482 0.0
H560 H 0.28502 0.19203 0.16187 0.0
C561 C 0.33587 0.24119 0.29299 0.0
C562 C 0.81788 0.29849 0.22921 0.0
C563 C 0.78632 0.32624 0.23723 0.0
H564 H 0.85812 0.25746 0.28066 0.0
C565 C 0.77551 0.3383 0.3066 0.0
H566 H 0.82713 0.28857 0.17684 0.0
C567 C 0.79318 0.32034 0.36639 0.0
C568 C 0.82207 0.28983 0.35824 0.0
H569 H 0.75165 0.36004 0.31488 0.0
H570 H 0.78215 0.32841 0.41868 0.0
C571 C 0.83551 0.2805 0.28899 0.0
C572 C 0.69286 0.80673 0.35578 0.0
C573 C 0.72365 0.83457 0.34137 0.0
H574 H 0.65168 0.76351 0.31298 0.0
C575 C 0.73132 0.8452 0.27012 0.0
H576 H 0.6861 0.79786 0.40991 0.0
C577 C 0.71144 0.82561 0.2144 0.0
C578 C 0.68372 0.79471 0.22878 0.0
H579 H 0.75462 0.86684 0.25718 0.0
H580 H 0.72021 0.83248 0.16026 0.0
C581 C 0.67323 0.78689 0.30006 0.0
C582 C 0.18017 0.74269 0.26078 0.0
C583 C 0.19221 0.73182 0.33012 0.0
H584 H 0.1901 0.73615 0.14868 0.0
C585 C 0.21995 0.70025 0.33801 0.0
H586 H 0.15843 0.76655 0.25259 0.0
C587 C 0.23795 0.68266 0.27816 0.0
C588 C 0.22865 0.69617 0.20896 0.0
H589 H 0.22985 0.69095 0.39034 0.0
H590 H 0.26098 0.66004 0.28641 0.0
C591 C 0.19815 0.72507 0.20092 0.0
C592 C 0.26801 0.82794 0.78041 0.0
C593 C 0.27791 0.81535 0.71093 0.0
H594 H 0.27631 0.81916 0.89239 0.0
C595 C 0.30937 0.78752 0.70233 0.0
H596 H 0.24424 0.84973 0.78913 0.0
C597 C 0.32788 0.77006 0.76183 0.0
C598 C 0.31546 0.78005 0.83139 0.0
H599 H 0.31791 0.77718 0.64985 0.0
H600 H 0.35044 0.74702 0.75315 0.0
C601 C 0.28658 0.81056 0.83988 0.0
C602 C 0.24867 0.32866 0.77443 0.0
C603 C 0.23851 0.31597 0.84377 0.0
H604 H 0.24131 0.31953 0.66232 0.0
C605 C 0.20742 0.2877 0.85198 0.0
H606 H 0.27217 0.35079 0.76608 0.0
C607 C 0.18965 0.26986 0.79225 0.0
C608 C 0.20244 0.27992 0.7229 0.0
H609 H 0.19871 0.27728 0.90435 0.0
H610 H 0.16744 0.24643 0.8006 0.0
C611 C 0.23081 0.3109 0.7147 0.0
C612 C 0.73057 0.20932 0.86498 0.0
C613 C 0.70276 0.2408 0.85638 0.0
H614 H 0.77109 0.16824 0.81416 0.0
C615 C 0.69022 0.2507 0.7869 0.0
H616 H 0.74088 0.20078 0.91747 0.0
C617 C 0.70763 0.23212 0.72744 0.0
C618 C 0.73812 0.20322 0.73594 0.0
H619 H 0.66847 0.27449 0.77819 0.0
H620 H 0.69908 0.24239 0.67493 0.0
C621 C 0.74806 0.1908 0.80549 0.0
C622 C 0.8138 0.68211 0.80895 0.0
C623 C 0.77693 0.69695 0.83518 0.0
H624 H 0.86558 0.69375 0.74245 0.0
C625 C 0.76323 0.73447 0.81075 0.0
H626 H 0.82505 0.65318 0.8266 0.0
C627 C 0.78466 0.75595 0.75981 0.0
C628 C 0.82203 0.74211 0.73482 0.0
H629 H 0.73517 0.74713 0.82959 0.0
H630 H 0.77209 0.78411 0.74133 0.0
C631 C 0.83677 0.70511 0.76054 0.0
loop_
_geom_bond_atom_site_label_1
_geom_bond_atom_site_label_2
_geom_bond_distance
_geom_bond_site_symmetry_2
_ccdc_geom_bond_type
Co0 O2 2.143 1_556 S
Co0 O8 2.074 . S
Co0 O11 2.093 . S
Co0 O24 2.097 . S
Co0 N41 2.151 . S
Co0 N49 2.214 . S
Co1 O2 2.160 . S
Co1 O7 2.058 . S
Co1 O17 2.057 . S
Co1 O32 2.037 . S
Co1 N36 2.145 . S
Co1 N57 2.257 . S
O2 Co0 2.143 1_554 S
O2 Co1 2.160 . S
C3 O4 1.278 . S
C3 O11 1.224 . S
O4 C3 1.278 . S
C5 O6 1.245 . S
C5 O17 1.232 . S
O6 C5 1.245 . S
O7 Co1 2.058 . S
O7 C33 1.269 . S
O8 Co0 2.074 . S
O8 C33 1.257 1_556 S
H9 C34 0.930 . S
H10 C40 0.930 . S
O11 Co0 2.093 . S
O11 C3 1.224 . S
H12 C44 0.929 . S
H13 C46 0.930 . S
H14 C47 0.930 . S
H15 C45 0.929 . S
H16 C48 0.928 . S
O17 Co1 2.057 . S
O17 C5 1.232 . S
H18 C37 0.929 . S
H19 C38 0.929 . S
H20 C50 0.931 . S
H21 C42 0.929 . S
H22 C51 0.930 . S
H23 C43 0.931 . S
O24 Co0 2.097 . S
O24 C52 1.214 . S
H25 C53 0.929 . S
H26 C54 0.929 . S
H27 C55 0.930 . S
H28 C56 0.929 . S
H29 C58 0.930 . S
H30 C35 0.930 . S
H31 C39 0.930 . S
O32 Co1 2.037 . S
O32 C52 1.234 1_554 S
C33 O7 1.269 . S
C33 O8 1.257 1_554 S
C34 H9 0.930 . S
C34 C37 1.388 . S
C34 C39 1.418 . S
C35 H30 0.930 . S
C35 C38 1.404 . S
C35 C39 1.353 . S
N36 Co1 2.145 . S
N36 C37 1.397 . S
N36 C38 1.334 . S
C37 H18 0.929 . S
C37 C34 1.388 . S
C37 N36 1.397 . S
C38 H19 0.929 . S
C38 C35 1.404 . S
C38 N36 1.334 . S
C39 H31 0.930 . S
C39 C34 1.418 . S
C39 C35 1.353 . S
C40 H10 0.930 . S
C40 N41 1.330 . S
C40 C42 1.446 . S
N41 Co0 2.151 . S
N41 C40 1.330 . S
N41 C45 1.418 . S
C42 H21 0.929 . S
C42 C40 1.446 . S
C42 C43 1.332 . S
C43 H23 0.931 . S
C43 C42 1.332 . S
C43 C44 1.267 . S
C44 H12 0.929 . S
C44 C43 1.267 . S
C44 C45 1.251 . S
C45 H15 0.929 . S
C45 N41 1.418 . S
C45 C44 1.251 . S
C46 H13 0.930 . S
C46 C48 1.406 . S
C46 C51 1.261 . S
C47 H14 0.930 . S
C47 N49 1.325 . S
C47 C50 1.357 . S
C48 H16 0.928 . S
C48 C46 1.406 . S
C48 N49 1.261 . S
N49 Co0 2.214 . S
N49 C47 1.325 . S
N49 C48 1.261 . S
C50 H20 0.931 . S
C50 C47 1.357 . S
C50 C51 1.312 . S
C51 H22 0.930 . S
C51 C46 1.261 . S
C51 C50 1.312 . S
C52 O24 1.214 . S
C52 O32 1.234 1_556 S
C53 H25 0.929 . S
C53 C56 1.391 . S
C53 C58 1.391 . S
C54 H26 0.929 . S
C54 C55 1.390 . S
C54 N57 1.391 . S
C55 H27 0.930 . S
C55 C54 1.390 . S
C55 C56 1.392 . S
C56 H28 0.929 . S
C56 C53 1.391 . S
C56 C55 1.392 . S
N57 Co1 2.257 . S
N57 C54 1.391 . S
N57 C58 1.388 . S
C58 H29 0.930 . S
C58 C53 1.391 . S
C58 N57 1.388 . S
Co59 O61 2.143 . S
Co59 O67 2.074 . S
Co59 O70 2.093 . S
Co59 O83 2.097 . S
Co59 N100 2.151 . S
Co59 N108 2.214 . S
Co60 O61 2.160 1_556 S
Co60 O66 2.058 . S
Co60 O76 2.057 . S
Co60 O91 2.037 . S
Co60 N95 2.145 . S
Co60 N116 2.257 . S
O61 Co59 2.143 . S
O61 Co60 2.160 1_554 S
C62 O63 1.278 . S
C62 O70 1.224 . S
O63 C62 1.278 . S
C64 O65 1.245 . S
C64 O76 1.232 . S
O65 C64 1.245 . S
O66 Co60 2.058 . S
O66 C92 1.269 . S
O67 Co59 2.074 . S
O67 C92 1.257 1_554 S
H68 C93 0.930 . S
H69 C99 0.930 . S
O70 Co59 2.093 . S
O70 C62 1.224 . S
H71 C103 0.929 . S
H72 C105 0.930 . S
H73 C106 0.930 . S
H74 C104 0.929 . S
H75 C107 0.928 . S
O76 Co60 2.057 . S
O76 C64 1.232 . S
H77 C96 0.929 . S
H78 C97 0.929 . S
H79 C109 0.931 . S
H80 C101 0.929 . S
H81 C110 0.930 . S
H82 C102 0.931 . S
O83 Co59 2.097 . S
O83 C111 1.214 . S
H84 C112 0.929 . S
H85 C113 0.929 . S
H86 C114 0.930 . S
H87 C115 0.929 . S
H88 C117 0.930 . S
H89 C94 0.930 . S
H90 C98 0.930 . S
O91 Co60 2.037 . S
O91 C111 1.234 1_556 S
C92 O66 1.269 . S
C92 O67 1.257 1_556 S
C93 H68 0.930 . S
C93 C96 1.388 . S
C93 C98 1.418 . S
C94 H89 0.930 . S
C94 C97 1.404 . S
C94 C98 1.353 . S
N95 Co60 2.145 . S
N95 C96 1.397 . S
N95 C97 1.334 . S
C96 H77 0.929 . S
C96 C93 1.388 . S
C96 N95 1.397 . S
C97 H78 0.929 . S
C97 C94 1.404 . S
C97 N95 1.334 . S
C98 H90 0.930 . S
C98 C93 1.418 . S
C98 C94 1.353 . S
C99 H69 0.930 . S
C99 N100 1.330 . S
C99 C101 1.446 . S
N100 Co59 2.151 . S
N100 C99 1.330 . S
N100 C104 1.418 . S
C101 H80 0.929 . S
C101 C99 1.446 . S
C101 C102 1.332 . S
C102 H82 0.931 . S
C102 C101 1.332 . S
C102 C103 1.267 . S
C103 H71 0.929 . S
C103 C102 1.267 . S
C103 C104 1.251 . S
C104 H74 0.929 . S
C104 N100 1.418 . S
C104 C103 1.251 . S
C105 H72 0.930 . S
C105 C107 1.406 . S
C105 C110 1.261 . S
C106 H73 0.930 . S
C106 N108 1.325 . S
C106 C109 1.357 . S
C107 H75 0.928 . S
C107 C105 1.406 . S
C107 N108 1.261 . S
N108 Co59 2.214 . S
N108 C106 1.325 . S
N108 C107 1.261 . S
C109 H79 0.931 . S
C109 C106 1.357 . S
C109 C110 1.312 . S
C110 H81 0.930 . S
C110 C105 1.261 . S
C110 C109 1.312 . S
C111 O83 1.214 . S
C111 O91 1.234 1_554 S
C112 H84 0.929 . S
C112 C115 1.391 . S
C112 C117 1.391 . S
C113 H85 0.929 . S
C113 C114 1.390 . S
C113 N116 1.391 . S
C114 H86 0.930 . S
C114 C113 1.390 . S
C114 C115 1.392 . S
C115 H87 0.929 . S
C115 C112 1.391 . S
C115 C114 1.392 . S
N116 Co60 2.257 . S
N116 C113 1.391 . S
N116 C117 1.388 . S
C117 H88 0.930 . S
C117 C112 1.391 . S
C117 N116 1.388 . S
Co118 O120 2.143 . S
Co118 O126 2.074 . S
Co118 O129 2.093 . S
Co118 O142 2.097 . S
Co118 N159 2.151 . S
Co118 N167 2.214 . S
Co119 O120 2.160 1_556 S
Co119 O125 2.058 . S
Co119 O135 2.057 . S
Co119 O150 2.037 . S
Co119 N154 2.145 . S
Co119 N175 2.257 . S
O120 Co118 2.143 . S
O120 Co119 2.160 1_554 S
C121 O122 1.278 . S
C121 O129 1.224 . S
O122 C121 1.278 . S
C123 O124 1.245 . S
C123 O135 1.232 . S
O124 C123 1.245 . S
O125 Co119 2.058 . S
O125 C151 1.269 . S
O126 Co118 2.074 . S
O126 C151 1.257 1_554 S
H127 C152 0.930 . S
H128 C158 0.930 . S
O129 Co118 2.093 . S
O129 C121 1.224 . S
H130 C162 0.929 . S
H131 C164 0.930 . S
H132 C165 0.930 . S
H133 C163 0.929 . S
H134 C166 0.928 . S
O135 Co119 2.057 . S
O135 C123 1.232 . S
H136 C155 0.929 . S
H137 C156 0.929 . S
H138 C168 0.931 . S
H139 C160 0.929 . S
H140 C169 0.930 . S
H141 C161 0.931 . S
O142 Co118 2.097 . S
O142 C170 1.214 . S
H143 C171 0.929 . S
H144 C172 0.929 . S
H145 C173 0.930 . S
H146 C174 0.929 . S
H147 C176 0.930 . S
H148 C153 0.930 . S
H149 C157 0.930 . S
O150 Co119 2.037 . S
O150 C170 1.234 1_556 S
C151 O125 1.269 . S
C151 O126 1.257 1_556 S
C152 H127 0.930 . S
C152 C155 1.388 . S
C152 C157 1.418 . S
C153 H148 0.930 . S
C153 C156 1.404 . S
C153 C157 1.353 . S
N154 Co119 2.145 . S
N154 C155 1.397 . S
N154 C156 1.334 . S
C155 H136 0.929 . S
C155 C152 1.388 . S
C155 N154 1.397 . S
C156 H137 0.929 . S
C156 C153 1.404 . S
C156 N154 1.334 . S
C157 H149 0.930 . S
C157 C152 1.418 . S
C157 C153 1.353 . S
C158 H128 0.930 . S
C158 N159 1.330 . S
C158 C160 1.446 . S
N159 Co118 2.151 . S
N159 C158 1.330 . S
N159 C163 1.418 . S
C160 H139 0.929 . S
C160 C158 1.446 . S
C160 C161 1.332 . S
C161 H141 0.931 . S
C161 C160 1.332 . S
C161 C162 1.267 . S
C162 H130 0.929 . S
C162 C161 1.267 . S
C162 C163 1.251 . S
C163 H133 0.929 . S
C163 N159 1.418 . S
C163 C162 1.251 . S
C164 H131 0.930 . S
C164 C166 1.406 . S
C164 C169 1.261 . S
C165 H132 0.930 . S
C165 N167 1.325 . S
C165 C168 1.357 . S
C166 H134 0.928 . S
C166 C164 1.406 . S
C166 N167 1.261 . S
N167 Co118 2.214 . S
N167 C165 1.325 . S
N167 C166 1.261 . S
C168 H138 0.931 . S
C168 C165 1.357 . S
C168 C169 1.312 . S
C169 H140 0.930 . S
C169 C164 1.261 . S
C169 C168 1.312 . S
C170 O142 1.214 . S
C170 O150 1.234 1_554 S
C171 H143 0.929 . S
C171 C174 1.391 . S
C171 C176 1.391 . S
C172 H144 0.929 . S
C172 C173 1.390 . S
C172 N175 1.391 . S
C173 H145 0.930 . S
C173 C172 1.390 . S
C173 C174 1.392 . S
C174 H146 0.929 . S
C174 C171 1.391 . S
C174 C173 1.392 . S
N175 Co119 2.257 . S
N175 C172 1.391 . S
N175 C176 1.388 . S
C176 H147 0.930 . S
C176 C171 1.391 . S
C176 N175 1.388 . S
Co177 O179 2.143 1_556 S
Co177 O185 2.074 . S
Co177 O188 2.093 . S
Co177 O201 2.097 . S
Co177 N218 2.151 . S
Co177 N226 2.214 . S
Co178 O179 2.160 . S
Co178 O184 2.058 . S
Co178 O194 2.057 . S
Co178 O209 2.037 . S
Co178 N213 2.145 . S
Co178 N234 2.257 . S
O179 Co177 2.143 1_554 S
O179 Co178 2.160 . S
C180 O181 1.278 . S
C180 O188 1.224 . S
O181 C180 1.278 . S
C182 O183 1.245 . S
C182 O194 1.232 . S
O183 C182 1.245 . S
O184 Co178 2.058 . S
O184 C210 1.269 . S
O185 Co177 2.074 . S
O185 C210 1.257 1_556 S
H186 C211 0.930 . S
H187 C217 0.930 . S
O188 Co177 2.093 . S
O188 C180 1.224 . S
H189 C221 0.929 . S
H190 C223 0.930 . S
H191 C224 0.930 . S
H192 C222 0.929 . S
H193 C225 0.928 . S
O194 Co178 2.057 . S
O194 C182 1.232 . S
H195 C214 0.929 . S
H196 C215 0.929 . S
H197 C227 0.931 . S
H198 C219 0.929 . S
H199 C228 0.930 . S
H200 C220 0.931 . S
O201 Co177 2.097 . S
O201 C229 1.214 . S
H202 C230 0.929 . S
H203 C231 0.929 . S
H204 C232 0.930 . S
H205 C233 0.929 . S
H206 C235 0.930 . S
H207 C212 0.930 . S
H208 C216 0.930 . S
O209 Co178 2.037 . S
O209 C229 1.234 1_554 S
C210 O184 1.269 . S
C210 O185 1.257 1_554 S
C211 H186 0.930 . S
C211 C214 1.388 . S
C211 C216 1.418 . S
C212 H207 0.930 . S
C212 C215 1.404 . S
C212 C216 1.353 . S
N213 Co178 2.145 . S
N213 C214 1.397 . S
N213 C215 1.334 . S
C214 H195 0.929 . S
C214 C211 1.388 . S
C214 N213 1.397 . S
C215 H196 0.929 . S
C215 C212 1.404 . S
C215 N213 1.334 . S
C216 H208 0.930 . S
C216 C211 1.418 . S
C216 C212 1.353 . S
C217 H187 0.930 . S
C217 N218 1.330 . S
C217 C219 1.446 . S
N218 Co177 2.151 . S
N218 C217 1.330 . S
N218 C222 1.418 . S
C219 H198 0.929 . S
C219 C217 1.446 . S
C219 C220 1.332 . S
C220 H200 0.931 . S
C220 C219 1.332 . S
C220 C221 1.267 . S
C221 H189 0.929 . S
C221 C220 1.267 . S
C221 C222 1.251 . S
C222 H192 0.929 . S
C222 N218 1.418 . S
C222 C221 1.251 . S
C223 H190 0.930 . S
C223 C225 1.406 . S
C223 C228 1.261 . S
C224 H191 0.930 . S
C224 N226 1.325 . S
C224 C227 1.357 . S
C225 H193 0.928 . S
C225 C223 1.406 . S
C225 N226 1.261 . S
N226 Co177 2.214 . S
N226 C224 1.325 . S
N226 C225 1.261 . S
C227 H197 0.931 . S
C227 C224 1.357 . S
C227 C228 1.312 . S
C228 H199 0.930 . S
C228 C223 1.261 . S
C228 C227 1.312 . S
C229 O201 1.214 . S
C229 O209 1.234 1_556 S
C230 H202 0.929 . S
C230 C233 1.391 . S
C230 C235 1.391 . S
C231 H203 0.929 . S
C231 C232 1.390 . S
C231 N234 1.391 . S
C232 H204 0.930 . S
C232 C231 1.390 . S
C232 C233 1.392 . S
C233 H205 0.929 . S
C233 C230 1.391 . S
C233 C232 1.392 . S
N234 Co178 2.257 . S
N234 C231 1.391 . S
N234 C235 1.388 . S
C235 H206 0.930 . S
C235 C230 1.391 . S
C235 N234 1.388 . S
Co236 O238 2.143 . S
Co236 O244 2.074 . S
Co236 O247 2.093 . S
Co236 O260 2.097 . S
Co236 N277 2.151 . S
Co236 N285 2.214 . S
Co237 O238 2.160 . S
Co237 O243 2.058 . S
Co237 O253 2.057 . S
Co237 O268 2.037 . S
Co237 N272 2.145 . S
Co237 N293 2.257 . S
O238 Co236 2.143 . S
O238 Co237 2.160 . S
C239 O240 1.278 . S
C239 O247 1.224 . S
O240 C239 1.278 . S
C241 O242 1.245 . S
C241 O253 1.232 . S
O242 C241 1.245 . S
O243 Co237 2.058 . S
O243 C269 1.269 . S
O244 Co236 2.074 . S
O244 C269 1.257 . S
H245 C270 0.930 . S
H246 C276 0.930 . S
O247 Co236 2.093 . S
O247 C239 1.224 . S
H248 C280 0.929 . S
H249 C282 0.930 . S
H250 C283 0.930 . S
H251 C281 0.929 . S
H252 C284 0.928 . S
O253 Co237 2.057 . S
O253 C241 1.232 . S
H254 C273 0.929 . S
H255 C274 0.929 . S
H256 C286 0.931 . S
H257 C278 0.929 . S
H258 C287 0.930 . S
H259 C279 0.931 . S
O260 Co236 2.097 . S
O260 C288 1.214 . S
H261 C289 0.929 . S
H262 C290 0.929 . S
H263 C291 0.930 . S
H264 C292 0.929 . S
H265 C294 0.930 . S
H266 C271 0.930 . S
H267 C275 0.930 . S
O268 Co237 2.037 . S
O268 C288 1.234 . S
C269 O243 1.269 . S
C269 O244 1.257 . S
C270 H245 0.930 . S
C270 C273 1.388 . S
C270 C275 1.418 . S
C271 H266 0.930 . S
C271 C274 1.404 . S
C271 C275 1.353 . S
N272 Co237 2.145 . S
N272 C273 1.397 . S
N272 C274 1.334 . S
C273 H254 0.929 . S
C273 C270 1.388 . S
C273 N272 1.397 . S
C274 H255 0.929 . S
C274 C271 1.404 . S
C274 N272 1.334 . S
C275 H267 0.930 . S
C275 C270 1.418 . S
C275 C271 1.353 . S
C276 H246 0.930 . S
C276 N277 1.330 . S
C276 C278 1.446 . S
N277 Co236 2.151 . S
N277 C276 1.330 . S
N277 C281 1.418 . S
C278 H257 0.929 . S
C278 C276 1.446 . S
C278 C279 1.332 . S
C279 H259 0.931 . S
C279 C278 1.332 . S
C279 C280 1.267 . S
C280 H248 0.929 . S
C280 C279 1.267 . S
C280 C281 1.251 . S
C281 H251 0.929 . S
C281 N277 1.418 . S
C281 C280 1.251 . S
C282 H249 0.930 . S
C282 C284 1.406 . S
C282 C287 1.261 . S
C283 H250 0.930 . S
C283 N285 1.325 . S
C283 C286 1.357 . S
C284 H252 0.928 . S
C284 C282 1.406 . S
C284 N285 1.261 . S
N285 Co236 2.214 . S
N285 C283 1.325 . S
N285 C284 1.261 . S
C286 H256 0.931 . S
C286 C283 1.357 . S
C286 C287 1.312 . S
C287 H258 0.930 . S
C287 C282 1.261 . S
C287 C286 1.312 . S
C288 O260 1.214 . S
C288 O268 1.234 . S
C289 H261 0.929 . S
C289 C292 1.391 . S
C289 C294 1.391 . S
C290 H262 0.929 . S
C290 C291 1.390 . S
C290 N293 1.391 . S
C291 H263 0.930 . S
C291 C290 1.390 . S
C291 C292 1.392 . S
C292 H264 0.929 . S
C292 C289 1.391 . S
C292 C291 1.392 . S
N293 Co237 2.257 . S
N293 C290 1.391 . S
N293 C294 1.388 . S
C294 H265 0.930 . S
C294 C289 1.391 . S
C294 N293 1.388 . S
Co295 O297 2.143 . S
Co295 O303 2.074 . S
Co295 O306 2.093 . S
Co295 O319 2.097 . S
Co295 N336 2.151 . S
Co295 N344 2.214 . S
Co296 O297 2.160 . S
Co296 O302 2.058 . S
Co296 O312 2.057 . S
Co296 O327 2.037 . S
Co296 N331 2.145 . S
Co296 N352 2.257 . S
O297 Co295 2.143 . S
O297 Co296 2.160 . S
C298 O299 1.278 . S
C298 O306 1.224 . S
O299 C298 1.278 . S
C300 O301 1.245 . S
C300 O312 1.232 . S
O301 C300 1.245 . S
O302 Co296 2.058 . S
O302 C328 1.269 . S
O303 Co295 2.074 . S
O303 C328 1.257 . S
H304 C329 0.930 . S
H305 C335 0.930 . S
O306 Co295 2.093 . S
O306 C298 1.224 . S
H307 C339 0.929 . S
H308 C341 0.930 . S
H309 C342 0.930 . S
H310 C340 0.929 . S
H311 C343 0.928 . S
O312 Co296 2.057 . S
O312 C300 1.232 . S
H313 C332 0.929 . S
H314 C333 0.929 . S
H315 C345 0.931 . S
H316 C337 0.929 . S
H317 C346 0.930 . S
H318 C338 0.931 . S
O319 Co295 2.097 . S
O319 C347 1.214 . S
H320 C348 0.929 . S
H321 C349 0.929 . S
H322 C350 0.930 . S
H323 C351 0.929 . S
H324 C353 0.930 . S
H325 C330 0.930 . S
H326 C334 0.930 . S
O327 Co296 2.037 . S
O327 C347 1.234 . S
C328 O302 1.269 . S
C328 O303 1.257 . S
C329 H304 0.930 . S
C329 C332 1.388 . S
C329 C334 1.418 . S
C330 H325 0.930 . S
C330 C333 1.404 . S
C330 C334 1.353 . S
N331 Co296 2.145 . S
N331 C332 1.397 . S
N331 C333 1.334 . S
C332 H313 0.929 . S
C332 C329 1.388 . S
C332 N331 1.397 . S
C333 H314 0.929 . S
C333 C330 1.404 . S
C333 N331 1.334 . S
C334 H326 0.930 . S
C334 C329 1.418 . S
C334 C330 1.353 . S
C335 H305 0.930 . S
C335 N336 1.330 . S
C335 C337 1.446 . S
N336 Co295 2.151 . S
N336 C335 1.330 . S
N336 C340 1.418 . S
C337 H316 0.929 . S
C337 C335 1.446 . S
C337 C338 1.332 . S
C338 H318 0.931 . S
C338 C337 1.332 . S
C338 C339 1.267 . S
C339 H307 0.929 . S
C339 C338 1.267 . S
C339 C340 1.251 . S
C340 H310 0.929 . S
C340 N336 1.418 . S
C340 C339 1.251 . S
C341 H308 0.930 . S
C341 C343 1.406 . S
C341 C346 1.261 . S
C342 H309 0.930 . S
C342 N344 1.325 . S
C342 C345 1.357 . S
C343 H311 0.928 . S
C343 C341 1.406 . S
C343 N344 1.261 . S
N344 Co295 2.214 . S
N344 C342 1.325 . S
N344 C343 1.261 . S
C345 H315 0.931 . S
C345 C342 1.357 . S
C345 C346 1.312 . S
C346 H317 0.930 . S
C346 C341 1.261 . S
C346 C345 1.312 . S
C347 O319 1.214 . S
C347 O327 1.234 . S
C348 H320 0.929 . S
C348 C351 1.391 . S
C348 C353 1.391 . S
C349 H321 0.929 . S
C349 C350 1.390 . S
C349 N352 1.391 . S
C350 H322 0.930 . S
C350 C349 1.390 . S
C350 C351 1.392 . S
C351 H323 0.929 . S
C351 C348 1.391 . S
C351 C350 1.392 . S
N352 Co296 2.257 . S
N352 C349 1.391 . S
N352 C353 1.388 . S
C353 H324 0.930 . S
C353 C348 1.391 . S
C353 N352 1.388 . S
Co354 O356 2.143 . S
Co354 O362 2.074 . S
Co354 O365 2.093 . S
Co354 O378 2.097 . S
Co354 N395 2.151 . S
Co354 N403 2.214 . S
Co355 O356 2.160 . S
Co355 O361 2.058 . S
Co355 O371 2.057 . S
Co355 O386 2.037 . S
Co355 N390 2.145 . S
Co355 N411 2.257 . S
O356 Co354 2.143 . S
O356 Co355 2.160 . S
C357 O358 1.278 . S
C357 O365 1.224 . S
O358 C357 1.278 . S
C359 O360 1.245 . S
C359 O371 1.232 . S
O360 C359 1.245 . S
O361 Co355 2.058 . S
O361 C387 1.269 . S
O362 Co354 2.074 . S
O362 C387 1.257 . S
H363 C388 0.930 . S
H364 C394 0.930 . S
O365 Co354 2.093 . S
O365 C357 1.224 . S
H366 C398 0.929 . S
H367 C400 0.930 . S
H368 C401 0.930 . S
H369 C399 0.929 . S
H370 C402 0.928 . S
O371 Co355 2.057 . S
O371 C359 1.232 . S
H372 C391 0.929 . S
H373 C392 0.929 . S
H374 C404 0.931 . S
H375 C396 0.929 . S
H376 C405 0.930 . S
H377 C397 0.931 . S
O378 Co354 2.097 . S
O378 C406 1.214 . S
H379 C407 0.929 . S
H380 C408 0.929 . S
H381 C409 0.930 . S
H382 C410 0.929 . S
H383 C412 0.930 . S
H384 C389 0.930 . S
H385 C393 0.930 . S
O386 Co355 2.037 . S
O386 C406 1.234 . S
C387 O361 1.269 . S
C387 O362 1.257 . S
C388 H363 0.930 . S
C388 C391 1.388 . S
C388 C393 1.418 . S
C389 H384 0.930 . S
C389 C392 1.404 . S
C389 C393 1.353 . S
N390 Co355 2.145 . S
N390 C391 1.397 . S
N390 C392 1.334 . S
C391 H372 0.929 . S
C391 C388 1.388 . S
C391 N390 1.397 . S
C392 H373 0.929 . S
C392 C389 1.404 . S
C392 N390 1.334 . S
C393 H385 0.930 . S
C393 C388 1.418 . S
C393 C389 1.353 . S
C394 H364 0.930 . S
C394 N395 1.330 . S
C394 C396 1.446 . S
N395 Co354 2.151 . S
N395 C394 1.330 . S
N395 C399 1.418 . S
C396 H375 0.929 . S
C396 C394 1.446 . S
C396 C397 1.332 . S
C397 H377 0.931 . S
C397 C396 1.332 . S
C397 C398 1.267 . S
C398 H366 0.929 . S
C398 C397 1.267 . S
C398 C399 1.251 . S
C399 H369 0.929 . S
C399 N395 1.418 . S
C399 C398 1.251 . S
C400 H367 0.930 . S
C400 C402 1.406 . S
C400 C405 1.261 . S
C401 H368 0.930 . S
C401 N403 1.325 . S
C401 C404 1.357 . S
C402 H370 0.928 . S
C402 C400 1.406 . S
C402 N403 1.261 . S
N403 Co354 2.214 . S
N403 C401 1.325 . S
N403 C402 1.261 . S
C404 H374 0.931 . S
C404 C401 1.357 . S
C404 C405 1.312 . S
C405 H376 0.930 . S
C405 C400 1.261 . S
C405 C404 1.312 . S
C406 O378 1.214 . S
C406 O386 1.234 . S
C407 H379 0.929 . S
C407 C410 1.391 . S
C407 C412 1.391 . S
C408 H380 0.929 . S
C408 C409 1.390 . S
C408 N411 1.391 . S
C409 H381 0.930 . S
C409 C408 1.390 . S
C409 C410 1.392 . S
C410 H382 0.929 . S
C410 C407 1.391 . S
C410 C409 1.392 . S
N411 Co355 2.257 . S
N411 C408 1.391 . S
N411 C412 1.388 . S
C412 H383 0.930 . S
C412 C407 1.391 . S
C412 N411 1.388 . S
Co413 O415 2.143 . S
Co413 O421 2.074 . S
Co413 O424 2.093 . S
Co413 O437 2.097 . S
Co413 N454 2.151 . S
Co413 N462 2.214 . S
Co414 O415 2.160 . S
Co414 O420 2.058 . S
Co414 O430 2.057 . S
Co414 O445 2.037 . S
Co414 N449 2.145 . S
Co414 N470 2.257 . S
O415 Co413 2.143 . S
O415 Co414 2.160 . S
C416 O417 1.278 . S
C416 O424 1.224 . S
O417 C416 1.278 . S
C418 O419 1.245 . S
C418 O430 1.232 . S
O419 C418 1.245 . S
O420 Co414 2.058 . S
O420 C446 1.269 . S
O421 Co413 2.074 . S
O421 C446 1.257 . S
H422 C447 0.930 . S
H423 C453 0.930 . S
O424 Co413 2.093 . S
O424 C416 1.224 . S
H425 C457 0.929 . S
H426 C459 0.930 . S
H427 C460 0.930 . S
H428 C458 0.929 . S
H429 C461 0.928 . S
O430 Co414 2.057 . S
O430 C418 1.232 . S
H431 C450 0.929 . S
H432 C451 0.929 . S
H433 C463 0.931 . S
H434 C455 0.929 . S
H435 C464 0.930 . S
H436 C456 0.931 . S
O437 Co413 2.097 . S
O437 C465 1.214 . S
H438 C466 0.929 . S
H439 C467 0.929 . S
H440 C468 0.930 . S
H441 C469 0.929 . S
H442 C471 0.930 . S
H443 C448 0.930 . S
H444 C452 0.930 . S
O445 Co414 2.037 . S
O445 C465 1.234 . S
C446 O420 1.269 . S
C446 O421 1.257 . S
C447 H422 0.930 . S
C447 C450 1.388 . S
C447 C452 1.418 . S
C448 H443 0.930 . S
C448 C451 1.404 . S
C448 C452 1.353 . S
N449 Co414 2.145 . S
N449 C450 1.397 . S
N449 C451 1.334 . S
C450 H431 0.929 . S
C450 C447 1.388 . S
C450 N449 1.397 . S
C451 H432 0.929 . S
C451 C448 1.404 . S
C451 N449 1.334 . S
C452 H444 0.930 . S
C452 C447 1.418 . S
C452 C448 1.353 . S
C453 H423 0.930 . S
C453 N454 1.330 . S
C453 C455 1.446 . S
N454 Co413 2.151 . S
N454 C453 1.330 . S
N454 C458 1.418 . S
C455 H434 0.929 . S
C455 C453 1.446 . S
C455 C456 1.332 . S
C456 H436 0.931 . S
C456 C455 1.332 . S
C456 C457 1.267 . S
C457 H425 0.929 . S
C457 C456 1.267 . S
C457 C458 1.251 . S
C458 H428 0.929 . S
C458 N454 1.418 . S
C458 C457 1.251 . S
C459 H426 0.930 . S
C459 C461 1.406 . S
C459 C464 1.261 . S
C460 H427 0.930 . S
C460 N462 1.325 . S
C460 C463 1.357 . S
C461 H429 0.928 . S
C461 C459 1.406 . S
C461 N462 1.261 . S
N462 Co413 2.214 . S
N462 C460 1.325 . S
N462 C461 1.261 . S
C463 H433 0.931 . S
C463 C460 1.357 . S
C463 C464 1.312 . S
C464 H435 0.930 . S
C464 C459 1.261 . S
C464 C463 1.312 . S
C465 O437 1.214 . S
C465 O445 1.234 . S
C466 H438 0.929 . S
C466 C469 1.391 . S
C466 C471 1.391 . S
C467 H439 0.929 . S
C467 C468 1.390 . S
C467 N470 1.391 . S
C468 H440 0.930 . S
C468 C467 1.390 . S
C468 C469 1.392 . S
C469 H441 0.929 . S
C469 C466 1.391 . S
C469 C468 1.392 . S
N470 Co414 2.257 . S
N470 C467 1.391 . S
N470 C471 1.388 . S
C471 H442 0.930 . S
C471 C466 1.391 . S
C471 N470 1.388 . S
C472 C473 1.387 . S
C472 H476 0.950 . S
C472 C481 1.390 1_556 S
C473 C472 1.387 . S
C473 C475 1.387 . S
H474 C481 0.950 . S
C475 C473 1.387 . S
C475 C477 1.390 1_556 S
C475 H479 0.950 . S
H476 C472 0.950 . S
C477 C475 1.390 1_554 S
C477 C478 1.387 . S
C477 H480 0.950 . S
C478 C477 1.387 . S
C478 C481 1.387 . S
H479 C475 0.950 . S
H480 C477 0.950 . S
C481 C472 1.390 1_554 S
C481 H474 0.950 . S
C481 C478 1.387 . S
C482 C483 1.387 . S
C482 H486 0.950 . S
C482 C491 1.390 1_554 S
C483 C482 1.387 . S
C483 C485 1.387 . S
H484 C491 0.950 . S
C485 C483 1.387 . S
C485 C487 1.390 1_554 S
C485 H489 0.950 . S
H486 C482 0.950 . S
C487 C485 1.390 1_556 S
C487 C488 1.387 . S
C487 H490 0.950 . S
C488 C487 1.387 . S
C488 C491 1.387 . S
H489 C485 0.950 . S
H490 C487 0.950 . S
C491 C482 1.390 1_556 S
C491 H484 0.950 . S
C491 C488 1.387 . S
C492 C493 1.387 . S
C492 H496 0.950 . S
C492 C501 1.390 1_554 S
C493 C492 1.387 . S
C493 C495 1.387 . S
H494 C501 0.950 . S
C495 C493 1.387 . S
C495 C497 1.390 1_554 S
C495 H499 0.950 . S
H496 C492 0.950 . S
C497 C495 1.390 1_556 S
C497 C498 1.387 . S
C497 H500 0.950 . S
C498 C497 1.387 . S
C498 C501 1.387 . S
H499 C495 0.950 . S
H500 C497 0.950 . S
C501 C492 1.390 1_556 S
C501 H494 0.950 . S
C501 C498 1.387 . S
C502 C503 1.387 . S
C502 H506 0.950 . S
C502 C511 1.390 1_556 S
C503 C502 1.387 . S
C503 C505 1.387 . S
H504 C511 0.950 . S
C505 C503 1.387 . S
C505 C507 1.390 1_556 S
C505 H509 0.950 . S
H506 C502 0.950 . S
C507 C505 1.390 1_554 S
C507 C508 1.387 . S
C507 H510 0.950 . S
C508 C507 1.387 . S
C508 C511 1.387 . S
H509 C505 0.950 . S
H510 C507 0.950 . S
C511 C502 1.390 1_554 S
C511 H504 0.950 . S
C511 C508 1.387 . S
C512 C513 1.387 . S
C512 H516 0.950 . S
C512 C521 1.390 1_565 S
C513 C512 1.387 . S
C513 C515 1.387 . S
H514 C521 0.950 . S
C515 C513 1.387 . S
C515 C517 1.390 1_565 S
C515 H519 0.950 . S
H516 C512 0.950 . S
C517 C515 1.390 1_545 S
C517 C518 1.387 . S
C517 H520 0.950 . S
C518 C517 1.387 . S
C518 C521 1.387 . S
H519 C515 0.950 . S
H520 C517 0.950 . S
C521 C512 1.390 1_545 S
C521 H514 0.950 . S
C521 C518 1.387 . S
C522 C523 1.387 . S
C522 H526 0.950 . S
C522 C531 1.390 1_455 S
C523 C522 1.387 . S
C523 C525 1.387 . S
H524 C531 0.950 . S
C525 C523 1.387 . S
C525 C527 1.390 1_455 S
C525 H529 0.950 . S
H526 C522 0.950 . S
C527 C525 1.390 1_655 S
C527 C528 1.387 . S
C527 H530 0.950 . S
C528 C527 1.387 . S
C528 C531 1.387 . S
H529 C525 0.950 . S
H530 C527 0.950 . S
C531 C522 1.390 1_655 S
C531 H524 0.950 . S
C531 C528 1.387 . S
C532 C533 1.387 . S
C532 H536 0.950 . S
C532 C541 1.390 1_545 S
C533 C532 1.387 . S
C533 C535 1.387 . S
H534 C541 0.950 . S
C535 C533 1.387 . S
C535 C537 1.390 1_545 S
C535 H539 0.950 . S
H536 C532 0.950 . S
C537 C535 1.390 1_565 S
C537 C538 1.387 . S
C537 H540 0.950 . S
C538 C537 1.387 . S
C538 C541 1.387 . S
H539 C535 0.950 . S
H540 C537 0.950 . S
C541 C532 1.390 1_565 S
C541 H534 0.950 . S
C541 C538 1.387 . S
C542 C543 1.387 . S
C542 H546 0.950 . S
C542 C551 1.390 1_655 S
C543 C542 1.387 . S
C543 C545 1.387 . S
H544 C551 0.950 . S
C545 C543 1.387 . S
C545 C547 1.390 1_655 S
C545 H549 0.950 . S
H546 C542 0.950 . S
C547 C545 1.390 1_455 S
C547 C548 1.387 . S
C547 H550 0.950 . S
C548 C547 1.387 . S
C548 C551 1.387 . S
H549 C545 0.950 . S
H550 C547 0.950 . S
C551 C542 1.390 1_455 S
C551 H544 0.950 . S
C551 C548 1.387 . S
C552 C553 1.387 . S
C552 H556 0.950 . S
C552 C561 1.390 . S
C553 C552 1.387 . S
C553 C555 1.387 . S
H554 C561 0.950 . S
C555 C553 1.387 . S
C555 C557 1.390 . S
C555 H559 0.950 . S
H556 C552 0.950 . S
C557 C555 1.390 . S
C557 C558 1.387 . S
C557 H560 0.950 . S
C558 C557 1.387 . S
C558 C561 1.387 . S
H559 C555 0.950 . S
H560 C557 0.950 . S
C561 C552 1.390 . S
C561 H554 0.950 . S
C561 C558 1.387 . S
C562 C563 1.387 . S
C562 H566 0.950 . S
C562 C571 1.390 . S
C563 C562 1.387 . S
C563 C565 1.387 . S
H564 C571 0.950 . S
C565 C563 1.387 . S
C565 C567 1.390 . S
C565 H569 0.950 . S
H566 C562 0.950 . S
C567 C565 1.390 . S
C567 C568 1.387 . S
C567 H570 0.950 . S
C568 C567 1.387 . S
C568 C571 1.387 . S
H569 C565 0.950 . S
H570 C567 0.950 . S
C571 C562 1.390 . S
C571 H564 0.950 . S
C571 C568 1.387 . S
C572 C573 1.387 . S
C572 H576 0.950 . S
C572 C581 1.390 . S
C573 C572 1.387 . S
C573 C575 1.387 . S
H574 C581 0.950 . S
C575 C573 1.387 . S
C575 C577 1.390 . S
C575 H579 0.950 . S
H576 C572 0.950 . S
C577 C575 1.390 . S
C577 C578 1.387 . S
C577 H580 0.950 . S
C578 C577 1.387 . S
C578 C581 1.387 . S
H579 C575 0.950 . S
H580 C577 0.950 . S
C581 C572 1.390 . S
C581 H574 0.950 . S
C581 C578 1.387 . S
C582 C583 1.387 . S
C582 H586 0.950 . S
C582 C591 1.390 . S
C583 C582 1.387 . S
C583 C585 1.387 . S
H584 C591 0.950 . S
C585 C583 1.387 . S
C585 C587 1.390 . S
C585 H589 0.950 . S
H586 C582 0.950 . S
C587 C585 1.390 . S
C587 C588 1.387 . S
C587 H590 0.950 . S
C588 C587 1.387 . S
C588 C591 1.387 . S
H589 C585 0.950 . S
H590 C587 0.950 . S
C591 C582 1.390 . S
C591 H584 0.950 . S
C591 C588 1.387 . S
C592 C593 1.387 . S
C592 H596 0.950 . S
C592 C601 1.390 . S
C593 C592 1.387 . S
C593 C595 1.387 . S
H594 C601 0.950 . S
C595 C593 1.387 . S
C595 C597 1.390 . S
C595 H599 0.950 . S
H596 C592 0.950 . S
C597 C595 1.390 . S
C597 C598 1.387 . S
C597 H600 0.950 . S
C598 C597 1.387 . S
C598 C601 1.387 . S
H599 C595 0.950 . S
H600 C597 0.950 . S
C601 C592 1.390 . S
C601 H594 0.950 . S
C601 C598 1.387 . S
C602 C603 1.387 . S
C602 H606 0.950 . S
C602 C611 1.390 . S
C603 C602 1.387 . S
C603 C605 1.387 . S
H604 C611 0.950 . S
C605 C603 1.387 . S
C605 C607 1.390 . S
C605 H609 0.950 . S
H606 C602 0.950 . S
C607 C605 1.390 . S
C607 C608 1.387 . S
C607 H610 0.950 . S
C608 C607 1.387 . S
C608 C611 1.387 . S
H609 C605 0.950 . S
H610 C607 0.950 . S
C611 C602 1.390 . S
C611 H604 0.950 . S
C611 C608 1.387 . S
C612 C613 1.387 . S
C612 H616 0.950 . S
C612 C621 1.390 . S
C613 C612 1.387 . S
C613 C615 1.387 . S
H614 C621 0.950 . S
C615 C613 1.387 . S
C615 C617 1.390 . S
C615 H619 0.950 . S
H616 C612 0.950 . S
C617 C615 1.390 . S
C617 C618 1.387 . S
C617 H620 0.950 . S
C618 C617 1.387 . S
C618 C621 1.387 . S
H619 C615 0.950 . S
H620 C617 0.950 . S
C621 C612 1.390 . S
C621 H614 0.950 . S
C621 C618 1.387 . S
C622 C623 1.387 . S
C622 H626 0.950 . S
C622 C631 1.390 . S
C623 C622 1.387 . S
C623 C625 1.387 . S
H624 C631 0.950 . S
C625 C623 1.387 . S
C625 C627 1.390 . S
C625 H629 0.950 . S
H626 C622 0.950 . S
C627 C625 1.390 . S
C627 C628 1.387 . S
C627 H630 0.950 . S
C628 C627 1.387 . S
C628 C631 1.387 . S
H629 C625 0.950 . S
H630 C627 0.950 . S
C631 C622 1.390 . S
C631 H624 0.950 . S
C631 C628 1.387 . S
C473 C52 1.702 . S
C478 C210 1.704 . S
C483 C33 1.707 . S
C488 C92 1.707 . S
C493 C111 1.705 . S
C498 C151 1.707 . S
C503 C229 1.702 . S
C508 C170 1.702 . S
C513 C288 1.702 . S
C518 C465 1.702 . S
C523 C347 1.705 . S
C528 C269 1.707 . S
C533 C387 1.707 . S
C538 C328 1.707 . S
C543 C446 1.707 . S
C548 C406 1.705 . S
C553 C359 1.610 . S
C558 C5 1.610 . S
C563 C62 1.603 . S
C568 C418 1.610 . S
C573 C239 1.602 . S
C578 C121 1.602 . S
C583 C298 1.603 . S
C588 C182 1.609 . S
C593 C300 1.610 . S
C598 C180 1.603 . S
C603 C3 1.604 . S
C608 C357 1.604 . S
C613 C64 1.609 . S
C618 C416 1.603 . S
C623 C123 1.609 . S
C628 C241 1.609 . S
