# Generated by pormake.
# Topology umd, (4)-cn, num edge types: 1
# Building blocks:
#     Node 0, Type 0, BuildingBlock: MUDLON_clean_sbu_0, # of connection points: 4
#     Node 1, Type 0, BuildingBlock: MUDLON_clean_sbu_0, # of connection points: 4
#     Node 2, Type 0, BuildingBlock: MUDLON_clean_sbu_0, # of connection points: 4
#     Node 3, Type 0, BuildingBlock: MUDLON_clean_sbu_0, # of connection points: 4
#     Node 4, Type 0, BuildingBlock: MUDLON_clean_sbu_0, # of connection points: 4
#     Node 5, Type 0, BuildingBlock: MUDLON_clean_sbu_0, # of connection points: 4
#     Node 6, Type 0, BuildingBlock: MUDLON_clean_sbu_0, # of connection points: 4
#     Node 7, Type 0, BuildingBlock: MUDLON_clean_sbu_0, # of connection points: 4
#     Node 8, Type 0, BuildingBlock: MUDLON_clean_sbu_0, # of connection points: 4
#     Node 9, Type 0, BuildingBlock: MUDLON_clean_sbu_0, # of connection points: 4
#     Node 10, Type 0, BuildingBlock: MUDLON_clean_sbu_0, # of connection points: 4
#     Node 11, Type 0, BuildingBlock: MUDLON_clean_sbu_0, # of connection points: 4
#     Node 12, Type 0, BuildingBlock: MUDLON_clean_sbu_0, # of connection points: 4
#     Node 13, Type 0, BuildingBlock: MUDLON_clean_sbu_0, # of connection points: 4
#     Node 14, Type 0, BuildingBlock: MUDLON_clean_sbu_0, # of connection points: 4
#     Node 15, Type 0, BuildingBlock: MUDLON_clean_sbu_0, # of connection points: 4
#     Edge 16, Type (0, 0), BuildingBlock: OJICUG_clean_linker_0, # of connection points: 2
#     Edge 17, Type (0, 0), BuildingBlock: OJICUG_clean_linker_0, # of connection points: 2
#     Edge 18, Type (0, 0), BuildingBlock: OJICUG_clean_linker_0, # of connection points: 2
#     Edge 19, Type (0, 0), BuildingBlock: OJICUG_clean_linker_0, # of connection points: 2
#     Edge 20, Type (0, 0), BuildingBlock: OJICUG_clean_linker_0, # of connection points: 2
#     Edge 21, Type (0, 0), BuildingBlock: OJICUG_clean_linker_0, # of connection points: 2
#     Edge 22, Type (0, 0), BuildingBlock: OJICUG_clean_linker_0, # of connection points: 2
#     Edge 23, Type (0, 0), BuildingBlock: OJICUG_clean_linker_0, # of connection points: 2
#     Edge 24, Type (0, 0), BuildingBlock: OJICUG_clean_linker_0, # of connection points: 2
#     Edge 25, Type (0, 0), BuildingBlock: OJICUG_clean_linker_0, # of connection points: 2
#     Edge 26, Type (0, 0), BuildingBlock: OJICUG_clean_linker_0, # of connection points: 2
#     Edge 27, Type (0, 0), BuildingBlock: OJICUG_clean_linker_0, # of connection points: 2
#     Edge 28, Type (0, 0), BuildingBlock: OJICUG_clean_linker_0, # of connection points: 2
#     Edge 29, Type (0, 0), BuildingBlock: OJICUG_clean_linker_0, # of connection points: 2
#     Edge 30, Type (0, 0), BuildingBlock: OJICUG_clean_linker_0, # of connection points: 2
#     Edge 31, Type (0, 0), BuildingBlock: OJICUG_clean_linker_0, # of connection points: 2
#     Edge 32, Type (0, 0), BuildingBlock: OJICUG_clean_linker_0, # of connection points: 2
#     Edge 33, Type (0, 0), BuildingBlock: OJICUG_clean_linker_0, # of connection points: 2
#     Edge 34, Type (0, 0), BuildingBlock: OJICUG_clean_linker_0, # of connection points: 2
#     Edge 35, Type (0, 0), BuildingBlock: OJICUG_clean_linker_0, # of connection points: 2
#     Edge 36, Type (0, 0), BuildingBlock: OJICUG_clean_linker_0, # of connection points: 2
#     Edge 37, Type (0, 0), BuildingBlock: OJICUG_clean_linker_0, # of connection points: 2
#     Edge 38, Type (0, 0), BuildingBlock: OJICUG_clean_linker_0, # of connection points: 2
#     Edge 39, Type (0, 0), BuildingBlock: OJICUG_clean_linker_0, # of connection points: 2
#     Edge 40, Type (0, 0), BuildingBlock: OJICUG_clean_linker_0, # of connection points: 2
#     Edge 41, Type (0, 0), BuildingBlock: OJICUG_clean_linker_0, # of connection points: 2
#     Edge 42, Type (0, 0), BuildingBlock: OJICUG_clean_linker_0, # of connection points: 2
#     Edge 43, Type (0, 0), BuildingBlock: OJICUG_clean_linker_0, # of connection points: 2
#     Edge 44, Type (0, 0), BuildingBlock: OJICUG_clean_linker_0, # of connection points: 2
#     Edge 45, Type (0, 0), BuildingBlock: OJICUG_clean_linker_0, # of connection points: 2
#     Edge 46, Type (0, 0), BuildingBlock: OJICUG_clean_linker_0, # of connection points: 2
#     Edge 47, Type (0, 0), BuildingBlock: OJICUG_clean_linker_0, # of connection points: 2
# Relax obj value: 0.014
# Max RMSD: 0.191
# Mean RMSD: 0.191
data_MOF--net-umd--node1-MUDLON_clean_sbu_0--edge1-OJICUG_clean_linker_0
_symmetry_space_group_name_H-M    P1
_symmetry_Int_Tables_number       1
_symmetry_cell_setting            triclinic
loop_
_symmetry_equiv_pos_as_xyz
'x, y, z'
_cell_length_a     30.040405
_cell_length_b     30.026167
_cell_length_c     43.607553
_cell_angle_alpha  89.637049
_cell_angle_beta   90.024
_cell_angle_gamma 89.925603
loop_
_atom_site_label
_atom_site_type_symbol
_atom_site_fract_x
_atom_site_fract_y
_atom_site_fract_z
_atom_type_partial_charge
Mg0 Mg 0.18098 0.45225 0.15963 0.0
C1 C 0.21736 0.50634 0.10018 0.0
O2 O 0.2539 0.51934 0.11403 0.0
C3 C 0.23809 0.48534 0.21407 0.0
O4 O 0.27103 0.46325 0.20147 0.0
C5 C 0.25348 0.39182 0.145 0.0
O6 O 0.26415 0.43072 0.13335 0.0
O7 O 0.21651 0.38835 0.15903 0.0
O8 O 0.18871 0.48297 0.11451 0.0
O9 O 0.10865 0.4511 0.16337 0.0
C10 C 0.09271 0.49015 0.15969 0.0
O11 O 0.12056 0.52321 0.15497 0.0
O12 O 0.20095 0.48846 0.20021 0.0
Mg13 Mg 0.57073 0.18948 0.65821 0.0
C14 C 0.51957 0.18891 0.59783 0.0
O15 O 0.51788 0.1461 0.60396 0.0
C16 C 0.50476 0.21337 0.71094 0.0
O17 O 0.47411 0.21624 0.68952 0.0
C18 C 0.62424 0.26728 0.66012 0.0
O19 O 0.5823 0.27837 0.66413 0.0
O20 O 0.6334 0.2262 0.65655 0.0
O21 O 0.53547 0.21509 0.6179 0.0
O22 O 0.57139 0.11675 0.65652 0.0
C23 C 0.53448 0.09874 0.66399 0.0
O24 O 0.50118 0.12463 0.67185 0.0
O25 O 0.54467 0.20473 0.70347 0.0
Mg26 Mg 0.81683 0.57675 0.15274 0.0
C27 C 0.8113 0.52598 0.09253 0.0
O28 O 0.85085 0.51237 0.10138 0.0
C29 C 0.77234 0.57139 0.21514 0.0
O30 O 0.75933 0.61159 0.20713 0.0
C31 C 0.78839 0.66712 0.12785 0.0
O32 O 0.79752 0.6476 0.10171 0.0
O33 O 0.79679 0.64653 0.15278 0.0
O34 O 0.78831 0.54978 0.11067 0.0
O35 O 0.88874 0.56636 0.1525 0.0
C36 C 0.90349 0.52861 0.16144 0.0
O37 O 0.87497 0.49806 0.17042 0.0
O38 O 0.79368 0.54787 0.19586 0.0
Mg39 Mg 0.47021 0.81841 0.65701 0.0
C40 C 0.49587 0.77941 0.59427 0.0
O41 O 0.46681 0.74828 0.60114 0.0
C42 C 0.48379 0.7965 0.72212 0.0
O43 O 0.44116 0.80616 0.72067 0.0
C44 C 0.41239 0.74113 0.66369 0.0
O45 O 0.45284 0.7271 0.67005 0.0
O46 O 0.40716 0.78191 0.65641 0.0
O47 O 0.50528 0.80876 0.6141 0.0
O48 O 0.46794 0.89059 0.66071 0.0
C49 C 0.50643 0.90804 0.65803 0.0
O50 O 0.54077 0.88164 0.65374 0.0
O51 O 0.50656 0.79737 0.69753 0.0
Mg52 Mg 0.19392 0.57306 0.39719 0.0
C53 C 0.22609 0.51978 0.45799 0.0
O54 O 0.26243 0.50473 0.44489 0.0
C55 C 0.24542 0.54313 0.34005 0.0
O56 O 0.2733 0.5749 0.34754 0.0
C57 C 0.26956 0.63009 0.40983 0.0
O58 O 0.27989 0.59017 0.42001 0.0
O59 O 0.2316 0.63555 0.3974 0.0
O60 O 0.19891 0.544 0.44293 0.0
O61 O 0.12189 0.57686 0.39204 0.0
C62 C 0.10418 0.53862 0.39574 0.0
O63 O 0.13038 0.50445 0.40141 0.0
O64 O 0.21351 0.53333 0.35804 0.0
Mg65 Mg 0.45674 0.18 0.9051 0.0
C66 C 0.48479 0.22425 0.96524 0.0
O67 O 0.45203 0.25145 0.95823 0.0
C68 C 0.45681 0.19601 0.83879 0.0
O69 O 0.41557 0.18489 0.84529 0.0
C70 C 0.40075 0.25772 0.89834 0.0
O71 O 0.44129 0.26929 0.89025 0.0
O72 O 0.39434 0.2178 0.90732 0.0
O73 O 0.49614 0.19457 0.94604 0.0
O74 O 0.45452 0.10748 0.90474 0.0
C75 C 0.49343 0.0909 0.90744 0.0
O76 O 0.52732 0.11823 0.91017 0.0
O77 O 0.48512 0.19738 0.86054 0.0
Mg78 Mg 0.82363 0.47134 0.3978 0.0
C79 C 0.82371 0.52085 0.45856 0.0
O80 O 0.86606 0.52527 0.45181 0.0
C81 C 0.77791 0.52588 0.34412 0.0
O82 O 0.75412 0.54694 0.36474 0.0
C83 C 0.74863 0.41368 0.3987 0.0
O84 O 0.73471 0.45515 0.3971 0.0
O85 O 0.79044 0.40674 0.39955 0.0
O86 O 0.79765 0.50432 0.43862 0.0
O87 O 0.89618 0.47303 0.39906 0.0
C88 C 0.91351 0.50982 0.39051 0.0
O89 O 0.88705 0.54234 0.38166 0.0
O90 O 0.80634 0.49696 0.3526 0.0
Mg91 Mg 0.57733 0.81393 0.90676 0.0
C92 C 0.52334 0.79846 0.96516 0.0
O93 O 0.50192 0.83403 0.95549 0.0
C94 C 0.56748 0.79072 0.84092 0.0
O95 O 0.61046 0.7983 0.8427 0.0
C96 C 0.66938 0.78612 0.9277 0.0
O97 O 0.65227 0.79662 0.95442 0.0
O98 O 0.64662 0.79334 0.90356 0.0
O99 O 0.55341 0.78174 0.94829 0.0
O100 O 0.56713 0.88568 0.90991 0.0
C101 C 0.52931 0.90135 0.90209 0.0
O102 O 0.4985 0.87385 0.89231 0.0
O103 O 0.54417 0.79277 0.86522 0.0
Mg104 Mg 0.83053 0.55836 0.90178 0.0
C105 C 0.78237 0.53859 0.96255 0.0
O106 O 0.75326 0.56752 0.95194 0.0
C107 C 0.80207 0.55249 0.83696 0.0
O108 O 0.81033 0.59517 0.84011 0.0
C109 C 0.80597 0.65199 0.92511 0.0
O110 O 0.82528 0.6384 0.95054 0.0
O111 O 0.80598 0.62662 0.90187 0.0
O112 O 0.81441 0.52653 0.94542 0.0
O113 O 0.90215 0.55141 0.8979 0.0
C114 C 0.92773 0.55845 0.92054 0.0
O115 O 0.91102 0.57466 0.94598 0.0
O116 O 0.80517 0.52718 0.86043 0.0
Mg117 Mg 0.47725 0.82749 0.40283 0.0
C118 C 0.50812 0.82838 0.46816 0.0
O119 O 0.49598 0.87008 0.46446 0.0
C120 C 0.48341 0.79877 0.33825 0.0
O121 O 0.44061 0.80648 0.3414 0.0
C122 C 0.4125 0.75859 0.40977 0.0
O123 O 0.45217 0.74126 0.41431 0.0
O124 O 0.40988 0.79993 0.40336 0.0
O125 O 0.50627 0.80219 0.4454 0.0
O126 O 0.48657 0.89963 0.40168 0.0
C127 C 0.52665 0.91195 0.4061 0.0
O128 O 0.55737 0.88139 0.41057 0.0
O129 O 0.50865 0.80303 0.36149 0.0
Mg130 Mg 0.19782 0.46037 0.9074 0.0
C131 C 0.19654 0.48012 0.97151 0.0
O132 O 0.16536 0.45048 0.96627 0.0
C133 C 0.18896 0.47221 0.84244 0.0
O134 O 0.15946 0.44222 0.85075 0.0
C135 C 0.2693 0.39884 0.89975 0.0
O136 O 0.28409 0.43912 0.89367 0.0
O137 O 0.22865 0.39454 0.90738 0.0
O138 O 0.22071 0.49296 0.94919 0.0
O139 O 0.12535 0.46646 0.90908 0.0
C140 C 0.1125 0.5055 0.91626 0.0
O141 O 0.1426 0.53596 0.92218 0.0
O142 O 0.21399 0.48906 0.86286 0.0
Mg143 Mg 0.55836 0.19706 0.40607 0.0
C144 C 0.53375 0.23209 0.47 0.0
O145 O 0.56135 0.26424 0.46253 0.0
C146 C 0.54579 0.22198 0.34175 0.0
O147 O 0.58846 0.21289 0.34406 0.0
C148 C 0.6129 0.27662 0.40164 0.0
O149 O 0.57153 0.28941 0.39715 0.0
O150 O 0.62025 0.23549 0.40678 0.0
O151 O 0.5245 0.20248 0.45024 0.0
O152 O 0.56306 0.12593 0.39792 0.0
C153 C 0.57233 0.09782 0.41886 0.0
O154 O 0.58546 0.11201 0.44582 0.0
O155 O 0.52189 0.21988 0.36584 0.0
Mg156 Mg 0.82752 0.47181 0.64936 0.0
C157 C 0.7875 0.49677 0.58663 0.0
O158 O 0.75856 0.46568 0.59381 0.0
C159 C 0.80586 0.4803 0.71481 0.0
O160 O 0.81645 0.43808 0.71182 0.0
C161 C 0.75159 0.41215 0.65527 0.0
O162 O 0.7365 0.45239 0.66089 0.0
O163 O 0.7926 0.40781 0.64857 0.0
O164 O 0.81678 0.5078 0.60626 0.0
O165 O 0.89949 0.46979 0.65429 0.0
C166 C 0.92482 0.46655 0.63107 0.0
O167 O 0.90728 0.45847 0.60408 0.0
O168 O 0.80599 0.50514 0.69102 0.0
Mg169 Mg 0.56142 0.82927 0.15155 0.0
C170 C 0.54073 0.77298 0.09442 0.0
O171 O 0.57086 0.7456 0.10561 0.0
C172 C 0.55673 0.79879 0.21643 0.0
O173 O 0.59968 0.80541 0.21306 0.0
C174 C 0.65443 0.80409 0.12739 0.0
O175 O 0.63888 0.81967 0.10127 0.0
O176 O 0.63056 0.80705 0.15137 0.0
O177 O 0.52927 0.8068 0.1099 0.0
O178 O 0.55019 0.90101 0.15164 0.0
C179 C 0.51178 0.91276 0.14212 0.0
O180 O 0.48388 0.88181 0.13313 0.0
O181 O 0.53128 0.80429 0.19338 0.0
Mg182 Mg 0.199 0.55031 0.65219 0.0
C183 C 0.20022 0.53788 0.58741 0.0
O184 O 0.17085 0.569 0.59364 0.0
C185 C 0.18693 0.53024 0.7164 0.0
O186 O 0.1552 0.5585 0.70908 0.0
C187 C 0.27349 0.60756 0.66155 0.0
O188 O 0.28633 0.56619 0.6662 0.0
O189 O 0.23292 0.61449 0.65452 0.0
O190 O 0.2221 0.52062 0.60948 0.0
O191 O 0.12625 0.54711 0.64908 0.0
C192 C 0.11181 0.50996 0.63917 0.0
O193 O 0.14062 0.47915 0.63129 0.0
O194 O 0.21396 0.5177 0.69571 0.0
Mg195 Mg 0.46274 0.19641 0.15573 0.0
C196 C 0.51234 0.19474 0.09385 0.0
O197 O 0.52428 0.15464 0.10284 0.0
C198 C 0.46939 0.22413 0.22059 0.0
O199 O 0.42679 0.21523 0.21775 0.0
C200 C 0.39643 0.26378 0.14633 0.0
O201 O 0.43535 0.28127 0.13969 0.0
O202 O 0.39515 0.22338 0.15525 0.0
O203 O 0.49093 0.21946 0.1123 0.0
O204 O 0.47072 0.12458 0.1585 0.0
C205 C 0.45413 0.09687 0.13984 0.0
O206 O 0.4271 0.11118 0.11821 0.0
O207 O 0.49421 0.22141 0.197 0.0
C208 C 0.02835 0.54228 0.1531 0.0
C209 C 0.04415 0.49926 0.16021 0.0
H210 H 0.97192 0.58524 0.14782 0.0
C211 C 0.01325 0.4659 0.16774 0.0
H212 H 0.05117 0.56884 0.14713 0.0
C213 C 0.96757 0.47548 0.16825 0.0
C214 C 0.95185 0.51855 0.16108 0.0
H215 H 0.02431 0.43248 0.17334 0.0
H216 H 0.94459 0.44904 0.17418 0.0
C217 C 0.98281 0.55177 0.15346 0.0
C218 C 0.5558 0.97506 0.65398 0.0
C219 C 0.51333 0.95686 0.65957 0.0
H220 H 0.59588 0.03394 0.6509 0.0
C221 C 0.47811 0.98572 0.6667 0.0
H222 H 0.58373 0.95378 0.64837 0.0
C223 C 0.48522 0.03168 0.66827 0.0
C224 C 0.52765 0.04989 0.6626 0.0
H225 H 0.44506 0.97283 0.67117 0.0
H226 H 0.45726 0.05296 0.67384 0.0
C227 C 0.56286 0.02105 0.6554 0.0
C228 C 0.02636 0.56656 0.38604 0.0
C229 C 0.05534 0.53173 0.39419 0.0
H230 H 0.95893 0.58688 0.37834 0.0
C231 C 0.03726 0.48954 0.40096 0.0
H232 H 0.03917 0.59939 0.38067 0.0
C233 C 0.99133 0.48233 0.39974 0.0
C234 C 0.96232 0.51709 0.39157 0.0
H235 H 0.05859 0.4619 0.40737 0.0
H236 H 0.9786 0.44949 0.40519 0.0
C237 C 0.98036 0.55928 0.38468 0.0
C238 C 0.47664 0.96626 0.89801 0.0
C239 C 0.51969 0.94972 0.90408 0.0
H240 H 0.43431 0.02374 0.89451 0.0
C241 C 0.55342 0.9799 0.91188 0.0
H242 H 0.44981 0.94388 0.89203 0.0
C243 C 0.54452 0.02554 0.9132 0.0
C244 C 0.50162 0.04218 0.90691 0.0
H245 H 0.58688 0.96836 0.91674 0.0
H246 H 0.57151 0.0478 0.91907 0.0
C247 C 0.46766 1.01201 0.89951 0.0
C248 C 1.0064 0.56466 0.93867 0.0
C249 C 0.97504 0.54497 0.91917 0.0
H250 H 0.0746 0.56769 0.95277 0.0
C251 C 0.98897 0.51112 0.89914 0.0
H252 H 0.9966 0.59068 0.9544 0.0
C253 C 0.03345 0.49709 0.89878 0.0
C254 C 0.0649 0.51748 0.91788 0.0
H255 H 0.96538 0.49502 0.88405 0.0
H256 H 0.04342 0.47108 0.88309 0.0
C257 C 0.05099 0.55145 0.93775 0.0
C258 C 0.52771 0.03718 0.39444 0.0
C259 C 0.56228 0.05011 0.41428 0.0
H260 H 0.48844 0.98328 0.37689 0.0
C261 C 0.5851 0.01727 0.43107 0.0
H262 H 0.50919 0.06188 0.38145 0.0
C263 C 0.57382 0.97235 0.42794 0.0
C264 C 0.53861 0.95951 0.40867 0.0
H265 H 0.61171 0.0263 0.4466 0.0
H266 H 0.59207 0.94771 0.44117 0.0
C267 C 0.51555 0.99233 0.392 0.0
C268 C 1.00323 0.45981 0.61244 0.0
C269 C 0.97279 0.47696 0.63373 0.0
H270 H 0.07118 0.45665 0.59775 0.0
C271 C 0.98824 0.5061 0.65654 0.0
H272 H 0.99225 0.4375 0.59454 0.0
C273 C 0.03325 0.51815 0.65782 0.0
C274 C 0.06373 0.50033 0.63681 0.0
H275 H 0.96539 0.52024 0.67305 0.0
H276 H 0.04436 0.54057 0.67561 0.0
C277 C 0.04834 0.47088 0.61424 0.0
C278 C 0.44539 0.01716 0.12428 0.0
C279 C 0.46847 0.04964 0.14093 0.0
H280 H 0.44091 0.94858 0.11174 0.0
C281 C 0.50637 0.03684 0.15786 0.0
H282 H 0.41617 0.02593 0.11098 0.0
C283 C 0.52102 0.99255 0.15794 0.0
C284 C 0.49767 0.96004 0.14147 0.0
H285 H 0.52513 0.06115 0.17076 0.0
H286 H 0.5503 0.98372 0.17116 0.0
C287 C 0.45963 0.97282 0.12473 0.0
C288 C 0.20462 0.51235 0.29525 0.0
C289 C 0.2451 0.52568 0.30842 0.0
H290 H 0.17067 0.49049 0.25505 0.0
C291 C 0.28381 0.52556 0.29028 0.0
H292 H 0.17409 0.51255 0.30848 0.0
C293 C 0.28196 0.5121 0.25955 0.0
C294 C 0.24111 0.50002 0.24628 0.0
H295 H 0.31541 0.5359 0.29984 0.0
H296 H 0.3122 0.51194 0.24603 0.0
C297 C 0.20255 0.50023 0.26449 0.0
C298 C 0.52573 0.21227 0.7667 0.0
C299 C 0.49254 0.21406 0.74388 0.0
H300 H 0.54062 0.20546 0.81462 0.0
C301 C 0.44769 0.21309 0.75286 0.0
H302 H 0.56066 0.21317 0.76058 0.0
C303 C 0.4363 0.20839 0.78378 0.0
C304 C 0.46947 0.20487 0.80649 0.0
H305 H 0.4213 0.21446 0.73594 0.0
H306 H 0.40137 0.20663 0.7898 0.0
C307 C 0.51431 0.20788 0.79769 0.0
C308 C 0.79186 0.51882 0.25791 0.0
C309 C 0.76896 0.5569 0.24764 0.0
H310 H 0.81276 0.47941 0.29625 0.0
C311 C 0.74639 0.58323 0.26926 0.0
H312 H 0.80963 0.49778 0.24194 0.0
C313 C 0.74813 0.57264 0.30058 0.0
C314 C 0.77277 0.53569 0.31092 0.0
H315 H 0.72833 0.61277 0.26211 0.0
H316 H 0.73127 0.59412 0.31672 0.0
C317 C 0.79388 0.50845 0.28915 0.0
C318 C 0.57196 0.78534 0.78373 0.0
C319 C 0.54602 0.78609 0.81057 0.0
H320 H 0.57269 0.7877 0.73465 0.0
C321 C 0.49942 0.78608 0.80793 0.0
H322 H 0.60797 0.78506 0.78498 0.0
C323 C 0.47925 0.78771 0.77908 0.0
C324 C 0.50522 0.78922 0.75227 0.0
H325 H 0.47847 0.7865 0.82813 0.0
H326 H 0.44326 0.78914 0.77787 0.0
C327 C 0.55176 0.78681 0.75486 0.0
C328 C 0.79657 0.48757 0.80124 0.0
C329 C 0.79626 0.53381 0.80584 0.0
H330 H 0.79959 0.43447 0.76887 0.0
C331 C 0.79455 0.56227 0.78008 0.0
H332 H 0.79772 0.46472 0.82054 0.0
C333 C 0.79563 0.54495 0.75038 0.0
C334 C 0.79857 0.49879 0.74583 0.0
H335 H 0.79398 0.5981 0.7828 0.0
H336 H 0.79591 0.5678 0.73107 0.0
C337 C 0.79779 0.47027 0.77157 0.0
C338 C 0.54852 0.79018 0.30284 0.0
C339 C 0.50225 0.79173 0.30732 0.0
H340 H 0.60205 0.79074 0.27053 0.0
C341 C 0.47404 0.79044 0.28159 0.0
H342 H 0.57116 0.79084 0.32217 0.0
C343 C 0.49172 0.79045 0.25196 0.0
C344 C 0.53799 0.79171 0.24746 0.0
H345 H 0.4382 0.7912 0.28424 0.0
H346 H 0.46907 0.79129 0.23263 0.0
C347 C 0.56621 0.79016 0.2732 0.0
C348 C 0.22998 0.49763 0.79517 0.0
C349 C 0.18992 0.48735 0.81025 0.0
H350 H 0.26073 0.51787 0.75269 0.0
C351 C 0.14972 0.48978 0.79393 0.0
H352 H 0.26141 0.49557 0.80729 0.0
C353 C 0.14926 0.50317 0.76331 0.0
C354 C 0.18912 0.51309 0.74805 0.0
H355 H 0.11837 0.48202 0.80503 0.0
H356 H 0.1176 0.50568 0.75149 0.0
C357 C 0.22965 0.5098 0.76401 0.0
C358 C 0.47949 0.22994 0.30707 0.0
C359 C 0.52586 0.2292 0.31105 0.0
H360 H 0.42523 0.22932 0.27527 0.0
C361 C 0.5534 0.23178 0.285 0.0
H362 H 0.45737 0.22822 0.32665 0.0
C363 C 0.53505 0.23245 0.25556 0.0
C364 C 0.48873 0.23047 0.2515 0.0
H365 H 0.58931 0.23171 0.28727 0.0
H366 H 0.55726 0.2327 0.236 0.0
C367 C 0.46111 0.23052 0.27758 0.0
C368 C 0.16484 0.49713 1.02241 0.0
C369 C 0.20209 0.49689 1.00302 0.0
H370 H 0.14047 0.5018 0.06818 0.0
C371 C 0.24406 0.50755 1.01517 0.0
H372 H 0.13194 0.48984 1.01357 0.0
C373 C 0.24908 0.5143 0.04686 0.0
C374 C 0.21209 0.51063 0.06654 0.0
H375 H 0.27327 0.50764 1.00061 0.0
H376 H 0.28215 0.51929 0.05611 0.0
C377 C 0.16973 0.50409 0.05373 0.0
C378 C 0.50093 0.18534 0.51217 0.0
C379 C 0.52096 0.22538 0.50259 0.0
H380 H 0.48419 0.14267 0.54991 0.0
C381 C 0.53363 0.25645 0.52496 0.0
H382 H 0.49043 0.16078 0.49559 0.0
C383 C 0.52982 0.24614 0.5562 0.0
C384 C 0.51351 0.2044 0.56571 0.0
H385 H 0.54876 0.28781 0.51839 0.0
H386 H 0.54236 0.26974 0.57277 0.0
C387 C 0.49736 0.17493 0.54338 0.0
C388 C 0.82523 0.49793 0.03941 0.0
C389 C 0.79807 0.52165 0.05988 0.0
H390 H 0.8412 0.48407 0.99264 0.0
C391 C 0.76155 0.54564 0.04808 0.0
H392 H 0.85341 0.47879 0.0477 0.0
C393 C 0.75453 0.54869 1.01638 0.0
C394 C 0.78384 0.5278 0.99582 0.0
H395 H 0.73983 0.56416 0.06319 0.0
H396 H 0.72758 0.56946 1.00801 0.0
C397 C 0.81819 0.50095 1.00777 0.0
C398 C 0.52786 0.82811 0.55321 0.0
C399 C 0.50905 0.78706 0.56193 0.0
H400 H 0.54227 0.87329 0.5164 0.0
C401 C 0.49725 0.75657 0.53896 0.0
H402 H 0.53766 0.85231 0.57024 0.0
C403 C 0.5007 0.76846 0.50794 0.0
C404 C 0.51534 0.81124 0.49953 0.0
H405 H 0.48296 0.72457 0.54493 0.0
H406 H 0.48869 0.7455 0.49076 0.0
C407 C 0.53051 0.84023 0.52234 0.0
C408 C 0.25397 0.50595 0.51189 0.0
C409 C 0.21877 0.51507 0.49144 0.0
H410 H 0.27576 0.50578 0.55896 0.0
C411 C 0.17663 0.52533 0.50342 0.0
H412 H 0.28681 0.49789 0.50331 0.0
C413 C 0.17055 0.53012 0.53483 0.0
C414 C 0.2063 0.52441 0.55518 0.0
H415 H 0.14858 0.53179 0.48839 0.0
H416 H 0.13801 0.54003 0.5431 0.0
C417 C 0.2477 0.51048 0.54367 0.0
C418 C 0.48694 0.25349 1.01887 0.0
C419 C 0.50095 0.22173 0.99737 0.0
H420 H 0.48025 0.27036 0.06622 0.0
C421 C 0.52526 0.18452 1.0078 0.0
H422 H 0.46854 0.28277 1.01163 0.0
C423 C 0.53186 0.17726 0.03923 0.0
C424 C 0.51448 0.20716 0.06086 0.0
H425 H 0.53678 0.1595 0.99186 0.0
H426 H 0.54836 0.14692 0.04658 0.0
C427 C 0.49372 0.24636 0.05025 0.0
C428 C 0.76925 0.50453 0.50082 0.0
C429 C 0.80932 0.52421 0.49103 0.0
H430 H 0.73076 0.48063 0.53882 0.0
C431 C 0.83861 0.54111 0.51325 0.0
H432 H 0.74582 0.49129 0.48435 0.0
C433 C 0.82988 0.53514 0.54452 0.0
C434 C 0.79178 0.51185 0.55426 0.0
H435 H 0.86959 0.55679 0.50652 0.0
H436 H 0.85443 0.54638 0.56094 0.0
C437 C 0.76067 0.49827 0.53211 0.0
C438 C 0.4969 0.80163 0.04968 0.0
C439 C 0.52834 0.77135 0.06158 0.0
H440 H 0.4701 0.83349 1.00975 0.0
C441 C 0.5524 0.74452 0.04114 0.0
H442 H 0.47741 0.82245 0.06482 0.0
C443 C 0.54826 0.75095 1.00947 0.0
C444 C 0.51989 0.78425 0.99767 0.0
H445 H 0.57669 0.7207 0.04953 0.0
H446 H 0.56939 0.73173 0.99437 0.0
C447 C 0.49268 0.80797 1.01806 0.0
C448 C 0.28299 0.31611 0.16128 0.0
C449 C 0.28619 0.35493 0.14313 0.0
H450 H 0.31567 0.25595 0.17652 0.0
C451 C 0.3235 0.36046 0.1241 0.0
H452 H 0.25456 0.3109 0.17613 0.0
C453 C 0.35801 0.3296 0.12444 0.0
C454 C 0.35623 0.29204 0.14367 0.0
H455 H 0.32688 0.38952 0.10943 0.0
H456 H 0.38678 0.33588 0.11008 0.0
C457 C 0.31784 0.2847 0.16148 0.0
C458 C 0.67595 0.38152 0.66474 0.0
C459 C 0.72056 0.37376 0.65681 0.0
H460 H 0.61142 0.35453 0.67213 0.0
C461 C 0.73412 0.32983 0.65049 0.0
H462 H 0.66418 0.41476 0.6699 0.0
C463 C 0.70328 0.29459 0.65183 0.0
C464 C 0.6585 0.30286 0.65945 0.0
H465 H 0.76832 0.32276 0.64436 0.0
H466 H 0.71433 0.26114 0.64662 0.0
C467 C 0.64549 0.34673 0.66603 0.0
C468 C 0.74754 0.72863 0.10055 0.0
C469 C 0.76074 0.70813 0.12819 0.0
H470 H 0.70399 0.77549 0.07859 0.0
C471 C 0.74301 0.72406 0.15588 0.0
H472 H 0.76074 0.71742 0.07881 0.0
C473 C 0.71034 0.75731 0.15574 0.0
C474 C 0.69479 0.77553 0.12793 0.0
H475 H 0.75259 0.70927 0.17762 0.0
H476 H 0.6958 0.7672 0.17739 0.0
C477 C 0.71498 0.76203 0.10042 0.0
C478 C 0.29816 0.68751 0.65342 0.0
C479 C 0.30688 0.64379 0.66365 0.0
H480 H 0.32481 0.75308 0.64529 0.0
C481 C 0.34944 0.63362 0.67507 0.0
H482 H 0.26567 0.69637 0.6445 0.0
C483 C 0.38287 0.66563 0.67549 0.0
C484 C 0.37493 0.70897 0.6645 0.0
H485 H 0.35738 0.6005 0.68343 0.0
H486 H 0.41529 0.656 0.68418 0.0
C487 C 0.33199 0.71991 0.65384 0.0
C488 C 0.33261 0.73901 0.39702 0.0
C489 C 0.37307 0.72918 0.41188 0.0
H490 H 0.26756 0.71509 0.38442 0.0
C491 C 0.37735 0.68854 0.42766 0.0
H492 H 0.32843 0.77013 0.38465 0.0
C493 C 0.34302 0.65756 0.42763 0.0
C494 C 0.30326 0.66605 0.41167 0.0
H495 H 0.4078 0.68011 0.43972 0.0
H496 H 0.34825 0.62634 0.43969 0.0
C497 C 0.2979 0.70752 0.39683 0.0
C498 C 0.32222 0.28396 0.90976 0.0
C499 C 0.36491 0.29173 0.89753 0.0
H500 H 0.25788 0.31188 0.92009 0.0
C501 C 0.37438 0.33377 0.88487 0.0
H502 H 0.31389 0.25185 0.91961 0.0
C503 C 0.3428 0.36764 0.88516 0.0
C504 C 0.30057 0.36068 0.89809 0.0
H505 H 0.40665 0.34098 0.87494 0.0
H506 H 0.35192 0.39965 0.87546 0.0
C507 C 0.2902 0.31825 0.91001 0.0
C508 C 0.69421 0.29895 0.40418 0.0
C509 C 0.64894 0.31035 0.40097 0.0
H510 H 0.76182 0.3227 0.40589 0.0
C511 C 0.6375 0.35534 0.39691 0.0
H512 H 0.70409 0.26452 0.40731 0.0
C513 C 0.67007 0.38818 0.39615 0.0
C514 C 0.71532 0.37723 0.39936 0.0
H515 H 0.60309 0.36555 0.39435 0.0
H516 H 0.65948 0.4224 0.39301 0.0
C517 C 0.72722 0.33219 0.40332 0.0
C518 C 0.75673 0.70666 0.89769 0.0
C519 C 0.77732 0.69225 0.92498 0.0
H520 H 0.70702 0.74816 0.87702 0.0
C521 C 0.76631 0.7136 0.95256 0.0
H522 H 0.76473 0.69122 0.87599 0.0
C523 C 0.73302 0.74624 0.95317 0.0
C524 C 0.7102 0.75835 0.92619 0.0
H525 H 0.78166 0.70348 0.97398 0.0
H526 H 0.72374 0.76039 0.97505 0.0
C527 C 0.72364 0.73942 0.89827 0.0
loop_
_geom_bond_atom_site_label_1
_geom_bond_atom_site_label_2
_geom_bond_distance
_geom_bond_site_symmetry_2
_ccdc_geom_bond_type
Mg0 O7 2.141 . S
Mg0 O8 2.048 . S
Mg0 O9 2.048 . S
Mg0 O12 2.141 . S
C1 O2 1.313 . S
C1 O8 1.195 . S
O2 C1 1.313 . S
C3 O4 1.245 . S
C3 O12 1.289 . S
O4 C3 1.245 . S
C5 O6 1.245 . S
C5 O7 1.289 . S
O6 C5 1.245 . S
O7 Mg0 2.141 . S
O7 C5 1.289 . S
O8 Mg0 2.048 . S
O8 C1 1.195 . S
O9 Mg0 2.048 . S
O9 C10 1.195 . S
C10 O9 1.195 . S
C10 O11 1.313 . S
O11 C10 1.313 . S
O12 Mg0 2.141 . S
O12 C3 1.289 . S
Mg13 O20 2.141 . S
Mg13 O21 2.048 . S
Mg13 O22 2.048 . S
Mg13 O25 2.141 . S
C14 O15 1.313 . S
C14 O21 1.195 . S
O15 C14 1.313 . S
C16 O17 1.245 . S
C16 O25 1.289 . S
O17 C16 1.245 . S
C18 O19 1.245 . S
C18 O20 1.289 . S
O19 C18 1.245 . S
O20 Mg13 2.141 . S
O20 C18 1.289 . S
O21 Mg13 2.048 . S
O21 C14 1.195 . S
O22 Mg13 2.048 . S
O22 C23 1.195 . S
C23 O22 1.195 . S
C23 O24 1.313 . S
O24 C23 1.313 . S
O25 Mg13 2.141 . S
O25 C16 1.289 . S
Mg26 O33 2.141 . S
Mg26 O34 2.048 . S
Mg26 O35 2.048 . S
Mg26 O38 2.141 . S
C27 O28 1.313 . S
C27 O34 1.195 . S
O28 C27 1.313 . S
C29 O30 1.245 . S
C29 O38 1.289 . S
O30 C29 1.245 . S
C31 O32 1.245 . S
C31 O33 1.289 . S
O32 C31 1.245 . S
O33 Mg26 2.141 . S
O33 C31 1.289 . S
O34 Mg26 2.048 . S
O34 C27 1.195 . S
O35 Mg26 2.048 . S
O35 C36 1.195 . S
C36 O35 1.195 . S
C36 O37 1.313 . S
O37 C36 1.313 . S
O38 Mg26 2.141 . S
O38 C29 1.289 . S
Mg39 O46 2.141 . S
Mg39 O47 2.048 . S
Mg39 O48 2.048 . S
Mg39 O51 2.141 . S
C40 O41 1.313 . S
C40 O47 1.195 . S
O41 C40 1.313 . S
C42 O43 1.245 . S
C42 O51 1.289 . S
O43 C42 1.245 . S
C44 O45 1.245 . S
C44 O46 1.289 . S
O45 C44 1.245 . S
O46 Mg39 2.141 . S
O46 C44 1.289 . S
O47 Mg39 2.048 . S
O47 C40 1.195 . S
O48 Mg39 2.048 . S
O48 C49 1.195 . S
C49 O48 1.195 . S
C49 O50 1.313 . S
O50 C49 1.313 . S
O51 Mg39 2.141 . S
O51 C42 1.289 . S
Mg52 O59 2.141 . S
Mg52 O60 2.048 . S
Mg52 O61 2.048 . S
Mg52 O64 2.141 . S
C53 O54 1.313 . S
C53 O60 1.195 . S
O54 C53 1.313 . S
C55 O56 1.245 . S
C55 O64 1.289 . S
O56 C55 1.245 . S
C57 O58 1.245 . S
C57 O59 1.289 . S
O58 C57 1.245 . S
O59 Mg52 2.141 . S
O59 C57 1.289 . S
O60 Mg52 2.048 . S
O60 C53 1.195 . S
O61 Mg52 2.048 . S
O61 C62 1.195 . S
C62 O61 1.195 . S
C62 O63 1.313 . S
O63 C62 1.313 . S
O64 Mg52 2.141 . S
O64 C55 1.289 . S
Mg65 O72 2.141 . S
Mg65 O73 2.048 . S
Mg65 O74 2.048 . S
Mg65 O77 2.141 . S
C66 O67 1.313 . S
C66 O73 1.195 . S
O67 C66 1.313 . S
C68 O69 1.245 . S
C68 O77 1.289 . S
O69 C68 1.245 . S
C70 O71 1.245 . S
C70 O72 1.289 . S
O71 C70 1.245 . S
O72 Mg65 2.141 . S
O72 C70 1.289 . S
O73 Mg65 2.048 . S
O73 C66 1.195 . S
O74 Mg65 2.048 . S
O74 C75 1.195 . S
C75 O74 1.195 . S
C75 O76 1.313 . S
O76 C75 1.313 . S
O77 Mg65 2.141 . S
O77 C68 1.289 . S
Mg78 O85 2.141 . S
Mg78 O86 2.048 . S
Mg78 O87 2.048 . S
Mg78 O90 2.141 . S
C79 O80 1.313 . S
C79 O86 1.195 . S
O80 C79 1.313 . S
C81 O82 1.245 . S
C81 O90 1.289 . S
O82 C81 1.245 . S
C83 O84 1.245 . S
C83 O85 1.289 . S
O84 C83 1.245 . S
O85 Mg78 2.141 . S
O85 C83 1.289 . S
O86 Mg78 2.048 . S
O86 C79 1.195 . S
O87 Mg78 2.048 . S
O87 C88 1.195 . S
C88 O87 1.195 . S
C88 O89 1.313 . S
O89 C88 1.313 . S
O90 Mg78 2.141 . S
O90 C81 1.289 . S
Mg91 O98 2.141 . S
Mg91 O99 2.048 . S
Mg91 O100 2.048 . S
Mg91 O103 2.141 . S
C92 O93 1.313 . S
C92 O99 1.195 . S
O93 C92 1.313 . S
C94 O95 1.245 . S
C94 O103 1.289 . S
O95 C94 1.245 . S
C96 O97 1.245 . S
C96 O98 1.289 . S
O97 C96 1.245 . S
O98 Mg91 2.141 . S
O98 C96 1.289 . S
O99 Mg91 2.048 . S
O99 C92 1.195 . S
O100 Mg91 2.048 . S
O100 C101 1.195 . S
C101 O100 1.195 . S
C101 O102 1.313 . S
O102 C101 1.313 . S
O103 Mg91 2.141 . S
O103 C94 1.289 . S
Mg104 O111 2.141 . S
Mg104 O112 2.048 . S
Mg104 O113 2.048 . S
Mg104 O116 2.141 . S
C105 O106 1.313 . S
C105 O112 1.195 . S
O106 C105 1.313 . S
C107 O108 1.245 . S
C107 O116 1.289 . S
O108 C107 1.245 . S
C109 O110 1.245 . S
C109 O111 1.289 . S
O110 C109 1.245 . S
O111 Mg104 2.141 . S
O111 C109 1.289 . S
O112 Mg104 2.048 . S
O112 C105 1.195 . S
O113 Mg104 2.048 . S
O113 C114 1.195 . S
C114 O113 1.195 . S
C114 O115 1.313 . S
O115 C114 1.313 . S
O116 Mg104 2.141 . S
O116 C107 1.289 . S
Mg117 O124 2.141 . S
Mg117 O125 2.048 . S
Mg117 O126 2.048 . S
Mg117 O129 2.141 . S
C118 O119 1.313 . S
C118 O125 1.195 . S
O119 C118 1.313 . S
C120 O121 1.245 . S
C120 O129 1.289 . S
O121 C120 1.245 . S
C122 O123 1.245 . S
C122 O124 1.289 . S
O123 C122 1.245 . S
O124 Mg117 2.141 . S
O124 C122 1.289 . S
O125 Mg117 2.048 . S
O125 C118 1.195 . S
O126 Mg117 2.048 . S
O126 C127 1.195 . S
C127 O126 1.195 . S
C127 O128 1.313 . S
O128 C127 1.313 . S
O129 Mg117 2.141 . S
O129 C120 1.289 . S
Mg130 O137 2.141 . S
Mg130 O138 2.048 . S
Mg130 O139 2.048 . S
Mg130 O142 2.141 . S
C131 O132 1.313 . S
C131 O138 1.195 . S
O132 C131 1.313 . S
C133 O134 1.245 . S
C133 O142 1.289 . S
O134 C133 1.245 . S
C135 O136 1.245 . S
C135 O137 1.289 . S
O136 C135 1.245 . S
O137 Mg130 2.141 . S
O137 C135 1.289 . S
O138 Mg130 2.048 . S
O138 C131 1.195 . S
O139 Mg130 2.048 . S
O139 C140 1.195 . S
C140 O139 1.195 . S
C140 O141 1.313 . S
O141 C140 1.313 . S
O142 Mg130 2.141 . S
O142 C133 1.289 . S
Mg143 O150 2.141 . S
Mg143 O151 2.048 . S
Mg143 O152 2.048 . S
Mg143 O155 2.141 . S
C144 O145 1.313 . S
C144 O151 1.195 . S
O145 C144 1.313 . S
C146 O147 1.245 . S
C146 O155 1.289 . S
O147 C146 1.245 . S
C148 O149 1.245 . S
C148 O150 1.289 . S
O149 C148 1.245 . S
O150 Mg143 2.141 . S
O150 C148 1.289 . S
O151 Mg143 2.048 . S
O151 C144 1.195 . S
O152 Mg143 2.048 . S
O152 C153 1.195 . S
C153 O152 1.195 . S
C153 O154 1.313 . S
O154 C153 1.313 . S
O155 Mg143 2.141 . S
O155 C146 1.289 . S
Mg156 O163 2.141 . S
Mg156 O164 2.048 . S
Mg156 O165 2.048 . S
Mg156 O168 2.141 . S
C157 O158 1.313 . S
C157 O164 1.195 . S
O158 C157 1.313 . S
C159 O160 1.245 . S
C159 O168 1.289 . S
O160 C159 1.245 . S
C161 O162 1.245 . S
C161 O163 1.289 . S
O162 C161 1.245 . S
O163 Mg156 2.141 . S
O163 C161 1.289 . S
O164 Mg156 2.048 . S
O164 C157 1.195 . S
O165 Mg156 2.048 . S
O165 C166 1.195 . S
C166 O165 1.195 . S
C166 O167 1.313 . S
O167 C166 1.313 . S
O168 Mg156 2.141 . S
O168 C159 1.289 . S
Mg169 O176 2.141 . S
Mg169 O177 2.048 . S
Mg169 O178 2.048 . S
Mg169 O181 2.141 . S
C170 O171 1.313 . S
C170 O177 1.195 . S
O171 C170 1.313 . S
C172 O173 1.245 . S
C172 O181 1.289 . S
O173 C172 1.245 . S
C174 O175 1.245 . S
C174 O176 1.289 . S
O175 C174 1.245 . S
O176 Mg169 2.141 . S
O176 C174 1.289 . S
O177 Mg169 2.048 . S
O177 C170 1.195 . S
O178 Mg169 2.048 . S
O178 C179 1.195 . S
C179 O178 1.195 . S
C179 O180 1.313 . S
O180 C179 1.313 . S
O181 Mg169 2.141 . S
O181 C172 1.289 . S
Mg182 O189 2.141 . S
Mg182 O190 2.048 . S
Mg182 O191 2.048 . S
Mg182 O194 2.141 . S
C183 O184 1.313 . S
C183 O190 1.195 . S
O184 C183 1.313 . S
C185 O186 1.245 . S
C185 O194 1.289 . S
O186 C185 1.245 . S
C187 O188 1.245 . S
C187 O189 1.289 . S
O188 C187 1.245 . S
O189 Mg182 2.141 . S
O189 C187 1.289 . S
O190 Mg182 2.048 . S
O190 C183 1.195 . S
O191 Mg182 2.048 . S
O191 C192 1.195 . S
C192 O191 1.195 . S
C192 O193 1.313 . S
O193 C192 1.313 . S
O194 Mg182 2.141 . S
O194 C185 1.289 . S
Mg195 O202 2.141 . S
Mg195 O203 2.048 . S
Mg195 O204 2.048 . S
Mg195 O207 2.141 . S
C196 O197 1.313 . S
C196 O203 1.195 . S
O197 C196 1.313 . S
C198 O199 1.245 . S
C198 O207 1.289 . S
O199 C198 1.245 . S
C200 O201 1.245 . S
C200 O202 1.289 . S
O201 C200 1.245 . S
O202 Mg195 2.141 . S
O202 C200 1.289 . S
O203 Mg195 2.048 . S
O203 C196 1.195 . S
O204 Mg195 2.048 . S
O204 C205 1.195 . S
C205 O204 1.195 . S
C205 O206 1.313 . S
O206 C205 1.313 . S
O207 Mg195 2.141 . S
O207 C198 1.289 . S
C208 C209 1.387 . S
C208 H212 0.950 . S
C208 C217 1.390 1_455 S
C209 C208 1.387 . S
C209 C211 1.387 . S
H210 C217 0.950 . S
C211 C209 1.387 . S
C211 C213 1.390 1_455 S
C211 H215 0.950 . S
H212 C208 0.950 . S
C213 C211 1.390 1_655 S
C213 C214 1.387 . S
C213 H216 0.950 . S
C214 C213 1.387 . S
C214 C217 1.387 . S
H215 C211 0.950 . S
H216 C213 0.950 . S
C217 C208 1.390 1_655 S
C217 H210 0.950 . S
C217 C214 1.387 . S
C218 C219 1.387 . S
C218 H222 0.950 . S
C218 C227 1.390 1_565 S
C219 C218 1.387 . S
C219 C221 1.387 . S
H220 C227 0.950 . S
C221 C219 1.387 . S
C221 C223 1.390 1_565 S
C221 H225 0.950 . S
H222 C218 0.950 . S
C223 C221 1.390 1_545 S
C223 C224 1.387 . S
C223 H226 0.950 . S
C224 C223 1.387 . S
C224 C227 1.387 . S
H225 C221 0.950 . S
H226 C223 0.950 . S
C227 C218 1.390 1_545 S
C227 H220 0.950 . S
C227 C224 1.387 . S
C228 C229 1.387 . S
C228 H232 0.950 . S
C228 C237 1.390 1_455 S
C229 C228 1.387 . S
C229 C231 1.387 . S
H230 C237 0.950 . S
C231 C229 1.387 . S
C231 C233 1.390 1_455 S
C231 H235 0.950 . S
H232 C228 0.950 . S
C233 C231 1.390 1_655 S
C233 C234 1.387 . S
C233 H236 0.950 . S
C234 C233 1.387 . S
C234 C237 1.387 . S
H235 C231 0.950 . S
H236 C233 0.950 . S
C237 C228 1.390 1_655 S
C237 H230 0.950 . S
C237 C234 1.387 . S
C238 C239 1.387 . S
C238 H242 0.950 . S
C238 C247 1.390 1_565 S
C239 C238 1.387 . S
C239 C241 1.387 . S
H240 C247 0.950 . S
C241 C239 1.387 . S
C241 C243 1.390 1_565 S
C241 H245 0.950 . S
H242 C238 0.950 . S
C243 C241 1.390 1_545 S
C243 C244 1.387 . S
C243 H246 0.950 . S
C244 C243 1.387 . S
C244 C247 1.387 . S
H245 C241 0.950 . S
H246 C243 0.950 . S
C247 C238 1.390 1_545 S
C247 H240 0.950 . S
C247 C244 1.387 . S
C248 C249 1.387 . S
C248 H252 0.950 . S
C248 C257 1.390 1_655 S
C249 C248 1.387 . S
C249 C251 1.387 . S
H250 C257 0.950 . S
C251 C249 1.387 . S
C251 C253 1.390 1_655 S
C251 H255 0.950 . S
H252 C248 0.950 . S
C253 C251 1.390 1_455 S
C253 C254 1.387 . S
C253 H256 0.950 . S
C254 C253 1.387 . S
C254 C257 1.387 . S
H255 C251 0.950 . S
H256 C253 0.950 . S
C257 C248 1.390 1_455 S
C257 H250 0.950 . S
C257 C254 1.387 . S
C258 C259 1.387 . S
C258 H262 0.950 . S
C258 C267 1.390 1_545 S
C259 C258 1.387 . S
C259 C261 1.387 . S
H260 C267 0.950 . S
C261 C259 1.387 . S
C261 C263 1.390 1_545 S
C261 H265 0.950 . S
H262 C258 0.950 . S
C263 C261 1.390 1_565 S
C263 C264 1.387 . S
C263 H266 0.950 . S
C264 C263 1.387 . S
C264 C267 1.387 . S
H265 C261 0.950 . S
H266 C263 0.950 . S
C267 C258 1.390 1_565 S
C267 H260 0.950 . S
C267 C264 1.387 . S
C268 C269 1.387 . S
C268 H272 0.950 . S
C268 C277 1.390 1_655 S
C269 C268 1.387 . S
C269 C271 1.387 . S
H270 C277 0.950 . S
C271 C269 1.387 . S
C271 C273 1.390 1_655 S
C271 H275 0.950 . S
H272 C268 0.950 . S
C273 C271 1.390 1_455 S
C273 C274 1.387 . S
C273 H276 0.950 . S
C274 C273 1.387 . S
C274 C277 1.387 . S
H275 C271 0.950 . S
H276 C273 0.950 . S
C277 C268 1.390 1_455 S
C277 H270 0.950 . S
C277 C274 1.387 . S
C278 C279 1.387 . S
C278 H282 0.950 . S
C278 C287 1.390 1_545 S
C279 C278 1.387 . S
C279 C281 1.387 . S
H280 C287 0.950 . S
C281 C279 1.387 . S
C281 C283 1.390 1_545 S
C281 H285 0.950 . S
H282 C278 0.950 . S
C283 C281 1.390 1_565 S
C283 C284 1.387 . S
C283 H286 0.950 . S
C284 C283 1.387 . S
C284 C287 1.387 . S
H285 C281 0.950 . S
H286 C283 0.950 . S
C287 C278 1.390 1_565 S
C287 H280 0.950 . S
C287 C284 1.387 . S
C288 C289 1.387 . S
C288 H292 0.950 . S
C288 C297 1.390 . S
C289 C288 1.387 . S
C289 C291 1.387 . S
H290 C297 0.950 . S
C291 C289 1.387 . S
C291 C293 1.390 . S
C291 H295 0.950 . S
H292 C288 0.950 . S
C293 C291 1.390 . S
C293 C294 1.387 . S
C293 H296 0.950 . S
C294 C293 1.387 . S
C294 C297 1.387 . S
H295 C291 0.950 . S
H296 C293 0.950 . S
C297 C288 1.390 . S
C297 H290 0.950 . S
C297 C294 1.387 . S
C298 C299 1.387 . S
C298 H302 0.950 . S
C298 C307 1.390 . S
C299 C298 1.387 . S
C299 C301 1.387 . S
H300 C307 0.950 . S
C301 C299 1.387 . S
C301 C303 1.390 . S
C301 H305 0.950 . S
H302 C298 0.950 . S
C303 C301 1.390 . S
C303 C304 1.387 . S
C303 H306 0.950 . S
C304 C303 1.387 . S
C304 C307 1.387 . S
H305 C301 0.950 . S
H306 C303 0.950 . S
C307 C298 1.390 . S
C307 H300 0.950 . S
C307 C304 1.387 . S
C308 C309 1.387 . S
C308 H312 0.950 . S
C308 C317 1.390 . S
C309 C308 1.387 . S
C309 C311 1.387 . S
H310 C317 0.950 . S
C311 C309 1.387 . S
C311 C313 1.390 . S
C311 H315 0.950 . S
H312 C308 0.950 . S
C313 C311 1.390 . S
C313 C314 1.387 . S
C313 H316 0.950 . S
C314 C313 1.387 . S
C314 C317 1.387 . S
H315 C311 0.950 . S
H316 C313 0.950 . S
C317 C308 1.390 . S
C317 H310 0.950 . S
C317 C314 1.387 . S
C318 C319 1.387 . S
C318 H322 0.950 . S
C318 C327 1.390 . S
C319 C318 1.387 . S
C319 C321 1.387 . S
H320 C327 0.950 . S
C321 C319 1.387 . S
C321 C323 1.390 . S
C321 H325 0.950 . S
H322 C318 0.950 . S
C323 C321 1.390 . S
C323 C324 1.387 . S
C323 H326 0.950 . S
C324 C323 1.387 . S
C324 C327 1.387 . S
H325 C321 0.950 . S
H326 C323 0.950 . S
C327 C318 1.390 . S
C327 H320 0.950 . S
C327 C324 1.387 . S
C328 C329 1.387 . S
C328 H332 0.950 . S
C328 C337 1.390 . S
C329 C328 1.387 . S
C329 C331 1.387 . S
H330 C337 0.950 . S
C331 C329 1.387 . S
C331 C333 1.390 . S
C331 H335 0.950 . S
H332 C328 0.950 . S
C333 C331 1.390 . S
C333 C334 1.387 . S
C333 H336 0.950 . S
C334 C333 1.387 . S
C334 C337 1.387 . S
H335 C331 0.950 . S
H336 C333 0.950 . S
C337 C328 1.390 . S
C337 H330 0.950 . S
C337 C334 1.387 . S
C338 C339 1.387 . S
C338 H342 0.950 . S
C338 C347 1.390 . S
C339 C338 1.387 . S
C339 C341 1.387 . S
H340 C347 0.950 . S
C341 C339 1.387 . S
C341 C343 1.390 . S
C341 H345 0.950 . S
H342 C338 0.950 . S
C343 C341 1.390 . S
C343 C344 1.387 . S
C343 H346 0.950 . S
C344 C343 1.387 . S
C344 C347 1.387 . S
H345 C341 0.950 . S
H346 C343 0.950 . S
C347 C338 1.390 . S
C347 H340 0.950 . S
C347 C344 1.387 . S
C348 C349 1.387 . S
C348 H352 0.950 . S
C348 C357 1.390 . S
C349 C348 1.387 . S
C349 C351 1.387 . S
H350 C357 0.950 . S
C351 C349 1.387 . S
C351 C353 1.390 . S
C351 H355 0.950 . S
H352 C348 0.950 . S
C353 C351 1.390 . S
C353 C354 1.387 . S
C353 H356 0.950 . S
C354 C353 1.387 . S
C354 C357 1.387 . S
H355 C351 0.950 . S
H356 C353 0.950 . S
C357 C348 1.390 . S
C357 H350 0.950 . S
C357 C354 1.387 . S
C358 C359 1.387 . S
C358 H362 0.950 . S
C358 C367 1.390 . S
C359 C358 1.387 . S
C359 C361 1.387 . S
H360 C367 0.950 . S
C361 C359 1.387 . S
C361 C363 1.390 . S
C361 H365 0.950 . S
H362 C358 0.950 . S
C363 C361 1.390 . S
C363 C364 1.387 . S
C363 H366 0.950 . S
C364 C363 1.387 . S
C364 C367 1.387 . S
H365 C361 0.950 . S
H366 C363 0.950 . S
C367 C358 1.390 . S
C367 H360 0.950 . S
C367 C364 1.387 . S
C368 C369 1.387 . S
C368 H372 0.950 . S
C368 C377 1.390 1_556 S
C369 C368 1.387 . S
C369 C371 1.387 . S
H370 C377 0.950 . S
C371 C369 1.387 . S
C371 C373 1.390 1_556 S
C371 H375 0.950 . S
H372 C368 0.950 . S
C373 C371 1.390 1_554 S
C373 C374 1.387 . S
C373 H376 0.950 . S
C374 C373 1.387 . S
C374 C377 1.387 . S
H375 C371 0.950 . S
H376 C373 0.950 . S
C377 C368 1.390 1_554 S
C377 H370 0.950 . S
C377 C374 1.387 . S
C378 C379 1.387 . S
C378 H382 0.950 . S
C378 C387 1.390 . S
C379 C378 1.387 . S
C379 C381 1.387 . S
H380 C387 0.950 . S
C381 C379 1.387 . S
C381 C383 1.390 . S
C381 H385 0.950 . S
H382 C378 0.950 . S
C383 C381 1.390 . S
C383 C384 1.387 . S
C383 H386 0.950 . S
C384 C383 1.387 . S
C384 C387 1.387 . S
H385 C381 0.950 . S
H386 C383 0.950 . S
C387 C378 1.390 . S
C387 H380 0.950 . S
C387 C384 1.387 . S
C388 C389 1.387 . S
C388 H392 0.950 . S
C388 C397 1.390 1_554 S
C389 C388 1.387 . S
C389 C391 1.387 . S
H390 C397 0.950 . S
C391 C389 1.387 . S
C391 C393 1.390 1_554 S
C391 H395 0.950 . S
H392 C388 0.950 . S
C393 C391 1.390 1_556 S
C393 C394 1.387 . S
C393 H396 0.950 . S
C394 C393 1.387 . S
C394 C397 1.387 . S
H395 C391 0.950 . S
H396 C393 0.950 . S
C397 C388 1.390 1_556 S
C397 H390 0.950 . S
C397 C394 1.387 . S
C398 C399 1.387 . S
C398 H402 0.950 . S
C398 C407 1.390 . S
C399 C398 1.387 . S
C399 C401 1.387 . S
H400 C407 0.950 . S
C401 C399 1.387 . S
C401 C403 1.390 . S
C401 H405 0.950 . S
H402 C398 0.950 . S
C403 C401 1.390 . S
C403 C404 1.387 . S
C403 H406 0.950 . S
C404 C403 1.387 . S
C404 C407 1.387 . S
H405 C401 0.950 . S
H406 C403 0.950 . S
C407 C398 1.390 . S
C407 H400 0.950 . S
C407 C404 1.387 . S
C408 C409 1.387 . S
C408 H412 0.950 . S
C408 C417 1.390 . S
C409 C408 1.387 . S
C409 C411 1.387 . S
H410 C417 0.950 . S
C411 C409 1.387 . S
C411 C413 1.390 . S
C411 H415 0.950 . S
H412 C408 0.950 . S
C413 C411 1.390 . S
C413 C414 1.387 . S
C413 H416 0.950 . S
C414 C413 1.387 . S
C414 C417 1.387 . S
H415 C411 0.950 . S
H416 C413 0.950 . S
C417 C408 1.390 . S
C417 H410 0.950 . S
C417 C414 1.387 . S
C418 C419 1.387 . S
C418 H422 0.950 . S
C418 C427 1.390 1_556 S
C419 C418 1.387 . S
C419 C421 1.387 . S
H420 C427 0.950 . S
C421 C419 1.387 . S
C421 C423 1.390 1_556 S
C421 H425 0.950 . S
H422 C418 0.950 . S
C423 C421 1.390 1_554 S
C423 C424 1.387 . S
C423 H426 0.950 . S
C424 C423 1.387 . S
C424 C427 1.387 . S
H425 C421 0.950 . S
H426 C423 0.950 . S
C427 C418 1.390 1_554 S
C427 H420 0.950 . S
C427 C424 1.387 . S
C428 C429 1.387 . S
C428 H432 0.950 . S
C428 C437 1.390 . S
C429 C428 1.387 . S
C429 C431 1.387 . S
H430 C437 0.950 . S
C431 C429 1.387 . S
C431 C433 1.390 . S
C431 H435 0.950 . S
H432 C428 0.950 . S
C433 C431 1.390 . S
C433 C434 1.387 . S
C433 H436 0.950 . S
C434 C433 1.387 . S
C434 C437 1.387 . S
H435 C431 0.950 . S
H436 C433 0.950 . S
C437 C428 1.390 . S
C437 H430 0.950 . S
C437 C434 1.387 . S
C438 C439 1.387 . S
C438 H442 0.950 . S
C438 C447 1.390 1_554 S
C439 C438 1.387 . S
C439 C441 1.387 . S
H440 C447 0.950 . S
C441 C439 1.387 . S
C441 C443 1.390 1_554 S
C441 H445 0.950 . S
H442 C438 0.950 . S
C443 C441 1.390 1_556 S
C443 C444 1.387 . S
C443 H446 0.950 . S
C444 C443 1.387 . S
C444 C447 1.387 . S
H445 C441 0.950 . S
H446 C443 0.950 . S
C447 C438 1.390 1_556 S
C447 H440 0.950 . S
C447 C444 1.387 . S
C448 C449 1.387 . S
C448 H452 0.950 . S
C448 C457 1.390 . S
C449 C448 1.387 . S
C449 C451 1.387 . S
H450 C457 0.950 . S
C451 C449 1.387 . S
C451 C453 1.390 . S
C451 H455 0.950 . S
H452 C448 0.950 . S
C453 C451 1.390 . S
C453 C454 1.387 . S
C453 H456 0.950 . S
C454 C453 1.387 . S
C454 C457 1.387 . S
H455 C451 0.950 . S
H456 C453 0.950 . S
C457 C448 1.390 . S
C457 H450 0.950 . S
C457 C454 1.387 . S
C458 C459 1.387 . S
C458 H462 0.950 . S
C458 C467 1.390 . S
C459 C458 1.387 . S
C459 C461 1.387 . S
H460 C467 0.950 . S
C461 C459 1.387 . S
C461 C463 1.390 . S
C461 H465 0.950 . S
H462 C458 0.950 . S
C463 C461 1.390 . S
C463 C464 1.387 . S
C463 H466 0.950 . S
C464 C463 1.387 . S
C464 C467 1.387 . S
H465 C461 0.950 . S
H466 C463 0.950 . S
C467 C458 1.390 . S
C467 H460 0.950 . S
C467 C464 1.387 . S
C468 C469 1.387 . S
C468 H472 0.950 . S
C468 C477 1.390 . S
C469 C468 1.387 . S
C469 C471 1.387 . S
H470 C477 0.950 . S
C471 C469 1.387 . S
C471 C473 1.390 . S
C471 H475 0.950 . S
H472 C468 0.950 . S
C473 C471 1.390 . S
C473 C474 1.387 . S
C473 H476 0.950 . S
C474 C473 1.387 . S
C474 C477 1.387 . S
H475 C471 0.950 . S
H476 C473 0.950 . S
C477 C468 1.390 . S
C477 H470 0.950 . S
C477 C474 1.387 . S
C478 C479 1.387 . S
C478 H482 0.950 . S
C478 C487 1.390 . S
C479 C478 1.387 . S
C479 C481 1.387 . S
H480 C487 0.950 . S
C481 C479 1.387 . S
C481 C483 1.390 . S
C481 H485 0.950 . S
H482 C478 0.950 . S
C483 C481 1.390 . S
C483 C484 1.387 . S
C483 H486 0.950 . S
C484 C483 1.387 . S
C484 C487 1.387 . S
H485 C481 0.950 . S
H486 C483 0.950 . S
C487 C478 1.390 . S
C487 H480 0.950 . S
C487 C484 1.387 . S
C488 C489 1.387 . S
C488 H492 0.950 . S
C488 C497 1.390 . S
C489 C488 1.387 . S
C489 C491 1.387 . S
H490 C497 0.950 . S
C491 C489 1.387 . S
C491 C493 1.390 . S
C491 H495 0.950 . S
H492 C488 0.950 . S
C493 C491 1.390 . S
C493 C494 1.387 . S
C493 H496 0.950 . S
C494 C493 1.387 . S
C494 C497 1.387 . S
H495 C491 0.950 . S
H496 C493 0.950 . S
C497 C488 1.390 . S
C497 H490 0.950 . S
C497 C494 1.387 . S
C498 C499 1.387 . S
C498 H502 0.950 . S
C498 C507 1.390 . S
C499 C498 1.387 . S
C499 C501 1.387 . S
H500 C507 0.950 . S
C501 C499 1.387 . S
C501 C503 1.390 . S
C501 H505 0.950 . S
H502 C498 0.950 . S
C503 C501 1.390 . S
C503 C504 1.387 . S
C503 H506 0.950 . S
C504 C503 1.387 . S
C504 C507 1.387 . S
H505 C501 0.950 . S
H506 C503 0.950 . S
C507 C498 1.390 . S
C507 H500 0.950 . S
C507 C504 1.387 . S
C508 C509 1.387 . S
C508 H512 0.950 . S
C508 C517 1.390 . S
C509 C508 1.387 . S
C509 C511 1.387 . S
H510 C517 0.950 . S
C511 C509 1.387 . S
C511 C513 1.390 . S
C511 H515 0.950 . S
H512 C508 0.950 . S
C513 C511 1.390 . S
C513 C514 1.387 . S
C513 H516 0.950 . S
C514 C513 1.387 . S
C514 C517 1.387 . S
H515 C511 0.950 . S
H516 C513 0.950 . S
C517 C508 1.390 . S
C517 H510 0.950 . S
C517 C514 1.387 . S
C518 C519 1.387 . S
C518 H522 0.950 . S
C518 C527 1.390 . S
C519 C518 1.387 . S
C519 C521 1.387 . S
H520 C527 0.950 . S
C521 C519 1.387 . S
C521 C523 1.390 . S
C521 H525 0.950 . S
H522 C518 0.950 . S
C523 C521 1.390 . S
C523 C524 1.387 . S
C523 H526 0.950 . S
C524 C523 1.387 . S
C524 C527 1.387 . S
H525 C521 0.950 . S
H526 C523 0.950 . S
C527 C518 1.390 . S
C527 H520 0.950 . S
C527 C524 1.387 . S
C209 C10 1.938 . S
C214 C36 1.938 . S
C219 C49 1.938 . S
C224 C23 1.938 . S
C229 C62 1.938 . S
C234 C88 1.938 . S
C239 C101 1.936 . S
C244 C75 1.936 . S
C249 C114 1.822 . S
C254 C140 1.822 . S
C259 C153 1.826 . S
C264 C127 1.826 . S
C269 C166 1.822 . S
C274 C192 1.822 . S
C279 C205 1.822 . S
C284 C179 1.822 . S
C289 C55 1.519 . S
C294 C3 1.519 . S
C299 C16 1.519 . S
C304 C68 1.519 . S
C309 C29 1.519 . S
C314 C81 1.519 . S
C319 C94 1.522 . S
C324 C42 1.522 . S
C329 C107 1.563 . S
C334 C159 1.563 . S
C339 C120 1.563 . S
C344 C172 1.563 . S
C349 C133 1.563 . S
C354 C185 1.563 . S
C359 C146 1.563 . S
C364 C198 1.563 . S
C369 C131 1.530 . S
C374 C1 1.518 . S
C379 C144 1.530 . S
C384 C14 1.517 . S
C389 C27 1.518 . S
C394 C105 1.530 . S
C399 C40 1.519 . S
C404 C118 1.530 . S
C409 C53 1.517 . S
C414 C183 1.530 . S
C419 C66 1.517 . S
C424 C196 1.530 . S
C429 C79 1.518 . S
C434 C157 1.530 . S
C439 C170 1.530 . S
C444 C92 1.519 . S
C449 C5 1.789 . S
C454 C200 1.728 . S
C459 C161 1.730 . S
C464 C18 1.789 . S
C469 C31 1.789 . S
C474 C174 1.730 . S
C479 C187 1.728 . S
C484 C44 1.789 . S
C489 C122 1.728 . S
C494 C57 1.789 . S
C499 C70 1.789 . S
C504 C135 1.728 . S
C509 C148 1.728 . S
C514 C83 1.789 . S
C519 C109 1.728 . S
C524 C96 1.789 . S
