# Generated by pormake.
# Topology qtz-e, (6)-cn, num edge types: 1
# Building blocks:
#     Node 0, Type 0, BuildingBlock: INOVEN_clean_sbu_0, # of connection points: 6
#     Node 1, Type 0, BuildingBlock: INOVEN_clean_sbu_0, # of connection points: 6
#     Node 2, Type 0, BuildingBlock: INOVEN_clean_sbu_0, # of connection points: 6
#     Node 3, Type 0, BuildingBlock: INOVEN_clean_sbu_0, # of connection points: 6
#     Node 4, Type 0, BuildingBlock: INOVEN_clean_sbu_0, # of connection points: 6
#     Node 5, Type 0, BuildingBlock: INOVEN_clean_sbu_0, # of connection points: 6
#     Edge 6, Type (0, 0), BuildingBlock: EZIPEK_clean_linker_0, # of connection points: 2
#     Edge 7, Type (0, 0), BuildingBlock: EZIPEK_clean_linker_0, # of connection points: 2
#     Edge 8, Type (0, 0), BuildingBlock: EZIPEK_clean_linker_0, # of connection points: 2
#     Edge 9, Type (0, 0), BuildingBlock: EZIPEK_clean_linker_0, # of connection points: 2
#     Edge 10, Type (0, 0), BuildingBlock: EZIPEK_clean_linker_0, # of connection points: 2
#     Edge 11, Type (0, 0), BuildingBlock: EZIPEK_clean_linker_0, # of connection points: 2
#     Edge 12, Type (0, 0), BuildingBlock: EZIPEK_clean_linker_0, # of connection points: 2
#     Edge 13, Type (0, 0), BuildingBlock: EZIPEK_clean_linker_0, # of connection points: 2
#     Edge 14, Type (0, 0), BuildingBlock: EZIPEK_clean_linker_0, # of connection points: 2
#     Edge 15, Type (0, 0), BuildingBlock: EZIPEK_clean_linker_0, # of connection points: 2
#     Edge 16, Type (0, 0), BuildingBlock: EZIPEK_clean_linker_0, # of connection points: 2
#     Edge 17, Type (0, 0), BuildingBlock: EZIPEK_clean_linker_0, # of connection points: 2
#     Edge 18, Type (0, 0), BuildingBlock: EZIPEK_clean_linker_0, # of connection points: 2
#     Edge 19, Type (0, 0), BuildingBlock: EZIPEK_clean_linker_0, # of connection points: 2
#     Edge 20, Type (0, 0), BuildingBlock: EZIPEK_clean_linker_0, # of connection points: 2
#     Edge 21, Type (0, 0), BuildingBlock: EZIPEK_clean_linker_0, # of connection points: 2
#     Edge 22, Type (0, 0), BuildingBlock: EZIPEK_clean_linker_0, # of connection points: 2
#     Edge 23, Type (0, 0), BuildingBlock: EZIPEK_clean_linker_0, # of connection points: 2
# Relax obj value: 0.082
# Max RMSD: 0.178
# Mean RMSD: 0.178
data_MOF--net-qtz-e--node1-INOVEN_clean_sbu_0--edge1-EZIPEK_clean_linker_0
_symmetry_space_group_name_H-M    P1
_symmetry_Int_Tables_number       1
_symmetry_cell_setting            triclinic
loop_
_symmetry_equiv_pos_as_xyz
'x, y, z'
_cell_length_a     19.46496
_cell_length_b     19.44826
_cell_length_c     41.906018
_cell_angle_alpha  90.077541
_cell_angle_beta   89.617082
_cell_angle_gamma 119.73
loop_
_atom_site_label
_atom_site_type_symbol
_atom_site_fract_x
_atom_site_fract_y
_atom_site_fract_z
_atom_type_partial_charge
Gd0 Gd 0.25017 0.52496 0.08478 0.0
Gd1 Gd 0.1667 0.35685 0.05894 0.0
C2 C 0.14702 0.3728 0.13443 0.0
C3 C 0.28356 0.65455 0.11359 0.0
C4 C 0.28348 0.67432 0.14752 0.0
C5 C 0.3546 0.7111 0.16475 0.0
C6 C 0.21186 0.65223 0.16352 0.0
C7 C 0.28134 0.69991 0.21316 0.0
C8 C 0.21072 0.66415 0.19612 0.0
C9 C 0.3535 0.72376 0.1975 0.0
C10 C 0.34638 0.46552 0.07753 0.0
C11 C 0.27012 0.50758 1.01205 0.0
C12 C 0.14277 0.23782 1.02261 0.0
C13 C 0.17365 0.23019 0.99054 0.0
C14 C 0.19238 0.28712 0.96629 0.0
C15 C 0.18356 0.16469 0.98365 0.0
C16 C 0.23048 0.21354 0.92935 0.0
C17 C 0.21147 0.1564 0.95349 0.0
C18 C 0.22074 0.27908 0.93628 0.0
C19 C 0.08013 0.43093 0.06019 0.0
O20 O 0.1923 0.45013 0.1294 0.0
O21 O 0.1298 0.32159 0.11055 0.0
O22 O 0.33752 0.63661 0.10498 0.0
O23 O 0.21434 0.60793 0.10087 0.0
O24 O 0.36663 0.53887 0.07245 0.0
O25 O 0.27565 0.42606 0.08799 0.0
O26 O 0.24665 0.43338 1.01932 0.0
O27 O 0.26756 0.55667 0.03303 0.0
O28 O 0.09706 0.26938 1.02304 0.0
O29 O 0.19216 0.26222 0.04656 0.0
O30 O 0.04904 0.35523 0.06518 0.0
O31 O 0.15152 0.46023 0.05287 0.0
H32 H 0.41076 0.72909 0.15301 0.0
H33 H 0.15633 0.62395 0.15113 0.0
H34 H 0.15474 0.64503 0.20817 0.0
H35 H 0.40853 0.75216 0.21059 0.0
H36 H 0.18502 0.33804 0.97041 0.0
H37 H 0.16967 0.1197 1.00167 0.0
H38 H 0.21908 0.10568 0.9491 0.0
H39 H 0.23539 0.32443 0.91844 0.0
Gd40 Gd 0.69523 0.2406 0.42071 0.0
Gd41 Gd 0.80232 0.17256 0.39224 0.0
C42 C 0.75932 0.14544 0.4667 0.0
C43 C 0.57542 0.24392 0.44454 0.0
C44 C 0.56371 0.25921 0.47772 0.0
C45 C 0.63001 0.3087 0.49625 0.0
C46 C 0.48988 0.21296 0.49254 0.0
C47 C 0.55024 0.26177 0.54411 0.0
C48 C 0.48308 0.2144 0.52571 0.0
C49 C 0.62325 0.31004 0.52925 0.0
C50 C 0.84947 0.34851 0.42978 0.0
C51 C 0.75661 0.28489 0.34983 0.0
C52 C 0.89355 0.14853 0.35355 0.0
C53 C 0.93351 0.18369 0.32226 0.0
C54 C 0.8934 0.19882 0.29775 0.0
C55 C 0.01095 0.19888 0.31594 0.0
C56 C 0.00668 0.24252 0.26144 0.0
C57 C 0.04718 0.22817 0.28596 0.0
C58 C 0.92932 0.22744 0.2678 0.0
C59 C 0.64325 0.07857 0.39352 0.0
O60 O 0.70681 0.16887 0.4611 0.0
O61 O 0.81066 0.14899 0.44459 0.0
O62 O 0.63135 0.30402 0.42863 0.0
O63 O 0.5778 0.17832 0.44085 0.0
O64 O 0.79075 0.35751 0.43905 0.0
O65 O 0.8218 0.28066 0.41725 0.0
O66 O 0.80765 0.26086 0.3562 0.0
O67 O 0.69973 0.27544 0.36974 0.0
O68 O 0.81626 0.1076 0.35317 0.0
O69 O 0.92032 0.19174 0.37939 0.0
O70 O 0.69117 0.05166 0.39927 0.0
O71 O 0.68153 0.15051 0.38676 0.0
H72 H 0.68798 0.3433 0.48545 0.0
H73 H 0.43869 0.17293 0.47865 0.0
H74 H 0.42643 0.17661 0.5371 0.0
H75 H 0.67547 0.34645 0.5433 0.0
H76 H 0.83372 0.1879 0.30157 0.0
H77 H 0.04338 0.18766 0.33416 0.0
H78 H 0.10705 0.23987 0.28192 0.0
H79 H 0.89648 0.23783 0.24956 0.0
Gd80 Gd 0.4483 0.67007 0.75025 0.0
Gd81 Gd 0.60764 0.80984 0.72591 0.0
C82 C 0.60085 0.76245 0.7999 0.0
C83 C 0.3518 0.53851 0.77716 0.0
C84 C 0.33486 0.52901 0.81131 0.0
C85 C 0.29356 0.45434 0.82576 0.0
C86 C 0.36433 0.59767 0.82997 0.0
C87 C 0.31321 0.5181 0.87742 0.0
C88 C 0.35517 0.59228 0.8628 0.0
C89 C 0.28144 0.44888 0.85884 0.0
C90 C 0.45062 0.8066 0.7536 0.0
C91 C 0.45334 0.72109 0.67803 0.0
C92 C 0.70565 0.9364 0.69453 0.0
C93 C 0.71324 0.96412 0.66063 0.0
C94 C 0.77779 0.97483 0.64159 0.0
C95 C 0.65732 0.9811 0.64694 0.0
C96 C 0.7304 0.01874 0.59634 0.0
C97 C 0.66556 0.00753 0.61519 0.0
C98 C 0.78632 0.00186 0.60988 0.0
C99 C 0.5877 0.66337 0.71937 0.0
O100 O 0.52659 0.7079 0.7941 0.0
O101 O 0.64579 0.8138 0.77742 0.0
O102 O 0.32809 0.58267 0.76269 0.0
O103 O 0.42462 0.55764 0.76977 0.0
O104 O 0.38605 0.73859 0.75381 0.0
O105 O 0.51114 0.79882 0.75792 0.0
O106 O 0.52567 0.77977 0.68375 0.0
O107 O 0.41207 0.66614 0.69954 0.0
O108 O 0.71883 0.87763 0.69998 0.0
O109 O 0.64643 0.93109 0.71161 0.0
O110 O 0.65602 0.72413 0.72624 0.0
O111 O 0.53741 0.68451 0.71537 0.0
H112 H 0.27074 0.40092 0.81159 0.0
H113 H 0.39439 0.65582 0.81912 0.0
H114 H 0.37919 0.64608 0.87682 0.0
H115 H 0.24824 0.39118 0.86989 0.0
H116 H 0.8222 0.96284 0.65133 0.0
H117 H 0.60736 0.9746 0.66081 0.0
H118 H 0.62165 0.02007 0.6054 0.0
H119 H 0.83707 0.01036 0.59598 0.0
Gd120 Gd 0.77453 0.46735 0.08761 0.0
Gd121 Gd 0.78908 0.62205 0.06025 0.0
C122 C 0.82898 0.62213 0.13503 0.0
C123 C 0.81928 0.38107 0.11662 0.0
C124 C 0.81499 0.37021 0.15113 0.0
C125 C 0.76157 0.38496 0.16838 0.0
C126 C 0.86731 0.35288 0.16733 0.0
C127 C 0.80823 0.35953 0.21761 0.0
C128 C 0.86361 0.34709 0.20064 0.0
C129 C 0.75837 0.37986 0.20137 0.0
C130 C 0.63802 0.46481 0.08924 0.0
C131 C 0.72813 0.46264 1.01508 0.0
C132 C 0.75689 0.71803 0.02862 0.0
C133 C 0.74115 0.73064 0.99489 0.0
C134 C 0.75733 0.69412 0.96918 0.0
C135 C 0.70869 0.77953 0.98825 0.0
C136 C 0.70728 0.75404 0.93096 0.0
C137 C 0.69181 0.79099 0.95671 0.0
C138 C 0.74064 0.70572 0.93762 0.0
C139 C 0.91715 0.60364 0.05351 0.0
O140 O 0.80956 0.54717 0.13096 0.0
O141 O 0.82269 0.66458 0.11148 0.0
O142 O 0.75041 0.35096 0.10247 0.0
O143 O 0.86889 0.45351 0.10746 0.0
O144 O 0.64442 0.40153 0.09084 0.0
O145 O 0.70468 0.52761 0.09329 0.0
O146 O 0.74115 0.53575 1.01912 0.0
O147 O 0.74088 0.42369 0.03788 0.0
O148 O 0.82881 0.73374 0.03538 0.0
O149 O 0.70302 0.65361 0.04288 0.0
O150 O 0.92355 0.67255 0.05872 0.0
O151 O 0.8461 0.55235 0.05109 0.0
H152 H 0.72191 0.40025 0.15629 0.0
H153 H 0.9104 0.34371 0.15433 0.0
H154 H 0.90284 0.33201 0.21305 0.0
H155 H 0.71546 0.38959 0.21424 0.0
H156 H 0.7821 0.65595 0.97349 0.0
H157 H 0.69543 0.80826 1.00757 0.0
H158 H 0.66505 0.82744 0.95247 0.0
H159 H 0.75214 0.67547 0.91838 0.0
Gd160 Gd 0.27794 0.77424 0.4176 0.0
Gd161 Gd 0.1552 0.81468 0.39302 0.0
C162 C 0.19509 0.84602 0.46699 0.0
C163 C 0.39376 0.77234 0.44567 0.0
C164 C 0.39755 0.75158 0.47878 0.0
C165 C 0.32693 0.70168 0.49528 0.0
C166 C 0.46944 0.78886 0.49514 0.0
C167 C 0.39969 0.72801 0.54437 0.0
C168 C 0.47049 0.77701 0.52792 0.0
C169 C 0.32807 0.6897 0.52793 0.0
C170 C 0.13161 0.64888 0.41538 0.0
C171 C 0.24131 0.74947 0.34514 0.0
C172 C 0.04072 0.8111 0.35988 0.0
C173 C 0.00707 0.78566 0.32708 0.0
C174 C 0.01111 0.84201 0.3049 0.0
C175 C 0.96983 0.70566 0.31756 0.0
C176 C 0.94342 0.73964 0.26451 0.0
C177 C 0.9384 0.68308 0.28674 0.0
C178 C 0.98006 0.8194 0.27399 0.0
C179 C 0.30796 0.93291 0.39353 0.0
O180 O 0.25291 0.83028 0.46079 0.0
O181 O 0.14206 0.83659 0.44509 0.0
O182 O 0.34351 0.71399 0.42778 0.0
O183 O 0.38935 0.83683 0.44228 0.0
O184 O 0.19568 0.6458 0.41054 0.0
O185 O 0.14772 0.71794 0.42365 0.0
O186 O 0.17432 0.74695 0.35308 0.0
O187 O 0.30044 0.77485 0.36535 0.0
O188 O 0.11112 0.87362 0.36186 0.0
O189 O 0.03062 0.75601 0.38041 0.0
O190 O 0.24974 0.94511 0.40058 0.0
O191 O 0.28196 0.86278 0.38557 0.0
H192 H 0.27056 0.674 0.48311 0.0
H193 H 0.52401 0.82887 0.48281 0.0
H194 H 0.52593 0.80731 0.54064 0.0
H195 H 0.27309 0.6524 0.54054 0.0
H196 H 0.03895 0.90396 0.31142 0.0
H197 H 0.96533 0.66034 0.33382 0.0
H198 H 0.91093 0.62131 0.28002 0.0
H199 H 0.98555 0.86435 0.25729 0.0
Gd200 Gd 0.51866 0.26082 0.75336 0.0
Gd201 Gd 0.35154 0.17253 0.72619 0.0
C202 C 0.36317 0.20455 0.80215 0.0
C203 C 0.64514 0.35689 0.78316 0.0
C204 C 0.66135 0.36319 0.81711 0.0
C205 C 0.72358 0.43261 0.82972 0.0
C206 C 0.60965 0.30152 0.83741 0.0
C207 C 0.67952 0.3802 0.88289 0.0
C208 C 0.6182 0.3103 0.87024 0.0
C209 C 0.73305 0.44092 0.86269 0.0
C210 C 0.46525 0.10702 0.74482 0.0
C211 C 0.50864 0.23934 0.67951 0.0
C212 C 0.23441 0.07371 0.69043 0.0
C213 C 0.22647 0.03816 0.65794 0.0
C214 C 0.15183 -0.0031 0.64339 0.0
C215 C 0.29252 0.04608 0.64076 0.0
C216 C 0.20979 0.97231 0.59569 0.0
C217 C 0.28431 0.01332 0.61018 0.0
C218 C 0.14355 0.96449 0.6126 0.0
C219 C 0.41685 0.33072 0.73014 0.0
O220 O 0.4407 0.23678 0.79767 0.0
O221 O 0.31365 0.17225 0.77775 0.0
O222 O 0.63514 0.29158 0.76995 0.0
O223 O 0.59139 0.37513 0.77495 0.0
O224 O 0.53825 0.1615 0.74077 0.0
O225 O 0.42329 0.13566 0.75521 0.0
O226 O 0.43371 0.18678 0.68493 0.0
O227 O 0.55454 0.28523 0.7023 0.0
O228 O 0.25976 0.14974 0.69152 0.0
O229 O 0.26558 0.05133 0.71292 0.0
O230 O 0.34104 0.28327 0.73351 0.0
O231 O 0.45037 0.29266 0.72234 0.0
H232 H 0.76327 0.48076 0.8142 0.0
H233 H 0.56135 0.24752 0.82789 0.0
H234 H 0.5764 0.26348 0.88577 0.0
H235 H 0.78021 0.49542 0.8725 0.0
H236 H 0.09978 0.99002 0.6558 0.0
H237 H 0.35087 0.07772 0.65066 0.0
H238 H 0.33642 0.02057 0.59767 0.0
H239 H 0.08541 0.93328 0.60196 0.0
C240 C 0.26137 0.67071 0.30281 0.0
C241 C 0.25483 0.73764 0.31163 0.0
C242 C 0.27963 0.78573 0.25659 0.0
C243 C 0.27865 0.71525 0.24734 0.0
N244 N 0.26024 0.58623 0.25993 0.0
N245 N 0.24921 0.85515 0.29716 0.0
C246 C 0.26757 0.65651 0.26999 0.0
C247 C 0.26152 0.79417 0.2886 0.0
N248 N 0.26181 0.62105 0.32579 0.0
N249 N 0.29923 0.84511 0.23481 0.0
H250 H 0.24015 0.86661 0.32063 0.0
H251 H 0.24291 0.89185 0.2808 0.0
H252 H 0.31125 0.84035 0.21086 0.0
H253 H 0.30996 0.90152 0.24083 0.0
H254 H 0.27466 0.57602 0.32117 0.0
H255 H 0.25431 0.62795 0.35002 0.0
H256 H 0.24251 0.53727 0.27474 0.0
H257 H 0.26696 0.57487 0.23611 0.0
C258 C 0.53392 0.18773 0.62904 0.0
C259 C 0.53618 0.25184 0.64612 0.0
C260 C 0.547 0.32182 0.59628 0.0
C261 C 0.54576 0.25836 0.57923 0.0
N262 N 0.55349 0.13836 0.57855 0.0
N263 N 0.56453 0.38788 0.6469 0.0
C264 C 0.54384 0.19336 0.59538 0.0
C265 C 0.54949 0.32167 0.63005 0.0
N266 N 0.52156 0.12136 0.64513 0.0
N267 N 0.54196 0.38034 0.58021 0.0
H268 H 0.56567 0.39059 0.67167 0.0
H269 H 0.58303 0.4428 0.63633 0.0
H270 H 0.54015 0.38257 0.55537 0.0
H271 H 0.53277 0.42297 0.5914 0.0
H272 H 0.50867 0.06838 0.63406 0.0
H273 H 0.52161 0.11858 0.66999 0.0
H274 H 0.55944 0.09326 0.5891 0.0
H275 H 0.56114 0.14076 0.55384 0.0
C276 C 0.35135 0.51645 0.96547 0.0
C277 C 0.29214 0.5302 0.97856 0.0
C278 C 0.24813 0.53921 0.92498 0.0
C279 C 0.30095 0.51545 0.91225 0.0
N280 N 0.39543 0.47108 0.9202 0.0
N281 N 0.18217 0.55325 0.97168 0.0
C282 C 0.35065 0.50122 0.93244 0.0
C283 C 0.2407 0.54256 0.95858 0.0
N284 N 0.40889 0.51929 0.98486 0.0
N285 N 0.20494 0.55821 0.90486 0.0
H286 H 0.17701 0.56004 0.99606 0.0
H287 H 0.13657 0.55255 0.95862 0.0
H288 H 0.20312 0.54945 0.88025 0.0
H289 H 0.17361 0.58599 0.91222 0.0
H290 H 0.45821 0.517 0.97651 0.0
H291 H 0.41134 0.53245 1.00912 0.0
H292 H 0.42757 0.45311 0.93426 0.0
H293 H 0.39623 0.45863 0.89605 0.0
C294 C 0.82899 0.38538 0.30762 0.0
C295 C 0.76032 0.31484 0.31735 0.0
C296 C 0.72678 0.27319 0.26213 0.0
C297 C 0.7952 0.34356 0.2521 0.0
N298 N 0.90931 0.46984 0.26374 0.0
N299 N 0.63301 0.20359 0.30453 0.0
C300 C 0.84579 0.40105 0.27444 0.0
C301 C 0.70558 0.26272 0.29478 0.0
N302 N 0.87677 0.4371 0.33039 0.0
N303 N 0.68419 0.2146 0.24055 0.0
H304 H 0.61495 0.19451 0.32832 0.0
H305 H 0.58753 0.16888 0.28886 0.0
H306 H 0.69844 0.21931 0.21631 0.0
H307 H 0.6392 0.15835 0.247 0.0
H308 H 0.92957 0.48883 0.32574 0.0
H309 H 0.86193 0.42854 0.3546 0.0
H310 H 0.94882 0.51531 0.27835 0.0
H311 H 0.92257 0.48252 0.23955 0.0
C312 C 0.39954 0.64658 0.62655 0.0
C313 C 0.42255 0.71577 0.64533 0.0
C314 C 0.40778 0.78313 0.5986 0.0
C315 C 0.40025 0.72027 0.57927 0.0
N316 N 0.39445 0.59425 0.5736 0.0
N317 N 0.45208 0.85247 0.6485 0.0
C318 C 0.39658 0.65207 0.5929 0.0
C319 C 0.42704 0.78462 0.63119 0.0
N320 N 0.38106 0.57576 0.64035 0.0
N321 N 0.39568 0.84095 0.58581 0.0
H322 H 0.46457 0.85661 0.67272 0.0
H323 H 0.46563 0.90668 0.63838 0.0
H324 H 0.38178 0.84168 0.56185 0.0
H325 H 0.39174 0.8837 0.59945 0.0
H326 H 0.35472 0.52247 0.62788 0.0
H327 H 0.38566 0.56754 0.66453 0.0
H328 H 0.40248 0.5483 0.58194 0.0
H329 H 0.39087 0.59543 0.5488 0.0
C330 C 0.65258 0.44317 0.96501 0.0
C331 C 0.70626 0.42865 0.98273 0.0
C332 C 0.72616 0.36453 0.93601 0.0
C333 C 0.68439 0.3921 0.9175 0.0
N334 N 0.61219 0.46268 0.91298 0.0
N335 N 0.80317 0.38375 0.98316 0.0
C336 C 0.64844 0.4325 0.9316 0.0
C337 C 0.74464 0.39029 0.968 0.0
N338 N 0.60426 0.46556 0.98009 0.0
N339 N 0.74915 0.31462 0.92289 0.0
H340 H 0.82338 0.40449 1.00595 0.0
H341 H 0.83851 0.36476 0.97177 0.0
H342 H 0.73969 0.29728 0.89902 0.0
H343 H 0.77124 0.28493 0.93632 0.0
H344 H 0.55791 0.46776 0.96878 0.0
H345 H 0.60494 0.47449 1.00459 0.0
H346 H 0.59306 0.50053 0.92165 0.0
H347 H 0.60578 0.45429 0.88836 0.0
C348 C 0.43188 0.41 0.0612 0.0
C349 C 0.40932 0.4471 0.08469 0.0
C350 C 0.53557 0.49433 0.11234 0.0
C351 C 0.55925 0.45887 0.08819 0.0
N352 N 0.5204 0.36355 0.04485 0.0
N353 N 0.42879 0.5082 0.13622 0.0
C354 C 0.50429 0.4102 0.06443 0.0
C355 C 0.45797 0.48413 0.11147 0.0
N356 N 0.38634 0.37858 0.0347 0.0
N357 N 0.58646 0.53644 0.13634 0.0
H358 H 0.37157 0.49997 0.13627 0.0
H359 H 0.45787 0.53002 0.15774 0.0
H360 H 0.63957 0.53714 0.14024 0.0
H361 H 0.57724 0.57243 0.15214 0.0
H362 H 0.40526 0.36167 1.01435 0.0
H363 H 0.33109 0.37398 0.03228 0.0
H364 H 0.4777 0.31872 0.03076 0.0
H365 H 0.57511 0.36656 0.04323 0.0
C366 C 0.01031 0.55498 0.44745 0.0
C367 C 0.05469 0.57459 0.41856 0.0
C368 C 0.97859 0.43615 0.40098 0.0
C369 C 0.9315 0.41737 0.42891 0.0
N370 N 0.91906 0.45085 0.48298 0.0
N371 N 0.07091 0.53809 0.36518 0.0
C372 C 0.95231 0.47475 0.45336 0.0
C373 C 0.03599 0.51612 0.39465 0.0
N374 N 0.02097 0.61264 0.46878 0.0
N375 N 0.97134 0.3772 0.38132 0.0
H376 H 0.11012 0.59674 0.35916 0.0
H377 H 0.05535 0.50023 0.34567 0.0
H378 H 0.93562 0.31839 0.3874 0.0
H379 H 0.00781 0.38544 0.36174 0.0
H380 H 0.98443 0.60285 0.48849 0.0
H381 H 0.06074 0.67235 0.46543 0.0
H382 H 0.93678 0.48695 0.50307 0.0
H383 H 0.87971 0.39168 0.48825 0.0
C384 C 0.48194 0.00949 0.77712 0.0
C385 C 0.44726 0.02529 0.75053 0.0
C386 C 0.40206 0.89259 0.72998 0.0
C387 C 0.44847 0.88142 0.75342 0.0
N388 N 0.52801 0.92652 0.80114 0.0
N389 N 0.38263 0.98671 0.69971 0.0
C390 C 0.48737 0.93921 0.77754 0.0
C391 C 0.40857 0.96781 0.72671 0.0
N392 N 0.50778 0.06108 0.80224 0.0
N393 N 0.35162 0.83209 0.71057 0.0
H394 H 0.38589 0.04125 0.69675 0.0
H395 H 0.3641 0.95116 0.67942 0.0
H396 H 0.35023 0.77819 0.7084 0.0
H397 H 0.30842 0.8348 0.69693 0.0
H398 H 0.52751 0.05044 0.82369 0.0
H399 H 0.50289 0.11213 0.80271 0.0
H400 H 0.56659 0.97048 0.8166 0.0
H401 H 0.52484 0.87216 0.80504 0.0
C402 C 0.56598 0.54141 0.74654 0.0
C403 C 0.56571 0.57918 0.71805 0.0
C404 C 0.46595 0.45161 0.69586 0.0
C405 C 0.45739 0.41745 0.72656 0.0
N406 N 0.48491 0.43456 0.78251 0.0
N407 N 0.53189 0.57075 0.66281 0.0
C408 C 0.50402 0.46348 0.75223 0.0
C409 C 0.52034 0.53404 0.69172 0.0
N410 N 0.62569 0.57939 0.76785 0.0
N411 N 0.42097 0.40539 0.67121 0.0
H412 H 0.57401 0.63038 0.65961 0.0
H413 H 0.50361 0.5427 0.64186 0.0
H414 H 0.37964 0.34549 0.6741 0.0
H415 H 0.42312 0.42549 0.64807 0.0
H416 H 0.6321 0.551 0.78778 0.0
H417 H 0.67262 0.63639 0.76372 0.0
H418 H 0.51375 0.46783 0.80256 0.0
H419 H 0.43423 0.38048 0.78728 0.0
C420 C 0.01129 0.4858 1.02656 0.0
C421 C 0.03736 0.47585 0.05691 0.0
C422 C 0.01949 0.58265 0.07844 0.0
C423 C 0.98061 0.58314 0.05054 0.0
N424 N 0.95279 0.54988 0.99535 0.0
N425 N 0.04332 0.49871 0.11325 0.0
C426 C 0.98076 0.53899 1.0236 0.0
C427 C 0.03626 0.52063 0.08321 0.0
N428 N 0.01327 0.44241 1.00126 0.0
N429 N 0.04001 0.64111 0.10039 0.0
H430 H 0.04727 0.44791 0.11734 0.0
H431 H 0.03328 0.52381 0.13349 0.0
H432 H 0.0288 0.68777 0.09697 0.0
H433 H 0.07437 0.64655 0.12018 0.0
H434 H -0.00461 0.44587 0.9783 0.0
H435 H 0.03323 0.40175 1.00333 0.0
H436 H 0.95084 0.52115 0.97417 0.0
H437 H 0.93332 0.59094 0.99307 0.0
C438 C 0.43427 8e-05 0.42328 0.0
C439 C 0.39395 0.98905 0.39418 0.0
C440 C 0.51631 0.02653 0.3643 0.0
C441 C 0.55571 0.03392 0.39351 0.0
N442 N 0.54892 0.00971 0.45001 0.0
N443 N 0.39714 0.00651 0.33755 0.0
C444 C 0.51365 0.01521 0.42283 0.0
C445 C 0.43542 0.0066 0.36478 0.0
N446 N 0.39675 -0.00235 0.45122 0.0
N447 N 0.55562 0.03437 0.33618 0.0
H448 H 0.33918 -0.00372 0.33811 0.0
H449 H 0.42382 0.02318 0.31518 0.0
H450 H 0.61424 0.04663 0.33533 0.0
H451 H 0.52936 0.02325 0.31383 0.0
H452 H 0.42432 0.01108 0.47336 0.0
H453 H 0.33994 0.99032 0.45154 0.0
H454 H 0.51959 0.99041 0.47182 0.0
H455 H 0.60552 0.01661 0.44985 0.0
C456 C 0.25498 0.14237 0.84573 0.0
C457 C 0.33154 0.20419 0.83596 0.0
C458 C 0.34597 0.26019 0.89062 0.0
C459 C 0.26517 0.20781 0.89756 0.0
N460 N 0.13916 0.10383 0.87933 0.0
N461 N 0.44571 0.33133 0.85094 0.0
C462 C 0.21862 0.15046 0.87435 0.0
C463 C 0.37606 0.26543 0.85893 0.0
N464 N 0.21881 0.07287 0.82916 0.0
N465 N 0.39569 0.30357 0.91471 0.0
H466 H 0.47543 0.34036 0.82951 0.0
H467 H 0.47174 0.38155 0.86535 0.0
H468 H 0.37657 0.30138 0.9382 0.0
H469 H 0.45701 0.33525 0.912 0.0
H470 H 0.16621 0.02384 0.83672 0.0
H471 H 0.24649 0.05995 0.81062 0.0
H472 H 0.10088 0.06685 0.8618 0.0
H473 H 0.11076 0.10737 0.89996 0.0
C474 C 0.06744 0.35614 0.22181 0.0
C475 C 0.0463 0.27725 0.2297 0.0
C476 C 0.10762 0.26913 0.17901 0.0
C477 C 0.11655 0.34293 0.16834 0.0
N478 N 0.09569 0.45385 0.1813 0.0
N479 N 0.03702 0.15418 0.21341 0.0
C480 C 0.09437 0.38583 0.19027 0.0
C481 C 0.06368 0.2325 0.20757 0.0
N482 N 0.0646 0.40451 0.24491 0.0
N483 N 0.14589 0.23622 0.16324 0.0
H484 H 0.00516 0.12541 0.23395 0.0
H485 H 0.0404 0.11646 0.19658 0.0
H486 H 0.18545 0.26458 0.1445 0.0
H487 H 0.14702 0.18629 0.17151 0.0
H488 H 0.0884 0.46533 0.24189 0.0
H489 H 0.0456 0.38562 0.26823 0.0
H490 H 0.06678 0.47815 0.19411 0.0
H491 H 0.12141 0.48472 0.16059 0.0
C492 C 0.72578 0.00132 0.536 0.0
C493 C 0.74139 0.05147 0.56292 0.0
C494 C 0.76951 0.16272 0.52686 0.0
C495 C 0.75855 0.11405 0.49971 0.0
N496 N 0.73289 0.9881 0.47851 0.0
N497 N 0.79133 0.18288 0.58395 0.0
C498 C 0.73933 0.03382 0.50436 0.0
C499 C 0.76677 0.13295 0.55828 0.0
N500 N 0.69442 0.92172 0.54072 0.0
N501 N 0.78166 0.23765 0.52273 0.0
H502 H 0.79016 0.16362 0.60726 0.0
H503 H 0.8192 0.24427 0.582 0.0
H504 H 0.79059 0.26442 0.50046 0.0
H505 H 0.77829 0.27177 0.54119 0.0
H506 H 0.67329 0.88006 0.52247 0.0
H507 H 0.68381 0.89607 0.56336 0.0
H508 H 0.72841 0.93263 0.48013 0.0
H509 H 0.73659 0.00722 0.45505 0.0
C510 C 0.60481 0.68973 0.85003 0.0
C511 C 0.63198 0.76291 0.83323 0.0
C512 C 0.71605 0.83118 0.87996 0.0
C513 C 0.68119 0.759 0.89753 0.0
N514 N 0.57496 0.62447 0.90137 0.0
N515 N 0.70027 0.90596 0.83716 0.0
C516 C 0.62044 0.68995 0.88316 0.0
C517 C 0.68436 0.83457 0.84949 0.0
N518 N 0.56682 0.61898 0.83441 0.0
N519 N 0.78036 0.89641 0.89202 0.0
H520 H 0.67448 0.91163 0.81639 0.0
H521 H 0.73184 0.95905 0.84952 0.0
H522 H 0.80485 0.89607 0.91404 0.0
H523 H 0.81333 0.94828 0.87891 0.0
H524 H 0.5541 0.56549 0.84504 0.0
H525 H 0.55646 0.61386 0.81007 0.0
H526 H 0.52518 0.57512 0.89248 0.0
H527 H 0.58165 0.62267 0.92598 0.0
C528 C 0.95814 0.69045 0.21066 0.0
C529 C 0.91605 0.71557 0.23065 0.0
C530 C 0.82355 0.69226 0.18622 0.0
C531 C 0.86044 0.65798 0.16754 0.0
N532 N 0.95534 0.61111 0.16618 0.0
N533 N 0.80299 0.73263 0.23892 0.0
C534 C 0.92533 0.65315 0.18101 0.0
C535 C 0.84748 0.715 0.21872 0.0
N536 N 0.03175 0.70504 0.21934 0.0
N537 N 0.76457 0.70179 0.17329 0.0
H538 H 0.81873 0.74948 0.26258 0.0
H539 H 0.74768 0.72486 0.23312 0.0
H540 H 0.74113 0.68091 0.15079 0.0
H541 H 0.74181 0.73455 0.18411 0.0
H542 H 0.06964 0.69814 0.20368 0.0
H543 H 0.05856 0.7325 0.24072 0.0
H544 H -0.00582 0.59648 0.17728 0.0
H545 H 0.93776 0.58563 0.14385 0.0
C546 C 0.18559 0.8592 0.55867 0.0
C547 C 0.20171 0.93839 0.56267 0.0
C548 C 0.20224 0.95329 0.50408 0.0
C549 C 0.19174 0.87586 0.49991 0.0
N550 N 0.17942 0.75694 0.52344 0.0
N551 N 0.23535 0.06451 0.53955 0.0
C552 C 0.18518 0.82946 0.52732 0.0
C553 C 0.21241 0.98625 0.53544 0.0
N554 N 0.1692 0.81182 0.58496 0.0
N555 N 0.20268 -0.00417 0.47807 0.0
H556 H 0.24067 0.09005 0.56196 0.0
H557 H 0.25463 0.10569 0.52106 0.0
H558 H 0.20052 0.97687 0.45469 0.0
H559 H 0.20014 0.04795 0.47954 0.0
H560 H 0.1481 0.75115 0.58391 0.0
H561 H 0.17165 0.8322 0.60819 0.0
H562 H 0.18535 0.7247 0.54195 0.0
H563 H 0.1724 0.72996 0.50129 0.0
loop_
_geom_bond_atom_site_label_1
_geom_bond_atom_site_label_2
_geom_bond_distance
_geom_bond_site_symmetry_2
_ccdc_geom_bond_type
Gd0 C3 2.818 . S
Gd0 O20 2.377 . S
Gd0 O22 2.448 . S
Gd0 O23 2.506 . S
Gd0 O24 2.435 . S
Gd0 O25 2.717 . S
Gd0 O27 2.395 . S
Gd0 O31 2.327 . S
Gd1 C12 2.818 1_554 S
Gd1 O21 2.395 . S
Gd1 O25 2.327 . S
Gd1 O26 2.377 1_554 S
Gd1 O28 2.448 1_554 S
Gd1 O29 2.506 1_554 S
Gd1 O30 2.435 . S
Gd1 O31 2.717 . S
C2 O20 1.240 . S
C2 O21 1.240 . S
C3 Gd0 2.818 . S
C3 C4 1.510 . S
C3 O22 1.249 . S
C3 O23 1.252 . S
C4 C3 1.510 . S
C4 C5 1.404 . S
C4 C6 1.352 . S
C5 C4 1.404 . S
C5 C9 1.389 . S
C5 H32 0.930 . S
C6 C4 1.352 . S
C6 C8 1.374 . S
C6 H33 0.931 . S
C7 C8 1.359 . S
C7 C9 1.364 . S
C8 C6 1.374 . S
C8 C7 1.359 . S
C8 H34 0.931 . S
C9 C5 1.389 . S
C9 C7 1.364 . S
C9 H35 0.931 . S
C10 O24 1.256 . S
C10 O25 1.257 . S
C11 O26 1.240 . S
C11 O27 1.240 1_556 S
C12 Gd1 2.818 1_556 S
C12 C13 1.510 . S
C12 O28 1.249 . S
C12 O29 1.252 . S
C13 C12 1.510 . S
C13 C14 1.404 . S
C13 C15 1.352 . S
C14 C13 1.404 . S
C14 C18 1.389 . S
C14 H36 0.930 . S
C15 C13 1.352 . S
C15 C17 1.374 . S
C15 H37 0.931 . S
C16 C17 1.359 . S
C16 C18 1.364 . S
C17 C15 1.374 . S
C17 C16 1.359 . S
C17 H38 0.931 . S
C18 C14 1.389 . S
C18 C16 1.364 . S
C18 H39 0.931 . S
C19 O30 1.256 . S
C19 O31 1.257 . S
O20 Gd0 2.377 . S
O20 C2 1.240 . S
O21 Gd1 2.395 . S
O21 C2 1.240 . S
O22 Gd0 2.448 . S
O22 C3 1.249 . S
O23 Gd0 2.506 . S
O23 C3 1.252 . S
O24 Gd0 2.435 . S
O24 C10 1.256 . S
O25 Gd0 2.717 . S
O25 Gd1 2.327 . S
O25 C10 1.257 . S
O26 Gd1 2.377 1_556 S
O26 C11 1.240 . S
O27 Gd0 2.395 . S
O27 C11 1.240 1_554 S
O28 Gd1 2.448 1_556 S
O28 C12 1.249 . S
O29 Gd1 2.506 1_556 S
O29 C12 1.252 . S
O30 Gd1 2.435 . S
O30 C19 1.256 . S
O31 Gd0 2.327 . S
O31 Gd1 2.717 . S
O31 C19 1.257 . S
H32 C5 0.930 . S
H33 C6 0.931 . S
H34 C8 0.931 . S
H35 C9 0.931 . S
H36 C14 0.930 . S
H37 C15 0.931 . S
H38 C17 0.931 . S
H39 C18 0.931 . S
Gd40 C43 2.818 . S
Gd40 O60 2.377 . S
Gd40 O62 2.448 . S
Gd40 O63 2.506 . S
Gd40 O64 2.435 . S
Gd40 O65 2.717 . S
Gd40 O67 2.395 . S
Gd40 O71 2.327 . S
Gd41 C52 2.818 . S
Gd41 O61 2.395 . S
Gd41 O65 2.327 . S
Gd41 O66 2.377 . S
Gd41 O68 2.448 . S
Gd41 O69 2.506 . S
Gd41 O70 2.435 . S
Gd41 O71 2.717 . S
C42 O60 1.240 . S
C42 O61 1.240 . S
C43 Gd40 2.818 . S
C43 C44 1.510 . S
C43 O62 1.249 . S
C43 O63 1.252 . S
C44 C43 1.510 . S
C44 C45 1.404 . S
C44 C46 1.352 . S
C45 C44 1.404 . S
C45 C49 1.389 . S
C45 H72 0.930 . S
C46 C44 1.352 . S
C46 C48 1.374 . S
C46 H73 0.931 . S
C47 C48 1.359 . S
C47 C49 1.364 . S
C48 C46 1.374 . S
C48 C47 1.359 . S
C48 H74 0.931 . S
C49 C45 1.389 . S
C49 C47 1.364 . S
C49 H75 0.931 . S
C50 O64 1.256 . S
C50 O65 1.257 . S
C51 O66 1.240 . S
C51 O67 1.240 . S
C52 Gd41 2.818 . S
C52 C53 1.510 . S
C52 O68 1.249 . S
C52 O69 1.252 . S
C53 C52 1.510 . S
C53 C54 1.404 . S
C53 C55 1.352 1_655 S
C54 C53 1.404 . S
C54 C58 1.389 . S
C54 H76 0.930 . S
C55 C53 1.352 1_455 S
C55 C57 1.374 . S
C55 H77 0.931 . S
C56 C57 1.359 . S
C56 C58 1.364 1_455 S
C57 C55 1.374 . S
C57 C56 1.359 . S
C57 H78 0.931 . S
C58 C54 1.389 . S
C58 C56 1.364 1_655 S
C58 H79 0.931 . S
C59 O70 1.256 . S
C59 O71 1.257 . S
O60 Gd40 2.377 . S
O60 C42 1.240 . S
O61 Gd41 2.395 . S
O61 C42 1.240 . S
O62 Gd40 2.448 . S
O62 C43 1.249 . S
O63 Gd40 2.506 . S
O63 C43 1.252 . S
O64 Gd40 2.435 . S
O64 C50 1.256 . S
O65 Gd40 2.717 . S
O65 Gd41 2.327 . S
O65 C50 1.257 . S
O66 Gd41 2.377 . S
O66 C51 1.240 . S
O67 Gd40 2.395 . S
O67 C51 1.240 . S
O68 Gd41 2.448 . S
O68 C52 1.249 . S
O69 Gd41 2.506 . S
O69 C52 1.252 . S
O70 Gd41 2.435 . S
O70 C59 1.256 . S
O71 Gd40 2.327 . S
O71 Gd41 2.717 . S
O71 C59 1.257 . S
H72 C45 0.930 . S
H73 C46 0.931 . S
H74 C48 0.931 . S
H75 C49 0.931 . S
H76 C54 0.930 . S
H77 C55 0.931 . S
H78 C57 0.931 . S
H79 C58 0.931 . S
Gd80 C83 2.818 . S
Gd80 O100 2.377 . S
Gd80 O102 2.448 . S
Gd80 O103 2.506 . S
Gd80 O104 2.435 . S
Gd80 O105 2.717 . S
Gd80 O107 2.395 . S
Gd80 O111 2.327 . S
Gd81 C92 2.818 . S
Gd81 O101 2.395 . S
Gd81 O105 2.327 . S
Gd81 O106 2.377 . S
Gd81 O108 2.448 . S
Gd81 O109 2.506 . S
Gd81 O110 2.435 . S
Gd81 O111 2.717 . S
C82 O100 1.240 . S
C82 O101 1.240 . S
C83 Gd80 2.818 . S
C83 C84 1.510 . S
C83 O102 1.249 . S
C83 O103 1.252 . S
C84 C83 1.510 . S
C84 C85 1.404 . S
C84 C86 1.352 . S
C85 C84 1.404 . S
C85 C89 1.389 . S
C85 H112 0.930 . S
C86 C84 1.352 . S
C86 C88 1.374 . S
C86 H113 0.931 . S
C87 C88 1.359 . S
C87 C89 1.364 . S
C88 C86 1.374 . S
C88 C87 1.359 . S
C88 H114 0.931 . S
C89 C85 1.389 . S
C89 C87 1.364 . S
C89 H115 0.931 . S
C90 O104 1.256 . S
C90 O105 1.257 . S
C91 O106 1.240 . S
C91 O107 1.240 . S
C92 Gd81 2.818 . S
C92 C93 1.510 . S
C92 O108 1.249 . S
C92 O109 1.252 . S
C93 C92 1.510 . S
C93 C94 1.404 . S
C93 C95 1.352 1_565 S
C94 C93 1.404 . S
C94 C98 1.389 . S
C94 H116 0.930 . S
C95 C93 1.352 1_545 S
C95 C97 1.374 . S
C95 H117 0.931 . S
C96 C97 1.359 . S
C96 C98 1.364 1_545 S
C97 C95 1.374 . S
C97 C96 1.359 . S
C97 H118 0.931 . S
C98 C94 1.389 . S
C98 C96 1.364 1_565 S
C98 H119 0.931 . S
C99 O110 1.256 . S
C99 O111 1.257 . S
O100 Gd80 2.377 . S
O100 C82 1.240 . S
O101 Gd81 2.395 . S
O101 C82 1.240 . S
O102 Gd80 2.448 . S
O102 C83 1.249 . S
O103 Gd80 2.506 . S
O103 C83 1.252 . S
O104 Gd80 2.435 . S
O104 C90 1.256 . S
O105 Gd80 2.717 . S
O105 Gd81 2.327 . S
O105 C90 1.257 . S
O106 Gd81 2.377 . S
O106 C91 1.240 . S
O107 Gd80 2.395 . S
O107 C91 1.240 . S
O108 Gd81 2.448 . S
O108 C92 1.249 . S
O109 Gd81 2.506 . S
O109 C92 1.252 . S
O110 Gd81 2.435 . S
O110 C99 1.256 . S
O111 Gd80 2.327 . S
O111 Gd81 2.717 . S
O111 C99 1.257 . S
H112 C85 0.930 . S
H113 C86 0.931 . S
H114 C88 0.931 . S
H115 C89 0.931 . S
H116 C94 0.930 . S
H117 C95 0.931 . S
H118 C97 0.931 . S
H119 C98 0.931 . S
Gd120 C123 2.818 . S
Gd120 O140 2.377 . S
Gd120 O142 2.448 . S
Gd120 O143 2.506 . S
Gd120 O144 2.435 . S
Gd120 O145 2.717 . S
Gd120 O147 2.395 . S
Gd120 O151 2.327 . S
Gd121 C132 2.818 1_554 S
Gd121 O141 2.395 . S
Gd121 O145 2.327 . S
Gd121 O146 2.377 1_554 S
Gd121 O148 2.448 1_554 S
Gd121 O149 2.506 1_554 S
Gd121 O150 2.435 . S
Gd121 O151 2.717 . S
C122 O140 1.240 . S
C122 O141 1.240 . S
C123 Gd120 2.818 . S
C123 C124 1.510 . S
C123 O142 1.249 . S
C123 O143 1.252 . S
C124 C123 1.510 . S
C124 C125 1.404 . S
C124 C126 1.352 . S
C125 C124 1.404 . S
C125 C129 1.389 . S
C125 H152 0.930 . S
C126 C124 1.352 . S
C126 C128 1.374 . S
C126 H153 0.931 . S
C127 C128 1.359 . S
C127 C129 1.364 . S
C128 C126 1.374 . S
C128 C127 1.359 . S
C128 H154 0.931 . S
C129 C125 1.389 . S
C129 C127 1.364 . S
C129 H155 0.931 . S
C130 O144 1.256 . S
C130 O145 1.257 . S
C131 O146 1.240 . S
C131 O147 1.240 1_556 S
C132 Gd121 2.818 1_556 S
C132 C133 1.510 . S
C132 O148 1.249 . S
C132 O149 1.252 . S
C133 C132 1.510 . S
C133 C134 1.404 . S
C133 C135 1.352 . S
C134 C133 1.404 . S
C134 C138 1.389 . S
C134 H156 0.930 . S
C135 C133 1.352 . S
C135 C137 1.374 . S
C135 H157 0.931 . S
C136 C137 1.359 . S
C136 C138 1.364 . S
C137 C135 1.374 . S
C137 C136 1.359 . S
C137 H158 0.931 . S
C138 C134 1.389 . S
C138 C136 1.364 . S
C138 H159 0.931 . S
C139 O150 1.256 . S
C139 O151 1.257 . S
O140 Gd120 2.377 . S
O140 C122 1.240 . S
O141 Gd121 2.395 . S
O141 C122 1.240 . S
O142 Gd120 2.448 . S
O142 C123 1.249 . S
O143 Gd120 2.506 . S
O143 C123 1.252 . S
O144 Gd120 2.435 . S
O144 C130 1.256 . S
O145 Gd120 2.717 . S
O145 Gd121 2.327 . S
O145 C130 1.257 . S
O146 Gd121 2.377 1_556 S
O146 C131 1.240 . S
O147 Gd120 2.395 . S
O147 C131 1.240 1_554 S
O148 Gd121 2.448 1_556 S
O148 C132 1.249 . S
O149 Gd121 2.506 1_556 S
O149 C132 1.252 . S
O150 Gd121 2.435 . S
O150 C139 1.256 . S
O151 Gd120 2.327 . S
O151 Gd121 2.717 . S
O151 C139 1.257 . S
H152 C125 0.930 . S
H153 C126 0.931 . S
H154 C128 0.931 . S
H155 C129 0.931 . S
H156 C134 0.930 . S
H157 C135 0.931 . S
H158 C137 0.931 . S
H159 C138 0.931 . S
Gd160 C163 2.818 . S
Gd160 O180 2.377 . S
Gd160 O182 2.448 . S
Gd160 O183 2.506 . S
Gd160 O184 2.435 . S
Gd160 O185 2.717 . S
Gd160 O187 2.395 . S
Gd160 O191 2.327 . S
Gd161 C172 2.818 . S
Gd161 O181 2.395 . S
Gd161 O185 2.327 . S
Gd161 O186 2.377 . S
Gd161 O188 2.448 . S
Gd161 O189 2.506 . S
Gd161 O190 2.435 . S
Gd161 O191 2.717 . S
C162 O180 1.240 . S
C162 O181 1.240 . S
C163 Gd160 2.818 . S
C163 C164 1.510 . S
C163 O182 1.249 . S
C163 O183 1.252 . S
C164 C163 1.510 . S
C164 C165 1.404 . S
C164 C166 1.352 . S
C165 C164 1.404 . S
C165 C169 1.389 . S
C165 H192 0.930 . S
C166 C164 1.352 . S
C166 C168 1.374 . S
C166 H193 0.931 . S
C167 C168 1.359 . S
C167 C169 1.364 . S
C168 C166 1.374 . S
C168 C167 1.359 . S
C168 H194 0.931 . S
C169 C165 1.389 . S
C169 C167 1.364 . S
C169 H195 0.931 . S
C170 O184 1.256 . S
C170 O185 1.257 . S
C171 O186 1.240 . S
C171 O187 1.240 . S
C172 Gd161 2.818 . S
C172 C173 1.510 . S
C172 O188 1.249 . S
C172 O189 1.252 . S
C173 C172 1.510 . S
C173 C174 1.404 . S
C173 C175 1.352 1_455 S
C174 C173 1.404 . S
C174 C178 1.389 . S
C174 H196 0.930 . S
C175 C173 1.352 1_655 S
C175 C177 1.374 . S
C175 H197 0.931 . S
C176 C177 1.359 . S
C176 C178 1.364 1_655 S
C177 C175 1.374 . S
C177 C176 1.359 . S
C177 H198 0.931 . S
C178 C174 1.389 . S
C178 C176 1.364 1_455 S
C178 H199 0.931 . S
C179 O190 1.256 . S
C179 O191 1.257 . S
O180 Gd160 2.377 . S
O180 C162 1.240 . S
O181 Gd161 2.395 . S
O181 C162 1.240 . S
O182 Gd160 2.448 . S
O182 C163 1.249 . S
O183 Gd160 2.506 . S
O183 C163 1.252 . S
O184 Gd160 2.435 . S
O184 C170 1.256 . S
O185 Gd160 2.717 . S
O185 Gd161 2.327 . S
O185 C170 1.257 . S
O186 Gd161 2.377 . S
O186 C171 1.240 . S
O187 Gd160 2.395 . S
O187 C171 1.240 . S
O188 Gd161 2.448 . S
O188 C172 1.249 . S
O189 Gd161 2.506 . S
O189 C172 1.252 . S
O190 Gd161 2.435 . S
O190 C179 1.256 . S
O191 Gd160 2.327 . S
O191 Gd161 2.717 . S
O191 C179 1.257 . S
H192 C165 0.930 . S
H193 C166 0.931 . S
H194 C168 0.931 . S
H195 C169 0.931 . S
H196 C174 0.930 . S
H197 C175 0.931 . S
H198 C177 0.931 . S
H199 C178 0.931 . S
Gd200 C203 2.818 . S
Gd200 O220 2.377 . S
Gd200 O222 2.448 . S
Gd200 O223 2.506 . S
Gd200 O224 2.435 . S
Gd200 O225 2.717 . S
Gd200 O227 2.395 . S
Gd200 O231 2.327 . S
Gd201 C212 2.818 . S
Gd201 O221 2.395 . S
Gd201 O225 2.327 . S
Gd201 O226 2.377 . S
Gd201 O228 2.448 . S
Gd201 O229 2.506 . S
Gd201 O230 2.435 . S
Gd201 O231 2.717 . S
C202 O220 1.240 . S
C202 O221 1.240 . S
C203 Gd200 2.818 . S
C203 C204 1.510 . S
C203 O222 1.249 . S
C203 O223 1.252 . S
C204 C203 1.510 . S
C204 C205 1.404 . S
C204 C206 1.352 . S
C205 C204 1.404 . S
C205 C209 1.389 . S
C205 H232 0.930 . S
C206 C204 1.352 . S
C206 C208 1.374 . S
C206 H233 0.931 . S
C207 C208 1.359 . S
C207 C209 1.364 . S
C208 C206 1.374 . S
C208 C207 1.359 . S
C208 H234 0.931 . S
C209 C205 1.389 . S
C209 C207 1.364 . S
C209 H235 0.931 . S
C210 O224 1.256 . S
C210 O225 1.257 . S
C211 O226 1.240 . S
C211 O227 1.240 . S
C212 Gd201 2.818 . S
C212 C213 1.510 . S
C212 O228 1.249 . S
C212 O229 1.252 . S
C213 C212 1.510 . S
C213 C214 1.404 . S
C213 C215 1.352 1_545 S
C214 C213 1.404 . S
C214 C218 1.389 . S
C214 H236 0.930 . S
C215 C213 1.352 1_565 S
C215 C217 1.374 . S
C215 H237 0.931 . S
C216 C217 1.359 . S
C216 C218 1.364 1_565 S
C217 C215 1.374 . S
C217 C216 1.359 . S
C217 H238 0.931 . S
C218 C214 1.389 . S
C218 C216 1.364 1_545 S
C218 H239 0.931 . S
C219 O230 1.256 . S
C219 O231 1.257 . S
O220 Gd200 2.377 . S
O220 C202 1.240 . S
O221 Gd201 2.395 . S
O221 C202 1.240 . S
O222 Gd200 2.448 . S
O222 C203 1.249 . S
O223 Gd200 2.506 . S
O223 C203 1.252 . S
O224 Gd200 2.435 . S
O224 C210 1.256 . S
O225 Gd200 2.717 . S
O225 Gd201 2.327 . S
O225 C210 1.257 . S
O226 Gd201 2.377 . S
O226 C211 1.240 . S
O227 Gd200 2.395 . S
O227 C211 1.240 . S
O228 Gd201 2.448 . S
O228 C212 1.249 . S
O229 Gd201 2.506 . S
O229 C212 1.252 . S
O230 Gd201 2.435 . S
O230 C219 1.256 . S
O231 Gd200 2.327 . S
O231 Gd201 2.717 . S
O231 C219 1.257 . S
H232 C205 0.930 . S
H233 C206 0.931 . S
H234 C208 0.931 . S
H235 C209 0.931 . S
H236 C214 0.930 . S
H237 C215 0.931 . S
H238 C217 0.931 . S
H239 C218 0.931 . S
C240 C241 1.363 . S
C240 C246 1.379 . S
C240 N248 1.356 . S
C241 C240 1.363 . S
C241 C247 1.363 . S
C242 C243 1.363 . S
C242 C247 1.379 . S
C242 N249 1.356 . S
C243 C242 1.363 . S
C243 C246 1.363 . S
N244 C246 1.356 . S
N244 H256 0.984 . S
N244 H257 0.985 . S
N245 C247 1.356 . S
N245 H250 0.984 . S
N245 H251 0.985 . S
C246 C240 1.379 . S
C246 C243 1.363 . S
C246 N244 1.356 . S
C247 C241 1.363 . S
C247 C242 1.379 . S
C247 N245 1.356 . S
N248 C240 1.356 . S
N248 H254 0.984 . S
N248 H255 0.984 . S
N249 C242 1.356 . S
N249 H252 0.984 . S
N249 H253 0.985 . S
H250 N245 0.984 . S
H251 N245 0.985 . S
H252 N249 0.984 . S
H253 N249 0.985 . S
H254 N248 0.984 . S
H255 N248 0.984 . S
H256 N244 0.984 . S
H257 N244 0.985 . S
C258 C259 1.363 . S
C258 C264 1.379 . S
C258 N266 1.356 . S
C259 C258 1.363 . S
C259 C265 1.363 . S
C260 C261 1.363 . S
C260 C265 1.379 . S
C260 N267 1.356 . S
C261 C260 1.363 . S
C261 C264 1.363 . S
N262 C264 1.356 . S
N262 H274 0.984 . S
N262 H275 0.985 . S
N263 C265 1.356 . S
N263 H268 0.984 . S
N263 H269 0.985 . S
C264 C258 1.379 . S
C264 C261 1.363 . S
C264 N262 1.356 . S
C265 C259 1.363 . S
C265 C260 1.379 . S
C265 N263 1.356 . S
N266 C258 1.356 . S
N266 H272 0.984 . S
N266 H273 0.984 . S
N267 C260 1.356 . S
N267 H270 0.984 . S
N267 H271 0.985 . S
H268 N263 0.984 . S
H269 N263 0.985 . S
H270 N267 0.984 . S
H271 N267 0.985 . S
H272 N266 0.984 . S
H273 N266 0.984 . S
H274 N262 0.984 . S
H275 N262 0.985 . S
C276 C277 1.363 . S
C276 C282 1.379 . S
C276 N284 1.356 . S
C277 C276 1.363 . S
C277 C283 1.363 . S
C278 C279 1.363 . S
C278 C283 1.379 . S
C278 N285 1.356 . S
C279 C278 1.363 . S
C279 C282 1.363 . S
N280 C282 1.356 . S
N280 H292 0.984 . S
N280 H293 0.985 . S
N281 C283 1.356 . S
N281 H286 1.005 . S
N281 H287 0.985 . S
C282 C276 1.379 . S
C282 C279 1.363 . S
C282 N280 1.356 . S
C283 C277 1.363 . S
C283 C278 1.379 . S
C283 N281 1.356 . S
N284 C276 1.356 . S
N284 H290 0.984 . S
N284 H291 0.984 . S
N285 C278 1.356 . S
N285 H288 0.984 . S
N285 H289 0.985 . S
H286 N281 1.005 . S
H287 N281 0.985 . S
H288 N285 0.984 . S
H289 N285 0.985 . S
H290 N284 0.984 . S
H291 N284 0.984 . S
H292 N280 0.984 . S
H293 N280 0.985 . S
C294 C295 1.363 . S
C294 C300 1.379 . S
C294 N302 1.356 . S
C295 C294 1.363 . S
C295 C301 1.363 . S
C296 C297 1.363 . S
C296 C301 1.379 . S
C296 N303 1.356 . S
C297 C296 1.363 . S
C297 C300 1.363 . S
N298 C300 1.356 . S
N298 H310 0.984 . S
N298 H311 0.985 . S
N299 C301 1.356 . S
N299 H304 0.984 . S
N299 H305 0.985 . S
C300 C294 1.379 . S
C300 C297 1.363 . S
C300 N298 1.356 . S
C301 C295 1.363 . S
C301 C296 1.379 . S
C301 N299 1.356 . S
N302 C294 1.356 . S
N302 H308 0.984 . S
N302 H309 0.984 . S
N303 C296 1.356 . S
N303 H306 0.984 . S
N303 H307 0.985 . S
H304 N299 0.984 . S
H305 N299 0.985 . S
H306 N303 0.984 . S
H307 N303 0.985 . S
H308 N302 0.984 . S
H309 N302 0.984 . S
H310 N298 0.984 . S
H311 N298 0.985 . S
C312 C313 1.363 . S
C312 C318 1.379 . S
C312 N320 1.356 . S
C313 C312 1.363 . S
C313 C319 1.363 . S
C314 C315 1.363 . S
C314 C319 1.379 . S
C314 N321 1.356 . S
C315 C314 1.363 . S
C315 C318 1.363 . S
N316 C318 1.356 . S
N316 H328 0.984 . S
N316 H329 0.985 . S
N317 C319 1.356 . S
N317 H322 0.984 . S
N317 H323 0.985 . S
C318 C312 1.379 . S
C318 C315 1.363 . S
C318 N316 1.356 . S
C319 C313 1.363 . S
C319 C314 1.379 . S
C319 N317 1.356 . S
N320 C312 1.356 . S
N320 H326 0.984 . S
N320 H327 0.984 . S
N321 C314 1.356 . S
N321 H324 0.984 . S
N321 H325 0.985 . S
H322 N317 0.984 . S
H323 N317 0.985 . S
H324 N321 0.984 . S
H325 N321 0.985 . S
H326 N320 0.984 . S
H327 N320 0.984 . S
H328 N316 0.984 . S
H329 N316 0.985 . S
C330 C331 1.363 . S
C330 C336 1.379 . S
C330 N338 1.356 . S
C331 C330 1.363 . S
C331 C337 1.363 . S
C332 C333 1.363 . S
C332 C337 1.379 . S
C332 N339 1.356 . S
C333 C332 1.363 . S
C333 C336 1.363 . S
N334 C336 1.356 . S
N334 H346 0.984 . S
N334 H347 0.985 . S
N335 C337 1.356 . S
N335 H340 0.984 . S
N335 H341 0.985 . S
C336 C330 1.379 . S
C336 C333 1.363 . S
C336 N334 1.356 . S
C337 C331 1.363 . S
C337 C332 1.379 . S
C337 N335 1.356 . S
N338 C330 1.356 . S
N338 H344 0.984 . S
N338 H345 0.984 . S
N339 C332 1.356 . S
N339 H342 0.984 . S
N339 H343 0.985 . S
H340 N335 0.984 . S
H341 N335 0.985 . S
H342 N339 0.984 . S
H343 N339 0.985 . S
H344 N338 0.984 . S
H345 N338 0.984 . S
H346 N334 0.984 . S
H347 N334 0.985 . S
C348 C349 1.363 . S
C348 C354 1.379 . S
C348 N356 1.356 . S
C349 C348 1.363 . S
C349 C355 1.363 . S
C350 C351 1.363 . S
C350 C355 1.379 . S
C350 N357 1.356 . S
C351 C350 1.363 . S
C351 C354 1.363 . S
N352 C354 1.356 . S
N352 H364 0.984 1_554 S
N352 H365 0.985 . S
N353 C355 1.356 . S
N353 H358 0.984 . S
N353 H359 0.985 . S
C354 C348 1.379 . S
C354 C351 1.363 . S
C354 N352 1.356 . S
C355 C349 1.363 . S
C355 C350 1.379 . S
C355 N353 1.356 . S
N356 C348 1.356 . S
N356 H362 0.984 1_554 S
N356 H363 0.984 . S
N357 C350 1.356 . S
N357 H360 0.984 . S
N357 H361 0.985 . S
H358 N353 0.984 . S
H359 N353 0.985 . S
H360 N357 0.984 . S
H361 N357 0.985 . S
H362 N356 0.984 1_556 S
H363 N356 0.984 . S
H364 N352 0.984 1_556 S
H365 N352 0.985 . S
C366 C367 1.363 . S
C366 C372 1.379 . S
C366 N374 1.356 . S
C367 C366 1.363 . S
C367 C373 1.363 1_455 S
C368 C369 1.363 . S
C368 C373 1.379 . S
C368 N375 1.356 . S
C369 C368 1.363 . S
C369 C372 1.363 1_655 S
N370 C372 1.356 . S
N370 H382 0.984 . S
N370 H383 0.985 . S
N371 C373 1.356 . S
N371 H376 0.984 . S
N371 H377 0.985 . S
C372 C366 1.379 . S
C372 C369 1.363 1_455 S
C372 N370 1.356 . S
C373 C367 1.363 1_655 S
C373 C368 1.379 . S
C373 N371 1.356 . S
N374 C366 1.356 . S
N374 H380 0.984 . S
N374 H381 0.984 . S
N375 C368 1.356 . S
N375 H378 0.984 . S
N375 H379 0.985 . S
H376 N371 0.984 . S
H377 N371 0.985 . S
H378 N375 0.984 . S
H379 N375 0.985 . S
H380 N374 0.984 . S
H381 N374 0.984 . S
H382 N370 0.984 . S
H383 N370 0.985 . S
C384 C385 1.363 . S
C384 C390 1.379 . S
C384 N392 1.356 . S
C385 C384 1.363 . S
C385 C391 1.363 1_545 S
C386 C387 1.363 . S
C386 C391 1.379 . S
C386 N393 1.356 . S
C387 C386 1.363 . S
C387 C390 1.363 1_565 S
N388 C390 1.356 . S
N388 H400 0.984 . S
N388 H401 0.985 . S
N389 C391 1.356 . S
N389 H394 0.984 . S
N389 H395 0.985 . S
C390 C384 1.379 . S
C390 C387 1.363 1_545 S
C390 N388 1.356 . S
C391 C385 1.363 1_565 S
C391 C386 1.379 . S
C391 N389 1.356 . S
N392 C384 1.356 . S
N392 H398 0.984 . S
N392 H399 0.984 . S
N393 C386 1.356 . S
N393 H396 0.984 . S
N393 H397 0.985 . S
H394 N389 0.984 . S
H395 N389 0.985 . S
H396 N393 0.984 . S
H397 N393 0.985 . S
H398 N392 0.984 . S
H399 N392 0.984 . S
H400 N388 0.984 . S
H401 N388 0.985 . S
C402 C403 1.363 . S
C402 C408 1.379 . S
C402 N410 1.356 . S
C403 C402 1.363 . S
C403 C409 1.363 . S
C404 C405 1.363 . S
C404 C409 1.379 . S
C404 N411 1.356 . S
C405 C404 1.363 . S
C405 C408 1.363 . S
N406 C408 1.356 . S
N406 H418 0.984 . S
N406 H419 0.985 . S
N407 C409 1.356 . S
N407 H412 0.984 . S
N407 H413 0.985 . S
C408 C402 1.379 . S
C408 C405 1.363 . S
C408 N406 1.356 . S
C409 C403 1.363 . S
C409 C404 1.379 . S
C409 N407 1.356 . S
N410 C402 1.356 . S
N410 H416 0.984 . S
N410 H417 0.984 . S
N411 C404 1.356 . S
N411 H414 0.984 . S
N411 H415 0.985 . S
H412 N407 0.984 . S
H413 N407 0.985 . S
H414 N411 0.984 . S
H415 N411 0.985 . S
H416 N410 0.984 . S
H417 N410 0.984 . S
H418 N406 0.984 . S
H419 N406 0.985 . S
C420 C421 1.363 . S
C420 C426 1.379 . S
C420 N428 1.356 1_554 S
C421 C420 1.363 . S
C421 C427 1.363 1_455 S
C422 C423 1.363 . S
C422 C427 1.379 . S
C422 N429 1.356 . S
C423 C422 1.363 . S
C423 C426 1.363 1_655 S
N424 C426 1.356 1_556 S
N424 H436 0.984 . S
N424 H437 0.985 1_556 S
N425 C427 1.356 . S
N425 H430 0.984 . S
N425 H431 0.985 . S
C426 C420 1.379 . S
C426 C423 1.363 1_455 S
C426 N424 1.356 1_554 S
C427 C421 1.363 1_655 S
C427 C422 1.379 . S
C427 N425 1.356 . S
N428 C420 1.356 1_556 S
N428 H434 0.984 . S
N428 H435 0.984 1_556 S
N429 C422 1.356 . S
N429 H432 0.984 . S
N429 H433 0.985 . S
H430 N425 0.984 . S
H431 N425 0.985 . S
H432 N429 0.984 . S
H433 N429 0.985 . S
H434 N428 0.984 . S
H435 N428 0.984 1_554 S
H436 N424 0.984 . S
H437 N424 0.985 1_554 S
C438 C439 1.363 1_545 S
C438 C444 1.379 . S
C438 N446 1.356 . S
C439 C438 1.363 1_565 S
C439 C445 1.363 . S
C440 C441 1.363 1_565 S
C440 C445 1.379 . S
C440 N447 1.356 . S
C441 C440 1.363 1_545 S
C441 C444 1.363 . S
N442 C444 1.356 . S
N442 H454 0.984 . S
N442 H455 0.985 . S
N443 C445 1.356 . S
N443 H448 0.984 . S
N443 H449 0.985 . S
C444 C438 1.379 . S
C444 C441 1.363 . S
C444 N442 1.356 . S
C445 C439 1.363 . S
C445 C440 1.379 . S
C445 N443 1.356 . S
N446 C438 1.356 . S
N446 H452 0.984 . S
N446 H453 0.984 . S
N447 C440 1.356 . S
N447 H450 0.984 . S
N447 H451 0.985 . S
H448 N443 0.984 . S
H449 N443 0.985 . S
H450 N447 0.984 . S
H451 N447 0.985 . S
H452 N446 0.984 . S
H453 N446 0.984 . S
H454 N442 0.984 . S
H455 N442 0.985 . S
C456 C457 1.363 . S
C456 C462 1.379 . S
C456 N464 1.356 . S
C457 C456 1.363 . S
C457 C463 1.363 . S
C458 C459 1.363 . S
C458 C463 1.379 . S
C458 N465 1.356 . S
C459 C458 1.363 . S
C459 C462 1.363 . S
N460 C462 1.356 . S
N460 H472 0.984 . S
N460 H473 0.985 . S
N461 C463 1.356 . S
N461 H466 0.984 . S
N461 H467 0.985 . S
C462 C456 1.379 . S
C462 C459 1.363 . S
C462 N460 1.356 . S
C463 C457 1.363 . S
C463 C458 1.379 . S
C463 N461 1.356 . S
N464 C456 1.356 . S
N464 H470 0.984 . S
N464 H471 0.984 . S
N465 C458 1.356 . S
N465 H468 0.984 . S
N465 H469 0.985 . S
H466 N461 0.984 . S
H467 N461 0.985 . S
H468 N465 0.984 . S
H469 N465 0.985 . S
H470 N464 0.984 . S
H471 N464 0.984 . S
H472 N460 0.984 . S
H473 N460 0.985 . S
C474 C475 1.363 . S
C474 C480 1.379 . S
C474 N482 1.356 . S
C475 C474 1.363 . S
C475 C481 1.363 . S
C476 C477 1.363 . S
C476 C481 1.379 . S
C476 N483 1.356 . S
C477 C476 1.363 . S
C477 C480 1.363 . S
N478 C480 1.356 . S
N478 H490 0.984 . S
N478 H491 0.985 . S
N479 C481 1.356 . S
N479 H484 0.984 1_455 S
N479 H485 0.985 1_455 S
C480 C474 1.379 . S
C480 C477 1.363 . S
C480 N478 1.356 . S
C481 C475 1.363 . S
C481 C476 1.379 . S
C481 N479 1.356 . S
N482 C474 1.356 . S
N482 H488 0.984 . S
N482 H489 0.984 . S
N483 C476 1.356 . S
N483 H486 0.984 . S
N483 H487 0.985 . S
H484 N479 0.984 1_655 S
H485 N479 0.985 1_655 S
H486 N483 0.984 . S
H487 N483 0.985 . S
H488 N482 0.984 . S
H489 N482 0.984 . S
H490 N478 0.984 . S
H491 N478 0.985 . S
C492 C493 1.363 . S
C492 C498 1.379 . S
C492 N500 1.356 1_545 S
C493 C492 1.363 . S
C493 C499 1.363 . S
C494 C495 1.363 . S
C494 C499 1.379 . S
C494 N501 1.356 . S
C495 C494 1.363 . S
C495 C498 1.363 . S
N496 C498 1.356 . S
N496 H508 0.984 1_545 S
N496 H509 0.985 . S
N497 C499 1.356 . S
N497 H502 0.984 . S
N497 H503 0.985 . S
C498 C492 1.379 . S
C498 C495 1.363 . S
C498 N496 1.356 . S
C499 C493 1.363 . S
C499 C494 1.379 . S
C499 N497 1.356 . S
N500 C492 1.356 1_565 S
N500 H506 0.984 . S
N500 H507 0.984 . S
N501 C494 1.356 . S
N501 H504 0.984 . S
N501 H505 0.985 . S
H502 N497 0.984 . S
H503 N497 0.985 . S
H504 N501 0.984 . S
H505 N501 0.985 . S
H506 N500 0.984 . S
H507 N500 0.984 . S
H508 N496 0.984 1_565 S
H509 N496 0.985 . S
C510 C511 1.363 . S
C510 C516 1.379 . S
C510 N518 1.356 . S
C511 C510 1.363 . S
C511 C517 1.363 . S
C512 C513 1.363 . S
C512 C517 1.379 . S
C512 N519 1.356 . S
C513 C512 1.363 . S
C513 C516 1.363 . S
N514 C516 1.356 . S
N514 H526 0.984 . S
N514 H527 0.985 . S
N515 C517 1.356 . S
N515 H520 0.984 . S
N515 H521 0.985 . S
C516 C510 1.379 . S
C516 C513 1.363 . S
C516 N514 1.356 . S
C517 C511 1.363 . S
C517 C512 1.379 . S
C517 N515 1.356 . S
N518 C510 1.356 . S
N518 H524 0.984 . S
N518 H525 0.984 . S
N519 C512 1.356 . S
N519 H522 0.984 . S
N519 H523 0.985 . S
H520 N515 0.984 . S
H521 N515 0.985 . S
H522 N519 0.984 . S
H523 N519 0.985 . S
H524 N518 0.984 . S
H525 N518 0.984 . S
H526 N514 0.984 . S
H527 N514 0.985 . S
C528 C529 1.363 . S
C528 C534 1.379 . S
C528 N536 1.356 . S
C529 C528 1.363 . S
C529 C535 1.363 . S
C530 C531 1.363 . S
C530 C535 1.379 . S
C530 N537 1.356 . S
C531 C530 1.363 . S
C531 C534 1.363 . S
N532 C534 1.356 . S
N532 H544 0.984 . S
N532 H545 0.985 . S
N533 C535 1.356 . S
N533 H538 0.984 . S
N533 H539 0.985 . S
C534 C528 1.379 . S
C534 C531 1.363 . S
C534 N532 1.356 . S
C535 C529 1.363 . S
C535 C530 1.379 . S
C535 N533 1.356 . S
N536 C528 1.356 . S
N536 H542 0.984 . S
N536 H543 0.984 . S
N537 C530 1.356 . S
N537 H540 0.984 . S
N537 H541 0.985 . S
H538 N533 0.984 . S
H539 N533 0.985 . S
H540 N537 0.984 . S
H541 N537 0.985 . S
H542 N536 0.984 . S
H543 N536 0.984 . S
H544 N532 0.984 . S
H545 N532 0.985 . S
C546 C547 1.363 . S
C546 C552 1.379 . S
C546 N554 1.356 . S
C547 C546 1.363 . S
C547 C553 1.363 . S
C548 C549 1.363 . S
C548 C553 1.379 . S
C548 N555 1.356 . S
C549 C548 1.363 . S
C549 C552 1.363 . S
N550 C552 1.356 . S
N550 H562 0.984 . S
N550 H563 0.985 . S
N551 C553 1.356 1_545 S
N551 H556 0.984 . S
N551 H557 0.985 . S
C552 C546 1.379 . S
C552 C549 1.363 . S
C552 N550 1.356 . S
C553 C547 1.363 . S
C553 C548 1.379 . S
C553 N551 1.356 1_565 S
N554 C546 1.356 . S
N554 H560 0.984 . S
N554 H561 0.984 . S
N555 C548 1.356 . S
N555 H558 0.984 . S
N555 H559 0.985 1_565 S
H556 N551 0.984 . S
H557 N551 0.985 . S
H558 N555 0.984 . S
H559 N555 0.985 1_545 S
H560 N554 0.984 . S
H561 N554 0.984 . S
H562 N550 0.984 . S
H563 N550 0.985 . S
C241 C171 1.237 . S
C243 C7 1.243 . S
C259 C211 1.237 . S
C261 C47 1.243 . S
C277 C11 1.237 . S
C279 C87 1.243 . S
C295 C51 1.237 . S
C297 C127 1.243 . S
C313 C91 1.237 . S
C315 C167 1.243 . S
C331 C131 1.237 . S
C333 C207 1.243 . S
C349 C10 1.313 . S
C351 C130 1.313 . S
C367 C170 1.314 . S
C369 C50 1.314 . S
C385 C210 1.314 . S
C387 C90 1.314 . S
C403 C99 1.551 . S
C405 C219 1.551 . S
C421 C19 1.551 . S
C423 C139 1.551 . S
C439 C179 1.551 . S
C441 C59 1.551 . S
C457 C202 1.428 . S
C459 C16 1.371 . S
C475 C56 1.371 . S
C477 C2 1.428 . S
C493 C96 1.371 . S
C495 C42 1.428 . S
C511 C82 1.428 . S
C513 C136 1.371 . S
C529 C176 1.371 . S
C531 C122 1.428 . S
C547 C216 1.371 . S
C549 C162 1.428 . S
