# Generated by pormake.
# Topology uov, (4)-cn, num edge types: 1
# Building blocks:
#     Node 0, Type 0, BuildingBlock: KUFVIS_clean_sbu_0, # of connection points: 4
#     Node 1, Type 0, BuildingBlock: KUFVIS_clean_sbu_0, # of connection points: 4
#     Node 2, Type 0, BuildingBlock: KUFVIS_clean_sbu_0, # of connection points: 4
#     Node 3, Type 0, BuildingBlock: KUFVIS_clean_sbu_0, # of connection points: 4
#     Node 4, Type 0, BuildingBlock: KUFVIS_clean_sbu_0, # of connection points: 4
#     Node 5, Type 0, BuildingBlock: KUFVIS_clean_sbu_0, # of connection points: 4
#     Node 6, Type 0, BuildingBlock: KUFVIS_clean_sbu_0, # of connection points: 4
#     Node 7, Type 0, BuildingBlock: KUFVIS_clean_sbu_0, # of connection points: 4
#     Edge 8, Type (0, 0), BuildingBlock: XUDNAN_clean_linker_2, # of connection points: 2
#     Edge 9, Type (0, 0), BuildingBlock: XUDNAN_clean_linker_2, # of connection points: 2
#     Edge 10, Type (0, 0), BuildingBlock: XUDNAN_clean_linker_2, # of connection points: 2
#     Edge 11, Type (0, 0), BuildingBlock: XUDNAN_clean_linker_2, # of connection points: 2
#     Edge 12, Type (0, 0), BuildingBlock: XUDNAN_clean_linker_2, # of connection points: 2
#     Edge 13, Type (0, 0), BuildingBlock: XUDNAN_clean_linker_2, # of connection points: 2
#     Edge 14, Type (0, 0), BuildingBlock: XUDNAN_clean_linker_2, # of connection points: 2
#     Edge 15, Type (0, 0), BuildingBlock: XUDNAN_clean_linker_2, # of connection points: 2
#     Edge 16, Type (0, 0), BuildingBlock: XUDNAN_clean_linker_2, # of connection points: 2
#     Edge 17, Type (0, 0), BuildingBlock: XUDNAN_clean_linker_2, # of connection points: 2
#     Edge 18, Type (0, 0), BuildingBlock: XUDNAN_clean_linker_2, # of connection points: 2
#     Edge 19, Type (0, 0), BuildingBlock: XUDNAN_clean_linker_2, # of connection points: 2
#     Edge 20, Type (0, 0), BuildingBlock: XUDNAN_clean_linker_2, # of connection points: 2
#     Edge 21, Type (0, 0), BuildingBlock: XUDNAN_clean_linker_2, # of connection points: 2
#     Edge 22, Type (0, 0), BuildingBlock: XUDNAN_clean_linker_2, # of connection points: 2
#     Edge 23, Type (0, 0), BuildingBlock: XUDNAN_clean_linker_2, # of connection points: 2
# Relax obj value: 0.168
# Max RMSD: 0.184
# Mean RMSD: 0.181
data_MOF--net-uov--node1-KUFVIS_clean_sbu_0--edge1-XUDNAN_clean_linker_2
_symmetry_space_group_name_H-M    P1
_symmetry_Int_Tables_number       1
_symmetry_cell_setting            triclinic
loop_
_symmetry_equiv_pos_as_xyz
'x, y, z'
_cell_length_a     29.071016
_cell_length_b     30.111038
_cell_length_c     42.328374
_cell_angle_alpha  90.043256
_cell_angle_beta   90.081956
_cell_angle_gamma 91.561243
loop_
_atom_site_label
_atom_site_type_symbol
_atom_site_fract_x
_atom_site_fract_y
_atom_site_fract_z
_atom_type_partial_charge
Mn0 Mn 0.06042 0.24529 0.604 0.0
Mn1 Mn 0.969 0.25893 0.65191 0.0
C2 C 0.98785 0.24759 0.58226 0.0
C3 C 0.11334 0.19945 0.58005 0.0
C4 C 0.03098 0.33517 0.62965 0.0
O5 O 0.08674 0.23461 0.64766 0.0
O6 O 0.02273 0.23865 0.67729 0.0
C7 C 0.95265 0.16478 0.66989 0.0
N8 N 0.93694 0.20326 0.65754 0.0
C9 C 0.86027 0.17192 0.6526 0.0
C10 C 0.87549 0.13212 0.66566 0.0
C11 C 0.92199 0.12842 0.67408 0.0
C12 C 0.89258 0.20676 0.64854 0.0
H13 H 0.98827 0.1619 0.67648 0.0
C14 C 0.06576 0.23174 0.67396 0.0
O15 O 0.12293 0.24125 0.58493 0.0
O16 O 0.07398 0.18397 0.59016 0.0
N17 N 0.91415 0.27768 0.63134 0.0
C18 C 0.90539 0.31767 0.61782 0.0
C19 C 0.86104 0.32579 0.60641 0.0
C20 C 0.82583 0.29328 0.60981 0.0
C21 C 0.83539 0.2528 0.62444 0.0
C22 C 0.88047 0.24621 0.63475 0.0
H23 H 0.93209 0.34308 0.61555 0.0
O24 O 0.02434 0.25368 0.56506 0.0
O25 O 0.99471 0.23745 0.61188 0.0
O26 O 0.0575 0.31201 0.61265 0.0
O27 O 0.99862 0.3185 0.64669 0.0
C28 C 0.80192 0.21878 0.6293 0.0
C29 C 0.81434 0.17838 0.64341 0.0
H30 H 0.85185 0.10412 0.66914 0.0
H31 H 0.9341 0.09772 0.68397 0.0
H32 H 0.85389 0.3572 0.59527 0.0
H33 H 0.79157 0.2998 0.60119 0.0
H34 H 0.76666 0.22308 0.62186 0.0
H35 H 0.78845 0.1522 0.64655 0.0
Mn36 Mn 0.25646 0.9235 0.40557 0.0
Mn37 Mn 0.30301 0.82514 0.38943 0.0
C38 C 0.22736 0.85904 0.42936 0.0
C39 C 0.25191 0.98783 0.4358 0.0
C40 C 0.23965 0.87186 0.34406 0.0
O41 O 0.31885 0.94198 0.38727 0.0
O42 O 0.3482 0.87417 0.38005 0.0
C43 C 0.37471 0.82695 0.43925 0.0
N44 N 0.33712 0.80687 0.4256 0.0
C45 C 0.33651 0.74829 0.46426 0.0
C46 C 0.37533 0.76824 0.47865 0.0
C47 C 0.39442 0.80781 0.46614 0.0
C48 C 0.31805 0.76917 0.43775 0.0
H49 H 0.38948 0.8574 0.42976 0.0
C50 C 0.3516 0.91673 0.37953 0.0
O51 O 0.23541 0.98585 0.40731 0.0
O52 O 0.27265 0.95324 0.44628 0.0
N53 N 0.26319 0.77498 0.39799 0.0
C54 C 0.22685 0.75908 0.38057 0.0
C55 C 0.20538 0.71843 0.38885 0.0
C56 C 0.2216 0.69448 0.41484 0.0
C57 C 0.25892 0.71155 0.43249 0.0
C58 C 0.27947 0.75184 0.42276 0.0
H59 H 0.21464 0.77692 0.36025 0.0
O60 O 0.20221 0.89364 0.42596 0.0
O61 O 0.26859 0.8632 0.41782 0.0
O62 O 0.23245 0.90476 0.36216 0.0
O63 O 0.26678 0.84076 0.35133 0.0
C64 C 0.27698 0.68985 0.45905 0.0
C65 C 0.3155 0.70841 0.4751 0.0
H66 H 0.39079 0.75346 0.49929 0.0
H67 H 0.42431 0.82347 0.47715 0.0
H68 H 0.17661 0.70545 0.37511 0.0
H69 H 0.20525 0.6629 0.42092 0.0
H70 H 0.26154 0.65884 0.46731 0.0
H71 H 0.32901 0.69149 0.49554 0.0
Mn72 Mn 0.94424 0.74247 0.59618 0.0
Mn73 Mn 0.02651 0.73509 0.65222 0.0
C74 C 0.02037 0.74984 0.58156 0.0
C75 C 0.89234 0.78377 0.56732 0.0
C76 C 0.97639 0.655 0.62372 0.0
O77 O 0.90867 0.7492 0.63709 0.0
O78 O 0.96695 0.75104 0.67218 0.0
C79 C 0.03247 0.82897 0.67314 0.0
N80 N 0.05324 0.7922 0.66184 0.0
C81 C 0.12749 0.82951 0.66268 0.0
C82 C 0.10698 0.86757 0.67475 0.0
C83 C 0.05925 0.86732 0.67992 0.0
C84 C 0.09916 0.79202 0.65684 0.0
H85 H 0.99576 0.82909 0.67686 0.0
C86 C 0.92434 0.75474 0.66501 0.0
O87 O 0.88683 0.74106 0.57041 0.0
O88 O 0.92652 0.8027 0.58233 0.0
N89 N 0.08599 0.72106 0.63632 0.0
C90 C 0.09949 0.68354 0.6213 0.0
C91 C 0.14574 0.67962 0.61248 0.0
C92 C 0.17768 0.71413 0.61937 0.0
C93 C 0.16302 0.75236 0.63491 0.0
C94 C 0.11653 0.75431 0.6433 0.0
H95 H 0.07512 0.65696 0.61583 0.0
O96 O 0.98852 0.73986 0.5611 0.0
O97 O 0.00658 0.75687 0.6105 0.0
O98 O 0.95244 0.67618 0.60384 0.0
O99 O 0.00285 0.67386 0.64405 0.0
C100 C 0.1924 0.78924 0.64141 0.0
C101 C 0.17465 0.82776 0.65531 0.0
H102 H 0.12744 0.89739 0.67967 0.0
H103 H 0.0431 0.89669 0.68895 0.0
H104 H 0.15672 0.65013 0.60032 0.0
H105 H 0.21323 0.71116 0.61223 0.0
H106 H 0.22851 0.78867 0.6352 0.0
H107 H 0.19741 0.85622 0.65961 0.0
Mn108 Mn 0.75332 0.07654 0.40275 0.0
Mn109 Mn 0.6872 0.16656 0.40446 0.0
C110 C 0.7813 0.14041 0.42687 0.0
C111 C 0.77203 0.00945 0.42604 0.0
C112 C 0.74193 0.13945 0.34677 0.0
O113 O 0.69039 0.05213 0.39012 0.0
O114 O 0.64767 0.11261 0.39597 0.0
C115 C 0.63674 0.14244 0.46296 0.0
N116 N 0.66438 0.17155 0.44663 0.0
C117 C 0.67162 0.22 0.49171 0.0
C118 C 0.643 0.19069 0.50894 0.0
C119 C 0.62553 0.15172 0.49451 0.0
C120 C 0.68185 0.20884 0.46043 0.0
H121 H 0.6236 0.11222 0.45209 0.0
C122 C 0.65192 0.0713 0.38978 0.0
O123 O 0.78006 0.01662 0.39623 0.0
O124 O 0.75252 0.04056 0.4418 0.0
N125 N 0.71944 0.2216 0.41266 0.0
C126 C 0.74265 0.24837 0.39179 0.0
C127 C 0.76038 0.28987 0.40192 0.0
C128 C 0.75344 0.30369 0.43323 0.0
C129 C 0.7277 0.27641 0.45386 0.0
C130 C 0.71024 0.23577 0.44225 0.0
H131 H 0.74777 0.23809 0.36764 0.0
O132 O 0.80892 0.10948 0.41844 0.0
O133 O 0.73772 0.13213 0.42166 0.0
O134 O 0.76081 0.10596 0.35946 0.0
O135 O 0.7123 0.16334 0.36081 0.0
C136 C 0.71808 0.28824 0.48533 0.0
C137 C 0.69035 0.25989 0.50432 0.0
H138 H 0.63421 0.19777 0.53326 0.0
H139 H 0.60357 0.12884 0.50769 0.0
H140 H 0.7795 0.31107 0.38568 0.0
H141 H 0.76749 0.33553 0.44104 0.0
H142 H 0.73159 0.31921 0.49509 0.0
H143 H 0.68316 0.26935 0.52848 0.0
Mn144 Mn 0.95476 0.26103 0.09762 0.0
Mn145 Mn 0.02817 0.25549 0.15902 0.0
C146 C 0.03249 0.25208 0.08862 0.0
C147 C 0.90827 0.22479 0.06028 0.0
C148 C 0.98615 0.34121 0.13672 0.0
O149 O 0.91204 0.24707 0.13483 0.0
O150 O 0.96489 0.23869 0.17348 0.0
C151 C 0.02417 0.15889 0.17207 0.0
N152 N 0.04904 0.19633 0.16443 0.0
C153 C 0.11919 0.1558 0.16232 0.0
C154 C 0.09437 0.1169 0.17045 0.0
C155 C 0.04666 0.11847 0.17533 0.0
C156 C 0.09506 0.1953 0.15998 0.0
H157 H 0.98742 0.15981 0.17548 0.0
C158 C 0.92325 0.23751 0.16324 0.0
O159 O 0.90245 0.26643 0.06687 0.0
O160 O 0.93824 0.20402 0.07687 0.0
N161 N 0.09026 0.27018 0.14716 0.0
C162 C 0.10818 0.30957 0.13631 0.0
C163 C 0.15501 0.31295 0.12835 0.0
C164 C 0.18289 0.27585 0.13159 0.0
C165 C 0.16364 0.23565 0.14274 0.0
C166 C 0.11683 0.23434 0.15055 0.0
H167 H 0.0868 0.33805 0.13343 0.0
O168 O 0.00658 0.26895 0.06703 0.0
O169 O 0.0121 0.2422 0.11513 0.0
O170 O 0.96431 0.32521 0.11297 0.0
O171 O 0.00974 0.31791 0.15563 0.0
C172 C 0.18879 0.1965 0.14555 0.0
C173 C 0.16661 0.15663 0.15542 0.0
H174 H 0.11148 0.08552 0.17254 0.0
H175 H 0.02721 0.08851 0.18136 0.0
H176 H 0.16953 0.34401 0.11953 0.0
H177 H 0.21888 0.27847 0.12509 0.0
H178 H 0.22504 0.1965 0.13967 0.0
H179 H 0.18614 0.12658 0.15696 0.0
Mn180 Mn 0.26435 0.05916 0.90948 0.0
Mn181 Mn 0.24572 0.98086 0.85392 0.0
C182 C 0.26159 0.98488 0.92336 0.0
C183 C 0.23412 0.10648 0.94706 0.0
C184 C 0.33801 0.02875 0.86392 0.0
O185 O 0.24085 0.0947 0.87198 0.0
O186 O 0.22273 0.03872 0.83825 0.0
C187 C 0.14382 0.97725 0.85518 0.0
N188 N 0.18462 0.95653 0.8584 0.0
C189 C 0.14584 0.88702 0.87053 0.0
C190 C 0.10341 0.90744 0.86673 0.0
C191 C 0.10242 0.95282 0.8592 0.0
C192 C 0.18597 0.91303 0.86611 0.0
H193 H 0.14287 0.01221 0.84977 0.0
C194 C 0.22378 0.07993 0.84605 0.0
O195 O 0.27518 0.11401 0.9358 0.0
O196 O 0.21024 0.07374 0.93509 0.0
N197 N 0.26559 0.92341 0.86661 0.0
C198 C 0.30928 0.90911 0.87065 0.0
C199 C 0.31622 0.86485 0.8795 0.0
C200 C 0.27823 0.83572 0.88395 0.0
C201 C 0.23361 0.85108 0.87937 0.0
C202 C 0.22882 0.89547 0.87041 0.0
H203 H 0.33865 0.93132 0.86736 0.0
O204 O 0.28134 0.01407 0.94175 0.0
O205 O 0.24349 1.00041 0.89771 0.0
O206 O 0.3264 0.0517 0.88783 0.0
O207 O 0.31015 0.00317 0.84851 0.0
C208 C 0.19371 0.82416 0.88359 0.0
C209 C 0.14987 0.84206 0.879 0.0
H210 H 0.07141 0.88874 0.86999 0.0
H211 H 0.06981 0.96896 0.85662 0.0
H212 H 0.35077 0.85326 0.88299 0.0
H213 H 0.28372 0.80169 0.89096 0.0
H214 H 0.19633 0.78969 0.89051 0.0
H215 H 0.11943 0.82109 0.88248 0.0
Mn216 Mn 0.04891 0.74191 0.09408 0.0
Mn217 Mn 0.95561 0.75095 0.14007 0.0
C218 C 0.97614 0.74089 0.07163 0.0
C219 C 0.10611 0.77762 0.06432 0.0
C220 C 0.0097 0.66639 0.13404 0.0
O221 O 0.07575 0.76403 0.13622 0.0
O222 O 0.00997 0.77829 0.1622 0.0
C223 C 0.94766 0.84877 0.13826 0.0
N224 N 0.92886 0.80748 0.13314 0.0
C225 C 0.8589 0.83819 0.11336 0.0
C226 C 0.87703 0.88101 0.11931 0.0
C227 C 0.92176 0.88631 0.13157 0.0
C228 C 0.88624 0.80203 0.12067 0.0
H229 H 0.98229 0.853 0.14705 0.0
C230 C 0.054 0.77953 0.15984 0.0
O231 O 0.11161 0.73748 0.07476 0.0
O232 O 0.06896 0.79723 0.07263 0.0
N233 N 0.90081 0.72643 0.1209 0.0
C234 C 0.88898 0.68298 0.11544 0.0
C235 C 0.84587 0.67205 0.10212 0.0
C236 C 0.81532 0.70582 0.09465 0.0
C237 C 0.82806 0.75025 0.10075 0.0
C238 C 0.87129 0.75911 0.11435 0.0
H239 H 0.91222 0.65681 0.12111 0.0
O240 O 0.01067 0.72547 0.05614 0.0
O241 O 0.98584 0.75684 0.09936 0.0
O242 O 0.0373 0.68004 0.11251 0.0
O243 O 0.98026 0.69097 0.14749 0.0
C244 C 0.79974 0.7861 0.09355 0.0
C245 C 0.81512 0.83003 0.0999 0.0
H246 H 0.85726 0.91006 0.11399 0.0
H247 H 0.93634 0.91927 0.13566 0.0
H248 H 0.83629 0.63767 0.0975 0.0
H249 H 0.78226 0.69729 0.08413 0.0
H250 H 0.7662 0.78028 0.08292 0.0
H251 H 0.7932 0.85735 0.09401 0.0
Mn252 Mn 0.7489 0.95134 0.89389 0.0
Mn253 Mn 0.76677 0.0307 0.83887 0.0
C254 C 0.76662 0.02337 0.90938 0.0
C255 C 0.77854 0.89611 0.92578 0.0
C256 C 0.672 0.99346 0.85633 0.0
O257 O 0.75963 0.91597 0.85367 0.0
O258 O 0.77774 0.97144 0.81949 0.0
C259 C 0.86673 0.02241 0.82781 0.0
N260 N 0.83062 0.0474 0.83677 0.0
C261 C 0.88068 0.11107 0.84606 0.0
C262 C 0.91835 0.08608 0.83673 0.0
C263 C 0.91132 0.04156 0.82757 0.0
C264 C 0.83692 0.09042 0.84532 0.0
H265 H 0.86156 0.9881 0.82096 0.0
C266 C 0.77279 0.9302 0.82667 0.0
O267 O 0.73505 0.89581 0.91855 0.0
O268 O 0.80452 0.92719 0.91361 0.0
N269 N 0.7582 0.08912 0.8554 0.0
C270 C 0.71894 0.10734 0.86645 0.0
C271 C 0.72053 0.15095 0.87826 0.0
C272 C 0.76239 0.17537 0.87856 0.0
C273 C 0.80232 0.15594 0.86704 0.0
C274 C 0.7986 0.11245 0.85536 0.0
H275 H 0.68678 0.08857 0.86662 0.0
O276 O 0.74588 0.99602 0.92868 0.0
O277 O 0.77588 0.00755 0.88156 0.0
O278 O 0.68484 0.96805 0.87858 0.0
O279 O 0.69981 0.01678 0.83939 0.0
C280 C 0.8459 0.17759 0.86752 0.0
C281 C 0.88502 0.15522 0.85694 0.0
H282 H 0.95287 0.10057 0.83686 0.0
H283 H 0.94024 0.02198 0.82051 0.0
H284 H 0.68964 0.16559 0.88734 0.0
H285 H 0.76357 0.2088 0.88804 0.0
H286 H 0.84983 0.2112 0.87645 0.0
H287 H 0.91844 0.172 0.85786 0.0
H288 H 0.97773 0.58917 0.66901 0.0
H289 H 0.98749 0.61282 0.56814 0.0
H290 H 0.00801 0.53472 0.55971 0.0
H291 H 0.06882 0.51352 0.67651 0.0
H292 H 0.03959 0.4768 0.70397 0.0
H293 H 0.02575 0.53473 0.7027 0.0
H294 H 0.93981 0.51397 0.69291 0.0
H295 H 0.95325 0.45599 0.69485 0.0
H296 H 0.92429 0.47741 0.66064 0.0
H297 H 0.03416 0.45684 0.56256 0.0
H298 H 0.04771 0.37823 0.57461 0.0
H299 H 0.01278 0.40121 0.67282 0.0
C300 C 0.98345 0.57752 0.64516 0.0
C301 C 0.98082 0.60677 0.61916 0.0
C302 C 0.98865 0.59066 0.58827 0.0
C303 C 0.00086 0.54655 0.5833 0.0
C304 C 0.00411 0.51872 0.60941 0.0
C305 C 0.99424 0.53303 0.63962 0.0
C306 C 0.99784 0.49531 0.66321 0.0
C307 C 0.03523 0.50573 0.68806 0.0
C308 C 0.95101 0.48506 0.67882 0.0
C309 C 0.01185 0.45786 0.64153 0.0
C310 C 0.01628 0.47254 0.61074 0.0
C311 C 0.03036 0.44477 0.58652 0.0
C312 C 0.03852 0.40029 0.59368 0.0
C313 C 0.0316 0.38373 0.62467 0.0
C314 C 0.01856 0.41309 0.64897 0.0
H315 H 0.56142 0.09013 0.40206 0.0
H316 H 0.64794 0.99063 0.36012 0.0
H317 H 0.57912 0.94402 0.34824 0.0
H318 H 0.48511 0.01408 0.43986 0.0
H319 H 0.43443 0.04611 0.43353 0.0
H320 H 0.49002 0.07367 0.43616 0.0
H321 H 0.47687 0.11003 0.38153 0.0
H322 H 0.42126 0.08233 0.37868 0.0
H323 H 0.46321 0.07535 0.34788 0.0
H324 H 0.50238 0.90616 0.34368 0.0
H325 H 0.4227 0.87748 0.3492 0.0
H326 H 0.38499 0.00072 0.39451 0.0
C327 C 0.56583 0.05885 0.38994 0.0
C328 C 0.61015 0.04419 0.38187 0.0
C329 C 0.61444 0.00262 0.36657 0.0
C330 C 0.57551 0.97598 0.35954 0.0
C331 C 0.53245 0.99125 0.36798 0.0
C332 C 0.52729 0.03159 0.38295 0.0
C333 C 0.47732 0.03866 0.39141 0.0
C334 C 0.47139 0.04339 0.42737 0.0
C335 C 0.45857 0.07899 0.37381 0.0
C336 C 0.45539 0.99562 0.37932 0.0
C337 C 0.48782 0.96905 0.36558 0.0
C338 C 0.47656 0.92681 0.35411 0.0
C339 C 0.43114 0.91081 0.35739 0.0
C340 C 0.39742 0.93689 0.37213 0.0
C341 C 0.40968 0.98026 0.38262 0.0
H342 H 0.99531 0.40797 0.09326 0.0
H343 H 0.97834 0.3827 0.19344 0.0
H344 H 0.98284 0.46355 0.20406 0.0
H345 H 0.0797 0.49553 0.10276 0.0
H346 H 0.05961 0.52775 0.06989 0.0
H347 H 0.05152 0.46824 0.06981 0.0
H348 H 0.96373 0.47655 0.06188 0.0
H349 H 0.97164 0.53608 0.06159 0.0
H350 H 0.93207 0.51012 0.08912 0.0
H351 H 0.98718 0.54731 0.20341 0.0
H352 H 0.99576 0.62779 0.19181 0.0
H353 H 0.01756 0.5976 0.09287 0.0
C354 C 0.99179 0.41964 0.11733 0.0
C355 C 0.98575 0.38943 0.14253 0.0
C356 C 0.98263 0.40558 0.17385 0.0
C357 C 0.98516 0.45132 0.18008 0.0
C358 C 0.99174 0.48034 0.15477 0.0
C359 C 0.99542 0.46515 0.12404 0.0
C360 C 0.00489 0.50314 0.10134 0.0
C361 C 0.05172 0.49836 0.08499 0.0
C362 C 0.96574 0.50667 0.07706 0.0
C363 C 0.00566 0.54203 0.12405 0.0
C364 C 0.99745 0.52826 0.15471 0.0
C365 C 0.99422 0.55847 0.17956 0.0
C366 C 0.99919 0.60398 0.17282 0.0
C367 C 0.00826 0.61862 0.14164 0.0
C368 C 0.0119 0.58716 0.11708 0.0
H369 H 0.41007 0.02531 0.90465 0.0
H370 H 0.37634 0.02704 0.8049 0.0
H371 H 0.45889 0.01935 0.79177 0.0
H372 H 0.5209 0.0836 0.90078 0.0
H373 H 0.5466 0.04868 0.93012 0.0
H374 H 0.48574 0.05828 0.93123 0.0
H375 H 0.46913 0.97329 0.92994 0.0
H376 H 0.5299 0.96342 0.92852 0.0
H377 H 0.49234 0.94061 0.89834 0.0
H378 H 0.54563 0.0127 0.78999 0.0
H379 H 0.62871 0.00199 0.7995 0.0
H380 H 0.60369 0.99691 0.90039 0.0
C381 C 0.42027 0.02502 0.88005 0.0
C382 C 0.38724 0.02779 0.8557 0.0
C383 C 0.40142 0.02558 0.8238 0.0
C384 C 0.4481 0.02119 0.81618 0.0
C385 C 0.47983 0.01806 0.84079 0.0
C386 C 0.46641 0.01945 0.87209 0.0
C387 C 0.50663 0.01228 0.89411 0.0
C388 C 0.51548 0.05315 0.9153 0.0
C389 C 0.49903 0.96988 0.91388 0.0
C390 C 0.54494 0.00695 0.87036 0.0
C391 C 0.52895 0.01099 0.83974 0.0
C392 C 0.55842 0.00906 0.81385 0.0
C393 C 0.60545 0.00298 0.81944 0.0
C394 C 0.62228 0.99797 0.8506 0.0
C395 C 0.59151 0.99972 0.8763 0.0
H396 H 0.16921 0.02419 0.44583 0.0
H397 H 0.3121 0.03279 0.47477 0.0
H398 H 0.29325 0.09113 0.51385 0.0
H399 H 0.14006 0.14024 0.45685 0.0
H400 H 0.08403 0.1263 0.47275 0.0
H401 H 0.11022 0.0898 0.44469 0.0
H402 H 0.10099 0.02456 0.4843 0.0
H403 H 0.07517 0.06091 0.51258 0.0
H404 H 0.12514 0.03017 0.5234 0.0
H405 H 0.25758 0.14948 0.5495 0.0
H406 H 0.2074 0.19644 0.58236 0.0
H407 H 0.08726 0.14111 0.53431 0.0
C408 C 0.19663 0.03925 0.45989 0.0
C409 C 0.24226 0.02522 0.4569 0.0
C410 C 0.27709 0.04397 0.47651 0.0
C411 C 0.26666 0.07699 0.49868 0.0
C412 C 0.22104 0.0898 0.5014 0.0
C413 C 0.18652 0.07099 0.48279 0.0
C414 C 0.13969 0.0871 0.4923 0.0
C415 C 0.11719 0.11237 0.46502 0.0
C416 C 0.10843 0.04838 0.50383 0.0
C417 C 0.15311 0.11802 0.51913 0.0
C418 C 0.20023 0.11993 0.52367 0.0
C419 C 0.22062 0.14783 0.54636 0.0
C420 C 0.19201 0.17431 0.56488 0.0
C421 C 0.14368 0.17157 0.56112 0.0
C422 C 0.12414 0.14301 0.53804 0.0
H423 H 0.17602 0.78146 0.43586 0.0
H424 H 0.25444 0.88168 0.48755 0.0
H425 H 0.21854 0.85608 0.53722 0.0
H426 H 0.07888 0.78363 0.47102 0.0
H427 H 0.06441 0.72526 0.47468 0.0
H428 H 0.10342 0.7439 0.4444 0.0
H429 H 0.16274 0.69009 0.46506 0.0
H430 H 0.12678 0.67196 0.49722 0.0
H431 H 0.18386 0.69432 0.50501 0.0
H432 H 0.15252 0.84045 0.57348 0.0
H433 H 0.07917 0.81818 0.59894 0.0
H434 H 0.06043 0.71153 0.53165 0.0
C435 C 0.18825 0.79553 0.4579 0.0
C436 C 0.21872 0.83273 0.45807 0.0
C437 C 0.23187 0.85246 0.48715 0.0
C438 C 0.2116 0.83821 0.51547 0.0
C439 C 0.18011 0.80259 0.51448 0.0
C440 C 0.17066 0.77958 0.48676 0.0
C441 C 0.13343 0.74413 0.49207 0.0
C442 C 0.09265 0.74962 0.4692 0.0
C443 C 0.15296 0.69739 0.48973 0.0
C444 C 0.12022 0.7542 0.52583 0.0
C445 C 0.14718 0.78836 0.53833 0.0
C446 C 0.13379 0.81098 0.56548 0.0
C447 C 0.09254 0.79764 0.58034 0.0
C448 C 0.06701 0.7601 0.56952 0.0
C449 C 0.08134 0.73816 0.54193 0.0
H450 H 0.80523 0.00369 0.48556 0.0
H451 H 0.77086 0.92417 0.40303 0.0
H452 H 0.79162 0.85603 0.43227 0.0
H453 H 0.90514 0.94356 0.50604 0.0
H454 H 0.89706 0.95001 0.54799 0.0
H455 H 0.8761 0.99124 0.5212 0.0
H456 H 0.79443 0.98096 0.54494 0.0
H457 H 0.81498 0.9393 0.57161 0.0
H458 H 0.76727 0.92642 0.54563 0.0
H459 H 0.81451 0.79675 0.47163 0.0
H460 H 0.84948 0.75239 0.51411 0.0
H461 H 0.87509 0.87248 0.56869 0.0
C462 C 0.80179 0.97184 0.47374 0.0
C463 C 0.78597 0.96877 0.44228 0.0
C464 C 0.78287 0.9269 0.4272 0.0
C465 C 0.79424 0.88817 0.44369 0.0
C466 C 0.80939 0.89229 0.47492 0.0
C467 C 0.81407 0.93323 0.48952 0.0
C468 C 0.83458 0.92934 0.52224 0.0
C469 C 0.88097 0.95505 0.52448 0.0
C470 C 0.80079 0.94493 0.5476 0.0
C471 C 0.8408 0.8797 0.5239 0.0
C472 C 0.82516 0.85876 0.49668 0.0
C473 C 0.82702 0.81284 0.49296 0.0
C474 C 0.84661 0.7879 0.51729 0.0
C475 C 0.8649 0.8091 0.5446 0.0
C476 C 0.86131 0.85547 0.54805 0.0
H477 H 0.78946 0.12439 0.48875 0.0
H478 H 0.8221 0.22168 0.41704 0.0
H479 H 0.85942 0.27038 0.45703 0.0
H480 H 0.78942 0.19277 0.56322 0.0
H481 H 0.82313 0.1509 0.58241 0.0
H482 H 0.7834 0.13533 0.55155 0.0
H483 H 0.85206 0.0977 0.52354 0.0
H484 H 0.89097 0.11665 0.55398 0.0
H485 H 0.90228 0.1311 0.51336 0.0
H486 H 0.89981 0.30424 0.50268 0.0
H487 H 0.96001 0.31171 0.54344 0.0
H488 H 0.9181 0.18398 0.58235 0.0
C489 C 0.8021 0.15727 0.48213 0.0
C490 C 0.79799 0.17224 0.45074 0.0
C491 C 0.8201 0.21245 0.44168 0.0
C492 C 0.84201 0.23983 0.46425 0.0
C493 C 0.8447 0.22465 0.49533 0.0
C494 C 0.82728 0.18322 0.50385 0.0
C495 C 0.84684 0.16851 0.53524 0.0
C496 C 0.80835 0.1616 0.55959 0.0
C497 C 0.87469 0.12601 0.53126 0.0
C498 C 0.87784 0.20833 0.54331 0.0
C499 C 0.87449 0.24097 0.52045 0.0
C500 C 0.90238 0.27925 0.5209 0.0
C501 C 0.93638 0.28325 0.54418 0.0
C502 C 0.94283 0.24892 0.56638 0.0
C503 C 0.91241 0.21154 0.56653 0.0
H504 H 0.73478 0.08592 0.95043 0.0
H505 H 0.85678 0.04326 0.90175 0.0
H506 H 0.90322 0.10095 0.92911 0.0
H507 H 0.7696 0.20807 0.95754 0.0
H508 H 0.74605 0.21154 0.99683 0.0
H509 H 0.72022 0.17392 0.96829 0.0
H510 H 0.72998 0.10858 0.00728 0.0
H511 H 0.75614 0.14571 0.03578 0.0
H512 H 0.78635 0.09752 0.02275 0.0
H513 H 0.93832 0.15297 0.96663 0.0
H514 H 0.96139 0.19598 0.01379 0.0
H515 H 0.81843 0.20585 0.04121 0.0
C516 C 0.77094 0.09017 0.94477 0.0
C517 C 0.79188 0.06211 0.92257 0.0
C518 C 0.83972 0.06636 0.91713 0.0
C519 C 0.8664 0.09879 0.93279 0.0
C520 C 0.8449 0.12613 0.95446 0.0
C521 C 0.79828 0.12224 0.96062 0.0
C522 C 0.78523 0.15173 0.98817 0.0
C523 C 0.75338 0.18851 0.97705 0.0
C524 C 0.76314 0.12423 0.01507 0.0
C525 C 0.8322 0.17078 0.9976 0.0
C526 C 0.8658 0.15615 0.97723 0.0
C527 C 0.91232 0.16548 0.98233 0.0
C528 C 0.92509 0.18972 0.00921 0.0
C529 C 0.89159 0.20448 0.03068 0.0
C530 C 0.84444 0.19576 0.0246 0.0
H531 H 0.21639 0.19472 0.95928 0.0
H532 H 0.21304 0.06266 0.99992 0.0
H533 H 0.17342 0.09065 0.04688 0.0
H534 H 0.22501 0.25817 0.03849 0.0
H535 H 0.18746 0.30043 0.02428 0.0
H536 H 0.22541 0.27312 0.99724 0.0
H537 H 0.15553 0.25096 0.96193 0.0
H538 H 0.11759 0.27793 0.98887 0.0
H539 H 0.10765 0.2202 0.97904 0.0
H540 H 0.11894 0.12587 0.08105 0.0
H541 H 0.05642 0.16879 0.10338 0.0
H542 H 0.09716 0.28198 0.04606 0.0
C543 C 0.20894 0.17245 0.97879 0.0
C544 C 0.21817 0.12678 0.97647 0.0
C545 C 0.20651 0.09786 1.00164 0.0
C546 C 0.18423 0.11348 0.02843 0.0
C547 C 0.17389 0.15827 0.02977 0.0
C548 C 0.18623 0.18767 0.0059 0.0
C549 C 0.16536 0.2327 0.01164 0.0
C550 C 0.20307 0.26821 0.01831 0.0
C551 C 0.13472 0.2462 0.98372 0.0
C552 C 0.13709 0.22289 0.0411 0.0
C553 C 0.14331 0.17989 0.05135 0.0
C554 C 0.11566 0.1604 0.07459 0.0
C555 C 0.08059 0.1853 0.08761 0.0
C556 C 0.07455 0.22989 0.07854 0.0
C557 C 0.10315 0.24889 0.05489 0.0
H558 H 0.08588 0.84371 0.02384 0.0
H559 H 0.19748 0.76033 0.05317 0.0
H560 H 0.24933 0.79918 0.01489 0.0
H561 H 0.11404 0.84675 0.94136 0.0
H562 H 0.09853 0.90396 0.93619 0.0
H563 H 0.0698 0.86994 0.96548 0.0
H564 H 0.09163 0.92538 0.00969 0.0
H565 H 0.11872 0.96114 0.98082 0.0
H566 H 0.15092 0.94317 0.01468 0.0
H567 H 0.29053 0.85503 0.97851 0.0
H568 H 0.31589 0.9191 0.94536 0.0
H569 H 0.17457 0.9584 0.93575 0.0
C570 C 0.12123 0.83345 0.02224 0.0
C571 C 0.13794 0.79937 0.04164 0.0
C572 C 0.18416 0.78652 0.03852 0.0
C573 C 0.2137 0.8083 0.01682 0.0
C574 C 0.19598 0.84199 0.99806 0.0
C575 C 0.15063 0.85408 1.00045 0.0
C576 C 0.1398 0.89181 0.97839 0.0
C577 C 0.10341 0.87724 0.95386 0.0
C578 C 0.12439 0.93278 0.99701 0.0
C579 C 0.18643 0.89985 0.96341 0.0
C580 C 0.21864 0.87114 0.97523 0.0
C581 C 0.26538 0.87663 0.96827 0.0
C582 C 0.2795 0.9129 0.94943 0.0
C583 C 0.24682 0.94209 0.93702 0.0
C584 C 0.19978 0.93499 0.94366 0.0
H585 H 0.84817 0.91367 0.96647 0.0
H586 H 0.75247 0.80884 0.93685 0.0
H587 H 0.78936 0.75686 0.97418 0.0
H588 H 0.94638 0.84802 0.97528 0.0
H589 H 0.9675 0.87786 0.0095 0.0
H590 H 0.93291 0.9056 0.98073 0.0
H591 H 0.87695 0.92748 0.02479 0.0
H592 H 0.90972 0.8985 0.05401 0.0
H593 H 0.84931 0.88513 0.04858 0.0
H594 H 0.8455 0.71465 0.00935 0.0
H595 H 0.90815 0.68886 0.04435 0.0
H596 H 0.95763 0.82464 0.05611 0.0
C597 C 0.83484 0.87978 0.96791 0.0
C598 C 0.79793 0.8649 0.94867 0.0
C599 C 0.78086 0.82065 0.95146 0.0
C600 C 0.80162 0.79103 0.97252 0.0
C601 C 0.83841 0.80678 0.99103 0.0
C602 C 0.85423 0.85041 0.98923 0.0
C603 C 0.89399 0.85959 0.0115 0.0
C604 C 0.93776 0.87357 0.99315 0.0
C605 C 0.88175 0.89472 0.03622 0.0
C606 C 0.8985 0.8142 0.02613 0.0
C607 C 0.86693 0.78377 0.01359 0.0
C608 C 0.86921 0.73844 0.0202 0.0
C609 C 0.90467 0.72405 0.04005 0.0
C610 C 0.93583 0.75517 0.05392 0.0
C611 C 0.93253 0.80064 0.04697 0.0
H612 H 0.05138 0.15918 0.71174 0.0
H613 H 0.14187 0.27416 0.69799 0.0
H614 H 0.18951 0.25081 0.74341 0.0
H615 H 0.05855 0.15239 0.79792 0.0
H616 H 0.05965 0.09257 0.79795 0.0
H617 H 0.03001 0.12112 0.76691 0.0
H618 H 0.07875 0.08091 0.72502 0.0
H619 H 0.10852 0.0523 0.7559 0.0
H620 H 0.14067 0.08481 0.72733 0.0
H621 H 0.22714 0.21424 0.79059 0.0
H622 H 0.25706 0.16318 0.83121 0.0
H623 H 0.14647 0.0684 0.80971 0.0
C624 C 0.08068 0.17983 0.71873 0.0
C625 C 0.0926 0.21892 0.70194 0.0
C626 C 0.13207 0.24438 0.71095 0.0
C627 C 0.15915 0.23143 0.73671 0.0
C628 C 0.1467 0.19246 0.75274 0.0
C629 C 0.10873 0.16671 0.7438 0.0
C630 C 0.10518 0.12425 0.76293 0.0
C631 C 0.06071 0.1225 0.78259 0.0
C632 C 0.1085 0.08315 0.74151 0.0
C633 C 0.14727 0.12991 0.78385 0.0
C634 C 0.17018 0.16991 0.77817 0.0
C635 C 0.20957 0.18275 0.79512 0.0
C636 C 0.22624 0.15367 0.81818 0.0
C637 C 0.20423 0.11183 0.82345 0.0
C638 C 0.16418 0.10005 0.80607 0.0
H639 H 0.13499 0.75423 0.18809 0.0
H640 H 0.03119 0.85498 0.19041 0.0
H641 H 0.07195 0.89261 0.23421 0.0
H642 H 0.14441 0.74601 0.27186 0.0
H643 H 0.2054 0.73679 0.27231 0.0
H644 H 0.17142 0.72011 0.23852 0.0
H645 H 0.22496 0.76743 0.20216 0.0
H646 H 0.2591 0.7843 0.23589 0.0
H647 H 0.23459 0.82563 0.21062 0.0
H648 H 0.12156 0.9185 0.27824 0.0
H649 H 0.173 0.92758 0.32393 0.0
H650 H 0.24306 0.80751 0.29712 0.0
C651 C 0.12146 0.78465 0.19753 0.0
C652 C 0.08029 0.80215 0.18546 0.0
C653 C 0.0628 0.84122 0.19901 0.0
C654 C 0.08583 0.86295 0.22387 0.0
C655 C 0.12602 0.84483 0.23542 0.0
C656 C 0.14352 0.80628 0.22309 0.0
C657 C 0.185 0.79191 0.24205 0.0
C658 C 0.176 0.74599 0.25707 0.0
C659 C 0.22849 0.79236 0.22145 0.0
C660 C 0.18768 0.82826 0.26699 0.0
C661 C 0.15372 0.85873 0.26224 0.0
C662 C 0.14839 0.89491 0.28223 0.0
C663 C 0.17797 0.89976 0.30818 0.0
C664 C 0.21231 0.86829 0.31435 0.0
C665 C 0.21743 0.83232 0.2931 0.0
H666 H 0.94688 0.79644 0.7208 0.0
H667 H 0.82977 0.75154 0.66435 0.0
H668 H 0.77741 0.78714 0.70205 0.0
H669 H 0.89165 0.78731 0.79893 0.0
H670 H 0.92015 0.83735 0.81317 0.0
H671 H 0.94772 0.80348 0.78404 0.0
H672 H 0.95625 0.87176 0.74707 0.0
H673 H 0.92845 0.90573 0.77593 0.0
H674 H 0.90585 0.90193 0.73632 0.0
H675 H 0.73808 0.83261 0.74391 0.0
H676 H 0.71566 0.88509 0.78614 0.0
H677 H 0.85862 0.90253 0.8134 0.0
C678 C 0.91019 0.7931 0.71669 0.0
C679 C 0.8925 0.7708 0.68967 0.0
C680 C 0.8442 0.76819 0.68493 0.0
C681 C 0.81416 0.7883 0.70624 0.0
C682 C 0.83288 0.81108 0.73212 0.0
C683 C 0.87981 0.81351 0.73743 0.0
C684 C 0.89156 0.84295 0.7655 0.0
C685 C 0.91409 0.81616 0.79198 0.0
C686 C 0.92233 0.88295 0.7556 0.0
C687 C 0.84398 0.85729 0.7749 0.0
C688 C 0.81048 0.83816 0.75562 0.0
C689 C 0.76399 0.84747 0.75929 0.0
C690 C 0.75154 0.87721 0.7832 0.0
C691 C 0.78551 0.8974 0.80277 0.0
C692 C 0.83214 0.8872 0.79867 0.0
H693 H 0.82734 0.12899 0.32212 0.0
H694 H 0.69446 0.18387 0.30084 0.0
H695 H 0.72477 0.2116 0.24956 0.0
H696 H 0.89247 0.22021 0.29254 0.0
H697 H 0.9385 0.18714 0.27774 0.0
H698 H 0.90484 0.16784 0.31089 0.0
H699 H 0.88489 0.09451 0.28114 0.0
H700 H 0.91863 0.11354 0.2479 0.0
H701 H 0.85917 0.09674 0.24241 0.0
H702 H 0.77131 0.23444 0.20059 0.0
H703 H 0.8307 0.25492 0.16082 0.0
H704 H 0.93331 0.18902 0.21718 0.0
C705 C 0.80426 0.14599 0.30639 0.0
C706 C 0.75829 0.15358 0.31515 0.0
C707 C 0.72968 0.17734 0.2944 0.0
C708 C 0.74658 0.19312 0.26524 0.0
C709 C 0.79233 0.1854 0.25748 0.0
C710 C 0.82079 0.16268 0.27766 0.0
C711 C 0.86949 0.16171 0.26521 0.0
C712 C 0.9033 0.18566 0.28794 0.0
C713 C 0.88387 0.11377 0.25878 0.0
C714 C 0.86414 0.18741 0.23482 0.0
C715 C 0.81935 0.20036 0.23045 0.0
C716 C 0.80648 0.22447 0.20385 0.0
C717 C 0.8404 0.23589 0.18136 0.0
C718 C 0.88672 0.22381 0.18592 0.0
C719 C 0.89834 0.19906 0.213 0.0
loop_
_geom_bond_atom_site_label_1
_geom_bond_atom_site_label_2
_geom_bond_distance
_geom_bond_site_symmetry_2
_ccdc_geom_bond_type
Mn0 O5 2.095 . S
Mn0 O15 2.162 . S
Mn0 O16 2.297 . S
Mn0 O24 2.385 . S
Mn0 O25 2.209 . S
Mn0 O26 2.094 . S
Mn1 O6 2.121 . S
Mn1 N8 2.257 1_455 S
Mn1 N17 2.282 1_455 S
Mn1 O25 2.215 . S
Mn1 O27 2.117 . S
C2 O24 1.234 . S
C2 O25 1.283 . S
C3 O15 1.281 . S
C3 O16 1.236 . S
C4 O26 1.240 . S
C4 O27 1.264 . S
O5 Mn0 2.095 . S
O5 C14 1.250 . S
O6 Mn1 2.121 . S
O6 C14 1.258 . S
C7 N8 1.326 . S
C7 C11 1.460 . S
C7 H13 0.929 . S
N8 Mn1 2.257 1_655 S
N8 C7 1.326 . S
N8 C12 1.362 . S
C9 C10 1.258 . S
C9 C12 1.431 . S
C9 C29 1.449 . S
C10 C9 1.258 . S
C10 C11 1.477 . S
C10 H30 0.931 . S
C11 C7 1.460 . S
C11 C10 1.477 . S
C11 H31 0.930 . S
C12 N8 1.362 . S
C12 C9 1.431 . S
C12 C22 1.476 . S
H13 C7 0.929 . S
C14 O5 1.250 . S
C14 O6 1.258 . S
O15 Mn0 2.162 . S
O15 C3 1.281 . S
O16 Mn0 2.297 . S
O16 C3 1.236 . S
N17 Mn1 2.282 1_655 S
N17 C18 1.328 . S
N17 C22 1.318 . S
C18 N17 1.328 . S
C18 C19 1.457 . S
C18 H23 0.929 . S
C19 C18 1.457 . S
C19 C20 1.291 . S
C19 H32 0.931 . S
C20 C19 1.291 . S
C20 C21 1.373 . S
C20 H33 0.929 . S
C21 C20 1.373 . S
C21 C22 1.396 . S
C21 C28 1.403 . S
C22 C12 1.476 . S
C22 N17 1.318 . S
C22 C21 1.396 . S
H23 C18 0.929 . S
O24 Mn0 2.385 . S
O24 C2 1.234 . S
O25 Mn0 2.209 . S
O25 Mn1 2.215 . S
O25 C2 1.283 . S
O26 Mn0 2.094 . S
O26 C4 1.240 . S
O27 Mn1 2.117 . S
O27 C4 1.264 . S
C28 C21 1.403 . S
C28 C29 1.399 . S
C28 H34 0.929 . S
C29 C9 1.449 . S
C29 C28 1.399 . S
C29 H35 0.930 . S
H30 C10 0.931 . S
H31 C11 0.930 . S
H32 C19 0.931 . S
H33 C20 0.929 . S
H34 C28 0.929 . S
H35 C29 0.930 . S
Mn36 O41 2.095 . S
Mn36 O51 2.162 . S
Mn36 O52 2.297 . S
Mn36 O60 2.385 . S
Mn36 O61 2.209 . S
Mn36 O62 2.094 . S
Mn37 O42 2.121 . S
Mn37 N44 2.257 . S
Mn37 N53 2.282 . S
Mn37 O61 2.215 . S
Mn37 O63 2.117 . S
C38 O60 1.234 . S
C38 O61 1.283 . S
C39 O51 1.281 . S
C39 O52 1.236 . S
C40 O62 1.240 . S
C40 O63 1.264 . S
O41 Mn36 2.095 . S
O41 C50 1.250 . S
O42 Mn37 2.121 . S
O42 C50 1.258 . S
C43 N44 1.326 . S
C43 C47 1.460 . S
C43 H49 0.929 . S
N44 Mn37 2.257 . S
N44 C43 1.326 . S
N44 C48 1.362 . S
C45 C46 1.258 . S
C45 C48 1.431 . S
C45 C65 1.449 . S
C46 C45 1.258 . S
C46 C47 1.477 . S
C46 H66 0.931 . S
C47 C43 1.460 . S
C47 C46 1.477 . S
C47 H67 0.930 . S
C48 N44 1.362 . S
C48 C45 1.431 . S
C48 C58 1.476 . S
H49 C43 0.929 . S
C50 O41 1.250 . S
C50 O42 1.258 . S
O51 Mn36 2.162 . S
O51 C39 1.281 . S
O52 Mn36 2.297 . S
O52 C39 1.236 . S
N53 Mn37 2.282 . S
N53 C54 1.328 . S
N53 C58 1.318 . S
C54 N53 1.328 . S
C54 C55 1.457 . S
C54 H59 0.929 . S
C55 C54 1.457 . S
C55 C56 1.291 . S
C55 H68 0.931 . S
C56 C55 1.291 . S
C56 C57 1.373 . S
C56 H69 0.929 . S
C57 C56 1.373 . S
C57 C58 1.396 . S
C57 C64 1.403 . S
C58 C48 1.476 . S
C58 N53 1.318 . S
C58 C57 1.396 . S
H59 C54 0.929 . S
O60 Mn36 2.385 . S
O60 C38 1.234 . S
O61 Mn36 2.209 . S
O61 Mn37 2.215 . S
O61 C38 1.283 . S
O62 Mn36 2.094 . S
O62 C40 1.240 . S
O63 Mn37 2.117 . S
O63 C40 1.264 . S
C64 C57 1.403 . S
C64 C65 1.399 . S
C64 H70 0.929 . S
C65 C45 1.449 . S
C65 C64 1.399 . S
C65 H71 0.930 . S
H66 C46 0.931 . S
H67 C47 0.930 . S
H68 C55 0.931 . S
H69 C56 0.929 . S
H70 C64 0.929 . S
H71 C65 0.930 . S
Mn72 O77 2.095 . S
Mn72 O87 2.162 . S
Mn72 O88 2.297 . S
Mn72 O96 2.385 . S
Mn72 O97 2.209 . S
Mn72 O98 2.094 . S
Mn73 O78 2.121 . S
Mn73 N80 2.257 1_655 S
Mn73 N89 2.282 1_655 S
Mn73 O97 2.215 . S
Mn73 O99 2.117 . S
C74 O96 1.234 . S
C74 O97 1.283 . S
C75 O87 1.281 . S
C75 O88 1.236 . S
C76 O98 1.240 . S
C76 O99 1.264 . S
O77 Mn72 2.095 . S
O77 C86 1.250 . S
O78 Mn73 2.121 . S
O78 C86 1.258 . S
C79 N80 1.326 . S
C79 C83 1.460 . S
C79 H85 0.929 . S
N80 Mn73 2.257 1_455 S
N80 C79 1.326 . S
N80 C84 1.362 . S
C81 C82 1.258 . S
C81 C84 1.431 . S
C81 C101 1.449 . S
C82 C81 1.258 . S
C82 C83 1.477 . S
C82 H102 0.931 . S
C83 C79 1.460 . S
C83 C82 1.477 . S
C83 H103 0.930 . S
C84 N80 1.362 . S
C84 C81 1.431 . S
C84 C94 1.476 . S
H85 C79 0.929 . S
C86 O77 1.250 . S
C86 O78 1.258 . S
O87 Mn72 2.162 . S
O87 C75 1.281 . S
O88 Mn72 2.297 . S
O88 C75 1.236 . S
N89 Mn73 2.282 1_455 S
N89 C90 1.328 . S
N89 C94 1.318 . S
C90 N89 1.328 . S
C90 C91 1.457 . S
C90 H95 0.929 . S
C91 C90 1.457 . S
C91 C92 1.291 . S
C91 H104 0.931 . S
C92 C91 1.291 . S
C92 C93 1.373 . S
C92 H105 0.929 . S
C93 C92 1.373 . S
C93 C94 1.396 . S
C93 C100 1.403 . S
C94 C84 1.476 . S
C94 N89 1.318 . S
C94 C93 1.396 . S
H95 C90 0.929 . S
O96 Mn72 2.385 . S
O96 C74 1.234 . S
O97 Mn72 2.209 . S
O97 Mn73 2.215 . S
O97 C74 1.283 . S
O98 Mn72 2.094 . S
O98 C76 1.240 . S
O99 Mn73 2.117 . S
O99 C76 1.264 . S
C100 C93 1.403 . S
C100 C101 1.399 . S
C100 H106 0.929 . S
C101 C81 1.449 . S
C101 C100 1.399 . S
C101 H107 0.930 . S
H102 C82 0.931 . S
H103 C83 0.930 . S
H104 C91 0.931 . S
H105 C92 0.929 . S
H106 C100 0.929 . S
H107 C101 0.930 . S
Mn108 O113 2.095 . S
Mn108 O123 2.162 . S
Mn108 O124 2.297 . S
Mn108 O132 2.385 . S
Mn108 O133 2.209 . S
Mn108 O134 2.094 . S
Mn109 O114 2.121 . S
Mn109 N116 2.257 . S
Mn109 N125 2.282 . S
Mn109 O133 2.215 . S
Mn109 O135 2.117 . S
C110 O132 1.234 . S
C110 O133 1.283 . S
C111 O123 1.281 . S
C111 O124 1.236 . S
C112 O134 1.240 . S
C112 O135 1.264 . S
O113 Mn108 2.095 . S
O113 C122 1.250 . S
O114 Mn109 2.121 . S
O114 C122 1.258 . S
C115 N116 1.326 . S
C115 C119 1.460 . S
C115 H121 0.929 . S
N116 Mn109 2.257 . S
N116 C115 1.326 . S
N116 C120 1.362 . S
C117 C118 1.258 . S
C117 C120 1.431 . S
C117 C137 1.449 . S
C118 C117 1.258 . S
C118 C119 1.477 . S
C118 H138 0.931 . S
C119 C115 1.460 . S
C119 C118 1.477 . S
C119 H139 0.930 . S
C120 N116 1.362 . S
C120 C117 1.431 . S
C120 C130 1.476 . S
H121 C115 0.929 . S
C122 O113 1.250 . S
C122 O114 1.258 . S
O123 Mn108 2.162 . S
O123 C111 1.281 . S
O124 Mn108 2.297 . S
O124 C111 1.236 . S
N125 Mn109 2.282 . S
N125 C126 1.328 . S
N125 C130 1.318 . S
C126 N125 1.328 . S
C126 C127 1.457 . S
C126 H131 0.929 . S
C127 C126 1.457 . S
C127 C128 1.291 . S
C127 H140 0.931 . S
C128 C127 1.291 . S
C128 C129 1.373 . S
C128 H141 0.929 . S
C129 C128 1.373 . S
C129 C130 1.396 . S
C129 C136 1.403 . S
C130 C120 1.476 . S
C130 N125 1.318 . S
C130 C129 1.396 . S
H131 C126 0.929 . S
O132 Mn108 2.385 . S
O132 C110 1.234 . S
O133 Mn108 2.209 . S
O133 Mn109 2.215 . S
O133 C110 1.283 . S
O134 Mn108 2.094 . S
O134 C112 1.240 . S
O135 Mn109 2.117 . S
O135 C112 1.264 . S
C136 C129 1.403 . S
C136 C137 1.399 . S
C136 H142 0.929 . S
C137 C117 1.449 . S
C137 C136 1.399 . S
C137 H143 0.930 . S
H138 C118 0.931 . S
H139 C119 0.930 . S
H140 C127 0.931 . S
H141 C128 0.929 . S
H142 C136 0.929 . S
H143 C137 0.930 . S
Mn144 O149 2.095 . S
Mn144 O159 2.162 . S
Mn144 O160 2.297 . S
Mn144 O168 2.385 . S
Mn144 O169 2.209 . S
Mn144 O170 2.094 . S
Mn145 O150 2.121 . S
Mn145 N152 2.257 1_655 S
Mn145 N161 2.282 1_655 S
Mn145 O169 2.215 . S
Mn145 O171 2.117 . S
C146 O168 1.234 . S
C146 O169 1.283 . S
C147 O159 1.281 . S
C147 O160 1.236 . S
C148 O170 1.240 . S
C148 O171 1.264 . S
O149 Mn144 2.095 . S
O149 C158 1.250 . S
O150 Mn145 2.121 . S
O150 C158 1.258 . S
C151 N152 1.326 . S
C151 C155 1.460 . S
C151 H157 0.937 . S
N152 Mn145 2.257 1_455 S
N152 C151 1.326 . S
N152 C156 1.362 . S
C153 C154 1.258 . S
C153 C156 1.431 . S
C153 C173 1.449 . S
C154 C153 1.258 . S
C154 C155 1.477 . S
C154 H174 0.931 . S
C155 C151 1.460 . S
C155 C154 1.477 . S
C155 H175 0.930 . S
C156 N152 1.362 . S
C156 C153 1.431 . S
C156 C166 1.476 . S
H157 C151 0.937 . S
C158 O149 1.250 . S
C158 O150 1.258 . S
O159 Mn144 2.162 . S
O159 C147 1.281 . S
O160 Mn144 2.297 . S
O160 C147 1.236 . S
N161 Mn145 2.282 1_455 S
N161 C162 1.328 . S
N161 C166 1.318 . S
C162 N161 1.328 . S
C162 C163 1.457 . S
C162 H167 0.929 . S
C163 C162 1.457 . S
C163 C164 1.291 . S
C163 H176 0.931 . S
C164 C163 1.291 . S
C164 C165 1.373 . S
C164 H177 0.929 . S
C165 C164 1.373 . S
C165 C166 1.396 . S
C165 C172 1.403 . S
C166 C156 1.476 . S
C166 N161 1.318 . S
C166 C165 1.396 . S
H167 C162 0.929 . S
O168 Mn144 2.385 . S
O168 C146 1.234 . S
O169 Mn144 2.209 . S
O169 Mn145 2.215 . S
O169 C146 1.283 . S
O170 Mn144 2.094 . S
O170 C148 1.240 . S
O171 Mn145 2.117 . S
O171 C148 1.264 . S
C172 C165 1.403 . S
C172 C173 1.399 . S
C172 H178 0.929 . S
C173 C153 1.449 . S
C173 C172 1.399 . S
C173 H179 0.930 . S
H174 C154 0.931 . S
H175 C155 0.930 . S
H176 C163 0.931 . S
H177 C164 0.929 . S
H178 C172 0.929 . S
H179 C173 0.930 . S
Mn180 O185 2.095 . S
Mn180 O195 2.162 . S
Mn180 O196 2.297 . S
Mn180 O204 2.385 . S
Mn180 O205 2.209 . S
Mn180 O206 2.094 . S
Mn181 O186 2.121 . S
Mn181 N188 2.257 1_545 S
Mn181 N197 2.282 1_545 S
Mn181 O205 2.215 . S
Mn181 O207 2.117 . S
C182 O204 1.234 . S
C182 O205 1.283 . S
C183 O195 1.281 . S
C183 O196 1.236 . S
C184 O206 1.240 . S
C184 O207 1.264 . S
O185 Mn180 2.095 . S
O185 C194 1.250 . S
O186 Mn181 2.121 . S
O186 C194 1.258 . S
C187 N188 1.326 . S
C187 C191 1.460 . S
C187 H193 0.929 1_565 S
N188 Mn181 2.257 1_565 S
N188 C187 1.326 . S
N188 C192 1.362 . S
C189 C190 1.258 . S
C189 C192 1.431 . S
C189 C209 1.449 . S
C190 C189 1.258 . S
C190 C191 1.477 . S
C190 H210 0.931 . S
C191 C187 1.460 . S
C191 C190 1.477 . S
C191 H211 0.930 . S
C192 N188 1.362 . S
C192 C189 1.431 . S
C192 C202 1.476 . S
H193 C187 0.929 1_545 S
C194 O185 1.250 . S
C194 O186 1.258 . S
O195 Mn180 2.162 . S
O195 C183 1.281 . S
O196 Mn180 2.297 . S
O196 C183 1.236 . S
N197 Mn181 2.282 1_565 S
N197 C198 1.328 . S
N197 C202 1.318 . S
C198 N197 1.328 . S
C198 C199 1.457 . S
C198 H203 0.929 . S
C199 C198 1.457 . S
C199 C200 1.291 . S
C199 H212 0.931 . S
C200 C199 1.291 . S
C200 C201 1.373 . S
C200 H213 0.929 . S
C201 C200 1.373 . S
C201 C202 1.396 . S
C201 C208 1.403 . S
C202 C192 1.476 . S
C202 N197 1.318 . S
C202 C201 1.396 . S
H203 C198 0.929 . S
O204 Mn180 2.385 . S
O204 C182 1.234 . S
O205 Mn180 2.209 . S
O205 Mn181 2.215 . S
O205 C182 1.283 . S
O206 Mn180 2.094 . S
O206 C184 1.240 . S
O207 Mn181 2.117 . S
O207 C184 1.264 . S
C208 C201 1.403 . S
C208 C209 1.399 . S
C208 H214 0.929 . S
C209 C189 1.449 . S
C209 C208 1.399 . S
C209 H215 0.930 . S
H210 C190 0.931 . S
H211 C191 0.930 . S
H212 C199 0.931 . S
H213 C200 0.929 . S
H214 C208 0.929 . S
H215 C209 0.930 . S
Mn216 O221 2.095 . S
Mn216 O231 2.162 . S
Mn216 O232 2.297 . S
Mn216 O240 2.385 . S
Mn216 O241 2.209 . S
Mn216 O242 2.094 . S
Mn217 O222 2.121 . S
Mn217 N224 2.257 1_455 S
Mn217 N233 2.282 1_455 S
Mn217 O241 2.215 . S
Mn217 O243 2.117 . S
C218 O240 1.234 . S
C218 O241 1.283 . S
C219 O231 1.281 . S
C219 O232 1.236 . S
C220 O242 1.240 . S
C220 O243 1.264 . S
O221 Mn216 2.095 . S
O221 C230 1.250 . S
O222 Mn217 2.121 . S
O222 C230 1.258 . S
C223 N224 1.326 . S
C223 C227 1.460 . S
C223 H229 0.937 . S
N224 Mn217 2.257 1_655 S
N224 C223 1.326 . S
N224 C228 1.362 . S
C225 C226 1.258 . S
C225 C228 1.431 . S
C225 C245 1.449 . S
C226 C225 1.258 . S
C226 C227 1.477 . S
C226 H246 0.931 . S
C227 C223 1.460 . S
C227 C226 1.477 . S
C227 H247 0.930 . S
C228 N224 1.362 . S
C228 C225 1.431 . S
C228 C238 1.476 . S
H229 C223 0.937 . S
C230 O221 1.250 . S
C230 O222 1.258 . S
O231 Mn216 2.162 . S
O231 C219 1.281 . S
O232 Mn216 2.297 . S
O232 C219 1.236 . S
N233 Mn217 2.282 1_655 S
N233 C234 1.328 . S
N233 C238 1.318 . S
C234 N233 1.328 . S
C234 C235 1.457 . S
C234 H239 0.929 . S
C235 C234 1.457 . S
C235 C236 1.291 . S
C235 H248 0.931 . S
C236 C235 1.291 . S
C236 C237 1.373 . S
C236 H249 0.929 . S
C237 C236 1.373 . S
C237 C238 1.396 . S
C237 C244 1.403 . S
C238 C228 1.476 . S
C238 N233 1.318 . S
C238 C237 1.396 . S
H239 C234 0.929 . S
O240 Mn216 2.385 . S
O240 C218 1.234 . S
O241 Mn216 2.209 . S
O241 Mn217 2.215 . S
O241 C218 1.283 . S
O242 Mn216 2.094 . S
O242 C220 1.240 . S
O243 Mn217 2.117 . S
O243 C220 1.264 . S
C244 C237 1.403 . S
C244 C245 1.399 . S
C244 H250 0.929 . S
C245 C225 1.449 . S
C245 C244 1.399 . S
C245 H251 0.930 . S
H246 C226 0.931 . S
H247 C227 0.930 . S
H248 C235 0.931 . S
H249 C236 0.929 . S
H250 C244 0.929 . S
H251 C245 0.930 . S
Mn252 O257 2.095 . S
Mn252 O267 2.162 . S
Mn252 O268 2.297 . S
Mn252 O276 2.385 . S
Mn252 O277 2.209 . S
Mn252 O278 2.094 . S
Mn253 O258 2.121 . S
Mn253 N260 2.257 1_565 S
Mn253 N269 2.282 1_565 S
Mn253 O277 2.215 . S
Mn253 O279 2.117 . S
C254 O276 1.234 . S
C254 O277 1.283 . S
C255 O267 1.281 . S
C255 O268 1.236 . S
C256 O278 1.240 . S
C256 O279 1.264 . S
O257 Mn252 2.095 . S
O257 C266 1.250 . S
O258 Mn253 2.121 . S
O258 C266 1.258 . S
C259 N260 1.326 . S
C259 C263 1.460 . S
C259 H265 0.929 1_545 S
N260 Mn253 2.257 1_545 S
N260 C259 1.326 . S
N260 C264 1.362 . S
C261 C262 1.258 . S
C261 C264 1.431 . S
C261 C281 1.449 . S
C262 C261 1.258 . S
C262 C263 1.477 . S
C262 H282 0.931 . S
C263 C259 1.460 . S
C263 C262 1.477 . S
C263 H283 0.930 . S
C264 N260 1.362 . S
C264 C261 1.431 . S
C264 C274 1.476 . S
H265 C259 0.929 1_565 S
C266 O257 1.250 . S
C266 O258 1.258 . S
O267 Mn252 2.162 . S
O267 C255 1.281 . S
O268 Mn252 2.297 . S
O268 C255 1.236 . S
N269 Mn253 2.282 1_545 S
N269 C270 1.328 . S
N269 C274 1.318 . S
C270 N269 1.328 . S
C270 C271 1.457 . S
C270 H275 0.929 . S
C271 C270 1.457 . S
C271 C272 1.291 . S
C271 H284 0.931 . S
C272 C271 1.291 . S
C272 C273 1.373 . S
C272 H285 0.929 . S
C273 C272 1.373 . S
C273 C274 1.396 . S
C273 C280 1.403 . S
C274 C264 1.476 . S
C274 N269 1.318 . S
C274 C273 1.396 . S
H275 C270 0.929 . S
O276 Mn252 2.385 . S
O276 C254 1.234 . S
O277 Mn252 2.209 . S
O277 Mn253 2.215 . S
O277 C254 1.283 . S
O278 Mn252 2.094 . S
O278 C256 1.240 . S
O279 Mn253 2.117 . S
O279 C256 1.264 . S
C280 C273 1.403 . S
C280 C281 1.399 . S
C280 H286 0.929 . S
C281 C261 1.449 . S
C281 C280 1.399 . S
C281 H287 0.930 . S
H282 C262 0.931 . S
H283 C263 0.930 . S
H284 C271 0.931 . S
H285 C272 0.929 . S
H286 C280 0.929 . S
H287 C281 0.930 . S
H288 C300 0.930 . S
H289 C302 0.930 . S
H290 C303 0.930 . S
H291 C307 0.959 . S
H292 C307 0.959 . S
H293 C307 0.961 . S
H294 C308 0.960 . S
H295 C308 0.960 1_455 S
H296 C308 0.959 . S
H297 C311 0.929 1_655 S
H298 C312 0.931 . S
H299 C314 0.930 . S
C300 H288 0.930 . S
C300 C301 1.399 . S
C300 C305 1.399 . S
C301 C300 1.399 . S
C301 C302 1.376 . S
C302 H289 0.930 . S
C302 C301 1.376 . S
C302 C303 1.388 . S
C303 H290 0.930 . S
C303 C302 1.388 . S
C303 C304 1.390 . S
C304 C303 1.390 . S
C304 C305 1.394 . S
C304 C310 1.465 1_655 S
C305 C300 1.399 . S
C305 C304 1.394 . S
C305 C306 1.516 1_655 S
C306 C305 1.516 1_455 S
C306 C307 1.502 . S
C306 C308 1.561 1_455 S
C306 C309 1.526 . S
C307 H291 0.959 . S
C307 H292 0.959 . S
C307 H293 0.961 . S
C307 C306 1.502 . S
C308 H294 0.960 . S
C308 H295 0.960 1_655 S
C308 H296 0.959 . S
C308 C306 1.561 1_655 S
C309 C306 1.526 . S
C309 C310 1.396 . S
C309 C314 1.390 . S
C310 C304 1.465 1_455 S
C310 C309 1.396 . S
C310 C311 1.399 . S
C311 H297 0.929 1_455 S
C311 C310 1.399 . S
C311 C312 1.385 . S
C312 H298 0.931 . S
C312 C311 1.385 . S
C312 C313 1.389 . S
C313 C312 1.389 . S
C313 C314 1.387 . S
C314 H299 0.930 . S
C314 C309 1.390 . S
C314 C313 1.387 . S
H315 C327 0.930 . S
H316 C329 0.930 . S
H317 C330 0.930 . S
H318 C334 0.959 . S
H319 C334 0.959 . S
H320 C334 0.961 . S
H321 C335 0.960 . S
H322 C335 0.961 . S
H323 C335 0.959 . S
H324 C338 0.929 . S
H325 C339 0.931 . S
H326 C341 0.930 . S
C327 H315 0.930 . S
C327 C328 1.399 . S
C327 C332 1.399 . S
C328 C327 1.399 . S
C328 C329 1.376 . S
C329 H316 0.930 . S
C329 C328 1.376 . S
C329 C330 1.388 . S
C330 H317 0.930 . S
C330 C329 1.388 . S
C330 C331 1.390 . S
C331 C330 1.390 . S
C331 C332 1.394 . S
C331 C337 1.465 1_545 S
C332 C327 1.399 . S
C332 C331 1.394 . S
C332 C333 1.521 . S
C333 C332 1.521 . S
C333 C334 1.509 . S
C333 C335 1.553 1_545 S
C333 C336 1.520 1_545 S
C334 H318 0.959 . S
C334 H319 0.959 . S
C334 H320 0.961 . S
C334 C333 1.509 . S
C335 H321 0.960 . S
C335 H322 0.961 . S
C335 H323 0.959 . S
C335 C333 1.553 1_565 S
C336 C333 1.520 1_565 S
C336 C337 1.396 . S
C336 C341 1.390 . S
C337 C331 1.465 1_565 S
C337 C336 1.396 . S
C337 C338 1.399 . S
C338 H324 0.929 . S
C338 C337 1.399 . S
C338 C339 1.385 . S
C339 H325 0.931 . S
C339 C338 1.385 . S
C339 C340 1.389 . S
C340 C339 1.389 . S
C340 C341 1.387 . S
C341 H326 0.930 . S
C341 C336 1.390 . S
C341 C340 1.387 . S
H342 C354 0.930 . S
H343 C356 0.930 . S
H344 C357 0.930 . S
H345 C361 0.959 . S
H346 C361 0.959 . S
H347 C361 0.961 . S
H348 C362 0.960 . S
H349 C362 0.961 . S
H350 C362 0.959 . S
H351 C365 0.929 . S
H352 C366 0.931 . S
H353 C368 0.930 . S
C354 H342 0.930 . S
C354 C355 1.399 . S
C354 C359 1.399 . S
C355 C354 1.399 . S
C355 C356 1.376 . S
C356 H343 0.930 . S
C356 C355 1.376 . S
C356 C357 1.388 . S
C357 H344 0.930 . S
C357 C356 1.388 . S
C357 C358 1.390 . S
C358 C357 1.390 . S
C358 C359 1.394 . S
C358 C364 1.465 1_655 S
C359 C354 1.399 . S
C359 C358 1.394 . S
C359 C360 1.516 1_655 S
C360 C359 1.516 1_455 S
C360 C361 1.502 . S
C360 C362 1.561 1_455 S
C360 C363 1.526 . S
C361 H345 0.959 . S
C361 H346 0.959 . S
C361 H347 0.961 . S
C361 C360 1.502 . S
C362 H348 0.960 . S
C362 H349 0.961 . S
C362 H350 0.959 . S
C362 C360 1.561 1_655 S
C363 C360 1.526 . S
C363 C364 1.396 . S
C363 C368 1.390 . S
C364 C358 1.465 1_455 S
C364 C363 1.396 . S
C364 C365 1.399 . S
C365 H351 0.929 . S
C365 C364 1.399 . S
C365 C366 1.385 . S
C366 H352 0.931 . S
C366 C365 1.385 . S
C366 C367 1.389 . S
C367 C366 1.389 . S
C367 C368 1.387 . S
C368 H353 0.930 . S
C368 C363 1.390 . S
C368 C367 1.387 . S
H369 C381 0.930 . S
H370 C383 0.930 . S
H371 C384 0.930 . S
H372 C388 0.959 . S
H373 C388 0.959 . S
H374 C388 0.961 . S
H375 C389 0.960 . S
H376 C389 0.961 . S
H377 C389 0.959 . S
H378 C392 0.929 . S
H379 C393 0.931 . S
H380 C395 0.930 . S
C381 H369 0.930 . S
C381 C382 1.399 . S
C381 C386 1.399 . S
C382 C381 1.399 . S
C382 C383 1.376 . S
C383 H370 0.930 . S
C383 C382 1.376 . S
C383 C384 1.388 . S
C384 H371 0.930 . S
C384 C383 1.388 . S
C384 C385 1.390 . S
C385 C384 1.390 . S
C385 C386 1.394 . S
C385 C391 1.465 1_545 S
C386 C381 1.399 . S
C386 C385 1.394 . S
C386 C387 1.516 . S
C387 C386 1.516 . S
C387 C388 1.502 . S
C387 C389 1.561 1_545 S
C387 C390 1.526 1_545 S
C388 H372 0.959 . S
C388 H373 0.959 . S
C388 H374 0.961 . S
C388 C387 1.502 . S
C389 H375 0.960 . S
C389 H376 0.961 . S
C389 H377 0.959 . S
C389 C387 1.561 1_565 S
C390 C387 1.526 1_565 S
C390 C391 1.396 . S
C390 C395 1.390 . S
C391 C385 1.465 1_565 S
C391 C390 1.396 . S
C391 C392 1.399 . S
C392 H378 0.929 . S
C392 C391 1.399 . S
C392 C393 1.385 . S
C393 H379 0.931 . S
C393 C392 1.385 . S
C393 C394 1.389 . S
C394 C393 1.389 . S
C394 C395 1.387 . S
C395 H380 0.930 . S
C395 C390 1.390 . S
C395 C394 1.387 . S
H396 C408 0.930 . S
H397 C410 0.930 . S
H398 C411 0.930 . S
H399 C415 0.959 . S
H400 C415 0.959 . S
H401 C415 0.961 . S
H402 C416 0.960 . S
H403 C416 0.961 . S
H404 C416 0.959 . S
H405 C419 0.929 . S
H406 C420 0.931 . S
H407 C422 0.930 . S
C408 H396 0.930 . S
C408 C409 1.399 . S
C408 C413 1.399 . S
C409 C408 1.399 . S
C409 C410 1.376 1_545 S
C410 H397 0.930 . S
C410 C409 1.376 1_565 S
C410 C411 1.388 1_565 S
C411 H398 0.930 . S
C411 C410 1.388 1_545 S
C411 C412 1.390 . S
C412 C411 1.390 . S
C412 C413 1.394 . S
C412 C418 1.465 . S
C413 C408 1.399 . S
C413 C412 1.394 . S
C413 C414 1.516 . S
C414 C413 1.516 . S
C414 C415 1.502 . S
C414 C416 1.561 . S
C414 C417 1.526 . S
C415 H399 0.959 . S
C415 H400 0.959 . S
C415 H401 0.961 . S
C415 C414 1.502 . S
C416 H402 0.960 . S
C416 H403 0.961 . S
C416 H404 0.959 . S
C416 C414 1.561 . S
C417 C414 1.526 . S
C417 C418 1.396 . S
C417 C422 1.390 . S
C418 C412 1.465 . S
C418 C417 1.396 . S
C418 C419 1.399 . S
C419 H405 0.929 . S
C419 C418 1.399 . S
C419 C420 1.385 . S
C420 H406 0.931 . S
C420 C419 1.385 . S
C420 C421 1.389 . S
C421 C420 1.389 . S
C421 C422 1.387 . S
C422 H407 0.930 . S
C422 C417 1.390 . S
C422 C421 1.387 . S
H423 C435 0.930 . S
H424 C437 0.930 . S
H425 C438 0.930 . S
H426 C442 0.959 . S
H427 C442 0.959 . S
H428 C442 0.961 . S
H429 C443 0.960 . S
H430 C443 0.961 . S
H431 C443 0.959 . S
H432 C446 0.929 . S
H433 C447 0.931 1_655 S
H434 C449 0.930 . S
C435 H423 0.930 . S
C435 C436 1.399 . S
C435 C440 1.399 . S
C436 C435 1.399 . S
C436 C437 1.376 . S
C437 H424 0.930 . S
C437 C436 1.376 . S
C437 C438 1.388 . S
C438 H425 0.930 . S
C438 C437 1.388 . S
C438 C439 1.390 . S
C439 C438 1.390 . S
C439 C440 1.394 . S
C439 C445 1.465 . S
C440 C435 1.399 . S
C440 C439 1.394 . S
C440 C441 1.516 . S
C441 C440 1.516 . S
C441 C442 1.502 . S
C441 C443 1.561 . S
C441 C444 1.526 . S
C442 H426 0.959 . S
C442 H427 0.959 . S
C442 H428 0.961 . S
C442 C441 1.502 . S
C443 H429 0.960 . S
C443 H430 0.961 . S
C443 H431 0.959 . S
C443 C441 1.561 . S
C444 C441 1.526 . S
C444 C445 1.396 . S
C444 C449 1.390 . S
C445 C439 1.465 . S
C445 C444 1.396 . S
C445 C446 1.399 . S
C446 H432 0.929 . S
C446 C445 1.399 . S
C446 C447 1.385 . S
C447 H433 0.931 1_455 S
C447 C446 1.385 . S
C447 C448 1.389 . S
C448 C447 1.389 . S
C448 C449 1.387 . S
C449 H434 0.930 . S
C449 C444 1.390 . S
C449 C448 1.387 . S
H450 C462 0.930 . S
H451 C464 0.930 . S
H452 C465 0.930 . S
H453 C469 0.959 . S
H454 C469 0.959 . S
H455 C469 0.961 . S
H456 C470 0.960 . S
H457 C470 0.961 . S
H458 C470 0.959 . S
H459 C473 0.929 . S
H460 C474 0.931 . S
H461 C476 0.930 . S
C462 H450 0.930 . S
C462 C463 1.399 . S
C462 C467 1.399 . S
C463 C462 1.399 . S
C463 C464 1.376 . S
C464 H451 0.930 . S
C464 C463 1.376 . S
C464 C465 1.388 . S
C465 H452 0.930 . S
C465 C464 1.388 . S
C465 C466 1.390 . S
C466 C465 1.390 . S
C466 C467 1.394 . S
C466 C472 1.465 . S
C467 C462 1.399 . S
C467 C466 1.394 . S
C467 C468 1.516 . S
C468 C467 1.516 . S
C468 C469 1.502 . S
C468 C470 1.561 . S
C468 C471 1.526 . S
C469 H453 0.959 . S
C469 H454 0.959 . S
C469 H455 0.961 . S
C469 C468 1.502 . S
C470 H456 0.960 . S
C470 H457 0.961 . S
C470 H458 0.959 . S
C470 C468 1.561 . S
C471 C468 1.526 . S
C471 C472 1.396 . S
C471 C476 1.390 . S
C472 C466 1.465 . S
C472 C471 1.396 . S
C472 C473 1.399 . S
C473 H459 0.929 . S
C473 C472 1.399 . S
C473 C474 1.385 . S
C474 H460 0.931 . S
C474 C473 1.385 . S
C474 C475 1.389 . S
C475 C474 1.389 . S
C475 C476 1.387 . S
C476 H461 0.930 . S
C476 C471 1.390 . S
C476 C475 1.387 . S
H477 C489 0.930 . S
H478 C491 0.930 . S
H479 C492 0.930 . S
H480 C496 0.959 . S
H481 C496 0.959 . S
H482 C496 0.961 . S
H483 C497 0.960 . S
H484 C497 0.961 . S
H485 C497 0.959 . S
H486 C500 0.929 . S
H487 C501 0.931 1_455 S
H488 C503 0.930 . S
C489 H477 0.930 . S
C489 C490 1.399 . S
C489 C494 1.399 . S
C490 C489 1.399 . S
C490 C491 1.376 . S
C491 H478 0.930 . S
C491 C490 1.376 . S
C491 C492 1.388 . S
C492 H479 0.930 . S
C492 C491 1.388 . S
C492 C493 1.390 . S
C493 C492 1.390 . S
C493 C494 1.394 . S
C493 C499 1.465 . S
C494 C489 1.399 . S
C494 C493 1.394 . S
C494 C495 1.516 . S
C495 C494 1.516 . S
C495 C496 1.502 . S
C495 C497 1.561 . S
C495 C498 1.526 . S
C496 H480 0.959 . S
C496 H481 0.959 . S
C496 H482 0.961 . S
C496 C495 1.502 . S
C497 H483 0.960 . S
C497 H484 0.961 . S
C497 H485 0.959 . S
C497 C495 1.561 . S
C498 C495 1.526 . S
C498 C499 1.396 . S
C498 C503 1.390 . S
C499 C493 1.465 . S
C499 C498 1.396 . S
C499 C500 1.399 . S
C500 H486 0.929 . S
C500 C499 1.399 . S
C500 C501 1.385 . S
C501 H487 0.931 1_655 S
C501 C500 1.385 . S
C501 C502 1.389 . S
C502 C501 1.389 . S
C502 C503 1.387 . S
C503 H488 0.930 . S
C503 C498 1.390 . S
C503 C502 1.387 . S
H504 C516 0.930 1_565 S
H505 C518 0.930 . S
H506 C519 0.930 . S
H507 C523 0.959 . S
H508 C523 0.959 . S
H509 C523 0.961 . S
H510 C524 0.960 . S
H511 C524 0.961 . S
H512 C524 0.959 . S
H513 C527 0.929 . S
H514 C528 0.928 1_556 S
H515 C530 0.930 . S
C516 H504 0.930 1_545 S
C516 C517 1.399 . S
C516 C521 1.399 . S
C517 C516 1.399 . S
C517 C518 1.376 . S
C518 H505 0.930 . S
C518 C517 1.376 . S
C518 C519 1.388 . S
C519 H506 0.930 . S
C519 C518 1.388 . S
C519 C520 1.390 . S
C520 C519 1.390 . S
C520 C521 1.394 . S
C520 C526 1.465 . S
C521 C516 1.399 . S
C521 C520 1.394 . S
C521 C522 1.516 1_556 S
C522 C521 1.516 1_554 S
C522 C523 1.502 . S
C522 C524 1.561 . S
C522 C525 1.526 . S
C523 H507 0.959 . S
C523 H508 0.959 . S
C523 H509 0.961 . S
C523 C522 1.502 . S
C524 H510 0.960 . S
C524 H511 0.961 . S
C524 H512 0.959 . S
C524 C522 1.561 . S
C525 C522 1.526 . S
C525 C526 1.396 1_554 S
C525 C530 1.390 . S
C526 C520 1.465 . S
C526 C525 1.396 1_556 S
C526 C527 1.399 . S
C527 H513 0.929 . S
C527 C526 1.399 . S
C527 C528 1.377 1_556 S
C528 H514 0.928 1_554 S
C528 C527 1.377 1_554 S
C528 C529 1.399 . S
C529 C528 1.399 . S
C529 C530 1.387 . S
C530 H515 0.930 . S
C530 C525 1.390 . S
C530 C529 1.387 . S
H531 C543 0.930 . S
H532 C545 0.930 . S
H533 C546 0.930 1_554 S
H534 C550 0.959 . S
H535 C550 0.959 . S
H536 C550 0.961 1_556 S
H537 C551 0.960 . S
H538 C551 0.961 . S
H539 C551 0.959 . S
H540 C554 0.929 . S
H541 C555 0.931 1_655 S
H542 C557 0.930 . S
C543 H531 0.930 . S
C543 C544 1.399 . S
C543 C548 1.399 . S
C544 C543 1.399 . S
C544 C545 1.376 . S
C545 H532 0.930 . S
C545 C544 1.376 . S
C545 C546 1.388 . S
C546 H533 0.930 1_556 S
C546 C545 1.388 . S
C546 C547 1.390 . S
C547 C546 1.390 . S
C547 C548 1.394 . S
C547 C553 1.465 1_556 S
C548 C543 1.399 . S
C548 C547 1.394 . S
C548 C549 1.516 . S
C549 C548 1.516 . S
C549 C550 1.502 1_556 S
C549 C551 1.561 . S
C549 C552 1.526 1_556 S
C550 H534 0.959 . S
C550 H535 0.959 . S
C550 H536 0.961 1_554 S
C550 C549 1.502 1_554 S
C551 H537 0.960 . S
C551 H538 0.961 . S
C551 H539 0.959 . S
C551 C549 1.561 . S
C552 C549 1.526 1_554 S
C552 C553 1.396 . S
C552 C557 1.390 . S
C553 C547 1.465 1_554 S
C553 C552 1.396 . S
C553 C554 1.399 . S
C554 H540 0.929 . S
C554 C553 1.399 . S
C554 C555 1.385 . S
C555 H541 0.931 1_455 S
C555 C554 1.385 . S
C555 C556 1.389 . S
C556 C555 1.389 . S
C556 C557 1.387 . S
C557 H542 0.930 . S
C557 C552 1.390 . S
C557 C556 1.387 . S
H558 C570 0.930 1_556 S
H559 C572 0.930 . S
H560 C573 0.930 . S
H561 C577 0.959 . S
H562 C577 0.959 . S
H563 C577 0.961 . S
H564 C578 0.960 . S
H565 C578 0.961 . S
H566 C578 0.959 . S
H567 C581 0.932 1_554 S
H568 C582 0.931 . S
H569 C584 0.930 . S
C570 H558 0.930 1_554 S
C570 C571 1.399 . S
C570 C575 1.399 1_554 S
C571 C570 1.399 . S
C571 C572 1.376 . S
C572 H559 0.930 . S
C572 C571 1.376 . S
C572 C573 1.388 . S
C573 H560 0.930 . S
C573 C572 1.388 . S
C573 C574 1.390 . S
C574 C573 1.390 . S
C574 C575 1.394 1_554 S
C574 C580 1.465 1_554 S
C575 C570 1.399 1_556 S
C575 C574 1.394 1_556 S
C575 C576 1.516 . S
C576 C575 1.516 . S
C576 C577 1.502 . S
C576 C578 1.561 . S
C576 C579 1.526 . S
C577 H561 0.959 . S
C577 H562 0.959 . S
C577 H563 0.961 . S
C577 C576 1.502 . S
C578 H564 0.960 . S
C578 H565 0.961 . S
C578 H566 0.959 . S
C578 C576 1.561 . S
C579 C576 1.526 . S
C579 C580 1.396 . S
C579 C584 1.390 . S
C580 C574 1.465 1_556 S
C580 C579 1.396 . S
C580 C581 1.398 . S
C581 H567 0.932 1_556 S
C581 C580 1.398 . S
C581 C582 1.383 1_565 S
C582 H568 0.931 . S
C582 C581 1.383 1_545 S
C582 C583 1.389 . S
C583 C582 1.389 . S
C583 C584 1.387 1_545 S
C584 H569 0.930 . S
C584 C579 1.390 . S
C584 C583 1.387 1_565 S
H585 C597 0.930 . S
H586 C599 0.930 . S
H587 C600 0.930 . S
H588 C604 0.959 . S
H589 C604 0.959 . S
H590 C604 0.961 . S
H591 C605 0.960 . S
H592 C605 0.961 . S
H593 C605 0.959 . S
H594 C608 0.929 1_556 S
H595 C609 0.931 1_455 S
H596 C611 0.930 . S
C597 H585 0.930 . S
C597 C598 1.399 . S
C597 C602 1.404 . S
C598 C597 1.399 . S
C598 C599 1.376 . S
C599 H586 0.930 . S
C599 C598 1.376 . S
C599 C600 1.388 . S
C600 H587 0.930 . S
C600 C599 1.388 . S
C600 C601 1.390 . S
C601 C600 1.390 . S
C601 C602 1.396 . S
C601 C607 1.465 1_556 S
C602 C597 1.404 . S
C602 C601 1.396 . S
C602 C603 1.509 1_556 S
C603 C602 1.509 1_554 S
C603 C604 1.502 . S
C603 C605 1.561 . S
C603 C606 1.526 . S
C604 H588 0.959 . S
C604 H589 0.959 . S
C604 H590 0.961 . S
C604 C603 1.502 . S
C605 H591 0.960 . S
C605 H592 0.961 . S
C605 H593 0.959 . S
C605 C603 1.561 . S
C606 C603 1.526 . S
C606 C607 1.396 . S
C606 C611 1.390 . S
C607 C601 1.465 1_554 S
C607 C606 1.396 . S
C607 C608 1.399 . S
C608 H594 0.929 1_554 S
C608 C607 1.399 . S
C608 C609 1.385 . S
C609 H595 0.931 1_655 S
C609 C608 1.385 . S
C609 C610 1.389 . S
C610 C609 1.389 . S
C610 C611 1.387 . S
C611 H596 0.930 . S
C611 C606 1.390 . S
C611 C610 1.387 . S
H612 C624 0.930 . S
H613 C626 0.930 . S
H614 C627 0.930 . S
H615 C631 0.959 . S
H616 C631 0.959 . S
H617 C631 0.961 . S
H618 C632 0.960 . S
H619 C632 0.961 . S
H620 C632 0.959 . S
H621 C635 0.929 . S
H622 C636 0.931 . S
H623 C638 0.930 . S
C624 H612 0.930 . S
C624 C625 1.399 . S
C624 C629 1.399 . S
C625 C624 1.399 . S
C625 C626 1.376 . S
C626 H613 0.930 . S
C626 C625 1.376 . S
C626 C627 1.388 . S
C627 H614 0.930 . S
C627 C626 1.388 . S
C627 C628 1.390 . S
C628 C627 1.390 . S
C628 C629 1.394 . S
C628 C634 1.465 . S
C629 C624 1.399 . S
C629 C628 1.394 . S
C629 C630 1.516 . S
C630 C629 1.516 . S
C630 C631 1.502 . S
C630 C632 1.561 . S
C630 C633 1.526 . S
C631 H615 0.959 . S
C631 H616 0.959 . S
C631 H617 0.961 . S
C631 C630 1.502 . S
C632 H618 0.960 . S
C632 H619 0.961 . S
C632 H620 0.959 . S
C632 C630 1.561 . S
C633 C630 1.526 . S
C633 C634 1.396 . S
C633 C638 1.390 . S
C634 C628 1.465 . S
C634 C633 1.396 . S
C634 C635 1.399 . S
C635 H621 0.929 . S
C635 C634 1.399 . S
C635 C636 1.385 . S
C636 H622 0.931 . S
C636 C635 1.385 . S
C636 C637 1.389 . S
C637 C636 1.389 . S
C637 C638 1.387 . S
C638 H623 0.930 . S
C638 C633 1.390 . S
C638 C637 1.387 . S
H639 C651 0.930 . S
H640 C653 0.930 . S
H641 C654 0.930 . S
H642 C658 0.959 . S
H643 C658 0.959 . S
H644 C658 0.961 . S
H645 C659 0.960 . S
H646 C659 0.961 . S
H647 C659 0.959 . S
H648 C662 0.929 . S
H649 C663 0.931 . S
H650 C665 0.930 . S
C651 H639 0.930 . S
C651 C652 1.399 . S
C651 C656 1.399 . S
C652 C651 1.399 . S
C652 C653 1.376 . S
C653 H640 0.930 . S
C653 C652 1.376 . S
C653 C654 1.388 . S
C654 H641 0.930 . S
C654 C653 1.388 . S
C654 C655 1.390 . S
C655 C654 1.390 . S
C655 C656 1.394 . S
C655 C661 1.465 . S
C656 C651 1.399 . S
C656 C655 1.394 . S
C656 C657 1.516 . S
C657 C656 1.516 . S
C657 C658 1.502 . S
C657 C659 1.561 . S
C657 C660 1.526 . S
C658 H642 0.959 . S
C658 H643 0.959 . S
C658 H644 0.961 . S
C658 C657 1.502 . S
C659 H645 0.960 . S
C659 H646 0.961 . S
C659 H647 0.959 . S
C659 C657 1.561 . S
C660 C657 1.526 . S
C660 C661 1.396 . S
C660 C665 1.390 . S
C661 C655 1.465 . S
C661 C660 1.396 . S
C661 C662 1.399 . S
C662 H648 0.929 . S
C662 C661 1.399 . S
C662 C663 1.385 . S
C663 H649 0.931 . S
C663 C662 1.385 . S
C663 C664 1.389 . S
C664 C663 1.389 . S
C664 C665 1.387 . S
C665 H650 0.930 . S
C665 C660 1.390 . S
C665 C664 1.387 . S
H666 C678 0.930 . S
H667 C680 0.930 . S
H668 C681 0.930 . S
H669 C685 0.959 . S
H670 C685 0.959 . S
H671 C685 0.961 . S
H672 C686 0.960 . S
H673 C686 0.961 . S
H674 C686 0.959 . S
H675 C689 0.929 . S
H676 C690 0.931 . S
H677 C692 0.930 . S
C678 H666 0.930 . S
C678 C679 1.399 . S
C678 C683 1.399 . S
C679 C678 1.399 . S
C679 C680 1.376 . S
C680 H667 0.930 . S
C680 C679 1.376 . S
C680 C681 1.388 . S
C681 H668 0.930 . S
C681 C680 1.388 . S
C681 C682 1.390 . S
C682 C681 1.390 . S
C682 C683 1.394 . S
C682 C688 1.465 . S
C683 C678 1.399 . S
C683 C682 1.394 . S
C683 C684 1.516 . S
C684 C683 1.516 . S
C684 C685 1.502 . S
C684 C686 1.561 . S
C684 C687 1.526 . S
C685 H669 0.959 . S
C685 H670 0.959 . S
C685 H671 0.961 . S
C685 C684 1.502 . S
C686 H672 0.960 . S
C686 H673 0.961 . S
C686 H674 0.959 . S
C686 C684 1.561 . S
C687 C684 1.526 . S
C687 C688 1.396 . S
C687 C692 1.390 . S
C688 C682 1.465 . S
C688 C687 1.396 . S
C688 C689 1.399 . S
C689 H675 0.929 . S
C689 C688 1.399 . S
C689 C690 1.385 . S
C690 H676 0.931 . S
C690 C689 1.385 . S
C690 C691 1.389 . S
C691 C690 1.389 . S
C691 C692 1.387 . S
C692 H677 0.930 . S
C692 C687 1.390 . S
C692 C691 1.387 . S
H693 C705 0.930 . S
H694 C707 0.930 . S
H695 C708 0.930 . S
H696 C712 0.959 . S
H697 C712 0.959 . S
H698 C712 0.961 . S
H699 C713 0.960 . S
H700 C713 0.961 . S
H701 C713 0.959 . S
H702 C716 0.929 . S
H703 C717 0.931 . S
H704 C719 0.930 . S
C705 H693 0.930 . S
C705 C706 1.399 . S
C705 C710 1.399 . S
C706 C705 1.399 . S
C706 C707 1.376 . S
C707 H694 0.930 . S
C707 C706 1.376 . S
C707 C708 1.388 . S
C708 H695 0.930 . S
C708 C707 1.388 . S
C708 C709 1.390 . S
C709 C708 1.390 . S
C709 C710 1.394 . S
C709 C715 1.465 . S
C710 C705 1.399 . S
C710 C709 1.394 . S
C710 C711 1.516 . S
C711 C710 1.516 . S
C711 C712 1.502 . S
C711 C713 1.561 . S
C711 C714 1.526 . S
C712 H696 0.959 . S
C712 H697 0.959 . S
C712 H698 0.961 . S
C712 C711 1.502 . S
C713 H699 0.960 . S
C713 H700 0.961 . S
C713 H701 0.959 . S
C713 C711 1.561 . S
C714 C711 1.526 . S
C714 C715 1.396 . S
C714 C719 1.390 . S
C715 C709 1.465 . S
C715 C714 1.396 . S
C715 C716 1.399 . S
C716 H702 0.929 . S
C716 C715 1.399 . S
C716 C717 1.385 . S
C717 H703 0.931 . S
C717 C716 1.385 . S
C717 C718 1.389 . S
C718 C717 1.389 . S
C718 C719 1.387 . S
C719 H704 0.930 . S
C719 C714 1.390 . S
C719 C718 1.387 . S
C301 C76 1.425 . S
C313 C4 1.372 . S
C328 C122 1.540 . S
C340 C50 1.545 . S
C355 C148 1.425 . S
C367 C220 1.383 . S
C382 C184 1.390 . S
C394 C256 1.440 . S
C409 C39 0.975 1_545 S
C421 C3 0.945 . S
C436 C38 1.053 . S
C448 C74 1.149 1_455 S
C463 C111 0.969 1_565 S
C475 C75 1.005 . S
C490 C110 1.056 . S
C502 C2 1.103 1_655 S
C517 C254 1.122 1_545 S
C529 C147 1.090 . S
C544 C183 0.979 . S
C556 C146 1.044 1_455 S
C571 C219 1.050 . S
C583 C182 1.050 . S
C598 C255 1.062 . S
C610 C218 0.991 1_655 S
C625 C14 1.677 . S
C637 C194 1.658 . S
C652 C230 1.662 . S
C664 C40 1.665 . S
C679 C86 1.673 . S
C691 C266 1.660 . S
C706 C112 1.664 . S
C718 C158 1.661 . S
