# Generated by pormake.
# Topology sod-e, (6)-cn, num edge types: 1
# Building blocks:
#     Node 0, Type 0, BuildingBlock: IZENUY_clean_sbu_0, # of connection points: 6
#     Node 1, Type 0, BuildingBlock: IZENUY_clean_sbu_0, # of connection points: 6
#     Node 2, Type 0, BuildingBlock: IZENUY_clean_sbu_0, # of connection points: 6
#     Node 3, Type 0, BuildingBlock: IZENUY_clean_sbu_0, # of connection points: 6
#     Node 4, Type 0, BuildingBlock: IZENUY_clean_sbu_0, # of connection points: 6
#     Node 5, Type 0, BuildingBlock: IZENUY_clean_sbu_0, # of connection points: 6
#     Node 6, Type 0, BuildingBlock: IZENUY_clean_sbu_0, # of connection points: 6
#     Node 7, Type 0, BuildingBlock: IZENUY_clean_sbu_0, # of connection points: 6
#     Node 8, Type 0, BuildingBlock: IZENUY_clean_sbu_0, # of connection points: 6
#     Node 9, Type 0, BuildingBlock: IZENUY_clean_sbu_0, # of connection points: 6
#     Node 10, Type 0, BuildingBlock: IZENUY_clean_sbu_0, # of connection points: 6
#     Node 11, Type 0, BuildingBlock: IZENUY_clean_sbu_0, # of connection points: 6
#     Node 12, Type 0, BuildingBlock: IZENUY_clean_sbu_0, # of connection points: 6
#     Node 13, Type 0, BuildingBlock: IZENUY_clean_sbu_0, # of connection points: 6
#     Node 14, Type 0, BuildingBlock: IZENUY_clean_sbu_0, # of connection points: 6
#     Node 15, Type 0, BuildingBlock: IZENUY_clean_sbu_0, # of connection points: 6
#     Node 16, Type 0, BuildingBlock: IZENUY_clean_sbu_0, # of connection points: 6
#     Node 17, Type 0, BuildingBlock: IZENUY_clean_sbu_0, # of connection points: 6
#     Node 18, Type 0, BuildingBlock: IZENUY_clean_sbu_0, # of connection points: 6
#     Node 19, Type 0, BuildingBlock: IZENUY_clean_sbu_0, # of connection points: 6
#     Node 20, Type 0, BuildingBlock: IZENUY_clean_sbu_0, # of connection points: 6
#     Node 21, Type 0, BuildingBlock: IZENUY_clean_sbu_0, # of connection points: 6
#     Node 22, Type 0, BuildingBlock: IZENUY_clean_sbu_0, # of connection points: 6
#     Node 23, Type 0, BuildingBlock: IZENUY_clean_sbu_0, # of connection points: 6
#     Edge 24, Type (0, 0), BuildingBlock: OJICUG_clean_linker_0, # of connection points: 2
#     Edge 25, Type (0, 0), BuildingBlock: OJICUG_clean_linker_0, # of connection points: 2
#     Edge 26, Type (0, 0), BuildingBlock: OJICUG_clean_linker_0, # of connection points: 2
#     Edge 27, Type (0, 0), BuildingBlock: OJICUG_clean_linker_0, # of connection points: 2
#     Edge 28, Type (0, 0), BuildingBlock: OJICUG_clean_linker_0, # of connection points: 2
#     Edge 29, Type (0, 0), BuildingBlock: OJICUG_clean_linker_0, # of connection points: 2
#     Edge 30, Type (0, 0), BuildingBlock: OJICUG_clean_linker_0, # of connection points: 2
#     Edge 31, Type (0, 0), BuildingBlock: OJICUG_clean_linker_0, # of connection points: 2
#     Edge 32, Type (0, 0), BuildingBlock: OJICUG_clean_linker_0, # of connection points: 2
#     Edge 33, Type (0, 0), BuildingBlock: OJICUG_clean_linker_0, # of connection points: 2
#     Edge 34, Type (0, 0), BuildingBlock: OJICUG_clean_linker_0, # of connection points: 2
#     Edge 35, Type (0, 0), BuildingBlock: OJICUG_clean_linker_0, # of connection points: 2
#     Edge 36, Type (0, 0), BuildingBlock: OJICUG_clean_linker_0, # of connection points: 2
#     Edge 37, Type (0, 0), BuildingBlock: OJICUG_clean_linker_0, # of connection points: 2
#     Edge 38, Type (0, 0), BuildingBlock: OJICUG_clean_linker_0, # of connection points: 2
#     Edge 39, Type (0, 0), BuildingBlock: OJICUG_clean_linker_0, # of connection points: 2
#     Edge 40, Type (0, 0), BuildingBlock: OJICUG_clean_linker_0, # of connection points: 2
#     Edge 41, Type (0, 0), BuildingBlock: OJICUG_clean_linker_0, # of connection points: 2
#     Edge 42, Type (0, 0), BuildingBlock: OJICUG_clean_linker_0, # of connection points: 2
#     Edge 43, Type (0, 0), BuildingBlock: OJICUG_clean_linker_0, # of connection points: 2
#     Edge 44, Type (0, 0), BuildingBlock: OJICUG_clean_linker_0, # of connection points: 2
#     Edge 45, Type (0, 0), BuildingBlock: OJICUG_clean_linker_0, # of connection points: 2
#     Edge 46, Type (0, 0), BuildingBlock: OJICUG_clean_linker_0, # of connection points: 2
#     Edge 47, Type (0, 0), BuildingBlock: OJICUG_clean_linker_0, # of connection points: 2
#     Edge 48, Type (0, 0), BuildingBlock: OJICUG_clean_linker_0, # of connection points: 2
#     Edge 49, Type (0, 0), BuildingBlock: OJICUG_clean_linker_0, # of connection points: 2
#     Edge 50, Type (0, 0), BuildingBlock: OJICUG_clean_linker_0, # of connection points: 2
#     Edge 51, Type (0, 0), BuildingBlock: OJICUG_clean_linker_0, # of connection points: 2
#     Edge 52, Type (0, 0), BuildingBlock: OJICUG_clean_linker_0, # of connection points: 2
#     Edge 53, Type (0, 0), BuildingBlock: OJICUG_clean_linker_0, # of connection points: 2
#     Edge 54, Type (0, 0), BuildingBlock: OJICUG_clean_linker_0, # of connection points: 2
#     Edge 55, Type (0, 0), BuildingBlock: OJICUG_clean_linker_0, # of connection points: 2
#     Edge 56, Type (0, 0), BuildingBlock: OJICUG_clean_linker_0, # of connection points: 2
#     Edge 57, Type (0, 0), BuildingBlock: OJICUG_clean_linker_0, # of connection points: 2
#     Edge 58, Type (0, 0), BuildingBlock: OJICUG_clean_linker_0, # of connection points: 2
#     Edge 59, Type (0, 0), BuildingBlock: OJICUG_clean_linker_0, # of connection points: 2
#     Edge 60, Type (0, 0), BuildingBlock: OJICUG_clean_linker_0, # of connection points: 2
#     Edge 61, Type (0, 0), BuildingBlock: OJICUG_clean_linker_0, # of connection points: 2
#     Edge 62, Type (0, 0), BuildingBlock: OJICUG_clean_linker_0, # of connection points: 2
#     Edge 63, Type (0, 0), BuildingBlock: OJICUG_clean_linker_0, # of connection points: 2
#     Edge 64, Type (0, 0), BuildingBlock: OJICUG_clean_linker_0, # of connection points: 2
#     Edge 65, Type (0, 0), BuildingBlock: OJICUG_clean_linker_0, # of connection points: 2
#     Edge 66, Type (0, 0), BuildingBlock: OJICUG_clean_linker_0, # of connection points: 2
#     Edge 67, Type (0, 0), BuildingBlock: OJICUG_clean_linker_0, # of connection points: 2
#     Edge 68, Type (0, 0), BuildingBlock: OJICUG_clean_linker_0, # of connection points: 2
#     Edge 69, Type (0, 0), BuildingBlock: OJICUG_clean_linker_0, # of connection points: 2
#     Edge 70, Type (0, 0), BuildingBlock: OJICUG_clean_linker_0, # of connection points: 2
#     Edge 71, Type (0, 0), BuildingBlock: OJICUG_clean_linker_0, # of connection points: 2
#     Edge 72, Type (0, 0), BuildingBlock: OJICUG_clean_linker_0, # of connection points: 2
#     Edge 73, Type (0, 0), BuildingBlock: OJICUG_clean_linker_0, # of connection points: 2
#     Edge 74, Type (0, 0), BuildingBlock: OJICUG_clean_linker_0, # of connection points: 2
#     Edge 75, Type (0, 0), BuildingBlock: OJICUG_clean_linker_0, # of connection points: 2
#     Edge 76, Type (0, 0), BuildingBlock: OJICUG_clean_linker_0, # of connection points: 2
#     Edge 77, Type (0, 0), BuildingBlock: OJICUG_clean_linker_0, # of connection points: 2
#     Edge 78, Type (0, 0), BuildingBlock: OJICUG_clean_linker_0, # of connection points: 2
#     Edge 79, Type (0, 0), BuildingBlock: OJICUG_clean_linker_0, # of connection points: 2
#     Edge 80, Type (0, 0), BuildingBlock: OJICUG_clean_linker_0, # of connection points: 2
#     Edge 81, Type (0, 0), BuildingBlock: OJICUG_clean_linker_0, # of connection points: 2
#     Edge 82, Type (0, 0), BuildingBlock: OJICUG_clean_linker_0, # of connection points: 2
#     Edge 83, Type (0, 0), BuildingBlock: OJICUG_clean_linker_0, # of connection points: 2
#     Edge 84, Type (0, 0), BuildingBlock: OJICUG_clean_linker_0, # of connection points: 2
#     Edge 85, Type (0, 0), BuildingBlock: OJICUG_clean_linker_0, # of connection points: 2
#     Edge 86, Type (0, 0), BuildingBlock: OJICUG_clean_linker_0, # of connection points: 2
#     Edge 87, Type (0, 0), BuildingBlock: OJICUG_clean_linker_0, # of connection points: 2
#     Edge 88, Type (0, 0), BuildingBlock: OJICUG_clean_linker_0, # of connection points: 2
#     Edge 89, Type (0, 0), BuildingBlock: OJICUG_clean_linker_0, # of connection points: 2
#     Edge 90, Type (0, 0), BuildingBlock: OJICUG_clean_linker_0, # of connection points: 2
#     Edge 91, Type (0, 0), BuildingBlock: OJICUG_clean_linker_0, # of connection points: 2
#     Edge 92, Type (0, 0), BuildingBlock: OJICUG_clean_linker_0, # of connection points: 2
#     Edge 93, Type (0, 0), BuildingBlock: OJICUG_clean_linker_0, # of connection points: 2
#     Edge 94, Type (0, 0), BuildingBlock: OJICUG_clean_linker_0, # of connection points: 2
#     Edge 95, Type (0, 0), BuildingBlock: OJICUG_clean_linker_0, # of connection points: 2
# Relax obj value: 0.473
# Max RMSD: 0.285
# Mean RMSD: 0.284
data_MOF--net-sod-e--node1-IZENUY_clean_sbu_0--edge1-OJICUG_clean_linker_0
_symmetry_space_group_name_H-M    P1
_symmetry_Int_Tables_number       1
_symmetry_cell_setting            triclinic
loop_
_symmetry_equiv_pos_as_xyz
'x, y, z'
_cell_length_a     37.521553
_cell_length_b     37.218334
_cell_length_c     37.364548
_cell_angle_alpha  90.159481
_cell_angle_beta   89.703929
_cell_angle_gamma 90.227806
loop_
_atom_site_label
_atom_site_type_symbol
_atom_site_fract_x
_atom_site_fract_y
_atom_site_fract_z
_atom_type_partial_charge
Fe0 Fe 0.02197 0.33159 0.3135 0.0
Fe1 Fe 0.98226 0.37801 0.36811 0.0
O2 O 0.02239 0.36147 0.35009 0.0
Fe3 Fe 0.06353 0.37643 0.3687 0.0
O4 O 0.08956 0.37127 0.32747 0.0
O5 O 0.04856 0.36302 0.28735 0.0
O6 O 0.98241 0.35271 0.29155 0.0
C7 C 0.96643 0.38244 0.29758 0.0
C8 C 0.07603 0.30546 0.36148 0.0
O9 O 0.96953 0.3983 0.327 0.0
C10 C 0.01862 0.36928 0.42874 0.0
O11 O -0.00575 0.29905 0.33718 0.0
O12 O 0.95572 0.33799 0.35861 0.0
O13 O 0.07392 0.33197 0.38236 0.0
O14 O 0.06135 0.30577 0.33051 0.0
C15 C 0.02582 0.43733 0.36237 0.0
O16 O -0.00727 0.35848 0.41043 0.0
O17 O 0.04539 0.38391 0.41392 0.0
C18 C 0.96449 0.30605 0.35155 0.0
O19 O 0.00183 0.42131 0.38008 0.0
O20 O 0.05445 0.42167 0.35477 0.0
C21 C 0.07786 0.37675 0.29651 0.0
Fe22 Fe 0.62538 0.02993 0.35179 0.0
Fe23 Fe 0.61764 0.94945 0.36183 0.0
O24 O 0.63436 0.98586 0.33702 0.0
Fe25 Fe 0.65924 0.97873 0.29769 0.0
O26 O 0.68811 0.01942 0.3047 0.0
O27 O 0.67171 0.03797 0.35851 0.0
O28 O 0.62251 0.01814 0.39874 0.0
C29 C 0.63716 -0.00711 0.4156 0.0
C30 C 0.61666 0.0355 0.27925 0.0
O31 O 0.64297 0.96328 0.40041 0.0
C32 C 0.60472 0.92431 0.29549 0.0
O33 O 0.57821 0.02289 0.3451 0.0
O34 O 0.57813 0.97349 0.37682 0.0
O35 O 0.62594 0.00363 0.27179 0.0
O36 O 0.62733 0.04995 0.30761 0.0
C37 C 0.68556 0.92658 0.34193 0.0
O38 O 0.5916 0.93382 0.32495 0.0
O39 O 0.63473 0.9368 0.2849 0.0
C40 C 0.56163 -0.00286 0.35939 0.0
O41 O 0.65384 0.91919 0.35039 0.0
O42 O 0.69272 0.95347 0.32241 0.0
C43 C 0.69396 0.03758 0.33323 0.0
Fe44 Fe 0.94476 0.6324 0.33055 0.0
Fe45 Fe 0.98552 0.69752 0.30253 0.0
O46 O 0.98493 0.65618 0.32533 0.0
Fe47 Fe 0.02422 0.63802 0.34263 0.0
O48 O 0.02023 0.59901 0.31426 0.0
O49 O 0.96539 0.58828 0.33077 0.0
O50 O 0.94174 0.62749 0.28334 0.0
C51 C 0.93684 0.65367 0.26306 0.0
C52 C 0.97313 0.62486 0.39599 0.0
O53 O 0.94796 0.68496 0.2718 0.0
C54 C 0.03466 0.70714 0.36025 0.0
O55 O 0.9166 0.67249 0.33141 0.0
O56 O 0.95532 0.71642 0.33595 0.0
O57 O 0.00197 0.6161 0.38055 0.0
O58 O 0.94707 0.63623 0.37837 0.0
C59 C 0.04595 0.66546 0.27646 0.0
O60 O 0.02266 0.71671 0.3298 0.0
O61 O 0.03026 0.67572 0.37144 0.0
C62 C 0.92538 0.70278 0.34379 0.0
O63 O 0.01629 0.67963 0.26874 0.0
O64 O 0.0531 0.65746 0.30841 0.0
C65 C -0.00557 0.57764 0.31724 0.0
Fe66 Fe 0.351 0.01162 0.35841 0.0
Fe67 Fe 0.29854 0.97067 0.31106 0.0
O68 O 0.33448 0.97072 0.34126 0.0
Fe69 Fe 0.35428 0.93026 0.35569 0.0
O70 O 0.34196 0.93963 0.40154 0.0
O71 O 0.3665 -0.00732 0.40024 0.0
O72 O 0.30984 0.02057 0.38051 0.0
C73 C 0.28053 0.02339 0.36474 0.0
C74 C 0.41207 0.97738 0.34433 0.0
O75 O 0.27563 0.00948 0.33369 0.0
C76 C 0.34614 0.91546 0.28514 0.0
O77 O 0.33801 0.03867 0.3206 0.0
O78 O 0.32255 -0.00016 0.27953 0.0
O79 O 0.39862 0.95032 0.36008 0.0
O80 O 0.39314 0.00409 0.33668 0.0
C81 C 0.28217 0.91381 0.35569 0.0
O82 O 0.31598 0.93147 0.28464 0.0
O83 O 0.36692 0.91863 0.3112 0.0
C84 C 0.33478 0.03033 0.28822 0.0
O85 O 0.27238 0.94243 0.34075 0.0
O86 O 0.31388 0.90322 0.3531 0.0
C87 C 0.35126 0.96789 0.41733 0.0
Fe88 Fe 0.00559 0.60128 0.60805 0.0
Fe89 Fe 0.92435 0.60191 0.60777 0.0
O90 O 0.965 0.61737 0.62642 0.0
Fe91 Fe 0.96566 0.64721 0.66309 0.0
O92 O 0.00581 0.67198 0.64583 0.0
O93 O 0.01772 0.6455 0.59395 0.0
O94 O -0.01222 0.59357 0.56347 0.0
C95 C 0.96329 0.61034 0.54777 0.0
C96 C 0.02135 0.60257 0.68033 0.0
O97 O 0.93617 0.62058 0.56478 0.0
C98 C 0.90958 0.5971 0.6792 0.0
O99 O -0.00556 0.55685 0.62278 0.0
O100 O 0.94248 0.55784 0.59677 0.0
O101 O -0.00785 0.61626 0.68996 0.0
O102 O 0.03185 0.60588 0.64857 0.0
C103 C 0.90952 0.67414 0.62371 0.0
O104 O 0.91024 0.58259 0.64893 0.0
O105 O 0.92603 0.62658 0.68535 0.0
C106 C 0.9651 0.54203 0.61598 0.0
O107 O 0.89932 0.64265 0.61666 0.0
O108 O 0.93883 0.68 0.63928 0.0
C109 C 0.02122 0.67175 0.61508 0.0
Fe110 Fe 0.35897 0.95716 0.62652 0.0
Fe111 Fe 0.34239 0.0369 0.62452 0.0
O112 O 0.33728 -0.00538 0.64543 0.0
Fe113 Fe 0.31116 0.98982 0.68442 0.0
O114 O 0.34103 0.95485 0.70431 0.0
O115 O 0.38546 0.95166 0.6656 0.0
O116 O 0.3957 0.98357 0.60819 0.0
C117 C 0.40899 0.01137 0.62227 0.0
C118 C 0.29395 0.92799 0.64803 0.0
O119 O 0.38939 0.0365 0.63269 0.0
C120 C 0.27174 0.03657 0.63882 0.0
O121 O 0.33318 0.96124 0.58638 0.0
O122 O 0.34701 0.01805 0.57946 0.0
O123 O 0.28286 0.95636 0.66293 0.0
O124 O 0.32665 0.92381 0.64172 0.0
C125 C 0.34578 0.05391 0.6971 0.0
O126 O 0.29605 0.03887 0.61582 0.0
O127 O 0.27765 0.02419 0.67013 0.0
C128 C 0.33497 0.98872 0.567 0.0
O129 O 0.33839 0.0634 0.66562 0.0
O130 O 0.33807 0.02276 0.70802 0.0
C131 C 0.37328 0.94659 0.69651 0.0
Fe132 Fe 0.01402 0.35979 0.64679 0.0
Fe133 Fe 0.97792 0.28788 0.66154 0.0
O134 O 0.97692 0.33134 0.64305 0.0
Fe135 Fe 0.93834 0.34668 0.62142 0.0
O136 O 0.96239 0.37612 0.59038 0.0
O137 O 0.01852 0.36269 0.59909 0.0
O138 O 0.04693 0.32341 0.64433 0.0
C139 C 0.04352 0.29288 0.62976 0.0
C140 C 0.95575 0.40531 0.65991 0.0
O141 O 0.01442 0.27554 0.63162 0.0
C142 C 0.91182 0.31256 0.6814 0.0
O143 O 0.01071 0.35835 0.69434 0.0
O144 O 0.00991 0.29973 0.69793 0.0
O145 O 0.93219 0.38219 0.65362 0.0
O146 O -0.01244 0.40049 0.64956 0.0
C147 C 0.93942 0.27932 0.59626 0.0
O148 O 0.94135 0.29994 0.69201 0.0
O149 O 0.90774 0.31985 0.64873 0.0
C150 C 0.01635 0.33034 0.7117 0.0
O151 O 0.94675 0.26863 0.62782 0.0
O152 O 0.94266 0.31192 0.58833 0.0
C153 C -0.00601 0.37293 0.57887 0.0
Fe154 Fe 0.61945 0.9719 0.63262 0.0
Fe155 Fe 0.6758 0.02551 0.65798 0.0
O156 O 0.63599 0.0162 0.63497 0.0
Fe157 Fe 0.61201 0.0508 0.61407 0.0
O158 O 0.57394 0.04249 0.6424 0.0
O159 O 0.57312 0.9851 0.63003 0.0
O160 O 0.61374 0.97091 0.67985 0.0
C161 C 0.63929 0.97342 0.70117 0.0
C162 C 0.61118 -0.00511 0.56517 0.0
O163 O 0.66817 0.98948 0.69226 0.0
C164 C 0.679 0.06989 0.59542 0.0
O165 O 0.66289 0.95064 0.63491 0.0
O166 O 0.7007 -0.00489 0.62852 0.0
O167 O 0.59521 0.02168 0.57846 0.0
O168 O 0.62485 0.9716 0.58499 0.0
C169 C 0.63324 0.08236 0.67803 0.0
O170 O 0.68948 0.06261 0.62709 0.0
O171 O 0.64856 0.06076 0.58501 0.0
C172 C 0.69183 0.96277 0.62269 0.0
O173 O 0.65238 0.05632 0.68814 0.0
O174 O 0.62522 0.0858 0.64553 0.0
C175 C 0.55792 0.0128 0.64216 0.0
Fe176 Fe 0.29247 0.31525 -0.00387 0.0
Fe177 Fe 0.34518 0.36319 0.03639 0.0
O178 O 0.33139 0.34203 -0.00366 0.0
Fe179 Fe 0.35713 0.34767 0.95745 0.0
O180 O 0.31941 0.34625 0.92671 0.0
O181 O 0.27211 0.34275 0.962 0.0
O182 O 0.26904 0.34423 0.03008 0.0
C183 C 0.27512 0.37718 0.03818 0.0
C184 C 0.34117 0.27751 0.95054 0.0
O185 O 0.30604 0.38994 0.03604 0.0
C186 C 0.40727 0.33696 0.01199 0.0
O187 O 0.31199 0.28606 0.02971 0.0
O188 O 0.3245 0.32992 0.06605 0.0
O189 O 0.36492 0.30084 0.9539 0.0
O190 O 0.30947 0.28286 0.96172 0.0
C191 C 0.36102 0.41434 0.98437 0.0
O192 O 0.38541 0.33717 0.03761 0.0
O193 O 0.39901 0.34981 0.98177 0.0
C194 C 0.32314 0.29675 0.05974 0.0
O195 O 0.36777 0.40084 0.01451 0.0
O196 O 0.35096 0.39513 0.95878 0.0
C197 C 0.28656 0.35107 0.93249 0.0
Fe198 Fe 0.31601 0.6722 0.94255 0.0
Fe199 Fe 0.36836 0.63065 0.98894 0.0
O200 O 0.3502 0.64027 0.94674 0.0
Fe201 Fe 0.36757 0.61803 0.90844 0.0
O202 O 0.35817 0.65425 0.87735 0.0
O203 O 0.34383 0.69912 0.91231 0.0
O204 O 0.33258 0.70152 0.97991 0.0
C205 C 0.3628 0.7023 -0.0045 0.0
C206 C 0.29764 0.61501 0.89363 0.0
O207 O 0.38308 0.67575 -0.00524 0.0
C208 C 0.36597 0.56452 0.96076 0.0
O209 O 0.28689 0.64703 0.97307 0.0
O210 O 0.32755 0.63866 0.01428 0.0
O211 O 0.32547 0.59748 0.89993 0.0
O212 O 0.29405 0.6474 0.90485 0.0
C213 C 0.42666 0.63663 0.94449 0.0
O214 O 0.35469 0.58476 0.98518 0.0
O215 O 0.37964 0.57718 0.93245 0.0
C216 C 0.29548 0.63763 0.00447 0.0
O217 O 0.41242 0.6215 0.97113 0.0
O218 O 0.41062 0.63839 0.91519 0.0
C219 C 0.35876 0.6873 0.8842 0.0
Fe220 Fe 0.61701 0.36271 0.06549 0.0
Fe221 Fe 0.61001 0.35686 0.98491 0.0
O222 O 0.62999 0.34232 0.02466 0.0
Fe223 Fe 0.66171 0.30746 0.02343 0.0
O224 O 0.63439 0.28024 0.05313 0.0
O225 O 0.6238 0.32273 0.09259 0.0
O226 O 0.57163 0.34755 0.06006 0.0
C227 C 0.55403 0.35429 0.0325 0.0
C228 C 0.68779 0.35779 0.07595 0.0
O229 O 0.56851 0.36993 0.00634 0.0
C230 C 0.68043 0.34509 0.96353 0.0
O231 O 0.60857 0.40685 0.04543 0.0
O232 O 0.6289 0.40067 -0.0095 0.0
O233 O 0.68839 0.32663 0.06134 0.0
O234 O 0.66128 0.37801 0.07298 0.0
C235 C 0.60762 0.28542 0.97368 0.0
O236 O 0.64776 0.34628 0.95604 0.0
O237 O 0.69063 0.33281 -0.00676 0.0
C238 C 0.6216 0.42019 0.017 0.0
O239 O 0.59023 0.31376 0.9781 0.0
O240 O 0.63961 0.28304 0.98525 0.0
C241 C 0.62178 0.29035 0.08287 0.0
Fe242 Fe 0.63584 0.62383 0.94514 0.0
Fe243 Fe 0.68587 0.67228 0.98827 0.0
O244 O 0.64748 0.64505 0.98564 0.0
Fe245 Fe 0.62003 0.63903 0.02345 0.0
O246 O 0.62843 0.5918 0.02346 0.0
O247 O 0.61482 0.58495 0.96676 0.0
O248 O 0.67591 0.59859 0.94532 0.0
C249 C 0.70618 0.61269 0.94326 0.0
C250 C 0.57227 0.64793 0.96754 0.0
O251 O 0.71169 0.64471 0.95475 0.0
C252 C 0.63273 0.70992 0.02868 0.0
O253 O 0.65519 0.65862 0.91656 0.0
O254 O 0.66856 0.7021 0.95386 0.0
O255 O 0.57934 0.63406 -0.00247 0.0
O256 O 0.59501 0.64841 0.94292 0.0
C257 C 0.6885 0.63566 0.05169 0.0
O258 O 0.66578 0.70414 0.02218 0.0
O259 O 0.61017 0.68551 0.02455 0.0
C260 C 0.65771 0.69172 0.9235 0.0
O261 O 0.70418 0.64315 0.02262 0.0
O262 O 0.65608 0.64347 0.05624 0.0
C263 C 0.62162 0.57186 -0.00279 0.0
Fe264 Fe 0.52415 0.81809 0.79957 0.0
Fe265 Fe 0.473 0.84757 0.85579 0.0
O266 O 0.51664 0.84234 0.83942 0.0
Fe267 Fe 0.55215 0.86151 0.86345 0.0
O268 O 0.56458 0.88893 0.82636 0.0
O269 O 0.56336 0.84615 0.78556 0.0
O270 O 0.49616 0.84965 0.77455 0.0
C271 C 0.46408 0.85647 0.78292 0.0
C272 C 0.57902 0.79476 0.84222 0.0
O273 O 0.45161 0.84529 0.81216 0.0
C274 C 0.51226 0.83855 0.91857 0.0
O275 O 0.48564 0.78645 0.80728 0.0
O276 O 0.46978 0.80028 0.86228 0.0
O277 O 0.58418 0.82713 0.85089 0.0
O278 O 0.5525 0.78591 0.82313 0.0
C279 C 0.50016 0.91413 0.86307 0.0
O280 O 0.48575 0.85099 0.90226 0.0
O281 O 0.54163 0.83506 0.90262 0.0
C282 C 0.46862 0.77913 0.83614 0.0
O283 O 0.47574 0.89528 0.84963 0.0
O284 O 0.52599 0.89972 0.87915 0.0
C285 C 0.5733 0.87734 0.79606 0.0
Fe286 Fe 0.12086 0.51882 0.85193 0.0
Fe287 Fe 0.12123 0.43811 0.86287 0.0
O288 O 0.13367 0.47578 0.83688 0.0
Fe289 Fe 0.15791 0.46988 0.79681 0.0
O290 O 0.18492 0.51176 0.80301 0.0
O291 O 0.16567 0.53359 0.85481 0.0
O292 O 0.12455 0.50691 0.89904 0.0
C293 C 0.14429 0.48357 0.91358 0.0
C294 C 0.11027 0.52328 0.77809 0.0
O295 O 0.14905 0.4534 0.89902 0.0
C296 C 0.10474 0.41361 0.79724 0.0
O297 O 0.07475 0.50614 0.84897 0.0
O298 O 0.08186 0.45907 0.88234 0.0
O299 O 0.12389 0.49309 0.7706 0.0
O300 O 0.11602 0.53822 0.80777 0.0
C301 C 0.18848 0.41866 0.83921 0.0
O302 O 0.09346 0.42175 0.82791 0.0
O303 O 0.13395 0.42697 0.78498 0.0
C304 C 0.06174 0.47984 0.86543 0.0
O305 O 0.15737 0.40967 0.84782 0.0
O306 O 0.19367 0.4465 0.82063 0.0
C307 C 0.18816 0.53283 0.8299 0.0
Fe308 Fe 0.48661 0.18157 0.81721 0.0
Fe309 Fe 0.53756 0.1304 0.85557 0.0
O310 O 0.49384 0.14414 0.84478 0.0
Fe311 Fe 0.4577 0.12028 0.86287 0.0
O312 O 0.42766 0.1294 0.82626 0.0
O313 O 0.46092 0.15445 0.78484 0.0
O314 O 0.52705 0.17243 0.78874 0.0
C315 C 0.54596 0.14395 0.78563 0.0
C316 C 0.43279 0.18741 0.87217 0.0
O317 O 0.54657 0.12067 0.80987 0.0
C318 C 0.50399 0.12669 0.91921 0.0
O319 O 0.51123 0.21009 0.84903 0.0
O320 O 0.55742 0.17487 0.85138 0.0
O321 O 0.44238 0.15883 0.88695 0.0
O322 O 0.44506 0.19607 0.84133 0.0
C323 C 0.50073 0.06563 0.84581 0.0
O324 O 0.52981 0.14027 0.9024 0.0
O325 O 0.4814 0.10751 0.9031 0.0
C326 C 0.54255 0.20382 0.85988 0.0
O327 O 0.52569 0.08309 0.86059 0.0
O328 O 0.47145 0.0805 0.83933 0.0
C329 C 0.43413 0.13546 0.79376 0.0
Fe330 Fe 0.85393 0.40762 0.85745 0.0
Fe331 Fe 0.86235 0.48867 0.85875 0.0
O332 O 0.83923 0.45055 0.84344 0.0
Fe333 Fe 0.80244 0.45539 0.81488 0.0
O334 O 0.77378 0.43149 0.84624 0.0
O335 O 0.81006 0.38665 0.85606 0.0
O336 O 0.84445 0.41862 0.90346 0.0
C337 C 0.85787 0.44565 0.91833 0.0
C338 C 0.84108 0.39401 0.78779 0.0
O339 O 0.87614 0.46772 0.90039 0.0
C340 C 0.84578 0.50887 0.78885 0.0
O341 O 0.90101 0.42091 0.86061 0.0
O342 O 0.90121 0.47381 0.83513 0.0
O343 O 0.81308 0.41365 0.78847 0.0
O344 O 0.86334 0.39479 0.81271 0.0
C345 C 0.7951 0.51208 0.86755 0.0
O346 O 0.85263 0.51714 0.82069 0.0
O347 O 0.8288 0.4803 0.78183 0.0
C348 C 0.91711 0.44537 0.84331 0.0
O349 O 0.82418 0.50486 0.88231 0.0
O350 O 0.78666 0.49769 0.83748 0.0
C351 C 0.78018 0.40141 0.86024 0.0
Fe352 Fe 0.46384 0.16955 0.18188 0.0
Fe353 Fe 0.5058 0.12242 0.12988 0.0
O354 O 0.46502 0.1407 0.14442 0.0
Fe355 Fe 0.4261 0.12885 0.12094 0.0
O356 O 0.41825 0.17424 0.10992 0.0
O357 O 0.42791 0.19858 0.16306 0.0
O358 O 0.49572 0.20046 0.16105 0.0
C359 C 0.52617 0.19095 0.15021 0.0
C360 C 0.40377 0.1278 0.19215 0.0
O361 O 0.53356 0.15819 0.14764 0.0
C362 C 0.46022 0.06563 0.12307 0.0
O363 O 0.49953 0.144 0.20595 0.0
O364 O 0.50913 0.09758 0.17032 0.0
O365 O 0.39635 0.13075 0.15948 0.0
O366 O 0.43226 0.14058 0.20477 0.0
C367 C 0.47744 0.14209 0.06748 0.0
O368 O 0.48606 0.08264 0.10984 0.0
O369 O 0.43229 0.08201 0.13153 0.0
C370 C 0.51033 0.11171 0.20081 0.0
O371 O 0.50309 0.14694 0.08859 0.0
O372 O 0.44929 0.12602 0.07789 0.0
C373 C 0.41653 0.20048 0.13094 0.0
Fe374 Fe 0.86004 0.459 0.12708 0.0
Fe375 Fe 0.84413 0.5377 0.11375 0.0
O376 O 0.83961 0.49938 0.14099 0.0
Fe377 Fe 0.81442 0.50129 0.18091 0.0
O378 O 0.8438 0.46867 0.20507 0.0
O379 O 0.88699 0.45787 0.16627 0.0
O380 O 0.89737 0.48169 0.10506 0.0
C381 C 0.91099 0.51179 0.11306 0.0
C382 C 0.79443 0.43565 0.15249 0.0
O383 O 0.89158 0.53824 0.1207 0.0
C384 C 0.77412 0.54118 0.1301 0.0
O385 O 0.83388 0.45772 0.08676 0.0
O386 O 0.84829 0.51264 0.07224 0.0
O387 O 0.78476 0.46582 0.16476 0.0
O388 O 0.82692 0.42926 0.14714 0.0
C389 C 0.84826 0.56679 0.18248 0.0
O390 O 0.79729 0.53821 0.10593 0.0
O391 O 0.78138 0.53403 0.16268 0.0
C392 C 0.83587 0.48223 0.06383 0.0
O393 O 0.84056 0.5703 0.14995 0.0
O394 O 0.84246 0.53745 0.19867 0.0
C395 C 0.87489 0.45653 0.1976 0.0
Fe396 Fe 0.52886 0.86039 0.13562 0.0
Fe397 Fe 0.48114 0.79754 0.15767 0.0
O398 O 0.48674 0.83903 0.13613 0.0
Fe399 Fe 0.45065 0.85988 0.11498 0.0
O400 O 0.47881 0.8805 0.0805 0.0
O401 O 0.53135 0.85617 0.0879 0.0
O402 O 0.55473 0.81879 0.13809 0.0
C403 C 0.54613 0.78902 0.12445 0.0
C404 C 0.48143 0.91747 0.14515 0.0
O405 O 0.51444 0.77743 0.12762 0.0
C406 C 0.42047 0.83412 0.17812 0.0
O407 O 0.52727 0.86503 0.18286 0.0
O408 O 0.51497 0.80799 0.19312 0.0
O409 O 0.45421 0.89787 0.14446 0.0
O410 O 0.51087 0.90576 0.13343 0.0
C411 C 0.43791 0.79161 0.09448 0.0
O412 O 0.44774 0.81677 0.188 0.0
O413 O 0.41669 0.84241 0.14564 0.0
C414 C 0.5262 0.83871 0.20366 0.0
O415 O 0.44627 0.78089 0.12583 0.0
O416 O 0.44505 0.82303 0.08474 0.0
C417 C 0.50731 0.86751 0.06766 0.0
Fe418 Fe 0.1241 0.47937 0.13004 0.0
Fe419 Fe 0.17666 0.5322 0.16335 0.0
O420 O 0.14078 0.52367 0.13424 0.0
Fe421 Fe 0.12146 0.55798 0.1086 0.0
O422 O 0.07811 0.5496 0.12802 0.0
O423 O 0.07972 0.49229 0.11606 0.0
O424 O 0.10857 0.48127 0.17521 0.0
C425 C 0.12928 0.48486 0.20141 0.0
C426 C 0.13201 0.50082 0.06182 0.0
O427 O 0.16062 0.49822 0.19712 0.0
C428 C 0.19181 0.57585 0.10191 0.0
O429 O 0.16508 0.45735 0.14354 0.0
O430 O 0.20424 0.49993 0.13876 0.0
O431 O 0.11379 0.52818 0.07047 0.0
O432 O 0.13963 0.47714 0.08449 0.0
C433 C 0.13295 0.59074 0.17543 0.0
O434 O 0.19768 0.56731 0.1344 0.0
O435 O 0.16264 0.56876 0.08739 0.0
C436 C 0.19553 0.46749 0.13399 0.0
O437 O 0.15094 0.56521 0.18839 0.0
O438 O 0.12715 0.59298 0.14226 0.0
C439 C 0.06236 0.52009 0.124 0.0
Fe440 Fe 0.79818 0.81205 0.49346 0.0
Fe441 Fe 0.85231 0.85973 0.53244 0.0
O442 O 0.83526 0.84123 0.4925 0.0
Fe443 Fe 0.85596 0.85284 0.45144 0.0
O444 O 0.8163 0.87382 0.43614 0.0
O445 O 0.77967 0.8295 0.45066 0.0
O446 O 0.77064 0.84615 0.51602 0.0
C447 C 0.77979 0.86337 0.54377 0.0
C448 C 0.83965 0.78069 0.44139 0.0
O449 O 0.81043 0.85969 0.55641 0.0
C450 C 0.9119 0.84006 0.49423 0.0
O451 O 0.8116 0.79021 0.53621 0.0
O452 O 0.86292 0.81643 0.54922 0.0
O453 O 0.84446 0.81143 0.4285 0.0
O454 O 0.8237 0.77654 0.47094 0.0
C455 C 0.8539 0.91697 0.48823 0.0
O456 O 0.89757 0.86185 0.51576 0.0
O457 O 0.89691 0.83189 0.46527 0.0
C458 C 0.84139 0.79074 0.55267 0.0
O459 O 0.84196 0.90434 0.51712 0.0
O460 O 0.87046 0.8971 0.46645 0.0
C461 C 0.78669 0.85825 0.43327 0.0
Fe462 Fe 0.80881 0.18076 0.44457 0.0
Fe463 Fe 0.84207 0.12974 0.49823 0.0
O464 O 0.83775 0.14472 0.45369 0.0
Fe465 Fe 0.86287 0.12377 0.41956 0.0
O466 O 0.88413 0.16511 0.40747 0.0
O467 O 0.83666 0.19966 0.40805 0.0
O468 O 0.8344 0.21012 0.47468 0.0
C469 C 0.84016 0.20239 0.50702 0.0
C470 C 0.79572 0.13398 0.38849 0.0
O471 O 0.83006 0.17242 0.5185 0.0
C472 C 0.84494 0.06623 0.45994 0.0
O473 O 0.77595 0.16728 0.48014 0.0
O474 O 0.79677 0.11508 0.49818 0.0
O475 O 0.82884 0.12876 0.38527 0.0
O476 O 0.78313 0.15305 0.41372 0.0
C477 C 0.91018 0.13439 0.47602 0.0
O478 O 0.85457 0.08438 0.48661 0.0
O479 O 0.84331 0.08032 0.42946 0.0
C480 C 0.77145 0.13683 0.49538 0.0
O481 O 0.88767 0.14407 0.49911 0.0
O482 O 0.9012 0.11637 0.44861 0.0
C483 C 0.86925 0.1943 0.40023 0.0
Fe484 Fe 0.11667 0.85491 0.56244 0.0
Fe485 Fe 0.11467 0.86468 0.48186 0.0
O486 O 0.13235 0.84246 0.51918 0.0
Fe487 Fe 0.16418 0.80816 0.51318 0.0
O488 O 0.13588 0.77631 0.53688 0.0
O489 O 0.12205 0.81058 0.58246 0.0
O490 O 0.07196 0.84107 0.55111 0.0
C491 C 0.05634 0.85278 0.52397 0.0
C492 C 0.18752 0.84894 0.5744 0.0
O493 O 0.07216 0.87388 0.50302 0.0
C494 C 0.18543 0.85436 0.46015 0.0
O495 O 0.10908 0.90236 0.55048 0.0
O496 O 0.13367 0.90601 0.49717 0.0
O497 O 0.18956 0.8212 0.55417 0.0
O498 O 0.16012 0.86823 0.57558 0.0
C499 C 0.11264 0.79655 0.45756 0.0
O500 O 0.15311 0.8591 0.45333 0.0
O501 O 0.19461 0.83745 0.48791 0.0
C502 C 0.12344 0.92075 0.52569 0.0
O503 O 0.09538 0.82436 0.46511 0.0
O504 O 0.1431 0.79036 0.47144 0.0
C505 C 0.12103 0.78051 0.56696 0.0
Fe506 Fe 0.11748 0.12505 0.46484 0.0
Fe507 Fe 0.17666 0.16894 0.50019 0.0
O508 O 0.13641 0.14472 0.50314 0.0
Fe509 Fe 0.11439 0.14013 0.54494 0.0
O510 O 0.12034 0.09228 0.54394 0.0
O511 O 0.09868 0.08691 0.48958 0.0
O512 O 0.15571 0.0975 0.45695 0.0
C513 C 0.18652 0.10962 0.45163 0.0
C514 C 0.0583 0.14979 0.4972 0.0
O515 O 0.1956 0.14045 0.46368 0.0
C516 C 0.13228 0.21015 0.54641 0.0
O517 O 0.13323 0.15947 0.43358 0.0
O518 O 0.15765 0.20041 0.46826 0.0
O519 O 0.06975 0.13675 0.52608 0.0
O520 O 0.0782 0.1518 0.47024 0.0
C521 C 0.18524 0.13181 0.56291 0.0
O522 O 0.16365 0.20185 0.53592 0.0
O523 O 0.10761 0.18733 0.54701 0.0
C524 C 0.14183 0.19177 0.43961 0.0
O525 O 0.19718 0.1379 0.53179 0.0
O526 O 0.1549 0.14306 0.57193 0.0
C527 C 0.10957 0.07301 0.51847 0.0
C528 C 0.04224 0.37337 0.4906 0.0
C529 C 0.01325 0.37288 0.46717 0.0
H530 H 0.05881 0.37402 0.54524 0.0
C531 C 0.97844 0.37645 0.48053 0.0
H532 H 0.06929 0.37101 0.4806 0.0
C533 C 0.97247 0.37896 0.517 0.0
C534 C 0.00119 0.37736 0.54073 0.0
H535 H 0.95567 0.37698 0.46283 0.0
H536 H 0.9452 0.38047 0.52654 0.0
C537 C 0.03622 0.37532 0.52735 0.0
C538 C 0.62248 0.02543 0.47103 0.0
C539 C 0.63566 -0.00573 0.4545 0.0
H540 H 0.60271 0.04934 0.51871 0.0
C541 C 0.64188 0.96335 0.47489 0.0
H542 H 0.61782 0.04984 0.45604 0.0
C543 C 0.63326 0.96317 0.51108 0.0
C544 C 0.61818 -0.00621 0.52696 0.0
H545 H 0.65215 0.93902 0.46273 0.0
H546 H 0.638 0.93903 0.52645 0.0
C547 C 0.61329 0.02501 0.50682 0.0
C548 C -0.0056 0.5997 0.4903 0.0
C549 C 0.96488 0.6136 0.50887 0.0
H550 H 0.01992 0.59206 0.43992 0.0
C551 C 0.93748 0.63053 0.48998 0.0
H552 H 0.01598 0.58652 0.50418 0.0
C553 C 0.93977 0.63366 0.45296 0.0
C554 C 0.96949 0.61993 0.43454 0.0
H555 H 0.9145 0.64156 0.50375 0.0
H556 H 0.91859 0.64731 0.4389 0.0
C557 C -0.00332 0.60283 0.45347 0.0
C558 C 0.33288 0.94434 0.47685 0.0
C559 C 0.34381 0.97309 0.45525 0.0
H560 H 0.32074 0.92693 0.52991 0.0
C561 C 0.34676 0.00773 0.46985 0.0
H562 H 0.32956 0.91757 0.46586 0.0
C563 C 0.34124 0.01322 0.50605 0.0
C564 C 0.33307 0.98407 0.52829 0.0
H565 H 0.35397 0.03062 0.45344 0.0
H566 H 0.345 0.04004 0.51678 0.0
C567 C 0.32757 0.9498 0.51332 0.0
C568 C 0.47172 0.95405 0.35807 0.0
C569 C 0.45071 0.98156 0.34402 0.0
H570 H 0.52311 0.9379 0.3747 0.0
C571 C 0.46665 0.01406 0.33327 0.0
H572 H 0.46026 0.92853 0.36611 0.0
C573 C 0.503 0.0195 0.33825 0.0
C574 C 0.52347 -0.00743 0.3542 0.0
H575 H 0.45097 0.0356 0.32201 0.0
H576 H 0.51487 0.04482 0.33018 0.0
C577 C 0.50771 0.9596 0.36336 0.0
C578 C 0.97434 0.51591 0.32912 0.0
C579 C 0.00189 0.53924 0.31871 0.0
H580 H 0.96066 0.46609 0.35311 0.0
C581 C 0.03727 0.52701 0.31815 0.0
H582 H 0.94672 0.52433 0.32896 0.0
C583 C 0.04527 0.49336 0.33195 0.0
C584 C 0.01798 0.47197 0.34642 0.0
H585 H 0.05899 0.5443 0.30964 0.0
H586 H 0.07283 0.48481 0.33272 0.0
C587 C 0.98238 0.48279 0.3435 0.0
C588 C 0.46559 0.9799 0.63 0.0
C589 C 0.44676 0.01226 0.62991 0.0
H590 H 0.51551 0.9545 0.63661 0.0
C591 C 0.46373 0.04448 0.63949 0.0
H592 H 0.45274 0.9545 0.6239 0.0
C593 C 0.50004 0.04459 0.64649 0.0
C594 C 0.51926 0.01237 0.64422 0.0
H595 H 0.44926 0.0696 0.64048 0.0
H596 H 0.51325 0.06997 0.65184 0.0
C597 C 0.50144 0.97985 0.63776 0.0
C598 C 0.96969 0.46559 0.68004 0.0
C599 C 0.9449 0.4423 0.66439 0.0
H600 H -0.00318 0.51562 0.67522 0.0
C601 C 0.92 0.45558 0.63991 0.0
H602 H -0.0115 0.45583 0.69965 0.0
C603 C 0.92541 0.48931 0.62499 0.0
C604 C 0.95504 0.50973 0.63543 0.0
H605 H 0.90012 0.43805 0.62808 0.0
H606 H 0.90841 0.49791 0.60331 0.0
C607 C 0.97515 0.49919 0.66518 0.0
C608 C 0.36366 0.47615 0.00788 0.0
C609 C 0.36557 0.45255 0.97872 0.0
H610 H 0.36194 0.53078 0.02485 0.0
C611 C 0.36928 0.46582 0.94381 0.0
H612 H 0.36054 0.46629 0.03499 0.0
C613 C 0.37021 0.50252 0.93802 0.0
C614 C 0.36702 0.52615 0.96705 0.0
H615 H 0.3709 0.44788 0.92097 0.0
H616 H 0.37242 0.51235 0.91082 0.0
C617 C 0.36414 0.51287 0.00205 0.0
C618 C 0.45835 0.33449 0.05412 0.0
C619 C 0.44488 0.33145 0.0192 0.0
H620 H 0.5048 0.34451 0.08594 0.0
C621 C 0.46825 0.32961 -0.01003 0.0
H622 H 0.44068 0.33533 0.07713 0.0
C623 C 0.50407 0.336 -0.00511 0.0
C624 C 0.51719 0.34299 0.02924 0.0
H625 H 0.45853 0.32616 0.9629 0.0
H626 H 0.52123 0.33701 0.97151 0.0
C627 C 0.49473 0.34007 0.05915 0.0
C628 C 0.62364 0.4734 0.97756 0.0
C629 C 0.62206 0.45899 0.01222 0.0
H630 H 0.62413 0.52079 0.94569 0.0
C631 C 0.61991 0.48186 0.04197 0.0
H632 H 0.62522 0.45625 0.95412 0.0
C633 C 0.61939 0.51881 0.03709 0.0
C634 C 0.62059 0.53315 0.00239 0.0
H635 H 0.61882 0.47124 0.06892 0.0
H636 H 0.61803 0.53608 0.06045 0.0
C637 C 0.62268 0.51026 0.97267 0.0
C638 C 0.5117 0.6618 0.98728 0.0
C639 C 0.53545 0.65531 0.9591 0.0
H640 H 0.45757 0.66105 0.00418 0.0
C641 C 0.52286 0.65061 0.92405 0.0
H642 H 0.52112 0.66673 0.01425 0.0
C643 C 0.48645 0.64728 0.91827 0.0
C644 C 0.46314 0.64869 0.94758 0.0
H645 H 0.54102 0.64631 0.90182 0.0
H646 H 0.47694 0.64065 0.89172 0.0
C647 C 0.47558 0.65844 0.98154 0.0
C648 C 0.4788 0.84915 0.97417 0.0
C649 C 0.51124 0.84038 0.95752 0.0
H650 H 0.45269 0.8669 0.0214 0.0
C651 C 0.54268 0.83954 0.97766 0.0
H652 H 0.45399 0.84956 0.95944 0.0
C653 C 0.54177 0.84916 0.01367 0.0
C654 C 0.50952 0.86 0.02952 0.0
H655 H 0.56802 0.8328 0.9654 0.0
H656 H 0.56623 0.84851 0.02894 0.0
C657 C 0.47808 0.85959 0.00959 0.0
C658 C 0.14952 0.46196 0.01059 0.0
C659 C 0.14249 0.49617 0.02467 0.0
H660 H 0.15633 0.43091 0.9629 0.0
C661 C 0.14466 0.52653 0.00271 0.0
H662 H 0.14905 0.43835 0.02748 0.0
C663 C 0.14961 0.52244 0.96628 0.0
C664 C 0.15181 0.48792 0.95146 0.0
H665 H 0.14084 0.55334 0.01341 0.0
H666 H 0.14884 0.5461 0.94944 0.0
C667 C 0.15409 0.45779 0.97385 0.0
C668 C 0.52496 0.14728 0.97907 0.0
C669 C 0.49767 0.13487 0.95671 0.0
H670 H 0.53984 0.15972 0.03288 0.0
C671 C 0.46297 0.13067 0.97015 0.0
H672 H 0.5517 0.15156 0.96883 0.0
C673 C 0.45594 0.13638 0.00591 0.0
C674 C 0.48374 0.14528 0.02914 0.0
H675 H 0.44116 0.12215 0.95319 0.0
H676 H 0.42904 0.13176 0.01561 0.0
C677 C 0.51806 0.15225 0.01542 0.0
C678 C 0.83758 0.42779 0.97927 0.0
C679 C 0.84921 0.45427 0.95525 0.0
H680 H 0.82366 0.41603 0.0336 0.0
C681 C 0.85109 0.49025 0.96609 0.0
H682 H 0.83514 0.39997 0.97097 0.0
C683 C 0.84331 0.49957 0.00095 0.0
C684 C 0.83479 0.47287 0.02598 0.0
H685 H 0.859 0.51134 0.94773 0.0
H686 H 0.84599 0.52755 0.00863 0.0
C687 C 0.83064 0.43703 0.01476 0.0
C688 C 0.97455 0.43083 0.87157 0.0
C689 C 0.95573 0.44747 0.84393 0.0
H690 H 0.02315 0.42924 0.90097 0.0
C691 C 0.97283 0.47247 0.82165 0.0
H692 H 0.96177 0.4115 0.88911 0.0
C693 C 0.00732 0.48329 0.829 0.0
C694 C 0.02528 0.46877 0.85837 0.0
H695 H 0.95878 0.48527 0.79987 0.0
H696 H 0.01968 0.50334 0.81195 0.0
C697 C 0.00928 0.4415 0.8788 0.0
C698 C 0.53139 0.00943 0.86151 0.0
C699 C 0.50198 0.02658 0.84626 0.0
H700 H 0.55334 0.96031 0.87974 0.0
C701 C 0.47227 0.00636 0.8354 0.0
H702 H 0.55477 0.02436 0.86985 0.0
C703 C 0.47135 0.96961 0.84131 0.0
C704 C 0.50012 0.95281 0.85813 0.0
H705 H 0.44935 0.01901 0.82329 0.0
H706 H 0.44807 0.95448 0.83299 0.0
C707 C 0.53037 0.97283 0.86762 0.0
C708 C 0.96615 0.54802 0.12242 0.0
C709 C 0.94971 0.51512 0.11411 0.0
H710 H 0.01527 0.57547 0.13258 0.0
C711 C 0.97046 0.48423 0.10943 0.0
H712 H 0.95065 0.57219 0.12626 0.0
C713 C 0.007 0.48601 0.11331 0.0
C714 C 0.02359 0.51878 0.12167 0.0
H715 H 0.95851 0.45838 0.10335 0.0
H716 H 0.02219 0.46156 0.10964 0.0
C717 C 0.003 0.54986 0.12621 0.0
C718 C 0.50557 0.97878 0.14134 0.0
C719 C 0.47639 0.95613 0.14772 0.0
H720 H 0.52299 0.03115 0.12738 0.0
C721 C 0.44186 0.97053 0.15023 0.0
H722 H 0.53254 0.96852 0.1401 0.0
C723 C 0.43633 0.00662 0.1428 0.0
C724 C 0.46527 0.02829 0.13281 0.0
H725 H 0.41894 0.9536 0.15576 0.0
H726 H 0.40945 0.01713 0.14346 0.0
C727 C 0.50001 0.01452 0.13353 0.0
C728 C 0.83538 0.97821 0.50584 0.0
C729 C 0.84908 0.95484 0.47984 0.0
H730 H 0.82261 0.03233 0.51916 0.0
C731 C 0.85721 0.96775 0.44538 0.0
H732 H 0.82821 0.9688 0.53233 0.0
C733 C 0.85355 0.00407 0.43769 0.0
C734 C 0.84206 0.02763 0.46454 0.0
H735 H 0.86699 0.94995 0.42458 0.0
H736 H 0.86143 0.01393 0.41155 0.0
C737 C 0.83198 0.01441 0.49824 0.0
C738 C -0.00328 0.83136 0.54274 0.0
C739 C 0.02028 0.84179 0.51558 0.0
H740 H 0.94219 0.82192 0.55641 0.0
C741 C 0.00887 0.84313 0.47983 0.0
H742 H 0.00537 0.82934 0.57028 0.0
C743 C 0.97324 0.83796 0.47181 0.0
C744 C 0.94904 0.83216 0.49965 0.0
H745 H 0.02708 0.85003 0.45831 0.0
H746 H 0.96428 0.84201 0.44459 0.0
C747 C 0.96094 0.82683 0.53478 0.0
C748 C 0.12003 0.98005 0.55658 0.0
C749 C 0.11911 0.95961 0.52507 0.0
H750 H 0.11794 0.03293 0.57922 0.0
C751 C 0.1131 0.97639 0.49209 0.0
H752 H 0.1245 0.9674 0.58224 0.0
C753 C 0.1086 0.01316 0.4904 0.0
C754 C 0.11052 0.03396 0.52161 0.0
H755 H 0.11168 0.96107 0.46742 0.0
H756 H 0.10462 0.02533 0.46442 0.0
C757 C 0.11616 0.01727 0.55481 0.0
C758 C 0.0063 0.15108 0.45716 0.0
C759 C 0.02006 0.15268 0.49198 0.0
H760 H 0.96019 0.14308 0.42506 0.0
C761 C -0.00305 0.15216 0.52159 0.0
H762 H 0.02354 0.15187 0.43382 0.0
C763 C 0.96064 0.14735 0.51647 0.0
C764 C 0.94749 0.14246 0.48175 0.0
H765 H 0.00708 0.15391 0.54865 0.0
H766 H 0.94317 0.14581 0.53961 0.0
C767 C 0.9702 0.1456 0.45211 0.0
C768 C 0.10495 0.2118 0.38721 0.0
C769 C 0.13039 0.21974 0.4139 0.0
H770 H 0.06767 0.23287 0.34906 0.0
C771 C 0.14157 0.2554 0.41831 0.0
H772 H 0.09574 0.1845 0.38306 0.0
C773 C 0.12579 0.28277 0.39861 0.0
C774 C 0.09821 0.27529 0.37417 0.0
H775 H 0.16128 0.26247 0.43824 0.0
H776 H 0.13387 0.31023 0.40404 0.0
C777 C 0.08894 0.2394 0.3675 0.0
C778 C 0.78268 0.08078 0.3494 0.0
C779 C 0.77148 0.11358 0.36484 0.0
H780 H 0.76632 0.03024 0.32654 0.0
C781 C 0.73575 0.12368 0.36178 0.0
H782 H 0.81016 0.07225 0.35136 0.0
C783 C 0.7111 0.10001 0.34683 0.0
C784 C 0.72157 0.06559 0.33523 0.0
H785 H 0.72643 0.14884 0.37301 0.0
H786 H 0.68318 0.1074 0.34722 0.0
C787 C 0.75776 0.05676 0.33488 0.0
C788 C 0.86491 0.71936 0.36674 0.0
C789 C 0.90214 0.71961 0.37073 0.0
H790 H 0.8149 0.73866 0.38729 0.0
C791 C 0.91705 0.73374 0.4021 0.0
H792 H 0.85287 0.70793 0.34298 0.0
C793 C 0.89524 0.74919 0.42822 0.0
C794 C 0.85831 0.75157 0.423 0.0
H795 H 0.94561 0.73317 0.40624 0.0
H796 H 0.90757 0.76175 0.45126 0.0
C797 C 0.84316 0.73598 0.3924 0.0
C798 C 0.27055 0.87252 0.4075 0.0
C799 C 0.25755 0.89492 0.38011 0.0
H800 H 0.25811 0.84235 0.45503 0.0
C801 C 0.22119 0.90274 0.37905 0.0
H802 H 0.2987 0.86651 0.40928 0.0
C803 C 0.19834 0.88922 0.40506 0.0
C804 C 0.21115 0.86753 0.43307 0.0
H805 H 0.21041 0.92006 0.35853 0.0
H806 H 0.17047 0.89649 0.40338 0.0
C807 C 0.2475 0.85902 0.43393 0.0
C808 C 0.09395 0.71939 0.56287 0.0
C809 C 0.09851 0.75142 0.58212 0.0
H810 H 0.06614 0.66987 0.55779 0.0
C811 C 0.07811 0.75683 0.61352 0.0
H812 H 0.10892 0.71433 0.53851 0.0
C813 C 0.05307 0.73104 0.62479 0.0
C814 C 0.04784 0.69953 0.60472 0.0
H815 H 0.08076 0.78142 0.62886 0.0
H816 H 0.03742 0.73609 0.6487 0.0
C817 C 0.06898 0.69394 0.5739 0.0
C818 C 0.22469 0.04509 0.59493 0.0
C819 C 0.23882 0.05485 0.62839 0.0
H820 H 0.19838 0.06264 0.54736 0.0
C821 C 0.23153 0.08924 0.64215 0.0
H822 H 0.23054 0.01898 0.58343 0.0
C823 C 0.21303 0.11435 0.62133 0.0
C824 C 0.20272 0.10554 0.58626 0.0
H825 H 0.24301 0.09778 0.66734 0.0
H826 H 0.20878 0.14122 0.63168 0.0
C827 C 0.20731 0.07034 0.57385 0.0
C828 C 0.87098 0.21214 0.56512 0.0
C829 C 0.86471 0.22346 0.52973 0.0
H830 H 0.90032 0.21994 0.61343 0.0
C831 C 0.88522 0.25166 0.51562 0.0
H832 H 0.85597 0.19012 0.57676 0.0
C833 C 0.911 0.26857 0.53675 0.0
C834 C 0.91685 0.25747 0.57231 0.0
H835 H 0.88164 0.26041 0.48825 0.0
H836 H 0.92598 0.29079 0.52544 0.0
C837 C 0.89688 0.22878 0.58607 0.0
C838 C 0.69849 0.90911 0.58297 0.0
C839 C 0.71429 0.93831 0.60127 0.0
H840 H 0.70664 0.86268 0.54955 0.0
C841 C 0.7511 0.94353 0.5987 0.0
H842 H 0.66993 0.90481 0.58402 0.0
C843 C 0.77193 0.91912 0.57956 0.0
C844 C 0.75631 0.88947 0.56187 0.0
H845 H 0.76388 0.96589 0.61221 0.0
H846 H 0.80049 0.92342 0.57874 0.0
C847 C 0.7193 0.8851 0.56304 0.0
C848 C 0.36432 0.0745 0.20167 0.0
C849 C 0.38045 0.10599 0.2151 0.0
H850 H 0.33734 0.02506 0.21443 0.0
C851 C 0.37772 0.11403 0.25149 0.0
H852 H 0.36638 0.06769 0.17353 0.0
C853 C 0.36067 0.09024 0.2745 0.0
C854 C 0.34675 0.05732 0.26181 0.0
H855 H 0.38977 0.13819 0.26236 0.0
H856 H 0.36002 0.09711 0.30269 0.0
C857 C 0.34782 0.05007 0.22498 0.0
C858 C 0.94456 0.39302 0.23495 0.0
C859 C 0.94121 0.39866 0.2718 0.0
H860 H 0.92646 0.40708 0.1828 0.0
C861 C 0.91444 0.42229 0.2844 0.0
H862 H 0.96486 0.37521 0.22442 0.0
C863 C 0.89211 0.44047 0.26068 0.0
C864 C 0.89639 0.43592 0.22374 0.0
H865 H 0.91094 0.4271 0.31281 0.0
H866 H 0.87226 0.45879 0.27119 0.0
C867 C 0.92261 0.41162 0.2112 0.0
C868 C 0.6035 0.8741 0.25026 0.0
C869 C 0.58605 0.89511 0.2761 0.0
H870 H 0.59754 0.83535 0.20825 0.0
C871 C 0.55004 0.88753 0.28421 0.0
H872 H 0.6314 0.87859 0.2441 0.0
C873 C 0.53092 0.86235 0.26419 0.0
C874 C 0.54743 0.84414 0.23586 0.0
H875 H 0.53586 0.90278 0.30447 0.0
H876 H 0.50232 0.86037 0.26808 0.0
C877 C 0.58441 0.84844 0.23063 0.0
C878 C 0.06249 0.65302 0.21245 0.0
C879 C 0.07187 0.65425 0.2487 0.0
H880 H 0.07496 0.63212 0.16055 0.0
C881 C 0.10458 0.63919 0.25934 0.0
H882 H 0.03754 0.6643 0.20343 0.0
C883 C 0.12568 0.62024 0.23505 0.0
C884 C 0.11492 0.61655 0.19943 0.0
H885 H 0.11295 0.64003 0.28703 0.0
H886 H 0.14953 0.60711 0.24455 0.0
C887 C 0.08397 0.63448 0.18796 0.0
C888 C 0.45482 0.89893 0.73192 0.0
C889 C 0.44071 0.87891 0.76031 0.0
H890 H 0.44487 0.93685 0.69066 0.0
C891 C 0.40424 0.88292 0.76913 0.0
H892 H 0.48281 0.89714 0.72491 0.0
C893 C 0.38228 0.90595 0.74956 0.0
C894 C 0.39633 0.92547 0.72074 0.0
H895 H 0.39252 0.86816 0.79122 0.0
H896 H 0.35427 0.90776 0.75642 0.0
C897 C 0.43296 0.92198 0.71252 0.0
C898 C 0.07768 0.34142 0.73052 0.0
C899 C 0.04187 0.33559 0.74059 0.0
H900 H 0.12555 0.37204 0.7395 0.0
C901 C 0.02895 0.35158 0.77189 0.0
H902 H 0.08795 0.33003 0.70584 0.0
C903 C 0.05006 0.37597 0.79064 0.0
C904 C 0.0846 0.38504 0.77839 0.0
H905 H 0.0012 0.34844 0.77954 0.0
H906 H 0.03825 0.38945 0.81352 0.0
C907 C 0.09883 0.36631 0.74906 0.0
C908 C 0.58492 0.12579 0.69461 0.0
C909 C 0.6158 0.10648 0.70426 0.0
H910 H 0.53806 0.15346 0.71321 0.0
C911 C 0.62661 0.10674 0.74001 0.0
H912 H 0.57589 0.1262 0.66712 0.0
C913 C 0.60531 0.12299 0.766 0.0
C914 C 0.57248 0.13877 0.7569 0.0
H915 H 0.65036 0.09258 0.74823 0.0
H916 H 0.61323 0.12077 0.79376 0.0
C917 C 0.56327 0.14172 0.72083 0.0
C918 C 0.89206 0.58732 0.74346 0.0
C919 C 0.88948 0.57765 0.70736 0.0
H920 H 0.88002 0.57326 0.7975 0.0
C921 C 0.86974 0.54658 0.69808 0.0
H922 H 0.90705 0.61091 0.75149 0.0
C923 C 0.85444 0.52478 0.72432 0.0
C924 C 0.85835 0.53357 0.76049 0.0
H925 H 0.86697 0.53826 0.67043 0.0
H926 H 0.84055 0.50052 0.71629 0.0
C927 C 0.87663 0.56553 0.76976 0.0
C928 C 0.20906 0.40658 0.10873 0.0
C929 C 0.21587 0.44388 0.10967 0.0
H930 H 0.22199 0.35572 0.08459 0.0
C931 C 0.23868 0.45894 0.08399 0.0
H932 H 0.19088 0.3944 0.12781 0.0
C933 C 0.25522 0.4371 0.05865 0.0
C934 C 0.24994 0.39957 0.05874 0.0
H935 H 0.24345 0.48766 0.08316 0.0
H936 H 0.27343 0.44951 0.0397 0.0
C937 C 0.22612 0.38452 0.08355 0.0
C938 C 0.2371 0.61231 0.8654 0.0
C939 C 0.27102 0.59762 0.87005 0.0
H940 H 0.18397 0.60311 0.84698 0.0
C941 C 0.27912 0.56446 0.85332 0.0
H942 H 0.23017 0.63788 0.87741 0.0
C943 C 0.25285 0.54479 0.83545 0.0
C944 C 0.2181 0.55793 0.83407 0.0
H945 H 0.30531 0.5526 0.85569 0.0
H946 H 0.2589 0.51798 0.82585 0.0
C947 C 0.21086 0.59258 0.84756 0.0
C948 C 0.38583 0.2358 0.87294 0.0
C949 C 0.4035 0.20752 0.88997 0.0
H950 H 0.34905 0.27933 0.879 0.0
C951 C 0.39253 0.19771 0.92486 0.0
H952 H 0.3931 0.24366 0.84598 0.0
C953 C 0.36685 0.21756 0.94337 0.0
C954 C 0.35132 0.24748 0.92736 0.0
H955 H 0.40511 0.17577 0.93881 0.0
H956 H 0.3618 0.21165 0.97134 0.0
C957 C 0.35987 0.25551 0.89148 0.0
C958 C 0.76564 0.36043 0.91109 0.0
C959 C 0.75407 0.38456 0.88461 0.0
H960 H 0.75156 0.32937 0.95738 0.0
C961 C 0.71821 0.39475 0.88391 0.0
H962 H 0.79334 0.35251 0.91261 0.0
C963 C 0.69438 0.38124 0.9093 0.0
C964 C 0.70605 0.35777 0.93628 0.0
H965 H 0.70864 0.41348 0.86404 0.0
H966 H 0.66689 0.38996 0.90828 0.0
C967 C 0.74189 0.3474 0.93693 0.0
C968 C 0.61793 0.70598 0.8719 0.0
C969 C 0.6428 0.71761 0.89771 0.0
H970 H 0.5779 0.72118 0.83407 0.0
C971 C 0.64954 0.75441 0.90145 0.0
H972 H 0.612 0.67768 0.86847 0.0
C973 C 0.63041 0.77918 0.88136 0.0
C974 C 0.60355 0.76778 0.85751 0.0
H975 H 0.66857 0.76417 0.92094 0.0
H976 H 0.6355 0.80746 0.88607 0.0
C977 C 0.59828 0.73085 0.85217 0.0
C978 C 0.72515 0.54968 0.08802 0.0
C979 C 0.74238 0.56126 0.1193 0.0
H980 H 0.69567 0.56486 0.04163 0.0
C981 C 0.73797 0.59699 0.1308 0.0
H982 H 0.72881 0.52249 0.07823 0.0
C983 C 0.71906 0.62143 0.10958 0.0
C984 C 0.70495 0.6103 0.07663 0.0
H985 H 0.75191 0.60678 0.15422 0.0
H986 H 0.71736 0.64932 0.11777 0.0
C987 C 0.70686 0.57404 0.06674 0.0
C988 C 0.40949 0.78175 0.03456 0.0
C989 C 0.41519 0.76995 0.07003 0.0
H990 H 0.387 0.77001 0.98304 0.0
C991 C 0.3979 0.73861 0.08161 0.0
H992 H 0.42217 0.80593 0.02465 0.0
C993 C 0.37685 0.71873 0.05782 0.0
C994 C 0.37268 0.72972 0.02201 0.0
H995 H 0.40124 0.72901 0.10872 0.0
H996 H 0.36562 0.6934 0.06675 0.0
C997 C 0.38863 0.76174 0.01077 0.0
C998 C 0.58287 0.20437 0.11823 0.0
C999 C 0.55315 0.21699 0.13773 0.0
H1000 H 0.62787 0.21776 0.08547 0.0
C1001 C 0.54851 0.25408 0.14214 0.0
H1002 H 0.58729 0.1759 0.11424 0.0
C1003 C 0.57242 0.27806 0.12609 0.0
C1004 C 0.60082 0.26526 0.10485 0.0
H1005 H 0.52592 0.26452 0.15697 0.0
H1006 H 0.5675 0.30662 0.12869 0.0
C1007 C 0.60622 0.22826 0.10165 0.0
C1008 C 0.89728 0.73979 0.61832 0.0
C1009 C 0.88741 0.70425 0.61094 0.0
H1010 H 0.88947 0.79511 0.60641 0.0
C1011 C 0.85801 0.69769 0.58835 0.0
H1012 H 0.91941 0.74581 0.63588 0.0
C1013 C 0.84077 0.72606 0.57119 0.0
C1014 C 0.85266 0.76136 0.57643 0.0
H1015 H 0.8495 0.67051 0.5823 0.0
H1016 H 0.81987 0.72016 0.55214 0.0
C1017 C 0.88001 0.76802 0.60136 0.0
C1018 C 0.23354 0.90013 0.6471 0.0
C1019 C 0.26864 0.90085 0.63441 0.0
H1020 H 0.18056 0.88133 0.6387 0.0
C1021 C 0.27829 0.87832 0.6055 0.0
H1022 H 0.22546 0.91674 0.66956 0.0
C1023 C 0.2524 0.85818 0.58739 0.0
C1024 C 0.21669 0.86022 0.59822 0.0
H1025 H 0.30532 0.87831 0.59516 0.0
H1026 H 0.2598 0.84352 0.56341 0.0
C1027 C 0.20791 0.87975 0.62939 0.0
C1028 C 0.10167 0.26084 0.6244 0.0
C1029 C 0.07322 0.27887 0.60835 0.0
H1030 H 0.146 0.22558 0.61578 0.0
C1031 C 0.07247 0.28259 0.57107 0.0
H1032 H 0.10287 0.25828 0.65325 0.0
C1033 C 0.0978 0.2652 0.5498 0.0
C1034 C 0.12377 0.24335 0.56554 0.0
H1035 H 0.05097 0.29703 0.55832 0.0
H1036 H 0.09427 0.26508 0.52101 0.0
C1037 C 0.12689 0.24308 0.60303 0.0
C1038 C 0.75054 0.13124 0.55751 0.0
C1039 C 0.7424 0.13038 0.52076 0.0
H1040 H 0.73747 0.11205 0.61011 0.0
C1041 C 0.71201 0.11207 0.50926 0.0
H1042 H 0.77463 0.14443 0.56673 0.0
C1043 C 0.69105 0.09331 0.53391 0.0
C1044 C 0.70046 0.09202 0.57045 0.0
H1045 H 0.70601 0.10998 0.48098 0.0
H1046 H 0.66841 0.07831 0.52392 0.0
C1047 C 0.72984 0.11207 0.58219 0.0
C1048 C 0.88061 0.25858 0.3835 0.0
C1049 C 0.89142 0.22258 0.38333 0.0
H1050 H 0.89525 0.31318 0.37357 0.0
C1051 C 0.92557 0.21399 0.36995 0.0
H1052 H 0.85462 0.26608 0.39375 0.0
C1053 C 0.94894 0.24089 0.35845 0.0
C1054 C 0.93877 0.27705 0.3602 0.0
H1055 H 0.93475 0.18643 0.36929 0.0
H1056 H 0.97536 0.23342 0.34934 0.0
C1057 C 0.90407 0.28554 0.37213 0.0
C1058 C 0.74787 0.91974 0.36331 0.0
C1059 C 0.71363 0.90541 0.35927 0.0
H1060 H 0.79756 0.91633 0.39019 0.0
C1061 C 0.70452 0.87337 0.3773 0.0
H1062 H 0.75555 0.94447 0.35004 0.0
C1063 C 0.72841 0.8573 0.40078 0.0
C1064 C 0.76187 0.87293 0.40656 0.0
H1065 H 0.67825 0.86155 0.37454 0.0
H1066 H 0.72025 0.83341 0.41519 0.0
C1067 C 0.77173 0.90372 0.38676 0.0
C1068 C 0.05553 0.76793 0.37977 0.0
C1069 C 0.05808 0.73056 0.38169 0.0
H1070 H 0.07132 0.81816 0.40243 0.0
C1071 C 0.0821 0.71505 0.40618 0.0
H1072 H 0.03746 0.78052 0.36113 0.0
C1073 C 0.1018 0.73647 0.42964 0.0
C1074 C 0.09742 0.77369 0.42927 0.0
H1075 H 0.08504 0.68616 0.40788 0.0
H1076 H 0.11889 0.72387 0.44918 0.0
C1077 C 0.07488 0.7893 0.40351 0.0
C1078 C 0.24569 0.09907 0.42195 0.0
C1079 C 0.21008 0.08896 0.42717 0.0
H1080 H 0.29557 0.08641 0.39726 0.0
C1081 C 0.19671 0.05883 0.40825 0.0
H1082 H 0.25676 0.12217 0.43573 0.0
C1083 C 0.21881 0.0386 0.38563 0.0
C1084 C 0.25475 0.04792 0.38184 0.0
H1085 H 0.16919 0.05043 0.41132 0.0
H1086 H 0.20831 0.01477 0.37265 0.0
C1087 C 0.26778 0.07868 0.3997 0.0
C1088 C 0.60203 0.93698 0.78465 0.0
C1089 C 0.59731 0.90064 0.77457 0.0
H1090 H 0.62123 0.98909 0.7694 0.0
C1091 C 0.61532 0.88779 0.74423 0.0
H1092 H 0.58885 0.94786 0.80813 0.0
C1093 C 0.63517 0.91148 0.72289 0.0
C1094 C 0.63684 0.94842 0.73122 0.0
H1095 H 0.61277 0.85995 0.73609 0.0
H1096 H 0.64606 0.90167 0.69779 0.0
C1097 C 0.6214 0.96065 0.76305 0.0
C1098 C 0.06914 0.55747 0.69224 0.0
C1099 C 0.04376 0.5821 0.70551 0.0
H1100 H 0.10973 0.51895 0.70466 0.0
C1101 C 0.03976 0.58609 0.74258 0.0
H1102 H 0.07243 0.55332 0.6637 0.0
C1103 C 0.06144 0.56675 0.76586 0.0
C1104 C 0.08711 0.54245 0.75262 0.0
H1105 H 0.02027 0.60451 0.75359 0.0
H1106 H 0.05793 0.57071 0.7944 0.0
C1107 C 0.09036 0.53756 0.71558 0.0
C1108 C 0.41343 0.12227 0.73042 0.0
C1109 C 0.4093 0.11876 0.76763 0.0
H1110 H 0.3957 0.10474 0.67857 0.0
C1111 C 0.38185 0.09625 0.78083 0.0
H1112 H 0.43426 0.13921 0.71938 0.0
C1113 C 0.36046 0.07635 0.75782 0.0
C1114 C 0.36524 0.07885 0.72084 0.0
H1115 H 0.37748 0.09276 0.80929 0.0
H1116 H 0.34062 0.05833 0.76907 0.0
C1117 C 0.39128 0.10265 0.70716 0.0
C1118 C 0.8441 0.37515 0.72319 0.0
C1119 C 0.84869 0.36729 0.75945 0.0
H1120 H 0.86011 0.36298 0.66951 0.0
C1121 C 0.86812 0.33637 0.76895 0.0
H1122 H 0.82941 0.39875 0.71513 0.0
C1123 C 0.88656 0.31653 0.74321 0.0
C1124 C 0.88522 0.32661 0.70726 0.0
H1125 H 0.87156 0.32921 0.79681 0.0
H1126 H 0.90365 0.29482 0.75176 0.0
C1127 C 0.86201 0.35468 0.69719 0.0
C1128 C 0.53572 0.05485 0.22337 0.0
C1129 C 0.53328 0.09258 0.22619 0.0
H1130 H 0.56481 0.00731 0.23663 0.0
C1131 C 0.55829 0.11123 0.24681 0.0
H1132 H 0.51666 0.0398 0.20755 0.0
C1133 C 0.58609 0.09257 0.26307 0.0
C1134 C 0.58945 0.05503 0.25882 0.0
H1135 H 0.55749 0.14026 0.24882 0.0
H1136 H 0.6053 0.10766 0.27867 0.0
C1137 C 0.56366 0.03629 0.23927 0.0
C1138 C 0.87556 0.63508 0.25186 0.0
C1139 C 0.90815 0.64745 0.23734 0.0
H1140 H 0.83212 0.59764 0.24685 0.0
C1141 C 0.91717 0.63795 0.2022 0.0
H1142 H 0.86833 0.64165 0.27922 0.0
C1143 C 0.89588 0.61344 0.18343 0.0
C1144 C 0.86629 0.59711 0.20016 0.0
H1145 H 0.94244 0.64635 0.19074 0.0
H1146 H 0.90426 0.60496 0.15698 0.0
C1147 C 0.85533 0.60924 0.23385 0.0
C1148 C 0.39851 0.84123 0.2411 0.0
C1149 C 0.39509 0.84938 0.20474 0.0
H1150 H 0.38468 0.85516 0.29476 0.0
C1151 C 0.37042 0.87612 0.19461 0.0
H1152 H 0.41694 0.82077 0.2499 0.0
C1153 C 0.3519 0.89624 0.22052 0.0
C1154 C 0.35776 0.8899 0.25693 0.0
H1155 H 0.36707 0.88314 0.16672 0.0
H1156 H 0.33509 0.91823 0.21213 0.0
C1157 C 0.38001 0.86113 0.26681 0.0
C1158 C 0.0821 0.46017 0.24031 0.0
C1159 C 0.11877 0.46382 0.2332 0.0
H1160 H 0.0407 0.429 0.26457 0.0
C1161 C 0.1427 0.44041 0.25005 0.0
H1162 H 0.06302 0.47796 0.22786 0.0
C1163 C 0.12972 0.41221 0.27152 0.0
C1164 C 0.09278 0.40673 0.27544 0.0
H1165 H 0.17104 0.44231 0.24465 0.0
H1166 H 0.14836 0.39372 0.28354 0.0
C1167 C 0.06924 0.43171 0.26069 0.0
C1168 C 0.76639 0.58588 0.93223 0.0
C1169 C 0.73184 0.59294 0.92061 0.0
H1170 H 0.81331 0.55456 0.92473 0.0
C1171 C 0.71906 0.57531 0.88968 0.0
H1172 H 0.77664 0.59864 0.95618 0.0
C1173 C 0.73967 0.54968 0.87175 0.0
C1174 C 0.77352 0.54096 0.88449 0.0
H1175 H 0.69231 0.58033 0.88015 0.0
H1176 H 0.72863 0.53593 0.84873 0.0
C1177 C 0.78702 0.56009 0.91439 0.0
C1178 C 0.70602 0.39491 0.12799 0.0
C1179 C 0.71581 0.37074 0.10052 0.0
H1180 H 0.72309 0.43416 0.16616 0.0
C1181 C 0.75197 0.36364 0.09466 0.0
H1182 H 0.67823 0.40042 0.13371 0.0
C1183 C 0.77786 0.38291 0.11381 0.0
C1184 C 0.76783 0.40957 0.13893 0.0
H1185 H 0.76022 0.3452 0.07376 0.0
H1186 H 0.80564 0.37864 0.10711 0.0
C1187 C 0.73168 0.41423 0.1468 0.0
C1188 C 0.56138 0.76839 0.06321 0.0
C1189 C 0.57138 0.77234 0.09903 0.0
H1190 H 0.57547 0.74854 0.0114 0.0
C1191 C 0.6064 0.76352 0.10904 0.0
H1192 H 0.53503 0.77628 0.05453 0.0
C1193 C 0.62971 0.7472 0.08428 0.0
C1194 C 0.61863 0.74085 0.04895 0.0
H1195 H 0.61498 0.76743 0.13641 0.0
H1196 H 0.65498 0.73685 0.09352 0.0
C1197 C 0.58497 0.75355 0.03833 0.0
C1198 C 0.27909 0.61276 0.06493 0.0
C1199 C 0.26849 0.62505 0.03082 0.0
H1200 H 0.26339 0.58765 0.11436 0.0
C1201 C 0.2324 0.62331 0.0218 0.0
H1202 H 0.3068 0.61374 0.07286 0.0
C1203 C 0.20771 0.6086 0.04569 0.0
C1204 C 0.21837 0.59498 0.07925 0.0
H1205 H 0.22327 0.63258 -0.00402 0.0
H1206 H 0.18014 0.60725 0.03732 0.0
C1207 C 0.25428 0.59787 0.0889 0.0
C1208 C 0.37492 0.25693 0.06121 0.0
C1209 C 0.34724 0.27362 0.07999 0.0
H1210 H 0.4206 0.22362 0.06364 0.0
C1211 C 0.34601 0.27127 0.11759 0.0
H1212 H 0.37732 0.25959 0.0324 0.0
C1213 C 0.37061 0.2496 0.13579 0.0
C1214 C 0.39723 0.23148 0.11642 0.0
H1215 H 0.32537 0.28505 0.13257 0.0
H1216 H 0.36766 0.24552 0.16434 0.0
C1217 C 0.40006 0.23693 0.07926 0.0
C1218 C 0.25144 0.41277 0.86103 0.0
C1219 C 0.21755 0.39777 0.85541 0.0
H1220 H 0.30044 0.40909 0.89033 0.0
C1221 C 0.20887 0.36473 0.87172 0.0
H1222 H 0.25875 0.43824 0.84903 0.0
C1223 C 0.23187 0.34902 0.89606 0.0
C1224 C 0.26455 0.36528 0.9036 0.0
H1225 H 0.18315 0.35211 0.86755 0.0
H1226 H 0.22366 0.32472 0.90978 0.0
C1227 C 0.27504 0.39633 0.88483 0.0
C1228 C 0.55455 0.2595 0.94344 0.0
C1229 C 0.59192 0.25997 0.94754 0.0
H1230 H 0.50986 0.24299 0.91188 0.0
C1231 C 0.61299 0.24182 0.92228 0.0
H1232 H 0.5375 0.27289 0.9627 0.0
C1233 C 0.59695 0.22455 0.89302 0.0
C1234 C 0.55966 0.22564 0.88819 0.0
H1235 H 0.64177 0.24216 0.92434 0.0
H1236 H 0.61375 0.21056 0.87392 0.0
C1237 C 0.53866 0.24295 0.91398 0.0
C1238 C 0.40482 0.76963 0.84864 0.0
C1239 C 0.43743 0.75509 0.83658 0.0
H1240 H 0.35442 0.75957 0.87394 0.0
C1241 C 0.44106 0.71783 0.83406 0.0
H1242 H 0.40136 0.79847 0.85061 0.0
C1243 C 0.41359 0.69552 0.84665 0.0
C1244 C 0.38275 0.71033 0.86274 0.0
H1245 H 0.46599 0.70608 0.82528 0.0
H1246 H 0.41792 0.66677 0.84658 0.0
C1247 C 0.37797 0.74751 0.86215 0.0
loop_
_geom_bond_atom_site_label_1
_geom_bond_atom_site_label_2
_geom_bond_distance
_geom_bond_site_symmetry_2
_ccdc_geom_bond_type
Fe0 O2 1.918 . S
Fe0 O5 2.017 . S
Fe0 O6 1.983 1_455 S
Fe0 O11 1.956 1_455 S
Fe0 O14 2.016 . S
Fe1 O2 1.905 1_655 S
Fe1 O9 1.997 . S
Fe1 O12 1.996 . S
Fe1 O16 1.976 . S
Fe1 O19 2.002 . S
O2 Fe0 1.918 . S
O2 Fe1 1.905 1_455 S
O2 Fe3 1.931 . S
Fe3 O2 1.931 . S
Fe3 O4 2.002 . S
Fe3 O13 1.976 . S
Fe3 O17 1.996 . S
Fe3 O20 1.997 . S
O4 Fe3 2.002 . S
O4 C21 1.295 . S
O5 Fe0 2.017 . S
O5 C21 1.235 . S
O6 Fe0 1.983 1_655 S
O6 C7 1.295 . S
C7 O6 1.295 . S
C7 O9 1.235 . S
C8 O13 1.287 . S
C8 O14 1.255 . S
O9 Fe1 1.997 . S
O9 C7 1.235 . S
C10 O16 1.287 1_455 S
C10 O17 1.255 . S
O11 Fe0 1.956 1_655 S
O11 C18 1.287 . S
O12 Fe1 1.996 . S
O12 C18 1.255 . S
O13 Fe3 1.976 . S
O13 C8 1.287 . S
O14 Fe0 2.016 . S
O14 C8 1.255 . S
C15 O19 1.308 . S
C15 O20 1.223 1_655 S
O16 Fe1 1.976 . S
O16 C10 1.287 1_655 S
O17 Fe3 1.996 . S
O17 C10 1.255 . S
C18 O11 1.287 . S
C18 O12 1.255 . S
O19 Fe1 2.002 . S
O19 C15 1.308 . S
O20 Fe3 1.997 . S
O20 C15 1.223 1_455 S
C21 O4 1.295 . S
C21 O5 1.235 . S
Fe22 O24 1.932 . S
Fe22 O27 1.997 . S
Fe22 O28 2.002 . S
Fe22 O33 1.976 . S
Fe22 O36 1.996 . S
Fe23 O24 1.905 1_565 S
Fe23 O31 1.997 . S
Fe23 O34 1.996 . S
Fe23 O38 1.976 . S
Fe23 O41 2.002 . S
O24 Fe22 1.932 . S
O24 Fe23 1.905 1_545 S
O24 Fe25 1.918 . S
Fe25 O24 1.918 . S
Fe25 O26 2.005 . S
Fe25 O35 1.978 . S
Fe25 O39 1.993 1_545 S
Fe25 O42 1.994 1_545 S
O26 Fe25 2.005 . S
O26 C43 1.295 . S
O27 Fe22 1.997 . S
O27 C43 1.235 . S
O28 Fe22 2.002 . S
O28 C29 1.295 . S
C29 O28 1.295 . S
C29 O31 1.235 1_545 S
C30 O35 1.287 . S
C30 O36 1.255 . S
O31 Fe23 1.997 . S
O31 C29 1.235 1_565 S
C32 O38 1.287 . S
C32 O39 1.255 . S
O33 Fe22 1.976 . S
O33 C40 1.271 1_545 S
O34 Fe23 1.996 . S
O34 C40 1.270 . S
O35 Fe25 1.978 . S
O35 C30 1.287 . S
O36 Fe22 1.996 . S
O36 C30 1.255 . S
C37 O41 1.295 . S
C37 O42 1.235 . S
O38 Fe23 1.976 . S
O38 C32 1.287 . S
O39 Fe25 1.993 1_565 S
O39 C32 1.255 . S
C40 O33 1.271 1_565 S
C40 O34 1.270 . S
O41 Fe23 2.002 . S
O41 C37 1.295 . S
O42 Fe25 1.994 1_565 S
O42 C37 1.235 . S
C43 O26 1.295 . S
C43 O27 1.235 . S
Fe44 O46 1.918 1_655 S
Fe44 O49 1.997 . S
Fe44 O50 2.002 . S
Fe44 O55 1.976 . S
Fe44 O58 1.996 . S
Fe45 O46 1.918 1_655 S
Fe45 O53 2.001 . S
Fe45 O56 2.000 . S
Fe45 O60 1.971 1_655 S
Fe45 O63 1.998 1_655 S
O46 Fe44 1.918 1_455 S
O46 Fe45 1.918 1_455 S
O46 Fe47 1.918 . S
Fe47 O46 1.918 . S
Fe47 O48 2.002 . S
Fe47 O57 1.976 . S
Fe47 O61 1.996 . S
Fe47 O64 1.997 . S
O48 Fe47 2.002 . S
O48 C65 1.295 . S
O49 Fe44 1.997 . S
O49 C65 1.235 1_655 S
O50 Fe44 2.002 . S
O50 C51 1.295 . S
C51 O50 1.295 . S
C51 O53 1.235 . S
C52 O57 1.259 1_655 S
C52 O58 1.283 . S
O53 Fe45 2.001 . S
O53 C51 1.235 . S
C54 O60 1.287 . S
C54 O61 1.255 . S
O55 Fe44 1.976 . S
O55 C62 1.287 . S
O56 Fe45 2.000 . S
O56 C62 1.255 . S
O57 Fe47 1.976 . S
O57 C52 1.259 1_455 S
O58 Fe44 1.996 . S
O58 C52 1.283 . S
C59 O63 1.295 . S
C59 O64 1.235 . S
O60 Fe45 1.971 1_455 S
O60 C54 1.287 . S
O61 Fe47 1.996 . S
O61 C54 1.255 . S
C62 O55 1.287 . S
C62 O56 1.255 . S
O63 Fe45 1.998 1_455 S
O63 C59 1.295 . S
O64 Fe47 1.997 . S
O64 C59 1.235 . S
C65 O48 1.295 . S
C65 O49 1.235 1_455 S
Fe66 O68 1.918 . S
Fe66 O71 1.997 . S
Fe66 O72 2.002 . S
Fe66 O77 1.976 . S
Fe66 O80 1.996 . S
Fe67 O68 1.918 . S
Fe67 O75 2.005 . S
Fe67 O78 2.004 . S
Fe67 O82 1.967 1_545 S
Fe67 O85 1.994 1_545 S
O68 Fe66 1.918 . S
O68 Fe67 1.918 . S
O68 Fe69 1.918 1_545 S
Fe69 O68 1.918 1_565 S
Fe69 O70 2.002 . S
Fe69 O79 1.976 . S
Fe69 O83 1.996 . S
Fe69 O86 1.997 . S
O70 Fe69 2.002 . S
O70 C87 1.320 . S
O71 Fe66 1.997 . S
O71 C87 1.211 1_545 S
O72 Fe66 2.002 . S
O72 C73 1.295 . S
C73 O72 1.295 . S
C73 O75 1.235 . S
C74 O79 1.287 1_545 S
C74 O80 1.255 . S
O75 Fe67 2.005 . S
O75 C73 1.235 . S
C76 O82 1.287 . S
C76 O83 1.255 . S
O77 Fe66 1.976 . S
O77 C84 1.287 . S
O78 Fe67 2.004 . S
O78 C84 1.255 . S
O79 Fe69 1.976 . S
O79 C74 1.287 1_565 S
O80 Fe66 1.996 . S
O80 C74 1.255 . S
C81 O85 1.295 . S
C81 O86 1.235 . S
O82 Fe67 1.967 1_565 S
O82 C76 1.287 . S
O83 Fe69 1.996 . S
O83 C76 1.255 . S
C84 O77 1.287 . S
C84 O78 1.255 . S
O85 Fe67 1.994 1_565 S
O85 C81 1.295 . S
O86 Fe69 1.997 . S
O86 C81 1.235 . S
C87 O70 1.320 . S
C87 O71 1.211 1_565 S
Fe88 O90 1.918 . S
Fe88 O93 1.997 . S
Fe88 O94 2.002 . S
Fe88 O99 1.976 . S
Fe88 O102 1.996 . S
Fe89 O90 1.918 1_655 S
Fe89 O97 1.997 . S
Fe89 O100 1.996 . S
Fe89 O104 1.976 . S
Fe89 O107 2.002 . S
O90 Fe88 1.918 . S
O90 Fe89 1.918 1_455 S
O90 Fe91 1.918 1_455 S
Fe91 O90 1.918 1_655 S
Fe91 O92 1.998 1_655 S
Fe91 O101 1.971 1_655 S
Fe91 O105 2.000 . S
Fe91 O108 2.001 . S
O92 Fe91 1.998 1_455 S
O92 C109 1.295 . S
O93 Fe88 1.997 . S
O93 C109 1.235 . S
O94 Fe88 2.002 . S
O94 C95 1.295 . S
C95 O94 1.295 . S
C95 O97 1.235 1_455 S
C96 O101 1.287 . S
C96 O102 1.255 . S
O97 Fe89 1.997 . S
O97 C95 1.235 1_655 S
C98 O104 1.287 . S
C98 O105 1.255 . S
O99 Fe88 1.976 . S
O99 C106 1.260 1_455 S
O100 Fe89 1.996 . S
O100 C106 1.281 . S
O101 Fe91 1.971 1_455 S
O101 C96 1.287 . S
O102 Fe88 1.996 . S
O102 C96 1.255 . S
C103 O107 1.295 . S
C103 O108 1.235 . S
O104 Fe89 1.976 . S
O104 C98 1.287 . S
O105 Fe91 2.000 . S
O105 C98 1.255 . S
C106 O99 1.260 1_655 S
C106 O100 1.281 . S
O107 Fe89 2.002 . S
O107 C103 1.295 . S
O108 Fe91 2.001 . S
O108 C103 1.235 . S
C109 O92 1.295 . S
C109 O93 1.235 . S
Fe110 O112 1.918 1_565 S
Fe110 O115 1.997 . S
Fe110 O116 2.002 . S
Fe110 O121 1.976 . S
Fe110 O124 1.996 . S
Fe111 O112 1.918 . S
Fe111 O119 1.997 . S
Fe111 O122 1.996 . S
Fe111 O126 1.976 . S
Fe111 O129 2.002 . S
O112 Fe110 1.918 1_545 S
O112 Fe111 1.918 . S
O112 Fe113 1.918 . S
Fe113 O112 1.918 . S
Fe113 O114 1.994 1_545 S
Fe113 O123 1.967 1_545 S
Fe113 O127 2.004 . S
Fe113 O130 2.005 . S
O114 Fe113 1.994 1_565 S
O114 C131 1.295 . S
O115 Fe110 1.997 . S
O115 C131 1.235 . S
O116 Fe110 2.002 . S
O116 C117 1.319 . S
C117 O116 1.319 . S
C117 O119 1.212 1_565 S
C118 O123 1.287 . S
C118 O124 1.255 . S
O119 Fe111 1.997 . S
O119 C117 1.212 1_545 S
C120 O126 1.287 . S
C120 O127 1.255 . S
O121 Fe110 1.976 . S
O121 C128 1.287 1_565 S
O122 Fe111 1.996 . S
O122 C128 1.255 . S
O123 Fe113 1.967 1_565 S
O123 C118 1.287 . S
O124 Fe110 1.996 . S
O124 C118 1.255 . S
C125 O129 1.295 . S
C125 O130 1.235 . S
O126 Fe111 1.976 . S
O126 C120 1.287 . S
O127 Fe113 2.004 . S
O127 C120 1.255 . S
C128 O121 1.287 1_545 S
C128 O122 1.255 . S
O129 Fe111 2.002 . S
O129 C125 1.295 . S
O130 Fe113 2.005 . S
O130 C125 1.235 . S
C131 O114 1.295 . S
C131 O115 1.235 . S
Fe132 O134 1.932 . S
Fe132 O137 1.997 . S
Fe132 O138 2.002 . S
Fe132 O143 1.976 . S
Fe132 O146 1.996 . S
Fe133 O134 1.918 . S
Fe133 O141 2.017 . S
Fe133 O144 2.016 . S
Fe133 O148 1.956 1_455 S
Fe133 O151 1.983 1_455 S
O134 Fe132 1.932 . S
O134 Fe133 1.918 . S
O134 Fe135 1.905 1_455 S
Fe135 O134 1.905 1_655 S
Fe135 O136 2.002 . S
Fe135 O145 1.976 . S
Fe135 O149 1.996 . S
Fe135 O152 1.997 . S
O136 Fe135 2.002 . S
O136 C153 1.306 . S
O137 Fe132 1.997 . S
O137 C153 1.224 1_455 S
O138 Fe132 2.002 . S
O138 C139 1.295 . S
C139 O138 1.295 . S
C139 O141 1.235 . S
C140 O145 1.287 1_455 S
C140 O146 1.255 . S
O141 Fe133 2.017 . S
O141 C139 1.235 . S
C142 O148 1.287 . S
C142 O149 1.255 . S
O143 Fe132 1.976 . S
O143 C150 1.287 . S
O144 Fe133 2.016 . S
O144 C150 1.255 . S
O145 Fe135 1.976 . S
O145 C140 1.287 1_655 S
O146 Fe132 1.996 . S
O146 C140 1.255 . S
C147 O151 1.295 . S
C147 O152 1.235 . S
O148 Fe133 1.956 1_655 S
O148 C142 1.287 . S
O149 Fe135 1.996 . S
O149 C142 1.255 . S
C150 O143 1.287 . S
C150 O144 1.255 . S
O151 Fe133 1.983 1_655 S
O151 C147 1.295 . S
O152 Fe135 1.997 . S
O152 C147 1.235 . S
C153 O136 1.306 . S
C153 O137 1.224 1_655 S
Fe154 O156 1.905 1_565 S
Fe154 O159 1.997 . S
Fe154 O160 2.002 . S
Fe154 O165 1.976 . S
Fe154 O168 1.996 . S
Fe155 O156 1.918 . S
Fe155 O163 1.994 1_545 S
Fe155 O166 1.994 1_545 S
Fe155 O170 1.978 . S
Fe155 O173 2.004 . S
O156 Fe154 1.905 1_545 S
O156 Fe155 1.918 . S
O156 Fe157 1.932 . S
Fe157 O156 1.932 . S
Fe157 O158 2.002 . S
Fe157 O167 1.976 . S
Fe157 O171 1.996 . S
Fe157 O174 1.997 . S
O158 Fe157 2.002 . S
O158 C175 1.295 . S
O159 Fe154 1.997 . S
O159 C175 1.235 1_565 S
O160 Fe154 2.002 . S
O160 C161 1.295 . S
C161 O160 1.295 . S
C161 O163 1.235 . S
C162 O167 1.273 1_565 S
C162 O168 1.269 . S
O163 Fe155 1.994 1_565 S
O163 C161 1.235 . S
C164 O170 1.287 . S
C164 O171 1.255 . S
O165 Fe154 1.976 . S
O165 C172 1.287 . S
O166 Fe155 1.994 1_565 S
O166 C172 1.255 . S
O167 Fe157 1.976 . S
O167 C162 1.273 1_545 S
O168 Fe154 1.996 . S
O168 C162 1.269 . S
C169 O173 1.295 . S
C169 O174 1.235 . S
O170 Fe155 1.978 . S
O170 C164 1.287 . S
O171 Fe157 1.996 . S
O171 C164 1.255 . S
C172 O165 1.287 . S
C172 O166 1.255 . S
O173 Fe155 2.004 . S
O173 C169 1.295 . S
O174 Fe157 1.997 . S
O174 C169 1.235 . S
C175 O158 1.295 . S
C175 O159 1.235 1_545 S
Fe176 O178 1.918 1_556 S
Fe176 O181 2.001 . S
Fe176 O182 1.998 1_556 S
Fe176 O187 1.972 1_556 S
Fe176 O190 2.000 . S
Fe177 O178 1.918 . S
Fe177 O185 1.997 . S
Fe177 O188 1.996 . S
Fe177 O192 1.976 . S
Fe177 O195 2.002 . S
O178 Fe176 1.918 1_554 S
O178 Fe177 1.918 . S
O178 Fe179 1.918 1_554 S
Fe179 O178 1.918 1_556 S
Fe179 O180 2.002 . S
Fe179 O189 1.976 . S
Fe179 O193 1.996 . S
Fe179 O196 1.997 . S
O180 Fe179 2.002 . S
O180 C197 1.295 . S
O181 Fe176 2.001 . S
O181 C197 1.235 . S
O182 Fe176 1.998 1_554 S
O182 C183 1.295 . S
C183 O182 1.295 . S
C183 O185 1.235 . S
C184 O189 1.287 . S
C184 O190 1.255 . S
O185 Fe177 1.997 . S
O185 C183 1.235 . S
C186 O192 1.287 1_556 S
C186 O193 1.255 . S
O187 Fe176 1.972 1_554 S
O187 C194 1.287 . S
O188 Fe177 1.996 . S
O188 C194 1.255 . S
O189 Fe179 1.976 . S
O189 C184 1.287 . S
O190 Fe176 2.000 . S
O190 C184 1.255 . S
C191 O195 1.295 . S
C191 O196 1.235 1_554 S
O192 Fe177 1.976 . S
O192 C186 1.287 1_554 S
O193 Fe179 1.996 . S
O193 C186 1.255 . S
C194 O187 1.287 . S
C194 O188 1.255 . S
O195 Fe177 2.002 . S
O195 C191 1.295 . S
O196 Fe179 1.997 . S
O196 C191 1.235 1_556 S
C197 O180 1.295 . S
C197 O181 1.235 . S
Fe198 O200 1.918 1_556 S
Fe198 O203 2.000 . S
Fe198 O204 1.999 1_556 S
Fe198 O209 1.972 1_556 S
Fe198 O212 2.000 . S
Fe199 O200 1.918 . S
Fe199 O207 1.997 . S
Fe199 O210 1.996 . S
Fe199 O214 1.976 . S
Fe199 O217 2.002 . S
O200 Fe198 1.918 1_554 S
O200 Fe199 1.918 . S
O200 Fe201 1.918 1_554 S
Fe201 O200 1.918 1_556 S
Fe201 O202 2.002 . S
Fe201 O211 1.976 . S
Fe201 O215 1.996 . S
Fe201 O218 1.997 . S
O202 Fe201 2.002 . S
O202 C219 1.295 . S
O203 Fe198 2.000 . S
O203 C219 1.235 . S
O204 Fe198 1.999 1_554 S
O204 C205 1.295 . S
C205 O204 1.295 . S
C205 O207 1.235 . S
C206 O211 1.287 . S
C206 O212 1.255 . S
O207 Fe199 1.997 . S
O207 C205 1.235 . S
C208 O214 1.261 1_556 S
C208 O215 1.280 . S
O209 Fe198 1.972 1_554 S
O209 C216 1.287 . S
O210 Fe199 1.996 . S
O210 C216 1.255 . S
O211 Fe201 1.976 . S
O211 C206 1.287 . S
O212 Fe198 2.000 . S
O212 C206 1.255 . S
C213 O217 1.324 . S
C213 O218 1.207 1_554 S
O214 Fe199 1.976 . S
O214 C208 1.261 1_554 S
O215 Fe201 1.996 . S
O215 C208 1.280 . S
C216 O209 1.287 . S
C216 O210 1.255 . S
O217 Fe199 2.002 . S
O217 C213 1.324 . S
O218 Fe201 1.997 . S
O218 C213 1.207 1_556 S
C219 O202 1.295 . S
C219 O203 1.235 . S
Fe220 O222 1.918 . S
Fe220 O225 1.997 . S
Fe220 O226 2.002 . S
Fe220 O231 1.976 . S
Fe220 O234 1.996 . S
Fe221 O222 1.918 1_556 S
Fe221 O229 1.997 . S
Fe221 O232 1.996 . S
Fe221 O236 1.976 . S
Fe221 O239 2.002 . S
O222 Fe220 1.918 . S
O222 Fe221 1.918 1_554 S
O222 Fe223 1.918 1_554 S
Fe223 O222 1.918 1_556 S
Fe223 O224 1.999 1_556 S
Fe223 O233 1.972 1_556 S
Fe223 O237 2.000 . S
Fe223 O240 2.000 . S
O224 Fe223 1.999 1_554 S
O224 C241 1.295 . S
O225 Fe220 1.997 . S
O225 C241 1.235 . S
O226 Fe220 2.002 . S
O226 C227 1.324 . S
C227 O226 1.324 . S
C227 O229 1.207 1_554 S
C228 O233 1.287 . S
C228 O234 1.255 . S
O229 Fe221 1.997 . S
O229 C227 1.207 1_556 S
C230 O236 1.287 . S
C230 O237 1.255 . S
O231 Fe220 1.976 . S
O231 C238 1.261 1_554 S
O232 Fe221 1.996 . S
O232 C238 1.280 . S
O233 Fe223 1.972 1_554 S
O233 C228 1.287 . S
O234 Fe220 1.996 . S
O234 C228 1.255 . S
C235 O239 1.295 . S
C235 O240 1.235 . S
O236 Fe221 1.976 . S
O236 C230 1.287 . S
O237 Fe223 2.000 . S
O237 C230 1.255 . S
C238 O231 1.261 1_556 S
C238 O232 1.280 . S
O239 Fe221 2.002 . S
O239 C235 1.295 . S
O240 Fe223 2.000 . S
O240 C235 1.235 . S
C241 O224 1.295 . S
C241 O225 1.235 . S
Fe242 O244 1.918 1_556 S
Fe242 O247 1.997 . S
Fe242 O248 2.002 . S
Fe242 O253 1.976 . S
Fe242 O256 1.996 . S
Fe243 O244 1.918 1_556 S
Fe243 O251 2.001 . S
Fe243 O254 2.000 . S
Fe243 O258 1.972 1_556 S
Fe243 O261 1.998 1_556 S
O244 Fe242 1.918 1_554 S
O244 Fe243 1.918 1_554 S
O244 Fe245 1.918 . S
Fe245 O244 1.918 . S
Fe245 O246 2.002 . S
Fe245 O255 1.976 . S
Fe245 O259 1.996 . S
Fe245 O262 1.997 . S
O246 Fe245 2.002 . S
O246 C263 1.295 . S
O247 Fe242 1.997 . S
O247 C263 1.235 1_556 S
O248 Fe242 2.002 . S
O248 C249 1.295 . S
C249 O248 1.295 . S
C249 O251 1.235 . S
C250 O255 1.287 1_556 S
C250 O256 1.255 . S
O251 Fe243 2.001 . S
O251 C249 1.235 . S
C252 O258 1.287 . S
C252 O259 1.255 . S
O253 Fe242 1.976 . S
O253 C260 1.287 . S
O254 Fe243 2.000 . S
O254 C260 1.255 . S
O255 Fe245 1.976 . S
O255 C250 1.287 1_554 S
O256 Fe242 1.996 . S
O256 C250 1.255 . S
C257 O261 1.295 . S
C257 O262 1.235 . S
O258 Fe243 1.972 1_554 S
O258 C252 1.287 . S
O259 Fe245 1.996 . S
O259 C252 1.255 . S
C260 O253 1.287 . S
C260 O254 1.255 . S
O261 Fe243 1.998 1_554 S
O261 C257 1.295 . S
O262 Fe245 1.997 . S
O262 C257 1.235 . S
C263 O246 1.295 . S
C263 O247 1.235 1_554 S
Fe264 O266 1.918 . S
Fe264 O269 1.997 . S
Fe264 O270 2.002 . S
Fe264 O275 1.976 . S
Fe264 O278 1.996 . S
Fe265 O266 1.918 . S
Fe265 O273 1.997 . S
Fe265 O276 1.996 . S
Fe265 O280 1.976 . S
Fe265 O283 2.002 . S
O266 Fe264 1.918 . S
O266 Fe265 1.918 . S
O266 Fe267 1.918 . S
Fe267 O266 1.918 . S
Fe267 O268 2.002 . S
Fe267 O277 1.976 . S
Fe267 O281 1.996 . S
Fe267 O284 1.997 . S
O268 Fe267 2.002 . S
O268 C285 1.295 . S
O269 Fe264 1.997 . S
O269 C285 1.235 . S
O270 Fe264 2.002 . S
O270 C271 1.295 . S
C271 O270 1.295 . S
C271 O273 1.235 . S
C272 O277 1.287 . S
C272 O278 1.255 . S
O273 Fe265 1.997 . S
O273 C271 1.235 . S
C274 O280 1.287 . S
C274 O281 1.255 . S
O275 Fe264 1.976 . S
O275 C282 1.287 . S
O276 Fe265 1.996 . S
O276 C282 1.255 . S
O277 Fe267 1.976 . S
O277 C272 1.287 . S
O278 Fe264 1.996 . S
O278 C272 1.255 . S
C279 O283 1.295 . S
C279 O284 1.235 . S
O280 Fe265 1.976 . S
O280 C274 1.287 . S
O281 Fe267 1.996 . S
O281 C274 1.255 . S
C282 O275 1.287 . S
C282 O276 1.255 . S
O283 Fe265 2.002 . S
O283 C279 1.295 . S
O284 Fe267 1.997 . S
O284 C279 1.235 . S
C285 O268 1.295 . S
C285 O269 1.235 . S
Fe286 O288 1.918 . S
Fe286 O291 1.997 . S
Fe286 O292 2.002 . S
Fe286 O297 1.976 . S
Fe286 O300 1.996 . S
Fe287 O288 1.918 . S
Fe287 O295 1.997 . S
Fe287 O298 1.996 . S
Fe287 O302 1.976 . S
Fe287 O305 2.002 . S
O288 Fe286 1.918 . S
O288 Fe287 1.918 . S
O288 Fe289 1.918 . S
Fe289 O288 1.918 . S
Fe289 O290 2.002 . S
Fe289 O299 1.976 . S
Fe289 O303 1.996 . S
Fe289 O306 1.997 . S
O290 Fe289 2.002 . S
O290 C307 1.295 . S
O291 Fe286 1.997 . S
O291 C307 1.235 . S
O292 Fe286 2.002 . S
O292 C293 1.295 . S
C293 O292 1.295 . S
C293 O295 1.235 . S
C294 O299 1.287 . S
C294 O300 1.255 . S
O295 Fe287 1.997 . S
O295 C293 1.235 . S
C296 O302 1.287 . S
C296 O303 1.255 . S
O297 Fe286 1.976 . S
O297 C304 1.287 . S
O298 Fe287 1.996 . S
O298 C304 1.255 . S
O299 Fe289 1.976 . S
O299 C294 1.287 . S
O300 Fe286 1.996 . S
O300 C294 1.255 . S
C301 O305 1.295 . S
C301 O306 1.235 . S
O302 Fe287 1.976 . S
O302 C296 1.287 . S
O303 Fe289 1.996 . S
O303 C296 1.255 . S
C304 O297 1.287 . S
C304 O298 1.255 . S
O305 Fe287 2.002 . S
O305 C301 1.295 . S
O306 Fe289 1.997 . S
O306 C301 1.235 . S
C307 O290 1.295 . S
C307 O291 1.235 . S
Fe308 O310 1.918 . S
Fe308 O313 1.997 . S
Fe308 O314 2.002 . S
Fe308 O319 1.976 . S
Fe308 O322 1.996 . S
Fe309 O310 1.918 . S
Fe309 O317 1.997 . S
Fe309 O320 1.996 . S
Fe309 O324 1.976 . S
Fe309 O327 2.002 . S
O310 Fe308 1.918 . S
O310 Fe309 1.918 . S
O310 Fe311 1.918 . S
Fe311 O310 1.918 . S
Fe311 O312 2.002 . S
Fe311 O321 1.976 . S
Fe311 O325 1.996 . S
Fe311 O328 1.997 . S
O312 Fe311 2.002 . S
O312 C329 1.295 . S
O313 Fe308 1.997 . S
O313 C329 1.235 . S
O314 Fe308 2.002 . S
O314 C315 1.295 . S
C315 O314 1.295 . S
C315 O317 1.235 . S
C316 O321 1.287 . S
C316 O322 1.255 . S
O317 Fe309 1.997 . S
O317 C315 1.235 . S
C318 O324 1.287 . S
C318 O325 1.255 . S
O319 Fe308 1.976 . S
O319 C326 1.287 . S
O320 Fe309 1.996 . S
O320 C326 1.255 . S
O321 Fe311 1.976 . S
O321 C316 1.287 . S
O322 Fe308 1.996 . S
O322 C316 1.255 . S
C323 O327 1.295 . S
C323 O328 1.235 . S
O324 Fe309 1.976 . S
O324 C318 1.287 . S
O325 Fe311 1.996 . S
O325 C318 1.255 . S
C326 O319 1.287 . S
C326 O320 1.255 . S
O327 Fe309 2.002 . S
O327 C323 1.295 . S
O328 Fe311 1.997 . S
O328 C323 1.235 . S
C329 O312 1.295 . S
C329 O313 1.235 . S
Fe330 O332 1.918 . S
Fe330 O335 1.997 . S
Fe330 O336 2.002 . S
Fe330 O341 1.976 . S
Fe330 O344 1.996 . S
Fe331 O332 1.918 . S
Fe331 O339 1.997 . S
Fe331 O342 1.996 . S
Fe331 O346 1.976 . S
Fe331 O349 2.002 . S
O332 Fe330 1.918 . S
O332 Fe331 1.918 . S
O332 Fe333 1.918 . S
Fe333 O332 1.918 . S
Fe333 O334 2.002 . S
Fe333 O343 1.976 . S
Fe333 O347 1.996 . S
Fe333 O350 1.997 . S
O334 Fe333 2.002 . S
O334 C351 1.295 . S
O335 Fe330 1.997 . S
O335 C351 1.235 . S
O336 Fe330 2.002 . S
O336 C337 1.295 . S
C337 O336 1.295 . S
C337 O339 1.235 . S
C338 O343 1.287 . S
C338 O344 1.255 . S
O339 Fe331 1.997 . S
O339 C337 1.235 . S
C340 O346 1.287 . S
C340 O347 1.255 . S
O341 Fe330 1.976 . S
O341 C348 1.287 . S
O342 Fe331 1.996 . S
O342 C348 1.255 . S
O343 Fe333 1.976 . S
O343 C338 1.287 . S
O344 Fe330 1.996 . S
O344 C338 1.255 . S
C345 O349 1.295 . S
C345 O350 1.235 . S
O346 Fe331 1.976 . S
O346 C340 1.287 . S
O347 Fe333 1.996 . S
O347 C340 1.255 . S
C348 O341 1.287 . S
C348 O342 1.255 . S
O349 Fe331 2.002 . S
O349 C345 1.295 . S
O350 Fe333 1.997 . S
O350 C345 1.235 . S
C351 O334 1.295 . S
C351 O335 1.235 . S
Fe352 O354 1.918 . S
Fe352 O357 1.997 . S
Fe352 O358 2.002 . S
Fe352 O363 1.976 . S
Fe352 O366 1.996 . S
Fe353 O354 1.918 . S
Fe353 O361 1.997 . S
Fe353 O364 1.996 . S
Fe353 O368 1.976 . S
Fe353 O371 2.002 . S
O354 Fe352 1.918 . S
O354 Fe353 1.918 . S
O354 Fe355 1.918 . S
Fe355 O354 1.918 . S
Fe355 O356 2.002 . S
Fe355 O365 1.976 . S
Fe355 O369 1.996 . S
Fe355 O372 1.997 . S
O356 Fe355 2.002 . S
O356 C373 1.295 . S
O357 Fe352 1.997 . S
O357 C373 1.235 . S
O358 Fe352 2.002 . S
O358 C359 1.295 . S
C359 O358 1.295 . S
C359 O361 1.235 . S
C360 O365 1.287 . S
C360 O366 1.255 . S
O361 Fe353 1.997 . S
O361 C359 1.235 . S
C362 O368 1.287 . S
C362 O369 1.255 . S
O363 Fe352 1.976 . S
O363 C370 1.287 . S
O364 Fe353 1.996 . S
O364 C370 1.255 . S
O365 Fe355 1.976 . S
O365 C360 1.287 . S
O366 Fe352 1.996 . S
O366 C360 1.255 . S
C367 O371 1.295 . S
C367 O372 1.235 . S
O368 Fe353 1.976 . S
O368 C362 1.287 . S
O369 Fe355 1.996 . S
O369 C362 1.255 . S
C370 O363 1.287 . S
C370 O364 1.255 . S
O371 Fe353 2.002 . S
O371 C367 1.295 . S
O372 Fe355 1.997 . S
O372 C367 1.235 . S
C373 O356 1.295 . S
C373 O357 1.235 . S
Fe374 O376 1.918 . S
Fe374 O379 1.997 . S
Fe374 O380 2.002 . S
Fe374 O385 1.976 . S
Fe374 O388 1.996 . S
Fe375 O376 1.918 . S
Fe375 O383 1.997 . S
Fe375 O386 1.996 . S
Fe375 O390 1.976 . S
Fe375 O393 2.002 . S
O376 Fe374 1.918 . S
O376 Fe375 1.918 . S
O376 Fe377 1.918 . S
Fe377 O376 1.918 . S
Fe377 O378 2.002 . S
Fe377 O387 1.976 . S
Fe377 O391 1.996 . S
Fe377 O394 1.997 . S
O378 Fe377 2.002 . S
O378 C395 1.295 . S
O379 Fe374 1.997 . S
O379 C395 1.235 . S
O380 Fe374 2.002 . S
O380 C381 1.295 . S
C381 O380 1.295 . S
C381 O383 1.235 . S
C382 O387 1.287 . S
C382 O388 1.255 . S
O383 Fe375 1.997 . S
O383 C381 1.235 . S
C384 O390 1.287 . S
C384 O391 1.255 . S
O385 Fe374 1.976 . S
O385 C392 1.287 . S
O386 Fe375 1.996 . S
O386 C392 1.255 . S
O387 Fe377 1.976 . S
O387 C382 1.287 . S
O388 Fe374 1.996 . S
O388 C382 1.255 . S
C389 O393 1.295 . S
C389 O394 1.235 . S
O390 Fe375 1.976 . S
O390 C384 1.287 . S
O391 Fe377 1.996 . S
O391 C384 1.255 . S
C392 O385 1.287 . S
C392 O386 1.255 . S
O393 Fe375 2.002 . S
O393 C389 1.295 . S
O394 Fe377 1.997 . S
O394 C389 1.235 . S
C395 O378 1.295 . S
C395 O379 1.235 . S
Fe396 O398 1.918 . S
Fe396 O401 1.997 . S
Fe396 O402 2.002 . S
Fe396 O407 1.976 . S
Fe396 O410 1.996 . S
Fe397 O398 1.918 . S
Fe397 O405 1.997 . S
Fe397 O408 1.996 . S
Fe397 O412 1.976 . S
Fe397 O415 2.002 . S
O398 Fe396 1.918 . S
O398 Fe397 1.918 . S
O398 Fe399 1.918 . S
Fe399 O398 1.918 . S
Fe399 O400 2.002 . S
Fe399 O409 1.976 . S
Fe399 O413 1.996 . S
Fe399 O416 1.997 . S
O400 Fe399 2.002 . S
O400 C417 1.295 . S
O401 Fe396 1.997 . S
O401 C417 1.235 . S
O402 Fe396 2.002 . S
O402 C403 1.295 . S
C403 O402 1.295 . S
C403 O405 1.235 . S
C404 O409 1.287 . S
C404 O410 1.255 . S
O405 Fe397 1.997 . S
O405 C403 1.235 . S
C406 O412 1.287 . S
C406 O413 1.255 . S
O407 Fe396 1.976 . S
O407 C414 1.287 . S
O408 Fe397 1.996 . S
O408 C414 1.255 . S
O409 Fe399 1.976 . S
O409 C404 1.287 . S
O410 Fe396 1.996 . S
O410 C404 1.255 . S
C411 O415 1.295 . S
C411 O416 1.235 . S
O412 Fe397 1.976 . S
O412 C406 1.287 . S
O413 Fe399 1.996 . S
O413 C406 1.255 . S
C414 O407 1.287 . S
C414 O408 1.255 . S
O415 Fe397 2.002 . S
O415 C411 1.295 . S
O416 Fe399 1.997 . S
O416 C411 1.235 . S
C417 O400 1.295 . S
C417 O401 1.235 . S
Fe418 O420 1.918 . S
Fe418 O423 1.997 . S
Fe418 O424 2.002 . S
Fe418 O429 1.976 . S
Fe418 O432 1.996 . S
Fe419 O420 1.918 . S
Fe419 O427 1.997 . S
Fe419 O430 1.996 . S
Fe419 O434 1.976 . S
Fe419 O437 2.002 . S
O420 Fe418 1.918 . S
O420 Fe419 1.918 . S
O420 Fe421 1.918 . S
Fe421 O420 1.918 . S
Fe421 O422 2.002 . S
Fe421 O431 1.976 . S
Fe421 O435 1.996 . S
Fe421 O438 1.997 . S
O422 Fe421 2.002 . S
O422 C439 1.295 . S
O423 Fe418 1.997 . S
O423 C439 1.235 . S
O424 Fe418 2.002 . S
O424 C425 1.295 . S
C425 O424 1.295 . S
C425 O427 1.235 . S
C426 O431 1.287 . S
C426 O432 1.255 . S
O427 Fe419 1.997 . S
O427 C425 1.235 . S
C428 O434 1.287 . S
C428 O435 1.255 . S
O429 Fe418 1.976 . S
O429 C436 1.287 . S
O430 Fe419 1.996 . S
O430 C436 1.255 . S
O431 Fe421 1.976 . S
O431 C426 1.287 . S
O432 Fe418 1.996 . S
O432 C426 1.255 . S
C433 O437 1.295 . S
C433 O438 1.235 . S
O434 Fe419 1.976 . S
O434 C428 1.287 . S
O435 Fe421 1.996 . S
O435 C428 1.255 . S
C436 O429 1.287 . S
C436 O430 1.255 . S
O437 Fe419 2.002 . S
O437 C433 1.295 . S
O438 Fe421 1.997 . S
O438 C433 1.235 . S
C439 O422 1.295 . S
C439 O423 1.235 . S
Fe440 O442 1.918 . S
Fe440 O445 1.997 . S
Fe440 O446 2.002 . S
Fe440 O451 1.976 . S
Fe440 O454 1.996 . S
Fe441 O442 1.918 . S
Fe441 O449 1.997 . S
Fe441 O452 1.996 . S
Fe441 O456 1.976 . S
Fe441 O459 2.002 . S
O442 Fe440 1.918 . S
O442 Fe441 1.918 . S
O442 Fe443 1.918 . S
Fe443 O442 1.918 . S
Fe443 O444 2.002 . S
Fe443 O453 1.976 . S
Fe443 O457 1.996 . S
Fe443 O460 1.997 . S
O444 Fe443 2.002 . S
O444 C461 1.295 . S
O445 Fe440 1.997 . S
O445 C461 1.235 . S
O446 Fe440 2.002 . S
O446 C447 1.295 . S
C447 O446 1.295 . S
C447 O449 1.235 . S
C448 O453 1.287 . S
C448 O454 1.255 . S
O449 Fe441 1.997 . S
O449 C447 1.235 . S
C450 O456 1.287 . S
C450 O457 1.255 . S
O451 Fe440 1.976 . S
O451 C458 1.287 . S
O452 Fe441 1.996 . S
O452 C458 1.255 . S
O453 Fe443 1.976 . S
O453 C448 1.287 . S
O454 Fe440 1.996 . S
O454 C448 1.255 . S
C455 O459 1.295 . S
C455 O460 1.235 . S
O456 Fe441 1.976 . S
O456 C450 1.287 . S
O457 Fe443 1.996 . S
O457 C450 1.255 . S
C458 O451 1.287 . S
C458 O452 1.255 . S
O459 Fe441 2.002 . S
O459 C455 1.295 . S
O460 Fe443 1.997 . S
O460 C455 1.235 . S
C461 O444 1.295 . S
C461 O445 1.235 . S
Fe462 O464 1.918 . S
Fe462 O467 1.997 . S
Fe462 O468 2.002 . S
Fe462 O473 1.976 . S
Fe462 O476 1.996 . S
Fe463 O464 1.918 . S
Fe463 O471 1.997 . S
Fe463 O474 1.996 . S
Fe463 O478 1.976 . S
Fe463 O481 2.002 . S
O464 Fe462 1.918 . S
O464 Fe463 1.918 . S
O464 Fe465 1.918 . S
Fe465 O464 1.918 . S
Fe465 O466 2.002 . S
Fe465 O475 1.976 . S
Fe465 O479 1.996 . S
Fe465 O482 1.997 . S
O466 Fe465 2.002 . S
O466 C483 1.295 . S
O467 Fe462 1.997 . S
O467 C483 1.235 . S
O468 Fe462 2.002 . S
O468 C469 1.295 . S
C469 O468 1.295 . S
C469 O471 1.235 . S
C470 O475 1.287 . S
C470 O476 1.255 . S
O471 Fe463 1.997 . S
O471 C469 1.235 . S
C472 O478 1.287 . S
C472 O479 1.255 . S
O473 Fe462 1.976 . S
O473 C480 1.287 . S
O474 Fe463 1.996 . S
O474 C480 1.255 . S
O475 Fe465 1.976 . S
O475 C470 1.287 . S
O476 Fe462 1.996 . S
O476 C470 1.255 . S
C477 O481 1.295 . S
C477 O482 1.235 . S
O478 Fe463 1.976 . S
O478 C472 1.287 . S
O479 Fe465 1.996 . S
O479 C472 1.255 . S
C480 O473 1.287 . S
C480 O474 1.255 . S
O481 Fe463 2.002 . S
O481 C477 1.295 . S
O482 Fe465 1.997 . S
O482 C477 1.235 . S
C483 O466 1.295 . S
C483 O467 1.235 . S
Fe484 O486 1.918 . S
Fe484 O489 1.997 . S
Fe484 O490 2.002 . S
Fe484 O495 1.976 . S
Fe484 O498 1.996 . S
Fe485 O486 1.918 . S
Fe485 O493 1.997 . S
Fe485 O496 1.996 . S
Fe485 O500 1.976 . S
Fe485 O503 2.002 . S
O486 Fe484 1.918 . S
O486 Fe485 1.918 . S
O486 Fe487 1.918 . S
Fe487 O486 1.918 . S
Fe487 O488 2.002 . S
Fe487 O497 1.976 . S
Fe487 O501 1.996 . S
Fe487 O504 1.997 . S
O488 Fe487 2.002 . S
O488 C505 1.295 . S
O489 Fe484 1.997 . S
O489 C505 1.235 . S
O490 Fe484 2.002 . S
O490 C491 1.295 . S
C491 O490 1.295 . S
C491 O493 1.235 . S
C492 O497 1.287 . S
C492 O498 1.255 . S
O493 Fe485 1.997 . S
O493 C491 1.235 . S
C494 O500 1.287 . S
C494 O501 1.255 . S
O495 Fe484 1.976 . S
O495 C502 1.287 . S
O496 Fe485 1.996 . S
O496 C502 1.255 . S
O497 Fe487 1.976 . S
O497 C492 1.287 . S
O498 Fe484 1.996 . S
O498 C492 1.255 . S
C499 O503 1.295 . S
C499 O504 1.235 . S
O500 Fe485 1.976 . S
O500 C494 1.287 . S
O501 Fe487 1.996 . S
O501 C494 1.255 . S
C502 O495 1.287 . S
C502 O496 1.255 . S
O503 Fe485 2.002 . S
O503 C499 1.295 . S
O504 Fe487 1.997 . S
O504 C499 1.235 . S
C505 O488 1.295 . S
C505 O489 1.235 . S
Fe506 O508 1.918 . S
Fe506 O511 1.997 . S
Fe506 O512 2.002 . S
Fe506 O517 1.976 . S
Fe506 O520 1.996 . S
Fe507 O508 1.918 . S
Fe507 O515 1.997 . S
Fe507 O518 1.996 . S
Fe507 O522 1.976 . S
Fe507 O525 2.002 . S
O508 Fe506 1.918 . S
O508 Fe507 1.918 . S
O508 Fe509 1.918 . S
Fe509 O508 1.918 . S
Fe509 O510 2.002 . S
Fe509 O519 1.976 . S
Fe509 O523 1.996 . S
Fe509 O526 1.997 . S
O510 Fe509 2.002 . S
O510 C527 1.295 . S
O511 Fe506 1.997 . S
O511 C527 1.235 . S
O512 Fe506 2.002 . S
O512 C513 1.295 . S
C513 O512 1.295 . S
C513 O515 1.235 . S
C514 O519 1.287 . S
C514 O520 1.255 . S
O515 Fe507 1.997 . S
O515 C513 1.235 . S
C516 O522 1.287 . S
C516 O523 1.255 . S
O517 Fe506 1.976 . S
O517 C524 1.287 . S
O518 Fe507 1.996 . S
O518 C524 1.255 . S
O519 Fe509 1.976 . S
O519 C514 1.287 . S
O520 Fe506 1.996 . S
O520 C514 1.255 . S
C521 O525 1.295 . S
C521 O526 1.235 . S
O522 Fe507 1.976 . S
O522 C516 1.287 . S
O523 Fe509 1.996 . S
O523 C516 1.255 . S
C524 O517 1.287 . S
C524 O518 1.255 . S
O525 Fe507 2.002 . S
O525 C521 1.295 . S
O526 Fe509 1.997 . S
O526 C521 1.235 . S
C527 O510 1.295 . S
C527 O511 1.235 . S
C528 C529 1.403 . S
C528 H532 0.950 . S
C528 C537 1.390 . S
C529 C528 1.403 . S
C529 C531 1.372 1_455 S
H530 C537 0.950 . S
C531 C529 1.372 1_655 S
C531 C533 1.390 . S
C531 H535 0.950 . S
H532 C528 0.950 . S
C533 C531 1.390 . S
C533 C534 1.381 1_655 S
C533 H536 0.950 . S
C534 C533 1.381 1_455 S
C534 C537 1.394 . S
H535 C531 0.950 . S
H536 C533 0.950 . S
C537 C528 1.390 . S
C537 H530 0.950 . S
C537 C534 1.394 . S
C538 C539 1.410 . S
C538 H542 0.950 . S
C538 C547 1.390 . S
C539 C538 1.410 . S
C539 C541 1.365 1_545 S
H540 C547 0.950 . S
C541 C539 1.365 1_565 S
C541 C543 1.390 . S
C541 H545 0.950 . S
H542 C538 0.950 . S
C543 C541 1.390 . S
C543 C544 1.383 1_565 S
C543 H546 0.950 . S
C544 C543 1.383 1_545 S
C544 C547 1.392 . S
H545 C541 0.950 . S
H546 C543 0.950 . S
C547 C538 1.390 . S
C547 H540 0.950 . S
C547 C544 1.392 . S
C548 C549 1.392 . S
C548 H552 0.950 . S
C548 C557 1.390 . S
C549 C548 1.392 . S
C549 C551 1.383 1_455 S
H550 C557 0.950 . S
C551 C549 1.383 1_655 S
C551 C553 1.390 . S
C551 H555 0.950 . S
H552 C548 0.950 . S
C553 C551 1.390 . S
C553 C554 1.387 . S
C553 H556 0.950 . S
C554 C553 1.387 . S
C554 C557 1.388 1_655 S
H555 C551 0.950 . S
H556 C553 0.950 . S
C557 C548 1.390 . S
C557 H550 0.950 . S
C557 C554 1.388 1_455 S
C558 C559 1.389 . S
C558 H562 0.950 . S
C558 C567 1.390 . S
C559 C558 1.389 . S
C559 C561 1.386 1_565 S
H560 C567 0.950 . S
C561 C559 1.386 1_545 S
C561 C563 1.390 . S
C561 H565 0.950 . S
H562 C558 0.950 . S
C563 C561 1.390 . S
C563 C564 1.396 . S
C563 H566 0.950 . S
C564 C563 1.396 . S
C564 C567 1.379 1_545 S
H565 C561 0.950 . S
H566 C563 0.950 . S
C567 C558 1.390 . S
C567 H560 0.950 . S
C567 C564 1.379 1_565 S
C568 C569 1.387 . S
C568 H572 0.950 . S
C568 C577 1.390 . S
C569 C568 1.387 . S
C569 C571 1.387 . S
H570 C577 0.950 1_565 S
C571 C569 1.387 . S
C571 C573 1.390 . S
C571 H575 0.950 . S
H572 C568 0.950 . S
C573 C571 1.390 . S
C573 C574 1.387 . S
C573 H576 0.950 1_545 S
C574 C573 1.387 . S
C574 C577 1.387 . S
H575 C571 0.950 . S
H576 C573 0.950 1_565 S
C577 C568 1.390 . S
C577 H570 0.950 1_545 S
C577 C574 1.387 . S
C578 C579 1.387 . S
C578 H582 0.950 . S
C578 C587 1.390 . S
C579 C578 1.387 . S
C579 C581 1.387 . S
H580 C587 0.950 1_655 S
C581 C579 1.387 . S
C581 C583 1.390 . S
C581 H585 0.950 . S
H582 C578 0.950 . S
C583 C581 1.390 . S
C583 C584 1.387 . S
C583 H586 0.950 1_455 S
C584 C583 1.387 . S
C584 C587 1.387 . S
H585 C581 0.950 . S
H586 C583 0.950 1_655 S
C587 C578 1.390 . S
C587 H580 0.950 1_455 S
C587 C584 1.387 . S
C588 C589 1.387 . S
C588 H592 0.950 . S
C588 C597 1.390 . S
C589 C588 1.387 . S
C589 C591 1.387 . S
H590 C597 0.950 . S
C591 C589 1.387 . S
C591 C593 1.390 . S
C591 H595 0.950 . S
H592 C588 0.950 . S
C593 C591 1.390 . S
C593 C594 1.387 . S
C593 H596 0.950 . S
C594 C593 1.387 . S
C594 C597 1.387 . S
H595 C591 0.950 . S
H596 C593 0.950 . S
C597 C588 1.390 . S
C597 H590 0.950 . S
C597 C594 1.387 . S
C598 C599 1.387 . S
C598 H602 0.950 . S
C598 C607 1.390 . S
C599 C598 1.387 . S
C599 C601 1.387 . S
H600 C607 0.950 . S
C601 C599 1.387 . S
C601 C603 1.390 . S
C601 H605 0.950 . S
H602 C598 0.950 . S
C603 C601 1.390 . S
C603 C604 1.387 . S
C603 H606 0.950 . S
C604 C603 1.387 . S
C604 C607 1.387 . S
H605 C601 0.950 . S
H606 C603 0.950 . S
C607 C598 1.390 . S
C607 H600 0.950 . S
C607 C604 1.387 . S
C608 C609 1.398 . S
C608 H612 0.950 . S
C608 C617 1.390 . S
C609 C608 1.398 . S
C609 C611 1.377 1_554 S
H610 C617 0.950 . S
C611 C609 1.377 1_556 S
C611 C613 1.390 . S
C611 H615 0.950 . S
H612 C608 0.950 . S
C613 C611 1.390 . S
C613 C614 1.386 . S
C613 H616 0.950 . S
C614 C613 1.386 . S
C614 C617 1.389 1_556 S
H615 C611 0.950 . S
H616 C613 0.950 . S
C617 C608 1.390 . S
C617 H610 0.950 . S
C617 C614 1.389 1_554 S
C618 C619 1.381 1_554 S
C618 H622 0.950 . S
C618 C627 1.390 . S
C619 C618 1.381 1_556 S
C619 C621 1.394 . S
H620 C627 0.950 . S
C621 C619 1.394 . S
C621 C623 1.390 . S
C621 H625 0.950 . S
H622 C618 0.950 . S
C623 C621 1.390 . S
C623 C624 1.380 1_556 S
C623 H626 0.950 . S
C624 C623 1.380 1_554 S
C624 C627 1.395 . S
H625 C621 0.950 . S
H626 C623 0.950 . S
C627 C618 1.390 . S
C627 H620 0.950 . S
C627 C624 1.395 . S
C628 C629 1.388 . S
C628 H632 0.950 . S
C628 C637 1.390 . S
C629 C628 1.388 . S
C629 C631 1.387 1_556 S
H630 C637 0.950 . S
C631 C629 1.387 1_554 S
C631 C633 1.390 . S
C631 H635 0.950 . S
H632 C628 0.950 . S
C633 C631 1.390 . S
C633 C634 1.399 . S
C633 H636 0.950 . S
C634 C633 1.399 . S
C634 C637 1.376 1_554 S
H635 C631 0.950 . S
H636 C633 0.950 . S
C637 C628 1.390 . S
C637 H630 0.950 . S
C637 C634 1.376 1_556 S
C638 C639 1.381 1_554 S
C638 H642 0.950 . S
C638 C647 1.390 . S
C639 C638 1.381 1_556 S
C639 C641 1.394 . S
H640 C647 0.950 . S
C641 C639 1.394 . S
C641 C643 1.390 . S
C641 H645 0.950 . S
H642 C638 0.950 . S
C643 C641 1.390 . S
C643 C644 1.381 1_556 S
C643 H646 0.950 . S
C644 C643 1.381 1_554 S
C644 C647 1.394 . S
H645 C641 0.950 . S
H646 C643 0.950 . S
C647 C638 1.390 . S
C647 H640 0.950 . S
C647 C644 1.394 . S
C648 C649 1.387 . S
C648 H652 0.950 . S
C648 C657 1.390 1_556 S
C649 C648 1.387 . S
C649 C651 1.387 . S
H650 C657 0.950 . S
C651 C649 1.387 . S
C651 C653 1.390 1_556 S
C651 H655 0.950 . S
H652 C648 0.950 . S
C653 C651 1.390 1_554 S
C653 C654 1.387 . S
C653 H656 0.950 . S
C654 C653 1.387 . S
C654 C657 1.387 . S
H655 C651 0.950 . S
H656 C653 0.950 . S
C657 C648 1.390 1_554 S
C657 H650 0.950 . S
C657 C654 1.387 . S
C658 C659 1.387 . S
C658 H662 0.950 . S
C658 C667 1.390 1_554 S
C659 C658 1.387 . S
C659 C661 1.387 . S
H660 C667 0.950 . S
C661 C659 1.387 . S
C661 C663 1.390 1_554 S
C661 H665 0.950 . S
H662 C658 0.950 . S
C663 C661 1.390 1_556 S
C663 C664 1.387 . S
C663 H666 0.950 . S
C664 C663 1.387 . S
C664 C667 1.387 . S
H665 C661 0.950 . S
H666 C663 0.950 . S
C667 C658 1.390 1_556 S
C667 H660 0.950 . S
C667 C664 1.387 . S
C668 C669 1.387 . S
C668 H672 0.950 . S
C668 C677 1.390 1_556 S
C669 C668 1.387 . S
C669 C671 1.387 . S
H670 C677 0.950 . S
C671 C669 1.387 . S
C671 C673 1.390 1_556 S
C671 H675 0.950 . S
H672 C668 0.950 . S
C673 C671 1.390 1_554 S
C673 C674 1.387 . S
C673 H676 0.950 . S
C674 C673 1.387 . S
C674 C677 1.387 . S
H675 C671 0.950 . S
H676 C673 0.950 . S
C677 C668 1.390 1_554 S
C677 H670 0.950 . S
C677 C674 1.387 . S
C678 C679 1.387 . S
C678 H682 0.950 . S
C678 C687 1.390 1_556 S
C679 C678 1.387 . S
C679 C681 1.387 . S
H680 C687 0.950 . S
C681 C679 1.387 . S
C681 C683 1.390 1_556 S
C681 H685 0.950 . S
H682 C678 0.950 . S
C683 C681 1.390 1_554 S
C683 C684 1.387 . S
C683 H686 0.950 . S
C684 C683 1.387 . S
C684 C687 1.387 . S
H685 C681 0.950 . S
H686 C683 0.950 . S
C687 C678 1.390 1_554 S
C687 H680 0.950 . S
C687 C684 1.387 . S
C688 C689 1.387 . S
C688 H692 0.950 . S
C688 C697 1.390 1_655 S
C689 C688 1.387 . S
C689 C691 1.387 . S
H690 C697 0.950 . S
C691 C689 1.387 . S
C691 C693 1.390 1_655 S
C691 H695 0.950 . S
H692 C688 0.950 . S
C693 C691 1.390 1_455 S
C693 C694 1.387 . S
C693 H696 0.950 . S
C694 C693 1.387 . S
C694 C697 1.387 . S
H695 C691 0.950 . S
H696 C693 0.950 . S
C697 C688 1.390 1_455 S
C697 H690 0.950 . S
C697 C694 1.387 . S
C698 C699 1.387 . S
C698 H702 0.950 . S
C698 C707 1.390 1_545 S
C699 C698 1.387 . S
C699 C701 1.387 . S
H700 C707 0.950 . S
C701 C699 1.387 . S
C701 C703 1.390 1_545 S
C701 H705 0.950 . S
H702 C698 0.950 . S
C703 C701 1.390 1_565 S
C703 C704 1.387 . S
C703 H706 0.950 . S
C704 C703 1.387 . S
C704 C707 1.387 . S
H705 C701 0.950 . S
H706 C703 0.950 . S
C707 C698 1.390 1_565 S
C707 H700 0.950 . S
C707 C704 1.387 . S
C708 C709 1.387 . S
C708 H712 0.950 . S
C708 C717 1.390 1_655 S
C709 C708 1.387 . S
C709 C711 1.387 . S
H710 C717 0.950 . S
C711 C709 1.387 . S
C711 C713 1.390 1_655 S
C711 H715 0.950 . S
H712 C708 0.950 . S
C713 C711 1.390 1_455 S
C713 C714 1.387 . S
C713 H716 0.950 . S
C714 C713 1.387 . S
C714 C717 1.387 . S
H715 C711 0.950 . S
H716 C713 0.950 . S
C717 C708 1.390 1_455 S
C717 H710 0.950 . S
C717 C714 1.387 . S
C718 C719 1.387 . S
C718 H722 0.950 . S
C718 C727 1.390 1_565 S
C719 C718 1.387 . S
C719 C721 1.387 . S
H720 C727 0.950 . S
C721 C719 1.387 . S
C721 C723 1.390 1_565 S
C721 H725 0.950 . S
H722 C718 0.950 . S
C723 C721 1.390 1_545 S
C723 C724 1.387 . S
C723 H726 0.950 . S
C724 C723 1.387 . S
C724 C727 1.387 . S
H725 C721 0.950 . S
H726 C723 0.950 . S
C727 C718 1.390 1_545 S
C727 H720 0.950 . S
C727 C724 1.387 . S
C728 C729 1.387 . S
C728 H732 0.950 . S
C728 C737 1.390 1_565 S
C729 C728 1.387 . S
C729 C731 1.387 . S
H730 C737 0.950 . S
C731 C729 1.387 . S
C731 C733 1.390 1_565 S
C731 H735 0.950 . S
H732 C728 0.950 . S
C733 C731 1.390 1_545 S
C733 C734 1.387 . S
C733 H736 0.950 . S
C734 C733 1.387 . S
C734 C737 1.387 . S
H735 C731 0.950 . S
H736 C733 0.950 . S
C737 C728 1.390 1_545 S
C737 H730 0.950 . S
C737 C734 1.387 . S
C738 C739 1.387 . S
C738 H742 0.950 . S
C738 C747 1.390 1_455 S
C739 C738 1.387 . S
C739 C741 1.387 . S
H740 C747 0.950 . S
C741 C739 1.387 . S
C741 C743 1.390 1_455 S
C741 H745 0.950 . S
H742 C738 0.950 . S
C743 C741 1.390 1_655 S
C743 C744 1.387 . S
C743 H746 0.950 . S
C744 C743 1.387 . S
C744 C747 1.387 . S
H745 C741 0.950 . S
H746 C743 0.950 . S
C747 C738 1.390 1_655 S
C747 H740 0.950 . S
C747 C744 1.387 . S
C748 C749 1.387 . S
C748 H752 0.950 . S
C748 C757 1.390 1_565 S
C749 C748 1.387 . S
C749 C751 1.387 . S
H750 C757 0.950 . S
C751 C749 1.387 . S
C751 C753 1.390 1_565 S
C751 H755 0.950 . S
H752 C748 0.950 . S
C753 C751 1.390 1_545 S
C753 C754 1.387 . S
C753 H756 0.950 . S
C754 C753 1.387 . S
C754 C757 1.387 . S
H755 C751 0.950 . S
H756 C753 0.950 . S
C757 C748 1.390 1_545 S
C757 H750 0.950 . S
C757 C754 1.387 . S
C758 C759 1.387 . S
C758 H762 0.950 . S
C758 C767 1.390 1_455 S
C759 C758 1.387 . S
C759 C761 1.387 . S
H760 C767 0.950 . S
C761 C759 1.387 . S
C761 C763 1.390 1_455 S
C761 H765 0.950 . S
H762 C758 0.950 . S
C763 C761 1.390 1_655 S
C763 C764 1.387 . S
C763 H766 0.950 . S
C764 C763 1.387 . S
C764 C767 1.387 . S
H765 C761 0.950 . S
H766 C763 0.950 . S
C767 C758 1.390 1_655 S
C767 H760 0.950 . S
C767 C764 1.387 . S
C768 C769 1.387 . S
C768 H772 0.950 . S
C768 C777 1.390 . S
C769 C768 1.387 . S
C769 C771 1.387 . S
H770 C777 0.950 . S
C771 C769 1.387 . S
C771 C773 1.390 . S
C771 H775 0.950 . S
H772 C768 0.950 . S
C773 C771 1.390 . S
C773 C774 1.387 . S
C773 H776 0.950 . S
C774 C773 1.387 . S
C774 C777 1.387 . S
H775 C771 0.950 . S
H776 C773 0.950 . S
C777 C768 1.390 . S
C777 H770 0.950 . S
C777 C774 1.387 . S
C778 C779 1.387 . S
C778 H782 0.950 . S
C778 C787 1.390 . S
C779 C778 1.387 . S
C779 C781 1.387 . S
H780 C787 0.950 . S
C781 C779 1.387 . S
C781 C783 1.390 . S
C781 H785 0.950 . S
H782 C778 0.950 . S
C783 C781 1.390 . S
C783 C784 1.387 . S
C783 H786 0.950 . S
C784 C783 1.387 . S
C784 C787 1.387 . S
H785 C781 0.950 . S
H786 C783 0.950 . S
C787 C778 1.390 . S
C787 H780 0.950 . S
C787 C784 1.387 . S
C788 C789 1.387 . S
C788 H792 0.950 . S
C788 C797 1.390 . S
C789 C788 1.387 . S
C789 C791 1.387 . S
H790 C797 0.950 . S
C791 C789 1.387 . S
C791 C793 1.390 . S
C791 H795 0.950 . S
H792 C788 0.950 . S
C793 C791 1.390 . S
C793 C794 1.387 . S
C793 H796 0.950 . S
C794 C793 1.387 . S
C794 C797 1.387 . S
H795 C791 0.950 . S
H796 C793 0.950 . S
C797 C788 1.390 . S
C797 H790 0.950 . S
C797 C794 1.387 . S
C798 C799 1.387 . S
C798 H802 0.950 . S
C798 C807 1.390 . S
C799 C798 1.387 . S
C799 C801 1.387 . S
H800 C807 0.950 . S
C801 C799 1.387 . S
C801 C803 1.390 . S
C801 H805 0.950 . S
H802 C798 0.950 . S
C803 C801 1.390 . S
C803 C804 1.387 . S
C803 H806 0.950 . S
C804 C803 1.387 . S
C804 C807 1.387 . S
H805 C801 0.950 . S
H806 C803 0.950 . S
C807 C798 1.390 . S
C807 H800 0.950 . S
C807 C804 1.387 . S
C808 C809 1.387 . S
C808 H812 0.950 . S
C808 C817 1.390 . S
C809 C808 1.387 . S
C809 C811 1.387 . S
H810 C817 0.950 . S
C811 C809 1.387 . S
C811 C813 1.390 . S
C811 H815 0.950 . S
H812 C808 0.950 . S
C813 C811 1.390 . S
C813 C814 1.387 . S
C813 H816 0.950 . S
C814 C813 1.387 . S
C814 C817 1.387 . S
H815 C811 0.950 . S
H816 C813 0.950 . S
C817 C808 1.390 . S
C817 H810 0.950 . S
C817 C814 1.387 . S
C818 C819 1.387 . S
C818 H822 0.950 . S
C818 C827 1.390 . S
C819 C818 1.387 . S
C819 C821 1.387 . S
H820 C827 0.950 . S
C821 C819 1.387 . S
C821 C823 1.390 . S
C821 H825 0.950 . S
H822 C818 0.950 . S
C823 C821 1.390 . S
C823 C824 1.387 . S
C823 H826 0.950 . S
C824 C823 1.387 . S
C824 C827 1.387 . S
H825 C821 0.950 . S
H826 C823 0.950 . S
C827 C818 1.390 . S
C827 H820 0.950 . S
C827 C824 1.387 . S
C828 C829 1.387 . S
C828 H832 0.950 . S
C828 C837 1.390 . S
C829 C828 1.387 . S
C829 C831 1.387 . S
H830 C837 0.950 . S
C831 C829 1.387 . S
C831 C833 1.390 . S
C831 H835 0.950 . S
H832 C828 0.950 . S
C833 C831 1.390 . S
C833 C834 1.387 . S
C833 H836 0.950 . S
C834 C833 1.387 . S
C834 C837 1.387 . S
H835 C831 0.950 . S
H836 C833 0.950 . S
C837 C828 1.390 . S
C837 H830 0.950 . S
C837 C834 1.387 . S
C838 C839 1.387 . S
C838 H842 0.950 . S
C838 C847 1.390 . S
C839 C838 1.387 . S
C839 C841 1.387 . S
H840 C847 0.950 . S
C841 C839 1.387 . S
C841 C843 1.390 . S
C841 H845 0.950 . S
H842 C838 0.950 . S
C843 C841 1.390 . S
C843 C844 1.387 . S
C843 H846 0.950 . S
C844 C843 1.387 . S
C844 C847 1.387 . S
H845 C841 0.950 . S
H846 C843 0.950 . S
C847 C838 1.390 . S
C847 H840 0.950 . S
C847 C844 1.387 . S
C848 C849 1.387 . S
C848 H852 0.950 . S
C848 C857 1.390 . S
C849 C848 1.387 . S
C849 C851 1.387 . S
H850 C857 0.950 . S
C851 C849 1.387 . S
C851 C853 1.390 . S
C851 H855 0.950 . S
H852 C848 0.950 . S
C853 C851 1.390 . S
C853 C854 1.387 . S
C853 H856 0.950 . S
C854 C853 1.387 . S
C854 C857 1.387 . S
H855 C851 0.950 . S
H856 C853 0.950 . S
C857 C848 1.390 . S
C857 H850 0.950 . S
C857 C854 1.387 . S
C858 C859 1.387 . S
C858 H862 0.950 . S
C858 C867 1.390 . S
C859 C858 1.387 . S
C859 C861 1.387 . S
H860 C867 0.950 . S
C861 C859 1.387 . S
C861 C863 1.390 . S
C861 H865 0.950 . S
H862 C858 0.950 . S
C863 C861 1.390 . S
C863 C864 1.387 . S
C863 H866 0.950 . S
C864 C863 1.387 . S
C864 C867 1.387 . S
H865 C861 0.950 . S
H866 C863 0.950 . S
C867 C858 1.390 . S
C867 H860 0.950 . S
C867 C864 1.387 . S
C868 C869 1.387 . S
C868 H872 0.950 . S
C868 C877 1.390 . S
C869 C868 1.387 . S
C869 C871 1.387 . S
H870 C877 0.950 . S
C871 C869 1.387 . S
C871 C873 1.390 . S
C871 H875 0.950 . S
H872 C868 0.950 . S
C873 C871 1.390 . S
C873 C874 1.387 . S
C873 H876 0.950 . S
C874 C873 1.387 . S
C874 C877 1.387 . S
H875 C871 0.950 . S
H876 C873 0.950 . S
C877 C868 1.390 . S
C877 H870 0.950 . S
C877 C874 1.387 . S
C878 C879 1.387 . S
C878 H882 0.950 . S
C878 C887 1.390 . S
C879 C878 1.387 . S
C879 C881 1.387 . S
H880 C887 0.950 . S
C881 C879 1.387 . S
C881 C883 1.390 . S
C881 H885 0.950 . S
H882 C878 0.950 . S
C883 C881 1.390 . S
C883 C884 1.387 . S
C883 H886 0.950 . S
C884 C883 1.387 . S
C884 C887 1.387 . S
H885 C881 0.950 . S
H886 C883 0.950 . S
C887 C878 1.390 . S
C887 H880 0.950 . S
C887 C884 1.387 . S
C888 C889 1.387 . S
C888 H892 0.950 . S
C888 C897 1.390 . S
C889 C888 1.387 . S
C889 C891 1.387 . S
H890 C897 0.950 . S
C891 C889 1.387 . S
C891 C893 1.390 . S
C891 H895 0.950 . S
H892 C888 0.950 . S
C893 C891 1.390 . S
C893 C894 1.387 . S
C893 H896 0.950 . S
C894 C893 1.387 . S
C894 C897 1.387 . S
H895 C891 0.950 . S
H896 C893 0.950 . S
C897 C888 1.390 . S
C897 H890 0.950 . S
C897 C894 1.387 . S
C898 C899 1.387 . S
C898 H902 0.950 . S
C898 C907 1.390 . S
C899 C898 1.387 . S
C899 C901 1.387 . S
H900 C907 0.950 . S
C901 C899 1.387 . S
C901 C903 1.390 . S
C901 H905 0.950 . S
H902 C898 0.950 . S
C903 C901 1.390 . S
C903 C904 1.387 . S
C903 H906 0.950 . S
C904 C903 1.387 . S
C904 C907 1.387 . S
H905 C901 0.950 . S
H906 C903 0.950 . S
C907 C898 1.390 . S
C907 H900 0.950 . S
C907 C904 1.387 . S
C908 C909 1.387 . S
C908 H912 0.950 . S
C908 C917 1.390 . S
C909 C908 1.387 . S
C909 C911 1.387 . S
H910 C917 0.950 . S
C911 C909 1.387 . S
C911 C913 1.390 . S
C911 H915 0.950 . S
H912 C908 0.950 . S
C913 C911 1.390 . S
C913 C914 1.387 . S
C913 H916 0.950 . S
C914 C913 1.387 . S
C914 C917 1.387 . S
H915 C911 0.950 . S
H916 C913 0.950 . S
C917 C908 1.390 . S
C917 H910 0.950 . S
C917 C914 1.387 . S
C918 C919 1.387 . S
C918 H922 0.950 . S
C918 C927 1.390 . S
C919 C918 1.387 . S
C919 C921 1.387 . S
H920 C927 0.950 . S
C921 C919 1.387 . S
C921 C923 1.390 . S
C921 H925 0.950 . S
H922 C918 0.950 . S
C923 C921 1.390 . S
C923 C924 1.387 . S
C923 H926 0.950 . S
C924 C923 1.387 . S
C924 C927 1.387 . S
H925 C921 0.950 . S
H926 C923 0.950 . S
C927 C918 1.390 . S
C927 H920 0.950 . S
C927 C924 1.387 . S
C928 C929 1.387 . S
C928 H932 0.950 . S
C928 C937 1.390 . S
C929 C928 1.387 . S
C929 C931 1.387 . S
H930 C937 0.950 . S
C931 C929 1.387 . S
C931 C933 1.390 . S
C931 H935 0.950 . S
H932 C928 0.950 . S
C933 C931 1.390 . S
C933 C934 1.387 . S
C933 H936 0.950 . S
C934 C933 1.387 . S
C934 C937 1.387 . S
H935 C931 0.950 . S
H936 C933 0.950 . S
C937 C928 1.390 . S
C937 H930 0.950 . S
C937 C934 1.387 . S
C938 C939 1.387 . S
C938 H942 0.950 . S
C938 C947 1.390 . S
C939 C938 1.387 . S
C939 C941 1.387 . S
H940 C947 0.950 . S
C941 C939 1.387 . S
C941 C943 1.390 . S
C941 H945 0.950 . S
H942 C938 0.950 . S
C943 C941 1.390 . S
C943 C944 1.387 . S
C943 H946 0.950 . S
C944 C943 1.387 . S
C944 C947 1.387 . S
H945 C941 0.950 . S
H946 C943 0.950 . S
C947 C938 1.390 . S
C947 H940 0.950 . S
C947 C944 1.387 . S
C948 C949 1.387 . S
C948 H952 0.950 . S
C948 C957 1.390 . S
C949 C948 1.387 . S
C949 C951 1.387 . S
H950 C957 0.950 . S
C951 C949 1.387 . S
C951 C953 1.390 . S
C951 H955 0.950 . S
H952 C948 0.950 . S
C953 C951 1.390 . S
C953 C954 1.387 . S
C953 H956 0.950 . S
C954 C953 1.387 . S
C954 C957 1.387 . S
H955 C951 0.950 . S
H956 C953 0.950 . S
C957 C948 1.390 . S
C957 H950 0.950 . S
C957 C954 1.387 . S
C958 C959 1.387 . S
C958 H962 0.950 . S
C958 C967 1.390 . S
C959 C958 1.387 . S
C959 C961 1.387 . S
H960 C967 0.950 . S
C961 C959 1.387 . S
C961 C963 1.390 . S
C961 H965 0.950 . S
H962 C958 0.950 . S
C963 C961 1.390 . S
C963 C964 1.387 . S
C963 H966 0.950 . S
C964 C963 1.387 . S
C964 C967 1.387 . S
H965 C961 0.950 . S
H966 C963 0.950 . S
C967 C958 1.390 . S
C967 H960 0.950 . S
C967 C964 1.387 . S
C968 C969 1.387 . S
C968 H972 0.950 . S
C968 C977 1.390 . S
C969 C968 1.387 . S
C969 C971 1.387 . S
H970 C977 0.950 . S
C971 C969 1.387 . S
C971 C973 1.390 . S
C971 H975 0.950 . S
H972 C968 0.950 . S
C973 C971 1.390 . S
C973 C974 1.387 . S
C973 H976 0.950 . S
C974 C973 1.387 . S
C974 C977 1.387 . S
H975 C971 0.950 . S
H976 C973 0.950 . S
C977 C968 1.390 . S
C977 H970 0.950 . S
C977 C974 1.387 . S
C978 C979 1.387 . S
C978 H982 0.950 . S
C978 C987 1.390 . S
C979 C978 1.387 . S
C979 C981 1.387 . S
H980 C987 0.950 . S
C981 C979 1.387 . S
C981 C983 1.390 . S
C981 H985 0.950 . S
H982 C978 0.950 . S
C983 C981 1.390 . S
C983 C984 1.387 . S
C983 H986 0.950 . S
C984 C983 1.387 . S
C984 C987 1.387 . S
H985 C981 0.950 . S
H986 C983 0.950 . S
C987 C978 1.390 . S
C987 H980 0.950 . S
C987 C984 1.387 . S
C988 C989 1.387 . S
C988 H992 0.950 . S
C988 C997 1.390 . S
C989 C988 1.387 . S
C989 C991 1.387 . S
H990 C997 0.950 . S
C991 C989 1.387 . S
C991 C993 1.390 . S
C991 H995 0.950 . S
H992 C988 0.950 . S
C993 C991 1.390 . S
C993 C994 1.387 . S
C993 H996 0.950 . S
C994 C993 1.387 . S
C994 C997 1.387 . S
H995 C991 0.950 . S
H996 C993 0.950 . S
C997 C988 1.390 . S
C997 H990 0.950 . S
C997 C994 1.387 . S
C998 C999 1.387 . S
C998 H1002 0.950 . S
C998 C1007 1.390 . S
C999 C998 1.387 . S
C999 C1001 1.387 . S
H1000 C1007 0.950 . S
C1001 C999 1.387 . S
C1001 C1003 1.390 . S
C1001 H1005 0.950 . S
H1002 C998 0.950 . S
C1003 C1001 1.390 . S
C1003 C1004 1.387 . S
C1003 H1006 0.950 . S
C1004 C1003 1.387 . S
C1004 C1007 1.387 . S
H1005 C1001 0.950 . S
H1006 C1003 0.950 . S
C1007 C998 1.390 . S
C1007 H1000 0.950 . S
C1007 C1004 1.387 . S
C1008 C1009 1.387 . S
C1008 H1012 0.950 . S
C1008 C1017 1.390 . S
C1009 C1008 1.387 . S
C1009 C1011 1.387 . S
H1010 C1017 0.950 . S
C1011 C1009 1.387 . S
C1011 C1013 1.390 . S
C1011 H1015 0.950 . S
H1012 C1008 0.950 . S
C1013 C1011 1.390 . S
C1013 C1014 1.387 . S
C1013 H1016 0.950 . S
C1014 C1013 1.387 . S
C1014 C1017 1.387 . S
H1015 C1011 0.950 . S
H1016 C1013 0.950 . S
C1017 C1008 1.390 . S
C1017 H1010 0.950 . S
C1017 C1014 1.387 . S
C1018 C1019 1.387 . S
C1018 H1022 0.950 . S
C1018 C1027 1.390 . S
C1019 C1018 1.387 . S
C1019 C1021 1.387 . S
H1020 C1027 0.950 . S
C1021 C1019 1.387 . S
C1021 C1023 1.390 . S
C1021 H1025 0.950 . S
H1022 C1018 0.950 . S
C1023 C1021 1.390 . S
C1023 C1024 1.387 . S
C1023 H1026 0.950 . S
C1024 C1023 1.387 . S
C1024 C1027 1.387 . S
H1025 C1021 0.950 . S
H1026 C1023 0.950 . S
C1027 C1018 1.390 . S
C1027 H1020 0.950 . S
C1027 C1024 1.387 . S
C1028 C1029 1.387 . S
C1028 H1032 0.950 . S
C1028 C1037 1.390 . S
C1029 C1028 1.387 . S
C1029 C1031 1.387 . S
H1030 C1037 0.950 . S
C1031 C1029 1.387 . S
C1031 C1033 1.390 . S
C1031 H1035 0.950 . S
H1032 C1028 0.950 . S
C1033 C1031 1.390 . S
C1033 C1034 1.387 . S
C1033 H1036 0.950 . S
C1034 C1033 1.387 . S
C1034 C1037 1.387 . S
H1035 C1031 0.950 . S
H1036 C1033 0.950 . S
C1037 C1028 1.390 . S
C1037 H1030 0.950 . S
C1037 C1034 1.387 . S
C1038 C1039 1.387 . S
C1038 H1042 0.950 . S
C1038 C1047 1.390 . S
C1039 C1038 1.387 . S
C1039 C1041 1.387 . S
H1040 C1047 0.950 . S
C1041 C1039 1.387 . S
C1041 C1043 1.390 . S
C1041 H1045 0.950 . S
H1042 C1038 0.950 . S
C1043 C1041 1.390 . S
C1043 C1044 1.387 . S
C1043 H1046 0.950 . S
C1044 C1043 1.387 . S
C1044 C1047 1.387 . S
H1045 C1041 0.950 . S
H1046 C1043 0.950 . S
C1047 C1038 1.390 . S
C1047 H1040 0.950 . S
C1047 C1044 1.387 . S
C1048 C1049 1.387 . S
C1048 H1052 0.950 . S
C1048 C1057 1.390 . S
C1049 C1048 1.387 . S
C1049 C1051 1.387 . S
H1050 C1057 0.950 . S
C1051 C1049 1.387 . S
C1051 C1053 1.390 . S
C1051 H1055 0.950 . S
H1052 C1048 0.950 . S
C1053 C1051 1.390 . S
C1053 C1054 1.387 . S
C1053 H1056 0.950 . S
C1054 C1053 1.387 . S
C1054 C1057 1.387 . S
H1055 C1051 0.950 . S
H1056 C1053 0.950 . S
C1057 C1048 1.390 . S
C1057 H1050 0.950 . S
C1057 C1054 1.387 . S
C1058 C1059 1.387 . S
C1058 H1062 0.950 . S
C1058 C1067 1.390 . S
C1059 C1058 1.387 . S
C1059 C1061 1.387 . S
H1060 C1067 0.950 . S
C1061 C1059 1.387 . S
C1061 C1063 1.390 . S
C1061 H1065 0.950 . S
H1062 C1058 0.950 . S
C1063 C1061 1.390 . S
C1063 C1064 1.387 . S
C1063 H1066 0.950 . S
C1064 C1063 1.387 . S
C1064 C1067 1.387 . S
H1065 C1061 0.950 . S
H1066 C1063 0.950 . S
C1067 C1058 1.390 . S
C1067 H1060 0.950 . S
C1067 C1064 1.387 . S
C1068 C1069 1.387 . S
C1068 H1072 0.950 . S
C1068 C1077 1.390 . S
C1069 C1068 1.387 . S
C1069 C1071 1.387 . S
H1070 C1077 0.950 . S
C1071 C1069 1.387 . S
C1071 C1073 1.390 . S
C1071 H1075 0.950 . S
H1072 C1068 0.950 . S
C1073 C1071 1.390 . S
C1073 C1074 1.387 . S
C1073 H1076 0.950 . S
C1074 C1073 1.387 . S
C1074 C1077 1.387 . S
H1075 C1071 0.950 . S
H1076 C1073 0.950 . S
C1077 C1068 1.390 . S
C1077 H1070 0.950 . S
C1077 C1074 1.387 . S
C1078 C1079 1.387 . S
C1078 H1082 0.950 . S
C1078 C1087 1.390 . S
C1079 C1078 1.387 . S
C1079 C1081 1.387 . S
H1080 C1087 0.950 . S
C1081 C1079 1.387 . S
C1081 C1083 1.390 . S
C1081 H1085 0.950 . S
H1082 C1078 0.950 . S
C1083 C1081 1.390 . S
C1083 C1084 1.387 . S
C1083 H1086 0.950 . S
C1084 C1083 1.387 . S
C1084 C1087 1.387 . S
H1085 C1081 0.950 . S
H1086 C1083 0.950 . S
C1087 C1078 1.390 . S
C1087 H1080 0.950 . S
C1087 C1084 1.387 . S
C1088 C1089 1.387 . S
C1088 H1092 0.950 . S
C1088 C1097 1.390 . S
C1089 C1088 1.387 . S
C1089 C1091 1.387 . S
H1090 C1097 0.950 . S
C1091 C1089 1.387 . S
C1091 C1093 1.390 . S
C1091 H1095 0.950 . S
H1092 C1088 0.950 . S
C1093 C1091 1.390 . S
C1093 C1094 1.387 . S
C1093 H1096 0.950 . S
C1094 C1093 1.387 . S
C1094 C1097 1.387 . S
H1095 C1091 0.950 . S
H1096 C1093 0.950 . S
C1097 C1088 1.390 . S
C1097 H1090 0.950 . S
C1097 C1094 1.387 . S
C1098 C1099 1.387 . S
C1098 H1102 0.950 . S
C1098 C1107 1.390 . S
C1099 C1098 1.387 . S
C1099 C1101 1.387 . S
H1100 C1107 0.950 . S
C1101 C1099 1.387 . S
C1101 C1103 1.390 . S
C1101 H1105 0.950 . S
H1102 C1098 0.950 . S
C1103 C1101 1.390 . S
C1103 C1104 1.387 . S
C1103 H1106 0.950 . S
C1104 C1103 1.387 . S
C1104 C1107 1.387 . S
H1105 C1101 0.950 . S
H1106 C1103 0.950 . S
C1107 C1098 1.390 . S
C1107 H1100 0.950 . S
C1107 C1104 1.387 . S
C1108 C1109 1.387 . S
C1108 H1112 0.950 . S
C1108 C1117 1.390 . S
C1109 C1108 1.387 . S
C1109 C1111 1.387 . S
H1110 C1117 0.950 . S
C1111 C1109 1.387 . S
C1111 C1113 1.390 . S
C1111 H1115 0.950 . S
H1112 C1108 0.950 . S
C1113 C1111 1.390 . S
C1113 C1114 1.387 . S
C1113 H1116 0.950 . S
C1114 C1113 1.387 . S
C1114 C1117 1.387 . S
H1115 C1111 0.950 . S
H1116 C1113 0.950 . S
C1117 C1108 1.390 . S
C1117 H1110 0.950 . S
C1117 C1114 1.387 . S
C1118 C1119 1.387 . S
C1118 H1122 0.950 . S
C1118 C1127 1.390 . S
C1119 C1118 1.387 . S
C1119 C1121 1.387 . S
H1120 C1127 0.950 . S
C1121 C1119 1.387 . S
C1121 C1123 1.390 . S
C1121 H1125 0.950 . S
H1122 C1118 0.950 . S
C1123 C1121 1.390 . S
C1123 C1124 1.387 . S
C1123 H1126 0.950 . S
C1124 C1123 1.387 . S
C1124 C1127 1.387 . S
H1125 C1121 0.950 . S
H1126 C1123 0.950 . S
C1127 C1118 1.390 . S
C1127 H1120 0.950 . S
C1127 C1124 1.387 . S
C1128 C1129 1.387 . S
C1128 H1132 0.950 . S
C1128 C1137 1.390 . S
C1129 C1128 1.387 . S
C1129 C1131 1.387 . S
H1130 C1137 0.950 . S
C1131 C1129 1.387 . S
C1131 C1133 1.390 . S
C1131 H1135 0.950 . S
H1132 C1128 0.950 . S
C1133 C1131 1.390 . S
C1133 C1134 1.387 . S
C1133 H1136 0.950 . S
C1134 C1133 1.387 . S
C1134 C1137 1.387 . S
H1135 C1131 0.950 . S
H1136 C1133 0.950 . S
C1137 C1128 1.390 . S
C1137 H1130 0.950 . S
C1137 C1134 1.387 . S
C1138 C1139 1.387 . S
C1138 H1142 0.950 . S
C1138 C1147 1.390 . S
C1139 C1138 1.387 . S
C1139 C1141 1.387 . S
H1140 C1147 0.950 . S
C1141 C1139 1.387 . S
C1141 C1143 1.390 . S
C1141 H1145 0.950 . S
H1142 C1138 0.950 . S
C1143 C1141 1.390 . S
C1143 C1144 1.387 . S
C1143 H1146 0.950 . S
C1144 C1143 1.387 . S
C1144 C1147 1.387 . S
H1145 C1141 0.950 . S
H1146 C1143 0.950 . S
C1147 C1138 1.390 . S
C1147 H1140 0.950 . S
C1147 C1144 1.387 . S
C1148 C1149 1.387 . S
C1148 H1152 0.950 . S
C1148 C1157 1.390 . S
C1149 C1148 1.387 . S
C1149 C1151 1.387 . S
H1150 C1157 0.950 . S
C1151 C1149 1.387 . S
C1151 C1153 1.390 . S
C1151 H1155 0.950 . S
H1152 C1148 0.950 . S
C1153 C1151 1.390 . S
C1153 C1154 1.387 . S
C1153 H1156 0.950 . S
C1154 C1153 1.387 . S
C1154 C1157 1.387 . S
H1155 C1151 0.950 . S
H1156 C1153 0.950 . S
C1157 C1148 1.390 . S
C1157 H1150 0.950 . S
C1157 C1154 1.387 . S
C1158 C1159 1.387 . S
C1158 H1162 0.950 . S
C1158 C1167 1.390 . S
C1159 C1158 1.387 . S
C1159 C1161 1.387 . S
H1160 C1167 0.950 . S
C1161 C1159 1.387 . S
C1161 C1163 1.390 . S
C1161 H1165 0.950 . S
H1162 C1158 0.950 . S
C1163 C1161 1.390 . S
C1163 C1164 1.387 . S
C1163 H1166 0.950 . S
C1164 C1163 1.387 . S
C1164 C1167 1.387 . S
H1165 C1161 0.950 . S
H1166 C1163 0.950 . S
C1167 C1158 1.390 . S
C1167 H1160 0.950 . S
C1167 C1164 1.387 . S
C1168 C1169 1.387 . S
C1168 H1172 0.950 . S
C1168 C1177 1.390 . S
C1169 C1168 1.387 . S
C1169 C1171 1.387 . S
H1170 C1177 0.950 . S
C1171 C1169 1.387 . S
C1171 C1173 1.390 . S
C1171 H1175 0.950 . S
H1172 C1168 0.950 . S
C1173 C1171 1.390 . S
C1173 C1174 1.387 . S
C1173 H1176 0.950 . S
C1174 C1173 1.387 . S
C1174 C1177 1.387 . S
H1175 C1171 0.950 . S
H1176 C1173 0.950 . S
C1177 C1168 1.390 . S
C1177 H1170 0.950 . S
C1177 C1174 1.387 . S
C1178 C1179 1.387 . S
C1178 H1182 0.950 . S
C1178 C1187 1.390 . S
C1179 C1178 1.387 . S
C1179 C1181 1.387 . S
H1180 C1187 0.950 . S
C1181 C1179 1.387 . S
C1181 C1183 1.390 . S
C1181 H1185 0.950 . S
H1182 C1178 0.950 . S
C1183 C1181 1.390 . S
C1183 C1184 1.387 . S
C1183 H1186 0.950 . S
C1184 C1183 1.387 . S
C1184 C1187 1.387 . S
H1185 C1181 0.950 . S
H1186 C1183 0.950 . S
C1187 C1178 1.390 . S
C1187 H1180 0.950 . S
C1187 C1184 1.387 . S
C1188 C1189 1.387 . S
C1188 H1192 0.950 . S
C1188 C1197 1.390 . S
C1189 C1188 1.387 . S
C1189 C1191 1.387 . S
H1190 C1197 0.950 . S
C1191 C1189 1.387 . S
C1191 C1193 1.390 . S
C1191 H1195 0.950 . S
H1192 C1188 0.950 . S
C1193 C1191 1.390 . S
C1193 C1194 1.387 . S
C1193 H1196 0.950 . S
C1194 C1193 1.387 . S
C1194 C1197 1.387 . S
H1195 C1191 0.950 . S
H1196 C1193 0.950 . S
C1197 C1188 1.390 . S
C1197 H1190 0.950 . S
C1197 C1194 1.387 . S
C1198 C1199 1.387 . S
C1198 H1202 0.950 . S
C1198 C1207 1.390 . S
C1199 C1198 1.387 . S
C1199 C1201 1.387 . S
H1200 C1207 0.950 . S
C1201 C1199 1.387 . S
C1201 C1203 1.390 . S
C1201 H1205 0.950 . S
H1202 C1198 0.950 . S
C1203 C1201 1.390 . S
C1203 C1204 1.387 . S
C1203 H1206 0.950 . S
C1204 C1203 1.387 . S
C1204 C1207 1.387 . S
H1205 C1201 0.950 . S
H1206 C1203 0.950 . S
C1207 C1198 1.390 . S
C1207 H1200 0.950 . S
C1207 C1204 1.387 . S
C1208 C1209 1.387 . S
C1208 H1212 0.950 . S
C1208 C1217 1.390 . S
C1209 C1208 1.387 . S
C1209 C1211 1.387 . S
H1210 C1217 0.950 . S
C1211 C1209 1.387 . S
C1211 C1213 1.390 . S
C1211 H1215 0.950 . S
H1212 C1208 0.950 . S
C1213 C1211 1.390 . S
C1213 C1214 1.387 . S
C1213 H1216 0.950 . S
C1214 C1213 1.387 . S
C1214 C1217 1.387 . S
H1215 C1211 0.950 . S
H1216 C1213 0.950 . S
C1217 C1208 1.390 . S
C1217 H1210 0.950 . S
C1217 C1214 1.387 . S
C1218 C1219 1.387 . S
C1218 H1222 0.950 . S
C1218 C1227 1.390 . S
C1219 C1218 1.387 . S
C1219 C1221 1.387 . S
H1220 C1227 0.950 . S
C1221 C1219 1.387 . S
C1221 C1223 1.390 . S
C1221 H1225 0.950 . S
H1222 C1218 0.950 . S
C1223 C1221 1.390 . S
C1223 C1224 1.387 . S
C1223 H1226 0.950 . S
C1224 C1223 1.387 . S
C1224 C1227 1.387 . S
H1225 C1221 0.950 . S
H1226 C1223 0.950 . S
C1227 C1218 1.390 . S
C1227 H1220 0.950 . S
C1227 C1224 1.387 . S
C1228 C1229 1.387 . S
C1228 H1232 0.950 . S
C1228 C1237 1.390 . S
C1229 C1228 1.387 . S
C1229 C1231 1.387 . S
H1230 C1237 0.950 . S
C1231 C1229 1.387 . S
C1231 C1233 1.390 . S
C1231 H1235 0.950 . S
H1232 C1228 0.950 . S
C1233 C1231 1.390 . S
C1233 C1234 1.387 . S
C1233 H1236 0.950 . S
C1234 C1233 1.387 . S
C1234 C1237 1.387 . S
H1235 C1231 0.950 . S
H1236 C1233 0.950 . S
C1237 C1228 1.390 . S
C1237 H1230 0.950 . S
C1237 C1234 1.387 . S
C1238 C1239 1.387 . S
C1238 H1242 0.950 . S
C1238 C1247 1.390 . S
C1239 C1238 1.387 . S
C1239 C1241 1.387 . S
H1240 C1247 0.950 . S
C1241 C1239 1.387 . S
C1241 C1243 1.390 . S
C1241 H1245 0.950 . S
H1242 C1238 0.950 . S
C1243 C1241 1.390 . S
C1243 C1244 1.387 . S
C1243 H1246 0.950 . S
C1244 C1243 1.387 . S
C1244 C1247 1.387 . S
H1245 C1241 0.950 . S
H1246 C1243 0.950 . S
C1247 C1238 1.390 . S
C1247 H1240 0.950 . S
C1247 C1244 1.387 . S
C529 C10 1.210 . S
C534 C153 1.206 1_455 S
C539 C29 1.208 . S
C544 C162 1.209 1_545 S
C549 C95 1.207 . S
C554 C52 1.209 . S
C559 C87 1.207 . S
C564 C128 1.210 . S
C569 C74 1.172 . S
C574 C40 1.171 1_545 S
C579 C65 1.244 . S
C584 C15 1.244 1_455 S
C589 C117 1.244 1_545 S
C594 C175 1.245 . S
C599 C140 1.172 . S
C604 C106 1.171 1_455 S
C609 C191 1.207 . S
C614 C208 1.209 . S
C619 C186 1.209 . S
C624 C227 1.207 . S
C629 C238 1.209 . S
C634 C263 1.206 . S
C639 C250 1.210 . S
C644 C213 1.207 . S
C649 C274 1.210 . S
C654 C417 1.207 . S
C659 C426 1.209 . S
C664 C293 1.206 . S
C669 C318 1.210 . S
C674 C367 1.207 . S
C679 C337 1.207 . S
C684 C392 1.210 . S
C689 C348 1.171 . S
C694 C304 1.171 . S
C699 C323 1.244 . S
C704 C279 1.244 . S
C709 C381 1.244 . S
C714 C439 1.244 . S
C719 C404 1.171 . S
C724 C362 1.171 . S
C729 C455 1.207 . S
C734 C472 1.209 . S
C739 C491 1.207 . S
C744 C450 1.209 . S
C749 C502 1.209 . S
C754 C527 1.207 . S
C759 C514 1.209 . S
C764 C477 1.206 . S
C769 C524 1.119 . S
C774 C8 1.116 . S
C779 C470 1.124 . S
C784 C43 1.132 . S
C789 C62 1.120 . S
C794 C448 1.122 . S
C799 C81 1.133 . S
C804 C494 1.123 . S
C809 C505 1.168 . S
C814 C109 1.168 . S
C819 C120 1.151 . S
C824 C521 1.161 . S
C829 C469 1.168 . S
C834 C147 1.168 . S
C839 C172 1.153 . S
C844 C447 1.162 . S
C849 C360 1.129 . S
C854 C84 1.126 . S
C859 C7 1.157 . S
C864 C395 1.158 . S
C869 C32 1.128 . S
C874 C414 1.130 . S
C879 C59 1.158 . S
C884 C433 1.158 . S
C889 C271 1.158 . S
C894 C131 1.160 . S
C899 C150 1.129 . S
C904 C296 1.128 . S
C909 C169 1.159 . S
C914 C315 1.158 . S
C919 C98 1.126 . S
C924 C340 1.129 . S
C929 C436 1.154 . S
C934 C183 1.160 . S
C939 C206 1.125 . S
C944 C307 1.137 . S
C949 C316 1.117 . S
C954 C184 1.122 . S
C959 C351 1.136 . S
C964 C230 1.128 . S
C969 C260 1.121 . S
C974 C272 1.120 . S
C979 C384 1.151 . S
C984 C257 1.161 . S
C989 C411 1.168 . S
C994 C205 1.165 . S
C999 C359 1.168 . S
C1004 C241 1.165 . S
C1009 C103 1.111 . S
C1014 C458 1.099 . S
C1019 C118 1.097 . S
C1024 C492 1.096 . S
C1029 C139 1.111 . S
C1034 C516 1.099 . S
C1039 C480 1.094 . S
C1044 C164 1.095 . S
C1049 C483 1.141 . S
C1054 C18 1.128 . S
C1059 C37 1.146 . S
C1064 C461 1.145 . S
C1069 C54 1.130 . S
C1074 C499 1.139 . S
C1079 C513 1.145 . S
C1084 C73 1.144 . S
C1089 C285 1.135 . S
C1094 C161 1.137 . S
C1099 C96 1.104 . S
C1104 C294 1.105 . S
C1109 C329 1.136 . S
C1114 C125 1.135 . S
C1119 C338 1.103 . S
C1124 C142 1.106 . S
C1129 C370 1.105 . S
C1134 C30 1.107 . S
C1139 C51 1.135 . S
C1144 C389 1.137 . S
C1149 C406 1.108 . S
C1154 C76 1.106 . S
C1159 C425 1.138 . S
C1164 C21 1.137 . S
C1169 C249 1.145 . S
C1174 C345 1.148 . S
C1179 C228 1.095 . S
C1184 C382 1.095 . S
C1189 C403 1.113 . S
C1194 C252 1.101 . S
C1199 C216 1.095 . S
C1204 C428 1.092 . S
C1209 C194 1.102 . S
C1214 C373 1.113 . S
C1219 C301 1.149 . S
C1224 C197 1.150 . S
C1229 C235 1.140 . S
C1234 C326 1.131 . S
C1239 C282 1.129 . S
C1244 C219 1.144 . S
