# Generated by pormake.
# Topology bcu-g, (3)-cn, num edge types: 1
# Building blocks:
#     Node 0, Type 0, BuildingBlock: OLANEW_clean_sbu_2, # of connection points: 3
#     Node 1, Type 0, BuildingBlock: OLANEW_clean_sbu_2, # of connection points: 3
#     Node 2, Type 0, BuildingBlock: OLANEW_clean_sbu_2, # of connection points: 3
#     Node 3, Type 0, BuildingBlock: OLANEW_clean_sbu_2, # of connection points: 3
#     Node 4, Type 0, BuildingBlock: OLANEW_clean_sbu_2, # of connection points: 3
#     Node 5, Type 0, BuildingBlock: OLANEW_clean_sbu_2, # of connection points: 3
#     Node 6, Type 0, BuildingBlock: OLANEW_clean_sbu_2, # of connection points: 3
#     Node 7, Type 0, BuildingBlock: OLANEW_clean_sbu_2, # of connection points: 3
#     Node 8, Type 0, BuildingBlock: OLANEW_clean_sbu_2, # of connection points: 3
#     Node 9, Type 0, BuildingBlock: OLANEW_clean_sbu_2, # of connection points: 3
#     Node 10, Type 0, BuildingBlock: OLANEW_clean_sbu_2, # of connection points: 3
#     Node 11, Type 0, BuildingBlock: OLANEW_clean_sbu_2, # of connection points: 3
#     Node 12, Type 0, BuildingBlock: OLANEW_clean_sbu_2, # of connection points: 3
#     Node 13, Type 0, BuildingBlock: OLANEW_clean_sbu_2, # of connection points: 3
#     Node 14, Type 0, BuildingBlock: OLANEW_clean_sbu_2, # of connection points: 3
#     Node 15, Type 0, BuildingBlock: OLANEW_clean_sbu_2, # of connection points: 3
#     Edge 16, Type (0, 0), BuildingBlock: OJICUG_clean_linker_0, # of connection points: 2
#     Edge 17, Type (0, 0), BuildingBlock: OJICUG_clean_linker_0, # of connection points: 2
#     Edge 18, Type (0, 0), BuildingBlock: OJICUG_clean_linker_0, # of connection points: 2
#     Edge 19, Type (0, 0), BuildingBlock: OJICUG_clean_linker_0, # of connection points: 2
#     Edge 20, Type (0, 0), BuildingBlock: OJICUG_clean_linker_0, # of connection points: 2
#     Edge 21, Type (0, 0), BuildingBlock: OJICUG_clean_linker_0, # of connection points: 2
#     Edge 22, Type (0, 0), BuildingBlock: OJICUG_clean_linker_0, # of connection points: 2
#     Edge 23, Type (0, 0), BuildingBlock: OJICUG_clean_linker_0, # of connection points: 2
#     Edge 24, Type (0, 0), BuildingBlock: OJICUG_clean_linker_0, # of connection points: 2
#     Edge 25, Type (0, 0), BuildingBlock: OJICUG_clean_linker_0, # of connection points: 2
#     Edge 26, Type (0, 0), BuildingBlock: OJICUG_clean_linker_0, # of connection points: 2
#     Edge 27, Type (0, 0), BuildingBlock: OJICUG_clean_linker_0, # of connection points: 2
#     Edge 28, Type (0, 0), BuildingBlock: OJICUG_clean_linker_0, # of connection points: 2
#     Edge 29, Type (0, 0), BuildingBlock: OJICUG_clean_linker_0, # of connection points: 2
#     Edge 30, Type (0, 0), BuildingBlock: OJICUG_clean_linker_0, # of connection points: 2
#     Edge 31, Type (0, 0), BuildingBlock: OJICUG_clean_linker_0, # of connection points: 2
#     Edge 32, Type (0, 0), BuildingBlock: OJICUG_clean_linker_0, # of connection points: 2
#     Edge 33, Type (0, 0), BuildingBlock: OJICUG_clean_linker_0, # of connection points: 2
#     Edge 34, Type (0, 0), BuildingBlock: OJICUG_clean_linker_0, # of connection points: 2
#     Edge 35, Type (0, 0), BuildingBlock: OJICUG_clean_linker_0, # of connection points: 2
#     Edge 36, Type (0, 0), BuildingBlock: OJICUG_clean_linker_0, # of connection points: 2
#     Edge 37, Type (0, 0), BuildingBlock: OJICUG_clean_linker_0, # of connection points: 2
#     Edge 38, Type (0, 0), BuildingBlock: OJICUG_clean_linker_0, # of connection points: 2
#     Edge 39, Type (0, 0), BuildingBlock: OJICUG_clean_linker_0, # of connection points: 2
# Relax obj value: 0.041
# Max RMSD: 0.023
# Mean RMSD: 0.023
data_MOF--net-bcu-g--node1-OLANEW_clean_sbu_2--edge1-OJICUG_clean_linker_0
_symmetry_space_group_name_H-M    P1
_symmetry_Int_Tables_number       1
_symmetry_cell_setting            triclinic
loop_
_symmetry_equiv_pos_as_xyz
'x, y, z'
_cell_length_a     37.117453
_cell_length_b     37.112108
_cell_length_c     30.47972
_cell_angle_alpha  90.074629
_cell_angle_beta   90.041589
_cell_angle_gamma 89.997343
loop_
_atom_site_label
_atom_site_type_symbol
_atom_site_fract_x
_atom_site_fract_y
_atom_site_fract_z
_atom_type_partial_charge
O0 O 0.62446 0.04266 0.25104 0.0
Cd1 Cd 0.6687 0.06676 0.19933 0.0
O2 O 0.60958 0.00955 0.1945 0.0
Cd3 Cd 0.57527 0.97227 0.15775 0.0
O4 O 0.54239 0.94502 0.10852 0.0
C5 C 0.51087 0.95661 0.10041 0.0
O6 O 0.49826 0.98378 0.12344 0.0
C7 C 0.60472 0.01822 0.23443 0.0
C8 C 0.73432 0.08785 0.23563 0.0
O9 O 0.70946 0.11101 0.22807 0.0
O10 O 0.72785 0.05467 0.22693 0.0
O11 O 0.41767 0.56938 0.23578 0.0
Cd12 Cd 0.39506 0.62429 0.20103 0.0
O13 O 0.45511 0.56772 0.18044 0.0
Cd14 Cd 0.50159 0.54805 0.14326 0.0
O15 O 0.54069 0.52758 0.09598 0.0
C16 C 0.54392 0.49398 0.08884 0.0
O17 O 0.52428 0.47128 0.11162 0.0
C18 C 0.44336 0.55381 0.21578 0.0
C19 C 0.40787 0.68627 0.25052 0.0
O20 O 0.37697 0.67087 0.25115 0.0
O21 O 0.43272 0.67227 0.22683 0.0
O22 O 0.8824 0.48496 0.21018 0.0
Cd23 Cd 0.837 0.45619 0.16374 0.0
O24 O 0.8937 0.51556 0.15059 0.0
Cd25 Cd 0.9241 0.55231 0.10871 0.0
O26 O 0.95513 0.58131 0.05961 0.0
C27 C 0.98931 0.58241 0.06156 0.0
O28 O 0.0058 0.56698 0.09475 0.0
C29 C 0.90042 0.50928 0.19078 0.0
C30 C 0.77591 0.43206 0.2078 0.0
O31 O 0.80141 0.4102 0.19801 0.0
O32 O 0.77961 0.46532 0.19749 0.0
O33 O 0.12001 0.96804 0.2221 0.0
Cd34 Cd 0.15061 0.92022 0.18136 0.0
O35 O 0.07695 0.9594 0.17421 0.0
Cd36 Cd 0.02315 0.96793 0.14697 0.0
O37 O 0.97513 0.97624 0.10717 0.0
C38 C 0.96374 0.00775 0.0986 0.0
O39 O 0.98043 0.03565 0.11573 0.0
C40 C 0.08918 0.97647 0.2072 0.0
C41 C 0.13108 0.85201 0.21116 0.0
O42 O 0.16068 0.86664 0.22351 0.0
O43 O 0.11078 0.86955 0.18472 0.0
O44 O 0.52707 0.4055 0.27115 0.0
Cd45 Cd 0.57091 0.36531 0.30552 0.0
O46 O 0.54208 0.44228 0.32421 0.0
Cd47 Cd 0.5426 0.49369 0.35948 0.0
O48 O 0.53744 0.53725 0.40717 0.0
C49 C 0.50778 0.55393 0.41197 0.0
O50 O 0.48052 0.54576 0.38633 0.0
C51 C 0.52343 0.4358 0.29006 0.0
C52 C 0.64017 0.38435 0.27902 0.0
O53 O 0.62346 0.35813 0.26064 0.0
O54 O 0.6244 0.40114 0.31033 0.0
O55 O 0.03015 0.61085 0.26563 0.0
Cd56 Cd 0.06946 0.64645 0.3133 0.0
O57 O 0.01209 0.58524 0.32637 0.0
Cd58 Cd 0.9755 0.55175 0.36474 0.0
O59 O 0.94348 0.52225 0.41246 0.0
C60 C 0.94342 0.48803 0.41365 0.0
O61 O 0.96213 0.47001 0.38434 0.0
C62 C 0.00995 0.58824 0.28493 0.0
C63 C 0.08935 0.71244 0.2772 0.0
O64 O 0.11074 0.68535 0.27567 0.0
O65 O 0.05854 0.70824 0.29541 0.0
O66 O 0.99083 0.11181 0.27375 0.0
Cd67 Cd 0.9473 0.14872 0.31385 0.0
O68 O 0.98234 0.0731 0.32678 0.0
Cd69 Cd 0.98835 0.02073 0.3586 0.0
O70 O 0.99348 0.97352 0.40047 0.0
C71 C 0.02422 0.96185 0.41209 0.0
O72 O 0.0533 0.97783 0.39712 0.0
C73 C 0.99804 0.0816 0.29123 0.0
C74 C 0.87679 0.1302 0.29173 0.0
O75 O 0.89236 0.15724 0.27378 0.0
O76 O 0.89445 0.11205 0.32028 0.0
O77 O 0.49464 0.91836 0.34657 0.0
Cd78 Cd 0.44941 0.88385 0.38691 0.0
O79 O 0.46112 0.96688 0.33892 0.0
Cd80 Cd 0.45306 0.0204 0.31026 0.0
O81 O 0.45975 0.07436 0.28221 0.0
C82 C 0.47498 0.0995 0.30375 0.0
O83 O 0.48178 0.13031 0.2843 0.0
C84 C 0.49076 0.95043 0.33279 0.0
C85 C 0.43484 0.81865 0.34476 0.0
O86 O 0.41387 0.8458 0.34001 0.0
O87 O 0.46247 0.82221 0.36961 0.0
O88 O 0.41643 0.95598 0.78332 0.0
Cd89 Cd 0.38127 0.92255 0.83731 0.0
O90 O 0.46492 0.92192 0.78307 0.0
Cd91 Cd 0.44793 0.89417 0.84257 0.0
O92 O 0.45818 0.89266 0.913 0.0
C93 C 0.44368 0.91642 0.93729 0.0
O94 O 0.42032 0.93882 0.91982 0.0
C95 C 0.44725 0.94839 0.76769 0.0
C96 C 0.31202 0.91339 0.80332 0.0
O97 O 0.32108 0.94252 0.82305 0.0
O98 O 0.33539 0.88806 0.80059 0.0
O99 O 0.5476 0.41454 0.76684 0.0
Cd100 Cd 0.57479 0.36152 0.80081 0.0
O101 O 0.58472 0.45504 0.79404 0.0
Cd102 Cd 0.60901 0.41747 0.84028 0.0
O103 O 0.60441 0.4194 0.91147 0.0
C104 C 0.61196 0.44988 0.92817 0.0
O105 O 0.62521 0.47505 0.90252 0.0
C106 C 0.55818 0.44705 0.76955 0.0
C107 C 0.56199 0.30141 0.74776 0.0
O108 O 0.53864 0.31209 0.77585 0.0
O109 O 0.59177 0.31876 0.74517 0.0
O110 O 0.11211 0.50271 0.8083 0.0
Cd111 Cd 0.15672 0.54002 0.84597 0.0
O112 O 0.0783 0.54755 0.78531 0.0
Cd113 Cd 0.10681 0.58544 0.82749 0.0
O114 O 0.09491 0.59947 0.89523 0.0
C115 C 0.06388 0.61303 0.90128 0.0
O116 O 0.04438 0.62144 0.86677 0.0
C117 C 0.08515 0.51401 0.78655 0.0
C118 C 0.21496 0.55412 0.79092 0.0
O119 O 0.21234 0.5242 0.81159 0.0
O120 O 0.19018 0.57773 0.79648 0.0
O121 O 0.94752 0.04401 0.83243 0.0
Cd122 Cd 0.91686 0.09463 0.86765 0.0
O123 O 0.89977 0.01324 0.81177 0.0
Cd124 Cd 0.86753 0.04713 0.85502 0.0
O125 O 0.87443 0.05276 0.92559 0.0
C126 C 0.87431 0.02311 0.94637 0.0
O127 O 0.86558 0.99357 0.92504 0.0
C128 C 0.9338 0.01734 0.81217 0.0
C129 C 0.92742 0.15656 0.81755 0.0
O130 O 0.95114 0.14597 0.84523 0.0
O131 O 0.89828 0.13826 0.81403 0.0
O132 O 0.44722 0.54996 0.66254 0.0
Cd133 Cd 0.40059 0.58807 0.6302 0.0
O134 O 0.47596 0.59186 0.69981 0.0
Cd135 Cd 0.44835 0.63205 0.66006 0.0
O136 O 0.45253 0.63232 0.58888 0.0
C137 C 0.48448 0.62754 0.57512 0.0
O138 O 0.51091 0.62748 0.60385 0.0
C139 C 0.47154 0.55883 0.68993 0.0
C140 C 0.33758 0.57949 0.67879 0.0
O141 O 0.34643 0.55685 0.64893 0.0
O142 O 0.35807 0.6068 0.68513 0.0
O143 O 0.00266 0.38291 0.68695 0.0
Cd144 Cd 0.96884 0.33598 0.64855 0.0
O145 O 0.95604 0.41779 0.70044 0.0
Cd146 Cd 0.92201 0.38609 0.65676 0.0
O147 O 0.91379 0.39304 0.58665 0.0
C148 C 0.90006 0.42307 0.57573 0.0
O149 O 0.88805 0.44449 0.60683 0.0
C150 C 0.98949 0.41115 0.70432 0.0
C151 C 0.95445 0.27822 0.70422 0.0
O152 O 0.9849 0.28122 0.6848 0.0
O153 O 0.93053 0.30244 0.69717 0.0
O154 O 0.06113 0.92717 0.71634 0.0
Cd155 Cd 0.10748 0.89525 0.67465 0.0
O156 O 0.01686 0.88873 0.70587 0.0
Cd157 Cd 0.04903 0.86022 0.65719 0.0
O158 O 0.05809 0.87066 0.58783 0.0
C159 C 0.02971 0.87125 0.56451 0.0
O160 O 0.99905 0.86172 0.58266 0.0
C161 C 0.02874 0.91754 0.72323 0.0
C162 C 0.1739 0.90018 0.71729 0.0
O163 O 0.16229 0.92578 0.6929 0.0
O164 O 0.15429 0.87195 0.72131 0.0
O165 O 0.49389 0.07219 0.62829 0.0
Cd166 Cd 0.51559 0.12082 0.58124 0.0
O167 O 0.54049 0.03618 0.62052 0.0
Cd168 Cd 0.55875 0.06868 0.56536 0.0
O169 O 0.5484 0.08516 0.49787 0.0
C170 C 0.51833 0.07417 0.48304 0.0
O171 O 0.49732 0.05526 0.50897 0.0
C172 C 0.51049 0.04343 0.63858 0.0
C173 C 0.53158 0.18072 0.63328 0.0
O174 O 0.49947 0.17479 0.6196 0.0
O175 O 0.55641 0.15865 0.62172 0.0
C176 C 0.55696 0.02048 0.29229 0.0
C177 C 0.57615 1.00085 0.26056 0.0
H178 H 0.51495 0.01958 0.34054 0.0
C179 C 0.56798 0.96427 0.25409 0.0
H180 H 0.56308 0.0486 0.29836 0.0
C181 C 0.54041 0.94786 0.27794 0.0
C182 C 0.52031 0.9678 0.30843 0.0
H183 H 0.58325 0.94816 0.23104 0.0
H184 H 0.53447 0.91966 0.27213 0.0
C185 C 0.52917 0.00408 0.31596 0.0
C186 C 0.47611 0.49515 0.20748 0.0
C187 C 0.46062 0.5215 0.23469 0.0
H188 H 0.50835 0.4473 0.20379 0.0
C189 C 0.46253 0.51716 0.28037 0.0
H190 H 0.47319 0.4966 0.17224 0.0
C191 C 0.48182 0.48843 0.29845 0.0
C192 C 0.4997 0.46371 0.2712 0.0
H193 H 0.44996 0.53652 0.30213 0.0
H194 H 0.4828 0.48563 0.33374 0.0
C195 C 0.49561 0.46656 0.22556 0.0
C196 C 0.93726 0.56496 0.20298 0.0
C197 C 0.92902 0.5292 0.2143 0.0
H198 H 0.96983 0.61143 0.2161 0.0
C199 C 0.94786 0.51287 0.24896 0.0
H200 H 0.92209 0.57892 0.17794 0.0
C201 C 0.97465 0.53184 0.27153 0.0
C202 C 0.9829 0.56753 0.26001 0.0
H203 H 0.94208 0.48534 0.25842 0.0
H204 H 0.98918 0.51843 0.29765 0.0
C205 C 0.96429 0.58377 0.22521 0.0
C206 C 0.04586 0.03418 0.29474 0.0
C207 C 0.023 0.05623 0.26967 0.0
H208 H 0.08492 0.99159 0.29445 0.0
C209 C 0.02385 0.05352 0.22376 0.0
H210 H 0.04681 0.03675 0.3301 0.0
C211 C 0.04586 0.02794 0.20339 0.0
C212 C 0.0675 0.00479 0.22856 0.0
H213 H 0.00691 0.07061 0.20365 0.0
H214 H 0.0461 0.02646 0.16793 0.0
C215 C 0.06801 0.00872 0.27435 0.0
C216 C 0.51289 0.98748 0.68492 0.0
C217 C 0.49439 0.01849 0.67099 0.0
H218 H 0.51251 0.94085 0.7263 0.0
C219 C 0.45995 0.02551 0.68812 0.0
H220 H 0.53942 0.98123 0.67225 0.0
C221 C 0.44448 0.00234 0.71877 0.0
C222 C 0.46311 0.97159 0.73324 0.0
H223 H 0.44483 0.04904 0.67796 0.0
H224 H 0.41803 0.00885 0.73151 0.0
C225 C 0.49742 0.96429 0.71581 0.0
C226 C 0.4879 0.49401 0.70017 0.0
C227 C 0.49461 0.53052 0.70947 0.0
H228 H 0.50279 0.43917 0.7114 0.0
C229 C 0.5236 0.53947 0.73711 0.0
H230 H 0.4659 0.48612 0.67885 0.0
C231 C 0.54501 0.51241 0.75559 0.0
C232 C 0.53776 0.47586 0.74697 0.0
H233 H 0.52964 0.56734 0.74469 0.0
H234 H 0.56677 0.52015 0.77734 0.0
C235 C 0.50915 0.46702 0.71875 0.0
C236 C 0.02584 0.49808 0.75235 0.0
C237 C 0.06086 0.48791 0.76481 0.0
H238 H 0.97556 0.48161 0.72429 0.0
C239 C 0.07192 0.45212 0.75804 0.0
H240 H 0.01641 0.52538 0.75749 0.0
C241 C 0.04861 0.42711 0.73881 0.0
C242 C 0.01353 0.43721 0.72655 0.0
H243 H 0.09871 0.44343 0.76739 0.0
H244 H 0.05807 0.39982 0.73364 0.0
C245 C 0.00232 0.47292 0.73371 0.0
C246 C 0.94396 0.95974 0.77034 0.0
C247 C 0.9578 0.99105 0.79017 0.0
H248 H 0.95555 0.9116 0.73407 0.0
C249 C 0.99521 0.99693 0.78953 0.0
H250 H 0.9153 0.95429 0.77052 0.0
C251 C 0.01821 0.97251 0.76888 0.0
C252 C 0.00442 0.94149 0.74841 0.0
H253 H 0.00687 0.02064 0.80468 0.0
H254 H 0.04681 0.97827 0.7685 0.0
C255 C 0.96707 0.93516 0.74973 0.0
C256 C 0.44259 0.95022 0.00844 0.0
C257 C 0.45741 0.92277 0.98226 0.0
H258 H 0.44765 0.98222 0.06655 0.0
C259 C 0.48773 0.90394 -0.00227 0.0
H260 H 0.4191 0.96509 -0.00237 0.0
C261 C 0.50422 0.9139 0.03716 0.0
C262 C 0.49063 0.94276 0.06206 0.0
H263 H 0.49973 0.88253 0.97849 0.0
H264 H 0.52837 0.89979 0.04729 0.0
C265 C 0.45898 0.96005 0.04799 0.0
C266 C 0.58063 0.43423 -0.00146 0.0
C267 C 0.59984 0.45921 0.97301 0.0
H268 H 0.54805 0.42556 0.0555 0.0
C269 C 0.60398 0.4946 0.98873 0.0
H270 H 0.57712 0.4067 0.98749 0.0
C271 C 0.58719 0.50545 0.02753 0.0
C272 C 0.56601 0.48111 0.05158 0.0
H273 H 0.61885 0.51447 0.97008 0.0
H274 H 0.58971 0.5333 0.03774 0.0
C275 C 0.56393 0.44507 0.03752 0.0
C276 C 0.04721 0.58946 0.0202 0.0
C277 C 0.01008 0.59627 0.02378 0.0
H278 H 0.09365 0.58979 0.97858 0.0
C279 C 0.99226 0.61352 0.98896 0.0
H280 H 0.06179 0.57647 0.0466 0.0
C281 C 0.01054 0.62134 0.95013 0.0
C282 C 0.04698 0.61189 0.94519 0.0
H283 H 0.96376 0.61959 0.99092 0.0
H284 H 0.99554 0.63306 0.9232 0.0
C285 C 0.06549 0.59714 0.98121 0.0
C286 C 0.90689 0.05097 0.01005 0.0
C287 C 0.89112 0.02056 0.99028 0.0
H288 H 0.94211 0.07083 0.06022 0.0
C289 C 0.89553 0.98672 0.01021 0.0
H290 H 0.90382 0.07747 -0.00433 0.0
C291 C 0.9176 0.98289 0.047 0.0
C292 C 0.9356 0.01285 0.06478 0.0
H293 H 0.88347 0.96279 -0.00391 0.0
H294 H 0.92179 0.95616 0.06028 0.0
C295 C 0.92889 0.04715 0.04704 0.0
C296 C 0.5261 0.60503 0.5169 0.0
C297 C 0.49114 0.615 0.52977 0.0
H298 H 0.55884 0.57808 0.46942 0.0
C299 C 0.46233 0.6088 0.50077 0.0
H300 H 0.54896 0.60969 0.53827 0.0
C301 C 0.46804 0.59068 0.46113 0.0
C302 C 0.50263 0.57832 0.44986 0.0
H303 H 0.43509 0.61634 0.50961 0.0
H304 H 0.44504 0.58483 0.44042 0.0
C305 C 0.53178 0.58682 0.47741 0.0
C306 C 0.89487 0.47268 0.52083 0.0
C307 C 0.90481 0.43706 0.53067 0.0
H308 H 0.89913 0.51668 0.47597 0.0
C309 C 0.92335 0.41681 0.49887 0.0
H310 H 0.88028 0.48895 0.5444 0.0
C311 C 0.93414 0.43276 0.45946 0.0
C312 C 0.92669 0.46927 0.45125 0.0
H313 H 0.93119 0.3892 0.50531 0.0
H314 H 0.94993 0.417 0.43654 0.0
C315 C 0.90578 0.48864 0.4816 0.0
C316 C 0.99716 0.8941 0.49842 0.0
C317 C 0.02975 0.88896 0.52105 0.0
H318 H 0.96988 0.92102 0.44609 0.0
C319 C 0.0614 0.90446 0.50416 0.0
H320 H 0.97233 0.8823 0.51029 0.0
C321 C 0.05999 0.92668 0.46716 0.0
C322 C 0.0269 0.9339 0.44651 0.0
H323 H 0.08699 0.90084 0.52068 0.0
H324 H 0.08455 0.93953 0.4561 0.0
C325 C 0.99573 0.9164 0.46162 0.0
C326 C 0.51848 0.10807 0.36556 0.0
C327 C 0.48593 0.09382 0.3497 0.0
H328 H 0.5546 0.11274 0.4202 0.0
C329 C 0.46373 0.07421 0.3782 0.0
H330 H 0.53597 0.12345 0.34419 0.0
C331 C 0.47427 0.06805 0.42148 0.0
C332 C 0.50719 0.08158 0.4373 0.0
H333 H 0.43795 0.06394 0.36718 0.0
H334 H 0.45654 0.05261 0.4425 0.0
C335 C 0.52914 0.10184 0.40896 0.0
C336 C 0.81657 0.14493 0.25941 0.0
C337 C 0.83974 0.11982 0.27922 0.0
H338 H 0.76469 0.15465 0.23093 0.0
C339 C 0.82749 0.08446 0.28611 0.0
H340 H 0.82525 0.17242 0.25389 0.0
C341 C 0.79308 0.07413 0.27229 0.0
C342 C 0.76998 0.09917 0.25222 0.0
H343 H 0.84481 0.06452 0.30122 0.0
H344 H 0.78459 0.0465 0.27722 0.0
C345 C 0.78186 0.1348 0.24648 0.0
C346 C 0.39261 0.77525 0.3085 0.0
C347 C 0.42772 0.78435 0.32168 0.0
H348 H 0.35868 0.73657 0.27643 0.0
C349 C 0.45614 0.76063 0.31205 0.0
H350 H 0.37019 0.79301 0.31565 0.0
C351 C 0.44969 0.72878 0.2888 0.0
C352 C 0.41456 0.71961 0.27576 0.0
H353 H 0.4835 0.76704 0.3217 0.0
H354 H 0.47217 0.71122 0.28126 0.0
C355 C 0.38601 0.74293 0.28625 0.0
C356 C 0.72038 0.44311 0.25218 0.0
C357 C 0.74246 0.41915 0.22873 0.0
H358 H 0.67098 0.4506 0.2873 0.0
C359 C 0.73144 0.38317 0.22366 0.0
H360 H 0.7283 0.47097 0.25669 0.0
C361 C 0.69828 0.3717 0.24037 0.0
C362 C 0.67602 0.39579 0.26337 0.0
H363 H 0.74788 0.36416 0.20558 0.0
H364 H 0.69001 0.34404 0.23509 0.0
C365 C 0.68767 0.43142 0.26981 0.0
C366 C 0.08398 0.80626 0.22921 0.0
C367 C 0.1205 0.81603 0.22721 0.0
H368 H 0.04547 0.76594 0.24738 0.0
C369 C 0.14676 0.79124 0.24101 0.0
H370 H 0.06319 0.82491 0.21889 0.0
C371 C 0.13667 0.75721 0.25633 0.0
C372 C 0.1001 0.74775 0.25921 0.0
H373 H 0.17512 0.79805 0.23962 0.0
H374 H 0.15745 0.73859 0.26677 0.0
C375 C 0.07385 0.7726 0.24562 0.0
C376 C 0.22351 0.93745 0.74918 0.0
C377 C 0.20885 0.90333 0.74023 0.0
H378 H 0.26729 0.96731 0.77701 0.0
C379 C 0.22796 0.87243 0.75315 0.0
H380 H 0.20928 0.96174 0.7398 0.0
C381 C 0.26153 0.87561 0.77374 0.0
C382 C 0.27613 0.90976 0.78277 0.0
H383 H 0.21729 0.84579 0.74659 0.0
H384 H 0.27599 0.85136 0.78274 0.0
C385 C 0.25661 0.94063 0.7707 0.0
C386 C 0.51151 0.22936 0.68463 0.0
C387 C 0.53953 0.21173 0.66227 0.0
H388 H 0.49672 0.27113 0.72965 0.0
C389 C 0.57511 0.2237 0.66838 0.0
H390 H 0.48383 0.22065 0.68077 0.0
C391 C 0.58245 0.25297 0.69598 0.0
C392 C 0.55443 0.27037 0.71864 0.0
H393 H 0.59726 0.21066 0.65154 0.0
H394 H 0.6101 0.26176 0.69985 0.0
C395 C 0.51892 0.25816 0.71281 0.0
C396 C 0.26349 0.53203 0.74107 0.0
C397 C 0.2457 0.56097 0.76139 0.0
H398 H 0.30601 0.51538 0.69816 0.0
C399 C 0.25776 0.59626 0.75354 0.0
H400 H 0.25461 0.50457 0.74638 0.0
C401 C 0.28772 0.6024 0.72669 0.0
C402 C 0.30541 0.57342 0.70627 0.0
H403 H 0.24454 0.61903 0.7689 0.0
H404 H 0.29691 0.62979 0.72173 0.0
C405 C 0.29276 0.53823 0.71331 0.0
C406 C 0.96945 0.19992 0.78145 0.0
C407 C 0.93405 0.18836 0.78957 0.0
H408 H 0.00363 0.23703 0.74748 0.0
C409 C 0.90526 0.20693 0.76992 0.0
H410 H 0.99218 0.18602 0.79599 0.0
C411 C 0.91181 0.23659 0.74277 0.0
C412 C 0.94728 0.24764 0.73395 0.0
H413 H 0.87769 0.19864 0.7757 0.0
H414 H 0.88915 0.25045 0.72804 0.0
C415 C 0.97602 0.229 0.75352 0.0
loop_
_geom_bond_atom_site_label_1
_geom_bond_atom_site_label_2
_geom_bond_distance
_geom_bond_site_symmetry_2
_ccdc_geom_bond_type
O0 Cd1 2.300 . S
O0 C7 1.275 . S
Cd1 O0 2.300 . S
Cd1 O9 2.381 . S
Cd1 O10 2.378 . S
O2 Cd3 2.385 1_545 S
O2 C7 1.255 . S
Cd3 O2 2.385 1_565 S
Cd3 O4 2.317 1_565 S
O4 Cd3 2.317 1_545 S
O4 C5 1.232 . S
C5 O4 1.232 . S
C5 O6 1.218 . S
O6 C5 1.218 . S
C7 O0 1.275 . S
C7 O2 1.255 . S
C8 O9 1.258 . S
C8 O10 1.256 . S
O9 Cd1 2.381 . S
O9 C8 1.258 . S
O10 Cd1 2.378 . S
O10 C8 1.256 . S
O11 Cd12 2.300 . S
O11 C18 1.275 . S
Cd12 O11 2.300 . S
Cd12 O20 2.381 . S
Cd12 O21 2.378 . S
O13 Cd14 2.385 . S
O13 C18 1.255 . S
Cd14 O13 2.385 . S
Cd14 O15 2.317 . S
O15 Cd14 2.317 . S
O15 C16 1.232 . S
C16 O15 1.232 . S
C16 O17 1.218 . S
O17 C16 1.218 . S
C18 O11 1.275 . S
C18 O13 1.255 . S
C19 O20 1.258 . S
C19 O21 1.256 . S
O20 Cd12 2.381 . S
O20 C19 1.258 . S
O21 Cd12 2.378 . S
O21 C19 1.256 . S
O22 Cd23 2.300 . S
O22 C29 1.275 . S
Cd23 O22 2.300 . S
Cd23 O31 2.381 . S
Cd23 O32 2.378 . S
O24 Cd25 2.385 . S
O24 C29 1.255 . S
Cd25 O24 2.385 . S
Cd25 O26 2.317 . S
O26 Cd25 2.317 . S
O26 C27 1.232 . S
C27 O26 1.232 . S
C27 O28 1.218 . S
O28 C27 1.218 . S
C29 O22 1.275 . S
C29 O24 1.255 . S
C30 O31 1.258 . S
C30 O32 1.256 . S
O31 Cd23 2.381 . S
O31 C30 1.258 . S
O32 Cd23 2.378 . S
O32 C30 1.256 . S
O33 Cd34 2.300 . S
O33 C40 1.275 . S
Cd34 O33 2.300 . S
Cd34 O42 2.381 . S
Cd34 O43 2.378 . S
O35 Cd36 2.385 1_455 S
O35 C40 1.255 . S
Cd36 O35 2.385 1_655 S
Cd36 O37 2.317 1_655 S
O37 Cd36 2.317 1_455 S
O37 C38 1.232 . S
C38 O37 1.232 . S
C38 O39 1.218 . S
O39 C38 1.218 . S
C40 O33 1.275 . S
C40 O35 1.255 . S
C41 O42 1.258 . S
C41 O43 1.256 . S
O42 Cd34 2.381 . S
O42 C41 1.258 . S
O43 Cd34 2.378 . S
O43 C41 1.256 . S
O44 Cd45 2.300 . S
O44 C51 1.275 . S
Cd45 O44 2.300 . S
Cd45 O53 2.381 . S
Cd45 O54 2.378 . S
O46 Cd47 2.385 . S
O46 C51 1.255 . S
Cd47 O46 2.385 . S
Cd47 O48 2.317 . S
O48 Cd47 2.317 . S
O48 C49 1.232 . S
C49 O48 1.232 . S
C49 O50 1.218 . S
O50 C49 1.218 . S
C51 O44 1.275 . S
C51 O46 1.255 . S
C52 O53 1.258 . S
C52 O54 1.256 . S
O53 Cd45 2.381 . S
O53 C52 1.258 . S
O54 Cd45 2.378 . S
O54 C52 1.256 . S
O55 Cd56 2.300 . S
O55 C62 1.275 . S
Cd56 O55 2.300 . S
Cd56 O64 2.381 . S
Cd56 O65 2.378 . S
O57 Cd58 2.385 1_455 S
O57 C62 1.255 . S
Cd58 O57 2.385 1_655 S
Cd58 O59 2.317 1_655 S
O59 Cd58 2.317 1_455 S
O59 C60 1.232 . S
C60 O59 1.232 . S
C60 O61 1.218 . S
O61 C60 1.218 . S
C62 O55 1.275 . S
C62 O57 1.255 . S
C63 O64 1.258 . S
C63 O65 1.256 . S
O64 Cd56 2.381 . S
O64 C63 1.258 . S
O65 Cd56 2.378 . S
O65 C63 1.256 . S
O66 Cd67 2.300 . S
O66 C73 1.275 . S
Cd67 O66 2.300 . S
Cd67 O75 2.381 . S
Cd67 O76 2.378 . S
O68 Cd69 2.385 1_545 S
O68 C73 1.255 . S
Cd69 O68 2.385 1_565 S
Cd69 O70 2.317 1_565 S
O70 Cd69 2.317 1_545 S
O70 C71 1.232 . S
C71 O70 1.232 . S
C71 O72 1.218 . S
O72 C71 1.218 . S
C73 O66 1.275 . S
C73 O68 1.255 . S
C74 O75 1.258 . S
C74 O76 1.256 . S
O75 Cd67 2.381 . S
O75 C74 1.258 . S
O76 Cd67 2.378 . S
O76 C74 1.256 . S
O77 Cd78 2.300 . S
O77 C84 1.275 . S
Cd78 O77 2.300 . S
Cd78 O86 2.381 . S
Cd78 O87 2.378 . S
O79 Cd80 2.385 . S
O79 C84 1.255 . S
Cd80 O79 2.385 . S
Cd80 O81 2.317 . S
O81 Cd80 2.317 . S
O81 C82 1.232 . S
C82 O81 1.232 . S
C82 O83 1.218 . S
O83 C82 1.218 . S
C84 O77 1.275 . S
C84 O79 1.255 . S
C85 O86 1.258 . S
C85 O87 1.256 . S
O86 Cd78 2.381 . S
O86 C85 1.258 . S
O87 Cd78 2.378 . S
O87 C85 1.256 . S
O88 Cd89 2.300 . S
O88 C95 1.275 . S
Cd89 O88 2.300 . S
Cd89 O97 2.381 . S
Cd89 O98 2.378 . S
O90 Cd91 2.385 . S
O90 C95 1.255 . S
Cd91 O90 2.385 . S
Cd91 O92 2.317 . S
O92 Cd91 2.317 . S
O92 C93 1.232 . S
C93 O92 1.232 . S
C93 O94 1.218 . S
O94 C93 1.218 . S
C95 O88 1.275 . S
C95 O90 1.255 . S
C96 O97 1.258 . S
C96 O98 1.256 . S
O97 Cd89 2.381 . S
O97 C96 1.258 . S
O98 Cd89 2.378 . S
O98 C96 1.256 . S
O99 Cd100 2.300 . S
O99 C106 1.275 . S
Cd100 O99 2.300 . S
Cd100 O108 2.381 . S
Cd100 O109 2.378 . S
O101 Cd102 2.385 . S
O101 C106 1.255 . S
Cd102 O101 2.385 . S
Cd102 O103 2.317 . S
O103 Cd102 2.317 . S
O103 C104 1.232 . S
C104 O103 1.232 . S
C104 O105 1.218 . S
O105 C104 1.218 . S
C106 O99 1.275 . S
C106 O101 1.255 . S
C107 O108 1.258 . S
C107 O109 1.256 . S
O108 Cd100 2.381 . S
O108 C107 1.258 . S
O109 Cd100 2.378 . S
O109 C107 1.256 . S
O110 Cd111 2.300 . S
O110 C117 1.275 . S
Cd111 O110 2.300 . S
Cd111 O119 2.381 . S
Cd111 O120 2.378 . S
O112 Cd113 2.385 . S
O112 C117 1.255 . S
Cd113 O112 2.385 . S
Cd113 O114 2.317 . S
O114 Cd113 2.317 . S
O114 C115 1.232 . S
C115 O114 1.232 . S
C115 O116 1.218 1_455 S
O116 C115 1.218 1_655 S
C117 O110 1.275 . S
C117 O112 1.255 . S
C118 O119 1.258 . S
C118 O120 1.256 . S
O119 Cd111 2.381 . S
O119 C118 1.258 . S
O120 Cd111 2.378 . S
O120 C118 1.256 . S
O121 Cd122 2.300 . S
O121 C128 1.275 . S
Cd122 O121 2.300 . S
Cd122 O130 2.381 . S
Cd122 O131 2.378 . S
O123 Cd124 2.385 . S
O123 C128 1.255 . S
Cd124 O123 2.385 . S
Cd124 O125 2.317 . S
O125 Cd124 2.317 . S
O125 C126 1.232 . S
C126 O125 1.232 . S
C126 O127 1.218 1_545 S
O127 C126 1.218 1_565 S
C128 O121 1.275 . S
C128 O123 1.255 . S
C129 O130 1.258 . S
C129 O131 1.256 . S
O130 Cd122 2.381 . S
O130 C129 1.258 . S
O131 Cd122 2.378 . S
O131 C129 1.256 . S
O132 Cd133 2.300 . S
O132 C139 1.275 . S
Cd133 O132 2.300 . S
Cd133 O141 2.381 . S
Cd133 O142 2.378 . S
O134 Cd135 2.385 . S
O134 C139 1.255 . S
Cd135 O134 2.385 . S
Cd135 O136 2.317 . S
O136 Cd135 2.317 . S
O136 C137 1.232 . S
C137 O136 1.232 . S
C137 O138 1.218 . S
O138 C137 1.218 . S
C139 O132 1.275 . S
C139 O134 1.255 . S
C140 O141 1.258 . S
C140 O142 1.256 . S
O141 Cd133 2.381 . S
O141 C140 1.258 . S
O142 Cd133 2.378 . S
O142 C140 1.256 . S
O143 Cd144 2.300 . S
O143 C150 1.275 . S
Cd144 O143 2.300 . S
Cd144 O152 2.381 . S
Cd144 O153 2.378 . S
O145 Cd146 2.385 . S
O145 C150 1.255 . S
Cd146 O145 2.385 . S
Cd146 O147 2.317 . S
O147 Cd146 2.317 . S
O147 C148 1.232 . S
C148 O147 1.232 . S
C148 O149 1.218 . S
O149 C148 1.218 . S
C150 O143 1.275 . S
C150 O145 1.255 . S
C151 O152 1.258 . S
C151 O153 1.256 . S
O152 Cd144 2.381 . S
O152 C151 1.258 . S
O153 Cd144 2.378 . S
O153 C151 1.256 . S
O154 Cd155 2.300 . S
O154 C161 1.275 . S
Cd155 O154 2.300 . S
Cd155 O163 2.381 . S
Cd155 O164 2.378 . S
O156 Cd157 2.385 . S
O156 C161 1.255 . S
Cd157 O156 2.385 . S
Cd157 O158 2.317 . S
O158 Cd157 2.317 . S
O158 C159 1.232 . S
C159 O158 1.232 . S
C159 O160 1.218 1_455 S
O160 C159 1.218 1_655 S
C161 O154 1.275 . S
C161 O156 1.255 . S
C162 O163 1.258 . S
C162 O164 1.256 . S
O163 Cd155 2.381 . S
O163 C162 1.258 . S
O164 Cd155 2.378 . S
O164 C162 1.256 . S
O165 Cd166 2.300 . S
O165 C172 1.275 . S
Cd166 O165 2.300 . S
Cd166 O174 2.381 . S
Cd166 O175 2.378 . S
O167 Cd168 2.385 . S
O167 C172 1.255 . S
Cd168 O167 2.385 . S
Cd168 O169 2.317 . S
O169 Cd168 2.317 . S
O169 C170 1.232 . S
C170 O169 1.232 . S
C170 O171 1.218 1_545 S
O171 C170 1.218 1_565 S
C172 O165 1.275 . S
C172 O167 1.255 . S
C173 O174 1.258 . S
C173 O175 1.256 . S
O174 Cd166 2.381 . S
O174 C173 1.258 . S
O175 Cd166 2.378 . S
O175 C173 1.256 . S
C176 C177 1.387 . S
C176 H180 0.950 . S
C176 C185 1.390 . S
C177 C176 1.387 . S
C177 C179 1.414 . S
H178 C185 0.950 . S
C179 C177 1.414 . S
C179 C181 1.372 1_545 S
C179 H183 0.941 1_545 S
H180 C176 0.950 . S
C181 C179 1.372 1_565 S
C181 C182 1.387 . S
C181 H184 0.950 . S
C182 C181 1.387 . S
C182 C185 1.387 1_565 S
H183 C179 0.941 1_565 S
H184 C181 0.950 . S
C185 C176 1.390 . S
C185 H178 0.950 . S
C185 C182 1.387 1_545 S
C186 C187 1.387 . S
C186 H190 0.950 . S
C186 C195 1.390 . S
C187 C186 1.387 . S
C187 C189 1.387 . S
H188 C195 0.950 . S
C189 C187 1.387 . S
C189 C191 1.390 . S
C189 H193 0.950 . S
H190 C186 0.950 . S
C191 C189 1.390 . S
C191 C192 1.387 . S
C191 H194 0.950 . S
C192 C191 1.387 . S
C192 C195 1.387 . S
H193 C189 0.950 . S
H194 C191 0.950 . S
C195 C186 1.390 . S
C195 H188 0.950 . S
C195 C192 1.387 . S
C196 C197 1.387 . S
C196 H200 0.950 . S
C196 C205 1.390 1_655 S
C197 C196 1.387 . S
C197 C199 1.387 1_655 S
H198 C205 0.950 . S
C199 C197 1.387 1_455 S
C199 C201 1.390 . S
C199 H203 0.954 . S
H200 C196 0.950 . S
C201 C199 1.390 . S
C201 C202 1.387 . S
C201 H204 0.950 . S
C202 C201 1.387 . S
C202 C205 1.387 . S
H203 C199 0.954 . S
H204 C201 0.950 . S
C205 C196 1.390 1_455 S
C205 H198 0.950 . S
C205 C202 1.387 . S
C206 C207 1.387 1_455 S
C206 H210 0.950 . S
C206 C215 1.390 1_545 S
C207 C206 1.387 1_655 S
C207 C209 1.387 . S
H208 C215 0.950 . S
C209 C207 1.387 . S
C209 C211 1.390 1_655 S
C209 H213 0.950 . S
H210 C206 0.950 . S
C211 C209 1.390 1_455 S
C211 C212 1.387 1_545 S
C211 H214 0.950 . S
C212 C211 1.387 1_565 S
C212 C215 1.387 . S
H213 C209 0.950 . S
H214 C211 0.950 . S
C215 C206 1.390 1_565 S
C215 H208 0.950 . S
C215 C212 1.387 . S
C216 C217 1.387 1_565 S
C216 H220 0.950 . S
C216 C225 1.390 . S
C217 C216 1.387 1_545 S
C217 C219 1.387 . S
H218 C225 0.950 . S
C219 C217 1.387 . S
C219 C221 1.390 1_545 S
C219 H223 0.950 . S
H220 C216 0.950 . S
C221 C219 1.390 1_565 S
C221 C222 1.387 . S
C221 H224 0.950 . S
C222 C221 1.387 . S
C222 C225 1.387 . S
H223 C219 0.950 . S
H224 C221 0.950 . S
C225 C216 1.390 . S
C225 H218 0.950 . S
C225 C222 1.387 . S
C226 C227 1.387 . S
C226 H230 0.950 . S
C226 C235 1.390 . S
C227 C226 1.387 . S
C227 C229 1.387 . S
H228 C235 0.950 . S
C229 C227 1.387 . S
C229 C231 1.390 . S
C229 H233 0.950 . S
H230 C226 0.950 . S
C231 C229 1.390 . S
C231 C232 1.387 . S
C231 H234 0.950 . S
C232 C231 1.387 . S
C232 C235 1.387 . S
H233 C229 0.950 . S
H234 C231 0.950 . S
C235 C226 1.390 . S
C235 H228 0.950 . S
C235 C232 1.387 . S
C236 C237 1.377 1_655 S
C236 H240 0.941 1_655 S
C236 C245 1.411 . S
C237 C236 1.377 1_455 S
C237 C239 1.388 . S
H238 C245 0.950 . S
C239 C237 1.388 . S
C239 C241 1.388 1_455 S
C239 H243 0.951 . S
H240 C236 0.941 1_455 S
C241 C239 1.388 1_655 S
C241 C242 1.387 . S
C241 H244 0.950 . S
C242 C241 1.387 . S
C242 C245 1.387 . S
H243 C239 0.951 . S
H244 C241 0.950 . S
C245 C236 1.411 . S
C245 H238 0.950 . S
C245 C242 1.387 . S
C246 C247 1.387 1_565 S
C246 H250 0.950 . S
C246 C255 1.390 . S
C247 C246 1.387 1_545 S
C247 C249 1.387 . S
H248 C255 0.950 . S
C249 C247 1.387 . S
C249 C251 1.390 1_645 S
C249 H253 0.950 . S
H250 C246 0.950 . S
C251 C249 1.390 1_465 S
C251 C252 1.387 . S
C251 H254 0.950 1_565 S
C252 C251 1.387 . S
C252 C255 1.387 1_455 S
H253 C249 0.950 . S
H254 C251 0.950 1_545 S
C255 C246 1.390 . S
C255 H248 0.950 . S
C255 C252 1.387 1_655 S
C256 C257 1.387 1_545 S
C256 H260 0.950 . S
C256 C265 1.390 . S
C257 C256 1.387 1_565 S
C257 C259 1.387 1_556 S
H258 C265 0.950 . S
C259 C257 1.387 1_554 S
C259 C261 1.390 . S
C259 H263 0.950 . S
H260 C256 0.950 . S
C261 C259 1.390 . S
C261 C262 1.387 1_565 S
C261 H264 0.950 . S
C262 C261 1.387 1_545 S
C262 C265 1.387 1_554 S
H263 C259 0.950 . S
H264 C261 0.950 . S
C265 C256 1.390 . S
C265 H258 0.950 . S
C265 C262 1.387 1_556 S
C266 C267 1.387 1_554 S
C266 H270 0.950 . S
C266 C275 1.390 . S
C267 C266 1.387 1_556 S
C267 C269 1.387 . S
H268 C275 0.950 . S
C269 C267 1.387 . S
C269 C271 1.390 . S
C269 H273 0.950 . S
H270 C266 0.950 . S
C271 C269 1.390 . S
C271 C272 1.387 1_556 S
C271 H274 0.950 . S
C272 C271 1.387 1_554 S
C272 C275 1.387 . S
H273 C269 0.950 . S
H274 C271 0.950 . S
C275 C266 1.390 . S
C275 H268 0.950 . S
C275 C272 1.387 . S
C276 C277 1.387 1_455 S
C276 H280 0.950 . S
C276 C285 1.390 . S
C277 C276 1.387 1_655 S
C277 C279 1.387 1_554 S
H278 C285 0.950 . S
C279 C277 1.387 1_556 S
C279 C281 1.390 . S
C279 H283 0.950 . S
H280 C276 0.950 . S
C281 C279 1.390 . S
C281 C282 1.387 1_655 S
C281 H284 0.950 . S
C282 C281 1.387 1_455 S
C282 C285 1.387 1_556 S
H283 C279 0.950 . S
H284 C281 0.950 . S
C285 C276 1.390 . S
C285 H278 0.950 . S
C285 C282 1.387 1_554 S
C286 C287 1.387 1_554 S
C286 H290 0.950 . S
C286 C295 1.390 1_655 S
C287 C286 1.387 1_556 S
C287 C289 1.387 1_545 S
H288 C295 0.950 . S
C289 C287 1.387 1_565 S
C289 C291 1.390 1_655 S
C289 H293 0.950 . S
H290 C286 0.950 . S
C291 C289 1.390 1_455 S
C291 C292 1.387 1_556 S
C291 H294 0.950 . S
C292 C291 1.387 1_554 S
C292 C295 1.387 1_565 S
H293 C289 0.950 . S
H294 C291 0.950 . S
C295 C286 1.390 1_455 S
C295 H288 0.950 . S
C295 C292 1.387 1_545 S
C296 C297 1.387 . S
C296 H300 0.950 . S
C296 C305 1.390 . S
C297 C296 1.387 . S
C297 C299 1.387 . S
H298 C305 0.950 . S
C299 C297 1.387 . S
C299 C301 1.390 . S
C299 H303 0.950 . S
H300 C296 0.950 . S
C301 C299 1.390 . S
C301 C302 1.387 . S
C301 H304 0.950 . S
C302 C301 1.387 . S
C302 C305 1.387 . S
H303 C299 0.950 . S
H304 C301 0.950 . S
C305 C296 1.390 . S
C305 H298 0.950 . S
C305 C302 1.387 . S
C306 C307 1.387 . S
C306 H310 0.950 . S
C306 C315 1.390 1_655 S
C307 C306 1.387 . S
C307 C309 1.387 . S
H308 C315 0.950 . S
C309 C307 1.387 . S
C309 C311 1.390 1_655 S
C309 H313 0.950 . S
H310 C306 0.950 . S
C311 C309 1.390 1_455 S
C311 C312 1.387 . S
C311 H314 0.950 . S
C312 C311 1.387 . S
C312 C315 1.387 . S
H313 C309 0.950 . S
H314 C311 0.950 . S
C315 C306 1.390 1_455 S
C315 H308 0.950 . S
C315 C312 1.387 . S
C316 C317 1.387 1_655 S
C316 H320 0.950 . S
C316 C325 1.396 . S
C317 C316 1.387 1_455 S
C317 C319 1.381 1_565 S
H318 C325 0.950 . S
C319 C317 1.381 1_545 S
C319 C321 1.396 . S
C319 H323 0.950 . S
H320 C316 0.950 . S
C321 C319 1.396 . S
C321 C322 1.387 1_455 S
C321 H324 0.950 . S
C322 C321 1.387 1_655 S
C322 C325 1.381 1_545 S
H323 C319 0.950 . S
H324 C321 0.950 . S
C325 C316 1.396 . S
C325 H318 0.950 . S
C325 C322 1.381 1_565 S
C326 C327 1.387 1_545 S
C326 H330 0.950 . S
C326 C335 1.390 . S
C327 C326 1.387 1_565 S
C327 C329 1.387 . S
H328 C335 0.950 . S
C329 C327 1.387 . S
C329 C331 1.390 . S
C329 H333 0.950 . S
H330 C326 0.950 . S
C331 C329 1.390 . S
C331 C332 1.387 1_565 S
C331 H334 0.950 . S
C332 C331 1.387 1_545 S
C332 C335 1.387 . S
H333 C329 0.950 . S
H334 C331 0.950 . S
C335 C326 1.390 . S
C335 H328 0.950 . S
C335 C332 1.387 . S
C336 C337 1.387 . S
C336 H340 0.950 . S
C336 C345 1.390 . S
C337 C336 1.387 . S
C337 C339 1.387 . S
H338 C345 0.950 . S
C339 C337 1.387 . S
C339 C341 1.390 . S
C339 H343 0.950 . S
H340 C336 0.950 . S
C341 C339 1.390 . S
C341 C342 1.387 . S
C341 H344 0.950 . S
C342 C341 1.387 . S
C342 C345 1.387 . S
H343 C339 0.950 . S
H344 C341 0.950 . S
C345 C336 1.390 . S
C345 H338 0.950 . S
C345 C342 1.387 . S
C346 C347 1.387 . S
C346 H350 0.950 . S
C346 C355 1.390 . S
C347 C346 1.387 . S
C347 C349 1.387 . S
H348 C355 0.950 . S
C349 C347 1.387 . S
C349 C351 1.390 . S
C349 H353 0.950 . S
H350 C346 0.950 . S
C351 C349 1.390 . S
C351 C352 1.387 . S
C351 H354 0.950 . S
C352 C351 1.387 . S
C352 C355 1.387 . S
H353 C349 0.950 . S
H354 C351 0.950 . S
C355 C346 1.390 . S
C355 H348 0.950 . S
C355 C352 1.387 . S
C356 C357 1.387 . S
C356 H360 0.950 . S
C356 C365 1.390 . S
C357 C356 1.387 . S
C357 C359 1.387 . S
H358 C365 0.950 . S
C359 C357 1.387 . S
C359 C361 1.390 . S
C359 H363 0.950 . S
H360 C356 0.950 . S
C361 C359 1.390 . S
C361 C362 1.387 . S
C361 H364 0.950 . S
C362 C361 1.387 . S
C362 C365 1.387 . S
H363 C359 0.950 . S
H364 C361 0.950 . S
C365 C356 1.390 . S
C365 H358 0.950 . S
C365 C362 1.387 . S
C366 C367 1.387 . S
C366 H370 0.950 . S
C366 C375 1.390 . S
C367 C366 1.387 . S
C367 C369 1.387 . S
H368 C375 0.950 . S
C369 C367 1.387 . S
C369 C371 1.390 . S
C369 H373 0.950 . S
H370 C366 0.950 . S
C371 C369 1.390 . S
C371 C372 1.387 . S
C371 H374 0.950 . S
C372 C371 1.387 . S
C372 C375 1.387 . S
H373 C369 0.950 . S
H374 C371 0.950 . S
C375 C366 1.390 . S
C375 H368 0.950 . S
C375 C372 1.387 . S
C376 C377 1.387 . S
C376 H380 0.950 . S
C376 C385 1.390 . S
C377 C376 1.387 . S
C377 C379 1.387 . S
H378 C385 0.950 . S
C379 C377 1.387 . S
C379 C381 1.390 . S
C379 H383 0.950 . S
H380 C376 0.950 . S
C381 C379 1.390 . S
C381 C382 1.387 . S
C381 H384 0.950 . S
C382 C381 1.387 . S
C382 C385 1.387 . S
H383 C379 0.950 . S
H384 C381 0.950 . S
C385 C376 1.390 . S
C385 H378 0.950 . S
C385 C382 1.387 . S
C386 C387 1.387 . S
C386 H390 0.950 . S
C386 C395 1.390 . S
C387 C386 1.387 . S
C387 C389 1.387 . S
H388 C395 0.950 . S
C389 C387 1.387 . S
C389 C391 1.390 . S
C389 H393 0.950 . S
H390 C386 0.950 . S
C391 C389 1.390 . S
C391 C392 1.387 . S
C391 H394 0.950 . S
C392 C391 1.387 . S
C392 C395 1.387 . S
H393 C389 0.950 . S
H394 C391 0.950 . S
C395 C386 1.390 . S
C395 H388 0.950 . S
C395 C392 1.387 . S
C396 C397 1.387 . S
C396 H400 0.950 . S
C396 C405 1.390 . S
C397 C396 1.387 . S
C397 C399 1.387 . S
H398 C405 0.950 . S
C399 C397 1.387 . S
C399 C401 1.390 . S
C399 H403 0.950 . S
H400 C396 0.950 . S
C401 C399 1.390 . S
C401 C402 1.387 . S
C401 H404 0.950 . S
C402 C401 1.387 . S
C402 C405 1.387 . S
H403 C399 0.950 . S
H404 C401 0.950 . S
C405 C396 1.390 . S
C405 H398 0.950 . S
C405 C402 1.387 . S
C406 C407 1.387 . S
C406 H410 0.950 . S
C406 C415 1.390 . S
C407 C406 1.387 . S
C407 C409 1.387 . S
H408 C415 0.950 . S
C409 C407 1.387 . S
C409 C411 1.390 . S
C409 H413 0.950 . S
H410 C406 0.950 . S
C411 C409 1.390 . S
C411 C412 1.387 . S
C411 H414 0.950 . S
C412 C411 1.387 . S
C412 C415 1.387 . S
H413 C409 0.950 . S
H414 C411 0.950 . S
C415 C406 1.390 . S
C415 H408 0.950 . S
C415 C412 1.387 . S
C177 C7 1.292 . S
C182 C84 1.295 . S
C187 C18 1.296 . S
C192 C51 1.291 . S
C197 C29 1.295 . S
C202 C62 1.291 . S
C207 C73 1.296 . S
C212 C40 1.291 . S
C217 C172 1.390 . S
C222 C95 1.391 . S
C227 C139 1.390 . S
C232 C106 1.390 . S
C237 C117 1.391 . S
C242 C150 1.390 . S
C247 C128 1.390 . S
C252 C161 1.391 . S
C257 C93 1.974 . S
C262 C5 1.369 . S
C267 C104 1.976 . S
C272 C16 1.365 . S
C277 C27 1.366 . S
C282 C115 1.976 . S
C287 C126 1.976 . S
C292 C38 1.365 . S
C297 C137 1.976 . S
C302 C49 1.370 . S
C307 C148 1.975 . S
C312 C60 1.371 . S
C317 C159 1.976 . S
C322 C71 1.370 . S
C327 C82 1.367 . S
C332 C170 1.974 . S
C337 C74 1.731 . S
C342 C8 1.731 . S
C347 C85 1.731 . S
C352 C19 1.731 . S
C357 C30 1.731 . S
C362 C52 1.731 . S
C367 C41 1.730 . S
C372 C63 1.730 . S
C377 C162 1.776 . S
C382 C96 1.776 . S
C387 C173 1.776 . S
C392 C107 1.776 . S
C397 C118 1.776 . S
C402 C140 1.776 . S
C407 C129 1.776 . S
C412 C151 1.776 . S
