# Generated by pormake.
# Topology gsi, (4)-cn, num edge types: 1
# Building blocks:
#     Node 0, Type 0, BuildingBlock: GALJAG_clean_sbu_0, # of connection points: 4
#     Node 1, Type 0, BuildingBlock: GALJAG_clean_sbu_0, # of connection points: 4
#     Node 2, Type 0, BuildingBlock: GALJAG_clean_sbu_0, # of connection points: 4
#     Node 3, Type 0, BuildingBlock: GALJAG_clean_sbu_0, # of connection points: 4
#     Node 4, Type 0, BuildingBlock: GALJAG_clean_sbu_0, # of connection points: 4
#     Node 5, Type 0, BuildingBlock: GALJAG_clean_sbu_0, # of connection points: 4
#     Node 6, Type 0, BuildingBlock: GALJAG_clean_sbu_0, # of connection points: 4
#     Node 7, Type 0, BuildingBlock: GALJAG_clean_sbu_0, # of connection points: 4
#     Node 8, Type 0, BuildingBlock: GALJAG_clean_sbu_0, # of connection points: 4
#     Node 9, Type 0, BuildingBlock: GALJAG_clean_sbu_0, # of connection points: 4
#     Node 10, Type 0, BuildingBlock: GALJAG_clean_sbu_0, # of connection points: 4
#     Node 11, Type 0, BuildingBlock: GALJAG_clean_sbu_0, # of connection points: 4
#     Node 12, Type 0, BuildingBlock: GALJAG_clean_sbu_0, # of connection points: 4
#     Node 13, Type 0, BuildingBlock: GALJAG_clean_sbu_0, # of connection points: 4
#     Node 14, Type 0, BuildingBlock: GALJAG_clean_sbu_0, # of connection points: 4
#     Node 15, Type 0, BuildingBlock: GALJAG_clean_sbu_0, # of connection points: 4
#     Edge 16, Type (0, 0), BuildingBlock: KIFKEQ_clean_linker_1, # of connection points: 2
#     Edge 17, Type (0, 0), BuildingBlock: KIFKEQ_clean_linker_1, # of connection points: 2
#     Edge 18, Type (0, 0), BuildingBlock: KIFKEQ_clean_linker_1, # of connection points: 2
#     Edge 19, Type (0, 0), BuildingBlock: KIFKEQ_clean_linker_1, # of connection points: 2
#     Edge 20, Type (0, 0), BuildingBlock: KIFKEQ_clean_linker_1, # of connection points: 2
#     Edge 21, Type (0, 0), BuildingBlock: KIFKEQ_clean_linker_1, # of connection points: 2
#     Edge 22, Type (0, 0), BuildingBlock: KIFKEQ_clean_linker_1, # of connection points: 2
#     Edge 23, Type (0, 0), BuildingBlock: KIFKEQ_clean_linker_1, # of connection points: 2
#     Edge 24, Type (0, 0), BuildingBlock: KIFKEQ_clean_linker_1, # of connection points: 2
#     Edge 25, Type (0, 0), BuildingBlock: KIFKEQ_clean_linker_1, # of connection points: 2
#     Edge 26, Type (0, 0), BuildingBlock: KIFKEQ_clean_linker_1, # of connection points: 2
#     Edge 27, Type (0, 0), BuildingBlock: KIFKEQ_clean_linker_1, # of connection points: 2
#     Edge 28, Type (0, 0), BuildingBlock: KIFKEQ_clean_linker_1, # of connection points: 2
#     Edge 29, Type (0, 0), BuildingBlock: KIFKEQ_clean_linker_1, # of connection points: 2
#     Edge 30, Type (0, 0), BuildingBlock: KIFKEQ_clean_linker_1, # of connection points: 2
#     Edge 31, Type (0, 0), BuildingBlock: KIFKEQ_clean_linker_1, # of connection points: 2
#     Edge 32, Type (0, 0), BuildingBlock: KIFKEQ_clean_linker_1, # of connection points: 2
#     Edge 33, Type (0, 0), BuildingBlock: KIFKEQ_clean_linker_1, # of connection points: 2
#     Edge 34, Type (0, 0), BuildingBlock: KIFKEQ_clean_linker_1, # of connection points: 2
#     Edge 35, Type (0, 0), BuildingBlock: KIFKEQ_clean_linker_1, # of connection points: 2
#     Edge 36, Type (0, 0), BuildingBlock: KIFKEQ_clean_linker_1, # of connection points: 2
#     Edge 37, Type (0, 0), BuildingBlock: KIFKEQ_clean_linker_1, # of connection points: 2
#     Edge 38, Type (0, 0), BuildingBlock: KIFKEQ_clean_linker_1, # of connection points: 2
#     Edge 39, Type (0, 0), BuildingBlock: KIFKEQ_clean_linker_1, # of connection points: 2
#     Edge 40, Type (0, 0), BuildingBlock: KIFKEQ_clean_linker_1, # of connection points: 2
#     Edge 41, Type (0, 0), BuildingBlock: KIFKEQ_clean_linker_1, # of connection points: 2
#     Edge 42, Type (0, 0), BuildingBlock: KIFKEQ_clean_linker_1, # of connection points: 2
#     Edge 43, Type (0, 0), BuildingBlock: KIFKEQ_clean_linker_1, # of connection points: 2
#     Edge 44, Type (0, 0), BuildingBlock: KIFKEQ_clean_linker_1, # of connection points: 2
#     Edge 45, Type (0, 0), BuildingBlock: KIFKEQ_clean_linker_1, # of connection points: 2
#     Edge 46, Type (0, 0), BuildingBlock: KIFKEQ_clean_linker_1, # of connection points: 2
#     Edge 47, Type (0, 0), BuildingBlock: KIFKEQ_clean_linker_1, # of connection points: 2
# Relax obj value: 0.227
# Max RMSD: 0.210
# Mean RMSD: 0.172
data_MOF--net-gsi--node1-GALJAG_clean_sbu_0--edge1-KIFKEQ_clean_linker_1
_symmetry_space_group_name_H-M    P1
_symmetry_Int_Tables_number       1
_symmetry_cell_setting            triclinic
loop_
_symmetry_equiv_pos_as_xyz
'x, y, z'
_cell_length_a     41.349188
_cell_length_b     40.258839
_cell_length_c     45.579964
_cell_angle_alpha  90.006757
_cell_angle_beta   89.940234
_cell_angle_gamma 104.79712
loop_
_atom_site_label
_atom_site_type_symbol
_atom_site_fract_x
_atom_site_fract_y
_atom_site_fract_z
_atom_type_partial_charge
In0 In 0.13663 0.1454 0.1359 0.0
O1 O 0.18235 0.14653 0.10815 0.0
O2 O 0.13498 0.12992 0.08719 0.0
C3 C 0.1776 0.18251 0.17659 0.0
C4 C 0.092 0.18223 0.12264 0.0
C5 C 0.12169 0.08412 0.16456 0.0
O6 O 0.1868 0.18007 0.15044 0.0
O7 O 0.14764 0.16701 0.18192 0.0
O8 O 0.10795 0.10779 0.17077 0.0
O9 O 0.14081 0.09039 0.14266 0.0
C10 C 0.16643 0.13549 0.08505 0.0
O11 O 0.08411 0.14975 0.1227 0.0
O12 O 0.12231 0.19579 0.12835 0.0
In13 In 0.86903 0.35129 0.13273 0.0
O14 O 0.9241 0.35105 0.12404 0.0
O15 O 0.88758 0.30334 0.12681 0.0
C16 C 0.87142 0.40967 0.16296 0.0
C17 C 0.84583 0.35957 0.07848 0.0
C18 C 0.82938 0.31299 0.17352 0.0
O19 O 0.89674 0.3976 0.16082 0.0
O20 O 0.84632 0.39345 0.14864 0.0
O21 O 0.81891 0.31808 0.14831 0.0
O22 O 0.8601 0.32636 0.17781 0.0
C23 C 0.91795 0.31861 0.12332 0.0
O24 O 0.83377 0.33379 0.09443 0.0
O25 O 0.87064 0.38101 0.08944 0.0
In26 In 0.17525 0.86116 0.3446 0.0
O27 O 0.13349 0.81309 0.33868 0.0
O28 O 0.12358 0.8522 0.36606 0.0
C29 C 0.21265 0.82517 0.31658 0.0
C30 C 0.16037 0.9085 0.30825 0.0
C31 C 0.20912 0.87428 0.396 0.0
O32 O 0.18933 0.81179 0.33402 0.0
O33 O 0.21793 0.8573 0.31363 0.0
O34 O 0.21981 0.89085 0.37292 0.0
O35 O 0.18125 0.85286 0.39317 0.0
C36 C 0.11296 0.82256 0.35509 0.0
O37 O 0.16919 0.91556 0.33455 0.0
O38 O 0.15961 0.87827 0.30065 0.0
In39 In 0.82377 0.62878 0.35019 0.0
O40 O 0.85831 0.67941 0.36437 0.0
O41 O 0.87749 0.63518 0.36595 0.0
C42 C 0.79721 0.66937 0.31569 0.0
C43 C 0.83752 0.58106 0.31354 0.0
C44 C 0.78404 0.61065 0.39813 0.0
O45 O 0.81981 0.68087 0.33426 0.0
O46 O 0.78771 0.63701 0.31433 0.0
O47 O 0.81478 0.61184 0.39827 0.0
O48 O 0.77308 0.61693 0.37357 0.0
C49 C 0.88297 0.66727 0.36958 0.0
O50 O 0.81622 0.57317 0.33393 0.0
O51 O 0.85166 0.61263 0.31183 0.0
In52 In 0.36903 0.85715 0.63302 0.0
O53 O 0.42366 0.85491 0.62714 0.0
O54 O 0.38527 0.81034 0.6168 0.0
C55 C 0.38466 0.91564 0.66553 0.0
C56 C 0.33924 0.86503 0.58169 0.0
C57 C 0.3252 0.81897 0.67134 0.0
O58 O 0.39024 0.88789 0.67403 0.0
O59 O 0.37365 0.9147 0.6397 0.0
O60 O 0.31743 0.8401 0.65405 0.0
O61 O 0.35479 0.81632 0.6687 0.0
C62 C 0.41624 0.82391 0.61886 0.0
O63 O 0.32415 0.84762 0.60288 0.0
O64 O 0.3701 0.87815 0.5859 0.0
In65 In 0.86378 0.8463 0.87529 0.0
O66 O 0.89059 0.89571 0.85074 0.0
O67 O 0.83741 0.87966 0.84971 0.0
C68 C 0.91549 0.81858 0.8877 0.0
C69 C 0.84041 0.86083 0.92799 0.0
C70 C 0.82804 0.80155 0.83625 0.0
O71 O 0.91997 0.84813 0.87649 0.0
O72 O 0.88541 0.80389 0.89329 0.0
O73 O 0.81563 0.80893 0.85995 0.0
O74 O 0.85872 0.81584 0.83281 0.0
C75 C 0.86361 0.90101 0.84113 0.0
O76 O 0.83135 0.83171 0.91604 0.0
O77 O 0.86193 0.88275 0.91371 0.0
In78 In 0.14369 0.65769 0.87671 0.0
O79 O 0.18331 0.66863 0.91229 0.0
O80 O 0.14102 0.6267 0.91952 0.0
C81 C 0.178 0.70088 0.83588 0.0
C82 C 0.14253 0.60087 0.84462 0.0
C83 C 0.09402 0.68826 0.88937 0.0
O84 O 0.18978 0.69784 0.86099 0.0
O85 O 0.14855 0.68295 0.83176 0.0
O86 O 0.08818 0.65749 0.88065 0.0
O87 O 0.1246 0.7029 0.8926 0.0
C88 C 0.16901 0.64415 0.92879 0.0
O89 O 0.11595 0.60908 0.85154 0.0
O90 O 0.16886 0.62034 0.85493 0.0
In91 In 0.83241 0.13157 0.6579 0.0
O92 O 0.86486 0.17982 0.63703 0.0
O93 O 0.88788 0.13964 0.64748 0.0
C94 C 0.80549 0.17302 0.69143 0.0
C95 C 0.79505 0.11443 0.60868 0.0
C96 C 0.84276 0.08133 0.69369 0.0
O97 O 0.83527 0.18138 0.68247 0.0
O98 O 0.78902 0.14349 0.68361 0.0
O99 O 0.82849 0.07479 0.66912 0.0
O100 O 0.85163 0.11278 0.69994 0.0
C101 C 0.89127 0.16956 0.63731 0.0
O102 O 0.82653 0.12134 0.60868 0.0
O103 O 0.78214 0.11435 0.63375 0.0
In104 In 0.17242 0.37124 0.66014 0.0
O105 O 0.18589 0.39243 0.61369 0.0
O106 O 0.22277 0.37589 0.6377 0.0
C107 C 0.16203 0.42197 0.69525 0.0
C108 C 0.11488 0.33482 0.63588 0.0
C109 C 0.19361 0.32986 0.69803 0.0
O110 O 0.18241 0.428 0.67406 0.0
O111 O 0.14694 0.39081 0.69831 0.0
O112 O 0.16674 0.32035 0.68379 0.0
O113 O 0.20996 0.36041 0.69324 0.0
C114 C 0.21484 0.38753 0.61387 0.0
O115 O 0.14097 0.3241 0.63685 0.0
O116 O 0.1181 0.36457 0.6463 0.0
In117 In 0.63877 0.14952 0.37433 0.0
O118 O 0.60891 0.10991 0.34164 0.0
O119 O 0.64929 0.09789 0.36411 0.0
C120 C 0.59095 0.18192 0.38838 0.0
C121 C 0.66752 0.13636 0.42469 0.0
C122 C 0.67678 0.19025 0.33359 0.0
O123 O 0.58418 0.15011 0.38291 0.0
O124 O 0.62168 0.19695 0.38749 0.0
O125 O 0.68383 0.19315 0.36056 0.0
O126 O 0.65042 0.16771 0.32756 0.0
C127 C 0.62709 0.08928 0.34469 0.0
O128 O 0.68388 0.14722 0.40174 0.0
O129 O 0.63627 0.13242 0.4226 0.0
In130 In 0.63375 0.65051 0.63442 0.0
O131 O 0.57865 0.65224 0.63088 0.0
O132 O 0.61604 0.69573 0.61656 0.0
C133 C 0.61934 0.59444 0.66973 0.0
C134 C 0.66084 0.63949 0.58253 0.0
C135 C 0.68006 0.68863 0.67069 0.0
O136 O 0.61536 0.62314 0.67754 0.0
O137 O 0.628 0.59322 0.64331 0.0
O138 O 0.68577 0.66514 0.65478 0.0
O139 O 0.65145 0.69377 0.66745 0.0
C140 C 0.58531 0.68238 0.6206 0.0
O141 O 0.67543 0.66212 0.60059 0.0
O142 O 0.63189 0.62272 0.59025 0.0
In143 In 0.68116 0.37351 0.84684 0.0
O144 O 0.64585 0.32037 0.8528 0.0
O145 O 0.62583 0.36359 0.85847 0.0
C146 C 0.709 0.33403 0.81236 0.0
C147 C 0.67357 0.42802 0.81486 0.0
C148 C 0.71591 0.38775 0.89781 0.0
O149 O 0.68024 0.33826 0.80767 0.0
O150 O 0.72396 0.35012 0.83426 0.0
O151 O 0.72751 0.40115 0.87375 0.0
O152 O 0.68666 0.36872 0.89621 0.0
C153 C 0.62053 0.3313 0.85837 0.0
O154 O 0.65985 0.42028 0.83948 0.0
O155 O 0.69248 0.40953 0.80718 0.0
In156 In 0.32654 0.13479 0.8478 0.0
O157 O 0.36602 0.18488 0.84248 0.0
O158 O 0.37997 0.14477 0.86558 0.0
C159 C 0.28797 0.17133 0.82234 0.0
C160 C 0.34048 0.08777 0.81049 0.0
C161 C 0.29411 0.11804 0.89957 0.0
O162 O 0.30837 0.18301 0.84263 0.0
O163 O 0.28635 0.14065 0.81514 0.0
O164 O 0.28073 0.1072 0.87534 0.0
O165 O 0.32406 0.13532 0.8976 0.0
C166 C 0.3886 0.17521 0.85597 0.0
O167 O 0.32928 0.07972 0.83605 0.0
O168 O 0.34392 0.11886 0.804 0.0
In169 In 0.36548 0.34565 0.37826 0.0
O170 O 0.32231 0.33829 0.41034 0.0
O171 O 0.36877 0.37133 0.42361 0.0
C172 C 0.32994 0.30412 0.33684 0.0
C173 C 0.37043 0.40471 0.34824 0.0
C174 C 0.41505 0.31519 0.39159 0.0
O175 O 0.32135 0.30195 0.36348 0.0
O176 O 0.35673 0.32639 0.33141 0.0
O177 O 0.4209 0.3465 0.38448 0.0
O178 O 0.38445 0.29981 0.39276 0.0
C179 C 0.33838 0.35804 0.42979 0.0
O180 O 0.39358 0.38941 0.34821 0.0
O181 O 0.34598 0.39126 0.36457 0.0
In182 In 0.33252 0.625 0.15761 0.0
O183 O 0.36802 0.67146 0.1366 0.0
O184 O 0.38835 0.63076 0.15101 0.0
C185 C 0.30772 0.67034 0.18806 0.0
C186 C 0.29344 0.6062 0.10944 0.0
C187 C 0.33951 0.57654 0.19686 0.0
O188 O 0.3378 0.67677 0.17984 0.0
O189 O 0.29001 0.64111 0.18068 0.0
O190 O 0.33621 0.57024 0.16972 0.0
O191 O 0.33876 0.60654 0.2038 0.0
C192 C 0.39368 0.66023 0.13953 0.0
O193 O 0.32489 0.61277 0.10864 0.0
O194 O 0.28157 0.60721 0.13477 0.0
In195 In 0.67706 0.87189 0.15918 0.0
O196 O 0.68933 0.89217 0.11198 0.0
O197 O 0.72779 0.88011 0.13713 0.0
C198 C 0.66599 0.92631 0.18917 0.0
C199 C 0.61815 0.8266 0.14764 0.0
C200 C 0.70339 0.82995 0.19219 0.0
O201 O 0.69469 0.92134 0.1862 0.0
O202 O 0.64327 0.905 0.17574 0.0
O203 O 0.6948 0.8235 0.16582 0.0
O204 O 0.69889 0.85781 0.20197 0.0
C205 C 0.71915 0.88972 0.11278 0.0
O206 O 0.63247 0.82904 0.17221 0.0
O207 O 0.63327 0.84764 0.1285 0.0
H208 H 0.16107 0.19969 0.23129 0.0
H209 H 0.24548 0.20569 0.17383 0.0
H210 H 0.19869 0.22808 0.26994 0.0
H211 H 0.28337 0.23274 0.21287 0.0
H212 H 0.33775 0.31396 0.27805 0.0
H213 H 0.30116 0.28465 0.23923 0.0
H214 H 0.23915 0.21922 0.3038 0.0
H215 H 0.27516 0.24976 0.34279 0.0
C216 C 0.18773 0.20699 0.227 0.0
C217 C 0.20039 0.20066 0.19957 0.0
C218 C 0.20934 0.22295 0.24924 0.0
C219 C 0.24413 0.23254 0.24463 0.0
C220 C 0.25672 0.22617 0.21708 0.0
C221 C 0.23504 0.21058 0.19472 0.0
C222 C 0.31642 0.29314 0.28392 0.0
C223 C 0.30921 0.28416 0.31342 0.0
C224 C 0.2955 0.2762 0.26164 0.0
C225 C 0.26709 0.2496 0.26833 0.0
C226 C 0.26044 0.24003 0.29788 0.0
C227 C 0.28119 0.25728 0.32021 0.0
H228 H 0.8469 0.29356 0.22729 0.0
H229 H 0.76142 0.29158 0.1723 0.0
H230 H 0.80971 0.26477 0.26628 0.0
H231 H 0.72417 0.264 0.21153 0.0
H232 H 0.66967 0.18117 0.27476 0.0
H233 H 0.70674 0.21059 0.23629 0.0
H234 H 0.7696 0.27377 0.30151 0.0
H235 H 0.73288 0.24322 0.34025 0.0
C236 C 0.82014 0.287 0.22359 0.0
C237 C 0.80702 0.29458 0.19673 0.0
C238 C 0.79881 0.27082 0.24601 0.0
C239 C 0.76392 0.26213 0.24209 0.0
C240 C 0.75091 0.26982 0.21516 0.0
C241 C 0.77224 0.28572 0.19268 0.0
C242 C 0.69131 0.20148 0.2809 0.0
C243 C 0.69841 0.20994 0.31049 0.0
C244 C 0.7125 0.21848 0.25881 0.0
C245 C 0.74117 0.24459 0.26576 0.0
C246 C 0.748 0.25342 0.29541 0.0
C247 C 0.72687 0.23616 0.31759 0.0
H248 H 0.34202 0.7331 0.20862 0.0
H249 H 0.24406 0.66209 0.20799 0.0
H250 H 0.32106 0.77171 0.24054 0.0
H251 H 0.22298 0.70089 0.23937 0.0
H252 H 0.20576 0.75654 0.32141 0.0
H253 H 0.23002 0.72024 0.2902 0.0
H254 H 0.28249 0.80943 0.24085 0.0
H255 H 0.25853 0.84604 0.2726 0.0
C256 C 0.31596 0.7259 0.21512 0.0
C257 C 0.29468 0.69454 0.20597 0.0
C258 C 0.30395 0.74805 0.23328 0.0
C259 C 0.27046 0.7392 0.24265 0.0
C260 C 0.24907 0.70813 0.23296 0.0
C261 C 0.26107 0.68601 0.21483 0.0
C262 C 0.22272 0.76849 0.30408 0.0
C263 C 0.23014 0.8041 0.29933 0.0
C264 C 0.2364 0.74764 0.28605 0.0
C265 C 0.25777 0.76191 0.2628 0.0
C266 C 0.26618 0.79772 0.25866 0.0
C267 C 0.25245 0.81866 0.27678 0.0
H268 H 0.74613 0.65158 0.27598 0.0
H269 H 0.81662 0.73907 0.31398 0.0
H270 H 0.72265 0.69028 0.24628 0.0
H271 H 0.79378 0.77757 0.28396 0.0
H272 H 0.72167 0.83713 0.24978 0.0
H273 H 0.74339 0.79752 0.27976 0.0
H274 H 0.73781 0.73004 0.20514 0.0
H275 H 0.71542 0.7693 0.17537 0.0
C276 C 0.75667 0.67904 0.27787 0.0
C277 C 0.78312 0.69233 0.2973 0.0
C278 C 0.74337 0.70118 0.26079 0.0
C279 C 0.75631 0.737 0.26284 0.0
C280 C 0.78289 0.75016 0.28222 0.0
C281 C 0.79611 0.72808 0.29928 0.0
C282 C 0.7251 0.81383 0.23982 0.0
C283 C 0.71694 0.80631 0.21026 0.0
C284 C 0.73766 0.79122 0.25693 0.0
C285 C 0.74236 0.76066 0.2448 0.0
C286 C 0.73408 0.75314 0.21522 0.0
C287 C 0.72149 0.77574 0.19813 0.0
H288 H 0.26084 0.82141 0.68145 0.0
H289 H 0.33813 0.77594 0.71329 0.0
H290 H 0.22443 0.7947 0.72173 0.0
H291 H 0.30159 0.74888 0.75329 0.0
H292 H 0.24299 0.73811 0.8386 0.0
H293 H 0.27786 0.76709 0.79828 0.0
H294 H 0.19361 0.7375 0.73935 0.0
H295 H 0.15861 0.70895 0.77976 0.0
C296 C 0.2699 0.80544 0.6969 0.0
C297 C 0.3023 0.80075 0.69428 0.0
C298 C 0.24905 0.79012 0.71991 0.0
C299 C 0.26027 0.76994 0.74078 0.0
C300 C 0.29247 0.76478 0.73782 0.0
C301 C 0.31327 0.78001 0.71478 0.0
C302 C 0.23185 0.73814 0.81711 0.0
C303 C 0.19814 0.72123 0.81228 0.0
C304 C 0.25186 0.75447 0.79398 0.0
C305 C 0.23853 0.75425 0.76561 0.0
C306 C 0.20452 0.73827 0.76101 0.0
C307 C 0.18452 0.72187 0.78413 0.0
H308 H 0.67164 0.73753 0.70912 0.0
H309 H 0.74132 0.67888 0.68388 0.0
H310 H 0.70827 0.76292 0.74951 0.0
H311 H 0.77775 0.70387 0.72463 0.0
H312 H 0.84875 0.78606 0.78234 0.0
H313 H 0.81382 0.75878 0.74151 0.0
H314 H 0.72612 0.74394 0.79653 0.0
H315 H 0.76098 0.77177 0.8372 0.0
C316 C 0.69489 0.73024 0.71211 0.0
C317 C 0.70365 0.70625 0.69338 0.0
C318 C 0.7157 0.7445 0.7354 0.0
C319 C 0.74569 0.73508 0.74044 0.0
C320 C 0.75487 0.71175 0.72121 0.0
C321 C 0.73402 0.69744 0.69791 0.0
C322 C 0.82206 0.77659 0.7858 0.0
C323 C 0.80754 0.78116 0.81289 0.0
C324 C 0.80207 0.76092 0.76244 0.0
C325 C 0.7672 0.74958 0.76573 0.0
C326 C 0.75286 0.75303 0.79318 0.0
C327 C 0.77284 0.76867 0.81654 0.0
H328 H 0.76987 0.32029 0.81868 0.0
H329 H 0.68053 0.29557 0.76544 0.0
H330 H 0.79293 0.28074 0.78976 0.0
H331 H 0.70381 0.25643 0.73622 0.0
H332 H 0.74149 0.16199 0.71196 0.0
H333 H 0.71816 0.20106 0.74139 0.0
H334 H 0.81399 0.27583 0.74018 0.0
H335 H 0.83736 0.23667 0.71124 0.0
C336 C 0.75527 0.30656 0.80068 0.0
C337 C 0.72344 0.31102 0.79428 0.0
C338 C 0.76851 0.28402 0.78406 0.0
C339 C 0.75016 0.26545 0.76073 0.0
C340 C 0.71836 0.27004 0.75429 0.0
C341 C 0.70514 0.29263 0.77088 0.0
C342 C 0.75753 0.18675 0.71806 0.0
C343 C 0.79122 0.19629 0.70936 0.0
C344 C 0.74415 0.20918 0.73474 0.0
C345 C 0.76425 0.24152 0.74309 0.0
C346 C 0.79798 0.25094 0.73441 0.0
C347 C 0.8113 0.22858 0.71771 0.0
H348 H 0.25205 0.34323 0.72878 0.0
H349 H 0.16134 0.26411 0.71257 0.0
H350 H 0.27213 0.30402 0.76049 0.0
H351 H 0.18105 0.22509 0.74483 0.0
H352 H 0.24867 0.15505 0.77363 0.0
H353 H 0.22392 0.19344 0.74491 0.0
H354 H 0.26133 0.2749 0.80741 0.0
H355 H 0.28666 0.2368 0.83568 0.0
C356 C 0.23629 0.31756 0.73222 0.0
C357 C 0.20521 0.30667 0.71816 0.0
C358 C 0.24767 0.29515 0.75053 0.0
C359 C 0.22815 0.26143 0.7552 0.0
C360 C 0.19684 0.25074 0.74139 0.0
C361 C 0.1855 0.27314 0.72305 0.0
C362 C 0.25124 0.18104 0.78137 0.0
C363 C 0.26975 0.19302 0.80675 0.0
C364 C 0.23699 0.203 0.76499 0.0
C365 C 0.24093 0.23731 0.77376 0.0
C366 C 0.25839 0.24881 0.79979 0.0
C367 C 0.27268 0.22691 0.81608 0.0
H368 H 0.14058 0.89676 0.25155 0.0
H369 H 0.15946 0.9756 0.31821 0.0
H370 H 0.12631 0.93655 0.21676 0.0
H371 H 0.14567 0.01588 0.28304 0.0
H372 H 0.09308 0.07182 0.21899 0.0
H373 H 0.09948 0.02809 0.25423 0.0
H374 H 0.15578 0.98714 0.18996 0.0
H375 H 0.14897 0.03034 0.15481 0.0
C376 C 0.14172 0.92266 0.25879 0.0
C377 C 0.15136 0.93311 0.28761 0.0
C378 C 0.13362 0.94552 0.23878 0.0
C379 C 0.13495 0.97946 0.24703 0.0
C380 C 0.14403 0.9898 0.27605 0.0
C381 C 0.1522 0.96684 0.29614 0.0
C382 C 0.10619 0.05299 0.21224 0.0
C383 C 0.12046 0.05447 0.1841 0.0
C384 C 0.1102 0.02821 0.23253 0.0
C385 C 0.12838 0.00429 0.22502 0.0
C386 C 0.14137 0.00494 0.19643 0.0
C387 C 0.13749 0.02974 0.17624 0.0
H388 H 0.92105 0.45 0.19716 0.0
H389 H 0.81632 0.43194 0.17537 0.0
H390 H 0.91455 0.49184 0.23452 0.0
H391 H 0.80991 0.47309 0.21258 0.0
H392 H 0.8024 0.51437 0.30527 0.0
H393 H 0.81268 0.47401 0.26847 0.0
H394 H 0.89944 0.55037 0.2378 0.0
H395 H 0.88906 0.59087 0.27443 0.0
C396 C 0.89682 0.45522 0.20011 0.0
C397 C 0.86922 0.43767 0.18333 0.0
C398 C 0.89309 0.47907 0.22148 0.0
C399 C 0.86161 0.48533 0.22669 0.0
C400 C 0.83432 0.46837 0.20939 0.0
C401 C 0.83812 0.445 0.18789 0.0
C402 C 0.82377 0.52245 0.29081 0.0
C403 C 0.8448 0.55581 0.29262 0.0
C404 C 0.82957 0.49943 0.26967 0.0
C405 C 0.85677 0.50916 0.25018 0.0
C406 C 0.87841 0.54215 0.25261 0.0
C407 C 0.87234 0.56533 0.27348 0.0
H408 H 0.31642 0.14806 0.95153 0.0
H409 H 0.22927 0.08205 0.91064 0.0
H410 H 0.28462 0.14981 0.99586 0.0
H411 H 0.1974 0.0824 0.95588 0.0
H412 H 0.14198 0.12654 0.02882 0.0
H413 H 0.17237 0.11865 0.98434 0.0
H414 H 0.25969 0.11948 0.03677 0.0
H415 H 0.22993 0.1291 0.08057 0.0
C416 C 0.29057 0.13323 0.95226 0.0
C417 C 0.27539 0.11487 0.92757 0.0
C418 C 0.27226 0.13408 0.97784 0.0
C419 C 0.2383 0.11619 0.97968 0.0
C420 C 0.22333 0.09692 0.95519 0.0
C421 C 0.24167 0.09639 0.92936 0.0
C422 C 0.16767 0.125 0.03069 0.0
C423 C 0.18373 0.12891 0.05808 0.0
C424 C 0.18506 0.1202 0.00525 0.0
C425 C 0.21872 0.11872 0.00678 0.0
C426 C 0.23417 0.12138 0.03448 0.0
C427 C 0.21703 0.12673 0.0597 0.0
H428 H 0.79436 0.3153 0.05075 0.0
H429 H 0.86117 0.41669 0.04311 0.0
H430 H 0.76441 0.32575 0.0073 0.0
H431 H 0.8306 0.42748 0.99957 0.0
H432 H 0.7835 0.41456 0.90463 0.0
H433 H 0.81705 0.40953 0.94791 0.0
H434 H 0.72679 0.3612 0.99532 0.0
H435 H 0.69358 0.36558 0.95218 0.0
C436 C 0.80275 0.33982 0.03969 0.0
C437 C 0.83003 0.36523 0.05044 0.0
C438 C 0.78538 0.34594 0.01491 0.0
C439 C 0.79472 0.3777 1.00025 0.0
C440 C 0.82279 0.40276 0.01035 0.0
C441 C 0.84027 0.39659 0.03527 0.0
C442 C 0.77088 0.4034 0.92449 0.0
C443 C 0.73595 0.39018 0.92495 0.0
C444 C 0.79008 0.40051 0.94926 0.0
C445 C 0.77464 0.38435 0.97488 0.0
C446 C 0.73955 0.37297 0.97571 0.0
C447 C 0.72047 0.37575 0.95105 0.0
H448 H 0.2725 0.85562 0.57514 0.0
H449 H 0.3656 0.88658 0.52746 0.0
H450 H 0.24186 0.86238 0.53118 0.0
H451 H 0.33467 0.8917 0.48255 0.0
H452 H 0.26851 0.9205 0.41058 0.0
H453 H 0.30082 0.92166 0.45586 0.0
H454 H 0.22623 0.83301 0.48751 0.0
H455 H 0.19375 0.83299 0.44349 0.0
C456 C 0.28642 0.86362 0.55509 0.0
C457 C 0.32141 0.87018 0.55464 0.0
C458 C 0.26882 0.86734 0.52976 0.0
C459 C 0.28564 0.87702 0.50303 0.0
C460 C 0.32085 0.88443 0.50273 0.0
C461 C 0.33858 0.88126 0.52837 0.0
C462 C 0.25897 0.90163 0.42749 0.0
C463 C 0.22845 0.87688 0.42359 0.0
C464 C 0.27759 0.90207 0.45331 0.0
C465 C 0.26612 0.87757 0.47557 0.0
C466 C 0.23558 0.85288 0.47137 0.0
C467 C 0.21694 0.85272 0.44592 0.0
H468 H 0.63428 0.59446 0.53839 0.0
H469 H 0.72477 0.66831 0.56521 0.0
H470 H 0.66271 0.58212 0.49403 0.0
H471 H 0.75292 0.65617 0.52111 0.0
H472 H 0.80454 0.60562 0.45447 0.0
H473 H 0.77329 0.60897 0.49937 0.0
H474 H 0.68654 0.61219 0.44787 0.0
H475 H 0.71771 0.60854 0.40295 0.0
C476 C 0.66017 0.60808 0.53478 0.0
C477 C 0.67728 0.63239 0.55524 0.0
C478 C 0.67641 0.60105 0.5094 0.0
C479 C 0.71014 0.61795 0.5042 0.0
C480 C 0.72712 0.64225 0.52472 0.0
C481 C 0.71087 0.64945 0.54987 0.0
C482 C 0.77862 0.6064 0.45275 0.0
C483 C 0.76365 0.60705 0.42519 0.0
C484 C 0.7608 0.60858 0.47845 0.0
C485 C 0.72759 0.61131 0.47714 0.0
C486 C 0.71203 0.60999 0.44962 0.0
C487 C 0.72992 0.60798 0.42389 0.0
H488 H 0.91055 0.25034 0.13173 0.0
H489 H 0.98397 0.34334 0.10766 0.0
H490 H 0.95278 0.21832 0.12895 0.0
H491 H 0.02636 0.3109 0.10339 0.0
H492 H 0.10089 0.25047 0.13365 0.0
H493 H 0.05947 0.28375 0.13148 0.0
H494 H 0.98639 0.19454 0.09885 0.0
H495 H 0.02762 0.16088 0.10254 0.0
C496 C 0.93572 0.26388 0.1254 0.0
C497 C 0.94393 0.29942 0.11999 0.0
C498 C 0.96 0.2454 0.12354 0.0
C499 C 0.9932 0.26179 0.1158 0.0
C500 C 1.00126 0.29737 0.10985 0.0
C501 C 0.97694 0.316 0.11211 0.0
C502 C 0.07602 0.23804 0.12581 0.0
C503 C 0.06745 0.20297 0.11845 0.0
C504 C 0.05223 0.25723 0.12437 0.0
C505 C 0.0193 0.24198 0.11516 0.0
C506 C 0.01119 0.20711 0.10672 0.0
C507 C 0.03489 0.18779 0.10858 0.0
H508 H 0.90064 0.73698 0.37408 0.0
H509 H 0.94107 0.64818 0.37809 0.0
H510 H 0.95701 0.77457 0.37495 0.0
H511 H 0.9976 0.68586 0.37975 0.0
H512 H 0.08623 0.75896 0.33295 0.0
H513 H 0.03126 0.72125 0.34236 0.0
H514 H 0.00924 0.79663 0.40139 0.0
H515 H 0.06445 0.83495 0.3914 0.0
C516 C 0.92158 0.72551 0.37586 0.0
C517 C 0.91652 0.68964 0.37562 0.0
C518 C 0.9539 0.74708 0.37651 0.0
C519 C 0.9818 0.73319 0.377 0.0
C520 C 0.9766 0.69731 0.37876 0.0
C521 C 0.94425 0.67573 0.37803 0.0
C522 C 0.06973 0.76751 0.34801 0.0
C523 C 0.07954 0.79997 0.36133 0.0
C524 C 0.03832 0.74571 0.35366 0.0
C525 C 0.01596 0.75579 0.37284 0.0
C526 C 0.02586 0.78821 0.38639 0.0
C527 C 0.05742 0.81012 0.38069 0.0
H528 H 0.51845 0.66238 0.6335 0.0
H529 H 0.59456 0.74654 0.59737 0.0
H530 H 0.47781 0.69682 0.6301 0.0
H531 H 0.55385 0.7807 0.59327 0.0
H532 H 0.48385 0.84497 0.62773 0.0
H533 H 0.5242 0.81015 0.62529 0.0
H534 H 0.44584 0.72283 0.5973 0.0
H535 H 0.40543 0.75748 0.60045 0.0
C536 C 0.52636 0.68804 0.6244 0.0
C537 C 0.55974 0.70177 0.61582 0.0
C538 C 0.50304 0.70779 0.62233 0.0
C539 C 0.51254 0.7417 0.61155 0.0
C540 C 0.54575 0.75495 0.60215 0.0
C541 C 0.56905 0.73526 0.60429 0.0
C542 C 0.47534 0.81845 0.62075 0.0
C543 C 0.44144 0.80397 0.61438 0.0
C544 C 0.49849 0.79847 0.61923 0.0
C545 C 0.4883 0.76354 0.61123 0.0
C546 C 0.45451 0.74943 0.60401 0.0
C547 C 0.43138 0.76938 0.6056 0.0
H548 H 0.81813 0.0116 0.68955 0.0
H549 H 0.87966 0.09086 0.7439 0.0
H550 H 0.825 0.96808 0.72481 0.0
H551 H 0.88649 0.04743 0.77907 0.0
H552 H 0.91516 0.95361 0.82102 0.0
H553 H 0.91198 0.99705 0.78413 0.0
H554 H 0.8056 0.95296 0.77624 0.0
H555 H 0.8087 0.90991 0.81284 0.0
C556 C 0.83327 0.01968 0.70891 0.0
C557 C 0.8482 0.05462 0.71403 0.0
C558 C 0.8371 0.99482 0.72915 0.0
C559 C 0.8562 0.00437 0.75477 0.0
C560 C 0.87186 0.03925 0.75945 0.0
C561 C 0.86776 0.06411 0.73938 0.0
C562 C 0.89114 0.95338 0.81146 0.0
C563 C 0.8622 0.92842 0.81989 0.0
C564 C 0.8893 0.97821 0.79039 0.0
C565 C 0.85856 0.97822 0.77713 0.0
C566 C 0.82971 0.95331 0.78571 0.0
C567 C 0.83147 0.92883 0.8069 0.0
H568 H 0.09004 0.55549 0.81756 0.0
H569 H 0.19781 0.58353 0.82436 0.0
H570 H 0.09327 0.51255 0.78027 0.0
H571 H 0.20098 0.54083 0.78745 0.0
H572 H 0.19694 0.48951 0.698 0.0
H573 H 0.19064 0.53237 0.73411 0.0
H574 H 0.10977 0.45733 0.77524 0.0
H575 H 0.11591 0.41462 0.7391 0.0
C576 C 0.11434 0.55226 0.81131 0.0
C577 C 0.14364 0.57287 0.8239 0.0
C578 C 0.11621 0.52772 0.78998 0.0
C579 C 0.14742 0.52357 0.7807 0.0
C580 C 0.1766 0.54382 0.79372 0.0
C581 C 0.17474 0.56808 0.8151 0.0
C582 C 0.17767 0.48229 0.71462 0.0
C583 C 0.15703 0.4487 0.71579 0.0
C584 C 0.17418 0.50673 0.7354 0.0
C585 C 0.14983 0.49816 0.75765 0.0
C586 C 0.12859 0.46481 0.75828 0.0
C587 C 0.13224 0.44032 0.73765 0.0
H588 H 0.70935 0.91419 0.05809 0.0
H589 H 0.77765 0.87128 0.10815 0.0
H590 H 0.74196 0.91121 0.01347 0.0
H591 H 0.80936 0.8676 0.06366 0.0
H592 H 0.81067 0.81554 0.97007 0.0
H593 H 0.78427 0.82762 0.01548 0.0
H594 H 0.80929 0.93551 0.99391 0.0
H595 H 0.83676 0.92361 0.94864 0.0
C596 C 0.73155 0.90469 0.05965 0.0
C597 C 0.74087 0.89287 0.08658 0.0
C598 C 0.75017 0.90305 0.0342 0.0
C599 C 0.77795 0.88899 0.03527 0.0
C600 C 0.78795 0.87841 0.06234 0.0
C601 C 0.76981 0.88065 0.08777 0.0
C602 C 0.8108 0.84187 0.97512 0.0
C603 C 0.82586 0.86866 0.95595 0.0
C604 C 0.79576 0.84876 1.00107 0.0
C605 C 0.79481 0.88246 0.00805 0.0
C606 C 0.80971 0.90933 0.98889 0.0
C607 C 0.82552 0.90253 0.96318 0.0
H608 H 0.23091 0.67561 0.94916 0.0
H609 H 0.14375 0.59352 0.96925 0.0
H610 H 0.25916 0.66095 0.99214 0.0
H611 H 0.17234 0.57864 0.01258 0.0
H612 H 0.22585 0.59822 0.10548 0.0
H613 H 0.19399 0.60398 0.06143 0.0
H614 H 0.28278 0.61367 0.00875 0.0
H615 H 0.31464 0.60827 0.05268 0.0
C616 C 0.21774 0.65441 0.96281 0.0
C617 C 0.18509 0.63572 0.95581 0.0
C618 C 0.23407 0.64581 0.98731 0.0
C619 C 0.21816 0.61835 0.00557 0.0
C620 C 0.18523 0.59994 0.99892 0.0
C621 C 0.1689 0.60844 0.97415 0.0
C622 C 0.23837 0.60087 0.0844 0.0
C623 C 0.27282 0.60312 0.08257 0.0
C624 C 0.22011 0.60412 0.05918 0.0
C625 C 0.23601 0.60984 0.03169 0.0
C626 C 0.26998 0.60996 0.0297 0.0
C627 C 0.28818 0.60661 0.05485 0.0
H628 H 0.7263 0.11859 0.42821 0.0
H629 H 0.64593 0.13595 0.48151 0.0
H630 H 0.75518 0.10718 0.47194 0.0
H631 H 0.67583 0.12695 0.52577 0.0
H632 H 0.72729 0.09008 0.60178 0.0
H633 H 0.69489 0.09054 0.55706 0.0
H634 H 0.7865 0.13551 0.50988 0.0
H635 H 0.81849 0.13287 0.55388 0.0
C636 C 0.71497 0.12024 0.44943 0.0
C637 C 0.68404 0.12841 0.45153 0.0
C638 C 0.73164 0.11394 0.47461 0.0
C639 C 0.71828 0.11661 0.50269 0.0
C640 C 0.68686 0.12416 0.50467 0.0
C641 C 0.66976 0.12962 0.47932 0.0
C642 C 0.74038 0.09943 0.58162 0.0
C643 C 0.7754 0.11128 0.58127 0.0
C644 C 0.72182 0.10009 0.55602 0.0
C645 C 0.73786 0.11324 0.52962 0.0
C646 C 0.77305 0.12447 0.5294 0.0
C647 C 0.79154 0.12315 0.55477 0.0
H648 H 0.27831 0.37961 0.60979 0.0
H649 H 0.19915 0.40216 0.55796 0.0
H650 H 0.30996 0.37625 0.56511 0.0
H651 H 0.23093 0.39904 0.51329 0.0
H652 H 0.27236 0.33756 0.44366 0.0
H653 H 0.24476 0.35003 0.48795 0.0
H654 H 0.33968 0.40864 0.52192 0.0
H655 H 0.36754 0.39598 0.47731 0.0
C656 C 0.26796 0.38449 0.58888 0.0
C657 C 0.23613 0.3909 0.58736 0.0
C658 C 0.28616 0.38268 0.5633 0.0
C659 C 0.27279 0.387 0.53565 0.0
C660 C 0.24167 0.39507 0.53426 0.0
C661 C 0.22357 0.3971 0.55985 0.0
C662 C 0.2874 0.35315 0.46053 0.0
C663 C 0.32215 0.36571 0.45703 0.0
C664 C 0.27151 0.36056 0.48582 0.0
C665 C 0.28998 0.38056 0.50836 0.0
C666 C 0.3248 0.39307 0.50496 0.0
C667 C 0.34073 0.38587 0.47944 0.0
H668 H 0.02669 0.664 0.88022 0.0
H669 H 0.10178 0.75472 0.90665 0.0
H670 H 0.98416 0.69631 0.88225 0.0
H671 H 0.05923 0.78688 0.90921 0.0
H672 H 0.98171 0.84165 0.87278 0.0
H673 H 0.02482 0.81004 0.87572 0.0
H674 H 0.95349 0.72424 0.91527 0.0
H675 H 0.9104 0.75555 0.91181 0.0
C676 C 0.03402 0.6907 0.88686 0.0
C677 C 0.06759 0.70679 0.89322 0.0
C678 C 0.00964 0.70924 0.88813 0.0
C679 C 0.01827 0.7443 0.89579 0.0
C680 C 0.05177 0.7601 0.90282 0.0
C681 C 0.07612 0.74157 0.90156 0.0
C682 C 0.97537 0.81619 0.88236 0.0
C683 C 0.94263 0.80108 0.89195 0.0
C684 C 1.00009 0.79808 0.88416 0.0
C685 C 0.99259 0.76445 0.89558 0.0
C686 C 0.96002 0.74981 0.90591 0.0
C687 C 0.93537 0.76789 0.90411 0.0
H688 H 0.10254 0.27111 0.61125 0.0
H689 H 0.05356 0.34775 0.64106 0.0
H690 H 0.0482 0.2305 0.60416 0.0
H691 H 0.99936 0.30698 0.63492 0.0
H692 H 0.90355 0.23255 0.61139 0.0
H693 H 0.95778 0.27295 0.60322 0.0
H694 H 0.00695 0.19836 0.63733 0.0
H695 H 0.95281 0.15771 0.64457 0.0
C696 C 0.08012 0.27942 0.61588 0.0
C697 C 0.08225 0.31247 0.62696 0.0
C698 C 0.04901 0.25609 0.61202 0.0
C699 C 0.01941 0.26528 0.61933 0.0
C700 C 0.02158 0.29907 0.62877 0.0
C701 C 0.05268 0.32245 0.63245 0.0
C702 C 0.92601 0.22462 0.61665 0.0
C703 C 0.924 0.19212 0.62886 0.0
C704 C 0.95707 0.24783 0.61212 0.0
C705 C 0.98674 0.23908 0.61989 0.0
C706 C 0.98467 0.20587 0.63076 0.0
C707 C 0.95362 0.18259 0.6351 0.0
H708 H 0.60011 0.24829 0.40644 0.0
H709 H 0.52331 0.15839 0.38131 0.0
H710 H 0.55815 0.28086 0.41124 0.0
H711 H 0.48141 0.19118 0.38496 0.0
H712 H 0.4082 0.25059 0.41313 0.0
H713 H 0.45071 0.21854 0.41631 0.0
H714 H 0.52415 0.30605 0.38139 0.0
H715 H 0.48178 0.33844 0.37935 0.0
C716 C 0.5742 0.23545 0.40201 0.0
C717 C 0.56501 0.20078 0.39345 0.0
C718 C 0.55013 0.25421 0.40454 0.0
C719 C 0.51629 0.23885 0.39829 0.0
C720 C 0.50708 0.20385 0.39037 0.0
C721 C 0.53113 0.18502 0.38812 0.0
C722 C 0.43354 0.2631 0.40648 0.0
C723 C 0.44164 0.29702 0.39593 0.0
C724 C 0.4579 0.24461 0.40807 0.0
C725 C 0.49093 0.25946 0.39886 0.0
C726 C 0.49915 0.29381 0.38905 0.0
C727 C 0.47482 0.3124 0.38774 0.0
H728 H 0.62978 0.53127 0.65871 0.0
H729 H 0.61216 0.5962 0.72917 0.0
H730 H 0.64108 0.49061 0.69449 0.0
H731 H 0.62445 0.5562 0.76495 0.0
H732 H 0.62545 0.4629 0.82238 0.0
H733 H 0.60789 0.50064 0.78727 0.0
H734 H 0.68556 0.48906 0.72757 0.0
H735 H 0.70234 0.45061 0.76228 0.0
C736 C 0.62784 0.5366 0.68184 0.0
C737 C 0.62015 0.56697 0.6911 0.0
C738 C 0.63473 0.51353 0.70239 0.0
C739 C 0.63429 0.52039 0.73266 0.0
C740 C 0.62488 0.54993 0.74187 0.0
C741 C 0.61782 0.57291 0.72133 0.0
C742 C 0.63893 0.46871 0.80185 0.0
C743 C 0.66529 0.45382 0.79509 0.0
C744 C 0.62887 0.49033 0.7817 0.0
C745 C 0.64503 0.49765 0.75439 0.0
C746 C 0.67198 0.48338 0.74805 0.0
C747 C 0.6819 0.46165 0.76811 0.0
H748 H 0.33392 0.01865 0.8176 0.0
H749 H 0.36786 0.10203 0.75624 0.0
H750 H 0.34852 0.97896 0.78237 0.0
H751 H 0.38319 0.0628 0.72147 0.0
H752 H 0.36557 0.97442 0.65417 0.0
H753 H 0.35674 0.01655 0.68959 0.0
H754 H 0.39525 0.96381 0.75859 0.0
H755 H 0.40333 0.92116 0.72316 0.0
C756 C 0.34465 0.02851 0.79668 0.0
C757 C 0.34953 0.06339 0.78965 0.0
C758 C 0.35329 0.00586 0.77657 0.0
C759 C 0.36705 0.01767 0.74902 0.0
C760 C 0.37222 0.05268 0.74225 0.0
C761 C 0.36354 0.07522 0.76227 0.0
C762 C 0.37274 0.97219 0.67679 0.0
C763 C 0.38512 0.94444 0.68586 0.0
C764 C 0.36768 0.99637 0.69715 0.0
C765 C 0.37496 0.99343 0.72706 0.0
C766 C 0.38877 0.9665 0.73586 0.0
C767 C 0.39378 0.94228 0.71548 0.0
H768 H 0.44226 0.16109 0.88379 0.0
H769 H 0.41136 0.24066 0.83634 0.0
H770 H 0.49865 0.19896 0.8885 0.0
H771 H 0.46748 0.27798 0.84044 0.0
H772 H 0.56286 0.34873 0.87224 0.0
H773 H 0.50667 0.31067 0.87557 0.0
H774 H 0.54632 0.22348 0.85676 0.0
H775 H 0.60258 0.26145 0.85419 0.0
C776 C 0.44752 0.18665 0.87443 0.0
C777 C 0.42249 0.19793 0.85968 0.0
C778 C 0.47978 0.20826 0.87702 0.0
C779 C 0.48751 0.24152 0.86493 0.0
C780 C 0.46225 0.25278 0.85047 0.0
C781 C 0.43012 0.23126 0.84791 0.0
C782 C 0.55958 0.32139 0.86914 0.0
C783 C 0.587 0.30806 0.86275 0.0
C784 C 0.5274 0.29961 0.8709 0.0
C785 C 0.522 0.26409 0.86616 0.0
C786 C 0.54966 0.25066 0.8608 0.0
C787 C 0.58186 0.27244 0.85915 0.0
H788 H 0.33977 0.58382 0.25607 0.0
H789 H 0.35171 0.51335 0.1879 0.0
H790 H 0.34985 0.54423 0.29323 0.0
H791 H 0.36175 0.47341 0.22537 0.0
H792 H 0.41104 0.4275 0.30104 0.0
H793 H 0.40451 0.46951 0.2641 0.0
H794 H 0.32032 0.48686 0.31225 0.0
H795 H 0.32686 0.44513 0.34902 0.0
C796 C 0.34447 0.55978 0.24901 0.0
C797 C 0.34482 0.55163 0.21905 0.0
C798 C 0.35017 0.53707 0.27034 0.0
C799 C 0.35661 0.50572 0.26225 0.0
C800 C 0.35718 0.49757 0.23225 0.0
C801 C 0.35117 0.52025 0.21083 0.0
C802 C 0.3915 0.44073 0.30393 0.0
C803 C 0.36954 0.43314 0.32797 0.0
C804 C 0.38753 0.46446 0.28263 0.0
C805 C 0.36178 0.48134 0.28519 0.0
C806 C 0.34054 0.47449 0.30975 0.0
C807 C 0.34429 0.45057 0.33083 0.0
H808 H 0.59103 0.07377 0.29392 0.0
H809 H 0.66401 0.04228 0.34751 0.0
H810 H 0.59934 0.03488 0.25507 0.0
H811 H 0.67187 0.00308 0.30905 0.0
H812 H 0.71046 0.97236 0.22289 0.0
H813 H 0.69803 0.00993 0.26087 0.0
H814 H 0.59269 0.97487 0.24084 0.0
H815 H 0.60525 0.93771 0.20242 0.0
C816 C 0.60823 0.05794 0.29768 0.0
C817 C 0.62697 0.06118 0.32372 0.0
C818 C 0.61306 0.03572 0.2754 0.0
C819 C 0.63674 0.01634 0.27873 0.0
C820 C 0.65406 0.01827 0.30546 0.0
C821 C 0.64926 0.04045 0.32767 0.0
C822 C 0.6847 0.973 0.22634 0.0
C823 C 0.65885 0.95205 0.20969 0.0
C824 C 0.67751 0.99424 0.24833 0.0
C825 C 0.64428 0.99501 0.25423 0.0
C826 C 0.61853 0.97497 0.23683 0.0
C827 C 0.62574 0.95368 0.21481 0.0
H828 H 0.58735 0.77481 0.18382 0.0
H829 H 0.57755 0.81957 0.09919 0.0
H830 H 0.5346 0.73239 0.17631 0.0
H831 H 0.52427 0.77655 0.09154 0.0
H832 H 0.4111 0.72514 0.11699 0.0
H833 H 0.46712 0.76377 0.1144 0.0
H834 H 0.50895 0.68224 0.14532 0.0
H835 H 0.45291 0.64373 0.14828 0.0
C836 C 0.57397 0.77545 0.16348 0.0
C837 C 0.58647 0.80059 0.14213 0.0
C838 C 0.54388 0.7509 0.15906 0.0
C839 C 0.52544 0.75096 0.13323 0.0
C840 C 0.53799 0.77597 0.11168 0.0
C841 C 0.56841 0.80049 0.11603 0.0
C842 C 0.43232 0.7153 0.1227 0.0
C843 C 0.42764 0.68158 0.13321 0.0
C844 C 0.4644 0.73737 0.12107 0.0
C845 C 0.49233 0.72612 0.13001 0.0
C846 C 0.48778 0.69174 0.13874 0.0
C847 C 0.45574 0.66966 0.14031 0.0
loop_
_geom_bond_atom_site_label_1
_geom_bond_atom_site_label_2
_geom_bond_distance
_geom_bond_site_symmetry_2
_ccdc_geom_bond_type
In0 O1 2.294 . S
In0 O2 2.326 . S
In0 O6 2.266 . S
In0 O7 2.326 . S
In0 O8 2.266 . S
In0 O9 2.326 . S
In0 O11 2.294 . S
In0 O12 2.326 . S
O1 In0 2.294 . S
O1 C10 1.240 . S
O2 In0 2.326 . S
O2 C10 1.252 . S
C3 O6 1.252 . S
C3 O7 1.260 . S
C4 O11 1.240 . S
C4 O12 1.252 . S
C5 O8 1.252 . S
C5 O9 1.260 . S
O6 In0 2.266 . S
O6 C3 1.252 . S
O7 In0 2.326 . S
O7 C3 1.260 . S
O8 In0 2.266 . S
O8 C5 1.252 . S
O9 In0 2.326 . S
O9 C5 1.260 . S
C10 O1 1.240 . S
C10 O2 1.252 . S
O11 In0 2.294 . S
O11 C4 1.240 . S
O12 In0 2.326 . S
O12 C4 1.252 . S
In13 O14 2.294 . S
In13 O15 2.326 . S
In13 O19 2.266 . S
In13 O20 2.326 . S
In13 O21 2.266 . S
In13 O22 2.326 . S
In13 O24 2.294 . S
In13 O25 2.326 . S
O14 In13 2.294 . S
O14 C23 1.240 . S
O15 In13 2.326 . S
O15 C23 1.252 . S
C16 O19 1.252 . S
C16 O20 1.260 . S
C17 O24 1.240 . S
C17 O25 1.252 . S
C18 O21 1.252 . S
C18 O22 1.260 . S
O19 In13 2.266 . S
O19 C16 1.252 . S
O20 In13 2.326 . S
O20 C16 1.260 . S
O21 In13 2.266 . S
O21 C18 1.252 . S
O22 In13 2.326 . S
O22 C18 1.260 . S
C23 O14 1.240 . S
C23 O15 1.252 . S
O24 In13 2.294 . S
O24 C17 1.240 . S
O25 In13 2.326 . S
O25 C17 1.252 . S
In26 O27 2.294 . S
In26 O28 2.326 . S
In26 O32 2.266 . S
In26 O33 2.326 . S
In26 O34 2.266 . S
In26 O35 2.326 . S
In26 O37 2.294 . S
In26 O38 2.326 . S
O27 In26 2.294 . S
O27 C36 1.240 . S
O28 In26 2.326 . S
O28 C36 1.252 . S
C29 O32 1.252 . S
C29 O33 1.260 . S
C30 O37 1.240 . S
C30 O38 1.252 . S
C31 O34 1.252 . S
C31 O35 1.260 . S
O32 In26 2.266 . S
O32 C29 1.252 . S
O33 In26 2.326 . S
O33 C29 1.260 . S
O34 In26 2.266 . S
O34 C31 1.252 . S
O35 In26 2.326 . S
O35 C31 1.260 . S
C36 O27 1.240 . S
C36 O28 1.252 . S
O37 In26 2.294 . S
O37 C30 1.240 . S
O38 In26 2.326 . S
O38 C30 1.252 . S
In39 O40 2.294 . S
In39 O41 2.326 . S
In39 O45 2.266 . S
In39 O46 2.326 . S
In39 O47 2.266 . S
In39 O48 2.326 . S
In39 O50 2.294 . S
In39 O51 2.326 . S
O40 In39 2.294 . S
O40 C49 1.240 . S
O41 In39 2.326 . S
O41 C49 1.252 . S
C42 O45 1.252 . S
C42 O46 1.260 . S
C43 O50 1.240 . S
C43 O51 1.252 . S
C44 O47 1.252 . S
C44 O48 1.260 . S
O45 In39 2.266 . S
O45 C42 1.252 . S
O46 In39 2.326 . S
O46 C42 1.260 . S
O47 In39 2.266 . S
O47 C44 1.252 . S
O48 In39 2.326 . S
O48 C44 1.260 . S
C49 O40 1.240 . S
C49 O41 1.252 . S
O50 In39 2.294 . S
O50 C43 1.240 . S
O51 In39 2.326 . S
O51 C43 1.252 . S
In52 O53 2.294 . S
In52 O54 2.326 . S
In52 O58 2.266 . S
In52 O59 2.326 . S
In52 O60 2.266 . S
In52 O61 2.326 . S
In52 O63 2.294 . S
In52 O64 2.326 . S
O53 In52 2.294 . S
O53 C62 1.240 . S
O54 In52 2.326 . S
O54 C62 1.252 . S
C55 O58 1.252 . S
C55 O59 1.260 . S
C56 O63 1.240 . S
C56 O64 1.252 . S
C57 O60 1.252 . S
C57 O61 1.260 . S
O58 In52 2.266 . S
O58 C55 1.252 . S
O59 In52 2.326 . S
O59 C55 1.260 . S
O60 In52 2.266 . S
O60 C57 1.252 . S
O61 In52 2.326 . S
O61 C57 1.260 . S
C62 O53 1.240 . S
C62 O54 1.252 . S
O63 In52 2.294 . S
O63 C56 1.240 . S
O64 In52 2.326 . S
O64 C56 1.252 . S
In65 O66 2.294 . S
In65 O67 2.326 . S
In65 O71 2.266 . S
In65 O72 2.326 . S
In65 O73 2.266 . S
In65 O74 2.326 . S
In65 O76 2.294 . S
In65 O77 2.326 . S
O66 In65 2.294 . S
O66 C75 1.240 . S
O67 In65 2.326 . S
O67 C75 1.252 . S
C68 O71 1.252 . S
C68 O72 1.260 . S
C69 O76 1.240 . S
C69 O77 1.252 . S
C70 O73 1.252 . S
C70 O74 1.260 . S
O71 In65 2.266 . S
O71 C68 1.252 . S
O72 In65 2.326 . S
O72 C68 1.260 . S
O73 In65 2.266 . S
O73 C70 1.252 . S
O74 In65 2.326 . S
O74 C70 1.260 . S
C75 O66 1.240 . S
C75 O67 1.252 . S
O76 In65 2.294 . S
O76 C69 1.240 . S
O77 In65 2.326 . S
O77 C69 1.252 . S
In78 O79 2.294 . S
In78 O80 2.326 . S
In78 O84 2.266 . S
In78 O85 2.326 . S
In78 O86 2.266 . S
In78 O87 2.326 . S
In78 O89 2.294 . S
In78 O90 2.326 . S
O79 In78 2.294 . S
O79 C88 1.240 . S
O80 In78 2.326 . S
O80 C88 1.252 . S
C81 O84 1.252 . S
C81 O85 1.260 . S
C82 O89 1.240 . S
C82 O90 1.252 . S
C83 O86 1.252 . S
C83 O87 1.260 . S
O84 In78 2.266 . S
O84 C81 1.252 . S
O85 In78 2.326 . S
O85 C81 1.260 . S
O86 In78 2.266 . S
O86 C83 1.252 . S
O87 In78 2.326 . S
O87 C83 1.260 . S
C88 O79 1.240 . S
C88 O80 1.252 . S
O89 In78 2.294 . S
O89 C82 1.240 . S
O90 In78 2.326 . S
O90 C82 1.252 . S
In91 O92 2.294 . S
In91 O93 2.326 . S
In91 O97 2.266 . S
In91 O98 2.326 . S
In91 O99 2.266 . S
In91 O100 2.326 . S
In91 O102 2.294 . S
In91 O103 2.326 . S
O92 In91 2.294 . S
O92 C101 1.240 . S
O93 In91 2.326 . S
O93 C101 1.252 . S
C94 O97 1.252 . S
C94 O98 1.260 . S
C95 O102 1.240 . S
C95 O103 1.252 . S
C96 O99 1.252 . S
C96 O100 1.260 . S
O97 In91 2.266 . S
O97 C94 1.252 . S
O98 In91 2.326 . S
O98 C94 1.260 . S
O99 In91 2.266 . S
O99 C96 1.252 . S
O100 In91 2.326 . S
O100 C96 1.260 . S
C101 O92 1.240 . S
C101 O93 1.252 . S
O102 In91 2.294 . S
O102 C95 1.240 . S
O103 In91 2.326 . S
O103 C95 1.252 . S
In104 O105 2.294 . S
In104 O106 2.326 . S
In104 O110 2.266 . S
In104 O111 2.326 . S
In104 O112 2.266 . S
In104 O113 2.326 . S
In104 O115 2.294 . S
In104 O116 2.326 . S
O105 In104 2.294 . S
O105 C114 1.240 . S
O106 In104 2.326 . S
O106 C114 1.252 . S
C107 O110 1.252 . S
C107 O111 1.260 . S
C108 O115 1.240 . S
C108 O116 1.252 . S
C109 O112 1.252 . S
C109 O113 1.260 . S
O110 In104 2.266 . S
O110 C107 1.252 . S
O111 In104 2.326 . S
O111 C107 1.260 . S
O112 In104 2.266 . S
O112 C109 1.252 . S
O113 In104 2.326 . S
O113 C109 1.260 . S
C114 O105 1.240 . S
C114 O106 1.252 . S
O115 In104 2.294 . S
O115 C108 1.240 . S
O116 In104 2.326 . S
O116 C108 1.252 . S
In117 O118 2.294 . S
In117 O119 2.326 . S
In117 O123 2.266 . S
In117 O124 2.326 . S
In117 O125 2.266 . S
In117 O126 2.326 . S
In117 O128 2.294 . S
In117 O129 2.326 . S
O118 In117 2.294 . S
O118 C127 1.240 . S
O119 In117 2.326 . S
O119 C127 1.252 . S
C120 O123 1.252 . S
C120 O124 1.260 . S
C121 O128 1.240 . S
C121 O129 1.252 . S
C122 O125 1.252 . S
C122 O126 1.260 . S
O123 In117 2.266 . S
O123 C120 1.252 . S
O124 In117 2.326 . S
O124 C120 1.260 . S
O125 In117 2.266 . S
O125 C122 1.252 . S
O126 In117 2.326 . S
O126 C122 1.260 . S
C127 O118 1.240 . S
C127 O119 1.252 . S
O128 In117 2.294 . S
O128 C121 1.240 . S
O129 In117 2.326 . S
O129 C121 1.252 . S
In130 O131 2.294 . S
In130 O132 2.326 . S
In130 O136 2.266 . S
In130 O137 2.326 . S
In130 O138 2.266 . S
In130 O139 2.326 . S
In130 O141 2.294 . S
In130 O142 2.326 . S
O131 In130 2.294 . S
O131 C140 1.240 . S
O132 In130 2.326 . S
O132 C140 1.252 . S
C133 O136 1.252 . S
C133 O137 1.260 . S
C134 O141 1.240 . S
C134 O142 1.252 . S
C135 O138 1.252 . S
C135 O139 1.260 . S
O136 In130 2.266 . S
O136 C133 1.252 . S
O137 In130 2.326 . S
O137 C133 1.260 . S
O138 In130 2.266 . S
O138 C135 1.252 . S
O139 In130 2.326 . S
O139 C135 1.260 . S
C140 O131 1.240 . S
C140 O132 1.252 . S
O141 In130 2.294 . S
O141 C134 1.240 . S
O142 In130 2.326 . S
O142 C134 1.252 . S
In143 O144 2.294 . S
In143 O145 2.326 . S
In143 O149 2.266 . S
In143 O150 2.326 . S
In143 O151 2.266 . S
In143 O152 2.326 . S
In143 O154 2.294 . S
In143 O155 2.326 . S
O144 In143 2.294 . S
O144 C153 1.240 . S
O145 In143 2.326 . S
O145 C153 1.252 . S
C146 O149 1.252 . S
C146 O150 1.260 . S
C147 O154 1.240 . S
C147 O155 1.252 . S
C148 O151 1.252 . S
C148 O152 1.260 . S
O149 In143 2.266 . S
O149 C146 1.252 . S
O150 In143 2.326 . S
O150 C146 1.260 . S
O151 In143 2.266 . S
O151 C148 1.252 . S
O152 In143 2.326 . S
O152 C148 1.260 . S
C153 O144 1.240 . S
C153 O145 1.252 . S
O154 In143 2.294 . S
O154 C147 1.240 . S
O155 In143 2.326 . S
O155 C147 1.252 . S
In156 O157 2.294 . S
In156 O158 2.326 . S
In156 O162 2.266 . S
In156 O163 2.326 . S
In156 O164 2.266 . S
In156 O165 2.326 . S
In156 O167 2.294 . S
In156 O168 2.326 . S
O157 In156 2.294 . S
O157 C166 1.240 . S
O158 In156 2.326 . S
O158 C166 1.252 . S
C159 O162 1.252 . S
C159 O163 1.260 . S
C160 O167 1.240 . S
C160 O168 1.252 . S
C161 O164 1.252 . S
C161 O165 1.260 . S
O162 In156 2.266 . S
O162 C159 1.252 . S
O163 In156 2.326 . S
O163 C159 1.260 . S
O164 In156 2.266 . S
O164 C161 1.252 . S
O165 In156 2.326 . S
O165 C161 1.260 . S
C166 O157 1.240 . S
C166 O158 1.252 . S
O167 In156 2.294 . S
O167 C160 1.240 . S
O168 In156 2.326 . S
O168 C160 1.252 . S
In169 O170 2.294 . S
In169 O171 2.326 . S
In169 O175 2.266 . S
In169 O176 2.326 . S
In169 O177 2.266 . S
In169 O178 2.326 . S
In169 O180 2.294 . S
In169 O181 2.326 . S
O170 In169 2.294 . S
O170 C179 1.240 . S
O171 In169 2.326 . S
O171 C179 1.252 . S
C172 O175 1.252 . S
C172 O176 1.260 . S
C173 O180 1.240 . S
C173 O181 1.252 . S
C174 O177 1.252 . S
C174 O178 1.260 . S
O175 In169 2.266 . S
O175 C172 1.252 . S
O176 In169 2.326 . S
O176 C172 1.260 . S
O177 In169 2.266 . S
O177 C174 1.252 . S
O178 In169 2.326 . S
O178 C174 1.260 . S
C179 O170 1.240 . S
C179 O171 1.252 . S
O180 In169 2.294 . S
O180 C173 1.240 . S
O181 In169 2.326 . S
O181 C173 1.252 . S
In182 O183 2.294 . S
In182 O184 2.326 . S
In182 O188 2.266 . S
In182 O189 2.326 . S
In182 O190 2.266 . S
In182 O191 2.326 . S
In182 O193 2.294 . S
In182 O194 2.326 . S
O183 In182 2.294 . S
O183 C192 1.240 . S
O184 In182 2.326 . S
O184 C192 1.252 . S
C185 O188 1.252 . S
C185 O189 1.260 . S
C186 O193 1.240 . S
C186 O194 1.252 . S
C187 O190 1.252 . S
C187 O191 1.260 . S
O188 In182 2.266 . S
O188 C185 1.252 . S
O189 In182 2.326 . S
O189 C185 1.260 . S
O190 In182 2.266 . S
O190 C187 1.252 . S
O191 In182 2.326 . S
O191 C187 1.260 . S
C192 O183 1.240 . S
C192 O184 1.252 . S
O193 In182 2.294 . S
O193 C186 1.240 . S
O194 In182 2.326 . S
O194 C186 1.252 . S
In195 O196 2.294 . S
In195 O197 2.326 . S
In195 O201 2.266 . S
In195 O202 2.326 . S
In195 O203 2.266 . S
In195 O204 2.326 . S
In195 O206 2.294 . S
In195 O207 2.326 . S
O196 In195 2.294 . S
O196 C205 1.240 . S
O197 In195 2.326 . S
O197 C205 1.252 . S
C198 O201 1.252 . S
C198 O202 1.260 . S
C199 O206 1.240 . S
C199 O207 1.252 . S
C200 O203 1.252 . S
C200 O204 1.260 . S
O201 In195 2.266 . S
O201 C198 1.252 . S
O202 In195 2.326 . S
O202 C198 1.260 . S
O203 In195 2.266 . S
O203 C200 1.252 . S
O204 In195 2.326 . S
O204 C200 1.260 . S
C205 O196 1.240 . S
C205 O197 1.252 . S
O206 In195 2.294 . S
O206 C199 1.240 . S
O207 In195 2.326 . S
O207 C199 1.252 . S
H208 C216 0.950 . S
H209 C221 0.950 . S
H210 C218 0.950 . S
H211 C220 0.950 . S
H212 C222 0.950 . S
H213 C224 0.950 . S
H214 C226 0.950 . S
H215 C227 0.950 . S
C216 H208 0.950 . S
C216 C217 1.386 . S
C216 C218 1.391 . S
C217 C216 1.386 . S
C217 C221 1.393 . S
C218 H210 0.950 . S
C218 C216 1.391 . S
C218 C219 1.400 . S
C219 C218 1.400 . S
C219 C220 1.398 . S
C219 C225 1.491 . S
C220 H211 0.950 . S
C220 C219 1.398 . S
C220 C221 1.391 . S
C221 H209 0.950 . S
C221 C217 1.393 . S
C221 C220 1.391 . S
C222 H212 0.950 . S
C222 C223 1.386 . S
C222 C224 1.391 . S
C223 C222 1.386 . S
C223 C227 1.393 . S
C224 H213 0.950 . S
C224 C222 1.391 . S
C224 C225 1.400 . S
C225 C219 1.491 . S
C225 C224 1.400 . S
C225 C226 1.398 . S
C226 H214 0.950 . S
C226 C225 1.398 . S
C226 C227 1.391 . S
C227 H215 0.950 . S
C227 C223 1.393 . S
C227 C226 1.391 . S
H228 C236 0.950 . S
H229 C241 0.950 . S
H230 C238 0.950 . S
H231 C240 0.950 . S
H232 C242 0.950 . S
H233 C244 0.950 . S
H234 C246 0.950 . S
H235 C247 0.950 . S
C236 H228 0.950 . S
C236 C237 1.386 . S
C236 C238 1.391 . S
C237 C236 1.386 . S
C237 C241 1.393 . S
C238 H230 0.950 . S
C238 C236 1.391 . S
C238 C239 1.400 . S
C239 C238 1.400 . S
C239 C240 1.398 . S
C239 C245 1.491 . S
C240 H231 0.950 . S
C240 C239 1.398 . S
C240 C241 1.391 . S
C241 H229 0.950 . S
C241 C237 1.393 . S
C241 C240 1.391 . S
C242 H232 0.950 . S
C242 C243 1.386 . S
C242 C244 1.391 . S
C243 C242 1.386 . S
C243 C247 1.393 . S
C244 H233 0.950 . S
C244 C242 1.391 . S
C244 C245 1.400 . S
C245 C239 1.491 . S
C245 C244 1.400 . S
C245 C246 1.398 . S
C246 H234 0.950 . S
C246 C245 1.398 . S
C246 C247 1.391 . S
C247 H235 0.950 . S
C247 C243 1.393 . S
C247 C246 1.391 . S
H248 C256 0.950 . S
H249 C261 0.950 . S
H250 C258 0.950 . S
H251 C260 0.950 . S
H252 C262 0.950 . S
H253 C264 0.950 . S
H254 C266 0.950 . S
H255 C267 0.950 . S
C256 H248 0.950 . S
C256 C257 1.386 . S
C256 C258 1.391 . S
C257 C256 1.386 . S
C257 C261 1.393 . S
C258 H250 0.950 . S
C258 C256 1.391 . S
C258 C259 1.400 . S
C259 C258 1.400 . S
C259 C260 1.398 . S
C259 C265 1.491 . S
C260 H251 0.950 . S
C260 C259 1.398 . S
C260 C261 1.391 . S
C261 H249 0.950 . S
C261 C257 1.393 . S
C261 C260 1.391 . S
C262 H252 0.950 . S
C262 C263 1.386 . S
C262 C264 1.391 . S
C263 C262 1.386 . S
C263 C267 1.393 . S
C264 H253 0.950 . S
C264 C262 1.391 . S
C264 C265 1.400 . S
C265 C259 1.491 . S
C265 C264 1.400 . S
C265 C266 1.398 . S
C266 H254 0.950 . S
C266 C265 1.398 . S
C266 C267 1.391 . S
C267 H255 0.950 . S
C267 C263 1.393 . S
C267 C266 1.391 . S
H268 C276 0.950 . S
H269 C281 0.950 . S
H270 C278 0.950 . S
H271 C280 0.950 . S
H272 C282 0.950 . S
H273 C284 0.950 . S
H274 C286 0.950 . S
H275 C287 0.950 . S
C276 H268 0.950 . S
C276 C277 1.386 . S
C276 C278 1.391 . S
C277 C276 1.386 . S
C277 C281 1.393 . S
C278 H270 0.950 . S
C278 C276 1.391 . S
C278 C279 1.400 . S
C279 C278 1.400 . S
C279 C280 1.398 . S
C279 C285 1.491 . S
C280 H271 0.950 . S
C280 C279 1.398 . S
C280 C281 1.391 . S
C281 H269 0.950 . S
C281 C277 1.393 . S
C281 C280 1.391 . S
C282 H272 0.950 . S
C282 C283 1.386 . S
C282 C284 1.391 . S
C283 C282 1.386 . S
C283 C287 1.393 . S
C284 H273 0.950 . S
C284 C282 1.391 . S
C284 C285 1.400 . S
C285 C279 1.491 . S
C285 C284 1.400 . S
C285 C286 1.398 . S
C286 H274 0.950 . S
C286 C285 1.398 . S
C286 C287 1.391 . S
C287 H275 0.950 . S
C287 C283 1.393 . S
C287 C286 1.391 . S
H288 C296 0.950 . S
H289 C301 0.950 . S
H290 C298 0.950 . S
H291 C300 0.950 . S
H292 C302 0.950 . S
H293 C304 0.950 . S
H294 C306 0.950 . S
H295 C307 0.950 . S
C296 H288 0.950 . S
C296 C297 1.386 . S
C296 C298 1.391 . S
C297 C296 1.386 . S
C297 C301 1.393 . S
C298 H290 0.950 . S
C298 C296 1.391 . S
C298 C299 1.400 . S
C299 C298 1.400 . S
C299 C300 1.398 . S
C299 C305 1.491 . S
C300 H291 0.950 . S
C300 C299 1.398 . S
C300 C301 1.391 . S
C301 H289 0.950 . S
C301 C297 1.393 . S
C301 C300 1.391 . S
C302 H292 0.950 . S
C302 C303 1.386 . S
C302 C304 1.391 . S
C303 C302 1.386 . S
C303 C307 1.393 . S
C304 H293 0.950 . S
C304 C302 1.391 . S
C304 C305 1.400 . S
C305 C299 1.491 . S
C305 C304 1.400 . S
C305 C306 1.398 . S
C306 H294 0.950 . S
C306 C305 1.398 . S
C306 C307 1.391 . S
C307 H295 0.950 . S
C307 C303 1.393 . S
C307 C306 1.391 . S
H308 C316 0.950 . S
H309 C321 0.950 . S
H310 C318 0.950 . S
H311 C320 0.950 . S
H312 C322 0.950 . S
H313 C324 0.950 . S
H314 C326 0.950 . S
H315 C327 0.950 . S
C316 H308 0.950 . S
C316 C317 1.386 . S
C316 C318 1.391 . S
C317 C316 1.386 . S
C317 C321 1.393 . S
C318 H310 0.950 . S
C318 C316 1.391 . S
C318 C319 1.400 . S
C319 C318 1.400 . S
C319 C320 1.398 . S
C319 C325 1.491 . S
C320 H311 0.950 . S
C320 C319 1.398 . S
C320 C321 1.391 . S
C321 H309 0.950 . S
C321 C317 1.393 . S
C321 C320 1.391 . S
C322 H312 0.950 . S
C322 C323 1.386 . S
C322 C324 1.391 . S
C323 C322 1.386 . S
C323 C327 1.393 . S
C324 H313 0.950 . S
C324 C322 1.391 . S
C324 C325 1.400 . S
C325 C319 1.491 . S
C325 C324 1.400 . S
C325 C326 1.398 . S
C326 H314 0.950 . S
C326 C325 1.398 . S
C326 C327 1.391 . S
C327 H315 0.950 . S
C327 C323 1.393 . S
C327 C326 1.391 . S
H328 C336 0.950 . S
H329 C341 0.950 . S
H330 C338 0.950 . S
H331 C340 0.950 . S
H332 C342 0.950 . S
H333 C344 0.950 . S
H334 C346 0.950 . S
H335 C347 0.950 . S
C336 H328 0.950 . S
C336 C337 1.386 . S
C336 C338 1.391 . S
C337 C336 1.386 . S
C337 C341 1.393 . S
C338 H330 0.950 . S
C338 C336 1.391 . S
C338 C339 1.400 . S
C339 C338 1.400 . S
C339 C340 1.398 . S
C339 C345 1.491 . S
C340 H331 0.950 . S
C340 C339 1.398 . S
C340 C341 1.391 . S
C341 H329 0.950 . S
C341 C337 1.393 . S
C341 C340 1.391 . S
C342 H332 0.950 . S
C342 C343 1.386 . S
C342 C344 1.391 . S
C343 C342 1.386 . S
C343 C347 1.393 . S
C344 H333 0.950 . S
C344 C342 1.391 . S
C344 C345 1.400 . S
C345 C339 1.491 . S
C345 C344 1.400 . S
C345 C346 1.398 . S
C346 H334 0.950 . S
C346 C345 1.398 . S
C346 C347 1.391 . S
C347 H335 0.950 . S
C347 C343 1.393 . S
C347 C346 1.391 . S
H348 C356 0.950 . S
H349 C361 0.950 . S
H350 C358 0.950 . S
H351 C360 0.950 . S
H352 C362 0.950 . S
H353 C364 0.950 . S
H354 C366 0.950 . S
H355 C367 0.950 . S
C356 H348 0.950 . S
C356 C357 1.386 . S
C356 C358 1.391 . S
C357 C356 1.386 . S
C357 C361 1.393 . S
C358 H350 0.950 . S
C358 C356 1.391 . S
C358 C359 1.400 . S
C359 C358 1.400 . S
C359 C360 1.398 . S
C359 C365 1.491 . S
C360 H351 0.950 . S
C360 C359 1.398 . S
C360 C361 1.391 . S
C361 H349 0.950 . S
C361 C357 1.393 . S
C361 C360 1.391 . S
C362 H352 0.950 . S
C362 C363 1.386 . S
C362 C364 1.391 . S
C363 C362 1.386 . S
C363 C367 1.393 . S
C364 H353 0.950 . S
C364 C362 1.391 . S
C364 C365 1.400 . S
C365 C359 1.491 . S
C365 C364 1.400 . S
C365 C366 1.398 . S
C366 H354 0.950 . S
C366 C365 1.398 . S
C366 C367 1.391 . S
C367 H355 0.950 . S
C367 C363 1.393 . S
C367 C366 1.391 . S
H368 C376 0.950 . S
H369 C381 0.950 . S
H370 C378 0.950 . S
H371 C380 0.950 . S
H372 C382 0.950 . S
H373 C384 0.950 . S
H374 C386 0.950 . S
H375 C387 0.950 . S
C376 H368 0.950 . S
C376 C377 1.386 . S
C376 C378 1.391 . S
C377 C376 1.386 . S
C377 C381 1.393 . S
C378 H370 0.950 . S
C378 C376 1.391 . S
C378 C379 1.400 . S
C379 C378 1.400 . S
C379 C380 1.398 . S
C379 C385 1.491 . S
C380 H371 0.950 . S
C380 C379 1.398 . S
C380 C381 1.391 . S
C381 H369 0.950 . S
C381 C377 1.393 . S
C381 C380 1.391 . S
C382 H372 0.950 . S
C382 C383 1.386 . S
C382 C384 1.391 . S
C383 C382 1.386 . S
C383 C387 1.393 . S
C384 H373 0.950 . S
C384 C382 1.391 . S
C384 C385 1.400 1_545 S
C385 C379 1.491 . S
C385 C384 1.400 1_565 S
C385 C386 1.398 . S
C386 H374 0.950 . S
C386 C385 1.398 . S
C386 C387 1.391 1_565 S
C387 H375 0.950 . S
C387 C383 1.393 . S
C387 C386 1.391 1_545 S
H388 C396 0.950 . S
H389 C401 0.950 . S
H390 C398 0.950 . S
H391 C400 0.950 . S
H392 C402 0.950 . S
H393 C404 0.950 . S
H394 C406 0.950 . S
H395 C407 0.950 . S
C396 H388 0.950 . S
C396 C397 1.386 . S
C396 C398 1.391 . S
C397 C396 1.386 . S
C397 C401 1.393 . S
C398 H390 0.950 . S
C398 C396 1.391 . S
C398 C399 1.400 . S
C399 C398 1.400 . S
C399 C400 1.398 . S
C399 C405 1.491 . S
C400 H391 0.950 . S
C400 C399 1.398 . S
C400 C401 1.391 . S
C401 H389 0.950 . S
C401 C397 1.393 . S
C401 C400 1.391 . S
C402 H392 0.950 . S
C402 C403 1.386 . S
C402 C404 1.391 . S
C403 C402 1.386 . S
C403 C407 1.393 . S
C404 H393 0.950 . S
C404 C402 1.391 . S
C404 C405 1.400 . S
C405 C399 1.491 . S
C405 C404 1.400 . S
C405 C406 1.398 . S
C406 H394 0.950 . S
C406 C405 1.398 . S
C406 C407 1.391 . S
C407 H395 0.950 . S
C407 C403 1.393 . S
C407 C406 1.391 . S
H408 C416 0.950 . S
H409 C421 0.950 . S
H410 C418 0.950 . S
H411 C420 0.950 . S
H412 C422 0.950 . S
H413 C424 0.950 . S
H414 C426 0.950 . S
H415 C427 0.950 . S
C416 H408 0.950 . S
C416 C417 1.386 . S
C416 C418 1.391 . S
C417 C416 1.386 . S
C417 C421 1.393 . S
C418 H410 0.950 . S
C418 C416 1.391 . S
C418 C419 1.400 . S
C419 C418 1.400 . S
C419 C420 1.398 . S
C419 C425 1.491 . S
C420 H411 0.950 . S
C420 C419 1.398 . S
C420 C421 1.391 . S
C421 H409 0.950 . S
C421 C417 1.393 . S
C421 C420 1.391 . S
C422 H412 0.950 . S
C422 C423 1.386 . S
C422 C424 1.391 1_554 S
C423 C422 1.386 . S
C423 C427 1.393 . S
C424 H413 0.950 . S
C424 C422 1.391 1_556 S
C424 C425 1.400 . S
C425 C419 1.491 . S
C425 C424 1.400 . S
C425 C426 1.398 1_556 S
C426 H414 0.950 . S
C426 C425 1.398 1_554 S
C426 C427 1.391 . S
C427 H415 0.950 . S
C427 C423 1.393 . S
C427 C426 1.391 . S
H428 C436 0.950 . S
H429 C441 0.950 . S
H430 C438 0.950 . S
H431 C440 0.950 . S
H432 C442 0.950 . S
H433 C444 0.950 . S
H434 C446 0.950 . S
H435 C447 0.950 . S
C436 H428 0.950 . S
C436 C437 1.386 . S
C436 C438 1.391 . S
C437 C436 1.386 . S
C437 C441 1.393 . S
C438 H430 0.950 . S
C438 C436 1.391 . S
C438 C439 1.400 1_554 S
C439 C438 1.400 1_556 S
C439 C440 1.398 . S
C439 C445 1.491 . S
C440 H431 0.950 . S
C440 C439 1.398 . S
C440 C441 1.391 1_556 S
C441 H429 0.950 . S
C441 C437 1.393 . S
C441 C440 1.391 1_554 S
C442 H432 0.950 . S
C442 C443 1.386 . S
C442 C444 1.391 . S
C443 C442 1.386 . S
C443 C447 1.393 . S
C444 H433 0.950 . S
C444 C442 1.391 . S
C444 C445 1.400 . S
C445 C439 1.491 . S
C445 C444 1.400 . S
C445 C446 1.398 . S
C446 H434 0.950 . S
C446 C445 1.398 . S
C446 C447 1.391 . S
C447 H435 0.950 . S
C447 C443 1.393 . S
C447 C446 1.391 . S
H448 C456 0.950 . S
H449 C461 0.950 . S
H450 C458 0.950 . S
H451 C460 0.950 . S
H452 C462 0.950 . S
H453 C464 0.950 . S
H454 C466 0.950 . S
H455 C467 0.950 . S
C456 H448 0.950 . S
C456 C457 1.386 . S
C456 C458 1.391 . S
C457 C456 1.386 . S
C457 C461 1.393 . S
C458 H450 0.950 . S
C458 C456 1.391 . S
C458 C459 1.400 . S
C459 C458 1.400 . S
C459 C460 1.398 . S
C459 C465 1.491 . S
C460 H451 0.950 . S
C460 C459 1.398 . S
C460 C461 1.391 . S
C461 H449 0.950 . S
C461 C457 1.393 . S
C461 C460 1.391 . S
C462 H452 0.950 . S
C462 C463 1.386 . S
C462 C464 1.391 . S
C463 C462 1.386 . S
C463 C467 1.393 . S
C464 H453 0.950 . S
C464 C462 1.391 . S
C464 C465 1.400 . S
C465 C459 1.491 . S
C465 C464 1.400 . S
C465 C466 1.398 . S
C466 H454 0.950 . S
C466 C465 1.398 . S
C466 C467 1.391 . S
C467 H455 0.950 . S
C467 C463 1.393 . S
C467 C466 1.391 . S
H468 C476 0.950 . S
H469 C481 0.950 . S
H470 C478 0.950 . S
H471 C480 0.950 . S
H472 C482 0.950 . S
H473 C484 0.950 . S
H474 C486 0.950 . S
H475 C487 0.950 . S
C476 H468 0.950 . S
C476 C477 1.386 . S
C476 C478 1.391 . S
C477 C476 1.386 . S
C477 C481 1.393 . S
C478 H470 0.950 . S
C478 C476 1.391 . S
C478 C479 1.400 . S
C479 C478 1.400 . S
C479 C480 1.398 . S
C479 C485 1.491 . S
C480 H471 0.950 . S
C480 C479 1.398 . S
C480 C481 1.391 . S
C481 H469 0.950 . S
C481 C477 1.393 . S
C481 C480 1.391 . S
C482 H472 0.950 . S
C482 C483 1.386 . S
C482 C484 1.391 . S
C483 C482 1.386 . S
C483 C487 1.393 . S
C484 H473 0.950 . S
C484 C482 1.391 . S
C484 C485 1.400 . S
C485 C479 1.491 . S
C485 C484 1.400 . S
C485 C486 1.398 . S
C486 H474 0.950 . S
C486 C485 1.398 . S
C486 C487 1.391 . S
C487 H475 0.950 . S
C487 C483 1.393 . S
C487 C486 1.391 . S
H488 C496 0.950 . S
H489 C501 0.950 . S
H490 C498 0.950 . S
H491 C500 0.950 1_455 S
H492 C502 0.950 . S
H493 C504 0.950 . S
H494 C506 0.950 1_655 S
H495 C507 0.950 . S
C496 H488 0.950 . S
C496 C497 1.386 . S
C496 C498 1.391 . S
C497 C496 1.386 . S
C497 C501 1.393 . S
C498 H490 0.950 . S
C498 C496 1.391 . S
C498 C499 1.400 . S
C499 C498 1.400 . S
C499 C500 1.398 . S
C499 C505 1.491 1_655 S
C500 H491 0.950 1_655 S
C500 C499 1.398 . S
C500 C501 1.391 . S
C501 H489 0.950 . S
C501 C497 1.393 . S
C501 C500 1.391 . S
C502 H492 0.950 . S
C502 C503 1.386 . S
C502 C504 1.391 . S
C503 C502 1.386 . S
C503 C507 1.393 . S
C504 H493 0.950 . S
C504 C502 1.391 . S
C504 C505 1.400 . S
C505 C499 1.491 1_455 S
C505 C504 1.400 . S
C505 C506 1.398 . S
C506 H494 0.950 1_455 S
C506 C505 1.398 . S
C506 C507 1.391 . S
C507 H495 0.950 . S
C507 C503 1.393 . S
C507 C506 1.391 . S
H508 C516 0.950 . S
H509 C521 0.950 . S
H510 C518 0.950 . S
H511 C520 0.950 . S
H512 C522 0.950 . S
H513 C524 0.950 . S
H514 C526 0.950 . S
H515 C527 0.950 . S
C516 H508 0.950 . S
C516 C517 1.386 . S
C516 C518 1.391 . S
C517 C516 1.386 . S
C517 C521 1.393 . S
C518 H510 0.950 . S
C518 C516 1.391 . S
C518 C519 1.400 . S
C519 C518 1.400 . S
C519 C520 1.398 . S
C519 C525 1.491 1_655 S
C520 H511 0.950 . S
C520 C519 1.398 . S
C520 C521 1.391 . S
C521 H509 0.950 . S
C521 C517 1.393 . S
C521 C520 1.391 . S
C522 H512 0.950 . S
C522 C523 1.386 . S
C522 C524 1.391 . S
C523 C522 1.386 . S
C523 C527 1.393 . S
C524 H513 0.950 . S
C524 C522 1.391 . S
C524 C525 1.400 . S
C525 C519 1.491 1_455 S
C525 C524 1.400 . S
C525 C526 1.398 . S
C526 H514 0.950 . S
C526 C525 1.398 . S
C526 C527 1.391 . S
C527 H515 0.950 . S
C527 C523 1.393 . S
C527 C526 1.391 . S
H528 C536 0.950 . S
H529 C541 0.950 . S
H530 C538 0.950 . S
H531 C540 0.950 . S
H532 C542 0.950 . S
H533 C544 0.950 . S
H534 C546 0.950 . S
H535 C547 0.950 . S
C536 H528 0.950 . S
C536 C537 1.386 . S
C536 C538 1.391 . S
C537 C536 1.386 . S
C537 C541 1.393 . S
C538 H530 0.950 . S
C538 C536 1.391 . S
C538 C539 1.400 . S
C539 C538 1.400 . S
C539 C540 1.398 . S
C539 C545 1.491 . S
C540 H531 0.950 . S
C540 C539 1.398 . S
C540 C541 1.391 . S
C541 H529 0.950 . S
C541 C537 1.393 . S
C541 C540 1.391 . S
C542 H532 0.950 . S
C542 C543 1.386 . S
C542 C544 1.391 . S
C543 C542 1.386 . S
C543 C547 1.393 . S
C544 H533 0.950 . S
C544 C542 1.391 . S
C544 C545 1.400 . S
C545 C539 1.491 . S
C545 C544 1.400 . S
C545 C546 1.398 . S
C546 H534 0.950 . S
C546 C545 1.398 . S
C546 C547 1.391 . S
C547 H535 0.950 . S
C547 C543 1.393 . S
C547 C546 1.391 . S
H548 C556 0.950 . S
H549 C561 0.950 . S
H550 C558 0.950 1_565 S
H551 C560 0.950 . S
H552 C562 0.950 . S
H553 C564 0.950 1_545 S
H554 C566 0.950 . S
H555 C567 0.950 . S
C556 H548 0.950 . S
C556 C557 1.386 . S
C556 C558 1.391 . S
C557 C556 1.386 . S
C557 C561 1.393 . S
C558 H550 0.950 1_545 S
C558 C556 1.391 . S
C558 C559 1.400 . S
C559 C558 1.400 . S
C559 C560 1.398 . S
C559 C565 1.491 1_545 S
C560 H551 0.950 . S
C560 C559 1.398 . S
C560 C561 1.391 . S
C561 H549 0.950 . S
C561 C557 1.393 . S
C561 C560 1.391 . S
C562 H552 0.950 . S
C562 C563 1.386 . S
C562 C564 1.391 . S
C563 C562 1.386 . S
C563 C567 1.393 . S
C564 H553 0.950 1_565 S
C564 C562 1.391 . S
C564 C565 1.400 . S
C565 C559 1.491 1_565 S
C565 C564 1.400 . S
C565 C566 1.398 . S
C566 H554 0.950 . S
C566 C565 1.398 . S
C566 C567 1.391 . S
C567 H555 0.950 . S
C567 C563 1.393 . S
C567 C566 1.391 . S
H568 C576 0.950 . S
H569 C581 0.950 . S
H570 C578 0.950 . S
H571 C580 0.950 . S
H572 C582 0.950 . S
H573 C584 0.950 . S
H574 C586 0.950 . S
H575 C587 0.950 . S
C576 H568 0.950 . S
C576 C577 1.386 . S
C576 C578 1.391 . S
C577 C576 1.386 . S
C577 C581 1.393 . S
C578 H570 0.950 . S
C578 C576 1.391 . S
C578 C579 1.400 . S
C579 C578 1.400 . S
C579 C580 1.398 . S
C579 C585 1.491 . S
C580 H571 0.950 . S
C580 C579 1.398 . S
C580 C581 1.391 . S
C581 H569 0.950 . S
C581 C577 1.393 . S
C581 C580 1.391 . S
C582 H572 0.950 . S
C582 C583 1.386 . S
C582 C584 1.391 . S
C583 C582 1.386 . S
C583 C587 1.393 . S
C584 H573 0.950 . S
C584 C582 1.391 . S
C584 C585 1.400 . S
C585 C579 1.491 . S
C585 C584 1.400 . S
C585 C586 1.398 . S
C586 H574 0.950 . S
C586 C585 1.398 . S
C586 C587 1.391 . S
C587 H575 0.950 . S
C587 C583 1.393 . S
C587 C586 1.391 . S
H588 C596 0.950 . S
H589 C601 0.950 . S
H590 C598 0.950 . S
H591 C600 0.950 . S
H592 C602 0.950 . S
H593 C604 0.950 1_554 S
H594 C606 0.950 . S
H595 C607 0.950 . S
C596 H588 0.950 . S
C596 C597 1.386 . S
C596 C598 1.391 . S
C597 C596 1.386 . S
C597 C601 1.393 . S
C598 H590 0.950 . S
C598 C596 1.391 . S
C598 C599 1.400 . S
C599 C598 1.400 . S
C599 C600 1.398 . S
C599 C605 1.491 . S
C600 H591 0.950 . S
C600 C599 1.398 . S
C600 C601 1.391 . S
C601 H589 0.950 . S
C601 C597 1.393 . S
C601 C600 1.391 . S
C602 H592 0.950 . S
C602 C603 1.386 . S
C602 C604 1.391 . S
C603 C602 1.386 . S
C603 C607 1.393 . S
C604 H593 0.950 1_556 S
C604 C602 1.391 . S
C604 C605 1.400 1_556 S
C605 C599 1.491 . S
C605 C604 1.400 1_554 S
C605 C606 1.398 1_554 S
C606 H594 0.950 . S
C606 C605 1.398 1_556 S
C606 C607 1.391 . S
C607 H595 0.950 . S
C607 C603 1.393 . S
C607 C606 1.391 . S
H608 C616 0.950 . S
H609 C621 0.950 . S
H610 C618 0.950 . S
H611 C620 0.950 . S
H612 C622 0.950 . S
H613 C624 0.950 . S
H614 C626 0.950 . S
H615 C627 0.950 . S
C616 H608 0.950 . S
C616 C617 1.386 . S
C616 C618 1.391 . S
C617 C616 1.386 . S
C617 C621 1.393 . S
C618 H610 0.950 . S
C618 C616 1.391 . S
C618 C619 1.400 1_556 S
C619 C618 1.400 1_554 S
C619 C620 1.398 . S
C619 C625 1.491 . S
C620 H611 0.950 . S
C620 C619 1.398 . S
C620 C621 1.391 1_554 S
C621 H609 0.950 . S
C621 C617 1.393 . S
C621 C620 1.391 1_556 S
C622 H612 0.950 . S
C622 C623 1.386 . S
C622 C624 1.391 . S
C623 C622 1.386 . S
C623 C627 1.393 . S
C624 H613 0.950 . S
C624 C622 1.391 . S
C624 C625 1.400 . S
C625 C619 1.491 . S
C625 C624 1.400 . S
C625 C626 1.398 . S
C626 H614 0.950 . S
C626 C625 1.398 . S
C626 C627 1.391 . S
C627 H615 0.950 . S
C627 C623 1.393 . S
C627 C626 1.391 . S
H628 C636 0.950 . S
H629 C641 0.950 . S
H630 C638 0.950 . S
H631 C640 0.950 . S
H632 C642 0.950 . S
H633 C644 0.950 . S
H634 C646 0.950 . S
H635 C647 0.950 . S
C636 H628 0.950 . S
C636 C637 1.386 . S
C636 C638 1.391 . S
C637 C636 1.386 . S
C637 C641 1.393 . S
C638 H630 0.950 . S
C638 C636 1.391 . S
C638 C639 1.400 . S
C639 C638 1.400 . S
C639 C640 1.398 . S
C639 C645 1.491 . S
C640 H631 0.950 . S
C640 C639 1.398 . S
C640 C641 1.391 . S
C641 H629 0.950 . S
C641 C637 1.393 . S
C641 C640 1.391 . S
C642 H632 0.950 . S
C642 C643 1.386 . S
C642 C644 1.391 . S
C643 C642 1.386 . S
C643 C647 1.393 . S
C644 H633 0.950 . S
C644 C642 1.391 . S
C644 C645 1.400 . S
C645 C639 1.491 . S
C645 C644 1.400 . S
C645 C646 1.398 . S
C646 H634 0.950 . S
C646 C645 1.398 . S
C646 C647 1.391 . S
C647 H635 0.950 . S
C647 C643 1.393 . S
C647 C646 1.391 . S
H648 C656 0.950 . S
H649 C661 0.950 . S
H650 C658 0.950 . S
H651 C660 0.950 . S
H652 C662 0.950 . S
H653 C664 0.950 . S
H654 C666 0.950 . S
H655 C667 0.950 . S
C656 H648 0.950 . S
C656 C657 1.386 . S
C656 C658 1.391 . S
C657 C656 1.386 . S
C657 C661 1.393 . S
C658 H650 0.950 . S
C658 C656 1.391 . S
C658 C659 1.400 . S
C659 C658 1.400 . S
C659 C660 1.398 . S
C659 C665 1.491 . S
C660 H651 0.950 . S
C660 C659 1.398 . S
C660 C661 1.391 . S
C661 H649 0.950 . S
C661 C657 1.393 . S
C661 C660 1.391 . S
C662 H652 0.950 . S
C662 C663 1.386 . S
C662 C664 1.391 . S
C663 C662 1.386 . S
C663 C667 1.393 . S
C664 H653 0.950 . S
C664 C662 1.391 . S
C664 C665 1.400 . S
C665 C659 1.491 . S
C665 C664 1.400 . S
C665 C666 1.398 . S
C666 H654 0.950 . S
C666 C665 1.398 . S
C666 C667 1.391 . S
C667 H655 0.950 . S
C667 C663 1.393 . S
C667 C666 1.391 . S
H668 C676 0.950 . S
H669 C681 0.950 . S
H670 C678 0.950 1_655 S
H671 C680 0.950 . S
H672 C682 0.950 . S
H673 C684 0.950 1_455 S
H674 C686 0.950 . S
H675 C687 0.950 . S
C676 H668 0.950 . S
C676 C677 1.386 . S
C676 C678 1.391 . S
C677 C676 1.386 . S
C677 C681 1.393 . S
C678 H670 0.950 1_455 S
C678 C676 1.391 . S
C678 C679 1.400 . S
C679 C678 1.400 . S
C679 C680 1.398 . S
C679 C685 1.491 1_455 S
C680 H671 0.950 . S
C680 C679 1.398 . S
C680 C681 1.391 . S
C681 H669 0.950 . S
C681 C677 1.393 . S
C681 C680 1.391 . S
C682 H672 0.950 . S
C682 C683 1.386 . S
C682 C684 1.391 . S
C683 C682 1.386 . S
C683 C687 1.393 . S
C684 H673 0.950 1_655 S
C684 C682 1.391 . S
C684 C685 1.400 . S
C685 C679 1.491 1_655 S
C685 C684 1.400 . S
C685 C686 1.398 . S
C686 H674 0.950 . S
C686 C685 1.398 . S
C686 C687 1.391 . S
C687 H675 0.950 . S
C687 C683 1.393 . S
C687 C686 1.391 . S
H688 C696 0.950 . S
H689 C701 0.950 . S
H690 C698 0.950 . S
H691 C700 0.950 1_655 S
H692 C702 0.950 . S
H693 C704 0.950 . S
H694 C706 0.950 1_455 S
H695 C707 0.950 . S
C696 H688 0.950 . S
C696 C697 1.386 . S
C696 C698 1.391 . S
C697 C696 1.386 . S
C697 C701 1.393 . S
C698 H690 0.950 . S
C698 C696 1.391 . S
C698 C699 1.400 . S
C699 C698 1.400 . S
C699 C700 1.398 . S
C699 C705 1.491 1_455 S
C700 H691 0.950 1_455 S
C700 C699 1.398 . S
C700 C701 1.391 . S
C701 H689 0.950 . S
C701 C697 1.393 . S
C701 C700 1.391 . S
C702 H692 0.950 . S
C702 C703 1.386 . S
C702 C704 1.391 . S
C703 C702 1.386 . S
C703 C707 1.393 . S
C704 H693 0.950 . S
C704 C702 1.391 . S
C704 C705 1.400 . S
C705 C699 1.491 1_655 S
C705 C704 1.400 . S
C705 C706 1.398 . S
C706 H694 0.950 1_655 S
C706 C705 1.398 . S
C706 C707 1.391 . S
C707 H695 0.950 . S
C707 C703 1.393 . S
C707 C706 1.391 . S
H708 C716 0.950 . S
H709 C721 0.950 . S
H710 C718 0.950 . S
H711 C720 0.950 . S
H712 C722 0.950 . S
H713 C724 0.950 . S
H714 C726 0.950 . S
H715 C727 0.950 . S
C716 H708 0.950 . S
C716 C717 1.386 . S
C716 C718 1.391 . S
C717 C716 1.386 . S
C717 C721 1.393 . S
C718 H710 0.950 . S
C718 C716 1.391 . S
C718 C719 1.400 . S
C719 C718 1.400 . S
C719 C720 1.398 . S
C719 C725 1.491 . S
C720 H711 0.950 . S
C720 C719 1.398 . S
C720 C721 1.391 . S
C721 H709 0.950 . S
C721 C717 1.393 . S
C721 C720 1.391 . S
C722 H712 0.950 . S
C722 C723 1.386 . S
C722 C724 1.391 . S
C723 C722 1.386 . S
C723 C727 1.393 . S
C724 H713 0.950 . S
C724 C722 1.391 . S
C724 C725 1.400 . S
C725 C719 1.491 . S
C725 C724 1.400 . S
C725 C726 1.398 . S
C726 H714 0.950 . S
C726 C725 1.398 . S
C726 C727 1.391 . S
C727 H715 0.950 . S
C727 C723 1.393 . S
C727 C726 1.391 . S
H728 C736 0.950 . S
H729 C741 0.950 . S
H730 C738 0.950 . S
H731 C740 0.950 . S
H732 C742 0.950 . S
H733 C744 0.950 . S
H734 C746 0.950 . S
H735 C747 0.950 . S
C736 H728 0.950 . S
C736 C737 1.386 . S
C736 C738 1.391 . S
C737 C736 1.386 . S
C737 C741 1.393 . S
C738 H730 0.950 . S
C738 C736 1.391 . S
C738 C739 1.400 . S
C739 C738 1.400 . S
C739 C740 1.398 . S
C739 C745 1.491 . S
C740 H731 0.950 . S
C740 C739 1.398 . S
C740 C741 1.391 . S
C741 H729 0.950 . S
C741 C737 1.393 . S
C741 C740 1.391 . S
C742 H732 0.950 . S
C742 C743 1.386 . S
C742 C744 1.391 . S
C743 C742 1.386 . S
C743 C747 1.393 . S
C744 H733 0.950 . S
C744 C742 1.391 . S
C744 C745 1.400 . S
C745 C739 1.491 . S
C745 C744 1.400 . S
C745 C746 1.398 . S
C746 H734 0.950 . S
C746 C745 1.398 . S
C746 C747 1.391 . S
C747 H735 0.950 . S
C747 C743 1.393 . S
C747 C746 1.391 . S
H748 C756 0.950 . S
H749 C761 0.950 . S
H750 C758 0.950 . S
H751 C760 0.950 . S
H752 C762 0.950 . S
H753 C764 0.950 . S
H754 C766 0.950 1_545 S
H755 C767 0.950 . S
C756 H748 0.950 . S
C756 C757 1.386 . S
C756 C758 1.391 . S
C757 C756 1.386 . S
C757 C761 1.393 . S
C758 H750 0.950 . S
C758 C756 1.391 . S
C758 C759 1.400 . S
C759 C758 1.400 . S
C759 C760 1.398 . S
C759 C765 1.491 . S
C760 H751 0.950 . S
C760 C759 1.398 . S
C760 C761 1.391 . S
C761 H749 0.950 . S
C761 C757 1.393 . S
C761 C760 1.391 . S
C762 H752 0.950 . S
C762 C763 1.386 . S
C762 C764 1.391 1_565 S
C763 C762 1.386 . S
C763 C767 1.393 . S
C764 H753 0.950 . S
C764 C762 1.391 1_545 S
C764 C765 1.400 . S
C765 C759 1.491 . S
C765 C764 1.400 . S
C765 C766 1.398 1_545 S
C766 H754 0.950 1_565 S
C766 C765 1.398 1_565 S
C766 C767 1.391 . S
C767 H755 0.950 . S
C767 C763 1.393 . S
C767 C766 1.391 . S
H768 C776 0.950 . S
H769 C781 0.950 . S
H770 C778 0.950 . S
H771 C780 0.950 . S
H772 C782 0.950 . S
H773 C784 0.950 . S
H774 C786 0.950 . S
H775 C787 0.950 . S
C776 H768 0.950 . S
C776 C777 1.386 . S
C776 C778 1.391 . S
C777 C776 1.386 . S
C777 C781 1.393 . S
C778 H770 0.950 . S
C778 C776 1.391 . S
C778 C779 1.400 . S
C779 C778 1.400 . S
C779 C780 1.398 . S
C779 C785 1.491 . S
C780 H771 0.950 . S
C780 C779 1.398 . S
C780 C781 1.391 . S
C781 H769 0.950 . S
C781 C777 1.393 . S
C781 C780 1.391 . S
C782 H772 0.950 . S
C782 C783 1.386 . S
C782 C784 1.391 . S
C783 C782 1.386 . S
C783 C787 1.393 . S
C784 H773 0.950 . S
C784 C782 1.391 . S
C784 C785 1.400 . S
C785 C779 1.491 . S
C785 C784 1.400 . S
C785 C786 1.398 . S
C786 H774 0.950 . S
C786 C785 1.398 . S
C786 C787 1.391 . S
C787 H775 0.950 . S
C787 C783 1.393 . S
C787 C786 1.391 . S
H788 C796 0.950 . S
H789 C801 0.950 . S
H790 C798 0.950 . S
H791 C800 0.950 . S
H792 C802 0.950 . S
H793 C804 0.950 . S
H794 C806 0.950 . S
H795 C807 0.950 . S
C796 H788 0.950 . S
C796 C797 1.386 . S
C796 C798 1.391 . S
C797 C796 1.386 . S
C797 C801 1.393 . S
C798 H790 0.950 . S
C798 C796 1.391 . S
C798 C799 1.400 . S
C799 C798 1.400 . S
C799 C800 1.398 . S
C799 C805 1.491 . S
C800 H791 0.950 . S
C800 C799 1.398 . S
C800 C801 1.391 . S
C801 H789 0.950 . S
C801 C797 1.393 . S
C801 C800 1.391 . S
C802 H792 0.950 . S
C802 C803 1.386 . S
C802 C804 1.391 . S
C803 C802 1.386 . S
C803 C807 1.393 . S
C804 H793 0.950 . S
C804 C802 1.391 . S
C804 C805 1.400 . S
C805 C799 1.491 . S
C805 C804 1.400 . S
C805 C806 1.398 . S
C806 H794 0.950 . S
C806 C805 1.398 . S
C806 C807 1.391 . S
C807 H795 0.950 . S
C807 C803 1.393 . S
C807 C806 1.391 . S
H808 C816 0.950 . S
H809 C821 0.950 . S
H810 C818 0.950 . S
H811 C820 0.950 . S
H812 C822 0.950 . S
H813 C824 0.950 . S
H814 C826 0.950 . S
H815 C827 0.950 . S
C816 H808 0.950 . S
C816 C817 1.386 . S
C816 C818 1.391 . S
C817 C816 1.386 . S
C817 C821 1.393 . S
C818 H810 0.950 . S
C818 C816 1.391 . S
C818 C819 1.400 . S
C819 C818 1.400 . S
C819 C820 1.398 . S
C819 C825 1.491 1_545 S
C820 H811 0.950 . S
C820 C819 1.398 . S
C820 C821 1.391 . S
C821 H809 0.950 . S
C821 C817 1.393 . S
C821 C820 1.391 . S
C822 H812 0.950 . S
C822 C823 1.386 . S
C822 C824 1.391 . S
C823 C822 1.386 . S
C823 C827 1.393 . S
C824 H813 0.950 . S
C824 C822 1.391 . S
C824 C825 1.400 . S
C825 C819 1.491 1_565 S
C825 C824 1.400 . S
C825 C826 1.398 . S
C826 H814 0.950 . S
C826 C825 1.398 . S
C826 C827 1.391 . S
C827 H815 0.950 . S
C827 C823 1.393 . S
C827 C826 1.391 . S
H828 C836 0.950 . S
H829 C841 0.950 . S
H830 C838 0.950 . S
H831 C840 0.950 . S
H832 C842 0.950 . S
H833 C844 0.950 . S
H834 C846 0.950 . S
H835 C847 0.950 . S
C836 H828 0.950 . S
C836 C837 1.386 . S
C836 C838 1.391 . S
C837 C836 1.386 . S
C837 C841 1.393 . S
C838 H830 0.950 . S
C838 C836 1.391 . S
C838 C839 1.400 . S
C839 C838 1.400 . S
C839 C840 1.398 . S
C839 C845 1.491 . S
C840 H831 0.950 . S
C840 C839 1.398 . S
C840 C841 1.391 . S
C841 H829 0.950 . S
C841 C837 1.393 . S
C841 C840 1.391 . S
C842 H832 0.950 . S
C842 C843 1.386 . S
C842 C844 1.391 . S
C843 C842 1.386 . S
C843 C847 1.393 . S
C844 H833 0.950 . S
C844 C842 1.391 . S
C844 C845 1.400 . S
C845 C839 1.491 . S
C845 C844 1.400 . S
C845 C846 1.398 . S
C846 H834 0.950 . S
C846 C845 1.398 . S
C846 C847 1.391 . S
C847 H835 0.950 . S
C847 C843 1.393 . S
C847 C846 1.391 . S
C217 C3 1.211 . S
C223 C172 1.197 . S
C237 C18 1.211 . S
C243 C122 1.199 . S
C257 C185 0.811 . S
C263 C29 0.821 . S
C277 C42 0.833 . S
C283 C200 0.823 . S
C297 C57 1.214 . S
C303 C81 1.209 . S
C317 C135 1.211 . S
C323 C70 1.197 . S
C337 C146 0.831 . S
C343 C94 0.821 . S
C357 C109 0.824 . S
C363 C159 0.817 . S
C377 C30 1.873 . S
C383 C5 1.853 . S
C397 C16 1.857 . S
C403 C43 1.874 . S
C417 C161 1.645 . S
C423 C10 1.616 . S
C437 C17 1.614 . S
C443 C148 1.644 . S
C457 C56 1.624 . S
C463 C31 1.648 . S
C477 C134 1.607 . S
C483 C44 1.638 . S
C497 C23 2.113 . S
C503 C4 2.107 . S
C517 C49 1.042 . S
C523 C36 1.033 . S
C537 C140 2.107 . S
C543 C62 2.113 . S
C557 C96 1.624 . S
C563 C75 1.604 . S
C577 C82 1.593 . S
C583 C107 1.622 . S
C597 C205 1.724 . S
C603 C69 1.708 . S
C617 C88 1.713 . S
C623 C186 1.728 . S
C637 C121 1.715 . S
C643 C95 1.730 . S
C657 C114 1.733 . S
C663 C179 1.723 . S
C677 C83 2.126 . S
C683 C68 2.123 . S
C697 C108 1.125 . S
C703 C101 1.139 . S
C717 C120 2.121 . S
C723 C174 2.124 . S
C737 C133 1.851 . S
C743 C147 1.873 . S
C757 C160 1.875 . S
C763 C55 1.862 . S
C777 C166 1.023 . S
C783 C153 1.038 . S
C797 C187 1.625 . S
C803 C173 1.602 . S
C817 C127 1.591 . S
C823 C198 1.620 . S
C837 C199 1.132 . S
C843 C192 1.141 . S
