# Generated by pormake.
# Topology unc, (4)-cn, num edge types: 1
# Building blocks:
#     Node 0, Type 0, BuildingBlock: AZAVOO_clean_sbu_0, # of connection points: 4
#     Node 1, Type 0, BuildingBlock: AZAVOO_clean_sbu_0, # of connection points: 4
#     Node 2, Type 0, BuildingBlock: AZAVOO_clean_sbu_0, # of connection points: 4
#     Node 3, Type 0, BuildingBlock: AZAVOO_clean_sbu_0, # of connection points: 4
#     Edge 4, Type (0, 0), BuildingBlock: MIFKUJ_clean_linker_0, # of connection points: 2
#     Edge 5, Type (0, 0), BuildingBlock: MIFKUJ_clean_linker_0, # of connection points: 2
#     Edge 6, Type (0, 0), BuildingBlock: MIFKUJ_clean_linker_0, # of connection points: 2
#     Edge 7, Type (0, 0), BuildingBlock: MIFKUJ_clean_linker_0, # of connection points: 2
#     Edge 8, Type (0, 0), BuildingBlock: MIFKUJ_clean_linker_0, # of connection points: 2
#     Edge 9, Type (0, 0), BuildingBlock: MIFKUJ_clean_linker_0, # of connection points: 2
#     Edge 10, Type (0, 0), BuildingBlock: MIFKUJ_clean_linker_0, # of connection points: 2
#     Edge 11, Type (0, 0), BuildingBlock: MIFKUJ_clean_linker_0, # of connection points: 2
# Relax obj value: 0.166
# Max RMSD: 0.208
# Mean RMSD: 0.208
data_MOF--net-unc--node1-AZAVOO_clean_sbu_0--edge1-MIFKUJ_clean_linker_0
_symmetry_space_group_name_H-M    P1
_symmetry_Int_Tables_number       1
_symmetry_cell_setting            triclinic
loop_
_symmetry_equiv_pos_as_xyz
'x, y, z'
_cell_length_a     37.482834
_cell_length_b     37.494643
_cell_length_c     28.603943
_cell_angle_alpha  90.073738
_cell_angle_beta   89.868477
_cell_angle_gamma 100.90766
loop_
_atom_site_label
_atom_site_type_symbol
_atom_site_fract_x
_atom_site_fract_y
_atom_site_fract_z
_atom_type_partial_charge
Mg0 Mg 0.00459 0.68565 0.02377 0.0
O1 O 0.0534 0.72719 0.05046 0.0
O2 O 0.09761 0.69659 0.06616 0.0
Mg3 Mg 0.07645 0.63597 0.05636 0.0
C4 C 0.08583 0.72628 0.06331 0.0
C5 C 0.95462 0.74278 0.01951 0.0
O6 O 0.94637 0.72832 0.06085 0.0
O7 O 0.03388 0.6792 0.95485 0.0
O8 O 0.07337 0.64481 0.97772 0.0
O9 O 0.98136 0.67369 0.09606 0.0
O10 O 0.02034 0.64452 0.06258 0.0
C11 C 0.05844 0.66068 0.94578 0.0
C12 C 0.0005 0.64842 0.09813 0.0
O13 O 0.97862 0.73155 -0.00499 0.0
Mg14 Mg 0.40257 0.08883 0.24952 0.0
O15 O 0.36716 0.04589 0.20356 0.0
O16 O 0.40307 0.01338 0.16725 0.0
Mg17 Mg 0.46125 0.03434 0.19096 0.0
C18 C 0.37171 0.0205 0.17565 0.0
C19 C 0.35498 0.12053 0.321 0.0
O20 O 0.38751 0.13022 0.33928 0.0
O21 O 0.40765 0.04491 0.30359 0.0
O22 O 0.44359 0.01392 0.26401 0.0
O23 O 0.41376 0.12621 0.18738 0.0
O24 O 0.44774 0.08697 0.20876 0.0
C25 C 0.42506 0.01876 0.3002 0.0
C26 C 0.44133 0.1108 0.17945 0.0
O27 O 0.3515 0.10187 0.28361 0.0
Mg28 Mg 0.03551 0.36339 0.51397 0.0
O29 O 0.98813 0.32134 0.54401 0.0
O30 O 0.94312 0.35102 0.55963 0.0
Mg31 Mg 0.96172 0.41123 0.54499 0.0
C32 C 0.95581 0.32179 0.558 0.0
C33 C 0.09552 0.31843 0.50246 0.0
O34 O 0.10989 0.34391 0.53208 0.0
O35 O 0.00486 0.36563 0.44527 0.0
O36 O 0.96338 0.39819 0.46724 0.0
O37 O 0.05897 0.3787 0.58531 0.0
O38 O 0.0186 0.40516 0.55043 0.0
C39 C 0.97858 0.38179 0.43597 0.0
C40 C 0.03885 0.40321 0.58609 0.0
O41 O 0.06352 0.3181 0.48758 0.0
Mg42 Mg 0.64845 0.94363 0.73256 0.0
O43 O 0.6831 0.99026 0.69184 0.0
O44 O 0.64659 0.01718 0.64818 0.0
Mg45 Mg 0.58833 0.98656 0.65922 0.0
C46 C 0.67817 0.01472 0.66287 0.0
C47 C 0.69523 0.9282 0.81862 0.0
O48 O 0.66302 0.92107 0.83846 0.0
O49 O 0.62961 0.98493 0.78171 0.0
O50 O 0.59123 0.00682 0.73464 0.0
O51 O 0.65085 0.90561 0.672 0.0
O52 O 0.60827 0.93846 0.6827 0.0
C53 C 0.60642 0.00537 0.77436 0.0
C54 C 0.62201 0.91633 0.65727 0.0
O55 O 0.6979 0.93921 0.77656 0.0
H56 H 0.04707 0.60383 0.12221 0.0
H57 H 0.03468 0.55144 0.17374 0.0
H58 H 0.9314 0.57838 0.21114 0.0
H59 H 0.94402 0.63165 0.15979 0.0
H60 H 0.96384 0.55441 0.28542 0.0
H61 H 0.93524 0.51298 0.12997 0.0
H62 H 0.94569 0.50685 0.04546 0.0
H63 H 0.03615 0.45513 0.07417 0.0
H64 H 0.02659 0.46144 0.15889 0.0
H65 H 0.91415 0.39313 0.40136 0.0
H66 H 0.90796 0.42955 0.33224 0.0
H67 H 0.01807 0.42544 0.29214 0.0
H68 H 0.02429 0.38852 0.36085 0.0
H69 H 0.97267 0.43508 0.21525 0.0
H70 H 0.00675 0.48649 0.36914 0.0
H71 H 0.99662 0.4921 0.45386 0.0
H72 H 0.89504 0.52521 0.42681 0.0
H73 H 0.90431 0.51914 0.34188 0.0
C74 C 0.02197 0.59906 0.14181 0.0
C75 C 0.99636 0.62168 0.1365 0.0
C76 C 0.01478 0.56887 0.17103 0.0
C77 C 0.98161 0.56037 0.19502 0.0
C78 C 0.95698 0.58424 0.19238 0.0
C79 C 0.96433 0.61476 0.16332 0.0
C80 C 0.97272 0.5262 0.22208 0.0
C81 C 0.965 0.52826 0.26981 0.0
C82 C 0.97466 0.49208 0.20178 0.0
C83 C 0.98033 0.48791 0.15082 0.0
C84 C 0.95751 0.50051 0.11828 0.0
C85 C 0.96326 0.49698 0.07033 0.0
C86 C 0.9916 0.48067 0.05445 0.0
C87 C 0.01421 0.46777 0.08651 0.0
C88 C 0.00861 0.47128 0.13451 0.0
C89 C 0.93643 0.39847 0.37658 0.0
C90 C 0.97002 0.38886 0.38699 0.0
C91 C 0.93286 0.41934 0.33717 0.0
C92 C 0.96296 0.4311 0.30813 0.0
C93 C 0.99465 0.41687 0.3145 0.0
C94 C 0.99815 0.39567 0.35378 0.0
C95 C 0.96427 0.46355 0.27842 0.0
C96 C 0.97077 0.46119 0.23041 0.0
C97 C 0.96119 0.49747 0.29834 0.0
C98 C 0.95603 0.50199 0.34927 0.0
C99 C 0.98217 0.49478 0.3813 0.0
C100 C 0.97659 0.49803 0.42933 0.0
C101 C 0.94516 0.50893 0.44571 0.0
C102 C 0.91933 0.51671 0.41407 0.0
C103 C 0.92473 0.51336 0.36599 0.0
H104 H 0.94087 0.51141 0.48291 0.0
H105 H 0.99601 0.47797 0.01731 0.0
H106 H 0.43263 0.03836 0.39198 0.0
H107 H 0.45834 0.00474 0.45261 0.0
H108 H 0.4508 0.91289 0.35968 0.0
H109 H 0.42622 0.9468 0.29865 0.0
H110 H 0.44796 0.94147 0.50128 0.0
H111 H 0.53233 0.88644 0.3596 0.0
H112 H 0.55142 0.89911 0.27766 0.0
H113 H 0.54565 0.01154 0.29644 0.0
H114 H 0.52709 0.99961 0.37861 0.0
H115 H 0.56765 0.8614 0.63324 0.0
H116 H 0.52738 0.86239 0.56599 0.0
H117 H 0.59973 0.95707 0.51269 0.0
H118 H 0.6402 0.95542 0.57921 0.0
H119 H 0.56598 0.91766 0.44219 0.0
H120 H 0.53298 0.96598 0.59042 0.0
H121 H 0.51735 0.96199 0.67439 0.0
H122 H 0.42631 0.87661 0.64574 0.0
H123 H 0.44162 0.8799 0.56164 0.0
C124 C 0.43511 0.0105 0.38524 0.0
C125 C 0.4281 0.99531 0.34059 0.0
C126 C 0.44986 0.99131 0.41982 0.0
C127 C 0.45737 0.95672 0.41008 0.0
C128 C 0.44591 0.93983 0.3675 0.0
C129 C 0.43177 0.95917 0.33278 0.0
C130 C 0.48222 0.94117 0.44085 0.0
C131 C 0.47348 0.93569 0.48826 0.0
C132 C 0.51591 0.93435 0.424 0.0
C133 C 0.5279 0.94201 0.37499 0.0
C134 C 0.53529 0.91387 0.34624 0.0
C135 C 0.546 0.92093 0.29978 0.0
C136 C 0.54961 0.95608 0.28181 0.0
C137 C 0.54273 0.9843 0.31035 0.0
C138 C 0.53212 0.97741 0.35685 0.0
C139 C 0.57581 0.88108 0.60568 0.0
C140 C 0.60707 0.90801 0.61062 0.0
C141 C 0.55263 0.88194 0.56768 0.0
C142 C 0.5602 0.91027 0.53495 0.0
C143 C 0.59337 0.93496 0.53752 0.0
C144 C 0.61661 0.93391 0.57529 0.0
C145 C 0.53172 0.91787 0.50266 0.0
C146 C 0.53991 0.92219 0.45496 0.0
C147 C 0.49803 0.92467 0.51952 0.0
C148 C 0.48867 0.92289 0.56993 0.0
C149 C 0.50976 0.94622 0.60212 0.0
C150 C 0.50096 0.9441 0.64969 0.0
C151 C 0.47095 0.91897 0.66539 0.0
C152 C 0.4496 0.896 0.63353 0.0
C153 C 0.4583 0.89799 0.58593 0.0
H154 H 0.46419 0.91736 0.70223 0.0
H155 H 0.55782 0.96146 0.24581 0.0
H156 H 0.11635 0.63439 0.91204 0.0
H157 H 0.11692 0.59874 0.84109 0.0
H158 H 0.01603 0.62793 0.79786 0.0
H159 H 0.01487 0.66319 0.86959 0.0
H160 H 0.00923 0.55668 0.80687 0.0
H161 H 0.09367 0.64921 0.73071 0.0
H162 H 0.14901 0.6961 0.72195 0.0
H163 H 0.21521 0.61542 0.74035 0.0
H164 H 0.16027 0.56809 0.74992 0.0
H165 H 0.99511 0.45272 0.59952 0.0
H166 H 0.00228 0.50175 0.65616 0.0
H167 H 0.0954 0.46591 0.7146 0.0
H168 H 0.08813 0.41589 0.65774 0.0
H169 H 0.10634 0.54215 0.69433 0.0
H170 H 0.02183 0.45097 0.77554 0.0
H171 H 0.96641 0.40416 0.78443 0.0
H172 H 0.90043 0.48361 0.7564 0.0
H173 H 0.95551 0.53082 0.74666 0.0
C174 C 0.09491 0.63433 0.88668 0.0
C175 C 0.06515 0.65094 0.89689 0.0
C176 C 0.09538 0.61402 0.84591 0.0
C177 C 0.0663 0.61031 0.81441 0.0
C178 C 0.03862 0.63026 0.82195 0.0
C179 C 0.03812 0.65063 0.86284 0.0
C180 C 0.06171 0.58096 0.77895 0.0
C181 C 0.03015 0.55403 0.78152 0.0
C182 C 0.08961 0.57672 0.74718 0.0
C183 C 0.12279 0.60511 0.74139 0.0
C184 C 0.12002 0.64149 0.73329 0.0
C185 C 0.15133 0.66815 0.72809 0.0
C186 C 0.18561 0.65876 0.73068 0.0
C187 C 0.18864 0.62266 0.73837 0.0
C188 C 0.15741 0.59589 0.74361 0.0
C189 C 0.01671 0.45459 0.62482 0.0
C190 C 0.04081 0.43005 0.62433 0.0
C191 C 0.02088 0.48287 0.6571 0.0
C192 C 0.04933 0.4874 0.68947 0.0
C193 C 0.07329 0.4628 0.68971 0.0
C194 C 0.06889 0.43411 0.65756 0.0
C195 C 0.05395 0.51828 0.72246 0.0
C196 C 0.08543 0.54523 0.71949 0.0
C197 C 0.02601 0.52266 0.75395 0.0
C198 C 0.99281 0.49435 0.7599 0.0
C199 C 0.99551 0.4584 0.77086 0.0
C200 C 0.96416 0.43181 0.77613 0.0
C201 C 0.92992 0.44089 0.77086 0.0
C202 C 0.92697 0.47661 0.76041 0.0
C203 C 0.95825 0.5033 0.75505 0.0
H204 H 0.90568 0.42026 0.77497 0.0
H205 H 0.20982 0.67944 0.72665 0.0
H206 H 0.42002 0.13153 0.09339 0.0
H207 H 0.45186 0.12747 0.01889 0.0
H208 H 0.54126 0.09629 0.09311 0.0
H209 H 0.50999 0.10063 0.16697 0.0
H210 H 0.56564 0.13746 0.01822 0.0
H211 H 0.4745 0.03159 0.05362 0.0
H212 H 0.4128 0.99897 0.07301 0.0
H213 H 0.37199 0.03715 0.94612 0.0
H214 H 0.43355 0.07017 0.92604 0.0
H215 H 0.63122 0.0118 0.86516 0.0
H216 H 0.60664 0.04277 0.92991 0.0
H217 H 0.53003 0.07735 0.83605 0.0
H218 H 0.55424 0.04703 0.77146 0.0
H219 H 0.49811 0.04137 0.9152 0.0
H220 H 0.59616 0.13887 0.87574 0.0
H221 H 0.66 0.16662 0.85948 0.0
H222 H 0.69013 0.13947 -0.00218 0.0
H223 H 0.62653 0.11105 0.01469 0.0
C224 C 0.4469 0.12486 0.09371 0.0
C225 C 0.46239 0.11588 0.13568 0.0
C226 C 0.46497 0.12239 0.05126 0.0
C227 C 0.49867 0.11105 0.05055 0.0
C228 C 0.51531 0.10504 0.09284 0.0
C229 C 0.49728 0.1073 0.13498 0.0
C230 C 0.51475 0.10094 0.00631 0.0
C231 C 0.55091 0.11652 -0.00443 0.0
C232 C 0.49546 0.07362 0.97686 0.0
C233 C 0.45848 0.05371 0.98864 0.0
C234 C 0.45231 0.03324 0.03003 0.0
C235 C 0.41738 0.01466 0.04113 0.0
C236 C 0.38843 0.01617 0.011 0.0
C237 C 0.39441 0.03611 0.96952 0.0
C238 C 0.42933 0.05472 0.95821 0.0
C239 C 0.60948 0.0264 0.8582 0.0
C240 C 0.5946 0.02667 0.81315 0.0
C241 C 0.59556 0.04416 0.89516 0.0
C242 C 0.56655 0.0623 0.88758 0.0
C243 C 0.55239 0.06346 0.84253 0.0
C244 C 0.56638 0.04606 0.80565 0.0
C245 C 0.54906 0.07781 0.9271 0.0
C246 C 0.51264 0.06294 0.93714 0.0
C247 C 0.56837 0.10526 0.95626 0.0
C248 C 0.6066 0.12256 0.94634 0.0
C249 C 0.61644 0.13855 0.90258 0.0
C250 C 0.65258 0.15446 0.89327 0.0
C251 C 0.67912 0.15474 0.92756 0.0
C252 C 0.66955 0.13921 0.97128 0.0
C253 C 0.63345 0.12323 0.98075 0.0
H254 H 0.70708 0.16706 0.92029 0.0
H255 H 0.3614 0.00178 0.01971 0.0
H256 H 0.30109 0.03072 0.17531 0.0
H257 H 0.24735 0.98795 0.14878 0.0
H258 H 0.31547 0.91313 0.10527 0.0
H259 H 0.36914 0.956 0.13013 0.0
H260 H 0.26352 0.91118 0.04506 0.0
H261 H 0.26998 0.90723 0.21405 0.0
H262 H 0.27233 0.93331 0.29346 0.0
H263 H 0.16985 0.96581 0.27086 0.0
H264 H 0.16714 0.94029 0.19105 0.0
H265 H 0.15949 0.7364 0.07158 0.0
H266 H 0.20214 0.79321 0.08422 0.0
H267 H 0.11335 0.85128 0.09005 0.0
H268 H 0.07007 0.79427 0.07684 0.0
H269 H 0.16795 0.86866 0.16343 0.0
H270 H 0.159 0.86166 -0.00334 0.0
H271 H 0.15814 0.83154 0.9199 0.0
H272 H 0.26744 0.8157 0.94111 0.0
H273 H 0.26877 0.84523 0.01836 0.0
C274 C 0.30464 0.00534 0.15955 0.0
C275 C 0.33942 0.99666 0.15529 0.0
C276 C 0.27387 0.98085 0.14458 0.0
C277 C 0.27726 0.94698 0.1259 0.0
C278 C 0.31209 0.93904 0.11966 0.0
C279 C 0.34283 0.96362 0.13404 0.0
C280 C 0.2448 0.91881 0.115 0.0
C281 C 0.24269 0.90189 0.07101 0.0
C282 C 0.21706 0.90714 0.14843 0.0
C283 C 0.21857 0.92227 0.19644 0.0
C284 C 0.24808 0.92016 0.22593 0.0
C285 C 0.24946 0.93481 0.271 0.0
C286 C 0.22132 0.95132 0.28714 0.0
C287 C 0.19167 0.9531 0.25827 0.0
C288 C 0.19019 0.93854 0.21313 0.0
C289 C 0.14885 0.76114 0.07573 0.0
C290 C 0.11131 0.76076 0.0731 0.0
C291 C 0.17333 0.79362 0.08274 0.0
C292 C 0.16086 0.82639 0.08758 0.0
C293 C 0.12342 0.8262 0.08617 0.0
C294 C 0.09881 0.79365 0.07855 0.0
C295 C 0.18742 0.8606 0.09412 0.0
C296 C 0.18839 0.87856 0.13722 0.0
C297 C 0.21441 0.87289 0.06017 0.0
C298 C 0.21389 0.85548 0.01346 0.0
C299 C 0.18277 0.85153 0.98511 0.0
C300 C 0.18221 0.8346 0.94148 0.0
C301 C 0.2127 0.82167 0.92567 0.0
C302 C 0.24384 0.82573 0.95341 0.0
C303 C 0.24453 0.84262 -0.0029 0.0
H304 H 0.21221 0.80854 0.89189 0.0
H305 H 0.22244 0.96265 0.32204 0.0
H306 H 0.35433 0.16274 0.39869 0.0
H307 H 0.30372 0.18769 0.43002 0.0
H308 H 0.23358 0.13272 0.32236 0.0
H309 H 0.28444 0.108 0.29019 0.0
H310 H 0.22628 0.20183 0.32966 0.0
H311 H 0.22373 0.10408 0.43611 0.0
H312 H 0.24851 0.06475 0.49148 0.0
H313 H 0.28138 0.15545 0.58362 0.0
H314 H 0.25725 0.19547 0.52849 0.0
H315 H 0.07677 0.26514 0.43613 0.0
H316 H 0.11436 0.22331 0.40609 0.0
H317 H 0.20057 0.26988 0.50005 0.0
H318 H 0.16325 0.31131 0.5305 0.0
H319 H 0.1921 0.19667 0.49752 0.0
H320 H 0.2018 0.29511 0.38552 0.0
H321 H 0.17758 0.33457 0.32971 0.0
H322 H 0.13092 0.24136 0.24784 0.0
H323 H 0.15451 0.20129 0.30356 0.0
C324 C 0.32809 0.15562 0.38185 0.0
C325 C 0.32347 0.13339 0.34187 0.0
C326 C 0.29907 0.16978 0.4 0.0
C327 C 0.2647 0.16177 0.37888 0.0
C328 C 0.25984 0.13919 0.3393 0.0
C329 C 0.28892 0.12502 0.32104 0.0
C330 C 0.2346 0.17872 0.39679 0.0
C331 C 0.21824 0.20003 0.36617 0.0
C332 C 0.22444 0.17684 0.44456 0.0
C333 C 0.23887 0.15284 0.47797 0.0
C334 C 0.23647 0.11571 0.46802 0.0
C335 C 0.25036 0.09327 0.4994 0.0
C336 C 0.26656 0.1076 0.54101 0.0
C337 C 0.26883 0.14439 0.55137 0.0
C338 C 0.255 0.16695 0.5201 0.0
C339 C 0.10364 0.26629 0.45059 0.0
C340 C 0.1171 0.29173 0.48551 0.0
C341 C 0.12511 0.24244 0.4333 0.0
C342 C 0.1604 0.24371 0.45054 0.0
C343 C 0.17343 0.26839 0.48626 0.0
C344 C 0.15207 0.29219 0.50348 0.0
C345 C 0.18452 0.22036 0.43061 0.0
C346 C 0.19973 0.19789 0.46086 0.0
C347 C 0.19359 0.22112 0.38251 0.0
C348 C 0.17953 0.24519 0.34898 0.0
C349 C 0.18613 0.28302 0.35582 0.0
C350 C 0.17256 0.30549 0.32417 0.0
C351 C 0.15262 0.29048 0.28533 0.0
C352 C 0.1463 0.25295 0.27799 0.0
C353 C 0.15977 0.23035 0.30957 0.0
H354 H 0.14215 0.30792 0.26087 0.0
H355 H 0.27731 0.09019 0.56525 0.0
H356 H 0.75044 0.01282 0.67358 0.0
H357 H 0.80242 0.06006 0.65289 0.0
H358 H 0.72963 0.12654 0.59915 0.0
H359 H 0.6777 0.07905 0.61825 0.0
H360 H 0.78524 0.13171 0.54382 0.0
H361 H 0.76952 0.1393 0.71052 0.0
H362 H 0.76435 0.11623 0.79144 0.0
H363 H 0.87134 0.09131 0.78202 0.0
H364 H 0.87695 0.11384 0.70077 0.0
H365 H 0.88221 0.31016 0.56751 0.0
H366 H 0.84087 0.25303 0.58304 0.0
H367 H 0.93154 0.19778 0.59199 0.0
H368 H 0.97358 0.25514 0.57565 0.0
H369 H 0.87383 0.18213 0.66682 0.0
H370 H 0.88987 0.18287 0.49998 0.0
H371 H 0.89295 0.21051 0.42155 0.0
H372 H 0.78218 0.22419 0.43437 0.0
H373 H 0.77861 0.19715 0.51322 0.0
C374 C 0.7455 0.0374 0.65705 0.0
C375 C 0.70986 0.04222 0.64781 0.0
C376 C 0.77527 0.06446 0.64545 0.0
C377 C 0.76995 0.09715 0.62518 0.0
C378 C 0.73446 0.10158 0.61478 0.0
C379 C 0.70474 0.07438 0.62582 0.0
C380 C 0.8011 0.12722 0.61565 0.0
C381 C 0.80447 0.14275 0.57084 0.0
C382 C 0.82675 0.14128 0.65057 0.0
C383 C 0.82348 0.12783 0.69941 0.0
C384 C 0.79183 0.12864 0.72559 0.0
C385 C 0.78884 0.11571 0.77153 0.0
C386 C 0.81745 0.1022 0.7918 0.0
C387 C 0.84917 0.10171 0.76623 0.0
C388 C 0.85228 0.11457 0.72025 0.0
C389 C 0.89357 0.28601 0.57306 0.0
C390 C 0.93127 0.28724 0.57021 0.0
C391 C 0.86983 0.25336 0.58181 0.0
C392 C 0.8832 0.22128 0.58831 0.0
C393 C 0.92081 0.22236 0.58694 0.0
C394 C 0.9447 0.25508 0.57749 0.0
C395 C 0.85733 0.18672 0.59545 0.0
C396 C 0.85492 0.1705 0.63973 0.0
C397 C 0.83218 0.17237 0.56034 0.0
C398 C 0.83407 0.18821 0.51266 0.0
C399 C 0.86625 0.19202 0.48622 0.0
C400 C 0.86807 0.20753 0.44166 0.0
C401 C 0.8378 0.21915 0.42302 0.0
C402 C 0.80561 0.21519 0.44886 0.0
C403 C 0.80366 0.19972 0.49347 0.0
H404 H 0.83927 0.23118 0.38853 0.0
H405 H 0.81509 0.0922 0.82737 0.0
H406 H 0.76453 0.93519 0.78475 0.0
H407 H 0.81539 0.91308 0.82035 0.0
H408 H 0.7497 0.87827 0.94184 0.0
H409 H 0.69866 0.90052 0.90667 0.0
H410 H 0.82135 0.90836 0.96446 0.0
H411 H 0.7563 0.81865 0.85755 0.0
H412 H 0.73046 0.79722 0.78105 0.0
H413 H 0.83639 0.82348 0.71839 0.0
H414 H 0.86278 0.84554 0.79446 0.0
H415 H 0.89679 0.7659 0.05919 0.0
H416 H 0.86016 0.80664 0.02589 0.0
H417 H 0.92987 0.82233 0.90444 0.0
H418 H 0.96624 0.78062 0.93713 0.0
H419 H 0.86214 0.8082 0.87845 0.0
H420 H 0.92898 0.8911 0.9867 0.0
H421 H 0.95546 0.91296 0.06267 0.0
H422 H 0.84865 0.90117 0.1223 0.0
H423 H 0.82151 0.87873 0.04685 0.0
C424 C 0.76099 0.9233 0.81934 0.0
C425 C 0.72735 0.91919 0.84264 0.0
C426 C 0.7901 0.91064 0.83958 0.0
C427 C 0.78611 0.89357 0.8834 0.0
C428 C 0.75329 0.8913 0.90792 0.0
C429 C 0.72411 0.90391 0.88767 0.0
C430 C 0.81504 0.8756 0.90214 0.0
C431 C 0.8302 0.88632 0.9459 0.0
C432 C 0.82725 0.84757 0.87718 0.0
C433 C 0.81143 0.83412 0.83154 0.0
C434 C 0.77403 0.82012 0.82737 0.0
C435 C 0.75929 0.80781 0.78411 0.0
C436 C 0.78175 0.80909 0.74485 0.0
C437 C 0.81902 0.82257 0.74881 0.0
C438 C 0.83388 0.83496 0.79198 0.0
C439 C 0.90463 0.77828 0.02561 0.0
C440 C 0.93438 0.76989 0.00074 0.0
C441 C 0.88377 0.80184 0.00673 0.0
C442 C 0.89248 0.81798 0.96289 0.0
C443 C 0.92266 0.81027 0.93839 0.0
C444 C 0.94344 0.78645 0.95713 0.0
C445 C 0.86838 0.84057 0.94129 0.0
C446 C 0.85392 0.83064 0.89691 0.0
C447 C 0.85703 0.86943 0.96564 0.0
C448 C 0.87322 0.88296 0.01114 0.0
C449 C 0.91113 0.8929 0.01609 0.0
C450 C 0.92627 0.90544 0.05906 0.0
C451 C 0.90376 0.90839 0.09731 0.0
C452 C 0.86606 0.89886 0.09265 0.0
C453 C 0.85078 0.88627 0.04976 0.0
H454 H 0.91553 0.91811 0.13055 0.0
H455 H 0.77029 0.79955 0.71139 0.0
loop_
_geom_bond_atom_site_label_1
_geom_bond_atom_site_label_2
_geom_bond_distance
_geom_bond_site_symmetry_2
_ccdc_geom_bond_type
Mg0 O1 2.027 1_656 S
Mg0 O7 1.997 1_655 S
Mg0 O9 2.102 1_556 S
Mg0 O10 2.245 1_656 S
Mg0 O13 2.014 . S
O1 Mg0 2.027 1_454 S
O1 C4 1.250 . S
O2 Mg3 2.028 . S
O2 C4 1.248 . S
Mg3 O2 2.028 . S
Mg3 O8 2.032 1_554 S
Mg3 O10 2.079 . S
C4 O1 1.250 . S
C4 O2 1.248 . S
C5 O6 1.264 . S
C5 O13 1.249 . S
O6 C5 1.264 . S
O7 Mg0 1.997 1_455 S
O7 C11 1.246 . S
O8 Mg3 2.032 1_556 S
O8 C11 1.259 . S
O9 Mg0 2.102 1_554 S
O9 C12 1.252 . S
O10 Mg0 2.245 1_454 S
O10 Mg3 2.079 . S
O10 C12 1.273 1_455 S
C11 O7 1.246 . S
C11 O8 1.259 . S
C12 O9 1.252 . S
C12 O10 1.273 1_655 S
O13 Mg0 2.014 . S
O13 C5 1.249 . S
Mg14 O15 2.028 . S
Mg14 O21 1.986 . S
Mg14 O23 2.114 . S
Mg14 O24 2.251 . S
Mg14 O27 2.010 . S
O15 Mg14 2.028 . S
O15 C18 1.250 1_545 S
O16 Mg17 2.028 . S
O16 C18 1.248 . S
Mg17 O16 2.028 . S
Mg17 O22 2.032 . S
Mg17 O24 2.079 1_565 S
C18 O15 1.250 1_565 S
C18 O16 1.248 . S
C19 O20 1.264 . S
C19 O27 1.249 . S
O20 C19 1.264 . S
O21 Mg14 1.986 . S
O21 C25 1.246 . S
O22 Mg17 2.032 . S
O22 C25 1.259 1_565 S
O23 Mg14 2.114 . S
O23 C26 1.252 . S
O24 Mg14 2.251 . S
O24 Mg17 2.079 1_545 S
O24 C26 1.273 . S
C25 O21 1.246 . S
C25 O22 1.259 1_545 S
C26 O23 1.252 . S
C26 O24 1.273 . S
O27 Mg14 2.010 . S
O27 C19 1.249 . S
Mg28 O29 2.028 . S
Mg28 O35 1.986 . S
Mg28 O37 2.114 . S
Mg28 O38 2.251 . S
Mg28 O41 2.010 . S
O29 Mg28 2.028 . S
O29 C32 1.250 1_455 S
O30 Mg31 2.028 . S
O30 C32 1.248 . S
Mg31 O30 2.028 . S
Mg31 O36 2.032 . S
Mg31 O38 2.079 1_655 S
C32 O29 1.250 1_655 S
C32 O30 1.248 . S
C33 O34 1.264 . S
C33 O41 1.249 . S
O34 C33 1.264 . S
O35 Mg28 1.986 . S
O35 C39 1.246 . S
O36 Mg31 2.032 . S
O36 C39 1.259 1_655 S
O37 Mg28 2.114 . S
O37 C40 1.252 . S
O38 Mg28 2.251 . S
O38 Mg31 2.079 1_455 S
O38 C40 1.273 . S
C39 O35 1.246 . S
C39 O36 1.259 1_455 S
C40 O37 1.252 . S
C40 O38 1.273 . S
O41 Mg28 2.010 . S
O41 C33 1.249 . S
Mg42 O43 2.028 1_565 S
Mg42 O49 1.986 1_565 S
Mg42 O51 2.114 . S
Mg42 O52 2.251 1_565 S
Mg42 O55 2.010 . S
O43 Mg42 2.028 1_545 S
O43 C46 1.250 . S
O44 Mg45 2.028 . S
O44 C46 1.248 . S
Mg45 O44 2.028 . S
Mg45 O50 2.032 . S
Mg45 O52 2.079 . S
C46 O43 1.250 . S
C46 O44 1.248 . S
C47 O48 1.264 . S
C47 O55 1.249 . S
O48 C47 1.264 . S
O49 Mg42 1.986 1_545 S
O49 C53 1.246 . S
O50 Mg45 2.032 . S
O50 C53 1.259 . S
O51 Mg42 2.114 . S
O51 C54 1.252 . S
O52 Mg42 2.251 1_545 S
O52 Mg45 2.079 . S
O52 C54 1.273 1_545 S
C53 O49 1.246 . S
C53 O50 1.259 . S
C54 O51 1.252 . S
C54 O52 1.273 1_565 S
O55 Mg42 2.010 . S
O55 C47 1.249 . S
H56 C74 0.951 . S
H57 C76 0.951 . S
H58 C78 0.950 . S
H59 C79 0.950 . S
H60 C81 0.950 . S
H61 C84 0.950 . S
H62 C85 0.950 . S
H63 C87 0.950 . S
H64 C88 0.950 . S
H65 C89 0.951 . S
H66 C91 0.951 . S
H67 C93 0.950 . S
H68 C94 0.950 . S
H69 C96 0.950 . S
H70 C99 0.950 . S
H71 C100 0.950 . S
H72 C102 0.950 . S
H73 C103 0.950 . S
C74 H56 0.951 . S
C74 C75 1.366 1_455 S
C74 C76 1.388 . S
C75 C74 1.366 1_655 S
C75 C79 1.385 . S
C76 H57 0.951 . S
C76 C74 1.388 . S
C76 C77 1.366 1_455 S
C77 C76 1.366 1_655 S
C77 C78 1.414 . S
C77 C80 1.499 . S
C78 H58 0.950 . S
C78 C77 1.414 . S
C78 C79 1.374 . S
C79 H59 0.950 . S
C79 C75 1.385 . S
C79 C78 1.374 . S
C80 C77 1.499 . S
C80 C81 1.373 . S
C80 C82 1.389 1_655 S
C81 H60 0.950 . S
C81 C80 1.373 . S
C81 C97 1.377 . S
C82 C80 1.389 1_455 S
C82 C83 1.524 . S
C82 C96 1.377 . S
C83 C82 1.524 . S
C83 C84 1.397 . S
C83 C88 1.363 . S
C84 H61 0.950 . S
C84 C83 1.397 . S
C84 C85 1.334 . S
C85 H62 0.950 . S
C85 C84 1.334 . S
C85 C86 1.287 . S
C86 C85 1.287 . S
C86 C87 1.524 . S
C86 H105 0.913 . S
C87 H63 0.950 . S
C87 C86 1.524 . S
C87 C88 1.415 . S
C88 H64 0.950 . S
C88 C83 1.363 . S
C88 C87 1.415 . S
C89 H65 0.951 . S
C89 C90 1.366 1_655 S
C89 C91 1.388 . S
C90 C89 1.366 1_455 S
C90 C94 1.385 . S
C91 H66 0.951 . S
C91 C89 1.388 . S
C91 C92 1.366 1_655 S
C92 C91 1.366 1_455 S
C92 C93 1.414 . S
C92 C95 1.499 . S
C93 H67 0.950 . S
C93 C92 1.414 . S
C93 C94 1.374 . S
C94 H68 0.950 . S
C94 C90 1.385 . S
C94 C93 1.374 . S
C95 C92 1.499 . S
C95 C96 1.373 . S
C95 C97 1.389 1_455 S
C96 H69 0.950 . S
C96 C82 1.377 . S
C96 C95 1.373 . S
C97 C81 1.377 . S
C97 C95 1.389 1_655 S
C97 C98 1.524 . S
C98 C97 1.524 . S
C98 C99 1.397 . S
C98 C103 1.363 . S
C99 H70 0.950 . S
C99 C98 1.397 . S
C99 C100 1.334 . S
C100 H71 0.950 . S
C100 C99 1.334 . S
C100 C101 1.287 . S
C101 C100 1.287 . S
C101 C102 1.524 . S
C101 H104 0.999 . S
C102 H72 0.950 . S
C102 C101 1.524 . S
C102 C103 1.415 . S
C103 H73 0.950 . S
C103 C98 1.363 . S
C103 C102 1.415 . S
H104 C101 0.999 . S
H105 C86 0.913 . S
H106 C124 0.951 . S
H107 C126 0.951 . S
H108 C128 0.950 . S
H109 C129 0.950 . S
H110 C131 0.950 . S
H111 C134 0.951 1_565 S
H112 C135 0.950 1_565 S
H113 C137 0.950 . S
H114 C138 0.950 . S
H115 C139 0.951 . S
H116 C141 0.951 . S
H117 C143 0.950 . S
H118 C144 0.950 . S
H119 C146 0.950 . S
H120 C149 0.950 . S
H121 C150 0.950 1_545 S
H122 C152 0.950 . S
H123 C153 0.950 . S
C124 H106 0.951 . S
C124 C125 1.366 . S
C124 C126 1.388 . S
C125 C124 1.366 . S
C125 C129 1.385 1_545 S
C126 H107 0.951 . S
C126 C124 1.388 . S
C126 C127 1.366 . S
C127 C126 1.366 . S
C127 C128 1.414 1_545 S
C127 C130 1.499 . S
C128 H108 0.950 . S
C128 C127 1.414 1_565 S
C128 C129 1.374 . S
C129 H109 0.950 . S
C129 C125 1.385 1_565 S
C129 C128 1.374 . S
C130 C127 1.499 . S
C130 C131 1.373 1_545 S
C130 C132 1.389 . S
C131 H110 0.950 . S
C131 C130 1.373 1_565 S
C131 C147 1.377 . S
C132 C130 1.389 . S
C132 C133 1.524 . S
C132 C146 1.377 . S
C133 C132 1.524 . S
C133 C134 1.395 . S
C133 C138 1.363 . S
C134 H111 0.951 1_545 S
C134 C133 1.395 . S
C134 C135 1.334 . S
C135 H112 0.950 1_545 S
C135 C134 1.334 . S
C135 C136 1.287 . S
C136 C135 1.287 . S
C136 C137 1.524 . S
C136 H155 0.913 . S
C137 H113 0.950 . S
C137 C136 1.524 . S
C137 C138 1.415 . S
C138 H114 0.950 . S
C138 C133 1.363 . S
C138 C137 1.415 . S
C139 H115 0.951 . S
C139 C140 1.366 . S
C139 C141 1.388 . S
C140 C139 1.366 . S
C140 C144 1.385 1_565 S
C141 H116 0.951 . S
C141 C139 1.388 . S
C141 C142 1.366 . S
C142 C141 1.366 . S
C142 C143 1.414 1_565 S
C142 C145 1.499 1_565 S
C143 H117 0.950 . S
C143 C142 1.414 1_545 S
C143 C144 1.374 . S
C144 H118 0.950 . S
C144 C140 1.385 1_545 S
C144 C143 1.374 . S
C145 C142 1.499 1_545 S
C145 C146 1.373 . S
C145 C147 1.389 1_545 S
C146 H119 0.950 . S
C146 C132 1.377 . S
C146 C145 1.373 . S
C147 C131 1.377 . S
C147 C145 1.389 1_565 S
C147 C148 1.524 . S
C148 C147 1.524 . S
C148 C149 1.397 1_565 S
C148 C153 1.363 . S
C149 H120 0.950 . S
C149 C148 1.397 1_545 S
C149 C150 1.334 1_545 S
C150 H121 0.950 1_565 S
C150 C149 1.334 1_565 S
C150 C151 1.287 . S
C151 C150 1.287 . S
C151 C152 1.524 . S
C151 H154 0.999 . S
C152 H122 0.950 . S
C152 C151 1.524 . S
C152 C153 1.415 . S
C153 H123 0.950 . S
C153 C148 1.363 . S
C153 C152 1.415 . S
H154 C151 0.999 . S
H155 C136 0.913 . S
H156 C174 0.951 . S
H157 C176 0.951 . S
H158 C178 0.935 1_655 S
H159 C179 0.950 . S
H160 C181 0.950 . S
H161 C184 0.950 . S
H162 C185 0.950 . S
H163 C187 0.950 . S
H164 C188 0.950 . S
H165 C189 0.951 1_655 S
H166 C191 0.951 1_655 S
H167 C193 0.950 . S
H168 C194 0.950 . S
H169 C196 0.950 . S
H170 C199 0.950 . S
H171 C200 0.950 . S
H172 C202 0.950 . S
H173 C203 0.950 . S
C174 H156 0.951 . S
C174 C175 1.366 . S
C174 C176 1.388 . S
C175 C174 1.366 . S
C175 C179 1.385 1_455 S
C176 H157 0.951 . S
C176 C174 1.388 . S
C176 C177 1.366 . S
C177 C176 1.366 . S
C177 C178 1.434 . S
C177 C180 1.499 . S
C178 H158 0.935 1_455 S
C178 C177 1.434 . S
C178 C179 1.370 1_455 S
C179 H159 0.950 . S
C179 C175 1.385 1_655 S
C179 C178 1.370 1_655 S
C180 C177 1.499 . S
C180 C181 1.373 . S
C180 C182 1.389 . S
C181 H160 0.950 . S
C181 C180 1.373 . S
C181 C197 1.377 . S
C182 C180 1.389 . S
C182 C183 1.524 . S
C182 C196 1.377 . S
C183 C182 1.524 . S
C183 C184 1.397 . S
C183 C188 1.363 . S
C184 H161 0.950 . S
C184 C183 1.397 . S
C184 C185 1.334 . S
C185 H162 0.950 . S
C185 C184 1.334 . S
C185 C186 1.287 . S
C186 C185 1.287 . S
C186 C187 1.524 . S
C186 H205 0.913 . S
C187 H163 0.950 . S
C187 C186 1.524 . S
C187 C188 1.415 . S
C188 H164 0.950 . S
C188 C183 1.363 . S
C188 C187 1.415 . S
C189 H165 0.951 1_455 S
C189 C190 1.366 . S
C189 C191 1.388 . S
C190 C189 1.366 . S
C190 C194 1.385 . S
C191 H166 0.951 1_455 S
C191 C189 1.388 . S
C191 C192 1.366 . S
C192 C191 1.366 . S
C192 C193 1.414 . S
C192 C195 1.499 . S
C193 H167 0.950 . S
C193 C192 1.414 . S
C193 C194 1.374 . S
C194 H168 0.950 . S
C194 C190 1.385 . S
C194 C193 1.374 . S
C195 C192 1.499 . S
C195 C196 1.373 . S
C195 C197 1.389 . S
C196 H169 0.950 . S
C196 C182 1.377 . S
C196 C195 1.373 . S
C197 C181 1.377 . S
C197 C195 1.389 . S
C197 C198 1.524 . S
C198 C197 1.524 . S
C198 C199 1.397 . S
C198 C203 1.363 1_455 S
C199 H170 0.950 . S
C199 C198 1.397 . S
C199 C200 1.334 . S
C200 H171 0.950 . S
C200 C199 1.334 . S
C200 C201 1.287 1_455 S
C201 C200 1.287 1_655 S
C201 C202 1.524 . S
C201 H204 0.999 . S
C202 H172 0.950 . S
C202 C201 1.524 . S
C202 C203 1.415 . S
C203 H173 0.950 . S
C203 C198 1.363 1_655 S
C203 C202 1.415 . S
H204 C201 0.999 . S
H205 C186 0.913 . S
H206 C224 0.951 . S
H207 C226 0.951 . S
H208 C228 0.950 . S
H209 C229 0.950 . S
H210 C231 0.950 . S
H211 C234 0.950 . S
H212 C235 0.950 . S
H213 C237 0.950 1_556 S
H214 C238 0.950 1_556 S
H215 C239 0.951 . S
H216 C241 0.951 . S
H217 C243 0.950 . S
H218 C244 0.950 . S
H219 C246 0.950 1_565 S
H220 C249 0.950 . S
H221 C250 0.950 . S
H222 C252 0.950 . S
H223 C253 0.950 . S
C224 H206 0.951 . S
C224 C225 1.366 . S
C224 C226 1.388 . S
C225 C224 1.366 . S
C225 C229 1.385 . S
C226 H207 0.951 . S
C226 C224 1.388 . S
C226 C227 1.366 . S
C227 C226 1.366 . S
C227 C228 1.414 . S
C227 C230 1.499 . S
C228 H208 0.950 . S
C228 C227 1.414 . S
C228 C229 1.374 . S
C229 H209 0.950 . S
C229 C225 1.385 . S
C229 C228 1.374 . S
C230 C227 1.499 . S
C230 C231 1.373 . S
C230 C232 1.389 . S
C231 H210 0.950 . S
C231 C230 1.373 . S
C231 C247 1.377 . S
C232 C230 1.389 . S
C232 C233 1.524 1_545 S
C232 C246 1.377 1_554 S
C233 C232 1.524 1_565 S
C233 C234 1.397 . S
C233 C238 1.363 . S
C234 H211 0.950 . S
C234 C233 1.397 . S
C234 C235 1.334 . S
C235 H212 0.950 . S
C235 C234 1.334 . S
C235 C236 1.287 . S
C236 C235 1.287 . S
C236 C237 1.524 . S
C236 H255 0.913 . S
C237 H213 0.950 1_554 S
C237 C236 1.524 . S
C237 C238 1.415 . S
C238 H214 0.950 1_554 S
C238 C233 1.363 . S
C238 C237 1.415 . S
C239 H215 0.951 . S
C239 C240 1.366 . S
C239 C241 1.388 . S
C240 C239 1.366 . S
C240 C244 1.385 . S
C241 H216 0.951 . S
C241 C239 1.388 . S
C241 C242 1.366 . S
C242 C241 1.366 . S
C242 C243 1.414 . S
C242 C245 1.499 . S
C243 H217 0.950 . S
C243 C242 1.414 . S
C243 C244 1.374 . S
C244 H218 0.950 . S
C244 C240 1.385 . S
C244 C243 1.374 . S
C245 C242 1.499 . S
C245 C246 1.373 . S
C245 C247 1.389 1_556 S
C246 H219 0.950 1_545 S
C246 C232 1.377 1_556 S
C246 C245 1.373 . S
C247 C231 1.377 . S
C247 C245 1.389 1_554 S
C247 C248 1.524 1_554 S
C248 C247 1.524 1_556 S
C248 C249 1.397 . S
C248 C253 1.363 1_556 S
C249 H220 0.950 . S
C249 C248 1.397 . S
C249 C250 1.334 . S
C250 H221 0.950 . S
C250 C249 1.334 . S
C250 C251 1.287 . S
C251 C250 1.287 . S
C251 C252 1.524 1_556 S
C251 H254 0.999 . S
C252 H222 0.950 . S
C252 C251 1.524 1_554 S
C252 C253 1.415 . S
C253 H223 0.950 . S
C253 C248 1.363 1_554 S
C253 C252 1.415 . S
H254 C251 0.999 . S
H255 C236 0.913 . S
H256 C274 0.951 . S
H257 C276 0.951 . S
H258 C278 0.950 . S
H259 C279 0.950 . S
H260 C281 0.950 . S
H261 C284 0.950 . S
H262 C285 0.950 . S
H263 C287 0.950 . S
H264 C288 0.950 . S
H265 C289 0.951 . S
H266 C291 0.951 . S
H267 C293 0.950 . S
H268 C294 0.950 . S
H269 C296 0.950 . S
H270 C299 0.954 . S
H271 C300 0.950 . S
H272 C302 0.950 . S
H273 C303 0.950 . S
C274 H256 0.951 . S
C274 C275 1.366 . S
C274 C276 1.388 . S
C275 C274 1.366 . S
C275 C279 1.385 . S
C276 H257 0.951 . S
C276 C274 1.388 . S
C276 C277 1.366 . S
C277 C276 1.366 . S
C277 C278 1.414 . S
C277 C280 1.499 . S
C278 H258 0.950 . S
C278 C277 1.414 . S
C278 C279 1.374 . S
C279 H259 0.950 . S
C279 C275 1.385 . S
C279 C278 1.374 . S
C280 C277 1.499 . S
C280 C281 1.373 . S
C280 C282 1.389 . S
C281 H260 0.950 . S
C281 C280 1.373 . S
C281 C297 1.377 . S
C282 C280 1.389 . S
C282 C283 1.524 . S
C282 C296 1.377 . S
C283 C282 1.524 . S
C283 C284 1.397 . S
C283 C288 1.363 . S
C284 H261 0.950 . S
C284 C283 1.397 . S
C284 C285 1.334 . S
C285 H262 0.950 . S
C285 C284 1.334 . S
C285 C286 1.287 . S
C286 C285 1.287 . S
C286 C287 1.524 . S
C286 H305 0.913 . S
C287 H263 0.950 . S
C287 C286 1.524 . S
C287 C288 1.415 . S
C288 H264 0.950 . S
C288 C283 1.363 . S
C288 C287 1.415 . S
C289 H265 0.951 . S
C289 C290 1.366 . S
C289 C291 1.388 . S
C290 C289 1.366 . S
C290 C294 1.385 . S
C291 H266 0.951 . S
C291 C289 1.388 . S
C291 C292 1.366 . S
C292 C291 1.366 . S
C292 C293 1.414 . S
C292 C295 1.499 . S
C293 H267 0.950 . S
C293 C292 1.414 . S
C293 C294 1.374 . S
C294 H268 0.950 . S
C294 C290 1.385 . S
C294 C293 1.374 . S
C295 C292 1.499 . S
C295 C296 1.373 . S
C295 C297 1.389 . S
C296 H269 0.950 . S
C296 C282 1.377 . S
C296 C295 1.373 . S
C297 C281 1.377 . S
C297 C295 1.389 . S
C297 C298 1.524 . S
C298 C297 1.524 . S
C298 C299 1.412 . S
C298 C303 1.363 . S
C299 H270 0.954 . S
C299 C298 1.412 . S
C299 C300 1.315 1_554 S
C300 H271 0.950 . S
C300 C299 1.315 1_556 S
C300 C301 1.287 . S
C301 C300 1.287 . S
C301 C302 1.524 . S
C301 H304 0.999 . S
C302 H272 0.950 . S
C302 C301 1.524 . S
C302 C303 1.415 1_556 S
C303 H273 0.950 . S
C303 C298 1.363 . S
C303 C302 1.415 1_554 S
H304 C301 0.999 . S
H305 C286 0.913 . S
H306 C324 0.951 . S
H307 C326 0.951 . S
H308 C328 0.950 . S
H309 C329 0.950 . S
H310 C331 0.950 . S
H311 C334 0.950 . S
H312 C335 0.950 . S
H313 C337 0.950 . S
H314 C338 0.950 . S
H315 C339 0.951 . S
H316 C341 0.951 . S
H317 C343 0.950 . S
H318 C344 0.950 . S
H319 C346 0.950 . S
H320 C349 0.950 . S
H321 C350 0.950 . S
H322 C352 0.950 . S
H323 C353 0.950 . S
C324 H306 0.951 . S
C324 C325 1.366 . S
C324 C326 1.388 . S
C325 C324 1.366 . S
C325 C329 1.385 . S
C326 H307 0.951 . S
C326 C324 1.388 . S
C326 C327 1.366 . S
C327 C326 1.366 . S
C327 C328 1.414 . S
C327 C330 1.499 . S
C328 H308 0.950 . S
C328 C327 1.414 . S
C328 C329 1.374 . S
C329 H309 0.950 . S
C329 C325 1.385 . S
C329 C328 1.374 . S
C330 C327 1.499 . S
C330 C331 1.373 . S
C330 C332 1.389 . S
C331 H310 0.950 . S
C331 C330 1.373 . S
C331 C347 1.377 . S
C332 C330 1.389 . S
C332 C333 1.524 . S
C332 C346 1.377 . S
C333 C332 1.524 . S
C333 C334 1.397 . S
C333 C338 1.363 . S
C334 H311 0.950 . S
C334 C333 1.397 . S
C334 C335 1.334 . S
C335 H312 0.950 . S
C335 C334 1.334 . S
C335 C336 1.287 . S
C336 C335 1.287 . S
C336 C337 1.524 . S
C336 H355 0.913 . S
C337 H313 0.950 . S
C337 C336 1.524 . S
C337 C338 1.415 . S
C338 H314 0.950 . S
C338 C333 1.363 . S
C338 C337 1.415 . S
C339 H315 0.951 . S
C339 C340 1.366 . S
C339 C341 1.388 . S
C340 C339 1.366 . S
C340 C344 1.385 . S
C341 H316 0.951 . S
C341 C339 1.388 . S
C341 C342 1.366 . S
C342 C341 1.366 . S
C342 C343 1.414 . S
C342 C345 1.499 . S
C343 H317 0.950 . S
C343 C342 1.414 . S
C343 C344 1.374 . S
C344 H318 0.950 . S
C344 C340 1.385 . S
C344 C343 1.374 . S
C345 C342 1.499 . S
C345 C346 1.373 . S
C345 C347 1.389 . S
C346 H319 0.950 . S
C346 C332 1.377 . S
C346 C345 1.373 . S
C347 C331 1.377 . S
C347 C345 1.389 . S
C347 C348 1.524 . S
C348 C347 1.524 . S
C348 C349 1.397 . S
C348 C353 1.363 . S
C349 H320 0.950 . S
C349 C348 1.397 . S
C349 C350 1.334 . S
C350 H321 0.950 . S
C350 C349 1.334 . S
C350 C351 1.287 . S
C351 C350 1.287 . S
C351 C352 1.524 . S
C351 H354 0.999 . S
C352 H322 0.950 . S
C352 C351 1.524 . S
C352 C353 1.415 . S
C353 H323 0.950 . S
C353 C348 1.363 . S
C353 C352 1.415 . S
H354 C351 0.999 . S
H355 C336 0.913 . S
H356 C374 0.951 . S
H357 C376 0.951 . S
H358 C378 0.950 . S
H359 C379 0.950 . S
H360 C381 0.950 . S
H361 C384 0.950 . S
H362 C385 0.950 . S
H363 C387 0.950 . S
H364 C388 0.950 . S
H365 C389 0.951 . S
H366 C391 0.951 . S
H367 C393 0.950 . S
H368 C394 0.950 . S
H369 C396 0.950 . S
H370 C399 0.950 . S
H371 C400 0.950 . S
H372 C402 0.950 . S
H373 C403 0.950 . S
C374 H356 0.951 . S
C374 C375 1.366 . S
C374 C376 1.388 . S
C375 C374 1.366 . S
C375 C379 1.385 . S
C376 H357 0.951 . S
C376 C374 1.388 . S
C376 C377 1.366 . S
C377 C376 1.366 . S
C377 C378 1.414 . S
C377 C380 1.499 . S
C378 H358 0.950 . S
C378 C377 1.414 . S
C378 C379 1.374 . S
C379 H359 0.950 . S
C379 C375 1.385 . S
C379 C378 1.374 . S
C380 C377 1.499 . S
C380 C381 1.373 . S
C380 C382 1.389 . S
C381 H360 0.950 . S
C381 C380 1.373 . S
C381 C397 1.377 . S
C382 C380 1.389 . S
C382 C383 1.524 . S
C382 C396 1.377 . S
C383 C382 1.524 . S
C383 C384 1.397 . S
C383 C388 1.363 . S
C384 H361 0.950 . S
C384 C383 1.397 . S
C384 C385 1.334 . S
C385 H362 0.950 . S
C385 C384 1.334 . S
C385 C386 1.287 . S
C386 C385 1.287 . S
C386 C387 1.524 . S
C386 H405 0.913 . S
C387 H363 0.950 . S
C387 C386 1.524 . S
C387 C388 1.415 . S
C388 H364 0.950 . S
C388 C383 1.363 . S
C388 C387 1.415 . S
C389 H365 0.951 . S
C389 C390 1.366 . S
C389 C391 1.388 . S
C390 C389 1.366 . S
C390 C394 1.385 . S
C391 H366 0.951 . S
C391 C389 1.388 . S
C391 C392 1.366 . S
C392 C391 1.366 . S
C392 C393 1.414 . S
C392 C395 1.499 . S
C393 H367 0.950 . S
C393 C392 1.414 . S
C393 C394 1.374 . S
C394 H368 0.950 . S
C394 C390 1.385 . S
C394 C393 1.374 . S
C395 C392 1.499 . S
C395 C396 1.373 . S
C395 C397 1.389 . S
C396 H369 0.950 . S
C396 C382 1.377 . S
C396 C395 1.373 . S
C397 C381 1.377 . S
C397 C395 1.389 . S
C397 C398 1.524 . S
C398 C397 1.524 . S
C398 C399 1.397 . S
C398 C403 1.363 . S
C399 H370 0.950 . S
C399 C398 1.397 . S
C399 C400 1.334 . S
C400 H371 0.950 . S
C400 C399 1.334 . S
C400 C401 1.287 . S
C401 C400 1.287 . S
C401 C402 1.524 . S
C401 H404 0.999 . S
C402 H372 0.950 . S
C402 C401 1.524 . S
C402 C403 1.415 . S
C403 H373 0.950 . S
C403 C398 1.363 . S
C403 C402 1.415 . S
H404 C401 0.999 . S
H405 C386 0.913 . S
H406 C424 0.951 . S
H407 C426 0.951 . S
H408 C428 0.950 . S
H409 C429 0.950 . S
H410 C431 0.950 . S
H411 C434 0.950 . S
H412 C435 0.950 . S
H413 C437 0.950 . S
H414 C438 0.950 . S
H415 C439 0.951 1_554 S
H416 C441 0.951 . S
H417 C443 0.950 . S
H418 C444 0.950 . S
H419 C446 0.950 . S
H420 C449 0.950 . S
H421 C450 0.950 . S
H422 C452 0.950 . S
H423 C453 0.950 . S
C424 H406 0.951 . S
C424 C425 1.366 . S
C424 C426 1.388 . S
C425 C424 1.366 . S
C425 C429 1.385 . S
C426 H407 0.951 . S
C426 C424 1.388 . S
C426 C427 1.366 . S
C427 C426 1.366 . S
C427 C428 1.414 . S
C427 C430 1.499 . S
C428 H408 0.950 . S
C428 C427 1.414 . S
C428 C429 1.374 . S
C429 H409 0.950 . S
C429 C425 1.385 . S
C429 C428 1.374 . S
C430 C427 1.499 . S
C430 C431 1.373 . S
C430 C432 1.389 . S
C431 H410 0.950 . S
C431 C430 1.373 . S
C431 C447 1.377 . S
C432 C430 1.389 . S
C432 C433 1.524 . S
C432 C446 1.377 . S
C433 C432 1.524 . S
C433 C434 1.397 . S
C433 C438 1.363 . S
C434 H411 0.950 . S
C434 C433 1.397 . S
C434 C435 1.334 . S
C435 H412 0.950 . S
C435 C434 1.334 . S
C435 C436 1.287 . S
C436 C435 1.287 . S
C436 C437 1.524 . S
C436 H455 0.913 . S
C437 H413 0.950 . S
C437 C436 1.524 . S
C437 C438 1.415 . S
C438 H414 0.950 . S
C438 C433 1.363 . S
C438 C437 1.415 . S
C439 H415 0.951 1_556 S
C439 C440 1.366 . S
C439 C441 1.388 . S
C440 C439 1.366 . S
C440 C444 1.385 . S
C441 H416 0.951 . S
C441 C439 1.388 . S
C441 C442 1.366 . S
C442 C441 1.366 . S
C442 C443 1.414 . S
C442 C445 1.499 . S
C443 H417 0.950 . S
C443 C442 1.414 . S
C443 C444 1.374 . S
C444 H418 0.950 . S
C444 C440 1.385 . S
C444 C443 1.374 . S
C445 C442 1.499 . S
C445 C446 1.373 . S
C445 C447 1.389 . S
C446 H419 0.950 . S
C446 C432 1.377 . S
C446 C445 1.373 . S
C447 C431 1.377 . S
C447 C445 1.389 . S
C447 C448 1.524 . S
C448 C447 1.524 . S
C448 C449 1.397 . S
C448 C453 1.363 1_556 S
C449 H420 0.950 . S
C449 C448 1.397 . S
C449 C450 1.334 1_556 S
C450 H421 0.950 . S
C450 C449 1.334 1_554 S
C450 C451 1.287 . S
C451 C450 1.287 . S
C451 C452 1.524 . S
C451 H454 0.999 . S
C452 H422 0.950 . S
C452 C451 1.524 . S
C452 C453 1.415 . S
C453 H423 0.950 . S
C453 C448 1.363 1_554 S
C453 C452 1.415 . S
H454 C451 0.999 . S
H455 C436 0.913 . S
C75 C12 0.906 . S
C90 C39 0.899 . S
C125 C25 0.902 . S
C140 C54 0.906 . S
C175 C11 0.901 . S
C190 C40 0.908 . S
C225 C26 0.907 . S
C240 C53 0.902 . S
C275 C18 1.464 . S
C290 C4 1.463 . S
C325 C19 1.284 . S
C340 C33 1.285 . S
C375 C46 1.464 . S
C390 C32 1.464 . S
C425 C47 1.285 . S
C440 C5 1.284 . S
