# Generated by pormake.
# Topology uoe, (4)-cn, num edge types: 1
# Building blocks:
#     Node 0, Type 0, BuildingBlock: QUQFOY_clean_sbu_3, # of connection points: 4
#     Node 1, Type 0, BuildingBlock: QUQFOY_clean_sbu_3, # of connection points: 4
#     Node 2, Type 0, BuildingBlock: QUQFOY_clean_sbu_3, # of connection points: 4
#     Node 3, Type 0, BuildingBlock: QUQFOY_clean_sbu_3, # of connection points: 4
#     Node 4, Type 0, BuildingBlock: QUQFOY_clean_sbu_3, # of connection points: 4
#     Node 5, Type 0, BuildingBlock: QUQFOY_clean_sbu_3, # of connection points: 4
#     Node 6, Type 0, BuildingBlock: QUQFOY_clean_sbu_3, # of connection points: 4
#     Node 7, Type 0, BuildingBlock: QUQFOY_clean_sbu_3, # of connection points: 4
#     Node 8, Type 0, BuildingBlock: QUQFOY_clean_sbu_3, # of connection points: 4
#     Node 9, Type 0, BuildingBlock: QUQFOY_clean_sbu_3, # of connection points: 4
#     Node 10, Type 0, BuildingBlock: QUQFOY_clean_sbu_3, # of connection points: 4
#     Node 11, Type 0, BuildingBlock: QUQFOY_clean_sbu_3, # of connection points: 4
#     Node 12, Type 0, BuildingBlock: QUQFOY_clean_sbu_3, # of connection points: 4
#     Node 13, Type 0, BuildingBlock: QUQFOY_clean_sbu_3, # of connection points: 4
#     Node 14, Type 0, BuildingBlock: QUQFOY_clean_sbu_3, # of connection points: 4
#     Node 15, Type 0, BuildingBlock: QUQFOY_clean_sbu_3, # of connection points: 4
#     Node 16, Type 0, BuildingBlock: QUQFOY_clean_sbu_3, # of connection points: 4
#     Node 17, Type 0, BuildingBlock: QUQFOY_clean_sbu_3, # of connection points: 4
#     Node 18, Type 0, BuildingBlock: QUQFOY_clean_sbu_3, # of connection points: 4
#     Node 19, Type 0, BuildingBlock: QUQFOY_clean_sbu_3, # of connection points: 4
#     Node 20, Type 0, BuildingBlock: QUQFOY_clean_sbu_3, # of connection points: 4
#     Node 21, Type 0, BuildingBlock: QUQFOY_clean_sbu_3, # of connection points: 4
#     Node 22, Type 0, BuildingBlock: QUQFOY_clean_sbu_3, # of connection points: 4
#     Node 23, Type 0, BuildingBlock: QUQFOY_clean_sbu_3, # of connection points: 4
#     Node 24, Type 0, BuildingBlock: QUQFOY_clean_sbu_3, # of connection points: 4
#     Node 25, Type 0, BuildingBlock: QUQFOY_clean_sbu_3, # of connection points: 4
#     Node 26, Type 0, BuildingBlock: QUQFOY_clean_sbu_3, # of connection points: 4
#     Node 27, Type 0, BuildingBlock: QUQFOY_clean_sbu_3, # of connection points: 4
#     Node 28, Type 0, BuildingBlock: QUQFOY_clean_sbu_3, # of connection points: 4
#     Node 29, Type 0, BuildingBlock: QUQFOY_clean_sbu_3, # of connection points: 4
#     Node 30, Type 0, BuildingBlock: QUQFOY_clean_sbu_3, # of connection points: 4
#     Node 31, Type 0, BuildingBlock: QUQFOY_clean_sbu_3, # of connection points: 4
#     Edge 32, Type (0, 0), BuildingBlock: OJICUG_clean_linker_0, # of connection points: 2
#     Edge 33, Type (0, 0), BuildingBlock: OJICUG_clean_linker_0, # of connection points: 2
#     Edge 34, Type (0, 0), BuildingBlock: OJICUG_clean_linker_0, # of connection points: 2
#     Edge 35, Type (0, 0), BuildingBlock: OJICUG_clean_linker_0, # of connection points: 2
#     Edge 36, Type (0, 0), BuildingBlock: OJICUG_clean_linker_0, # of connection points: 2
#     Edge 37, Type (0, 0), BuildingBlock: OJICUG_clean_linker_0, # of connection points: 2
#     Edge 38, Type (0, 0), BuildingBlock: OJICUG_clean_linker_0, # of connection points: 2
#     Edge 39, Type (0, 0), BuildingBlock: OJICUG_clean_linker_0, # of connection points: 2
#     Edge 40, Type (0, 0), BuildingBlock: OJICUG_clean_linker_0, # of connection points: 2
#     Edge 41, Type (0, 0), BuildingBlock: OJICUG_clean_linker_0, # of connection points: 2
#     Edge 42, Type (0, 0), BuildingBlock: OJICUG_clean_linker_0, # of connection points: 2
#     Edge 43, Type (0, 0), BuildingBlock: OJICUG_clean_linker_0, # of connection points: 2
#     Edge 44, Type (0, 0), BuildingBlock: OJICUG_clean_linker_0, # of connection points: 2
#     Edge 45, Type (0, 0), BuildingBlock: OJICUG_clean_linker_0, # of connection points: 2
#     Edge 46, Type (0, 0), BuildingBlock: OJICUG_clean_linker_0, # of connection points: 2
#     Edge 47, Type (0, 0), BuildingBlock: OJICUG_clean_linker_0, # of connection points: 2
#     Edge 48, Type (0, 0), BuildingBlock: OJICUG_clean_linker_0, # of connection points: 2
#     Edge 49, Type (0, 0), BuildingBlock: OJICUG_clean_linker_0, # of connection points: 2
#     Edge 50, Type (0, 0), BuildingBlock: OJICUG_clean_linker_0, # of connection points: 2
#     Edge 51, Type (0, 0), BuildingBlock: OJICUG_clean_linker_0, # of connection points: 2
#     Edge 52, Type (0, 0), BuildingBlock: OJICUG_clean_linker_0, # of connection points: 2
#     Edge 53, Type (0, 0), BuildingBlock: OJICUG_clean_linker_0, # of connection points: 2
#     Edge 54, Type (0, 0), BuildingBlock: OJICUG_clean_linker_0, # of connection points: 2
#     Edge 55, Type (0, 0), BuildingBlock: OJICUG_clean_linker_0, # of connection points: 2
#     Edge 56, Type (0, 0), BuildingBlock: OJICUG_clean_linker_0, # of connection points: 2
#     Edge 57, Type (0, 0), BuildingBlock: OJICUG_clean_linker_0, # of connection points: 2
#     Edge 58, Type (0, 0), BuildingBlock: OJICUG_clean_linker_0, # of connection points: 2
#     Edge 59, Type (0, 0), BuildingBlock: OJICUG_clean_linker_0, # of connection points: 2
#     Edge 60, Type (0, 0), BuildingBlock: OJICUG_clean_linker_0, # of connection points: 2
#     Edge 61, Type (0, 0), BuildingBlock: OJICUG_clean_linker_0, # of connection points: 2
#     Edge 62, Type (0, 0), BuildingBlock: OJICUG_clean_linker_0, # of connection points: 2
#     Edge 63, Type (0, 0), BuildingBlock: OJICUG_clean_linker_0, # of connection points: 2
#     Edge 64, Type (0, 0), BuildingBlock: OJICUG_clean_linker_0, # of connection points: 2
#     Edge 65, Type (0, 0), BuildingBlock: OJICUG_clean_linker_0, # of connection points: 2
#     Edge 66, Type (0, 0), BuildingBlock: OJICUG_clean_linker_0, # of connection points: 2
#     Edge 67, Type (0, 0), BuildingBlock: OJICUG_clean_linker_0, # of connection points: 2
#     Edge 68, Type (0, 0), BuildingBlock: OJICUG_clean_linker_0, # of connection points: 2
#     Edge 69, Type (0, 0), BuildingBlock: OJICUG_clean_linker_0, # of connection points: 2
#     Edge 70, Type (0, 0), BuildingBlock: OJICUG_clean_linker_0, # of connection points: 2
#     Edge 71, Type (0, 0), BuildingBlock: OJICUG_clean_linker_0, # of connection points: 2
#     Edge 72, Type (0, 0), BuildingBlock: OJICUG_clean_linker_0, # of connection points: 2
#     Edge 73, Type (0, 0), BuildingBlock: OJICUG_clean_linker_0, # of connection points: 2
#     Edge 74, Type (0, 0), BuildingBlock: OJICUG_clean_linker_0, # of connection points: 2
#     Edge 75, Type (0, 0), BuildingBlock: OJICUG_clean_linker_0, # of connection points: 2
#     Edge 76, Type (0, 0), BuildingBlock: OJICUG_clean_linker_0, # of connection points: 2
#     Edge 77, Type (0, 0), BuildingBlock: OJICUG_clean_linker_0, # of connection points: 2
#     Edge 78, Type (0, 0), BuildingBlock: OJICUG_clean_linker_0, # of connection points: 2
#     Edge 79, Type (0, 0), BuildingBlock: OJICUG_clean_linker_0, # of connection points: 2
#     Edge 80, Type (0, 0), BuildingBlock: OJICUG_clean_linker_0, # of connection points: 2
#     Edge 81, Type (0, 0), BuildingBlock: OJICUG_clean_linker_0, # of connection points: 2
#     Edge 82, Type (0, 0), BuildingBlock: OJICUG_clean_linker_0, # of connection points: 2
#     Edge 83, Type (0, 0), BuildingBlock: OJICUG_clean_linker_0, # of connection points: 2
#     Edge 84, Type (0, 0), BuildingBlock: OJICUG_clean_linker_0, # of connection points: 2
#     Edge 85, Type (0, 0), BuildingBlock: OJICUG_clean_linker_0, # of connection points: 2
#     Edge 86, Type (0, 0), BuildingBlock: OJICUG_clean_linker_0, # of connection points: 2
#     Edge 87, Type (0, 0), BuildingBlock: OJICUG_clean_linker_0, # of connection points: 2
#     Edge 88, Type (0, 0), BuildingBlock: OJICUG_clean_linker_0, # of connection points: 2
#     Edge 89, Type (0, 0), BuildingBlock: OJICUG_clean_linker_0, # of connection points: 2
#     Edge 90, Type (0, 0), BuildingBlock: OJICUG_clean_linker_0, # of connection points: 2
#     Edge 91, Type (0, 0), BuildingBlock: OJICUG_clean_linker_0, # of connection points: 2
#     Edge 92, Type (0, 0), BuildingBlock: OJICUG_clean_linker_0, # of connection points: 2
#     Edge 93, Type (0, 0), BuildingBlock: OJICUG_clean_linker_0, # of connection points: 2
#     Edge 94, Type (0, 0), BuildingBlock: OJICUG_clean_linker_0, # of connection points: 2
#     Edge 95, Type (0, 0), BuildingBlock: OJICUG_clean_linker_0, # of connection points: 2
# Relax obj value: 0.173
# Max RMSD: 0.208
# Mean RMSD: 0.208
data_MOF--net-uoe--node1-QUQFOY_clean_sbu_3--edge1-OJICUG_clean_linker_0
_symmetry_space_group_name_H-M    P1
_symmetry_Int_Tables_number       1
_symmetry_cell_setting            triclinic
loop_
_symmetry_equiv_pos_as_xyz
'x, y, z'
_cell_length_a     57.049039
_cell_length_b     56.962183
_cell_length_c     19.905757
_cell_angle_alpha  89.994998
_cell_angle_beta   89.985587
_cell_angle_gamma 89.98801
loop_
_atom_site_label
_atom_site_type_symbol
_atom_site_fract_x
_atom_site_fract_y
_atom_site_fract_z
_atom_type_partial_charge
C0 C 0.1222 0.48462 0.92067 0.0
O1 O 0.12091 0.50214 0.95977 0.0
Cd2 Cd 0.0979 0.50313 0.05722 0.0
O3 O 0.11214 0.46522 0.9354 0.0
Cd4 Cd 0.08908 0.44835 0.03115 0.0
C5 C 0.04482 0.48338 -0.01034 0.0
O6 O 0.10919 0.4696 0.11802 0.0
O7 O 0.07378 0.45919 0.14012 0.0
O8 O 0.11247 0.41255 0.03101 0.0
C9 C 0.09299 0.46752 0.16087 0.0
O10 O 0.05763 0.49924 0.01607 0.0
C11 C 0.09688 0.39993 0.05873 0.0
O12 O 0.05226 0.46236 0.98367 0.0
O13 O 0.07671 0.40897 0.06551 0.0
C14 C 0.75763 0.87247 0.16377 0.0
O15 O 0.74012 0.87046 0.20259 0.0
Cd16 Cd 0.7395 0.84833 0.30181 0.0
O17 O 0.77756 0.86379 0.17976 0.0
Cd18 Cd 0.79496 0.84268 0.27863 0.0
C19 C 0.76278 0.79593 0.23891 0.0
O20 O 0.77178 0.86166 0.36396 0.0
O21 O 0.7842 0.82685 0.38655 0.0
O22 O 0.82929 0.86813 0.2835 0.0
C23 C 0.77448 0.84552 0.40684 0.0
O24 O 0.74605 0.80794 0.26395 0.0
C25 C 0.84249 0.85286 0.31054 0.0
O26 O 0.78328 0.80465 0.23292 0.0
O27 O 0.8346 0.83208 0.31414 0.0
C28 C 0.39503 0.50944 0.43496 0.0
O29 O 0.39267 0.49162 0.47285 0.0
Cd30 Cd 0.39317 0.48847 0.59195 0.0
O31 O 0.39878 0.52993 0.45929 0.0
Cd32 Cd 0.40459 0.54559 0.57562 0.0
C33 C 0.44977 0.50666 0.60741 0.0
O34 O 0.37199 0.52303 0.61874 0.0
O35 O 0.39011 0.54397 0.69093 0.0
O36 O 0.3901 0.58543 0.55615 0.0
C37 C 0.3732 0.53037 0.67836 0.0
O38 O 0.43507 0.49011 0.6158 0.0
C39 C 0.40488 0.59466 0.59625 0.0
O40 O 0.44298 0.52715 0.59056 0.0
O41 O 0.42163 0.5817 0.6159 0.0
C42 C 0.74026 0.13665 0.64897 0.0
O43 O 0.75871 0.13604 0.68467 0.0
Cd44 Cd 0.76515 0.14153 0.80036 0.0
O45 O 0.72014 0.14103 0.67476 0.0
Cd46 Cd 0.70641 0.15001 0.79149 0.0
C47 C 0.74351 0.19771 0.80337 0.0
O48 O 0.73229 0.1207 0.83837 0.0
O49 O 0.71132 0.13931 0.90939 0.0
O50 O 0.66751 0.13242 0.77887 0.0
C51 C 0.72631 0.12345 0.89872 0.0
O52 O 0.76071 0.18377 0.8119 0.0
C53 C 0.65774 0.14701 0.81855 0.0
O54 O 0.7229 0.1899 0.79235 0.0
O55 O 0.66977 0.16471 0.83616 0.0
C56 C 0.12506 0.50236 0.64469 0.0
O57 O 0.12261 0.485 0.60548 0.0
Cd58 Cd 0.09993 0.48549 0.50718 0.0
O59 O 0.11684 0.52255 0.62927 0.0
Cd60 Cd 0.09623 0.54117 0.5317 0.0
C61 C 0.04868 0.51057 0.5726 0.0
O62 O 0.11352 0.51755 0.44451 0.0
O63 O 0.07917 0.53161 0.42464 0.0
O64 O 0.12351 0.57404 0.5259 0.0
C65 C 0.09719 0.52115 0.40286 0.0
O66 O 0.06012 0.49349 0.54716 0.0
C67 C 0.10873 0.58827 0.50105 0.0
O68 O 0.05798 0.53085 0.57839 0.0
O69 O 0.08752 0.58159 0.49923 0.0
C70 C 0.73908 0.87266 0.8873 0.0
O71 O 0.75618 0.87151 0.84673 0.0
Cd72 Cd 0.75605 0.84947 0.74713 0.0
O73 O 0.71937 0.86316 0.87311 0.0
Cd74 Cd 0.70107 0.84144 0.7771 0.0
C75 C 0.73587 0.79626 0.81344 0.0
O76 O 0.72215 0.86115 0.68895 0.0
O77 O 0.71012 0.82622 0.66704 0.0
O78 O 0.66593 0.86571 0.77905 0.0
C79 C 0.71928 0.84507 0.64606 0.0
O80 O 0.7517 0.80898 0.78652 0.0
C81 C 0.65267 0.85019 0.75357 0.0
O82 O 0.71506 0.80401 0.82137 0.0
O83 O 0.66112 0.8297 0.74742 0.0
C84 C 0.39257 0.4949 0.14787 0.0
O85 O 0.39096 0.51292 0.11042 0.0
Cd86 Cd 0.39074 0.51709 -0.00854 0.0
O87 O 0.39486 0.47426 0.12304 0.0
Cd88 Cd 0.39891 0.4586 0.00602 0.0
C89 C 0.44601 0.49534 0.97296 0.0
O90 O 0.36803 0.48376 0.9641 0.0
O91 O 0.38327 0.46062 0.89211 0.0
O92 O 0.38276 0.41942 0.02573 0.0
C93 C 0.36821 0.47626 0.90453 0.0
O94 O 0.43226 0.51277 0.96573 0.0
C95 C 0.39674 0.40963 -0.01573 0.0
O96 O 0.43815 0.4752 -0.01051 0.0
O97 O 0.41381 0.42189 0.96323 0.0
C98 C 0.75572 0.14108 0.3648 0.0
O99 O 0.73848 0.14072 0.32441 0.0
Cd100 Cd 0.73894 0.14687 0.20708 0.0
O101 O 0.77657 0.14579 0.34491 0.0
Cd102 Cd 0.79626 0.15661 0.2372 0.0
C103 C 0.75916 0.20363 0.21683 0.0
O104 O 0.77409 0.12646 0.18414 0.0
O105 O 0.79614 0.14578 0.11749 0.0
O106 O 0.8339 0.1394 0.26881 0.0
C107 C 0.78197 0.12897 0.12558 0.0
O108 O 0.74277 0.18945 0.20138 0.0
C109 C 0.84572 0.15335 0.23203 0.0
O110 O 0.77938 0.19611 0.23368 0.0
O111 O 0.83486 0.17077 0.20736 0.0
C112 C 0.89422 0.509 0.13423 0.0
O113 O 0.89126 0.49117 0.09669 0.0
Cd114 Cd 0.89067 0.48779 0.97731 0.0
O115 O 0.89787 0.52943 0.10943 0.0
Cd116 Cd 0.90265 0.54545 -0.00675 0.0
C117 C 0.94723 0.50606 0.95841 0.0
O118 O 0.87017 0.52266 0.95042 0.0
O119 O 0.88701 0.54498 0.87914 0.0
O120 O 0.88879 0.58512 0.01756 0.0
C121 C 0.87093 0.53034 0.89103 0.0
O122 O 0.93238 0.48955 0.9513 0.0
C123 C 0.90311 0.59473 0.97677 0.0
O124 O 0.94071 0.52663 0.97538 0.0
O125 O 0.91935 0.58185 0.95347 0.0
C126 C 0.24271 0.12776 0.87734 0.0
O127 O 0.25962 0.12983 0.83642 0.0
Cd128 Cd 0.25845 0.14976 0.73319 0.0
O129 O 0.22232 0.13571 0.86307 0.0
Cd130 Cd 0.20295 0.15579 0.76588 0.0
C131 C 0.23663 0.20311 0.79252 0.0
O132 O 0.22454 0.13534 0.68035 0.0
O133 O 0.21005 0.1687 0.65227 0.0
O134 O 0.16841 0.13065 0.76937 0.0
C135 C 0.22038 0.15006 0.6345 0.0
O136 O 0.25285 0.19078 0.76601 0.0
C137 C 0.15479 0.14586 0.74379 0.0
O138 O 0.21634 0.19444 0.80333 0.0
O139 O 0.1627 0.16659 0.73828 0.0
C140 C 0.62419 0.48625 0.6508 0.0
O141 O 0.62338 0.50406 0.61264 0.0
Cd142 Cd 0.60117 0.50696 0.51392 0.0
O143 O 0.61437 0.46694 0.63381 0.0
Cd144 Cd 0.59276 0.45133 0.53377 0.0
C145 C 0.54786 0.48546 0.57656 0.0
O146 O 0.61214 0.47447 0.44901 0.0
O147 O 0.57661 0.46393 0.42841 0.0
O148 O 0.61688 0.4162 0.5231 0.0
C149 C 0.5955 0.47294 0.40736 0.0
O150 O 0.56068 0.50178 0.5525 0.0
C151 C 0.60088 0.40386 0.49627 0.0
O152 O 0.5555 0.46444 0.58099 0.0
O153 O 0.58035 0.41242 0.49611 0.0
C154 C 0.25469 0.85472 0.38627 0.0
O155 O 0.23668 0.85617 0.34881 0.0
Cd156 Cd 0.23271 0.85625 0.22972 0.0
O157 O 0.27529 0.85239 0.36141 0.0
Cd158 Cd 0.29069 0.84803 0.24429 0.0
C159 C 0.254 0.80088 0.21112 0.0
O160 O 0.26595 0.87939 0.20302 0.0
O161 O 0.28867 0.86381 0.13045 0.0
O162 O 0.33011 0.86369 0.2626 0.0
C163 C 0.27353 0.8793 0.14353 0.0
O164 O 0.23654 0.81456 0.20392 0.0
C165 C 0.33951 0.84936 0.22141 0.0
O166 O 0.27406 0.80888 0.22756 0.0
O167 O 0.32695 0.83234 0.20148 0.0
C168 C 0.8957 0.49491 0.42166 0.0
O169 O 0.89423 0.51298 0.45903 0.0
Cd170 Cd 0.89404 0.5173 0.57817 0.0
O171 O 0.89811 0.47431 0.4466 0.0
Cd172 Cd 0.90259 0.45894 0.56373 0.0
C173 C 0.94931 0.4961 0.59852 0.0
O174 O 0.87137 0.48377 0.60481 0.0
O175 O 0.88605 0.46038 0.67707 0.0
O176 O 0.8876 0.41929 0.54432 0.0
C177 C 0.87109 0.47605 0.66414 0.0
O178 O 0.93559 0.51357 0.60504 0.0
C179 C 0.90201 0.40996 0.58537 0.0
O180 O 0.94145 0.47598 0.58192 0.0
O181 O 0.91872 0.42277 0.60607 0.0
C182 C 0.26229 0.12464 0.15455 0.0
O183 O 0.24491 0.12489 0.19424 0.0
Cd184 Cd 0.24292 0.14479 0.2974 0.0
O185 O 0.28185 0.13393 0.17134 0.0
Cd186 Cd 0.29841 0.15389 0.27273 0.0
C187 C 0.26296 0.19933 0.24101 0.0
O188 O 0.27631 0.1333 0.35752 0.0
O189 O 0.28762 0.1683 0.38167 0.0
O190 O 0.33383 0.13006 0.27889 0.0
C191 C 0.27824 0.14935 0.40096 0.0
O192 O 0.24705 0.18606 0.26525 0.0
C193 C 0.34633 0.14618 0.30463 0.0
O194 O 0.28386 0.19182 0.23274 0.0
O195 O 0.33762 0.16668 0.30561 0.0
C196 C 0.6217 0.50465 0.92698 0.0
O197 O 0.61915 0.48771 0.96765 0.0
Cd198 Cd 0.59722 0.48959 0.06722 0.0
O199 O 0.61341 0.525 0.94032 0.0
Cd200 Cd 0.59209 0.54478 0.03479 0.0
C201 C 0.54508 0.51206 0.00095 0.0
O202 O 0.61113 0.52323 0.123 0.0
O203 O 0.5771 0.5372 0.1462 0.0
O204 O 0.61786 0.57889 0.03112 0.0
C205 C 0.59562 0.52731 0.1667 0.0
O206 O 0.55696 0.49571 0.02853 0.0
C207 C 0.60303 0.59289 0.05681 0.0
O208 O 0.55394 0.53238 -0.00827 0.0
O209 O 0.58225 0.58536 0.06351 0.0
C210 C 0.24048 0.85548 0.67363 0.0
O211 O 0.25831 0.85845 0.71106 0.0
Cd212 Cd 0.26225 0.85943 0.83023 0.0
O213 O 0.22009 0.85183 0.69854 0.0
Cd214 Cd 0.20491 0.84695 0.8156 0.0
C215 C 0.24491 0.80278 0.85111 0.0
O216 O 0.22741 0.8799 0.85748 0.0
O217 O 0.20573 0.86262 0.92947 0.0
O218 O 0.16466 0.86036 0.79827 0.0
C219 C 0.21988 0.87908 0.91699 0.0
O220 O 0.26128 0.81777 0.858 0.0
C221 C 0.15615 0.84522 0.83868 0.0
O222 O 0.22435 0.80916 0.83392 0.0
O223 O 0.16964 0.82866 0.85685 0.0
C224 C 0.60512 0.99214 0.433 0.0
O225 O 0.6069 0.00998 0.47107 0.0
Cd226 Cd 0.60534 0.01289 0.58991 0.0
O227 O 0.60149 0.97158 0.45692 0.0
Cd228 Cd 0.59508 0.9554 0.57223 0.0
C229 C 0.5489 0.99337 0.60094 0.0
O230 O 0.62687 0.97861 0.6165 0.0
O231 O 0.60895 0.9573 0.68822 0.0
O232 O 0.61087 0.91618 0.55116 0.0
C233 C 0.62559 0.97128 0.67609 0.0
O234 O 0.56328 0.01014 0.61035 0.0
C235 C 0.59648 0.90627 0.59112 0.0
O236 O 0.55612 0.97298 0.58458 0.0
O237 O 0.57934 0.91856 0.61154 0.0
C238 C 0.2548 0.35915 0.6614 0.0
O239 O 0.23677 0.36029 0.69879 0.0
Cd240 Cd 0.23243 0.35802 0.81691 0.0
O241 O 0.27534 0.35611 0.68603 0.0
Cd242 Cd 0.29087 0.35002 0.80234 0.0
C243 C 0.25428 0.30224 0.82566 0.0
O244 O 0.26563 0.38028 0.84704 0.0
O245 O 0.28784 0.36343 0.91847 0.0
O246 O 0.32975 0.36699 0.784 0.0
C247 C 0.27263 0.37901 0.90693 0.0
O248 O 0.23695 0.31597 0.83483 0.0
C249 C 0.33974 0.35287 0.82463 0.0
O250 O 0.27452 0.31029 0.81122 0.0
O251 O 0.32776 0.33548 0.84486 0.0
C252 C 0.89392 0.00686 0.94055 0.0
O253 O 0.89185 0.98911 0.97883 0.0
Cd254 Cd 0.89378 0.98665 0.09769 0.0
O255 O 0.89813 0.02736 0.96421 0.0
Cd256 Cd 0.90529 0.04382 0.07896 0.0
C257 C 0.9507 0.00503 0.10657 0.0
O258 O 0.87291 0.02148 0.12307 0.0
O259 O 0.89097 0.04264 0.19479 0.0
O260 O 0.89108 0.08325 0.053 0.0
C261 C 0.87411 0.02895 0.18251 0.0
O262 O 0.93599 0.98858 0.11654 0.0
C263 C 0.9049 0.09315 0.09455 0.0
O264 O 0.94386 0.02556 0.09037 0.0
O265 O 0.92104 0.08055 0.1195 0.0
C266 C 0.2469 0.62488 0.17167 0.0
O267 O 0.26452 0.62727 0.20988 0.0
Cd268 Cd 0.26505 0.65026 0.3075 0.0
O269 O 0.22692 0.63331 0.18812 0.0
Cd270 Cd 0.20935 0.65416 0.287 0.0
C271 C 0.23971 0.70152 0.24267 0.0
O272 O 0.23357 0.63669 0.37242 0.0
O273 O 0.22023 0.67132 0.39303 0.0
O274 O 0.17631 0.62716 0.29533 0.0
C275 C 0.23056 0.65311 0.41422 0.0
O276 O 0.25693 0.69008 0.26713 0.0
C277 C 0.1625 0.64208 0.32139 0.0
O278 O 0.21937 0.69228 0.23868 0.0
O279 O 0.16941 0.66324 0.32301 0.0
C280 C 0.6071 0.00688 0.14635 0.0
O281 O 0.60872 0.98889 0.10879 0.0
Cd282 Cd 0.60768 0.98493 -0.00985 0.0
O283 O 0.60409 0.02745 0.12176 0.0
Cd284 Cd 0.59867 0.0431 0.00538 0.0
C285 C 0.55179 0.00578 0.97713 0.0
O286 O 0.62972 0.01859 0.96177 0.0
O287 O 0.61285 0.04069 0.89001 0.0
O288 O 0.61503 0.08222 0.02417 0.0
C289 C 0.62871 0.02582 0.90202 0.0
O290 O 0.56581 0.98864 0.96856 0.0
C291 C 0.60084 0.09205 0.98347 0.0
O292 O 0.55942 0.02609 -0.00714 0.0
O293 O 0.58353 0.07988 0.96364 0.0
C294 C 0.23982 0.35561 0.37531 0.0
O295 O 0.25751 0.35722 0.33672 0.0
Cd296 Cd 0.25983 0.35458 0.21807 0.0
O297 O 0.21926 0.35145 0.35223 0.0
Cd298 Cd 0.20254 0.34368 0.23836 0.0
C299 C 0.24087 0.2977 0.21132 0.0
O300 O 0.22514 0.37544 0.19225 0.0
O301 O 0.20397 0.35698 0.12139 0.0
O302 O 0.16341 0.35937 0.2608 0.0
C303 C 0.21776 0.37385 0.13282 0.0
O304 O 0.25737 0.31228 0.20062 0.0
C305 C 0.15333 0.34471 0.22203 0.0
O306 O 0.22046 0.30474 0.22785 0.0
O307 O 0.16558 0.32752 0.20163 0.0
C308 C 0.89016 0.99222 0.65397 0.0
O309 O 0.8889 0.01029 0.61663 0.0
Cd310 Cd 0.88982 0.01485 0.4981 0.0
O311 O 0.89266 0.97161 0.62911 0.0
Cd312 Cd 0.89768 0.95643 0.51204 0.0
C313 C 0.94522 0.99308 0.48409 0.0
O314 O 0.86721 0.98175 0.46832 0.0
O315 O 0.88367 0.95931 0.39666 0.0
O316 O 0.88098 0.91718 0.52658 0.0
C317 C 0.8682 0.9746 0.40848 0.0
O318 O 0.93156 0.01052 0.47572 0.0
C319 C 0.89571 0.90772 0.48671 0.0
O320 O 0.93715 0.97293 0.49968 0.0
O321 O 0.91331 0.92001 0.46983 0.0
C322 C 0.26477 0.62745 0.89569 0.0
O323 O 0.24757 0.62892 0.85562 0.0
Cd324 Cd 0.24771 0.65165 0.75743 0.0
O325 O 0.2844 0.6372 0.88186 0.0
Cd326 Cd 0.30236 0.65989 0.78704 0.0
C327 C 0.26756 0.70481 0.8248 0.0
O328 O 0.28158 0.63999 0.69884 0.0
O329 O 0.29284 0.67518 0.67707 0.0
O330 O 0.33767 0.63584 0.78914 0.0
C331 C 0.28426 0.65608 0.65593 0.0
O332 O 0.25181 0.69204 0.79777 0.0
C333 C 0.35075 0.65128 0.76245 0.0
O334 O 0.28842 0.69718 0.83246 0.0
O335 O 0.34217 0.67168 0.75575 0.0
C336 C 0.37511 0.01245 0.65021 0.0
O337 O 0.37583 0.99486 0.61125 0.0
Cd338 Cd 0.39683 0.99275 0.51016 0.0
O339 O 0.38443 0.03201 0.63324 0.0
Cd340 Cd 0.40497 0.04817 0.53198 0.0
C341 C 0.45053 0.01388 0.56926 0.0
O342 O 0.38498 0.02546 0.44731 0.0
O343 O 0.42023 0.03631 0.42466 0.0
O344 O 0.3809 0.08345 0.52347 0.0
C345 C 0.40131 0.02716 0.40465 0.0
O346 O 0.43768 0.9976 0.54513 0.0
C347 C 0.3969 0.0959 0.497 0.0
O348 O 0.44272 0.03476 0.5756 0.0
O349 O 0.41741 0.08728 0.49631 0.0
C350 C 0.7454 0.64271 0.38415 0.0
O351 O 0.76342 0.64115 0.34678 0.0
Cd352 Cd 0.76771 0.64121 0.22788 0.0
O353 O 0.72483 0.64517 0.35923 0.0
Cd354 Cd 0.70951 0.64964 0.24206 0.0
C355 C 0.74641 0.69671 0.20994 0.0
O356 O 0.7344 0.61856 0.19993 0.0
O357 O 0.71171 0.63432 0.12772 0.0
O358 O 0.67024 0.63364 0.26055 0.0
C359 C 0.72703 0.61896 0.14026 0.0
O360 O 0.76376 0.68288 0.20265 0.0
C361 C 0.66066 0.64797 0.21968 0.0
O362 O 0.72626 0.68888 0.22623 0.0
O363 O 0.67307 0.6651 0.1997 0.0
C364 C 0.12326 0.9844 0.15311 0.0
O365 O 0.12292 0.00156 0.11256 0.0
Cd366 Cd 0.10234 0.0024 0.01039 0.0
O367 O 0.11389 0.96472 0.13753 0.0
Cd368 Cd 0.09359 0.94691 0.03838 0.0
C369 C 0.04846 0.98233 0.07183 0.0
O370 O 0.11377 0.96852 0.95189 0.0
O371 O 0.07902 0.95646 0.92839 0.0
O372 O 0.11751 0.91149 0.03798 0.0
C373 C 0.09779 0.96604 0.90854 0.0
O374 O 0.0615 0.99818 0.04621 0.0
C375 C 0.10173 0.8985 0.01257 0.0
O376 O 0.05599 0.96141 0.07994 0.0
O377 O 0.0813 0.90716 0.00808 0.0
C378 C 0.75832 0.37017 0.87804 0.0
O379 O 0.74146 0.36906 0.8366 0.0
Cd380 Cd 0.74206 0.35192 0.72897 0.0
O381 O 0.77871 0.36245 0.86276 0.0
Cd382 Cd 0.79806 0.34404 0.76282 0.0
C383 C 0.76268 0.29698 0.77808 0.0
O384 O 0.77674 0.36634 0.68046 0.0
O385 O 0.79226 0.33419 0.6463 0.0
O386 O 0.83334 0.36784 0.77226 0.0
C387 C 0.78115 0.35274 0.63204 0.0
O388 O 0.74673 0.31008 0.75335 0.0
C389 C 0.84673 0.35253 0.74609 0.0
O390 O 0.78301 0.3051 0.79147 0.0
O391 O 0.83818 0.33222 0.73704 0.0
C392 C 0.3774 0.99312 0.92711 0.0
O393 O 0.37933 0.00999 0.96828 0.0
Cd394 Cd 0.39996 0.00855 0.07025 0.0
O395 O 0.38569 0.97279 0.94081 0.0
Cd396 Cd 0.40626 0.95309 0.03679 0.0
C397 C 0.45302 0.98701 0.00761 0.0
O398 O 0.38625 0.97442 0.12376 0.0
O399 O 0.41993 0.96021 0.14965 0.0
O400 O 0.3812 0.91849 0.03181 0.0
C401 C 0.40135 0.97036 0.16864 0.0
O402 O 0.44067 0.00311 0.03468 0.0
C403 C 0.39629 0.90472 0.05729 0.0
O404 O 0.44455 0.96658 -0.0027 0.0
O405 O 0.41692 0.91265 0.06419 0.0
C406 C 0.75978 0.64376 0.67132 0.0
O407 O 0.74202 0.64125 0.70927 0.0
Cd408 Cd 0.73911 0.64155 0.82856 0.0
O409 O 0.78025 0.64748 0.69558 0.0
Cd410 Cd 0.79654 0.65299 0.81117 0.0
C411 C 0.75776 0.6982 0.84422 0.0
O412 O 0.7738 0.62061 0.85446 0.0
O413 O 0.79573 0.63781 0.92598 0.0
O414 O 0.83595 0.6386 0.78644 0.0
C415 C 0.78141 0.62146 0.91385 0.0
O416 O 0.74121 0.68349 0.85241 0.0
C417 C 0.84579 0.65281 0.82707 0.0
O418 O 0.77822 0.69142 0.82721 0.0
O419 O 0.83317 0.66925 0.85045 0.0
C420 C 0.12013 0.00397 0.43018 0.0
O421 O 0.11802 0.98677 0.47018 0.0
Cd422 Cd 0.0975 0.98718 0.5723 0.0
O423 O 0.11201 0.02424 0.44535 0.0
Cd424 Cd 0.09166 0.04258 0.54397 0.0
C425 C 0.04446 0.00955 0.51307 0.0
O426 O 0.11184 0.02039 0.62913 0.0
O427 O 0.0779 0.03371 0.65586 0.0
O428 O 0.1165 0.07744 0.54405 0.0
C429 C 0.09665 0.02375 0.67421 0.0
O430 O 0.05664 0.99307 0.53885 0.0
C431 C 0.10108 0.09074 0.57 0.0
O432 O 0.05322 0.02991 0.5038 0.0
O433 O 0.08048 0.08254 0.57473 0.0
C434 C 0.73794 0.37419 0.15664 0.0
O435 O 0.7551 0.37436 0.19719 0.0
Cd436 Cd 0.75668 0.35698 0.3044 0.0
O437 O 0.71807 0.36567 0.17386 0.0
Cd438 Cd 0.70068 0.34759 0.27692 0.0
C439 C 0.737 0.30182 0.2536 0.0
O440 O 0.72258 0.36914 0.36003 0.0
O441 O 0.70958 0.33524 0.38918 0.0
O442 O 0.66494 0.37097 0.27936 0.0
C443 C 0.71988 0.35401 0.40581 0.0
O444 O 0.75282 0.31524 0.27762 0.0
C445 C 0.6524 0.35468 0.30411 0.0
O446 O 0.71623 0.30936 0.24308 0.0
O447 O 0.66135 0.33428 0.30577 0.0
C448 C 0.98041 0.47738 0.94681 0.0
C449 C 0.97259 0.50065 0.95469 0.0
H450 H 0.00946 0.45359 0.95136 0.0
C451 C 0.9892 0.51841 0.96607 0.0
H452 H 0.9681 0.46327 0.93759 0.0
C453 C 0.01284 0.51285 0.97403 0.0
C454 C 0.02047 0.4894 0.97071 0.0
H455 H 0.98385 0.53655 0.97174 0.0
H456 H 0.025 0.52691 -0.01465 0.0
C457 C 0.00414 0.4718 0.95472 0.0
C458 C 0.77696 0.75578 0.20592 0.0
C459 C 0.75838 0.77105 0.22138 0.0
H460 H 0.78776 0.72026 0.18954 0.0
C461 C 0.73551 0.76192 0.22522 0.0
H462 H 0.79477 0.76226 0.20224 0.0
C463 C 0.73148 0.73791 0.2179 0.0
C464 C 0.75023 0.72241 0.20662 0.0
H465 H 0.72072 0.77321 0.23626 0.0
H466 H 0.71375 0.73142 0.22373 0.0
C467 C 0.77293 0.73169 0.19862 0.0
C468 C 0.48334 0.47831 0.61725 0.0
C469 C 0.47521 0.50151 0.61027 0.0
H470 H 0.51274 0.45495 0.61236 0.0
C471 C 0.49158 0.51954 0.59961 0.0
H472 H 0.4712 0.464 0.62581 0.0
C473 C 0.51532 0.51435 0.59191 0.0
C474 C 0.5233 0.491 0.59467 0.0
H475 H 0.486 0.53763 0.59461 0.0
H476 H 0.5273 0.52864 0.58138 0.0
C477 C 0.50716 0.4731 0.60951 0.0
C478 C 0.77055 0.23217 0.81495 0.0
C479 C 0.74796 0.22332 0.80207 0.0
H480 H 0.79293 0.2623 0.81783 0.0
C481 C 0.73005 0.23908 0.78446 0.0
H482 H 0.78477 0.22054 0.82878 0.0
C483 C 0.73477 0.26303 0.778 0.0
C484 C 0.75749 0.2718 0.78922 0.0
H485 H 0.71246 0.23289 0.77418 0.0
H486 H 0.72061 0.27461 0.7632 0.0
C487 C 0.77525 0.25615 0.80871 0.0
C488 C 0.01431 0.48403 0.58886 0.0
C489 C 0.02375 0.50683 0.59034 0.0
H490 H 0.98353 0.46274 0.59122 0.0
C491 C 0.00872 0.52588 0.60289 0.0
H492 H 0.02541 0.4689 0.58019 0.0
C493 C 0.98455 0.52232 0.60929 0.0
C494 C 0.97498 0.49963 0.60328 0.0
H495 H 0.01546 0.54365 0.60466 0.0
H496 H 0.9733 0.53746 0.61585 0.0
C497 C 0.99024 0.48048 0.59528 0.0
C498 C 0.72948 0.73174 0.8562 0.0
C499 C 0.75258 0.72366 0.84713 0.0
H500 H 0.706 0.76109 0.85297 0.0
C501 C 0.77038 0.74009 0.83427 0.0
H502 H 0.71535 0.71957 0.86652 0.0
C503 C 0.76501 0.76382 0.82641 0.0
C504 C 0.74172 0.77172 0.83133 0.0
H505 H 0.7884 0.73455 0.82758 0.0
H506 H 0.77909 0.77583 0.81417 0.0
C507 C 0.7241 0.75555 0.84841 0.0
C508 C 0.50502 0.52588 0.9665 0.0
C509 C 0.52024 0.50746 -0.01614 0.0
H510 H 0.46956 0.5365 0.94883 0.0
C511 C 0.51111 0.48461 -0.01015 0.0
H512 H 0.51149 0.54365 0.96115 0.0
C513 C 0.48714 0.48049 0.98268 0.0
C514 C 0.47168 0.49912 0.96948 0.0
H515 H 0.52237 0.46994 0.00238 0.0
H516 H 0.48066 0.46281 -0.00983 0.0
C517 C 0.48096 0.52175 0.95944 0.0
C518 C 0.72595 0.2613 0.21539 0.0
C519 C 0.74297 0.277 0.2395 0.0
H520 H 0.71774 0.22589 0.18869 0.0
C521 C 0.76575 0.2686 0.25207 0.0
H522 H 0.70827 0.26719 0.20495 0.0
C523 C 0.77121 0.24494 0.24264 0.0
C524 C 0.75402 0.22909 0.22044 0.0
H525 H 0.77935 0.28021 0.27041 0.0
H526 H 0.78879 0.23902 0.25426 0.0
C527 C 0.73142 0.23761 0.20595 0.0
C528 C 0.26852 0.26114 0.80774 0.0
C529 C 0.25028 0.27654 0.82526 0.0
H530 H 0.27855 0.22601 0.78393 0.0
C531 C 0.22778 0.26726 0.83694 0.0
H532 H 0.28608 0.26764 0.79853 0.0
C533 C 0.22342 0.24327 0.82849 0.0
C534 C 0.24146 0.22808 0.80804 0.0
H535 H 0.21332 0.2786 0.85069 0.0
H536 H 0.20577 0.23679 0.83603 0.0
C537 C 0.26416 0.23722 0.79915 0.0
C538 C 0.26966 0.75993 0.2162 0.0
C539 C 0.2505 0.77514 0.20772 0.0
H540 H 0.28128 0.72483 0.23307 0.0
C541 C 0.22784 0.76551 0.2028 0.0
H542 H 0.28737 0.76669 0.21948 0.0
C543 C 0.22431 0.74134 0.21073 0.0
C544 C 0.24338 0.72639 0.22371 0.0
H545 H 0.21269 0.77672 0.19594 0.0
H546 H 0.20657 0.73458 0.20972 0.0
C547 C 0.26614 0.73587 0.22411 0.0
C548 C 0.27441 0.2402 0.20649 0.0
C549 C 0.25702 0.2241 0.22585 0.0
H550 H 0.28294 0.27608 0.18609 0.0
C551 C 0.2339 0.23216 0.23449 0.0
H552 H 0.29236 0.23458 0.19913 0.0
C553 C 0.22849 0.2559 0.22697 0.0
C554 C 0.24605 0.2722 0.21065 0.0
H555 H 0.21999 0.22023 0.24889 0.0
H556 H 0.21063 0.26153 0.23602 0.0
C557 C 0.26898 0.26401 0.19897 0.0
C558 C 0.23819 0.73697 0.83883 0.0
C559 C 0.2616 0.72934 0.84249 0.0
H560 H 0.21452 0.76601 0.83965 0.0
C561 C 0.27918 0.74581 0.85741 0.0
H562 H 0.22414 0.72472 0.82831 0.0
C563 C 0.27362 0.76963 0.86397 0.0
C564 C 0.25037 0.77741 0.85582 0.0
H565 H 0.29737 0.74049 0.86093 0.0
H566 H 0.28771 0.78203 0.87241 0.0
C567 C 0.23264 0.7607 0.84547 0.0
C568 C 0.48353 0.98522 0.58028 0.0
C569 C 0.47523 0.0084 0.58606 0.0
H570 H 0.51313 0.96227 0.58123 0.0
C571 C 0.49109 0.02624 0.60358 0.0
H572 H 0.47178 0.97097 0.56749 0.0
C573 C 0.51493 0.0212 0.61162 0.0
C574 C 0.52338 0.99821 0.60228 0.0
H575 H 0.48526 0.04425 0.60876 0.0
H576 H 0.52682 0.03549 0.6227 0.0
C577 C 0.50729 0.98019 0.58831 0.0
C578 C 0.99248 0.01724 0.09144 0.0
C579 C 0.9761 -0.00036 0.10691 0.0
H580 H 0.02805 0.02562 0.06868 0.0
C581 C 0.98411 0.97652 0.11672 0.0
H582 H 0.98698 0.03526 0.08391 0.0
C583 C 0.0078 0.97094 0.10785 0.0
C584 C 0.02393 0.98837 0.08894 0.0
H585 H 0.97198 0.96253 0.12891 0.0
H586 H 0.01328 0.95285 0.11355 0.0
C587 C 0.01608 0.01168 0.08252 0.0
C588 C 0.51046 0.01968 -0.00894 0.0
C589 C 0.52618 0.00147 0.97566 0.0
H590 H 0.47514 0.02942 0.01279 0.0
C591 C 0.51727 0.97874 0.9648 0.0
H592 H 0.51666 0.03741 -0.0006 0.0
C593 C 0.49334 0.97411 0.97256 0.0
C594 C 0.47785 0.99212 -0.00855 0.0
H595 H 0.52888 0.9643 0.95261 0.0
H596 H 0.48715 0.95628 0.96608 0.0
C597 C 0.48661 0.01505 -0.00107 0.0
C598 C 0.01021 0.98228 0.50495 0.0
C599 C 0.01949 0.00501 0.4974 0.0
H600 H 0.97965 0.96063 0.50583 0.0
C601 C 0.00437 0.02339 0.47891 0.0
H602 H 0.02137 0.96764 0.51855 0.0
C603 C 0.98032 0.01933 0.47154 0.0
C604 C 0.97091 0.9968 0.48241 0.0
H605 H 0.01095 0.04107 0.4724 0.0
H606 H 0.96903 0.03403 0.4596 0.0
C607 C 0.98624 0.97822 0.49747 0.0
C608 C 0.13247 0.46984 0.80648 0.0
C609 C 0.1313 0.48849 0.85225 0.0
H610 H 0.13231 0.45967 0.70351 0.0
C611 C 0.13449 0.5116 0.82874 0.0
H612 H 0.13058 0.45184 0.82323 0.0
C613 C 0.13506 0.51618 0.75999 0.0
C614 C 0.13288 0.49769 0.71399 0.0
H615 H 0.13418 0.52639 0.86291 0.0
H616 H 0.13514 0.53427 0.74314 0.0
C617 C 0.13349 0.4744 0.73776 0.0
C618 C 0.72535 0.8827 0.00266 0.0
C619 C 0.74374 0.88072 0.95636 0.0
H620 H 0.71544 0.88252 0.10581 0.0
C621 C 0.76703 0.8821 0.97951 0.0
H622 H 0.70725 0.88217 -0.01379 0.0
C623 C 0.7718 0.88184 0.0482 0.0
C624 C 0.75334 0.88064 0.09454 0.0
H625 H 0.78166 0.88104 0.94495 0.0
H626 H 0.78986 0.88061 0.06462 0.0
C627 C 0.73012 0.8829 0.0713 0.0
C628 C 0.39235 0.47929 0.26558 0.0
C629 C 0.39253 0.49847 0.22142 0.0
H630 H 0.39289 0.46773 0.36753 0.0
C631 C 0.39318 0.52137 0.2481 0.0
H632 H 0.39183 0.46147 0.24671 0.0
C633 C 0.39391 0.52502 0.31737 0.0
C634 C 0.39385 0.50585 0.36152 0.0
H635 H 0.39339 0.53659 0.21548 0.0
H636 H 0.39456 0.54285 0.33621 0.0
C637 C 0.39292 0.48295 0.33489 0.0
C638 C 0.7244 0.13869 0.53176 0.0
C639 C 0.74313 0.13437 0.57566 0.0
H640 H 0.71374 0.14416 0.43003 0.0
C641 C 0.76556 0.12996 0.54888 0.0
H642 H 0.70692 0.14202 0.55082 0.0
C643 C 0.76954 0.13149 0.48009 0.0
C644 C 0.75112 0.13711 0.43657 0.0
H645 H 0.78037 0.12624 0.58121 0.0
H646 H 0.78715 0.1288 0.46123 0.0
C647 C 0.72835 0.13995 0.46266 0.0
C648 C 0.89339 0.48264 0.23485 0.0
C649 C 0.89409 0.5055 0.20781 0.0
H650 H 0.89346 0.46132 0.32342 0.0
C651 C 0.89508 0.52473 0.25166 0.0
H652 H 0.89268 0.46739 0.20244 0.0
C653 C 0.89544 0.5212 0.32101 0.0
C654 C 0.89495 0.49835 0.34808 0.0
H655 H 0.89562 0.54252 0.23253 0.0
H656 H 0.89629 0.53646 0.35335 0.0
C657 C 0.8939 0.47911 0.30424 0.0
C658 C 0.22982 0.11639 -0.00737 0.0
C659 C 0.24795 0.1198 0.94617 0.0
H660 H 0.22029 0.11432 0.09592 0.0
C661 C 0.27136 0.11923 0.96863 0.0
H662 H 0.21167 0.1163 0.97666 0.0
C663 C 0.27636 0.11848 0.03714 0.0
C664 C 0.25805 0.11791 0.08405 0.0
H665 H 0.28581 0.12144 0.93389 0.0
H666 H 0.29441 0.12017 0.05328 0.0
C667 C 0.23485 0.11521 0.06105 0.0
C668 C 0.63447 0.51764 0.81311 0.0
C669 C 0.63033 0.49941 0.85884 0.0
H670 H 0.63683 0.52755 0.7102 0.0
C671 C 0.63041 0.47605 0.83568 0.0
H672 H 0.63503 0.53574 0.8297 0.0
C673 C 0.63101 0.47131 0.76699 0.0
C674 C 0.63193 0.48984 0.72074 0.0
H675 H 0.62769 0.46152 0.86991 0.0
H676 H 0.62869 0.45336 0.75024 0.0
C677 C 0.63554 0.51286 0.74454 0.0
C678 C 0.2248 0.85484 0.55613 0.0
C679 C 0.24398 0.85573 0.60006 0.0
H680 H 0.21314 0.85393 0.45434 0.0
C681 C 0.26681 0.85652 0.57311 0.0
H682 H 0.20702 0.85424 0.5752 0.0
C683 C 0.27038 0.85623 0.50375 0.0
C684 C 0.2512 0.8553 0.45983 0.0
H685 H 0.28203 0.85715 0.60557 0.0
H686 H 0.28815 0.85673 0.48467 0.0
C687 C 0.22836 0.85471 0.48678 0.0
C688 C 0.60786 0.98037 0.24635 0.0
C689 C 0.60772 0.00329 0.21979 0.0
H690 H 0.60707 0.95882 0.33434 0.0
C691 C 0.60744 0.02245 0.26398 0.0
H692 H 0.60808 0.96516 0.21369 0.0
C693 C 0.60698 0.01875 0.33324 0.0
C694 C 0.60662 0.99582 0.35972 0.0
H695 H 0.60738 0.04029 0.24516 0.0
H696 H 0.60652 0.03394 0.36595 0.0
C697 C 0.60723 0.97667 0.31556 0.0
C698 C 0.22458 0.35942 0.49248 0.0
C699 C 0.24363 0.35791 0.44829 0.0
H700 H 0.21319 0.36134 0.59426 0.0
C701 C 0.26657 0.35806 0.47451 0.0
H702 H 0.20674 0.35952 0.47385 0.0
C703 C 0.27034 0.35899 0.54371 0.0
C704 C 0.25125 0.35995 0.58799 0.0
H705 H 0.28168 0.35696 0.4417 0.0
H706 H 0.28816 0.35858 0.56241 0.0
C707 C 0.22834 0.36054 0.56157 0.0
C708 C 0.89136 0.02235 0.82323 0.0
C709 C 0.89197 0.0032 0.86736 0.0
H710 H 0.89005 0.0339 0.72146 0.0
C711 C 0.8911 0.98027 0.84089 0.0
H712 H 0.89188 0.0402 0.842 0.0
C713 C 0.89016 0.97659 0.77164 0.0
C714 C 0.88989 0.99576 0.72747 0.0
H715 H 0.89154 0.96508 0.87358 0.0
H716 H 0.88987 0.95875 0.7528 0.0
C717 C 0.89024 0.01868 0.75407 0.0
C718 C 0.27889 0.61614 0.00968 0.0
C719 C 0.26037 0.61849 0.96398 0.0
H720 H 0.28904 0.61532 0.1126 0.0
C721 C 0.23715 0.61651 -0.01261 0.0
H722 H 0.29694 0.61706 -0.00707 0.0
C723 C 0.23255 0.61595 0.05614 0.0
C724 C 0.2511 0.61695 0.10219 0.0
H725 H 0.22243 0.61779 0.95322 0.0
H726 H 0.21451 0.61684 0.07299 0.0
C727 C 0.27429 0.61512 0.07836 0.0
C728 C 0.36909 0.02185 0.83578 0.0
C729 C 0.36935 0.99842 0.85842 0.0
H730 H 0.37058 0.04485 0.75094 0.0
C731 C 0.36574 0.98028 0.81209 0.0
H732 H 0.37146 0.03632 0.87044 0.0
C733 C 0.36476 0.98526 0.74361 0.0
C734 C 0.3679 0.00843 0.72044 0.0
H735 H 0.3654 0.96211 0.82822 0.0
H736 H 0.36374 0.97066 0.70888 0.0
C737 C 0.36856 0.02681 0.7672 0.0
C738 C 0.77174 0.64276 0.4845 0.0
C739 C 0.74889 0.64233 0.45771 0.0
H740 H 0.79314 0.64361 0.57269 0.0
C741 C 0.72972 0.64197 0.50178 0.0
H742 H 0.78696 0.64309 0.45197 0.0
C743 C 0.73333 0.64217 0.57114 0.0
C744 C 0.75618 0.64289 0.59787 0.0
H745 H 0.71193 0.64161 0.48281 0.0
H746 H 0.71813 0.64202 0.60375 0.0
C747 C 0.77535 0.64311 0.55378 0.0
C748 C 0.12987 0.97571 0.33877 0.0
C749 C 0.12825 0.99911 0.36123 0.0
H750 H 0.12969 0.95255 0.2542 0.0
C751 C 0.13066 0.01738 0.31461 0.0
H752 H 0.1285 0.96115 0.37357 0.0
C753 C 0.13181 0.01237 0.24614 0.0
C754 C 0.1301 0.98902 0.2233 0.0
H755 H 0.12992 0.03556 0.33051 0.0
H756 H 0.13184 0.02694 0.21117 0.0
C757 C 0.13058 0.9707 0.27027 0.0
C758 C 0.76601 0.38146 0.06291 0.0
C759 C 0.74266 0.3797 0.0855 0.0
H760 H 0.78937 0.37971 0.97898 0.0
C761 C 0.72448 0.37932 0.03817 0.0
H762 H 0.78048 0.38206 0.09809 0.0
C763 C 0.72965 0.3783 0.96976 0.0
C764 C 0.75308 0.37729 0.94767 0.0
H765 H 0.70634 0.37826 0.05397 0.0
H766 H 0.71523 0.37652 0.93473 0.0
C767 C 0.77118 0.38004 -0.00541 0.0
C768 C 0.0745 0.50222 0.31176 0.0
C769 C 0.09625 0.50789 0.3402 0.0
H770 H 0.05645 0.48435 0.2332 0.0
C771 C 0.11698 0.49971 0.31039 0.0
H772 H 0.05821 0.50815 0.33441 0.0
C773 C 0.11592 0.48624 0.25213 0.0
C774 C 0.09414 0.48047 0.22403 0.0
H775 H 0.1339 0.50383 0.33183 0.0
H776 H 0.13212 0.48031 0.22911 0.0
C777 C 0.07343 0.4884 0.25441 0.0
C778 C 0.7395 0.82412 0.55396 0.0
C779 C 0.73248 0.84537 0.5833 0.0
H780 H 0.75895 0.80759 0.47575 0.0
C781 C 0.73954 0.86675 0.55485 0.0
H782 H 0.73446 0.8074 0.57546 0.0
C783 C 0.75343 0.86685 0.49731 0.0
C784 C 0.76075 0.84558 0.4687 0.0
H785 H 0.73434 0.88332 0.57706 0.0
H786 H 0.75859 0.88351 0.47553 0.0
C787 C 0.75375 0.82423 0.49744 0.0
C788 C 0.36042 0.52856 0.79685 0.0
C789 C 0.36196 0.51779 0.73365 0.0
H790 H 0.35983 0.52332 0.90297 0.0
C791 C 0.35794 0.49359 0.72775 0.0
H792 H 0.363 0.54732 0.80212 0.0
C793 C 0.35679 0.47981 0.78539 0.0
C794 C 0.35908 0.49028 0.84883 0.0
H795 H 0.35864 0.48496 0.67932 0.0
H796 H 0.35669 0.46087 0.7802 0.0
C797 C 0.3586 0.51482 0.85446 0.0
C798 C 0.74544 0.11392 0.07447 0.0
C799 C 0.76933 0.11936 0.068 0.0
H800 H 0.71257 0.1112 0.02345 0.0
C801 C 0.77972 0.11962 0.00423 0.0
H802 H 0.7371 0.11311 0.12327 0.0
C803 C 0.76578 0.11743 0.9472 0.0
C804 C 0.74134 0.11594 0.95394 0.0
H805 H 0.79825 0.12331 -0.0016 0.0
H806 H 0.77391 0.11943 0.89848 0.0
C807 C 0.7314 0.11268 0.01753 0.0
C808 C 0.85936 0.51413 0.71374 0.0
C809 C 0.86103 0.48965 0.71945 0.0
H810 H 0.86119 0.54679 0.76641 0.0
C811 C 0.85844 0.47904 0.78263 0.0
H812 H 0.86083 0.5227 0.66536 0.0
C813 C 0.858 0.49284 0.84035 0.0
C814 C 0.86079 0.51723 0.83489 0.0
H815 H 0.85919 0.46011 0.78782 0.0
H816 H 0.85842 0.48422 0.88881 0.0
C817 C 0.85953 0.52792 0.77149 0.0
C818 C 0.23914 0.17048 0.53915 0.0
C819 C 0.23375 0.14941 0.57206 0.0
H820 H 0.2581 0.18694 0.45997 0.0
C821 C 0.24294 0.12813 0.54818 0.0
H822 H 0.23239 0.18714 0.55692 0.0
C823 C 0.25755 0.128 0.49207 0.0
C824 C 0.26345 0.1492 0.46062 0.0
H825 H 0.23898 0.1117 0.57314 0.0
H826 H 0.26448 0.11147 0.47391 0.0
C827 C 0.2541 0.1704 0.48429 0.0
C828 C 0.61706 0.50646 0.25721 0.0
C829 C 0.59585 0.51471 0.23047 0.0
H830 H 0.63352 0.48659 0.33537 0.0
C831 C 0.57462 0.50927 0.26237 0.0
H832 H 0.63362 0.51047 0.2331 0.0
C833 C 0.57453 0.49524 0.31936 0.0
C834 C 0.5957 0.4869 0.34599 0.0
H835 H 0.55802 0.51529 0.24233 0.0
H836 H 0.5579 0.49115 0.34289 0.0
C837 C 0.617 0.4928 0.31518 0.0
C838 C 0.25713 0.89253 0.96744 0.0
C839 C 0.23278 0.88969 0.97271 0.0
H840 H 0.28972 0.89135 0.02032 0.0
C841 C 0.222 0.89113 0.03594 0.0
H842 H 0.26579 0.89195 0.91906 0.0
C843 C 0.23568 0.89139 0.09384 0.0
C844 C 0.26013 0.88964 0.08835 0.0
H845 H 0.20316 0.88943 0.04082 0.0
H846 H 0.22706 0.88992 0.14212 0.0
C847 C 0.27082 0.89218 0.0253 0.0
C848 C 0.63954 0.00857 0.72542 0.0
C849 C 0.63623 0.98426 0.73154 0.0
H850 H 0.6397 0.04138 0.77752 0.0
C851 C 0.63792 0.97361 0.79486 0.0
H852 H 0.63875 0.01711 0.67688 0.0
C853 C 0.63925 0.98747 0.85231 0.0
C854 C 0.6381 0.01198 0.84637 0.0
H855 H 0.63587 0.95479 0.80029 0.0
H856 H 0.63822 0.97901 0.9009 0.0
C857 C 0.64014 0.02245 0.78289 0.0
C858 C 0.21997 0.38587 0.01364 0.0
C859 C 0.23054 0.38456 0.07709 0.0
H860 H 0.22552 0.38667 0.9077 0.0
C861 C 0.25468 0.3887 0.08353 0.0
H862 H 0.20126 0.38321 0.00796 0.0
C863 C 0.26861 0.38985 0.02628 0.0
C864 C 0.25835 0.38761 0.96264 0.0
H865 H 0.26315 0.38824 0.13217 0.0
H866 H 0.28751 0.39012 0.03188 0.0
C867 C 0.23385 0.38784 0.95641 0.0
C868 C 0.85725 0.97839 0.28917 0.0
C869 C 0.85945 0.98878 0.3527 0.0
H870 H 0.85927 0.98363 0.18321 0.0
C871 C 0.85927 0.01332 0.35856 0.0
H872 H 0.85695 0.95946 0.28385 0.0
C873 C 0.8614 0.0271 0.30113 0.0
C874 C 0.8629 0.01638 0.23787 0.0
H875 H 0.86046 0.02175 0.40718 0.0
H876 H 0.86416 0.04583 0.3066 0.0
C877 C 0.85863 0.99223 0.2317 0.0
C878 C 0.26531 0.63356 0.56428 0.0
C879 C 0.2716 0.65523 0.59236 0.0
H880 H 0.24723 0.61597 0.48479 0.0
C881 C 0.26428 0.67616 0.56174 0.0
H882 H 0.27078 0.6172 0.58745 0.0
C883 C 0.25044 0.67541 0.50444 0.0
C884 C 0.24414 0.65376 0.47628 0.0
H885 H 0.26875 0.69308 0.58291 0.0
H886 H 0.24491 0.69186 0.48173 0.0
C887 C 0.25184 0.63282 0.50605 0.0
C888 C 0.37975 0.99233 0.25681 0.0
C889 C 0.40096 0.98355 0.23142 0.0
H890 H 0.36327 0.01323 0.33285 0.0
C891 C 0.42214 0.98913 0.26336 0.0
H892 H 0.36325 0.98825 0.23261 0.0
C893 C 0.42221 0.0038 0.31895 0.0
C894 C 0.40105 0.01267 0.34424 0.0
H895 H 0.43875 0.98272 0.24436 0.0
H896 H 0.43878 0.00793 0.34249 0.0
C897 C 0.37978 0.00664 0.31354 0.0
C898 C 0.76535 0.60837 0.09059 0.0
C899 C 0.74087 0.60942 0.08477 0.0
H900 H 0.79795 0.61154 0.0383 0.0
C901 C 0.73041 0.60706 0.02138 0.0
H902 H 0.77382 0.60969 0.13911 0.0
C903 C 0.74424 0.60744 0.96379 0.0
C904 C 0.76851 0.61084 0.96962 0.0
H905 H 0.7115 0.60738 0.01609 0.0
H906 H 0.73567 0.608 0.91528 0.0
C907 C 0.77916 0.60942 0.03299 0.0
C908 C 0.07641 0.98864 0.82217 0.0
C909 C 0.09776 0.9804 0.84789 0.0
H910 H 0.05943 0.00954 0.74797 0.0
C911 C 0.11892 0.98721 0.81783 0.0
H912 H 0.05987 0.9839 0.84521 0.0
C913 C 0.11866 0.00177 0.76158 0.0
C914 C 0.09726 0.01002 0.73607 0.0
H915 H 0.13556 0.98113 0.83744 0.0
H916 H 0.13511 0.00653 0.738 0.0
C917 C 0.07618 0.00356 0.76713 0.0
C918 C 0.75785 0.37501 0.54795 0.0
C919 C 0.76674 0.35358 0.57161 0.0
H920 H 0.7358 0.39194 0.4753 0.0
C921 C 0.75997 0.3325 0.54095 0.0
H922 H 0.76281 0.39142 0.57147 0.0
C923 C 0.74413 0.33274 0.48825 0.0
C924 C 0.73523 0.3541 0.46433 0.0
H925 H 0.76636 0.31572 0.55888 0.0
H926 H 0.73916 0.31618 0.46555 0.0
C927 C 0.74238 0.37529 0.49372 0.0
C928 C 0.10185 0.38123 0.16972 0.0
C929 C 0.1041 0.37966 0.09948 0.0
H930 H 0.11617 0.37119 0.26522 0.0
C931 C 0.11852 0.36228 0.0719 0.0
H932 H 0.09107 0.39482 0.19206 0.0
C933 C 0.13209 0.34806 0.1139 0.0
C934 C 0.13232 0.35189 0.18387 0.0
H935 H 0.12072 0.36098 0.01797 0.0
H936 H 0.14449 0.33613 0.0908 0.0
C937 C 0.11621 0.36774 0.21168 0.0
C938 C 0.89241 0.8893 0.37427 0.0
C939 C 0.88848 0.88776 0.44406 0.0
H940 H 0.88028 0.87957 0.27601 0.0
C941 C 0.87292 0.87072 0.46838 0.0
H942 H 0.90406 0.90253 0.35388 0.0
C943 C 0.86007 0.85686 0.42346 0.0
C944 C 0.86194 0.86055 0.35375 0.0
H945 H 0.86937 0.86936 0.52171 0.0
H946 H 0.84684 0.84512 0.44336 0.0
C947 C 0.87881 0.87622 0.32942 0.0
C948 C 0.38324 0.63255 0.60939 0.0
C949 C 0.39816 0.61541 0.63634 0.0
H950 H 0.35717 0.65862 0.63011 0.0
C951 C 0.40143 0.61455 0.7065 0.0
H952 H 0.38024 0.63344 0.5557 0.0
C953 C 0.38751 0.6282 0.74911 0.0
C954 C 0.37101 0.64374 0.72213 0.0
H955 H 0.41262 0.60133 0.7289 0.0
H956 H 0.38828 0.62523 0.80283 0.0
C957 C 0.37008 0.64696 0.6521 0.0
C958 C 0.63789 0.14294 0.92882 0.0
C959 C 0.63719 0.13981 0.85864 0.0
H960 H 0.62683 0.12978 0.02479 0.0
C961 C 0.62015 0.12496 0.83111 0.0
H962 H 0.65105 0.15413 0.95153 0.0
C963 C 0.60559 0.11178 0.87324 0.0
C964 C 0.6086 0.11247 0.9435 0.0
H965 H 0.61935 0.12213 0.77733 0.0
H966 H 0.59396 0.09903 0.85044 0.0
C967 C 0.62405 0.12901 0.971 0.0
C968 C 0.12637 0.61852 0.34243 0.0
C969 C 0.1436 0.63397 0.36592 0.0
H970 H 0.1006 0.59275 0.3687 0.0
C971 C 0.14617 0.63738 0.43554 0.0
H972 H 0.12444 0.61529 0.28908 0.0
C973 C 0.13332 0.62379 0.48107 0.0
C974 C 0.11699 0.60741 0.45751 0.0
H975 H 0.15977 0.64886 0.45471 0.0
H976 H 0.13718 0.62503 0.53425 0.0
C977 C 0.11276 0.60571 0.38803 0.0
C978 C 0.60095 0.886 0.70047 0.0
C979 C 0.60398 0.88555 0.6302 0.0
H980 H 0.6147 0.8752 0.796 0.0
C981 C 0.61931 0.86899 0.60213 0.0
H982 H 0.58946 0.89879 0.72371 0.0
C983 C 0.633 0.85475 0.64388 0.0
C984 C 0.63218 0.85757 0.71406 0.0
H985 H 0.62214 0.86846 0.54833 0.0
H986 H 0.64615 0.84355 0.6211 0.0
C987 C 0.61539 0.87254 0.74214 0.0
C988 C 0.37706 0.37559 0.83425 0.0
C989 C 0.36044 0.36059 0.86329 0.0
H990 H 0.40285 0.40211 0.85113 0.0
C991 C 0.36021 0.35785 0.93366 0.0
H992 H 0.3775 0.37812 0.78032 0.0
C993 C 0.37402 0.37228 0.9745 0.0
C994 C 0.38898 0.38893 0.94549 0.0
H995 H 0.34741 0.34656 0.95757 0.0
H996 H 0.37157 0.37174 0.02845 0.0
C997 C 0.39159 0.38928 0.87507 0.0
C998 C 0.88261 0.12984 0.23547 0.0
C999 C 0.8677 0.14517 0.20076 0.0
H1000 H 0.9075 0.10196 0.22778 0.0
C1001 C 0.87012 0.14736 0.1306 0.0
H1002 H 0.88099 0.12774 0.28939 0.0
C1003 C 0.88453 0.13191 0.0949 0.0
C1004 C 0.89749 0.1148 0.12918 0.0
H1005 H 0.85871 0.15893 0.10237 0.0
H1006 H 0.88391 0.13195 0.04051 0.0
C1007 C 0.89779 0.11511 0.19995 0.0
C1008 C 0.89841 0.61674 0.87023 0.0
C1009 C 0.89622 0.61631 0.94074 0.0
H1010 H 0.88356 0.62882 0.77745 0.0
C1011 C 0.88187 0.633 0.97209 0.0
H1012 H 0.90927 0.60398 0.84453 0.0
C1013 C 0.86785 0.64792 0.93338 0.0
C1014 C 0.86728 0.64564 0.86291 0.0
H1015 H 0.87982 0.633 0.02621 0.0
H1016 H 0.85532 0.65904 0.95912 0.0
C1017 C 0.88367 0.63095 0.83153 0.0
C1018 C 0.12394 0.12754 0.58741 0.0
C1019 C 0.10856 0.1105 0.61238 0.0
H1020 H 0.1498 0.15344 0.61137 0.0
C1021 C 0.105 0.10877 0.68218 0.0
H1022 H 0.12725 0.12885 0.53394 0.0
C1023 C 0.11863 0.12203 0.72659 0.0
C1024 C 0.13517 0.13796 0.70162 0.0
H1025 H 0.09356 0.09536 0.70257 0.0
H1026 H 0.11746 0.11864 0.78004 0.0
C1027 C 0.13675 0.14159 0.63181 0.0
C1028 C 0.61632 0.37765 0.33059 0.0
C1029 C 0.63303 0.3609 0.34965 0.0
H1030 H 0.59175 0.40356 0.36388 0.0
C1031 C 0.63519 0.35488 0.41798 0.0
H1032 H 0.61468 0.38287 0.27847 0.0
C1033 C 0.62291 0.36744 0.46709 0.0
C1034 C 0.60748 0.38538 0.44823 0.0
H1035 H 0.64835 0.34235 0.43404 0.0
H1036 H 0.62677 0.36434 0.51964 0.0
C1037 C 0.60323 0.38942 0.37956 0.0
C1038 C 0.37248 0.86831 0.06881 0.0
C1039 C 0.38828 0.88438 0.09659 0.0
H1040 H 0.34549 0.84322 0.08789 0.0
C1041 C 0.3916 0.88476 0.16664 0.0
H1042 H 0.36941 0.86799 0.0151 0.0
C1043 C 0.37719 0.87137 0.20874 0.0
C1044 C 0.35996 0.85674 0.18111 0.0
H1045 H 0.40345 0.89736 0.18924 0.0
H1046 H 0.37825 0.87387 0.26261 0.0
C1047 C 0.35883 0.85414 0.11076 0.0
C1048 C 0.88337 0.376 0.73629 0.0
C1049 C 0.86734 0.36033 0.70772 0.0
H1050 H 0.90835 0.4032 0.71854 0.0
C1051 C 0.86716 0.35724 0.63757 0.0
H1052 H 0.88357 0.37888 0.79009 0.0
C1053 C 0.88054 0.37189 0.59618 0.0
C1054 C 0.89498 0.38913 0.62464 0.0
H1055 H 0.85462 0.34548 0.61433 0.0
H1056 H 0.87811 0.37108 0.54225 0.0
C1057 C 0.89754 0.3899 0.69504 0.0
C1058 C 0.37434 0.13212 0.46892 0.0
C1059 C 0.39033 0.11469 0.44987 0.0
H1060 H 0.34873 0.15704 0.43589 0.0
C1061 C 0.39532 0.11144 0.38123 0.0
H1062 H 0.36992 0.13461 0.52137 0.0
C1063 C 0.38246 0.12346 0.33222 0.0
C1064 C 0.36527 0.1397 0.3513 0.0
H1065 H 0.40725 0.09772 0.36532 0.0
H1066 H 0.38473 0.11883 0.27983 0.0
C1067 C 0.36229 0.14494 0.41989 0.0
C1068 C 0.62715 0.62911 0.06795 0.0
C1069 C 0.6114 0.61307 0.09613 0.0
H1070 H 0.65426 0.65413 0.08634 0.0
C1071 C 0.60838 0.6126 0.16628 0.0
H1072 H 0.62999 0.6295 0.01414 0.0
C1073 C 0.62298 0.62591 0.208 0.0
C1074 C 0.64011 0.64056 0.17992 0.0
H1075 H 0.59658 0.60001 0.18914 0.0
H1076 H 0.62211 0.62337 0.26188 0.0
C1077 C 0.64099 0.6432 0.10955 0.0
C1078 C 0.13774 0.84805 0.95114 0.0
C1079 C 0.13588 0.85153 0.88121 0.0
H1080 H 0.12843 0.86088 0.04897 0.0
C1081 C 0.11829 0.86644 0.85669 0.0
H1082 H 0.15132 0.83686 0.97171 0.0
C1083 C 0.10446 0.87941 0.90141 0.0
C1084 C 0.10871 0.87832 0.97098 0.0
H1085 H 0.11663 0.86962 0.80324 0.0
H1086 H 0.09245 0.89234 0.88113 0.0
C1087 C 0.12467 0.86179 -0.00432 0.0
loop_
_geom_bond_atom_site_label_1
_geom_bond_atom_site_label_2
_geom_bond_distance
_geom_bond_site_symmetry_2
_ccdc_geom_bond_type
C0 O1 1.306 . S
C0 O3 1.160 . S
O1 C0 1.306 . S
O1 Cd2 2.228 1_556 S
Cd2 O1 2.228 1_554 S
Cd2 O6 2.273 . S
Cd2 O10 2.277 . S
O3 C0 1.160 . S
O3 Cd4 2.203 1_556 S
Cd4 O3 2.203 1_554 S
Cd4 O6 2.411 . S
Cd4 O7 2.333 . S
Cd4 O8 2.352 . S
Cd4 O12 2.277 . S
Cd4 O13 2.356 . S
C5 O10 1.209 . S
C5 O12 1.226 . S
O6 Cd2 2.273 . S
O6 Cd4 2.411 . S
O6 C9 1.320 . S
O7 Cd4 2.333 . S
O7 C9 1.214 . S
O8 Cd4 2.352 . S
O8 C11 1.258 . S
C9 O6 1.320 . S
C9 O7 1.214 . S
O10 Cd2 2.277 . S
O10 C5 1.209 . S
C11 O8 1.258 . S
C11 O13 1.282 . S
O12 Cd4 2.277 . S
O12 C5 1.226 . S
O13 Cd4 2.356 . S
O13 C11 1.282 . S
C14 O15 1.306 . S
C14 O17 1.160 . S
O15 C14 1.306 . S
O15 Cd16 2.228 . S
Cd16 O15 2.228 . S
Cd16 O20 2.273 . S
Cd16 O24 2.277 . S
O17 C14 1.160 . S
O17 Cd18 2.203 . S
Cd18 O17 2.203 . S
Cd18 O20 2.411 . S
Cd18 O21 2.333 . S
Cd18 O22 2.352 . S
Cd18 O26 2.277 . S
Cd18 O27 2.356 . S
C19 O24 1.209 . S
C19 O26 1.226 . S
O20 Cd16 2.273 . S
O20 Cd18 2.411 . S
O20 C23 1.320 . S
O21 Cd18 2.333 . S
O21 C23 1.214 . S
O22 Cd18 2.352 . S
O22 C25 1.258 . S
C23 O20 1.320 . S
C23 O21 1.214 . S
O24 Cd16 2.277 . S
O24 C19 1.209 . S
C25 O22 1.258 . S
C25 O27 1.282 . S
O26 Cd18 2.277 . S
O26 C19 1.226 . S
O27 Cd18 2.356 . S
O27 C25 1.282 . S
C28 O29 1.306 . S
C28 O31 1.160 . S
O29 C28 1.306 . S
O29 Cd30 2.228 . S
Cd30 O29 2.228 . S
Cd30 O34 2.273 . S
Cd30 O38 2.277 . S
O31 C28 1.160 . S
O31 Cd32 2.203 . S
Cd32 O31 2.203 . S
Cd32 O34 2.411 . S
Cd32 O35 2.333 . S
Cd32 O36 2.352 . S
Cd32 O40 2.277 . S
Cd32 O41 2.356 . S
C33 O38 1.209 . S
C33 O40 1.226 . S
O34 Cd30 2.273 . S
O34 Cd32 2.411 . S
O34 C37 1.320 . S
O35 Cd32 2.333 . S
O35 C37 1.214 . S
O36 Cd32 2.352 . S
O36 C39 1.258 . S
C37 O34 1.320 . S
C37 O35 1.214 . S
O38 Cd30 2.277 . S
O38 C33 1.209 . S
C39 O36 1.258 . S
C39 O41 1.282 . S
O40 Cd32 2.277 . S
O40 C33 1.226 . S
O41 Cd32 2.356 . S
O41 C39 1.282 . S
C42 O43 1.306 . S
C42 O45 1.160 . S
O43 C42 1.306 . S
O43 Cd44 2.228 . S
Cd44 O43 2.228 . S
Cd44 O48 2.273 . S
Cd44 O52 2.277 . S
O45 C42 1.160 . S
O45 Cd46 2.203 . S
Cd46 O45 2.203 . S
Cd46 O48 2.411 . S
Cd46 O49 2.333 . S
Cd46 O50 2.352 . S
Cd46 O54 2.277 . S
Cd46 O55 2.356 . S
C47 O52 1.209 . S
C47 O54 1.226 . S
O48 Cd44 2.273 . S
O48 Cd46 2.411 . S
O48 C51 1.320 . S
O49 Cd46 2.333 . S
O49 C51 1.214 . S
O50 Cd46 2.352 . S
O50 C53 1.258 . S
C51 O48 1.320 . S
C51 O49 1.214 . S
O52 Cd44 2.277 . S
O52 C47 1.209 . S
C53 O50 1.258 . S
C53 O55 1.282 . S
O54 Cd46 2.277 . S
O54 C47 1.226 . S
O55 Cd46 2.356 . S
O55 C53 1.282 . S
C56 O57 1.306 . S
C56 O59 1.160 . S
O57 C56 1.306 . S
O57 Cd58 2.228 . S
Cd58 O57 2.228 . S
Cd58 O62 2.273 . S
Cd58 O66 2.277 . S
O59 C56 1.160 . S
O59 Cd60 2.203 . S
Cd60 O59 2.203 . S
Cd60 O62 2.411 . S
Cd60 O63 2.333 . S
Cd60 O64 2.352 . S
Cd60 O68 2.277 . S
Cd60 O69 2.356 . S
C61 O66 1.209 . S
C61 O68 1.226 . S
O62 Cd58 2.273 . S
O62 Cd60 2.411 . S
O62 C65 1.320 . S
O63 Cd60 2.333 . S
O63 C65 1.214 . S
O64 Cd60 2.352 . S
O64 C67 1.258 . S
C65 O62 1.320 . S
C65 O63 1.214 . S
O66 Cd58 2.277 . S
O66 C61 1.209 . S
C67 O64 1.258 . S
C67 O69 1.282 . S
O68 Cd60 2.277 . S
O68 C61 1.226 . S
O69 Cd60 2.356 . S
O69 C67 1.282 . S
C70 O71 1.306 . S
C70 O73 1.160 . S
O71 C70 1.306 . S
O71 Cd72 2.228 . S
Cd72 O71 2.228 . S
Cd72 O76 2.273 . S
Cd72 O80 2.277 . S
O73 C70 1.160 . S
O73 Cd74 2.203 . S
Cd74 O73 2.203 . S
Cd74 O76 2.411 . S
Cd74 O77 2.333 . S
Cd74 O78 2.352 . S
Cd74 O82 2.277 . S
Cd74 O83 2.356 . S
C75 O80 1.209 . S
C75 O82 1.226 . S
O76 Cd72 2.273 . S
O76 Cd74 2.411 . S
O76 C79 1.320 . S
O77 Cd74 2.333 . S
O77 C79 1.214 . S
O78 Cd74 2.352 . S
O78 C81 1.258 . S
C79 O76 1.320 . S
C79 O77 1.214 . S
O80 Cd72 2.277 . S
O80 C75 1.209 . S
C81 O78 1.258 . S
C81 O83 1.282 . S
O82 Cd74 2.277 . S
O82 C75 1.226 . S
O83 Cd74 2.356 . S
O83 C81 1.282 . S
C84 O85 1.306 . S
C84 O87 1.160 . S
O85 C84 1.306 . S
O85 Cd86 2.228 . S
Cd86 O85 2.228 . S
Cd86 O90 2.273 1_554 S
Cd86 O94 2.277 . S
O87 C84 1.160 . S
O87 Cd88 2.203 . S
Cd88 O87 2.203 . S
Cd88 O90 2.411 1_554 S
Cd88 O91 2.333 1_554 S
Cd88 O92 2.352 . S
Cd88 O96 2.277 . S
Cd88 O97 2.356 1_554 S
C89 O94 1.209 . S
C89 O96 1.226 . S
O90 Cd86 2.273 1_556 S
O90 Cd88 2.411 1_556 S
O90 C93 1.320 . S
O91 Cd88 2.333 1_556 S
O91 C93 1.214 . S
O92 Cd88 2.352 . S
O92 C95 1.258 . S
C93 O90 1.320 . S
C93 O91 1.214 . S
O94 Cd86 2.277 . S
O94 C89 1.209 . S
C95 O92 1.258 . S
C95 O97 1.282 1_554 S
O96 Cd88 2.277 . S
O96 C89 1.226 . S
O97 Cd88 2.356 1_556 S
O97 C95 1.282 1_556 S
C98 O99 1.306 . S
C98 O101 1.160 . S
O99 C98 1.306 . S
O99 Cd100 2.228 . S
Cd100 O99 2.228 . S
Cd100 O104 2.273 . S
Cd100 O108 2.277 . S
O101 C98 1.160 . S
O101 Cd102 2.203 . S
Cd102 O101 2.203 . S
Cd102 O104 2.411 . S
Cd102 O105 2.333 . S
Cd102 O106 2.352 . S
Cd102 O110 2.277 . S
Cd102 O111 2.356 . S
C103 O108 1.209 . S
C103 O110 1.226 . S
O104 Cd100 2.273 . S
O104 Cd102 2.411 . S
O104 C107 1.320 . S
O105 Cd102 2.333 . S
O105 C107 1.214 . S
O106 Cd102 2.352 . S
O106 C109 1.258 . S
C107 O104 1.320 . S
C107 O105 1.214 . S
O108 Cd100 2.277 . S
O108 C103 1.209 . S
C109 O106 1.258 . S
C109 O111 1.282 . S
O110 Cd102 2.277 . S
O110 C103 1.226 . S
O111 Cd102 2.356 . S
O111 C109 1.282 . S
C112 O113 1.306 . S
C112 O115 1.160 . S
O113 C112 1.306 . S
O113 Cd114 2.228 . S
Cd114 O113 2.228 . S
Cd114 O118 2.273 1_554 S
Cd114 O122 2.277 . S
O115 C112 1.160 . S
O115 Cd116 2.203 . S
Cd116 O115 2.203 . S
Cd116 O118 2.411 1_554 S
Cd116 O119 2.333 1_554 S
Cd116 O120 2.352 . S
Cd116 O124 2.277 . S
Cd116 O125 2.356 1_554 S
C117 O122 1.209 . S
C117 O124 1.226 . S
O118 Cd114 2.273 1_556 S
O118 Cd116 2.411 1_556 S
O118 C121 1.320 . S
O119 Cd116 2.333 1_556 S
O119 C121 1.214 . S
O120 Cd116 2.352 . S
O120 C123 1.258 . S
C121 O118 1.320 . S
C121 O119 1.214 . S
O122 Cd114 2.277 . S
O122 C117 1.209 . S
C123 O120 1.258 . S
C123 O125 1.282 1_554 S
O124 Cd116 2.277 . S
O124 C117 1.226 . S
O125 Cd116 2.356 1_556 S
O125 C123 1.282 1_556 S
C126 O127 1.306 . S
C126 O129 1.160 . S
O127 C126 1.306 . S
O127 Cd128 2.228 . S
Cd128 O127 2.228 . S
Cd128 O132 2.273 . S
Cd128 O136 2.277 . S
O129 C126 1.160 . S
O129 Cd130 2.203 . S
Cd130 O129 2.203 . S
Cd130 O132 2.411 . S
Cd130 O133 2.333 . S
Cd130 O134 2.352 . S
Cd130 O138 2.277 . S
Cd130 O139 2.356 . S
C131 O136 1.209 . S
C131 O138 1.226 . S
O132 Cd128 2.273 . S
O132 Cd130 2.411 . S
O132 C135 1.320 . S
O133 Cd130 2.333 . S
O133 C135 1.214 . S
O134 Cd130 2.352 . S
O134 C137 1.258 . S
C135 O132 1.320 . S
C135 O133 1.214 . S
O136 Cd128 2.277 . S
O136 C131 1.209 . S
C137 O134 1.258 . S
C137 O139 1.282 . S
O138 Cd130 2.277 . S
O138 C131 1.226 . S
O139 Cd130 2.356 . S
O139 C137 1.282 . S
C140 O141 1.306 . S
C140 O143 1.160 . S
O141 C140 1.306 . S
O141 Cd142 2.228 . S
Cd142 O141 2.228 . S
Cd142 O146 2.273 . S
Cd142 O150 2.277 . S
O143 C140 1.160 . S
O143 Cd144 2.203 . S
Cd144 O143 2.203 . S
Cd144 O146 2.411 . S
Cd144 O147 2.333 . S
Cd144 O148 2.352 . S
Cd144 O152 2.277 . S
Cd144 O153 2.356 . S
C145 O150 1.209 . S
C145 O152 1.226 . S
O146 Cd142 2.273 . S
O146 Cd144 2.411 . S
O146 C149 1.320 . S
O147 Cd144 2.333 . S
O147 C149 1.214 . S
O148 Cd144 2.352 . S
O148 C151 1.258 . S
C149 O146 1.320 . S
C149 O147 1.214 . S
O150 Cd142 2.277 . S
O150 C145 1.209 . S
C151 O148 1.258 . S
C151 O153 1.282 . S
O152 Cd144 2.277 . S
O152 C145 1.226 . S
O153 Cd144 2.356 . S
O153 C151 1.282 . S
C154 O155 1.306 . S
C154 O157 1.160 . S
O155 C154 1.306 . S
O155 Cd156 2.228 . S
Cd156 O155 2.228 . S
Cd156 O160 2.273 . S
Cd156 O164 2.277 . S
O157 C154 1.160 . S
O157 Cd158 2.203 . S
Cd158 O157 2.203 . S
Cd158 O160 2.411 . S
Cd158 O161 2.333 . S
Cd158 O162 2.352 . S
Cd158 O166 2.277 . S
Cd158 O167 2.356 . S
C159 O164 1.209 . S
C159 O166 1.226 . S
O160 Cd156 2.273 . S
O160 Cd158 2.411 . S
O160 C163 1.320 . S
O161 Cd158 2.333 . S
O161 C163 1.214 . S
O162 Cd158 2.352 . S
O162 C165 1.258 . S
C163 O160 1.320 . S
C163 O161 1.214 . S
O164 Cd156 2.277 . S
O164 C159 1.209 . S
C165 O162 1.258 . S
C165 O167 1.282 . S
O166 Cd158 2.277 . S
O166 C159 1.226 . S
O167 Cd158 2.356 . S
O167 C165 1.282 . S
C168 O169 1.306 . S
C168 O171 1.160 . S
O169 C168 1.306 . S
O169 Cd170 2.228 . S
Cd170 O169 2.228 . S
Cd170 O174 2.273 . S
Cd170 O178 2.277 . S
O171 C168 1.160 . S
O171 Cd172 2.203 . S
Cd172 O171 2.203 . S
Cd172 O174 2.411 . S
Cd172 O175 2.333 . S
Cd172 O176 2.352 . S
Cd172 O180 2.277 . S
Cd172 O181 2.356 . S
C173 O178 1.209 . S
C173 O180 1.226 . S
O174 Cd170 2.273 . S
O174 Cd172 2.411 . S
O174 C177 1.320 . S
O175 Cd172 2.333 . S
O175 C177 1.214 . S
O176 Cd172 2.352 . S
O176 C179 1.258 . S
C177 O174 1.320 . S
C177 O175 1.214 . S
O178 Cd170 2.277 . S
O178 C173 1.209 . S
C179 O176 1.258 . S
C179 O181 1.282 . S
O180 Cd172 2.277 . S
O180 C173 1.226 . S
O181 Cd172 2.356 . S
O181 C179 1.282 . S
C182 O183 1.306 . S
C182 O185 1.160 . S
O183 C182 1.306 . S
O183 Cd184 2.228 . S
Cd184 O183 2.228 . S
Cd184 O188 2.273 . S
Cd184 O192 2.277 . S
O185 C182 1.160 . S
O185 Cd186 2.203 . S
Cd186 O185 2.203 . S
Cd186 O188 2.411 . S
Cd186 O189 2.333 . S
Cd186 O190 2.352 . S
Cd186 O194 2.277 . S
Cd186 O195 2.356 . S
C187 O192 1.209 . S
C187 O194 1.226 . S
O188 Cd184 2.273 . S
O188 Cd186 2.411 . S
O188 C191 1.320 . S
O189 Cd186 2.333 . S
O189 C191 1.214 . S
O190 Cd186 2.352 . S
O190 C193 1.258 . S
C191 O188 1.320 . S
C191 O189 1.214 . S
O192 Cd184 2.277 . S
O192 C187 1.209 . S
C193 O190 1.258 . S
C193 O195 1.282 . S
O194 Cd186 2.277 . S
O194 C187 1.226 . S
O195 Cd186 2.356 . S
O195 C193 1.282 . S
C196 O197 1.306 . S
C196 O199 1.160 . S
O197 C196 1.306 . S
O197 Cd198 2.228 1_556 S
Cd198 O197 2.228 1_554 S
Cd198 O202 2.273 . S
Cd198 O206 2.277 . S
O199 C196 1.160 . S
O199 Cd200 2.203 1_556 S
Cd200 O199 2.203 1_554 S
Cd200 O202 2.411 . S
Cd200 O203 2.333 . S
Cd200 O204 2.352 . S
Cd200 O208 2.277 . S
Cd200 O209 2.356 . S
C201 O206 1.209 . S
C201 O208 1.226 . S
O202 Cd198 2.273 . S
O202 Cd200 2.411 . S
O202 C205 1.320 . S
O203 Cd200 2.333 . S
O203 C205 1.214 . S
O204 Cd200 2.352 . S
O204 C207 1.258 . S
C205 O202 1.320 . S
C205 O203 1.214 . S
O206 Cd198 2.277 . S
O206 C201 1.209 . S
C207 O204 1.258 . S
C207 O209 1.282 . S
O208 Cd200 2.277 . S
O208 C201 1.226 . S
O209 Cd200 2.356 . S
O209 C207 1.282 . S
C210 O211 1.306 . S
C210 O213 1.160 . S
O211 C210 1.306 . S
O211 Cd212 2.228 . S
Cd212 O211 2.228 . S
Cd212 O216 2.273 . S
Cd212 O220 2.277 . S
O213 C210 1.160 . S
O213 Cd214 2.203 . S
Cd214 O213 2.203 . S
Cd214 O216 2.411 . S
Cd214 O217 2.333 . S
Cd214 O218 2.352 . S
Cd214 O222 2.277 . S
Cd214 O223 2.356 . S
C215 O220 1.209 . S
C215 O222 1.226 . S
O216 Cd212 2.273 . S
O216 Cd214 2.411 . S
O216 C219 1.320 . S
O217 Cd214 2.333 . S
O217 C219 1.214 . S
O218 Cd214 2.352 . S
O218 C221 1.258 . S
C219 O216 1.320 . S
C219 O217 1.214 . S
O220 Cd212 2.277 . S
O220 C215 1.209 . S
C221 O218 1.258 . S
C221 O223 1.282 . S
O222 Cd214 2.277 . S
O222 C215 1.226 . S
O223 Cd214 2.356 . S
O223 C221 1.282 . S
C224 O225 1.306 1_565 S
C224 O227 1.160 . S
O225 C224 1.306 1_545 S
O225 Cd226 2.228 . S
Cd226 O225 2.228 . S
Cd226 O230 2.273 . S
Cd226 O234 2.268 1_545 S
O227 C224 1.160 . S
O227 Cd228 2.203 . S
Cd228 O227 2.203 . S
Cd228 O230 2.411 1_565 S
Cd228 O231 2.333 . S
Cd228 O232 2.352 . S
Cd228 O236 2.277 . S
Cd228 O237 2.356 . S
C229 O234 1.219 . S
C229 O236 1.226 . S
O230 Cd226 2.273 . S
O230 Cd228 2.411 1_545 S
O230 C233 1.320 1_545 S
O231 Cd228 2.333 . S
O231 C233 1.214 . S
O232 Cd228 2.352 . S
O232 C235 1.258 . S
C233 O230 1.320 1_565 S
C233 O231 1.214 . S
O234 Cd226 2.268 1_565 S
O234 C229 1.219 . S
C235 O232 1.258 . S
C235 O237 1.282 . S
O236 Cd228 2.277 . S
O236 C229 1.226 . S
O237 Cd228 2.356 . S
O237 C235 1.282 . S
C238 O239 1.306 . S
C238 O241 1.160 . S
O239 C238 1.306 . S
O239 Cd240 2.228 . S
Cd240 O239 2.228 . S
Cd240 O244 2.273 . S
Cd240 O248 2.277 . S
O241 C238 1.160 . S
O241 Cd242 2.203 . S
Cd242 O241 2.203 . S
Cd242 O244 2.411 . S
Cd242 O245 2.333 . S
Cd242 O246 2.352 . S
Cd242 O250 2.277 . S
Cd242 O251 2.356 . S
C243 O248 1.209 . S
C243 O250 1.226 . S
O244 Cd240 2.273 . S
O244 Cd242 2.411 . S
O244 C247 1.320 . S
O245 Cd242 2.333 . S
O245 C247 1.214 . S
O246 Cd242 2.352 . S
O246 C249 1.258 . S
C247 O244 1.320 . S
C247 O245 1.214 . S
O248 Cd240 2.277 . S
O248 C243 1.209 . S
C249 O246 1.258 . S
C249 O251 1.282 . S
O250 Cd242 2.277 . S
O250 C243 1.226 . S
O251 Cd242 2.356 . S
O251 C249 1.282 . S
C252 O253 1.306 1_545 S
C252 O255 1.160 . S
O253 C252 1.306 1_565 S
O253 Cd254 2.228 1_556 S
Cd254 O253 2.228 1_554 S
Cd254 O258 2.273 . S
Cd254 O262 2.268 1_565 S
O255 C252 1.160 . S
O255 Cd256 2.203 1_556 S
Cd256 O255 2.203 1_554 S
Cd256 O258 2.411 1_545 S
Cd256 O259 2.333 . S
Cd256 O260 2.352 . S
Cd256 O264 2.277 . S
Cd256 O265 2.356 . S
C257 O262 1.219 . S
C257 O264 1.226 . S
O258 Cd254 2.273 . S
O258 Cd256 2.411 1_565 S
O258 C261 1.320 1_565 S
O259 Cd256 2.333 . S
O259 C261 1.214 . S
O260 Cd256 2.352 . S
O260 C263 1.258 . S
C261 O258 1.320 1_545 S
C261 O259 1.214 . S
O262 Cd254 2.268 1_545 S
O262 C257 1.219 . S
C263 O260 1.258 . S
C263 O265 1.282 . S
O264 Cd256 2.277 . S
O264 C257 1.226 . S
O265 Cd256 2.356 . S
O265 C263 1.282 . S
C266 O267 1.306 . S
C266 O269 1.160 . S
O267 C266 1.306 . S
O267 Cd268 2.228 . S
Cd268 O267 2.228 . S
Cd268 O272 2.273 . S
Cd268 O276 2.277 . S
O269 C266 1.160 . S
O269 Cd270 2.203 . S
Cd270 O269 2.203 . S
Cd270 O272 2.411 . S
Cd270 O273 2.333 . S
Cd270 O274 2.352 . S
Cd270 O278 2.277 . S
Cd270 O279 2.356 . S
C271 O276 1.209 . S
C271 O278 1.226 . S
O272 Cd268 2.273 . S
O272 Cd270 2.411 . S
O272 C275 1.320 . S
O273 Cd270 2.333 . S
O273 C275 1.214 . S
O274 Cd270 2.352 . S
O274 C277 1.258 . S
C275 O272 1.320 . S
C275 O273 1.214 . S
O276 Cd268 2.277 . S
O276 C271 1.209 . S
C277 O274 1.258 . S
C277 O279 1.282 . S
O278 Cd270 2.277 . S
O278 C271 1.226 . S
O279 Cd270 2.356 . S
O279 C277 1.282 . S
C280 O281 1.306 1_545 S
C280 O283 1.160 . S
O281 C280 1.306 1_565 S
O281 Cd282 2.228 . S
Cd282 O281 2.228 . S
Cd282 O286 2.273 1_554 S
Cd282 O290 2.266 1_565 S
O283 C280 1.160 . S
O283 Cd284 2.203 . S
Cd284 O283 2.203 . S
Cd284 O286 2.411 1_544 S
Cd284 O287 2.333 1_554 S
Cd284 O288 2.352 . S
Cd284 O292 2.277 . S
Cd284 O293 2.356 1_554 S
C285 O290 1.220 . S
C285 O292 1.226 . S
O286 Cd282 2.273 1_556 S
O286 Cd284 2.411 1_566 S
O286 C289 1.320 1_565 S
O287 Cd284 2.333 1_556 S
O287 C289 1.214 . S
O288 Cd284 2.352 . S
O288 C291 1.258 . S
C289 O286 1.320 1_545 S
C289 O287 1.214 . S
O290 Cd282 2.266 1_545 S
O290 C285 1.220 . S
C291 O288 1.258 . S
C291 O293 1.282 1_554 S
O292 Cd284 2.277 . S
O292 C285 1.226 . S
O293 Cd284 2.356 1_556 S
O293 C291 1.282 1_556 S
C294 O295 1.306 . S
C294 O297 1.160 . S
O295 C294 1.306 . S
O295 Cd296 2.228 . S
Cd296 O295 2.228 . S
Cd296 O300 2.273 . S
Cd296 O304 2.277 . S
O297 C294 1.160 . S
O297 Cd298 2.203 . S
Cd298 O297 2.203 . S
Cd298 O300 2.411 . S
Cd298 O301 2.333 . S
Cd298 O302 2.352 . S
Cd298 O306 2.277 . S
Cd298 O307 2.356 . S
C299 O304 1.209 . S
C299 O306 1.226 . S
O300 Cd296 2.273 . S
O300 Cd298 2.411 . S
O300 C303 1.320 . S
O301 Cd298 2.333 . S
O301 C303 1.214 . S
O302 Cd298 2.352 . S
O302 C305 1.258 . S
C303 O300 1.320 . S
C303 O301 1.214 . S
O304 Cd296 2.277 . S
O304 C299 1.209 . S
C305 O302 1.258 . S
C305 O307 1.282 . S
O306 Cd298 2.277 . S
O306 C299 1.226 . S
O307 Cd298 2.356 . S
O307 C305 1.282 . S
C308 O309 1.306 1_565 S
C308 O311 1.160 . S
O309 C308 1.306 1_545 S
O309 Cd310 2.228 . S
Cd310 O309 2.228 . S
Cd310 O314 2.273 . S
Cd310 O318 2.266 1_545 S
O311 C308 1.160 . S
O311 Cd312 2.203 . S
Cd312 O311 2.203 . S
Cd312 O314 2.411 1_565 S
Cd312 O315 2.333 . S
Cd312 O316 2.352 . S
Cd312 O320 2.277 . S
Cd312 O321 2.356 . S
C313 O318 1.220 . S
C313 O320 1.226 . S
O314 Cd310 2.273 . S
O314 Cd312 2.411 1_545 S
O314 C317 1.320 1_545 S
O315 Cd312 2.333 . S
O315 C317 1.214 . S
O316 Cd312 2.352 . S
O316 C319 1.258 . S
C317 O314 1.320 1_565 S
C317 O315 1.214 . S
O318 Cd310 2.266 1_565 S
O318 C313 1.220 . S
C319 O316 1.258 . S
C319 O321 1.282 . S
O320 Cd312 2.277 . S
O320 C313 1.226 . S
O321 Cd312 2.356 . S
O321 C319 1.282 . S
C322 O323 1.306 . S
C322 O325 1.160 . S
O323 C322 1.306 . S
O323 Cd324 2.228 . S
Cd324 O323 2.228 . S
Cd324 O328 2.273 . S
Cd324 O332 2.277 . S
O325 C322 1.160 . S
O325 Cd326 2.203 . S
Cd326 O325 2.203 . S
Cd326 O328 2.411 . S
Cd326 O329 2.333 . S
Cd326 O330 2.352 . S
Cd326 O334 2.277 . S
Cd326 O335 2.356 . S
C327 O332 1.209 . S
C327 O334 1.226 . S
O328 Cd324 2.273 . S
O328 Cd326 2.411 . S
O328 C331 1.320 . S
O329 Cd326 2.333 . S
O329 C331 1.214 . S
O330 Cd326 2.352 . S
O330 C333 1.258 . S
C331 O328 1.320 . S
C331 O329 1.214 . S
O332 Cd324 2.277 . S
O332 C327 1.209 . S
C333 O330 1.258 . S
C333 O335 1.282 . S
O334 Cd326 2.277 . S
O334 C327 1.226 . S
O335 Cd326 2.356 . S
O335 C333 1.282 . S
C336 O337 1.306 1_545 S
C336 O339 1.160 . S
O337 C336 1.306 1_565 S
O337 Cd338 2.228 . S
Cd338 O337 2.228 . S
Cd338 O342 2.273 . S
Cd338 O346 2.266 1_565 S
O339 C336 1.160 . S
O339 Cd340 2.203 . S
Cd340 O339 2.203 . S
Cd340 O342 2.411 1_545 S
Cd340 O343 2.333 . S
Cd340 O344 2.352 . S
Cd340 O348 2.277 . S
Cd340 O349 2.356 . S
C341 O346 1.220 . S
C341 O348 1.226 . S
O342 Cd338 2.273 . S
O342 Cd340 2.411 1_565 S
O342 C345 1.320 1_565 S
O343 Cd340 2.333 . S
O343 C345 1.214 . S
O344 Cd340 2.352 . S
O344 C347 1.258 . S
C345 O342 1.320 1_545 S
C345 O343 1.214 . S
O346 Cd338 2.266 1_545 S
O346 C341 1.220 . S
C347 O344 1.258 . S
C347 O349 1.282 . S
O348 Cd340 2.277 . S
O348 C341 1.226 . S
O349 Cd340 2.356 . S
O349 C347 1.282 . S
C350 O351 1.306 . S
C350 O353 1.160 . S
O351 C350 1.306 . S
O351 Cd352 2.228 . S
Cd352 O351 2.228 . S
Cd352 O356 2.273 . S
Cd352 O360 2.277 . S
O353 C350 1.160 . S
O353 Cd354 2.203 . S
Cd354 O353 2.203 . S
Cd354 O356 2.411 . S
Cd354 O357 2.333 . S
Cd354 O358 2.352 . S
Cd354 O362 2.277 . S
Cd354 O363 2.356 . S
C355 O360 1.209 . S
C355 O362 1.226 . S
O356 Cd352 2.273 . S
O356 Cd354 2.411 . S
O356 C359 1.320 . S
O357 Cd354 2.333 . S
O357 C359 1.214 . S
O358 Cd354 2.352 . S
O358 C361 1.258 . S
C359 O356 1.320 . S
C359 O357 1.214 . S
O360 Cd352 2.277 . S
O360 C355 1.209 . S
C361 O358 1.258 . S
C361 O363 1.282 . S
O362 Cd354 2.277 . S
O362 C355 1.226 . S
O363 Cd354 2.356 . S
O363 C361 1.282 . S
C364 O365 1.306 1_565 S
C364 O367 1.160 . S
O365 C364 1.306 1_545 S
O365 Cd366 2.228 . S
Cd366 O365 2.228 . S
Cd366 O370 2.273 1_554 S
Cd366 O374 2.266 1_545 S
O367 C364 1.160 . S
O367 Cd368 2.203 . S
Cd368 O367 2.203 . S
Cd368 O370 2.411 1_564 S
Cd368 O371 2.333 1_554 S
Cd368 O372 2.352 . S
Cd368 O376 2.277 . S
Cd368 O377 2.356 1_554 S
C369 O374 1.220 . S
C369 O376 1.226 . S
O370 Cd366 2.273 1_556 S
O370 Cd368 2.411 1_546 S
O370 C373 1.320 1_545 S
O371 Cd368 2.333 1_556 S
O371 C373 1.214 . S
O372 Cd368 2.352 . S
O372 C375 1.258 . S
C373 O370 1.320 1_565 S
C373 O371 1.214 . S
O374 Cd366 2.266 1_565 S
O374 C369 1.220 . S
C375 O372 1.258 . S
C375 O377 1.282 1_554 S
O376 Cd368 2.277 . S
O376 C369 1.226 . S
O377 Cd368 2.356 1_556 S
O377 C375 1.282 1_556 S
C378 O379 1.306 . S
C378 O381 1.160 . S
O379 C378 1.306 . S
O379 Cd380 2.228 . S
Cd380 O379 2.228 . S
Cd380 O384 2.273 . S
Cd380 O388 2.277 . S
O381 C378 1.160 . S
O381 Cd382 2.203 . S
Cd382 O381 2.203 . S
Cd382 O384 2.411 . S
Cd382 O385 2.333 . S
Cd382 O386 2.352 . S
Cd382 O390 2.277 . S
Cd382 O391 2.356 . S
C383 O388 1.209 . S
C383 O390 1.226 . S
O384 Cd380 2.273 . S
O384 Cd382 2.411 . S
O384 C387 1.320 . S
O385 Cd382 2.333 . S
O385 C387 1.214 . S
O386 Cd382 2.352 . S
O386 C389 1.258 . S
C387 O384 1.320 . S
C387 O385 1.214 . S
O388 Cd380 2.277 . S
O388 C383 1.209 . S
C389 O386 1.258 . S
C389 O391 1.282 . S
O390 Cd382 2.277 . S
O390 C383 1.226 . S
O391 Cd382 2.356 . S
O391 C389 1.282 . S
C392 O393 1.306 1_565 S
C392 O395 1.160 . S
O393 C392 1.306 1_545 S
O393 Cd394 2.228 1_556 S
Cd394 O393 2.228 1_554 S
Cd394 O398 2.273 . S
Cd394 O402 2.268 1_545 S
O395 C392 1.160 . S
O395 Cd396 2.203 1_556 S
Cd396 O395 2.203 1_554 S
Cd396 O398 2.411 1_565 S
Cd396 O399 2.333 . S
Cd396 O400 2.352 . S
Cd396 O404 2.277 . S
Cd396 O405 2.356 . S
C397 O402 1.218 . S
C397 O404 1.226 . S
O398 Cd394 2.273 . S
O398 Cd396 2.411 1_545 S
O398 C401 1.320 1_545 S
O399 Cd396 2.333 . S
O399 C401 1.214 . S
O400 Cd396 2.352 . S
O400 C403 1.258 . S
C401 O398 1.320 1_565 S
C401 O399 1.214 . S
O402 Cd394 2.268 1_565 S
O402 C397 1.218 . S
C403 O400 1.258 . S
C403 O405 1.282 . S
O404 Cd396 2.277 . S
O404 C397 1.226 . S
O405 Cd396 2.356 . S
O405 C403 1.282 . S
C406 O407 1.306 . S
C406 O409 1.160 . S
O407 C406 1.306 . S
O407 Cd408 2.228 . S
Cd408 O407 2.228 . S
Cd408 O412 2.273 . S
Cd408 O416 2.277 . S
O409 C406 1.160 . S
O409 Cd410 2.203 . S
Cd410 O409 2.203 . S
Cd410 O412 2.411 . S
Cd410 O413 2.333 . S
Cd410 O414 2.352 . S
Cd410 O418 2.277 . S
Cd410 O419 2.356 . S
C411 O416 1.209 . S
C411 O418 1.226 . S
O412 Cd408 2.273 . S
O412 Cd410 2.411 . S
O412 C415 1.320 . S
O413 Cd410 2.333 . S
O413 C415 1.214 . S
O414 Cd410 2.352 . S
O414 C417 1.258 . S
C415 O412 1.320 . S
C415 O413 1.214 . S
O416 Cd408 2.277 . S
O416 C411 1.209 . S
C417 O414 1.258 . S
C417 O419 1.282 . S
O418 Cd410 2.277 . S
O418 C411 1.226 . S
O419 Cd410 2.356 . S
O419 C417 1.282 . S
C420 O421 1.306 1_545 S
C420 O423 1.160 . S
O421 C420 1.306 1_565 S
O421 Cd422 2.228 . S
Cd422 O421 2.228 . S
Cd422 O426 2.273 . S
Cd422 O430 2.268 1_565 S
O423 C420 1.160 . S
O423 Cd424 2.203 . S
Cd424 O423 2.203 . S
Cd424 O426 2.411 1_545 S
Cd424 O427 2.333 . S
Cd424 O428 2.352 . S
Cd424 O432 2.277 . S
Cd424 O433 2.356 . S
C425 O430 1.219 . S
C425 O432 1.226 . S
O426 Cd422 2.273 . S
O426 Cd424 2.411 1_565 S
O426 C429 1.320 1_565 S
O427 Cd424 2.333 . S
O427 C429 1.214 . S
O428 Cd424 2.352 . S
O428 C431 1.258 . S
C429 O426 1.320 1_545 S
C429 O427 1.214 . S
O430 Cd422 2.268 1_545 S
O430 C425 1.219 . S
C431 O428 1.258 . S
C431 O433 1.282 . S
O432 Cd424 2.277 . S
O432 C425 1.226 . S
O433 Cd424 2.356 . S
O433 C431 1.282 . S
C434 O435 1.306 . S
C434 O437 1.160 . S
O435 C434 1.306 . S
O435 Cd436 2.228 . S
Cd436 O435 2.228 . S
Cd436 O440 2.273 . S
Cd436 O444 2.277 . S
O437 C434 1.160 . S
O437 Cd438 2.203 . S
Cd438 O437 2.203 . S
Cd438 O440 2.411 . S
Cd438 O441 2.333 . S
Cd438 O442 2.352 . S
Cd438 O446 2.277 . S
Cd438 O447 2.356 . S
C439 O444 1.209 . S
C439 O446 1.226 . S
O440 Cd436 2.273 . S
O440 Cd438 2.411 . S
O440 C443 1.320 . S
O441 Cd438 2.333 . S
O441 C443 1.214 . S
O442 Cd438 2.352 . S
O442 C445 1.258 . S
C443 O440 1.320 . S
C443 O441 1.214 . S
O444 Cd436 2.277 . S
O444 C439 1.209 . S
C445 O442 1.258 . S
C445 O447 1.282 . S
O446 Cd438 2.277 . S
O446 C439 1.226 . S
O447 Cd438 2.356 . S
O447 C445 1.282 . S
C448 C449 1.387 . S
C448 H452 0.950 1_554 S
C448 C457 1.390 1_655 S
C449 C448 1.387 . S
C449 C451 1.387 . S
H450 C457 0.948 1_556 S
C451 C449 1.387 . S
C451 C453 1.390 1_655 S
C451 H455 0.950 . S
H452 C448 0.950 1_556 S
C453 C451 1.390 1_455 S
C453 C454 1.387 . S
C453 H456 0.950 . S
C454 C453 1.387 . S
C454 C457 1.387 . S
H455 C451 0.950 . S
H456 C453 0.950 . S
C457 C448 1.390 1_455 S
C457 H450 0.948 1_554 S
C457 C454 1.387 . S
C458 C459 1.387 . S
C458 H462 0.950 . S
C458 C467 1.390 . S
C459 C458 1.387 . S
C459 C461 1.387 . S
H460 C467 0.950 . S
C461 C459 1.387 . S
C461 C463 1.390 . S
C461 H465 0.950 . S
H462 C458 0.950 . S
C463 C461 1.390 . S
C463 C464 1.387 . S
C463 H466 0.950 . S
C464 C463 1.387 . S
C464 C467 1.387 . S
H465 C461 0.950 . S
H466 C463 0.950 . S
C467 C458 1.390 . S
C467 H460 0.950 . S
C467 C464 1.387 . S
C468 C469 1.387 . S
C468 H472 0.950 . S
C468 C477 1.390 . S
C469 C468 1.387 . S
C469 C471 1.387 . S
H470 C477 0.950 . S
C471 C469 1.387 . S
C471 C473 1.390 . S
C471 H475 0.950 . S
H472 C468 0.950 . S
C473 C471 1.390 . S
C473 C474 1.387 . S
C473 H476 0.950 . S
C474 C473 1.387 . S
C474 C477 1.387 . S
H475 C471 0.950 . S
H476 C473 0.950 . S
C477 C468 1.390 . S
C477 H470 0.950 . S
C477 C474 1.387 . S
C478 C479 1.387 . S
C478 H482 0.950 . S
C478 C487 1.390 . S
C479 C478 1.387 . S
C479 C481 1.387 . S
H480 C487 0.950 . S
C481 C479 1.387 . S
C481 C483 1.390 . S
C481 H485 0.950 . S
H482 C478 0.950 . S
C483 C481 1.390 . S
C483 C484 1.387 . S
C483 H486 0.950 . S
C484 C483 1.387 . S
C484 C487 1.387 . S
H485 C481 0.950 . S
H486 C483 0.950 . S
C487 C478 1.390 . S
C487 H480 0.950 . S
C487 C484 1.387 . S
C488 C489 1.387 . S
C488 H492 0.950 . S
C488 C497 1.390 1_455 S
C489 C488 1.387 . S
C489 C491 1.387 . S
H490 C497 0.950 . S
C491 C489 1.387 . S
C491 C493 1.390 1_455 S
C491 H495 0.950 . S
H492 C488 0.950 . S
C493 C491 1.390 1_655 S
C493 C494 1.387 . S
C493 H496 0.950 . S
C494 C493 1.387 . S
C494 C497 1.387 . S
H495 C491 0.950 . S
H496 C493 0.950 . S
C497 C488 1.390 1_655 S
C497 H490 0.950 . S
C497 C494 1.387 . S
C498 C499 1.387 . S
C498 H502 0.950 . S
C498 C507 1.390 . S
C499 C498 1.387 . S
C499 C501 1.387 . S
H500 C507 0.950 . S
C501 C499 1.387 . S
C501 C503 1.390 . S
C501 H505 0.950 . S
H502 C498 0.950 . S
C503 C501 1.390 . S
C503 C504 1.387 . S
C503 H506 0.950 . S
C504 C503 1.387 . S
C504 C507 1.387 . S
H505 C501 0.950 . S
H506 C503 0.950 . S
C507 C498 1.390 . S
C507 H500 0.950 . S
C507 C504 1.387 . S
C508 C509 1.387 1_556 S
C508 H512 0.950 . S
C508 C517 1.390 . S
C509 C508 1.387 1_554 S
C509 C511 1.387 . S
H510 C517 0.950 . S
C511 C509 1.387 . S
C511 C513 1.390 . S
C511 H515 0.950 . S
H512 C508 0.950 . S
C513 C511 1.390 . S
C513 C514 1.387 . S
C513 H516 0.950 . S
C514 C513 1.387 . S
C514 C517 1.387 1_554 S
H515 C511 0.950 . S
H516 C513 0.950 . S
C517 C508 1.390 . S
C517 H510 0.950 . S
C517 C514 1.387 1_556 S
C518 C519 1.387 . S
C518 H522 0.950 . S
C518 C527 1.390 . S
C519 C518 1.387 . S
C519 C521 1.387 . S
H520 C527 0.950 . S
C521 C519 1.387 . S
C521 C523 1.390 . S
C521 H525 0.950 . S
H522 C518 0.950 . S
C523 C521 1.390 . S
C523 C524 1.387 . S
C523 H526 0.950 . S
C524 C523 1.387 . S
C524 C527 1.387 . S
H525 C521 0.950 . S
H526 C523 0.950 . S
C527 C518 1.390 . S
C527 H520 0.950 . S
C527 C524 1.387 . S
C528 C529 1.387 . S
C528 H532 0.950 . S
C528 C537 1.390 . S
C529 C528 1.387 . S
C529 C531 1.387 . S
H530 C537 0.950 . S
C531 C529 1.387 . S
C531 C533 1.390 . S
C531 H535 0.950 . S
H532 C528 0.950 . S
C533 C531 1.390 . S
C533 C534 1.387 . S
C533 H536 0.950 . S
C534 C533 1.387 . S
C534 C537 1.387 . S
H535 C531 0.950 . S
H536 C533 0.950 . S
C537 C528 1.390 . S
C537 H530 0.950 . S
C537 C534 1.387 . S
C538 C539 1.387 . S
C538 H542 0.950 . S
C538 C547 1.390 . S
C539 C538 1.387 . S
C539 C541 1.387 . S
H540 C547 0.950 . S
C541 C539 1.387 . S
C541 C543 1.390 . S
C541 H545 0.950 . S
H542 C538 0.950 . S
C543 C541 1.390 . S
C543 C544 1.387 . S
C543 H546 0.950 . S
C544 C543 1.387 . S
C544 C547 1.387 . S
H545 C541 0.950 . S
H546 C543 0.950 . S
C547 C538 1.390 . S
C547 H540 0.950 . S
C547 C544 1.387 . S
C548 C549 1.387 . S
C548 H552 0.950 . S
C548 C557 1.390 . S
C549 C548 1.387 . S
C549 C551 1.387 . S
H550 C557 0.950 . S
C551 C549 1.387 . S
C551 C553 1.390 . S
C551 H555 0.950 . S
H552 C548 0.950 . S
C553 C551 1.390 . S
C553 C554 1.387 . S
C553 H556 0.950 . S
C554 C553 1.387 . S
C554 C557 1.387 . S
H555 C551 0.950 . S
H556 C553 0.950 . S
C557 C548 1.390 . S
C557 H550 0.950 . S
C557 C554 1.387 . S
C558 C559 1.387 . S
C558 H562 0.950 . S
C558 C567 1.390 . S
C559 C558 1.387 . S
C559 C561 1.387 . S
H560 C567 0.950 . S
C561 C559 1.387 . S
C561 C563 1.390 . S
C561 H565 0.950 . S
H562 C558 0.950 . S
C563 C561 1.390 . S
C563 C564 1.387 . S
C563 H566 0.950 . S
C564 C563 1.387 . S
C564 C567 1.387 . S
H565 C561 0.950 . S
H566 C563 0.950 . S
C567 C558 1.390 . S
C567 H560 0.950 . S
C567 C564 1.387 . S
C568 C569 1.387 . S
C568 H572 0.950 . S
C568 C577 1.390 1_545 S
C569 C568 1.387 . S
C569 C571 1.387 . S
H570 C577 0.950 . S
C571 C569 1.387 . S
C571 C573 1.390 1_545 S
C571 H575 0.950 . S
H572 C568 0.950 . S
C573 C571 1.390 1_565 S
C573 C574 1.387 . S
C573 H576 0.950 . S
C574 C573 1.387 . S
C574 C577 1.387 . S
H575 C571 0.950 . S
H576 C573 0.950 . S
C577 C568 1.390 1_565 S
C577 H570 0.950 . S
C577 C574 1.387 . S
C578 C579 1.387 1_556 S
C578 H582 0.950 . S
C578 C587 1.390 1_645 S
C579 C578 1.387 1_554 S
C579 C581 1.387 . S
H580 C587 0.950 . S
C581 C579 1.387 . S
C581 C583 1.390 1_645 S
C581 H585 0.950 . S
H582 C578 0.950 . S
C583 C581 1.390 1_465 S
C583 C584 1.387 . S
C583 H586 0.950 . S
C584 C583 1.387 . S
C584 C587 1.387 1_554 S
H585 C581 0.950 . S
H586 C583 0.950 . S
C587 C578 1.390 1_465 S
C587 H580 0.950 . S
C587 C584 1.387 1_556 S
C588 C589 1.387 . S
C588 H592 0.950 . S
C588 C597 1.390 1_545 S
C589 C588 1.387 . S
C589 C591 1.387 1_554 S
H590 C597 0.950 . S
C591 C589 1.387 1_556 S
C591 C593 1.390 1_545 S
C591 H595 0.950 . S
H592 C588 0.950 . S
C593 C591 1.390 1_565 S
C593 C594 1.387 1_556 S
C593 H596 0.950 . S
C594 C593 1.387 1_554 S
C594 C597 1.387 . S
H595 C591 0.950 . S
H596 C593 0.950 . S
C597 C588 1.390 1_565 S
C597 H590 0.950 . S
C597 C594 1.387 . S
C598 C599 1.387 . S
C598 H602 0.950 . S
C598 C607 1.390 1_445 S
C599 C598 1.387 . S
C599 C601 1.387 . S
H600 C607 0.950 . S
C601 C599 1.387 . S
C601 C603 1.390 1_445 S
C601 H605 0.950 . S
H602 C598 0.950 . S
C603 C601 1.390 1_665 S
C603 C604 1.387 . S
C603 H606 0.950 . S
C604 C603 1.387 . S
C604 C607 1.387 . S
H605 C601 0.950 . S
H606 C603 0.950 . S
C607 C598 1.390 1_665 S
C607 H600 0.950 . S
C607 C604 1.387 . S
C608 C609 1.387 . S
C608 H612 0.950 . S
C608 C617 1.390 . S
C609 C608 1.387 . S
C609 C611 1.387 . S
H610 C617 0.950 . S
C611 C609 1.387 . S
C611 C613 1.390 . S
C611 H615 0.950 . S
H612 C608 0.950 . S
C613 C611 1.390 . S
C613 C614 1.387 . S
C613 H616 0.950 . S
C614 C613 1.387 . S
C614 C617 1.387 . S
H615 C611 0.950 . S
H616 C613 0.950 . S
C617 C608 1.390 . S
C617 H610 0.950 . S
C617 C614 1.387 . S
C618 C619 1.387 1_554 S
C618 H622 0.950 1_554 S
C618 C627 1.390 . S
C619 C618 1.387 1_556 S
C619 C621 1.387 1_556 S
H620 C627 0.950 . S
C621 C619 1.387 1_554 S
C621 C623 1.390 . S
C621 H625 0.950 1_554 S
H622 C618 0.950 1_556 S
C623 C621 1.390 . S
C623 C624 1.387 . S
C623 H626 0.950 . S
C624 C623 1.387 . S
C624 C627 1.387 . S
H625 C621 0.950 1_556 S
H626 C623 0.950 . S
C627 C618 1.390 . S
C627 H620 0.950 . S
C627 C624 1.387 . S
C628 C629 1.387 . S
C628 H632 0.950 . S
C628 C637 1.390 . S
C629 C628 1.387 . S
C629 C631 1.387 . S
H630 C637 0.950 . S
C631 C629 1.387 . S
C631 C633 1.390 . S
C631 H635 0.950 . S
H632 C628 0.950 . S
C633 C631 1.390 . S
C633 C634 1.387 . S
C633 H636 0.950 . S
C634 C633 1.387 . S
C634 C637 1.387 . S
H635 C631 0.950 . S
H636 C633 0.950 . S
C637 C628 1.390 . S
C637 H630 0.950 . S
C637 C634 1.387 . S
C638 C639 1.387 . S
C638 H642 0.950 . S
C638 C647 1.390 . S
C639 C638 1.387 . S
C639 C641 1.387 . S
H640 C647 0.950 . S
C641 C639 1.387 . S
C641 C643 1.390 . S
C641 H645 0.950 . S
H642 C638 0.950 . S
C643 C641 1.390 . S
C643 C644 1.387 . S
C643 H646 0.950 . S
C644 C643 1.387 . S
C644 C647 1.387 . S
H645 C641 0.950 . S
H646 C643 0.950 . S
C647 C638 1.390 . S
C647 H640 0.950 . S
C647 C644 1.387 . S
C648 C649 1.387 . S
C648 H652 0.950 . S
C648 C657 1.390 . S
C649 C648 1.387 . S
C649 C651 1.387 . S
H650 C657 0.950 . S
C651 C649 1.387 . S
C651 C653 1.390 . S
C651 H655 0.950 . S
H652 C648 0.950 . S
C653 C651 1.390 . S
C653 C654 1.387 . S
C653 H656 0.950 . S
C654 C653 1.387 . S
C654 C657 1.387 . S
H655 C651 0.950 . S
H656 C653 0.950 . S
C657 C648 1.390 . S
C657 H650 0.950 . S
C657 C654 1.387 . S
C658 C659 1.387 1_554 S
C658 H662 0.950 1_554 S
C658 C667 1.390 . S
C659 C658 1.387 1_556 S
C659 C661 1.387 1_556 S
H660 C667 0.950 . S
C661 C659 1.387 1_554 S
C661 C663 1.390 . S
C661 H665 0.950 1_554 S
H662 C658 0.950 1_556 S
C663 C661 1.390 . S
C663 C664 1.387 . S
C663 H666 0.950 . S
C664 C663 1.387 . S
C664 C667 1.387 . S
H665 C661 0.950 1_556 S
H666 C663 0.950 . S
C667 C658 1.390 . S
C667 H660 0.950 . S
C667 C664 1.387 . S
C668 C669 1.387 . S
C668 H672 0.950 . S
C668 C677 1.390 . S
C669 C668 1.387 . S
C669 C671 1.387 . S
H670 C677 0.950 . S
C671 C669 1.387 . S
C671 C673 1.390 . S
C671 H675 0.950 . S
H672 C668 0.950 . S
C673 C671 1.390 . S
C673 C674 1.387 . S
C673 H676 0.950 . S
C674 C673 1.387 . S
C674 C677 1.387 . S
H675 C671 0.950 . S
H676 C673 0.950 . S
C677 C668 1.390 . S
C677 H670 0.950 . S
C677 C674 1.387 . S
C678 C679 1.387 . S
C678 H682 0.950 . S
C678 C687 1.390 . S
C679 C678 1.387 . S
C679 C681 1.387 . S
H680 C687 0.950 . S
C681 C679 1.387 . S
C681 C683 1.390 . S
C681 H685 0.950 . S
H682 C678 0.950 . S
C683 C681 1.390 . S
C683 C684 1.387 . S
C683 H686 0.950 . S
C684 C683 1.387 . S
C684 C687 1.387 . S
H685 C681 0.950 . S
H686 C683 0.950 . S
C687 C678 1.390 . S
C687 H680 0.950 . S
C687 C684 1.387 . S
C688 C689 1.387 . S
C688 H692 0.950 . S
C688 C697 1.390 1_545 S
C689 C688 1.387 . S
C689 C691 1.387 . S
H690 C697 0.950 . S
C691 C689 1.387 . S
C691 C693 1.390 1_545 S
C691 H695 0.950 . S
H692 C688 0.950 . S
C693 C691 1.390 1_565 S
C693 C694 1.387 . S
C693 H696 0.950 . S
C694 C693 1.387 . S
C694 C697 1.387 . S
H695 C691 0.950 . S
H696 C693 0.950 . S
C697 C688 1.390 1_565 S
C697 H690 0.950 . S
C697 C694 1.387 . S
C698 C699 1.387 . S
C698 H702 0.950 . S
C698 C707 1.390 . S
C699 C698 1.387 . S
C699 C701 1.387 . S
H700 C707 0.950 . S
C701 C699 1.387 . S
C701 C703 1.390 . S
C701 H705 0.950 . S
H702 C698 0.950 . S
C703 C701 1.390 . S
C703 C704 1.387 . S
C703 H706 0.950 . S
C704 C703 1.387 . S
C704 C707 1.387 . S
H705 C701 0.950 . S
H706 C703 0.950 . S
C707 C698 1.390 . S
C707 H700 0.950 . S
C707 C704 1.387 . S
C708 C709 1.387 . S
C708 H712 0.950 . S
C708 C717 1.390 1_545 S
C709 C708 1.387 . S
C709 C711 1.387 . S
H710 C717 0.950 . S
C711 C709 1.387 . S
C711 C713 1.390 1_545 S
C711 H715 0.950 . S
H712 C708 0.950 . S
C713 C711 1.390 1_565 S
C713 C714 1.387 . S
C713 H716 0.950 . S
C714 C713 1.387 . S
C714 C717 1.387 . S
H715 C711 0.950 . S
H716 C713 0.950 . S
C717 C708 1.390 1_565 S
C717 H710 0.950 . S
C717 C714 1.387 . S
C718 C719 1.387 1_554 S
C718 H722 0.950 1_554 S
C718 C727 1.390 . S
C719 C718 1.387 1_556 S
C719 C721 1.387 1_556 S
H720 C727 0.950 . S
C721 C719 1.387 1_554 S
C721 C723 1.390 . S
C721 H725 0.950 1_554 S
H722 C718 0.950 1_556 S
C723 C721 1.390 . S
C723 C724 1.387 . S
C723 H726 0.950 . S
C724 C723 1.387 . S
C724 C727 1.387 . S
H725 C721 0.950 1_556 S
H726 C723 0.950 . S
C727 C718 1.390 . S
C727 H720 0.950 . S
C727 C724 1.387 . S
C728 C729 1.387 . S
C728 H732 0.950 . S
C728 C737 1.390 1_565 S
C729 C728 1.387 . S
C729 C731 1.387 . S
H730 C737 0.950 . S
C731 C729 1.387 . S
C731 C733 1.390 1_565 S
C731 H735 0.950 . S
H732 C728 0.950 . S
C733 C731 1.390 1_545 S
C733 C734 1.387 . S
C733 H736 0.950 . S
C734 C733 1.387 . S
C734 C737 1.387 . S
H735 C731 0.950 . S
H736 C733 0.950 . S
C737 C728 1.390 1_545 S
C737 H730 0.950 . S
C737 C734 1.387 . S
C738 C739 1.387 . S
C738 H742 0.950 . S
C738 C747 1.390 . S
C739 C738 1.387 . S
C739 C741 1.387 . S
H740 C747 0.950 . S
C741 C739 1.387 . S
C741 C743 1.390 . S
C741 H745 0.950 . S
H742 C738 0.950 . S
C743 C741 1.390 . S
C743 C744 1.387 . S
C743 H746 0.950 . S
C744 C743 1.387 . S
C744 C747 1.387 . S
H745 C741 0.950 . S
H746 C743 0.950 . S
C747 C738 1.390 . S
C747 H740 0.950 . S
C747 C744 1.387 . S
C748 C749 1.387 1_565 S
C748 H752 0.950 . S
C748 C757 1.391 . S
C749 C748 1.387 1_545 S
C749 C751 1.387 . S
H750 C757 0.950 . S
C751 C749 1.387 . S
C751 C753 1.391 . S
C751 H755 0.950 . S
H752 C748 0.950 . S
C753 C751 1.391 . S
C753 C754 1.387 1_545 S
C753 H756 0.950 . S
C754 C753 1.387 1_565 S
C754 C757 1.387 . S
H755 C751 0.950 . S
H756 C753 0.950 . S
C757 C748 1.391 . S
C757 H750 0.950 . S
C757 C754 1.387 . S
C758 C759 1.387 . S
C758 H762 0.950 . S
C758 C767 1.390 . S
C759 C758 1.387 . S
C759 C761 1.387 . S
H760 C767 0.950 1_556 S
C761 C759 1.387 . S
C761 C763 1.390 . S
C761 H765 0.950 . S
H762 C758 0.950 . S
C763 C761 1.390 . S
C763 C764 1.387 1_554 S
C763 H766 0.950 1_554 S
C764 C763 1.387 1_556 S
C764 C767 1.387 1_556 S
H765 C761 0.950 . S
H766 C763 0.950 1_556 S
C767 C758 1.390 . S
C767 H760 0.950 1_554 S
C767 C764 1.387 1_554 S
C768 C769 1.387 . S
C768 H772 0.950 . S
C768 C777 1.390 . S
C769 C768 1.387 . S
C769 C771 1.387 . S
H770 C777 0.950 . S
C771 C769 1.387 . S
C771 C773 1.390 . S
C771 H775 0.950 . S
H772 C768 0.950 . S
C773 C771 1.390 . S
C773 C774 1.387 . S
C773 H776 0.950 . S
C774 C773 1.387 . S
C774 C777 1.387 . S
H775 C771 0.950 . S
H776 C773 0.950 . S
C777 C768 1.390 . S
C777 H770 0.950 . S
C777 C774 1.387 . S
C778 C779 1.387 . S
C778 H782 0.950 . S
C778 C787 1.390 . S
C779 C778 1.387 . S
C779 C781 1.387 . S
H780 C787 0.950 . S
C781 C779 1.387 . S
C781 C783 1.390 . S
C781 H785 0.950 . S
H782 C778 0.950 . S
C783 C781 1.390 . S
C783 C784 1.387 . S
C783 H786 0.950 . S
C784 C783 1.387 . S
C784 C787 1.387 . S
H785 C781 0.950 . S
H786 C783 0.950 . S
C787 C778 1.390 . S
C787 H780 0.950 . S
C787 C784 1.387 . S
C788 C789 1.387 . S
C788 H792 0.950 . S
C788 C797 1.390 . S
C789 C788 1.387 . S
C789 C791 1.387 . S
H790 C797 0.950 . S
C791 C789 1.387 . S
C791 C793 1.390 . S
C791 H795 0.950 . S
H792 C788 0.950 . S
C793 C791 1.390 . S
C793 C794 1.387 . S
C793 H796 0.950 . S
C794 C793 1.387 . S
C794 C797 1.387 . S
H795 C791 0.950 . S
H796 C793 0.950 . S
C797 C788 1.390 . S
C797 H790 0.950 . S
C797 C794 1.387 . S
C798 C799 1.387 . S
C798 H802 0.950 . S
C798 C807 1.390 . S
C799 C798 1.387 . S
C799 C801 1.387 . S
H800 C807 0.950 1_556 S
C801 C799 1.387 . S
C801 C803 1.390 . S
C801 H805 0.950 . S
H802 C798 0.950 . S
C803 C801 1.390 . S
C803 C804 1.387 1_554 S
C803 H806 0.950 1_554 S
C804 C803 1.387 1_556 S
C804 C807 1.387 1_556 S
H805 C801 0.950 . S
H806 C803 0.950 1_556 S
C807 C798 1.390 . S
C807 H800 0.950 1_554 S
C807 C804 1.387 1_554 S
C808 C809 1.387 . S
C808 H812 0.950 . S
C808 C817 1.390 . S
C809 C808 1.387 . S
C809 C811 1.387 . S
H810 C817 0.950 . S
C811 C809 1.387 . S
C811 C813 1.390 . S
C811 H815 0.950 . S
H812 C808 0.950 . S
C813 C811 1.390 . S
C813 C814 1.387 . S
C813 H816 0.950 . S
C814 C813 1.387 . S
C814 C817 1.387 . S
H815 C811 0.950 . S
H816 C813 0.950 . S
C817 C808 1.390 . S
C817 H810 0.950 . S
C817 C814 1.387 . S
C818 C819 1.387 . S
C818 H822 0.950 . S
C818 C827 1.390 . S
C819 C818 1.387 . S
C819 C821 1.387 . S
H820 C827 0.950 . S
C821 C819 1.387 . S
C821 C823 1.390 . S
C821 H825 0.950 . S
H822 C818 0.950 . S
C823 C821 1.390 . S
C823 C824 1.387 . S
C823 H826 0.950 . S
C824 C823 1.387 . S
C824 C827 1.387 . S
H825 C821 0.950 . S
H826 C823 0.950 . S
C827 C818 1.390 . S
C827 H820 0.950 . S
C827 C824 1.387 . S
C828 C829 1.387 . S
C828 H832 0.950 . S
C828 C837 1.390 . S
C829 C828 1.387 . S
C829 C831 1.387 . S
H830 C837 0.950 . S
C831 C829 1.387 . S
C831 C833 1.390 . S
C831 H835 0.950 . S
H832 C828 0.950 . S
C833 C831 1.390 . S
C833 C834 1.387 . S
C833 H836 0.950 . S
C834 C833 1.387 . S
C834 C837 1.387 . S
H835 C831 0.950 . S
H836 C833 0.950 . S
C837 C828 1.390 . S
C837 H830 0.950 . S
C837 C834 1.387 . S
C838 C839 1.387 1_554 S
C838 H842 0.950 1_554 S
C838 C847 1.390 . S
C839 C838 1.387 1_556 S
C839 C841 1.387 1_556 S
H840 C847 0.950 . S
C841 C839 1.387 1_554 S
C841 C843 1.390 . S
C841 H845 0.950 1_554 S
H842 C838 0.950 1_556 S
C843 C841 1.390 . S
C843 C844 1.387 . S
C843 H846 0.950 . S
C844 C843 1.387 . S
C844 C847 1.387 . S
H845 C841 0.950 1_556 S
H846 C843 0.950 . S
C847 C838 1.390 . S
C847 H840 0.950 . S
C847 C844 1.387 . S
C848 C849 1.387 . S
C848 H852 0.950 . S
C848 C857 1.390 1_545 S
C849 C848 1.387 . S
C849 C851 1.387 . S
H850 C857 0.950 . S
C851 C849 1.387 . S
C851 C853 1.390 1_545 S
C851 H855 0.950 . S
H852 C848 0.950 . S
C853 C851 1.390 1_565 S
C853 C854 1.387 . S
C853 H856 0.950 . S
C854 C853 1.387 . S
C854 C857 1.387 . S
H855 C851 0.950 . S
H856 C853 0.950 . S
C857 C848 1.390 1_565 S
C857 H850 0.950 . S
C857 C854 1.387 . S
C858 C859 1.387 . S
C858 H862 0.950 . S
C858 C867 1.390 . S
C859 C858 1.387 . S
C859 C861 1.387 . S
H860 C867 0.950 1_556 S
C861 C859 1.387 . S
C861 C863 1.390 . S
C861 H865 0.950 . S
H862 C858 0.950 . S
C863 C861 1.390 . S
C863 C864 1.387 1_554 S
C863 H866 0.950 1_554 S
C864 C863 1.387 1_556 S
C864 C867 1.387 1_556 S
H865 C861 0.950 . S
H866 C863 0.950 1_556 S
C867 C858 1.390 . S
C867 H860 0.950 1_554 S
C867 C864 1.387 1_554 S
C868 C869 1.387 . S
C868 H872 0.950 . S
C868 C877 1.390 1_545 S
C869 C868 1.387 . S
C869 C871 1.387 . S
H870 C877 0.950 . S
C871 C869 1.387 . S
C871 C873 1.390 1_545 S
C871 H875 0.950 . S
H872 C868 0.950 . S
C873 C871 1.390 1_565 S
C873 C874 1.387 . S
C873 H876 0.950 . S
C874 C873 1.387 . S
C874 C877 1.387 . S
H875 C871 0.950 . S
H876 C873 0.950 . S
C877 C868 1.390 1_565 S
C877 H870 0.950 . S
C877 C874 1.387 . S
C878 C879 1.387 . S
C878 H882 0.950 . S
C878 C887 1.390 . S
C879 C878 1.387 . S
C879 C881 1.387 . S
H880 C887 0.950 . S
C881 C879 1.387 . S
C881 C883 1.390 . S
C881 H885 0.950 . S
H882 C878 0.950 . S
C883 C881 1.390 . S
C883 C884 1.387 . S
C883 H886 0.950 . S
C884 C883 1.387 . S
C884 C887 1.387 . S
H885 C881 0.950 . S
H886 C883 0.950 . S
C887 C878 1.390 . S
C887 H880 0.950 . S
C887 C884 1.387 . S
C888 C889 1.387 . S
C888 H892 0.950 . S
C888 C897 1.390 1_545 S
C889 C888 1.387 . S
C889 C891 1.387 . S
H890 C897 0.950 . S
C891 C889 1.387 . S
C891 C893 1.390 1_545 S
C891 H895 0.950 . S
H892 C888 0.950 . S
C893 C891 1.390 1_565 S
C893 C894 1.387 . S
C893 H896 0.950 . S
C894 C893 1.387 . S
C894 C897 1.387 . S
H895 C891 0.950 . S
H896 C893 0.950 . S
C897 C888 1.390 1_565 S
C897 H890 0.950 . S
C897 C894 1.387 . S
C898 C899 1.387 . S
C898 H902 0.950 . S
C898 C907 1.390 . S
C899 C898 1.387 . S
C899 C901 1.387 . S
H900 C907 0.950 1_556 S
C901 C899 1.387 . S
C901 C903 1.390 . S
C901 H905 0.950 . S
H902 C898 0.950 . S
C903 C901 1.390 . S
C903 C904 1.387 1_554 S
C903 H906 0.950 1_554 S
C904 C903 1.387 1_556 S
C904 C907 1.387 1_556 S
H905 C901 0.950 . S
H906 C903 0.950 1_556 S
C907 C898 1.390 . S
C907 H900 0.950 1_554 S
C907 C904 1.387 1_554 S
C908 C909 1.387 . S
C908 H912 0.950 . S
C908 C917 1.390 1_545 S
C909 C908 1.387 . S
C909 C911 1.387 . S
H910 C917 0.950 . S
C911 C909 1.387 . S
C911 C913 1.390 1_545 S
C911 H915 0.950 . S
H912 C908 0.950 . S
C913 C911 1.390 1_565 S
C913 C914 1.387 . S
C913 H916 0.950 . S
C914 C913 1.387 . S
C914 C917 1.387 . S
H915 C911 0.950 . S
H916 C913 0.950 . S
C917 C908 1.390 1_565 S
C917 H910 0.950 . S
C917 C914 1.387 . S
C918 C919 1.387 . S
C918 H922 0.950 . S
C918 C927 1.390 . S
C919 C918 1.387 . S
C919 C921 1.387 . S
H920 C927 0.950 . S
C921 C919 1.387 . S
C921 C923 1.390 . S
C921 H925 0.950 . S
H922 C918 0.950 . S
C923 C921 1.390 . S
C923 C924 1.387 . S
C923 H926 0.950 . S
C924 C923 1.387 . S
C924 C927 1.387 . S
H925 C921 0.950 . S
H926 C923 0.950 . S
C927 C918 1.390 . S
C927 H920 0.950 . S
C927 C924 1.387 . S
C928 C929 1.387 . S
C928 H932 0.950 . S
C928 C937 1.390 . S
C929 C928 1.387 . S
C929 C931 1.387 . S
H930 C937 0.950 . S
C931 C929 1.387 . S
C931 C933 1.390 . S
C931 H935 0.950 . S
H932 C928 0.950 . S
C933 C931 1.390 . S
C933 C934 1.387 . S
C933 H936 0.950 . S
C934 C933 1.387 . S
C934 C937 1.387 . S
H935 C931 0.950 . S
H936 C933 0.950 . S
C937 C928 1.390 . S
C937 H930 0.950 . S
C937 C934 1.387 . S
C938 C939 1.387 . S
C938 H942 0.950 . S
C938 C947 1.390 . S
C939 C938 1.387 . S
C939 C941 1.387 . S
H940 C947 0.950 . S
C941 C939 1.387 . S
C941 C943 1.390 . S
C941 H945 0.950 . S
H942 C938 0.950 . S
C943 C941 1.390 . S
C943 C944 1.387 . S
C943 H946 0.950 . S
C944 C943 1.387 . S
C944 C947 1.387 . S
H945 C941 0.950 . S
H946 C943 0.950 . S
C947 C938 1.390 . S
C947 H940 0.950 . S
C947 C944 1.387 . S
C948 C949 1.387 . S
C948 H952 0.950 . S
C948 C957 1.390 . S
C949 C948 1.387 . S
C949 C951 1.387 . S
H950 C957 0.950 . S
C951 C949 1.387 . S
C951 C953 1.390 . S
C951 H955 0.950 . S
H952 C948 0.950 . S
C953 C951 1.390 . S
C953 C954 1.387 . S
C953 H956 0.950 . S
C954 C953 1.387 . S
C954 C957 1.387 . S
H955 C951 0.950 . S
H956 C953 0.950 . S
C957 C948 1.390 . S
C957 H950 0.950 . S
C957 C954 1.387 . S
C958 C959 1.387 . S
C958 H962 0.950 . S
C958 C967 1.390 . S
C959 C958 1.387 . S
C959 C961 1.387 . S
H960 C967 0.950 . S
C961 C959 1.387 . S
C961 C963 1.390 . S
C961 H965 0.950 . S
H962 C958 0.950 . S
C963 C961 1.390 . S
C963 C964 1.387 . S
C963 H966 0.950 . S
C964 C963 1.387 . S
C964 C967 1.387 . S
H965 C961 0.950 . S
H966 C963 0.950 . S
C967 C958 1.390 . S
C967 H960 0.950 . S
C967 C964 1.387 . S
C968 C969 1.387 . S
C968 H972 0.950 . S
C968 C977 1.390 . S
C969 C968 1.387 . S
C969 C971 1.387 . S
H970 C977 0.950 . S
C971 C969 1.387 . S
C971 C973 1.390 . S
C971 H975 0.950 . S
H972 C968 0.950 . S
C973 C971 1.390 . S
C973 C974 1.387 . S
C973 H976 0.950 . S
C974 C973 1.387 . S
C974 C977 1.387 . S
H975 C971 0.950 . S
H976 C973 0.950 . S
C977 C968 1.390 . S
C977 H970 0.950 . S
C977 C974 1.387 . S
C978 C979 1.387 . S
C978 H982 0.950 . S
C978 C987 1.390 . S
C979 C978 1.387 . S
C979 C981 1.387 . S
H980 C987 0.950 . S
C981 C979 1.387 . S
C981 C983 1.390 . S
C981 H985 0.950 . S
H982 C978 0.950 . S
C983 C981 1.390 . S
C983 C984 1.387 . S
C983 H986 0.950 . S
C984 C983 1.387 . S
C984 C987 1.387 . S
H985 C981 0.950 . S
H986 C983 0.950 . S
C987 C978 1.390 . S
C987 H980 0.950 . S
C987 C984 1.387 . S
C988 C989 1.387 . S
C988 H992 0.950 . S
C988 C997 1.390 . S
C989 C988 1.387 . S
C989 C991 1.387 . S
H990 C997 0.950 . S
C991 C989 1.387 . S
C991 C993 1.390 . S
C991 H995 0.950 . S
H992 C988 0.950 . S
C993 C991 1.390 . S
C993 C994 1.387 . S
C993 H996 0.950 1_556 S
C994 C993 1.387 . S
C994 C997 1.387 . S
H995 C991 0.950 . S
H996 C993 0.950 1_554 S
C997 C988 1.390 . S
C997 H990 0.950 . S
C997 C994 1.387 . S
C998 C999 1.387 . S
C998 H1002 0.950 . S
C998 C1007 1.390 . S
C999 C998 1.387 . S
C999 C1001 1.387 . S
H1000 C1007 0.950 . S
C1001 C999 1.387 . S
C1001 C1003 1.390 . S
C1001 H1005 0.950 . S
H1002 C998 0.950 . S
C1003 C1001 1.390 . S
C1003 C1004 1.387 . S
C1003 H1006 0.950 . S
C1004 C1003 1.387 . S
C1004 C1007 1.387 . S
H1005 C1001 0.950 . S
H1006 C1003 0.950 . S
C1007 C998 1.390 . S
C1007 H1000 0.950 . S
C1007 C1004 1.387 . S
C1008 C1009 1.387 . S
C1008 H1012 0.950 . S
C1008 C1017 1.390 . S
C1009 C1008 1.387 . S
C1009 C1011 1.387 . S
H1010 C1017 0.950 . S
C1011 C1009 1.387 . S
C1011 C1013 1.390 . S
C1011 H1015 0.950 . S
H1012 C1008 0.950 . S
C1013 C1011 1.390 . S
C1013 C1014 1.387 . S
C1013 H1016 0.950 . S
C1014 C1013 1.387 . S
C1014 C1017 1.387 . S
H1015 C1011 0.950 . S
H1016 C1013 0.950 . S
C1017 C1008 1.390 . S
C1017 H1010 0.950 . S
C1017 C1014 1.387 . S
C1018 C1019 1.387 . S
C1018 H1022 0.950 . S
C1018 C1027 1.390 . S
C1019 C1018 1.387 . S
C1019 C1021 1.387 . S
H1020 C1027 0.950 . S
C1021 C1019 1.387 . S
C1021 C1023 1.390 . S
C1021 H1025 0.950 . S
H1022 C1018 0.950 . S
C1023 C1021 1.390 . S
C1023 C1024 1.387 . S
C1023 H1026 0.950 . S
C1024 C1023 1.387 . S
C1024 C1027 1.387 . S
H1025 C1021 0.950 . S
H1026 C1023 0.950 . S
C1027 C1018 1.390 . S
C1027 H1020 0.950 . S
C1027 C1024 1.387 . S
C1028 C1029 1.387 . S
C1028 H1032 0.950 . S
C1028 C1037 1.390 . S
C1029 C1028 1.387 . S
C1029 C1031 1.387 . S
H1030 C1037 0.950 . S
C1031 C1029 1.387 . S
C1031 C1033 1.390 . S
C1031 H1035 0.950 . S
H1032 C1028 0.950 . S
C1033 C1031 1.390 . S
C1033 C1034 1.387 . S
C1033 H1036 0.950 . S
C1034 C1033 1.387 . S
C1034 C1037 1.387 . S
H1035 C1031 0.950 . S
H1036 C1033 0.950 . S
C1037 C1028 1.390 . S
C1037 H1030 0.950 . S
C1037 C1034 1.387 . S
C1038 C1039 1.387 . S
C1038 H1042 0.950 . S
C1038 C1047 1.390 . S
C1039 C1038 1.387 . S
C1039 C1041 1.387 . S
H1040 C1047 0.950 . S
C1041 C1039 1.387 . S
C1041 C1043 1.390 . S
C1041 H1045 0.950 . S
H1042 C1038 0.950 . S
C1043 C1041 1.390 . S
C1043 C1044 1.387 . S
C1043 H1046 0.950 . S
C1044 C1043 1.387 . S
C1044 C1047 1.387 . S
H1045 C1041 0.950 . S
H1046 C1043 0.950 . S
C1047 C1038 1.390 . S
C1047 H1040 0.950 . S
C1047 C1044 1.387 . S
C1048 C1049 1.387 . S
C1048 H1052 0.950 . S
C1048 C1057 1.390 . S
C1049 C1048 1.387 . S
C1049 C1051 1.387 . S
H1050 C1057 0.950 . S
C1051 C1049 1.387 . S
C1051 C1053 1.390 . S
C1051 H1055 0.950 . S
H1052 C1048 0.950 . S
C1053 C1051 1.390 . S
C1053 C1054 1.387 . S
C1053 H1056 0.950 . S
C1054 C1053 1.387 . S
C1054 C1057 1.387 . S
H1055 C1051 0.950 . S
H1056 C1053 0.950 . S
C1057 C1048 1.390 . S
C1057 H1050 0.950 . S
C1057 C1054 1.387 . S
C1058 C1059 1.387 . S
C1058 H1062 0.950 . S
C1058 C1067 1.390 . S
C1059 C1058 1.387 . S
C1059 C1061 1.387 . S
H1060 C1067 0.950 . S
C1061 C1059 1.387 . S
C1061 C1063 1.390 . S
C1061 H1065 0.950 . S
H1062 C1058 0.950 . S
C1063 C1061 1.390 . S
C1063 C1064 1.387 . S
C1063 H1066 0.950 . S
C1064 C1063 1.387 . S
C1064 C1067 1.387 . S
H1065 C1061 0.950 . S
H1066 C1063 0.950 . S
C1067 C1058 1.390 . S
C1067 H1060 0.950 . S
C1067 C1064 1.387 . S
C1068 C1069 1.387 . S
C1068 H1072 0.950 . S
C1068 C1077 1.390 . S
C1069 C1068 1.387 . S
C1069 C1071 1.387 . S
H1070 C1077 0.950 . S
C1071 C1069 1.387 . S
C1071 C1073 1.390 . S
C1071 H1075 0.950 . S
H1072 C1068 0.950 . S
C1073 C1071 1.390 . S
C1073 C1074 1.387 . S
C1073 H1076 0.950 . S
C1074 C1073 1.387 . S
C1074 C1077 1.387 . S
H1075 C1071 0.950 . S
H1076 C1073 0.950 . S
C1077 C1068 1.390 . S
C1077 H1070 0.950 . S
C1077 C1074 1.387 . S
C1078 C1079 1.387 . S
C1078 H1082 0.950 . S
C1078 C1087 1.390 . S
C1079 C1078 1.387 . S
C1079 C1081 1.387 . S
H1080 C1087 0.950 1_554 S
C1081 C1079 1.387 . S
C1081 C1083 1.390 . S
C1081 H1085 0.950 . S
H1082 C1078 0.950 . S
C1083 C1081 1.390 . S
C1083 C1084 1.387 . S
C1083 H1086 0.950 . S
C1084 C1083 1.387 . S
C1084 C1087 1.387 . S
H1085 C1081 0.950 . S
H1086 C1083 0.950 . S
C1087 C1078 1.390 . S
C1087 H1080 0.950 1_556 S
C1087 C1084 1.387 . S
C449 C117 1.461 . S
C454 C5 1.462 . S
C459 C19 1.460 . S
C464 C355 1.460 . S
C469 C33 1.463 . S
C474 C145 1.463 . S
C479 C47 1.463 . S
C484 C383 1.463 . S
C489 C61 1.463 . S
C494 C173 1.463 . S
C499 C411 1.460 . S
C504 C75 1.460 . S
C509 C201 1.463 . S
C514 C89 1.463 . S
C519 C439 1.463 . S
C524 C103 1.463 . S
C529 C243 1.460 . S
C534 C131 1.460 . S
C539 C159 1.463 . S
C544 C271 1.463 . S
C549 C187 1.463 . S
C554 C299 1.463 . S
C559 C327 1.463 . S
C564 C215 1.463 . S
C569 C341 1.461 . S
C574 C229 1.461 . S
C579 C257 1.461 . S
C584 C369 1.461 . S
C589 C285 1.460 . S
C594 C397 1.460 . S
C599 C425 1.461 . S
C604 C313 1.461 . S
C609 C0 1.394 . S
C614 C56 1.394 . S
C619 C70 1.395 . S
C624 C14 1.395 . S
C629 C84 1.394 . S
C634 C28 1.394 . S
C639 C42 1.394 . S
C644 C98 1.394 . S
C649 C112 1.394 . S
C654 C168 1.394 . S
C659 C126 1.394 . S
C664 C182 1.394 . S
C669 C196 1.394 . S
C674 C140 1.394 . S
C679 C210 1.394 . S
C684 C154 1.394 . S
C689 C280 1.394 . S
C694 C224 1.394 . S
C699 C294 1.394 . S
C704 C238 1.394 . S
C709 C252 1.394 . S
C714 C308 1.394 . S
C719 C322 1.394 . S
C724 C266 1.394 . S
C729 C392 1.394 . S
C734 C336 1.394 . S
C739 C350 1.394 . S
C744 C406 1.394 . S
C749 C420 1.395 . S
C754 C364 1.394 . S
C759 C434 1.394 . S
C764 C378 1.394 . S
C769 C65 0.889 . S
C774 C9 0.889 . S
C779 C79 0.889 . S
C784 C23 0.889 . S
C789 C37 0.889 . S
C794 C93 0.889 . S
C799 C107 0.881 . S
C804 C51 0.881 . S
C809 C177 0.889 . S
C814 C121 0.889 . S
C819 C135 0.881 . S
C824 C191 0.881 . S
C829 C205 0.889 . S
C834 C149 0.889 . S
C839 C219 0.889 . S
C844 C163 0.889 . S
C849 C233 0.881 1_545 S
C854 C289 0.881 1_565 S
C859 C303 0.889 . S
C864 C247 0.889 . S
C869 C317 0.881 1_545 S
C874 C261 0.881 1_565 S
C879 C331 0.881 . S
C884 C275 0.881 . S
C889 C401 0.889 1_545 S
C894 C345 0.889 1_565 S
C899 C359 0.881 . S
C904 C415 0.881 . S
C909 C373 0.881 1_545 S
C914 C429 0.881 1_565 S
C919 C387 0.889 . S
C924 C443 0.889 . S
C929 C11 1.542 . S
C934 C305 1.543 . S
C939 C319 1.544 . S
C944 C25 1.544 . S
C949 C39 1.541 . S
C954 C333 1.541 . S
C959 C53 1.541 . S
C964 C291 1.541 1_556 S
C969 C277 1.541 . S
C974 C67 1.541 . S
C979 C235 1.543 . S
C984 C81 1.543 . S
C989 C249 1.544 . S
C994 C95 1.544 1_556 S
C999 C109 1.543 . S
C1004 C263 1.543 . S
C1009 C123 1.541 1_556 S
C1014 C417 1.541 . S
C1019 C431 1.543 . S
C1024 C137 1.543 . S
C1029 C445 1.541 . S
C1034 C151 1.541 . S
C1039 C403 1.542 . S
C1044 C165 1.542 . S
C1049 C389 1.541 . S
C1054 C179 1.541 . S
C1059 C347 1.543 . S
C1064 C193 1.543 . S
C1069 C207 1.543 . S
C1074 C361 1.543 . S
C1079 C221 1.542 . S
C1084 C375 1.542 1_556 S
