# Generated by pormake.
# Topology unj, (4)-cn, num edge types: 1
# Building blocks:
#     Node 0, Type 0, BuildingBlock: QUQFOY_clean_sbu_3, # of connection points: 4
#     Node 1, Type 0, BuildingBlock: QUQFOY_clean_sbu_3, # of connection points: 4
#     Node 2, Type 0, BuildingBlock: QUQFOY_clean_sbu_3, # of connection points: 4
#     Node 3, Type 0, BuildingBlock: QUQFOY_clean_sbu_3, # of connection points: 4
#     Node 4, Type 0, BuildingBlock: QUQFOY_clean_sbu_3, # of connection points: 4
#     Node 5, Type 0, BuildingBlock: QUQFOY_clean_sbu_3, # of connection points: 4
#     Edge 6, Type (0, 0), BuildingBlock: FUNLAD_clean_linker_1, # of connection points: 2
#     Edge 7, Type (0, 0), BuildingBlock: FUNLAD_clean_linker_1, # of connection points: 2
#     Edge 8, Type (0, 0), BuildingBlock: FUNLAD_clean_linker_1, # of connection points: 2
#     Edge 9, Type (0, 0), BuildingBlock: FUNLAD_clean_linker_1, # of connection points: 2
#     Edge 10, Type (0, 0), BuildingBlock: FUNLAD_clean_linker_1, # of connection points: 2
#     Edge 11, Type (0, 0), BuildingBlock: FUNLAD_clean_linker_1, # of connection points: 2
#     Edge 12, Type (0, 0), BuildingBlock: FUNLAD_clean_linker_1, # of connection points: 2
#     Edge 13, Type (0, 0), BuildingBlock: FUNLAD_clean_linker_1, # of connection points: 2
#     Edge 14, Type (0, 0), BuildingBlock: FUNLAD_clean_linker_1, # of connection points: 2
#     Edge 15, Type (0, 0), BuildingBlock: FUNLAD_clean_linker_1, # of connection points: 2
#     Edge 16, Type (0, 0), BuildingBlock: FUNLAD_clean_linker_1, # of connection points: 2
#     Edge 17, Type (0, 0), BuildingBlock: FUNLAD_clean_linker_1, # of connection points: 2
# Relax obj value: 0.028
# Max RMSD: 0.079
# Mean RMSD: 0.079
data_MOF--net-unj--node1-QUQFOY_clean_sbu_3--edge1-FUNLAD_clean_linker_1
_symmetry_space_group_name_H-M    P1
_symmetry_Int_Tables_number       1
_symmetry_cell_setting            triclinic
loop_
_symmetry_equiv_pos_as_xyz
'x, y, z'
_cell_length_a     35.557972
_cell_length_b     35.402976
_cell_length_c     38.983546
_cell_angle_alpha  89.890341
_cell_angle_beta   90.076662
_cell_angle_gamma 120.08782
loop_
_atom_site_label
_atom_site_type_symbol
_atom_site_fract_x
_atom_site_fract_y
_atom_site_fract_z
_atom_type_partial_charge
C0 C 0.5391 0.29242 0.50213 0.0
O1 O 0.55576 0.26801 0.50248 0.0
Cd2 Cd 0.53353 0.20879 0.5417 0.0
O3 O 0.50915 0.28616 0.52311 0.0
Cd4 Cd 0.47031 0.23606 0.57136 0.0
C5 C 0.42529 0.1456 0.52312 0.0
O6 O 0.53435 0.23895 0.59684 0.0
O7 O 0.47266 0.19206 0.61912 0.0
O8 O 0.4755 0.30103 0.59662 0.0
C9 C 0.51379 0.21228 0.62072 0.0
O10 O 0.46292 0.14962 0.52335 0.0
C11 C 0.43648 0.2826 0.60686 0.0
O12 O 0.41872 0.17428 0.53688 0.0
O13 O 0.41242 0.24234 0.60001 0.0
C14 C 0.28592 0.55341 0.70137 0.0
O15 O 0.32297 0.56735 0.71506 0.0
Cd16 Cd 0.33553 0.53887 0.76677 0.0
O17 O 0.25181 0.52157 0.71439 0.0
Cd18 Cd 0.23293 0.47188 0.76449 0.0
C19 C 0.30072 0.43482 0.74056 0.0
O20 O 0.2776 0.53141 0.80283 0.0
O21 O 0.24441 0.46775 0.82654 0.0
O22 O 0.162 0.46688 0.76473 0.0
C23 C 0.26811 0.50866 0.82987 0.0
O24 O 0.33283 0.47135 0.74955 0.0
C25 C 0.14067 0.42552 0.76713 0.0
O26 O 0.26208 0.42776 0.74234 0.0
O27 O 0.16217 0.4058 0.76734 0.0
C28 C 0.68197 0.25138 0.83969 0.0
O29 O 0.6941 0.29122 0.84514 0.0
Cd30 Cd 0.74643 0.33455 0.88748 0.0
O31 O 0.69764 0.23197 0.857 0.0
Cd32 Cd 0.75062 0.24925 0.90413 0.0
C33 C 0.83352 0.32706 0.85854 0.0
O34 O 0.72543 0.29013 0.93797 0.0
O35 O 0.78438 0.29274 0.95539 0.0
O36 O 0.69948 0.17323 0.91659 0.0
C37 C 0.75462 0.30174 0.96067 0.0
O38 O 0.81667 0.35069 0.86453 0.0
C39 C 0.72705 0.16483 0.92985 0.0
O40 O 0.8149 0.28727 0.86801 0.0
O41 O 0.76636 0.19541 0.93037 0.0
C42 C 0.4326 0.72438 0.02599 0.0
O43 O 0.41626 0.74632 0.03797 0.0
Cd44 Cd 0.45105 0.79847 0.0833 0.0
O45 O 0.46745 0.7282 0.03834 0.0
Cd46 Cd 0.51889 0.76669 0.08535 0.0
C47 C 0.55159 0.86393 0.04814 0.0
O48 O 0.46364 0.75792 0.12635 0.0
O49 O 0.53002 0.79799 0.14336 0.0
O50 O 0.51786 0.69802 0.09138 0.0
C51 C 0.48987 0.77855 0.15044 0.0
O52 O 0.51665 0.86088 0.05958 0.0
C53 C 0.5585 0.71517 0.09579 0.0
O54 O 0.55936 0.83282 0.05159 0.0
O55 O 0.58126 0.75652 0.09416 0.0
C56 C 0.75165 0.45873 0.18021 0.0
O57 O 0.71116 0.43778 0.18649 0.0
Cd58 Cd 0.6771 0.45602 0.23065 0.0
O59 O 0.77757 0.49156 0.19824 0.0
Cd60 Cd 0.77312 0.53136 0.24901 0.0
C61 C 0.70946 0.56107 0.20632 0.0
O62 O 0.72172 0.46652 0.27955 0.0
O63 O 0.734 0.52694 0.30273 0.0
O64 O 0.84126 0.53777 0.26741 0.0
C65 C 0.71596 0.48572 0.3045 0.0
O66 O 0.67873 0.52186 0.21009 0.0
C67 C 0.86035 0.57856 0.27296 0.0
O68 O 0.74767 0.57306 0.21679 0.0
O69 O 0.83911 0.59786 0.26689 0.0
C70 C 0.29929 0.71608 0.36681 0.0
O71 O 0.28759 0.67898 0.37999 0.0
Cd72 Cd 0.23561 0.64921 0.42567 0.0
O73 O 0.28603 0.74069 0.37895 0.0
Cd74 Cd 0.24314 0.74348 0.42777 0.0
C75 C 0.15275 0.66171 0.39193 0.0
O76 O 0.26258 0.70459 0.46875 0.0
O77 O 0.21067 0.71577 0.4843 0.0
O78 O 0.30192 0.81764 0.43515 0.0
C79 C 0.23592 0.70143 0.49168 0.0
O80 O 0.16652 0.63625 0.40112 0.0
C81 C 0.27796 0.83467 0.43645 0.0
O82 O 0.17514 0.70266 0.39709 0.0
O83 O 0.2372 0.8093 0.4335 0.0
H84 H 0.35633 0.10323 0.50844 0.0
C85 C 0.38835 0.10636 0.50804 0.0
H86 H 0.42518 0.07692 0.49433 0.0
H87 H 0.24146 0.89457 0.50795 0.0
H88 H 0.24239 0.91271 0.5681 0.0
H89 H 0.29585 0.98569 0.58983 0.0
H90 H 0.34835 0.04094 0.55167 0.0
C91 C 0.39318 0.07373 0.49562 0.0
C92 C 0.35617 0.03264 0.48228 0.0
C93 C 0.32549 0.00095 0.50516 0.0
C94 C 0.29519 0.9586 0.49282 0.0
C95 C 0.26534 0.92714 0.51611 0.0
C96 C 0.2655 0.93713 0.55066 0.0
C97 C 0.29556 0.97823 0.56288 0.0
C98 C 0.32544 0.0098 0.54058 0.0
H99 H 0.33275 0.90096 0.44385 0.0
C100 C 0.29748 0.88178 0.44224 0.0
H101 H 0.23866 0.88259 0.44763 0.0
H102 H 0.40623 0.08789 0.43107 0.0
H103 H 0.40331 0.07003 0.37058 0.0
H104 H 0.35079 0.99633 0.34944 0.0
H105 H 0.30089 0.93998 0.38875 0.0
C106 C 0.27396 0.90129 0.44759 0.0
C107 C 0.29659 0.94787 0.45806 0.0
C108 C 0.32462 0.9806 0.43472 0.0
C109 C 0.35462 0.02304 0.44688 0.0
C110 C 0.38297 0.05497 0.42316 0.0
C111 C 0.38151 0.0452 0.3884 0.0
C112 C 0.35195 0.0037 0.37649 0.0
C113 C 0.32372 0.97163 0.39928 0.0
H114 H 0.44298 0.34215 0.62991 0.0
C115 C 0.42084 0.30736 0.62644 0.0
H116 H 0.35865 0.25382 0.63826 0.0
H117 H 0.38007 0.3838 0.76546 0.0
H118 H 0.41318 0.34598 0.79298 0.0
H119 H 0.42595 0.29357 0.76064 0.0
H120 H 0.40553 0.27857 0.70059 0.0
C121 C 0.38139 0.28856 0.64093 0.0
C122 C 0.3686 0.31551 0.6614 0.0
C123 C 0.38028 0.32351 0.69648 0.0
C124 C 0.37298 0.35371 0.71506 0.0
C125 C 0.38512 0.3613 0.75008 0.0
C126 C 0.40408 0.33977 0.76619 0.0
C127 C 0.41128 0.31027 0.74799 0.0
C128 C 0.39954 0.30206 0.71354 0.0
H129 H 0.27963 0.37001 0.71836 0.0
C130 C 0.30793 0.40089 0.72553 0.0
H131 H 0.37657 0.4387 0.72489 0.0
H132 H 0.33941 0.3044 0.59527 0.0
H133 H 0.30743 0.34291 0.56714 0.0
H134 H 0.29756 0.39783 0.59845 0.0
H135 H 0.31911 0.41424 0.65797 0.0
C136 C 0.34778 0.40832 0.71765 0.0
C137 C 0.35384 0.3756 0.69847 0.0
C138 C 0.34159 0.36708 0.6634 0.0
C139 C 0.34837 0.3364 0.64504 0.0
C140 C 0.33548 0.32793 0.61021 0.0
C141 C 0.31706 0.34974 0.59378 0.0
C142 C 0.31141 0.38057 0.61144 0.0
C143 C 0.32364 0.38943 0.64576 0.0
H144 H 0.89179 0.38207 0.83566 0.0
C145 C 0.87613 0.3474 0.84154 0.0
H146 H 0.88183 0.29071 0.8394 0.0
H147 H 0.02797 0.37854 0.72348 0.0
H148 H 0.96722 0.32542 0.6894 0.0
H149 H 0.8941 0.28241 0.71479 0.0
H150 H 0.88127 0.29229 0.77442 0.0
C151 C 0.89701 0.32557 0.83461 0.0
C152 C 0.94158 0.34894 0.82011 0.0
C153 C 0.94858 0.34216 0.78546 0.0
C154 C 0.99079 0.36661 0.77093 0.0
C155 C -0.00328 0.36018 0.73597 0.0
C156 C 0.96209 0.32997 0.71608 0.0
C157 C 0.92091 0.30579 0.73037 0.0
C158 C 0.91399 0.31176 0.76462 0.0
H159 H 0.07761 0.36603 0.77583 0.0
C160 C 0.09341 0.40123 0.77249 0.0
H161 H 0.08642 0.45692 0.77555 0.0
H162 H 0.9401 0.36619 0.88853 0.0
H163 H 0.00077 0.41896 0.92262 0.0
H164 H 0.07366 0.46269 0.89707 0.0
H165 H 0.0863 0.4537 0.83736 0.0
C166 C 0.07057 0.42155 0.77715 0.0
C167 C 0.02586 0.39733 0.79129 0.0
C168 C 0.01892 0.40385 0.82605 0.0
C169 C 0.97682 0.3792 0.84062 0.0
C170 C 0.97112 0.38498 0.87582 0.0
C171 C 0.00577 0.41494 0.8958 0.0
C172 C 0.04681 0.43951 0.88143 0.0
C173 C 0.05356 0.43405 0.84705 0.0
H174 H 0.59907 0.89795 0.00693 0.0
C175 C 0.5818 0.90248 0.02804 0.0
H176 H 0.5697 0.94606 0.05581 0.0
H177 H 0.7328 0.06022 0.9428 0.0
H178 H 0.77134 0.02755 0.96953 0.0
H179 H 0.73842 0.97543 0.01744 0.0
H180 H 0.66608 0.95429 0.03776 0.0
C181 C 0.58694 0.94204 0.0344 0.0
C182 C 0.61073 0.97939 0.0103 0.0
C183 C 0.65456 0.9942 0.00092 0.0
C184 C 0.67514 0.02726 0.97552 0.0
C185 C 0.71692 0.03768 0.96373 0.0
C186 C 0.73922 0.01882 0.97861 0.0
C187 C 0.72058 0.98928 0.00542 0.0
C188 C 0.6788 0.97705 0.01658 0.0
H189 H 0.73097 0.12357 0.97031 0.0
C190 C 0.71302 0.12324 0.94762 0.0
H191 H 0.65898 0.08743 0.91575 0.0
H192 H 0.52565 0.95745 0.02082 0.0
H193 H 0.48988 0.99486 -0.0018 0.0
H194 H 0.52888 0.05877 0.96026 0.0
H195 H 0.60341 0.08486 0.9441 0.0
C196 C 0.67614 0.08694 0.9387 0.0
C197 C 0.65367 0.04889 0.96238 0.0
C198 C 0.61042 0.03525 0.9728 0.0
C199 C 0.58859 -0.00026 -0.00399 0.0
C200 C 0.54456 0.98523 0.00433 0.0
C201 C 0.5234 0.0063 0.99138 0.0
C202 C 0.5453 0.04216 0.96995 0.0
C203 C 0.58821 0.05663 0.96072 0.0
H204 H 0.72735 0.62699 0.18783 0.0
C205 C 0.701 0.59333 0.18951 0.0
H206 H 0.63485 0.54901 0.17867 0.0
H207 H 0.58593 0.69784 0.17649 0.0
H208 H 0.56015 0.66772 0.2332 0.0
H209 H 0.57651 0.6133 0.25784 0.0
H210 H 0.61893 0.58887 0.22595 0.0
C211 C 0.66189 0.58223 0.17646 0.0
C212 C 0.65305 0.61554 0.16159 0.0
C213 C 0.62781 0.62899 0.18046 0.0
C214 C 0.61794 0.65988 0.16611 0.0
C215 C 0.59357 0.67367 0.18583 0.0
C216 C 0.57878 0.65684 0.21853 0.0
C217 C 0.58802 0.62624 0.23241 0.0
C218 C 0.61233 0.61244 0.21377 0.0
H219 H 0.55532 0.65277 0.10687 0.0
C220 C 0.57714 0.68789 0.10546 0.0
H221 H 0.64076 0.73997 0.11551 0.0
H222 H 0.70197 0.5962 0.11854 0.0
H223 H 0.72852 0.62717 0.06211 0.0
H224 H 0.71177 0.68131 0.03744 0.0
H225 H 0.66818 0.70473 0.0691 0.0
C226 C 0.61827 0.705 0.11635 0.0
C227 C 0.6326 0.67645 0.13263 0.0
C228 C 0.65888 0.664 0.11417 0.0
C229 C 0.66893 0.63321 0.12857 0.0
C230 C 0.69401 0.62009 0.1091 0.0
C231 C 0.7093 0.63748 0.07661 0.0
C232 C 0.69983 0.66793 0.0627 0.0
C233 C 0.6748 0.68107 0.0811 0.0
H234 H 0.09156 0.60775 0.37141 0.0
C235 C 0.10999 0.6429 0.3752 0.0
H236 H 0.11153 0.70284 0.36745 0.0
H237 H 0.9756 0.62533 0.24509 0.0
H238 H 0.04154 0.67506 0.21445 0.0
H239 H 0.11216 0.71284 0.24439 0.0
H240 H 0.11726 0.70101 0.30513 0.0
C241 C 0.09315 0.66754 0.36486 0.0
C242 C 0.05013 0.64743 0.34766 0.0
C243 C 0.04769 0.65545 0.31233 0.0
C244 C 0.00695 0.63399 0.29514 0.0
C245 C 0.00557 0.6414 0.25957 0.0
C246 C 0.04322 0.66971 0.24162 0.0
C247 C 0.08298 0.69096 0.25847 0.0
C248 C 0.08543 0.68391 0.29337 0.0
H249 H 0.91951 0.63735 0.29121 0.0
C250 C 0.90472 0.60242 0.28693 0.0
H251 H 0.91109 0.54655 0.29296 0.0
H252 H 0.04276 0.62961 0.41663 0.0
H253 H 0.97673 0.58051 0.44738 0.0
H254 H 0.9063 0.54185 0.41725 0.0
H255 H 0.90148 0.55233 0.35624 0.0
C256 C 0.92621 0.58173 0.29581 0.0
C257 C 0.96881 0.60505 0.31352 0.0
C258 C 0.97111 0.59779 0.34902 0.0
C259 C 0.01177 0.61944 0.36624 0.0
C260 C 0.01293 0.61297 0.40202 0.0
C261 C 0.9752 0.58512 0.42006 0.0
C262 C 0.93555 0.5634 0.40311 0.0
C263 C 0.93328 0.56964 0.36805 0.0
H264 H 0.54023 0.34955 0.478 0.0
C265 C 0.55558 0.32961 0.47824 0.0
H266 H 0.60665 0.32164 0.45904 0.0
H267 H 0.60105 0.44458 0.33485 0.0
H268 H 0.5275 0.38584 0.32317 0.0
H269 H 0.4909 0.32292 0.36249 0.0
H270 H 0.52712 0.31862 0.41381 0.0
C271 C 0.58981 0.34012 0.45786 0.0
C272 C 0.60899 0.37956 0.43577 0.0
C273 C 0.58718 0.38093 0.40572 0.0
C274 C 0.60878 0.41626 0.38238 0.0
C275 C 0.58636 0.41763 0.35281 0.0
C276 C 0.54416 0.38432 0.34594 0.0
C277 C 0.52352 0.34897 0.36813 0.0
C278 C 0.54466 0.34702 0.39764 0.0
H279 H 0.67382 0.42488 0.33185 0.0
C280 C 0.68771 0.46012 0.33294 0.0
H281 H 0.69359 0.51304 0.36233 0.0
H282 H 0.65704 0.39003 0.4936 0.0
H283 H 0.72995 0.44965 0.50536 0.0
H284 H 0.76813 0.50971 0.46377 0.0
H285 H 0.73349 0.51066 0.41028 0.0
C286 C 0.67905 0.47788 0.35996 0.0
C287 C 0.6525 0.44894 0.38846 0.0
C288 C 0.67289 0.44948 0.41978 0.0
C289 C 0.65107 0.41466 0.44351 0.0
C290 C 0.67239 0.41546 0.47445 0.0
C291 C 0.71416 0.44953 0.48156 0.0
C292 C 0.73565 0.48336 0.45816 0.0
C293 C 0.71545 0.48347 0.42753 0.0
H294 H 0.20748 0.67597 0.54268 0.0
C295 C 0.2319 0.67897 0.5244 0.0
H296 H 0.2806 0.66335 0.51316 0.0
H297 H 0.26231 0.63933 0.68259 0.0
H298 H 0.28912 0.71723 0.68492 0.0
H299 H 0.30073 0.75975 0.63183 0.0
H300 H 0.28482 0.72454 0.57625 0.0
C301 C 0.25717 0.66188 0.53178 0.0
C302 C 0.25149 0.63707 0.56394 0.0
C303 C 0.26246 0.65867 0.5961 0.0
C304 C 0.25777 0.6346 0.62656 0.0
C305 C 0.26696 0.65642 0.65854 0.0
C306 C 0.28209 0.70106 0.66026 0.0
C307 C 0.28846 0.72496 0.63039 0.0
C308 C 0.27891 0.70423 0.59862 0.0
H309 H 0.3131 0.60171 0.65966 0.0
C310 C 0.283 0.57555 0.67038 0.0
H311 H 0.21453 0.53902 0.66539 0.0
H312 H 0.2253 0.58542 0.5066 0.0
H313 H 0.1997 0.50777 0.50438 0.0
H314 H 0.19433 0.46665 0.55708 0.0
H315 H 0.21425 0.5029 0.61236 0.0
C316 C 0.24499 0.56562 0.65567 0.0
C317 C 0.24418 0.58953 0.62459 0.0
C318 C 0.23226 0.56777 0.59258 0.0
C319 C 0.23589 0.59158 0.56219 0.0
C320 C 0.22369 0.56905 0.53048 0.0
C321 C 0.20885 0.52445 0.52884 0.0
C322 C 0.20579 0.50129 0.55851 0.0
C323 C 0.21734 0.52251 0.59008 0.0
H324 H 0.63614 0.1919 0.81121 0.0
C325 C 0.64919 0.22693 0.81316 0.0
H326 H 0.64804 0.28192 0.79358 0.0
H327 H 0.56299 0.14709 0.66223 0.0
H328 H 0.62949 0.14345 0.66038 0.0
H329 H 0.68515 0.17818 0.70555 0.0
H330 H 0.67434 0.21559 0.75306 0.0
C331 C 0.63588 0.24709 0.79123 0.0
C332 C 0.6019 0.22304 0.76496 0.0
C333 C 0.60982 0.20252 0.73686 0.0
C334 C 0.57897 0.1846 0.70983 0.0
C335 C 0.58641 0.1627 0.68266 0.0
C336 C 0.62423 0.16018 0.68141 0.0
C337 C 0.65547 0.17958 0.70692 0.0
C338 C 0.64864 0.20072 0.73428 0.0
H339 H 0.57219 0.23144 0.65143 0.0
C340 C 0.53725 0.20924 0.65058 0.0
H341 H 0.48205 0.16219 0.67763 0.0
H342 H 0.57386 0.25394 0.81755 0.0
H343 H 0.50752 0.25759 0.8188 0.0
H344 H 0.4562 0.23042 0.77016 0.0
H345 H 0.47059 0.19891 0.72028 0.0
C346 C 0.5171 0.18354 0.67767 0.0
C347 C 0.54194 0.18976 0.70988 0.0
C348 C 0.53252 0.20741 0.73901 0.0
C349 C 0.56249 0.22387 0.7667 0.0
C350 C 0.55257 0.24167 0.7955 0.0
C351 C 0.51453 0.24384 0.79661 0.0
C352 C 0.48562 0.22849 0.76925 0.0
C353 C 0.49435 0.21051 0.74071 0.0
H354 H 0.26614 0.50986 0.88651 0.0
C355 C 0.28183 0.52922 0.86379 0.0
H356 H 0.32734 0.59083 0.84383 0.0
H357 H 0.33532 0.71514 0.95834 0.0
H358 H 0.3017 0.73303 0.91186 0.0
H359 H 0.27607 0.68736 0.85986 0.0
H360 H 0.28451 0.62392 0.85386 0.0
C361 C 0.3123 0.57154 0.86673 0.0
C362 C 0.32298 0.59512 0.90001 0.0
C363 C 0.31644 0.63131 0.90357 0.0
C364 C 0.33013 0.65695 0.93391 0.0
C365 C 0.32489 0.69402 0.93615 0.0
C366 C 0.30564 0.70473 0.90961 0.0
C367 C 0.29128 0.67907 0.88032 0.0
C368 C 0.29652 0.6428 0.87718 0.0
H369 H 0.43142 0.68465 0.98237 0.0
C370 C 0.4116 0.69393 -0.00258 0.0
H371 H 0.34891 0.68479 0.00554 0.0
H372 H 0.34369 0.52988 0.90102 0.0
H373 H 0.37013 0.50758 0.9498 0.0
H374 H 0.38425 0.54606 0.00516 0.0
H375 H 0.37341 0.60813 0.01151 0.0
C376 C 0.36904 0.67593 0.99051 0.0
C377 C 0.34933 0.64568 0.96096 0.0
C378 C 0.35237 0.60728 0.95857 0.0
C379 C 0.34103 0.58307 0.92751 0.0
C380 C 0.34905 0.54782 0.92462 0.0
C381 C 0.36465 0.53488 0.95238 0.0
C382 C 0.37283 0.55668 0.98348 0.0
C383 C 0.36685 0.59249 0.98668 0.0
H384 H 0.72753 0.33224 0.99393 0.0
C385 C 0.75439 0.32605 0.991 0.0
H386 H 0.81191 0.33303 0.01313 0.0
H387 H 0.76195 0.47268 0.08896 0.0
H388 H 0.78414 0.51256 0.03527 0.0
H389 H 0.80735 0.48487 0.98643 0.0
H390 H 0.80777 0.41663 0.99094 0.0
C391 C 0.78552 0.34002 0.01507 0.0
C392 C 0.78196 0.36177 0.04636 0.0
C393 C 0.78399 0.40269 0.04382 0.0
C394 C 0.77224 0.41942 0.07237 0.0
C395 C 0.77186 0.45902 0.06848 0.0
C396 C 0.78436 0.4822 0.03771 0.0
C397 C 0.7973 0.46656 0.01018 0.0
C398 C 0.79714 0.42726 0.01304 0.0
H399 H 0.80361 0.46409 0.14593 0.0
C400 C 0.76906 0.4451 0.15159 0.0
H401 H 0.70879 0.39 0.13849 0.0
H402 H 0.78019 0.28508 0.06071 0.0
H403 H 0.76257 0.24737 0.11549 0.0
H404 H 0.74428 0.27749 0.16564 0.0
H405 H 0.74329 0.34542 0.16124 0.0
C406 C 0.7431 0.41015 0.13241 0.0
C407 C 0.76017 0.39584 0.10369 0.0
C408 C 0.76141 0.35662 0.10694 0.0
C409 C 0.77238 0.33953 0.07819 0.0
C410 C 0.77232 0.29968 0.08182 0.0
C411 C 0.76229 0.2777 0.11313 0.0
C412 C 0.75196 0.29464 0.14136 0.0
C413 C 0.75142 0.33359 0.13846 0.0
H414 H 0.32785 0.75656 0.32078 0.0
C415 C 0.32734 0.73074 0.3363 0.0
H416 H 0.35122 0.68736 0.34251 0.0
H417 H 0.38829 0.67704 0.18615 0.0
H418 H 0.3355 0.60201 0.19976 0.0
H419 H 0.29966 0.5823 0.25631 0.0
H420 H 0.31688 0.63738 0.29971 0.0
C421 C 0.35165 0.71319 0.32711 0.0
C422 C 0.37568 0.72507 0.29399 0.0
C423 C 0.36468 0.69238 0.26875 0.0
C424 C 0.38439 0.70393 0.23583 0.0
C425 C 0.37357 0.67042 0.21133 0.0
C426 C 0.3434 0.62709 0.21883 0.0
C427 C 0.3233 0.61599 0.25068 0.0
C428 C 0.33361 0.64806 0.27541 0.0
H429 H 0.49777 0.78556 0.2067 0.0
C430 C 0.47447 0.77605 0.18583 0.0
H431 H 0.40886 0.74954 0.17155 0.0
H432 H 0.41137 0.79397 0.33877 0.0
H433 H 0.46226 0.86963 0.32469 0.0
H434 H 0.4898 0.89106 0.26565 0.0
H435 H 0.46769 0.83685 0.22068 0.0
C436 C 0.43206 0.7597 0.19255 0.0
C437 C 0.41425 0.74826 0.22792 0.0
C438 C 0.42583 0.78089 0.25334 0.0
C439 C 0.40772 0.76898 0.28681 0.0
C440 C 0.42226 0.8016 0.31247 0.0
C441 C 0.45175 0.84509 0.3048 0.0
C442 C 0.46741 0.85711 0.27161 0.0
C443 C 0.45468 0.82556 0.24607 0.0
loop_
_geom_bond_atom_site_label_1
_geom_bond_atom_site_label_2
_geom_bond_distance
_geom_bond_site_symmetry_2
_ccdc_geom_bond_type
C0 O1 1.306 . S
C0 O3 1.160 . S
O1 C0 1.306 . S
O1 Cd2 2.228 . S
Cd2 O1 2.228 . S
Cd2 O6 2.273 . S
Cd2 O10 2.277 . S
O3 C0 1.160 . S
O3 Cd4 2.203 . S
Cd4 O3 2.203 . S
Cd4 O6 2.411 . S
Cd4 O7 2.333 . S
Cd4 O8 2.352 . S
Cd4 O12 2.277 . S
Cd4 O13 2.356 . S
C5 O10 1.209 . S
C5 O12 1.226 . S
O6 Cd2 2.273 . S
O6 Cd4 2.411 . S
O6 C9 1.320 . S
O7 Cd4 2.333 . S
O7 C9 1.214 . S
O8 Cd4 2.352 . S
O8 C11 1.258 . S
C9 O6 1.320 . S
C9 O7 1.214 . S
O10 Cd2 2.277 . S
O10 C5 1.209 . S
C11 O8 1.258 . S
C11 O13 1.282 . S
O12 Cd4 2.277 . S
O12 C5 1.226 . S
O13 Cd4 2.356 . S
O13 C11 1.282 . S
C14 O15 1.306 . S
C14 O17 1.160 . S
O15 C14 1.306 . S
O15 Cd16 2.228 . S
Cd16 O15 2.228 . S
Cd16 O20 2.273 . S
Cd16 O24 2.277 . S
O17 C14 1.160 . S
O17 Cd18 2.203 . S
Cd18 O17 2.203 . S
Cd18 O20 2.411 . S
Cd18 O21 2.333 . S
Cd18 O22 2.352 . S
Cd18 O26 2.277 . S
Cd18 O27 2.356 . S
C19 O24 1.209 . S
C19 O26 1.226 . S
O20 Cd16 2.273 . S
O20 Cd18 2.411 . S
O20 C23 1.320 . S
O21 Cd18 2.333 . S
O21 C23 1.214 . S
O22 Cd18 2.352 . S
O22 C25 1.258 . S
C23 O20 1.320 . S
C23 O21 1.214 . S
O24 Cd16 2.277 . S
O24 C19 1.209 . S
C25 O22 1.258 . S
C25 O27 1.282 . S
O26 Cd18 2.277 . S
O26 C19 1.226 . S
O27 Cd18 2.356 . S
O27 C25 1.282 . S
C28 O29 1.306 . S
C28 O31 1.160 . S
O29 C28 1.306 . S
O29 Cd30 2.228 . S
Cd30 O29 2.228 . S
Cd30 O34 2.273 . S
Cd30 O38 2.277 . S
O31 C28 1.160 . S
O31 Cd32 2.203 . S
Cd32 O31 2.203 . S
Cd32 O34 2.411 . S
Cd32 O35 2.333 . S
Cd32 O36 2.352 . S
Cd32 O40 2.277 . S
Cd32 O41 2.356 . S
C33 O38 1.209 . S
C33 O40 1.226 . S
O34 Cd30 2.273 . S
O34 Cd32 2.411 . S
O34 C37 1.320 . S
O35 Cd32 2.333 . S
O35 C37 1.214 . S
O36 Cd32 2.352 . S
O36 C39 1.258 . S
C37 O34 1.320 . S
C37 O35 1.214 . S
O38 Cd30 2.277 . S
O38 C33 1.209 . S
C39 O36 1.258 . S
C39 O41 1.282 . S
O40 Cd32 2.277 . S
O40 C33 1.226 . S
O41 Cd32 2.356 . S
O41 C39 1.282 . S
C42 O43 1.306 . S
C42 O45 1.160 . S
O43 C42 1.306 . S
O43 Cd44 2.228 . S
Cd44 O43 2.228 . S
Cd44 O48 2.273 . S
Cd44 O52 2.277 . S
O45 C42 1.160 . S
O45 Cd46 2.203 . S
Cd46 O45 2.203 . S
Cd46 O48 2.411 . S
Cd46 O49 2.333 . S
Cd46 O50 2.352 . S
Cd46 O54 2.277 . S
Cd46 O55 2.356 . S
C47 O52 1.209 . S
C47 O54 1.226 . S
O48 Cd44 2.273 . S
O48 Cd46 2.411 . S
O48 C51 1.320 . S
O49 Cd46 2.333 . S
O49 C51 1.214 . S
O50 Cd46 2.352 . S
O50 C53 1.258 . S
C51 O48 1.320 . S
C51 O49 1.214 . S
O52 Cd44 2.277 . S
O52 C47 1.209 . S
C53 O50 1.258 . S
C53 O55 1.282 . S
O54 Cd46 2.277 . S
O54 C47 1.226 . S
O55 Cd46 2.356 . S
O55 C53 1.282 . S
C56 O57 1.306 . S
C56 O59 1.160 . S
O57 C56 1.306 . S
O57 Cd58 2.228 . S
Cd58 O57 2.228 . S
Cd58 O62 2.273 . S
Cd58 O66 2.277 . S
O59 C56 1.160 . S
O59 Cd60 2.203 . S
Cd60 O59 2.203 . S
Cd60 O62 2.411 . S
Cd60 O63 2.333 . S
Cd60 O64 2.352 . S
Cd60 O68 2.277 . S
Cd60 O69 2.356 . S
C61 O66 1.209 . S
C61 O68 1.226 . S
O62 Cd58 2.273 . S
O62 Cd60 2.411 . S
O62 C65 1.320 . S
O63 Cd60 2.333 . S
O63 C65 1.214 . S
O64 Cd60 2.352 . S
O64 C67 1.258 . S
C65 O62 1.320 . S
C65 O63 1.214 . S
O66 Cd58 2.277 . S
O66 C61 1.209 . S
C67 O64 1.258 . S
C67 O69 1.282 . S
O68 Cd60 2.277 . S
O68 C61 1.226 . S
O69 Cd60 2.356 . S
O69 C67 1.282 . S
C70 O71 1.306 . S
C70 O73 1.160 . S
O71 C70 1.306 . S
O71 Cd72 2.228 . S
Cd72 O71 2.228 . S
Cd72 O76 2.273 . S
Cd72 O80 2.277 . S
O73 C70 1.160 . S
O73 Cd74 2.203 . S
Cd74 O73 2.203 . S
Cd74 O76 2.411 . S
Cd74 O77 2.333 . S
Cd74 O78 2.352 . S
Cd74 O82 2.277 . S
Cd74 O83 2.356 . S
C75 O80 1.209 . S
C75 O82 1.226 . S
O76 Cd72 2.273 . S
O76 Cd74 2.411 . S
O76 C79 1.320 . S
O77 Cd74 2.333 . S
O77 C79 1.214 . S
O78 Cd74 2.352 . S
O78 C81 1.258 . S
C79 O76 1.320 . S
C79 O77 1.214 . S
O80 Cd72 2.277 . S
O80 C75 1.209 . S
C81 O78 1.258 . S
C81 O83 1.282 . S
O82 Cd74 2.277 . S
O82 C75 1.226 . S
O83 Cd74 2.356 . S
O83 C81 1.282 . S
H84 C85 0.951 . S
C85 H84 0.951 . S
C85 C91 1.265 . S
H86 C91 0.950 . S
H87 C95 0.949 . S
H88 C96 0.950 . S
H89 C97 0.951 . S
H90 C98 0.951 . S
C91 C85 1.265 . S
C91 H86 0.950 . S
C91 C92 1.478 . S
C92 C91 1.478 . S
C92 C93 1.397 . S
C92 C109 1.394 . S
C93 C92 1.397 . S
C93 C94 1.438 1_545 S
C93 C98 1.429 . S
C94 C93 1.438 1_565 S
C94 C95 1.428 . S
C94 C107 1.394 . S
C95 H87 0.949 . S
C95 C94 1.428 . S
C95 C96 1.345 . S
C96 H88 0.950 . S
C96 C95 1.345 . S
C96 C97 1.424 . S
C97 H89 0.951 . S
C97 C96 1.424 . S
C97 C98 1.347 1_565 S
C98 H90 0.951 . S
C98 C93 1.429 . S
C98 C97 1.347 1_545 S
H99 C100 0.951 . S
C100 H99 0.951 . S
C100 C106 1.265 . S
H101 C106 0.950 . S
H102 C110 0.949 . S
H103 C111 0.950 . S
H104 C112 0.951 . S
H105 C113 0.951 1_565 S
C106 C100 1.265 . S
C106 H101 0.950 . S
C106 C107 1.478 . S
C107 C94 1.394 . S
C107 C106 1.478 . S
C107 C108 1.397 1_565 S
C108 C107 1.397 1_545 S
C108 C109 1.438 . S
C108 C113 1.429 . S
C109 C92 1.394 . S
C109 C108 1.438 . S
C109 C110 1.428 . S
C110 H102 0.949 . S
C110 C109 1.428 . S
C110 C111 1.345 . S
C111 H103 0.950 . S
C111 C110 1.345 . S
C111 C112 1.424 . S
C112 H104 0.951 . S
C112 C111 1.424 . S
C112 C113 1.347 . S
C113 H105 0.951 1_545 S
C113 C108 1.429 . S
C113 C112 1.347 . S
H114 C115 0.951 . S
C115 H114 0.951 . S
C115 C121 1.265 . S
H116 C121 0.950 . S
H117 C125 0.949 . S
H118 C126 0.950 . S
H119 C127 0.951 . S
H120 C128 0.951 . S
C121 C115 1.265 . S
C121 H116 0.950 . S
C121 C122 1.478 . S
C122 C121 1.478 . S
C122 C123 1.397 . S
C122 C139 1.394 . S
C123 C122 1.397 . S
C123 C124 1.438 . S
C123 C128 1.429 . S
C124 C123 1.438 . S
C124 C125 1.428 . S
C124 C137 1.394 . S
C125 H117 0.949 . S
C125 C124 1.428 . S
C125 C126 1.345 . S
C126 H118 0.950 . S
C126 C125 1.345 . S
C126 C127 1.424 . S
C127 H119 0.951 . S
C127 C126 1.424 . S
C127 C128 1.347 . S
C128 H120 0.951 . S
C128 C123 1.429 . S
C128 C127 1.347 . S
H129 C130 0.951 . S
C130 H129 0.951 . S
C130 C136 1.265 . S
H131 C136 0.950 . S
H132 C140 0.949 . S
H133 C141 0.950 . S
H134 C142 0.951 . S
H135 C143 0.951 . S
C136 C130 1.265 . S
C136 H131 0.950 . S
C136 C137 1.478 . S
C137 C124 1.394 . S
C137 C136 1.478 . S
C137 C138 1.397 . S
C138 C137 1.397 . S
C138 C139 1.438 . S
C138 C143 1.429 . S
C139 C122 1.394 . S
C139 C138 1.438 . S
C139 C140 1.428 . S
C140 H132 0.949 . S
C140 C139 1.428 . S
C140 C141 1.345 . S
C141 H133 0.950 . S
C141 C140 1.345 . S
C141 C142 1.424 . S
C142 H134 0.951 . S
C142 C141 1.424 . S
C142 C143 1.347 . S
C143 H135 0.951 . S
C143 C138 1.429 . S
C143 C142 1.347 . S
H144 C145 0.951 . S
C145 H144 0.951 . S
C145 C151 1.265 . S
H146 C151 0.950 . S
H147 C155 0.949 . S
H148 C156 0.950 . S
H149 C157 0.951 . S
H150 C158 0.951 . S
C151 C145 1.265 . S
C151 H146 0.950 . S
C151 C152 1.478 . S
C152 C151 1.478 . S
C152 C153 1.397 . S
C152 C169 1.394 . S
C153 C152 1.397 . S
C153 C154 1.438 . S
C153 C158 1.429 . S
C154 C153 1.438 . S
C154 C155 1.428 1_655 S
C154 C167 1.394 1_655 S
C155 H147 0.949 . S
C155 C154 1.428 1_455 S
C155 C156 1.345 1_455 S
C156 H148 0.950 . S
C156 C155 1.345 1_655 S
C156 C157 1.424 . S
C157 H149 0.951 . S
C157 C156 1.424 . S
C157 C158 1.347 . S
C158 H150 0.951 . S
C158 C153 1.429 . S
C158 C157 1.347 . S
H159 C160 0.951 . S
C160 H159 0.951 . S
C160 C166 1.265 . S
H161 C166 0.950 . S
H162 C170 0.949 . S
H163 C171 0.950 1_655 S
H164 C172 0.951 . S
H165 C173 0.951 . S
C166 C160 1.265 . S
C166 H161 0.950 . S
C166 C167 1.478 . S
C167 C154 1.394 1_455 S
C167 C166 1.478 . S
C167 C168 1.397 . S
C168 C167 1.397 . S
C168 C169 1.438 1_455 S
C168 C173 1.429 . S
C169 C152 1.394 . S
C169 C168 1.438 1_655 S
C169 C170 1.428 . S
C170 H162 0.949 . S
C170 C169 1.428 . S
C170 C171 1.345 1_655 S
C171 H163 0.950 1_455 S
C171 C170 1.345 1_455 S
C171 C172 1.424 . S
C172 H164 0.951 . S
C172 C171 1.424 . S
C172 C173 1.347 . S
C173 H165 0.951 . S
C173 C168 1.429 . S
C173 C172 1.347 . S
H174 C175 0.951 . S
C175 H174 0.951 . S
C175 C181 1.265 . S
H176 C181 0.950 . S
H177 C185 0.949 1_556 S
H178 C186 0.950 . S
H179 C187 0.951 1_565 S
H180 C188 0.951 . S
C181 C175 1.265 . S
C181 H176 0.950 . S
C181 C182 1.478 . S
C182 C181 1.478 . S
C182 C183 1.397 . S
C182 C199 1.394 . S
C183 C182 1.397 . S
C183 C184 1.453 1_565 S
C183 C188 1.429 . S
C184 C183 1.453 1_545 S
C184 C185 1.428 . S
C184 C197 1.379 1_554 S
C185 H177 0.949 1_554 S
C185 C184 1.428 . S
C185 C186 1.345 . S
C186 H178 0.950 . S
C186 C185 1.345 . S
C186 C187 1.424 . S
C187 H179 0.951 1_545 S
C187 C186 1.424 . S
C187 C188 1.347 1_545 S
C188 H180 0.951 . S
C188 C183 1.429 . S
C188 C187 1.347 1_565 S
H189 C190 0.951 . S
C190 H189 0.951 . S
C190 C196 1.265 . S
H191 C196 0.950 . S
H192 C200 0.970 . S
H193 C201 0.950 . S
H194 C202 0.951 . S
H195 C203 0.951 . S
C196 C190 1.265 . S
C196 H191 0.950 . S
C196 C197 1.478 . S
C197 C184 1.379 1_556 S
C197 C196 1.478 . S
C197 C198 1.397 1_545 S
C198 C197 1.397 1_565 S
C198 C199 1.438 1_556 S
C198 C203 1.429 1_565 S
C199 C182 1.394 . S
C199 C198 1.438 1_554 S
C199 C200 1.429 . S
C200 H192 0.970 . S
C200 C199 1.429 . S
C200 C201 1.325 1_554 S
C201 H193 0.950 . S
C201 C200 1.325 1_556 S
C201 C202 1.424 . S
C202 H194 0.951 . S
C202 C201 1.424 . S
C202 C203 1.347 1_565 S
C203 H195 0.951 . S
C203 C198 1.429 1_545 S
C203 C202 1.347 1_545 S
H204 C205 0.951 . S
C205 H204 0.951 . S
C205 C211 1.265 . S
H206 C211 0.950 . S
H207 C215 0.949 . S
H208 C216 0.950 . S
H209 C217 0.951 . S
H210 C218 0.951 . S
C211 C205 1.265 . S
C211 H206 0.950 . S
C211 C212 1.478 . S
C212 C211 1.478 . S
C212 C213 1.397 . S
C212 C229 1.394 . S
C213 C212 1.397 . S
C213 C214 1.438 . S
C213 C218 1.429 . S
C214 C213 1.438 . S
C214 C215 1.428 . S
C214 C227 1.394 . S
C215 H207 0.949 . S
C215 C214 1.428 . S
C215 C216 1.345 . S
C216 H208 0.950 . S
C216 C215 1.345 . S
C216 C217 1.424 . S
C217 H209 0.951 . S
C217 C216 1.424 . S
C217 C218 1.347 . S
C218 H210 0.951 . S
C218 C213 1.429 . S
C218 C217 1.347 . S
H219 C220 0.951 . S
C220 H219 0.951 . S
C220 C226 1.265 . S
H221 C226 0.950 . S
H222 C230 0.949 . S
H223 C231 0.950 . S
H224 C232 0.951 . S
H225 C233 0.951 . S
C226 C220 1.265 . S
C226 H221 0.950 . S
C226 C227 1.478 . S
C227 C214 1.394 . S
C227 C226 1.478 . S
C227 C228 1.397 . S
C228 C227 1.397 . S
C228 C229 1.438 . S
C228 C233 1.429 . S
C229 C212 1.394 . S
C229 C228 1.438 . S
C229 C230 1.428 . S
C230 H222 0.949 . S
C230 C229 1.428 . S
C230 C231 1.345 . S
C231 H223 0.950 . S
C231 C230 1.345 . S
C231 C232 1.424 . S
C232 H224 0.951 . S
C232 C231 1.424 . S
C232 C233 1.347 . S
C233 H225 0.951 . S
C233 C228 1.429 . S
C233 C232 1.347 . S
H234 C235 0.951 . S
C235 H234 0.951 . S
C235 C241 1.265 . S
H236 C241 0.950 . S
H237 C245 0.949 . S
H238 C246 0.950 . S
H239 C247 0.951 . S
H240 C248 0.951 . S
C241 C235 1.265 . S
C241 H236 0.950 . S
C241 C242 1.478 . S
C242 C241 1.478 . S
C242 C243 1.397 . S
C242 C259 1.394 . S
C243 C242 1.397 . S
C243 C244 1.438 1_455 S
C243 C248 1.429 . S
C244 C243 1.438 1_655 S
C244 C245 1.428 . S
C244 C257 1.394 . S
C245 H237 0.949 . S
C245 C244 1.428 . S
C245 C246 1.345 . S
C246 H238 0.950 . S
C246 C245 1.345 . S
C246 C247 1.424 1_655 S
C247 H239 0.951 . S
C247 C246 1.424 1_455 S
C247 C248 1.347 . S
C248 H240 0.951 . S
C248 C243 1.429 . S
C248 C247 1.347 . S
H249 C250 0.951 . S
C250 H249 0.951 . S
C250 C256 1.265 . S
H251 C256 0.950 . S
H252 C260 0.949 . S
H253 C261 0.950 . S
H254 C262 0.951 . S
H255 C263 0.951 . S
C256 C250 1.265 . S
C256 H251 0.950 . S
C256 C257 1.478 . S
C257 C244 1.394 . S
C257 C256 1.478 . S
C257 C258 1.397 . S
C258 C257 1.397 . S
C258 C259 1.438 1_655 S
C258 C263 1.429 . S
C259 C242 1.394 . S
C259 C258 1.438 1_455 S
C259 C260 1.428 . S
C260 H252 0.949 . S
C260 C259 1.428 . S
C260 C261 1.345 . S
C261 H253 0.950 . S
C261 C260 1.345 . S
C261 C262 1.424 1_455 S
C262 H254 0.951 . S
C262 C261 1.424 1_655 S
C262 C263 1.347 . S
C263 H255 0.951 . S
C263 C258 1.429 . S
C263 C262 1.347 . S
H264 C265 0.951 . S
C265 H264 0.951 . S
C265 C271 1.265 . S
H266 C271 0.950 . S
H267 C275 0.949 . S
H268 C276 0.950 . S
H269 C277 0.951 . S
H270 C278 0.951 . S
C271 C265 1.265 . S
C271 H266 0.950 . S
C271 C272 1.478 . S
C272 C271 1.478 . S
C272 C273 1.397 . S
C272 C289 1.394 . S
C273 C272 1.397 . S
C273 C274 1.438 . S
C273 C278 1.429 . S
C274 C273 1.438 . S
C274 C275 1.428 . S
C274 C287 1.394 . S
C275 H267 0.949 . S
C275 C274 1.428 . S
C275 C276 1.345 . S
C276 H268 0.950 . S
C276 C275 1.345 . S
C276 C277 1.424 . S
C277 H269 0.951 . S
C277 C276 1.424 . S
C277 C278 1.347 . S
C278 H270 0.951 . S
C278 C273 1.429 . S
C278 C277 1.347 . S
H279 C280 0.951 . S
C280 H279 0.951 . S
C280 C286 1.265 . S
H281 C286 0.950 . S
H282 C290 0.949 . S
H283 C291 0.950 . S
H284 C292 0.951 . S
H285 C293 0.951 . S
C286 C280 1.265 . S
C286 H281 0.950 . S
C286 C287 1.478 . S
C287 C274 1.394 . S
C287 C286 1.478 . S
C287 C288 1.397 . S
C288 C287 1.397 . S
C288 C289 1.438 . S
C288 C293 1.429 . S
C289 C272 1.394 . S
C289 C288 1.438 . S
C289 C290 1.428 . S
C290 H282 0.949 . S
C290 C289 1.428 . S
C290 C291 1.345 . S
C291 H283 0.950 . S
C291 C290 1.345 . S
C291 C292 1.424 . S
C292 H284 0.951 . S
C292 C291 1.424 . S
C292 C293 1.347 . S
C293 H285 0.951 . S
C293 C288 1.429 . S
C293 C292 1.347 . S
H294 C295 0.951 . S
C295 H294 0.951 . S
C295 C301 1.265 . S
H296 C301 0.950 . S
H297 C305 0.949 . S
H298 C306 0.950 . S
H299 C307 0.951 . S
H300 C308 0.951 . S
C301 C295 1.265 . S
C301 H296 0.950 . S
C301 C302 1.478 . S
C302 C301 1.478 . S
C302 C303 1.397 . S
C302 C319 1.394 . S
C303 C302 1.397 . S
C303 C304 1.438 . S
C303 C308 1.429 . S
C304 C303 1.438 . S
C304 C305 1.428 . S
C304 C317 1.394 . S
C305 H297 0.949 . S
C305 C304 1.428 . S
C305 C306 1.345 . S
C306 H298 0.950 . S
C306 C305 1.345 . S
C306 C307 1.424 . S
C307 H299 0.951 . S
C307 C306 1.424 . S
C307 C308 1.347 . S
C308 H300 0.951 . S
C308 C303 1.429 . S
C308 C307 1.347 . S
H309 C310 0.951 . S
C310 H309 0.951 . S
C310 C316 1.265 . S
H311 C316 0.950 . S
H312 C320 0.949 . S
H313 C321 0.950 . S
H314 C322 0.951 . S
H315 C323 0.951 . S
C316 C310 1.265 . S
C316 H311 0.950 . S
C316 C317 1.478 . S
C317 C304 1.394 . S
C317 C316 1.478 . S
C317 C318 1.397 . S
C318 C317 1.397 . S
C318 C319 1.438 . S
C318 C323 1.429 . S
C319 C302 1.394 . S
C319 C318 1.438 . S
C319 C320 1.428 . S
C320 H312 0.949 . S
C320 C319 1.428 . S
C320 C321 1.345 . S
C321 H313 0.950 . S
C321 C320 1.345 . S
C321 C322 1.424 . S
C322 H314 0.951 . S
C322 C321 1.424 . S
C322 C323 1.347 . S
C323 H315 0.951 . S
C323 C318 1.429 . S
C323 C322 1.347 . S
H324 C325 0.951 . S
C325 H324 0.951 . S
C325 C331 1.265 . S
H326 C331 0.950 . S
H327 C335 0.949 . S
H328 C336 0.950 . S
H329 C337 0.951 . S
H330 C338 0.951 . S
C331 C325 1.265 . S
C331 H326 0.950 . S
C331 C332 1.478 . S
C332 C331 1.478 . S
C332 C333 1.397 . S
C332 C349 1.394 . S
C333 C332 1.397 . S
C333 C334 1.438 . S
C333 C338 1.429 . S
C334 C333 1.438 . S
C334 C335 1.428 . S
C334 C347 1.394 . S
C335 H327 0.949 . S
C335 C334 1.428 . S
C335 C336 1.345 . S
C336 H328 0.950 . S
C336 C335 1.345 . S
C336 C337 1.424 . S
C337 H329 0.951 . S
C337 C336 1.424 . S
C337 C338 1.347 . S
C338 H330 0.951 . S
C338 C333 1.429 . S
C338 C337 1.347 . S
H339 C340 0.951 . S
C340 H339 0.951 . S
C340 C346 1.265 . S
H341 C346 0.950 . S
H342 C350 0.949 . S
H343 C351 0.950 . S
H344 C352 0.951 . S
H345 C353 0.951 . S
C346 C340 1.265 . S
C346 H341 0.950 . S
C346 C347 1.478 . S
C347 C334 1.394 . S
C347 C346 1.478 . S
C347 C348 1.397 . S
C348 C347 1.397 . S
C348 C349 1.438 . S
C348 C353 1.429 . S
C349 C332 1.394 . S
C349 C348 1.438 . S
C349 C350 1.428 . S
C350 H342 0.949 . S
C350 C349 1.428 . S
C350 C351 1.345 . S
C351 H343 0.950 . S
C351 C350 1.345 . S
C351 C352 1.424 . S
C352 H344 0.951 . S
C352 C351 1.424 . S
C352 C353 1.347 . S
C353 H345 0.951 . S
C353 C348 1.429 . S
C353 C352 1.347 . S
H354 C355 0.951 . S
C355 H354 0.951 . S
C355 C361 1.265 . S
H356 C361 0.950 . S
H357 C365 0.949 . S
H358 C366 0.950 . S
H359 C367 0.951 . S
H360 C368 0.951 . S
C361 C355 1.265 . S
C361 H356 0.950 . S
C361 C362 1.478 . S
C362 C361 1.478 . S
C362 C363 1.397 . S
C362 C379 1.394 . S
C363 C362 1.397 . S
C363 C364 1.438 . S
C363 C368 1.429 . S
C364 C363 1.438 . S
C364 C365 1.428 . S
C364 C377 1.394 . S
C365 H357 0.949 . S
C365 C364 1.428 . S
C365 C366 1.345 . S
C366 H358 0.950 . S
C366 C365 1.345 . S
C366 C367 1.424 . S
C367 H359 0.951 . S
C367 C366 1.424 . S
C367 C368 1.347 . S
C368 H360 0.951 . S
C368 C363 1.429 . S
C368 C367 1.347 . S
H369 C370 0.951 . S
C370 H369 0.951 . S
C370 C376 1.265 . S
H371 C376 0.950 1_554 S
H372 C380 0.949 . S
H373 C381 0.950 . S
H374 C382 0.951 . S
H375 C383 0.951 . S
C376 C370 1.265 . S
C376 H371 0.950 1_556 S
C376 C377 1.478 . S
C377 C364 1.394 . S
C377 C376 1.478 . S
C377 C378 1.397 . S
C378 C377 1.397 . S
C378 C379 1.438 . S
C378 C383 1.429 . S
C379 C362 1.394 . S
C379 C378 1.438 . S
C379 C380 1.428 . S
C380 H372 0.949 . S
C380 C379 1.428 . S
C380 C381 1.345 . S
C381 H373 0.950 . S
C381 C380 1.345 . S
C381 C382 1.424 . S
C382 H374 0.951 . S
C382 C381 1.424 . S
C382 C383 1.347 . S
C383 H375 0.951 . S
C383 C378 1.429 . S
C383 C382 1.347 . S
H384 C385 0.951 . S
C385 H384 0.951 . S
C385 C391 1.265 . S
H386 C391 0.950 . S
H387 C395 0.949 . S
H388 C396 0.950 . S
H389 C397 0.951 1_556 S
H390 C398 0.951 1_556 S
C391 C385 1.265 . S
C391 H386 0.950 . S
C391 C392 1.478 . S
C392 C391 1.478 . S
C392 C393 1.397 . S
C392 C409 1.394 . S
C393 C392 1.397 . S
C393 C394 1.438 . S
C393 C398 1.429 . S
C394 C393 1.438 . S
C394 C395 1.428 . S
C394 C407 1.394 . S
C395 H387 0.949 . S
C395 C394 1.428 . S
C395 C396 1.345 . S
C396 H388 0.950 . S
C396 C395 1.345 . S
C396 C397 1.424 . S
C397 H389 0.951 1_554 S
C397 C396 1.424 . S
C397 C398 1.347 . S
C398 H390 0.951 1_554 S
C398 C393 1.429 . S
C398 C397 1.347 . S
H399 C400 0.951 . S
C400 H399 0.951 . S
C400 C406 1.265 . S
H401 C406 0.950 . S
H402 C410 0.949 . S
H403 C411 0.950 . S
H404 C412 0.951 . S
H405 C413 0.951 . S
C406 C400 1.265 . S
C406 H401 0.950 . S
C406 C407 1.478 . S
C407 C394 1.394 . S
C407 C406 1.478 . S
C407 C408 1.397 . S
C408 C407 1.397 . S
C408 C409 1.438 . S
C408 C413 1.429 . S
C409 C392 1.394 . S
C409 C408 1.438 . S
C409 C410 1.428 . S
C410 H402 0.949 . S
C410 C409 1.428 . S
C410 C411 1.345 . S
C411 H403 0.950 . S
C411 C410 1.345 . S
C411 C412 1.424 . S
C412 H404 0.951 . S
C412 C411 1.424 . S
C412 C413 1.347 . S
C413 H405 0.951 . S
C413 C408 1.429 . S
C413 C412 1.347 . S
H414 C415 0.951 . S
C415 H414 0.951 . S
C415 C421 1.265 . S
H416 C421 0.950 . S
H417 C425 0.949 . S
H418 C426 0.950 . S
H419 C427 0.951 . S
H420 C428 0.951 . S
C421 C415 1.265 . S
C421 H416 0.950 . S
C421 C422 1.478 . S
C422 C421 1.478 . S
C422 C423 1.397 . S
C422 C439 1.394 . S
C423 C422 1.397 . S
C423 C424 1.438 . S
C423 C428 1.429 . S
C424 C423 1.438 . S
C424 C425 1.428 . S
C424 C437 1.394 . S
C425 H417 0.949 . S
C425 C424 1.428 . S
C425 C426 1.345 . S
C426 H418 0.950 . S
C426 C425 1.345 . S
C426 C427 1.424 . S
C427 H419 0.951 . S
C427 C426 1.424 . S
C427 C428 1.347 . S
C428 H420 0.951 . S
C428 C423 1.429 . S
C428 C427 1.347 . S
H429 C430 0.951 . S
C430 H429 0.951 . S
C430 C436 1.265 . S
H431 C436 0.950 . S
H432 C440 0.949 . S
H433 C441 0.950 . S
H434 C442 0.951 . S
H435 C443 0.951 . S
C436 C430 1.265 . S
C436 H431 0.950 . S
C436 C437 1.478 . S
C437 C424 1.394 . S
C437 C436 1.478 . S
C437 C438 1.397 . S
C438 C437 1.397 . S
C438 C439 1.438 . S
C438 C443 1.429 . S
C439 C422 1.394 . S
C439 C438 1.438 . S
C439 C440 1.428 . S
C440 H432 0.949 . S
C440 C439 1.428 . S
C440 C441 1.345 . S
C441 H433 0.950 . S
C441 C440 1.345 . S
C441 C442 1.424 . S
C442 H434 0.951 . S
C442 C441 1.424 . S
C442 C443 1.347 . S
C443 H435 0.951 . S
C443 C438 1.429 . S
C443 C442 1.347 . S
C85 C5 1.600 . S
C100 C81 1.609 . S
C115 C11 1.610 . S
C130 C19 1.603 . S
C145 C33 1.604 . S
C160 C25 1.583 . S
C175 C47 1.597 . S
C190 C39 1.587 . S
C205 C61 1.599 . S
C220 C53 1.608 . S
C235 C75 1.599 . S
C250 C67 1.580 . S
C265 C0 1.459 . S
C280 C65 1.443 . S
C295 C79 1.458 . S
C310 C14 1.419 . S
C325 C28 1.433 . S
C340 C9 1.456 . S
C355 C23 1.436 . S
C370 C42 1.445 1_556 S
C385 C37 1.437 1_554 S
C400 C56 1.459 . S
C415 C70 1.444 . S
C430 C51 1.436 . S
