# Generated by pormake.
# Topology sqp, (5)-cn, num edge types: 1
# Building blocks:
#     Node 0, Type 0, BuildingBlock: BEQFEK_clean_sbu_0, # of connection points: 5
#     Node 1, Type 0, BuildingBlock: BEQFEK_clean_sbu_0, # of connection points: 5
#     Node 2, Type 0, BuildingBlock: BEQFEK_clean_sbu_0, # of connection points: 5
#     Node 3, Type 0, BuildingBlock: BEQFEK_clean_sbu_0, # of connection points: 5
#     Edge 4, Type (0, 0), BuildingBlock: FUNLAD_clean_linker_0, # of connection points: 2
#     Edge 5, Type (0, 0), BuildingBlock: FUNLAD_clean_linker_0, # of connection points: 2
#     Edge 6, Type (0, 0), BuildingBlock: FUNLAD_clean_linker_0, # of connection points: 2
#     Edge 7, Type (0, 0), BuildingBlock: FUNLAD_clean_linker_0, # of connection points: 2
#     Edge 8, Type (0, 0), BuildingBlock: FUNLAD_clean_linker_0, # of connection points: 2
#     Edge 9, Type (0, 0), BuildingBlock: FUNLAD_clean_linker_0, # of connection points: 2
#     Edge 10, Type (0, 0), BuildingBlock: FUNLAD_clean_linker_0, # of connection points: 2
#     Edge 11, Type (0, 0), BuildingBlock: FUNLAD_clean_linker_0, # of connection points: 2
#     Edge 12, Type (0, 0), BuildingBlock: FUNLAD_clean_linker_0, # of connection points: 2
#     Edge 13, Type (0, 0), BuildingBlock: FUNLAD_clean_linker_0, # of connection points: 2
# Relax obj value: 0.030
# Max RMSD: 0.083
# Mean RMSD: 0.083
data_MOF--net-sqp--node1-BEQFEK_clean_sbu_0--edge1-FUNLAD_clean_linker_0
_symmetry_space_group_name_H-M    P1
_symmetry_Int_Tables_number       1
_symmetry_cell_setting            triclinic
loop_
_symmetry_equiv_pos_as_xyz
'x, y, z'
_cell_length_a     28.025059
_cell_length_b     28.010589
_cell_length_c     44.515281
_cell_angle_alpha  98.429206
_cell_angle_beta   97.871876
_cell_angle_gamma 100.504
loop_
_atom_site_label
_atom_site_type_symbol
_atom_site_fract_x
_atom_site_fract_y
_atom_site_fract_z
_atom_type_partial_charge
Co0 Co 0.043 0.96061 0.29617 0.0
Co1 Co 0.97931 0.04208 0.30286 0.0
C2 C 0.93268 0.94032 0.27234 0.0
O3 O 0.9739 0.92722 0.27753 0.0
O4 O 0.92901 0.98499 0.27992 0.0
C5 C 0.0779 0.88595 0.2598 0.0
O6 O 0.03831 0.88636 0.24034 0.0
C7 C 0.91842 0.11528 0.29069 0.0
C8 C 0.94375 0.17055 0.33344 0.0
C9 C 0.91241 0.16067 0.30536 0.0
N10 N 0.95197 0.09951 0.30928 0.0
N11 N 0.96654 0.1325 0.33488 0.0
C12 C 0.89596 0.08895 0.25878 0.0
H13 H 0.91961 0.06436 0.24979 0.0
H14 H 0.89059 0.11573 0.24318 0.0
H15 H 0.85954 0.0659 0.25937 0.0
C16 C 0.10322 0.03819 0.27023 0.0
N17 N 0.06256 0.02035 0.28142 0.0
N18 N 0.03519 0.05383 0.28337 0.0
C19 C 0.0573 0.09384 0.27321 0.0
C20 C 0.10109 0.08522 0.26451 0.0
C21 C 0.14373 0.01099 0.26587 0.0
H22 H 0.12931 0.97776 0.24783 0.0
H23 H 0.1753 0.03401 0.25872 0.0
H24 H 0.15628 0.99853 0.28759 0.0
O25 O 0.0466 0.97343 0.3416 0.0
O26 O 0.99883 0.02839 0.3444 0.0
H27 H 0.06442 0.17015 0.26677 0.0
H28 H 0.00232 0.13469 0.26115 0.0
C29 C 0.03957 0.14132 0.2751 0.0
H30 H 0.03713 0.15511 0.29935 0.0
H31 H 0.99281 0.12945 0.35313 0.0
O32 O 0.08732 0.9149 0.28565 0.0
C33 C 0.02486 0.0019 0.35726 0.0
Co34 Co 0.0644 0.9834 0.6987 0.0
Co35 Co 0.98753 0.05141 0.68755 0.0
C36 C 0.08938 0.09388 0.72105 0.0
O37 O 0.10089 0.05162 0.71795 0.0
O38 O 0.04612 0.09888 0.71109 0.0
C39 C 0.15 0.94639 0.72106 0.0
O40 O 0.17235 0.99301 0.7261 0.0
C41 C 0.91825 0.11847 0.69879 0.0
C42 C 0.87025 0.1023 0.65327 0.0
C43 C 0.87765 0.13074 0.68236 0.0
N44 N 0.93362 0.08396 0.68025 0.0
N45 N 0.90473 0.07463 0.6531 0.0
C46 C 0.94317 0.14044 0.73107 0.0
H47 H 0.98161 0.13531 0.73488 0.0
H48 H 0.92332 0.12173 0.74742 0.0
H49 H 0.94254 0.18031 0.73606 0.0
C50 C 0.97977 0.92676 0.72028 0.0
N51 N 0.00186 0.96759 0.71093 0.0
N52 N 0.97003 0.99623 0.7068 0.0
C53 C 0.92672 0.97464 0.71356 0.0
C54 C 0.93127 0.92976 0.72217 0.0
C55 C 0.003 0.88321 0.7232 0.0
H56 H 0.01781 0.87258 0.70189 0.0
H57 H 0.03438 0.89368 0.74264 0.0
H58 H 0.97656 0.85106 0.72713 0.0
O59 O 0.05601 0.97915 0.65342 0.0
O60 O 0.00345 0.02871 0.64661 0.0
H61 H 0.86825 0.99594 0.68593 0.0
H62 H 0.85143 0.97446 0.72023 0.0
C63 C 0.88126 0.99571 0.71058 0.0
H64 H 0.89004 0.0342 0.72311 0.0
H65 H 0.90865 0.04938 0.63436 0.0
O66 O 0.10443 0.93454 0.70971 0.0
C67 C 0.03044 0.00061 0.63593 0.0
Co68 Co 0.55255 0.46829 0.80097 0.0
Co69 Co 0.4854 0.5472 0.80439 0.0
C70 C 0.44399 0.4434 0.7738 0.0
O71 O 0.48601 0.43254 0.78005 0.0
O72 O 0.43773 0.48731 0.78117 0.0
C73 C 0.59391 0.39494 0.7682 0.0
O74 O 0.55632 0.39388 0.74677 0.0
C75 C 0.42457 0.61862 0.78725 0.0
C76 C 0.44257 0.6738 0.8302 0.0
C77 C 0.416 0.66373 0.80058 0.0
N78 N 0.45509 0.60319 0.80807 0.0
N79 N 0.4651 0.63608 0.83378 0.0
C80 C 0.40781 0.59264 0.75465 0.0
H81 H 0.43244 0.56739 0.74815 0.0
H82 H 0.40694 0.61969 0.73879 0.0
H83 H 0.37002 0.57045 0.75242 0.0
C84 C 0.61464 0.5468 0.7776 0.0
N85 N 0.57212 0.52782 0.78637 0.0
N86 N 0.54402 0.56072 0.78718 0.0
C87 C 0.56792 0.60179 0.77883 0.0
C88 C 0.61349 0.59431 0.77255 0.0
C89 C 0.65617 0.52033 0.77522 0.0
H90 H 0.66761 0.50931 0.79762 0.0
H91 H 0.64327 0.48632 0.75764 0.0
H92 H 0.68819 0.5432 0.76842 0.0
O93 O 0.55147 0.48209 0.84576 0.0
O94 O 0.50268 0.53628 0.84701 0.0
H95 H 0.54386 0.66104 0.80439 0.0
H96 H 0.57693 0.67907 0.77456 0.0
C97 C 0.55016 0.64923 0.78065 0.0
H98 H 0.51472 0.64339 0.76476 0.0
H99 H 0.4885 0.63344 0.85355 0.0
O100 O 0.59965 0.42435 0.79366 0.0
C101 C 0.52867 0.51044 0.86061 0.0
Co102 Co 0.55827 0.47349 0.19631 0.0
Co103 Co 0.48078 0.54148 0.18941 0.0
C104 C 0.58558 0.58294 0.21902 0.0
O105 O 0.59599 0.54031 0.21525 0.0
O106 O 0.54214 0.58897 0.21041 0.0
C107 C 0.62792 0.43027 0.2303 0.0
O108 O 0.62783 0.46723 0.25219 0.0
C109 C 0.41392 0.60827 0.20674 0.0
C110 C 0.36102 0.59513 0.1633 0.0
C111 C 0.37193 0.62187 0.19301 0.0
N112 N 0.42671 0.57471 0.18609 0.0
N113 N 0.39487 0.56715 0.16021 0.0
C114 C 0.44262 0.62815 0.23841 0.0
H115 H 0.48079 0.62225 0.23987 0.0
H116 H 0.425 0.60851 0.25523 0.0
H117 H 0.44303 0.66807 0.24481 0.0
C118 C 0.47942 0.41713 0.22243 0.0
N119 N 0.49894 0.45766 0.21182 0.0
N120 N 0.46635 0.48587 0.20918 0.0
C121 C 0.42486 0.46396 0.21804 0.0
C122 C 0.43186 0.41978 0.22682 0.0
C123 C 0.50346 0.3738 0.22413 0.0
H124 H 0.51926 0.36531 0.20294 0.0
H125 H 0.5339 0.38323 0.24412 0.0
H126 H 0.4772 0.3405 0.22671 0.0
O127 O 0.54411 0.47005 0.15133 0.0
O128 O 0.49011 0.51864 0.14668 0.0
H129 H 0.36457 0.4854 0.19228 0.0
H130 H 0.34976 0.46061 0.22602 0.0
C131 C 0.37859 0.48366 0.21655 0.0
H132 H 0.38678 0.52154 0.23001 0.0
H133 H 0.39636 0.54294 0.14034 0.0
O134 O 0.60065 0.42584 0.20437 0.0
C135 C 0.51613 0.49059 0.13475 0.0
C136 C 0.0516 0.97159 0.4062 0.0
C137 C 0.02669 0.00256 0.39072 0.0
C138 C 0.04941 0.9701 0.43734 0.0
C139 C 0.02216 -0.00041 0.45341 0.0
C140 C 0.99809 0.03093 0.43799 0.0
C141 C 1.00054 0.03269 0.40717 0.0
C142 C 0.01589 0.99796 0.4858 0.0
C143 C 0.04787 0.98464 0.50682 0.0
C144 C 0.04194 0.98804 0.53973 0.0
C145 C 0.06417 0.95859 0.55796 0.0
C146 C 0.06001 0.96193 0.58915 0.0
C147 C 0.03361 0.995 0.60272 0.0
H148 H 1.00026 0.04663 0.54089 0.0
C149 C 0.01164 0.0246 0.58449 0.0
C150 C 0.01612 0.02156 0.55353 0.0
H151 H 0.99173 0.0511 0.59425 0.0
H152 H 0.07183 0.94773 0.39414 0.0
H153 H 0.06772 0.9448 0.44831 0.0
H154 H 0.97692 0.05408 0.44982 0.0
H155 H 0.98092 0.05709 0.39611 0.0
H156 H 0.98369 0.01003 0.49264 0.0
H157 H 0.0796 0.97144 0.50007 0.0
H158 H 0.08478 0.93291 0.54804 0.0
H159 H 0.07766 0.93881 0.60262 0.0
C160 C 0.48864 0.50968 0.08274 0.0
C161 C 0.5159 0.48397 0.10113 0.0
C162 C 0.49134 0.50655 0.05147 0.0
C163 C 0.52158 0.47775 0.03792 0.0
C164 C 0.54707 0.45032 0.05592 0.0
C165 C 0.54455 0.4536 0.08727 0.0
C166 C 0.52692 0.47538 0.00507 0.0
C167 C 0.52397 0.51372 0.99035 0.0
C168 C 0.52762 0.51257 0.95732 0.0
C169 C 0.5073 0.54653 0.94214 0.0
C170 C 0.50842 0.54629 0.91092 0.0
C171 C 0.53039 0.51229 0.89413 0.0
H172 H 0.56844 0.45364 0.95185 0.0
C173 C 0.5522 0.47924 0.90949 0.0
C174 C 0.55088 0.47935 0.9408 0.0
H175 H 0.56974 0.45281 0.89727 0.0
H176 H 0.4657 0.53291 0.09256 0.0
H177 H 0.46955 0.52662 0.03803 0.0
H178 H 0.57001 0.4273 0.04589 0.0
H179 H 0.56571 0.43296 0.1007 0.0
H180 H 0.53443 0.44156 0.99322 0.0
H181 H 0.51722 0.54754 0.0028 0.0
H182 H 0.48962 0.57287 0.95436 0.0
H183 H 0.49156 0.57255 0.89991 0.0
C184 C 0.18575 0.13732 0.27548 0.0
C185 C 0.13993 0.12151 0.25617 0.0
C186 C 0.22081 0.17551 0.26947 0.0
C187 C 0.21067 0.19839 0.2438 0.0
C188 C 0.16493 0.18156 0.22424 0.0
C189 C 0.1299 0.14349 0.23035 0.0
C190 C 0.24521 0.24131 0.23731 0.0
C191 C 0.29313 0.25531 0.25026 0.0
C192 C 0.32689 0.29903 0.24412 0.0
C193 C 0.37038 0.31943 0.26533 0.0
C194 C 0.40393 0.35955 0.26011 0.0
C195 C 0.39468 0.37996 0.23352 0.0
H196 H 0.28582 0.30428 0.19987 0.0
C197 C 0.35138 0.35987 0.21226 0.0
C198 C 0.31783 0.31968 0.2174 0.0
H199 H 0.34419 0.37437 0.1912 0.0
H200 H 0.19376 0.12131 0.29585 0.0
H201 H 0.2548 0.18773 0.2857 0.0
H202 H 0.15591 0.19844 0.20437 0.0
H203 H 0.09454 0.13189 0.21528 0.0
H204 H 0.22976 0.26242 0.22132 0.0
H205 H 0.30879 0.23471 0.26647 0.0
H206 H 0.37855 0.30414 0.28598 0.0
H207 H 0.43741 0.37432 0.27665 0.0
C208 C 0.83394 0.17614 0.27734 0.0
C209 C 0.88151 0.19421 0.29435 0.0
C210 C 0.80398 0.20874 0.26927 0.0
C211 C 0.82124 0.26015 0.27797 0.0
C212 C 0.86901 0.27789 0.29469 0.0
C213 C 0.89872 0.24539 0.30284 0.0
C214 C 0.79022 0.29664 0.27185 0.0
C215 C 0.74798 0.28663 0.25143 0.0
C216 C 0.71759 0.32407 0.24658 0.0
C217 C 0.68677 0.31885 0.21815 0.0
C218 C 0.65772 0.35335 0.2128 0.0
C219 C 0.65855 0.39365 0.23593 0.0
H220 H 0.73948 0.36834 0.29256 0.0
C221 C 0.68868 0.3984 0.26458 0.0
C222 C 0.71771 0.36393 0.26993 0.0
H223 H 0.68974 0.42867 0.28302 0.0
H224 H 0.81905 0.13689 0.27132 0.0
H225 H 0.76698 0.19323 0.25717 0.0
H226 H 0.8833 0.31718 0.30187 0.0
H227 H 0.9352 0.26042 0.31604 0.0
H228 H 0.80387 0.33405 0.28438 0.0
H229 H 0.73601 0.25071 0.23674 0.0
H230 H 0.68548 0.28822 0.1999 0.0
H231 H 0.63461 0.34838 0.19052 0.0
C232 C 0.61915 0.67432 0.22837 0.0
C233 C 0.62606 0.62647 0.23086 0.0
C234 C 0.65912 0.71449 0.23577 0.0
C235 C 0.70683 0.70752 0.24586 0.0
C236 C 0.71307 0.66016 0.24992 0.0
C237 C 0.6733 0.62007 0.24238 0.0
C238 C 0.75124 0.748 0.25217 0.0
C239 C 0.75423 0.79 0.24046 0.0
C240 C 0.80047 0.82802 0.24611 0.0
C241 C 0.798 0.87796 0.24824 0.0
C242 C 0.84104 0.91462 0.25555 0.0
C243 C 0.88746 0.9019 0.26042 0.0
H244 H 0.85027 0.77697 0.24651 0.0
C245 C 0.88989 0.85172 0.25638 0.0
C246 C 0.84692 0.8152 0.2493 0.0
H247 H 0.92497 0.8405 0.25956 0.0
H248 H 0.58315 0.6806 0.21979 0.0
H249 H 0.65233 0.75062 0.23335 0.0
H250 H 0.74922 0.65378 0.25807 0.0
H251 H 0.67992 0.58382 0.24486 0.0
H252 H 0.78365 0.74185 0.26626 0.0
H253 H 0.72219 0.79753 0.22683 0.0
H254 H 0.76265 0.88873 0.24532 0.0
H255 H 0.83781 0.95291 0.25824 0.0
C256 C 0.15692 0.85622 0.27039 0.0
C257 C 0.11217 0.85388 0.25101 0.0
C258 C 0.18977 0.82685 0.2615 0.0
C259 C 0.17837 0.79422 0.23305 0.0
C260 C 0.13362 0.79201 0.21379 0.0
C261 C 0.10088 0.82133 0.22266 0.0
C262 C 0.2125 0.76332 0.22184 0.0
C263 C 0.25 0.75208 0.24003 0.0
C264 C 0.28274 0.72028 0.2279 0.0
C265 C 0.30598 0.69331 0.24751 0.0
C266 C 0.3357 0.66186 0.23654 0.0
C267 C 0.34336 0.6573 0.2058 0.0
H268 H 0.27575 0.73798 0.18173 0.0
C269 C 0.32101 0.68511 0.18639 0.0
C270 C 0.29141 0.71653 0.19732 0.0
H271 H 0.3265 0.68265 0.16263 0.0
H272 H 0.16694 0.88127 0.29228 0.0
H273 H 0.22433 0.83081 0.27673 0.0
H274 H 0.1239 0.76752 0.19168 0.0
H275 H 0.06682 0.81861 0.20712 0.0
H276 H 0.20476 0.74739 0.19749 0.0
H277 H 0.25543 0.76398 0.26479 0.0
H278 H 0.30014 0.69561 0.2712 0.0
H279 H 0.35115 0.64 0.25191 0.0
C280 C 0.34244 0.68049 0.76765 0.0
C281 C 0.38852 0.69771 0.78673 0.0
C282 C 0.31565 0.71391 0.75669 0.0
C283 C 0.33478 0.76508 0.76453 0.0
C284 C 0.38145 0.78188 0.78283 0.0
C285 C 0.40774 0.74868 0.79409 0.0
C286 C 0.30777 0.80239 0.75423 0.0
C287 C 0.25826 0.79575 0.74892 0.0
C288 C 0.23157 0.83517 0.74158 0.0
C289 C 0.18185 0.82176 0.72757 0.0
C290 C 0.15524 0.85773 0.72091 0.0
C291 C 0.17777 0.90807 0.72826 0.0
H292 H 0.29131 0.89812 0.76133 0.0
C293 C 0.22728 0.92158 0.74264 0.0
C294 C 0.2538 0.8857 0.7494 0.0
H295 H 0.24561 0.96004 0.74898 0.0
H296 H 0.32648 0.64142 0.76191 0.0
H297 H 0.28026 0.69954 0.74205 0.0
H298 H 0.39723 0.82102 0.78904 0.0
H299 H 0.44327 0.76298 0.80866 0.0
H300 H 0.3301 0.83757 0.75263 0.0
H301 H 0.23609 0.76035 0.75041 0.0
H302 H 0.16352 0.78326 0.72164 0.0
H303 H 0.11705 0.84602 0.70995 0.0
C304 C 0.17825 0.13613 0.73566 0.0
C305 C 0.12827 0.13877 0.73299 0.0
C306 C 0.21485 0.17915 0.74236 0.0
C307 C 0.20224 0.22578 0.74662 0.0
C308 C 0.15258 0.22835 0.74585 0.0
C309 C 0.1159 0.18535 0.73884 0.0
C310 C 0.24004 0.2722 0.75205 0.0
C311 C 0.28144 0.27571 0.73953 0.0
C312 C 0.32124 0.32072 0.74561 0.0
C313 C 0.36891 0.31518 0.74177 0.0
C314 C 0.40839 0.35555 0.74951 0.0
C315 C 0.40106 0.4027 0.76095 0.0
H316 H 0.27685 0.37456 0.75756 0.0
C317 C 0.35287 0.40896 0.76295 0.0
C318 C 0.3133 0.36837 0.7554 0.0
H319 H 0.34591 0.44486 0.77149 0.0
H320 H 0.18915 0.10091 0.73149 0.0
H321 H 0.25293 0.17571 0.744 0.0
H322 H 0.14198 0.26379 0.74959 0.0
H323 H 0.07778 0.18873 0.7372 0.0
H324 H 0.23276 0.30417 0.76621 0.0
H325 H 0.28768 0.24343 0.72507 0.0
H326 H 0.37601 0.27909 0.7338 0.0
H327 H 0.44495 0.34944 0.74738 0.0
C328 C 0.83464 0.17117 0.72197 0.0
C329 C 0.84711 0.1661 0.69233 0.0
C330 C 0.80278 0.20212 0.73018 0.0
C331 C 0.78281 0.22876 0.70884 0.0
C332 C 0.79559 0.22366 0.67929 0.0
C333 C 0.82722 0.19267 0.6711 0.0
C334 C 0.74638 0.2598 0.71555 0.0
C335 C 0.73852 0.27652 0.74406 0.0
C336 C 0.70082 0.30645 0.74977 0.0
C337 C 0.70688 0.33815 0.77816 0.0
C338 C 0.67217 0.36681 0.78426 0.0
C339 C 0.63032 0.36399 0.76216 0.0
H340 H 0.6513 0.27766 0.70618 0.0
C341 C 0.62373 0.33154 0.73399 0.0
C342 C 0.65841 0.30295 0.72789 0.0
H343 H 0.59166 0.32806 0.71658 0.0
H344 H 0.84773 0.14977 0.73847 0.0
H345 H 0.79277 0.20352 0.75285 0.0
H346 H 0.78057 0.24333 0.66226 0.0
H347 H 0.8359 0.18927 0.648 0.0
H348 H 0.72605 0.27036 0.69588 0.0
H349 H 0.76158 0.27008 0.76409 0.0
H350 H 0.73887 0.34118 0.79557 0.0
H351 H 0.67829 0.39132 0.80626 0.0
C352 C 0.64962 0.65537 0.74193 0.0
C353 C 0.65471 0.63154 0.76738 0.0
C354 C 0.68846 0.69124 0.73739 0.0
C355 C 0.73302 0.70427 0.75855 0.0
C356 C 0.73798 0.67972 0.78378 0.0
C357 C 0.69916 0.64387 0.78824 0.0
C358 C 0.77548 0.74234 0.75497 0.0
C359 C 0.77141 0.77774 0.73785 0.0
C360 C 0.81383 0.8158 0.73438 0.0
C361 C 0.81017 0.83804 0.70812 0.0
C362 C 0.84857 0.87464 0.70407 0.0
C363 C 0.8912 0.89035 0.72645 0.0
H364 H 0.86048 0.81647 0.77786 0.0
C365 C 0.89512 0.86845 0.75282 0.0
C366 C 0.85674 0.83155 0.75684 0.0
H367 H 0.92757 0.8804 0.77048 0.0
H368 H 0.61566 0.64597 0.72545 0.0
H369 H 0.6834 0.70785 0.71706 0.0
H370 H 0.77185 0.68868 0.80034 0.0
H371 H 0.70369 0.62608 0.80818 0.0
H372 H 0.81131 0.74124 0.76737 0.0
H373 H 0.73577 0.77899 0.72532 0.0
H374 H 0.77756 0.82682 0.69052 0.0
H375 H 0.84499 0.89066 0.68335 0.0
loop_
_geom_bond_atom_site_label_1
_geom_bond_atom_site_label_2
_geom_bond_distance
_geom_bond_site_symmetry_2
_ccdc_geom_bond_type
Co0 O3 1.970 1_455 S
Co0 N17 1.989 1_565 S
Co0 O25 1.967 . S
Co0 O32 1.920 . S
Co1 O4 1.966 1_545 S
Co1 N10 2.022 . S
Co1 N18 1.993 1_655 S
Co1 O26 1.941 . S
C2 O3 1.258 . S
C2 O4 1.263 . S
O3 Co0 1.970 1_655 S
O3 C2 1.258 . S
O4 Co1 1.966 1_565 S
O4 C2 1.263 . S
C5 O6 1.235 . S
C5 O32 1.289 . S
O6 C5 1.235 . S
C7 C9 1.400 . S
C7 N10 1.351 . S
C7 C12 1.501 . S
C8 C9 1.387 . S
C8 N11 1.341 . S
C9 C7 1.400 . S
C9 C8 1.387 . S
N10 Co1 2.022 . S
N10 C7 1.351 . S
N10 N11 1.365 . S
N11 C8 1.341 . S
N11 N10 1.365 . S
N11 H31 0.862 . S
C12 C7 1.501 . S
C12 H13 0.961 . S
C12 H14 0.961 . S
C12 H15 0.960 . S
H13 C12 0.961 . S
H14 C12 0.961 . S
H15 C12 0.960 . S
C16 N17 1.342 . S
C16 C20 1.401 . S
C16 C21 1.499 . S
N17 Co0 1.989 1_545 S
N17 C16 1.342 . S
N17 N18 1.388 . S
N18 Co1 1.993 1_455 S
N18 N17 1.388 . S
N18 C19 1.346 . S
C19 N18 1.346 . S
C19 C20 1.396 . S
C19 C29 1.510 . S
C20 C16 1.401 . S
C20 C19 1.396 . S
C21 C16 1.499 . S
C21 H22 0.959 . S
C21 H23 0.960 . S
C21 H24 0.961 . S
H22 C21 0.959 . S
H23 C21 0.960 . S
H24 C21 0.961 . S
O25 Co0 1.967 . S
O25 C33 1.258 1_565 S
O26 Co1 1.941 . S
O26 C33 1.266 1_655 S
H27 C29 0.959 . S
H28 C29 0.961 . S
C29 C19 1.510 . S
C29 H27 0.959 . S
C29 H28 0.961 . S
C29 H30 0.960 . S
H30 C29 0.960 . S
H31 N11 0.862 . S
O32 Co0 1.920 . S
O32 C5 1.289 . S
C33 O25 1.258 1_545 S
C33 O26 1.266 1_455 S
Co34 O37 1.970 1_565 S
Co34 N51 1.989 1_455 S
Co34 O59 1.967 . S
Co34 O66 1.920 . S
Co35 O38 1.966 1_655 S
Co35 N44 2.022 . S
Co35 N52 1.993 1_545 S
Co35 O60 1.941 . S
C36 O37 1.258 . S
C36 O38 1.263 . S
O37 Co34 1.970 1_545 S
O37 C36 1.258 . S
O38 Co35 1.966 1_455 S
O38 C36 1.263 . S
C39 O40 1.235 . S
C39 O66 1.289 . S
O40 C39 1.235 . S
C41 C43 1.400 . S
C41 N44 1.351 . S
C41 C46 1.501 . S
C42 C43 1.387 . S
C42 N45 1.341 . S
C43 C41 1.400 . S
C43 C42 1.387 . S
N44 Co35 2.022 . S
N44 C41 1.351 . S
N44 N45 1.365 . S
N45 C42 1.341 . S
N45 N44 1.365 . S
N45 H65 0.862 . S
C46 C41 1.501 . S
C46 H47 0.961 1_655 S
C46 H48 0.961 . S
C46 H49 0.960 . S
H47 C46 0.961 1_455 S
H48 C46 0.961 . S
H49 C46 0.960 . S
C50 N51 1.342 . S
C50 C54 1.401 . S
C50 C55 1.499 . S
N51 Co34 1.989 1_655 S
N51 C50 1.342 . S
N51 N52 1.388 . S
N52 Co35 1.993 1_565 S
N52 N51 1.388 . S
N52 C53 1.346 . S
C53 N52 1.346 . S
C53 C54 1.396 . S
C53 C63 1.510 . S
C54 C50 1.401 . S
C54 C53 1.396 . S
C55 C50 1.499 . S
C55 H56 0.959 1_655 S
C55 H57 0.960 . S
C55 H58 0.961 . S
H56 C55 0.959 1_455 S
H57 C55 0.960 . S
H58 C55 0.961 . S
O59 Co34 1.967 . S
O59 C67 1.258 1_565 S
O60 Co35 1.941 . S
O60 C67 1.266 1_655 S
H61 C63 0.959 . S
H62 C63 0.961 . S
C63 C53 1.510 . S
C63 H61 0.959 . S
C63 H62 0.961 . S
C63 H64 0.960 1_565 S
H64 C63 0.960 1_545 S
H65 N45 0.862 . S
O66 Co34 1.920 . S
O66 C39 1.289 . S
C67 O59 1.258 1_545 S
C67 O60 1.266 1_455 S
Co68 O71 1.970 . S
Co68 N85 1.989 . S
Co68 O93 1.967 . S
Co68 O100 1.920 . S
Co69 O72 1.966 . S
Co69 N78 2.022 . S
Co69 N86 1.993 . S
Co69 O94 1.941 . S
C70 O71 1.258 . S
C70 O72 1.263 . S
O71 Co68 1.970 . S
O71 C70 1.258 . S
O72 Co69 1.966 . S
O72 C70 1.263 . S
C73 O74 1.235 . S
C73 O100 1.289 . S
O74 C73 1.235 . S
C75 C77 1.400 . S
C75 N78 1.351 . S
C75 C80 1.501 . S
C76 C77 1.387 . S
C76 N79 1.341 . S
C77 C75 1.400 . S
C77 C76 1.387 . S
N78 Co69 2.022 . S
N78 C75 1.351 . S
N78 N79 1.365 . S
N79 C76 1.341 . S
N79 N78 1.365 . S
N79 H99 0.862 . S
C80 C75 1.501 . S
C80 H81 0.961 . S
C80 H82 0.961 . S
C80 H83 0.960 . S
H81 C80 0.961 . S
H82 C80 0.961 . S
H83 C80 0.960 . S
C84 N85 1.342 . S
C84 C88 1.401 . S
C84 C89 1.499 . S
N85 Co68 1.989 . S
N85 C84 1.342 . S
N85 N86 1.388 . S
N86 Co69 1.993 . S
N86 N85 1.388 . S
N86 C87 1.346 . S
C87 N86 1.346 . S
C87 C88 1.396 . S
C87 C97 1.510 . S
C88 C84 1.401 . S
C88 C87 1.396 . S
C89 C84 1.499 . S
C89 H90 0.959 . S
C89 H91 0.960 . S
C89 H92 0.961 . S
H90 C89 0.959 . S
H91 C89 0.960 . S
H92 C89 0.961 . S
O93 Co68 1.967 . S
O93 C101 1.258 . S
O94 Co69 1.941 . S
O94 C101 1.266 . S
H95 C97 0.959 . S
H96 C97 0.961 . S
C97 C87 1.510 . S
C97 H95 0.959 . S
C97 H96 0.961 . S
C97 H98 0.960 . S
H98 C97 0.960 . S
H99 N79 0.862 . S
O100 Co68 1.920 . S
O100 C73 1.289 . S
C101 O93 1.258 . S
C101 O94 1.266 . S
Co102 O105 1.970 . S
Co102 N119 1.989 . S
Co102 O127 1.967 . S
Co102 O134 1.920 . S
Co103 O106 1.966 . S
Co103 N112 2.022 . S
Co103 N120 1.993 . S
Co103 O128 1.941 . S
C104 O105 1.258 . S
C104 O106 1.263 . S
O105 Co102 1.970 . S
O105 C104 1.258 . S
O106 Co103 1.966 . S
O106 C104 1.263 . S
C107 O108 1.235 . S
C107 O134 1.289 . S
O108 C107 1.235 . S
C109 C111 1.400 . S
C109 N112 1.351 . S
C109 C114 1.501 . S
C110 C111 1.387 . S
C110 N113 1.341 . S
C111 C109 1.400 . S
C111 C110 1.387 . S
N112 Co103 2.022 . S
N112 C109 1.351 . S
N112 N113 1.365 . S
N113 C110 1.341 . S
N113 N112 1.365 . S
N113 H133 0.862 . S
C114 C109 1.501 . S
C114 H115 0.961 . S
C114 H116 0.961 . S
C114 H117 0.960 . S
H115 C114 0.961 . S
H116 C114 0.961 . S
H117 C114 0.960 . S
C118 N119 1.342 . S
C118 C122 1.401 . S
C118 C123 1.499 . S
N119 Co102 1.989 . S
N119 C118 1.342 . S
N119 N120 1.388 . S
N120 Co103 1.993 . S
N120 N119 1.388 . S
N120 C121 1.346 . S
C121 N120 1.346 . S
C121 C122 1.396 . S
C121 C131 1.510 . S
C122 C118 1.401 . S
C122 C121 1.396 . S
C123 C118 1.499 . S
C123 H124 0.959 . S
C123 H125 0.960 . S
C123 H126 0.961 . S
H124 C123 0.959 . S
H125 C123 0.960 . S
H126 C123 0.961 . S
O127 Co102 1.967 . S
O127 C135 1.258 . S
O128 Co103 1.941 . S
O128 C135 1.266 . S
H129 C131 0.959 . S
H130 C131 0.961 . S
C131 C121 1.510 . S
C131 H129 0.959 . S
C131 H130 0.961 . S
C131 H132 0.960 . S
H132 C131 0.960 . S
H133 N113 0.862 . S
O134 Co102 1.920 . S
O134 C107 1.289 . S
C135 O127 1.258 . S
C135 O128 1.266 . S
C136 C137 1.386 1_565 S
C136 C138 1.383 . S
C136 H152 0.951 . S
C137 C136 1.386 1_545 S
C137 C141 1.383 1_455 S
C138 C136 1.383 . S
C138 C139 1.398 1_565 S
C138 H153 0.955 . S
C139 C138 1.398 1_545 S
C139 C140 1.375 1_455 S
C139 C142 1.481 . S
C140 C139 1.375 1_655 S
C140 C141 1.367 . S
C140 H154 0.951 . S
C141 C137 1.383 1_655 S
C141 C140 1.367 . S
C141 H155 0.950 . S
C142 C139 1.481 . S
C142 C143 1.297 . S
C142 H156 0.950 1_455 S
C143 C142 1.297 . S
C143 C144 1.479 . S
C143 H157 0.950 . S
C144 C143 1.479 . S
C144 C145 1.375 1_545 S
C144 C150 1.404 . S
C145 C144 1.375 1_565 S
C145 C146 1.369 . S
C145 H158 0.950 . S
C146 C145 1.369 . S
C146 C147 1.392 1_565 S
C146 H159 0.951 . S
C147 C146 1.392 1_545 S
C147 C149 1.383 1_455 S
H148 C150 0.949 1_655 S
C149 C147 1.383 1_655 S
C149 C150 1.384 1_655 S
C149 H151 0.952 . S
C150 C144 1.404 . S
C150 H148 0.949 1_455 S
C150 C149 1.384 1_455 S
H151 C149 0.952 . S
H152 C136 0.951 . S
H153 C138 0.955 . S
H154 C140 0.951 . S
H155 C141 0.950 . S
H156 C142 0.950 1_655 S
H157 C143 0.950 . S
H158 C145 0.950 . S
H159 C146 0.951 . S
C160 C161 1.386 . S
C160 C162 1.383 . S
C160 H176 0.951 . S
C161 C160 1.386 . S
C161 C165 1.383 . S
C162 C160 1.383 . S
C162 C163 1.402 . S
C162 H177 0.951 . S
C163 C162 1.402 . S
C163 C164 1.375 . S
C163 C166 1.481 . S
C164 C163 1.375 . S
C164 C165 1.367 . S
C164 H178 0.951 . S
C165 C161 1.383 . S
C165 C164 1.367 . S
C165 H179 0.950 . S
C166 C163 1.481 . S
C166 C167 1.297 1_554 S
C166 H180 0.950 . S
C167 C166 1.297 1_556 S
C167 C168 1.479 . S
C167 H181 0.950 . S
C168 C167 1.479 . S
C168 C169 1.375 . S
C168 C174 1.404 . S
C169 C168 1.375 . S
C169 C170 1.369 . S
C169 H182 0.950 . S
C170 C169 1.369 . S
C170 C171 1.392 . S
C170 H183 0.951 . S
C171 C170 1.392 . S
C171 C173 1.384 . S
H172 C174 0.949 . S
C173 C171 1.384 . S
C173 C174 1.385 . S
C173 H175 0.950 . S
C174 C168 1.404 . S
C174 H172 0.949 . S
C174 C173 1.385 . S
H175 C173 0.950 . S
H176 C160 0.951 . S
H177 C162 0.951 . S
H178 C164 0.951 . S
H179 C165 0.950 . S
H180 C166 0.950 . S
H181 C167 0.950 . S
H182 C169 0.950 . S
H183 C170 0.951 . S
C184 C185 1.386 . S
C184 C186 1.383 . S
C184 H200 0.951 . S
C185 C184 1.386 . S
C185 C189 1.383 . S
C186 C184 1.383 . S
C186 C187 1.402 . S
C186 H201 0.951 . S
C187 C186 1.402 . S
C187 C188 1.375 . S
C187 C190 1.481 . S
C188 C187 1.375 . S
C188 C189 1.367 . S
C188 H202 0.951 . S
C189 C185 1.383 . S
C189 C188 1.367 . S
C189 H203 0.950 . S
C190 C187 1.481 . S
C190 C191 1.297 . S
C190 H204 0.950 . S
C191 C190 1.297 . S
C191 C192 1.479 . S
C191 H205 0.950 . S
C192 C191 1.479 . S
C192 C193 1.375 . S
C192 C198 1.404 . S
C193 C192 1.375 . S
C193 C194 1.369 . S
C193 H206 0.950 . S
C194 C193 1.369 . S
C194 C195 1.392 . S
C194 H207 0.951 . S
C195 C194 1.392 . S
C195 C197 1.384 . S
H196 C198 0.949 . S
C197 C195 1.384 . S
C197 C198 1.385 . S
C197 H199 0.950 . S
C198 C192 1.404 . S
C198 H196 0.949 . S
C198 C197 1.385 . S
H199 C197 0.950 . S
H200 C184 0.951 . S
H201 C186 0.951 . S
H202 C188 0.951 . S
H203 C189 0.950 . S
H204 C190 0.950 . S
H205 C191 0.950 . S
H206 C193 0.950 . S
H207 C194 0.951 . S
C208 C209 1.386 . S
C208 C210 1.383 . S
C208 H224 0.951 . S
C209 C208 1.386 . S
C209 C213 1.383 . S
C210 C208 1.383 . S
C210 C211 1.402 . S
C210 H225 0.951 . S
C211 C210 1.402 . S
C211 C212 1.375 . S
C211 C214 1.481 . S
C212 C211 1.375 . S
C212 C213 1.367 . S
C212 H226 0.951 . S
C213 C209 1.383 . S
C213 C212 1.367 . S
C213 H227 0.950 . S
C214 C211 1.481 . S
C214 C215 1.297 . S
C214 H228 0.950 . S
C215 C214 1.297 . S
C215 C216 1.479 . S
C215 H229 0.950 . S
C216 C215 1.479 . S
C216 C217 1.375 . S
C216 C222 1.404 . S
C217 C216 1.375 . S
C217 C218 1.369 . S
C217 H230 0.950 . S
C218 C217 1.369 . S
C218 C219 1.392 . S
C218 H231 0.951 . S
C219 C218 1.392 . S
C219 C221 1.384 . S
H220 C222 0.949 . S
C221 C219 1.384 . S
C221 C222 1.385 . S
C221 H223 0.950 . S
C222 C216 1.404 . S
C222 H220 0.949 . S
C222 C221 1.385 . S
H223 C221 0.950 . S
H224 C208 0.951 . S
H225 C210 0.951 . S
H226 C212 0.951 . S
H227 C213 0.950 . S
H228 C214 0.950 . S
H229 C215 0.950 . S
H230 C217 0.950 . S
H231 C218 0.951 . S
C232 C233 1.386 . S
C232 C234 1.383 . S
C232 H248 0.951 . S
C233 C232 1.386 . S
C233 C237 1.383 . S
C234 C232 1.383 . S
C234 C235 1.402 . S
C234 H249 0.951 . S
C235 C234 1.402 . S
C235 C236 1.375 . S
C235 C238 1.481 . S
C236 C235 1.375 . S
C236 C237 1.367 . S
C236 H250 0.951 . S
C237 C233 1.383 . S
C237 C236 1.367 . S
C237 H251 0.950 . S
C238 C235 1.481 . S
C238 C239 1.297 . S
C238 H252 0.950 . S
C239 C238 1.297 . S
C239 C240 1.479 . S
C239 H253 0.950 . S
C240 C239 1.479 . S
C240 C241 1.375 . S
C240 C246 1.404 . S
C241 C240 1.375 . S
C241 C242 1.369 . S
C241 H254 0.950 . S
C242 C241 1.369 . S
C242 C243 1.392 . S
C242 H255 0.951 . S
C243 C242 1.392 . S
C243 C245 1.384 . S
H244 C246 0.949 . S
C245 C243 1.384 . S
C245 C246 1.385 . S
C245 H247 0.950 . S
C246 C240 1.404 . S
C246 H244 0.949 . S
C246 C245 1.385 . S
H247 C245 0.950 . S
H248 C232 0.951 . S
H249 C234 0.951 . S
H250 C236 0.951 . S
H251 C237 0.950 . S
H252 C238 0.950 . S
H253 C239 0.950 . S
H254 C241 0.950 . S
H255 C242 0.951 . S
C256 C257 1.386 . S
C256 C258 1.383 . S
C256 H272 0.951 . S
C257 C256 1.386 . S
C257 C261 1.383 . S
C258 C256 1.383 . S
C258 C259 1.402 . S
C258 H273 0.951 . S
C259 C258 1.402 . S
C259 C260 1.375 . S
C259 C262 1.481 . S
C260 C259 1.375 . S
C260 C261 1.367 . S
C260 H274 0.951 . S
C261 C257 1.383 . S
C261 C260 1.367 . S
C261 H275 0.950 . S
C262 C259 1.481 . S
C262 C263 1.297 . S
C262 H276 0.950 . S
C263 C262 1.297 . S
C263 C264 1.479 . S
C263 H277 0.950 . S
C264 C263 1.479 . S
C264 C265 1.375 . S
C264 C270 1.404 . S
C265 C264 1.375 . S
C265 C266 1.369 . S
C265 H278 0.950 . S
C266 C265 1.369 . S
C266 C267 1.392 . S
C266 H279 0.951 . S
C267 C266 1.392 . S
C267 C269 1.384 . S
H268 C270 0.949 . S
C269 C267 1.384 . S
C269 C270 1.385 . S
C269 H271 0.950 . S
C270 C264 1.404 . S
C270 H268 0.949 . S
C270 C269 1.385 . S
H271 C269 0.950 . S
H272 C256 0.951 . S
H273 C258 0.951 . S
H274 C260 0.951 . S
H275 C261 0.950 . S
H276 C262 0.950 . S
H277 C263 0.950 . S
H278 C265 0.950 . S
H279 C266 0.951 . S
C280 C281 1.386 . S
C280 C282 1.383 . S
C280 H296 0.951 . S
C281 C280 1.386 . S
C281 C285 1.383 . S
C282 C280 1.383 . S
C282 C283 1.402 . S
C282 H297 0.951 . S
C283 C282 1.402 . S
C283 C284 1.375 . S
C283 C286 1.481 . S
C284 C283 1.375 . S
C284 C285 1.367 . S
C284 H298 0.951 . S
C285 C281 1.383 . S
C285 C284 1.367 . S
C285 H299 0.950 . S
C286 C283 1.481 . S
C286 C287 1.297 . S
C286 H300 0.950 . S
C287 C286 1.297 . S
C287 C288 1.479 . S
C287 H301 0.950 . S
C288 C287 1.479 . S
C288 C289 1.375 . S
C288 C294 1.404 . S
C289 C288 1.375 . S
C289 C290 1.369 . S
C289 H302 0.950 . S
C290 C289 1.369 . S
C290 C291 1.392 . S
C290 H303 0.951 . S
C291 C290 1.392 . S
C291 C293 1.384 . S
H292 C294 0.949 . S
C293 C291 1.384 . S
C293 C294 1.385 . S
C293 H295 0.950 . S
C294 C288 1.404 . S
C294 H292 0.949 . S
C294 C293 1.385 . S
H295 C293 0.950 . S
H296 C280 0.951 . S
H297 C282 0.951 . S
H298 C284 0.951 . S
H299 C285 0.950 . S
H300 C286 0.950 . S
H301 C287 0.950 . S
H302 C289 0.950 . S
H303 C290 0.951 . S
C304 C305 1.386 . S
C304 C306 1.383 . S
C304 H320 0.951 . S
C305 C304 1.386 . S
C305 C309 1.383 . S
C306 C304 1.383 . S
C306 C307 1.402 . S
C306 H321 0.951 . S
C307 C306 1.402 . S
C307 C308 1.375 . S
C307 C310 1.481 . S
C308 C307 1.375 . S
C308 C309 1.367 . S
C308 H322 0.951 . S
C309 C305 1.383 . S
C309 C308 1.367 . S
C309 H323 0.950 . S
C310 C307 1.481 . S
C310 C311 1.297 . S
C310 H324 0.950 . S
C311 C310 1.297 . S
C311 C312 1.479 . S
C311 H325 0.950 . S
C312 C311 1.479 . S
C312 C313 1.375 . S
C312 C318 1.404 . S
C313 C312 1.375 . S
C313 C314 1.369 . S
C313 H326 0.950 . S
C314 C313 1.369 . S
C314 C315 1.392 . S
C314 H327 0.951 . S
C315 C314 1.392 . S
C315 C317 1.384 . S
H316 C318 0.949 . S
C317 C315 1.384 . S
C317 C318 1.385 . S
C317 H319 0.950 . S
C318 C312 1.404 . S
C318 H316 0.949 . S
C318 C317 1.385 . S
H319 C317 0.950 . S
H320 C304 0.951 . S
H321 C306 0.951 . S
H322 C308 0.951 . S
H323 C309 0.950 . S
H324 C310 0.950 . S
H325 C311 0.950 . S
H326 C313 0.950 . S
H327 C314 0.951 . S
C328 C329 1.386 . S
C328 C330 1.383 . S
C328 H344 0.951 . S
C329 C328 1.386 . S
C329 C333 1.383 . S
C330 C328 1.383 . S
C330 C331 1.402 . S
C330 H345 0.951 . S
C331 C330 1.402 . S
C331 C332 1.375 . S
C331 C334 1.481 . S
C332 C331 1.375 . S
C332 C333 1.367 . S
C332 H346 0.951 . S
C333 C329 1.383 . S
C333 C332 1.367 . S
C333 H347 0.950 . S
C334 C331 1.481 . S
C334 C335 1.297 . S
C334 H348 0.950 . S
C335 C334 1.297 . S
C335 C336 1.479 . S
C335 H349 0.950 . S
C336 C335 1.479 . S
C336 C337 1.375 . S
C336 C342 1.404 . S
C337 C336 1.375 . S
C337 C338 1.369 . S
C337 H350 0.950 . S
C338 C337 1.369 . S
C338 C339 1.392 . S
C338 H351 0.951 . S
C339 C338 1.392 . S
C339 C341 1.384 . S
H340 C342 0.949 . S
C341 C339 1.384 . S
C341 C342 1.385 . S
C341 H343 0.950 . S
C342 C336 1.404 . S
C342 H340 0.949 . S
C342 C341 1.385 . S
H343 C341 0.950 . S
H344 C328 0.951 . S
H345 C330 0.951 . S
H346 C332 0.951 . S
H347 C333 0.950 . S
H348 C334 0.950 . S
H349 C335 0.950 . S
H350 C337 0.950 . S
H351 C338 0.951 . S
C352 C353 1.386 . S
C352 C354 1.383 . S
C352 H368 0.951 . S
C353 C352 1.386 . S
C353 C357 1.383 . S
C354 C352 1.383 . S
C354 C355 1.402 . S
C354 H369 0.951 . S
C355 C354 1.402 . S
C355 C356 1.375 . S
C355 C358 1.481 . S
C356 C355 1.375 . S
C356 C357 1.367 . S
C356 H370 0.951 . S
C357 C353 1.383 . S
C357 C356 1.367 . S
C357 H371 0.950 . S
C358 C355 1.481 . S
C358 C359 1.297 . S
C358 H372 0.950 . S
C359 C358 1.297 . S
C359 C360 1.479 . S
C359 H373 0.950 . S
C360 C359 1.479 . S
C360 C361 1.375 . S
C360 C366 1.404 . S
C361 C360 1.375 . S
C361 C362 1.369 . S
C361 H374 0.950 . S
C362 C361 1.369 . S
C362 C363 1.392 . S
C362 H375 0.951 . S
C363 C362 1.392 . S
C363 C365 1.384 . S
H364 C366 0.949 . S
C365 C363 1.384 . S
C365 C366 1.385 . S
C365 H367 0.950 . S
C366 C360 1.404 . S
C366 H364 0.949 . S
C366 C365 1.385 . S
H367 C365 0.950 . S
H368 C352 0.951 . S
H369 C354 0.951 . S
H370 C356 0.951 . S
H371 C357 0.950 . S
H372 C358 0.950 . S
H373 C359 0.950 . S
H374 C361 0.950 . S
H375 C362 0.951 . S
C137 C33 1.502 . S
C147 C67 1.491 . S
C161 C135 1.499 . S
C171 C101 1.486 . S
C185 C20 1.265 . S
C195 C122 1.247 . S
C209 C9 1.496 . S
C219 C107 1.508 . S
C233 C104 1.567 . S
C243 C2 1.555 . S
C257 C5 1.521 . S
C267 C111 1.482 . S
C281 C77 1.495 . S
C291 C39 1.502 . S
C305 C36 1.550 . S
C315 C70 1.557 . S
C329 C43 1.516 . S
C339 C73 1.546 . S
C353 C88 1.259 . S
C363 C54 1.259 . S
