# Generated by pormake.
# Topology whk, (6)-cn, num edge types: 1
# Building blocks:
#     Node 0, Type 0, BuildingBlock: KUMBUR_clean_sbu_1, # of connection points: 6
#     Node 1, Type 0, BuildingBlock: KUMBUR_clean_sbu_1, # of connection points: 6
#     Node 2, Type 0, BuildingBlock: KUMBUR_clean_sbu_1, # of connection points: 6
#     Node 3, Type 0, BuildingBlock: KUMBUR_clean_sbu_1, # of connection points: 6
#     Node 4, Type 0, BuildingBlock: KUMBUR_clean_sbu_1, # of connection points: 6
#     Node 5, Type 0, BuildingBlock: KUMBUR_clean_sbu_1, # of connection points: 6
#     Node 6, Type 0, BuildingBlock: KUMBUR_clean_sbu_1, # of connection points: 6
#     Node 7, Type 0, BuildingBlock: KUMBUR_clean_sbu_1, # of connection points: 6
#     Node 8, Type 0, BuildingBlock: KUMBUR_clean_sbu_1, # of connection points: 6
#     Node 9, Type 0, BuildingBlock: KUMBUR_clean_sbu_1, # of connection points: 6
#     Node 10, Type 0, BuildingBlock: KUMBUR_clean_sbu_1, # of connection points: 6
#     Node 11, Type 0, BuildingBlock: KUMBUR_clean_sbu_1, # of connection points: 6
#     Node 12, Type 0, BuildingBlock: KUMBUR_clean_sbu_1, # of connection points: 6
#     Node 13, Type 0, BuildingBlock: KUMBUR_clean_sbu_1, # of connection points: 6
#     Node 14, Type 0, BuildingBlock: KUMBUR_clean_sbu_1, # of connection points: 6
#     Node 15, Type 0, BuildingBlock: KUMBUR_clean_sbu_1, # of connection points: 6
#     Edge 16, Type (0, 0), BuildingBlock: XIVTED_clean_linker_0, # of connection points: 2
#     Edge 17, Type (0, 0), BuildingBlock: XIVTED_clean_linker_0, # of connection points: 2
#     Edge 18, Type (0, 0), BuildingBlock: XIVTED_clean_linker_0, # of connection points: 2
#     Edge 19, Type (0, 0), BuildingBlock: XIVTED_clean_linker_0, # of connection points: 2
#     Edge 20, Type (0, 0), BuildingBlock: XIVTED_clean_linker_0, # of connection points: 2
#     Edge 21, Type (0, 0), BuildingBlock: XIVTED_clean_linker_0, # of connection points: 2
#     Edge 22, Type (0, 0), BuildingBlock: XIVTED_clean_linker_0, # of connection points: 2
#     Edge 23, Type (0, 0), BuildingBlock: XIVTED_clean_linker_0, # of connection points: 2
#     Edge 24, Type (0, 0), BuildingBlock: XIVTED_clean_linker_0, # of connection points: 2
#     Edge 25, Type (0, 0), BuildingBlock: XIVTED_clean_linker_0, # of connection points: 2
#     Edge 26, Type (0, 0), BuildingBlock: XIVTED_clean_linker_0, # of connection points: 2
#     Edge 27, Type (0, 0), BuildingBlock: XIVTED_clean_linker_0, # of connection points: 2
#     Edge 28, Type (0, 0), BuildingBlock: XIVTED_clean_linker_0, # of connection points: 2
#     Edge 29, Type (0, 0), BuildingBlock: XIVTED_clean_linker_0, # of connection points: 2
#     Edge 30, Type (0, 0), BuildingBlock: XIVTED_clean_linker_0, # of connection points: 2
#     Edge 31, Type (0, 0), BuildingBlock: XIVTED_clean_linker_0, # of connection points: 2
#     Edge 32, Type (0, 0), BuildingBlock: XIVTED_clean_linker_0, # of connection points: 2
#     Edge 33, Type (0, 0), BuildingBlock: XIVTED_clean_linker_0, # of connection points: 2
#     Edge 34, Type (0, 0), BuildingBlock: XIVTED_clean_linker_0, # of connection points: 2
#     Edge 35, Type (0, 0), BuildingBlock: XIVTED_clean_linker_0, # of connection points: 2
#     Edge 36, Type (0, 0), BuildingBlock: XIVTED_clean_linker_0, # of connection points: 2
#     Edge 37, Type (0, 0), BuildingBlock: XIVTED_clean_linker_0, # of connection points: 2
#     Edge 38, Type (0, 0), BuildingBlock: XIVTED_clean_linker_0, # of connection points: 2
#     Edge 39, Type (0, 0), BuildingBlock: XIVTED_clean_linker_0, # of connection points: 2
#     Edge 40, Type (0, 0), BuildingBlock: XIVTED_clean_linker_0, # of connection points: 2
#     Edge 41, Type (0, 0), BuildingBlock: XIVTED_clean_linker_0, # of connection points: 2
#     Edge 42, Type (0, 0), BuildingBlock: XIVTED_clean_linker_0, # of connection points: 2
#     Edge 43, Type (0, 0), BuildingBlock: XIVTED_clean_linker_0, # of connection points: 2
#     Edge 44, Type (0, 0), BuildingBlock: XIVTED_clean_linker_0, # of connection points: 2
#     Edge 45, Type (0, 0), BuildingBlock: XIVTED_clean_linker_0, # of connection points: 2
#     Edge 46, Type (0, 0), BuildingBlock: XIVTED_clean_linker_0, # of connection points: 2
#     Edge 47, Type (0, 0), BuildingBlock: XIVTED_clean_linker_0, # of connection points: 2
#     Edge 48, Type (0, 0), BuildingBlock: XIVTED_clean_linker_0, # of connection points: 2
#     Edge 49, Type (0, 0), BuildingBlock: XIVTED_clean_linker_0, # of connection points: 2
#     Edge 50, Type (0, 0), BuildingBlock: XIVTED_clean_linker_0, # of connection points: 2
#     Edge 51, Type (0, 0), BuildingBlock: XIVTED_clean_linker_0, # of connection points: 2
#     Edge 52, Type (0, 0), BuildingBlock: XIVTED_clean_linker_0, # of connection points: 2
#     Edge 53, Type (0, 0), BuildingBlock: XIVTED_clean_linker_0, # of connection points: 2
#     Edge 54, Type (0, 0), BuildingBlock: XIVTED_clean_linker_0, # of connection points: 2
#     Edge 55, Type (0, 0), BuildingBlock: XIVTED_clean_linker_0, # of connection points: 2
#     Edge 56, Type (0, 0), BuildingBlock: XIVTED_clean_linker_0, # of connection points: 2
#     Edge 57, Type (0, 0), BuildingBlock: XIVTED_clean_linker_0, # of connection points: 2
#     Edge 58, Type (0, 0), BuildingBlock: XIVTED_clean_linker_0, # of connection points: 2
#     Edge 59, Type (0, 0), BuildingBlock: XIVTED_clean_linker_0, # of connection points: 2
#     Edge 60, Type (0, 0), BuildingBlock: XIVTED_clean_linker_0, # of connection points: 2
#     Edge 61, Type (0, 0), BuildingBlock: XIVTED_clean_linker_0, # of connection points: 2
#     Edge 62, Type (0, 0), BuildingBlock: XIVTED_clean_linker_0, # of connection points: 2
#     Edge 63, Type (0, 0), BuildingBlock: XIVTED_clean_linker_0, # of connection points: 2
# Relax obj value: 0.457
# Max RMSD: 0.278
# Mean RMSD: 0.275
data_MOF--net-whk--node1-KUMBUR_clean_sbu_1--edge1-XIVTED_clean_linker_0
_symmetry_space_group_name_H-M    P1
_symmetry_Int_Tables_number       1
_symmetry_cell_setting            triclinic
loop_
_symmetry_equiv_pos_as_xyz
'x, y, z'
_cell_length_a     44.871861
_cell_length_b     44.806574
_cell_length_c     39.997377
_cell_angle_alpha  90.155963
_cell_angle_beta   90.079421
_cell_angle_gamma 89.979494
loop_
_atom_site_label
_atom_site_type_symbol
_atom_site_fract_x
_atom_site_fract_y
_atom_site_fract_z
_atom_type_partial_charge
Tb0 Tb 0.56686 0.19852 0.42569 0.0
C1 C 0.56697 0.30385 0.33773 0.0
N2 N 0.57603 0.2749 0.33613 0.0
C3 C 0.54875 0.26798 0.28509 0.0
C4 C 0.54729 0.31564 0.31364 0.0
C5 C 0.56817 0.25722 0.30964 0.0
C6 C 0.5381 0.29725 0.28721 0.0
C7 C 0.5669 0.35113 0.36743 0.0
C8 C 0.57689 0.32142 0.36419 0.0
C9 C 0.5468 0.36279 0.34386 0.0
C10 C 0.53718 0.34517 0.31693 0.0
Tb11 Tb 0.61056 0.2615 0.37505 0.0
N12 N 0.5965 0.3095 0.38646 0.0
C13 C 0.57773 0.3684 0.39397 0.0
C14 C 0.6086 0.32695 0.41108 0.0
C15 C 0.59892 0.35635 0.41566 0.0
H16 H 0.57685 0.23483 0.30755 0.0
H17 H 0.60821 0.36986 0.43558 0.0
H18 H 0.53412 0.22733 0.49266 0.0
H19 H 0.61303 0.08842 0.40819 0.0
H20 H 0.62629 0.3187 0.42685 0.0
H21 H 0.57049 0.39128 0.39742 0.0
H22 H 0.58887 0.13556 0.39036 0.0
H23 H 0.54216 0.25378 0.26444 0.0
H24 H 0.53879 0.38553 0.34605 0.0
H25 H 0.52183 0.35455 0.29885 0.0
H26 H 0.53672 0.22046 0.55403 0.0
H27 H 0.52297 0.30547 0.26821 0.0
H28 H 0.6251 0.08039 0.46797 0.0
N29 N 0.56465 0.19221 0.48226 0.0
C30 C 0.58061 0.1691 0.49476 0.0
C31 C 0.54936 0.20597 0.53763 0.0
C32 C 0.58236 0.16391 0.52942 0.0
C33 C 0.54795 0.20983 0.50294 0.0
C34 C 0.56705 0.18321 0.55098 0.0
N35 N 0.58833 0.15402 0.43938 0.0
C36 C 0.59407 0.13208 0.41645 0.0
C37 C 0.60644 0.12269 0.48383 0.0
C38 C 0.5927 0.14902 0.47242 0.0
C39 C 0.61459 0.10102 0.46025 0.0
C40 C 0.60771 0.10543 0.42648 0.0
H41 H 0.56784 0.18006 0.57782 0.0
H42 H 0.60014 0.13473 0.56775 0.0
H43 H 0.62106 0.09841 0.52774 0.0
O44 O 0.52858 0.19455 0.39495 0.0
O45 O 0.61449 0.18903 0.41751 0.0
O46 O 0.63883 0.23439 0.40959 0.0
O47 O 0.53268 0.16864 0.43966 0.0
O48 O 0.57631 0.19043 0.37097 0.0
O49 O 0.61846 0.21702 0.35623 0.0
O50 O 0.6456 0.29173 0.36582 0.0
O51 O 0.56183 0.25377 0.37745 0.0
O52 O 0.54782 0.24322 0.4298 0.0
O53 O 0.63285 0.25906 0.32919 0.0
O54 O 0.61811 0.26633 0.42871 0.0
O55 O 0.58112 0.23866 0.45647 0.0
C56 C 0.63824 0.20625 0.4202 0.0
C57 C 0.4833 0.17746 0.42048 0.0
C58 C 0.43269 0.15545 0.42316 0.0
C59 C 0.42225 0.18299 0.43545 0.0
C60 C 0.47185 0.20441 0.43277 0.0
C61 C 0.44156 0.20714 0.44 0.0
C62 C 0.46351 0.15294 0.41533 0.0
C63 C 0.60021 0.19465 0.3519 0.0
C64 C 0.51589 0.17461 0.41402 0.0
C65 C 0.59815 0.13893 0.54118 0.0
C66 C 0.6101 0.11827 0.51839 0.0
C67 C 0.54598 0.2608 0.40396 0.0
C68 C 0.68302 0.27011 0.33219 0.0
C69 C 0.72584 0.24155 0.35084 0.0
C70 C 0.73867 0.24444 0.31901 0.0
C71 C 0.69604 0.27311 0.30052 0.0
C72 C 0.69818 0.25466 0.35742 0.0
C73 C 0.72389 0.26043 0.29405 0.0
C74 C 0.60271 0.25929 0.45565 0.0
C75 C 0.65213 0.27939 0.33727 0.0
H76 H 0.3989 0.1859 0.44151 0.0
H77 H 0.48641 0.22335 0.43697 0.0
H78 H 0.43298 0.22809 0.44948 0.0
H79 H 0.47217 0.1319 0.40613 0.0
H80 H 0.76027 0.23472 0.31369 0.0
H81 H 0.68435 0.28462 0.28064 0.0
H82 H 0.68817 0.25208 0.38186 0.0
H83 H 0.73388 0.26273 0.26959 0.0
Tb84 Tb 0.35577 0.5651 0.43228 0.0
C85 C 0.25044 0.59548 0.34209 0.0
N86 N 0.2803 0.60037 0.34157 0.0
C87 C 0.2827 0.58341 0.28476 0.0
C88 C 0.23563 0.58316 0.31419 0.0
C89 C 0.2964 0.5956 0.31312 0.0
C90 C 0.25223 0.57691 0.28538 0.0
C91 C 0.20384 0.59747 0.37259 0.0
C92 C 0.23477 0.60275 0.37082 0.0
C93 C 0.1891 0.58431 0.34526 0.0
C94 C 0.20492 0.57734 0.31605 0.0
Tb95 Tb 0.29967 0.62238 0.388 0.0
N96 N 0.24969 0.61587 0.39654 0.0
C97 C 0.18855 0.6062 0.40146 0.0
C98 C 0.23445 0.62627 0.42378 0.0
C99 C 0.20386 0.62102 0.42697 0.0
H100 H 0.31977 0.60116 0.31231 0.0
H101 H 0.19203 0.62887 0.44887 0.0
H102 H 0.32574 0.53685 0.5018 0.0
H103 H 0.46796 0.60434 0.41218 0.0
H104 H 0.24551 0.6393 0.44283 0.0
H105 H 0.16479 0.60245 0.40386 0.0
H106 H 0.41943 0.58225 0.39576 0.0
H107 H 0.2956 0.57919 0.2624 0.0
H108 H 0.16538 0.5799 0.34624 0.0
H109 H 0.19319 0.56755 0.29502 0.0
H110 H 0.3331 0.54235 0.56272 0.0
H111 H 0.2417 0.5674 0.26341 0.0
H112 H 0.47735 0.61794 0.47135 0.0
N113 N 0.36199 0.56538 0.4892 0.0
C114 C 0.38635 0.58014 0.50072 0.0
C115 C 0.34805 0.55342 0.54555 0.0
C116 C 0.39195 0.5832 0.53523 0.0
C117 C 0.3438 0.5506 0.51102 0.0
C118 C 0.37191 0.57029 0.55774 0.0
N119 N 0.40145 0.58468 0.44486 0.0
C120 C 0.42347 0.58822 0.42157 0.0
C121 C 0.43429 0.6023 0.48832 0.0
C122 C 0.40712 0.58971 0.47772 0.0
C123 C 0.4561 0.60834 0.46424 0.0
C124 C 0.4509 0.60066 0.43081 0.0
H125 H 0.37537 0.57213 0.58448 0.0
H126 H 0.42252 0.60072 0.57246 0.0
H127 H 0.45974 0.61735 0.53129 0.0
O128 O 0.36651 0.52965 0.39954 0.0
O129 O 0.36937 0.61247 0.42796 0.0
O130 O 0.32581 0.6394 0.43089 0.0
O131 O 0.37792 0.52685 0.45123 0.0
O132 O 0.36264 0.57484 0.37763 0.0
O133 O 0.34467 0.62245 0.36878 0.0
O134 O 0.27381 0.66095 0.38056 0.0
O135 O 0.30023 0.57353 0.3784 0.0
O136 O 0.30977 0.54961 0.4272 0.0
O137 O 0.31604 0.65561 0.35591 0.0
O138 O 0.29553 0.62129 0.44229 0.0
O139 O 0.31276 0.5749 0.4605 0.0
C140 C 0.35451 0.63636 0.43734 0.0
C141 C 0.37464 0.48072 0.42125 0.0
C142 C 0.39449 0.42943 0.41504 0.0
C143 C 0.36494 0.4189 0.41483 0.0
C144 C 0.34563 0.46923 0.42114 0.0
C145 C 0.34089 0.43855 0.41805 0.0
C146 C 0.39916 0.46065 0.41863 0.0
C147 C 0.3628 0.60063 0.3613 0.0
C148 C 0.37948 0.51357 0.42241 0.0
C149 C 0.418 0.59776 0.54604 0.0
C150 C 0.43921 0.60723 0.5226 0.0
C151 C 0.29266 0.55348 0.40093 0.0
C152 C 0.30668 0.70182 0.3804 0.0
C153 C 0.31651 0.73105 0.43108 0.0
C154 C 0.33154 0.75218 0.41107 0.0
C155 C 0.32161 0.72307 0.36115 0.0
C156 C 0.30491 0.70553 0.41524 0.0
C157 C 0.33421 0.74803 0.37654 0.0
C158 C 0.29558 0.59917 0.46388 0.0
C159 C 0.2954 0.67431 0.36488 0.0
H160 H 0.36039 0.39524 0.4125 0.0
H161 H 0.32661 0.48404 0.42309 0.0
H162 H 0.31836 0.42991 0.41792 0.0
H163 H 0.42168 0.46937 0.4185 0.0
H164 H 0.34025 0.77269 0.42149 0.0
H165 H 0.32379 0.72018 0.33436 0.0
H166 H 0.29414 0.68842 0.42982 0.0
H167 H 0.34563 0.76454 0.36158 0.0
Tb168 Tb 0.93775 0.30505 0.38045 0.0
C169 C 0.98125 0.3771 0.50924 0.0
N170 N 0.97693 0.38853 0.47825 0.0
C171 C 0.95539 0.43269 0.50216 0.0
C172 C 0.97187 0.39259 0.53805 0.0
C173 C 0.9656 0.41661 0.47439 0.0
C174 C 0.95805 0.42039 0.53412 0.0
C175 C 1.00508 0.33966 0.54371 0.0
C176 C 0.9975 0.35104 0.51205 0.0
C177 C 0.99432 0.35398 0.57258 0.0
C178 C 0.97768 0.3804 0.56975 0.0
Tb179 Tb 0.99116 0.35872 0.43471 0.0
N180 N 1.00762 0.33802 0.48356 0.0
C181 C 1.02424 0.31502 0.54533 0.0
C182 C 0.02847 0.31577 0.48505 0.0
C183 C 0.03648 0.30343 0.51589 0.0
H184 H 0.96411 0.42639 0.44975 0.0
H185 H 0.05219 0.28512 0.51694 0.0
H186 H 0.99234 0.28841 0.32863 0.0
H187 H 0.82446 0.34115 0.35828 0.0
H188 H 0.03829 0.30711 0.46243 0.0
H189 H 0.03065 0.30557 0.56919 0.0
H190 H 0.86568 0.31986 0.39136 0.0
H191 H 0.94566 0.4546 0.49892 0.0
H192 H 0.99957 0.3454 0.59719 0.0
H193 H 0.97036 0.39177 0.59223 0.0
H194 H 1.0025 0.29226 0.26786 0.0
H195 H 0.9504 0.433 0.55561 0.0
H196 H 0.83199 0.35304 0.29854 0.0
N197 N 0.94986 0.30919 0.32518 0.0
C198 C 0.92826 0.31978 0.30466 0.0
C199 C 0.98161 0.30032 0.27792 0.0
C200 C 0.93295 0.32243 0.26995 0.0
C201 C 0.97586 0.2982 0.31222 0.0
C202 C 0.9602 0.31282 0.25673 0.0
N203 N 0.89712 0.32223 0.35164 0.0
C204 C 0.86963 0.32605 0.36568 0.0
C205 C 0.87795 0.33836 0.29828 0.0
C206 C 0.90115 0.32722 0.31853 0.0
C207 C 0.85034 0.34425 0.31309 0.0
C208 C 0.84604 0.33765 0.34685 0.0
H209 H 0.96471 0.31448 0.23019 0.0
H210 H 0.91351 0.33694 0.22303 0.0
H211 H 0.86539 0.3512 0.24795 0.0
O212 O 0.90523 0.27101 0.37722 0.0
O213 O 0.9689 0.33869 0.36105 0.0
O214 O 0.96728 0.38007 0.39289 0.0
O215 O 0.95172 0.2613 0.37075 0.0
O216 O 0.91331 0.33689 0.41344 0.0
O217 O 0.94492 0.37654 0.42832 0.0
O218 O 0.02917 0.36676 0.40493 0.0
O219 O 0.97343 0.31711 0.45909 0.0
O220 O 0.92799 0.30669 0.43385 0.0
O221 O 1.02241 0.39148 0.44994 0.0
O222 O 1.01198 0.32194 0.40546 0.0
O223 O 0.97682 0.28487 0.40395 0.0
C224 C 0.96339 0.36735 0.3636 0.0
C225 C 0.9241 0.22503 0.39951 0.0
C226 C 0.89673 0.19516 0.44021 0.0
C227 C 0.92126 0.17611 0.44369 0.0
C228 C 0.94844 0.20543 0.40302 0.0
C229 C 0.94718 0.18151 0.4254 0.0
C230 C 0.89844 0.21981 0.41852 0.0
C231 C 0.91807 0.36399 0.42622 0.0
C232 C 0.9254 0.25009 0.37534 0.0
C233 C 0.91024 0.33431 0.2497 0.0
C234 C 0.88284 0.34245 0.26389 0.0
C235 C 0.94628 0.30528 0.45954 0.0
C236 C 0.05038 0.41544 0.40725 0.0
C237 C 0.09092 0.45055 0.39256 0.0
C238 C 0.07013 0.46676 0.37342 0.0
C239 C 0.03055 0.43234 0.38794 0.0
C240 C 0.08064 0.42479 0.40981 0.0
C241 C 0.04038 0.45777 0.37125 0.0
C242 C 1.0047 0.29344 0.40461 0.0
C243 C 0.03955 0.38791 0.42411 0.0
H244 H 0.91999 0.15671 0.45973 0.0
H245 H 0.96841 0.20843 0.38823 0.0
H246 H 0.96607 0.16663 0.42783 0.0
H247 H 0.87909 0.23398 0.41512 0.0
H248 H 0.07678 0.48681 0.36035 0.0
H249 H 1.0074 0.42579 0.38571 0.0
H250 H 0.09614 0.41179 0.4246 0.0
H251 H 1.02481 0.47066 0.35647 0.0
Tb252 Tb 0.19604 0.99347 0.43245 0.0
C253 C 0.31221 0.96428 0.34786 0.0
N254 N 0.28308 0.96425 0.33913 0.0
C255 C 0.29468 0.99074 0.28877 0.0
C256 C 0.33383 0.97849 0.32798 0.0
C257 C 0.27412 0.97627 0.30945 0.0
C258 C 0.32463 0.99225 0.29832 0.0
C259 C 0.35071 0.94523 0.38422 0.0
C260 C 0.32039 0.94802 0.37544 0.0
C261 C 0.37233 0.96101 0.366 0.0
C262 C 0.36389 0.9776 0.33783 0.0
Tb263 Tb 0.25044 0.94254 0.37532 0.0
N264 N 0.29883 0.93249 0.39148 0.0
C265 C 0.35846 0.92546 0.40979 0.0
C266 C 0.30678 0.91084 0.41385 0.0
C267 C 0.33642 0.90766 0.42414 0.0
H268 H 0.25104 0.97506 0.30203 0.0
H269 H 0.34226 0.89125 0.44286 0.0
H270 H 0.23697 0.03657 0.48182 0.0
H271 H 0.08697 0.94857 0.45885 0.0
H272 H 0.2902 0.89633 0.42435 0.0
H273 H 0.38148 0.92268 0.41742 0.0
H274 H 0.12633 0.97092 0.42342 0.0
H275 H 0.28741 1.00072 0.26553 0.0
H276 H 0.3957 0.95952 0.37263 0.0
H277 H 0.38085 0.98877 0.32323 0.0
H278 H 0.24625 0.04225 0.5425 0.0
H279 H 0.34053 1.0034 0.28227 0.0
H280 H 0.09532 0.94266 0.51975 0.0
N281 N 0.20282 1.00418 0.48807 0.0
C282 C 0.18493 0.98996 0.50999 0.0
C283 C 0.22904 1.02724 0.53369 0.0
C284 C 0.18891 0.99272 0.54477 0.0
C285 C 0.22372 1.02401 0.49936 0.0
C286 C 0.21193 1.01104 0.55653 0.0
N287 N 0.15676 0.9765 0.46372 0.0
C288 C 0.13002 0.96851 0.45001 0.0
C289 C 0.13902 0.96311 0.51851 0.0
C290 C 0.16068 0.97542 0.49718 0.0
C291 C 0.11259 0.95237 0.50431 0.0
C292 C 0.10774 0.95582 0.46998 0.0
H293 H 0.21585 1.01379 0.5831 0.0
H294 H 0.17172 0.97974 0.59328 0.0
H295 H 0.12777 0.95374 0.57016 0.0
O296 O 0.19461 1.029 0.39772 0.0
O297 O 0.18074 0.94781 0.42049 0.0
O298 O 0.22364 0.91983 0.41455 0.0
O299 O 0.16669 1.02947 0.44113 0.0
O300 O 0.17735 0.97092 0.38709 0.0
O301 O 0.21822 0.97453 0.35503 0.0
O302 O 0.26609 0.90758 0.34464 0.0
O303 O 0.25534 0.9916 0.37452 0.0
O304 O 0.24288 1.00762 0.42704 0.0
O305 O 0.21957 0.91694 0.34795 0.0
O306 O 0.25476 0.93586 0.4296 0.0
O307 O 0.23791 0.97777 0.45862 0.0
C308 C 0.19539 0.92255 0.42378 0.0
C309 C 0.17984 0.07679 0.41921 0.0
C310 C 0.16139 0.12897 0.4187 0.0
C311 C 0.19018 0.13823 0.4283 0.0
C312 C 0.20809 0.08715 0.42859 0.0
C313 C 0.21313 0.1176 0.43314 0.0
C314 C 0.15637 0.0978 0.41451 0.0
C315 C 0.18952 0.96983 0.3571 0.0
C316 C 0.1748 0.04414 0.41468 0.0
C317 C 0.16885 0.97838 0.56642 0.0
C318 C 0.14384 0.96357 0.55326 0.0
C319 C 0.26089 1.00812 0.40107 0.0
C320 C 0.23325 0.86696 0.34656 0.0
C321 C 0.23203 0.82832 0.38967 0.0
C322 C 0.21949 0.80856 0.36605 0.0
C323 C 0.22048 0.84717 0.32355 0.0
C324 C 0.23873 0.8575 0.37934 0.0
C325 C 0.21365 0.81804 0.33336 0.0
C326 C 0.25503 0.95355 0.45604 0.0
C327 C 0.23942 0.89811 0.33765 0.0
H328 H 0.19502 0.16161 0.43262 0.0
H329 H 0.2263 0.07166 0.43247 0.0
H330 H 0.23503 0.1253 0.44057 0.0
H331 H 0.13449 0.08992 0.40716 0.0
H332 H 0.2146 0.78564 0.37247 0.0
H333 H 0.21567 0.85426 0.29823 0.0
H334 H 0.248 0.8733 0.39682 0.0
H335 H 0.20383 0.80266 0.31561 0.0
Tb336 Tb 0.1157 0.80041 0.12713 0.0
C337 C 0.07253 0.9098 0.02878 0.0
N338 N 0.07456 0.90684 0.06234 0.0
C339 C 0.08947 0.95811 0.06729 0.0
C340 C 0.0799 0.93675 0.01277 0.0
C341 C 0.08178 0.93083 0.08193 0.0
C342 C 0.08901 0.96096 0.03249 0.0
C343 C 0.05578 0.88888 0.97632 0.0
C344 C 0.06071 0.88639 0.01099 0.0
C345 C 0.06474 0.91496 0.95965 0.0
C346 C 0.07678 0.93891 0.97788 0.0
Tb347 Tb 0.06351 0.86108 0.0841 0.0
N348 N 0.05164 0.86216 0.02835 0.0
C349 C 0.04087 0.86565 0.95988 0.0
C350 C 0.0352 0.84044 0.01289 0.0
C351 C 0.03011 0.84154 0.97837 0.0
H352 H 0.08233 0.92872 0.1088 0.0
H353 H 1.01773 0.82389 0.96611 0.0
H354 H 0.08459 0.78792 0.20042 0.0
H355 H 0.23062 0.78985 0.08941 0.0
H356 H 1.02648 0.82191 0.02709 0.0
H357 H 0.03663 0.86663 0.93323 0.0
H358 H 0.17613 0.79116 0.08101 0.0
H359 H 0.09582 0.97686 0.08285 0.0
H360 H 0.06149 0.91723 0.93293 0.0
H361 H 0.08266 0.9593 0.96496 0.0
H362 H 0.10015 0.78667 0.25984 0.0
H363 H 0.09485 0.98211 0.02121 0.0
H364 H 0.25166 0.79463 0.1465 0.0
N365 N 0.12828 0.79651 0.18237 0.0
C366 C 0.15759 0.79842 0.19003 0.0
C367 C 0.11655 0.79022 0.24045 0.0
C368 C 0.16768 0.79739 0.22337 0.0
C369 C 0.10781 0.791 0.20682 0.0
C370 C 0.14659 0.79398 0.24883 0.0
N371 N 0.16637 0.79729 0.13267 0.0
C372 C 0.18502 0.79329 0.10602 0.0
C373 C 0.20842 0.79796 0.17018 0.0
C374 C 0.17751 0.79872 0.16405 0.0
C375 C 0.22774 0.79533 0.14288 0.0
C376 C 0.21595 0.79253 0.11067 0.0
H377 H 0.15336 0.79314 0.27482 0.0
H378 H 0.20676 0.79794 0.25533 0.0
H379 H 0.24252 0.79841 0.20866 0.0
O380 O 0.12464 0.75482 0.13631 0.0
O381 O 0.0922 0.83263 0.15916 0.0
O382 O 0.08935 0.87572 0.12898 0.0
O383 O 0.0939 0.76785 0.09813 0.0
O384 O 0.14195 0.8384 0.10484 0.0
O385 O 0.11038 0.87569 0.08326 0.0
O386 O 0.03352 0.86328 0.12475 0.0
O387 O 0.07744 0.82014 0.05568 0.0
O388 O 0.12442 0.81086 0.07495 0.0
O389 O 1.02212 0.88266 0.0774 0.0
O390 O 0.04902 0.81457 0.08754 0.0
O391 O 0.06737 0.80272 0.13847 0.0
C392 C 0.09571 0.86167 0.15712 0.0
C393 C 0.11711 0.72192 0.09014 0.0
C394 C 0.15606 0.69869 0.05671 0.0
C395 C 0.13626 0.67595 0.04738 0.0
C396 C 0.0972 0.69953 0.07991 0.0
C397 C 0.10677 0.67667 0.05856 0.0
C398 C 0.14628 0.72164 0.07806 0.0
C399 C 0.13722 0.86493 0.09032 0.0
C400 C 0.10674 0.74564 0.11273 0.0
C401 C 0.19846 0.79842 0.22992 0.0
C402 C 0.21884 0.79866 0.20333 0.0
C403 C 0.10503 0.8106 0.05061 0.0
C404 C 1.00235 0.90672 0.12527 0.0
C405 C 0.96157 0.94253 0.13682 0.0
C406 C 0.98149 0.95871 0.15721 0.0
C407 C 1.02118 0.92344 0.14612 0.0
C408 C 0.97245 0.91648 0.12044 0.0
C409 C 1.01084 0.94924 0.16177 0.0
C410 C 0.04668 0.79918 0.11528 0.0
C411 C 1.01408 0.87943 0.10839 0.0
H412 H 0.14368 0.65774 0.03164 0.0
H413 H 0.07434 0.69964 0.08861 0.0
H414 H 0.09142 0.65927 0.05107 0.0
H415 H 0.16172 0.73864 0.08635 0.0
H416 H 0.9745 0.9791 0.16951 0.0
H417 H 0.04402 0.91659 0.15032 0.0
H418 H 0.9577 0.90362 0.10451 0.0
H419 H 1.02571 0.96205 0.17759 0.0
Tb420 Tb 0.75844 0.11443 0.1288 0.0
C421 C 0.65622 0.07104 0.02118 0.0
N422 N 0.65702 0.07319 0.05491 0.0
C423 C 0.60584 0.08875 0.05543 0.0
C424 C 0.6305 0.07866 1.00289 0.0
C425 C 0.63195 0.0807 0.07238 0.0
C426 C 0.60525 0.08819 0.02048 0.0
C427 C 0.68024 0.0538 0.97068 0.0
C428 C 0.68056 0.05886 1.00545 0.0
C429 C 0.65541 0.06296 0.95182 0.0
C430 C 0.63053 0.07538 0.96793 0.0
Tb431 Tb 0.70108 0.06164 0.08044 0.0
N432 N 0.70351 0.04962 0.02482 0.0
C433 C 0.70429 0.0386 0.95629 0.0
C434 C 0.72603 0.03297 0.01129 0.0
C435 C 0.72707 1.02773 0.97679 0.0
H436 H 0.63231 0.08118 0.09937 0.0
H437 H 0.74534 1.01517 0.96607 0.0
H438 H 0.77184 0.08048 0.19998 0.0
H439 H 0.76357 0.23152 0.09799 0.0
H440 H 0.74354 1.02421 0.02706 0.0
H441 H 0.70496 0.03425 0.92964 0.0
H442 H 0.76523 0.17732 0.08636 0.0
H443 H 0.58623 0.09537 0.06932 0.0
H444 H 0.65482 0.0596 0.92499 0.0
H445 H 0.61112 0.08144 0.95329 0.0
H446 H 0.77345 0.09333 0.2602 0.0
H447 H 0.58498 0.09427 1.0074 0.0
H448 H 0.75781 0.24963 0.15619 0.0
N449 N 0.7618 0.12467 0.18462 0.0
C450 C 0.75875 0.15352 0.19402 0.0
C451 C 0.76908 0.11049 0.24185 0.0
C452 C 0.75968 0.16209 0.22791 0.0
C453 C 0.76818 0.10327 0.20776 0.0
C454 C 0.76427 0.13998 0.25204 0.0
N455 N 0.75917 0.16498 0.13724 0.0
C456 C 0.76255 0.18502 0.1118 0.0
C457 C 0.75683 0.20522 0.17725 0.0
C458 C 0.75739 0.17459 0.16926 0.0
C459 C 0.75836 0.22589 0.15115 0.0
C460 C 0.76171 0.21573 0.1183 0.0
H461 H 0.76516 0.14558 0.27839 0.0
H462 H 0.75775 0.19957 0.26224 0.0
H463 H 0.75533 0.2375 0.2177 0.0
O464 O 0.80349 0.12406 0.13994 0.0
O465 O 0.72546 0.08959 0.15804 0.0
O466 O 0.68399 0.0865 0.12487 0.0
O467 O 0.79234 0.09315 0.10128 0.0
O468 O 0.72075 0.14066 0.106 0.0
O469 O 0.6864 0.10884 0.07918 0.0
O470 O 0.69725 0.03093 0.1202 0.0
O471 O 0.74328 0.07613 0.055 0.0
O472 O 0.75 0.12305 0.07615 0.0
O473 O 0.67889 1.02066 0.07199 0.0
O474 O 0.74722 0.04691 0.08777 0.0
O475 O 0.75334 0.06636 0.13926 0.0
C476 C 0.69652 0.09249 0.15408 0.0
C477 C 0.83622 0.11955 0.09347 0.0
C478 C 0.8569 0.16175 0.06329 0.0
C479 C 0.87864 0.14318 0.04921 0.0
C480 C 0.85775 0.10089 0.07886 0.0
C481 C 0.87885 0.11271 0.05677 0.0
C482 C 0.83574 0.14977 0.08525 0.0
C483 C 0.69558 0.13576 0.08878 0.0
C484 C 0.81373 0.10704 0.11612 0.0
C485 C 0.75739 0.19249 0.23634 0.0
C486 C 0.75599 0.21407 0.21099 0.0
C487 C 0.75316 0.10385 0.05177 0.0
C488 C 0.65381 0.99997 0.11884 0.0
C489 C 0.61918 0.95843 0.1312 0.0
C490 C 0.60268 0.97814 0.15142 0.0
C491 C 0.63652 1.01877 0.13915 0.0
C492 C 0.64479 0.96971 0.11452 0.0
C493 C 0.61118 1.00792 0.15517 0.0
C494 C 0.76062 0.046 0.11692 0.0
C495 C 0.68136 1.01193 0.10285 0.0
H496 H 0.89526 0.15227 0.03252 0.0
H497 H 0.85818 0.07726 0.08451 0.0
H498 H 0.89548 0.09828 0.04565 0.0
H499 H 0.81948 0.16427 0.0969 0.0
H500 H 0.58283 0.97053 0.16422 0.0
H501 H 0.64271 0.0419 0.14285 0.0
H502 H 0.65794 0.95494 0.09893 0.0
H503 H 0.59809 1.0227 0.17077 0.0
Tb504 Tb 0.49327 0.6981 0.08892 0.0
C505 C 0.4657 0.81947 0.16016 0.0
N506 N 0.46977 0.79231 0.17409 0.0
C507 C 0.50056 0.81413 0.2167 0.0
C508 C 0.48033 0.84497 0.17264 0.0
C509 C 0.48567 0.78945 0.20305 0.0
C510 C 0.49855 0.84188 0.20087 0.0
C511 C 0.43586 0.8503 0.1237 0.0
C512 C 0.44378 0.82208 0.13637 0.0
C513 C 0.45244 0.87552 0.13334 0.0
C514 C 0.47466 0.87287 0.15793 0.0
Tb515 Tb 0.44587 0.75302 0.14933 0.0
N516 N 0.42761 0.7974 0.12923 0.0
C517 C 0.41032 0.8525 0.1037 0.0
C518 C 0.40077 0.80007 0.11315 0.0
C519 C 0.39224 0.82739 0.09917 0.0
H520 H 0.48744 0.76789 0.21499 0.0
H521 H 0.37172 0.82908 0.08506 0.0
H522 H 0.53713 0.73972 0.0416 0.0
H523 H 0.44628 0.59005 0.06108 0.0
H524 H 0.38668 0.78069 0.10976 0.0
H525 H 0.40348 0.87373 0.09329 0.0
H526 H 0.46747 0.62958 0.09739 0.0
H527 H 0.51381 0.81168 0.23915 0.0
H528 H 0.44711 0.89737 0.12345 0.0
H529 H 0.48613 0.89271 0.16662 0.0
H530 H 0.54575 0.74791 0.98131 0.0
H531 H 0.51011 0.86093 0.21141 0.0
H532 H 0.44464 0.5971 0.99968 0.0
N533 N 0.50572 0.70477 0.03388 0.0
C534 C 0.49275 0.68635 0.01136 0.0
C535 C 0.53057 0.73062 0.9894 0.0
C536 C 0.49728 0.68973 0.97675 0.0
C537 C 0.52559 0.72594 0.02355 0.0
C538 C 0.51594 0.71275 0.96583 0.0
N539 N 0.47636 0.65905 0.05706 0.0
C540 C 0.46674 0.63282 0.07062 0.0
C541 C 0.46591 0.64046 1.00169 0.0
C542 C 0.47736 0.66236 0.02351 0.0
C543 C 0.45373 0.61453 0.01552 0.0
C544 C 0.45474 0.61042 0.05015 0.0
H545 H 0.52005 0.71618 0.93944 0.0
H546 H 0.48699 0.67161 0.92772 0.0
H547 H 0.45942 0.62824 0.94967 0.0
O548 O 0.52665 0.69394 0.12595 0.0
O549 O 0.44588 0.68535 0.0963 0.0
O550 O 0.41877 0.72764 0.11224 0.0
O551 O 0.52928 0.66867 0.08041 0.0
O552 O 0.46962 0.67927 0.13271 0.0
O553 O 0.47646 0.71858 0.16695 0.0
O554 O 0.42078 0.77017 0.18946 0.0
O555 O 0.49508 0.7524 0.14937 0.0
O556 O 0.50952 0.74414 0.09566 0.0
O557 O 0.41853 0.72391 0.17669 0.0
O558 O 0.43822 0.75781 0.09544 0.0
O559 O 0.47952 0.74134 0.06536 0.0
C560 C 0.42067 0.70068 0.09838 0.0
C561 C 0.57522 0.67921 0.10759 0.0
C562 C 0.6264 0.6591 0.1121 0.0
C563 C 0.63727 0.68834 0.10815 0.0
C564 C 0.58703 0.70791 0.10343 0.0
C565 C 0.6178 0.71236 0.10369 0.0
C566 C 0.59506 0.65467 0.11147 0.0
C567 C 0.46976 0.69032 0.16321 0.0
C568 C 0.54236 0.67485 0.10862 0.0
C569 C 0.48414 0.66924 0.95448 0.0
C570 C 0.46844 0.64457 0.96697 0.0
C571 C 0.51116 0.75999 0.12326 0.0
C572 C 0.37446 0.74727 0.19457 0.0
C573 C 0.32736 0.74173 0.16535 0.0
C574 C 0.31286 0.75709 0.19128 0.0
C575 C 0.35981 0.76225 0.22066 0.0
C576 C 0.358 0.73671 0.16716 0.0
C577 C 0.32906 0.76704 0.21901 0.0
C578 C 0.45555 0.75847 0.06894 0.0
C579 C 0.40705 0.74518 0.19456 0.0
H580 H 0.66102 0.69264 0.10808 0.0
H581 H 0.57243 0.72695 0.10017 0.0
H582 H 0.62666 0.73464 0.10052 0.0
H583 H 0.58613 0.6324 0.1147 0.0
H584 H 0.28908 0.76119 0.1901 0.0
H585 H 0.37225 0.77074 0.24189 0.0
H586 H 0.369 0.72534 0.14669 0.0
H587 H 0.31784 0.77881 0.23903 0.0
Tb588 Tb 0.85758 0.49284 0.09027 0.0
C589 C 0.73656 0.46214 0.15539 0.0
N590 N 0.76204 0.47058 0.17085 0.0
C591 C 0.73469 0.50622 0.2036 0.0
C592 C 0.70928 0.47656 0.16184 0.0
C593 C 0.76118 0.49099 0.19632 0.0
C594 C 0.70879 0.4996 0.18555 0.0
C595 C 0.71097 0.42404 0.1236 0.0
C596 C 0.73738 0.43643 0.13668 0.0
C597 C 0.68404 0.43981 0.12702 0.0
C598 C 0.68319 0.46612 0.14618 0.0
Tb599 Tb 0.80474 0.44651 0.15453 0.0
N600 N 0.76359 0.4216 0.13521 0.0
C601 C 0.71217 0.39537 0.10966 0.0
C602 C 0.7643 0.39248 0.12489 0.0
C603 C 0.73879 0.37917 0.11121 0.0
H604 H 0.78128 0.49624 0.21011 0.0
H605 H 0.73973 0.35654 0.10174 0.0
H606 H 0.81296 0.53336 0.04219 0.0
H607 H 0.96618 0.44861 0.06076 0.0
H608 H 0.78496 0.38007 0.12574 0.0
H609 H 0.6924 0.38499 0.09928 0.0
H610 H 0.92721 0.47031 0.09737 0.0
H611 H 0.73433 0.52317 0.22292 0.0
H612 H 0.66353 0.43102 0.1166 0.0
H613 H 0.66204 0.47721 0.15025 0.0
H614 H 0.80233 0.53868 0.98194 0.0
H615 H 0.6883 0.51131 0.19131 0.0
H616 H 0.95704 0.44362 0.99988 0.0
N617 N 0.84871 0.50275 0.03493 0.0
C618 C 0.86671 0.48925 0.01242 0.0
C619 C 0.82042 0.52448 0.99017 0.0
C620 C 0.86196 0.492 0.97776 0.0
C621 C 0.82647 0.52134 0.02434 0.0
C622 C 0.83794 0.50934 0.96675 0.0
N623 N 0.89606 0.47591 0.05784 0.0
C624 C 0.92309 0.46804 0.07084 0.0
C625 C 0.91309 0.46348 1.00243 0.0
C626 C 0.89158 0.47519 0.02444 0.0
C627 C 0.93988 0.45287 0.01587 0.0
C628 C 0.94516 0.45579 0.05019 0.0
H629 H 0.83343 0.51205 0.94032 0.0
H630 H 0.87871 0.48 0.92868 0.0
H631 H 0.92377 0.45508 0.95036 0.0
O632 O 0.86046 0.52883 0.12459 0.0
O633 O 0.87261 0.44686 0.10129 0.0
O634 O 0.8332 0.41775 0.12187 0.0
O635 O 0.88643 0.52885 0.07967 0.0
O636 O 0.87772 0.47245 0.13558 0.0
O637 O 0.83812 0.47952 0.16882 0.0
O638 O 0.78729 0.42678 0.19819 0.0
O639 O 0.80487 0.49567 0.15061 0.0
O640 O 0.81101 0.50708 0.09586 0.0
O641 O 0.83331 0.42257 0.18608 0.0
O642 O 0.80114 0.43415 0.10142 0.0
O643 O 0.81514 0.47444 0.06805 0.0
C644 C 0.85962 0.4208 0.10709 0.0
C645 C 0.87624 0.57649 0.10356 0.0
C646 C 0.89728 0.62772 0.10239 0.0
C647 C 0.86825 0.63847 0.09643 0.0
C648 C 0.84789 0.58834 0.09733 0.0
C649 C 0.84398 0.61906 0.094 0.0
C650 C 0.90103 0.59636 0.10636 0.0
C651 C 0.86645 0.47304 0.16594 0.0
C652 C 0.87997 0.54351 0.10681 0.0
C653 C 0.8821 0.4785 0.95545 0.0
C654 C 0.90772 0.46427 0.96779 0.0
C655 C 0.79586 0.50973 0.12363 0.0
C656 C 0.81018 0.38138 0.21064 0.0
C657 C 0.81609 0.33135 0.18843 0.0
C658 C 0.80139 0.3197 0.21645 0.0
C659 C 0.79582 0.36972 0.23886 0.0
C660 C 0.82066 0.36199 0.1858 0.0
C661 C 0.79159 0.33889 0.24178 0.0
C662 C 0.79966 0.44948 0.07335 0.0
C663 C 0.81214 0.41368 0.20562 0.0
H664 H 0.8642 0.66218 0.09373 0.0
H665 H 0.8287 0.57378 0.09502 0.0
H666 H 0.82192 0.62794 0.08935 0.0
H667 H 0.92309 0.5874 0.11087 0.0
H668 H 0.79751 0.29592 0.21863 0.0
H669 H 0.7875 0.38444 0.25825 0.0
H670 H 0.8314 0.3707 0.16362 0.0
H671 H 0.78034 0.32992 0.26346 0.0
Tb672 Tb 0.44141 0.80735 0.64962 0.0
C673 C 0.4829 0.8731 0.51144 0.0
N674 N 0.49742 0.85507 0.53305 0.0
C675 C 0.51954 0.82878 0.48693 0.0
C676 C 0.48512 0.86921 0.47659 0.0
C677 C 0.51686 0.834 0.52133 0.0
C678 C 0.50315 0.84612 0.46443 0.0
C679 C 0.45583 0.91907 0.5035 0.0
C680 C 0.46853 0.89737 0.52456 0.0
C681 C 0.45584 0.91437 0.46872 0.0
C682 C 0.47051 0.88939 0.45525 0.0
Tb683 Tb 0.48844 0.86231 0.58892 0.0
N684 N 0.47004 0.90124 0.55803 0.0
C685 C 0.44509 0.94543 0.51797 0.0
C686 C 0.462 0.92794 0.57196 0.0
C687 C 0.44884 0.95018 0.55229 0.0
H688 H 0.52975 0.82068 0.53855 0.0
H689 H 0.44158 0.9709 0.56361 0.0
H690 H 0.48232 0.79122 0.71523 0.0
H691 H 0.36631 0.73261 0.58454 0.0
H692 H 0.4648 0.93162 0.59852 0.0
H693 H 0.43512 0.96273 0.50273 0.0
H694 H 0.38187 0.78061 0.61004 0.0
H695 H 0.53432 0.81151 0.4778 0.0
H696 H 0.44578 0.9305 0.45203 0.0
H697 H 0.47154 0.88662 0.42835 0.0
H698 H 0.50819 0.74689 0.73865 0.0
H699 H 0.5055 0.8423 0.4378 0.0
H700 H 0.39787 0.68766 0.59136 0.0
N701 N 0.46519 0.76759 0.67332 0.0
C702 C 0.46093 0.74063 0.65879 0.0
C703 C 0.49523 0.74488 0.71591 0.0
C704 C 0.47524 0.71484 0.67085 0.0
C705 C 0.48063 0.76986 0.70269 0.0
C706 C 0.49327 0.71741 0.69932 0.0
N707 N 0.42289 0.76339 0.62854 0.0
C708 C 0.39592 0.76112 0.61273 0.0
C709 C 0.4307 0.71049 0.62185 0.0
C710 C 0.43895 0.7385 0.635 0.0
C711 C 0.40498 0.70872 0.6021 0.0
C712 C 0.38701 0.734 0.59838 0.0
H713 H 0.50455 0.6981 0.70958 0.0
H714 H 0.48051 0.6671 0.66396 0.0
H715 H 0.44148 0.6633 0.62069 0.0
O716 O 0.41306 0.7888 0.68623 0.0
O717 O 0.49069 0.80393 0.648 0.0
O718 O 0.5044 0.81597 0.59455 0.0
O719 O 0.41953 0.83574 0.68322 0.0
O720 O 0.43142 0.8062 0.59595 0.0
O721 O 0.47371 0.81892 0.56618 0.0
O722 O 0.52431 0.86561 0.62307 0.0
O723 O 0.44237 0.8771 0.60083 0.0
O724 O 0.41425 0.8351 0.61411 0.0
O725 O 0.52381 0.89173 0.57823 0.0
O726 O 0.46742 0.8807 0.63464 0.0
O727 O 0.47381 0.84037 0.66726 0.0
C728 C 0.50672 0.79869 0.62102 0.0
C729 C 0.37295 0.81961 0.70049 0.0
C730 C 0.32743 0.83787 0.67527 0.0
C731 C 0.31268 0.83482 0.70601 0.0
C732 C 0.35807 0.81559 0.73091 0.0
C733 C 0.32793 0.82327 0.73365 0.0
C734 C 0.35735 0.83 0.67266 0.0
C735 C 0.44915 0.80284 0.57009 0.0
C736 C 0.40498 0.81456 0.6978 0.0
C737 C 0.4693 0.68716 0.65559 0.0
C738 C 0.44707 0.685 0.63095 0.0
C739 C 0.41673 0.86258 0.60158 0.0
C740 C 0.57138 0.87997 0.60019 0.0
C741 C 0.62294 0.89939 0.59901 0.0
C742 C 0.63278 0.87033 0.5912 0.0
C743 C 0.58214 0.85144 0.5924 0.0
C744 C 0.59185 0.90402 0.60324 0.0
C745 C 0.61261 0.84673 0.58794 0.0
C746 C 0.46828 0.86901 0.66475 0.0
C747 C 0.53889 0.88485 0.60488 0.0
H748 H 0.28935 0.84068 0.70837 0.0
H749 H 0.36989 0.8073 0.75262 0.0
H750 H 0.31652 0.82062 0.75728 0.0
H751 H 0.36859 0.83255 0.64895 0.0
H752 H 0.65619 0.8658 0.58704 0.0
H753 H 0.56697 0.83279 0.5897 0.0
H754 H 0.5836 0.92609 0.60933 0.0
H755 H 0.62068 0.82462 0.58181 0.0
Tb756 Tb 0.75502 0.44538 0.64008 0.0
C757 C 0.67838 0.5002 0.51139 0.0
N758 N 0.69881 0.51109 0.53313 0.0
C759 C 0.72163 0.53891 0.48878 0.0
C760 C 0.67913 0.50745 0.47716 0.0
C761 C 0.71962 0.53127 0.52262 0.0
C762 C 0.70156 0.52659 0.46583 0.0
C763 C 0.63178 0.4741 0.50354 0.0
C764 C 0.65526 0.48385 0.52426 0.0
C765 C 0.63311 0.47965 0.469 0.0
C766 C 0.6568 0.49633 0.4558 0.0
Tb767 Tb 0.69566 0.49497 0.58728 0.0
N768 N 0.65465 0.47973 0.55773 0.0
C769 C 0.60723 0.46021 0.51843 0.0
C770 C 0.62983 0.46814 0.57267 0.0
C771 C 0.60604 0.45767 0.55323 0.0
H772 H 0.73503 0.54118 0.54018 0.0
H773 H 0.5868 0.44773 0.5651 0.0
H774 H 0.76243 0.47984 0.71178 0.0
H775 H 0.84188 0.40076 0.559 0.0
H776 H 0.62881 0.46622 0.59958 0.0
H777 H 0.5887 0.45231 0.50343 0.0
H778 H 0.79255 0.40128 0.5855 0.0
H779 H 0.73855 0.5544 0.48047 0.0
H780 H 0.61549 0.47205 0.45251 0.0
H781 H 0.6571 0.50134 0.42932 0.0
H782 H 0.80133 0.50858 0.74202 0.0
H783 H 0.70297 0.53275 0.4397 0.0
H784 H 0.88007 0.43764 0.57579 0.0
N785 N 0.78961 0.4721 0.6692 0.0
C786 C 0.81701 0.47463 0.65538 0.0
C787 C 0.80597 0.49934 0.71755 0.0
C788 C 0.83983 0.49083 0.67149 0.0
C789 C 0.78402 0.4832 0.70041 0.0
C790 C 0.83388 0.50357 0.7028 0.0
N791 N 0.80104 0.44039 0.61466 0.0
C792 C 0.8085 0.41819 0.59254 0.0
C793 C 0.85175 0.45852 0.6129 0.0
C794 C 0.82278 0.45865 0.6266 0.0
C795 C 0.85813 0.43846 0.58705 0.0
C796 C 0.83666 0.41758 0.57756 0.0
H797 H 0.85083 0.51613 0.71606 0.0
H798 H 0.88564 0.50582 0.66792 0.0
H799 H 0.89613 0.47744 0.61646 0.0
O800 O 0.78129 0.41935 0.67205 0.0
O801 O 0.75043 0.49428 0.64348 0.0
O802 O 0.74161 0.51135 0.59134 0.0
O803 O 0.73426 0.41247 0.66981 0.0
O804 O 0.75337 0.4384 0.58593 0.0
O805 O 0.73741 0.4821 0.56004 0.0
O806 O 0.69322 0.5273 0.62607 0.0
O807 O 0.68481 0.44701 0.58757 0.0
O808 O 0.7235 0.41736 0.60948 0.0
O809 O 0.6646 0.52999 0.58318 0.0
O810 O 0.67978 0.46844 0.63084 0.0
O811 O 0.72033 0.4714 0.6646 0.0
C812 C 0.75785 0.51174 0.6185 0.0
C813 C 0.76573 0.37056 0.67397 0.0
C814 C 0.77545 0.33096 0.63321 0.0
C815 C 0.78249 0.31175 0.66008 0.0
C816 C 0.7729 0.35125 0.70015 0.0
C817 C 0.78135 0.32193 0.69314 0.0
C818 C 0.76745 0.36053 0.6408 0.0
C819 C 0.75304 0.45688 0.56043 0.0
C820 C 0.75958 0.40208 0.68054 0.0
C821 C 0.86799 0.49287 0.6564 0.0
C822 C 0.87391 0.47682 0.62701 0.0
C823 C 0.69748 0.42083 0.59355 0.0
C824 C 0.67628 0.576 0.60889 0.0
C825 C 0.65466 0.62688 0.60785 0.0
C826 C 0.68306 0.63797 0.59987 0.0
C827 C 0.70418 0.58812 0.601 0.0
C828 C 0.65145 0.59561 0.61266 0.0
C829 C 0.70751 0.61884 0.59673 0.0
C830 C 0.69215 0.4649 0.66054 0.0
C831 C 0.67263 0.54295 0.61085 0.0
H832 H 0.78779 0.28849 0.65597 0.0
H833 H 0.77229 0.35893 0.72585 0.0
H834 H 0.78671 0.3069 0.71342 0.0
H835 H 0.76242 0.37605 0.62108 0.0
H836 H 0.68638 0.66168 0.59609 0.0
H837 H 0.72339 0.57375 0.59769 0.0
H838 H 0.62966 0.58651 0.6183 0.0
H839 H 0.72917 0.62789 0.59055 0.0
Tb840 Tb 0.05957 0.70617 0.58908 0.0
C841 C 0.12591 0.74547 0.71714 0.0
N842 N 0.10465 0.75625 0.69633 0.0
C843 C 0.07336 0.76749 0.74334 0.0
C844 C 0.12126 0.74396 0.75193 0.0
C845 C 0.07909 0.76848 0.70897 0.0
C846 C 0.0944 0.75485 0.7649 0.0
C847 C 0.17544 0.72503 0.7239 0.0
C848 C 0.15258 0.73649 0.70339 0.0
C849 C 0.1706 0.72224 0.75847 0.0
C850 C 0.1436 0.73185 0.77249 0.0
Tb851 Tb 0.11648 0.75816 0.64085 0.0
N852 N 0.15648 0.74005 0.67003 0.0
C853 C 0.20264 0.71738 0.70912 0.0
C854 C 0.18356 0.73426 0.65584 0.0
C855 C 0.20682 0.72236 0.67498 0.0
H856 H 0.0629 0.77839 0.6923 0.0
H857 H 0.22808 0.71741 0.66348 0.0
H858 H 0.08362 0.63772 0.57219 0.0
H859 H 0.99796 0.78165 0.50951 0.0
H860 H 0.18749 0.73921 0.62983 0.0
H861 H 0.22076 0.70843 0.72396 0.0
H862 H 1.01249 0.75865 0.5633 0.0
H863 H 0.05279 0.77654 0.75318 0.0
H864 H 0.18778 0.71324 0.77462 0.0
H865 H 0.14033 0.73007 0.79925 0.0
H866 H 0.10027 0.60958 0.52216 0.0
H867 H 0.08991 0.75408 0.79149 0.0
H868 H 1.01834 0.76171 0.45644 0.0
N869 N 0.07211 0.67656 0.54468 0.0
C870 C 0.06755 0.68853 0.51399 0.0
C871 C 0.09141 0.63192 0.51952 0.0
C872 C 0.07585 0.67312 0.4847 0.0
C873 C 0.08228 0.64796 0.54778 0.0
C874 C 0.08873 0.64479 0.48785 0.0
N875 N 0.04248 0.72775 0.54094 0.0
C876 C 1.02181 0.75021 0.54031 0.0
C877 C 0.04385 0.72689 0.48072 0.0
C878 C 0.05186 0.71497 0.512 0.0
C879 C 1.02504 0.75184 0.47997 0.0
C880 C 1.01345 0.76313 0.50989 0.0
H881 H 0.09549 0.63219 0.46597 0.0
H882 H 0.07628 0.67457 0.43052 0.0
H883 H 0.04816 0.72172 0.42703 0.0
O884 O 1.02195 0.69879 0.61963 0.0
O885 O 0.07698 0.74793 0.5648 0.0
O886 O 0.12386 0.75443 0.58719 0.0
O887 O 1.02717 0.67443 0.57413 0.0
O888 O 0.04056 0.74355 0.6191 0.0
O889 O 0.07675 0.77981 0.62036 0.0
O890 O 0.15075 0.79049 0.64196 0.0
O891 O 0.08454 0.72615 0.6616 0.0
O892 O 0.0838 0.68434 0.63062 0.0
O893 O 0.10491 0.80295 0.64825 0.0
O894 O 0.13899 0.72477 0.60762 0.0
O895 O 0.10532 0.6865 0.59387 0.0
C896 C 0.10428 0.75917 0.56343 0.0
C897 C 0.99893 0.65097 0.61691 0.0
C898 C 0.95749 0.61653 0.62989 0.0
C899 C 0.97702 0.60064 0.65089 0.0
C900 C 1.01763 0.63437 0.63791 0.0
C901 C 1.00672 0.6094 0.65468 0.0
C902 C 0.96883 0.64174 0.61258 0.0
C903 C 0.04864 0.77188 0.61989 0.0
C904 C 1.01059 0.67825 0.60034 0.0
C905 C 0.06975 0.68587 0.45335 0.0
C906 C 0.05373 0.71272 0.45136 0.0
C907 C 0.08909 0.69735 0.6595 0.0
C908 C 0.13376 0.83537 0.61571 0.0
C909 C 0.16193 0.85985 0.57136 0.0
C910 C 0.13757 0.87846 0.56462 0.0
C911 C 0.10979 0.85481 0.60922 0.0
C912 C 0.15965 0.83809 0.59657 0.0
C913 C 0.11151 0.87577 0.58342 0.0
C914 C 0.13284 0.69767 0.59542 0.0
C915 C 0.13166 0.81247 0.64231 0.0
H916 H 0.96937 0.58108 0.66422 0.0
H917 H 0.04067 0.64085 0.64151 0.0
H918 H 1.02137 0.59677 0.67086 0.0
H919 H 0.95419 0.65449 0.59646 0.0
H920 H 0.13906 0.8955 0.54554 0.0
H921 H 0.08974 0.8539 0.62419 0.0
H922 H 0.1787 0.82415 0.60244 0.0
H923 H 0.09285 0.89044 0.57853 0.0
Tb924 Tb 0.79213 0.12016 0.63914 0.0
C925 C 0.86178 0.06733 0.51694 0.0
N926 N 0.84314 0.05725 0.54116 0.0
C927 C 0.81509 1.03009 0.49996 0.0
C928 C 0.85684 0.06054 0.48298 0.0
C929 C 0.82099 0.03741 0.53335 0.0
C930 C 0.83272 0.04217 0.4746 0.0
C931 C 0.9078 0.09251 0.50269 0.0
C932 C 0.88686 0.08304 0.52662 0.0
C933 C 0.9021 0.08747 0.46858 0.0
C934 C 0.87667 0.07147 0.45873 0.0
Tb935 Tb 0.85356 0.07377 0.59423 0.0
N936 N 0.89179 0.08696 0.55979 0.0
C937 C 0.93426 0.10575 0.51391 0.0
C938 C 0.91839 0.09794 0.571 0.0
C939 C 0.93981 0.10797 0.54824 0.0
H940 H 0.80727 1.02794 0.55262 0.0
H941 H 0.96053 0.11746 0.55717 0.0
H942 H 0.83155 0.06499 0.68219 0.0
H943 H 0.67868 0.11954 0.59588 0.0
H944 H 0.92263 0.09972 0.59757 0.0
H945 H 0.95092 0.11342 0.49633 0.0
H946 H 0.73185 0.13465 0.59492 0.0
H947 H 0.79695 1.01513 0.49381 0.0
H948 H 0.91769 0.09498 0.44972 0.0
H949 H 0.87303 0.06688 0.43243 0.0
H950 H 0.81859 1.02456 0.71957 0.0
H951 H 0.82814 0.03638 0.44878 0.0
H952 H 0.66168 0.0813 0.63609 0.0
N953 N 0.7865 0.0784 0.67248 0.0
C954 C 0.75722 0.07022 0.67609 0.0
C955 C 0.80111 0.03759 0.70797 0.0
C956 C 0.74902 0.04605 0.6967 0.0
C957 C 0.80836 0.06142 0.68704 0.0
C958 C 0.77136 1.03021 0.71332 0.0
N959 N 0.7441 0.10546 0.63435 0.0
C960 C 0.72435 0.11801 0.61253 0.0
C961 C 0.70549 0.0748 0.65772 0.0
C962 C 0.73542 0.08426 0.65658 0.0
C963 C 0.68487 0.088 0.63593 0.0
C964 C 0.6944 0.10949 0.61304 0.0
H965 H 0.76595 1.01145 0.72923 0.0
H966 H 0.71238 1.01908 0.71485 0.0
H967 H 0.67438 0.0443 0.6809 0.0
O968 O 0.78227 0.16583 0.64125 0.0
O969 O 0.77601 0.08526 0.60496 0.0
O970 O 0.81294 0.05157 0.61304 0.0
O971 O 0.76608 0.1377 0.67916 0.0
O972 O 0.79244 0.1312 0.58622 0.0
O973 O 0.81845 0.09278 0.55944 0.0
O974 O 0.85973 0.03868 0.62875 0.0
O975 O 0.86771 0.12047 0.5996 0.0
O976 O 0.8258 0.14865 0.61363 0.0
O977 O 0.88707 0.04136 0.5852 0.0
O978 O 0.87115 0.09867 0.63926 0.0
O979 O 0.8312 0.11687 0.67109 0.0
C980 C 0.78522 0.05758 0.60488 0.0
C981 C 0.73272 0.1742 0.65758 0.0
C982 C 0.69954 0.19558 0.61531 0.0
C983 C 0.67472 0.18626 0.63374 0.0
C984 C 0.70768 0.16471 0.67576 0.0
C985 C 0.67886 0.17111 0.66406 0.0
C986 C 0.72818 0.19086 0.62843 0.0
C987 C 0.8013 0.11716 0.559 0.0
C988 C 0.76331 0.16351 0.66529 0.0
C989 C 0.71897 0.03746 0.69894 0.0
C990 C 0.6973 0.0518 0.67956 0.0
C991 C 0.85315 0.14606 0.60135 0.0
C992 C 0.87716 0.99255 0.60579 0.0
C993 C 0.89672 0.9407 0.60672 0.0
C994 C 0.86844 0.93084 0.59613 0.0
C995 C 0.84946 0.9814 0.59546 0.0
C996 C 0.90106 0.97203 0.61113 0.0
C997 C 0.84522 0.95092 0.59058 0.0
C998 C 0.85977 0.1113 0.66679 0.0
C999 C 0.88049 1.02544 0.61125 0.0
H1000 H 0.65237 0.19044 0.62463 0.0
H1001 H 0.71036 0.15163 0.69829 0.0
H1002 H 0.65969 0.16358 0.67808 0.0
H1003 H 0.74731 0.1993 0.6149 0.0
H1004 H 0.86423 0.90734 0.59175 0.0
H1005 H 0.83092 0.99632 0.59131 0.0
H1006 H 0.92256 0.98031 0.61928 0.0
H1007 H 0.82367 0.94275 0.5825 0.0
Tb1008 Tb 0.99472 0.21081 0.93717 0.0
C1009 C 0.93115 0.25634 0.81137 0.0
N1010 N 0.95137 0.26753 0.83326 0.0
C1011 C 0.98246 0.28305 0.7878 0.0
C1012 C 0.93638 0.25683 0.77665 0.0
C1013 C 0.97624 0.28194 0.82206 0.0
C1014 C 0.96261 0.27013 0.765 0.0
C1015 C 0.88335 0.23267 0.80222 0.0
C1016 C 0.905 0.2447 0.82397 0.0
C1017 C 0.88885 0.23198 0.76764 0.0
C1018 C 0.91525 0.24418 0.75485 0.0
Tb1019 Tb 0.93885 0.26542 0.88838 0.0
N1020 N 0.9004 0.24616 0.85746 0.0
C1021 C 0.85658 0.22233 0.81585 0.0
C1022 C 0.87357 0.23783 0.8706 0.0
C1023 C 0.85152 0.22531 0.85014 0.0
H1024 H 0.99145 0.29217 0.83963 0.0
H1025 H 0.83048 0.21836 0.86078 0.0
H1026 H 0.96632 0.14392 0.95455 0.0
H1027 H 0.05838 0.28397 0.01779 0.0
H1028 H 0.86876 0.2413 0.89673 0.0
H1029 H 0.83939 0.21285 0.80002 0.0
H1030 H 0.04396 0.26087 0.9638 0.0
H1031 H 1.00249 0.29393 0.77901 0.0
H1032 H 0.87261 0.22256 0.75054 0.0
H1033 H 0.919 0.24396 0.7281 0.0
H1034 H 0.9467 0.11794 1.00443 0.0
H1035 H 0.96749 0.27096 0.7385 0.0
H1036 H 0.03523 0.26643 0.07039 0.0
N1037 N 0.97923 0.18275 0.98163 0.0
C1038 C 0.98361 0.19503 0.01228 0.0
C1039 C 0.95675 0.13979 1.00695 0.0
C1040 C 0.97348 0.18082 0.04151 0.0
C1041 C 0.96754 0.15469 0.97874 0.0
C1042 C 0.95921 0.15318 0.03844 0.0
N1043 N 1.01176 0.23209 0.98566 0.0
C1044 C 0.03369 0.25332 0.98666 0.0
C1045 C 1.0085 0.23263 0.04577 0.0
C1046 C 1.00084 0.22046 0.01444 0.0
C1047 C 0.02873 0.25642 0.04679 0.0
C1048 C 0.04188 0.26636 0.01715 0.0
H1049 H 0.95107 0.1415 0.06028 0.0
H1050 H 0.97119 0.18366 0.09558 0.0
H1051 H 1.00196 0.2291 0.09932 0.0
O1052 O 0.03396 0.20357 0.90934 0.0
O1053 O 0.9794 0.25334 0.96094 0.0
O1054 O 0.93158 0.26068 0.94218 0.0
O1055 O 1.02458 0.17672 0.95197 0.0
O1056 O 1.01484 0.24713 0.90692 0.0
O1057 O 0.98044 0.28531 0.90598 0.0
O1058 O 0.90381 0.29616 0.88168 0.0
O1059 O 0.97007 0.23422 0.86416 0.0
O1060 O 0.97089 0.19145 0.89384 0.0
O1061 O 0.94832 0.31119 0.89206 0.0
O1062 O 0.91684 0.23227 0.92135 0.0
O1063 O 0.94899 0.19184 0.92951 0.0
C1064 C 0.95201 0.26319 0.96555 0.0
C1065 C 0.05442 0.15483 0.90963 0.0
C1066 C 0.09425 0.11826 0.89838 0.0
C1067 C 0.07528 0.10454 0.8748 0.0
C1068 C 0.03617 0.14037 0.88623 0.0
C1069 C 0.04664 0.1155 0.86885 0.0
C1070 C 0.08365 0.14386 0.91555 0.0
C1071 C 1.0081 0.27582 0.90575 0.0
C1072 C 0.04307 0.18142 0.92765 0.0
C1073 C 0.9792 0.19397 0.07283 0.0
C1074 C 0.99673 0.21984 0.07496 0.0
C1075 C 0.96627 0.20522 0.86528 0.0
C1076 C 0.91033 0.33575 0.92069 0.0
C1077 C 0.88029 0.33879 0.97156 0.0
C1078 C 0.89419 0.36597 0.97968 0.0
C1079 C 0.92437 0.36264 0.92948 0.0
C1080 C 0.88863 0.32395 0.94199 0.0
C1081 C 0.91635 0.37758 0.95889 0.0
C1082 C 0.92204 0.20421 0.9305 0.0
C1083 C 0.92037 0.31854 0.89127 0.0
H1084 H 0.08267 0.08523 0.86073 0.0
H1085 H 1.01382 0.14839 0.8813 0.0
H1086 H 0.03244 0.10457 0.85066 0.0
H1087 H 0.09777 0.15483 0.93383 0.0
H1088 H 0.88788 0.37826 1.00192 0.0
H1089 H 0.94173 0.37186 0.91381 0.0
H1090 H 0.8776 0.30337 0.93494 0.0
H1091 H 0.92728 0.39829 0.96553 0.0
Tb1092 Tb 0.35953 0.99794 0.93506 0.0
C1093 C 0.32389 0.92803 0.80558 0.0
N1094 N 0.30944 0.94776 0.82545 0.0
C1095 C 0.29457 0.97592 0.77725 0.0
C1096 C 0.32529 0.93202 0.77066 0.0
C1097 C 0.29404 0.97107 0.8118 0.0
C1098 C 0.31049 0.95645 0.75659 0.0
C1099 C 0.35328 0.88303 0.80101 0.0
C1100 C 0.33734 0.90385 0.82048 0.0
C1101 C 0.35611 0.88762 0.76641 0.0
C1102 C 0.34173 0.91178 0.75115 0.0
Tb1103 Tb 0.30907 0.9379 0.88138 0.0
N1104 N 0.33436 0.90057 0.85403 0.0
C1105 C 0.36569 0.85819 0.8169 0.0
C1106 C 0.34458 0.87523 0.86918 0.0
C1107 C 0.36083 0.85401 0.85105 0.0
H1108 H 0.28152 0.98613 0.82752 0.0
H1109 H 0.36932 0.83427 0.86336 0.0
H1110 H 0.43093 0.98127 0.93037 0.0
H1111 H 0.29953 0.04541 0.03976 0.0
H1112 H 0.33983 0.87082 0.8951 0.0
H1113 H 0.37828 0.84175 0.80293 0.0
H1114 H 0.3112 0.03763 0.97995 0.0
H1115 H 0.2827 0.99466 0.7666 0.0
H1116 H 0.36935 0.87268 0.75123 0.0
H1117 H 0.34369 0.91476 0.72437 0.0
H1118 H 0.4712 0.96551 0.96899 0.0
H1119 H 0.31105 0.96034 0.72987 0.0
H1120 H 0.33172 1.02295 0.0833 0.0
N1121 N 0.39885 0.98632 0.969 0.0
C1122 C 0.39378 0.98673 1.00231 0.0
C1123 C 0.44944 0.97123 0.97871 0.0
C1124 C 0.41594 0.97822 0.02536 0.0
C1125 C 0.42668 0.98021 0.95694 0.0
C1126 C 0.44385 0.96962 0.01305 0.0
N1127 N 0.34849 1.00952 0.98962 0.0
C1128 C 0.32525 1.02757 0.99879 0.0
C1129 C 0.36205 1.0031 0.0475 0.0
C1130 C 0.3674 0.99887 0.01312 0.0
C1131 C 0.33671 1.01918 0.05713 0.0
C1132 C 0.31856 0.032 0.03262 0.0
H1133 H 0.46154 0.96289 0.02989 0.0
H1134 H 0.42648 0.9733 0.07799 0.0
H1135 H 0.37913 0.99521 0.09746 0.0
O1136 O 0.36526 0.03095 0.89795 0.0
O1137 O 0.31683 0.98208 0.95734 0.0
O1138 O 0.30906 0.93471 0.93594 0.0
O1139 O 0.38368 0.03706 0.94694 0.0
O1140 O 0.31475 1.01517 0.92056 0.0
O1141 O 0.28747 0.9808 0.88869 0.0
O1142 O 0.2814 0.90034 0.87383 0.0
O1143 O 0.33907 0.97187 0.86119 0.0
O1144 O 0.38032 0.97355 0.89309 0.0
O1145 O 0.26282 0.94377 0.88193 0.0
O1146 O 0.33906 0.91902 0.91998 0.0
O1147 O 0.37827 0.95183 0.9317 0.0
C1148 C 0.30321 0.95592 0.95765 0.0
C1149 C 0.40971 0.06027 0.90241 0.0
C1150 C 0.44442 0.10211 0.89172 0.0
C1151 C 0.46218 0.08237 0.87293 0.0
C1152 C 0.42826 0.04143 0.88366 0.0
C1153 C 0.45426 0.05242 0.86915 0.0
C1154 C 0.41811 0.09071 0.90683 0.0
C1155 C 0.29072 1.00688 0.90346 0.0
C1156 C 0.38167 0.04811 0.91701 0.0
C1157 C 0.40995 0.98014 0.05979 0.0
C1158 C 0.38298 0.9926 0.07087 0.0
C1159 C 0.36797 0.96869 0.86386 0.0
C1160 C 0.23858 0.90468 0.90869 0.0
C1161 C 0.23294 0.87617 0.96037 0.0
C1162 C 0.20364 0.88689 0.96345 0.0
C1163 C 0.20947 0.91561 0.91254 0.0
C1164 C 0.25025 0.8854 0.93293 0.0
C1165 C 0.19217 0.90681 0.93986 0.0
C1166 C 0.36603 0.92488 0.93206 0.0
C1167 C 0.25738 0.91543 0.88096 0.0
H1168 H 0.48253 0.09013 0.86127 0.0
H1169 H 0.42257 1.01815 0.88009 0.0
H1170 H 0.46835 0.03763 0.85469 0.0
H1171 H 0.40397 0.1055 0.92127 0.0
H1172 H 0.18959 0.87972 0.98389 0.0
H1173 H 0.20022 0.9311 0.89454 0.0
H1174 H 0.27266 0.87683 0.92978 0.0
H1175 H 0.16969 0.91523 0.94258 0.0
Tb1176 Tb 0.61071 0.3067 0.87801 0.0
C1177 C 0.56767 0.38149 0.01217 0.0
N1178 N 0.55416 0.36219 0.99097 0.0
C1179 C 0.52883 0.33937 0.0371 0.0
C1180 C 0.56317 0.38002 0.04695 0.0
C1181 C 0.53394 0.34198 1.0027 0.0
C1182 C 0.54387 0.35819 0.0594 0.0
C1183 C 0.597 0.4263 0.01889 0.0
C1184 C 0.58417 0.40412 0.99845 0.0
C1185 C 0.59421 0.42416 0.05381 0.0
C1186 C 0.57725 0.40103 0.06785 0.0
Tb1187 Tb 0.56642 0.36598 0.93568 0.0
N1188 N 0.58556 0.40559 0.96473 0.0
C1189 C 0.61116 0.45046 1.00349 0.0
C1190 C 0.59753 0.43005 0.94951 0.0
C1191 C 0.61096 0.45259 0.96861 0.0
H1192 H 0.52224 0.32739 0.98561 0.0
H1193 H 0.62115 0.47155 0.95643 0.0
H1194 H 0.56805 0.29461 0.81248 0.0
H1195 H 0.68207 0.2296 0.94505 0.0
H1196 H 0.59739 0.43181 0.92256 0.0
H1197 H 0.6214 0.468 0.01824 0.0
H1198 H 0.66674 0.27889 0.92356 0.0
H1199 H 0.51329 0.3229 0.04637 0.0
H1200 H 0.60421 0.44076 0.07007 0.0
H1201 H 0.57442 0.40014 0.09472 0.0
H1202 H 0.54208 0.25162 0.78618 0.0
H1203 H 0.53974 0.35627 0.08599 0.0
H1204 H 0.65307 0.18449 0.93001 0.0
N1205 N 0.58772 0.26836 0.85073 0.0
C1206 C 0.59261 0.24061 0.86281 0.0
C1207 C 0.55607 0.24823 0.8079 0.0
C1208 C 0.57825 0.2155 0.84899 0.0
C1209 C 0.57075 0.27247 0.82276 0.0
C1210 C 0.55927 0.2197 0.82158 0.0
N1211 N 0.62916 0.26198 0.897 0.0
C1212 C 0.65432 0.2593 0.91625 0.0
C1213 C 0.6221 0.20866 0.89852 0.0
C1214 C 0.61421 0.23727 0.88696 0.0
C1215 C 0.64635 0.20606 0.92038 0.0
C1216 C 0.66287 0.23144 0.92878 0.0
H1217 H 0.54781 0.20099 0.81014 0.0
H1218 H 0.57326 0.16745 0.85212 0.0
H1219 H 0.6117 0.16145 0.89571 0.0
O1220 O 0.63352 0.29187 0.83527 0.0
O1221 O 0.562 0.31115 0.87719 0.0
O1222 O 0.54774 0.32054 0.93058 0.0
O1223 O 0.64282 0.33496 0.85644 0.0
O1224 O 0.60827 0.29324 0.93024 0.0
O1225 O 0.58399 0.32742 0.96578 0.0
O1226 O 0.53132 0.36849 0.90057 0.0
O1227 O 0.6131 0.37505 0.92223 0.0
O1228 O 0.63737 0.33 0.91762 0.0
O1229 O 0.53274 0.39845 0.94251 0.0
O1230 O 0.59 0.38179 0.88997 0.0
O1231 O 0.58079 0.34102 0.8589 0.0
C1232 C 0.54594 0.30402 0.90345 0.0
C1233 C 0.68307 0.30584 0.83752 0.0
C1234 C 0.72519 0.29387 0.87336 0.0
C1235 C 0.73947 0.28002 0.84618 0.0
C1236 C 0.69745 0.29218 0.8104 0.0
C1237 C 0.72571 0.27951 0.81473 0.0
C1238 C 0.69732 0.307 0.86854 0.0
C1239 C 0.59891 0.30215 0.95985 0.0
C1240 C 0.65162 0.31442 0.83551 0.0
C1241 C 0.58443 0.18704 0.86197 0.0
C1242 C 0.60633 0.18362 0.88677 0.0
C1243 C 0.63611 0.35785 0.92895 0.0
C1244 C 0.48467 0.38711 0.92055 0.0
C1245 C 0.43377 0.40812 0.91696 0.0
C1246 C 0.42247 0.3798 0.92512 0.0
C1247 C 0.47239 0.35937 0.92905 0.0
C1248 C 0.46519 0.41172 0.91499 0.0
C1249 C 0.44158 0.35582 0.93132 0.0
C1250 C 0.58881 0.36904 0.86022 0.0
C1251 C 0.51755 0.39001 0.9164 0.0
H1252 H 0.7613 0.27005 0.84912 0.0
H1253 H 0.6865 0.29058 0.7863 0.0
H1254 H 0.73676 0.26886 0.79382 0.0
H1255 H 0.68615 0.31719 0.88958 0.0
H1256 H 0.39864 0.37625 0.927 0.0
H1257 H 0.48667 0.3403 0.9336 0.0
H1258 H 0.47437 0.43327 0.90838 0.0
H1259 H 0.4324 0.33425 0.93774 0.0
Tb1260 Tb 0.25828 0.61818 0.87518 0.0
C1261 C 0.18041 0.57215 1.00735 0.0
N1262 N 0.20196 0.56075 0.98745 0.0
C1263 C 0.22515 0.53813 0.03527 0.0
C1264 C 0.18069 0.5679 0.04223 0.0
C1265 C 0.22352 0.54269 1.0007 0.0
C1266 C 0.20391 0.55121 0.05623 0.0
C1267 C 0.13207 0.59558 0.0109 0.0
C1268 C 0.15673 0.58579 0.9921 0.0
C1269 C 0.13279 0.59311 0.04592 0.0
C1270 C 0.15717 0.57933 0.06161 0.0
Tb1271 Tb 0.19956 0.5725 0.9317 0.0
N1272 N 0.15688 0.58707 0.95835 0.0
C1273 C 0.10712 0.60647 0.99377 0.0
C1274 C 0.13192 0.59585 0.94139 0.0
C1275 C 0.10686 0.60612 0.95881 0.0
H1276 H 0.23988 0.5322 0.98476 0.0
H1277 H 0.08741 0.61375 0.94529 0.0
H1278 H 0.26212 0.57821 0.80645 0.0
H1279 H 0.34904 0.66277 0.95149 0.0
H1280 H 0.13159 0.59556 0.91438 0.0
H1281 H 0.08767 0.61427 1.00723 0.0
H1282 H 0.29942 0.66363 0.92604 0.0
H1283 H 0.24269 0.52442 0.0457 0.0
H1284 H 0.11428 0.60092 0.06095 0.0
H1285 H 0.15709 0.57666 0.08852 0.0
H1286 H 0.2983 0.54439 0.77885 0.0
H1287 H 0.20502 0.5474 0.08294 0.0
H1288 H 0.38515 0.62344 0.93589 0.0
N1289 N 0.29098 0.58835 0.84707 0.0
C1290 C 0.31864 0.58552 0.86025 0.0
C1291 C 0.30424 0.55566 0.80187 0.0
C1292 C 0.33996 0.56649 0.84557 0.0
C1293 C 0.28385 0.57477 0.81748 0.0
C1294 C 0.33228 0.55111 0.81628 0.0
N1295 N 0.30538 0.62312 0.89844 0.0
C1296 C 0.31432 0.64573 0.91937 0.0
C1297 C 0.35513 0.60241 0.90054 0.0
C1298 C 0.32596 0.60319 0.88731 0.0
C1299 C 0.36302 0.62331 0.925 0.0
C1300 C 0.34274 0.64555 0.9338 0.0
H1301 H 0.34802 0.53626 0.80421 0.0
H1302 H 0.38489 0.54906 0.84966 0.0
H1303 H 0.39825 0.58065 0.89787 0.0
O1304 O 0.28358 0.64193 0.84023 0.0
O1305 O 0.25391 0.5693 0.87678 0.0
O1306 O 0.24594 0.55702 0.9305 0.0
O1307 O 0.23675 0.64942 0.84385 0.0
O1308 O 0.25848 0.62919 0.92873 0.0
O1309 O 0.24037 0.58845 0.95878 0.0
O1310 O 0.19915 0.53902 0.89418 0.0
O1311 O 0.18756 0.61979 0.92564 0.0
O1312 O 0.22835 0.64772 0.90613 0.0
O1313 O 0.17077 0.5358 0.93725 0.0
O1314 O 0.18266 0.59692 0.88691 0.0
O1315 O 0.22264 0.5917 0.85308 0.0
C1316 C 0.262 0.55439 0.90346 0.0
C1317 C 0.26822 0.69063 0.83638 0.0
C1318 C 0.28432 0.72941 0.87526 0.0
C1319 C 0.28881 0.74863 0.84784 0.0
C1320 C 0.27292 0.70977 0.80935 0.0
C1321 C 0.28301 0.73885 0.81518 0.0
C1322 C 0.2735 0.70066 0.86898 0.0
C1323 C 0.25649 0.61326 0.95632 0.0
C1324 C 0.26171 0.659 0.83145 0.0
C1325 C 0.36835 0.56402 0.86013 0.0
C1326 C 0.37591 0.58192 0.88765 0.0
C1327 C 0.2016 0.64543 0.92072 0.0
C1328 C 0.18542 0.49006 0.91297 0.0
C1329 C 0.16701 0.43796 0.91302 0.0
C1330 C 0.1961 0.42868 0.92144 0.0
C1331 C 0.21396 0.47977 0.92123 0.0
C1332 C 0.16194 0.46908 0.90895 0.0
C1333 C 0.2192 0.44932 0.92534 0.0
C1334 C 0.1947 0.59916 0.85693 0.0
C1335 C 0.17964 0.52263 0.91003 0.0
H1336 H 0.29619 0.7714 0.85154 0.0
H1337 H 0.26933 0.70212 0.78395 0.0
H1338 H 0.28656 0.75378 0.79433 0.0
H1339 H 0.26982 0.68544 0.88934 0.0
H1340 H 0.20107 0.40537 0.92576 0.0
H1341 H 0.23217 0.4953 0.92486 0.0
H1342 H 0.13988 0.47706 0.90253 0.0
H1343 H 0.2413 0.44164 0.93197 0.0
H1344 H 0.56652 0.17044 0.29977 0.0
H1345 H 0.63963 0.11691 0.15382 0.0
H1346 H 0.65513 0.17141 0.34121 0.0
H1347 H 0.71031 0.09233 0.22119 0.0
H1348 H 0.612 0.13814 0.20131 0.0
H1349 H 0.5858 0.14295 0.25074 0.0
C1350 C 0.58986 0.16433 0.29891 0.0
C1351 C 0.60913 0.17313 0.32488 0.0
C1352 C 0.63341 0.12784 0.20589 0.0
C1353 C 0.63179 0.14234 0.26823 0.0
C1354 C 0.64932 0.11571 0.17859 0.0
C1355 C 0.67787 0.10322 0.1831 0.0
C1356 C 0.64606 0.12759 0.23822 0.0
C1357 C 0.68907 0.10256 0.21598 0.0
C1358 C 0.60106 0.14906 0.27056 0.0
C1359 C 0.63936 0.16507 0.32193 0.0
N1360 N 0.67344 0.11477 0.24191 0.0
N1361 N 0.64961 0.15025 0.29442 0.0
H1362 H 0.44427 0.63391 0.16342 0.0
H1363 H 0.38127 0.56587 0.30694 0.0
H1364 H 0.46647 0.70667 0.22958 0.0
H1365 H 0.39272 0.65242 0.35222 0.0
H1366 H 0.40948 0.58334 0.25791 0.0
H1367 H 0.42164 0.60747 0.21054 0.0
C1368 C 0.44475 0.64423 0.18793 0.0
C1369 C 0.45746 0.67274 0.19223 0.0
C1370 C 0.40597 0.59859 0.27851 0.0
C1371 C 0.43143 0.6422 0.24715 0.0
C1372 C 0.39022 0.58831 0.30688 0.0
C1373 C 0.38458 0.6076 0.33392 0.0
C1374 C 0.41626 0.62844 0.27716 0.0
C1375 C 0.39637 0.63668 0.33203 0.0
C1376 C 0.43181 0.62896 0.2151 0.0
C1377 C 0.45705 0.68484 0.22475 0.0
N1378 N 0.41139 0.64609 0.3044 0.0
N1379 N 0.44417 0.66972 0.2506 0.0
H1380 H 0.91568 0.4058 0.36426 0.0
H1381 H 0.91781 0.43861 0.16565 0.0
H1382 H 0.98133 0.3687 0.29772 0.0
H1383 H 0.85291 0.47608 0.23311 0.0
H1384 H 0.94193 0.41376 0.21329 0.0
H1385 H 0.89311 0.4323 0.31682 0.0
C1386 C 0.92548 0.40335 0.33967 0.0
C1387 C 0.95028 0.38464 0.335 0.0
C1388 C 0.92254 0.42759 0.21776 0.0
C1389 C 0.92455 0.41531 0.28011 0.0
C1390 C 0.9088 0.44199 0.19048 0.0
C1391 C 0.88321 0.45973 0.19511 0.0
C1392 C 0.91086 0.4309 0.25026 0.0
C1393 C 0.87256 0.46279 0.2281 0.0
C1394 C 0.9125 0.41845 0.31247 0.0
C1395 C 0.96199 0.3825 0.30246 0.0
N1396 N 0.88628 0.44856 0.25415 0.0
N1397 N 0.94906 0.39749 0.2764 0.0
H1398 H 0.19954 0.97864 0.28985 0.0
H1399 H 0.0895 0.84895 0.22447 0.0
H1400 H 0.14229 0.92959 0.35624 0.0
H1401 H 0.12819 0.91418 0.15874 0.0
H1402 H 0.11085 0.87563 0.27263 0.0
H1403 H 0.17611 0.95348 0.24196 0.0
C1404 C 0.18201 0.96261 0.29446 0.0
C1405 C 0.17308 0.95642 0.32748 0.0
C1406 C 0.11467 0.88422 0.24772 0.0
C1407 C 0.14593 0.92691 0.27201 0.0
C1408 C 0.10265 0.86875 0.22003 0.0
C1409 C 0.10718 0.87892 0.18712 0.0
C1410 C 0.13181 0.91019 0.24288 0.0
C1411 C 0.1239 0.90536 0.18344 0.0
C1412 C 0.1685 0.94825 0.26694 0.0
C1413 C 0.14987 0.93548 0.33144 0.0
N1414 N 0.1357 0.91978 0.21072 0.0
N1415 N 0.13742 0.92139 0.30427 0.0
H1416 H 0.40962 0.92365 0.86529 0.0
H1417 H 0.43708 0.92226 0.66569 0.0
H1418 H 0.36769 0.98539 0.7977 0.0
H1419 H 0.47157 0.8548 0.73191 0.0
H1420 H 0.41493 0.94787 0.71397 0.0
H1421 H 0.436 0.90088 0.81771 0.0
C1422 C 0.40626 0.93269 0.84047 0.0
C1423 C 0.38605 0.95626 0.83549 0.0
C1424 C 0.42754 0.9276 0.71805 0.0
C1425 C 0.41655 0.93036 0.78056 0.0
C1426 C 0.44038 0.91296 0.69038 0.0
C1427 C 0.45648 0.88623 0.69446 0.0
C1428 C 0.43087 0.91577 0.75044 0.0
C1429 C 0.4595 0.87531 0.72733 0.0
C1430 C 0.42125 0.91957 0.81322 0.0
C1431 C 0.38271 0.96702 0.8027 0.0
N1432 N 0.44688 0.89 0.75382 0.0
N1433 N 0.39763 0.95402 0.77663 0.0
H1434 H 0.58476 0.35139 0.79448 0.0
H1435 H 0.63846 0.43462 0.65895 0.0
H1436 H 0.62456 0.41949 0.85633 0.0
H1437 H 0.70645 0.46409 0.72772 0.0
H1438 H 0.61183 0.41147 0.70569 0.0
H1439 H 0.60799 0.37392 0.74533 0.0
C1440 C 0.59816 0.37129 0.79776 0.0
C1441 C 0.60228 0.38363 0.82984 0.0
C1442 C 0.6327 0.42275 0.71065 0.0
C1443 C 0.62925 0.40998 0.77292 0.0
C1444 C 0.64783 0.43631 0.68386 0.0
C1445 C 0.67493 0.45141 0.6891 0.0
C1446 C 0.64445 0.42436 0.74335 0.0
C1447 C 0.68577 0.45266 0.72221 0.0
C1448 C 0.61134 0.38434 0.76947 0.0
C1449 C 0.62033 0.4093 0.83222 0.0
N1450 N 0.67051 0.43957 0.7479 0.0
N1451 N 0.63326 0.42139 0.80434 0.0
H1452 H 0.13842 0.66075 0.65816 0.0
H1453 H 0.13975 0.62765 0.85687 0.0
H1454 H 0.07247 0.69579 0.7257 0.0
H1455 H 0.21074 0.60172 0.79036 0.0
H1456 H 0.1135 0.65039 0.80927 0.0
H1457 H 0.16351 0.63658 0.70563 0.0
C1458 C 0.129 0.66309 0.68293 0.0
C1459 C 0.10334 0.68057 0.68786 0.0
C1460 C 0.13477 0.63962 0.80502 0.0
C1461 C 0.132 0.65257 0.74281 0.0
C1462 C 0.14979 0.62648 0.8323 0.0
C1463 C 0.17761 0.61243 0.82793 0.0
C1464 C 0.14735 0.63866 0.77275 0.0
C1465 C 0.1894 0.6121 0.79524 0.0
C1466 C 0.14346 0.64939 0.71017 0.0
C1467 C 0.09229 0.68275 0.7207 0.0
N1468 N 0.1743 0.62485 0.76917 0.0
N1469 N 0.10659 0.66904 0.74675 0.0
H1470 H 0.91726 0.13521 0.66584 0.0
H1471 H 0.92011 0.16521 0.86541 0.0
H1472 H 0.84666 0.11075 0.73332 0.0
H1473 H 0.98214 0.20739 0.79854 0.0
H1474 H 0.89653 0.14045 0.81742 0.0
H1475 H 0.94492 0.15684 0.7137 0.0
C1476 C 0.90782 0.13382 0.69069 0.0
C1477 C 0.87953 0.12091 0.69535 0.0
C1478 C 0.91541 0.15497 0.81308 0.0
C1479 C 0.91105 0.14586 0.75043 0.0
C1480 C 0.92899 0.16904 0.84062 0.0
C1481 C 0.95305 0.18865 0.8361 0.0
C1482 C 0.92615 0.15992 0.78045 0.0
C1483 C 0.96348 0.19269 0.80321 0.0
C1484 C 0.92349 0.14646 0.71801 0.0
C1485 C 0.8683 0.12041 0.72826 0.0
N1486 N 0.95005 0.17854 0.77675 0.0
N1487 N 0.88395 0.13255 0.75421 0.0
H1488 H 0.39509 0.13389 0.47102 0.0
H1489 H 0.29642 1.03001 0.34952 0.0
H1490 H 0.41928 0.11955 0.36807 0.0
H1491 H 0.28702 0.03292 0.4566 0.0
H1492 H 0.34056 0.06253 0.35422 0.0
H1493 H 0.35509 0.09728 0.46503 0.0
C1494 C 0.39219 0.12279 0.44714 0.0
C1495 C 0.41084 0.12993 0.42008 0.0
C1496 C 0.3289 0.05593 0.37669 0.0
C1497 C 0.36405 0.08779 0.4127 0.0
C1498 C 0.30374 0.03711 0.37402 0.0
C1499 C 0.28785 1.02821 0.40266 0.0
C1500 C 0.33816 0.06648 0.40828 0.0
C1501 C 0.29814 0.03911 0.43367 0.0
C1502 C 0.36918 0.10182 0.44369 0.0
C1503 C 0.40574 0.11465 0.38975 0.0
N1504 N 0.3223 0.05755 0.43557 0.0
N1505 N 0.38273 0.0946 0.38678 0.0
H1506 H 0.44556 0.42293 0.45345 0.0
H1507 H 0.50753 0.27894 0.35393 0.0
H1508 H 0.40042 0.38458 0.36848 0.0
H1509 H 0.53213 0.29871 0.45549 0.0
H1510 H 0.47286 0.32155 0.35487 0.0
H1511 H 0.48284 0.38256 0.45026 0.0
C1512 C 0.4437 0.40634 0.43383 0.0
C1513 C 0.41962 0.40726 0.41129 0.0
C1514 C 0.48609 0.31682 0.37688 0.0
C1515 C 0.46235 0.36072 0.40748 0.0
C1516 C 0.50609 0.2926 0.37623 0.0
C1517 C 0.52389 0.286 0.40416 0.0
C1518 C 0.4837 0.33475 0.40576 0.0
C1519 C 0.51987 0.30367 0.43294 0.0
C1520 C 0.46486 0.38309 0.43219 0.0
C1521 C 0.41837 0.38478 0.38658 0.0
N1522 N 0.5006 0.32732 0.43289 0.0
N1523 N 0.43929 0.36264 0.38532 0.0
H1524 H 0.12878 0.45546 0.44727 0.0
H1525 H 0.26258 0.53349 0.34456 0.0
H1526 H 0.12598 0.47101 0.34101 0.0
H1527 H 0.25918 0.53054 0.45195 0.0
H1528 H 0.21454 0.50711 0.34225 0.0
H1529 H 0.17855 0.47851 0.44911 0.0
C1530 C 0.13871 0.46331 0.42425 0.0
C1531 C 0.1228 0.46133 0.39399 0.0
C1532 C 0.22414 0.51242 0.36638 0.0
C1533 C 0.18007 0.48813 0.39591 0.0
C1534 C 0.25142 0.52791 0.36766 0.0
C1535 C 0.26428 0.53579 0.39846 0.0
C1536 C 0.20976 0.50394 0.3962 0.0
C1537 C 0.24972 0.52593 0.4276 0.0
C1538 C 0.1671 0.47674 0.42535 0.0
C1539 C 0.137 0.47231 0.36505 0.0
N1540 N 0.22333 0.51081 0.42578 0.0
N1541 N 0.16455 0.48517 0.36675 0.0
H1542 H 0.16648 0.18464 0.38985 0.0
H1543 H 0.99865 0.23697 0.42941 0.0
H1544 H 0.10127 0.12735 0.43595 0.0
H1545 H 0.06448 0.29502 0.38603 0.0
H1546 H 0.0353 0.1966 0.43079 0.0
H1547 H 0.12931 0.22437 0.38674 0.0
C1548 C 0.14435 0.18028 0.39941 0.0
C1549 C 0.1374 0.15233 0.4136 0.0
C1550 C 0.04184 0.21806 0.42082 0.0
C1551 C 0.09408 0.19844 0.40976 0.0
C1552 C 1.02076 0.24118 0.41974 0.0
C1553 C 0.0281 0.26945 0.40685 0.0
C1554 C 0.07093 0.22294 0.40907 0.0
C1555 C 0.0576 0.27368 0.39599 0.0
C1556 C 0.12302 0.20314 0.3975 0.0
C1557 C 0.1079 0.14825 0.42469 0.0
N1558 N 0.07778 0.25073 0.39721 0.0
N1559 N 0.08753 0.17098 0.42271 0.0
H1560 H 0.9254 0.9451 0.08026 0.0
H1561 H 0.79614 0.03915 0.1728 0.0
H1562 H 0.9251 0.96574 0.18562 0.0
H1563 H 0.79054 1.01294 0.0692 0.0
H1564 H 0.84335 1.0121 0.17747 0.0
H1565 H 0.87591 0.96852 0.07528 0.0
C1566 C 0.9149 0.95419 0.10242 0.0
C1567 C 0.92991 0.9536 0.13335 0.0
C1568 C 0.83179 1.01213 0.1537 0.0
C1569 C 0.87311 0.98095 0.12774 0.0
C1570 C 0.80472 1.02769 0.15102 0.0
C1571 C 0.78905 1.02849 0.12059 0.0
C1572 C 0.8437 0.99714 0.12572 0.0
C1573 C 0.80158 1.01297 0.09327 0.0
C1574 C 0.88666 0.9678 0.09951 0.0
C1575 C 0.91495 0.96608 0.16107 0.0
N1576 N 0.82807 0.99812 0.09644 0.0
N1577 N 0.88774 0.97926 0.15756 0.0
H1578 H 0.54261 0.78376 0.17639 0.0
H1579 H 0.60894 0.92411 0.07449 0.0
H1580 H 0.52697 0.79681 0.07137 0.0
H1581 H 0.60475 0.92011 0.18197 0.0
H1582 H 0.58522 0.87448 0.07167 0.0
H1583 H 0.57117 0.8305 0.17792 0.0
C1584 C 0.54467 0.79675 0.15376 0.0
C1585 C 0.53094 0.78702 0.12413 0.0
C1586 C 0.58974 0.88437 0.09588 0.0
C1587 C 0.56509 0.84017 0.12514 0.0
C1588 C 0.60356 0.91262 0.09748 0.0
C1589 C 0.6089 0.92649 0.12851 0.0
C1590 C 0.58148 0.86955 0.12553 0.0
C1591 C 0.60098 0.9105 0.15747 0.0
C1592 C 0.56136 0.8233 0.1545 0.0
C1593 C 0.5363 0.80383 0.09503 0.0
N1594 N 0.58775 0.88314 0.15527 0.0
N1595 N 0.55267 0.82956 0.09628 0.0
H1596 H 0.62926 0.60437 0.07976 0.0
H1597 H 0.78155 0.55264 0.17031 0.0
H1598 H 0.67434 0.65684 0.15476 0.0
H1599 H 0.75057 0.51392 0.078 0.0
H1600 H 0.73867 0.58689 0.16968 0.0
H1601 H 0.66921 0.56674 0.08373 0.0
C1602 C 0.64727 0.6078 0.09741 0.0
C1603 C 0.64836 0.634 0.11683 0.0
C1604 C 0.74113 0.57085 0.14959 0.0
C1605 C 0.69441 0.59093 0.12148 0.0
C1606 C 0.76558 0.55122 0.15003 0.0
C1607 C 0.76957 0.53025 0.12429 0.0
C1608 C 0.72024 0.56951 0.12328 0.0
C1609 C 0.74835 0.52972 0.09837 0.0
C1610 C 0.67024 0.58641 0.09947 0.0
C1611 C 0.67257 0.63721 0.13904 0.0
N1612 N 0.72461 0.54886 0.09859 0.0
N1613 N 0.69445 0.6161 0.14073 0.0
H1614 H 0.04268 0.75159 0.16042 0.0
H1615 H 0.90851 0.67287 0.05829 0.0
H1616 H 1.00275 0.78574 0.0702 0.0
H1617 H 0.94387 0.63428 0.14856 0.0
H1618 H 0.94499 0.71294 0.06236 0.0
H1619 H 1.00877 0.70815 0.15733 0.0
C1620 C 1.02678 0.75016 0.14009 0.0
C1621 C 1.02575 0.77273 0.11559 0.0
C1622 C 0.94506 0.69577 0.08135 0.0
C1623 C 0.98683 0.72266 0.11175 0.0
C1624 C 0.92409 0.67268 0.079 0.0
C1625 C 0.9227 0.64997 0.1032 0.0
C1626 C 0.96525 0.69679 0.10828 0.0
C1627 C 0.94401 0.65109 0.12918 0.0
C1628 C 1.00747 0.7252 0.13826 0.0
C1629 C 1.00467 0.7692 0.08974 0.0
N1630 N 0.96417 0.67414 0.13118 0.0
N1631 N 0.98632 0.74495 0.08858 0.0
H1632 H 0.78718 1.00074 0.63141 0.0
H1633 H 0.61916 0.95804 0.57721 0.0
H1634 H 0.73006 0.05956 0.57527 0.0
H1635 H 0.67871 0.89762 0.62797 0.0
H1636 H 0.65829 0.9964 0.57874 0.0
H1637 H 0.74733 0.96324 0.63157 0.0
C1638 C 0.76642 1.00567 0.61875 0.0
C1639 C 0.76213 0.03343 0.60322 0.0
C1640 C 0.66277 0.97475 0.5896 0.0
C1641 C 0.71589 0.99057 0.60376 0.0
C1642 C 0.64028 0.95285 0.58897 0.0
C1643 C 0.64549 0.92424 0.60219 0.0
C1644 C 0.69083 0.96822 0.60369 0.0
C1645 C 0.67362 0.91902 0.61685 0.0
C1646 C 0.74349 0.98431 0.6191 0.0
C1647 C 0.73439 0.0386 0.58775 0.0
N1648 N 0.69506 0.9406 0.6171 0.0
N1649 N 0.71244 1.01753 0.58848 0.0
H1650 H 0.61806 0.64041 0.66163 0.0
H1651 H 0.52742 0.76948 0.56532 0.0
H1652 H 0.63406 0.66422 0.55901 0.0
H1653 H 0.53592 0.76881 0.67246 0.0
H1654 H 0.5607 0.72631 0.56212 0.0
H1655 H 0.58149 0.68156 0.66566 0.0
C1656 C 0.61347 0.65387 0.63978 0.0
C1657 C 0.62908 0.64861 0.60985 0.0
C1658 C 0.55504 0.73531 0.58644 0.0
C1659 C 0.58733 0.696 0.61431 0.0
C1660 C 0.53595 0.76011 0.58833 0.0
C1661 C 0.52776 0.77246 0.61938 0.0
C1662 C 0.56631 0.72231 0.61584 0.0
C1663 C 0.54019 0.75928 0.64813 0.0
C1664 C 0.59282 0.67758 0.64218 0.0
C1665 C 0.62252 0.66727 0.58253 0.0
N1666 N 0.55856 0.73493 0.64574 0.0
N1667 N 0.60225 0.68988 0.58538 0.0
H1668 H 0.92375 0.60683 0.57279 0.0
H1669 H 0.78078 0.54331 0.67192 0.0
H1670 H 0.91871 0.60161 0.68018 0.0
H1671 H 0.79621 0.52576 0.5676 0.0
H1672 H 0.82766 0.57168 0.67415 0.0
H1673 H 0.87383 0.58407 0.56914 0.0
C1674 C 0.91201 0.60137 0.5956 0.0
C1675 C 0.92566 0.60615 0.62683 0.0
C1676 C 0.82086 0.5616 0.65073 0.0
C1677 C 0.86831 0.57996 0.62288 0.0
C1678 C 0.79416 0.54521 0.64953 0.0
C1679 C 0.78506 0.5311 0.61986 0.0
C1680 C 0.83861 0.56434 0.62187 0.0
C1681 C 0.80268 0.53558 0.59122 0.0
C1682 C 0.88357 0.58813 0.59351 0.0
C1683 C 0.90931 0.5982 0.65553 0.0
N1684 N 0.82862 0.5515 0.59297 0.0
N1685 N 0.88172 0.58559 0.65286 0.0
H1686 H 0.89156 0.88695 0.63923 0.0
H1687 H 0.05482 0.82655 0.59075 0.0
H1688 H 0.95644 0.94056 0.58751 0.0
H1689 H 0.99014 0.7735 0.64321 0.0
H1690 H 1.0198 0.86843 0.59014 0.0
H1691 H 0.92767 0.8462 0.64239 0.0
C1692 C 0.9135 0.89031 0.62863 0.0
C1693 C 0.92064 0.91748 0.61278 0.0
C1694 C 1.01318 0.84777 0.60198 0.0
C1695 C 0.96264 0.87013 0.61634 0.0
C1696 C 0.03335 0.82381 0.60262 0.0
C1697 C 1.0259 0.79652 0.61786 0.0
C1698 C 0.98485 0.84471 0.61651 0.0
C1699 C 0.99709 0.79405 0.63138 0.0
C1700 C 0.93418 0.86685 0.63046 0.0
C1701 C 0.94976 0.92028 0.60009 0.0
N1702 N 0.97778 0.81776 0.63053 0.0
N1703 N 0.96948 0.89695 0.60192 0.0
H1704 H 0.14987 0.14572 0.90409 0.0
H1705 H 0.23324 0.98814 0.89621 0.0
H1706 H 0.10751 0.05945 0.90735 0.0
H1707 H 0.28361 0.06847 0.91508 0.0
H1708 H 0.18786 1.01622 0.89837 0.0
H1709 H 0.19899 0.12072 0.90775 0.0
C1710 C 0.15082 0.12163 0.90602 0.0
C1711 C 0.12436 0.10469 0.9049 0.0
C1712 C 0.20866 1.02804 0.90199 0.0
C1713 C 0.18045 0.076 0.90876 0.0
C1714 C 0.23507 1.01186 0.90039 0.0
C1715 C 0.26294 1.02571 0.9048 0.0
C1716 C 0.20931 0.05889 0.90788 0.0
C1717 C 0.26282 0.0567 0.91124 0.0
C1718 C 0.17888 0.10739 0.90794 0.0
C1719 C 0.12711 0.07354 0.90739 0.0
N1720 N 0.23646 0.07232 0.91232 0.0
N1721 N 0.15437 0.0604 0.90893 0.0
H1722 H 0.45905 0.14 0.84083 0.0
H1723 H 0.53256 0.26691 0.9562 0.0
H1724 H 0.45313 0.13731 0.94824 0.0
H1725 H 0.51511 0.27836 0.85123 0.0
H1726 H 0.50514 0.21932 0.95459 0.0
H1727 H 0.48118 0.1898 0.8445 0.0
C1728 C 0.46207 0.15006 0.86526 0.0
C1729 C 0.454 0.13429 0.89425 0.0
C1730 C 0.50738 0.23217 0.93185 0.0
C1731 C 0.48008 0.19175 0.89874 0.0
C1732 C 0.52309 0.25939 0.93273 0.0
C1733 C 0.52729 0.2762 0.90343 0.0
C1734 C 0.4955 0.2216 0.90144 0.0
C1735 C 0.51384 0.26552 0.87402 0.0
C1736 C 0.47479 0.17859 0.86734 0.0
C1737 C 0.45865 0.14863 0.9252 0.0
N1738 N 0.49893 0.23894 0.87368 0.0
N1739 N 0.47163 0.17632 0.92664 0.0
H1740 H 0.38825 0.40921 0.87137 0.0
H1741 H 0.30562 0.55092 0.95106 0.0
H1742 H 0.42837 0.46287 0.94871 0.0
H1743 H 0.27958 0.51256 0.85674 0.0
H1744 H 0.3496 0.51822 0.95194 0.0
H1745 H 0.34803 0.44599 0.86623 0.0
C1746 C 0.38883 0.42901 0.88697 0.0
C1747 C 0.41195 0.43295 0.91037 0.0
C1748 C 0.33438 0.51695 0.93096 0.0
C1749 C 0.36514 0.47511 0.90524 0.0
C1750 C 0.30913 0.53552 0.93057 0.0
C1751 C 0.2889 0.53461 0.90374 0.0
C1752 C 0.33924 0.49658 0.9047 0.0
C1753 C 0.29468 0.51423 0.87778 0.0
C1754 C 0.36575 0.45001 0.88408 0.0
C1755 C 0.41127 0.459 0.93007 0.0
N1756 N 0.31909 0.49595 0.87902 0.0
N1757 N 0.38814 0.47882 0.92736 0.0
H1758 H 0.10698 0.44253 0.9294 0.0
H1759 H 0.06895 0.26936 0.89479 0.0
H1760 H 0.17066 0.38018 0.88845 0.0
H1761 H 1.00236 0.33603 0.91681 0.0
H1762 H 0.1071 0.30884 0.89502 0.0
H1763 H 0.06881 0.40349 0.92666 0.0
C1764 C 0.11303 0.42083 0.91955 0.0
C1765 C 0.14251 0.41495 0.90945 0.0
C1766 C 0.08409 0.3148 0.89968 0.0
C1767 C 0.09856 0.36951 0.90686 0.0
C1768 C 0.06227 0.2922 0.89961 0.0
C1769 C 0.03217 0.29915 0.90555 0.0
C1770 C 0.07595 0.34468 0.9061 0.0
C1771 C 1.02509 0.32935 0.91175 0.0
C1772 C 0.09115 0.39837 0.91824 0.0
C1773 C 0.14864 0.38593 0.89734 0.0
N1774 N 0.04666 0.35077 0.91196 0.0
N1775 N 0.12707 0.36446 0.89659 0.0
H1776 H 0.74393 0.18346 0.35155 0.0
H1777 H 0.86169 0.22709 0.48286 0.0
H1778 H 0.74357 0.26404 0.41057 0.0
H1779 H 0.86417 0.14594 0.42532 0.0
H1780 H 0.80788 0.22911 0.47583 0.0
H1781 H 0.77686 0.16013 0.39289 0.0
C1782 C 0.75059 0.19601 0.37352 0.0
C1783 C 0.74182 0.22578 0.37755 0.0
C1784 C 0.81993 0.21021 0.46565 0.0
C1785 C 0.77967 0.19976 0.42431 0.0
C1786 C 0.85064 0.20881 0.4703 0.0
C1787 C 0.86727 0.18709 0.45342 0.0
C1788 C 0.80643 0.19027 0.44308 0.0
C1789 C 0.85202 0.16366 0.43774 0.0
C1790 C 0.76916 0.18272 0.39717 0.0
C1791 C 0.75037 0.24113 0.40649 0.0
N1792 N 0.82241 0.16652 0.43158 0.0
N1793 N 0.76949 0.22819 0.42837 0.0
H1794 H 0.34443 0.76951 0.47737 0.0
H1795 H 0.27613 0.84905 0.43211 0.0
H1796 H 0.27251 0.70574 0.47375 0.0
H1797 H 0.20362 0.7858 0.42854 0.0
H1798 H 0.28915 0.83169 0.48662 0.0
H1799 H 0.31519 0.79858 0.51717 0.0
C1800 C 0.32233 0.76186 0.48388 0.0
C1801 C 0.30854 0.73813 0.46661 0.0
C1802 C 0.27032 0.82139 0.47424 0.0
C1803 C 0.27467 0.7735 0.50681 0.0
C1804 C 0.26249 0.83175 0.44271 0.0
C1805 C 0.23908 0.81854 0.42452 0.0
C1806 C 0.25706 0.79513 0.48634 0.0
C1807 C 0.22303 0.79563 0.44022 0.0
C1808 C 0.30567 0.7783 0.50698 0.0
C1809 C 0.28226 0.72672 0.48127 0.0
N1810 N 0.2328 0.78419 0.4697 0.0
N1811 N 0.26595 0.74475 0.50162 0.0
H1812 H 0.31721 0.6844 0.146 0.0
H1813 H 0.19042 0.74186 0.0284 0.0
H1814 H 0.30086 0.77568 0.11789 0.0
H1815 H 0.19439 0.65272 0.06825 0.0
H1816 H 0.24334 0.74789 0.03987 0.0
H1817 H 0.28415 0.66774 0.10062 0.0
C1818 C 0.30687 0.70082 0.12988 0.0
C1819 C 0.31067 0.73136 0.136 0.0
C1820 C 0.23296 0.72659 0.04499 0.0
C1821 C 0.27375 0.71275 0.08412 0.0
C1822 C 0.2028 0.72305 0.0381 0.0
C1823 C 0.188 0.69718 0.04853 0.0
C1824 C 0.2479 0.70445 0.06325 0.0
C1825 C 0.205 0.67334 0.06071 0.0
C1826 C 0.28823 0.69138 0.104 0.0
C1827 C 0.29761 0.75194 0.1143 0.0
N1828 N 0.234 0.67791 0.06896 0.0
N1829 N 0.2794 0.74227 0.08949 0.0
H1830 H 0.8724 0.32107 0.1661 0.0
H1831 H 0.8127 0.19812 0.04083 0.0
H1832 H 0.78028 0.30027 0.1466 0.0
H1833 H 0.90215 0.19902 0.0801 0.0
H1834 H 0.80575 0.24915 0.06042 0.0
H1835 H 0.88704 0.28825 0.11955 0.0
C1836 C 0.85536 0.30949 0.15189 0.0
C1837 C 0.82526 0.31212 0.16062 0.0
C1838 C 0.8272 0.23851 0.06394 0.0
C1839 C 0.8415 0.27585 0.10723 0.0
C1840 C 0.83137 0.20963 0.05215 0.0
C1841 C 0.85779 0.19433 0.05958 0.0
C1842 C 0.84931 0.25156 0.08399 0.0
C1843 C 0.88128 0.21007 0.07444 0.0
C1844 C 0.86363 0.29112 0.12529 0.0
C1845 C 0.80377 0.29769 0.14116 0.0
N1846 N 0.87614 0.23762 0.08737 0.0
N1847 N 0.81233 0.2799 0.11546 0.0
H1848 H 0.1915 0.91291 0.56954 0.0
H1849 H 0.32243 0.80822 0.61657 0.0
H1850 H 0.20057 0.82007 0.54315 0.0
H1851 H 0.29816 0.89055 0.66544 0.0
H1852 H 0.29224 0.82247 0.56835 0.0
H1853 H 0.24534 0.91561 0.57795 0.0
C1854 C 0.20496 0.89356 0.56351 0.0
C1855 C 0.1916 0.86582 0.55721 0.0
C1856 C 0.29411 0.83779 0.58923 0.0
C1857 C 0.25241 0.86857 0.56748 0.0
C1858 C 0.31101 0.82954 0.6168 0.0
C1859 C 0.3117 0.84788 0.64517 0.0
C1860 C 0.27807 0.86469 0.58998 0.0
C1861 C 0.29722 0.87551 0.64423 0.0
C1862 C 0.23568 0.89505 0.56863 0.0
C1863 C 0.21 0.84165 0.54903 0.0
N1864 N 0.28058 0.88296 0.61715 0.0
N1865 N 0.23954 0.84331 0.55534 0.0
H1866 H 0.72821 0.18414 0.55669 0.0
H1867 H 0.74055 0.35217 0.5804 0.0
H1868 H 0.66659 0.24581 0.60155 0.0
H1869 H 0.80462 0.28327 0.60247 0.0
H1870 H 0.71712 0.31931 0.53985 0.0
H1871 H 0.75179 0.22545 0.52734 0.0
C1872 C 0.71813 0.20606 0.55832 0.0
C1873 C 0.69715 0.21221 0.58347 0.0
C1874 C 0.73686 0.3118 0.55296 0.0
C1875 C 0.72258 0.25882 0.54848 0.0
C1876 C 0.75011 0.33036 0.57675 0.0
C1877 C 0.77206 0.31892 0.59844 0.0
C1878 C 0.74573 0.28193 0.55125 0.0
C1879 C 0.78545 0.29182 0.58913 0.0
C1880 C 0.73154 0.22959 0.54132 0.0
C1881 C 0.68398 0.24049 0.58377 0.0
N1882 N 0.77136 0.27364 0.56702 0.0
N1883 N 0.69764 0.26317 0.56736 0.0
H1884 H 0.86531 0.28051 0.98597 0.0
H1885 H 0.72664 0.34191 0.91501 0.0
H1886 H 0.83447 0.37088 0.99985 0.0
H1887 H 0.75465 0.24995 0.90821 0.0
H1888 H 0.75382 0.34692 0.96685 0.0
H1889 H 0.8146 0.26317 0.98726 0.0
C1890 C 0.84806 0.29672 0.99097 0.0
C1891 C 0.85415 0.32751 0.99034 0.0
C1892 C 0.75314 0.32525 0.95496 0.0
C1893 C 0.79588 0.30786 0.98913 0.0
C1894 C 0.73791 0.32246 0.92493 0.0
C1895 C 0.73914 0.29569 0.90677 0.0
C1896 C 0.77044 0.30141 0.96668 0.0
C1897 C 0.75412 0.27133 0.92086 0.0
C1898 C 0.81879 0.28671 0.99136 0.0
C1899 C 0.83078 0.34706 0.99801 0.0
N1900 N 0.76972 0.27495 0.94972 0.0
N1901 N 0.80235 0.33704 0.99565 0.0
H1902 H 0.20309 0.82712 0.9836 0.0
H1903 H 0.32666 0.76846 0.89965 0.0
H1904 H 0.28936 0.86924 0.98663 0.0
H1905 H 0.25442 0.71245 0.93281 0.0
H1906 H 0.32348 0.79603 0.95184 0.0
H1907 H 0.22684 0.77918 0.99099 0.0
C1908 C 0.22695 0.82658 0.98757 0.0
C1909 C 0.24445 0.852 0.98214 0.0
C1910 C 0.30859 0.77729 0.9481 0.0
C1911 C 0.27197 0.79707 0.98904 0.0
C1912 C 0.31014 0.76182 0.91788 0.0
C1913 C 0.28887 0.73991 0.91029 0.0
C1914 C 0.28469 0.77169 0.97 0.0
C1915 C 0.26975 0.73069 0.93615 0.0
C1916 C 0.24072 0.79895 0.99174 0.0
C1917 C 0.27513 0.84992 0.98875 0.0
N1918 N 0.26727 0.74736 0.96434 0.0
N1919 N 0.28816 0.8227 0.99061 0.0
H1920 H 0.68669 0.23463 0.44847 0.0
H1921 H 0.76446 0.08464 0.5171 0.0
H1922 H 0.65398 0.14678 0.42481 0.0
H1923 H 0.79854 0.1732 0.53382 0.0
H1924 H 0.72665 0.10568 0.47896 0.0
H1925 H 0.72987 0.21181 0.4756 0.0
C1926 C 0.6885 0.21053 0.4489 0.0
C1927 C 0.66606 0.1927 0.43472 0.0
C1928 C 0.74286 0.12045 0.49034 0.0
C1929 C 0.71588 0.16613 0.46664 0.0
C1930 C 0.7648 0.10832 0.51171 0.0
C1931 C 0.78516 0.12708 0.52829 0.0
C1932 C 0.74111 0.15161 0.48563 0.0
C1933 C 0.78365 0.15779 0.5213 0.0
C1934 C 0.71319 0.19742 0.46474 0.0
C1935 C 0.67005 0.1615 0.4362 0.0
N1936 N 0.76204 0.169 0.50088 0.0
N1937 N 0.69418 0.14926 0.45196 0.0
H1938 H 0.48115 0.75945 0.53566 0.0
H1939 H 0.33116 0.67566 0.48236 0.0
H1940 H 0.39311 0.79642 0.54573 0.0
H1941 H 0.41381 0.65358 0.43373 0.0
H1942 H 0.35646 0.71554 0.51278 0.0
H1943 H 0.45988 0.71812 0.50207 0.0
C1944 C 0.45753 0.75931 0.53021 0.0
C1945 C 0.43886 0.78146 0.54377 0.0
C1946 C 0.36906 0.70231 0.49508 0.0
C1947 C 0.41431 0.73398 0.50625 0.0
C1948 C 0.35465 0.6792 0.47798 0.0
C1949 C 0.3703 0.66093 0.45557 0.0
C1950 C 0.39939 0.70806 0.4893 0.0
C1951 C 0.40089 0.66681 0.45108 0.0
C1952 C 0.44536 0.73559 0.51131 0.0
C1953 C 0.40835 0.77988 0.53612 0.0
N1954 N 0.41445 0.68992 0.46763 0.0
N1955 N 0.39708 0.75654 0.5184 0.0
H1956 H 0.91089 0.42464 0.43893 0.0
H1957 H 0.75247 0.40293 0.52964 0.0
H1958 H 0.86451 0.34075 0.4469 0.0
H1959 H 0.79749 0.48768 0.52691 0.0
H1960 H 0.7909 0.38178 0.49344 0.0
H1961 H 0.86867 0.44947 0.46655 0.0
C1962 C 0.89199 0.41134 0.44651 0.0
C1963 C 0.89173 0.38031 0.44074 0.0
C1964 C 0.79227 0.40517 0.50013 0.0
C1965 C 0.84261 0.40894 0.47186 0.0
C1966 C 0.77003 0.41739 0.52055 0.0
C1967 C 0.7715 0.44727 0.53121 0.0
C1968 C 0.81668 0.42274 0.49026 0.0
C1969 C 0.79519 0.4647 0.51909 0.0
C1970 C 0.86768 0.42565 0.46206 0.0
C1971 C 0.86596 0.36464 0.45042 0.0
N1972 N 0.81702 0.45212 0.49966 0.0
N1973 N 0.84274 0.379 0.46549 0.0
H1974 H 0.07173 0.80306 0.53027 0.0
H1975 H 0.22094 0.87544 0.45548 0.0
H1976 H 0.15922 0.76374 0.53597 0.0
H1977 H 0.13476 0.91012 0.42936 0.0
H1978 H 0.19698 0.83426 0.48415 0.0
H1979 H 0.09209 0.84217 0.49314 0.0
C1980 C 0.09498 0.8022 0.52309 0.0
C1981 C 0.11378 0.78 0.53631 0.0
C1982 C 0.18312 0.85088 0.47247 0.0
C1983 C 0.13726 0.82474 0.49412 0.0
C1984 C 0.19695 0.87443 0.45579 0.0
C1985 C 0.18012 0.89671 0.44028 0.0
C1986 C 0.15191 0.84936 0.47452 0.0
C1987 C 0.1488 0.89408 0.4419 0.0
C1988 C 0.10664 0.82464 0.50207 0.0
C1989 C 0.14384 0.78037 0.52658 0.0
N1990 N 0.13569 0.87106 0.45894 0.0
N1991 N 0.1545 0.80221 0.50631 0.0
H1992 H 0.31079 0.91813 1.01046 0.0
H1993 H 0.13612 0.915 0.05091 0.0
H1994 H 0.24607 0.97585 0.96456 0.0
H1995 H 0.19835 0.85475 0.09755 0.0
H1996 H 0.17713 0.94102 0.02483 0.0
H1997 H 0.2718 0.89891 0.04799 0.0
C1998 C 0.28846 0.92724 1.00887 0.0
C1999 C 0.28163 0.94873 0.98458 0.0
C2000 C 0.18203 0.92232 0.04102 0.0
C2001 C 0.23667 0.92634 0.02679 0.0
C2002 C 0.15838 0.90734 0.05628 0.0
C2003 C 0.16329 0.88235 0.07686 0.0
C2004 C 0.21136 0.91234 0.04575 0.0
C2005 C 0.19314 0.87359 0.08181 0.0
C2006 C 0.26618 0.91617 0.03016 0.0
C2007 C 0.25234 0.95951 0.98318 0.0
N2008 N 0.21593 0.88835 0.06621 0.0
N2009 N 0.23095 0.94803 1.00369 0.0
H2010 H 0.69997 0.19638 0.105 0.0
H2011 H 0.58369 0.24402 0.96135 0.0
H2012 H 0.65166 0.13578 0.04098 0.0
H2013 H 0.63266 0.30975 0.01763 0.0
H2014 H 0.60476 0.20486 0.99609 0.0
H2015 H 0.67355 0.23842 0.07845 0.0
C2016 C 0.68382 0.19174 0.08559 0.0
C2017 C 0.67828 0.16207 0.07546 0.0
C2018 C 0.6106 0.2278 1.00156 0.0
C2019 C 0.64749 0.21037 0.0451 0.0
C2020 C 0.59811 0.25034 0.98193 0.0
C2021 C 0.60566 0.28041 0.98707 0.0
C2022 C 0.6315 0.23494 0.02657 0.0
C2023 C 0.62555 0.28697 0.01334 0.0
C2024 C 0.66861 0.21584 0.0705 0.0
C2025 C 0.65667 0.15783 0.05031 0.0
N2026 N 0.638 0.26443 0.03191 0.0
N2027 N 0.64235 0.18144 0.03617 0.0
H2028 H 0.29312 0.58132 0.999 0.0
H2029 H 0.37061 0.72949 0.07456 0.0
H2030 H 0.26303 0.67063 0.97828 0.0
H2031 H 0.40716 0.64132 0.08692 0.0
H2032 H 0.32876 0.70795 0.04344 0.0
H2033 H 0.33151 0.60203 0.03658 0.0
C2034 C 0.29416 0.60521 1.00286 0.0
C2035 C 0.27497 0.62421 0.98509 0.0
C2036 C 0.34583 0.69321 0.05308 0.0
C2037 C 0.31913 0.64829 0.02799 0.0
C2038 C 0.36993 0.70558 0.0708 0.0
C2039 C 0.39322 0.6874 0.08261 0.0
C2040 C 0.34415 0.66213 0.04794 0.0
C2041 C 0.3904 0.65641 0.07745 0.0
C2042 C 0.31629 0.6171 0.02411 0.0
C2043 C 0.27748 0.6551 0.99119 0.0
N2044 N 0.36648 0.64482 0.06062 0.0
N2045 N 0.29917 0.6661 0.01175 0.0
H2046 H 0.91985 0.41345 0.09878 0.0
H2047 H 0.90767 0.25306 1.01025 0.0
H2048 H 0.83723 0.3654 0.08838 0.0
H2049 H 0.97765 0.31546 0.98776 0.0
H2050 H 0.88732 0.28876 0.05104 0.0
H2051 H 0.9458 0.37307 0.06964 0.0
C2052 C 0.90704 0.39453 0.09016 0.0
C2053 C 0.87598 0.39363 0.09493 0.0
C2054 C 0.90752 0.29428 0.03787 0.0
C2055 C 0.90613 0.34613 0.06289 0.0
C2056 C 0.91915 0.27401 0.01454 0.0
C2057 C 0.94418 0.28146 0.99538 0.0
C2058 C 0.92089 0.3223 0.04223 0.0
C2059 C 0.95827 0.30883 1.00204 0.0
C2060 C 0.92204 0.37124 0.07388 0.0
C2061 C 0.86107 0.36744 0.085 0.0
N2062 N 0.94627 0.32841 0.02462 0.0
N2063 N 0.87621 0.34491 0.06928 0.0
H2064 H 0.36925 0.83549 0.5702 0.0
H2065 H 0.29426 0.98583 0.4967 0.0
H2066 H 0.40283 0.92272 0.59492 0.0
H2067 H 0.26184 0.89681 0.47908 0.0
H2068 H 0.33263 0.9649 0.53458 0.0
H2069 H 0.33001 0.85868 0.53668 0.0
C2070 C 0.36835 0.85954 0.56883 0.0
C2071 C 0.39014 0.87694 0.58488 0.0
C2072 C 0.31684 0.95001 0.52269 0.0
C2073 C 0.34337 0.90422 0.54783 0.0
C2074 C 0.29467 0.96204 0.50132 0.0
C2075 C 0.27453 0.94315 0.48448 0.0
C2076 C 0.31895 0.91881 0.52734 0.0
C2077 C 0.27669 0.91237 0.49122 0.0
C2078 C 0.3456 0.87291 0.54984 0.0
C2079 C 0.3871 0.90823 0.58239 0.0
N2080 N 0.29838 0.90131 0.51163 0.0
N2081 N 0.36427 0.92081 0.56441 0.0
H2082 H 0.69566 0.36128 0.61466 0.0
H2083 H 0.57782 0.31221 0.474 0.0
H2084 H 0.66313 0.41951 0.53721 0.0
H2085 H 0.64709 0.25101 0.50259 0.0
H2086 H 0.59915 0.34984 0.51137 0.0
H2087 H 0.66962 0.31912 0.58693 0.0
C2088 C 0.68313 0.3653 0.59195 0.0
C2089 C 0.68188 0.39423 0.57831 0.0
C2090 C 0.60924 0.32789 0.51031 0.0
C2091 C 0.65134 0.3462 0.54697 0.0
C2092 C 0.59666 0.30611 0.48934 0.0
C2093 C 0.60996 0.27793 0.48572 0.0
C2094 C 0.63541 0.32165 0.52835 0.0
C2095 C 0.63555 0.27212 0.50518 0.0
C2096 C 0.66817 0.34124 0.57623 0.0
C2097 C 0.66467 0.39795 0.54911 0.0
N2098 N 0.64745 0.29373 0.52557 0.0
N2099 N 0.65019 0.37449 0.53466 0.0
H2100 H 0.30371 0.64118 0.51185 0.0
H2101 H 0.13585 0.63676 0.58196 0.0
H2102 H 0.24183 0.57315 0.48137 0.0
H2103 H 0.18863 0.71687 0.57579 0.0
H2104 H 0.17635 0.60898 0.55467 0.0
H2105 H 0.26482 0.66397 0.54642 0.0
C2106 C 0.28224 0.63034 0.51338 0.0
C2107 C 0.27647 0.60479 0.49394 0.0
C2108 C 0.17909 0.63262 0.55946 0.0
C2109 C 0.23104 0.63129 0.53339 0.0
C2110 C 0.15575 0.64867 0.5748 0.0
C2111 C 0.15826 0.67956 0.58103 0.0
C2112 C 0.20572 0.64724 0.55081 0.0
C2113 C 0.18542 0.69318 0.57209 0.0
C2114 C 0.25984 0.64362 0.53286 0.0
C2115 C 0.24783 0.59214 0.49664 0.0
N2116 N 0.20787 0.67705 0.55763 0.0
N2117 N 0.22622 0.60556 0.51571 0.0
H2118 H 0.91339 0.15574 0.59292 0.0
H2119 H 0.89109 0.30604 0.48706 0.0
H2120 H 0.82852 0.19889 0.57874 0.0
H2121 H 0.97594 0.26188 0.49615 0.0
H2122 H 0.86957 0.27054 0.52648 0.0
H2123 H 0.93765 0.19647 0.56279 0.0
C2124 C 0.89975 0.17368 0.5834 0.0
C2125 C 0.86862 0.17321 0.58779 0.0
C2126 C 0.89297 0.26866 0.52027 0.0
C2127 C 0.89665 0.22086 0.55367 0.0
C2128 C 0.90536 0.28909 0.49782 0.0
C2129 C 0.93545 0.28712 0.48833 0.0
C2130 C 0.91046 0.24524 0.53293 0.0
C2131 C 0.95276 0.26451 0.50302 0.0
C2132 C 0.91375 0.19718 0.56637 0.0
C2133 C 0.85249 0.19797 0.57593 0.0
N2134 N 0.93994 0.24424 0.52418 0.0
N2135 N 0.8666 0.22051 0.55928 0.0
H2136 H 0.86974 0.22654 0.95511 0.0
H2137 H 0.80122 0.07319 0.02378 0.0
H2138 H 0.91443 0.14261 0.93836 0.0
H2139 H 0.75498 0.15739 0.02118 0.0
H2140 H 0.84195 0.09568 0.99062 0.0
H2141 H 0.82729 0.1999 0.97763 0.0
C2142 C 0.87071 0.20241 0.95591 0.0
C2143 C 0.89608 0.18701 0.94451 0.0
C2144 C 0.82255 0.10899 0.99668 0.0
C2145 C 0.84692 0.1558 0.97187 0.0
C2146 C 0.79912 0.09603 0.01529 0.0
C2147 C 0.77443 0.11334 0.02508 0.0
C2148 C 0.82129 0.13948 0.98797 0.0
C2149 C 0.77344 0.14311 0.01417 0.0
C2150 C 0.84629 0.18708 0.96912 0.0
C2151 C 0.89575 0.15562 0.94722 0.0
N2152 N 0.7964 0.15512 0.99657 0.0
N2153 N 0.87174 0.1411 0.96078 0.0
H2154 H 0.42649 0.91738 0.94578 0.0
H2155 H 0.39997 0.76281 0.04317 0.0
H2156 H 0.34132 0.87436 0.95832 0.0
H2157 H 0.48718 0.8017 0.03399 0.0
H2158 H 0.37959 0.80228 1.00826 0.0
H2159 H 0.45028 0.87549 0.97547 0.0
C2160 C 0.41274 0.89935 0.95489 0.0
C2161 C 0.38173 0.89974 0.94954 0.0
C2162 C 0.40329 0.80224 0.01343 0.0
C2163 C 0.40895 0.85122 0.98304 0.0
C2164 C 0.415 0.77943 0.03326 0.0
C2165 C 0.44537 0.77877 0.04163 0.0
C2166 C 0.42193 0.82518 1.00182 0.0
C2167 C 0.46369 0.80115 0.0281 0.0
C2168 C 0.4264 0.87525 0.97159 0.0
C2169 C 0.36527 0.87522 0.96142 0.0
N2170 N 0.45167 0.82363 1.00918 0.0
N2171 N 0.37899 0.85224 0.97746 0.0
H2172 H 0.78972 0.39066 0.05918 0.0
H2173 H 0.65617 0.41594 0.92735 0.0
H2174 H 0.76256 0.47827 0.02732 0.0
H2175 H 0.6757 0.33117 0.97283 0.0
H2176 H 0.69647 0.43885 0.96015 0.0
H2177 H 0.75059 0.36869 0.02454 0.0
C2178 C 0.77564 0.40539 0.04467 0.0
C2179 C 0.77936 0.43656 0.04689 0.0
C2180 C 0.69201 0.41526 0.96305 0.0
C2181 C 0.73423 0.41106 1.00579 0.0
C2182 C 0.66882 0.40209 0.94436 0.0
C2183 C 0.66222 0.37144 0.94724 0.0
C2184 C 0.70909 0.39781 0.9851 0.0
C2185 C 0.67993 0.35475 0.96941 0.0
C2186 C 0.75321 0.3927 0.02468 0.0
C2187 C 0.76069 0.4542 0.02661 0.0
N2188 N 0.70223 0.36812 0.98749 0.0
N2189 N 0.73896 0.44127 1.00714 0.0
H2190 H 0.07709 0.75992 0.02761 0.0
H2191 H 0.20977 0.70604 0.90588 0.0
H2192 H 0.15397 0.81528 0.0109 0.0
H2193 H 0.1572 0.6475 0.96733 0.0
H2194 H 0.18439 0.74915 0.93234 0.0
H2195 H 0.09937 0.72132 0.99159 0.0
C2196 C 0.09806 0.76448 0.01524 0.0
C2197 C 0.11343 0.79111 0.02182 0.0
C2198 C 0.17829 0.72671 0.9396 0.0
C2199 C 0.13937 0.74683 0.98072 0.0
C2200 C 0.19311 0.7021 0.92488 0.0
C2201 C 0.18608 0.67271 0.93445 0.0
C2202 C 0.15541 0.72188 0.96312 0.0
C2203 C 0.16325 0.66927 0.95831 0.0
C2204 C 0.11101 0.74228 0.99501 0.0
C2205 C 0.14117 0.79526 1.00602 0.0
N2206 N 0.14876 0.69326 0.97141 0.0
N2207 N 0.15323 0.77347 0.98625 0.0
loop_
_geom_bond_atom_site_label_1
_geom_bond_atom_site_label_2
_geom_bond_distance
_geom_bond_site_symmetry_2
_ccdc_geom_bond_type
Tb0 N29 2.617 . S
Tb0 N35 2.572 . S
Tb0 O44 2.465 . S
Tb0 O45 2.387 . S
Tb0 O47 2.428 . S
Tb0 O48 2.308 . S
Tb0 O52 2.349 . S
Tb0 O55 2.393 . S
Tb0 C64 2.802 . S
C1 N2 1.379 . S
C1 C4 1.416 . S
C1 C8 1.424 . S
N2 C1 1.379 . S
N2 C5 1.334 . S
N2 Tb11 2.617 . S
C3 C5 1.390 . S
C3 C6 1.339 . S
C3 H23 0.930 . S
C4 C1 1.416 . S
C4 C6 1.416 . S
C4 C10 1.448 . S
C5 N2 1.334 . S
C5 C3 1.390 . S
C5 H16 0.930 . S
C6 C3 1.339 . S
C6 C4 1.416 . S
C6 H27 0.930 . S
C7 C8 1.413 . S
C7 C9 1.427 . S
C7 C13 1.416 . S
C8 C1 1.424 . S
C8 C7 1.413 . S
C8 N12 1.361 . S
C9 C7 1.427 . S
C9 C10 1.328 . S
C9 H24 0.929 . S
C10 C4 1.448 . S
C10 C9 1.328 . S
C10 H25 0.930 . S
Tb11 N2 2.617 . S
Tb11 N12 2.572 . S
Tb11 O46 2.349 . S
Tb11 O49 2.393 . S
Tb11 O50 2.465 . S
Tb11 O51 2.387 . S
Tb11 O53 2.428 . S
Tb11 O54 2.308 . S
Tb11 C75 2.802 . S
N12 C8 1.361 . S
N12 Tb11 2.572 . S
N12 C14 1.340 . S
C13 C7 1.416 . S
C13 C15 1.332 . S
C13 H21 0.931 . S
C14 N12 1.340 . S
C14 C15 1.407 . S
C14 H20 0.930 . S
C15 C13 1.332 . S
C15 C14 1.407 . S
C15 H17 0.929 . S
H16 C5 0.930 . S
H17 C15 0.929 . S
H18 C33 0.930 . S
H19 C40 0.929 . S
H20 C14 0.930 . S
H21 C13 0.931 . S
H22 C36 0.930 . S
H23 C3 0.930 . S
H24 C9 0.929 . S
H25 C10 0.930 . S
H26 C31 0.930 . S
H27 C6 0.930 . S
H28 C39 0.931 . S
N29 Tb0 2.617 . S
N29 C30 1.379 . S
N29 C33 1.334 . S
C30 N29 1.379 . S
C30 C32 1.416 . S
C30 C38 1.424 . S
C31 H26 0.930 . S
C31 C33 1.390 . S
C31 C34 1.339 . S
C32 C30 1.416 . S
C32 C34 1.416 . S
C32 C65 1.448 . S
C33 H18 0.930 . S
C33 N29 1.334 . S
C33 C31 1.390 . S
C34 C31 1.339 . S
C34 C32 1.416 . S
C34 H41 0.930 . S
N35 Tb0 2.572 . S
N35 C36 1.340 . S
N35 C38 1.361 . S
C36 H22 0.930 . S
C36 N35 1.340 . S
C36 C40 1.407 . S
C37 C38 1.413 . S
C37 C39 1.416 . S
C37 C66 1.427 . S
C38 C30 1.424 . S
C38 N35 1.361 . S
C38 C37 1.413 . S
C39 H28 0.931 . S
C39 C37 1.416 . S
C39 C40 1.332 . S
C40 H19 0.929 . S
C40 C36 1.407 . S
C40 C39 1.332 . S
H41 C34 0.930 . S
H42 C65 0.930 . S
H43 C66 0.929 . S
O44 Tb0 2.465 . S
O44 C64 1.264 . S
O45 Tb0 2.387 . S
O45 C56 1.264 . S
O46 Tb11 2.349 . S
O46 C56 1.243 . S
O47 Tb0 2.428 . S
O47 C64 1.256 . S
O48 Tb0 2.308 . S
O48 C63 1.266 . S
O49 Tb11 2.393 . S
O49 C63 1.248 . S
O50 Tb11 2.465 . S
O50 C75 1.264 . S
O51 Tb11 2.387 . S
O51 C67 1.264 . S
O52 Tb0 2.349 . S
O52 C67 1.243 . S
O53 Tb11 2.428 . S
O53 C75 1.256 . S
O54 Tb11 2.308 . S
O54 C74 1.266 . S
O55 Tb0 2.393 . S
O55 C74 1.248 . S
C56 O45 1.264 . S
C56 O46 1.243 . S
C57 C60 1.399 . S
C57 C62 1.383 . S
C57 C64 1.496 . S
C58 C59 1.399 . S
C58 C62 1.389 . S
C59 C58 1.399 . S
C59 C61 1.380 . S
C59 H76 0.929 . S
C60 C57 1.399 . S
C60 C61 1.392 . S
C60 H77 0.929 . S
C61 C59 1.380 . S
C61 C60 1.392 . S
C61 H78 0.929 . S
C62 C57 1.383 . S
C62 C58 1.389 . S
C62 H79 0.931 . S
C63 O48 1.266 . S
C63 O49 1.248 . S
C64 Tb0 2.802 . S
C64 O44 1.264 . S
C64 O47 1.256 . S
C64 C57 1.496 . S
C65 C32 1.448 . S
C65 H42 0.930 . S
C65 C66 1.328 . S
C66 C37 1.427 . S
C66 H43 0.929 . S
C66 C65 1.328 . S
C67 O51 1.264 . S
C67 O52 1.243 . S
C68 C71 1.399 . S
C68 C72 1.383 . S
C68 C75 1.496 . S
C69 C70 1.399 . S
C69 C72 1.389 . S
C70 C69 1.399 . S
C70 C73 1.380 . S
C70 H80 0.929 . S
C71 C68 1.399 . S
C71 C73 1.392 . S
C71 H81 0.929 . S
C72 C68 1.383 . S
C72 C69 1.389 . S
C72 H82 0.931 . S
C73 C70 1.380 . S
C73 C71 1.392 . S
C73 H83 0.929 . S
C74 O54 1.266 . S
C74 O55 1.248 . S
C75 Tb11 2.802 . S
C75 O50 1.264 . S
C75 O53 1.256 . S
C75 C68 1.496 . S
H76 C59 0.929 . S
H77 C60 0.929 . S
H78 C61 0.929 . S
H79 C62 0.931 . S
H80 C70 0.929 . S
H81 C71 0.929 . S
H82 C72 0.931 . S
H83 C73 0.929 . S
Tb84 N113 2.617 . S
Tb84 N119 2.572 . S
Tb84 O128 2.465 . S
Tb84 O129 2.387 . S
Tb84 O131 2.428 . S
Tb84 O132 2.308 . S
Tb84 O136 2.349 . S
Tb84 O139 2.393 . S
Tb84 C148 2.802 . S
C85 N86 1.379 . S
C85 C88 1.416 . S
C85 C92 1.424 . S
N86 C85 1.379 . S
N86 C89 1.334 . S
N86 Tb95 2.617 . S
C87 C89 1.390 . S
C87 C90 1.339 . S
C87 H107 0.930 . S
C88 C85 1.416 . S
C88 C90 1.416 . S
C88 C94 1.448 . S
C89 N86 1.334 . S
C89 C87 1.390 . S
C89 H100 0.930 . S
C90 C87 1.339 . S
C90 C88 1.416 . S
C90 H111 0.930 . S
C91 C92 1.413 . S
C91 C93 1.427 . S
C91 C97 1.416 . S
C92 C85 1.424 . S
C92 C91 1.413 . S
C92 N96 1.361 . S
C93 C91 1.427 . S
C93 C94 1.328 . S
C93 H108 0.929 . S
C94 C88 1.448 . S
C94 C93 1.328 . S
C94 H109 0.930 . S
Tb95 N86 2.617 . S
Tb95 N96 2.572 . S
Tb95 O130 2.349 . S
Tb95 O133 2.393 . S
Tb95 O134 2.465 . S
Tb95 O135 2.387 . S
Tb95 O137 2.428 . S
Tb95 O138 2.308 . S
Tb95 C159 2.802 . S
N96 C92 1.361 . S
N96 Tb95 2.572 . S
N96 C98 1.340 . S
C97 C91 1.416 . S
C97 C99 1.332 . S
C97 H105 0.931 . S
C98 N96 1.340 . S
C98 C99 1.407 . S
C98 H104 0.930 . S
C99 C97 1.332 . S
C99 C98 1.407 . S
C99 H101 0.929 . S
H100 C89 0.930 . S
H101 C99 0.929 . S
H102 C117 0.930 . S
H103 C124 0.929 . S
H104 C98 0.930 . S
H105 C97 0.931 . S
H106 C120 0.930 . S
H107 C87 0.930 . S
H108 C93 0.929 . S
H109 C94 0.930 . S
H110 C115 0.930 . S
H111 C90 0.930 . S
H112 C123 0.931 . S
N113 Tb84 2.617 . S
N113 C114 1.379 . S
N113 C117 1.334 . S
C114 N113 1.379 . S
C114 C116 1.416 . S
C114 C122 1.424 . S
C115 H110 0.930 . S
C115 C117 1.390 . S
C115 C118 1.339 . S
C116 C114 1.416 . S
C116 C118 1.416 . S
C116 C149 1.448 . S
C117 H102 0.930 . S
C117 N113 1.334 . S
C117 C115 1.390 . S
C118 C115 1.339 . S
C118 C116 1.416 . S
C118 H125 0.930 . S
N119 Tb84 2.572 . S
N119 C120 1.340 . S
N119 C122 1.361 . S
C120 H106 0.930 . S
C120 N119 1.340 . S
C120 C124 1.407 . S
C121 C122 1.413 . S
C121 C123 1.416 . S
C121 C150 1.427 . S
C122 C114 1.424 . S
C122 N119 1.361 . S
C122 C121 1.413 . S
C123 H112 0.931 . S
C123 C121 1.416 . S
C123 C124 1.332 . S
C124 H103 0.929 . S
C124 C120 1.407 . S
C124 C123 1.332 . S
H125 C118 0.930 . S
H126 C149 0.930 . S
H127 C150 0.929 . S
O128 Tb84 2.465 . S
O128 C148 1.264 . S
O129 Tb84 2.387 . S
O129 C140 1.264 . S
O130 Tb95 2.349 . S
O130 C140 1.243 . S
O131 Tb84 2.428 . S
O131 C148 1.256 . S
O132 Tb84 2.308 . S
O132 C147 1.266 . S
O133 Tb95 2.393 . S
O133 C147 1.248 . S
O134 Tb95 2.465 . S
O134 C159 1.264 . S
O135 Tb95 2.387 . S
O135 C151 1.264 . S
O136 Tb84 2.349 . S
O136 C151 1.243 . S
O137 Tb95 2.428 . S
O137 C159 1.256 . S
O138 Tb95 2.308 . S
O138 C158 1.266 . S
O139 Tb84 2.393 . S
O139 C158 1.248 . S
C140 O129 1.264 . S
C140 O130 1.243 . S
C141 C144 1.399 . S
C141 C146 1.383 . S
C141 C148 1.496 . S
C142 C143 1.399 . S
C142 C146 1.389 . S
C143 C142 1.399 . S
C143 C145 1.380 . S
C143 H160 0.929 . S
C144 C141 1.399 . S
C144 C145 1.392 . S
C144 H161 0.929 . S
C145 C143 1.380 . S
C145 C144 1.392 . S
C145 H162 0.929 . S
C146 C141 1.383 . S
C146 C142 1.389 . S
C146 H163 0.931 . S
C147 O132 1.266 . S
C147 O133 1.248 . S
C148 Tb84 2.802 . S
C148 O128 1.264 . S
C148 O131 1.256 . S
C148 C141 1.496 . S
C149 C116 1.448 . S
C149 H126 0.930 . S
C149 C150 1.328 . S
C150 C121 1.427 . S
C150 H127 0.929 . S
C150 C149 1.328 . S
C151 O135 1.264 . S
C151 O136 1.243 . S
C152 C155 1.399 . S
C152 C156 1.383 . S
C152 C159 1.496 . S
C153 C154 1.399 . S
C153 C156 1.389 . S
C154 C153 1.399 . S
C154 C157 1.380 . S
C154 H164 0.929 . S
C155 C152 1.399 . S
C155 C157 1.392 . S
C155 H165 0.929 . S
C156 C152 1.383 . S
C156 C153 1.389 . S
C156 H166 0.931 . S
C157 C154 1.380 . S
C157 C155 1.392 . S
C157 H167 0.929 . S
C158 O138 1.266 . S
C158 O139 1.248 . S
C159 Tb95 2.802 . S
C159 O134 1.264 . S
C159 O137 1.256 . S
C159 C152 1.496 . S
H160 C143 0.929 . S
H161 C144 0.929 . S
H162 C145 0.929 . S
H163 C146 0.931 . S
H164 C154 0.929 . S
H165 C155 0.929 . S
H166 C156 0.931 . S
H167 C157 0.929 . S
Tb168 N197 2.617 . S
Tb168 N203 2.572 . S
Tb168 O212 2.465 . S
Tb168 O213 2.387 . S
Tb168 O215 2.428 . S
Tb168 O216 2.308 . S
Tb168 O220 2.349 . S
Tb168 O223 2.393 . S
Tb168 C232 2.802 . S
C169 N170 1.379 . S
C169 C172 1.416 . S
C169 C176 1.424 1_655 S
N170 C169 1.379 . S
N170 C173 1.334 . S
N170 Tb179 2.617 . S
C171 C173 1.390 . S
C171 C174 1.339 . S
C171 H191 0.930 . S
C172 C169 1.416 . S
C172 C174 1.416 . S
C172 C178 1.448 1_655 S
C173 N170 1.334 . S
C173 C171 1.390 . S
C173 H184 0.930 . S
C174 C171 1.339 . S
C174 C172 1.416 . S
C174 H195 0.930 . S
C175 C176 1.413 . S
C175 C177 1.427 . S
C175 C181 1.416 . S
C176 C169 1.424 1_455 S
C176 C175 1.413 . S
C176 N180 1.361 . S
C177 C175 1.427 . S
C177 C178 1.328 . S
C177 H192 0.929 . S
C178 C172 1.448 1_455 S
C178 C177 1.328 . S
C178 H193 0.930 . S
Tb179 N170 2.617 . S
Tb179 N180 2.572 1_655 S
Tb179 O214 2.349 . S
Tb179 O217 2.393 . S
Tb179 O218 2.465 1_655 S
Tb179 O219 2.387 . S
Tb179 O221 2.428 1_655 S
Tb179 O222 2.308 . S
Tb179 C243 2.802 1_655 S
N180 C176 1.361 . S
N180 Tb179 2.572 1_455 S
N180 C182 1.340 . S
C181 C175 1.416 . S
C181 C183 1.332 . S
C181 H189 0.931 . S
C182 N180 1.340 . S
C182 C183 1.407 . S
C182 H188 0.930 . S
C183 C181 1.332 . S
C183 C182 1.407 . S
C183 H185 0.929 . S
H184 C173 0.930 . S
H185 C183 0.929 . S
H186 C201 0.930 . S
H187 C208 0.929 . S
H188 C182 0.930 . S
H189 C181 0.931 . S
H190 C204 0.930 . S
H191 C171 0.930 . S
H192 C177 0.929 . S
H193 C178 0.930 . S
H194 C199 0.930 . S
H195 C174 0.930 . S
H196 C207 0.931 . S
N197 Tb168 2.617 . S
N197 C198 1.379 . S
N197 C201 1.334 . S
C198 N197 1.379 . S
C198 C200 1.416 . S
C198 C206 1.424 . S
C199 H194 0.930 . S
C199 C201 1.390 . S
C199 C202 1.339 . S
C200 C198 1.416 . S
C200 C202 1.416 . S
C200 C233 1.448 . S
C201 H186 0.930 . S
C201 N197 1.334 . S
C201 C199 1.390 . S
C202 C199 1.339 . S
C202 C200 1.416 . S
C202 H209 0.930 . S
N203 Tb168 2.572 . S
N203 C204 1.340 . S
N203 C206 1.361 . S
C204 H190 0.930 . S
C204 N203 1.340 . S
C204 C208 1.407 . S
C205 C206 1.413 . S
C205 C207 1.416 . S
C205 C234 1.427 . S
C206 C198 1.424 . S
C206 N203 1.361 . S
C206 C205 1.413 . S
C207 H196 0.931 . S
C207 C205 1.416 . S
C207 C208 1.332 . S
C208 H187 0.929 . S
C208 C204 1.407 . S
C208 C207 1.332 . S
H209 C202 0.930 . S
H210 C233 0.930 . S
H211 C234 0.929 . S
O212 Tb168 2.465 . S
O212 C232 1.264 . S
O213 Tb168 2.387 . S
O213 C224 1.264 . S
O214 Tb179 2.349 . S
O214 C224 1.243 . S
O215 Tb168 2.428 . S
O215 C232 1.256 . S
O216 Tb168 2.308 . S
O216 C231 1.266 . S
O217 Tb179 2.393 . S
O217 C231 1.248 . S
O218 Tb179 2.465 1_455 S
O218 C243 1.264 . S
O219 Tb179 2.387 . S
O219 C235 1.264 . S
O220 Tb168 2.349 . S
O220 C235 1.243 . S
O221 Tb179 2.428 1_455 S
O221 C243 1.256 . S
O222 Tb179 2.308 . S
O222 C242 1.266 . S
O223 Tb168 2.393 . S
O223 C242 1.248 . S
C224 O213 1.264 . S
C224 O214 1.243 . S
C225 C228 1.399 . S
C225 C230 1.383 . S
C225 C232 1.496 . S
C226 C227 1.399 . S
C226 C230 1.389 . S
C227 C226 1.399 . S
C227 C229 1.380 . S
C227 H244 0.929 . S
C228 C225 1.399 . S
C228 C229 1.392 . S
C228 H245 0.929 . S
C229 C227 1.380 . S
C229 C228 1.392 . S
C229 H246 0.929 . S
C230 C225 1.383 . S
C230 C226 1.389 . S
C230 H247 0.931 . S
C231 O216 1.266 . S
C231 O217 1.248 . S
C232 Tb168 2.802 . S
C232 O212 1.264 . S
C232 O215 1.256 . S
C232 C225 1.496 . S
C233 C200 1.448 . S
C233 H210 0.930 . S
C233 C234 1.328 . S
C234 C205 1.427 . S
C234 H211 0.929 . S
C234 C233 1.328 . S
C235 O219 1.264 . S
C235 O220 1.243 . S
C236 C239 1.399 . S
C236 C240 1.383 . S
C236 C243 1.496 . S
C237 C238 1.399 . S
C237 C240 1.389 . S
C238 C237 1.399 . S
C238 C241 1.380 . S
C238 H248 0.929 . S
C239 C236 1.399 . S
C239 C241 1.392 . S
C239 H249 0.929 . S
C240 C236 1.383 . S
C240 C237 1.389 . S
C240 H250 0.931 . S
C241 C238 1.380 . S
C241 C239 1.392 . S
C241 H251 0.929 . S
C242 O222 1.266 . S
C242 O223 1.248 . S
C243 Tb179 2.802 1_455 S
C243 O218 1.264 . S
C243 O221 1.256 . S
C243 C236 1.496 . S
H244 C227 0.929 . S
H245 C228 0.929 . S
H246 C229 0.929 . S
H247 C230 0.931 . S
H248 C238 0.929 . S
H249 C239 0.929 . S
H250 C240 0.931 . S
H251 C241 0.929 . S
Tb252 N281 2.617 . S
Tb252 N287 2.572 . S
Tb252 O296 2.465 1_565 S
Tb252 O297 2.387 . S
Tb252 O299 2.428 1_565 S
Tb252 O300 2.308 . S
Tb252 O304 2.349 1_565 S
Tb252 O307 2.393 . S
Tb252 C316 2.802 1_565 S
C253 N254 1.379 . S
C253 C256 1.416 . S
C253 C260 1.424 . S
N254 C253 1.379 . S
N254 C257 1.334 . S
N254 Tb263 2.617 . S
C255 C257 1.390 . S
C255 C258 1.339 . S
C255 H275 0.930 . S
C256 C253 1.416 . S
C256 C258 1.416 . S
C256 C262 1.448 . S
C257 N254 1.334 . S
C257 C255 1.390 . S
C257 H268 0.930 . S
C258 C255 1.339 . S
C258 C256 1.416 . S
C258 H279 0.930 . S
C259 C260 1.413 . S
C259 C261 1.427 . S
C259 C265 1.416 . S
C260 C253 1.424 . S
C260 C259 1.413 . S
C260 N264 1.361 . S
C261 C259 1.427 . S
C261 C262 1.328 . S
C261 H276 0.929 . S
C262 C256 1.448 . S
C262 C261 1.328 . S
C262 H277 0.930 . S
Tb263 N254 2.617 . S
Tb263 N264 2.572 . S
Tb263 O298 2.349 . S
Tb263 O301 2.393 . S
Tb263 O302 2.465 . S
Tb263 O303 2.387 . S
Tb263 O305 2.428 . S
Tb263 O306 2.308 . S
Tb263 C327 2.802 . S
N264 C260 1.361 . S
N264 Tb263 2.572 . S
N264 C266 1.340 . S
C265 C259 1.416 . S
C265 C267 1.332 . S
C265 H273 0.931 . S
C266 N264 1.340 . S
C266 C267 1.407 . S
C266 H272 0.930 . S
C267 C265 1.332 . S
C267 C266 1.407 . S
C267 H269 0.929 . S
H268 C257 0.930 . S
H269 C267 0.929 . S
H270 C285 0.930 . S
H271 C292 0.929 . S
H272 C266 0.930 . S
H273 C265 0.931 . S
H274 C288 0.930 . S
H275 C255 0.930 . S
H276 C261 0.929 . S
H277 C262 0.930 . S
H278 C283 0.930 . S
H279 C258 0.930 . S
H280 C291 0.931 . S
N281 Tb252 2.617 . S
N281 C282 1.379 . S
N281 C285 1.334 . S
C282 N281 1.379 . S
C282 C284 1.416 . S
C282 C290 1.424 . S
C283 H278 0.930 . S
C283 C285 1.390 . S
C283 C286 1.339 . S
C284 C282 1.416 . S
C284 C286 1.416 . S
C284 C317 1.448 . S
C285 H270 0.930 . S
C285 N281 1.334 . S
C285 C283 1.390 . S
C286 C283 1.339 . S
C286 C284 1.416 . S
C286 H293 0.930 . S
N287 Tb252 2.572 . S
N287 C288 1.340 . S
N287 C290 1.361 . S
C288 H274 0.930 . S
C288 N287 1.340 . S
C288 C292 1.407 . S
C289 C290 1.413 . S
C289 C291 1.416 . S
C289 C318 1.427 . S
C290 C282 1.424 . S
C290 N287 1.361 . S
C290 C289 1.413 . S
C291 H280 0.931 . S
C291 C289 1.416 . S
C291 C292 1.332 . S
C292 H271 0.929 . S
C292 C288 1.407 . S
C292 C291 1.332 . S
H293 C286 0.930 . S
H294 C317 0.930 . S
H295 C318 0.929 . S
O296 Tb252 2.465 1_545 S
O296 C316 1.264 . S
O297 Tb252 2.387 . S
O297 C308 1.264 . S
O298 Tb263 2.349 . S
O298 C308 1.243 . S
O299 Tb252 2.428 1_545 S
O299 C316 1.256 . S
O300 Tb252 2.308 . S
O300 C315 1.266 . S
O301 Tb263 2.393 . S
O301 C315 1.248 . S
O302 Tb263 2.465 . S
O302 C327 1.264 . S
O303 Tb263 2.387 . S
O303 C319 1.261 1_565 S
O304 Tb252 2.349 1_545 S
O304 C319 1.244 . S
O305 Tb263 2.428 . S
O305 C327 1.256 . S
O306 Tb263 2.308 . S
O306 C326 1.266 . S
O307 Tb252 2.393 . S
O307 C326 1.248 . S
C308 O297 1.264 . S
C308 O298 1.243 . S
C309 C312 1.399 . S
C309 C314 1.383 . S
C309 C316 1.496 . S
C310 C311 1.399 . S
C310 C314 1.389 . S
C311 C310 1.399 . S
C311 C313 1.380 . S
C311 H328 0.929 . S
C312 C309 1.399 . S
C312 C313 1.392 . S
C312 H329 0.929 . S
C313 C311 1.380 . S
C313 C312 1.392 . S
C313 H330 0.929 . S
C314 C309 1.383 . S
C314 C310 1.389 . S
C314 H331 0.931 . S
C315 O300 1.266 . S
C315 O301 1.248 . S
C316 Tb252 2.802 1_545 S
C316 O296 1.264 . S
C316 O299 1.256 . S
C316 C309 1.496 . S
C317 C284 1.448 . S
C317 H294 0.930 . S
C317 C318 1.328 . S
C318 C289 1.427 . S
C318 H295 0.929 . S
C318 C317 1.328 . S
C319 O303 1.261 1_545 S
C319 O304 1.244 . S
C320 C323 1.399 . S
C320 C324 1.383 . S
C320 C327 1.496 . S
C321 C322 1.399 . S
C321 C324 1.389 . S
C322 C321 1.399 . S
C322 C325 1.380 . S
C322 H332 0.929 . S
C323 C320 1.399 . S
C323 C325 1.392 . S
C323 H333 0.929 . S
C324 C320 1.383 . S
C324 C321 1.389 . S
C324 H334 0.931 . S
C325 C322 1.380 . S
C325 C323 1.392 . S
C325 H335 0.929 . S
C326 O306 1.266 . S
C326 O307 1.248 . S
C327 Tb263 2.802 . S
C327 O302 1.264 . S
C327 O305 1.256 . S
C327 C320 1.496 . S
H328 C311 0.929 . S
H329 C312 0.929 . S
H330 C313 0.929 . S
H331 C314 0.931 . S
H332 C322 0.929 . S
H333 C323 0.929 . S
H334 C324 0.931 . S
H335 C325 0.929 . S
Tb336 N365 2.617 . S
Tb336 N371 2.572 . S
Tb336 O380 2.465 . S
Tb336 O381 2.387 . S
Tb336 O383 2.428 . S
Tb336 O384 2.308 . S
Tb336 O388 2.349 . S
Tb336 O391 2.393 . S
Tb336 C400 2.802 . S
C337 N338 1.379 . S
C337 C340 1.416 . S
C337 C344 1.424 1_455 S
N338 C337 1.379 . S
N338 C341 1.334 . S
N338 Tb347 2.617 1_556 S
C339 C341 1.390 . S
C339 C342 1.339 . S
C339 H359 0.930 . S
C340 C337 1.416 . S
C340 C342 1.416 . S
C340 C346 1.448 1_455 S
C341 N338 1.334 . S
C341 C339 1.390 . S
C341 H352 0.930 1_556 S
C342 C339 1.339 . S
C342 C340 1.416 . S
C342 H363 0.930 . S
C343 C344 1.413 . S
C343 C345 1.427 . S
C343 C349 1.416 . S
C344 C337 1.424 1_655 S
C344 C343 1.413 . S
C344 N348 1.361 1_556 S
C345 C343 1.427 . S
C345 C346 1.328 . S
C345 H360 0.929 . S
C346 C340 1.448 1_655 S
C346 C345 1.328 . S
C346 H361 0.930 . S
Tb347 N338 2.617 1_554 S
Tb347 N348 2.572 1_455 S
Tb347 O382 2.349 . S
Tb347 O385 2.393 . S
Tb347 O386 2.465 1_455 S
Tb347 O387 2.387 . S
Tb347 O389 2.428 1_455 S
Tb347 O390 2.308 . S
Tb347 C411 2.802 1_455 S
N348 C344 1.361 1_554 S
N348 Tb347 2.572 1_655 S
N348 C350 1.340 . S
C349 C343 1.416 . S
C349 C351 1.332 . S
C349 H357 0.931 . S
C350 N348 1.340 . S
C350 C351 1.407 1_554 S
C350 H356 0.930 . S
C351 C349 1.332 . S
C351 C350 1.407 1_556 S
C351 H353 0.929 1_556 S
H352 C341 0.930 1_554 S
H353 C351 0.929 1_554 S
H354 C369 0.930 . S
H355 C376 0.929 . S
H356 C350 0.930 . S
H357 C349 0.931 . S
H358 C372 0.930 . S
H359 C339 0.930 . S
H360 C345 0.929 . S
H361 C346 0.930 . S
H362 C367 0.930 . S
H363 C342 0.930 . S
H364 C375 0.931 . S
N365 Tb336 2.617 . S
N365 C366 1.379 . S
N365 C369 1.334 . S
C366 N365 1.379 . S
C366 C368 1.416 . S
C366 C374 1.424 . S
C367 H362 0.930 . S
C367 C369 1.390 . S
C367 C370 1.339 . S
C368 C366 1.416 . S
C368 C370 1.416 . S
C368 C401 1.448 . S
C369 H354 0.930 . S
C369 N365 1.334 . S
C369 C367 1.390 . S
C370 C367 1.339 . S
C370 C368 1.416 . S
C370 H377 0.930 . S
N371 Tb336 2.572 . S
N371 C372 1.340 . S
N371 C374 1.361 . S
C372 H358 0.930 . S
C372 N371 1.340 . S
C372 C376 1.407 . S
C373 C374 1.413 . S
C373 C375 1.416 . S
C373 C402 1.427 . S
C374 C366 1.424 . S
C374 N371 1.361 . S
C374 C373 1.413 . S
C375 H364 0.931 . S
C375 C373 1.416 . S
C375 C376 1.332 . S
C376 H355 0.929 . S
C376 C372 1.407 . S
C376 C375 1.332 . S
H377 C370 0.930 . S
H378 C401 0.930 . S
H379 C402 0.929 . S
O380 Tb336 2.465 . S
O380 C400 1.264 . S
O381 Tb336 2.387 . S
O381 C392 1.264 . S
O382 Tb347 2.349 . S
O382 C392 1.243 . S
O383 Tb336 2.428 . S
O383 C400 1.256 . S
O384 Tb336 2.308 . S
O384 C399 1.266 . S
O385 Tb347 2.393 . S
O385 C399 1.248 . S
O386 Tb347 2.465 1_655 S
O386 C411 1.264 . S
O387 Tb347 2.387 . S
O387 C403 1.264 . S
O388 Tb336 2.349 . S
O388 C403 1.243 . S
O389 Tb347 2.428 1_655 S
O389 C411 1.256 . S
O390 Tb347 2.308 . S
O390 C410 1.266 . S
O391 Tb336 2.393 . S
O391 C410 1.248 . S
C392 O381 1.264 . S
C392 O382 1.243 . S
C393 C396 1.399 . S
C393 C398 1.383 . S
C393 C400 1.496 . S
C394 C395 1.399 . S
C394 C398 1.389 . S
C395 C394 1.399 . S
C395 C397 1.380 . S
C395 H412 0.929 . S
C396 C393 1.399 . S
C396 C397 1.392 . S
C396 H413 0.929 . S
C397 C395 1.380 . S
C397 C396 1.392 . S
C397 H414 0.929 . S
C398 C393 1.383 . S
C398 C394 1.389 . S
C398 H415 0.931 . S
C399 O384 1.266 . S
C399 O385 1.248 . S
C400 Tb336 2.802 . S
C400 O380 1.264 . S
C400 O383 1.256 . S
C400 C393 1.496 . S
C401 C368 1.448 . S
C401 H378 0.930 . S
C401 C402 1.328 . S
C402 C373 1.427 . S
C402 H379 0.929 . S
C402 C401 1.328 . S
C403 O387 1.264 . S
C403 O388 1.243 . S
C404 C407 1.399 . S
C404 C408 1.383 . S
C404 C411 1.496 . S
C405 C406 1.399 . S
C405 C408 1.389 . S
C406 C405 1.399 . S
C406 C409 1.380 . S
C406 H416 0.929 . S
C407 C404 1.399 . S
C407 C409 1.392 . S
C407 H417 0.929 . S
C408 C404 1.383 . S
C408 C405 1.389 . S
C408 H418 0.931 . S
C409 C406 1.380 . S
C409 C407 1.392 . S
C409 H419 0.929 . S
C410 O390 1.266 . S
C410 O391 1.248 . S
C411 Tb347 2.802 1_655 S
C411 O386 1.264 . S
C411 O389 1.256 . S
C411 C404 1.496 . S
H412 C395 0.929 . S
H413 C396 0.929 . S
H414 C397 0.929 . S
H415 C398 0.931 . S
H416 C406 0.929 . S
H417 C407 0.929 . S
H418 C408 0.931 . S
H419 C409 0.929 . S
Tb420 N449 2.617 . S
Tb420 N455 2.572 . S
Tb420 O464 2.465 . S
Tb420 O465 2.387 . S
Tb420 O467 2.428 . S
Tb420 O468 2.308 . S
Tb420 O472 2.349 . S
Tb420 O475 2.393 . S
Tb420 C484 2.802 . S
C421 N422 1.379 . S
C421 C424 1.416 . S
C421 C428 1.424 1_545 S
N422 C421 1.379 . S
N422 C425 1.334 . S
N422 Tb431 2.617 1_556 S
C423 C425 1.390 . S
C423 C426 1.339 . S
C423 H443 0.930 . S
C424 C421 1.416 . S
C424 C426 1.416 . S
C424 C430 1.448 1_545 S
C425 N422 1.334 . S
C425 C423 1.390 . S
C425 H436 0.930 1_556 S
C426 C423 1.339 . S
C426 C424 1.416 . S
C426 H447 0.930 . S
C427 C428 1.413 . S
C427 C429 1.427 . S
C427 C433 1.416 . S
C428 C421 1.424 1_565 S
C428 C427 1.413 . S
C428 N432 1.361 1_556 S
C429 C427 1.427 . S
C429 C430 1.328 . S
C429 H444 0.929 . S
C430 C424 1.448 1_565 S
C430 C429 1.328 . S
C430 H445 0.930 . S
Tb431 N422 2.617 1_554 S
Tb431 N432 2.572 1_545 S
Tb431 O466 2.349 . S
Tb431 O469 2.393 . S
Tb431 O470 2.465 1_545 S
Tb431 O471 2.387 . S
Tb431 O473 2.428 1_545 S
Tb431 O474 2.308 . S
Tb431 C495 2.802 1_545 S
N432 C428 1.361 1_554 S
N432 Tb431 2.572 1_565 S
N432 C434 1.340 . S
C433 C427 1.416 . S
C433 C435 1.332 . S
C433 H441 0.931 . S
C434 N432 1.340 . S
C434 C435 1.407 1_554 S
C434 H440 0.930 . S
C435 C433 1.332 . S
C435 C434 1.407 1_556 S
C435 H437 0.929 1_556 S
H436 C425 0.930 1_554 S
H437 C435 0.929 1_554 S
H438 C453 0.930 . S
H439 C460 0.929 . S
H440 C434 0.930 . S
H441 C433 0.931 . S
H442 C456 0.930 . S
H443 C423 0.930 . S
H444 C429 0.929 . S
H445 C430 0.930 . S
H446 C451 0.930 . S
H447 C426 0.930 . S
H448 C459 0.931 . S
N449 Tb420 2.617 . S
N449 C450 1.379 . S
N449 C453 1.334 . S
C450 N449 1.379 . S
C450 C452 1.416 . S
C450 C458 1.424 . S
C451 H446 0.930 . S
C451 C453 1.390 . S
C451 C454 1.339 . S
C452 C450 1.416 . S
C452 C454 1.416 . S
C452 C485 1.448 . S
C453 H438 0.930 . S
C453 N449 1.334 . S
C453 C451 1.390 . S
C454 C451 1.339 . S
C454 C452 1.416 . S
C454 H461 0.930 . S
N455 Tb420 2.572 . S
N455 C456 1.340 . S
N455 C458 1.361 . S
C456 H442 0.930 . S
C456 N455 1.340 . S
C456 C460 1.407 . S
C457 C458 1.413 . S
C457 C459 1.416 . S
C457 C486 1.427 . S
C458 C450 1.424 . S
C458 N455 1.361 . S
C458 C457 1.413 . S
C459 H448 0.931 . S
C459 C457 1.416 . S
C459 C460 1.332 . S
C460 H439 0.929 . S
C460 C456 1.407 . S
C460 C459 1.332 . S
H461 C454 0.930 . S
H462 C485 0.930 . S
H463 C486 0.929 . S
O464 Tb420 2.465 . S
O464 C484 1.264 . S
O465 Tb420 2.387 . S
O465 C476 1.264 . S
O466 Tb431 2.349 . S
O466 C476 1.243 . S
O467 Tb420 2.428 . S
O467 C484 1.256 . S
O468 Tb420 2.308 . S
O468 C483 1.266 . S
O469 Tb431 2.393 . S
O469 C483 1.248 . S
O470 Tb431 2.465 1_565 S
O470 C495 1.264 . S
O471 Tb431 2.387 . S
O471 C487 1.264 . S
O472 Tb420 2.349 . S
O472 C487 1.243 . S
O473 Tb431 2.428 1_565 S
O473 C495 1.256 . S
O474 Tb431 2.308 . S
O474 C494 1.266 . S
O475 Tb420 2.393 . S
O475 C494 1.248 . S
C476 O465 1.264 . S
C476 O466 1.243 . S
C477 C480 1.399 . S
C477 C482 1.383 . S
C477 C484 1.496 . S
C478 C479 1.399 . S
C478 C482 1.389 . S
C479 C478 1.399 . S
C479 C481 1.380 . S
C479 H496 0.929 . S
C480 C477 1.399 . S
C480 C481 1.392 . S
C480 H497 0.929 . S
C481 C479 1.380 . S
C481 C480 1.392 . S
C481 H498 0.929 . S
C482 C477 1.383 . S
C482 C478 1.389 . S
C482 H499 0.931 . S
C483 O468 1.266 . S
C483 O469 1.248 . S
C484 Tb420 2.802 . S
C484 O464 1.264 . S
C484 O467 1.256 . S
C484 C477 1.496 . S
C485 C452 1.448 . S
C485 H462 0.930 . S
C485 C486 1.328 . S
C486 C457 1.427 . S
C486 H463 0.929 . S
C486 C485 1.328 . S
C487 O471 1.264 . S
C487 O472 1.243 . S
C488 C491 1.399 . S
C488 C492 1.383 . S
C488 C495 1.496 . S
C489 C490 1.399 . S
C489 C492 1.389 . S
C490 C489 1.399 . S
C490 C493 1.380 . S
C490 H500 0.929 . S
C491 C488 1.399 . S
C491 C493 1.392 . S
C491 H501 0.929 . S
C492 C488 1.383 . S
C492 C489 1.389 . S
C492 H502 0.931 . S
C493 C490 1.380 . S
C493 C491 1.392 . S
C493 H503 0.929 . S
C494 O474 1.266 . S
C494 O475 1.248 . S
C495 Tb431 2.802 1_565 S
C495 O470 1.264 . S
C495 O473 1.256 . S
C495 C488 1.496 . S
H496 C479 0.929 . S
H497 C480 0.929 . S
H498 C481 0.929 . S
H499 C482 0.931 . S
H500 C490 0.929 . S
H501 C491 0.929 . S
H502 C492 0.931 . S
H503 C493 0.929 . S
Tb504 N533 2.617 1_554 S
Tb504 N539 2.572 . S
Tb504 O548 2.465 . S
Tb504 O549 2.387 . S
Tb504 O551 2.428 . S
Tb504 O552 2.308 . S
Tb504 O556 2.349 . S
Tb504 O559 2.393 . S
Tb504 C568 2.802 . S
C505 N506 1.379 . S
C505 C508 1.416 . S
C505 C512 1.424 . S
N506 C505 1.379 . S
N506 C509 1.334 . S
N506 Tb515 2.617 . S
C507 C509 1.390 . S
C507 C510 1.339 . S
C507 H527 0.930 . S
C508 C505 1.416 . S
C508 C510 1.416 . S
C508 C514 1.448 . S
C509 N506 1.334 . S
C509 C507 1.390 . S
C509 H520 0.930 . S
C510 C507 1.339 . S
C510 C508 1.416 . S
C510 H531 0.930 . S
C511 C512 1.413 . S
C511 C513 1.427 . S
C511 C517 1.416 . S
C512 C505 1.424 . S
C512 C511 1.413 . S
C512 N516 1.361 . S
C513 C511 1.427 . S
C513 C514 1.328 . S
C513 H528 0.929 . S
C514 C508 1.448 . S
C514 C513 1.328 . S
C514 H529 0.930 . S
Tb515 N506 2.617 . S
Tb515 N516 2.572 . S
Tb515 O550 2.349 . S
Tb515 O553 2.393 . S
Tb515 O554 2.465 . S
Tb515 O555 2.387 . S
Tb515 O557 2.428 . S
Tb515 O558 2.308 . S
Tb515 C579 2.802 . S
N516 C512 1.361 . S
N516 Tb515 2.572 . S
N516 C518 1.340 . S
C517 C511 1.416 . S
C517 C519 1.332 . S
C517 H525 0.931 . S
C518 N516 1.340 . S
C518 C519 1.407 . S
C518 H524 0.930 . S
C519 C517 1.332 . S
C519 C518 1.407 . S
C519 H521 0.929 . S
H520 C509 0.930 . S
H521 C519 0.929 . S
H522 C537 0.930 . S
H523 C544 0.929 . S
H524 C518 0.930 . S
H525 C517 0.931 . S
H526 C540 0.930 . S
H527 C507 0.930 . S
H528 C513 0.929 . S
H529 C514 0.930 . S
H530 C535 0.930 . S
H531 C510 0.930 . S
H532 C543 0.931 . S
N533 Tb504 2.617 1_556 S
N533 C534 1.379 . S
N533 C537 1.334 . S
C534 N533 1.379 . S
C534 C536 1.416 . S
C534 C542 1.424 1_556 S
C535 H530 0.930 . S
C535 C537 1.390 . S
C535 C538 1.339 . S
C536 C534 1.416 . S
C536 C538 1.416 . S
C536 C569 1.448 . S
C537 H522 0.930 . S
C537 N533 1.334 . S
C537 C535 1.390 . S
C538 C535 1.339 . S
C538 C536 1.416 . S
C538 H545 0.930 . S
N539 Tb504 2.572 . S
N539 C540 1.340 . S
N539 C542 1.361 . S
C540 H526 0.930 . S
C540 N539 1.340 . S
C540 C544 1.407 . S
C541 C542 1.413 . S
C541 C543 1.416 . S
C541 C570 1.427 1_554 S
C542 C534 1.424 1_554 S
C542 N539 1.361 . S
C542 C541 1.413 . S
C543 H532 0.931 . S
C543 C541 1.416 . S
C543 C544 1.332 . S
C544 H523 0.929 . S
C544 C540 1.407 . S
C544 C543 1.332 . S
H545 C538 0.930 . S
H546 C569 0.930 . S
H547 C570 0.929 . S
O548 Tb504 2.465 . S
O548 C568 1.264 . S
O549 Tb504 2.387 . S
O549 C560 1.264 . S
O550 Tb515 2.349 . S
O550 C560 1.243 . S
O551 Tb504 2.428 . S
O551 C568 1.256 . S
O552 Tb504 2.308 . S
O552 C567 1.266 . S
O553 Tb515 2.393 . S
O553 C567 1.248 . S
O554 Tb515 2.465 . S
O554 C579 1.264 . S
O555 Tb515 2.387 . S
O555 C571 1.264 . S
O556 Tb504 2.349 . S
O556 C571 1.243 . S
O557 Tb515 2.428 . S
O557 C579 1.256 . S
O558 Tb515 2.308 . S
O558 C578 1.266 . S
O559 Tb504 2.393 . S
O559 C578 1.248 . S
C560 O549 1.264 . S
C560 O550 1.243 . S
C561 C564 1.399 . S
C561 C566 1.383 . S
C561 C568 1.496 . S
C562 C563 1.399 . S
C562 C566 1.389 . S
C563 C562 1.399 . S
C563 C565 1.380 . S
C563 H580 0.929 . S
C564 C561 1.399 . S
C564 C565 1.392 . S
C564 H581 0.929 . S
C565 C563 1.380 . S
C565 C564 1.392 . S
C565 H582 0.929 . S
C566 C561 1.383 . S
C566 C562 1.389 . S
C566 H583 0.931 . S
C567 O552 1.266 . S
C567 O553 1.248 . S
C568 Tb504 2.802 . S
C568 O548 1.264 . S
C568 O551 1.256 . S
C568 C561 1.496 . S
C569 C536 1.448 . S
C569 H546 0.930 . S
C569 C570 1.328 . S
C570 C541 1.427 1_556 S
C570 H547 0.929 . S
C570 C569 1.328 . S
C571 O555 1.264 . S
C571 O556 1.243 . S
C572 C575 1.399 . S
C572 C576 1.383 . S
C572 C579 1.496 . S
C573 C574 1.399 . S
C573 C576 1.389 . S
C574 C573 1.399 . S
C574 C577 1.380 . S
C574 H584 0.929 . S
C575 C572 1.399 . S
C575 C577 1.392 . S
C575 H585 0.929 . S
C576 C572 1.383 . S
C576 C573 1.389 . S
C576 H586 0.931 . S
C577 C574 1.380 . S
C577 C575 1.392 . S
C577 H587 0.929 . S
C578 O558 1.266 . S
C578 O559 1.248 . S
C579 Tb515 2.802 . S
C579 O554 1.264 . S
C579 O557 1.256 . S
C579 C572 1.496 . S
H580 C563 0.929 . S
H581 C564 0.929 . S
H582 C565 0.929 . S
H583 C566 0.931 . S
H584 C574 0.929 . S
H585 C575 0.929 . S
H586 C576 0.931 . S
H587 C577 0.929 . S
Tb588 N617 2.617 1_554 S
Tb588 N623 2.572 . S
Tb588 O632 2.465 . S
Tb588 O633 2.387 . S
Tb588 O635 2.428 . S
Tb588 O636 2.308 . S
Tb588 O640 2.349 . S
Tb588 O643 2.393 . S
Tb588 C652 2.802 . S
C589 N590 1.379 . S
C589 C592 1.416 . S
C589 C596 1.424 . S
N590 C589 1.379 . S
N590 C593 1.334 . S
N590 Tb599 2.617 . S
C591 C593 1.390 . S
C591 C594 1.339 . S
C591 H611 0.930 . S
C592 C589 1.416 . S
C592 C594 1.416 . S
C592 C598 1.448 . S
C593 N590 1.334 . S
C593 C591 1.390 . S
C593 H604 0.930 . S
C594 C591 1.339 . S
C594 C592 1.416 . S
C594 H615 0.930 . S
C595 C596 1.413 . S
C595 C597 1.427 . S
C595 C601 1.416 . S
C596 C589 1.424 . S
C596 C595 1.413 . S
C596 N600 1.361 . S
C597 C595 1.427 . S
C597 C598 1.328 . S
C597 H612 0.929 . S
C598 C592 1.448 . S
C598 C597 1.328 . S
C598 H613 0.930 . S
Tb599 N590 2.617 . S
Tb599 N600 2.572 . S
Tb599 O634 2.349 . S
Tb599 O637 2.393 . S
Tb599 O638 2.465 . S
Tb599 O639 2.387 . S
Tb599 O641 2.428 . S
Tb599 O642 2.308 . S
Tb599 C663 2.802 . S
N600 C596 1.361 . S
N600 Tb599 2.572 . S
N600 C602 1.340 . S
C601 C595 1.416 . S
C601 C603 1.332 . S
C601 H609 0.931 . S
C602 N600 1.340 . S
C602 C603 1.407 . S
C602 H608 0.930 . S
C603 C601 1.332 . S
C603 C602 1.407 . S
C603 H605 0.929 . S
H604 C593 0.930 . S
H605 C603 0.929 . S
H606 C621 0.930 . S
H607 C628 0.929 . S
H608 C602 0.930 . S
H609 C601 0.931 . S
H610 C624 0.930 . S
H611 C591 0.930 . S
H612 C597 0.929 . S
H613 C598 0.930 . S
H614 C619 0.930 . S
H615 C594 0.930 . S
H616 C627 0.931 . S
N617 Tb588 2.617 1_556 S
N617 C618 1.379 . S
N617 C621 1.334 . S
C618 N617 1.379 . S
C618 C620 1.416 . S
C618 C626 1.424 1_556 S
C619 H614 0.930 . S
C619 C621 1.390 . S
C619 C622 1.339 . S
C620 C618 1.416 . S
C620 C622 1.416 . S
C620 C653 1.448 . S
C621 H606 0.930 . S
C621 N617 1.334 . S
C621 C619 1.390 . S
C622 C619 1.339 . S
C622 C620 1.416 . S
C622 H629 0.930 . S
N623 Tb588 2.572 . S
N623 C624 1.340 . S
N623 C626 1.361 . S
C624 H610 0.930 . S
C624 N623 1.340 . S
C624 C628 1.407 . S
C625 C626 1.413 . S
C625 C627 1.416 . S
C625 C654 1.427 1_554 S
C626 C618 1.424 1_554 S
C626 N623 1.361 . S
C626 C625 1.413 . S
C627 H616 0.931 . S
C627 C625 1.416 . S
C627 C628 1.332 . S
C628 H607 0.929 . S
C628 C624 1.407 . S
C628 C627 1.332 . S
H629 C622 0.930 . S
H630 C653 0.930 . S
H631 C654 0.929 . S
O632 Tb588 2.465 . S
O632 C652 1.264 . S
O633 Tb588 2.387 . S
O633 C644 1.264 . S
O634 Tb599 2.349 . S
O634 C644 1.243 . S
O635 Tb588 2.428 . S
O635 C652 1.256 . S
O636 Tb588 2.308 . S
O636 C651 1.266 . S
O637 Tb599 2.393 . S
O637 C651 1.248 . S
O638 Tb599 2.465 . S
O638 C663 1.264 . S
O639 Tb599 2.387 . S
O639 C655 1.264 . S
O640 Tb588 2.349 . S
O640 C655 1.243 . S
O641 Tb599 2.428 . S
O641 C663 1.256 . S
O642 Tb599 2.308 . S
O642 C662 1.266 . S
O643 Tb588 2.393 . S
O643 C662 1.248 . S
C644 O633 1.264 . S
C644 O634 1.243 . S
C645 C648 1.399 . S
C645 C650 1.383 . S
C645 C652 1.496 . S
C646 C647 1.399 . S
C646 C650 1.389 . S
C647 C646 1.399 . S
C647 C649 1.380 . S
C647 H664 0.929 . S
C648 C645 1.399 . S
C648 C649 1.392 . S
C648 H665 0.929 . S
C649 C647 1.380 . S
C649 C648 1.392 . S
C649 H666 0.929 . S
C650 C645 1.383 . S
C650 C646 1.389 . S
C650 H667 0.931 . S
C651 O636 1.266 . S
C651 O637 1.248 . S
C652 Tb588 2.802 . S
C652 O632 1.264 . S
C652 O635 1.256 . S
C652 C645 1.496 . S
C653 C620 1.448 . S
C653 H630 0.930 . S
C653 C654 1.328 . S
C654 C625 1.427 1_556 S
C654 H631 0.929 . S
C654 C653 1.328 . S
C655 O639 1.264 . S
C655 O640 1.243 . S
C656 C659 1.399 . S
C656 C660 1.383 . S
C656 C663 1.496 . S
C657 C658 1.399 . S
C657 C660 1.389 . S
C658 C657 1.399 . S
C658 C661 1.380 . S
C658 H668 0.929 . S
C659 C656 1.399 . S
C659 C661 1.392 . S
C659 H669 0.929 . S
C660 C656 1.383 . S
C660 C657 1.389 . S
C660 H670 0.931 . S
C661 C658 1.380 . S
C661 C659 1.392 . S
C661 H671 0.929 . S
C662 O642 1.266 . S
C662 O643 1.248 . S
C663 Tb599 2.802 . S
C663 O638 1.264 . S
C663 O641 1.256 . S
C663 C656 1.496 . S
H664 C647 0.929 . S
H665 C648 0.929 . S
H666 C649 0.929 . S
H667 C650 0.931 . S
H668 C658 0.929 . S
H669 C659 0.929 . S
H670 C660 0.931 . S
H671 C661 0.929 . S
Tb672 N701 2.617 . S
Tb672 N707 2.572 . S
Tb672 O716 2.465 . S
Tb672 O717 2.387 . S
Tb672 O719 2.428 . S
Tb672 O720 2.308 . S
Tb672 O724 2.349 . S
Tb672 O727 2.393 . S
Tb672 C736 2.802 . S
C673 N674 1.379 . S
C673 C676 1.416 . S
C673 C680 1.424 . S
N674 C673 1.379 . S
N674 C677 1.334 . S
N674 Tb683 2.617 . S
C675 C677 1.390 . S
C675 C678 1.339 . S
C675 H695 0.930 . S
C676 C673 1.416 . S
C676 C678 1.416 . S
C676 C682 1.448 . S
C677 N674 1.334 . S
C677 C675 1.390 . S
C677 H688 0.930 . S
C678 C675 1.339 . S
C678 C676 1.416 . S
C678 H699 0.930 . S
C679 C680 1.413 . S
C679 C681 1.427 . S
C679 C685 1.416 . S
C680 C673 1.424 . S
C680 C679 1.413 . S
C680 N684 1.361 . S
C681 C679 1.427 . S
C681 C682 1.328 . S
C681 H696 0.929 . S
C682 C676 1.448 . S
C682 C681 1.328 . S
C682 H697 0.930 . S
Tb683 N674 2.617 . S
Tb683 N684 2.572 . S
Tb683 O718 2.349 . S
Tb683 O721 2.393 . S
Tb683 O722 2.465 . S
Tb683 O723 2.387 . S
Tb683 O725 2.428 . S
Tb683 O726 2.308 . S
Tb683 C747 2.802 . S
N684 C680 1.361 . S
N684 Tb683 2.572 . S
N684 C686 1.340 . S
C685 C679 1.416 . S
C685 C687 1.332 . S
C685 H693 0.931 . S
C686 N684 1.340 . S
C686 C687 1.407 . S
C686 H692 0.930 . S
C687 C685 1.332 . S
C687 C686 1.407 . S
C687 H689 0.929 . S
H688 C677 0.930 . S
H689 C687 0.929 . S
H690 C705 0.930 . S
H691 C712 0.929 . S
H692 C686 0.930 . S
H693 C685 0.931 . S
H694 C708 0.930 . S
H695 C675 0.930 . S
H696 C681 0.929 . S
H697 C682 0.930 . S
H698 C703 0.930 . S
H699 C678 0.930 . S
H700 C711 0.931 . S
N701 Tb672 2.617 . S
N701 C702 1.379 . S
N701 C705 1.334 . S
C702 N701 1.379 . S
C702 C704 1.416 . S
C702 C710 1.424 . S
C703 H698 0.930 . S
C703 C705 1.390 . S
C703 C706 1.339 . S
C704 C702 1.416 . S
C704 C706 1.416 . S
C704 C737 1.448 . S
C705 H690 0.930 . S
C705 N701 1.334 . S
C705 C703 1.390 . S
C706 C703 1.339 . S
C706 C704 1.416 . S
C706 H713 0.930 . S
N707 Tb672 2.572 . S
N707 C708 1.340 . S
N707 C710 1.361 . S
C708 H694 0.930 . S
C708 N707 1.340 . S
C708 C712 1.407 . S
C709 C710 1.413 . S
C709 C711 1.416 . S
C709 C738 1.427 . S
C710 C702 1.424 . S
C710 N707 1.361 . S
C710 C709 1.413 . S
C711 H700 0.931 . S
C711 C709 1.416 . S
C711 C712 1.332 . S
C712 H691 0.929 . S
C712 C708 1.407 . S
C712 C711 1.332 . S
H713 C706 0.930 . S
H714 C737 0.930 . S
H715 C738 0.929 . S
O716 Tb672 2.465 . S
O716 C736 1.264 . S
O717 Tb672 2.387 . S
O717 C728 1.264 . S
O718 Tb683 2.349 . S
O718 C728 1.243 . S
O719 Tb672 2.428 . S
O719 C736 1.256 . S
O720 Tb672 2.308 . S
O720 C735 1.266 . S
O721 Tb683 2.393 . S
O721 C735 1.248 . S
O722 Tb683 2.465 . S
O722 C747 1.264 . S
O723 Tb683 2.387 . S
O723 C739 1.264 . S
O724 Tb672 2.349 . S
O724 C739 1.243 . S
O725 Tb683 2.428 . S
O725 C747 1.256 . S
O726 Tb683 2.308 . S
O726 C746 1.266 . S
O727 Tb672 2.393 . S
O727 C746 1.248 . S
C728 O717 1.264 . S
C728 O718 1.243 . S
C729 C732 1.399 . S
C729 C734 1.383 . S
C729 C736 1.496 . S
C730 C731 1.399 . S
C730 C734 1.389 . S
C731 C730 1.399 . S
C731 C733 1.380 . S
C731 H748 0.929 . S
C732 C729 1.399 . S
C732 C733 1.392 . S
C732 H749 0.929 . S
C733 C731 1.380 . S
C733 C732 1.392 . S
C733 H750 0.929 . S
C734 C729 1.383 . S
C734 C730 1.389 . S
C734 H751 0.931 . S
C735 O720 1.266 . S
C735 O721 1.248 . S
C736 Tb672 2.802 . S
C736 O716 1.264 . S
C736 O719 1.256 . S
C736 C729 1.496 . S
C737 C704 1.448 . S
C737 H714 0.930 . S
C737 C738 1.328 . S
C738 C709 1.427 . S
C738 H715 0.929 . S
C738 C737 1.328 . S
C739 O723 1.264 . S
C739 O724 1.243 . S
C740 C743 1.399 . S
C740 C744 1.383 . S
C740 C747 1.496 . S
C741 C742 1.399 . S
C741 C744 1.389 . S
C742 C741 1.399 . S
C742 C745 1.380 . S
C742 H752 0.929 . S
C743 C740 1.399 . S
C743 C745 1.392 . S
C743 H753 0.929 . S
C744 C740 1.383 . S
C744 C741 1.389 . S
C744 H754 0.931 . S
C745 C742 1.380 . S
C745 C743 1.392 . S
C745 H755 0.929 . S
C746 O726 1.266 . S
C746 O727 1.248 . S
C747 Tb683 2.802 . S
C747 O722 1.264 . S
C747 O725 1.256 . S
C747 C740 1.496 . S
H748 C731 0.929 . S
H749 C732 0.929 . S
H750 C733 0.929 . S
H751 C734 0.931 . S
H752 C742 0.929 . S
H753 C743 0.929 . S
H754 C744 0.931 . S
H755 C745 0.929 . S
Tb756 N785 2.617 . S
Tb756 N791 2.572 . S
Tb756 O800 2.465 . S
Tb756 O801 2.387 . S
Tb756 O803 2.428 . S
Tb756 O804 2.308 . S
Tb756 O808 2.349 . S
Tb756 O811 2.393 . S
Tb756 C820 2.802 . S
C757 N758 1.379 . S
C757 C760 1.416 . S
C757 C764 1.424 . S
N758 C757 1.379 . S
N758 C761 1.334 . S
N758 Tb767 2.617 . S
C759 C761 1.390 . S
C759 C762 1.339 . S
C759 H779 0.930 . S
C760 C757 1.416 . S
C760 C762 1.416 . S
C760 C766 1.448 . S
C761 N758 1.334 . S
C761 C759 1.390 . S
C761 H772 0.930 . S
C762 C759 1.339 . S
C762 C760 1.416 . S
C762 H783 0.930 . S
C763 C764 1.413 . S
C763 C765 1.427 . S
C763 C769 1.416 . S
C764 C757 1.424 . S
C764 C763 1.413 . S
C764 N768 1.361 . S
C765 C763 1.427 . S
C765 C766 1.328 . S
C765 H780 0.929 . S
C766 C760 1.448 . S
C766 C765 1.328 . S
C766 H781 0.930 . S
Tb767 N758 2.617 . S
Tb767 N768 2.572 . S
Tb767 O802 2.349 . S
Tb767 O805 2.393 . S
Tb767 O806 2.465 . S
Tb767 O807 2.387 . S
Tb767 O809 2.428 . S
Tb767 O810 2.308 . S
Tb767 C831 2.802 . S
N768 C764 1.361 . S
N768 Tb767 2.572 . S
N768 C770 1.340 . S
C769 C763 1.416 . S
C769 C771 1.332 . S
C769 H777 0.931 . S
C770 N768 1.340 . S
C770 C771 1.407 . S
C770 H776 0.930 . S
C771 C769 1.332 . S
C771 C770 1.407 . S
C771 H773 0.929 . S
H772 C761 0.930 . S
H773 C771 0.929 . S
H774 C789 0.930 . S
H775 C796 0.929 . S
H776 C770 0.930 . S
H777 C769 0.931 . S
H778 C792 0.930 . S
H779 C759 0.930 . S
H780 C765 0.929 . S
H781 C766 0.930 . S
H782 C787 0.930 . S
H783 C762 0.930 . S
H784 C795 0.931 . S
N785 Tb756 2.617 . S
N785 C786 1.379 . S
N785 C789 1.334 . S
C786 N785 1.379 . S
C786 C788 1.416 . S
C786 C794 1.424 . S
C787 H782 0.930 . S
C787 C789 1.390 . S
C787 C790 1.339 . S
C788 C786 1.416 . S
C788 C790 1.416 . S
C788 C821 1.448 . S
C789 H774 0.930 . S
C789 N785 1.334 . S
C789 C787 1.390 . S
C790 C787 1.339 . S
C790 C788 1.416 . S
C790 H797 0.930 . S
N791 Tb756 2.572 . S
N791 C792 1.340 . S
N791 C794 1.361 . S
C792 H778 0.930 . S
C792 N791 1.340 . S
C792 C796 1.407 . S
C793 C794 1.413 . S
C793 C795 1.416 . S
C793 C822 1.427 . S
C794 C786 1.424 . S
C794 N791 1.361 . S
C794 C793 1.413 . S
C795 H784 0.931 . S
C795 C793 1.416 . S
C795 C796 1.332 . S
C796 H775 0.929 . S
C796 C792 1.407 . S
C796 C795 1.332 . S
H797 C790 0.930 . S
H798 C821 0.930 . S
H799 C822 0.929 . S
O800 Tb756 2.465 . S
O800 C820 1.264 . S
O801 Tb756 2.387 . S
O801 C812 1.264 . S
O802 Tb767 2.349 . S
O802 C812 1.243 . S
O803 Tb756 2.428 . S
O803 C820 1.256 . S
O804 Tb756 2.308 . S
O804 C819 1.266 . S
O805 Tb767 2.393 . S
O805 C819 1.248 . S
O806 Tb767 2.465 . S
O806 C831 1.264 . S
O807 Tb767 2.387 . S
O807 C823 1.264 . S
O808 Tb756 2.349 . S
O808 C823 1.243 . S
O809 Tb767 2.428 . S
O809 C831 1.256 . S
O810 Tb767 2.308 . S
O810 C830 1.266 . S
O811 Tb756 2.393 . S
O811 C830 1.248 . S
C812 O801 1.264 . S
C812 O802 1.243 . S
C813 C816 1.399 . S
C813 C818 1.383 . S
C813 C820 1.496 . S
C814 C815 1.399 . S
C814 C818 1.389 . S
C815 C814 1.399 . S
C815 C817 1.380 . S
C815 H832 0.929 . S
C816 C813 1.399 . S
C816 C817 1.392 . S
C816 H833 0.929 . S
C817 C815 1.380 . S
C817 C816 1.392 . S
C817 H834 0.929 . S
C818 C813 1.383 . S
C818 C814 1.389 . S
C818 H835 0.931 . S
C819 O804 1.266 . S
C819 O805 1.248 . S
C820 Tb756 2.802 . S
C820 O800 1.264 . S
C820 O803 1.256 . S
C820 C813 1.496 . S
C821 C788 1.448 . S
C821 H798 0.930 . S
C821 C822 1.328 . S
C822 C793 1.427 . S
C822 H799 0.929 . S
C822 C821 1.328 . S
C823 O807 1.264 . S
C823 O808 1.243 . S
C824 C827 1.399 . S
C824 C828 1.383 . S
C824 C831 1.496 . S
C825 C826 1.399 . S
C825 C828 1.389 . S
C826 C825 1.399 . S
C826 C829 1.380 . S
C826 H836 0.929 . S
C827 C824 1.399 . S
C827 C829 1.392 . S
C827 H837 0.929 . S
C828 C824 1.383 . S
C828 C825 1.389 . S
C828 H838 0.931 . S
C829 C826 1.380 . S
C829 C827 1.392 . S
C829 H839 0.929 . S
C830 O810 1.266 . S
C830 O811 1.248 . S
C831 Tb767 2.802 . S
C831 O806 1.264 . S
C831 O809 1.256 . S
C831 C824 1.496 . S
H832 C815 0.929 . S
H833 C816 0.929 . S
H834 C817 0.929 . S
H835 C818 0.931 . S
H836 C826 0.929 . S
H837 C827 0.929 . S
H838 C828 0.931 . S
H839 C829 0.929 . S
Tb840 N869 2.617 . S
Tb840 N875 2.572 1_455 S
Tb840 O884 2.465 1_455 S
Tb840 O885 2.387 . S
Tb840 O887 2.428 1_455 S
Tb840 O888 2.308 . S
Tb840 O892 2.349 . S
Tb840 O895 2.393 . S
Tb840 C904 2.802 1_455 S
C841 N842 1.379 . S
C841 C844 1.416 . S
C841 C848 1.424 . S
N842 C841 1.379 . S
N842 C845 1.334 . S
N842 Tb851 2.617 . S
C843 C845 1.390 . S
C843 C846 1.339 . S
C843 H863 0.930 . S
C844 C841 1.416 . S
C844 C846 1.416 . S
C844 C850 1.448 . S
C845 N842 1.334 . S
C845 C843 1.390 . S
C845 H856 0.930 . S
C846 C843 1.339 . S
C846 C844 1.416 . S
C846 H867 0.930 . S
C847 C848 1.413 . S
C847 C849 1.427 . S
C847 C853 1.416 . S
C848 C841 1.424 . S
C848 C847 1.413 . S
C848 N852 1.361 . S
C849 C847 1.427 . S
C849 C850 1.328 . S
C849 H864 0.929 . S
C850 C844 1.448 . S
C850 C849 1.328 . S
C850 H865 0.930 . S
Tb851 N842 2.617 . S
Tb851 N852 2.572 . S
Tb851 O886 2.349 . S
Tb851 O889 2.393 . S
Tb851 O890 2.465 . S
Tb851 O891 2.387 . S
Tb851 O893 2.428 . S
Tb851 O894 2.308 . S
Tb851 C915 2.802 . S
N852 C848 1.361 . S
N852 Tb851 2.572 . S
N852 C854 1.340 . S
C853 C847 1.416 . S
C853 C855 1.332 . S
C853 H861 0.931 . S
C854 N852 1.340 . S
C854 C855 1.407 . S
C854 H860 0.930 . S
C855 C853 1.332 . S
C855 C854 1.407 . S
C855 H857 0.929 . S
H856 C845 0.930 . S
H857 C855 0.929 . S
H858 C873 0.930 . S
H859 C880 0.929 . S
H860 C854 0.930 . S
H861 C853 0.931 . S
H862 C876 0.930 . S
H863 C843 0.930 . S
H864 C849 0.929 . S
H865 C850 0.930 . S
H866 C871 0.930 . S
H867 C846 0.930 . S
H868 C879 0.931 . S
N869 Tb840 2.617 . S
N869 C870 1.379 . S
N869 C873 1.334 . S
C870 N869 1.379 . S
C870 C872 1.416 . S
C870 C878 1.424 1_455 S
C871 H866 0.930 . S
C871 C873 1.390 . S
C871 C874 1.339 . S
C872 C870 1.416 . S
C872 C874 1.416 . S
C872 C905 1.448 1_455 S
C873 H858 0.930 . S
C873 N869 1.334 . S
C873 C871 1.390 . S
C874 C871 1.339 . S
C874 C872 1.416 . S
C874 H881 0.930 . S
N875 Tb840 2.572 1_655 S
N875 C876 1.340 . S
N875 C878 1.361 . S
C876 H862 0.930 . S
C876 N875 1.340 . S
C876 C880 1.407 . S
C877 C878 1.413 . S
C877 C879 1.416 . S
C877 C906 1.427 . S
C878 C870 1.424 1_655 S
C878 N875 1.361 . S
C878 C877 1.413 . S
C879 H868 0.931 . S
C879 C877 1.416 . S
C879 C880 1.332 . S
C880 H859 0.929 . S
C880 C876 1.407 . S
C880 C879 1.332 . S
H881 C874 0.930 . S
H882 C905 0.930 . S
H883 C906 0.929 . S
O884 Tb840 2.465 1_655 S
O884 C904 1.264 . S
O885 Tb840 2.387 . S
O885 C896 1.264 . S
O886 Tb851 2.349 . S
O886 C896 1.243 . S
O887 Tb840 2.428 1_655 S
O887 C904 1.256 . S
O888 Tb840 2.308 . S
O888 C903 1.266 . S
O889 Tb851 2.393 . S
O889 C903 1.248 . S
O890 Tb851 2.465 . S
O890 C915 1.264 . S
O891 Tb851 2.387 . S
O891 C907 1.264 . S
O892 Tb840 2.349 . S
O892 C907 1.243 . S
O893 Tb851 2.428 . S
O893 C915 1.256 . S
O894 Tb851 2.308 . S
O894 C914 1.266 . S
O895 Tb840 2.393 . S
O895 C914 1.248 . S
C896 O885 1.264 . S
C896 O886 1.243 . S
C897 C900 1.399 . S
C897 C902 1.383 . S
C897 C904 1.496 . S
C898 C899 1.399 . S
C898 C902 1.389 . S
C899 C898 1.399 . S
C899 C901 1.380 . S
C899 H916 0.929 . S
C900 C897 1.399 . S
C900 C901 1.392 . S
C900 H917 0.929 . S
C901 C899 1.380 . S
C901 C900 1.392 . S
C901 H918 0.929 . S
C902 C897 1.383 . S
C902 C898 1.389 . S
C902 H919 0.931 . S
C903 O888 1.266 . S
C903 O889 1.248 . S
C904 Tb840 2.802 1_655 S
C904 O884 1.264 . S
C904 O887 1.256 . S
C904 C897 1.496 . S
C905 C872 1.448 1_655 S
C905 H882 0.930 . S
C905 C906 1.328 . S
C906 C877 1.427 . S
C906 H883 0.929 . S
C906 C905 1.328 . S
C907 O891 1.264 . S
C907 O892 1.243 . S
C908 C911 1.399 . S
C908 C912 1.383 . S
C908 C915 1.496 . S
C909 C910 1.399 . S
C909 C912 1.389 . S
C910 C909 1.399 . S
C910 C913 1.380 . S
C910 H920 0.929 . S
C911 C908 1.399 . S
C911 C913 1.392 . S
C911 H921 0.929 . S
C912 C908 1.383 . S
C912 C909 1.389 . S
C912 H922 0.931 . S
C913 C910 1.380 . S
C913 C911 1.392 . S
C913 H923 0.929 . S
C914 O894 1.266 . S
C914 O895 1.248 . S
C915 Tb851 2.802 . S
C915 O890 1.264 . S
C915 O893 1.256 . S
C915 C908 1.496 . S
H916 C899 0.929 . S
H917 C900 0.929 . S
H918 C901 0.929 . S
H919 C902 0.931 . S
H920 C910 0.929 . S
H921 C911 0.929 . S
H922 C912 0.931 . S
H923 C913 0.929 . S
Tb924 N953 2.617 . S
Tb924 N959 2.572 . S
Tb924 O968 2.465 . S
Tb924 O969 2.387 . S
Tb924 O971 2.428 . S
Tb924 O972 2.308 . S
Tb924 O976 2.349 . S
Tb924 O979 2.393 . S
Tb924 C988 2.802 . S
C925 N926 1.379 . S
C925 C928 1.416 . S
C925 C932 1.424 . S
N926 C925 1.379 . S
N926 C929 1.334 . S
N926 Tb935 2.617 . S
C927 C929 1.390 . S
C927 C930 1.339 . S
C927 H947 0.930 . S
C928 C925 1.416 . S
C928 C930 1.416 . S
C928 C934 1.448 . S
C929 N926 1.334 . S
C929 C927 1.390 . S
C929 H940 0.930 . S
C930 C927 1.339 . S
C930 C928 1.416 . S
C930 H951 0.930 . S
C931 C932 1.413 . S
C931 C933 1.427 . S
C931 C937 1.416 . S
C932 C925 1.424 . S
C932 C931 1.413 . S
C932 N936 1.361 . S
C933 C931 1.427 . S
C933 C934 1.328 . S
C933 H948 0.929 . S
C934 C928 1.448 . S
C934 C933 1.328 . S
C934 H949 0.930 . S
Tb935 N926 2.617 . S
Tb935 N936 2.572 . S
Tb935 O970 2.349 1_545 S
Tb935 O973 2.393 . S
Tb935 O974 2.465 1_545 S
Tb935 O975 2.387 . S
Tb935 O977 2.428 1_545 S
Tb935 O978 2.308 . S
Tb935 C999 2.802 1_545 S
N936 C932 1.361 . S
N936 Tb935 2.572 . S
N936 C938 1.340 . S
C937 C931 1.416 . S
C937 C939 1.332 . S
C937 H945 0.931 . S
C938 N936 1.340 . S
C938 C939 1.407 . S
C938 H944 0.930 . S
C939 C937 1.332 . S
C939 C938 1.407 . S
C939 H941 0.929 . S
H940 C929 0.930 . S
H941 C939 0.929 . S
H942 C957 0.930 . S
H943 C964 0.929 . S
H944 C938 0.930 . S
H945 C937 0.931 . S
H946 C960 0.930 . S
H947 C927 0.930 . S
H948 C933 0.929 . S
H949 C934 0.930 . S
H950 C955 0.930 . S
H951 C930 0.930 . S
H952 C963 0.931 . S
N953 Tb924 2.617 . S
N953 C954 1.379 . S
N953 C957 1.334 . S
C954 N953 1.379 . S
C954 C956 1.416 . S
C954 C962 1.424 . S
C955 H950 0.930 . S
C955 C957 1.390 . S
C955 C958 1.339 . S
C956 C954 1.416 . S
C956 C958 1.416 . S
C956 C989 1.448 . S
C957 H942 0.930 . S
C957 N953 1.334 . S
C957 C955 1.390 . S
C958 C955 1.339 . S
C958 C956 1.416 . S
C958 H965 0.930 . S
N959 Tb924 2.572 . S
N959 C960 1.340 . S
N959 C962 1.361 . S
C960 H946 0.930 . S
C960 N959 1.340 . S
C960 C964 1.407 . S
C961 C962 1.413 . S
C961 C963 1.416 . S
C961 C990 1.427 . S
C962 C954 1.424 . S
C962 N959 1.361 . S
C962 C961 1.413 . S
C963 H952 0.931 . S
C963 C961 1.416 . S
C963 C964 1.332 . S
C964 H943 0.929 . S
C964 C960 1.407 . S
C964 C963 1.332 . S
H965 C958 0.930 . S
H966 C989 0.930 . S
H967 C990 0.929 . S
O968 Tb924 2.465 . S
O968 C988 1.264 . S
O969 Tb924 2.387 . S
O969 C980 1.261 1_545 S
O970 Tb935 2.349 1_565 S
O970 C980 1.244 . S
O971 Tb924 2.428 . S
O971 C988 1.256 . S
O972 Tb924 2.308 . S
O972 C987 1.266 . S
O973 Tb935 2.393 . S
O973 C987 1.248 . S
O974 Tb935 2.465 1_565 S
O974 C999 1.264 . S
O975 Tb935 2.387 . S
O975 C991 1.264 . S
O976 Tb924 2.349 . S
O976 C991 1.243 . S
O977 Tb935 2.428 1_565 S
O977 C999 1.256 . S
O978 Tb935 2.308 . S
O978 C998 1.266 . S
O979 Tb924 2.393 . S
O979 C998 1.248 . S
C980 O969 1.261 1_565 S
C980 O970 1.244 . S
C981 C984 1.399 . S
C981 C986 1.383 . S
C981 C988 1.496 . S
C982 C983 1.399 . S
C982 C986 1.389 . S
C983 C982 1.399 . S
C983 C985 1.380 . S
C983 H1000 0.929 . S
C984 C981 1.399 . S
C984 C985 1.392 . S
C984 H1001 0.929 . S
C985 C983 1.380 . S
C985 C984 1.392 . S
C985 H1002 0.929 . S
C986 C981 1.383 . S
C986 C982 1.389 . S
C986 H1003 0.931 . S
C987 O972 1.266 . S
C987 O973 1.248 . S
C988 Tb924 2.802 . S
C988 O968 1.264 . S
C988 O971 1.256 . S
C988 C981 1.496 . S
C989 C956 1.448 . S
C989 H966 0.930 . S
C989 C990 1.328 . S
C990 C961 1.427 . S
C990 H967 0.929 . S
C990 C989 1.328 . S
C991 O975 1.264 . S
C991 O976 1.243 . S
C992 C995 1.399 . S
C992 C996 1.383 . S
C992 C999 1.496 . S
C993 C994 1.399 . S
C993 C996 1.389 . S
C994 C993 1.399 . S
C994 C997 1.380 . S
C994 H1004 0.929 . S
C995 C992 1.399 . S
C995 C997 1.392 . S
C995 H1005 0.929 . S
C996 C992 1.383 . S
C996 C993 1.389 . S
C996 H1006 0.931 . S
C997 C994 1.380 . S
C997 C995 1.392 . S
C997 H1007 0.929 . S
C998 O978 1.266 . S
C998 O979 1.248 . S
C999 Tb935 2.802 1_565 S
C999 O974 1.264 . S
C999 O977 1.256 . S
C999 C992 1.496 . S
H1000 C983 0.929 . S
H1001 C984 0.929 . S
H1002 C985 0.929 . S
H1003 C986 0.931 . S
H1004 C994 0.929 . S
H1005 C995 0.929 . S
H1006 C996 0.931 . S
H1007 C997 0.929 . S
Tb1008 N1037 2.617 1_556 S
Tb1008 N1043 2.572 1_655 S
Tb1008 O1052 2.465 1_655 S
Tb1008 O1053 2.387 . S
Tb1008 O1055 2.428 1_655 S
Tb1008 O1056 2.308 . S
Tb1008 O1060 2.349 . S
Tb1008 O1063 2.393 . S
Tb1008 C1072 2.802 1_655 S
C1009 N1010 1.379 . S
C1009 C1012 1.416 . S
C1009 C1016 1.424 . S
N1010 C1009 1.379 . S
N1010 C1013 1.334 . S
N1010 Tb1019 2.617 . S
C1011 C1013 1.390 . S
C1011 C1014 1.339 . S
C1011 H1031 0.930 . S
C1012 C1009 1.416 . S
C1012 C1014 1.416 . S
C1012 C1018 1.448 . S
C1013 N1010 1.334 . S
C1013 C1011 1.390 . S
C1013 H1024 0.930 . S
C1014 C1011 1.339 . S
C1014 C1012 1.416 . S
C1014 H1035 0.930 . S
C1015 C1016 1.413 . S
C1015 C1017 1.427 . S
C1015 C1021 1.416 . S
C1016 C1009 1.424 . S
C1016 C1015 1.413 . S
C1016 N1020 1.361 . S
C1017 C1015 1.427 . S
C1017 C1018 1.328 . S
C1017 H1032 0.929 . S
C1018 C1012 1.448 . S
C1018 C1017 1.328 . S
C1018 H1033 0.930 . S
Tb1019 N1010 2.617 . S
Tb1019 N1020 2.572 . S
Tb1019 O1054 2.349 . S
Tb1019 O1057 2.393 . S
Tb1019 O1058 2.465 . S
Tb1019 O1059 2.387 . S
Tb1019 O1061 2.428 . S
Tb1019 O1062 2.308 . S
Tb1019 C1083 2.802 . S
N1020 C1016 1.361 . S
N1020 Tb1019 2.572 . S
N1020 C1022 1.340 . S
C1021 C1015 1.416 . S
C1021 C1023 1.332 . S
C1021 H1029 0.931 . S
C1022 N1020 1.340 . S
C1022 C1023 1.407 . S
C1022 H1028 0.930 . S
C1023 C1021 1.332 . S
C1023 C1022 1.407 . S
C1023 H1025 0.929 . S
H1024 C1013 0.930 . S
H1025 C1023 0.929 . S
H1026 C1041 0.930 1_556 S
H1027 C1048 0.929 1_556 S
H1028 C1022 0.930 . S
H1029 C1021 0.931 . S
H1030 C1044 0.930 . S
H1031 C1011 0.930 . S
H1032 C1017 0.929 . S
H1033 C1018 0.930 . S
H1034 C1039 0.930 . S
H1035 C1014 0.930 . S
H1036 C1047 0.931 . S
N1037 Tb1008 2.617 1_554 S
N1037 C1038 1.379 . S
N1037 C1041 1.334 . S
C1038 N1037 1.379 . S
C1038 C1040 1.416 . S
C1038 C1046 1.424 1_655 S
C1039 H1034 0.930 . S
C1039 C1041 1.390 . S
C1039 C1042 1.339 . S
C1040 C1038 1.416 . S
C1040 C1042 1.416 . S
C1040 C1073 1.448 1_655 S
C1041 H1026 0.930 1_554 S
C1041 N1037 1.334 . S
C1041 C1039 1.390 . S
C1042 C1039 1.339 . S
C1042 C1040 1.416 . S
C1042 H1049 0.930 . S
N1043 Tb1008 2.572 1_455 S
N1043 C1044 1.340 . S
N1043 C1046 1.361 1_556 S
C1044 H1030 0.930 . S
C1044 N1043 1.340 . S
C1044 C1048 1.407 1_556 S
C1045 C1046 1.413 . S
C1045 C1047 1.416 . S
C1045 C1074 1.427 . S
C1046 C1038 1.424 1_455 S
C1046 N1043 1.361 1_554 S
C1046 C1045 1.413 . S
C1047 H1036 0.931 . S
C1047 C1045 1.416 . S
C1047 C1048 1.332 . S
C1048 H1027 0.929 1_554 S
C1048 C1044 1.407 1_554 S
C1048 C1047 1.332 . S
H1049 C1042 0.930 . S
H1050 C1073 0.930 . S
H1051 C1074 0.929 . S
O1052 Tb1008 2.465 1_455 S
O1052 C1072 1.264 . S
O1053 Tb1008 2.387 . S
O1053 C1064 1.264 . S
O1054 Tb1019 2.349 . S
O1054 C1064 1.243 . S
O1055 Tb1008 2.428 1_455 S
O1055 C1072 1.256 . S
O1056 Tb1008 2.308 . S
O1056 C1071 1.266 . S
O1057 Tb1019 2.393 . S
O1057 C1071 1.248 . S
O1058 Tb1019 2.465 . S
O1058 C1083 1.264 . S
O1059 Tb1019 2.387 . S
O1059 C1075 1.264 . S
O1060 Tb1008 2.349 . S
O1060 C1075 1.243 . S
O1061 Tb1019 2.428 . S
O1061 C1083 1.256 . S
O1062 Tb1019 2.308 . S
O1062 C1082 1.266 . S
O1063 Tb1008 2.393 . S
O1063 C1082 1.248 . S
C1064 O1053 1.264 . S
C1064 O1054 1.243 . S
C1065 C1068 1.399 . S
C1065 C1070 1.383 . S
C1065 C1072 1.496 . S
C1066 C1067 1.399 . S
C1066 C1070 1.389 . S
C1067 C1066 1.399 . S
C1067 C1069 1.380 . S
C1067 H1084 0.929 . S
C1068 C1065 1.399 . S
C1068 C1069 1.392 . S
C1068 H1085 0.929 . S
C1069 C1067 1.380 . S
C1069 C1068 1.392 . S
C1069 H1086 0.929 . S
C1070 C1065 1.383 . S
C1070 C1066 1.389 . S
C1070 H1087 0.931 . S
C1071 O1056 1.266 . S
C1071 O1057 1.248 . S
C1072 Tb1008 2.802 1_455 S
C1072 O1052 1.264 . S
C1072 O1055 1.256 . S
C1072 C1065 1.496 . S
C1073 C1040 1.448 1_455 S
C1073 H1050 0.930 . S
C1073 C1074 1.328 . S
C1074 C1045 1.427 . S
C1074 H1051 0.929 . S
C1074 C1073 1.328 . S
C1075 O1059 1.264 . S
C1075 O1060 1.243 . S
C1076 C1079 1.399 . S
C1076 C1080 1.383 . S
C1076 C1083 1.496 . S
C1077 C1078 1.399 . S
C1077 C1080 1.389 . S
C1078 C1077 1.399 . S
C1078 C1081 1.380 . S
C1078 H1088 0.929 . S
C1079 C1076 1.399 . S
C1079 C1081 1.392 . S
C1079 H1089 0.929 . S
C1080 C1076 1.383 . S
C1080 C1077 1.389 . S
C1080 H1090 0.931 . S
C1081 C1078 1.380 . S
C1081 C1079 1.392 . S
C1081 H1091 0.929 . S
C1082 O1062 1.266 . S
C1082 O1063 1.248 . S
C1083 Tb1019 2.802 . S
C1083 O1058 1.264 . S
C1083 O1061 1.256 . S
C1083 C1076 1.496 . S
H1084 C1067 0.929 . S
H1085 C1068 0.929 . S
H1086 C1069 0.929 . S
H1087 C1070 0.931 . S
H1088 C1078 0.929 . S
H1089 C1079 0.929 . S
H1090 C1080 0.931 . S
H1091 C1081 0.929 . S
Tb1092 N1121 2.617 1_556 S
Tb1092 N1127 2.572 1_565 S
Tb1092 O1136 2.465 1_565 S
Tb1092 O1137 2.387 . S
Tb1092 O1139 2.428 1_565 S
Tb1092 O1140 2.308 . S
Tb1092 O1144 2.349 . S
Tb1092 O1147 2.393 . S
Tb1092 C1156 2.802 1_565 S
C1093 N1094 1.379 . S
C1093 C1096 1.416 . S
C1093 C1100 1.424 . S
N1094 C1093 1.379 . S
N1094 C1097 1.334 . S
N1094 Tb1103 2.617 . S
C1095 C1097 1.390 . S
C1095 C1098 1.339 . S
C1095 H1115 0.930 . S
C1096 C1093 1.416 . S
C1096 C1098 1.416 . S
C1096 C1102 1.448 . S
C1097 N1094 1.334 . S
C1097 C1095 1.390 . S
C1097 H1108 0.930 . S
C1098 C1095 1.339 . S
C1098 C1096 1.416 . S
C1098 H1119 0.930 . S
C1099 C1100 1.413 . S
C1099 C1101 1.427 . S
C1099 C1105 1.416 . S
C1100 C1093 1.424 . S
C1100 C1099 1.413 . S
C1100 N1104 1.361 . S
C1101 C1099 1.427 . S
C1101 C1102 1.328 . S
C1101 H1116 0.929 . S
C1102 C1096 1.448 . S
C1102 C1101 1.328 . S
C1102 H1117 0.930 . S
Tb1103 N1094 2.617 . S
Tb1103 N1104 2.572 . S
Tb1103 O1138 2.349 . S
Tb1103 O1141 2.393 . S
Tb1103 O1142 2.465 . S
Tb1103 O1143 2.387 . S
Tb1103 O1145 2.428 . S
Tb1103 O1146 2.308 . S
Tb1103 C1167 2.802 . S
N1104 C1100 1.361 . S
N1104 Tb1103 2.572 . S
N1104 C1106 1.340 . S
C1105 C1099 1.416 . S
C1105 C1107 1.332 . S
C1105 H1113 0.931 . S
C1106 N1104 1.340 . S
C1106 C1107 1.407 . S
C1106 H1112 0.930 . S
C1107 C1105 1.332 . S
C1107 C1106 1.407 . S
C1107 H1109 0.929 . S
H1108 C1097 0.930 . S
H1109 C1107 0.929 . S
H1110 C1125 0.930 1_556 S
H1111 C1132 0.929 1_556 S
H1112 C1106 0.930 . S
H1113 C1105 0.931 . S
H1114 C1128 0.930 . S
H1115 C1095 0.930 . S
H1116 C1101 0.929 . S
H1117 C1102 0.930 . S
H1118 C1123 0.930 . S
H1119 C1098 0.930 . S
H1120 C1131 0.931 . S
N1121 Tb1092 2.617 1_554 S
N1121 C1122 1.379 . S
N1121 C1125 1.334 . S
C1122 N1121 1.379 . S
C1122 C1124 1.416 . S
C1122 C1130 1.424 1_565 S
C1123 H1118 0.930 . S
C1123 C1125 1.390 . S
C1123 C1126 1.339 . S
C1124 C1122 1.416 . S
C1124 C1126 1.416 . S
C1124 C1157 1.448 1_565 S
C1125 H1110 0.930 1_554 S
C1125 N1121 1.334 . S
C1125 C1123 1.390 . S
C1126 C1123 1.339 . S
C1126 C1124 1.416 . S
C1126 H1133 0.930 . S
N1127 Tb1092 2.572 1_545 S
N1127 C1128 1.340 . S
N1127 C1130 1.361 1_556 S
C1128 H1114 0.930 . S
C1128 N1127 1.340 . S
C1128 C1132 1.407 1_556 S
C1129 C1130 1.413 . S
C1129 C1131 1.416 . S
C1129 C1158 1.427 . S
C1130 C1122 1.424 1_545 S
C1130 N1127 1.361 1_554 S
C1130 C1129 1.413 . S
C1131 H1120 0.931 . S
C1131 C1129 1.416 . S
C1131 C1132 1.332 . S
C1132 H1111 0.929 1_554 S
C1132 C1128 1.407 1_554 S
C1132 C1131 1.332 . S
H1133 C1126 0.930 . S
H1134 C1157 0.930 . S
H1135 C1158 0.929 . S
O1136 Tb1092 2.465 1_545 S
O1136 C1156 1.264 . S
O1137 Tb1092 2.387 . S
O1137 C1148 1.264 . S
O1138 Tb1103 2.349 . S
O1138 C1148 1.243 . S
O1139 Tb1092 2.428 1_545 S
O1139 C1156 1.256 . S
O1140 Tb1092 2.308 . S
O1140 C1155 1.266 . S
O1141 Tb1103 2.393 . S
O1141 C1155 1.248 . S
O1142 Tb1103 2.465 . S
O1142 C1167 1.264 . S
O1143 Tb1103 2.387 . S
O1143 C1159 1.264 . S
O1144 Tb1092 2.349 . S
O1144 C1159 1.243 . S
O1145 Tb1103 2.428 . S
O1145 C1167 1.256 . S
O1146 Tb1103 2.308 . S
O1146 C1166 1.266 . S
O1147 Tb1092 2.393 . S
O1147 C1166 1.248 . S
C1148 O1137 1.264 . S
C1148 O1138 1.243 . S
C1149 C1152 1.399 . S
C1149 C1154 1.383 . S
C1149 C1156 1.496 . S
C1150 C1151 1.399 . S
C1150 C1154 1.389 . S
C1151 C1150 1.399 . S
C1151 C1153 1.380 . S
C1151 H1168 0.929 . S
C1152 C1149 1.399 . S
C1152 C1153 1.392 . S
C1152 H1169 0.929 . S
C1153 C1151 1.380 . S
C1153 C1152 1.392 . S
C1153 H1170 0.929 . S
C1154 C1149 1.383 . S
C1154 C1150 1.389 . S
C1154 H1171 0.931 . S
C1155 O1140 1.266 . S
C1155 O1141 1.248 . S
C1156 Tb1092 2.802 1_545 S
C1156 O1136 1.264 . S
C1156 O1139 1.256 . S
C1156 C1149 1.496 . S
C1157 C1124 1.448 1_545 S
C1157 H1134 0.930 . S
C1157 C1158 1.328 . S
C1158 C1129 1.427 . S
C1158 H1135 0.929 . S
C1158 C1157 1.328 . S
C1159 O1143 1.264 . S
C1159 O1144 1.243 . S
C1160 C1163 1.399 . S
C1160 C1164 1.383 . S
C1160 C1167 1.496 . S
C1161 C1162 1.399 . S
C1161 C1164 1.389 . S
C1162 C1161 1.399 . S
C1162 C1165 1.380 . S
C1162 H1172 0.929 . S
C1163 C1160 1.399 . S
C1163 C1165 1.392 . S
C1163 H1173 0.929 . S
C1164 C1160 1.383 . S
C1164 C1161 1.389 . S
C1164 H1174 0.931 . S
C1165 C1162 1.380 . S
C1165 C1163 1.392 . S
C1165 H1175 0.929 . S
C1166 O1146 1.266 . S
C1166 O1147 1.248 . S
C1167 Tb1103 2.802 . S
C1167 O1142 1.264 . S
C1167 O1145 1.256 . S
C1167 C1160 1.496 . S
H1168 C1151 0.929 . S
H1169 C1152 0.929 . S
H1170 C1153 0.929 . S
H1171 C1154 0.931 . S
H1172 C1162 0.929 . S
H1173 C1163 0.929 . S
H1174 C1164 0.931 . S
H1175 C1165 0.929 . S
Tb1176 N1205 2.617 . S
Tb1176 N1211 2.572 . S
Tb1176 O1220 2.465 . S
Tb1176 O1221 2.387 . S
Tb1176 O1223 2.428 . S
Tb1176 O1224 2.308 . S
Tb1176 O1228 2.349 . S
Tb1176 O1231 2.393 . S
Tb1176 C1240 2.802 . S
C1177 N1178 1.379 . S
C1177 C1180 1.416 . S
C1177 C1184 1.424 1_554 S
N1178 C1177 1.379 . S
N1178 C1181 1.334 . S
N1178 Tb1187 2.617 1_554 S
C1179 C1181 1.390 . S
C1179 C1182 1.339 . S
C1179 H1199 0.930 . S
C1180 C1177 1.416 . S
C1180 C1182 1.416 . S
C1180 C1186 1.448 . S
C1181 N1178 1.334 . S
C1181 C1179 1.390 . S
C1181 H1192 0.930 . S
C1182 C1179 1.339 . S
C1182 C1180 1.416 . S
C1182 H1203 0.930 . S
C1183 C1184 1.413 . S
C1183 C1185 1.427 1_556 S
C1183 C1189 1.416 . S
C1184 C1177 1.424 1_556 S
C1184 C1183 1.413 . S
C1184 N1188 1.361 . S
C1185 C1183 1.427 1_554 S
C1185 C1186 1.328 . S
C1185 H1200 0.929 . S
C1186 C1180 1.448 . S
C1186 C1185 1.328 . S
C1186 H1201 0.930 . S
Tb1187 N1178 2.617 1_556 S
Tb1187 N1188 2.572 . S
Tb1187 O1222 2.349 . S
Tb1187 O1225 2.393 . S
Tb1187 O1226 2.465 . S
Tb1187 O1227 2.387 . S
Tb1187 O1229 2.428 . S
Tb1187 O1230 2.308 . S
Tb1187 C1251 2.802 . S
N1188 C1184 1.361 . S
N1188 Tb1187 2.572 . S
N1188 C1190 1.340 . S
C1189 C1183 1.416 . S
C1189 C1191 1.332 . S
C1189 H1197 0.931 . S
C1190 N1188 1.340 . S
C1190 C1191 1.407 . S
C1190 H1196 0.930 . S
C1191 C1189 1.332 . S
C1191 C1190 1.407 . S
C1191 H1193 0.929 . S
H1192 C1181 0.930 . S
H1193 C1191 0.929 . S
H1194 C1209 0.930 . S
H1195 C1216 0.929 . S
H1196 C1190 0.930 . S
H1197 C1189 0.931 . S
H1198 C1212 0.930 . S
H1199 C1179 0.930 . S
H1200 C1185 0.929 . S
H1201 C1186 0.930 . S
H1202 C1207 0.930 . S
H1203 C1182 0.930 . S
H1204 C1215 0.931 . S
N1205 Tb1176 2.617 . S
N1205 C1206 1.379 . S
N1205 C1209 1.334 . S
C1206 N1205 1.379 . S
C1206 C1208 1.416 . S
C1206 C1214 1.424 . S
C1207 H1202 0.930 . S
C1207 C1209 1.390 . S
C1207 C1210 1.339 . S
C1208 C1206 1.416 . S
C1208 C1210 1.416 . S
C1208 C1241 1.448 . S
C1209 H1194 0.930 . S
C1209 N1205 1.334 . S
C1209 C1207 1.390 . S
C1210 C1207 1.339 . S
C1210 C1208 1.416 . S
C1210 H1217 0.930 . S
N1211 Tb1176 2.572 . S
N1211 C1212 1.340 . S
N1211 C1214 1.361 . S
C1212 H1198 0.930 . S
C1212 N1211 1.340 . S
C1212 C1216 1.407 . S
C1213 C1214 1.413 . S
C1213 C1215 1.416 . S
C1213 C1242 1.427 . S
C1214 C1206 1.424 . S
C1214 N1211 1.361 . S
C1214 C1213 1.413 . S
C1215 H1204 0.931 . S
C1215 C1213 1.416 . S
C1215 C1216 1.332 . S
C1216 H1195 0.929 . S
C1216 C1212 1.407 . S
C1216 C1215 1.332 . S
H1217 C1210 0.930 . S
H1218 C1241 0.930 . S
H1219 C1242 0.929 . S
O1220 Tb1176 2.465 . S
O1220 C1240 1.264 . S
O1221 Tb1176 2.387 . S
O1221 C1232 1.264 . S
O1222 Tb1187 2.349 . S
O1222 C1232 1.243 . S
O1223 Tb1176 2.428 . S
O1223 C1240 1.256 . S
O1224 Tb1176 2.308 . S
O1224 C1239 1.266 . S
O1225 Tb1187 2.393 . S
O1225 C1239 1.248 . S
O1226 Tb1187 2.465 . S
O1226 C1251 1.264 . S
O1227 Tb1187 2.387 . S
O1227 C1243 1.264 . S
O1228 Tb1176 2.349 . S
O1228 C1243 1.243 . S
O1229 Tb1187 2.428 . S
O1229 C1251 1.256 . S
O1230 Tb1187 2.308 . S
O1230 C1250 1.266 . S
O1231 Tb1176 2.393 . S
O1231 C1250 1.248 . S
C1232 O1221 1.264 . S
C1232 O1222 1.243 . S
C1233 C1236 1.399 . S
C1233 C1238 1.383 . S
C1233 C1240 1.496 . S
C1234 C1235 1.399 . S
C1234 C1238 1.389 . S
C1235 C1234 1.399 . S
C1235 C1237 1.380 . S
C1235 H1252 0.929 . S
C1236 C1233 1.399 . S
C1236 C1237 1.392 . S
C1236 H1253 0.929 . S
C1237 C1235 1.380 . S
C1237 C1236 1.392 . S
C1237 H1254 0.929 . S
C1238 C1233 1.383 . S
C1238 C1234 1.389 . S
C1238 H1255 0.931 . S
C1239 O1224 1.266 . S
C1239 O1225 1.248 . S
C1240 Tb1176 2.802 . S
C1240 O1220 1.264 . S
C1240 O1223 1.256 . S
C1240 C1233 1.496 . S
C1241 C1208 1.448 . S
C1241 H1218 0.930 . S
C1241 C1242 1.328 . S
C1242 C1213 1.427 . S
C1242 H1219 0.929 . S
C1242 C1241 1.328 . S
C1243 O1227 1.264 . S
C1243 O1228 1.243 . S
C1244 C1247 1.399 . S
C1244 C1248 1.383 . S
C1244 C1251 1.496 . S
C1245 C1246 1.399 . S
C1245 C1248 1.389 . S
C1246 C1245 1.399 . S
C1246 C1249 1.380 . S
C1246 H1256 0.929 . S
C1247 C1244 1.399 . S
C1247 C1249 1.392 . S
C1247 H1257 0.929 . S
C1248 C1244 1.383 . S
C1248 C1245 1.389 . S
C1248 H1258 0.931 . S
C1249 C1246 1.380 . S
C1249 C1247 1.392 . S
C1249 H1259 0.929 . S
C1250 O1230 1.266 . S
C1250 O1231 1.248 . S
C1251 Tb1187 2.802 . S
C1251 O1226 1.264 . S
C1251 O1229 1.256 . S
C1251 C1244 1.496 . S
H1252 C1235 0.929 . S
H1253 C1236 0.929 . S
H1254 C1237 0.929 . S
H1255 C1238 0.931 . S
H1256 C1246 0.929 . S
H1257 C1247 0.929 . S
H1258 C1248 0.931 . S
H1259 C1249 0.929 . S
Tb1260 N1289 2.617 . S
Tb1260 N1295 2.572 . S
Tb1260 O1304 2.465 . S
Tb1260 O1305 2.387 . S
Tb1260 O1307 2.428 . S
Tb1260 O1308 2.308 . S
Tb1260 O1312 2.349 . S
Tb1260 O1315 2.393 . S
Tb1260 C1324 2.802 . S
C1261 N1262 1.379 . S
C1261 C1264 1.416 . S
C1261 C1268 1.424 1_554 S
N1262 C1261 1.379 . S
N1262 C1265 1.334 . S
N1262 Tb1271 2.617 1_554 S
C1263 C1265 1.390 . S
C1263 C1266 1.339 . S
C1263 H1283 0.930 . S
C1264 C1261 1.416 . S
C1264 C1266 1.416 . S
C1264 C1270 1.448 . S
C1265 N1262 1.334 . S
C1265 C1263 1.390 . S
C1265 H1276 0.930 . S
C1266 C1263 1.339 . S
C1266 C1264 1.416 . S
C1266 H1287 0.930 . S
C1267 C1268 1.413 . S
C1267 C1269 1.427 1_556 S
C1267 C1273 1.416 . S
C1268 C1261 1.424 1_556 S
C1268 C1267 1.413 . S
C1268 N1272 1.361 . S
C1269 C1267 1.427 1_554 S
C1269 C1270 1.328 . S
C1269 H1284 0.929 . S
C1270 C1264 1.448 . S
C1270 C1269 1.328 . S
C1270 H1285 0.930 . S
Tb1271 N1262 2.617 1_556 S
Tb1271 N1272 2.572 . S
Tb1271 O1306 2.349 . S
Tb1271 O1309 2.393 . S
Tb1271 O1310 2.465 . S
Tb1271 O1311 2.387 . S
Tb1271 O1313 2.428 . S
Tb1271 O1314 2.308 . S
Tb1271 C1335 2.802 . S
N1272 C1268 1.361 . S
N1272 Tb1271 2.572 . S
N1272 C1274 1.340 . S
C1273 C1267 1.416 . S
C1273 C1275 1.332 . S
C1273 H1281 0.931 . S
C1274 N1272 1.340 . S
C1274 C1275 1.407 . S
C1274 H1280 0.930 . S
C1275 C1273 1.332 . S
C1275 C1274 1.407 . S
C1275 H1277 0.929 . S
H1276 C1265 0.930 . S
H1277 C1275 0.929 . S
H1278 C1293 0.930 . S
H1279 C1300 0.929 . S
H1280 C1274 0.930 . S
H1281 C1273 0.931 . S
H1282 C1296 0.930 . S
H1283 C1263 0.930 . S
H1284 C1269 0.929 . S
H1285 C1270 0.930 . S
H1286 C1291 0.930 . S
H1287 C1266 0.930 . S
H1288 C1299 0.931 . S
N1289 Tb1260 2.617 . S
N1289 C1290 1.379 . S
N1289 C1293 1.334 . S
C1290 N1289 1.379 . S
C1290 C1292 1.416 . S
C1290 C1298 1.424 . S
C1291 H1286 0.930 . S
C1291 C1293 1.390 . S
C1291 C1294 1.339 . S
C1292 C1290 1.416 . S
C1292 C1294 1.416 . S
C1292 C1325 1.448 . S
C1293 H1278 0.930 . S
C1293 N1289 1.334 . S
C1293 C1291 1.390 . S
C1294 C1291 1.339 . S
C1294 C1292 1.416 . S
C1294 H1301 0.930 . S
N1295 Tb1260 2.572 . S
N1295 C1296 1.340 . S
N1295 C1298 1.361 . S
C1296 H1282 0.930 . S
C1296 N1295 1.340 . S
C1296 C1300 1.407 . S
C1297 C1298 1.413 . S
C1297 C1299 1.416 . S
C1297 C1326 1.427 . S
C1298 C1290 1.424 . S
C1298 N1295 1.361 . S
C1298 C1297 1.413 . S
C1299 H1288 0.931 . S
C1299 C1297 1.416 . S
C1299 C1300 1.332 . S
C1300 H1279 0.929 . S
C1300 C1296 1.407 . S
C1300 C1299 1.332 . S
H1301 C1294 0.930 . S
H1302 C1325 0.930 . S
H1303 C1326 0.929 . S
O1304 Tb1260 2.465 . S
O1304 C1324 1.264 . S
O1305 Tb1260 2.387 . S
O1305 C1316 1.264 . S
O1306 Tb1271 2.349 . S
O1306 C1316 1.243 . S
O1307 Tb1260 2.428 . S
O1307 C1324 1.256 . S
O1308 Tb1260 2.308 . S
O1308 C1323 1.266 . S
O1309 Tb1271 2.393 . S
O1309 C1323 1.248 . S
O1310 Tb1271 2.465 . S
O1310 C1335 1.264 . S
O1311 Tb1271 2.387 . S
O1311 C1327 1.264 . S
O1312 Tb1260 2.349 . S
O1312 C1327 1.243 . S
O1313 Tb1271 2.428 . S
O1313 C1335 1.256 . S
O1314 Tb1271 2.308 . S
O1314 C1334 1.266 . S
O1315 Tb1260 2.393 . S
O1315 C1334 1.248 . S
C1316 O1305 1.264 . S
C1316 O1306 1.243 . S
C1317 C1320 1.399 . S
C1317 C1322 1.383 . S
C1317 C1324 1.496 . S
C1318 C1319 1.399 . S
C1318 C1322 1.389 . S
C1319 C1318 1.399 . S
C1319 C1321 1.380 . S
C1319 H1336 0.929 . S
C1320 C1317 1.399 . S
C1320 C1321 1.392 . S
C1320 H1337 0.929 . S
C1321 C1319 1.380 . S
C1321 C1320 1.392 . S
C1321 H1338 0.929 . S
C1322 C1317 1.383 . S
C1322 C1318 1.389 . S
C1322 H1339 0.931 . S
C1323 O1308 1.266 . S
C1323 O1309 1.248 . S
C1324 Tb1260 2.802 . S
C1324 O1304 1.264 . S
C1324 O1307 1.256 . S
C1324 C1317 1.496 . S
C1325 C1292 1.448 . S
C1325 H1302 0.930 . S
C1325 C1326 1.328 . S
C1326 C1297 1.427 . S
C1326 H1303 0.929 . S
C1326 C1325 1.328 . S
C1327 O1311 1.264 . S
C1327 O1312 1.243 . S
C1328 C1331 1.399 . S
C1328 C1332 1.383 . S
C1328 C1335 1.496 . S
C1329 C1330 1.399 . S
C1329 C1332 1.389 . S
C1330 C1329 1.399 . S
C1330 C1333 1.380 . S
C1330 H1340 0.929 . S
C1331 C1328 1.399 . S
C1331 C1333 1.392 . S
C1331 H1341 0.929 . S
C1332 C1328 1.383 . S
C1332 C1329 1.389 . S
C1332 H1342 0.931 . S
C1333 C1330 1.380 . S
C1333 C1331 1.392 . S
C1333 H1343 0.929 . S
C1334 O1314 1.266 . S
C1334 O1315 1.248 . S
C1335 Tb1271 2.802 . S
C1335 O1310 1.264 . S
C1335 O1313 1.256 . S
C1335 C1328 1.496 . S
H1336 C1319 0.929 . S
H1337 C1320 0.929 . S
H1338 C1321 0.929 . S
H1339 C1322 0.931 . S
H1340 C1330 0.929 . S
H1341 C1331 0.929 . S
H1342 C1332 0.931 . S
H1343 C1333 0.929 . S
H1344 C1350 0.930 . S
H1345 C1354 0.930 . S
H1346 C1359 0.929 . S
H1347 C1357 0.929 . S
H1348 C1352 0.929 . S
H1349 C1358 0.929 . S
C1350 H1344 0.930 . S
C1350 C1351 1.367 . S
C1350 C1358 1.378 . S
C1351 C1350 1.367 . S
C1351 C1359 1.433 . S
C1352 H1348 0.929 . S
C1352 C1354 1.378 . S
C1352 C1356 1.350 . S
C1353 C1356 1.463 . S
C1353 C1358 1.350 . S
C1353 N1361 1.427 . S
C1354 H1345 0.930 . S
C1354 C1352 1.378 . S
C1354 C1355 1.367 . S
C1355 C1354 1.367 . S
C1355 C1357 1.433 . S
C1356 C1352 1.350 . S
C1356 C1353 1.463 . S
C1356 N1360 1.427 . S
C1357 H1347 0.929 . S
C1357 C1355 1.433 . S
C1357 N1360 1.384 . S
C1358 H1349 0.929 . S
C1358 C1350 1.378 . S
C1358 C1353 1.350 . S
C1359 H1346 0.929 . S
C1359 C1351 1.433 . S
C1359 N1361 1.384 . S
N1360 C1356 1.427 . S
N1360 C1357 1.384 . S
N1361 C1353 1.427 . S
N1361 C1359 1.384 . S
H1362 C1368 0.930 . S
H1363 C1372 0.930 . S
H1364 C1377 0.929 . S
H1365 C1375 0.929 . S
H1366 C1370 0.929 . S
H1367 C1376 0.929 . S
C1368 H1362 0.930 . S
C1368 C1369 1.367 . S
C1368 C1376 1.378 . S
C1369 C1368 1.367 . S
C1369 C1377 1.433 . S
C1370 H1366 0.929 . S
C1370 C1372 1.378 . S
C1370 C1374 1.350 . S
C1371 C1374 1.463 . S
C1371 C1376 1.350 . S
C1371 N1379 1.427 . S
C1372 H1363 0.930 . S
C1372 C1370 1.378 . S
C1372 C1373 1.367 . S
C1373 C1372 1.367 . S
C1373 C1375 1.433 . S
C1374 C1370 1.350 . S
C1374 C1371 1.463 . S
C1374 N1378 1.427 . S
C1375 H1365 0.929 . S
C1375 C1373 1.433 . S
C1375 N1378 1.384 . S
C1376 H1367 0.929 . S
C1376 C1368 1.378 . S
C1376 C1371 1.350 . S
C1377 H1364 0.929 . S
C1377 C1369 1.433 . S
C1377 N1379 1.384 . S
N1378 C1374 1.427 . S
N1378 C1375 1.384 . S
N1379 C1371 1.427 . S
N1379 C1377 1.384 . S
H1380 C1386 0.930 . S
H1381 C1390 0.930 . S
H1382 C1395 0.929 . S
H1383 C1393 0.929 . S
H1384 C1388 0.929 . S
H1385 C1394 0.929 . S
C1386 H1380 0.930 . S
C1386 C1387 1.367 . S
C1386 C1394 1.378 . S
C1387 C1386 1.367 . S
C1387 C1395 1.433 . S
C1388 H1384 0.929 . S
C1388 C1390 1.378 . S
C1388 C1392 1.350 . S
C1389 C1392 1.463 . S
C1389 C1394 1.350 . S
C1389 N1397 1.427 . S
C1390 H1381 0.930 . S
C1390 C1388 1.378 . S
C1390 C1391 1.367 . S
C1391 C1390 1.367 . S
C1391 C1393 1.433 . S
C1392 C1388 1.350 . S
C1392 C1389 1.463 . S
C1392 N1396 1.427 . S
C1393 H1383 0.929 . S
C1393 C1391 1.433 . S
C1393 N1396 1.384 . S
C1394 H1385 0.929 . S
C1394 C1386 1.378 . S
C1394 C1389 1.350 . S
C1395 H1382 0.929 . S
C1395 C1387 1.433 . S
C1395 N1397 1.384 . S
N1396 C1392 1.427 . S
N1396 C1393 1.384 . S
N1397 C1389 1.427 . S
N1397 C1395 1.384 . S
H1398 C1404 0.930 . S
H1399 C1408 0.930 . S
H1400 C1413 0.929 . S
H1401 C1411 0.929 . S
H1402 C1406 0.929 . S
H1403 C1412 0.929 . S
C1404 H1398 0.930 . S
C1404 C1405 1.367 . S
C1404 C1412 1.378 . S
C1405 C1404 1.367 . S
C1405 C1413 1.433 . S
C1406 H1402 0.929 . S
C1406 C1408 1.378 . S
C1406 C1410 1.350 . S
C1407 C1410 1.463 . S
C1407 C1412 1.350 . S
C1407 N1415 1.427 . S
C1408 H1399 0.930 . S
C1408 C1406 1.378 . S
C1408 C1409 1.367 . S
C1409 C1408 1.367 . S
C1409 C1411 1.433 . S
C1410 C1406 1.350 . S
C1410 C1407 1.463 . S
C1410 N1414 1.427 . S
C1411 H1401 0.929 . S
C1411 C1409 1.433 . S
C1411 N1414 1.384 . S
C1412 H1403 0.929 . S
C1412 C1404 1.378 . S
C1412 C1407 1.350 . S
C1413 H1400 0.929 . S
C1413 C1405 1.433 . S
C1413 N1415 1.384 . S
N1414 C1410 1.427 . S
N1414 C1411 1.384 . S
N1415 C1407 1.427 . S
N1415 C1413 1.384 . S
H1416 C1422 0.930 . S
H1417 C1426 0.930 . S
H1418 C1431 0.929 . S
H1419 C1429 0.929 . S
H1420 C1424 0.929 . S
H1421 C1430 0.929 . S
C1422 H1416 0.930 . S
C1422 C1423 1.367 . S
C1422 C1430 1.378 . S
C1423 C1422 1.367 . S
C1423 C1431 1.433 . S
C1424 H1420 0.929 . S
C1424 C1426 1.378 . S
C1424 C1428 1.350 . S
C1425 C1428 1.463 . S
C1425 C1430 1.350 . S
C1425 N1433 1.427 . S
C1426 H1417 0.930 . S
C1426 C1424 1.378 . S
C1426 C1427 1.367 . S
C1427 C1426 1.367 . S
C1427 C1429 1.433 . S
C1428 C1424 1.350 . S
C1428 C1425 1.463 . S
C1428 N1432 1.427 . S
C1429 H1419 0.929 . S
C1429 C1427 1.433 . S
C1429 N1432 1.384 . S
C1430 H1421 0.929 . S
C1430 C1422 1.378 . S
C1430 C1425 1.350 . S
C1431 H1418 0.929 . S
C1431 C1423 1.433 . S
C1431 N1433 1.384 . S
N1432 C1428 1.427 . S
N1432 C1429 1.384 . S
N1433 C1425 1.427 . S
N1433 C1431 1.384 . S
H1434 C1440 0.930 . S
H1435 C1444 0.930 . S
H1436 C1449 0.929 . S
H1437 C1447 0.929 . S
H1438 C1442 0.929 . S
H1439 C1448 0.929 . S
C1440 H1434 0.930 . S
C1440 C1441 1.367 . S
C1440 C1448 1.378 . S
C1441 C1440 1.367 . S
C1441 C1449 1.433 . S
C1442 H1438 0.929 . S
C1442 C1444 1.378 . S
C1442 C1446 1.350 . S
C1443 C1446 1.463 . S
C1443 C1448 1.350 . S
C1443 N1451 1.427 . S
C1444 H1435 0.930 . S
C1444 C1442 1.378 . S
C1444 C1445 1.367 . S
C1445 C1444 1.367 . S
C1445 C1447 1.433 . S
C1446 C1442 1.350 . S
C1446 C1443 1.463 . S
C1446 N1450 1.427 . S
C1447 H1437 0.929 . S
C1447 C1445 1.433 . S
C1447 N1450 1.384 . S
C1448 H1439 0.929 . S
C1448 C1440 1.378 . S
C1448 C1443 1.350 . S
C1449 H1436 0.929 . S
C1449 C1441 1.433 . S
C1449 N1451 1.384 . S
N1450 C1446 1.427 . S
N1450 C1447 1.384 . S
N1451 C1443 1.427 . S
N1451 C1449 1.384 . S
H1452 C1458 0.930 . S
H1453 C1462 0.930 . S
H1454 C1467 0.929 . S
H1455 C1465 0.929 . S
H1456 C1460 0.929 . S
H1457 C1466 0.929 . S
C1458 H1452 0.930 . S
C1458 C1459 1.367 . S
C1458 C1466 1.378 . S
C1459 C1458 1.367 . S
C1459 C1467 1.433 . S
C1460 H1456 0.929 . S
C1460 C1462 1.378 . S
C1460 C1464 1.350 . S
C1461 C1464 1.463 . S
C1461 C1466 1.350 . S
C1461 N1469 1.427 . S
C1462 H1453 0.930 . S
C1462 C1460 1.378 . S
C1462 C1463 1.367 . S
C1463 C1462 1.367 . S
C1463 C1465 1.433 . S
C1464 C1460 1.350 . S
C1464 C1461 1.463 . S
C1464 N1468 1.427 . S
C1465 H1455 0.929 . S
C1465 C1463 1.433 . S
C1465 N1468 1.384 . S
C1466 H1457 0.929 . S
C1466 C1458 1.378 . S
C1466 C1461 1.350 . S
C1467 H1454 0.929 . S
C1467 C1459 1.433 . S
C1467 N1469 1.384 . S
N1468 C1464 1.427 . S
N1468 C1465 1.384 . S
N1469 C1461 1.427 . S
N1469 C1467 1.384 . S
H1470 C1476 0.930 . S
H1471 C1480 0.930 . S
H1472 C1485 0.929 . S
H1473 C1483 0.929 . S
H1474 C1478 0.929 . S
H1475 C1484 0.929 . S
C1476 H1470 0.930 . S
C1476 C1477 1.367 . S
C1476 C1484 1.378 . S
C1477 C1476 1.367 . S
C1477 C1485 1.433 . S
C1478 H1474 0.929 . S
C1478 C1480 1.378 . S
C1478 C1482 1.350 . S
C1479 C1482 1.463 . S
C1479 C1484 1.350 . S
C1479 N1487 1.427 . S
C1480 H1471 0.930 . S
C1480 C1478 1.378 . S
C1480 C1481 1.367 . S
C1481 C1480 1.367 . S
C1481 C1483 1.433 . S
C1482 C1478 1.350 . S
C1482 C1479 1.463 . S
C1482 N1486 1.427 . S
C1483 H1473 0.929 . S
C1483 C1481 1.433 . S
C1483 N1486 1.384 . S
C1484 H1475 0.929 . S
C1484 C1476 1.378 . S
C1484 C1479 1.350 . S
C1485 H1472 0.929 . S
C1485 C1477 1.433 . S
C1485 N1487 1.384 . S
N1486 C1482 1.427 . S
N1486 C1483 1.384 . S
N1487 C1479 1.427 . S
N1487 C1485 1.384 . S
H1488 C1494 0.930 . S
H1489 C1498 0.930 . S
H1490 C1503 0.929 . S
H1491 C1501 0.929 . S
H1492 C1496 0.929 . S
H1493 C1502 0.929 . S
C1494 H1488 0.930 . S
C1494 C1495 1.367 . S
C1494 C1502 1.378 . S
C1495 C1494 1.367 . S
C1495 C1503 1.433 . S
C1496 H1492 0.929 . S
C1496 C1498 1.378 . S
C1496 C1500 1.350 . S
C1497 C1500 1.463 . S
C1497 C1502 1.350 . S
C1497 N1505 1.427 . S
C1498 H1489 0.930 . S
C1498 C1496 1.378 . S
C1498 C1499 1.367 . S
C1499 C1498 1.367 . S
C1499 C1501 1.433 . S
C1500 C1496 1.350 . S
C1500 C1497 1.463 . S
C1500 N1504 1.427 . S
C1501 H1491 0.929 . S
C1501 C1499 1.433 . S
C1501 N1504 1.384 . S
C1502 H1493 0.929 . S
C1502 C1494 1.378 . S
C1502 C1497 1.350 . S
C1503 H1490 0.929 . S
C1503 C1495 1.433 . S
C1503 N1505 1.384 . S
N1504 C1500 1.427 . S
N1504 C1501 1.384 . S
N1505 C1497 1.427 . S
N1505 C1503 1.384 . S
H1506 C1512 0.930 . S
H1507 C1516 0.930 . S
H1508 C1521 0.929 . S
H1509 C1519 0.929 . S
H1510 C1514 0.929 . S
H1511 C1520 0.929 . S
C1512 H1506 0.930 . S
C1512 C1513 1.367 . S
C1512 C1520 1.378 . S
C1513 C1512 1.367 . S
C1513 C1521 1.433 . S
C1514 H1510 0.929 . S
C1514 C1516 1.378 . S
C1514 C1518 1.350 . S
C1515 C1518 1.463 . S
C1515 C1520 1.350 . S
C1515 N1523 1.427 . S
C1516 H1507 0.930 . S
C1516 C1514 1.378 . S
C1516 C1517 1.367 . S
C1517 C1516 1.367 . S
C1517 C1519 1.433 . S
C1518 C1514 1.350 . S
C1518 C1515 1.463 . S
C1518 N1522 1.427 . S
C1519 H1509 0.929 . S
C1519 C1517 1.433 . S
C1519 N1522 1.384 . S
C1520 H1511 0.929 . S
C1520 C1512 1.378 . S
C1520 C1515 1.350 . S
C1521 H1508 0.929 . S
C1521 C1513 1.433 . S
C1521 N1523 1.384 . S
N1522 C1518 1.427 . S
N1522 C1519 1.384 . S
N1523 C1515 1.427 . S
N1523 C1521 1.384 . S
H1524 C1530 0.930 . S
H1525 C1534 0.930 . S
H1526 C1539 0.929 . S
H1527 C1537 0.929 . S
H1528 C1532 0.929 . S
H1529 C1538 0.929 . S
C1530 H1524 0.930 . S
C1530 C1531 1.367 . S
C1530 C1538 1.378 . S
C1531 C1530 1.367 . S
C1531 C1539 1.433 . S
C1532 H1528 0.929 . S
C1532 C1534 1.378 . S
C1532 C1536 1.350 . S
C1533 C1536 1.463 . S
C1533 C1538 1.350 . S
C1533 N1541 1.427 . S
C1534 H1525 0.930 . S
C1534 C1532 1.378 . S
C1534 C1535 1.367 . S
C1535 C1534 1.367 . S
C1535 C1537 1.433 . S
C1536 C1532 1.350 . S
C1536 C1533 1.463 . S
C1536 N1540 1.427 . S
C1537 H1527 0.929 . S
C1537 C1535 1.433 . S
C1537 N1540 1.384 . S
C1538 H1529 0.929 . S
C1538 C1530 1.378 . S
C1538 C1533 1.350 . S
C1539 H1526 0.929 . S
C1539 C1531 1.433 . S
C1539 N1541 1.384 . S
N1540 C1536 1.427 . S
N1540 C1537 1.384 . S
N1541 C1533 1.427 . S
N1541 C1539 1.384 . S
H1542 C1548 0.930 . S
H1543 C1552 0.930 1_655 S
H1544 C1557 0.929 . S
H1545 C1555 0.929 . S
H1546 C1550 0.929 . S
H1547 C1556 0.929 . S
C1548 H1542 0.930 . S
C1548 C1549 1.367 . S
C1548 C1556 1.378 . S
C1549 C1548 1.367 . S
C1549 C1557 1.433 . S
C1550 H1546 0.929 . S
C1550 C1552 1.378 . S
C1550 C1554 1.350 . S
C1551 C1554 1.463 . S
C1551 C1556 1.350 . S
C1551 N1559 1.427 . S
C1552 H1543 0.930 1_455 S
C1552 C1550 1.378 . S
C1552 C1553 1.367 . S
C1553 C1552 1.367 . S
C1553 C1555 1.433 . S
C1554 C1550 1.350 . S
C1554 C1551 1.463 . S
C1554 N1558 1.427 . S
C1555 H1545 0.929 . S
C1555 C1553 1.433 . S
C1555 N1558 1.384 . S
C1556 H1547 0.929 . S
C1556 C1548 1.378 . S
C1556 C1551 1.350 . S
C1557 H1544 0.929 . S
C1557 C1549 1.433 . S
C1557 N1559 1.384 . S
N1558 C1554 1.427 . S
N1558 C1555 1.384 . S
N1559 C1551 1.427 . S
N1559 C1557 1.384 . S
H1560 C1566 0.930 . S
H1561 C1570 0.930 1_545 S
H1562 C1575 0.929 . S
H1563 C1573 0.929 . S
H1564 C1568 0.929 . S
H1565 C1574 0.929 . S
C1566 H1560 0.930 . S
C1566 C1567 1.367 . S
C1566 C1574 1.378 . S
C1567 C1566 1.367 . S
C1567 C1575 1.433 . S
C1568 H1564 0.929 . S
C1568 C1570 1.378 . S
C1568 C1572 1.350 . S
C1569 C1572 1.463 . S
C1569 C1574 1.350 . S
C1569 N1577 1.427 . S
C1570 H1561 0.930 1_565 S
C1570 C1568 1.378 . S
C1570 C1571 1.367 . S
C1571 C1570 1.367 . S
C1571 C1573 1.433 . S
C1572 C1568 1.350 . S
C1572 C1569 1.463 . S
C1572 N1576 1.427 . S
C1573 H1563 0.929 . S
C1573 C1571 1.433 . S
C1573 N1576 1.384 . S
C1574 H1565 0.929 . S
C1574 C1566 1.378 . S
C1574 C1569 1.350 . S
C1575 H1562 0.929 . S
C1575 C1567 1.433 . S
C1575 N1577 1.384 . S
N1576 C1572 1.427 . S
N1576 C1573 1.384 . S
N1577 C1569 1.427 . S
N1577 C1575 1.384 . S
H1578 C1584 0.930 . S
H1579 C1588 0.930 . S
H1580 C1593 0.929 . S
H1581 C1591 0.929 . S
H1582 C1586 0.929 . S
H1583 C1592 0.929 . S
C1584 H1578 0.930 . S
C1584 C1585 1.367 . S
C1584 C1592 1.378 . S
C1585 C1584 1.367 . S
C1585 C1593 1.433 . S
C1586 H1582 0.929 . S
C1586 C1588 1.378 . S
C1586 C1590 1.350 . S
C1587 C1590 1.463 . S
C1587 C1592 1.350 . S
C1587 N1595 1.427 . S
C1588 H1579 0.930 . S
C1588 C1586 1.378 . S
C1588 C1589 1.367 . S
C1589 C1588 1.367 . S
C1589 C1591 1.433 . S
C1590 C1586 1.350 . S
C1590 C1587 1.463 . S
C1590 N1594 1.427 . S
C1591 H1581 0.929 . S
C1591 C1589 1.433 . S
C1591 N1594 1.384 . S
C1592 H1583 0.929 . S
C1592 C1584 1.378 . S
C1592 C1587 1.350 . S
C1593 H1580 0.929 . S
C1593 C1585 1.433 . S
C1593 N1595 1.384 . S
N1594 C1590 1.427 . S
N1594 C1591 1.384 . S
N1595 C1587 1.427 . S
N1595 C1593 1.384 . S
H1596 C1602 0.930 . S
H1597 C1606 0.930 . S
H1598 C1611 0.929 . S
H1599 C1609 0.929 . S
H1600 C1604 0.929 . S
H1601 C1610 0.929 . S
C1602 H1596 0.930 . S
C1602 C1603 1.367 . S
C1602 C1610 1.378 . S
C1603 C1602 1.367 . S
C1603 C1611 1.433 . S
C1604 H1600 0.929 . S
C1604 C1606 1.378 . S
C1604 C1608 1.350 . S
C1605 C1608 1.463 . S
C1605 C1610 1.350 . S
C1605 N1613 1.427 . S
C1606 H1597 0.930 . S
C1606 C1604 1.378 . S
C1606 C1607 1.367 . S
C1607 C1606 1.367 . S
C1607 C1609 1.433 . S
C1608 C1604 1.350 . S
C1608 C1605 1.463 . S
C1608 N1612 1.427 . S
C1609 H1599 0.929 . S
C1609 C1607 1.433 . S
C1609 N1612 1.384 . S
C1610 H1601 0.929 . S
C1610 C1602 1.378 . S
C1610 C1605 1.350 . S
C1611 H1598 0.929 . S
C1611 C1603 1.433 . S
C1611 N1613 1.384 . S
N1612 C1608 1.427 . S
N1612 C1609 1.384 . S
N1613 C1605 1.427 . S
N1613 C1611 1.384 . S
H1614 C1620 0.930 . S
H1615 C1624 0.930 . S
H1616 C1629 0.929 . S
H1617 C1627 0.929 . S
H1618 C1622 0.929 . S
H1619 C1628 0.929 . S
C1620 H1614 0.930 . S
C1620 C1621 1.367 . S
C1620 C1628 1.378 . S
C1621 C1620 1.367 . S
C1621 C1629 1.433 . S
C1622 H1618 0.929 . S
C1622 C1624 1.378 . S
C1622 C1626 1.350 . S
C1623 C1626 1.463 . S
C1623 C1628 1.350 . S
C1623 N1631 1.427 . S
C1624 H1615 0.930 . S
C1624 C1622 1.378 . S
C1624 C1625 1.367 . S
C1625 C1624 1.367 . S
C1625 C1627 1.433 . S
C1626 C1622 1.350 . S
C1626 C1623 1.463 . S
C1626 N1630 1.427 . S
C1627 H1617 0.929 . S
C1627 C1625 1.433 . S
C1627 N1630 1.384 . S
C1628 H1619 0.929 . S
C1628 C1620 1.378 . S
C1628 C1623 1.350 . S
C1629 H1616 0.929 . S
C1629 C1621 1.433 . S
C1629 N1631 1.384 . S
N1630 C1626 1.427 . S
N1630 C1627 1.384 . S
N1631 C1623 1.427 . S
N1631 C1629 1.384 . S
H1632 C1638 0.930 . S
H1633 C1642 0.930 . S
H1634 C1647 0.929 1_545 S
H1635 C1645 0.929 . S
H1636 C1640 0.929 . S
H1637 C1646 0.929 . S
C1638 H1632 0.930 . S
C1638 C1639 1.367 . S
C1638 C1646 1.378 . S
C1639 C1638 1.367 . S
C1639 C1647 1.433 . S
C1640 H1636 0.929 . S
C1640 C1642 1.378 . S
C1640 C1644 1.350 . S
C1641 C1644 1.463 . S
C1641 C1646 1.350 . S
C1641 N1649 1.427 . S
C1642 H1633 0.930 . S
C1642 C1640 1.378 . S
C1642 C1643 1.367 . S
C1643 C1642 1.367 . S
C1643 C1645 1.433 . S
C1644 C1640 1.350 . S
C1644 C1641 1.463 . S
C1644 N1648 1.427 . S
C1645 H1635 0.929 . S
C1645 C1643 1.433 . S
C1645 N1648 1.384 . S
C1646 H1637 0.929 . S
C1646 C1638 1.378 . S
C1646 C1641 1.350 . S
C1647 H1634 0.929 1_565 S
C1647 C1639 1.433 . S
C1647 N1649 1.384 . S
N1648 C1644 1.427 . S
N1648 C1645 1.384 . S
N1649 C1641 1.427 . S
N1649 C1647 1.384 . S
H1650 C1656 0.930 . S
H1651 C1660 0.930 . S
H1652 C1665 0.929 . S
H1653 C1663 0.929 . S
H1654 C1658 0.929 . S
H1655 C1664 0.929 . S
C1656 H1650 0.930 . S
C1656 C1657 1.367 . S
C1656 C1664 1.378 . S
C1657 C1656 1.367 . S
C1657 C1665 1.433 . S
C1658 H1654 0.929 . S
C1658 C1660 1.378 . S
C1658 C1662 1.350 . S
C1659 C1662 1.463 . S
C1659 C1664 1.350 . S
C1659 N1667 1.427 . S
C1660 H1651 0.930 . S
C1660 C1658 1.378 . S
C1660 C1661 1.367 . S
C1661 C1660 1.367 . S
C1661 C1663 1.433 . S
C1662 C1658 1.350 . S
C1662 C1659 1.463 . S
C1662 N1666 1.427 . S
C1663 H1653 0.929 . S
C1663 C1661 1.433 . S
C1663 N1666 1.384 . S
C1664 H1655 0.929 . S
C1664 C1656 1.378 . S
C1664 C1659 1.350 . S
C1665 H1652 0.929 . S
C1665 C1657 1.433 . S
C1665 N1667 1.384 . S
N1666 C1662 1.427 . S
N1666 C1663 1.384 . S
N1667 C1659 1.427 . S
N1667 C1665 1.384 . S
H1668 C1674 0.930 . S
H1669 C1678 0.930 . S
H1670 C1683 0.929 . S
H1671 C1681 0.929 . S
H1672 C1676 0.929 . S
H1673 C1682 0.929 . S
C1674 H1668 0.930 . S
C1674 C1675 1.367 . S
C1674 C1682 1.378 . S
C1675 C1674 1.367 . S
C1675 C1683 1.433 . S
C1676 H1672 0.929 . S
C1676 C1678 1.378 . S
C1676 C1680 1.350 . S
C1677 C1680 1.463 . S
C1677 C1682 1.350 . S
C1677 N1685 1.427 . S
C1678 H1669 0.930 . S
C1678 C1676 1.378 . S
C1678 C1679 1.367 . S
C1679 C1678 1.367 . S
C1679 C1681 1.433 . S
C1680 C1676 1.350 . S
C1680 C1677 1.463 . S
C1680 N1684 1.427 . S
C1681 H1671 0.929 . S
C1681 C1679 1.433 . S
C1681 N1684 1.384 . S
C1682 H1673 0.929 . S
C1682 C1674 1.378 . S
C1682 C1677 1.350 . S
C1683 H1670 0.929 . S
C1683 C1675 1.433 . S
C1683 N1685 1.384 . S
N1684 C1680 1.427 . S
N1684 C1681 1.384 . S
N1685 C1677 1.427 . S
N1685 C1683 1.384 . S
H1686 C1692 0.930 . S
H1687 C1696 0.930 1_455 S
H1688 C1701 0.929 . S
H1689 C1699 0.929 . S
H1690 C1694 0.929 . S
H1691 C1700 0.929 . S
C1692 H1686 0.930 . S
C1692 C1693 1.367 . S
C1692 C1700 1.378 . S
C1693 C1692 1.367 . S
C1693 C1701 1.433 . S
C1694 H1690 0.929 . S
C1694 C1696 1.378 . S
C1694 C1698 1.350 . S
C1695 C1698 1.463 . S
C1695 C1700 1.350 . S
C1695 N1703 1.427 . S
C1696 H1687 0.930 1_655 S
C1696 C1694 1.378 . S
C1696 C1697 1.367 . S
C1697 C1696 1.367 . S
C1697 C1699 1.433 . S
C1698 C1694 1.350 . S
C1698 C1695 1.463 . S
C1698 N1702 1.427 . S
C1699 H1689 0.929 . S
C1699 C1697 1.433 . S
C1699 N1702 1.384 . S
C1700 H1691 0.929 . S
C1700 C1692 1.378 . S
C1700 C1695 1.350 . S
C1701 H1688 0.929 . S
C1701 C1693 1.433 . S
C1701 N1703 1.384 . S
N1702 C1698 1.427 . S
N1702 C1699 1.384 . S
N1703 C1695 1.427 . S
N1703 C1701 1.384 . S
H1704 C1710 0.930 . S
H1705 C1714 0.930 1_565 S
H1706 C1719 0.929 . S
H1707 C1717 0.929 . S
H1708 C1712 0.929 . S
H1709 C1718 0.929 . S
C1710 H1704 0.930 . S
C1710 C1711 1.367 . S
C1710 C1718 1.378 . S
C1711 C1710 1.367 . S
C1711 C1719 1.433 . S
C1712 H1708 0.929 . S
C1712 C1714 1.378 . S
C1712 C1716 1.350 . S
C1713 C1716 1.463 . S
C1713 C1718 1.350 . S
C1713 N1721 1.427 . S
C1714 H1705 0.930 1_545 S
C1714 C1712 1.378 . S
C1714 C1715 1.367 . S
C1715 C1714 1.367 . S
C1715 C1717 1.433 . S
C1716 C1712 1.350 . S
C1716 C1713 1.463 . S
C1716 N1720 1.427 . S
C1717 H1707 0.929 . S
C1717 C1715 1.433 . S
C1717 N1720 1.384 . S
C1718 H1709 0.929 . S
C1718 C1710 1.378 . S
C1718 C1713 1.350 . S
C1719 H1706 0.929 . S
C1719 C1711 1.433 . S
C1719 N1721 1.384 . S
N1720 C1716 1.427 . S
N1720 C1717 1.384 . S
N1721 C1713 1.427 . S
N1721 C1719 1.384 . S
H1722 C1728 0.930 . S
H1723 C1732 0.930 . S
H1724 C1737 0.929 . S
H1725 C1735 0.929 . S
H1726 C1730 0.929 . S
H1727 C1736 0.929 . S
C1728 H1722 0.930 . S
C1728 C1729 1.367 . S
C1728 C1736 1.378 . S
C1729 C1728 1.367 . S
C1729 C1737 1.433 . S
C1730 H1726 0.929 . S
C1730 C1732 1.378 . S
C1730 C1734 1.350 . S
C1731 C1734 1.463 . S
C1731 C1736 1.350 . S
C1731 N1739 1.427 . S
C1732 H1723 0.930 . S
C1732 C1730 1.378 . S
C1732 C1733 1.367 . S
C1733 C1732 1.367 . S
C1733 C1735 1.433 . S
C1734 C1730 1.350 . S
C1734 C1731 1.463 . S
C1734 N1738 1.427 . S
C1735 H1725 0.929 . S
C1735 C1733 1.433 . S
C1735 N1738 1.384 . S
C1736 H1727 0.929 . S
C1736 C1728 1.378 . S
C1736 C1731 1.350 . S
C1737 H1724 0.929 . S
C1737 C1729 1.433 . S
C1737 N1739 1.384 . S
N1738 C1734 1.427 . S
N1738 C1735 1.384 . S
N1739 C1731 1.427 . S
N1739 C1737 1.384 . S
H1740 C1746 0.930 . S
H1741 C1750 0.930 . S
H1742 C1755 0.929 . S
H1743 C1753 0.929 . S
H1744 C1748 0.929 . S
H1745 C1754 0.929 . S
C1746 H1740 0.930 . S
C1746 C1747 1.367 . S
C1746 C1754 1.378 . S
C1747 C1746 1.367 . S
C1747 C1755 1.433 . S
C1748 H1744 0.929 . S
C1748 C1750 1.378 . S
C1748 C1752 1.350 . S
C1749 C1752 1.463 . S
C1749 C1754 1.350 . S
C1749 N1757 1.427 . S
C1750 H1741 0.930 . S
C1750 C1748 1.378 . S
C1750 C1751 1.367 . S
C1751 C1750 1.367 . S
C1751 C1753 1.433 . S
C1752 C1748 1.350 . S
C1752 C1749 1.463 . S
C1752 N1756 1.427 . S
C1753 H1743 0.929 . S
C1753 C1751 1.433 . S
C1753 N1756 1.384 . S
C1754 H1745 0.929 . S
C1754 C1746 1.378 . S
C1754 C1749 1.350 . S
C1755 H1742 0.929 . S
C1755 C1747 1.433 . S
C1755 N1757 1.384 . S
N1756 C1752 1.427 . S
N1756 C1753 1.384 . S
N1757 C1749 1.427 . S
N1757 C1755 1.384 . S
H1758 C1764 0.930 . S
H1759 C1768 0.930 . S
H1760 C1773 0.929 . S
H1761 C1771 0.929 . S
H1762 C1766 0.929 . S
H1763 C1772 0.929 . S
C1764 H1758 0.930 . S
C1764 C1765 1.367 . S
C1764 C1772 1.378 . S
C1765 C1764 1.367 . S
C1765 C1773 1.433 . S
C1766 H1762 0.929 . S
C1766 C1768 1.378 . S
C1766 C1770 1.350 . S
C1767 C1770 1.463 . S
C1767 C1772 1.350 . S
C1767 N1775 1.427 . S
C1768 H1759 0.930 . S
C1768 C1766 1.378 . S
C1768 C1769 1.367 . S
C1769 C1768 1.367 . S
C1769 C1771 1.433 . S
C1770 C1766 1.350 . S
C1770 C1767 1.463 . S
C1770 N1774 1.427 . S
C1771 H1761 0.929 . S
C1771 C1769 1.433 . S
C1771 N1774 1.384 . S
C1772 H1763 0.929 . S
C1772 C1764 1.378 . S
C1772 C1767 1.350 . S
C1773 H1760 0.929 . S
C1773 C1765 1.433 . S
C1773 N1775 1.384 . S
N1774 C1770 1.427 . S
N1774 C1771 1.384 . S
N1775 C1767 1.427 . S
N1775 C1773 1.384 . S
H1776 C1782 0.930 . S
H1777 C1786 0.930 . S
H1778 C1791 0.929 . S
H1779 C1789 0.929 . S
H1780 C1784 0.929 . S
H1781 C1790 0.929 . S
C1782 H1776 0.930 . S
C1782 C1783 1.367 . S
C1782 C1790 1.378 . S
C1783 C1782 1.367 . S
C1783 C1791 1.433 . S
C1784 H1780 0.929 . S
C1784 C1786 1.378 . S
C1784 C1788 1.350 . S
C1785 C1788 1.463 . S
C1785 C1790 1.350 . S
C1785 N1793 1.427 . S
C1786 H1777 0.930 . S
C1786 C1784 1.378 . S
C1786 C1787 1.367 . S
C1787 C1786 1.367 . S
C1787 C1789 1.433 . S
C1788 C1784 1.350 . S
C1788 C1785 1.463 . S
C1788 N1792 1.427 . S
C1789 H1779 0.929 . S
C1789 C1787 1.433 . S
C1789 N1792 1.384 . S
C1790 H1781 0.929 . S
C1790 C1782 1.378 . S
C1790 C1785 1.350 . S
C1791 H1778 0.929 . S
C1791 C1783 1.433 . S
C1791 N1793 1.384 . S
N1792 C1788 1.427 . S
N1792 C1789 1.384 . S
N1793 C1785 1.427 . S
N1793 C1791 1.384 . S
H1794 C1800 0.930 . S
H1795 C1804 0.930 . S
H1796 C1809 0.929 . S
H1797 C1807 0.929 . S
H1798 C1802 0.929 . S
H1799 C1808 0.929 . S
C1800 H1794 0.930 . S
C1800 C1801 1.367 . S
C1800 C1808 1.378 . S
C1801 C1800 1.367 . S
C1801 C1809 1.433 . S
C1802 H1798 0.929 . S
C1802 C1804 1.378 . S
C1802 C1806 1.350 . S
C1803 C1806 1.463 . S
C1803 C1808 1.350 . S
C1803 N1811 1.427 . S
C1804 H1795 0.930 . S
C1804 C1802 1.378 . S
C1804 C1805 1.367 . S
C1805 C1804 1.367 . S
C1805 C1807 1.433 . S
C1806 C1802 1.350 . S
C1806 C1803 1.463 . S
C1806 N1810 1.427 . S
C1807 H1797 0.929 . S
C1807 C1805 1.433 . S
C1807 N1810 1.384 . S
C1808 H1799 0.929 . S
C1808 C1800 1.378 . S
C1808 C1803 1.350 . S
C1809 H1796 0.929 . S
C1809 C1801 1.433 . S
C1809 N1811 1.384 . S
N1810 C1806 1.427 . S
N1810 C1807 1.384 . S
N1811 C1803 1.427 . S
N1811 C1809 1.384 . S
H1812 C1818 0.930 . S
H1813 C1822 0.930 . S
H1814 C1827 0.929 . S
H1815 C1825 0.929 . S
H1816 C1820 0.929 . S
H1817 C1826 0.929 . S
C1818 H1812 0.930 . S
C1818 C1819 1.367 . S
C1818 C1826 1.378 . S
C1819 C1818 1.367 . S
C1819 C1827 1.433 . S
C1820 H1816 0.929 . S
C1820 C1822 1.378 . S
C1820 C1824 1.350 . S
C1821 C1824 1.463 . S
C1821 C1826 1.350 . S
C1821 N1829 1.427 . S
C1822 H1813 0.930 . S
C1822 C1820 1.378 . S
C1822 C1823 1.367 . S
C1823 C1822 1.367 . S
C1823 C1825 1.433 . S
C1824 C1820 1.350 . S
C1824 C1821 1.463 . S
C1824 N1828 1.427 . S
C1825 H1815 0.929 . S
C1825 C1823 1.433 . S
C1825 N1828 1.384 . S
C1826 H1817 0.929 . S
C1826 C1818 1.378 . S
C1826 C1821 1.350 . S
C1827 H1814 0.929 . S
C1827 C1819 1.433 . S
C1827 N1829 1.384 . S
N1828 C1824 1.427 . S
N1828 C1825 1.384 . S
N1829 C1821 1.427 . S
N1829 C1827 1.384 . S
H1830 C1836 0.930 . S
H1831 C1840 0.930 . S
H1832 C1845 0.929 . S
H1833 C1843 0.929 . S
H1834 C1838 0.929 . S
H1835 C1844 0.929 . S
C1836 H1830 0.930 . S
C1836 C1837 1.367 . S
C1836 C1844 1.378 . S
C1837 C1836 1.367 . S
C1837 C1845 1.433 . S
C1838 H1834 0.929 . S
C1838 C1840 1.378 . S
C1838 C1842 1.350 . S
C1839 C1842 1.463 . S
C1839 C1844 1.350 . S
C1839 N1847 1.427 . S
C1840 H1831 0.930 . S
C1840 C1838 1.378 . S
C1840 C1841 1.367 . S
C1841 C1840 1.367 . S
C1841 C1843 1.433 . S
C1842 C1838 1.350 . S
C1842 C1839 1.463 . S
C1842 N1846 1.427 . S
C1843 H1833 0.929 . S
C1843 C1841 1.433 . S
C1843 N1846 1.384 . S
C1844 H1835 0.929 . S
C1844 C1836 1.378 . S
C1844 C1839 1.350 . S
C1845 H1832 0.929 . S
C1845 C1837 1.433 . S
C1845 N1847 1.384 . S
N1846 C1842 1.427 . S
N1846 C1843 1.384 . S
N1847 C1839 1.427 . S
N1847 C1845 1.384 . S
H1848 C1854 0.930 . S
H1849 C1858 0.930 . S
H1850 C1863 0.929 . S
H1851 C1861 0.929 . S
H1852 C1856 0.929 . S
H1853 C1862 0.929 . S
C1854 H1848 0.930 . S
C1854 C1855 1.367 . S
C1854 C1862 1.378 . S
C1855 C1854 1.367 . S
C1855 C1863 1.433 . S
C1856 H1852 0.929 . S
C1856 C1858 1.378 . S
C1856 C1860 1.350 . S
C1857 C1860 1.463 . S
C1857 C1862 1.350 . S
C1857 N1865 1.427 . S
C1858 H1849 0.930 . S
C1858 C1856 1.378 . S
C1858 C1859 1.367 . S
C1859 C1858 1.367 . S
C1859 C1861 1.433 . S
C1860 C1856 1.350 . S
C1860 C1857 1.463 . S
C1860 N1864 1.427 . S
C1861 H1851 0.929 . S
C1861 C1859 1.433 . S
C1861 N1864 1.384 . S
C1862 H1853 0.929 . S
C1862 C1854 1.378 . S
C1862 C1857 1.350 . S
C1863 H1850 0.929 . S
C1863 C1855 1.433 . S
C1863 N1865 1.384 . S
N1864 C1860 1.427 . S
N1864 C1861 1.384 . S
N1865 C1857 1.427 . S
N1865 C1863 1.384 . S
H1866 C1872 0.930 . S
H1867 C1876 0.930 . S
H1868 C1881 0.929 . S
H1869 C1879 0.929 . S
H1870 C1874 0.929 . S
H1871 C1880 0.929 . S
C1872 H1866 0.930 . S
C1872 C1873 1.367 . S
C1872 C1880 1.378 . S
C1873 C1872 1.367 . S
C1873 C1881 1.433 . S
C1874 H1870 0.929 . S
C1874 C1876 1.378 . S
C1874 C1878 1.350 . S
C1875 C1878 1.463 . S
C1875 C1880 1.350 . S
C1875 N1883 1.427 . S
C1876 H1867 0.930 . S
C1876 C1874 1.378 . S
C1876 C1877 1.367 . S
C1877 C1876 1.367 . S
C1877 C1879 1.433 . S
C1878 C1874 1.350 . S
C1878 C1875 1.463 . S
C1878 N1882 1.427 . S
C1879 H1869 0.929 . S
C1879 C1877 1.433 . S
C1879 N1882 1.384 . S
C1880 H1871 0.929 . S
C1880 C1872 1.378 . S
C1880 C1875 1.350 . S
C1881 H1868 0.929 . S
C1881 C1873 1.433 . S
C1881 N1883 1.384 . S
N1882 C1878 1.427 . S
N1882 C1879 1.384 . S
N1883 C1875 1.427 . S
N1883 C1881 1.384 . S
H1884 C1890 0.930 . S
H1885 C1894 0.930 . S
H1886 C1899 0.929 . S
H1887 C1897 0.929 . S
H1888 C1892 0.929 . S
H1889 C1898 0.929 . S
C1890 H1884 0.930 . S
C1890 C1891 1.367 . S
C1890 C1898 1.378 . S
C1891 C1890 1.367 . S
C1891 C1899 1.433 . S
C1892 H1888 0.929 . S
C1892 C1894 1.378 . S
C1892 C1896 1.350 . S
C1893 C1896 1.463 . S
C1893 C1898 1.350 . S
C1893 N1901 1.427 . S
C1894 H1885 0.930 . S
C1894 C1892 1.378 . S
C1894 C1895 1.367 . S
C1895 C1894 1.367 . S
C1895 C1897 1.433 . S
C1896 C1892 1.350 . S
C1896 C1893 1.463 . S
C1896 N1900 1.427 . S
C1897 H1887 0.929 . S
C1897 C1895 1.433 . S
C1897 N1900 1.384 . S
C1898 H1889 0.929 . S
C1898 C1890 1.378 . S
C1898 C1893 1.350 . S
C1899 H1886 0.929 . S
C1899 C1891 1.433 . S
C1899 N1901 1.384 . S
N1900 C1896 1.427 . S
N1900 C1897 1.384 . S
N1901 C1893 1.427 . S
N1901 C1899 1.384 . S
H1902 C1908 0.930 . S
H1903 C1912 0.930 . S
H1904 C1917 0.929 . S
H1905 C1915 0.929 . S
H1906 C1910 0.929 . S
H1907 C1916 0.929 . S
C1908 H1902 0.930 . S
C1908 C1909 1.367 . S
C1908 C1916 1.378 . S
C1909 C1908 1.367 . S
C1909 C1917 1.433 . S
C1910 H1906 0.929 . S
C1910 C1912 1.378 . S
C1910 C1914 1.350 . S
C1911 C1914 1.463 . S
C1911 C1916 1.350 . S
C1911 N1919 1.427 . S
C1912 H1903 0.930 . S
C1912 C1910 1.378 . S
C1912 C1913 1.367 . S
C1913 C1912 1.367 . S
C1913 C1915 1.433 . S
C1914 C1910 1.350 . S
C1914 C1911 1.463 . S
C1914 N1918 1.427 . S
C1915 H1905 0.929 . S
C1915 C1913 1.433 . S
C1915 N1918 1.384 . S
C1916 H1907 0.929 . S
C1916 C1908 1.378 . S
C1916 C1911 1.350 . S
C1917 H1904 0.929 . S
C1917 C1909 1.433 . S
C1917 N1919 1.384 . S
N1918 C1914 1.427 . S
N1918 C1915 1.384 . S
N1919 C1911 1.427 . S
N1919 C1917 1.384 . S
H1920 C1926 0.930 . S
H1921 C1930 0.930 . S
H1922 C1935 0.929 . S
H1923 C1933 0.929 . S
H1924 C1928 0.929 . S
H1925 C1934 0.929 . S
C1926 H1920 0.930 . S
C1926 C1927 1.367 . S
C1926 C1934 1.378 . S
C1927 C1926 1.367 . S
C1927 C1935 1.433 . S
C1928 H1924 0.929 . S
C1928 C1930 1.378 . S
C1928 C1932 1.350 . S
C1929 C1932 1.463 . S
C1929 C1934 1.350 . S
C1929 N1937 1.427 . S
C1930 H1921 0.930 . S
C1930 C1928 1.378 . S
C1930 C1931 1.367 . S
C1931 C1930 1.367 . S
C1931 C1933 1.433 . S
C1932 C1928 1.350 . S
C1932 C1929 1.463 . S
C1932 N1936 1.427 . S
C1933 H1923 0.929 . S
C1933 C1931 1.433 . S
C1933 N1936 1.384 . S
C1934 H1925 0.929 . S
C1934 C1926 1.378 . S
C1934 C1929 1.350 . S
C1935 H1922 0.929 . S
C1935 C1927 1.433 . S
C1935 N1937 1.384 . S
N1936 C1932 1.427 . S
N1936 C1933 1.384 . S
N1937 C1929 1.427 . S
N1937 C1935 1.384 . S
H1938 C1944 0.930 . S
H1939 C1948 0.930 . S
H1940 C1953 0.929 . S
H1941 C1951 0.929 . S
H1942 C1946 0.929 . S
H1943 C1952 0.929 . S
C1944 H1938 0.930 . S
C1944 C1945 1.367 . S
C1944 C1952 1.378 . S
C1945 C1944 1.367 . S
C1945 C1953 1.433 . S
C1946 H1942 0.929 . S
C1946 C1948 1.378 . S
C1946 C1950 1.350 . S
C1947 C1950 1.463 . S
C1947 C1952 1.350 . S
C1947 N1955 1.427 . S
C1948 H1939 0.930 . S
C1948 C1946 1.378 . S
C1948 C1949 1.367 . S
C1949 C1948 1.367 . S
C1949 C1951 1.433 . S
C1950 C1946 1.350 . S
C1950 C1947 1.463 . S
C1950 N1954 1.427 . S
C1951 H1941 0.929 . S
C1951 C1949 1.433 . S
C1951 N1954 1.384 . S
C1952 H1943 0.929 . S
C1952 C1944 1.378 . S
C1952 C1947 1.350 . S
C1953 H1940 0.929 . S
C1953 C1945 1.433 . S
C1953 N1955 1.384 . S
N1954 C1950 1.427 . S
N1954 C1951 1.384 . S
N1955 C1947 1.427 . S
N1955 C1953 1.384 . S
H1956 C1962 0.930 . S
H1957 C1966 0.930 . S
H1958 C1971 0.929 . S
H1959 C1969 0.929 . S
H1960 C1964 0.929 . S
H1961 C1970 0.929 . S
C1962 H1956 0.930 . S
C1962 C1963 1.367 . S
C1962 C1970 1.378 . S
C1963 C1962 1.367 . S
C1963 C1971 1.433 . S
C1964 H1960 0.929 . S
C1964 C1966 1.378 . S
C1964 C1968 1.350 . S
C1965 C1968 1.463 . S
C1965 C1970 1.350 . S
C1965 N1973 1.427 . S
C1966 H1957 0.930 . S
C1966 C1964 1.378 . S
C1966 C1967 1.367 . S
C1967 C1966 1.367 . S
C1967 C1969 1.433 . S
C1968 C1964 1.350 . S
C1968 C1965 1.463 . S
C1968 N1972 1.427 . S
C1969 H1959 0.929 . S
C1969 C1967 1.433 . S
C1969 N1972 1.384 . S
C1970 H1961 0.929 . S
C1970 C1962 1.378 . S
C1970 C1965 1.350 . S
C1971 H1958 0.929 . S
C1971 C1963 1.433 . S
C1971 N1973 1.384 . S
N1972 C1968 1.427 . S
N1972 C1969 1.384 . S
N1973 C1965 1.427 . S
N1973 C1971 1.384 . S
H1974 C1980 0.930 . S
H1975 C1984 0.930 . S
H1976 C1989 0.929 . S
H1977 C1987 0.929 . S
H1978 C1982 0.929 . S
H1979 C1988 0.929 . S
C1980 H1974 0.930 . S
C1980 C1981 1.367 . S
C1980 C1988 1.378 . S
C1981 C1980 1.367 . S
C1981 C1989 1.433 . S
C1982 H1978 0.929 . S
C1982 C1984 1.378 . S
C1982 C1986 1.350 . S
C1983 C1986 1.463 . S
C1983 C1988 1.350 . S
C1983 N1991 1.427 . S
C1984 H1975 0.930 . S
C1984 C1982 1.378 . S
C1984 C1985 1.367 . S
C1985 C1984 1.367 . S
C1985 C1987 1.433 . S
C1986 C1982 1.350 . S
C1986 C1983 1.463 . S
C1986 N1990 1.427 . S
C1987 H1977 0.929 . S
C1987 C1985 1.433 . S
C1987 N1990 1.384 . S
C1988 H1979 0.929 . S
C1988 C1980 1.378 . S
C1988 C1983 1.350 . S
C1989 H1976 0.929 . S
C1989 C1981 1.433 . S
C1989 N1991 1.384 . S
N1990 C1986 1.427 . S
N1990 C1987 1.384 . S
N1991 C1983 1.427 . S
N1991 C1989 1.384 . S
H1992 C1998 0.930 . S
H1993 C2002 0.930 . S
H1994 C2007 0.929 . S
H1995 C2005 0.929 . S
H1996 C2000 0.929 1_556 S
H1997 C2006 0.929 . S
C1998 H1992 0.930 . S
C1998 C1999 1.367 1_554 S
C1998 C2006 1.378 . S
C1999 C1998 1.367 1_556 S
C1999 C2007 1.433 . S
C2000 H1996 0.929 1_554 S
C2000 C2002 1.378 . S
C2000 C2004 1.350 . S
C2001 C2004 1.463 . S
C2001 C2006 1.350 . S
C2001 N2009 1.427 1_554 S
C2002 H1993 0.930 . S
C2002 C2000 1.378 . S
C2002 C2003 1.367 . S
C2003 C2002 1.367 . S
C2003 C2005 1.433 . S
C2004 C2000 1.350 . S
C2004 C2001 1.463 . S
C2004 N2008 1.427 . S
C2005 H1995 0.929 . S
C2005 C2003 1.433 . S
C2005 N2008 1.384 . S
C2006 H1997 0.929 . S
C2006 C1998 1.378 . S
C2006 C2001 1.350 . S
C2007 H1994 0.929 . S
C2007 C1999 1.433 . S
C2007 N2009 1.384 . S
N2008 C2004 1.427 . S
N2008 C2005 1.384 . S
N2009 C2001 1.427 1_556 S
N2009 C2007 1.384 . S
H2010 C2016 0.930 . S
H2011 C2020 0.930 . S
H2012 C2025 0.929 . S
H2013 C2023 0.929 . S
H2014 C2018 0.929 . S
H2015 C2024 0.929 . S
C2016 H2010 0.930 . S
C2016 C2017 1.367 . S
C2016 C2024 1.378 . S
C2017 C2016 1.367 . S
C2017 C2025 1.433 . S
C2018 H2014 0.929 . S
C2018 C2020 1.378 . S
C2018 C2022 1.350 1_556 S
C2019 C2022 1.463 . S
C2019 C2024 1.350 . S
C2019 N2027 1.427 . S
C2020 H2011 0.930 . S
C2020 C2018 1.378 . S
C2020 C2021 1.367 . S
C2021 C2020 1.367 . S
C2021 C2023 1.433 1_556 S
C2022 C2018 1.350 1_554 S
C2022 C2019 1.463 . S
C2022 N2026 1.427 . S
C2023 H2013 0.929 . S
C2023 C2021 1.433 1_554 S
C2023 N2026 1.384 . S
C2024 H2015 0.929 . S
C2024 C2016 1.378 . S
C2024 C2019 1.350 . S
C2025 H2012 0.929 . S
C2025 C2017 1.433 . S
C2025 N2027 1.384 . S
N2026 C2022 1.427 . S
N2026 C2023 1.384 . S
N2027 C2019 1.427 . S
N2027 C2025 1.384 . S
H2028 C2034 0.930 . S
H2029 C2038 0.930 . S
H2030 C2043 0.929 . S
H2031 C2041 0.929 . S
H2032 C2036 0.929 . S
H2033 C2042 0.929 . S
C2034 H2028 0.930 . S
C2034 C2035 1.367 . S
C2034 C2042 1.378 . S
C2035 C2034 1.367 . S
C2035 C2043 1.433 1_556 S
C2036 H2032 0.929 . S
C2036 C2038 1.378 . S
C2036 C2040 1.350 . S
C2037 C2040 1.463 . S
C2037 C2042 1.350 1_554 S
C2037 N2045 1.427 . S
C2038 H2029 0.930 . S
C2038 C2036 1.378 . S
C2038 C2039 1.367 . S
C2039 C2038 1.367 . S
C2039 C2041 1.433 . S
C2040 C2036 1.350 . S
C2040 C2037 1.463 . S
C2040 N2044 1.427 . S
C2041 H2031 0.929 . S
C2041 C2039 1.433 . S
C2041 N2044 1.384 . S
C2042 H2033 0.929 . S
C2042 C2034 1.378 . S
C2042 C2037 1.350 1_556 S
C2043 H2030 0.929 . S
C2043 C2035 1.433 1_554 S
C2043 N2045 1.384 . S
N2044 C2040 1.427 . S
N2044 C2041 1.384 . S
N2045 C2037 1.427 . S
N2045 C2043 1.384 . S
H2046 C2052 0.930 . S
H2047 C2056 0.930 . S
H2048 C2061 0.929 . S
H2049 C2059 0.929 . S
H2050 C2054 0.929 . S
H2051 C2060 0.929 . S
C2052 H2046 0.930 . S
C2052 C2053 1.367 . S
C2052 C2060 1.378 . S
C2053 C2052 1.367 . S
C2053 C2061 1.433 . S
C2054 H2050 0.929 . S
C2054 C2056 1.378 1_554 S
C2054 C2058 1.350 . S
C2055 C2058 1.463 . S
C2055 C2060 1.350 . S
C2055 N2063 1.427 . S
C2056 H2047 0.930 . S
C2056 C2054 1.378 1_556 S
C2056 C2057 1.367 . S
C2057 C2056 1.367 . S
C2057 C2059 1.433 . S
C2058 C2054 1.350 . S
C2058 C2055 1.463 . S
C2058 N2062 1.427 . S
C2059 H2049 0.929 . S
C2059 C2057 1.433 . S
C2059 N2062 1.384 1_556 S
C2060 H2051 0.929 . S
C2060 C2052 1.378 . S
C2060 C2055 1.350 . S
C2061 H2048 0.929 . S
C2061 C2053 1.433 . S
C2061 N2063 1.384 . S
N2062 C2058 1.427 . S
N2062 C2059 1.384 1_554 S
N2063 C2055 1.427 . S
N2063 C2061 1.384 . S
H2064 C2070 0.930 . S
H2065 C2074 0.930 . S
H2066 C2079 0.929 . S
H2067 C2077 0.929 . S
H2068 C2072 0.929 . S
H2069 C2078 0.929 . S
C2070 H2064 0.930 . S
C2070 C2071 1.367 . S
C2070 C2078 1.378 . S
C2071 C2070 1.367 . S
C2071 C2079 1.433 . S
C2072 H2068 0.929 . S
C2072 C2074 1.378 . S
C2072 C2076 1.350 . S
C2073 C2076 1.463 . S
C2073 C2078 1.350 . S
C2073 N2081 1.427 . S
C2074 H2065 0.930 . S
C2074 C2072 1.378 . S
C2074 C2075 1.367 . S
C2075 C2074 1.367 . S
C2075 C2077 1.433 . S
C2076 C2072 1.350 . S
C2076 C2073 1.463 . S
C2076 N2080 1.427 . S
C2077 H2067 0.929 . S
C2077 C2075 1.433 . S
C2077 N2080 1.384 . S
C2078 H2069 0.929 . S
C2078 C2070 1.378 . S
C2078 C2073 1.350 . S
C2079 H2066 0.929 . S
C2079 C2071 1.433 . S
C2079 N2081 1.384 . S
N2080 C2076 1.427 . S
N2080 C2077 1.384 . S
N2081 C2073 1.427 . S
N2081 C2079 1.384 . S
H2082 C2088 0.930 . S
H2083 C2092 0.930 . S
H2084 C2097 0.929 . S
H2085 C2095 0.929 . S
H2086 C2090 0.929 . S
H2087 C2096 0.929 . S
C2088 H2082 0.930 . S
C2088 C2089 1.367 . S
C2088 C2096 1.378 . S
C2089 C2088 1.367 . S
C2089 C2097 1.433 . S
C2090 H2086 0.929 . S
C2090 C2092 1.378 . S
C2090 C2094 1.350 . S
C2091 C2094 1.463 . S
C2091 C2096 1.350 . S
C2091 N2099 1.427 . S
C2092 H2083 0.930 . S
C2092 C2090 1.378 . S
C2092 C2093 1.367 . S
C2093 C2092 1.367 . S
C2093 C2095 1.433 . S
C2094 C2090 1.350 . S
C2094 C2091 1.463 . S
C2094 N2098 1.427 . S
C2095 H2085 0.929 . S
C2095 C2093 1.433 . S
C2095 N2098 1.384 . S
C2096 H2087 0.929 . S
C2096 C2088 1.378 . S
C2096 C2091 1.350 . S
C2097 H2084 0.929 . S
C2097 C2089 1.433 . S
C2097 N2099 1.384 . S
N2098 C2094 1.427 . S
N2098 C2095 1.384 . S
N2099 C2091 1.427 . S
N2099 C2097 1.384 . S
H2100 C2106 0.930 . S
H2101 C2110 0.930 . S
H2102 C2115 0.929 . S
H2103 C2113 0.929 . S
H2104 C2108 0.929 . S
H2105 C2114 0.929 . S
C2106 H2100 0.930 . S
C2106 C2107 1.367 . S
C2106 C2114 1.378 . S
C2107 C2106 1.367 . S
C2107 C2115 1.433 . S
C2108 H2104 0.929 . S
C2108 C2110 1.378 . S
C2108 C2112 1.350 . S
C2109 C2112 1.463 . S
C2109 C2114 1.350 . S
C2109 N2117 1.427 . S
C2110 H2101 0.930 . S
C2110 C2108 1.378 . S
C2110 C2111 1.367 . S
C2111 C2110 1.367 . S
C2111 C2113 1.433 . S
C2112 C2108 1.350 . S
C2112 C2109 1.463 . S
C2112 N2116 1.427 . S
C2113 H2103 0.929 . S
C2113 C2111 1.433 . S
C2113 N2116 1.384 . S
C2114 H2105 0.929 . S
C2114 C2106 1.378 . S
C2114 C2109 1.350 . S
C2115 H2102 0.929 . S
C2115 C2107 1.433 . S
C2115 N2117 1.384 . S
N2116 C2112 1.427 . S
N2116 C2113 1.384 . S
N2117 C2109 1.427 . S
N2117 C2115 1.384 . S
H2118 C2124 0.930 . S
H2119 C2128 0.930 . S
H2120 C2133 0.929 . S
H2121 C2131 0.929 . S
H2122 C2126 0.929 . S
H2123 C2132 0.929 . S
C2124 H2118 0.930 . S
C2124 C2125 1.367 . S
C2124 C2132 1.378 . S
C2125 C2124 1.367 . S
C2125 C2133 1.433 . S
C2126 H2122 0.929 . S
C2126 C2128 1.378 . S
C2126 C2130 1.350 . S
C2127 C2130 1.463 . S
C2127 C2132 1.350 . S
C2127 N2135 1.427 . S
C2128 H2119 0.930 . S
C2128 C2126 1.378 . S
C2128 C2129 1.367 . S
C2129 C2128 1.367 . S
C2129 C2131 1.433 . S
C2130 C2126 1.350 . S
C2130 C2127 1.463 . S
C2130 N2134 1.427 . S
C2131 H2121 0.929 . S
C2131 C2129 1.433 . S
C2131 N2134 1.384 . S
C2132 H2123 0.929 . S
C2132 C2124 1.378 . S
C2132 C2127 1.350 . S
C2133 H2120 0.929 . S
C2133 C2125 1.433 . S
C2133 N2135 1.384 . S
N2134 C2130 1.427 . S
N2134 C2131 1.384 . S
N2135 C2127 1.427 . S
N2135 C2133 1.384 . S
H2136 C2142 0.930 . S
H2137 C2146 0.930 . S
H2138 C2151 0.929 . S
H2139 C2149 0.929 . S
H2140 C2144 0.929 . S
H2141 C2150 0.929 . S
C2142 H2136 0.930 . S
C2142 C2143 1.367 . S
C2142 C2150 1.378 . S
C2143 C2142 1.367 . S
C2143 C2151 1.433 . S
C2144 H2140 0.929 . S
C2144 C2146 1.378 . S
C2144 C2148 1.350 . S
C2145 C2148 1.463 . S
C2145 C2150 1.350 . S
C2145 N2153 1.427 . S
C2146 H2137 0.930 . S
C2146 C2144 1.378 . S
C2146 C2147 1.367 1_556 S
C2147 C2146 1.367 1_554 S
C2147 C2149 1.433 . S
C2148 C2144 1.350 . S
C2148 C2145 1.463 . S
C2148 N2152 1.427 1_556 S
C2149 H2139 0.929 . S
C2149 C2147 1.433 . S
C2149 N2152 1.384 . S
C2150 H2141 0.929 . S
C2150 C2142 1.378 . S
C2150 C2145 1.350 . S
C2151 H2138 0.929 . S
C2151 C2143 1.433 . S
C2151 N2153 1.384 . S
N2152 C2148 1.427 1_554 S
N2152 C2149 1.384 . S
N2153 C2145 1.427 . S
N2153 C2151 1.384 . S
H2154 C2160 0.930 1_554 S
H2155 C2164 0.930 . S
H2156 C2169 0.929 . S
H2157 C2167 0.929 . S
H2158 C2162 0.929 . S
H2159 C2168 0.920 1_554 S
C2160 H2154 0.930 1_556 S
C2160 C2161 1.367 . S
C2160 C2168 1.381 . S
C2161 C2160 1.367 . S
C2161 C2169 1.433 . S
C2162 H2158 0.929 . S
C2162 C2164 1.378 . S
C2162 C2166 1.350 . S
C2163 C2166 1.463 . S
C2163 C2168 1.356 . S
C2163 N2171 1.427 . S
C2164 H2155 0.930 . S
C2164 C2162 1.378 . S
C2164 C2165 1.367 1_556 S
C2165 C2164 1.367 1_554 S
C2165 C2167 1.433 . S
C2166 C2162 1.350 . S
C2166 C2163 1.463 . S
C2166 N2170 1.427 1_556 S
C2167 H2157 0.929 . S
C2167 C2165 1.433 . S
C2167 N2170 1.384 . S
C2168 H2159 0.920 1_556 S
C2168 C2160 1.381 . S
C2168 C2163 1.356 . S
C2169 H2156 0.929 . S
C2169 C2161 1.433 . S
C2169 N2171 1.384 . S
N2170 C2166 1.427 1_554 S
N2170 C2167 1.384 . S
N2171 C2163 1.427 . S
N2171 C2169 1.384 . S
H2172 C2178 0.930 . S
H2173 C2182 0.930 . S
H2174 C2187 0.929 . S
H2175 C2185 0.929 1_554 S
H2176 C2180 0.929 . S
H2177 C2186 0.929 . S
C2178 H2172 0.930 . S
C2178 C2179 1.367 . S
C2178 C2186 1.378 . S
C2179 C2178 1.367 . S
C2179 C2187 1.433 1_554 S
C2180 H2176 0.929 . S
C2180 C2182 1.378 . S
C2180 C2184 1.350 . S
C2181 C2184 1.463 . S
C2181 C2186 1.350 1_556 S
C2181 N2189 1.427 . S
C2182 H2173 0.930 . S
C2182 C2180 1.378 . S
C2182 C2183 1.367 . S
C2183 C2182 1.367 . S
C2183 C2185 1.433 . S
C2184 C2180 1.350 . S
C2184 C2181 1.463 . S
C2184 N2188 1.426 . S
C2185 H2175 0.929 1_556 S
C2185 C2183 1.433 . S
C2185 N2188 1.383 . S
C2186 H2177 0.929 . S
C2186 C2178 1.378 . S
C2186 C2181 1.350 1_554 S
C2187 H2174 0.929 . S
C2187 C2179 1.433 1_556 S
C2187 N2189 1.384 . S
N2188 C2184 1.426 . S
N2188 C2185 1.383 . S
N2189 C2181 1.427 . S
N2189 C2187 1.384 . S
H2190 C2196 0.930 . S
H2191 C2200 0.930 . S
H2192 C2205 0.929 . S
H2193 C2203 0.929 1_554 S
H2194 C2198 0.929 . S
H2195 C2204 0.929 . S
C2196 H2190 0.930 . S
C2196 C2197 1.367 . S
C2196 C2204 1.378 . S
C2197 C2196 1.367 . S
C2197 C2205 1.433 1_554 S
C2198 H2194 0.929 . S
C2198 C2200 1.378 . S
C2198 C2202 1.350 . S
C2199 C2202 1.463 . S
C2199 C2204 1.350 1_556 S
C2199 N2207 1.427 . S
C2200 H2191 0.930 . S
C2200 C2198 1.378 . S
C2200 C2201 1.367 . S
C2201 C2200 1.367 . S
C2201 C2203 1.433 . S
C2202 C2198 1.350 . S
C2202 C2199 1.463 . S
C2202 N2206 1.419 1_556 S
C2203 H2193 0.929 1_556 S
C2203 C2201 1.433 . S
C2203 N2206 1.380 1_556 S
C2204 H2195 0.929 . S
C2204 C2196 1.378 . S
C2204 C2199 1.350 1_554 S
C2205 H2192 0.929 . S
C2205 C2197 1.433 1_556 S
C2205 N2207 1.384 . S
N2206 C2202 1.419 1_554 S
N2206 C2203 1.380 1_554 S
N2207 C2199 1.427 . S
N2207 C2205 1.384 . S
C1351 C63 2.441 . S
C1355 C476 2.582 . S
C1369 C567 2.394 . S
C1373 C147 2.395 . S
C1387 C224 2.579 . S
C1391 C651 2.414 . S
C1405 C315 2.366 . S
C1409 C392 2.526 . S
C1423 C1159 2.582 . S
C1427 C746 2.440 . S
C1441 C1250 2.396 . S
C1445 C830 2.394 . S
C1459 C907 2.577 . S
C1463 C1334 2.415 . S
C1477 C998 2.375 . S
C1481 C1075 2.517 . S
C1495 C58 1.625 . S
C1499 C319 1.712 . S
C1513 C142 1.651 . S
C1517 C67 1.748 . S
C1531 C237 1.560 . S
C1535 C151 1.667 . S
C1549 C310 1.579 . S
C1553 C242 1.557 1_455 S
C1567 C405 1.522 . S
C1571 C494 1.514 1_565 S
C1585 C571 1.737 . S
C1589 C489 1.599 . S
C1603 C562 1.662 . S
C1607 C655 1.744 . S
C1621 C410 1.596 1_655 S
C1625 C646 1.619 . S
C1639 C980 1.711 . S
C1643 C741 1.636 . S
C1657 C825 1.666 . S
C1661 C728 1.741 . S
C1675 C898 1.550 . S
C1679 C812 1.672 . S
C1693 C993 1.587 . S
C1697 C903 1.549 1_655 S
C1711 C1066 1.523 . S
C1715 C1155 1.511 1_545 S
C1729 C1150 1.617 . S
C1733 C1232 1.726 . S
C1747 C1245 1.655 . S
C1751 C1316 1.737 . S
C1765 C1329 1.621 . S
C1769 C1071 1.599 1_455 S
C1783 C69 1.287 . S
C1787 C226 0.932 . S
C1801 C153 1.291 . S
C1805 C321 1.276 . S
C1819 C573 1.282 . S
C1823 C394 0.935 . S
C1837 C657 1.273 . S
C1841 C478 0.907 . S
C1855 C909 0.940 . S
C1859 C730 1.275 . S
C1873 C982 1.276 . S
C1877 C814 1.286 . S
C1891 C1077 0.920 . S
C1895 C1234 1.300 . S
C1909 C1161 0.908 . S
C1913 C1318 1.270 . S
C1927 C56 2.304 . S
C1931 C987 2.280 . S
C1945 C735 2.315 . S
C1949 C140 2.335 . S
C1963 C231 2.376 . S
C1967 C819 2.323 . S
C1981 C896 2.286 . S
C1985 C308 2.314 . S
C1999 C1148 2.307 . S
C2003 C399 2.373 . S
C2017 C483 2.376 . S
C2021 C1239 2.316 . S
C2035 C1323 2.294 . S
C2039 C560 2.321 . S
C2053 C644 2.296 . S
C2057 C1064 2.257 . S
C2071 C739 2.303 . S
C2075 C326 2.284 . S
C2089 C823 2.333 . S
C2093 C74 2.311 . S
C2107 C158 2.317 . S
C2111 C914 2.375 . S
C2125 C991 2.321 . S
C2129 C235 2.279 . S
C2143 C1082 2.374 . S
C2147 C487 2.308 . S
C2161 C1166 2.376 . S
C2165 C578 2.323 . S
C2179 C662 2.296 . S
C2183 C1243 2.325 . S
C2197 C403 2.255 . S
C2201 C1327 2.293 . S
