# Generated by pormake.
# Topology hbo, (4)-cn, num edge types: 1
# Building blocks:
#     Node 0, Type 0, BuildingBlock: CEKHIL_clean_sbu_0, # of connection points: 4
#     Node 1, Type 0, BuildingBlock: CEKHIL_clean_sbu_0, # of connection points: 4
#     Node 2, Type 0, BuildingBlock: CEKHIL_clean_sbu_0, # of connection points: 4
#     Node 3, Type 0, BuildingBlock: CEKHIL_clean_sbu_0, # of connection points: 4
#     Node 4, Type 0, BuildingBlock: CEKHIL_clean_sbu_0, # of connection points: 4
#     Node 5, Type 0, BuildingBlock: CEKHIL_clean_sbu_0, # of connection points: 4
#     Node 6, Type 0, BuildingBlock: CEKHIL_clean_sbu_0, # of connection points: 4
#     Node 7, Type 0, BuildingBlock: CEKHIL_clean_sbu_0, # of connection points: 4
#     Node 8, Type 0, BuildingBlock: CEKHIL_clean_sbu_0, # of connection points: 4
#     Node 9, Type 0, BuildingBlock: CEKHIL_clean_sbu_0, # of connection points: 4
#     Node 10, Type 0, BuildingBlock: CEKHIL_clean_sbu_0, # of connection points: 4
#     Node 11, Type 0, BuildingBlock: CEKHIL_clean_sbu_0, # of connection points: 4
#     Node 12, Type 0, BuildingBlock: CEKHIL_clean_sbu_0, # of connection points: 4
#     Node 13, Type 0, BuildingBlock: CEKHIL_clean_sbu_0, # of connection points: 4
#     Node 14, Type 0, BuildingBlock: CEKHIL_clean_sbu_0, # of connection points: 4
#     Node 15, Type 0, BuildingBlock: CEKHIL_clean_sbu_0, # of connection points: 4
#     Node 16, Type 0, BuildingBlock: CEKHIL_clean_sbu_0, # of connection points: 4
#     Node 17, Type 0, BuildingBlock: CEKHIL_clean_sbu_0, # of connection points: 4
#     Node 18, Type 0, BuildingBlock: CEKHIL_clean_sbu_0, # of connection points: 4
#     Node 19, Type 0, BuildingBlock: CEKHIL_clean_sbu_0, # of connection points: 4
#     Node 20, Type 0, BuildingBlock: CEKHIL_clean_sbu_0, # of connection points: 4
#     Node 21, Type 0, BuildingBlock: CEKHIL_clean_sbu_0, # of connection points: 4
#     Node 22, Type 0, BuildingBlock: CEKHIL_clean_sbu_0, # of connection points: 4
#     Node 23, Type 0, BuildingBlock: CEKHIL_clean_sbu_0, # of connection points: 4
#     Edge 24, Type (0, 0), BuildingBlock: OJICUG_clean_linker_0, # of connection points: 2
#     Edge 25, Type (0, 0), BuildingBlock: OJICUG_clean_linker_0, # of connection points: 2
#     Edge 26, Type (0, 0), BuildingBlock: OJICUG_clean_linker_0, # of connection points: 2
#     Edge 27, Type (0, 0), BuildingBlock: OJICUG_clean_linker_0, # of connection points: 2
#     Edge 28, Type (0, 0), BuildingBlock: OJICUG_clean_linker_0, # of connection points: 2
#     Edge 29, Type (0, 0), BuildingBlock: OJICUG_clean_linker_0, # of connection points: 2
#     Edge 30, Type (0, 0), BuildingBlock: OJICUG_clean_linker_0, # of connection points: 2
#     Edge 31, Type (0, 0), BuildingBlock: OJICUG_clean_linker_0, # of connection points: 2
#     Edge 32, Type (0, 0), BuildingBlock: OJICUG_clean_linker_0, # of connection points: 2
#     Edge 33, Type (0, 0), BuildingBlock: OJICUG_clean_linker_0, # of connection points: 2
#     Edge 34, Type (0, 0), BuildingBlock: OJICUG_clean_linker_0, # of connection points: 2
#     Edge 35, Type (0, 0), BuildingBlock: OJICUG_clean_linker_0, # of connection points: 2
#     Edge 36, Type (0, 0), BuildingBlock: OJICUG_clean_linker_0, # of connection points: 2
#     Edge 37, Type (0, 0), BuildingBlock: OJICUG_clean_linker_0, # of connection points: 2
#     Edge 38, Type (0, 0), BuildingBlock: OJICUG_clean_linker_0, # of connection points: 2
#     Edge 39, Type (0, 0), BuildingBlock: OJICUG_clean_linker_0, # of connection points: 2
#     Edge 40, Type (0, 0), BuildingBlock: OJICUG_clean_linker_0, # of connection points: 2
#     Edge 41, Type (0, 0), BuildingBlock: OJICUG_clean_linker_0, # of connection points: 2
#     Edge 42, Type (0, 0), BuildingBlock: OJICUG_clean_linker_0, # of connection points: 2
#     Edge 43, Type (0, 0), BuildingBlock: OJICUG_clean_linker_0, # of connection points: 2
#     Edge 44, Type (0, 0), BuildingBlock: OJICUG_clean_linker_0, # of connection points: 2
#     Edge 45, Type (0, 0), BuildingBlock: OJICUG_clean_linker_0, # of connection points: 2
#     Edge 46, Type (0, 0), BuildingBlock: OJICUG_clean_linker_0, # of connection points: 2
#     Edge 47, Type (0, 0), BuildingBlock: OJICUG_clean_linker_0, # of connection points: 2
#     Edge 48, Type (0, 0), BuildingBlock: OJICUG_clean_linker_0, # of connection points: 2
#     Edge 49, Type (0, 0), BuildingBlock: OJICUG_clean_linker_0, # of connection points: 2
#     Edge 50, Type (0, 0), BuildingBlock: OJICUG_clean_linker_0, # of connection points: 2
#     Edge 51, Type (0, 0), BuildingBlock: OJICUG_clean_linker_0, # of connection points: 2
#     Edge 52, Type (0, 0), BuildingBlock: OJICUG_clean_linker_0, # of connection points: 2
#     Edge 53, Type (0, 0), BuildingBlock: OJICUG_clean_linker_0, # of connection points: 2
#     Edge 54, Type (0, 0), BuildingBlock: OJICUG_clean_linker_0, # of connection points: 2
#     Edge 55, Type (0, 0), BuildingBlock: OJICUG_clean_linker_0, # of connection points: 2
#     Edge 56, Type (0, 0), BuildingBlock: OJICUG_clean_linker_0, # of connection points: 2
#     Edge 57, Type (0, 0), BuildingBlock: OJICUG_clean_linker_0, # of connection points: 2
#     Edge 58, Type (0, 0), BuildingBlock: OJICUG_clean_linker_0, # of connection points: 2
#     Edge 59, Type (0, 0), BuildingBlock: OJICUG_clean_linker_0, # of connection points: 2
#     Edge 60, Type (0, 0), BuildingBlock: OJICUG_clean_linker_0, # of connection points: 2
#     Edge 61, Type (0, 0), BuildingBlock: OJICUG_clean_linker_0, # of connection points: 2
#     Edge 62, Type (0, 0), BuildingBlock: OJICUG_clean_linker_0, # of connection points: 2
#     Edge 63, Type (0, 0), BuildingBlock: OJICUG_clean_linker_0, # of connection points: 2
#     Edge 64, Type (0, 0), BuildingBlock: OJICUG_clean_linker_0, # of connection points: 2
#     Edge 65, Type (0, 0), BuildingBlock: OJICUG_clean_linker_0, # of connection points: 2
#     Edge 66, Type (0, 0), BuildingBlock: OJICUG_clean_linker_0, # of connection points: 2
#     Edge 67, Type (0, 0), BuildingBlock: OJICUG_clean_linker_0, # of connection points: 2
#     Edge 68, Type (0, 0), BuildingBlock: OJICUG_clean_linker_0, # of connection points: 2
#     Edge 69, Type (0, 0), BuildingBlock: OJICUG_clean_linker_0, # of connection points: 2
#     Edge 70, Type (0, 0), BuildingBlock: OJICUG_clean_linker_0, # of connection points: 2
#     Edge 71, Type (0, 0), BuildingBlock: OJICUG_clean_linker_0, # of connection points: 2
# Relax obj value: 0.229
# Max RMSD: 0.248
# Mean RMSD: 0.240
data_MOF--net-hbo--node1-CEKHIL_clean_sbu_0--edge1-OJICUG_clean_linker_0
_symmetry_space_group_name_H-M    P1
_symmetry_Int_Tables_number       1
_symmetry_cell_setting            triclinic
loop_
_symmetry_equiv_pos_as_xyz
'x, y, z'
_cell_length_a     38.316387
_cell_length_b     37.847817
_cell_length_c     37.84106
_cell_angle_alpha  90.034947
_cell_angle_beta   89.857026
_cell_angle_gamma 89.470671
loop_
_atom_site_label
_atom_site_type_symbol
_atom_site_fract_x
_atom_site_fract_y
_atom_site_fract_z
_atom_type_partial_charge
Co0 Co 0.11262 0.34182 0.24479 0.0
O1 O 0.06901 0.35994 0.26089 0.0
O2 O 0.08095 0.34722 0.2049 0.0
C3 C 0.11906 0.29941 0.2854 0.0
O4 O 0.15616 0.3217 0.22068 0.0
Co5 Co 0.17458 0.35266 0.29708 0.0
O6 O 0.19941 0.32372 0.26125 0.0
C7 C 0.14897 0.41244 0.25562 0.0
C8 C 0.05859 0.35856 0.22844 0.0
C9 C 0.18774 0.31527 0.23087 0.0
O10 O 0.12985 0.39121 0.23788 0.0
O11 O 0.16631 0.40308 0.28296 0.0
O12 O 0.09954 0.29423 0.25796 0.0
O13 O 0.12936 0.33156 0.28989 0.0
Co14 Co 0.12348 0.66369 0.7319 0.0
O15 O 0.07613 0.65637 0.71746 0.0
O16 O 0.09365 0.66235 0.77299 0.0
C17 C 0.13883 0.70565 0.69337 0.0
O18 O 0.16973 0.67324 0.7564 0.0
Co19 Co 0.18355 0.64295 0.6807 0.0
O20 O 0.21321 0.66611 0.71672 0.0
C21 C 0.1429 0.5875 0.71384 0.0
C22 C 0.06833 0.65678 0.7509 0.0
C23 C 0.20201 0.67548 0.74711 0.0
O24 O 0.13032 0.61097 0.73501 0.0
O25 O 0.16231 0.59524 0.68748 0.0
O26 O 0.1204 0.71391 0.72114 0.0
O27 O 0.14198 0.67215 0.6871 0.0
Co28 Co 0.89524 0.64218 0.24452 0.0
O29 O 0.94303 0.62811 0.25024 0.0
O30 O 0.91555 0.6313 0.19881 0.0
C31 C 0.89759 0.69007 0.27949 0.0
O32 O 0.84637 0.65693 0.22857 0.0
Co33 Co 0.84495 0.64504 0.30964 0.0
O34 O 0.81135 0.66589 0.27572 0.0
C35 C 0.86653 0.57656 0.27898 0.0
C36 C 0.94427 0.62512 0.21612 0.0
C37 C 0.81698 0.6664 0.24252 0.0
O38 O 0.88 0.59188 0.25185 0.0
O39 O 0.8549 0.59336 0.30596 0.0
O40 O 0.90812 0.69206 0.2469 0.0
O41 O 0.88937 0.65898 0.29032 0.0
Co42 Co 0.87537 0.33084 0.71235 0.0
O43 O 0.92395 0.33525 0.70023 0.0
O44 O 0.90295 0.33089 0.75476 0.0
C45 C 0.8592 0.28909 0.67371 0.0
O46 O 0.82782 0.32465 0.73512 0.0
Co47 Co 0.81822 0.35431 0.65945 0.0
O48 O 0.78565 0.334 0.69483 0.0
C49 C 0.85842 0.40827 0.69564 0.0
C50 C 0.92978 0.3347 0.7341 0.0
C51 C 0.79561 0.32462 0.72557 0.0
O52 O 0.87117 0.38372 0.71526 0.0
O53 O 0.83879 0.40196 0.66913 0.0
O54 O 0.87623 0.28054 0.70218 0.0
O55 O 0.85797 0.32265 0.66677 0.0
Co56 Co 0.21242 0.13117 0.37038 0.0
O57 O 0.1925 0.13194 0.41641 0.0
O58 O 0.24904 0.12487 0.40517 0.0
C59 C 0.18397 0.17915 0.35089 0.0
O60 O 0.24172 0.13024 0.32544 0.0
Co61 Co 0.16333 0.11824 0.30682 0.0
O62 O 0.20591 0.12723 0.27842 0.0
C63 C 0.18257 0.05899 0.35275 0.0
C64 C 0.22393 0.12774 0.4283 0.0
C65 C 0.23627 0.12976 0.29186 0.0
O66 O 0.20508 0.07888 0.36781 0.0
O67 O 0.16085 0.07042 0.32969 0.0
O68 O 0.21242 0.18234 0.36911 0.0
O69 O 0.17196 0.14744 0.34796 0.0
Co70 Co 0.3803 0.77043 0.83718 0.0
O71 O 0.42845 0.78031 0.84603 0.0
O72 O 0.40512 0.72681 0.84637 0.0
C73 C 0.37405 0.80453 0.7891 0.0
O74 O 0.33235 0.74975 0.82749 0.0
Co75 Co 0.32382 0.82991 0.84126 0.0
O76 O 0.29235 0.79337 0.82208 0.0
C77 C 0.35825 0.8044 0.90585 0.0
C78 C 0.43258 0.74642 0.84982 0.0
C79 C 0.30133 0.76091 0.82023 0.0
O80 O 0.36993 0.77716 0.88903 0.0
O81 O 0.34239 0.83006 0.8906 0.0
O82 O 0.38802 0.77321 0.78628 0.0
O83 O 0.36808 0.8153 0.82091 0.0
Co84 Co 0.80143 0.84878 0.37302 0.0
O85 O 0.82025 0.8539 0.41941 0.0
O86 O 0.76383 0.84961 0.4073 0.0
C87 C 0.83834 0.80647 0.35489 0.0
O88 O 0.77283 0.84232 0.32828 0.0
Co89 Co 0.84748 0.868 0.308 0.0
O90 O 0.80706 0.85058 0.28057 0.0
C91 C 0.8157 0.92446 0.35072 0.0
C92 C 0.78833 0.85265 0.43084 0.0
C93 C 0.77778 0.843 0.29461 0.0
O94 O 0.79836 0.90121 0.36785 0.0
O95 O 0.83925 0.91664 0.32789 0.0
O96 O 0.81135 0.79863 0.37405 0.0
O97 O 0.84425 0.83976 0.35054 0.0
Co98 Co 0.61883 0.23984 0.8341 0.0
O99 O 0.57255 0.22847 0.84909 0.0
O100 O 0.59193 0.28289 0.84054 0.0
C101 C 0.623 0.20051 0.78985 0.0
O102 O 0.66465 0.2612 0.81711 0.0
Co103 Co 0.67811 0.18261 0.83929 0.0
O104 O 0.70542 0.21793 0.81303 0.0
C105 C 0.65294 0.21903 0.90339 0.0
C106 C 0.56632 0.26222 0.84914 0.0
C107 C 0.69531 0.24976 0.80849 0.0
O108 O 0.63437 0.24068 0.88498 0.0
O109 O 0.66969 0.19276 0.89023 0.0
O110 O 0.6068 0.23042 0.78495 0.0
O111 O 0.63199 0.19384 0.82199 0.0
Co112 Co 0.2644 0.87932 0.62871 0.0
O113 O 0.27987 0.92629 0.61793 0.0
O114 O 0.22474 0.91093 0.62594 0.0
C115 C 0.30335 0.86924 0.67214 0.0
O116 O 0.23839 0.83452 0.64172 0.0
Co117 Co 0.31399 0.81365 0.62075 0.0
O118 O 0.27463 0.78732 0.64145 0.0
C119 C 0.27774 0.84362 0.55807 0.0
C120 C 0.24737 0.93586 0.62104 0.0
C121 C 0.24466 0.80138 0.64624 0.0
O122 O 0.26114 0.86667 0.57693 0.0
O123 O 0.30125 0.82285 0.57048 0.0
O124 O 0.27502 0.88724 0.67833 0.0
O125 O 0.30878 0.8607 0.63957 0.0
Co126 Co 0.64001 0.77464 0.15892 0.0
O127 O 0.59696 0.79984 0.15397 0.0
O128 O 0.60123 0.74169 0.15897 0.0
C129 C 0.66525 0.80877 0.19984 0.0
O130 O 0.68147 0.74105 0.16592 0.0
Co131 Co 0.70611 0.8144 0.13307 0.0
O132 O 0.7299 0.77264 0.15393 0.0
C133 C 0.65836 0.78625 0.08096 0.0
C134 C 0.58146 0.76956 0.15453 0.0
C135 C 0.71495 0.74465 0.16472 0.0
O136 O 0.64308 0.76959 0.10607 0.0
O137 O 0.68226 0.80895 0.08636 0.0
O138 O 0.64214 0.78562 0.20923 0.0
O139 O 0.6674 0.81442 0.1662 0.0
Co140 Co 0.72756 0.11449 0.62932 0.0
O141 O 0.71055 0.06681 0.62764 0.0
O142 O 0.76631 0.08176 0.62569 0.0
C143 C 0.69412 0.13156 0.67514 0.0
O144 O 0.7555 0.16002 0.63224 0.0
Co145 Co 0.6789 0.17985 0.61771 0.0
O146 O 0.72057 0.20805 0.62942 0.0
C147 C 0.69973 0.13439 0.55768 0.0
C148 C 0.7431 0.05696 0.62705 0.0
C149 C 0.75059 0.19373 0.63291 0.0
O150 O 0.7233 0.11884 0.57642 0.0
O151 O 0.67734 0.15622 0.5705 0.0
O152 O 0.72304 0.11427 0.68057 0.0
O153 O 0.68518 0.13568 0.64257 0.0
Co154 Co 0.36263 0.20231 0.15129 0.0
O155 O 0.40837 0.18359 0.14345 0.0
O156 O 0.39588 0.2406 0.15041 0.0
C157 C 0.34391 0.16439 0.19245 0.0
O158 O 0.31778 0.2301 0.16024 0.0
Co159 Co 0.30084 0.15566 0.12738 0.0
O160 O 0.27246 0.19417 0.14903 0.0
C161 C 0.34221 0.1912 0.07401 0.0
C162 C 0.41896 0.21607 0.14346 0.0
C163 C 0.2848 0.22353 0.15956 0.0
O164 O 0.35688 0.20806 0.09916 0.0
O165 O 0.32089 0.16595 0.07934 0.0
O166 O 0.36423 0.19029 0.20118 0.0
O167 O 0.34083 0.15897 0.15878 0.0
Co168 Co 0.85541 0.60362 0.77225 0.0
O169 O 0.86518 0.55465 0.78108 0.0
O170 O 0.86173 0.57908 0.7279 0.0
C171 C 0.80961 0.60937 0.80899 0.0
O172 O 0.84489 0.65272 0.75314 0.0
Co173 Co 0.86398 0.65873 0.83239 0.0
O174 O 0.8445 0.69251 0.79739 0.0
C175 C 0.92626 0.63257 0.79485 0.0
C176 C 0.86622 0.55084 0.74699 0.0
C177 C 0.84053 0.68439 0.76496 0.0
O178 O 0.90651 0.61494 0.774 0.0
O179 O 0.91469 0.64961 0.82173 0.0
O180 O 0.80575 0.59556 0.77787 0.0
O181 O 0.84153 0.61512 0.81848 0.0
Co182 Co 0.856 0.35504 0.24863 0.0
O183 O 0.90265 0.35919 0.26564 0.0
O184 O 0.88759 0.3603 0.20895 0.0
C185 C 0.83953 0.30892 0.28172 0.0
O186 O 0.81038 0.35022 0.22183 0.0
Co187 Co 0.79395 0.36902 0.30034 0.0
O188 O 0.76559 0.35132 0.26054 0.0
C189 C 0.83799 0.42737 0.277 0.0
C190 C 0.91193 0.36213 0.23276 0.0
C191 C 0.77778 0.34685 0.22947 0.0
O192 O 0.8504 0.40773 0.25222 0.0
O193 O 0.81777 0.41578 0.30122 0.0
O194 O 0.85792 0.30382 0.25322 0.0
O195 O 0.836 0.34147 0.29153 0.0
Co196 Co 0.1404 0.38652 0.77325 0.0
O197 O 0.12965 0.4344 0.78587 0.0
O198 O 0.13618 0.41481 0.73097 0.0
C199 C 0.1844 0.3782 0.81146 0.0
O200 O 0.15248 0.33902 0.75088 0.0
Co201 Co 0.12841 0.32761 0.82902 0.0
O202 O 0.15041 0.29679 0.79277 0.0
C203 C 0.06855 0.35527 0.78903 0.0
C204 C 0.13053 0.44126 0.7523 0.0
C205 C 0.15627 0.30675 0.76114 0.0
O206 O 0.08945 0.37472 0.77114 0.0
O207 O 0.07838 0.33645 0.81536 0.0
O208 O 0.18951 0.39456 0.78183 0.0
O209 O 0.15212 0.37156 0.81909 0.0
Co210 Co 0.16039 0.61178 0.18755 0.0
O211 O 0.16021 0.56331 0.172 0.0
O212 O 0.15839 0.58147 0.22785 0.0
C213 C 0.20409 0.63218 0.15394 0.0
O214 O 0.16164 0.65791 0.21445 0.0
Co215 Co 0.14011 0.6735 0.1383 0.0
O216 O 0.15495 0.70428 0.17811 0.0
C217 C 0.08489 0.62851 0.1663 0.0
C218 C 0.15884 0.55548 0.20548 0.0
C219 C 0.16104 0.69131 0.20857 0.0
O220 O 0.10798 0.61335 0.18578 0.0
O221 O 0.09261 0.6517 0.14302 0.0
O222 O 0.21065 0.61389 0.18222 0.0
O223 O 0.17163 0.6331 0.14417 0.0
Co224 Co 0.76821 0.835 0.64023 0.0
O225 O 0.79716 0.84403 0.6004 0.0
O226 O 0.74011 0.83522 0.59756 0.0
C227 C 0.80176 0.79402 0.6664 0.0
O228 O 0.73161 0.8232 0.67757 0.0
Co229 Co 0.79877 0.85883 0.71222 0.0
O230 O 0.75756 0.83309 0.73023 0.0
C231 C 0.77525 0.91208 0.66223 0.0
C232 C 0.76931 0.84198 0.58123 0.0
C233 C 0.73231 0.82163 0.71165 0.0
O234 O 0.75964 0.88734 0.64551 0.0
O235 O 0.79594 0.90605 0.68805 0.0
O236 O 0.78179 0.7855 0.64013 0.0
O237 O 0.80492 0.82766 0.67185 0.0
Co238 Co 0.62182 0.22725 0.12562 0.0
O239 O 0.5803 0.20264 0.11379 0.0
O240 O 0.58332 0.26065 0.1212 0.0
C241 C 0.63755 0.19112 0.16997 0.0
O242 O 0.66065 0.2609 0.13955 0.0
Co243 Co 0.69348 0.1875 0.11748 0.0
O244 O 0.71171 0.23059 0.13985 0.0
C245 C 0.65725 0.21593 0.05466 0.0
C246 C 0.56429 0.2329 0.11539 0.0
C247 C 0.69379 0.25865 0.14501 0.0
O248 O 0.63418 0.2316 0.07401 0.0
O249 O 0.68071 0.19508 0.067 0.0
O250 O 0.61478 0.21614 0.17526 0.0
O251 O 0.64725 0.18652 0.1376 0.0
Co252 Co 0.23284 0.15807 0.63606 0.0
O253 O 0.20568 0.14942 0.59511 0.0
O254 O 0.26317 0.15639 0.59502 0.0
C255 C 0.19915 0.19986 0.66089 0.0
O256 O 0.26809 0.16907 0.67453 0.0
Co257 Co 0.19908 0.13555 0.70701 0.0
O258 O 0.24016 0.16047 0.72644 0.0
C259 C 0.22131 0.08163 0.65703 0.0
C260 C 0.23474 0.14967 0.57751 0.0
C261 C 0.26627 0.1711 0.70849 0.0
O262 O 0.23947 0.10556 0.64181 0.0
O263 O 0.19987 0.08861 0.68208 0.0
O264 O 0.22047 0.20801 0.63547 0.0
O265 O 0.19504 0.16632 0.66609 0.0
Co266 Co 0.37372 0.77531 0.12919 0.0
O267 O 0.41668 0.80014 0.13257 0.0
O268 O 0.41302 0.74246 0.12429 0.0
C269 C 0.34915 0.80077 0.17689 0.0
O270 O 0.33256 0.74144 0.12592 0.0
Co271 Co 0.30591 0.82007 0.116 0.0
O272 O 0.28291 0.7739 0.12223 0.0
C273 C 0.35521 0.80643 0.05768 0.0
C274 C 0.43259 0.77001 0.12931 0.0
C275 C 0.29899 0.74431 0.12423 0.0
O276 O 0.37214 0.78388 0.07663 0.0
O277 O 0.33067 0.82617 0.06986 0.0
O278 O 0.37021 0.77398 0.1805 0.0
O279 O 0.34644 0.81324 0.1453 0.0
Co280 Co 0.73815 0.11858 0.33713 0.0
O281 O 0.72934 0.06934 0.34322 0.0
O282 O 0.78151 0.09446 0.34643 0.0
C283 C 0.70593 0.12643 0.28844 0.0
O284 O 0.75757 0.16781 0.33092 0.0
Co285 Co 0.67796 0.174 0.34241 0.0
O286 O 0.71422 0.20827 0.32819 0.0
C287 C 0.70281 0.13694 0.40597 0.0
C288 C 0.76278 0.06605 0.34797 0.0
C289 C 0.7464 0.19962 0.3265 0.0
O290 O 0.73003 0.12623 0.38905 0.0
O291 O 0.67737 0.15323 0.39109 0.0
O292 O 0.73733 0.11335 0.28594 0.0
O293 O 0.69403 0.13068 0.32012 0.0
Co294 Co 0.34969 0.27366 0.88141 0.0
O295 O 0.35529 0.28242 0.93099 0.0
O296 O 0.35573 0.22944 0.90563 0.0
C297 C 0.30328 0.30913 0.87319 0.0
O298 O 0.34314 0.25359 0.83232 0.0
Co299 Co 0.3596 0.33182 0.82528 0.0
O300 O 0.34084 0.29651 0.79152 0.0
C301 C 0.42136 0.30016 0.85895 0.0
C302 C 0.35706 0.24825 0.9343 0.0
C303 C 0.33821 0.26418 0.80046 0.0
O304 O 0.40136 0.27757 0.87397 0.0
O305 O 0.40968 0.3259 0.84033 0.0
O306 O 0.29953 0.27771 0.88631 0.0
O307 O 0.33517 0.31952 0.86877 0.0
Co308 Co 0.23205 0.85815 0.33979 0.0
O309 O 0.2442 0.90464 0.35476 0.0
O310 O 0.19001 0.88568 0.34722 0.0
C311 C 0.26994 0.85408 0.29479 0.0
O312 O 0.20995 0.8125 0.32241 0.0
Co313 Co 0.28723 0.79711 0.34377 0.0
O314 O 0.25251 0.77144 0.31547 0.0
C315 C 0.25646 0.82672 0.40879 0.0
C316 C 0.21093 0.9113 0.35539 0.0
C317 C 0.22118 0.78221 0.31146 0.0
O318 O 0.23258 0.84264 0.39082 0.0
O319 O 0.28194 0.80978 0.39464 0.0
O320 O 0.24041 0.8707 0.29058 0.0
O321 O 0.27699 0.84427 0.32666 0.0
Co322 Co 0.64752 0.71581 0.88373 0.0
O323 O 0.64054 0.7047 0.93273 0.0
O324 O 0.64402 0.75887 0.91062 0.0
C325 C 0.69165 0.67788 0.87369 0.0
O326 O 0.65593 0.73769 0.83548 0.0
Co327 Co 0.63362 0.66083 0.82522 0.0
O328 O 0.65424 0.69639 0.79289 0.0
C329 C 0.57424 0.69652 0.85942 0.0
C330 C 0.64077 0.73861 0.93813 0.0
C331 C 0.65943 0.72802 0.80305 0.0
O332 O 0.5959 0.7163 0.87577 0.0
O333 O 0.58384 0.67059 0.83982 0.0
O334 O 0.69717 0.70813 0.88872 0.0
O335 O 0.65919 0.66975 0.86872 0.0
C336 C 0.14746 0.49161 0.19489 0.0
C337 C 0.15718 0.51878 0.21794 0.0
H338 H 0.13679 0.43661 0.18896 0.0
C339 C 0.1645 0.51081 0.25343 0.0
H340 H 0.14158 0.49711 0.16744 0.0
C341 C 0.16215 0.47618 0.26571 0.0
C342 C 0.15185 0.44905 0.24283 0.0
H343 H 0.17215 0.53133 0.27173 0.0
H344 H 0.16793 0.47075 0.29319 0.0
C345 C 0.14452 0.45708 0.2073 0.0
C346 C 0.98768 0.65087 0.80866 0.0
C347 C 0.96349 0.63616 0.78507 0.0
H348 H 0.04007 0.66882 0.81639 0.0
C349 C 0.97452 0.62747 0.75065 0.0
H350 H 0.98001 0.65789 0.83534 0.0
C351 C 0.00854 0.63432 0.73971 0.0
C352 C 0.03252 0.64953 0.76304 0.0
H353 H 0.9566 0.61629 0.73167 0.0
H354 H 0.01602 0.62772 0.71286 0.0
C355 C 0.022 0.65724 0.79781 0.0
C356 C 0.8642 0.48106 0.24884 0.0
C357 C 0.84713 0.46512 0.2776 0.0
H358 H 0.88389 0.529 0.22659 0.0
C359 C 0.83858 0.48566 0.30728 0.0
H360 H 0.87137 0.46581 0.22566 0.0
C361 C 0.84597 0.52149 0.30793 0.0
C362 C 0.86193 0.53787 0.2788 0.0
H363 H 0.82588 0.47418 0.33011 0.0
H364 H 0.83846 0.53643 0.33121 0.0
C365 C 0.87146 0.51721 0.24939 0.0
C366 C 0.0243 0.361 0.74099 0.0
C367 C 0.03231 0.35189 0.77611 0.0
H368 H 0.9859 0.36201 0.70007 0.0
C369 C 0.0061 0.33724 0.79747 0.0
H370 H 0.04393 0.37203 0.72366 0.0
C371 C 0.97264 0.33176 0.78389 0.0
C372 C 0.96502 0.34019 0.74856 0.0
H373 H 0.01147 0.32985 0.82458 0.0
H374 H 0.9529 0.32047 0.80091 0.0
C375 C 0.99113 0.35493 0.7273 0.0
C376 C 0.14277 0.4875 0.70686 0.0
C377 C 0.12888 0.4781 0.73986 0.0
H378 H 0.15843 0.52961 0.67273 0.0
C379 C 0.11693 0.50477 0.7628 0.0
H380 H 0.15226 0.46743 0.68872 0.0
C381 C 0.12032 0.54025 0.75371 0.0
C382 C 0.13613 0.54986 0.72161 0.0
H383 H 0.10591 0.49826 0.78835 0.0
H384 H 0.11165 0.5601 0.77249 0.0
C385 C 0.14654 0.5231 0.69787 0.0
C386 C 0.00448 0.60066 0.21639 0.0
C387 C 0.97805 0.61906 0.19842 0.0
H388 H 0.05872 0.58833 0.21981 0.0
C389 C 0.98604 0.63626 0.16659 0.0
H390 H -0.00112 0.58698 0.24088 0.0
C391 C 0.02067 0.63773 0.1547 0.0
C392 C 0.04764 0.62156 0.17426 0.0
H393 H 0.96605 0.65077 0.15234 0.0
H394 H 0.02648 0.65303 0.13127 0.0
C395 C 0.03883 0.60156 0.20427 0.0
C396 C 0.88193 0.48718 0.7516 0.0
C397 C 0.86916 0.51535 0.7312 0.0
H398 H 0.88915 0.43148 0.75616 0.0
C399 C 0.85595 0.50854 0.6973 0.0
H400 H 0.89251 0.49173 0.77772 0.0
C401 C 0.85349 0.47377 0.68499 0.0
C402 C 0.86464 0.44535 0.70623 0.0
H403 H 0.84589 0.52986 0.68106 0.0
H404 H 0.84188 0.46912 0.65936 0.0
C405 C 0.87996 0.4526 0.73916 0.0
C406 C 0.96804 0.39025 0.2457 0.0
C407 C 0.94873 0.36787 0.22393 0.0
H408 H 0.01853 0.40588 0.26278 0.0
C409 C 0.96593 0.34773 0.19786 0.0
H410 H 0.95519 0.40639 0.26562 0.0
C411 C 0.00256 0.34715 0.19638 0.0
C412 C 0.02184 0.36694 0.22082 0.0
H413 H 0.95132 0.33026 0.18083 0.0
H414 H 0.01563 0.32902 0.17846 0.0
C415 C 0.00424 0.39001 0.24397 0.0
C416 C 0.20379 0.12768 0.5249 0.0
C417 C 0.23456 0.14101 0.5396 0.0
H418 H 0.1769 0.11223 0.47837 0.0
C419 C 0.26381 0.14613 0.51775 0.0
H420 H 0.18099 0.12269 0.54107 0.0
C421 C 0.26144 0.13984 0.48128 0.0
C422 C 0.22981 0.12844 0.46662 0.0
H423 H 0.28796 0.15605 0.52858 0.0
H424 H 0.28362 0.14549 0.46447 0.0
C425 C 0.20146 0.12147 0.48891 0.0
C426 C 0.37565 0.7775 0.96412 0.0
C427 C 0.36176 0.80602 0.94474 0.0
H428 H 0.38496 0.75538 0.01543 0.0
C429 C 0.34979 0.83614 0.96303 0.0
H430 H 0.38544 0.75407 0.95081 0.0
C431 C 0.34962 0.83691 -0.00023 0.0
C432 C 0.36153 0.80766 0.01922 0.0
H433 H 0.33948 0.8589 0.94906 0.0
H434 H 0.33902 0.86007 0.01294 0.0
C435 C 0.37561 0.77835 0.00111 0.0
C436 C 0.74873 0.84285 0.48307 0.0
C437 C 0.78116 0.85311 0.46911 0.0
H438 H 0.71929 0.83105 0.53003 0.0
C439 C 0.80824 0.86179 0.49228 0.0
H440 H 0.72741 0.836 0.46569 0.0
C441 C 0.80366 0.85896 0.52856 0.0
C442 C 0.77188 0.84731 0.54272 0.0
H443 H 0.83342 0.87014 0.48241 0.0
H444 H 0.82548 0.86535 0.54548 0.0
C445 C 0.74411 0.83994 0.51976 0.0
C446 C 0.68587 0.2099 -0.00396 0.0
C447 C 0.65705 0.22147 0.01607 0.0
H448 H 0.70718 0.2007 0.94482 0.0
C449 C 0.62811 0.23649 -0.00137 0.0
H450 H 0.70898 0.19901 0.00856 0.0
C451 C 0.62724 0.23768 0.96163 0.0
C452 C 0.65522 0.22371 0.94186 0.0
H453 H 0.60566 0.24595 0.01342 0.0
H454 H 0.60409 0.24779 0.94858 0.0
C455 C 0.68492 0.21093 0.95943 0.0
C456 C 0.243 0.85935 0.46519 0.0
C457 C 0.25642 0.82937 0.44763 0.0
H458 H 0.23956 0.88788 0.51427 0.0
C459 C 0.27412 0.80339 0.46714 0.0
H460 H 0.22935 0.87986 0.45064 0.0
C461 C 0.28018 0.80805 0.50295 0.0
C462 C 0.26874 0.83888 0.52039 0.0
H463 H 0.28432 0.77976 0.45447 0.0
H464 H 0.29451 0.78752 0.51679 0.0
C465 C 0.24912 0.86409 0.50144 0.0
C466 C 0.63399 0.7437 0.03728 0.0
C467 C 0.64991 0.7763 0.04424 0.0
H468 H 0.61872 0.70618 -0.00193 0.0
C469 C 0.65955 0.79795 0.01576 0.0
H470 H 0.62617 0.72639 0.05862 0.0
C471 C 0.65469 0.78653 0.98101 0.0
C472 C 0.64071 0.75304 0.97423 0.0
H473 H 0.67159 0.82333 0.02031 0.0
H474 H 0.66342 0.80321 0.95954 0.0
C475 C 0.62974 0.73205 0.00261 0.0
C476 C 0.72934 0.11804 0.50064 0.0
C477 C 0.69942 0.12952 0.51901 0.0
H478 H 0.75406 0.11149 0.45018 0.0
C479 C 0.66976 0.13998 0.49979 0.0
H480 H 0.75257 0.10977 0.51477 0.0
C481 C 0.67062 0.14113 0.4631 0.0
C482 C 0.70117 0.13183 0.44464 0.0
H483 H 0.64606 0.14845 0.51313 0.0
H484 H 0.64751 0.15033 0.44932 0.0
C485 C 0.73023 0.11922 0.46368 0.0
C486 C 0.33975 0.18366 0.00808 0.0
C487 C 0.34886 0.20384 0.03774 0.0
H488 H 0.33607 0.18177 0.95161 0.0
C489 C 0.36349 0.23747 0.0327 0.0
H490 H 0.32871 0.1576 0.01115 0.0
C491 C 0.36731 0.25134 -0.0011 0.0
C492 C 0.35719 0.23168 0.96937 0.0
H493 H 0.37092 0.25376 0.05494 0.0
H494 H 0.3775 0.27779 -0.00406 0.0
C495 C 0.3442 0.19738 0.97408 0.0
C496 C 0.50805 0.20406 0.10356 0.0
C497 C 0.52587 0.2337 0.1161 0.0
H498 H 0.46053 0.17536 0.10275 0.0
C499 C 0.50725 0.26002 0.13469 0.0
H500 H 0.52161 0.18353 0.08883 0.0
C501 C 0.4718 0.25527 0.14278 0.0
C502 C 0.45498 0.22404 0.13262 0.0
H503 H 0.52049 0.28304 0.14485 0.0
H504 H 0.45815 0.27504 0.15839 0.0
C505 C 0.47311 0.19919 0.11188 0.0
C506 C 0.51091 0.68509 0.84631 0.0
C507 C 0.53686 0.70665 0.86097 0.0
H508 H 0.45697 0.68067 0.83184 0.0
C509 C 0.5272 0.7398 0.87493 0.0
H510 H 0.51746 0.65935 0.83552 0.0
C511 C 0.49295 0.75206 0.8723 0.0
C512 C 0.46742 0.73123 0.85631 0.0
H513 H 0.54635 0.75711 0.88662 0.0
H514 H 0.48662 0.77826 0.88211 0.0
C515 C 0.47632 0.6972 0.8443 0.0
C516 C 0.82565 0.98924 0.34193 0.0
C517 C 0.80484 0.96167 0.35478 0.0
H518 H 0.82866 0.04459 0.33037 0.0
C519 C 0.77162 0.9696 0.3687 0.0
H520 H 0.85142 0.98391 0.33124 0.0
C521 C 0.75851 0.00394 0.36759 0.0
C522 C 0.77863 0.03112 0.35327 0.0
H523 H 0.75489 0.94901 0.37885 0.0
H524 H 0.73224 0.00905 0.37709 0.0
C525 C 0.81272 0.02388 0.34153 0.0
C526 C 0.47251 0.2637 0.87815 0.0
C527 C 0.45955 0.29403 0.86099 0.0
H528 H 0.51654 0.23012 0.88788 0.0
C529 C 0.4832 0.31638 0.84357 0.0
H530 H 0.45526 0.24606 0.89224 0.0
C531 C 0.51868 0.30731 0.84152 0.0
C532 C 0.53086 0.27561 0.8565 0.0
H533 H 0.47415 0.3401 0.83032 0.0
H534 H 0.53611 0.32404 0.82657 0.0
C535 C 0.50769 0.25449 0.8757 0.0
C536 C 0.21917 0.97081 0.38087 0.0
C537 C 0.19839 0.94752 0.3615 0.0
H538 H 0.22991 0.0243 0.39409 0.0
C539 C 0.16883 0.96052 0.34379 0.0
H540 H 0.24188 0.96125 0.3951 0.0
C541 C 0.16217 -0.00311 0.34264 0.0
C542 C 0.18479 0.02057 0.35957 0.0
H543 H 0.15243 0.94294 0.32867 0.0
H544 H 0.14049 0.00649 0.32692 0.0
C545 C 0.21227 0.00696 0.38019 0.0
C546 C 0.52471 0.79986 0.14471 0.0
C547 C 0.54336 0.76798 0.14829 0.0
H548 H 0.47597 0.82528 0.13532 0.0
C549 C 0.52544 0.7359 0.14432 0.0
H550 H 0.53753 0.8251 0.14743 0.0
C551 C 0.48938 0.736 0.13717 0.0
C552 C 0.47094 0.76817 0.13389 0.0
H553 H 0.53921 0.71091 0.14668 0.0
H554 H 0.47593 0.71108 0.13471 0.0
C555 C 0.48919 0.79995 0.13757 0.0
C556 C 0.79224 0.97581 0.65826 0.0
C557 C 0.76802 0.949 0.65152 0.0
H558 H 0.80374 0.03101 0.65467 0.0
C559 C 0.73664 0.95773 0.63425 0.0
H560 H 0.81677 0.96982 0.6712 0.0
C561 C 0.72903 0.99273 0.62519 0.0
C562 C 0.75299 0.01959 0.63243 0.0
H563 H 0.71746 0.93765 0.62863 0.0
H564 H 0.70414 -0.00114 0.61301 0.0
C565 C 0.78495 0.01074 0.64844 0.0
C566 C 0.20212 0.01838 0.65449 0.0
C567 C 0.22635 0.04454 0.64541 0.0
H568 H 0.18923 0.96345 0.65282 0.0
C569 C 0.25562 0.03498 0.62488 0.0
H570 H 0.17907 0.02496 0.66987 0.0
C571 C 0.26147 -0.0002 0.61524 0.0
C572 C 0.23789 0.9735 0.62537 0.0
H573 H 0.27469 0.05448 0.61716 0.0
H574 H 0.28502 0.99304 0.60074 0.0
C575 C 0.2077 0.98323 0.64432 0.0
C576 C 0.16181 0.27369 0.32806 0.0
C577 C 0.13356 0.26926 0.30507 0.0
H578 H 0.20028 0.24832 0.36031 0.0
C579 C 0.12104 0.23511 0.29842 0.0
H580 H 0.17198 0.2997 0.3336 0.0
C581 C 0.13717 0.20574 0.31367 0.0
C582 C 0.16617 0.21006 0.33567 0.0
H583 H 0.09921 0.23096 0.28081 0.0
H584 H 0.12732 0.17968 0.30769 0.0
C585 C 0.17811 0.24426 0.34313 0.0
C586 C 0.23963 0.74267 0.80957 0.0
C587 C 0.27558 0.73556 0.8065 0.0
H588 H 0.18796 0.72845 0.79384 0.0
C589 C 0.28676 0.70586 0.78711 0.0
H590 H 0.23027 0.76533 0.82444 0.0
C591 C 0.26259 0.68511 0.76915 0.0
C592 C 0.22675 0.69317 0.77095 0.0
H593 H 0.31431 0.69984 0.78413 0.0
H594 H 0.27202 0.66348 0.75286 0.0
C595 C 0.2154 0.72142 0.79227 0.0
C596 C 0.8895 0.75556 0.28615 0.0
C597 C 0.88823 0.72138 0.30056 0.0
H598 H 0.87478 0.81006 0.29262 0.0
C599 C 0.87446 0.71661 0.33461 0.0
H600 H 0.90015 0.75993 0.25999 0.0
C601 C 0.85965 0.74488 0.35279 0.0
C602 C 0.8589 0.77859 0.33759 0.0
H603 H 0.87363 0.69068 0.34667 0.0
H604 H 0.84778 0.74012 0.37835 0.0
C605 C 0.87506 0.78416 0.30475 0.0
C606 C 0.78039 0.28784 0.77787 0.0
C607 C 0.7695 0.31007 0.75023 0.0
H608 H 0.76515 0.25133 0.81797 0.0
C609 C 0.73353 0.31548 0.74465 0.0
H610 H 0.80785 0.28302 0.78285 0.0
C611 C 0.70899 0.29767 0.76531 0.0
C612 C 0.72013 0.27371 0.79131 0.0
H613 H 0.72437 0.33259 0.72363 0.0
H614 H 0.68147 0.30103 0.75959 0.0
C615 C 0.75596 0.2696 0.79795 0.0
C616 C 0.18789 0.79032 0.67706 0.0
C617 C 0.21565 0.77803 0.65599 0.0
H618 H 0.1415 0.77683 0.70554 0.0
C619 C 0.21576 0.74284 0.64424 0.0
H620 H 0.18711 0.81744 0.68624 0.0
C621 C 0.18929 0.71995 0.65439 0.0
C622 C 0.16267 0.73152 0.67729 0.0
H623 H 0.2365 0.73288 0.62734 0.0
H624 H 0.19055 0.69281 0.6454 0.0
C625 C 0.16175 0.76714 0.68793 0.0
C626 C 0.72903 0.70147 0.21242 0.0
C627 C 0.73793 0.71739 0.18023 0.0
H628 H 0.74731 0.67296 0.25766 0.0
C629 C 0.77178 0.71242 0.16657 0.0
H630 H 0.70326 0.70529 0.22372 0.0
C631 C 0.79698 0.69384 0.18583 0.0
C632 C 0.78897 0.68045 0.21944 0.0
H633 H 0.77928 0.72453 0.14178 0.0
H634 H 0.82326 0.69193 0.17532 0.0
C635 C 0.75441 0.68336 0.232 0.0
C636 C 0.8101 0.20455 0.65764 0.0
C637 C 0.78081 0.21698 0.63903 0.0
H638 H 0.85807 0.21774 0.68308 0.0
C639 C 0.77991 0.25242 0.62787 0.0
H640 H 0.81165 0.17734 0.66644 0.0
C641 C 0.80691 0.27538 0.63669 0.0
C642 C 0.83487 0.26359 0.65764 0.0
H643 H 0.75793 0.26262 0.61295 0.0
H644 H 0.80488 0.30274 0.62861 0.0
C645 C 0.83672 0.22769 0.6671 0.0
C646 C 0.24816 0.30055 0.21144 0.0
C647 C 0.21201 0.29566 0.20767 0.0
H648 H 0.2995 0.2819 0.19893 0.0
C649 C 0.19997 0.26921 0.18494 0.0
H650 H 0.25815 0.32097 0.22864 0.0
C651 C 0.22376 0.24651 0.16813 0.0
C652 C 0.25994 0.25021 0.17347 0.0
H653 H 0.17227 0.2648 0.18173 0.0
H654 H 0.21372 0.22537 0.15188 0.0
C655 C 0.27188 0.2782 0.19437 0.0
C656 C 0.32355 0.15742 0.25472 0.0
C657 C 0.31951 0.14954 0.21865 0.0
H658 H 0.30049 0.15709 0.30631 0.0
C659 C 0.28967 0.13142 0.20763 0.0
H660 H 0.34642 0.17119 0.26404 0.0
C661 C 0.26312 0.12386 0.23175 0.0
C662 C 0.26619 0.1337 0.26746 0.0
H663 H 0.28593 0.12469 0.1801 0.0
H664 H 0.23973 0.11118 0.22218 0.0
C665 C 0.29723 0.14938 0.27895 0.0
C666 C 0.36479 0.81055 0.724 0.0
C667 C 0.35963 0.82349 0.75841 0.0
H668 H 0.3514 0.8154 0.66935 0.0
C669 C 0.33835 0.85346 0.76364 0.0
H670 H 0.38126 0.78762 0.71921 0.0
C671 C 0.32085 0.86893 0.7353 0.0
C672 C 0.32477 0.8551 0.70114 0.0
H673 H 0.33418 0.86431 0.78981 0.0
H674 H 0.30368 0.89129 0.74029 0.0
C675 C 0.34768 0.82643 0.6955 0.0
C676 C 0.74952 0.8457 0.23511 0.0
C677 C 0.74807 0.83567 0.27087 0.0
H678 H 0.72406 0.84608 0.1849 0.0
C679 C 0.71798 0.8189 0.28356 0.0
H680 H 0.77212 0.8591 0.22454 0.0
C681 C 0.69046 0.81127 0.26068 0.0
C682 C 0.69233 0.82061 0.22478 0.0
H683 H 0.71599 0.81095 0.31098 0.0
H684 H 0.66804 0.79739 0.271 0.0
C685 C 0.72185 0.83848 0.21238 0.0
C686 C 0.67977 0.1365 0.73905 0.0
C687 C 0.67382 0.14734 0.70417 0.0
H688 H 0.66722 0.14393 0.79349 0.0
C689 C 0.64869 0.1737 0.69733 0.0
H690 H 0.69864 0.11586 0.74494 0.0
C691 C 0.63102 0.19021 0.72518 0.0
C692 C 0.63787 0.1802 0.7602 0.0
H693 H 0.64342 0.18235 0.67059 0.0
H694 H 0.61271 0.21137 0.71934 0.0
C695 C 0.66168 0.15253 0.76681 0.0
C696 C 0.81222 0.7309 0.6813 0.0
C697 C 0.81437 0.76664 0.69105 0.0
H698 H 0.81864 0.67702 0.69687 0.0
C699 C 0.82582 0.77533 0.72511 0.0
H700 H 0.80343 0.7234 0.65519 0.0
C701 C 0.83412 0.74861 0.7493 0.0
C702 C 0.83152 0.71278 0.73964 0.0
H703 H 0.82756 0.80265 0.73337 0.0
H704 H 0.84258 0.75607 0.77553 0.0
C705 C 0.82084 0.70428 0.70524 0.0
C706 C 0.69724 0.30832 0.18801 0.0
C707 C 0.71233 0.2887 0.16043 0.0
H708 H 0.70641 0.34271 0.23181 0.0
C709 C 0.74754 0.29388 0.15169 0.0
H710 H 0.67012 0.30469 0.19521 0.0
C711 C 0.76826 0.31575 0.1723 0.0
C712 C 0.7542 0.33235 0.20239 0.0
H713 H 0.75961 0.27924 0.1302 0.0
H714 H 0.79584 0.31729 0.16622 0.0
C715 C 0.71811 0.32989 0.20902 0.0
C716 C 0.18064 0.28905 0.70213 0.0
C717 C 0.16658 0.27949 0.73502 0.0
H718 H 0.20186 0.27122 0.65284 0.0
C719 C 0.16183 0.24344 0.74264 0.0
H720 H 0.18456 0.31655 0.69542 0.0
C721 C 0.17123 0.21752 0.71805 0.0
C722 C 0.18601 0.22709 0.68555 0.0
H723 H 0.15073 0.23515 0.76761 0.0
H724 H 0.1676 0.19001 0.72484 0.0
C725 C 0.19045 0.26308 0.67772 0.0
C726 C 0.26503 0.6552 0.1523 0.0
C727 C 0.23032 0.6571 0.14026 0.0
H728 H 0.31437 0.68123 0.15625 0.0
C729 C 0.22011 0.68553 0.1188 0.0
H730 H 0.27373 0.63339 0.16869 0.0
C731 C 0.24322 0.71304 0.1121 0.0
C732 C 0.27718 0.71237 0.12622 0.0
H733 H 0.1937 0.68762 0.10886 0.0
H734 H 0.23404 0.73552 0.09692 0.0
C735 C 0.28836 0.68251 0.14514 0.0
C736 C 0.82454 0.24519 0.28716 0.0
C737 C 0.81813 0.28049 0.29678 0.0
H738 H 0.80691 0.19172 0.28953 0.0
C739 C 0.78926 0.28863 0.31835 0.0
H740 H 0.84666 0.23817 0.27063 0.0
C741 C 0.76607 0.26223 0.32839 0.0
C742 C 0.77195 0.22711 0.31791 0.0
H743 H 0.78377 0.31554 0.32643 0.0
H744 H 0.7434 0.26933 0.34411 0.0
C745 C 0.80183 0.21864 0.29797 0.0
C746 C 0.20978 0.33582 0.85525 0.0
C747 C 0.21422 0.3637 0.83135 0.0
H748 H 0.2348 0.29649 0.88717 0.0
C749 C 0.2481 0.37564 0.82387 0.0
H750 H 0.18399 0.32614 0.86152 0.0
C751 C 0.27716 0.35889 0.83869 0.0
C752 C 0.27282 0.32968 0.86094 0.0
H753 H 0.25224 0.39731 0.80569 0.0
H754 H 0.30297 0.36796 0.8316 0.0
C755 C 0.23889 0.31879 0.86976 0.0
C756 C 0.20011 0.7231 0.2941 0.0
C757 C 0.19843 0.75986 0.28995 0.0
H758 H 0.18904 0.67267 0.272 0.0
C759 C 0.1805 0.77425 0.26095 0.0
H760 H 0.21398 0.71148 0.31622 0.0
C761 C 0.16684 0.75201 0.23495 0.0
C762 C 0.17047 0.71511 0.238 0.0
H763 H 0.17937 0.80259 0.25702 0.0
H764 H 0.1548 0.76372 0.21184 0.0
C765 C 0.18595 0.70094 0.26861 0.0
C766 C 0.78387 0.64668 0.85694 0.0
C767 C 0.77925 0.62298 0.8289 0.0
H768 H 0.75948 0.68264 0.89308 0.0
C769 C 0.7452 0.61469 0.81803 0.0
H770 H 0.80975 0.65342 0.86601 0.0
C771 C 0.71631 0.63117 0.83378 0.0
C772 C 0.72113 0.6565 0.86032 0.0
H773 H 0.74089 0.59627 0.79659 0.0
H774 H 0.69043 0.62527 0.82411 0.0
C775 C 0.75506 0.66345 0.87235 0.0
C776 C 0.69659 0.81212 0.76543 0.0
C777 C 0.70549 0.80172 0.73093 0.0
H778 H 0.67478 0.79726 0.81508 0.0
C779 C 0.69483 0.76855 0.71862 0.0
H780 H 0.70458 0.83759 0.77553 0.0
C781 C 0.6782 0.74498 0.74155 0.0
C782 C 0.6718 0.7544 0.77702 0.0
H783 H 0.70184 0.75973 0.69228 0.0
H784 H 0.67206 0.7188 0.73196 0.0
C785 C 0.67977 0.78882 0.78817 0.0
C786 C 0.70074 0.13594 0.22337 0.0
C787 C 0.68709 0.14031 0.25758 0.0
H788 H 0.69539 0.14838 0.16845 0.0
C789 C 0.656 0.15964 0.26236 0.0
H790 H 0.7246 0.121 0.21896 0.0
C791 C 0.63957 0.17554 0.23364 0.0
C792 C 0.65371 0.17206 0.19958 0.0
H793 H 0.64475 0.16326 0.28841 0.0
H794 H 0.61603 0.19096 0.23822 0.0
C795 C 0.68404 0.15157 0.19451 0.0
C796 C 0.30161 0.18026 0.76235 0.0
C797 C 0.29285 0.19087 0.72799 0.0
H798 H 0.32339 0.19481 0.81194 0.0
C799 C 0.30359 0.22408 0.7158 0.0
H800 H 0.29349 0.15478 0.77231 0.0
C801 C 0.32015 0.24755 0.73878 0.0
C802 C 0.32651 0.2379 0.77412 0.0
H803 H 0.29664 0.23301 0.68952 0.0
H804 H 0.32625 0.27381 0.7294 0.0
C805 C 0.31854 0.20339 0.78508 0.0
C806 C 0.31919 0.81861 0.27003 0.0
C807 C 0.29113 0.84208 0.26459 0.0
H808 H 0.35927 0.78686 0.24637 0.0
C809 C 0.28267 0.85255 0.23005 0.0
H810 H 0.32638 0.81012 0.29636 0.0
C811 C 0.3018 0.83945 0.20137 0.0
C812 C 0.32935 0.81539 0.20686 0.0
H813 H 0.26112 0.87061 0.22515 0.0
H814 H 0.29468 0.84774 0.17495 0.0
C815 C 0.33797 0.8052 0.24141 0.0
loop_
_geom_bond_atom_site_label_1
_geom_bond_atom_site_label_2
_geom_bond_distance
_geom_bond_site_symmetry_2
_ccdc_geom_bond_type
Co0 O1 2.216 . S
Co0 O2 2.091 . S
Co0 O4 2.004 . S
Co0 O10 2.021 . S
Co0 O12 2.137 . S
Co0 O13 2.244 . S
O1 Co0 2.216 . S
O1 C8 1.247 . S
O2 Co0 2.091 . S
O2 C8 1.261 . S
C3 O12 1.247 . S
C3 O13 1.272 . S
O4 Co0 2.004 . S
O4 C9 1.259 . S
Co5 O6 2.061 . S
Co5 O11 2.052 . S
Co5 O13 2.135 . S
O6 Co5 2.061 . S
O6 C9 1.235 . S
C7 O10 1.238 . S
C7 O11 1.241 . S
C8 O1 1.247 . S
C8 O2 1.261 . S
C9 O4 1.259 . S
C9 O6 1.235 . S
O10 Co0 2.021 . S
O10 C7 1.238 . S
O11 Co5 2.052 . S
O11 C7 1.241 . S
O12 Co0 2.137 . S
O12 C3 1.247 . S
O13 Co0 2.244 . S
O13 C3 1.272 . S
O13 Co5 2.135 . S
Co14 O15 2.216 . S
Co14 O16 2.091 . S
Co14 O18 2.004 . S
Co14 O24 2.021 . S
Co14 O26 2.137 . S
Co14 O27 2.244 . S
O15 Co14 2.216 . S
O15 C22 1.247 . S
O16 Co14 2.091 . S
O16 C22 1.261 . S
C17 O26 1.247 . S
C17 O27 1.272 . S
O18 Co14 2.004 . S
O18 C23 1.259 . S
Co19 O20 2.061 . S
Co19 O25 2.052 . S
Co19 O27 2.135 . S
O20 Co19 2.061 . S
O20 C23 1.235 . S
C21 O24 1.238 . S
C21 O25 1.241 . S
C22 O15 1.247 . S
C22 O16 1.261 . S
C23 O18 1.259 . S
C23 O20 1.235 . S
O24 Co14 2.021 . S
O24 C21 1.238 . S
O25 Co19 2.052 . S
O25 C21 1.241 . S
O26 Co14 2.137 . S
O26 C17 1.247 . S
O27 Co14 2.244 . S
O27 C17 1.272 . S
O27 Co19 2.135 . S
Co28 O29 2.216 . S
Co28 O30 2.091 . S
Co28 O32 2.004 . S
Co28 O38 2.021 . S
Co28 O40 2.137 . S
Co28 O41 2.244 . S
O29 Co28 2.216 . S
O29 C36 1.247 . S
O30 Co28 2.091 . S
O30 C36 1.261 . S
C31 O40 1.247 . S
C31 O41 1.272 . S
O32 Co28 2.004 . S
O32 C37 1.259 . S
Co33 O34 2.061 . S
Co33 O39 2.052 . S
Co33 O41 2.135 . S
O34 Co33 2.061 . S
O34 C37 1.235 . S
C35 O38 1.238 . S
C35 O39 1.241 . S
C36 O29 1.247 . S
C36 O30 1.261 . S
C37 O32 1.259 . S
C37 O34 1.235 . S
O38 Co28 2.021 . S
O38 C35 1.238 . S
O39 Co33 2.052 . S
O39 C35 1.241 . S
O40 Co28 2.137 . S
O40 C31 1.247 . S
O41 Co28 2.244 . S
O41 C31 1.272 . S
O41 Co33 2.135 . S
Co42 O43 2.216 . S
Co42 O44 2.091 . S
Co42 O46 2.004 . S
Co42 O52 2.021 . S
Co42 O54 2.137 . S
Co42 O55 2.244 . S
O43 Co42 2.216 . S
O43 C50 1.247 . S
O44 Co42 2.091 . S
O44 C50 1.261 . S
C45 O54 1.247 . S
C45 O55 1.272 . S
O46 Co42 2.004 . S
O46 C51 1.259 . S
Co47 O48 2.061 . S
Co47 O53 2.052 . S
Co47 O55 2.135 . S
O48 Co47 2.061 . S
O48 C51 1.235 . S
C49 O52 1.238 . S
C49 O53 1.241 . S
C50 O43 1.247 . S
C50 O44 1.261 . S
C51 O46 1.259 . S
C51 O48 1.235 . S
O52 Co42 2.021 . S
O52 C49 1.238 . S
O53 Co47 2.052 . S
O53 C49 1.241 . S
O54 Co42 2.137 . S
O54 C45 1.247 . S
O55 Co42 2.244 . S
O55 C45 1.272 . S
O55 Co47 2.135 . S
Co56 O57 2.216 . S
Co56 O58 2.091 . S
Co56 O60 2.004 . S
Co56 O66 2.021 . S
Co56 O68 2.137 . S
Co56 O69 2.244 . S
O57 Co56 2.216 . S
O57 C64 1.247 . S
O58 Co56 2.091 . S
O58 C64 1.261 . S
C59 O68 1.247 . S
C59 O69 1.272 . S
O60 Co56 2.004 . S
O60 C65 1.259 . S
Co61 O62 2.061 . S
Co61 O67 2.052 . S
Co61 O69 2.135 . S
O62 Co61 2.061 . S
O62 C65 1.235 . S
C63 O66 1.238 . S
C63 O67 1.241 . S
C64 O57 1.247 . S
C64 O58 1.261 . S
C65 O60 1.259 . S
C65 O62 1.235 . S
O66 Co56 2.021 . S
O66 C63 1.238 . S
O67 Co61 2.052 . S
O67 C63 1.241 . S
O68 Co56 2.137 . S
O68 C59 1.247 . S
O69 Co56 2.244 . S
O69 C59 1.272 . S
O69 Co61 2.135 . S
Co70 O71 2.216 . S
Co70 O72 2.091 . S
Co70 O74 2.004 . S
Co70 O80 2.021 . S
Co70 O82 2.137 . S
Co70 O83 2.244 . S
O71 Co70 2.216 . S
O71 C78 1.247 . S
O72 Co70 2.091 . S
O72 C78 1.261 . S
C73 O82 1.247 . S
C73 O83 1.272 . S
O74 Co70 2.004 . S
O74 C79 1.259 . S
Co75 O76 2.061 . S
Co75 O81 2.052 . S
Co75 O83 2.135 . S
O76 Co75 2.061 . S
O76 C79 1.235 . S
C77 O80 1.238 . S
C77 O81 1.241 . S
C78 O71 1.247 . S
C78 O72 1.261 . S
C79 O74 1.259 . S
C79 O76 1.235 . S
O80 Co70 2.021 . S
O80 C77 1.238 . S
O81 Co75 2.052 . S
O81 C77 1.241 . S
O82 Co70 2.137 . S
O82 C73 1.247 . S
O83 Co70 2.244 . S
O83 C73 1.272 . S
O83 Co75 2.135 . S
Co84 O85 2.216 . S
Co84 O86 2.091 . S
Co84 O88 2.004 . S
Co84 O94 2.021 . S
Co84 O96 2.137 . S
Co84 O97 2.244 . S
O85 Co84 2.216 . S
O85 C92 1.247 . S
O86 Co84 2.091 . S
O86 C92 1.261 . S
C87 O96 1.247 . S
C87 O97 1.272 . S
O88 Co84 2.004 . S
O88 C93 1.259 . S
Co89 O90 2.061 . S
Co89 O95 2.052 . S
Co89 O97 2.135 . S
O90 Co89 2.061 . S
O90 C93 1.235 . S
C91 O94 1.238 . S
C91 O95 1.241 . S
C92 O85 1.247 . S
C92 O86 1.261 . S
C93 O88 1.259 . S
C93 O90 1.235 . S
O94 Co84 2.021 . S
O94 C91 1.238 . S
O95 Co89 2.052 . S
O95 C91 1.241 . S
O96 Co84 2.137 . S
O96 C87 1.247 . S
O97 Co84 2.244 . S
O97 C87 1.272 . S
O97 Co89 2.135 . S
Co98 O99 2.216 . S
Co98 O100 2.091 . S
Co98 O102 2.004 . S
Co98 O108 2.021 . S
Co98 O110 2.137 . S
Co98 O111 2.244 . S
O99 Co98 2.216 . S
O99 C106 1.247 . S
O100 Co98 2.091 . S
O100 C106 1.261 . S
C101 O110 1.247 . S
C101 O111 1.272 . S
O102 Co98 2.004 . S
O102 C107 1.259 . S
Co103 O104 2.061 . S
Co103 O109 2.052 . S
Co103 O111 2.135 . S
O104 Co103 2.061 . S
O104 C107 1.235 . S
C105 O108 1.238 . S
C105 O109 1.241 . S
C106 O99 1.247 . S
C106 O100 1.261 . S
C107 O102 1.259 . S
C107 O104 1.235 . S
O108 Co98 2.021 . S
O108 C105 1.238 . S
O109 Co103 2.052 . S
O109 C105 1.241 . S
O110 Co98 2.137 . S
O110 C101 1.247 . S
O111 Co98 2.244 . S
O111 C101 1.272 . S
O111 Co103 2.135 . S
Co112 O113 2.216 . S
Co112 O114 2.091 . S
Co112 O116 2.004 . S
Co112 O122 2.021 . S
Co112 O124 2.137 . S
Co112 O125 2.244 . S
O113 Co112 2.216 . S
O113 C120 1.247 . S
O114 Co112 2.091 . S
O114 C120 1.261 . S
C115 O124 1.247 . S
C115 O125 1.272 . S
O116 Co112 2.004 . S
O116 C121 1.259 . S
Co117 O118 2.061 . S
Co117 O123 2.052 . S
Co117 O125 2.135 . S
O118 Co117 2.061 . S
O118 C121 1.235 . S
C119 O122 1.238 . S
C119 O123 1.241 . S
C120 O113 1.247 . S
C120 O114 1.261 . S
C121 O116 1.259 . S
C121 O118 1.235 . S
O122 Co112 2.021 . S
O122 C119 1.238 . S
O123 Co117 2.052 . S
O123 C119 1.241 . S
O124 Co112 2.137 . S
O124 C115 1.247 . S
O125 Co112 2.244 . S
O125 C115 1.272 . S
O125 Co117 2.135 . S
Co126 O127 2.216 . S
Co126 O128 2.091 . S
Co126 O130 2.004 . S
Co126 O136 2.021 . S
Co126 O138 2.137 . S
Co126 O139 2.244 . S
O127 Co126 2.216 . S
O127 C134 1.247 . S
O128 Co126 2.091 . S
O128 C134 1.261 . S
C129 O138 1.247 . S
C129 O139 1.272 . S
O130 Co126 2.004 . S
O130 C135 1.259 . S
Co131 O132 2.061 . S
Co131 O137 2.052 . S
Co131 O139 2.135 . S
O132 Co131 2.061 . S
O132 C135 1.235 . S
C133 O136 1.238 . S
C133 O137 1.241 . S
C134 O127 1.247 . S
C134 O128 1.261 . S
C135 O130 1.259 . S
C135 O132 1.235 . S
O136 Co126 2.021 . S
O136 C133 1.238 . S
O137 Co131 2.052 . S
O137 C133 1.241 . S
O138 Co126 2.137 . S
O138 C129 1.247 . S
O139 Co126 2.244 . S
O139 C129 1.272 . S
O139 Co131 2.135 . S
Co140 O141 2.216 . S
Co140 O142 2.091 . S
Co140 O144 2.004 . S
Co140 O150 2.021 . S
Co140 O152 2.137 . S
Co140 O153 2.244 . S
O141 Co140 2.216 . S
O141 C148 1.247 . S
O142 Co140 2.091 . S
O142 C148 1.261 . S
C143 O152 1.247 . S
C143 O153 1.272 . S
O144 Co140 2.004 . S
O144 C149 1.259 . S
Co145 O146 2.061 . S
Co145 O151 2.052 . S
Co145 O153 2.135 . S
O146 Co145 2.061 . S
O146 C149 1.235 . S
C147 O150 1.238 . S
C147 O151 1.241 . S
C148 O141 1.247 . S
C148 O142 1.261 . S
C149 O144 1.259 . S
C149 O146 1.235 . S
O150 Co140 2.021 . S
O150 C147 1.238 . S
O151 Co145 2.052 . S
O151 C147 1.241 . S
O152 Co140 2.137 . S
O152 C143 1.247 . S
O153 Co140 2.244 . S
O153 C143 1.272 . S
O153 Co145 2.135 . S
Co154 O155 2.216 . S
Co154 O156 2.091 . S
Co154 O158 2.004 . S
Co154 O164 2.021 . S
Co154 O166 2.137 . S
Co154 O167 2.244 . S
O155 Co154 2.216 . S
O155 C162 1.247 . S
O156 Co154 2.091 . S
O156 C162 1.261 . S
C157 O166 1.247 . S
C157 O167 1.272 . S
O158 Co154 2.004 . S
O158 C163 1.259 . S
Co159 O160 2.061 . S
Co159 O165 2.052 . S
Co159 O167 2.135 . S
O160 Co159 2.061 . S
O160 C163 1.235 . S
C161 O164 1.238 . S
C161 O165 1.241 . S
C162 O155 1.247 . S
C162 O156 1.261 . S
C163 O158 1.259 . S
C163 O160 1.235 . S
O164 Co154 2.021 . S
O164 C161 1.238 . S
O165 Co159 2.052 . S
O165 C161 1.241 . S
O166 Co154 2.137 . S
O166 C157 1.247 . S
O167 Co154 2.244 . S
O167 C157 1.272 . S
O167 Co159 2.135 . S
Co168 O169 2.216 . S
Co168 O170 2.091 . S
Co168 O172 2.004 . S
Co168 O178 2.021 . S
Co168 O180 2.137 . S
Co168 O181 2.244 . S
O169 Co168 2.216 . S
O169 C176 1.247 . S
O170 Co168 2.091 . S
O170 C176 1.261 . S
C171 O180 1.247 . S
C171 O181 1.272 . S
O172 Co168 2.004 . S
O172 C177 1.259 . S
Co173 O174 2.061 . S
Co173 O179 2.052 . S
Co173 O181 2.135 . S
O174 Co173 2.061 . S
O174 C177 1.235 . S
C175 O178 1.238 . S
C175 O179 1.241 . S
C176 O169 1.247 . S
C176 O170 1.261 . S
C177 O172 1.259 . S
C177 O174 1.235 . S
O178 Co168 2.021 . S
O178 C175 1.238 . S
O179 Co173 2.052 . S
O179 C175 1.241 . S
O180 Co168 2.137 . S
O180 C171 1.247 . S
O181 Co168 2.244 . S
O181 C171 1.272 . S
O181 Co173 2.135 . S
Co182 O183 2.216 . S
Co182 O184 2.091 . S
Co182 O186 2.004 . S
Co182 O192 2.021 . S
Co182 O194 2.137 . S
Co182 O195 2.244 . S
O183 Co182 2.216 . S
O183 C190 1.247 . S
O184 Co182 2.091 . S
O184 C190 1.261 . S
C185 O194 1.247 . S
C185 O195 1.272 . S
O186 Co182 2.004 . S
O186 C191 1.259 . S
Co187 O188 2.061 . S
Co187 O193 2.052 . S
Co187 O195 2.135 . S
O188 Co187 2.061 . S
O188 C191 1.235 . S
C189 O192 1.238 . S
C189 O193 1.241 . S
C190 O183 1.247 . S
C190 O184 1.261 . S
C191 O186 1.259 . S
C191 O188 1.235 . S
O192 Co182 2.021 . S
O192 C189 1.238 . S
O193 Co187 2.052 . S
O193 C189 1.241 . S
O194 Co182 2.137 . S
O194 C185 1.247 . S
O195 Co182 2.244 . S
O195 C185 1.272 . S
O195 Co187 2.135 . S
Co196 O197 2.216 . S
Co196 O198 2.091 . S
Co196 O200 2.004 . S
Co196 O206 2.021 . S
Co196 O208 2.137 . S
Co196 O209 2.244 . S
O197 Co196 2.216 . S
O197 C204 1.247 . S
O198 Co196 2.091 . S
O198 C204 1.261 . S
C199 O208 1.247 . S
C199 O209 1.272 . S
O200 Co196 2.004 . S
O200 C205 1.259 . S
Co201 O202 2.061 . S
Co201 O207 2.052 . S
Co201 O209 2.135 . S
O202 Co201 2.061 . S
O202 C205 1.235 . S
C203 O206 1.238 . S
C203 O207 1.241 . S
C204 O197 1.247 . S
C204 O198 1.261 . S
C205 O200 1.259 . S
C205 O202 1.235 . S
O206 Co196 2.021 . S
O206 C203 1.238 . S
O207 Co201 2.052 . S
O207 C203 1.241 . S
O208 Co196 2.137 . S
O208 C199 1.247 . S
O209 Co196 2.244 . S
O209 C199 1.272 . S
O209 Co201 2.135 . S
Co210 O211 2.216 . S
Co210 O212 2.091 . S
Co210 O214 2.004 . S
Co210 O220 2.021 . S
Co210 O222 2.137 . S
Co210 O223 2.244 . S
O211 Co210 2.216 . S
O211 C218 1.247 . S
O212 Co210 2.091 . S
O212 C218 1.261 . S
C213 O222 1.247 . S
C213 O223 1.272 . S
O214 Co210 2.004 . S
O214 C219 1.259 . S
Co215 O216 2.061 . S
Co215 O221 2.052 . S
Co215 O223 2.135 . S
O216 Co215 2.061 . S
O216 C219 1.235 . S
C217 O220 1.238 . S
C217 O221 1.241 . S
C218 O211 1.247 . S
C218 O212 1.261 . S
C219 O214 1.259 . S
C219 O216 1.235 . S
O220 Co210 2.021 . S
O220 C217 1.238 . S
O221 Co215 2.052 . S
O221 C217 1.241 . S
O222 Co210 2.137 . S
O222 C213 1.247 . S
O223 Co210 2.244 . S
O223 C213 1.272 . S
O223 Co215 2.135 . S
Co224 O225 2.216 . S
Co224 O226 2.091 . S
Co224 O228 2.004 . S
Co224 O234 2.021 . S
Co224 O236 2.137 . S
Co224 O237 2.244 . S
O225 Co224 2.216 . S
O225 C232 1.247 . S
O226 Co224 2.091 . S
O226 C232 1.261 . S
C227 O236 1.247 . S
C227 O237 1.272 . S
O228 Co224 2.004 . S
O228 C233 1.259 . S
Co229 O230 2.061 . S
Co229 O235 2.052 . S
Co229 O237 2.135 . S
O230 Co229 2.061 . S
O230 C233 1.235 . S
C231 O234 1.238 . S
C231 O235 1.241 . S
C232 O225 1.247 . S
C232 O226 1.261 . S
C233 O228 1.259 . S
C233 O230 1.235 . S
O234 Co224 2.021 . S
O234 C231 1.238 . S
O235 Co229 2.052 . S
O235 C231 1.241 . S
O236 Co224 2.137 . S
O236 C227 1.247 . S
O237 Co224 2.244 . S
O237 C227 1.272 . S
O237 Co229 2.135 . S
Co238 O239 2.216 . S
Co238 O240 2.091 . S
Co238 O242 2.004 . S
Co238 O248 2.021 . S
Co238 O250 2.137 . S
Co238 O251 2.244 . S
O239 Co238 2.216 . S
O239 C246 1.247 . S
O240 Co238 2.091 . S
O240 C246 1.261 . S
C241 O250 1.247 . S
C241 O251 1.272 . S
O242 Co238 2.004 . S
O242 C247 1.259 . S
Co243 O244 2.061 . S
Co243 O249 2.052 . S
Co243 O251 2.135 . S
O244 Co243 2.061 . S
O244 C247 1.235 . S
C245 O248 1.238 . S
C245 O249 1.241 . S
C246 O239 1.247 . S
C246 O240 1.261 . S
C247 O242 1.259 . S
C247 O244 1.235 . S
O248 Co238 2.021 . S
O248 C245 1.238 . S
O249 Co243 2.052 . S
O249 C245 1.241 . S
O250 Co238 2.137 . S
O250 C241 1.247 . S
O251 Co238 2.244 . S
O251 C241 1.272 . S
O251 Co243 2.135 . S
Co252 O253 2.216 . S
Co252 O254 2.091 . S
Co252 O256 2.004 . S
Co252 O262 2.021 . S
Co252 O264 2.137 . S
Co252 O265 2.244 . S
O253 Co252 2.216 . S
O253 C260 1.247 . S
O254 Co252 2.091 . S
O254 C260 1.261 . S
C255 O264 1.247 . S
C255 O265 1.272 . S
O256 Co252 2.004 . S
O256 C261 1.259 . S
Co257 O258 2.061 . S
Co257 O263 2.052 . S
Co257 O265 2.135 . S
O258 Co257 2.061 . S
O258 C261 1.235 . S
C259 O262 1.238 . S
C259 O263 1.241 . S
C260 O253 1.247 . S
C260 O254 1.261 . S
C261 O256 1.259 . S
C261 O258 1.235 . S
O262 Co252 2.021 . S
O262 C259 1.238 . S
O263 Co257 2.052 . S
O263 C259 1.241 . S
O264 Co252 2.137 . S
O264 C255 1.247 . S
O265 Co252 2.244 . S
O265 C255 1.272 . S
O265 Co257 2.135 . S
Co266 O267 2.216 . S
Co266 O268 2.091 . S
Co266 O270 2.004 . S
Co266 O276 2.021 . S
Co266 O278 2.137 . S
Co266 O279 2.244 . S
O267 Co266 2.216 . S
O267 C274 1.247 . S
O268 Co266 2.091 . S
O268 C274 1.261 . S
C269 O278 1.247 . S
C269 O279 1.272 . S
O270 Co266 2.004 . S
O270 C275 1.259 . S
Co271 O272 2.061 . S
Co271 O277 2.052 . S
Co271 O279 2.135 . S
O272 Co271 2.061 . S
O272 C275 1.235 . S
C273 O276 1.238 . S
C273 O277 1.241 . S
C274 O267 1.247 . S
C274 O268 1.261 . S
C275 O270 1.259 . S
C275 O272 1.235 . S
O276 Co266 2.021 . S
O276 C273 1.238 . S
O277 Co271 2.052 . S
O277 C273 1.241 . S
O278 Co266 2.137 . S
O278 C269 1.247 . S
O279 Co266 2.244 . S
O279 C269 1.272 . S
O279 Co271 2.135 . S
Co280 O281 2.216 . S
Co280 O282 2.091 . S
Co280 O284 2.004 . S
Co280 O290 2.021 . S
Co280 O292 2.137 . S
Co280 O293 2.244 . S
O281 Co280 2.216 . S
O281 C288 1.247 . S
O282 Co280 2.091 . S
O282 C288 1.261 . S
C283 O292 1.247 . S
C283 O293 1.272 . S
O284 Co280 2.004 . S
O284 C289 1.259 . S
Co285 O286 2.061 . S
Co285 O291 2.052 . S
Co285 O293 2.135 . S
O286 Co285 2.061 . S
O286 C289 1.235 . S
C287 O290 1.238 . S
C287 O291 1.241 . S
C288 O281 1.247 . S
C288 O282 1.261 . S
C289 O284 1.259 . S
C289 O286 1.235 . S
O290 Co280 2.021 . S
O290 C287 1.238 . S
O291 Co285 2.052 . S
O291 C287 1.241 . S
O292 Co280 2.137 . S
O292 C283 1.247 . S
O293 Co280 2.244 . S
O293 C283 1.272 . S
O293 Co285 2.135 . S
Co294 O295 2.216 . S
Co294 O296 2.091 . S
Co294 O298 2.004 . S
Co294 O304 2.021 . S
Co294 O306 2.137 . S
Co294 O307 2.244 . S
O295 Co294 2.216 . S
O295 C302 1.247 . S
O296 Co294 2.091 . S
O296 C302 1.261 . S
C297 O306 1.247 . S
C297 O307 1.272 . S
O298 Co294 2.004 . S
O298 C303 1.259 . S
Co299 O300 2.061 . S
Co299 O305 2.052 . S
Co299 O307 2.135 . S
O300 Co299 2.061 . S
O300 C303 1.235 . S
C301 O304 1.238 . S
C301 O305 1.241 . S
C302 O295 1.247 . S
C302 O296 1.261 . S
C303 O298 1.259 . S
C303 O300 1.235 . S
O304 Co294 2.021 . S
O304 C301 1.238 . S
O305 Co299 2.052 . S
O305 C301 1.241 . S
O306 Co294 2.137 . S
O306 C297 1.247 . S
O307 Co294 2.244 . S
O307 C297 1.272 . S
O307 Co299 2.135 . S
Co308 O309 2.216 . S
Co308 O310 2.091 . S
Co308 O312 2.004 . S
Co308 O318 2.021 . S
Co308 O320 2.137 . S
Co308 O321 2.244 . S
O309 Co308 2.216 . S
O309 C316 1.247 . S
O310 Co308 2.091 . S
O310 C316 1.261 . S
C311 O320 1.247 . S
C311 O321 1.272 . S
O312 Co308 2.004 . S
O312 C317 1.259 . S
Co313 O314 2.061 . S
Co313 O319 2.052 . S
Co313 O321 2.135 . S
O314 Co313 2.061 . S
O314 C317 1.235 . S
C315 O318 1.238 . S
C315 O319 1.241 . S
C316 O309 1.247 . S
C316 O310 1.261 . S
C317 O312 1.259 . S
C317 O314 1.235 . S
O318 Co308 2.021 . S
O318 C315 1.238 . S
O319 Co313 2.052 . S
O319 C315 1.241 . S
O320 Co308 2.137 . S
O320 C311 1.247 . S
O321 Co308 2.244 . S
O321 C311 1.272 . S
O321 Co313 2.135 . S
Co322 O323 2.216 . S
Co322 O324 2.091 . S
Co322 O326 2.004 . S
Co322 O332 2.021 . S
Co322 O334 2.137 . S
Co322 O335 2.244 . S
O323 Co322 2.216 . S
O323 C330 1.247 . S
O324 Co322 2.091 . S
O324 C330 1.261 . S
C325 O334 1.247 . S
C325 O335 1.272 . S
O326 Co322 2.004 . S
O326 C331 1.259 . S
Co327 O328 2.061 . S
Co327 O333 2.052 . S
Co327 O335 2.135 . S
O328 Co327 2.061 . S
O328 C331 1.235 . S
C329 O332 1.238 . S
C329 O333 1.241 . S
C330 O323 1.247 . S
C330 O324 1.261 . S
C331 O326 1.259 . S
C331 O328 1.235 . S
O332 Co322 2.021 . S
O332 C329 1.238 . S
O333 Co327 2.052 . S
O333 C329 1.241 . S
O334 Co322 2.137 . S
O334 C325 1.247 . S
O335 Co322 2.244 . S
O335 C325 1.272 . S
O335 Co327 2.135 . S
C336 C337 1.387 . S
C336 H340 0.950 . S
C336 C345 1.390 . S
C337 C336 1.387 . S
C337 C339 1.387 . S
H338 C345 0.950 . S
C339 C337 1.387 . S
C339 C341 1.390 . S
C339 H343 0.950 . S
H340 C336 0.950 . S
C341 C339 1.390 . S
C341 C342 1.387 . S
C341 H344 0.950 . S
C342 C341 1.387 . S
C342 C345 1.387 . S
H343 C339 0.950 . S
H344 C341 0.950 . S
C345 C336 1.390 . S
C345 H338 0.950 . S
C345 C342 1.387 . S
C346 C347 1.387 . S
C346 H350 0.950 . S
C346 C355 1.390 1_655 S
C347 C346 1.387 . S
C347 C349 1.387 . S
H348 C355 0.950 . S
C349 C347 1.387 . S
C349 C351 1.390 1_655 S
C349 H353 0.950 . S
H350 C346 0.950 . S
C351 C349 1.390 1_455 S
C351 C352 1.387 . S
C351 H354 0.950 . S
C352 C351 1.387 . S
C352 C355 1.387 . S
H353 C349 0.950 . S
H354 C351 0.950 . S
C355 C346 1.390 1_455 S
C355 H348 0.950 . S
C355 C352 1.387 . S
C356 C357 1.387 . S
C356 H360 0.950 . S
C356 C365 1.390 . S
C357 C356 1.387 . S
C357 C359 1.387 . S
H358 C365 0.950 . S
C359 C357 1.387 . S
C359 C361 1.390 . S
C359 H363 0.950 . S
H360 C356 0.950 . S
C361 C359 1.390 . S
C361 C362 1.387 . S
C361 H364 0.950 . S
C362 C361 1.387 . S
C362 C365 1.387 . S
H363 C359 0.950 . S
H364 C361 0.950 . S
C365 C356 1.390 . S
C365 H358 0.950 . S
C365 C362 1.387 . S
C366 C367 1.387 . S
C366 H370 0.950 . S
C366 C375 1.390 1_455 S
C367 C366 1.387 . S
C367 C369 1.387 . S
H368 C375 0.950 . S
C369 C367 1.387 . S
C369 C371 1.390 1_455 S
C369 H373 0.950 . S
H370 C366 0.950 . S
C371 C369 1.390 1_655 S
C371 C372 1.387 . S
C371 H374 0.950 . S
C372 C371 1.387 . S
C372 C375 1.387 . S
H373 C369 0.950 . S
H374 C371 0.950 . S
C375 C366 1.390 1_655 S
C375 H368 0.950 . S
C375 C372 1.387 . S
C376 C377 1.387 . S
C376 H380 0.950 . S
C376 C385 1.390 . S
C377 C376 1.387 . S
C377 C379 1.387 . S
H378 C385 0.950 . S
C379 C377 1.387 . S
C379 C381 1.390 . S
C379 H383 0.950 . S
H380 C376 0.950 . S
C381 C379 1.390 . S
C381 C382 1.387 . S
C381 H384 0.950 . S
C382 C381 1.387 . S
C382 C385 1.387 . S
H383 C379 0.950 . S
H384 C381 0.950 . S
C385 C376 1.390 . S
C385 H378 0.950 . S
C385 C382 1.387 . S
C386 C387 1.387 . S
C386 H390 0.950 . S
C386 C395 1.390 1_655 S
C387 C386 1.387 . S
C387 C389 1.387 . S
H388 C395 0.950 . S
C389 C387 1.387 . S
C389 C391 1.390 1_655 S
C389 H393 0.950 . S
H390 C386 0.950 . S
C391 C389 1.390 1_455 S
C391 C392 1.387 . S
C391 H394 0.950 . S
C392 C391 1.387 . S
C392 C395 1.387 . S
H393 C389 0.950 . S
H394 C391 0.950 . S
C395 C386 1.390 1_455 S
C395 H388 0.950 . S
C395 C392 1.387 . S
C396 C397 1.387 . S
C396 H400 0.950 . S
C396 C405 1.390 . S
C397 C396 1.387 . S
C397 C399 1.387 . S
H398 C405 0.950 . S
C399 C397 1.387 . S
C399 C401 1.390 . S
C399 H403 0.950 . S
H400 C396 0.950 . S
C401 C399 1.390 . S
C401 C402 1.387 . S
C401 H404 0.950 . S
C402 C401 1.387 . S
C402 C405 1.387 . S
H403 C399 0.950 . S
H404 C401 0.950 . S
C405 C396 1.390 . S
C405 H398 0.950 . S
C405 C402 1.387 . S
C406 C407 1.387 . S
C406 H410 0.950 . S
C406 C415 1.390 1_655 S
C407 C406 1.387 . S
C407 C409 1.387 . S
H408 C415 0.950 . S
C409 C407 1.387 . S
C409 C411 1.390 1_655 S
C409 H413 0.950 . S
H410 C406 0.950 . S
C411 C409 1.390 1_455 S
C411 C412 1.387 . S
C411 H414 0.950 . S
C412 C411 1.387 . S
C412 C415 1.387 . S
H413 C409 0.950 . S
H414 C411 0.950 . S
C415 C406 1.390 1_455 S
C415 H408 0.950 . S
C415 C412 1.387 . S
C416 C417 1.387 . S
C416 H420 0.950 . S
C416 C425 1.390 . S
C417 C416 1.387 . S
C417 C419 1.387 . S
H418 C425 0.950 . S
C419 C417 1.387 . S
C419 C421 1.390 . S
C419 H423 0.950 . S
H420 C416 0.950 . S
C421 C419 1.390 . S
C421 C422 1.387 . S
C421 H424 0.950 . S
C422 C421 1.387 . S
C422 C425 1.387 . S
H423 C419 0.950 . S
H424 C421 0.950 . S
C425 C416 1.390 . S
C425 H418 0.950 . S
C425 C422 1.387 . S
C426 C427 1.387 . S
C426 H430 0.950 . S
C426 C435 1.390 1_556 S
C427 C426 1.387 . S
C427 C429 1.387 . S
H428 C435 0.950 . S
C429 C427 1.387 . S
C429 C431 1.390 1_556 S
C429 H433 0.950 . S
H430 C426 0.950 . S
C431 C429 1.390 1_554 S
C431 C432 1.387 . S
C431 H434 0.950 . S
C432 C431 1.387 . S
C432 C435 1.387 . S
H433 C429 0.950 . S
H434 C431 0.950 . S
C435 C426 1.390 1_554 S
C435 H428 0.950 . S
C435 C432 1.387 . S
C436 C437 1.387 . S
C436 H440 0.950 . S
C436 C445 1.390 . S
C437 C436 1.387 . S
C437 C439 1.387 . S
H438 C445 0.950 . S
C439 C437 1.387 . S
C439 C441 1.390 . S
C439 H443 0.950 . S
H440 C436 0.950 . S
C441 C439 1.390 . S
C441 C442 1.387 . S
C441 H444 0.950 . S
C442 C441 1.387 . S
C442 C445 1.387 . S
H443 C439 0.950 . S
H444 C441 0.950 . S
C445 C436 1.390 . S
C445 H438 0.950 . S
C445 C442 1.387 . S
C446 C447 1.387 . S
C446 H450 0.950 . S
C446 C455 1.390 1_554 S
C447 C446 1.387 . S
C447 C449 1.387 . S
H448 C455 0.950 . S
C449 C447 1.387 . S
C449 C451 1.390 1_554 S
C449 H453 0.950 . S
H450 C446 0.950 . S
C451 C449 1.390 1_556 S
C451 C452 1.387 . S
C451 H454 0.950 . S
C452 C451 1.387 . S
C452 C455 1.387 . S
H453 C449 0.950 . S
H454 C451 0.950 . S
C455 C446 1.390 1_556 S
C455 H448 0.950 . S
C455 C452 1.387 . S
C456 C457 1.387 . S
C456 H460 0.950 . S
C456 C465 1.390 . S
C457 C456 1.387 . S
C457 C459 1.387 . S
H458 C465 0.950 . S
C459 C457 1.387 . S
C459 C461 1.390 . S
C459 H463 0.950 . S
H460 C456 0.950 . S
C461 C459 1.390 . S
C461 C462 1.387 . S
C461 H464 0.950 . S
C462 C461 1.387 . S
C462 C465 1.387 . S
H463 C459 0.950 . S
H464 C461 0.950 . S
C465 C456 1.390 . S
C465 H458 0.950 . S
C465 C462 1.387 . S
C466 C467 1.387 . S
C466 H470 0.950 . S
C466 C475 1.390 1_554 S
C467 C466 1.387 . S
C467 C469 1.387 . S
H468 C475 0.950 . S
C469 C467 1.387 . S
C469 C471 1.390 1_554 S
C469 H473 0.950 . S
H470 C466 0.950 . S
C471 C469 1.390 1_556 S
C471 C472 1.387 . S
C471 H474 0.950 . S
C472 C471 1.387 . S
C472 C475 1.387 . S
H473 C469 0.950 . S
H474 C471 0.950 . S
C475 C466 1.390 1_556 S
C475 H468 0.950 . S
C475 C472 1.387 . S
C476 C477 1.387 . S
C476 H480 0.950 . S
C476 C485 1.390 . S
C477 C476 1.387 . S
C477 C479 1.387 . S
H478 C485 0.950 . S
C479 C477 1.387 . S
C479 C481 1.390 . S
C479 H483 0.950 . S
H480 C476 0.950 . S
C481 C479 1.390 . S
C481 C482 1.387 . S
C481 H484 0.950 . S
C482 C481 1.387 . S
C482 C485 1.387 . S
H483 C479 0.950 . S
H484 C481 0.950 . S
C485 C476 1.390 . S
C485 H478 0.950 . S
C485 C482 1.387 . S
C486 C487 1.387 . S
C486 H490 0.950 . S
C486 C495 1.390 1_554 S
C487 C486 1.387 . S
C487 C489 1.387 . S
H488 C495 0.950 . S
C489 C487 1.387 . S
C489 C491 1.390 1_554 S
C489 H493 0.950 . S
H490 C486 0.950 . S
C491 C489 1.390 1_556 S
C491 C492 1.387 . S
C491 H494 0.950 . S
C492 C491 1.387 . S
C492 C495 1.387 . S
H493 C489 0.950 . S
H494 C491 0.950 . S
C495 C486 1.390 1_556 S
C495 H488 0.950 . S
C495 C492 1.387 . S
C496 C497 1.387 . S
C496 H500 0.950 . S
C496 C505 1.390 . S
C497 C496 1.387 . S
C497 C499 1.387 . S
H498 C505 0.950 . S
C499 C497 1.387 . S
C499 C501 1.390 . S
C499 H503 0.950 . S
H500 C496 0.950 . S
C501 C499 1.390 . S
C501 C502 1.387 . S
C501 H504 0.950 . S
C502 C501 1.387 . S
C502 C505 1.387 . S
H503 C499 0.950 . S
H504 C501 0.950 . S
C505 C496 1.390 . S
C505 H498 0.950 . S
C505 C502 1.387 . S
C506 C507 1.387 . S
C506 H510 0.950 . S
C506 C515 1.390 . S
C507 C506 1.387 . S
C507 C509 1.387 . S
H508 C515 0.950 . S
C509 C507 1.387 . S
C509 C511 1.390 . S
C509 H513 0.950 . S
H510 C506 0.950 . S
C511 C509 1.390 . S
C511 C512 1.387 . S
C511 H514 0.950 . S
C512 C511 1.387 . S
C512 C515 1.387 . S
H513 C509 0.950 . S
H514 C511 0.950 . S
C515 C506 1.390 . S
C515 H508 0.950 . S
C515 C512 1.387 . S
C516 C517 1.387 . S
C516 H520 0.950 . S
C516 C525 1.390 1_565 S
C517 C516 1.387 . S
C517 C519 1.387 . S
H518 C525 0.950 . S
C519 C517 1.387 . S
C519 C521 1.390 1_565 S
C519 H523 0.950 . S
H520 C516 0.950 . S
C521 C519 1.390 1_545 S
C521 C522 1.387 . S
C521 H524 0.950 . S
C522 C521 1.387 . S
C522 C525 1.387 . S
H523 C519 0.950 . S
H524 C521 0.950 . S
C525 C516 1.390 1_545 S
C525 H518 0.950 . S
C525 C522 1.387 . S
C526 C527 1.387 . S
C526 H530 0.950 . S
C526 C535 1.390 . S
C527 C526 1.387 . S
C527 C529 1.387 . S
H528 C535 0.950 . S
C529 C527 1.387 . S
C529 C531 1.390 . S
C529 H533 0.950 . S
H530 C526 0.950 . S
C531 C529 1.390 . S
C531 C532 1.387 . S
C531 H534 0.950 . S
C532 C531 1.387 . S
C532 C535 1.387 . S
H533 C529 0.950 . S
H534 C531 0.950 . S
C535 C526 1.390 . S
C535 H528 0.950 . S
C535 C532 1.387 . S
C536 C537 1.387 . S
C536 H540 0.950 . S
C536 C545 1.390 1_565 S
C537 C536 1.387 . S
C537 C539 1.387 . S
H538 C545 0.950 . S
C539 C537 1.387 . S
C539 C541 1.390 1_565 S
C539 H543 0.950 . S
H540 C536 0.950 . S
C541 C539 1.390 1_545 S
C541 C542 1.387 . S
C541 H544 0.950 . S
C542 C541 1.387 . S
C542 C545 1.387 . S
H543 C539 0.950 . S
H544 C541 0.950 . S
C545 C536 1.390 1_545 S
C545 H538 0.950 . S
C545 C542 1.387 . S
C546 C547 1.387 . S
C546 H550 0.950 . S
C546 C555 1.390 . S
C547 C546 1.387 . S
C547 C549 1.387 . S
H548 C555 0.950 . S
C549 C547 1.387 . S
C549 C551 1.390 . S
C549 H553 0.950 . S
H550 C546 0.950 . S
C551 C549 1.390 . S
C551 C552 1.387 . S
C551 H554 0.950 . S
C552 C551 1.387 . S
C552 C555 1.387 . S
H553 C549 0.950 . S
H554 C551 0.950 . S
C555 C546 1.390 . S
C555 H548 0.950 . S
C555 C552 1.387 . S
C556 C557 1.387 . S
C556 H560 0.950 . S
C556 C565 1.390 1_565 S
C557 C556 1.387 . S
C557 C559 1.387 . S
H558 C565 0.950 . S
C559 C557 1.387 . S
C559 C561 1.390 1_565 S
C559 H563 0.950 . S
H560 C556 0.950 . S
C561 C559 1.390 1_545 S
C561 C562 1.387 . S
C561 H564 0.950 . S
C562 C561 1.387 . S
C562 C565 1.387 . S
H563 C559 0.950 . S
H564 C561 0.950 . S
C565 C556 1.390 1_545 S
C565 H558 0.950 . S
C565 C562 1.387 . S
C566 C567 1.387 . S
C566 H570 0.950 . S
C566 C575 1.390 1_545 S
C567 C566 1.387 . S
C567 C569 1.387 . S
H568 C575 0.950 . S
C569 C567 1.387 . S
C569 C571 1.390 1_545 S
C569 H573 0.950 . S
H570 C566 0.950 . S
C571 C569 1.390 1_565 S
C571 C572 1.387 . S
C571 H574 0.950 . S
C572 C571 1.387 . S
C572 C575 1.387 . S
H573 C569 0.950 . S
H574 C571 0.950 . S
C575 C566 1.390 1_565 S
C575 H568 0.950 . S
C575 C572 1.387 . S
C576 C577 1.387 . S
C576 H580 0.950 . S
C576 C585 1.390 . S
C577 C576 1.387 . S
C577 C579 1.387 . S
H578 C585 0.950 . S
C579 C577 1.387 . S
C579 C581 1.390 . S
C579 H583 0.950 . S
H580 C576 0.950 . S
C581 C579 1.390 . S
C581 C582 1.387 . S
C581 H584 0.950 . S
C582 C581 1.387 . S
C582 C585 1.387 . S
H583 C579 0.950 . S
H584 C581 0.950 . S
C585 C576 1.390 . S
C585 H578 0.950 . S
C585 C582 1.387 . S
C586 C587 1.387 . S
C586 H590 0.950 . S
C586 C595 1.390 . S
C587 C586 1.387 . S
C587 C589 1.387 . S
H588 C595 0.950 . S
C589 C587 1.387 . S
C589 C591 1.390 . S
C589 H593 0.950 . S
H590 C586 0.950 . S
C591 C589 1.390 . S
C591 C592 1.387 . S
C591 H594 0.950 . S
C592 C591 1.387 . S
C592 C595 1.387 . S
H593 C589 0.950 . S
H594 C591 0.950 . S
C595 C586 1.390 . S
C595 H588 0.950 . S
C595 C592 1.387 . S
C596 C597 1.387 . S
C596 H600 0.950 . S
C596 C605 1.390 . S
C597 C596 1.387 . S
C597 C599 1.387 . S
H598 C605 0.950 . S
C599 C597 1.387 . S
C599 C601 1.390 . S
C599 H603 0.950 . S
H600 C596 0.950 . S
C601 C599 1.390 . S
C601 C602 1.387 . S
C601 H604 0.950 . S
C602 C601 1.387 . S
C602 C605 1.387 . S
H603 C599 0.950 . S
H604 C601 0.950 . S
C605 C596 1.390 . S
C605 H598 0.950 . S
C605 C602 1.387 . S
C606 C607 1.387 . S
C606 H610 0.950 . S
C606 C615 1.390 . S
C607 C606 1.387 . S
C607 C609 1.387 . S
H608 C615 0.950 . S
C609 C607 1.387 . S
C609 C611 1.390 . S
C609 H613 0.950 . S
H610 C606 0.950 . S
C611 C609 1.390 . S
C611 C612 1.387 . S
C611 H614 0.950 . S
C612 C611 1.387 . S
C612 C615 1.387 . S
H613 C609 0.950 . S
H614 C611 0.950 . S
C615 C606 1.390 . S
C615 H608 0.950 . S
C615 C612 1.387 . S
C616 C617 1.387 . S
C616 H620 0.950 . S
C616 C625 1.390 . S
C617 C616 1.387 . S
C617 C619 1.387 . S
H618 C625 0.950 . S
C619 C617 1.387 . S
C619 C621 1.390 . S
C619 H623 0.950 . S
H620 C616 0.950 . S
C621 C619 1.390 . S
C621 C622 1.387 . S
C621 H624 0.950 . S
C622 C621 1.387 . S
C622 C625 1.387 . S
H623 C619 0.950 . S
H624 C621 0.950 . S
C625 C616 1.390 . S
C625 H618 0.950 . S
C625 C622 1.387 . S
C626 C627 1.387 . S
C626 H630 0.950 . S
C626 C635 1.390 . S
C627 C626 1.387 . S
C627 C629 1.387 . S
H628 C635 0.950 . S
C629 C627 1.387 . S
C629 C631 1.390 . S
C629 H633 0.950 . S
H630 C626 0.950 . S
C631 C629 1.390 . S
C631 C632 1.387 . S
C631 H634 0.950 . S
C632 C631 1.387 . S
C632 C635 1.387 . S
H633 C629 0.950 . S
H634 C631 0.950 . S
C635 C626 1.390 . S
C635 H628 0.950 . S
C635 C632 1.387 . S
C636 C637 1.387 . S
C636 H640 0.950 . S
C636 C645 1.390 . S
C637 C636 1.387 . S
C637 C639 1.387 . S
H638 C645 0.950 . S
C639 C637 1.387 . S
C639 C641 1.390 . S
C639 H643 0.950 . S
H640 C636 0.950 . S
C641 C639 1.390 . S
C641 C642 1.387 . S
C641 H644 0.950 . S
C642 C641 1.387 . S
C642 C645 1.387 . S
H643 C639 0.950 . S
H644 C641 0.950 . S
C645 C636 1.390 . S
C645 H638 0.950 . S
C645 C642 1.387 . S
C646 C647 1.387 . S
C646 H650 0.950 . S
C646 C655 1.390 . S
C647 C646 1.387 . S
C647 C649 1.387 . S
H648 C655 0.950 . S
C649 C647 1.387 . S
C649 C651 1.390 . S
C649 H653 0.950 . S
H650 C646 0.950 . S
C651 C649 1.390 . S
C651 C652 1.387 . S
C651 H654 0.950 . S
C652 C651 1.387 . S
C652 C655 1.387 . S
H653 C649 0.950 . S
H654 C651 0.950 . S
C655 C646 1.390 . S
C655 H648 0.950 . S
C655 C652 1.387 . S
C656 C657 1.387 . S
C656 H660 0.950 . S
C656 C665 1.390 . S
C657 C656 1.387 . S
C657 C659 1.387 . S
H658 C665 0.950 . S
C659 C657 1.387 . S
C659 C661 1.390 . S
C659 H663 0.950 . S
H660 C656 0.950 . S
C661 C659 1.390 . S
C661 C662 1.387 . S
C661 H664 0.950 . S
C662 C661 1.387 . S
C662 C665 1.387 . S
H663 C659 0.950 . S
H664 C661 0.950 . S
C665 C656 1.390 . S
C665 H658 0.950 . S
C665 C662 1.387 . S
C666 C667 1.387 . S
C666 H670 0.950 . S
C666 C675 1.390 . S
C667 C666 1.387 . S
C667 C669 1.387 . S
H668 C675 0.950 . S
C669 C667 1.387 . S
C669 C671 1.390 . S
C669 H673 0.950 . S
H670 C666 0.950 . S
C671 C669 1.390 . S
C671 C672 1.387 . S
C671 H674 0.950 . S
C672 C671 1.387 . S
C672 C675 1.387 . S
H673 C669 0.950 . S
H674 C671 0.950 . S
C675 C666 1.390 . S
C675 H668 0.950 . S
C675 C672 1.387 . S
C676 C677 1.387 . S
C676 H680 0.950 . S
C676 C685 1.390 . S
C677 C676 1.387 . S
C677 C679 1.387 . S
H678 C685 0.950 . S
C679 C677 1.387 . S
C679 C681 1.390 . S
C679 H683 0.950 . S
H680 C676 0.950 . S
C681 C679 1.390 . S
C681 C682 1.387 . S
C681 H684 0.950 . S
C682 C681 1.387 . S
C682 C685 1.387 . S
H683 C679 0.950 . S
H684 C681 0.950 . S
C685 C676 1.390 . S
C685 H678 0.950 . S
C685 C682 1.387 . S
C686 C687 1.387 . S
C686 H690 0.950 . S
C686 C695 1.390 . S
C687 C686 1.387 . S
C687 C689 1.387 . S
H688 C695 0.950 . S
C689 C687 1.387 . S
C689 C691 1.390 . S
C689 H693 0.950 . S
H690 C686 0.950 . S
C691 C689 1.390 . S
C691 C692 1.387 . S
C691 H694 0.950 . S
C692 C691 1.387 . S
C692 C695 1.387 . S
H693 C689 0.950 . S
H694 C691 0.950 . S
C695 C686 1.390 . S
C695 H688 0.950 . S
C695 C692 1.387 . S
C696 C697 1.387 . S
C696 H700 0.950 . S
C696 C705 1.390 . S
C697 C696 1.387 . S
C697 C699 1.387 . S
H698 C705 0.950 . S
C699 C697 1.387 . S
C699 C701 1.390 . S
C699 H703 0.950 . S
H700 C696 0.950 . S
C701 C699 1.390 . S
C701 C702 1.387 . S
C701 H704 0.950 . S
C702 C701 1.387 . S
C702 C705 1.387 . S
H703 C699 0.950 . S
H704 C701 0.950 . S
C705 C696 1.390 . S
C705 H698 0.950 . S
C705 C702 1.387 . S
C706 C707 1.387 . S
C706 H710 0.950 . S
C706 C715 1.390 . S
C707 C706 1.387 . S
C707 C709 1.387 . S
H708 C715 0.950 . S
C709 C707 1.387 . S
C709 C711 1.390 . S
C709 H713 0.950 . S
H710 C706 0.950 . S
C711 C709 1.390 . S
C711 C712 1.387 . S
C711 H714 0.950 . S
C712 C711 1.387 . S
C712 C715 1.387 . S
H713 C709 0.950 . S
H714 C711 0.950 . S
C715 C706 1.390 . S
C715 H708 0.950 . S
C715 C712 1.387 . S
C716 C717 1.387 . S
C716 H720 0.950 . S
C716 C725 1.390 . S
C717 C716 1.387 . S
C717 C719 1.387 . S
H718 C725 0.950 . S
C719 C717 1.387 . S
C719 C721 1.390 . S
C719 H723 0.950 . S
H720 C716 0.950 . S
C721 C719 1.390 . S
C721 C722 1.387 . S
C721 H724 0.950 . S
C722 C721 1.387 . S
C722 C725 1.387 . S
H723 C719 0.950 . S
H724 C721 0.950 . S
C725 C716 1.390 . S
C725 H718 0.950 . S
C725 C722 1.387 . S
C726 C727 1.387 . S
C726 H730 0.950 . S
C726 C735 1.390 . S
C727 C726 1.387 . S
C727 C729 1.387 . S
H728 C735 0.950 . S
C729 C727 1.387 . S
C729 C731 1.390 . S
C729 H733 0.950 . S
H730 C726 0.950 . S
C731 C729 1.390 . S
C731 C732 1.387 . S
C731 H734 0.950 . S
C732 C731 1.387 . S
C732 C735 1.387 . S
H733 C729 0.950 . S
H734 C731 0.950 . S
C735 C726 1.390 . S
C735 H728 0.950 . S
C735 C732 1.387 . S
C736 C737 1.387 . S
C736 H740 0.950 . S
C736 C745 1.390 . S
C737 C736 1.387 . S
C737 C739 1.387 . S
H738 C745 0.950 . S
C739 C737 1.387 . S
C739 C741 1.390 . S
C739 H743 0.950 . S
H740 C736 0.950 . S
C741 C739 1.390 . S
C741 C742 1.387 . S
C741 H744 0.950 . S
C742 C741 1.387 . S
C742 C745 1.387 . S
H743 C739 0.950 . S
H744 C741 0.950 . S
C745 C736 1.390 . S
C745 H738 0.950 . S
C745 C742 1.387 . S
C746 C747 1.387 . S
C746 H750 0.950 . S
C746 C755 1.390 . S
C747 C746 1.387 . S
C747 C749 1.387 . S
H748 C755 0.950 . S
C749 C747 1.387 . S
C749 C751 1.390 . S
C749 H753 0.950 . S
H750 C746 0.950 . S
C751 C749 1.390 . S
C751 C752 1.387 . S
C751 H754 0.950 . S
C752 C751 1.387 . S
C752 C755 1.387 . S
H753 C749 0.950 . S
H754 C751 0.950 . S
C755 C746 1.390 . S
C755 H748 0.950 . S
C755 C752 1.387 . S
C756 C757 1.387 . S
C756 H760 0.950 . S
C756 C765 1.390 . S
C757 C756 1.387 . S
C757 C759 1.387 . S
H758 C765 0.950 . S
C759 C757 1.387 . S
C759 C761 1.390 . S
C759 H763 0.950 . S
H760 C756 0.950 . S
C761 C759 1.390 . S
C761 C762 1.387 . S
C761 H764 0.950 . S
C762 C761 1.387 . S
C762 C765 1.387 . S
H763 C759 0.950 . S
H764 C761 0.950 . S
C765 C756 1.390 . S
C765 H758 0.950 . S
C765 C762 1.387 . S
C766 C767 1.387 . S
C766 H770 0.950 . S
C766 C775 1.390 . S
C767 C766 1.387 . S
C767 C769 1.387 . S
H768 C775 0.950 . S
C769 C767 1.387 . S
C769 C771 1.390 . S
C769 H773 0.950 . S
H770 C766 0.950 . S
C771 C769 1.390 . S
C771 C772 1.387 . S
C771 H774 0.950 . S
C772 C771 1.387 . S
C772 C775 1.387 . S
H773 C769 0.950 . S
H774 C771 0.950 . S
C775 C766 1.390 . S
C775 H768 0.950 . S
C775 C772 1.387 . S
C776 C777 1.387 . S
C776 H780 0.950 . S
C776 C785 1.390 . S
C777 C776 1.387 . S
C777 C779 1.387 . S
H778 C785 0.950 . S
C779 C777 1.387 . S
C779 C781 1.390 . S
C779 H783 0.950 . S
H780 C776 0.950 . S
C781 C779 1.390 . S
C781 C782 1.387 . S
C781 H784 0.950 . S
C782 C781 1.387 . S
C782 C785 1.387 . S
H783 C779 0.950 . S
H784 C781 0.950 . S
C785 C776 1.390 . S
C785 H778 0.950 . S
C785 C782 1.387 . S
C786 C787 1.387 . S
C786 H790 0.950 . S
C786 C795 1.390 . S
C787 C786 1.387 . S
C787 C789 1.387 . S
H788 C795 0.950 . S
C789 C787 1.387 . S
C789 C791 1.390 . S
C789 H793 0.950 . S
H790 C786 0.950 . S
C791 C789 1.390 . S
C791 C792 1.387 . S
C791 H794 0.950 . S
C792 C791 1.387 . S
C792 C795 1.387 . S
H793 C789 0.950 . S
H794 C791 0.950 . S
C795 C786 1.390 . S
C795 H788 0.950 . S
C795 C792 1.387 . S
C796 C797 1.387 . S
C796 H800 0.950 . S
C796 C805 1.390 . S
C797 C796 1.387 . S
C797 C799 1.387 . S
H798 C805 0.950 . S
C799 C797 1.387 . S
C799 C801 1.390 . S
C799 H803 0.950 . S
H800 C796 0.950 . S
C801 C799 1.390 . S
C801 C802 1.387 . S
C801 H804 0.950 . S
C802 C801 1.387 . S
C802 C805 1.387 . S
H803 C799 0.950 . S
H804 C801 0.950 . S
C805 C796 1.390 . S
C805 H798 0.950 . S
C805 C802 1.387 . S
C806 C807 1.387 . S
C806 H810 0.950 . S
C806 C815 1.390 . S
C807 C806 1.387 . S
C807 C809 1.387 . S
H808 C815 0.950 . S
C809 C807 1.387 . S
C809 C811 1.390 . S
C809 H813 0.950 . S
H810 C806 0.950 . S
C811 C809 1.390 . S
C811 C812 1.387 . S
C811 H814 0.950 . S
C812 C811 1.387 . S
C812 C815 1.387 . S
H813 C809 0.950 . S
H814 C811 0.950 . S
C815 C806 1.390 . S
C815 H808 0.950 . S
C815 C812 1.387 . S
C337 C218 1.305 . S
C342 C7 1.294 . S
C347 C175 1.388 . S
C352 C22 1.403 . S
C357 C189 1.399 . S
C362 C35 1.389 . S
C367 C203 1.392 . S
C372 C50 1.405 . S
C377 C204 1.393 . S
C382 C21 1.376 . S
C387 C36 1.396 . S
C392 C217 1.382 . S
C397 C176 1.390 . S
C402 C49 1.371 . S
C407 C190 1.301 . S
C412 C8 1.301 . S
C417 C260 1.248 . S
C422 C64 1.248 . S
C427 C77 1.454 . S
C432 C273 1.466 . S
C437 C92 1.269 . S
C442 C232 1.269 . S
C447 C245 1.452 . S
C452 C105 1.444 . S
C457 C315 1.489 . S
C462 C119 1.494 . S
C467 C133 1.267 . S
C472 C330 1.281 . S
C477 C147 1.505 . S
C482 C287 1.501 . S
C487 C161 1.250 . S
C492 C302 1.262 . S
C497 C246 1.299 . S
C502 C162 1.299 . S
C507 C329 1.431 . S
C512 C78 1.444 . S
C517 C91 1.404 . S
C522 C288 1.410 . S
C527 C301 1.424 . S
C532 C106 1.436 . S
C537 C316 1.358 . S
C542 C63 1.350 . S
C547 C134 1.351 . S
C552 C274 1.351 . S
C557 C231 1.366 . S
C562 C148 1.376 . S
C567 C259 1.360 . S
C572 C120 1.371 . S
C577 C3 1.085 . S
C582 C59 1.089 . S
C587 C79 1.093 . S
C592 C23 1.091 . S
C597 C31 1.149 . S
C602 C87 1.147 . S
C607 C51 1.090 . S
C612 C107 1.092 . S
C617 C121 1.114 . S
C622 C17 1.136 . S
C627 C135 1.062 . S
C632 C37 1.061 . S
C637 C149 1.118 . S
C642 C45 1.139 . S
C647 C9 1.011 . S
C652 C163 1.013 . S
C657 C157 1.042 . S
C662 C65 1.029 . S
C667 C73 1.201 . S
C672 C115 1.201 . S
C677 C93 1.040 . S
C682 C129 1.048 . S
C687 C143 1.203 . S
C692 C101 1.201 . S
C697 C227 1.088 . S
C702 C177 1.066 . S
C707 C247 1.057 . S
C712 C191 1.054 . S
C717 C205 1.064 . S
C722 C255 1.089 . S
C727 C213 1.112 . S
C732 C275 1.097 . S
C737 C185 1.136 . S
C742 C289 1.117 . S
C747 C199 1.169 . S
C752 C297 1.164 . S
C757 C317 1.068 . S
C762 C219 1.073 . S
C767 C171 1.170 . S
C772 C325 1.165 . S
C777 C233 1.026 . S
C782 C331 1.035 . S
C787 C283 1.181 . S
C792 C241 1.178 . S
C797 C261 1.005 . S
C802 C303 1.014 . S
C807 C311 1.183 . S
C812 C269 1.179 . S
