# Generated by pormake.
# Topology whr, (6)-cn, num edge types: 1
# Building blocks:
#     Node 0, Type 0, BuildingBlock: OJICUG_clean_sbu_0, # of connection points: 6
#     Node 1, Type 0, BuildingBlock: OJICUG_clean_sbu_0, # of connection points: 6
#     Node 2, Type 0, BuildingBlock: OJICUG_clean_sbu_0, # of connection points: 6
#     Node 3, Type 0, BuildingBlock: OJICUG_clean_sbu_0, # of connection points: 6
#     Node 4, Type 0, BuildingBlock: OJICUG_clean_sbu_0, # of connection points: 6
#     Node 5, Type 0, BuildingBlock: OJICUG_clean_sbu_0, # of connection points: 6
#     Node 6, Type 0, BuildingBlock: OJICUG_clean_sbu_0, # of connection points: 6
#     Node 7, Type 0, BuildingBlock: OJICUG_clean_sbu_0, # of connection points: 6
#     Node 8, Type 0, BuildingBlock: OJICUG_clean_sbu_0, # of connection points: 6
#     Node 9, Type 0, BuildingBlock: OJICUG_clean_sbu_0, # of connection points: 6
#     Node 10, Type 0, BuildingBlock: OJICUG_clean_sbu_0, # of connection points: 6
#     Node 11, Type 0, BuildingBlock: OJICUG_clean_sbu_0, # of connection points: 6
#     Node 12, Type 0, BuildingBlock: OJICUG_clean_sbu_0, # of connection points: 6
#     Node 13, Type 0, BuildingBlock: OJICUG_clean_sbu_0, # of connection points: 6
#     Node 14, Type 0, BuildingBlock: OJICUG_clean_sbu_0, # of connection points: 6
#     Node 15, Type 0, BuildingBlock: OJICUG_clean_sbu_0, # of connection points: 6
#     Edge 16, Type (0, 0), BuildingBlock: XIVTED_clean_linker_0, # of connection points: 2
#     Edge 17, Type (0, 0), BuildingBlock: XIVTED_clean_linker_0, # of connection points: 2
#     Edge 18, Type (0, 0), BuildingBlock: XIVTED_clean_linker_0, # of connection points: 2
#     Edge 19, Type (0, 0), BuildingBlock: XIVTED_clean_linker_0, # of connection points: 2
#     Edge 20, Type (0, 0), BuildingBlock: XIVTED_clean_linker_0, # of connection points: 2
#     Edge 21, Type (0, 0), BuildingBlock: XIVTED_clean_linker_0, # of connection points: 2
#     Edge 22, Type (0, 0), BuildingBlock: XIVTED_clean_linker_0, # of connection points: 2
#     Edge 23, Type (0, 0), BuildingBlock: XIVTED_clean_linker_0, # of connection points: 2
#     Edge 24, Type (0, 0), BuildingBlock: XIVTED_clean_linker_0, # of connection points: 2
#     Edge 25, Type (0, 0), BuildingBlock: XIVTED_clean_linker_0, # of connection points: 2
#     Edge 26, Type (0, 0), BuildingBlock: XIVTED_clean_linker_0, # of connection points: 2
#     Edge 27, Type (0, 0), BuildingBlock: XIVTED_clean_linker_0, # of connection points: 2
#     Edge 28, Type (0, 0), BuildingBlock: XIVTED_clean_linker_0, # of connection points: 2
#     Edge 29, Type (0, 0), BuildingBlock: XIVTED_clean_linker_0, # of connection points: 2
#     Edge 30, Type (0, 0), BuildingBlock: XIVTED_clean_linker_0, # of connection points: 2
#     Edge 31, Type (0, 0), BuildingBlock: XIVTED_clean_linker_0, # of connection points: 2
#     Edge 32, Type (0, 0), BuildingBlock: XIVTED_clean_linker_0, # of connection points: 2
#     Edge 33, Type (0, 0), BuildingBlock: XIVTED_clean_linker_0, # of connection points: 2
#     Edge 34, Type (0, 0), BuildingBlock: XIVTED_clean_linker_0, # of connection points: 2
#     Edge 35, Type (0, 0), BuildingBlock: XIVTED_clean_linker_0, # of connection points: 2
#     Edge 36, Type (0, 0), BuildingBlock: XIVTED_clean_linker_0, # of connection points: 2
#     Edge 37, Type (0, 0), BuildingBlock: XIVTED_clean_linker_0, # of connection points: 2
#     Edge 38, Type (0, 0), BuildingBlock: XIVTED_clean_linker_0, # of connection points: 2
#     Edge 39, Type (0, 0), BuildingBlock: XIVTED_clean_linker_0, # of connection points: 2
#     Edge 40, Type (0, 0), BuildingBlock: XIVTED_clean_linker_0, # of connection points: 2
#     Edge 41, Type (0, 0), BuildingBlock: XIVTED_clean_linker_0, # of connection points: 2
#     Edge 42, Type (0, 0), BuildingBlock: XIVTED_clean_linker_0, # of connection points: 2
#     Edge 43, Type (0, 0), BuildingBlock: XIVTED_clean_linker_0, # of connection points: 2
#     Edge 44, Type (0, 0), BuildingBlock: XIVTED_clean_linker_0, # of connection points: 2
#     Edge 45, Type (0, 0), BuildingBlock: XIVTED_clean_linker_0, # of connection points: 2
#     Edge 46, Type (0, 0), BuildingBlock: XIVTED_clean_linker_0, # of connection points: 2
#     Edge 47, Type (0, 0), BuildingBlock: XIVTED_clean_linker_0, # of connection points: 2
#     Edge 48, Type (0, 0), BuildingBlock: XIVTED_clean_linker_0, # of connection points: 2
#     Edge 49, Type (0, 0), BuildingBlock: XIVTED_clean_linker_0, # of connection points: 2
#     Edge 50, Type (0, 0), BuildingBlock: XIVTED_clean_linker_0, # of connection points: 2
#     Edge 51, Type (0, 0), BuildingBlock: XIVTED_clean_linker_0, # of connection points: 2
#     Edge 52, Type (0, 0), BuildingBlock: XIVTED_clean_linker_0, # of connection points: 2
#     Edge 53, Type (0, 0), BuildingBlock: XIVTED_clean_linker_0, # of connection points: 2
#     Edge 54, Type (0, 0), BuildingBlock: XIVTED_clean_linker_0, # of connection points: 2
#     Edge 55, Type (0, 0), BuildingBlock: XIVTED_clean_linker_0, # of connection points: 2
#     Edge 56, Type (0, 0), BuildingBlock: XIVTED_clean_linker_0, # of connection points: 2
#     Edge 57, Type (0, 0), BuildingBlock: XIVTED_clean_linker_0, # of connection points: 2
#     Edge 58, Type (0, 0), BuildingBlock: XIVTED_clean_linker_0, # of connection points: 2
#     Edge 59, Type (0, 0), BuildingBlock: XIVTED_clean_linker_0, # of connection points: 2
#     Edge 60, Type (0, 0), BuildingBlock: XIVTED_clean_linker_0, # of connection points: 2
#     Edge 61, Type (0, 0), BuildingBlock: XIVTED_clean_linker_0, # of connection points: 2
#     Edge 62, Type (0, 0), BuildingBlock: XIVTED_clean_linker_0, # of connection points: 2
#     Edge 63, Type (0, 0), BuildingBlock: XIVTED_clean_linker_0, # of connection points: 2
# Relax obj value: 0.342
# Max RMSD: 0.271
# Mean RMSD: 0.271
data_MOF--net-whr--node1-OJICUG_clean_sbu_0--edge1-XIVTED_clean_linker_0
_symmetry_space_group_name_H-M    P1
_symmetry_Int_Tables_number       1
_symmetry_cell_setting            triclinic
loop_
_symmetry_equiv_pos_as_xyz
'x, y, z'
_cell_length_a     48.89459
_cell_length_b     48.817568
_cell_length_c     30.077738
_cell_angle_alpha  90.056992
_cell_angle_beta   90.059176
_cell_angle_gamma 89.890187
loop_
_atom_site_label
_atom_site_type_symbol
_atom_site_fract_x
_atom_site_fract_y
_atom_site_fract_z
_atom_type_partial_charge
Sc0 Sc 0.18923 0.05127 0.10386 0.0
Sc1 Sc 0.2241 0.09409 0.02966 0.0
Sc2 Sc 0.24816 0.02674 0.0487 0.0
O3 O 0.22058 0.05736 0.06074 0.0
C4 C 0.23765 0.01843 0.15142 0.0
C5 C 0.2075 0.11165 0.1286 0.0
C6 C 0.2865 0.07927 0.05079 0.0
C7 C 0.15969 0.0877 0.0293 0.0
C8 C 0.19067 0.99525 0.05009 0.0
C9 C 0.24115 0.05266 0.95254 0.0
O10 O 0.21457 0.03027 0.15077 0.0
O11 O 0.21632 0.11725 0.08986 0.0
O12 O 0.28326 0.05347 0.05364 0.0
O13 O 0.15931 0.07233 0.06339 0.0
O14 O 0.21589 0.99717 0.04012 0.0
O15 O 0.23207 0.07568 0.96572 0.0
O16 O 0.17783 0.01332 0.0724 0.0
O17 O 0.18166 0.09599 0.01146 0.0
O18 O 0.24723 0.03327 0.97874 0.0
O19 O 0.19822 0.08829 0.13929 0.0
O20 O 0.25283 0.01589 0.11753 0.0
O21 O 0.26696 0.09596 0.04384 0.0
Sc22 Sc 0.05621 0.80082 0.86756 0.0
Sc23 Sc 0.09452 0.76441 0.94451 0.0
Sc24 Sc 0.0276 0.74527 0.91986 0.0
O25 O 0.0597 0.76996 0.9106 0.0
C26 C -0.0002 0.80434 0.91194 0.0
C27 C 0.09344 0.82792 0.94276 0.0
C28 C 0.04742 0.75528 0.01656 0.0
C29 C 0.1143 0.7794 0.84529 0.0
C30 C 0.02187 0.75304 0.82058 0.0
C31 C 0.07796 0.7038 0.93112 0.0
O32 O 0.02193 0.81694 0.9036 0.0
O33 O 0.09538 0.80635 0.96606 0.0
O34 O 0.02817 0.75509 0.98823 0.0
O35 O 0.09049 0.78538 0.83107 0.0
O36 O 0.02578 0.73519 0.85059 0.0
O37 O 0.09618 0.72199 0.92585 0.0
O38 O 0.0288 0.77801 0.82506 0.0
O39 O 0.1194 0.77438 0.88624 0.0
O40 O 0.05258 0.70944 0.93359 0.0
O41 O 0.08286 0.82805 0.90413 0.0
O42 O -0.00193 0.77826 0.91051 0.0
O43 O 0.07273 0.75466 0.00608 0.0
Sc44 Sc 0.74807 0.96786 0.04674 0.0
Sc45 Sc 0.76814 0.89918 0.02745 0.0
Sc46 Sc 0.80782 0.94113 0.09684 0.0
O47 O 0.77458 0.93606 0.05708 0.0
C48 C 0.8064 0.99739 0.04345 0.0
C49 C 0.75146 0.94054 0.95065 0.0
C50 C 0.83318 0.90303 0.02111 0.0
C51 C 0.70692 0.91792 0.05125 0.0
C52 C 0.76252 0.97547 0.14896 0.0
C53 C 0.78699 0.88152 0.12453 0.0
O54 O 0.78121 0.99579 0.03309 0.0
O55 O 0.76147 0.91775 0.9632 0.0
O56 O 0.83564 0.92099 0.05147 0.0
O57 O 0.71178 0.94331 0.05663 0.0
O58 O 0.78437 0.96148 0.14701 0.0
O59 O 0.7743 0.87654 0.08847 0.0
O60 O 0.74722 0.97996 0.11563 0.0
O61 O 0.72525 0.90053 0.04117 0.0
O62 O 0.79998 0.90361 0.13167 0.0
O63 O 0.74546 0.95985 0.97716 0.0
O64 O 0.81871 0.9795 0.06675 0.0
O65 O 0.81019 0.89336 0.00946 0.0
Sc66 Sc 0.96795 0.2512 0.92906 0.0
Sc67 Sc 0.89983 0.22945 0.94673 0.0
Sc68 Sc 0.94111 0.19528 0.86899 0.0
O69 O 0.93628 0.22543 0.91492 0.0
C70 C 0.97509 0.24405 0.82525 0.0
C71 C 0.91657 0.29173 0.93062 0.0
C72 C 0.88099 0.21507 0.84708 0.0
C73 C 0.94212 0.24328 0.02467 0.0
C74 C 0.99739 0.19258 0.92182 0.0
C75 C 0.90492 0.16493 0.94265 0.0
O76 O 0.9785 0.25786 0.86052 0.0
O77 O 0.89883 0.27285 0.93469 0.0
O78 O 0.90427 0.20633 0.83494 0.0
O79 O 0.96187 0.24837 -0.00118 0.0
O80 O 0.97879 0.18143 0.89847 0.0
O81 O 0.8976 0.18664 0.96268 0.0
O82 O 0.99652 0.21749 0.93439 0.0
O83 O 0.91857 0.23601 0.01116 0.0
O84 O 0.9195 0.16503 0.90767 0.0
O85 O 0.94222 0.28729 0.92833 0.0
O86 O 0.96248 0.22141 0.8239 0.0
O87 O 0.87586 0.22282 0.88667 0.0
Sc88 Sc 0.74603 0.0279 0.55484 0.0
Sc89 Sc 0.76536 0.09478 0.52625 0.0
Sc90 Sc 0.80558 0.0555 0.5976 0.0
O91 O 0.77224 0.05959 0.55938 0.0
C92 C 0.76056 0.02218 0.65295 0.0
C93 C 0.70508 0.07908 0.5492 0.0
C94 C 0.78578 0.11459 0.62284 0.0
C95 C 0.74985 0.04743 0.45599 0.0
C96 C 0.80469 0.99812 0.55471 0.0
C97 C 0.82911 0.09252 0.51871 0.0
O98 O 0.74106 0.02563 0.62559 0.0
O99 O 0.72386 0.09697 0.54894 0.0
O100 O 0.794 0.09102 0.63518 0.0
O101 O 0.74976 0.0284 0.48476 0.0
O102 O 0.81833 0.01987 0.5615 0.0
O103 O 0.80616 0.09677 0.5002 0.0
O104 O 0.77865 0.99744 0.5575 0.0
O105 O 0.75317 0.07271 0.46593 0.0
O106 O 0.83144 0.07997 0.55549 0.0
O107 O 0.70993 0.05349 0.5485 0.0
O108 O 0.78492 0.02974 0.64487 0.0
O109 O 0.77739 0.1197 0.58342 0.0
Sc110 Sc 0.05581 0.19009 0.38172 0.0
Sc111 Sc 0.0947 0.23148 0.45149 0.0
Sc112 Sc 0.02725 0.24946 0.42385 0.0
O113 O 0.05939 0.22377 0.41928 0.0
C114 C 0.02096 0.23384 0.32588 0.0
C115 C 0.11409 0.21042 0.3554 0.0
C116 C 0.07772 0.29118 0.42668 0.0
C117 C 0.09341 0.1678 0.46105 0.0
C118 C -0.00089 0.19011 0.42613 0.0
C119 C 0.04805 0.24814 0.52203 0.0
O120 O 0.02919 0.20969 0.33433 0.0
O121 O 0.11941 0.21866 0.39479 0.0
O122 O 0.05227 0.28597 0.42849 0.0
O123 O 0.08115 0.16513 0.42406 0.0
O124 O 0.99762 0.21614 0.42293 0.0
O125 O 0.07316 0.2449 0.51137 0.0
O126 O 0.02105 0.1769 0.41886 0.0
O127 O 0.09724 0.19096 0.47928 0.0
O128 O 0.02854 0.2468 0.49418 0.0
O129 O 0.09053 0.20226 0.34326 0.0
O130 O 0.02403 0.25362 0.35292 0.0
O131 O 0.09596 0.27265 0.42665 0.0
Sc132 Sc 0.18866 0.9385 0.59619 0.0
Sc133 Sc 0.23074 0.89992 0.52663 0.0
Sc134 Sc 0.24787 0.96748 0.55515 0.0
O135 O 0.22249 0.93512 0.55909 0.0
C136 C 0.18862 0.99587 0.55368 0.0
C137 C 0.16699 0.90094 0.51637 0.0
C138 C 0.24625 0.94734 0.45665 0.0
C139 C 0.20958 0.87994 0.62237 0.0
C140 C 0.23234 0.97284 0.65293 0.0
C141 C 0.2902 0.91746 0.5511 0.0
O142 O 0.17545 0.9738 0.55983 0.0
O143 O 0.19028 0.89679 0.49896 0.0
O144 O 0.24486 0.96665 0.48493 0.0
O145 O 0.20057 0.90333 0.63418 0.0
O146 O 0.25214 0.96999 0.62602 0.0
O147 O 0.27198 0.89899 0.55112 0.0
O148 O 0.20825 0.96465 0.6442 0.0
O149 O 0.21857 0.87487 0.58334 0.0
O150 O 0.28458 0.94287 0.54967 0.0
O151 O 0.16393 0.9136 0.55294 0.0
O152 O 0.21459 0.99715 0.55707 0.0
O153 O 0.24348 0.92205 0.46686 0.0
Sc154 Sc 0.96796 0.74529 0.42347 0.0
Sc155 Sc 0.89936 0.76284 0.44801 0.0
Sc156 Sc 0.93867 0.80451 0.37869 0.0
O157 O 0.93525 0.77082 0.41687 0.0
C158 C 0.99672 0.80431 0.42246 0.0
C159 C 0.94519 0.74795 0.52095 0.0
C160 C 0.90134 0.82744 0.45778 0.0
C161 C 0.91829 0.70273 0.42592 0.0
C162 C 0.97128 0.75904 0.32257 0.0
C163 C 0.87957 0.78347 0.35244 0.0
O164 O 0.9975 0.77828 0.42423 0.0
O165 O 0.92046 0.75213 0.50908 0.0
O166 O 0.91619 0.83045 0.42352 0.0
O167 O 0.94359 0.70856 0.42638 0.0
O168 O 0.96138 0.7828 0.32906 0.0
O169 O 0.87463 0.77281 0.39021 0.0
O170 O 0.97303 0.74093 0.35278 0.0
O171 O 0.89954 0.72075 0.427 0.0
O172 O 0.90234 0.79433 0.34249 0.0
O173 O 0.96524 0.74754 0.49406 0.0
O174 O 0.97538 0.81748 0.41136 0.0
O175 O 0.89468 0.80406 0.47277 0.0
Sc176 Sc 0.6949 0.55637 0.60458 0.0
Sc177 Sc 0.7342 0.59804 0.53417 0.0
Sc178 Sc 0.75316 0.52881 0.5516 0.0
O179 O 0.72753 0.56111 0.56354 0.0
C180 C 0.74121 0.52225 0.6547 0.0
C181 C 0.71605 0.61616 0.63132 0.0
C182 C 0.79544 0.57807 0.55369 0.0
C183 C 0.66897 0.5948 0.53016 0.0
C184 C 0.69473 0.49958 0.55241 0.0
C185 C 0.74798 0.55619 0.45595 0.0
O186 O 0.7193 0.53621 0.6537 0.0
O187 O 0.72884 0.62086 0.59531 0.0
O188 O 0.78993 0.55278 0.55802 0.0
O189 O 0.66671 0.57656 0.56007 0.0
O190 O 0.71968 0.50099 0.5409 0.0
O191 O 0.73967 0.57947 0.4695 0.0
O192 O 0.68296 0.51783 0.5757 0.0
O193 O 0.6919 0.60434 0.51796 0.0
O194 O 0.75357 0.53641 0.48176 0.0
O195 O 0.70309 0.59411 0.6387 0.0
O196 O 0.75581 0.51738 0.62069 0.0
O197 O 0.77747 0.59631 0.54615 0.0
Sc198 Sc 0.55415 0.30752 0.37675 0.0
Sc199 Sc 0.59345 0.27039 0.45216 0.0
Sc200 Sc 0.52682 0.24979 0.42616 0.0
O201 O 0.55821 0.2758 0.41863 0.0
C202 C 0.49797 0.30908 0.42366 0.0
C203 C 0.5915 0.3339 0.45284 0.0
C204 C 0.54743 0.25518 0.52406 0.0
C205 C 0.61252 0.28695 0.35335 0.0
C206 C 0.51926 0.26141 0.32717 0.0
C207 C 0.57837 0.20931 0.43199 0.0
O208 O 0.51914 0.32244 0.4122 0.0
O209 O 0.59377 0.31209 0.47551 0.0
O210 O 0.52822 0.25487 0.49574 0.0
O211 O 0.58865 0.29313 0.33974 0.0
O212 O 0.52302 0.24287 0.35602 0.0
O213 O 0.59619 0.22823 0.43208 0.0
O214 O 0.52711 0.28594 0.3327 0.0
O215 O 0.61794 0.28161 0.39405 0.0
O216 O 0.55275 0.21395 0.43259 0.0
O217 O 0.58039 0.33436 0.41464 0.0
O218 O 0.49707 0.28294 0.42439 0.0
O219 O 0.57249 0.25861 0.51348 0.0
Sc220 Sc 0.24538 0.47102 0.55049 0.0
Sc221 Sc 0.26616 0.4035 0.52955 0.0
Sc222 Sc 0.30294 0.44432 0.60215 0.0
O223 O 0.27131 0.43954 0.56052 0.0
C224 C 0.30457 0.49961 0.55284 0.0
C225 C 0.25094 0.44757 0.45422 0.0
C226 C 0.32948 0.40541 0.52851 0.0
C227 C 0.20516 0.41926 0.54728 0.0
C228 C 0.25675 0.48053 0.64938 0.0
C229 C 0.28335 0.3864 0.62908 0.0
O230 O 0.27846 0.5009 0.5526 0.0
O231 O 0.25459 0.42301 0.46743 0.0
O232 O 0.32987 0.41702 0.56631 0.0
O233 O 0.2098 0.44486 0.54453 0.0
O234 O 0.28131 0.47264 0.64433 0.0
O235 O 0.27773 0.38036 0.58873 0.0
O236 O 0.23824 0.47616 0.62061 0.0
O237 O 0.22407 0.40142 0.5499 0.0
O238 O 0.28893 0.41066 0.6417 0.0
O239 O 0.25034 0.46808 0.48025 0.0
O240 O 0.31763 0.47805 0.56362 0.0
O241 O 0.30771 0.40274 0.50592 0.0
Sc242 Sc 0.46991 0.7514 0.42906 0.0
Sc243 Sc 0.40177 0.73301 0.45041 0.0
Sc244 Sc 0.44311 0.69169 0.38396 0.0
O245 O 0.43813 0.72543 0.42136 0.0
C246 C 0.47826 0.73625 0.33069 0.0
C247 C 0.41922 0.79303 0.42838 0.0
C248 C 0.38501 0.71137 0.35322 0.0
C249 C 0.44596 0.74933 0.52533 0.0
C250 C 0.49871 0.69224 0.43303 0.0
C251 C 0.40342 0.66916 0.46016 0.0
O252 O 0.47507 0.75563 0.35843 0.0
O253 O 0.40109 0.77448 0.42665 0.0
O254 O 0.40884 0.70286 0.3431 0.0
O255 O 0.46652 0.74909 0.4995 0.0
O256 O 0.47732 0.67885 0.42308 0.0
O257 O 0.39833 0.69241 0.47719 0.0
O258 O 0.49985 0.71831 0.43079 0.0
O259 O 0.42139 0.74551 0.51222 0.0
O260 O 0.4174 0.6663 0.42489 0.0
O261 O 0.44462 0.78776 0.43157 0.0
O262 O 0.47014 0.71194 0.33798 0.0
O263 O 0.37885 0.7206 0.39167 0.0
Sc264 Sc 0.24934 0.52664 0.04863 0.0
Sc265 Sc 0.26766 0.59507 0.03026 0.0
Sc266 Sc 0.30565 0.55488 0.10289 0.0
O267 O 0.27411 0.55881 0.0603 0.0
C268 C 0.26105 0.5164 0.14842 0.0
C269 C 0.20727 0.57711 0.04985 0.0
C270 C 0.28446 0.61227 0.12996 0.0
C271 C 0.25262 0.55203 0.95329 0.0
C272 C 0.30995 0.50043 0.04949 0.0
C273 C 0.33088 0.59507 0.02972 0.0
O274 O 0.24305 0.51897 0.11832 0.0
O275 O 0.22558 0.59559 0.05089 0.0
O276 O 0.29034 0.58807 0.14245 0.0
O277 O 0.25265 0.53126 0.97858 0.0
O278 O 0.32199 0.52132 0.06551 0.0
O279 O 0.30913 0.59717 0.00689 0.0
O280 O 0.28398 0.49857 0.04581 0.0
O281 O 0.25634 0.5764 0.96723 0.0
O282 O 0.33164 0.58301 0.06713 0.0
O283 O 0.21268 0.55164 0.04677 0.0
O284 O 0.28498 0.52615 0.14502 0.0
O285 O 0.27875 0.61822 0.08967 0.0
Sc286 Sc 0.55398 0.69305 0.88009 0.0
Sc287 Sc 0.59596 0.73097 0.95158 0.0
Sc288 Sc 0.52878 0.75359 0.92894 0.0
O289 O 0.5596 0.72597 0.92022 0.0
C290 C 0.52026 0.73951 0.82831 0.0
C291 C 0.61381 0.71165 0.85382 0.0
C292 C 0.58088 0.79287 0.92911 0.0
C293 C 0.59118 0.66655 0.95661 0.0
C294 C 0.49762 0.69547 0.92982 0.0
C295 C 0.55271 0.74823 0.02648 0.0
O296 O 0.53016 0.71563 0.83278 0.0
O297 O 0.61929 0.72121 0.89227 0.0
O298 O 0.55518 0.78911 0.92693 0.0
O299 O 0.57626 0.6649 0.92212 0.0
O300 O 0.49847 0.72139 0.93482 0.0
O301 O 0.57649 0.74063 0.01431 0.0
O302 O 0.51716 0.68155 0.91348 0.0
O303 O 0.59847 0.68927 0.97318 0.0
O304 O 0.5332 0.75264 -0.00048 0.0
O305 O 0.59038 0.70243 0.84307 0.0
O306 O 0.52106 0.75757 0.85869 0.0
O307 O 0.59791 0.77345 0.93441 0.0
Sc308 Sc 0.69029 0.4413 0.10492 0.0
Sc309 Sc 0.72922 0.40272 0.03169 0.0
Sc310 Sc 0.74775 0.46984 0.05813 0.0
O311 O 0.72256 0.4378 0.06464 0.0
C312 C 0.68816 0.49746 0.05937 0.0
C313 C 0.666 0.40297 0.02838 0.0
C314 C 0.74382 0.44947 0.96028 0.0
C315 C 0.71158 0.38355 0.12996 0.0
C316 C 0.73534 0.47657 0.1565 0.0
C317 C 0.78938 0.41921 0.05183 0.0
O318 O 0.67528 0.47537 0.06712 0.0
O319 O 0.68808 0.40152 0.00634 0.0
O320 O 0.74254 0.46891 0.98829 0.0
O321 O 0.70497 0.40744 0.14317 0.0
O322 O 0.75431 0.47244 0.12851 0.0
O323 O 0.77091 0.401 0.05403 0.0
O324 O 0.71076 0.46928 0.14945 0.0
O325 O 0.71744 0.37805 0.08944 0.0
O326 O 0.78405 0.44471 0.05008 0.0
O327 O 0.66477 0.41394 0.06665 0.0
O328 O 0.71418 0.49917 0.06219 0.0
O329 O 0.74151 0.42425 0.97108 0.0
Sc330 Sc 0.46762 0.24372 0.93129 0.0
Sc331 Sc 0.40146 0.27065 0.94994 0.0
Sc332 Sc 0.44471 0.30203 0.87266 0.0
O333 O 0.43795 0.27202 0.91796 0.0
C334 C 0.50097 0.30018 0.92531 0.0
C335 C 0.44257 0.25298 0.02718 0.0
C336 C 0.41028 0.33455 0.94647 0.0
C337 C 0.41351 0.20732 0.93221 0.0
C338 C 0.47587 0.2514 0.82825 0.0
C339 C 0.38357 0.2865 0.85056 0.0
O340 O 0.4985 0.27516 0.93661 0.0
O341 O 0.41966 0.2621 0.01379 0.0
O342 O 0.42444 0.33348 0.91109 0.0
O343 O 0.43941 0.20965 0.92968 0.0
O344 O 0.46516 0.27504 0.82759 0.0
O345 O 0.37808 0.27942 0.89028 0.0
O346 O 0.47755 0.23668 0.86278 0.0
O347 O 0.39745 0.22767 0.93688 0.0
O348 O 0.40741 0.29325 0.83798 0.0
O349 O 0.46195 0.24663 0.00122 0.0
O350 O 0.48292 0.31314 0.90318 0.0
O351 O 0.40221 0.31335 0.96699 0.0
H352 H 0.19411 0.16524 0.11421 0.0
H353 H 0.16567 0.19161 0.37197 0.0
H354 H 0.21425 0.1079 0.21829 0.0
H355 H 0.11303 0.21968 0.26622 0.0
H356 H 0.19804 0.17435 0.31611 0.0
H357 H 0.17921 0.19823 0.17095 0.0
C358 C 0.19624 0.15996 0.14902 0.0
C359 C 0.205 0.13374 0.16174 0.0
C360 C 0.17977 0.18503 0.3053 0.0
C361 C 0.1883 0.17122 0.2263 0.0
C362 C 0.16142 0.195 0.33704 0.0
C363 C 0.13658 0.20672 0.32346 0.0
C364 C 0.17331 0.1873 0.25996 0.0
C365 C 0.13187 0.21043 0.27787 0.0
C366 C 0.18763 0.1787 0.18125 0.0
C367 C 0.20722 0.12781 0.20722 0.0
N368 N 0.14995 0.20048 0.24765 0.0
N369 N 0.19864 0.14632 0.23793 0.0
H370 H 0.16562 0.79869 0.86279 0.0
H371 H 0.19468 0.82696 0.60569 0.0
H372 H 0.11447 0.76937 0.756 0.0
H373 H 0.21648 0.88202 0.71213 0.0
H374 H 0.17912 0.79349 0.6611 0.0
H375 H 0.19805 0.81628 0.80766 0.0
C376 C 0.16169 0.79509 0.82781 0.0
C377 C 0.13717 0.78294 0.81382 0.0
C378 C 0.18801 0.81262 0.67221 0.0
C379 C 0.17401 0.80296 0.75094 0.0
C380 C 0.19701 0.83162 0.64072 0.0
C381 C 0.2065 0.85736 0.6545 0.0
C382 C 0.18899 0.81935 0.71761 0.0
C383 C 0.20892 0.8625 0.70023 0.0
C384 C 0.18008 0.8053 0.79643 0.0
C385 C 0.13299 0.77899 0.76808 0.0
N386 N 0.19997 0.84377 0.73019 0.0
N387 N 0.15106 0.78928 0.7382 0.0
H388 H 0.88203 0.77349 0.26373 0.0
H389 H 0.78139 0.88781 0.21373 0.0
H390 H 0.8276 0.80162 0.36679 0.0
H391 H 0.7983 0.82723 0.11304 0.0
H392 H 0.79526 0.85498 0.27092 0.0
H393 H 0.84967 0.78999 0.20768 0.0
C394 C 0.86283 0.78243 0.27443 0.0
C395 C 0.8574 0.78637 0.31973 0.0
C396 C 0.79519 0.84856 0.23644 0.0
C397 C 0.82089 0.8061 0.25613 0.0
C398 C 0.78737 0.86729 0.20387 0.0
C399 C 0.78892 0.86015 0.15881 0.0
C400 C 0.80555 0.8229 0.22365 0.0
C401 C 0.79682 0.83341 0.14754 0.0
C402 C 0.84437 0.7918 0.24252 0.0
C403 C 0.83239 0.79817 0.33209 0.0
N404 N 0.80561 0.81593 0.17975 0.0
N405 N 0.81533 0.80838 0.30039 0.0
H406 H 0.802 0.16712 0.60579 0.0
H407 H 0.82883 0.19787 0.86314 0.0
H408 H 0.7784 0.11327 0.71259 0.0
H409 H 0.88248 0.22377 0.7576 0.0
H410 H 0.79677 0.18018 0.80724 0.0
H411 H 0.81787 0.20065 0.66102 0.0
C412 C 0.79936 0.16275 0.64083 0.0
C413 C 0.78921 0.13731 0.65478 0.0
C414 C 0.81519 0.19048 0.79641 0.0
C415 C 0.80707 0.17544 0.71771 0.0
C416 C 0.83336 0.20077 0.82821 0.0
C417 C 0.85842 0.212 0.81485 0.0
C418 C 0.82204 0.19187 0.75112 0.0
C419 C 0.86346 0.21498 0.76918 0.0
C420 C 0.80853 0.18178 0.67223 0.0
C421 C 0.78643 0.13254 0.70055 0.0
N422 N 0.84557 0.20468 0.7389 0.0
N423 N 0.79554 0.15132 0.73042 0.0
H424 H 0.66669 0.69722 0.87106 0.0
H425 H 0.70108 0.66897 0.61565 0.0
H426 H 0.61154 0.71643 0.76346 0.0
H427 H 0.72132 0.6128 0.7212 0.0
H428 H 0.68233 0.70092 0.6711 0.0
H429 H 0.70038 0.68088 0.81657 0.0
C430 C 0.66204 0.69883 0.83594 0.0
C431 C 0.63624 0.70788 0.82161 0.0
C432 C 0.69171 0.68197 0.68208 0.0
C433 C 0.67462 0.68965 0.75959 0.0
C434 C 0.70259 0.6639 0.65063 0.0
C435 C 0.7126 0.63828 0.6641 0.0
C436 C 0.69144 0.67447 0.72712 0.0
C437 C 0.71366 0.63237 0.70967 0.0
C438 C 0.68118 0.68941 0.80501 0.0
C439 C 0.63112 0.7093 0.77577 0.0
N440 N 0.70298 0.65026 0.73963 0.0
N441 N 0.65008 0.70008 0.74632 0.0
H442 H 0.61133 0.2761 0.26451 0.0
H443 H 0.72235 0.3848 0.21875 0.0
H444 H 0.66448 0.30543 0.36861 0.0
H445 H 0.69239 0.33179 0.11489 0.0
H446 H 0.70604 0.35221 0.27422 0.0
H447 H 0.6444 0.29157 0.20922 0.0
C448 C 0.63032 0.28523 0.27571 0.0
C449 C 0.63506 0.28984 0.3211 0.0
C450 C 0.70365 0.34728 0.23932 0.0
C451 C 0.67267 0.30822 0.25805 0.0
C452 C 0.71294 0.36591 0.20766 0.0
C453 C 0.7084 0.36108 0.16228 0.0
C454 C 0.68901 0.32406 0.2255 0.0
C455 C 0.69623 0.33628 0.1496 0.0
C456 C 0.64922 0.29401 0.24414 0.0
C457 C 0.66002 0.30158 0.33389 0.0
N458 N 0.6863 0.31899 0.18112 0.0
N459 N 0.67762 0.31101 0.30245 0.0
H460 H 0.33173 0.30426 0.86827 0.0
H461 H 0.30052 0.33412 0.61231 0.0
H462 H 0.3845 0.27957 0.76054 0.0
H463 H 0.27716 0.3882 0.71937 0.0
H464 H 0.31804 0.30137 0.66714 0.0
H465 H 0.29879 0.32198 0.81378 0.0
C466 C 0.33596 0.30176 0.83315 0.0
C467 C 0.36098 0.29077 0.81876 0.0
C468 C 0.30843 0.32012 0.67853 0.0
C469 C 0.32352 0.31081 0.75669 0.0
C470 C 0.29829 0.33873 0.64736 0.0
C471 C 0.28774 0.36406 0.66139 0.0
C472 C 0.30758 0.32675 0.72392 0.0
C473 C 0.28551 0.36905 0.7072 0.0
C474 C 0.31727 0.31202 0.80219 0.0
C475 C 0.36557 0.28822 0.77292 0.0
N476 N 0.29562 0.35067 0.73688 0.0
N477 N 0.34712 0.29842 0.74345 0.0
H478 H 0.30315 0.66383 0.11294 0.0
H479 H 0.33225 0.69604 0.36895 0.0
H480 H 0.27756 0.61114 0.22015 0.0
H481 H 0.38829 0.7154 0.26291 0.0
H482 H 0.29969 0.67847 0.31367 0.0
H483 H 0.32146 0.6962 0.16773 0.0
C484 C 0.30056 0.6595 0.14801 0.0
C485 C 0.2891 0.63465 0.16213 0.0
C486 C 0.31884 0.68724 0.30258 0.0
C487 C 0.30985 0.67152 0.22457 0.0
C488 C 0.33732 0.6974 0.33396 0.0
C489 C 0.36306 0.70689 0.32036 0.0
C490 C 0.32602 0.68712 0.25742 0.0
C491 C 0.36875 0.70796 0.2747 0.0
C492 C 0.31117 0.67788 0.17914 0.0
C493 C 0.28652 0.62995 0.20795 0.0
N494 N 0.35044 0.69798 0.24482 0.0
N495 N 0.29706 0.64811 0.23761 0.0
H496 H 0.19979 0.9659 0.97451 0.0
H497 H 0.09991 0.84393 0.02948 0.0
H498 H 0.14727 0.96966 0.08961 0.0
H499 H 0.1151 0.86972 0.89452 0.0
H500 H 0.12254 0.88573 0.05628 0.0
H501 H 0.17452 0.92574 0.94837 0.0
C502 C 0.183 0.95818 -0.00566 0.0
C503 C 0.17555 0.97105 0.03424 0.0
C504 C 0.12068 0.88221 0.02084 0.0
C505 C 0.14692 0.92512 0.00486 0.0
C506 C 0.10793 0.85842 0.00557 0.0
C507 C 0.10563 0.85347 0.95976 0.0
C508 C 0.13179 0.90066 -0.00994 0.0
C509 C 0.11628 0.87288 0.93011 0.0
C510 C 0.16854 0.93544 0.97929 0.0
C511 C 0.15352 0.96037 0.05854 0.0
N512 N 0.12921 0.89549 0.94579 0.0
N513 N 0.1401 0.93777 0.04368 0.0
H514 H 0.88672 0.91969 0.0307 0.0
H515 H 0.94661 0.7873 0.91028 0.0
H516 H 0.83657 0.85947 0.96414 0.0
H517 H 0.99665 0.85768 0.94056 0.0
H518 H 0.90621 0.81309 0.9329 0.0
H519 H 0.92752 0.8972 0.00044 0.0
C520 C 0.88423 0.90191 0.00952 0.0
C521 C 0.85811 0.8914 0.00023 0.0
C522 C 0.92599 0.82299 0.93434 0.0
C523 C 0.90469 0.86549 0.96594 0.0
C524 C 0.94911 0.80822 0.92158 0.0
C525 C 0.97508 0.82032 0.92362 0.0
C526 C 0.92882 0.84997 0.94987 0.0
C527 C 0.97701 0.84758 0.93833 0.0
C528 C 0.90753 0.88912 -0.00778 0.0
C529 C 0.8562 0.86833 0.97241 0.0
N530 N 0.95419 0.86143 0.95128 0.0
N531 N 0.87914 0.85605 0.95665 0.0
H532 H 0.89437 0.14976 0.02837 0.0
H533 H 0.80027 0.02551 0.96563 0.0
H534 H 0.88978 0.12082 0.89298 0.0
H535 H 0.8483 0.02332 0.08602 0.0
H536 H 0.82693 0.06516 0.94059 0.0
H537 H 0.8719 0.10747 0.0531 0.0
C538 C 0.88883 0.1344 0.00398 0.0
C539 C 0.89398 0.13863 0.95864 0.0
C540 C 0.83162 0.05586 0.97239 0.0
C541 C 0.86777 0.09096 0.98643 0.0
C542 C 0.81636 0.03345 0.98679 0.0
C543 C 0.82216 0.02122 0.0279 0.0
C544 C 0.85224 0.06649 -0.00013 0.0
C545 C 0.84332 0.03214 0.05399 0.0
C546 C 0.8761 0.11036 0.01807 0.0
C547 C 0.88637 0.11817 0.92828 0.0
N548 N 0.85743 0.05443 0.03979 0.0
N549 N 0.87323 0.09535 0.94265 0.0
H550 H 0.02297 0.15178 0.87537 0.0
H551 H 0.11387 0.10014 0.07676 0.0
H552 H 0.02442 0.19444 0.00103 0.0
H553 H 0.14663 0.10134 0.9436 0.0
H554 H 0.07316 0.1245 0.04989 0.0
H555 H 0.06159 0.12338 0.90066 0.0
C556 C 0.03138 0.15507 0.90828 0.0
C557 C 0.02072 0.17555 0.93613 0.0
C558 C 0.08918 0.1191 0.0266 0.0
C559 C 0.064 0.14285 0.96538 0.0
C560 C 0.11224 0.10503 0.04173 0.0
C561 C 0.13361 0.0988 0.0123 0.0
C562 C 0.08724 0.12635 0.98161 0.0
C563 C 0.13061 0.10591 0.96733 0.0
C564 C 0.05333 0.13896 0.92255 0.0
C565 C 0.03228 0.17905 0.97844 0.0
N566 N 0.10776 0.11926 0.95324 0.0
N567 N 0.05317 0.16267 -0.00801 0.0
H568 H 0.78526 0.94547 0.556 0.0
H569 H 0.91952 0.88019 0.45045 0.0
H570 H 0.85825 0.99235 0.52947 0.0
H571 H 0.8564 0.83152 0.51195 0.0
H572 H 0.89704 0.9216 0.47773 0.0
H573 H 0.81028 0.90356 0.53769 0.0
C574 C 0.80653 0.94698 0.5463 0.0
C575 C 0.81962 0.97252 0.54408 0.0
C576 C 0.88825 0.90186 0.48564 0.0
C577 C 0.84835 0.92459 0.52308 0.0
C578 C 0.90106 0.87819 0.47004 0.0
C579 C 0.88975 0.85233 0.47872 0.0
C580 C 0.86371 0.89973 0.50955 0.0
C581 C 0.86587 0.85101 0.50451 0.0
C582 C 0.82083 0.92302 0.53612 0.0
C583 C 0.84729 0.97315 0.53164 0.0
N584 N 0.85345 0.87441 0.51858 0.0
N585 N 0.86067 0.94957 0.52131 0.0
H586 H 0.83244 0.13415 0.45796 0.0
H587 H 0.99571 0.13736 0.45617 0.0
H588 H 0.88238 0.07849 0.53473 0.0
H589 H 0.94577 0.20719 0.42128 0.0
H590 H 0.95427 0.11179 0.47416 0.0
H591 H 0.87399 0.15707 0.43228 0.0
C592 C 0.85213 0.1265 0.46893 0.0
C593 C 0.85395 0.10448 0.49877 0.0
C594 C 0.95242 0.1327 0.46253 0.0
C595 C 0.90141 0.13063 0.46963 0.0
C596 C 0.97604 0.14731 0.45219 0.0
C597 C 0.9742 0.17452 0.43742 0.0
C598 C 0.92677 0.14525 0.45752 0.0
C599 C 0.94815 0.18635 0.43294 0.0
C600 C 0.87579 0.13973 0.45453 0.0
C601 C 0.88002 0.09554 0.51204 0.0
N602 N 0.92542 0.1716 0.44284 0.0
N603 N 0.90273 0.10868 0.49742 0.0
H604 H 0.1357 0.16423 0.52083 0.0
H605 H 0.13554 0.00043 0.52546 0.0
H606 H 0.07799 0.11473 0.44768 0.0
H607 H 0.20638 0.04898 0.559 0.0
H608 H 0.11052 0.0425 0.50828 0.0
H609 H 0.15792 0.12226 0.54742 0.0
C610 C 0.12747 0.14456 0.51088 0.0
C611 C 0.1051 0.14295 0.48173 0.0
C612 C 0.13153 0.04391 0.51948 0.0
C613 C 0.13038 0.09505 0.51189 0.0
C614 C 0.14582 0.01992 0.52934 0.0
C615 C 0.17318 0.02116 0.54338 0.0
C616 C 0.14455 0.06935 0.52417 0.0
C617 C 0.18542 0.04703 0.54784 0.0
C618 C 0.14027 0.12067 0.52579 0.0
C619 C 0.09536 0.11693 0.46975 0.0
N620 N 0.171 0.07012 0.53832 0.0
N621 N 0.10809 0.09401 0.4848 0.0
H622 H 0.16419 0.8574 0.45896 0.0
H623 H 0.00101 0.85853 0.4447 0.0
H624 H 0.11387 0.91706 0.52656 0.0
H625 H 0.04959 0.78569 0.42362 0.0
H626 H 0.04279 0.88384 0.46213 0.0
H627 H 0.12265 0.83473 0.43207 0.0
C628 C 0.14444 0.86596 0.46759 0.0
C629 C 0.14245 0.88902 0.4953 0.0
C630 C 0.04425 0.86233 0.4536 0.0
C631 C 0.09506 0.86324 0.46477 0.0
C632 C 0.02046 0.84787 0.4436 0.0
C633 C 0.0218 0.81989 0.433 0.0
C634 C 0.06961 0.84882 0.45237 0.0
C635 C 0.04757 0.80716 0.43208 0.0
C636 C 0.12079 0.85291 0.45252 0.0
C637 C 0.11633 0.89917 0.50563 0.0
N638 N 0.07049 0.82175 0.44155 0.0
N639 N 0.09364 0.88618 0.49041 0.0
H640 H 0.701 0.46993 0.4763 0.0
H641 H 0.60113 0.34935 0.53935 0.0
H642 H 0.65219 0.47479 0.59554 0.0
H643 H 0.61186 0.37581 0.40358 0.0
H644 H 0.62532 0.39072 0.56455 0.0
H645 H 0.67429 0.4301 0.45259 0.0
C646 C 0.68472 0.46254 0.49753 0.0
C647 C 0.67871 0.47563 0.53785 0.0
C648 C 0.62212 0.38743 0.52931 0.0
C649 C 0.64848 0.43005 0.51129 0.0
C650 C 0.60846 0.36389 0.51494 0.0
C651 C 0.60443 0.35925 0.46935 0.0
C652 C 0.63242 0.40588 0.49777 0.0
C653 C 0.61432 0.37871 0.43905 0.0
C654 C 0.66944 0.43997 0.48389 0.0
C655 C 0.65731 0.46533 0.56404 0.0
N656 N 0.62815 0.40101 0.45377 0.0
N657 N 0.64308 0.4429 0.55052 0.0
H658 H 0.3692 0.38145 0.57816 0.0
H659 H 0.4775 0.35674 0.38895 0.0
H660 H 0.34741 0.40005 0.44242 0.0
H661 H 0.46277 0.29589 0.49001 0.0
H662 H 0.43597 0.38125 0.41313 0.0
H663 H 0.41058 0.35841 0.55156 0.0
C664 C 0.3733 0.38092 0.54278 0.0
C665 C 0.35493 0.39261 0.51235 0.0
C666 C 0.44195 0.36251 0.42979 0.0
C667 C 0.40225 0.36672 0.48203 0.0
C668 C 0.46558 0.34866 0.41628 0.0
C669 C 0.47338 0.32429 0.43754 0.0
C670 C 0.42672 0.35229 0.46559 0.0
C671 C 0.45727 0.31453 0.47262 0.0
C672 C 0.39676 0.36766 0.52771 0.0
C673 C 0.36106 0.39113 0.46683 0.0
N674 N 0.43484 0.32874 0.48594 0.0
N675 N 0.38443 0.37858 0.45294 0.0
H676 H 0.35835 0.503 0.52824 0.0
H677 H 0.35964 0.66642 0.51675 0.0
H678 H 0.2868 0.55283 0.55232 0.0
H679 H 0.41853 0.61567 0.44823 0.0
H680 H 0.33637 0.62504 0.54245 0.0
H681 H 0.38407 0.54444 0.51017 0.0
C682 C 0.34806 0.52264 0.52982 0.0
C683 C 0.32033 0.52445 0.54155 0.0
C684 C 0.35449 0.62303 0.52201 0.0
C685 C 0.34972 0.57186 0.52142 0.0
C686 C 0.3679 0.6466 0.50759 0.0
C687 C 0.39096 0.64449 0.48005 0.0
C688 C 0.36442 0.5972 0.50926 0.0
C689 C 0.40067 0.61825 0.46908 0.0
C690 C 0.36274 0.54625 0.51944 0.0
C691 C 0.30806 0.55046 0.54303 0.0
N692 N 0.38733 0.59562 0.48368 0.0
N693 N 0.32287 0.57317 0.5332 0.0
H694 H 0.50226 0.63875 0.46011 0.0
H695 H 0.66512 0.63991 0.47665 0.0
H696 H 0.55159 0.71051 0.43604 0.0
H697 H 0.61555 0.57828 0.54059 0.0
H698 H 0.62364 0.66279 0.45143 0.0
H699 H 0.54363 0.61352 0.48083 0.0
C700 C 0.52177 0.64921 0.45913 0.0
C701 C 0.52345 0.67684 0.4464 0.0
C702 C 0.62185 0.64421 0.47084 0.0
C703 C 0.57078 0.64797 0.46965 0.0
C704 C 0.64554 0.63098 0.48508 0.0
C705 C 0.64389 0.60715 0.51109 0.0
C706 C 0.59623 0.63348 0.48229 0.0
C707 C 0.61784 0.59667 0.52086 0.0
C708 C 0.54533 0.63479 0.47104 0.0
C709 C 0.54928 0.68932 0.44588 0.0
N710 N 0.595 0.60994 0.5065 0.0
N711 N 0.57193 0.67476 0.45715 0.0
H712 H 0.395 0.37789 0.89536 0.0
H713 H 0.35554 0.47965 0.0895 0.0
H714 H 0.40149 0.35169 0.03194 0.0
H715 H 0.3028 0.46871 0.97584 0.0
H716 H 0.38308 0.44028 0.06459 0.0
H717 H 0.37199 0.41987 0.92039 0.0
C718 C 0.39211 0.38127 0.93065 0.0
C719 C 0.40009 0.36138 0.96172 0.0
C720 C 0.36553 0.44668 0.04517 0.0
C721 C 0.37417 0.40916 -0.00976 0.0
C722 C 0.34993 0.46905 0.05918 0.0
C723 C 0.32687 0.4772 0.03469 0.0
C724 C 0.35846 0.43308 0.00576 0.0
C725 C 0.32031 0.46283 -0.00425 0.0
C726 C 0.37881 0.40502 0.94476 0.0
C727 C 0.39553 0.36655 0.00702 0.0
N728 N 0.33621 0.44156 0.98219 0.0
N729 N 0.38293 0.39008 0.02004 0.0
H730 H 0.36955 0.61952 0.08088 0.0
H731 H 0.47501 0.65068 0.89024 0.0
H732 H 0.34833 0.60314 0.94411 0.0
H733 H 0.46369 0.70693 -0.00053 0.0
H734 H 0.43366 0.62608 0.9134 0.0
H735 H 0.40989 0.64471 0.05565 0.0
C736 C 0.37356 0.62101 0.04554 0.0
C737 C 0.35572 0.60919 0.01443 0.0
C738 C 0.44027 0.64386 0.93209 0.0
C739 C 0.40175 0.63767 0.98567 0.0
C740 C 0.46383 0.65777 0.91915 0.0
C741 C 0.47267 0.6808 0.9431 0.0
C742 C 0.42599 0.65264 0.96989 0.0
C743 C 0.45743 0.68932 0.98008 0.0
C744 C 0.39639 0.63554 0.03127 0.0
C745 C 0.36163 0.61202 0.96905 0.0
N746 N 0.43495 0.67501 -0.00726 0.0
N747 N 0.38439 0.62578 0.95593 0.0
H748 H 0.5763 0.61326 0.93929 0.0
H749 H 0.70497 0.55066 0.06482 0.0
H750 H 0.63182 0.66173 0.01864 0.0
H751 H 0.63574 0.50099 0.02704 0.0
H752 H 0.6794 0.59156 0.04366 0.0
H753 H 0.59837 0.57166 0.96749 0.0
C754 C 0.59294 0.61519 0.96287 0.0
C755 C 0.6023 0.64109 0.97639 0.0
C756 C 0.66973 0.57173 0.04022 0.0
C757 C 0.62775 0.59364 0.00825 0.0
C758 C 0.68437 0.54835 0.05206 0.0
C759 C 0.6725 0.52235 0.04757 0.0
C760 C 0.64314 0.56915 0.02311 0.0
C761 C 0.64565 0.52064 0.03114 0.0
C762 C 0.60548 0.59144 0.97897 0.0
C763 C 0.62389 0.64228 0.00717 0.0
N764 N 0.63193 0.54374 0.01911 0.0
N765 N 0.63605 0.61893 0.02165 0.0
H766 H 0.53168 0.29143 -0.00035 0.0
H767 H 0.65136 0.39401 0.94134 0.0
H768 H 0.52648 0.34268 0.88308 0.0
H769 H 0.6249 0.38012 0.07631 0.0
H770 H 0.61085 0.369 0.91466 0.0
H771 H 0.57199 0.3172 0.0238 0.0
C772 C 0.53915 0.30798 0.97901 0.0
C773 C 0.52574 0.31504 0.93942 0.0
C774 C 0.61399 0.37164 0.95006 0.0
C775 C 0.57183 0.34423 0.96653 0.0
C776 C 0.63702 0.38578 0.96526 0.0
C777 C 0.64134 0.38923 0.01105 0.0
C778 C 0.59575 0.3603 0.98096 0.0
C779 C 0.62219 0.37816 0.04072 0.0
C780 C 0.56199 0.32272 -0.00708 0.0
C781 C 0.53616 0.33676 0.91401 0.0
N782 N 0.60038 0.36392 0.02517 0.0
N783 N 0.55879 0.35052 0.92784 0.0
H784 H 0.19411 0.00344 0.69487 0.0
H785 H 0.21614 0.07936 0.88334 0.0
H786 H 0.27902 0.97948 0.70294 0.0
H787 H 0.27335 0.0143 0.91272 0.0
H788 H 0.21707 0.06576 0.80495 0.0
H789 H 0.19922 0.02938 0.76323 0.0
C790 C 0.21392 0.00376 0.71104 0.0
C791 C 0.23613 0.98901 0.69368 0.0
C792 C 0.22941 0.05454 0.82869 0.0
C793 C 0.24228 0.01934 0.77138 0.0
C794 C 0.22905 0.06241 0.87324 0.0
C795 C 0.24408 0.04743 0.90461 0.0
C796 C 0.24491 0.0316 0.81578 0.0
C797 C 0.26084 0.0259 0.88972 0.0
C798 C 0.21694 0.01902 0.74963 0.0
C799 C 0.26141 0.99049 0.71551 0.0
N800 N 0.26062 0.01846 0.84632 0.0
N801 N 0.26369 0.00502 0.75393 0.0
H802 H 0.01595 0.72807 0.29811 0.0
H803 H 0.00447 0.78309 0.04872 0.0
H804 H 0.95055 0.77796 0.24562 0.0
H805 H 0.07074 0.73039 0.08992 0.0
H806 H 0.98573 0.78127 0.12286 0.0
H807 H 0.03663 0.72659 0.2234 0.0
C808 C 0.00574 0.73821 0.27071 0.0
C809 C 0.98171 0.75336 0.27781 0.0
C810 C 0.00441 0.77006 0.11615 0.0
C811 C 0.00518 0.75217 0.19348 0.0
C812 C 0.01518 0.77121 0.07373 0.0
C813 C 0.03903 0.75671 0.06329 0.0
C814 C 0.01744 0.75416 0.14874 0.0
C815 C 0.05231 0.74192 0.09698 0.0
C816 C 0.01763 0.7376 0.22837 0.0
C817 C 0.96929 0.76634 0.2416 0.0
N818 N 0.04117 0.74082 0.13847 0.0
N819 N 0.98125 0.76556 0.20119 0.0
H820 H 0.71294 0.97322 0.91286 0.0
H821 H 0.79731 0.98963 0.69447 0.0
H822 H 0.78078 0.92014 0.88058 0.0
H823 H 0.71349 0.01715 0.70233 0.0
H824 H 0.79093 0.96342 0.76229 0.0
H825 H 0.71117 0.98827 0.83556 0.0
C826 C 0.72723 0.96446 0.88924 0.0
C827 C 0.7474 0.94582 0.90306 0.0
C828 C 0.77382 0.97495 0.74905 0.0
C829 C 0.74563 0.96312 0.81505 0.0
C830 C 0.77753 0.9902 0.71065 0.0
C831 C 0.75601 0.00599 0.69339 0.0
C832 C 0.74857 0.97587 0.77093 0.0
C833 C 0.73064 0.00544 0.71497 0.0
C834 C 0.7261 0.97295 0.84517 0.0
C835 C 0.76509 0.93472 0.87121 0.0
N836 N 0.72771 0.99094 0.75324 0.0
N837 N 0.76416 0.94399 0.8287 0.0
H838 H 0.97405 0.28137 0.06433 0.0
H839 H 0.99059 0.19596 0.28246 0.0
H840 H 0.92248 0.21204 0.09318 0.0
H841 H 0.01469 0.28091 0.27662 0.0
H842 H 0.96545 0.20161 0.21321 0.0
H843 H 0.98858 0.28246 0.14196 0.0
C844 C 0.96556 0.26656 0.08729 0.0
C845 C 0.94738 0.24631 0.07247 0.0
C846 C 0.97598 0.2191 0.22724 0.0
C847 C 0.96413 0.24725 0.1609 0.0
C848 C 0.99061 0.21584 0.26649 0.0
C849 C 0.00514 0.23792 0.28479 0.0
C850 C 0.97627 0.24448 0.20559 0.0
C851 C 0.00395 0.26335 0.2633 0.0
C852 C 0.97374 0.2673 0.13156 0.0
C853 C 0.93663 0.22787 0.10343 0.0
N854 N 0.99009 0.26585 0.22428 0.0
N855 N 0.94561 0.22843 0.1462 0.0
H856 H 0.74177 0.02648 0.1671 0.0
H857 H 0.73505 0.99704 0.42631 0.0
H858 H 0.76711 0.95087 0.22893 0.0
H859 H 0.75544 0.07806 0.37888 0.0
H860 H 0.73316 0.98094 0.35032 0.0
H861 H 0.73432 0.04641 0.24162 0.0
C862 C 0.7453 0.01402 0.19634 0.0
C863 C 0.75507 0.98708 0.19227 0.0
C864 C 0.7379 0.00228 0.35651 0.0
C865 C 0.74641 0.00937 0.27629 0.0
C866 C 0.73906 0.01159 0.39995 0.0
C867 C 0.74609 0.03891 0.4092 0.0
C868 C 0.74365 0.02029 0.32167 0.0
C869 C 0.75034 0.05677 0.37327 0.0
C870 C 0.74127 0.02541 0.23853 0.0
C871 C 0.75968 0.97176 0.23082 0.0
N872 N 0.7493 0.04706 0.33078 0.0
N873 N 0.75521 0.98309 0.27123 0.0
H874 H 0.07861 0.24127 0.5987 0.0
H875 H 0.94778 0.25362 0.74914 0.0
H876 H 0.00022 0.26986 0.55104 0.0
H877 H 0.02847 0.25532 0.8068 0.0
H878 H 0.96768 0.26146 0.67602 0.0
H879 H 0.0624 0.24785 0.67541 0.0
C880 C 0.05819 0.24917 0.60431 0.0
C881 C 0.0405 0.25431 0.56848 0.0
C882 C 0.98113 0.26068 0.70463 0.0
C883 C 0.02204 0.26196 0.65539 0.0
C884 C 0.96972 0.25626 0.74625 0.0
C885 C 0.98661 0.25399 0.78352 0.0
C886 C 0.00971 0.26196 0.70016 0.0
C887 C 0.01491 0.25723 0.77848 0.0
C888 C 0.04901 0.25302 0.64796 0.0
C889 C 0.01436 0.26485 0.57755 0.0
N890 N 0.02575 0.26055 0.73718 0.0
N891 N 0.00586 0.268 0.61999 0.0
H892 H 0.26543 0.99636 0.42822 0.0
H893 H 0.25597 0.96656 0.16858 0.0
H894 H 0.24046 0.91694 0.37939 0.0
H895 H 0.2386 0.04438 0.2304 0.0
H896 H 0.26384 0.94658 0.24292 0.0
H897 H 0.27018 0.01215 0.35236 0.0
C898 C 0.26098 0.98212 0.40154 0.0
C899 C 0.25176 0.95544 0.41025 0.0
C900 C 0.25873 0.96809 0.23988 0.0
C901 C 0.25747 0.9736 0.32301 0.0
C902 C 0.25448 0.97948 0.19778 0.0
C903 C 0.24668 0.00703 0.19392 0.0
C904 C 0.25572 0.98472 0.27765 0.0
C905 C 0.24455 0.02302 0.23231 0.0
C906 C 0.26383 0.99121 0.3582 0.0
C907 C 0.24719 0.93779 0.3741 0.0
N908 N 0.24907 0.01162 0.27263 0.0
N909 N 0.24976 0.94732 0.33174 0.0
H910 H 0.02686 0.708 0.76665 0.0
H911 H 0.91662 0.76575 0.59375 0.0
H912 H 0.9802 0.78211 0.78605 0.0
H913 H 0.98724 0.71816 0.55508 0.0
H914 H 0.93027 0.76063 0.67181 0.0
H915 H 0.00268 0.70065 0.69569 0.0
C916 C 0.01122 0.72237 0.75623 0.0
C917 C 0.00576 0.74593 0.78125 0.0
C918 C 0.9425 0.75103 0.64612 0.0
C919 C 0.97802 0.73755 0.70177 0.0
C920 C 0.93475 0.75395 0.60175 0.0
C921 C 0.95122 0.74292 0.5681 0.0
C922 C 0.96658 0.73669 0.65659 0.0
C923 C 0.97438 0.72757 0.58011 0.0
C924 C 0.99752 0.71824 0.71601 0.0
C925 C 0.98529 0.764 0.76691 0.0
N926 N 0.98152 0.72506 0.62346 0.0
N927 N 0.97222 0.75951 0.72791 0.0
H928 H 0.71807 0.57855 0.38806 0.0
H929 H 0.78344 0.48032 0.20334 0.0
H930 H 0.78408 0.52215 0.4152 0.0
H931 H 0.70009 0.50961 0.20072 0.0
H932 H 0.79072 0.50574 0.273 0.0
H933 H 0.71869 0.56392 0.30998 0.0
C934 C 0.733 0.5635 0.37737 0.0
C935 C 0.75069 0.55111 0.40801 0.0
C936 C 0.77096 0.50671 0.25677 0.0
C937 C 0.7516 0.53452 0.31949 0.0
C938 C 0.76682 0.49225 0.21725 0.0
C939 C 0.74101 0.49249 0.19695 0.0
C940 C 0.74928 0.52182 0.27526 0.0
C941 C 0.72014 0.50842 0.21593 0.0
C942 C 0.73327 0.5551 0.33303 0.0
C943 C 0.76972 0.53175 0.39261 0.0
N944 N 0.72471 0.52241 0.25411 0.0
N945 N 0.76956 0.52387 0.3494 0.0
H946 H 0.5798 0.25362 0.59991 0.0
H947 H 0.44843 0.23723 0.75432 0.0
H948 H 0.49643 0.24407 0.55435 0.0
H949 H 0.52966 0.24533 0.8082 0.0
H950 H 0.46783 0.23192 0.68028 0.0
H951 H 0.56401 0.24485 0.67631 0.0
C952 C 0.55833 0.24968 0.60584 0.0
C953 C 0.53944 0.24998 0.57065 0.0
C954 C 0.48161 0.23437 0.7082 0.0
C955 C 0.52145 0.23958 0.65713 0.0
C956 C 0.47046 0.23714 0.75038 0.0
C957 C 0.4876 0.24152 0.78676 0.0
C958 C 0.51005 0.2369 0.70236 0.0
C959 C 0.51598 0.2417 0.78047 0.0
C960 C 0.54937 0.24451 0.64928 0.0
C961 C 0.51187 0.2444 0.58016 0.0
N962 N 0.52643 0.23993 0.7387 0.0
N963 N 0.50381 0.23958 0.62229 0.0
H964 H 0.29401 0.47957 0.18851 0.0
H965 H 0.22039 0.48782 0.41635 0.0
H966 H 0.21451 0.51741 0.19913 0.0
H967 H 0.27253 0.41924 0.38393 0.0
H968 H 0.21762 0.49936 0.33743 0.0
H969 H 0.28671 0.45715 0.26003 0.0
C970 C 0.27487 0.48288 0.20587 0.0
C971 C 0.25492 0.50052 0.1885 0.0
C972 C 0.22929 0.48153 0.34753 0.0
C973 C 0.24663 0.47536 0.27026 0.0
C974 C 0.2311 0.47509 0.39249 0.0
C975 C 0.24707 0.45281 0.40652 0.0
C976 C 0.2441 0.46598 0.31662 0.0
C977 C 0.26016 0.43669 0.37436 0.0
C978 C 0.27065 0.46997 0.24642 0.0
C979 C 0.23036 0.50398 0.21175 0.0
N980 N 0.25883 0.44392 0.33082 0.0
N981 N 0.2271 0.49193 0.25214 0.0
H982 H 0.48486 0.78213 0.56145 0.0
H983 H 0.48594 0.70494 0.7864 0.0
H984 H 0.4196 0.72693 0.59673 0.0
H985 H 0.51921 0.78655 0.77808 0.0
H986 H 0.46206 0.71228 0.7162 0.0
H987 H 0.49828 0.78466 0.63969 0.0
C988 C 0.47317 0.77081 0.58587 0.0
C989 C 0.45137 0.75396 0.5728 0.0
C990 C 0.47428 0.72873 0.72994 0.0
C991 C 0.46677 0.75653 0.6618 0.0
C992 C 0.48813 0.72447 0.76967 0.0
C993 C 0.50483 0.74507 0.78742 0.0
C994 C 0.47772 0.75351 0.7072 0.0
C995 C 0.50663 0.77016 0.76509 0.0
C996 C 0.48071 0.77243 0.63042 0.0
C997 C 0.43662 0.74002 0.60557 0.0
N998 N 0.49363 0.77353 0.72543 0.0
N999 N 0.44498 0.74114 0.64863 0.0
H1000 H 0.22 0.51296 0.91756 0.0
H1001 H 0.28833 0.52025 0.68449 0.0
H1002 H 0.27292 0.57994 0.88141 0.0
H1003 H 0.21173 0.4783 0.70377 0.0
H1004 H 0.28195 0.54382 0.75526 0.0
H1005 H 0.21514 0.50111 0.83916 0.0
C1006 C 0.23043 0.52531 0.89295 0.0
C1007 C 0.24731 0.54714 0.90582 0.0
C1008 C 0.26627 0.52984 0.74377 0.0
C1009 C 0.24194 0.5336 0.81626 0.0
C1010 C 0.26999 0.51625 0.70361 0.0
C1011 C 0.2507 0.49706 0.68893 0.0
C1012 C 0.24342 0.52365 0.76996 0.0
C1013 C 0.22711 0.49287 0.71431 0.0
C1014 C 0.22745 0.51867 0.84824 0.0
C1015 C 0.25992 0.56282 0.87274 0.0
N1016 N 0.22437 0.50566 0.75427 0.0
N1017 N 0.25743 0.55538 0.82935 0.0
H1018 H 0.5156 0.78248 0.0648 0.0
H1019 H 0.51118 0.70049 0.28741 0.0
H1020 H 0.57619 0.72107 0.09636 0.0
H1021 H 0.4801 0.78318 0.28044 0.0
H1022 H 0.53442 0.70727 0.21664 0.0
H1023 H 0.50171 0.78338 0.14281 0.0
C1024 C 0.52616 0.76938 0.08831 0.0
C1025 C 0.54682 0.75138 0.07417 0.0
C1026 C 0.52279 0.72405 0.23078 0.0
C1027 C 0.53086 0.75217 0.16303 0.0
C1028 C 0.50931 0.72013 0.27091 0.0
C1029 C 0.49343 0.74122 0.28931 0.0
C1030 C 0.51987 0.74904 0.20837 0.0
C1031 C 0.49206 0.7664 0.26708 0.0
C1032 C 0.51834 0.77006 0.13279 0.0
C1033 C 0.5601 0.73514 0.10596 0.0
N1034 N 0.50477 0.76949 0.22719 0.0
N1035 N 0.55153 0.73554 0.14889 0.0
H1036 H 0.73821 0.41846 0.88356 0.0
H1037 H 0.74472 0.54969 0.73207 0.0
H1038 H 0.76221 0.49852 0.93088 0.0
H1039 H 0.75476 0.46932 0.67479 0.0
H1040 H 0.75084 0.53015 0.80586 0.0
H1041 H 0.7439 0.43494 0.80671 0.0
C1042 C 0.74486 0.43931 0.87788 0.0
C1043 C 0.74906 0.45732 0.91366 0.0
C1044 C 0.75218 0.51673 0.77725 0.0
C1045 C 0.75568 0.47605 0.8267 0.0
C1046 C 0.74869 0.52792 0.73524 0.0
C1047 C 0.74936 0.51101 0.69778 0.0
C1048 C 0.75559 0.48829 0.78188 0.0
C1049 C 0.75438 0.48292 0.70325 0.0
C1050 C 0.74821 0.44864 0.83417 0.0
C1051 C 0.75799 0.48404 0.90448 0.0
N1052 N 0.75684 0.47223 0.74484 0.0
N1053 N 0.7607 0.49261 0.86204 0.0
H1054 H 0.51703 0.21374 0.27875 0.0
H1055 H 0.41856 0.28064 0.09614 0.0
H1056 H 0.48393 0.29563 0.28636 0.0
H1057 H 0.47728 0.21698 0.06679 0.0
H1058 H 0.43153 0.27788 0.17477 0.0
H1059 H 0.49179 0.2068 0.20878 0.0
C1060 C 0.50424 0.23006 0.2659 0.0
C1061 C 0.50297 0.25547 0.28742 0.0
C1062 C 0.44125 0.26429 0.15105 0.0
C1063 C 0.47392 0.2476 0.20897 0.0
C1064 C 0.43385 0.26584 0.10637 0.0
C1065 C 0.44737 0.24949 0.07503 0.0
C1066 C 0.46201 0.24607 0.16419 0.0
C1067 C 0.46688 0.23044 0.0899 0.0
C1068 C 0.48989 0.22612 0.22625 0.0
C1069 C 0.48595 0.27596 0.26998 0.0
N1070 N 0.47382 0.22941 0.13347 0.0
N1071 N 0.47217 0.27163 0.23161 0.0
H1072 H 0.43784 0.1616 0.96799 0.0
H1073 H 0.30473 0.12832 0.08077 0.0
H1074 H 0.36125 0.19152 0.91527 0.0
H1075 H 0.33015 0.05675 0.00727 0.0
H1076 H 0.34271 0.15384 0.04812 0.0
H1077 H 0.41309 0.12339 0.00303 0.0
C1078 C 0.41607 0.15955 0.96222 0.0
C1079 C 0.40145 0.17998 0.93923 0.0
C1080 C 0.34047 0.13225 0.04053 0.0
C1081 C 0.37352 0.13709 0.97957 0.0
C1082 C 0.31901 0.11767 0.05927 0.0
C1083 C 0.31423 0.09054 0.04629 0.0
C1084 C 0.35709 0.11962 0.00863 0.0
C1085 C 0.33327 0.07768 0.0181 0.0
C1086 C 0.40206 0.13793 0.98253 0.0
C1087 C 0.37324 0.17647 0.93322 0.0
N1088 N 0.3536 0.09262 -0.00102 0.0
N1089 N 0.36008 0.15583 0.95425 0.0
H1090 H 0.1732 0.55826 0.98591 0.0
H1091 H 0.06307 0.67667 0.00555 0.0
H1092 H 0.17876 0.61827 0.09083 0.0
H1093 H 0.11558 0.67059 0.89089 0.0
H1094 H 0.08789 0.63822 0.03977 0.0
H1095 H 0.1336 0.58296 0.95546 0.0
C1096 C 0.16528 0.57587 0.00373 0.0
C1097 C 0.17913 0.58632 0.04096 0.0
C1098 C 0.09319 0.64475 0.00647 0.0
C1099 C 0.13403 0.61412 0.00671 0.0
C1100 C 0.07902 0.66643 0.98681 0.0
C1101 C 0.08733 0.67657 0.94531 0.0
C1102 C 0.11514 0.63277 0.98377 0.0
C1103 C 0.10858 0.66319 0.92283 0.0
C1104 C 0.14293 0.58998 0.9861 0.0
C1105 C 0.16853 0.6096 0.06215 0.0
N1106 N 0.12189 0.64193 0.94247 0.0
N1107 N 0.14662 0.62291 0.04451 0.0
H1108 H 0.664 0.94411 0.01111 0.0
H1109 H 0.55517 0.83689 0.96775 0.0
H1110 H 0.68638 0.86901 0.07731 0.0
H1111 H 0.63164 0.81165 0.90883 0.0
H1112 H 0.57901 0.8755 0.0035 0.0
H1113 H 0.62516 0.92016 0.97626 0.0
C1114 C 0.65991 0.92304 0.02019 0.0
C1115 C 0.6785 0.90836 0.04682 0.0
C1116 C 0.59014 0.862 0.98136 0.0
C1117 C 0.63497 0.88122 0.00674 0.0
C1118 C 0.57663 0.84015 0.96063 0.0
C1119 C 0.59159 0.82084 0.93572 0.0
C1120 C 0.61854 0.86423 0.9768 0.0
C1121 C 0.61942 0.82583 0.92817 0.0
C1122 C 0.63798 0.90943 -6e-05 0.0
C1123 C 0.67263 0.88096 0.05676 0.0
N1124 N 0.63215 0.84662 0.94966 0.0
N1125 N 0.65183 0.86805 0.03565 0.0
H1126 H 0.82179 0.43927 0.98651 0.0
H1127 H 0.87568 0.31982 0.88873 0.0
H1128 H 0.81841 0.37655 0.08724 0.0
H1129 H 0.93405 0.32538 -0.00419 0.0
H1130 H 0.85156 0.35988 0.91932 0.0
H1131 H 0.86024 0.41499 0.95151 0.0
C1132 C 0.82995 0.42109 0.0024 0.0
C1133 C 0.81703 0.40982 0.03983 0.0
C1134 C 0.87024 0.35286 0.93506 0.0
C1135 C 0.86074 0.38245 0.00034 0.0
C1136 C 0.88397 0.33017 0.91762 0.0
C1137 C 0.90703 0.31973 0.93948 0.0
C1138 C 0.8791 0.36426 0.97541 0.0
C1139 C 0.91661 0.33328 0.97763 0.0
C1140 C 0.85163 0.40723 0.98218 0.0
C1141 C 0.8279 0.38585 0.05847 0.0
N1142 N 0.90203 0.35435 -0.00464 0.0
N1143 N 0.84911 0.3728 0.03831 0.0
H1144 H 0.67115 0.05995 0.48511 0.0
H1145 H 0.61836 0.18015 0.38963 0.0
H1146 H 0.6774 0.12179 0.58707 0.0
H1147 H 0.56223 0.17705 0.49991 0.0
H1148 H 0.64212 0.13975 0.41981 0.0
H1149 H 0.63283 0.08544 0.4519 0.0
C1150 C 0.66361 0.07818 0.50169 0.0
C1151 C 0.6773 0.08885 0.53892 0.0
C1152 C 0.62401 0.14744 0.43644 0.0
C1153 C 0.63382 0.11765 0.50141 0.0
C1154 C 0.61052 0.17035 0.41929 0.0
C1155 C 0.58816 0.18152 0.44206 0.0
C1156 C 0.61566 0.13652 0.47738 0.0
C1157 C 0.57912 0.16861 0.48105 0.0
C1158 C 0.64203 0.09274 0.48247 0.0
C1159 C 0.66726 0.11292 0.55846 0.0
N1160 N 0.59348 0.14725 0.49837 0.0
N1161 N 0.64615 0.12668 0.53926 0.0
H1162 H 0.11687 0.32114 0.38402 0.0
H1163 H 0.17584 0.37895 0.58844 0.0
H1164 H 0.06145 0.32282 0.49536 0.0
H1165 H 0.17362 0.43532 0.47823 0.0
H1166 H 0.13625 0.35487 0.55654 0.0
H1167 H 0.14102 0.36078 0.41571 0.0
C1168 C 0.10923 0.33053 0.41422 0.0
C1169 C 0.08702 0.31909 0.4369 0.0
C1170 C 0.14398 0.37305 0.54022 0.0
C1171 C 0.11515 0.36304 0.47412 0.0
C1172 C 0.16642 0.38673 0.55837 0.0
C1173 C 0.17766 0.40923 0.53611 0.0
C1174 C 0.13367 0.38128 0.49875 0.0
C1175 C 0.16518 0.41827 0.49667 0.0
C1176 C 0.12299 0.35297 0.43231 0.0
C1177 C 0.07824 0.33146 0.47659 0.0
N1178 N 0.14432 0.40372 0.4784 0.0
N1179 N 0.0929 0.35228 0.49479 0.0
H1180 H 0.43959 0.82718 0.49127 0.0
H1181 H 0.32052 0.87772 0.592 0.0
H1182 H 0.37595 0.8209 0.39237 0.0
H1183 H 0.32181 0.93547 0.48369 0.0
H1184 H 0.36088 0.85494 0.56002 0.0
H1185 H 0.41475 0.86542 0.52579 0.0
C1186 C 0.42108 0.83469 0.47556 0.0
C1187 C 0.4097 0.82092 0.43893 0.0
C1188 C 0.35282 0.8732 0.54426 0.0
C1189 C 0.38166 0.86441 0.47797 0.0
C1190 C 0.32995 0.88615 0.56246 0.0
C1191 C 0.31822 0.90863 0.54069 0.0
C1192 C 0.36315 0.88222 0.5033 0.0
C1193 C 0.33067 0.91845 0.50179 0.0
C1194 C 0.40691 0.85626 0.49555 0.0
C1195 C 0.38534 0.83102 0.42054 0.0
N1196 N 0.35198 0.90459 0.4834 0.0
N1197 N 0.37194 0.85211 0.44054 0.0
H1198 H 0.87759 0.67205 0.38838 0.0
H1199 H 0.82503 0.61883 0.59302 0.0
H1200 H 0.939 0.67112 0.49136 0.0
H1201 H 0.82837 0.55711 0.4906 0.0
H1202 H 0.86478 0.64139 0.55913 0.0
H1203 H 0.85597 0.632 0.42309 0.0
C1204 C 0.88706 0.66275 0.41725 0.0
C1205 C 0.91017 0.67458 0.43687 0.0
C1206 C 0.85739 0.6223 0.54522 0.0
C1207 C 0.88503 0.63011 0.4775 0.0
C1208 C 0.83491 0.60943 0.5646 0.0
C1209 C 0.82382 0.58597 0.54482 0.0
C1210 C 0.8678 0.61226 0.5049 0.0
C1211 C 0.83675 0.57494 0.50716 0.0
C1212 C 0.87476 0.64005 0.43702 0.0
C1213 C 0.92139 0.66224 0.47495 0.0
N1214 N 0.85752 0.58876 0.48733 0.0
N1215 N 0.90813 0.64119 0.49505 0.0
loop_
_geom_bond_atom_site_label_1
_geom_bond_atom_site_label_2
_geom_bond_distance
_geom_bond_site_symmetry_2
_ccdc_geom_bond_type
Sc0 O3 2.025 . S
Sc0 O10 2.105 . S
Sc0 O13 2.105 . S
Sc0 O16 2.105 . S
Sc0 O19 2.105 . S
Sc1 O3 2.025 . S
Sc1 O11 2.105 . S
Sc1 O15 2.105 1_554 S
Sc1 O17 2.105 . S
Sc1 O21 2.105 . S
Sc2 O3 2.025 . S
Sc2 O12 2.105 . S
Sc2 O14 2.106 . S
Sc2 O18 2.105 1_554 S
Sc2 O20 2.105 . S
O3 Sc0 2.025 . S
O3 Sc1 2.025 . S
O3 Sc2 2.025 . S
C4 O10 1.268 . S
C4 O20 1.268 . S
C5 O11 1.268 . S
C5 O19 1.268 . S
C6 O12 1.268 . S
C6 O21 1.268 . S
C7 O13 1.268 . S
C7 O17 1.268 . S
C8 O14 1.268 1_565 S
C8 O16 1.268 1_565 S
C9 O15 1.268 . S
C9 O18 1.268 . S
O10 Sc0 2.105 . S
O10 C4 1.268 . S
O11 Sc1 2.105 . S
O11 C5 1.268 . S
O12 Sc2 2.105 . S
O12 C6 1.268 . S
O13 Sc0 2.105 . S
O13 C7 1.268 . S
O14 Sc2 2.106 . S
O14 C8 1.268 1_545 S
O15 Sc1 2.105 1_556 S
O15 C9 1.268 . S
O16 Sc0 2.105 . S
O16 C8 1.268 1_545 S
O17 Sc1 2.105 . S
O17 C7 1.268 . S
O18 Sc2 2.105 1_556 S
O18 C9 1.268 . S
O19 Sc0 2.105 . S
O19 C5 1.268 . S
O20 Sc2 2.105 . S
O20 C4 1.268 . S
O21 Sc1 2.105 . S
O21 C6 1.268 . S
Sc22 O25 2.025 . S
Sc22 O32 2.105 . S
Sc22 O35 2.105 . S
Sc22 O38 2.105 . S
Sc22 O41 2.105 . S
Sc23 O25 2.025 . S
Sc23 O33 2.105 . S
Sc23 O37 2.105 . S
Sc23 O39 2.105 . S
Sc23 O43 2.105 1_556 S
Sc24 O25 2.025 . S
Sc24 O34 2.105 1_556 S
Sc24 O36 2.105 . S
Sc24 O40 2.105 . S
Sc24 O42 2.106 . S
O25 Sc22 2.025 . S
O25 Sc23 2.025 . S
O25 Sc24 2.025 . S
C26 O32 1.268 1_655 S
C26 O42 1.268 1_655 S
C27 O33 1.268 . S
C27 O41 1.268 . S
C28 O34 1.268 . S
C28 O43 1.268 . S
C29 O35 1.268 . S
C29 O39 1.268 . S
C30 O36 1.268 . S
C30 O38 1.268 . S
C31 O37 1.268 . S
C31 O40 1.268 . S
O32 Sc22 2.105 . S
O32 C26 1.268 1_455 S
O33 Sc23 2.105 . S
O33 C27 1.268 . S
O34 Sc24 2.105 1_554 S
O34 C28 1.268 . S
O35 Sc22 2.105 . S
O35 C29 1.268 . S
O36 Sc24 2.105 . S
O36 C30 1.268 . S
O37 Sc23 2.105 . S
O37 C31 1.268 . S
O38 Sc22 2.105 . S
O38 C30 1.268 . S
O39 Sc23 2.105 . S
O39 C29 1.268 . S
O40 Sc24 2.105 . S
O40 C31 1.268 . S
O41 Sc22 2.105 . S
O41 C27 1.268 . S
O42 Sc24 2.106 . S
O42 C26 1.268 1_455 S
O43 Sc23 2.105 1_554 S
O43 C28 1.268 . S
Sc44 O47 2.025 . S
Sc44 O54 2.106 . S
Sc44 O57 2.105 . S
Sc44 O60 2.105 . S
Sc44 O63 2.105 1_554 S
Sc45 O47 2.025 . S
Sc45 O55 2.105 1_554 S
Sc45 O59 2.105 . S
Sc45 O61 2.105 . S
Sc45 O65 2.105 . S
Sc46 O47 2.025 . S
Sc46 O56 2.105 . S
Sc46 O58 2.105 . S
Sc46 O62 2.105 . S
Sc46 O64 2.105 . S
O47 Sc44 2.025 . S
O47 Sc45 2.025 . S
O47 Sc46 2.025 . S
C48 O54 1.268 1_545 S
C48 O64 1.268 1_545 S
C49 O55 1.268 . S
C49 O63 1.268 . S
C50 O56 1.268 . S
C50 O65 1.268 . S
C51 O57 1.268 . S
C51 O61 1.268 . S
C52 O58 1.268 . S
C52 O60 1.268 . S
C53 O59 1.268 . S
C53 O62 1.268 . S
O54 Sc44 2.106 . S
O54 C48 1.268 1_565 S
O55 Sc45 2.105 1_556 S
O55 C49 1.268 . S
O56 Sc46 2.105 . S
O56 C50 1.268 . S
O57 Sc44 2.105 . S
O57 C51 1.268 . S
O58 Sc46 2.105 . S
O58 C52 1.268 . S
O59 Sc45 2.105 . S
O59 C53 1.268 . S
O60 Sc44 2.105 . S
O60 C52 1.268 . S
O61 Sc45 2.105 . S
O61 C51 1.268 . S
O62 Sc46 2.105 . S
O62 C53 1.268 . S
O63 Sc44 2.105 1_556 S
O63 C49 1.268 . S
O64 Sc46 2.105 . S
O64 C48 1.268 1_565 S
O65 Sc45 2.105 . S
O65 C50 1.268 . S
Sc66 O69 2.025 . S
Sc66 O76 2.105 . S
Sc66 O79 2.105 1_556 S
Sc66 O82 2.106 . S
Sc66 O85 2.105 . S
Sc67 O69 2.025 . S
Sc67 O77 2.105 . S
Sc67 O81 2.105 . S
Sc67 O83 2.105 1_556 S
Sc67 O87 2.105 . S
Sc68 O69 2.025 . S
Sc68 O78 2.105 . S
Sc68 O80 2.105 . S
Sc68 O84 2.105 . S
Sc68 O86 2.105 . S
O69 Sc66 2.025 . S
O69 Sc67 2.025 . S
O69 Sc68 2.025 . S
C70 O76 1.268 . S
C70 O86 1.268 . S
C71 O77 1.268 . S
C71 O85 1.268 . S
C72 O78 1.268 . S
C72 O87 1.268 . S
C73 O79 1.268 . S
C73 O83 1.268 . S
C74 O80 1.268 1_455 S
C74 O82 1.268 1_455 S
C75 O81 1.268 . S
C75 O84 1.268 . S
O76 Sc66 2.105 . S
O76 C70 1.268 . S
O77 Sc67 2.105 . S
O77 C71 1.268 . S
O78 Sc68 2.105 . S
O78 C72 1.268 . S
O79 Sc66 2.105 1_554 S
O79 C73 1.268 . S
O80 Sc68 2.105 . S
O80 C74 1.268 1_655 S
O81 Sc67 2.105 . S
O81 C75 1.268 . S
O82 Sc66 2.106 . S
O82 C74 1.268 1_655 S
O83 Sc67 2.105 1_554 S
O83 C73 1.268 . S
O84 Sc68 2.105 . S
O84 C75 1.268 . S
O85 Sc66 2.105 . S
O85 C71 1.268 . S
O86 Sc68 2.105 . S
O86 C70 1.268 . S
O87 Sc67 2.105 . S
O87 C72 1.268 . S
Sc88 O91 2.025 . S
Sc88 O98 2.105 . S
Sc88 O101 2.105 . S
Sc88 O104 2.106 . S
Sc88 O107 2.105 . S
Sc89 O91 2.025 . S
Sc89 O99 2.105 . S
Sc89 O103 2.105 . S
Sc89 O105 2.105 . S
Sc89 O109 2.105 . S
Sc90 O91 2.025 . S
Sc90 O100 2.105 . S
Sc90 O102 2.105 . S
Sc90 O106 2.105 . S
Sc90 O108 2.105 . S
O91 Sc88 2.025 . S
O91 Sc89 2.025 . S
O91 Sc90 2.025 . S
C92 O98 1.268 . S
C92 O108 1.268 . S
C93 O99 1.268 . S
C93 O107 1.268 . S
C94 O100 1.268 . S
C94 O109 1.268 . S
C95 O101 1.268 . S
C95 O105 1.268 . S
C96 O102 1.268 1_565 S
C96 O104 1.268 1_565 S
C97 O103 1.268 . S
C97 O106 1.268 . S
O98 Sc88 2.105 . S
O98 C92 1.268 . S
O99 Sc89 2.105 . S
O99 C93 1.268 . S
O100 Sc90 2.105 . S
O100 C94 1.268 . S
O101 Sc88 2.105 . S
O101 C95 1.268 . S
O102 Sc90 2.105 . S
O102 C96 1.268 1_545 S
O103 Sc89 2.105 . S
O103 C97 1.268 . S
O104 Sc88 2.106 . S
O104 C96 1.268 1_545 S
O105 Sc89 2.105 . S
O105 C95 1.268 . S
O106 Sc90 2.105 . S
O106 C97 1.268 . S
O107 Sc88 2.105 . S
O107 C93 1.268 . S
O108 Sc90 2.105 . S
O108 C92 1.268 . S
O109 Sc89 2.105 . S
O109 C94 1.268 . S
Sc110 O113 2.025 . S
Sc110 O120 2.105 . S
Sc110 O123 2.105 . S
Sc110 O126 2.105 . S
Sc110 O129 2.105 . S
Sc111 O113 2.025 . S
Sc111 O121 2.105 . S
Sc111 O125 2.105 . S
Sc111 O127 2.105 . S
Sc111 O131 2.105 . S
Sc112 O113 2.025 . S
Sc112 O122 2.105 . S
Sc112 O124 2.106 . S
Sc112 O128 2.105 . S
Sc112 O130 2.105 . S
O113 Sc110 2.025 . S
O113 Sc111 2.025 . S
O113 Sc112 2.025 . S
C114 O120 1.268 . S
C114 O130 1.268 . S
C115 O121 1.268 . S
C115 O129 1.268 . S
C116 O122 1.268 . S
C116 O131 1.268 . S
C117 O123 1.268 . S
C117 O127 1.268 . S
C118 O124 1.268 1_655 S
C118 O126 1.268 1_655 S
C119 O125 1.268 . S
C119 O128 1.268 . S
O120 Sc110 2.105 . S
O120 C114 1.268 . S
O121 Sc111 2.105 . S
O121 C115 1.268 . S
O122 Sc112 2.105 . S
O122 C116 1.268 . S
O123 Sc110 2.105 . S
O123 C117 1.268 . S
O124 Sc112 2.106 . S
O124 C118 1.268 1_455 S
O125 Sc111 2.105 . S
O125 C119 1.268 . S
O126 Sc110 2.105 . S
O126 C118 1.268 1_455 S
O127 Sc111 2.105 . S
O127 C117 1.268 . S
O128 Sc112 2.105 . S
O128 C119 1.268 . S
O129 Sc110 2.105 . S
O129 C115 1.268 . S
O130 Sc112 2.105 . S
O130 C114 1.268 . S
O131 Sc111 2.105 . S
O131 C116 1.268 . S
Sc132 O135 2.025 . S
Sc132 O142 2.105 . S
Sc132 O145 2.105 . S
Sc132 O148 2.105 . S
Sc132 O151 2.105 . S
Sc133 O135 2.025 . S
Sc133 O143 2.105 . S
Sc133 O147 2.105 . S
Sc133 O149 2.105 . S
Sc133 O153 2.105 . S
Sc134 O135 2.025 . S
Sc134 O144 2.105 . S
Sc134 O146 2.105 . S
Sc134 O150 2.105 . S
Sc134 O152 2.106 . S
O135 Sc132 2.025 . S
O135 Sc133 2.025 . S
O135 Sc134 2.025 . S
C136 O142 1.268 1_545 S
C136 O152 1.268 1_545 S
C137 O143 1.268 . S
C137 O151 1.268 . S
C138 O144 1.268 . S
C138 O153 1.268 . S
C139 O145 1.268 . S
C139 O149 1.268 . S
C140 O146 1.268 . S
C140 O148 1.268 . S
C141 O147 1.268 . S
C141 O150 1.268 . S
O142 Sc132 2.105 . S
O142 C136 1.268 1_565 S
O143 Sc133 2.105 . S
O143 C137 1.268 . S
O144 Sc134 2.105 . S
O144 C138 1.268 . S
O145 Sc132 2.105 . S
O145 C139 1.268 . S
O146 Sc134 2.105 . S
O146 C140 1.268 . S
O147 Sc133 2.105 . S
O147 C141 1.268 . S
O148 Sc132 2.105 . S
O148 C140 1.268 . S
O149 Sc133 2.105 . S
O149 C139 1.268 . S
O150 Sc134 2.105 . S
O150 C141 1.268 . S
O151 Sc132 2.105 . S
O151 C137 1.268 . S
O152 Sc134 2.106 . S
O152 C136 1.268 1_565 S
O153 Sc133 2.105 . S
O153 C138 1.268 . S
Sc154 O157 2.025 . S
Sc154 O164 2.106 . S
Sc154 O167 2.105 . S
Sc154 O170 2.105 . S
Sc154 O173 2.105 . S
Sc155 O157 2.025 . S
Sc155 O165 2.105 . S
Sc155 O169 2.105 . S
Sc155 O171 2.105 . S
Sc155 O175 2.105 . S
Sc156 O157 2.025 . S
Sc156 O166 2.105 . S
Sc156 O168 2.105 . S
Sc156 O172 2.105 . S
Sc156 O174 2.105 . S
O157 Sc154 2.025 . S
O157 Sc155 2.025 . S
O157 Sc156 2.025 . S
C158 O164 1.268 1_455 S
C158 O174 1.268 1_455 S
C159 O165 1.268 . S
C159 O173 1.268 . S
C160 O166 1.268 . S
C160 O175 1.268 . S
C161 O167 1.268 . S
C161 O171 1.268 . S
C162 O168 1.268 . S
C162 O170 1.268 . S
C163 O169 1.268 . S
C163 O172 1.268 . S
O164 Sc154 2.106 . S
O164 C158 1.268 1_655 S
O165 Sc155 2.105 . S
O165 C159 1.268 . S
O166 Sc156 2.105 . S
O166 C160 1.268 . S
O167 Sc154 2.105 . S
O167 C161 1.268 . S
O168 Sc156 2.105 . S
O168 C162 1.268 . S
O169 Sc155 2.105 . S
O169 C163 1.268 . S
O170 Sc154 2.105 . S
O170 C162 1.268 . S
O171 Sc155 2.105 . S
O171 C161 1.268 . S
O172 Sc156 2.105 . S
O172 C163 1.268 . S
O173 Sc154 2.105 . S
O173 C159 1.268 . S
O174 Sc156 2.105 . S
O174 C158 1.268 1_655 S
O175 Sc155 2.105 . S
O175 C160 1.268 . S
Sc176 O179 2.025 . S
Sc176 O186 2.105 . S
Sc176 O189 2.105 . S
Sc176 O192 2.105 . S
Sc176 O195 2.105 . S
Sc177 O179 2.025 . S
Sc177 O187 2.105 . S
Sc177 O191 2.105 . S
Sc177 O193 2.105 . S
Sc177 O197 2.105 . S
Sc178 O179 2.025 . S
Sc178 O188 2.105 . S
Sc178 O190 2.105 . S
Sc178 O194 2.105 . S
Sc178 O196 2.105 . S
O179 Sc176 2.025 . S
O179 Sc177 2.025 . S
O179 Sc178 2.025 . S
C180 O186 1.268 . S
C180 O196 1.268 . S
C181 O187 1.268 . S
C181 O195 1.268 . S
C182 O188 1.268 . S
C182 O197 1.268 . S
C183 O189 1.268 . S
C183 O193 1.268 . S
C184 O190 1.268 . S
C184 O192 1.268 . S
C185 O191 1.268 . S
C185 O194 1.268 . S
O186 Sc176 2.105 . S
O186 C180 1.268 . S
O187 Sc177 2.105 . S
O187 C181 1.268 . S
O188 Sc178 2.105 . S
O188 C182 1.268 . S
O189 Sc176 2.105 . S
O189 C183 1.268 . S
O190 Sc178 2.105 . S
O190 C184 1.268 . S
O191 Sc177 2.105 . S
O191 C185 1.268 . S
O192 Sc176 2.105 . S
O192 C184 1.268 . S
O193 Sc177 2.105 . S
O193 C183 1.268 . S
O194 Sc178 2.105 . S
O194 C185 1.268 . S
O195 Sc176 2.105 . S
O195 C181 1.268 . S
O196 Sc178 2.105 . S
O196 C180 1.268 . S
O197 Sc177 2.105 . S
O197 C182 1.268 . S
Sc198 O201 2.025 . S
Sc198 O208 2.105 . S
Sc198 O211 2.105 . S
Sc198 O214 2.105 . S
Sc198 O217 2.105 . S
Sc199 O201 2.025 . S
Sc199 O209 2.105 . S
Sc199 O213 2.105 . S
Sc199 O215 2.105 . S
Sc199 O219 2.105 . S
Sc200 O201 2.025 . S
Sc200 O210 2.105 . S
Sc200 O212 2.105 . S
Sc200 O216 2.105 . S
Sc200 O218 2.105 . S
O201 Sc198 2.025 . S
O201 Sc199 2.025 . S
O201 Sc200 2.025 . S
C202 O208 1.268 . S
C202 O218 1.268 . S
C203 O209 1.268 . S
C203 O217 1.268 . S
C204 O210 1.268 . S
C204 O219 1.268 . S
C205 O211 1.268 . S
C205 O215 1.268 . S
C206 O212 1.268 . S
C206 O214 1.268 . S
C207 O213 1.268 . S
C207 O216 1.268 . S
O208 Sc198 2.105 . S
O208 C202 1.268 . S
O209 Sc199 2.105 . S
O209 C203 1.268 . S
O210 Sc200 2.105 . S
O210 C204 1.268 . S
O211 Sc198 2.105 . S
O211 C205 1.268 . S
O212 Sc200 2.105 . S
O212 C206 1.268 . S
O213 Sc199 2.105 . S
O213 C207 1.268 . S
O214 Sc198 2.105 . S
O214 C206 1.268 . S
O215 Sc199 2.105 . S
O215 C205 1.268 . S
O216 Sc200 2.105 . S
O216 C207 1.268 . S
O217 Sc198 2.105 . S
O217 C203 1.268 . S
O218 Sc200 2.105 . S
O218 C202 1.268 . S
O219 Sc199 2.105 . S
O219 C204 1.268 . S
Sc220 O223 2.025 . S
Sc220 O230 2.105 . S
Sc220 O233 2.105 . S
Sc220 O236 2.105 . S
Sc220 O239 2.105 . S
Sc221 O223 2.025 . S
Sc221 O231 2.105 . S
Sc221 O235 2.105 . S
Sc221 O237 2.105 . S
Sc221 O241 2.105 . S
Sc222 O223 2.025 . S
Sc222 O232 2.105 . S
Sc222 O234 2.105 . S
Sc222 O238 2.105 . S
Sc222 O240 2.105 . S
O223 Sc220 2.025 . S
O223 Sc221 2.025 . S
O223 Sc222 2.025 . S
C224 O230 1.268 . S
C224 O240 1.268 . S
C225 O231 1.268 . S
C225 O239 1.268 . S
C226 O232 1.268 . S
C226 O241 1.268 . S
C227 O233 1.268 . S
C227 O237 1.268 . S
C228 O234 1.268 . S
C228 O236 1.268 . S
C229 O235 1.268 . S
C229 O238 1.268 . S
O230 Sc220 2.105 . S
O230 C224 1.268 . S
O231 Sc221 2.105 . S
O231 C225 1.268 . S
O232 Sc222 2.105 . S
O232 C226 1.268 . S
O233 Sc220 2.105 . S
O233 C227 1.268 . S
O234 Sc222 2.105 . S
O234 C228 1.268 . S
O235 Sc221 2.105 . S
O235 C229 1.268 . S
O236 Sc220 2.105 . S
O236 C228 1.268 . S
O237 Sc221 2.105 . S
O237 C227 1.268 . S
O238 Sc222 2.105 . S
O238 C229 1.268 . S
O239 Sc220 2.105 . S
O239 C225 1.268 . S
O240 Sc222 2.105 . S
O240 C224 1.268 . S
O241 Sc221 2.105 . S
O241 C226 1.268 . S
Sc242 O245 2.025 . S
Sc242 O252 2.105 . S
Sc242 O255 2.105 . S
Sc242 O258 2.105 . S
Sc242 O261 2.105 . S
Sc243 O245 2.025 . S
Sc243 O253 2.105 . S
Sc243 O257 2.105 . S
Sc243 O259 2.105 . S
Sc243 O263 2.105 . S
Sc244 O245 2.025 . S
Sc244 O254 2.105 . S
Sc244 O256 2.105 . S
Sc244 O260 2.105 . S
Sc244 O262 2.105 . S
O245 Sc242 2.025 . S
O245 Sc243 2.025 . S
O245 Sc244 2.025 . S
C246 O252 1.268 . S
C246 O262 1.268 . S
C247 O253 1.268 . S
C247 O261 1.268 . S
C248 O254 1.268 . S
C248 O263 1.268 . S
C249 O255 1.268 . S
C249 O259 1.268 . S
C250 O256 1.268 . S
C250 O258 1.268 . S
C251 O257 1.268 . S
C251 O260 1.268 . S
O252 Sc242 2.105 . S
O252 C246 1.268 . S
O253 Sc243 2.105 . S
O253 C247 1.268 . S
O254 Sc244 2.105 . S
O254 C248 1.268 . S
O255 Sc242 2.105 . S
O255 C249 1.268 . S
O256 Sc244 2.105 . S
O256 C250 1.268 . S
O257 Sc243 2.105 . S
O257 C251 1.268 . S
O258 Sc242 2.105 . S
O258 C250 1.268 . S
O259 Sc243 2.105 . S
O259 C249 1.268 . S
O260 Sc244 2.105 . S
O260 C251 1.268 . S
O261 Sc242 2.105 . S
O261 C247 1.268 . S
O262 Sc244 2.105 . S
O262 C246 1.268 . S
O263 Sc243 2.105 . S
O263 C248 1.268 . S
Sc264 O267 2.025 . S
Sc264 O274 2.105 . S
Sc264 O277 2.105 1_554 S
Sc264 O280 2.105 . S
Sc264 O283 2.105 . S
Sc265 O267 2.025 . S
Sc265 O275 2.105 . S
Sc265 O279 2.105 . S
Sc265 O281 2.105 1_554 S
Sc265 O285 2.105 . S
Sc266 O267 2.025 . S
Sc266 O276 2.105 . S
Sc266 O278 2.105 . S
Sc266 O282 2.105 . S
Sc266 O284 2.105 . S
O267 Sc264 2.025 . S
O267 Sc265 2.025 . S
O267 Sc266 2.025 . S
C268 O274 1.268 . S
C268 O284 1.268 . S
C269 O275 1.268 . S
C269 O283 1.268 . S
C270 O276 1.268 . S
C270 O285 1.268 . S
C271 O277 1.268 . S
C271 O281 1.268 . S
C272 O278 1.268 . S
C272 O280 1.268 . S
C273 O279 1.268 . S
C273 O282 1.268 . S
O274 Sc264 2.105 . S
O274 C268 1.268 . S
O275 Sc265 2.105 . S
O275 C269 1.268 . S
O276 Sc266 2.105 . S
O276 C270 1.268 . S
O277 Sc264 2.105 1_556 S
O277 C271 1.268 . S
O278 Sc266 2.105 . S
O278 C272 1.268 . S
O279 Sc265 2.105 . S
O279 C273 1.268 . S
O280 Sc264 2.105 . S
O280 C272 1.268 . S
O281 Sc265 2.105 1_556 S
O281 C271 1.268 . S
O282 Sc266 2.105 . S
O282 C273 1.268 . S
O283 Sc264 2.105 . S
O283 C269 1.268 . S
O284 Sc266 2.105 . S
O284 C268 1.268 . S
O285 Sc265 2.105 . S
O285 C270 1.268 . S
Sc286 O289 2.025 . S
Sc286 O296 2.105 . S
Sc286 O299 2.105 . S
Sc286 O302 2.105 . S
Sc286 O305 2.105 . S
Sc287 O289 2.025 . S
Sc287 O297 2.105 . S
Sc287 O301 2.105 1_556 S
Sc287 O303 2.105 . S
Sc287 O307 2.105 . S
Sc288 O289 2.025 . S
Sc288 O298 2.105 . S
Sc288 O300 2.105 . S
Sc288 O304 2.105 1_556 S
Sc288 O306 2.105 . S
O289 Sc286 2.025 . S
O289 Sc287 2.025 . S
O289 Sc288 2.025 . S
C290 O296 1.268 . S
C290 O306 1.268 . S
C291 O297 1.268 . S
C291 O305 1.268 . S
C292 O298 1.268 . S
C292 O307 1.268 . S
C293 O299 1.268 . S
C293 O303 1.268 . S
C294 O300 1.268 . S
C294 O302 1.268 . S
C295 O301 1.268 . S
C295 O304 1.268 . S
O296 Sc286 2.105 . S
O296 C290 1.268 . S
O297 Sc287 2.105 . S
O297 C291 1.268 . S
O298 Sc288 2.105 . S
O298 C292 1.268 . S
O299 Sc286 2.105 . S
O299 C293 1.268 . S
O300 Sc288 2.105 . S
O300 C294 1.268 . S
O301 Sc287 2.105 1_554 S
O301 C295 1.268 . S
O302 Sc286 2.105 . S
O302 C294 1.268 . S
O303 Sc287 2.105 . S
O303 C293 1.268 . S
O304 Sc288 2.105 1_554 S
O304 C295 1.268 . S
O305 Sc286 2.105 . S
O305 C291 1.268 . S
O306 Sc288 2.105 . S
O306 C290 1.268 . S
O307 Sc287 2.105 . S
O307 C292 1.268 . S
Sc308 O311 2.025 . S
Sc308 O318 2.105 . S
Sc308 O321 2.105 . S
Sc308 O324 2.105 . S
Sc308 O327 2.105 . S
Sc309 O311 2.025 . S
Sc309 O319 2.105 . S
Sc309 O323 2.105 . S
Sc309 O325 2.105 . S
Sc309 O329 2.105 1_554 S
Sc310 O311 2.025 . S
Sc310 O320 2.105 1_554 S
Sc310 O322 2.105 . S
Sc310 O326 2.105 . S
Sc310 O328 2.105 . S
O311 Sc308 2.025 . S
O311 Sc309 2.025 . S
O311 Sc310 2.025 . S
C312 O318 1.268 . S
C312 O328 1.268 . S
C313 O319 1.268 . S
C313 O327 1.268 . S
C314 O320 1.268 . S
C314 O329 1.268 . S
C315 O321 1.268 . S
C315 O325 1.268 . S
C316 O322 1.268 . S
C316 O324 1.268 . S
C317 O323 1.268 . S
C317 O326 1.268 . S
O318 Sc308 2.105 . S
O318 C312 1.268 . S
O319 Sc309 2.105 . S
O319 C313 1.268 . S
O320 Sc310 2.105 1_556 S
O320 C314 1.268 . S
O321 Sc308 2.105 . S
O321 C315 1.268 . S
O322 Sc310 2.105 . S
O322 C316 1.268 . S
O323 Sc309 2.105 . S
O323 C317 1.268 . S
O324 Sc308 2.105 . S
O324 C316 1.268 . S
O325 Sc309 2.105 . S
O325 C315 1.268 . S
O326 Sc310 2.105 . S
O326 C317 1.268 . S
O327 Sc308 2.105 . S
O327 C313 1.268 . S
O328 Sc310 2.105 . S
O328 C312 1.268 . S
O329 Sc309 2.105 1_556 S
O329 C314 1.268 . S
Sc330 O333 2.025 . S
Sc330 O340 2.105 . S
Sc330 O343 2.105 . S
Sc330 O346 2.105 . S
Sc330 O349 2.105 1_556 S
Sc331 O333 2.025 . S
Sc331 O341 2.105 1_556 S
Sc331 O345 2.105 . S
Sc331 O347 2.105 . S
Sc331 O351 2.105 . S
Sc332 O333 2.025 . S
Sc332 O342 2.105 . S
Sc332 O344 2.105 . S
Sc332 O348 2.105 . S
Sc332 O350 2.105 . S
O333 Sc330 2.025 . S
O333 Sc331 2.025 . S
O333 Sc332 2.025 . S
C334 O340 1.268 . S
C334 O350 1.268 . S
C335 O341 1.268 . S
C335 O349 1.268 . S
C336 O342 1.268 . S
C336 O351 1.268 . S
C337 O343 1.268 . S
C337 O347 1.268 . S
C338 O344 1.268 . S
C338 O346 1.268 . S
C339 O345 1.268 . S
C339 O348 1.268 . S
O340 Sc330 2.105 . S
O340 C334 1.268 . S
O341 Sc331 2.105 1_554 S
O341 C335 1.268 . S
O342 Sc332 2.105 . S
O342 C336 1.268 . S
O343 Sc330 2.105 . S
O343 C337 1.268 . S
O344 Sc332 2.105 . S
O344 C338 1.268 . S
O345 Sc331 2.105 . S
O345 C339 1.268 . S
O346 Sc330 2.105 . S
O346 C338 1.268 . S
O347 Sc331 2.105 . S
O347 C337 1.268 . S
O348 Sc332 2.105 . S
O348 C339 1.268 . S
O349 Sc330 2.105 1_554 S
O349 C335 1.268 . S
O350 Sc332 2.105 . S
O350 C334 1.268 . S
O351 Sc331 2.105 . S
O351 C336 1.268 . S
H352 C358 0.930 . S
H353 C362 0.930 . S
H354 C367 0.929 . S
H355 C365 0.929 . S
H356 C360 0.929 . S
H357 C366 0.929 . S
C358 H352 0.930 . S
C358 C359 1.367 . S
C358 C366 1.378 . S
C359 C358 1.367 . S
C359 C367 1.433 . S
C360 H356 0.929 . S
C360 C362 1.378 . S
C360 C364 1.350 . S
C361 C364 1.463 . S
C361 C366 1.350 . S
C361 N369 1.427 . S
C362 H353 0.930 . S
C362 C360 1.378 . S
C362 C363 1.367 . S
C363 C362 1.367 . S
C363 C365 1.433 . S
C364 C360 1.350 . S
C364 C361 1.463 . S
C364 N368 1.427 . S
C365 H355 0.929 . S
C365 C363 1.433 . S
C365 N368 1.384 . S
C366 H357 0.929 . S
C366 C358 1.378 . S
C366 C361 1.350 . S
C367 H354 0.929 . S
C367 C359 1.433 . S
C367 N369 1.384 . S
N368 C364 1.427 . S
N368 C365 1.384 . S
N369 C361 1.427 . S
N369 C367 1.384 . S
H370 C376 0.930 . S
H371 C380 0.930 . S
H372 C385 0.929 . S
H373 C383 0.929 . S
H374 C378 0.929 . S
H375 C384 0.929 . S
C376 H370 0.930 . S
C376 C377 1.367 . S
C376 C384 1.378 . S
C377 C376 1.367 . S
C377 C385 1.433 . S
C378 H374 0.929 . S
C378 C380 1.378 . S
C378 C382 1.350 . S
C379 C382 1.463 . S
C379 C384 1.350 . S
C379 N387 1.427 . S
C380 H371 0.930 . S
C380 C378 1.378 . S
C380 C381 1.367 . S
C381 C380 1.367 . S
C381 C383 1.433 . S
C382 C378 1.350 . S
C382 C379 1.463 . S
C382 N386 1.427 . S
C383 H373 0.929 . S
C383 C381 1.433 . S
C383 N386 1.384 . S
C384 H375 0.929 . S
C384 C376 1.378 . S
C384 C379 1.350 . S
C385 H372 0.929 . S
C385 C377 1.433 . S
C385 N387 1.384 . S
N386 C382 1.427 . S
N386 C383 1.384 . S
N387 C379 1.427 . S
N387 C385 1.384 . S
H388 C394 0.930 . S
H389 C398 0.930 . S
H390 C403 0.929 . S
H391 C401 0.929 . S
H392 C396 0.929 . S
H393 C402 0.929 . S
C394 H388 0.930 . S
C394 C395 1.367 . S
C394 C402 1.378 . S
C395 C394 1.367 . S
C395 C403 1.433 . S
C396 H392 0.929 . S
C396 C398 1.378 . S
C396 C400 1.350 . S
C397 C400 1.463 . S
C397 C402 1.350 . S
C397 N405 1.427 . S
C398 H389 0.930 . S
C398 C396 1.378 . S
C398 C399 1.367 . S
C399 C398 1.367 . S
C399 C401 1.433 . S
C400 C396 1.350 . S
C400 C397 1.463 . S
C400 N404 1.427 . S
C401 H391 0.929 . S
C401 C399 1.433 . S
C401 N404 1.384 . S
C402 H393 0.929 . S
C402 C394 1.378 . S
C402 C397 1.350 . S
C403 H390 0.929 . S
C403 C395 1.433 . S
C403 N405 1.384 . S
N404 C400 1.427 . S
N404 C401 1.384 . S
N405 C397 1.427 . S
N405 C403 1.384 . S
H406 C412 0.930 . S
H407 C416 0.930 . S
H408 C421 0.929 . S
H409 C419 0.929 . S
H410 C414 0.929 . S
H411 C420 0.929 . S
C412 H406 0.930 . S
C412 C413 1.367 . S
C412 C420 1.378 . S
C413 C412 1.367 . S
C413 C421 1.433 . S
C414 H410 0.929 . S
C414 C416 1.378 . S
C414 C418 1.350 . S
C415 C418 1.463 . S
C415 C420 1.350 . S
C415 N423 1.427 . S
C416 H407 0.930 . S
C416 C414 1.378 . S
C416 C417 1.367 . S
C417 C416 1.367 . S
C417 C419 1.433 . S
C418 C414 1.350 . S
C418 C415 1.463 . S
C418 N422 1.427 . S
C419 H409 0.929 . S
C419 C417 1.433 . S
C419 N422 1.384 . S
C420 H411 0.929 . S
C420 C412 1.378 . S
C420 C415 1.350 . S
C421 H408 0.929 . S
C421 C413 1.433 . S
C421 N423 1.384 . S
N422 C418 1.427 . S
N422 C419 1.384 . S
N423 C415 1.427 . S
N423 C421 1.384 . S
H424 C430 0.930 . S
H425 C434 0.930 . S
H426 C439 0.929 . S
H427 C437 0.929 . S
H428 C432 0.929 . S
H429 C438 0.929 . S
C430 H424 0.930 . S
C430 C431 1.367 . S
C430 C438 1.378 . S
C431 C430 1.367 . S
C431 C439 1.433 . S
C432 H428 0.929 . S
C432 C434 1.378 . S
C432 C436 1.350 . S
C433 C436 1.463 . S
C433 C438 1.350 . S
C433 N441 1.427 . S
C434 H425 0.930 . S
C434 C432 1.378 . S
C434 C435 1.367 . S
C435 C434 1.367 . S
C435 C437 1.433 . S
C436 C432 1.350 . S
C436 C433 1.463 . S
C436 N440 1.427 . S
C437 H427 0.929 . S
C437 C435 1.433 . S
C437 N440 1.384 . S
C438 H429 0.929 . S
C438 C430 1.378 . S
C438 C433 1.350 . S
C439 H426 0.929 . S
C439 C431 1.433 . S
C439 N441 1.384 . S
N440 C436 1.427 . S
N440 C437 1.384 . S
N441 C433 1.427 . S
N441 C439 1.384 . S
H442 C448 0.930 . S
H443 C452 0.930 . S
H444 C457 0.929 . S
H445 C455 0.929 . S
H446 C450 0.929 . S
H447 C456 0.929 . S
C448 H442 0.930 . S
C448 C449 1.367 . S
C448 C456 1.378 . S
C449 C448 1.367 . S
C449 C457 1.433 . S
C450 H446 0.929 . S
C450 C452 1.378 . S
C450 C454 1.350 . S
C451 C454 1.463 . S
C451 C456 1.350 . S
C451 N459 1.427 . S
C452 H443 0.930 . S
C452 C450 1.378 . S
C452 C453 1.367 . S
C453 C452 1.367 . S
C453 C455 1.433 . S
C454 C450 1.350 . S
C454 C451 1.463 . S
C454 N458 1.427 . S
C455 H445 0.929 . S
C455 C453 1.433 . S
C455 N458 1.384 . S
C456 H447 0.929 . S
C456 C448 1.378 . S
C456 C451 1.350 . S
C457 H444 0.929 . S
C457 C449 1.433 . S
C457 N459 1.384 . S
N458 C454 1.427 . S
N458 C455 1.384 . S
N459 C451 1.427 . S
N459 C457 1.384 . S
H460 C466 0.930 . S
H461 C470 0.930 . S
H462 C475 0.929 . S
H463 C473 0.929 . S
H464 C468 0.929 . S
H465 C474 0.929 . S
C466 H460 0.930 . S
C466 C467 1.367 . S
C466 C474 1.378 . S
C467 C466 1.367 . S
C467 C475 1.433 . S
C468 H464 0.929 . S
C468 C470 1.378 . S
C468 C472 1.350 . S
C469 C472 1.463 . S
C469 C474 1.350 . S
C469 N477 1.427 . S
C470 H461 0.930 . S
C470 C468 1.378 . S
C470 C471 1.367 . S
C471 C470 1.367 . S
C471 C473 1.433 . S
C472 C468 1.350 . S
C472 C469 1.463 . S
C472 N476 1.427 . S
C473 H463 0.929 . S
C473 C471 1.433 . S
C473 N476 1.384 . S
C474 H465 0.929 . S
C474 C466 1.378 . S
C474 C469 1.350 . S
C475 H462 0.929 . S
C475 C467 1.433 . S
C475 N477 1.384 . S
N476 C472 1.427 . S
N476 C473 1.384 . S
N477 C469 1.427 . S
N477 C475 1.384 . S
H478 C484 0.930 . S
H479 C488 0.930 . S
H480 C493 0.929 . S
H481 C491 0.929 . S
H482 C486 0.929 . S
H483 C492 0.929 . S
C484 H478 0.930 . S
C484 C485 1.367 . S
C484 C492 1.378 . S
C485 C484 1.367 . S
C485 C493 1.433 . S
C486 H482 0.929 . S
C486 C488 1.378 . S
C486 C490 1.350 . S
C487 C490 1.463 . S
C487 C492 1.350 . S
C487 N495 1.427 . S
C488 H479 0.930 . S
C488 C486 1.378 . S
C488 C489 1.367 . S
C489 C488 1.367 . S
C489 C491 1.433 . S
C490 C486 1.350 . S
C490 C487 1.463 . S
C490 N494 1.427 . S
C491 H481 0.929 . S
C491 C489 1.433 . S
C491 N494 1.384 . S
C492 H483 0.929 . S
C492 C484 1.378 . S
C492 C487 1.350 . S
C493 H480 0.929 . S
C493 C485 1.433 . S
C493 N495 1.384 . S
N494 C490 1.427 . S
N494 C491 1.384 . S
N495 C487 1.427 . S
N495 C493 1.384 . S
H496 C502 0.930 . S
H497 C506 0.930 . S
H498 C511 0.929 . S
H499 C509 0.929 . S
H500 C504 0.929 . S
H501 C510 0.929 . S
C502 H496 0.930 . S
C502 C503 1.367 1_556 S
C502 C510 1.378 . S
C503 C502 1.367 1_554 S
C503 C511 1.433 . S
C504 H500 0.929 . S
C504 C506 1.378 . S
C504 C508 1.350 . S
C505 C508 1.463 . S
C505 C510 1.350 1_554 S
C505 N513 1.427 . S
C506 H497 0.930 . S
C506 C504 1.378 . S
C506 C507 1.367 1_554 S
C507 C506 1.367 1_556 S
C507 C509 1.433 . S
C508 C504 1.350 . S
C508 C505 1.463 . S
C508 N512 1.427 1_554 S
C509 H499 0.929 . S
C509 C507 1.433 . S
C509 N512 1.384 . S
C510 H501 0.929 . S
C510 C502 1.378 . S
C510 C505 1.350 1_556 S
C511 H498 0.929 . S
C511 C503 1.433 . S
C511 N513 1.384 . S
N512 C508 1.427 1_556 S
N512 C509 1.384 . S
N513 C505 1.427 . S
N513 C511 1.384 . S
H514 C520 0.930 . S
H515 C524 0.930 1_554 S
H516 C529 0.929 . S
H517 C527 0.929 . S
H518 C522 0.929 . S
H519 C528 0.929 . S
C520 H514 0.930 . S
C520 C521 1.367 1_556 S
C520 C528 1.378 . S
C521 C520 1.367 1_554 S
C521 C529 1.433 . S
C522 H518 0.929 . S
C522 C524 1.378 1_554 S
C522 C526 1.350 1_554 S
C523 C526 1.463 . S
C523 C528 1.350 . S
C523 N531 1.427 1_556 S
C524 H515 0.930 1_556 S
C524 C522 1.378 1_556 S
C524 C525 1.367 . S
C525 C524 1.367 . S
C525 C527 1.433 . S
C526 C522 1.350 1_556 S
C526 C523 1.463 . S
C526 N530 1.427 . S
C527 H517 0.929 . S
C527 C525 1.433 . S
C527 N530 1.384 . S
C528 H519 0.929 . S
C528 C520 1.378 . S
C528 C523 1.350 . S
C529 H516 0.929 . S
C529 C521 1.433 . S
C529 N531 1.384 . S
N530 C526 1.427 . S
N530 C527 1.384 . S
N531 C523 1.427 1_554 S
N531 C529 1.384 . S
H532 C538 0.930 . S
H533 C542 0.930 . S
H534 C547 0.929 . S
H535 C545 0.929 . S
H536 C540 0.929 . S
H537 C546 0.929 . S
C538 H532 0.930 . S
C538 C539 1.367 1_554 S
C538 C546 1.378 . S
C539 C538 1.367 1_556 S
C539 C547 1.433 . S
C540 H536 0.929 . S
C540 C542 1.378 . S
C540 C544 1.350 1_556 S
C541 C544 1.463 . S
C541 C546 1.350 . S
C541 N549 1.427 1_554 S
C542 H533 0.930 . S
C542 C540 1.378 . S
C542 C543 1.367 1_556 S
C543 C542 1.367 1_554 S
C543 C545 1.433 . S
C544 C540 1.350 1_554 S
C544 C541 1.463 . S
C544 N548 1.427 . S
C545 H535 0.929 . S
C545 C543 1.433 . S
C545 N548 1.384 . S
C546 H537 0.929 . S
C546 C538 1.378 . S
C546 C541 1.350 . S
C547 H534 0.929 . S
C547 C539 1.433 . S
C547 N549 1.384 . S
N548 C544 1.427 . S
N548 C545 1.384 . S
N549 C541 1.427 1_556 S
N549 C547 1.384 . S
H550 C556 0.930 . S
H551 C560 0.930 . S
H552 C565 0.929 . S
H553 C563 0.929 . S
H554 C558 0.929 . S
H555 C564 0.929 . S
C556 H550 0.930 . S
C556 C557 1.367 . S
C556 C564 1.378 . S
C557 C556 1.367 . S
C557 C565 1.433 1_556 S
C558 H554 0.929 . S
C558 C560 1.378 . S
C558 C562 1.350 1_554 S
C559 C562 1.463 . S
C559 C564 1.350 . S
C559 N567 1.427 1_556 S
C560 H551 0.930 . S
C560 C558 1.378 . S
C560 C561 1.367 . S
C561 C560 1.367 . S
C561 C563 1.433 1_554 S
C562 C558 1.350 1_556 S
C562 C559 1.463 . S
C562 N566 1.427 . S
C563 H553 0.929 . S
C563 C561 1.433 1_556 S
C563 N566 1.384 . S
C564 H555 0.929 . S
C564 C556 1.378 . S
C564 C559 1.350 . S
C565 H552 0.929 . S
C565 C557 1.433 1_554 S
C565 N567 1.384 . S
N566 C562 1.427 . S
N566 C563 1.384 . S
N567 C559 1.427 1_554 S
N567 C565 1.384 . S
H568 C574 0.930 . S
H569 C578 0.930 . S
H570 C583 0.929 . S
H571 C581 0.929 . S
H572 C576 0.929 . S
H573 C582 0.929 . S
C574 H568 0.930 . S
C574 C575 1.367 . S
C574 C582 1.378 . S
C575 C574 1.367 . S
C575 C583 1.433 . S
C576 H572 0.929 . S
C576 C578 1.378 . S
C576 C580 1.350 . S
C577 C580 1.463 . S
C577 C582 1.350 . S
C577 N585 1.427 . S
C578 H569 0.930 . S
C578 C576 1.378 . S
C578 C579 1.367 . S
C579 C578 1.367 . S
C579 C581 1.433 . S
C580 C576 1.350 . S
C580 C577 1.463 . S
C580 N584 1.427 . S
C581 H571 0.929 . S
C581 C579 1.433 . S
C581 N584 1.384 . S
C582 H573 0.929 . S
C582 C574 1.378 . S
C582 C577 1.350 . S
C583 H570 0.929 . S
C583 C575 1.433 . S
C583 N585 1.384 . S
N584 C580 1.427 . S
N584 C581 1.384 . S
N585 C577 1.427 . S
N585 C583 1.384 . S
H586 C592 0.930 . S
H587 C596 0.930 . S
H588 C601 0.929 . S
H589 C599 0.929 . S
H590 C594 0.929 . S
H591 C600 0.929 . S
C592 H586 0.930 . S
C592 C593 1.367 . S
C592 C600 1.378 . S
C593 C592 1.367 . S
C593 C601 1.433 . S
C594 H590 0.929 . S
C594 C596 1.378 . S
C594 C598 1.350 . S
C595 C598 1.463 . S
C595 C600 1.350 . S
C595 N603 1.427 . S
C596 H587 0.930 . S
C596 C594 1.378 . S
C596 C597 1.367 . S
C597 C596 1.367 . S
C597 C599 1.433 . S
C598 C594 1.350 . S
C598 C595 1.463 . S
C598 N602 1.427 . S
C599 H589 0.929 . S
C599 C597 1.433 . S
C599 N602 1.384 . S
C600 H591 0.929 . S
C600 C592 1.378 . S
C600 C595 1.350 . S
C601 H588 0.929 . S
C601 C593 1.433 . S
C601 N603 1.384 . S
N602 C598 1.427 . S
N602 C599 1.384 . S
N603 C595 1.427 . S
N603 C601 1.384 . S
H604 C610 0.930 . S
H605 C614 0.966 . S
H606 C619 0.929 . S
H607 C617 0.929 . S
H608 C612 0.929 . S
H609 C618 0.929 . S
C610 H604 0.930 . S
C610 C611 1.367 . S
C610 C618 1.378 . S
C611 C610 1.367 . S
C611 C619 1.433 . S
C612 H608 0.929 . S
C612 C614 1.378 . S
C612 C616 1.350 . S
C613 C616 1.463 . S
C613 C618 1.350 . S
C613 N621 1.427 . S
C614 H605 0.966 . S
C614 C612 1.378 . S
C614 C615 1.367 . S
C615 C614 1.367 . S
C615 C617 1.433 . S
C616 C612 1.350 . S
C616 C613 1.463 . S
C616 N620 1.427 . S
C617 H607 0.929 . S
C617 C615 1.433 . S
C617 N620 1.384 . S
C618 H609 0.929 . S
C618 C610 1.378 . S
C618 C613 1.350 . S
C619 H606 0.929 . S
C619 C611 1.433 . S
C619 N621 1.384 . S
N620 C616 1.427 . S
N620 C617 1.384 . S
N621 C613 1.427 . S
N621 C619 1.384 . S
H622 C628 0.930 . S
H623 C632 0.930 . S
H624 C637 0.929 . S
H625 C635 0.929 . S
H626 C630 0.929 . S
H627 C636 0.929 . S
C628 H622 0.930 . S
C628 C629 1.367 . S
C628 C636 1.378 . S
C629 C628 1.367 . S
C629 C637 1.433 . S
C630 H626 0.929 . S
C630 C632 1.378 . S
C630 C634 1.350 . S
C631 C634 1.463 . S
C631 C636 1.350 . S
C631 N639 1.427 . S
C632 H623 0.930 . S
C632 C630 1.378 . S
C632 C633 1.367 . S
C633 C632 1.367 . S
C633 C635 1.433 . S
C634 C630 1.350 . S
C634 C631 1.463 . S
C634 N638 1.427 . S
C635 H625 0.929 . S
C635 C633 1.433 . S
C635 N638 1.384 . S
C636 H627 0.929 . S
C636 C628 1.378 . S
C636 C631 1.350 . S
C637 H624 0.929 . S
C637 C629 1.433 . S
C637 N639 1.384 . S
N638 C634 1.427 . S
N638 C635 1.384 . S
N639 C631 1.427 . S
N639 C637 1.384 . S
H640 C646 0.930 . S
H641 C650 0.930 . S
H642 C655 0.929 . S
H643 C653 0.929 . S
H644 C648 0.929 . S
H645 C654 0.929 . S
C646 H640 0.930 . S
C646 C647 1.367 . S
C646 C654 1.378 . S
C647 C646 1.367 . S
C647 C655 1.433 . S
C648 H644 0.929 . S
C648 C650 1.378 . S
C648 C652 1.350 . S
C649 C652 1.463 . S
C649 C654 1.350 . S
C649 N657 1.427 . S
C650 H641 0.930 . S
C650 C648 1.378 . S
C650 C651 1.367 . S
C651 C650 1.367 . S
C651 C653 1.433 . S
C652 C648 1.350 . S
C652 C649 1.463 . S
C652 N656 1.427 . S
C653 H643 0.929 . S
C653 C651 1.433 . S
C653 N656 1.384 . S
C654 H645 0.929 . S
C654 C646 1.378 . S
C654 C649 1.350 . S
C655 H642 0.929 . S
C655 C647 1.433 . S
C655 N657 1.384 . S
N656 C652 1.427 . S
N656 C653 1.384 . S
N657 C649 1.427 . S
N657 C655 1.384 . S
H658 C664 0.930 . S
H659 C668 0.930 . S
H660 C673 0.929 . S
H661 C671 0.929 . S
H662 C666 0.929 . S
H663 C672 0.929 . S
C664 H658 0.930 . S
C664 C665 1.367 . S
C664 C672 1.378 . S
C665 C664 1.367 . S
C665 C673 1.433 . S
C666 H662 0.929 . S
C666 C668 1.378 . S
C666 C670 1.350 . S
C667 C670 1.463 . S
C667 C672 1.350 . S
C667 N675 1.427 . S
C668 H659 0.930 . S
C668 C666 1.378 . S
C668 C669 1.367 . S
C669 C668 1.367 . S
C669 C671 1.433 . S
C670 C666 1.350 . S
C670 C667 1.463 . S
C670 N674 1.427 . S
C671 H661 0.929 . S
C671 C669 1.433 . S
C671 N674 1.384 . S
C672 H663 0.929 . S
C672 C664 1.378 . S
C672 C667 1.350 . S
C673 H660 0.929 . S
C673 C665 1.433 . S
C673 N675 1.384 . S
N674 C670 1.427 . S
N674 C671 1.384 . S
N675 C667 1.427 . S
N675 C673 1.384 . S
H676 C682 0.930 . S
H677 C686 0.930 . S
H678 C691 0.929 . S
H679 C689 0.929 . S
H680 C684 0.929 . S
H681 C690 0.929 . S
C682 H676 0.930 . S
C682 C683 1.367 . S
C682 C690 1.378 . S
C683 C682 1.367 . S
C683 C691 1.433 . S
C684 H680 0.929 . S
C684 C686 1.378 . S
C684 C688 1.350 . S
C685 C688 1.463 . S
C685 C690 1.350 . S
C685 N693 1.427 . S
C686 H677 0.930 . S
C686 C684 1.378 . S
C686 C687 1.367 . S
C687 C686 1.367 . S
C687 C689 1.433 . S
C688 C684 1.350 . S
C688 C685 1.463 . S
C688 N692 1.427 . S
C689 H679 0.929 . S
C689 C687 1.433 . S
C689 N692 1.384 . S
C690 H681 0.929 . S
C690 C682 1.378 . S
C690 C685 1.350 . S
C691 H678 0.929 . S
C691 C683 1.433 . S
C691 N693 1.384 . S
N692 C688 1.427 . S
N692 C689 1.384 . S
N693 C685 1.427 . S
N693 C691 1.384 . S
H694 C700 0.930 . S
H695 C704 0.930 . S
H696 C709 0.929 . S
H697 C707 0.929 . S
H698 C702 0.929 . S
H699 C708 0.929 . S
C700 H694 0.930 . S
C700 C701 1.367 . S
C700 C708 1.378 . S
C701 C700 1.367 . S
C701 C709 1.433 . S
C702 H698 0.929 . S
C702 C704 1.378 . S
C702 C706 1.350 . S
C703 C706 1.463 . S
C703 C708 1.350 . S
C703 N711 1.427 . S
C704 H695 0.930 . S
C704 C702 1.378 . S
C704 C705 1.367 . S
C705 C704 1.367 . S
C705 C707 1.433 . S
C706 C702 1.350 . S
C706 C703 1.463 . S
C706 N710 1.427 . S
C707 H697 0.929 . S
C707 C705 1.433 . S
C707 N710 1.384 . S
C708 H699 0.929 . S
C708 C700 1.378 . S
C708 C703 1.350 . S
C709 H696 0.929 . S
C709 C701 1.433 . S
C709 N711 1.384 . S
N710 C706 1.427 . S
N710 C707 1.384 . S
N711 C703 1.427 . S
N711 C709 1.384 . S
H712 C718 0.930 . S
H713 C722 0.930 . S
H714 C727 0.929 . S
H715 C725 0.929 . S
H716 C720 0.929 . S
H717 C726 0.929 . S
C718 H712 0.930 . S
C718 C719 1.367 . S
C718 C726 1.378 . S
C719 C718 1.367 . S
C719 C727 1.433 1_556 S
C720 H716 0.929 . S
C720 C722 1.378 . S
C720 C724 1.350 . S
C721 C724 1.463 . S
C721 C726 1.350 1_554 S
C721 N729 1.427 . S
C722 H713 0.930 . S
C722 C720 1.378 . S
C722 C723 1.367 . S
C723 C722 1.367 . S
C723 C725 1.433 1_554 S
C724 C720 1.350 . S
C724 C721 1.463 . S
C724 N728 1.427 1_554 S
C725 H715 0.929 . S
C725 C723 1.433 1_556 S
C725 N728 1.384 . S
C726 H717 0.929 . S
C726 C718 1.378 . S
C726 C721 1.350 1_556 S
C727 H714 0.929 . S
C727 C719 1.433 1_554 S
C727 N729 1.384 . S
N728 C724 1.427 1_556 S
N728 C725 1.384 . S
N729 C721 1.427 . S
N729 C727 1.384 . S
H730 C736 0.930 . S
H731 C740 0.930 . S
H732 C745 0.929 . S
H733 C743 0.929 1_554 S
H734 C738 0.929 . S
H735 C744 0.929 . S
C736 H730 0.930 . S
C736 C737 1.367 . S
C736 C744 1.378 . S
C737 C736 1.367 . S
C737 C745 1.433 1_554 S
C738 H734 0.929 . S
C738 C740 1.378 . S
C738 C742 1.350 . S
C739 C742 1.463 . S
C739 C744 1.350 1_556 S
C739 N747 1.427 . S
C740 H731 0.930 . S
C740 C738 1.378 . S
C740 C741 1.367 . S
C741 C740 1.367 . S
C741 C743 1.433 . S
C742 C738 1.350 . S
C742 C739 1.463 . S
C742 N746 1.427 1_556 S
C743 H733 0.929 1_556 S
C743 C741 1.433 . S
C743 N746 1.384 1_556 S
C744 H735 0.929 . S
C744 C736 1.378 . S
C744 C739 1.350 1_554 S
C745 H732 0.929 . S
C745 C737 1.433 1_556 S
C745 N747 1.384 . S
N746 C742 1.427 1_554 S
N746 C743 1.384 1_554 S
N747 C739 1.427 . S
N747 C745 1.384 . S
H748 C754 0.930 . S
H749 C758 0.930 . S
H750 C763 0.929 . S
H751 C761 0.929 . S
H752 C756 0.929 1_556 S
H753 C762 0.929 . S
C754 H748 0.930 . S
C754 C755 1.367 1_554 S
C754 C762 1.378 . S
C755 C754 1.367 1_556 S
C755 C763 1.433 . S
C756 H752 0.929 1_554 S
C756 C758 1.378 . S
C756 C760 1.350 . S
C757 C760 1.463 . S
C757 C762 1.350 . S
C757 N765 1.427 1_554 S
C758 H749 0.930 . S
C758 C756 1.378 . S
C758 C759 1.367 . S
C759 C758 1.367 . S
C759 C761 1.433 . S
C760 C756 1.350 . S
C760 C757 1.463 . S
C760 N764 1.427 . S
C761 H751 0.929 . S
C761 C759 1.433 . S
C761 N764 1.384 . S
C762 H753 0.929 . S
C762 C754 1.378 . S
C762 C757 1.350 . S
C763 H750 0.929 . S
C763 C755 1.433 . S
C763 N765 1.384 . S
N764 C760 1.427 . S
N764 C761 1.384 . S
N765 C757 1.427 1_556 S
N765 C763 1.384 . S
H766 C772 0.930 . S
H767 C776 0.930 . S
H768 C781 0.929 . S
H769 C779 0.929 . S
H770 C774 0.929 . S
H771 C780 0.929 . S
C772 H766 0.930 . S
C772 C773 1.367 1_554 S
C772 C780 1.378 . S
C773 C772 1.367 1_556 S
C773 C781 1.433 . S
C774 H770 0.929 . S
C774 C776 1.378 . S
C774 C778 1.350 . S
C775 C778 1.463 . S
C775 C780 1.350 1_556 S
C775 N783 1.427 . S
C776 H767 0.930 . S
C776 C774 1.378 . S
C776 C777 1.367 1_556 S
C777 C776 1.367 1_554 S
C777 C779 1.433 . S
C778 C774 1.350 . S
C778 C775 1.463 . S
C778 N782 1.427 1_556 S
C779 H769 0.929 . S
C779 C777 1.433 . S
C779 N782 1.384 . S
C780 H771 0.929 . S
C780 C772 1.378 . S
C780 C775 1.350 1_554 S
C781 H768 0.929 . S
C781 C773 1.433 . S
C781 N783 1.384 . S
N782 C778 1.427 1_554 S
N782 C779 1.384 . S
N783 C775 1.427 . S
N783 C781 1.384 . S
H784 C790 0.930 . S
H785 C794 0.930 . S
H786 C799 0.929 . S
H787 C797 0.929 . S
H788 C792 0.929 . S
H789 C798 0.929 . S
C790 H784 0.930 . S
C790 C791 1.367 . S
C790 C798 1.378 . S
C791 C790 1.367 . S
C791 C799 1.433 1_565 S
C792 H788 0.929 . S
C792 C794 1.378 . S
C792 C796 1.350 . S
C793 C796 1.463 . S
C793 C798 1.350 1_545 S
C793 N801 1.427 . S
C794 H785 0.930 . S
C794 C792 1.378 . S
C794 C795 1.367 . S
C795 C794 1.367 . S
C795 C797 1.433 . S
C796 C792 1.350 . S
C796 C793 1.463 . S
C796 N800 1.427 . S
C797 H787 0.929 . S
C797 C795 1.433 . S
C797 N800 1.384 . S
C798 H789 0.929 . S
C798 C790 1.378 . S
C798 C793 1.350 1_565 S
C799 H786 0.929 . S
C799 C791 1.433 1_545 S
C799 N801 1.384 . S
N800 C796 1.427 . S
N800 C797 1.384 . S
N801 C793 1.427 . S
N801 C799 1.384 . S
H802 C808 0.930 . S
H803 C812 0.930 . S
H804 C817 0.929 . S
H805 C815 0.929 . S
H806 C810 0.929 . S
H807 C816 0.929 . S
C808 H802 0.930 . S
C808 C809 1.367 . S
C808 C816 1.378 1_655 S
C809 C808 1.367 . S
C809 C817 1.433 . S
C810 H806 0.929 . S
C810 C812 1.378 . S
C810 C814 1.350 . S
C811 C814 1.463 . S
C811 C816 1.350 . S
C811 N819 1.427 1_455 S
C812 H803 0.930 . S
C812 C810 1.378 . S
C812 C813 1.367 . S
C813 C812 1.367 . S
C813 C815 1.433 . S
C814 C810 1.350 . S
C814 C811 1.463 . S
C814 N818 1.427 . S
C815 H805 0.929 . S
C815 C813 1.433 . S
C815 N818 1.384 . S
C816 H807 0.929 . S
C816 C808 1.378 1_455 S
C816 C811 1.350 . S
C817 H804 0.929 . S
C817 C809 1.433 . S
C817 N819 1.384 . S
N818 C814 1.427 . S
N818 C815 1.384 . S
N819 C811 1.427 1_655 S
N819 C817 1.384 . S
H820 C826 0.930 . S
H821 C830 0.930 . S
H822 C835 0.929 . S
H823 C833 0.929 . S
H824 C828 0.929 . S
H825 C834 0.929 . S
C826 H820 0.930 . S
C826 C827 1.367 . S
C826 C834 1.378 . S
C827 C826 1.367 . S
C827 C835 1.433 . S
C828 H824 0.929 . S
C828 C830 1.378 . S
C828 C832 1.350 1_545 S
C829 C832 1.463 . S
C829 C834 1.350 . S
C829 N837 1.427 . S
C830 H821 0.930 . S
C830 C828 1.378 . S
C830 C831 1.367 . S
C831 C830 1.367 . S
C831 C833 1.433 1_545 S
C832 C828 1.350 1_565 S
C832 C829 1.463 . S
C832 N836 1.427 . S
C833 H823 0.929 . S
C833 C831 1.433 1_565 S
C833 N836 1.384 . S
C834 H825 0.929 . S
C834 C826 1.378 . S
C834 C829 1.350 . S
C835 H822 0.929 . S
C835 C827 1.433 . S
C835 N837 1.384 . S
N836 C832 1.427 . S
N836 C833 1.384 . S
N837 C829 1.427 . S
N837 C835 1.384 . S
H838 C844 0.930 . S
H839 C848 0.930 . S
H840 C853 0.929 . S
H841 C851 0.929 . S
H842 C846 0.929 . S
H843 C852 0.929 . S
C844 H838 0.930 . S
C844 C845 1.367 . S
C844 C852 1.378 . S
C845 C844 1.367 . S
C845 C853 1.433 . S
C846 H842 0.929 . S
C846 C848 1.378 . S
C846 C850 1.350 1_455 S
C847 C850 1.463 . S
C847 C852 1.350 . S
C847 N855 1.427 . S
C848 H839 0.930 . S
C848 C846 1.378 . S
C848 C849 1.367 . S
C849 C848 1.367 . S
C849 C851 1.435 1_455 S
C850 C846 1.350 1_655 S
C850 C847 1.463 . S
C850 N854 1.427 . S
C851 H841 0.929 . S
C851 C849 1.435 1_655 S
C851 N854 1.383 . S
C852 H843 0.929 . S
C852 C844 1.378 . S
C852 C847 1.350 . S
C853 H840 0.929 . S
C853 C845 1.433 . S
C853 N855 1.384 . S
N854 C850 1.427 . S
N854 C851 1.383 . S
N855 C847 1.427 . S
N855 C853 1.384 . S
H856 C862 0.930 . S
H857 C866 0.930 . S
H858 C871 0.929 . S
H859 C869 0.929 . S
H860 C864 0.929 1_565 S
H861 C870 0.929 . S
C862 H856 0.930 . S
C862 C863 1.367 1_545 S
C862 C870 1.378 . S
C863 C862 1.367 1_565 S
C863 C871 1.433 . S
C864 H860 0.929 1_545 S
C864 C866 1.378 . S
C864 C868 1.350 . S
C865 C868 1.463 . S
C865 C870 1.350 . S
C865 N873 1.427 1_545 S
C866 H857 0.930 . S
C866 C864 1.378 . S
C866 C867 1.367 . S
C867 C866 1.367 . S
C867 C869 1.433 . S
C868 C864 1.350 . S
C868 C865 1.463 . S
C868 N872 1.427 . S
C869 H859 0.929 . S
C869 C867 1.433 . S
C869 N872 1.384 . S
C870 H861 0.929 . S
C870 C862 1.378 . S
C870 C865 1.350 . S
C871 H858 0.929 . S
C871 C863 1.433 . S
C871 N873 1.384 . S
N872 C868 1.427 . S
N872 C869 1.384 . S
N873 C865 1.427 1_565 S
N873 C871 1.384 . S
H874 C880 0.930 . S
H875 C884 0.930 . S
H876 C889 0.929 . S
H877 C887 0.929 . S
H878 C882 0.929 . S
H879 C888 0.929 . S
C880 H874 0.930 . S
C880 C881 1.367 . S
C880 C888 1.378 . S
C881 C880 1.367 . S
C881 C889 1.433 . S
C882 H878 0.929 . S
C882 C884 1.378 . S
C882 C886 1.350 1_655 S
C883 C886 1.463 . S
C883 C888 1.350 . S
C883 N891 1.427 . S
C884 H875 0.930 . S
C884 C882 1.378 . S
C884 C885 1.367 . S
C885 C884 1.367 . S
C885 C887 1.433 1_655 S
C886 C882 1.350 1_455 S
C886 C883 1.463 . S
C886 N890 1.427 . S
C887 H877 0.929 . S
C887 C885 1.433 1_455 S
C887 N890 1.384 . S
C888 H879 0.929 . S
C888 C880 1.378 . S
C888 C883 1.350 . S
C889 H876 0.929 . S
C889 C881 1.433 . S
C889 N891 1.384 . S
N890 C886 1.427 . S
N890 C887 1.384 . S
N891 C883 1.427 . S
N891 C889 1.384 . S
H892 C898 0.930 . S
H893 C902 0.930 . S
H894 C907 0.929 . S
H895 C905 0.929 . S
H896 C900 0.929 . S
H897 C906 0.929 1_545 S
C898 H892 0.930 . S
C898 C899 1.367 . S
C898 C906 1.378 . S
C899 C898 1.367 . S
C899 C907 1.433 . S
C900 H896 0.929 . S
C900 C902 1.378 . S
C900 C904 1.350 . S
C901 C904 1.463 . S
C901 C906 1.350 . S
C901 N909 1.427 . S
C902 H893 0.930 . S
C902 C900 1.378 . S
C902 C903 1.367 1_565 S
C903 C902 1.367 1_545 S
C903 C905 1.433 . S
C904 C900 1.350 . S
C904 C901 1.463 . S
C904 N908 1.427 1_565 S
C905 H895 0.929 . S
C905 C903 1.433 . S
C905 N908 1.384 . S
C906 H897 0.929 1_565 S
C906 C898 1.378 . S
C906 C901 1.350 . S
C907 H894 0.929 . S
C907 C899 1.433 . S
C907 N909 1.384 . S
N908 C904 1.427 1_545 S
N908 C905 1.384 . S
N909 C901 1.427 . S
N909 C907 1.384 . S
H910 C916 0.930 . S
H911 C920 0.930 . S
H912 C925 0.929 . S
H913 C923 0.929 . S
H914 C918 0.929 . S
H915 C924 0.929 . S
C916 H910 0.930 . S
C916 C917 1.367 . S
C916 C924 1.378 . S
C917 C916 1.367 . S
C917 C925 1.433 1_455 S
C918 H914 0.929 . S
C918 C920 1.378 . S
C918 C922 1.350 . S
C919 C922 1.463 . S
C919 C924 1.350 1_655 S
C919 N927 1.427 . S
C920 H911 0.930 . S
C920 C918 1.378 . S
C920 C921 1.367 . S
C921 C920 1.367 . S
C921 C923 1.433 . S
C922 C918 1.350 . S
C922 C919 1.463 . S
C922 N926 1.427 . S
C923 H913 0.929 . S
C923 C921 1.433 . S
C923 N926 1.384 . S
C924 H915 0.929 . S
C924 C916 1.378 . S
C924 C919 1.350 1_455 S
C925 H912 0.929 . S
C925 C917 1.433 1_655 S
C925 N927 1.384 . S
N926 C922 1.427 . S
N926 C923 1.384 . S
N927 C919 1.427 . S
N927 C925 1.384 . S
H928 C934 0.930 . S
H929 C938 0.930 . S
H930 C943 0.929 . S
H931 C941 0.929 . S
H932 C936 0.929 . S
H933 C942 0.929 . S
C934 H928 0.930 . S
C934 C935 1.367 . S
C934 C942 1.378 . S
C935 C934 1.367 . S
C935 C943 1.433 . S
C936 H932 0.929 . S
C936 C938 1.378 . S
C936 C940 1.350 . S
C937 C940 1.463 . S
C937 C942 1.350 . S
C937 N945 1.427 . S
C938 H929 0.930 . S
C938 C936 1.378 . S
C938 C939 1.367 . S
C939 C938 1.367 . S
C939 C941 1.433 . S
C940 C936 1.350 . S
C940 C937 1.463 . S
C940 N944 1.427 . S
C941 H931 0.929 . S
C941 C939 1.433 . S
C941 N944 1.384 . S
C942 H933 0.929 . S
C942 C934 1.378 . S
C942 C937 1.350 . S
C943 H930 0.929 . S
C943 C935 1.433 . S
C943 N945 1.384 . S
N944 C940 1.427 . S
N944 C941 1.384 . S
N945 C937 1.427 . S
N945 C943 1.384 . S
H946 C952 0.930 . S
H947 C956 0.930 . S
H948 C961 0.929 . S
H949 C959 0.929 . S
H950 C954 0.929 . S
H951 C960 0.929 . S
C952 H946 0.930 . S
C952 C953 1.367 . S
C952 C960 1.378 . S
C953 C952 1.367 . S
C953 C961 1.433 . S
C954 H950 0.929 . S
C954 C956 1.378 . S
C954 C958 1.350 . S
C955 C958 1.463 . S
C955 C960 1.350 . S
C955 N963 1.427 . S
C956 H947 0.930 . S
C956 C954 1.378 . S
C956 C957 1.367 . S
C957 C956 1.367 . S
C957 C959 1.433 . S
C958 C954 1.350 . S
C958 C955 1.463 . S
C958 N962 1.427 . S
C959 H949 0.929 . S
C959 C957 1.433 . S
C959 N962 1.384 . S
C960 H951 0.929 . S
C960 C952 1.378 . S
C960 C955 1.350 . S
C961 H948 0.929 . S
C961 C953 1.433 . S
C961 N963 1.384 . S
N962 C958 1.427 . S
N962 C959 1.384 . S
N963 C955 1.427 . S
N963 C961 1.384 . S
H964 C970 0.930 . S
H965 C974 0.930 . S
H966 C979 0.929 . S
H967 C977 0.929 . S
H968 C972 0.929 . S
H969 C978 0.929 . S
C970 H964 0.930 . S
C970 C971 1.367 . S
C970 C978 1.378 . S
C971 C970 1.367 . S
C971 C979 1.433 . S
C972 H968 0.929 . S
C972 C974 1.378 . S
C972 C976 1.350 . S
C973 C976 1.463 . S
C973 C978 1.350 . S
C973 N981 1.427 . S
C974 H965 0.930 . S
C974 C972 1.378 . S
C974 C975 1.367 . S
C975 C974 1.367 . S
C975 C977 1.433 . S
C976 C972 1.350 . S
C976 C973 1.463 . S
C976 N980 1.427 . S
C977 H967 0.929 . S
C977 C975 1.433 . S
C977 N980 1.384 . S
C978 H969 0.929 . S
C978 C970 1.378 . S
C978 C973 1.350 . S
C979 H966 0.929 . S
C979 C971 1.433 . S
C979 N981 1.384 . S
N980 C976 1.427 . S
N980 C977 1.384 . S
N981 C973 1.427 . S
N981 C979 1.384 . S
H982 C988 0.930 . S
H983 C992 0.930 . S
H984 C997 0.929 . S
H985 C995 0.929 . S
H986 C990 0.929 . S
H987 C996 0.929 . S
C988 H982 0.930 . S
C988 C989 1.367 . S
C988 C996 1.378 . S
C989 C988 1.367 . S
C989 C997 1.433 . S
C990 H986 0.929 . S
C990 C992 1.378 . S
C990 C994 1.350 . S
C991 C994 1.463 . S
C991 C996 1.350 . S
C991 N999 1.427 . S
C992 H983 0.930 . S
C992 C990 1.378 . S
C992 C993 1.367 . S
C993 C992 1.367 . S
C993 C995 1.433 . S
C994 C990 1.350 . S
C994 C991 1.463 . S
C994 N998 1.427 . S
C995 H985 0.929 . S
C995 C993 1.433 . S
C995 N998 1.384 . S
C996 H987 0.929 . S
C996 C988 1.378 . S
C996 C991 1.350 . S
C997 H984 0.929 . S
C997 C989 1.433 . S
C997 N999 1.384 . S
N998 C994 1.427 . S
N998 C995 1.384 . S
N999 C991 1.427 . S
N999 C997 1.384 . S
H1000 C1006 0.930 . S
H1001 C1010 0.930 . S
H1002 C1015 0.929 . S
H1003 C1013 0.929 . S
H1004 C1008 0.929 . S
H1005 C1014 0.929 . S
C1006 H1000 0.930 . S
C1006 C1007 1.367 . S
C1006 C1014 1.378 . S
C1007 C1006 1.367 . S
C1007 C1015 1.433 . S
C1008 H1004 0.929 . S
C1008 C1010 1.378 . S
C1008 C1012 1.350 . S
C1009 C1012 1.463 . S
C1009 C1014 1.350 . S
C1009 N1017 1.427 . S
C1010 H1001 0.930 . S
C1010 C1008 1.378 . S
C1010 C1011 1.367 . S
C1011 C1010 1.367 . S
C1011 C1013 1.433 . S
C1012 C1008 1.350 . S
C1012 C1009 1.463 . S
C1012 N1016 1.427 . S
C1013 H1003 0.929 . S
C1013 C1011 1.433 . S
C1013 N1016 1.384 . S
C1014 H1005 0.929 . S
C1014 C1006 1.378 . S
C1014 C1009 1.350 . S
C1015 H1002 0.929 . S
C1015 C1007 1.433 . S
C1015 N1017 1.384 . S
N1016 C1012 1.427 . S
N1016 C1013 1.384 . S
N1017 C1009 1.427 . S
N1017 C1015 1.384 . S
H1018 C1024 0.930 . S
H1019 C1028 0.930 . S
H1020 C1033 0.929 . S
H1021 C1031 0.929 . S
H1022 C1026 0.929 . S
H1023 C1032 0.929 . S
C1024 H1018 0.930 . S
C1024 C1025 1.367 . S
C1024 C1032 1.378 . S
C1025 C1024 1.367 . S
C1025 C1033 1.433 . S
C1026 H1022 0.929 . S
C1026 C1028 1.378 . S
C1026 C1030 1.350 . S
C1027 C1030 1.463 . S
C1027 C1032 1.350 . S
C1027 N1035 1.427 . S
C1028 H1019 0.930 . S
C1028 C1026 1.378 . S
C1028 C1029 1.367 . S
C1029 C1028 1.367 . S
C1029 C1031 1.433 . S
C1030 C1026 1.350 . S
C1030 C1027 1.463 . S
C1030 N1034 1.427 . S
C1031 H1021 0.929 . S
C1031 C1029 1.433 . S
C1031 N1034 1.384 . S
C1032 H1023 0.929 . S
C1032 C1024 1.378 . S
C1032 C1027 1.350 . S
C1033 H1020 0.929 . S
C1033 C1025 1.433 . S
C1033 N1035 1.384 . S
N1034 C1030 1.427 . S
N1034 C1031 1.384 . S
N1035 C1027 1.427 . S
N1035 C1033 1.384 . S
H1036 C1042 0.930 . S
H1037 C1046 0.930 . S
H1038 C1051 0.929 . S
H1039 C1049 0.929 . S
H1040 C1044 0.929 . S
H1041 C1050 0.929 . S
C1042 H1036 0.930 . S
C1042 C1043 1.367 . S
C1042 C1050 1.378 . S
C1043 C1042 1.367 . S
C1043 C1051 1.433 . S
C1044 H1040 0.929 . S
C1044 C1046 1.378 . S
C1044 C1048 1.350 . S
C1045 C1048 1.463 . S
C1045 C1050 1.350 . S
C1045 N1053 1.427 . S
C1046 H1037 0.930 . S
C1046 C1044 1.378 . S
C1046 C1047 1.367 . S
C1047 C1046 1.367 . S
C1047 C1049 1.433 . S
C1048 C1044 1.350 . S
C1048 C1045 1.463 . S
C1048 N1052 1.427 . S
C1049 H1039 0.929 . S
C1049 C1047 1.433 . S
C1049 N1052 1.384 . S
C1050 H1041 0.929 . S
C1050 C1042 1.378 . S
C1050 C1045 1.350 . S
C1051 H1038 0.929 . S
C1051 C1043 1.433 . S
C1051 N1053 1.384 . S
N1052 C1048 1.427 . S
N1052 C1049 1.384 . S
N1053 C1045 1.427 . S
N1053 C1051 1.384 . S
H1054 C1060 0.930 . S
H1055 C1064 0.930 . S
H1056 C1069 0.929 . S
H1057 C1067 0.929 . S
H1058 C1062 0.929 . S
H1059 C1068 0.929 . S
C1060 H1054 0.930 . S
C1060 C1061 1.367 . S
C1060 C1068 1.378 . S
C1061 C1060 1.367 . S
C1061 C1069 1.433 . S
C1062 H1058 0.929 . S
C1062 C1064 1.378 . S
C1062 C1066 1.350 . S
C1063 C1066 1.463 . S
C1063 C1068 1.350 . S
C1063 N1071 1.427 . S
C1064 H1055 0.930 . S
C1064 C1062 1.378 . S
C1064 C1065 1.367 . S
C1065 C1064 1.367 . S
C1065 C1067 1.433 . S
C1066 C1062 1.350 . S
C1066 C1063 1.463 . S
C1066 N1070 1.427 . S
C1067 H1057 0.929 . S
C1067 C1065 1.433 . S
C1067 N1070 1.384 . S
C1068 H1059 0.929 . S
C1068 C1060 1.378 . S
C1068 C1063 1.350 . S
C1069 H1056 0.929 . S
C1069 C1061 1.433 . S
C1069 N1071 1.384 . S
N1070 C1066 1.427 . S
N1070 C1067 1.384 . S
N1071 C1063 1.427 . S
N1071 C1069 1.384 . S
H1072 C1078 0.930 . S
H1073 C1082 0.930 . S
H1074 C1087 0.929 . S
H1075 C1085 0.929 . S
H1076 C1080 0.929 . S
H1077 C1086 0.929 . S
C1078 H1072 0.930 . S
C1078 C1079 1.367 . S
C1078 C1086 1.378 . S
C1079 C1078 1.367 . S
C1079 C1087 1.433 . S
C1080 H1076 0.929 . S
C1080 C1082 1.378 . S
C1080 C1084 1.350 . S
C1081 C1084 1.463 1_556 S
C1081 C1086 1.350 . S
C1081 N1089 1.427 1_556 S
C1082 H1073 0.930 . S
C1082 C1080 1.378 . S
C1082 C1083 1.367 . S
C1083 C1082 1.367 . S
C1083 C1085 1.433 . S
C1084 C1080 1.350 . S
C1084 C1081 1.463 1_554 S
C1084 N1088 1.427 1_554 S
C1085 H1075 0.929 . S
C1085 C1083 1.433 . S
C1085 N1088 1.384 1_554 S
C1086 H1077 0.929 . S
C1086 C1078 1.378 . S
C1086 C1081 1.350 . S
C1087 H1074 0.929 . S
C1087 C1079 1.433 . S
C1087 N1089 1.384 1_556 S
N1088 C1084 1.427 1_556 S
N1088 C1085 1.384 1_556 S
N1089 C1081 1.427 1_554 S
N1089 C1087 1.384 1_554 S
H1090 C1096 0.930 1_556 S
H1091 C1100 0.930 1_554 S
H1092 C1105 0.929 . S
H1093 C1103 0.929 . S
H1094 C1098 0.929 . S
H1095 C1104 0.929 . S
C1096 H1090 0.930 1_554 S
C1096 C1097 1.367 . S
C1096 C1104 1.378 1_554 S
C1097 C1096 1.367 . S
C1097 C1105 1.433 . S
C1098 H1094 0.929 . S
C1098 C1100 1.378 1_554 S
C1098 C1102 1.350 1_554 S
C1099 C1102 1.463 1_554 S
C1099 C1104 1.350 1_554 S
C1099 N1107 1.427 . S
C1100 H1091 0.930 1_556 S
C1100 C1098 1.378 1_556 S
C1100 C1101 1.367 . S
C1101 C1100 1.367 . S
C1101 C1103 1.433 . S
C1102 C1098 1.350 1_556 S
C1102 C1099 1.463 1_556 S
C1102 N1106 1.427 . S
C1103 H1093 0.929 . S
C1103 C1101 1.433 . S
C1103 N1106 1.384 . S
C1104 H1095 0.929 . S
C1104 C1096 1.378 1_556 S
C1104 C1099 1.350 1_556 S
C1105 H1092 0.929 . S
C1105 C1097 1.433 . S
C1105 N1107 1.384 . S
N1106 C1102 1.427 . S
N1106 C1103 1.384 . S
N1107 C1099 1.427 . S
N1107 C1105 1.384 . S
H1108 C1114 0.930 1_556 S
H1109 C1118 0.930 1_554 S
H1110 C1123 0.929 . S
H1111 C1121 0.929 . S
H1112 C1116 0.929 . S
H1113 C1122 0.929 . S
C1114 H1108 0.930 1_554 S
C1114 C1115 1.367 . S
C1114 C1122 1.378 1_554 S
C1115 C1114 1.367 . S
C1115 C1123 1.433 . S
C1116 H1112 0.929 . S
C1116 C1118 1.378 1_554 S
C1116 C1120 1.350 1_554 S
C1117 C1120 1.463 1_554 S
C1117 C1122 1.350 1_554 S
C1117 N1125 1.427 . S
C1118 H1109 0.930 1_556 S
C1118 C1116 1.378 1_556 S
C1118 C1119 1.367 . S
C1119 C1118 1.367 . S
C1119 C1121 1.433 . S
C1120 C1116 1.350 1_556 S
C1120 C1117 1.463 1_556 S
C1120 N1124 1.427 . S
C1121 H1111 0.929 . S
C1121 C1119 1.433 . S
C1121 N1124 1.384 . S
C1122 H1113 0.929 . S
C1122 C1114 1.378 1_556 S
C1122 C1117 1.350 1_556 S
C1123 H1110 0.929 . S
C1123 C1115 1.433 . S
C1123 N1125 1.384 . S
N1124 C1120 1.427 . S
N1124 C1121 1.384 . S
N1125 C1117 1.427 . S
N1125 C1123 1.384 . S
H1126 C1132 0.930 . S
H1127 C1136 0.930 . S
H1128 C1141 0.929 . S
H1129 C1139 0.929 . S
H1130 C1134 0.929 . S
H1131 C1140 0.929 . S
C1132 H1126 0.930 . S
C1132 C1133 1.367 . S
C1132 C1140 1.378 . S
C1133 C1132 1.367 . S
C1133 C1141 1.433 . S
C1134 H1130 0.929 . S
C1134 C1136 1.378 . S
C1134 C1138 1.350 . S
C1135 C1138 1.463 1_554 S
C1135 C1140 1.350 . S
C1135 N1143 1.427 . S
C1136 H1127 0.930 . S
C1136 C1134 1.378 . S
C1136 C1137 1.367 . S
C1137 C1136 1.367 . S
C1137 C1139 1.433 . S
C1138 C1134 1.350 . S
C1138 C1135 1.463 1_556 S
C1138 N1142 1.427 . S
C1139 H1129 0.929 . S
C1139 C1137 1.433 . S
C1139 N1142 1.384 . S
C1140 H1131 0.929 . S
C1140 C1132 1.378 . S
C1140 C1135 1.350 . S
C1141 H1128 0.929 . S
C1141 C1133 1.433 . S
C1141 N1143 1.384 . S
N1142 C1138 1.427 . S
N1142 C1139 1.384 . S
N1143 C1135 1.427 . S
N1143 C1141 1.384 . S
H1144 C1150 0.930 . S
H1145 C1154 0.930 . S
H1146 C1159 0.929 . S
H1147 C1157 0.929 . S
H1148 C1152 0.929 . S
H1149 C1158 0.929 . S
C1150 H1144 0.930 . S
C1150 C1151 1.367 . S
C1150 C1158 1.378 . S
C1151 C1150 1.367 . S
C1151 C1159 1.433 . S
C1152 H1148 0.929 . S
C1152 C1154 1.378 . S
C1152 C1156 1.350 . S
C1153 C1156 1.463 . S
C1153 C1158 1.350 . S
C1153 N1161 1.427 . S
C1154 H1145 0.930 . S
C1154 C1152 1.378 . S
C1154 C1155 1.367 . S
C1155 C1154 1.367 . S
C1155 C1157 1.433 . S
C1156 C1152 1.350 . S
C1156 C1153 1.463 . S
C1156 N1160 1.427 . S
C1157 H1147 0.929 . S
C1157 C1155 1.433 . S
C1157 N1160 1.384 . S
C1158 H1149 0.929 . S
C1158 C1150 1.378 . S
C1158 C1153 1.350 . S
C1159 H1146 0.929 . S
C1159 C1151 1.433 . S
C1159 N1161 1.384 . S
N1160 C1156 1.427 . S
N1160 C1157 1.384 . S
N1161 C1153 1.427 . S
N1161 C1159 1.384 . S
H1162 C1168 0.930 . S
H1163 C1172 0.930 . S
H1164 C1177 0.929 . S
H1165 C1175 0.929 . S
H1166 C1170 0.929 . S
H1167 C1176 0.929 . S
C1168 H1162 0.930 . S
C1168 C1169 1.367 . S
C1168 C1176 1.378 . S
C1169 C1168 1.367 . S
C1169 C1177 1.433 . S
C1170 H1166 0.929 . S
C1170 C1172 1.378 . S
C1170 C1174 1.350 . S
C1171 C1174 1.463 . S
C1171 C1176 1.350 . S
C1171 N1179 1.427 . S
C1172 H1163 0.930 . S
C1172 C1170 1.378 . S
C1172 C1173 1.367 . S
C1173 C1172 1.367 . S
C1173 C1175 1.433 . S
C1174 C1170 1.350 . S
C1174 C1171 1.463 . S
C1174 N1178 1.427 . S
C1175 H1165 0.929 . S
C1175 C1173 1.433 . S
C1175 N1178 1.384 . S
C1176 H1167 0.929 . S
C1176 C1168 1.378 . S
C1176 C1171 1.350 . S
C1177 H1164 0.929 . S
C1177 C1169 1.433 . S
C1177 N1179 1.384 . S
N1178 C1174 1.427 . S
N1178 C1175 1.384 . S
N1179 C1171 1.427 . S
N1179 C1177 1.384 . S
H1180 C1186 0.930 . S
H1181 C1190 0.930 . S
H1182 C1195 0.929 . S
H1183 C1193 0.929 . S
H1184 C1188 0.929 . S
H1185 C1194 0.929 . S
C1186 H1180 0.930 . S
C1186 C1187 1.367 . S
C1186 C1194 1.378 . S
C1187 C1186 1.367 . S
C1187 C1195 1.433 . S
C1188 H1184 0.929 . S
C1188 C1190 1.378 . S
C1188 C1192 1.350 . S
C1189 C1192 1.463 . S
C1189 C1194 1.350 . S
C1189 N1197 1.427 . S
C1190 H1181 0.930 . S
C1190 C1188 1.378 . S
C1190 C1191 1.367 . S
C1191 C1190 1.367 . S
C1191 C1193 1.433 . S
C1192 C1188 1.350 . S
C1192 C1189 1.463 . S
C1192 N1196 1.427 . S
C1193 H1183 0.929 . S
C1193 C1191 1.433 . S
C1193 N1196 1.384 . S
C1194 H1185 0.929 . S
C1194 C1186 1.378 . S
C1194 C1189 1.350 . S
C1195 H1182 0.929 . S
C1195 C1187 1.433 . S
C1195 N1197 1.384 . S
N1196 C1192 1.427 . S
N1196 C1193 1.384 . S
N1197 C1189 1.427 . S
N1197 C1195 1.384 . S
H1198 C1204 0.930 . S
H1199 C1208 0.930 . S
H1200 C1213 0.929 . S
H1201 C1211 0.929 . S
H1202 C1206 0.929 . S
H1203 C1212 0.929 . S
C1204 H1198 0.930 . S
C1204 C1205 1.367 . S
C1204 C1212 1.378 . S
C1205 C1204 1.367 . S
C1205 C1213 1.433 . S
C1206 H1202 0.929 . S
C1206 C1208 1.378 . S
C1206 C1210 1.350 . S
C1207 C1210 1.463 . S
C1207 C1212 1.350 . S
C1207 N1215 1.427 . S
C1208 H1199 0.930 . S
C1208 C1206 1.378 . S
C1208 C1209 1.367 . S
C1209 C1208 1.367 . S
C1209 C1211 1.433 . S
C1210 C1206 1.350 . S
C1210 C1207 1.463 . S
C1210 N1214 1.427 . S
C1211 H1201 0.929 . S
C1211 C1209 1.433 . S
C1211 N1214 1.384 . S
C1212 H1203 0.929 . S
C1212 C1204 1.378 . S
C1212 C1207 1.350 . S
C1213 H1200 0.929 . S
C1213 C1205 1.433 . S
C1213 N1215 1.384 . S
N1214 C1210 1.427 . S
N1214 C1211 1.384 . S
N1215 C1207 1.427 . S
N1215 C1213 1.384 . S
C359 C5 1.256 . S
C363 C115 1.246 . S
C377 C29 1.245 . S
C381 C139 1.260 . S
C395 C163 1.263 . S
C399 C53 1.249 . S
C413 C94 1.257 . S
C417 C72 1.246 . S
C431 C291 1.250 . S
C435 C181 1.252 . S
C449 C205 1.256 . S
C453 C315 1.259 . S
C467 C339 1.245 . S
C471 C229 1.258 . S
C485 C270 1.259 . S
C489 C248 1.245 . S
C503 C8 1.345 . S
C507 C27 1.268 . S
C521 C50 1.274 . S
C525 C26 1.346 . S
C539 C75 1.264 . S
C543 C48 1.344 . S
C557 C74 1.337 . S
C561 C7 1.255 . S
C575 C96 1.341 . S
C579 C160 1.265 . S
C593 C97 1.268 . S
C597 C118 1.345 . S
C611 C117 1.255 . S
C615 C136 1.340 . S
C629 C137 1.254 . S
C633 C158 1.340 . S
C647 C184 1.346 . S
C651 C203 1.272 . S
C665 C226 1.252 . S
C669 C202 1.337 . S
C683 C224 1.338 . S
C687 C251 1.252 . S
C701 C250 1.344 . S
C705 C183 1.265 . S
C719 C336 1.252 . S
C723 C272 1.337 . S
C737 C273 1.251 . S
C741 C294 1.337 . S
C755 C293 1.273 . S
C759 C312 1.345 . S
C773 C334 1.346 . S
C777 C313 1.271 . S
C791 C140 1.423 . S
C795 C9 1.480 . S
C809 C162 1.424 . S
C813 C28 1.477 . S
C827 C49 1.478 . S
C831 C92 1.419 . S
C845 C73 1.476 . S
C849 C114 1.415 . S
C863 C52 1.419 . S
C867 C95 1.474 . S
C881 C119 1.479 . S
C885 C70 1.421 . S
C899 C138 1.472 . S
C903 C4 1.414 . S
C917 C30 1.417 . S
C921 C159 1.477 . S
C935 C185 1.481 . S
C939 C316 1.427 . S
C953 C204 1.478 . S
C957 C338 1.418 . S
C971 C268 1.411 . S
C975 C225 1.474 . S
C989 C249 1.473 . S
C993 C290 1.410 . S
C1007 C271 1.472 . S
C1011 C228 1.414 . S
C1025 C295 1.472 . S
C1029 C246 1.411 . S
C1043 C314 1.481 . S
C1047 C180 1.425 . S
C1061 C206 1.422 . S
C1065 C335 1.480 . S
C1079 C337 1.551 . S
C1083 C6 1.545 . S
C1097 C269 1.531 . S
C1101 C31 1.535 . S
C1115 C51 1.533 . S
C1119 C292 1.531 . S
C1133 C317 1.544 . S
C1137 C71 1.537 . S
C1151 C93 1.545 . S
C1155 C207 1.538 . S
C1169 C116 1.547 . S
C1173 C227 1.552 . S
C1187 C247 1.547 . S
C1191 C141 1.539 . S
C1205 C161 1.551 . S
C1209 C182 1.545 . S
