# Generated by pormake.
# Topology gis, (4)-cn, num edge types: 1
# Building blocks:
#     Node 0, Type 0, BuildingBlock: GALJAG_clean_sbu_0, # of connection points: 4
#     Node 1, Type 0, BuildingBlock: GALJAG_clean_sbu_0, # of connection points: 4
#     Node 2, Type 0, BuildingBlock: GALJAG_clean_sbu_0, # of connection points: 4
#     Node 3, Type 0, BuildingBlock: GALJAG_clean_sbu_0, # of connection points: 4
#     Node 4, Type 0, BuildingBlock: GALJAG_clean_sbu_0, # of connection points: 4
#     Node 5, Type 0, BuildingBlock: GALJAG_clean_sbu_0, # of connection points: 4
#     Node 6, Type 0, BuildingBlock: GALJAG_clean_sbu_0, # of connection points: 4
#     Node 7, Type 0, BuildingBlock: GALJAG_clean_sbu_0, # of connection points: 4
#     Node 8, Type 0, BuildingBlock: GALJAG_clean_sbu_0, # of connection points: 4
#     Node 9, Type 0, BuildingBlock: GALJAG_clean_sbu_0, # of connection points: 4
#     Node 10, Type 0, BuildingBlock: GALJAG_clean_sbu_0, # of connection points: 4
#     Node 11, Type 0, BuildingBlock: GALJAG_clean_sbu_0, # of connection points: 4
#     Node 12, Type 0, BuildingBlock: GALJAG_clean_sbu_0, # of connection points: 4
#     Node 13, Type 0, BuildingBlock: GALJAG_clean_sbu_0, # of connection points: 4
#     Node 14, Type 0, BuildingBlock: GALJAG_clean_sbu_0, # of connection points: 4
#     Node 15, Type 0, BuildingBlock: GALJAG_clean_sbu_0, # of connection points: 4
#     Edge 16, Type (0, 0), BuildingBlock: TEMPAE_clean_linker_10, # of connection points: 2
#     Edge 17, Type (0, 0), BuildingBlock: TEMPAE_clean_linker_10, # of connection points: 2
#     Edge 18, Type (0, 0), BuildingBlock: TEMPAE_clean_linker_10, # of connection points: 2
#     Edge 19, Type (0, 0), BuildingBlock: TEMPAE_clean_linker_10, # of connection points: 2
#     Edge 20, Type (0, 0), BuildingBlock: TEMPAE_clean_linker_10, # of connection points: 2
#     Edge 21, Type (0, 0), BuildingBlock: TEMPAE_clean_linker_10, # of connection points: 2
#     Edge 22, Type (0, 0), BuildingBlock: TEMPAE_clean_linker_10, # of connection points: 2
#     Edge 23, Type (0, 0), BuildingBlock: TEMPAE_clean_linker_10, # of connection points: 2
#     Edge 24, Type (0, 0), BuildingBlock: TEMPAE_clean_linker_10, # of connection points: 2
#     Edge 25, Type (0, 0), BuildingBlock: TEMPAE_clean_linker_10, # of connection points: 2
#     Edge 26, Type (0, 0), BuildingBlock: TEMPAE_clean_linker_10, # of connection points: 2
#     Edge 27, Type (0, 0), BuildingBlock: TEMPAE_clean_linker_10, # of connection points: 2
#     Edge 28, Type (0, 0), BuildingBlock: TEMPAE_clean_linker_10, # of connection points: 2
#     Edge 29, Type (0, 0), BuildingBlock: TEMPAE_clean_linker_10, # of connection points: 2
#     Edge 30, Type (0, 0), BuildingBlock: TEMPAE_clean_linker_10, # of connection points: 2
#     Edge 31, Type (0, 0), BuildingBlock: TEMPAE_clean_linker_10, # of connection points: 2
#     Edge 32, Type (0, 0), BuildingBlock: TEMPAE_clean_linker_10, # of connection points: 2
#     Edge 33, Type (0, 0), BuildingBlock: TEMPAE_clean_linker_10, # of connection points: 2
#     Edge 34, Type (0, 0), BuildingBlock: TEMPAE_clean_linker_10, # of connection points: 2
#     Edge 35, Type (0, 0), BuildingBlock: TEMPAE_clean_linker_10, # of connection points: 2
#     Edge 36, Type (0, 0), BuildingBlock: TEMPAE_clean_linker_10, # of connection points: 2
#     Edge 37, Type (0, 0), BuildingBlock: TEMPAE_clean_linker_10, # of connection points: 2
#     Edge 38, Type (0, 0), BuildingBlock: TEMPAE_clean_linker_10, # of connection points: 2
#     Edge 39, Type (0, 0), BuildingBlock: TEMPAE_clean_linker_10, # of connection points: 2
#     Edge 40, Type (0, 0), BuildingBlock: TEMPAE_clean_linker_10, # of connection points: 2
#     Edge 41, Type (0, 0), BuildingBlock: TEMPAE_clean_linker_10, # of connection points: 2
#     Edge 42, Type (0, 0), BuildingBlock: TEMPAE_clean_linker_10, # of connection points: 2
#     Edge 43, Type (0, 0), BuildingBlock: TEMPAE_clean_linker_10, # of connection points: 2
#     Edge 44, Type (0, 0), BuildingBlock: TEMPAE_clean_linker_10, # of connection points: 2
#     Edge 45, Type (0, 0), BuildingBlock: TEMPAE_clean_linker_10, # of connection points: 2
#     Edge 46, Type (0, 0), BuildingBlock: TEMPAE_clean_linker_10, # of connection points: 2
#     Edge 47, Type (0, 0), BuildingBlock: TEMPAE_clean_linker_10, # of connection points: 2
# Relax obj value: 0.052
# Max RMSD: 0.088
# Mean RMSD: 0.088
data_MOF--net-gis--node1-GALJAG_clean_sbu_0--edge1-TEMPAE_clean_linker_10
_symmetry_space_group_name_H-M    P1
_symmetry_Int_Tables_number       1
_symmetry_cell_setting            triclinic
loop_
_symmetry_equiv_pos_as_xyz
'x, y, z'
_cell_length_a     54.357316
_cell_length_b     54.348537
_cell_length_c     37.716307
_cell_angle_alpha  90.176225
_cell_angle_beta   90.159688
_cell_angle_gamma 89.879734
loop_
_atom_site_label
_atom_site_type_symbol
_atom_site_fract_x
_atom_site_fract_y
_atom_site_fract_z
_atom_type_partial_charge
In0 In 0.13183 0.61261 0.11871 0.0
O1 O 0.1489 0.60313 0.17237 0.0
O2 O 0.17158 0.61996 0.13336 0.0
C3 C 0.08407 0.60734 0.13592 0.0
C4 C 0.13328 0.66099 0.10474 0.0
C5 C 0.13891 0.57534 0.07227 0.0
O6 O 0.10102 0.5998 0.1562 0.0
O7 O 0.09133 0.61674 0.10733 0.0
O8 O 0.13028 0.59586 0.06289 0.0
O9 O 0.14421 0.57378 0.10466 0.0
C10 C 0.16996 0.61116 0.16419 0.0
O11 O 0.14344 0.64536 0.08458 0.0
O12 O 0.12297 0.65216 0.13178 0.0
In13 In 0.63991 0.88271 0.37532 0.0
O14 O 0.63514 0.85243 0.41753 0.0
O15 O 0.64934 0.84263 0.36703 0.0
C16 C 0.64154 0.91643 0.42831 0.0
C17 C 0.67867 0.89031 0.33248 0.0
C18 C 0.59674 0.88681 0.33989 0.0
O19 O 0.6225 0.90414 0.42123 0.0
O20 O 0.65999 0.91094 0.40977 0.0
O21 O 0.60958 0.90527 0.34821 0.0
O22 O 0.60617 0.86644 0.34818 0.0
C23 C 0.64303 0.83554 0.39741 0.0
O24 O 0.65727 0.89755 0.32441 0.0
O25 O 0.68037 0.87979 0.36213 0.0
In26 In 0.358 0.385 0.62267 0.0
O27 O 0.35579 0.40188 0.56724 0.0
O28 O 0.34524 0.42404 0.61111 0.0
C29 C 0.35866 0.3367 0.60769 0.0
C30 C 0.40608 0.39132 0.63719 0.0
C31 C 0.32026 0.3853 0.6685 0.0
O32 O 0.34701 0.35187 0.58854 0.0
O33 O 0.36944 0.34592 0.63423 0.0
O34 O 0.34056 0.39555 0.67567 0.0
O35 O 0.31925 0.37487 0.63861 0.0
C36 C 0.34812 0.42247 0.57809 0.0
O37 O 0.38982 0.39452 0.6607 0.0
O38 O 0.39789 0.38592 0.60688 0.0
In39 In 0.86351 0.11132 0.86703 0.0
O40 O 0.89566 0.08954 0.84363 0.0
O41 O 0.89699 0.12845 0.84065 0.0
C42 C 0.83237 0.10668 0.81153 0.0
C43 C 0.85795 0.07729 0.91844 0.0
C44 C 0.85704 0.15407 0.90276 0.0
O45 O 0.84197 0.12688 0.82034 0.0
O46 O 0.83906 0.0886 0.83007 0.0
O47 O 0.83957 0.14273 0.88799 0.0
O48 O 0.87752 0.14323 0.90096 0.0
C49 C 0.90769 0.10829 0.83454 0.0
O50 O 0.83996 0.08626 0.90169 0.0
O51 O 0.87855 0.08609 0.91008 0.0
In52 In 0.13313 0.38696 0.87174 0.0
O53 O 0.14475 0.35442 0.90633 0.0
O54 O 0.12544 0.34736 0.85797 0.0
C55 C 0.13948 0.42508 0.91676 0.0
C56 C 0.1719 0.3879 0.82773 0.0
C57 C 0.08497 0.39091 0.85602 0.0
O58 O 0.13315 0.40402 0.92733 0.0
O59 O 0.14277 0.42675 0.88385 0.0
O60 O 0.10123 0.3995 0.8356 0.0
O61 O 0.09307 0.38113 0.88394 0.0
C62 C 0.13545 0.33866 0.88547 0.0
O63 O 0.15065 0.39455 0.81777 0.0
O64 O 0.17336 0.38097 0.85955 0.0
In65 In 0.85967 0.88915 0.11838 0.0
O66 O 0.84799 0.85655 0.08348 0.0
O67 O 0.86999 0.84958 0.12924 0.0
C68 C 0.85263 0.92817 0.07529 0.0
C69 C 0.82182 0.8913 0.16422 0.0
C70 C 0.9078 0.89336 0.13385 0.0
O71 O 0.8548 0.90653 0.06341 0.0
O72 O 0.85377 0.9299 0.10854 0.0
O73 O 0.89135 0.89689 0.15695 0.0
O74 O 0.89988 0.88827 0.10322 0.0
C75 C 0.85909 0.84087 0.10244 0.0
O76 O 0.84295 0.89933 0.17196 0.0
O77 O 0.81992 0.88208 0.13363 0.0
In78 In 0.35269 0.60797 0.37698 0.0
O79 O 0.34963 0.59307 0.43342 0.0
O80 O 0.34028 0.56926 0.39071 0.0
C81 C 0.35412 0.65679 0.38742 0.0
C82 C 0.40084 0.59986 0.36552 0.0
C83 C 0.31523 0.60746 0.33038 0.0
O84 O 0.34228 0.64275 0.4079 0.0
O85 O 0.36474 0.64619 0.36188 0.0
O86 O 0.33597 0.59813 0.32307 0.0
O87 O 0.31359 0.61683 0.36093 0.0
C88 C 0.34266 0.57198 0.4237 0.0
O89 O 0.38485 0.59468 0.34222 0.0
O90 O 0.39235 0.60834 0.39412 0.0
In91 In 0.64034 0.1111 0.61902 0.0
O92 O 0.61024 0.10167 0.65935 0.0
O93 O 0.60019 0.12151 0.61303 0.0
C94 C 0.6818 0.10582 0.65727 0.0
C95 C 0.64004 0.07007 0.57853 0.0
C96 C 0.64642 0.15856 0.60075 0.0
O97 O 0.66089 0.10812 0.67147 0.0
O98 O 0.68171 0.10609 0.6238 0.0
O99 O 0.64555 0.14159 0.57771 0.0
O100 O 0.64456 0.15137 0.63241 0.0
C101 C 0.59336 0.11198 0.64175 0.0
O102 O 0.64137 0.09134 0.56518 0.0
O103 O 0.63879 0.06972 0.61187 0.0
In104 In 0.85413 0.38409 0.87531 0.0
O105 O 0.84147 0.4025 0.9265 0.0
O106 O 0.85585 0.4251 0.88532 0.0
C107 C 0.85399 0.3359 0.89274 0.0
C108 C 0.90204 0.39057 0.86028 0.0
C109 C 0.81455 0.38903 0.83284 0.0
O110 O 0.85148 0.35261 0.91579 0.0
O111 O 0.85656 0.3436 0.86151 0.0
O112 O 0.83625 0.39004 0.82104 0.0
O113 O 0.81298 0.38556 0.86576 0.0
C114 C 0.84693 0.42391 0.91613 0.0
O115 O 0.886 0.38819 0.83618 0.0
O116 O 0.89389 0.38938 0.89153 0.0
In117 In 0.36354 0.10525 0.62825 0.0
O118 O 0.36364 0.13755 0.58933 0.0
O119 O 0.35821 0.14499 0.6442 0.0
C120 C 0.35787 0.06729 0.58362 0.0
C121 C 0.32397 0.09629 0.66841 0.0
C122 C 0.41152 0.10298 0.64575 0.0
O123 O 0.35174 0.08895 0.57513 0.0
O124 O 0.36655 0.06496 0.61448 0.0
O125 O 0.3951 0.10624 0.66899 0.0
O126 O 0.40364 0.10116 0.61442 0.0
C127 C 0.3598 0.15344 0.61321 0.0
O128 O 0.34542 0.09051 0.67852 0.0
O129 O 0.32274 0.10632 0.63837 0.0
In130 In 0.63192 0.60748 0.37354 0.0
O131 O 0.59827 0.60783 0.33714 0.0
O132 O 0.59417 0.59346 0.38925 0.0
C133 C 0.66756 0.60863 0.32395 0.0
C134 C 0.64553 0.5683 0.41239 0.0
C135 C 0.6289 0.65395 0.3987 0.0
O136 O 0.64785 0.59682 0.31957 0.0
O137 O 0.66902 0.62017 0.35285 0.0
O138 O 0.64192 0.63771 0.41368 0.0
O139 O 0.61733 0.64657 0.37168 0.0
C140 C 0.58419 0.59825 0.35982 0.0
O141 O 0.64359 0.58957 0.42576 0.0
O142 O 0.64078 0.56702 0.37972 0.0
In143 In 0.13814 0.89212 0.12922 0.0
O144 O 0.10613 0.88931 0.16889 0.0
O145 O 0.09876 0.90221 0.11676 0.0
C146 C 0.17754 0.89946 0.17083 0.0
C147 C 0.14667 0.92944 0.08485 0.0
C148 C 0.13964 0.84405 0.11203 0.0
O149 O 0.1563 0.90652 0.18 0.0
O150 O 0.17865 0.88896 0.14104 0.0
O151 O 0.13519 0.86038 0.08909 0.0
O152 O 0.14288 0.85203 0.14308 0.0
C153 C 0.09041 0.89721 0.14697 0.0
O154 O 0.15069 0.90733 0.07595 0.0
O155 O 0.13875 0.93247 0.11597 0.0
In156 In 0.85411 0.60904 0.12136 0.0
O157 O 0.83513 0.59808 0.17288 0.0
O158 O 0.81322 0.61224 0.13065 0.0
C159 C 0.90178 0.60288 0.13874 0.0
C160 C 0.8537 0.65746 0.10626 0.0
C161 C 0.84606 0.57036 0.07857 0.0
O162 O 0.88562 0.6071 0.16202 0.0
O163 O 0.89389 0.6022 0.10731 0.0
O164 O 0.84158 0.59216 0.06876 0.0
O165 O 0.85416 0.56828 0.1098 0.0
C166 C 0.81396 0.60416 0.16194 0.0
O167 O 0.85602 0.64136 0.08223 0.0
O168 O 0.85205 0.64906 0.13725 0.0
In169 In 0.1374 0.10708 0.86762 0.0
O170 O 0.10637 0.10443 0.82639 0.0
O171 O 0.09698 0.10904 0.88074 0.0
C172 C 0.17648 0.09793 0.82638 0.0
C173 C 0.14326 0.0695 0.91294 0.0
C174 C 0.14145 0.15535 0.88204 0.0
O175 O 0.15495 0.09194 0.81698 0.0
O176 O 0.17803 0.10831 0.85622 0.0
O177 O 0.13691 0.13978 0.90593 0.0
O178 O 0.14373 0.14655 0.85124 0.0
C179 C 0.08952 0.1066 0.84924 0.0
O180 O 0.15146 0.09074 0.91954 0.0
O181 O 0.13204 0.06739 0.88382 0.0
In182 In 0.63525 0.38488 0.6169 0.0
O183 O 0.60456 0.38147 0.65852 0.0
O184 O 0.59587 0.39661 0.60801 0.0
C185 C 0.66713 0.38903 0.67179 0.0
C186 C 0.64398 0.42192 0.57148 0.0
C187 C 0.63866 0.34042 0.58452 0.0
O188 O 0.65565 0.36948 0.665 0.0
O189 O 0.6619 0.40674 0.6517 0.0
O190 O 0.65713 0.35385 0.59031 0.0
O191 O 0.61846 0.34993 0.59352 0.0
C192 C 0.58842 0.39085 0.63847 0.0
O193 O 0.6544 0.40124 0.56804 0.0
O194 O 0.62969 0.42368 0.59757 0.0
In195 In 0.36711 0.88884 0.36565 0.0
O196 O 0.35499 0.90486 0.41872 0.0
O197 O 0.3722 0.92869 0.38164 0.0
C198 C 0.36216 0.84047 0.37817 0.0
C199 C 0.41509 0.88953 0.34817 0.0
C200 C 0.3272 0.89843 0.32604 0.0
O201 O 0.36637 0.85572 0.40278 0.0
O202 O 0.36082 0.84961 0.34752 0.0
O203 O 0.34867 0.9031 0.31508 0.0
O204 O 0.32616 0.88917 0.35659 0.0
C205 C 0.36235 0.9263 0.41165 0.0
O206 O 0.39838 0.89254 0.32517 0.0
O207 O 0.40743 0.88607 0.37928 0.0
C208 C 0.1533 0.80183 0.12722 0.0
C209 C 0.14084 0.81754 0.1039 0.0
C210 C 0.15316 0.77633 0.12207 0.0
C211 C 0.13979 0.76626 0.09325 0.0
C212 C 0.12794 0.78209 0.06876 0.0
C213 C 0.12879 0.80768 0.07423 0.0
C214 C 0.16639 0.76012 0.14846 0.0
C215 C 0.1133 0.77198 0.03796 0.0
C216 C 0.15156 0.69831 0.07646 0.0
C217 C 0.13355 0.68769 0.09802 0.0
C218 C 0.15321 0.72401 0.07316 0.0
C219 C 0.1362 0.7392 0.0914 0.0
C220 C 0.11711 0.72839 0.11145 0.0
C221 C 0.11617 0.70277 0.11478 0.0
C222 C 0.17395 0.7349 0.05184 0.0
C223 C 0.09835 0.74391 0.13084 0.0
H224 H 0.16292 0.80947 0.14993 0.0
H225 H 0.11916 0.81986 0.05618 0.0
H226 H 0.15275 0.74957 0.16408 0.0
H227 H 0.17826 0.74661 0.13448 0.0
H228 H 0.17798 0.77091 0.16716 0.0
H229 H 0.10772 0.78662 0.01906 0.0
H230 H 0.12408 0.75784 0.02347 0.0
H231 H 0.09646 0.76291 0.04806 0.0
H232 H 0.16498 0.68662 0.06345 0.0
H233 H 0.102 0.69455 0.13106 0.0
H234 H 0.18744 0.74361 0.07007 0.0
H235 H 0.16695 0.74948 0.03392 0.0
H236 H 0.18367 0.72077 0.03576 0.0
H237 H 0.10745 0.75391 0.15295 0.0
H238 H 0.08319 0.73266 0.14198 0.0
H239 H 0.09031 0.75788 0.11279 0.0
C240 C 0.45873 0.88772 0.3677 0.0
C241 C 0.44166 0.89022 0.34003 0.0
C242 C 0.48404 0.88823 0.36121 0.0
C243 C 0.49262 0.89127 0.32609 0.0
C244 C 0.47553 0.89394 0.29794 0.0
C245 C 0.45016 0.8934 0.30526 0.0
C246 C 0.50162 0.88535 0.39207 0.0
C247 C 0.48405 0.89718 0.26021 0.0
C248 C 0.55899 0.91163 0.32742 0.0
C249 C 0.57109 0.88882 0.32714 0.0
C250 C 0.53332 0.91301 0.3237 0.0
C251 C 0.51957 0.89108 0.31954 0.0
C252 C 0.53199 0.86831 0.31564 0.0
C253 C 0.55764 0.86746 0.31958 0.0
C254 C 0.5208 0.93768 0.32771 0.0
C255 C 0.51807 0.84453 0.31077 0.0
H256 H 0.4523 0.88532 0.39465 0.0
H257 H 0.437 0.89538 0.2838 0.0
H258 H 0.51327 0.8688 0.3881 0.0
H259 H 0.51405 0.90148 0.39366 0.0
H260 H 0.49191 0.88354 0.41781 0.0
H261 H 0.46845 0.8997 0.24147 0.0
H262 H 0.49638 0.91336 0.25832 0.0
H263 H 0.49486 0.88086 0.25177 0.0
H264 H 0.56933 0.92824 0.33299 0.0
H265 H 0.56695 0.8498 0.31891 0.0
H266 H 0.51272 0.9391 0.35463 0.0
H267 H 0.50558 0.93967 0.30828 0.0
H268 H 0.53388 0.95315 0.32419 0.0
H269 H 0.50953 0.83924 0.33632 0.0
H270 H 0.53031 0.82928 0.30205 0.0
H271 H 0.50306 0.84673 0.29106 0.0
C272 C 0.37828 0.29582 0.6153 0.0
C273 C 0.35934 0.31005 0.60062 0.0
C274 C 0.37828 0.27018 0.61198 0.0
C275 C 0.35856 0.25846 0.59416 0.0
C276 C 0.33989 0.2728 0.57795 0.0
C277 C 0.34063 0.29856 0.58112 0.0
C278 C 0.39878 0.25558 0.62908 0.0
C279 C 0.31844 0.26092 0.55911 0.0
C280 C 0.36746 0.19033 0.5753 0.0
C281 C 0.3575 0.17998 0.60605 0.0
C282 C 0.36716 0.21593 0.57021 0.0
C283 C 0.35627 0.23129 0.59623 0.0
C284 C 0.34506 0.22072 0.62638 0.0
C285 C 0.34604 0.19521 0.63108 0.0
C286 C 0.37955 0.2266 0.53799 0.0
C287 C 0.33289 0.23642 0.65446 0.0
H288 H 0.39295 0.30475 0.63 0.0
H289 H 0.32597 0.3096 0.56976 0.0
H290 H 0.39149 0.24535 0.65217 0.0
H291 H 0.40627 0.24184 0.61014 0.0
H292 H 0.41407 0.26753 0.63839 0.0
H293 H 0.30714 0.27454 0.54433 0.0
H294 H 0.32496 0.2466 0.54032 0.0
H295 H 0.30651 0.25168 0.57882 0.0
H296 H 0.37632 0.17852 0.55593 0.0
H297 H 0.33806 0.18718 0.65467 0.0
H298 H 0.39642 0.23655 0.54629 0.0
H299 H 0.36732 0.24014 0.52477 0.0
H300 H 0.38477 0.21217 0.51846 0.0
H301 H 0.34701 0.24755 0.66844 0.0
H302 H 0.32297 0.2252 0.67439 0.0
H303 H 0.31965 0.2494 0.6421 0.0
C304 C 0.04573 0.10803 0.86781 0.0
C305 C 0.06302 0.10621 0.84044 0.0
C306 C 0.02048 0.10774 0.86064 0.0
C307 C 0.01221 0.10562 0.82514 0.0
C308 C 0.02952 0.10373 0.79728 0.0
C309 C 0.05482 0.10403 0.80528 0.0
C310 C 0.00263 0.10978 0.89119 0.0
C311 C 0.02132 0.10148 0.75915 0.0
C312 C 0.94612 0.08441 0.82295 0.0
C313 C 0.93367 0.10702 0.82329 0.0
C314 C 0.97185 0.08347 0.82027 0.0
C315 C 0.98532 0.10568 0.8179 0.0
C316 C 0.97264 0.12835 0.81483 0.0
C317 C 0.94692 0.12875 0.81758 0.0
C318 C 0.98466 0.0589 0.82328 0.0
C319 C 0.98629 0.15243 0.81199 0.0
H320 H 0.05194 0.10968 0.89505 0.0
H321 H 0.06815 0.10262 0.78404 0.0
H322 H 0.99082 0.12629 0.88781 0.0
H323 H 0.99036 0.0935 0.8916 0.0
H324 H 0.01211 0.11113 0.91725 0.0
H325 H 0.03709 0.09982 0.74062 0.0
H326 H 0.00934 0.08513 0.75585 0.0
H327 H 0.01024 0.11782 0.75162 0.0
H328 H 0.93594 0.06753 0.82704 0.0
H329 H 0.93735 0.14628 0.81746 0.0
H330 H 0.9926 0.05702 0.85028 0.0
H331 H 2e-05 0.05751 0.80409 0.0
H332 H 0.97182 0.04333 0.81868 0.0
H333 H 0.99447 0.15712 0.83814 0.0
H334 H 0.97396 0.16775 0.80386 0.0
H335 H 0.00156 0.15094 0.79266 0.0
C336 C 0.11889 0.29675 0.87545 0.0
C337 C 0.13623 0.31198 0.892 0.0
C338 C 0.12017 0.27116 0.87881 0.0
C339 C 0.13962 0.26052 0.89857 0.0
C340 C 0.15676 0.27584 0.91633 0.0
C341 C 0.15471 0.30152 0.91311 0.0
C342 C 0.10124 0.25548 0.86002 0.0
C343 C 0.17793 0.26511 0.9372 0.0
C344 C 0.13195 0.19258 0.9186 0.0
C345 C 0.14332 0.18197 0.88896 0.0
C346 C 0.13146 0.21825 0.92308 0.0
C347 C 0.14304 0.23342 0.89764 0.0
C348 C 0.15579 0.22261 0.86886 0.0
C349 C 0.15554 0.19701 0.86466 0.0
C350 C 0.1174 0.22914 0.95382 0.0
C351 C 0.16876 0.23812 0.84153 0.0
H352 H 0.1044 0.30488 0.85947 0.0
H353 H 0.16814 0.31334 0.92586 0.0
H354 H 0.11012 0.24511 0.83813 0.0
H355 H 0.09334 0.24182 0.87856 0.0
H356 H 0.08599 0.26665 0.84871 0.0
H357 H 0.18813 0.27941 0.95234 0.0
H358 H 0.17124 0.25096 0.95595 0.0
H359 H 0.19091 0.25588 0.91879 0.0
H360 H 0.12248 0.18092 0.93739 0.0
H361 H 0.16462 0.18877 0.84196 0.0
H362 H 0.10055 0.23836 0.94375 0.0
H363 H 0.12857 0.24332 0.96758 0.0
H364 H 0.11188 0.21494 0.97335 0.0
H365 H 0.15497 0.24842 0.82566 0.0
H366 H 0.18009 0.22683 0.82315 0.0
H367 H 0.18083 0.25185 0.85468 0.0
C368 C 0.95084 0.88196 0.11939 0.0
C369 C 0.93433 0.8941 0.14191 0.0
C370 C 0.9762 0.88265 0.12579 0.0
C371 C 0.98533 0.8963 0.155 0.0
C372 C 0.96873 0.9083 0.17824 0.0
C373 C 0.9433 0.90682 0.17161 0.0
C374 C 0.99325 0.86922 0.10071 0.0
C375 C 0.97784 0.92338 0.20924 0.0
C376 C 0.05216 0.88259 0.17669 0.0
C377 C 0.06399 0.89951 0.15469 0.0
C378 C 0.02635 0.88213 0.17882 0.0
C379 C 0.01234 0.89938 0.15911 0.0
C380 C 0.02444 0.91774 0.13922 0.0
C381 C 0.05013 0.91736 0.13684 0.0
C382 C 0.0141 0.86205 0.1999 0.0
C383 C 0.01024 0.93683 0.11849 0.0
H384 H 0.9439 0.87182 0.09667 0.0
H385 H 0.9305 0.9162 0.18904 0.0
H386 H 0.00461 0.88271 0.08604 0.0
H387 H 0.006 0.85717 0.11578 0.0
H388 H 0.98309 0.85777 0.08112 0.0
H389 H 0.96256 0.92992 0.22637 0.0
H390 H 0.99085 0.91247 0.2256 0.0
H391 H 0.98803 0.93962 0.19931 0.0
H392 H 0.06295 0.86873 0.19036 0.0
H393 H 0.05938 0.93062 0.12012 0.0
H394 H 0.00601 0.84834 0.1814 0.0
H395 H -0.00113 0.86963 0.21614 0.0
H396 H 0.0273 0.85241 0.21763 0.0
H397 H 0.00124 0.92797 0.09532 0.0
H398 H 0.02231 0.9518 0.10867 0.0
H399 H 0.99554 0.94508 0.13509 0.0
C400 C 0.37476 0.69673 0.37674 0.0
C401 C 0.3554 0.68366 0.39219 0.0
C402 C 0.37565 0.72243 0.37861 0.0
C403 C 0.35641 0.73538 0.39568 0.0
C404 C 0.33713 0.72225 0.41222 0.0
C405 C 0.33699 0.69641 0.4106 0.0
C406 C 0.39679 0.73574 0.36123 0.0
C407 C 0.31611 0.73548 0.43016 0.0
C408 C 0.36849 0.80288 0.41511 0.0
C409 C 0.35911 0.81391 0.38437 0.0
C410 C 0.36711 0.7773 0.41981 0.0
C411 C 0.35564 0.76264 0.39345 0.0
C412 C 0.34515 0.7739 0.36317 0.0
C413 C 0.34726 0.79938 0.35881 0.0
C414 C 0.37885 0.76587 0.45214 0.0
C415 C 0.33238 0.75895 0.33477 0.0
H416 H 0.38916 0.68683 0.36285 0.0
H417 H 0.32199 0.68627 0.42248 0.0
H418 H 0.38993 0.74626 0.33805 0.0
H419 H 0.40508 0.74913 0.38 0.0
H420 H 0.41139 0.7229 0.35203 0.0
H421 H 0.30369 0.72263 0.44429 0.0
H422 H 0.32321 0.74924 0.44938 0.0
H423 H 0.3052 0.74563 0.41002 0.0
H424 H 0.37767 0.81414 0.43487 0.0
H425 H 0.33973 0.80794 0.33522 0.0
H426 H 0.39489 0.75455 0.44393 0.0
H427 H 0.36571 0.75341 0.46552 0.0
H428 H 0.38523 0.77993 0.4715 0.0
H429 H 0.34597 0.74704 0.32106 0.0
H430 H 0.32319 0.77073 0.31466 0.0
H431 H 0.3184 0.74672 0.34681 0.0
C432 C 0.55139 0.12985 0.63864 0.0
C433 C 0.56733 0.11204 0.65255 0.0
C434 C 0.52601 0.12857 0.64454 0.0
C435 C 0.51632 0.10868 0.66417 0.0
C436 C 0.53249 0.09145 0.68008 0.0
C437 C 0.55795 0.09347 0.6743 0.0
C438 C 0.50946 0.14763 0.62771 0.0
C439 C 0.52285 0.06991 0.70098 0.0
C440 C 0.44791 0.11318 0.68395 0.0
C441 C 0.43805 0.10183 0.6537 0.0
C442 C 0.47354 0.11461 0.68885 0.0
C443 C 0.48939 0.10411 0.66314 0.0
C444 C 0.47934 0.09128 0.63379 0.0
C445 C 0.45382 0.0905 0.62929 0.0
C446 C 0.48359 0.12855 0.72035 0.0
C447 C 0.49556 0.07945 0.60605 0.0
H448 H 0.5587 0.14445 0.62223 0.0
H449 H 0.57032 0.07971 0.68512 0.0
H450 H 0.49923 0.13917 0.60529 0.0
H451 H 0.49571 0.15442 0.6471 0.0
H452 H 0.51998 0.16358 0.61744 0.0
H453 H 0.53765 0.06062 0.71631 0.0
H454 H 0.5082 0.07589 0.71953 0.0
H455 H 0.5146 0.0563 0.68249 0.0
H456 H 0.43569 0.12193 0.70284 0.0
H457 H 0.44618 0.08142 0.60612 0.0
H458 H 0.49123 0.14637 0.71129 0.0
H459 H 0.49881 0.11817 0.73307 0.0
H460 H 0.46917 0.13235 0.74046 0.0
H461 H 0.50537 0.09393 0.59102 0.0
H462 H 0.48489 0.06807 0.58695 0.0
H463 H 0.50969 0.06763 0.6188 0.0
C464 C 0.87566 0.19302 0.92536 0.0
C465 C 0.85467 0.17981 0.91512 0.0
C466 C 0.87494 0.21873 0.92878 0.0
C467 C 0.85268 0.23142 0.92184 0.0
C468 C 0.8309 0.21794 0.915 0.0
C469 C 0.83217 0.19224 0.91167 0.0
C470 C 0.89853 0.23237 0.93644 0.0
C471 C 0.80673 0.23074 0.90786 0.0
C472 C 0.84922 0.30087 0.93549 0.0
C473 C 0.85385 0.30933 0.90105 0.0
C474 C 0.84877 0.27552 0.94293 0.0
C475 C 0.85313 0.25839 0.91527 0.0
C476 C 0.85795 0.26692 0.88055 0.0
C477 C 0.8582 0.29224 0.87389 0.0
C478 C 0.8435 0.26704 0.9802 0.0
C479 C 0.8628 0.2493 0.85026 0.0
H480 H 0.89308 0.18348 0.92838 0.0
H481 H 0.81581 0.1821 0.90409 0.0
H482 H 0.90548 0.24063 0.91153 0.0
H483 H 0.89534 0.24759 0.95555 0.0
H484 H 0.913 0.22001 0.94725 0.0
H485 H 0.79094 0.21782 0.90921 0.0
H486 H 0.80368 0.24592 0.92708 0.0
H487 H 0.80711 0.23892 0.88095 0.0
H488 H 0.84581 0.31405 0.95656 0.0
H489 H 0.86184 0.29864 0.84723 0.0
H490 H 0.85885 0.25543 0.99005 0.0
H491 H 0.82668 0.25551 0.9804 0.0
H492 H 0.84085 0.2827 -0.00117 0.0
H493 H 0.87889 0.23749 0.85655 0.0
H494 H 0.86644 0.25898 0.82491 0.0
H495 H 0.84673 0.23702 0.84639 0.0
C496 C 0.64718 0.68947 0.43199 0.0
C497 C 0.62889 0.68012 0.40942 0.0
C498 C 0.64966 0.71496 0.43735 0.0
C499 C 0.63339 0.73132 0.41982 0.0
C500 C 0.61375 0.72179 0.39927 0.0
C501 C 0.6118 0.69632 0.39421 0.0
C502 C 0.67073 0.7244 0.45965 0.0
C503 C 0.59581 0.73854 0.38042 0.0
C504 C 0.63022 0.80037 0.43623 0.0
C505 C 0.64332 0.80918 0.40693 0.0
C506 C 0.62785 0.77492 0.44212 0.0
C507 C 0.63888 0.7581 0.41815 0.0
C508 C 0.65333 0.76703 0.38983 0.0
C509 C 0.65532 0.79242 0.38456 0.0
C510 C 0.61247 0.76609 0.47276 0.0
C511 C 0.6656 0.74977 0.36378 0.0
H512 H 0.66038 0.67699 0.44393 0.0
H513 H 0.59743 0.68914 0.37711 0.0
H514 H 0.68527 0.73176 0.44205 0.0
H515 H 0.66459 0.73966 0.47712 0.0
H516 H 0.67895 0.70966 0.47628 0.0
H517 H 0.57995 0.72829 0.3691 0.0
H518 H 0.58872 0.75283 0.39883 0.0
H519 H 0.60537 0.74814 0.3585 0.0
H520 H 0.62096 0.81329 0.45364 0.0
H521 H 0.66571 0.79914 0.36209 0.0
H522 H 0.62186 0.75084 0.48689 0.0
H523 H 0.59473 0.75885 0.46257 0.0
H524 H 0.60849 0.7811 0.49199 0.0
H525 H 0.67666 0.73576 0.37806 0.0
H526 H 0.6778 0.75962 0.34502 0.0
H527 H 0.65135 0.73986 0.34822 0.0
C528 C 0.84249 0.69983 0.12484 0.0
C529 C 0.8528 0.68415 0.09934 0.0
C530 C 0.8426 0.72537 0.12035 0.0
C531 C 0.85378 0.73556 0.08991 0.0
C532 C 0.86362 0.71979 0.0635 0.0
C533 C 0.86281 0.69415 0.06839 0.0
C534 C 0.83152 0.74149 0.14888 0.0
C535 C 0.87596 0.73001 0.03094 0.0
C536 C 0.83985 0.80334 0.07569 0.0
C537 C 0.85907 0.81425 0.09486 0.0
C538 C 0.83841 0.77762 0.07223 0.0
C539 C 0.85691 0.76268 0.08774 0.0
C540 C 0.87717 0.77381 0.10509 0.0
C541 C 0.87784 0.79944 0.1088 0.0
C542 C 0.81637 0.76641 0.05394 0.0
C543 C 0.89753 0.75859 0.12139 0.0
H544 H 0.83445 0.6921 0.14861 0.0
H545 H 0.8708 0.68201 0.04866 0.0
H546 H 0.84626 0.75215 0.16228 0.0
H547 H 0.8185 0.75491 0.13702 0.0
H548 H 0.8216 0.73064 0.16923 0.0
H549 H 0.8805 0.7154 0.01134 0.0
H550 H 0.864 0.74391 0.01798 0.0
H551 H 0.89324 0.73944 0.03879 0.0
H552 H 0.82532 0.81482 0.06491 0.0
H553 H 0.89291 0.8079 0.12323 0.0
H554 H 0.80445 0.75749 0.07396 0.0
H555 H 0.82221 0.75195 0.03492 0.0
H556 H 0.80528 0.7804 0.03955 0.0
H557 H 0.89036 0.74861 0.1448 0.0
H558 H 0.91334 0.77007 0.13007 0.0
H559 H 0.90423 0.74461 0.1022 0.0
C560 C 0.664 0.30326 0.57017 0.0
C561 C 0.64079 0.31428 0.57388 0.0
C562 C 0.66643 0.27757 0.56786 0.0
C563 C 0.64514 0.26264 0.56944 0.0
C564 C 0.62159 0.27382 0.57001 0.0
C565 C 0.6197 0.29952 0.57219 0.0
C566 C 0.69186 0.2664 0.56676 0.0
C567 C 0.5984 0.2586 0.57152 0.0
C568 C 0.64758 0.19309 0.5566 0.0
C569 C 0.64807 0.185 0.59188 0.0
C570 C 0.64733 0.21837 0.5486 0.0
C571 C 0.64748 0.23582 0.57658 0.0
C572 C 0.64867 0.22767 0.61216 0.0
C573 C 0.64898 0.20242 0.61933 0.0
C574 C 0.64626 0.22639 0.51036 0.0
C575 C 0.64891 0.24563 0.64284 0.0
H576 H 0.68039 0.31459 0.57119 0.0
H577 H 0.60169 0.30794 0.57473 0.0
H578 H 0.69662 0.25908 0.59335 0.0
H579 H 0.69255 0.25081 0.54775 0.0
H580 H 0.70602 0.28013 0.55923 0.0
H581 H 0.58165 0.26988 0.56675 0.0
H582 H 0.599 0.24352 0.55167 0.0
H583 H 0.59687 0.25003 0.5981 0.0
H584 H 0.6469 0.17968 0.53528 0.0
H585 H 0.64947 0.19631 0.64666 0.0
H586 H 0.6607 0.24028 0.505 0.0
H587 H 0.62823 0.23524 0.50491 0.0
H588 H 0.64864 0.21071 0.49172 0.0
H589 H 0.66442 0.2587 0.64001 0.0
H590 H 0.65066 0.23628 0.66888 0.0
H591 H 0.63165 0.25658 0.64283 0.0
C592 C 0.04756 0.411 0.82996 0.0
C593 C 0.05842 0.39139 0.84825 0.0
C594 C 0.0218 0.41261 0.82665 0.0
C595 C 0.00688 0.39386 0.84128 0.0
C596 C 0.01803 0.37328 0.85774 0.0
C597 C 0.04362 0.37248 0.86143 0.0
C598 C 0.01056 0.43499 0.80939 0.0
C599 C 0.00288 0.35259 0.87299 0.0
C600 C 0.94347 0.40488 0.87886 0.0
C601 C 0.92842 0.39409 0.85299 0.0
C602 C 0.96895 0.40655 0.87408 0.0
C603 C 0.9797 0.39661 0.84301 0.0
C604 C 0.96447 0.38662 0.81607 0.0
C605 C 0.93888 0.38571 0.82124 0.0
C606 C 0.98447 0.41781 0.90315 0.0
C607 C 0.97527 0.37551 0.78285 0.0
H608 H 0.05907 0.42564 0.81984 0.0
H609 H 0.0521 0.35713 0.87516 0.0
H610 H 0.99611 0.42952 0.79011 0.0
H611 H 0.00161 0.44656 0.82995 0.0
H612 H 0.02452 0.4463 0.79551 0.0
H613 H 0.01443 0.33674 0.88137 0.0
H614 H 0.99254 0.35936 0.8964 0.0
H615 H 0.98921 0.34602 0.85323 0.0
H616 H 0.93534 0.4117 0.90322 0.0
H617 H 0.92721 0.37737 0.8012 0.0
H618 H -0.00224 0.43112 0.89189 0.0
H619 H 0.99525 0.40317 0.91657 0.0
H620 H 0.97313 0.42742 0.92339 0.0
H621 H 0.98919 0.38797 0.77119 0.0
H622 H 0.96095 0.37153 0.76256 0.0
H623 H 0.98476 0.35804 0.7896 0.0
C624 C 0.54457 0.57794 0.37472 0.0
C625 C 0.55769 0.59443 0.35352 0.0
C626 C 0.51891 0.57615 0.37202 0.0
C627 C 0.50609 0.59169 0.34821 0.0
C628 C 0.5194 0.60746 0.32544 0.0
C629 C 0.54515 0.60845 0.32812 0.0
C630 C 0.50544 0.5587 0.39622 0.0
C631 C 0.5064 0.62462 0.30013 0.0
C632 C 0.43736 0.58195 0.33396 0.0
C633 C 0.42758 0.59775 0.35976 0.0
C634 C 0.46298 0.57972 0.32963 0.0
C635 C 0.47893 0.59408 0.35106 0.0
C636 C 0.46899 0.61051 0.37646 0.0
C637 C 0.44349 0.61192 0.38074 0.0
C638 C 0.47299 0.56169 0.30279 0.0
C639 C 0.48531 0.62651 0.39939 0.0
H640 H 0.55431 0.56685 0.39407 0.0
H641 H 0.55531 0.62121 0.31171 0.0
H642 H 0.4959 0.56935 0.41726 0.0
H643 H 0.49121 0.54834 0.38125 0.0
H644 H 0.5181 0.54537 0.40913 0.0
H645 H 0.51933 0.63329 0.28116 0.0
H646 H 0.492 0.61468 0.28494 0.0
H647 H 0.4971 0.6394 0.31545 0.0
H648 H 0.42503 0.57096 0.31778 0.0
H649 H 0.43596 0.62438 0.40044 0.0
H650 H 0.48405 0.54739 0.31651 0.0
H651 H 0.48544 0.5712 0.28406 0.0
H652 H 0.45815 0.55249 0.28741 0.0
H653 H 0.49695 0.61481 0.41671 0.0
H654 H 0.47457 0.63929 0.41646 0.0
H655 H 0.49782 0.63753 0.38255 0.0
C656 C 0.55103 0.37785 0.67195 0.0
C657 C 0.56249 0.39418 0.64862 0.0
C658 C 0.52538 0.37849 0.67661 0.0
C659 C 0.51118 0.39618 0.65801 0.0
C660 C 0.52309 0.41405 0.63696 0.0
C661 C 0.54857 0.41261 0.63215 0.0
C662 C 0.51336 0.35898 0.69901 0.0
C663 C 0.50874 0.43355 0.61727 0.0
C664 C 0.44866 0.37946 0.6214 0.0
C665 C 0.43275 0.39199 0.64438 0.0
C666 C 0.47412 0.37983 0.62668 0.0
C667 C 0.48404 0.39354 0.65528 0.0
C668 C 0.46807 0.40592 0.67906 0.0
C669 C 0.44247 0.40478 0.67352 0.0
C670 C 0.49043 0.366 0.60101 0.0
C671 C 0.47804 0.42101 0.70949 0.0
H672 H 0.56185 0.36361 0.68471 0.0
H673 H 0.55754 0.42549 0.6145 0.0
H674 H 0.49872 0.36706 0.71586 0.0
H675 H 0.50455 0.34514 0.6814 0.0
H676 H 0.52688 0.34936 0.71626 0.0
H677 H 0.52087 0.44825 0.60681 0.0
H678 H 0.49888 0.42497 0.5946 0.0
H679 H 0.49473 0.44208 0.63479 0.0
H680 H 0.44117 0.36923 0.59914 0.0
H681 H 0.43014 0.41443 0.69135 0.0
H682 H 0.50325 0.35377 0.61565 0.0
H683 H 0.50173 0.37922 0.58575 0.0
H684 H 0.4797 0.35466 0.58194 0.0
H685 H 0.49151 0.41014 0.72509 0.0
H686 H 0.46324 0.42756 0.72747 0.0
H687 H 0.48792 0.43726 0.69894 0.0
C688 C 0.04836 0.58803 0.16721 0.0
C689 C 0.0577 0.60614 0.14462 0.0
C690 C 0.02284 0.58574 0.17245 0.0
C691 C 0.00658 0.60228 0.1552 0.0
C692 C 0.01618 0.62145 0.13405 0.0
C693 C 0.04157 0.62295 0.12873 0.0
C694 C 0.01325 0.56492 0.19484 0.0
C695 C -0.00044 0.63978 0.11569 0.0
C696 C 0.94285 0.58621 0.1232 0.0
C697 C 0.9281 0.59954 0.14685 0.0
C698 C 0.96841 0.58521 0.12754 0.0
C699 C 0.97953 0.59838 0.15574 0.0
C700 C 0.9646 0.6107 0.18094 0.0
C701 C 0.93891 0.61094 0.17636 0.0
C702 C 0.98359 0.5714 0.10049 0.0
C703 C 0.97579 0.62513 0.21115 0.0
H704 H 0.06088 0.57504 0.17952 0.0
H705 H 0.04883 0.63722 0.11167 0.0
H706 H -0.00098 0.57165 0.21355 0.0
H707 H 0.00442 0.55099 0.17743 0.0
H708 H 0.02815 0.55579 0.21017 0.0
H709 H 0.01005 0.65497 0.1032 0.0
H710 H 0.98874 0.6303 0.09474 0.0
H711 H 0.98631 0.64783 0.13482 0.0
H712 H 0.93442 0.57705 0.10066 0.0
H713 H 0.92747 0.62121 0.19469 0.0
H714 H -0.00228 0.55991 0.1138 0.0
H715 H 0.99335 0.58473 0.08333 0.0
H716 H 0.97209 0.55937 0.08331 0.0
H717 H 0.99071 0.61447 0.22412 0.0
H718 H 0.96187 0.63024 0.23141 0.0
H719 H 0.98408 0.64226 0.20066 0.0
C720 C 0.12598 0.55222 0.01826 0.0
C721 C 0.14133 0.55423 0.04798 0.0
C722 C 0.1265 0.53107 0.99685 0.0
C723 C 0.1433 0.5119 0.00487 0.0
C724 C 0.15951 0.51431 0.03408 0.0
C725 C 0.15807 0.53533 0.05565 0.0
C726 C 0.10856 0.52891 0.96635 0.0
C727 C 0.17815 0.49459 0.04282 0.0
C728 C 0.12841 0.44751 0.97219 0.0
C729 C 0.14174 0.4465 0.94052 0.0
C730 C 0.12878 0.46872 0.99347 0.0
C731 C 0.14339 0.48903 0.98323 0.0
C732 C 0.1576 0.48771 0.9519 0.0
C733 C 0.15631 0.46655 0.93061 0.0
C734 C 0.11298 0.46967 0.02633 0.0
C735 C 0.17394 0.50871 0.94068 0.0
H736 H 0.1129 0.56677 0.01254 0.0
H737 H 0.17004 0.53698 0.07856 0.0
H738 H 0.11863 0.52602 0.94114 0.0
H739 H 0.09657 0.51265 0.97031 0.0
H740 H 0.09675 0.5455 0.96363 0.0
H741 H 0.19054 0.50008 0.06493 0.0
H742 H 0.16857 0.47739 0.05036 0.0
H743 H 0.18951 0.49035 0.01916 0.0
H744 H 0.11699 0.43204 0.97967 0.0
H745 H 0.16675 0.46568 0.90618 0.0
H746 H 0.09959 0.48504 0.02418 0.0
H747 H 0.12455 0.47329 0.05003 0.0
H748 H 0.10268 0.4523 0.03056 0.0
H749 H 0.16257 0.52515 0.93468 0.0
H750 H 0.18504 0.50409 0.91687 0.0
H751 H 0.18661 0.51379 0.96262 0.0
C752 C 0.72116 0.87858 0.3149 0.0
C753 C 0.69996 0.89263 0.30857 0.0
C754 C 0.74115 0.8793 0.29158 0.0
C755 C 0.74008 0.89482 0.26156 0.0
C756 C 0.71899 0.90959 0.25554 0.0
C757 C 0.69901 0.90813 0.27899 0.0
C758 C 0.76314 0.86295 0.29856 0.0
C759 C 0.71741 0.92669 0.22414 0.0
C760 C 0.80122 0.90888 0.21771 0.0
C761 C 0.80085 0.8926 0.18885 0.0
C762 C 0.78121 0.91035 0.24107 0.0
C763 C 0.76069 0.89475 0.23581 0.0
C764 C 0.76028 0.87825 0.20669 0.0
C765 C 0.78028 0.87757 0.18333 0.0
C766 C 0.78207 0.92848 0.27146 0.0
C767 C 0.73895 0.86095 0.20064 0.0
H768 H 0.72191 0.86647 0.33767 0.0
H769 H 0.68266 0.91909 0.27416 0.0
H770 H 0.76561 0.84991 0.27614 0.0
H771 H 0.78011 0.87417 0.30044 0.0
H772 H 0.7612 0.8522 0.3234 0.0
H773 H 0.70041 0.93806 0.22448 0.0
H774 H 0.7336 0.93909 0.22377 0.0
H775 H 0.71774 0.91585 0.19918 0.0
H776 H 0.81705 0.92067 0.22181 0.0
H777 H 0.78001 0.8649 0.16107 0.0
H778 H 0.78185 0.91848 0.29705 0.0
H779 H 0.76555 0.9405 0.27085 0.0
H780 H 0.79875 0.94024 0.2707 0.0
H781 H 0.73682 0.84868 0.22389 0.0
H782 H 0.74142 0.84938 0.17657 0.0
H783 H 0.7216 0.87155 0.19785 0.0
C784 C 0.3276 0.46226 0.56405 0.0
C785 C 0.34418 0.44364 0.5545 0.0
C786 C 0.32482 0.48333 0.54302 0.0
C787 C 0.33961 0.48611 0.51248 0.0
C788 C 0.35623 0.4672 0.50259 0.0
C789 C 0.35802 0.44596 0.52347 0.0
C790 C 0.30634 0.50274 0.55373 0.0
C791 C 0.37274 0.46977 0.47068 0.0
C792 C 0.32443 0.53151 0.43947 0.0
C793 C 0.3397 0.55131 0.44843 0.0
C794 C 0.32331 0.51057 0.46104 0.0
C795 C 0.33847 0.50917 0.49154 0.0
C796 C 0.35356 0.52938 0.50105 0.0
C797 C 0.35369 0.55042 0.47961 0.0
C798 C 0.3064 0.48972 0.45072 0.0
C799 C 0.37041 0.52835 0.53292 0.0
H800 H 0.31679 0.46034 0.588 0.0
H801 H 0.37099 0.43161 0.51631 0.0
H802 H 0.31603 0.51993 0.56121 0.0
H803 H 0.29407 0.50715 0.53106 0.0
H804 H 0.29487 0.49683 0.57649 0.0
H805 H 0.38464 0.45336 0.46661 0.0
H806 H 0.36154 0.47265 0.44642 0.0
H807 H 0.38469 0.48617 0.47395 0.0
H808 H 0.31351 0.53231 0.41539 0.0
H809 H 0.36567 0.56568 0.48631 0.0
H810 H 0.29501 0.48418 0.4737 0.0
H811 H 0.31745 0.47346 0.4427 0.0
H812 H 0.29402 0.49474 0.42839 0.0
H813 H 0.35973 0.52423 0.55718 0.0
H814 H 0.38055 0.54585 0.53711 0.0
H815 H 0.38399 0.51326 0.52942 0.0
C816 C 0.7273 0.09987 0.66109 0.0
C817 C 0.70472 0.10377 0.67813 0.0
C818 C 0.74934 0.0989 0.68049 0.0
C819 C 0.74872 0.10207 0.71772 0.0
C820 C 0.72592 0.10561 0.73511 0.0
C821 C 0.70417 0.10634 0.71509 0.0
C822 C 0.77329 0.0949 0.66112 0.0
C823 C 0.72456 0.10915 0.77479 0.0
C824 C 0.80164 0.08228 0.77694 0.0
C825 C 0.81297 0.10489 0.7842 0.0
C826 C 0.78122 0.08089 0.75418 0.0
C827 C 0.77193 0.10267 0.73855 0.0
C828 C 0.78394 0.12538 0.74464 0.0
C829 C 0.80437 0.1262 0.76736 0.0
C830 C 0.76901 0.05632 0.74802 0.0
C831 C 0.77457 0.14899 0.72841 0.0
H832 H 0.72778 0.09778 0.63251 0.0
H833 H 0.68675 0.10935 0.72836 0.0
H834 H 0.78521 0.1113 0.66435 0.0
H835 H 0.78334 0.07902 0.67263 0.0
H836 H 0.77048 0.09148 0.63233 0.0
H837 H 0.70532 0.11104 0.78432 0.0
H838 H 0.73327 0.09334 0.78851 0.0
H839 H 0.73491 0.12591 0.78258 0.0
H840 H 0.80828 0.06574 0.78985 0.0
H841 H 0.81309 0.14373 0.77286 0.0
H842 H 0.76654 0.05292 0.71921 0.0
H843 H 0.75044 0.05641 0.76017 0.0
H844 H 0.77976 0.04087 0.75954 0.0
H845 H 0.77264 0.14688 0.69927 0.0
H846 H 0.78691 0.16482 0.73397 0.0
H847 H 0.75605 0.15332 0.73909 0.0
C848 C 0.82728 0.44614 0.96668 0.0
C849 C 0.84415 0.44587 0.9387 0.0
C850 C 0.82512 0.46683 0.98884 0.0
C851 C 0.84074 0.48728 0.9834 0.0
C852 C 0.85765 0.48712 0.95493 0.0
C853 C 0.8589 0.46652 0.9326 0.0
C854 C 0.80644 0.46664 0.01839 0.0
C855 C 0.87507 0.5083 0.94883 0.0
C856 C 0.82836 0.54985 0.02486 0.0
C857 C 0.84347 0.54888 0.05496 0.0
C858 C 0.82653 0.52954 0.0019 0.0
C859 C 0.8407 0.50817 0.00882 0.0
C860 C 0.85587 0.50713 0.03932 0.0
C861 C 0.85682 0.5274 0.06227 0.0
C862 C 0.8097 0.53102 0.97007 0.0
C863 C 0.87171 0.48491 0.04717 0.0
H864 H 0.81572 0.43022 0.97116 0.0
H865 H 0.87204 0.46624 0.91103 0.0
H866 H 0.81602 0.46654 0.0444 0.0
H867 H 0.79499 0.48355 0.0174 0.0
H868 H 0.79417 0.45034 0.01698 0.0
H869 H 0.88671 0.50551 0.92499 0.0
H870 H 0.86462 0.5257 0.94567 0.0
H871 H 0.88728 0.51057 0.97225 0.0
H872 H 0.81792 0.56642 0.01937 0.0
H873 H 0.86864 0.5267 0.08545 0.0
H874 H 0.7971 0.51497 0.96957 0.0
H875 H 0.82071 0.53034 0.94537 0.0
H876 H 0.79853 0.54816 0.96998 0.0
H877 H 0.86012 0.46822 0.04924 0.0
H878 H 0.88236 0.48701 0.07218 0.0
H879 H 0.88481 0.48181 0.02509 0.0
C880 C 0.21947 0.10813 0.81044 0.0
C881 C 0.19824 0.09427 0.80383 0.0
C882 C 0.24003 0.10614 0.7884 0.0
C883 C 0.23953 0.08945 0.75954 0.0
C884 C 0.21848 0.07468 0.75353 0.0
C885 C 0.19787 0.07751 0.77556 0.0
C886 C 0.26192 0.12262 0.7952 0.0
C887 C 0.21757 0.05631 0.72348 0.0
C888 C 0.28067 0.10652 0.68293 0.0
C889 C 0.30194 0.09289 0.69046 0.0
C890 C 0.25994 0.10501 0.70471 0.0
C891 C 0.26035 0.08904 0.73426 0.0
C892 C 0.2814 0.0744 0.74111 0.0
C893 C 0.30216 0.07674 0.71932 0.0
C894 C 0.23805 0.12134 0.69698 0.0
C895 C 0.2822 0.05676 0.77193 0.0
H896 H 0.21975 0.12116 0.83225 0.0
H897 H 0.18151 0.06663 0.77068 0.0
H898 H 0.27887 0.11143 0.79821 0.0
H899 H 0.2647 0.13497 0.77219 0.0
H900 H 0.2596 0.13411 0.81937 0.0
H901 H 0.2009 0.04454 0.72459 0.0
H902 H 0.21764 0.06613 0.69775 0.0
H903 H 0.23412 0.04432 0.7241 0.0
H904 H 0.28049 0.11907 0.66065 0.0
H905 H 0.31855 0.06603 0.72491 0.0
H906 H 0.23531 0.13445 0.71925 0.0
H907 H 0.22108 0.11015 0.69469 0.0
H908 H 0.24034 0.13202 0.67215 0.0
H909 H 0.28225 0.06722 0.79722 0.0
H910 H 0.29879 0.04478 0.77128 0.0
H911 H 0.26557 0.04495 0.77187 0.0
C912 C 0.65996 0.54825 0.46827 0.0
C913 C 0.65081 0.54618 0.43365 0.0
C914 C 0.66259 0.52736 0.48976 0.0
C915 C 0.65529 0.50408 0.47649 0.0
C916 C 0.64712 0.50179 0.44098 0.0
C917 C 0.64522 0.52287 0.41986 0.0
C918 C 0.67195 0.53041 0.52723 0.0
C919 C 0.6387 0.47739 0.42604 0.0
C920 C 0.66894 0.44509 0.52703 0.0
C921 C 0.64729 0.44249 0.5467 0.0
C922 C 0.67215 0.46538 0.50447 0.0
C923 C 0.65295 0.48288 0.50093 0.0
C924 C 0.63091 0.47998 0.52037 0.0
C925 C 0.62852 0.46001 0.54336 0.0
C926 C 0.6961 0.46826 0.48477 0.0
C927 C 0.60973 0.49787 0.51668 0.0
H928 H 0.66456 0.56624 0.47883 0.0
H929 H 0.63816 0.5212 0.39305 0.0
H930 H 0.6565 0.52816 0.54609 0.0
H931 H 0.68583 0.51606 0.53346 0.0
H932 H 0.6803 0.54881 0.53169 0.0
H933 H 0.63525 0.47826 0.39702 0.0
H934 H 0.65258 0.46286 0.43126 0.0
H935 H 0.62142 0.47177 0.43932 0.0
H936 H 0.68352 0.4316 0.5299 0.0
H937 H 0.61168 0.45788 0.55841 0.0
H938 H 0.70463 0.48618 0.4917 0.0
H939 H 0.69266 0.46836 0.45577 0.0
H940 H 0.70937 0.45331 0.49096 0.0
H941 H 0.61564 0.51655 0.52492 0.0
H942 H 0.5936 0.49251 0.53292 0.0
H943 H 0.60386 0.49898 0.48852 0.0
C944 C 0.30528 0.91715 0.27431 0.0
C945 C 0.3049 0.90217 0.30444 0.0
C946 C 0.28423 0.91973 0.25298 0.0
C947 C 0.26265 0.90651 0.26165 0.0
C948 C 0.26208 0.89179 0.2925 0.0
C949 C 0.28316 0.89002 0.31372 0.0
C950 C 0.28526 0.93604 0.22069 0.0
C951 C 0.2396 0.87698 0.30223 0.0
C952 C 0.20026 0.91993 0.22049 0.0
C953 C 0.19949 0.90228 0.19339 0.0
C954 C 0.2212 0.9223 0.24213 0.0
C955 C 0.24138 0.90616 0.23698 0.0
C956 C 0.24065 0.88842 0.20947 0.0
C957 C 0.21982 0.88691 0.18774 0.0
C958 C 0.22163 0.94179 0.27071 0.0
C959 C 0.26155 0.87047 0.20369 0.0
H960 H 0.32205 0.92674 0.26733 0.0
H961 H 0.28283 0.87837 0.33701 0.0
H962 H 0.28436 0.92458 0.19634 0.0
H963 H 0.26919 0.94866 0.22019 0.0
H964 H 0.30238 0.94715 0.21987 0.0
H965 H 0.24183 0.86731 0.32795 0.0
H966 H 0.22321 0.8891 0.30387 0.0
H967 H 0.2359 0.86307 0.28129 0.0
H968 H 0.18458 0.93196 0.22462 0.0
H969 H 0.21919 0.87317 0.16685 0.0
H970 H 0.23858 0.95302 0.26851 0.0
H971 H 0.22194 0.93297 0.29719 0.0
H972 H 0.20538 0.95419 0.26927 0.0
H973 H 0.27896 0.88055 0.19914 0.0
H974 H 0.25821 0.85804 0.18075 0.0
H975 H 0.26417 0.85906 0.22777 0.0
C976 C 0.64275 0.02437 0.57404 0.0
C977 C 0.64017 0.04721 0.5572 0.0
C978 C 0.6431 0.0024 0.55445 0.0
C979 C 0.64053 0.00327 0.51714 0.0
C980 C 0.63772 0.02628 0.49999 0.0
C981 C 0.63773 0.04802 0.52024 0.0
C982 C 0.6464 0.97826 0.57366 0.0
C983 C 0.63466 0.02791 0.46027 0.0
C984 C 0.66348 0.94984 0.46108 0.0
C985 C 0.64157 0.93727 0.45358 0.0
C986 C 0.66346 0.97111 0.48227 0.0
C987 C 0.64096 0.98012 0.49602 0.0
C988 C 0.61885 0.9672 0.48916 0.0
C989 C 0.61944 0.94585 0.46813 0.0
C990 C 0.68746 0.98421 0.48938 0.0
C991 C 0.59448 0.97629 0.50326 0.0
H992 H 0.64473 0.02365 0.60263 0.0
H993 H 0.63564 0.06563 0.50716 0.0
H994 H 0.63045 0.96608 0.56834 0.0
H995 H 0.66304 0.96865 0.5637 0.0
H996 H 0.64825 0.98077 0.60279 0.0
H997 H 0.63223 0.04716 0.45109 0.0
H998 H 0.651 0.01992 0.44692 0.0
H999 H 0.61845 0.017 0.45172 0.0
H1000 H 0.68064 0.94328 0.44989 0.0
H1001 H 0.60243 0.93627 0.46226 0.0
H1002 H 0.69038 0.98632 0.51836 0.0
H1003 H 0.6868 0.00296 0.47789 0.0
H1004 H 0.70347 0.97426 0.47798 0.0
H1005 H 0.59533 0.97811 0.53254 0.0
H1006 H 0.57905 0.96381 0.49622 0.0
H1007 H 0.59045 0.99483 0.49242 0.0
C1008 C 0.29752 0.40324 0.71998 0.0
C1009 C 0.29894 0.38584 0.69259 0.0
C1010 C 0.27673 0.40447 0.74196 0.0
C1011 C 0.25725 0.38756 0.73676 0.0
C1012 C 0.25881 0.36973 0.70944 0.0
C1013 C 0.27954 0.36925 0.68745 0.0
C1014 C 0.27553 0.42396 0.77052 0.0
C1015 C 0.23864 0.35106 0.70356 0.0
C1016 C 0.21468 0.37474 0.81392 0.0
C1017 C 0.19356 0.38801 0.80428 0.0
C1018 C 0.23553 0.37445 0.79217 0.0
C1019 C 0.2354 0.38813 0.76032 0.0
C1020 C 0.21423 0.40182 0.75063 0.0
C1021 C 0.19342 0.4014 0.77261 0.0
C1022 C 0.25757 0.35924 0.80305 0.0
C1023 C 0.21359 0.41692 0.7171 0.0
H1024 H 0.31243 0.4162 0.7238 0.0
H1025 H 0.28066 0.3557 0.66636 0.0
H1026 H 0.25883 0.43546 0.76681 0.0
H1027 H 0.27407 0.41518 0.79693 0.0
H1028 H 0.29193 0.43612 0.77047 0.0
H1029 H 0.24286 0.3382 0.68143 0.0
H1030 H 0.23581 0.34018 0.72805 0.0
H1031 H 0.22105 0.36058 0.69759 0.0
H1032 H 0.2148 0.36426 0.83834 0.0
H1033 H 0.17715 0.41178 0.76523 0.0
H1034 H 0.27401 0.37116 0.80568 0.0
H1035 H 0.26168 0.34534 0.78227 0.0
H1036 H 0.25464 0.34956 0.82859 0.0
H1037 H 0.22905 0.43023 0.71711 0.0
H1038 H 0.19605 0.42723 0.71403 0.0
H1039 H 0.21601 0.40476 0.69369 0.0
C1040 C 0.8764 0.04633 0.95931 0.0
C1041 C 0.85541 0.0567 0.94365 0.0
C1042 C 0.87463 0.02553 0.98105 0.0
C1043 C 0.8513 0.01491 0.98733 0.0
C1044 C 0.82996 0.02561 0.97222 0.0
C1045 C 0.83228 0.04641 0.95048 0.0
C1046 C 0.89781 0.01467 0.99678 0.0
C1047 C 0.80477 0.01486 0.97853 0.0
C1048 C 0.85194 0.94788 0.01544 0.0
C1049 C 0.85023 0.95004 0.05237 0.0
C1050 C 0.85159 0.96885 0.99379 0.0
C1051 C 0.84941 0.99246 0.00953 0.0
C1052 C 0.84686 0.99465 0.04671 0.0
C1053 C 0.84734 0.97341 0.0677 0.0
C1054 C 0.85433 0.9658 0.95419 0.0
C1055 C 0.84438 0.01949 0.06445 0.0
H1056 H 0.89433 0.05419 0.95406 0.0
H1057 H 0.81601 0.05435 0.93837 0.0
H1058 H 0.89632 0.01398 0.02608 0.0
H1059 H 0.90025 0.99549 0.98724 0.0
H1060 H 0.91447 0.02539 0.98976 0.0
H1061 H 0.78995 0.02584 0.96578 0.0
H1062 H 0.80403 0.99581 0.96794 0.0
H1063 H 0.80106 0.01382 0.00739 0.0
H1064 H 0.85414 0.92984 0.0035 0.0
H1065 H 0.84589 0.97518 0.09625 0.0
H1066 H 0.8718 0.97436 0.94545 0.0
H1067 H 0.83914 0.9754 0.94018 0.0
H1068 H 0.85439 0.94616 0.94595 0.0
H1069 H 0.86149 0.03023 0.06053 0.0
H1070 H 0.8409 0.01793 0.09337 0.0
H1071 H 0.82911 0.03008 0.05222 0.0
C1072 C 0.19105 0.59472 0.21811 0.0
C1073 C 0.19127 0.61015 0.18844 0.0
C1074 C 0.2115 0.59331 0.24083 0.0
C1075 C 0.2324 0.60807 0.23401 0.0
C1076 C 0.23263 0.62378 0.20416 0.0
C1077 C 0.21213 0.62446 0.18154 0.0
C1078 C 0.21076 0.57607 0.27212 0.0
C1079 C 0.25438 0.64014 0.1964 0.0
C1080 C 0.27428 0.62328 0.31151 0.0
C1081 C 0.29431 0.60757 0.30539 0.0
C1082 C 0.25409 0.62371 0.28835 0.0
C1083 C 0.25373 0.6077 0.25871 0.0
C1084 C 0.27383 0.59163 0.25251 0.0
C1085 C 0.29404 0.59193 0.2758 0.0
C1086 C 0.23322 0.64143 0.29547 0.0
C1087 C 0.27391 0.57406 0.22143 0.0
H1088 H 0.17499 0.5835 0.22333 0.0
H1089 H 0.21231 0.63648 0.15866 0.0
H1090 H 0.22668 0.56326 0.27115 0.0
H1091 H 0.21228 0.58671 0.29717 0.0
H1092 H 0.19355 0.5651 0.27287 0.0
H1093 H 0.25165 0.65127 0.17204 0.0
H1094 H 0.25762 0.65282 0.21905 0.0
H1095 H 0.27124 0.62884 0.19317 0.0
H1096 H 0.27449 0.6355 0.33428 0.0
H1097 H 0.30947 0.57967 0.27114 0.0
H1098 H 0.21581 0.63115 0.29914 0.0
H1099 H 0.23059 0.65376 0.27237 0.0
H1100 H 0.23653 0.65293 0.31941 0.0
H1101 H 0.25752 0.56194 0.22261 0.0
H1102 H 0.29069 0.56236 0.22082 0.0
H1103 H 0.27275 0.58448 0.19624 0.0
C1104 C 0.34114 0.0475 0.52887 0.0
C1105 C 0.35623 0.04634 0.55896 0.0
C1106 C 0.34017 0.02777 0.50483 0.0
C1107 C 0.35511 0.00681 0.51076 0.0
C1108 C 0.37024 0.00554 0.54128 0.0
C1109 C 0.3704 0.02524 0.56524 0.0
C1110 C 0.32344 0.02947 0.47291 0.0
C1111 C 0.38682 0.98369 0.5481 0.0
C1112 C 0.34306 0.946 0.46451 0.0
C1113 C 0.35988 0.94705 0.43649 0.0
C1114 C 0.34069 0.96573 0.4883 0.0
C1115 C 0.35592 0.98663 0.48431 0.0
C1116 C 0.37287 0.98777 0.45596 0.0
C1117 C 0.37445 0.96804 0.43213 0.0
C1118 C 0.32208 0.96415 0.51786 0.0
C1119 C 0.38977 0.00955 0.45132 0.0
H1120 H 0.33006 0.06378 0.52418 0.0
H1121 H 0.38219 0.0244 0.58844 0.0
H1122 H 0.33457 0.0297 0.44831 0.0
H1123 H 0.31134 0.01307 0.4715 0.0
H1124 H 0.31174 0.04626 0.4735 0.0
H1125 H 0.3972 0.98547 0.57339 0.0
H1126 H 0.37582 0.96654 0.54898 0.0
H1127 H 0.40018 0.98169 0.52608 0.0
H1128 H 0.33164 0.92983 0.46766 0.0
H1129 H 0.38751 0.96882 0.41049 0.0
H1130 H 0.30988 0.98055 0.51748 0.0
H1131 H 0.33166 0.96403 0.54386 0.0
H1132 H 0.31053 0.94736 0.51584 0.0
H1133 H 0.37885 0.02673 0.44883 0.0
H1134 H 0.40168 0.00768 0.42757 0.0
H1135 H 0.4017 0.01158 0.47506 0.0
C1136 C 0.79218 0.59078 0.21683 0.0
C1137 C 0.79182 0.6032 0.18436 0.0
C1138 C 0.7714 0.5907 0.23882 0.0
C1139 C 0.75001 0.6037 0.22822 0.0
C1140 C 0.7495 0.61605 0.19528 0.0
C1141 C 0.77037 0.61548 0.17361 0.0
C1142 C 0.77243 0.57702 0.27357 0.0
C1143 C 0.72715 0.63041 0.18336 0.0
C1144 C 0.689 0.58958 0.2723 0.0
C1145 C 0.68795 0.608 0.29833 0.0
C1146 C 0.7092 0.58784 0.24935 0.0
C1147 C 0.72848 0.60521 0.25221 0.0
C1148 C 0.7272 0.62418 0.27794 0.0
C1149 C 0.70702 0.6252 0.30093 0.0
C1150 C 0.71013 0.5672 0.22249 0.0
C1151 C 0.74719 0.64332 0.2813 0.0
H1152 H 0.80873 0.58118 0.2251 0.0
H1153 H 0.77007 0.62521 0.14855 0.0
H1154 H 0.77055 0.59019 0.29593 0.0
H1155 H 0.75686 0.56392 0.27531 0.0
H1156 H 0.78992 0.56666 0.27695 0.0
H1157 H 0.72955 0.6385 0.15657 0.0
H1158 H 0.71073 0.61834 0.18292 0.0
H1159 H 0.72337 0.64552 0.20245 0.0
H1160 H 0.67433 0.57615 0.27045 0.0
H1161 H 0.70617 0.63951 0.32099 0.0
H1162 H 0.72677 0.55577 0.22705 0.0
H1163 H 0.71153 0.57483 0.19533 0.0
H1164 H 0.69366 0.55517 0.22376 0.0
H1165 H 0.76494 0.63432 0.28795 0.0
H1166 H 0.74303 0.65727 0.30203 0.0
H1167 H 0.74968 0.65289 0.25561 0.0
C1168 C 0.13691 0.97229 0.06729 0.0
C1169 C 0.14932 0.95021 0.06025 0.0
C1170 C 0.13758 0.9918 0.04321 0.0
C1171 C 0.15149 0.98932 0.01176 0.0
C1172 C 0.16486 0.9674 0.00514 0.0
C1173 C 0.16335 0.9479 0.02933 0.0
C1174 C 0.12266 0.0147 0.05083 0.0
C1175 C 0.18033 0.9644 0.97222 0.0
C1176 C 0.13064 0.02827 0.93435 0.0
C1177 C 0.14618 0.04868 0.93742 0.0
C1178 C 0.13248 0.0086 0.95807 0.0
C1179 C 0.15069 0.00917 0.98494 0.0
C1180 C 0.16698 0.02939 0.98745 0.0
C1181 C 0.16432 0.04912 0.96386 0.0
C1182 C 0.11443 0.98759 0.95506 0.0
C1183 C 0.18694 0.03031 0.01534 0.0
H1184 H 0.12594 0.97405 0.09113 0.0
H1185 H 0.17308 0.93085 0.02405 0.0
H1186 H 0.13465 0.03117 0.05043 0.0
H1187 H 0.1085 0.01719 0.02988 0.0
H1188 H 0.11329 0.01388 0.07694 0.0
H1189 H 0.1913 0.94713 0.9726 0.0
H1190 H 0.16829 0.96417 0.94843 0.0
H1191 H 0.19304 0.98022 0.96944 0.0
H1192 H 0.11656 0.02797 0.91392 0.0
H1193 H 0.17651 0.06483 0.96597 0.0
H1194 H 0.10333 0.98643 0.97965 0.0
H1195 H 0.12441 0.96988 0.95216 0.0
H1196 H 0.10172 0.98973 0.93215 0.0
H1197 H 0.17855 0.03147 0.04207 0.0
H1198 H 0.19935 0.04634 0.01184 0.0
H1199 H 0.1981 0.0132 0.01448 0.0
C1200 C 0.69535 0.36891 0.71508 0.0
C1201 C 0.6868 0.39041 0.69873 0.0
C1202 C 0.71577 0.36947 0.73784 0.0
C1203 C 0.72769 0.39213 0.74466 0.0
C1204 C 0.71858 0.41405 0.72923 0.0
C1205 C 0.69828 0.4129 0.70625 0.0
C1206 C 0.72505 0.34569 0.75369 0.0
C1207 C 0.73063 0.43859 0.73634 0.0
C1208 C 0.76932 0.39433 0.82538 0.0
C1209 C 0.79257 0.39111 0.81005 0.0
C1210 C 0.74806 0.39534 0.80432 0.0
C1211 C 0.75013 0.3927 0.76713 0.0
C1212 C 0.77361 0.38977 0.75146 0.0
C1213 C 0.79462 0.38918 0.77315 0.0
C1214 C 0.72336 0.39887 0.8219 0.0
C1215 C 0.77649 0.38666 0.71189 0.0
H1216 H 0.68656 0.35147 0.70922 0.0
H1217 H 0.69167 0.42958 0.69368 0.0
H1218 H 0.74406 0.342 0.74438 0.0
H1219 H 0.72579 0.34721 0.78301 0.0
H1220 H 0.7133 0.32974 0.74647 0.0
H1221 H 0.72039 0.45408 0.724 0.0
H1222 H 0.73195 0.44196 0.76531 0.0
H1223 H 0.74965 0.43847 0.72577 0.0
H1224 H 0.76771 0.39599 0.85393 0.0
H1225 H 0.81258 0.38663 0.76126 0.0
H1226 H 0.71173 0.38241 0.81733 0.0
H1227 H 0.71361 0.41481 0.81003 0.0
H1228 H 0.72506 0.40196 0.85093 0.0
H1229 H 0.76661 0.36989 0.70296 0.0
H1230 H 0.79608 0.38506 0.70384 0.0
H1231 H 0.76813 0.40252 0.69785 0.0
loop_
_geom_bond_atom_site_label_1
_geom_bond_atom_site_label_2
_geom_bond_distance
_geom_bond_site_symmetry_2
_ccdc_geom_bond_type
In0 O1 2.294 . S
In0 O2 2.326 . S
In0 O6 2.266 . S
In0 O7 2.326 . S
In0 O8 2.266 . S
In0 O9 2.326 . S
In0 O11 2.294 . S
In0 O12 2.326 . S
O1 In0 2.294 . S
O1 C10 1.240 . S
O2 In0 2.326 . S
O2 C10 1.252 . S
C3 O6 1.252 . S
C3 O7 1.260 . S
C4 O11 1.240 . S
C4 O12 1.252 . S
C5 O8 1.252 . S
C5 O9 1.260 . S
O6 In0 2.266 . S
O6 C3 1.252 . S
O7 In0 2.326 . S
O7 C3 1.260 . S
O8 In0 2.266 . S
O8 C5 1.252 . S
O9 In0 2.326 . S
O9 C5 1.260 . S
C10 O1 1.240 . S
C10 O2 1.252 . S
O11 In0 2.294 . S
O11 C4 1.240 . S
O12 In0 2.326 . S
O12 C4 1.252 . S
In13 O14 2.294 . S
In13 O15 2.326 . S
In13 O19 2.266 . S
In13 O20 2.326 . S
In13 O21 2.266 . S
In13 O22 2.326 . S
In13 O24 2.294 . S
In13 O25 2.326 . S
O14 In13 2.294 . S
O14 C23 1.240 . S
O15 In13 2.326 . S
O15 C23 1.252 . S
C16 O19 1.252 . S
C16 O20 1.260 . S
C17 O24 1.240 . S
C17 O25 1.252 . S
C18 O21 1.252 . S
C18 O22 1.260 . S
O19 In13 2.266 . S
O19 C16 1.252 . S
O20 In13 2.326 . S
O20 C16 1.260 . S
O21 In13 2.266 . S
O21 C18 1.252 . S
O22 In13 2.326 . S
O22 C18 1.260 . S
C23 O14 1.240 . S
C23 O15 1.252 . S
O24 In13 2.294 . S
O24 C17 1.240 . S
O25 In13 2.326 . S
O25 C17 1.252 . S
In26 O27 2.294 . S
In26 O28 2.326 . S
In26 O32 2.266 . S
In26 O33 2.326 . S
In26 O34 2.266 . S
In26 O35 2.326 . S
In26 O37 2.294 . S
In26 O38 2.326 . S
O27 In26 2.294 . S
O27 C36 1.240 . S
O28 In26 2.326 . S
O28 C36 1.252 . S
C29 O32 1.252 . S
C29 O33 1.260 . S
C30 O37 1.240 . S
C30 O38 1.252 . S
C31 O34 1.252 . S
C31 O35 1.260 . S
O32 In26 2.266 . S
O32 C29 1.252 . S
O33 In26 2.326 . S
O33 C29 1.260 . S
O34 In26 2.266 . S
O34 C31 1.252 . S
O35 In26 2.326 . S
O35 C31 1.260 . S
C36 O27 1.240 . S
C36 O28 1.252 . S
O37 In26 2.294 . S
O37 C30 1.240 . S
O38 In26 2.326 . S
O38 C30 1.252 . S
In39 O40 2.294 . S
In39 O41 2.326 . S
In39 O45 2.266 . S
In39 O46 2.326 . S
In39 O47 2.266 . S
In39 O48 2.326 . S
In39 O50 2.294 . S
In39 O51 2.326 . S
O40 In39 2.294 . S
O40 C49 1.240 . S
O41 In39 2.326 . S
O41 C49 1.252 . S
C42 O45 1.252 . S
C42 O46 1.260 . S
C43 O50 1.240 . S
C43 O51 1.252 . S
C44 O47 1.252 . S
C44 O48 1.260 . S
O45 In39 2.266 . S
O45 C42 1.252 . S
O46 In39 2.326 . S
O46 C42 1.260 . S
O47 In39 2.266 . S
O47 C44 1.252 . S
O48 In39 2.326 . S
O48 C44 1.260 . S
C49 O40 1.240 . S
C49 O41 1.252 . S
O50 In39 2.294 . S
O50 C43 1.240 . S
O51 In39 2.326 . S
O51 C43 1.252 . S
In52 O53 2.294 . S
In52 O54 2.326 . S
In52 O58 2.266 . S
In52 O59 2.326 . S
In52 O60 2.266 . S
In52 O61 2.326 . S
In52 O63 2.294 . S
In52 O64 2.326 . S
O53 In52 2.294 . S
O53 C62 1.240 . S
O54 In52 2.326 . S
O54 C62 1.252 . S
C55 O58 1.252 . S
C55 O59 1.260 . S
C56 O63 1.240 . S
C56 O64 1.252 . S
C57 O60 1.252 . S
C57 O61 1.260 . S
O58 In52 2.266 . S
O58 C55 1.252 . S
O59 In52 2.326 . S
O59 C55 1.260 . S
O60 In52 2.266 . S
O60 C57 1.252 . S
O61 In52 2.326 . S
O61 C57 1.260 . S
C62 O53 1.240 . S
C62 O54 1.252 . S
O63 In52 2.294 . S
O63 C56 1.240 . S
O64 In52 2.326 . S
O64 C56 1.252 . S
In65 O66 2.294 . S
In65 O67 2.326 . S
In65 O71 2.266 . S
In65 O72 2.326 . S
In65 O73 2.266 . S
In65 O74 2.326 . S
In65 O76 2.294 . S
In65 O77 2.326 . S
O66 In65 2.294 . S
O66 C75 1.240 . S
O67 In65 2.326 . S
O67 C75 1.252 . S
C68 O71 1.252 . S
C68 O72 1.260 . S
C69 O76 1.240 . S
C69 O77 1.252 . S
C70 O73 1.252 . S
C70 O74 1.260 . S
O71 In65 2.266 . S
O71 C68 1.252 . S
O72 In65 2.326 . S
O72 C68 1.260 . S
O73 In65 2.266 . S
O73 C70 1.252 . S
O74 In65 2.326 . S
O74 C70 1.260 . S
C75 O66 1.240 . S
C75 O67 1.252 . S
O76 In65 2.294 . S
O76 C69 1.240 . S
O77 In65 2.326 . S
O77 C69 1.252 . S
In78 O79 2.294 . S
In78 O80 2.326 . S
In78 O84 2.266 . S
In78 O85 2.326 . S
In78 O86 2.266 . S
In78 O87 2.326 . S
In78 O89 2.294 . S
In78 O90 2.326 . S
O79 In78 2.294 . S
O79 C88 1.240 . S
O80 In78 2.326 . S
O80 C88 1.252 . S
C81 O84 1.252 . S
C81 O85 1.260 . S
C82 O89 1.240 . S
C82 O90 1.252 . S
C83 O86 1.252 . S
C83 O87 1.260 . S
O84 In78 2.266 . S
O84 C81 1.252 . S
O85 In78 2.326 . S
O85 C81 1.260 . S
O86 In78 2.266 . S
O86 C83 1.252 . S
O87 In78 2.326 . S
O87 C83 1.260 . S
C88 O79 1.240 . S
C88 O80 1.252 . S
O89 In78 2.294 . S
O89 C82 1.240 . S
O90 In78 2.326 . S
O90 C82 1.252 . S
In91 O92 2.294 . S
In91 O93 2.326 . S
In91 O97 2.266 . S
In91 O98 2.326 . S
In91 O99 2.266 . S
In91 O100 2.326 . S
In91 O102 2.294 . S
In91 O103 2.326 . S
O92 In91 2.294 . S
O92 C101 1.240 . S
O93 In91 2.326 . S
O93 C101 1.252 . S
C94 O97 1.252 . S
C94 O98 1.260 . S
C95 O102 1.240 . S
C95 O103 1.252 . S
C96 O99 1.252 . S
C96 O100 1.260 . S
O97 In91 2.266 . S
O97 C94 1.252 . S
O98 In91 2.326 . S
O98 C94 1.260 . S
O99 In91 2.266 . S
O99 C96 1.252 . S
O100 In91 2.326 . S
O100 C96 1.260 . S
C101 O92 1.240 . S
C101 O93 1.252 . S
O102 In91 2.294 . S
O102 C95 1.240 . S
O103 In91 2.326 . S
O103 C95 1.252 . S
In104 O105 2.294 . S
In104 O106 2.326 . S
In104 O110 2.266 . S
In104 O111 2.326 . S
In104 O112 2.266 . S
In104 O113 2.326 . S
In104 O115 2.294 . S
In104 O116 2.326 . S
O105 In104 2.294 . S
O105 C114 1.240 . S
O106 In104 2.326 . S
O106 C114 1.252 . S
C107 O110 1.252 . S
C107 O111 1.260 . S
C108 O115 1.240 . S
C108 O116 1.252 . S
C109 O112 1.252 . S
C109 O113 1.260 . S
O110 In104 2.266 . S
O110 C107 1.252 . S
O111 In104 2.326 . S
O111 C107 1.260 . S
O112 In104 2.266 . S
O112 C109 1.252 . S
O113 In104 2.326 . S
O113 C109 1.260 . S
C114 O105 1.240 . S
C114 O106 1.252 . S
O115 In104 2.294 . S
O115 C108 1.240 . S
O116 In104 2.326 . S
O116 C108 1.252 . S
In117 O118 2.294 . S
In117 O119 2.326 . S
In117 O123 2.266 . S
In117 O124 2.326 . S
In117 O125 2.266 . S
In117 O126 2.326 . S
In117 O128 2.294 . S
In117 O129 2.326 . S
O118 In117 2.294 . S
O118 C127 1.240 . S
O119 In117 2.326 . S
O119 C127 1.252 . S
C120 O123 1.252 . S
C120 O124 1.260 . S
C121 O128 1.240 . S
C121 O129 1.252 . S
C122 O125 1.252 . S
C122 O126 1.260 . S
O123 In117 2.266 . S
O123 C120 1.252 . S
O124 In117 2.326 . S
O124 C120 1.260 . S
O125 In117 2.266 . S
O125 C122 1.252 . S
O126 In117 2.326 . S
O126 C122 1.260 . S
C127 O118 1.240 . S
C127 O119 1.252 . S
O128 In117 2.294 . S
O128 C121 1.240 . S
O129 In117 2.326 . S
O129 C121 1.252 . S
In130 O131 2.294 . S
In130 O132 2.326 . S
In130 O136 2.266 . S
In130 O137 2.326 . S
In130 O138 2.266 . S
In130 O139 2.326 . S
In130 O141 2.294 . S
In130 O142 2.326 . S
O131 In130 2.294 . S
O131 C140 1.240 . S
O132 In130 2.326 . S
O132 C140 1.252 . S
C133 O136 1.252 . S
C133 O137 1.260 . S
C134 O141 1.240 . S
C134 O142 1.252 . S
C135 O138 1.252 . S
C135 O139 1.260 . S
O136 In130 2.266 . S
O136 C133 1.252 . S
O137 In130 2.326 . S
O137 C133 1.260 . S
O138 In130 2.266 . S
O138 C135 1.252 . S
O139 In130 2.326 . S
O139 C135 1.260 . S
C140 O131 1.240 . S
C140 O132 1.252 . S
O141 In130 2.294 . S
O141 C134 1.240 . S
O142 In130 2.326 . S
O142 C134 1.252 . S
In143 O144 2.294 . S
In143 O145 2.326 . S
In143 O149 2.266 . S
In143 O150 2.326 . S
In143 O151 2.266 . S
In143 O152 2.326 . S
In143 O154 2.294 . S
In143 O155 2.326 . S
O144 In143 2.294 . S
O144 C153 1.240 . S
O145 In143 2.326 . S
O145 C153 1.252 . S
C146 O149 1.252 . S
C146 O150 1.260 . S
C147 O154 1.240 . S
C147 O155 1.252 . S
C148 O151 1.252 . S
C148 O152 1.260 . S
O149 In143 2.266 . S
O149 C146 1.252 . S
O150 In143 2.326 . S
O150 C146 1.260 . S
O151 In143 2.266 . S
O151 C148 1.252 . S
O152 In143 2.326 . S
O152 C148 1.260 . S
C153 O144 1.240 . S
C153 O145 1.252 . S
O154 In143 2.294 . S
O154 C147 1.240 . S
O155 In143 2.326 . S
O155 C147 1.252 . S
In156 O157 2.294 . S
In156 O158 2.326 . S
In156 O162 2.266 . S
In156 O163 2.326 . S
In156 O164 2.266 . S
In156 O165 2.326 . S
In156 O167 2.294 . S
In156 O168 2.326 . S
O157 In156 2.294 . S
O157 C166 1.240 . S
O158 In156 2.326 . S
O158 C166 1.252 . S
C159 O162 1.252 . S
C159 O163 1.260 . S
C160 O167 1.240 . S
C160 O168 1.252 . S
C161 O164 1.252 . S
C161 O165 1.260 . S
O162 In156 2.266 . S
O162 C159 1.252 . S
O163 In156 2.326 . S
O163 C159 1.260 . S
O164 In156 2.266 . S
O164 C161 1.252 . S
O165 In156 2.326 . S
O165 C161 1.260 . S
C166 O157 1.240 . S
C166 O158 1.252 . S
O167 In156 2.294 . S
O167 C160 1.240 . S
O168 In156 2.326 . S
O168 C160 1.252 . S
In169 O170 2.294 . S
In169 O171 2.326 . S
In169 O175 2.266 . S
In169 O176 2.326 . S
In169 O177 2.266 . S
In169 O178 2.326 . S
In169 O180 2.294 . S
In169 O181 2.326 . S
O170 In169 2.294 . S
O170 C179 1.240 . S
O171 In169 2.326 . S
O171 C179 1.252 . S
C172 O175 1.252 . S
C172 O176 1.260 . S
C173 O180 1.240 . S
C173 O181 1.252 . S
C174 O177 1.252 . S
C174 O178 1.260 . S
O175 In169 2.266 . S
O175 C172 1.252 . S
O176 In169 2.326 . S
O176 C172 1.260 . S
O177 In169 2.266 . S
O177 C174 1.252 . S
O178 In169 2.326 . S
O178 C174 1.260 . S
C179 O170 1.240 . S
C179 O171 1.252 . S
O180 In169 2.294 . S
O180 C173 1.240 . S
O181 In169 2.326 . S
O181 C173 1.252 . S
In182 O183 2.294 . S
In182 O184 2.326 . S
In182 O188 2.266 . S
In182 O189 2.326 . S
In182 O190 2.266 . S
In182 O191 2.326 . S
In182 O193 2.294 . S
In182 O194 2.326 . S
O183 In182 2.294 . S
O183 C192 1.240 . S
O184 In182 2.326 . S
O184 C192 1.252 . S
C185 O188 1.252 . S
C185 O189 1.260 . S
C186 O193 1.240 . S
C186 O194 1.252 . S
C187 O190 1.252 . S
C187 O191 1.260 . S
O188 In182 2.266 . S
O188 C185 1.252 . S
O189 In182 2.326 . S
O189 C185 1.260 . S
O190 In182 2.266 . S
O190 C187 1.252 . S
O191 In182 2.326 . S
O191 C187 1.260 . S
C192 O183 1.240 . S
C192 O184 1.252 . S
O193 In182 2.294 . S
O193 C186 1.240 . S
O194 In182 2.326 . S
O194 C186 1.252 . S
In195 O196 2.294 . S
In195 O197 2.326 . S
In195 O201 2.266 . S
In195 O202 2.326 . S
In195 O203 2.266 . S
In195 O204 2.326 . S
In195 O206 2.294 . S
In195 O207 2.326 . S
O196 In195 2.294 . S
O196 C205 1.240 . S
O197 In195 2.326 . S
O197 C205 1.252 . S
C198 O201 1.252 . S
C198 O202 1.260 . S
C199 O206 1.240 . S
C199 O207 1.252 . S
C200 O203 1.252 . S
C200 O204 1.260 . S
O201 In195 2.266 . S
O201 C198 1.252 . S
O202 In195 2.326 . S
O202 C198 1.260 . S
O203 In195 2.266 . S
O203 C200 1.252 . S
O204 In195 2.326 . S
O204 C200 1.260 . S
C205 O196 1.240 . S
C205 O197 1.252 . S
O206 In195 2.294 . S
O206 C199 1.240 . S
O207 In195 2.326 . S
O207 C199 1.252 . S
C208 C209 1.391 . S
C208 C210 1.394 . S
C208 H224 0.931 . S
C209 C208 1.391 . S
C209 C213 1.376 . S
C210 C208 1.394 . S
C210 C211 1.369 . S
C210 C214 1.531 . S
C211 C210 1.369 . S
C211 C212 1.410 . S
C211 C219 1.503 . S
C212 C211 1.410 . S
C212 C213 1.392 . S
C212 C215 1.511 . S
C213 C209 1.376 . S
C213 C212 1.392 . S
C213 H225 0.929 . S
C214 C210 1.531 . S
C214 H226 0.960 . S
C214 H227 0.962 . S
C214 H228 0.960 . S
C215 C212 1.511 . S
C215 H229 0.961 . S
C215 H230 0.961 . S
C215 H231 0.961 . S
C216 C217 1.370 . S
C216 C218 1.363 . S
C216 H232 0.931 . S
C217 C216 1.370 . S
C217 C221 1.408 . S
C218 C216 1.363 . S
C218 C219 1.370 . S
C218 C222 1.524 . S
C219 C211 1.503 . S
C219 C218 1.370 . S
C219 C220 1.403 . S
C220 C219 1.403 . S
C220 C221 1.404 . S
C220 C223 1.539 . S
C221 C217 1.408 . S
C221 C220 1.404 . S
C221 H233 0.930 . S
C222 C218 1.524 . S
C222 H234 0.956 . S
C222 H235 0.961 . S
C222 H236 0.961 . S
C223 C220 1.539 . S
C223 H237 0.958 . S
C223 H238 0.961 . S
C223 H239 0.960 . S
H224 C208 0.931 . S
H225 C213 0.929 . S
H226 C214 0.960 . S
H227 C214 0.962 . S
H228 C214 0.960 . S
H229 C215 0.961 . S
H230 C215 0.961 . S
H231 C215 0.961 . S
H232 C216 0.931 . S
H233 C221 0.930 . S
H234 C222 0.956 . S
H235 C222 0.961 . S
H236 C222 0.961 . S
H237 C223 0.958 . S
H238 C223 0.961 . S
H239 C223 0.960 . S
C240 C241 1.391 . S
C240 C242 1.394 . S
C240 H256 0.931 . S
C241 C240 1.391 . S
C241 C245 1.376 . S
C242 C240 1.394 . S
C242 C243 1.369 . S
C242 C246 1.531 . S
C243 C242 1.369 . S
C243 C244 1.410 . S
C243 C251 1.503 . S
C244 C243 1.410 . S
C244 C245 1.392 . S
C244 C247 1.511 . S
C245 C241 1.376 . S
C245 C244 1.392 . S
C245 H257 0.929 . S
C246 C242 1.531 . S
C246 H258 0.960 . S
C246 H259 0.962 . S
C246 H260 0.960 . S
C247 C244 1.511 . S
C247 H261 0.961 . S
C247 H262 0.961 . S
C247 H263 0.961 . S
C248 C249 1.370 . S
C248 C250 1.363 . S
C248 H264 0.931 . S
C249 C248 1.370 . S
C249 C253 1.408 . S
C250 C248 1.363 . S
C250 C251 1.370 . S
C250 C254 1.524 . S
C251 C243 1.503 . S
C251 C250 1.370 . S
C251 C252 1.403 . S
C252 C251 1.403 . S
C252 C253 1.404 . S
C252 C255 1.539 . S
C253 C249 1.408 . S
C253 C252 1.404 . S
C253 H265 0.930 . S
C254 C250 1.524 . S
C254 H266 0.956 . S
C254 H267 0.961 . S
C254 H268 0.961 . S
C255 C252 1.539 . S
C255 H269 0.958 . S
C255 H270 0.961 . S
C255 H271 0.960 . S
H256 C240 0.931 . S
H257 C245 0.929 . S
H258 C246 0.960 . S
H259 C246 0.962 . S
H260 C246 0.960 . S
H261 C247 0.961 . S
H262 C247 0.961 . S
H263 C247 0.961 . S
H264 C248 0.931 . S
H265 C253 0.930 . S
H266 C254 0.956 . S
H267 C254 0.961 . S
H268 C254 0.961 . S
H269 C255 0.958 . S
H270 C255 0.961 . S
H271 C255 0.960 . S
C272 C273 1.391 . S
C272 C274 1.394 . S
C272 H288 0.931 . S
C273 C272 1.391 . S
C273 C277 1.376 . S
C274 C272 1.394 . S
C274 C275 1.369 . S
C274 C278 1.531 . S
C275 C274 1.369 . S
C275 C276 1.410 . S
C275 C283 1.503 . S
C276 C275 1.410 . S
C276 C277 1.392 . S
C276 C279 1.511 . S
C277 C273 1.376 . S
C277 C276 1.392 . S
C277 H289 0.929 . S
C278 C274 1.531 . S
C278 H290 0.960 . S
C278 H291 0.962 . S
C278 H292 0.960 . S
C279 C276 1.511 . S
C279 H293 0.961 . S
C279 H294 0.961 . S
C279 H295 0.961 . S
C280 C281 1.370 . S
C280 C282 1.363 . S
C280 H296 0.931 . S
C281 C280 1.370 . S
C281 C285 1.408 . S
C282 C280 1.363 . S
C282 C283 1.370 . S
C282 C286 1.524 . S
C283 C275 1.503 . S
C283 C282 1.370 . S
C283 C284 1.403 . S
C284 C283 1.403 . S
C284 C285 1.404 . S
C284 C287 1.539 . S
C285 C281 1.408 . S
C285 C284 1.404 . S
C285 H297 0.930 . S
C286 C282 1.524 . S
C286 H298 0.956 . S
C286 H299 0.961 . S
C286 H300 0.961 . S
C287 C284 1.539 . S
C287 H301 0.958 . S
C287 H302 0.961 . S
C287 H303 0.960 . S
H288 C272 0.931 . S
H289 C277 0.929 . S
H290 C278 0.960 . S
H291 C278 0.962 . S
H292 C278 0.960 . S
H293 C279 0.961 . S
H294 C279 0.961 . S
H295 C279 0.961 . S
H296 C280 0.931 . S
H297 C285 0.930 . S
H298 C286 0.956 . S
H299 C286 0.961 . S
H300 C286 0.961 . S
H301 C287 0.958 . S
H302 C287 0.961 . S
H303 C287 0.960 . S
C304 C305 1.391 . S
C304 C306 1.394 . S
C304 H320 0.931 . S
C305 C304 1.391 . S
C305 C309 1.376 . S
C306 C304 1.394 . S
C306 C307 1.369 . S
C306 C310 1.531 . S
C307 C306 1.369 . S
C307 C308 1.410 . S
C307 C315 1.503 1_455 S
C308 C307 1.410 . S
C308 C309 1.392 . S
C308 C311 1.511 . S
C309 C305 1.376 . S
C309 C308 1.392 . S
C309 H321 0.929 . S
C310 C306 1.531 . S
C310 H322 0.960 1_455 S
C310 H323 0.962 . S
C310 H324 0.960 . S
C311 C308 1.511 . S
C311 H325 0.961 . S
C311 H326 0.961 1_455 S
C311 H327 0.961 . S
C312 C313 1.370 . S
C312 C314 1.363 . S
C312 H328 0.931 . S
C313 C312 1.370 . S
C313 C317 1.408 . S
C314 C312 1.363 . S
C314 C315 1.370 . S
C314 C318 1.524 . S
C315 C307 1.503 1_655 S
C315 C314 1.370 . S
C315 C316 1.403 . S
C316 C315 1.403 . S
C316 C317 1.404 . S
C316 C319 1.539 . S
C317 C313 1.408 . S
C317 C316 1.404 . S
C317 H329 0.930 . S
C318 C314 1.524 . S
C318 H330 0.956 . S
C318 H331 0.961 1_655 S
C318 H332 0.961 . S
C319 C316 1.539 . S
C319 H333 0.958 . S
C319 H334 0.961 . S
C319 H335 0.975 . S
H320 C304 0.931 . S
H321 C309 0.929 . S
H322 C310 0.960 1_655 S
H323 C310 0.962 . S
H324 C310 0.960 . S
H325 C311 0.961 . S
H326 C311 0.961 1_655 S
H327 C311 0.961 . S
H328 C312 0.931 . S
H329 C317 0.930 . S
H330 C318 0.956 . S
H331 C318 0.961 1_455 S
H332 C318 0.961 . S
H333 C319 0.958 . S
H334 C319 0.961 . S
H335 C319 0.975 . S
C336 C337 1.391 . S
C336 C338 1.394 . S
C336 H352 0.931 . S
C337 C336 1.391 . S
C337 C341 1.376 . S
C338 C336 1.394 . S
C338 C339 1.369 . S
C338 C342 1.531 . S
C339 C338 1.369 . S
C339 C340 1.410 . S
C339 C347 1.503 . S
C340 C339 1.410 . S
C340 C341 1.392 . S
C340 C343 1.511 . S
C341 C337 1.376 . S
C341 C340 1.392 . S
C341 H353 0.929 . S
C342 C338 1.531 . S
C342 H354 0.960 . S
C342 H355 0.962 . S
C342 H356 0.960 . S
C343 C340 1.511 . S
C343 H357 0.961 . S
C343 H358 0.961 . S
C343 H359 0.961 . S
C344 C345 1.370 . S
C344 C346 1.363 . S
C344 H360 0.931 . S
C345 C344 1.370 . S
C345 C349 1.408 . S
C346 C344 1.363 . S
C346 C347 1.370 . S
C346 C350 1.524 . S
C347 C339 1.503 . S
C347 C346 1.370 . S
C347 C348 1.403 . S
C348 C347 1.403 . S
C348 C349 1.404 . S
C348 C351 1.539 . S
C349 C345 1.408 . S
C349 C348 1.404 . S
C349 H361 0.930 . S
C350 C346 1.524 . S
C350 H362 0.956 . S
C350 H363 0.961 . S
C350 H364 0.961 . S
C351 C348 1.539 . S
C351 H365 0.958 . S
C351 H366 0.961 . S
C351 H367 0.960 . S
H352 C336 0.931 . S
H353 C341 0.929 . S
H354 C342 0.960 . S
H355 C342 0.962 . S
H356 C342 0.960 . S
H357 C343 0.961 . S
H358 C343 0.961 . S
H359 C343 0.961 . S
H360 C344 0.931 . S
H361 C349 0.930 . S
H362 C350 0.956 . S
H363 C350 0.961 . S
H364 C350 0.961 . S
H365 C351 0.958 . S
H366 C351 0.961 . S
H367 C351 0.960 . S
C368 C369 1.391 . S
C368 C370 1.394 . S
C368 H384 0.931 . S
C369 C368 1.391 . S
C369 C373 1.376 . S
C370 C368 1.394 . S
C370 C371 1.369 . S
C370 C374 1.531 . S
C371 C370 1.369 . S
C371 C372 1.410 . S
C371 C379 1.503 1_655 S
C372 C371 1.410 . S
C372 C373 1.392 . S
C372 C375 1.511 . S
C373 C369 1.376 . S
C373 C372 1.392 . S
C373 H385 0.929 . S
C374 C370 1.531 . S
C374 H386 0.960 1_655 S
C374 H387 0.962 . S
C374 H388 0.960 . S
C375 C372 1.511 . S
C375 H389 0.961 . S
C375 H390 0.961 1_655 S
C375 H391 0.961 . S
C376 C377 1.370 . S
C376 C378 1.363 . S
C376 H392 0.931 . S
C377 C376 1.370 . S
C377 C381 1.408 . S
C378 C376 1.363 . S
C378 C379 1.370 . S
C378 C382 1.524 . S
C379 C371 1.503 1_455 S
C379 C378 1.370 . S
C379 C380 1.403 . S
C380 C379 1.403 . S
C380 C381 1.404 . S
C380 C383 1.539 . S
C381 C377 1.408 . S
C381 C380 1.404 . S
C381 H393 0.930 . S
C382 C378 1.524 . S
C382 H394 0.977 . S
C382 H395 0.961 1_455 S
C382 H396 0.961 . S
C383 C380 1.539 . S
C383 H397 0.958 . S
C383 H398 0.961 . S
C383 H399 0.955 . S
H384 C368 0.931 . S
H385 C373 0.929 . S
H386 C374 0.960 1_455 S
H387 C374 0.962 . S
H388 C374 0.960 . S
H389 C375 0.961 . S
H390 C375 0.961 1_455 S
H391 C375 0.961 . S
H392 C376 0.931 . S
H393 C381 0.930 . S
H394 C382 0.977 . S
H395 C382 0.961 1_655 S
H396 C382 0.961 . S
H397 C383 0.958 . S
H398 C383 0.961 . S
H399 C383 0.955 . S
C400 C401 1.391 . S
C400 C402 1.394 . S
C400 H416 0.931 . S
C401 C400 1.391 . S
C401 C405 1.376 . S
C402 C400 1.394 . S
C402 C403 1.369 . S
C402 C406 1.531 . S
C403 C402 1.369 . S
C403 C404 1.410 . S
C403 C411 1.503 . S
C404 C403 1.410 . S
C404 C405 1.392 . S
C404 C407 1.511 . S
C405 C401 1.376 . S
C405 C404 1.392 . S
C405 H417 0.929 . S
C406 C402 1.531 . S
C406 H418 0.960 . S
C406 H419 0.962 . S
C406 H420 0.960 . S
C407 C404 1.511 . S
C407 H421 0.961 . S
C407 H422 0.961 . S
C407 H423 0.961 . S
C408 C409 1.370 . S
C408 C410 1.363 . S
C408 H424 0.931 . S
C409 C408 1.370 . S
C409 C413 1.408 . S
C410 C408 1.363 . S
C410 C411 1.370 . S
C410 C414 1.524 . S
C411 C403 1.503 . S
C411 C410 1.370 . S
C411 C412 1.403 . S
C412 C411 1.403 . S
C412 C413 1.404 . S
C412 C415 1.539 . S
C413 C409 1.408 . S
C413 C412 1.404 . S
C413 H425 0.930 . S
C414 C410 1.524 . S
C414 H426 0.956 . S
C414 H427 0.961 . S
C414 H428 0.961 . S
C415 C412 1.539 . S
C415 H429 0.958 . S
C415 H430 0.961 . S
C415 H431 0.960 . S
H416 C400 0.931 . S
H417 C405 0.929 . S
H418 C406 0.960 . S
H419 C406 0.962 . S
H420 C406 0.960 . S
H421 C407 0.961 . S
H422 C407 0.961 . S
H423 C407 0.961 . S
H424 C408 0.931 . S
H425 C413 0.930 . S
H426 C414 0.956 . S
H427 C414 0.961 . S
H428 C414 0.961 . S
H429 C415 0.958 . S
H430 C415 0.961 . S
H431 C415 0.960 . S
C432 C433 1.391 . S
C432 C434 1.394 . S
C432 H448 0.931 . S
C433 C432 1.391 . S
C433 C437 1.376 . S
C434 C432 1.394 . S
C434 C435 1.369 . S
C434 C438 1.531 . S
C435 C434 1.369 . S
C435 C436 1.410 . S
C435 C443 1.503 . S
C436 C435 1.410 . S
C436 C437 1.392 . S
C436 C439 1.511 . S
C437 C433 1.376 . S
C437 C436 1.392 . S
C437 H449 0.929 . S
C438 C434 1.531 . S
C438 H450 0.960 . S
C438 H451 0.962 . S
C438 H452 0.960 . S
C439 C436 1.511 . S
C439 H453 0.961 . S
C439 H454 0.961 . S
C439 H455 0.961 . S
C440 C441 1.370 . S
C440 C442 1.363 . S
C440 H456 0.931 . S
C441 C440 1.370 . S
C441 C445 1.408 . S
C442 C440 1.363 . S
C442 C443 1.370 . S
C442 C446 1.524 . S
C443 C435 1.503 . S
C443 C442 1.370 . S
C443 C444 1.403 . S
C444 C443 1.403 . S
C444 C445 1.404 . S
C444 C447 1.539 . S
C445 C441 1.408 . S
C445 C444 1.404 . S
C445 H457 0.930 . S
C446 C442 1.524 . S
C446 H458 0.956 . S
C446 H459 0.961 . S
C446 H460 0.961 . S
C447 C444 1.539 . S
C447 H461 0.958 . S
C447 H462 0.961 . S
C447 H463 0.960 . S
H448 C432 0.931 . S
H449 C437 0.929 . S
H450 C438 0.960 . S
H451 C438 0.962 . S
H452 C438 0.960 . S
H453 C439 0.961 . S
H454 C439 0.961 . S
H455 C439 0.961 . S
H456 C440 0.931 . S
H457 C445 0.930 . S
H458 C446 0.956 . S
H459 C446 0.961 . S
H460 C446 0.961 . S
H461 C447 0.958 . S
H462 C447 0.961 . S
H463 C447 0.960 . S
C464 C465 1.391 . S
C464 C466 1.394 . S
C464 H480 0.931 . S
C465 C464 1.391 . S
C465 C469 1.376 . S
C466 C464 1.394 . S
C466 C467 1.369 . S
C466 C470 1.531 . S
C467 C466 1.369 . S
C467 C468 1.410 . S
C467 C475 1.503 . S
C468 C467 1.410 . S
C468 C469 1.392 . S
C468 C471 1.511 . S
C469 C465 1.376 . S
C469 C468 1.392 . S
C469 H481 0.929 . S
C470 C466 1.531 . S
C470 H482 0.960 . S
C470 H483 0.962 . S
C470 H484 0.960 . S
C471 C468 1.511 . S
C471 H485 0.961 . S
C471 H486 0.961 . S
C471 H487 0.961 . S
C472 C473 1.370 . S
C472 C474 1.363 . S
C472 H488 0.931 . S
C473 C472 1.370 . S
C473 C477 1.408 . S
C474 C472 1.363 . S
C474 C475 1.370 . S
C474 C478 1.524 . S
C475 C467 1.503 . S
C475 C474 1.370 . S
C475 C476 1.403 . S
C476 C475 1.403 . S
C476 C477 1.404 . S
C476 C479 1.539 . S
C477 C473 1.408 . S
C477 C476 1.404 . S
C477 H489 0.930 . S
C478 C474 1.524 . S
C478 H490 0.956 . S
C478 H491 0.961 . S
C478 H492 0.961 . S
C479 C476 1.539 . S
C479 H493 0.958 . S
C479 H494 0.961 . S
C479 H495 0.960 . S
H480 C464 0.931 . S
H481 C469 0.929 . S
H482 C470 0.960 . S
H483 C470 0.962 . S
H484 C470 0.960 . S
H485 C471 0.961 . S
H486 C471 0.961 . S
H487 C471 0.961 . S
H488 C472 0.931 . S
H489 C477 0.930 . S
H490 C478 0.956 . S
H491 C478 0.961 . S
H492 C478 0.961 . S
H493 C479 0.958 . S
H494 C479 0.961 . S
H495 C479 0.960 . S
C496 C497 1.391 . S
C496 C498 1.394 . S
C496 H512 0.931 . S
C497 C496 1.391 . S
C497 C501 1.376 . S
C498 C496 1.394 . S
C498 C499 1.369 . S
C498 C502 1.531 . S
C499 C498 1.369 . S
C499 C500 1.410 . S
C499 C507 1.503 . S
C500 C499 1.410 . S
C500 C501 1.392 . S
C500 C503 1.511 . S
C501 C497 1.376 . S
C501 C500 1.392 . S
C501 H513 0.929 . S
C502 C498 1.531 . S
C502 H514 0.960 . S
C502 H515 0.962 . S
C502 H516 0.960 . S
C503 C500 1.511 . S
C503 H517 0.961 . S
C503 H518 0.961 . S
C503 H519 0.961 . S
C504 C505 1.370 . S
C504 C506 1.363 . S
C504 H520 0.931 . S
C505 C504 1.370 . S
C505 C509 1.408 . S
C506 C504 1.363 . S
C506 C507 1.370 . S
C506 C510 1.524 . S
C507 C499 1.503 . S
C507 C506 1.370 . S
C507 C508 1.403 . S
C508 C507 1.403 . S
C508 C509 1.404 . S
C508 C511 1.539 . S
C509 C505 1.408 . S
C509 C508 1.404 . S
C509 H521 0.930 . S
C510 C506 1.524 . S
C510 H522 0.956 . S
C510 H523 0.961 . S
C510 H524 0.961 . S
C511 C508 1.539 . S
C511 H525 0.958 . S
C511 H526 0.961 . S
C511 H527 0.960 . S
H512 C496 0.931 . S
H513 C501 0.929 . S
H514 C502 0.960 . S
H515 C502 0.962 . S
H516 C502 0.960 . S
H517 C503 0.961 . S
H518 C503 0.961 . S
H519 C503 0.961 . S
H520 C504 0.931 . S
H521 C509 0.930 . S
H522 C510 0.956 . S
H523 C510 0.961 . S
H524 C510 0.961 . S
H525 C511 0.958 . S
H526 C511 0.961 . S
H527 C511 0.960 . S
C528 C529 1.391 . S
C528 C530 1.394 . S
C528 H544 0.931 . S
C529 C528 1.391 . S
C529 C533 1.376 . S
C530 C528 1.394 . S
C530 C531 1.369 . S
C530 C534 1.531 . S
C531 C530 1.369 . S
C531 C532 1.410 . S
C531 C539 1.503 . S
C532 C531 1.410 . S
C532 C533 1.392 . S
C532 C535 1.511 . S
C533 C529 1.376 . S
C533 C532 1.392 . S
C533 H545 0.929 . S
C534 C530 1.531 . S
C534 H546 0.960 . S
C534 H547 0.962 . S
C534 H548 0.960 . S
C535 C532 1.511 . S
C535 H549 0.961 . S
C535 H550 0.961 . S
C535 H551 0.961 . S
C536 C537 1.370 . S
C536 C538 1.363 . S
C536 H552 0.931 . S
C537 C536 1.370 . S
C537 C541 1.408 . S
C538 C536 1.363 . S
C538 C539 1.370 . S
C538 C542 1.524 . S
C539 C531 1.503 . S
C539 C538 1.370 . S
C539 C540 1.403 . S
C540 C539 1.403 . S
C540 C541 1.404 . S
C540 C543 1.539 . S
C541 C537 1.408 . S
C541 C540 1.404 . S
C541 H553 0.930 . S
C542 C538 1.524 . S
C542 H554 0.956 . S
C542 H555 0.961 . S
C542 H556 0.961 . S
C543 C540 1.539 . S
C543 H557 0.958 . S
C543 H558 0.961 . S
C543 H559 0.960 . S
H544 C528 0.931 . S
H545 C533 0.929 . S
H546 C534 0.960 . S
H547 C534 0.962 . S
H548 C534 0.960 . S
H549 C535 0.961 . S
H550 C535 0.961 . S
H551 C535 0.961 . S
H552 C536 0.931 . S
H553 C541 0.930 . S
H554 C542 0.956 . S
H555 C542 0.961 . S
H556 C542 0.961 . S
H557 C543 0.958 . S
H558 C543 0.961 . S
H559 C543 0.960 . S
C560 C561 1.391 . S
C560 C562 1.394 . S
C560 H576 0.931 . S
C561 C560 1.391 . S
C561 C565 1.376 . S
C562 C560 1.394 . S
C562 C563 1.369 . S
C562 C566 1.531 . S
C563 C562 1.369 . S
C563 C564 1.410 . S
C563 C571 1.503 . S
C564 C563 1.410 . S
C564 C565 1.392 . S
C564 C567 1.511 . S
C565 C561 1.376 . S
C565 C564 1.392 . S
C565 H577 0.929 . S
C566 C562 1.531 . S
C566 H578 0.960 . S
C566 H579 0.962 . S
C566 H580 0.960 . S
C567 C564 1.511 . S
C567 H581 0.961 . S
C567 H582 0.961 . S
C567 H583 0.961 . S
C568 C569 1.370 . S
C568 C570 1.363 . S
C568 H584 0.931 . S
C569 C568 1.370 . S
C569 C573 1.408 . S
C570 C568 1.363 . S
C570 C571 1.370 . S
C570 C574 1.524 . S
C571 C563 1.503 . S
C571 C570 1.370 . S
C571 C572 1.403 . S
C572 C571 1.403 . S
C572 C573 1.404 . S
C572 C575 1.539 . S
C573 C569 1.408 . S
C573 C572 1.404 . S
C573 H585 0.930 . S
C574 C570 1.524 . S
C574 H586 0.956 . S
C574 H587 0.961 . S
C574 H588 0.961 . S
C575 C572 1.539 . S
C575 H589 0.958 . S
C575 H590 0.961 . S
C575 H591 0.960 . S
H576 C560 0.931 . S
H577 C565 0.929 . S
H578 C566 0.960 . S
H579 C566 0.962 . S
H580 C566 0.960 . S
H581 C567 0.961 . S
H582 C567 0.961 . S
H583 C567 0.961 . S
H584 C568 0.931 . S
H585 C573 0.930 . S
H586 C574 0.956 . S
H587 C574 0.961 . S
H588 C574 0.961 . S
H589 C575 0.958 . S
H590 C575 0.961 . S
H591 C575 0.960 . S
C592 C593 1.391 . S
C592 C594 1.394 . S
C592 H608 0.931 . S
C593 C592 1.391 . S
C593 C597 1.376 . S
C594 C592 1.394 . S
C594 C595 1.369 . S
C594 C598 1.531 . S
C595 C594 1.369 . S
C595 C596 1.410 . S
C595 C603 1.503 1_455 S
C596 C595 1.410 . S
C596 C597 1.392 . S
C596 C599 1.511 . S
C597 C593 1.376 . S
C597 C596 1.392 . S
C597 H609 0.929 . S
C598 C594 1.531 . S
C598 H610 0.960 1_455 S
C598 H611 0.962 . S
C598 H612 0.960 . S
C599 C596 1.511 . S
C599 H613 0.961 . S
C599 H614 0.961 1_455 S
C599 H615 0.961 . S
C600 C601 1.370 . S
C600 C602 1.363 . S
C600 H616 0.931 . S
C601 C600 1.370 . S
C601 C605 1.408 . S
C602 C600 1.363 . S
C602 C603 1.370 . S
C602 C606 1.524 . S
C603 C595 1.503 1_655 S
C603 C602 1.370 . S
C603 C604 1.403 . S
C604 C603 1.403 . S
C604 C605 1.404 . S
C604 C607 1.539 . S
C605 C601 1.408 . S
C605 C604 1.404 . S
C605 H617 0.930 . S
C606 C602 1.524 . S
C606 H618 0.970 . S
C606 H619 0.961 1_655 S
C606 H620 0.961 . S
C607 C604 1.539 . S
C607 H621 0.958 . S
C607 H622 0.961 . S
C607 H623 0.960 1_655 S
H608 C592 0.931 . S
H609 C597 0.929 . S
H610 C598 0.960 1_655 S
H611 C598 0.962 . S
H612 C598 0.960 . S
H613 C599 0.961 . S
H614 C599 0.961 1_655 S
H615 C599 0.961 . S
H616 C600 0.931 . S
H617 C605 0.930 . S
H618 C606 0.970 . S
H619 C606 0.961 1_455 S
H620 C606 0.961 . S
H621 C607 0.958 . S
H622 C607 0.961 . S
H623 C607 0.960 1_455 S
C624 C625 1.391 . S
C624 C626 1.394 . S
C624 H640 0.931 . S
C625 C624 1.391 . S
C625 C629 1.376 . S
C626 C624 1.394 . S
C626 C627 1.369 . S
C626 C630 1.531 . S
C627 C626 1.369 . S
C627 C628 1.410 . S
C627 C635 1.503 . S
C628 C627 1.410 . S
C628 C629 1.392 . S
C628 C631 1.511 . S
C629 C625 1.376 . S
C629 C628 1.392 . S
C629 H641 0.929 . S
C630 C626 1.531 . S
C630 H642 0.960 . S
C630 H643 0.962 . S
C630 H644 0.960 . S
C631 C628 1.511 . S
C631 H645 0.961 . S
C631 H646 0.961 . S
C631 H647 0.961 . S
C632 C633 1.370 . S
C632 C634 1.363 . S
C632 H648 0.931 . S
C633 C632 1.370 . S
C633 C637 1.408 . S
C634 C632 1.363 . S
C634 C635 1.370 . S
C634 C638 1.524 . S
C635 C627 1.503 . S
C635 C634 1.370 . S
C635 C636 1.403 . S
C636 C635 1.403 . S
C636 C637 1.404 . S
C636 C639 1.539 . S
C637 C633 1.408 . S
C637 C636 1.404 . S
C637 H649 0.930 . S
C638 C634 1.524 . S
C638 H650 0.956 . S
C638 H651 0.961 . S
C638 H652 0.961 . S
C639 C636 1.539 . S
C639 H653 0.958 . S
C639 H654 0.961 . S
C639 H655 0.960 . S
H640 C624 0.931 . S
H641 C629 0.929 . S
H642 C630 0.960 . S
H643 C630 0.962 . S
H644 C630 0.960 . S
H645 C631 0.961 . S
H646 C631 0.961 . S
H647 C631 0.961 . S
H648 C632 0.931 . S
H649 C637 0.930 . S
H650 C638 0.956 . S
H651 C638 0.961 . S
H652 C638 0.961 . S
H653 C639 0.958 . S
H654 C639 0.961 . S
H655 C639 0.960 . S
C656 C657 1.391 . S
C656 C658 1.394 . S
C656 H672 0.931 . S
C657 C656 1.391 . S
C657 C661 1.376 . S
C658 C656 1.394 . S
C658 C659 1.369 . S
C658 C662 1.531 . S
C659 C658 1.369 . S
C659 C660 1.410 . S
C659 C667 1.503 . S
C660 C659 1.410 . S
C660 C661 1.392 . S
C660 C663 1.511 . S
C661 C657 1.376 . S
C661 C660 1.392 . S
C661 H673 0.929 . S
C662 C658 1.531 . S
C662 H674 0.960 . S
C662 H675 0.962 . S
C662 H676 0.960 . S
C663 C660 1.511 . S
C663 H677 0.961 . S
C663 H678 0.961 . S
C663 H679 0.961 . S
C664 C665 1.370 . S
C664 C666 1.363 . S
C664 H680 0.931 . S
C665 C664 1.370 . S
C665 C669 1.408 . S
C666 C664 1.363 . S
C666 C667 1.370 . S
C666 C670 1.524 . S
C667 C659 1.503 . S
C667 C666 1.370 . S
C667 C668 1.403 . S
C668 C667 1.403 . S
C668 C669 1.404 . S
C668 C671 1.539 . S
C669 C665 1.408 . S
C669 C668 1.404 . S
C669 H681 0.930 . S
C670 C666 1.524 . S
C670 H682 0.956 . S
C670 H683 0.961 . S
C670 H684 0.961 . S
C671 C668 1.539 . S
C671 H685 0.958 . S
C671 H686 0.961 . S
C671 H687 0.960 . S
H672 C656 0.931 . S
H673 C661 0.929 . S
H674 C662 0.960 . S
H675 C662 0.962 . S
H676 C662 0.960 . S
H677 C663 0.961 . S
H678 C663 0.961 . S
H679 C663 0.961 . S
H680 C664 0.931 . S
H681 C669 0.930 . S
H682 C670 0.956 . S
H683 C670 0.961 . S
H684 C670 0.961 . S
H685 C671 0.958 . S
H686 C671 0.961 . S
H687 C671 0.960 . S
C688 C689 1.391 . S
C688 C690 1.394 . S
C688 H704 0.931 . S
C689 C688 1.391 . S
C689 C693 1.376 . S
C690 C688 1.394 . S
C690 C691 1.369 . S
C690 C694 1.531 . S
C691 C690 1.369 . S
C691 C692 1.410 . S
C691 C699 1.503 1_455 S
C692 C691 1.410 . S
C692 C693 1.392 . S
C692 C695 1.511 . S
C693 C689 1.376 . S
C693 C692 1.392 . S
C693 H705 0.929 . S
C694 C690 1.531 . S
C694 H706 0.960 1_455 S
C694 H707 0.962 . S
C694 H708 0.960 . S
C695 C692 1.511 . S
C695 H709 0.961 . S
C695 H710 0.961 1_455 S
C695 H711 0.961 . S
C696 C697 1.370 . S
C696 C698 1.363 . S
C696 H712 0.931 . S
C697 C696 1.370 . S
C697 C701 1.408 . S
C698 C696 1.363 . S
C698 C699 1.370 . S
C698 C702 1.524 . S
C699 C691 1.503 1_655 S
C699 C698 1.370 . S
C699 C700 1.403 . S
C700 C699 1.403 . S
C700 C701 1.404 . S
C700 C703 1.539 . S
C701 C697 1.408 . S
C701 C700 1.404 . S
C701 H713 0.930 . S
C702 C698 1.524 . S
C702 H714 0.956 . S
C702 H715 0.961 1_655 S
C702 H716 0.961 . S
C703 C700 1.539 . S
C703 H717 0.958 . S
C703 H718 0.961 . S
C703 H719 0.969 . S
H704 C688 0.931 . S
H705 C693 0.929 . S
H706 C694 0.960 1_655 S
H707 C694 0.962 . S
H708 C694 0.960 . S
H709 C695 0.961 . S
H710 C695 0.961 1_655 S
H711 C695 0.961 . S
H712 C696 0.931 . S
H713 C701 0.930 . S
H714 C702 0.956 . S
H715 C702 0.961 1_455 S
H716 C702 0.961 . S
H717 C703 0.958 . S
H718 C703 0.961 . S
H719 C703 0.969 . S
C720 C721 1.391 . S
C720 C722 1.394 . S
C720 H736 0.931 . S
C721 C720 1.391 . S
C721 C725 1.376 . S
C722 C720 1.394 . S
C722 C723 1.369 . S
C722 C726 1.531 1_554 S
C723 C722 1.369 . S
C723 C724 1.410 . S
C723 C731 1.503 1_554 S
C724 C723 1.410 . S
C724 C725 1.392 . S
C724 C727 1.511 . S
C725 C721 1.376 . S
C725 C724 1.392 . S
C725 H737 0.929 . S
C726 C722 1.531 1_556 S
C726 H738 0.960 . S
C726 H739 0.962 . S
C726 H740 0.960 . S
C727 C724 1.511 . S
C727 H741 0.961 . S
C727 H742 0.961 . S
C727 H743 0.961 . S
C728 C729 1.370 . S
C728 C730 1.363 . S
C728 H744 0.931 . S
C729 C728 1.370 . S
C729 C733 1.408 . S
C730 C728 1.363 . S
C730 C731 1.370 . S
C730 C734 1.524 1_556 S
C731 C723 1.503 1_556 S
C731 C730 1.370 . S
C731 C732 1.403 . S
C732 C731 1.403 . S
C732 C733 1.404 . S
C732 C735 1.539 . S
C733 C729 1.408 . S
C733 C732 1.404 . S
C733 H745 0.930 . S
C734 C730 1.524 1_554 S
C734 H746 0.956 . S
C734 H747 0.961 . S
C734 H748 0.961 . S
C735 C732 1.539 . S
C735 H749 0.958 . S
C735 H750 0.961 . S
C735 H751 0.960 . S
H736 C720 0.931 . S
H737 C725 0.929 . S
H738 C726 0.960 . S
H739 C726 0.962 . S
H740 C726 0.960 . S
H741 C727 0.961 . S
H742 C727 0.961 . S
H743 C727 0.961 . S
H744 C728 0.931 . S
H745 C733 0.930 . S
H746 C734 0.956 . S
H747 C734 0.961 . S
H748 C734 0.961 . S
H749 C735 0.958 . S
H750 C735 0.961 . S
H751 C735 0.960 . S
C752 C753 1.391 . S
C752 C754 1.394 . S
C752 H768 0.931 . S
C753 C752 1.391 . S
C753 C757 1.376 . S
C754 C752 1.394 . S
C754 C755 1.369 . S
C754 C758 1.531 . S
C755 C754 1.369 . S
C755 C756 1.410 . S
C755 C763 1.503 . S
C756 C755 1.410 . S
C756 C757 1.392 . S
C756 C759 1.511 . S
C757 C753 1.376 . S
C757 C756 1.392 . S
C757 H769 0.929 . S
C758 C754 1.531 . S
C758 H770 0.960 . S
C758 H771 0.962 . S
C758 H772 0.960 . S
C759 C756 1.511 . S
C759 H773 0.961 . S
C759 H774 0.961 . S
C759 H775 0.961 . S
C760 C761 1.370 . S
C760 C762 1.363 . S
C760 H776 0.931 . S
C761 C760 1.370 . S
C761 C765 1.408 . S
C762 C760 1.363 . S
C762 C763 1.370 . S
C762 C766 1.524 . S
C763 C755 1.503 . S
C763 C762 1.370 . S
C763 C764 1.403 . S
C764 C763 1.403 . S
C764 C765 1.404 . S
C764 C767 1.539 . S
C765 C761 1.408 . S
C765 C764 1.404 . S
C765 H777 0.930 . S
C766 C762 1.524 . S
C766 H778 0.956 . S
C766 H779 0.961 . S
C766 H780 0.961 . S
C767 C764 1.539 . S
C767 H781 0.958 . S
C767 H782 0.961 . S
C767 H783 0.960 . S
H768 C752 0.931 . S
H769 C757 0.929 . S
H770 C758 0.960 . S
H771 C758 0.962 . S
H772 C758 0.960 . S
H773 C759 0.961 . S
H774 C759 0.961 . S
H775 C759 0.961 . S
H776 C760 0.931 . S
H777 C765 0.930 . S
H778 C766 0.956 . S
H779 C766 0.961 . S
H780 C766 0.961 . S
H781 C767 0.958 . S
H782 C767 0.961 . S
H783 C767 0.960 . S
C784 C785 1.391 . S
C784 C786 1.394 . S
C784 H800 0.931 . S
C785 C784 1.391 . S
C785 C789 1.376 . S
C786 C784 1.394 . S
C786 C787 1.369 . S
C786 C790 1.531 . S
C787 C786 1.369 . S
C787 C788 1.410 . S
C787 C795 1.503 . S
C788 C787 1.410 . S
C788 C789 1.392 . S
C788 C791 1.511 . S
C789 C785 1.376 . S
C789 C788 1.392 . S
C789 H801 0.929 . S
C790 C786 1.531 . S
C790 H802 0.960 . S
C790 H803 0.962 . S
C790 H804 0.960 . S
C791 C788 1.511 . S
C791 H805 0.961 . S
C791 H806 0.961 . S
C791 H807 0.961 . S
C792 C793 1.370 . S
C792 C794 1.363 . S
C792 H808 0.931 . S
C793 C792 1.370 . S
C793 C797 1.408 . S
C794 C792 1.363 . S
C794 C795 1.370 . S
C794 C798 1.524 . S
C795 C787 1.503 . S
C795 C794 1.370 . S
C795 C796 1.403 . S
C796 C795 1.403 . S
C796 C797 1.404 . S
C796 C799 1.539 . S
C797 C793 1.408 . S
C797 C796 1.404 . S
C797 H809 0.930 . S
C798 C794 1.524 . S
C798 H810 0.956 . S
C798 H811 0.961 . S
C798 H812 0.961 . S
C799 C796 1.539 . S
C799 H813 0.958 . S
C799 H814 0.961 . S
C799 H815 0.960 . S
H800 C784 0.931 . S
H801 C789 0.929 . S
H802 C790 0.960 . S
H803 C790 0.962 . S
H804 C790 0.960 . S
H805 C791 0.961 . S
H806 C791 0.961 . S
H807 C791 0.961 . S
H808 C792 0.931 . S
H809 C797 0.930 . S
H810 C798 0.956 . S
H811 C798 0.961 . S
H812 C798 0.961 . S
H813 C799 0.958 . S
H814 C799 0.961 . S
H815 C799 0.960 . S
C816 C817 1.391 . S
C816 C818 1.394 . S
C816 H832 0.931 . S
C817 C816 1.391 . S
C817 C821 1.376 . S
C818 C816 1.394 . S
C818 C819 1.369 . S
C818 C822 1.531 . S
C819 C818 1.369 . S
C819 C820 1.410 . S
C819 C827 1.503 . S
C820 C819 1.410 . S
C820 C821 1.392 . S
C820 C823 1.511 . S
C821 C817 1.376 . S
C821 C820 1.392 . S
C821 H833 0.929 . S
C822 C818 1.531 . S
C822 H834 0.960 . S
C822 H835 0.962 . S
C822 H836 0.960 . S
C823 C820 1.511 . S
C823 H837 0.961 . S
C823 H838 0.961 . S
C823 H839 0.961 . S
C824 C825 1.370 . S
C824 C826 1.363 . S
C824 H840 0.931 . S
C825 C824 1.370 . S
C825 C829 1.408 . S
C826 C824 1.363 . S
C826 C827 1.370 . S
C826 C830 1.524 . S
C827 C819 1.503 . S
C827 C826 1.370 . S
C827 C828 1.403 . S
C828 C827 1.403 . S
C828 C829 1.404 . S
C828 C831 1.539 . S
C829 C825 1.408 . S
C829 C828 1.404 . S
C829 H841 0.930 . S
C830 C826 1.524 . S
C830 H842 0.956 . S
C830 H843 0.961 . S
C830 H844 0.961 . S
C831 C828 1.539 . S
C831 H845 0.958 . S
C831 H846 0.961 . S
C831 H847 0.960 . S
H832 C816 0.931 . S
H833 C821 0.929 . S
H834 C822 0.960 . S
H835 C822 0.962 . S
H836 C822 0.960 . S
H837 C823 0.961 . S
H838 C823 0.961 . S
H839 C823 0.961 . S
H840 C824 0.931 . S
H841 C829 0.930 . S
H842 C830 0.956 . S
H843 C830 0.961 . S
H844 C830 0.961 . S
H845 C831 0.958 . S
H846 C831 0.961 . S
H847 C831 0.960 . S
C848 C849 1.391 . S
C848 C850 1.394 . S
C848 H864 0.931 . S
C849 C848 1.391 . S
C849 C853 1.376 . S
C850 C848 1.394 . S
C850 C851 1.369 . S
C850 C854 1.531 1_556 S
C851 C850 1.369 . S
C851 C852 1.410 . S
C851 C859 1.503 1_556 S
C852 C851 1.410 . S
C852 C853 1.392 . S
C852 C855 1.511 . S
C853 C849 1.376 . S
C853 C852 1.392 . S
C853 H865 0.929 . S
C854 C850 1.531 1_554 S
C854 H866 0.960 . S
C854 H867 0.962 . S
C854 H868 0.960 . S
C855 C852 1.511 . S
C855 H869 0.961 . S
C855 H870 0.961 . S
C855 H871 0.961 . S
C856 C857 1.370 . S
C856 C858 1.363 . S
C856 H872 0.931 . S
C857 C856 1.370 . S
C857 C861 1.408 . S
C858 C856 1.363 . S
C858 C859 1.370 . S
C858 C862 1.524 1_554 S
C859 C851 1.503 1_554 S
C859 C858 1.370 . S
C859 C860 1.403 . S
C860 C859 1.403 . S
C860 C861 1.404 . S
C860 C863 1.539 . S
C861 C857 1.408 . S
C861 C860 1.404 . S
C861 H873 0.930 . S
C862 C858 1.524 1_556 S
C862 H874 0.956 . S
C862 H875 0.961 . S
C862 H876 0.961 . S
C863 C860 1.539 . S
C863 H877 0.958 . S
C863 H878 0.961 . S
C863 H879 0.960 . S
H864 C848 0.931 . S
H865 C853 0.929 . S
H866 C854 0.960 . S
H867 C854 0.962 . S
H868 C854 0.960 . S
H869 C855 0.961 . S
H870 C855 0.961 . S
H871 C855 0.961 . S
H872 C856 0.931 . S
H873 C861 0.930 . S
H874 C862 0.956 . S
H875 C862 0.961 . S
H876 C862 0.961 . S
H877 C863 0.958 . S
H878 C863 0.961 . S
H879 C863 0.960 . S
C880 C881 1.391 . S
C880 C882 1.394 . S
C880 H896 0.931 . S
C881 C880 1.391 . S
C881 C885 1.376 . S
C882 C880 1.394 . S
C882 C883 1.369 . S
C882 C886 1.531 . S
C883 C882 1.369 . S
C883 C884 1.410 . S
C883 C891 1.503 . S
C884 C883 1.410 . S
C884 C885 1.392 . S
C884 C887 1.511 . S
C885 C881 1.376 . S
C885 C884 1.392 . S
C885 H897 0.929 . S
C886 C882 1.531 . S
C886 H898 0.960 . S
C886 H899 0.962 . S
C886 H900 0.960 . S
C887 C884 1.511 . S
C887 H901 0.961 . S
C887 H902 0.961 . S
C887 H903 0.961 . S
C888 C889 1.370 . S
C888 C890 1.363 . S
C888 H904 0.931 . S
C889 C888 1.370 . S
C889 C893 1.408 . S
C890 C888 1.363 . S
C890 C891 1.370 . S
C890 C894 1.524 . S
C891 C883 1.503 . S
C891 C890 1.370 . S
C891 C892 1.403 . S
C892 C891 1.403 . S
C892 C893 1.404 . S
C892 C895 1.539 . S
C893 C889 1.408 . S
C893 C892 1.404 . S
C893 H905 0.930 . S
C894 C890 1.524 . S
C894 H906 0.956 . S
C894 H907 0.961 . S
C894 H908 0.961 . S
C895 C892 1.539 . S
C895 H909 0.958 . S
C895 H910 0.961 . S
C895 H911 0.960 . S
H896 C880 0.931 . S
H897 C885 0.929 . S
H898 C886 0.960 . S
H899 C886 0.962 . S
H900 C886 0.960 . S
H901 C887 0.961 . S
H902 C887 0.961 . S
H903 C887 0.961 . S
H904 C888 0.931 . S
H905 C893 0.930 . S
H906 C894 0.956 . S
H907 C894 0.961 . S
H908 C894 0.961 . S
H909 C895 0.958 . S
H910 C895 0.961 . S
H911 C895 0.960 . S
C912 C913 1.391 . S
C912 C914 1.394 . S
C912 H928 0.931 . S
C913 C912 1.391 . S
C913 C917 1.376 . S
C914 C912 1.394 . S
C914 C915 1.369 . S
C914 C918 1.531 . S
C915 C914 1.369 . S
C915 C916 1.410 . S
C915 C923 1.503 . S
C916 C915 1.410 . S
C916 C917 1.392 . S
C916 C919 1.511 . S
C917 C913 1.376 . S
C917 C916 1.392 . S
C917 H929 0.929 . S
C918 C914 1.531 . S
C918 H930 0.960 . S
C918 H931 0.962 . S
C918 H932 0.960 . S
C919 C916 1.511 . S
C919 H933 0.961 . S
C919 H934 0.961 . S
C919 H935 0.961 . S
C920 C921 1.370 . S
C920 C922 1.363 . S
C920 H936 0.931 . S
C921 C920 1.370 . S
C921 C925 1.408 . S
C922 C920 1.363 . S
C922 C923 1.370 . S
C922 C926 1.524 . S
C923 C915 1.503 . S
C923 C922 1.370 . S
C923 C924 1.403 . S
C924 C923 1.403 . S
C924 C925 1.404 . S
C924 C927 1.539 . S
C925 C921 1.408 . S
C925 C924 1.404 . S
C925 H937 0.930 . S
C926 C922 1.524 . S
C926 H938 0.956 . S
C926 H939 0.961 . S
C926 H940 0.961 . S
C927 C924 1.539 . S
C927 H941 0.958 . S
C927 H942 0.961 . S
C927 H943 0.960 . S
H928 C912 0.931 . S
H929 C917 0.929 . S
H930 C918 0.960 . S
H931 C918 0.962 . S
H932 C918 0.960 . S
H933 C919 0.961 . S
H934 C919 0.961 . S
H935 C919 0.961 . S
H936 C920 0.931 . S
H937 C925 0.930 . S
H938 C926 0.956 . S
H939 C926 0.961 . S
H940 C926 0.961 . S
H941 C927 0.958 . S
H942 C927 0.961 . S
H943 C927 0.960 . S
C944 C945 1.391 . S
C944 C946 1.394 . S
C944 H960 0.931 . S
C945 C944 1.391 . S
C945 C949 1.376 . S
C946 C944 1.394 . S
C946 C947 1.369 . S
C946 C950 1.531 . S
C947 C946 1.369 . S
C947 C948 1.410 . S
C947 C955 1.503 . S
C948 C947 1.410 . S
C948 C949 1.392 . S
C948 C951 1.511 . S
C949 C945 1.376 . S
C949 C948 1.392 . S
C949 H961 0.929 . S
C950 C946 1.531 . S
C950 H962 0.960 . S
C950 H963 0.962 . S
C950 H964 0.960 . S
C951 C948 1.511 . S
C951 H965 0.961 . S
C951 H966 0.961 . S
C951 H967 0.961 . S
C952 C953 1.370 . S
C952 C954 1.363 . S
C952 H968 0.931 . S
C953 C952 1.370 . S
C953 C957 1.408 . S
C954 C952 1.363 . S
C954 C955 1.370 . S
C954 C958 1.524 . S
C955 C947 1.503 . S
C955 C954 1.370 . S
C955 C956 1.403 . S
C956 C955 1.403 . S
C956 C957 1.404 . S
C956 C959 1.539 . S
C957 C953 1.408 . S
C957 C956 1.404 . S
C957 H969 0.930 . S
C958 C954 1.524 . S
C958 H970 0.956 . S
C958 H971 0.961 . S
C958 H972 0.961 . S
C959 C956 1.539 . S
C959 H973 0.958 . S
C959 H974 0.961 . S
C959 H975 0.960 . S
H960 C944 0.931 . S
H961 C949 0.929 . S
H962 C950 0.960 . S
H963 C950 0.962 . S
H964 C950 0.960 . S
H965 C951 0.961 . S
H966 C951 0.961 . S
H967 C951 0.961 . S
H968 C952 0.931 . S
H969 C957 0.930 . S
H970 C958 0.956 . S
H971 C958 0.961 . S
H972 C958 0.961 . S
H973 C959 0.958 . S
H974 C959 0.961 . S
H975 C959 0.960 . S
C976 C977 1.391 . S
C976 C978 1.394 . S
C976 H992 0.931 . S
C977 C976 1.391 . S
C977 C981 1.376 . S
C978 C976 1.394 . S
C978 C979 1.369 . S
C978 C982 1.531 1_545 S
C979 C978 1.369 . S
C979 C980 1.410 . S
C979 C987 1.503 1_545 S
C980 C979 1.410 . S
C980 C981 1.392 . S
C980 C983 1.511 . S
C981 C977 1.376 . S
C981 C980 1.392 . S
C981 H993 0.929 . S
C982 C978 1.531 1_565 S
C982 H994 0.960 . S
C982 H995 0.962 . S
C982 H996 0.960 . S
C983 C980 1.511 . S
C983 H997 0.961 . S
C983 H998 0.961 . S
C983 H999 0.961 . S
C984 C985 1.370 . S
C984 C986 1.363 . S
C984 H1000 0.931 . S
C985 C984 1.370 . S
C985 C989 1.408 . S
C986 C984 1.363 . S
C986 C987 1.370 . S
C986 C990 1.524 1_565 S
C987 C979 1.503 1_565 S
C987 C986 1.370 . S
C987 C988 1.403 . S
C988 C987 1.403 . S
C988 C989 1.404 . S
C988 C991 1.539 . S
C989 C985 1.408 . S
C989 C988 1.404 . S
C989 H1001 0.930 . S
C990 C986 1.524 1_545 S
C990 H1002 0.956 . S
C990 H1003 0.961 . S
C990 H1004 0.961 . S
C991 C988 1.539 . S
C991 H1005 0.958 . S
C991 H1006 0.961 . S
C991 H1007 0.960 . S
H992 C976 0.931 . S
H993 C981 0.929 . S
H994 C982 0.960 . S
H995 C982 0.962 . S
H996 C982 0.960 . S
H997 C983 0.961 . S
H998 C983 0.961 . S
H999 C983 0.961 . S
H1000 C984 0.931 . S
H1001 C989 0.930 . S
H1002 C990 0.956 . S
H1003 C990 0.961 . S
H1004 C990 0.961 . S
H1005 C991 0.958 . S
H1006 C991 0.961 . S
H1007 C991 0.960 . S
C1008 C1009 1.391 . S
C1008 C1010 1.394 . S
C1008 H1024 0.931 . S
C1009 C1008 1.391 . S
C1009 C1013 1.376 . S
C1010 C1008 1.394 . S
C1010 C1011 1.369 . S
C1010 C1014 1.531 . S
C1011 C1010 1.369 . S
C1011 C1012 1.410 . S
C1011 C1019 1.503 . S
C1012 C1011 1.410 . S
C1012 C1013 1.392 . S
C1012 C1015 1.511 . S
C1013 C1009 1.376 . S
C1013 C1012 1.392 . S
C1013 H1025 0.929 . S
C1014 C1010 1.531 . S
C1014 H1026 0.960 . S
C1014 H1027 0.962 . S
C1014 H1028 0.960 . S
C1015 C1012 1.511 . S
C1015 H1029 0.961 . S
C1015 H1030 0.961 . S
C1015 H1031 0.961 . S
C1016 C1017 1.370 . S
C1016 C1018 1.363 . S
C1016 H1032 0.931 . S
C1017 C1016 1.370 . S
C1017 C1021 1.408 . S
C1018 C1016 1.363 . S
C1018 C1019 1.370 . S
C1018 C1022 1.524 . S
C1019 C1011 1.503 . S
C1019 C1018 1.370 . S
C1019 C1020 1.403 . S
C1020 C1019 1.403 . S
C1020 C1021 1.404 . S
C1020 C1023 1.539 . S
C1021 C1017 1.408 . S
C1021 C1020 1.404 . S
C1021 H1033 0.930 . S
C1022 C1018 1.524 . S
C1022 H1034 0.956 . S
C1022 H1035 0.961 . S
C1022 H1036 0.961 . S
C1023 C1020 1.539 . S
C1023 H1037 0.958 . S
C1023 H1038 0.961 . S
C1023 H1039 0.960 . S
H1024 C1008 0.931 . S
H1025 C1013 0.929 . S
H1026 C1014 0.960 . S
H1027 C1014 0.962 . S
H1028 C1014 0.960 . S
H1029 C1015 0.961 . S
H1030 C1015 0.961 . S
H1031 C1015 0.961 . S
H1032 C1016 0.931 . S
H1033 C1021 0.930 . S
H1034 C1022 0.956 . S
H1035 C1022 0.961 . S
H1036 C1022 0.961 . S
H1037 C1023 0.958 . S
H1038 C1023 0.961 . S
H1039 C1023 0.960 . S
C1040 C1041 1.391 . S
C1040 C1042 1.394 . S
C1040 H1056 0.931 . S
C1041 C1040 1.391 . S
C1041 C1045 1.376 . S
C1042 C1040 1.394 . S
C1042 C1043 1.369 . S
C1042 C1046 1.531 . S
C1043 C1042 1.369 . S
C1043 C1044 1.410 . S
C1043 C1051 1.503 1_546 S
C1044 C1043 1.410 . S
C1044 C1045 1.392 . S
C1044 C1047 1.511 1_556 S
C1045 C1041 1.376 . S
C1045 C1044 1.392 . S
C1045 H1057 0.929 . S
C1046 C1042 1.531 . S
C1046 H1058 0.960 1_556 S
C1046 H1059 0.962 1_545 S
C1046 H1060 0.960 . S
C1047 C1044 1.511 1_554 S
C1047 H1061 0.961 1_554 S
C1047 H1062 0.961 . S
C1047 H1063 0.961 . S
C1048 C1049 1.370 . S
C1048 C1050 1.363 . S
C1048 H1064 0.931 . S
C1049 C1048 1.370 . S
C1049 C1053 1.408 . S
C1050 C1048 1.363 . S
C1050 C1051 1.370 . S
C1050 C1054 1.524 1_554 S
C1051 C1043 1.503 1_564 S
C1051 C1050 1.370 . S
C1051 C1052 1.403 . S
C1052 C1051 1.403 . S
C1052 C1053 1.404 . S
C1052 C1055 1.539 1_565 S
C1053 C1049 1.408 . S
C1053 C1052 1.404 . S
C1053 H1065 0.930 . S
C1054 C1050 1.524 1_556 S
C1054 H1066 0.956 . S
C1054 H1067 0.961 . S
C1054 H1068 0.961 . S
C1055 C1052 1.539 1_545 S
C1055 H1069 0.958 . S
C1055 H1070 0.961 . S
C1055 H1071 0.960 . S
H1056 C1040 0.931 . S
H1057 C1045 0.929 . S
H1058 C1046 0.960 1_554 S
H1059 C1046 0.962 1_565 S
H1060 C1046 0.960 . S
H1061 C1047 0.961 1_556 S
H1062 C1047 0.961 . S
H1063 C1047 0.961 . S
H1064 C1048 0.931 . S
H1065 C1053 0.930 . S
H1066 C1054 0.956 . S
H1067 C1054 0.961 . S
H1068 C1054 0.961 . S
H1069 C1055 0.958 . S
H1070 C1055 0.961 . S
H1071 C1055 0.960 . S
C1072 C1073 1.391 . S
C1072 C1074 1.394 . S
C1072 H1088 0.931 . S
C1073 C1072 1.391 . S
C1073 C1077 1.376 . S
C1074 C1072 1.394 . S
C1074 C1075 1.369 . S
C1074 C1078 1.531 . S
C1075 C1074 1.369 . S
C1075 C1076 1.410 . S
C1075 C1083 1.503 . S
C1076 C1075 1.410 . S
C1076 C1077 1.392 . S
C1076 C1079 1.511 . S
C1077 C1073 1.376 . S
C1077 C1076 1.392 . S
C1077 H1089 0.929 . S
C1078 C1074 1.531 . S
C1078 H1090 0.960 . S
C1078 H1091 0.962 . S
C1078 H1092 0.960 . S
C1079 C1076 1.511 . S
C1079 H1093 0.961 . S
C1079 H1094 0.961 . S
C1079 H1095 0.961 . S
C1080 C1081 1.370 . S
C1080 C1082 1.363 . S
C1080 H1096 0.931 . S
C1081 C1080 1.370 . S
C1081 C1085 1.408 . S
C1082 C1080 1.363 . S
C1082 C1083 1.370 . S
C1082 C1086 1.524 . S
C1083 C1075 1.503 . S
C1083 C1082 1.370 . S
C1083 C1084 1.403 . S
C1084 C1083 1.403 . S
C1084 C1085 1.404 . S
C1084 C1087 1.539 . S
C1085 C1081 1.408 . S
C1085 C1084 1.404 . S
C1085 H1097 0.930 . S
C1086 C1082 1.524 . S
C1086 H1098 0.956 . S
C1086 H1099 0.961 . S
C1086 H1100 0.961 . S
C1087 C1084 1.539 . S
C1087 H1101 0.958 . S
C1087 H1102 0.961 . S
C1087 H1103 0.960 . S
H1088 C1072 0.931 . S
H1089 C1077 0.929 . S
H1090 C1078 0.960 . S
H1091 C1078 0.962 . S
H1092 C1078 0.960 . S
H1093 C1079 0.961 . S
H1094 C1079 0.961 . S
H1095 C1079 0.961 . S
H1096 C1080 0.931 . S
H1097 C1085 0.930 . S
H1098 C1086 0.956 . S
H1099 C1086 0.961 . S
H1100 C1086 0.961 . S
H1101 C1087 0.958 . S
H1102 C1087 0.961 . S
H1103 C1087 0.960 . S
C1104 C1105 1.391 . S
C1104 C1106 1.394 . S
C1104 H1120 0.931 . S
C1105 C1104 1.391 . S
C1105 C1109 1.376 . S
C1106 C1104 1.394 . S
C1106 C1107 1.369 . S
C1106 C1110 1.531 . S
C1107 C1106 1.369 . S
C1107 C1108 1.410 . S
C1107 C1115 1.503 1_545 S
C1108 C1107 1.410 . S
C1108 C1109 1.392 . S
C1108 C1111 1.511 . S
C1109 C1105 1.376 . S
C1109 C1108 1.392 . S
C1109 H1121 0.929 . S
C1110 C1106 1.531 . S
C1110 H1122 0.960 . S
C1110 H1123 0.962 . S
C1110 H1124 0.960 . S
C1111 C1108 1.511 . S
C1111 H1125 0.961 . S
C1111 H1126 0.961 1_545 S
C1111 H1127 0.961 . S
C1112 C1113 1.370 . S
C1112 C1114 1.363 . S
C1112 H1128 0.931 . S
C1113 C1112 1.370 . S
C1113 C1117 1.408 . S
C1114 C1112 1.363 . S
C1114 C1115 1.370 . S
C1114 C1118 1.524 . S
C1115 C1107 1.503 1_565 S
C1115 C1114 1.370 . S
C1115 C1116 1.403 . S
C1116 C1115 1.403 . S
C1116 C1117 1.404 . S
C1116 C1119 1.539 1_565 S
C1117 C1113 1.408 . S
C1117 C1116 1.404 . S
C1117 H1129 0.930 . S
C1118 C1114 1.524 . S
C1118 H1130 0.956 . S
C1118 H1131 0.961 . S
C1118 H1132 0.961 . S
C1119 C1116 1.539 1_545 S
C1119 H1133 0.958 . S
C1119 H1134 0.961 . S
C1119 H1135 0.960 . S
H1120 C1104 0.931 . S
H1121 C1109 0.929 . S
H1122 C1110 0.960 . S
H1123 C1110 0.962 . S
H1124 C1110 0.960 . S
H1125 C1111 0.961 . S
H1126 C1111 0.961 1_565 S
H1127 C1111 0.961 . S
H1128 C1112 0.931 . S
H1129 C1117 0.930 . S
H1130 C1118 0.956 . S
H1131 C1118 0.961 . S
H1132 C1118 0.961 . S
H1133 C1119 0.958 . S
H1134 C1119 0.961 . S
H1135 C1119 0.960 . S
C1136 C1137 1.391 . S
C1136 C1138 1.394 . S
C1136 H1152 0.931 . S
C1137 C1136 1.391 . S
C1137 C1141 1.376 . S
C1138 C1136 1.394 . S
C1138 C1139 1.369 . S
C1138 C1142 1.531 . S
C1139 C1138 1.369 . S
C1139 C1140 1.410 . S
C1139 C1147 1.503 . S
C1140 C1139 1.410 . S
C1140 C1141 1.392 . S
C1140 C1143 1.511 . S
C1141 C1137 1.376 . S
C1141 C1140 1.392 . S
C1141 H1153 0.929 . S
C1142 C1138 1.531 . S
C1142 H1154 0.960 . S
C1142 H1155 0.962 . S
C1142 H1156 0.960 . S
C1143 C1140 1.511 . S
C1143 H1157 0.961 . S
C1143 H1158 0.961 . S
C1143 H1159 0.961 . S
C1144 C1145 1.370 . S
C1144 C1146 1.363 . S
C1144 H1160 0.931 . S
C1145 C1144 1.370 . S
C1145 C1149 1.408 . S
C1146 C1144 1.363 . S
C1146 C1147 1.370 . S
C1146 C1150 1.524 . S
C1147 C1139 1.503 . S
C1147 C1146 1.370 . S
C1147 C1148 1.403 . S
C1148 C1147 1.403 . S
C1148 C1149 1.404 . S
C1148 C1151 1.539 . S
C1149 C1145 1.408 . S
C1149 C1148 1.404 . S
C1149 H1161 0.930 . S
C1150 C1146 1.524 . S
C1150 H1162 0.956 . S
C1150 H1163 0.961 . S
C1150 H1164 0.961 . S
C1151 C1148 1.539 . S
C1151 H1165 0.958 . S
C1151 H1166 0.961 . S
C1151 H1167 0.960 . S
H1152 C1136 0.931 . S
H1153 C1141 0.929 . S
H1154 C1142 0.960 . S
H1155 C1142 0.962 . S
H1156 C1142 0.960 . S
H1157 C1143 0.961 . S
H1158 C1143 0.961 . S
H1159 C1143 0.961 . S
H1160 C1144 0.931 . S
H1161 C1149 0.930 . S
H1162 C1150 0.956 . S
H1163 C1150 0.961 . S
H1164 C1150 0.961 . S
H1165 C1151 0.958 . S
H1166 C1151 0.961 . S
H1167 C1151 0.960 . S
C1168 C1169 1.391 . S
C1168 C1170 1.394 . S
C1168 H1184 0.931 . S
C1169 C1168 1.391 . S
C1169 C1173 1.376 . S
C1170 C1168 1.394 . S
C1170 C1171 1.369 . S
C1170 C1174 1.531 . S
C1171 C1170 1.369 . S
C1171 C1172 1.410 . S
C1171 C1179 1.503 1_564 S
C1172 C1171 1.410 . S
C1172 C1173 1.392 . S
C1172 C1175 1.511 . S
C1173 C1169 1.376 . S
C1173 C1172 1.392 . S
C1173 H1185 0.929 . S
C1174 C1170 1.531 . S
C1174 H1186 0.960 1_565 S
C1174 H1187 0.962 1_554 S
C1174 H1188 0.960 . S
C1175 C1172 1.511 . S
C1175 H1189 0.961 . S
C1175 H1190 0.961 1_564 S
C1175 H1191 0.961 1_565 S
C1176 C1177 1.370 . S
C1176 C1178 1.363 . S
C1176 H1192 0.931 . S
C1177 C1176 1.370 . S
C1177 C1181 1.408 . S
C1178 C1176 1.363 . S
C1178 C1179 1.370 . S
C1178 C1182 1.524 1_545 S
C1179 C1171 1.503 1_546 S
C1179 C1178 1.370 . S
C1179 C1180 1.403 1_556 S
C1180 C1179 1.403 1_554 S
C1180 C1181 1.404 1_554 S
C1180 C1183 1.539 . S
C1181 C1177 1.408 . S
C1181 C1180 1.404 1_556 S
C1181 H1193 0.930 . S
C1182 C1178 1.524 1_565 S
C1182 H1194 0.956 . S
C1182 H1195 0.961 . S
C1182 H1196 0.961 . S
C1183 C1180 1.539 . S
C1183 H1197 0.958 . S
C1183 H1198 0.961 . S
C1183 H1199 0.960 . S
H1184 C1168 0.931 . S
H1185 C1173 0.929 . S
H1186 C1174 0.960 1_545 S
H1187 C1174 0.962 1_556 S
H1188 C1174 0.960 . S
H1189 C1175 0.961 . S
H1190 C1175 0.961 1_546 S
H1191 C1175 0.961 1_545 S
H1192 C1176 0.931 . S
H1193 C1181 0.930 . S
H1194 C1182 0.956 . S
H1195 C1182 0.961 . S
H1196 C1182 0.961 . S
H1197 C1183 0.958 . S
H1198 C1183 0.961 . S
H1199 C1183 0.960 . S
C1200 C1201 1.391 . S
C1200 C1202 1.394 . S
C1200 H1216 0.931 . S
C1201 C1200 1.391 . S
C1201 C1205 1.376 . S
C1202 C1200 1.394 . S
C1202 C1203 1.369 . S
C1202 C1206 1.531 . S
C1203 C1202 1.369 . S
C1203 C1204 1.410 . S
C1203 C1211 1.503 . S
C1204 C1203 1.410 . S
C1204 C1205 1.392 . S
C1204 C1207 1.511 . S
C1205 C1201 1.376 . S
C1205 C1204 1.392 . S
C1205 H1217 0.929 . S
C1206 C1202 1.531 . S
C1206 H1218 0.960 . S
C1206 H1219 0.962 . S
C1206 H1220 0.960 . S
C1207 C1204 1.511 . S
C1207 H1221 0.961 . S
C1207 H1222 0.961 . S
C1207 H1223 0.961 . S
C1208 C1209 1.370 . S
C1208 C1210 1.363 . S
C1208 H1224 0.931 . S
C1209 C1208 1.370 . S
C1209 C1213 1.408 . S
C1210 C1208 1.363 . S
C1210 C1211 1.370 . S
C1210 C1214 1.524 . S
C1211 C1203 1.503 . S
C1211 C1210 1.370 . S
C1211 C1212 1.403 . S
C1212 C1211 1.403 . S
C1212 C1213 1.404 . S
C1212 C1215 1.539 . S
C1213 C1209 1.408 . S
C1213 C1212 1.404 . S
C1213 H1225 0.930 . S
C1214 C1210 1.524 . S
C1214 H1226 0.956 . S
C1214 H1227 0.961 . S
C1214 H1228 0.961 . S
C1215 C1212 1.539 . S
C1215 H1229 0.958 . S
C1215 H1230 0.961 . S
C1215 H1231 0.960 . S
H1216 C1200 0.931 . S
H1217 C1205 0.929 . S
H1218 C1206 0.960 . S
H1219 C1206 0.962 . S
H1220 C1206 0.960 . S
H1221 C1207 0.961 . S
H1222 C1207 0.961 . S
H1223 C1207 0.961 . S
H1224 C1208 0.931 . S
H1225 C1213 0.930 . S
H1226 C1214 0.956 . S
H1227 C1214 0.961 . S
H1228 C1214 0.961 . S
H1229 C1215 0.958 . S
H1230 C1215 0.961 . S
H1231 C1215 0.960 . S
C209 C148 1.456 . S
C217 C4 1.469 . S
C241 C199 1.469 . S
C249 C18 1.472 . S
C273 C29 1.466 . S
C281 C127 1.473 . S
C305 C179 1.456 . S
C313 C49 1.465 . S
C337 C62 1.467 . S
C345 C174 1.471 . S
C369 C70 1.472 . S
C377 C153 1.478 . S
C401 C81 1.478 . S
C409 C198 1.482 . S
C433 C101 1.467 . S
C441 C122 1.472 . S
C465 C44 1.464 . S
C473 C107 1.473 . S
C497 C135 1.465 . S
C505 C23 1.475 . S
C529 C160 1.456 . S
C537 C75 1.464 . S
C561 C187 1.464 . S
C569 C96 1.472 . S
C593 C57 1.465 . S
C601 C108 1.472 . S
C625 C140 1.460 . S
C633 C82 1.469 . S
C657 C192 1.477 . S
C665 C30 1.476 . S
C689 C3 1.474 . S
C697 C159 1.479 . S
C721 C5 1.403 . S
C729 C55 1.400 . S
C753 C17 1.371 . S
C761 C69 1.378 . S
C785 C36 1.377 . S
C793 C88 1.386 . S
C817 C94 1.385 . S
C825 C42 1.394 . S
C849 C114 1.382 . S
C857 C161 1.384 . S
C881 C172 1.387 . S
C889 C121 1.391 . S
C913 C134 1.382 . S
C921 C186 1.387 . S
C945 C200 1.392 . S
C953 C146 1.398 . S
C977 C95 1.381 . S
C985 C16 1.391 . S
C1009 C31 1.385 . S
C1017 C56 1.392 . S
C1041 C43 1.394 . S
C1049 C68 1.395 . S
C1073 C10 1.385 . S
C1081 C83 1.389 . S
C1105 C120 1.394 . S
C1113 C205 1.392 . S
C1137 C166 1.385 . S
C1145 C133 1.394 . S
C1169 C147 1.376 . S
C1177 C173 1.384 . S
C1201 C185 1.382 . S
C1209 C109 1.391 . S
