# Generated by pormake.
# Topology sxb, (6)-cn, num edge types: 1
# Building blocks:
#     Node 0, Type 0, BuildingBlock: JUFBIX_clean_sbu_0, # of connection points: 6
#     Node 1, Type 0, BuildingBlock: JUFBIX_clean_sbu_0, # of connection points: 6
#     Node 2, Type 0, BuildingBlock: JUFBIX_clean_sbu_0, # of connection points: 6
#     Node 3, Type 0, BuildingBlock: JUFBIX_clean_sbu_0, # of connection points: 6
#     Edge 4, Type (0, 0), BuildingBlock: EZIPEK_clean_linker_0, # of connection points: 2
#     Edge 5, Type (0, 0), BuildingBlock: EZIPEK_clean_linker_0, # of connection points: 2
#     Edge 6, Type (0, 0), BuildingBlock: EZIPEK_clean_linker_0, # of connection points: 2
#     Edge 7, Type (0, 0), BuildingBlock: EZIPEK_clean_linker_0, # of connection points: 2
#     Edge 8, Type (0, 0), BuildingBlock: EZIPEK_clean_linker_0, # of connection points: 2
#     Edge 9, Type (0, 0), BuildingBlock: EZIPEK_clean_linker_0, # of connection points: 2
#     Edge 10, Type (0, 0), BuildingBlock: EZIPEK_clean_linker_0, # of connection points: 2
#     Edge 11, Type (0, 0), BuildingBlock: EZIPEK_clean_linker_0, # of connection points: 2
#     Edge 12, Type (0, 0), BuildingBlock: EZIPEK_clean_linker_0, # of connection points: 2
#     Edge 13, Type (0, 0), BuildingBlock: EZIPEK_clean_linker_0, # of connection points: 2
#     Edge 14, Type (0, 0), BuildingBlock: EZIPEK_clean_linker_0, # of connection points: 2
#     Edge 15, Type (0, 0), BuildingBlock: EZIPEK_clean_linker_0, # of connection points: 2
# Relax obj value: 0.039
# Max RMSD: 0.066
# Mean RMSD: 0.066
data_MOF--net-sxb--node1-JUFBIX_clean_sbu_0--edge1-EZIPEK_clean_linker_0
_symmetry_space_group_name_H-M    P1
_symmetry_Int_Tables_number       1
_symmetry_cell_setting            triclinic
loop_
_symmetry_equiv_pos_as_xyz
'x, y, z'
_cell_length_a     10.82777
_cell_length_b     28.954648
_cell_length_c     21.725623
_cell_angle_alpha  90.327744
_cell_angle_beta   94.367655
_cell_angle_gamma 90.106414
loop_
_atom_site_label
_atom_site_type_symbol
_atom_site_fract_x
_atom_site_fract_y
_atom_site_fract_z
_atom_type_partial_charge
Co0 Co -0.02534 1.01782 0.01227 0.0
C1 C -0.01827 0.06526 0.12476 0.0
Co2 Co 0.97012 0.09412 1.0038 0.0
C3 C 0.07782 0.92625 1.00199 0.0
C4 C 0.9207 0.92684 0.05621 0.0
N5 N -0.01026 0.95433 0.02226 0.0
N6 N 0.0665 0.88266 0.0223 0.0
C7 C 0.96781 0.88266 0.05628 0.0
H8 H 0.15112 0.93769 0.97444 0.0
H9 H 0.84345 0.9385 0.08096 0.0
C10 C 0.96301 1.04656 0.8913 0.0
N11 N 0.95506 0.15759 0.99363 0.0
C12 C 0.86887 0.18602 0.01496 0.0
C13 C 0.02075 0.18447 0.95732 0.0
N14 N 0.87791 0.22922 0.99287 0.0
C15 C 0.97321 0.22858 0.95668 0.0
C16 C 0.20724 0.06174 0.01041 0.0
O17 O 0.96608 1.01073 0.925 0.0
O18 O 0.96353 0.08627 0.91664 0.0
O19 O 0.14528 0.09887 1.00579 0.0
O20 O 0.15139 1.02334 0.0143 0.0
O21 O -0.02111 0.10116 0.09115 0.0
H22 H 0.09537 0.17232 0.93109 0.0
H23 H 0.79766 0.17495 0.04403 0.0
O24 O -0.01896 1.02558 0.09934 0.0
O25 O 0.79945 1.01312 0.01015 0.0
O26 O 0.79342 0.08868 1.00187 0.0
C27 C 0.73753 1.05027 1.00565 0.0
H28 H 0.93476 0.85316 0.08069 0.0
H29 H 0.00337 0.25755 0.93028 0.0
Co30 Co 0.96627 1.01735 0.50148 0.0
C31 C 0.96935 0.06563 0.39153 0.0
Co32 Co -0.02289 0.09326 0.51453 0.0
C33 C 0.87142 0.92457 0.51015 0.0
C34 C 0.03047 0.92673 0.45738 0.0
N35 N 0.958 0.9536 0.49059 0.0
N36 N 0.8866 0.881 0.49003 0.0
C37 C -0.01342 0.88195 0.45694 0.0
H38 H 0.79631 0.93529 0.53711 0.0
H39 H 0.10791 0.93912 0.43345 0.0
C40 C -0.02594 1.04505 0.62449 0.0
N41 N -0.01449 0.15696 0.52537 0.0
C42 C 0.07158 0.1859 0.50514 0.0
C43 C 0.91428 0.18391 0.55915 0.0
N44 N 0.05737 0.22947 0.52541 0.0
C45 C 0.9585 0.22864 0.55928 0.0
C46 C 0.73745 0.05768 0.50332 0.0
O47 O 0.96747 1.01002 0.58875 0.0
O48 O -0.01866 0.0851 0.60123 0.0
O49 O 0.79963 0.09496 0.51043 0.0
O50 O 0.79301 1.01974 0.497 0.0
O51 O -0.02408 0.1006 0.42734 0.0
H52 H 0.83756 0.17158 0.58366 0.0
H53 H 0.14573 0.17508 0.47762 0.0
O54 O 0.96206 1.02555 0.41471 0.0
O55 O 0.14376 1.01566 0.50561 0.0
O56 O 0.15038 0.09087 0.51901 0.0
C57 C 0.20594 1.05293 0.51272 0.0
H58 H 0.02268 0.8527 0.43284 0.0
H59 H 0.92339 0.25794 0.58367 0.0
Co60 Co 0.4769 0.51839 0.00942 0.0
C61 C 0.48102 0.5655 0.12211 0.0
Co62 Co 0.47129 0.59453 1.00149 0.0
C63 C 0.57284 0.42562 1.00036 0.0
C64 C 0.41022 0.42784 0.05056 0.0
N65 N 0.4851 0.45466 0.01883 0.0
N66 N 0.55578 0.38209 0.01968 0.0
C67 C 0.4536 0.3831 0.05114 0.0
H68 H 0.65001 0.43634 0.97489 0.0
H69 H 0.33148 0.4403 0.07352 0.0
C70 C 0.4678 0.54776 0.88868 0.0
N71 N 0.46237 0.65832 0.99215 0.0
C72 C 0.37759 0.6874 0.01343 0.0
C73 C 0.53096 0.68495 0.95687 0.0
N74 N 0.38991 0.73067 0.99212 0.0
C75 C 0.48622 0.72947 0.9566 0.0
C76 C 0.7086 0.55906 0.00844 0.0
O77 O 0.48016 0.51201 0.92238 0.0
O78 O 0.4562 0.58704 0.9141 0.0
O79 O 0.64773 0.59634 1.00042 0.0
O80 O 0.65192 0.52146 0.01619 0.0
O81 O 0.48626 0.60136 0.08885 0.0
H82 H 0.60581 0.67249 0.93112 0.0
H83 H 0.30476 0.67679 0.0418 0.0
O84 O 0.47467 0.52585 0.09644 0.0
O85 O 0.30053 0.51579 1.0024 0.0
O86 O 0.29619 0.59164 1.00266 0.0
C87 C 0.2396 0.55323 1.00214 0.0
H88 H 0.41565 0.3539 0.0743 0.0
H89 H 0.51895 0.75837 0.93089 0.0
Co90 Co 0.46956 0.51671 0.50093 0.0
C91 C 0.46674 0.56313 0.38871 0.0
Co92 Co 0.47702 0.59283 0.50992 0.0
C93 C 0.37239 0.4245 0.51335 0.0
C94 C 0.52323 0.42559 0.45512 0.0
N95 N 0.45759 0.4529 0.49118 0.0
N96 N 0.38155 0.38098 0.49189 0.0
C97 C 0.47628 0.3813 0.45532 0.0
H98 H 0.30157 0.43576 0.54261 0.0
H99 H 0.59759 0.43739 0.42864 0.0
C100 C 0.48054 0.54602 0.622 0.0
N101 N 0.48844 0.65651 0.51989 0.0
C102 C 0.57427 0.68509 0.49868 0.0
C103 C 0.42109 0.68354 0.55548 0.0
N104 N 0.56366 0.72855 0.5202 0.0
C105 C 0.4675 0.72793 0.55587 0.0
C106 C 0.2389 0.55877 0.50247 0.0
O107 O 0.48458 0.51013 0.58821 0.0
O108 O 0.47522 0.58565 0.59693 0.0
O109 O 0.30063 0.59615 0.50333 0.0
O110 O 0.29468 0.52029 0.50226 0.0
O111 O 0.47987 0.59889 0.42291 0.0
H112 H 0.3461 0.67136 0.58135 0.0
H113 H 0.64637 0.67396 0.47007 0.0
O114 O 0.45437 0.52389 0.41359 0.0
O115 O 0.64611 0.51424 0.49967 0.0
O116 O 0.65183 0.58916 0.51632 0.0
C117 C 0.70776 0.55148 0.50812 0.0
H118 H 0.50658 0.35195 0.42934 0.0
H119 H 0.4359 0.75713 0.58171 0.0
C120 C 0.19773 0.77289 0.96074 0.0
C121 C 0.30819 0.76907 0.99977 0.0
C122 C 0.25738 0.84 0.05456 0.0
C123 C 0.14927 0.84469 0.01409 0.0
N124 N 0.01949 0.81967 0.92587 0.0
N125 N 0.45087 0.79922 0.07992 0.0
C126 C 0.12013 0.81211 0.96638 0.0
C127 C 0.34024 0.80283 0.04563 0.0
N128 N 0.16739 0.73859 0.9188 0.0
N129 N 0.27822 0.87063 0.10231 0.0
H130 H 0.51061 0.77136 0.07538 0.0
H131 H 0.48668 0.82442 0.1106 0.0
H132 H 0.21946 0.89843 0.10906 0.0
H133 H 0.34924 0.86753 0.13703 0.0
H134 H 0.08332 0.73655 0.8924 0.0
H135 H 0.22528 0.71051 0.91225 0.0
H136 H -0.00307 0.7997 0.88668 0.0
H137 H 0.96116 0.84802 0.92984 0.0
C138 C 0.60993 0.31111 0.96475 0.0
C139 C 0.63675 0.34331 0.01319 0.0
C140 C 0.82427 0.30036 0.04762 0.0
C141 C 0.79482 0.26717 1.00069 0.0
N142 N 0.65767 0.2374 0.91777 0.0
N143 N 0.75927 0.36766 0.10435 0.0
C144 C 0.68669 0.27154 0.96013 0.0
C145 C 0.74147 0.33769 0.05567 0.0
N146 N 0.51258 0.31938 0.92252 0.0
N147 N 0.93277 0.2962 0.08356 0.0
H148 H 0.70054 0.39556 0.11055 0.0
H149 H 0.82732 0.36377 0.14037 0.0
H150 H -0.00749 0.26829 0.07946 0.0
H151 H 0.96697 0.32108 0.11514 0.0
H152 H 0.49259 0.29977 0.88275 0.0
H153 H 0.45477 0.34797 0.92571 0.0
H154 H 0.57506 0.23585 0.89009 0.0
H155 H 0.71459 0.20885 0.91245 0.0
C156 C 0.10871 0.29999 0.46953 0.0
C157 C 0.1386 0.26802 0.51735 0.0
C158 C 0.33125 0.30999 0.54703 0.0
C159 C 0.29885 0.34303 0.50086 0.0
N160 N 0.15583 0.37281 0.42099 0.0
N161 N 0.26907 0.24339 0.60524 0.0
C162 C 0.18692 0.33897 0.4629 0.0
C163 C 0.24773 0.27322 0.55711 0.0
N164 N 0.007 0.29199 0.4297 0.0
N165 N 0.44295 0.31383 0.58042 0.0
H166 H 0.20961 0.21598 0.61295 0.0
H167 H 0.34106 0.24694 0.63946 0.0
H168 H 0.5033 0.3414 0.57499 0.0
H169 H 0.47895 0.28902 0.61118 0.0
H170 H -0.01595 0.31138 0.39035 0.0
H171 H 0.94811 0.26386 0.43441 0.0
H172 H 0.0708 0.37471 0.39544 0.0
H173 H 0.21399 0.4007 0.41376 0.0
C174 C 0.69928 0.83629 0.45582 0.0
C175 C 0.80542 0.84233 0.49743 0.0
C176 C 0.75509 0.77166 0.55204 0.0
C177 C 0.64608 0.76673 0.51209 0.0
N178 N 0.50686 0.79454 0.42954 0.0
N179 N 0.93138 0.81971 0.58767 0.0
C180 C 0.6161 0.79919 0.46487 0.0
C181 C 0.83268 0.81094 0.54624 0.0
N182 N 0.68041 0.86568 0.40704 0.0
N183 N 0.78415 0.73831 0.59494 0.0
H184 H -0.01006 0.84802 0.58353 0.0
H185 H 0.95201 0.80079 0.62767 0.0
H186 H 0.7265 0.7101 0.60127 0.0
H187 H 0.86725 0.73709 0.62223 0.0
H188 H 0.61104 0.86151 0.37163 0.0
H189 H 0.73931 0.89343 0.4002 0.0
H190 H 0.47239 0.81885 0.39767 0.0
H191 H 0.44681 0.76678 0.43437 0.0
C192 C 0.4192 0.06355 0.06507 0.0
C193 C 0.34361 0.06245 0.00896 0.0
C194 C 0.52557 1.04846 0.95099 0.0
C195 C 0.60116 1.04957 0.00709 0.0
N196 N 0.61916 1.04657 0.11804 0.0
N197 N 0.32561 0.06543 0.89801 0.0
C198 C 0.5478 1.05396 0.06441 0.0
C199 C 0.39697 0.05805 0.95164 0.0
N200 N 0.36894 0.07652 0.11831 0.0
N201 N 0.57582 1.03548 0.89776 0.0
H202 H 0.23222 0.07431 0.89735 0.0
H203 H 0.36074 0.06713 0.8548 0.0
H204 H 0.66816 1.02541 0.89702 0.0
H205 H 0.52424 1.02996 0.85595 0.0
H206 H 0.42053 0.08203 0.16011 0.0
H207 H 0.27659 0.08657 0.11906 0.0
H208 H 0.58402 1.04487 0.16125 0.0
H209 H 0.71254 1.03768 0.1187 0.0
C210 C 0.39428 0.07831 0.46196 0.0
C211 C 0.34193 1.05335 0.50992 0.0
C212 C 0.5491 1.03228 0.55409 0.0
C213 C 0.60145 0.05726 0.50614 0.0
N214 N 0.57839 0.10671 0.41728 0.0
N215 N 0.36496 1.00392 0.59881 0.0
C216 C 0.52518 0.08116 0.46098 0.0
C217 C 0.41819 1.02946 0.55508 0.0
N218 N 0.31843 0.09691 0.41525 0.0
N219 N 0.62496 1.01363 0.60075 0.0
H220 H 0.27037 1.00439 0.60429 0.0
H221 H 0.41251 0.9807 0.6282 0.0
H222 H 0.72113 1.01493 0.60211 0.0
H223 H 0.59434 0.99949 0.64075 0.0
H224 H 0.34909 0.11102 0.37523 0.0
H225 H 0.22227 0.09559 0.41387 0.0
H226 H 0.53081 0.12997 0.38794 0.0
H227 H 0.67296 0.10624 0.41178 0.0
C228 C 0.92139 0.56731 0.06054 0.0
C229 C 0.84444 0.55846 1.00614 0.0
C230 C 0.02749 0.54798 0.94788 0.0
C231 C 0.10362 0.5525 1.0035 0.0
N232 N 0.12147 0.55382 0.11469 0.0
N233 N 0.8232 0.52968 0.90123 0.0
C234 C 0.0502 0.55854 0.06053 0.0
C235 C 0.89706 0.54558 0.95062 0.0
N236 N 0.87196 0.58452 0.11191 0.0
N237 N 0.07936 0.54693 0.8925 0.0
H238 H 0.72755 0.52641 0.90202 0.0
H239 H 0.85779 0.51577 0.86172 0.0
H240 H 0.1748 0.54844 0.88898 0.0
H241 H 0.02752 0.54843 0.85014 0.0
H242 H 0.92583 0.59543 0.15111 0.0
H243 H 0.7779 0.59188 0.11315 0.0
H244 H 0.08522 0.55379 0.15776 0.0
H245 H 0.2149 0.54493 0.11603 0.0
C246 C 0.04916 0.55351 0.56058 0.0
C247 C 0.10286 0.55946 0.50368 0.0
C248 C 0.89642 0.56488 0.45045 0.0
C249 C 0.84367 0.55211 0.50582 0.0
N250 N 0.8711 0.52699 0.61157 0.0
N251 N 0.07918 0.564 0.39266 0.0
C252 C 0.92051 0.54408 0.56034 0.0
C253 C 0.02697 0.56313 0.44795 0.0
N254 N 0.12003 0.55886 0.61486 0.0
N255 N 0.82257 0.58014 0.401 0.0
H256 H 0.1747 0.56302 0.38929 0.0
H257 H 0.02762 0.56185 0.35024 0.0
H258 H 0.72684 0.58301 0.40164 0.0
H259 H 0.85716 0.59398 0.36161 0.0
H260 H 0.08354 0.55897 0.65787 0.0
H261 H 0.21335 0.5681 0.61637 0.0
H262 H 0.92492 0.51668 0.65088 0.0
H263 H 0.77723 0.51908 0.61255 0.0
C264 C 0.90447 0.10101 0.28734 0.0
C265 C -0.01785 0.07048 0.32388 0.0
C266 C 0.07535 1.04356 0.23009 0.0
C267 C -0.01429 0.06912 0.19326 0.0
N268 N 0.80421 0.11799 0.18677 0.0
N269 N 0.14735 1.01409 0.33036 0.0
C270 C 0.89846 0.09719 0.22181 0.0
C271 C 0.06912 1.04218 0.29523 0.0
N272 N 0.83625 0.13396 0.31459 0.0
N273 N 0.17051 1.02226 0.20314 0.0
H274 H 0.16181 1.01701 0.37814 0.0
H275 H 0.19638 0.98692 0.31234 0.0
H276 H 0.17895 1.02166 0.15576 0.0
H277 H 0.24767 1.00829 0.22773 0.0
H278 H 0.79162 0.1608 0.29022 0.0
H279 H 0.83226 0.13762 0.36193 0.0
H280 H 0.72827 0.13328 0.20531 0.0
H281 H 0.79412 0.11637 0.1388 0.0
C282 C 0.04594 1.01431 0.79436 0.0
C283 C 0.95886 1.04253 0.82281 0.0
C284 C 0.87455 0.06883 0.72071 0.0
C285 C 0.96135 1.04038 0.69217 0.0
N286 N 0.10748 0.97701 0.70179 0.0
N287 N 0.77397 0.08934 0.81281 0.0
C288 C 0.03941 1.01009 0.72887 0.0
C289 C 0.86889 0.06787 0.7859 0.0
N290 N 0.1405 0.99372 0.82946 0.0
N291 N 0.79599 0.09669 0.68541 0.0
H292 H 0.76595 0.09027 0.86022 0.0
H293 H 0.69659 0.10315 0.78822 0.0
H294 H 0.78122 0.09348 0.63767 0.0
H295 H 0.74702 0.12396 0.70322 0.0
H296 H 0.21629 0.97832 0.81091 0.0
H297 H 0.15099 0.99563 0.8774 0.0
H298 H 0.1525 0.95035 0.72635 0.0
H299 H 0.11089 0.97305 0.65446 0.0
C300 C 0.39717 0.59761 0.28512 0.0
C301 C 0.47479 0.56646 0.32066 0.0
C302 C 0.57134 0.54221 0.22673 0.0
C303 C 0.48431 0.56916 0.19054 0.0
N304 N 0.30855 0.62077 0.18421 0.0
N305 N 0.63464 0.50778 0.32498 0.0
C306 C 0.39694 0.597 0.21946 0.0
C307 C 0.56115 0.53832 0.29131 0.0
N308 N 0.32211 0.6275 0.31384 0.0
N309 N 0.66856 0.5223 0.19979 0.0
H310 H 0.64501 0.50769 0.37295 0.0
H311 H 0.68296 0.48115 0.30524 0.0
H312 H 0.68096 0.52467 0.15284 0.0
H313 H 0.74392 0.50715 0.2245 0.0
H314 H 0.27815 0.65553 0.29194 0.0
H315 H 0.30778 0.62615 0.36061 0.0
H316 H 0.23218 0.63645 0.20176 0.0
H317 H 0.30466 0.62208 0.13627 0.0
C318 C 0.39564 0.51472 0.71881 0.0
C319 C 0.48389 0.54234 0.69038 0.0
C320 C 0.56298 0.57236 0.79176 0.0
C321 C 0.47575 0.54442 0.8206 0.0
N322 N 0.32079 0.48394 0.81264 0.0
N323 N 0.66983 0.58859 0.70031 0.0
C324 C 0.39659 0.51373 0.78448 0.0
C325 C 0.5723 0.56881 0.72702 0.0
N326 N 0.30579 0.49155 0.68318 0.0
N327 N 0.63805 0.6024 0.8261 0.0
H328 H 0.68147 0.58653 0.65322 0.0
H329 H 0.74601 0.60335 0.7252 0.0
H330 H 0.64869 0.60217 0.87406 0.0
H331 H 0.68743 0.62893 0.80699 0.0
H332 H 0.22903 0.47607 0.70055 0.0
H333 H 0.30116 0.49064 0.63519 0.0
H334 H 0.27536 0.45622 0.79009 0.0
H335 H 0.30741 0.48498 0.85955 0.0
loop_
_geom_bond_atom_site_label_1
_geom_bond_atom_site_label_2
_geom_bond_distance
_geom_bond_site_symmetry_2
_ccdc_geom_bond_type
Co0 N5 2.057 1_556 S
Co0 O17 2.021 . S
Co0 O20 2.062 . S
Co0 O24 2.117 1_556 S
Co0 O25 2.020 1_455 S
C1 O21 1.259 1_455 S
C1 O24 1.258 1_545 S
Co2 N11 2.057 1_554 S
Co2 O18 2.117 1_554 S
Co2 O19 2.020 1_655 S
Co2 O21 2.021 . S
Co2 O26 2.062 . S
C3 N5 1.316 1_556 S
C3 N6 1.347 1_556 S
C3 H8 0.931 . S
C4 N5 1.375 . S
C4 C7 1.350 . S
C4 H9 0.930 . S
N5 Co0 2.057 1_554 S
N5 C3 1.316 1_554 S
N5 C4 1.375 . S
N6 C3 1.347 1_554 S
N6 C7 1.373 . S
C7 C4 1.350 . S
C7 N6 1.373 . S
C7 H28 0.931 . S
H8 C3 0.931 . S
H9 C4 0.930 . S
C10 O17 1.259 1_655 S
C10 O18 1.258 1_565 S
N11 Co2 2.057 1_556 S
N11 C12 1.316 1_556 S
N11 C13 1.375 . S
C12 N11 1.316 1_554 S
C12 N14 1.347 1_554 S
C12 H23 0.931 . S
C13 N11 1.375 . S
C13 C15 1.350 . S
C13 H22 0.930 . S
N14 C12 1.347 1_556 S
N14 C15 1.373 . S
C15 C13 1.350 . S
C15 N14 1.373 . S
C15 H29 0.931 . S
C16 O19 1.258 . S
C16 O20 1.254 1_544 S
O17 Co0 2.021 . S
O17 C10 1.259 1_455 S
O18 Co2 2.117 1_556 S
O18 C10 1.258 1_545 S
O19 Co2 2.020 1_455 S
O19 C16 1.258 . S
O20 Co0 2.062 . S
O20 C16 1.254 1_566 S
O21 C1 1.259 1_655 S
O21 Co2 2.021 . S
H22 C13 0.930 . S
H23 C12 0.931 . S
O24 Co0 2.117 1_554 S
O24 C1 1.258 1_565 S
O25 Co0 2.020 1_655 S
O25 C27 1.257 . S
O26 Co2 2.062 . S
O26 C27 1.254 1_544 S
C27 O25 1.257 . S
C27 O26 1.254 1_566 S
H28 C7 0.931 . S
H29 C15 0.931 . S
Co30 N35 2.057 . S
Co30 O47 2.021 . S
Co30 O50 2.062 . S
Co30 O54 2.117 . S
Co30 O55 2.020 1_655 S
C31 O51 1.259 1_655 S
C31 O54 1.258 1_545 S
Co32 N41 2.057 . S
Co32 O48 2.117 . S
Co32 O49 2.020 1_455 S
Co32 O51 2.021 . S
Co32 O56 2.062 . S
C33 N35 1.316 . S
C33 N36 1.347 . S
C33 H38 0.931 . S
C34 N35 1.375 . S
C34 C37 1.350 . S
C34 H39 0.930 . S
N35 Co30 2.057 . S
N35 C33 1.316 . S
N35 C34 1.375 . S
N36 C33 1.347 . S
N36 C37 1.373 . S
C37 C34 1.350 . S
C37 N36 1.373 . S
C37 H58 0.931 . S
H38 C33 0.931 . S
H39 C34 0.930 . S
C40 O47 1.259 1_455 S
C40 O48 1.258 1_565 S
N41 Co32 2.057 . S
N41 C42 1.316 . S
N41 C43 1.375 . S
C42 N41 1.316 . S
C42 N44 1.347 . S
C42 H53 0.931 . S
C43 N41 1.375 . S
C43 C45 1.350 . S
C43 H52 0.930 . S
N44 C42 1.347 . S
N44 C45 1.373 . S
C45 C43 1.350 . S
C45 N44 1.373 . S
C45 H59 0.931 . S
C46 O49 1.256 . S
C46 O50 1.255 1_545 S
O47 Co30 2.021 . S
O47 C40 1.259 1_655 S
O48 Co32 2.117 . S
O48 C40 1.258 1_545 S
O49 Co32 2.020 1_655 S
O49 C46 1.256 . S
O50 Co30 2.062 . S
O50 C46 1.255 1_565 S
O51 C31 1.259 1_455 S
O51 Co32 2.021 . S
H52 C43 0.930 . S
H53 C42 0.931 . S
O54 Co30 2.117 . S
O54 C31 1.258 1_565 S
O55 Co30 2.020 1_455 S
O55 C57 1.256 . S
O56 Co32 2.062 . S
O56 C57 1.255 1_545 S
C57 O55 1.256 . S
C57 O56 1.255 1_565 S
H58 C37 0.931 . S
H59 C45 0.931 . S
Co60 N65 2.057 1_556 S
Co60 O77 2.021 . S
Co60 O80 2.062 . S
Co60 O84 2.117 1_556 S
Co60 O85 2.020 . S
C61 O81 1.259 . S
C61 O84 1.258 . S
Co62 N71 2.057 1_554 S
Co62 O78 2.117 1_554 S
Co62 O79 2.020 . S
Co62 O81 2.021 . S
Co62 O86 2.062 . S
C63 N65 1.316 1_556 S
C63 N66 1.347 1_556 S
C63 H68 0.931 . S
C64 N65 1.375 . S
C64 C67 1.350 . S
C64 H69 0.930 . S
N65 Co60 2.057 1_554 S
N65 C63 1.316 1_554 S
N65 C64 1.375 . S
N66 C63 1.347 1_554 S
N66 C67 1.373 . S
C67 C64 1.350 . S
C67 N66 1.373 . S
C67 H88 0.931 . S
H68 C63 0.931 . S
H69 C64 0.930 . S
C70 O77 1.259 . S
C70 O78 1.258 . S
N71 Co62 2.057 1_556 S
N71 C72 1.316 1_556 S
N71 C73 1.375 . S
C72 N71 1.316 1_554 S
C72 N74 1.347 1_554 S
C72 H83 0.931 . S
C73 N71 1.375 . S
C73 C75 1.350 . S
C73 H82 0.930 . S
N74 C72 1.347 1_556 S
N74 C75 1.373 . S
C75 C73 1.350 . S
C75 N74 1.373 . S
C75 H89 0.931 . S
C76 O79 1.258 . S
C76 O80 1.254 1_554 S
O77 Co60 2.021 . S
O77 C70 1.259 . S
O78 Co62 2.117 1_556 S
O78 C70 1.258 . S
O79 Co62 2.020 . S
O79 C76 1.258 . S
O80 Co60 2.062 . S
O80 C76 1.254 1_556 S
O81 C61 1.259 . S
O81 Co62 2.021 . S
H82 C73 0.930 . S
H83 C72 0.931 . S
O84 Co60 2.117 1_554 S
O84 C61 1.258 . S
O85 Co60 2.020 . S
O85 C87 1.257 . S
O86 Co62 2.062 . S
O86 C87 1.254 1_554 S
C87 O85 1.257 . S
C87 O86 1.254 1_556 S
H88 C67 0.931 . S
H89 C75 0.931 . S
Co90 N95 2.057 . S
Co90 O107 2.021 . S
Co90 O110 2.062 . S
Co90 O114 2.117 . S
Co90 O115 2.020 . S
C91 O111 1.259 . S
C91 O114 1.258 . S
Co92 N101 2.057 . S
Co92 O108 2.117 . S
Co92 O109 2.020 . S
Co92 O111 2.021 . S
Co92 O116 2.062 . S
C93 N95 1.316 . S
C93 N96 1.347 . S
C93 H98 0.931 . S
C94 N95 1.375 . S
C94 C97 1.350 . S
C94 H99 0.930 . S
N95 Co90 2.057 . S
N95 C93 1.316 . S
N95 C94 1.375 . S
N96 C93 1.347 . S
N96 C97 1.373 . S
C97 C94 1.350 . S
C97 N96 1.373 . S
C97 H118 0.931 . S
H98 C93 0.931 . S
H99 C94 0.930 . S
C100 O107 1.259 . S
C100 O108 1.258 . S
N101 Co92 2.057 . S
N101 C102 1.316 . S
N101 C103 1.375 . S
C102 N101 1.316 . S
C102 N104 1.347 . S
C102 H113 0.931 . S
C103 N101 1.375 . S
C103 C105 1.350 . S
C103 H112 0.930 . S
N104 C102 1.347 . S
N104 C105 1.373 . S
C105 C103 1.350 . S
C105 N104 1.373 . S
C105 H119 0.931 . S
C106 O109 1.256 . S
C106 O110 1.255 . S
O107 Co90 2.021 . S
O107 C100 1.259 . S
O108 Co92 2.117 . S
O108 C100 1.258 . S
O109 Co92 2.020 . S
O109 C106 1.256 . S
O110 Co90 2.062 . S
O110 C106 1.255 . S
O111 C91 1.259 . S
O111 Co92 2.021 . S
H112 C103 0.930 . S
H113 C102 0.931 . S
O114 Co90 2.117 . S
O114 C91 1.258 . S
O115 Co90 2.020 . S
O115 C117 1.256 . S
O116 Co92 2.062 . S
O116 C117 1.255 . S
C117 O115 1.256 . S
C117 O116 1.255 . S
H118 C97 0.931 . S
H119 C105 0.931 . S
C120 C121 1.363 . S
C120 C126 1.379 . S
C120 N128 1.356 . S
C121 C120 1.363 . S
C121 C127 1.363 1_554 S
C122 C123 1.363 . S
C122 C127 1.379 . S
C122 N129 1.356 . S
C123 C122 1.363 . S
C123 C126 1.363 1_556 S
N124 C126 1.356 . S
N124 H136 0.984 . S
N124 H137 0.985 . S
N125 C127 1.356 . S
N125 H130 0.984 . S
N125 H131 0.985 . S
C126 C120 1.379 . S
C126 C123 1.363 1_554 S
C126 N124 1.356 . S
C127 C121 1.363 1_556 S
C127 C122 1.379 . S
C127 N125 1.356 . S
N128 C120 1.356 . S
N128 H134 0.984 . S
N128 H135 0.984 . S
N129 C122 1.356 . S
N129 H132 0.984 . S
N129 H133 0.985 . S
H130 N125 0.984 . S
H131 N125 0.985 . S
H132 N129 0.984 . S
H133 N129 0.985 . S
H134 N128 0.984 . S
H135 N128 0.984 . S
H136 N124 0.984 . S
H137 N124 0.985 . S
C138 C139 1.363 . S
C138 C144 1.379 . S
C138 N146 1.356 . S
C139 C138 1.363 . S
C139 C145 1.363 1_556 S
C140 C141 1.363 . S
C140 C145 1.379 . S
C140 N147 1.356 . S
C141 C140 1.363 . S
C141 C144 1.363 1_554 S
N142 C144 1.356 . S
N142 H154 0.984 . S
N142 H155 0.985 . S
N143 C145 1.356 . S
N143 H148 0.984 . S
N143 H149 0.985 . S
C144 C138 1.379 . S
C144 C141 1.363 1_556 S
C144 N142 1.356 . S
C145 C139 1.363 1_554 S
C145 C140 1.379 . S
C145 N143 1.356 . S
N146 C138 1.356 . S
N146 H152 0.984 . S
N146 H153 0.984 . S
N147 C140 1.356 . S
N147 H150 0.984 . S
N147 H151 0.985 . S
H148 N143 0.984 . S
H149 N143 0.985 . S
H150 N147 0.984 . S
H151 N147 0.985 . S
H152 N146 0.984 . S
H153 N146 0.984 . S
H154 N142 0.984 . S
H155 N142 0.985 . S
C156 C157 1.363 . S
C156 C162 1.379 . S
C156 N164 1.356 . S
C157 C156 1.363 . S
C157 C163 1.363 . S
C158 C159 1.363 . S
C158 C163 1.379 . S
C158 N165 1.356 . S
C159 C158 1.363 . S
C159 C162 1.363 . S
N160 C162 1.356 . S
N160 H172 0.984 . S
N160 H173 0.985 . S
N161 C163 1.356 . S
N161 H166 0.984 . S
N161 H167 0.985 . S
C162 C156 1.379 . S
C162 C159 1.363 . S
C162 N160 1.356 . S
C163 C157 1.363 . S
C163 C158 1.379 . S
C163 N161 1.356 . S
N164 C156 1.356 . S
N164 H170 0.984 . S
N164 H171 0.984 . S
N165 C158 1.356 . S
N165 H168 0.984 . S
N165 H169 0.985 . S
H166 N161 0.984 . S
H167 N161 0.985 . S
H168 N165 0.984 . S
H169 N165 0.985 . S
H170 N164 0.984 . S
H171 N164 0.984 . S
H172 N160 0.984 . S
H173 N160 0.985 . S
C174 C175 1.363 . S
C174 C180 1.379 . S
C174 N182 1.356 . S
C175 C174 1.363 . S
C175 C181 1.363 . S
C176 C177 1.363 . S
C176 C181 1.379 . S
C176 N183 1.356 . S
C177 C176 1.363 . S
C177 C180 1.363 . S
N178 C180 1.356 . S
N178 H190 0.984 . S
N178 H191 0.985 . S
N179 C181 1.356 . S
N179 H184 0.984 . S
N179 H185 0.985 . S
C180 C174 1.379 . S
C180 C177 1.363 . S
C180 N178 1.356 . S
C181 C175 1.363 . S
C181 C176 1.379 . S
C181 N179 1.356 . S
N182 C174 1.356 . S
N182 H188 0.984 . S
N182 H189 0.984 . S
N183 C176 1.356 . S
N183 H186 0.984 . S
N183 H187 0.985 . S
H184 N179 0.984 . S
H185 N179 0.985 . S
H186 N183 0.984 . S
H187 N183 0.985 . S
H188 N182 0.984 . S
H189 N182 0.984 . S
H190 N178 0.984 . S
H191 N178 0.985 . S
C192 C193 1.363 . S
C192 C198 1.379 . S
C192 N200 1.356 . S
C193 C192 1.363 . S
C193 C199 1.363 1_544 S
C194 C195 1.363 . S
C194 C199 1.379 . S
C194 N201 1.356 . S
C195 C194 1.363 . S
C195 C198 1.363 1_566 S
N196 C198 1.356 . S
N196 H208 0.984 . S
N196 H209 0.985 . S
N197 C199 1.356 . S
N197 H202 0.984 . S
N197 H203 0.985 . S
C198 C192 1.379 . S
C198 C195 1.363 1_544 S
C198 N196 1.356 . S
C199 C193 1.363 1_566 S
C199 C194 1.379 . S
C199 N197 1.356 . S
N200 C192 1.356 . S
N200 H206 0.984 . S
N200 H207 0.984 . S
N201 C194 1.356 . S
N201 H204 0.984 . S
N201 H205 0.985 . S
H202 N197 0.984 . S
H203 N197 0.985 . S
H204 N201 0.984 . S
H205 N201 0.985 . S
H206 N200 0.984 . S
H207 N200 0.984 . S
H208 N196 0.984 . S
H209 N196 0.985 . S
C210 C211 1.363 1_545 S
C210 C216 1.379 . S
C210 N218 1.356 . S
C211 C210 1.363 1_565 S
C211 C217 1.363 . S
C212 C213 1.363 1_565 S
C212 C217 1.379 . S
C212 N219 1.356 . S
C213 C212 1.363 1_545 S
C213 C216 1.363 . S
N214 C216 1.356 . S
N214 H226 0.984 . S
N214 H227 0.985 . S
N215 C217 1.356 . S
N215 H220 0.984 . S
N215 H221 0.985 . S
C216 C210 1.379 . S
C216 C213 1.363 . S
C216 N214 1.356 . S
C217 C211 1.363 . S
C217 C212 1.379 . S
C217 N215 1.356 . S
N218 C210 1.356 . S
N218 H224 0.984 . S
N218 H225 0.984 . S
N219 C212 1.356 . S
N219 H222 0.984 . S
N219 H223 0.985 . S
H220 N215 0.984 . S
H221 N215 0.985 . S
H222 N219 0.984 . S
H223 N219 0.985 . S
H224 N218 0.984 . S
H225 N218 0.984 . S
H226 N214 0.984 . S
H227 N214 0.985 . S
C228 C229 1.363 . S
C228 C234 1.379 1_655 S
C228 N236 1.356 . S
C229 C228 1.363 . S
C229 C235 1.363 1_554 S
C230 C231 1.363 . S
C230 C235 1.379 1_455 S
C230 N237 1.356 . S
C231 C230 1.363 . S
C231 C234 1.363 1_556 S
N232 C234 1.356 . S
N232 H244 0.984 . S
N232 H245 0.985 . S
N233 C235 1.356 . S
N233 H238 0.984 . S
N233 H239 0.985 . S
C234 C228 1.379 1_455 S
C234 C231 1.363 1_554 S
C234 N232 1.356 . S
C235 C229 1.363 1_556 S
C235 C230 1.379 1_655 S
C235 N233 1.356 . S
N236 C228 1.356 . S
N236 H242 0.984 . S
N236 H243 0.984 . S
N237 C230 1.356 . S
N237 H240 0.984 . S
N237 H241 0.985 . S
H238 N233 0.984 . S
H239 N233 0.985 . S
H240 N237 0.984 . S
H241 N237 0.985 . S
H242 N236 0.984 . S
H243 N236 0.984 . S
H244 N232 0.984 . S
H245 N232 0.985 . S
C246 C247 1.363 . S
C246 C252 1.379 1_455 S
C246 N254 1.356 . S
C247 C246 1.363 . S
C247 C253 1.363 . S
C248 C249 1.363 . S
C248 C253 1.379 1_655 S
C248 N255 1.356 . S
C249 C248 1.363 . S
C249 C252 1.363 . S
N250 C252 1.356 . S
N250 H262 0.984 . S
N250 H263 0.985 . S
N251 C253 1.356 . S
N251 H256 0.984 . S
N251 H257 0.985 . S
C252 C246 1.379 1_655 S
C252 C249 1.363 . S
C252 N250 1.356 . S
C253 C247 1.363 . S
C253 C248 1.379 1_455 S
C253 N251 1.356 . S
N254 C246 1.356 . S
N254 H260 0.984 . S
N254 H261 0.984 . S
N255 C248 1.356 . S
N255 H258 0.984 . S
N255 H259 0.985 . S
H256 N251 0.984 . S
H257 N251 0.985 . S
H258 N255 0.984 . S
H259 N255 0.985 . S
H260 N254 0.984 . S
H261 N254 0.984 . S
H262 N250 0.984 . S
H263 N250 0.985 . S
C264 C265 1.363 . S
C264 C270 1.379 . S
C264 N272 1.356 . S
C265 C264 1.363 . S
C265 C271 1.363 1_645 S
C266 C267 1.363 1_565 S
C266 C271 1.379 . S
C266 N273 1.356 . S
C267 C266 1.363 1_545 S
C267 C270 1.363 1_455 S
N268 C270 1.356 . S
N268 H280 0.984 . S
N268 H281 0.985 . S
N269 C271 1.356 . S
N269 H274 0.984 . S
N269 H275 0.985 . S
C270 C264 1.379 . S
C270 C267 1.363 1_655 S
C270 N268 1.356 . S
C271 C265 1.363 1_465 S
C271 C266 1.379 . S
C271 N269 1.356 . S
N272 C264 1.356 . S
N272 H278 0.984 . S
N272 H279 0.984 . S
N273 C266 1.356 . S
N273 H276 0.984 . S
N273 H277 0.985 . S
H274 N269 0.984 . S
H275 N269 0.985 . S
H276 N273 0.984 . S
H277 N273 0.985 . S
H278 N272 0.984 . S
H279 N272 0.984 . S
H280 N268 0.984 . S
H281 N268 0.985 . S
C282 C283 1.363 1_455 S
C282 C288 1.379 . S
C282 N290 1.356 . S
C283 C282 1.363 1_655 S
C283 C289 1.363 1_565 S
C284 C285 1.363 1_645 S
C284 C289 1.379 . S
C284 N291 1.356 . S
C285 C284 1.363 1_465 S
C285 C288 1.363 . S
N286 C288 1.356 . S
N286 H298 0.984 . S
N286 H299 0.985 . S
N287 C289 1.356 . S
N287 H292 0.984 . S
N287 H293 0.985 . S
C288 C282 1.379 . S
C288 C285 1.363 . S
C288 N286 1.356 . S
C289 C283 1.363 1_545 S
C289 C284 1.379 . S
C289 N287 1.356 . S
N290 C282 1.356 . S
N290 H296 0.984 . S
N290 H297 0.984 . S
N291 C284 1.356 . S
N291 H294 0.984 . S
N291 H295 0.985 . S
H292 N287 0.984 . S
H293 N287 0.985 . S
H294 N291 0.984 . S
H295 N291 0.985 . S
H296 N290 0.984 . S
H297 N290 0.984 . S
H298 N286 0.984 . S
H299 N286 0.985 . S
C300 C301 1.363 . S
C300 C306 1.379 . S
C300 N308 1.356 . S
C301 C300 1.363 . S
C301 C307 1.363 . S
C302 C303 1.363 . S
C302 C307 1.379 . S
C302 N309 1.356 . S
C303 C302 1.363 . S
C303 C306 1.363 . S
N304 C306 1.356 . S
N304 H316 0.984 . S
N304 H317 0.985 . S
N305 C307 1.356 . S
N305 H310 0.984 . S
N305 H311 0.985 . S
C306 C300 1.379 . S
C306 C303 1.363 . S
C306 N304 1.356 . S
C307 C301 1.363 . S
C307 C302 1.379 . S
C307 N305 1.356 . S
N308 C300 1.356 . S
N308 H314 0.984 . S
N308 H315 0.984 . S
N309 C302 1.356 . S
N309 H312 0.984 . S
N309 H313 0.985 . S
H310 N305 0.984 . S
H311 N305 0.985 . S
H312 N309 0.984 . S
H313 N309 0.985 . S
H314 N308 0.984 . S
H315 N308 0.984 . S
H316 N304 0.984 . S
H317 N304 0.985 . S
C318 C319 1.363 . S
C318 C324 1.379 . S
C318 N326 1.356 . S
C319 C318 1.363 . S
C319 C325 1.363 . S
C320 C321 1.363 . S
C320 C325 1.379 . S
C320 N327 1.356 . S
C321 C320 1.363 . S
C321 C324 1.363 . S
N322 C324 1.356 . S
N322 H334 0.984 . S
N322 H335 0.985 . S
N323 C325 1.356 . S
N323 H328 0.984 . S
N323 H329 0.985 . S
C324 C318 1.379 . S
C324 C321 1.363 . S
C324 N322 1.356 . S
C325 C319 1.363 . S
C325 C320 1.379 . S
C325 N323 1.356 . S
N326 C318 1.356 . S
N326 H332 0.984 . S
N326 H333 0.984 . S
N327 C320 1.356 . S
N327 H330 0.984 . S
N327 H331 0.985 . S
H328 N323 0.984 . S
H329 N323 0.985 . S
H330 N327 0.984 . S
H331 N327 0.985 . S
H332 N326 0.984 . S
H333 N326 0.984 . S
H334 N322 0.984 . S
H335 N322 0.985 . S
C121 N74 1.540 1_554 S
C123 N6 1.542 1_556 S
C139 N66 1.540 1_556 S
C141 N14 1.537 1_554 S
C157 N44 1.540 . S
C159 N96 1.536 . S
C175 N36 1.540 . S
C177 N104 1.543 . S
C193 C16 1.143 . S
C195 C27 1.143 . S
C211 C57 1.144 . S
C213 C46 1.144 . S
C229 C76 1.143 . S
C231 C87 1.143 . S
C247 C106 1.144 . S
C249 C117 1.144 . S
C265 C31 1.498 . S
C267 C1 1.495 . S
C283 C10 1.498 . S
C285 C40 1.500 . S
C301 C91 1.498 . S
C303 C61 1.495 . S
C319 C100 1.498 . S
C321 C70 1.500 . S
