# Generated by pormake.
# Topology whm, (6)-cn, num edge types: 1
# Building blocks:
#     Node 0, Type 0, BuildingBlock: OJICUG_clean_sbu_0, # of connection points: 6
#     Node 1, Type 0, BuildingBlock: OJICUG_clean_sbu_0, # of connection points: 6
#     Node 2, Type 0, BuildingBlock: OJICUG_clean_sbu_0, # of connection points: 6
#     Node 3, Type 0, BuildingBlock: OJICUG_clean_sbu_0, # of connection points: 6
#     Node 4, Type 0, BuildingBlock: OJICUG_clean_sbu_0, # of connection points: 6
#     Node 5, Type 0, BuildingBlock: OJICUG_clean_sbu_0, # of connection points: 6
#     Node 6, Type 0, BuildingBlock: OJICUG_clean_sbu_0, # of connection points: 6
#     Node 7, Type 0, BuildingBlock: OJICUG_clean_sbu_0, # of connection points: 6
#     Node 8, Type 0, BuildingBlock: OJICUG_clean_sbu_0, # of connection points: 6
#     Node 9, Type 0, BuildingBlock: OJICUG_clean_sbu_0, # of connection points: 6
#     Node 10, Type 0, BuildingBlock: OJICUG_clean_sbu_0, # of connection points: 6
#     Node 11, Type 0, BuildingBlock: OJICUG_clean_sbu_0, # of connection points: 6
#     Node 12, Type 0, BuildingBlock: OJICUG_clean_sbu_0, # of connection points: 6
#     Node 13, Type 0, BuildingBlock: OJICUG_clean_sbu_0, # of connection points: 6
#     Node 14, Type 0, BuildingBlock: OJICUG_clean_sbu_0, # of connection points: 6
#     Node 15, Type 0, BuildingBlock: OJICUG_clean_sbu_0, # of connection points: 6
#     Edge 16, Type (0, 0), BuildingBlock: EZIPEK_clean_linker_0, # of connection points: 2
#     Edge 17, Type (0, 0), BuildingBlock: EZIPEK_clean_linker_0, # of connection points: 2
#     Edge 18, Type (0, 0), BuildingBlock: EZIPEK_clean_linker_0, # of connection points: 2
#     Edge 19, Type (0, 0), BuildingBlock: EZIPEK_clean_linker_0, # of connection points: 2
#     Edge 20, Type (0, 0), BuildingBlock: EZIPEK_clean_linker_0, # of connection points: 2
#     Edge 21, Type (0, 0), BuildingBlock: EZIPEK_clean_linker_0, # of connection points: 2
#     Edge 22, Type (0, 0), BuildingBlock: EZIPEK_clean_linker_0, # of connection points: 2
#     Edge 23, Type (0, 0), BuildingBlock: EZIPEK_clean_linker_0, # of connection points: 2
#     Edge 24, Type (0, 0), BuildingBlock: EZIPEK_clean_linker_0, # of connection points: 2
#     Edge 25, Type (0, 0), BuildingBlock: EZIPEK_clean_linker_0, # of connection points: 2
#     Edge 26, Type (0, 0), BuildingBlock: EZIPEK_clean_linker_0, # of connection points: 2
#     Edge 27, Type (0, 0), BuildingBlock: EZIPEK_clean_linker_0, # of connection points: 2
#     Edge 28, Type (0, 0), BuildingBlock: EZIPEK_clean_linker_0, # of connection points: 2
#     Edge 29, Type (0, 0), BuildingBlock: EZIPEK_clean_linker_0, # of connection points: 2
#     Edge 30, Type (0, 0), BuildingBlock: EZIPEK_clean_linker_0, # of connection points: 2
#     Edge 31, Type (0, 0), BuildingBlock: EZIPEK_clean_linker_0, # of connection points: 2
#     Edge 32, Type (0, 0), BuildingBlock: EZIPEK_clean_linker_0, # of connection points: 2
#     Edge 33, Type (0, 0), BuildingBlock: EZIPEK_clean_linker_0, # of connection points: 2
#     Edge 34, Type (0, 0), BuildingBlock: EZIPEK_clean_linker_0, # of connection points: 2
#     Edge 35, Type (0, 0), BuildingBlock: EZIPEK_clean_linker_0, # of connection points: 2
#     Edge 36, Type (0, 0), BuildingBlock: EZIPEK_clean_linker_0, # of connection points: 2
#     Edge 37, Type (0, 0), BuildingBlock: EZIPEK_clean_linker_0, # of connection points: 2
#     Edge 38, Type (0, 0), BuildingBlock: EZIPEK_clean_linker_0, # of connection points: 2
#     Edge 39, Type (0, 0), BuildingBlock: EZIPEK_clean_linker_0, # of connection points: 2
#     Edge 40, Type (0, 0), BuildingBlock: EZIPEK_clean_linker_0, # of connection points: 2
#     Edge 41, Type (0, 0), BuildingBlock: EZIPEK_clean_linker_0, # of connection points: 2
#     Edge 42, Type (0, 0), BuildingBlock: EZIPEK_clean_linker_0, # of connection points: 2
#     Edge 43, Type (0, 0), BuildingBlock: EZIPEK_clean_linker_0, # of connection points: 2
#     Edge 44, Type (0, 0), BuildingBlock: EZIPEK_clean_linker_0, # of connection points: 2
#     Edge 45, Type (0, 0), BuildingBlock: EZIPEK_clean_linker_0, # of connection points: 2
#     Edge 46, Type (0, 0), BuildingBlock: EZIPEK_clean_linker_0, # of connection points: 2
#     Edge 47, Type (0, 0), BuildingBlock: EZIPEK_clean_linker_0, # of connection points: 2
#     Edge 48, Type (0, 0), BuildingBlock: EZIPEK_clean_linker_0, # of connection points: 2
#     Edge 49, Type (0, 0), BuildingBlock: EZIPEK_clean_linker_0, # of connection points: 2
#     Edge 50, Type (0, 0), BuildingBlock: EZIPEK_clean_linker_0, # of connection points: 2
#     Edge 51, Type (0, 0), BuildingBlock: EZIPEK_clean_linker_0, # of connection points: 2
#     Edge 52, Type (0, 0), BuildingBlock: EZIPEK_clean_linker_0, # of connection points: 2
#     Edge 53, Type (0, 0), BuildingBlock: EZIPEK_clean_linker_0, # of connection points: 2
#     Edge 54, Type (0, 0), BuildingBlock: EZIPEK_clean_linker_0, # of connection points: 2
#     Edge 55, Type (0, 0), BuildingBlock: EZIPEK_clean_linker_0, # of connection points: 2
#     Edge 56, Type (0, 0), BuildingBlock: EZIPEK_clean_linker_0, # of connection points: 2
#     Edge 57, Type (0, 0), BuildingBlock: EZIPEK_clean_linker_0, # of connection points: 2
#     Edge 58, Type (0, 0), BuildingBlock: EZIPEK_clean_linker_0, # of connection points: 2
#     Edge 59, Type (0, 0), BuildingBlock: EZIPEK_clean_linker_0, # of connection points: 2
#     Edge 60, Type (0, 0), BuildingBlock: EZIPEK_clean_linker_0, # of connection points: 2
#     Edge 61, Type (0, 0), BuildingBlock: EZIPEK_clean_linker_0, # of connection points: 2
#     Edge 62, Type (0, 0), BuildingBlock: EZIPEK_clean_linker_0, # of connection points: 2
#     Edge 63, Type (0, 0), BuildingBlock: EZIPEK_clean_linker_0, # of connection points: 2
# Relax obj value: 0.342
# Max RMSD: 0.245
# Mean RMSD: 0.245
data_MOF--net-whm--node1-OJICUG_clean_sbu_0--edge1-EZIPEK_clean_linker_0
_symmetry_space_group_name_H-M    P1
_symmetry_Int_Tables_number       1
_symmetry_cell_setting            triclinic
loop_
_symmetry_equiv_pos_as_xyz
'x, y, z'
_cell_length_a     39.041977
_cell_length_b     38.933442
_cell_length_c     22.347774
_cell_angle_alpha  89.447082
_cell_angle_beta   89.816688
_cell_angle_gamma 89.820337
loop_
_atom_site_label
_atom_site_type_symbol
_atom_site_fract_x
_atom_site_fract_y
_atom_site_fract_z
_atom_type_partial_charge
Sc0 Sc 0.58393 0.16946 0.11236 0.0
Sc1 Sc 0.52108 0.17682 0.22445 0.0
Sc2 Sc 0.55327 0.0952 0.1841 0.0
O3 O 0.55235 0.14705 0.17322 0.0
C4 C 0.56375 0.10043 0.04532 0.0
C5 C 0.51322 0.20961 0.09396 0.0
C6 C 0.47445 0.11114 0.20763 0.0
C7 C 0.58844 0.22233 0.21864 0.0
C8 C 0.63284 0.11399 0.16992 0.0
C9 C 0.55103 0.1223 0.31721 0.0
O10 O 0.57598 0.13048 0.04804 0.0
O11 O 0.50168 0.2045 0.14673 0.0
O12 O 0.49861 0.09152 0.19062 0.0
O13 O 0.59881 0.21007 0.1698 0.0
O14 O 0.60875 0.09338 0.1837 0.0
O15 O 0.53881 0.15193 0.30542 0.0
O16 O 0.62796 0.14278 0.14442 0.0
O17 O 0.55978 0.21414 0.24112 0.0
O18 O 0.55616 0.09944 0.27826 0.0
O19 O 0.54199 0.1983 0.07566 0.0
O20 O 0.55075 0.08486 0.08994 0.0
O21 O 0.47832 0.14274 0.21851 0.0
Sc22 Sc 0.30729 0.58262 0.60235 0.0
Sc23 Sc 0.31367 0.51688 0.70994 0.0
Sc24 Sc 0.38613 0.56424 0.66777 0.0
O25 O 0.3358 0.55442 0.6594 0.0
C26 C 0.37539 0.57727 0.52782 0.0
C27 C 0.28 0.50557 0.58542 0.0
C28 C 0.38891 0.48626 0.68891 0.0
C29 C 0.255 0.57336 0.70697 0.0
C30 C 0.35589 0.63885 0.6582 0.0
C31 C 0.36052 0.55247 0.80271 0.0
O32 O 0.34286 0.57669 0.52971 0.0
O33 O 0.29446 0.49179 0.63084 0.0
O34 O 0.3997 0.5112 0.65724 0.0
O35 O 0.26973 0.59284 0.66934 0.0
O36 O 0.37742 0.61776 0.67981 0.0
O37 O 0.33106 0.54047 0.79095 0.0
O38 O 0.33055 0.63029 0.62638 0.0
O39 O 0.26562 0.54342 0.72008 0.0
O40 O 0.38317 0.55872 0.76323 0.0
O41 O 0.28081 0.53759 0.57346 0.0
O42 O 0.39419 0.57352 0.57375 0.0
O43 O 0.35918 0.48552 0.71197 0.0
Sc44 Sc 0.90584 0.30782 0.10165 0.0
Sc45 Sc 0.96834 0.30924 0.21404 0.0
Sc46 Sc 0.93175 0.38515 0.16536 0.0
O47 O 0.93523 0.33384 0.15931 0.0
C48 C 0.91753 0.37691 0.02771 0.0
C49 C 0.98232 0.27747 0.08746 0.0
C50 C 0.00638 0.38109 0.19197 0.0
C51 C 0.91112 0.252 0.20397 0.0
C52 C 0.85408 0.35934 0.16368 0.0
C53 C 0.93569 0.361 0.3006 0.0
O54 O 0.91145 0.34495 0.03034 0.0
O55 O -0.00542 0.28828 0.13689 0.0
O56 O 0.98572 0.391 0.15184 0.0
O57 O 0.89428 0.26713 0.16331 0.0
O58 O 0.87734 0.38045 0.17887 0.0
O59 O 0.9409 0.32928 0.29022 0.0
O60 O 0.85974 0.33241 0.13326 0.0
O61 O 0.9395 0.26277 0.22315 0.0
O62 O 0.93915 0.38396 0.2606 0.0
O63 O 0.95121 0.28161 0.071 0.0
O64 O 0.92452 0.39476 0.07276 0.0
O65 O 0.00242 0.35272 0.21954 0.0
Sc66 Sc 0.16474 0.90268 0.59469 0.0
Sc67 Sc 0.15782 0.97203 0.69503 0.0
Sc68 Sc 0.08526 0.92409 0.65622 0.0
O69 O 0.13604 0.93297 0.64848 0.0
C70 C 0.09561 0.90674 0.52053 0.0
C71 C 0.19166 0.97901 0.56595 0.0
C72 C 0.08456 0.00426 0.66381 0.0
C73 C 0.217 0.91621 0.69898 0.0
C74 C 0.11729 0.84834 0.65969 0.0
C75 C 0.10717 0.94033 0.79009 0.0
O76 O 0.12766 0.90197 0.52469 0.0
O77 O 0.18096 -0.00687 0.61393 0.0
O78 O 0.07256 0.97691 0.6419 0.0
O79 O 0.20504 0.8978 0.65782 0.0
O80 O 0.09371 0.86987 0.67179 0.0
O81 O 0.13655 0.95299 0.7787 0.0
O82 O 0.14441 0.85593 0.63121 0.0
O83 O 0.20384 0.94438 0.71508 0.0
O84 O 0.08622 0.93111 0.75027 0.0
O85 O 0.18798 0.94725 0.55446 0.0
O86 O 0.07702 0.91633 0.56353 0.0
O87 O 0.11442 0.00543 0.68588 0.0
Sc88 Sc 0.58865 0.32103 0.87408 0.0
Sc89 Sc 0.52189 0.32426 0.77128 0.0
Sc90 Sc 0.56827 0.39761 0.80368 0.0
O91 O 0.55912 0.34774 0.81733 0.0
C92 C 0.58021 0.39382 0.93878 0.0
C93 C 0.5166 0.29005 0.90182 0.0
C94 C 0.48637 0.39253 0.78902 0.0
C95 C 0.58297 0.27153 0.76413 0.0
C96 C 0.6437 0.36753 0.81618 0.0
C97 C 0.55474 0.37533 0.6743 0.0
O98 O 0.59227 0.36358 0.93383 0.0
O99 O 0.50728 0.29186 0.84725 0.0
O100 O 0.51484 0.40844 0.78734 0.0
O101 O 0.58951 0.27598 0.81915 0.0
O102 O 0.62269 0.39247 0.81328 0.0
O103 O 0.53072 0.35529 0.69089 0.0
O104 O 0.63489 0.33735 0.83135 0.0
O105 O 0.55867 0.28764 0.7384 0.0
O106 O 0.57556 0.38833 0.71103 0.0
O107 O 0.54417 0.30337 0.92069 0.0
O108 O 0.5634 0.4089 0.89741 0.0
O109 O 0.48418 0.36056 0.79952 0.0
Sc110 Sc 0.08476 0.5606 0.30892 0.0
Sc111 Sc 0.16021 0.51457 0.27442 0.0
Sc112 Sc 0.16235 0.58354 0.37566 0.0
O113 O 0.13576 0.55264 0.32006 0.0
C114 C 0.11467 0.63659 0.30747 0.0
C115 C 0.10997 0.54577 0.17642 0.0
C116 C 0.21664 0.57286 0.2714 0.0
C117 C 0.08948 0.47863 0.30601 0.0
C118 C 0.09086 0.57736 0.44538 0.0
C119 C 0.19351 0.50935 0.40484 0.0
O120 O 0.09089 0.61499 0.29956 0.0
O121 O 0.13614 0.5281 0.19076 0.0
O122 O 0.2058 0.58758 0.31799 0.0
O123 O 0.07351 0.50676 0.3139 0.0
O124 O 0.12235 0.58502 0.44161 0.0
O125 O 0.18673 0.49688 0.3538 0.0
O126 O 0.07375 0.56513 0.40252 0.0
O127 O 0.12098 0.47772 0.29225 0.0
O128 O 0.18473 0.53956 0.42059 0.0
O129 O 0.08958 0.55864 0.21429 0.0
O130 O 0.14294 0.62937 0.33272 0.0
O131 O 0.20249 0.54679 0.24878 0.0
Sc132 Sc 0.91232 0.08764 0.82677 0.0
Sc133 Sc 0.96392 0.15666 0.78587 0.0
Sc134 Sc 0.90215 0.16492 0.89995 0.0
O135 O 0.92651 0.13652 0.83815 0.0
C136 C 0.84083 0.12367 0.84993 0.0
C137 C 0.92107 0.11065 0.69515 0.0
C138 C 0.91041 0.21733 0.79019 0.0
C139 C -0.00676 0.08346 0.80137 0.0
C140 C 0.90918 0.0907 0.96384 0.0
C141 C 0.97815 0.19057 0.91345 0.0
O142 O 0.85945 0.09725 0.84357 0.0
O143 O 0.94679 0.1295 0.70682 0.0
O144 O 0.90004 0.20963 0.84261 0.0
O145 O 0.96311 0.07153 0.80468 0.0
O146 O 0.90026 0.12225 0.96295 0.0
O147 O 0.98588 0.18546 0.85886 0.0
O148 O 0.92053 0.07492 0.91849 0.0
O149 O -0.00114 0.11547 0.80509 0.0
O150 O 0.95 0.18092 0.93694 0.0
O151 O 0.90199 0.09762 0.73521 0.0
O152 O 0.85247 0.1523 0.8666 0.0
O153 O 0.93178 0.1993 0.761 0.0
Sc154 Sc 0.38639 0.93195 0.29302 0.0
Sc155 Sc 0.30812 0.96865 0.24993 0.0
Sc156 Sc 0.30986 0.90271 0.35766 0.0
O157 O 0.33493 0.93474 0.30121 0.0
C158 C 0.36537 0.85324 0.301 0.0
C159 C 0.35945 0.93574 0.15814 0.0
C160 C 0.25548 0.90695 0.25448 0.0
C161 C 0.3775 0.01017 0.26944 0.0
C162 C 0.37727 0.91724 0.43297 0.0
C163 C 0.2749 0.97698 0.37707 0.0
O164 O 0.38483 0.87752 0.28412 0.0
O165 O 0.32892 0.94538 0.16993 0.0
O166 O 0.27214 0.88913 0.29216 0.0
O167 O 0.3931 0.98666 0.29831 0.0
O168 O 0.34554 0.91034 0.4293 0.0
O169 O 0.28605 0.99158 0.32939 0.0
O170 O 0.39549 0.92628 0.3882 0.0
O171 O 0.34798 0.00632 0.24726 0.0
O172 O 0.27979 0.94533 0.38989 0.0
O173 O 0.38321 0.93437 0.19699 0.0
O174 O 0.33787 0.85795 0.33028 0.0
O175 O 0.26363 0.93737 0.24042 0.0
Sc176 Sc 0.42105 0.89405 0.79909 0.0
Sc177 Sc 0.46086 0.818 0.75181 0.0
Sc178 Sc 0.39196 0.81518 0.85223 0.0
O179 O 0.42508 0.84239 0.80146 0.0
C180 C 0.40538 0.88195 0.93237 0.0
C181 C 0.50178 0.88302 0.78057 0.0
C182 C 0.46215 0.77772 0.8782 0.0
C183 C 0.43069 0.87667 0.66336 0.0
C184 C 0.34332 0.8707 0.80133 0.0
C185 C 0.39776 0.76872 0.7366 0.0
O186 O 0.4245 0.89761 0.89489 0.0
O187 O 0.50145 0.85063 0.77881 0.0
O188 O 0.43351 0.78951 0.89615 0.0
O189 O 0.41627 0.89398 0.70419 0.0
O190 O 0.34917 0.83904 0.80998 0.0
O191 O 0.4245 0.78308 0.71699 0.0
O192 O 0.36605 0.89381 0.80476 0.0
O193 O 0.44967 0.85041 0.67364 0.0
O194 O 0.3865 0.77431 0.78896 0.0
O195 O 0.47505 0.90122 0.78781 0.0
O196 O 0.39088 0.85351 0.92119 0.0
O197 O 0.47454 0.78373 0.82612 0.0
Sc198 Sc 0.67568 0.40281 0.37704 0.0
Sc199 Sc 0.67546 0.46773 0.26466 0.0
Sc200 Sc 0.59969 0.42438 0.30375 0.0
O201 O 0.65037 0.4318 0.3154 0.0
C202 C 0.62872 0.34809 0.31484 0.0
C203 C 0.73072 0.40769 0.27257 0.0
C204 C 0.62474 0.43668 0.16979 0.0
C205 C 0.70722 0.47754 0.39472 0.0
C206 C 0.60437 0.41196 0.44344 0.0
C207 C 0.60382 0.50486 0.2904 0.0
O208 O 0.65409 0.35599 0.34692 0.0
O209 O 0.71935 0.43549 0.25018 0.0
O210 O 0.6027 0.42969 0.20959 0.0
O211 O 0.70036 0.44706 0.41142 0.0
O212 O 0.58794 0.41878 0.39625 0.0
O213 O 0.63412 0.50452 0.26955 0.0
O214 O 0.63657 0.40744 0.44472 0.0
O215 O 0.69916 0.49002 0.34357 0.0
O216 O 0.58944 0.47782 0.31036 0.0
O217 O 0.71723 0.3927 0.31727 0.0
O218 O 0.60698 0.36967 0.29461 0.0
O219 O 0.65449 0.44805 0.18172 0.0
Sc220 Sc 0.07936 0.66995 0.87315 0.0
Sc221 Sc 0.01461 0.66824 0.76786 0.0
Sc222 Sc 0.05114 0.59234 0.81664 0.0
O223 O 0.04841 0.64348 0.82029 0.0
C224 C 0.1285 0.61385 0.81608 0.0
C225 C 0.07511 0.72169 0.76745 0.0
C226 C 0.04506 0.61533 0.68048 0.0
C227 C 0.00427 0.70334 0.89024 0.0
C228 C 0.06843 0.60528 0.95375 0.0
C229 C 0.97672 0.5972 0.79481 0.0
O230 O 0.12404 0.64003 0.84892 0.0
O231 O 0.04363 0.71521 0.7598 0.0
O232 O 0.04109 0.59251 0.72105 0.0
O233 O 0.0365 0.70193 0.90012 0.0
O234 O 0.06357 0.58579 0.90945 0.0
O235 O 0.98067 0.62473 0.76469 0.0
O236 O 0.06871 0.63781 0.94952 0.0
O237 O 0.98966 0.68876 0.84619 0.0
O238 O -0.00249 0.58872 0.83575 0.0
O239 O 0.09391 0.70329 0.80079 0.0
O240 O 0.1044 0.59497 0.79769 0.0
O241 O 0.04084 0.64731 0.69076 0.0
Sc242 Sc 0.80991 0.0797 0.37821 0.0
Sc243 Sc 0.81533 0.01044 0.28045 0.0
Sc244 Sc 0.88984 0.04821 0.3307 0.0
O245 O 0.83826 0.04598 0.33125 0.0
C246 C 0.86568 0.1266 0.31516 0.0
C247 C 0.76226 0.07121 0.26438 0.0
C248 C 0.87312 0.03783 0.19538 0.0
C249 C 0.777 0.0055 0.40556 0.0
C250 C 0.8743 0.07144 0.4633 0.0
C251 C 0.8835 0.97043 0.32173 0.0
O252 O 0.83722 0.12296 0.34223 0.0
O253 O 0.77126 0.04039 0.25665 0.0
O254 O 0.89406 0.03454 0.23807 0.0
O255 O 0.781 0.0375 0.41532 0.0
O256 O 0.89423 0.06099 0.42271 0.0
O257 O 0.85659 0.97417 0.29055 0.0
O258 O 0.84274 0.07771 0.45528 0.0
O259 O 0.78908 0.98996 0.35968 0.0
O260 O 0.89472 -0.00522 0.35358 0.0
O261 O 0.77415 0.08849 0.30713 0.0
O262 O 0.88693 0.10214 0.30664 0.0
O263 O 0.84105 0.03255 0.2025 0.0
Sc264 Sc 0.42476 0.58875 0.16697 0.0
Sc265 Sc 0.46757 0.66454 0.20511 0.0
Sc266 Sc 0.39548 0.66741 0.11131 0.0
O267 O 0.42944 0.6403 0.16099 0.0
C268 C 0.40248 0.5988 0.0345 0.0
C269 C 0.50362 0.59198 0.18451 0.0
C270 C 0.4697 0.69522 0.07207 0.0
C271 C 0.4357 0.615 0.30198 0.0
C272 C 0.34706 0.61515 0.17604 0.0
C273 C 0.41091 0.72325 0.20914 0.0
O274 O 0.42035 0.5818 0.07182 0.0
O275 O 0.50335 0.62281 0.20186 0.0
O276 O 0.43783 0.68994 0.06309 0.0
O277 O 0.4279 0.59218 0.26372 0.0
O278 O 0.35257 0.64589 0.15887 0.0
O279 O 0.43846 0.70928 0.22602 0.0
O280 O 0.36991 0.59178 0.17619 0.0
O281 O 0.44958 0.64363 0.28859 0.0
O282 O 0.39265 0.71093 0.16817 0.0
O283 O 0.47861 0.5786 0.15769 0.0
O284 O 0.39075 0.62846 0.04537 0.0
O285 O 0.48543 0.68689 0.12048 0.0
Sc286 Sc 0.90211 0.41741 0.66708 0.0
Sc287 Sc 0.83003 0.46555 0.70683 0.0
Sc288 Sc 0.82231 0.39646 0.60974 0.0
O289 O 0.85161 0.42692 0.66058 0.0
C290 C 0.89216 0.40031 0.53503 0.0
C291 C 0.89888 0.49996 0.67018 0.0
C292 C 0.79257 0.46904 0.57873 0.0
C293 C 0.88333 0.4334 0.7997 0.0
C294 C 0.86929 0.34277 0.67364 0.0
C295 C 0.77284 0.41033 0.71958 0.0
O296 O 0.90905 0.41728 0.5728 0.0
O297 O 0.86663 0.5021 0.6758 0.0
O298 O 0.80394 0.44026 0.56051 0.0
O299 O 0.89923 0.41578 0.76129 0.0
O300 O 0.83915 0.35181 0.65887 0.0
O301 O 0.79242 0.43176 0.74422 0.0
O302 O 0.89512 0.3625 0.6696 0.0
O303 O 0.86023 0.45532 0.78642 0.0
O304 O 0.77819 0.39906 0.66732 0.0
O305 O 0.91443 0.47117 0.66939 0.0
O306 O 0.86209 0.38911 0.54429 0.0
O307 O 0.79745 0.48016 0.6316 0.0
Sc308 Sc 0.05127 0.89512 0.15133 0.0
Sc309 Sc 0.01535 0.81795 0.20147 0.0
Sc310 Sc 0.07743 0.81709 0.08859 0.0
O311 O 0.04791 0.8434 0.14648 0.0
C312 C 0.06018 0.8849 0.01188 0.0
C313 C 0.97585 0.88979 0.18613 0.0
C314 C 0.00184 0.78549 0.07546 0.0
C315 C 0.04966 0.86995 0.28706 0.0
C316 C 0.12933 0.87005 0.14289 0.0
C317 C 0.07458 0.76227 0.1925 0.0
O318 O 0.05377 0.9035 0.05664 0.0
O319 O 0.98014 0.86008 0.20847 0.0
O320 O 0.03299 0.78957 0.05957 0.0
O321 O 0.04914 0.8932 0.24691 0.0
O322 O 0.12334 0.84231 0.11567 0.0
O323 O 0.0455 0.77217 0.21052 0.0
O324 O 0.10629 0.8916 0.15761 0.0
O325 O 0.04179 0.8387 0.27747 0.0
O326 O 0.09111 0.77756 0.15155 0.0
O327 O -0.00341 0.90271 0.14835 0.0
O328 O 0.069 0.85364 0.01802 0.0
O329 O 0.98921 0.79648 0.12467 0.0
Sc330 Sc 0.59132 0.06573 0.67659 0.0
Sc331 Sc 0.66362 0.02215 0.73031 0.0
Sc332 Sc 0.67247 0.08658 0.62206 0.0
O333 O 0.64228 0.05759 0.67605 0.0
C334 C 0.60451 0.08 0.5443 0.0
C335 C 0.59405 0.98516 0.70123 0.0
C336 C 0.69978 0.01195 0.60076 0.0
C337 C 0.6081 0.05813 0.81427 0.0
C338 C 0.62384 0.14134 0.67477 0.0
C339 C 0.7209 0.07837 0.73363 0.0
O340 O 0.58777 0.06235 0.58194 0.0
O341 O 0.62558 0.98406 0.71444 0.0
O342 O 0.69107 0.04133 0.58045 0.0
O343 O 0.59012 0.06903 0.77093 0.0
O344 O 0.65434 0.13223 0.66287 0.0
O345 O 0.70164 0.05691 0.75929 0.0
O346 O 0.59823 0.12108 0.67335 0.0
O347 O 0.63526 0.04032 0.80741 0.0
O348 O 0.71655 0.08757 0.67975 0.0
O349 O 0.57856 0.01223 0.68408 0.0
O350 O 0.63384 0.09234 0.5549 0.0
O351 O 0.69409 0.00196 0.65484 0.0
C352 C 0.6343 0.2686 0.21989 0.0
C353 C 0.60949 0.2483 0.25033 0.0
C354 C 0.60954 0.28803 0.33411 0.0
C355 C 0.62617 0.31219 0.29645 0.0
N356 N 0.6615 0.32434 0.21018 0.0
N357 N 0.59157 0.22888 0.34803 0.0
C358 C 0.64104 0.30203 0.24143 0.0
C359 C 0.60248 0.25498 0.31142 0.0
N360 N 0.65344 0.25498 0.1746 0.0
N361 N 0.60027 0.29693 0.39086 0.0
H362 H 0.59026 0.20355 0.33329 0.0
H363 H 0.58776 0.23122 0.3939 0.0
H364 H 0.60843 0.31969 0.41038 0.0
H365 H 0.58431 0.28221 0.4182 0.0
H366 H 0.67289 0.26813 0.15233 0.0
H367 H 0.65384 0.2288 0.16556 0.0
H368 H 0.66965 0.32033 0.1664 0.0
H369 H 0.6691 0.34796 0.2273 0.0
C370 C 0.22141 0.58703 0.79925 0.0
C371 C 0.22353 0.58586 0.73585 0.0
C372 C 0.16673 0.61152 0.72791 0.0
C373 C 0.16252 0.60742 0.79054 0.0
N374 N 0.18389 0.58727 0.88571 0.0
N375 N 0.19558 0.59087 0.63965 0.0
C376 C 0.18937 0.59423 0.82644 0.0
C377 C 0.19556 0.59662 0.69993 0.0
N378 N 0.2501 0.58238 0.83328 0.0
N379 N 0.14341 0.63007 0.69534 0.0
H380 H 0.21565 0.57864 0.61741 0.0
H381 H 0.17416 0.59503 0.61279 0.0
H382 H 0.1221 0.64188 0.71466 0.0
H383 H 0.14697 0.6364 0.65034 0.0
H384 H 0.25051 0.58611 0.87938 0.0
H385 H 0.27428 0.5782 0.81475 0.0
H386 H 0.20154 0.57431 0.91261 0.0
H387 H 0.16048 0.59189 0.90666 0.0
C388 C 0.87725 0.1616 0.22369 0.0
C389 C 0.87301 0.16015 0.28665 0.0
C390 C 0.88646 0.22141 0.29267 0.0
C391 C 0.89662 0.22085 0.23166 0.0
N392 N 0.90535 0.18953 0.14004 0.0
N393 N 0.87215 0.18878 0.38205 0.0
C394 C 0.89282 0.19078 0.19719 0.0
C395 C 0.8769 0.19018 0.32149 0.0
N396 N 0.86484 0.13577 0.189 0.0
N397 N 0.88479 0.25197 0.32227 0.0
H398 H 0.86239 0.1673 0.40422 0.0
H399 H 0.8792 0.20841 0.41078 0.0
H400 H 0.8912 0.2754 0.30223 0.0
H401 H 0.87426 0.25467 0.36482 0.0
H402 H 0.86418 0.13713 0.14242 0.0
H403 H 0.85213 0.11447 0.20693 0.0
H404 H 0.90653 0.16693 0.11547 0.0
H405 H 0.91728 0.21034 0.11899 0.0
C406 C 0.28215 0.88762 0.81447 0.0
C407 C 0.31029 0.88084 0.7763 0.0
C408 C 0.27843 0.90133 0.68954 0.0
C409 C 0.24916 0.90513 0.72653 0.0
N410 N 0.22091 0.89696 0.82194 0.0
N411 N 0.33359 0.87421 0.6769 0.0
C412 C 0.25033 0.89701 0.78856 0.0
C413 C 0.30795 0.88558 0.71358 0.0
N414 N 0.28609 0.88572 0.87517 0.0
N415 N 0.27846 0.91397 0.63218 0.0
H416 H 0.3555 0.86194 0.69304 0.0
H417 H 0.33162 0.87388 0.63043 0.0
H418 H 0.2574 0.92632 0.61297 0.0
H419 H 0.30039 0.91523 0.60557 0.0
H420 H 0.26753 0.89397 0.90541 0.0
H421 H 0.30898 0.87806 0.89537 0.0
H422 H 0.21966 0.88781 0.86583 0.0
H423 H 0.19704 0.90348 0.8043 0.0
C424 C 0.62756 0.22434 0.76125 0.0
C425 C 0.60131 0.24325 0.73198 0.0
C426 C 0.5978 0.19907 0.65518 0.0
C427 C 0.61801 0.17721 0.69206 0.0
N428 N 0.65231 0.16855 0.78109 0.0
N429 N 0.5803 0.25757 0.63378 0.0
C430 C 0.63347 0.18984 0.74485 0.0
C431 C 0.59152 0.23331 0.67363 0.0
N432 N 0.64884 0.24024 0.80063 0.0
N433 N 0.58468 0.18717 0.60269 0.0
H434 H 0.58224 0.28369 0.64285 0.0
H435 H 0.57466 0.25256 0.58923 0.0
H436 H 0.59129 0.16333 0.58507 0.0
H437 H 0.56618 0.20031 0.57793 0.0
H438 H 0.67026 0.22839 0.81946 0.0
H439 H 0.64825 0.26671 0.80715 0.0
H440 H 0.66055 0.17555 0.82355 0.0
H441 H 0.65719 0.14286 0.77142 0.0
C442 C 0.31117 0.5914 0.25915 0.0
C443 C 0.31313 0.60602 0.20075 0.0
C444 C 0.25079 0.60266 0.19165 0.0
C445 C 0.24957 0.58443 0.24674 0.0
N446 N 0.2786 0.55732 0.32997 0.0
N447 N 0.28559 0.62042 0.10708 0.0
C448 C 0.27977 0.57762 0.27968 0.0
C449 C 0.28313 0.61043 0.16574 0.0
N450 N 0.33899 0.59196 0.29602 0.0
N451 N 0.22111 0.61354 0.16525 0.0
H452 H 0.30889 0.62562 0.08599 0.0
H453 H 0.26484 0.62055 0.0779 0.0
H454 H 0.19704 0.60871 0.18385 0.0
H455 H 0.22049 0.62991 0.12812 0.0
H456 H 0.33809 0.58507 0.34114 0.0
H457 H 0.36228 0.60259 0.28312 0.0
H458 H 0.30036 0.54796 0.35159 0.0
H459 H 0.25589 0.54748 0.34765 0.0
C460 C 0.88446 0.31031 0.76576 0.0
C461 C 0.8745 0.30969 0.7049 0.0
C462 C 0.88063 0.24728 0.70504 0.0
C463 C 0.89685 0.24894 0.76181 0.0
N464 N 0.91858 0.28336 0.8429 0.0
N465 N 0.86509 0.27809 0.61427 0.0
C466 C 0.89982 0.2808 0.79158 0.0
C467 C 0.8729 0.27827 0.67379 0.0
N468 N 0.87828 0.33884 0.79928 0.0
N469 N 0.87132 0.21626 0.68225 0.0
H470 H 0.8587 0.30035 0.59038 0.0
H471 H 0.86728 0.25626 0.5879 0.0
H472 H 0.8752 0.19313 0.70524 0.0
H473 H 0.85668 0.21378 0.64365 0.0
H474 H 0.88256 0.33975 0.84525 0.0
H475 H 0.86495 0.36003 0.78233 0.0
H476 H 0.92431 0.30679 0.86263 0.0
H477 H 0.93127 0.26259 0.86266 0.0
C478 C 0.19009 0.88998 0.13406 0.0
C479 C 0.16369 0.87456 0.16816 0.0
C480 C 0.19832 0.87731 0.25866 0.0
C481 C 0.22533 0.8921 0.22455 0.0
N482 N 0.25076 0.90214 0.12725 0.0
N483 N 0.14704 0.84268 0.25669 0.0
C484 C 0.22241 0.89527 0.16128 0.0
C485 C 0.16936 0.86447 0.22839 0.0
N486 N 0.18412 0.90011 0.07632 0.0
N487 N 0.19892 0.87771 0.31982 0.0
H488 H 0.12524 0.83302 0.23593 0.0
H489 H 0.15178 0.83201 0.29883 0.0
H490 H 0.2187 0.88849 0.34444 0.0
H491 H 0.17804 0.87042 0.34615 0.0
H492 H 0.2013 0.91489 0.05138 0.0
H493 H 0.16096 0.89552 0.05465 0.0
H494 H 0.2507 0.90198 0.08064 0.0
H495 H 0.27518 0.90417 0.14562 0.0
C496 C 0.39057 0.69104 0.63883 0.0
C497 C 0.36208 0.6754 0.66743 0.0
C498 C 0.34864 0.72883 0.71834 0.0
C499 C 0.38094 0.74173 0.70003 0.0
N500 N 0.42011 0.74393 0.6158 0.0
N501 N 0.3131 0.67869 0.73343 0.0
C502 C 0.39843 0.72561 0.65198 0.0
C503 C 0.34032 0.69429 0.70591 0.0
N504 N 0.4106 0.67257 0.60034 0.0
N505 N 0.32529 0.75036 0.74406 0.0
H506 H 0.30605 0.65335 0.7252 0.0
H507 H 0.29893 0.69008 0.7675 0.0
H508 H 0.3297 0.7767 0.74756 0.0
H509 H 0.30024 0.74324 0.7543 0.0
H510 H 0.43434 0.68094 0.58474 0.0
H511 H 0.40441 0.64788 0.58638 0.0
H512 H 0.43163 0.73399 0.5776 0.0
H513 H 0.42245 0.77047 0.61792 0.0
C514 C 0.7898 0.38314 0.28008 0.0
C515 C 0.76086 0.3915 0.24458 0.0
C516 C 0.79088 0.37201 0.1545 0.0
C517 C 0.81985 0.36444 0.19032 0.0
N518 N 0.84139 0.34889 0.28769 0.0
N519 N 0.73004 0.38471 0.15183 0.0
C520 C 0.81749 0.36551 0.25342 0.0
C521 C 0.7602 0.38322 0.18275 0.0
N522 N 0.79183 0.39367 0.33817 0.0
N523 N 0.7928 0.36903 0.09379 0.0
H524 H 0.70686 0.39187 0.17146 0.0
H525 H 0.72725 0.37582 0.10834 0.0
H526 H 0.8136 0.35767 0.07233 0.0
H527 H 0.77427 0.37865 0.06466 0.0
H528 H 0.81379 0.39063 0.36409 0.0
H529 H 0.77293 0.4084 0.35885 0.0
H530 H 0.83921 0.34615 0.33399 0.0
H531 H 0.86161 0.335 0.26898 0.0
C532 C 0.12816 0.80163 0.73395 0.0
C533 C 0.11269 0.81261 0.68007 0.0
C534 C 0.08168 0.75842 0.67518 0.0
C535 C 0.09027 0.75175 0.73604 0.0
N536 N 0.11907 0.77045 0.82623 0.0
N537 N 0.07666 0.80089 0.59568 0.0
C538 C 0.11329 0.77394 0.76616 0.0
C539 C 0.08997 0.79079 0.64947 0.0
N540 N 0.15682 0.81766 0.75441 0.0
N541 N 0.06737 0.7333 0.64114 0.0
H542 H 0.08513 0.82285 0.57309 0.0
H543 H 0.05664 0.78813 0.57475 0.0
H544 H 0.06347 0.70838 0.65708 0.0
H545 H 0.06315 0.73591 0.59533 0.0
H546 H 0.17091 0.80847 0.79077 0.0
H547 H 0.16813 0.83828 0.73178 0.0
H548 H 0.13419 0.78739 0.85032 0.0
H549 H 0.10589 0.7532 0.85366 0.0
C550 C 0.68395 0.07483 0.16416 0.0
C551 C 0.66834 0.10505 0.18681 0.0
C552 C 0.72159 0.11972 0.23785 0.0
C553 C 0.73418 0.08625 0.22645 0.0
N554 N 0.73668 0.0429 0.15018 0.0
N555 N 0.67182 0.15592 0.24839 0.0
C556 C 0.71806 0.06659 0.18134 0.0
C557 C 0.68715 0.12769 0.22385 0.0
N558 N 0.66624 0.05411 0.12623 0.0
N559 N 0.74335 0.14483 0.25656 0.0
H560 H 0.64642 0.16287 0.24068 0.0
H561 H 0.68345 0.1707 0.28118 0.0
H562 H 0.76982 0.14124 0.25805 0.0
H563 H 0.73603 0.17044 0.26095 0.0
H564 H 0.67421 0.02948 0.11478 0.0
H565 H 0.64265 0.061 0.10795 0.0
H566 H 0.72721 0.02919 0.11412 0.0
H567 H 0.7632 0.04077 0.15424 0.0
C568 C 0.35215 0.79393 0.26275 0.0
C569 C 0.37595 0.81799 0.28543 0.0
C570 C 0.42308 0.78082 0.25537 0.0
C571 C 0.39928 0.75509 0.23878 0.0
N572 N 0.34131 0.73362 0.24903 0.0
N573 N 0.43325 0.82768 0.32257 0.0
C574 C 0.36379 0.76042 0.24953 0.0
C575 C 0.41117 0.80925 0.28819 0.0
N576 N 0.31914 0.80314 0.25008 0.0
N577 N 0.45645 0.77971 0.23698 0.0
H578 H 0.42515 0.84761 0.35013 0.0
H579 H 0.45869 0.82033 0.32904 0.0
H580 H 0.4661 0.76113 0.20835 0.0
H581 H 0.47348 0.79981 0.24431 0.0
H582 H 0.3022 0.78666 0.22871 0.0
H583 H 0.30981 0.82809 0.25412 0.0
H584 H 0.31561 0.73641 0.26096 0.0
H585 H 0.34913 0.70814 0.24445 0.0
C586 C 0.69877 0.35328 0.76205 0.0
C587 C 0.67974 0.37487 0.80082 0.0
C588 C 0.72195 0.42023 0.78734 0.0
C589 C 0.74244 0.39768 0.7526 0.0
N590 N 0.75562 0.33859 0.72845 0.0
N591 N 0.68077 0.42319 0.86785 0.0
C592 C 0.73263 0.36278 0.74696 0.0
C593 C 0.69394 0.40644 0.81952 0.0
N594 N 0.6843 0.32523 0.7361 0.0
N595 N 0.72718 0.45491 0.78658 0.0
H596 H 0.66138 0.41266 0.89448 0.0
H597 H 0.69197 0.44521 0.88531 0.0
H598 H 0.74508 0.46708 0.75912 0.0
H599 H 0.71065 0.47201 0.80788 0.0
H600 H 0.69697 0.31086 0.70363 0.0
H601 H 0.65869 0.3185 0.74137 0.0
H602 H 0.7499 0.31244 0.72786 0.0
H603 H 0.78143 0.34413 0.72136 0.0
C604 C 0.09545 0.70156 0.18668 0.0
C605 C 0.0896 0.73146 0.221 0.0
C606 C 0.10359 0.69991 0.31322 0.0
C607 C 0.1103 0.67041 0.27856 0.0
N608 N 0.12172 0.64525 0.18231 0.0
N609 N 0.0959 0.76171 0.31407 0.0
C610 C 0.10922 0.67198 0.21518 0.0
C611 C 0.09613 0.73146 0.28352 0.0
N612 N 0.08598 0.70067 0.12783 0.0
N613 N 0.10287 0.69744 0.37427 0.0
H614 H 0.09106 0.78537 0.29341 0.0
H615 H 0.10362 0.7638 0.35845 0.0
H616 H 0.10887 0.67481 0.39739 0.0
H617 H 0.09419 0.71708 0.40179 0.0
H618 H 0.08603 0.67828 0.10268 0.0
H619 H 0.07522 0.72162 0.10526 0.0
H620 H 0.12484 0.64643 0.13604 0.0
H621 H 0.13223 0.62318 0.20187 0.0
C622 C 0.78906 0.08855 0.85198 0.0
C623 C 0.8045 0.11967 0.83405 0.0
C624 C 0.75834 0.12841 0.76213 0.0
C625 C 0.74922 0.09318 0.76883 0.0
N626 N 0.76298 0.03766 0.81367 0.0
N627 N 0.80455 0.16922 0.76723 0.0
C628 C 0.76616 0.07262 0.81258 0.0
C629 C 0.78918 0.14003 0.78831 0.0
N630 N 0.79769 0.07355 0.90525 0.0
N631 N 0.73732 0.15108 0.73296 0.0
H632 H 0.82669 0.17953 0.78538 0.0
H633 H 0.79615 0.18213 0.72886 0.0
H634 H 0.71339 0.14435 0.71653 0.0
H635 H 0.74188 0.17745 0.73176 0.0
H636 H 0.78555 0.05159 0.92182 0.0
H637 H 0.8142 0.08557 0.93516 0.0
H638 H 0.77706 0.02202 0.84275 0.0
H639 H 0.75025 0.02398 0.78068 0.0
C640 C 0.58495 0.05193 0.98033 0.0
C641 C 0.56686 0.08345 0.98682 0.0
C642 C 0.5795 0.09891 0.88382 0.0
C643 C 0.59539 0.06645 0.87492 0.0
N644 N 0.60383 0.00813 0.91183 0.0
N645 N 0.53641 0.12977 0.93901 0.0
C646 C 0.59531 0.04163 0.92217 0.0
C647 C 0.56029 0.10421 0.93618 0.0
N648 N 0.59391 0.03258 0.02915 0.0
N649 N 0.58447 0.12557 0.84452 0.0
H650 H 0.52158 0.13348 0.97733 0.0
H651 H 0.52898 0.1442 0.90169 0.0
H652 H 0.6011 0.12414 0.80814 0.0
H653 H 0.57547 0.15037 0.85242 0.0
H654 H 0.61101 0.01201 0.02669 0.0
H655 H 0.58626 0.03808 0.07261 0.0
H656 H 0.6005 0.98875 0.94381 0.0
H657 H 0.61061 -0.00122 0.86997 0.0
C658 C 0.41952 0.56861 0.44747 0.0
C659 C 0.39209 0.58809 0.47132 0.0
C660 C 0.39612 0.62863 0.38696 0.0
C661 C 0.42397 0.60929 0.36405 0.0
N662 N 0.46979 0.56979 0.38434 0.0
N663 N 0.36201 0.64264 0.47366 0.0
C664 C 0.43796 0.58187 0.39778 0.0
C665 C 0.3826 0.61993 0.44404 0.0
N666 N 0.42723 0.53691 0.47057 0.0
N667 N 0.38164 0.65442 0.35349 0.0
H668 H 0.35239 0.63806 0.51646 0.0
H669 H 0.35747 0.66763 0.45852 0.0
H670 H 0.39088 0.66204 0.31163 0.0
H671 H 0.35864 0.66633 0.36498 0.0
H672 H 0.44503 0.5205 0.45082 0.0
H673 H 0.41364 0.52577 0.50599 0.0
H674 H 0.483 0.55318 0.41293 0.0
H675 H 0.48447 0.5803 0.34965 0.0
C676 C 0.87501 0.40463 0.96117 0.0
C677 C 0.90951 0.39555 0.97232 0.0
C678 C 0.92665 0.42372 0.87932 0.0
C679 C 0.8916 0.42596 0.86266 0.0
N680 N 0.83218 0.41293 0.88549 0.0
N681 N 0.96881 0.39544 0.94245 0.0
C682 C 0.86555 0.41537 0.90313 0.0
C683 C 0.93568 0.40498 0.93169 0.0
N684 N 0.85134 0.40358 0.00623 0.0
N685 N 0.95103 0.44 0.84553 0.0
H686 H 0.97618 0.38228 0.98126 0.0
H687 H 0.98845 0.39852 0.91121 0.0
H688 H 0.94487 0.45501 0.80809 0.0
H689 H 0.97665 0.44156 0.85802 0.0
H690 H 0.82654 0.4132 0.00138 0.0
H691 H 0.85767 0.39681 0.05006 0.0
H692 H 0.81328 0.40156 0.91205 0.0
H693 H 0.82377 0.419 0.84262 0.0
C694 C 0.03917 0.87159 0.39755 0.0
C695 C 0.05966 0.88074 0.34748 0.0
C696 C 0.09537 0.91619 0.41144 0.0
C697 C 0.07968 0.90117 0.46213 0.0
N698 N 0.03766 0.86186 0.5042 0.0
N699 N 0.11073 0.90874 0.30856 0.0
C700 C 0.05163 0.8783 0.45569 0.0
C701 C 0.08861 0.90244 0.35475 0.0
N702 N 0.00723 0.85808 0.38979 0.0
N703 N 0.11634 0.94399 0.41748 0.0
H704 H 0.10795 0.89804 0.26661 0.0
H705 H 0.13391 0.92156 0.3137 0.0
H706 H 0.12079 0.95544 0.45874 0.0
H707 H 0.12594 0.95795 0.38114 0.0
H708 H 0.99006 0.85418 0.425 0.0
H709 H -0.00366 0.85446 0.34779 0.0
H710 H 0.02013 0.84187 0.50035 0.0
H711 H 0.04525 0.86613 0.54806 0.0
C712 C 0.57947 0.38964 0.04813 0.0
C713 C 0.58588 0.41022 -0.0029 0.0
C714 C 0.61644 0.45134 0.05993 0.0
C715 C 0.61492 0.42737 0.10817 0.0
N716 N 0.60221 0.36948 0.14165 0.0
N717 N 0.61419 0.45938 0.95234 0.0
C718 C 0.59847 0.39527 0.10033 0.0
C719 C 0.60521 0.44096 0.00223 0.0
N720 N 0.55537 0.36434 0.04628 0.0
N721 N 0.62731 0.48415 0.06932 0.0
H722 H 0.60615 0.45302 0.90947 0.0
H723 H 0.63158 0.47961 0.95322 0.0
H724 H 0.63528 0.49282 0.11099 0.0
H725 H 0.62558 0.50349 0.03689 0.0
H726 H 0.54782 0.35025 0.08395 0.0
H727 H 0.54047 0.36028 0.00837 0.0
H728 H 0.59315 0.34463 0.13518 0.0
H729 H 0.61787 0.37187 0.17893 0.0
C730 C 0.05059 0.61099 0.51023 0.0
C731 C 0.07382 0.58327 0.50312 0.0
C732 C 0.07876 0.57683 0.61092 0.0
C733 C 0.05398 0.6035 0.6191 0.0
N734 N 0.00863 0.63769 0.5748 0.0
N735 N 0.10121 0.53332 0.54496 0.0
C736 C 0.03755 0.61822 0.56822 0.0
C737 C 0.08485 0.564 0.553 0.0
N738 N 0.04189 0.63115 0.46223 0.0
N739 N 0.09841 0.56515 0.65723 0.0
H740 H 0.10561 0.52315 0.50258 0.0
H741 H 0.10675 0.51643 0.58012 0.0
H742 H 0.09666 0.57469 0.70007 0.0
H743 H 0.11932 0.54878 0.65157 0.0
H744 H 0.0282 0.65404 0.46634 0.0
H745 H 0.05046 0.62632 0.41886 0.0
H746 H -0.00585 0.6465 0.53866 0.0
H747 H -0.0032 0.6416 0.61608 0.0
C748 C 0.88025 0.04547 0.02652 0.0
C749 C 0.90527 0.07163 0.02052 0.0
C750 C 0.9131 0.07293 0.12843 0.0
C751 C 0.8872 0.04707 0.13528 0.0
N752 N 0.85696 0.00023 0.08938 0.0
N753 N 0.9533 0.10139 0.0617 0.0
C754 C 0.87403 0.0307 0.0838 0.0
C755 C 0.92427 0.08237 0.07028 0.0
N756 N 0.86149 0.03558 0.97818 0.0
N757 N 0.92582 0.09026 0.17633 0.0
H758 H 0.96209 0.1085 0.0192 0.0
H759 H 0.97057 0.10687 0.09573 0.0
H760 H 0.91977 0.08508 0.2205 0.0
H761 H 0.94059 0.11239 0.17208 0.0
H762 H 0.8401 0.01975 0.98165 0.0
H763 H 0.86582 0.04498 0.93501 0.0
H764 H 0.84944 0.98565 0.05288 0.0
H765 H 0.85402 0.98743 0.13029 0.0
C766 C 0.40244 0.86255 0.56646 0.0
C767 C 0.42165 0.88589 0.60096 0.0
C768 C 0.41231 0.93099 0.52483 0.0
C769 C 0.3948 0.90686 0.48914 0.0
N770 N 0.3829 0.84723 0.46827 0.0
N771 N 0.45079 0.94015 0.60845 0.0
C772 C 0.39294 0.87188 0.50756 0.0
C773 C 0.42846 0.91952 0.57865 0.0
N774 N 0.39111 0.83235 0.59103 0.0
N775 N 0.41233 0.96491 0.50863 0.0
H776 H 0.46333 0.93218 0.6474 0.0
H777 H 0.45923 0.96373 0.59184 0.0
H778 H 0.40084 0.97397 0.46944 0.0
H779 H 0.42154 0.9843 0.53596 0.0
H780 H 0.37372 0.81634 0.56975 0.0
H781 H 0.39605 0.82499 0.63507 0.0
H782 H 0.38456 0.82101 0.47769 0.0
H783 H 0.37661 0.85274 0.42404 0.0
C784 C 0.40007 0.87857 0.04307 0.0
C785 C 0.3964 0.89824 -0.01011 0.0
C786 C 0.36684 0.94348 0.0464 0.0
C787 C 0.36815 0.92228 0.09823 0.0
N788 N 0.37639 0.86569 0.14057 0.0
N789 N 0.36985 0.9464 0.93834 0.0
C790 C 0.38206 0.88865 0.09502 0.0
C791 C 0.37818 0.93002 -0.00929 0.0
N792 N 0.4211 0.85044 0.0441 0.0
N793 N 0.35535 0.97656 0.05028 0.0
H794 H 0.37727 0.93764 0.89638 0.0
H795 H 0.35311 0.96725 0.93611 0.0
H796 H 0.34495 0.98672 0.0893 0.0
H797 H 0.35805 -0.00548 0.01574 0.0
H798 H 0.42712 0.83698 0.08324 0.0
H799 H 0.43526 0.84273 0.00687 0.0
H800 H 0.38358 0.83992 0.13871 0.0
H801 H 0.36057 0.87147 0.17679 0.0
C802 C 0.58558 0.42933 0.54573 0.0
C803 C 0.58456 0.40561 0.49845 0.0
C804 C 0.55572 0.36335 0.56246 0.0
C805 C 0.55801 0.38666 0.6109 0.0
N806 N 0.56042 0.44621 0.63995 0.0
N807 N 0.55684 0.35628 0.45519 0.0
C808 C 0.56828 0.42116 0.59971 0.0
C809 C 0.56559 0.37474 0.50451 0.0
N810 N 0.60318 0.45941 0.53933 0.0
N811 N 0.54623 0.32994 0.57133 0.0
H812 H 0.56399 0.36318 0.41181 0.0
H813 H 0.53974 0.33579 0.45677 0.0
H814 H 0.53716 0.32001 0.61157 0.0
H815 H 0.54929 0.31116 0.53881 0.0
H816 H 0.60795 0.47583 0.57489 0.0
H817 H 0.6146 0.46697 0.49904 0.0
H818 H 0.56503 0.4722 0.632 0.0
H819 H 0.54553 0.44134 0.67797 0.0
C820 C 0.05731 0.56449 0.03893 0.0
C821 C 0.07909 0.58886 0.01049 0.0
C822 C 0.12552 0.57427 0.07989 0.0
C823 C 0.10246 0.55351 0.11303 0.0
N824 N 0.04801 0.52525 0.12284 0.0
N825 N 0.13318 0.61943 0.00674 0.0
C826 C 0.06885 0.5473 0.09165 0.0
C827 C 0.11296 0.59442 0.03167 0.0
N828 N 0.0255 0.55831 0.0159 0.0
N829 N 0.15967 0.57427 0.09329 0.0
H830 H 0.12708 0.63312 0.96807 0.0
H831 H 0.15555 0.62823 0.02661 0.0
H832 H 0.17042 0.55996 0.12795 0.0
H833 H 0.17821 0.58553 0.06591 0.0
H834 H 0.00947 0.53862 0.03034 0.0
H835 H 0.01509 0.57266 0.98071 0.0
H836 H 0.02206 0.52194 0.11452 0.0
H837 H 0.05696 0.51012 0.15835 0.0
C838 C 0.90247 0.11419 0.52841 0.0
C839 C 0.88969 0.08052 0.52071 0.0
C840 C 0.9082 0.06506 0.62123 0.0
C841 C 0.9142 0.1004 0.63298 0.0
N842 N 0.91397 0.15953 0.59826 0.0
N843 N 0.87924 0.02357 0.55936 0.0
C844 C 0.91087 0.1253 0.58662 0.0
C845 C 0.89223 0.05577 0.56701 0.0
N846 N 0.90751 0.13521 0.47993 0.0
N847 N 0.91914 0.04038 0.66075 0.0
H848 H 0.86876 0.01556 0.51896 0.0
H849 H 0.87687 0.00569 0.5941 0.0
H850 H 0.93298 0.04615 0.69918 0.0
H851 H 0.91796 0.01417 0.65213 0.0
H852 H 0.91979 0.15888 0.48248 0.0
H853 H 0.90282 0.12733 0.43628 0.0
H854 H 0.90766 0.17866 0.56722 0.0
H855 H 0.92011 0.1691 0.64017 0.0
C856 C 0.37842 0.59792 0.87214 0.0
C857 C 0.36864 0.56336 0.86382 0.0
C858 C 0.37992 0.55108 0.96939 0.0
C859 C 0.39426 0.58448 0.97519 0.0
N860 N 0.41498 0.63617 0.92644 0.0
N861 N 0.36596 0.50512 0.90136 0.0
C862 C 0.39594 0.60681 0.92473 0.0
C863 C 0.3711 0.53925 0.91148 0.0
N864 N 0.37001 0.62249 0.83057 0.0
N865 N 0.37276 0.53142 0.0188 0.0
H866 H 0.35934 0.49557 0.85953 0.0
H867 H 0.3711 0.48614 0.93334 0.0
H868 H 0.37716 0.53944 0.06241 0.0
H869 H 0.3592 0.50845 0.01667 0.0
H870 H 0.37409 0.64864 0.8371 0.0
H871 H 0.35531 0.61712 0.79293 0.0
H872 H 0.41913 0.65177 0.88898 0.0
H873 H 0.42967 0.6428 0.96338 0.0
C874 C 0.94338 0.35817 0.4122 0.0
C875 C 0.92663 0.37268 0.36152 0.0
C876 C 0.89601 0.41255 0.4271 0.0
C877 C 0.90757 0.39346 0.47682 0.0
N878 N 0.94001 0.34618 0.51846 0.0
N879 N 0.88301 0.41187 0.32246 0.0
C880 C 0.9307 0.36573 0.47004 0.0
C881 C 0.9021 0.39968 0.36925 0.0
N882 N 0.97249 0.33897 0.40557 0.0
N883 N 0.87917 0.443 0.43531 0.0
H884 H 0.88447 0.40233 0.27948 0.0
H885 H 0.86264 0.42895 0.32749 0.0
H886 H 0.87429 0.45296 0.47768 0.0
H887 H 0.87335 0.45998 0.40046 0.0
H888 H 0.98714 0.3304 0.44166 0.0
H889 H 0.98441 0.33517 0.36436 0.0
H890 H 0.95365 0.32325 0.51475 0.0
H891 H 0.93206 0.35166 0.56196 0.0
C892 C 0.0974 0.8934 0.86083 0.0
C893 C 0.09798 0.9292 0.85096 0.0
C894 C 0.06329 0.93738 0.9415 0.0
C895 C 0.06363 0.901 0.95093 0.0
N896 N 0.06318 0.84692 0.89914 0.0
N897 N 0.07659 0.98545 0.87444 0.0
C898 C 0.07517 0.87968 0.90425 0.0
C899 C 0.07962 0.95144 0.8894 0.0
N900 N 0.11789 0.87228 0.82814 0.0
N901 N 0.04618 0.9582 0.98032 0.0
H902 H 0.08928 -0.00374 0.83768 0.0
H903 H 0.06066 0.00266 0.89657 0.0
H904 H 0.02741 0.94892 0.00946 0.0
H905 H 0.04932 0.98472 0.98166 0.0
H906 H 0.12036 0.8463 0.8387 0.0
H907 H 0.13491 0.88149 0.79568 0.0
H908 H 0.06932 0.83122 0.86306 0.0
H909 H 0.04341 0.83755 0.92626 0.0
C910 C 0.55711 0.10704 0.485 0.0
C911 C 0.58882 0.08896 0.48684 0.0
C912 C 0.59814 0.1011 0.38142 0.0
C913 C 0.56439 0.11452 0.37726 0.0
N914 N 0.50978 0.12637 0.42388 0.0
N915 N 0.63593 0.06238 0.43436 0.0
C916 C 0.54323 0.11648 0.4287 0.0
C917 C 0.60824 0.08398 0.43422 0.0
N918 N 0.5411 0.11685 0.53663 0.0
N919 N 0.62101 0.10596 0.33574 0.0
H920 H 0.6435 0.04846 0.47222 0.0
H921 H 0.64905 0.05557 0.39551 0.0
H922 H 0.61507 0.12047 0.29774 0.0
H923 H 0.6468 0.09919 0.33877 0.0
H924 H 0.52011 0.13344 0.5372 0.0
H925 H 0.55048 0.11129 0.5792 0.0
H926 H 0.49221 0.12411 0.45889 0.0
H927 H 0.49897 0.13454 0.38375 0.0
C928 C 0.40775 0.04514 0.19134 0.0
C929 C 0.39663 0.0412 0.25173 0.0
C930 C 0.42848 0.09237 0.27987 0.0
C931 C 0.44108 0.09484 0.22006 0.0
N932 N 0.4335 0.08236 0.11621 0.0
N933 N 0.38842 0.06541 0.34928 0.0
C934 C 0.42729 0.0742 0.17486 0.0
C935 C 0.40437 0.06635 0.29473 0.0
N936 N 0.40182 0.01994 0.15067 0.0
N937 N 0.44079 0.11356 0.32304 0.0
H938 H 0.37087 0.04635 0.36121 0.0
H939 H 0.39029 0.08485 0.38074 0.0
H940 H 0.45576 0.13495 0.31356 0.0
H941 H 0.43666 0.10965 0.36864 0.0
H942 H 0.41275 0.01956 0.1081 0.0
H943 H 0.38821 -0.00215 0.16112 0.0
H944 H 0.42172 0.07009 0.08057 0.0
H945 H 0.44776 0.10394 0.10372 0.0
C946 C 0.45174 0.44519 0.79466 0.0
C947 C 0.45582 0.41219 0.7702 0.0
C948 C 0.41275 0.42642 0.69396 0.0
C949 C 0.41389 0.46108 0.71217 0.0
N950 N 0.44132 0.50467 0.77191 0.0
N951 N 0.4431 0.37239 0.69009 0.0
C952 C 0.43525 0.47088 0.76039 0.0
C953 C 0.43679 0.40271 0.71849 0.0
N954 N 0.46414 0.45201 0.85039 0.0
N955 N 0.38917 0.41626 0.65277 0.0
H956 H 0.46023 0.35387 0.7055 0.0
H957 H 0.43295 0.36661 0.64833 0.0
H958 H 0.3725 0.43343 0.63148 0.0
H959 H 0.3847 0.39056 0.64285 0.0
H960 H 0.45922 0.47497 0.87252 0.0
H961 H 0.47599 0.43319 0.8768 0.0
H962 H 0.45858 0.51282 0.80424 0.0
H963 H 0.43308 0.52436 0.74377 0.0
C964 C 0.06394 0.39794 0.23003 0.0
C965 C 0.02881 0.4063 0.2214 0.0
C966 C 0.03291 0.4502 0.29847 0.0
C967 C 0.06876 0.44692 0.29746 0.0
N968 N 0.11567 0.40736 0.28807 0.0
N969 N 0.98106 0.44496 0.24236 0.0
C970 C 0.08367 0.41755 0.27083 0.0
C971 C 0.0135 0.43359 0.25431 0.0
N972 N 0.07856 0.3723 0.19717 0.0
N973 N 0.01749 0.46823 0.34322 0.0
H974 H 0.96587 0.43564 0.20818 0.0
H975 H 0.97057 0.46673 0.26219 0.0
H976 H 0.03161 0.47841 0.37847 0.0
H977 H -0.00898 0.46901 0.34944 0.0
H978 H 0.10464 0.36675 0.19718 0.0
H979 H 0.06483 0.35816 0.16593 0.0
H980 H 0.12765 0.38503 0.27352 0.0
H981 H 0.12851 0.41937 0.32301 0.0
C982 C 0.0257 0.02113 0.69213 0.0
C983 C 0.05986 0.03143 0.68251 0.0
C984 C 0.05335 0.07423 0.76185 0.0
C985 C 0.02021 0.06095 0.77461 0.0
N986 N 0.98504 0.0099 0.77021 0.0
N987 N 0.10188 0.07572 0.69311 0.0
C988 C 0.00934 0.03076 0.74536 0.0
C989 C 0.07242 0.0606 0.71294 0.0
N990 N 0.00866 0.00262 0.65023 0.0
N991 N 0.06753 0.09754 0.79962 0.0
H992 H 0.11461 0.06698 0.65496 0.0
H993 H 0.11153 0.09854 0.71 0.0
H994 H 0.05562 0.10447 0.83962 0.0
H995 H 0.09245 0.10668 0.79548 0.0
H996 H 0.98294 -0.00405 0.65509 0.0
H997 H 0.01901 -0.00168 0.6078 0.0
H998 H 0.97787 0.98672 0.75091 0.0
H999 H 0.9762 0.01323 0.81391 0.0
C1000 C 0.5563 0.95868 0.7785 0.0
C1001 C 0.57305 0.95615 0.72208 0.0
C1002 C 0.54899 0.89905 0.7089 0.0
C1003 C 0.53355 0.90156 0.76668 0.0
N1004 N 0.5329 0.92772 0.86337 0.0
N1005 N 0.59201 0.92115 0.64003 0.0
C1006 C 0.54125 0.92924 0.80399 0.0
C1007 C 0.57192 0.92522 0.68963 0.0
N1008 N 0.55275 0.98952 0.80631 0.0
N1009 N 0.54002 0.87344 0.67068 0.0
H1010 H 0.60787 0.94057 0.62338 0.0
H1011 H 0.59476 0.89777 0.6182 0.0
H1012 H 0.52402 0.85316 0.68247 0.0
H1013 H 0.54706 0.87334 0.62568 0.0
H1014 H 0.53787 -0.0071 0.84463 0.0
H1015 H 0.56136 0.01236 0.78768 0.0
H1016 H 0.54044 0.94632 0.89386 0.0
H1017 H 0.52169 0.90593 0.88269 0.0
C1018 C 0.59099 0.56157 0.23784 0.0
C1019 C 0.58105 0.53511 0.2783 0.0
C1020 C 0.5209 0.54487 0.25515 0.0
C1021 C 0.53048 0.56943 0.21038 0.0
N1022 N 0.57445 0.6001 0.15644 0.0
N1023 N 0.53775 0.51663 0.34748 0.0
C1024 C 0.56556 0.57781 0.20146 0.0
C1025 C 0.54625 0.53169 0.294 0.0
N1026 N 0.62407 0.57282 0.23792 0.0
N1027 N 0.48793 0.53345 0.26056 0.0
H1028 H 0.55629 0.51084 0.37968 0.0
H1029 H 0.51276 0.51301 0.36238 0.0
H1030 H 0.46759 0.542 0.23466 0.0
H1031 H 0.48109 0.51271 0.28782 0.0
H1032 H 0.63299 0.59331 0.21211 0.0
H1033 H 0.64165 0.5644 0.26997 0.0
H1034 H 0.5996 0.60512 0.14363 0.0
H1035 H 0.55636 0.61157 0.12829 0.0
C1036 C 0.90383 0.56078 0.70613 0.0
C1037 C 0.91967 0.53119 0.68206 0.0
C1038 C 0.9722 0.54314 0.73584 0.0
C1039 C 0.95555 0.57088 0.76553 0.0
N1040 N 0.90489 0.60502 0.78197 0.0
N1041 N 0.97285 0.50797 0.64717 0.0
C1042 C 0.92117 0.57959 0.75103 0.0
C1043 C 0.95525 0.52685 0.68829 0.0
N1044 N 0.87353 0.57203 0.68266 0.0
N1045 N 0.00343 0.53108 0.75396 0.0
H1046 H 0.96067 0.49771 0.60983 0.0
H1047 H -0.00049 0.5064 0.64601 0.0
H1048 H 0.01662 0.54016 0.79077 0.0
H1049 H 0.0146 0.509 0.73638 0.0
H1050 H 0.8614 0.59472 0.69509 0.0
H1051 H 0.86281 0.56065 0.645 0.0
H1052 H 0.87896 0.61073 0.77756 0.0
H1053 H 0.91682 0.61851 0.81622 0.0
C1054 C 0.89443 0.9156 0.26645 0.0
C1055 C 0.90708 0.94195 0.30377 0.0
C1056 C 0.96381 0.93628 0.25942 0.0
C1057 C 0.95096 0.91182 0.21822 0.0
N1058 N 0.90408 0.87831 0.18109 0.0
N1059 N 0.95656 0.96091 0.35756 0.0
C1060 C 0.91623 0.90117 0.22187 0.0
C1061 C 0.94269 0.94729 0.30711 0.0
N1062 N 0.86201 0.90365 0.27618 0.0
N1063 N -0.00417 0.94985 0.25269 0.0
H1064 H 0.94186 0.96535 0.39581 0.0
H1065 H 0.98288 0.96274 0.36452 0.0
H1066 H 0.01185 0.94442 0.21679 0.0
H1067 H 0.00487 0.96981 0.27902 0.0
H1068 H 0.85104 0.88336 0.25326 0.0
H1069 H 0.84713 0.91237 0.31192 0.0
H1070 H 0.87858 0.87091 0.17805 0.0
H1071 H 0.9194 0.86836 0.14699 0.0
C1072 C 0.48606 0.21545 -0.00504 0.0
C1073 C 0.49364 0.2306 0.05047 0.0
C1074 C 0.49082 0.287 0.00284 0.0
C1075 C 0.49582 0.27105 0.94686 0.0
N1076 N 0.4912 0.21983 0.88711 0.0
N1077 N 0.49723 0.28155 0.11037 0.0
C1078 C 0.49015 0.23523 0.94168 0.0
C1079 C 0.493 0.26675 0.0558 0.0
N1080 N 0.47591 0.182 -0.00603 0.0
N1081 N 0.48504 0.32152 0.00459 0.0
H1082 H 0.49788 0.26721 0.14999 0.0
H1083 H 0.50099 0.30778 0.11602 0.0
H1084 H 0.48341 0.33627 0.96537 0.0
H1085 H 0.4789 0.33458 0.04367 0.0
H1086 H 0.46733 0.16985 0.95552 0.0
H1087 H 0.47321 0.16764 0.03345 0.0
H1088 H 0.49115 0.19331 0.88165 0.0
H1089 H 0.49262 0.23357 0.84702 0.0
C1090 C 0.20078 0.48405 0.50638 0.0
C1091 C 0.21414 0.48896 0.44813 0.0
C1092 C 0.27229 0.48042 0.48591 0.0
C1093 C 0.25925 0.48495 0.54437 0.0
N1094 N 0.212 0.48446 0.61326 0.0
N1095 N 0.26069 0.47942 0.37897 0.0
C1096 C 0.22363 0.48333 0.55563 0.0
C1097 C 0.24935 0.48243 0.43656 0.0
N1098 N 0.16627 0.48055 0.51373 0.0
N1099 N 0.30687 0.47696 0.47845 0.0
H1100 H 0.24425 0.47995 0.34241 0.0
H1101 H 0.28598 0.47473 0.36691 0.0
H1102 H 0.3233 0.47491 0.51513 0.0
H1103 H 0.31929 0.47563 0.43734 0.0
H1104 H 0.15461 0.47465 0.55445 0.0
H1105 H 0.14972 0.48046 0.4771 0.0
H1106 H 0.18637 0.48756 0.62502 0.0
H1107 H 0.22869 0.48296 0.64961 0.0
C1108 C 0.00803 0.26975 0.98815 0.0
C1109 C 0.00366 0.25682 0.04689 0.0
C1110 C 0.00749 0.19827 0.00989 0.0
C1111 C 0.0009 0.21125 0.9518 0.0
N1112 N 0.00358 0.25873 0.88171 0.0
N1113 N 0.00582 0.20944 0.11654 0.0
C1114 C 0.00512 0.24682 0.9393 0.0
C1115 C 0.00684 0.2212 0.05883 0.0
N1116 N 0.01296 0.30418 0.98006 0.0
N1117 N 0.01264 0.16384 0.01758 0.0
H1118 H 0.00637 0.22604 0.15287 0.0
H1119 H 0.0037 0.1836 0.12835 0.0
H1120 H 0.01289 0.14719 0.98117 0.0
H1121 H 0.01945 0.15246 0.05819 0.0
H1122 H 0.01782 0.31584 0.93884 0.0
H1123 H 0.01466 0.32073 0.01648 0.0
H1124 H 0.00228 0.28462 0.86997 0.0
H1125 H 0.00361 0.24247 0.84502 0.0
C1126 C 0.26977 0.00086 0.4788 0.0
C1127 C 0.25504 -0.00334 0.42157 0.0
C1128 C 0.19795 0.00421 0.4647 0.0
C1129 C 0.21221 -0.00124 0.52199 0.0
N1130 N 0.26122 -0.0017 0.58663 0.0
N1131 N 0.20578 -0.00099 0.35728 0.0
C1132 C 0.24812 0.00024 0.53011 0.0
C1133 C 0.21931 0.00096 0.4134 0.0
N1134 N 0.30451 0.00388 0.4834 0.0
N1135 N 0.16383 0.01128 0.46014 0.0
H1136 H 0.22115 -0.00245 0.3191 0.0
H1137 H 0.17963 -0.0021 0.34868 0.0
H1138 H 0.14833 0.01342 0.49814 0.0
H1139 H 0.15176 0.01778 0.42012 0.0
H1140 H 0.31728 0.00862 0.52324 0.0
H1141 H 0.32032 0.00424 0.44559 0.0
H1142 H 0.28715 -0.0046 0.59613 0.0
H1143 H 0.24556 -0.00108 0.62454 0.0
C1144 C 0.49184 0.75024 0.02933 0.0
C1145 C 0.48767 0.71432 0.02369 0.0
C1146 C 0.483 0.72012 0.91498 0.0
C1147 C 0.48134 0.75627 0.92184 0.0
N1148 N 0.49651 0.80578 0.97901 0.0
N1149 N 0.49396 0.66461 0.96268 0.0
C1150 C 0.49031 0.7713 0.97706 0.0
C1151 C 0.48865 0.69916 0.96656 0.0
N1152 N 0.49488 0.7641 0.08488 0.0
N1153 N 0.4766 0.7059 0.86054 0.0
H1154 H 0.49783 0.64945 0.00092 0.0
H1155 H 0.4972 0.65172 0.92246 0.0
H1156 H 0.47297 0.72067 0.82191 0.0
H1157 H 0.47396 0.67963 0.85383 0.0
H1158 H 0.49358 0.79029 0.09345 0.0
H1159 H 0.49855 0.74879 0.12284 0.0
H1160 H 0.50508 0.81844 0.01689 0.0
H1161 H 0.4956 0.82126 0.9406 0.0
C1162 C 0.73555 0.49291 0.54579 0.0
C1163 C 0.77133 0.48917 0.53606 0.0
C1164 C 0.76373 0.4988 0.42865 0.0
C1165 C 0.72787 0.49727 0.43759 0.0
N1166 N 0.68016 0.50738 0.50235 0.0
N1167 N 0.82001 0.50248 0.47436 0.0
C1168 C 0.71415 0.50008 0.49586 0.0
C1169 C 0.78558 0.49721 0.47933 0.0
N1170 N 0.72174 0.48661 0.60104 0.0
N1171 N 0.77674 0.4986 0.37191 0.0
H1172 H 0.83603 0.50166 0.51171 0.0
H1173 H 0.83192 0.51076 0.43507 0.0
H1174 H 0.76114 0.5011 0.33432 0.0
H1175 H 0.80261 0.49503 0.3622 0.0
H1176 H 0.69551 0.48482 0.609 0.0
H1177 H 0.73652 0.48173 0.63889 0.0
H1178 H 0.66847 0.51198 0.54346 0.0
H1179 H 0.66455 0.51186 0.46515 0.0
C1180 C 0.979 0.70799 -0.00865 0.0
C1181 C 0.98384 0.72289 0.93397 0.0
C1182 C 0.97625 0.7801 0.97579 0.0
C1183 C 0.98086 0.76561 0.03344 0.0
N1184 N 0.98024 0.71649 0.09906 0.0
N1185 N 0.98146 0.772 0.86833 0.0
C1186 C 0.97894 0.72963 0.04225 0.0
C1187 C 0.97955 0.75866 0.92497 0.0
N1188 N 0.97619 0.67314 -0.00348 0.0
N1189 N 0.97081 0.81465 0.97056 0.0
H1190 H 0.98295 0.75633 0.83075 0.0
H1191 H 0.98217 0.79816 0.8585 0.0
H1192 H 0.96883 0.83019 0.00829 0.0
H1193 H 0.96585 0.82729 0.93027 0.0
H1194 H 0.97111 0.66023 0.03654 0.0
H1195 H 0.97644 0.65733 0.95901 0.0
H1196 H 0.98276 0.69048 0.10921 0.0
H1197 H 0.97922 0.73225 0.13654 0.0
C1198 C 0.72168 0.98475 0.44841 0.0
C1199 C 0.75776 0.98657 0.45256 0.0
C1200 C 0.75432 0.98617 0.56198 0.0
C1201 C 0.7183 0.9899 0.55743 0.0
N1202 N 0.66725 0.97957 0.50122 0.0
N1203 N 0.80825 0.97558 0.51016 0.0
C1204 C 0.7019 0.98404 0.502 0.0
C1205 C 0.77393 0.98215 0.50866 0.0
N1206 N 0.70657 0.98652 0.39346 0.0
N1207 N 0.76982 0.98952 0.61627 0.0
H1208 H 0.82259 0.97302 0.47087 0.0
H1209 H 0.82159 0.96967 0.5492 0.0
H1210 H 0.75592 0.99132 0.65603 0.0
H1211 H 0.79621 0.99139 0.62177 0.0
H1212 H 0.68032 0.98931 0.38704 0.0
H1213 H 0.72093 0.98604 0.35397 0.0
H1214 H 0.65349 0.97342 0.463 0.0
H1215 H 0.65282 0.97934 0.5407 0.0
loop_
_geom_bond_atom_site_label_1
_geom_bond_atom_site_label_2
_geom_bond_distance
_geom_bond_site_symmetry_2
_ccdc_geom_bond_type
Sc0 O3 2.025 . S
Sc0 O10 2.105 . S
Sc0 O13 2.105 . S
Sc0 O16 2.105 . S
Sc0 O19 2.105 . S
Sc1 O3 2.025 . S
Sc1 O11 2.105 . S
Sc1 O15 2.105 . S
Sc1 O17 2.105 . S
Sc1 O21 2.105 . S
Sc2 O3 2.025 . S
Sc2 O12 2.105 . S
Sc2 O14 2.105 . S
Sc2 O18 2.105 . S
Sc2 O20 2.105 . S
O3 Sc0 2.025 . S
O3 Sc1 2.025 . S
O3 Sc2 2.025 . S
C4 O10 1.268 . S
C4 O20 1.268 . S
C5 O11 1.268 . S
C5 O19 1.268 . S
C6 O12 1.268 . S
C6 O21 1.268 . S
C7 O13 1.268 . S
C7 O17 1.268 . S
C8 O14 1.268 . S
C8 O16 1.268 . S
C9 O15 1.268 . S
C9 O18 1.268 . S
O10 Sc0 2.105 . S
O10 C4 1.268 . S
O11 Sc1 2.105 . S
O11 C5 1.268 . S
O12 Sc2 2.105 . S
O12 C6 1.268 . S
O13 Sc0 2.105 . S
O13 C7 1.268 . S
O14 Sc2 2.105 . S
O14 C8 1.268 . S
O15 Sc1 2.105 . S
O15 C9 1.268 . S
O16 Sc0 2.105 . S
O16 C8 1.268 . S
O17 Sc1 2.105 . S
O17 C7 1.268 . S
O18 Sc2 2.105 . S
O18 C9 1.268 . S
O19 Sc0 2.105 . S
O19 C5 1.268 . S
O20 Sc2 2.105 . S
O20 C4 1.268 . S
O21 Sc1 2.105 . S
O21 C6 1.268 . S
Sc22 O25 2.025 . S
Sc22 O32 2.105 . S
Sc22 O35 2.105 . S
Sc22 O38 2.105 . S
Sc22 O41 2.105 . S
Sc23 O25 2.025 . S
Sc23 O33 2.105 . S
Sc23 O37 2.105 . S
Sc23 O39 2.105 . S
Sc23 O43 2.105 . S
Sc24 O25 2.025 . S
Sc24 O34 2.105 . S
Sc24 O36 2.105 . S
Sc24 O40 2.105 . S
Sc24 O42 2.105 . S
O25 Sc22 2.025 . S
O25 Sc23 2.025 . S
O25 Sc24 2.025 . S
C26 O32 1.268 . S
C26 O42 1.268 . S
C27 O33 1.268 . S
C27 O41 1.268 . S
C28 O34 1.268 . S
C28 O43 1.268 . S
C29 O35 1.268 . S
C29 O39 1.268 . S
C30 O36 1.268 . S
C30 O38 1.268 . S
C31 O37 1.268 . S
C31 O40 1.268 . S
O32 Sc22 2.105 . S
O32 C26 1.268 . S
O33 Sc23 2.105 . S
O33 C27 1.268 . S
O34 Sc24 2.105 . S
O34 C28 1.268 . S
O35 Sc22 2.105 . S
O35 C29 1.268 . S
O36 Sc24 2.105 . S
O36 C30 1.268 . S
O37 Sc23 2.105 . S
O37 C31 1.268 . S
O38 Sc22 2.105 . S
O38 C30 1.268 . S
O39 Sc23 2.105 . S
O39 C29 1.268 . S
O40 Sc24 2.105 . S
O40 C31 1.268 . S
O41 Sc22 2.105 . S
O41 C27 1.268 . S
O42 Sc24 2.105 . S
O42 C26 1.268 . S
O43 Sc23 2.105 . S
O43 C28 1.268 . S
Sc44 O47 2.025 . S
Sc44 O54 2.105 . S
Sc44 O57 2.105 . S
Sc44 O60 2.105 . S
Sc44 O63 2.105 . S
Sc45 O47 2.025 . S
Sc45 O55 2.105 . S
Sc45 O59 2.105 . S
Sc45 O61 2.105 . S
Sc45 O65 2.105 1_655 S
Sc46 O47 2.025 . S
Sc46 O56 2.105 . S
Sc46 O58 2.105 . S
Sc46 O62 2.105 . S
Sc46 O64 2.105 . S
O47 Sc44 2.025 . S
O47 Sc45 2.025 . S
O47 Sc46 2.025 . S
C48 O54 1.268 . S
C48 O64 1.268 . S
C49 O55 1.268 . S
C49 O63 1.268 . S
C50 O56 1.268 1_455 S
C50 O65 1.268 . S
C51 O57 1.268 . S
C51 O61 1.268 . S
C52 O58 1.268 . S
C52 O60 1.268 . S
C53 O59 1.268 . S
C53 O62 1.268 . S
O54 Sc44 2.105 . S
O54 C48 1.268 . S
O55 Sc45 2.105 . S
O55 C49 1.268 . S
O56 Sc46 2.105 . S
O56 C50 1.268 1_655 S
O57 Sc44 2.105 . S
O57 C51 1.268 . S
O58 Sc46 2.105 . S
O58 C52 1.268 . S
O59 Sc45 2.105 . S
O59 C53 1.268 . S
O60 Sc44 2.105 . S
O60 C52 1.268 . S
O61 Sc45 2.105 . S
O61 C51 1.268 . S
O62 Sc46 2.105 . S
O62 C53 1.268 . S
O63 Sc44 2.105 . S
O63 C49 1.268 . S
O64 Sc46 2.105 . S
O64 C48 1.268 . S
O65 Sc45 2.105 1_455 S
O65 C50 1.268 . S
Sc66 O69 2.025 . S
Sc66 O76 2.105 . S
Sc66 O79 2.105 . S
Sc66 O82 2.105 . S
Sc66 O85 2.105 . S
Sc67 O69 2.025 . S
Sc67 O77 2.105 . S
Sc67 O81 2.105 . S
Sc67 O83 2.105 . S
Sc67 O87 2.105 1_565 S
Sc68 O69 2.025 . S
Sc68 O78 2.105 . S
Sc68 O80 2.105 . S
Sc68 O84 2.105 . S
Sc68 O86 2.105 . S
O69 Sc66 2.025 . S
O69 Sc67 2.025 . S
O69 Sc68 2.025 . S
C70 O76 1.268 . S
C70 O86 1.268 . S
C71 O77 1.268 . S
C71 O85 1.268 . S
C72 O78 1.268 1_545 S
C72 O87 1.268 . S
C73 O79 1.268 . S
C73 O83 1.268 . S
C74 O80 1.268 . S
C74 O82 1.268 . S
C75 O81 1.268 . S
C75 O84 1.268 . S
O76 Sc66 2.105 . S
O76 C70 1.268 . S
O77 Sc67 2.105 . S
O77 C71 1.268 . S
O78 Sc68 2.105 . S
O78 C72 1.268 1_565 S
O79 Sc66 2.105 . S
O79 C73 1.268 . S
O80 Sc68 2.105 . S
O80 C74 1.268 . S
O81 Sc67 2.105 . S
O81 C75 1.268 . S
O82 Sc66 2.105 . S
O82 C74 1.268 . S
O83 Sc67 2.105 . S
O83 C73 1.268 . S
O84 Sc68 2.105 . S
O84 C75 1.268 . S
O85 Sc66 2.105 . S
O85 C71 1.268 . S
O86 Sc68 2.105 . S
O86 C70 1.268 . S
O87 Sc67 2.105 1_545 S
O87 C72 1.268 . S
Sc88 O91 2.025 . S
Sc88 O98 2.105 . S
Sc88 O101 2.105 . S
Sc88 O104 2.105 . S
Sc88 O107 2.105 . S
Sc89 O91 2.025 . S
Sc89 O99 2.105 . S
Sc89 O103 2.105 . S
Sc89 O105 2.105 . S
Sc89 O109 2.105 . S
Sc90 O91 2.025 . S
Sc90 O100 2.105 . S
Sc90 O102 2.105 . S
Sc90 O106 2.105 . S
Sc90 O108 2.105 . S
O91 Sc88 2.025 . S
O91 Sc89 2.025 . S
O91 Sc90 2.025 . S
C92 O98 1.268 . S
C92 O108 1.268 . S
C93 O99 1.268 . S
C93 O107 1.268 . S
C94 O100 1.268 . S
C94 O109 1.268 . S
C95 O101 1.268 . S
C95 O105 1.268 . S
C96 O102 1.268 . S
C96 O104 1.268 . S
C97 O103 1.268 . S
C97 O106 1.268 . S
O98 Sc88 2.105 . S
O98 C92 1.268 . S
O99 Sc89 2.105 . S
O99 C93 1.268 . S
O100 Sc90 2.105 . S
O100 C94 1.268 . S
O101 Sc88 2.105 . S
O101 C95 1.268 . S
O102 Sc90 2.105 . S
O102 C96 1.268 . S
O103 Sc89 2.105 . S
O103 C97 1.268 . S
O104 Sc88 2.105 . S
O104 C96 1.268 . S
O105 Sc89 2.105 . S
O105 C95 1.268 . S
O106 Sc90 2.105 . S
O106 C97 1.268 . S
O107 Sc88 2.105 . S
O107 C93 1.268 . S
O108 Sc90 2.105 . S
O108 C92 1.268 . S
O109 Sc89 2.105 . S
O109 C94 1.268 . S
Sc110 O113 2.025 . S
Sc110 O120 2.105 . S
Sc110 O123 2.105 . S
Sc110 O126 2.105 . S
Sc110 O129 2.105 . S
Sc111 O113 2.025 . S
Sc111 O121 2.105 . S
Sc111 O125 2.105 . S
Sc111 O127 2.105 . S
Sc111 O131 2.105 . S
Sc112 O113 2.025 . S
Sc112 O122 2.105 . S
Sc112 O124 2.105 . S
Sc112 O128 2.105 . S
Sc112 O130 2.105 . S
O113 Sc110 2.025 . S
O113 Sc111 2.025 . S
O113 Sc112 2.025 . S
C114 O120 1.268 . S
C114 O130 1.268 . S
C115 O121 1.268 . S
C115 O129 1.268 . S
C116 O122 1.268 . S
C116 O131 1.268 . S
C117 O123 1.268 . S
C117 O127 1.268 . S
C118 O124 1.268 . S
C118 O126 1.268 . S
C119 O125 1.268 . S
C119 O128 1.268 . S
O120 Sc110 2.105 . S
O120 C114 1.268 . S
O121 Sc111 2.105 . S
O121 C115 1.268 . S
O122 Sc112 2.105 . S
O122 C116 1.268 . S
O123 Sc110 2.105 . S
O123 C117 1.268 . S
O124 Sc112 2.105 . S
O124 C118 1.268 . S
O125 Sc111 2.105 . S
O125 C119 1.268 . S
O126 Sc110 2.105 . S
O126 C118 1.268 . S
O127 Sc111 2.105 . S
O127 C117 1.268 . S
O128 Sc112 2.105 . S
O128 C119 1.268 . S
O129 Sc110 2.105 . S
O129 C115 1.268 . S
O130 Sc112 2.105 . S
O130 C114 1.268 . S
O131 Sc111 2.105 . S
O131 C116 1.268 . S
Sc132 O135 2.025 . S
Sc132 O142 2.105 . S
Sc132 O145 2.105 . S
Sc132 O148 2.105 . S
Sc132 O151 2.105 . S
Sc133 O135 2.025 . S
Sc133 O143 2.105 . S
Sc133 O147 2.105 . S
Sc133 O149 2.105 1_655 S
Sc133 O153 2.105 . S
Sc134 O135 2.025 . S
Sc134 O144 2.105 . S
Sc134 O146 2.105 . S
Sc134 O150 2.105 . S
Sc134 O152 2.105 . S
O135 Sc132 2.025 . S
O135 Sc133 2.025 . S
O135 Sc134 2.025 . S
C136 O142 1.268 . S
C136 O152 1.268 . S
C137 O143 1.268 . S
C137 O151 1.268 . S
C138 O144 1.268 . S
C138 O153 1.268 . S
C139 O145 1.268 1_455 S
C139 O149 1.268 . S
C140 O146 1.268 . S
C140 O148 1.268 . S
C141 O147 1.268 . S
C141 O150 1.268 . S
O142 Sc132 2.105 . S
O142 C136 1.268 . S
O143 Sc133 2.105 . S
O143 C137 1.268 . S
O144 Sc134 2.105 . S
O144 C138 1.268 . S
O145 Sc132 2.105 . S
O145 C139 1.268 1_655 S
O146 Sc134 2.105 . S
O146 C140 1.268 . S
O147 Sc133 2.105 . S
O147 C141 1.268 . S
O148 Sc132 2.105 . S
O148 C140 1.268 . S
O149 Sc133 2.105 1_455 S
O149 C139 1.268 . S
O150 Sc134 2.105 . S
O150 C141 1.268 . S
O151 Sc132 2.105 . S
O151 C137 1.268 . S
O152 Sc134 2.105 . S
O152 C136 1.268 . S
O153 Sc133 2.105 . S
O153 C138 1.268 . S
Sc154 O157 2.025 . S
Sc154 O164 2.105 . S
Sc154 O167 2.105 . S
Sc154 O170 2.105 . S
Sc154 O173 2.105 . S
Sc155 O157 2.025 . S
Sc155 O165 2.105 . S
Sc155 O169 2.105 . S
Sc155 O171 2.105 1_565 S
Sc155 O175 2.105 . S
Sc156 O157 2.025 . S
Sc156 O166 2.105 . S
Sc156 O168 2.105 . S
Sc156 O172 2.105 . S
Sc156 O174 2.105 . S
O157 Sc154 2.025 . S
O157 Sc155 2.025 . S
O157 Sc156 2.025 . S
C158 O164 1.268 . S
C158 O174 1.268 . S
C159 O165 1.268 . S
C159 O173 1.268 . S
C160 O166 1.268 . S
C160 O175 1.268 . S
C161 O167 1.268 1_545 S
C161 O171 1.268 . S
C162 O168 1.268 . S
C162 O170 1.268 . S
C163 O169 1.268 . S
C163 O172 1.268 . S
O164 Sc154 2.105 . S
O164 C158 1.268 . S
O165 Sc155 2.105 . S
O165 C159 1.268 . S
O166 Sc156 2.105 . S
O166 C160 1.268 . S
O167 Sc154 2.105 . S
O167 C161 1.268 1_565 S
O168 Sc156 2.105 . S
O168 C162 1.268 . S
O169 Sc155 2.105 . S
O169 C163 1.268 . S
O170 Sc154 2.105 . S
O170 C162 1.268 . S
O171 Sc155 2.105 1_545 S
O171 C161 1.268 . S
O172 Sc156 2.105 . S
O172 C163 1.268 . S
O173 Sc154 2.105 . S
O173 C159 1.268 . S
O174 Sc156 2.105 . S
O174 C158 1.268 . S
O175 Sc155 2.105 . S
O175 C160 1.268 . S
Sc176 O179 2.025 . S
Sc176 O186 2.105 . S
Sc176 O189 2.105 . S
Sc176 O192 2.105 . S
Sc176 O195 2.105 . S
Sc177 O179 2.025 . S
Sc177 O187 2.105 . S
Sc177 O191 2.105 . S
Sc177 O193 2.105 . S
Sc177 O197 2.105 . S
Sc178 O179 2.025 . S
Sc178 O188 2.105 . S
Sc178 O190 2.105 . S
Sc178 O194 2.105 . S
Sc178 O196 2.105 . S
O179 Sc176 2.025 . S
O179 Sc177 2.025 . S
O179 Sc178 2.025 . S
C180 O186 1.268 . S
C180 O196 1.268 . S
C181 O187 1.268 . S
C181 O195 1.268 . S
C182 O188 1.268 . S
C182 O197 1.268 . S
C183 O189 1.268 . S
C183 O193 1.268 . S
C184 O190 1.268 . S
C184 O192 1.268 . S
C185 O191 1.268 . S
C185 O194 1.268 . S
O186 Sc176 2.105 . S
O186 C180 1.268 . S
O187 Sc177 2.105 . S
O187 C181 1.268 . S
O188 Sc178 2.105 . S
O188 C182 1.268 . S
O189 Sc176 2.105 . S
O189 C183 1.268 . S
O190 Sc178 2.105 . S
O190 C184 1.268 . S
O191 Sc177 2.105 . S
O191 C185 1.268 . S
O192 Sc176 2.105 . S
O192 C184 1.268 . S
O193 Sc177 2.105 . S
O193 C183 1.268 . S
O194 Sc178 2.105 . S
O194 C185 1.268 . S
O195 Sc176 2.105 . S
O195 C181 1.268 . S
O196 Sc178 2.105 . S
O196 C180 1.268 . S
O197 Sc177 2.105 . S
O197 C182 1.268 . S
Sc198 O201 2.025 . S
Sc198 O208 2.105 . S
Sc198 O211 2.105 . S
Sc198 O214 2.105 . S
Sc198 O217 2.105 . S
Sc199 O201 2.025 . S
Sc199 O209 2.105 . S
Sc199 O213 2.105 . S
Sc199 O215 2.105 . S
Sc199 O219 2.105 . S
Sc200 O201 2.025 . S
Sc200 O210 2.105 . S
Sc200 O212 2.105 . S
Sc200 O216 2.105 . S
Sc200 O218 2.105 . S
O201 Sc198 2.025 . S
O201 Sc199 2.025 . S
O201 Sc200 2.025 . S
C202 O208 1.268 . S
C202 O218 1.268 . S
C203 O209 1.268 . S
C203 O217 1.268 . S
C204 O210 1.268 . S
C204 O219 1.268 . S
C205 O211 1.268 . S
C205 O215 1.268 . S
C206 O212 1.268 . S
C206 O214 1.268 . S
C207 O213 1.268 . S
C207 O216 1.268 . S
O208 Sc198 2.105 . S
O208 C202 1.268 . S
O209 Sc199 2.105 . S
O209 C203 1.268 . S
O210 Sc200 2.105 . S
O210 C204 1.268 . S
O211 Sc198 2.105 . S
O211 C205 1.268 . S
O212 Sc200 2.105 . S
O212 C206 1.268 . S
O213 Sc199 2.105 . S
O213 C207 1.268 . S
O214 Sc198 2.105 . S
O214 C206 1.268 . S
O215 Sc199 2.105 . S
O215 C205 1.268 . S
O216 Sc200 2.105 . S
O216 C207 1.268 . S
O217 Sc198 2.105 . S
O217 C203 1.268 . S
O218 Sc200 2.105 . S
O218 C202 1.268 . S
O219 Sc199 2.105 . S
O219 C204 1.268 . S
Sc220 O223 2.025 . S
Sc220 O230 2.105 . S
Sc220 O233 2.105 . S
Sc220 O236 2.105 . S
Sc220 O239 2.105 . S
Sc221 O223 2.025 . S
Sc221 O231 2.105 . S
Sc221 O235 2.105 1_455 S
Sc221 O237 2.105 . S
Sc221 O241 2.105 . S
Sc222 O223 2.025 . S
Sc222 O232 2.105 . S
Sc222 O234 2.105 . S
Sc222 O238 2.105 . S
Sc222 O240 2.105 . S
O223 Sc220 2.025 . S
O223 Sc221 2.025 . S
O223 Sc222 2.025 . S
C224 O230 1.268 . S
C224 O240 1.268 . S
C225 O231 1.268 . S
C225 O239 1.268 . S
C226 O232 1.268 . S
C226 O241 1.268 . S
C227 O233 1.268 . S
C227 O237 1.268 . S
C228 O234 1.268 . S
C228 O236 1.268 . S
C229 O235 1.268 . S
C229 O238 1.268 1_655 S
O230 Sc220 2.105 . S
O230 C224 1.268 . S
O231 Sc221 2.105 . S
O231 C225 1.268 . S
O232 Sc222 2.105 . S
O232 C226 1.268 . S
O233 Sc220 2.105 . S
O233 C227 1.268 . S
O234 Sc222 2.105 . S
O234 C228 1.268 . S
O235 Sc221 2.105 1_655 S
O235 C229 1.268 . S
O236 Sc220 2.105 . S
O236 C228 1.268 . S
O237 Sc221 2.105 . S
O237 C227 1.268 . S
O238 Sc222 2.105 . S
O238 C229 1.268 1_455 S
O239 Sc220 2.105 . S
O239 C225 1.268 . S
O240 Sc222 2.105 . S
O240 C224 1.268 . S
O241 Sc221 2.105 . S
O241 C226 1.268 . S
Sc242 O245 2.025 . S
Sc242 O252 2.105 . S
Sc242 O255 2.105 . S
Sc242 O258 2.105 . S
Sc242 O261 2.105 . S
Sc243 O245 2.025 . S
Sc243 O253 2.105 . S
Sc243 O257 2.105 1_545 S
Sc243 O259 2.105 . S
Sc243 O263 2.105 . S
Sc244 O245 2.025 . S
Sc244 O254 2.105 . S
Sc244 O256 2.105 . S
Sc244 O260 2.105 . S
Sc244 O262 2.105 . S
O245 Sc242 2.025 . S
O245 Sc243 2.025 . S
O245 Sc244 2.025 . S
C246 O252 1.268 . S
C246 O262 1.268 . S
C247 O253 1.268 . S
C247 O261 1.268 . S
C248 O254 1.268 . S
C248 O263 1.268 . S
C249 O255 1.268 . S
C249 O259 1.268 . S
C250 O256 1.268 . S
C250 O258 1.268 . S
C251 O257 1.268 . S
C251 O260 1.268 1_565 S
O252 Sc242 2.105 . S
O252 C246 1.268 . S
O253 Sc243 2.105 . S
O253 C247 1.268 . S
O254 Sc244 2.105 . S
O254 C248 1.268 . S
O255 Sc242 2.105 . S
O255 C249 1.268 . S
O256 Sc244 2.105 . S
O256 C250 1.268 . S
O257 Sc243 2.105 1_565 S
O257 C251 1.268 . S
O258 Sc242 2.105 . S
O258 C250 1.268 . S
O259 Sc243 2.105 . S
O259 C249 1.268 . S
O260 Sc244 2.105 . S
O260 C251 1.268 1_545 S
O261 Sc242 2.105 . S
O261 C247 1.268 . S
O262 Sc244 2.105 . S
O262 C246 1.268 . S
O263 Sc243 2.105 . S
O263 C248 1.268 . S
Sc264 O267 2.025 . S
Sc264 O274 2.105 . S
Sc264 O277 2.105 . S
Sc264 O280 2.105 . S
Sc264 O283 2.105 . S
Sc265 O267 2.025 . S
Sc265 O275 2.105 . S
Sc265 O279 2.105 . S
Sc265 O281 2.105 . S
Sc265 O285 2.105 . S
Sc266 O267 2.025 . S
Sc266 O276 2.105 . S
Sc266 O278 2.105 . S
Sc266 O282 2.105 . S
Sc266 O284 2.105 . S
O267 Sc264 2.025 . S
O267 Sc265 2.025 . S
O267 Sc266 2.025 . S
C268 O274 1.268 . S
C268 O284 1.268 . S
C269 O275 1.268 . S
C269 O283 1.268 . S
C270 O276 1.268 . S
C270 O285 1.268 . S
C271 O277 1.268 . S
C271 O281 1.268 . S
C272 O278 1.268 . S
C272 O280 1.268 . S
C273 O279 1.268 . S
C273 O282 1.268 . S
O274 Sc264 2.105 . S
O274 C268 1.268 . S
O275 Sc265 2.105 . S
O275 C269 1.268 . S
O276 Sc266 2.105 . S
O276 C270 1.268 . S
O277 Sc264 2.105 . S
O277 C271 1.268 . S
O278 Sc266 2.105 . S
O278 C272 1.268 . S
O279 Sc265 2.105 . S
O279 C273 1.268 . S
O280 Sc264 2.105 . S
O280 C272 1.268 . S
O281 Sc265 2.105 . S
O281 C271 1.268 . S
O282 Sc266 2.105 . S
O282 C273 1.268 . S
O283 Sc264 2.105 . S
O283 C269 1.268 . S
O284 Sc266 2.105 . S
O284 C268 1.268 . S
O285 Sc265 2.105 . S
O285 C270 1.268 . S
Sc286 O289 2.025 . S
Sc286 O296 2.105 . S
Sc286 O299 2.105 . S
Sc286 O302 2.105 . S
Sc286 O305 2.105 . S
Sc287 O289 2.025 . S
Sc287 O297 2.105 . S
Sc287 O301 2.105 . S
Sc287 O303 2.105 . S
Sc287 O307 2.105 . S
Sc288 O289 2.025 . S
Sc288 O298 2.105 . S
Sc288 O300 2.105 . S
Sc288 O304 2.105 . S
Sc288 O306 2.105 . S
O289 Sc286 2.025 . S
O289 Sc287 2.025 . S
O289 Sc288 2.025 . S
C290 O296 1.268 . S
C290 O306 1.268 . S
C291 O297 1.268 . S
C291 O305 1.268 . S
C292 O298 1.268 . S
C292 O307 1.268 . S
C293 O299 1.268 . S
C293 O303 1.268 . S
C294 O300 1.268 . S
C294 O302 1.268 . S
C295 O301 1.268 . S
C295 O304 1.268 . S
O296 Sc286 2.105 . S
O296 C290 1.268 . S
O297 Sc287 2.105 . S
O297 C291 1.268 . S
O298 Sc288 2.105 . S
O298 C292 1.268 . S
O299 Sc286 2.105 . S
O299 C293 1.268 . S
O300 Sc288 2.105 . S
O300 C294 1.268 . S
O301 Sc287 2.105 . S
O301 C295 1.268 . S
O302 Sc286 2.105 . S
O302 C294 1.268 . S
O303 Sc287 2.105 . S
O303 C293 1.268 . S
O304 Sc288 2.105 . S
O304 C295 1.268 . S
O305 Sc286 2.105 . S
O305 C291 1.268 . S
O306 Sc288 2.105 . S
O306 C290 1.268 . S
O307 Sc287 2.105 . S
O307 C292 1.268 . S
Sc308 O311 2.025 . S
Sc308 O318 2.105 . S
Sc308 O321 2.105 . S
Sc308 O324 2.105 . S
Sc308 O327 2.105 . S
Sc309 O311 2.025 . S
Sc309 O319 2.105 1_455 S
Sc309 O323 2.105 . S
Sc309 O325 2.105 . S
Sc309 O329 2.105 . S
Sc310 O311 2.025 . S
Sc310 O320 2.105 . S
Sc310 O322 2.105 . S
Sc310 O326 2.105 . S
Sc310 O328 2.105 . S
O311 Sc308 2.025 . S
O311 Sc309 2.025 . S
O311 Sc310 2.025 . S
C312 O318 1.268 . S
C312 O328 1.268 . S
C313 O319 1.268 . S
C313 O327 1.268 1_655 S
C314 O320 1.268 . S
C314 O329 1.268 . S
C315 O321 1.268 . S
C315 O325 1.268 . S
C316 O322 1.268 . S
C316 O324 1.268 . S
C317 O323 1.268 . S
C317 O326 1.268 . S
O318 Sc308 2.105 . S
O318 C312 1.268 . S
O319 Sc309 2.105 1_655 S
O319 C313 1.268 . S
O320 Sc310 2.105 . S
O320 C314 1.268 . S
O321 Sc308 2.105 . S
O321 C315 1.268 . S
O322 Sc310 2.105 . S
O322 C316 1.268 . S
O323 Sc309 2.105 . S
O323 C317 1.268 . S
O324 Sc308 2.105 . S
O324 C316 1.268 . S
O325 Sc309 2.105 . S
O325 C315 1.268 . S
O326 Sc310 2.105 . S
O326 C317 1.268 . S
O327 Sc308 2.105 . S
O327 C313 1.268 1_455 S
O328 Sc310 2.105 . S
O328 C312 1.268 . S
O329 Sc309 2.105 . S
O329 C314 1.268 . S
Sc330 O333 2.025 . S
Sc330 O340 2.105 . S
Sc330 O343 2.105 . S
Sc330 O346 2.105 . S
Sc330 O349 2.105 . S
Sc331 O333 2.025 . S
Sc331 O341 2.105 1_545 S
Sc331 O345 2.105 . S
Sc331 O347 2.105 . S
Sc331 O351 2.105 . S
Sc332 O333 2.025 . S
Sc332 O342 2.105 . S
Sc332 O344 2.105 . S
Sc332 O348 2.105 . S
Sc332 O350 2.105 . S
O333 Sc330 2.025 . S
O333 Sc331 2.025 . S
O333 Sc332 2.025 . S
C334 O340 1.268 . S
C334 O350 1.268 . S
C335 O341 1.268 . S
C335 O349 1.268 1_565 S
C336 O342 1.268 . S
C336 O351 1.268 . S
C337 O343 1.268 . S
C337 O347 1.268 . S
C338 O344 1.268 . S
C338 O346 1.268 . S
C339 O345 1.268 . S
C339 O348 1.268 . S
O340 Sc330 2.105 . S
O340 C334 1.268 . S
O341 Sc331 2.105 1_565 S
O341 C335 1.268 . S
O342 Sc332 2.105 . S
O342 C336 1.268 . S
O343 Sc330 2.105 . S
O343 C337 1.268 . S
O344 Sc332 2.105 . S
O344 C338 1.268 . S
O345 Sc331 2.105 . S
O345 C339 1.268 . S
O346 Sc330 2.105 . S
O346 C338 1.268 . S
O347 Sc331 2.105 . S
O347 C337 1.268 . S
O348 Sc332 2.105 . S
O348 C339 1.268 . S
O349 Sc330 2.105 . S
O349 C335 1.268 1_545 S
O350 Sc332 2.105 . S
O350 C334 1.268 . S
O351 Sc331 2.105 . S
O351 C336 1.268 . S
C352 C353 1.363 . S
C352 C358 1.379 . S
C352 N360 1.356 . S
C353 C352 1.363 . S
C353 C359 1.363 . S
C354 C355 1.363 . S
C354 C359 1.379 . S
C354 N361 1.356 . S
C355 C354 1.363 . S
C355 C358 1.363 . S
N356 C358 1.356 . S
N356 H368 0.984 . S
N356 H369 0.985 . S
N357 C359 1.356 . S
N357 H362 0.984 . S
N357 H363 0.985 . S
C358 C352 1.379 . S
C358 C355 1.363 . S
C358 N356 1.356 . S
C359 C353 1.363 . S
C359 C354 1.379 . S
C359 N357 1.356 . S
N360 C352 1.356 . S
N360 H366 0.984 . S
N360 H367 0.984 . S
N361 C354 1.356 . S
N361 H364 0.984 . S
N361 H365 0.985 . S
H362 N357 0.984 . S
H363 N357 0.985 . S
H364 N361 0.984 . S
H365 N361 0.985 . S
H366 N360 0.984 . S
H367 N360 0.984 . S
H368 N356 0.984 . S
H369 N356 0.985 . S
C370 C371 1.363 . S
C370 C376 1.379 . S
C370 N378 1.356 . S
C371 C370 1.363 . S
C371 C377 1.363 . S
C372 C373 1.363 . S
C372 C377 1.379 . S
C372 N379 1.356 . S
C373 C372 1.363 . S
C373 C376 1.363 . S
N374 C376 1.356 . S
N374 H386 0.984 . S
N374 H387 0.985 . S
N375 C377 1.356 . S
N375 H380 0.984 . S
N375 H381 0.985 . S
C376 C370 1.379 . S
C376 C373 1.363 . S
C376 N374 1.356 . S
C377 C371 1.363 . S
C377 C372 1.379 . S
C377 N375 1.356 . S
N378 C370 1.356 . S
N378 H384 0.984 . S
N378 H385 0.984 . S
N379 C372 1.356 . S
N379 H382 0.984 . S
N379 H383 0.985 . S
H380 N375 0.984 . S
H381 N375 0.985 . S
H382 N379 0.984 . S
H383 N379 0.985 . S
H384 N378 0.984 . S
H385 N378 0.984 . S
H386 N374 0.984 . S
H387 N374 0.985 . S
C388 C389 1.363 . S
C388 C394 1.379 . S
C388 N396 1.356 . S
C389 C388 1.363 . S
C389 C395 1.363 . S
C390 C391 1.363 . S
C390 C395 1.379 . S
C390 N397 1.356 . S
C391 C390 1.363 . S
C391 C394 1.363 . S
N392 C394 1.356 . S
N392 H404 0.984 . S
N392 H405 0.985 . S
N393 C395 1.356 . S
N393 H398 0.984 . S
N393 H399 0.985 . S
C394 C388 1.379 . S
C394 C391 1.363 . S
C394 N392 1.356 . S
C395 C389 1.363 . S
C395 C390 1.379 . S
C395 N393 1.356 . S
N396 C388 1.356 . S
N396 H402 0.984 . S
N396 H403 0.984 . S
N397 C390 1.356 . S
N397 H400 0.984 . S
N397 H401 0.985 . S
H398 N393 0.984 . S
H399 N393 0.985 . S
H400 N397 0.984 . S
H401 N397 0.985 . S
H402 N396 0.984 . S
H403 N396 0.984 . S
H404 N392 0.984 . S
H405 N392 0.985 . S
C406 C407 1.363 . S
C406 C412 1.379 . S
C406 N414 1.356 . S
C407 C406 1.363 . S
C407 C413 1.363 . S
C408 C409 1.363 . S
C408 C413 1.379 . S
C408 N415 1.356 . S
C409 C408 1.363 . S
C409 C412 1.363 . S
N410 C412 1.356 . S
N410 H422 0.984 . S
N410 H423 0.985 . S
N411 C413 1.356 . S
N411 H416 0.984 . S
N411 H417 0.985 . S
C412 C406 1.379 . S
C412 C409 1.363 . S
C412 N410 1.356 . S
C413 C407 1.363 . S
C413 C408 1.379 . S
C413 N411 1.356 . S
N414 C406 1.356 . S
N414 H420 0.984 . S
N414 H421 0.984 . S
N415 C408 1.356 . S
N415 H418 0.984 . S
N415 H419 0.985 . S
H416 N411 0.984 . S
H417 N411 0.985 . S
H418 N415 0.984 . S
H419 N415 0.985 . S
H420 N414 0.984 . S
H421 N414 0.984 . S
H422 N410 0.984 . S
H423 N410 0.985 . S
C424 C425 1.363 . S
C424 C430 1.379 . S
C424 N432 1.356 . S
C425 C424 1.363 . S
C425 C431 1.363 . S
C426 C427 1.363 . S
C426 C431 1.379 . S
C426 N433 1.356 . S
C427 C426 1.363 . S
C427 C430 1.363 . S
N428 C430 1.356 . S
N428 H440 0.984 . S
N428 H441 0.985 . S
N429 C431 1.356 . S
N429 H434 0.984 . S
N429 H435 0.985 . S
C430 C424 1.379 . S
C430 C427 1.363 . S
C430 N428 1.356 . S
C431 C425 1.363 . S
C431 C426 1.379 . S
C431 N429 1.356 . S
N432 C424 1.356 . S
N432 H438 0.984 . S
N432 H439 0.984 . S
N433 C426 1.356 . S
N433 H436 0.984 . S
N433 H437 0.985 . S
H434 N429 0.984 . S
H435 N429 0.985 . S
H436 N433 0.984 . S
H437 N433 0.985 . S
H438 N432 0.984 . S
H439 N432 0.984 . S
H440 N428 0.984 . S
H441 N428 0.985 . S
C442 C443 1.363 . S
C442 C448 1.379 . S
C442 N450 1.356 . S
C443 C442 1.363 . S
C443 C449 1.363 . S
C444 C445 1.363 . S
C444 C449 1.379 . S
C444 N451 1.356 . S
C445 C444 1.363 . S
C445 C448 1.363 . S
N446 C448 1.356 . S
N446 H458 0.984 . S
N446 H459 0.985 . S
N447 C449 1.356 . S
N447 H452 0.984 . S
N447 H453 0.985 . S
C448 C442 1.379 . S
C448 C445 1.363 . S
C448 N446 1.356 . S
C449 C443 1.363 . S
C449 C444 1.379 . S
C449 N447 1.356 . S
N450 C442 1.356 . S
N450 H456 0.984 . S
N450 H457 0.984 . S
N451 C444 1.356 . S
N451 H454 0.984 . S
N451 H455 0.985 . S
H452 N447 0.984 . S
H453 N447 0.985 . S
H454 N451 0.984 . S
H455 N451 0.985 . S
H456 N450 0.984 . S
H457 N450 0.984 . S
H458 N446 0.984 . S
H459 N446 0.985 . S
C460 C461 1.363 . S
C460 C466 1.379 . S
C460 N468 1.356 . S
C461 C460 1.363 . S
C461 C467 1.363 . S
C462 C463 1.363 . S
C462 C467 1.379 . S
C462 N469 1.356 . S
C463 C462 1.363 . S
C463 C466 1.363 . S
N464 C466 1.356 . S
N464 H476 0.984 . S
N464 H477 0.985 . S
N465 C467 1.356 . S
N465 H470 0.984 . S
N465 H471 0.985 . S
C466 C460 1.379 . S
C466 C463 1.363 . S
C466 N464 1.356 . S
C467 C461 1.363 . S
C467 C462 1.379 . S
C467 N465 1.356 . S
N468 C460 1.356 . S
N468 H474 0.984 . S
N468 H475 0.984 . S
N469 C462 1.356 . S
N469 H472 0.984 . S
N469 H473 0.985 . S
H470 N465 0.984 . S
H471 N465 0.985 . S
H472 N469 0.984 . S
H473 N469 0.985 . S
H474 N468 0.984 . S
H475 N468 0.984 . S
H476 N464 0.984 . S
H477 N464 0.985 . S
C478 C479 1.363 . S
C478 C484 1.379 . S
C478 N486 1.356 . S
C479 C478 1.363 . S
C479 C485 1.363 . S
C480 C481 1.363 . S
C480 C485 1.379 . S
C480 N487 1.356 . S
C481 C480 1.363 . S
C481 C484 1.363 . S
N482 C484 1.356 . S
N482 H494 0.984 . S
N482 H495 0.985 . S
N483 C485 1.356 . S
N483 H488 0.984 . S
N483 H489 0.985 . S
C484 C478 1.379 . S
C484 C481 1.363 . S
C484 N482 1.356 . S
C485 C479 1.363 . S
C485 C480 1.379 . S
C485 N483 1.356 . S
N486 C478 1.356 . S
N486 H492 0.984 . S
N486 H493 0.984 . S
N487 C480 1.356 . S
N487 H490 0.984 . S
N487 H491 0.985 . S
H488 N483 0.984 . S
H489 N483 0.985 . S
H490 N487 0.984 . S
H491 N487 0.985 . S
H492 N486 0.984 . S
H493 N486 0.984 . S
H494 N482 0.984 . S
H495 N482 0.985 . S
C496 C497 1.363 . S
C496 C502 1.379 . S
C496 N504 1.356 . S
C497 C496 1.363 . S
C497 C503 1.363 . S
C498 C499 1.363 . S
C498 C503 1.379 . S
C498 N505 1.356 . S
C499 C498 1.363 . S
C499 C502 1.363 . S
N500 C502 1.356 . S
N500 H512 0.984 . S
N500 H513 0.985 . S
N501 C503 1.356 . S
N501 H506 0.984 . S
N501 H507 0.985 . S
C502 C496 1.379 . S
C502 C499 1.363 . S
C502 N500 1.356 . S
C503 C497 1.363 . S
C503 C498 1.379 . S
C503 N501 1.356 . S
N504 C496 1.356 . S
N504 H510 0.984 . S
N504 H511 0.984 . S
N505 C498 1.356 . S
N505 H508 0.984 . S
N505 H509 0.985 . S
H506 N501 0.984 . S
H507 N501 0.985 . S
H508 N505 0.984 . S
H509 N505 0.985 . S
H510 N504 0.984 . S
H511 N504 0.984 . S
H512 N500 0.984 . S
H513 N500 0.985 . S
C514 C515 1.363 . S
C514 C520 1.379 . S
C514 N522 1.356 . S
C515 C514 1.363 . S
C515 C521 1.363 . S
C516 C517 1.363 . S
C516 C521 1.379 . S
C516 N523 1.356 . S
C517 C516 1.363 . S
C517 C520 1.363 . S
N518 C520 1.356 . S
N518 H530 0.984 . S
N518 H531 0.985 . S
N519 C521 1.356 . S
N519 H524 0.984 . S
N519 H525 0.985 . S
C520 C514 1.379 . S
C520 C517 1.363 . S
C520 N518 1.356 . S
C521 C515 1.363 . S
C521 C516 1.379 . S
C521 N519 1.356 . S
N522 C514 1.356 . S
N522 H528 0.984 . S
N522 H529 0.984 . S
N523 C516 1.356 . S
N523 H526 0.984 . S
N523 H527 0.985 . S
H524 N519 0.984 . S
H525 N519 0.985 . S
H526 N523 0.984 . S
H527 N523 0.985 . S
H528 N522 0.984 . S
H529 N522 0.984 . S
H530 N518 0.984 . S
H531 N518 0.985 . S
C532 C533 1.363 . S
C532 C538 1.379 . S
C532 N540 1.356 . S
C533 C532 1.363 . S
C533 C539 1.363 . S
C534 C535 1.363 . S
C534 C539 1.379 . S
C534 N541 1.356 . S
C535 C534 1.363 . S
C535 C538 1.363 . S
N536 C538 1.356 . S
N536 H548 0.984 . S
N536 H549 0.985 . S
N537 C539 1.356 . S
N537 H542 0.984 . S
N537 H543 0.985 . S
C538 C532 1.379 . S
C538 C535 1.363 . S
C538 N536 1.356 . S
C539 C533 1.363 . S
C539 C534 1.379 . S
C539 N537 1.356 . S
N540 C532 1.356 . S
N540 H546 0.984 . S
N540 H547 0.984 . S
N541 C534 1.356 . S
N541 H544 0.984 . S
N541 H545 0.985 . S
H542 N537 0.984 . S
H543 N537 0.985 . S
H544 N541 0.984 . S
H545 N541 0.985 . S
H546 N540 0.984 . S
H547 N540 0.984 . S
H548 N536 0.984 . S
H549 N536 0.985 . S
C550 C551 1.363 . S
C550 C556 1.379 . S
C550 N558 1.356 . S
C551 C550 1.363 . S
C551 C557 1.363 . S
C552 C553 1.363 . S
C552 C557 1.379 . S
C552 N559 1.356 . S
C553 C552 1.363 . S
C553 C556 1.363 . S
N554 C556 1.356 . S
N554 H566 0.984 . S
N554 H567 0.985 . S
N555 C557 1.356 . S
N555 H560 0.984 . S
N555 H561 0.985 . S
C556 C550 1.379 . S
C556 C553 1.363 . S
C556 N554 1.356 . S
C557 C551 1.363 . S
C557 C552 1.379 . S
C557 N555 1.356 . S
N558 C550 1.356 . S
N558 H564 0.984 . S
N558 H565 0.984 . S
N559 C552 1.356 . S
N559 H562 0.984 . S
N559 H563 0.985 . S
H560 N555 0.984 . S
H561 N555 0.985 . S
H562 N559 0.984 . S
H563 N559 0.985 . S
H564 N558 0.984 . S
H565 N558 0.984 . S
H566 N554 0.984 . S
H567 N554 0.985 . S
C568 C569 1.363 . S
C568 C574 1.379 . S
C568 N576 1.356 . S
C569 C568 1.363 . S
C569 C575 1.363 . S
C570 C571 1.363 . S
C570 C575 1.379 . S
C570 N577 1.356 . S
C571 C570 1.363 . S
C571 C574 1.363 . S
N572 C574 1.356 . S
N572 H584 0.984 . S
N572 H585 0.985 . S
N573 C575 1.356 . S
N573 H578 0.984 . S
N573 H579 0.985 . S
C574 C568 1.379 . S
C574 C571 1.363 . S
C574 N572 1.356 . S
C575 C569 1.363 . S
C575 C570 1.379 . S
C575 N573 1.356 . S
N576 C568 1.356 . S
N576 H582 0.984 . S
N576 H583 0.984 . S
N577 C570 1.356 . S
N577 H580 0.984 . S
N577 H581 0.985 . S
H578 N573 0.984 . S
H579 N573 0.985 . S
H580 N577 0.984 . S
H581 N577 0.985 . S
H582 N576 0.984 . S
H583 N576 0.984 . S
H584 N572 0.984 . S
H585 N572 0.985 . S
C586 C587 1.363 . S
C586 C592 1.379 . S
C586 N594 1.356 . S
C587 C586 1.363 . S
C587 C593 1.363 . S
C588 C589 1.363 . S
C588 C593 1.379 . S
C588 N595 1.356 . S
C589 C588 1.363 . S
C589 C592 1.363 . S
N590 C592 1.356 . S
N590 H602 0.984 . S
N590 H603 0.985 . S
N591 C593 1.356 . S
N591 H596 0.984 . S
N591 H597 0.985 . S
C592 C586 1.379 . S
C592 C589 1.363 . S
C592 N590 1.356 . S
C593 C587 1.363 . S
C593 C588 1.379 . S
C593 N591 1.356 . S
N594 C586 1.356 . S
N594 H600 0.984 . S
N594 H601 0.984 . S
N595 C588 1.356 . S
N595 H598 0.984 . S
N595 H599 0.985 . S
H596 N591 0.984 . S
H597 N591 0.985 . S
H598 N595 0.984 . S
H599 N595 0.985 . S
H600 N594 0.984 . S
H601 N594 0.984 . S
H602 N590 0.984 . S
H603 N590 0.985 . S
C604 C605 1.363 . S
C604 C610 1.379 . S
C604 N612 1.356 . S
C605 C604 1.363 . S
C605 C611 1.363 . S
C606 C607 1.363 . S
C606 C611 1.379 . S
C606 N613 1.356 . S
C607 C606 1.363 . S
C607 C610 1.363 . S
N608 C610 1.356 . S
N608 H620 0.984 . S
N608 H621 0.985 . S
N609 C611 1.356 . S
N609 H614 0.984 . S
N609 H615 0.985 . S
C610 C604 1.379 . S
C610 C607 1.363 . S
C610 N608 1.356 . S
C611 C605 1.363 . S
C611 C606 1.379 . S
C611 N609 1.356 . S
N612 C604 1.356 . S
N612 H618 0.984 . S
N612 H619 0.984 . S
N613 C606 1.356 . S
N613 H616 0.984 . S
N613 H617 0.985 . S
H614 N609 0.984 . S
H615 N609 0.985 . S
H616 N613 0.984 . S
H617 N613 0.985 . S
H618 N612 0.984 . S
H619 N612 0.984 . S
H620 N608 0.984 . S
H621 N608 0.985 . S
C622 C623 1.363 . S
C622 C628 1.379 . S
C622 N630 1.356 . S
C623 C622 1.363 . S
C623 C629 1.363 . S
C624 C625 1.363 . S
C624 C629 1.379 . S
C624 N631 1.356 . S
C625 C624 1.363 . S
C625 C628 1.363 . S
N626 C628 1.356 . S
N626 H638 0.984 . S
N626 H639 0.985 . S
N627 C629 1.356 . S
N627 H632 0.984 . S
N627 H633 0.985 . S
C628 C622 1.379 . S
C628 C625 1.363 . S
C628 N626 1.356 . S
C629 C623 1.363 . S
C629 C624 1.379 . S
C629 N627 1.356 . S
N630 C622 1.356 . S
N630 H636 0.984 . S
N630 H637 0.984 . S
N631 C624 1.356 . S
N631 H634 0.984 . S
N631 H635 0.985 . S
H632 N627 0.984 . S
H633 N627 0.985 . S
H634 N631 0.984 . S
H635 N631 0.985 . S
H636 N630 0.984 . S
H637 N630 0.984 . S
H638 N626 0.984 . S
H639 N626 0.985 . S
C640 C641 1.363 . S
C640 C646 1.379 1_554 S
C640 N648 1.356 . S
C641 C640 1.363 . S
C641 C647 1.363 1_554 S
C642 C643 1.363 . S
C642 C647 1.379 . S
C642 N649 1.356 . S
C643 C642 1.363 . S
C643 C646 1.363 . S
N644 C646 1.356 . S
N644 H656 0.984 . S
N644 H657 0.985 . S
N645 C647 1.356 . S
N645 H650 0.984 1_556 S
N645 H651 0.985 . S
C646 C640 1.379 1_556 S
C646 C643 1.363 . S
C646 N644 1.356 . S
C647 C641 1.363 1_556 S
C647 C642 1.379 . S
C647 N645 1.356 . S
N648 C640 1.356 . S
N648 H654 0.984 . S
N648 H655 0.984 . S
N649 C642 1.356 . S
N649 H652 0.984 . S
N649 H653 0.985 . S
H650 N645 0.984 1_554 S
H651 N645 0.985 . S
H652 N649 0.984 . S
H653 N649 0.985 . S
H654 N648 0.984 . S
H655 N648 0.984 . S
H656 N644 0.984 . S
H657 N644 0.985 . S
C658 C659 1.363 . S
C658 C664 1.379 . S
C658 N666 1.356 . S
C659 C658 1.363 . S
C659 C665 1.363 . S
C660 C661 1.363 . S
C660 C665 1.379 . S
C660 N667 1.356 . S
C661 C660 1.363 . S
C661 C664 1.363 . S
N662 C664 1.356 . S
N662 H674 0.984 . S
N662 H675 0.985 . S
N663 C665 1.356 . S
N663 H668 0.984 . S
N663 H669 0.985 . S
C664 C658 1.379 . S
C664 C661 1.363 . S
C664 N662 1.356 . S
C665 C659 1.363 . S
C665 C660 1.379 . S
C665 N663 1.356 . S
N666 C658 1.356 . S
N666 H672 0.984 . S
N666 H673 0.984 . S
N667 C660 1.356 . S
N667 H670 0.984 . S
N667 H671 0.985 . S
H668 N663 0.984 . S
H669 N663 0.985 . S
H670 N667 0.984 . S
H671 N667 0.985 . S
H672 N666 0.984 . S
H673 N666 0.984 . S
H674 N662 0.984 . S
H675 N662 0.985 . S
C676 C677 1.363 . S
C676 C682 1.379 1_554 S
C676 N684 1.356 . S
C677 C676 1.363 . S
C677 C683 1.363 1_554 S
C678 C679 1.363 . S
C678 C683 1.379 . S
C678 N685 1.356 . S
C679 C678 1.363 . S
C679 C682 1.363 . S
N680 C682 1.356 . S
N680 H692 0.984 . S
N680 H693 0.985 . S
N681 C683 1.356 . S
N681 H686 0.984 1_556 S
N681 H687 0.985 . S
C682 C676 1.379 1_556 S
C682 C679 1.363 . S
C682 N680 1.356 . S
C683 C677 1.363 1_556 S
C683 C678 1.379 . S
C683 N681 1.356 . S
N684 C676 1.356 . S
N684 H690 0.984 . S
N684 H691 0.984 . S
N685 C678 1.356 . S
N685 H688 0.984 . S
N685 H689 0.985 . S
H686 N681 0.984 1_554 S
H687 N681 0.985 . S
H688 N685 0.984 . S
H689 N685 0.985 . S
H690 N684 0.984 . S
H691 N684 0.984 . S
H692 N680 0.984 . S
H693 N680 0.985 . S
C694 C695 1.363 . S
C694 C700 1.379 . S
C694 N702 1.356 . S
C695 C694 1.363 . S
C695 C701 1.363 . S
C696 C697 1.363 . S
C696 C701 1.379 . S
C696 N703 1.356 . S
C697 C696 1.363 . S
C697 C700 1.363 . S
N698 C700 1.356 . S
N698 H710 0.984 . S
N698 H711 0.985 . S
N699 C701 1.356 . S
N699 H704 0.984 . S
N699 H705 0.985 . S
C700 C694 1.379 . S
C700 C697 1.363 . S
C700 N698 1.356 . S
C701 C695 1.363 . S
C701 C696 1.379 . S
C701 N699 1.356 . S
N702 C694 1.356 . S
N702 H708 0.984 . S
N702 H709 0.984 . S
N703 C696 1.356 . S
N703 H706 0.984 . S
N703 H707 0.985 . S
H704 N699 0.984 . S
H705 N699 0.985 . S
H706 N703 0.984 . S
H707 N703 0.985 . S
H708 N702 0.984 . S
H709 N702 0.984 . S
H710 N698 0.984 . S
H711 N698 0.985 . S
C712 C713 1.363 1_554 S
C712 C718 1.379 . S
C712 N720 1.356 . S
C713 C712 1.363 1_556 S
C713 C719 1.363 . S
C714 C715 1.363 . S
C714 C719 1.379 1_554 S
C714 N721 1.356 . S
C715 C714 1.363 . S
C715 C718 1.363 . S
N716 C718 1.356 . S
N716 H728 0.984 . S
N716 H729 0.985 . S
N717 C719 1.356 . S
N717 H722 0.984 . S
N717 H723 0.985 . S
C718 C712 1.379 . S
C718 C715 1.363 . S
C718 N716 1.356 . S
C719 C713 1.363 . S
C719 C714 1.379 1_556 S
C719 N717 1.356 . S
N720 C712 1.356 . S
N720 H726 0.984 . S
N720 H727 0.984 1_554 S
N721 C714 1.356 . S
N721 H724 0.984 . S
N721 H725 0.985 . S
H722 N717 0.984 . S
H723 N717 0.985 . S
H724 N721 0.984 . S
H725 N721 0.985 . S
H726 N720 0.984 . S
H727 N720 0.984 1_556 S
H728 N716 0.984 . S
H729 N716 0.985 . S
C730 C731 1.363 . S
C730 C736 1.379 . S
C730 N738 1.356 . S
C731 C730 1.363 . S
C731 C737 1.363 . S
C732 C733 1.363 . S
C732 C737 1.379 . S
C732 N739 1.356 . S
C733 C732 1.363 . S
C733 C736 1.363 . S
N734 C736 1.356 . S
N734 H746 0.984 1_455 S
N734 H747 0.985 . S
N735 C737 1.356 . S
N735 H740 0.984 . S
N735 H741 0.985 . S
C736 C730 1.379 . S
C736 C733 1.363 . S
C736 N734 1.356 . S
C737 C731 1.363 . S
C737 C732 1.379 . S
C737 N735 1.356 . S
N738 C730 1.356 . S
N738 H744 0.984 . S
N738 H745 0.984 . S
N739 C732 1.356 . S
N739 H742 0.984 . S
N739 H743 0.985 . S
H740 N735 0.984 . S
H741 N735 0.985 . S
H742 N739 0.984 . S
H743 N739 0.985 . S
H744 N738 0.984 . S
H745 N738 0.984 . S
H746 N734 0.984 1_655 S
H747 N734 0.985 . S
C748 C749 1.363 . S
C748 C754 1.379 1_556 S
C748 N756 1.356 . S
C749 C748 1.363 . S
C749 C755 1.363 1_556 S
C750 C751 1.363 . S
C750 C755 1.379 . S
C750 N757 1.356 . S
C751 C750 1.363 . S
C751 C754 1.363 . S
N752 C754 1.356 . S
N752 H764 0.984 . S
N752 H765 0.985 . S
N753 C755 1.356 . S
N753 H758 0.984 1_554 S
N753 H759 0.985 . S
C754 C748 1.379 1_554 S
C754 C751 1.363 . S
C754 N752 1.356 . S
C755 C749 1.363 1_554 S
C755 C750 1.379 . S
C755 N753 1.356 . S
N756 C748 1.356 . S
N756 H762 0.984 . S
N756 H763 0.984 . S
N757 C750 1.356 . S
N757 H760 0.984 . S
N757 H761 0.985 . S
H758 N753 0.984 1_556 S
H759 N753 0.985 . S
H760 N757 0.984 . S
H761 N757 0.985 . S
H762 N756 0.984 . S
H763 N756 0.984 . S
H764 N752 0.984 . S
H765 N752 0.985 . S
C766 C767 1.363 . S
C766 C772 1.379 . S
C766 N774 1.356 . S
C767 C766 1.363 . S
C767 C773 1.363 . S
C768 C769 1.363 . S
C768 C773 1.379 . S
C768 N775 1.356 . S
C769 C768 1.363 . S
C769 C772 1.363 . S
N770 C772 1.356 . S
N770 H782 0.984 . S
N770 H783 0.985 . S
N771 C773 1.356 . S
N771 H776 0.984 . S
N771 H777 0.985 . S
C772 C766 1.379 . S
C772 C769 1.363 . S
C772 N770 1.356 . S
C773 C767 1.363 . S
C773 C768 1.379 . S
C773 N771 1.356 . S
N774 C766 1.356 . S
N774 H780 0.984 . S
N774 H781 0.984 . S
N775 C768 1.356 . S
N775 H778 0.984 . S
N775 H779 0.985 . S
H776 N771 0.984 . S
H777 N771 0.985 . S
H778 N775 0.984 . S
H779 N775 0.985 . S
H780 N774 0.984 . S
H781 N774 0.984 . S
H782 N770 0.984 . S
H783 N770 0.985 . S
C784 C785 1.363 1_554 S
C784 C790 1.379 . S
C784 N792 1.356 1_554 S
C785 C784 1.363 1_556 S
C785 C791 1.363 1_556 S
C786 C787 1.363 . S
C786 C791 1.379 . S
C786 N793 1.356 . S
C787 C786 1.363 . S
C787 C790 1.363 . S
N788 C790 1.356 . S
N788 H800 0.984 . S
N788 H801 0.985 . S
N789 C791 1.356 1_556 S
N789 H794 0.984 . S
N789 H795 0.985 . S
C790 C784 1.379 . S
C790 C787 1.363 . S
C790 N788 1.356 . S
C791 C785 1.363 1_554 S
C791 C786 1.379 . S
C791 N789 1.356 1_554 S
N792 C784 1.356 1_556 S
N792 H798 0.981 1_556 S
N792 H799 0.984 . S
N793 C786 1.356 . S
N793 H796 0.984 . S
N793 H797 0.985 1_565 S
H794 N789 0.984 . S
H795 N789 0.985 . S
H796 N793 0.984 . S
H797 N793 0.985 1_545 S
H798 N792 0.981 1_554 S
H799 N792 0.984 . S
H800 N788 0.984 . S
H801 N788 0.985 . S
C802 C803 1.363 . S
C802 C808 1.379 . S
C802 N810 1.356 . S
C803 C802 1.363 . S
C803 C809 1.363 . S
C804 C805 1.363 . S
C804 C809 1.379 . S
C804 N811 1.356 . S
C805 C804 1.363 . S
C805 C808 1.363 . S
N806 C808 1.356 . S
N806 H818 0.984 . S
N806 H819 0.985 . S
N807 C809 1.356 . S
N807 H812 0.984 . S
N807 H813 0.985 . S
C808 C802 1.379 . S
C808 C805 1.363 . S
C808 N806 1.356 . S
C809 C803 1.363 . S
C809 C804 1.379 . S
C809 N807 1.356 . S
N810 C802 1.356 . S
N810 H816 0.984 . S
N810 H817 0.984 . S
N811 C804 1.356 . S
N811 H814 0.984 . S
N811 H815 0.985 . S
H812 N807 0.984 . S
H813 N807 0.985 . S
H814 N811 0.984 . S
H815 N811 0.985 . S
H816 N810 0.984 . S
H817 N810 0.984 . S
H818 N806 0.984 . S
H819 N806 0.985 . S
C820 C821 1.363 1_554 S
C820 C826 1.379 . S
C820 N828 1.356 1_554 S
C821 C820 1.363 1_556 S
C821 C827 1.363 1_556 S
C822 C823 1.363 . S
C822 C827 1.379 . S
C822 N829 1.356 . S
C823 C822 1.363 . S
C823 C826 1.363 . S
N824 C826 1.356 . S
N824 H836 0.984 . S
N824 H837 0.985 . S
N825 C827 1.356 1_556 S
N825 H830 0.984 . S
N825 H831 0.985 . S
C826 C820 1.379 . S
C826 C823 1.363 . S
C826 N824 1.356 . S
C827 C821 1.363 1_554 S
C827 C822 1.379 . S
C827 N825 1.356 1_554 S
N828 C820 1.356 1_556 S
N828 H834 0.984 . S
N828 H835 0.984 . S
N829 C822 1.356 . S
N829 H832 0.984 . S
N829 H833 0.985 . S
H830 N825 0.984 . S
H831 N825 0.985 . S
H832 N829 0.984 . S
H833 N829 0.985 . S
H834 N828 0.984 . S
H835 N828 0.984 . S
H836 N824 0.984 . S
H837 N824 0.985 . S
C838 C839 1.363 . S
C838 C844 1.379 . S
C838 N846 1.356 . S
C839 C838 1.363 . S
C839 C845 1.363 . S
C840 C841 1.363 . S
C840 C845 1.379 . S
C840 N847 1.356 . S
C841 C840 1.363 . S
C841 C844 1.363 . S
N842 C844 1.356 . S
N842 H854 0.984 . S
N842 H855 0.985 . S
N843 C845 1.356 . S
N843 H848 0.984 . S
N843 H849 0.985 . S
C844 C838 1.379 . S
C844 C841 1.363 . S
C844 N842 1.356 . S
C845 C839 1.363 . S
C845 C840 1.379 . S
C845 N843 1.356 . S
N846 C838 1.356 . S
N846 H852 0.984 . S
N846 H853 0.984 . S
N847 C840 1.356 . S
N847 H850 0.984 . S
N847 H851 0.985 . S
H848 N843 0.984 . S
H849 N843 0.985 . S
H850 N847 0.984 . S
H851 N847 0.985 . S
H852 N846 0.984 . S
H853 N846 0.984 . S
H854 N842 0.984 . S
H855 N842 0.985 . S
C856 C857 1.363 . S
C856 C862 1.379 . S
C856 N864 1.356 . S
C857 C856 1.363 . S
C857 C863 1.363 . S
C858 C859 1.363 1_556 S
C858 C863 1.379 . S
C858 N865 1.356 1_556 S
C859 C858 1.363 1_554 S
C859 C862 1.363 1_554 S
N860 C862 1.356 1_554 S
N860 H872 0.984 . S
N860 H873 0.985 . S
N861 C863 1.356 . S
N861 H866 0.984 . S
N861 H867 0.985 . S
C862 C856 1.379 . S
C862 C859 1.363 1_556 S
C862 N860 1.356 1_556 S
C863 C857 1.363 . S
C863 C858 1.379 . S
C863 N861 1.356 . S
N864 C856 1.356 . S
N864 H870 0.984 . S
N864 H871 0.984 . S
N865 C858 1.356 1_554 S
N865 H868 0.984 . S
N865 H869 0.985 . S
H866 N861 0.984 . S
H867 N861 0.985 . S
H868 N865 0.984 . S
H869 N865 0.985 . S
H870 N864 0.984 . S
H871 N864 0.984 . S
H872 N860 0.984 . S
H873 N860 0.985 . S
C874 C875 1.363 . S
C874 C880 1.379 . S
C874 N882 1.356 . S
C875 C874 1.363 . S
C875 C881 1.363 . S
C876 C877 1.363 . S
C876 C881 1.379 . S
C876 N883 1.356 . S
C877 C876 1.363 . S
C877 C880 1.363 . S
N878 C880 1.356 . S
N878 H890 0.984 . S
N878 H891 0.985 . S
N879 C881 1.356 . S
N879 H884 0.984 . S
N879 H885 0.985 . S
C880 C874 1.379 . S
C880 C877 1.363 . S
C880 N878 1.356 . S
C881 C875 1.363 . S
C881 C876 1.379 . S
C881 N879 1.356 . S
N882 C874 1.356 . S
N882 H888 0.984 . S
N882 H889 0.984 . S
N883 C876 1.356 . S
N883 H886 0.984 . S
N883 H887 0.985 . S
H884 N879 0.984 . S
H885 N879 0.985 . S
H886 N883 0.984 . S
H887 N883 0.985 . S
H888 N882 0.984 . S
H889 N882 0.984 . S
H890 N878 0.984 . S
H891 N878 0.985 . S
C892 C893 1.363 . S
C892 C898 1.379 . S
C892 N900 1.356 . S
C893 C892 1.363 . S
C893 C899 1.363 . S
C894 C895 1.363 1_556 S
C894 C899 1.379 . S
C894 N901 1.356 1_556 S
C895 C894 1.363 1_554 S
C895 C898 1.363 1_554 S
N896 C898 1.356 . S
N896 H908 0.984 . S
N896 H909 0.985 1_556 S
N897 C899 1.356 . S
N897 H902 0.984 . S
N897 H903 0.985 1_565 S
C898 C892 1.379 . S
C898 C895 1.363 1_556 S
C898 N896 1.356 . S
C899 C893 1.363 . S
C899 C894 1.379 . S
C899 N897 1.356 . S
N900 C892 1.356 . S
N900 H906 0.984 . S
N900 H907 0.984 . S
N901 C894 1.356 1_554 S
N901 H904 0.984 . S
N901 H905 0.985 . S
H902 N897 0.984 . S
H903 N897 0.985 1_545 S
H904 N901 0.984 . S
H905 N901 0.985 . S
H906 N900 0.984 . S
H907 N900 0.984 . S
H908 N896 0.984 . S
H909 N896 0.985 1_554 S
C910 C911 1.363 . S
C910 C916 1.379 . S
C910 N918 1.356 . S
C911 C910 1.363 . S
C911 C917 1.363 . S
C912 C913 1.363 . S
C912 C917 1.379 . S
C912 N919 1.356 . S
C913 C912 1.363 . S
C913 C916 1.363 . S
N914 C916 1.356 . S
N914 H926 0.984 . S
N914 H927 0.985 . S
N915 C917 1.356 . S
N915 H920 0.984 . S
N915 H921 0.985 . S
C916 C910 1.379 . S
C916 C913 1.363 . S
C916 N914 1.356 . S
C917 C911 1.363 . S
C917 C912 1.379 . S
C917 N915 1.356 . S
N918 C910 1.356 . S
N918 H924 0.984 . S
N918 H925 0.984 . S
N919 C912 1.356 . S
N919 H922 0.984 . S
N919 H923 0.985 . S
H920 N915 0.984 . S
H921 N915 0.985 . S
H922 N919 0.984 . S
H923 N919 0.985 . S
H924 N918 0.984 . S
H925 N918 0.984 . S
H926 N914 0.984 . S
H927 N914 0.985 . S
C928 C929 1.363 . S
C928 C934 1.379 . S
C928 N936 1.356 1_545 S
C929 C928 1.363 . S
C929 C935 1.363 . S
C930 C931 1.363 . S
C930 C935 1.379 . S
C930 N937 1.356 . S
C931 C930 1.363 . S
C931 C934 1.363 . S
N932 C934 1.356 . S
N932 H944 0.984 . S
N932 H945 0.985 . S
N933 C935 1.356 . S
N933 H938 0.984 . S
N933 H939 0.985 . S
C934 C928 1.379 . S
C934 C931 1.363 . S
C934 N932 1.356 . S
C935 C929 1.363 . S
C935 C930 1.379 . S
C935 N933 1.356 . S
N936 C928 1.356 1_565 S
N936 H942 0.984 . S
N936 H943 0.984 . S
N937 C930 1.356 . S
N937 H940 0.984 . S
N937 H941 0.985 . S
H938 N933 0.984 . S
H939 N933 0.985 . S
H940 N937 0.984 . S
H941 N937 0.985 . S
H942 N936 0.984 . S
H943 N936 0.984 . S
H944 N932 0.984 . S
H945 N932 0.985 . S
C946 C947 1.363 . S
C946 C952 1.379 . S
C946 N954 1.356 . S
C947 C946 1.363 . S
C947 C953 1.363 . S
C948 C949 1.363 . S
C948 C953 1.379 . S
C948 N955 1.356 . S
C949 C948 1.363 . S
C949 C952 1.363 . S
N950 C952 1.356 . S
N950 H962 0.984 . S
N950 H963 0.985 . S
N951 C953 1.356 . S
N951 H956 0.984 . S
N951 H957 0.985 . S
C952 C946 1.379 . S
C952 C949 1.363 . S
C952 N950 1.356 . S
C953 C947 1.363 . S
C953 C948 1.379 . S
C953 N951 1.356 . S
N954 C946 1.356 . S
N954 H960 0.984 . S
N954 H961 0.984 . S
N955 C948 1.356 . S
N955 H958 0.984 . S
N955 H959 0.985 . S
H956 N951 0.984 . S
H957 N951 0.985 . S
H958 N955 0.984 . S
H959 N955 0.985 . S
H960 N954 0.984 . S
H961 N954 0.984 . S
H962 N950 0.984 . S
H963 N950 0.985 . S
C964 C965 1.363 . S
C964 C970 1.379 . S
C964 N972 1.356 . S
C965 C964 1.363 . S
C965 C971 1.363 . S
C966 C967 1.363 . S
C966 C971 1.379 . S
C966 N973 1.356 . S
C967 C966 1.363 . S
C967 C970 1.363 . S
N968 C970 1.356 . S
N968 H980 0.984 . S
N968 H981 0.985 . S
N969 C971 1.356 1_655 S
N969 H974 0.984 . S
N969 H975 0.985 . S
C970 C964 1.379 . S
C970 C967 1.363 . S
C970 N968 1.356 . S
C971 C965 1.363 . S
C971 C966 1.379 . S
C971 N969 1.356 1_455 S
N972 C964 1.356 . S
N972 H978 0.984 . S
N972 H979 0.984 . S
N973 C966 1.356 . S
N973 H976 0.984 . S
N973 H977 0.985 . S
H974 N969 0.984 . S
H975 N969 0.985 . S
H976 N973 0.984 . S
H977 N973 0.985 . S
H978 N972 0.984 . S
H979 N972 0.984 . S
H980 N968 0.984 . S
H981 N968 0.985 . S
C982 C983 1.363 . S
C982 C988 1.379 . S
C982 N990 1.356 . S
C983 C982 1.363 . S
C983 C989 1.363 . S
C984 C985 1.363 . S
C984 C989 1.379 . S
C984 N991 1.356 . S
C985 C984 1.363 . S
C985 C988 1.363 . S
N986 C988 1.356 1_655 S
N986 H998 0.984 . S
N986 H999 0.985 . S
N987 C989 1.356 . S
N987 H992 0.984 . S
N987 H993 0.985 . S
C988 C982 1.379 . S
C988 C985 1.363 . S
C988 N986 1.356 1_455 S
C989 C983 1.363 . S
C989 C984 1.379 . S
C989 N987 1.356 . S
N990 C982 1.356 . S
N990 H996 0.984 . S
N990 H997 0.984 . S
N991 C984 1.356 . S
N991 H994 0.984 . S
N991 H995 0.985 . S
H992 N987 0.984 . S
H993 N987 0.985 . S
H994 N991 0.984 . S
H995 N991 0.985 . S
H996 N990 0.984 . S
H997 N990 0.984 . S
H998 N986 0.984 . S
H999 N986 0.985 . S
C1000 C1001 1.363 . S
C1000 C1006 1.379 . S
C1000 N1008 1.356 . S
C1001 C1000 1.363 . S
C1001 C1007 1.363 . S
C1002 C1003 1.363 . S
C1002 C1007 1.379 . S
C1002 N1009 1.356 . S
C1003 C1002 1.363 . S
C1003 C1006 1.363 . S
N1004 C1006 1.356 . S
N1004 H1016 0.984 . S
N1004 H1017 0.985 . S
N1005 C1007 1.356 . S
N1005 H1010 0.984 . S
N1005 H1011 0.985 . S
C1006 C1000 1.379 . S
C1006 C1003 1.363 . S
C1006 N1004 1.356 . S
C1007 C1001 1.363 . S
C1007 C1002 1.379 . S
C1007 N1005 1.356 . S
N1008 C1000 1.356 . S
N1008 H1014 0.984 . S
N1008 H1015 0.984 . S
N1009 C1002 1.356 . S
N1009 H1012 0.984 . S
N1009 H1013 0.985 . S
H1010 N1005 0.984 . S
H1011 N1005 0.985 . S
H1012 N1009 0.984 . S
H1013 N1009 0.985 . S
H1014 N1008 0.984 . S
H1015 N1008 0.984 . S
H1016 N1004 0.984 . S
H1017 N1004 0.985 . S
C1018 C1019 1.363 . S
C1018 C1024 1.379 . S
C1018 N1026 1.356 . S
C1019 C1018 1.363 . S
C1019 C1025 1.363 . S
C1020 C1021 1.363 . S
C1020 C1025 1.379 . S
C1020 N1027 1.356 . S
C1021 C1020 1.363 . S
C1021 C1024 1.363 . S
N1022 C1024 1.356 . S
N1022 H1034 0.984 . S
N1022 H1035 0.985 . S
N1023 C1025 1.356 . S
N1023 H1028 0.984 . S
N1023 H1029 0.985 . S
C1024 C1018 1.379 . S
C1024 C1021 1.363 . S
C1024 N1022 1.356 . S
C1025 C1019 1.363 . S
C1025 C1020 1.379 . S
C1025 N1023 1.356 . S
N1026 C1018 1.356 . S
N1026 H1032 0.984 . S
N1026 H1033 0.984 . S
N1027 C1020 1.356 . S
N1027 H1030 0.984 . S
N1027 H1031 0.985 . S
H1028 N1023 0.984 . S
H1029 N1023 0.985 . S
H1030 N1027 0.984 . S
H1031 N1027 0.985 . S
H1032 N1026 0.984 . S
H1033 N1026 0.984 . S
H1034 N1022 0.984 . S
H1035 N1022 0.985 . S
C1036 C1037 1.363 . S
C1036 C1042 1.379 . S
C1036 N1044 1.356 . S
C1037 C1036 1.363 . S
C1037 C1043 1.363 . S
C1038 C1039 1.363 . S
C1038 C1043 1.379 . S
C1038 N1045 1.356 . S
C1039 C1038 1.363 . S
C1039 C1042 1.363 . S
N1040 C1042 1.356 . S
N1040 H1052 0.984 . S
N1040 H1053 0.985 . S
N1041 C1043 1.356 . S
N1041 H1046 0.984 . S
N1041 H1047 0.985 . S
C1042 C1036 1.379 . S
C1042 C1039 1.363 . S
C1042 N1040 1.356 . S
C1043 C1037 1.363 . S
C1043 C1038 1.379 . S
C1043 N1041 1.356 . S
N1044 C1036 1.356 . S
N1044 H1050 0.984 . S
N1044 H1051 0.984 . S
N1045 C1038 1.356 . S
N1045 H1048 0.984 . S
N1045 H1049 0.985 . S
H1046 N1041 0.984 . S
H1047 N1041 0.985 . S
H1048 N1045 0.984 . S
H1049 N1045 0.985 . S
H1050 N1044 0.984 . S
H1051 N1044 0.984 . S
H1052 N1040 0.984 . S
H1053 N1040 0.985 . S
C1054 C1055 1.363 . S
C1054 C1060 1.379 . S
C1054 N1062 1.356 . S
C1055 C1054 1.363 . S
C1055 C1061 1.363 . S
C1056 C1057 1.363 . S
C1056 C1061 1.379 . S
C1056 N1063 1.356 1_655 S
C1057 C1056 1.363 . S
C1057 C1060 1.363 . S
N1058 C1060 1.356 . S
N1058 H1070 0.984 . S
N1058 H1071 0.985 . S
N1059 C1061 1.356 . S
N1059 H1064 0.984 1_565 S
N1059 H1065 0.985 1_565 S
C1060 C1054 1.379 . S
C1060 C1057 1.363 . S
C1060 N1058 1.356 . S
C1061 C1055 1.363 . S
C1061 C1056 1.379 . S
C1061 N1059 1.356 . S
N1062 C1054 1.356 . S
N1062 H1068 0.984 . S
N1062 H1069 0.984 . S
N1063 C1056 1.356 1_455 S
N1063 H1066 0.984 . S
N1063 H1067 0.985 . S
H1064 N1059 0.984 1_545 S
H1065 N1059 0.985 1_545 S
H1066 N1063 0.984 . S
H1067 N1063 0.985 . S
H1068 N1062 0.984 . S
H1069 N1062 0.984 . S
H1070 N1058 0.984 . S
H1071 N1058 0.985 . S
C1072 C1073 1.363 . S
C1072 C1078 1.379 1_554 S
C1072 N1080 1.356 . S
C1073 C1072 1.363 . S
C1073 C1079 1.363 . S
C1074 C1075 1.363 . S
C1074 C1079 1.379 1_556 S
C1074 N1081 1.356 . S
C1075 C1074 1.363 . S
C1075 C1078 1.363 . S
N1076 C1078 1.356 . S
N1076 H1088 0.984 . S
N1076 H1089 0.985 . S
N1077 C1079 1.356 . S
N1077 H1082 0.984 . S
N1077 H1083 0.985 . S
C1078 C1072 1.379 1_556 S
C1078 C1075 1.363 . S
C1078 N1076 1.356 . S
C1079 C1073 1.363 . S
C1079 C1074 1.379 1_554 S
C1079 N1077 1.356 . S
N1080 C1072 1.356 . S
N1080 H1086 0.984 . S
N1080 H1087 0.984 . S
N1081 C1074 1.356 . S
N1081 H1084 0.984 . S
N1081 H1085 0.985 . S
H1082 N1077 0.984 . S
H1083 N1077 0.985 . S
H1084 N1081 0.984 . S
H1085 N1081 0.985 . S
H1086 N1080 0.984 . S
H1087 N1080 0.984 . S
H1088 N1076 0.984 . S
H1089 N1076 0.985 . S
C1090 C1091 1.363 . S
C1090 C1096 1.379 . S
C1090 N1098 1.356 . S
C1091 C1090 1.363 . S
C1091 C1097 1.363 . S
C1092 C1093 1.363 . S
C1092 C1097 1.379 . S
C1092 N1099 1.356 . S
C1093 C1092 1.363 . S
C1093 C1096 1.363 . S
N1094 C1096 1.356 . S
N1094 H1106 0.984 . S
N1094 H1107 0.985 . S
N1095 C1097 1.356 . S
N1095 H1100 0.984 . S
N1095 H1101 0.985 . S
C1096 C1090 1.379 . S
C1096 C1093 1.363 . S
C1096 N1094 1.356 . S
C1097 C1091 1.363 . S
C1097 C1092 1.379 . S
C1097 N1095 1.356 . S
N1098 C1090 1.356 . S
N1098 H1104 0.984 . S
N1098 H1105 0.984 . S
N1099 C1092 1.356 . S
N1099 H1102 0.984 . S
N1099 H1103 0.985 . S
H1100 N1095 0.984 . S
H1101 N1095 0.985 . S
H1102 N1099 0.984 . S
H1103 N1099 0.985 . S
H1104 N1098 0.984 . S
H1105 N1098 0.984 . S
H1106 N1094 0.984 . S
H1107 N1094 0.985 . S
C1108 C1109 1.363 . S
C1108 C1114 1.379 1_554 S
C1108 N1116 1.356 . S
C1109 C1108 1.363 . S
C1109 C1115 1.363 1_655 S
C1110 C1111 1.363 1_455 S
C1110 C1115 1.379 1_556 S
C1110 N1117 1.356 . S
C1111 C1110 1.363 1_655 S
C1111 C1114 1.363 . S
N1112 C1114 1.356 . S
N1112 H1124 0.984 . S
N1112 H1125 0.985 . S
N1113 C1115 1.356 . S
N1113 H1118 0.984 . S
N1113 H1119 0.985 . S
C1114 C1108 1.379 1_556 S
C1114 C1111 1.363 . S
C1114 N1112 1.356 . S
C1115 C1109 1.363 1_455 S
C1115 C1110 1.379 1_554 S
C1115 N1113 1.356 . S
N1116 C1108 1.356 . S
N1116 H1122 0.981 1_554 S
N1116 H1123 0.984 . S
N1117 C1110 1.356 . S
N1117 H1120 0.984 . S
N1117 H1121 0.981 1_556 S
H1118 N1113 0.984 . S
H1119 N1113 0.985 . S
H1120 N1117 0.984 . S
H1121 N1117 0.981 1_554 S
H1122 N1116 0.981 1_556 S
H1123 N1116 0.984 . S
H1124 N1112 0.984 . S
H1125 N1112 0.985 . S
C1126 C1127 1.363 1_545 S
C1126 C1132 1.379 . S
C1126 N1134 1.356 . S
C1127 C1126 1.363 1_565 S
C1127 C1133 1.363 . S
C1128 C1129 1.363 . S
C1128 C1133 1.379 . S
C1128 N1135 1.356 . S
C1129 C1128 1.363 . S
C1129 C1132 1.363 1_565 S
N1130 C1132 1.356 . S
N1130 H1142 0.984 . S
N1130 H1143 0.985 . S
N1131 C1133 1.356 . S
N1131 H1136 0.984 . S
N1131 H1137 0.985 . S
C1132 C1126 1.379 . S
C1132 C1129 1.363 1_545 S
C1132 N1130 1.356 . S
C1133 C1127 1.363 . S
C1133 C1128 1.379 . S
C1133 N1131 1.356 . S
N1134 C1126 1.356 . S
N1134 H1140 0.984 . S
N1134 H1141 0.984 . S
N1135 C1128 1.356 . S
N1135 H1138 0.984 . S
N1135 H1139 0.985 . S
H1136 N1131 0.984 . S
H1137 N1131 0.985 . S
H1138 N1135 0.984 . S
H1139 N1135 0.985 . S
H1140 N1134 0.984 . S
H1141 N1134 0.984 . S
H1142 N1130 0.984 . S
H1143 N1130 0.985 . S
C1144 C1145 1.363 . S
C1144 C1150 1.379 . S
C1144 N1152 1.356 . S
C1145 C1144 1.363 . S
C1145 C1151 1.363 1_554 S
C1146 C1147 1.363 . S
C1146 C1151 1.379 . S
C1146 N1153 1.356 . S
C1147 C1146 1.363 . S
C1147 C1150 1.363 1_556 S
N1148 C1150 1.356 1_556 S
N1148 H1160 0.984 1_556 S
N1148 H1161 0.985 . S
N1149 C1151 1.356 1_554 S
N1149 H1154 0.984 . S
N1149 H1155 0.985 1_554 S
C1150 C1144 1.379 . S
C1150 C1147 1.363 1_554 S
C1150 N1148 1.356 1_554 S
C1151 C1145 1.363 1_556 S
C1151 C1146 1.379 . S
C1151 N1149 1.356 1_556 S
N1152 C1144 1.356 . S
N1152 H1158 0.984 . S
N1152 H1159 0.984 . S
N1153 C1146 1.356 . S
N1153 H1156 0.984 . S
N1153 H1157 0.985 . S
H1154 N1149 0.984 . S
H1155 N1149 0.985 1_556 S
H1156 N1153 0.984 . S
H1157 N1153 0.985 . S
H1158 N1152 0.984 . S
H1159 N1152 0.984 . S
H1160 N1148 0.984 1_554 S
H1161 N1148 0.985 . S
C1162 C1163 1.363 . S
C1162 C1168 1.379 . S
C1162 N1170 1.356 . S
C1163 C1162 1.363 . S
C1163 C1169 1.363 . S
C1164 C1165 1.363 . S
C1164 C1169 1.379 . S
C1164 N1171 1.356 . S
C1165 C1164 1.363 . S
C1165 C1168 1.363 . S
N1166 C1168 1.356 . S
N1166 H1178 0.984 . S
N1166 H1179 0.985 . S
N1167 C1169 1.356 . S
N1167 H1172 0.984 . S
N1167 H1173 0.985 . S
C1168 C1162 1.379 . S
C1168 C1165 1.363 . S
C1168 N1166 1.356 . S
C1169 C1163 1.363 . S
C1169 C1164 1.379 . S
C1169 N1167 1.356 . S
N1170 C1162 1.356 . S
N1170 H1176 0.984 . S
N1170 H1177 0.984 . S
N1171 C1164 1.356 . S
N1171 H1174 0.984 . S
N1171 H1175 0.985 . S
H1172 N1167 0.984 . S
H1173 N1167 0.985 . S
H1174 N1171 0.984 . S
H1175 N1171 0.985 . S
H1176 N1170 0.984 . S
H1177 N1170 0.984 . S
H1178 N1166 0.984 . S
H1179 N1166 0.985 . S
C1180 C1181 1.363 1_554 S
C1180 C1186 1.379 . S
C1180 N1188 1.356 1_454 S
C1181 C1180 1.363 1_556 S
C1181 C1187 1.363 . S
C1182 C1183 1.363 1_556 S
C1182 C1187 1.379 . S
C1182 N1189 1.356 1_556 S
C1183 C1182 1.363 1_554 S
C1183 C1186 1.363 . S
N1184 C1186 1.356 1_655 S
N1184 H1196 0.984 . S
N1184 H1197 0.985 . S
N1185 C1187 1.356 . S
N1185 H1190 0.984 . S
N1185 H1191 0.985 . S
C1186 C1180 1.379 . S
C1186 C1183 1.363 . S
C1186 N1184 1.356 1_455 S
C1187 C1181 1.363 . S
C1187 C1182 1.379 . S
C1187 N1185 1.356 . S
N1188 C1180 1.356 1_656 S
N1188 H1194 0.984 1_556 S
N1188 H1195 0.984 . S
N1189 C1182 1.356 1_554 S
N1189 H1192 0.984 . S
N1189 H1193 0.985 1_554 S
H1190 N1185 0.984 . S
H1191 N1185 0.985 . S
H1192 N1189 0.984 . S
H1193 N1189 0.985 1_556 S
H1194 N1188 0.984 1_554 S
H1195 N1188 0.984 . S
H1196 N1184 0.984 . S
H1197 N1184 0.985 . S
C1198 C1199 1.363 1_565 S
C1198 C1204 1.379 . S
C1198 N1206 1.356 . S
C1199 C1198 1.363 1_545 S
C1199 C1205 1.363 . S
C1200 C1201 1.363 . S
C1200 C1205 1.379 . S
C1200 N1207 1.356 . S
C1201 C1200 1.363 . S
C1201 C1204 1.363 1_545 S
N1202 C1204 1.356 . S
N1202 H1214 0.984 . S
N1202 H1215 0.985 . S
N1203 C1205 1.356 . S
N1203 H1208 0.984 . S
N1203 H1209 0.985 . S
C1204 C1198 1.379 . S
C1204 C1201 1.363 1_565 S
C1204 N1202 1.356 . S
C1205 C1199 1.363 . S
C1205 C1200 1.379 . S
C1205 N1203 1.356 . S
N1206 C1198 1.356 . S
N1206 H1212 0.984 . S
N1206 H1213 0.984 . S
N1207 C1200 1.356 . S
N1207 H1210 0.984 . S
N1207 H1211 0.985 . S
H1208 N1203 0.984 . S
H1209 N1203 0.985 . S
H1210 N1207 0.984 . S
H1211 N1207 0.985 . S
H1212 N1206 0.984 . S
H1213 N1206 0.984 . S
H1214 N1202 0.984 . S
H1215 N1202 0.985 . S
C353 C7 1.229 . S
C355 C202 1.244 . S
C371 C29 1.229 . S
C373 C224 1.244 . S
C389 C246 1.244 . S
C391 C51 1.229 . S
C407 C184 1.244 . S
C409 C73 1.229 . S
C425 C95 1.229 . S
C427 C338 1.244 . S
C443 C272 1.244 . S
C445 C116 1.229 . S
C461 C294 1.244 . S
C463 C138 1.229 . S
C479 C316 1.244 . S
C481 C160 1.229 . S
C497 C30 1.244 . S
C499 C185 1.229 . S
C515 C203 1.229 . S
C517 C52 1.244 . S
C533 C74 1.244 . S
C535 C225 1.229 . S
C551 C8 1.244 . S
C553 C247 1.229 . S
C569 C158 1.244 . S
C571 C273 1.229 . S
C587 C96 1.244 . S
C589 C295 1.229 . S
C605 C317 1.229 . S
C607 C114 1.244 . S
C623 C136 1.244 . S
C625 C339 1.229 . S
C641 C4 1.523 . S
C643 C337 1.561 . S
C659 C26 1.523 . S
C661 C271 1.561 . S
C677 C48 1.523 . S
C679 C293 1.561 . S
C695 C315 1.561 . S
C697 C70 1.523 . S
C713 C92 1.523 . S
C715 C204 1.561 . S
C731 C118 1.523 . S
C733 C226 1.561 . S
C749 C140 1.523 . S
C751 C248 1.561 . S
C767 C183 1.561 . S
C769 C162 1.523 . S
C785 C180 1.523 . S
C787 C159 1.561 . S
C803 C206 1.523 . S
C805 C97 1.561 . S
C821 C228 1.523 . S
C823 C115 1.561 . S
C839 C250 1.523 . S
C841 C137 1.561 . S
C857 C31 1.561 . S
C859 C268 1.523 . S
C875 C53 1.561 . S
C877 C290 1.523 . S
C893 C75 1.561 . S
C895 C312 1.523 . S
C911 C334 1.523 . S
C913 C9 1.561 . S
C929 C161 1.443 . S
C931 C6 1.443 . S
C947 C94 1.443 . S
C949 C28 1.443 . S
C965 C50 1.443 . S
C967 C117 1.443 . S
C983 C72 1.443 . S
C985 C139 1.443 . S
C1001 C335 1.443 . S
C1003 C181 1.443 . S
C1019 C207 1.443 . S
C1021 C269 1.443 . S
C1037 C291 1.443 . S
C1039 C229 1.443 . S
C1055 C251 1.443 . S
C1057 C313 1.443 . S
C1073 C5 1.457 . S
C1075 C93 1.457 . S
C1091 C119 1.457 . S
C1093 C27 1.457 . S
C1109 C49 1.457 . S
C1111 C141 1.457 . S
C1127 C163 1.457 . S
C1129 C71 1.457 . S
C1145 C270 1.457 . S
C1147 C182 1.457 . S
C1163 C292 1.457 . S
C1165 C205 1.457 . S
C1181 C227 1.457 . S
C1183 C314 1.457 . S
C1199 C249 1.457 . S
C1201 C336 1.457 . S
