# Generated by pormake.
# Topology unp, (4)-cn, num edge types: 1
# Building blocks:
#     Node 0, Type 0, BuildingBlock: UXUYUI_clean_sbu_0, # of connection points: 4
#     Node 1, Type 0, BuildingBlock: UXUYUI_clean_sbu_0, # of connection points: 4
#     Node 2, Type 0, BuildingBlock: UXUYUI_clean_sbu_0, # of connection points: 4
#     Node 3, Type 0, BuildingBlock: UXUYUI_clean_sbu_0, # of connection points: 4
#     Node 4, Type 0, BuildingBlock: UXUYUI_clean_sbu_0, # of connection points: 4
#     Node 5, Type 0, BuildingBlock: UXUYUI_clean_sbu_0, # of connection points: 4
#     Node 6, Type 0, BuildingBlock: UXUYUI_clean_sbu_0, # of connection points: 4
#     Node 7, Type 0, BuildingBlock: UXUYUI_clean_sbu_0, # of connection points: 4
#     Node 8, Type 0, BuildingBlock: UXUYUI_clean_sbu_0, # of connection points: 4
#     Node 9, Type 0, BuildingBlock: UXUYUI_clean_sbu_0, # of connection points: 4
#     Node 10, Type 0, BuildingBlock: UXUYUI_clean_sbu_0, # of connection points: 4
#     Node 11, Type 0, BuildingBlock: UXUYUI_clean_sbu_0, # of connection points: 4
#     Node 12, Type 0, BuildingBlock: UXUYUI_clean_sbu_0, # of connection points: 4
#     Node 13, Type 0, BuildingBlock: UXUYUI_clean_sbu_0, # of connection points: 4
#     Node 14, Type 0, BuildingBlock: UXUYUI_clean_sbu_0, # of connection points: 4
#     Node 15, Type 0, BuildingBlock: UXUYUI_clean_sbu_0, # of connection points: 4
#     Node 16, Type 0, BuildingBlock: UXUYUI_clean_sbu_0, # of connection points: 4
#     Node 17, Type 0, BuildingBlock: UXUYUI_clean_sbu_0, # of connection points: 4
#     Edge 18, Type (0, 0), BuildingBlock: AJUNOK_clean_linker_0, # of connection points: 2
#     Edge 19, Type (0, 0), BuildingBlock: AJUNOK_clean_linker_0, # of connection points: 2
#     Edge 20, Type (0, 0), BuildingBlock: AJUNOK_clean_linker_0, # of connection points: 2
#     Edge 21, Type (0, 0), BuildingBlock: AJUNOK_clean_linker_0, # of connection points: 2
#     Edge 22, Type (0, 0), BuildingBlock: AJUNOK_clean_linker_0, # of connection points: 2
#     Edge 23, Type (0, 0), BuildingBlock: AJUNOK_clean_linker_0, # of connection points: 2
#     Edge 24, Type (0, 0), BuildingBlock: AJUNOK_clean_linker_0, # of connection points: 2
#     Edge 25, Type (0, 0), BuildingBlock: AJUNOK_clean_linker_0, # of connection points: 2
#     Edge 26, Type (0, 0), BuildingBlock: AJUNOK_clean_linker_0, # of connection points: 2
#     Edge 27, Type (0, 0), BuildingBlock: AJUNOK_clean_linker_0, # of connection points: 2
#     Edge 28, Type (0, 0), BuildingBlock: AJUNOK_clean_linker_0, # of connection points: 2
#     Edge 29, Type (0, 0), BuildingBlock: AJUNOK_clean_linker_0, # of connection points: 2
#     Edge 30, Type (0, 0), BuildingBlock: AJUNOK_clean_linker_0, # of connection points: 2
#     Edge 31, Type (0, 0), BuildingBlock: AJUNOK_clean_linker_0, # of connection points: 2
#     Edge 32, Type (0, 0), BuildingBlock: AJUNOK_clean_linker_0, # of connection points: 2
#     Edge 33, Type (0, 0), BuildingBlock: AJUNOK_clean_linker_0, # of connection points: 2
#     Edge 34, Type (0, 0), BuildingBlock: AJUNOK_clean_linker_0, # of connection points: 2
#     Edge 35, Type (0, 0), BuildingBlock: AJUNOK_clean_linker_0, # of connection points: 2
#     Edge 36, Type (0, 0), BuildingBlock: AJUNOK_clean_linker_0, # of connection points: 2
#     Edge 37, Type (0, 0), BuildingBlock: AJUNOK_clean_linker_0, # of connection points: 2
#     Edge 38, Type (0, 0), BuildingBlock: AJUNOK_clean_linker_0, # of connection points: 2
#     Edge 39, Type (0, 0), BuildingBlock: AJUNOK_clean_linker_0, # of connection points: 2
#     Edge 40, Type (0, 0), BuildingBlock: AJUNOK_clean_linker_0, # of connection points: 2
#     Edge 41, Type (0, 0), BuildingBlock: AJUNOK_clean_linker_0, # of connection points: 2
#     Edge 42, Type (0, 0), BuildingBlock: AJUNOK_clean_linker_0, # of connection points: 2
#     Edge 43, Type (0, 0), BuildingBlock: AJUNOK_clean_linker_0, # of connection points: 2
#     Edge 44, Type (0, 0), BuildingBlock: AJUNOK_clean_linker_0, # of connection points: 2
#     Edge 45, Type (0, 0), BuildingBlock: AJUNOK_clean_linker_0, # of connection points: 2
#     Edge 46, Type (0, 0), BuildingBlock: AJUNOK_clean_linker_0, # of connection points: 2
#     Edge 47, Type (0, 0), BuildingBlock: AJUNOK_clean_linker_0, # of connection points: 2
#     Edge 48, Type (0, 0), BuildingBlock: AJUNOK_clean_linker_0, # of connection points: 2
#     Edge 49, Type (0, 0), BuildingBlock: AJUNOK_clean_linker_0, # of connection points: 2
#     Edge 50, Type (0, 0), BuildingBlock: AJUNOK_clean_linker_0, # of connection points: 2
#     Edge 51, Type (0, 0), BuildingBlock: AJUNOK_clean_linker_0, # of connection points: 2
#     Edge 52, Type (0, 0), BuildingBlock: AJUNOK_clean_linker_0, # of connection points: 2
#     Edge 53, Type (0, 0), BuildingBlock: AJUNOK_clean_linker_0, # of connection points: 2
# Relax obj value: 0.501
# Max RMSD: 0.229
# Mean RMSD: 0.224
data_MOF--net-unp--node1-UXUYUI_clean_sbu_0--edge1-AJUNOK_clean_linker_0
_symmetry_space_group_name_H-M    P1
_symmetry_Int_Tables_number       1
_symmetry_cell_setting            triclinic
loop_
_symmetry_equiv_pos_as_xyz
'x, y, z'
_cell_length_a     51.780378
_cell_length_b     51.778926
_cell_length_c     85.65821
_cell_angle_alpha  90.22196
_cell_angle_beta   89.776088
_cell_angle_gamma 120.51737
loop_
_atom_site_label
_atom_site_type_symbol
_atom_site_fract_x
_atom_site_fract_y
_atom_site_fract_z
_atom_type_partial_charge
Li0 Li 0.19517 0.21306 0.08728 0.0
Li1 Li 0.2076 0.23178 0.11347 0.0
Li2 Li 0.18687 0.17823 0.10866 0.0
Li3 Li 0.15674 0.20178 0.10739 0.0
C4 C 0.24944 0.21348 0.10829 0.0
N5 N 0.29817 0.21759 0.12376 0.0
C6 C 0.24801 0.20821 0.12437 0.0
C7 C 0.2757 0.22083 0.10011 0.0
C8 C 0.27288 0.21044 0.13197 0.0
C9 C 0.30007 0.22278 0.10813 0.0
C10 C 0.20045 0.27158 0.0984 0.0
C11 C 0.21084 0.31794 0.1106 0.0
N12 N 0.23293 0.33345 0.09995 0.0
C13 C 0.22305 0.28799 0.08749 0.0
C14 C 0.19409 0.28666 0.10997 0.0
C15 C 0.23929 0.31925 0.0885 0.0
C16 C 0.18131 0.2092 0.05546 0.0
N17 N 0.20436 0.21913 0.06574 0.0
C18 C 0.23968 0.23238 0.04493 0.0
C19 C 0.23318 0.23093 0.06085 0.0
C20 C 0.2162 0.22142 0.03407 0.0
C21 C 0.18675 0.21 0.03947 0.0
H22 H 0.15861 0.19982 0.05974 0.0
H23 H 0.25099 0.23858 0.06933 0.0
C24 C 0.2354 0.26502 0.14092 0.0
N25 N 0.23788 0.26412 0.12516 0.0
C26 C 0.26057 0.28379 0.14989 0.0
C27 C 0.28975 0.30155 0.12613 0.0
C28 C 0.26408 0.28248 0.11763 0.0
C29 C 0.28837 0.30132 0.14248 0.0
H30 H 0.21456 0.24958 0.14663 0.0
H31 H 0.26559 0.28061 0.10513 0.0
C32 C 0.15505 0.15251 0.08165 0.0
N33 N 0.14739 0.10872 0.06053 0.0
C34 C 0.12641 0.13173 0.07626 0.0
C35 C 0.17982 0.15099 0.07632 0.0
C36 C 0.123 0.10976 0.06557 0.0
C37 C 0.17547 0.1287 0.06564 0.0
C38 C 0.15658 0.1921 0.13728 0.0
C39 C 0.14061 0.16381 0.1442 0.0
C40 C 0.15085 0.21463 0.1419 0.0
C41 C 0.11864 0.15832 0.15534 0.0
C42 C 0.12869 0.20827 0.15307 0.0
N43 N 0.11313 0.18046 0.15948 0.0
C44 C 0.20669 0.13494 0.11202 0.0
C45 C 0.15517 0.11831 0.1156 0.0
C46 C 0.20107 0.10568 0.11388 0.0
N47 N 0.18381 0.14066 0.11302 0.0
C48 C 0.14856 0.08889 0.1175 0.0
C49 C 0.17165 0.08226 0.11668 0.0
H50 H 0.22912 0.15273 0.10929 0.0
H51 H 0.13726 0.12327 0.11565 0.0
C52 C 0.1066 0.21139 0.11114 0.0
N53 N 0.11634 0.19147 0.11046 0.0
C54 C 0.07598 0.20109 0.113 0.0
C55 C 0.06653 0.1503 0.11353 0.0
C56 C 0.0971 0.16151 0.1117 0.0
C57 C 0.05554 0.1701 0.11406 0.0
H58 H 0.1225 0.23514 0.11016 0.0
H59 H 0.10558 0.14628 0.1111 0.0
O60 O 0.22576 0.21245 0.10061 0.0
O61 O 0.18458 0.24094 0.09771 0.0
O62 O 0.15865 0.174 0.0922 0.0
O63 O 0.17773 0.19774 0.12607 0.0
H64 H 0.22801 0.20253 0.13097 0.0
H65 H 0.2773 0.22507 0.08769 0.0
H66 H 0.27209 0.20652 0.1444 0.0
H67 H 0.32053 0.22848 0.10194 0.0
H68 H 0.20626 0.32989 0.11955 0.0
H69 H 0.22822 0.27673 0.07842 0.0
H70 H 0.17642 0.27438 0.11838 0.0
H71 H 0.25699 0.33221 0.08019 0.0
H72 H 0.26262 0.24101 0.04118 0.0
H73 H 0.16811 0.20144 0.0314 0.0
H74 H 0.25882 0.28281 0.1625 0.0
H75 H 0.31087 0.31483 0.12006 0.0
H76 H 0.10701 0.13258 0.0803 0.0
H77 H 0.20216 0.1668 0.0804 0.0
H78 H 0.10095 0.09353 0.0613 0.0
H79 H 0.19442 0.12726 0.06142 0.0
H80 H 0.14519 0.14629 0.14108 0.0
H81 H 0.16316 0.23669 0.13677 0.0
H82 H 0.106 0.13647 0.16072 0.0
H83 H 0.12383 0.22544 0.15661 0.0
H84 H 0.21937 0.10132 0.11288 0.0
H85 H 0.1254 0.07135 0.119 0.0
H86 H 0.06841 0.21708 0.11356 0.0
H87 H 0.05153 0.12625 0.11411 0.0
Li88 Li 0.83044 0.0189 0.10281 0.0
Li89 Li 0.80405 0.9648 0.10471 0.0
Li90 Li 0.79132 0.98993 0.08395 0.0
Li91 Li 0.77973 0.99261 0.1119 0.0
C92 C 0.85179 0.99722 0.07699 0.0
N93 N 0.8975 0.0108 0.05587 0.0
C94 C 0.87246 0.98794 0.07975 0.0
C95 C 0.85431 0.0132 0.06338 0.0
C96 C 0.89544 0.99511 0.06897 0.0
C97 C 0.87758 0.0199 0.05288 0.0
C98 C 0.83637 0.99453 0.13119 0.0
C99 C 0.85479 0.99126 0.15649 0.0
N100 N 0.8798 0.99403 0.14962 0.0
C101 C 0.86225 0.99734 0.1244 0.0
C102 C 0.83257 0.99147 0.14737 0.0
C103 C 0.88395 0.99706 0.1339 0.0
C104 C 0.87725 0.06669 0.12031 0.0
N105 N 0.86874 0.05509 0.10569 0.0
C106 C 0.91641 0.09173 0.09541 0.0
C107 C 0.88728 0.06794 0.09327 0.0
C108 C 0.92648 0.10293 0.11049 0.0
C109 C 0.90626 0.0906 0.12301 0.0
H110 H 0.86184 0.05679 0.12998 0.0
H111 H 0.87981 0.05946 0.08169 0.0
C112 C 0.81636 0.92009 0.09629 0.0
N113 N 0.80893 0.93145 0.1087 0.0
C114 C 0.82701 0.9005 0.09864 0.0
C115 C 0.81966 0.90263 0.12641 0.0
C116 C 0.80913 0.92219 0.12351 0.0
C117 C 0.82975 0.8924 0.11391 0.0
H118 H 0.81591 0.92784 0.08464 0.0
H119 H 0.80278 0.93129 0.13317 0.0
C120 C 0.8122 0.05552 0.09594 0.0
N121 N 0.84493 0.11741 0.09596 0.0
C122 C 0.81441 0.07144 0.10956 0.0
C123 C 0.8265 0.07103 0.08231 0.0
C124 C 0.8311 0.10275 0.10934 0.0
C125 C 0.84297 0.10234 0.08256 0.0
C126 C 0.74205 0.93115 0.1058 0.0
C127 C 0.71788 0.90837 0.09761 0.0
C128 C 0.74434 0.92835 0.12189 0.0
C129 C 0.69634 0.88308 0.10566 0.0
C130 C 0.72235 0.90273 0.12952 0.0
N131 N 0.699 0.88081 0.12132 0.0
C132 C 0.78317 0.96884 0.0533 0.0
C133 C 0.77124 0.00695 0.05746 0.0
C134 C 0.78055 0.97056 0.0372 0.0
N135 N 0.77947 0.98759 0.06296 0.0
C136 C 0.76807 0.0092 0.04142 0.0
C137 C 0.77363 0.99144 0.03111 0.0
H138 H 0.78994 0.95386 0.05806 0.0
H139 H 0.76862 0.02168 0.06546 0.0
C140 C 0.76275 0.00763 0.13972 0.0
N141 N 0.75235 0.99477 0.12555 0.0
C142 C 0.74434 0.01223 0.14984 0.0
C143 C 0.7046 0.98954 0.13071 0.0
C144 C 0.72385 0.9854 0.12093 0.0
C145 C 0.71495 0.00339 0.14531 0.0
H146 H 0.78572 0.01528 0.14291 0.0
H147 H 0.71636 0.97542 0.1095 0.0
O148 O 0.82859 0.98964 0.08722 0.0
O149 O 0.81449 0.99419 0.12211 0.0
O150 O 0.79672 0.02488 0.09606 0.0
O151 O 0.76328 0.956 0.09803 0.0
H152 H 0.8708 0.97522 0.09007 0.0
H153 H 0.8389 0.021 0.06108 0.0
H154 H 0.91158 0.9881 0.071 0.0
H155 H 0.87986 0.03243 0.04238 0.0
H156 H 0.85211 0.98884 0.16903 0.0
H157 H 0.86561 -9e-05 0.11195 0.0
H158 H 0.81256 0.98903 0.15282 0.0
H159 H 0.90409 0.99924 0.12878 0.0
H160 H 0.93129 0.1002 0.08542 0.0
H161 H 0.91308 0.09877 0.13481 0.0
H162 H 0.83508 0.89361 0.08871 0.0
H163 H 0.82138 0.89681 0.13834 0.0
H164 H 0.80362 0.05975 0.12022 0.0
H165 H 0.82525 0.05903 0.0717 0.0
H166 H 0.83314 0.11538 0.11981 0.0
H167 H 0.85432 0.11465 0.07213 0.0
H168 H 0.71581 0.91022 0.08514 0.0
H169 H 0.76283 0.94575 0.12845 0.0
H170 H 0.6775 0.86526 0.09947 0.0
H171 H 0.72384 0.90027 0.14196 0.0
H172 H 0.78497 0.95654 0.02954 0.0
H173 H 0.76301 0.02576 0.03708 0.0
H174 H 0.75346 0.02379 0.16079 0.0
H175 H 0.68212 0.98263 0.1268 0.0
Li176 Li 0.99397 0.83474 0.10867 0.0
Li177 Li 0.04828 0.85723 0.10643 0.0
Li178 Li 0.01485 0.81749 0.08828 0.0
Li179 Li 0.01851 0.80573 0.11539 0.0
C180 C 0.00607 0.86831 0.08177 0.0
N181 N 0.97656 0.88899 0.06345 0.0
C182 C 0.0175 0.89911 0.08016 0.0
C183 C 0.97969 0.84807 0.07403 0.0
C184 C 0.00223 0.90911 0.07086 0.0
C185 C 0.96509 0.85895 0.06483 0.0
C186 C 0.02604 0.8648 0.13547 0.0
C187 C 0.0258 0.8832 0.16135 0.0
N188 N 0.03231 0.91002 0.15518 0.0
C189 C 0.03271 0.89254 0.1294 0.0
C190 C 0.0226 0.86008 0.15158 0.0
C191 C 0.03582 0.91512 0.13954 0.0
C192 C 0.93443 0.81843 0.11738 0.0
N193 N 0.96194 0.84175 0.11345 0.0
C194 C 0.9435 0.87566 0.11417 0.0
C195 C 0.96685 0.87004 0.11205 0.0
C196 C 0.91469 0.85193 0.11768 0.0
C197 C 0.91023 0.82301 0.11947 0.0
H198 H 0.93116 0.79619 0.11861 0.0
H199 H 0.98874 0.88827 0.10892 0.0
C200 C 0.09195 0.91341 0.09584 0.0
N201 N 0.08461 0.8946 0.10821 0.0
C202 C 0.11262 0.94388 0.09763 0.0
C203 C 0.12022 0.93443 0.12435 0.0
C204 C 0.09914 0.90413 0.12209 0.0
C205 C 0.12589 0.95492 0.11226 0.0
H206 H 0.08002 0.90513 0.08494 0.0
H207 H 0.09268 0.88876 0.1318 0.0
C208 C 0.95905 0.76652 0.0977 0.0
N209 N 0.9128 0.71225 0.08693 0.0
C210 C 0.96007 0.74027 0.09975 0.0
C211 C 0.93426 0.76505 0.09036 0.0
C212 C 0.93654 0.71309 0.09418 0.0
C213 C 0.91119 0.73744 0.08494 0.0
C214 C 0.07667 0.82424 0.10502 0.0
C215 C 0.09617 0.82059 0.09518 0.0
C216 C 0.08359 0.83045 0.12085 0.0
C217 C 0.12234 0.82322 0.10135 0.0
C218 C 0.10997 0.8329 0.12658 0.0
N219 N 0.12864 0.82927 0.11679 0.0
C220 C 0.02241 0.82694 0.05614 0.0
C221 C 0.99492 0.7754 0.06274 0.0
C222 C 0.01765 0.81999 0.0403 0.0
N223 N 0.01033 0.80479 0.06701 0.0
C224 C 0.98966 0.7674 0.04698 0.0
C225 C 0.0007 0.78992 0.03558 0.0
H226 H 0.03522 0.85011 0.05981 0.0
H227 H 0.98632 0.75812 0.0715 0.0
C228 C 0.99934 0.77177 0.14232 0.0
N229 N 0.01573 0.77604 0.12917 0.0
C230 C 0.9939 0.74876 0.1526 0.0
C231 C 0.02276 0.73523 0.13572 0.0
C232 C 0.02767 0.75858 0.12574 0.0
C233 C 0.00551 0.73002 0.14928 0.0
H234 H 0.98971 0.78572 0.14454 0.0
H235 H 0.0402 0.7622 0.11504 0.0
O236 O 0.02044 0.85811 0.09108 0.0
O237 O 0.02346 0.84249 0.12581 0.0
O238 O 0.98175 0.7933 0.10327 0.0
O239 O 0.05101 0.82175 0.09907 0.0
H240 H 0.03771 0.91513 0.0862 0.0
H241 H 0.97068 0.82424 0.07506 0.0
H242 H 0.01074 0.93287 0.06957 0.0
H243 H 0.94465 0.8435 0.05877 0.0
H244 H 0.02319 0.87984 0.17384 0.0
H245 H 0.03573 0.89673 0.11698 0.0
H246 H 0.01761 0.8388 0.15649 0.0
H247 H 0.0411 0.93673 0.13498 0.0
H248 H 0.94775 0.89824 0.11258 0.0
H249 H 0.88831 0.80422 0.12234 0.0
H250 H 0.11634 0.95892 0.08801 0.0
H251 H 0.1305 0.942 0.13571 0.0
H252 H 0.97898 0.74088 0.1054 0.0
H253 H 0.93266 0.78492 0.08895 0.0
H254 H 0.93717 0.69267 0.09559 0.0
H255 H 0.89193 0.73602 0.07919 0.0
H256 H 0.09112 0.81578 0.08289 0.0
H257 H 0.06875 0.83324 0.12867 0.0
H258 H 0.13765 0.82045 0.09387 0.0
H259 H 0.11558 0.83768 0.13881 0.0
H260 H 0.0269 0.83795 0.0318 0.0
H261 H 0.97642 0.74395 0.04379 0.0
H262 H 0.97974 0.74491 0.16269 0.0
H263 H 0.03181 0.72103 0.13272 0.0
Li264 Li 0.22368 0.20381 0.88717 0.0
Li265 Li 0.21176 0.19285 0.91471 0.0
Li266 Li 0.19591 0.15244 0.89537 0.0
Li267 Li 0.17216 0.18287 0.89673 0.0
C268 C 0.26685 0.19553 0.8986 0.0
N269 N 0.32741 0.22308 0.89211 0.0
C270 C 0.28771 0.21675 0.90894 0.0
C271 C 0.27676 0.18805 0.88506 0.0
C272 C 0.31825 0.23049 0.90543 0.0
C273 C 0.30748 0.20232 0.88195 0.0
C274 C 0.19557 0.23981 0.89985 0.0
C275 C 0.16256 0.25724 0.90839 0.0
N276 N 0.16828 0.27313 0.89493 0.0
C277 C 0.20113 0.25634 0.88612 0.0
C278 C 0.17618 0.24029 0.9111 0.0
C279 C 0.18713 0.27305 0.88386 0.0
C280 C 0.24428 0.22956 0.85761 0.0
N281 N 0.25188 0.23207 0.87293 0.0
C282 C 0.2955 0.27992 0.86849 0.0
C283 C 0.27698 0.25649 0.87849 0.0
C284 C 0.28762 0.27854 0.8527 0.0
C285 C 0.26183 0.25271 0.84725 0.0
H286 H 0.22362 0.21041 0.85361 0.0
H287 H 0.28186 0.25845 0.89083 0.0
C288 C 0.23175 0.18732 0.94447 0.0
N289 N 0.22495 0.2047 0.93555 0.0
C290 C 0.23526 0.19195 0.96057 0.0
C291 C 0.2273 0.23385 0.95772 0.0
C292 C 0.22373 0.22828 0.9417 0.0
C293 C 0.23222 0.21497 0.96739 0.0
H294 H 0.23265 0.16877 0.93921 0.0
H295 H 0.21848 0.24182 0.9343 0.0
C296 C 0.17564 0.14995 0.86678 0.0
N297 N 0.1533 0.10414 0.84502 0.0
C298 C 0.14472 0.13221 0.86444 0.0
C299 C 0.1952 0.14459 0.85795 0.0
C300 C 0.13387 0.10911 0.8534 0.0
C301 C 0.18346 0.12126 0.84704 0.0
C302 C 0.16618 0.14491 0.92748 0.0
C303 C 0.17017 0.12111 0.93171 0.0
C304 C 0.1573 0.15842 0.9388 0.0
C305 C 0.16524 0.11125 0.94718 0.0
C306 C 0.1527 0.14798 0.95415 0.0
N307 N 0.15672 0.1248 0.95799 0.0
C308 C 0.20659 0.10334 0.89036 0.0
C309 C 0.15622 0.09245 0.89098 0.0
C310 C 0.19694 0.07293 0.88815 0.0
N311 N 0.18614 0.11232 0.89172 0.0
C312 C 0.14568 0.06216 0.88851 0.0
C313 C 0.16611 0.0521 0.88709 0.0
H314 H 0.23026 0.11964 0.89121 0.0
H315 H 0.14053 0.10022 0.89249 0.0
C316 C 0.12827 0.18926 0.88003 0.0
N317 N 0.13464 0.1805 0.89373 0.0
C318 C 0.0992 0.18336 0.87709 0.0
C319 C 0.08447 0.16106 0.90272 0.0
C320 C 0.11359 0.16708 0.90508 0.0
C321 C 0.0768 0.16847 0.88843 0.0
H322 H 0.14542 0.19962 0.87114 0.0
H323 H 0.11903 0.15981 0.9157 0.0
O324 O 0.23688 0.18195 0.9018 0.0
O325 O 0.20852 0.22275 0.90214 0.0
O326 O 0.1867 0.17222 0.87778 0.0
O327 O 0.17142 0.15525 0.91244 0.0
H328 H 0.2804 0.22274 0.91949 0.0
H329 H 0.26089 0.17152 0.87701 0.0
H330 H 0.33466 0.24708 0.91327 0.0
H331 H 0.31547 0.19689 0.87147 0.0
H332 H 0.14735 0.25764 0.91694 0.0
H333 H 0.21595 0.25617 0.87725 0.0
H334 H 0.17124 0.22728 0.9217 0.0
H335 H 0.19118 0.28589 0.87327 0.0
H336 H 0.31507 0.29948 0.87319 0.0
H337 H 0.25421 0.25111 0.83534 0.0
H338 H 0.23907 0.17697 0.9677 0.0
H339 H 0.22444 0.25158 0.96258 0.0
H340 H 0.12923 0.13588 0.87124 0.0
H341 H 0.21918 0.15816 0.85959 0.0
H342 H 0.10999 0.09506 0.85155 0.0
H343 H 0.19834 0.11673 0.8402 0.0
H344 H 0.1773 0.11053 0.92321 0.0
H345 H 0.1547 0.17727 0.93585 0.0
H346 H 0.16834 0.09293 0.95062 0.0
H347 H 0.14616 0.15845 0.96305 0.0
H348 H 0.21322 0.06574 0.88732 0.0
H349 H 0.12172 0.04659 0.88816 0.0
H350 H 0.09404 0.18942 0.86593 0.0
H351 H 0.06768 0.14916 0.91164 0.0
Li352 Li 0.79629 0.01014 0.88422 0.0
Li353 Li 0.80712 0.00995 0.91195 0.0
Li354 Li 0.84782 0.03336 0.89255 0.0
Li355 Li 0.81577 0.97893 0.89428 0.0
C356 C 0.80852 0.0645 0.89568 0.0
N357 N 0.78708 0.10264 0.88973 0.0
C358 C 0.78933 0.06689 0.90635 0.0
C359 C 0.81708 0.08173 0.88208 0.0
C360 C 0.77868 0.08626 0.90311 0.0
C361 C 0.8059 0.1008 0.87925 0.0
C362 C 0.75899 0.94602 0.89775 0.0
C363 C 0.74056 0.89595 0.90745 0.0
N364 N 0.72509 0.88457 0.89394 0.0
C365 C 0.74287 0.93383 0.88399 0.0
C366 C 0.75778 0.92695 0.90961 0.0
C367 C 0.72586 0.9027 0.88228 0.0
C368 C 0.76875 6e-05 0.85512 0.0
N369 N 0.76895 0.01051 0.86971 0.0
C370 C 0.72548 0.01362 0.86404 0.0
C371 C 0.74793 0.01728 0.87433 0.0
C372 C 0.72401 0.00182 0.84905 0.0
C373 C 0.74622 0.99521 0.84462 0.0
H374 H 0.78508 0.99381 0.85195 0.0
H375 H 0.74779 0.02433 0.88618 0.0
C376 C 0.8137 0.03658 0.94159 0.0
N377 N 0.79522 0.01255 0.93259 0.0
C378 C 0.80849 0.03608 0.95761 0.0
C379 C 0.76376 0.98746 0.95446 0.0
C380 C 0.77002 0.98875 0.93854 0.0
C381 C 0.78369 0.01091 0.96423 0.0
H382 H 0.83345 0.05529 0.93648 0.0
H383 H 0.75556 0.97013 0.93106 0.0
C384 C 0.84843 0.01458 0.86364 0.0
N385 N 0.89205 0.03747 0.84071 0.0
C386 C 0.86666 0.00224 0.86119 0.0
C387 C 0.85214 0.03832 0.85432 0.0
C388 C 0.88865 0.01419 0.84957 0.0
C389 C 0.87439 0.04965 0.84282 0.0
C390 C 0.85463 0.01216 0.9249 0.0
C391 C 0.87971 0.03986 0.92866 0.0
C392 C 0.84031 0.99066 0.93661 0.0
C393 C 0.89003 0.04558 0.94405 0.0
C394 C 0.85127 0.99728 0.95186 0.0
N395 N 0.8757 0.02438 0.95524 0.0
C396 C 0.89755 0.0932 0.88749 0.0
C397 C 0.90763 0.05334 0.88765 0.0
C398 C 0.928 0.11409 0.88525 0.0
N399 N 0.88812 0.06351 0.88865 0.0
C400 C 0.938 0.07326 0.88519 0.0
C401 C 0.94851 0.10402 0.88399 0.0
H402 H 0.88157 0.10069 0.8886 0.0
H403 H 0.89955 0.02969 0.88906 0.0
C404 C 0.81049 0.92876 0.87755 0.0
N405 N 0.81672 0.94288 0.89164 0.0
C406 C 0.81557 0.90496 0.87512 0.0
C407 C 0.83172 0.90978 0.90196 0.0
C408 C 0.82671 0.93361 0.9038 0.0
C409 C 0.82674 0.89555 0.8874 0.0
H410 H 0.80287 0.93687 0.86803 0.0
H411 H 0.83203 0.94552 0.91474 0.0
O412 O 0.81921 0.04571 0.89868 0.0
O413 O 0.77644 0.97643 0.89947 0.0
O414 O 0.8272 0.00362 0.87519 0.0
O415 O 0.84396 0.00626 0.90991 0.0
H416 H 0.78257 0.05377 0.91696 0.0
H417 H 0.83209 0.08033 0.87378 0.0
H418 H 0.7637 0.08823 0.91122 0.0
H419 H 0.8122 0.11415 0.86873 0.0
H420 H 0.73961 0.88094 0.91648 0.0
H421 H 0.74357 0.9482 0.87468 0.0
H422 H 0.77044 0.93598 0.92026 0.0
H423 H 0.71334 0.89297 0.87167 0.0
H424 H 0.70876 0.01885 0.868 0.0
H425 H 0.74536 0.98483 0.8335 0.0
H426 H 0.82429 0.05456 0.96485 0.0
H427 H 0.74457 0.96759 0.95921 0.0
H428 H 0.86419 0.98395 0.86835 0.0
H429 H 0.83805 0.04795 0.85599 0.0
H430 H 0.9031 0.00503 0.84763 0.0
H431 H 0.87762 0.06813 0.83557 0.0
H432 H 0.89099 0.05691 0.91986 0.0
H433 H 0.82045 0.96937 0.93405 0.0
H434 H 0.90936 0.06696 0.94711 0.0
H435 H 0.84019 0.98098 0.96104 0.0
H436 H 0.9355 0.13777 0.88461 0.0
H437 H 0.9533 0.06478 0.88473 0.0
H438 H 0.81181 0.8947 0.86368 0.0
H439 H 0.84112 0.90376 0.91159 0.0
Li440 Li 0.01624 0.82852 0.89805 0.0
Li441 Li 0.96189 0.80447 0.89522 0.0
Li442 Li 0.98432 0.78934 0.9159 0.0
Li443 Li 0.98606 0.77662 0.88868 0.0
C444 C 0.98074 0.8347 0.9274 0.0
N445 N 0.96634 0.84408 0.95719 0.0
C446 C 0.95227 0.8303 0.93058 0.0
C447 C 0.00189 0.84392 0.9394 0.0
C448 C 0.94545 0.83521 0.9457 0.0
C449 C 0.99415 0.84848 0.95438 0.0
C450 C 0.98315 0.82413 0.86682 0.0
C451 C 0.94993 0.81582 0.84529 0.0
N452 N 0.96292 0.84598 0.84342 0.0
C453 C 0.99631 0.85504 0.86464 0.0
C454 C 0.9599 0.80434 0.85702 0.0
C455 C 0.98572 0.86564 0.85276 0.0
C456 C 0.06862 0.87251 0.88209 0.0
N457 N 0.05225 0.8661 0.89546 0.0
C458 C 0.08327 0.91614 0.90473 0.0
C459 C 0.05936 0.88707 0.90679 0.0
C460 C 0.09969 0.92386 0.89076 0.0
C461 C 0.09261 0.90155 0.87945 0.0
H462 H 0.06225 0.85542 0.87321 0.0
H463 H 0.04571 0.88159 0.91715 0.0
C464 C 0.9023 0.79254 0.88831 0.0
N465 N 0.93174 0.81358 0.89021 0.0
C466 C 0.88124 0.8014 0.88565 0.0
C467 C 0.92144 0.85312 0.88661 0.0
C468 C 0.94153 0.84334 0.8894 0.0
C469 C 0.89084 0.83208 0.8849 0.0
H470 H 0.89511 0.76901 0.88919 0.0
H471 H 0.96497 0.85951 0.89131 0.0
C472 C 0.04926 0.80548 0.90307 0.0
N473 N 0.11076 0.83286 0.89985 0.0
C474 C 0.06164 0.79943 0.89003 0.0
C475 C 0.06817 0.82539 0.91451 0.0
C476 C 0.09278 0.81349 0.88861 0.0
C477 C 0.0992 0.83905 0.91265 0.0
C478 C 0.93184 0.73392 0.89916 0.0
C479 C 0.92887 0.71275 0.91019 0.0
C480 C 0.9165 0.72438 0.885 0.0
C481 C 0.91084 0.68226 0.90675 0.0
C482 C 0.89873 0.69369 0.88199 0.0
N483 N 0.89631 0.67345 0.89283 0.0
C484 C 0.95561 0.76949 0.94522 0.0
C485 C 0.00514 0.77814 0.94381 0.0
C486 C 0.95525 0.76615 0.9614 0.0
N487 N 0.98077 0.77651 0.93693 0.0
C488 C 0.00572 0.77485 0.95992 0.0
C489 C 0.98087 0.76967 0.96895 0.0
H490 H 0.93652 0.76825 0.93939 0.0
H491 H 0.02472 0.78353 0.9369 0.0
C492 C 0.99575 0.75563 0.86027 0.0
N493 N 0.98707 0.7479 0.87534 0.0
C494 C 0.00198 0.7374 0.85085 0.0
C495 C 0.9883 0.70266 0.87233 0.0
C496 C 0.98308 0.72193 0.88145 0.0
C497 C 0.99905 0.71091 0.857 0.0
H498 H -0.00049 0.77679 0.85584 0.0
H499 H 0.97708 0.71676 0.8936 0.0
O500 O 0.98769 0.8295 0.91271 0.0
O501 O 0.99284 0.8133 0.87855 0.0
O502 O 0.01882 0.79246 0.90451 0.0
O503 O 0.94942 0.76384 0.90232 0.0
H504 H 0.93546 0.82287 0.92155 0.0
H505 H 0.02379 0.84677 0.93729 0.0
H506 H 0.92348 0.83181 0.94833 0.0
H507 H 0.01019 0.85528 0.9638 0.0
H508 H 0.93185 0.80076 0.83767 0.0
H509 H 0.01421 0.87069 0.87217 0.0
H510 H 0.94959 0.78037 0.85851 0.0
H511 H 0.99556 0.8895 0.851 0.0
H512 H 0.08779 0.93286 0.91362 0.0
H513 H 0.10484 0.90677 0.86852 0.0
H514 H 0.85777 0.78457 0.88438 0.0
H515 H 0.92959 0.87697 0.88637 0.0
H516 H 0.04742 0.78415 0.88105 0.0
H517 H 0.05902 0.8307 0.92457 0.0
H518 H 0.10266 0.80905 0.87856 0.0
H519 H 0.11409 0.85467 0.92134 0.0
H520 H 0.94053 0.71979 0.92124 0.0
H521 H 0.91843 0.74049 0.87639 0.0
H522 H 0.90845 0.66561 0.91514 0.0
H523 H 0.88687 0.68597 0.87103 0.0
H524 H 0.93568 0.76214 0.96801 0.0
H525 H 0.02606 0.77817 0.96534 0.0
H526 H 0.0105 0.74481 0.83916 0.0
H527 H 0.98498 0.68209 0.87742 0.0
Li528 Li 0.86667 0.55224 0.44763 0.0
Li529 Li 0.85545 0.54312 0.41923 0.0
Li530 Li 0.81498 0.52919 0.43884 0.0
Li531 Li 0.84164 0.5022 0.43738 0.0
C532 C 0.84497 0.59108 0.44147 0.0
N533 N 0.83708 0.63308 0.45741 0.0
C534 C 0.84754 0.61588 0.43361 0.0
C535 C 0.83841 0.58764 0.45744 0.0
C536 C 0.84347 0.63688 0.44188 0.0
C537 C 0.83449 0.60911 0.46528 0.0
C538 C 0.89766 0.52027 0.43238 0.0
C539 C 0.91509 0.49032 0.41961 0.0
N540 N 0.92607 0.48734 0.43346 0.0
C541 C 0.90917 0.51699 0.44647 0.0
C542 C 0.90067 0.50691 0.41882 0.0
C543 C 0.92344 0.50022 0.44678 0.0
C544 C 0.89613 0.56681 0.47632 0.0
N545 N 0.89575 0.57804 0.46208 0.0
C546 C 0.94109 0.62372 0.46766 0.0
C547 C 0.91727 0.60602 0.45765 0.0
C548 C 0.94258 0.61235 0.48228 0.0
C549 C 0.9195 0.58367 0.48666 0.0
H550 H 0.87898 0.54422 0.47933 0.0
H551 H 0.91644 0.61412 0.44615 0.0
C552 C 0.84664 0.55597 0.38886 0.0
N553 N 0.86757 0.55662 0.39862 0.0
C554 C 0.85203 0.55942 0.37283 0.0
C555 C 0.90114 0.56605 0.37736 0.0
C556 C 0.89481 0.56251 0.39333 0.0
C557 C 0.87921 0.5636 0.36688 0.0
H558 H 0.82508 0.55093 0.39345 0.0
H559 H 0.91094 0.56276 0.4014 0.0
C560 C 0.80812 0.49575 0.46531 0.0
N561 N 0.76064 0.45366 0.48296 0.0
C562 C 0.78517 0.46988 0.45828 0.0
C563 C 0.80691 0.50023 0.48133 0.0
C564 C 0.76137 0.44886 0.46739 0.0
C565 C 0.78272 0.47868 0.49006 0.0
C566 C 0.80219 0.48297 0.41058 0.0
C567 C 0.77205 0.46118 0.41286 0.0
C568 C 0.817 0.48181 0.39713 0.0
C569 C 0.75742 0.43843 0.40179 0.0
C570 C 0.80158 0.45871 0.38633 0.0
N571 N 0.77236 0.43767 0.38886 0.0
C572 C 0.75865 0.51594 0.4287 0.0
C573 C 0.76501 0.52423 0.456 0.0
C574 C 0.72794 0.50484 0.43008 0.0
N575 N 0.77619 0.52411 0.44162 0.0
C576 C 0.73439 0.5135 0.45791 0.0
C577 C 0.71528 0.50265 0.4449 0.0
H578 H 0.76819 0.51617 0.41741 0.0
H579 H 0.77946 0.53103 0.4661 0.0
C580 C 0.83747 0.45285 0.45433 0.0
N581 N 0.83797 0.46342 0.43974 0.0
C582 C 0.83126 0.42348 0.45642 0.0
C583 C 0.82886 0.4173 0.42841 0.0
C584 C 0.83501 0.44666 0.42689 0.0
C585 C 0.82617 0.40512 0.44333 0.0
H586 H 0.84101 0.4669 0.4644 0.0
H587 H 0.83695 0.45581 0.41542 0.0
O588 O 0.84887 0.57037 0.43348 0.0
O589 O 0.88288 0.53589 0.43194 0.0
O590 O 0.8313 0.51704 0.45656 0.0
O591 O 0.81668 0.50595 0.4211 0.0
H592 H 0.85261 0.61885 0.42125 0.0
H593 H 0.83636 0.56864 0.46374 0.0
H594 H 0.84539 0.65618 0.43595 0.0
H595 H 0.82939 0.60671 0.47764 0.0
H596 H 0.9174 0.47968 0.40924 0.0
H597 H 0.90683 0.52699 0.45709 0.0
H598 H 0.8915 0.50885 0.40785 0.0
H599 H 0.93234 0.49737 0.45763 0.0
H600 H 0.95857 0.64568 0.46387 0.0
H601 H 0.92027 0.57376 0.49764 0.0
H602 H 0.83463 0.55747 0.36509 0.0
H603 H 0.92217 0.56878 0.3732 0.0
H604 H 0.78585 0.46605 0.44594 0.0
H605 H 0.82434 0.52029 0.48694 0.0
H606 H 0.74348 0.42873 0.46208 0.0
H607 H 0.78146 0.4819 0.50246 0.0
H608 H 0.75991 0.46183 0.423 0.0
H609 H 0.84037 0.49809 0.3952 0.0
H610 H 0.73414 0.42143 0.40344 0.0
H611 H 0.81289 0.45747 0.37596 0.0
H612 H 0.71407 0.49613 0.41977 0.0
H613 H 0.72553 0.51233 0.46953 0.0
H614 H 0.82961 0.41494 0.46813 0.0
H615 H 0.82481 0.40385 0.418 0.0
Li616 Li 0.48994 0.33778 0.441 0.0
Li617 Li 0.46495 0.28354 0.44036 0.0
Li618 Li 0.45376 0.31012 0.42009 0.0
Li619 Li 0.43631 0.30549 0.44648 0.0
C620 C 0.51369 0.3296 0.41375 0.0
N621 N 0.5568 0.36448 0.39195 0.0
C622 C 0.53363 0.32102 0.40819 0.0
C623 C 0.5157 0.35597 0.40826 0.0
C624 C 0.55526 0.33894 0.39716 0.0
C625 C 0.53764 0.37328 0.39723 0.0
C626 C 0.47708 0.2956 0.47007 0.0
C627 C 0.46216 0.25281 0.48673 0.0
N628 N 0.4905 0.266 0.4925 0.0
C629 C 0.50594 0.30891 0.47632 0.0
C630 C 0.4549 0.26749 0.47545 0.0
C631 C 0.51232 0.29353 0.4876 0.0
C632 C 0.53421 0.40141 0.44466 0.0
N633 N 0.52828 0.3726 0.4448 0.0
C634 C 0.58033 0.38939 0.4477 0.0
C635 C 0.55065 0.36635 0.44629 0.0
C636 C 0.58723 0.41934 0.44752 0.0
C637 C 0.56369 0.42526 0.44617 0.0
H638 H 0.51636 0.4061 0.443 0.0
H639 H 0.54543 0.34331 0.44595 0.0
C640 C 0.45294 0.22291 0.44326 0.0
N641 N 0.4738 0.25265 0.44358 0.0
C642 C 0.46182 0.20162 0.44488 0.0
C643 C 0.51313 0.24216 0.44748 0.0
C644 C 0.50335 0.26251 0.44572 0.0
C645 C 0.49235 0.21129 0.44685 0.0
H646 H 0.42958 0.21575 0.44148 0.0
H647 H 0.51938 0.28632 0.44579 0.0
C648 C 0.4559 0.36601 0.44048 0.0
N649 N 0.45368 0.41246 0.45521 0.0
C650 C 0.46043 0.3702 0.45661 0.0
C651 C 0.45032 0.38554 0.43187 0.0
C652 C 0.45916 0.39376 0.46383 0.0
C653 C 0.44932 0.40889 0.43952 0.0
C654 C 0.39515 0.2572 0.43235 0.0
C655 C 0.37806 0.26216 0.42149 0.0
C656 C 0.38082 0.2368 0.44449 0.0
C657 C 0.3469 0.24701 0.42313 0.0
C658 C 0.34962 0.22211 0.44573 0.0
N659 N 0.33345 0.2275 0.43512 0.0
C660 C 0.45572 0.29896 0.3881 0.0
C661 C 0.43386 0.32849 0.39409 0.0
C662 C 0.45353 0.3028 0.37215 0.0
N663 N 0.44639 0.31217 0.39865 0.0
C664 C 0.43104 0.33274 0.37824 0.0
C665 C 0.44134 0.32013 0.36709 0.0
H666 H 0.46563 0.28615 0.3921 0.0
H667 H 0.42664 0.33868 0.40279 0.0
C668 C 0.40421 0.30143 0.47415 0.0
N669 N 0.40468 0.30416 0.45837 0.0
C670 C 0.38543 0.30757 0.48316 0.0
C671 C 0.36687 0.31751 0.45942 0.0
C672 C 0.38606 0.31132 0.45089 0.0
C673 C 0.36715 0.31664 0.47579 0.0
H674 H 0.41991 0.29663 0.47981 0.0
H675 H 0.38761 0.31423 0.43836 0.0
O676 O 0.49257 0.31234 0.42465 0.0
O677 O 0.47054 0.31003 0.45877 0.0
O678 O 0.45591 0.34245 0.43318 0.0
O679 O 0.42571 0.27214 0.43105 0.0
H680 H 0.5324 0.30072 0.41238 0.0
H681 H 0.50056 0.36306 0.41248 0.0
H682 H 0.57084 0.33257 0.39274 0.0
H683 H 0.53946 0.39372 0.39288 0.0
H684 H 0.44527 0.23091 0.49087 0.0
H685 H 0.52323 0.33089 0.47256 0.0
H686 H 0.43241 0.257 0.47084 0.0
H687 H 0.53462 0.30349 0.49247 0.0
H688 H 0.59782 0.38382 0.44846 0.0
H689 H 0.56803 0.44803 0.44612 0.0
H690 H 0.44515 0.17797 0.44442 0.0
H691 H 0.53689 0.25049 0.44877 0.0
H692 H 0.46482 0.35545 0.46352 0.0
H693 H 0.44675 0.38268 0.4194 0.0
H694 H 0.46252 0.39717 0.4763 0.0
H695 H 0.44501 0.42414 0.43299 0.0
H696 H 0.38873 0.27775 0.41199 0.0
H697 H 0.39363 0.23238 0.45287 0.0
H698 H 0.33342 0.2508 0.41487 0.0
H699 H 0.33826 0.2064 0.45512 0.0
H700 H 0.46162 0.29268 0.36385 0.0
H701 H 0.42187 0.34654 0.37476 0.0
H702 H 0.38692 0.30744 0.49576 0.0
H703 H 0.35325 0.32464 0.45334 0.0
Li704 Li 0.64255 0.14114 0.43325 0.0
Li705 Li 0.69686 0.17418 0.43408 0.0
Li706 Li 0.67354 0.13254 0.41532 0.0
Li707 Li 0.67565 0.12374 0.44294 0.0
C708 C 0.6721 0.17775 0.40183 0.0
N709 N 0.67956 0.19573 0.37097 0.0
C710 C 0.69893 0.2027 0.39689 0.0
C711 C 0.64907 0.16193 0.39103 0.0
C712 C 0.70224 0.21146 0.38126 0.0
C713 C 0.65329 0.17136 0.37549 0.0
C714 C 0.6788 0.17751 0.46232 0.0
C715 C 0.71473 0.20943 0.48166 0.0
N716 N 0.70092 0.2258 0.48252 0.0
C717 C 0.66486 0.19455 0.46346 0.0
C718 C 0.70383 0.18488 0.47154 0.0
C719 C 0.67642 0.21891 0.47373 0.0
C720 C 0.59088 0.13233 0.45 0.0
N721 N 0.60604 0.14111 0.43621 0.0
C722 C 0.5733 0.15737 0.42684 0.0
C723 C 0.59753 0.15311 0.42467 0.0
C724 C 0.55781 0.14952 0.44111 0.0
C725 C 0.56657 0.13649 0.45275 0.0
H726 H 0.59849 0.12332 0.45908 0.0
H727 H 0.61039 0.16072 0.41405 0.0
C728 C 0.75513 0.22544 0.44086 0.0
N729 N 0.72591 0.21512 0.43729 0.0
C730 C 0.77468 0.25611 0.44341 0.0
C731 C 0.7335 0.2645 0.43861 0.0
C732 C 0.71494 0.23391 0.43609 0.0
C733 C 0.76377 0.27595 0.4423 0.0
H734 H 0.7632 0.20991 0.44178 0.0
H735 H 0.6916 0.225 0.43319 0.0
C736 C 0.61105 0.08381 0.431 0.0
N737 N 0.55032 0.04768 0.43656 0.0
C738 C 0.60091 0.06849 0.44516 0.0
C739 C 0.5903 0.0807 0.41967 0.0
C740 C 0.57011 0.05032 0.44774 0.0
C741 C 0.55969 0.06237 0.42271 0.0
C742 C 0.72793 0.13447 0.4315 0.0
C743 C 0.72933 0.1141 0.42129 0.0
C744 C 0.74458 0.14266 0.4453 0.0
C745 C 0.74714 0.10194 0.42516 0.0
C746 C 0.76209 0.12996 0.44877 0.0
N747 N 0.76298 0.11002 0.43872 0.0
C748 C 0.6973 0.13801 0.38488 0.0
C749 C 0.65056 0.09387 0.38956 0.0
C750 C 0.69444 0.13237 0.36885 0.0
N751 N 0.67473 0.11965 0.3947 0.0
C752 C 0.64694 0.08719 0.37366 0.0
C753 C 0.66828 0.10744 0.36304 0.0
H754 H 0.71641 0.15821 0.38937 0.0
H755 H 0.63327 0.07937 0.39768 0.0
C756 C 0.67349 0.09959 0.47271 0.0
N757 N 0.67738 0.09692 0.45723 0.0
C758 C 0.66878 0.07671 0.48297 0.0
C759 C 0.67387 0.04967 0.46123 0.0
C760 C 0.67798 0.07281 0.45138 0.0
C761 C 0.66828 0.05102 0.47718 0.0
H762 H 0.67209 0.11854 0.47695 0.0
H763 H 0.68003 0.07079 0.43893 0.0
O764 O 0.66856 0.16861 0.41708 0.0
O765 O 0.66832 0.15405 0.45204 0.0
O766 O 0.64109 0.1023 0.42839 0.0
O767 O 0.71049 0.14647 0.42795 0.0
H768 H 0.71717 0.21501 0.40498 0.0
H769 H 0.62841 0.14215 0.39451 0.0
H770 H 0.72291 0.23068 0.37728 0.0
H771 H 0.63576 0.15916 0.36701 0.0
H772 H 0.7342 0.21551 0.48879 0.0
H773 H 0.64563 0.18934 0.45631 0.0
H774 H 0.71491 0.17196 0.47078 0.0
H775 H 0.66599 0.23242 0.47465 0.0
H776 H 0.56789 0.16837 0.41777 0.0
H777 H 0.55539 0.13055 0.46398 0.0
H778 H 0.79787 0.26418 0.44635 0.0
H779 H 0.72436 0.27915 0.43748 0.0
H780 H 0.61657 0.07073 0.45411 0.0
H781 H 0.59772 0.0927 0.40873 0.0
H782 H 0.56195 0.03839 0.45865 0.0
H783 H 0.54339 0.05992 0.41408 0.0
H784 H 0.71662 0.10759 0.41054 0.0
H785 H 0.74377 0.15843 0.45331 0.0
H786 H 0.74833 0.08603 0.41741 0.0
H787 H 0.77494 0.13593 0.45945 0.0
H788 H 0.71144 0.14845 0.36102 0.0
H789 H 0.6269 0.06725 0.36964 0.0
H790 H 0.66357 0.07827 0.49506 0.0
H791 H 0.67351 0.03019 0.4563 0.0
Li792 Li 0.88945 0.54367 0.21915 0.0
Li793 Li 0.87627 0.5292 0.24735 0.0
Li794 Li 0.86553 0.49111 0.22639 0.0
Li795 Li 0.83747 0.51652 0.2279 0.0
C796 C 0.92845 0.52234 0.22711 0.0
N797 N 0.97499 0.51828 0.21387 0.0
C798 C 0.95256 0.52658 0.23629 0.0
C799 C 0.928 0.51605 0.21121 0.0
C800 C 0.97589 0.52445 0.22937 0.0
C801 C 0.95172 0.51407 0.20473 0.0
C802 C 0.85395 0.57163 0.23519 0.0
C803 C 0.82296 0.58635 0.24921 0.0
N804 N 0.81985 0.59884 0.23594 0.0
C805 C 0.85051 0.58467 0.2217 0.0
C806 C 0.84012 0.57248 0.24907 0.0
C807 C 0.83315 0.5983 0.22231 0.0
C808 C 0.90531 0.5787 0.19249 0.0
N809 N 0.9167 0.5743 0.20579 0.0
C810 C 0.96469 0.61719 0.20056 0.0
C811 C 0.94584 0.59261 0.2099 0.0
C812 C 0.95317 0.62293 0.18703 0.0
C813 C 0.92326 0.60297 0.18286 0.0
H814 H 0.88192 0.56395 0.18967 0.0
H815 H 0.95417 0.58859 0.22063 0.0
C816 C 0.88189 0.51698 0.27842 0.0
N817 N 0.88652 0.53932 0.26849 0.0
C818 C 0.88421 0.52198 0.29449 0.0
C819 C 0.89769 0.57337 0.28973 0.0
C820 C 0.89512 0.56736 0.27372 0.0
C821 C 0.89147 0.55027 0.30031 0.0
H822 H 0.87495 0.49488 0.27386 0.0
H823 H 0.89855 0.58464 0.26551 0.0
C824 C 0.84278 0.49088 0.19655 0.0
N825 N 0.81828 0.45262 0.17131 0.0
C826 C 0.81386 0.46593 0.1975 0.0
C827 C 0.85908 0.49659 0.18266 0.0
C828 C 0.80191 0.4468 0.18465 0.0
C829 C 0.84634 0.47692 0.17006 0.0
C830 C 0.81311 0.47041 0.25029 0.0
C831 C 0.79316 0.44409 0.24236 0.0
C832 C 0.80556 0.47586 0.26514 0.0
C833 C 0.76571 0.42395 0.24928 0.0
C834 C 0.77788 0.45518 0.27166 0.0
N835 N 0.75869 0.42988 0.26365 0.0
C836 C 0.85208 0.43457 0.23583 0.0
C837 C 0.86241 0.44195 0.20872 0.0
C838 C 0.84065 0.40386 0.23419 0.0
N839 N 0.86118 0.45262 0.22307 0.0
C840 C 0.85119 0.4113 0.20654 0.0
C841 C 0.83903 0.39171 0.2193 0.0
H842 H 0.8516 0.44369 0.24713 0.0
H843 H 0.87045 0.45679 0.1988 0.0
C844 C 0.7882 0.51076 0.21035 0.0
N845 N 0.79856 0.51174 0.22503 0.0
C846 C 0.75845 0.50313 0.20801 0.0
C847 C 0.75139 0.50017 0.23597 0.0
C848 C 0.78123 0.50801 0.23775 0.0
C849 C 0.73936 0.49656 0.22094 0.0
H850 H 0.80275 0.51499 0.20042 0.0
H851 H 0.79032 0.51036 0.24931 0.0
O852 O 0.90556 0.52454 0.23371 0.0
O853 O 0.87025 0.55756 0.23472 0.0
O854 O 0.85503 0.50983 0.20904 0.0
O855 O 0.84022 0.49038 0.24377 0.0
H856 H 0.95323 0.53152 0.24863 0.0
H857 H 0.90959 0.51283 0.20396 0.0
H858 H 0.99471 0.5277 0.23633 0.0
H859 H 0.95165 0.50921 0.19243 0.0
H860 H 0.81198 0.58701 0.25984 0.0
H861 H 0.86089 0.58403 0.21084 0.0
H862 H 0.84214 0.56208 0.25956 0.0
H863 H 0.8302 0.60838 0.21195 0.0
H864 H 0.98776 0.63188 0.20404 0.0
H865 H 0.91348 0.60681 0.17262 0.0
H866 H 0.87935 0.50366 0.30231 0.0
H867 H 0.9029 0.59534 0.29378 0.0
H868 H 0.80067 0.46153 0.20799 0.0
H869 H 0.88144 0.51586 0.18165 0.0
H870 H 0.77958 0.42737 0.18526 0.0
H871 H 0.85879 0.48097 0.15929 0.0
H872 H 0.79888 0.43904 0.23108 0.0
H873 H 0.82066 0.49611 0.27145 0.0
H874 H 0.75005 0.40355 0.24324 0.0
H875 H 0.77164 0.45926 0.28307 0.0
H876 H 0.83107 0.38959 0.24431 0.0
H877 H 0.85054 0.40279 0.19489 0.0
H878 H 0.75026 0.50151 0.19622 0.0
H879 H 0.73752 0.49559 0.24627 0.0
Li880 Li 0.45788 0.34648 0.22029 0.0
Li881 Li 0.46509 0.34293 0.24789 0.0
Li882 Li 0.50771 0.36704 0.22982 0.0
Li883 Li 0.47422 0.31271 0.22975 0.0
C884 C 0.46622 0.3964 0.23174 0.0
N885 N 0.43786 0.4272 0.22324 0.0
C886 C 0.44194 0.39327 0.24046 0.0
C887 C 0.4762 0.4153 0.21875 0.0
C888 C 0.42788 0.40903 0.23597 0.0
C889 C 0.46151 0.43063 0.21462 0.0
C890 C 0.41695 0.28134 0.23119 0.0
C891 C 0.39462 0.22949 0.2388 0.0
N892 N 0.38126 0.22094 0.22458 0.0
C893 C 0.4031 0.27201 0.21662 0.0
C894 C 0.41274 0.2599 0.24236 0.0
C895 C 0.38508 0.24138 0.21352 0.0
C896 C 0.44048 0.35642 0.19052 0.0
N897 N 0.43215 0.34959 0.2057 0.0
C898 C 0.3826 0.33892 0.19996 0.0
C899 C 0.40414 0.34175 0.21065 0.0
C900 C 0.39008 0.34423 0.18406 0.0
C901 C 0.41975 0.35423 0.17946 0.0
H902 H 0.46277 0.36232 0.18688 0.0
H903 H 0.39811 0.33616 0.22278 0.0
C904 C 0.47033 0.36868 0.27745 0.0
N905 N 0.45243 0.34423 0.26857 0.0
C906 C 0.46619 0.36774 0.29359 0.0
C907 C 0.4236 0.31754 0.29089 0.0
C908 C 0.42863 0.31942 0.27481 0.0
C909 C 0.4432 0.34153 0.30051 0.0
H910 H 0.48907 0.3881 0.27213 0.0
H911 H 0.41466 0.30043 0.26744 0.0
C912 C 0.51347 0.34995 0.20193 0.0
N913 N 0.56453 0.37185 0.18371 0.0
C914 C 0.52873 0.33418 0.20078 0.0
C915 C 0.52419 0.37685 0.19377 0.0
C916 C 0.55447 0.3456 0.19151 0.0
C917 C 0.55005 0.38756 0.18464 0.0
C918 C 0.50961 0.34116 0.26177 0.0
C919 C 0.53377 0.36832 0.26698 0.0
C920 C 0.49392 0.31779 0.2724 0.0
C921 C 0.54192 0.37159 0.28271 0.0
C922 C 0.50271 0.32199 0.28805 0.0
N923 N 0.52635 0.34856 0.29283 0.0
C924 C 0.55997 0.42544 0.22408 0.0
C925 C 0.56731 0.38446 0.22871 0.0
C926 C 0.59075 0.44445 0.22152 0.0
N927 N 0.54901 0.396 0.22744 0.0
C928 C 0.59796 0.4025 0.22621 0.0
C929 C 0.60996 0.43277 0.22233 0.0
H930 H 0.54486 0.434 0.22318 0.0
H931 H 0.5579 0.36101 0.2315 0.0
C932 C 0.46504 0.26167 0.21239 0.0
N933 N 0.47342 0.27591 0.22644 0.0
C934 C 0.46813 0.23679 0.20942 0.0
C935 C 0.48684 0.24091 0.23568 0.0
C936 C 0.4838 0.26584 0.23805 0.0
C937 C 0.47968 0.22656 0.2211 0.0
H938 H 0.45719 0.27042 0.2033 0.0
H939 H 0.49091 0.27787 0.24895 0.0
O940 O 0.4798 0.38061 0.23573 0.0
O941 O 0.43525 0.31122 0.23434 0.0
O942 O 0.48868 0.33958 0.2113 0.0
O943 O 0.50099 0.33766 0.24643 0.0
H944 H 0.43385 0.37861 0.2505 0.0
H945 H 0.49482 0.41776 0.2118 0.0
H946 H 0.40897 0.40674 0.24256 0.0
H947 H 0.46886 0.44518 0.20453 0.0
H948 H 0.39133 0.21269 0.2473 0.0
H949 H 0.40649 0.28815 0.20771 0.0
H950 H 0.42387 0.26663 0.25355 0.0
H951 H 0.37428 0.23386 0.20229 0.0
H952 H 0.35992 0.33099 0.20396 0.0
H953 H 0.42651 0.35908 0.16734 0.0
H954 H 0.48169 0.38669 0.30066 0.0
H955 H 0.40585 0.29683 0.29582 0.0
H956 H 0.52116 0.31361 0.20717 0.0
H957 H 0.51311 0.38974 0.19477 0.0
H958 H 0.56658 0.3337 0.19059 0.0
H959 H 0.55872 0.40848 0.17839 0.0
H960 H 0.54591 0.38687 0.25905 0.0
H961 H 0.47464 0.29689 0.26873 0.0
H962 H 0.56053 0.39252 0.2869 0.0
H963 H 0.49057 0.3042 0.29641 0.0
H964 H 0.59936 0.46781 0.2187 0.0
H965 H 0.61218 0.39288 0.22736 0.0
H966 H 0.46251 0.22627 0.19801 0.0
H967 H 0.4963 0.23393 0.24486 0.0
Li968 Li 0.61292 0.13754 0.22448 0.0
Li969 Li 0.66732 0.16921 0.22414 0.0
Li970 Li 0.64325 0.11566 0.21683 0.0
Li971 Li 0.64402 0.13063 0.24383 0.0
C972 C 0.63966 0.16788 0.19573 0.0
N973 N 0.63823 0.20736 0.17462 0.0
C974 C 0.63147 0.18851 0.20062 0.0
C975 C 0.64704 0.16726 0.18008 0.0
C976 C 0.63087 0.20828 0.18978 0.0
C977 C 0.64625 0.18745 0.16959 0.0
C978 C 0.65129 0.19303 0.24792 0.0
C979 C 0.69 0.23204 0.26373 0.0
N980 N 0.67677 0.24879 0.26197 0.0
C981 C 0.63794 0.21055 0.24636 0.0
C982 C 0.6774 0.20378 0.25676 0.0
C983 C 0.65122 0.2387 0.25352 0.0
C984 C 0.56634 0.14493 0.23469 0.0
N985 N 0.5766 0.13762 0.2218 0.0
C986 C 0.54147 0.14193 0.20566 0.0
C987 C 0.56388 0.13473 0.20755 0.0
C988 C 0.53241 0.15229 0.21856 0.0
C989 C 0.54417 0.15246 0.23333 0.0
H990 H 0.57688 0.14694 0.24586 0.0
H991 H 0.57244 0.12876 0.19749 0.0
C992 C 0.72852 0.21198 0.21869 0.0
N993 N 0.70072 0.20846 0.22005 0.0
C994 C 0.75372 0.24058 0.21688 0.0
C995 C 0.72107 0.26122 0.21737 0.0
C996 C 0.69664 0.23236 0.21918 0.0
C997 C 0.7501 0.26566 0.21642 0.0
H998 H 0.7312 0.19261 0.21922 0.0
H999 H 0.67451 0.22927 0.22028 0.0
C1000 C 0.58392 0.07557 0.22529 0.0
N1001 N 0.5332 0.02852 0.21199 0.0
C1002 C 0.5637 0.05138 0.23446 0.0
C1003 C 0.57836 0.07585 0.20935 0.0
C1004 C 0.53818 0.0278 0.22752 0.0
C1005 C 0.55259 0.05186 0.20285 0.0
C1006 C 0.69784 0.13375 0.23813 0.0
C1007 C 0.69629 0.10615 0.23628 0.0
C1008 C 0.7195 0.15542 0.248 0.0
C1009 C 0.71605 0.10048 0.24459 0.0
C1010 C 0.73883 0.14888 0.25612 0.0
N1011 N 0.7367 0.12177 0.25428 0.0
C1012 C 0.66671 0.10237 0.19126 0.0
C1013 C 0.6337 0.05909 0.2059 0.0
C1014 C 0.67346 0.08535 0.18127 0.0
N1015 N 0.64735 0.08911 0.20332 0.0
C1016 C 0.63981 0.04114 0.19615 0.0
C1017 C 0.6603 0.05442 0.18381 0.0
H1018 H 0.67757 0.12638 0.18972 0.0
H1019 H 0.61875 0.04923 0.21575 0.0
C1020 C 0.63941 0.13631 0.27605 0.0
N1021 N 0.64571 0.12115 0.26515 0.0
C1022 C 0.64141 0.13165 0.29189 0.0
C1023 C 0.65504 0.09476 0.28513 0.0
C1024 C 0.65273 0.10014 0.26936 0.0
C1025 C 0.64937 0.1107 0.29659 0.0
H1026 H 0.6329 0.15216 0.27248 0.0
H1027 H 0.65649 0.08751 0.26051 0.0
O1028 O 0.63995 0.14794 0.20608 0.0
O1029 O 0.63885 0.16552 0.24084 0.0
O1030 O 0.60894 0.0988 0.23199 0.0
O1031 O 0.67875 0.13976 0.23003 0.0
H1032 H 0.62558 0.18924 0.21266 0.0
H1033 H 0.65322 0.15129 0.17606 0.0
H1034 H 0.62452 0.22433 0.19343 0.0
H1035 H 0.65193 0.18722 0.15744 0.0
H1036 H 0.71028 0.24065 0.27055 0.0
H1037 H 0.61775 0.2027 0.23956 0.0
H1038 H 0.68777 0.19038 0.25825 0.0
H1039 H 0.64123 0.25256 0.25232 0.0
H1040 H 0.53251 0.14096 0.19413 0.0
H1041 H 0.53791 0.16043 0.24356 0.0
H1042 H 0.77574 0.24307 0.21594 0.0
H1043 H 0.71735 0.28001 0.21719 0.0
H1044 H 0.5677 0.05085 0.24682 0.0
H1045 H 0.59378 0.09429 0.20203 0.0
H1046 H 0.52233 0.00892 0.23448 0.0
H1047 H 0.54802 0.05177 0.19053 0.0
H1048 H 0.67982 0.08914 0.22866 0.0
H1049 H 0.72156 0.17715 0.24931 0.0
H1050 H 0.71493 0.07914 0.24335 0.0
H1051 H 0.7556 0.16542 0.26385 0.0
H1052 H 0.68966 0.09644 0.17199 0.0
H1053 H 0.62906 0.0173 0.19838 0.0
H1054 H 0.63721 0.14466 0.30037 0.0
H1055 H 0.66096 0.07821 0.28834 0.0
Li1056 Li 0.52692 0.87044 0.74955 0.0
Li1057 Li 0.54069 0.88387 0.77696 0.0
Li1058 Li 0.51905 0.8312 0.76793 0.0
Li1059 Li 0.48849 0.85505 0.77015 0.0
C1060 C 0.57799 0.85807 0.76157 0.0
N1061 N 0.6187 0.83852 0.76174 0.0
C1062 C 0.60004 0.86806 0.77312 0.0
C1063 C 0.57678 0.83828 0.75005 0.0
C1064 C 0.6204 0.85789 0.77301 0.0
C1065 C 0.59751 0.8286 0.75036 0.0
C1066 C 0.52829 0.92573 0.76507 0.0
C1067 C 0.5332 0.96692 0.78059 0.0
N1068 N 0.55088 0.98638 0.76931 0.0
C1069 C 0.54633 0.94609 0.75357 0.0
C1070 C 0.52145 0.93615 0.77863 0.0
C1071 C 0.55759 0.97669 0.75596 0.0
C1072 C 0.51748 0.88533 0.7191 0.0
N1073 N 0.53685 0.88212 0.72841 0.0
C1074 C 0.56818 0.88785 0.70664 0.0
C1075 C 0.56235 0.88433 0.72262 0.0
C1076 C 0.54761 0.88924 0.69658 0.0
C1077 C 0.52234 0.88872 0.703 0.0
H1078 H 0.49754 0.88382 0.72407 0.0
H1079 H 0.57766 0.88231 0.73032 0.0
C1080 C 0.57256 0.90172 0.80466 0.0
N1081 N 0.57001 0.91244 0.79066 0.0
C1082 C 0.59653 0.91956 0.81449 0.0
C1083 C 0.61367 0.95994 0.79585 0.0
C1084 C 0.58985 0.94097 0.78614 0.0
C1085 C 0.6179 0.94892 0.80999 0.0
H1086 H 0.55687 0.87872 0.8078 0.0
H1087 H 0.58796 0.94874 0.77477 0.0
C1088 C 0.47841 0.82095 0.73855 0.0
N1089 N 0.45496 0.80259 0.70898 0.0
C1090 C 0.4546 0.8243 0.73358 0.0
C1091 C 0.4901 0.80799 0.72856 0.0
C1092 C 0.44308 0.81491 0.71857 0.0
C1093 C 0.47802 0.79897 0.71363 0.0
C1094 C 0.48966 0.83739 0.79891 0.0
C1095 C 0.47116 0.80678 0.80187 0.0
C1096 C 0.48677 0.85831 0.80794 0.0
C1097 C 0.44963 0.79758 0.8137 0.0
C1098 C 0.46498 0.84821 0.81966 0.0
N1099 N 0.44698 0.81831 0.82226 0.0
C1100 C 0.53609 0.78803 0.77757 0.0
C1101 C 0.48915 0.76989 0.7651 0.0
C1102 C 0.53055 0.75874 0.77926 0.0
N1103 N 0.51556 0.79299 0.7704 0.0
C1104 C 0.48254 0.74045 0.76674 0.0
C1105 C 0.50335 0.73469 0.77389 0.0
H1106 H 0.55651 0.80666 0.78215 0.0
H1107 H 0.47284 0.7743 0.75985 0.0
C1108 C 0.43848 0.86357 0.77719 0.0
N1109 N 0.44841 0.84412 0.77464 0.0
C1110 C 0.40798 0.8526 0.78005 0.0
C1111 C 0.39908 0.80213 0.77771 0.0
C1112 C 0.42944 0.81399 0.77477 0.0
C1113 C 0.38802 0.82148 0.78043 0.0
H1114 H 0.45408 0.88746 0.77684 0.0
H1115 H 0.438 0.79915 0.77245 0.0
O1116 O 0.55793 0.86787 0.76144 0.0
O1117 O 0.5169 0.89571 0.76288 0.0
O1118 O 0.4903 0.83041 0.75311 0.0
O1119 O 0.51028 0.84683 0.78709 0.0
H1120 H 0.60151 0.88356 0.78205 0.0
H1121 H 0.55989 0.83034 0.74103 0.0
H1122 H 0.63755 0.86541 0.78189 0.0
H1123 H 0.59673 0.81318 0.74156 0.0
H1124 H 0.52824 0.97534 0.79107 0.0
H1125 H 0.5517 0.93835 0.74297 0.0
H1126 H 0.50735 0.92065 0.78758 0.0
H1127 H 0.57169 0.99273 0.7472 0.0
H1128 H 0.58804 0.88843 0.70212 0.0
H1129 H 0.50573 0.8893 0.69561 0.0
H1130 H 0.599 0.90991 0.82517 0.0
H1131 H 0.62902 0.98266 0.79208 0.0
H1132 H 0.44534 0.83436 0.74116 0.0
H1133 H 0.5084 0.80509 0.73228 0.0
H1134 H 0.42477 0.81752 0.71453 0.0
H1135 H 0.48697 0.78909 0.70573 0.0
H1136 H 0.47316 0.79032 0.79499 0.0
H1137 H 0.5011 0.88207 0.80584 0.0
H1138 H 0.43497 0.77396 0.81605 0.0
H1139 H 0.46234 0.86414 0.82668 0.0
H1140 H 0.54688 0.75485 0.78498 0.0
H1141 H 0.46126 0.72227 0.76258 0.0
H1142 H 0.40006 0.86812 0.78191 0.0
H1143 H 0.38425 0.77804 0.77747 0.0
Li1144 Li 0.1626 0.67173 0.77172 0.0
Li1145 Li 0.13703 0.61771 0.77396 0.0
Li1146 Li 0.12153 0.64201 0.75398 0.0
Li1147 Li 0.11286 0.64526 0.78233 0.0
C1148 C 0.18195 0.64925 0.74539 0.0
N1149 N 0.22669 0.66198 0.72378 0.0
C1150 C 0.20279 0.64015 0.74804 0.0
C1151 C 0.18375 0.66455 0.73163 0.0
C1152 C 0.22528 0.6469 0.73701 0.0
C1153 C 0.20656 0.67085 0.72088 0.0
C1154 C 0.17143 0.64883 0.80004 0.0
C1155 C 0.19182 0.64814 0.82519 0.0
N1156 N 0.21668 0.65107 0.81805 0.0
C1157 C 0.19717 0.65186 0.79296 0.0
C1158 C 0.16871 0.647 0.81629 0.0
C1159 C 0.21981 0.65296 0.80225 0.0
C1160 C 0.20921 0.72018 0.78851 0.0
N1161 N 0.20091 0.70795 0.77399 0.0
C1162 C 0.24912 0.74334 0.7638 0.0
C1163 C 0.21978 0.71996 0.76161 0.0
C1164 C 0.25907 0.75465 0.77887 0.0
C1165 C 0.23841 0.74363 0.79124 0.0
H1166 H 0.19349 0.71096 0.7981 0.0
H1167 H 0.21247 0.71099 0.75009 0.0
C1168 C 0.14762 0.57243 0.7643 0.0
N1169 N 0.14304 0.5848 0.77725 0.0
C1170 C 0.15881 0.55305 0.76566 0.0
C1171 C 0.15803 0.55763 0.79373 0.0
C1172 C 0.14669 0.57681 0.79182 0.0
C1173 C 0.16516 0.54634 0.78051 0.0
H1174 H 0.14452 0.57922 0.75286 0.0
H1175 H 0.14246 0.58659 0.80196 0.0
C1176 C 0.14377 0.70772 0.76472 0.0
N1177 N 0.17705 0.76935 0.76186 0.0
C1178 C 0.14758 0.72601 0.77758 0.0
C1179 C 0.15673 0.72075 0.75039 0.0
C1180 C 0.16453 0.75713 0.7759 0.0
C1181 C 0.17351 0.75196 0.74918 0.0
C1182 C 0.07531 0.58353 0.77702 0.0
C1183 C 0.05001 0.56049 0.76964 0.0
C1184 C 0.08002 0.58116 0.79288 0.0
C1185 C 0.02977 0.5354 0.77828 0.0
C1186 C 0.05927 0.55572 0.80111 0.0
N1187 N 0.03478 0.53356 0.79371 0.0
C1188 C 0.11116 0.62182 0.72298 0.0
C1189 C 0.09688 0.65759 0.72905 0.0
C1190 C 0.10636 0.62374 0.70712 0.0
N1191 N 0.10731 0.63936 0.73344 0.0
C1192 C 0.09152 0.66001 0.71332 0.0
C1193 C 0.09703 0.64352 0.70209 0.0
H1194 H 0.11979 0.60779 0.72685 0.0
H1195 H 0.0941 0.67131 0.73767 0.0
C1196 C 0.10135 0.6668 0.80934 0.0
N1197 N 0.08744 0.64824 0.79708 0.0
C1198 C 0.0849 0.67297 0.82005 0.0
C1199 C 0.03981 0.6397 0.8057 0.0
C1200 C 0.05727 0.6345 0.79509 0.0
C1201 C 0.0537 0.65941 0.8183 0.0
H1202 H 0.12546 0.67769 0.81044 0.0
H1203 H 0.0469 0.62008 0.7851 0.0
O1204 O 0.15929 0.64222 0.7559 0.0
O1205 O 0.14889 0.64764 0.7912 0.0
O1206 O 0.12801 0.67721 0.76625 0.0
O1207 O 0.0953 0.60817 0.76866 0.0
H1208 H 0.20162 0.62787 0.75845 0.0
H1209 H 0.16807 0.67201 0.72936 0.0
H1210 H 0.24156 0.64003 0.73895 0.0
H1211 H 0.20829 0.68286 0.71026 0.0
H1212 H 0.18999 0.64669 0.83778 0.0
H1213 H 0.19975 0.65364 0.78044 0.0
H1214 H 0.14888 0.64462 0.82194 0.0
H1215 H 0.23989 0.65538 0.79691 0.0
H1216 H 0.2643 0.75139 0.75391 0.0
H1217 H 0.24503 0.75233 0.80297 0.0
H1218 H 0.16448 0.54522 0.75517 0.0
H1219 H 0.16257 0.55287 0.80537 0.0
H1220 H 0.13781 0.71631 0.78876 0.0
H1221 H 0.15418 0.70695 0.74034 0.0
H1222 H 0.1678 0.77157 0.78577 0.0
H1223 H 0.18381 0.76235 0.73818 0.0
H1224 H 0.04607 0.562 0.75737 0.0
H1225 H 0.09941 0.59876 0.79881 0.0
H1226 H 0.01008 0.51739 0.77273 0.0
H1227 H 0.06263 0.5536 0.81339 0.0
H1228 H 0.11163 0.6112 0.69885 0.0
H1229 H 0.08424 0.67542 0.7099 0.0
H1230 H 0.09673 0.68912 0.82924 0.0
H1231 H 0.01584 0.62892 0.80391 0.0
Li1232 Li 0.32668 0.48453 0.76968 0.0
Li1233 Li 0.38092 0.50871 0.76796 0.0
Li1234 Li 0.34949 0.46776 0.75035 0.0
Li1235 Li 0.35265 0.45842 0.77745 0.0
C1236 C 0.33642 0.51046 0.74035 0.0
N1237 N 0.30345 0.51577 0.7166 0.0
C1238 C 0.34846 0.53682 0.73161 0.0
C1239 C 0.30754 0.48682 0.73704 0.0
C1240 C 0.33144 0.53908 0.71965 0.0
C1241 C 0.29126 0.48993 0.72497 0.0
C1242 C 0.35638 0.51676 0.79615 0.0
C1243 C 0.35283 0.53561 0.82137 0.0
N1244 N 0.35839 0.56166 0.81459 0.0
C1245 C 0.36201 0.5437 0.78943 0.0
C1246 C 0.35174 0.51265 0.81225 0.0
C1247 C 0.36297 0.56614 0.79895 0.0
C1248 C 0.26807 0.46994 0.77993 0.0
N1249 N 0.29449 0.4916 0.77373 0.0
C1250 C 0.27637 0.52572 0.77254 0.0
C1251 C 0.2989 0.51905 0.77001 0.0
C1252 C 0.24882 0.50382 0.77878 0.0
C1253 C 0.24462 0.47555 0.78248 0.0
H1254 H 0.26522 0.44836 0.78287 0.0
H1255 H 0.31992 0.53583 0.76495 0.0
C1256 C 0.42511 0.56481 0.75698 0.0
N1257 N 0.41647 0.54691 0.76979 0.0
C1258 C 0.44571 0.59541 0.75842 0.0
C1259 C 0.44993 0.58806 0.78594 0.0
C1260 C 0.42933 0.55757 0.78397 0.0
C1261 C 0.45723 0.60752 0.77319 0.0
H1262 H 0.41444 0.55567 0.74588 0.0
H1263 H 0.42187 0.54293 0.79401 0.0
C1264 C 0.30324 0.41255 0.76361 0.0
N1265 N 0.27861 0.35112 0.76239 0.0
C1266 C 0.32072 0.40037 0.75887 0.0
C1267 C 0.27327 0.39348 0.76777 0.0
C1268 C 0.30785 0.36926 0.75832 0.0
C1269 C 0.26122 0.36248 0.76704 0.0
C1270 C 0.41173 0.47831 0.76826 0.0
C1271 C 0.43242 0.47507 0.75921 0.0
C1272 C 0.41764 0.48584 0.78406 0.0
C1273 C 0.45873 0.47941 0.76612 0.0
C1274 C 0.44421 0.48999 0.79054 0.0
N1275 N 0.46404 0.48672 0.78151 0.0
C1276 C 0.36617 0.47403 0.71893 0.0
C1277 C 0.31951 0.43014 0.72404 0.0
C1278 C 0.3618 0.46914 0.70286 0.0
N1279 N 0.34491 0.45491 0.72912 0.0
C1280 C 0.31457 0.42403 0.70812 0.0
C1281 C 0.33534 0.44423 0.69728 0.0
H1282 H 0.3858 0.49394 0.72328 0.0
H1283 H 0.30233 0.41578 0.7322 0.0
C1284 C 0.32839 0.42225 0.80317 0.0
N1285 N 0.3495 0.42936 0.79194 0.0
C1286 C 0.32139 0.39884 0.81348 0.0
C1287 C 0.35874 0.39109 0.8008 0.0
C1288 C 0.36475 0.41446 0.79057 0.0
C1289 C 0.33638 0.38267 0.81225 0.0
H1290 H 0.31628 0.43418 0.80375 0.0
H1291 H 0.38096 0.4201 0.7813 0.0
O1292 O 0.35307 0.50784 0.75196 0.0
O1293 O 0.35554 0.49445 0.78714 0.0
O1294 O 0.31573 0.44296 0.76478 0.0
O1295 O 0.38597 0.47422 0.76156 0.0
H1296 H 0.37073 0.55537 0.73404 0.0
H1297 H 0.29775 0.46624 0.74366 0.0
H1298 H 0.34051 0.55935 0.71279 0.0
H1299 H 0.26894 0.47178 0.72225 0.0
H1300 H 0.34928 0.53273 0.83385 0.0
H1301 H 0.36579 0.54736 0.77701 0.0
H1302 H 0.34738 0.49192 0.81763 0.0
H1303 H 0.3674 0.58713 0.79389 0.0
H1304 H 0.28025 0.54768 0.76943 0.0
H1305 H 0.22364 0.45821 0.7874 0.0
H1306 H 0.45073 0.60978 0.74834 0.0
H1307 H 0.45858 0.59664 0.79749 0.0
H1308 H 0.34402 0.41481 0.75572 0.0
H1309 H 0.25947 0.40251 0.77155 0.0
H1310 H 0.32113 0.35955 0.75471 0.0
H1311 H 0.23804 0.34745 0.77022 0.0
H1312 H 0.42816 0.46927 0.74696 0.0
H1313 H 0.40186 0.48826 0.7913 0.0
H1314 H 0.47494 0.47697 0.75925 0.0
H1315 H 0.44904 0.49579 0.80275 0.0
H1316 H 0.3783 0.48539 0.6949 0.0
H1317 H 0.29421 0.40418 0.70435 0.0
H1318 H 0.30375 0.39287 0.82201 0.0
H1319 H 0.37118 0.37956 0.79963 0.0
Li1320 Li 0.54942 0.86691 0.54969 0.0
Li1321 Li 0.5338 0.85121 0.57646 0.0
Li1322 Li 0.52545 0.81321 0.55643 0.0
Li1323 Li 0.49584 0.83767 0.55687 0.0
C1324 C 0.58763 0.84545 0.55736 0.0
N1325 N 0.6335 0.84092 0.54355 0.0
C1326 C 0.61205 0.84968 0.56625 0.0
C1327 C 0.58651 0.83886 0.54144 0.0
C1328 C 0.63504 0.84732 0.55906 0.0
C1329 C 0.60992 0.83668 0.53468 0.0
C1330 C 0.533 0.90309 0.57212 0.0
C1331 C 0.51977 0.92787 0.59179 0.0
N1332 N 0.54686 0.95323 0.58982 0.0
C1333 C 0.5606 0.9295 0.57018 0.0
C1334 C 0.51228 0.90235 0.58289 0.0
C1335 C 0.56721 0.95458 0.57927 0.0
C1336 C 0.5628 0.90825 0.52673 0.0
N1337 N 0.57643 0.89848 0.5366 0.0
C1338 C 0.62478 0.93613 0.52754 0.0
C1339 C 0.60681 0.91193 0.53731 0.0
C1340 C 0.6112 0.94666 0.5172 0.0
C1341 C 0.5798 0.93235 0.51686 0.0
H1342 H 0.53863 0.89758 0.52678 0.0
H1343 H 0.61715 0.90421 0.54555 0.0
C1344 C 0.5266 0.83871 0.60834 0.0
N1345 N 0.54266 0.86106 0.59796 0.0
C1346 C 0.52979 0.84453 0.62431 0.0
C1347 C 0.56719 0.89602 0.61875 0.0
C1348 C 0.56342 0.8891 0.60283 0.0
C1349 C 0.54984 0.87361 0.62965 0.0
H1350 H 0.51101 0.81636 0.60423 0.0
H1351 H 0.57684 0.90618 0.59439 0.0
C1352 C 0.49597 0.81527 0.52731 0.0
N1353 N 0.45465 0.78226 0.50441 0.0
C1354 C 0.47474 0.7851 0.52982 0.0
C1355 C 0.49626 0.82863 0.51311 0.0
C1356 C 0.45402 0.76879 0.51812 0.0
C1357 C 0.47516 0.81157 0.50169 0.0
C1358 C 0.46996 0.79508 0.57918 0.0
C1359 C 0.45236 0.7644 0.57602 0.0
C1360 C 0.4586 0.80894 0.58875 0.0
C1361 C 0.42351 0.7482 0.58233 0.0
C1362 C 0.42963 0.79197 0.59483 0.0
N1363 N 0.41283 0.76221 0.59151 0.0
C1364 C 0.51779 0.75893 0.5661 0.0
C1365 C 0.52429 0.7655 0.5387 0.0
C1366 C 0.5097 0.72894 0.5647 0.0
N1367 N 0.52369 0.77611 0.55316 0.0
C1368 C 0.51634 0.73554 0.53675 0.0
C1369 C 0.508 0.71664 0.54983 0.0
H1370 H 0.51735 0.76802 0.57743 0.0
H1371 H 0.52911 0.77971 0.5286 0.0
C1372 C 0.45408 0.8573 0.55327 0.0
N1373 N 0.45715 0.83271 0.55308 0.0
C1374 C 0.42565 0.85412 0.55215 0.0
C1375 C 0.40432 0.80053 0.55004 0.0
C1376 C 0.43302 0.80475 0.55115 0.0
C1377 C 0.40029 0.82533 0.55082 0.0
H1378 H 0.47363 0.87936 0.55461 0.0
H1379 H 0.43579 0.7855 0.551 0.0
O1380 O 0.56493 0.84753 0.56432 0.0
O1381 O 0.5261 0.8783 0.56331 0.0
O1382 O 0.51657 0.83166 0.53858 0.0
O1383 O 0.49818 0.81143 0.57299 0.0
H1384 H 0.61322 0.85473 0.57859 0.0
H1385 H 0.5679 0.83563 0.53433 0.0
H1386 H 0.65408 0.85056 0.5658 0.0
H1387 H 0.60936 0.83164 0.52238 0.0
H1388 H 0.50401 0.92753 0.60023 0.0
H1389 H 0.5769 0.93059 0.56189 0.0
H1390 H 0.49063 0.88231 0.58436 0.0
H1391 H 0.58856 0.9751 0.57797 0.0
H1392 H 0.64893 0.94644 0.52805 0.0
H1393 H 0.5685 0.94011 0.50923 0.0
H1394 H 0.51621 0.82662 0.6324 0.0
H1395 H 0.58345 0.91853 0.62249 0.0
H1396 H 0.474 0.77444 0.54077 0.0
H1397 H 0.51265 0.8519 0.5109 0.0
H1398 H 0.4374 0.74545 0.51996 0.0
H1399 H 0.47513 0.82163 0.49065 0.0
H1400 H 0.46067 0.75326 0.5686 0.0
H1401 H 0.472 0.83254 0.59144 0.0
H1402 H 0.40958 0.7245 0.5799 0.0
H1403 H 0.42053 0.80247 0.60218 0.0
H1404 H 0.50277 0.71508 0.57506 0.0
H1405 H 0.51528 0.72685 0.5251 0.0
H1406 H 0.42352 0.87386 0.5525 0.0
H1407 H 0.38534 0.77792 0.54913 0.0
Li1408 Li 0.15347 0.65685 0.56427 0.0
Li1409 Li 0.17627 0.71095 0.56465 0.0
Li1410 Li 0.13632 0.68117 0.58311 0.0
Li1411 Li 0.12542 0.68125 0.55562 0.0
C1412 C 0.18028 0.66945 0.59341 0.0
N1413 N 0.18771 0.63834 0.61744 0.0
C1414 C 0.20799 0.6813 0.60087 0.0
C1415 C 0.15637 0.6417 0.59815 0.0
C1416 C 0.2113 0.66524 0.61299 0.0
C1417 C 0.16056 0.62636 0.61034 0.0
C1418 C 0.18429 0.68498 0.53723 0.0
C1419 C 0.20408 0.68203 0.51218 0.0
N1420 N 0.22984 0.68735 0.51923 0.0
C1421 C 0.21093 0.69036 0.54422 0.0
C1422 C 0.1808 0.68077 0.52109 0.0
C1423 C 0.23371 0.69152 0.53492 0.0
C1424 C 0.14016 0.59857 0.55407 0.0
N1425 N 0.16089 0.62466 0.56096 0.0
C1426 C 0.19419 0.60595 0.56431 0.0
C1427 C 0.18767 0.62878 0.56586 0.0
C1428 C 0.17308 0.57856 0.55755 0.0
C1429 C 0.1458 0.57498 0.55227 0.0
H1430 H 0.11917 0.59601 0.55011 0.0
H1431 H 0.2041 0.64984 0.57101 0.0
C1432 C 0.23308 0.75495 0.57433 0.0
N1433 N 0.21419 0.74636 0.56194 0.0
C1434 C 0.26365 0.775 0.57226 0.0
C1435 C 0.25427 0.77908 0.54501 0.0
C1436 C 0.22387 0.75875 0.54758 0.0
C1437 C 0.27473 0.7865 0.55732 0.0
H1438 H 0.22475 0.74451 0.58556 0.0
H1439 H 0.2085 0.75111 0.53785 0.0
C1440 C 0.08318 0.62451 0.57188 0.0
N1441 N 0.02409 0.58028 0.57647 0.0
C1442 C 0.06034 0.63131 0.57082 0.0
C1443 C 0.07594 0.59522 0.57534 0.0
C1444 C 0.03061 0.60864 0.57315 0.0
C1445 C 0.04595 0.57319 0.57763 0.0
C1446 C 0.14499 0.74102 0.56341 0.0
C1447 C 0.14225 0.76245 0.57206 0.0
C1448 C 0.15133 0.74546 0.54744 0.0
C1449 C 0.14587 0.788 0.56456 0.0
C1450 C 0.15479 0.7713 0.54038 0.0
N1451 N 0.15201 0.79187 0.54901 0.0
C1452 C 0.14505 0.69462 0.61493 0.0
C1453 C 0.09433 0.66023 0.60865 0.0
C1454 C 0.13851 0.69031 0.63085 0.0
N1455 N 0.12326 0.67885 0.60422 0.0
C1456 C 0.08671 0.65552 0.62445 0.0
C1457 C 0.10917 0.66985 0.63577 0.0
H1458 H 0.16784 0.70951 0.61111 0.0
H1459 H 0.07724 0.64829 0.60004 0.0
C1460 C 0.08941 0.65655 0.52953 0.0
N1461 N 0.0957 0.67667 0.54122 0.0
C1462 C 0.06577 0.64938 0.51934 0.0
C1463 C 0.05607 0.68446 0.53313 0.0
C1464 C 0.07989 0.69092 0.54309 0.0
C1465 C 0.04844 0.663 0.52128 0.0
H1466 H 0.10223 0.6454 0.52847 0.0
H1467 H 0.08507 0.70649 0.55264 0.0
O1468 O 0.17679 0.68504 0.58151 0.0
O1469 O 0.16169 0.68397 0.54604 0.0
O1470 O 0.11243 0.6462 0.56933 0.0
O1471 O 0.14163 0.71599 0.57068 0.0
H1472 H 0.22682 0.70262 0.59729 0.0
H1473 H 0.13478 0.6321 0.59256 0.0
H1474 H 0.23263 0.67415 0.61886 0.0
H1475 H 0.14222 0.60492 0.61415 0.0
H1476 H 0.20169 0.67882 0.49967 0.0
H1477 H 0.21413 0.69387 0.55667 0.0
H1478 H 0.16031 0.67662 0.5155 0.0
H1479 H 0.25448 0.69579 0.54018 0.0
H1480 H 0.21569 0.60975 0.56829 0.0
H1481 H 0.1289 0.5541 0.54705 0.0
H1482 H 0.27862 0.77947 0.58201 0.0
H1483 H 0.26194 0.78741 0.53332 0.0
H1484 H 0.06554 0.65397 0.56861 0.0
H1485 H 0.09331 0.58956 0.57633 0.0
H1486 H 0.01275 0.61363 0.57241 0.0
H1487 H 0.04006 0.55044 0.58032 0.0
H1488 H 0.13739 0.75935 0.58444 0.0
H1489 H 0.15342 0.72911 0.54053 0.0
H1490 H 0.1438 0.80477 0.57111 0.0
H1491 H 0.15966 0.775 0.52803 0.0
H1492 H 0.1565 0.70187 0.6392 0.0
H1493 H 0.06364 0.64027 0.62777 0.0
H1494 H 0.06041 0.63256 0.51039 0.0
H1495 H 0.04344 0.6957 0.53485 0.0
Li1496 Li 0.29126 0.46999 0.55669 0.0
Li1497 Li 0.34496 0.49487 0.55821 0.0
Li1498 Li 0.31594 0.44299 0.55024 0.0
Li1499 Li 0.31462 0.45655 0.57695 0.0
C1500 C 0.30476 0.46919 0.52538 0.0
N1501 N 0.27443 0.45036 0.49735 0.0
C1502 C 0.31786 0.48522 0.5117 0.0
C1503 C 0.27621 0.44357 0.52481 0.0
C1504 C 0.30216 0.47536 0.49764 0.0
C1505 C 0.26126 0.43442 0.51053 0.0
C1506 C 0.31832 0.52266 0.5736 0.0
C1507 C 0.31423 0.56177 0.58671 0.0
N1508 N 0.31976 0.57677 0.57297 0.0
C1509 C 0.32405 0.53854 0.55962 0.0
C1510 C 0.31346 0.53442 0.58728 0.0
C1511 C 0.32466 0.56582 0.55954 0.0
C1512 C 0.23712 0.46741 0.56379 0.0
N1513 N 0.25928 0.47724 0.55292 0.0
C1514 C 0.24158 0.50656 0.54054 0.0
C1515 C 0.26137 0.4958 0.54117 0.0
C1516 C 0.21942 0.49809 0.55209 0.0
C1517 C 0.21674 0.47755 0.56357 0.0
H1518 H 0.23637 0.45308 0.57316 0.0
H1519 H 0.27968 0.50401 0.53292 0.0
C1520 C 0.39389 0.54 0.54094 0.0
N1521 N 0.38135 0.53198 0.55538 0.0
C1522 C 0.41884 0.56851 0.53847 0.0
C1523 C 0.41805 0.57932 0.5659 0.0
C1524 C 0.39301 0.55087 0.56779 0.0
C1525 C 0.43103 0.58857 0.55106 0.0
H1526 H 0.38395 0.52459 0.53126 0.0
H1527 H 0.3822 0.54432 0.57906 0.0
C1528 C 0.26921 0.40009 0.56862 0.0
N1529 N 0.24804 0.34199 0.57854 0.0
C1530 C 0.28908 0.38969 0.571 0.0
C1531 C 0.23859 0.38093 0.57129 0.0
C1532 C 0.27794 0.36025 0.57601 0.0
C1533 C 0.22832 0.35164 0.5763 0.0
C1534 C 0.37514 0.47133 0.57388 0.0
C1535 C 0.39647 0.46355 0.56979 0.0
C1536 C 0.37999 0.48957 0.5869 0.0
C1537 C 0.42237 0.47423 0.5788 0.0
C1538 C 0.40616 0.49979 0.59562 0.0
N1539 N 0.42665 0.49198 0.59142 0.0
C1540 C 0.34595 0.42543 0.53076 0.0
C1541 C 0.29433 0.38841 0.53222 0.0
C1542 C 0.35119 0.40786 0.52038 0.0
N1543 N 0.31799 0.41545 0.53649 0.0
C1544 C 0.29861 0.36991 0.52189 0.0
C1545 C 0.32739 0.37971 0.51588 0.0
H1546 H 0.36419 0.44719 0.53426 0.0
H1547 H 0.27219 0.38127 0.53678 0.0
C1548 C 0.30062 0.45778 0.60818 0.0
N1549 N 0.31235 0.44581 0.59832 0.0
C1550 C 0.30179 0.45466 0.62427 0.0
C1551 C 0.32568 0.42552 0.61974 0.0
C1552 C 0.32442 0.42957 0.60371 0.0
C1553 C 0.31461 0.4385 0.63026 0.0
H1554 H 0.2913 0.47067 0.60354 0.0
H1555 H 0.33405 0.42068 0.59562 0.0
O1556 O 0.32006 0.47861 0.53919 0.0
O1557 O 0.31727 0.49568 0.57399 0.0
O1558 O 0.27941 0.42882 0.56373 0.0
O1559 O 0.3497 0.46097 0.56512 0.0
H1560 H 0.33992 0.50511 0.51194 0.0
H1561 H 0.26562 0.43085 0.53524 0.0
H1562 H 0.31204 0.48756 0.48697 0.0
H1563 H 0.23918 0.41463 0.50992 0.0
H1564 H 0.31045 0.57108 0.59721 0.0
H1565 H 0.32793 0.52994 0.5489 0.0
H1566 H 0.30912 0.52258 0.59823 0.0
H1567 H 0.32899 0.57826 0.54878 0.0
H1568 H 0.24505 0.52304 0.53177 0.0
H1569 H 0.20004 0.47061 0.57273 0.0
H1570 H 0.42812 0.57507 0.52683 0.0
H1571 H 0.42627 0.59448 0.57579 0.0
H1572 H 0.31283 0.40406 0.56894 0.0
H1573 H 0.22293 0.38866 0.5695 0.0
H1574 H 0.29307 0.35191 0.57788 0.0
H1575 H 0.20467 0.33657 0.57841 0.0
H1576 H 0.39302 0.44937 0.55976 0.0
H1577 H 0.36374 0.4958 0.59027 0.0
H1578 H 0.43908 0.46839 0.57576 0.0
H1579 H 0.41018 0.51393 0.60572 0.0
H1580 H 0.3737 0.41608 0.51601 0.0
H1581 H 0.27968 0.34847 0.51849 0.0
H1582 H 0.2938 0.46583 0.63192 0.0
H1583 H 0.33577 0.41293 0.62388 0.0
C1584 C 0.34457 0.34469 0.17447 0.0
C1585 C 0.36623 0.33621 0.17229 0.0
C1586 C 0.31988 0.33429 0.16443 0.0
C1587 C 0.31619 0.31526 0.15183 0.0
H1588 H 0.3464 0.35895 0.1842 0.0
H1589 H 0.30326 0.34066 0.16671 0.0
S1590 S 0.3656 0.28526 0.14147 0.0
N1591 N 0.3817 0.30682 0.15683 0.0
N1592 N 0.33566 0.28776 0.1379 0.0
C1593 C 0.33791 0.30705 0.14935 0.0
C1594 C 0.36286 0.31742 0.15959 0.0
C1595 C 0.68408 0.02756 0.14841 0.0
C1596 C 0.69656 0.01159 0.1551 0.0
C1597 C 0.67096 0.04007 0.15775 0.0
C1598 C 0.66969 0.03691 0.17408 0.0
H1599 H 0.68588 0.0318 0.13597 0.0
H1600 H 0.66268 0.05321 0.15219 0.0
S1601 S 0.69646 0.99456 0.19711 0.0
N1602 N 0.70449 0.991 0.17884 0.0
N1603 N 0.68031 0.01503 0.19646 0.0
C1604 C 0.68057 0.01957 0.18083 0.0
C1605 C 0.69395 0.00684 0.17131 0.0
C1606 C 0.97137 0.64894 0.16138 0.0
C1607 C 0.97116 0.65059 0.17778 0.0
C1608 C 0.98414 0.67492 0.15224 0.0
C1609 C 0.997 0.70346 0.15918 0.0
H1610 H 0.96065 0.62734 0.15557 0.0
H1611 H 0.98252 0.67254 0.13966 0.0
S1612 S 0.00466 0.72015 0.2016 0.0
N1613 N 0.98658 0.68319 0.20058 0.0
N1614 N 0.01114 0.73205 0.18336 0.0
C1615 C 0.99842 0.70551 0.17555 0.0
C1616 C 0.98542 0.67906 0.18486 0.0
C1617 C 0.32259 0.35872 0.83858 0.0
C1618 C 0.3276 0.35654 0.82261 0.0
C1619 C 0.31088 0.33363 0.84833 0.0
C1620 C 0.30386 0.30533 0.84253 0.0
H1621 H 0.32703 0.37987 0.84353 0.0
H1622 H 0.30612 0.33626 0.86036 0.0
S1623 S 0.31517 0.28808 0.80185 0.0
N1624 N 0.32584 0.32403 0.80154 0.0
N1625 N 0.30511 0.27711 0.82006 0.0
C1626 C 0.31016 0.30312 0.82675 0.0
C1627 C 0.3218 0.32866 0.81676 0.0
C1628 C 0.6686 0.97817 0.84542 0.0
C1629 C 0.69757 0.99297 0.83886 0.0
C1630 C 0.64303 0.96553 0.836 0.0
C1631 C 0.64528 0.96673 0.81961 0.0
H1632 H 0.66551 0.97499 0.85792 0.0
H1633 H 0.62128 0.95382 0.84163 0.0
S1634 S 0.71599 0.00573 0.79665 0.0
N1635 N 0.72702 0.01118 0.81502 0.0
N1636 N 0.67904 0.98553 0.79724 0.0
C1637 C 0.67412 0.98273 0.8129 0.0
C1638 C 0.70019 0.9962 0.82253 0.0
C1639 C 0.01657 0.67619 0.82242 0.0
C1640 C 0.0364 0.668 0.8288 0.0
C1641 C 0.00345 0.68873 0.83176 0.0
C1642 C 0.00972 0.69367 0.84783 0.0
H1643 H 0.01223 0.67422 0.80999 0.0
H1644 H 0.98896 0.69542 0.82626 0.0
S1645 S 0.05805 0.67351 0.87045 0.0
N1646 N 0.05937 0.66295 0.8524 0.0
N1647 N 0.03609 0.68799 0.86983 0.0
C1648 C 0.02845 0.68429 0.85448 0.0
C1649 C 0.04148 0.67116 0.845 0.0
C1650 C 0.99812 0.63936 0.48571 0.0
C1651 C 0.96951 0.62882 0.49225 0.0
C1652 C 0.0237 0.65137 0.49514 0.0
C1653 C 0.02162 0.65345 0.51142 0.0
H1654 H 0.00063 0.63714 0.4733 0.0
H1655 H 0.04519 0.65846 0.48968 0.0
S1656 S 0.9522 0.63089 0.53412 0.0
N1657 N 0.9408 0.62299 0.51583 0.0
N1658 N 0.98884 0.64505 0.53362 0.0
C1659 C 0.99332 0.6441 0.51803 0.0
C1660 C 0.96727 0.63185 0.50843 0.0
C1661 C 0.34873 0.37406 0.4909 0.0
C1662 C 0.33317 0.36118 0.50485 0.0
C1663 C 0.3582 0.35871 0.48118 0.0
C1664 C 0.35257 0.32992 0.48508 0.0
H1665 H 0.35444 0.39659 0.48772 0.0
H1666 H 0.37133 0.37012 0.47093 0.0
S1667 S 0.31064 0.28544 0.51971 0.0
N1668 N 0.31103 0.31739 0.52169 0.0
N1669 N 0.32867 0.28828 0.50327 0.0
C1670 C 0.33587 0.31623 0.49864 0.0
C1671 C 0.3261 0.33187 0.50854 0.0
C1672 C 0.6349 0.99613 0.48143 0.0
C1673 C 0.65749 0.02406 0.48714 0.0
C1674 C 0.62107 0.97096 0.49109 0.0
C1675 C 0.62918 0.97268 0.50686 0.0
H1676 H 0.62679 0.99393 0.46958 0.0
H1677 H 0.60323 0.95013 0.48627 0.0
S1678 S 0.68881 0.03986 0.52722 0.0
N1679 N 0.68908 0.0514 0.50924 0.0
N1680 N 0.66234 0.00412 0.5276 0.0
C1681 C 0.65265 8e-05 0.51258 0.0
C1682 C 0.6669 0.02578 0.50269 0.0
C1683 C 0.00543 0.13439 0.12554 0.0
C1684 C 0.02267 0.15766 0.11496 0.0
C1685 C 0.9741 0.11814 0.1247 0.0
C1686 C 0.95879 0.12454 0.11324 0.0
H1687 H 0.01632 0.12778 0.1341 0.0
H1688 H 0.96195 0.09923 0.13247 0.0
S1689 S 0.9932 0.18598 0.08418 0.0
N1690 N 0.022 0.1881 0.09359 0.0
N1691 N 0.96296 0.15808 0.09232 0.0
C1692 C 0.97561 0.14922 0.10336 0.0
C1693 C 0.00759 0.16572 0.10417 0.0
C1694 C 0.87181 0.89118 0.1272 0.0
C1695 C 0.84742 0.87762 0.11683 0.0
C1696 C 0.89256 0.88151 0.12807 0.0
C1697 C 0.88957 0.8578 0.1187 0.0
H1698 H 0.87596 0.91059 0.13401 0.0
H1699 H 0.91181 0.8935 0.13566 0.0
S1700 S 0.82792 0.81273 0.09093 0.0
N1701 N 0.81995 0.83758 0.09805 0.0
N1702 N 0.85922 0.81953 0.0996 0.0
C1703 C 0.8643 0.84281 0.10902 0.0
C1704 C 0.8432 0.85276 0.10807 0.0
C1705 C 0.17388 0.03872 0.10547 0.0
C1706 C 0.16427 0.05061 0.11744 0.0
C1707 C 0.16278 0.0078 0.10438 0.0
C1708 C 0.14184 0.98771 0.11527 0.0
H1709 H 0.18874 0.05318 0.09639 0.0
H1710 H 0.1697 0.99941 0.09459 0.0
S1711 S 0.1119 0.00805 0.14967 0.0
N1712 N 0.13485 0.04038 0.14119 0.0
N1713 N 0.11329 0.98225 0.13893 0.0
C1714 C 0.13342 0.99957 0.1278 0.0
C1715 C 0.14478 0.03102 0.12892 0.0
C1716 C 0.1436 0.97318 0.89871 0.0
C1717 C 0.12149 0.95585 0.88759 0.0
C1718 C 0.16001 0.00457 0.89774 0.0
C1719 C 0.15451 0.01956 0.88573 0.0
H1720 H 0.1471 0.96247 0.90866 0.0
H1721 H 0.17555 0.01721 0.90702 0.0
S1722 S 0.10121 0.98452 0.85296 0.0
N1723 N 0.09673 0.95593 0.86355 0.0
N1724 N 0.12754 0.01492 0.86179 0.0
C1725 C 0.13393 0.00245 0.87401 0.0
C1726 C 0.11743 0.97055 0.87491 0.0
C1727 C 0.02719 0.16225 0.89581 0.0
C1728 C 0.04481 0.15731 0.88502 0.0
C1729 C 0.99584 0.1466 0.89467 0.0
C1730 C 0.98114 0.12525 0.88281 0.0
H1731 H 0.03765 0.17719 0.90564 0.0
H1732 H 0.98299 0.14974 0.90371 0.0
S1733 S 0.01704 0.10625 0.85082 0.0
N1734 N 0.04535 0.13135 0.86142 0.0
N1735 N 0.98641 0.10197 0.85929 0.0
C1736 C 0.99855 0.12156 0.87139 0.0
C1737 C 0.03043 0.13763 0.87248 0.0
C1738 C 0.8746 0.865 0.87242 0.0
C1739 C 0.86938 0.84287 0.8835 0.0
C1740 C 0.85874 0.88028 0.87296 0.0
C1741 C 0.83734 0.87416 0.8847 0.0
H1742 H 0.89216 0.8716 0.86377 0.0
H1743 H 0.8648 0.89845 0.8648 0.0
S1744 S 0.81291 0.81588 0.91531 0.0
N1745 N 0.83943 0.81372 0.90566 0.0
N1746 N 0.80951 0.84243 0.90663 0.0
C1747 C 0.83042 0.85064 0.89515 0.0
C1748 C 0.84644 0.83495 0.89455 0.0
C1749 C 0.66959 0.46256 0.45832 0.0
C1750 C 0.68218 0.48527 0.44695 0.0
C1751 C 0.63868 0.44228 0.45888 0.0
C1752 C 0.61909 0.44385 0.4481 0.0
H1753 H 0.68385 0.45938 0.46634 0.0
H1754 H 0.63016 0.42459 0.46752 0.0
S1755 S 0.64037 0.50098 0.41703 0.0
N1756 N 0.67237 0.5099 0.4256 0.0
N1757 N 0.61429 0.47112 0.42632 0.0
C1758 C 0.63115 0.46739 0.4372 0.0
C1759 C 0.66268 0.48819 0.43668 0.0
C1760 C 0.52435 0.19307 0.45853 0.0
C1761 C 0.50344 0.18994 0.44713 0.0
C1762 C 0.54012 0.17777 0.4572 0.0
C1763 C 0.53568 0.15898 0.44435 0.0
H1764 H 0.52967 0.20867 0.46812 0.0
H1765 H 0.5574 0.18237 0.46569 0.0
S1766 S 0.48078 0.14017 0.41242 0.0
N1767 N 0.47711 0.16443 0.42339 0.0
N1768 N 0.50658 0.13542 0.42099 0.0
C1769 C 0.51324 0.1539 0.43352 0.0
C1770 C 0.49711 0.1694 0.4349 0.0
C1771 C 0.78928 0.35553 0.45466 0.0
C1772 C 0.81448 0.37255 0.44512 0.0
C1773 C 0.77401 0.32417 0.45435 0.0
C1774 C 0.78347 0.30869 0.44454 0.0
H1775 H 0.7802 0.36645 0.46174 0.0
H1776 H 0.7539 0.31192 0.46136 0.0
S1777 S 0.85031 0.34284 0.41874 0.0
N1778 N 0.85004 0.37174 0.42679 0.0
N1779 N 0.821 0.31264 0.42603 0.0
C1780 C 0.80976 0.32539 0.43572 0.0
C1781 C 0.82531 0.35738 0.43602 0.0
C1782 C 0.77581 0.31714 0.20501 0.0
C1783 C 0.77618 0.29663 0.21559 0.0
C1784 C 0.79758 0.34763 0.20561 0.0
C1785 C 0.8205 0.35882 0.21687 0.0
H1786 H 0.75785 0.30972 0.19657 0.0
H1787 H 0.79535 0.36279 0.19779 0.0
S1788 S 0.83329 0.31397 0.24617 0.0
N1789 N 0.8026 0.28925 0.23692 0.0
N1790 N 0.84392 0.34661 0.23786 0.0
C1791 C 0.8222 0.33829 0.22689 0.0
C1792 C 0.79999 0.30717 0.22628 0.0
C1793 C 0.69093 0.49347 0.22828 0.0
C1794 C 0.70654 0.48334 0.21899 0.0
C1795 C 0.65949 0.47806 0.22858 0.0
C1796 C 0.64264 0.45187 0.2197 0.0
H1797 H 0.70311 0.51284 0.23579 0.0
H1798 H 0.64834 0.48574 0.23645 0.0
S1799 S 0.67245 0.41756 0.19237 0.0
N1800 N 0.70258 0.44648 0.19995 0.0
N1801 N 0.64358 0.41802 0.20029 0.0
C1802 C 0.6579 0.44254 0.20968 0.0
C1803 C 0.68984 0.45817 0.20936 0.0
C1804 C 0.47844 0.17915 0.22803 0.0
C1805 C 0.48788 0.20356 0.21785 0.0
C1806 C 0.49126 0.16097 0.22737 0.0
C1807 C 0.51416 0.16676 0.21659 0.0
H1808 H 0.4621 0.17502 0.23708 0.0
H1809 H 0.48432 0.14324 0.2359 0.0
S1810 S 0.54593 0.22745 0.187 0.0
N1811 N 0.52028 0.23176 0.19619 0.0
N1812 N 0.54483 0.19801 0.19508 0.0
C1813 C 0.52256 0.1901 0.20576 0.0
C1814 C 0.50932 0.20843 0.20637 0.0
C1815 C 0.30806 0.80009 0.77172 0.0
C1816 C 0.2915 0.7754 0.78165 0.0
C1817 C 0.33949 0.81654 0.77219 0.0
C1818 C 0.35536 0.80864 0.78252 0.0
H1819 H 0.29668 0.8059 0.76305 0.0
H1820 H 0.35143 0.83429 0.76376 0.0
S1821 S 0.32269 0.74793 0.81198 0.0
N1822 N 0.2934 0.74532 0.80288 0.0
N1823 N 0.35239 0.77655 0.8039 0.0
C1824 C 0.33907 0.78532 0.79319 0.0
C1825 C 0.30714 0.76862 0.79274 0.0
C1826 C 0.23087 0.53647 0.78988 0.0
C1827 C 0.22483 0.51099 0.78114 0.0
C1828 C 0.21043 0.54659 0.7904 0.0
C1829 C 0.18336 0.53178 0.78202 0.0
H1830 H 0.25205 0.54928 0.79594 0.0
H1831 H 0.21665 0.56711 0.7967 0.0
S1832 S 0.15602 0.46267 0.75834 0.0
N1833 N 0.18916 0.47005 0.76473 0.0
N1834 N 0.15065 0.48918 0.76562 0.0
C1835 C 0.17644 0.50548 0.77381 0.0
C1836 C 0.19717 0.495 0.77342 0.0
C1837 C 0.50838 0.6909 0.76623 0.0
C1838 C 0.49563 0.70332 0.77599 0.0
C1839 C 0.49693 0.65982 0.76593 0.0
C1840 C 0.47267 0.64039 0.77554 0.0
H1841 H 0.52618 0.70508 0.7582 0.0
H1842 H 0.50633 0.6508 0.75774 0.0
S1843 S 0.43254 0.66249 0.80363 0.0
N1844 N 0.45848 0.69441 0.79584 0.0
N1845 N 0.43703 0.63611 0.79543 0.0
C1846 C 0.46077 0.65288 0.78588 0.0
C1847 C 0.47222 0.68436 0.78605 0.0
C1848 C 0.46911 0.66894 0.53743 0.0
C1849 C 0.49313 0.68363 0.54797 0.0
C1850 C 0.4503 0.63773 0.53774 0.0
C1851 C 0.45481 0.62016 0.54862 0.0
H1852 H 0.46351 0.68175 0.52961 0.0
H1853 H 0.43094 0.62754 0.53012 0.0
S1854 S 0.51762 0.64704 0.5767 0.0
N1855 N 0.52285 0.6778 0.56804 0.0
N1856 N 0.48718 0.61907 0.56874 0.0
C1857 C 0.48005 0.63427 0.55837 0.0
C1858 C 0.49929 0.66602 0.55801 0.0
C1859 C 0.31774 0.79101 0.54185 0.0
C1860 C 0.30744 0.80157 0.55416 0.0
C1861 C 0.34813 0.80025 0.54032 0.0
C1862 C 0.36944 0.8204 0.55102 0.0
H1863 H 0.30201 0.77406 0.53388 0.0
H1864 H 0.35484 0.79057 0.53105 0.0
S1865 S 0.35457 0.85732 0.58421 0.0
N1866 N 0.32134 0.83564 0.57626 0.0
N1867 N 0.37849 0.85242 0.57364 0.0
C1868 C 0.35977 0.8326 0.56279 0.0
C1869 C 0.32876 0.82326 0.56432 0.0
C1870 C 0.20251 0.52726 0.56797 0.0
C1871 C 0.20264 0.51423 0.55355 0.0
C1872 C 0.19152 0.54689 0.56926 0.0
C1873 C 0.18015 0.55424 0.55621 0.0
H1874 H 0.21245 0.52355 0.57819 0.0
H1875 H 0.19286 0.55722 0.58049 0.0
S1876 S 0.17262 0.52385 0.51615 0.0
N1877 N 0.18803 0.50801 0.52623 0.0
N1878 N 0.16777 0.54545 0.52863 0.0
C1879 C 0.17858 0.54014 0.5419 0.0
C1880 C 0.18982 0.52009 0.54057 0.0
C1881 C 0.20568 0.19316 0.00903 0.0
C1882 C 0.22198 0.22035 0.01721 0.0
C1883 C 0.20998 0.19149 0.993 0.0
C1884 C 0.23054 0.21703 0.98456 0.0
H1885 H 0.18938 0.17301 0.01506 0.0
H1886 H 0.19645 0.17023 0.98709 0.0
S1887 S 0.27924 0.2934 0.00059 0.0
N1888 N 0.25986 0.27325 0.0158 0.0
N1889 N 0.26794 0.27011 0.98557 0.0
C1890 C 0.24731 0.24427 0.99262 0.0
C1891 C 0.24309 0.24592 0.00899 0.0
C1892 C 0.80464 0.00935 0.99003 0.0
C1893 C 0.78072 0.00742 0.98136 0.0
C1894 C 0.80196 0.00396 0.0061 0.0
C1895 C 0.7754 0.99678 0.01411 0.0
H1896 H 0.82535 0.01439 0.98427 0.0
H1897 H 0.82088 0.00554 0.01234 0.0
S1898 S 0.70658 0.98971 0.99685 0.0
N1899 N 0.72981 0.99824 0.98192 0.0
N1900 N 0.72491 0.98846 0.01231 0.0
C1901 C 0.75148 0.99527 0.00566 0.0
C1902 C 0.75408 0.00041 0.98922 0.0
C1903 C 0.97698 0.79191 0.99405 0.0
C1904 C 0.98322 0.77179 0.98618 0.0
C1905 C 0.98228 0.79721 0.01006 0.0
C1906 C 0.99385 0.78247 0.01883 0.0
H1907 H 0.96893 0.80446 0.98767 0.0
H1908 H 0.97758 0.81323 0.01561 0.0
S1909 S 0.01254 0.72659 0.00391 0.0
N1910 N 0.00036 0.73612 0.98842 0.0
N1911 N 0.01057 0.74628 0.01861 0.0
C1912 C 0.99936 0.76165 0.01122 0.0
C1913 C 0.99407 0.75633 0.99487 0.0
C1914 C 0.86354 0.5339 0.32547 0.0
C1915 C 0.88945 0.55456 0.31729 0.0
C1916 C 0.86036 0.53741 0.34142 0.0
C1917 C 0.88301 0.56167 0.34984 0.0
H1918 H 0.84538 0.51495 0.31946 0.0
H1919 H 0.84015 0.52068 0.34726 0.0
S1920 S 0.95523 0.62207 0.33388 0.0
N1921 N 0.93823 0.60013 0.31874 0.0
N1922 N 0.93213 0.60688 0.34884 0.0
C1923 C 0.90905 0.58256 0.34183 0.0
C1924 C 0.91225 0.57903 0.32552 0.0
C1925 C 0.46826 0.34327 0.32556 0.0
C1926 C 0.44217 0.33775 0.31767 0.0
C1927 C 0.46771 0.33756 0.34154 0.0
C1928 C 0.44111 0.32636 0.35026 0.0
H1929 H 0.48914 0.35133 0.31925 0.0
H1930 H 0.4883 0.34194 0.34713 0.0
S1931 S 0.3669 0.30892 0.33522 0.0
N1932 N 0.38915 0.32108 0.31978 0.0
N1933 N 0.3881 0.31032 0.34994 0.0
C1934 C 0.41496 0.32124 0.3426 0.0
C1935 C 0.41547 0.32686 0.32626 0.0
C1936 C 0.68371 0.1081 0.33517 0.0
C1937 C 0.66181 0.10468 0.34608 0.0
C1938 C 0.679 0.10869 0.31909 0.0
C1939 C 0.65239 0.10624 0.31341 0.0
H1940 H 0.70483 0.1109 0.33912 0.0
H1941 H 0.69677 0.11227 0.31109 0.0
S1942 S 0.58762 0.09575 0.33705 0.0
N1943 N 0.61227 0.09818 0.35001 0.0
N1944 N 0.60325 0.09863 0.31982 0.0
C1945 C 0.62996 0.10185 0.32416 0.0
C1946 C 0.63471 0.10122 0.34048 0.0
C1947 C 0.55613 0.86162 0.65702 0.0
C1948 C 0.55214 0.88015 0.64658 0.0
C1949 C 0.5556 0.86546 0.67317 0.0
C1950 C 0.55086 0.88785 0.67947 0.0
H1951 H 0.55919 0.84367 0.65267 0.0
H1952 H 0.55791 0.85009 0.68077 0.0
S1953 S 0.54039 0.943 0.65708 0.0
N1954 N 0.54409 0.92222 0.64358 0.0
N1955 N 0.54337 0.92964 0.67403 0.0
C1956 C 0.54758 0.90704 0.66915 0.0
C1957 C 0.54826 0.90321 0.65268 0.0
C1958 C 0.11424 0.68558 0.66378 0.0
C1959 C 0.10269 0.66249 0.65258 0.0
C1960 C 0.11113 0.67917 0.67977 0.0
C1961 C 0.09638 0.6494 0.68519 0.0
H1962 H 0.12635 0.70883 0.66015 0.0
H1963 H 0.12144 0.69773 0.68794 0.0
S1964 S 0.06051 0.58075 0.6607 0.0
N1965 N 0.07507 0.6086 0.64804 0.0
N1966 N 0.06838 0.59662 0.67813 0.0
C1967 C 0.08369 0.62609 0.67414 0.0
C1968 C 0.08698 0.63261 0.65784 0.0
C1969 C 0.3462 0.44328 0.6534 0.0
C1970 C 0.31837 0.43713 0.64738 0.0
C1971 C 0.3513 0.44489 0.66953 0.0
C1972 C 0.32878 0.44043 0.68027 0.0
H1973 H 0.36455 0.44783 0.6456 0.0
H1974 H 0.37317 0.44998 0.67361 0.0
S1975 S 0.25157 0.42257 0.67051 0.0
N1976 N 0.26749 0.42493 0.65343 0.0
N1977 N 0.27746 0.42943 0.6837 0.0
C1978 C 0.30065 0.43371 0.6744 0.0
C1979 C 0.29538 0.43175 0.65799 0.0
loop_
_geom_bond_atom_site_label_1
_geom_bond_atom_site_label_2
_geom_bond_distance
_geom_bond_site_symmetry_2
_ccdc_geom_bond_type
Li0 N17 1.990 . S
Li0 O60 1.956 . S
Li0 O61 1.970 . S
Li0 O62 1.961 . S
Li1 N25 1.990 . S
Li1 O60 1.970 . S
Li1 O61 1.956 . S
Li1 O63 1.961 . S
Li2 N47 1.990 . S
Li2 O60 1.961 . S
Li2 O62 1.956 . S
Li2 O63 1.970 . S
Li3 N53 1.990 . S
Li3 O61 1.961 . S
Li3 O62 1.970 . S
Li3 O63 1.956 . S
C4 C6 1.348 . S
C4 C7 1.356 . S
C4 O60 1.325 . S
N5 C8 1.314 . S
N5 C9 1.279 . S
C6 C4 1.348 . S
C6 C8 1.353 . S
C6 H64 0.929 . S
C7 C4 1.356 . S
C7 C9 1.358 . S
C7 H65 0.930 . S
C8 N5 1.314 . S
C8 C6 1.353 . S
C8 H66 0.930 . S
C9 N5 1.279 . S
C9 C7 1.358 . S
C9 H67 0.930 . S
C10 C13 1.348 . S
C10 C14 1.356 . S
C10 O61 1.325 . S
C11 N12 1.279 . S
C11 C14 1.358 . S
C11 H68 0.930 . S
N12 C11 1.279 . S
N12 C15 1.314 . S
C13 C10 1.348 . S
C13 C15 1.353 . S
C13 H69 0.929 . S
C14 C10 1.356 . S
C14 C11 1.358 . S
C14 H70 0.930 . S
C15 N12 1.314 . S
C15 C13 1.353 . S
C15 H71 0.930 . S
C16 N17 1.314 . S
C16 C21 1.353 . S
C16 H22 0.930 . S
N17 Li0 1.990 . S
N17 C16 1.314 . S
N17 C19 1.279 . S
C18 C19 1.358 . S
C18 C20 1.356 . S
C18 H72 0.930 . S
C19 N17 1.279 . S
C19 C18 1.358 . S
C19 H23 0.930 . S
C20 C18 1.356 . S
C20 C21 1.348 . S
C21 C16 1.353 . S
C21 C20 1.348 . S
C21 H73 0.929 . S
H22 C16 0.930 . S
H23 C19 0.930 . S
C24 N25 1.314 . S
C24 C26 1.353 . S
C24 H30 0.930 . S
N25 Li1 1.990 . S
N25 C24 1.314 . S
N25 C28 1.279 . S
C26 C24 1.353 . S
C26 C29 1.348 . S
C26 H74 0.929 . S
C27 C28 1.358 . S
C27 C29 1.356 . S
C27 H75 0.930 . S
C28 N25 1.279 . S
C28 C27 1.358 . S
C28 H31 0.930 . S
C29 C26 1.348 . S
C29 C27 1.356 . S
H30 C24 0.930 . S
H31 C28 0.930 . S
C32 C34 1.348 . S
C32 C35 1.356 . S
C32 O62 1.325 . S
N33 C36 1.314 . S
N33 C37 1.279 . S
C34 C32 1.348 . S
C34 C36 1.353 . S
C34 H76 0.929 . S
C35 C32 1.356 . S
C35 C37 1.358 . S
C35 H77 0.930 . S
C36 N33 1.314 . S
C36 C34 1.353 . S
C36 H78 0.930 . S
C37 N33 1.279 . S
C37 C35 1.358 . S
C37 H79 0.930 . S
C38 C39 1.348 . S
C38 C40 1.356 . S
C38 O63 1.325 . S
C39 C38 1.348 . S
C39 C41 1.353 . S
C39 H80 0.929 . S
C40 C38 1.356 . S
C40 C42 1.358 . S
C40 H81 0.930 . S
C41 C39 1.353 . S
C41 N43 1.314 . S
C41 H82 0.930 . S
C42 C40 1.358 . S
C42 N43 1.279 . S
C42 H83 0.930 . S
N43 C41 1.314 . S
N43 C42 1.279 . S
C44 C46 1.353 . S
C44 N47 1.314 . S
C44 H50 0.930 . S
C45 N47 1.279 . S
C45 C48 1.358 . S
C45 H51 0.930 . S
C46 C44 1.353 . S
C46 C49 1.348 . S
C46 H84 0.929 . S
N47 Li2 1.990 . S
N47 C44 1.314 . S
N47 C45 1.279 . S
C48 C45 1.358 . S
C48 C49 1.356 . S
C48 H85 0.930 . S
C49 C46 1.348 . S
C49 C48 1.356 . S
H50 C44 0.930 . S
H51 C45 0.930 . S
C52 N53 1.314 . S
C52 C54 1.353 . S
C52 H58 0.930 . S
N53 Li3 1.990 . S
N53 C52 1.314 . S
N53 C56 1.279 . S
C54 C52 1.353 . S
C54 C57 1.348 . S
C54 H86 0.929 . S
C55 C56 1.358 . S
C55 C57 1.356 . S
C55 H87 0.930 . S
C56 N53 1.279 . S
C56 C55 1.358 . S
C56 H59 0.930 . S
C57 C54 1.348 . S
C57 C55 1.356 . S
H58 C52 0.930 . S
H59 C56 0.930 . S
O60 Li0 1.956 . S
O60 Li1 1.970 . S
O60 Li2 1.961 . S
O60 C4 1.325 . S
O61 Li0 1.970 . S
O61 Li1 1.956 . S
O61 Li3 1.961 . S
O61 C10 1.325 . S
O62 Li0 1.961 . S
O62 Li2 1.956 . S
O62 Li3 1.970 . S
O62 C32 1.325 . S
O63 Li1 1.961 . S
O63 Li2 1.970 . S
O63 Li3 1.956 . S
O63 C38 1.325 . S
H64 C6 0.929 . S
H65 C7 0.930 . S
H66 C8 0.930 . S
H67 C9 0.930 . S
H68 C11 0.930 . S
H69 C13 0.929 . S
H70 C14 0.930 . S
H71 C15 0.930 . S
H72 C18 0.930 . S
H73 C21 0.929 . S
H74 C26 0.929 . S
H75 C27 0.930 . S
H76 C34 0.929 . S
H77 C35 0.930 . S
H78 C36 0.930 . S
H79 C37 0.930 . S
H80 C39 0.929 . S
H81 C40 0.930 . S
H82 C41 0.930 . S
H83 C42 0.930 . S
H84 C46 0.929 . S
H85 C48 0.930 . S
H86 C54 0.929 . S
H87 C55 0.930 . S
Li88 N105 1.990 . S
Li88 O148 1.956 1_545 S
Li88 O149 1.970 . S
Li88 O150 1.961 . S
Li89 N113 1.990 . S
Li89 O148 1.970 . S
Li89 O149 1.956 1_565 S
Li89 O151 1.961 . S
Li90 N135 1.991 . S
Li90 O148 1.969 . S
Li90 O150 1.946 1_565 S
Li90 O151 1.976 . S
Li91 N141 1.990 . S
Li91 O149 1.961 . S
Li91 O150 1.970 . S
Li91 O151 1.956 1_545 S
C92 C94 1.348 . S
C92 C95 1.356 1_565 S
C92 O148 1.325 . S
N93 C96 1.314 . S
N93 C97 1.279 1_565 S
C94 C92 1.348 . S
C94 C96 1.353 . S
C94 H152 0.929 . S
C95 C92 1.356 1_545 S
C95 C97 1.358 . S
C95 H153 0.930 . S
C96 N93 1.314 . S
C96 C94 1.353 . S
C96 H154 0.930 . S
C97 N93 1.279 1_545 S
C97 C95 1.358 . S
C97 H155 0.930 . S
C98 C101 1.348 . S
C98 C102 1.356 1_545 S
C98 O149 1.325 . S
C99 N100 1.279 1_565 S
C99 C102 1.358 . S
C99 H156 0.930 . S
N100 C99 1.279 1_545 S
N100 C103 1.314 . S
C101 C98 1.348 . S
C101 C103 1.353 . S
C101 H157 0.929 . S
C102 C98 1.356 1_565 S
C102 C99 1.358 . S
C102 H158 0.930 . S
C103 N100 1.314 . S
C103 C101 1.353 . S
C103 H159 0.930 . S
C104 N105 1.314 . S
C104 C109 1.353 . S
C104 H110 0.930 . S
N105 Li88 1.990 . S
N105 C104 1.314 . S
N105 C107 1.279 . S
C106 C107 1.358 . S
C106 C108 1.356 . S
C106 H160 0.930 . S
C107 N105 1.279 . S
C107 C106 1.358 . S
C107 H111 0.930 . S
C108 C106 1.356 . S
C108 C109 1.348 . S
C109 C104 1.353 . S
C109 C108 1.348 . S
C109 H161 0.929 . S
H110 C104 0.930 . S
H111 C107 0.930 . S
C112 N113 1.314 . S
C112 C114 1.353 . S
C112 H118 0.930 . S
N113 Li89 1.990 . S
N113 C112 1.314 . S
N113 C116 1.279 . S
C114 C112 1.353 . S
C114 C117 1.348 . S
C114 H162 0.929 . S
C115 C116 1.358 . S
C115 C117 1.356 . S
C115 H163 0.930 . S
C116 N113 1.279 . S
C116 C115 1.358 . S
C116 H119 0.930 . S
C117 C114 1.348 . S
C117 C115 1.356 . S
H118 C112 0.930 . S
H119 C116 0.930 . S
C120 C122 1.348 . S
C120 C123 1.356 . S
C120 O150 1.325 . S
N121 C124 1.314 . S
N121 C125 1.279 . S
C122 C120 1.348 . S
C122 C124 1.353 . S
C122 H164 0.929 . S
C123 C120 1.356 . S
C123 C125 1.358 . S
C123 H165 0.930 . S
C124 N121 1.314 . S
C124 C122 1.353 . S
C124 H166 0.930 . S
C125 N121 1.279 . S
C125 C123 1.358 . S
C125 H167 0.930 . S
C126 C127 1.348 . S
C126 C128 1.356 . S
C126 O151 1.325 . S
C127 C126 1.348 . S
C127 C129 1.353 . S
C127 H168 0.929 . S
C128 C126 1.356 . S
C128 C130 1.358 . S
C128 H169 0.930 . S
C129 C127 1.353 . S
C129 N131 1.314 . S
C129 H170 0.930 . S
C130 C128 1.358 . S
C130 N131 1.279 . S
C130 H171 0.930 . S
N131 C129 1.314 . S
N131 C130 1.279 . S
C132 C134 1.353 . S
C132 N135 1.328 . S
C132 H138 0.930 . S
C133 N135 1.264 1_545 S
C133 C136 1.358 . S
C133 H139 0.930 . S
C134 C132 1.353 . S
C134 C137 1.348 . S
C134 H172 0.929 . S
N135 Li90 1.991 . S
N135 C132 1.328 . S
N135 C133 1.264 1_565 S
C136 C133 1.358 . S
C136 C137 1.356 1_545 S
C136 H173 0.930 . S
C137 C134 1.348 . S
C137 C136 1.356 1_565 S
H138 C132 0.930 . S
H139 C133 0.930 . S
C140 N141 1.314 . S
C140 C142 1.353 . S
C140 H146 0.930 . S
N141 Li91 1.990 . S
N141 C140 1.314 . S
N141 C144 1.279 1_545 S
C142 C140 1.353 . S
C142 C145 1.348 . S
C142 H174 0.929 . S
C143 C144 1.372 . S
C143 C145 1.341 1_565 S
C143 H175 0.932 . S
C144 N141 1.279 1_565 S
C144 C143 1.372 . S
C144 H147 0.930 . S
C145 C142 1.348 . S
C145 C143 1.341 1_545 S
H146 C140 0.930 . S
H147 C144 0.930 . S
O148 Li88 1.956 1_565 S
O148 Li89 1.970 . S
O148 Li90 1.969 . S
O148 C92 1.325 . S
O149 Li88 1.970 . S
O149 Li89 1.956 1_545 S
O149 Li91 1.961 . S
O149 C98 1.325 . S
O150 Li88 1.961 . S
O150 Li90 1.946 1_545 S
O150 Li91 1.970 . S
O150 C120 1.325 . S
O151 Li89 1.961 . S
O151 Li90 1.976 . S
O151 Li91 1.956 1_565 S
O151 C126 1.325 . S
H152 C94 0.929 . S
H153 C95 0.930 . S
H154 C96 0.930 . S
H155 C97 0.930 . S
H156 C99 0.930 . S
H157 C101 0.929 . S
H158 C102 0.930 . S
H159 C103 0.930 . S
H160 C106 0.930 . S
H161 C109 0.929 . S
H162 C114 0.929 . S
H163 C115 0.930 . S
H164 C122 0.929 . S
H165 C123 0.930 . S
H166 C124 0.930 . S
H167 C125 0.930 . S
H168 C127 0.929 . S
H169 C128 0.930 . S
H170 C129 0.930 . S
H171 C130 0.930 . S
H172 C134 0.929 . S
H173 C136 0.930 . S
H174 C142 0.929 . S
H175 C143 0.932 . S
Li176 N193 1.990 . S
Li176 O236 1.956 1_655 S
Li176 O237 1.970 . S
Li176 O238 1.961 . S
Li177 N201 1.990 . S
Li177 O236 1.970 . S
Li177 O237 1.956 1_455 S
Li177 O239 1.961 . S
Li178 N223 1.990 . S
Li178 O236 1.957 . S
Li178 O238 1.949 1_455 S
Li178 O239 1.979 . S
Li179 N229 1.990 . S
Li179 O237 1.961 . S
Li179 O238 1.970 . S
Li179 O239 1.956 1_655 S
C180 C182 1.348 . S
C180 C183 1.356 1_455 S
C180 O236 1.325 . S
N181 C184 1.314 . S
N181 C185 1.279 1_455 S
C182 C180 1.348 . S
C182 C184 1.353 . S
C182 H240 0.929 . S
C183 C180 1.356 1_655 S
C183 C185 1.358 . S
C183 H241 0.930 . S
C184 N181 1.314 . S
C184 C182 1.353 . S
C184 H242 0.930 . S
C185 N181 1.279 1_655 S
C185 C183 1.358 . S
C185 H243 0.930 . S
C186 C189 1.348 . S
C186 C190 1.356 1_655 S
C186 O237 1.325 . S
C187 N188 1.279 1_455 S
C187 C190 1.358 . S
C187 H244 0.930 . S
N188 C187 1.279 1_655 S
N188 C191 1.314 . S
C189 C186 1.348 . S
C189 C191 1.353 . S
C189 H245 0.929 . S
C190 C186 1.356 1_455 S
C190 C187 1.358 . S
C190 H246 0.930 . S
C191 N188 1.314 . S
C191 C189 1.353 . S
C191 H247 0.930 . S
C192 N193 1.314 . S
C192 C197 1.353 . S
C192 H198 0.930 . S
N193 Li176 1.990 . S
N193 C192 1.314 . S
N193 C195 1.279 . S
C194 C195 1.358 . S
C194 C196 1.356 . S
C194 H248 0.930 . S
C195 N193 1.279 . S
C195 C194 1.358 . S
C195 H199 0.930 . S
C196 C194 1.356 . S
C196 C197 1.348 . S
C197 C192 1.353 . S
C197 C196 1.348 . S
C197 H249 0.929 . S
H198 C192 0.930 . S
H199 C195 0.930 . S
C200 N201 1.314 . S
C200 C202 1.353 . S
C200 H206 0.930 . S
N201 Li177 1.990 . S
N201 C200 1.314 . S
N201 C204 1.279 . S
C202 C200 1.353 . S
C202 C205 1.348 . S
C202 H250 0.929 . S
C203 C204 1.358 . S
C203 C205 1.356 . S
C203 H251 0.930 . S
C204 N201 1.279 . S
C204 C203 1.358 . S
C204 H207 0.930 . S
C205 C202 1.348 . S
C205 C203 1.356 . S
H206 C200 0.930 . S
H207 C204 0.930 . S
C208 C210 1.348 . S
C208 C211 1.356 . S
C208 O238 1.325 . S
N209 C212 1.314 . S
N209 C213 1.279 . S
C210 C208 1.348 . S
C210 C212 1.353 . S
C210 H252 0.929 . S
C211 C208 1.356 . S
C211 C213 1.358 . S
C211 H253 0.930 . S
C212 N209 1.314 . S
C212 C210 1.353 . S
C212 H254 0.930 . S
C213 N209 1.279 . S
C213 C211 1.358 . S
C213 H255 0.930 . S
C214 C215 1.348 . S
C214 C216 1.356 . S
C214 O239 1.325 . S
C215 C214 1.348 . S
C215 C217 1.353 . S
C215 H256 0.929 . S
C216 C214 1.356 . S
C216 C218 1.358 . S
C216 H257 0.930 . S
C217 C215 1.353 . S
C217 N219 1.314 . S
C217 H258 0.930 . S
C218 C216 1.358 . S
C218 N219 1.279 . S
C218 H259 0.930 . S
N219 C217 1.314 . S
N219 C218 1.279 . S
C220 C222 1.353 . S
C220 N223 1.320 . S
C220 H226 0.930 . S
C221 N223 1.277 1_655 S
C221 C224 1.358 . S
C221 H227 0.930 . S
C222 C220 1.353 . S
C222 C225 1.348 . S
C222 H260 0.929 . S
N223 Li178 1.990 . S
N223 C220 1.320 . S
N223 C221 1.277 1_455 S
C224 C221 1.358 . S
C224 C225 1.356 1_655 S
C224 H261 0.930 . S
C225 C222 1.348 . S
C225 C224 1.356 1_455 S
H226 C220 0.930 . S
H227 C221 0.930 . S
C228 N229 1.314 . S
C228 C230 1.353 . S
C228 H234 0.930 . S
N229 Li179 1.990 . S
N229 C228 1.314 . S
N229 C232 1.279 1_655 S
C230 C228 1.353 . S
C230 C233 1.348 . S
C230 H262 0.929 . S
C231 C232 1.363 1_655 S
C231 C233 1.367 . S
C231 H263 0.914 1_655 S
C232 N229 1.279 1_455 S
C232 C231 1.363 1_455 S
C232 H235 0.930 . S
C233 C230 1.348 . S
C233 C231 1.367 . S
H234 C228 0.930 . S
H235 C232 0.930 . S
O236 Li176 1.956 1_455 S
O236 Li177 1.970 . S
O236 Li178 1.957 . S
O236 C180 1.325 . S
O237 Li176 1.970 . S
O237 Li177 1.956 1_655 S
O237 Li179 1.961 . S
O237 C186 1.325 . S
O238 Li176 1.961 . S
O238 Li178 1.949 1_655 S
O238 Li179 1.970 . S
O238 C208 1.325 . S
O239 Li177 1.961 . S
O239 Li178 1.979 . S
O239 Li179 1.956 1_455 S
O239 C214 1.325 . S
H240 C182 0.929 . S
H241 C183 0.930 . S
H242 C184 0.930 . S
H243 C185 0.930 . S
H244 C187 0.930 . S
H245 C189 0.929 . S
H246 C190 0.930 . S
H247 C191 0.930 . S
H248 C194 0.930 . S
H249 C197 0.929 . S
H250 C202 0.929 . S
H251 C203 0.930 . S
H252 C210 0.929 . S
H253 C211 0.930 . S
H254 C212 0.930 . S
H255 C213 0.930 . S
H256 C215 0.929 . S
H257 C216 0.930 . S
H258 C217 0.930 . S
H259 C218 0.930 . S
H260 C222 0.929 . S
H261 C224 0.930 . S
H262 C230 0.929 . S
H263 C231 0.914 1_455 S
Li264 N281 1.990 . S
Li264 O324 1.956 . S
Li264 O325 1.970 . S
Li264 O326 1.961 . S
Li265 N289 1.990 . S
Li265 O324 1.970 . S
Li265 O325 1.956 . S
Li265 O327 1.961 . S
Li266 N311 1.990 . S
Li266 O324 1.961 . S
Li266 O326 1.956 . S
Li266 O327 1.970 . S
Li267 N317 1.990 . S
Li267 O325 1.961 . S
Li267 O326 1.970 . S
Li267 O327 1.956 . S
C268 C270 1.348 . S
C268 C271 1.356 . S
C268 O324 1.325 . S
N269 C272 1.314 . S
N269 C273 1.279 . S
C270 C268 1.348 . S
C270 C272 1.353 . S
C270 H328 0.929 . S
C271 C268 1.356 . S
C271 C273 1.358 . S
C271 H329 0.930 . S
C272 N269 1.314 . S
C272 C270 1.353 . S
C272 H330 0.930 . S
C273 N269 1.279 . S
C273 C271 1.358 . S
C273 H331 0.930 . S
C274 C277 1.348 . S
C274 C278 1.356 . S
C274 O325 1.325 . S
C275 N276 1.279 . S
C275 C278 1.358 . S
C275 H332 0.930 . S
N276 C275 1.279 . S
N276 C279 1.314 . S
C277 C274 1.348 . S
C277 C279 1.353 . S
C277 H333 0.929 . S
C278 C274 1.356 . S
C278 C275 1.358 . S
C278 H334 0.930 . S
C279 N276 1.314 . S
C279 C277 1.353 . S
C279 H335 0.930 . S
C280 N281 1.314 . S
C280 C285 1.353 . S
C280 H286 0.930 . S
N281 Li264 1.990 . S
N281 C280 1.314 . S
N281 C283 1.279 . S
C282 C283 1.358 . S
C282 C284 1.356 . S
C282 H336 0.930 . S
C283 N281 1.279 . S
C283 C282 1.358 . S
C283 H287 0.930 . S
C284 C282 1.356 . S
C284 C285 1.348 . S
C285 C280 1.353 . S
C285 C284 1.348 . S
C285 H337 0.929 . S
H286 C280 0.930 . S
H287 C283 0.930 . S
C288 N289 1.314 . S
C288 C290 1.353 . S
C288 H294 0.930 . S
N289 Li265 1.990 . S
N289 C288 1.314 . S
N289 C292 1.279 . S
C290 C288 1.353 . S
C290 C293 1.348 . S
C290 H338 0.929 . S
C291 C292 1.358 . S
C291 C293 1.356 . S
C291 H339 0.930 . S
C292 N289 1.279 . S
C292 C291 1.358 . S
C292 H295 0.930 . S
C293 C290 1.348 . S
C293 C291 1.356 . S
H294 C288 0.930 . S
H295 C292 0.930 . S
C296 C298 1.348 . S
C296 C299 1.356 . S
C296 O326 1.325 . S
N297 C300 1.314 . S
N297 C301 1.279 . S
C298 C296 1.348 . S
C298 C300 1.353 . S
C298 H340 0.929 . S
C299 C296 1.356 . S
C299 C301 1.358 . S
C299 H341 0.930 . S
C300 N297 1.314 . S
C300 C298 1.353 . S
C300 H342 0.930 . S
C301 N297 1.279 . S
C301 C299 1.358 . S
C301 H343 0.930 . S
C302 C303 1.348 . S
C302 C304 1.356 . S
C302 O327 1.325 . S
C303 C302 1.348 . S
C303 C305 1.353 . S
C303 H344 0.929 . S
C304 C302 1.356 . S
C304 C306 1.358 . S
C304 H345 0.930 . S
C305 C303 1.353 . S
C305 N307 1.314 . S
C305 H346 0.930 . S
C306 C304 1.358 . S
C306 N307 1.279 . S
C306 H347 0.930 . S
N307 C305 1.314 . S
N307 C306 1.279 . S
C308 C310 1.353 . S
C308 N311 1.314 . S
C308 H314 0.930 . S
C309 N311 1.279 . S
C309 C312 1.358 . S
C309 H315 0.930 . S
C310 C308 1.353 . S
C310 C313 1.348 . S
C310 H348 0.929 . S
N311 Li266 1.990 . S
N311 C308 1.314 . S
N311 C309 1.279 . S
C312 C309 1.358 . S
C312 C313 1.356 . S
C312 H349 0.930 . S
C313 C310 1.348 . S
C313 C312 1.356 . S
H314 C308 0.930 . S
H315 C309 0.930 . S
C316 N317 1.314 . S
C316 C318 1.353 . S
C316 H322 0.930 . S
N317 Li267 1.990 . S
N317 C316 1.314 . S
N317 C320 1.279 . S
C318 C316 1.353 . S
C318 C321 1.348 . S
C318 H350 0.929 . S
C319 C320 1.358 . S
C319 C321 1.356 . S
C319 H351 0.930 . S
C320 N317 1.279 . S
C320 C319 1.358 . S
C320 H323 0.930 . S
C321 C318 1.348 . S
C321 C319 1.356 . S
H322 C316 0.930 . S
H323 C320 0.930 . S
O324 Li264 1.956 . S
O324 Li265 1.970 . S
O324 Li266 1.961 . S
O324 C268 1.325 . S
O325 Li264 1.970 . S
O325 Li265 1.956 . S
O325 Li267 1.961 . S
O325 C274 1.325 . S
O326 Li264 1.961 . S
O326 Li266 1.956 . S
O326 Li267 1.970 . S
O326 C296 1.325 . S
O327 Li265 1.961 . S
O327 Li266 1.970 . S
O327 Li267 1.956 . S
O327 C302 1.325 . S
H328 C270 0.929 . S
H329 C271 0.930 . S
H330 C272 0.930 . S
H331 C273 0.930 . S
H332 C275 0.930 . S
H333 C277 0.929 . S
H334 C278 0.930 . S
H335 C279 0.930 . S
H336 C282 0.930 . S
H337 C285 0.929 . S
H338 C290 0.929 . S
H339 C291 0.930 . S
H340 C298 0.929 . S
H341 C299 0.930 . S
H342 C300 0.930 . S
H343 C301 0.930 . S
H344 C303 0.929 . S
H345 C304 0.930 . S
H346 C305 0.930 . S
H347 C306 0.930 . S
H348 C310 0.929 . S
H349 C312 0.930 . S
H350 C318 0.929 . S
H351 C319 0.930 . S
Li352 N369 1.990 . S
Li352 O412 1.956 1_565 S
Li352 O413 1.970 . S
Li352 O414 1.961 . S
Li353 N377 1.990 . S
Li353 O412 1.979 . S
Li353 O413 1.949 1_545 S
Li353 O415 1.957 . S
Li354 N399 1.990 . S
Li354 O412 1.961 . S
Li354 O414 1.956 1_545 S
Li354 O415 1.970 . S
Li355 N405 1.990 . S
Li355 O413 1.961 . S
Li355 O414 1.970 . S
Li355 O415 1.956 1_565 S
C356 C358 1.348 . S
C356 C359 1.356 . S
C356 O412 1.325 . S
N357 C360 1.314 . S
N357 C361 1.279 . S
C358 C356 1.348 . S
C358 C360 1.353 . S
C358 H416 0.929 . S
C359 C356 1.356 . S
C359 C361 1.358 . S
C359 H417 0.930 . S
C360 N357 1.314 . S
C360 C358 1.353 . S
C360 H418 0.930 . S
C361 N357 1.279 . S
C361 C359 1.358 . S
C361 H419 0.930 . S
C362 C365 1.348 . S
C362 C366 1.356 . S
C362 O413 1.325 . S
C363 N364 1.279 . S
C363 C366 1.358 . S
C363 H420 0.930 . S
N364 C363 1.279 . S
N364 C367 1.314 . S
C365 C362 1.348 . S
C365 C367 1.353 . S
C365 H421 0.929 . S
C366 C362 1.356 . S
C366 C363 1.358 . S
C366 H422 0.930 . S
C367 N364 1.314 . S
C367 C365 1.353 . S
C367 H423 0.930 . S
C368 N369 1.314 . S
C368 C373 1.353 . S
C368 H374 0.930 . S
N369 Li352 1.990 . S
N369 C368 1.314 . S
N369 C371 1.279 1_565 S
C370 C371 1.363 1_565 S
C370 C372 1.367 . S
C370 H424 0.914 1_565 S
C371 N369 1.279 1_545 S
C371 C370 1.363 1_545 S
C371 H375 0.930 . S
C372 C370 1.367 . S
C372 C373 1.348 . S
C373 C368 1.353 . S
C373 C372 1.348 . S
C373 H425 0.929 . S
H374 C368 0.930 . S
H375 C371 0.930 . S
C376 N377 1.320 . S
C376 C378 1.353 . S
C376 H382 0.930 . S
N377 Li353 1.990 . S
N377 C376 1.320 . S
N377 C380 1.277 1_545 S
C378 C376 1.353 . S
C378 C381 1.348 . S
C378 H426 0.929 . S
C379 C380 1.358 . S
C379 C381 1.356 1_565 S
C379 H427 0.930 . S
C380 N377 1.277 1_565 S
C380 C379 1.358 . S
C380 H383 0.930 . S
C381 C378 1.348 . S
C381 C379 1.356 1_545 S
H382 C376 0.930 . S
H383 C380 0.930 . S
C384 C386 1.348 . S
C384 C387 1.356 1_565 S
C384 O414 1.325 . S
N385 C388 1.314 . S
N385 C389 1.279 1_565 S
C386 C384 1.348 . S
C386 C388 1.353 . S
C386 H428 0.929 . S
C387 C384 1.356 1_545 S
C387 C389 1.358 . S
C387 H429 0.930 . S
C388 N385 1.314 . S
C388 C386 1.353 . S
C388 H430 0.930 . S
C389 N385 1.279 1_545 S
C389 C387 1.358 . S
C389 H431 0.930 . S
C390 C391 1.348 . S
C390 C392 1.356 1_545 S
C390 O415 1.325 . S
C391 C390 1.348 . S
C391 C393 1.353 . S
C391 H432 0.929 . S
C392 C390 1.356 1_565 S
C392 C394 1.358 . S
C392 H433 0.930 . S
C393 C391 1.353 . S
C393 N395 1.314 . S
C393 H434 0.930 . S
C394 C392 1.358 . S
C394 N395 1.279 1_565 S
C394 H435 0.930 . S
N395 C393 1.314 . S
N395 C394 1.279 1_545 S
C396 C398 1.353 . S
C396 N399 1.314 . S
C396 H402 0.930 . S
C397 N399 1.279 . S
C397 C400 1.358 . S
C397 H403 0.930 . S
C398 C396 1.353 . S
C398 C401 1.348 . S
C398 H436 0.929 . S
N399 Li354 1.990 . S
N399 C396 1.314 . S
N399 C397 1.279 . S
C400 C397 1.358 . S
C400 C401 1.356 . S
C400 H437 0.930 . S
C401 C398 1.348 . S
C401 C400 1.356 . S
H402 C396 0.930 . S
H403 C397 0.930 . S
C404 N405 1.314 . S
C404 C406 1.353 . S
C404 H410 0.930 . S
N405 Li355 1.990 . S
N405 C404 1.314 . S
N405 C408 1.279 . S
C406 C404 1.353 . S
C406 C409 1.348 . S
C406 H438 0.929 . S
C407 C408 1.358 . S
C407 C409 1.356 . S
C407 H439 0.930 . S
C408 N405 1.279 . S
C408 C407 1.358 . S
C408 H411 0.930 . S
C409 C406 1.348 . S
C409 C407 1.356 . S
H410 C404 0.930 . S
H411 C408 0.930 . S
O412 Li352 1.956 1_545 S
O412 Li353 1.979 . S
O412 Li354 1.961 . S
O412 C356 1.325 . S
O413 Li352 1.970 . S
O413 Li353 1.949 1_565 S
O413 Li355 1.961 . S
O413 C362 1.325 . S
O414 Li352 1.961 . S
O414 Li354 1.956 1_565 S
O414 Li355 1.970 . S
O414 C384 1.325 . S
O415 Li353 1.957 . S
O415 Li354 1.970 . S
O415 Li355 1.956 1_545 S
O415 C390 1.325 . S
H416 C358 0.929 . S
H417 C359 0.930 . S
H418 C360 0.930 . S
H419 C361 0.930 . S
H420 C363 0.930 . S
H421 C365 0.929 . S
H422 C366 0.930 . S
H423 C367 0.930 . S
H424 C370 0.914 1_545 S
H425 C373 0.929 . S
H426 C378 0.929 . S
H427 C379 0.930 . S
H428 C386 0.929 . S
H429 C387 0.930 . S
H430 C388 0.930 . S
H431 C389 0.930 . S
H432 C391 0.929 . S
H433 C392 0.930 . S
H434 C393 0.930 . S
H435 C394 0.930 . S
H436 C398 0.929 . S
H437 C400 0.930 . S
H438 C406 0.929 . S
H439 C407 0.930 . S
Li440 N457 1.990 . S
Li440 O500 1.956 1_455 S
Li440 O501 1.970 . S
Li440 O502 1.961 . S
Li441 N465 1.990 . S
Li441 O500 1.970 . S
Li441 O501 1.956 1_655 S
Li441 O503 1.961 . S
Li442 N487 1.991 . S
Li442 O500 1.969 . S
Li442 O502 1.946 1_655 S
Li442 O503 1.976 . S
Li443 N493 1.990 . S
Li443 O501 1.961 . S
Li443 O502 1.970 . S
Li443 O503 1.956 1_455 S
C444 C446 1.348 . S
C444 C447 1.356 1_655 S
C444 O500 1.325 . S
N445 C448 1.314 . S
N445 C449 1.279 1_655 S
C446 C444 1.348 . S
C446 C448 1.353 . S
C446 H504 0.929 . S
C447 C444 1.356 1_455 S
C447 C449 1.358 . S
C447 H505 0.930 . S
C448 N445 1.314 . S
C448 C446 1.353 . S
C448 H506 0.930 . S
C449 N445 1.279 1_455 S
C449 C447 1.358 . S
C449 H507 0.930 . S
C450 C453 1.348 . S
C450 C454 1.356 1_455 S
C450 O501 1.325 . S
C451 N452 1.279 1_655 S
C451 C454 1.358 . S
C451 H508 0.930 . S
N452 C451 1.279 1_455 S
N452 C455 1.314 . S
C453 C450 1.348 . S
C453 C455 1.353 . S
C453 H509 0.929 . S
C454 C450 1.356 1_655 S
C454 C451 1.358 . S
C454 H510 0.930 . S
C455 N452 1.314 . S
C455 C453 1.353 . S
C455 H511 0.930 . S
C456 N457 1.314 . S
C456 C461 1.353 . S
C456 H462 0.930 . S
N457 Li440 1.990 . S
N457 C456 1.314 . S
N457 C459 1.279 . S
C458 C459 1.358 . S
C458 C460 1.356 . S
C458 H512 0.930 . S
C459 N457 1.279 . S
C459 C458 1.358 . S
C459 H463 0.930 . S
C460 C458 1.356 . S
C460 C461 1.348 . S
C461 C456 1.353 . S
C461 C460 1.348 . S
C461 H513 0.929 . S
H462 C456 0.930 . S
H463 C459 0.930 . S
C464 N465 1.314 . S
C464 C466 1.353 . S
C464 H470 0.930 . S
N465 Li441 1.990 . S
N465 C464 1.314 . S
N465 C468 1.279 . S
C466 C464 1.353 . S
C466 C469 1.348 . S
C466 H514 0.929 . S
C467 C468 1.358 . S
C467 C469 1.356 . S
C467 H515 0.930 . S
C468 N465 1.279 . S
C468 C467 1.358 . S
C468 H471 0.930 . S
C469 C466 1.348 . S
C469 C467 1.356 . S
H470 C464 0.930 . S
H471 C468 0.930 . S
C472 C474 1.348 . S
C472 C475 1.356 . S
C472 O502 1.325 . S
N473 C476 1.314 . S
N473 C477 1.279 . S
C474 C472 1.348 . S
C474 C476 1.353 . S
C474 H516 0.929 . S
C475 C472 1.356 . S
C475 C477 1.358 . S
C475 H517 0.930 . S
C476 N473 1.314 . S
C476 C474 1.353 . S
C476 H518 0.930 . S
C477 N473 1.279 . S
C477 C475 1.358 . S
C477 H519 0.930 . S
C478 C479 1.348 . S
C478 C480 1.356 . S
C478 O503 1.325 . S
C479 C478 1.348 . S
C479 C481 1.353 . S
C479 H520 0.929 . S
C480 C478 1.356 . S
C480 C482 1.358 . S
C480 H521 0.930 . S
C481 C479 1.353 . S
C481 N483 1.314 . S
C481 H522 0.930 . S
C482 C480 1.358 . S
C482 N483 1.279 . S
C482 H523 0.930 . S
N483 C481 1.314 . S
N483 C482 1.279 . S
C484 C486 1.353 . S
C484 N487 1.328 . S
C484 H490 0.930 . S
C485 N487 1.264 1_455 S
C485 C488 1.358 . S
C485 H491 0.930 . S
C486 C484 1.353 . S
C486 C489 1.348 . S
C486 H524 0.929 . S
N487 Li442 1.991 . S
N487 C484 1.328 . S
N487 C485 1.264 1_655 S
C488 C485 1.358 . S
C488 C489 1.356 1_455 S
C488 H525 0.930 . S
C489 C486 1.348 . S
C489 C488 1.356 1_655 S
H490 C484 0.930 . S
H491 C485 0.930 . S
C492 N493 1.314 . S
C492 C494 1.353 . S
C492 H498 0.930 . S
N493 Li443 1.990 . S
N493 C492 1.314 . S
N493 C496 1.279 1_455 S
C494 C492 1.353 . S
C494 C497 1.348 . S
C494 H526 0.929 . S
C495 C496 1.372 . S
C495 C497 1.341 1_655 S
C495 H527 0.932 . S
C496 N493 1.279 1_655 S
C496 C495 1.372 . S
C496 H499 0.930 . S
C497 C494 1.348 . S
C497 C495 1.341 1_455 S
H498 C492 0.930 . S
H499 C496 0.930 . S
O500 Li440 1.956 1_655 S
O500 Li441 1.970 . S
O500 Li442 1.969 . S
O500 C444 1.325 . S
O501 Li440 1.970 . S
O501 Li441 1.956 1_455 S
O501 Li443 1.961 . S
O501 C450 1.325 . S
O502 Li440 1.961 . S
O502 Li442 1.946 1_455 S
O502 Li443 1.970 . S
O502 C472 1.325 . S
O503 Li441 1.961 . S
O503 Li442 1.976 . S
O503 Li443 1.956 1_655 S
O503 C478 1.325 . S
H504 C446 0.929 . S
H505 C447 0.930 . S
H506 C448 0.930 . S
H507 C449 0.930 . S
H508 C451 0.930 . S
H509 C453 0.929 . S
H510 C454 0.930 . S
H511 C455 0.930 . S
H512 C458 0.930 . S
H513 C461 0.929 . S
H514 C466 0.929 . S
H515 C467 0.930 . S
H516 C474 0.929 . S
H517 C475 0.930 . S
H518 C476 0.930 . S
H519 C477 0.930 . S
H520 C479 0.929 . S
H521 C480 0.930 . S
H522 C481 0.930 . S
H523 C482 0.930 . S
H524 C486 0.929 . S
H525 C488 0.930 . S
H526 C494 0.929 . S
H527 C495 0.932 . S
Li528 N545 1.990 . S
Li528 O588 1.956 . S
Li528 O589 1.970 . S
Li528 O590 1.961 . S
Li529 N553 1.990 . S
Li529 O588 1.970 . S
Li529 O589 1.956 . S
Li529 O591 1.961 . S
Li530 N575 1.990 . S
Li530 O588 1.961 . S
Li530 O590 1.956 . S
Li530 O591 1.970 . S
Li531 N581 1.990 . S
Li531 O589 1.961 . S
Li531 O590 1.970 . S
Li531 O591 1.956 . S
C532 C534 1.348 . S
C532 C535 1.356 . S
C532 O588 1.325 . S
N533 C536 1.314 . S
N533 C537 1.279 . S
C534 C532 1.348 . S
C534 C536 1.353 . S
C534 H592 0.929 . S
C535 C532 1.356 . S
C535 C537 1.358 . S
C535 H593 0.930 . S
C536 N533 1.314 . S
C536 C534 1.353 . S
C536 H594 0.930 . S
C537 N533 1.279 . S
C537 C535 1.358 . S
C537 H595 0.930 . S
C538 C541 1.348 . S
C538 C542 1.356 . S
C538 O589 1.325 . S
C539 N540 1.279 . S
C539 C542 1.358 . S
C539 H596 0.930 . S
N540 C539 1.279 . S
N540 C543 1.314 . S
C541 C538 1.348 . S
C541 C543 1.353 . S
C541 H597 0.929 . S
C542 C538 1.356 . S
C542 C539 1.358 . S
C542 H598 0.930 . S
C543 N540 1.314 . S
C543 C541 1.353 . S
C543 H599 0.930 . S
C544 N545 1.314 . S
C544 C549 1.353 . S
C544 H550 0.930 . S
N545 Li528 1.990 . S
N545 C544 1.314 . S
N545 C547 1.279 . S
C546 C547 1.358 . S
C546 C548 1.356 . S
C546 H600 0.930 . S
C547 N545 1.279 . S
C547 C546 1.358 . S
C547 H551 0.930 . S
C548 C546 1.356 . S
C548 C549 1.348 . S
C549 C544 1.353 . S
C549 C548 1.348 . S
C549 H601 0.929 . S
H550 C544 0.930 . S
H551 C547 0.930 . S
C552 N553 1.314 . S
C552 C554 1.353 . S
C552 H558 0.930 . S
N553 Li529 1.990 . S
N553 C552 1.314 . S
N553 C556 1.279 . S
C554 C552 1.353 . S
C554 C557 1.348 . S
C554 H602 0.929 . S
C555 C556 1.358 . S
C555 C557 1.356 . S
C555 H603 0.930 . S
C556 N553 1.279 . S
C556 C555 1.358 . S
C556 H559 0.930 . S
C557 C554 1.348 . S
C557 C555 1.356 . S
H558 C552 0.930 . S
H559 C556 0.930 . S
C560 C562 1.348 . S
C560 C563 1.356 . S
C560 O590 1.325 . S
N561 C564 1.314 . S
N561 C565 1.279 . S
C562 C560 1.348 . S
C562 C564 1.353 . S
C562 H604 0.929 . S
C563 C560 1.356 . S
C563 C565 1.358 . S
C563 H605 0.930 . S
C564 N561 1.314 . S
C564 C562 1.353 . S
C564 H606 0.930 . S
C565 N561 1.279 . S
C565 C563 1.358 . S
C565 H607 0.930 . S
C566 C567 1.348 . S
C566 C568 1.356 . S
C566 O591 1.325 . S
C567 C566 1.348 . S
C567 C569 1.353 . S
C567 H608 0.929 . S
C568 C566 1.356 . S
C568 C570 1.358 . S
C568 H609 0.930 . S
C569 C567 1.353 . S
C569 N571 1.314 . S
C569 H610 0.930 . S
C570 C568 1.358 . S
C570 N571 1.279 . S
C570 H611 0.930 . S
N571 C569 1.314 . S
N571 C570 1.279 . S
C572 C574 1.353 . S
C572 N575 1.314 . S
C572 H578 0.930 . S
C573 N575 1.279 . S
C573 C576 1.358 . S
C573 H579 0.930 . S
C574 C572 1.353 . S
C574 C577 1.348 . S
C574 H612 0.929 . S
N575 Li530 1.990 . S
N575 C572 1.314 . S
N575 C573 1.279 . S
C576 C573 1.358 . S
C576 C577 1.356 . S
C576 H613 0.930 . S
C577 C574 1.348 . S
C577 C576 1.356 . S
H578 C572 0.930 . S
H579 C573 0.930 . S
C580 N581 1.314 . S
C580 C582 1.353 . S
C580 H586 0.930 . S
N581 Li531 1.990 . S
N581 C580 1.314 . S
N581 C584 1.279 . S
C582 C580 1.353 . S
C582 C585 1.348 . S
C582 H614 0.929 . S
C583 C584 1.358 . S
C583 C585 1.356 . S
C583 H615 0.930 . S
C584 N581 1.279 . S
C584 C583 1.358 . S
C584 H587 0.930 . S
C585 C582 1.348 . S
C585 C583 1.356 . S
H586 C580 0.930 . S
H587 C584 0.930 . S
O588 Li528 1.956 . S
O588 Li529 1.970 . S
O588 Li530 1.961 . S
O588 C532 1.325 . S
O589 Li528 1.970 . S
O589 Li529 1.956 . S
O589 Li531 1.961 . S
O589 C538 1.325 . S
O590 Li528 1.961 . S
O590 Li530 1.956 . S
O590 Li531 1.970 . S
O590 C560 1.325 . S
O591 Li529 1.961 . S
O591 Li530 1.970 . S
O591 Li531 1.956 . S
O591 C566 1.325 . S
H592 C534 0.929 . S
H593 C535 0.930 . S
H594 C536 0.930 . S
H595 C537 0.930 . S
H596 C539 0.930 . S
H597 C541 0.929 . S
H598 C542 0.930 . S
H599 C543 0.930 . S
H600 C546 0.930 . S
H601 C549 0.929 . S
H602 C554 0.929 . S
H603 C555 0.930 . S
H604 C562 0.929 . S
H605 C563 0.930 . S
H606 C564 0.930 . S
H607 C565 0.930 . S
H608 C567 0.929 . S
H609 C568 0.930 . S
H610 C569 0.930 . S
H611 C570 0.930 . S
H612 C574 0.929 . S
H613 C576 0.930 . S
H614 C582 0.929 . S
H615 C583 0.930 . S
Li616 N633 1.990 . S
Li616 O676 1.956 . S
Li616 O677 1.970 . S
Li616 O678 1.961 . S
Li617 N641 1.990 . S
Li617 O676 1.970 . S
Li617 O677 1.956 . S
Li617 O679 1.961 . S
Li618 N663 1.990 . S
Li618 O676 1.961 . S
Li618 O678 1.956 . S
Li618 O679 1.970 . S
Li619 N669 1.990 . S
Li619 O677 1.961 . S
Li619 O678 1.970 . S
Li619 O679 1.956 . S
C620 C622 1.348 . S
C620 C623 1.356 . S
C620 O676 1.325 . S
N621 C624 1.314 . S
N621 C625 1.279 . S
C622 C620 1.348 . S
C622 C624 1.353 . S
C622 H680 0.929 . S
C623 C620 1.356 . S
C623 C625 1.358 . S
C623 H681 0.930 . S
C624 N621 1.314 . S
C624 C622 1.353 . S
C624 H682 0.930 . S
C625 N621 1.279 . S
C625 C623 1.358 . S
C625 H683 0.930 . S
C626 C629 1.348 . S
C626 C630 1.356 . S
C626 O677 1.325 . S
C627 N628 1.279 . S
C627 C630 1.358 . S
C627 H684 0.930 . S
N628 C627 1.279 . S
N628 C631 1.314 . S
C629 C626 1.348 . S
C629 C631 1.353 . S
C629 H685 0.929 . S
C630 C626 1.356 . S
C630 C627 1.358 . S
C630 H686 0.930 . S
C631 N628 1.314 . S
C631 C629 1.353 . S
C631 H687 0.930 . S
C632 N633 1.314 . S
C632 C637 1.353 . S
C632 H638 0.930 . S
N633 Li616 1.990 . S
N633 C632 1.314 . S
N633 C635 1.279 . S
C634 C635 1.358 . S
C634 C636 1.356 . S
C634 H688 0.930 . S
C635 N633 1.279 . S
C635 C634 1.358 . S
C635 H639 0.930 . S
C636 C634 1.356 . S
C636 C637 1.348 . S
C637 C632 1.353 . S
C637 C636 1.348 . S
C637 H689 0.929 . S
H638 C632 0.930 . S
H639 C635 0.930 . S
C640 N641 1.314 . S
C640 C642 1.353 . S
C640 H646 0.930 . S
N641 Li617 1.990 . S
N641 C640 1.314 . S
N641 C644 1.279 . S
C642 C640 1.353 . S
C642 C645 1.348 . S
C642 H690 0.929 . S
C643 C644 1.358 . S
C643 C645 1.356 . S
C643 H691 0.930 . S
C644 N641 1.279 . S
C644 C643 1.358 . S
C644 H647 0.930 . S
C645 C642 1.348 . S
C645 C643 1.356 . S
H646 C640 0.930 . S
H647 C644 0.930 . S
C648 C650 1.348 . S
C648 C651 1.356 . S
C648 O678 1.325 . S
N649 C652 1.314 . S
N649 C653 1.279 . S
C650 C648 1.348 . S
C650 C652 1.353 . S
C650 H692 0.929 . S
C651 C648 1.356 . S
C651 C653 1.358 . S
C651 H693 0.930 . S
C652 N649 1.314 . S
C652 C650 1.353 . S
C652 H694 0.930 . S
C653 N649 1.279 . S
C653 C651 1.358 . S
C653 H695 0.930 . S
C654 C655 1.348 . S
C654 C656 1.356 . S
C654 O679 1.325 . S
C655 C654 1.348 . S
C655 C657 1.353 . S
C655 H696 0.929 . S
C656 C654 1.356 . S
C656 C658 1.358 . S
C656 H697 0.930 . S
C657 C655 1.353 . S
C657 N659 1.314 . S
C657 H698 0.930 . S
C658 C656 1.358 . S
C658 N659 1.279 . S
C658 H699 0.930 . S
N659 C657 1.314 . S
N659 C658 1.279 . S
C660 C662 1.353 . S
C660 N663 1.314 . S
C660 H666 0.930 . S
C661 N663 1.279 . S
C661 C664 1.358 . S
C661 H667 0.930 . S
C662 C660 1.353 . S
C662 C665 1.348 . S
C662 H700 0.929 . S
N663 Li618 1.990 . S
N663 C660 1.314 . S
N663 C661 1.279 . S
C664 C661 1.358 . S
C664 C665 1.356 . S
C664 H701 0.930 . S
C665 C662 1.348 . S
C665 C664 1.356 . S
H666 C660 0.930 . S
H667 C661 0.930 . S
C668 N669 1.314 . S
C668 C670 1.353 . S
C668 H674 0.930 . S
N669 Li619 1.990 . S
N669 C668 1.314 . S
N669 C672 1.279 . S
C670 C668 1.353 . S
C670 C673 1.348 . S
C670 H702 0.929 . S
C671 C672 1.358 . S
C671 C673 1.356 . S
C671 H703 0.930 . S
C672 N669 1.279 . S
C672 C671 1.358 . S
C672 H675 0.930 . S
C673 C670 1.348 . S
C673 C671 1.356 . S
H674 C668 0.930 . S
H675 C672 0.930 . S
O676 Li616 1.956 . S
O676 Li617 1.970 . S
O676 Li618 1.961 . S
O676 C620 1.325 . S
O677 Li616 1.970 . S
O677 Li617 1.956 . S
O677 Li619 1.961 . S
O677 C626 1.325 . S
O678 Li616 1.961 . S
O678 Li618 1.956 . S
O678 Li619 1.970 . S
O678 C648 1.325 . S
O679 Li617 1.961 . S
O679 Li618 1.970 . S
O679 Li619 1.956 . S
O679 C654 1.325 . S
H680 C622 0.929 . S
H681 C623 0.930 . S
H682 C624 0.930 . S
H683 C625 0.930 . S
H684 C627 0.930 . S
H685 C629 0.929 . S
H686 C630 0.930 . S
H687 C631 0.930 . S
H688 C634 0.930 . S
H689 C637 0.929 . S
H690 C642 0.929 . S
H691 C643 0.930 . S
H692 C650 0.929 . S
H693 C651 0.930 . S
H694 C652 0.930 . S
H695 C653 0.930 . S
H696 C655 0.929 . S
H697 C656 0.930 . S
H698 C657 0.930 . S
H699 C658 0.930 . S
H700 C662 0.929 . S
H701 C664 0.930 . S
H702 C670 0.929 . S
H703 C671 0.930 . S
Li704 N721 1.990 . S
Li704 O764 1.956 . S
Li704 O765 1.970 . S
Li704 O766 1.961 . S
Li705 N729 1.990 . S
Li705 O764 1.970 . S
Li705 O765 1.956 . S
Li705 O767 1.961 . S
Li706 N751 1.990 . S
Li706 O764 1.961 . S
Li706 O766 1.956 . S
Li706 O767 1.970 . S
Li707 N757 1.990 . S
Li707 O765 1.961 . S
Li707 O766 1.970 . S
Li707 O767 1.956 . S
C708 C710 1.348 . S
C708 C711 1.356 . S
C708 O764 1.325 . S
N709 C712 1.314 . S
N709 C713 1.279 . S
C710 C708 1.348 . S
C710 C712 1.353 . S
C710 H768 0.929 . S
C711 C708 1.356 . S
C711 C713 1.358 . S
C711 H769 0.930 . S
C712 N709 1.314 . S
C712 C710 1.353 . S
C712 H770 0.930 . S
C713 N709 1.279 . S
C713 C711 1.358 . S
C713 H771 0.930 . S
C714 C717 1.348 . S
C714 C718 1.356 . S
C714 O765 1.325 . S
C715 N716 1.279 . S
C715 C718 1.358 . S
C715 H772 0.930 . S
N716 C715 1.279 . S
N716 C719 1.314 . S
C717 C714 1.348 . S
C717 C719 1.353 . S
C717 H773 0.929 . S
C718 C714 1.356 . S
C718 C715 1.358 . S
C718 H774 0.930 . S
C719 N716 1.314 . S
C719 C717 1.353 . S
C719 H775 0.930 . S
C720 N721 1.314 . S
C720 C725 1.353 . S
C720 H726 0.930 . S
N721 Li704 1.990 . S
N721 C720 1.314 . S
N721 C723 1.279 . S
C722 C723 1.358 . S
C722 C724 1.356 . S
C722 H776 0.930 . S
C723 N721 1.279 . S
C723 C722 1.358 . S
C723 H727 0.930 . S
C724 C722 1.356 . S
C724 C725 1.348 . S
C725 C720 1.353 . S
C725 C724 1.348 . S
C725 H777 0.929 . S
H726 C720 0.930 . S
H727 C723 0.930 . S
C728 N729 1.314 . S
C728 C730 1.353 . S
C728 H734 0.930 . S
N729 Li705 1.990 . S
N729 C728 1.314 . S
N729 C732 1.279 . S
C730 C728 1.353 . S
C730 C733 1.348 . S
C730 H778 0.929 . S
C731 C732 1.358 . S
C731 C733 1.356 . S
C731 H779 0.930 . S
C732 N729 1.279 . S
C732 C731 1.358 . S
C732 H735 0.930 . S
C733 C730 1.348 . S
C733 C731 1.356 . S
H734 C728 0.930 . S
H735 C732 0.930 . S
C736 C738 1.348 . S
C736 C739 1.356 . S
C736 O766 1.325 . S
N737 C740 1.314 . S
N737 C741 1.279 . S
C738 C736 1.348 . S
C738 C740 1.353 . S
C738 H780 0.929 . S
C739 C736 1.356 . S
C739 C741 1.358 . S
C739 H781 0.930 . S
C740 N737 1.314 . S
C740 C738 1.353 . S
C740 H782 0.930 . S
C741 N737 1.279 . S
C741 C739 1.358 . S
C741 H783 0.930 . S
C742 C743 1.348 . S
C742 C744 1.356 . S
C742 O767 1.325 . S
C743 C742 1.348 . S
C743 C745 1.353 . S
C743 H784 0.929 . S
C744 C742 1.356 . S
C744 C746 1.358 . S
C744 H785 0.930 . S
C745 C743 1.353 . S
C745 N747 1.314 . S
C745 H786 0.930 . S
C746 C744 1.358 . S
C746 N747 1.279 . S
C746 H787 0.930 . S
N747 C745 1.314 . S
N747 C746 1.279 . S
C748 C750 1.353 . S
C748 N751 1.314 . S
C748 H754 0.930 . S
C749 N751 1.279 . S
C749 C752 1.358 . S
C749 H755 0.930 . S
C750 C748 1.353 . S
C750 C753 1.348 . S
C750 H788 0.929 . S
N751 Li706 1.990 . S
N751 C748 1.314 . S
N751 C749 1.279 . S
C752 C749 1.358 . S
C752 C753 1.356 . S
C752 H789 0.930 . S
C753 C750 1.348 . S
C753 C752 1.356 . S
H754 C748 0.930 . S
H755 C749 0.930 . S
C756 N757 1.314 . S
C756 C758 1.353 . S
C756 H762 0.930 . S
N757 Li707 1.990 . S
N757 C756 1.314 . S
N757 C760 1.279 . S
C758 C756 1.353 . S
C758 C761 1.348 . S
C758 H790 0.929 . S
C759 C760 1.358 . S
C759 C761 1.356 . S
C759 H791 0.930 . S
C760 N757 1.279 . S
C760 C759 1.358 . S
C760 H763 0.930 . S
C761 C758 1.348 . S
C761 C759 1.356 . S
H762 C756 0.930 . S
H763 C760 0.930 . S
O764 Li704 1.956 . S
O764 Li705 1.970 . S
O764 Li706 1.961 . S
O764 C708 1.325 . S
O765 Li704 1.970 . S
O765 Li705 1.956 . S
O765 Li707 1.961 . S
O765 C714 1.325 . S
O766 Li704 1.961 . S
O766 Li706 1.956 . S
O766 Li707 1.970 . S
O766 C736 1.325 . S
O767 Li705 1.961 . S
O767 Li706 1.970 . S
O767 Li707 1.956 . S
O767 C742 1.325 . S
H768 C710 0.929 . S
H769 C711 0.930 . S
H770 C712 0.930 . S
H771 C713 0.930 . S
H772 C715 0.930 . S
H773 C717 0.929 . S
H774 C718 0.930 . S
H775 C719 0.930 . S
H776 C722 0.930 . S
H777 C725 0.929 . S
H778 C730 0.929 . S
H779 C731 0.930 . S
H780 C738 0.929 . S
H781 C739 0.930 . S
H782 C740 0.930 . S
H783 C741 0.930 . S
H784 C743 0.929 . S
H785 C744 0.930 . S
H786 C745 0.930 . S
H787 C746 0.930 . S
H788 C750 0.929 . S
H789 C752 0.930 . S
H790 C758 0.929 . S
H791 C759 0.930 . S
Li792 N809 1.990 . S
Li792 O852 1.956 . S
Li792 O853 1.970 . S
Li792 O854 1.961 . S
Li793 N817 1.990 . S
Li793 O852 1.970 . S
Li793 O853 1.956 . S
Li793 O855 1.961 . S
Li794 N839 1.990 . S
Li794 O852 1.961 . S
Li794 O854 1.956 . S
Li794 O855 1.970 . S
Li795 N845 1.990 . S
Li795 O853 1.961 . S
Li795 O854 1.970 . S
Li795 O855 1.956 . S
C796 C798 1.348 . S
C796 C799 1.356 . S
C796 O852 1.325 . S
N797 C800 1.314 . S
N797 C801 1.279 . S
C798 C796 1.348 . S
C798 C800 1.353 . S
C798 H856 0.929 . S
C799 C796 1.356 . S
C799 C801 1.358 . S
C799 H857 0.930 . S
C800 N797 1.314 . S
C800 C798 1.353 . S
C800 H858 0.930 . S
C801 N797 1.279 . S
C801 C799 1.358 . S
C801 H859 0.930 . S
C802 C805 1.348 . S
C802 C806 1.356 . S
C802 O853 1.325 . S
C803 N804 1.279 . S
C803 C806 1.358 . S
C803 H860 0.930 . S
N804 C803 1.279 . S
N804 C807 1.314 . S
C805 C802 1.348 . S
C805 C807 1.353 . S
C805 H861 0.929 . S
C806 C802 1.356 . S
C806 C803 1.358 . S
C806 H862 0.930 . S
C807 N804 1.314 . S
C807 C805 1.353 . S
C807 H863 0.930 . S
C808 N809 1.314 . S
C808 C813 1.353 . S
C808 H814 0.930 . S
N809 Li792 1.990 . S
N809 C808 1.314 . S
N809 C811 1.279 . S
C810 C811 1.358 . S
C810 C812 1.356 . S
C810 H864 0.930 . S
C811 N809 1.279 . S
C811 C810 1.358 . S
C811 H815 0.930 . S
C812 C810 1.356 . S
C812 C813 1.348 . S
C813 C808 1.353 . S
C813 C812 1.348 . S
C813 H865 0.929 . S
H814 C808 0.930 . S
H815 C811 0.930 . S
C816 N817 1.314 . S
C816 C818 1.353 . S
C816 H822 0.930 . S
N817 Li793 1.990 . S
N817 C816 1.314 . S
N817 C820 1.279 . S
C818 C816 1.353 . S
C818 C821 1.348 . S
C818 H866 0.929 . S
C819 C820 1.358 . S
C819 C821 1.356 . S
C819 H867 0.930 . S
C820 N817 1.279 . S
C820 C819 1.358 . S
C820 H823 0.930 . S
C821 C818 1.348 . S
C821 C819 1.356 . S
H822 C816 0.930 . S
H823 C820 0.930 . S
C824 C826 1.348 . S
C824 C827 1.356 . S
C824 O854 1.325 . S
N825 C828 1.314 . S
N825 C829 1.279 . S
C826 C824 1.348 . S
C826 C828 1.353 . S
C826 H868 0.929 . S
C827 C824 1.356 . S
C827 C829 1.358 . S
C827 H869 0.930 . S
C828 N825 1.314 . S
C828 C826 1.353 . S
C828 H870 0.930 . S
C829 N825 1.279 . S
C829 C827 1.358 . S
C829 H871 0.930 . S
C830 C831 1.348 . S
C830 C832 1.356 . S
C830 O855 1.325 . S
C831 C830 1.348 . S
C831 C833 1.353 . S
C831 H872 0.929 . S
C832 C830 1.356 . S
C832 C834 1.358 . S
C832 H873 0.930 . S
C833 C831 1.353 . S
C833 N835 1.314 . S
C833 H874 0.930 . S
C834 C832 1.358 . S
C834 N835 1.279 . S
C834 H875 0.930 . S
N835 C833 1.314 . S
N835 C834 1.279 . S
C836 C838 1.353 . S
C836 N839 1.314 . S
C836 H842 0.930 . S
C837 N839 1.279 . S
C837 C840 1.358 . S
C837 H843 0.930 . S
C838 C836 1.353 . S
C838 C841 1.348 . S
C838 H876 0.929 . S
N839 Li794 1.990 . S
N839 C836 1.314 . S
N839 C837 1.279 . S
C840 C837 1.358 . S
C840 C841 1.356 . S
C840 H877 0.930 . S
C841 C838 1.348 . S
C841 C840 1.356 . S
H842 C836 0.930 . S
H843 C837 0.930 . S
C844 N845 1.314 . S
C844 C846 1.353 . S
C844 H850 0.930 . S
N845 Li795 1.990 . S
N845 C844 1.314 . S
N845 C848 1.279 . S
C846 C844 1.353 . S
C846 C849 1.348 . S
C846 H878 0.929 . S
C847 C848 1.358 . S
C847 C849 1.356 . S
C847 H879 0.930 . S
C848 N845 1.279 . S
C848 C847 1.358 . S
C848 H851 0.930 . S
C849 C846 1.348 . S
C849 C847 1.356 . S
H850 C844 0.930 . S
H851 C848 0.930 . S
O852 Li792 1.956 . S
O852 Li793 1.970 . S
O852 Li794 1.961 . S
O852 C796 1.325 . S
O853 Li792 1.970 . S
O853 Li793 1.956 . S
O853 Li795 1.961 . S
O853 C802 1.325 . S
O854 Li792 1.961 . S
O854 Li794 1.956 . S
O854 Li795 1.970 . S
O854 C824 1.325 . S
O855 Li793 1.961 . S
O855 Li794 1.970 . S
O855 Li795 1.956 . S
O855 C830 1.325 . S
H856 C798 0.929 . S
H857 C799 0.930 . S
H858 C800 0.930 . S
H859 C801 0.930 . S
H860 C803 0.930 . S
H861 C805 0.929 . S
H862 C806 0.930 . S
H863 C807 0.930 . S
H864 C810 0.930 . S
H865 C813 0.929 . S
H866 C818 0.929 . S
H867 C819 0.930 . S
H868 C826 0.929 . S
H869 C827 0.930 . S
H870 C828 0.930 . S
H871 C829 0.930 . S
H872 C831 0.929 . S
H873 C832 0.930 . S
H874 C833 0.930 . S
H875 C834 0.930 . S
H876 C838 0.929 . S
H877 C840 0.930 . S
H878 C846 0.929 . S
H879 C847 0.930 . S
Li880 N897 1.990 . S
Li880 O940 1.956 . S
Li880 O941 1.970 . S
Li880 O942 1.961 . S
Li881 N905 1.990 . S
Li881 O940 1.970 . S
Li881 O941 1.956 . S
Li881 O943 1.961 . S
Li882 N927 1.990 . S
Li882 O940 1.961 . S
Li882 O942 1.956 . S
Li882 O943 1.970 . S
Li883 N933 1.990 . S
Li883 O941 1.961 . S
Li883 O942 1.970 . S
Li883 O943 1.956 . S
C884 C886 1.348 . S
C884 C887 1.356 . S
C884 O940 1.325 . S
N885 C888 1.314 . S
N885 C889 1.279 . S
C886 C884 1.348 . S
C886 C888 1.353 . S
C886 H944 0.929 . S
C887 C884 1.356 . S
C887 C889 1.358 . S
C887 H945 0.930 . S
C888 N885 1.314 . S
C888 C886 1.353 . S
C888 H946 0.930 . S
C889 N885 1.279 . S
C889 C887 1.358 . S
C889 H947 0.930 . S
C890 C893 1.348 . S
C890 C894 1.356 . S
C890 O941 1.325 . S
C891 N892 1.279 . S
C891 C894 1.358 . S
C891 H948 0.930 . S
N892 C891 1.279 . S
N892 C895 1.314 . S
C893 C890 1.348 . S
C893 C895 1.353 . S
C893 H949 0.929 . S
C894 C890 1.356 . S
C894 C891 1.358 . S
C894 H950 0.930 . S
C895 N892 1.314 . S
C895 C893 1.353 . S
C895 H951 0.930 . S
C896 N897 1.314 . S
C896 C901 1.353 . S
C896 H902 0.930 . S
N897 Li880 1.990 . S
N897 C896 1.314 . S
N897 C899 1.279 . S
C898 C899 1.358 . S
C898 C900 1.356 . S
C898 H952 0.930 . S
C899 N897 1.279 . S
C899 C898 1.358 . S
C899 H903 0.930 . S
C900 C898 1.356 . S
C900 C901 1.348 . S
C901 C896 1.353 . S
C901 C900 1.348 . S
C901 H953 0.929 . S
H902 C896 0.930 . S
H903 C899 0.930 . S
C904 N905 1.314 . S
C904 C906 1.353 . S
C904 H910 0.930 . S
N905 Li881 1.990 . S
N905 C904 1.314 . S
N905 C908 1.279 . S
C906 C904 1.353 . S
C906 C909 1.348 . S
C906 H954 0.929 . S
C907 C908 1.358 . S
C907 C909 1.356 . S
C907 H955 0.930 . S
C908 N905 1.279 . S
C908 C907 1.358 . S
C908 H911 0.930 . S
C909 C906 1.348 . S
C909 C907 1.356 . S
H910 C904 0.930 . S
H911 C908 0.930 . S
C912 C914 1.348 . S
C912 C915 1.356 . S
C912 O942 1.325 . S
N913 C916 1.314 . S
N913 C917 1.279 . S
C914 C912 1.348 . S
C914 C916 1.353 . S
C914 H956 0.929 . S
C915 C912 1.356 . S
C915 C917 1.358 . S
C915 H957 0.930 . S
C916 N913 1.314 . S
C916 C914 1.353 . S
C916 H958 0.930 . S
C917 N913 1.279 . S
C917 C915 1.358 . S
C917 H959 0.930 . S
C918 C919 1.348 . S
C918 C920 1.356 . S
C918 O943 1.325 . S
C919 C918 1.348 . S
C919 C921 1.353 . S
C919 H960 0.929 . S
C920 C918 1.356 . S
C920 C922 1.358 . S
C920 H961 0.930 . S
C921 C919 1.353 . S
C921 N923 1.314 . S
C921 H962 0.930 . S
C922 C920 1.358 . S
C922 N923 1.279 . S
C922 H963 0.930 . S
N923 C921 1.314 . S
N923 C922 1.279 . S
C924 C926 1.353 . S
C924 N927 1.314 . S
C924 H930 0.930 . S
C925 N927 1.279 . S
C925 C928 1.358 . S
C925 H931 0.930 . S
C926 C924 1.353 . S
C926 C929 1.348 . S
C926 H964 0.929 . S
N927 Li882 1.990 . S
N927 C924 1.314 . S
N927 C925 1.279 . S
C928 C925 1.358 . S
C928 C929 1.356 . S
C928 H965 0.930 . S
C929 C926 1.348 . S
C929 C928 1.356 . S
H930 C924 0.930 . S
H931 C925 0.930 . S
C932 N933 1.314 . S
C932 C934 1.353 . S
C932 H938 0.930 . S
N933 Li883 1.990 . S
N933 C932 1.314 . S
N933 C936 1.279 . S
C934 C932 1.353 . S
C934 C937 1.348 . S
C934 H966 0.929 . S
C935 C936 1.358 . S
C935 C937 1.356 . S
C935 H967 0.930 . S
C936 N933 1.279 . S
C936 C935 1.358 . S
C936 H939 0.930 . S
C937 C934 1.348 . S
C937 C935 1.356 . S
H938 C932 0.930 . S
H939 C936 0.930 . S
O940 Li880 1.956 . S
O940 Li881 1.970 . S
O940 Li882 1.961 . S
O940 C884 1.325 . S
O941 Li880 1.970 . S
O941 Li881 1.956 . S
O941 Li883 1.961 . S
O941 C890 1.325 . S
O942 Li880 1.961 . S
O942 Li882 1.956 . S
O942 Li883 1.970 . S
O942 C912 1.325 . S
O943 Li881 1.961 . S
O943 Li882 1.970 . S
O943 Li883 1.956 . S
O943 C918 1.325 . S
H944 C886 0.929 . S
H945 C887 0.930 . S
H946 C888 0.930 . S
H947 C889 0.930 . S
H948 C891 0.930 . S
H949 C893 0.929 . S
H950 C894 0.930 . S
H951 C895 0.930 . S
H952 C898 0.930 . S
H953 C901 0.929 . S
H954 C906 0.929 . S
H955 C907 0.930 . S
H956 C914 0.929 . S
H957 C915 0.930 . S
H958 C916 0.930 . S
H959 C917 0.930 . S
H960 C919 0.929 . S
H961 C920 0.930 . S
H962 C921 0.930 . S
H963 C922 0.930 . S
H964 C926 0.929 . S
H965 C928 0.930 . S
H966 C934 0.929 . S
H967 C935 0.930 . S
Li968 N985 1.990 . S
Li968 O1028 1.956 . S
Li968 O1029 1.970 . S
Li968 O1030 1.961 . S
Li969 N993 1.990 . S
Li969 O1028 1.970 . S
Li969 O1029 1.956 . S
Li969 O1031 1.961 . S
Li970 N1015 1.990 . S
Li970 O1028 1.961 . S
Li970 O1030 1.956 . S
Li970 O1031 1.970 . S
Li971 N1021 1.990 . S
Li971 O1029 1.961 . S
Li971 O1030 1.970 . S
Li971 O1031 1.956 . S
C972 C974 1.348 . S
C972 C975 1.356 . S
C972 O1028 1.325 . S
N973 C976 1.314 . S
N973 C977 1.279 . S
C974 C972 1.348 . S
C974 C976 1.353 . S
C974 H1032 0.929 . S
C975 C972 1.356 . S
C975 C977 1.358 . S
C975 H1033 0.930 . S
C976 N973 1.314 . S
C976 C974 1.353 . S
C976 H1034 0.930 . S
C977 N973 1.279 . S
C977 C975 1.358 . S
C977 H1035 0.930 . S
C978 C981 1.348 . S
C978 C982 1.356 . S
C978 O1029 1.325 . S
C979 N980 1.279 . S
C979 C982 1.358 . S
C979 H1036 0.930 . S
N980 C979 1.279 . S
N980 C983 1.314 . S
C981 C978 1.348 . S
C981 C983 1.353 . S
C981 H1037 0.929 . S
C982 C978 1.356 . S
C982 C979 1.358 . S
C982 H1038 0.930 . S
C983 N980 1.314 . S
C983 C981 1.353 . S
C983 H1039 0.930 . S
C984 N985 1.314 . S
C984 C989 1.353 . S
C984 H990 0.930 . S
N985 Li968 1.990 . S
N985 C984 1.314 . S
N985 C987 1.279 . S
C986 C987 1.358 . S
C986 C988 1.356 . S
C986 H1040 0.930 . S
C987 N985 1.279 . S
C987 C986 1.358 . S
C987 H991 0.930 . S
C988 C986 1.356 . S
C988 C989 1.348 . S
C989 C984 1.353 . S
C989 C988 1.348 . S
C989 H1041 0.929 . S
H990 C984 0.930 . S
H991 C987 0.930 . S
C992 N993 1.314 . S
C992 C994 1.353 . S
C992 H998 0.930 . S
N993 Li969 1.990 . S
N993 C992 1.314 . S
N993 C996 1.279 . S
C994 C992 1.353 . S
C994 C997 1.348 . S
C994 H1042 0.929 . S
C995 C996 1.358 . S
C995 C997 1.356 . S
C995 H1043 0.930 . S
C996 N993 1.279 . S
C996 C995 1.358 . S
C996 H999 0.930 . S
C997 C994 1.348 . S
C997 C995 1.356 . S
H998 C992 0.930 . S
H999 C996 0.930 . S
C1000 C1002 1.348 . S
C1000 C1003 1.356 . S
C1000 O1030 1.325 . S
N1001 C1004 1.314 . S
N1001 C1005 1.279 . S
C1002 C1000 1.348 . S
C1002 C1004 1.353 . S
C1002 H1044 0.929 . S
C1003 C1000 1.356 . S
C1003 C1005 1.358 . S
C1003 H1045 0.930 . S
C1004 N1001 1.314 . S
C1004 C1002 1.353 . S
C1004 H1046 0.930 . S
C1005 N1001 1.279 . S
C1005 C1003 1.358 . S
C1005 H1047 0.930 . S
C1006 C1007 1.348 . S
C1006 C1008 1.356 . S
C1006 O1031 1.325 . S
C1007 C1006 1.348 . S
C1007 C1009 1.353 . S
C1007 H1048 0.929 . S
C1008 C1006 1.356 . S
C1008 C1010 1.358 . S
C1008 H1049 0.930 . S
C1009 C1007 1.353 . S
C1009 N1011 1.314 . S
C1009 H1050 0.930 . S
C1010 C1008 1.358 . S
C1010 N1011 1.279 . S
C1010 H1051 0.930 . S
N1011 C1009 1.314 . S
N1011 C1010 1.279 . S
C1012 C1014 1.353 . S
C1012 N1015 1.314 . S
C1012 H1018 0.930 . S
C1013 N1015 1.279 . S
C1013 C1016 1.358 . S
C1013 H1019 0.930 . S
C1014 C1012 1.353 . S
C1014 C1017 1.348 . S
C1014 H1052 0.929 . S
N1015 Li970 1.990 . S
N1015 C1012 1.314 . S
N1015 C1013 1.279 . S
C1016 C1013 1.358 . S
C1016 C1017 1.356 . S
C1016 H1053 0.930 . S
C1017 C1014 1.348 . S
C1017 C1016 1.356 . S
H1018 C1012 0.930 . S
H1019 C1013 0.930 . S
C1020 N1021 1.314 . S
C1020 C1022 1.353 . S
C1020 H1026 0.930 . S
N1021 Li971 1.990 . S
N1021 C1020 1.314 . S
N1021 C1024 1.279 . S
C1022 C1020 1.353 . S
C1022 C1025 1.348 . S
C1022 H1054 0.929 . S
C1023 C1024 1.358 . S
C1023 C1025 1.356 . S
C1023 H1055 0.930 . S
C1024 N1021 1.279 . S
C1024 C1023 1.358 . S
C1024 H1027 0.930 . S
C1025 C1022 1.348 . S
C1025 C1023 1.356 . S
H1026 C1020 0.930 . S
H1027 C1024 0.930 . S
O1028 Li968 1.956 . S
O1028 Li969 1.970 . S
O1028 Li970 1.961 . S
O1028 C972 1.325 . S
O1029 Li968 1.970 . S
O1029 Li969 1.956 . S
O1029 Li971 1.961 . S
O1029 C978 1.325 . S
O1030 Li968 1.961 . S
O1030 Li970 1.956 . S
O1030 Li971 1.970 . S
O1030 C1000 1.325 . S
O1031 Li969 1.961 . S
O1031 Li970 1.970 . S
O1031 Li971 1.956 . S
O1031 C1006 1.325 . S
H1032 C974 0.929 . S
H1033 C975 0.930 . S
H1034 C976 0.930 . S
H1035 C977 0.930 . S
H1036 C979 0.930 . S
H1037 C981 0.929 . S
H1038 C982 0.930 . S
H1039 C983 0.930 . S
H1040 C986 0.930 . S
H1041 C989 0.929 . S
H1042 C994 0.929 . S
H1043 C995 0.930 . S
H1044 C1002 0.929 . S
H1045 C1003 0.930 . S
H1046 C1004 0.930 . S
H1047 C1005 0.930 . S
H1048 C1007 0.929 . S
H1049 C1008 0.930 . S
H1050 C1009 0.930 . S
H1051 C1010 0.930 . S
H1052 C1014 0.929 . S
H1053 C1016 0.930 . S
H1054 C1022 0.929 . S
H1055 C1023 0.930 . S
Li1056 N1073 1.990 . S
Li1056 O1116 1.956 . S
Li1056 O1117 1.970 . S
Li1056 O1118 1.961 . S
Li1057 N1081 1.990 . S
Li1057 O1116 1.970 . S
Li1057 O1117 1.956 . S
Li1057 O1119 1.961 . S
Li1058 N1103 1.990 . S
Li1058 O1116 1.961 . S
Li1058 O1118 1.956 . S
Li1058 O1119 1.970 . S
Li1059 N1109 1.990 . S
Li1059 O1117 1.961 . S
Li1059 O1118 1.970 . S
Li1059 O1119 1.956 . S
C1060 C1062 1.348 . S
C1060 C1063 1.356 . S
C1060 O1116 1.325 . S
N1061 C1064 1.314 . S
N1061 C1065 1.279 . S
C1062 C1060 1.348 . S
C1062 C1064 1.353 . S
C1062 H1120 0.929 . S
C1063 C1060 1.356 . S
C1063 C1065 1.358 . S
C1063 H1121 0.930 . S
C1064 N1061 1.314 . S
C1064 C1062 1.353 . S
C1064 H1122 0.930 . S
C1065 N1061 1.279 . S
C1065 C1063 1.358 . S
C1065 H1123 0.930 . S
C1066 C1069 1.348 . S
C1066 C1070 1.356 . S
C1066 O1117 1.325 . S
C1067 N1068 1.279 . S
C1067 C1070 1.358 . S
C1067 H1124 0.930 . S
N1068 C1067 1.279 . S
N1068 C1071 1.314 . S
C1069 C1066 1.348 . S
C1069 C1071 1.353 . S
C1069 H1125 0.929 . S
C1070 C1066 1.356 . S
C1070 C1067 1.358 . S
C1070 H1126 0.930 . S
C1071 N1068 1.314 . S
C1071 C1069 1.353 . S
C1071 H1127 0.930 . S
C1072 N1073 1.314 . S
C1072 C1077 1.353 . S
C1072 H1078 0.930 . S
N1073 Li1056 1.990 . S
N1073 C1072 1.314 . S
N1073 C1075 1.279 . S
C1074 C1075 1.358 . S
C1074 C1076 1.356 . S
C1074 H1128 0.930 . S
C1075 N1073 1.279 . S
C1075 C1074 1.358 . S
C1075 H1079 0.930 . S
C1076 C1074 1.356 . S
C1076 C1077 1.348 . S
C1077 C1072 1.353 . S
C1077 C1076 1.348 . S
C1077 H1129 0.929 . S
H1078 C1072 0.930 . S
H1079 C1075 0.930 . S
C1080 N1081 1.314 . S
C1080 C1082 1.353 . S
C1080 H1086 0.930 . S
N1081 Li1057 1.990 . S
N1081 C1080 1.314 . S
N1081 C1084 1.279 . S
C1082 C1080 1.353 . S
C1082 C1085 1.348 . S
C1082 H1130 0.929 . S
C1083 C1084 1.358 . S
C1083 C1085 1.356 . S
C1083 H1131 0.930 . S
C1084 N1081 1.279 . S
C1084 C1083 1.358 . S
C1084 H1087 0.930 . S
C1085 C1082 1.348 . S
C1085 C1083 1.356 . S
H1086 C1080 0.930 . S
H1087 C1084 0.930 . S
C1088 C1090 1.348 . S
C1088 C1091 1.356 . S
C1088 O1118 1.325 . S
N1089 C1092 1.314 . S
N1089 C1093 1.279 . S
C1090 C1088 1.348 . S
C1090 C1092 1.353 . S
C1090 H1132 0.929 . S
C1091 C1088 1.356 . S
C1091 C1093 1.358 . S
C1091 H1133 0.930 . S
C1092 N1089 1.314 . S
C1092 C1090 1.353 . S
C1092 H1134 0.930 . S
C1093 N1089 1.279 . S
C1093 C1091 1.358 . S
C1093 H1135 0.930 . S
C1094 C1095 1.348 . S
C1094 C1096 1.356 . S
C1094 O1119 1.325 . S
C1095 C1094 1.348 . S
C1095 C1097 1.353 . S
C1095 H1136 0.929 . S
C1096 C1094 1.356 . S
C1096 C1098 1.358 . S
C1096 H1137 0.930 . S
C1097 C1095 1.353 . S
C1097 N1099 1.314 . S
C1097 H1138 0.930 . S
C1098 C1096 1.358 . S
C1098 N1099 1.279 . S
C1098 H1139 0.930 . S
N1099 C1097 1.314 . S
N1099 C1098 1.279 . S
C1100 C1102 1.353 . S
C1100 N1103 1.314 . S
C1100 H1106 0.930 . S
C1101 N1103 1.279 . S
C1101 C1104 1.358 . S
C1101 H1107 0.930 . S
C1102 C1100 1.353 . S
C1102 C1105 1.348 . S
C1102 H1140 0.929 . S
N1103 Li1058 1.990 . S
N1103 C1100 1.314 . S
N1103 C1101 1.279 . S
C1104 C1101 1.358 . S
C1104 C1105 1.356 . S
C1104 H1141 0.930 . S
C1105 C1102 1.348 . S
C1105 C1104 1.356 . S
H1106 C1100 0.930 . S
H1107 C1101 0.930 . S
C1108 N1109 1.314 . S
C1108 C1110 1.353 . S
C1108 H1114 0.930 . S
N1109 Li1059 1.990 . S
N1109 C1108 1.314 . S
N1109 C1112 1.279 . S
C1110 C1108 1.353 . S
C1110 C1113 1.348 . S
C1110 H1142 0.929 . S
C1111 C1112 1.358 . S
C1111 C1113 1.356 . S
C1111 H1143 0.930 . S
C1112 N1109 1.279 . S
C1112 C1111 1.358 . S
C1112 H1115 0.930 . S
C1113 C1110 1.348 . S
C1113 C1111 1.356 . S
H1114 C1108 0.930 . S
H1115 C1112 0.930 . S
O1116 Li1056 1.956 . S
O1116 Li1057 1.970 . S
O1116 Li1058 1.961 . S
O1116 C1060 1.325 . S
O1117 Li1056 1.970 . S
O1117 Li1057 1.956 . S
O1117 Li1059 1.961 . S
O1117 C1066 1.325 . S
O1118 Li1056 1.961 . S
O1118 Li1058 1.956 . S
O1118 Li1059 1.970 . S
O1118 C1088 1.325 . S
O1119 Li1057 1.961 . S
O1119 Li1058 1.970 . S
O1119 Li1059 1.956 . S
O1119 C1094 1.325 . S
H1120 C1062 0.929 . S
H1121 C1063 0.930 . S
H1122 C1064 0.930 . S
H1123 C1065 0.930 . S
H1124 C1067 0.930 . S
H1125 C1069 0.929 . S
H1126 C1070 0.930 . S
H1127 C1071 0.930 . S
H1128 C1074 0.930 . S
H1129 C1077 0.929 . S
H1130 C1082 0.929 . S
H1131 C1083 0.930 . S
H1132 C1090 0.929 . S
H1133 C1091 0.930 . S
H1134 C1092 0.930 . S
H1135 C1093 0.930 . S
H1136 C1095 0.929 . S
H1137 C1096 0.930 . S
H1138 C1097 0.930 . S
H1139 C1098 0.930 . S
H1140 C1102 0.929 . S
H1141 C1104 0.930 . S
H1142 C1110 0.929 . S
H1143 C1111 0.930 . S
Li1144 N1161 1.990 . S
Li1144 O1204 1.956 . S
Li1144 O1205 1.970 . S
Li1144 O1206 1.961 . S
Li1145 N1169 1.990 . S
Li1145 O1204 1.970 . S
Li1145 O1205 1.956 . S
Li1145 O1207 1.961 . S
Li1146 N1191 1.990 . S
Li1146 O1204 1.961 . S
Li1146 O1206 1.956 . S
Li1146 O1207 1.970 . S
Li1147 N1197 1.990 . S
Li1147 O1205 1.961 . S
Li1147 O1206 1.970 . S
Li1147 O1207 1.956 . S
C1148 C1150 1.348 . S
C1148 C1151 1.356 . S
C1148 O1204 1.325 . S
N1149 C1152 1.314 . S
N1149 C1153 1.279 . S
C1150 C1148 1.348 . S
C1150 C1152 1.353 . S
C1150 H1208 0.929 . S
C1151 C1148 1.356 . S
C1151 C1153 1.358 . S
C1151 H1209 0.930 . S
C1152 N1149 1.314 . S
C1152 C1150 1.353 . S
C1152 H1210 0.930 . S
C1153 N1149 1.279 . S
C1153 C1151 1.358 . S
C1153 H1211 0.930 . S
C1154 C1157 1.348 . S
C1154 C1158 1.356 . S
C1154 O1205 1.325 . S
C1155 N1156 1.279 . S
C1155 C1158 1.358 . S
C1155 H1212 0.930 . S
N1156 C1155 1.279 . S
N1156 C1159 1.314 . S
C1157 C1154 1.348 . S
C1157 C1159 1.353 . S
C1157 H1213 0.929 . S
C1158 C1154 1.356 . S
C1158 C1155 1.358 . S
C1158 H1214 0.930 . S
C1159 N1156 1.314 . S
C1159 C1157 1.353 . S
C1159 H1215 0.930 . S
C1160 N1161 1.314 . S
C1160 C1165 1.353 . S
C1160 H1166 0.930 . S
N1161 Li1144 1.990 . S
N1161 C1160 1.314 . S
N1161 C1163 1.279 . S
C1162 C1163 1.358 . S
C1162 C1164 1.356 . S
C1162 H1216 0.930 . S
C1163 N1161 1.279 . S
C1163 C1162 1.358 . S
C1163 H1167 0.930 . S
C1164 C1162 1.356 . S
C1164 C1165 1.348 . S
C1165 C1160 1.353 . S
C1165 C1164 1.348 . S
C1165 H1217 0.929 . S
H1166 C1160 0.930 . S
H1167 C1163 0.930 . S
C1168 N1169 1.314 . S
C1168 C1170 1.353 . S
C1168 H1174 0.930 . S
N1169 Li1145 1.990 . S
N1169 C1168 1.314 . S
N1169 C1172 1.279 . S
C1170 C1168 1.353 . S
C1170 C1173 1.348 . S
C1170 H1218 0.929 . S
C1171 C1172 1.358 . S
C1171 C1173 1.356 . S
C1171 H1219 0.930 . S
C1172 N1169 1.279 . S
C1172 C1171 1.358 . S
C1172 H1175 0.930 . S
C1173 C1170 1.348 . S
C1173 C1171 1.356 . S
H1174 C1168 0.930 . S
H1175 C1172 0.930 . S
C1176 C1178 1.348 . S
C1176 C1179 1.356 . S
C1176 O1206 1.325 . S
N1177 C1180 1.314 . S
N1177 C1181 1.279 . S
C1178 C1176 1.348 . S
C1178 C1180 1.353 . S
C1178 H1220 0.929 . S
C1179 C1176 1.356 . S
C1179 C1181 1.358 . S
C1179 H1221 0.930 . S
C1180 N1177 1.314 . S
C1180 C1178 1.353 . S
C1180 H1222 0.930 . S
C1181 N1177 1.279 . S
C1181 C1179 1.358 . S
C1181 H1223 0.930 . S
C1182 C1183 1.348 . S
C1182 C1184 1.356 . S
C1182 O1207 1.325 . S
C1183 C1182 1.348 . S
C1183 C1185 1.353 . S
C1183 H1224 0.929 . S
C1184 C1182 1.356 . S
C1184 C1186 1.358 . S
C1184 H1225 0.930 . S
C1185 C1183 1.353 . S
C1185 N1187 1.314 . S
C1185 H1226 0.930 . S
C1186 C1184 1.358 . S
C1186 N1187 1.279 . S
C1186 H1227 0.930 . S
N1187 C1185 1.314 . S
N1187 C1186 1.279 . S
C1188 C1190 1.353 . S
C1188 N1191 1.314 . S
C1188 H1194 0.930 . S
C1189 N1191 1.279 . S
C1189 C1192 1.358 . S
C1189 H1195 0.930 . S
C1190 C1188 1.353 . S
C1190 C1193 1.348 . S
C1190 H1228 0.929 . S
N1191 Li1146 1.990 . S
N1191 C1188 1.314 . S
N1191 C1189 1.279 . S
C1192 C1189 1.358 . S
C1192 C1193 1.356 . S
C1192 H1229 0.930 . S
C1193 C1190 1.348 . S
C1193 C1192 1.356 . S
H1194 C1188 0.930 . S
H1195 C1189 0.930 . S
C1196 N1197 1.314 . S
C1196 C1198 1.353 . S
C1196 H1202 0.930 . S
N1197 Li1147 1.990 . S
N1197 C1196 1.314 . S
N1197 C1200 1.279 . S
C1198 C1196 1.353 . S
C1198 C1201 1.348 . S
C1198 H1230 0.929 . S
C1199 C1200 1.358 . S
C1199 C1201 1.356 . S
C1199 H1231 0.930 . S
C1200 N1197 1.279 . S
C1200 C1199 1.358 . S
C1200 H1203 0.930 . S
C1201 C1198 1.348 . S
C1201 C1199 1.356 . S
H1202 C1196 0.930 . S
H1203 C1200 0.930 . S
O1204 Li1144 1.956 . S
O1204 Li1145 1.970 . S
O1204 Li1146 1.961 . S
O1204 C1148 1.325 . S
O1205 Li1144 1.970 . S
O1205 Li1145 1.956 . S
O1205 Li1147 1.961 . S
O1205 C1154 1.325 . S
O1206 Li1144 1.961 . S
O1206 Li1146 1.956 . S
O1206 Li1147 1.970 . S
O1206 C1176 1.325 . S
O1207 Li1145 1.961 . S
O1207 Li1146 1.970 . S
O1207 Li1147 1.956 . S
O1207 C1182 1.325 . S
H1208 C1150 0.929 . S
H1209 C1151 0.930 . S
H1210 C1152 0.930 . S
H1211 C1153 0.930 . S
H1212 C1155 0.930 . S
H1213 C1157 0.929 . S
H1214 C1158 0.930 . S
H1215 C1159 0.930 . S
H1216 C1162 0.930 . S
H1217 C1165 0.929 . S
H1218 C1170 0.929 . S
H1219 C1171 0.930 . S
H1220 C1178 0.929 . S
H1221 C1179 0.930 . S
H1222 C1180 0.930 . S
H1223 C1181 0.930 . S
H1224 C1183 0.929 . S
H1225 C1184 0.930 . S
H1226 C1185 0.930 . S
H1227 C1186 0.930 . S
H1228 C1190 0.929 . S
H1229 C1192 0.930 . S
H1230 C1198 0.929 . S
H1231 C1199 0.930 . S
Li1232 N1249 1.990 . S
Li1232 O1292 1.956 . S
Li1232 O1293 1.970 . S
Li1232 O1294 1.961 . S
Li1233 N1257 1.990 . S
Li1233 O1292 1.970 . S
Li1233 O1293 1.956 . S
Li1233 O1295 1.961 . S
Li1234 N1279 1.990 . S
Li1234 O1292 1.961 . S
Li1234 O1294 1.956 . S
Li1234 O1295 1.970 . S
Li1235 N1285 1.990 . S
Li1235 O1293 1.961 . S
Li1235 O1294 1.970 . S
Li1235 O1295 1.956 . S
C1236 C1238 1.348 . S
C1236 C1239 1.356 . S
C1236 O1292 1.325 . S
N1237 C1240 1.314 . S
N1237 C1241 1.279 . S
C1238 C1236 1.348 . S
C1238 C1240 1.353 . S
C1238 H1296 0.929 . S
C1239 C1236 1.356 . S
C1239 C1241 1.358 . S
C1239 H1297 0.930 . S
C1240 N1237 1.314 . S
C1240 C1238 1.353 . S
C1240 H1298 0.930 . S
C1241 N1237 1.279 . S
C1241 C1239 1.358 . S
C1241 H1299 0.930 . S
C1242 C1245 1.348 . S
C1242 C1246 1.356 . S
C1242 O1293 1.325 . S
C1243 N1244 1.279 . S
C1243 C1246 1.358 . S
C1243 H1300 0.930 . S
N1244 C1243 1.279 . S
N1244 C1247 1.314 . S
C1245 C1242 1.348 . S
C1245 C1247 1.353 . S
C1245 H1301 0.929 . S
C1246 C1242 1.356 . S
C1246 C1243 1.358 . S
C1246 H1302 0.930 . S
C1247 N1244 1.314 . S
C1247 C1245 1.353 . S
C1247 H1303 0.930 . S
C1248 N1249 1.314 . S
C1248 C1253 1.353 . S
C1248 H1254 0.930 . S
N1249 Li1232 1.990 . S
N1249 C1248 1.314 . S
N1249 C1251 1.279 . S
C1250 C1251 1.358 . S
C1250 C1252 1.356 . S
C1250 H1304 0.930 . S
C1251 N1249 1.279 . S
C1251 C1250 1.358 . S
C1251 H1255 0.930 . S
C1252 C1250 1.356 . S
C1252 C1253 1.348 . S
C1253 C1248 1.353 . S
C1253 C1252 1.348 . S
C1253 H1305 0.929 . S
H1254 C1248 0.930 . S
H1255 C1251 0.930 . S
C1256 N1257 1.314 . S
C1256 C1258 1.353 . S
C1256 H1262 0.930 . S
N1257 Li1233 1.990 . S
N1257 C1256 1.314 . S
N1257 C1260 1.279 . S
C1258 C1256 1.353 . S
C1258 C1261 1.348 . S
C1258 H1306 0.929 . S
C1259 C1260 1.358 . S
C1259 C1261 1.356 . S
C1259 H1307 0.930 . S
C1260 N1257 1.279 . S
C1260 C1259 1.358 . S
C1260 H1263 0.930 . S
C1261 C1258 1.348 . S
C1261 C1259 1.356 . S
H1262 C1256 0.930 . S
H1263 C1260 0.930 . S
C1264 C1266 1.348 . S
C1264 C1267 1.356 . S
C1264 O1294 1.325 . S
N1265 C1268 1.314 . S
N1265 C1269 1.279 . S
C1266 C1264 1.348 . S
C1266 C1268 1.353 . S
C1266 H1308 0.929 . S
C1267 C1264 1.356 . S
C1267 C1269 1.358 . S
C1267 H1309 0.930 . S
C1268 N1265 1.314 . S
C1268 C1266 1.353 . S
C1268 H1310 0.930 . S
C1269 N1265 1.279 . S
C1269 C1267 1.358 . S
C1269 H1311 0.930 . S
C1270 C1271 1.348 . S
C1270 C1272 1.356 . S
C1270 O1295 1.325 . S
C1271 C1270 1.348 . S
C1271 C1273 1.353 . S
C1271 H1312 0.929 . S
C1272 C1270 1.356 . S
C1272 C1274 1.358 . S
C1272 H1313 0.930 . S
C1273 C1271 1.353 . S
C1273 N1275 1.314 . S
C1273 H1314 0.930 . S
C1274 C1272 1.358 . S
C1274 N1275 1.279 . S
C1274 H1315 0.930 . S
N1275 C1273 1.314 . S
N1275 C1274 1.279 . S
C1276 C1278 1.353 . S
C1276 N1279 1.314 . S
C1276 H1282 0.930 . S
C1277 N1279 1.279 . S
C1277 C1280 1.358 . S
C1277 H1283 0.930 . S
C1278 C1276 1.353 . S
C1278 C1281 1.348 . S
C1278 H1316 0.929 . S
N1279 Li1234 1.990 . S
N1279 C1276 1.314 . S
N1279 C1277 1.279 . S
C1280 C1277 1.358 . S
C1280 C1281 1.356 . S
C1280 H1317 0.930 . S
C1281 C1278 1.348 . S
C1281 C1280 1.356 . S
H1282 C1276 0.930 . S
H1283 C1277 0.930 . S
C1284 N1285 1.314 . S
C1284 C1286 1.353 . S
C1284 H1290 0.930 . S
N1285 Li1235 1.990 . S
N1285 C1284 1.314 . S
N1285 C1288 1.279 . S
C1286 C1284 1.353 . S
C1286 C1289 1.348 . S
C1286 H1318 0.929 . S
C1287 C1288 1.358 . S
C1287 C1289 1.356 . S
C1287 H1319 0.930 . S
C1288 N1285 1.279 . S
C1288 C1287 1.358 . S
C1288 H1291 0.930 . S
C1289 C1286 1.348 . S
C1289 C1287 1.356 . S
H1290 C1284 0.930 . S
H1291 C1288 0.930 . S
O1292 Li1232 1.956 . S
O1292 Li1233 1.970 . S
O1292 Li1234 1.961 . S
O1292 C1236 1.325 . S
O1293 Li1232 1.970 . S
O1293 Li1233 1.956 . S
O1293 Li1235 1.961 . S
O1293 C1242 1.325 . S
O1294 Li1232 1.961 . S
O1294 Li1234 1.956 . S
O1294 Li1235 1.970 . S
O1294 C1264 1.325 . S
O1295 Li1233 1.961 . S
O1295 Li1234 1.970 . S
O1295 Li1235 1.956 . S
O1295 C1270 1.325 . S
H1296 C1238 0.929 . S
H1297 C1239 0.930 . S
H1298 C1240 0.930 . S
H1299 C1241 0.930 . S
H1300 C1243 0.930 . S
H1301 C1245 0.929 . S
H1302 C1246 0.930 . S
H1303 C1247 0.930 . S
H1304 C1250 0.930 . S
H1305 C1253 0.929 . S
H1306 C1258 0.929 . S
H1307 C1259 0.930 . S
H1308 C1266 0.929 . S
H1309 C1267 0.930 . S
H1310 C1268 0.930 . S
H1311 C1269 0.930 . S
H1312 C1271 0.929 . S
H1313 C1272 0.930 . S
H1314 C1273 0.930 . S
H1315 C1274 0.930 . S
H1316 C1278 0.929 . S
H1317 C1280 0.930 . S
H1318 C1286 0.929 . S
H1319 C1287 0.930 . S
Li1320 N1337 1.990 . S
Li1320 O1380 1.956 . S
Li1320 O1381 1.970 . S
Li1320 O1382 1.961 . S
Li1321 N1345 1.990 . S
Li1321 O1380 1.970 . S
Li1321 O1381 1.956 . S
Li1321 O1383 1.961 . S
Li1322 N1367 1.990 . S
Li1322 O1380 1.961 . S
Li1322 O1382 1.956 . S
Li1322 O1383 1.970 . S
Li1323 N1373 1.990 . S
Li1323 O1381 1.961 . S
Li1323 O1382 1.970 . S
Li1323 O1383 1.956 . S
C1324 C1326 1.348 . S
C1324 C1327 1.356 . S
C1324 O1380 1.325 . S
N1325 C1328 1.314 . S
N1325 C1329 1.279 . S
C1326 C1324 1.348 . S
C1326 C1328 1.353 . S
C1326 H1384 0.929 . S
C1327 C1324 1.356 . S
C1327 C1329 1.358 . S
C1327 H1385 0.930 . S
C1328 N1325 1.314 . S
C1328 C1326 1.353 . S
C1328 H1386 0.930 . S
C1329 N1325 1.279 . S
C1329 C1327 1.358 . S
C1329 H1387 0.930 . S
C1330 C1333 1.348 . S
C1330 C1334 1.356 . S
C1330 O1381 1.325 . S
C1331 N1332 1.279 . S
C1331 C1334 1.358 . S
C1331 H1388 0.930 . S
N1332 C1331 1.279 . S
N1332 C1335 1.314 . S
C1333 C1330 1.348 . S
C1333 C1335 1.353 . S
C1333 H1389 0.929 . S
C1334 C1330 1.356 . S
C1334 C1331 1.358 . S
C1334 H1390 0.930 . S
C1335 N1332 1.314 . S
C1335 C1333 1.353 . S
C1335 H1391 0.930 . S
C1336 N1337 1.314 . S
C1336 C1341 1.353 . S
C1336 H1342 0.930 . S
N1337 Li1320 1.990 . S
N1337 C1336 1.314 . S
N1337 C1339 1.279 . S
C1338 C1339 1.358 . S
C1338 C1340 1.356 . S
C1338 H1392 0.930 . S
C1339 N1337 1.279 . S
C1339 C1338 1.358 . S
C1339 H1343 0.930 . S
C1340 C1338 1.356 . S
C1340 C1341 1.348 . S
C1341 C1336 1.353 . S
C1341 C1340 1.348 . S
C1341 H1393 0.929 . S
H1342 C1336 0.930 . S
H1343 C1339 0.930 . S
C1344 N1345 1.314 . S
C1344 C1346 1.353 . S
C1344 H1350 0.930 . S
N1345 Li1321 1.990 . S
N1345 C1344 1.314 . S
N1345 C1348 1.279 . S
C1346 C1344 1.353 . S
C1346 C1349 1.348 . S
C1346 H1394 0.929 . S
C1347 C1348 1.358 . S
C1347 C1349 1.356 . S
C1347 H1395 0.930 . S
C1348 N1345 1.279 . S
C1348 C1347 1.358 . S
C1348 H1351 0.930 . S
C1349 C1346 1.348 . S
C1349 C1347 1.356 . S
H1350 C1344 0.930 . S
H1351 C1348 0.930 . S
C1352 C1354 1.348 . S
C1352 C1355 1.356 . S
C1352 O1382 1.325 . S
N1353 C1356 1.314 . S
N1353 C1357 1.279 . S
C1354 C1352 1.348 . S
C1354 C1356 1.353 . S
C1354 H1396 0.929 . S
C1355 C1352 1.356 . S
C1355 C1357 1.358 . S
C1355 H1397 0.930 . S
C1356 N1353 1.314 . S
C1356 C1354 1.353 . S
C1356 H1398 0.930 . S
C1357 N1353 1.279 . S
C1357 C1355 1.358 . S
C1357 H1399 0.930 . S
C1358 C1359 1.348 . S
C1358 C1360 1.356 . S
C1358 O1383 1.325 . S
C1359 C1358 1.348 . S
C1359 C1361 1.353 . S
C1359 H1400 0.929 . S
C1360 C1358 1.356 . S
C1360 C1362 1.358 . S
C1360 H1401 0.930 . S
C1361 C1359 1.353 . S
C1361 N1363 1.314 . S
C1361 H1402 0.930 . S
C1362 C1360 1.358 . S
C1362 N1363 1.279 . S
C1362 H1403 0.930 . S
N1363 C1361 1.314 . S
N1363 C1362 1.279 . S
C1364 C1366 1.353 . S
C1364 N1367 1.314 . S
C1364 H1370 0.930 . S
C1365 N1367 1.279 . S
C1365 C1368 1.358 . S
C1365 H1371 0.930 . S
C1366 C1364 1.353 . S
C1366 C1369 1.348 . S
C1366 H1404 0.929 . S
N1367 Li1322 1.990 . S
N1367 C1364 1.314 . S
N1367 C1365 1.279 . S
C1368 C1365 1.358 . S
C1368 C1369 1.356 . S
C1368 H1405 0.930 . S
C1369 C1366 1.348 . S
C1369 C1368 1.356 . S
H1370 C1364 0.930 . S
H1371 C1365 0.930 . S
C1372 N1373 1.314 . S
C1372 C1374 1.353 . S
C1372 H1378 0.930 . S
N1373 Li1323 1.990 . S
N1373 C1372 1.314 . S
N1373 C1376 1.279 . S
C1374 C1372 1.353 . S
C1374 C1377 1.348 . S
C1374 H1406 0.929 . S
C1375 C1376 1.358 . S
C1375 C1377 1.356 . S
C1375 H1407 0.930 . S
C1376 N1373 1.279 . S
C1376 C1375 1.358 . S
C1376 H1379 0.930 . S
C1377 C1374 1.348 . S
C1377 C1375 1.356 . S
H1378 C1372 0.930 . S
H1379 C1376 0.930 . S
O1380 Li1320 1.956 . S
O1380 Li1321 1.970 . S
O1380 Li1322 1.961 . S
O1380 C1324 1.325 . S
O1381 Li1320 1.970 . S
O1381 Li1321 1.956 . S
O1381 Li1323 1.961 . S
O1381 C1330 1.325 . S
O1382 Li1320 1.961 . S
O1382 Li1322 1.956 . S
O1382 Li1323 1.970 . S
O1382 C1352 1.325 . S
O1383 Li1321 1.961 . S
O1383 Li1322 1.970 . S
O1383 Li1323 1.956 . S
O1383 C1358 1.325 . S
H1384 C1326 0.929 . S
H1385 C1327 0.930 . S
H1386 C1328 0.930 . S
H1387 C1329 0.930 . S
H1388 C1331 0.930 . S
H1389 C1333 0.929 . S
H1390 C1334 0.930 . S
H1391 C1335 0.930 . S
H1392 C1338 0.930 . S
H1393 C1341 0.929 . S
H1394 C1346 0.929 . S
H1395 C1347 0.930 . S
H1396 C1354 0.929 . S
H1397 C1355 0.930 . S
H1398 C1356 0.930 . S
H1399 C1357 0.930 . S
H1400 C1359 0.929 . S
H1401 C1360 0.930 . S
H1402 C1361 0.930 . S
H1403 C1362 0.930 . S
H1404 C1366 0.929 . S
H1405 C1368 0.930 . S
H1406 C1374 0.929 . S
H1407 C1375 0.930 . S
Li1408 N1425 1.990 . S
Li1408 O1468 1.956 . S
Li1408 O1469 1.970 . S
Li1408 O1470 1.961 . S
Li1409 N1433 1.990 . S
Li1409 O1468 1.970 . S
Li1409 O1469 1.956 . S
Li1409 O1471 1.961 . S
Li1410 N1455 1.990 . S
Li1410 O1468 1.961 . S
Li1410 O1470 1.956 . S
Li1410 O1471 1.970 . S
Li1411 N1461 1.990 . S
Li1411 O1469 1.961 . S
Li1411 O1470 1.970 . S
Li1411 O1471 1.956 . S
C1412 C1414 1.348 . S
C1412 C1415 1.356 . S
C1412 O1468 1.325 . S
N1413 C1416 1.314 . S
N1413 C1417 1.279 . S
C1414 C1412 1.348 . S
C1414 C1416 1.353 . S
C1414 H1472 0.929 . S
C1415 C1412 1.356 . S
C1415 C1417 1.358 . S
C1415 H1473 0.930 . S
C1416 N1413 1.314 . S
C1416 C1414 1.353 . S
C1416 H1474 0.930 . S
C1417 N1413 1.279 . S
C1417 C1415 1.358 . S
C1417 H1475 0.930 . S
C1418 C1421 1.348 . S
C1418 C1422 1.356 . S
C1418 O1469 1.325 . S
C1419 N1420 1.279 . S
C1419 C1422 1.358 . S
C1419 H1476 0.930 . S
N1420 C1419 1.279 . S
N1420 C1423 1.314 . S
C1421 C1418 1.348 . S
C1421 C1423 1.353 . S
C1421 H1477 0.929 . S
C1422 C1418 1.356 . S
C1422 C1419 1.358 . S
C1422 H1478 0.930 . S
C1423 N1420 1.314 . S
C1423 C1421 1.353 . S
C1423 H1479 0.930 . S
C1424 N1425 1.314 . S
C1424 C1429 1.353 . S
C1424 H1430 0.930 . S
N1425 Li1408 1.990 . S
N1425 C1424 1.314 . S
N1425 C1427 1.279 . S
C1426 C1427 1.358 . S
C1426 C1428 1.356 . S
C1426 H1480 0.930 . S
C1427 N1425 1.279 . S
C1427 C1426 1.358 . S
C1427 H1431 0.930 . S
C1428 C1426 1.356 . S
C1428 C1429 1.348 . S
C1429 C1424 1.353 . S
C1429 C1428 1.348 . S
C1429 H1481 0.929 . S
H1430 C1424 0.930 . S
H1431 C1427 0.930 . S
C1432 N1433 1.314 . S
C1432 C1434 1.353 . S
C1432 H1438 0.930 . S
N1433 Li1409 1.990 . S
N1433 C1432 1.314 . S
N1433 C1436 1.279 . S
C1434 C1432 1.353 . S
C1434 C1437 1.348 . S
C1434 H1482 0.929 . S
C1435 C1436 1.358 . S
C1435 C1437 1.356 . S
C1435 H1483 0.930 . S
C1436 N1433 1.279 . S
C1436 C1435 1.358 . S
C1436 H1439 0.930 . S
C1437 C1434 1.348 . S
C1437 C1435 1.356 . S
H1438 C1432 0.930 . S
H1439 C1436 0.930 . S
C1440 C1442 1.348 . S
C1440 C1443 1.356 . S
C1440 O1470 1.325 . S
N1441 C1444 1.314 . S
N1441 C1445 1.279 . S
C1442 C1440 1.348 . S
C1442 C1444 1.353 . S
C1442 H1484 0.929 . S
C1443 C1440 1.356 . S
C1443 C1445 1.358 . S
C1443 H1485 0.930 . S
C1444 N1441 1.314 . S
C1444 C1442 1.353 . S
C1444 H1486 0.930 . S
C1445 N1441 1.279 . S
C1445 C1443 1.358 . S
C1445 H1487 0.930 . S
C1446 C1447 1.348 . S
C1446 C1448 1.356 . S
C1446 O1471 1.325 . S
C1447 C1446 1.348 . S
C1447 C1449 1.353 . S
C1447 H1488 0.929 . S
C1448 C1446 1.356 . S
C1448 C1450 1.358 . S
C1448 H1489 0.930 . S
C1449 C1447 1.353 . S
C1449 N1451 1.314 . S
C1449 H1490 0.930 . S
C1450 C1448 1.358 . S
C1450 N1451 1.279 . S
C1450 H1491 0.930 . S
N1451 C1449 1.314 . S
N1451 C1450 1.279 . S
C1452 C1454 1.353 . S
C1452 N1455 1.314 . S
C1452 H1458 0.930 . S
C1453 N1455 1.279 . S
C1453 C1456 1.358 . S
C1453 H1459 0.930 . S
C1454 C1452 1.353 . S
C1454 C1457 1.348 . S
C1454 H1492 0.929 . S
N1455 Li1410 1.990 . S
N1455 C1452 1.314 . S
N1455 C1453 1.279 . S
C1456 C1453 1.358 . S
C1456 C1457 1.356 . S
C1456 H1493 0.930 . S
C1457 C1454 1.348 . S
C1457 C1456 1.356 . S
H1458 C1452 0.930 . S
H1459 C1453 0.930 . S
C1460 N1461 1.314 . S
C1460 C1462 1.353 . S
C1460 H1466 0.930 . S
N1461 Li1411 1.990 . S
N1461 C1460 1.314 . S
N1461 C1464 1.279 . S
C1462 C1460 1.353 . S
C1462 C1465 1.348 . S
C1462 H1494 0.929 . S
C1463 C1464 1.358 . S
C1463 C1465 1.356 . S
C1463 H1495 0.930 . S
C1464 N1461 1.279 . S
C1464 C1463 1.358 . S
C1464 H1467 0.930 . S
C1465 C1462 1.348 . S
C1465 C1463 1.356 . S
H1466 C1460 0.930 . S
H1467 C1464 0.930 . S
O1468 Li1408 1.956 . S
O1468 Li1409 1.970 . S
O1468 Li1410 1.961 . S
O1468 C1412 1.325 . S
O1469 Li1408 1.970 . S
O1469 Li1409 1.956 . S
O1469 Li1411 1.961 . S
O1469 C1418 1.325 . S
O1470 Li1408 1.961 . S
O1470 Li1410 1.956 . S
O1470 Li1411 1.970 . S
O1470 C1440 1.325 . S
O1471 Li1409 1.961 . S
O1471 Li1410 1.970 . S
O1471 Li1411 1.956 . S
O1471 C1446 1.325 . S
H1472 C1414 0.929 . S
H1473 C1415 0.930 . S
H1474 C1416 0.930 . S
H1475 C1417 0.930 . S
H1476 C1419 0.930 . S
H1477 C1421 0.929 . S
H1478 C1422 0.930 . S
H1479 C1423 0.930 . S
H1480 C1426 0.930 . S
H1481 C1429 0.929 . S
H1482 C1434 0.929 . S
H1483 C1435 0.930 . S
H1484 C1442 0.929 . S
H1485 C1443 0.930 . S
H1486 C1444 0.930 . S
H1487 C1445 0.930 . S
H1488 C1447 0.929 . S
H1489 C1448 0.930 . S
H1490 C1449 0.930 . S
H1491 C1450 0.930 . S
H1492 C1454 0.929 . S
H1493 C1456 0.930 . S
H1494 C1462 0.929 . S
H1495 C1463 0.930 . S
Li1496 N1513 1.990 . S
Li1496 O1556 1.956 . S
Li1496 O1557 1.970 . S
Li1496 O1558 1.961 . S
Li1497 N1521 1.990 . S
Li1497 O1556 1.970 . S
Li1497 O1557 1.956 . S
Li1497 O1559 1.961 . S
Li1498 N1543 1.990 . S
Li1498 O1556 1.961 . S
Li1498 O1558 1.956 . S
Li1498 O1559 1.970 . S
Li1499 N1549 1.990 . S
Li1499 O1557 1.961 . S
Li1499 O1558 1.970 . S
Li1499 O1559 1.956 . S
C1500 C1502 1.348 . S
C1500 C1503 1.356 . S
C1500 O1556 1.325 . S
N1501 C1504 1.314 . S
N1501 C1505 1.279 . S
C1502 C1500 1.348 . S
C1502 C1504 1.353 . S
C1502 H1560 0.929 . S
C1503 C1500 1.356 . S
C1503 C1505 1.358 . S
C1503 H1561 0.930 . S
C1504 N1501 1.314 . S
C1504 C1502 1.353 . S
C1504 H1562 0.930 . S
C1505 N1501 1.279 . S
C1505 C1503 1.358 . S
C1505 H1563 0.930 . S
C1506 C1509 1.348 . S
C1506 C1510 1.356 . S
C1506 O1557 1.325 . S
C1507 N1508 1.279 . S
C1507 C1510 1.358 . S
C1507 H1564 0.930 . S
N1508 C1507 1.279 . S
N1508 C1511 1.314 . S
C1509 C1506 1.348 . S
C1509 C1511 1.353 . S
C1509 H1565 0.929 . S
C1510 C1506 1.356 . S
C1510 C1507 1.358 . S
C1510 H1566 0.930 . S
C1511 N1508 1.314 . S
C1511 C1509 1.353 . S
C1511 H1567 0.930 . S
C1512 N1513 1.314 . S
C1512 C1517 1.353 . S
C1512 H1518 0.930 . S
N1513 Li1496 1.990 . S
N1513 C1512 1.314 . S
N1513 C1515 1.279 . S
C1514 C1515 1.358 . S
C1514 C1516 1.356 . S
C1514 H1568 0.930 . S
C1515 N1513 1.279 . S
C1515 C1514 1.358 . S
C1515 H1519 0.930 . S
C1516 C1514 1.356 . S
C1516 C1517 1.348 . S
C1517 C1512 1.353 . S
C1517 C1516 1.348 . S
C1517 H1569 0.929 . S
H1518 C1512 0.930 . S
H1519 C1515 0.930 . S
C1520 N1521 1.314 . S
C1520 C1522 1.353 . S
C1520 H1526 0.930 . S
N1521 Li1497 1.990 . S
N1521 C1520 1.314 . S
N1521 C1524 1.279 . S
C1522 C1520 1.353 . S
C1522 C1525 1.348 . S
C1522 H1570 0.929 . S
C1523 C1524 1.358 . S
C1523 C1525 1.356 . S
C1523 H1571 0.930 . S
C1524 N1521 1.279 . S
C1524 C1523 1.358 . S
C1524 H1527 0.930 . S
C1525 C1522 1.348 . S
C1525 C1523 1.356 . S
H1526 C1520 0.930 . S
H1527 C1524 0.930 . S
C1528 C1530 1.348 . S
C1528 C1531 1.356 . S
C1528 O1558 1.325 . S
N1529 C1532 1.314 . S
N1529 C1533 1.279 . S
C1530 C1528 1.348 . S
C1530 C1532 1.353 . S
C1530 H1572 0.929 . S
C1531 C1528 1.356 . S
C1531 C1533 1.358 . S
C1531 H1573 0.930 . S
C1532 N1529 1.314 . S
C1532 C1530 1.353 . S
C1532 H1574 0.930 . S
C1533 N1529 1.279 . S
C1533 C1531 1.358 . S
C1533 H1575 0.930 . S
C1534 C1535 1.348 . S
C1534 C1536 1.356 . S
C1534 O1559 1.325 . S
C1535 C1534 1.348 . S
C1535 C1537 1.353 . S
C1535 H1576 0.929 . S
C1536 C1534 1.356 . S
C1536 C1538 1.358 . S
C1536 H1577 0.930 . S
C1537 C1535 1.353 . S
C1537 N1539 1.314 . S
C1537 H1578 0.930 . S
C1538 C1536 1.358 . S
C1538 N1539 1.279 . S
C1538 H1579 0.930 . S
N1539 C1537 1.314 . S
N1539 C1538 1.279 . S
C1540 C1542 1.353 . S
C1540 N1543 1.314 . S
C1540 H1546 0.930 . S
C1541 N1543 1.279 . S
C1541 C1544 1.358 . S
C1541 H1547 0.930 . S
C1542 C1540 1.353 . S
C1542 C1545 1.348 . S
C1542 H1580 0.929 . S
N1543 Li1498 1.990 . S
N1543 C1540 1.314 . S
N1543 C1541 1.279 . S
C1544 C1541 1.358 . S
C1544 C1545 1.356 . S
C1544 H1581 0.930 . S
C1545 C1542 1.348 . S
C1545 C1544 1.356 . S
H1546 C1540 0.930 . S
H1547 C1541 0.930 . S
C1548 N1549 1.314 . S
C1548 C1550 1.353 . S
C1548 H1554 0.930 . S
N1549 Li1499 1.990 . S
N1549 C1548 1.314 . S
N1549 C1552 1.279 . S
C1550 C1548 1.353 . S
C1550 C1553 1.348 . S
C1550 H1582 0.929 . S
C1551 C1552 1.358 . S
C1551 C1553 1.356 . S
C1551 H1583 0.930 . S
C1552 N1549 1.279 . S
C1552 C1551 1.358 . S
C1552 H1555 0.930 . S
C1553 C1550 1.348 . S
C1553 C1551 1.356 . S
H1554 C1548 0.930 . S
H1555 C1552 0.930 . S
O1556 Li1496 1.956 . S
O1556 Li1497 1.970 . S
O1556 Li1498 1.961 . S
O1556 C1500 1.325 . S
O1557 Li1496 1.970 . S
O1557 Li1497 1.956 . S
O1557 Li1499 1.961 . S
O1557 C1506 1.325 . S
O1558 Li1496 1.961 . S
O1558 Li1498 1.956 . S
O1558 Li1499 1.970 . S
O1558 C1528 1.325 . S
O1559 Li1497 1.961 . S
O1559 Li1498 1.970 . S
O1559 Li1499 1.956 . S
O1559 C1534 1.325 . S
H1560 C1502 0.929 . S
H1561 C1503 0.930 . S
H1562 C1504 0.930 . S
H1563 C1505 0.930 . S
H1564 C1507 0.930 . S
H1565 C1509 0.929 . S
H1566 C1510 0.930 . S
H1567 C1511 0.930 . S
H1568 C1514 0.930 . S
H1569 C1517 0.929 . S
H1570 C1522 0.929 . S
H1571 C1523 0.930 . S
H1572 C1530 0.929 . S
H1573 C1531 0.930 . S
H1574 C1532 0.930 . S
H1575 C1533 0.930 . S
H1576 C1535 0.929 . S
H1577 C1536 0.930 . S
H1578 C1537 0.930 . S
H1579 C1538 0.930 . S
H1580 C1542 0.929 . S
H1581 C1544 0.930 . S
H1582 C1550 0.929 . S
H1583 C1551 0.930 . S
C1584 C1585 1.369 . S
C1584 C1586 1.419 . S
C1584 H1588 0.930 . S
C1585 C1584 1.369 . S
C1585 C1594 1.429 . S
C1586 C1584 1.419 . S
C1586 C1587 1.363 . S
C1586 H1589 0.929 . S
C1587 C1586 1.363 . S
C1587 C1593 1.428 . S
H1588 C1584 0.930 . S
H1589 C1586 0.929 . S
S1590 N1591 1.613 . S
S1590 N1592 1.610 . S
N1591 S1590 1.613 . S
N1591 C1594 1.350 . S
N1592 S1590 1.610 . S
N1592 C1593 1.351 . S
C1593 C1587 1.428 . S
C1593 N1592 1.351 . S
C1593 C1594 1.434 . S
C1594 C1585 1.429 . S
C1594 N1591 1.350 . S
C1594 C1593 1.434 . S
C1595 C1596 1.369 . S
C1595 C1597 1.419 . S
C1595 H1599 0.930 . S
C1596 C1595 1.369 . S
C1596 C1605 1.429 . S
C1597 C1595 1.419 . S
C1597 C1598 1.363 . S
C1597 H1600 0.929 . S
C1598 C1597 1.363 . S
C1598 C1604 1.428 . S
H1599 C1595 0.930 . S
H1600 C1597 0.929 . S
S1601 N1602 1.613 . S
S1601 N1603 1.610 . S
N1602 S1601 1.613 . S
N1602 C1605 1.350 . S
N1603 S1601 1.610 . S
N1603 C1604 1.351 . S
C1604 C1598 1.428 . S
C1604 N1603 1.351 . S
C1604 C1605 1.434 . S
C1605 C1596 1.429 . S
C1605 N1602 1.350 . S
C1605 C1604 1.434 . S
C1606 C1607 1.369 . S
C1606 C1608 1.419 . S
C1606 H1610 0.930 . S
C1607 C1606 1.369 . S
C1607 C1616 1.429 . S
C1608 C1606 1.419 . S
C1608 C1609 1.363 . S
C1608 H1611 0.929 . S
C1609 C1608 1.363 . S
C1609 C1615 1.428 . S
H1610 C1606 0.930 . S
H1611 C1608 0.929 . S
S1612 N1613 1.613 . S
S1612 N1614 1.610 . S
N1613 S1612 1.613 . S
N1613 C1616 1.350 1_455 S
N1614 S1612 1.610 . S
N1614 C1615 1.351 1_455 S
C1615 C1609 1.428 . S
C1615 N1614 1.351 1_655 S
C1615 C1616 1.434 . S
C1616 C1607 1.429 . S
C1616 N1613 1.350 1_655 S
C1616 C1615 1.434 . S
C1617 C1618 1.369 . S
C1617 C1619 1.419 . S
C1617 H1621 0.930 . S
C1618 C1617 1.369 . S
C1618 C1627 1.429 . S
C1619 C1617 1.419 . S
C1619 C1620 1.363 . S
C1619 H1622 0.929 . S
C1620 C1619 1.363 . S
C1620 C1626 1.428 . S
H1621 C1617 0.930 . S
H1622 C1619 0.929 . S
S1623 N1624 1.613 . S
S1623 N1625 1.610 . S
N1624 S1623 1.613 . S
N1624 C1627 1.350 . S
N1625 S1623 1.610 . S
N1625 C1626 1.351 . S
C1626 C1620 1.428 . S
C1626 N1625 1.351 . S
C1626 C1627 1.434 . S
C1627 C1618 1.429 . S
C1627 N1624 1.350 . S
C1627 C1626 1.434 . S
C1628 C1629 1.369 . S
C1628 C1630 1.419 . S
C1628 H1632 0.930 . S
C1629 C1628 1.369 . S
C1629 C1638 1.429 . S
C1630 C1628 1.419 . S
C1630 C1631 1.363 . S
C1630 H1633 0.929 . S
C1631 C1630 1.363 . S
C1631 C1637 1.428 . S
H1632 C1628 0.930 . S
H1633 C1630 0.929 . S
S1634 N1635 1.613 . S
S1634 N1636 1.610 1_545 S
N1635 S1634 1.613 . S
N1635 C1638 1.350 1_545 S
N1636 S1634 1.610 1_565 S
N1636 C1637 1.351 . S
C1637 C1631 1.428 . S
C1637 N1636 1.351 . S
C1637 C1638 1.434 . S
C1638 C1629 1.429 . S
C1638 N1635 1.350 1_565 S
C1638 C1637 1.434 . S
C1639 C1640 1.369 . S
C1639 C1641 1.419 . S
C1639 H1643 0.930 . S
C1640 C1639 1.369 . S
C1640 C1649 1.429 . S
C1641 C1639 1.419 . S
C1641 C1642 1.363 . S
C1641 H1644 0.929 . S
C1642 C1641 1.363 . S
C1642 C1648 1.428 . S
H1643 C1639 0.930 . S
H1644 C1641 0.929 . S
S1645 N1646 1.613 . S
S1645 N1647 1.610 . S
N1646 S1645 1.613 . S
N1646 C1649 1.350 . S
N1647 S1645 1.610 . S
N1647 C1648 1.351 . S
C1648 C1642 1.428 . S
C1648 N1647 1.351 . S
C1648 C1649 1.434 . S
C1649 C1640 1.429 . S
C1649 N1646 1.350 . S
C1649 C1648 1.434 . S
C1650 C1651 1.369 . S
C1650 C1652 1.419 1_655 S
C1650 H1654 0.930 . S
C1651 C1650 1.369 . S
C1651 C1660 1.429 . S
C1652 C1650 1.419 1_455 S
C1652 C1653 1.363 . S
C1652 H1655 0.929 . S
C1653 C1652 1.363 . S
C1653 C1659 1.421 1_455 S
H1654 C1650 0.930 . S
H1655 C1652 0.929 . S
S1656 N1657 1.613 . S
S1656 N1658 1.610 . S
N1657 S1656 1.613 . S
N1657 C1660 1.350 . S
N1658 S1656 1.610 . S
N1658 C1659 1.347 . S
C1659 C1653 1.421 1_655 S
C1659 N1658 1.347 . S
C1659 C1660 1.448 . S
C1660 C1651 1.429 . S
C1660 N1657 1.350 . S
C1660 C1659 1.448 . S
C1661 C1662 1.369 . S
C1661 C1663 1.419 . S
C1661 H1665 0.930 . S
C1662 C1661 1.369 . S
C1662 C1671 1.429 . S
C1663 C1661 1.419 . S
C1663 C1664 1.363 . S
C1663 H1666 0.929 . S
C1664 C1663 1.363 . S
C1664 C1670 1.428 . S
H1665 C1661 0.930 . S
H1666 C1663 0.929 . S
S1667 N1668 1.613 . S
S1667 N1669 1.610 . S
N1668 S1667 1.613 . S
N1668 C1671 1.350 . S
N1669 S1667 1.610 . S
N1669 C1670 1.351 . S
C1670 C1664 1.428 . S
C1670 N1669 1.351 . S
C1670 C1671 1.434 . S
C1671 C1662 1.429 . S
C1671 N1668 1.350 . S
C1671 C1670 1.434 . S
C1672 C1673 1.369 . S
C1672 C1674 1.419 1_545 S
C1672 H1676 0.930 . S
C1673 C1672 1.369 . S
C1673 C1682 1.429 . S
C1674 C1672 1.419 1_565 S
C1674 C1675 1.363 . S
C1674 H1677 0.929 . S
C1675 C1674 1.363 . S
C1675 C1681 1.428 . S
H1676 C1672 0.930 . S
H1677 C1674 0.929 . S
S1678 N1679 1.613 . S
S1678 N1680 1.610 1_545 S
N1679 S1678 1.613 . S
N1679 C1682 1.350 . S
N1680 S1678 1.610 1_565 S
N1680 C1681 1.351 . S
C1681 C1675 1.428 . S
C1681 N1680 1.351 . S
C1681 C1682 1.434 1_565 S
C1682 C1673 1.429 . S
C1682 N1679 1.350 . S
C1682 C1681 1.434 1_545 S
C1683 C1684 1.369 . S
C1683 C1685 1.419 1_455 S
C1683 H1687 0.930 . S
C1684 C1683 1.369 . S
C1684 C1693 1.429 . S
C1685 C1683 1.419 1_655 S
C1685 C1686 1.363 . S
C1685 H1688 0.929 . S
C1686 C1685 1.363 . S
C1686 C1692 1.417 1_655 S
H1687 C1683 0.930 . S
H1688 C1685 0.929 . S
S1689 N1690 1.613 . S
S1689 N1691 1.610 1_455 S
N1690 S1689 1.613 . S
N1690 C1693 1.350 . S
N1691 S1689 1.610 1_655 S
N1691 C1692 1.353 1_655 S
C1692 C1686 1.417 1_455 S
C1692 N1691 1.353 1_455 S
C1692 C1693 1.444 . S
C1693 C1684 1.429 . S
C1693 N1690 1.350 . S
C1693 C1692 1.444 . S
C1694 C1695 1.369 . S
C1694 C1696 1.419 . S
C1694 H1698 0.930 . S
C1695 C1694 1.369 . S
C1695 C1704 1.429 . S
C1696 C1694 1.419 . S
C1696 C1697 1.363 . S
C1696 H1699 0.929 . S
C1697 C1696 1.363 . S
C1697 C1703 1.428 . S
H1698 C1694 0.930 . S
H1699 C1696 0.929 . S
S1700 N1701 1.613 . S
S1700 N1702 1.610 . S
N1701 S1700 1.613 . S
N1701 C1704 1.350 . S
N1702 S1700 1.610 . S
N1702 C1703 1.351 . S
C1703 C1697 1.428 . S
C1703 N1702 1.351 . S
C1703 C1704 1.434 . S
C1704 C1695 1.429 . S
C1704 N1701 1.350 . S
C1704 C1703 1.434 . S
C1705 C1706 1.369 . S
C1705 C1707 1.419 1_545 S
C1705 H1709 0.930 . S
C1706 C1705 1.369 . S
C1706 C1715 1.429 . S
C1707 C1705 1.419 1_565 S
C1707 C1708 1.363 . S
C1707 H1710 0.929 . S
C1708 C1707 1.363 . S
C1708 C1714 1.428 . S
H1709 C1705 0.930 . S
H1710 C1707 0.929 . S
S1711 N1712 1.613 1_565 S
S1711 N1713 1.610 . S
N1712 S1711 1.613 1_545 S
N1712 C1715 1.350 . S
N1713 S1711 1.610 . S
N1713 C1714 1.351 . S
C1714 C1708 1.428 . S
C1714 N1713 1.351 . S
C1714 C1715 1.434 1_565 S
C1715 C1706 1.429 . S
C1715 N1712 1.350 . S
C1715 C1714 1.434 1_545 S
C1716 C1717 1.369 1_545 S
C1716 C1718 1.419 . S
C1716 H1720 0.930 . S
C1717 C1716 1.369 1_565 S
C1717 C1726 1.429 . S
C1718 C1716 1.419 . S
C1718 C1719 1.363 . S
C1718 H1721 0.929 . S
C1719 C1718 1.363 . S
C1719 C1725 1.428 . S
H1720 C1716 0.930 . S
H1721 C1718 0.929 . S
S1722 N1723 1.613 . S
S1722 N1724 1.610 1_565 S
N1723 S1722 1.613 . S
N1723 C1726 1.350 . S
N1724 S1722 1.610 1_545 S
N1724 C1725 1.351 . S
C1725 C1719 1.428 . S
C1725 N1724 1.351 . S
C1725 C1726 1.434 1_545 S
C1726 C1717 1.429 . S
C1726 N1723 1.350 . S
C1726 C1725 1.434 1_565 S
C1727 C1728 1.369 . S
C1727 C1729 1.419 1_455 S
C1727 H1731 0.930 . S
C1728 C1727 1.369 . S
C1728 C1737 1.429 . S
C1729 C1727 1.419 1_655 S
C1729 C1730 1.363 . S
C1729 H1732 0.929 . S
C1730 C1729 1.363 . S
C1730 C1736 1.428 . S
H1731 C1727 0.930 . S
H1732 C1729 0.929 . S
S1733 N1734 1.613 1_655 S
S1733 N1735 1.610 . S
N1734 S1733 1.613 1_455 S
N1734 C1737 1.350 . S
N1735 S1733 1.610 . S
N1735 C1736 1.351 . S
C1736 C1730 1.428 . S
C1736 N1735 1.351 . S
C1736 C1737 1.434 1_655 S
C1737 C1728 1.429 . S
C1737 N1734 1.350 . S
C1737 C1736 1.434 1_455 S
C1738 C1739 1.369 . S
C1738 C1740 1.419 . S
C1738 H1742 0.930 . S
C1739 C1738 1.369 . S
C1739 C1748 1.429 . S
C1740 C1738 1.419 . S
C1740 C1741 1.363 . S
C1740 H1743 0.929 . S
C1741 C1740 1.363 . S
C1741 C1747 1.428 . S
H1742 C1738 0.930 . S
H1743 C1740 0.929 . S
S1744 N1745 1.613 . S
S1744 N1746 1.610 . S
N1745 S1744 1.613 . S
N1745 C1748 1.350 . S
N1746 S1744 1.610 . S
N1746 C1747 1.351 . S
C1747 C1741 1.428 . S
C1747 N1746 1.351 . S
C1747 C1748 1.434 . S
C1748 C1739 1.429 . S
C1748 N1745 1.350 . S
C1748 C1747 1.434 . S
C1749 C1750 1.369 . S
C1749 C1751 1.419 . S
C1749 H1753 0.930 . S
C1750 C1749 1.369 . S
C1750 C1759 1.429 . S
C1751 C1749 1.419 . S
C1751 C1752 1.363 . S
C1751 H1754 0.929 . S
C1752 C1751 1.363 . S
C1752 C1758 1.428 . S
H1753 C1749 0.930 . S
H1754 C1751 0.929 . S
S1755 N1756 1.613 . S
S1755 N1757 1.610 . S
N1756 S1755 1.613 . S
N1756 C1759 1.350 . S
N1757 S1755 1.610 . S
N1757 C1758 1.351 . S
C1758 C1752 1.428 . S
C1758 N1757 1.351 . S
C1758 C1759 1.434 . S
C1759 C1750 1.429 . S
C1759 N1756 1.350 . S
C1759 C1758 1.434 . S
C1760 C1761 1.369 . S
C1760 C1762 1.419 . S
C1760 H1764 0.930 . S
C1761 C1760 1.369 . S
C1761 C1770 1.429 . S
C1762 C1760 1.419 . S
C1762 C1763 1.363 . S
C1762 H1765 0.929 . S
C1763 C1762 1.363 . S
C1763 C1769 1.428 . S
H1764 C1760 0.930 . S
H1765 C1762 0.929 . S
S1766 N1767 1.613 . S
S1766 N1768 1.610 . S
N1767 S1766 1.613 . S
N1767 C1770 1.350 . S
N1768 S1766 1.610 . S
N1768 C1769 1.351 . S
C1769 C1763 1.428 . S
C1769 N1768 1.351 . S
C1769 C1770 1.434 . S
C1770 C1761 1.429 . S
C1770 N1767 1.350 . S
C1770 C1769 1.434 . S
C1771 C1772 1.369 . S
C1771 C1773 1.419 . S
C1771 H1775 0.930 . S
C1772 C1771 1.369 . S
C1772 C1781 1.429 . S
C1773 C1771 1.419 . S
C1773 C1774 1.363 . S
C1773 H1776 0.929 . S
C1774 C1773 1.363 . S
C1774 C1780 1.428 . S
H1775 C1771 0.930 . S
H1776 C1773 0.929 . S
S1777 N1778 1.613 . S
S1777 N1779 1.610 . S
N1778 S1777 1.613 . S
N1778 C1781 1.350 . S
N1779 S1777 1.610 . S
N1779 C1780 1.351 . S
C1780 C1774 1.428 . S
C1780 N1779 1.351 . S
C1780 C1781 1.434 . S
C1781 C1772 1.429 . S
C1781 N1778 1.350 . S
C1781 C1780 1.434 . S
C1782 C1783 1.369 . S
C1782 C1784 1.419 . S
C1782 H1786 0.930 . S
C1783 C1782 1.369 . S
C1783 C1792 1.429 . S
C1784 C1782 1.419 . S
C1784 C1785 1.363 . S
C1784 H1787 0.929 . S
C1785 C1784 1.363 . S
C1785 C1791 1.428 . S
H1786 C1782 0.930 . S
H1787 C1784 0.929 . S
S1788 N1789 1.613 . S
S1788 N1790 1.610 . S
N1789 S1788 1.613 . S
N1789 C1792 1.350 . S
N1790 S1788 1.610 . S
N1790 C1791 1.351 . S
C1791 C1785 1.428 . S
C1791 N1790 1.351 . S
C1791 C1792 1.434 . S
C1792 C1783 1.429 . S
C1792 N1789 1.350 . S
C1792 C1791 1.434 . S
C1793 C1794 1.369 . S
C1793 C1795 1.419 . S
C1793 H1797 0.930 . S
C1794 C1793 1.369 . S
C1794 C1803 1.429 . S
C1795 C1793 1.419 . S
C1795 C1796 1.363 . S
C1795 H1798 0.929 . S
C1796 C1795 1.363 . S
C1796 C1802 1.428 . S
H1797 C1793 0.930 . S
H1798 C1795 0.929 . S
S1799 N1800 1.613 . S
S1799 N1801 1.610 . S
N1800 S1799 1.613 . S
N1800 C1803 1.350 . S
N1801 S1799 1.610 . S
N1801 C1802 1.351 . S
C1802 C1796 1.428 . S
C1802 N1801 1.351 . S
C1802 C1803 1.434 . S
C1803 C1794 1.429 . S
C1803 N1800 1.350 . S
C1803 C1802 1.434 . S
C1804 C1805 1.369 . S
C1804 C1806 1.419 . S
C1804 H1808 0.930 . S
C1805 C1804 1.369 . S
C1805 C1814 1.429 . S
C1806 C1804 1.419 . S
C1806 C1807 1.363 . S
C1806 H1809 0.929 . S
C1807 C1806 1.363 . S
C1807 C1813 1.428 . S
H1808 C1804 0.930 . S
H1809 C1806 0.929 . S
S1810 N1811 1.613 . S
S1810 N1812 1.610 . S
N1811 S1810 1.613 . S
N1811 C1814 1.350 . S
N1812 S1810 1.610 . S
N1812 C1813 1.351 . S
C1813 C1807 1.428 . S
C1813 N1812 1.351 . S
C1813 C1814 1.434 . S
C1814 C1805 1.429 . S
C1814 N1811 1.350 . S
C1814 C1813 1.434 . S
C1815 C1816 1.369 . S
C1815 C1817 1.419 . S
C1815 H1819 0.930 . S
C1816 C1815 1.369 . S
C1816 C1825 1.429 . S
C1817 C1815 1.419 . S
C1817 C1818 1.363 . S
C1817 H1820 0.929 . S
C1818 C1817 1.363 . S
C1818 C1824 1.428 . S
H1819 C1815 0.930 . S
H1820 C1817 0.929 . S
S1821 N1822 1.613 . S
S1821 N1823 1.610 . S
N1822 S1821 1.613 . S
N1822 C1825 1.350 . S
N1823 S1821 1.610 . S
N1823 C1824 1.351 . S
C1824 C1818 1.428 . S
C1824 N1823 1.351 . S
C1824 C1825 1.434 . S
C1825 C1816 1.429 . S
C1825 N1822 1.350 . S
C1825 C1824 1.434 . S
C1826 C1827 1.369 . S
C1826 C1828 1.419 . S
C1826 H1830 0.930 . S
C1827 C1826 1.369 . S
C1827 C1836 1.429 . S
C1828 C1826 1.419 . S
C1828 C1829 1.363 . S
C1828 H1831 0.929 . S
C1829 C1828 1.363 . S
C1829 C1835 1.428 . S
H1830 C1826 0.930 . S
H1831 C1828 0.929 . S
S1832 N1833 1.613 . S
S1832 N1834 1.610 . S
N1833 S1832 1.613 . S
N1833 C1836 1.350 . S
N1834 S1832 1.610 . S
N1834 C1835 1.351 . S
C1835 C1829 1.428 . S
C1835 N1834 1.351 . S
C1835 C1836 1.434 . S
C1836 C1827 1.429 . S
C1836 N1833 1.350 . S
C1836 C1835 1.434 . S
C1837 C1838 1.369 . S
C1837 C1839 1.419 . S
C1837 H1841 0.930 . S
C1838 C1837 1.369 . S
C1838 C1847 1.429 . S
C1839 C1837 1.419 . S
C1839 C1840 1.363 . S
C1839 H1842 0.929 . S
C1840 C1839 1.363 . S
C1840 C1846 1.428 . S
H1841 C1837 0.930 . S
H1842 C1839 0.929 . S
S1843 N1844 1.613 . S
S1843 N1845 1.610 . S
N1844 S1843 1.613 . S
N1844 C1847 1.350 . S
N1845 S1843 1.610 . S
N1845 C1846 1.351 . S
C1846 C1840 1.428 . S
C1846 N1845 1.351 . S
C1846 C1847 1.434 . S
C1847 C1838 1.429 . S
C1847 N1844 1.350 . S
C1847 C1846 1.434 . S
C1848 C1849 1.369 . S
C1848 C1850 1.419 . S
C1848 H1852 0.930 . S
C1849 C1848 1.369 . S
C1849 C1858 1.429 . S
C1850 C1848 1.419 . S
C1850 C1851 1.363 . S
C1850 H1853 0.929 . S
C1851 C1850 1.363 . S
C1851 C1857 1.428 . S
H1852 C1848 0.930 . S
H1853 C1850 0.929 . S
S1854 N1855 1.613 . S
S1854 N1856 1.610 . S
N1855 S1854 1.613 . S
N1855 C1858 1.350 . S
N1856 S1854 1.610 . S
N1856 C1857 1.351 . S
C1857 C1851 1.428 . S
C1857 N1856 1.351 . S
C1857 C1858 1.434 . S
C1858 C1849 1.429 . S
C1858 N1855 1.350 . S
C1858 C1857 1.434 . S
C1859 C1860 1.369 . S
C1859 C1861 1.419 . S
C1859 H1863 0.930 . S
C1860 C1859 1.369 . S
C1860 C1869 1.429 . S
C1861 C1859 1.419 . S
C1861 C1862 1.363 . S
C1861 H1864 0.929 . S
C1862 C1861 1.363 . S
C1862 C1868 1.428 . S
H1863 C1859 0.930 . S
H1864 C1861 0.929 . S
S1865 N1866 1.613 . S
S1865 N1867 1.610 . S
N1866 S1865 1.613 . S
N1866 C1869 1.350 . S
N1867 S1865 1.610 . S
N1867 C1868 1.351 . S
C1868 C1862 1.428 . S
C1868 N1867 1.351 . S
C1868 C1869 1.434 . S
C1869 C1860 1.429 . S
C1869 N1866 1.350 . S
C1869 C1868 1.434 . S
C1870 C1871 1.369 . S
C1870 C1872 1.419 . S
C1870 H1874 0.930 . S
C1871 C1870 1.369 . S
C1871 C1880 1.429 . S
C1872 C1870 1.419 . S
C1872 C1873 1.363 . S
C1872 H1875 0.929 . S
C1873 C1872 1.363 . S
C1873 C1879 1.428 . S
H1874 C1870 0.930 . S
H1875 C1872 0.929 . S
S1876 N1877 1.613 . S
S1876 N1878 1.610 . S
N1877 S1876 1.613 . S
N1877 C1880 1.350 . S
N1878 S1876 1.610 . S
N1878 C1879 1.351 . S
C1879 C1873 1.428 . S
C1879 N1878 1.351 . S
C1879 C1880 1.434 . S
C1880 C1871 1.429 . S
C1880 N1877 1.350 . S
C1880 C1879 1.434 . S
C1881 C1882 1.369 . S
C1881 C1883 1.419 1_554 S
C1881 H1885 0.930 . S
C1882 C1881 1.369 . S
C1882 C1891 1.429 . S
C1883 C1881 1.419 1_556 S
C1883 C1884 1.363 . S
C1883 H1886 0.929 . S
C1884 C1883 1.363 . S
C1884 C1890 1.428 . S
H1885 C1881 0.930 . S
H1886 C1883 0.929 . S
S1887 N1888 1.613 . S
S1887 N1889 1.610 1_554 S
N1888 S1887 1.613 . S
N1888 C1891 1.350 . S
N1889 S1887 1.610 1_556 S
N1889 C1890 1.351 . S
C1890 C1884 1.428 . S
C1890 N1889 1.351 . S
C1890 C1891 1.434 1_556 S
C1891 C1882 1.429 . S
C1891 N1888 1.350 . S
C1891 C1890 1.434 1_554 S
C1892 C1893 1.369 1_565 S
C1892 C1894 1.419 1_556 S
C1892 H1896 0.930 . S
C1893 C1892 1.369 1_545 S
C1893 C1902 1.429 . S
C1894 C1892 1.419 1_554 S
C1894 C1895 1.363 . S
C1894 H1897 0.929 . S
C1895 C1894 1.363 . S
C1895 C1901 1.428 1_565 S
H1896 C1892 0.930 . S
H1897 C1894 0.929 . S
S1898 N1899 1.574 1_554 S
S1898 N1900 1.645 . S
N1899 S1898 1.574 1_556 S
N1899 C1902 1.350 . S
N1900 S1898 1.645 . S
N1900 C1901 1.351 . S
C1901 C1895 1.428 1_545 S
C1901 N1900 1.351 . S
C1901 C1902 1.434 1_554 S
C1902 C1893 1.429 . S
C1902 N1899 1.350 . S
C1902 C1901 1.434 1_556 S
C1903 C1904 1.369 . S
C1903 C1905 1.419 1_556 S
C1903 H1907 0.930 . S
C1904 C1903 1.369 . S
C1904 C1913 1.429 1_655 S
C1905 C1903 1.419 1_554 S
C1905 C1906 1.363 1_655 S
C1905 H1908 0.929 . S
C1906 C1905 1.363 1_455 S
C1906 C1912 1.428 . S
H1907 C1903 0.930 . S
H1908 C1905 0.929 . S
S1909 N1910 1.613 1_554 S
S1909 N1911 1.610 . S
N1910 S1909 1.613 1_556 S
N1910 C1913 1.350 . S
N1911 S1909 1.610 . S
N1911 C1912 1.351 . S
C1912 C1906 1.428 . S
C1912 N1911 1.351 . S
C1912 C1913 1.434 1_554 S
C1913 C1904 1.429 1_455 S
C1913 N1910 1.350 . S
C1913 C1912 1.434 1_556 S
C1914 C1915 1.369 . S
C1914 C1916 1.419 . S
C1914 H1918 0.930 . S
C1915 C1914 1.369 . S
C1915 C1924 1.429 . S
C1916 C1914 1.419 . S
C1916 C1917 1.363 . S
C1916 H1919 0.929 . S
C1917 C1916 1.363 . S
C1917 C1923 1.428 . S
H1918 C1914 0.930 . S
H1919 C1916 0.929 . S
S1920 N1921 1.613 . S
S1920 N1922 1.610 . S
N1921 S1920 1.613 . S
N1921 C1924 1.350 . S
N1922 S1920 1.610 . S
N1922 C1923 1.351 . S
C1923 C1917 1.428 . S
C1923 N1922 1.351 . S
C1923 C1924 1.434 . S
C1924 C1915 1.429 . S
C1924 N1921 1.350 . S
C1924 C1923 1.434 . S
C1925 C1926 1.369 . S
C1925 C1927 1.419 . S
C1925 H1929 0.930 . S
C1926 C1925 1.369 . S
C1926 C1935 1.429 . S
C1927 C1925 1.419 . S
C1927 C1928 1.363 . S
C1927 H1930 0.929 . S
C1928 C1927 1.363 . S
C1928 C1934 1.428 . S
H1929 C1925 0.930 . S
H1930 C1927 0.929 . S
S1931 N1932 1.613 . S
S1931 N1933 1.610 . S
N1932 S1931 1.613 . S
N1932 C1935 1.350 . S
N1933 S1931 1.610 . S
N1933 C1934 1.351 . S
C1934 C1928 1.428 . S
C1934 N1933 1.351 . S
C1934 C1935 1.434 . S
C1935 C1926 1.429 . S
C1935 N1932 1.350 . S
C1935 C1934 1.434 . S
C1936 C1937 1.369 . S
C1936 C1938 1.419 . S
C1936 H1940 0.930 . S
C1937 C1936 1.369 . S
C1937 C1946 1.429 . S
C1938 C1936 1.419 . S
C1938 C1939 1.363 . S
C1938 H1941 0.929 . S
C1939 C1938 1.363 . S
C1939 C1945 1.428 . S
H1940 C1936 0.930 . S
H1941 C1938 0.929 . S
S1942 N1943 1.613 . S
S1942 N1944 1.610 . S
N1943 S1942 1.613 . S
N1943 C1946 1.350 . S
N1944 S1942 1.610 . S
N1944 C1945 1.351 . S
C1945 C1939 1.428 . S
C1945 N1944 1.351 . S
C1945 C1946 1.434 . S
C1946 C1937 1.429 . S
C1946 N1943 1.350 . S
C1946 C1945 1.434 . S
C1947 C1948 1.369 . S
C1947 C1949 1.419 . S
C1947 H1951 0.930 . S
C1948 C1947 1.369 . S
C1948 C1957 1.429 . S
C1949 C1947 1.419 . S
C1949 C1950 1.363 . S
C1949 H1952 0.929 . S
C1950 C1949 1.363 . S
C1950 C1956 1.428 . S
H1951 C1947 0.930 . S
H1952 C1949 0.929 . S
S1953 N1954 1.613 . S
S1953 N1955 1.610 . S
N1954 S1953 1.613 . S
N1954 C1957 1.350 . S
N1955 S1953 1.610 . S
N1955 C1956 1.351 . S
C1956 C1950 1.428 . S
C1956 N1955 1.351 . S
C1956 C1957 1.434 . S
C1957 C1948 1.429 . S
C1957 N1954 1.350 . S
C1957 C1956 1.434 . S
C1958 C1959 1.369 . S
C1958 C1960 1.419 . S
C1958 H1962 0.930 . S
C1959 C1958 1.369 . S
C1959 C1968 1.429 . S
C1960 C1958 1.419 . S
C1960 C1961 1.363 . S
C1960 H1963 0.929 . S
C1961 C1960 1.363 . S
C1961 C1967 1.428 . S
H1962 C1958 0.930 . S
H1963 C1960 0.929 . S
S1964 N1965 1.613 . S
S1964 N1966 1.610 . S
N1965 S1964 1.613 . S
N1965 C1968 1.350 . S
N1966 S1964 1.610 . S
N1966 C1967 1.351 . S
C1967 C1961 1.428 . S
C1967 N1966 1.351 . S
C1967 C1968 1.434 . S
C1968 C1959 1.429 . S
C1968 N1965 1.350 . S
C1968 C1967 1.434 . S
C1969 C1970 1.369 . S
C1969 C1971 1.419 . S
C1969 H1973 0.930 . S
C1970 C1969 1.369 . S
C1970 C1979 1.429 . S
C1971 C1969 1.419 . S
C1971 C1972 1.363 . S
C1971 H1974 0.929 . S
C1972 C1971 1.363 . S
C1972 C1978 1.428 . S
H1973 C1969 0.930 . S
H1974 C1971 0.929 . S
S1975 N1976 1.613 . S
S1975 N1977 1.610 . S
N1976 S1975 1.613 . S
N1976 C1979 1.350 . S
N1977 S1975 1.610 . S
N1977 C1978 1.351 . S
C1978 C1972 1.428 . S
C1978 N1977 1.351 . S
C1978 C1979 1.434 . S
C1979 C1970 1.429 . S
C1979 N1976 1.350 . S
C1979 C1978 1.434 . S
C1585 C900 0.961 . S
C1587 C29 0.955 . S
C1596 C145 0.939 . S
C1598 C1017 0.926 . S
C1607 C812 0.940 . S
C1609 C233 0.951 . S
C1618 C1289 0.961 . S
C1620 C284 0.962 . S
C1629 C372 0.950 . S
C1631 C1085 0.939 . S
C1640 C1201 0.934 . S
C1642 C497 0.932 . S
C1651 C548 0.984 . S
C1653 C1465 0.984 . S
C1662 C1545 0.976 . S
C1664 C673 0.981 . S
C1673 C761 0.988 . S
C1675 C1340 0.980 . S
C1684 C57 1.222 . S
C1686 C108 1.431 . S
C1695 C117 1.191 . S
C1697 C196 1.350 . S
C1706 C49 1.426 . S
C1708 C205 1.228 . S
C1717 C460 1.431 . S
C1719 C313 1.232 . S
C1728 C321 1.426 . S
C1730 C401 1.230 . S
C1739 C469 1.187 . S
C1741 C409 1.350 . S
C1750 C577 1.262 . S
C1752 C636 1.475 . S
C1761 C645 1.236 . S
C1763 C724 1.444 . S
C1772 C585 1.429 . S
C1774 C733 1.223 . S
C1783 C997 1.479 . S
C1785 C841 1.263 . S
C1794 C849 1.417 . S
C1796 C929 1.222 . S
C1805 C937 1.448 . S
C1807 C988 1.225 . S
C1816 C1164 1.479 . S
C1818 C1113 1.266 . S
C1827 C1252 1.445 . S
C1829 C1173 1.238 . S
C1838 C1105 1.419 . S
C1840 C1261 1.211 . S
C1849 C1369 1.264 . S
C1851 C1525 1.474 . S
C1860 C1437 1.235 . S
C1862 C1377 1.427 . S
C1871 C1516 1.237 . S
C1873 C1428 1.444 . S
C1882 C20 1.672 . S
C1884 C293 1.671 . S
C1893 C381 1.625 . S
C1895 C137 1.609 . S
C1904 C489 1.613 . S
C1906 C225 1.624 . S
C1915 C821 1.676 . S
C1917 C557 1.677 . S
C1926 C909 1.652 . S
C1928 C665 1.655 . S
C1937 C753 1.673 . S
C1939 C1025 1.675 . S
C1948 C1349 1.676 . S
C1950 C1076 1.676 . S
C1959 C1457 1.670 . S
C1961 C1193 1.675 . S
C1970 C1553 1.654 . S
C1972 C1281 1.648 . S
