# Generated by pormake.
# Topology uto, (3)-cn, num edge types: 1
# Building blocks:
#     Node 0, Type 0, BuildingBlock: OLANEW_clean_sbu_2, # of connection points: 3
#     Node 1, Type 0, BuildingBlock: OLANEW_clean_sbu_2, # of connection points: 3
#     Node 2, Type 0, BuildingBlock: OLANEW_clean_sbu_2, # of connection points: 3
#     Node 3, Type 0, BuildingBlock: OLANEW_clean_sbu_2, # of connection points: 3
#     Node 4, Type 0, BuildingBlock: OLANEW_clean_sbu_2, # of connection points: 3
#     Node 5, Type 0, BuildingBlock: OLANEW_clean_sbu_2, # of connection points: 3
#     Node 6, Type 0, BuildingBlock: OLANEW_clean_sbu_2, # of connection points: 3
#     Node 7, Type 0, BuildingBlock: OLANEW_clean_sbu_2, # of connection points: 3
#     Node 8, Type 0, BuildingBlock: OLANEW_clean_sbu_2, # of connection points: 3
#     Node 9, Type 0, BuildingBlock: OLANEW_clean_sbu_2, # of connection points: 3
#     Node 10, Type 0, BuildingBlock: OLANEW_clean_sbu_2, # of connection points: 3
#     Node 11, Type 0, BuildingBlock: OLANEW_clean_sbu_2, # of connection points: 3
#     Node 12, Type 0, BuildingBlock: OLANEW_clean_sbu_2, # of connection points: 3
#     Node 13, Type 0, BuildingBlock: OLANEW_clean_sbu_2, # of connection points: 3
#     Node 14, Type 0, BuildingBlock: OLANEW_clean_sbu_2, # of connection points: 3
#     Node 15, Type 0, BuildingBlock: OLANEW_clean_sbu_2, # of connection points: 3
#     Node 16, Type 0, BuildingBlock: OLANEW_clean_sbu_2, # of connection points: 3
#     Node 17, Type 0, BuildingBlock: OLANEW_clean_sbu_2, # of connection points: 3
#     Node 18, Type 0, BuildingBlock: OLANEW_clean_sbu_2, # of connection points: 3
#     Node 19, Type 0, BuildingBlock: OLANEW_clean_sbu_2, # of connection points: 3
#     Node 20, Type 0, BuildingBlock: OLANEW_clean_sbu_2, # of connection points: 3
#     Node 21, Type 0, BuildingBlock: OLANEW_clean_sbu_2, # of connection points: 3
#     Node 22, Type 0, BuildingBlock: OLANEW_clean_sbu_2, # of connection points: 3
#     Node 23, Type 0, BuildingBlock: OLANEW_clean_sbu_2, # of connection points: 3
#     Node 24, Type 0, BuildingBlock: OLANEW_clean_sbu_2, # of connection points: 3
#     Node 25, Type 0, BuildingBlock: OLANEW_clean_sbu_2, # of connection points: 3
#     Node 26, Type 0, BuildingBlock: OLANEW_clean_sbu_2, # of connection points: 3
#     Node 27, Type 0, BuildingBlock: OLANEW_clean_sbu_2, # of connection points: 3
#     Node 28, Type 0, BuildingBlock: OLANEW_clean_sbu_2, # of connection points: 3
#     Node 29, Type 0, BuildingBlock: OLANEW_clean_sbu_2, # of connection points: 3
#     Node 30, Type 0, BuildingBlock: OLANEW_clean_sbu_2, # of connection points: 3
#     Node 31, Type 0, BuildingBlock: OLANEW_clean_sbu_2, # of connection points: 3
#     Edge 32, Type (0, 0), BuildingBlock: XIVTED_clean_linker_0, # of connection points: 2
#     Edge 33, Type (0, 0), BuildingBlock: XIVTED_clean_linker_0, # of connection points: 2
#     Edge 34, Type (0, 0), BuildingBlock: XIVTED_clean_linker_0, # of connection points: 2
#     Edge 35, Type (0, 0), BuildingBlock: XIVTED_clean_linker_0, # of connection points: 2
#     Edge 36, Type (0, 0), BuildingBlock: XIVTED_clean_linker_0, # of connection points: 2
#     Edge 37, Type (0, 0), BuildingBlock: XIVTED_clean_linker_0, # of connection points: 2
#     Edge 38, Type (0, 0), BuildingBlock: XIVTED_clean_linker_0, # of connection points: 2
#     Edge 39, Type (0, 0), BuildingBlock: XIVTED_clean_linker_0, # of connection points: 2
#     Edge 40, Type (0, 0), BuildingBlock: XIVTED_clean_linker_0, # of connection points: 2
#     Edge 41, Type (0, 0), BuildingBlock: XIVTED_clean_linker_0, # of connection points: 2
#     Edge 42, Type (0, 0), BuildingBlock: XIVTED_clean_linker_0, # of connection points: 2
#     Edge 43, Type (0, 0), BuildingBlock: XIVTED_clean_linker_0, # of connection points: 2
#     Edge 44, Type (0, 0), BuildingBlock: XIVTED_clean_linker_0, # of connection points: 2
#     Edge 45, Type (0, 0), BuildingBlock: XIVTED_clean_linker_0, # of connection points: 2
#     Edge 46, Type (0, 0), BuildingBlock: XIVTED_clean_linker_0, # of connection points: 2
#     Edge 47, Type (0, 0), BuildingBlock: XIVTED_clean_linker_0, # of connection points: 2
#     Edge 48, Type (0, 0), BuildingBlock: XIVTED_clean_linker_0, # of connection points: 2
#     Edge 49, Type (0, 0), BuildingBlock: XIVTED_clean_linker_0, # of connection points: 2
#     Edge 50, Type (0, 0), BuildingBlock: XIVTED_clean_linker_0, # of connection points: 2
#     Edge 51, Type (0, 0), BuildingBlock: XIVTED_clean_linker_0, # of connection points: 2
#     Edge 52, Type (0, 0), BuildingBlock: XIVTED_clean_linker_0, # of connection points: 2
#     Edge 53, Type (0, 0), BuildingBlock: XIVTED_clean_linker_0, # of connection points: 2
#     Edge 54, Type (0, 0), BuildingBlock: XIVTED_clean_linker_0, # of connection points: 2
#     Edge 55, Type (0, 0), BuildingBlock: XIVTED_clean_linker_0, # of connection points: 2
#     Edge 56, Type (0, 0), BuildingBlock: XIVTED_clean_linker_0, # of connection points: 2
#     Edge 57, Type (0, 0), BuildingBlock: XIVTED_clean_linker_0, # of connection points: 2
#     Edge 58, Type (0, 0), BuildingBlock: XIVTED_clean_linker_0, # of connection points: 2
#     Edge 59, Type (0, 0), BuildingBlock: XIVTED_clean_linker_0, # of connection points: 2
#     Edge 60, Type (0, 0), BuildingBlock: XIVTED_clean_linker_0, # of connection points: 2
#     Edge 61, Type (0, 0), BuildingBlock: XIVTED_clean_linker_0, # of connection points: 2
#     Edge 62, Type (0, 0), BuildingBlock: XIVTED_clean_linker_0, # of connection points: 2
#     Edge 63, Type (0, 0), BuildingBlock: XIVTED_clean_linker_0, # of connection points: 2
#     Edge 64, Type (0, 0), BuildingBlock: XIVTED_clean_linker_0, # of connection points: 2
#     Edge 65, Type (0, 0), BuildingBlock: XIVTED_clean_linker_0, # of connection points: 2
#     Edge 66, Type (0, 0), BuildingBlock: XIVTED_clean_linker_0, # of connection points: 2
#     Edge 67, Type (0, 0), BuildingBlock: XIVTED_clean_linker_0, # of connection points: 2
#     Edge 68, Type (0, 0), BuildingBlock: XIVTED_clean_linker_0, # of connection points: 2
#     Edge 69, Type (0, 0), BuildingBlock: XIVTED_clean_linker_0, # of connection points: 2
#     Edge 70, Type (0, 0), BuildingBlock: XIVTED_clean_linker_0, # of connection points: 2
#     Edge 71, Type (0, 0), BuildingBlock: XIVTED_clean_linker_0, # of connection points: 2
#     Edge 72, Type (0, 0), BuildingBlock: XIVTED_clean_linker_0, # of connection points: 2
#     Edge 73, Type (0, 0), BuildingBlock: XIVTED_clean_linker_0, # of connection points: 2
#     Edge 74, Type (0, 0), BuildingBlock: XIVTED_clean_linker_0, # of connection points: 2
#     Edge 75, Type (0, 0), BuildingBlock: XIVTED_clean_linker_0, # of connection points: 2
#     Edge 76, Type (0, 0), BuildingBlock: XIVTED_clean_linker_0, # of connection points: 2
#     Edge 77, Type (0, 0), BuildingBlock: XIVTED_clean_linker_0, # of connection points: 2
#     Edge 78, Type (0, 0), BuildingBlock: XIVTED_clean_linker_0, # of connection points: 2
#     Edge 79, Type (0, 0), BuildingBlock: XIVTED_clean_linker_0, # of connection points: 2
# Relax obj value: 0.003
# Max RMSD: 0.061
# Mean RMSD: 0.060
data_MOF--net-uto--node1-OLANEW_clean_sbu_2--edge1-XIVTED_clean_linker_0
_symmetry_space_group_name_H-M    P1
_symmetry_Int_Tables_number       1
_symmetry_cell_setting            triclinic
loop_
_symmetry_equiv_pos_as_xyz
'x, y, z'
_cell_length_a     55.652931
_cell_length_b     55.710366
_cell_length_c     87.549032
_cell_angle_alpha  90.001948
_cell_angle_beta   90.036002
_cell_angle_gamma 89.975831
loop_
_atom_site_label
_atom_site_type_symbol
_atom_site_fract_x
_atom_site_fract_y
_atom_site_fract_z
_atom_type_partial_charge
O0 O 0.24391 0.08217 0.28924 0.0
Cd1 Cd 0.25442 0.11242 0.30844 0.0
O2 O 0.20921 0.07262 0.2996 0.0
Cd3 Cd 0.21831 0.09351 0.31976 0.0
O4 O 0.24241 0.08987 0.33923 0.0
C5 C 0.25972 0.07538 0.33703 0.0
O6 O 0.26195 0.06528 0.32354 0.0
C7 C 0.22451 0.07007 0.28894 0.0
C8 C 0.25479 0.15914 0.29702 0.0
O9 O 0.27381 0.14615 0.29681 0.0
O10 O 0.23555 0.14995 0.30254 0.0
O11 O 0.14617 0.02294 0.52093 0.0
Cd12 Cd 0.11087 0.0366 0.53534 0.0
O13 O 0.14635 0.9867 0.53091 0.0
Cd14 Cd 0.12114 0.9984 0.5484 0.0
O15 O 0.12517 0.01985 0.56908 0.0
C16 C 0.1409 0.03634 0.56816 0.0
O17 O 0.15178 0.03982 0.55503 0.0
C18 C 0.15509 0.00191 0.52162 0.0
C19 C 0.06722 0.03416 0.51964 0.0
O20 O 0.08036 0.05303 0.51906 0.0
O21 O 0.07494 0.01623 0.52741 0.0
O22 O 0.22894 0.89887 0.7666 0.0
Cd23 Cd 0.22079 0.86445 0.78332 0.0
O24 O 0.26684 0.90244 0.77338 0.0
Cd25 Cd 0.26047 0.87867 0.79269 0.0
O26 O 0.24211 0.88434 0.8144 0.0
C27 C 0.22556 0.90006 0.8138 0.0
O28 O 0.22046 0.90988 0.80054 0.0
C29 C 0.24925 0.90913 0.76514 0.0
C30 C 0.22304 0.81984 0.76881 0.0
O31 O 0.20331 0.83169 0.76945 0.0
O32 O 0.24181 0.82926 0.77483 0.0
O33 O 0.33524 0.97423 0.02836 0.0
Cd34 Cd 0.36725 0.96258 0.0461 0.0
O35 O 0.33448 0.01244 0.03473 0.0
Cd36 Cd 0.35691 0.00439 0.05446 0.0
O37 O 0.35561 0.98399 0.07569 0.0
C38 C 0.33869 0.96867 0.07611 0.0
O39 O 0.32464 0.96647 0.06412 0.0
C40 C 0.32696 0.99532 0.0264 0.0
C41 C 0.41324 0.96866 0.03412 0.0
O42 O 0.40181 0.94889 0.03235 0.0
O43 O 0.40284 0.98563 0.04147 0.0
O44 O 0.19844 0.91241 0.21977 0.0
Cd45 Cd 0.19644 0.87778 0.20253 0.0
O46 O 0.23571 0.92096 0.21337 0.0
Cd47 Cd 0.24049 0.89374 0.19583 0.0
O48 O 0.25882 0.89062 0.17398 0.0
C49 C 0.27975 0.89973 0.17361 0.0
O50 O 0.28903 0.90811 0.18634 0.0
C51 C 0.21701 0.92552 0.22117 0.0
C52 C 0.21389 0.83515 0.21516 0.0
O53 O 0.19192 0.84143 0.21698 0.0
O54 O 0.22765 0.84914 0.20752 0.0
O55 O 0.33092 0.98824 0.47255 0.0
Cd56 Cd 0.36822 0.98525 0.45768 0.0
O57 O 0.31698 0.95392 0.46381 0.0
Cd58 Cd 0.3435 0.9542 0.44554 0.0
O59 O 0.34487 0.97544 0.42464 0.0
C60 C 0.33627 0.99648 0.42602 0.0
O61 O 0.32929 0.00369 0.4396 0.0
C62 C 0.31485 0.97197 0.47261 0.0
C63 C 0.40901 0.00463 0.47154 0.0
O64 O 0.3957 0.01741 0.46277 0.0
O65 O 0.40275 0.98283 0.474 0.0
O66 O 0.23896 0.08028 0.70982 0.0
Cd67 Cd 0.23568 0.117 0.69443 0.0
O68 O 0.27297 0.06896 0.69922 0.0
Cd69 Cd 0.26802 0.09522 0.68109 0.0
O70 O 0.24511 0.09918 0.66104 0.0
C71 C 0.22458 0.08934 0.66221 0.0
O72 O 0.2187 0.07915 0.67522 0.0
C73 C 0.25654 0.06568 0.70909 0.0
C74 C 0.22763 0.15891 0.71114 0.0
O75 O 0.21006 0.14637 0.70605 0.0
O76 O 0.24903 0.15142 0.70854 0.0
O77 O 0.17086 0.99726 0.95486 0.0
Cd78 Cd 0.138 0.99648 0.9362 0.0
O79 O 0.18518 0.03203 0.94719 0.0
Cd80 Cd 0.16334 0.02963 0.92663 0.0
O81 O 0.16205 0.00793 0.90592 0.0
C82 C 0.17292 0.98792 0.90699 0.0
O83 O 0.1827 0.98203 0.92013 0.0
C84 C 0.18574 0.01444 0.95644 0.0
C85 C 0.09309 0.98898 0.9495 0.0
O86 O 0.10577 0.97132 0.94469 0.0
O87 O 0.10173 0.0102 0.94809 0.0
O88 O 0.81052 0.87213 0.7345 0.0
Cd89 Cd 0.81931 0.83155 0.72518 0.0
O90 O 0.79159 0.87806 0.71291 0.0
Cd91 Cd 0.77392 0.89975 0.6954 0.0
O92 O 0.75832 0.91924 0.67619 0.0
C93 C 0.76582 0.9401 0.67281 0.0
O94 O 0.7828 0.94989 0.68117 0.0
C95 C 0.79881 0.88605 0.72572 0.0
C96 C 0.79881 0.79355 0.74144 0.0
O97 O 0.8196 0.80176 0.74499 0.0
O98 O 0.78744 0.80373 0.73047 0.0
O99 O 0.82436 0.03811 0.47406 0.0
Cd100 Cd 0.85838 0.02937 0.45712 0.0
O101 O 0.81162 1.00074 0.47424 0.0
Cd102 Cd 0.83636 0.99036 0.45609 0.0
O103 O 0.84385 0.98632 0.43175 0.0
C104 C 0.83619 0.003 0.42311 0.0
O105 O 0.82571 0.02172 0.42937 0.0
C106 C 0.80967 0.02231 0.47885 0.0
C107 C 0.9032 0.02996 0.47155 0.0
O108 O 0.89441 0.04899 0.4655 0.0
O109 O 0.89064 0.01069 0.47097 0.0
O110 O 0.69553 0.08901 0.24638 0.0
Cd111 Cd 0.67888 0.12749 0.23795 0.0
O112 O 0.71629 0.0889 0.22517 0.0
Cd113 Cd 0.73806 0.07282 0.20709 0.0
O114 O 0.7531 0.06129 0.18525 0.0
C115 C 0.74256 0.04486 0.17772 0.0
O116 O 0.72334 0.0347 0.18355 0.0
C117 C 0.71025 0.07853 0.23752 0.0
C118 C 0.70096 0.16834 0.24994 0.0
O119 O 0.68281 0.15876 0.25658 0.0
O120 O 0.70901 0.15827 0.23781 0.0
O121 O 0.65616 0.99399 0.98362 0.0
Cd122 Cd 0.61779 0.00392 0.97148 0.0
O123 O 0.66918 0.02399 0.9699 0.0
Cd124 Cd 0.6953 0.04655 0.95805 0.0
O125 O 0.70904 0.06436 0.93764 0.0
C126 C 0.72886 0.05811 0.93165 0.0
O127 O 0.74197 0.04166 0.93846 0.0
C128 C 0.67352 0.0071 0.97926 0.0
C129 C 0.57646 0.99447 0.98839 0.0
O130 O 0.58562 0.97844 0.97963 0.0
O131 O 0.58724 0.01473 0.98946 0.0
O132 O 0.78788 0.06518 0.77017 0.0
Cd133 Cd 0.78258 0.10076 0.78641 0.0
O134 O 0.74956 0.05556 0.77086 0.0
Cd135 Cd 0.74188 0.08246 0.7883 0.0
O136 O 0.73999 0.09154 0.81254 0.0
C137 C 0.75726 0.08414 0.82082 0.0
O138 O 0.77532 0.07302 0.81424 0.0
C139 C 0.77074 0.05149 0.76607 0.0
C140 C 0.78193 0.145 0.77133 0.0
O141 O 0.80161 0.13602 0.77637 0.0
O142 O 0.7626 0.1328 0.77311 0.0
O143 O 0.64002 0.08154 0.51889 0.0
Cd144 Cd 0.60114 0.09389 0.52938 0.0
O145 O 0.64446 0.05876 0.53906 0.0
Cd146 Cd 0.6642 0.03581 0.55497 0.0
O147 O 0.68093 0.01538 0.57338 0.0
C148 C 0.69703 0.02515 0.58159 0.0
O149 O 0.70363 0.04729 0.57856 0.0
C150 C 0.65271 0.06685 0.52653 0.0
C151 C 0.56112 0.07328 0.51529 0.0
O152 O 0.56976 0.09329 0.5106 0.0
O153 O 0.57168 0.0628 0.52647 0.0
O154 O 0.75907 0.89466 0.25478 0.0
Cd155 Cd 0.77427 0.85603 0.26407 0.0
O156 O 0.78575 0.90868 0.27075 0.0
Cd157 Cd 0.80332 0.93522 0.28535 0.0
O158 O 0.81821 0.94926 0.30664 0.0
C159 C 0.81104 0.96892 0.3124 0.0
O160 O 0.79504 0.98179 0.30498 0.0
C161 C 0.76916 0.91258 0.26107 0.0
C162 C 0.76237 0.81513 0.24731 0.0
O163 O 0.74847 0.82299 0.25786 0.0
O164 O 0.78151 0.82706 0.24436 0.0
O165 O 0.85487 0.95841 0.00593 0.0
Cd166 Cd 0.89356 0.94731 0.01724 0.0
O167 O 0.84909 0.97863 0.02701 0.0
Cd168 Cd 0.82817 0.99803 0.04417 0.0
O169 O 0.81311 0.01098 0.06568 0.0
C170 C 0.79715 0.99861 0.07243 0.0
O171 O 0.78945 0.97875 0.06597 0.0
C172 C 0.84139 0.97161 0.01409 0.0
C173 C 0.93408 0.95773 -0.00029 0.0
O174 O 0.92348 0.93737 -0.00139 0.0
O175 O 0.92516 0.97337 0.00883 0.0
O176 O 0.72117 0.56433 0.78653 0.0
Cd177 Cd 0.71626 0.6006 0.80217 0.0
O178 O 0.68244 0.5573 0.78407 0.0
Cd179 Cd 0.67517 0.58309 0.80219 0.0
O180 O 0.68619 0.58209 0.82609 0.0
C181 C 0.68679 0.56093 0.8315 0.0
O182 O 0.67923 0.54314 0.82289 0.0
C183 C 0.7041 0.55195 0.78088 0.0
C184 C 0.73372 0.64256 0.78862 0.0
O185 O 0.74717 0.62961 0.7972 0.0
O186 O 0.71211 0.63551 0.78628 0.0
O187 O 0.67963 0.5492 0.00316 0.0
Cd188 Cd 0.64295 0.5605 0.01707 0.0
O189 O 0.67666 0.51064 0.00825 0.0
Cd190 Cd 0.6496 0.51813 0.02554 0.0
O191 O 0.64904 0.53335 0.04849 0.0
C192 C 0.66527 0.54895 0.0509 0.0
O193 O 0.67946 0.55508 0.03957 0.0
C194 C 0.68741 0.52785 0.0016 0.0
C195 C 0.59953 0.55326 0.00165 0.0
O196 O 0.61087 0.57322 0.0006 0.0
O197 O 0.60899 0.53652 0.0097 0.0
O198 O 0.78212 0.40369 0.27725 0.0
Cd199 Cd 0.78662 0.37008 0.29512 0.0
O200 O 0.74472 0.41111 0.28396 0.0
Cd201 Cd 0.74173 0.38527 0.30249 0.0
O202 O 0.72475 0.38525 0.32489 0.0
C203 C 0.70399 0.39477 0.32521 0.0
O204 O 0.69413 0.40151 0.31226 0.0
C205 C 0.76294 0.4159 0.27577 0.0
C206 C 0.76864 0.32632 0.28449 0.0
O207 O 0.75562 0.34047 0.29253 0.0
O208 O 0.7901 0.33297 0.28129 0.0
O209 O 0.85899 0.51064 0.52356 0.0
Cd210 Cd 0.89231 0.49432 0.53865 0.0
O211 O 0.8344 0.50768 0.54314 0.0
Cd212 Cd 0.85859 0.48852 0.55848 0.0
O213 O 0.86018 0.46267 0.57715 0.0
C214 C 0.86564 0.46921 0.5906 0.0
O215 O 0.8724 0.4915 0.59296 0.0
C216 C 0.83833 0.51396 0.52941 0.0
C217 C 0.9368 0.49542 0.52388 0.0
O218 O 0.92296 0.4771 0.52279 0.0
O219 O 0.92945 0.51335 0.53177 0.0
O220 O 0.76519 0.38926 0.72792 0.0
Cd221 Cd 0.78085 0.35612 0.71232 0.0
O222 O 0.73351 0.3949 0.71331 0.0
Cd223 Cd 0.74844 0.37181 0.69563 0.0
O224 O 0.77396 0.37439 0.67681 0.0
C225 C 0.79186 0.388 0.67933 0.0
O226 O 0.7942 0.3977 0.69293 0.0
C227 C 0.74557 0.40022 0.72518 0.0
C228 C 0.7804 0.31109 0.72642 0.0
O229 O 0.76211 0.31869 0.71893 0.0
O230 O 0.7987 0.32496 0.72746 0.0
O231 O 0.87222 0.49651 0.97562 0.0
Cd232 Cd 0.91196 0.48632 0.96541 0.0
O233 O 0.85932 0.4882 0.95256 0.0
Cd234 Cd 0.83073 0.48856 0.93548 0.0
O235 O 0.80143 0.49647 0.91974 0.0
C236 C 0.79393 0.51795 0.91868 0.0
O237 O 0.80391 0.53463 0.92719 0.0
C238 C 0.85493 0.4946 0.9662 0.0
C239 C 0.9515 0.49944 0.98321 0.0
O240 O 0.94238 0.51404 0.97348 0.0
O241 O 0.94152 0.47886 0.98481 0.0
O242 O 0.73653 0.57362 0.2083 0.0
Cd243 Cd 0.72659 0.60602 0.19042 0.0
O244 O 0.77128 0.56467 0.19779 0.0
Cd245 Cd 0.76392 0.58883 0.17882 0.0
O246 O 0.74569 0.59477 0.15712 0.0
C247 C 0.72603 0.58351 0.15532 0.0
O248 O 0.71783 0.57036 0.16664 0.0
C249 C 0.7557 0.56114 0.20816 0.0
C250 C 0.73341 0.65192 0.20243 0.0
O251 O 0.71339 0.64086 0.20411 0.0
O252 O 0.75029 0.64116 0.19519 0.0
O253 O 0.67198 0.54087 0.4714 0.0
Cd254 Cd 0.63597 0.53919 0.45529 0.0
O255 O 0.69547 0.5395 0.45123 0.0
Cd256 Cd 0.66713 0.52989 0.4352 0.0
O257 O 0.65796 0.50418 0.41739 0.0
C258 C 0.66594 0.48304 0.41946 0.0
O259 O 0.67723 0.47816 0.43228 0.0
C260 C 0.69292 0.54163 0.46559 0.0
C261 C 0.59486 0.52206 0.46992 0.0
O262 O 0.60042 0.54438 0.47039 0.0
O263 O 0.60895 0.50778 0.46273 0.0
O264 O 0.26118 0.40422 0.24693 0.0
Cd265 Cd 0.2552 0.36589 0.23379 0.0
O266 O 0.23046 0.41545 0.23315 0.0
Cd267 Cd 0.20638 0.44047 0.22151 0.0
O268 O 0.18694 0.4572 0.20269 0.0
C269 C 0.19239 0.4781 0.19803 0.0
O270 O 0.20914 0.49022 0.20528 0.0
C271 C 0.24686 0.42071 0.24271 0.0
C272 C 0.25699 0.32431 0.25145 0.0
O273 O 0.27608 0.333 0.24541 0.0
O274 O 0.2372 0.33573 0.24954 0.0
O275 O 0.35602 0.52787 0.96166 0.0
Cd276 Cd 0.38936 0.52656 0.94337 0.0
O277 O 0.35253 0.48855 0.96219 0.0
Cd278 Cd 0.377 0.48309 0.94305 0.0
O279 O 0.37989 0.47519 0.91871 0.0
C280 C 0.37297 0.49116 0.90931 0.0
O281 O 0.36642 0.51225 0.91458 0.0
C282 C 0.346 0.5091 0.96695 0.0
C283 C 0.43474 0.53171 0.95666 0.0
O284 O 0.42298 0.54999 0.95185 0.0
O285 O 0.42493 0.51099 0.95537 0.0
O286 O 0.22158 0.57631 0.72281 0.0
Cd287 Cd 0.22784 0.61135 0.70631 0.0
O288 O 0.25999 0.57182 0.72807 0.0
Cd289 Cd 0.27028 0.59698 0.71014 0.0
O290 O 0.27884 0.60115 0.68594 0.0
C291 C 0.26377 0.59262 0.67647 0.0
O292 O 0.24366 0.58339 0.68169 0.0
C293 C 0.23826 0.56545 0.72999 0.0
C294 C 0.22607 0.65562 0.72127 0.0
O295 O 0.20705 0.64606 0.71569 0.0
O296 O 0.24589 0.64406 0.72 0.0
O297 O 0.17985 0.48706 0.47866 0.0
Cd298 Cd 0.14555 0.49305 0.46147 0.0
O299 O 0.1907 0.52499 0.4777 0.0
Cd300 Cd 0.16513 0.53345 0.45959 0.0
O301 O 0.15815 0.53883 0.43529 0.0
C302 C 0.16329 0.52165 0.42632 0.0
O303 O 0.17079 0.50126 0.43216 0.0
C304 C 0.19379 0.5039 0.4829 0.0
C305 C 0.10085 0.49293 0.47596 0.0
O306 O 0.11 0.47352 0.47066 0.0
O307 O 0.11299 0.51236 0.47459 0.0
O308 O 0.29097 0.60403 0.26495 0.0
Cd309 Cd 0.30147 0.64399 0.27446 0.0
O310 O 0.26127 0.60391 0.28129 0.0
Cd311 Cd 0.23319 0.58803 0.29552 0.0
O312 O 0.21117 0.57733 0.31497 0.0
C313 C 0.20922 0.55544 0.31884 0.0
O314 O 0.21987 0.53891 0.31055 0.0
C315 C 0.27344 0.5931 0.27111 0.0
C316 C 0.28043 0.68258 0.25919 0.0
O317 O 0.30087 0.67424 0.25502 0.0
O318 O 0.26966 0.67228 0.27035 0.0
O319 O 0.18641 0.5416 0.03329 0.0
Cd320 Cd 0.15143 0.54685 0.05002 0.0
O321 O 0.19116 0.50358 0.03936 0.0
Cd322 Cd 0.16411 0.50448 0.05735 0.0
O323 O 0.15394 0.50313 0.08137 0.0
C324 C 0.16107 0.52002 0.09001 0.0
O325 O 0.17252 0.53827 0.0839 0.0
C326 C 0.19756 0.52183 0.03165 0.0
C327 C 0.10766 0.53622 0.03584 0.0
O328 O 0.11668 0.55737 0.0352 0.0
O329 O 0.11943 0.52003 0.04308 0.0
O330 O 0.19608 0.39225 0.77447 0.0
Cd331 Cd 0.19051 0.35288 0.78643 0.0
O332 O 0.23022 0.39424 0.7867 0.0
Cd333 Cd 0.26469 0.40785 0.79513 0.0
O334 O 0.29347 0.42008 0.81018 0.0
C335 C 0.29813 0.44229 0.81166 0.0
O336 O 0.28613 0.45793 0.8034 0.0
C337 C 0.21479 0.40411 0.77797 0.0
C338 C 0.20002 0.31317 0.76794 0.0
O339 O 0.17889 0.32229 0.76864 0.0
O340 O 0.21678 0.32319 0.77571 0.0
O341 O 0.36523 0.45104 0.52352 0.0
Cd342 Cd 0.40458 0.44033 0.53403 0.0
O343 O 0.36433 0.48079 0.53982 0.0
Cd344 Cd 0.34811 0.50972 0.55318 0.0
O345 O 0.33524 0.53346 0.57121 0.0
C346 C 0.31288 0.53631 0.57351 0.0
O347 O 0.29748 0.52545 0.56446 0.0
C348 C 0.35412 0.4688 0.52929 0.0
C349 C 0.44391 0.45917 0.51834 0.0
O350 O 0.43534 0.4385 0.51491 0.0
O351 O 0.43358 0.47113 0.52899 0.0
H352 H 0.34463 0.98598 0.39583 0.0
H353 H 0.25996 0.09184 0.36657 0.0
H354 H 0.31511 0.04069 0.42529 0.0
H355 H 0.29532 0.0416 0.33649 0.0
H356 H 0.28316 0.07572 0.38794 0.0
H357 H 0.33012 0.00841 0.37366 0.0
C358 C 0.33538 0.00285 0.39763 0.0
C359 C 0.33079 0.01129 0.41244 0.0
C360 C 0.28603 0.06839 0.37664 0.0
C361 C 0.31393 0.03694 0.38715 0.0
C362 C 0.27277 0.07759 0.36443 0.0
C363 C 0.27547 0.06785 0.34976 0.0
C364 C 0.30197 0.04919 0.37417 0.0
C365 C 0.29247 0.04951 0.34763 0.0
C366 C 0.32707 0.01565 0.38497 0.0
C367 C 0.31883 0.03334 0.41409 0.0
N368 N 0.30487 0.0406 0.35974 0.0
N369 N 0.31057 0.04524 0.40162 0.0
H370 H 0.17479 0.0717 0.56988 0.0
H371 H 0.18036 0.06812 0.66097 0.0
H372 H 0.12628 0.03023 0.59786 0.0
H373 H 0.23266 0.1043 0.63277 0.0
H374 H 0.15661 0.05943 0.63821 0.0
H375 H 0.19222 0.08904 0.59293 0.0
C376 C 0.1676 0.06642 0.58087 0.0
C377 C 0.14925 0.04923 0.58194 0.0
C378 C 0.17316 0.06947 0.637 0.0
C379 C 0.16926 0.06897 0.60842 0.0
C380 C 0.18675 0.07447 0.65001 0.0
C381 C 0.20871 0.08669 0.64876 0.0
C382 C 0.1816 0.07668 0.62262 0.0
C383 C 0.21595 0.09465 0.63426 0.0
C384 C 0.17761 0.07633 0.59404 0.0
C385 C 0.14054 0.04327 0.5965 0.0
N386 N 0.20253 0.0893 0.62174 0.0
N387 N 0.1508 0.05295 0.60917 0.0
H388 H 0.23417 0.88682 0.84353 0.0
H389 H 0.15673 0.99509 0.87772 0.0
H390 H 0.19092 0.9346 0.81608 0.0
H391 H 0.19742 0.94548 0.90543 0.0
H392 H 0.16618 0.97095 0.85519 0.0
H393 H 0.21801 0.90574 0.86654 0.0
C394 C 0.2211 0.9011 0.84234 0.0
C395 C 0.21409 0.9093 0.82785 0.0
C396 C 0.17288 0.96523 0.86622 0.0
C397 C 0.19564 0.93114 0.85412 0.0
C398 C 0.16748 0.97902 0.87909 0.0
C399 C 0.1765 0.97244 0.89346 0.0
C400 C 0.1875 0.94478 0.86772 0.0
C401 C 0.19023 0.95135 0.89456 0.0
C402 C 0.21189 0.91193 0.85548 0.0
C403 C 0.19702 0.92782 0.827 0.0
N404 N 0.19548 0.9384 0.88185 0.0
N405 N 0.18855 0.93825 0.83994 0.0
H406 H 0.36176 0.97079 0.10383 0.0
H407 H 0.26446 0.88748 0.14486 0.0
H408 H 0.3041 0.93458 0.0802 0.0
H409 H 0.32238 0.92289 0.16873 0.0
H410 H 0.28179 0.90055 0.12064 0.0
H411 H 0.35053 0.94974 0.12729 0.0
C412 C 0.34688 0.95827 0.10354 0.0
C413 C 0.33367 0.95466 0.09008 0.0
C414 C 0.29086 0.90525 0.13117 0.0
C415 C 0.32069 0.93057 0.11686 0.0
C416 C 0.28099 0.89774 0.14501 0.0
C417 C 0.2918 0.90437 0.15886 0.0
C418 C 0.31162 0.91961 0.13117 0.0
C419 C 0.31329 0.91756 0.15834 0.0
C420 C 0.34047 0.94625 0.11693 0.0
C421 C 0.31465 0.93812 0.09035 0.0
N422 N 0.32234 0.92498 0.14473 0.0
N423 N 0.30861 0.92686 0.10354 0.0
H424 H 0.68641 0.97976 0.59158 0.0
H425 H 0.77782 0.98482 0.66224 0.0
H426 H 0.73157 0.04079 0.60155 0.0
H427 H 0.73129 0.92462 0.65279 0.0
H428 H 0.76153 0.00543 0.63987 0.0
H429 H 0.70325 0.959 0.61369 0.0
C430 C 0.69991 0.98879 0.59839 0.0
C431 C 0.70756 0.01209 0.59471 0.0
C432 C 0.75488 0.98771 0.64269 0.0
C433 C 0.72689 0.9884 0.6201 0.0
C434 C 0.76417 0.97593 0.65548 0.0
C435 C 0.75591 0.95295 0.65941 0.0
C436 C 0.73721 0.97643 0.63375 0.0
C437 C 0.73819 0.94233 0.65021 0.0
C438 C 0.7095 0.97692 0.61104 0.0
C439 C 0.72511 0.02287 0.60397 0.0
N440 N 0.72945 0.95415 0.63781 0.0
N441 N 0.73416 0.01095 0.61624 0.0
H442 H 0.81888 0.03426 0.40168 0.0
H443 H 0.84107 0.9445 0.33176 0.0
H444 H 0.85425 0.96563 0.40618 0.0
H445 H 0.79866 0.00922 0.32857 0.0
H446 H 0.85067 0.95451 0.35822 0.0
H447 H 0.81604 0.02789 0.37416 0.0
C448 C 0.82625 0.01793 0.39688 0.0
C449 C 0.83662 1.00034 0.40629 0.0
C450 C 0.8394 0.96661 0.3517 0.0
C451 C 0.83333 0.9929 0.37474 0.0
C452 C 0.83393 0.96093 0.33657 0.0
C453 C 0.81884 0.97594 0.32795 0.0
C454 C 0.82974 0.98746 0.3583 0.0
C455 C 0.81022 0.99704 0.33479 0.0
C456 C 0.82458 0.01429 0.38115 0.0
C457 C 0.84597 0.9796 0.39938 0.0
N458 N 0.81568 0.00209 0.34959 0.0
N459 N 0.84395 0.97639 0.38404 0.0
H460 H 0.77951 0.06466 0.16129 0.0
H461 H 0.7623 0.97691 0.08964 0.0
H462 H 0.72511 0.00954 0.15901 0.0
H463 H 0.81199 0.0364 0.09015 0.0
H464 H 0.74907 0.98802 0.11528 0.0
H465 H 0.79254 0.05376 0.13555 0.0
C466 C 0.77034 0.05021 0.1554 0.0
C467 C 0.75116 0.038 0.16233 0.0
C468 C 0.76282 0.99868 0.10977 0.0
C469 C 0.76598 0.02546 0.13283 0.0
C470 C 0.77038 0.99236 0.09512 0.0
C471 C 0.7883 0.00573 0.08772 0.0
C472 C 0.77331 0.01848 0.11715 0.0
C473 C 0.79811 0.02558 0.0954 0.0
C474 C 0.77775 0.04404 0.14069 0.0
C475 C 0.73995 0.01946 0.15413 0.0
N476 N 0.79054 0.0313 0.1097 0.0
N477 N 0.74753 0.01376 0.13983 0.0
H478 H 0.7903 0.06825 0.84161 0.0
H479 H 0.70353 0.08879 0.91318 0.0
H480 H 0.72089 0.10255 0.8385 0.0
H481 H 0.76919 0.04757 0.915 0.0
H482 H 0.71252 0.0994 0.88672 0.0
H483 H 0.7857 0.06605 0.86928 0.0
C484 C 0.77417 0.07555 0.84675 0.0
C485 C 0.75582 0.08535 0.83768 0.0
C486 C 0.72506 0.08821 0.89295 0.0
C487 C 0.75039 0.08276 0.86942 0.0
C488 C 0.71998 0.08217 0.90809 0.0
C489 C 0.7355 0.06702 0.91629 0.0
C490 C 0.74583 0.07905 0.88595 0.0
C491 C 0.7566 0.05911 0.90909 0.0
C492 C 0.77155 0.07424 0.86257 0.0
C493 C 0.73542 0.09467 0.84502 0.0
N494 N 0.76104 0.06506 0.8943 0.0
N495 N 0.73316 0.09295 0.86045 0.0
H496 H 0.70875 0.59257 0.85116 0.0
H497 H 0.76697 0.48759 0.90107 0.0
H498 H 0.6921 0.51743 0.8454 0.0
H499 H 0.77806 0.5628 0.91064 0.0
H500 H 0.7378 0.4985 0.88146 0.0
H501 H 0.73227 0.5825 0.87392 0.0
C502 C 0.7098 0.57401 0.85477 0.0
C503 C 0.69862 0.55579 0.84627 0.0
C504 C 0.74648 0.51264 0.88791 0.0
C505 C 0.72565 0.54413 0.87219 0.0
C506 C 0.76319 0.50641 0.8991 0.0
C507 C 0.77513 0.52431 0.90743 0.0
C508 C 0.74176 0.53697 0.88491 0.0
C509 C 0.76936 0.5484 0.90445 0.0
C510 C 0.72326 0.56826 0.86775 0.0
C511 C 0.70056 0.53205 0.85151 0.0
N512 N 0.75323 0.55404 0.89334 0.0
N513 N 0.71398 0.5269 0.86403 0.0
H514 H 0.73929 0.6065 0.12894 0.0
H515 H 0.6433 0.53617 0.07779 0.0
H516 H 0.68517 0.55921 0.14743 0.0
H517 H 0.69843 0.58244 0.05948 0.0
H518 H 0.65509 0.54827 0.10359 0.0
H519 H 0.72132 0.60178 0.10366 0.0
C520 C 0.72349 0.59531 0.12772 0.0
C521 C 0.7139 0.583 0.14029 0.0
C522 C 0.66445 0.55595 0.09392 0.0
C523 C 0.69331 0.57741 0.11136 0.0
C524 C 0.65769 0.54907 0.07918 0.0
C525 C 0.67009 0.55808 0.06646 0.0
C526 C 0.68375 0.5719 0.09593 0.0
C527 C 0.68853 0.57483 0.06895 0.0
C528 C 0.71324 0.5926 0.11327 0.0
C529 C 0.69332 0.56886 0.13804 0.0
N530 N 0.69493 0.58102 0.08339 0.0
N531 N 0.68384 0.56628 0.12383 0.0
H532 H 0.68782 0.43909 0.4187 0.0
H533 H 0.66306 0.42102 0.32959 0.0
H534 H 0.64411 0.48675 0.39145 0.0
H535 H 0.72001 0.38537 0.35427 0.0
H536 H 0.64893 0.43848 0.35353 0.0
H537 H 0.69257 0.41288 0.39654 0.0
C538 C 0.67892 0.44389 0.40812 0.0
C539 C 0.66585 0.46537 0.40686 0.0
C540 C 0.66433 0.4266 0.35372 0.0
C541 C 0.67127 0.43541 0.38148 0.0
C542 C 0.67239 0.41655 0.34007 0.0
C543 C 0.69301 0.40202 0.33988 0.0
C544 C 0.67691 0.42203 0.36731 0.0
C545 C 0.70422 0.39671 0.35385 0.0
C546 C 0.68171 0.42892 0.39547 0.0
C547 C 0.65459 0.47053 0.3929 0.0
N548 N 0.69617 0.40692 0.36698 0.0
N549 N 0.65775 0.45577 0.3807 0.0
H550 H 0.84554 0.42431 0.59003 0.0
H551 H 0.82943 0.41952 0.68065 0.0
H552 H 0.87395 0.47753 0.621 0.0
H553 H 0.79072 0.37391 0.64927 0.0
H554 H 0.85219 0.43589 0.65925 0.0
H555 H 0.83189 0.4008 0.61191 0.0
C556 C 0.84923 0.43091 0.60143 0.0
C557 C 0.86063 0.45312 0.60367 0.0
C558 C 0.83889 0.42212 0.65706 0.0
C559 C 0.84493 0.4263 0.62876 0.0
C560 C 0.82589 0.41271 0.66928 0.0
C561 C 0.80788 0.39553 0.66673 0.0
C562 C 0.83387 0.41431 0.64215 0.0
C563 C 0.80426 0.38729 0.65175 0.0
C564 C 0.84135 0.41749 0.61391 0.0
C565 C 0.86502 0.46066 0.61871 0.0
N566 N 0.81698 0.39693 0.64 0.0
N567 N 0.85696 0.44738 0.63068 0.0
H568 H 0.17847 0.55072 0.11179 0.0
H569 H 0.15933 0.4564 0.1794 0.0
H570 H 0.14117 0.48328 0.10656 0.0
H571 H 0.20246 0.5205 0.18349 0.0
H572 H 0.14677 0.46935 0.15399 0.0
H573 H 0.18151 0.54329 0.13921 0.0
C574 C 0.17063 0.53449 0.11642 0.0
C575 C 0.15985 0.51743 0.10682 0.0
C576 C 0.15879 0.4807 0.1605 0.0
C577 C 0.16341 0.50876 0.13821 0.0
C578 C 0.16596 0.47334 0.17504 0.0
C579 C 0.18225 0.48723 0.18352 0.0
C580 C 0.168 0.50209 0.15436 0.0
C581 C 0.19007 0.5091 0.1773 0.0
C582 C 0.17243 0.53024 0.13209 0.0
C583 C 0.14986 0.49681 0.1135 0.0
N584 N 0.18306 0.51573 0.16304 0.0
N585 N 0.15211 0.49294 0.12876 0.0
H586 H 0.30861 0.48849 0.8201 0.0
H587 H 0.37918 0.44758 0.89524 0.0
H588 H 0.32533 0.41477 0.83101 0.0
H589 H 0.35637 0.52038 0.88649 0.0
H590 H 0.36587 0.43633 0.86963 0.0
H591 H 0.33213 0.50138 0.8422 0.0
C592 C 0.31744 0.47502 0.82703 0.0
C593 C 0.3147 0.45049 0.82381 0.0
C594 C 0.36402 0.45483 0.87325 0.0
C595 C 0.34159 0.46513 0.84918 0.0
C596 C 0.37169 0.46129 0.88787 0.0
C597 C 0.36856 0.4849 0.89311 0.0
C598 C 0.35312 0.47208 0.86381 0.0
C599 C 0.35888 0.50191 0.883 0.0
C600 C 0.33085 0.48239 0.83967 0.0
C601 C 0.32672 0.43386 0.83315 0.0
N602 N 0.35127 0.49511 0.8689 0.0
N603 N 0.33943 0.44147 0.84548 0.0
H604 H 0.30657 0.60297 0.66235 0.0
H605 H 0.26661 0.54208 0.58355 0.0
H606 H 0.23513 0.57632 0.65332 0.0
H607 H 0.33989 0.56079 0.59454 0.0
H608 H 0.25355 0.56049 0.60748 0.0
H609 H 0.31773 0.59368 0.63599 0.0
C610 C 0.29314 0.59545 0.65479 0.0
C611 C 0.26996 0.59013 0.66011 0.0
C612 C 0.27247 0.56074 0.6046 0.0
C613 C 0.28265 0.57935 0.62996 0.0
C614 C 0.27994 0.55026 0.59092 0.0
C615 C 0.30442 0.54962 0.58712 0.0
C616 C 0.28959 0.57067 0.61456 0.0
C617 C 0.32085 0.56065 0.59707 0.0
C618 C 0.29954 0.59008 0.63974 0.0
C619 C 0.25328 0.58048 0.64976 0.0
N620 N 0.31316 0.57054 0.61039 0.0
N621 N 0.26001 0.57522 0.63523 0.0
H622 H 0.20498 0.51091 0.33191 0.0
H623 H 0.15318 0.56288 0.41041 0.0
H624 H 0.18636 0.58533 0.339 0.0
H625 H 0.17553 0.48932 0.40411 0.0
H626 H 0.15981 0.57013 0.38321 0.0
H627 H 0.18901 0.50148 0.3572 0.0
C628 C 0.19732 0.52524 0.33871 0.0
C629 C 0.19728 0.549 0.33339 0.0
C630 C 0.16304 0.55234 0.38775 0.0
C631 C 0.17905 0.53833 0.36239 0.0
C632 C 0.1592 0.54817 0.40328 0.0
C633 C 0.1641 0.52553 0.4096 0.0
C634 C 0.17188 0.53377 0.37846 0.0
C635 C 0.17175 0.50712 0.39978 0.0
C636 C 0.18822 0.51984 0.35316 0.0
C637 C 0.18699 0.56679 0.34268 0.0
N638 N 0.17562 0.51171 0.38474 0.0
N639 N 0.17848 0.56113 0.35677 0.0
H640 H 0.29566 0.2949 0.25648 0.0
H641 H 0.21734 0.19098 0.29544 0.0
H642 H 0.21948 0.30065 0.26498 0.0
H643 H 0.2929 0.18409 0.28521 0.0
H644 H 0.21819 0.23195 0.2855 0.0
H645 H 0.2955 0.25521 0.26835 0.0
C646 C 0.27892 0.2879 0.26094 0.0
C647 C 0.25753 0.3011 0.25967 0.0
C648 C 0.2346 0.2215 0.28545 0.0
C649 C 0.25719 0.25557 0.27321 0.0
C650 C 0.23413 0.19808 0.29112 0.0
C651 C 0.25507 0.18404 0.29112 0.0
C652 C 0.25618 0.23099 0.27974 0.0
C653 C 0.27631 0.19423 0.2854 0.0
C654 C 0.27883 0.26519 0.26769 0.0
C655 C 0.23639 0.2911 0.26567 0.0
N656 N 0.27631 0.21706 0.27992 0.0
N657 N 0.23674 0.26891 0.27212 0.0
H658 H 0.92647 0.99293 0.48599 0.0
H659 H 0.04513 0.06981 0.5033 0.0
H660 H 0.93496 0.06738 0.47345 0.0
H661 H 0.03515 0.99681 0.51853 0.0
H662 H 0.00535 0.06872 0.49153 0.0
H663 H 0.9666 0.99357 0.49737 0.0
C664 C 0.93674 0.00943 0.48565 0.0
C665 C 0.9273 0.03015 0.47876 0.0
C666 C 0.01185 0.05292 0.49742 0.0
C667 C 0.97334 0.03097 0.49173 0.0
C668 C 0.03462 0.05351 0.50413 0.0
C669 C 0.04351 0.03338 0.51194 0.0
C670 C 0.99782 0.03203 0.4985 0.0
C671 C 0.02903 0.01276 0.51264 0.0
C672 C 0.95968 0.00977 0.49214 0.0
C673 C 0.94147 0.05099 0.47865 0.0
N674 N 0.00691 0.01263 0.50603 0.0
N675 N 0.96376 0.05085 0.48501 0.0
H676 H 0.18706 0.68497 0.72518 0.0
H677 H 0.26202 0.79015 0.7656 0.0
H678 H 0.26327 0.68095 0.73402 0.0
H679 H 0.18615 0.7946 0.75572 0.0
H680 H 0.26285 0.75006 0.75425 0.0
H681 H 0.18633 0.72493 0.73665 0.0
C682 C 0.20364 0.69245 0.72957 0.0
C683 C 0.22527 0.67956 0.72862 0.0
C684 C 0.24602 0.75982 0.75455 0.0
C685 C 0.22457 0.72543 0.74176 0.0
C686 C 0.24554 0.78273 0.76102 0.0
C687 C 0.22397 0.79579 0.76162 0.0
C688 C 0.22479 0.74982 0.74864 0.0
C689 C 0.20318 0.78523 0.7555 0.0
C690 C 0.20321 0.71531 0.7361 0.0
C691 C 0.24619 0.69021 0.7345 0.0
N692 N 0.20411 0.76288 0.74929 0.0
N693 N 0.24532 0.71252 0.7408 0.0
H694 H 0.44011 0.93615 0.01802 0.0
H695 H 0.55168 0.02529 0.00699 0.0
H696 H 0.44233 0.00821 0.03611 0.0
H697 H 0.54874 0.95384 0.98799 0.0
H698 H 0.51246 0.01867 0.01878 0.0
H699 H 0.48055 0.94173 0.00779 0.0
C700 C 0.4491 0.95315 0.01985 0.0
C701 C 0.43777 0.97177 0.02791 0.0
C702 C 0.52043 0.0044 0.01208 0.0
C703 C 0.48414 0.97826 0.01623 0.0
C704 C 0.54287 0.00815 0.00537 0.0
C705 C 0.55349 0.99012 0.99644 0.0
C706 C 0.50848 0.98247 0.00984 0.0
C707 C 0.54121 0.96827 0.99475 0.0
C708 C 0.47221 0.95632 0.01401 0.0
C709 C 0.45033 0.99338 0.02995 0.0
N710 N 0.51933 0.9651 0.00134 0.0
N711 N 0.47281 0.99604 0.02413 0.0
H712 H 0.19027 0.80297 0.23346 0.0
H713 H 0.3006 0.71073 0.237 0.0
H714 H 0.25839 0.81513 0.21122 0.0
H715 H 0.23668 0.70358 0.26453 0.0
H716 H 0.2841 0.74745 0.22591 0.0
H717 H 0.2058 0.76512 0.24362 0.0
C718 C 0.20849 0.79769 0.23071 0.0
C719 C 0.22307 0.81228 0.2215 0.0
C720 C 0.27365 0.73782 0.23436 0.0
C721 C 0.24092 0.76891 0.23303 0.0
C722 C 0.28303 0.71679 0.24066 0.0
C723 C 0.27003 0.70408 0.25175 0.0
C724 C 0.25106 0.7462 0.23913 0.0
C725 C 0.24736 0.71283 0.25605 0.0
C726 C 0.21735 0.77608 0.23652 0.0
C727 C 0.24653 0.8045 0.21831 0.0
N728 N 0.23861 0.73336 0.24974 0.0
N729 N 0.25471 0.78335 0.22404 0.0
H730 H 0.53282 0.09269 0.49285 0.0
H731 H 0.43986 0.98293 0.49167 0.0
H732 H 0.5393 0.03043 0.52192 0.0
H733 H 0.42907 0.04888 0.46671 0.0
H734 H 0.47717 0.99928 0.5021 0.0
H735 H 0.49581 0.07603 0.4822 0.0
C736 C 0.52652 0.07547 0.49696 0.0
C737 C 0.53918 0.06296 0.50832 0.0
C738 C 0.46662 0.0102 0.49437 0.0
C739 C 0.49675 0.04379 0.49619 0.0
C740 C 0.44529 1.00087 0.48841 0.0
C741 C 0.43128 0.01456 0.47831 0.0
C742 C 0.47409 0.03335 0.49015 0.0
C743 C 0.43926 0.0377 0.47448 0.0
C744 C 0.50534 0.06599 0.4909 0.0
C745 C 0.53012 0.04072 0.5132 0.0
N746 N 0.46015 0.04633 0.48038 0.0
N747 N 0.50947 0.03186 0.50711 0.0
H748 H 0.18461 0.181 0.71689 0.0
H749 H 0.24301 0.29024 0.76339 0.0
H750 H 0.2609 0.18871 0.72434 0.0
H751 H 0.16765 0.28583 0.75202 0.0
H752 H 0.24993 0.25285 0.74944 0.0
H753 H 0.17799 0.21894 0.73024 0.0
C754 C 0.19998 0.19064 0.72136 0.0
C755 C 0.22335 0.18163 0.71949 0.0
C756 C 0.23189 0.2601 0.74995 0.0
C757 C 0.21589 0.22517 0.73478 0.0
C758 C 0.22793 0.28147 0.75791 0.0
C759 C 0.2047 0.29119 0.7589 0.0
C760 C 0.21248 0.24826 0.74299 0.0
C761 C 0.18586 0.27902 0.75156 0.0
C762 C 0.19619 0.21235 0.72895 0.0
C763 C 0.24257 0.19496 0.72551 0.0
N764 N 0.19015 0.25817 0.74398 0.0
N765 N 0.23841 0.21603 0.73289 0.0
H766 H 0.95971 0.92692 0.98158 0.0
H767 H 0.06332 0.02219 0.96274 0.0
H768 H 0.95966 0.99972 -0.00151 0.0
H769 H 0.06827 0.94673 0.95197 0.0
H770 H 0.02389 0.0151 0.97418 0.0
H771 H 0.99791 0.93476 0.96879 0.0
C772 C 0.96765 0.9446 0.98253 0.0
C773 C 0.95649 0.96267 0.99117 0.0
C774 C 0.0336 1.0001 0.96931 0.0
C775 C 1.0003 0.97174 0.97657 0.0
C776 C 0.05611 0.00413 0.96276 0.0
C777 C 0.06916 0.985 0.95642 0.0
C778 C 0.02397 0.97679 0.96945 0.0
C779 C 0.0589 0.96199 0.95677 0.0
C780 C 0.98952 0.94904 0.97526 0.0
C781 C 0.96765 0.98523 0.992 0.0
N782 N 0.03692 0.95854 0.96316 0.0
N783 N 0.98895 0.98911 0.98481 0.0
H784 H 0.81965 0.76633 0.76391 0.0
H785 H 0.71033 0.67302 0.76902 0.0
H786 H 0.75503 0.77217 0.73687 0.0
H787 H 0.77771 0.66371 0.79274 0.0
H788 H 0.72554 0.71044 0.7581 0.0
H789 H 0.80359 0.72998 0.77573 0.0
C790 C 0.80202 0.76006 0.76051 0.0
C791 C 0.7887 0.77231 0.74934 0.0
C792 C 0.73701 0.70021 0.76569 0.0
C793 C 0.77022 0.73059 0.76281 0.0
C794 C 0.72833 0.67882 0.77193 0.0
C795 C 0.74278 0.66515 0.78179 0.0
C796 C 0.76029 0.70807 0.76936 0.0
C797 C 0.76595 0.67361 0.78516 0.0
C798 C 0.79288 0.73924 0.76724 0.0
C799 C 0.76596 0.7633 0.7454 0.0
N800 N 0.77397 0.69451 0.77897 0.0
N801 N 0.75747 0.74298 0.7521 0.0
H802 H 0.78994 0.29398 0.26514 0.0
H803 H 0.68494 0.19661 0.2734 0.0
H804 H 0.72604 0.30502 0.29218 0.0
H805 H 0.74133 0.1915 0.23971 0.0
H806 H 0.70175 0.23478 0.28201 0.0
H807 H 0.77419 0.25496 0.2571 0.0
C808 C 0.7726 0.28821 0.26938 0.0
C809 C 0.75927 0.30282 0.27933 0.0
C810 C 0.71047 0.2253 0.27275 0.0
C811 C 0.74122 0.25812 0.27025 0.0
C812 C 0.70094 0.20344 0.26786 0.0
C813 C 0.7117 0.19085 0.25578 0.0
C814 C 0.73103 0.23462 0.26558 0.0
C815 C 0.73239 0.20062 0.24903 0.0
C816 C 0.76361 0.26594 0.26478 0.0
C817 C 0.73691 0.2944 0.28446 0.0
N818 N 0.74138 0.22192 0.25402 0.0
N819 N 0.72863 0.27261 0.27989 0.0
H820 H 0.81748 0.28874 0.74129 0.0
H821 H 0.7435 0.16836 0.75848 0.0
H822 H 0.74394 0.27797 0.72718 0.0
H823 H 0.81919 0.17665 0.76791 0.0
H824 H 0.74289 0.20879 0.74758 0.0
H825 H 0.81793 0.24822 0.75194 0.0
C826 C 0.80139 0.27789 0.74047 0.0
C827 C 0.78064 0.2868 0.73332 0.0
C828 C 0.75964 0.20174 0.752 0.0
C829 C 0.78105 0.24027 0.74548 0.0
C830 C 0.76002 0.17864 0.75822 0.0
C831 C 0.78144 0.16907 0.76413 0.0
C832 C 0.78082 0.21547 0.75175 0.0
C833 C 0.80227 0.18325 0.76348 0.0
C834 C 0.80168 0.2547 0.74652 0.0
C835 C 0.76034 0.27186 0.73258 0.0
N836 N 0.80141 0.20573 0.75745 0.0
N837 N 0.76105 0.24935 0.73858 0.0
H838 H 0.79004 0.7919 0.22608 0.0
H839 H 0.70197 0.67861 0.2195 0.0
H840 H 0.72298 0.78605 0.25055 0.0
H841 H 0.77266 0.6812 0.19929 0.0
H842 H 0.70808 0.7191 0.22953 0.0
H843 H 0.78251 0.75269 0.21452 0.0
C844 C 0.77364 0.78246 0.22894 0.0
C845 C 0.75715 0.79226 0.23935 0.0
C846 C 0.72225 0.71082 0.22289 0.0
C847 C 0.74848 0.74726 0.2262 0.0
C848 C 0.71878 0.68769 0.21716 0.0
C849 C 0.73686 0.67644 0.20857 0.0
C850 C 0.74394 0.72287 0.21999 0.0
C851 C 0.75825 0.68912 0.20589 0.0
C852 C 0.76939 0.76002 0.22237 0.0
C853 C 0.73622 0.77918 0.24262 0.0
N854 N 0.76119 0.71163 0.21157 0.0
N855 N 0.73252 0.75733 0.23611 0.0
H856 H 0.57318 0.58634 0.98565 0.0
H857 H 0.46338 0.4969 0.96931 0.0
H858 H 0.5717 0.51266 0.00088 0.0
H859 H 0.46171 0.57266 0.95904 0.0
H860 H 0.50381 0.50176 0.97981 0.0
H861 H 0.53326 0.58102 0.97453 0.0
C862 C 0.56452 0.569 0.9866 0.0
C863 C 0.57582 0.54993 0.99424 0.0
C864 C 0.49459 0.51732 0.97527 0.0
C865 C 0.53 0.54373 0.98155 0.0
C866 C 0.47149 0.51456 0.96927 0.0
C867 C 0.4591 0.53441 0.96329 0.0
C868 C 0.50547 0.54008 0.97524 0.0
C869 C 0.47055 0.55686 0.96355 0.0
C870 C 0.54167 0.566 0.98028 0.0
C871 C 0.56367 0.52788 0.99512 0.0
N872 N 0.49308 0.55907 0.9694 0.0
N873 N 0.54143 0.52539 0.98886 0.0
H874 H 0.06948 0.45534 0.4789 0.0
H875 H 0.96946 0.5322 0.52295 0.0
H876 H 0.07726 0.53065 0.48938 0.0
H877 H 0.95886 0.45906 0.50814 0.0
H878 H 0.00941 0.53172 0.51136 0.0
H879 H 0.02946 0.45601 0.49035 0.0
C880 C 0.06281 0.47202 0.48364 0.0
C881 C 0.07677 0.49298 0.48317 0.0
C882 C 0.99833 0.51579 0.51062 0.0
C883 C 0.03088 0.49388 0.4963 0.0
C884 C 0.9755 0.51605 0.51724 0.0
C885 C 0.96077 0.49563 0.51653 0.0
C886 C 0.00657 0.49493 0.50328 0.0
C887 C 0.96957 0.47522 0.50896 0.0
C888 C 0.03991 0.4724 0.49015 0.0
C889 C 0.06714 0.51407 0.48948 0.0
N890 N 0.9919 0.47537 0.50268 0.0
N891 N 0.04482 0.51397 0.49578 0.0
H892 H 0.97619 0.54198 0.98291 0.0
H893 H 0.0828 0.49377 0.03627 0.0
H894 H 0.97714 0.47126 0.00306 0.0
H895 H 0.07917 0.56615 0.01882 0.0
H896 H 0.04415 0.48515 0.02417 0.0
H897 H 0.01375 0.55125 0.99611 0.0
C898 C 0.98422 0.52843 0.99017 0.0
C899 C 0.9735 0.50578 0.99185 0.0
C900 C 0.05178 0.50294 0.02301 0.0
C901 C 0.01665 0.51624 0.00694 0.0
C902 C 0.07389 0.50786 0.02989 0.0
C903 C 0.08428 0.53072 0.02854 0.0
C904 C 0.03997 0.52097 0.01466 0.0
C905 C 0.07186 0.54827 0.02016 0.0
C906 C 0.0057 0.53373 0.9977 0.0
C907 C 0.98475 0.48896 0.00142 0.0
N908 N 0.0504 0.54302 0.01352 0.0
N909 N 0.00575 0.49449 0.00855 0.0
H910 H 0.47224 0.43654 0.4972 0.0
H911 H 0.56298 0.54708 0.48768 0.0
H912 H 0.46502 0.50327 0.52184 0.0
H913 H 0.57584 0.47676 0.46864 0.0
H914 H 0.52584 0.53213 0.49913 0.0
H915 H 0.50886 0.45187 0.4853 0.0
C916 C 0.47829 0.45446 0.50006 0.0
C917 C 0.46555 0.46862 0.51056 0.0
C918 C 0.5368 0.51996 0.49247 0.0
C919 C 0.50752 0.48628 0.49699 0.0
C920 C 0.55802 0.52848 0.48592 0.0
C921 C 0.57258 0.51314 0.4772 0.0
C922 C 0.52998 0.49595 0.49022 0.0
C923 C 0.56522 0.48922 0.47531 0.0
C924 C 0.49925 0.46318 0.4933 0.0
C925 C 0.47428 0.4917 0.51384 0.0
N926 N 0.54442 0.48138 0.48173 0.0
N927 N 0.49471 0.4998 0.50708 0.0
H928 H 0.18098 0.9414 0.24025 0.0
H929 H 0.2542 0.05889 0.2651 0.0
H930 H 0.25243 0.95893 0.22459 0.0
H931 H 0.18738 0.03783 0.28627 0.0
H932 H 0.25125 0.0244 0.24811 0.0
H933 H 0.18097 0.97816 0.25568 0.0
C934 C 0.19667 0.95289 0.24009 0.0
C935 C 0.21676 0.94699 0.23114 0.0
C936 C 0.23714 0.02737 0.25641 0.0
C937 C 0.21674 0.98912 0.24859 0.0
C938 C 0.23875 0.04717 0.26608 0.0
C939 C 0.22111 0.0512 0.27723 0.0
C940 C 0.21777 0.01138 0.25787 0.0
C941 C 0.20146 0.03539 0.27789 0.0
C942 C 0.19662 0.97389 0.24886 0.0
C943 C 0.23655 0.96263 0.23133 0.0
N944 N 0.2004 0.01606 0.26841 0.0
N945 N 0.23601 0.98293 0.23988 0.0
H946 H 0.17581 0.95776 0.51697 0.0
H947 H 0.2986 0.01308 0.48617 0.0
H948 H 0.18564 0.03316 0.50747 0.0
H949 H 0.27955 0.9389 0.47864 0.0
H950 H 0.25918 0.01983 0.49764 0.0
H951 H 0.21529 0.94964 0.50566 0.0
C952 C 0.18613 0.97256 0.51237 0.0
C953 C 0.17737 0.99618 0.51315 0.0
C954 C 0.26368 0.00205 0.49353 0.0
C955 C 0.22268 0.98706 0.50058 0.0
C956 C 0.28628 0.99812 0.48712 0.0
C957 C 0.29238 0.97539 0.48139 0.0
C958 C 0.24714 0.98309 0.49441 0.0
C959 C 0.27557 0.95672 0.48286 0.0
C960 C 0.20866 0.96791 0.50597 0.0
C961 C 0.19157 0.01467 0.50705 0.0
N962 N 0.25369 0.96098 0.48923 0.0
N963 N 0.21361 0.00974 0.50117 0.0
H964 H 0.21946 0.04711 0.72578 0.0
H965 H 0.29042 0.93254 0.75632 0.0
H966 H 0.29334 0.03354 0.71346 0.0
H967 H 0.21315 0.93546 0.75223 0.0
H968 H 0.29304 0.97116 0.74298 0.0
H969 H 0.21819 0.00835 0.73877 0.0
C970 C 0.23552 0.03613 0.72596 0.0
C971 C 0.25652 0.04358 0.71848 0.0
C972 C 0.27556 0.96319 0.74491 0.0
C973 C 0.25511 0.99908 0.73325 0.0
C974 C 0.27404 0.94115 0.75247 0.0
C975 C 0.25152 0.93073 0.7554 0.0
C976 C 0.25441 0.97506 0.7405 0.0
C977 C 0.23089 0.94273 0.75019 0.0
C978 C 0.2347 0.0139 0.73326 0.0
C979 C 0.27674 0.02847 0.71904 0.0
N980 N 0.23283 0.96436 0.74314 0.0
N981 N 0.27555 0.00693 0.72631 0.0
H982 H 0.19765 0.97575 0.97407 0.0
H983 H 0.30808 0.03821 0.01649 0.0
H984 H 0.21823 0.0491 0.96495 0.0
H985 H 0.30015 0.96149 0.01164 0.0
H986 H 0.27285 0.04385 2e-05 0.0
H987 H 0.23223 0.97173 0.991 0.0
C988 C 0.20928 0.99112 0.97574 0.0
C989 C 0.20507 0.01277 0.96801 0.0
C990 C 0.27896 0.02582 0.00252 0.0
C991 C 0.24483 0.00819 0.98734 0.0
C992 C 0.29906 0.02258 0.01189 0.0
C993 C 0.30711 0.99934 0.01544 0.0
C994 C 0.26665 0.00568 0.99689 0.0
C995 C 0.29469 0.97973 0.00918 0.0
C996 C 0.22913 0.98873 0.98533 0.0
C997 C 0.22085 0.03204 0.97063 0.0
N998 N 0.275 0.98335 0.00032 0.0
N999 N 0.24007 0.02929 0.98008 0.0
H1000 H 0.75927 0.91403 0.72001 0.0
H1001 H 0.81442 0.03072 0.76021 0.0
H1002 H 0.82878 0.91534 0.74178 0.0
H1003 H 0.73845 0.02137 0.75217 0.0
H1004 H 0.82175 0.99123 0.74893 0.0
H1005 H 0.7531 0.95596 0.72754 0.0
C1006 C 0.77338 0.92327 0.72616 0.0
C1007 C 0.79469 0.91133 0.73012 0.0
C1008 C 0.80351 0.99793 0.74953 0.0
C1009 C 0.78767 0.95912 0.73891 0.0
C1010 C 0.79931 0.02056 0.75586 0.0
C1011 C 0.77575 0.02932 0.75725 0.0
C1012 C 0.78405 0.98405 0.7444 0.0
C1013 C 0.75689 0.01526 0.75144 0.0
C1014 C 0.76976 0.9471 0.73058 0.0
C1015 C 0.81207 0.92391 0.73853 0.0
N1016 N 0.76143 0.99329 0.74532 0.0
N1017 N 0.80823 0.94715 0.74259 0.0
H1018 H 0.67572 0.02353 0.52939 0.0
H1019 H 0.79437 0.0677 0.486 0.0
H1020 H 0.68448 0.09475 0.51092 0.0
H1021 H 0.77734 0.99299 0.49336 0.0
H1022 H 0.75721 0.07885 0.49908 0.0
H1023 H 0.71578 0.013 0.51994 0.0
C1024 C 0.68625 0.03707 0.52359 0.0
C1025 C 0.67694 0.06015 0.52112 0.0
C1026 C 0.76171 0.06002 0.49792 0.0
C1027 C 0.72256 0.04815 0.51007 0.0
C1028 C 0.783 0.05363 0.49054 0.0
C1029 C 0.78892 0.02935 0.48846 0.0
C1030 C 0.74627 0.04203 0.50338 0.0
C1031 C 0.77343 0.01193 0.49459 0.0
C1032 C 0.709 0.03099 0.51806 0.0
C1033 C 0.69101 0.07675 0.51306 0.0
N1034 N 0.75278 0.0186 0.50171 0.0
N1035 N 0.71314 0.07045 0.50786 0.0
H1036 H 0.68543 0.04235 0.25119 0.0
H1037 H 0.79626 0.95345 0.25943 0.0
H1038 H 0.75496 0.05956 0.23245 0.0
H1039 H 0.72359 0.92763 0.25477 0.0
H1040 H 0.78212 0.99425 0.25379 0.0
H1041 H 0.69986 0.00173 0.25694 0.0
C1042 C 0.70374 0.03755 0.24831 0.0
C1043 C 0.71897 0.05417 0.24117 0.0
C1044 C 0.76932 0.97962 0.25402 0.0
C1045 C 0.73563 0.00804 0.24792 0.0
C1046 C 0.77731 0.95643 0.25737 0.0
C1047 C 0.76101 0.93724 0.25769 0.0
C1048 C 0.7448 0.98366 0.25127 0.0
C1049 C 0.73672 0.94196 0.25461 0.0
C1050 C 0.7119 0.0144 0.25152 0.0
C1051 C 0.74254 0.0471 0.2377 0.0
N1052 N 0.72929 0.96475 0.25167 0.0
N1053 N 0.75024 0.02458 0.24121 0.0
H1054 H 0.81646 0.01346 0.01835 0.0
H1055 H 0.69306 0.96339 0.98563 0.0
H1056 H 0.81073 0.94328 -0.00211 0.0
H1057 H 0.71003 0.0389 0.98476 0.0
H1058 H 0.73425 0.95484 0.99397 0.0
H1059 H 0.77538 0.02243 0.00983 0.0
C1060 C 0.80645 0.99988 0.01219 0.0
C1061 C 0.81683 0.97751 0.00894 0.0
C1062 C 0.72895 0.97326 0.99188 0.0
C1063 C 0.77007 0.98761 -0.00079 0.0
C1064 C 0.70548 0.97815 0.9872 0.0
C1065 C 0.69828 0.00186 0.98434 0.0
C1066 C 0.74515 0.99226 0.99407 0.0
C1067 C 0.71503 0.02035 0.98657 0.0
C1068 C 0.78316 0.00508 0.00723 0.0
C1069 C 0.80334 0.96074 0.00062 0.0
N1070 N 0.73768 0.01518 0.99142 0.0
N1071 N 0.78054 0.96603 0.99616 0.0
H1072 H 0.67285 0.5236 0.76461 0.0
H1073 H 0.77132 0.42248 0.74776 0.0
H1074 H 0.74768 0.53014 0.77697 0.0
H1075 H 0.7032 0.42542 0.7242 0.0
H1076 H 0.76087 0.45945 0.7612 0.0
H1077 H 0.682 0.48565 0.75172 0.0
C1078 C 0.69122 0.51717 0.76452 0.0
C1079 C 0.70953 0.53012 0.77186 0.0
C1080 C 0.74816 0.45194 0.75313 0.0
C1081 C 0.72 0.48654 0.75738 0.0
C1082 C 0.75403 0.43071 0.74554 0.0
C1083 C 0.73816 0.42084 0.73477 0.0
C1084 C 0.72618 0.46334 0.75005 0.0
C1085 C 0.71603 0.43242 0.73235 0.0
C1086 C 0.6964 0.49548 0.75719 0.0
C1087 C 0.73299 0.52086 0.77141 0.0
N1088 N 0.71071 0.45308 0.73991 0.0
N1089 N 0.73751 0.49958 0.76439 0.0
H1090 H 0.70483 0.48532 0.99039 0.0
H1091 H 0.83913 0.53184 0.98387 0.0
H1092 H 0.72319 0.56012 0.99574 0.0
H1093 H 0.81443 0.46943 0.95937 0.0
H1094 H 0.79735 0.54085 0.99094 0.0
H1095 H 0.74552 0.47756 0.98091 0.0
C1096 C 0.71732 0.50015 0.98939 0.0
C1097 C 0.7106 0.52341 0.99384 0.0
C1098 C 0.8011 0.52529 0.98392 0.0
C1099 C 0.75726 0.51453 0.9834 0.0
C1100 C 0.82488 0.52008 0.98 0.0
C1101 C 0.83007 0.50007 0.97088 0.0
C1102 C 0.78255 0.51003 0.97899 0.0
C1103 C 0.81105 0.4853 0.96617 0.0
C1104 C 0.74051 0.49571 0.984 0.0
C1105 C 0.72754 0.54195 0.99235 0.0
N1106 N 0.78812 0.49047 0.97036 0.0
N1107 N 0.7502 0.53705 0.98745 0.0
H1108 H 0.79366 0.52983 0.21078 0.0
H1109 H 0.72544 0.44667 0.27122 0.0
H1110 H 0.72443 0.54647 0.23037 0.0
H1111 H 0.79843 0.43328 0.2568 0.0
H1112 H 0.72472 0.48264 0.25553 0.0
H1113 H 0.79609 0.49436 0.22722 0.0
C1114 C 0.77908 0.52618 0.21863 0.0
C1115 C 0.75875 0.54113 0.21914 0.0
C1116 C 0.74092 0.47187 0.25576 0.0
C1117 C 0.76132 0.50042 0.23782 0.0
C1118 C 0.74132 0.45119 0.26468 0.0
C1119 C 0.76205 0.43685 0.26536 0.0
C1120 C 0.76136 0.47837 0.24734 0.0
C1121 C 0.78205 0.44376 0.25662 0.0
C1122 C 0.78046 0.50588 0.22797 0.0
C1123 C 0.74042 0.53548 0.22953 0.0
N1124 N 0.78121 0.46405 0.24796 0.0
N1125 N 0.74209 0.51552 0.23837 0.0
H1126 H 0.83779 0.52487 0.49877 0.0
H1127 H 0.69522 0.54312 0.49693 0.0
H1128 H 0.79278 0.52461 0.53892 0.0
H1129 H 0.74001 0.54331 0.45667 0.0
H1130 H 0.73137 0.541 0.51276 0.0
H1131 H 0.80285 0.53627 0.48341 0.0
C1132 C 0.82066 0.52746 0.50439 0.0
C1133 C 0.8182 0.5235 0.52014 0.0
C1134 C 0.73329 0.54173 0.50046 0.0
C1135 C 0.7781 0.5364 0.50263 0.0
C1136 C 0.71264 0.54298 0.49142 0.0
C1137 C 0.71453 0.54313 0.47544 0.0
C1138 C 0.75601 0.54053 0.49348 0.0
C1139 C 0.73762 0.54301 0.46894 0.0
C1140 C 0.80069 0.53393 0.49561 0.0
C1141 C 0.79553 0.52721 0.5268 0.0
N1142 N 0.75742 0.5415 0.47797 0.0
N1143 N 0.77635 0.53325 0.518 0.0
H1144 H 0.28912 0.44224 0.25035 0.0
H1145 H 0.23015 0.56939 0.27057 0.0
H1146 H 0.213 0.4559 0.24708 0.0
H1147 H 0.30588 0.55924 0.26237 0.0
H1148 H 0.22332 0.52697 0.26456 0.0
H1149 H 0.29542 0.48416 0.25763 0.0
C1150 C 0.27372 0.45407 0.25119 0.0
C1151 C 0.25055 0.44572 0.24782 0.0
C1152 C 0.24143 0.53403 0.26412 0.0
C1153 C 0.2576 0.49367 0.25619 0.0
C1154 C 0.24536 0.55817 0.26771 0.0
C1155 C 0.26866 0.56773 0.26721 0.0
C1156 C 0.26098 0.51936 0.2601 0.0
C1157 C 0.28763 0.55258 0.26291 0.0
C1158 C 0.27734 0.47802 0.25526 0.0
C1159 C 0.23123 0.46179 0.24914 0.0
N1160 N 0.28339 0.52913 0.2596 0.0
N1161 N 0.23518 0.48501 0.25323 0.0
H1162 H 0.32238 0.4728 0.98172 0.0
H1163 H 0.21976 0.55816 0.01582 0.0
H1164 H 0.32232 0.54983 0.97626 0.0
H1165 H 0.22433 0.48206 0.02471 0.0
H1166 H 0.25659 0.55545 0.00066 0.0
H1167 H 0.28623 0.47595 0.99731 0.0
C1168 C 0.31489 0.49042 0.98389 0.0
C1169 C 0.32543 0.51109 0.97763 0.0
C1170 C 0.2495 0.53935 0.00592 0.0
C1171 C 0.28375 0.51479 0.99539 0.0
C1172 C 0.2284 0.54086 0.01451 0.0
C1173 C 0.2189 0.52031 0.02157 0.0
C1174 C 0.26117 0.51713 0.00432 0.0
C1175 C 0.23096 0.49839 0.01951 0.0
C1176 C 0.29417 0.49219 0.99278 0.0
C1177 C 0.31486 0.53342 0.98086 0.0
N1178 N 0.25143 0.4974 0.01109 0.0
N1179 N 0.29452 0.53466 0.98945 0.0
H1180 H 0.19733 0.53831 0.72941 0.0
H1181 H 0.24225 0.44109 0.78971 0.0
H1182 H 0.26685 0.54292 0.75111 0.0
H1183 H 0.19302 0.42431 0.75317 0.0
H1184 H 0.24737 0.48128 0.77912 0.0
H1185 H 0.19072 0.49968 0.74203 0.0
C1186 C 0.21105 0.5314 0.73702 0.0
C1187 C 0.23275 0.54381 0.73915 0.0
C1188 C 0.23562 0.46868 0.77337 0.0
C1189 C 0.22525 0.49964 0.75357 0.0
C1190 C 0.23303 0.44552 0.77925 0.0
C1191 C 0.218 0.42882 0.77197 0.0
C1192 C 0.22257 0.47544 0.76035 0.0
C1193 C 0.20508 0.43643 0.75906 0.0
C1194 C 0.20733 0.50927 0.7441 0.0
C1195 C 0.24993 0.53389 0.74907 0.0
N1196 N 0.20766 0.45916 0.75366 0.0
N1197 N 0.24583 0.51236 0.75592 0.0
H1198 H 0.33198 0.51283 0.52787 0.0
H1199 H 0.21014 0.45999 0.49258 0.0
H1200 H 0.32031 0.43769 0.51863 0.0
H1201 H 0.22621 0.53571 0.495 0.0
H1202 H 0.24809 0.45142 0.50553 0.0
H1203 H 0.29115 0.52141 0.51906 0.0
C1204 C 0.32068 0.49808 0.52427 0.0
C1205 C 0.32942 0.47446 0.52422 0.0
C1206 C 0.24322 0.46992 0.50333 0.0
C1207 C 0.28287 0.48419 0.51377 0.0
C1208 C 0.22147 0.47484 0.496 0.0
C1209 C 0.21503 0.49861 0.49256 0.0
C1210 C 0.25864 0.48888 0.5073 0.0
C1211 C 0.23049 0.5171 0.4973 0.0
C1212 C 0.29745 0.50301 0.51908 0.0
C1213 C 0.31428 0.45616 0.51886 0.0
N1214 N 0.25163 0.51184 0.50434 0.0
N1215 N 0.29175 0.4614 0.51386 0.0
loop_
_geom_bond_atom_site_label_1
_geom_bond_atom_site_label_2
_geom_bond_distance
_geom_bond_site_symmetry_2
_ccdc_geom_bond_type
O0 Cd1 2.300 . S
O0 C7 1.275 . S
Cd1 O0 2.300 . S
Cd1 O9 2.381 . S
Cd1 O10 2.378 . S
O2 Cd3 2.385 . S
O2 C7 1.255 . S
Cd3 O2 2.385 . S
Cd3 O4 2.317 . S
O4 Cd3 2.317 . S
O4 C5 1.232 . S
C5 O4 1.232 . S
C5 O6 1.218 . S
O6 C5 1.218 . S
C7 O0 1.275 . S
C7 O2 1.255 . S
C8 O9 1.258 . S
C8 O10 1.256 . S
O9 Cd1 2.381 . S
O9 C8 1.258 . S
O10 Cd1 2.378 . S
O10 C8 1.256 . S
O11 Cd12 2.300 . S
O11 C18 1.275 . S
Cd12 O11 2.300 . S
Cd12 O20 2.381 . S
Cd12 O21 2.378 . S
O13 Cd14 2.385 . S
O13 C18 1.255 . S
Cd14 O13 2.385 . S
Cd14 O15 2.317 . S
O15 Cd14 2.317 . S
O15 C16 1.232 1_565 S
C16 O15 1.232 1_545 S
C16 O17 1.218 1_545 S
O17 C16 1.218 1_565 S
C18 O11 1.275 . S
C18 O13 1.255 . S
C19 O20 1.258 . S
C19 O21 1.256 . S
O20 Cd12 2.381 . S
O20 C19 1.258 . S
O21 Cd12 2.378 . S
O21 C19 1.256 . S
O22 Cd23 2.300 . S
O22 C29 1.275 . S
Cd23 O22 2.300 . S
Cd23 O31 2.381 . S
Cd23 O32 2.378 . S
O24 Cd25 2.385 . S
O24 C29 1.255 . S
Cd25 O24 2.385 . S
Cd25 O26 2.317 . S
O26 Cd25 2.317 . S
O26 C27 1.232 . S
C27 O26 1.232 . S
C27 O28 1.218 . S
O28 C27 1.218 . S
C29 O22 1.275 . S
C29 O24 1.255 . S
C30 O31 1.258 . S
C30 O32 1.256 . S
O31 Cd23 2.381 . S
O31 C30 1.258 . S
O32 Cd23 2.378 . S
O32 C30 1.256 . S
O33 Cd34 2.300 . S
O33 C40 1.275 . S
Cd34 O33 2.300 . S
Cd34 O42 2.381 . S
Cd34 O43 2.378 . S
O35 Cd36 2.385 . S
O35 C40 1.255 . S
Cd36 O35 2.385 . S
Cd36 O37 2.317 . S
O37 Cd36 2.317 . S
O37 C38 1.232 1_545 S
C38 O37 1.232 1_565 S
C38 O39 1.218 1_565 S
O39 C38 1.218 1_545 S
C40 O33 1.275 . S
C40 O35 1.255 . S
C41 O42 1.258 . S
C41 O43 1.256 . S
O42 Cd34 2.381 . S
O42 C41 1.258 . S
O43 Cd34 2.378 . S
O43 C41 1.256 . S
O44 Cd45 2.300 . S
O44 C51 1.275 . S
Cd45 O44 2.300 . S
Cd45 O53 2.381 . S
Cd45 O54 2.378 . S
O46 Cd47 2.385 . S
O46 C51 1.255 . S
Cd47 O46 2.385 . S
Cd47 O48 2.317 . S
O48 Cd47 2.317 . S
O48 C49 1.232 . S
C49 O48 1.232 . S
C49 O50 1.218 . S
O50 C49 1.218 . S
C51 O44 1.275 . S
C51 O46 1.255 . S
C52 O53 1.258 . S
C52 O54 1.256 . S
O53 Cd45 2.381 . S
O53 C52 1.258 . S
O54 Cd45 2.378 . S
O54 C52 1.256 . S
O55 Cd56 2.300 . S
O55 C62 1.275 . S
Cd56 O55 2.300 . S
Cd56 O64 2.381 . S
Cd56 O65 2.378 . S
O57 Cd58 2.385 . S
O57 C62 1.255 . S
Cd58 O57 2.385 . S
Cd58 O59 2.317 . S
O59 Cd58 2.317 . S
O59 C60 1.232 1_565 S
C60 O59 1.232 1_545 S
C60 O61 1.218 1_545 S
O61 C60 1.218 1_565 S
C62 O55 1.275 . S
C62 O57 1.255 . S
C63 O64 1.258 . S
C63 O65 1.256 . S
O64 Cd56 2.381 . S
O64 C63 1.258 . S
O65 Cd56 2.378 . S
O65 C63 1.256 . S
O66 Cd67 2.300 . S
O66 C73 1.275 . S
Cd67 O66 2.300 . S
Cd67 O75 2.381 . S
Cd67 O76 2.378 . S
O68 Cd69 2.385 . S
O68 C73 1.255 . S
Cd69 O68 2.385 . S
Cd69 O70 2.317 . S
O70 Cd69 2.317 . S
O70 C71 1.232 . S
C71 O70 1.232 . S
C71 O72 1.218 . S
O72 C71 1.218 . S
C73 O66 1.275 . S
C73 O68 1.255 . S
C74 O75 1.258 . S
C74 O76 1.256 . S
O75 Cd67 2.381 . S
O75 C74 1.258 . S
O76 Cd67 2.378 . S
O76 C74 1.256 . S
O77 Cd78 2.300 . S
O77 C84 1.275 . S
Cd78 O77 2.300 . S
Cd78 O86 2.381 . S
Cd78 O87 2.378 . S
O79 Cd80 2.385 . S
O79 C84 1.255 . S
Cd80 O79 2.385 . S
Cd80 O81 2.317 . S
O81 Cd80 2.317 . S
O81 C82 1.232 1_545 S
C82 O81 1.232 1_565 S
C82 O83 1.218 1_565 S
O83 C82 1.218 1_545 S
C84 O77 1.275 . S
C84 O79 1.255 . S
C85 O86 1.258 . S
C85 O87 1.256 . S
O86 Cd78 2.381 . S
O86 C85 1.258 . S
O87 Cd78 2.378 . S
O87 C85 1.256 . S
O88 Cd89 2.300 . S
O88 C95 1.275 . S
Cd89 O88 2.300 . S
Cd89 O97 2.381 . S
Cd89 O98 2.378 . S
O90 Cd91 2.385 . S
O90 C95 1.255 . S
Cd91 O90 2.385 . S
Cd91 O92 2.317 . S
O92 Cd91 2.317 . S
O92 C93 1.232 . S
C93 O92 1.232 . S
C93 O94 1.218 . S
O94 C93 1.218 . S
C95 O88 1.275 . S
C95 O90 1.255 . S
C96 O97 1.258 . S
C96 O98 1.256 . S
O97 Cd89 2.381 . S
O97 C96 1.258 . S
O98 Cd89 2.378 . S
O98 C96 1.256 . S
O99 Cd100 2.300 1_545 S
O99 C106 1.275 . S
Cd100 O99 2.300 1_565 S
Cd100 O108 2.381 1_565 S
Cd100 O109 2.378 . S
O101 Cd102 2.385 . S
O101 C106 1.255 1_565 S
Cd102 O101 2.385 . S
Cd102 O103 2.317 . S
O103 Cd102 2.317 . S
O103 C104 1.232 . S
C104 O103 1.232 . S
C104 O105 1.218 . S
O105 C104 1.218 . S
C106 O99 1.275 . S
C106 O101 1.255 1_545 S
C107 O108 1.258 . S
C107 O109 1.256 1_545 S
O108 Cd100 2.381 1_545 S
O108 C107 1.258 . S
O109 Cd100 2.378 . S
O109 C107 1.256 1_565 S
O110 Cd111 2.300 . S
O110 C117 1.275 . S
Cd111 O110 2.300 . S
Cd111 O119 2.381 . S
Cd111 O120 2.378 . S
O112 Cd113 2.385 . S
O112 C117 1.255 . S
Cd113 O112 2.385 . S
Cd113 O114 2.317 . S
O114 Cd113 2.317 . S
O114 C115 1.232 . S
C115 O114 1.232 . S
C115 O116 1.218 . S
O116 C115 1.218 . S
C117 O110 1.275 . S
C117 O112 1.255 . S
C118 O119 1.258 . S
C118 O120 1.256 . S
O119 Cd111 2.381 . S
O119 C118 1.258 . S
O120 Cd111 2.378 . S
O120 C118 1.256 . S
O121 Cd122 2.300 1_565 S
O121 C128 1.275 . S
Cd122 O121 2.300 1_545 S
Cd122 O130 2.381 1_545 S
Cd122 O131 2.378 . S
O123 Cd124 2.385 . S
O123 C128 1.255 1_545 S
Cd124 O123 2.385 . S
Cd124 O125 2.317 . S
O125 Cd124 2.317 . S
O125 C126 1.232 . S
C126 O125 1.232 . S
C126 O127 1.218 . S
O127 C126 1.218 . S
C128 O121 1.275 . S
C128 O123 1.255 1_565 S
C129 O130 1.258 . S
C129 O131 1.256 1_565 S
O130 Cd122 2.381 1_565 S
O130 C129 1.258 . S
O131 Cd122 2.378 . S
O131 C129 1.256 1_545 S
O132 Cd133 2.300 . S
O132 C139 1.275 . S
Cd133 O132 2.300 . S
Cd133 O141 2.381 . S
Cd133 O142 2.378 . S
O134 Cd135 2.385 . S
O134 C139 1.255 . S
Cd135 O134 2.385 . S
Cd135 O136 2.317 . S
O136 Cd135 2.317 . S
O136 C137 1.232 . S
C137 O136 1.232 . S
C137 O138 1.218 . S
O138 C137 1.218 . S
C139 O132 1.275 . S
C139 O134 1.255 . S
C140 O141 1.258 . S
C140 O142 1.256 . S
O141 Cd133 2.381 . S
O141 C140 1.258 . S
O142 Cd133 2.378 . S
O142 C140 1.256 . S
O143 Cd144 2.300 1_545 S
O143 C150 1.275 . S
Cd144 O143 2.300 1_565 S
Cd144 O152 2.381 1_565 S
Cd144 O153 2.378 . S
O145 Cd146 2.385 . S
O145 C150 1.255 1_565 S
Cd146 O145 2.385 . S
Cd146 O147 2.317 . S
O147 Cd146 2.317 . S
O147 C148 1.232 . S
C148 O147 1.232 . S
C148 O149 1.218 . S
O149 C148 1.218 . S
C150 O143 1.275 . S
C150 O145 1.255 1_545 S
C151 O152 1.258 . S
C151 O153 1.256 1_545 S
O152 Cd144 2.381 1_545 S
O152 C151 1.258 . S
O153 Cd144 2.378 . S
O153 C151 1.256 1_565 S
O154 Cd155 2.300 . S
O154 C161 1.275 . S
Cd155 O154 2.300 . S
Cd155 O163 2.381 . S
Cd155 O164 2.378 . S
O156 Cd157 2.385 . S
O156 C161 1.255 . S
Cd157 O156 2.385 . S
Cd157 O158 2.317 . S
O158 Cd157 2.317 . S
O158 C159 1.232 . S
C159 O158 1.232 . S
C159 O160 1.218 . S
O160 C159 1.218 . S
C161 O154 1.275 . S
C161 O156 1.255 . S
C162 O163 1.258 . S
C162 O164 1.256 . S
O163 Cd155 2.381 . S
O163 C162 1.258 . S
O164 Cd155 2.378 . S
O164 C162 1.256 . S
O165 Cd166 2.300 1_565 S
O165 C172 1.275 . S
Cd166 O165 2.300 1_545 S
Cd166 O174 2.381 1_545 S
Cd166 O175 2.378 . S
O167 Cd168 2.385 . S
O167 C172 1.255 1_545 S
Cd168 O167 2.385 . S
Cd168 O169 2.317 . S
O169 Cd168 2.317 . S
O169 C170 1.232 . S
C170 O169 1.232 . S
C170 O171 1.218 . S
O171 C170 1.218 . S
C172 O165 1.275 . S
C172 O167 1.255 1_565 S
C173 O174 1.258 . S
C173 O175 1.256 1_565 S
O174 Cd166 2.381 1_565 S
O174 C173 1.258 . S
O175 Cd166 2.378 . S
O175 C173 1.256 1_545 S
O176 Cd177 2.300 . S
O176 C183 1.275 . S
Cd177 O176 2.300 . S
Cd177 O185 2.381 . S
Cd177 O186 2.378 . S
O178 Cd179 2.385 . S
O178 C183 1.255 . S
Cd179 O178 2.385 . S
Cd179 O180 2.317 . S
O180 Cd179 2.317 . S
O180 C181 1.232 . S
C181 O180 1.232 . S
C181 O182 1.218 . S
O182 C181 1.218 . S
C183 O176 1.275 . S
C183 O178 1.255 . S
C184 O185 1.258 . S
C184 O186 1.256 . S
O185 Cd177 2.381 . S
O185 C184 1.258 . S
O186 Cd177 2.378 . S
O186 C184 1.256 . S
O187 Cd188 2.300 . S
O187 C194 1.275 . S
Cd188 O187 2.300 . S
Cd188 O196 2.381 . S
Cd188 O197 2.378 . S
O189 Cd190 2.385 . S
O189 C194 1.255 . S
Cd190 O189 2.385 . S
Cd190 O191 2.317 . S
O191 Cd190 2.317 . S
O191 C192 1.232 . S
C192 O191 1.232 . S
C192 O193 1.218 . S
O193 C192 1.218 . S
C194 O187 1.275 . S
C194 O189 1.255 . S
C195 O196 1.258 . S
C195 O197 1.256 . S
O196 Cd188 2.381 . S
O196 C195 1.258 . S
O197 Cd188 2.378 . S
O197 C195 1.256 . S
O198 Cd199 2.300 . S
O198 C205 1.275 . S
Cd199 O198 2.300 . S
Cd199 O207 2.381 . S
Cd199 O208 2.378 . S
O200 Cd201 2.385 . S
O200 C205 1.255 . S
Cd201 O200 2.385 . S
Cd201 O202 2.317 . S
O202 Cd201 2.317 . S
O202 C203 1.232 . S
C203 O202 1.232 . S
C203 O204 1.218 . S
O204 C203 1.218 . S
C205 O198 1.275 . S
C205 O200 1.255 . S
C206 O207 1.258 . S
C206 O208 1.256 . S
O207 Cd199 2.381 . S
O207 C206 1.258 . S
O208 Cd199 2.378 . S
O208 C206 1.256 . S
O209 Cd210 2.300 . S
O209 C216 1.275 . S
Cd210 O209 2.300 . S
Cd210 O218 2.381 . S
Cd210 O219 2.378 . S
O211 Cd212 2.385 . S
O211 C216 1.255 . S
Cd212 O211 2.385 . S
Cd212 O213 2.317 . S
O213 Cd212 2.317 . S
O213 C214 1.232 . S
C214 O213 1.232 . S
C214 O215 1.218 . S
O215 C214 1.218 . S
C216 O209 1.275 . S
C216 O211 1.255 . S
C217 O218 1.258 . S
C217 O219 1.256 . S
O218 Cd210 2.381 . S
O218 C217 1.258 . S
O219 Cd210 2.378 . S
O219 C217 1.256 . S
O220 Cd221 2.300 . S
O220 C227 1.275 . S
Cd221 O220 2.300 . S
Cd221 O229 2.381 . S
Cd221 O230 2.378 . S
O222 Cd223 2.385 . S
O222 C227 1.255 . S
Cd223 O222 2.385 . S
Cd223 O224 2.317 . S
O224 Cd223 2.317 . S
O224 C225 1.232 . S
C225 O224 1.232 . S
C225 O226 1.218 . S
O226 C225 1.218 . S
C227 O220 1.275 . S
C227 O222 1.255 . S
C228 O229 1.258 . S
C228 O230 1.256 . S
O229 Cd221 2.381 . S
O229 C228 1.258 . S
O230 Cd221 2.378 . S
O230 C228 1.256 . S
O231 Cd232 2.300 . S
O231 C238 1.275 . S
Cd232 O231 2.300 . S
Cd232 O240 2.381 . S
Cd232 O241 2.378 . S
O233 Cd234 2.385 . S
O233 C238 1.255 . S
Cd234 O233 2.385 . S
Cd234 O235 2.317 . S
O235 Cd234 2.317 . S
O235 C236 1.232 . S
C236 O235 1.232 . S
C236 O237 1.218 . S
O237 C236 1.218 . S
C238 O231 1.275 . S
C238 O233 1.255 . S
C239 O240 1.258 . S
C239 O241 1.256 . S
O240 Cd232 2.381 . S
O240 C239 1.258 . S
O241 Cd232 2.378 . S
O241 C239 1.256 . S
O242 Cd243 2.300 . S
O242 C249 1.275 . S
Cd243 O242 2.300 . S
Cd243 O251 2.381 . S
Cd243 O252 2.378 . S
O244 Cd245 2.385 . S
O244 C249 1.255 . S
Cd245 O244 2.385 . S
Cd245 O246 2.317 . S
O246 Cd245 2.317 . S
O246 C247 1.232 . S
C247 O246 1.232 . S
C247 O248 1.218 . S
O248 C247 1.218 . S
C249 O242 1.275 . S
C249 O244 1.255 . S
C250 O251 1.258 . S
C250 O252 1.256 . S
O251 Cd243 2.381 . S
O251 C250 1.258 . S
O252 Cd243 2.378 . S
O252 C250 1.256 . S
O253 Cd254 2.300 . S
O253 C260 1.275 . S
Cd254 O253 2.300 . S
Cd254 O262 2.381 . S
Cd254 O263 2.378 . S
O255 Cd256 2.385 . S
O255 C260 1.255 . S
Cd256 O255 2.385 . S
Cd256 O257 2.317 . S
O257 Cd256 2.317 . S
O257 C258 1.232 . S
C258 O257 1.232 . S
C258 O259 1.218 . S
O259 C258 1.218 . S
C260 O253 1.275 . S
C260 O255 1.255 . S
C261 O262 1.258 . S
C261 O263 1.256 . S
O262 Cd254 2.381 . S
O262 C261 1.258 . S
O263 Cd254 2.378 . S
O263 C261 1.256 . S
O264 Cd265 2.300 . S
O264 C271 1.275 . S
Cd265 O264 2.300 . S
Cd265 O273 2.381 . S
Cd265 O274 2.378 . S
O266 Cd267 2.385 . S
O266 C271 1.255 . S
Cd267 O266 2.385 . S
Cd267 O268 2.317 . S
O268 Cd267 2.317 . S
O268 C269 1.232 . S
C269 O268 1.232 . S
C269 O270 1.218 . S
O270 C269 1.218 . S
C271 O264 1.275 . S
C271 O266 1.255 . S
C272 O273 1.258 . S
C272 O274 1.256 . S
O273 Cd265 2.381 . S
O273 C272 1.258 . S
O274 Cd265 2.378 . S
O274 C272 1.256 . S
O275 Cd276 2.300 . S
O275 C282 1.275 . S
Cd276 O275 2.300 . S
Cd276 O284 2.381 . S
Cd276 O285 2.378 . S
O277 Cd278 2.385 . S
O277 C282 1.255 . S
Cd278 O277 2.385 . S
Cd278 O279 2.317 . S
O279 Cd278 2.317 . S
O279 C280 1.232 . S
C280 O279 1.232 . S
C280 O281 1.218 . S
O281 C280 1.218 . S
C282 O275 1.275 . S
C282 O277 1.255 . S
C283 O284 1.258 . S
C283 O285 1.256 . S
O284 Cd276 2.381 . S
O284 C283 1.258 . S
O285 Cd276 2.378 . S
O285 C283 1.256 . S
O286 Cd287 2.300 . S
O286 C293 1.275 . S
Cd287 O286 2.300 . S
Cd287 O295 2.381 . S
Cd287 O296 2.378 . S
O288 Cd289 2.385 . S
O288 C293 1.255 . S
Cd289 O288 2.385 . S
Cd289 O290 2.317 . S
O290 Cd289 2.317 . S
O290 C291 1.232 . S
C291 O290 1.232 . S
C291 O292 1.218 . S
O292 C291 1.218 . S
C293 O286 1.275 . S
C293 O288 1.255 . S
C294 O295 1.258 . S
C294 O296 1.256 . S
O295 Cd287 2.381 . S
O295 C294 1.258 . S
O296 Cd287 2.378 . S
O296 C294 1.256 . S
O297 Cd298 2.300 . S
O297 C304 1.275 . S
Cd298 O297 2.300 . S
Cd298 O306 2.381 . S
Cd298 O307 2.378 . S
O299 Cd300 2.385 . S
O299 C304 1.255 . S
Cd300 O299 2.385 . S
Cd300 O301 2.317 . S
O301 Cd300 2.317 . S
O301 C302 1.232 . S
C302 O301 1.232 . S
C302 O303 1.218 . S
O303 C302 1.218 . S
C304 O297 1.275 . S
C304 O299 1.255 . S
C305 O306 1.258 . S
C305 O307 1.256 . S
O306 Cd298 2.381 . S
O306 C305 1.258 . S
O307 Cd298 2.378 . S
O307 C305 1.256 . S
O308 Cd309 2.300 . S
O308 C315 1.275 . S
Cd309 O308 2.300 . S
Cd309 O317 2.381 . S
Cd309 O318 2.378 . S
O310 Cd311 2.385 . S
O310 C315 1.255 . S
Cd311 O310 2.385 . S
Cd311 O312 2.317 . S
O312 Cd311 2.317 . S
O312 C313 1.232 . S
C313 O312 1.232 . S
C313 O314 1.218 . S
O314 C313 1.218 . S
C315 O308 1.275 . S
C315 O310 1.255 . S
C316 O317 1.258 . S
C316 O318 1.256 . S
O317 Cd309 2.381 . S
O317 C316 1.258 . S
O318 Cd309 2.378 . S
O318 C316 1.256 . S
O319 Cd320 2.300 . S
O319 C326 1.275 . S
Cd320 O319 2.300 . S
Cd320 O328 2.381 . S
Cd320 O329 2.378 . S
O321 Cd322 2.385 . S
O321 C326 1.255 . S
Cd322 O321 2.385 . S
Cd322 O323 2.317 . S
O323 Cd322 2.317 . S
O323 C324 1.232 . S
C324 O323 1.232 . S
C324 O325 1.218 . S
O325 C324 1.218 . S
C326 O319 1.275 . S
C326 O321 1.255 . S
C327 O328 1.258 . S
C327 O329 1.256 . S
O328 Cd320 2.381 . S
O328 C327 1.258 . S
O329 Cd320 2.378 . S
O329 C327 1.256 . S
O330 Cd331 2.300 . S
O330 C337 1.275 . S
Cd331 O330 2.300 . S
Cd331 O339 2.381 . S
Cd331 O340 2.378 . S
O332 Cd333 2.385 . S
O332 C337 1.255 . S
Cd333 O332 2.385 . S
Cd333 O334 2.317 . S
O334 Cd333 2.317 . S
O334 C335 1.232 . S
C335 O334 1.232 . S
C335 O336 1.218 . S
O336 C335 1.218 . S
C337 O330 1.275 . S
C337 O332 1.255 . S
C338 O339 1.258 . S
C338 O340 1.256 . S
O339 Cd331 2.381 . S
O339 C338 1.258 . S
O340 Cd331 2.378 . S
O340 C338 1.256 . S
O341 Cd342 2.300 . S
O341 C348 1.275 . S
Cd342 O341 2.300 . S
Cd342 O350 2.381 . S
Cd342 O351 2.378 . S
O343 Cd344 2.385 . S
O343 C348 1.255 . S
Cd344 O343 2.385 . S
Cd344 O345 2.317 . S
O345 Cd344 2.317 . S
O345 C346 1.232 . S
C346 O345 1.232 . S
C346 O347 1.218 . S
O347 C346 1.218 . S
C348 O341 1.275 . S
C348 O343 1.255 . S
C349 O350 1.258 . S
C349 O351 1.256 . S
O350 Cd342 2.381 . S
O350 C349 1.258 . S
O351 Cd342 2.378 . S
O351 C349 1.256 . S
H352 C358 0.930 1_565 S
H353 C362 0.930 . S
H354 C367 0.929 . S
H355 C365 0.929 . S
H356 C360 0.929 . S
H357 C366 0.929 . S
C358 H352 0.930 1_545 S
C358 C359 1.367 . S
C358 C366 1.378 . S
C359 C358 1.367 . S
C359 C367 1.433 . S
C360 H356 0.929 . S
C360 C362 1.378 . S
C360 C364 1.350 . S
C361 C364 1.463 . S
C361 C366 1.350 . S
C361 N369 1.427 . S
C362 H353 0.930 . S
C362 C360 1.378 . S
C362 C363 1.367 . S
C363 C362 1.367 . S
C363 C365 1.433 . S
C364 C360 1.350 . S
C364 C361 1.463 . S
C364 N368 1.427 . S
C365 H355 0.929 . S
C365 C363 1.433 . S
C365 N368 1.384 . S
C366 H357 0.929 . S
C366 C358 1.378 . S
C366 C361 1.350 . S
C367 H354 0.929 . S
C367 C359 1.433 . S
C367 N369 1.384 . S
N368 C364 1.427 . S
N368 C365 1.384 . S
N369 C361 1.427 . S
N369 C367 1.384 . S
H370 C376 0.930 . S
H371 C380 0.930 . S
H372 C385 0.929 1_565 S
H373 C383 0.929 . S
H374 C378 0.929 . S
H375 C384 0.929 . S
C376 H370 0.930 . S
C376 C377 1.367 . S
C376 C384 1.378 . S
C377 C376 1.367 . S
C377 C385 1.433 . S
C378 H374 0.929 . S
C378 C380 1.378 . S
C378 C382 1.350 . S
C379 C382 1.463 . S
C379 C384 1.350 . S
C379 N387 1.427 . S
C380 H371 0.930 . S
C380 C378 1.378 . S
C380 C381 1.367 . S
C381 C380 1.367 . S
C381 C383 1.433 . S
C382 C378 1.350 . S
C382 C379 1.463 . S
C382 N386 1.427 . S
C383 H373 0.929 . S
C383 C381 1.433 . S
C383 N386 1.384 . S
C384 H375 0.929 . S
C384 C376 1.378 . S
C384 C379 1.350 . S
C385 H372 0.929 1_545 S
C385 C377 1.433 . S
C385 N387 1.384 . S
N386 C382 1.427 . S
N386 C383 1.384 . S
N387 C379 1.427 . S
N387 C385 1.384 . S
H388 C394 0.930 . S
H389 C398 0.930 1_545 S
H390 C403 0.929 . S
H391 C401 0.929 . S
H392 C396 0.929 . S
H393 C402 0.929 . S
C394 H388 0.930 . S
C394 C395 1.367 . S
C394 C402 1.378 . S
C395 C394 1.367 . S
C395 C403 1.433 . S
C396 H392 0.929 . S
C396 C398 1.378 . S
C396 C400 1.350 . S
C397 C400 1.463 . S
C397 C402 1.350 . S
C397 N405 1.427 . S
C398 H389 0.930 1_565 S
C398 C396 1.378 . S
C398 C399 1.367 . S
C399 C398 1.367 . S
C399 C401 1.433 . S
C400 C396 1.350 . S
C400 C397 1.463 . S
C400 N404 1.427 . S
C401 H391 0.929 . S
C401 C399 1.433 . S
C401 N404 1.384 . S
C402 H393 0.929 . S
C402 C394 1.378 . S
C402 C397 1.350 . S
C403 H390 0.929 . S
C403 C395 1.433 . S
C403 N405 1.384 . S
N404 C400 1.427 . S
N404 C401 1.384 . S
N405 C397 1.427 . S
N405 C403 1.384 . S
H406 C412 0.930 . S
H407 C416 0.930 . S
H408 C421 0.967 . S
H409 C419 0.929 . S
H410 C414 0.929 . S
H411 C420 0.929 . S
C412 H406 0.930 . S
C412 C413 1.367 . S
C412 C420 1.378 . S
C413 C412 1.367 . S
C413 C421 1.433 . S
C414 H410 0.929 . S
C414 C416 1.378 . S
C414 C418 1.350 . S
C415 C418 1.463 . S
C415 C420 1.350 . S
C415 N423 1.427 . S
C416 H407 0.930 . S
C416 C414 1.378 . S
C416 C417 1.367 . S
C417 C416 1.367 . S
C417 C419 1.433 . S
C418 C414 1.350 . S
C418 C415 1.463 . S
C418 N422 1.427 . S
C419 H409 0.929 . S
C419 C417 1.433 . S
C419 N422 1.384 . S
C420 H411 0.929 . S
C420 C412 1.378 . S
C420 C415 1.350 . S
C421 H408 0.967 . S
C421 C413 1.433 . S
C421 N423 1.384 . S
N422 C418 1.427 . S
N422 C419 1.384 . S
N423 C415 1.427 . S
N423 C421 1.384 . S
H424 C430 0.930 . S
H425 C434 0.930 . S
H426 C439 0.929 . S
H427 C437 0.929 . S
H428 C432 0.929 . S
H429 C438 0.929 . S
C430 H424 0.930 . S
C430 C431 1.367 . S
C430 C438 1.378 . S
C431 C430 1.367 . S
C431 C439 1.433 . S
C432 H428 0.929 . S
C432 C434 1.378 . S
C432 C436 1.350 . S
C433 C436 1.463 . S
C433 C438 1.350 . S
C433 N441 1.427 . S
C434 H425 0.930 . S
C434 C432 1.378 . S
C434 C435 1.367 . S
C435 C434 1.367 . S
C435 C437 1.433 . S
C436 C432 1.350 . S
C436 C433 1.463 . S
C436 N440 1.427 . S
C437 H427 0.929 . S
C437 C435 1.433 . S
C437 N440 1.384 . S
C438 H429 0.929 . S
C438 C430 1.378 . S
C438 C433 1.350 . S
C439 H426 0.929 . S
C439 C431 1.433 . S
C439 N441 1.384 . S
N440 C436 1.427 . S
N440 C437 1.384 . S
N441 C433 1.427 . S
N441 C439 1.384 . S
H442 C448 0.930 . S
H443 C452 0.930 . S
H444 C457 0.929 . S
H445 C455 0.929 . S
H446 C450 0.929 . S
H447 C456 0.929 . S
C448 H442 0.930 . S
C448 C449 1.367 . S
C448 C456 1.378 . S
C449 C448 1.367 . S
C449 C457 1.433 . S
C450 H446 0.929 . S
C450 C452 1.378 . S
C450 C454 1.350 . S
C451 C454 1.463 . S
C451 C456 1.350 . S
C451 N459 1.427 . S
C452 H443 0.930 . S
C452 C450 1.378 . S
C452 C453 1.367 . S
C453 C452 1.367 . S
C453 C455 1.433 . S
C454 C450 1.350 . S
C454 C451 1.463 . S
C454 N458 1.427 . S
C455 H445 0.929 . S
C455 C453 1.433 . S
C455 N458 1.384 . S
C456 H447 0.929 . S
C456 C448 1.378 . S
C456 C451 1.350 . S
C457 H444 0.929 . S
C457 C449 1.433 . S
C457 N459 1.384 . S
N458 C454 1.427 . S
N458 C455 1.384 . S
N459 C451 1.427 . S
N459 C457 1.384 . S
H460 C466 0.930 . S
H461 C470 0.930 1_565 S
H462 C475 0.929 . S
H463 C473 0.929 . S
H464 C468 0.929 . S
H465 C474 0.929 . S
C466 H460 0.930 . S
C466 C467 1.367 . S
C466 C474 1.378 . S
C467 C466 1.367 . S
C467 C475 1.433 . S
C468 H464 0.929 . S
C468 C470 1.378 . S
C468 C472 1.350 . S
C469 C472 1.463 . S
C469 C474 1.350 . S
C469 N477 1.427 . S
C470 H461 0.930 1_545 S
C470 C468 1.378 . S
C470 C471 1.367 . S
C471 C470 1.367 . S
C471 C473 1.433 . S
C472 C468 1.350 . S
C472 C469 1.463 . S
C472 N476 1.427 . S
C473 H463 0.929 . S
C473 C471 1.433 . S
C473 N476 1.384 . S
C474 H465 0.929 . S
C474 C466 1.378 . S
C474 C469 1.350 . S
C475 H462 0.929 . S
C475 C467 1.433 . S
C475 N477 1.384 . S
N476 C472 1.427 . S
N476 C473 1.384 . S
N477 C469 1.427 . S
N477 C475 1.384 . S
H478 C484 0.930 . S
H479 C488 0.930 . S
H480 C493 0.929 . S
H481 C491 0.929 1_565 S
H482 C486 0.929 . S
H483 C492 0.929 . S
C484 H478 0.930 . S
C484 C485 1.367 . S
C484 C492 1.378 . S
C485 C484 1.367 . S
C485 C493 1.433 . S
C486 H482 0.929 . S
C486 C488 1.378 . S
C486 C490 1.350 . S
C487 C490 1.463 . S
C487 C492 1.350 . S
C487 N495 1.427 . S
C488 H479 0.930 . S
C488 C486 1.378 . S
C488 C489 1.367 . S
C489 C488 1.367 . S
C489 C491 1.433 . S
C490 C486 1.350 . S
C490 C487 1.463 . S
C490 N494 1.427 . S
C491 H481 0.929 1_545 S
C491 C489 1.433 . S
C491 N494 1.384 . S
C492 H483 0.929 . S
C492 C484 1.378 . S
C492 C487 1.350 . S
C493 H480 0.929 . S
C493 C485 1.433 . S
C493 N495 1.384 . S
N494 C490 1.427 . S
N494 C491 1.384 . S
N495 C487 1.427 . S
N495 C493 1.384 . S
H496 C502 0.930 . S
H497 C506 0.930 . S
H498 C511 0.929 . S
H499 C509 0.929 . S
H500 C504 0.929 . S
H501 C510 0.929 . S
C502 H496 0.930 . S
C502 C503 1.367 . S
C502 C510 1.378 . S
C503 C502 1.367 . S
C503 C511 1.433 . S
C504 H500 0.929 . S
C504 C506 1.378 . S
C504 C508 1.350 . S
C505 C508 1.463 . S
C505 C510 1.350 . S
C505 N513 1.427 . S
C506 H497 0.930 . S
C506 C504 1.378 . S
C506 C507 1.367 . S
C507 C506 1.367 . S
C507 C509 1.433 . S
C508 C504 1.350 . S
C508 C505 1.463 . S
C508 N512 1.427 . S
C509 H499 0.929 . S
C509 C507 1.433 . S
C509 N512 1.384 . S
C510 H501 0.929 . S
C510 C502 1.378 . S
C510 C505 1.350 . S
C511 H498 0.929 . S
C511 C503 1.433 . S
C511 N513 1.384 . S
N512 C508 1.427 . S
N512 C509 1.384 . S
N513 C505 1.427 . S
N513 C511 1.384 . S
H514 C520 0.930 . S
H515 C524 0.930 . S
H516 C529 0.929 . S
H517 C527 0.929 . S
H518 C522 0.929 . S
H519 C528 0.929 . S
C520 H514 0.930 . S
C520 C521 1.367 . S
C520 C528 1.378 . S
C521 C520 1.367 . S
C521 C529 1.433 . S
C522 H518 0.929 . S
C522 C524 1.378 . S
C522 C526 1.350 . S
C523 C526 1.463 . S
C523 C528 1.350 . S
C523 N531 1.427 . S
C524 H515 0.930 . S
C524 C522 1.378 . S
C524 C525 1.367 . S
C525 C524 1.367 . S
C525 C527 1.433 . S
C526 C522 1.350 . S
C526 C523 1.463 . S
C526 N530 1.427 . S
C527 H517 0.929 . S
C527 C525 1.433 . S
C527 N530 1.384 . S
C528 H519 0.929 . S
C528 C520 1.378 . S
C528 C523 1.350 . S
C529 H516 0.929 . S
C529 C521 1.433 . S
C529 N531 1.384 . S
N530 C526 1.427 . S
N530 C527 1.384 . S
N531 C523 1.427 . S
N531 C529 1.384 . S
H532 C538 0.930 . S
H533 C542 0.930 . S
H534 C547 0.929 . S
H535 C545 0.929 . S
H536 C540 0.929 . S
H537 C546 0.929 . S
C538 H532 0.930 . S
C538 C539 1.367 . S
C538 C546 1.378 . S
C539 C538 1.367 . S
C539 C547 1.433 . S
C540 H536 0.929 . S
C540 C542 1.378 . S
C540 C544 1.350 . S
C541 C544 1.463 . S
C541 C546 1.350 . S
C541 N549 1.427 . S
C542 H533 0.930 . S
C542 C540 1.378 . S
C542 C543 1.367 . S
C543 C542 1.367 . S
C543 C545 1.433 . S
C544 C540 1.350 . S
C544 C541 1.463 . S
C544 N548 1.427 . S
C545 H535 0.929 . S
C545 C543 1.433 . S
C545 N548 1.384 . S
C546 H537 0.929 . S
C546 C538 1.378 . S
C546 C541 1.350 . S
C547 H534 0.929 . S
C547 C539 1.433 . S
C547 N549 1.384 . S
N548 C544 1.427 . S
N548 C545 1.384 . S
N549 C541 1.427 . S
N549 C547 1.384 . S
H550 C556 0.930 . S
H551 C560 0.930 . S
H552 C565 0.929 . S
H553 C563 0.929 . S
H554 C558 0.929 . S
H555 C564 0.929 . S
C556 H550 0.930 . S
C556 C557 1.367 . S
C556 C564 1.378 . S
C557 C556 1.367 . S
C557 C565 1.433 . S
C558 H554 0.929 . S
C558 C560 1.378 . S
C558 C562 1.350 . S
C559 C562 1.463 . S
C559 C564 1.350 . S
C559 N567 1.427 . S
C560 H551 0.930 . S
C560 C558 1.378 . S
C560 C561 1.367 . S
C561 C560 1.367 . S
C561 C563 1.433 . S
C562 C558 1.350 . S
C562 C559 1.463 . S
C562 N566 1.427 . S
C563 H553 0.929 . S
C563 C561 1.433 . S
C563 N566 1.384 . S
C564 H555 0.929 . S
C564 C556 1.378 . S
C564 C559 1.350 . S
C565 H552 0.929 . S
C565 C557 1.433 . S
C565 N567 1.384 . S
N566 C562 1.427 . S
N566 C563 1.384 . S
N567 C559 1.427 . S
N567 C565 1.384 . S
H568 C574 0.930 . S
H569 C578 0.930 . S
H570 C583 0.929 . S
H571 C581 0.929 . S
H572 C576 0.929 . S
H573 C582 0.929 . S
C574 H568 0.930 . S
C574 C575 1.367 . S
C574 C582 1.378 . S
C575 C574 1.367 . S
C575 C583 1.433 . S
C576 H572 0.929 . S
C576 C578 1.378 . S
C576 C580 1.350 . S
C577 C580 1.463 . S
C577 C582 1.350 . S
C577 N585 1.427 . S
C578 H569 0.930 . S
C578 C576 1.378 . S
C578 C579 1.367 . S
C579 C578 1.367 . S
C579 C581 1.433 . S
C580 C576 1.350 . S
C580 C577 1.463 . S
C580 N584 1.427 . S
C581 H571 0.929 . S
C581 C579 1.433 . S
C581 N584 1.384 . S
C582 H573 0.929 . S
C582 C574 1.378 . S
C582 C577 1.350 . S
C583 H570 0.929 . S
C583 C575 1.433 . S
C583 N585 1.384 . S
N584 C580 1.427 . S
N584 C581 1.384 . S
N585 C577 1.427 . S
N585 C583 1.384 . S
H586 C592 0.930 . S
H587 C596 0.930 . S
H588 C601 0.929 . S
H589 C599 0.929 . S
H590 C594 0.929 . S
H591 C600 0.929 . S
C592 H586 0.930 . S
C592 C593 1.367 . S
C592 C600 1.378 . S
C593 C592 1.367 . S
C593 C601 1.433 . S
C594 H590 0.929 . S
C594 C596 1.378 . S
C594 C598 1.350 . S
C595 C598 1.463 . S
C595 C600 1.350 . S
C595 N603 1.427 . S
C596 H587 0.930 . S
C596 C594 1.378 . S
C596 C597 1.367 . S
C597 C596 1.367 . S
C597 C599 1.433 . S
C598 C594 1.350 . S
C598 C595 1.463 . S
C598 N602 1.427 . S
C599 H589 0.929 . S
C599 C597 1.433 . S
C599 N602 1.384 . S
C600 H591 0.929 . S
C600 C592 1.378 . S
C600 C595 1.350 . S
C601 H588 0.929 . S
C601 C593 1.433 . S
C601 N603 1.384 . S
N602 C598 1.427 . S
N602 C599 1.384 . S
N603 C595 1.427 . S
N603 C601 1.384 . S
H604 C610 0.930 . S
H605 C614 0.930 . S
H606 C619 0.929 . S
H607 C617 0.929 . S
H608 C612 0.929 . S
H609 C618 0.929 . S
C610 H604 0.930 . S
C610 C611 1.367 . S
C610 C618 1.378 . S
C611 C610 1.367 . S
C611 C619 1.433 . S
C612 H608 0.929 . S
C612 C614 1.378 . S
C612 C616 1.350 . S
C613 C616 1.463 . S
C613 C618 1.350 . S
C613 N621 1.427 . S
C614 H605 0.930 . S
C614 C612 1.378 . S
C614 C615 1.367 . S
C615 C614 1.367 . S
C615 C617 1.433 . S
C616 C612 1.350 . S
C616 C613 1.463 . S
C616 N620 1.427 . S
C617 H607 0.929 . S
C617 C615 1.433 . S
C617 N620 1.384 . S
C618 H609 0.929 . S
C618 C610 1.378 . S
C618 C613 1.350 . S
C619 H606 0.929 . S
C619 C611 1.433 . S
C619 N621 1.384 . S
N620 C616 1.427 . S
N620 C617 1.384 . S
N621 C613 1.427 . S
N621 C619 1.384 . S
H622 C628 0.930 . S
H623 C632 0.930 . S
H624 C637 0.929 . S
H625 C635 0.929 . S
H626 C630 0.929 . S
H627 C636 0.929 . S
C628 H622 0.930 . S
C628 C629 1.367 . S
C628 C636 1.378 . S
C629 C628 1.367 . S
C629 C637 1.433 . S
C630 H626 0.929 . S
C630 C632 1.378 . S
C630 C634 1.350 . S
C631 C634 1.463 . S
C631 C636 1.350 . S
C631 N639 1.427 . S
C632 H623 0.930 . S
C632 C630 1.378 . S
C632 C633 1.367 . S
C633 C632 1.367 . S
C633 C635 1.433 . S
C634 C630 1.350 . S
C634 C631 1.463 . S
C634 N638 1.427 . S
C635 H625 0.929 . S
C635 C633 1.433 . S
C635 N638 1.384 . S
C636 H627 0.929 . S
C636 C628 1.378 . S
C636 C631 1.350 . S
C637 H624 0.929 . S
C637 C629 1.433 . S
C637 N639 1.384 . S
N638 C634 1.427 . S
N638 C635 1.384 . S
N639 C631 1.427 . S
N639 C637 1.384 . S
H640 C646 0.930 . S
H641 C650 0.930 . S
H642 C655 0.929 . S
H643 C653 0.929 . S
H644 C648 0.929 . S
H645 C654 0.929 . S
C646 H640 0.930 . S
C646 C647 1.367 . S
C646 C654 1.378 . S
C647 C646 1.367 . S
C647 C655 1.433 . S
C648 H644 0.929 . S
C648 C650 1.378 . S
C648 C652 1.350 . S
C649 C652 1.463 . S
C649 C654 1.350 . S
C649 N657 1.427 . S
C650 H641 0.930 . S
C650 C648 1.378 . S
C650 C651 1.367 . S
C651 C650 1.367 . S
C651 C653 1.433 . S
C652 C648 1.350 . S
C652 C649 1.463 . S
C652 N656 1.427 . S
C653 H643 0.929 . S
C653 C651 1.433 . S
C653 N656 1.384 . S
C654 H645 0.929 . S
C654 C646 1.378 . S
C654 C649 1.350 . S
C655 H642 0.929 . S
C655 C647 1.433 . S
C655 N657 1.384 . S
N656 C652 1.427 . S
N656 C653 1.384 . S
N657 C649 1.427 . S
N657 C655 1.384 . S
H658 C664 0.930 . S
H659 C668 0.930 . S
H660 C673 0.929 . S
H661 C671 0.929 . S
H662 C666 0.929 . S
H663 C672 0.929 . S
C664 H658 0.930 . S
C664 C665 1.367 1_565 S
C664 C672 1.378 . S
C665 C664 1.367 1_545 S
C665 C673 1.433 . S
C666 H662 0.929 . S
C666 C668 1.378 . S
C666 C670 1.350 1_545 S
C667 C670 1.460 1_645 S
C667 C672 1.316 1_545 S
C667 N675 1.468 . S
C668 H659 0.930 . S
C668 C666 1.378 . S
C668 C669 1.367 1_545 S
C669 C668 1.367 1_565 S
C669 C671 1.433 . S
C670 C666 1.350 1_565 S
C670 C667 1.460 1_465 S
C670 N674 1.427 . S
C671 H661 0.929 . S
C671 C669 1.433 . S
C671 N674 1.384 . S
C672 H663 0.929 . S
C672 C664 1.378 . S
C672 C667 1.316 1_565 S
C673 H660 0.929 . S
C673 C665 1.433 . S
C673 N675 1.384 . S
N674 C670 1.427 . S
N674 C671 1.384 . S
N675 C667 1.468 . S
N675 C673 1.384 . S
H676 C682 0.930 . S
H677 C686 0.930 . S
H678 C691 0.929 . S
H679 C689 0.929 . S
H680 C684 0.929 . S
H681 C690 0.929 . S
C682 H676 0.930 . S
C682 C683 1.367 . S
C682 C690 1.378 . S
C683 C682 1.367 . S
C683 C691 1.433 . S
C684 H680 0.929 . S
C684 C686 1.378 . S
C684 C688 1.350 . S
C685 C688 1.463 . S
C685 C690 1.350 . S
C685 N693 1.427 . S
C686 H677 0.930 . S
C686 C684 1.378 . S
C686 C687 1.367 . S
C687 C686 1.367 . S
C687 C689 1.433 . S
C688 C684 1.350 . S
C688 C685 1.463 . S
C688 N692 1.427 . S
C689 H679 0.929 . S
C689 C687 1.433 . S
C689 N692 1.384 . S
C690 H681 0.929 . S
C690 C682 1.378 . S
C690 C685 1.350 . S
C691 H678 0.929 . S
C691 C683 1.433 . S
C691 N693 1.384 . S
N692 C688 1.427 . S
N692 C689 1.384 . S
N693 C685 1.427 . S
N693 C691 1.384 . S
H694 C700 0.930 . S
H695 C704 0.930 . S
H696 C709 0.929 . S
H697 C707 0.929 . S
H698 C702 0.949 . S
H699 C708 0.949 . S
C700 H694 0.930 . S
C700 C701 1.367 1_565 S
C700 C708 1.378 . S
C701 C700 1.367 1_545 S
C701 C709 1.433 . S
C702 H698 0.949 . S
C702 C704 1.378 . S
C702 C706 1.350 1_545 S
C703 C706 1.460 1_544 S
C703 C708 1.316 1_545 S
C703 N711 1.468 . S
C704 H695 0.930 . S
C704 C702 1.378 . S
C704 C705 1.367 1_545 S
C705 C704 1.367 1_565 S
C705 C707 1.433 . S
C706 C702 1.350 1_565 S
C706 C703 1.460 1_566 S
C706 N710 1.427 . S
C707 H697 0.929 . S
C707 C705 1.433 . S
C707 N710 1.384 . S
C708 H699 0.949 . S
C708 C700 1.378 . S
C708 C703 1.316 1_565 S
C709 H696 0.929 . S
C709 C701 1.433 . S
C709 N711 1.384 . S
N710 C706 1.427 . S
N710 C707 1.384 . S
N711 C703 1.468 . S
N711 C709 1.384 . S
H712 C718 0.930 . S
H713 C722 0.930 . S
H714 C727 0.929 . S
H715 C725 0.929 . S
H716 C720 0.929 . S
H717 C726 0.929 . S
C718 H712 0.930 . S
C718 C719 1.367 . S
C718 C726 1.378 . S
C719 C718 1.367 . S
C719 C727 1.433 . S
C720 H716 0.929 . S
C720 C722 1.378 . S
C720 C724 1.350 . S
C721 C724 1.463 . S
C721 C726 1.350 . S
C721 N729 1.427 . S
C722 H713 0.930 . S
C722 C720 1.378 . S
C722 C723 1.367 . S
C723 C722 1.367 . S
C723 C725 1.433 . S
C724 C720 1.350 . S
C724 C721 1.463 . S
C724 N728 1.427 . S
C725 H715 0.929 . S
C725 C723 1.433 . S
C725 N728 1.384 . S
C726 H717 0.929 . S
C726 C718 1.378 . S
C726 C721 1.350 . S
C727 H714 0.929 . S
C727 C719 1.433 . S
C727 N729 1.384 . S
N728 C724 1.427 . S
N728 C725 1.384 . S
N729 C721 1.427 . S
N729 C727 1.384 . S
H730 C736 0.930 . S
H731 C740 0.930 . S
H732 C745 0.929 . S
H733 C743 0.929 . S
H734 C738 0.929 . S
H735 C744 0.929 . S
C736 H730 0.930 . S
C736 C737 1.367 . S
C736 C744 1.378 . S
C737 C736 1.367 . S
C737 C745 1.433 1_545 S
C738 H734 0.929 . S
C738 C740 1.378 . S
C738 C742 1.350 . S
C739 C742 1.463 1_545 S
C739 C744 1.350 . S
C739 N747 1.427 1_545 S
C740 H731 0.930 . S
C740 C738 1.378 . S
C740 C741 1.367 . S
C741 C740 1.367 . S
C741 C743 1.433 1_565 S
C742 C738 1.350 . S
C742 C739 1.463 1_565 S
C742 N746 1.427 1_565 S
C743 H733 0.929 . S
C743 C741 1.433 1_545 S
C743 N746 1.384 . S
C744 H735 0.929 . S
C744 C736 1.378 . S
C744 C739 1.350 . S
C745 H732 0.929 . S
C745 C737 1.433 1_565 S
C745 N747 1.384 . S
N746 C742 1.427 1_545 S
N746 C743 1.384 . S
N747 C739 1.427 1_565 S
N747 C745 1.384 . S
H748 C754 0.930 . S
H749 C758 0.930 . S
H750 C763 0.929 . S
H751 C761 0.929 . S
H752 C756 0.929 . S
H753 C762 0.929 . S
C754 H748 0.930 . S
C754 C755 1.367 . S
C754 C762 1.378 . S
C755 C754 1.367 . S
C755 C763 1.433 . S
C756 H752 0.929 . S
C756 C758 1.378 . S
C756 C760 1.350 . S
C757 C760 1.463 . S
C757 C762 1.350 . S
C757 N765 1.427 . S
C758 H749 0.930 . S
C758 C756 1.378 . S
C758 C759 1.367 . S
C759 C758 1.367 . S
C759 C761 1.433 . S
C760 C756 1.350 . S
C760 C757 1.463 . S
C760 N764 1.427 . S
C761 H751 0.929 . S
C761 C759 1.433 . S
C761 N764 1.384 . S
C762 H753 0.929 . S
C762 C754 1.378 . S
C762 C757 1.350 . S
C763 H750 0.929 . S
C763 C755 1.433 . S
C763 N765 1.384 . S
N764 C760 1.427 . S
N764 C761 1.384 . S
N765 C757 1.427 . S
N765 C763 1.384 . S
H766 C772 0.933 1_556 S
H767 C776 0.933 1_554 S
H768 C781 0.929 . S
H769 C779 0.929 . S
H770 C774 0.929 . S
H771 C780 0.929 . S
C772 H766 0.933 1_554 S
C772 C773 1.367 . S
C772 C780 1.378 1_554 S
C773 C772 1.367 . S
C773 C781 1.433 1_565 S
C774 H770 0.929 . S
C774 C776 1.378 1_554 S
C774 C778 1.350 1_554 S
C775 C778 1.463 1_664 S
C775 C780 1.350 1_554 S
C775 N783 1.427 1_565 S
C776 H767 0.933 1_556 S
C776 C774 1.378 1_556 S
C776 C777 1.367 . S
C777 C776 1.367 . S
C777 C779 1.433 1_545 S
C778 C774 1.350 1_556 S
C778 C775 1.463 1_446 S
C778 N782 1.427 1_545 S
C779 H769 0.929 . S
C779 C777 1.433 1_565 S
C779 N782 1.384 . S
C780 H771 0.929 . S
C780 C772 1.378 1_556 S
C780 C775 1.350 1_556 S
C781 H768 0.929 . S
C781 C773 1.433 1_545 S
C781 N783 1.384 . S
N782 C778 1.427 1_565 S
N782 C779 1.384 . S
N783 C775 1.427 1_545 S
N783 C781 1.384 . S
H784 C790 0.930 . S
H785 C794 0.930 . S
H786 C799 0.929 . S
H787 C797 0.929 . S
H788 C792 0.929 . S
H789 C798 0.929 . S
C790 H784 0.930 . S
C790 C791 1.367 . S
C790 C798 1.378 . S
C791 C790 1.367 . S
C791 C799 1.433 . S
C792 H788 0.929 . S
C792 C794 1.378 . S
C792 C796 1.350 . S
C793 C796 1.463 . S
C793 C798 1.350 . S
C793 N801 1.427 . S
C794 H785 0.930 . S
C794 C792 1.378 . S
C794 C795 1.367 . S
C795 C794 1.367 . S
C795 C797 1.433 . S
C796 C792 1.350 . S
C796 C793 1.463 . S
C796 N800 1.427 . S
C797 H787 0.929 . S
C797 C795 1.433 . S
C797 N800 1.384 . S
C798 H789 0.929 . S
C798 C790 1.378 . S
C798 C793 1.350 . S
C799 H786 0.929 . S
C799 C791 1.433 . S
C799 N801 1.384 . S
N800 C796 1.427 . S
N800 C797 1.384 . S
N801 C793 1.427 . S
N801 C799 1.384 . S
H802 C808 0.930 . S
H803 C812 0.930 . S
H804 C817 0.929 . S
H805 C815 0.929 . S
H806 C810 0.929 . S
H807 C816 0.929 . S
C808 H802 0.930 . S
C808 C809 1.367 . S
C808 C816 1.378 . S
C809 C808 1.367 . S
C809 C817 1.433 . S
C810 H806 0.929 . S
C810 C812 1.378 . S
C810 C814 1.350 . S
C811 C814 1.463 . S
C811 C816 1.350 . S
C811 N819 1.427 . S
C812 H803 0.930 . S
C812 C810 1.378 . S
C812 C813 1.367 . S
C813 C812 1.367 . S
C813 C815 1.433 . S
C814 C810 1.350 . S
C814 C811 1.463 . S
C814 N818 1.427 . S
C815 H805 0.929 . S
C815 C813 1.433 . S
C815 N818 1.384 . S
C816 H807 0.929 . S
C816 C808 1.378 . S
C816 C811 1.350 . S
C817 H804 0.929 . S
C817 C809 1.433 . S
C817 N819 1.384 . S
N818 C814 1.427 . S
N818 C815 1.384 . S
N819 C811 1.427 . S
N819 C817 1.384 . S
H820 C826 0.930 . S
H821 C830 0.930 . S
H822 C835 0.929 . S
H823 C833 0.929 . S
H824 C828 0.929 . S
H825 C834 0.929 . S
C826 H820 0.930 . S
C826 C827 1.367 . S
C826 C834 1.378 . S
C827 C826 1.367 . S
C827 C835 1.433 . S
C828 H824 0.929 . S
C828 C830 1.378 . S
C828 C832 1.350 . S
C829 C832 1.463 . S
C829 C834 1.350 . S
C829 N837 1.427 . S
C830 H821 0.930 . S
C830 C828 1.378 . S
C830 C831 1.367 . S
C831 C830 1.367 . S
C831 C833 1.433 . S
C832 C828 1.350 . S
C832 C829 1.463 . S
C832 N836 1.427 . S
C833 H823 0.929 . S
C833 C831 1.433 . S
C833 N836 1.384 . S
C834 H825 0.929 . S
C834 C826 1.378 . S
C834 C829 1.350 . S
C835 H822 0.929 . S
C835 C827 1.433 . S
C835 N837 1.384 . S
N836 C832 1.427 . S
N836 C833 1.384 . S
N837 C829 1.427 . S
N837 C835 1.384 . S
H838 C844 0.930 . S
H839 C848 0.930 . S
H840 C853 0.929 . S
H841 C851 0.929 . S
H842 C846 0.929 . S
H843 C852 0.929 . S
C844 H838 0.930 . S
C844 C845 1.367 . S
C844 C852 1.378 . S
C845 C844 1.367 . S
C845 C853 1.433 . S
C846 H842 0.929 . S
C846 C848 1.378 . S
C846 C850 1.350 . S
C847 C850 1.463 . S
C847 C852 1.350 . S
C847 N855 1.427 . S
C848 H839 0.930 . S
C848 C846 1.378 . S
C848 C849 1.367 . S
C849 C848 1.367 . S
C849 C851 1.433 . S
C850 C846 1.350 . S
C850 C847 1.463 . S
C850 N854 1.427 . S
C851 H841 0.929 . S
C851 C849 1.433 . S
C851 N854 1.384 . S
C852 H843 0.929 . S
C852 C844 1.378 . S
C852 C847 1.350 . S
C853 H840 0.929 . S
C853 C845 1.433 . S
C853 N855 1.384 . S
N854 C850 1.427 . S
N854 C851 1.384 . S
N855 C847 1.427 . S
N855 C853 1.384 . S
H856 C862 0.930 . S
H857 C866 0.930 . S
H858 C871 0.929 . S
H859 C869 0.929 . S
H860 C864 0.929 . S
H861 C870 0.929 . S
C862 H856 0.930 . S
C862 C863 1.367 . S
C862 C870 1.378 . S
C863 C862 1.367 . S
C863 C871 1.433 . S
C864 H860 0.929 . S
C864 C866 1.378 . S
C864 C868 1.350 . S
C865 C868 1.463 1_554 S
C865 C870 1.350 . S
C865 N873 1.427 . S
C866 H857 0.930 . S
C866 C864 1.378 . S
C866 C867 1.367 . S
C867 C866 1.367 . S
C867 C869 1.433 . S
C868 C864 1.350 . S
C868 C865 1.463 1_556 S
C868 N872 1.427 . S
C869 H859 0.929 . S
C869 C867 1.433 . S
C869 N872 1.384 . S
C870 H861 0.929 . S
C870 C862 1.378 . S
C870 C865 1.350 . S
C871 H858 0.929 . S
C871 C863 1.433 . S
C871 N873 1.384 . S
N872 C868 1.427 . S
N872 C869 1.384 . S
N873 C865 1.427 . S
N873 C871 1.384 . S
H874 C880 0.930 . S
H875 C884 0.930 . S
H876 C889 0.929 . S
H877 C887 0.929 . S
H878 C882 0.929 . S
H879 C888 0.929 . S
C880 H874 0.930 . S
C880 C881 1.367 . S
C880 C888 1.378 . S
C881 C880 1.367 . S
C881 C889 1.433 . S
C882 H878 0.929 . S
C882 C884 1.378 . S
C882 C886 1.350 . S
C883 C886 1.463 1_455 S
C883 C888 1.350 . S
C883 N891 1.427 . S
C884 H875 0.930 . S
C884 C882 1.378 . S
C884 C885 1.367 . S
C885 C884 1.367 . S
C885 C887 1.433 . S
C886 C882 1.350 . S
C886 C883 1.463 1_655 S
C886 N890 1.427 . S
C887 H877 0.929 . S
C887 C885 1.433 . S
C887 N890 1.384 . S
C888 H879 0.929 . S
C888 C880 1.378 . S
C888 C883 1.350 . S
C889 H876 0.929 . S
C889 C881 1.433 . S
C889 N891 1.384 . S
N890 C886 1.427 . S
N890 C887 1.384 . S
N891 C883 1.427 . S
N891 C889 1.384 . S
H892 C898 0.930 . S
H893 C902 0.930 . S
H894 C907 0.929 . S
H895 C905 0.929 . S
H896 C900 0.929 1_556 S
H897 C906 0.929 1_554 S
C898 H892 0.930 . S
C898 C899 1.367 . S
C898 C906 1.378 . S
C899 C898 1.367 . S
C899 C907 1.433 . S
C900 H896 0.929 1_554 S
C900 C902 1.378 . S
C900 C904 1.350 . S
C901 C904 1.463 1_656 S
C901 C906 1.350 . S
C901 N909 1.427 . S
C902 H893 0.930 . S
C902 C900 1.378 . S
C902 C903 1.367 . S
C903 C902 1.367 . S
C903 C905 1.433 . S
C904 C900 1.350 . S
C904 C901 1.463 1_454 S
C904 N908 1.427 . S
C905 H895 0.929 . S
C905 C903 1.433 . S
C905 N908 1.384 . S
C906 H897 0.929 1_556 S
C906 C898 1.378 . S
C906 C901 1.350 . S
C907 H894 0.929 . S
C907 C899 1.433 . S
C907 N909 1.384 . S
N908 C904 1.427 . S
N908 C905 1.384 . S
N909 C901 1.427 . S
N909 C907 1.384 . S
H910 C916 0.930 . S
H911 C920 0.930 . S
H912 C925 0.929 . S
H913 C923 0.929 . S
H914 C918 0.929 . S
H915 C924 0.929 . S
C916 H910 0.930 . S
C916 C917 1.367 . S
C916 C924 1.378 . S
C917 C916 1.367 . S
C917 C925 1.433 . S
C918 H914 0.929 . S
C918 C920 1.378 . S
C918 C922 1.350 . S
C919 C922 1.463 . S
C919 C924 1.350 . S
C919 N927 1.427 . S
C920 H911 0.930 . S
C920 C918 1.378 . S
C920 C921 1.367 . S
C921 C920 1.367 . S
C921 C923 1.433 . S
C922 C918 1.350 . S
C922 C919 1.463 . S
C922 N926 1.427 . S
C923 H913 0.929 . S
C923 C921 1.433 . S
C923 N926 1.384 . S
C924 H915 0.929 . S
C924 C916 1.378 . S
C924 C919 1.350 . S
C925 H912 0.929 . S
C925 C917 1.433 . S
C925 N927 1.384 . S
N926 C922 1.427 . S
N926 C923 1.384 . S
N927 C919 1.427 . S
N927 C925 1.384 . S
H928 C934 0.930 . S
H929 C938 0.930 . S
H930 C943 0.929 . S
H931 C941 0.929 . S
H932 C936 0.929 . S
H933 C942 0.929 . S
C934 H928 0.930 . S
C934 C935 1.367 . S
C934 C942 1.378 . S
C935 C934 1.367 . S
C935 C943 1.433 . S
C936 H932 0.929 . S
C936 C938 1.378 . S
C936 C940 1.350 . S
C937 C940 1.463 1_565 S
C937 C942 1.350 . S
C937 N945 1.427 . S
C938 H929 0.930 . S
C938 C936 1.378 . S
C938 C939 1.367 . S
C939 C938 1.367 . S
C939 C941 1.433 . S
C940 C936 1.350 . S
C940 C937 1.463 1_545 S
C940 N944 1.427 . S
C941 H931 0.929 . S
C941 C939 1.433 . S
C941 N944 1.384 . S
C942 H933 0.929 . S
C942 C934 1.378 . S
C942 C937 1.350 . S
C943 H930 0.929 . S
C943 C935 1.433 . S
C943 N945 1.384 . S
N944 C940 1.427 . S
N944 C941 1.384 . S
N945 C937 1.427 . S
N945 C943 1.384 . S
H946 C952 0.930 . S
H947 C956 0.930 . S
H948 C961 0.929 . S
H949 C959 0.929 . S
H950 C954 0.929 . S
H951 C960 0.929 . S
C952 H946 0.930 . S
C952 C953 1.367 . S
C952 C960 1.378 . S
C953 C952 1.367 . S
C953 C961 1.433 1_565 S
C954 H950 0.929 . S
C954 C956 1.378 . S
C954 C958 1.350 1_545 S
C955 C958 1.463 . S
C955 C960 1.350 . S
C955 N963 1.427 1_565 S
C956 H947 0.930 . S
C956 C954 1.378 . S
C956 C957 1.367 1_545 S
C957 C956 1.367 1_565 S
C957 C959 1.433 . S
C958 C954 1.350 1_565 S
C958 C955 1.463 . S
C958 N962 1.427 . S
C959 H949 0.929 . S
C959 C957 1.433 . S
C959 N962 1.384 . S
C960 H951 0.929 . S
C960 C952 1.378 . S
C960 C955 1.350 . S
C961 H948 0.929 . S
C961 C953 1.433 1_545 S
C961 N963 1.384 . S
N962 C958 1.427 . S
N962 C959 1.384 . S
N963 C955 1.427 1_545 S
N963 C961 1.384 . S
H964 C970 0.930 . S
H965 C974 0.930 . S
H966 C979 0.929 . S
H967 C977 0.929 . S
H968 C972 0.929 . S
H969 C978 0.929 . S
C970 H964 0.930 . S
C970 C971 1.367 . S
C970 C978 1.378 . S
C971 C970 1.367 . S
C971 C979 1.433 . S
C972 H968 0.929 . S
C972 C974 1.378 . S
C972 C976 1.350 . S
C973 C976 1.463 1_545 S
C973 C978 1.350 . S
C973 N981 1.427 . S
C974 H965 0.930 . S
C974 C972 1.378 . S
C974 C975 1.367 . S
C975 C974 1.367 . S
C975 C977 1.433 . S
C976 C972 1.350 . S
C976 C973 1.463 1_565 S
C976 N980 1.427 . S
C977 H967 0.929 . S
C977 C975 1.433 . S
C977 N980 1.384 . S
C978 H969 0.929 . S
C978 C970 1.378 . S
C978 C973 1.350 . S
C979 H966 0.929 . S
C979 C971 1.433 . S
C979 N981 1.384 . S
N980 C976 1.427 . S
N980 C977 1.384 . S
N981 C973 1.427 . S
N981 C979 1.384 . S
H982 C988 0.930 . S
H983 C992 0.930 . S
H984 C997 0.929 . S
H985 C995 0.929 . S
H986 C990 0.929 . S
H987 C996 0.929 . S
C988 H982 0.930 . S
C988 C989 1.367 1_565 S
C988 C996 1.378 . S
C989 C988 1.367 1_545 S
C989 C997 1.433 . S
C990 H986 0.929 . S
C990 C992 1.378 . S
C990 C994 1.350 . S
C991 C994 1.463 1_556 S
C991 C996 1.350 1_545 S
C991 N999 1.427 . S
C992 H983 0.930 . S
C992 C990 1.378 . S
C992 C993 1.367 . S
C993 C992 1.367 . S
C993 C995 1.433 1_545 S
C994 C990 1.350 . S
C994 C991 1.463 1_554 S
C994 N998 1.427 1_545 S
C995 H985 0.929 . S
C995 C993 1.433 1_565 S
C995 N998 1.384 . S
C996 H987 0.929 . S
C996 C988 1.378 . S
C996 C991 1.350 1_565 S
C997 H984 0.929 . S
C997 C989 1.433 . S
C997 N999 1.384 . S
N998 C994 1.427 1_565 S
N998 C995 1.384 . S
N999 C991 1.427 . S
N999 C997 1.384 . S
H1000 C1006 0.930 . S
H1001 C1010 0.930 . S
H1002 C1015 0.929 . S
H1003 C1013 0.929 . S
H1004 C1008 0.929 . S
H1005 C1014 0.929 . S
C1006 H1000 0.930 . S
C1006 C1007 1.367 . S
C1006 C1014 1.378 . S
C1007 C1006 1.367 . S
C1007 C1015 1.433 . S
C1008 H1004 0.929 . S
C1008 C1010 1.378 . S
C1008 C1012 1.350 . S
C1009 C1012 1.463 1_565 S
C1009 C1014 1.350 . S
C1009 N1017 1.427 . S
C1010 H1001 0.930 . S
C1010 C1008 1.378 . S
C1010 C1011 1.367 . S
C1011 C1010 1.367 . S
C1011 C1013 1.433 . S
C1012 C1008 1.350 . S
C1012 C1009 1.463 1_545 S
C1012 N1016 1.427 . S
C1013 H1003 0.929 . S
C1013 C1011 1.433 . S
C1013 N1016 1.384 . S
C1014 H1005 0.929 . S
C1014 C1006 1.378 . S
C1014 C1009 1.350 . S
C1015 H1002 0.929 . S
C1015 C1007 1.433 . S
C1015 N1017 1.384 . S
N1016 C1012 1.427 . S
N1016 C1013 1.384 . S
N1017 C1009 1.427 . S
N1017 C1015 1.384 . S
H1018 C1024 0.930 . S
H1019 C1028 0.930 . S
H1020 C1033 0.929 . S
H1021 C1031 0.929 . S
H1022 C1026 0.929 . S
H1023 C1032 0.929 . S
C1024 H1018 0.930 . S
C1024 C1025 1.367 1_565 S
C1024 C1032 1.378 . S
C1025 C1024 1.367 1_545 S
C1025 C1033 1.433 . S
C1026 H1022 0.929 . S
C1026 C1028 1.378 . S
C1026 C1030 1.350 . S
C1027 C1030 1.463 . S
C1027 C1032 1.350 1_545 S
C1027 N1035 1.427 . S
C1028 H1019 0.930 . S
C1028 C1026 1.378 . S
C1028 C1029 1.367 . S
C1029 C1028 1.367 . S
C1029 C1031 1.433 1_545 S
C1030 C1026 1.350 . S
C1030 C1027 1.463 . S
C1030 N1034 1.427 1_545 S
C1031 H1021 0.929 . S
C1031 C1029 1.433 1_565 S
C1031 N1034 1.384 . S
C1032 H1023 0.929 . S
C1032 C1024 1.378 . S
C1032 C1027 1.350 1_565 S
C1033 H1020 0.929 . S
C1033 C1025 1.433 . S
C1033 N1035 1.384 . S
N1034 C1030 1.427 1_565 S
N1034 C1031 1.384 . S
N1035 C1027 1.427 . S
N1035 C1033 1.384 . S
H1036 C1042 0.930 . S
H1037 C1046 0.930 . S
H1038 C1051 0.929 . S
H1039 C1049 0.929 . S
H1040 C1044 0.929 . S
H1041 C1050 0.929 . S
C1042 H1036 0.930 . S
C1042 C1043 1.367 . S
C1042 C1050 1.378 . S
C1043 C1042 1.367 . S
C1043 C1051 1.433 . S
C1044 H1040 0.929 . S
C1044 C1046 1.378 . S
C1044 C1048 1.350 . S
C1045 C1048 1.463 1_545 S
C1045 C1050 1.350 . S
C1045 N1053 1.427 . S
C1046 H1037 0.930 . S
C1046 C1044 1.378 . S
C1046 C1047 1.367 . S
C1047 C1046 1.367 . S
C1047 C1049 1.433 . S
C1048 C1044 1.350 . S
C1048 C1045 1.463 1_565 S
C1048 N1052 1.427 . S
C1049 H1039 0.929 . S
C1049 C1047 1.433 . S
C1049 N1052 1.384 . S
C1050 H1041 0.929 . S
C1050 C1042 1.378 . S
C1050 C1045 1.350 . S
C1051 H1038 0.929 . S
C1051 C1043 1.433 . S
C1051 N1053 1.384 . S
N1052 C1048 1.427 . S
N1052 C1049 1.384 . S
N1053 C1045 1.427 . S
N1053 C1051 1.384 . S
H1054 C1060 0.930 . S
H1055 C1064 0.930 . S
H1056 C1069 0.929 . S
H1057 C1067 0.929 . S
H1058 C1062 0.929 . S
H1059 C1068 0.929 . S
C1060 H1054 0.930 . S
C1060 C1061 1.367 1_545 S
C1060 C1068 1.378 . S
C1061 C1060 1.367 1_565 S
C1061 C1069 1.433 . S
C1062 H1058 0.929 . S
C1062 C1064 1.378 . S
C1062 C1066 1.350 . S
C1063 C1066 1.463 1_554 S
C1063 C1068 1.350 1_565 S
C1063 N1071 1.427 . S
C1064 H1055 0.930 . S
C1064 C1062 1.378 . S
C1064 C1065 1.367 . S
C1065 C1064 1.367 . S
C1065 C1067 1.433 1_565 S
C1066 C1062 1.350 . S
C1066 C1063 1.463 1_556 S
C1066 N1070 1.427 1_565 S
C1067 H1057 0.929 . S
C1067 C1065 1.433 1_545 S
C1067 N1070 1.384 . S
C1068 H1059 0.929 . S
C1068 C1060 1.378 . S
C1068 C1063 1.350 1_545 S
C1069 H1056 0.929 . S
C1069 C1061 1.433 . S
C1069 N1071 1.384 . S
N1070 C1066 1.427 1_545 S
N1070 C1067 1.384 . S
N1071 C1063 1.427 . S
N1071 C1069 1.384 . S
H1072 C1078 0.930 . S
H1073 C1082 0.930 . S
H1074 C1087 0.929 . S
H1075 C1085 0.929 . S
H1076 C1080 0.929 . S
H1077 C1086 0.929 . S
C1078 H1072 0.930 . S
C1078 C1079 1.367 . S
C1078 C1086 1.378 . S
C1079 C1078 1.367 . S
C1079 C1087 1.433 . S
C1080 H1076 0.929 . S
C1080 C1082 1.378 . S
C1080 C1084 1.350 . S
C1081 C1084 1.463 . S
C1081 C1086 1.350 . S
C1081 N1089 1.427 . S
C1082 H1073 0.930 . S
C1082 C1080 1.378 . S
C1082 C1083 1.367 . S
C1083 C1082 1.367 . S
C1083 C1085 1.433 . S
C1084 C1080 1.350 . S
C1084 C1081 1.463 . S
C1084 N1088 1.427 . S
C1085 H1075 0.929 . S
C1085 C1083 1.433 . S
C1085 N1088 1.384 . S
C1086 H1077 0.929 . S
C1086 C1078 1.378 . S
C1086 C1081 1.350 . S
C1087 H1074 0.929 . S
C1087 C1079 1.433 . S
C1087 N1089 1.384 . S
N1088 C1084 1.427 . S
N1088 C1085 1.384 . S
N1089 C1081 1.427 . S
N1089 C1087 1.384 . S
H1090 C1096 0.930 . S
H1091 C1100 0.930 . S
H1092 C1105 0.929 . S
H1093 C1103 0.929 . S
H1094 C1098 0.929 . S
H1095 C1104 0.929 . S
C1096 H1090 0.930 . S
C1096 C1097 1.367 . S
C1096 C1104 1.378 . S
C1097 C1096 1.367 . S
C1097 C1105 1.433 . S
C1098 H1094 0.929 . S
C1098 C1100 1.378 . S
C1098 C1102 1.350 . S
C1099 C1102 1.463 1_554 S
C1099 C1104 1.350 . S
C1099 N1107 1.427 . S
C1100 H1091 0.930 . S
C1100 C1098 1.378 . S
C1100 C1101 1.367 . S
C1101 C1100 1.367 . S
C1101 C1103 1.433 . S
C1102 C1098 1.350 . S
C1102 C1099 1.463 1_556 S
C1102 N1106 1.427 . S
C1103 H1093 0.929 . S
C1103 C1101 1.433 . S
C1103 N1106 1.384 . S
C1104 H1095 0.929 . S
C1104 C1096 1.378 . S
C1104 C1099 1.350 . S
C1105 H1092 0.929 . S
C1105 C1097 1.433 . S
C1105 N1107 1.384 . S
N1106 C1102 1.427 . S
N1106 C1103 1.384 . S
N1107 C1099 1.427 . S
N1107 C1105 1.384 . S
H1108 C1114 0.930 . S
H1109 C1118 0.930 . S
H1110 C1123 0.929 . S
H1111 C1121 0.929 . S
H1112 C1116 0.929 . S
H1113 C1122 0.929 . S
C1114 H1108 0.930 . S
C1114 C1115 1.367 . S
C1114 C1122 1.378 . S
C1115 C1114 1.367 . S
C1115 C1123 1.433 . S
C1116 H1112 0.929 . S
C1116 C1118 1.378 . S
C1116 C1120 1.350 . S
C1117 C1120 1.463 . S
C1117 C1122 1.350 . S
C1117 N1125 1.427 . S
C1118 H1109 0.930 . S
C1118 C1116 1.378 . S
C1118 C1119 1.367 . S
C1119 C1118 1.367 . S
C1119 C1121 1.433 . S
C1120 C1116 1.350 . S
C1120 C1117 1.463 . S
C1120 N1124 1.427 . S
C1121 H1111 0.929 . S
C1121 C1119 1.433 . S
C1121 N1124 1.384 . S
C1122 H1113 0.929 . S
C1122 C1114 1.378 . S
C1122 C1117 1.350 . S
C1123 H1110 0.929 . S
C1123 C1115 1.433 . S
C1123 N1125 1.384 . S
N1124 C1120 1.427 . S
N1124 C1121 1.384 . S
N1125 C1117 1.427 . S
N1125 C1123 1.384 . S
H1126 C1132 0.930 . S
H1127 C1136 0.930 . S
H1128 C1141 0.929 . S
H1129 C1139 0.929 . S
H1130 C1134 0.929 . S
H1131 C1140 0.929 . S
C1132 H1126 0.930 . S
C1132 C1133 1.367 . S
C1132 C1140 1.378 . S
C1133 C1132 1.367 . S
C1133 C1141 1.433 . S
C1134 H1130 0.929 . S
C1134 C1136 1.378 . S
C1134 C1138 1.350 . S
C1135 C1138 1.463 . S
C1135 C1140 1.350 . S
C1135 N1143 1.427 . S
C1136 H1127 0.930 . S
C1136 C1134 1.378 . S
C1136 C1137 1.367 . S
C1137 C1136 1.367 . S
C1137 C1139 1.433 . S
C1138 C1134 1.350 . S
C1138 C1135 1.463 . S
C1138 N1142 1.427 . S
C1139 H1129 0.929 . S
C1139 C1137 1.433 . S
C1139 N1142 1.384 . S
C1140 H1131 0.929 . S
C1140 C1132 1.378 . S
C1140 C1135 1.350 . S
C1141 H1128 0.929 . S
C1141 C1133 1.433 . S
C1141 N1143 1.384 . S
N1142 C1138 1.427 . S
N1142 C1139 1.384 . S
N1143 C1135 1.427 . S
N1143 C1141 1.384 . S
H1144 C1150 0.930 . S
H1145 C1154 0.930 . S
H1146 C1159 0.929 . S
H1147 C1157 0.929 . S
H1148 C1152 0.929 . S
H1149 C1158 0.929 . S
C1150 H1144 0.930 . S
C1150 C1151 1.367 . S
C1150 C1158 1.378 . S
C1151 C1150 1.367 . S
C1151 C1159 1.433 . S
C1152 H1148 0.929 . S
C1152 C1154 1.378 . S
C1152 C1156 1.350 . S
C1153 C1156 1.463 . S
C1153 C1158 1.350 . S
C1153 N1161 1.427 . S
C1154 H1145 0.930 . S
C1154 C1152 1.378 . S
C1154 C1155 1.367 . S
C1155 C1154 1.367 . S
C1155 C1157 1.433 . S
C1156 C1152 1.350 . S
C1156 C1153 1.463 . S
C1156 N1160 1.427 . S
C1157 H1147 0.929 . S
C1157 C1155 1.433 . S
C1157 N1160 1.384 . S
C1158 H1149 0.929 . S
C1158 C1150 1.378 . S
C1158 C1153 1.350 . S
C1159 H1146 0.929 . S
C1159 C1151 1.433 . S
C1159 N1161 1.384 . S
N1160 C1156 1.427 . S
N1160 C1157 1.384 . S
N1161 C1153 1.427 . S
N1161 C1159 1.384 . S
H1162 C1168 0.930 . S
H1163 C1172 0.930 . S
H1164 C1177 0.929 . S
H1165 C1175 0.929 . S
H1166 C1170 0.929 . S
H1167 C1176 0.929 . S
C1168 H1162 0.930 . S
C1168 C1169 1.367 . S
C1168 C1176 1.378 . S
C1169 C1168 1.367 . S
C1169 C1177 1.433 . S
C1170 H1166 0.929 . S
C1170 C1172 1.378 . S
C1170 C1174 1.350 . S
C1171 C1174 1.463 1_556 S
C1171 C1176 1.350 . S
C1171 N1179 1.427 1_556 S
C1172 H1163 0.930 . S
C1172 C1170 1.378 . S
C1172 C1173 1.367 . S
C1173 C1172 1.367 . S
C1173 C1175 1.433 . S
C1174 C1170 1.350 . S
C1174 C1171 1.463 1_554 S
C1174 N1178 1.427 1_554 S
C1175 H1165 0.929 . S
C1175 C1173 1.433 . S
C1175 N1178 1.384 1_554 S
C1176 H1167 0.929 . S
C1176 C1168 1.378 . S
C1176 C1171 1.350 . S
C1177 H1164 0.929 . S
C1177 C1169 1.433 . S
C1177 N1179 1.384 1_556 S
N1178 C1174 1.427 1_556 S
N1178 C1175 1.384 1_556 S
N1179 C1171 1.427 1_554 S
N1179 C1177 1.384 1_554 S
H1180 C1186 0.930 . S
H1181 C1190 0.930 . S
H1182 C1195 0.929 . S
H1183 C1193 0.929 . S
H1184 C1188 0.929 . S
H1185 C1194 0.929 . S
C1186 H1180 0.930 . S
C1186 C1187 1.367 . S
C1186 C1194 1.378 . S
C1187 C1186 1.367 . S
C1187 C1195 1.433 . S
C1188 H1184 0.929 . S
C1188 C1190 1.378 . S
C1188 C1192 1.350 . S
C1189 C1192 1.463 . S
C1189 C1194 1.350 . S
C1189 N1197 1.427 . S
C1190 H1181 0.930 . S
C1190 C1188 1.378 . S
C1190 C1191 1.367 . S
C1191 C1190 1.367 . S
C1191 C1193 1.433 . S
C1192 C1188 1.350 . S
C1192 C1189 1.463 . S
C1192 N1196 1.427 . S
C1193 H1183 0.929 . S
C1193 C1191 1.433 . S
C1193 N1196 1.384 . S
C1194 H1185 0.929 . S
C1194 C1186 1.378 . S
C1194 C1189 1.350 . S
C1195 H1182 0.929 . S
C1195 C1187 1.433 . S
C1195 N1197 1.384 . S
N1196 C1192 1.427 . S
N1196 C1193 1.384 . S
N1197 C1189 1.427 . S
N1197 C1195 1.384 . S
H1198 C1204 0.930 . S
H1199 C1208 0.930 . S
H1200 C1213 0.929 . S
H1201 C1211 0.929 . S
H1202 C1206 0.929 . S
H1203 C1212 0.929 . S
C1204 H1198 0.930 . S
C1204 C1205 1.367 . S
C1204 C1212 1.378 . S
C1205 C1204 1.367 . S
C1205 C1213 1.433 . S
C1206 H1202 0.929 . S
C1206 C1208 1.378 . S
C1206 C1210 1.350 . S
C1207 C1210 1.463 . S
C1207 C1212 1.350 . S
C1207 N1215 1.427 . S
C1208 H1199 0.930 . S
C1208 C1206 1.378 . S
C1208 C1209 1.367 . S
C1209 C1208 1.367 . S
C1209 C1211 1.433 . S
C1210 C1206 1.350 . S
C1210 C1207 1.463 . S
C1210 N1214 1.427 . S
C1211 H1201 0.929 . S
C1211 C1209 1.433 . S
C1211 N1214 1.384 . S
C1212 H1203 0.929 . S
C1212 C1204 1.378 . S
C1212 C1207 1.350 . S
C1213 H1200 0.929 . S
C1213 C1205 1.433 . S
C1213 N1215 1.384 . S
N1214 C1210 1.427 . S
N1214 C1211 1.384 . S
N1215 C1207 1.427 . S
N1215 C1213 1.384 . S
C359 C60 1.430 . S
C363 C5 1.455 . S
C377 C16 1.453 . S
C381 C71 1.439 . S
C395 C27 1.448 . S
C399 C82 1.430 . S
C413 C38 1.452 . S
C417 C49 1.437 . S
C431 C148 1.308 . S
C435 C93 1.314 . S
C449 C104 1.301 . S
C453 C159 1.292 . S
C467 C115 1.307 . S
C471 C170 1.324 . S
C485 C137 1.303 . S
C489 C126 1.300 . S
C503 C181 1.466 . S
C507 C236 1.455 . S
C521 C247 1.463 . S
C525 C192 1.457 . S
C539 C258 1.462 . S
C543 C203 1.473 . S
C557 C214 1.475 . S
C561 C225 1.453 . S
C575 C324 1.308 . S
C579 C269 1.302 . S
C593 C335 1.332 . S
C597 C280 1.324 . S
C611 C291 1.324 . S
C615 C346 1.330 . S
C629 C313 1.332 . S
C633 C302 1.323 . S
C647 C272 1.596 . S
C651 C8 1.638 . S
C665 C107 1.567 . S
C669 C19 1.613 . S
C683 C294 1.597 . S
C687 C30 1.638 . S
C701 C41 1.614 . S
C705 C129 1.567 . S
C719 C52 1.637 . S
C723 C316 1.592 . S
C737 C151 1.578 . S
C741 C63 1.614 . S
C755 C74 1.637 . S
C759 C338 1.587 . S
C773 C173 1.575 . S
C777 C85 1.613 . S
C791 C96 1.598 . S
C795 C184 1.638 . S
C809 C206 1.638 . S
C813 C118 1.597 . S
C827 C228 1.637 . S
C831 C140 1.589 . S
C845 C162 1.587 . S
C849 C250 1.637 . S
C863 C195 1.646 . S
C867 C283 1.594 . S
C881 C305 1.605 . S
C885 C217 1.647 . S
C899 C239 1.645 . S
C903 C327 1.593 . S
C917 C349 1.599 . S
C921 C261 1.646 . S
C935 C51 1.631 . S
C939 C7 1.631 . S
C953 C18 1.605 . S
C957 C62 1.612 . S
C971 C73 1.635 . S
C975 C29 1.630 . S
C989 C84 1.614 . S
C993 C40 1.608 . S
C1007 C95 1.582 . S
C1011 C139 1.585 . S
C1025 C150 1.561 . S
C1029 C106 1.570 . S
C1043 C117 1.588 . S
C1047 C161 1.582 . S
C1061 C172 1.562 . S
C1065 C128 1.572 . S
C1079 C183 1.636 . S
C1083 C227 1.642 . S
C1097 C194 1.631 . S
C1101 C238 1.637 . S
C1115 C249 1.637 . S
C1119 C205 1.642 . S
C1133 C216 1.630 . S
C1137 C260 1.630 . S
C1151 C271 1.590 . S
C1155 C315 1.583 . S
C1169 C282 1.590 . S
C1173 C326 1.594 . S
C1187 C293 1.597 . S
C1191 C337 1.596 . S
C1205 C348 1.579 . S
C1209 C304 1.585 . S
