# Generated by pormake.
# Topology yfb, (5)-cn, num edge types: 1
# Building blocks:
#     Node 0, Type 0, BuildingBlock: XOMCOT_clean_sbu_0, # of connection points: 5
#     Node 1, Type 0, BuildingBlock: XOMCOT_clean_sbu_0, # of connection points: 5
#     Node 2, Type 0, BuildingBlock: XOMCOT_clean_sbu_0, # of connection points: 5
#     Node 3, Type 0, BuildingBlock: XOMCOT_clean_sbu_0, # of connection points: 5
#     Node 4, Type 0, BuildingBlock: XOMCOT_clean_sbu_0, # of connection points: 5
#     Node 5, Type 0, BuildingBlock: XOMCOT_clean_sbu_0, # of connection points: 5
#     Node 6, Type 0, BuildingBlock: XOMCOT_clean_sbu_0, # of connection points: 5
#     Node 7, Type 0, BuildingBlock: XOMCOT_clean_sbu_0, # of connection points: 5
#     Node 8, Type 0, BuildingBlock: XOMCOT_clean_sbu_0, # of connection points: 5
#     Node 9, Type 0, BuildingBlock: XOMCOT_clean_sbu_0, # of connection points: 5
#     Node 10, Type 0, BuildingBlock: XOMCOT_clean_sbu_0, # of connection points: 5
#     Node 11, Type 0, BuildingBlock: XOMCOT_clean_sbu_0, # of connection points: 5
#     Node 12, Type 0, BuildingBlock: XOMCOT_clean_sbu_0, # of connection points: 5
#     Node 13, Type 0, BuildingBlock: XOMCOT_clean_sbu_0, # of connection points: 5
#     Node 14, Type 0, BuildingBlock: XOMCOT_clean_sbu_0, # of connection points: 5
#     Node 15, Type 0, BuildingBlock: XOMCOT_clean_sbu_0, # of connection points: 5
#     Edge 16, Type (0, 0), BuildingBlock: XUDNAN_clean_linker_2, # of connection points: 2
#     Edge 17, Type (0, 0), BuildingBlock: XUDNAN_clean_linker_2, # of connection points: 2
#     Edge 18, Type (0, 0), BuildingBlock: XUDNAN_clean_linker_2, # of connection points: 2
#     Edge 19, Type (0, 0), BuildingBlock: XUDNAN_clean_linker_2, # of connection points: 2
#     Edge 20, Type (0, 0), BuildingBlock: XUDNAN_clean_linker_2, # of connection points: 2
#     Edge 21, Type (0, 0), BuildingBlock: XUDNAN_clean_linker_2, # of connection points: 2
#     Edge 22, Type (0, 0), BuildingBlock: XUDNAN_clean_linker_2, # of connection points: 2
#     Edge 23, Type (0, 0), BuildingBlock: XUDNAN_clean_linker_2, # of connection points: 2
#     Edge 24, Type (0, 0), BuildingBlock: XUDNAN_clean_linker_2, # of connection points: 2
#     Edge 25, Type (0, 0), BuildingBlock: XUDNAN_clean_linker_2, # of connection points: 2
#     Edge 26, Type (0, 0), BuildingBlock: XUDNAN_clean_linker_2, # of connection points: 2
#     Edge 27, Type (0, 0), BuildingBlock: XUDNAN_clean_linker_2, # of connection points: 2
#     Edge 28, Type (0, 0), BuildingBlock: XUDNAN_clean_linker_2, # of connection points: 2
#     Edge 29, Type (0, 0), BuildingBlock: XUDNAN_clean_linker_2, # of connection points: 2
#     Edge 30, Type (0, 0), BuildingBlock: XUDNAN_clean_linker_2, # of connection points: 2
#     Edge 31, Type (0, 0), BuildingBlock: XUDNAN_clean_linker_2, # of connection points: 2
#     Edge 32, Type (0, 0), BuildingBlock: XUDNAN_clean_linker_2, # of connection points: 2
#     Edge 33, Type (0, 0), BuildingBlock: XUDNAN_clean_linker_2, # of connection points: 2
#     Edge 34, Type (0, 0), BuildingBlock: XUDNAN_clean_linker_2, # of connection points: 2
#     Edge 35, Type (0, 0), BuildingBlock: XUDNAN_clean_linker_2, # of connection points: 2
#     Edge 36, Type (0, 0), BuildingBlock: XUDNAN_clean_linker_2, # of connection points: 2
#     Edge 37, Type (0, 0), BuildingBlock: XUDNAN_clean_linker_2, # of connection points: 2
#     Edge 38, Type (0, 0), BuildingBlock: XUDNAN_clean_linker_2, # of connection points: 2
#     Edge 39, Type (0, 0), BuildingBlock: XUDNAN_clean_linker_2, # of connection points: 2
#     Edge 40, Type (0, 0), BuildingBlock: XUDNAN_clean_linker_2, # of connection points: 2
#     Edge 41, Type (0, 0), BuildingBlock: XUDNAN_clean_linker_2, # of connection points: 2
#     Edge 42, Type (0, 0), BuildingBlock: XUDNAN_clean_linker_2, # of connection points: 2
#     Edge 43, Type (0, 0), BuildingBlock: XUDNAN_clean_linker_2, # of connection points: 2
#     Edge 44, Type (0, 0), BuildingBlock: XUDNAN_clean_linker_2, # of connection points: 2
#     Edge 45, Type (0, 0), BuildingBlock: XUDNAN_clean_linker_2, # of connection points: 2
#     Edge 46, Type (0, 0), BuildingBlock: XUDNAN_clean_linker_2, # of connection points: 2
#     Edge 47, Type (0, 0), BuildingBlock: XUDNAN_clean_linker_2, # of connection points: 2
#     Edge 48, Type (0, 0), BuildingBlock: XUDNAN_clean_linker_2, # of connection points: 2
#     Edge 49, Type (0, 0), BuildingBlock: XUDNAN_clean_linker_2, # of connection points: 2
#     Edge 50, Type (0, 0), BuildingBlock: XUDNAN_clean_linker_2, # of connection points: 2
#     Edge 51, Type (0, 0), BuildingBlock: XUDNAN_clean_linker_2, # of connection points: 2
#     Edge 52, Type (0, 0), BuildingBlock: XUDNAN_clean_linker_2, # of connection points: 2
#     Edge 53, Type (0, 0), BuildingBlock: XUDNAN_clean_linker_2, # of connection points: 2
#     Edge 54, Type (0, 0), BuildingBlock: XUDNAN_clean_linker_2, # of connection points: 2
#     Edge 55, Type (0, 0), BuildingBlock: XUDNAN_clean_linker_2, # of connection points: 2
# Relax obj value: 0.751
# Max RMSD: 0.295
# Mean RMSD: 0.295
data_MOF--net-yfb--node1-XOMCOT_clean_sbu_0--edge1-XUDNAN_clean_linker_2
_symmetry_space_group_name_H-M    P1
_symmetry_Int_Tables_number       1
_symmetry_cell_setting            triclinic
loop_
_symmetry_equiv_pos_as_xyz
'x, y, z'
_cell_length_a     42.571899
_cell_length_b     42.634096
_cell_length_c     42.237748
_cell_angle_alpha  89.986785
_cell_angle_beta   90.099431
_cell_angle_gamma 89.955945
loop_
_atom_site_label
_atom_site_type_symbol
_atom_site_fract_x
_atom_site_fract_y
_atom_site_fract_z
_atom_type_partial_charge
Co0 Co 0.66206 0.0599 0.10995 0.0
C1 C 0.61189 0.0181 0.08631 0.0
C2 C 0.61469 0.01588 0.13676 0.0
C3 C 0.58782 1.00038 0.12697 0.0
N4 N 0.63039 0.02651 0.11114 0.0
N5 N 0.58598 0.00225 0.09517 0.0
H6 H 0.61545 0.02585 0.0623 0.0
H7 H 0.62065 0.02134 0.16102 0.0
C8 C 0.68603 0.02122 0.16395 0.0
O9 O 0.68043 0.99685 0.14574 0.0
N10 N 0.69195 0.09411 0.10712 0.0
C11 C 0.70826 0.101 0.08064 0.0
C12 C 0.72175 0.12994 0.08392 0.0
C13 C 0.69544 0.11942 0.12616 0.0
N14 N 0.71366 0.14153 0.11238 0.0
C15 C 0.68704 0.02285 0.05909 0.0
C16 C 0.74819 0.02549 0.08068 0.0
C17 C 0.74258 0.02025 0.04844 0.0
C18 C 0.71161 0.01633 0.03823 0.0
C19 C 0.72304 0.03211 0.10067 0.0
N20 N 0.69292 0.03279 0.0893 0.0
H21 H 0.66389 0.02424 0.04923 0.0
H22 H 0.72856 0.04138 0.12378 0.0
H23 H 0.70855 0.08693 0.05936 0.0
H24 H 0.68303 0.12261 0.14827 0.0
O25 O 0.64197 0.07618 0.07269 0.0
O26 O 0.62942 0.0895 0.12188 0.0
O27 O 0.67903 0.04872 0.15386 0.0
C28 C 0.62409 0.0922 0.09159 0.0
H29 H 0.56975 0.9909 0.1422 0.0
H30 H 0.73499 0.14242 0.06604 0.0
H31 H 0.77192 0.02878 0.0894 0.0
H32 H 0.70634 0.0126 1.01341 0.0
Co33 Co 0.43583 0.66016 0.12147 0.0
C34 C 0.48334 0.61774 0.09461 0.0
C35 C 0.47789 0.61002 0.14421 0.0
C36 C 0.49435 0.58505 0.13146 0.0
N37 N 0.47103 0.63078 0.12104 0.0
N38 N 0.49757 0.59 0.10012 0.0
H39 H 0.47805 0.62558 0.07104 0.0
H40 H 0.46866 0.61117 0.16802 0.0
C41 C 0.47287 0.6801 0.17852 0.0
O42 O 0.49872 0.67415 0.16269 0.0
N43 N 0.40012 0.68814 0.12101 0.0
C44 C 0.39054 0.70501 0.09576 0.0
C45 C 0.3627 0.71953 0.10305 0.0
C46 C 0.37784 0.69237 0.14335 0.0
N47 N 0.35491 0.71167 0.13286 0.0
C48 C 0.46782 0.69211 0.07123 0.0
C49 C 0.46937 0.74979 0.10081 0.0
C50 C 0.4736 0.7484 0.06796 0.0
C51 C 0.47466 0.71886 0.05357 0.0
C52 C 0.46239 0.72248 0.11761 0.0
N53 N 0.46067 0.69399 0.1027 0.0
H54 H 0.46398 0.6709 0.05819 0.0
H55 H 0.45447 0.72538 0.14161 0.0
H56 H 0.40233 0.70572 0.07313 0.0
H57 H 0.37767 0.68058 0.16604 0.0
O58 O 0.42053 0.64108 0.08315 0.0
O59 O 0.40816 0.62546 0.13175 0.0
O60 O 0.44608 0.67468 0.1659 0.0
C61 C 0.4055 0.62166 0.10127 0.0
H62 H 0.50119 0.56388 0.14383 0.0
H63 H 0.34854 0.73379 0.08731 0.0
H64 H 0.46832 0.77214 0.11296 0.0
H65 H 0.47691 0.71653 0.02814 0.0
Co66 Co 0.83971 0.43408 0.10177 0.0
C67 C 0.89136 0.47655 0.08476 0.0
C68 C 0.89021 0.46836 0.13453 0.0
C69 C 0.91962 0.47957 0.1264 0.0
N70 N 0.87225 0.46607 0.10824 0.0
N71 N 0.92027 0.48463 0.09495 0.0
H72 H 0.88654 0.47329 0.05985 0.0
H73 H 0.88434 0.45799 0.15711 0.0
C74 C 0.81639 0.45923 0.16424 0.0
O75 O 0.81999 0.48788 0.15338 0.0
N76 N 0.80922 0.40112 0.09458 0.0
C77 C 0.79298 0.39644 0.06766 0.0
C78 C 0.77612 0.36914 0.0705 0.0
C79 C 0.80238 0.37641 0.11333 0.0
N80 N 0.78195 0.35633 0.09924 0.0
C81 C 0.81426 0.48556 0.06558 0.0
C82 C 0.7528 0.47199 0.08096 0.0
C83 C 0.75883 0.48915 0.05317 0.0
C84 C 0.78995 0.4985 0.04761 0.0
C85 C 0.77777 0.46071 0.09915 0.0
N86 N 0.80811 0.46509 0.08961 0.0
H87 H 0.83782 0.48976 0.05783 0.0
H88 H 0.77249 0.44468 0.11823 0.0
H89 H 0.79393 0.41152 0.04708 0.0
H90 H 0.81286 0.37299 0.13639 0.0
O91 O 0.85655 0.42561 0.06047 0.0
O92 O 0.87239 0.40234 0.10468 0.0
O93 O 0.82564 0.43582 0.14766 0.0
C94 C 0.87526 0.40565 0.0741 0.0
H95 H 0.9401 0.47974 0.14164 0.0
H96 H 0.76162 0.35917 0.05205 0.0
H97 H 0.72945 0.46405 0.08698 0.0
H98 H 0.79595 0.51315 0.02758 0.0
Co99 Co 0.06864 0.84178 0.12511 0.0
C100 C 0.03068 0.89534 0.10141 0.0
C101 C 0.02949 0.89234 0.15189 0.0
C102 C 0.01662 0.92056 0.14283 0.0
N103 N 0.03787 0.87595 0.12593 0.0
N104 N 0.01788 0.92283 0.11098 0.0
H105 H 0.03805 0.89114 0.07735 0.0
H106 H 0.03508 0.88586 0.17597 0.0
C107 C 0.02925 0.82263 0.18016 0.0
O108 O 0.00496 0.82987 0.16234 0.0
N109 N 0.10021 0.80914 0.12347 0.0
C110 C 0.10577 0.79062 0.09828 0.0
C111 C 0.13194 0.77281 0.10422 0.0
C112 C 0.12348 0.80276 0.1443 0.0
N113 N 0.14325 0.78042 0.1331 0.0
C114 C 0.02928 0.81789 0.07576 0.0
C115 C 0.02396 0.75836 0.10084 0.0
C116 C 0.01921 0.76245 0.06823 0.0
C117 C 0.01976 0.79317 0.05625 0.0
C118 C 0.03501 0.78326 0.11901 0.0
N119 N 0.03885 0.81246 0.10613 0.0
H120 H 0.03282 0.84048 0.065 0.0
H121 H 0.04415 0.77773 0.14216 0.0
H122 H 0.09249 0.79097 0.07644 0.0
H123 H 0.12638 0.81494 0.16658 0.0
O124 O 0.08571 0.85857 0.08673 0.0
O125 O 0.10094 0.87264 0.13489 0.0
O126 O 0.05702 0.82755 0.16964 0.0
C127 C 0.10356 0.87605 0.10429 0.0
H128 H 0.00907 0.93879 0.15889 0.0
H129 H 0.14282 0.75688 0.08758 0.0
H130 H 0.02279 0.73534 0.1116 0.0
H131 H 0.01637 0.79786 0.0313 0.0
Co132 Co 0.66411 0.42396 0.41516 0.0
C133 C 0.61569 0.45974 0.44874 0.0
C134 C 0.61001 0.46523 0.39885 0.0
C135 C 0.58289 0.47554 0.41387 0.0
N136 N 0.63078 0.4552 0.42085 0.0
N137 N 0.58646 0.47143 0.44531 0.0
H138 H 0.62412 0.45116 0.47119 0.0
H139 H 0.61271 0.46194 0.37362 0.0
C140 C 0.67973 0.45997 0.35408 0.0
O141 O 0.6803 0.48727 0.36851 0.0
N142 N 0.69614 0.3922 0.41059 0.0
C143 C 0.71978 0.38634 0.43108 0.0
C144 C 0.73727 0.36173 0.41973 0.0
C145 C 0.69891 0.37046 0.38757 0.0
N146 N 0.72416 0.35196 0.39246 0.0
C147 C 0.69447 0.46242 0.46138 0.0
C148 C 0.75091 0.46746 0.42982 0.0
C149 C 0.75019 0.47338 0.46251 0.0
C150 C 0.72098 0.47272 0.47773 0.0
C151 C 0.72392 0.45659 0.41449 0.0
N152 N 0.6963 0.45289 0.4306 0.0
H153 H 0.67363 0.45846 0.47496 0.0
H154 H 0.72665 0.44741 0.39088 0.0
H155 H 0.7237 0.39872 0.45308 0.0
H156 H 0.68248 0.36775 0.36818 0.0
O157 O 0.65249 0.40477 0.45489 0.0
O158 O 0.63192 0.39269 0.40821 0.0
O159 O 0.67148 0.43532 0.36918 0.0
C160 C 0.6325 0.38816 0.43868 0.0
H161 H 0.56115 0.48224 0.40236 0.0
H162 H 0.75719 0.35081 0.43131 0.0
H163 H 0.7728 0.46807 0.41682 0.0
H164 H 0.71897 0.47656 0.50297 0.0
Co165 Co 0.06724 0.66507 0.42255 0.0
C166 C 0.02436 0.61768 0.4489 0.0
C167 C 0.03083 0.61058 0.39937 0.0
C168 C 0.01708 0.58398 0.41212 0.0
N169 N 0.03527 0.63203 0.4225 0.0
N170 N 0.01316 0.5886 0.44342 0.0
H171 H 0.02894 0.62584 0.4725 0.0
H172 H 0.03998 0.61267 0.37559 0.0
C173 C 0.02929 0.68111 0.36567 0.0
O174 O 0.00478 0.67343 0.38287 0.0
N175 N 0.09987 0.6966 0.4241 0.0
C176 C 0.10533 0.71542 0.4492 0.0
C177 C 0.13058 0.73426 0.4427 0.0
C178 C 0.12247 0.70367 0.40283 0.0
N179 N 0.14122 0.72689 0.4137 0.0
C180 C 0.02765 0.69418 0.46978 0.0
C181 C 0.02506 0.75157 0.43962 0.0
C182 C 0.01672 0.74987 0.47164 0.0
C183 C 0.01611 0.72026 0.48603 0.0
C184 C 0.03593 0.7249 0.42408 0.0
N185 N 0.03824 0.69664 0.43937 0.0
H186 H 0.03158 0.67335 0.48336 0.0
H187 H 0.04648 0.72838 0.40118 0.0
H188 H 0.0921 0.71513 0.47102 0.0
H189 H 0.12541 0.6919 0.38033 0.0
O190 O 0.08293 0.64815 0.46176 0.0
O191 O 0.09842 0.6332 0.41382 0.0
O192 O 0.05686 0.67782 0.37735 0.0
C193 C 0.10009 0.62972 0.4444 0.0
H194 H 0.01251 0.56223 0.39975 0.0
H195 H 0.14103 0.75142 0.45841 0.0
H196 H 0.02687 0.7739 0.42754 0.0
H197 H 0.00982 0.71773 0.51074 0.0
Co198 Co 0.84144 0.06603 0.40859 0.0
C199 C 0.89287 0.02909 0.4369 0.0
C200 C 0.89184 0.024 0.38659 0.0
C201 C 0.9206 0.01369 0.39773 0.0
N202 N 0.87418 0.03381 0.41119 0.0
N203 N 0.92117 0.01707 0.42944 0.0
H204 H 0.8885 0.03905 0.45994 0.0
H205 H 0.88607 0.02793 0.36196 0.0
C206 C 0.81902 0.02255 0.35723 0.0
O207 O 0.82527 0.99906 0.37639 0.0
N208 N 0.81038 0.09901 0.40691 0.0
C209 C 0.79159 0.10793 0.43092 0.0
C210 C 0.775 0.134 0.42174 0.0
C211 C 0.80561 0.12023 0.38369 0.0
N212 N 0.7839 0.14181 0.39214 0.0
C213 C 0.81745 0.03204 0.46223 0.0
C214 C 0.75661 0.0286 0.43981 0.0
C215 C 0.76221 0.02313 0.4721 0.0
C216 C 0.79342 0.02296 0.48269 0.0
C217 C 0.7814 0.03699 0.42 0.0
N218 N 0.81127 0.0401 0.43156 0.0
H219 H 0.84025 0.03566 0.47231 0.0
H220 H 0.77561 0.04491 0.39643 0.0
H221 H 0.79092 0.09702 0.45402 0.0
H222 H 0.81862 0.12057 0.36169 0.0
O223 O 0.86082 0.08721 0.44393 0.0
O224 O 0.87281 0.09506 0.39338 0.0
O225 O 0.82546 0.05053 0.36596 0.0
C226 C 0.87801 0.1016 0.42303 0.0
H227 H 0.94063 0.00735 0.38333 0.0
H228 H 0.75919 0.14744 0.43652 0.0
H229 H 0.73296 0.02969 0.43042 0.0
H230 H 0.79904 0.01844 0.50729 0.0
Co231 Co 0.43557 0.85102 0.41673 0.0
C232 C 0.4722 0.89668 0.45405 0.0
C233 C 0.49567 0.88626 0.41038 0.0
C234 C 0.51375 0.9073 0.42746 0.0
N235 N 0.4696 0.87963 0.42716 0.0
N236 N 0.4987 0.91393 0.45473 0.0
H237 H 0.45539 0.89613 0.47321 0.0
H238 H 0.50133 0.87651 0.38746 0.0
C239 C 0.44657 0.83237 0.35159 0.0
O240 O 0.4199 0.84706 0.34655 0.0
N241 N 0.4019 0.82156 0.40706 0.0
C242 C 0.4067 0.79103 0.4002 0.0
C243 C 0.37834 0.7768 0.39474 0.0
C244 C 0.37035 0.82546 0.40564 0.0
N245 N 0.35544 0.79837 0.39821 0.0
C246 C 0.43636 0.81112 0.46998 0.0
C247 C 0.49232 0.78073 0.45692 0.0
C248 C 0.47358 0.7701 0.48204 0.0
C249 C 0.44579 0.78629 0.48901 0.0
C250 C 0.48216 0.80619 0.4386 0.0
N251 N 0.45388 0.82008 0.4446 0.0
H252 H 0.41391 0.82198 0.47453 0.0
H253 H 0.49645 0.8139 0.41898 0.0
H254 H 0.42946 0.77981 0.39906 0.0
H255 H 0.35843 0.84734 0.41036 0.0
O256 O 0.40958 0.87227 0.44708 0.0
O257 O 0.41292 0.88523 0.39637 0.0
O258 O 0.45901 0.8335 0.37913 0.0
C259 C 0.40153 0.89107 0.42434 0.0
H260 H 0.536 0.91725 0.42023 0.0
H261 H 0.37492 0.75247 0.38829 0.0
H262 H 0.51399 0.76885 0.45089 0.0
H263 H 0.4302 0.77854 0.50768 0.0
Co264 Co 0.33266 0.938 0.91704 0.0
C265 C 0.38353 0.97302 0.94753 0.0
C266 C 0.38735 0.97642 0.89733 0.0
C267 C 0.41581 0.9851 0.91088 0.0
N268 N 0.36691 0.96858 0.92045 0.0
N269 N 0.41334 0.98232 0.94254 0.0
H270 H 0.37589 0.96523 0.97053 0.0
H271 H 0.38348 0.97215 0.8724 0.0
C272 C 0.3153 0.97327 0.85586 0.0
O273 O 0.31539 1.00083 0.86977 0.0
N274 N 0.29987 0.90676 0.91472 0.0
C275 C 0.27763 0.90143 0.93679 0.0
C276 C 0.25942 0.87661 0.92718 0.0
C277 C 0.2956 0.88445 0.89247 0.0
N278 N 0.27072 0.86614 0.8994 0.0
C279 C 0.30556 0.97787 0.9639 0.0
C280 C 0.2468 0.98045 0.93647 0.0
C281 C 0.24966 0.98605 0.96912 0.0
C282 C 0.27993 0.98711 0.98208 0.0
C283 C 0.27314 0.97105 0.9191 0.0
N284 N 0.30182 0.96785 0.93345 0.0
H285 H 0.32738 0.97474 0.97606 0.0
H286 H 0.26922 0.96204 0.89556 0.0
H287 H 0.27527 0.9142 0.95878 0.0
H288 H 0.31086 0.88109 0.87228 0.0
O289 O 0.34592 0.91933 0.95651 0.0
O290 O 0.36385 0.90604 0.9091 0.0
O291 O 0.32329 0.94872 0.8713 0.0
C292 C 0.36483 0.90215 0.93964 0.0
H293 H 0.43754 0.9893 0.8983 0.0
H294 H 0.24038 0.86597 0.94033 0.0
H295 H 0.22395 0.9799 0.92518 0.0
H296 H 0.28366 0.99104 1.00713 0.0
Co297 Co 0.57208 0.343 0.93204 0.0
C298 C 0.53113 0.39156 0.95786 0.0
C299 C 0.52462 0.3866 0.90773 0.0
C300 C 0.51115 0.41445 0.91735 0.0
N301 N 0.53757 0.37251 0.93311 0.0
N302 N 0.51574 0.41776 0.94883 0.0
H303 H 0.54127 0.38847 0.98117 0.0
H304 H 0.52798 0.37915 0.8835 0.0
C305 C 0.56948 0.31649 0.86858 0.0
O306 O 0.59714 0.3298 0.86571 0.0
N307 N 0.60671 0.31314 0.93137 0.0
C308 C 0.60387 0.28161 0.93271 0.0
C309 C 0.63311 0.26819 0.92989 0.0
C310 C 0.63773 0.31837 0.92714 0.0
N311 N 0.65427 0.29134 0.92624 0.0
C312 C 0.56403 0.31012 0.98938 0.0
C313 C 0.51179 0.27593 0.97158 0.0
C314 C 0.52845 0.26707 0.99898 0.0
C315 C 0.55388 0.28574 1.00857 0.0
C316 C 0.52293 0.30064 0.95285 0.0
N317 N 0.54987 0.31593 0.96104 0.0
H318 H 0.58527 0.32236 0.9959 0.0
H319 H 0.51097 0.30622 0.93097 0.0
H320 H 0.58191 0.26903 0.93459 0.0
H321 H 0.64808 0.34129 0.92398 0.0
O322 O 0.59368 0.36834 0.96276 0.0
O323 O 0.59746 0.37471 0.91085 0.0
O324 O 0.55381 0.32062 0.89407 0.0
C325 C 0.60471 0.38437 0.9392 0.0
H326 H 0.50141 0.43223 0.90188 0.0
H327 H 0.63823 0.24333 0.92899 0.0
H328 H 0.49153 0.26273 0.96365 0.0
H329 H 0.56795 0.27994 0.02912 0.0
Co330 Co 0.15873 0.57457 0.91919 0.0
C331 C 0.11099 0.53262 0.94664 0.0
C332 C 0.11744 0.52143 0.89772 0.0
C333 C 0.09275 0.50374 0.9095 0.0
N334 N 0.12933 0.53929 0.92128 0.0
N335 N 0.08865 0.51127 0.9402 0.0
H336 H 0.11285 0.54402 0.9694 0.0
H337 H 0.12461 0.52245 0.87324 0.0
C338 C 0.18516 0.54136 0.86073 0.0
O339 O 0.18799 0.51462 0.87593 0.0
N340 N 0.18676 0.61017 0.91845 0.0
C341 C 0.20584 0.61902 0.94232 0.0
C342 C 0.22076 0.64626 0.93387 0.0
C343 C 0.18959 0.63262 0.89612 0.0
N344 N 0.21053 0.65483 0.9049 0.0
C345 C 0.18809 0.53699 0.96693 0.0
C346 C 0.24821 0.54194 0.94289 0.0
C347 C 0.24419 0.5319 0.97422 0.0
C348 C 0.21359 0.52797 0.98564 0.0
C349 C 0.22209 0.55082 0.92501 0.0
N350 N 0.19248 0.54943 0.93748 0.0
H351 H 0.16517 0.53679 0.97755 0.0
H352 H 0.2262 0.56224 0.90259 0.0
H353 H 0.20816 0.60686 0.96468 0.0
H354 H 0.1761 0.6331 0.87439 0.0
O355 O 0.14126 0.59103 0.95771 0.0
O356 O 0.12375 0.60201 0.90945 0.0
O357 O 0.17214 0.56491 0.87418 0.0
C358 C 0.1212 0.60591 0.93993 0.0
H359 H 0.0778 0.48807 0.89608 0.0
H360 H 0.23669 0.65963 0.94862 0.0
H361 H 0.27143 0.54599 0.93331 0.0
H362 H 0.20947 0.52024 1.00971 0.0
Co363 Co 0.94104 0.16047 0.90948 0.0
C364 C 0.97329 0.11521 0.95077 0.0
C365 C 0.98273 0.1054 0.90194 0.0
C366 C 0.99513 0.08146 0.92025 0.0
N367 N 0.96908 0.12653 0.9212 0.0
N368 N 0.98903 0.08764 0.951 0.0
H369 H 0.96303 0.12584 0.97155 0.0
H370 H 0.98224 0.1064 0.87636 0.0
C371 C 0.95172 0.16936 0.84232 0.0
O372 O 0.92311 0.15808 0.84007 0.0
N373 N 0.91314 0.19508 0.89827 0.0
C374 C 0.92271 0.22214 0.88484 0.0
C375 C 0.89756 0.24177 0.88126 0.0
C376 C 0.88186 0.19888 0.90278 0.0
N377 N 0.87173 0.22723 0.89237 0.0
C378 C 0.9573 0.19431 0.96498 0.0
C379 C 0.99726 0.23695 0.93704 0.0
C380 C 0.98432 0.24402 0.96681 0.0
C381 C 0.96588 0.22108 0.98152 0.0
C382 C 0.98817 0.20944 0.92124 0.0
N383 N 0.9662 0.18993 0.93426 0.0
H384 H 0.94123 0.17857 0.97647 0.0
H385 H 0.99681 0.20566 0.89756 0.0
H386 H 0.94646 0.22753 0.87784 0.0
H387 H 0.86674 0.18142 0.91328 0.0
O388 O 0.91271 0.14763 0.94227 0.0
O389 O 0.91108 0.12928 0.89349 0.0
O390 O 0.9654 0.16916 0.86934 0.0
C391 C 0.89981 0.12883 0.92209 0.0
H392 H 0.00687 0.06071 0.91145 0.0
H393 H 0.89856 0.26526 0.87166 0.0
H394 H 0.01248 0.25347 0.9251 0.0
H395 H 0.95525 0.22489 1.00445 0.0
Co396 Co 0.34797 0.57252 0.61083 0.0
C397 C 0.39332 0.52458 0.59035 0.0
C398 C 0.39221 0.52736 0.64084 0.0
C399 C 0.41788 0.5095 0.63187 0.0
N400 N 0.37639 0.5366 0.61472 0.0
N401 N 0.41874 0.50829 0.6 0.0
H402 H 0.38921 0.53013 0.56579 0.0
H403 H 0.3875 0.53557 0.66457 0.0
C404 C 0.32212 0.54448 0.67143 0.0
O405 O 0.32403 0.5163 0.65899 0.0
N406 N 0.32105 0.60875 0.6054 0.0
C407 C 0.30655 0.6161 0.57798 0.0
C408 C 0.29286 0.64507 0.58094 0.0
C409 C 0.31602 0.63346 0.62485 0.0
N410 N 0.29876 0.65589 0.61028 0.0
C411 C 0.31718 0.53203 0.56605 0.0
C412 C 0.2579 0.53992 0.59136 0.0
C413 C 0.26079 0.52751 0.56082 0.0
C414 C 0.29095 0.52221 0.54877 0.0
C415 C 0.2846 0.54969 0.60763 0.0
N416 N 0.31386 0.54654 0.59467 0.0
H417 H 0.33965 0.53087 0.55466 0.0
H418 H 0.28111 0.5632 0.62892 0.0
H419 H 0.30689 0.60179 0.55685 0.0
H420 H 0.32596 0.63565 0.64834 0.0
O421 O 0.36796 0.58307 0.57136 0.0
O422 O 0.38321 0.60007 0.61865 0.0
O423 O 0.33229 0.56826 0.656 0.0
C424 C 0.38753 0.59956 0.58813 0.0
H425 H 0.43607 0.50068 0.64746 0.0
H426 H 0.2802 0.6577 0.56268 0.0
H427 H 0.23507 0.54536 0.60124 0.0
H428 H 0.29415 0.51296 0.52511 0.0
Co429 Co 0.94392 0.33715 0.60597 0.0
C430 C 0.98545 0.38797 0.58386 0.0
C431 C 0.98789 0.38263 0.63409 0.0
C432 C 1.00072 0.41121 0.62602 0.0
N433 N 0.97824 0.3677 0.60762 0.0
N434 N 0.99872 0.41475 0.59437 0.0
H435 H 0.97705 0.3855 0.55982 0.0
H436 H 0.98232 0.37545 0.65796 0.0
C437 C 0.98055 0.31109 0.66033 0.0
O438 O 0.00595 0.31492 0.64313 0.0
N439 N 0.90864 0.30865 0.60377 0.0
C440 C 0.89818 0.29474 0.57708 0.0
C441 C 0.87007 0.2803 0.58338 0.0
C442 C 0.88668 0.30263 0.62601 0.0
N443 N 0.86302 0.28519 0.61404 0.0
C444 C 0.98631 0.31137 0.55952 0.0
C445 C 0.97314 0.2499 0.57514 0.0
C446 C 0.98574 0.25627 0.54501 0.0
C447 C 0.99517 0.28733 0.53892 0.0
C448 C 0.96624 0.27448 0.59578 0.0
N449 N 0.97023 0.30495 0.58663 0.0
H450 H 0.99003 0.33513 0.55201 0.0
H451 H 0.95371 0.26903 0.61732 0.0
H452 H 0.90962 0.29618 0.55428 0.0
H453 H 0.88708 0.31225 0.64972 0.0
O454 O 0.92863 0.35657 0.56802 0.0
O455 O 0.91517 0.37093 0.61665 0.0
O456 O 0.95393 0.32047 0.64981 0.0
C457 C 0.91239 0.37507 0.58615 0.0
H458 H 0.00796 0.42926 0.6425 0.0
H459 H 0.85525 0.26816 0.56651 0.0
H460 H 0.96552 0.22673 0.582 0.0
H461 H 0.00692 0.29372 0.51719 0.0
Co462 Co 0.15993 0.9441 0.59955 0.0
C463 C 0.11313 0.99063 0.57986 0.0
C464 C 0.11242 0.98578 0.63004 0.0
C465 C 0.08568 0.00209 0.62049 0.0
N466 N 0.13006 0.97885 0.60436 0.0
N467 N 0.08669 0.00527 0.5888 0.0
H468 H 0.11701 0.98475 0.55535 0.0
H469 H 0.1169 0.97691 0.65362 0.0
C470 C 0.18782 0.97282 0.65902 0.0
O471 O 0.18532 1.00098 0.64664 0.0
N472 N 0.18775 0.90862 0.59324 0.0
C473 C 0.20115 0.90129 0.56536 0.0
C474 C 0.21815 0.87421 0.56892 0.0
C475 C 0.19635 0.88549 0.61341 0.0
N476 N 0.21532 0.86419 0.59912 0.0
C477 C 0.18711 0.98978 0.55632 0.0
C478 C 0.24814 0.974 0.57122 0.0
C479 C 0.24205 0.9891 0.54224 0.0
C480 C 0.2114 0.99963 0.53667 0.0
C481 C 0.22321 0.96607 0.59119 0.0
N482 N 0.19277 0.97144 0.58223 0.0
H483 H 0.16396 0.99478 0.54837 0.0
H484 H 0.22831 0.9517 0.61164 0.0
H485 H 0.19843 0.91467 0.54376 0.0
H486 H 0.18869 0.88418 0.63777 0.0
O487 O 0.13864 0.93269 0.56085 0.0
O488 O 0.1262 0.91537 0.60889 0.0
O489 O 0.17726 0.94898 0.64399 0.0
C490 C 0.12043 0.91568 0.57863 0.0
H491 H 0.06631 0.00936 0.63536 0.0
H492 H 0.2308 0.86231 0.55025 0.0
H493 H 0.2713 0.96536 0.57717 0.0
H494 H 0.20554 0.01285 0.51558 0.0
Co495 Co 0.5749 0.15495 0.62721 0.0
C496 C 0.53334 0.10277 0.6084 0.0
C497 C 0.54303 0.10242 0.65801 0.0
C498 C 0.5318 0.07332 0.64938 0.0
N499 N 0.54421 0.12117 0.63226 0.0
N500 N 0.52577 0.07359 0.61811 0.0
H501 H 0.53602 0.10835 0.58364 0.0
H502 H 0.55403 0.10773 0.68047 0.0
C503 C 0.54277 0.17289 0.68745 0.0
O504 O 0.51625 0.1649 0.67368 0.0
N505 N 0.60638 0.18711 0.62142 0.0
C506 C 0.61006 0.20443 0.59504 0.0
C507 C 0.63682 0.22203 0.59799 0.0
C508 C 0.63131 0.19402 0.63997 0.0
N509 N 0.65037 0.21549 0.62618 0.0
C510 C 0.53203 0.1802 0.58176 0.0
C511 C 0.5334 0.23995 0.60682 0.0
C512 C 0.52735 0.23629 0.57441 0.0
C513 C 0.52404 0.20573 0.56261 0.0
C514 C 0.54207 0.21396 0.62487 0.0
N515 N 0.54353 0.18468 0.61163 0.0
H516 H 0.5335 0.1576 0.57064 0.0
H517 H 0.55226 0.21863 0.64775 0.0
H518 H 0.59507 0.20333 0.57439 0.0
H519 H 0.63582 0.18278 0.66249 0.0
O520 O 0.58711 0.13708 0.58728 0.0
O521 O 0.60804 0.1242 0.63369 0.0
O522 O 0.56874 0.16948 0.67257 0.0
C523 C 0.60682 0.11997 0.60314 0.0
H524 H 0.53208 0.05248 0.66403 0.0
H525 H 0.64645 0.23704 0.57978 0.0
H526 H 0.53538 0.26308 0.61725 0.0
H527 H 0.51933 0.20152 0.53778 0.0
H528 H 0.71375 0.06576 0.20369 0.0
H529 H 0.69954 0.9655 0.1924 0.0
H530 H 0.73235 0.9556 0.23927 0.0
H531 H 0.7943 0.0614 0.22869 0.0
H532 H 0.79144 0.09242 0.25754 0.0
H533 H 0.76593 0.0924 0.22346 0.0
H534 H 0.71727 0.09474 0.26002 0.0
H535 H 0.74265 0.09503 0.29421 0.0
H536 H 0.71251 0.06558 0.29056 0.0
H537 H 0.76789 0.95565 0.28617 0.0
H538 H 0.80167 0.96598 0.33236 0.0
H539 H 0.79361 0.06614 0.31526 0.0
C540 C 0.71724 0.04176 0.21132 0.0
C541 C 0.70387 0.01642 0.19411 0.0
C542 C 0.70939 0.98538 0.2049 0.0
C543 C 0.72811 0.97944 0.23159 0.0
C544 C 0.74132 0.00473 0.24762 0.0
C545 C 0.736 0.03532 0.23817 0.0
C546 C 0.75333 0.05805 0.25988 0.0
C547 C 0.7777 0.0772 0.24128 0.0
C548 C 0.73005 0.07962 0.2772 0.0
C549 C 0.76921 0.03539 0.28279 0.0
C550 C 0.76194 0.00476 0.2751 0.0
C551 C 0.77368 0.97955 0.29249 0.0
C552 C 0.79298 0.9857 0.31874 0.0
C553 C 0.80053 0.01685 0.32764 0.0
C554 C 0.78854 0.04201 0.3091 0.0
H555 H 0.41406 0.80952 0.30082 0.0
H556 H 0.50398 0.8024 0.34883 0.0
H557 H 0.52053 0.76156 0.31046 0.0
H558 H 0.40504 0.72758 0.28633 0.0
H559 H 0.38632 0.73294 0.24839 0.0
H560 H 0.3824 0.76251 0.27858 0.0
H561 H 0.40426 0.80447 0.24004 0.0
H562 H 0.40789 0.77504 0.2097 0.0
H563 H 0.44162 0.79798 0.22109 0.0
H564 H 0.52715 0.72178 0.26545 0.0
H565 H 0.5229 0.68636 0.21914 0.0
H566 H 0.42716 0.71782 0.20371 0.0
C567 C 0.43745 0.79977 0.30311 0.0
C568 C 0.45794 0.80954 0.32761 0.0
C569 C 0.48802 0.79553 0.33008 0.0
C570 C 0.49755 0.77226 0.30844 0.0
C571 C 0.47656 0.76296 0.28477 0.0
C572 C 0.44707 0.77627 0.28214 0.0
C573 C 0.42841 0.76165 0.25537 0.0
C574 C 0.3988 0.74519 0.26793 0.0
C575 C 0.42007 0.78625 0.23005 0.0
C576 C 0.45207 0.73815 0.24304 0.0
C577 C 0.47978 0.7393 0.26013 0.0
C578 C 0.50544 0.72054 0.25213 0.0
C579 C 0.50281 0.70045 0.22582 0.0
C580 C 0.4746 0.69897 0.20803 0.0
C581 C 0.44886 0.71788 0.21715 0.0
H582 H 0.71271 0.50363 0.31783 0.0
H583 H 0.68416 0.40584 0.31975 0.0
H584 H 0.71664 0.3954 0.27292 0.0
H585 H 0.71369 0.51043 0.23061 0.0
H586 H 0.74745 0.53592 0.23041 0.0
H587 H 0.72093 0.53625 0.26362 0.0
H588 H 0.76758 0.52486 0.30131 0.0
H589 H 0.79416 0.52404 0.26818 0.0
H590 H 0.79184 0.49084 0.29451 0.0
H591 H 0.75506 0.39405 0.22828 0.0
H592 H 0.79206 0.40335 0.18457 0.0
H593 H 0.79494 0.50235 0.20862 0.0
C594 C 0.71279 0.48016 0.30806 0.0
C595 C 0.69571 0.4556 0.32282 0.0
C596 C 0.69689 0.42517 0.3092 0.0
C597 C 0.71543 0.4189 0.28253 0.0
C598 C 0.73261 0.4433 0.26918 0.0
C599 C 0.73109 0.47347 0.28103 0.0
C600 C 0.752 0.49532 0.26185 0.0
C601 C 0.73234 0.521 0.24566 0.0
C602 C 0.77793 0.5096 0.28272 0.0
C603 C 0.76568 0.4726 0.23769 0.0
C604 C 0.75429 0.44268 0.24262 0.0
C605 C 0.76392 0.41746 0.22401 0.0
C606 C 0.78519 0.42298 0.19927 0.0
C607 C 0.79661 0.45359 0.19292 0.0
C608 C 0.78676 0.47866 0.21271 0.0
H609 H 0.07366 0.71033 0.32737 0.0
H610 H 0.97335 0.69436 0.33724 0.0
H611 H 0.96325 0.72973 0.29244 0.0
H612 H 0.06918 0.79143 0.30736 0.0
H613 H 0.10012 0.79048 0.27829 0.0
H614 H 0.10032 0.76292 0.31064 0.0
H615 H 0.10252 0.71664 0.27103 0.0
H616 H 0.10274 0.74407 0.23856 0.0
H617 H 0.07325 0.7138 0.24026 0.0
H618 H 0.96306 0.76887 0.24917 0.0
H619 H 0.97302 0.80528 0.20528 0.0
H620 H 0.07356 0.79566 0.22047 0.0
C621 C 0.04961 0.7139 0.31979 0.0
C622 C 0.0243 0.69945 0.33605 0.0
C623 C 0.99319 0.70502 0.32538 0.0
C624 C 0.98715 0.72523 0.29994 0.0
C625 C 0.01242 0.73965 0.28502 0.0
C626 C 0.04309 0.73394 0.29408 0.0
C627 C 0.06579 0.75255 0.27355 0.0
C628 C 0.08498 0.77572 0.29367 0.0
C629 C 0.08735 0.73045 0.25473 0.0
C630 C 0.04298 0.76972 0.25181 0.0
C631 C 0.01234 0.76198 0.25916 0.0
C632 C 0.98695 0.77493 0.24299 0.0
C633 C 0.99292 0.79576 0.21809 0.0
C634 C 0.02408 0.80345 0.20919 0.0
C635 C 0.04945 0.79043 0.22666 0.0
H636 H 0.28568 0.01746 0.81706 0.0
H637 H 0.30977 0.91855 0.82283 0.0
H638 H 0.27968 0.90846 0.77431 0.0
H639 H 0.20741 0.00746 0.78879 0.0
H640 H 0.20812 0.04009 0.76166 0.0
H641 H 0.23262 0.04057 0.79647 0.0
H642 H 0.28187 0.04914 0.76169 0.0
H643 H 0.25748 0.04905 0.72677 0.0
H644 H 0.29009 0.02222 0.72984 0.0
H645 H 0.24427 0.90762 0.72754 0.0
H646 H 0.20996 0.91705 0.6817 0.0
H647 H 0.2095 0.01677 0.7028 0.0
C648 C 0.28505 0.99378 0.80783 0.0
C649 C 0.30023 0.96884 0.82413 0.0
C650 C 0.29848 0.93817 0.81114 0.0
C651 C 0.28131 0.9321 0.78349 0.0
C652 C 0.26608 0.95691 0.76852 0.0
C653 C 0.26812 0.98725 0.77982 0.0
C654 C 0.24933 0.00948 0.75877 0.0
C655 C 0.2228 0.02533 0.77755 0.0
C656 C 0.27099 0.03392 0.74335 0.0
C657 C 0.23623 0.98676 0.73424 0.0
C658 C 0.24612 0.95655 0.74061 0.0
C659 C 0.2366 0.93123 0.72213 0.0
C660 C 0.21687 0.93686 0.69612 0.0
C661 C 0.20686 0.96767 0.68836 0.0
C662 C 0.21671 0.99294 0.70791 0.0
H663 H 0.60232 0.29629 0.81667 0.0
H664 H 0.51289 0.28527 0.86459 0.0
H665 H 0.49681 0.24615 0.82434 0.0
H666 H 0.57329 0.28929 0.7369 0.0
H667 H 0.60711 0.26777 0.72324 0.0
H668 H 0.611 0.29514 0.75547 0.0
H669 H 0.6345 0.25114 0.79062 0.0
H670 H 0.63043 0.22358 0.75856 0.0
H671 H 0.6127 0.21536 0.79638 0.0
H672 H 0.49052 0.20842 0.77802 0.0
H673 H 0.49424 0.17582 0.7298 0.0
H674 H 0.58865 0.21047 0.71351 0.0
C675 C 0.57921 0.28589 0.81868 0.0
C676 C 0.55876 0.2941 0.84379 0.0
C677 C 0.5289 0.27954 0.84556 0.0
C678 C 0.51962 0.25722 0.82283 0.0
C679 C 0.54053 0.24952 0.79858 0.0
C680 C 0.56971 0.26346 0.79641 0.0
C681 C 0.58799 0.25097 0.76829 0.0
C682 C 0.59526 0.27736 0.74457 0.0
C683 C 0.61819 0.23427 0.77912 0.0
C684 C 0.5645 0.22787 0.75477 0.0
C685 C 0.53723 0.2274 0.77253 0.0
C686 C 0.51183 0.20853 0.76409 0.0
C687 C 0.51419 0.19004 0.73664 0.0
C688 C 0.54182 0.19031 0.71794 0.0
C689 C 0.56738 0.2093 0.72749 0.0
H690 H 0.29972 0.50058 0.71441 0.0
H691 H 0.29971 0.60037 0.69368 0.0
H692 H 0.26349 0.60944 0.73806 0.0
H693 H 0.21874 0.4944 0.73672 0.0
H694 H 0.22544 0.4672 0.7687 0.0
H695 H 0.2518 0.46799 0.73539 0.0
H696 H 0.29899 0.47711 0.77303 0.0
H697 H 0.27282 0.47597 0.80648 0.0
H698 H 0.29796 0.50945 0.80051 0.0
H699 H 0.22525 0.60787 0.78274 0.0
H700 H 0.19218 0.5968 0.82899 0.0
H701 H 0.21795 0.49831 0.8238 0.0
C702 C 0.29232 0.52437 0.7194 0.0
C703 C 0.30273 0.54975 0.70037 0.0
C704 C 0.29239 0.5805 0.70782 0.0
C705 C 0.27158 0.58592 0.73295 0.0
C706 C 0.2614 0.56043 0.75083 0.0
C707 C 0.27175 0.53031 0.7448 0.0
C708 C 0.25756 0.50728 0.76832 0.0
C709 C 0.23717 0.48277 0.75125 0.0
C710 C 0.28337 0.49153 0.78827 0.0
C711 C 0.23753 0.52918 0.78833 0.0
C712 C 0.23992 0.55966 0.77749 0.0
C713 C 0.22339 0.58412 0.79158 0.0
C714 C 0.20447 0.5775 0.81789 0.0
C715 C 0.20233 0.54665 0.83035 0.0
C716 C 0.21893 0.52213 0.81498 0.0
H717 H 0.91834 0.19252 0.79222 0.0
H718 H 0.01164 0.19272 0.83374 0.0
H719 H 0.02934 0.22967 0.79201 0.0
H720 H 0.94094 0.19768 0.71005 0.0
H721 H 0.9089 0.22349 0.69996 0.0
H722 H 0.90465 0.19585 0.73191 0.0
H723 H 0.88995 0.24136 0.76978 0.0
H724 H 0.89451 0.26914 0.738 0.0
H725 H 0.91643 0.27404 0.77422 0.0
H726 H 0.03648 0.26665 0.74476 0.0
H727 H 0.03234 0.30079 0.69752 0.0
H728 H 0.93323 0.2785 0.68979 0.0
C729 C 0.94269 0.19982 0.79235 0.0
C730 C 0.96378 0.18923 0.81604 0.0
C731 C 0.99518 0.20018 0.81566 0.0
C732 C 0.00537 0.22125 0.7921 0.0
C733 C 0.98376 0.23149 0.76937 0.0
C734 C 0.95303 0.22116 0.76946 0.0
C735 C 0.93397 0.23655 0.74335 0.0
C736 C 0.92139 0.21192 0.71993 0.0
C737 C 0.90714 0.25645 0.75717 0.0
C738 C 0.95881 0.257 0.7282 0.0
C739 C 0.98744 0.25368 0.7434 0.0
C740 C 0.01411 0.26953 0.73289 0.0
C741 C 0.01153 0.2889 0.70604 0.0
C742 C 0.9824 0.29264 0.69014 0.0
C743 C 0.9557 0.27663 0.70171 0.0
H744 H 0.46312 0.02187 0.9524 0.0
H745 H 0.42072 0.9352 0.98471 0.0
H746 H 0.46055 0.93066 0.02669 0.0
H747 H 0.54493 0.99895 0.96768 0.0
H748 H 0.55633 0.03739 0.98125 0.0
H749 H 0.52512 0.03328 0.95268 0.0
H750 H 0.48826 0.06467 0.98952 0.0
H751 H 0.51896 0.06825 0.01869 0.0
H752 H 0.4818 0.05123 0.02947 0.0
H753 H 0.50316 0.93677 0.06744 0.0
H754 H 0.54791 0.95179 0.10184 0.0
H755 H 0.56386 0.03375 0.04335 0.0
C756 C 0.46258 0.00182 0.96812 0.0
C757 C 0.43852 0.97909 0.96542 0.0
C758 C 0.43849 0.95321 0.9866 0.0
C759 C 0.46115 0.95033 1.01051 0.0
C760 C 0.48403 0.97346 1.01312 0.0
C761 C 0.48516 0.99861 0.9924 0.0
C762 C 0.51199 0.02047 1.0011 0.0
C763 C 0.53602 0.02264 0.97406 0.0
C764 C 0.49949 0.05309 1.01022 0.0
C765 C 0.5257 0.00359 0.02969 0.0
C766 C 0.50906 0.97662 0.03634 0.0
C767 C 0.51656 0.95771 0.06229 0.0
C768 C 0.54189 0.96645 0.0818 0.0
C769 C 0.55968 0.99369 0.07518 0.0
C770 C 0.55125 0.01244 0.04873 0.0
H771 H 0.50223 0.4245 1.01149 0.0
H772 H 0.5275 0.47627 0.92692 0.0
H773 H 0.52942 0.52523 0.95791 0.0
H774 H 0.45151 0.48418 0.04417 0.0
H775 H 0.46293 0.47673 0.08459 0.0
H776 H 0.46448 0.44559 0.05584 0.0
H777 H 0.52321 0.43656 0.06947 0.0
H778 H 0.52194 0.46804 0.09792 0.0
H779 H 0.55045 0.46877 0.06641 0.0
H780 H 0.52936 0.56838 0.99773 0.0
H781 H 0.52145 0.6043 0.04272 0.0
H782 H 0.49393 0.52574 0.10177 0.0
C783 C 0.50803 0.44622 0.99959 0.0
C784 C 0.51441 0.4466 0.9667 0.0
C785 C 0.52192 0.47545 0.95189 0.0
C786 C 0.52345 0.50334 0.9694 0.0
C787 C 0.51724 0.50215 1.00174 0.0
C788 C 0.50926 0.47446 0.01669 0.0
C789 C 0.50237 0.48008 0.05152 0.0
C790 C 0.4683 0.47111 0.05949 0.0
C791 C 0.5259 0.4623 0.07257 0.0
C792 C 0.50737 0.51529 0.05367 0.0
C793 C 0.51643 0.52736 0.02473 0.0
C794 C 0.52212 0.55922 0.02047 0.0
C795 C 0.51751 0.57946 0.04617 0.0
C796 C 0.50687 0.56801 0.07579 0.0
C797 C 0.50243 0.53528 0.07966 0.0
H798 H 0.05549 0.54793 0.98084 0.0
H799 H 0.06593 0.45242 0.9475 0.0
H800 H 0.02584 0.43489 0.98627 0.0
H801 H 0.04323 0.53058 0.06371 0.0
H802 H 0.01432 0.56107 0.06884 0.0
H803 H 0.04455 0.56523 0.03932 0.0
H804 H 1.00174 0.57381 0.99651 0.0
H805 H 0.97152 0.56924 0.02592 0.0
H806 H 0.97151 0.54466 0.9912 0.0
H807 H 0.98659 0.42762 0.03052 0.0
H808 H 0.94534 0.43204 0.07154 0.0
H809 H 0.95667 0.53275 0.07321 0.0
C810 C 0.04937 0.5233 0.98184 0.0
C811 C 0.064 0.50135 0.96142 0.0
C812 C 0.05495 0.46949 0.96291 0.0
C813 C 0.03241 0.45938 0.98499 0.0
C814 C 0.01876 0.48154 1.00509 0.0
C815 C 0.02648 0.51295 1.00331 0.0
C816 C 0.00723 0.53223 0.02653 0.0
C817 C 0.0286 0.54822 0.05106 0.0
C818 C 0.98678 0.55641 1.00898 0.0
C819 C 0.98735 0.50677 0.0417 0.0
C820 C 0.99487 0.47763 0.02934 0.0
C821 C 0.98032 0.45035 0.04001 0.0
C822 C 0.95694 0.453 0.06322 0.0
C823 C 0.94771 0.48262 0.07509 0.0
C824 C 0.96343 0.50985 0.06452 0.0
H825 H 0.99721 0.02372 0.95221 0.0
H826 H 0.99427 0.10636 1.01221 0.0
H827 H 1.00082 0.07295 0.05931 0.0
H828 H 0.95475 0.97283 1.00342 0.0
H829 H 0.97823 0.93858 0.99523 0.0
H830 H 0.97422 0.96887 0.96575 0.0
H831 H 0.03477 0.97437 0.96291 0.0
H832 H 0.03898 0.94397 0.99226 0.0
H833 H 0.05672 0.9818 0.99866 0.0
H834 H 0.00658 0.0309 0.1001 0.0
H835 H 0.01294 0.98337 0.13198 0.0
H836 H 0.01193 0.92694 0.04621 0.0
C837 C 0.99838 0.03489 0.97516 0.0
C838 C 0.99496 0.06787 0.97831 0.0
C839 C 0.99627 0.08126 1.00902 0.0
C840 C 1.00017 0.06245 0.03599 0.0
C841 C 0.00294 0.03013 0.03207 0.0
C842 C 1.00233 0.0164 1.00247 0.0
C843 C 0.00559 0.98096 1.00508 0.0
C844 C 0.97646 0.96434 0.99157 0.0
C845 C 0.03581 0.96961 0.98876 0.0
C846 C 0.00772 0.97699 0.04078 0.0
C847 C 0.00624 0.00571 0.05579 0.0
C848 C 0.00773 0.00825 0.08859 0.0
C849 C 0.01111 0.98082 0.10661 0.0
C850 C 0.01289 0.95085 0.09198 0.0
C851 C 0.01096 0.9492 0.05843 0.0
H852 H 0.44024 0.53488 0.54531 0.0
H853 H 0.45582 0.45752 0.61005 0.0
H854 H 0.49954 0.43879 0.57625 0.0
H855 H 0.45664 0.49348 0.47263 0.0
H856 H 0.47648 0.52615 0.45441 0.0
H857 H 0.44614 0.53308 0.48327 0.0
H858 H 0.48464 0.56623 0.51695 0.0
H859 H 0.51492 0.55978 0.48794 0.0
H860 H 0.52175 0.54958 0.5288 0.0
H861 H 0.54101 0.42831 0.53515 0.0
H862 H 0.57941 0.42808 0.49175 0.0
H863 H 0.53827 0.51328 0.45369 0.0
C864 C 0.45252 0.51376 0.5522 0.0
C865 C 0.44429 0.49739 0.58024 0.0
C866 C 0.46168 0.47037 0.58876 0.0
C867 C 0.48644 0.45954 0.56962 0.0
C868 C 0.49377 0.47616 0.5421 0.0
C869 C 0.47748 0.50284 0.53351 0.0
C870 C 0.49083 0.51704 0.50336 0.0
C871 C 0.46604 0.51744 0.47685 0.0
C872 C 0.50381 0.55012 0.50964 0.0
C873 C 0.5171 0.49401 0.49609 0.0
C874 C 0.51824 0.47059 0.51878 0.0
C875 C 0.54047 0.44669 0.51747 0.0
C876 C 0.5624 0.44693 0.49275 0.0
C877 C 0.56235 0.47103 0.46951 0.0
C878 C 0.53895 0.49461 0.47104 0.0
H879 H 0.01545 0.42259 0.5325 0.0
H880 H 0.98437 0.4729 0.61604 0.0
H881 H 0.98239 0.52196 0.58529 0.0
H882 H 0.06526 0.48521 0.50199 0.0
H883 H 0.05578 0.4773 0.46116 0.0
H884 H 0.05484 0.44603 0.48983 0.0
H885 H 0.99726 0.43396 0.47393 0.0
H886 H 0.9979 0.46554 0.44557 0.0
H887 H 0.96821 0.46469 0.47594 0.0
H888 H 0.98152 0.56509 0.5455 0.0
H889 H 0.98773 0.60128 0.50053 0.0
H890 H 0.02171 0.52459 0.44232 0.0
C891 C 0.00845 0.44402 0.54428 0.0
C892 C 1.00032 0.44386 0.57682 0.0
C893 C 0.99128 0.4724 0.5914 0.0
C894 C 0.98973 0.50039 0.574 0.0
C895 C 0.99752 0.49966 0.54199 0.0
C896 C 0.00715 0.47238 0.52728 0.0
C897 C 0.015 0.47847 0.4927 0.0
C898 C 0.04979 0.47133 0.48604 0.0
C899 C 0.9933 0.45954 0.47074 0.0
C900 C 0.00824 0.51342 0.49033 0.0
C901 C 0.99784 0.52496 0.51903 0.0
C902 C 0.98994 0.55638 0.52299 0.0
C903 C 0.99361 0.57679 0.49727 0.0
C904 C 0.0055 0.56602 0.46787 0.0
C905 C 0.01232 0.53364 0.46428 0.0
H906 H 0.92706 0.99498 0.48971 0.0
H907 H 0.97685 0.04393 0.41526 0.0
H908 H 0.02238 0.05106 0.45094 0.0
H909 H 0.95686 0.04064 0.55596 0.0
H910 H 0.96081 0.00749 0.58218 0.0
H911 H 0.93129 0.00724 0.55152 0.0
H912 H 0.95374 0.95516 0.5293 0.0
H913 H 0.9829 0.95498 0.56023 0.0
H914 H 0.99486 0.9528 0.51938 0.0
H915 H 0.06244 0.05266 0.49396 0.0
H916 H 0.09763 0.04277 0.53939 0.0
H917 H 0.02389 0.9909 0.58654 0.0
C918 C 0.9477 0.00702 0.48103 0.0
C919 C 0.9486 0.01867 0.4496 0.0
C920 C 0.9759 0.03437 0.43899 0.0
C921 C 1.00169 0.03884 0.45923 0.0
C922 C 1.00005 0.02723 0.49007 0.0
C923 C 0.97401 0.01117 0.50084 0.0
C924 C 0.97925 0.9995 0.53452 0.0
C925 C 0.95565 0.01462 0.5574 0.0
C926 C 0.97759 0.96347 0.53593 0.0
C927 C 0.01243 0.01121 0.54085 0.0
C928 C 0.02362 0.02763 0.51496 0.0
C929 C 0.05386 0.03998 0.51439 0.0
C930 C 0.07362 0.03443 0.54035 0.0
C931 C 0.06338 0.01654 0.56664 0.0
C932 C 0.03205 0.00538 0.56719 0.0
H933 H 0.4621 0.95507 0.48698 0.0
H934 H 0.55746 0.92073 0.47829 0.0
H935 H 0.57418 0.9561 0.52178 0.0
H936 H 0.48345 0.03624 0.50099 0.0
H937 H 0.45083 0.04236 0.52743 0.0
H938 H 0.44819 0.01348 0.49642 0.0
H939 H 0.43525 0.97033 0.54059 0.0
H940 H 0.43778 1.00136 0.56948 0.0
H941 H 0.46175 0.96672 0.57349 0.0
H942 H 0.57979 0.99393 0.56775 0.0
H943 H 0.57558 0.03654 0.60749 0.0
H944 H 0.47792 0.0502 0.58265 0.0
C945 C 0.48644 0.95491 0.49446 0.0
C946 C 0.50852 0.935 0.47955 0.0
C947 C 0.54029 0.93584 0.48944 0.0
C948 C 0.54989 0.95568 0.51421 0.0
C949 C 0.5275 0.97493 0.52854 0.0
C950 C 0.49654 0.97509 0.51867 0.0
C951 C 0.47755 0.99936 0.53668 0.0
C952 C 0.46419 0.02433 0.51406 0.0
C953 C 0.45152 0.98355 0.55619 0.0
C954 C 0.50266 0.01305 0.55809 0.0
C955 C 0.53116 0.9981 0.55352 0.0
C956 C 0.55765 0.00589 0.5713 0.0
C957 C 0.55507 0.02995 0.59383 0.0
C958 C 0.52654 0.0465 0.59782 0.0
C959 C 0.49995 0.03781 0.57989 0.0
H960 H 0.53629 0.25069 0.06169 0.0
H961 H 0.51313 0.21199 0.9695 0.0
H962 H 0.52413 0.15923 0.98935 0.0
H963 H 0.60181 0.21169 0.06991 0.0
H964 H 0.60046 0.20408 0.11186 0.0
H965 H 0.57967 0.23704 0.09576 0.0
H966 H 0.52751 0.217 0.11985 0.0
H967 H 0.54828 0.18413 0.1368 0.0
H968 H 0.5146 0.17754 0.11176 0.0
H969 H 0.55365 0.11554 1.01123 0.0
H970 H 0.59286 0.08169 0.03692 0.0
H971 H 0.59891 0.14643 0.11575 0.0
C972 C 0.53233 0.23098 0.04605 0.0
C973 C 0.52403 0.23573 1.01391 0.0
C974 C 0.51894 0.20926 0.9943 0.0
C975 C 0.52539 0.179 1.00537 0.0
C976 C 0.53664 0.17549 0.03616 0.0
C977 C 0.53939 0.20066 0.05659 0.0
C978 C 0.55724 0.19154 0.08637 0.0
C979 C 0.58651 0.21231 0.09121 0.0
C980 C 0.53561 0.19261 0.11542 0.0
C981 C 0.56624 0.1581 0.07831 0.0
C982 C 0.55353 0.14918 0.04949 0.0
C983 C 0.56251 0.12155 0.03447 0.0
C984 C 0.58502 0.1026 0.04913 0.0
C985 C 0.59825 0.11119 0.07861 0.0
C986 C 0.58824 0.13891 0.09373 0.0
H987 H 0.24736 0.558 0.03294 0.0
H988 H 0.30294 0.50724 0.96393 0.0
H989 H 0.35065 0.51719 0.99578 0.0
H990 H 0.29738 0.6175 0.0434 0.0
H991 H 0.29133 0.62306 0.08526 0.0
H992 H 0.26087 0.6059 0.06152 0.0
H993 H 0.25983 0.55708 0.09805 0.0
H994 H 0.2902 0.57432 0.12222 0.0
H995 H 0.29564 0.53575 0.10562 0.0
H996 H 0.39263 0.54193 0.02806 0.0
H997 H 0.4256 0.57803 0.05965 0.0
H998 H 0.3431 0.61112 0.10926 0.0
C999 C 0.2693 0.5476 0.02534 0.0
C1000 C 0.27141 0.53145 0.99618 0.0
C1001 C 0.30081 0.51949 0.98629 0.0
C1002 C 0.32797 0.52491 1.00431 0.0
C1003 C 0.32526 0.54207 0.03229 0.0
C1004 C 0.29657 0.55289 0.04301 0.0
C1005 C 0.30042 0.57422 0.07147 0.0
C1006 C 0.28671 0.60709 0.065 0.0
C1007 C 0.28565 0.55945 0.1011 0.0
C1008 C 0.33587 0.57508 0.07407 0.0
C1009 C 0.34975 0.55599 0.05152 0.0
C1010 C 0.38211 0.55612 0.04645 0.0
C1011 C 0.40062 0.57669 0.06437 0.0
C1012 C 0.38673 0.5965 0.08722 0.0
C1013 C 0.35417 0.59516 0.09273 0.0
H1014 H 0.98408 0.26258 0.02944 0.0
H1015 H 0.98142 0.29912 0.93352 0.0
H1016 H 0.96254 0.34958 0.95368 0.0
H1017 H 0.91363 0.28757 0.0486 0.0
H1018 H 0.92079 0.29788 0.08937 0.0
H1019 H 0.9449 0.26889 0.07045 0.0
H1020 H 0.99509 0.30054 0.08382 0.0
H1021 H 0.97119 0.32941 0.10364 0.0
H1022 H 0.99762 0.34125 0.07258 0.0
H1023 H 0.93085 0.38965 0.98074 0.0
H1024 H 0.89277 0.41826 1.0136 0.0
H1025 H 0.91186 0.35542 0.09214 0.0
C1026 C 0.98064 0.28156 1.01276 0.0
C1027 C 0.98414 0.27657 0.97979 0.0
C1028 C 0.97955 0.30218 0.95888 0.0
C1029 C 0.96852 0.33106 0.97015 0.0
C1030 C 0.96236 0.33411 1.0024 0.0
C1031 C 0.96882 0.31025 0.02359 0.0
C1032 C 0.95509 0.31732 0.05597 0.0
C1033 C 0.93225 0.29138 0.06668 0.0
C1034 C 0.98132 0.32244 0.08045 0.0
C1035 C 0.93791 0.34767 0.049 0.0
C1036 C 0.94314 0.35734 0.0182 0.0
C1037 C 0.92722 0.38277 1.00513 0.0
C1038 C 0.90532 0.39863 0.02389 0.0
C1039 C 0.89934 0.38899 0.05541 0.0
C1040 C 0.91627 0.36351 0.06825 0.0
H1041 H 0.19968 0.9466 0.96196 0.0
H1042 H 0.23848 0.01595 0.02627 0.0
H1043 H 0.2022 0.99778 0.068 0.0
H1044 H 0.11633 0.95055 0.99331 0.0
H1045 H 0.11154 0.90908 0.98671 0.0
H1046 H 0.13629 0.93178 0.9608 0.0
H1047 H 0.18223 0.89343 0.97225 0.0
H1048 H 0.15814 0.87121 0.99893 0.0
H1049 H 0.19486 0.88737 1.01255 0.0
H1050 H 0.16845 0.96494 0.10538 0.0
H1051 H 0.13529 0.92522 0.13241 0.0
H1052 H 0.11841 0.87975 0.04212 0.0
C1053 C 0.19959 0.95928 0.98415 0.0
C1054 C 0.22215 0.98272 0.99068 0.0
C1055 C 0.22168 0.99771 0.02068 0.0
C1056 C 0.20109 0.9876 0.04456 0.0
C1057 C 0.1806 0.96298 0.03785 0.0
C1058 C 0.17909 0.9497 1.00801 0.0
C1059 C 0.15699 0.922 1.00727 0.0
C1060 C 0.1286 0.92877 0.98575 0.0
C1061 C 0.17409 0.89174 0.99717 0.0
C1062 C 0.14743 0.92077 0.04165 0.0
C1063 C 0.16098 0.94465 0.05903 0.0
C1064 C 0.15716 0.94658 0.09183 0.0
C1065 C 0.13859 0.9238 0.10703 0.0
C1066 C 0.12425 0.89952 0.08934 0.0
C1067 C 0.12881 0.89821 0.05629 0.0
H1068 H 0.63382 0.36913 0.5003 0.0
H1069 H 0.58132 0.35864 0.41284 0.0
H1070 H 0.54407 0.32314 0.43999 0.0
H1071 H 0.62824 0.29021 0.52438 0.0
H1072 H 0.625 0.29936 0.5659 0.0
H1073 H 0.64543 0.32568 0.53985 0.0
H1074 H 0.60893 0.37106 0.55794 0.0
H1075 H 0.58798 0.34461 0.58363 0.0
H1076 H 0.56697 0.36687 0.55411 0.0
H1077 H 0.51414 0.28644 0.47655 0.0
H1078 H 0.49709 0.24879 0.51766 0.0
H1079 H 0.57082 0.28306 0.57981 0.0
C1080 C 0.61435 0.35957 0.48689 0.0
C1081 C 0.6104 0.36662 0.45451 0.0
C1082 C 0.5848 0.35343 0.4377 0.0
C1083 C 0.56341 0.33345 0.45297 0.0
C1084 C 0.56799 0.32697 0.48501 0.0
C1085 C 0.593 0.3395 0.50166 0.0
C1086 C 0.59409 0.3273 0.53524 0.0
C1087 C 0.62501 0.30958 0.5417 0.0
C1088 C 0.58919 0.35406 0.55914 0.0
C1089 C 0.56622 0.30534 0.53472 0.0
C1090 C 0.55109 0.30577 0.50578 0.0
C1091 C 0.52569 0.28609 0.49939 0.0
C1092 C 0.51619 0.26473 0.52287 0.0
C1093 C 0.53229 0.26302 0.55223 0.0
C1094 C 0.55715 0.28425 0.55822 0.0
H1095 H 0.16106 0.61414 0.43278 0.0
H1096 H 0.08016 0.58955 0.48959 0.0
H1097 H 0.11166 0.54979 0.51801 0.0
H1098 H 0.2003 0.5342 0.43212 0.0
H1099 H 0.23868 0.55152 0.43648 0.0
H1100 H 0.20826 0.57221 0.41524 0.0
H1101 H 0.21536 0.6203 0.45218 0.0
H1102 H 0.24587 0.59992 0.47313 0.0
H1103 H 0.21245 0.61498 0.49443 0.0
H1104 H 0.153 0.5196 0.54575 0.0
H1105 H 0.20171 0.50556 0.57425 0.0
H1106 H 0.25658 0.55133 0.50128 0.0
C1107 C 0.14992 0.59954 0.45049 0.0
C1108 C 0.11834 0.60438 0.45894 0.0
C1109 C 0.10445 0.58591 0.48291 0.0
C1110 C 0.12206 0.5631 0.49889 0.0
C1111 C 0.15355 0.55933 0.49074 0.0
C1112 C 0.16745 0.57719 0.46721 0.0
C1113 C 0.20268 0.57247 0.46674 0.0
C1114 C 0.21308 0.55665 0.4358 0.0
C1115 C 0.22009 0.60376 0.47196 0.0
C1116 C 0.20658 0.55051 0.49468 0.0
C1117 C 0.17787 0.54239 0.50754 0.0
C1118 C 0.17561 0.5252 0.53554 0.0
C1119 C 0.20336 0.51735 0.5516 0.0
C1120 C 0.23289 0.52708 0.53981 0.0
C1121 C 0.23444 0.54266 0.51032 0.0
H1122 H 0.9098 0.10264 0.47905 0.0
H1123 H 0.90114 0.15069 0.38899 0.0
H1124 H 0.93837 0.19122 0.40751 0.0
H1125 H 0.90918 0.16599 0.52664 0.0
H1126 H 0.93811 0.15262 0.5548 0.0
H1127 H 0.91576 0.12459 0.53248 0.0
H1128 H 0.96718 0.09938 0.5118 0.0
H1129 H 0.98985 0.12741 0.53418 0.0
H1130 H 0.99594 0.12346 0.49215 0.0
H1131 H 0.96613 0.23116 0.43919 0.0
H1132 H 0.98294 0.2672 0.48028 0.0
H1133 H 0.98083 0.19093 0.54897 0.0
C1134 C 0.91635 0.12138 0.46305 0.0
C1135 C 0.90259 0.12384 0.43272 0.0
C1136 C 0.9116 0.14846 0.41228 0.0
C1137 C 0.93282 0.17145 0.42255 0.0
C1138 C 0.94546 0.16884 0.45293 0.0
C1139 C 0.93803 0.1441 0.4727 0.0
C1140 C 0.95264 0.14826 0.50516 0.0
C1141 C 0.92742 0.14786 0.53128 0.0
C1142 C 0.97791 0.12314 0.51117 0.0
C1143 C 0.96717 0.18052 0.50139 0.0
C1144 C 0.96327 0.19162 0.47091 0.0
C1145 C 0.97037 0.22241 0.46288 0.0
C1146 C 0.98028 0.24285 0.4868 0.0
C1147 C 0.98339 0.23257 0.51872 0.0
C1148 C 0.97837 0.20031 0.52534 0.0
H1149 H 0.40086 0.92775 0.47625 0.0
H1150 H 0.35259 0.91103 0.38757 0.0
H1151 H 0.3095 0.9462 0.4047 0.0
H1152 H 0.3416 0.92269 0.52435 0.0
H1153 H 0.35124 0.954 0.55135 0.0
H1154 H 0.38178 0.93533 0.52908 0.0
H1155 H 0.39878 0.98887 0.50396 0.0
H1156 H 0.36985 0.00714 0.52911 0.0
H1157 H 0.3694 0.01401 0.48697 0.0
H1158 H 0.26724 0.97072 0.4365 0.0
H1159 H 0.23016 0.98404 0.47831 0.0
H1160 H 0.30706 0.98964 0.54597 0.0
C1161 C 0.38175 0.93261 0.46 0.0
C1162 C 0.3798 0.917 0.43066 0.0
C1163 C 0.35452 0.92329 0.40995 0.0
C1164 C 0.33004 0.94322 0.41952 0.0
C1165 C 0.33192 0.95726 0.44936 0.0
C1166 C 0.35758 0.95288 0.46896 0.0
C1167 C 0.35238 0.96753 0.50118 0.0
C1168 C 0.35699 0.94344 0.52803 0.0
C1169 C 0.37385 0.99612 0.50562 0.0
C1170 C 0.31849 0.97762 0.49797 0.0
C1171 C 0.30747 0.97249 0.46758 0.0
C1172 C 0.27588 0.97602 0.46001 0.0
C1173 C 0.25489 0.98389 0.4842 0.0
C1174 C 0.26543 0.98828 0.51588 0.0
C1175 C 0.29798 0.98643 0.52226 0.0
H1176 H 0.43207 0.79619 0.07741 0.0
H1177 H 0.50373 0.76363 1.01224 0.0
H1178 H 0.48634 0.80323 0.97319 0.0
H1179 H 0.37406 0.80461 0.02484 0.0
H1180 H 0.35678 0.8397 0.04106 0.0
H1181 H 0.37851 0.81359 0.06632 0.0
H1182 H 0.4154 0.85883 0.0833 0.0
H1183 H 0.39346 0.88553 0.05859 0.0
H1184 H 0.43531 0.88163 0.05353 0.0
H1185 H 0.45502 0.83969 0.93825 0.0
H1186 H 0.41581 0.87399 0.91223 0.0
H1187 H 0.3659 0.88306 1.00122 0.0
C1188 C 0.44528 0.79832 0.05564 0.0
C1189 C 0.46944 0.77685 0.04802 0.0
C1190 C 0.48513 0.77978 0.0186 0.0
C1191 C 0.47546 0.80224 0.9963 0.0
C1192 C 0.45042 0.82189 1.00402 0.0
C1193 C 0.43604 0.82061 0.03329 0.0
C1194 C 0.40786 0.84221 0.03484 0.0
C1195 C 0.37754 0.82392 0.04218 0.0
C1196 C 0.41335 0.86862 0.05899 0.0
C1197 C 0.40771 0.85474 1.00139 0.0
C1198 C 0.43258 0.84304 0.98401 0.0
C1199 C 0.43585 0.84951 0.95183 0.0
C1200 C 0.41331 0.86872 0.93718 0.0
C1201 C 0.38788 0.88112 0.95475 0.0
C1202 C 0.38524 0.87409 0.98726 0.0
H1203 H 0.69387 0.48995 0.05842 0.0
H1204 H 0.76881 0.48979 0.98863 0.0
H1205 H 0.73117 0.47614 0.94754 0.0
H1206 H 0.66606 0.42214 0.03744 0.0
H1207 H 0.62476 0.42952 0.04326 0.0
H1208 H 0.6532 0.45192 0.06485 0.0
H1209 H 0.62926 0.50351 0.04305 0.0
H1210 H 0.60038 0.4811 0.02145 0.0
H1211 H 0.62497 0.50881 1.00092 0.0
H1212 H 0.69078 0.44785 0.91715 0.0
H1213 H 0.65129 0.40815 0.90151 0.0
H1214 H 0.60361 0.42137 0.99104 0.0
C1215 C 0.70233 0.48803 0.03437 0.0
C1216 C 0.7347 0.49089 0.02735 0.0
C1217 C 0.74432 0.48852 0.99522 0.0
C1218 C 0.72294 0.48052 0.97137 0.0
C1219 C 0.69186 0.47491 0.97969 0.0
C1220 C 0.68138 0.47902 1.01043 0.0
C1221 C 0.64884 0.46524 1.01472 0.0
C1222 C 0.64823 0.44075 0.04162 0.0
C1223 C 0.62443 0.49122 0.02036 0.0
C1224 C 0.64416 0.45018 0.98262 0.0
C1225 C 0.66852 0.45718 0.96223 0.0
C1226 C 0.6711 0.44293 0.93254 0.0
C1227 C 0.6487 0.42035 0.92385 0.0
C1228 C 0.62469 0.41182 0.94518 0.0
C1229 C 0.62182 0.42768 0.97433 0.0
H1230 H 0.05312 0.70865 0.07708 0.0
H1231 H 0.99212 0.75461 1.00876 0.0
H1232 H 0.00715 0.71503 0.96882 0.0
H1233 H 0.11315 0.69462 0.02993 0.0
H1234 H 0.12367 0.65664 0.04543 0.0
H1235 H 0.10362 0.68434 0.07019 0.0
H1236 H 0.05919 0.64421 0.08083 0.0
H1237 H 0.07934 0.61586 0.05656 0.0
H1238 H 0.03912 0.62609 0.04799 0.0
H1239 H 0.03673 0.67608 0.93413 0.0
H1240 H 0.07474 0.63939 0.90957 0.0
H1241 H 0.11332 0.61862 1.00234 0.0
C1242 C 0.04137 0.70978 0.0544 0.0
C1243 C 0.02123 0.73499 0.04637 0.0
C1244 C 0.00782 0.73581 0.0156 0.0
C1245 C 0.01606 0.71327 0.99276 0.0
C1246 C 0.03717 0.68966 1.00126 0.0
C1247 C 0.049 0.68743 0.03165 0.0
C1248 C 0.07352 0.66193 0.0344 0.0
C1249 C 0.10534 0.67519 0.04563 0.0
C1250 C 0.0621 0.63545 0.05623 0.0
C1251 C 0.07497 0.6512 1.00041 0.0
C1252 C 0.05362 0.66707 0.98159 0.0
C1253 C 0.05296 0.66299 0.94881 0.0
C1254 C 0.07473 0.64227 0.93504 0.0
C1255 C 0.09688 0.62615 0.95409 0.0
C1256 C 0.09649 0.63037 0.98717 0.0
H1257 H 0.77629 0.07342 0.04821 0.0
H1258 H 0.76178 0.98775 0.995 0.0
H1259 H 0.79912 0.00683 0.95392 0.0
H1260 H 0.77877 0.12425 0.98144 0.0
H1261 H 0.80769 0.14982 0.99888 0.0
H1262 H 0.78083 0.12861 0.02384 0.0
H1263 H 0.82756 0.10399 0.05464 0.0
H1264 H 0.85453 0.12554 0.03018 0.0
H1265 H 0.85782 0.08349 0.03314 0.0
H1266 H 0.83946 0.03689 0.91893 0.0
H1267 H 0.87888 0.07325 0.89553 0.0
H1268 H 0.8628 0.13845 0.97256 0.0
C1269 C 0.78151 0.05824 0.02832 0.0
C1270 C 0.76701 0.02872 0.02514 0.0
C1271 C 0.77328 0.0102 0.99805 0.0
C1272 C 0.79423 0.02095 0.97462 0.0
C1273 C 0.808 0.05045 0.97852 0.0
C1274 C 0.80169 0.06873 1.00479 0.0
C1275 C 0.81851 0.09976 1.00368 0.0
C1276 C 0.79505 0.12721 1.00185 0.0
C1277 C 0.84094 0.10338 0.03208 0.0
C1278 C 0.83616 0.09597 0.97307 0.0
C1279 C 0.82981 0.06763 0.95851 0.0
C1280 C 0.84442 0.05917 0.93013 0.0
C1281 C 0.86659 0.07994 0.91691 0.0
C1282 C 0.87383 0.1085 0.93234 0.0
C1283 C 0.85784 0.11669 0.96029 0.0
H1284 H 0.46851 0.75698 0.54509 0.0
H1285 H 0.48939 0.7146 0.45432 0.0
H1286 H 0.481 0.66224 0.47723 0.0
H1287 H 0.49685 0.6871 0.59761 0.0
H1288 H 0.46458 0.69393 0.62432 0.0
H1289 H 0.48309 0.72651 0.6045 0.0
H1290 H 0.42884 0.74372 0.58276 0.0
H1291 H 0.41027 0.71104 0.60171 0.0
H1292 H 0.40602 0.71644 0.5596 0.0
H1293 H 0.45387 0.61855 0.50315 0.0
H1294 H 0.41653 0.58552 0.53268 0.0
H1295 H 0.41369 0.65437 0.60799 0.0
C1296 C 0.47287 0.7365 0.53057 0.0
C1297 C 0.47963 0.73976 0.49802 0.0
C1298 C 0.48475 0.71264 0.47945 0.0
C1299 C 0.47987 0.68274 0.49228 0.0
C1300 C 0.47043 0.68042 0.5238 0.0
C1301 C 0.46782 0.70656 0.54304 0.0
C1302 C 0.45222 0.69848 0.57423 0.0
C1303 C 0.47559 0.70169 0.6018 0.0
C1304 C 0.4226 0.7186 0.57985 0.0
C1305 C 0.44397 0.66447 0.5684 0.0
C1306 C 0.45525 0.65431 0.53943 0.0
C1307 C 0.44611 0.62567 0.52645 0.0
C1308 C 0.42472 0.60716 0.54326 0.0
C1309 C 0.41291 0.61724 0.57283 0.0
C1310 C 0.42333 0.64577 0.58592 0.0
H1311 H 0.80297 0.43865 0.45132 0.0
H1312 H 0.76331 0.50467 0.51856 0.0
H1313 H 0.80503 0.49086 0.55681 0.0
H1314 H 0.81806 0.38116 0.50133 0.0
H1315 H 0.85474 0.36828 0.48449 0.0
H1316 H 0.82635 0.38788 0.46003 0.0
H1317 H 0.86734 0.43007 0.44442 0.0
H1318 H 0.89632 0.41009 0.4682 0.0
H1319 H 0.88824 0.45104 0.47494 0.0
H1320 H 0.84443 0.46147 0.59122 0.0
H1321 H 0.88139 0.42362 0.61597 0.0
H1322 H 0.89586 0.37987 0.52446 0.0
C1323 C 0.80379 0.45165 0.4733 0.0
C1324 C 0.77959 0.47274 0.48177 0.0
C1325 C 0.7813 0.48813 0.51153 0.0
C1326 C 0.80504 0.48056 0.5334 0.0
C1327 C 0.82736 0.45817 0.52488 0.0
C1328 C 0.8274 0.44463 0.49513 0.0
C1329 C 0.85187 0.41907 0.49256 0.0
C1330 C 0.83683 0.38725 0.48413 0.0
C1331 C 0.87746 0.42812 0.46862 0.0
C1332 C 0.86452 0.41917 0.52595 0.0
C1333 C 0.85042 0.44198 0.54433 0.0
C1334 C 0.85624 0.44412 0.57682 0.0
C1335 C 0.87704 0.42242 0.59073 0.0
C1336 C 0.89162 0.39903 0.57207 0.0
C1337 C 0.88549 0.39782 0.53928 0.0
H1338 H 0.04164 0.75787 0.53065 0.0
H1339 H 0.99347 0.8083 0.45564 0.0
H1340 H 0.00829 0.8584 0.48076 0.0
H1341 H 0.02449 0.81757 0.59657 0.0
H1342 H 0.06267 0.81021 0.61355 0.0
H1343 H 0.04161 0.77896 0.59411 0.0
H1344 H 0.08967 0.76953 0.55785 0.0
H1345 H 0.11057 0.80113 0.57633 0.0
H1346 H 0.10448 0.80139 0.53409 0.0
H1347 H 0.03984 0.90136 0.50551 0.0
H1348 H 0.08005 0.93404 0.53217 0.0
H1349 H 0.1041 0.85611 0.59334 0.0
C1350 C 0.03249 0.77925 0.52037 0.0
C1351 C 0.01638 0.779 0.49106 0.0
C1352 C 0.00605 0.80783 0.47794 0.0
C1353 C 0.01422 0.83644 0.49215 0.0
C1354 C 0.032 0.83579 0.5199 0.0
C1355 C 0.04019 0.80788 0.53441 0.0
C1356 C 0.06249 0.81323 0.56183 0.0
C1357 C 0.04687 0.80448 0.59339 0.0
C1358 C 0.09362 0.79527 0.55721 0.0
C1359 C 0.06723 0.84825 0.55922 0.0
C1360 C 0.04923 0.86095 0.53507 0.0
C1361 C 0.05318 0.89193 0.52518 0.0
C1362 C 0.07619 0.9102 0.54018 0.0
C1363 C 0.09458 0.89748 0.56494 0.0
C1364 C 0.08954 0.86646 0.57505 0.0
H1365 H 0.66948 0.10723 0.60933 0.0
H1366 H 0.58542 0.08026 0.55839 0.0
H1367 H 0.61601 0.04235 0.52688 0.0
H1368 H 0.71425 0.11206 0.54227 0.0
H1369 H 0.75053 0.09891 0.5599 0.0
H1370 H 0.72115 0.11727 0.58407 0.0
H1371 H 0.72077 0.06862 0.62096 0.0
H1372 H 0.75005 0.04997 0.59655 0.0
H1373 H 0.71343 0.03031 0.60448 0.0
H1374 H 0.65596 0.01246 0.49667 0.0
H1375 H 0.70248 0.99908 0.46473 0.0
H1376 H 0.7613 0.05054 0.53084 0.0
C1377 C 0.65754 0.09238 0.59234 0.0
C1378 C 0.62507 0.09564 0.58689 0.0
C1379 C 0.61023 0.07734 0.56332 0.0
C1380 C 0.62737 0.05567 0.54546 0.0
C1381 C 0.65956 0.05324 0.55087 0.0
C1382 C 0.67463 0.07147 0.5734 0.0
C1383 C 0.70996 0.06888 0.57028 0.0
C1384 C 0.72482 0.10118 0.56372 0.0
C1385 C 0.7244 0.05352 0.59983 0.0
C1386 C 0.71231 0.04739 0.54179 0.0
C1387 C 0.68302 0.03773 0.53169 0.0
C1388 C 0.67908 0.01964 0.50449 0.0
C1389 C 0.70565 0.01233 0.48636 0.0
C1390 C 0.73569 0.0238 0.49505 0.0
C1391 C 0.73898 0.0406 0.5238 0.0
H1392 H 0.73654 0.31914 0.07272 0.0
H1393 H 0.80124 0.32423 0.1523 0.0
H1394 H 0.78449 0.27159 0.16911 0.0
H1395 H 0.67477 0.27303 0.11159 0.0
H1396 H 0.66704 0.25064 0.07624 0.0
H1397 H 0.68056 0.29058 0.0732 0.0
H1398 H 0.72726 0.27246 0.03833 0.0
H1399 H 0.71376 0.23265 0.04105 0.0
H1400 H 0.75328 0.24232 0.05287 0.0
H1401 H 0.76425 0.21539 0.17421 0.0
H1402 H 0.74517 0.16107 0.16441 0.0
H1403 H 0.69621 0.19309 0.08071 0.0
C1404 C 0.74725 0.30967 0.09383 0.0
C1405 C 0.77051 0.3264 0.1109 0.0
C1406 C 0.78331 0.31246 0.13864 0.0
C1407 C 0.77387 0.28238 0.14851 0.0
C1408 C 0.75147 0.26642 0.13058 0.0
C1409 C 0.73838 0.2797 0.10379 0.0
C1410 C 0.71702 0.25686 0.08678 0.0
C1411 C 0.68282 0.26848 0.08698 0.0
C1412 C 0.72854 0.25071 0.05278 0.0
C1413 C 0.72097 0.22823 0.10754 0.0
C1414 C 0.74034 0.23425 0.13314 0.0
C1415 C 0.74869 0.2106 0.15451 0.0
C1416 C 0.73768 0.17993 0.14898 0.0
C1417 C 0.71904 0.17332 0.1221 0.0
C1418 C 0.71006 0.1979 0.10168 0.0
H1419 H 0.17333 0.72588 0.11981 0.0
H1420 H 0.18103 0.81117 0.17521 0.0
H1421 H 0.23523 0.79657 0.19008 0.0
H1422 H 0.22625 0.67514 0.16935 0.0
H1423 H 0.24242 0.6567 0.13459 0.0
H1424 H 0.20223 0.67008 0.13454 0.0
H1425 H 0.21335 0.70355 0.08453 0.0
H1426 H 0.25335 0.6902 0.0845 0.0
H1427 H 0.24497 0.73166 0.0853 0.0
H1428 H 0.29149 0.77737 0.1911 0.0
H1429 H 0.34396 0.75624 0.17658 0.0
H1430 H 0.29976 0.68522 0.11891 0.0
C1431 C 0.18611 0.74126 0.13558 0.0
C1432 C 0.17278 0.76976 0.14622 0.0
C1433 C 0.19041 0.78903 0.16702 0.0
C1434 C 0.22132 0.78092 0.17557 0.0
C1435 C 0.23418 0.75331 0.16341 0.0
C1436 C 0.21695 0.73368 0.14399 0.0
C1437 C 0.23708 0.7076 0.13057 0.0
C1438 C 0.22635 0.67547 0.14302 0.0
C1439 C 0.2372 0.70834 0.09408 0.0
C1440 C 0.26874 0.71649 0.14412 0.0
C1441 C 0.26657 0.74244 0.1637 0.0
C1442 C 0.29332 0.7566 0.17649 0.0
C1443 C 0.32295 0.74449 0.16832 0.0
C1444 C 0.32542 0.7188 0.14738 0.0
C1445 C 0.29806 0.70425 0.1358 0.0
H1446 H 0.69141 0.29855 0.39254 0.0
H1447 H 0.77709 0.34159 0.35974 0.0
H1448 H 0.79743 0.28959 0.34341 0.0
H1449 H 0.72622 0.2404 0.43058 0.0
H1450 H 0.69781 0.21 0.42286 0.0
H1451 H 0.68587 0.25033 0.42217 0.0
H1452 H 0.6646 0.24368 0.36506 0.0
H1453 H 0.67628 0.20301 0.36564 0.0
H1454 H 0.69001 0.22852 0.33457 0.0
H1455 H 0.81265 0.23332 0.34154 0.0
H1456 H 0.82275 0.17842 0.35728 0.0
H1457 H 0.72795 0.17132 0.39345 0.0
C1458 C 0.71363 0.2969 0.38021 0.0
C1459 C 0.73242 0.32372 0.37626 0.0
C1460 C 0.76223 0.3211 0.36195 0.0
C1461 C 0.77383 0.29173 0.35263 0.0
C1462 C 0.75531 0.26528 0.35807 0.0
C1463 C 0.7257 0.26763 0.37144 0.0
C1464 C 0.71305 0.23569 0.3805 0.0
C1465 C 0.70532 0.23404 0.41612 0.0
C1466 C 0.68428 0.22723 0.36022 0.0
C1467 C 0.74093 0.21528 0.37216 0.0
C1468 C 0.76465 0.23255 0.35822 0.0
C1469 C 0.79395 0.21938 0.35166 0.0
C1470 C 0.7995 0.18814 0.36058 0.0
C1471 C 0.77605 0.17071 0.37645 0.0
C1472 C 0.74612 0.18416 0.38112 0.0
H1473 H 0.3245 0.74361 0.4085 0.0
H1474 H 0.3106 0.84069 0.38103 0.0
H1475 H 0.25357 0.83085 0.37553 0.0
H1476 H 0.2653 0.70933 0.35595 0.0
H1477 H 0.25341 0.68057 0.38483 0.0
H1478 H 0.29328 0.69477 0.38448 0.0
H1479 H 0.28832 0.71129 0.44334 0.0
H1480 H 0.24866 0.69681 0.44391 0.0
H1481 H 0.25664 0.73683 0.45508 0.0
H1482 H 0.19766 0.81113 0.3767 0.0
H1483 H 0.14736 0.78393 0.38784 0.0
H1484 H 0.19808 0.69966 0.41275 0.0
C1485 C 0.30963 0.76271 0.40072 0.0
C1486 C 0.32213 0.79291 0.39494 0.0
C1487 C 0.30159 0.81743 0.38575 0.0
C1488 C 0.26921 0.81197 0.38226 0.0
C1489 C 0.25776 0.78183 0.38796 0.0
C1490 C 0.27738 0.75765 0.39714 0.0
C1491 C 0.25908 0.72794 0.40394 0.0
C1492 C 0.26832 0.7016 0.38092 0.0
C1493 C 0.26342 0.71763 0.43862 0.0
C1494 C 0.22594 0.73927 0.39769 0.0
C1495 C 0.22567 0.77035 0.38818 0.0
C1496 C 0.19764 0.78665 0.38348 0.0
C1497 C 0.16925 0.77108 0.38959 0.0
C1498 C 0.16916 0.7396 0.40001 0.0
C1499 C 0.19777 0.72334 0.40348 0.0
H1500 H 0.30289 0.81231 0.90065 0.0
H1501 H 0.21653 0.85513 0.86889 0.0
H1502 H 0.19516 0.80278 0.85517 0.0
H1503 H 0.30212 0.74088 0.84504 0.0
H1504 H 0.31668 0.71608 0.87637 0.0
H1505 H 0.32843 0.75667 0.87447 0.0
H1506 H 0.30881 0.76481 0.93192 0.0
H1507 H 0.29676 0.72456 0.93391 0.0
H1508 H 0.26869 0.75529 0.9416 0.0
H1509 H 0.17971 0.74632 0.85502 0.0
H1510 H 0.17036 0.6914 0.87131 0.0
H1511 H 0.2661 0.68505 0.90546 0.0
C1512 C 0.28023 0.81048 0.88913 0.0
C1513 C 0.26159 0.83737 0.88466 0.0
C1514 C 0.23125 0.83456 0.87144 0.0
C1515 C 0.21907 0.805 0.86363 0.0
C1516 C 0.23753 0.77855 0.86946 0.0
C1517 C 0.2676 0.78105 0.88183 0.0
C1518 C 0.28042 0.74929 0.89134 0.0
C1519 C 0.30858 0.74019 0.87055 0.0
C1520 C 0.28915 0.74846 0.92678 0.0
C1521 C 0.25226 0.72882 0.88425 0.0
C1522 C 0.22811 0.74588 0.87068 0.0
C1523 C 0.1987 0.73256 0.86492 0.0
C1524 C 0.19358 0.70133 0.87416 0.0
C1525 C 0.21756 0.68409 0.88955 0.0
C1526 C 0.24748 0.69776 0.89359 0.0
H1527 H 0.82226 0.20896 0.92968 0.0
H1528 H 0.84915 0.27463 0.85578 0.0
H1529 H 0.79725 0.29923 0.85863 0.0
H1530 H 0.74274 0.19819 0.90118 0.0
H1531 H 0.72598 0.19525 0.94023 0.0
H1532 H 0.76595 0.18309 0.93353 0.0
H1533 H 0.78489 0.22088 0.97756 0.0
H1534 H 0.74497 0.23314 0.98429 0.0
H1535 H 0.77468 0.26189 0.97537 0.0
H1536 H 0.74341 0.31807 0.86993 0.0
H1537 H 0.6882 0.32649 0.88558 0.0
H1538 H 0.69409 0.24722 0.9497 0.0
C1539 C 0.81725 0.22833 0.91392 0.0
C1540 C 0.84034 0.24012 0.89295 0.0
C1541 C 0.83249 0.26559 0.87276 0.0
C1542 C 0.80288 0.27971 0.87402 0.0
C1543 C 0.78102 0.26795 0.89529 0.0
C1544 C 0.78754 0.24259 0.91459 0.0
C1545 C 0.7592 0.23405 0.93454 0.0
C1546 C 0.7478 0.20067 0.92689 0.0
C1547 C 0.76639 0.23773 0.97004 0.0
C1548 C 0.73588 0.25861 0.9233 0.0
C1549 C 0.74917 0.27812 0.90093 0.0
C1550 C 0.73263 0.30292 0.88735 0.0
C1551 C 0.70141 0.30768 0.89654 0.0
C1552 C 0.68699 0.28753 0.9188 0.0
C1553 C 0.70456 0.26279 0.93244 0.0
H1554 H 0.3158 0.71023 0.58378 0.0
H1555 H 0.26131 0.67019 0.65988 0.0
H1556 H 0.23768 0.7225 0.67071 0.0
H1557 H 0.32826 0.78975 0.62155 0.0
H1558 H 0.32526 0.80892 0.58363 0.0
H1559 H 0.34137 0.76988 0.58629 0.0
H1560 H 0.30045 0.75067 0.54517 0.0
H1561 H 0.28391 0.78936 0.54272 0.0
H1562 H 0.2592 0.75654 0.55281 0.0
H1563 H 0.21365 0.77754 0.66625 0.0
H1564 H 0.19396 0.82954 0.64917 0.0
H1565 H 0.26686 0.83335 0.57766 0.0
C1566 C 0.29979 0.71293 0.60348 0.0
C1567 C 0.29054 0.68663 0.62134 0.0
C1568 C 0.26901 0.69042 0.64648 0.0
C1569 C 0.25546 0.71995 0.65261 0.0
C1570 C 0.26424 0.74539 0.63369 0.0
C1571 C 0.28649 0.74218 0.61005 0.0
C1572 C 0.29022 0.77214 0.59129 0.0
C1573 C 0.32324 0.78599 0.59598 0.0
C1574 C 0.28299 0.76684 0.55593 0.0
C1575 C 0.26547 0.79233 0.60687 0.0
C1576 C 0.25089 0.77681 0.63152 0.0
C1577 C 0.22543 0.79012 0.64746 0.0
C1578 C 0.2144 0.81975 0.63762 0.0
C1579 C 0.22868 0.83565 0.61192 0.0
C1580 C 0.25508 0.82187 0.59713 0.0
H1581 H 0.80681 0.30828 0.59802 0.0
H1582 H 0.85344 0.24309 0.66075 0.0
H1583 H 0.80161 0.22193 0.67749 0.0
H1584 H 0.73508 0.32156 0.64956 0.0
H1585 H 0.71004 0.32413 0.6152 0.0
H1586 H 0.7502 0.33734 0.61305 0.0
H1587 H 0.7596 0.30032 0.56532 0.0
H1588 H 0.71973 0.28678 0.56755 0.0
H1589 H 0.75161 0.25899 0.5695 0.0
H1590 H 0.74521 0.20208 0.6793 0.0
H1591 H 0.69025 0.1871 0.66823 0.0
H1592 H 0.68058 0.26817 0.60682 0.0
C1593 C 0.80581 0.29038 0.61618 0.0
C1594 C 0.83366 0.27743 0.62855 0.0
C1595 C 0.83206 0.25351 0.65162 0.0
C1596 C 0.8028 0.24141 0.66111 0.0
C1597 C 0.77556 0.25404 0.64765 0.0
C1598 C 0.77689 0.2785 0.62614 0.0
C1599 C 0.74473 0.28628 0.61303 0.0
C1600 C 0.7344 0.31929 0.62334 0.0
C1601 C 0.7439 0.28286 0.57672 0.0
C1602 C 0.72528 0.26128 0.62908 0.0
C1603 C 0.74325 0.24309 0.64927 0.0
C1604 C 0.73078 0.21668 0.66418 0.0
C1605 C 0.69941 0.20837 0.65779 0.0
C1606 C 0.68089 0.22634 0.63652 0.0
C1607 C 0.69397 0.25368 0.62296 0.0
loop_
_geom_bond_atom_site_label_1
_geom_bond_atom_site_label_2
_geom_bond_distance
_geom_bond_site_symmetry_2
_ccdc_geom_bond_type
Co0 N4 2.148 . S
Co0 N10 2.128 . S
Co0 N20 2.194 . S
Co0 O25 2.351 . S
Co0 O26 2.155 . S
Co0 O27 2.096 . S
C1 N4 1.301 . S
C1 N5 1.328 . S
C1 H6 0.930 . S
C2 C3 1.333 . S
C2 N4 1.317 . S
C2 H7 0.930 . S
C3 C2 1.333 . S
C3 N5 1.350 . S
C3 H29 0.931 1_545 S
N4 Co0 2.148 . S
N4 C1 1.301 . S
N4 C2 1.317 . S
N5 C1 1.328 . S
N5 C3 1.350 . S
H6 C1 0.930 . S
H7 C2 0.930 . S
C8 O9 1.224 . S
C8 O27 1.247 . S
O9 C8 1.224 . S
N10 Co0 2.128 . S
N10 C11 1.355 . S
N10 C13 1.311 . S
C11 N10 1.355 . S
C11 C12 1.363 . S
C11 H23 0.929 . S
C12 C11 1.363 . S
C12 N14 1.375 . S
C12 H30 0.931 . S
C13 N10 1.311 . S
C13 N14 1.347 . S
C13 H24 0.929 . S
N14 C12 1.375 . S
N14 C13 1.347 . S
C15 C18 1.365 . S
C15 N20 1.328 . S
C15 H21 0.929 . S
C16 C17 1.362 . S
C16 C19 1.378 . S
C16 H31 0.929 . S
C17 C16 1.362 . S
C17 C18 1.366 . S
C18 C15 1.365 . S
C18 C17 1.366 . S
C18 H32 0.930 . S
C19 C16 1.378 . S
C19 N20 1.315 . S
C19 H22 0.930 . S
N20 Co0 2.194 . S
N20 C15 1.328 . S
N20 C19 1.315 . S
H21 C15 0.929 . S
H22 C19 0.930 . S
H23 C11 0.929 . S
H24 C13 0.929 . S
O25 Co0 2.351 . S
O25 C28 1.244 . S
O26 Co0 2.155 . S
O26 C28 1.240 . S
O27 Co0 2.096 . S
O27 C8 1.247 . S
C28 O25 1.244 . S
C28 O26 1.240 . S
H29 C3 0.931 1_565 S
H30 C12 0.931 . S
H31 C16 0.929 . S
H32 C18 0.930 . S
Co33 N37 2.148 . S
Co33 N43 2.128 . S
Co33 N53 2.194 . S
Co33 O58 2.351 . S
Co33 O59 2.155 . S
Co33 O60 2.096 . S
C34 N37 1.301 . S
C34 N38 1.328 . S
C34 H39 0.930 . S
C35 C36 1.333 . S
C35 N37 1.317 . S
C35 H40 0.930 . S
C36 C35 1.333 . S
C36 N38 1.350 . S
C36 H62 0.931 . S
N37 Co33 2.148 . S
N37 C34 1.301 . S
N37 C35 1.317 . S
N38 C34 1.328 . S
N38 C36 1.350 . S
H39 C34 0.930 . S
H40 C35 0.930 . S
C41 O42 1.224 . S
C41 O60 1.247 . S
O42 C41 1.224 . S
N43 Co33 2.128 . S
N43 C44 1.355 . S
N43 C46 1.311 . S
C44 N43 1.355 . S
C44 C45 1.363 . S
C44 H56 0.929 . S
C45 C44 1.363 . S
C45 N47 1.375 . S
C45 H63 0.931 . S
C46 N43 1.311 . S
C46 N47 1.347 . S
C46 H57 0.929 . S
N47 C45 1.375 . S
N47 C46 1.347 . S
C48 C51 1.365 . S
C48 N53 1.328 . S
C48 H54 0.929 . S
C49 C50 1.362 . S
C49 C52 1.378 . S
C49 H64 0.929 . S
C50 C49 1.362 . S
C50 C51 1.366 . S
C51 C48 1.365 . S
C51 C50 1.366 . S
C51 H65 0.930 . S
C52 C49 1.378 . S
C52 N53 1.315 . S
C52 H55 0.930 . S
N53 Co33 2.194 . S
N53 C48 1.328 . S
N53 C52 1.315 . S
H54 C48 0.929 . S
H55 C52 0.930 . S
H56 C44 0.929 . S
H57 C46 0.929 . S
O58 Co33 2.351 . S
O58 C61 1.244 . S
O59 Co33 2.155 . S
O59 C61 1.240 . S
O60 Co33 2.096 . S
O60 C41 1.247 . S
C61 O58 1.244 . S
C61 O59 1.240 . S
H62 C36 0.931 . S
H63 C45 0.931 . S
H64 C49 0.929 . S
H65 C51 0.930 . S
Co66 N70 2.148 . S
Co66 N76 2.128 . S
Co66 N86 2.194 . S
Co66 O91 2.351 . S
Co66 O92 2.155 . S
Co66 O93 2.096 . S
C67 N70 1.301 . S
C67 N71 1.328 . S
C67 H72 0.930 . S
C68 C69 1.333 . S
C68 N70 1.317 . S
C68 H73 0.930 . S
C69 C68 1.333 . S
C69 N71 1.350 . S
C69 H95 0.931 . S
N70 Co66 2.148 . S
N70 C67 1.301 . S
N70 C68 1.317 . S
N71 C67 1.328 . S
N71 C69 1.350 . S
H72 C67 0.930 . S
H73 C68 0.930 . S
C74 O75 1.224 . S
C74 O93 1.247 . S
O75 C74 1.224 . S
N76 Co66 2.128 . S
N76 C77 1.355 . S
N76 C79 1.311 . S
C77 N76 1.355 . S
C77 C78 1.363 . S
C77 H89 0.929 . S
C78 C77 1.363 . S
C78 N80 1.375 . S
C78 H96 0.931 . S
C79 N76 1.311 . S
C79 N80 1.347 . S
C79 H90 0.929 . S
N80 C78 1.375 . S
N80 C79 1.347 . S
C81 C84 1.365 . S
C81 N86 1.328 . S
C81 H87 0.929 . S
C82 C83 1.362 . S
C82 C85 1.378 . S
C82 H97 0.929 . S
C83 C82 1.362 . S
C83 C84 1.366 . S
C84 C81 1.365 . S
C84 C83 1.366 . S
C84 H98 0.930 . S
C85 C82 1.378 . S
C85 N86 1.315 . S
C85 H88 0.930 . S
N86 Co66 2.194 . S
N86 C81 1.328 . S
N86 C85 1.315 . S
H87 C81 0.929 . S
H88 C85 0.930 . S
H89 C77 0.929 . S
H90 C79 0.929 . S
O91 Co66 2.351 . S
O91 C94 1.244 . S
O92 Co66 2.155 . S
O92 C94 1.240 . S
O93 Co66 2.096 . S
O93 C74 1.247 . S
C94 O91 1.244 . S
C94 O92 1.240 . S
H95 C69 0.931 . S
H96 C78 0.931 . S
H97 C82 0.929 . S
H98 C84 0.930 . S
Co99 N103 2.148 . S
Co99 N109 2.128 . S
Co99 N119 2.194 . S
Co99 O124 2.351 . S
Co99 O125 2.155 . S
Co99 O126 2.096 . S
C100 N103 1.301 . S
C100 N104 1.328 . S
C100 H105 0.930 . S
C101 C102 1.333 . S
C101 N103 1.317 . S
C101 H106 0.930 . S
C102 C101 1.333 . S
C102 N104 1.350 . S
C102 H128 0.931 1_455 S
N103 Co99 2.148 . S
N103 C100 1.301 . S
N103 C101 1.317 . S
N104 C100 1.328 . S
N104 C102 1.350 . S
H105 C100 0.930 . S
H106 C101 0.930 . S
C107 O108 1.224 . S
C107 O126 1.247 . S
O108 C107 1.224 . S
N109 Co99 2.128 . S
N109 C110 1.355 . S
N109 C112 1.311 . S
C110 N109 1.355 . S
C110 C111 1.363 . S
C110 H122 0.929 . S
C111 C110 1.363 . S
C111 N113 1.375 . S
C111 H129 0.931 . S
C112 N109 1.311 . S
C112 N113 1.347 . S
C112 H123 0.929 . S
N113 C111 1.375 . S
N113 C112 1.347 . S
C114 C117 1.365 . S
C114 N119 1.328 . S
C114 H120 0.929 . S
C115 C116 1.362 . S
C115 C118 1.378 . S
C115 H130 0.929 . S
C116 C115 1.362 . S
C116 C117 1.366 . S
C117 C114 1.365 . S
C117 C116 1.366 . S
C117 H131 0.930 . S
C118 C115 1.378 . S
C118 N119 1.315 . S
C118 H121 0.930 . S
N119 Co99 2.194 . S
N119 C114 1.328 . S
N119 C118 1.315 . S
H120 C114 0.929 . S
H121 C118 0.930 . S
H122 C110 0.929 . S
H123 C112 0.929 . S
O124 Co99 2.351 . S
O124 C127 1.244 . S
O125 Co99 2.155 . S
O125 C127 1.240 . S
O126 Co99 2.096 . S
O126 C107 1.247 . S
C127 O124 1.244 . S
C127 O125 1.240 . S
H128 C102 0.931 1_655 S
H129 C111 0.931 . S
H130 C115 0.929 . S
H131 C117 0.930 . S
Co132 N136 2.148 . S
Co132 N142 2.128 . S
Co132 N152 2.194 . S
Co132 O157 2.351 . S
Co132 O158 2.155 . S
Co132 O159 2.096 . S
C133 N136 1.301 . S
C133 N137 1.328 . S
C133 H138 0.930 . S
C134 C135 1.333 . S
C134 N136 1.317 . S
C134 H139 0.930 . S
C135 C134 1.333 . S
C135 N137 1.350 . S
C135 H161 0.931 . S
N136 Co132 2.148 . S
N136 C133 1.301 . S
N136 C134 1.317 . S
N137 C133 1.328 . S
N137 C135 1.350 . S
H138 C133 0.930 . S
H139 C134 0.930 . S
C140 O141 1.224 . S
C140 O159 1.247 . S
O141 C140 1.224 . S
N142 Co132 2.128 . S
N142 C143 1.355 . S
N142 C145 1.311 . S
C143 N142 1.355 . S
C143 C144 1.363 . S
C143 H155 0.929 . S
C144 C143 1.363 . S
C144 N146 1.375 . S
C144 H162 0.931 . S
C145 N142 1.311 . S
C145 N146 1.347 . S
C145 H156 0.929 . S
N146 C144 1.375 . S
N146 C145 1.347 . S
C147 C150 1.365 . S
C147 N152 1.328 . S
C147 H153 0.929 . S
C148 C149 1.362 . S
C148 C151 1.378 . S
C148 H163 0.929 . S
C149 C148 1.362 . S
C149 C150 1.366 . S
C150 C147 1.365 . S
C150 C149 1.366 . S
C150 H164 0.930 . S
C151 C148 1.378 . S
C151 N152 1.315 . S
C151 H154 0.930 . S
N152 Co132 2.194 . S
N152 C147 1.328 . S
N152 C151 1.315 . S
H153 C147 0.929 . S
H154 C151 0.930 . S
H155 C143 0.929 . S
H156 C145 0.929 . S
O157 Co132 2.351 . S
O157 C160 1.244 . S
O158 Co132 2.155 . S
O158 C160 1.240 . S
O159 Co132 2.096 . S
O159 C140 1.247 . S
C160 O157 1.244 . S
C160 O158 1.240 . S
H161 C135 0.931 . S
H162 C144 0.931 . S
H163 C148 0.929 . S
H164 C150 0.930 . S
Co165 N169 2.148 . S
Co165 N175 2.128 . S
Co165 N185 2.194 . S
Co165 O190 2.351 . S
Co165 O191 2.155 . S
Co165 O192 2.096 . S
C166 N169 1.301 . S
C166 N170 1.328 . S
C166 H171 0.930 . S
C167 C168 1.333 . S
C167 N169 1.317 . S
C167 H172 0.930 . S
C168 C167 1.333 . S
C168 N170 1.350 . S
C168 H194 0.931 1_455 S
N169 Co165 2.148 . S
N169 C166 1.301 . S
N169 C167 1.317 . S
N170 C166 1.328 . S
N170 C168 1.350 . S
H171 C166 0.930 . S
H172 C167 0.930 . S
C173 O174 1.224 . S
C173 O192 1.247 . S
O174 C173 1.224 . S
N175 Co165 2.128 . S
N175 C176 1.355 . S
N175 C178 1.311 . S
C176 N175 1.355 . S
C176 C177 1.363 . S
C176 H188 0.929 . S
C177 C176 1.363 . S
C177 N179 1.375 . S
C177 H195 0.931 . S
C178 N175 1.311 . S
C178 N179 1.347 . S
C178 H189 0.929 . S
N179 C177 1.375 . S
N179 C178 1.347 . S
C180 C183 1.365 . S
C180 N185 1.328 . S
C180 H186 0.929 . S
C181 C182 1.362 . S
C181 C184 1.378 . S
C181 H196 0.929 . S
C182 C181 1.362 . S
C182 C183 1.366 . S
C183 C180 1.365 . S
C183 C182 1.366 . S
C183 H197 0.930 . S
C184 C181 1.378 . S
C184 N185 1.315 . S
C184 H187 0.930 . S
N185 Co165 2.194 . S
N185 C180 1.328 . S
N185 C184 1.315 . S
H186 C180 0.929 . S
H187 C184 0.930 . S
H188 C176 0.929 . S
H189 C178 0.929 . S
O190 Co165 2.351 . S
O190 C193 1.244 . S
O191 Co165 2.155 . S
O191 C193 1.240 . S
O192 Co165 2.096 . S
O192 C173 1.247 . S
C193 O190 1.244 . S
C193 O191 1.240 . S
H194 C168 0.931 1_655 S
H195 C177 0.931 . S
H196 C181 0.929 . S
H197 C183 0.930 . S
Co198 N202 2.148 . S
Co198 N208 2.128 . S
Co198 N218 2.194 . S
Co198 O223 2.351 . S
Co198 O224 2.155 . S
Co198 O225 2.096 . S
C199 N202 1.301 . S
C199 N203 1.328 . S
C199 H204 0.930 . S
C200 C201 1.333 . S
C200 N202 1.317 . S
C200 H205 0.930 . S
C201 C200 1.333 . S
C201 N203 1.350 . S
C201 H227 0.931 1_545 S
N202 Co198 2.148 . S
N202 C199 1.301 . S
N202 C200 1.317 . S
N203 C199 1.328 . S
N203 C201 1.350 . S
H204 C199 0.930 . S
H205 C200 0.930 . S
C206 O207 1.224 . S
C206 O225 1.247 . S
O207 C206 1.224 . S
N208 Co198 2.128 . S
N208 C209 1.355 . S
N208 C211 1.311 . S
C209 N208 1.355 . S
C209 C210 1.363 . S
C209 H221 0.929 . S
C210 C209 1.363 . S
C210 N212 1.375 . S
C210 H228 0.931 . S
C211 N208 1.311 . S
C211 N212 1.347 . S
C211 H222 0.929 . S
N212 C210 1.375 . S
N212 C211 1.347 . S
C213 C216 1.365 . S
C213 N218 1.328 . S
C213 H219 0.929 . S
C214 C215 1.362 . S
C214 C217 1.378 . S
C214 H229 0.929 . S
C215 C214 1.362 . S
C215 C216 1.366 . S
C216 C213 1.365 . S
C216 C215 1.366 . S
C216 H230 0.930 . S
C217 C214 1.378 . S
C217 N218 1.315 . S
C217 H220 0.930 . S
N218 Co198 2.194 . S
N218 C213 1.328 . S
N218 C217 1.315 . S
H219 C213 0.929 . S
H220 C217 0.930 . S
H221 C209 0.929 . S
H222 C211 0.929 . S
O223 Co198 2.351 . S
O223 C226 1.244 . S
O224 Co198 2.155 . S
O224 C226 1.240 . S
O225 Co198 2.096 . S
O225 C206 1.247 . S
C226 O223 1.244 . S
C226 O224 1.240 . S
H227 C201 0.931 1_565 S
H228 C210 0.931 . S
H229 C214 0.929 . S
H230 C216 0.930 . S
Co231 N235 2.148 . S
Co231 N241 2.128 . S
Co231 N251 2.194 . S
Co231 O256 2.351 . S
Co231 O257 2.155 . S
Co231 O258 2.096 . S
C232 N235 1.301 . S
C232 N236 1.328 . S
C232 H237 0.930 . S
C233 C234 1.333 . S
C233 N235 1.317 . S
C233 H238 0.930 . S
C234 C233 1.333 . S
C234 N236 1.350 . S
C234 H260 0.931 . S
N235 Co231 2.148 . S
N235 C232 1.301 . S
N235 C233 1.317 . S
N236 C232 1.328 . S
N236 C234 1.350 . S
H237 C232 0.930 . S
H238 C233 0.930 . S
C239 O240 1.224 . S
C239 O258 1.247 . S
O240 C239 1.224 . S
N241 Co231 2.128 . S
N241 C242 1.355 . S
N241 C244 1.311 . S
C242 N241 1.355 . S
C242 C243 1.363 . S
C242 H254 0.929 . S
C243 C242 1.363 . S
C243 N245 1.375 . S
C243 H261 0.931 . S
C244 N241 1.311 . S
C244 N245 1.347 . S
C244 H255 0.929 . S
N245 C243 1.375 . S
N245 C244 1.347 . S
C246 C249 1.365 . S
C246 N251 1.328 . S
C246 H252 0.929 . S
C247 C248 1.362 . S
C247 C250 1.378 . S
C247 H262 0.929 . S
C248 C247 1.362 . S
C248 C249 1.366 . S
C249 C246 1.365 . S
C249 C248 1.366 . S
C249 H263 0.930 . S
C250 C247 1.378 . S
C250 N251 1.315 . S
C250 H253 0.930 . S
N251 Co231 2.194 . S
N251 C246 1.328 . S
N251 C250 1.315 . S
H252 C246 0.929 . S
H253 C250 0.930 . S
H254 C242 0.929 . S
H255 C244 0.929 . S
O256 Co231 2.351 . S
O256 C259 1.244 . S
O257 Co231 2.155 . S
O257 C259 1.240 . S
O258 Co231 2.096 . S
O258 C239 1.247 . S
C259 O256 1.244 . S
C259 O257 1.240 . S
H260 C234 0.931 . S
H261 C243 0.931 . S
H262 C247 0.929 . S
H263 C249 0.930 . S
Co264 N268 2.148 . S
Co264 N274 2.128 . S
Co264 N284 2.194 . S
Co264 O289 2.351 . S
Co264 O290 2.155 . S
Co264 O291 2.096 . S
C265 N268 1.301 . S
C265 N269 1.328 . S
C265 H270 0.930 . S
C266 C267 1.333 . S
C266 N268 1.317 . S
C266 H271 0.930 . S
C267 C266 1.333 . S
C267 N269 1.350 . S
C267 H293 0.931 1_565 S
N268 Co264 2.148 . S
N268 C265 1.301 . S
N268 C266 1.317 . S
N269 C265 1.328 . S
N269 C267 1.350 . S
H270 C265 0.930 . S
H271 C266 0.930 . S
C272 O273 1.224 . S
C272 O291 1.247 . S
O273 C272 1.224 . S
N274 Co264 2.128 . S
N274 C275 1.355 . S
N274 C277 1.311 . S
C275 N274 1.355 . S
C275 C276 1.363 . S
C275 H287 0.929 . S
C276 C275 1.363 . S
C276 N278 1.375 . S
C276 H294 0.931 . S
C277 N274 1.311 . S
C277 N278 1.347 . S
C277 H288 0.929 . S
N278 C276 1.375 . S
N278 C277 1.347 . S
C279 C282 1.365 . S
C279 N284 1.328 . S
C279 H285 0.929 . S
C280 C281 1.362 . S
C280 C283 1.378 . S
C280 H295 0.929 . S
C281 C280 1.362 . S
C281 C282 1.366 . S
C282 C279 1.365 . S
C282 C281 1.366 . S
C282 H296 0.930 . S
C283 C280 1.378 . S
C283 N284 1.315 . S
C283 H286 0.930 . S
N284 Co264 2.194 . S
N284 C279 1.328 . S
N284 C283 1.315 . S
H285 C279 0.929 . S
H286 C283 0.930 . S
H287 C275 0.929 . S
H288 C277 0.929 . S
O289 Co264 2.351 . S
O289 C292 1.244 . S
O290 Co264 2.155 . S
O290 C292 1.240 . S
O291 Co264 2.096 . S
O291 C272 1.247 . S
C292 O289 1.244 . S
C292 O290 1.240 . S
H293 C267 0.931 1_545 S
H294 C276 0.931 . S
H295 C280 0.929 . S
H296 C282 0.930 . S
Co297 N301 2.148 . S
Co297 N307 2.128 . S
Co297 N317 2.194 . S
Co297 O322 2.351 . S
Co297 O323 2.155 . S
Co297 O324 2.096 . S
C298 N301 1.301 . S
C298 N302 1.328 . S
C298 H303 0.930 . S
C299 C300 1.333 . S
C299 N301 1.317 . S
C299 H304 0.930 . S
C300 C299 1.333 . S
C300 N302 1.350 . S
C300 H326 0.931 . S
N301 Co297 2.148 . S
N301 C298 1.301 . S
N301 C299 1.317 . S
N302 C298 1.328 . S
N302 C300 1.350 . S
H303 C298 0.930 . S
H304 C299 0.930 . S
C305 O306 1.224 . S
C305 O324 1.247 . S
O306 C305 1.224 . S
N307 Co297 2.128 . S
N307 C308 1.355 . S
N307 C310 1.311 . S
C308 N307 1.355 . S
C308 C309 1.363 . S
C308 H320 0.929 . S
C309 C308 1.363 . S
C309 N311 1.375 . S
C309 H327 0.931 . S
C310 N307 1.311 . S
C310 N311 1.347 . S
C310 H321 0.929 . S
N311 C309 1.375 . S
N311 C310 1.347 . S
C312 C315 1.365 . S
C312 N317 1.328 . S
C312 H318 0.929 . S
C313 C314 1.362 . S
C313 C316 1.378 . S
C313 H328 0.929 . S
C314 C313 1.362 . S
C314 C315 1.366 . S
C315 C312 1.365 . S
C315 C314 1.366 . S
C315 H329 0.930 . S
C316 C313 1.378 . S
C316 N317 1.315 . S
C316 H319 0.930 . S
N317 Co297 2.194 . S
N317 C312 1.328 . S
N317 C316 1.315 . S
H318 C312 0.929 . S
H319 C316 0.930 . S
H320 C308 0.929 . S
H321 C310 0.929 . S
O322 Co297 2.351 . S
O322 C325 1.244 . S
O323 Co297 2.155 . S
O323 C325 1.240 . S
O324 Co297 2.096 . S
O324 C305 1.247 . S
C325 O322 1.244 . S
C325 O323 1.240 . S
H326 C300 0.931 . S
H327 C309 0.931 . S
H328 C313 0.929 . S
H329 C315 0.930 . S
Co330 N334 2.148 . S
Co330 N340 2.128 . S
Co330 N350 2.194 . S
Co330 O355 2.351 . S
Co330 O356 2.155 . S
Co330 O357 2.096 . S
C331 N334 1.301 . S
C331 N335 1.328 . S
C331 H336 0.930 . S
C332 C333 1.333 . S
C332 N334 1.317 . S
C332 H337 0.930 . S
C333 C332 1.333 . S
C333 N335 1.350 . S
C333 H359 0.931 . S
N334 Co330 2.148 . S
N334 C331 1.301 . S
N334 C332 1.317 . S
N335 C331 1.328 . S
N335 C333 1.350 . S
H336 C331 0.930 . S
H337 C332 0.930 . S
C338 O339 1.224 . S
C338 O357 1.247 . S
O339 C338 1.224 . S
N340 Co330 2.128 . S
N340 C341 1.355 . S
N340 C343 1.311 . S
C341 N340 1.355 . S
C341 C342 1.363 . S
C341 H353 0.929 . S
C342 C341 1.363 . S
C342 N344 1.375 . S
C342 H360 0.931 . S
C343 N340 1.311 . S
C343 N344 1.347 . S
C343 H354 0.929 . S
N344 C342 1.375 . S
N344 C343 1.347 . S
C345 C348 1.365 . S
C345 N350 1.328 . S
C345 H351 0.929 . S
C346 C347 1.362 . S
C346 C349 1.378 . S
C346 H361 0.929 . S
C347 C346 1.362 . S
C347 C348 1.366 . S
C348 C345 1.365 . S
C348 C347 1.366 . S
C348 H362 0.930 . S
C349 C346 1.378 . S
C349 N350 1.315 . S
C349 H352 0.930 . S
N350 Co330 2.194 . S
N350 C345 1.328 . S
N350 C349 1.315 . S
H351 C345 0.929 . S
H352 C349 0.930 . S
H353 C341 0.929 . S
H354 C343 0.929 . S
O355 Co330 2.351 . S
O355 C358 1.244 . S
O356 Co330 2.155 . S
O356 C358 1.240 . S
O357 Co330 2.096 . S
O357 C338 1.247 . S
C358 O355 1.244 . S
C358 O356 1.240 . S
H359 C333 0.931 . S
H360 C342 0.931 . S
H361 C346 0.929 . S
H362 C348 0.930 . S
Co363 N367 2.148 . S
Co363 N373 2.128 . S
Co363 N383 2.194 . S
Co363 O388 2.351 . S
Co363 O389 2.155 . S
Co363 O390 2.096 . S
C364 N367 1.301 . S
C364 N368 1.328 . S
C364 H369 0.930 . S
C365 C366 1.333 . S
C365 N367 1.317 . S
C365 H370 0.930 . S
C366 C365 1.333 . S
C366 N368 1.350 . S
C366 H392 0.931 1_655 S
N367 Co363 2.148 . S
N367 C364 1.301 . S
N367 C365 1.317 . S
N368 C364 1.328 . S
N368 C366 1.350 . S
H369 C364 0.930 . S
H370 C365 0.930 . S
C371 O372 1.224 . S
C371 O390 1.247 . S
O372 C371 1.224 . S
N373 Co363 2.128 . S
N373 C374 1.355 . S
N373 C376 1.311 . S
C374 N373 1.355 . S
C374 C375 1.363 . S
C374 H386 0.929 . S
C375 C374 1.363 . S
C375 N377 1.375 . S
C375 H393 0.931 . S
C376 N373 1.311 . S
C376 N377 1.347 . S
C376 H387 0.929 . S
N377 C375 1.375 . S
N377 C376 1.347 . S
C378 C381 1.365 . S
C378 N383 1.328 . S
C378 H384 0.929 . S
C379 C380 1.362 . S
C379 C382 1.378 . S
C379 H394 0.929 . S
C380 C379 1.362 . S
C380 C381 1.366 . S
C381 C378 1.365 . S
C381 C380 1.366 . S
C381 H395 0.930 . S
C382 C379 1.378 . S
C382 N383 1.315 . S
C382 H385 0.930 . S
N383 Co363 2.194 . S
N383 C378 1.328 . S
N383 C382 1.315 . S
H384 C378 0.929 . S
H385 C382 0.930 . S
H386 C374 0.929 . S
H387 C376 0.929 . S
O388 Co363 2.351 . S
O388 C391 1.244 . S
O389 Co363 2.155 . S
O389 C391 1.240 . S
O390 Co363 2.096 . S
O390 C371 1.247 . S
C391 O388 1.244 . S
C391 O389 1.240 . S
H392 C366 0.931 1_455 S
H393 C375 0.931 . S
H394 C379 0.929 . S
H395 C381 0.930 . S
Co396 N400 2.148 . S
Co396 N406 2.128 . S
Co396 N416 2.194 . S
Co396 O421 2.351 . S
Co396 O422 2.155 . S
Co396 O423 2.096 . S
C397 N400 1.301 . S
C397 N401 1.328 . S
C397 H402 0.930 . S
C398 C399 1.333 . S
C398 N400 1.317 . S
C398 H403 0.930 . S
C399 C398 1.333 . S
C399 N401 1.350 . S
C399 H425 0.931 . S
N400 Co396 2.148 . S
N400 C397 1.301 . S
N400 C398 1.317 . S
N401 C397 1.328 . S
N401 C399 1.350 . S
H402 C397 0.930 . S
H403 C398 0.930 . S
C404 O405 1.224 . S
C404 O423 1.247 . S
O405 C404 1.224 . S
N406 Co396 2.128 . S
N406 C407 1.355 . S
N406 C409 1.311 . S
C407 N406 1.355 . S
C407 C408 1.363 . S
C407 H419 0.929 . S
C408 C407 1.363 . S
C408 N410 1.375 . S
C408 H426 0.931 . S
C409 N406 1.311 . S
C409 N410 1.347 . S
C409 H420 0.929 . S
N410 C408 1.375 . S
N410 C409 1.347 . S
C411 C414 1.365 . S
C411 N416 1.328 . S
C411 H417 0.929 . S
C412 C413 1.362 . S
C412 C415 1.378 . S
C412 H427 0.929 . S
C413 C412 1.362 . S
C413 C414 1.366 . S
C414 C411 1.365 . S
C414 C413 1.366 . S
C414 H428 0.930 . S
C415 C412 1.378 . S
C415 N416 1.315 . S
C415 H418 0.930 . S
N416 Co396 2.194 . S
N416 C411 1.328 . S
N416 C415 1.315 . S
H417 C411 0.929 . S
H418 C415 0.930 . S
H419 C407 0.929 . S
H420 C409 0.929 . S
O421 Co396 2.351 . S
O421 C424 1.244 . S
O422 Co396 2.155 . S
O422 C424 1.240 . S
O423 Co396 2.096 . S
O423 C404 1.247 . S
C424 O421 1.244 . S
C424 O422 1.240 . S
H425 C399 0.931 . S
H426 C408 0.931 . S
H427 C412 0.929 . S
H428 C414 0.930 . S
Co429 N433 2.148 . S
Co429 N439 2.128 . S
Co429 N449 2.194 . S
Co429 O454 2.351 . S
Co429 O455 2.155 . S
Co429 O456 2.096 . S
C430 N433 1.301 . S
C430 N434 1.328 . S
C430 H435 0.930 . S
C431 C432 1.333 . S
C431 N433 1.317 . S
C431 H436 0.930 . S
C432 C431 1.333 . S
C432 N434 1.350 . S
C432 H458 0.931 1_655 S
N433 Co429 2.148 . S
N433 C430 1.301 . S
N433 C431 1.317 . S
N434 C430 1.328 . S
N434 C432 1.350 . S
H435 C430 0.930 . S
H436 C431 0.930 . S
C437 O438 1.224 . S
C437 O456 1.247 . S
O438 C437 1.224 . S
N439 Co429 2.128 . S
N439 C440 1.355 . S
N439 C442 1.311 . S
C440 N439 1.355 . S
C440 C441 1.363 . S
C440 H452 0.929 . S
C441 C440 1.363 . S
C441 N443 1.375 . S
C441 H459 0.931 . S
C442 N439 1.311 . S
C442 N443 1.347 . S
C442 H453 0.929 . S
N443 C441 1.375 . S
N443 C442 1.347 . S
C444 C447 1.365 . S
C444 N449 1.328 . S
C444 H450 0.929 . S
C445 C446 1.362 . S
C445 C448 1.378 . S
C445 H460 0.929 . S
C446 C445 1.362 . S
C446 C447 1.366 . S
C447 C444 1.365 . S
C447 C446 1.366 . S
C447 H461 0.930 . S
C448 C445 1.378 . S
C448 N449 1.315 . S
C448 H451 0.930 . S
N449 Co429 2.194 . S
N449 C444 1.328 . S
N449 C448 1.315 . S
H450 C444 0.929 . S
H451 C448 0.930 . S
H452 C440 0.929 . S
H453 C442 0.929 . S
O454 Co429 2.351 . S
O454 C457 1.244 . S
O455 Co429 2.155 . S
O455 C457 1.240 . S
O456 Co429 2.096 . S
O456 C437 1.247 . S
C457 O454 1.244 . S
C457 O455 1.240 . S
H458 C432 0.931 1_455 S
H459 C441 0.931 . S
H460 C445 0.929 . S
H461 C447 0.930 . S
Co462 N466 2.148 . S
Co462 N472 2.128 . S
Co462 N482 2.194 . S
Co462 O487 2.351 . S
Co462 O488 2.155 . S
Co462 O489 2.096 . S
C463 N466 1.301 . S
C463 N467 1.328 . S
C463 H468 0.930 . S
C464 C465 1.333 . S
C464 N466 1.317 . S
C464 H469 0.930 . S
C465 C464 1.333 . S
C465 N467 1.350 . S
C465 H491 0.931 1_565 S
N466 Co462 2.148 . S
N466 C463 1.301 . S
N466 C464 1.317 . S
N467 C463 1.328 . S
N467 C465 1.350 . S
H468 C463 0.930 . S
H469 C464 0.930 . S
C470 O471 1.224 . S
C470 O489 1.247 . S
O471 C470 1.224 . S
N472 Co462 2.128 . S
N472 C473 1.355 . S
N472 C475 1.311 . S
C473 N472 1.355 . S
C473 C474 1.363 . S
C473 H485 0.929 . S
C474 C473 1.363 . S
C474 N476 1.375 . S
C474 H492 0.931 . S
C475 N472 1.311 . S
C475 N476 1.347 . S
C475 H486 0.929 . S
N476 C474 1.375 . S
N476 C475 1.347 . S
C477 C480 1.365 . S
C477 N482 1.328 . S
C477 H483 0.929 . S
C478 C479 1.362 . S
C478 C481 1.378 . S
C478 H493 0.929 . S
C479 C478 1.362 . S
C479 C480 1.366 . S
C480 C477 1.365 . S
C480 C479 1.366 . S
C480 H494 0.930 . S
C481 C478 1.378 . S
C481 N482 1.315 . S
C481 H484 0.930 . S
N482 Co462 2.194 . S
N482 C477 1.328 . S
N482 C481 1.315 . S
H483 C477 0.929 . S
H484 C481 0.930 . S
H485 C473 0.929 . S
H486 C475 0.929 . S
O487 Co462 2.351 . S
O487 C490 1.244 . S
O488 Co462 2.155 . S
O488 C490 1.240 . S
O489 Co462 2.096 . S
O489 C470 1.247 . S
C490 O487 1.244 . S
C490 O488 1.240 . S
H491 C465 0.931 1_545 S
H492 C474 0.931 . S
H493 C478 0.929 . S
H494 C480 0.930 . S
Co495 N499 2.148 . S
Co495 N505 2.128 . S
Co495 N515 2.194 . S
Co495 O520 2.351 . S
Co495 O521 2.155 . S
Co495 O522 2.096 . S
C496 N499 1.301 . S
C496 N500 1.328 . S
C496 H501 0.930 . S
C497 C498 1.333 . S
C497 N499 1.317 . S
C497 H502 0.930 . S
C498 C497 1.333 . S
C498 N500 1.350 . S
C498 H524 0.931 . S
N499 Co495 2.148 . S
N499 C496 1.301 . S
N499 C497 1.317 . S
N500 C496 1.328 . S
N500 C498 1.350 . S
H501 C496 0.930 . S
H502 C497 0.930 . S
C503 O504 1.224 . S
C503 O522 1.247 . S
O504 C503 1.224 . S
N505 Co495 2.128 . S
N505 C506 1.355 . S
N505 C508 1.311 . S
C506 N505 1.355 . S
C506 C507 1.363 . S
C506 H518 0.929 . S
C507 C506 1.363 . S
C507 N509 1.375 . S
C507 H525 0.931 . S
C508 N505 1.311 . S
C508 N509 1.347 . S
C508 H519 0.929 . S
N509 C507 1.375 . S
N509 C508 1.347 . S
C510 C513 1.365 . S
C510 N515 1.328 . S
C510 H516 0.929 . S
C511 C512 1.362 . S
C511 C514 1.378 . S
C511 H526 0.929 . S
C512 C511 1.362 . S
C512 C513 1.366 . S
C513 C510 1.365 . S
C513 C512 1.366 . S
C513 H527 0.930 . S
C514 C511 1.378 . S
C514 N515 1.315 . S
C514 H517 0.930 . S
N515 Co495 2.194 . S
N515 C510 1.328 . S
N515 C514 1.315 . S
H516 C510 0.929 . S
H517 C514 0.930 . S
H518 C506 0.929 . S
H519 C508 0.929 . S
O520 Co495 2.351 . S
O520 C523 1.244 . S
O521 Co495 2.155 . S
O521 C523 1.240 . S
O522 Co495 2.096 . S
O522 C503 1.247 . S
C523 O520 1.244 . S
C523 O521 1.240 . S
H524 C498 0.931 . S
H525 C507 0.931 . S
H526 C511 0.929 . S
H527 C513 0.930 . S
H528 C540 0.930 . S
H529 C542 0.930 . S
H530 C543 0.930 . S
H531 C547 0.959 . S
H532 C547 0.959 . S
H533 C547 0.961 . S
H534 C548 0.960 . S
H535 C548 0.961 . S
H536 C548 0.959 . S
H537 C551 0.929 . S
H538 C552 0.931 . S
H539 C554 0.930 . S
C540 H528 0.930 . S
C540 C541 1.399 . S
C540 C545 1.399 . S
C541 C540 1.399 . S
C541 C542 1.376 . S
C542 H529 0.930 . S
C542 C541 1.376 . S
C542 C543 1.388 . S
C543 H530 0.930 . S
C543 C542 1.388 . S
C543 C544 1.390 . S
C544 C543 1.390 . S
C544 C545 1.394 . S
C544 C550 1.465 . S
C545 C540 1.399 . S
C545 C544 1.394 . S
C545 C546 1.516 . S
C546 C545 1.516 . S
C546 C547 1.502 . S
C546 C548 1.561 . S
C546 C549 1.526 . S
C547 H531 0.959 . S
C547 H532 0.959 . S
C547 H533 0.961 . S
C547 C546 1.502 . S
C548 H534 0.960 . S
C548 H535 0.961 . S
C548 H536 0.959 . S
C548 C546 1.561 . S
C549 C546 1.526 . S
C549 C550 1.396 . S
C549 C554 1.390 . S
C550 C544 1.465 . S
C550 C549 1.396 . S
C550 C551 1.399 . S
C551 H537 0.929 . S
C551 C550 1.399 . S
C551 C552 1.385 . S
C552 H538 0.931 . S
C552 C551 1.385 . S
C552 C553 1.389 . S
C553 C552 1.389 . S
C553 C554 1.387 . S
C554 H539 0.930 . S
C554 C549 1.390 . S
C554 C553 1.387 . S
H555 C567 0.930 . S
H556 C569 0.930 . S
H557 C570 0.930 . S
H558 C574 0.959 . S
H559 C574 0.959 . S
H560 C574 0.961 . S
H561 C575 0.960 . S
H562 C575 0.961 . S
H563 C575 0.959 . S
H564 C578 0.929 . S
H565 C579 0.931 . S
H566 C581 0.930 . S
C567 H555 0.930 . S
C567 C568 1.399 . S
C567 C572 1.399 . S
C568 C567 1.399 . S
C568 C569 1.376 . S
C569 H556 0.930 . S
C569 C568 1.376 . S
C569 C570 1.388 . S
C570 H557 0.930 . S
C570 C569 1.388 . S
C570 C571 1.390 . S
C571 C570 1.390 . S
C571 C572 1.394 . S
C571 C577 1.465 . S
C572 C567 1.399 . S
C572 C571 1.394 . S
C572 C573 1.516 . S
C573 C572 1.516 . S
C573 C574 1.502 . S
C573 C575 1.561 . S
C573 C576 1.526 . S
C574 H558 0.959 . S
C574 H559 0.959 . S
C574 H560 0.961 . S
C574 C573 1.502 . S
C575 H561 0.960 . S
C575 H562 0.961 . S
C575 H563 0.959 . S
C575 C573 1.561 . S
C576 C573 1.526 . S
C576 C577 1.396 . S
C576 C581 1.390 . S
C577 C571 1.465 . S
C577 C576 1.396 . S
C577 C578 1.399 . S
C578 H564 0.929 . S
C578 C577 1.399 . S
C578 C579 1.385 . S
C579 H565 0.931 . S
C579 C578 1.385 . S
C579 C580 1.389 . S
C580 C579 1.389 . S
C580 C581 1.387 . S
C581 H566 0.930 . S
C581 C576 1.390 . S
C581 C580 1.387 . S
H582 C594 0.930 . S
H583 C596 0.930 . S
H584 C597 0.930 . S
H585 C601 0.959 . S
H586 C601 0.959 . S
H587 C601 0.961 . S
H588 C602 0.960 . S
H589 C602 0.961 . S
H590 C602 0.959 . S
H591 C605 0.929 . S
H592 C606 0.931 . S
H593 C608 0.930 . S
C594 H582 0.930 . S
C594 C595 1.399 . S
C594 C599 1.399 . S
C595 C594 1.399 . S
C595 C596 1.376 . S
C596 H583 0.930 . S
C596 C595 1.376 . S
C596 C597 1.388 . S
C597 H584 0.930 . S
C597 C596 1.388 . S
C597 C598 1.390 . S
C598 C597 1.390 . S
C598 C599 1.394 . S
C598 C604 1.465 . S
C599 C594 1.399 . S
C599 C598 1.394 . S
C599 C600 1.516 . S
C600 C599 1.516 . S
C600 C601 1.502 . S
C600 C602 1.561 . S
C600 C603 1.526 . S
C601 H585 0.959 . S
C601 H586 0.959 . S
C601 H587 0.961 . S
C601 C600 1.502 . S
C602 H588 0.960 . S
C602 H589 0.961 . S
C602 H590 0.959 . S
C602 C600 1.561 . S
C603 C600 1.526 . S
C603 C604 1.396 . S
C603 C608 1.390 . S
C604 C598 1.465 . S
C604 C603 1.396 . S
C604 C605 1.399 . S
C605 H591 0.929 . S
C605 C604 1.399 . S
C605 C606 1.385 . S
C606 H592 0.931 . S
C606 C605 1.385 . S
C606 C607 1.389 . S
C607 C606 1.389 . S
C607 C608 1.387 . S
C608 H593 0.930 . S
C608 C603 1.390 . S
C608 C607 1.387 . S
H609 C621 0.930 . S
H610 C623 0.930 . S
H611 C624 0.930 . S
H612 C628 0.959 . S
H613 C628 0.959 . S
H614 C628 0.961 . S
H615 C629 0.960 . S
H616 C629 0.961 . S
H617 C629 0.959 . S
H618 C632 0.929 . S
H619 C633 0.931 . S
H620 C635 0.930 . S
C621 H609 0.930 . S
C621 C622 1.399 . S
C621 C626 1.399 . S
C622 C621 1.399 . S
C622 C623 1.376 . S
C623 H610 0.930 . S
C623 C622 1.376 . S
C623 C624 1.388 . S
C624 H611 0.930 . S
C624 C623 1.388 . S
C624 C625 1.390 . S
C625 C624 1.390 . S
C625 C626 1.394 . S
C625 C631 1.465 . S
C626 C621 1.399 . S
C626 C625 1.394 . S
C626 C627 1.516 . S
C627 C626 1.516 . S
C627 C628 1.502 . S
C627 C629 1.561 . S
C627 C630 1.526 . S
C628 H612 0.959 . S
C628 H613 0.959 . S
C628 H614 0.961 . S
C628 C627 1.502 . S
C629 H615 0.960 . S
C629 H616 0.961 . S
C629 H617 0.959 . S
C629 C627 1.561 . S
C630 C627 1.526 . S
C630 C631 1.396 . S
C630 C635 1.390 . S
C631 C625 1.465 . S
C631 C630 1.396 . S
C631 C632 1.399 . S
C632 H618 0.929 . S
C632 C631 1.399 . S
C632 C633 1.385 . S
C633 H619 0.931 . S
C633 C632 1.385 . S
C633 C634 1.389 . S
C634 C633 1.389 . S
C634 C635 1.387 . S
C635 H620 0.930 . S
C635 C630 1.390 . S
C635 C634 1.387 . S
H636 C648 0.930 . S
H637 C650 0.930 . S
H638 C651 0.930 . S
H639 C655 0.959 . S
H640 C655 0.959 . S
H641 C655 0.961 . S
H642 C656 0.943 1_545 S
H643 C656 0.961 1_545 S
H644 C656 0.959 . S
H645 C659 0.929 . S
H646 C660 0.931 . S
H647 C662 0.930 . S
C648 H636 0.930 . S
C648 C649 1.399 . S
C648 C653 1.399 . S
C649 C648 1.399 . S
C649 C650 1.376 . S
C650 H637 0.930 . S
C650 C649 1.376 . S
C650 C651 1.388 . S
C651 H638 0.930 . S
C651 C650 1.388 . S
C651 C652 1.390 . S
C652 C651 1.390 . S
C652 C653 1.394 . S
C652 C658 1.465 . S
C653 C648 1.399 . S
C653 C652 1.394 . S
C653 C654 1.516 . S
C654 C653 1.516 . S
C654 C655 1.502 . S
C654 C656 1.561 . S
C654 C657 1.526 . S
C655 H639 0.959 . S
C655 H640 0.959 . S
C655 H641 0.961 . S
C655 C654 1.502 . S
C656 H642 0.943 1_565 S
C656 H643 0.961 1_565 S
C656 H644 0.959 . S
C656 C654 1.561 . S
C657 C654 1.526 . S
C657 C658 1.396 . S
C657 C662 1.390 . S
C658 C652 1.465 . S
C658 C657 1.396 . S
C658 C659 1.399 . S
C659 H645 0.929 . S
C659 C658 1.399 . S
C659 C660 1.385 . S
C660 H646 0.931 . S
C660 C659 1.385 . S
C660 C661 1.389 . S
C661 C660 1.389 . S
C661 C662 1.387 . S
C662 H647 0.930 . S
C662 C657 1.390 . S
C662 C661 1.387 . S
H663 C675 0.930 . S
H664 C677 0.930 . S
H665 C678 0.930 . S
H666 C682 0.959 . S
H667 C682 0.959 . S
H668 C682 0.961 . S
H669 C683 0.960 . S
H670 C683 0.961 . S
H671 C683 0.959 . S
H672 C686 0.929 . S
H673 C687 0.931 . S
H674 C689 0.930 . S
C675 H663 0.930 . S
C675 C676 1.399 . S
C675 C680 1.399 . S
C676 C675 1.399 . S
C676 C677 1.376 . S
C677 H664 0.930 . S
C677 C676 1.376 . S
C677 C678 1.388 . S
C678 H665 0.930 . S
C678 C677 1.388 . S
C678 C679 1.390 . S
C679 C678 1.390 . S
C679 C680 1.394 . S
C679 C685 1.465 . S
C680 C675 1.399 . S
C680 C679 1.394 . S
C680 C681 1.516 . S
C681 C680 1.516 . S
C681 C682 1.502 . S
C681 C683 1.561 . S
C681 C684 1.526 . S
C682 H666 0.959 . S
C682 H667 0.959 . S
C682 H668 0.961 . S
C682 C681 1.502 . S
C683 H669 0.960 . S
C683 H670 0.961 . S
C683 H671 0.959 . S
C683 C681 1.561 . S
C684 C681 1.526 . S
C684 C685 1.396 . S
C684 C689 1.390 . S
C685 C679 1.465 . S
C685 C684 1.396 . S
C685 C686 1.399 . S
C686 H672 0.929 . S
C686 C685 1.399 . S
C686 C687 1.385 . S
C687 H673 0.931 . S
C687 C686 1.385 . S
C687 C688 1.389 . S
C688 C687 1.389 . S
C688 C689 1.387 . S
C689 H674 0.930 . S
C689 C684 1.390 . S
C689 C688 1.387 . S
H690 C702 0.930 . S
H691 C704 0.930 . S
H692 C705 0.930 . S
H693 C709 0.959 . S
H694 C709 0.959 . S
H695 C709 0.961 . S
H696 C710 0.960 . S
H697 C710 0.961 . S
H698 C710 0.959 . S
H699 C713 0.929 . S
H700 C714 0.931 . S
H701 C716 0.930 . S
C702 H690 0.930 . S
C702 C703 1.399 . S
C702 C707 1.399 . S
C703 C702 1.399 . S
C703 C704 1.376 . S
C704 H691 0.930 . S
C704 C703 1.376 . S
C704 C705 1.388 . S
C705 H692 0.930 . S
C705 C704 1.388 . S
C705 C706 1.390 . S
C706 C705 1.390 . S
C706 C707 1.394 . S
C706 C712 1.465 . S
C707 C702 1.399 . S
C707 C706 1.394 . S
C707 C708 1.516 . S
C708 C707 1.516 . S
C708 C709 1.502 . S
C708 C710 1.561 . S
C708 C711 1.526 . S
C709 H693 0.959 . S
C709 H694 0.959 . S
C709 H695 0.961 . S
C709 C708 1.502 . S
C710 H696 0.960 . S
C710 H697 0.961 . S
C710 H698 0.959 . S
C710 C708 1.561 . S
C711 C708 1.526 . S
C711 C712 1.396 . S
C711 C716 1.390 . S
C712 C706 1.465 . S
C712 C711 1.396 . S
C712 C713 1.399 . S
C713 H699 0.929 . S
C713 C712 1.399 . S
C713 C714 1.385 . S
C714 H700 0.931 . S
C714 C713 1.385 . S
C714 C715 1.389 . S
C715 C714 1.389 . S
C715 C716 1.387 . S
C716 H701 0.930 . S
C716 C711 1.390 . S
C716 C715 1.387 . S
H717 C729 0.930 . S
H718 C731 0.930 . S
H719 C732 0.930 . S
H720 C736 0.959 . S
H721 C736 0.959 . S
H722 C736 0.961 . S
H723 C737 0.960 . S
H724 C737 0.961 . S
H725 C737 0.959 . S
H726 C740 0.929 . S
H727 C741 0.931 . S
H728 C743 0.930 . S
C729 H717 0.930 . S
C729 C730 1.399 . S
C729 C734 1.399 . S
C730 C729 1.399 . S
C730 C731 1.376 . S
C731 H718 0.930 . S
C731 C730 1.376 . S
C731 C732 1.388 . S
C732 H719 0.930 . S
C732 C731 1.388 . S
C732 C733 1.390 . S
C733 C732 1.390 . S
C733 C734 1.394 . S
C733 C739 1.465 . S
C734 C729 1.399 . S
C734 C733 1.394 . S
C734 C735 1.516 . S
C735 C734 1.516 . S
C735 C736 1.502 . S
C735 C737 1.561 . S
C735 C738 1.526 . S
C736 H720 0.959 . S
C736 H721 0.959 . S
C736 H722 0.961 . S
C736 C735 1.502 . S
C737 H723 0.960 . S
C737 H724 0.961 . S
C737 H725 0.959 . S
C737 C735 1.561 . S
C738 C735 1.526 . S
C738 C739 1.396 . S
C738 C743 1.390 . S
C739 C733 1.465 . S
C739 C738 1.396 . S
C739 C740 1.399 . S
C740 H726 0.929 . S
C740 C739 1.399 . S
C740 C741 1.385 . S
C741 H727 0.931 . S
C741 C740 1.385 . S
C741 C742 1.389 . S
C742 C741 1.389 . S
C742 C743 1.387 . S
C743 H728 0.930 . S
C743 C738 1.390 . S
C743 C742 1.387 . S
H744 C756 0.930 . S
H745 C758 0.930 . S
H746 C759 0.930 . S
H747 C763 0.959 . S
H748 C763 0.982 . S
H749 C763 0.961 . S
H750 C764 0.960 . S
H751 C764 0.961 . S
H752 C764 0.959 . S
H753 C767 0.929 . S
H754 C768 0.931 . S
H755 C770 0.930 . S
C756 H744 0.930 . S
C756 C757 1.399 1_545 S
C756 C761 1.399 . S
C757 C756 1.399 1_565 S
C757 C758 1.376 . S
C758 H745 0.930 . S
C758 C757 1.376 . S
C758 C759 1.388 . S
C759 H746 0.930 . S
C759 C758 1.388 . S
C759 C760 1.390 . S
C760 C759 1.390 . S
C760 C761 1.394 1_565 S
C760 C766 1.465 1_556 S
C761 C756 1.399 . S
C761 C760 1.394 1_545 S
C761 C762 1.516 1_556 S
C762 C761 1.516 1_554 S
C762 C763 1.502 1_554 S
C762 C764 1.561 . S
C762 C765 1.526 . S
C763 H747 0.959 . S
C763 H748 0.982 . S
C763 H749 0.961 . S
C763 C762 1.502 1_556 S
C764 H750 0.960 . S
C764 H751 0.961 . S
C764 H752 0.959 . S
C764 C762 1.561 . S
C765 C762 1.526 . S
C765 C766 1.396 1_545 S
C765 C770 1.390 . S
C766 C760 1.465 1_554 S
C766 C765 1.396 1_565 S
C766 C767 1.399 . S
C767 H753 0.929 . S
C767 C766 1.399 . S
C767 C768 1.385 . S
C768 H754 0.931 . S
C768 C767 1.385 . S
C768 C769 1.389 1_565 S
C769 C768 1.389 1_545 S
C769 C770 1.387 . S
C770 H755 0.930 . S
C770 C765 1.390 . S
C770 C769 1.387 . S
H771 C783 0.930 . S
H772 C785 0.930 . S
H773 C786 0.930 . S
H774 C790 0.959 . S
H775 C790 0.959 . S
H776 C790 0.961 . S
H777 C791 0.960 . S
H778 C791 0.961 . S
H779 C791 0.959 . S
H780 C794 0.929 . S
H781 C795 0.931 . S
H782 C797 0.930 . S
C783 H771 0.930 . S
C783 C784 1.399 . S
C783 C788 1.399 . S
C784 C783 1.399 . S
C784 C785 1.376 . S
C785 H772 0.930 . S
C785 C784 1.376 . S
C785 C786 1.388 . S
C786 H773 0.930 . S
C786 C785 1.388 . S
C786 C787 1.390 . S
C787 C786 1.390 . S
C787 C788 1.394 . S
C787 C793 1.479 . S
C788 C783 1.399 . S
C788 C787 1.394 . S
C788 C789 1.516 1_556 S
C789 C788 1.516 1_554 S
C789 C790 1.502 . S
C789 C791 1.561 . S
C789 C792 1.526 . S
C790 H774 0.959 . S
C790 H775 0.959 . S
C790 H776 0.961 . S
C790 C789 1.502 . S
C791 H777 0.960 . S
C791 H778 0.961 . S
C791 H779 0.959 . S
C791 C789 1.561 . S
C792 C789 1.526 . S
C792 C793 1.375 1_554 S
C792 C797 1.390 . S
C793 C787 1.479 . S
C793 C792 1.375 1_556 S
C793 C794 1.403 . S
C794 H780 0.929 . S
C794 C793 1.403 . S
C794 C795 1.385 1_556 S
C795 H781 0.931 . S
C795 C794 1.385 1_554 S
C795 C796 1.389 . S
C796 C795 1.389 . S
C796 C797 1.387 . S
C797 H782 0.930 . S
C797 C792 1.390 . S
C797 C796 1.387 . S
H798 C810 0.930 . S
H799 C812 0.930 . S
H800 C813 0.930 . S
H801 C817 0.959 . S
H802 C817 0.959 . S
H803 C817 0.961 . S
H804 C818 0.960 1_455 S
H805 C818 0.961 1_554 S
H806 C818 0.959 . S
H807 C821 0.929 1_556 S
H808 C822 0.931 . S
H809 C824 0.930 . S
C810 H798 0.930 . S
C810 C811 1.399 . S
C810 C815 1.399 . S
C811 C810 1.399 . S
C811 C812 1.376 . S
C812 H799 0.930 . S
C812 C811 1.376 . S
C812 C813 1.388 . S
C813 H800 0.930 . S
C813 C812 1.388 . S
C813 C814 1.390 . S
C814 C813 1.390 . S
C814 C815 1.394 . S
C814 C820 1.465 1_456 S
C815 C810 1.399 . S
C815 C814 1.394 . S
C815 C816 1.516 1_556 S
C816 C815 1.516 1_554 S
C816 C817 1.502 . S
C816 C818 1.561 1_454 S
C816 C819 1.526 1_455 S
C817 H801 0.959 . S
C817 H802 0.959 . S
C817 H803 0.961 . S
C817 C816 1.502 . S
C818 H804 0.960 1_655 S
C818 H805 0.961 1_556 S
C818 H806 0.959 . S
C818 C816 1.561 1_656 S
C819 C816 1.526 1_655 S
C819 C820 1.396 . S
C819 C824 1.390 . S
C820 C814 1.465 1_654 S
C820 C819 1.396 . S
C820 C821 1.399 . S
C821 H807 0.929 1_554 S
C821 C820 1.399 . S
C821 C822 1.385 . S
C822 H808 0.931 . S
C822 C821 1.385 . S
C822 C823 1.389 . S
C823 C822 1.389 . S
C823 C824 1.387 . S
C824 H809 0.930 . S
C824 C819 1.390 . S
C824 C823 1.387 . S
H825 C837 0.930 . S
H826 C839 0.930 . S
H827 C840 0.930 . S
H828 C844 0.959 . S
H829 C844 0.959 . S
H830 C844 0.961 . S
H831 C845 0.960 . S
H832 C845 0.961 . S
H833 C845 0.959 . S
H834 C848 0.929 1_545 S
H835 C849 0.931 . S
H836 C851 0.931 . S
C837 H825 0.930 . S
C837 C838 1.399 . S
C837 C842 1.399 . S
C838 C837 1.399 . S
C838 C839 1.376 1_655 S
C839 H826 0.930 . S
C839 C838 1.376 1_455 S
C839 C840 1.388 1_556 S
C840 H827 0.930 . S
C840 C839 1.388 1_554 S
C840 C841 1.390 1_554 S
C841 C840 1.390 1_556 S
C841 C842 1.395 1_455 S
C841 C847 1.464 1_546 S
C842 C837 1.399 . S
C842 C841 1.395 1_655 S
C842 C843 1.516 1_545 S
C843 C842 1.516 1_565 S
C843 C844 1.502 . S
C843 C845 1.561 1_655 S
C843 C846 1.525 1_656 S
C844 H828 0.959 . S
C844 H829 0.959 . S
C844 H830 0.961 . S
C844 C843 1.502 . S
C845 H831 0.960 . S
C845 H832 0.961 . S
C845 H833 0.959 . S
C845 C843 1.561 1_455 S
C846 C843 1.525 1_454 S
C846 C847 1.397 . S
C846 C851 1.389 1_455 S
C847 C841 1.464 1_564 S
C847 C846 1.397 . S
C847 C848 1.399 . S
C848 H834 0.929 1_565 S
C848 C847 1.399 . S
C848 C849 1.385 . S
C849 H835 0.931 . S
C849 C848 1.385 . S
C849 C850 1.389 . S
C850 C849 1.389 . S
C850 C851 1.386 1_455 S
C851 H836 0.931 . S
C851 C846 1.389 1_655 S
C851 C850 1.386 1_655 S
H852 C864 0.930 . S
H853 C866 0.930 . S
H854 C867 0.930 . S
H855 C871 0.959 . S
H856 C871 0.959 . S
H857 C871 0.961 . S
H858 C872 0.960 . S
H859 C872 0.961 . S
H860 C872 0.959 . S
H861 C875 0.929 . S
H862 C876 0.931 . S
H863 C878 0.930 . S
C864 H852 0.930 . S
C864 C865 1.399 . S
C864 C869 1.399 . S
C865 C864 1.399 . S
C865 C866 1.376 . S
C866 H853 0.930 . S
C866 C865 1.376 . S
C866 C867 1.388 . S
C867 H854 0.930 . S
C867 C866 1.388 . S
C867 C868 1.390 . S
C868 C867 1.390 . S
C868 C869 1.394 . S
C868 C874 1.465 . S
C869 C864 1.399 . S
C869 C868 1.394 . S
C869 C870 1.516 . S
C870 C869 1.516 . S
C870 C871 1.502 . S
C870 C872 1.561 . S
C870 C873 1.526 . S
C871 H855 0.959 . S
C871 H856 0.959 . S
C871 H857 0.961 . S
C871 C870 1.502 . S
C872 H858 0.960 . S
C872 H859 0.961 . S
C872 H860 0.959 . S
C872 C870 1.561 . S
C873 C870 1.526 . S
C873 C874 1.396 . S
C873 C878 1.390 . S
C874 C868 1.465 . S
C874 C873 1.396 . S
C874 C875 1.399 . S
C875 H861 0.929 . S
C875 C874 1.399 . S
C875 C876 1.385 . S
C876 H862 0.931 . S
C876 C875 1.385 . S
C876 C877 1.389 . S
C877 C876 1.389 . S
C877 C878 1.387 . S
C878 H863 0.930 . S
C878 C873 1.390 . S
C878 C877 1.387 . S
H879 C891 0.922 1_455 S
H880 C893 0.930 . S
H881 C894 0.930 . S
H882 C898 0.959 . S
H883 C898 0.959 . S
H884 C898 0.961 . S
H885 C899 0.960 . S
H886 C899 0.961 . S
H887 C899 0.959 . S
H888 C902 0.929 . S
H889 C903 0.931 . S
H890 C905 0.930 . S
C891 H879 0.922 1_655 S
C891 C892 1.407 . S
C891 C896 1.400 . S
C892 C891 1.407 . S
C892 C893 1.376 . S
C893 H880 0.930 . S
C893 C892 1.376 . S
C893 C894 1.388 . S
C894 H881 0.930 . S
C894 C893 1.388 . S
C894 C895 1.390 . S
C895 C894 1.390 . S
C895 C896 1.394 . S
C895 C901 1.465 . S
C896 C891 1.400 . S
C896 C895 1.394 . S
C896 C897 1.516 1_655 S
C897 C896 1.516 1_455 S
C897 C898 1.502 . S
C897 C899 1.561 1_455 S
C897 C900 1.526 . S
C898 H882 0.959 . S
C898 H883 0.959 . S
C898 H884 0.961 . S
C898 C897 1.502 . S
C899 H885 0.960 . S
C899 H886 0.961 . S
C899 H887 0.959 . S
C899 C897 1.561 1_655 S
C900 C897 1.526 . S
C900 C901 1.396 1_455 S
C900 C905 1.390 . S
C901 C895 1.465 . S
C901 C900 1.396 1_655 S
C901 C902 1.399 . S
C902 H888 0.929 . S
C902 C901 1.399 . S
C902 C903 1.385 . S
C903 H889 0.931 . S
C903 C902 1.385 . S
C903 C904 1.389 1_655 S
C904 C903 1.389 1_455 S
C904 C905 1.387 . S
C905 H890 0.930 . S
C905 C900 1.390 . S
C905 C904 1.387 . S
H906 C918 0.930 . S
H907 C920 0.930 . S
H908 C921 0.930 1_455 S
H909 C925 0.959 . S
H910 C925 0.959 . S
H911 C925 0.961 . S
H912 C926 0.960 1_545 S
H913 C926 0.961 1_545 S
H914 C926 0.959 . S
H915 C929 0.929 . S
H916 C930 0.931 . S
H917 C932 0.930 . S
C918 H906 0.930 . S
C918 C919 1.399 . S
C918 C923 1.399 . S
C919 C918 1.399 . S
C919 C920 1.376 1_545 S
C920 H907 0.930 . S
C920 C919 1.376 1_565 S
C920 C921 1.388 . S
C921 H908 0.930 1_655 S
C921 C920 1.388 . S
C921 C922 1.390 . S
C922 C921 1.390 . S
C922 C923 1.394 1_565 S
C922 C928 1.465 1_655 S
C923 C918 1.399 . S
C923 C922 1.394 1_545 S
C923 C924 1.516 . S
C924 C923 1.516 . S
C924 C925 1.502 . S
C924 C926 1.561 1_545 S
C924 C927 1.526 1_655 S
C925 H909 0.959 . S
C925 H910 0.959 . S
C925 H911 0.961 . S
C925 C924 1.502 . S
C926 H912 0.960 1_565 S
C926 H913 0.961 1_565 S
C926 H914 0.959 . S
C926 C924 1.561 1_565 S
C927 C924 1.526 1_455 S
C927 C928 1.396 1_545 S
C927 C932 1.390 . S
C928 C922 1.465 1_455 S
C928 C927 1.396 1_565 S
C928 C929 1.399 . S
C929 H915 0.929 . S
C929 C928 1.399 . S
C929 C930 1.385 . S
C930 H916 0.931 . S
C930 C929 1.385 . S
C930 C931 1.389 . S
C931 C930 1.389 . S
C931 C932 1.387 1_565 S
C932 H917 0.930 . S
C932 C927 1.390 . S
C932 C931 1.387 1_545 S
H933 C945 0.930 . S
H934 C947 0.930 . S
H935 C948 0.930 . S
H936 C952 0.959 . S
H937 C952 0.959 . S
H938 C952 0.961 . S
H939 C953 0.960 . S
H940 C953 0.961 1_545 S
H941 C953 0.959 . S
H942 C956 0.929 . S
H943 C957 0.931 . S
H944 C959 0.930 . S
C945 H933 0.930 . S
C945 C946 1.399 . S
C945 C950 1.399 . S
C946 C945 1.399 . S
C946 C947 1.376 . S
C947 H934 0.930 . S
C947 C946 1.376 . S
C947 C948 1.388 . S
C948 H935 0.930 . S
C948 C947 1.388 . S
C948 C949 1.390 . S
C949 C948 1.390 . S
C949 C950 1.394 . S
C949 C955 1.465 1_565 S
C950 C945 1.399 . S
C950 C949 1.394 . S
C950 C951 1.516 1_565 S
C951 C950 1.516 1_545 S
C951 C952 1.502 . S
C951 C953 1.561 1_545 S
C951 C954 1.526 . S
C952 H936 0.959 . S
C952 H937 0.959 . S
C952 H938 0.961 . S
C952 C951 1.502 . S
C953 H939 0.960 . S
C953 H940 0.961 1_565 S
C953 H941 0.959 . S
C953 C951 1.561 1_565 S
C954 C951 1.526 . S
C954 C955 1.396 . S
C954 C959 1.390 . S
C955 C949 1.465 1_545 S
C955 C954 1.396 . S
C955 C956 1.399 . S
C956 H942 0.929 . S
C956 C955 1.399 . S
C956 C957 1.385 . S
C957 H943 0.931 . S
C957 C956 1.385 . S
C957 C958 1.389 . S
C958 C957 1.389 . S
C958 C959 1.387 . S
C959 H944 0.930 . S
C959 C954 1.390 . S
C959 C958 1.387 . S
H960 C972 0.930 1_554 S
H961 C974 0.930 . S
H962 C975 0.930 . S
H963 C979 0.959 . S
H964 C979 0.959 . S
H965 C979 0.961 . S
H966 C980 0.960 . S
H967 C980 0.961 . S
H968 C980 0.959 . S
H969 C983 0.929 1_556 S
H970 C984 0.931 . S
H971 C986 0.930 . S
C972 H960 0.930 1_556 S
C972 C973 1.399 . S
C972 C977 1.399 1_556 S
C973 C972 1.399 . S
C973 C974 1.376 . S
C974 H961 0.930 . S
C974 C973 1.376 . S
C974 C975 1.388 . S
C975 H962 0.930 . S
C975 C974 1.388 . S
C975 C976 1.390 . S
C976 C975 1.390 . S
C976 C977 1.394 1_556 S
C976 C982 1.465 1_556 S
C977 C972 1.399 1_554 S
C977 C976 1.394 1_554 S
C977 C978 1.516 . S
C978 C977 1.516 . S
C978 C979 1.502 . S
C978 C980 1.561 . S
C978 C981 1.526 . S
C979 H963 0.959 . S
C979 H964 0.959 . S
C979 H965 0.961 . S
C979 C978 1.502 . S
C980 H966 0.960 . S
C980 H967 0.961 . S
C980 H968 0.959 . S
C980 C978 1.561 . S
C981 C978 1.526 . S
C981 C982 1.396 . S
C981 C986 1.390 . S
C982 C976 1.465 1_554 S
C982 C981 1.396 . S
C982 C983 1.399 . S
C983 H969 0.929 1_554 S
C983 C982 1.399 . S
C983 C984 1.385 . S
C984 H970 0.931 . S
C984 C983 1.385 . S
C984 C985 1.389 . S
C985 C984 1.389 . S
C985 C986 1.387 . S
C986 H971 0.930 . S
C986 C981 1.390 . S
C986 C985 1.387 . S
H987 C999 0.930 1_554 S
H988 C1001 0.930 . S
H989 C1002 0.930 . S
H990 C1006 0.959 . S
H991 C1006 0.959 . S
H992 C1006 0.961 . S
H993 C1007 0.960 . S
H994 C1007 0.961 . S
H995 C1007 0.959 . S
H996 C1010 0.920 1_556 S
H997 C1011 0.931 . S
H998 C1013 0.930 . S
C999 H987 0.930 1_556 S
C999 C1000 1.399 . S
C999 C1004 1.399 1_556 S
C1000 C999 1.399 . S
C1000 C1001 1.376 . S
C1001 H988 0.930 . S
C1001 C1000 1.376 . S
C1001 C1002 1.388 . S
C1002 H989 0.930 . S
C1002 C1001 1.388 . S
C1002 C1003 1.390 . S
C1003 C1002 1.390 . S
C1003 C1004 1.394 1_556 S
C1003 C1009 1.465 1_556 S
C1004 C999 1.399 1_554 S
C1004 C1003 1.394 1_554 S
C1004 C1005 1.516 . S
C1005 C1004 1.516 . S
C1005 C1006 1.502 . S
C1005 C1007 1.561 . S
C1005 C1008 1.526 . S
C1006 H990 0.959 . S
C1006 H991 0.959 . S
C1006 H992 0.961 . S
C1006 C1005 1.502 . S
C1007 H993 0.960 . S
C1007 H994 0.961 . S
C1007 H995 0.959 . S
C1007 C1005 1.561 . S
C1008 C1005 1.526 . S
C1008 C1009 1.396 . S
C1008 C1013 1.390 . S
C1009 C1003 1.465 1_554 S
C1009 C1008 1.396 . S
C1009 C1010 1.399 . S
C1010 H996 0.920 1_554 S
C1010 C1009 1.399 . S
C1010 C1011 1.385 . S
C1011 H997 0.931 . S
C1011 C1010 1.385 . S
C1011 C1012 1.389 . S
C1012 C1011 1.389 . S
C1012 C1013 1.387 . S
C1013 H998 0.930 . S
C1013 C1008 1.390 . S
C1013 C1012 1.387 . S
H1014 C1026 0.930 . S
H1015 C1028 0.930 . S
H1016 C1029 0.930 . S
H1017 C1033 0.959 . S
H1018 C1033 0.959 . S
H1019 C1033 0.961 . S
H1020 C1034 0.960 1_455 S
H1021 C1034 0.961 . S
H1022 C1034 0.959 . S
H1023 C1037 0.929 . S
H1024 C1038 0.931 . S
H1025 C1040 0.930 . S
C1026 H1014 0.930 . S
C1026 C1027 1.399 . S
C1026 C1031 1.399 1_556 S
C1027 C1026 1.399 . S
C1027 C1028 1.376 . S
C1028 H1015 0.930 . S
C1028 C1027 1.376 . S
C1028 C1029 1.388 . S
C1029 H1016 0.930 . S
C1029 C1028 1.388 . S
C1029 C1030 1.420 . S
C1030 C1029 1.420 . S
C1030 C1031 1.384 1_556 S
C1030 C1036 1.441 1_556 S
C1031 C1026 1.399 1_554 S
C1031 C1030 1.384 1_554 S
C1031 C1032 1.516 . S
C1032 C1031 1.516 . S
C1032 C1033 1.502 . S
C1032 C1034 1.561 . S
C1032 C1035 1.526 . S
C1033 H1017 0.959 . S
C1033 H1018 0.959 . S
C1033 H1019 0.961 . S
C1033 C1032 1.502 . S
C1034 H1020 0.960 1_655 S
C1034 H1021 0.961 . S
C1034 H1022 0.959 . S
C1034 C1032 1.561 . S
C1035 C1032 1.526 . S
C1035 C1036 1.396 . S
C1035 C1040 1.390 . S
C1036 C1030 1.441 1_554 S
C1036 C1035 1.396 . S
C1036 C1037 1.399 . S
C1037 H1023 0.929 . S
C1037 C1036 1.399 . S
C1037 C1038 1.385 . S
C1038 H1024 0.931 . S
C1038 C1037 1.385 . S
C1038 C1039 1.389 . S
C1039 C1038 1.389 . S
C1039 C1040 1.387 . S
C1040 H1025 0.930 . S
C1040 C1035 1.390 . S
C1040 C1039 1.387 . S
H1041 C1053 0.930 . S
H1042 C1055 0.930 . S
H1043 C1056 0.930 . S
H1044 C1060 0.959 . S
H1045 C1060 0.959 . S
H1046 C1060 0.961 . S
H1047 C1061 0.960 . S
H1048 C1061 0.961 . S
H1049 C1061 0.959 . S
H1050 C1064 0.929 . S
H1051 C1065 0.931 . S
H1052 C1067 0.930 . S
C1053 H1041 0.930 . S
C1053 C1054 1.399 . S
C1053 C1058 1.399 . S
C1054 C1053 1.399 . S
C1054 C1055 1.376 . S
C1055 H1042 0.930 . S
C1055 C1054 1.376 . S
C1055 C1056 1.388 1_556 S
C1056 H1043 0.930 . S
C1056 C1055 1.388 1_554 S
C1056 C1057 1.390 . S
C1057 C1056 1.390 . S
C1057 C1058 1.394 1_554 S
C1057 C1063 1.465 . S
C1058 C1053 1.399 . S
C1058 C1057 1.394 1_556 S
C1058 C1059 1.516 1_556 S
C1059 C1058 1.516 1_554 S
C1059 C1060 1.502 1_554 S
C1059 C1061 1.561 . S
C1059 C1062 1.526 . S
C1060 H1044 0.959 . S
C1060 H1045 0.959 . S
C1060 H1046 0.961 . S
C1060 C1059 1.502 1_556 S
C1061 H1047 0.960 . S
C1061 H1048 0.961 . S
C1061 H1049 0.959 . S
C1061 C1059 1.561 . S
C1062 C1059 1.526 . S
C1062 C1063 1.396 . S
C1062 C1067 1.390 . S
C1063 C1057 1.465 . S
C1063 C1062 1.396 . S
C1063 C1064 1.399 . S
C1064 H1050 0.929 . S
C1064 C1063 1.399 . S
C1064 C1065 1.385 . S
C1065 H1051 0.931 . S
C1065 C1064 1.385 . S
C1065 C1066 1.389 . S
C1066 C1065 1.389 . S
C1066 C1067 1.387 . S
C1067 H1052 0.930 . S
C1067 C1062 1.390 . S
C1067 C1066 1.387 . S
H1068 C1080 0.930 . S
H1069 C1082 0.930 . S
H1070 C1083 0.930 . S
H1071 C1087 0.959 . S
H1072 C1087 0.959 . S
H1073 C1087 0.961 . S
H1074 C1088 0.960 . S
H1075 C1088 0.961 . S
H1076 C1088 0.959 . S
H1077 C1091 0.929 . S
H1078 C1092 0.931 . S
H1079 C1094 0.930 . S
C1080 H1068 0.930 . S
C1080 C1081 1.399 . S
C1080 C1085 1.399 . S
C1081 C1080 1.399 . S
C1081 C1082 1.376 . S
C1082 H1069 0.930 . S
C1082 C1081 1.376 . S
C1082 C1083 1.388 . S
C1083 H1070 0.930 . S
C1083 C1082 1.388 . S
C1083 C1084 1.390 . S
C1084 C1083 1.390 . S
C1084 C1085 1.394 . S
C1084 C1090 1.465 . S
C1085 C1080 1.399 . S
C1085 C1084 1.394 . S
C1085 C1086 1.516 . S
C1086 C1085 1.516 . S
C1086 C1087 1.502 . S
C1086 C1088 1.561 . S
C1086 C1089 1.526 . S
C1087 H1071 0.959 . S
C1087 H1072 0.959 . S
C1087 H1073 0.961 . S
C1087 C1086 1.502 . S
C1088 H1074 0.960 . S
C1088 H1075 0.961 . S
C1088 H1076 0.959 . S
C1088 C1086 1.561 . S
C1089 C1086 1.526 . S
C1089 C1090 1.396 . S
C1089 C1094 1.390 . S
C1090 C1084 1.465 . S
C1090 C1089 1.396 . S
C1090 C1091 1.399 . S
C1091 H1077 0.929 . S
C1091 C1090 1.399 . S
C1091 C1092 1.385 . S
C1092 H1078 0.931 . S
C1092 C1091 1.385 . S
C1092 C1093 1.389 . S
C1093 C1092 1.389 . S
C1093 C1094 1.387 . S
C1094 H1079 0.930 . S
C1094 C1089 1.390 . S
C1094 C1093 1.387 . S
H1095 C1107 0.930 . S
H1096 C1109 0.930 . S
H1097 C1110 0.930 . S
H1098 C1114 0.959 . S
H1099 C1114 0.959 . S
H1100 C1114 0.961 . S
H1101 C1115 0.960 . S
H1102 C1115 0.961 . S
H1103 C1115 0.959 . S
H1104 C1118 0.929 . S
H1105 C1119 0.931 . S
H1106 C1121 0.930 . S
C1107 H1095 0.930 . S
C1107 C1108 1.399 . S
C1107 C1112 1.399 . S
C1108 C1107 1.399 . S
C1108 C1109 1.376 . S
C1109 H1096 0.930 . S
C1109 C1108 1.376 . S
C1109 C1110 1.388 . S
C1110 H1097 0.930 . S
C1110 C1109 1.388 . S
C1110 C1111 1.390 . S
C1111 C1110 1.390 . S
C1111 C1112 1.394 . S
C1111 C1117 1.465 . S
C1112 C1107 1.399 . S
C1112 C1111 1.394 . S
C1112 C1113 1.516 . S
C1113 C1112 1.516 . S
C1113 C1114 1.502 . S
C1113 C1115 1.561 . S
C1113 C1116 1.526 . S
C1114 H1098 0.959 . S
C1114 H1099 0.959 . S
C1114 H1100 0.961 . S
C1114 C1113 1.502 . S
C1115 H1101 0.960 . S
C1115 H1102 0.961 . S
C1115 H1103 0.959 . S
C1115 C1113 1.561 . S
C1116 C1113 1.526 . S
C1116 C1117 1.396 . S
C1116 C1121 1.390 . S
C1117 C1111 1.465 . S
C1117 C1116 1.396 . S
C1117 C1118 1.399 . S
C1118 H1104 0.929 . S
C1118 C1117 1.399 . S
C1118 C1119 1.385 . S
C1119 H1105 0.931 . S
C1119 C1118 1.385 . S
C1119 C1120 1.389 . S
C1120 C1119 1.389 . S
C1120 C1121 1.387 . S
C1121 H1106 0.930 . S
C1121 C1116 1.390 . S
C1121 C1120 1.387 . S
H1122 C1134 0.930 . S
H1123 C1136 0.930 . S
H1124 C1137 0.930 . S
H1125 C1141 0.959 . S
H1126 C1141 0.959 . S
H1127 C1141 0.961 . S
H1128 C1142 0.960 . S
H1129 C1142 0.961 . S
H1130 C1142 0.959 . S
H1131 C1145 0.929 . S
H1132 C1146 0.931 . S
H1133 C1148 0.930 . S
C1134 H1122 0.930 . S
C1134 C1135 1.399 . S
C1134 C1139 1.399 . S
C1135 C1134 1.399 . S
C1135 C1136 1.376 . S
C1136 H1123 0.930 . S
C1136 C1135 1.376 . S
C1136 C1137 1.388 . S
C1137 H1124 0.930 . S
C1137 C1136 1.388 . S
C1137 C1138 1.390 . S
C1138 C1137 1.390 . S
C1138 C1139 1.394 . S
C1138 C1144 1.465 . S
C1139 C1134 1.399 . S
C1139 C1138 1.394 . S
C1139 C1140 1.516 . S
C1140 C1139 1.516 . S
C1140 C1141 1.502 . S
C1140 C1142 1.561 . S
C1140 C1143 1.526 . S
C1141 H1125 0.959 . S
C1141 H1126 0.959 . S
C1141 H1127 0.961 . S
C1141 C1140 1.502 . S
C1142 H1128 0.960 . S
C1142 H1129 0.961 . S
C1142 H1130 0.959 . S
C1142 C1140 1.561 . S
C1143 C1140 1.526 . S
C1143 C1144 1.396 . S
C1143 C1148 1.390 . S
C1144 C1138 1.465 . S
C1144 C1143 1.396 . S
C1144 C1145 1.399 . S
C1145 H1131 0.929 . S
C1145 C1144 1.399 . S
C1145 C1146 1.385 . S
C1146 H1132 0.931 . S
C1146 C1145 1.385 . S
C1146 C1147 1.389 . S
C1147 C1146 1.389 . S
C1147 C1148 1.387 . S
C1148 H1133 0.930 . S
C1148 C1143 1.390 . S
C1148 C1147 1.387 . S
H1149 C1161 0.930 . S
H1150 C1163 0.930 . S
H1151 C1164 0.930 . S
H1152 C1168 0.959 . S
H1153 C1168 0.959 . S
H1154 C1168 0.961 . S
H1155 C1169 0.960 . S
H1156 C1169 0.942 1_545 S
H1157 C1169 0.959 . S
H1158 C1172 0.929 . S
H1159 C1173 0.931 . S
H1160 C1175 0.930 . S
C1161 H1149 0.930 . S
C1161 C1162 1.399 . S
C1161 C1166 1.399 . S
C1162 C1161 1.399 . S
C1162 C1163 1.376 . S
C1163 H1150 0.930 . S
C1163 C1162 1.376 . S
C1163 C1164 1.388 . S
C1164 H1151 0.930 . S
C1164 C1163 1.388 . S
C1164 C1165 1.390 . S
C1165 C1164 1.390 . S
C1165 C1166 1.394 . S
C1165 C1171 1.465 . S
C1166 C1161 1.399 . S
C1166 C1165 1.394 . S
C1166 C1167 1.516 . S
C1167 C1166 1.516 . S
C1167 C1168 1.502 . S
C1167 C1169 1.561 . S
C1167 C1170 1.526 . S
C1168 H1152 0.959 . S
C1168 H1153 0.959 . S
C1168 H1154 0.961 . S
C1168 C1167 1.502 . S
C1169 H1155 0.960 . S
C1169 H1156 0.942 1_565 S
C1169 H1157 0.959 . S
C1169 C1167 1.561 . S
C1170 C1167 1.526 . S
C1170 C1171 1.396 . S
C1170 C1175 1.390 . S
C1171 C1165 1.465 . S
C1171 C1170 1.396 . S
C1171 C1172 1.399 . S
C1172 H1158 0.929 . S
C1172 C1171 1.399 . S
C1172 C1173 1.385 . S
C1173 H1159 0.931 . S
C1173 C1172 1.385 . S
C1173 C1174 1.389 . S
C1174 C1173 1.389 . S
C1174 C1175 1.387 . S
C1175 H1160 0.930 . S
C1175 C1170 1.390 . S
C1175 C1174 1.387 . S
H1176 C1188 0.930 . S
H1177 C1190 0.931 . S
H1178 C1191 0.930 . S
H1179 C1195 0.959 . S
H1180 C1195 0.959 . S
H1181 C1195 0.961 . S
H1182 C1196 0.960 . S
H1183 C1196 0.961 . S
H1184 C1196 0.959 . S
H1185 C1199 0.929 . S
H1186 C1200 0.931 . S
H1187 C1202 0.930 . S
C1188 H1176 0.930 . S
C1188 C1189 1.399 . S
C1188 C1193 1.399 . S
C1189 C1188 1.399 . S
C1189 C1190 1.376 . S
C1190 H1177 0.931 . S
C1190 C1189 1.376 . S
C1190 C1191 1.388 1_554 S
C1191 H1178 0.930 . S
C1191 C1190 1.388 1_556 S
C1191 C1192 1.390 . S
C1192 C1191 1.390 . S
C1192 C1193 1.394 1_556 S
C1192 C1198 1.465 . S
C1193 C1188 1.399 . S
C1193 C1192 1.394 1_554 S
C1193 C1194 1.516 . S
C1194 C1193 1.516 . S
C1194 C1195 1.502 . S
C1194 C1196 1.561 . S
C1194 C1197 1.526 1_554 S
C1195 H1179 0.959 . S
C1195 H1180 0.959 . S
C1195 H1181 0.961 . S
C1195 C1194 1.502 . S
C1196 H1182 0.960 . S
C1196 H1183 0.961 . S
C1196 H1184 0.959 . S
C1196 C1194 1.561 . S
C1197 C1194 1.526 1_556 S
C1197 C1198 1.396 . S
C1197 C1202 1.390 . S
C1198 C1192 1.465 . S
C1198 C1197 1.396 . S
C1198 C1199 1.399 . S
C1199 H1185 0.929 . S
C1199 C1198 1.399 . S
C1199 C1200 1.385 . S
C1200 H1186 0.931 . S
C1200 C1199 1.385 . S
C1200 C1201 1.389 . S
C1201 C1200 1.389 . S
C1201 C1202 1.387 . S
C1202 H1187 0.930 . S
C1202 C1197 1.390 . S
C1202 C1201 1.387 . S
H1203 C1215 0.930 . S
H1204 C1217 0.930 . S
H1205 C1218 0.930 . S
H1206 C1222 0.959 1_554 S
H1207 C1222 0.959 . S
H1208 C1222 0.961 . S
H1209 C1223 0.960 . S
H1210 C1223 0.961 . S
H1211 C1223 0.959 . S
H1212 C1226 0.929 . S
H1213 C1227 0.931 . S
H1214 C1229 0.930 . S
C1215 H1203 0.930 . S
C1215 C1216 1.399 . S
C1215 C1220 1.399 1_554 S
C1216 C1215 1.399 . S
C1216 C1217 1.376 . S
C1217 H1204 0.930 . S
C1217 C1216 1.376 . S
C1217 C1218 1.388 . S
C1218 H1205 0.930 . S
C1218 C1217 1.388 . S
C1218 C1219 1.390 1_554 S
C1219 C1218 1.390 1_556 S
C1219 C1220 1.394 . S
C1219 C1225 1.465 . S
C1220 C1215 1.399 1_556 S
C1220 C1219 1.394 . S
C1220 C1221 1.516 . S
C1221 C1220 1.516 . S
C1221 C1222 1.502 . S
C1221 C1223 1.561 . S
C1221 C1224 1.526 . S
C1222 H1206 0.959 1_556 S
C1222 H1207 0.959 . S
C1222 H1208 0.961 . S
C1222 C1221 1.502 . S
C1223 H1209 0.960 . S
C1223 H1210 0.961 . S
C1223 H1211 0.959 . S
C1223 C1221 1.561 . S
C1224 C1221 1.526 . S
C1224 C1225 1.396 . S
C1224 C1229 1.390 . S
C1225 C1219 1.465 . S
C1225 C1224 1.396 . S
C1225 C1226 1.399 . S
C1226 H1212 0.929 . S
C1226 C1225 1.399 . S
C1226 C1227 1.385 . S
C1227 H1213 0.931 . S
C1227 C1226 1.385 . S
C1227 C1228 1.389 . S
C1228 C1227 1.389 . S
C1228 C1229 1.387 . S
C1229 H1214 0.930 . S
C1229 C1224 1.390 . S
C1229 C1228 1.387 . S
H1230 C1242 0.930 . S
H1231 C1244 0.930 . S
H1232 C1245 0.930 . S
H1233 C1249 0.959 . S
H1234 C1249 0.959 . S
H1235 C1249 0.961 . S
H1236 C1250 0.960 . S
H1237 C1250 0.961 . S
H1238 C1250 0.959 . S
H1239 C1253 0.929 . S
H1240 C1254 0.931 . S
H1241 C1256 0.930 . S
C1242 H1230 0.930 . S
C1242 C1243 1.399 . S
C1242 C1247 1.399 . S
C1243 C1242 1.399 . S
C1243 C1244 1.376 . S
C1244 H1231 0.930 . S
C1244 C1243 1.376 . S
C1244 C1245 1.388 1_554 S
C1245 H1232 0.930 . S
C1245 C1244 1.388 1_556 S
C1245 C1246 1.390 . S
C1246 C1245 1.390 . S
C1246 C1247 1.394 1_556 S
C1246 C1252 1.465 . S
C1247 C1242 1.399 . S
C1247 C1246 1.394 1_554 S
C1247 C1248 1.516 1_554 S
C1248 C1247 1.516 1_556 S
C1248 C1249 1.502 1_556 S
C1248 C1250 1.561 . S
C1248 C1251 1.526 . S
C1249 H1233 0.959 . S
C1249 H1234 0.959 . S
C1249 H1235 0.961 . S
C1249 C1248 1.502 1_554 S
C1250 H1236 0.960 . S
C1250 H1237 0.961 . S
C1250 H1238 0.959 . S
C1250 C1248 1.561 . S
C1251 C1248 1.526 . S
C1251 C1252 1.396 . S
C1251 C1256 1.390 . S
C1252 C1246 1.465 . S
C1252 C1251 1.396 . S
C1252 C1253 1.399 . S
C1253 H1239 0.929 . S
C1253 C1252 1.399 . S
C1253 C1254 1.385 . S
C1254 H1240 0.931 . S
C1254 C1253 1.385 . S
C1254 C1255 1.389 . S
C1255 C1254 1.389 . S
C1255 C1256 1.387 . S
C1256 H1241 0.930 . S
C1256 C1251 1.390 . S
C1256 C1255 1.387 . S
H1257 C1269 0.930 . S
H1258 C1271 0.930 . S
H1259 C1272 0.930 . S
H1260 C1276 0.959 . S
H1261 C1276 0.959 . S
H1262 C1276 0.961 . S
H1263 C1277 0.960 . S
H1264 C1277 0.961 1_556 S
H1265 C1277 0.959 . S
H1266 C1280 0.929 . S
H1267 C1281 0.931 . S
H1268 C1283 0.930 . S
C1269 H1257 0.930 . S
C1269 C1270 1.399 . S
C1269 C1274 1.399 1_554 S
C1270 C1269 1.399 . S
C1270 C1271 1.376 . S
C1271 H1258 0.930 . S
C1271 C1270 1.376 . S
C1271 C1272 1.388 . S
C1272 H1259 0.930 . S
C1272 C1271 1.388 . S
C1272 C1273 1.390 1_554 S
C1273 C1272 1.390 1_556 S
C1273 C1274 1.394 . S
C1273 C1279 1.465 . S
C1274 C1269 1.399 1_556 S
C1274 C1273 1.394 . S
C1274 C1275 1.516 . S
C1275 C1274 1.516 . S
C1275 C1276 1.502 . S
C1275 C1277 1.561 1_556 S
C1275 C1278 1.526 . S
C1276 H1260 0.959 . S
C1276 H1261 0.959 . S
C1276 H1262 0.961 . S
C1276 C1275 1.502 . S
C1277 H1263 0.960 . S
C1277 H1264 0.961 1_554 S
C1277 H1265 0.959 . S
C1277 C1275 1.561 1_554 S
C1278 C1275 1.526 . S
C1278 C1279 1.396 . S
C1278 C1283 1.390 . S
C1279 C1273 1.465 . S
C1279 C1278 1.396 . S
C1279 C1280 1.399 . S
C1280 H1266 0.929 . S
C1280 C1279 1.399 . S
C1280 C1281 1.385 . S
C1281 H1267 0.931 . S
C1281 C1280 1.385 . S
C1281 C1282 1.389 . S
C1282 C1281 1.389 . S
C1282 C1283 1.387 . S
C1283 H1268 0.930 . S
C1283 C1278 1.390 . S
C1283 C1282 1.387 . S
H1284 C1296 0.930 . S
H1285 C1298 0.930 . S
H1286 C1299 0.930 . S
H1287 C1303 0.959 . S
H1288 C1303 0.959 . S
H1289 C1303 0.961 . S
H1290 C1304 0.960 . S
H1291 C1304 0.961 . S
H1292 C1304 0.959 . S
H1293 C1307 0.929 . S
H1294 C1308 0.931 . S
H1295 C1310 0.930 . S
C1296 H1284 0.930 . S
C1296 C1297 1.399 . S
C1296 C1301 1.399 . S
C1297 C1296 1.399 . S
C1297 C1298 1.376 . S
C1298 H1285 0.930 . S
C1298 C1297 1.376 . S
C1298 C1299 1.388 . S
C1299 H1286 0.930 . S
C1299 C1298 1.388 . S
C1299 C1300 1.390 . S
C1300 C1299 1.390 . S
C1300 C1301 1.394 . S
C1300 C1306 1.465 . S
C1301 C1296 1.399 . S
C1301 C1300 1.394 . S
C1301 C1302 1.516 . S
C1302 C1301 1.516 . S
C1302 C1303 1.502 . S
C1302 C1304 1.561 . S
C1302 C1305 1.526 . S
C1303 H1287 0.959 . S
C1303 H1288 0.959 . S
C1303 H1289 0.961 . S
C1303 C1302 1.502 . S
C1304 H1290 0.960 . S
C1304 H1291 0.961 . S
C1304 H1292 0.959 . S
C1304 C1302 1.561 . S
C1305 C1302 1.526 . S
C1305 C1306 1.396 . S
C1305 C1310 1.390 . S
C1306 C1300 1.465 . S
C1306 C1305 1.396 . S
C1306 C1307 1.399 . S
C1307 H1293 0.929 . S
C1307 C1306 1.399 . S
C1307 C1308 1.385 . S
C1308 H1294 0.931 . S
C1308 C1307 1.385 . S
C1308 C1309 1.389 . S
C1309 C1308 1.389 . S
C1309 C1310 1.387 . S
C1310 H1295 0.930 . S
C1310 C1305 1.390 . S
C1310 C1309 1.387 . S
H1311 C1323 0.930 . S
H1312 C1325 0.930 . S
H1313 C1326 0.930 . S
H1314 C1330 0.959 . S
H1315 C1330 0.959 . S
H1316 C1330 0.961 . S
H1317 C1331 0.960 . S
H1318 C1331 0.961 . S
H1319 C1331 0.959 . S
H1320 C1334 0.929 . S
H1321 C1335 0.931 . S
H1322 C1337 0.930 . S
C1323 H1311 0.930 . S
C1323 C1324 1.399 . S
C1323 C1328 1.399 . S
C1324 C1323 1.399 . S
C1324 C1325 1.376 . S
C1325 H1312 0.930 . S
C1325 C1324 1.376 . S
C1325 C1326 1.388 . S
C1326 H1313 0.930 . S
C1326 C1325 1.388 . S
C1326 C1327 1.390 . S
C1327 C1326 1.390 . S
C1327 C1328 1.394 . S
C1327 C1333 1.465 . S
C1328 C1323 1.399 . S
C1328 C1327 1.394 . S
C1328 C1329 1.516 . S
C1329 C1328 1.516 . S
C1329 C1330 1.502 . S
C1329 C1331 1.561 . S
C1329 C1332 1.526 . S
C1330 H1314 0.959 . S
C1330 H1315 0.959 . S
C1330 H1316 0.961 . S
C1330 C1329 1.502 . S
C1331 H1317 0.960 . S
C1331 H1318 0.961 . S
C1331 H1319 0.959 . S
C1331 C1329 1.561 . S
C1332 C1329 1.526 . S
C1332 C1333 1.396 . S
C1332 C1337 1.390 . S
C1333 C1327 1.465 . S
C1333 C1332 1.396 . S
C1333 C1334 1.399 . S
C1334 H1320 0.929 . S
C1334 C1333 1.399 . S
C1334 C1335 1.385 . S
C1335 H1321 0.931 . S
C1335 C1334 1.385 . S
C1335 C1336 1.389 . S
C1336 C1335 1.389 . S
C1336 C1337 1.387 . S
C1337 H1322 0.930 . S
C1337 C1332 1.390 . S
C1337 C1336 1.387 . S
H1338 C1350 0.930 . S
H1339 C1352 0.930 . S
H1340 C1353 0.930 . S
H1341 C1357 0.959 . S
H1342 C1357 0.959 . S
H1343 C1357 0.961 . S
H1344 C1358 0.960 . S
H1345 C1358 0.961 . S
H1346 C1358 0.959 . S
H1347 C1361 0.929 . S
H1348 C1362 0.931 . S
H1349 C1364 0.930 . S
C1350 H1338 0.930 . S
C1350 C1351 1.399 . S
C1350 C1355 1.399 . S
C1351 C1350 1.399 . S
C1351 C1352 1.376 . S
C1352 H1339 0.930 . S
C1352 C1351 1.376 . S
C1352 C1353 1.388 . S
C1353 H1340 0.930 . S
C1353 C1352 1.388 . S
C1353 C1354 1.390 . S
C1354 C1353 1.390 . S
C1354 C1355 1.394 . S
C1354 C1360 1.465 . S
C1355 C1350 1.399 . S
C1355 C1354 1.394 . S
C1355 C1356 1.516 . S
C1356 C1355 1.516 . S
C1356 C1357 1.502 . S
C1356 C1358 1.561 . S
C1356 C1359 1.526 . S
C1357 H1341 0.959 . S
C1357 H1342 0.959 . S
C1357 H1343 0.961 . S
C1357 C1356 1.502 . S
C1358 H1344 0.960 . S
C1358 H1345 0.961 . S
C1358 H1346 0.959 . S
C1358 C1356 1.561 . S
C1359 C1356 1.526 . S
C1359 C1360 1.396 . S
C1359 C1364 1.390 . S
C1360 C1354 1.465 . S
C1360 C1359 1.396 . S
C1360 C1361 1.399 . S
C1361 H1347 0.929 . S
C1361 C1360 1.399 . S
C1361 C1362 1.385 . S
C1362 H1348 0.931 . S
C1362 C1361 1.385 . S
C1362 C1363 1.389 . S
C1363 C1362 1.389 . S
C1363 C1364 1.387 . S
C1364 H1349 0.930 . S
C1364 C1359 1.390 . S
C1364 C1363 1.387 . S
H1365 C1377 0.930 . S
H1366 C1379 0.930 . S
H1367 C1380 0.930 . S
H1368 C1384 0.959 . S
H1369 C1384 0.959 . S
H1370 C1384 0.961 . S
H1371 C1385 0.960 . S
H1372 C1385 0.961 . S
H1373 C1385 0.959 . S
H1374 C1388 0.929 . S
H1375 C1389 0.931 . S
H1376 C1391 0.930 . S
C1377 H1365 0.930 . S
C1377 C1378 1.399 . S
C1377 C1382 1.399 . S
C1378 C1377 1.399 . S
C1378 C1379 1.376 . S
C1379 H1366 0.930 . S
C1379 C1378 1.376 . S
C1379 C1380 1.388 . S
C1380 H1367 0.930 . S
C1380 C1379 1.388 . S
C1380 C1381 1.390 . S
C1381 C1380 1.390 . S
C1381 C1382 1.394 . S
C1381 C1387 1.465 . S
C1382 C1377 1.399 . S
C1382 C1381 1.394 . S
C1382 C1383 1.516 . S
C1383 C1382 1.516 . S
C1383 C1384 1.502 . S
C1383 C1385 1.561 . S
C1383 C1386 1.526 . S
C1384 H1368 0.959 . S
C1384 H1369 0.959 . S
C1384 H1370 0.961 . S
C1384 C1383 1.502 . S
C1385 H1371 0.960 . S
C1385 H1372 0.961 . S
C1385 H1373 0.959 . S
C1385 C1383 1.561 . S
C1386 C1383 1.526 . S
C1386 C1387 1.396 . S
C1386 C1391 1.390 . S
C1387 C1381 1.465 . S
C1387 C1386 1.396 . S
C1387 C1388 1.399 . S
C1388 H1374 0.929 . S
C1388 C1387 1.399 . S
C1388 C1389 1.385 . S
C1389 H1375 0.931 . S
C1389 C1388 1.385 . S
C1389 C1390 1.389 . S
C1390 C1389 1.389 . S
C1390 C1391 1.387 . S
C1391 H1376 0.930 . S
C1391 C1386 1.390 . S
C1391 C1390 1.387 . S
H1392 C1404 0.930 . S
H1393 C1406 0.930 . S
H1394 C1407 0.930 . S
H1395 C1411 0.959 . S
H1396 C1411 0.959 . S
H1397 C1411 0.961 . S
H1398 C1412 0.960 . S
H1399 C1412 0.961 . S
H1400 C1412 0.959 . S
H1401 C1415 0.929 . S
H1402 C1416 0.931 . S
H1403 C1418 0.930 . S
C1404 H1392 0.930 . S
C1404 C1405 1.399 . S
C1404 C1409 1.399 . S
C1405 C1404 1.399 . S
C1405 C1406 1.376 . S
C1406 H1393 0.930 . S
C1406 C1405 1.376 . S
C1406 C1407 1.388 . S
C1407 H1394 0.930 . S
C1407 C1406 1.388 . S
C1407 C1408 1.390 . S
C1408 C1407 1.390 . S
C1408 C1409 1.394 . S
C1408 C1414 1.465 . S
C1409 C1404 1.399 . S
C1409 C1408 1.394 . S
C1409 C1410 1.516 . S
C1410 C1409 1.516 . S
C1410 C1411 1.502 . S
C1410 C1412 1.561 . S
C1410 C1413 1.526 . S
C1411 H1395 0.959 . S
C1411 H1396 0.959 . S
C1411 H1397 0.961 . S
C1411 C1410 1.502 . S
C1412 H1398 0.960 . S
C1412 H1399 0.961 . S
C1412 H1400 0.959 . S
C1412 C1410 1.561 . S
C1413 C1410 1.526 . S
C1413 C1414 1.396 . S
C1413 C1418 1.390 . S
C1414 C1408 1.465 . S
C1414 C1413 1.396 . S
C1414 C1415 1.399 . S
C1415 H1401 0.929 . S
C1415 C1414 1.399 . S
C1415 C1416 1.385 . S
C1416 H1402 0.931 . S
C1416 C1415 1.385 . S
C1416 C1417 1.389 . S
C1417 C1416 1.389 . S
C1417 C1418 1.387 . S
C1418 H1403 0.930 . S
C1418 C1413 1.390 . S
C1418 C1417 1.387 . S
H1419 C1431 0.930 . S
H1420 C1433 0.930 . S
H1421 C1434 0.930 . S
H1422 C1438 0.959 . S
H1423 C1438 0.959 . S
H1424 C1438 0.961 . S
H1425 C1439 0.960 . S
H1426 C1439 0.961 . S
H1427 C1439 0.959 . S
H1428 C1442 0.929 . S
H1429 C1443 0.931 . S
H1430 C1445 0.930 . S
C1431 H1419 0.930 . S
C1431 C1432 1.399 . S
C1431 C1436 1.399 . S
C1432 C1431 1.399 . S
C1432 C1433 1.376 . S
C1433 H1420 0.930 . S
C1433 C1432 1.376 . S
C1433 C1434 1.388 . S
C1434 H1421 0.930 . S
C1434 C1433 1.388 . S
C1434 C1435 1.390 . S
C1435 C1434 1.390 . S
C1435 C1436 1.394 . S
C1435 C1441 1.465 . S
C1436 C1431 1.399 . S
C1436 C1435 1.394 . S
C1436 C1437 1.516 . S
C1437 C1436 1.516 . S
C1437 C1438 1.502 . S
C1437 C1439 1.561 . S
C1437 C1440 1.526 . S
C1438 H1422 0.959 . S
C1438 H1423 0.959 . S
C1438 H1424 0.961 . S
C1438 C1437 1.502 . S
C1439 H1425 0.960 . S
C1439 H1426 0.961 . S
C1439 H1427 0.959 . S
C1439 C1437 1.561 . S
C1440 C1437 1.526 . S
C1440 C1441 1.396 . S
C1440 C1445 1.390 . S
C1441 C1435 1.465 . S
C1441 C1440 1.396 . S
C1441 C1442 1.399 . S
C1442 H1428 0.929 . S
C1442 C1441 1.399 . S
C1442 C1443 1.385 . S
C1443 H1429 0.931 . S
C1443 C1442 1.385 . S
C1443 C1444 1.389 . S
C1444 C1443 1.389 . S
C1444 C1445 1.387 . S
C1445 H1430 0.930 . S
C1445 C1440 1.390 . S
C1445 C1444 1.387 . S
H1446 C1458 0.930 . S
H1447 C1460 0.930 . S
H1448 C1461 0.930 . S
H1449 C1465 0.959 . S
H1450 C1465 0.959 . S
H1451 C1465 0.961 . S
H1452 C1466 0.960 . S
H1453 C1466 0.961 . S
H1454 C1466 0.959 . S
H1455 C1469 0.929 . S
H1456 C1470 0.931 . S
H1457 C1472 0.930 . S
C1458 H1446 0.930 . S
C1458 C1459 1.399 . S
C1458 C1463 1.399 . S
C1459 C1458 1.399 . S
C1459 C1460 1.376 . S
C1460 H1447 0.930 . S
C1460 C1459 1.376 . S
C1460 C1461 1.388 . S
C1461 H1448 0.930 . S
C1461 C1460 1.388 . S
C1461 C1462 1.390 . S
C1462 C1461 1.390 . S
C1462 C1463 1.394 . S
C1462 C1468 1.465 . S
C1463 C1458 1.399 . S
C1463 C1462 1.394 . S
C1463 C1464 1.516 . S
C1464 C1463 1.516 . S
C1464 C1465 1.502 . S
C1464 C1466 1.561 . S
C1464 C1467 1.526 . S
C1465 H1449 0.959 . S
C1465 H1450 0.959 . S
C1465 H1451 0.961 . S
C1465 C1464 1.502 . S
C1466 H1452 0.960 . S
C1466 H1453 0.961 . S
C1466 H1454 0.959 . S
C1466 C1464 1.561 . S
C1467 C1464 1.526 . S
C1467 C1468 1.396 . S
C1467 C1472 1.390 . S
C1468 C1462 1.465 . S
C1468 C1467 1.396 . S
C1468 C1469 1.399 . S
C1469 H1455 0.929 . S
C1469 C1468 1.399 . S
C1469 C1470 1.385 . S
C1470 H1456 0.931 . S
C1470 C1469 1.385 . S
C1470 C1471 1.389 . S
C1471 C1470 1.389 . S
C1471 C1472 1.387 . S
C1472 H1457 0.930 . S
C1472 C1467 1.390 . S
C1472 C1471 1.387 . S
H1473 C1485 0.930 . S
H1474 C1487 0.930 . S
H1475 C1488 0.930 . S
H1476 C1492 0.959 . S
H1477 C1492 0.959 . S
H1478 C1492 0.961 . S
H1479 C1493 0.960 . S
H1480 C1493 0.961 . S
H1481 C1493 0.959 . S
H1482 C1496 0.929 . S
H1483 C1497 0.931 . S
H1484 C1499 0.930 . S
C1485 H1473 0.930 . S
C1485 C1486 1.399 . S
C1485 C1490 1.399 . S
C1486 C1485 1.399 . S
C1486 C1487 1.376 . S
C1487 H1474 0.930 . S
C1487 C1486 1.376 . S
C1487 C1488 1.388 . S
C1488 H1475 0.930 . S
C1488 C1487 1.388 . S
C1488 C1489 1.390 . S
C1489 C1488 1.390 . S
C1489 C1490 1.394 . S
C1489 C1495 1.465 . S
C1490 C1485 1.399 . S
C1490 C1489 1.394 . S
C1490 C1491 1.516 . S
C1491 C1490 1.516 . S
C1491 C1492 1.502 . S
C1491 C1493 1.561 . S
C1491 C1494 1.526 . S
C1492 H1476 0.959 . S
C1492 H1477 0.959 . S
C1492 H1478 0.961 . S
C1492 C1491 1.502 . S
C1493 H1479 0.960 . S
C1493 H1480 0.961 . S
C1493 H1481 0.959 . S
C1493 C1491 1.561 . S
C1494 C1491 1.526 . S
C1494 C1495 1.396 . S
C1494 C1499 1.390 . S
C1495 C1489 1.465 . S
C1495 C1494 1.396 . S
C1495 C1496 1.399 . S
C1496 H1482 0.929 . S
C1496 C1495 1.399 . S
C1496 C1497 1.385 . S
C1497 H1483 0.931 . S
C1497 C1496 1.385 . S
C1497 C1498 1.389 . S
C1498 C1497 1.389 . S
C1498 C1499 1.387 . S
C1499 H1484 0.930 . S
C1499 C1494 1.390 . S
C1499 C1498 1.387 . S
H1500 C1512 0.930 . S
H1501 C1514 0.930 . S
H1502 C1515 0.930 . S
H1503 C1519 0.959 . S
H1504 C1519 0.959 . S
H1505 C1519 0.961 . S
H1506 C1520 0.960 . S
H1507 C1520 0.961 . S
H1508 C1520 0.959 . S
H1509 C1523 0.929 . S
H1510 C1524 0.931 . S
H1511 C1526 0.930 . S
C1512 H1500 0.930 . S
C1512 C1513 1.399 . S
C1512 C1517 1.399 . S
C1513 C1512 1.399 . S
C1513 C1514 1.376 . S
C1514 H1501 0.930 . S
C1514 C1513 1.376 . S
C1514 C1515 1.388 . S
C1515 H1502 0.930 . S
C1515 C1514 1.388 . S
C1515 C1516 1.390 . S
C1516 C1515 1.390 . S
C1516 C1517 1.394 . S
C1516 C1522 1.465 . S
C1517 C1512 1.399 . S
C1517 C1516 1.394 . S
C1517 C1518 1.516 . S
C1518 C1517 1.516 . S
C1518 C1519 1.502 . S
C1518 C1520 1.561 . S
C1518 C1521 1.526 . S
C1519 H1503 0.959 . S
C1519 H1504 0.959 . S
C1519 H1505 0.961 . S
C1519 C1518 1.502 . S
C1520 H1506 0.960 . S
C1520 H1507 0.961 . S
C1520 H1508 0.959 . S
C1520 C1518 1.561 . S
C1521 C1518 1.526 . S
C1521 C1522 1.396 . S
C1521 C1526 1.390 . S
C1522 C1516 1.465 . S
C1522 C1521 1.396 . S
C1522 C1523 1.399 . S
C1523 H1509 0.929 . S
C1523 C1522 1.399 . S
C1523 C1524 1.385 . S
C1524 H1510 0.931 . S
C1524 C1523 1.385 . S
C1524 C1525 1.389 . S
C1525 C1524 1.389 . S
C1525 C1526 1.387 . S
C1526 H1511 0.930 . S
C1526 C1521 1.390 . S
C1526 C1525 1.387 . S
H1527 C1539 0.930 . S
H1528 C1541 0.930 . S
H1529 C1542 0.930 . S
H1530 C1546 0.959 . S
H1531 C1546 0.959 . S
H1532 C1546 0.961 . S
H1533 C1547 0.960 . S
H1534 C1547 0.961 . S
H1535 C1547 0.959 . S
H1536 C1550 0.929 . S
H1537 C1551 0.931 . S
H1538 C1553 0.930 . S
C1539 H1527 0.930 . S
C1539 C1540 1.399 . S
C1539 C1544 1.399 . S
C1540 C1539 1.399 . S
C1540 C1541 1.376 . S
C1541 H1528 0.930 . S
C1541 C1540 1.376 . S
C1541 C1542 1.388 . S
C1542 H1529 0.930 . S
C1542 C1541 1.388 . S
C1542 C1543 1.390 . S
C1543 C1542 1.390 . S
C1543 C1544 1.394 . S
C1543 C1549 1.465 . S
C1544 C1539 1.399 . S
C1544 C1543 1.394 . S
C1544 C1545 1.516 . S
C1545 C1544 1.516 . S
C1545 C1546 1.502 . S
C1545 C1547 1.561 . S
C1545 C1548 1.526 . S
C1546 H1530 0.959 . S
C1546 H1531 0.959 . S
C1546 H1532 0.961 . S
C1546 C1545 1.502 . S
C1547 H1533 0.960 . S
C1547 H1534 0.961 . S
C1547 H1535 0.959 . S
C1547 C1545 1.561 . S
C1548 C1545 1.526 . S
C1548 C1549 1.396 . S
C1548 C1553 1.390 . S
C1549 C1543 1.465 . S
C1549 C1548 1.396 . S
C1549 C1550 1.399 . S
C1550 H1536 0.929 . S
C1550 C1549 1.399 . S
C1550 C1551 1.385 . S
C1551 H1537 0.931 . S
C1551 C1550 1.385 . S
C1551 C1552 1.389 . S
C1552 C1551 1.389 . S
C1552 C1553 1.387 . S
C1553 H1538 0.930 . S
C1553 C1548 1.390 . S
C1553 C1552 1.387 . S
H1554 C1566 0.930 . S
H1555 C1568 0.930 . S
H1556 C1569 0.930 . S
H1557 C1573 0.959 . S
H1558 C1573 0.959 . S
H1559 C1573 0.961 . S
H1560 C1574 0.960 . S
H1561 C1574 0.961 . S
H1562 C1574 0.959 . S
H1563 C1577 0.929 . S
H1564 C1578 0.931 . S
H1565 C1580 0.930 . S
C1566 H1554 0.930 . S
C1566 C1567 1.399 . S
C1566 C1571 1.399 . S
C1567 C1566 1.399 . S
C1567 C1568 1.376 . S
C1568 H1555 0.930 . S
C1568 C1567 1.376 . S
C1568 C1569 1.388 . S
C1569 H1556 0.930 . S
C1569 C1568 1.388 . S
C1569 C1570 1.390 . S
C1570 C1569 1.390 . S
C1570 C1571 1.394 . S
C1570 C1576 1.465 . S
C1571 C1566 1.399 . S
C1571 C1570 1.394 . S
C1571 C1572 1.516 . S
C1572 C1571 1.516 . S
C1572 C1573 1.502 . S
C1572 C1574 1.561 . S
C1572 C1575 1.526 . S
C1573 H1557 0.959 . S
C1573 H1558 0.959 . S
C1573 H1559 0.961 . S
C1573 C1572 1.502 . S
C1574 H1560 0.960 . S
C1574 H1561 0.961 . S
C1574 H1562 0.959 . S
C1574 C1572 1.561 . S
C1575 C1572 1.526 . S
C1575 C1576 1.396 . S
C1575 C1580 1.390 . S
C1576 C1570 1.465 . S
C1576 C1575 1.396 . S
C1576 C1577 1.399 . S
C1577 H1563 0.929 . S
C1577 C1576 1.399 . S
C1577 C1578 1.385 . S
C1578 H1564 0.931 . S
C1578 C1577 1.385 . S
C1578 C1579 1.389 . S
C1579 C1578 1.389 . S
C1579 C1580 1.387 . S
C1580 H1565 0.930 . S
C1580 C1575 1.390 . S
C1580 C1579 1.387 . S
H1581 C1593 0.930 . S
H1582 C1595 0.930 . S
H1583 C1596 0.930 . S
H1584 C1600 0.959 . S
H1585 C1600 0.959 . S
H1586 C1600 0.961 . S
H1587 C1601 0.960 . S
H1588 C1601 0.961 . S
H1589 C1601 0.959 . S
H1590 C1604 0.929 . S
H1591 C1605 0.931 . S
H1592 C1607 0.930 . S
C1593 H1581 0.930 . S
C1593 C1594 1.399 . S
C1593 C1598 1.399 . S
C1594 C1593 1.399 . S
C1594 C1595 1.376 . S
C1595 H1582 0.930 . S
C1595 C1594 1.376 . S
C1595 C1596 1.388 . S
C1596 H1583 0.930 . S
C1596 C1595 1.388 . S
C1596 C1597 1.390 . S
C1597 C1596 1.390 . S
C1597 C1598 1.394 . S
C1597 C1603 1.465 . S
C1598 C1593 1.399 . S
C1598 C1597 1.394 . S
C1598 C1599 1.516 . S
C1599 C1598 1.516 . S
C1599 C1600 1.502 . S
C1599 C1601 1.561 . S
C1599 C1602 1.526 . S
C1600 H1584 0.959 . S
C1600 H1585 0.959 . S
C1600 H1586 0.961 . S
C1600 C1599 1.502 . S
C1601 H1587 0.960 . S
C1601 H1588 0.961 . S
C1601 H1589 0.959 . S
C1601 C1599 1.561 . S
C1602 C1599 1.526 . S
C1602 C1603 1.396 . S
C1602 C1607 1.390 . S
C1603 C1597 1.465 . S
C1603 C1602 1.396 . S
C1603 C1604 1.399 . S
C1604 H1590 0.929 . S
C1604 C1603 1.399 . S
C1604 C1605 1.385 . S
C1605 H1591 0.931 . S
C1605 C1604 1.385 . S
C1605 C1606 1.389 . S
C1606 C1605 1.389 . S
C1606 C1607 1.387 . S
C1607 H1592 0.930 . S
C1607 C1602 1.390 . S
C1607 C1606 1.387 . S
C541 C8 1.666 . S
C553 C206 1.610 . S
C568 C239 1.571 . S
C580 C41 1.668 . S
C595 C140 1.575 . S
C607 C74 1.634 . S
C622 C173 1.608 . S
C634 C107 1.667 . S
C649 C272 1.656 . S
C661 C470 1.580 . S
C676 C305 1.568 . S
C688 C503 1.671 . S
C703 C404 1.640 . S
C715 C338 1.594 . S
C730 C371 1.576 . S
C742 C437 1.659 . S
C757 N269 2.089 . S
C769 N5 2.131 . S
C784 N302 2.086 . S
C796 N38 2.126 . S
C811 N335 2.116 . S
C823 N71 2.094 . S
C838 N368 2.131 . S
C850 N104 2.091 . S
C865 N401 2.121 . S
C877 N137 2.091 . S
C892 N434 2.086 . S
C904 N170 2.126 . S
C919 N203 2.123 . S
C931 N467 2.101 . S
C946 N236 2.133 . S
C958 N500 2.084 . S
C973 C314 0.727 . S
C985 C28 0.673 . S
C1000 C347 0.688 . S
C1012 C61 0.646 . S
C1027 C380 0.661 . S
C1039 C94 0.632 . S
C1054 C281 0.763 . S
C1066 C127 0.768 . S
C1081 C160 0.705 . S
C1093 C512 0.658 . S
C1108 C193 0.663 . S
C1120 C413 0.715 . S
C1135 C226 0.723 . S
C1147 C446 0.680 . S
C1162 C259 0.682 . S
C1174 C479 0.634 . S
C1189 C50 0.773 . S
C1201 C292 0.753 . S
C1216 C83 0.613 . S
C1228 C325 0.627 . S
C1243 C116 0.669 . S
C1255 C358 0.670 . S
C1270 C17 0.781 . S
C1282 C391 0.760 . S
C1297 C248 0.678 . S
C1309 C424 0.679 . S
C1324 C149 0.793 . S
C1336 C457 0.769 . S
C1351 C182 0.717 . S
C1363 C490 0.710 . S
C1378 C523 0.693 . S
C1390 C215 0.696 . S
C1405 N80 0.670 . S
C1417 N14 0.754 . S
C1432 N113 0.491 . S
C1444 N47 0.564 . S
C1459 N146 0.709 . S
C1471 N212 0.562 . S
C1486 N245 0.700 . S
C1498 N179 0.753 . S
C1513 N278 0.558 . S
C1525 N344 0.504 . S
C1540 N377 0.756 . S
C1552 N311 0.726 . S
C1567 N410 0.561 . S
C1579 N476 0.505 . S
C1594 N443 0.498 . S
C1606 N509 0.495 . S
