# Generated by pormake.
# Topology umy, (4)-cn, num edge types: 1
# Building blocks:
#     Node 0, Type 0, BuildingBlock: GALJAG_clean_sbu_0, # of connection points: 4
#     Node 1, Type 0, BuildingBlock: GALJAG_clean_sbu_0, # of connection points: 4
#     Node 2, Type 0, BuildingBlock: GALJAG_clean_sbu_0, # of connection points: 4
#     Node 3, Type 0, BuildingBlock: GALJAG_clean_sbu_0, # of connection points: 4
#     Node 4, Type 0, BuildingBlock: GALJAG_clean_sbu_0, # of connection points: 4
#     Node 5, Type 0, BuildingBlock: GALJAG_clean_sbu_0, # of connection points: 4
#     Node 6, Type 0, BuildingBlock: GALJAG_clean_sbu_0, # of connection points: 4
#     Node 7, Type 0, BuildingBlock: GALJAG_clean_sbu_0, # of connection points: 4
#     Node 8, Type 0, BuildingBlock: GALJAG_clean_sbu_0, # of connection points: 4
#     Node 9, Type 0, BuildingBlock: GALJAG_clean_sbu_0, # of connection points: 4
#     Node 10, Type 0, BuildingBlock: GALJAG_clean_sbu_0, # of connection points: 4
#     Node 11, Type 0, BuildingBlock: GALJAG_clean_sbu_0, # of connection points: 4
#     Edge 12, Type (0, 0), BuildingBlock: XIVTED_clean_linker_0, # of connection points: 2
#     Edge 13, Type (0, 0), BuildingBlock: XIVTED_clean_linker_0, # of connection points: 2
#     Edge 14, Type (0, 0), BuildingBlock: XIVTED_clean_linker_0, # of connection points: 2
#     Edge 15, Type (0, 0), BuildingBlock: XIVTED_clean_linker_0, # of connection points: 2
#     Edge 16, Type (0, 0), BuildingBlock: XIVTED_clean_linker_0, # of connection points: 2
#     Edge 17, Type (0, 0), BuildingBlock: XIVTED_clean_linker_0, # of connection points: 2
#     Edge 18, Type (0, 0), BuildingBlock: XIVTED_clean_linker_0, # of connection points: 2
#     Edge 19, Type (0, 0), BuildingBlock: XIVTED_clean_linker_0, # of connection points: 2
#     Edge 20, Type (0, 0), BuildingBlock: XIVTED_clean_linker_0, # of connection points: 2
#     Edge 21, Type (0, 0), BuildingBlock: XIVTED_clean_linker_0, # of connection points: 2
#     Edge 22, Type (0, 0), BuildingBlock: XIVTED_clean_linker_0, # of connection points: 2
#     Edge 23, Type (0, 0), BuildingBlock: XIVTED_clean_linker_0, # of connection points: 2
#     Edge 24, Type (0, 0), BuildingBlock: XIVTED_clean_linker_0, # of connection points: 2
#     Edge 25, Type (0, 0), BuildingBlock: XIVTED_clean_linker_0, # of connection points: 2
#     Edge 26, Type (0, 0), BuildingBlock: XIVTED_clean_linker_0, # of connection points: 2
#     Edge 27, Type (0, 0), BuildingBlock: XIVTED_clean_linker_0, # of connection points: 2
#     Edge 28, Type (0, 0), BuildingBlock: XIVTED_clean_linker_0, # of connection points: 2
#     Edge 29, Type (0, 0), BuildingBlock: XIVTED_clean_linker_0, # of connection points: 2
#     Edge 30, Type (0, 0), BuildingBlock: XIVTED_clean_linker_0, # of connection points: 2
#     Edge 31, Type (0, 0), BuildingBlock: XIVTED_clean_linker_0, # of connection points: 2
#     Edge 32, Type (0, 0), BuildingBlock: XIVTED_clean_linker_0, # of connection points: 2
#     Edge 33, Type (0, 0), BuildingBlock: XIVTED_clean_linker_0, # of connection points: 2
#     Edge 34, Type (0, 0), BuildingBlock: XIVTED_clean_linker_0, # of connection points: 2
#     Edge 35, Type (0, 0), BuildingBlock: XIVTED_clean_linker_0, # of connection points: 2
# Relax obj value: 0.077
# Max RMSD: 0.076
# Mean RMSD: 0.075
data_MOF--net-umy--node1-GALJAG_clean_sbu_0--edge1-XIVTED_clean_linker_0
_symmetry_space_group_name_H-M    P1
_symmetry_Int_Tables_number       1
_symmetry_cell_setting            triclinic
loop_
_symmetry_equiv_pos_as_xyz
'x, y, z'
_cell_length_a     35.80264
_cell_length_b     35.814044
_cell_length_c     60.239745
_cell_angle_alpha  90.126056
_cell_angle_beta   89.995209
_cell_angle_gamma 120.00512
loop_
_atom_site_label
_atom_site_type_symbol
_atom_site_fract_x
_atom_site_fract_y
_atom_site_fract_z
_atom_type_partial_charge
In0 In 0.03522 0.3249 0.13907 0.0
O1 O 0.0417 0.28669 0.11026 0.0
O2 O 0.09724 0.34494 0.1205 0.0
C3 C 0.95705 0.26866 0.15553 0.0
C4 C 0.02173 0.38385 0.11881 0.0
C5 C 0.08218 0.33638 0.17606 0.0
O6 O 0.97914 0.25632 0.14468 0.0
O7 O 0.97365 0.30898 0.15711 0.0
O8 O 0.08289 0.36764 0.166 0.0
O9 O 0.05869 0.30004 0.1672 0.0
C10 C 0.08122 0.31342 0.10723 0.0
O11 O 0.03816 0.38985 0.13797 0.0
O12 O 0.01161 0.34796 0.11007 0.0
In13 In 0.69952 0.03594 0.3048 0.0
O14 O 0.63685 0.0376 0.30569 0.0
O15 O 0.64797 0.00694 0.27812 0.0
C16 C 0.73877 0.08429 0.34105 0.0
C17 C 0.74924 0.08255 0.27065 0.0
C18 C 0.68347 0.95907 0.32061 0.0
O19 O 0.70422 0.08059 0.33343 0.0
O20 O 0.75363 0.06459 0.33013 0.0
O21 O 0.71689 0.98294 0.30943 0.0
O22 O 0.65778 0.97324 0.32287 0.0
C23 C 0.62347 0.01827 0.28731 0.0
O24 O 0.74273 0.0452 0.27484 0.0
O25 O 0.73177 0.09638 0.28397 0.0
In26 In 0.65435 0.71429 0.47703 0.0
O27 O 0.58319 0.66601 0.47214 0.0
O28 O 0.62878 0.6533 0.45614 0.0
C29 C 0.64675 0.75426 0.51334 0.0
C30 C 0.66562 0.76363 0.44116 0.0
C31 C 0.71119 0.69443 0.49466 0.0
O32 O 0.61811 0.71659 0.50788 0.0
O33 O 0.67848 0.77175 0.5003 0.0
O34 O 0.72318 0.72836 0.48347 0.0
O35 O 0.67087 0.6703 0.49624 0.0
C36 C 0.58963 0.64172 0.45942 0.0
O37 O 0.69102 0.74972 0.44547 0.0
O38 O 0.63617 0.75387 0.45524 0.0
In39 In 0.92245 0.63938 0.64531 0.0
O40 O 0.90052 0.56866 0.63958 0.0
O41 O 0.95945 0.61532 0.62462 0.0
C42 C 0.8717 0.63296 0.67985 0.0
C43 C 0.88605 0.65324 0.60952 0.0
C44 C -0.00274 0.69404 0.66548 0.0
O45 O 0.88034 0.60366 0.67531 0.0
O46 O 0.88783 0.66459 0.66674 0.0
O47 O 0.98041 0.7066 0.65102 0.0
O48 O 0.97723 0.65393 0.66898 0.0
C49 C 0.93196 0.57597 0.62724 0.0
O50 O 0.92463 0.67931 0.61501 0.0
O51 O 0.86636 0.62132 0.62222 0.0
In52 In 0.27296 0.93486 0.80876 0.0
O53 O 0.22855 0.925 0.77932 0.0
O54 O 0.23099 0.87066 0.79168 0.0
C55 C 0.29177 0.01354 0.82331 0.0
C56 C 0.34639 0.94909 0.78917 0.0
C57 C 0.239 0.89177 0.84688 0.0
O58 O 0.25727 0.9891 0.81298 0.0
O59 O 0.31722 -0.00099 0.82528 0.0
O60 O 0.2698 0.89072 0.83722 0.0
O61 O 0.22516 0.91348 0.83705 0.0
C62 C 0.21559 0.8852 0.77754 0.0
O63 O 0.33574 0.93314 0.80839 0.0
O64 O 0.32025 0.9582 0.78002 0.0
In65 In 0.32981 0.27102 0.97574 0.0
O66 O 0.39581 0.33193 0.97542 0.0
O67 O 0.35055 0.32428 0.95028 0.0
C68 C 0.33932 0.2281 0.01001 0.0
C69 C 0.32232 0.22221 0.94018 0.0
C70 C 0.27196 0.28822 0.99475 0.0
O71 O 0.36951 0.26444 0.00382 0.0
O72 O 0.30534 0.2134 0.99859 0.0
O73 O 0.2606 0.25647 0.98185 0.0
O74 O 0.31212 0.31168 0.99727 0.0
C75 C 0.38789 0.34713 0.95829 0.0
O76 O 0.29312 0.23061 0.94546 0.0
O77 O 0.35442 0.23765 0.95306 0.0
In78 In 0.65818 0.94687 0.6927 0.0
O79 O 0.69213 0.94056 0.72348 0.0
O80 O 0.63466 0.88531 0.71225 0.0
C81 C 0.71719 0.02435 0.67663 0.0
C82 C 0.59707 0.96051 0.71027 0.0
C83 C 0.65126 0.89981 0.65629 0.0
O84 O 0.7278 0.00151 0.688 0.0
O85 O 0.67711 0.00894 0.6744 0.0
O86 O 0.61931 0.90131 0.66416 0.0
O87 O 0.68583 0.92102 0.66707 0.0
C88 C 0.66438 0.90137 0.72654 0.0
O89 O 0.59215 0.94172 0.69181 0.0
O90 O 0.63314 0.97327 0.71949 0.0
In91 In 0.69906 0.65596 0.85946 0.0
O92 O 0.74281 0.6915 0.889 0.0
O93 O 0.74048 0.63424 0.87732 0.0
C94 C 0.68161 0.716 0.84385 0.0
C95 C 0.62542 0.59689 0.87885 0.0
C96 C 0.73405 0.64467 0.82221 0.0
O97 O 0.71526 0.72588 0.85493 0.0
O98 O 0.65612 0.67605 0.84171 0.0
O99 O 0.70285 0.61347 0.83197 0.0
O100 O 0.74775 0.68077 0.8315 0.0
C101 C 0.75559 0.66462 0.89128 0.0
O102 O 0.63592 0.5919 0.85952 0.0
O103 O 0.6516 0.63201 0.88815 0.0
In104 In 0.04576 0.70837 0.02414 0.0
O105 O 0.04851 0.74854 0.05433 0.0
O106 O 0.10262 0.74074 0.04757 0.0
C107 C 0.97143 0.69146 0.00437 0.0
C108 C 0.02739 0.63206 0.04143 0.0
C109 C 0.09979 0.75232 0.99057 0.0
O110 O -0.00931 0.72223 0.01795 0.0
O111 O -0.01111 0.66878 0.00152 0.0
O112 O 0.09278 0.7155 0.99638 0.0
O113 O 0.08051 0.76699 0.00202 0.0
C114 C 0.08565 0.75632 0.06016 0.0
O115 O 0.0513 0.64774 0.02459 0.0
O116 O 0.01219 0.65447 0.04918 0.0
In117 In 0.322 0.04228 0.19213 0.0
O118 O 0.38609 0.04319 0.19254 0.0
O119 O 0.34508 0.01792 0.22076 0.0
C120 C 0.33107 0.08534 0.154 0.0
C121 C 0.31606 0.09291 0.22338 0.0
C122 C 0.26153 0.96377 0.1777 0.0
O123 O 0.36278 0.08555 0.16335 0.0
O124 O 0.29573 0.06443 0.16413 0.0
O125 O 0.25178 0.9885 0.18797 0.0
O126 O 0.30145 0.97796 0.1757 0.0
C127 C 0.38033 0.02679 0.21167 0.0
O128 O 0.28828 0.05337 0.22157 0.0
O129 O 0.34601 0.10668 0.20925 0.0
In130 In 0.27602 0.34526 0.35369 0.0
O131 O 0.23835 0.30683 0.38435 0.0
O132 O 0.23776 0.36425 0.37611 0.0
C133 C 0.29502 0.28906 0.33438 0.0
C134 C 0.3494 0.40889 0.37132 0.0
C135 C 0.2322 0.35089 0.31869 0.0
O136 O 0.2656 0.27743 0.34878 0.0
O137 O 0.31572 0.32903 0.33053 0.0
O138 O 0.2702 0.38017 0.32317 0.0
O139 O 0.2164 0.31973 0.33208 0.0
C140 C 0.22559 0.33296 0.38924 0.0
O141 O 0.32537 0.41604 0.35882 0.0
O142 O 0.33715 0.36956 0.37437 0.0
In143 In 0.92925 0.27164 0.51969 0.0
O144 O 0.90773 0.32108 0.52414 0.0
O145 O 0.96474 0.33202 0.54095 0.0
C146 C 0.88183 0.2301 0.48361 0.0
C147 C 0.89005 0.22232 0.5554 0.0
C148 C 0.00623 0.29251 0.50209 0.0
O149 O 0.88939 0.26734 0.48901 0.0
O150 O 0.89742 0.21384 0.49658 0.0
O151 O 0.98545 0.25943 0.51406 0.0
O152 O -0.01127 0.3153 0.4997 0.0
C153 C 0.93806 0.34458 0.53727 0.0
O154 O 0.92916 0.23514 0.55108 0.0
O155 O 0.8711 0.23318 0.54143 0.0
H156 H -0.00385 0.60368 0.08298 0.0
H157 H 0.00895 0.38821 0.0745 0.0
H158 H 0.0424 0.56992 0.02443 0.0
H159 H 0.02317 0.45489 0.13642 0.0
H160 H 0.00525 0.4462 0.05492 0.0
H161 H -0.01023 0.54019 0.10178 0.0
C162 C 0.0045 0.58262 0.07401 0.0
C163 C 0.02006 0.59207 0.05218 0.0
C164 C 0.00894 0.44791 0.0728 0.0
C165 C 0.01257 0.51958 0.07349 0.0
C166 C 0.01087 0.41486 0.08398 0.0
C167 C 0.01661 0.41703 0.10707 0.0
C168 C 0.01202 0.48287 0.08488 0.0
C169 C 0.01902 0.45223 0.11858 0.0
C170 C 0.00104 0.54661 0.08477 0.0
C171 C 0.03053 0.56385 0.04132 0.0
N172 N 0.01663 0.48382 0.10735 0.0
N173 N 0.02656 0.52875 0.0521 0.0
H174 H 0.59826 -0.00463 0.24434 0.0
H175 H 0.3834 0.00941 0.25547 0.0
H176 H 0.55919 0.02834 0.30566 0.0
H177 H 0.45115 0.0285 0.19354 0.0
H178 H 0.43978 0.00175 0.27434 0.0
H179 H 0.53605 -0.00753 0.22577 0.0
C180 C 0.57629 0.00149 0.25395 0.0
C181 C 0.58392 0.01236 0.27653 0.0
C182 C 0.44214 0.00742 0.25661 0.0
C183 C 0.51289 0.00899 0.25543 0.0
C184 C 0.40999 0.01165 0.24583 0.0
C185 C 0.41287 0.01986 0.22295 0.0
C186 C 0.47702 0.01081 0.24435 0.0
C187 C 0.44794 0.0225 0.21123 0.0
C188 C 0.54099 5e-05 0.24332 0.0
C189 C 0.55454 0.02009 0.28818 0.0
N190 N 0.4787 0.01794 0.22207 0.0
N191 N 0.52026 0.01829 0.27749 0.0
H192 H 0.59152 0.57448 0.43887 0.0
H193 H 0.36753 0.49155 0.37767 0.0
H194 H 0.50785 0.62608 0.45281 0.0
H195 H 0.41555 0.40506 0.3919 0.0
H196 H 0.42628 0.54741 0.39982 0.0
H197 H 0.53351 0.51681 0.41685 0.0
C198 C 0.56086 0.57347 0.4374 0.0
C199 C 0.55429 0.6049 0.44767 0.0
C200 C 0.42397 0.51622 0.39802 0.0
C201 C 0.48869 0.54009 0.42225 0.0
C202 C 0.39074 0.4845 0.38526 0.0
C203 C 0.38676 0.44371 0.38302 0.0
C204 C 0.45383 0.50729 0.40825 0.0
C205 C 0.41751 0.43614 0.39331 0.0
C206 C 0.52792 0.54066 0.42488 0.0
C207 C 0.5141 0.60228 0.44525 0.0
N208 N 0.44999 0.46777 0.40545 0.0
N209 N 0.48293 0.57069 0.43257 0.0
H210 H 0.86674 0.4941 0.61971 0.0
H211 H 0.00703 0.41034 0.55868 0.0
H212 H 0.00213 0.57958 0.607 0.0
H213 H 0.87282 0.36183 0.54321 0.0
H214 H 0.00702 0.46777 0.58105 0.0
H215 H 0.86936 0.43882 0.59692 0.0
C216 C 0.89712 0.50103 0.61232 0.0
C217 C 0.93429 0.54138 0.61518 0.0
C218 C 0.97775 0.44467 0.5726 0.0
C219 C 0.93746 0.47846 0.58922 0.0
C220 C 0.97771 0.41201 0.55988 0.0
C221 C 0.93988 0.38148 0.54909 0.0
C222 C 0.93944 0.44598 0.57492 0.0
C223 C 0.90271 0.38491 0.55117 0.0
C224 C 0.89849 0.46966 0.59919 0.0
C225 C 0.97276 0.54883 0.60512 0.0
N226 N 0.90327 0.41632 0.56407 0.0
N227 N 0.97345 0.51752 0.59262 0.0
H228 H 0.52178 0.9478 0.69182 0.0
H229 H 0.41523 0.94711 0.80744 0.0
H230 H 0.5931 0.98159 0.75336 0.0
H231 H 0.36645 0.96491 0.74524 0.0
H232 H 0.47865 0.95458 0.78795 0.0
H233 H 0.46212 0.94916 0.71102 0.0
C234 C 0.52496 0.9558 0.70932 0.0
C235 C 0.56229 0.96452 0.72106 0.0
C236 C 0.45419 0.95715 0.77862 0.0
C237 C 0.49422 0.96551 0.74311 0.0
C238 C 0.41798 0.95274 0.7897 0.0
C239 C 0.38562 0.95532 0.7779 0.0
C240 C 0.4576 0.96344 0.75554 0.0
C241 C 0.39076 0.96277 0.75495 0.0
C242 C 0.49101 0.95665 0.72025 0.0
C243 C 0.56486 0.97474 0.74371 0.0
N244 N 0.4259 0.96616 0.74445 0.0
N245 N 0.53105 0.9745 0.75407 0.0
H246 H 0.4644 0.40985 0.97561 0.0
H247 H 0.55624 0.52629 0.8606 0.0
H248 H 0.38563 0.37523 0.91658 0.0
H249 H 0.60787 0.59047 0.92317 0.0
H250 H 0.49553 0.46775 0.88045 0.0
H251 H 0.52011 0.47391 0.95645 0.0
C252 C 0.45877 0.41591 0.95867 0.0
C253 C 0.42051 0.38728 0.94761 0.0
C254 C 0.51996 0.49488 0.88979 0.0
C255 C 0.48403 0.45983 0.9256 0.0
C256 C 0.55459 0.52815 0.87849 0.0
C257 C 0.58704 0.56311 0.8903 0.0
C258 C 0.51833 0.49626 0.91305 0.0
C259 C 0.58342 0.56407 0.91346 0.0
C260 C 0.49044 0.45246 0.9478 0.0
C261 C 0.41471 0.39659 0.9257 0.0
N262 N 0.54991 0.53083 0.92413 0.0
N263 N 0.44637 0.43185 0.9153 0.0
H264 H 0.0559 0.24852 0.07637 0.0
H265 H 0.28948 0.35805 0.02002 0.0
H266 H 0.16477 0.36982 0.09684 0.0
H267 H 0.18492 0.2337 -0.0001 0.0
H268 H 0.24118 0.36533 0.04582 0.0
H269 H 0.10001 0.24405 0.0464 0.0
C270 C 0.08904 0.27415 0.07455 0.0
C271 C 0.10684 0.30945 0.08916 0.0
C272 C 0.22856 0.33653 0.03568 0.0
C273 C 0.15715 0.30478 0.05497 0.0
C274 C 0.25613 0.33244 0.02087 0.0
C275 C 0.24121 0.2951 0.00793 0.0
C276 C 0.18572 0.30287 0.03774 0.0
C277 C 0.19767 0.26301 0.00962 0.0
C278 C 0.11412 0.27165 0.05744 0.0
C279 C 0.1498 0.34189 0.08604 0.0
N280 N 0.17146 0.26743 0.02446 0.0
N281 N 0.17344 0.33872 0.06933 0.0
H282 H 0.74968 0.15238 0.25298 0.0
H283 H 0.90466 0.28888 0.17887 0.0
H284 H 0.80425 0.06989 0.24406 0.0
H285 H 0.92213 0.18159 0.16174 0.0
H286 H 0.84923 0.24373 0.20501 0.0
H287 H 0.79122 0.19536 0.22164 0.0
C288 C 0.771 0.14371 0.24453 0.0
C289 C 0.7742 0.10805 0.25136 0.0
C290 C 0.86384 0.22918 0.19519 0.0
C291 C 0.82364 0.15836 0.21574 0.0
C292 C 0.89594 0.25532 0.18024 0.0
C293 C 0.91812 0.23901 0.16817 0.0
C294 C 0.85355 0.1861 0.1981 0.0
C295 C 0.90572 0.1954 0.17072 0.0
C296 C 0.79515 0.16858 0.22663 0.0
C297 C 0.80131 0.09751 0.23946 0.0
N298 N 0.87458 0.17057 0.18562 0.0
N299 N 0.82534 0.12284 0.22233 0.0
H300 H 0.7304 0.79822 0.40993 0.0
H301 H 0.61048 0.8982 0.34078 0.0
H302 H 0.60617 0.78318 0.42609 0.0
H303 H 0.74337 0.93456 0.32934 0.0
H304 H 0.60458 0.84461 0.3675 0.0
H305 H 0.73278 0.83899 0.37661 0.0
C306 C 0.70366 0.8034 0.40643 0.0
C307 C 0.66827 0.7878 0.42088 0.0
C308 C 0.63497 0.86392 0.359 0.0
C309 C 0.67045 0.83351 0.38289 0.0
C310 C 0.63826 0.89437 0.34365 0.0
C311 C 0.67761 0.92115 0.33307 0.0
C312 C 0.67143 0.86046 0.36403 0.0
C313 C 0.71248 0.9146 0.33725 0.0
C314 C 0.70498 0.82651 0.38744 0.0
C315 C 0.63433 0.79507 0.41555 0.0
N316 N 0.7088 0.88526 0.3527 0.0
N317 N 0.63632 0.81741 0.39705 0.0
H318 H 0.69365 0.61925 0.51435 0.0
H319 H 0.91613 0.72316 0.58159 0.0
H320 H 0.79681 0.74958 0.50365 0.0
H321 H 0.80776 0.59574 0.59262 0.0
H322 H 0.87742 0.7316 0.55005 0.0
H323 H 0.73994 0.60761 0.53958 0.0
C324 C 0.72631 0.64529 0.51713 0.0
C325 C 0.74133 0.68554 0.50709 0.0
C326 C 0.86234 0.70172 0.55932 0.0
C327 C 0.79443 0.67277 0.53631 0.0
C328 C 0.88437 0.69694 0.57729 0.0
C329 C 0.86488 0.6589 0.58984 0.0
C330 C 0.82076 0.66811 0.55391 0.0
C331 C 0.82382 0.62581 0.58355 0.0
C332 C 0.75275 0.6387 0.5316 0.0
C333 C 0.78401 0.71807 0.51114 0.0
N334 N 0.80312 0.63128 0.56612 0.0
N335 N 0.80899 0.71117 0.5257 0.0
H336 H 0.0389 0.78239 0.6661 0.0
H337 H 0.18437 0.79941 0.77085 0.0
H338 H 0.03998 0.67371 0.69621 0.0
H339 H 0.17912 0.90844 0.74418 0.0
H340 H 0.13532 0.75402 0.74171 0.0
H341 H 0.09493 0.83042 0.69228 0.0
C342 C 0.05135 0.76872 0.67802 0.0
C343 C 0.03468 0.72402 0.67908 0.0
C344 C 0.14487 0.78787 0.74217 0.0
C345 C 0.09827 0.77855 0.70914 0.0
C346 C 0.17283 0.8138 0.75884 0.0
C347 C 0.18563 0.8577 0.75999 0.0
C348 C 0.12949 0.80589 0.72647 0.0
C349 C 0.16985 0.87467 0.74394 0.0
C350 C 0.08313 0.7961 0.69302 0.0
C351 C 0.0518 0.70797 0.69487 0.0
N352 N 0.14249 0.84869 0.72784 0.0
N353 N 0.08245 0.73518 0.70934 0.0
H354 H 0.23461 0.04218 0.83038 0.0
H355 H 0.38482 0.20782 0.92384 0.0
H356 H 0.36521 0.07284 0.84414 0.0
H357 H 0.25451 0.17939 0.91127 0.0
H358 H 0.38028 0.16425 0.89177 0.0
H359 H 0.24368 0.09881 0.85643 0.0
C360 C 0.26546 0.06143 0.83853 0.0
C361 C 0.29908 0.05258 0.83531 0.0
C362 C 0.35267 0.16761 0.8959 0.0
C363 C 0.30947 0.11677 0.86526 0.0
C364 C 0.35521 0.19239 0.91428 0.0
C365 C 0.31981 0.19681 0.92035 0.0
C366 C 0.31431 0.14673 0.88351 0.0
C367 C 0.28243 0.17651 0.90723 0.0
C368 C 0.27053 0.09354 0.85349 0.0
C369 C 0.33832 0.07835 0.8463 0.0
N370 N 0.2805 0.15201 0.88949 0.0
N371 N 0.34227 0.10894 0.86095 0.0
H372 H 0.73867 0.80237 0.83878 0.0
H373 H 0.60348 0.82002 0.7381 0.0
H374 H 0.6115 0.70173 0.81962 0.0
H375 H 0.72669 0.92581 0.75875 0.0
H376 H 0.60444 0.7783 0.7697 0.0
H377 H 0.73289 0.85074 0.81206 0.0
C378 C 0.70921 0.79074 0.82927 0.0
C379 C 0.67565 0.74789 0.83124 0.0
C380 C 0.63127 0.81068 0.76744 0.0
C381 C 0.66911 0.80265 0.8005 0.0
C382 C 0.63082 0.83446 0.74931 0.0
C383 C 0.66524 0.87629 0.74571 0.0
C384 C 0.66656 0.82865 0.78207 0.0
C385 C 0.69963 0.89353 0.76088 0.0
C386 C 0.70603 0.81826 0.81394 0.0
C387 C 0.63828 0.73442 0.81851 0.0
N388 N 0.69957 0.8695 0.77836 0.0
N389 N 0.63622 0.76155 0.80353 0.0
H390 H 0.78346 0.6081 0.89996 0.0
H391 H 0.93573 0.74357 0.00143 0.0
H392 H 0.794 0.72694 0.92346 0.0
H393 H 0.92315 0.62483 0.97636 0.0
H394 H 0.87999 0.73597 0.97514 0.0
H395 H 0.83156 0.61214 0.92959 0.0
C396 C 0.79598 0.63513 0.91138 0.0
C397 C 0.78495 0.66738 0.90919 0.0
C398 C 0.88919 0.71142 0.97556 0.0
C399 C 0.84011 0.67221 0.94328 0.0
C400 C 0.9208 0.71562 0.99062 0.0
C401 C 0.93418 0.6849 0.99095 0.0
C402 C 0.871 0.67625 0.9608 0.0
C403 C 0.91397 0.6494 0.97657 0.0
C404 C 0.82338 0.63737 0.92835 0.0
C405 C 0.8019 0.70151 0.92453 0.0
N406 N 0.88363 0.64622 0.96201 0.0
N407 N 0.82883 0.70314 0.94092 0.0
H408 H 0.17621 0.9365 0.16984 0.0
H409 H 0.16084 0.76859 0.07783 0.0
H410 H 0.27474 0.90307 0.15787 0.0
H411 H 0.06055 0.80014 0.0883 0.0
H412 H 0.19881 0.81158 0.11024 0.0
H413 H 0.12875 0.87986 0.14375 0.0
C414 C 0.18749 0.91662 0.16209 0.0
C415 C 0.22959 0.92472 0.1658 0.0
C416 C 0.1684 0.80903 0.10558 0.0
C417 C 0.17592 0.86053 0.13582 0.0
C418 C 0.14677 0.78458 0.087 0.0
C419 C 0.10776 0.78124 0.08024 0.0
C420 C 0.15114 0.83069 0.11746 0.0
C421 C 0.09076 0.8022 0.09289 0.0
C422 C 0.16052 0.88452 0.1471 0.0
C423 C 0.24266 0.89818 0.15531 0.0
N424 N 0.11278 0.82641 0.11082 0.0
N425 N 0.21611 0.86761 0.14063 0.0
H426 H 0.37287 0.17816 0.23012 0.0
H427 H 0.24647 0.2008 0.33422 0.0
H428 H 0.25643 0.0715 0.25666 0.0
H429 H 0.35815 0.30726 0.30399 0.0
H430 H 0.25306 0.15139 0.30842 0.0
H431 H 0.37082 0.22457 0.25915 0.0
C432 C 0.34681 0.1645 0.24208 0.0
C433 C 0.31462 0.12098 0.24092 0.0
C434 C 0.27632 0.18552 0.30758 0.0
C435 C 0.31212 0.17398 0.27432 0.0
C436 C 0.27272 0.21368 0.32237 0.0
C437 C 0.30169 0.25818 0.32114 0.0
C438 C 0.30914 0.20208 0.29151 0.0
C439 C 0.33499 0.2732 0.30544 0.0
C440 C 0.3457 0.19102 0.25869 0.0
C441 C 0.28175 0.10497 0.25691 0.0
N442 N 0.33764 0.24525 0.29117 0.0
N443 N 0.28127 0.13152 0.27295 0.0
H444 H 0.18683 0.26471 0.41823 0.0
H445 H 0.06149 0.36663 0.48075 0.0
H446 H 0.20266 0.39002 0.40445 0.0
H447 H 0.03981 0.23934 0.49513 0.0
H448 H 0.1201 0.37846 0.45598 0.0
H449 H 0.13878 0.25688 0.44921 0.0
C450 C 0.1804 0.29062 0.42181 0.0
C451 C 0.19833 0.32786 0.40865 0.0
C452 C 0.10288 0.34802 0.46466 0.0
C453 C 0.14388 0.31931 0.44393 0.0
C454 C 0.06945 0.34132 0.47887 0.0
C455 C 0.04557 0.30182 0.48982 0.0
C456 C 0.11229 0.3148 0.46115 0.0
C457 C 0.05744 0.27024 0.48691 0.0
C458 C 0.15307 0.28618 0.43947 0.0
C459 C 0.18918 0.36056 0.41402 0.0
N460 N 0.0897 0.27719 0.4726 0.0
N461 N 0.1625 0.35542 0.43115 0.0
H462 H 0.8112 0.20387 0.57027 0.0
H463 H 0.80299 0.05289 0.6694 0.0
H464 H 0.91872 0.18618 0.58654 0.0
H465 H 0.70195 0.08116 0.65422 0.0
H466 H 0.84937 0.10683 0.642 0.0
H467 H 0.77365 0.16327 0.60313 0.0
C468 C 0.82692 0.19133 0.58079 0.0
C469 C 0.86794 0.19798 0.57556 0.0
C470 C 0.81729 0.10167 0.64494 0.0
C471 C 0.82497 0.15125 0.6134 0.0
C472 C 0.79092 0.07111 0.66066 0.0
C473 C 0.74844 0.06229 0.66387 0.0
C474 C 0.80085 0.1233 0.63241 0.0
C475 C 0.73434 0.08665 0.65209 0.0
C476 C 0.80551 0.16829 0.59966 0.0
C477 C 0.88696 0.18146 0.58994 0.0
N478 N 0.7603 0.11566 0.63674 0.0
N479 N 0.86511 0.15846 0.60817 0.0
H480 H 0.15476 0.28677 0.30384 0.0
H481 H 0.14393 0.41084 0.1962 0.0
H482 H 0.2563 0.41535 0.28781 0.0
H483 H 0.07263 0.27253 0.2038 0.0
H484 H 0.18036 0.41665 0.23172 0.0
H485 H 0.11813 0.2849 0.26942 0.0
C486 C 0.16922 0.31477 0.29313 0.0
C487 C 0.20873 0.3512 0.29862 0.0
C488 C 0.15679 0.38511 0.22552 0.0
C489 C 0.16694 0.34921 0.25911 0.0
C490 C 0.13601 0.38178 0.20532 0.0
C491 C 0.10536 0.34114 0.19706 0.0
C492 C 0.14622 0.34757 0.23758 0.0
C493 C 0.0962 0.30449 0.2095 0.0
C494 C 0.14838 0.31359 0.27342 0.0
C495 C 0.22594 0.38657 0.28412 0.0
N496 N 0.11637 0.3086 0.22916 0.0
N497 N 0.20491 0.38472 0.26495 0.0
H498 H 0.87508 0.1575 0.46531 0.0
H499 H 0.72142 0.13928 0.36501 0.0
H500 H 0.83597 0.25232 0.45531 0.0
H501 H 0.8025 0.08187 0.36433 0.0
H502 H 0.75513 0.17531 0.40023 0.0
H503 H 0.83958 0.12259 0.43061 0.0
C504 C 0.85878 0.17084 0.45586 0.0
C505 C 0.85854 0.20792 0.46315 0.0
C506 C 0.76554 0.15493 0.39226 0.0
C507 C 0.81777 0.16805 0.42339 0.0
C508 C 0.74634 0.13438 0.37224 0.0
C509 C 0.7593 0.10767 0.36176 0.0
C510 C 0.79726 0.14801 0.40194 0.0
C511 C 0.79166 0.10232 0.37179 0.0
C512 C 0.83871 0.15102 0.43599 0.0
C513 C 0.83699 0.22385 0.4502 0.0
N514 N 0.8093 0.12207 0.39137 0.0
N515 N 0.8173 0.20373 0.43092 0.0
H516 H 0.71886 0.9065 0.63258 0.0
H517 H 0.57857 0.72861 0.54197 0.0
H518 H 0.57978 0.84185 0.63265 0.0
H519 H 0.71073 0.82819 0.53168 0.0
H520 H 0.57811 0.76359 0.57704 0.0
H521 H 0.71648 0.87116 0.59755 0.0
C522 C 0.68776 0.88464 0.62526 0.0
C523 C 0.64943 0.87706 0.63551 0.0
C524 C 0.60706 0.77779 0.56699 0.0
C525 C 0.6465 0.83643 0.59537 0.0
C526 C 0.60737 0.75788 0.54705 0.0
C527 C 0.64476 0.77558 0.53394 0.0
C528 C 0.6446 0.81517 0.57396 0.0
C529 C 0.6812 0.8135 0.54125 0.0
C530 C 0.68644 0.86467 0.6052 0.0
C531 C 0.61006 0.84858 0.62523 0.0
N532 N 0.68029 0.83183 0.56083 0.0
N533 N 0.60955 0.82907 0.60572 0.0
H534 H 0.85815 0.69682 0.69487 0.0
H535 H 0.72027 0.57041 0.80138 0.0
H536 H 0.82996 0.56759 0.71012 0.0
H537 H 0.78912 0.70897 0.79493 0.0
H538 H 0.75107 0.56519 0.76577 0.0
H539 H 0.82244 0.69789 0.7291 0.0
C540 C 0.84414 0.6685 0.70536 0.0
C541 C 0.84721 0.63214 0.69972 0.0
C542 C 0.75937 0.59665 0.77225 0.0
C543 C 0.80633 0.6332 0.73901 0.0
C544 C 0.74183 0.59965 0.79248 0.0
C545 C 0.75234 0.64018 0.8011 0.0
C546 C 0.78694 0.63444 0.76051 0.0
C547 C 0.78034 0.67707 0.78896 0.0
C548 C 0.82394 0.66922 0.72496 0.0
C549 C 0.82841 0.59634 0.71394 0.0
N550 N 0.79649 0.67329 0.76926 0.0
N551 N 0.80874 0.59775 0.73301 0.0
H552 H 0.25316 0.83312 0.86936 0.0
H553 H 0.11343 0.82864 0.97396 0.0
H554 H 0.18479 0.90368 0.87357 0.0
H555 H 0.1444 0.72824 0.96228 0.0
H556 H 0.15027 0.86353 0.93968 0.0
H557 H 0.22287 0.80021 0.90559 0.0
C558 C 0.23184 0.84166 0.8779 0.0
C559 C 0.22126 0.87097 0.86845 0.0
C560 C 0.14919 0.83394 0.94462 0.0
C561 C 0.18724 0.83415 0.90975 0.0
C562 C 0.12832 0.81409 0.96426 0.0
C563 C 0.12561 0.77532 0.9709 0.0
C564 C 0.16773 0.81508 0.93148 0.0
C565 C 0.14563 0.75804 0.95768 0.0
C566 C 0.2146 0.8229 0.8985 0.0
C567 C 0.19359 0.88103 0.88018 0.0
N568 N 0.1658 0.77799 0.9385 0.0
N569 N 0.1777 0.86279 0.9002 0.0
H570 H 0.26474 0.07535 0.12808 0.0
H571 H 0.40846 0.2515 0.03792 0.0
H572 H 0.4038 0.1425 0.13092 0.0
H573 H 0.27536 0.15391 0.02781 0.0
H574 H 0.40853 0.21601 0.07281 0.0
H575 H 0.2687 0.10866 0.09235 0.0
C576 C 0.29619 0.09726 0.12118 0.0
C577 C 0.33401 0.10626 0.13248 0.0
C578 C 0.37951 0.20228 0.0628 0.0
C579 C 0.33881 0.14465 0.09145 0.0
C580 C 0.37944 0.22246 0.04294 0.0
C581 C 0.34179 0.20569 0.03002 0.0
C582 C 0.34152 0.1655 0.06982 0.0
C583 C 0.30507 0.16804 0.03726 0.0
C584 C 0.29843 0.11611 0.1007 0.0
C585 C 0.37388 0.13474 0.1227 0.0
N586 N 0.30578 0.14947 0.05672 0.0
N587 N 0.37529 0.1532 0.10273 0.0
loop_
_geom_bond_atom_site_label_1
_geom_bond_atom_site_label_2
_geom_bond_distance
_geom_bond_site_symmetry_2
_ccdc_geom_bond_type
In0 O1 2.294 . S
In0 O2 2.326 . S
In0 O6 2.266 . S
In0 O7 2.326 . S
In0 O8 2.266 . S
In0 O9 2.326 . S
In0 O11 2.294 . S
In0 O12 2.326 . S
O1 In0 2.294 . S
O1 C10 1.240 . S
O2 In0 2.326 . S
O2 C10 1.252 . S
C3 O6 1.252 1_655 S
C3 O7 1.260 1_655 S
C4 O11 1.240 . S
C4 O12 1.252 . S
C5 O8 1.252 . S
C5 O9 1.260 . S
O6 In0 2.266 . S
O6 C3 1.252 1_455 S
O7 In0 2.326 . S
O7 C3 1.260 1_455 S
O8 In0 2.266 . S
O8 C5 1.252 . S
O9 In0 2.326 . S
O9 C5 1.260 . S
C10 O1 1.240 . S
C10 O2 1.252 . S
O11 In0 2.294 . S
O11 C4 1.240 . S
O12 In0 2.326 . S
O12 C4 1.252 . S
In13 O14 2.294 . S
In13 O15 2.326 . S
In13 O19 2.266 . S
In13 O20 2.326 . S
In13 O21 2.266 . S
In13 O22 2.326 . S
In13 O24 2.294 . S
In13 O25 2.326 . S
O14 In13 2.294 . S
O14 C23 1.240 . S
O15 In13 2.326 . S
O15 C23 1.252 . S
C16 O19 1.252 . S
C16 O20 1.260 . S
C17 O24 1.240 . S
C17 O25 1.252 . S
C18 O21 1.252 1_565 S
C18 O22 1.260 1_565 S
O19 In13 2.266 . S
O19 C16 1.252 . S
O20 In13 2.326 . S
O20 C16 1.260 . S
O21 In13 2.266 . S
O21 C18 1.252 1_545 S
O22 In13 2.326 . S
O22 C18 1.260 1_545 S
C23 O14 1.240 . S
C23 O15 1.252 . S
O24 In13 2.294 . S
O24 C17 1.240 . S
O25 In13 2.326 . S
O25 C17 1.252 . S
In26 O27 2.294 . S
In26 O28 2.326 . S
In26 O32 2.266 . S
In26 O33 2.326 . S
In26 O34 2.266 . S
In26 O35 2.326 . S
In26 O37 2.294 . S
In26 O38 2.326 . S
O27 In26 2.294 . S
O27 C36 1.240 . S
O28 In26 2.326 . S
O28 C36 1.252 . S
C29 O32 1.252 . S
C29 O33 1.260 . S
C30 O37 1.240 . S
C30 O38 1.252 . S
C31 O34 1.252 . S
C31 O35 1.260 . S
O32 In26 2.266 . S
O32 C29 1.252 . S
O33 In26 2.326 . S
O33 C29 1.260 . S
O34 In26 2.266 . S
O34 C31 1.252 . S
O35 In26 2.326 . S
O35 C31 1.260 . S
C36 O27 1.240 . S
C36 O28 1.252 . S
O37 In26 2.294 . S
O37 C30 1.240 . S
O38 In26 2.326 . S
O38 C30 1.252 . S
In39 O40 2.294 . S
In39 O41 2.326 . S
In39 O45 2.266 . S
In39 O46 2.326 . S
In39 O47 2.266 . S
In39 O48 2.326 . S
In39 O50 2.294 . S
In39 O51 2.326 . S
O40 In39 2.294 . S
O40 C49 1.240 . S
O41 In39 2.326 . S
O41 C49 1.252 . S
C42 O45 1.252 . S
C42 O46 1.260 . S
C43 O50 1.240 . S
C43 O51 1.252 . S
C44 O47 1.252 1_455 S
C44 O48 1.260 1_455 S
O45 In39 2.266 . S
O45 C42 1.252 . S
O46 In39 2.326 . S
O46 C42 1.260 . S
O47 In39 2.266 . S
O47 C44 1.252 1_655 S
O48 In39 2.326 . S
O48 C44 1.260 1_655 S
C49 O40 1.240 . S
C49 O41 1.252 . S
O50 In39 2.294 . S
O50 C43 1.240 . S
O51 In39 2.326 . S
O51 C43 1.252 . S
In52 O53 2.294 . S
In52 O54 2.326 . S
In52 O58 2.266 . S
In52 O59 2.326 . S
In52 O60 2.266 . S
In52 O61 2.326 . S
In52 O63 2.294 . S
In52 O64 2.326 . S
O53 In52 2.294 . S
O53 C62 1.240 . S
O54 In52 2.326 . S
O54 C62 1.252 . S
C55 O58 1.252 1_545 S
C55 O59 1.260 1_545 S
C56 O63 1.240 . S
C56 O64 1.252 . S
C57 O60 1.252 . S
C57 O61 1.260 . S
O58 In52 2.266 . S
O58 C55 1.252 1_565 S
O59 In52 2.326 . S
O59 C55 1.260 1_565 S
O60 In52 2.266 . S
O60 C57 1.252 . S
O61 In52 2.326 . S
O61 C57 1.260 . S
C62 O53 1.240 . S
C62 O54 1.252 . S
O63 In52 2.294 . S
O63 C56 1.240 . S
O64 In52 2.326 . S
O64 C56 1.252 . S
In65 O66 2.294 . S
In65 O67 2.326 . S
In65 O71 2.266 1_556 S
In65 O72 2.326 1_556 S
In65 O73 2.266 . S
In65 O74 2.326 1_556 S
In65 O76 2.294 . S
In65 O77 2.326 . S
O66 In65 2.294 . S
O66 C75 1.240 . S
O67 In65 2.326 . S
O67 C75 1.252 . S
C68 O71 1.252 . S
C68 O72 1.260 . S
C69 O76 1.240 . S
C69 O77 1.252 . S
C70 O73 1.220 1_554 S
C70 O74 1.271 . S
O71 In65 2.266 1_554 S
O71 C68 1.252 . S
O72 In65 2.326 1_554 S
O72 C68 1.260 . S
O73 In65 2.266 . S
O73 C70 1.220 1_556 S
O74 In65 2.326 1_554 S
O74 C70 1.271 . S
C75 O66 1.240 . S
C75 O67 1.252 . S
O76 In65 2.294 . S
O76 C69 1.240 . S
O77 In65 2.326 . S
O77 C69 1.252 . S
In78 O79 2.294 . S
In78 O80 2.326 . S
In78 O84 2.266 . S
In78 O85 2.326 . S
In78 O86 2.266 . S
In78 O87 2.326 . S
In78 O89 2.294 . S
In78 O90 2.326 . S
O79 In78 2.294 . S
O79 C88 1.240 . S
O80 In78 2.326 . S
O80 C88 1.252 . S
C81 O84 1.252 1_545 S
C81 O85 1.260 1_545 S
C82 O89 1.240 . S
C82 O90 1.252 . S
C83 O86 1.252 . S
C83 O87 1.260 . S
O84 In78 2.266 . S
O84 C81 1.252 1_565 S
O85 In78 2.326 . S
O85 C81 1.260 1_565 S
O86 In78 2.266 . S
O86 C83 1.252 . S
O87 In78 2.326 . S
O87 C83 1.260 . S
C88 O79 1.240 . S
C88 O80 1.252 . S
O89 In78 2.294 . S
O89 C82 1.240 . S
O90 In78 2.326 . S
O90 C82 1.252 . S
In91 O92 2.294 . S
In91 O93 2.326 . S
In91 O97 2.266 . S
In91 O98 2.326 . S
In91 O99 2.266 . S
In91 O100 2.326 . S
In91 O102 2.294 . S
In91 O103 2.326 . S
O92 In91 2.294 . S
O92 C101 1.240 . S
O93 In91 2.326 . S
O93 C101 1.252 . S
C94 O97 1.252 . S
C94 O98 1.260 . S
C95 O102 1.240 . S
C95 O103 1.252 . S
C96 O99 1.252 . S
C96 O100 1.260 . S
O97 In91 2.266 . S
O97 C94 1.252 . S
O98 In91 2.326 . S
O98 C94 1.260 . S
O99 In91 2.266 . S
O99 C96 1.252 . S
O100 In91 2.326 . S
O100 C96 1.260 . S
C101 O92 1.240 . S
C101 O93 1.252 . S
O102 In91 2.294 . S
O102 C95 1.240 . S
O103 In91 2.326 . S
O103 C95 1.252 . S
In104 O105 2.294 . S
In104 O106 2.326 . S
In104 O110 2.266 . S
In104 O111 2.326 1_554 S
In104 O112 2.266 1_554 S
In104 O113 2.326 1_554 S
In104 O115 2.294 . S
In104 O116 2.326 . S
O105 In104 2.294 . S
O105 C114 1.240 . S
O106 In104 2.326 . S
O106 C114 1.252 . S
C107 O110 1.220 1_656 S
C107 O111 1.271 1_655 S
C108 O115 1.240 . S
C108 O116 1.252 . S
C109 O112 1.252 . S
C109 O113 1.260 . S
O110 In104 2.266 . S
O110 C107 1.220 1_454 S
O111 In104 2.326 1_556 S
O111 C107 1.271 1_455 S
O112 In104 2.266 1_556 S
O112 C109 1.252 . S
O113 In104 2.326 1_556 S
O113 C109 1.260 . S
C114 O105 1.240 . S
C114 O106 1.252 . S
O115 In104 2.294 . S
O115 C108 1.240 . S
O116 In104 2.326 . S
O116 C108 1.252 . S
In117 O118 2.294 . S
In117 O119 2.326 . S
In117 O123 2.266 . S
In117 O124 2.326 . S
In117 O125 2.266 . S
In117 O126 2.326 . S
In117 O128 2.294 . S
In117 O129 2.326 . S
O118 In117 2.294 . S
O118 C127 1.240 . S
O119 In117 2.326 . S
O119 C127 1.252 . S
C120 O123 1.252 . S
C120 O124 1.260 . S
C121 O128 1.240 . S
C121 O129 1.252 . S
C122 O125 1.252 1_565 S
C122 O126 1.260 1_565 S
O123 In117 2.266 . S
O123 C120 1.252 . S
O124 In117 2.326 . S
O124 C120 1.260 . S
O125 In117 2.266 . S
O125 C122 1.252 1_545 S
O126 In117 2.326 . S
O126 C122 1.260 1_545 S
C127 O118 1.240 . S
C127 O119 1.252 . S
O128 In117 2.294 . S
O128 C121 1.240 . S
O129 In117 2.326 . S
O129 C121 1.252 . S
In130 O131 2.294 . S
In130 O132 2.326 . S
In130 O136 2.266 . S
In130 O137 2.326 . S
In130 O138 2.266 . S
In130 O139 2.326 . S
In130 O141 2.294 . S
In130 O142 2.326 . S
O131 In130 2.294 . S
O131 C140 1.240 . S
O132 In130 2.326 . S
O132 C140 1.252 . S
C133 O136 1.252 . S
C133 O137 1.260 . S
C134 O141 1.240 . S
C134 O142 1.252 . S
C135 O138 1.252 . S
C135 O139 1.260 . S
O136 In130 2.266 . S
O136 C133 1.252 . S
O137 In130 2.326 . S
O137 C133 1.260 . S
O138 In130 2.266 . S
O138 C135 1.252 . S
O139 In130 2.326 . S
O139 C135 1.260 . S
C140 O131 1.240 . S
C140 O132 1.252 . S
O141 In130 2.294 . S
O141 C134 1.240 . S
O142 In130 2.326 . S
O142 C134 1.252 . S
In143 O144 2.294 . S
In143 O145 2.326 . S
In143 O149 2.266 . S
In143 O150 2.326 . S
In143 O151 2.266 . S
In143 O152 2.326 . S
In143 O154 2.294 . S
In143 O155 2.326 . S
O144 In143 2.294 . S
O144 C153 1.240 . S
O145 In143 2.326 . S
O145 C153 1.252 . S
C146 O149 1.252 . S
C146 O150 1.260 . S
C147 O154 1.240 . S
C147 O155 1.252 . S
C148 O151 1.252 1_455 S
C148 O152 1.260 1_455 S
O149 In143 2.266 . S
O149 C146 1.252 . S
O150 In143 2.326 . S
O150 C146 1.260 . S
O151 In143 2.266 . S
O151 C148 1.252 1_655 S
O152 In143 2.326 . S
O152 C148 1.260 1_655 S
C153 O144 1.240 . S
C153 O145 1.252 . S
O154 In143 2.294 . S
O154 C147 1.240 . S
O155 In143 2.326 . S
O155 C147 1.252 . S
H156 C162 0.930 . S
H157 C166 0.930 . S
H158 C171 0.929 . S
H159 C169 0.929 . S
H160 C164 0.929 . S
H161 C170 0.929 . S
C162 H156 0.930 . S
C162 C163 1.367 . S
C162 C170 1.378 . S
C163 C162 1.367 . S
C163 C171 1.433 . S
C164 H160 0.929 . S
C164 C166 1.378 . S
C164 C168 1.350 . S
C165 C168 1.463 . S
C165 C170 1.350 . S
C165 N173 1.427 . S
C166 H157 0.930 . S
C166 C164 1.378 . S
C166 C167 1.367 . S
C167 C166 1.367 . S
C167 C169 1.433 . S
C168 C164 1.350 . S
C168 C165 1.463 . S
C168 N172 1.427 . S
C169 H159 0.929 . S
C169 C167 1.433 . S
C169 N172 1.384 . S
C170 H161 0.929 . S
C170 C162 1.378 . S
C170 C165 1.350 . S
C171 H158 0.929 . S
C171 C163 1.433 . S
C171 N173 1.384 . S
N172 C168 1.427 . S
N172 C169 1.384 . S
N173 C165 1.427 . S
N173 C171 1.384 . S
H174 C180 0.930 . S
H175 C184 0.930 . S
H176 C189 0.929 . S
H177 C187 0.929 . S
H178 C182 0.929 . S
H179 C188 0.929 . S
C180 H174 0.930 . S
C180 C181 1.367 . S
C180 C188 1.378 . S
C181 C180 1.367 . S
C181 C189 1.433 . S
C182 H178 0.929 . S
C182 C184 1.378 . S
C182 C186 1.350 . S
C183 C186 1.463 . S
C183 C188 1.350 . S
C183 N191 1.427 . S
C184 H175 0.930 . S
C184 C182 1.378 . S
C184 C185 1.367 . S
C185 C184 1.367 . S
C185 C187 1.433 . S
C186 C182 1.350 . S
C186 C183 1.463 . S
C186 N190 1.427 . S
C187 H177 0.929 . S
C187 C185 1.433 . S
C187 N190 1.384 . S
C188 H179 0.929 . S
C188 C180 1.378 . S
C188 C183 1.350 . S
C189 H176 0.929 . S
C189 C181 1.433 . S
C189 N191 1.384 . S
N190 C186 1.427 . S
N190 C187 1.384 . S
N191 C183 1.427 . S
N191 C189 1.384 . S
H192 C198 0.930 . S
H193 C202 0.930 . S
H194 C207 0.929 . S
H195 C205 0.929 . S
H196 C200 0.929 . S
H197 C206 0.929 . S
C198 H192 0.930 . S
C198 C199 1.367 . S
C198 C206 1.378 . S
C199 C198 1.367 . S
C199 C207 1.433 . S
C200 H196 0.929 . S
C200 C202 1.378 . S
C200 C204 1.350 . S
C201 C204 1.463 . S
C201 C206 1.350 . S
C201 N209 1.427 . S
C202 H193 0.930 . S
C202 C200 1.378 . S
C202 C203 1.367 . S
C203 C202 1.367 . S
C203 C205 1.433 . S
C204 C200 1.350 . S
C204 C201 1.463 . S
C204 N208 1.427 . S
C205 H195 0.929 . S
C205 C203 1.433 . S
C205 N208 1.384 . S
C206 H197 0.929 . S
C206 C198 1.378 . S
C206 C201 1.350 . S
C207 H194 0.929 . S
C207 C199 1.433 . S
C207 N209 1.384 . S
N208 C204 1.427 . S
N208 C205 1.384 . S
N209 C201 1.427 . S
N209 C207 1.384 . S
H210 C216 0.930 . S
H211 C220 0.930 1_455 S
H212 C225 0.929 1_455 S
H213 C223 0.929 . S
H214 C218 0.929 1_455 S
H215 C224 0.929 . S
C216 H210 0.930 . S
C216 C217 1.367 . S
C216 C224 1.378 . S
C217 C216 1.367 . S
C217 C225 1.433 . S
C218 H214 0.929 1_655 S
C218 C220 1.378 . S
C218 C222 1.350 . S
C219 C222 1.463 . S
C219 C224 1.350 . S
C219 N227 1.427 . S
C220 H211 0.930 1_655 S
C220 C218 1.378 . S
C220 C221 1.367 . S
C221 C220 1.367 . S
C221 C223 1.433 . S
C222 C218 1.350 . S
C222 C219 1.463 . S
C222 N226 1.427 . S
C223 H213 0.929 . S
C223 C221 1.433 . S
C223 N226 1.384 . S
C224 H215 0.929 . S
C224 C216 1.378 . S
C224 C219 1.350 . S
C225 H212 0.929 1_655 S
C225 C217 1.433 . S
C225 N227 1.384 . S
N226 C222 1.427 . S
N226 C223 1.384 . S
N227 C219 1.427 . S
N227 C225 1.384 . S
H228 C234 0.930 . S
H229 C238 0.930 . S
H230 C243 0.929 . S
H231 C241 0.929 . S
H232 C236 0.929 . S
H233 C242 0.929 . S
C234 H228 0.930 . S
C234 C235 1.367 . S
C234 C242 1.378 . S
C235 C234 1.367 . S
C235 C243 1.433 . S
C236 H232 0.929 . S
C236 C238 1.378 . S
C236 C240 1.350 . S
C237 C240 1.463 . S
C237 C242 1.350 . S
C237 N245 1.427 . S
C238 H229 0.930 . S
C238 C236 1.378 . S
C238 C239 1.367 . S
C239 C238 1.367 . S
C239 C241 1.433 . S
C240 C236 1.350 . S
C240 C237 1.463 . S
C240 N244 1.427 . S
C241 H231 0.929 . S
C241 C239 1.433 . S
C241 N244 1.384 . S
C242 H233 0.929 . S
C242 C234 1.378 . S
C242 C237 1.350 . S
C243 H230 0.929 . S
C243 C235 1.433 . S
C243 N245 1.384 . S
N244 C240 1.427 . S
N244 C241 1.384 . S
N245 C237 1.427 . S
N245 C243 1.384 . S
H246 C252 0.930 . S
H247 C256 0.930 . S
H248 C261 0.929 . S
H249 C259 0.929 . S
H250 C254 0.929 . S
H251 C260 0.929 . S
C252 H246 0.930 . S
C252 C253 1.367 . S
C252 C260 1.378 . S
C253 C252 1.367 . S
C253 C261 1.433 . S
C254 H250 0.929 . S
C254 C256 1.378 . S
C254 C258 1.350 . S
C255 C258 1.463 . S
C255 C260 1.350 . S
C255 N263 1.427 . S
C256 H247 0.930 . S
C256 C254 1.378 . S
C256 C257 1.367 . S
C257 C256 1.367 . S
C257 C259 1.433 . S
C258 C254 1.350 . S
C258 C255 1.463 . S
C258 N262 1.427 . S
C259 H249 0.929 . S
C259 C257 1.433 . S
C259 N262 1.384 . S
C260 H251 0.929 . S
C260 C252 1.378 . S
C260 C255 1.350 . S
C261 H248 0.929 . S
C261 C253 1.433 . S
C261 N263 1.384 . S
N262 C258 1.427 . S
N262 C259 1.384 . S
N263 C255 1.427 . S
N263 C261 1.384 . S
H264 C270 0.930 . S
H265 C274 0.930 . S
H266 C279 0.929 . S
H267 C277 0.929 . S
H268 C272 0.929 . S
H269 C278 0.929 . S
C270 H264 0.930 . S
C270 C271 1.367 . S
C270 C278 1.378 . S
C271 C270 1.367 . S
C271 C279 1.433 . S
C272 H268 0.929 . S
C272 C274 1.378 . S
C272 C276 1.350 . S
C273 C276 1.463 . S
C273 C278 1.350 . S
C273 N281 1.427 . S
C274 H265 0.930 . S
C274 C272 1.378 . S
C274 C275 1.367 . S
C275 C274 1.367 . S
C275 C277 1.433 . S
C276 C272 1.350 . S
C276 C273 1.463 . S
C276 N280 1.427 . S
C277 H267 0.929 . S
C277 C275 1.433 . S
C277 N280 1.384 . S
C278 H269 0.929 . S
C278 C270 1.378 . S
C278 C273 1.350 . S
C279 H266 0.929 . S
C279 C271 1.433 . S
C279 N281 1.384 . S
N280 C276 1.427 . S
N280 C277 1.384 . S
N281 C273 1.427 . S
N281 C279 1.384 . S
H282 C288 0.930 . S
H283 C292 0.930 . S
H284 C297 0.929 . S
H285 C295 0.929 . S
H286 C290 0.929 . S
H287 C296 0.929 . S
C288 H282 0.930 . S
C288 C289 1.367 . S
C288 C296 1.378 . S
C289 C288 1.367 . S
C289 C297 1.433 . S
C290 H286 0.929 . S
C290 C292 1.378 . S
C290 C294 1.350 . S
C291 C294 1.463 . S
C291 C296 1.350 . S
C291 N299 1.427 . S
C292 H283 0.930 . S
C292 C290 1.378 . S
C292 C293 1.367 . S
C293 C292 1.367 . S
C293 C295 1.433 . S
C294 C290 1.350 . S
C294 C291 1.463 . S
C294 N298 1.427 . S
C295 H285 0.929 . S
C295 C293 1.433 . S
C295 N298 1.384 . S
C296 H287 0.929 . S
C296 C288 1.378 . S
C296 C291 1.350 . S
C297 H284 0.929 . S
C297 C289 1.433 . S
C297 N299 1.384 . S
N298 C294 1.427 . S
N298 C295 1.384 . S
N299 C291 1.427 . S
N299 C297 1.384 . S
H300 C306 0.930 . S
H301 C310 0.930 . S
H302 C315 0.929 . S
H303 C313 0.929 . S
H304 C308 0.929 . S
H305 C314 0.929 . S
C306 H300 0.930 . S
C306 C307 1.367 . S
C306 C314 1.378 . S
C307 C306 1.367 . S
C307 C315 1.433 . S
C308 H304 0.929 . S
C308 C310 1.378 . S
C308 C312 1.350 . S
C309 C312 1.463 . S
C309 C314 1.350 . S
C309 N317 1.427 . S
C310 H301 0.930 . S
C310 C308 1.378 . S
C310 C311 1.367 . S
C311 C310 1.367 . S
C311 C313 1.433 . S
C312 C308 1.350 . S
C312 C309 1.463 . S
C312 N316 1.427 . S
C313 H303 0.929 . S
C313 C311 1.433 . S
C313 N316 1.384 . S
C314 H305 0.929 . S
C314 C306 1.378 . S
C314 C309 1.350 . S
C315 H302 0.929 . S
C315 C307 1.433 . S
C315 N317 1.384 . S
N316 C312 1.427 . S
N316 C313 1.384 . S
N317 C309 1.427 . S
N317 C315 1.384 . S
H318 C324 0.930 . S
H319 C328 0.930 . S
H320 C333 0.929 . S
H321 C331 0.929 . S
H322 C326 0.929 . S
H323 C332 0.929 . S
C324 H318 0.930 . S
C324 C325 1.367 . S
C324 C332 1.378 . S
C325 C324 1.367 . S
C325 C333 1.433 . S
C326 H322 0.929 . S
C326 C328 1.378 . S
C326 C330 1.350 . S
C327 C330 1.463 . S
C327 C332 1.350 . S
C327 N335 1.427 . S
C328 H319 0.930 . S
C328 C326 1.378 . S
C328 C329 1.367 . S
C329 C328 1.367 . S
C329 C331 1.433 . S
C330 C326 1.350 . S
C330 C327 1.463 . S
C330 N334 1.427 . S
C331 H321 0.929 . S
C331 C329 1.433 . S
C331 N334 1.384 . S
C332 H323 0.929 . S
C332 C324 1.378 . S
C332 C327 1.350 . S
C333 H320 0.929 . S
C333 C325 1.433 . S
C333 N335 1.384 . S
N334 C330 1.427 . S
N334 C331 1.384 . S
N335 C327 1.427 . S
N335 C333 1.384 . S
H336 C342 0.930 . S
H337 C346 0.930 . S
H338 C351 0.929 . S
H339 C349 0.929 . S
H340 C344 0.929 . S
H341 C350 0.929 . S
C342 H336 0.930 . S
C342 C343 1.367 . S
C342 C350 1.378 . S
C343 C342 1.367 . S
C343 C351 1.433 . S
C344 H340 0.929 . S
C344 C346 1.378 . S
C344 C348 1.350 . S
C345 C348 1.463 . S
C345 C350 1.350 . S
C345 N353 1.427 . S
C346 H337 0.930 . S
C346 C344 1.378 . S
C346 C347 1.367 . S
C347 C346 1.367 . S
C347 C349 1.433 . S
C348 C344 1.350 . S
C348 C345 1.463 . S
C348 N352 1.427 . S
C349 H339 0.929 . S
C349 C347 1.433 . S
C349 N352 1.384 . S
C350 H341 0.929 . S
C350 C342 1.378 . S
C350 C345 1.350 . S
C351 H338 0.929 . S
C351 C343 1.433 . S
C351 N353 1.384 . S
N352 C348 1.427 . S
N352 C349 1.384 . S
N353 C345 1.427 . S
N353 C351 1.384 . S
H354 C360 0.930 . S
H355 C364 0.930 . S
H356 C369 0.929 . S
H357 C367 0.929 . S
H358 C362 0.929 . S
H359 C368 0.929 . S
C360 H354 0.930 . S
C360 C361 1.367 . S
C360 C368 1.378 . S
C361 C360 1.367 . S
C361 C369 1.433 . S
C362 H358 0.929 . S
C362 C364 1.378 . S
C362 C366 1.350 . S
C363 C366 1.463 . S
C363 C368 1.350 . S
C363 N371 1.427 . S
C364 H355 0.930 . S
C364 C362 1.378 . S
C364 C365 1.367 . S
C365 C364 1.367 . S
C365 C367 1.433 . S
C366 C362 1.350 . S
C366 C363 1.463 . S
C366 N370 1.427 . S
C367 H357 0.929 . S
C367 C365 1.433 . S
C367 N370 1.384 . S
C368 H359 0.929 . S
C368 C360 1.378 . S
C368 C363 1.350 . S
C369 H356 0.929 . S
C369 C361 1.433 . S
C369 N371 1.384 . S
N370 C366 1.427 . S
N370 C367 1.384 . S
N371 C363 1.427 . S
N371 C369 1.384 . S
H372 C378 0.930 . S
H373 C382 0.930 . S
H374 C387 0.929 . S
H375 C385 0.929 . S
H376 C380 0.929 . S
H377 C386 0.929 . S
C378 H372 0.930 . S
C378 C379 1.367 . S
C378 C386 1.378 . S
C379 C378 1.367 . S
C379 C387 1.433 . S
C380 H376 0.929 . S
C380 C382 1.378 . S
C380 C384 1.350 . S
C381 C384 1.463 . S
C381 C386 1.350 . S
C381 N389 1.427 . S
C382 H373 0.930 . S
C382 C380 1.378 . S
C382 C383 1.367 . S
C383 C382 1.367 . S
C383 C385 1.433 . S
C384 C380 1.350 . S
C384 C381 1.463 . S
C384 N388 1.427 . S
C385 H375 0.929 . S
C385 C383 1.433 . S
C385 N388 1.384 . S
C386 H377 0.929 . S
C386 C378 1.378 . S
C386 C381 1.350 . S
C387 H374 0.929 . S
C387 C379 1.433 . S
C387 N389 1.384 . S
N388 C384 1.427 . S
N388 C385 1.384 . S
N389 C381 1.427 . S
N389 C387 1.384 . S
H390 C396 0.930 . S
H391 C400 0.930 . S
H392 C405 0.929 . S
H393 C403 0.929 . S
H394 C398 0.929 . S
H395 C404 0.929 . S
C396 H390 0.930 . S
C396 C397 1.367 . S
C396 C404 1.378 . S
C397 C396 1.367 . S
C397 C405 1.433 . S
C398 H394 0.929 . S
C398 C400 1.378 . S
C398 C402 1.350 . S
C399 C402 1.463 . S
C399 C404 1.350 . S
C399 N407 1.427 . S
C400 H391 0.930 . S
C400 C398 1.378 . S
C400 C401 1.367 . S
C401 C400 1.367 . S
C401 C403 1.433 . S
C402 C398 1.350 . S
C402 C399 1.463 . S
C402 N406 1.427 . S
C403 H393 0.929 . S
C403 C401 1.433 . S
C403 N406 1.384 . S
C404 H395 0.929 . S
C404 C396 1.378 . S
C404 C399 1.350 . S
C405 H392 0.929 . S
C405 C397 1.433 . S
C405 N407 1.384 . S
N406 C402 1.427 . S
N406 C403 1.384 . S
N407 C399 1.427 . S
N407 C405 1.384 . S
H408 C414 0.930 . S
H409 C418 0.930 . S
H410 C423 0.929 . S
H411 C421 0.929 . S
H412 C416 0.929 . S
H413 C422 0.929 . S
C414 H408 0.930 . S
C414 C415 1.367 . S
C414 C422 1.378 . S
C415 C414 1.367 . S
C415 C423 1.433 . S
C416 H412 0.929 . S
C416 C418 1.378 . S
C416 C420 1.350 . S
C417 C420 1.463 . S
C417 C422 1.350 . S
C417 N425 1.427 . S
C418 H409 0.930 . S
C418 C416 1.378 . S
C418 C419 1.367 . S
C419 C418 1.367 . S
C419 C421 1.433 . S
C420 C416 1.350 . S
C420 C417 1.463 . S
C420 N424 1.427 . S
C421 H411 0.929 . S
C421 C419 1.433 . S
C421 N424 1.384 . S
C422 H413 0.929 . S
C422 C414 1.378 . S
C422 C417 1.350 . S
C423 H410 0.929 . S
C423 C415 1.433 . S
C423 N425 1.384 . S
N424 C420 1.427 . S
N424 C421 1.384 . S
N425 C417 1.427 . S
N425 C423 1.384 . S
H426 C432 0.930 . S
H427 C436 0.930 . S
H428 C441 0.929 . S
H429 C439 0.929 . S
H430 C434 0.929 . S
H431 C440 0.929 . S
C432 H426 0.930 . S
C432 C433 1.367 . S
C432 C440 1.378 . S
C433 C432 1.367 . S
C433 C441 1.433 . S
C434 H430 0.929 . S
C434 C436 1.378 . S
C434 C438 1.350 . S
C435 C438 1.463 . S
C435 C440 1.350 . S
C435 N443 1.427 . S
C436 H427 0.930 . S
C436 C434 1.378 . S
C436 C437 1.367 . S
C437 C436 1.367 . S
C437 C439 1.433 . S
C438 C434 1.350 . S
C438 C435 1.463 . S
C438 N442 1.427 . S
C439 H429 0.929 . S
C439 C437 1.433 . S
C439 N442 1.384 . S
C440 H431 0.929 . S
C440 C432 1.378 . S
C440 C435 1.350 . S
C441 H428 0.929 . S
C441 C433 1.433 . S
C441 N443 1.384 . S
N442 C438 1.427 . S
N442 C439 1.384 . S
N443 C435 1.427 . S
N443 C441 1.384 . S
H444 C450 0.930 . S
H445 C454 0.930 . S
H446 C459 0.929 . S
H447 C457 0.929 . S
H448 C452 0.929 . S
H449 C458 0.929 . S
C450 H444 0.930 . S
C450 C451 1.367 . S
C450 C458 1.378 . S
C451 C450 1.367 . S
C451 C459 1.433 . S
C452 H448 0.929 . S
C452 C454 1.378 . S
C452 C456 1.350 . S
C453 C456 1.463 . S
C453 C458 1.350 . S
C453 N461 1.427 . S
C454 H445 0.930 . S
C454 C452 1.378 . S
C454 C455 1.367 . S
C455 C454 1.367 . S
C455 C457 1.433 . S
C456 C452 1.350 . S
C456 C453 1.463 . S
C456 N460 1.427 . S
C457 H447 0.929 . S
C457 C455 1.433 . S
C457 N460 1.384 . S
C458 H449 0.929 . S
C458 C450 1.378 . S
C458 C453 1.350 . S
C459 H446 0.929 . S
C459 C451 1.433 . S
C459 N461 1.384 . S
N460 C456 1.427 . S
N460 C457 1.384 . S
N461 C453 1.427 . S
N461 C459 1.384 . S
H462 C468 0.930 . S
H463 C472 0.930 . S
H464 C477 0.929 . S
H465 C475 0.929 . S
H466 C470 0.929 . S
H467 C476 0.929 . S
C468 H462 0.930 . S
C468 C469 1.367 . S
C468 C476 1.378 . S
C469 C468 1.367 . S
C469 C477 1.433 . S
C470 H466 0.929 . S
C470 C472 1.378 . S
C470 C474 1.350 . S
C471 C474 1.463 . S
C471 C476 1.350 . S
C471 N479 1.427 . S
C472 H463 0.930 . S
C472 C470 1.378 . S
C472 C473 1.367 . S
C473 C472 1.367 . S
C473 C475 1.433 . S
C474 C470 1.350 . S
C474 C471 1.463 . S
C474 N478 1.427 . S
C475 H465 0.929 . S
C475 C473 1.433 . S
C475 N478 1.384 . S
C476 H467 0.929 . S
C476 C468 1.378 . S
C476 C471 1.350 . S
C477 H464 0.929 . S
C477 C469 1.433 . S
C477 N479 1.384 . S
N478 C474 1.427 . S
N478 C475 1.384 . S
N479 C471 1.427 . S
N479 C477 1.384 . S
H480 C486 0.930 . S
H481 C490 0.930 . S
H482 C495 0.929 . S
H483 C493 0.929 . S
H484 C488 0.929 . S
H485 C494 0.929 . S
C486 H480 0.930 . S
C486 C487 1.367 . S
C486 C494 1.378 . S
C487 C486 1.367 . S
C487 C495 1.433 . S
C488 H484 0.929 . S
C488 C490 1.378 . S
C488 C492 1.350 . S
C489 C492 1.463 . S
C489 C494 1.350 . S
C489 N497 1.427 . S
C490 H481 0.930 . S
C490 C488 1.378 . S
C490 C491 1.367 . S
C491 C490 1.367 . S
C491 C493 1.433 . S
C492 C488 1.350 . S
C492 C489 1.463 . S
C492 N496 1.427 . S
C493 H483 0.929 . S
C493 C491 1.433 . S
C493 N496 1.384 . S
C494 H485 0.929 . S
C494 C486 1.378 . S
C494 C489 1.350 . S
C495 H482 0.929 . S
C495 C487 1.433 . S
C495 N497 1.384 . S
N496 C492 1.427 . S
N496 C493 1.384 . S
N497 C489 1.427 . S
N497 C495 1.384 . S
H498 C504 0.930 . S
H499 C508 0.930 . S
H500 C513 0.929 . S
H501 C511 0.929 . S
H502 C506 0.929 . S
H503 C512 0.929 . S
C504 H498 0.930 . S
C504 C505 1.367 . S
C504 C512 1.378 . S
C505 C504 1.367 . S
C505 C513 1.433 . S
C506 H502 0.929 . S
C506 C508 1.378 . S
C506 C510 1.350 . S
C507 C510 1.463 . S
C507 C512 1.350 . S
C507 N515 1.427 . S
C508 H499 0.930 . S
C508 C506 1.378 . S
C508 C509 1.367 . S
C509 C508 1.367 . S
C509 C511 1.433 . S
C510 C506 1.350 . S
C510 C507 1.463 . S
C510 N514 1.427 . S
C511 H501 0.929 . S
C511 C509 1.433 . S
C511 N514 1.384 . S
C512 H503 0.929 . S
C512 C504 1.378 . S
C512 C507 1.350 . S
C513 H500 0.929 . S
C513 C505 1.433 . S
C513 N515 1.384 . S
N514 C510 1.427 . S
N514 C511 1.384 . S
N515 C507 1.427 . S
N515 C513 1.384 . S
H516 C522 0.930 . S
H517 C526 0.930 . S
H518 C531 0.929 . S
H519 C529 0.929 . S
H520 C524 0.929 . S
H521 C530 0.929 . S
C522 H516 0.930 . S
C522 C523 1.367 . S
C522 C530 1.378 . S
C523 C522 1.367 . S
C523 C531 1.433 . S
C524 H520 0.929 . S
C524 C526 1.378 . S
C524 C528 1.350 . S
C525 C528 1.463 . S
C525 C530 1.350 . S
C525 N533 1.427 . S
C526 H517 0.930 . S
C526 C524 1.378 . S
C526 C527 1.367 . S
C527 C526 1.367 . S
C527 C529 1.433 . S
C528 C524 1.350 . S
C528 C525 1.463 . S
C528 N532 1.427 . S
C529 H519 0.929 . S
C529 C527 1.433 . S
C529 N532 1.384 . S
C530 H521 0.929 . S
C530 C522 1.378 . S
C530 C525 1.350 . S
C531 H518 0.929 . S
C531 C523 1.433 . S
C531 N533 1.384 . S
N532 C528 1.427 . S
N532 C529 1.384 . S
N533 C525 1.427 . S
N533 C531 1.384 . S
H534 C540 0.930 . S
H535 C544 0.930 . S
H536 C549 0.929 . S
H537 C547 0.929 . S
H538 C542 0.929 . S
H539 C548 0.929 . S
C540 H534 0.930 . S
C540 C541 1.367 . S
C540 C548 1.378 . S
C541 C540 1.367 . S
C541 C549 1.433 . S
C542 H538 0.929 . S
C542 C544 1.378 . S
C542 C546 1.350 . S
C543 C546 1.463 . S
C543 C548 1.350 . S
C543 N551 1.427 . S
C544 H535 0.930 . S
C544 C542 1.378 . S
C544 C545 1.367 . S
C545 C544 1.367 . S
C545 C547 1.433 . S
C546 C542 1.350 . S
C546 C543 1.463 . S
C546 N550 1.427 . S
C547 H537 0.929 . S
C547 C545 1.433 . S
C547 N550 1.384 . S
C548 H539 0.929 . S
C548 C540 1.378 . S
C548 C543 1.350 . S
C549 H536 0.929 . S
C549 C541 1.433 . S
C549 N551 1.384 . S
N550 C546 1.427 . S
N550 C547 1.384 . S
N551 C543 1.427 . S
N551 C549 1.384 . S
H552 C558 0.930 . S
H553 C562 0.930 . S
H554 C567 0.929 . S
H555 C565 0.929 . S
H556 C560 0.929 . S
H557 C566 0.929 . S
C558 H552 0.930 . S
C558 C559 1.367 . S
C558 C566 1.378 . S
C559 C558 1.367 . S
C559 C567 1.433 . S
C560 H556 0.929 . S
C560 C562 1.378 . S
C560 C564 1.350 . S
C561 C564 1.463 . S
C561 C566 1.350 . S
C561 N569 1.427 . S
C562 H553 0.930 . S
C562 C560 1.378 . S
C562 C563 1.367 . S
C563 C562 1.367 . S
C563 C565 1.433 . S
C564 C560 1.350 . S
C564 C561 1.463 . S
C564 N568 1.427 . S
C565 H555 0.929 . S
C565 C563 1.433 . S
C565 N568 1.384 . S
C566 H557 0.929 . S
C566 C558 1.378 . S
C566 C561 1.350 . S
C567 H554 0.929 . S
C567 C559 1.433 . S
C567 N569 1.384 . S
N568 C564 1.427 . S
N568 C565 1.384 . S
N569 C561 1.427 . S
N569 C567 1.384 . S
H570 C576 0.930 . S
H571 C580 0.930 . S
H572 C585 0.929 . S
H573 C583 0.929 . S
H574 C578 0.929 . S
H575 C584 0.929 . S
C576 H570 0.930 . S
C576 C577 1.367 . S
C576 C584 1.378 . S
C577 C576 1.367 . S
C577 C585 1.433 . S
C578 H574 0.929 . S
C578 C580 1.378 . S
C578 C582 1.350 . S
C579 C582 1.463 . S
C579 C584 1.350 . S
C579 N587 1.427 . S
C580 H571 0.930 . S
C580 C578 1.378 . S
C580 C581 1.367 . S
C581 C580 1.367 . S
C581 C583 1.433 . S
C582 C578 1.350 . S
C582 C579 1.463 . S
C582 N586 1.427 . S
C583 H573 0.929 . S
C583 C581 1.433 . S
C583 N586 1.384 . S
C584 H575 0.929 . S
C584 C576 1.378 . S
C584 C579 1.350 . S
C585 H572 0.929 . S
C585 C577 1.433 . S
C585 N587 1.384 . S
N586 C582 1.427 . S
N586 C583 1.384 . S
N587 C579 1.427 . S
N587 C585 1.384 . S
C163 C108 1.340 . S
C167 C4 1.336 . S
C181 C23 1.339 . S
C185 C127 1.337 . S
C199 C36 1.339 . S
C203 C134 1.335 . S
C217 C49 1.335 . S
C221 C153 1.339 . S
C235 C82 1.337 . S
C239 C56 1.335 . S
C253 C75 1.337 . S
C257 C95 1.335 . S
C271 C10 1.543 . S
C275 C70 1.556 . S
C289 C17 1.543 . S
C293 C3 1.522 . S
C307 C30 1.543 . S
C311 C18 1.530 . S
C325 C31 1.530 . S
C329 C43 1.542 . S
C343 C44 1.528 . S
C347 C62 1.540 . S
C361 C55 1.528 . S
C365 C69 1.540 . S
C379 C94 1.526 . S
C383 C88 1.540 . S
C397 C101 1.540 . S
C401 C107 1.551 . S
C415 C122 1.523 . S
C419 C114 1.541 . S
C433 C121 1.541 . S
C437 C133 1.530 . S
C451 C140 1.544 . S
C455 C148 1.528 . S
C469 C147 1.540 . S
C473 C81 1.525 . S
C487 C135 1.298 . S
C491 C5 1.299 . S
C505 C146 1.296 . S
C509 C16 1.298 . S
C523 C83 1.297 . S
C527 C29 1.298 . S
C541 C42 1.297 . S
C545 C96 1.299 . S
C559 C57 1.299 . S
C563 C109 1.298 . S
C577 C120 1.296 . S
C581 C68 1.298 . S
