# Generated by pormake.
# Topology reo, (8)-cn, num edge types: 1
# Building blocks:
#     Node 0, Type 0, BuildingBlock: TAGTUT_clean_sbu_3, # of connection points: 8
#     Node 1, Type 0, BuildingBlock: TAGTUT_clean_sbu_3, # of connection points: 8
#     Node 2, Type 0, BuildingBlock: TAGTUT_clean_sbu_3, # of connection points: 8
#     Edge 3, Type (0, 0), BuildingBlock: CIFDUS_clean_linker_0, # of connection points: 2
#     Edge 4, Type (0, 0), BuildingBlock: CIFDUS_clean_linker_0, # of connection points: 2
#     Edge 5, Type (0, 0), BuildingBlock: CIFDUS_clean_linker_0, # of connection points: 2
#     Edge 6, Type (0, 0), BuildingBlock: CIFDUS_clean_linker_0, # of connection points: 2
#     Edge 7, Type (0, 0), BuildingBlock: CIFDUS_clean_linker_0, # of connection points: 2
#     Edge 8, Type (0, 0), BuildingBlock: CIFDUS_clean_linker_0, # of connection points: 2
#     Edge 9, Type (0, 0), BuildingBlock: CIFDUS_clean_linker_0, # of connection points: 2
#     Edge 10, Type (0, 0), BuildingBlock: CIFDUS_clean_linker_0, # of connection points: 2
#     Edge 11, Type (0, 0), BuildingBlock: CIFDUS_clean_linker_0, # of connection points: 2
#     Edge 12, Type (0, 0), BuildingBlock: CIFDUS_clean_linker_0, # of connection points: 2
#     Edge 13, Type (0, 0), BuildingBlock: CIFDUS_clean_linker_0, # of connection points: 2
#     Edge 14, Type (0, 0), BuildingBlock: CIFDUS_clean_linker_0, # of connection points: 2
# Relax obj value: 0.169
# Max RMSD: 0.190
# Mean RMSD: 0.190
data_MOF--net-reo--node1-TAGTUT_clean_sbu_3--edge1-CIFDUS_clean_linker_0
_symmetry_space_group_name_H-M    P1
_symmetry_Int_Tables_number       1
_symmetry_cell_setting            triclinic
loop_
_symmetry_equiv_pos_as_xyz
'x, y, z'
_cell_length_a     21.408835
_cell_length_b     21.188024
_cell_length_c     21.206757
_cell_angle_alpha  90.527016
_cell_angle_beta   91.047325
_cell_angle_gamma 90.546071
loop_
_atom_site_label
_atom_site_type_symbol
_atom_site_fract_x
_atom_site_fract_y
_atom_site_fract_z
_atom_type_partial_charge
C0 C 0.94948 0.85909 0.53662 0.0
C1 C 0.75038 0.0029 0.55623 0.0
C2 C 0.81942 0.08246 0.38202 0.0
Mg3 Mg 0.08741 0.90161 0.48793 0.0
Mg4 Mg 0.12704 0.0484 0.50935 0.0
O5 O 0.07377 0.99224 0.46442 0.0
Mg6 Mg 0.98499 0.00111 0.48955 0.0
O7 O 0.8967 0.00619 0.51509 0.0
Mg8 Mg 0.85639 0.94553 0.45383 0.0
Mg9 Mg 0.86259 0.08803 0.51842 0.0
C10 C 0.02893 0.14432 0.45136 0.0
O11 O 0.01056 0.05567 0.57994 0.0
O12 O 0.18421 0.91627 0.44077 0.0
O13 O 0.93472 0.12925 0.58077 0.0
O14 O 0.13394 0.92008 0.58434 0.0
O15 O 0.20964 0.01768 0.4638 0.0
O16 O 0.1356 0.0226 0.6069 0.0
O17 O 0.9525 0.9462 0.40105 0.0
O18 O 0.03605 0.88341 0.39517 0.0
C19 C 0.98341 0.90267 0.37331 0.0
C20 C 0.22197 0.96398 0.43894 0.0
O21 O 0.98725 0.10036 0.44437 0.0
O22 O 0.76865 0.95819 0.51913 0.0
O23 O 0.08169 0.13496 0.47958 0.0
O24 O 0.82205 0.02314 0.39001 0.0
O25 O 0.77925 0.05597 0.56125 0.0
O26 O 0.83728 0.12154 0.42486 0.0
O27 O -0.00969 0.90343 0.53312 0.0
O28 O 0.89398 0.8665 0.51501 0.0
C29 C 0.14417 0.96549 0.62298 0.0
C30 C 0.98619 0.1061 0.60202 0.0
C31 C 0.38402 0.00349 0.89571 0.0
C32 C 0.43676 0.23234 0.98967 0.0
C33 C 0.62006 0.14938 0.01128 0.0
Mg34 Mg 0.45716 0.86921 0.93391 0.0
Mg35 Mg 0.51094 0.85861 0.08032 0.0
O36 O 0.51518 0.90119 0.00221 0.0
Mg37 Mg 0.48965 0.99041 0.00388 0.0
O38 O 0.46385 0.08011 0.00332 0.0
Mg39 Mg 0.4982 0.10427 0.91929 0.0
Mg40 Mg 0.49467 0.12713 0.07325 0.0
C41 C 0.58435 0.98206 0.12531 0.0
O42 O 0.43304 0.97905 0.09257 0.0
O43 O 0.51826 0.77732 0.94315 0.0
O44 O 0.45419 0.06854 0.14733 0.0
O45 O 0.38692 0.83015 0.00284 0.0
O46 O 0.55497 0.77724 0.04368 0.0
O47 O 0.41695 0.83173 0.1037 0.0
O48 O 0.54363 0.00594 0.91307 0.0
O49 O 0.52429 0.91344 0.86524 0.0
C50 C 0.54857 0.96883 0.86517 0.0
C51 C 0.55194 0.75331 0.98797 0.0
O52 O 0.57204 0.00999 0.07312 0.0
O53 O 0.44862 0.20052 0.93922 0.0
O54 O 0.56121 0.92785 0.13912 0.0
O55 O 0.59045 0.14409 0.95877 0.0
O56 O 0.45153 0.21332 0.04512 0.0
O57 O 0.59373 0.13862 0.06363 0.0
O58 O 0.40689 0.96715 0.93827 0.0
O59 O 0.40873 0.05733 0.88368 0.0
C60 C 0.37586 0.82075 0.06083 0.0
C61 C 0.42917 0.0132 0.1425 0.0
C62 C 0.85502 0.54495 0.95483 0.0
C63 C 0.97687 0.55199 0.74068 0.0
C64 C 0.06459 0.38458 0.81442 0.0
Mg65 Mg 0.90685 0.49715 0.09119 0.0
Mg66 Mg 0.05795 0.49575 0.12481 0.0
O67 O -0.00699 0.46679 0.07092 0.0
Mg68 Mg -0.00482 0.49302 0.98111 0.0
O69 O -0.0071 0.51865 0.89147 0.0
Mg70 Mg 0.93026 0.45595 0.85743 0.0
Mg71 Mg 0.06998 0.52228 0.85014 0.0
C72 C 0.13604 0.4389 0.01175 0.0
O73 O 0.0548 0.58136 0.00222 0.0
O74 O 0.92229 0.44456 0.18625 0.0
O75 O 0.11574 0.58711 0.91647 0.0
O76 O 0.94015 0.59181 0.13506 0.0
O77 O 0.02613 0.44418 0.20563 0.0
O78 O 0.04433 0.59523 0.13807 0.0
O79 O 0.93656 0.40597 0.95499 0.0
O80 O 0.87814 0.4068 0.04171 0.0
C81 C 0.89388 0.38178 0.98918 0.0
C82 C 0.97011 0.42848 0.21986 0.0
O83 O 0.0885 0.44191 0.97414 0.0
O84 O 0.93445 0.51646 0.76488 0.0
O85 O 0.13564 0.46104 0.06846 0.0
O86 O 0.00584 0.39075 0.82087 0.0
O87 O 0.03119 0.55937 0.76601 0.0
O88 O 0.10297 0.42936 0.82735 0.0
O89 O 0.90224 0.54246 -0.00713 0.0
O90 O 0.85665 0.5197 0.8998 0.0
C91 C -0.00845 0.62172 0.14468 0.0
C92 C 0.09975 0.6061 0.97153 0.0
H93 H 0.04763 0.40826 0.32003 0.0
H94 H 0.87531 0.34245 0.23239 0.0
H95 H 0.87507 0.25019 0.30072 0.0
H96 H 0.93181 0.18144 0.3748 0.0
H97 H 0.10342 0.24909 0.46313 0.0
H98 H 0.09589 0.34707 0.40492 0.0
C99 C 0.00931 0.37443 0.31681 0.0
C100 C 0.96199 0.38191 0.27076 0.0
C101 C 0.00985 0.32117 0.35564 0.0
C102 C 0.91228 0.338 0.26758 0.0
C103 C 0.91242 0.28483 0.30623 0.0
C104 C 0.96676 0.21809 0.38252 0.0
C105 C 0.0185 0.20713 0.42274 0.0
C106 C 0.96216 0.27484 0.3489 0.0
C107 C 0.06347 0.25547 0.43183 0.0
C108 C 0.05925 0.31178 0.39859 0.0
H109 H 0.69704 0.09373 0.37636 0.0
H110 H 0.86157 0.10522 0.26369 0.0
H111 H 0.79894 0.08147 0.16814 0.0
H112 H 0.70111 0.03488 0.12163 0.0
H113 H 0.54296 0.00665 0.24113 0.0
H114 H 0.59844 0.05838 0.32904 0.0
C115 C 0.71839 0.0943 0.3303 0.0
C116 C 0.78326 0.10219 0.32652 0.0
C117 C 0.68326 0.07473 0.2772 0.0
C118 C 0.8113 0.10072 0.26722 0.0
C119 C 0.7757 0.08556 0.21295 0.0
C120 C 0.6789 0.04116 0.16678 0.0
C121 C 0.6183 0.01718 0.17543 0.0
C122 C 0.71234 0.06869 0.21806 0.0
C123 C 0.58969 0.02478 0.23391 0.0
C124 C 0.62131 0.05448 0.28401 0.0
H125 H 0.04845 0.88328 0.26975 0.0
H126 H 0.86898 0.84719 0.3511 0.0
H127 H 0.85062 0.75955 0.2762 0.0
H128 H 0.89682 0.68013 0.20531 0.0
H129 H 0.0825 0.71135 0.13501 0.0
H130 H 0.08761 0.81396 0.18767 0.0
C131 C 0.00428 0.85761 0.26928 0.0
C132 C 0.96027 0.8708 0.31571 0.0
C133 C -0.00372 0.80526 0.22936 0.0
C134 C 0.90318 0.83786 0.31523 0.0
C135 C 0.89334 0.78712 0.27322 0.0
C136 C 0.93782 0.71004 0.20047 0.0
C137 C -0.01013 0.68765 0.16755 0.0
C138 C 0.94127 0.76815 0.23284 0.0
C139 C 0.04249 0.72696 0.16123 0.0
C140 C 0.04533 0.78573 0.19114 0.0
H141 H 0.439 0.04586 0.26662 0.0
H142 H 0.33581 0.92558 0.13581 0.0
H143 H 0.27033 0.88806 0.22057 0.0
H144 H 0.2333 0.90065 0.32864 0.0
H145 H 0.3324 0.02575 0.45794 0.0
H146 H 0.40968 0.04865 0.37783 0.0
C147 C 0.40278 0.0108 0.25692 0.0
C148 C 0.39262 0.98819 0.19515 0.0
C149 C 0.36459 0.99015 0.30579 0.0
C150 C 0.34538 0.94283 0.18321 0.0
C151 C 0.30757 0.92163 0.23161 0.0
C152 C 0.27306 0.93113 0.33986 0.0
C153 C 0.27713 0.9618 0.3987 0.0
C154 C 0.31575 0.94613 0.29278 0.0
C155 C 0.32835 0.00187 0.41263 0.0
C156 C 0.37215 0.01545 0.36672 0.0
H157 H 0.86945 0.7658 0.57047 0.0
H158 H 0.06577 0.81417 0.56576 0.0
H159 H 0.09146 0.71566 0.61811 0.0
H160 H 0.05784 0.62234 0.67424 0.0
H161 H 0.86128 0.578 0.68864 0.0
H162 H 0.8361 0.66727 0.62059 0.0
C163 C 0.91797 0.75461 0.58034 0.0
C164 C 0.96567 0.79785 0.56497 0.0
C165 C 0.93227 0.69842 0.61158 0.0
C166 C 0.02816 0.7824 0.5779 0.0
C167 C 0.04288 0.72586 0.60754 0.0
C168 C 0.00936 0.63145 0.66197 0.0
C169 C 0.96141 0.59415 0.68754 0.0
C170 C -0.00478 0.68443 0.6259 0.0
C171 C 0.89909 0.60602 0.66989 0.0
C172 C 0.88467 0.6575 0.63158 0.0
H173 H 0.34389 0.90012 0.82875 0.0
H174 H 0.28694 0.08207 0.89821 0.0
H175 H 0.19786 0.08168 0.82511 0.0
H176 H 0.15066 0.0404 0.72728 0.0
H177 H 0.20815 0.85942 0.65502 0.0
H178 H 0.2812 0.84797 0.7436 0.0
C179 C 0.31045 0.93826 0.82927 0.0
C180 C 0.32203 0.99142 0.86755 0.0
C181 C 0.26019 0.93863 0.78563 0.0
C182 C 0.27885 0.04097 0.86823 0.0
C183 C 0.22821 0.04102 0.82625 0.0
C184 C 0.17817 -0.00215 0.73174 0.0
C185 C 0.17545 0.95188 0.68384 0.0
C186 C 0.22066 0.99186 0.78228 0.0
C187 C 0.21011 0.89614 0.6909 0.0
C188 C 0.2522 0.88957 0.74144 0.0
H189 H 0.02773 0.26741 0.84229 0.0
H190 H 0.14414 0.3724 0.71638 0.0
H191 H 0.13981 0.28491 0.64004 0.0
H192 H 0.08029 0.19174 0.59973 0.0
H193 H 0.95707 0.09244 0.7237 0.0
H194 H 0.98676 0.16375 0.81072 0.0
C195 C 0.0543 0.26977 0.79923 0.0
C196 C 0.08525 0.32609 0.78407 0.0
C197 C 0.04889 0.22086 0.75472 0.0
C198 C 0.12005 0.32918 0.72876 0.0
C199 C 0.11667 0.2796 0.68474 0.0
C200 C 0.06187 0.18476 0.64648 0.0
C201 C 0.01638 0.1379 0.65596 0.0
C202 C 0.07777 0.22718 0.69557 0.0
C203 C -0.00796 0.12875 0.71605 0.0
C204 C 0.00886 0.16951 0.76553 0.0
H205 H 0.56586 0.89951 0.7588 0.0
H206 H 0.60635 0.08254 0.84223 0.0
H207 H 0.66573 0.11155 0.74926 0.0
H208 H 0.71196 0.08205 0.64895 0.0
H209 H 0.67677 0.89665 0.56844 0.0
H210 H 0.6077 0.87204 0.65567 0.0
C211 C 0.58732 0.946 0.75681 0.0
C212 C 0.58207 0.98864 0.80796 0.0
C213 C 0.62194 0.96195 0.70371 0.0
C214 C 0.60993 0.04868 0.80396 0.0
C215 C 0.6438 0.06527 0.75073 0.0
C216 C 0.68869 0.03638 0.64966 0.0
C217 C 0.70011 0.99101 0.60209 0.0
C218 C 0.6509 0.02186 0.7009 0.0
C219 C 0.66908 0.93239 0.60423 0.0
C220 C 0.62991 0.91818 0.65435 0.0
H221 H 0.25493 0.44888 0.0586 0.0
H222 H 0.14196 0.35085 0.91785 0.0
H223 H 0.2309 0.28715 0.88816 0.0
H224 H 0.33607 0.24843 0.91319 0.0
H225 H 0.44558 0.33892 0.06135 0.0
H226 H 0.36364 0.41685 0.07655 0.0
C227 C 0.25005 0.41408 0.02095 0.0
C228 C 0.19194 0.405 0.99018 0.0
C229 C 0.30099 0.376 0.0056 0.0
C230 C 0.18643 0.35988 0.94129 0.0
C231 C 0.23721 0.32286 0.92472 0.0
C232 C 0.34276 0.28657 0.94722 0.0
C233 C 0.39654 0.28819 0.98606 0.0
C234 C 0.29421 0.32926 0.95777 0.0
C235 C 0.40437 0.33698 0.03092 0.0
C236 C 0.35736 0.38114 0.04 0.0
H237 H 0.17553 0.61087 0.07525 0.0
H238 H 0.09797 0.72323 0.92525 0.0
H239 H 0.16885 0.81038 0.95343 0.0
H240 H 0.26599 0.84419 0.0048 0.0
H241 H 0.35229 0.72861 0.1472 0.0
H242 H 0.26383 0.65424 0.14038 0.0
C243 C 0.17335 0.65526 0.05025 0.0
C244 C 0.13264 0.66119 -0.00193 0.0
C245 C 0.21598 0.70421 0.06527 0.0
C246 C 0.12965 0.7182 0.96531 0.0
C247 C 0.17006 0.7678 0.98137 0.0
C248 C 0.2643 0.80372 0.03579 0.0
C249 C 0.3157 0.79078 0.07532 0.0
C250 C 0.21542 0.75996 0.02899 0.0
C251 C 0.31307 0.73913 0.11618 0.0
C252 C 0.26298 0.69622 0.11157 0.0
H253 H 0.68334 0.19622 0.91165 0.0
H254 H 0.7021 0.15745 0.11071 0.0
H255 H 0.80264 0.21154 0.11457 0.0
H256 H 0.87208 0.28802 0.06764 0.0
H257 H 0.84477 0.34363 0.8743 0.0
H258 H 0.76198 0.26318 0.86071 0.0
C259 C 0.70996 0.19856 0.95563 0.0
C260 C 0.68499 0.17317 0.01111 0.0
C261 C 0.76606 0.23316 0.95828 0.0
C262 C 0.72023 0.17631 0.06749 0.0
C263 C 0.77762 0.20759 0.06977 0.0
C264 C 0.84907 0.28114 0.02198 0.0
C265 C 0.86292 0.32196 0.97234 0.0
C266 C 0.79917 0.23874 0.01631 0.0
C267 C 0.83429 0.31254 0.91305 0.0
C268 C 0.78648 0.26732 0.90576 0.0
H269 H 0.75481 0.57186 0.87994 0.0
H270 H 0.82508 0.59059 0.07157 0.0
H271 H 0.73191 0.64899 0.10012 0.0
H272 H 0.63596 0.70157 0.06885 0.0
H273 H 0.56885 0.69021 0.87558 0.0
H274 H 0.65504 0.62003 0.84991 0.0
C275 C 0.74966 0.58822 0.92816 0.0
C276 C 0.79726 0.57731 0.97349 0.0
C277 C 0.69655 0.62272 0.94392 0.0
C278 C 0.7896 0.5988 0.03566 0.0
C279 C 0.73623 0.63205 0.05202 0.0
C280 C 0.63937 0.6833 0.02111 0.0
C281 C 0.59613 0.70185 0.97399 0.0
C282 C 0.69013 0.64525 0.00624 0.0
C283 C 0.60145 0.67701 0.9127 0.0
C284 C 0.65098 0.63724 0.89793 0.0
loop_
_geom_bond_atom_site_label_1
_geom_bond_atom_site_label_2
_geom_bond_distance
_geom_bond_site_symmetry_2
_ccdc_geom_bond_type
C0 O27 1.312 1_655 S
C0 O28 1.208 . S
C1 O22 1.331 . S
C1 O25 1.244 1_565 S
C2 O24 1.264 1_545 S
C2 O26 1.273 . S
Mg3 O5 1.936 1_565 S
Mg3 O12 2.081 . S
Mg3 O14 2.023 . S
Mg3 O18 2.031 . S
Mg3 O27 2.291 . S
Mg4 O5 1.963 . S
Mg4 O15 1.942 . S
Mg4 O16 1.955 . S
Mg4 O23 1.986 . S
O5 Mg3 1.936 1_545 S
O5 Mg4 1.963 . S
O5 Mg6 1.915 . S
Mg6 O5 1.915 . S
Mg6 O7 1.915 1_455 S
Mg6 O11 2.013 . S
Mg6 O17 2.114 1_445 S
Mg6 O21 2.013 1_455 S
Mg6 O27 2.114 1_545 S
O7 Mg6 1.915 1_655 S
O7 Mg8 1.936 1_545 S
O7 Mg9 1.963 . S
Mg8 O7 1.936 1_565 S
Mg8 O17 2.291 . S
Mg8 O22 2.081 . S
Mg8 O24 2.023 . S
Mg8 O28 2.031 . S
Mg9 O7 1.963 . S
Mg9 O13 1.986 . S
Mg9 O25 1.942 . S
Mg9 O26 1.955 . S
C10 O21 1.191 1_455 S
C10 O23 1.307 . S
O11 Mg6 2.013 . S
O11 C30 1.191 1_455 S
O12 Mg3 2.081 . S
O12 C20 1.331 . S
O13 Mg9 1.986 . S
O13 C30 1.307 . S
O14 Mg3 2.023 . S
O14 C29 1.264 1_565 S
O15 Mg4 1.942 . S
O15 C20 1.244 1_545 S
O16 Mg4 1.955 . S
O16 C29 1.273 . S
O17 Mg6 2.114 1_665 S
O17 Mg8 2.291 . S
O17 C19 1.312 1_655 S
O18 Mg3 2.031 . S
O18 C19 1.208 . S
C19 O17 1.312 1_455 S
C19 O18 1.208 . S
C20 O12 1.331 . S
C20 O15 1.244 1_565 S
O21 Mg6 2.013 1_655 S
O21 C10 1.191 1_655 S
O22 C1 1.331 . S
O22 Mg8 2.081 . S
O23 Mg4 1.986 . S
O23 C10 1.307 . S
O24 C2 1.264 1_565 S
O24 Mg8 2.023 . S
O25 C1 1.244 1_545 S
O25 Mg9 1.942 . S
O26 C2 1.273 . S
O26 Mg9 1.955 . S
O27 C0 1.312 1_455 S
O27 Mg3 2.291 . S
O27 Mg6 2.114 1_565 S
O28 C0 1.208 . S
O28 Mg8 2.031 . S
C29 O14 1.264 1_545 S
C29 O16 1.273 . S
C30 O11 1.191 1_655 S
C30 O13 1.307 . S
C31 O58 1.312 1_545 S
C31 O59 1.208 . S
C32 O53 1.331 . S
C32 O56 1.244 1_556 S
C33 O55 1.264 1_554 S
C33 O57 1.273 . S
Mg34 O36 1.936 1_556 S
Mg34 O43 2.081 . S
Mg34 O45 2.023 . S
Mg34 O49 2.031 . S
Mg34 O58 2.291 . S
Mg35 O36 1.963 . S
Mg35 O46 1.942 . S
Mg35 O47 1.955 . S
Mg35 O54 1.986 . S
O36 Mg34 1.936 1_554 S
O36 Mg35 1.963 . S
O36 Mg37 1.915 1_565 S
Mg37 O36 1.915 1_545 S
Mg37 O38 1.915 . S
Mg37 O42 2.013 1_545 S
Mg37 O48 2.114 1_554 S
Mg37 O52 2.013 . S
Mg37 O58 2.114 1_544 S
O38 Mg37 1.915 . S
O38 Mg39 1.936 1_554 S
O38 Mg40 1.963 . S
Mg39 O38 1.936 1_556 S
Mg39 O48 2.291 . S
Mg39 O53 2.081 . S
Mg39 O55 2.023 . S
Mg39 O59 2.031 . S
Mg40 O38 1.963 . S
Mg40 O44 1.986 . S
Mg40 O56 1.942 . S
Mg40 O57 1.955 . S
C41 O52 1.191 1_565 S
C41 O54 1.307 . S
O42 Mg37 2.013 1_565 S
O42 C61 1.191 1_565 S
O43 Mg34 2.081 . S
O43 C51 1.331 . S
O44 Mg40 1.986 . S
O44 C61 1.307 . S
O45 Mg34 2.023 . S
O45 C60 1.264 1_556 S
O46 Mg35 1.942 . S
O46 C51 1.244 1_554 S
O47 Mg35 1.955 . S
O47 C60 1.273 . S
O48 Mg37 2.114 1_556 S
O48 Mg39 2.291 . S
O48 C50 1.312 1_545 S
O49 Mg34 2.031 . S
O49 C50 1.208 . S
C50 O48 1.312 1_565 S
C50 O49 1.208 . S
C51 O43 1.331 . S
C51 O46 1.244 1_556 S
O52 Mg37 2.013 . S
O52 C41 1.191 1_545 S
O53 C32 1.331 . S
O53 Mg39 2.081 . S
O54 Mg35 1.986 . S
O54 C41 1.307 . S
O55 C33 1.264 1_556 S
O55 Mg39 2.023 . S
O56 C32 1.244 1_554 S
O56 Mg40 1.942 . S
O57 C33 1.273 . S
O57 Mg40 1.955 . S
O58 C31 1.312 1_565 S
O58 Mg34 2.291 . S
O58 Mg37 2.114 1_566 S
O59 C31 1.208 . S
O59 Mg39 2.031 . S
C60 O45 1.264 1_554 S
C60 O47 1.273 . S
C61 O42 1.191 1_545 S
C61 O44 1.307 . S
C62 O89 1.312 1_556 S
C62 O90 1.208 . S
C63 O84 1.331 . S
C63 O87 1.244 1_655 S
C64 O86 1.264 1_455 S
C64 O88 1.273 . S
Mg65 O67 1.936 1_655 S
Mg65 O74 2.081 . S
Mg65 O76 2.023 . S
Mg65 O80 2.031 . S
Mg65 O89 2.291 . S
Mg66 O67 1.963 . S
Mg66 O77 1.942 . S
Mg66 O78 1.955 . S
Mg66 O85 1.986 . S
O67 Mg65 1.936 1_455 S
O67 Mg66 1.963 . S
O67 Mg68 1.915 . S
Mg68 O67 1.915 . S
Mg68 O69 1.915 1_554 S
Mg68 O73 2.013 . S
Mg68 O79 2.114 1_454 S
Mg68 O83 2.013 1_554 S
Mg68 O89 2.114 1_455 S
O69 Mg68 1.915 1_556 S
O69 Mg70 1.936 1_455 S
O69 Mg71 1.963 . S
Mg70 O69 1.936 1_655 S
Mg70 O79 2.291 . S
Mg70 O84 2.081 . S
Mg70 O86 2.023 . S
Mg70 O90 2.031 . S
Mg71 O69 1.963 . S
Mg71 O75 1.986 . S
Mg71 O87 1.942 . S
Mg71 O88 1.955 . S
C72 O83 1.191 1_554 S
C72 O85 1.307 . S
O73 Mg68 2.013 . S
O73 C92 1.191 1_554 S
O74 Mg65 2.081 . S
O74 C82 1.331 . S
O75 Mg71 1.986 . S
O75 C92 1.307 . S
O76 Mg65 2.023 . S
O76 C91 1.264 1_655 S
O77 Mg66 1.942 . S
O77 C82 1.244 1_455 S
O78 Mg66 1.955 . S
O78 C91 1.273 . S
O79 Mg68 2.114 1_656 S
O79 Mg70 2.291 . S
O79 C81 1.312 1_556 S
O80 Mg65 2.031 . S
O80 C81 1.208 . S
C81 O79 1.312 1_554 S
C81 O80 1.208 . S
C82 O74 1.331 . S
C82 O77 1.244 1_655 S
O83 Mg68 2.013 1_556 S
O83 C72 1.191 1_556 S
O84 C63 1.331 . S
O84 Mg70 2.081 . S
O85 Mg66 1.986 . S
O85 C72 1.307 . S
O86 C64 1.264 1_655 S
O86 Mg70 2.023 . S
O87 C63 1.244 1_455 S
O87 Mg71 1.942 . S
O88 C64 1.273 . S
O88 Mg71 1.955 . S
O89 C62 1.312 1_554 S
O89 Mg65 2.291 . S
O89 Mg68 2.114 1_655 S
O90 C62 1.208 . S
O90 Mg70 2.031 . S
C91 O76 1.264 1_455 S
C91 O78 1.273 . S
C92 O73 1.191 1_556 S
C92 O75 1.307 . S
H93 C99 0.930 . S
H94 C102 0.930 . S
H95 C103 0.930 . S
H96 C104 0.930 . S
H97 C107 0.930 . S
H98 C108 0.930 . S
C99 H93 0.930 . S
C99 C100 1.355 1_455 S
C99 C101 1.415 . S
C100 C99 1.355 1_655 S
C100 C102 1.419 . S
C101 C99 1.415 . S
C101 C106 1.425 1_455 S
C101 C108 1.409 . S
C102 H94 0.930 . S
C102 C100 1.419 . S
C102 C103 1.362 . S
C103 H95 0.930 . S
C103 C102 1.362 . S
C103 C106 1.409 . S
C104 H96 0.930 . S
C104 C105 1.355 1_655 S
C104 C106 1.415 . S
C105 C104 1.355 1_455 S
C105 C107 1.419 . S
C106 C101 1.425 1_655 S
C106 C103 1.409 . S
C106 C104 1.415 . S
C107 H97 0.930 . S
C107 C105 1.419 . S
C107 C108 1.362 . S
C108 H98 0.930 . S
C108 C101 1.409 . S
C108 C107 1.362 . S
H109 C115 0.930 . S
H110 C118 0.930 . S
H111 C119 0.930 . S
H112 C120 0.930 . S
H113 C123 0.930 . S
H114 C124 0.930 . S
C115 H109 0.930 . S
C115 C116 1.355 1_565 S
C115 C117 1.415 . S
C116 C115 1.355 1_545 S
C116 C118 1.419 . S
C117 C115 1.415 . S
C117 C122 1.425 1_565 S
C117 C124 1.409 . S
C118 H110 0.930 . S
C118 C116 1.419 . S
C118 C119 1.362 . S
C119 H111 0.930 . S
C119 C118 1.362 . S
C119 C122 1.409 . S
C120 H112 0.930 . S
C120 C121 1.355 . S
C120 C122 1.415 . S
C121 C120 1.355 . S
C121 C123 1.419 1_545 S
C122 C117 1.425 1_545 S
C122 C119 1.409 . S
C122 C120 1.415 . S
C123 H113 0.930 . S
C123 C121 1.419 1_565 S
C123 C124 1.362 . S
C124 H114 0.930 . S
C124 C117 1.409 . S
C124 C123 1.362 . S
H125 C131 0.930 . S
H126 C134 0.930 . S
H127 C135 0.930 . S
H128 C136 0.930 . S
H129 C139 0.930 . S
H130 C140 0.930 . S
C131 H125 0.930 . S
C131 C132 1.355 1_455 S
C131 C133 1.415 . S
C132 C131 1.355 1_655 S
C132 C134 1.419 . S
C133 C131 1.415 . S
C133 C138 1.425 1_455 S
C133 C140 1.409 . S
C134 H126 0.930 . S
C134 C132 1.419 . S
C134 C135 1.362 . S
C135 H127 0.930 . S
C135 C134 1.362 . S
C135 C138 1.409 . S
C136 H128 0.930 . S
C136 C137 1.355 1_655 S
C136 C138 1.415 . S
C137 C136 1.355 1_455 S
C137 C139 1.419 . S
C138 C133 1.425 1_655 S
C138 C135 1.409 . S
C138 C136 1.415 . S
C139 H129 0.930 . S
C139 C137 1.419 . S
C139 C140 1.362 . S
C140 H130 0.930 . S
C140 C133 1.409 . S
C140 C139 1.362 . S
H141 C147 0.930 . S
H142 C150 0.930 . S
H143 C151 0.930 . S
H144 C152 0.930 . S
H145 C155 0.930 . S
H146 C156 0.930 . S
C147 H141 0.930 . S
C147 C148 1.351 1_545 S
C147 C149 1.415 . S
C148 C147 1.351 1_565 S
C148 C150 1.424 . S
C149 C147 1.415 . S
C149 C154 1.425 1_545 S
C149 C156 1.409 . S
C150 H142 0.930 . S
C150 C148 1.424 . S
C150 C151 1.362 . S
C151 H143 0.930 . S
C151 C150 1.362 . S
C151 C154 1.409 . S
C152 H144 0.930 . S
C152 C153 1.355 . S
C152 C154 1.415 . S
C153 C152 1.355 . S
C153 C155 1.419 1_565 S
C154 C149 1.425 1_565 S
C154 C151 1.409 . S
C154 C152 1.415 . S
C155 H145 0.930 . S
C155 C153 1.419 1_545 S
C155 C156 1.362 . S
C156 H146 0.930 . S
C156 C149 1.409 . S
C156 C155 1.362 . S
H157 C163 0.930 . S
H158 C166 0.930 . S
H159 C167 0.930 . S
H160 C168 0.930 . S
H161 C171 0.930 . S
H162 C172 0.930 . S
C163 H157 0.930 . S
C163 C164 1.355 1_655 S
C163 C165 1.415 . S
C164 C163 1.355 1_455 S
C164 C166 1.419 . S
C165 C163 1.415 . S
C165 C170 1.425 1_655 S
C165 C172 1.409 . S
C166 H158 0.930 . S
C166 C164 1.419 . S
C166 C167 1.362 . S
C167 H159 0.930 . S
C167 C166 1.362 . S
C167 C170 1.409 . S
C168 H160 0.930 . S
C168 C169 1.355 1_455 S
C168 C170 1.415 . S
C169 C168 1.355 1_655 S
C169 C171 1.419 . S
C170 C165 1.425 1_455 S
C170 C167 1.409 . S
C170 C168 1.415 . S
C171 H161 0.930 . S
C171 C169 1.419 . S
C171 C172 1.362 . S
C172 H162 0.930 . S
C172 C165 1.409 . S
C172 C171 1.362 . S
H173 C179 0.930 . S
H174 C182 0.930 . S
H175 C183 0.930 . S
H176 C184 0.930 . S
H177 C187 0.930 . S
H178 C188 0.930 . S
C179 H173 0.930 . S
C179 C180 1.355 1_565 S
C179 C181 1.415 . S
C180 C179 1.355 1_545 S
C180 C182 1.419 . S
C181 C179 1.415 . S
C181 C186 1.425 1_565 S
C181 C188 1.409 . S
C182 H174 0.930 . S
C182 C180 1.419 . S
C182 C183 1.362 . S
C183 H175 0.930 . S
C183 C182 1.362 . S
C183 C186 1.409 . S
C184 H176 0.930 . S
C184 C185 1.355 . S
C184 C186 1.415 . S
C185 C184 1.355 . S
C185 C187 1.419 1_545 S
C186 C181 1.425 1_545 S
C186 C183 1.409 . S
C186 C184 1.415 . S
C187 H177 0.930 . S
C187 C185 1.419 1_565 S
C187 C188 1.362 . S
C188 H178 0.930 . S
C188 C181 1.409 . S
C188 C187 1.362 . S
H189 C195 0.930 . S
H190 C198 0.930 . S
H191 C199 0.930 . S
H192 C200 0.930 . S
H193 C203 0.930 . S
H194 C204 0.930 . S
C195 H189 0.930 . S
C195 C196 1.355 . S
C195 C197 1.415 . S
C196 C195 1.355 . S
C196 C198 1.419 1_455 S
C197 C195 1.415 . S
C197 C202 1.425 1_455 S
C197 C204 1.409 . S
C198 H190 0.930 . S
C198 C196 1.419 1_655 S
C198 C199 1.362 . S
C199 H191 0.930 . S
C199 C198 1.362 . S
C199 C202 1.409 . S
C200 H192 0.930 . S
C200 C201 1.355 1_655 S
C200 C202 1.415 . S
C201 C200 1.355 1_455 S
C201 C203 1.419 . S
C202 C197 1.425 1_655 S
C202 C199 1.409 . S
C202 C200 1.415 . S
C203 H193 0.930 . S
C203 C201 1.419 . S
C203 C204 1.362 . S
C204 H194 0.930 . S
C204 C197 1.409 . S
C204 C203 1.362 . S
H205 C211 0.930 . S
H206 C214 0.930 . S
H207 C215 0.930 . S
H208 C216 0.930 . S
H209 C219 0.930 . S
H210 C220 0.930 . S
C211 H205 0.930 . S
C211 C212 1.355 1_565 S
C211 C213 1.415 . S
C212 C211 1.355 1_545 S
C212 C214 1.419 . S
C213 C211 1.415 . S
C213 C218 1.425 1_565 S
C213 C220 1.409 . S
C214 H206 0.930 . S
C214 C212 1.419 . S
C214 C215 1.362 . S
C215 H207 0.930 . S
C215 C214 1.362 . S
C215 C218 1.409 . S
C216 H208 0.930 . S
C216 C217 1.355 1_545 S
C216 C218 1.415 . S
C217 C216 1.355 1_565 S
C217 C219 1.419 . S
C218 C213 1.425 1_545 S
C218 C215 1.409 . S
C218 C216 1.415 . S
C219 H209 0.930 . S
C219 C217 1.419 . S
C219 C220 1.362 . S
C220 H210 0.930 . S
C220 C213 1.409 . S
C220 C219 1.362 . S
H221 C227 0.930 . S
H222 C230 0.930 . S
H223 C231 0.930 . S
H224 C232 0.930 . S
H225 C235 0.930 . S
H226 C236 0.930 . S
C227 H221 0.930 . S
C227 C228 1.355 1_556 S
C227 C229 1.415 . S
C228 C227 1.355 1_554 S
C228 C230 1.419 . S
C229 C227 1.415 . S
C229 C234 1.425 1_556 S
C229 C236 1.409 . S
C230 H222 0.930 . S
C230 C228 1.419 . S
C230 C231 1.362 . S
C231 H223 0.930 . S
C231 C230 1.362 . S
C231 C234 1.409 . S
C232 H224 0.930 . S
C232 C233 1.355 1_554 S
C232 C234 1.415 . S
C233 C232 1.355 1_556 S
C233 C235 1.419 . S
C234 C229 1.425 1_554 S
C234 C231 1.409 . S
C234 C232 1.415 . S
C235 H225 0.930 . S
C235 C233 1.419 . S
C235 C236 1.362 . S
C236 H226 0.930 . S
C236 C229 1.409 . S
C236 C235 1.362 . S
H237 C243 0.930 . S
H238 C246 0.930 . S
H239 C247 0.930 . S
H240 C248 0.930 . S
H241 C251 0.930 . S
H242 C252 0.930 . S
C243 H237 0.930 . S
C243 C244 1.355 . S
C243 C245 1.415 . S
C244 C243 1.355 . S
C244 C246 1.419 1_554 S
C245 C243 1.415 . S
C245 C250 1.425 1_554 S
C245 C252 1.409 . S
C246 H238 0.930 . S
C246 C244 1.419 1_556 S
C246 C247 1.362 . S
C247 H239 0.930 . S
C247 C246 1.362 . S
C247 C250 1.409 . S
C248 H240 0.930 . S
C248 C249 1.355 1_556 S
C248 C250 1.415 . S
C249 C248 1.355 1_554 S
C249 C251 1.419 . S
C250 C245 1.425 1_556 S
C250 C247 1.409 . S
C250 C248 1.415 . S
C251 H241 0.930 . S
C251 C249 1.419 . S
C251 C252 1.362 . S
C252 H242 0.930 . S
C252 C245 1.409 . S
C252 C251 1.362 . S
H253 C259 0.930 1_556 S
H254 C262 0.930 . S
H255 C263 0.930 . S
H256 C264 0.930 . S
H257 C267 0.930 . S
H258 C268 0.930 . S
C259 H253 0.930 1_554 S
C259 C260 1.355 . S
C259 C261 1.415 . S
C260 C259 1.355 . S
C260 C262 1.419 . S
C261 C259 1.415 . S
C261 C266 1.425 . S
C261 C268 1.409 1_554 S
C262 H254 0.930 . S
C262 C260 1.419 . S
C262 C263 1.362 . S
C263 H255 0.930 . S
C263 C262 1.362 . S
C263 C266 1.409 . S
C264 H256 0.930 . S
C264 C265 1.356 . S
C264 C266 1.415 . S
C265 C264 1.356 . S
C265 C267 1.418 1_554 S
C266 C261 1.425 . S
C266 C263 1.409 . S
C266 C264 1.415 . S
C267 H257 0.930 . S
C267 C265 1.418 1_556 S
C267 C268 1.362 . S
C268 H258 0.930 . S
C268 C261 1.409 1_556 S
C268 C267 1.362 . S
H269 C275 0.930 . S
H270 C278 0.930 . S
H271 C279 0.930 . S
H272 C280 0.930 . S
H273 C283 0.930 . S
H274 C284 0.930 . S
C275 H269 0.930 . S
C275 C276 1.355 1_556 S
C275 C277 1.415 . S
C276 C275 1.355 1_554 S
C276 C278 1.419 . S
C277 C275 1.415 . S
C277 C282 1.425 1_556 S
C277 C284 1.409 . S
C278 H270 0.930 . S
C278 C276 1.419 . S
C278 C279 1.362 . S
C279 H271 0.930 . S
C279 C278 1.362 . S
C279 C282 1.409 . S
C280 H272 0.930 . S
C280 C281 1.355 1_554 S
C280 C282 1.415 . S
C281 C280 1.355 1_556 S
C281 C283 1.419 . S
C282 C277 1.425 1_554 S
C282 C279 1.409 . S
C282 C280 1.415 . S
C283 H273 0.930 . S
C283 C281 1.419 . S
C283 C284 1.362 . S
C284 H274 0.930 . S
C284 C277 1.409 . S
C284 C283 1.362 . S
C100 C82 1.343 . S
C105 C10 1.266 . S
C116 C2 1.378 . S
C121 C41 1.291 1_545 S
C132 C19 1.377 1_655 S
C137 C91 1.449 . S
C148 C61 1.325 1_565 S
C153 C20 1.316 . S
C164 C0 1.315 1_455 S
C169 C63 1.368 . S
C180 C31 1.315 . S
C185 C29 1.430 . S
C196 C64 1.369 . S
C201 C30 1.364 1_455 S
C212 C50 1.320 1_545 S
C217 C1 1.356 . S
C228 C72 1.327 . S
C233 C32 1.327 . S
C244 C92 1.357 1_554 S
C249 C60 1.371 . S
C260 C33 1.441 . S
C265 C81 1.310 . S
C276 C62 1.326 1_554 S
C281 C51 1.361 . S
