# Generated by pormake.
# Topology irl, (4)-cn, num edge types: 1
# Building blocks:
#     Node 0, Type 0, BuildingBlock: QUQFOY_clean_sbu_3, # of connection points: 4
#     Node 1, Type 0, BuildingBlock: QUQFOY_clean_sbu_3, # of connection points: 4
#     Node 2, Type 0, BuildingBlock: QUQFOY_clean_sbu_3, # of connection points: 4
#     Node 3, Type 0, BuildingBlock: QUQFOY_clean_sbu_3, # of connection points: 4
#     Node 4, Type 0, BuildingBlock: QUQFOY_clean_sbu_3, # of connection points: 4
#     Node 5, Type 0, BuildingBlock: QUQFOY_clean_sbu_3, # of connection points: 4
#     Node 6, Type 0, BuildingBlock: QUQFOY_clean_sbu_3, # of connection points: 4
#     Node 7, Type 0, BuildingBlock: QUQFOY_clean_sbu_3, # of connection points: 4
#     Edge 8, Type (0, 0), BuildingBlock: KIFKEQ_clean_linker_1, # of connection points: 2
#     Edge 9, Type (0, 0), BuildingBlock: KIFKEQ_clean_linker_1, # of connection points: 2
#     Edge 10, Type (0, 0), BuildingBlock: KIFKEQ_clean_linker_1, # of connection points: 2
#     Edge 11, Type (0, 0), BuildingBlock: KIFKEQ_clean_linker_1, # of connection points: 2
#     Edge 12, Type (0, 0), BuildingBlock: KIFKEQ_clean_linker_1, # of connection points: 2
#     Edge 13, Type (0, 0), BuildingBlock: KIFKEQ_clean_linker_1, # of connection points: 2
#     Edge 14, Type (0, 0), BuildingBlock: KIFKEQ_clean_linker_1, # of connection points: 2
#     Edge 15, Type (0, 0), BuildingBlock: KIFKEQ_clean_linker_1, # of connection points: 2
#     Edge 16, Type (0, 0), BuildingBlock: KIFKEQ_clean_linker_1, # of connection points: 2
#     Edge 17, Type (0, 0), BuildingBlock: KIFKEQ_clean_linker_1, # of connection points: 2
#     Edge 18, Type (0, 0), BuildingBlock: KIFKEQ_clean_linker_1, # of connection points: 2
#     Edge 19, Type (0, 0), BuildingBlock: KIFKEQ_clean_linker_1, # of connection points: 2
#     Edge 20, Type (0, 0), BuildingBlock: KIFKEQ_clean_linker_1, # of connection points: 2
#     Edge 21, Type (0, 0), BuildingBlock: KIFKEQ_clean_linker_1, # of connection points: 2
#     Edge 22, Type (0, 0), BuildingBlock: KIFKEQ_clean_linker_1, # of connection points: 2
#     Edge 23, Type (0, 0), BuildingBlock: KIFKEQ_clean_linker_1, # of connection points: 2
# Relax obj value: 0.062
# Max RMSD: 0.123
# Mean RMSD: 0.123
data_MOF--net-irl--node1-QUQFOY_clean_sbu_3--edge1-KIFKEQ_clean_linker_1
_symmetry_space_group_name_H-M    P1
_symmetry_Int_Tables_number       1
_symmetry_cell_setting            triclinic
loop_
_symmetry_equiv_pos_as_xyz
'x, y, z'
_cell_length_a     35.881267
_cell_length_b     45.922933
_cell_length_c     29.502028
_cell_angle_alpha  90.095824
_cell_angle_beta   89.999983
_cell_angle_gamma 90.069882
loop_
_atom_site_label
_atom_site_type_symbol
_atom_site_fract_x
_atom_site_fract_y
_atom_site_fract_z
_atom_type_partial_charge
C0 C 0.99071 0.2091 0.89851 0.0
O1 O 0.95937 0.205 0.91734 0.0
Cd2 Cd 0.95682 0.17812 -0.01223 0.0
O3 O 0.02027 0.20003 0.91729 0.0
Cd4 Cd 0.04183 0.17626 -0.01419 0.0
C5 C -0.00106 0.11332 0.95991 0.0
O6 O -4e-05 0.19527 0.04465 0.0
O7 O 0.03293 0.15689 0.06001 0.0
O8 O 0.08369 0.21641 -0.00337 0.0
C9 C 0.01126 0.17684 0.07375 0.0
O10 O 0.96955 0.12714 0.97101 0.0
C11 C 0.11363 0.20221 -0.00851 0.0
O12 O 0.03039 0.12629 0.95867 0.0
O13 O 0.11061 0.17502 -0.01624 0.0
C14 C -0.00699 0.80261 0.90274 0.0
O15 O 0.02274 0.80465 0.92587 0.0
Cd16 Cd 0.02084 0.82931 -0.00152 0.0
O17 O 0.96236 0.81171 0.9188 0.0
Cd18 Cd 0.93248 0.83218 -0.01491 0.0
C19 C 0.98035 0.89492 0.96887 0.0
O20 O 0.97088 0.80916 0.0426 0.0
O21 O 0.93227 0.84252 0.06509 0.0
O22 O 0.8898 0.79232 0.97704 0.0
C23 C 0.9563 0.82333 0.07509 0.0
O24 O 0.00878 0.88069 0.98222 0.0
C25 C 0.8605 0.80754 0.9736 0.0
O26 O 0.9488 0.88239 0.96435 0.0
O27 O 0.8644 0.83509 0.97508 0.0
C28 C 0.00251 0.80432 0.57084 0.0
O29 O 0.97279 0.80591 0.54764 0.0
Cd30 Cd 0.97553 0.83042 0.47515 0.0
O31 O 0.03321 0.81302 0.55435 0.0
Cd32 Cd 0.06407 0.8313 0.48719 0.0
C33 C 0.01973 0.89503 0.50501 0.0
O34 O 0.02405 0.80876 0.43043 0.0
O35 O 0.06451 0.84053 0.40708 0.0
O36 O 0.1019 0.78962 0.50284 0.0
C37 C 0.03922 0.82219 0.39761 0.0
O38 O 0.99066 0.88121 0.49247 0.0
C39 C 0.1331 0.80245 0.50024 0.0
O40 O 0.05104 0.88206 0.50841 0.0
O41 O 0.13264 0.82964 0.49174 0.0
C42 C 0.01052 0.21007 0.57238 0.0
O43 O 0.03888 0.20532 0.54781 0.0
Cd44 Cd 0.03032 0.17836 0.47775 0.0
O45 O 0.97876 0.20058 0.56063 0.0
Cd46 Cd 0.94614 0.1744 0.50142 0.0
C47 C -0.00358 0.11294 0.51613 0.0
O48 O 0.97699 0.19497 0.43465 0.0
O49 O 0.94087 0.15753 0.42503 0.0
O50 O 0.90108 0.21277 0.50667 0.0
C51 C 0.96065 0.1775 0.40763 0.0
O52 O 0.02276 0.12724 0.49763 0.0
C53 C 0.87342 0.19689 0.51681 0.0
O54 O 0.96536 0.1252 0.52501 0.0
O55 O 0.87932 0.16966 0.52024 0.0
C56 C 0.47399 0.7109 0.92227 0.0
O57 O 0.44549 0.70603 0.94659 0.0
Cd58 Cd 0.45361 0.68222 0.01939 0.0
O59 O 0.50613 0.70358 0.93594 0.0
Cd60 Cd 0.5403 0.68221 -0.00202 0.0
C61 C 0.49433 0.61808 -0.01521 0.0
O62 O 0.50517 0.70266 0.06133 0.0
O63 O 0.5469 0.66979 0.0762 0.0
O64 O 0.58169 0.72299 -0.00993 0.0
C65 C 0.52308 0.68796 0.09065 0.0
O66 O 0.46643 0.63148 0.00147 0.0
C67 C 0.61075 0.70832 0.98151 0.0
O68 O 0.52485 0.6315 0.97708 0.0
O69 O 0.60729 0.68074 0.98015 0.0
C70 C 0.48133 0.30628 0.90461 0.0
O71 O 0.51239 0.30723 0.92512 0.0
Cd72 Cd 0.51614 0.3334 -0.00382 0.0
O73 O 0.45224 0.31649 0.92314 0.0
Cd74 Cd 0.42996 0.33659 -0.00567 0.0
C75 C 0.47477 0.3996 0.9734 0.0
O76 O 0.47194 0.31334 0.04871 0.0
O77 O 0.43649 0.34829 0.07322 0.0
O78 O 0.38854 0.29576 -0.00621 0.0
C79 C 0.45954 0.32812 0.0819 0.0
O80 O 0.50405 0.38502 0.9823 0.0
C81 C 0.35841 0.3101 -0.00617 0.0
O82 O 0.44292 0.38724 0.97277 0.0
O83 O 0.36109 0.33776 -0.00637 0.0
C84 C 0.48194 0.28265 0.57598 0.0
O85 O 0.45326 0.28567 0.55122 0.0
Cd86 Cd 0.45993 0.31043 0.47888 0.0
O87 O 0.51352 0.2912 0.56194 0.0
Cd88 Cd 0.54774 0.31209 0.49959 0.0
C89 C 0.49991 0.37516 0.51391 0.0
O90 O 0.51216 0.29117 0.43724 0.0
O91 O 0.55343 0.32417 0.42096 0.0
O92 O 0.59048 0.27222 0.50909 0.0
C93 C 0.52915 0.30607 0.40734 0.0
O94 O 0.47201 0.36142 0.49777 0.0
C95 C 0.61907 0.28775 0.51663 0.0
O96 O 0.53089 0.36223 0.52061 0.0
O97 O 0.61464 0.31525 0.51657 0.0
C98 C 0.49445 0.68779 0.59596 0.0
O99 O 0.52573 0.68363 0.577 0.0
Cd100 Cd 0.52592 0.65884 0.50438 0.0
O101 O 0.46472 0.67947 0.5767 0.0
Cd102 Cd 0.44028 0.65771 0.50815 0.0
C103 C 0.48298 0.59363 0.52755 0.0
O104 O 0.48195 0.68106 0.4528 0.0
O105 O 0.44355 0.64787 0.42873 0.0
O106 O 0.40029 0.69866 0.51942 0.0
C107 C 0.46735 0.66742 0.41967 0.0
O108 O 0.51247 0.60752 0.51711 0.0
C109 C 0.36969 0.68532 0.51426 0.0
O110 O 0.45176 0.60679 0.53014 0.0
O111 O 0.37138 0.65808 0.50633 0.0
H112 H 0.0395 0.93006 -0.01087 0.0
H113 H 0.92983 0.93148 0.92864 0.0
H114 H 0.04435 0.98245 0.97992 0.0
H115 H 0.93526 0.98394 0.91779 0.0
H116 H 0.05472 0.07543 0.93516 0.0
H117 H 0.05083 0.02245 0.92953 0.0
H118 H 0.9337 0.02631 0.96328 0.0
H119 H 0.93726 0.0789 0.96718 0.0
C120 C 0.0166 0.94149 0.97321 0.0
C121 C 0.9841 0.92656 0.96003 0.0
C122 C 0.01953 0.9716 0.96756 0.0
C123 C 0.99017 0.98757 0.94821 0.0
C124 C 0.95817 0.97246 0.93357 0.0
C125 C 0.95508 0.94234 0.93962 0.0
C126 C 0.02805 0.06496 0.9407 0.0
C127 C -0.00361 0.08147 0.95189 0.0
C128 C 0.02585 0.03456 0.93779 0.0
C129 C 0.99199 0.01998 0.94628 0.0
C130 C 0.96013 0.03666 0.95587 0.0
C131 C 0.96227 0.06696 0.95845 0.0
H132 H 0.95825 0.92948 0.49608 0.0
H133 H 0.07428 0.93242 0.53524 0.0
H134 H 0.9537 0.98176 0.50621 0.0
H135 H 0.06938 0.98495 0.54672 0.0
H136 H 0.05746 0.07987 0.49625 0.0
H137 H 0.06346 0.02734 0.50027 0.0
H138 H 0.95335 0.02139 0.55891 0.0
H139 H 0.94682 0.07417 0.55355 0.0
C140 C 0.98274 0.94121 0.50744 0.0
C141 C 0.01676 0.9267 0.51444 0.0
C142 C 0.98 0.97127 0.51367 0.0
C143 C 0.01115 0.98767 0.52728 0.0
C144 C 0.04494 0.97306 0.53561 0.0
C145 C 0.04774 0.94291 0.52919 0.0
C146 C 0.0346 0.06747 0.51048 0.0
C147 C 0.00145 0.08129 0.5241 0.0
C148 C 0.03819 0.03725 0.5131 0.0
C149 C 0.00881 0.02002 0.52962 0.0
C150 C 0.97629 0.03395 0.54523 0.0
C151 C 0.97261 0.06424 0.54242 0.0
H152 H 0.43571 0.58259 0.00512 0.0
H153 H 0.54535 0.58165 0.94444 0.0
H154 H 0.43117 0.5303 -0.00428 0.0
H155 H 0.54025 0.52904 0.93358 0.0
H156 H 0.53697 0.43346 0.98241 0.0
H157 H 0.54135 0.48614 0.97896 0.0
H158 H 0.42457 0.491 0.94388 0.0
H159 H 0.41987 0.43811 0.94891 0.0
C160 C 0.45872 0.57129 -0.01084 0.0
C161 C 0.49105 0.58638 0.97586 0.0
C162 C 0.45594 0.54121 -0.01661 0.0
C163 C 0.48531 0.52533 0.96386 0.0
C164 C 0.51729 0.54051 0.94935 0.0
C165 C 0.52017 0.57069 0.95539 0.0
C166 C 0.51223 0.44568 0.97355 0.0
C167 C 0.47794 0.4315 0.96644 0.0
C168 C 0.51484 0.47599 0.97123 0.0
C169 C 0.48328 0.49295 0.96143 0.0
C170 C 0.44931 0.47868 0.95238 0.0
C171 C 0.44663 0.44832 0.95502 0.0
H172 H 0.44132 0.41063 0.49324 0.0
H173 H 0.5502 0.41135 0.55589 0.0
H174 H 0.43683 0.46297 0.50321 0.0
H175 H 0.54515 0.46382 0.56731 0.0
H176 H 0.54429 0.55902 0.51875 0.0
H177 H 0.54743 0.50635 0.52158 0.0
H178 H 0.43023 0.50263 0.55496 0.0
H179 H 0.42678 0.55566 0.55062 0.0
C180 C 0.46413 0.42189 0.50977 0.0
C181 C 0.49631 0.40677 0.52336 0.0
C182 C 0.46139 0.45197 0.51584 0.0
C183 C 0.49065 0.46774 0.53596 0.0
C184 C 0.52233 0.45246 0.55098 0.0
C185 C 0.52518 0.42234 0.54461 0.0
C186 C 0.51917 0.54708 0.5271 0.0
C187 C 0.48517 0.56164 0.53404 0.0
C188 C 0.52107 0.51676 0.52908 0.0
C189 C 0.48908 0.50012 0.53834 0.0
C190 C 0.45531 0.51473 0.547 0.0
C191 C 0.45335 0.54515 0.54478 0.0
H192 H 0.01716 0.13383 0.13592 0.0
H193 H 0.981 0.22298 0.11988 0.0
H194 H 0.00208 0.136 0.21617 0.0
H195 H 0.966 0.22513 0.20105 0.0
H196 H -0.00366 0.21994 0.3588 0.0
H197 H 0.00504 0.22154 0.27641 0.0
H198 H 0.94265 0.14156 0.26279 0.0
H199 H 0.9339 0.13985 0.34448 0.0
C200 C 0.00584 0.15388 0.14955 0.0
C201 C 0.00022 0.17825 0.12173 0.0
C202 C -0.00293 0.15505 0.19542 0.0
C203 C 0.98284 0.1807 0.21458 0.0
C204 C 0.9771 0.20516 0.18692 0.0
C205 C 0.98543 0.20386 0.14062 0.0
C206 C 0.98432 0.20284 0.3381 0.0
C207 C 0.96478 0.17963 0.35806 0.0
C208 C 0.98905 0.20388 0.29108 0.0
C209 C 0.97462 0.18159 0.26354 0.0
C210 C 0.95431 0.15885 0.28343 0.0
C211 C 0.94932 0.15792 0.33017 0.0
H212 H 0.97433 0.79788 0.36743 0.0
H213 H 0.07798 0.83573 0.3215 0.0
H214 H 0.95347 0.79354 0.2886 0.0
H215 H 0.0573 0.83104 0.24308 0.0
H216 H 0.01862 0.79576 0.10593 0.0
H217 H 0.03876 0.79074 0.18483 0.0
H218 H 0.93873 0.83435 0.22954 0.0
H219 H 0.91875 0.8397 0.15093 0.0
C220 C -0.00721 0.80487 0.34049 0.0
C221 C 0.02761 0.81733 0.35041 0.0
C222 C 0.98085 0.80245 0.29559 0.0
C223 C 0.00388 0.81192 0.26006 0.0
C224 C 0.03924 0.82332 0.26994 0.0
C225 C 0.0509 0.8262 0.31476 0.0
C226 C 0.00081 0.80399 0.13268 0.0
C227 C 0.96731 0.81832 0.12245 0.0
C228 C 0.01233 0.80115 0.17765 0.0
C229 C 0.9902 0.81213 0.21298 0.0
C230 C 0.95606 0.82546 0.20282 0.0
C231 C 0.94483 0.82872 0.1579 0.0
H232 H 0.05882 0.80781 0.63197 0.0
H233 H 0.94551 0.77725 0.61673 0.0
H234 H 0.05648 0.79769 0.712 0.0
H235 H 0.94375 0.76542 0.69739 0.0
H236 H 0.93572 0.80289 0.84263 0.0
H237 H 0.93844 0.79396 0.76224 0.0
H238 H 0.05359 0.76731 0.77494 0.0
H239 H 0.05136 0.77801 0.85599 0.0
C240 C 0.03359 0.79823 0.64556 0.0
C241 C 0.002 0.79395 0.61816 0.0
C242 C 0.03242 0.79203 0.69165 0.0
C243 C -0.00021 0.78096 0.71153 0.0
C244 C 0.96907 0.77458 0.68341 0.0
C245 C 0.97004 0.78127 0.63719 0.0
C246 C 0.96158 0.79476 0.82855 0.0
C247 C -0.00634 0.7919 0.85553 0.0
C248 C 0.963 0.78924 0.78222 0.0
C249 C -0.0036 0.7803 0.76172 0.0
C250 C 0.02765 0.77493 0.78942 0.0
C251 C 0.02639 0.78093 0.83589 0.0
H252 H 0.93588 0.21346 0.83472 0.0
H253 H 0.05198 0.23304 0.85883 0.0
H254 H 0.94412 0.22443 0.75483 0.0
H255 H 0.06006 0.24512 0.77909 0.0
H256 H 0.0676 0.205 0.63277 0.0
H257 H 0.06386 0.21508 0.7137 0.0
H258 H 0.95681 0.2564 0.69401 0.0
H259 H 0.96001 0.24498 0.61345 0.0
C260 C 0.96286 0.22103 0.82318 0.0
C261 C -0.0066 0.22185 0.85277 0.0
C262 C 0.96764 0.22752 0.77733 0.0
C263 C 0.00298 0.23531 0.76031 0.0
C264 C 0.03272 0.23856 0.79084 0.0
C265 C 0.02803 0.23175 0.83656 0.0
C266 C 0.04393 0.21709 0.64563 0.0
C267 C 0.01383 0.22377 0.61726 0.0
C268 C 0.0417 0.22296 0.69205 0.0
C269 C 0.00954 0.23597 0.71059 0.0
C270 C 0.98143 0.24559 0.68108 0.0
C271 C 0.98339 0.23928 0.63492 0.0
H272 H 0.46151 0.71047 0.13231 0.0
H273 H 0.56928 0.67227 0.15913 0.0
H274 H 0.44808 0.71056 0.21377 0.0
H275 H 0.55599 0.6727 0.24019 0.0
H276 H 0.52735 0.69755 0.38691 0.0
H277 H 0.54147 0.70817 0.30725 0.0
H278 H 0.43929 0.66574 0.26676 0.0
H279 H 0.4254 0.65482 0.34573 0.0
C280 C 0.4825 0.70259 0.15564 0.0
C281 C 0.51623 0.69108 0.13956 0.0
C282 C 0.47482 0.7026 0.20207 0.0
C283 C 0.50105 0.69162 0.23298 0.0
C284 C 0.53549 0.68152 0.21701 0.0
C285 C 0.54291 0.68105 0.17066 0.0
C286 C 0.50786 0.69073 0.36093 0.0
C287 C 0.47548 0.67517 0.37232 0.0
C288 C 0.51591 0.69679 0.31555 0.0
C289 C 0.4913 0.6879 0.28116 0.0
C290 C 0.45843 0.67315 0.29276 0.0
C291 C 0.45072 0.66666 0.33787 0.0
H292 H 0.57291 0.32165 0.33644 0.0
H293 H 0.46492 0.28563 0.3692 0.0
H294 H 0.55602 0.32258 0.25632 0.0
H295 H 0.44785 0.28703 0.28877 0.0
H296 H 0.42232 0.34372 0.1583 0.0
H297 H 0.43935 0.33318 0.23661 0.0
H298 H 0.53674 0.28672 0.19031 0.0
H299 H 0.51943 0.29686 0.11151 0.0
C300 C 0.54572 0.31365 0.32639 0.0
C301 C 0.52008 0.30375 0.35888 0.0
C302 C 0.5362 0.31402 0.28061 0.0
C303 C 0.50069 0.30493 0.26668 0.0
C304 C 0.47539 0.2942 0.29894 0.0
C305 C 0.48516 0.29333 0.34474 0.0
C306 C 0.44727 0.33112 0.16479 0.0
C307 C 0.46971 0.32121 0.12896 0.0
C308 C 0.45677 0.32489 0.20951 0.0
C309 C 0.48917 0.30904 0.2192 0.0
C310 C 0.51157 0.29896 0.18346 0.0
C311 C 0.50169 0.30475 0.13858 0.0
H312 H 0.42756 0.31744 0.84261 0.0
H313 H 0.52778 0.26715 0.86301 0.0
H314 H 0.4245 0.30123 0.76477 0.0
H315 H 0.52357 0.24917 0.78524 0.0
H316 H 0.53897 0.27154 0.63375 0.0
H317 H 0.53583 0.26875 0.71506 0.0
H318 H 0.41537 0.26675 0.70822 0.0
H319 H 0.41868 0.27153 0.62591 0.0
C320 C 0.44856 0.30234 0.83062 0.0
C321 C 0.47835 0.294 0.85857 0.0
C322 C 0.44652 0.29265 0.78596 0.0
C323 C 0.47388 0.27391 0.76828 0.0
C324 C 0.50245 0.26412 0.79729 0.0
C325 C 0.50493 0.27437 0.84184 0.0
C326 C 0.51171 0.27003 0.64938 0.0
C327 C 0.47903 0.27278 0.62347 0.0
C328 C 0.5099 0.26806 0.69635 0.0
C329 C 0.47531 0.26828 0.71863 0.0
C330 C 0.44253 0.26754 0.69227 0.0
C331 C 0.44436 0.26998 0.64505 0.0
H332 H 0.52449 0.74257 0.87505 0.0
H333 H 0.41682 0.7012 0.86325 0.0
H334 H 0.52822 0.74671 0.79287 0.0
H335 H 0.42097 0.70433 0.78102 0.0
H336 H 0.43337 0.71333 0.63306 0.0
H337 H 0.42529 0.72993 0.71077 0.0
H338 H 0.54044 0.70895 0.73884 0.0
H339 H 0.54877 0.69322 0.66059 0.0
C340 C 0.50116 0.73507 0.8548 0.0
C341 C 0.4706 0.72117 0.87526 0.0
C342 C 0.50345 0.73721 0.80777 0.0
C343 C 0.47542 0.72514 0.78034 0.0
C344 C 0.44307 0.71393 0.80109 0.0
C345 C 0.4406 0.71212 0.84828 0.0
C346 C 0.45714 0.71269 0.65569 0.0
C347 C 0.4916 0.70153 0.64105 0.0
C348 C 0.45244 0.72218 0.70022 0.0
C349 C 0.48201 0.72047 0.73121 0.0
C350 C 0.51712 0.71092 0.71576 0.0
C351 C 0.52192 0.70169 0.67099 0.0
H352 H 0.28888 0.33248 0.9776 0.0
H353 H 0.34654 0.25287 0.01127 0.0
H354 H 0.22982 0.30596 0.9765 0.0
H355 H 0.28776 0.22669 0.01201 0.0
H356 H 0.18165 0.18202 0.96359 0.0
H357 H 0.24063 0.20858 0.96325 0.0
H358 H 0.18627 0.28266 0.0251 0.0
H359 H 0.12735 0.25658 0.02373 0.0
C360 C 0.28886 0.30941 -0.01487 0.0
C361 C 0.32228 0.29475 -0.00567 0.0
C362 C 0.25506 0.2942 -0.01526 0.0
C363 C 0.25402 0.26412 -0.00594 0.0
C364 C 0.28753 0.24966 0.00377 0.0
C365 C 0.32124 0.26475 0.00366 0.0
C366 C 0.18245 0.20393 0.97722 0.0
C367 C 0.14994 0.21724 -0.00645 0.0
C368 C 0.21622 0.21915 0.97719 0.0
C369 C 0.2182 0.24785 -0.006 0.0
C370 C 0.18568 0.26087 0.01103 0.0
C371 C 0.15193 0.2458 0.01059 0.0
H372 H 0.67526 0.68542 0.94712 0.0
H373 H 0.62768 0.76458 0.00107 0.0
H374 H 0.73521 0.70999 0.9386 0.0
H375 H 0.68763 0.78869 -0.00526 0.0
H376 H 0.79371 0.83244 0.95078 0.0
H377 H 0.73303 0.80844 0.94608 0.0
H378 H 0.78407 0.72688 -0.01529 0.0
H379 H 0.84446 0.75049 -0.01277 0.0
C380 C 0.67768 0.70802 0.95727 0.0
C381 C 0.6469 0.72303 0.97492 0.0
C382 C 0.71204 0.7221 0.95262 0.0
C383 C 0.71639 0.75134 0.96619 0.0
C384 C 0.68528 0.76637 -0.01683 0.0
C385 C 0.65091 0.75244 -0.01281 0.0
C386 C 0.79185 0.80935 0.9579 0.0
C387 C 0.82375 0.79337 0.96948 0.0
C388 C 0.7571 0.79559 0.95543 0.0
C389 C 0.75355 0.76568 0.96513 0.0
C390 C 0.7857 0.74976 0.97615 0.0
C391 C 0.82038 0.7634 0.978 0.0
H392 H 0.14032 0.74659 0.52911 0.0
H393 H 0.20449 0.82063 0.48344 0.0
H394 H 0.19703 0.71797 0.53523 0.0
H395 H 0.26136 0.79164 0.48833 0.0
H396 H 0.35939 0.74084 0.54323 0.0
H397 H 0.30227 0.76915 0.54245 0.0
H398 H 0.24285 0.69526 0.48713 0.0
H399 H 0.30013 0.66655 0.48914 0.0
C400 C 0.1666 0.75676 0.5203 0.0
C401 C 0.168 0.78587 0.50572 0.0
C402 C 0.19906 0.74025 0.52352 0.0
C403 C 0.23368 0.75243 0.51202 0.0
C404 C 0.23515 0.7817 0.49797 0.0
C405 C 0.20261 0.79831 0.495 0.0
C406 C 0.33409 0.73054 0.53112 0.0
C407 C 0.33422 0.70148 0.51608 0.0
C408 C 0.3014 0.74687 0.53038 0.0
C409 C 0.26808 0.73459 0.51435 0.0
C410 C 0.26801 0.70529 0.50011 0.0
C411 C 0.30079 0.68885 0.50111 0.0
H412 H 0.68339 0.31353 0.54633 0.0
H413 H 0.6377 0.23111 0.50238 0.0
H414 H 0.74467 0.29107 0.55385 0.0
H415 H 0.69895 0.20899 0.50788 0.0
H416 H 0.80962 0.17075 0.54811 0.0
H417 H 0.74791 0.19275 0.55552 0.0
H418 H 0.79178 0.27416 0.50468 0.0
H419 H 0.85318 0.25263 0.49917 0.0
C420 C 0.68648 0.29064 0.53826 0.0
C421 C 0.65586 0.27414 0.52347 0.0
C422 C 0.72159 0.27777 0.54235 0.0
C423 C 0.72687 0.24823 0.53113 0.0
C424 C 0.69591 0.23164 0.51746 0.0
C425 C 0.66079 0.24441 0.51393 0.0
C426 C 0.80599 0.19339 0.53892 0.0
C427 C 0.83617 0.20991 0.52292 0.0
C428 C 0.77065 0.20599 0.54296 0.0
C429 C 0.7648 0.23526 0.53065 0.0
C430 C 0.79527 0.25177 0.51532 0.0
C431 C 0.83051 0.2393 0.51175 0.0
loop_
_geom_bond_atom_site_label_1
_geom_bond_atom_site_label_2
_geom_bond_distance
_geom_bond_site_symmetry_2
_ccdc_geom_bond_type
C0 O1 1.306 1_455 S
C0 O3 1.160 . S
O1 C0 1.306 1_655 S
O1 Cd2 2.228 1_556 S
Cd2 O1 2.228 1_554 S
Cd2 O6 2.273 1_655 S
Cd2 O10 2.277 1_655 S
O3 C0 1.160 . S
O3 Cd4 2.203 1_556 S
Cd4 O3 2.203 1_554 S
Cd4 O6 2.411 . S
Cd4 O7 2.333 . S
Cd4 O8 2.352 . S
Cd4 O12 2.277 . S
Cd4 O13 2.356 . S
C5 O10 1.209 . S
C5 O12 1.226 . S
O6 Cd2 2.273 1_455 S
O6 Cd4 2.411 . S
O6 C9 1.320 . S
O7 Cd4 2.333 . S
O7 C9 1.214 . S
O8 Cd4 2.352 . S
O8 C11 1.258 . S
C9 O6 1.320 . S
C9 O7 1.214 . S
O10 Cd2 2.277 1_455 S
O10 C5 1.209 . S
C11 O8 1.258 . S
C11 O13 1.282 . S
O12 Cd4 2.277 . S
O12 C5 1.226 . S
O13 Cd4 2.356 . S
O13 C11 1.282 . S
C14 O15 1.306 1_655 S
C14 O17 1.160 . S
O15 C14 1.306 1_455 S
O15 Cd16 2.228 1_556 S
Cd16 O15 2.228 1_554 S
Cd16 O20 2.273 1_455 S
Cd16 O24 2.277 1_455 S
O17 C14 1.160 . S
O17 Cd18 2.203 1_556 S
Cd18 O17 2.203 1_554 S
Cd18 O20 2.411 . S
Cd18 O21 2.333 . S
Cd18 O22 2.352 . S
Cd18 O26 2.277 . S
Cd18 O27 2.356 . S
C19 O24 1.209 . S
C19 O26 1.226 . S
O20 Cd16 2.273 1_655 S
O20 Cd18 2.411 . S
O20 C23 1.320 . S
O21 Cd18 2.333 . S
O21 C23 1.214 . S
O22 Cd18 2.352 . S
O22 C25 1.258 . S
C23 O20 1.320 . S
C23 O21 1.214 . S
O24 Cd16 2.277 1_655 S
O24 C19 1.209 . S
C25 O22 1.258 . S
C25 O27 1.282 . S
O26 Cd18 2.277 . S
O26 C19 1.226 . S
O27 Cd18 2.356 . S
O27 C25 1.282 . S
C28 O29 1.306 1_455 S
C28 O31 1.160 . S
O29 C28 1.306 1_655 S
O29 Cd30 2.228 . S
Cd30 O29 2.228 . S
Cd30 O34 2.273 1_655 S
Cd30 O38 2.277 1_655 S
O31 C28 1.160 . S
O31 Cd32 2.203 . S
Cd32 O31 2.203 . S
Cd32 O34 2.411 . S
Cd32 O35 2.333 . S
Cd32 O36 2.352 . S
Cd32 O40 2.277 . S
Cd32 O41 2.356 . S
C33 O38 1.209 . S
C33 O40 1.226 . S
O34 Cd30 2.273 1_455 S
O34 Cd32 2.411 . S
O34 C37 1.320 . S
O35 Cd32 2.333 . S
O35 C37 1.214 . S
O36 Cd32 2.352 . S
O36 C39 1.258 . S
C37 O34 1.320 . S
C37 O35 1.214 . S
O38 Cd30 2.277 1_455 S
O38 C33 1.209 . S
C39 O36 1.258 . S
C39 O41 1.282 . S
O40 Cd32 2.277 . S
O40 C33 1.226 . S
O41 Cd32 2.356 . S
O41 C39 1.282 . S
C42 O43 1.306 1_655 S
C42 O45 1.160 . S
O43 C42 1.306 1_455 S
O43 Cd44 2.228 . S
Cd44 O43 2.228 . S
Cd44 O48 2.273 1_455 S
Cd44 O52 2.277 1_455 S
O45 C42 1.160 . S
O45 Cd46 2.203 . S
Cd46 O45 2.203 . S
Cd46 O48 2.411 . S
Cd46 O49 2.333 . S
Cd46 O50 2.352 . S
Cd46 O54 2.277 . S
Cd46 O55 2.356 . S
C47 O52 1.209 . S
C47 O54 1.226 . S
O48 Cd44 2.273 1_655 S
O48 Cd46 2.411 . S
O48 C51 1.320 . S
O49 Cd46 2.333 . S
O49 C51 1.214 . S
O50 Cd46 2.352 . S
O50 C53 1.258 . S
C51 O48 1.320 . S
C51 O49 1.214 . S
O52 Cd44 2.277 1_655 S
O52 C47 1.209 . S
C53 O50 1.258 . S
C53 O55 1.282 . S
O54 Cd46 2.277 . S
O54 C47 1.226 . S
O55 Cd46 2.356 . S
O55 C53 1.282 . S
C56 O57 1.306 . S
C56 O59 1.160 . S
O57 C56 1.306 . S
O57 Cd58 2.228 1_556 S
Cd58 O57 2.228 1_554 S
Cd58 O62 2.273 . S
Cd58 O66 2.277 . S
O59 C56 1.160 . S
O59 Cd60 2.203 1_556 S
Cd60 O59 2.203 1_554 S
Cd60 O62 2.411 . S
Cd60 O63 2.333 . S
Cd60 O64 2.352 . S
Cd60 O68 2.277 . S
Cd60 O69 2.356 . S
C61 O66 1.209 . S
C61 O68 1.226 . S
O62 Cd58 2.273 . S
O62 Cd60 2.411 . S
O62 C65 1.320 . S
O63 Cd60 2.333 . S
O63 C65 1.214 . S
O64 Cd60 2.352 . S
O64 C67 1.258 . S
C65 O62 1.320 . S
C65 O63 1.214 . S
O66 Cd58 2.277 . S
O66 C61 1.209 . S
C67 O64 1.258 . S
C67 O69 1.282 . S
O68 Cd60 2.277 . S
O68 C61 1.226 . S
O69 Cd60 2.356 . S
O69 C67 1.282 . S
C70 O71 1.306 . S
C70 O73 1.160 . S
O71 C70 1.306 . S
O71 Cd72 2.228 1_556 S
Cd72 O71 2.228 1_554 S
Cd72 O76 2.273 . S
Cd72 O80 2.277 . S
O73 C70 1.160 . S
O73 Cd74 2.203 1_556 S
Cd74 O73 2.203 1_554 S
Cd74 O76 2.411 . S
Cd74 O77 2.333 . S
Cd74 O78 2.352 . S
Cd74 O82 2.277 . S
Cd74 O83 2.356 . S
C75 O80 1.209 . S
C75 O82 1.226 . S
O76 Cd72 2.273 . S
O76 Cd74 2.411 . S
O76 C79 1.320 . S
O77 Cd74 2.333 . S
O77 C79 1.214 . S
O78 Cd74 2.352 . S
O78 C81 1.258 . S
C79 O76 1.320 . S
C79 O77 1.214 . S
O80 Cd72 2.277 . S
O80 C75 1.209 . S
C81 O78 1.258 . S
C81 O83 1.282 . S
O82 Cd74 2.277 . S
O82 C75 1.226 . S
O83 Cd74 2.356 . S
O83 C81 1.282 . S
C84 O85 1.306 . S
C84 O87 1.160 . S
O85 C84 1.306 . S
O85 Cd86 2.228 . S
Cd86 O85 2.228 . S
Cd86 O90 2.273 . S
Cd86 O94 2.277 . S
O87 C84 1.160 . S
O87 Cd88 2.203 . S
Cd88 O87 2.203 . S
Cd88 O90 2.411 . S
Cd88 O91 2.333 . S
Cd88 O92 2.352 . S
Cd88 O96 2.277 . S
Cd88 O97 2.356 . S
C89 O94 1.209 . S
C89 O96 1.226 . S
O90 Cd86 2.273 . S
O90 Cd88 2.411 . S
O90 C93 1.320 . S
O91 Cd88 2.333 . S
O91 C93 1.214 . S
O92 Cd88 2.352 . S
O92 C95 1.258 . S
C93 O90 1.320 . S
C93 O91 1.214 . S
O94 Cd86 2.277 . S
O94 C89 1.209 . S
C95 O92 1.258 . S
C95 O97 1.282 . S
O96 Cd88 2.277 . S
O96 C89 1.226 . S
O97 Cd88 2.356 . S
O97 C95 1.282 . S
C98 O99 1.306 . S
C98 O101 1.160 . S
O99 C98 1.306 . S
O99 Cd100 2.228 . S
Cd100 O99 2.228 . S
Cd100 O104 2.273 . S
Cd100 O108 2.277 . S
O101 C98 1.160 . S
O101 Cd102 2.203 . S
Cd102 O101 2.203 . S
Cd102 O104 2.411 . S
Cd102 O105 2.333 . S
Cd102 O106 2.352 . S
Cd102 O110 2.277 . S
Cd102 O111 2.356 . S
C103 O108 1.209 . S
C103 O110 1.226 . S
O104 Cd100 2.273 . S
O104 Cd102 2.411 . S
O104 C107 1.320 . S
O105 Cd102 2.333 . S
O105 C107 1.214 . S
O106 Cd102 2.352 . S
O106 C109 1.258 . S
C107 O104 1.320 . S
C107 O105 1.214 . S
O108 Cd100 2.277 . S
O108 C103 1.209 . S
C109 O106 1.258 . S
C109 O111 1.282 . S
O110 Cd102 2.277 . S
O110 C103 1.226 . S
O111 Cd102 2.356 . S
O111 C109 1.282 . S
H112 C120 0.950 . S
H113 C125 0.950 . S
H114 C122 0.950 . S
H115 C124 0.950 . S
H116 C126 0.950 . S
H117 C128 0.950 . S
H118 C130 0.950 . S
H119 C131 0.950 . S
C120 H112 0.950 . S
C120 C121 1.386 . S
C120 C122 1.391 . S
C121 C120 1.386 . S
C121 C125 1.393 1_554 S
C122 H114 0.950 . S
C122 C120 1.391 . S
C122 C123 1.400 . S
C123 C122 1.400 . S
C123 C124 1.398 1_654 S
C123 C129 1.491 1_665 S
C124 H115 0.950 . S
C124 C123 1.398 1_456 S
C124 C125 1.391 1_455 S
C125 H113 0.950 . S
C125 C121 1.393 1_556 S
C125 C124 1.391 1_655 S
C126 H116 0.950 . S
C126 C127 1.386 1_556 S
C126 C128 1.391 . S
C127 C126 1.386 1_554 S
C127 C131 1.393 . S
C128 H117 0.950 . S
C128 C126 1.391 . S
C128 C129 1.400 1_556 S
C129 C123 1.491 1_445 S
C129 C128 1.400 1_554 S
C129 C130 1.398 1_455 S
C130 H118 0.950 . S
C130 C129 1.398 1_655 S
C130 C131 1.391 1_655 S
C131 H119 0.950 . S
C131 C127 1.393 . S
C131 C130 1.391 1_455 S
H132 C140 0.950 . S
H133 C145 0.950 . S
H134 C142 0.950 . S
H135 C144 0.950 . S
H136 C146 0.950 . S
H137 C148 0.950 . S
H138 C150 0.950 . S
H139 C151 0.950 . S
C140 H132 0.950 . S
C140 C141 1.386 1_655 S
C140 C142 1.391 . S
C141 C140 1.386 1_455 S
C141 C145 1.393 . S
C142 H134 0.950 . S
C142 C140 1.391 . S
C142 C143 1.400 1_655 S
C143 C142 1.400 1_455 S
C143 C144 1.398 . S
C143 C149 1.491 1_465 S
C144 H135 0.950 . S
C144 C143 1.398 . S
C144 C145 1.391 . S
C145 H133 0.950 . S
C145 C141 1.393 . S
C145 C144 1.391 . S
C146 H136 0.950 . S
C146 C147 1.386 1_455 S
C146 C148 1.391 . S
C147 C146 1.386 1_655 S
C147 C151 1.393 . S
C148 H137 0.950 . S
C148 C146 1.391 . S
C148 C149 1.400 1_455 S
C149 C143 1.491 1_645 S
C149 C148 1.400 1_655 S
C149 C150 1.398 . S
C150 H138 0.950 . S
C150 C149 1.398 . S
C150 C151 1.391 . S
C151 H139 0.950 . S
C151 C147 1.393 . S
C151 C150 1.391 . S
H152 C160 0.950 . S
H153 C165 0.950 . S
H154 C162 0.950 . S
H155 C164 0.950 . S
H156 C166 0.950 . S
H157 C168 0.950 . S
H158 C170 0.950 . S
H159 C171 0.950 . S
C160 H152 0.950 . S
C160 C161 1.386 . S
C160 C162 1.391 . S
C161 C160 1.386 . S
C161 C165 1.393 1_554 S
C162 H154 0.950 . S
C162 C160 1.391 . S
C162 C163 1.400 . S
C163 C162 1.400 . S
C163 C164 1.398 1_554 S
C163 C169 1.491 . S
C164 H155 0.950 . S
C164 C163 1.398 1_556 S
C164 C165 1.391 . S
C165 H153 0.950 . S
C165 C161 1.393 1_556 S
C165 C164 1.391 . S
C166 H156 0.950 . S
C166 C167 1.386 1_556 S
C166 C168 1.391 . S
C167 C166 1.386 1_554 S
C167 C171 1.393 . S
C168 H157 0.950 . S
C168 C166 1.391 . S
C168 C169 1.400 1_556 S
C169 C163 1.491 . S
C169 C168 1.400 1_554 S
C169 C170 1.398 . S
C170 H158 0.950 . S
C170 C169 1.398 . S
C170 C171 1.391 . S
C171 H159 0.950 . S
C171 C167 1.393 . S
C171 C170 1.391 . S
H172 C180 0.950 . S
H173 C185 0.950 . S
H174 C182 0.950 . S
H175 C184 0.950 . S
H176 C186 0.950 . S
H177 C188 0.950 . S
H178 C190 0.950 . S
H179 C191 0.950 . S
C180 H172 0.950 . S
C180 C181 1.386 . S
C180 C182 1.391 . S
C181 C180 1.386 . S
C181 C185 1.393 . S
C182 H174 0.950 . S
C182 C180 1.391 . S
C182 C183 1.400 . S
C183 C182 1.400 . S
C183 C184 1.398 . S
C183 C189 1.491 . S
C184 H175 0.950 . S
C184 C183 1.398 . S
C184 C185 1.391 . S
C185 H173 0.950 . S
C185 C181 1.393 . S
C185 C184 1.391 . S
C186 H176 0.950 . S
C186 C187 1.386 . S
C186 C188 1.391 . S
C187 C186 1.386 . S
C187 C191 1.393 . S
C188 H177 0.950 . S
C188 C186 1.391 . S
C188 C189 1.400 . S
C189 C183 1.491 . S
C189 C188 1.400 . S
C189 C190 1.398 . S
C190 H178 0.950 . S
C190 C189 1.398 . S
C190 C191 1.391 . S
C191 H179 0.950 . S
C191 C187 1.393 . S
C191 C190 1.391 . S
H192 C200 0.950 . S
H193 C205 0.950 . S
H194 C202 0.950 . S
H195 C204 0.950 . S
H196 C206 0.950 . S
H197 C208 0.950 . S
H198 C210 0.950 . S
H199 C211 0.950 . S
C200 H192 0.950 . S
C200 C201 1.386 1_655 S
C200 C202 1.391 . S
C201 C200 1.386 1_455 S
C201 C205 1.393 . S
C202 H194 0.950 . S
C202 C200 1.391 . S
C202 C203 1.400 1_655 S
C203 C202 1.400 1_455 S
C203 C204 1.398 . S
C203 C209 1.491 1_455 S
C204 H195 0.950 . S
C204 C203 1.398 . S
C204 C205 1.391 . S
C205 H193 0.950 . S
C205 C201 1.393 . S
C205 C204 1.391 . S
C206 H196 0.950 . S
C206 C207 1.386 1_455 S
C206 C208 1.391 . S
C207 C206 1.386 1_655 S
C207 C211 1.393 . S
C208 H197 0.950 . S
C208 C206 1.391 . S
C208 C209 1.400 1_455 S
C209 C203 1.491 1_655 S
C209 C208 1.400 1_655 S
C209 C210 1.398 . S
C210 H198 0.950 . S
C210 C209 1.398 . S
C210 C211 1.391 . S
C211 H199 0.950 . S
C211 C207 1.393 . S
C211 C210 1.391 . S
H212 C220 0.950 . S
H213 C225 0.950 . S
H214 C222 0.950 . S
H215 C224 0.950 . S
H216 C226 0.950 . S
H217 C228 0.950 . S
H218 C230 0.950 . S
H219 C231 0.950 . S
C220 H212 0.950 . S
C220 C221 1.386 1_655 S
C220 C222 1.391 . S
C221 C220 1.386 1_455 S
C221 C225 1.393 . S
C222 H214 0.950 . S
C222 C220 1.391 . S
C222 C223 1.400 1_655 S
C223 C222 1.400 1_455 S
C223 C224 1.398 . S
C223 C229 1.491 1_455 S
C224 H215 0.950 . S
C224 C223 1.398 . S
C224 C225 1.391 . S
C225 H213 0.950 . S
C225 C221 1.393 . S
C225 C224 1.391 . S
C226 H216 0.950 . S
C226 C227 1.386 1_455 S
C226 C228 1.391 . S
C227 C226 1.386 1_655 S
C227 C231 1.393 . S
C228 H217 0.950 . S
C228 C226 1.391 . S
C228 C229 1.400 1_455 S
C229 C223 1.491 1_655 S
C229 C228 1.400 1_655 S
C229 C230 1.398 . S
C230 H218 0.950 . S
C230 C229 1.398 . S
C230 C231 1.391 . S
C231 H219 0.950 . S
C231 C227 1.393 . S
C231 C230 1.391 . S
H232 C240 0.950 . S
H233 C245 0.950 . S
H234 C242 0.950 . S
H235 C244 0.950 . S
H236 C246 0.950 . S
H237 C248 0.950 . S
H238 C250 0.950 . S
H239 C251 0.950 . S
C240 H232 0.950 . S
C240 C241 1.386 . S
C240 C242 1.391 . S
C241 C240 1.386 . S
C241 C245 1.393 1_455 S
C242 H234 0.950 . S
C242 C240 1.391 . S
C242 C243 1.400 . S
C243 C242 1.400 . S
C243 C244 1.398 1_455 S
C243 C249 1.491 1_455 S
C244 H235 0.950 . S
C244 C243 1.398 1_655 S
C244 C245 1.391 . S
C245 H233 0.950 . S
C245 C241 1.393 1_655 S
C245 C244 1.391 . S
C246 H236 0.950 . S
C246 C247 1.386 . S
C246 C248 1.391 . S
C247 C246 1.386 . S
C247 C251 1.393 1_655 S
C248 H237 0.950 . S
C248 C246 1.391 . S
C248 C249 1.400 . S
C249 C243 1.491 1_655 S
C249 C248 1.400 . S
C249 C250 1.398 1_655 S
C250 H238 0.950 . S
C250 C249 1.398 1_455 S
C250 C251 1.391 . S
C251 H239 0.950 . S
C251 C247 1.393 1_455 S
C251 C250 1.391 . S
H252 C260 0.950 . S
H253 C265 0.950 . S
H254 C262 0.950 . S
H255 C264 0.950 . S
H256 C266 0.950 . S
H257 C268 0.950 . S
H258 C270 0.950 . S
H259 C271 0.950 . S
C260 H252 0.950 . S
C260 C261 1.386 1_655 S
C260 C262 1.391 . S
C261 C260 1.386 1_455 S
C261 C265 1.393 . S
C262 H254 0.950 . S
C262 C260 1.391 . S
C262 C263 1.400 1_655 S
C263 C262 1.400 1_455 S
C263 C264 1.398 . S
C263 C269 1.491 1_455 S
C264 H255 0.950 . S
C264 C263 1.398 . S
C264 C265 1.391 . S
C265 H253 0.950 . S
C265 C261 1.393 . S
C265 C264 1.391 . S
C266 H256 0.950 . S
C266 C267 1.386 1_455 S
C266 C268 1.391 . S
C267 C266 1.386 1_655 S
C267 C271 1.393 . S
C268 H257 0.950 . S
C268 C266 1.391 . S
C268 C269 1.400 1_455 S
C269 C263 1.491 1_655 S
C269 C268 1.400 1_655 S
C269 C270 1.398 . S
C270 H258 0.950 . S
C270 C269 1.398 . S
C270 C271 1.391 . S
C271 H259 0.950 . S
C271 C267 1.393 . S
C271 C270 1.391 . S
H272 C280 0.950 . S
H273 C285 0.950 . S
H274 C282 0.950 . S
H275 C284 0.950 . S
H276 C286 0.950 . S
H277 C288 0.950 . S
H278 C290 0.950 . S
H279 C291 0.950 . S
C280 H272 0.950 . S
C280 C281 1.386 . S
C280 C282 1.391 . S
C281 C280 1.386 . S
C281 C285 1.393 . S
C282 H274 0.950 . S
C282 C280 1.391 . S
C282 C283 1.400 . S
C283 C282 1.400 . S
C283 C284 1.398 . S
C283 C289 1.491 . S
C284 H275 0.950 . S
C284 C283 1.398 . S
C284 C285 1.391 . S
C285 H273 0.950 . S
C285 C281 1.393 . S
C285 C284 1.391 . S
C286 H276 0.950 . S
C286 C287 1.386 . S
C286 C288 1.391 . S
C287 C286 1.386 . S
C287 C291 1.393 . S
C288 H277 0.950 . S
C288 C286 1.391 . S
C288 C289 1.400 . S
C289 C283 1.491 . S
C289 C288 1.400 . S
C289 C290 1.398 . S
C290 H278 0.950 . S
C290 C289 1.398 . S
C290 C291 1.391 . S
C291 H279 0.950 . S
C291 C287 1.393 . S
C291 C290 1.391 . S
H292 C300 0.950 . S
H293 C305 0.950 . S
H294 C302 0.950 . S
H295 C304 0.950 . S
H296 C306 0.950 . S
H297 C308 0.950 . S
H298 C310 0.950 . S
H299 C311 0.950 . S
C300 H292 0.950 . S
C300 C301 1.386 . S
C300 C302 1.391 . S
C301 C300 1.386 . S
C301 C305 1.393 . S
C302 H294 0.950 . S
C302 C300 1.391 . S
C302 C303 1.400 . S
C303 C302 1.400 . S
C303 C304 1.398 . S
C303 C309 1.491 . S
C304 H295 0.950 . S
C304 C303 1.398 . S
C304 C305 1.391 . S
C305 H293 0.950 . S
C305 C301 1.393 . S
C305 C304 1.391 . S
C306 H296 0.950 . S
C306 C307 1.386 . S
C306 C308 1.391 . S
C307 C306 1.386 . S
C307 C311 1.393 . S
C308 H297 0.950 . S
C308 C306 1.391 . S
C308 C309 1.400 . S
C309 C303 1.491 . S
C309 C308 1.400 . S
C309 C310 1.398 . S
C310 H298 0.950 . S
C310 C309 1.398 . S
C310 C311 1.391 . S
C311 H299 0.950 . S
C311 C307 1.393 . S
C311 C310 1.391 . S
H312 C320 0.950 . S
H313 C325 0.950 . S
H314 C322 0.950 . S
H315 C324 0.950 . S
H316 C326 0.950 . S
H317 C328 0.950 . S
H318 C330 0.950 . S
H319 C331 0.950 . S
C320 H312 0.950 . S
C320 C321 1.386 . S
C320 C322 1.391 . S
C321 C320 1.386 . S
C321 C325 1.393 . S
C322 H314 0.950 . S
C322 C320 1.391 . S
C322 C323 1.400 . S
C323 C322 1.400 . S
C323 C324 1.398 . S
C323 C329 1.491 . S
C324 H315 0.950 . S
C324 C323 1.398 . S
C324 C325 1.391 . S
C325 H313 0.950 . S
C325 C321 1.393 . S
C325 C324 1.391 . S
C326 H316 0.950 . S
C326 C327 1.386 . S
C326 C328 1.391 . S
C327 C326 1.386 . S
C327 C331 1.393 . S
C328 H317 0.950 . S
C328 C326 1.391 . S
C328 C329 1.400 . S
C329 C323 1.491 . S
C329 C328 1.400 . S
C329 C330 1.398 . S
C330 H318 0.950 . S
C330 C329 1.398 . S
C330 C331 1.391 . S
C331 H319 0.950 . S
C331 C327 1.393 . S
C331 C330 1.391 . S
H332 C340 0.950 . S
H333 C345 0.950 . S
H334 C342 0.950 . S
H335 C344 0.950 . S
H336 C346 0.950 . S
H337 C348 0.950 . S
H338 C350 0.950 . S
H339 C351 0.950 . S
C340 H332 0.950 . S
C340 C341 1.386 . S
C340 C342 1.391 . S
C341 C340 1.386 . S
C341 C345 1.393 . S
C342 H334 0.950 . S
C342 C340 1.391 . S
C342 C343 1.400 . S
C343 C342 1.400 . S
C343 C344 1.398 . S
C343 C349 1.491 . S
C344 H335 0.950 . S
C344 C343 1.398 . S
C344 C345 1.391 . S
C345 H333 0.950 . S
C345 C341 1.393 . S
C345 C344 1.391 . S
C346 H336 0.950 . S
C346 C347 1.386 . S
C346 C348 1.391 . S
C347 C346 1.386 . S
C347 C351 1.393 . S
C348 H337 0.950 . S
C348 C346 1.391 . S
C348 C349 1.400 . S
C349 C343 1.491 . S
C349 C348 1.400 . S
C349 C350 1.398 . S
C350 H338 0.950 . S
C350 C349 1.398 . S
C350 C351 1.391 . S
C351 H339 0.950 . S
C351 C347 1.393 . S
C351 C350 1.391 . S
H352 C360 0.950 . S
H353 C365 0.950 . S
H354 C362 0.950 . S
H355 C364 0.950 . S
H356 C366 0.950 . S
H357 C368 0.950 . S
H358 C370 0.950 . S
H359 C371 0.950 . S
C360 H352 0.950 . S
C360 C361 1.386 1_556 S
C360 C362 1.391 . S
C361 C360 1.386 1_554 S
C361 C365 1.393 . S
C362 H354 0.950 . S
C362 C360 1.391 . S
C362 C363 1.400 1_556 S
C363 C362 1.400 1_554 S
C363 C364 1.398 . S
C363 C369 1.491 . S
C364 H355 0.950 . S
C364 C363 1.398 . S
C364 C365 1.391 . S
C365 H353 0.950 . S
C365 C361 1.393 . S
C365 C364 1.391 . S
C366 H356 0.950 . S
C366 C367 1.386 . S
C366 C368 1.391 . S
C367 C366 1.386 . S
C367 C371 1.393 1_554 S
C368 H357 0.950 . S
C368 C366 1.391 . S
C368 C369 1.400 . S
C369 C363 1.491 . S
C369 C368 1.400 . S
C369 C370 1.398 1_554 S
C370 H358 0.950 . S
C370 C369 1.398 1_556 S
C370 C371 1.391 . S
C371 H359 0.950 . S
C371 C367 1.393 1_556 S
C371 C370 1.391 . S
H372 C380 0.950 . S
H373 C385 0.950 . S
H374 C382 0.950 . S
H375 C384 0.950 . S
H376 C386 0.950 . S
H377 C388 0.950 . S
H378 C390 0.950 . S
H379 C391 0.950 . S
C380 H372 0.950 . S
C380 C381 1.386 1_556 S
C380 C382 1.391 . S
C381 C380 1.386 1_554 S
C381 C385 1.393 . S
C382 H374 0.950 . S
C382 C380 1.391 . S
C382 C383 1.400 1_556 S
C383 C382 1.400 1_554 S
C383 C384 1.398 . S
C383 C389 1.491 . S
C384 H375 0.950 . S
C384 C383 1.398 . S
C384 C385 1.391 . S
C385 H373 0.950 . S
C385 C381 1.393 . S
C385 C384 1.391 . S
C386 H376 0.950 . S
C386 C387 1.386 . S
C386 C388 1.391 . S
C387 C386 1.386 . S
C387 C391 1.393 1_554 S
C388 H377 0.950 . S
C388 C386 1.391 . S
C388 C389 1.400 . S
C389 C383 1.491 . S
C389 C388 1.400 . S
C389 C390 1.398 1_554 S
C390 H378 0.950 . S
C390 C389 1.398 1_556 S
C390 C391 1.391 . S
C391 H379 0.950 . S
C391 C387 1.393 1_556 S
C391 C390 1.391 . S
H392 C400 0.950 . S
H393 C405 0.950 . S
H394 C402 0.950 . S
H395 C404 0.950 . S
H396 C406 0.950 . S
H397 C408 0.950 . S
H398 C410 0.950 . S
H399 C411 0.950 . S
C400 H392 0.950 . S
C400 C401 1.386 . S
C400 C402 1.391 . S
C401 C400 1.386 . S
C401 C405 1.393 . S
C402 H394 0.950 . S
C402 C400 1.391 . S
C402 C403 1.400 . S
C403 C402 1.400 . S
C403 C404 1.398 . S
C403 C409 1.491 . S
C404 H395 0.950 . S
C404 C403 1.398 . S
C404 C405 1.391 . S
C405 H393 0.950 . S
C405 C401 1.393 . S
C405 C404 1.391 . S
C406 H396 0.950 . S
C406 C407 1.386 . S
C406 C408 1.391 . S
C407 C406 1.386 . S
C407 C411 1.393 . S
C408 H397 0.950 . S
C408 C406 1.391 . S
C408 C409 1.400 . S
C409 C403 1.491 . S
C409 C408 1.400 . S
C409 C410 1.398 . S
C410 H398 0.950 . S
C410 C409 1.398 . S
C410 C411 1.391 . S
C411 H399 0.950 . S
C411 C407 1.393 . S
C411 C410 1.391 . S
H412 C420 0.950 . S
H413 C425 0.950 . S
H414 C422 0.950 . S
H415 C424 0.950 . S
H416 C426 0.950 . S
H417 C428 0.950 . S
H418 C430 0.950 . S
H419 C431 0.950 . S
C420 H412 0.950 . S
C420 C421 1.386 . S
C420 C422 1.391 . S
C421 C420 1.386 . S
C421 C425 1.393 . S
C422 H414 0.950 . S
C422 C420 1.391 . S
C422 C423 1.400 . S
C423 C422 1.400 . S
C423 C424 1.398 . S
C423 C429 1.491 . S
C424 H415 0.950 . S
C424 C423 1.398 . S
C424 C425 1.391 . S
C425 H413 0.950 . S
C425 C421 1.393 . S
C425 C424 1.391 . S
C426 H416 0.950 . S
C426 C427 1.386 . S
C426 C428 1.391 . S
C427 C426 1.386 . S
C427 C431 1.393 . S
C428 H417 0.950 . S
C428 C426 1.391 . S
C428 C429 1.400 . S
C429 C423 1.491 . S
C429 C428 1.400 . S
C429 C430 1.398 . S
C430 H418 0.950 . S
C430 C429 1.398 . S
C430 C431 1.391 . S
C431 H419 0.950 . S
C431 C427 1.393 . S
C431 C430 1.391 . S
C121 C19 1.500 . S
C127 C5 1.500 . S
C141 C33 1.505 . S
C147 C47 1.505 . S
C161 C61 1.501 . S
C167 C75 1.501 . S
C181 C89 1.505 . S
C187 C103 1.505 . S
C201 C9 1.236 . S
C207 C51 1.247 . S
C221 C37 1.234 . S
C227 C23 1.242 . S
C241 C28 1.285 . S
C247 C14 1.291 . S
C261 C0 1.294 . S
C267 C42 1.277 . S
C281 C65 1.246 . S
C287 C107 1.258 . S
C301 C93 1.261 . S
C307 C79 1.255 . S
C321 C70 1.285 . S
C327 C84 1.291 . S
C341 C56 1.277 . S
C347 C98 1.287 . S
C361 C81 1.511 . S
C367 C11 1.510 . S
C381 C67 1.511 . S
C387 C25 1.510 . S
C401 C39 1.507 . S
C407 C109 1.509 . S
C421 C95 1.511 . S
C427 C53 1.510 . S
