# Generated by pormake.
# Topology ukb, (4)-cn, num edge types: 1
# Building blocks:
#     Node 0, Type 0, BuildingBlock: QUQFOY_clean_sbu_3, # of connection points: 4
#     Node 1, Type 0, BuildingBlock: QUQFOY_clean_sbu_3, # of connection points: 4
#     Node 2, Type 0, BuildingBlock: QUQFOY_clean_sbu_3, # of connection points: 4
#     Node 3, Type 0, BuildingBlock: QUQFOY_clean_sbu_3, # of connection points: 4
#     Node 4, Type 0, BuildingBlock: QUQFOY_clean_sbu_3, # of connection points: 4
#     Node 5, Type 0, BuildingBlock: QUQFOY_clean_sbu_3, # of connection points: 4
#     Node 6, Type 0, BuildingBlock: QUQFOY_clean_sbu_3, # of connection points: 4
#     Node 7, Type 0, BuildingBlock: QUQFOY_clean_sbu_3, # of connection points: 4
#     Node 8, Type 0, BuildingBlock: QUQFOY_clean_sbu_3, # of connection points: 4
#     Node 9, Type 0, BuildingBlock: QUQFOY_clean_sbu_3, # of connection points: 4
#     Node 10, Type 0, BuildingBlock: QUQFOY_clean_sbu_3, # of connection points: 4
#     Node 11, Type 0, BuildingBlock: QUQFOY_clean_sbu_3, # of connection points: 4
#     Node 12, Type 0, BuildingBlock: QUQFOY_clean_sbu_3, # of connection points: 4
#     Node 13, Type 0, BuildingBlock: QUQFOY_clean_sbu_3, # of connection points: 4
#     Node 14, Type 0, BuildingBlock: QUQFOY_clean_sbu_3, # of connection points: 4
#     Node 15, Type 0, BuildingBlock: QUQFOY_clean_sbu_3, # of connection points: 4
#     Edge 16, Type (0, 0), BuildingBlock: XUDNAN_clean_linker_2, # of connection points: 2
#     Edge 17, Type (0, 0), BuildingBlock: XUDNAN_clean_linker_2, # of connection points: 2
#     Edge 18, Type (0, 0), BuildingBlock: XUDNAN_clean_linker_2, # of connection points: 2
#     Edge 19, Type (0, 0), BuildingBlock: XUDNAN_clean_linker_2, # of connection points: 2
#     Edge 20, Type (0, 0), BuildingBlock: XUDNAN_clean_linker_2, # of connection points: 2
#     Edge 21, Type (0, 0), BuildingBlock: XUDNAN_clean_linker_2, # of connection points: 2
#     Edge 22, Type (0, 0), BuildingBlock: XUDNAN_clean_linker_2, # of connection points: 2
#     Edge 23, Type (0, 0), BuildingBlock: XUDNAN_clean_linker_2, # of connection points: 2
#     Edge 24, Type (0, 0), BuildingBlock: XUDNAN_clean_linker_2, # of connection points: 2
#     Edge 25, Type (0, 0), BuildingBlock: XUDNAN_clean_linker_2, # of connection points: 2
#     Edge 26, Type (0, 0), BuildingBlock: XUDNAN_clean_linker_2, # of connection points: 2
#     Edge 27, Type (0, 0), BuildingBlock: XUDNAN_clean_linker_2, # of connection points: 2
#     Edge 28, Type (0, 0), BuildingBlock: XUDNAN_clean_linker_2, # of connection points: 2
#     Edge 29, Type (0, 0), BuildingBlock: XUDNAN_clean_linker_2, # of connection points: 2
#     Edge 30, Type (0, 0), BuildingBlock: XUDNAN_clean_linker_2, # of connection points: 2
#     Edge 31, Type (0, 0), BuildingBlock: XUDNAN_clean_linker_2, # of connection points: 2
#     Edge 32, Type (0, 0), BuildingBlock: XUDNAN_clean_linker_2, # of connection points: 2
#     Edge 33, Type (0, 0), BuildingBlock: XUDNAN_clean_linker_2, # of connection points: 2
#     Edge 34, Type (0, 0), BuildingBlock: XUDNAN_clean_linker_2, # of connection points: 2
#     Edge 35, Type (0, 0), BuildingBlock: XUDNAN_clean_linker_2, # of connection points: 2
#     Edge 36, Type (0, 0), BuildingBlock: XUDNAN_clean_linker_2, # of connection points: 2
#     Edge 37, Type (0, 0), BuildingBlock: XUDNAN_clean_linker_2, # of connection points: 2
#     Edge 38, Type (0, 0), BuildingBlock: XUDNAN_clean_linker_2, # of connection points: 2
#     Edge 39, Type (0, 0), BuildingBlock: XUDNAN_clean_linker_2, # of connection points: 2
#     Edge 40, Type (0, 0), BuildingBlock: XUDNAN_clean_linker_2, # of connection points: 2
#     Edge 41, Type (0, 0), BuildingBlock: XUDNAN_clean_linker_2, # of connection points: 2
#     Edge 42, Type (0, 0), BuildingBlock: XUDNAN_clean_linker_2, # of connection points: 2
#     Edge 43, Type (0, 0), BuildingBlock: XUDNAN_clean_linker_2, # of connection points: 2
#     Edge 44, Type (0, 0), BuildingBlock: XUDNAN_clean_linker_2, # of connection points: 2
#     Edge 45, Type (0, 0), BuildingBlock: XUDNAN_clean_linker_2, # of connection points: 2
#     Edge 46, Type (0, 0), BuildingBlock: XUDNAN_clean_linker_2, # of connection points: 2
#     Edge 47, Type (0, 0), BuildingBlock: XUDNAN_clean_linker_2, # of connection points: 2
# Relax obj value: 0.084
# Max RMSD: 0.048
# Mean RMSD: 0.048
data_MOF--net-ukb--node1-QUQFOY_clean_sbu_3--edge1-XUDNAN_clean_linker_2
_symmetry_space_group_name_H-M    P1
_symmetry_Int_Tables_number       1
_symmetry_cell_setting            triclinic
loop_
_symmetry_equiv_pos_as_xyz
'x, y, z'
_cell_length_a     45.030495
_cell_length_b     44.995352
_cell_length_c     38.808011
_cell_angle_alpha  90.050944
_cell_angle_beta   89.974984
_cell_angle_gamma 90.072195
loop_
_atom_site_label
_atom_site_type_symbol
_atom_site_fract_x
_atom_site_fract_y
_atom_site_fract_z
_atom_type_partial_charge
C0 C 0.52876 0.19301 0.10867 0.0
O1 O 0.55317 0.1792 0.11173 0.0
Cd2 Cd 0.57694 0.17035 0.1647 0.0
O3 O 0.51351 0.20003 0.13518 0.0
Cd4 Cd 0.51573 0.19204 0.19902 0.0
C5 C 0.57002 0.24269 0.19599 0.0
O6 O 0.5409 0.14483 0.19792 0.0
O7 O 0.54372 0.16777 0.24625 0.0
O8 O 0.46493 0.17535 0.19425 0.0
C9 C 0.54922 0.14448 0.22898 0.0
O10 O 0.58537 0.22181 0.18278 0.0
C11 C 0.45562 0.18819 0.22129 0.0
O12 O 0.54307 0.23859 0.20477 0.0
O13 O 0.47418 0.20418 0.23763 0.0
C14 C 0.28436 0.52994 0.62045 0.0
O15 O 0.28966 0.55703 0.62726 0.0
Cd16 Cd 0.299 0.57669 0.68265 0.0
O17 O 0.28389 0.51049 0.64431 0.0
Cd18 Cd 0.29144 0.51115 0.70772 0.0
C19 C 0.23216 0.55578 0.71655 0.0
O20 O 0.3345 0.54256 0.70486 0.0
O21 O 0.3149 0.54078 0.75514 0.0
O22 O 0.31334 0.46241 0.6999 0.0
C23 C 0.33659 0.54876 0.73643 0.0
O24 O 0.24984 0.57716 0.71002 0.0
C25 C 0.30229 0.4511 0.72697 0.0
O26 O 0.24082 0.52894 0.71488 0.0
O27 O 0.28542 0.46762 0.7449 0.0
C28 C 0.97418 0.29958 0.10765 0.0
O29 O 0.94914 0.31249 0.10823 0.0
Cd30 Cd 0.92052 0.31664 0.15888 0.0
O31 O 0.98671 0.29154 0.13558 0.0
Cd32 Cd 0.97913 0.29714 0.19898 0.0
C33 C 0.92823 0.24383 0.1884 0.0
O34 O 0.95186 0.34327 0.1972 0.0
O35 O 0.94775 0.31931 0.2448 0.0
O36 O 0.02889 0.31632 0.19631 0.0
C37 C 0.94205 0.34262 0.22769 0.0
O38 O 0.91313 0.26418 0.17381 0.0
C39 C 0.03838 0.30366 0.22331 0.0
O40 O 0.95393 0.24915 0.20064 0.0
O41 O 0.02025 0.28687 0.23925 0.0
C42 C 0.1886 0.9452 0.60186 0.0
O43 O 0.18371 0.9179 0.60807 0.0
Cd44 Cd 0.17814 0.89614 0.66328 0.0
O45 O 0.18981 0.96464 0.62579 0.0
Cd46 Cd 0.18212 0.96885 0.68922 0.0
C47 C 0.24232 0.92394 0.70179 0.0
O48 O 0.1448 0.9324 0.68349 0.0
O49 O 0.14605 0.95055 0.73446 0.0
O50 O 0.16523 0.01722 0.66984 0.0
C51 C 0.13453 0.93216 0.71364 0.0
O52 O 0.22753 0.90262 0.68857 0.0
C53 C 0.17182 0.03076 0.6975 0.0
O54 O 0.23103 0.94975 0.70515 0.0
O55 O 0.18394 0.01558 0.72124 0.0
C56 C 0.52807 0.27611 0.87667 0.0
O57 O 0.55488 0.28252 0.86974 0.0
Cd58 Cd 0.57327 0.29315 0.81371 0.0
O59 O 0.5081 0.27669 0.85345 0.0
Cd60 Cd 0.50315 0.2885 0.79127 0.0
C61 C 0.54601 0.22848 0.77621 0.0
O62 O 0.53977 0.32816 0.78963 0.0
O63 O 0.52439 0.31286 0.74032 0.0
O64 O 0.45775 0.31165 0.81107 0.0
C65 C 0.54091 0.33046 0.75715 0.0
O66 O 0.56742 0.24431 0.78738 0.0
C67 C 0.44215 0.3038 0.78542 0.0
O68 O 0.51957 0.23853 0.77517 0.0
O69 O 0.45477 0.28823 0.76235 0.0
C70 C 0.21244 0.52763 0.38413 0.0
O71 O 0.20351 0.55403 0.37918 0.0
Cd72 Cd 0.18634 0.57261 0.32609 0.0
O73 O 0.21112 0.5082 0.36026 0.0
Cd74 Cd 0.19368 0.50475 0.29957 0.0
C75 C 0.24923 0.55208 0.28024 0.0
O76 O 0.15123 0.53628 0.30813 0.0
O77 O 0.1625 0.52928 0.25507 0.0
O78 O 0.17564 0.45686 0.319 0.0
C79 C 0.1447 0.54038 0.27688 0.0
O80 O 0.23294 0.57197 0.29397 0.0
C81 C 0.18137 0.44304 0.2913 0.0
O82 O 0.24086 0.52504 0.27904 0.0
O83 O 0.19357 0.45782 0.26723 0.0
C84 C 0.97387 0.21246 0.88449 0.0
O85 O 0.94653 0.20561 0.88483 0.0
Cd86 Cd 0.91826 0.18786 0.83759 0.0
O87 O 0.98954 0.20955 0.85739 0.0
Cd88 Cd 0.98052 0.19237 0.79748 0.0
C89 C 0.93257 0.24951 0.78788 0.0
O90 O 0.94759 0.15089 0.80996 0.0
O91 O 0.94791 0.16568 0.75725 0.0
O92 O 0.02859 0.16849 0.79997 0.0
C93 C 0.93886 0.14698 0.77928 0.0
O94 O 0.91395 0.23365 0.80443 0.0
C95 C 0.03785 0.17848 0.77132 0.0
O96 O 0.95903 0.2405 0.78283 0.0
O97 O 0.02053 0.19569 0.75493 0.0
C98 C 0.27268 0.96101 0.3772 0.0
O99 O 0.28149 0.93472 0.37141 0.0
Cd100 Cd 0.30421 0.91925 0.3192 0.0
O101 O 0.27676 0.98174 0.35546 0.0
Cd102 Cd 0.30043 0.9871 0.29836 0.0
C103 C 0.24475 0.94292 0.27174 0.0
O104 O 0.34224 0.95441 0.30683 0.0
O105 O 0.33053 0.96144 0.25387 0.0
O106 O 0.31964 0.03438 0.31878 0.0
C107 C 0.34859 0.95043 0.27546 0.0
O108 O 0.26112 0.92118 0.28072 0.0
C109 C 0.3141 0.04848 0.2912 0.0
O110 O 0.25275 0.96966 0.27714 0.0
O111 O 0.3016 0.03408 0.26699 0.0
C112 C 0.45969 0.78772 0.87484 0.0
O113 O 0.43289 0.79542 0.87018 0.0
Cd114 Cd 0.41046 0.80751 0.8173 0.0
O115 O 0.47822 0.78742 0.85 0.0
Cd116 Cd 0.4758 0.79917 0.78717 0.0
C117 C 0.42899 0.74077 0.77966 0.0
O118 O 0.44389 0.84197 0.79164 0.0
O119 O 0.44597 0.82314 0.74094 0.0
O120 O 0.52434 0.82208 0.7931 0.0
C121 C 0.43695 0.84402 0.76023 0.0
O122 O 0.40894 0.75802 0.79133 0.0
C123 C 0.53535 0.81056 0.7661 0.0
O124 O 0.45569 0.7497 0.77641 0.0
O125 O 0.51882 0.79291 0.74918 0.0
C126 C 0.69953 0.46007 0.37932 0.0
O127 O 0.69457 0.43266 0.37403 0.0
Cd128 Cd 0.68676 0.40961 0.31955 0.0
O129 O 0.69955 0.4787 0.35467 0.0
Cd130 Cd 0.69168 0.47766 0.29154 0.0
C131 C 0.7531 0.43451 0.2855 0.0
O132 O 0.6532 0.43973 0.28784 0.0
O133 O 0.67419 0.45168 0.24003 0.0
O134 O 0.66304 0.52271 0.29864 0.0
C135 C 0.65487 0.43613 0.25552 0.0
O136 O 0.73677 0.41324 0.29608 0.0
C137 C 0.67625 0.53721 0.27512 0.0
O138 O 0.74284 0.4608 0.28262 0.0
O139 O 0.69733 0.52413 0.25948 0.0
C140 C 0.02618 0.70991 0.87885 0.0
O141 O 0.05306 0.7077 0.8691 0.0
Cd142 Cd 0.07157 0.69168 0.81486 0.0
O143 O 0.0048 0.70337 0.85867 0.0
Cd144 Cd -0.00127 0.68674 0.7981 0.0
C145 C 0.03715 0.74787 0.77087 0.0
O146 O 0.03881 0.65227 0.80325 0.0
O147 O 0.01945 0.65252 0.75282 0.0
O148 O 0.95377 0.66401 0.82092 0.0
C149 C 0.03885 0.64199 0.77303 0.0
O150 O 0.06101 0.73449 0.77904 0.0
C151 C 0.93805 0.66938 0.79448 0.0
O152 O 0.0117 0.73668 0.77712 0.0
O153 O 0.95045 0.68338 0.76993 0.0
C154 C 0.79772 0.03832 0.37175 0.0
O155 O 0.80394 0.06513 0.3645 0.0
Cd156 Cd 0.80836 0.08343 0.30736 0.0
O157 O 0.79573 0.01874 0.34811 0.0
Cd158 Cd 0.80213 0.01349 0.2848 0.0
C159 C 0.74072 0.05565 0.27801 0.0
O160 O 0.84145 0.04993 0.27977 0.0
O161 O 0.82246 0.03581 0.23174 0.0
O162 O 0.82556 0.96764 0.30266 0.0
C163 C 0.84141 0.05181 0.24725 0.0
O164 O 0.75725 0.07726 0.28723 0.0
C165 C 0.81653 0.9523 0.2773 0.0
O166 O 0.75102 0.02937 0.27551 0.0
O167 O 0.80037 0.9653 0.25514 0.0
C168 C 0.45588 0.71319 0.10987 0.0
O169 O 0.42875 0.7068 0.11481 0.0
Cd170 Cd 0.40787 0.6952 0.16859 0.0
O171 O 0.47447 0.71229 0.13464 0.0
Cd172 Cd 0.47363 0.69782 0.19692 0.0
C173 C 0.43149 0.7579 0.21253 0.0
O174 O 0.44018 0.65659 0.18751 0.0
O175 O 0.44498 0.66911 0.24058 0.0
O176 O 0.52211 0.67849 0.18136 0.0
C177 C 0.43485 0.65078 0.21871 0.0
O178 O 0.41057 0.74312 0.19854 0.0
C179 C 0.53381 0.68248 0.2107 0.0
O180 O 0.45746 0.74702 0.21502 0.0
O181 O 0.51766 0.69417 0.23385 0.0
C182 C 0.78208 0.46258 0.60929 0.0
O183 O 0.79513 0.43763 0.61074 0.0
Cd184 Cd 0.80226 0.41074 0.66178 0.0
O185 O 0.77538 0.47663 0.63681 0.0
Cd186 Cd 0.78471 0.47067 0.70031 0.0
C187 C 0.73093 0.41988 0.69517 0.0
O188 O 0.83077 0.44365 0.69597 0.0
O189 O 0.80878 0.43901 0.74469 0.0
O190 O 0.80391 0.52077 0.69785 0.0
C191 C 0.83155 0.43386 0.72642 0.0
O192 O 0.75059 0.40429 0.67999 0.0
C193 C 0.79291 0.52935 0.72626 0.0
O194 O 0.73677 0.44591 0.70616 0.0
O195 O 0.77662 0.51087 0.7423 0.0
C196 C 0.03757 0.77964 0.11653 0.0
O197 O 0.06514 0.78398 0.12158 0.0
Cd198 Cd 0.09032 0.7952 0.17352 0.0
O199 O 0.01879 0.78177 0.14109 0.0
Cd200 Cd 0.01926 0.79441 0.20371 0.0
C201 C 0.06396 0.73408 0.21819 0.0
O202 O 0.05662 0.83085 0.19422 0.0
O203 O 0.04158 0.82985 0.24663 0.0
O204 O 0.97092 0.81639 0.19253 0.0
C205 C 0.05874 0.84111 0.22431 0.0
O206 O 0.08505 0.74794 0.20332 0.0
C207 C 0.95898 0.80684 0.22006 0.0
O208 O 0.03836 0.74578 0.22162 0.0
O209 O 0.97492 0.79063 0.23944 0.0
C210 C 0.71725 0.03499 0.60506 0.0
O211 O 0.70822 0.0613 0.61042 0.0
Cd212 Cd 0.68898 0.07858 0.66333 0.0
O213 O 0.71481 0.01507 0.62826 0.0
Cd214 Cd 0.69459 0.01122 0.68806 0.0
C215 C 0.74944 0.05726 0.71252 0.0
O216 O 0.65196 0.04291 0.67835 0.0
O217 O 0.66264 0.03539 0.73158 0.0
O218 O 0.6766 0.96287 0.66927 0.0
C219 C 0.64475 0.04601 0.70961 0.0
O220 O 0.734 0.07761 0.69846 0.0
C221 C 0.68135 0.94985 0.69772 0.0
O222 O 0.74085 0.0303 0.71211 0.0
O223 O 0.69325 0.96515 0.72153 0.0
H224 H 0.41043 0.15993 0.18832 0.0
H225 H 0.435 0.19862 0.28658 0.0
H226 H 0.39172 0.17453 0.31377 0.0
H227 H 0.32548 0.15859 0.20474 0.0
H228 H 0.32274 0.12356 0.18237 0.0
H229 H 0.3497 0.15085 0.16884 0.0
H230 H 0.39137 0.11162 0.17522 0.0
H231 H 0.36484 0.08447 0.18913 0.0
H232 H 0.39631 0.09314 0.21605 0.0
H233 H 0.35604 0.13593 0.33273 0.0
H234 H 0.32874 0.08887 0.34102 0.0
H235 H 0.32553 0.07615 0.2304 0.0
C236 C 0.40589 0.16443 0.21522 0.0
C237 C 0.426 0.18109 0.23537 0.0
C238 C 0.41971 0.18615 0.2706 0.0
C239 C 0.39512 0.17255 0.28625 0.0
C240 C 0.37675 0.15457 0.26612 0.0
C241 C 0.38142 0.1511 0.2311 0.0
C242 C 0.36144 0.12725 0.21618 0.0
C243 C 0.33847 0.14089 0.19158 0.0
C244 C 0.37958 0.10269 0.19814 0.0
C245 C 0.34676 0.116 0.24871 0.0
C246 C 0.35529 0.13251 0.27716 0.0
C247 C 0.34831 0.12352 0.31058 0.0
C248 C 0.33296 0.09667 0.31507 0.0
C249 C 0.32478 0.07917 0.28629 0.0
C250 C 0.33079 0.08958 0.25276 0.0
H251 H 0.33351 0.4096 0.69084 0.0
H252 H 0.29289 0.42621 0.79034 0.0
H253 H 0.31735 0.38155 0.81369 0.0
H254 H 0.33427 0.32435 0.69806 0.0
H255 H 0.36965 0.32289 0.67637 0.0
H256 H 0.34312 0.35132 0.66528 0.0
H257 H 0.38278 0.39174 0.67749 0.0
H258 H 0.40922 0.36365 0.68882 0.0
H259 H 0.40062 0.39282 0.71907 0.0
H260 H 0.35548 0.34451 0.82966 0.0
H261 H 0.40176 0.31559 0.83583 0.0
H262 H 0.41586 0.32029 0.72558 0.0
C263 C 0.32885 0.40315 0.71717 0.0
C264 C 0.31137 0.42131 0.73881 0.0
C265 C 0.30606 0.41248 0.77325 0.0
C266 C 0.31981 0.38708 0.78671 0.0
C267 C 0.33819 0.37045 0.76516 0.0
C268 C 0.3422 0.37775 0.73086 0.0
C269 C 0.36595 0.35867 0.71433 0.0
C270 C 0.35243 0.33808 0.68689 0.0
C271 C 0.39111 0.37787 0.69908 0.0
C272 C 0.37634 0.34117 0.74532 0.0
C273 C 0.35966 0.34787 0.77428 0.0
C274 C 0.36798 0.33817 0.807 0.0
C275 C 0.39433 0.32189 0.81031 0.0
C276 C 0.41185 0.31532 0.78105 0.0
C277 C 0.40218 0.32415 0.7481 0.0
H278 H 0.08285 0.33247 0.18992 0.0
H279 H 0.05962 0.29365 0.2885 0.0
H280 H 0.1035 0.31753 0.31483 0.0
H281 H 0.16775 0.33333 0.20391 0.0
H282 H 0.17032 0.36846 0.18181 0.0
H283 H 0.14282 0.3415 0.16885 0.0
H284 H 0.10161 0.38102 0.17695 0.0
H285 H 0.12872 0.40786 0.1902 0.0
H286 H 0.09782 0.39936 0.21807 0.0
H287 H 0.14029 0.35543 0.33301 0.0
H288 H 0.16815 0.40218 0.34094 0.0
H289 H 0.16892 0.41573 0.23043 0.0
C290 C 0.08774 0.32797 0.21673 0.0
C291 C 0.06793 0.31126 0.23721 0.0
C292 C 0.0747 0.30617 0.27228 0.0
C293 C 0.09962 0.31962 0.28742 0.0
C294 C 0.11779 0.33751 0.26693 0.0
C295 C 0.11249 0.34118 0.23209 0.0
C296 C 0.13236 0.36492 0.21677 0.0
C297 C 0.15464 0.35123 0.19133 0.0
C298 C 0.11402 0.38974 0.19954 0.0
C299 C 0.14785 0.37586 0.24894 0.0
C300 C 0.13975 0.35927 0.27749 0.0
C301 C 0.14762 0.36792 0.31075 0.0
C302 C 0.16331 0.39459 0.31504 0.0
C303 C 0.17092 0.41228 0.28622 0.0
C304 C 0.16412 0.40215 0.25277 0.0
H305 H 0.16119 0.05777 0.7589 0.0
H306 H 0.1593 0.07252 0.64862 0.0
H307 H 0.13362 0.12029 0.65784 0.0
H308 H 0.0914 0.07662 0.77272 0.0
H309 H 0.0961 0.09445 0.81399 0.0
H310 H 0.12217 0.06683 0.80018 0.0
H311 H 0.16547 0.1042 0.80807 0.0
H312 H 0.13941 0.13205 0.82227 0.0
H313 H 0.16409 0.13977 0.7868 0.0
H314 H 0.09947 0.16 0.67752 0.0
H315 H 0.05808 0.18665 0.70545 0.0
H316 H 0.08025 0.14504 0.80285 0.0
C317 C 0.15662 0.07178 0.73686 0.0
C318 C 0.16249 0.06176 0.70312 0.0
C319 C 0.15518 0.08002 0.67471 0.0
C320 C 0.14076 0.10726 0.67974 0.0
C321 C 0.13384 0.11588 0.71332 0.0
C322 C 0.14172 0.09873 0.74147 0.0
C323 C 0.12711 0.10992 0.77413 0.0
C324 C 0.10807 0.08551 0.7912 0.0
C325 C 0.15042 0.12222 0.7993 0.0
C326 C 0.10814 0.13461 0.75957 0.0
C327 C 0.11312 0.13844 0.72469 0.0
C328 C 0.09588 0.15773 0.70496 0.0
C329 C 0.07236 0.17273 0.72103 0.0
C330 C 0.06601 0.16786 0.75629 0.0
C331 C 0.08481 0.14941 0.77593 0.0
H332 H 0.57645 0.84445 0.79962 0.0
H333 H 0.5599 0.79893 0.70296 0.0
H334 H 0.60402 0.82307 0.67765 0.0
H335 H 0.59219 0.91063 0.76677 0.0
H336 H 0.62127 0.92105 0.79634 0.0
H337 H 0.59348 0.89481 0.80943 0.0
H338 H 0.63433 0.85632 0.82406 0.0
H339 H 0.66243 0.88265 0.81115 0.0
H340 H 0.66132 0.84624 0.7918 0.0
H341 H 0.64122 0.8606 0.65917 0.0
H342 H 0.67011 0.90662 0.65003 0.0
H343 H 0.66458 0.92631 0.75915 0.0
C344 C 0.58278 0.8387 0.77353 0.0
C345 C 0.5648 0.81985 0.75324 0.0
C346 C 0.57349 0.81317 0.71905 0.0
C347 C 0.59858 0.82672 0.70448 0.0
C348 C 0.61506 0.84637 0.72469 0.0
C349 C 0.60784 0.85188 0.75875 0.0
C350 C 0.62667 0.87665 0.77363 0.0
C351 C 0.60724 0.90228 0.7873 0.0
C352 C 0.64743 0.86474 0.80183 0.0
C353 C 0.64401 0.88575 0.74194 0.0
C354 C 0.63746 0.86763 0.71412 0.0
C355 C 0.64735 0.87431 0.68096 0.0
C356 C 0.66364 0.90054 0.67597 0.0
C357 C 0.66991 0.91965 0.704 0.0
C358 C 0.66089 0.91155 0.7375 0.0
H359 H 0.55355 0.66046 0.2716 0.0
H360 H 0.58008 0.67654 0.16595 0.0
H361 H 0.6265 0.64861 0.17581 0.0
H362 H 0.63104 0.65718 0.31134 0.0
H363 H 0.61992 0.627 0.33902 0.0
H364 H 0.59337 0.65509 0.3269 0.0
H365 H 0.5582 0.61412 0.30359 0.0
H366 H 0.58458 0.58606 0.31534 0.0
H367 H 0.57171 0.58851 0.27145 0.0
H368 H 0.66492 0.61211 0.19356 0.0
H369 H 0.69019 0.56757 0.21621 0.0
H370 H 0.63705 0.57277 0.30926 0.0
C371 C 0.56983 0.65923 0.2511 0.0
C372 C 0.56367 0.67101 0.21825 0.0
C373 C 0.58471 0.6679 0.19143 0.0
C374 C 0.61117 0.65224 0.19688 0.0
C375 C 0.6161 0.63971 0.22921 0.0
C376 C 0.596 0.64306 0.25594 0.0
C377 C 0.60372 0.62317 0.28605 0.0
C378 C 0.61255 0.64173 0.3177 0.0
C379 C 0.57804 0.6017 0.29456 0.0
C380 C 0.63022 0.60688 0.27135 0.0
C381 C 0.63766 0.61743 0.23903 0.0
C382 C 0.65971 0.60406 0.21912 0.0
C383 C 0.67393 0.57874 0.23217 0.0
C384 C 0.66553 0.56677 0.26446 0.0
C385 C 0.64407 0.58161 0.28462 0.0
H386 H 0.90791 0.65836 0.73514 0.0
H387 H 0.90096 0.65125 0.8462 0.0
H388 H 0.85421 0.62302 0.83982 0.0
H389 H 0.82492 0.65828 0.71495 0.0
H390 H 0.83106 0.63543 0.67746 0.0
H391 H 0.85887 0.66197 0.69069 0.0
H392 H 0.89812 0.61992 0.6928 0.0
H393 H 0.87059 0.59341 0.67971 0.0
H394 H 0.89112 0.58757 0.719 0.0
H395 H 0.81418 0.58814 0.82161 0.0
H396 H 0.78725 0.5469 0.79354 0.0
H397 H 0.82149 0.57498 0.69432 0.0
C398 C 0.89584 0.65195 0.75811 0.0
C399 C 0.90774 0.65727 0.79115 0.0
C400 C 0.892 0.64759 0.82065 0.0
C401 C 0.86533 0.63172 0.81726 0.0
C402 C 0.85475 0.62573 0.7842 0.0
C403 C 0.86953 0.63564 0.7551 0.0
C404 C 0.85671 0.622 0.7227 0.0
C405 C 0.84201 0.64585 0.70012 0.0
C406 C 0.88054 0.6047 0.70241 0.0
C407 C 0.83373 0.60143 0.73822 0.0
C408 C 0.83216 0.60465 0.77361 0.0
C409 C 0.81472 0.58587 0.79385 0.0
C410 C 0.79946 0.5625 0.77769 0.0
C411 C 0.8023 0.55781 0.74177 0.0
C412 C 0.81867 0.57826 0.72177 0.0
H413 H 0.83335 0.9264 0.21729 0.0
H414 H 0.8256 0.91074 0.32697 0.0
H415 H 0.85252 0.86328 0.32049 0.0
H416 H 0.83471 0.84478 0.18785 0.0
H417 H 0.86267 0.85322 0.15606 0.0
H418 H 0.83502 0.8806 0.16709 0.0
H419 H 0.87673 0.91835 0.18142 0.0
H420 H 0.90436 0.8912 0.17071 0.0
H421 H 0.9047 0.9085 0.21262 0.0
H422 H 0.88795 0.82371 0.30472 0.0
H423 H 0.93197 0.79763 0.28225 0.0
H424 H 0.9198 0.8405 0.18319 0.0
C425 C 0.83609 0.91214 0.23954 0.0
C426 C 0.82697 0.92166 0.27247 0.0
C427 C 0.83212 0.90341 0.30146 0.0
C428 C 0.84722 0.87638 0.29795 0.0
C429 C 0.85722 0.86812 0.26531 0.0
C430 C 0.85186 0.88549 0.23653 0.0
C431 C 0.86979 0.87486 0.20588 0.0
C432 C 0.84932 0.86263 0.17755 0.0
C433 C 0.8901 0.8997 0.19189 0.0
C434 C 0.88753 0.85017 0.2225 0.0
C435 C 0.87912 0.84588 0.25641 0.0
C436 C 0.8943 0.82639 0.27801 0.0
C437 C 0.91935 0.81171 0.26503 0.0
C438 C 0.92929 0.81709 0.23099 0.0
C439 C 0.9125 0.83572 0.20919 0.0
H440 H 0.56255 0.28461 0.24687 0.0
H441 H 0.60743 0.26785 0.14986 0.0
H442 H 0.6299 0.31784 0.15207 0.0
H443 H 0.54909 0.36425 0.23481 0.0
H444 H 0.55729 0.37343 0.27902 0.0
H445 H 0.54216 0.33747 0.2684 0.0
H446 H 0.58659 0.3119 0.29868 0.0
H447 H 0.60172 0.34774 0.30955 0.0
H448 H 0.62392 0.32137 0.28591 0.0
H449 H 0.64819 0.36864 0.16488 0.0
H450 H 0.66626 0.41522 0.19086 0.0
H451 H 0.61254 0.39833 0.28176 0.0
C452 C 0.57684 0.29172 0.22599 0.0
C453 C 0.58317 0.2726 0.19808 0.0
C454 C 0.60242 0.28224 0.17149 0.0
C455 C 0.61508 0.31063 0.17237 0.0
C456 C 0.60856 0.32896 0.20026 0.0
C457 C 0.59027 0.31983 0.22686 0.0
C458 C 0.58915 0.34296 0.25527 0.0
C459 C 0.55754 0.35526 0.25962 0.0
C460 C 0.60106 0.33023 0.28936 0.0
C461 C 0.60993 0.36627 0.24058 0.0
C462 C 0.62035 0.35795 0.20852 0.0
C463 C 0.64018 0.37548 0.18996 0.0
C464 C 0.65027 0.40193 0.20493 0.0
C465 C 0.64088 0.41036 0.23837 0.0
C466 C 0.62004 0.39249 0.25612 0.0
H467 H 0.20968 0.60073 0.75573 0.0
H468 H 0.18398 0.52569 0.69225 0.0
H469 H 0.13103 0.53946 0.69908 0.0
H470 H 0.14813 0.59328 0.81628 0.0
H471 H 0.14468 0.63286 0.82223 0.0
H472 H 0.18026 0.61692 0.81192 0.0
H473 H 0.18452 0.65194 0.75911 0.0
H474 H 0.14883 0.66777 0.76907 0.0
H475 H 0.15549 0.65189 0.72712 0.0
H476 H 0.08104 0.5649 0.70863 0.0
H477 H 0.0379 0.59522 0.72767 0.0
H478 H 0.09682 0.64938 0.78983 0.0
C479 C 0.19283 0.58712 0.74353 0.0
C480 C 0.20069 0.56229 0.72339 0.0
C481 C 0.17821 0.54474 0.70797 0.0
C482 C 0.14817 0.55248 0.71152 0.0
C483 C 0.1411 0.5774 0.73123 0.0
C484 C 0.16279 0.59401 0.74764 0.0
C485 C 0.14941 0.61908 0.76835 0.0
C486 C 0.15601 0.61529 0.80698 0.0
C487 C 0.16021 0.64946 0.75511 0.0
C488 C 0.11686 0.61432 0.76062 0.0
C489 C 0.11242 0.59052 0.7387 0.0
C490 C 0.08421 0.58325 0.72631 0.0
C491 C 0.05991 0.60057 0.73706 0.0
C492 C 0.06409 0.62427 0.76051 0.0
C493 C 0.09291 0.63108 0.77235 0.0
H494 H 0.88329 0.08949 0.27403 0.0
H495 H 0.83332 0.07054 0.18091 0.0
H496 H 0.85324 0.11614 0.15422 0.0
H497 H 0.87187 0.16548 0.27532 0.0
H498 H 0.90845 0.1755 0.29023 0.0
H499 H 0.89317 0.13968 0.3008 0.0
H500 H 0.93886 0.11373 0.27362 0.0
H501 H 0.95451 0.14953 0.26328 0.0
H502 H 0.9492 0.12221 0.22983 0.0
H503 H 0.87239 0.16686 0.14106 0.0
H504 H 0.89413 0.21725 0.13963 0.0
H505 H 0.93431 0.2023 0.23967 0.0
C506 C 0.87708 0.09458 0.24773 0.0
C507 C 0.85672 0.07651 0.22955 0.0
C508 C 0.84897 0.08399 0.19528 0.0
C509 C 0.86013 0.10987 0.17992 0.0
C510 C 0.87941 0.12771 0.19895 0.0
C511 C 0.88831 0.12015 0.23186 0.0
C512 C 0.90824 0.14386 0.24726 0.0
C513 C 0.8946 0.15689 0.28035 0.0
C514 C 0.93957 0.13159 0.25388 0.0
C515 C 0.90834 0.1664 0.2183 0.0
C516 C 0.89152 0.15661 0.19071 0.0
C517 C 0.88615 0.17451 0.16214 0.0
C518 C 0.89839 0.20313 0.16168 0.0
C519 C 0.91606 0.21343 0.1894 0.0
C520 C 0.92134 0.19469 0.21788 0.0
H521 H 0.27816 0.87777 0.68259 0.0
H522 H 0.27704 0.95846 0.74401 0.0
H523 H 0.32904 0.94922 0.76138 0.0
H524 H 0.32006 0.83405 0.73976 0.0
H525 H 0.34053 0.81509 0.70644 0.0
H526 H 0.30392 0.82909 0.69763 0.0
H527 H 0.32476 0.85922 0.64606 0.0
H528 H 0.36154 0.84546 0.65493 0.0
H529 H 0.35492 0.88492 0.65297 0.0
H530 H 0.37935 0.92864 0.77612 0.0
H531 H 0.42445 0.89862 0.78646 0.0
H532 H 0.39363 0.83319 0.71257 0.0
C533 C 0.28884 0.89359 0.69962 0.0
C534 C 0.2735 0.91877 0.71211 0.0
C535 C 0.28838 0.93903 0.73412 0.0
C536 C 0.31791 0.934 0.74404 0.0
C537 C 0.33235 0.90891 0.73126 0.0
C538 C 0.31836 0.88915 0.70935 0.0
C539 C 0.33846 0.86345 0.69999 0.0
C540 C 0.32493 0.83367 0.71167 0.0
C541 C 0.34532 0.86327 0.66118 0.0
C542 C 0.36572 0.87136 0.72084 0.0
C543 C 0.36179 0.89773 0.73863 0.0
C544 C 0.38292 0.90829 0.76182 0.0
C545 C 0.40843 0.89115 0.76751 0.0
C546 C 0.41266 0.86396 0.74983 0.0
C547 C 0.39134 0.85433 0.72565 0.0
H548 H 0.58952 0.19248 0.80057 0.0
H549 H 0.51702 0.19542 0.72714 0.0
H550 H 0.53113 0.1454 0.70587 0.0
H551 H 0.64169 0.15932 0.74801 0.0
H552 H 0.65797 0.13644 0.78108 0.0
H553 H 0.64019 0.1708 0.7925 0.0
H554 H 0.60564 0.14266 0.83486 0.0
H555 H 0.62336 0.1081 0.82354 0.0
H556 H 0.58368 0.11188 0.81943 0.0
H557 H 0.55803 0.09884 0.68725 0.0
H558 H 0.59331 0.05789 0.67544 0.0
H559 H 0.64546 0.08391 0.76433 0.0
C560 C 0.57636 0.18243 0.78031 0.0
C561 C 0.55233 0.19776 0.76525 0.0
C562 C 0.53547 0.1839 0.739 0.0
C563 C 0.54332 0.15556 0.72683 0.0
C564 C 0.56755 0.14125 0.74186 0.0
C565 C 0.58348 0.15405 0.76844 0.0
C566 C 0.6093 0.13477 0.77933 0.0
C567 C 0.63903 0.15132 0.77494 0.0
C568 C 0.60524 0.12369 0.8165 0.0
C569 C 0.60625 0.10962 0.75374 0.0
C570 C 0.582 0.11367 0.73237 0.0
C571 C 0.5766 0.095 0.70438 0.0
C572 C 0.59672 0.07189 0.69783 0.0
C573 C 0.62166 0.06753 0.71941 0.0
C574 C 0.62605 0.08623 0.74811 0.0
H575 H 0.3929 0.65471 0.2693 0.0
H576 H 0.42408 0.59833 0.18627 0.0
H577 H 0.38143 0.56451 0.19551 0.0
H578 H 0.36063 0.59585 0.3245 0.0
H579 H 0.32937 0.61869 0.33627 0.0
H580 H 0.36464 0.63569 0.32657 0.0
H581 H 0.33921 0.6685 0.28034 0.0
H582 H 0.30398 0.65137 0.28957 0.0
H583 H 0.31836 0.65103 0.24622 0.0
H584 H 0.33366 0.53847 0.21165 0.0
H585 H 0.28362 0.52357 0.23199 0.0
H586 H 0.28237 0.59946 0.30107 0.0
C587 C 0.39121 0.63475 0.25387 0.0
C588 C 0.41195 0.62871 0.22756 0.0
C589 C 0.40849 0.60301 0.20687 0.0
C590 C 0.3844 0.58371 0.21191 0.0
C591 C 0.36382 0.5907 0.23747 0.0
C592 C 0.36695 0.61564 0.25806 0.0
C593 C 0.3403 0.61977 0.28131 0.0
C594 C 0.34928 0.61734 0.31942 0.0
C595 C 0.32454 0.64942 0.27389 0.0
C596 C 0.32153 0.59355 0.27024 0.0
C597 C 0.33563 0.57672 0.24537 0.0
C598 C 0.32242 0.55145 0.23119 0.0
C599 C 0.29404 0.54318 0.2428 0.0
C600 C 0.27906 0.56052 0.26779 0.0
C601 C 0.29312 0.58595 0.28161 0.0
H602 H 0.82562 0.3897 0.77437 0.0
H603 H 0.88657 0.42617 0.69881 0.0
H604 H 0.9209 0.38424 0.70879 0.0
H605 H 0.88204 0.35795 0.83316 0.0
H606 H 0.8597 0.32551 0.84171 0.0
H607 H 0.8421 0.36046 0.83201 0.0
H608 H 0.81317 0.33528 0.78215 0.0
H609 H 0.83094 0.3004 0.79135 0.0
H610 H 0.83341 0.31614 0.74875 0.0
H611 H 0.94665 0.3364 0.72375 0.0
H612 H 0.96196 0.28628 0.7428 0.0
H613 H 0.88283 0.2804 0.80647 0.0
C614 C 0.84658 0.3893 0.76068 0.0
C615 C 0.85367 0.41127 0.73611 0.0
C616 C 0.88089 0.40959 0.71793 0.0
C617 C 0.9005 0.3859 0.72343 0.0
C618 C 0.89244 0.36406 0.74707 0.0
C619 C 0.86619 0.3656 0.7655 0.0
C620 C 0.8616 0.3381 0.78726 0.0
C621 C 0.86136 0.34598 0.82582 0.0
C622 C 0.8331 0.32151 0.77673 0.0
C623 C 0.88908 0.32064 0.77768 0.0
C624 C 0.90678 0.3361 0.75481 0.0
C625 C 0.93306 0.32415 0.74185 0.0
C626 C 0.94153 0.29565 0.75273 0.0
C627 C 0.92354 0.27936 0.77599 0.0
C628 C 0.89701 0.29217 0.78852 0.0
H629 H 0.11606 0.83824 0.20358 0.0
H630 H 0.05526 0.89018 0.26569 0.0
H631 H 0.09577 0.92607 0.27849 0.0
H632 H 0.17658 0.84506 0.26124 0.0
H633 H 0.20431 0.84587 0.22773 0.0
H634 H 0.16975 0.82672 0.22068 0.0
H635 H 0.16074 0.85846 0.16594 0.0
H636 H 0.19514 0.87802 0.17314 0.0
H637 H 0.1609 0.89844 0.16919 0.0
H638 H 0.14311 0.95608 0.28383 0.0
H639 H 0.19507 0.97277 0.29103 0.0
H640 H 0.22541 0.89785 0.23023 0.0
C641 C 0.11124 0.85736 0.21957 0.0
C642 C 0.08264 0.86189 0.23334 0.0
C643 C 0.07716 0.88659 0.25491 0.0
C644 C 0.09989 0.90712 0.26199 0.0
C645 C 0.12793 0.90213 0.24774 0.0
C646 C 0.13379 0.87746 0.22763 0.0
C647 C 0.16638 0.87531 0.21852 0.0
C648 C 0.18005 0.84655 0.23292 0.0
C649 C 0.17105 0.87771 0.17937 0.0
C650 C 0.17812 0.90249 0.23694 0.0
C651 C 0.15548 0.91816 0.25278 0.0
C652 C 0.16098 0.944 0.27153 0.0
C653 C 0.1905 0.95344 0.27523 0.0
C654 C 0.21406 0.93661 0.261 0.0
C655 C 0.20771 0.91117 0.24111 0.0
H656 H 0.32642 0.59632 0.7786 0.0
H657 H 0.3938 0.55387 0.7159 0.0
H658 H 0.42678 0.59729 0.72384 0.0
H659 H 0.33484 0.66569 0.7429 0.0
H660 H 0.32867 0.6867 0.78181 0.0
H661 H 0.31253 0.65034 0.77715 0.0
H662 H 0.33806 0.63296 0.83346 0.0
H663 H 0.35386 0.66951 0.83871 0.0
H664 H 0.37765 0.63733 0.83821 0.0
H665 H 0.45008 0.64718 0.7333 0.0
H666 H 0.46246 0.69984 0.74449 0.0
H667 H 0.37852 0.71073 0.79816 0.0
C668 C 0.3486 0.59574 0.76781 0.0
C669 C 0.35797 0.57163 0.7473 0.0
C670 C 0.38656 0.57205 0.73218 0.0
C671 C 0.40537 0.59659 0.73649 0.0
C672 C 0.39508 0.6206 0.75575 0.0
C673 C 0.36743 0.62033 0.77134 0.0
C674 C 0.36044 0.65016 0.78749 0.0
C675 C 0.33247 0.66402 0.77136 0.0
C676 C 0.35733 0.64731 0.8268 0.0
C677 C 0.3881 0.66738 0.77781 0.0
C678 C 0.408 0.64983 0.75995 0.0
C679 C 0.43481 0.66109 0.74756 0.0
C680 C 0.44158 0.69104 0.7539 0.0
C681 C 0.42142 0.70945 0.77204 0.0
C682 C 0.39435 0.69732 0.78403 0.0
H683 H 0.89713 0.33341 0.27381 0.0
H684 H 0.93461 0.39932 0.20486 0.0
H685 H 0.89225 0.4327 0.21678 0.0
H686 H 0.82499 0.34166 0.24609 0.0
H687 H 0.80774 0.3362 0.28753 0.0
H688 H 0.8433 0.31977 0.27864 0.0
H689 H 0.86582 0.34608 0.33204 0.0
H690 H 0.83017 0.36237 0.34136 0.0
H691 H 0.86237 0.38582 0.3364 0.0
H692 H 0.8435 0.45674 0.23186 0.0
H693 H 0.7917 0.46891 0.24781 0.0
H694 H 0.78544 0.38591 0.30432 0.0
C695 C 0.89689 0.35526 0.26214 0.0
C696 C 0.91925 0.36404 0.23881 0.0
C697 C 0.91774 0.39237 0.22307 0.0
C698 C 0.89383 0.41146 0.22972 0.0
C699 C 0.8716 0.40178 0.25204 0.0
C700 C 0.87296 0.37436 0.26806 0.0
C701 C 0.84479 0.36787 0.28794 0.0
C702 C 0.8293 0.33972 0.27421 0.0
C703 C 0.85118 0.3654 0.32674 0.0
C704 C 0.82708 0.39553 0.27982 0.0
C705 C 0.84307 0.41509 0.25962 0.0
C706 C 0.83085 0.44172 0.24796 0.0
C707 C 0.80143 0.44842 0.25707 0.0
C708 C 0.78451 0.42831 0.27714 0.0
C709 C 0.79773 0.4017 0.28882 0.0
H710 H 0.07147 0.76852 0.71877 0.0
H711 H 0.01084 0.79635 0.79911 0.0
H712 H 0.02632 0.84869 0.79055 0.0
H713 H 0.12886 0.8132 0.73883 0.0
H714 H 0.14017 0.82234 0.69555 0.0
H715 H 0.12092 0.78807 0.70378 0.0
H716 H 0.0803 0.80196 0.65935 0.0
H717 H 0.09984 0.83605 0.65026 0.0
H718 H 0.06138 0.8371 0.66307 0.0
H719 H 0.0566 0.89573 0.78144 0.0
H720 H 0.09241 0.93527 0.76481 0.0
H721 H 0.12922 0.87689 0.68688 0.0
C722 C 0.06057 0.78587 0.73342 0.0
C723 C 0.03979 0.77875 0.75922 0.0
C724 C 0.02636 0.80168 0.77869 0.0
C725 C 0.0352 0.83136 0.77418 0.0
C726 C 0.05682 0.83759 0.74948 0.0
C727 C 0.06855 0.81557 0.72859 0.0
C728 C 0.09247 0.82766 0.70516 0.0
C729 C 0.12235 0.81188 0.71123 0.0
C730 C 0.08291 0.82558 0.66721 0.0
C731 C 0.09345 0.85954 0.71729 0.0
C732 C 0.07289 0.86496 0.74296 0.0
C733 C 0.07215 0.89203 0.7606 0.0
C734 C 0.09266 0.91421 0.75128 0.0
C735 C 0.11319 0.90916 0.72433 0.0
C736 C 0.11334 0.88157 0.70711 0.0
H737 H 0.59479 0.1541 0.27385 0.0
H738 H 0.55585 0.08742 0.20698 0.0
H739 H 0.59888 0.0545 0.21734 0.0
H740 H 0.66534 0.14693 0.24242 0.0
H741 H 0.68437 0.1529 0.28269 0.0
H742 H 0.64815 0.16861 0.27603 0.0
H743 H 0.6285 0.1421 0.33077 0.0
H744 H 0.66487 0.12661 0.33796 0.0
H745 H 0.63299 0.10246 0.33506 0.0
H746 H 0.6486 0.03139 0.22982 0.0
H747 H 0.70129 0.02039 0.24261 0.0
H748 H 0.70839 0.10384 0.29823 0.0
C749 C 0.5948 0.13211 0.26249 0.0
C750 C 0.57187 0.12298 0.24012 0.0
C751 C 0.57314 0.09456 0.22456 0.0
C752 C 0.59743 0.07574 0.23031 0.0
C753 C 0.6203 0.08584 0.2515 0.0
C754 C 0.61913 0.11335 0.26744 0.0
C755 C 0.64801 0.12052 0.28552 0.0
C756 C 0.6623 0.14891 0.27077 0.0
C757 C 0.64331 0.12306 0.32465 0.0
C758 C 0.66588 0.09319 0.27644 0.0
C759 C 0.64939 0.07317 0.25739 0.0
C760 C 0.66164 0.04676 0.24504 0.0
C761 C 0.69157 0.04075 0.25233 0.0
C762 C 0.70896 0.06133 0.27123 0.0
C763 C 0.69574 0.08772 0.28356 0.0
H764 H 0.38702 0.79493 0.19161 0.0
H765 H 0.46301 0.79013 0.26011 0.0
H766 H 0.45271 0.84132 0.28022 0.0
H767 H 0.39699 0.87286 0.16787 0.0
H768 H 0.35762 0.87992 0.16627 0.0
H769 H 0.37167 0.84338 0.1565 0.0
H770 H 0.33757 0.82062 0.20345 0.0
H771 H 0.32328 0.857 0.21314 0.0
H772 H 0.33943 0.83478 0.24688 0.0
H773 H 0.43103 0.891 0.29667 0.0
H774 H 0.40061 0.93598 0.30679 0.0
H775 H 0.34139 0.90958 0.22422 0.0
C776 C 0.40155 0.80464 0.21081 0.0
C777 C 0.42569 0.78852 0.22453 0.0
C778 C 0.44438 0.80213 0.2493 0.0
C779 C 0.43874 0.83117 0.2608 0.0
C780 C 0.4147 0.84643 0.24673 0.0
C781 C 0.39658 0.83372 0.22205 0.0
C782 C 0.37189 0.85458 0.21144 0.0
C783 C 0.37473 0.86319 0.17325 0.0
C784 C 0.34124 0.84093 0.21921 0.0
C785 C 0.37842 0.88076 0.23471 0.0
C786 C 0.40321 0.87566 0.25489 0.0
C787 C 0.41199 0.89553 0.28051 0.0
C788 C 0.39466 0.92098 0.28605 0.0
C789 C 0.36917 0.92646 0.26575 0.0
C790 C 0.36136 0.90639 0.23932 0.0
H791 H 0.69256 0.42207 0.75016 0.0
H792 H 0.70121 0.39082 0.64491 0.0
H793 H 0.65063 0.36972 0.64751 0.0
H794 H 0.65714 0.35715 0.78051 0.0
H795 H 0.6331 0.37597 0.81057 0.0
H796 H 0.66828 0.39218 0.79908 0.0
H797 H 0.64156 0.44046 0.78014 0.0
H798 H 0.60623 0.4243 0.79147 0.0
H799 H 0.61225 0.43847 0.7486 0.0
H800 H 0.60059 0.35026 0.66189 0.0
H801 H 0.5562 0.32846 0.68912 0.0
H802 H 0.58085 0.36905 0.78659 0.0
C803 C 0.68347 0.41122 0.72757 0.0
C804 C 0.70046 0.40824 0.69721 0.0
C805 C 0.68838 0.39328 0.66836 0.0
C806 C 0.65965 0.38145 0.66951 0.0
C807 C 0.64347 0.38444 0.69988 0.0
C808 C 0.655 0.3986 0.72857 0.0
C809 C 0.63412 0.39591 0.75907 0.0
C810 C 0.64905 0.37931 0.78906 0.0
C811 C 0.62288 0.42662 0.77048 0.0
C812 C 0.60938 0.37762 0.74313 0.0
C813 C 0.61497 0.37185 0.70877 0.0
C814 C 0.59586 0.3547 0.68874 0.0
C815 C 0.57067 0.34245 0.70445 0.0
C816 C 0.56511 0.347 0.73998 0.0
C817 C 0.58446 0.3653 0.75934 0.0
H818 H 0.15055 0.58053 0.22482 0.0
H819 H 0.09357 0.55523 0.30991 0.0
H820 H 0.06339 0.6005 0.30089 0.0
H821 H 0.15475 0.65434 0.24721 0.0
H822 H 0.15544 0.6688 0.20391 0.0
H823 H 0.16899 0.63195 0.21238 0.0
H824 H 0.13244 0.6101 0.16739 0.0
H825 H 0.11907 0.64701 0.15832 0.0
H826 H 0.09336 0.61824 0.17084 0.0
H827 H 0.04232 0.65076 0.28582 0.0
H828 H 0.03291 0.70246 0.26688 0.0
H829 H 0.10635 0.69589 0.19482 0.0
C830 C 0.13104 0.58398 0.24064 0.0
C831 C 0.12389 0.56422 0.26756 0.0
C832 C 0.09901 0.57002 0.28881 0.0
C833 C 0.0818 0.59562 0.28387 0.0
C834 C 0.09004 0.61527 0.25783 0.0
C835 C 0.11407 0.60973 0.23654 0.0
C836 C 0.12042 0.63587 0.2132 0.0
C837 C 0.15175 0.64848 0.21958 0.0
C838 C 0.11605 0.62729 0.17519 0.0
C839 C 0.09666 0.65723 0.2252 0.0
C840 C 0.07898 0.6448 0.25048 0.0
C841 C 0.0559 0.66066 0.26587 0.0
C842 C 0.05078 0.68998 0.25506 0.0
C843 C 0.06905 0.70322 0.22964 0.0
C844 C 0.09217 0.68648 0.21457 0.0
H845 H 0.89677 0.15359 0.72943 0.0
H846 H 0.92367 0.09608 0.8134 0.0
H847 H 0.87885 0.06511 0.80417 0.0
H848 H 0.82102 0.15431 0.7512 0.0
H849 H 0.80792 0.15521 0.70733 0.0
H850 H 0.84366 0.17067 0.71789 0.0
H851 H 0.86873 0.13656 0.67254 0.0
H852 H 0.833 0.1212 0.66158 0.0
H853 H 0.86281 0.09697 0.6745 0.0
H854 H 0.83012 0.04114 0.78616 0.0
H855 H 0.78058 0.02785 0.76288 0.0
H856 H 0.78465 0.10381 0.69425 0.0
C857 C 0.89358 0.13408 0.74537 0.0
C858 C 0.91381 0.12687 0.77179 0.0
C859 C 0.90847 0.10174 0.79282 0.0
C860 C 0.88312 0.08405 0.78776 0.0
C861 C 0.86326 0.09211 0.76186 0.0
C862 C 0.86816 0.11663 0.74115 0.0
C863 C 0.84244 0.12194 0.71693 0.0
C864 C 0.82791 0.15233 0.72377 0.0
C865 C 0.85234 0.11898 0.67915 0.0
C866 C 0.82217 0.0967 0.72734 0.0
C867 C 0.83467 0.07944 0.75293 0.0
C868 C 0.82009 0.05457 0.7662 0.0
C869 C 0.79201 0.0472 0.75289 0.0
C870 C 0.7787 0.06501 0.72711 0.0
C871 C 0.79407 0.09004 0.71434 0.0
H872 H 0.56357 0.19464 0.05173 0.0
H873 H 0.47515 0.21691 0.08799 0.0
H874 H 0.46382 0.23924 0.03105 0.0
H875 H 0.57616 0.2611 0.00856 0.0
H876 H 0.5971 0.2445 0.97395 0.0
H877 H 0.59667 0.22729 0.01576 0.0
H878 H 0.57776 0.17799 0.98881 0.0
H879 H 0.57849 0.19493 0.94678 0.0
H880 H 0.54472 0.17824 0.96259 0.0
H881 H 0.46345 0.26046 0.96953 0.0
H882 H 0.47481 0.28016 0.91119 0.0
H883 H 0.56471 0.24653 0.91974 0.0
C884 C 0.54154 0.20361 0.04767 0.0
C885 C 0.52011 0.20375 0.07417 0.0
C886 C 0.49183 0.21639 0.06789 0.0
C887 C 0.48522 0.22909 0.03568 0.0
C888 C 0.50725 0.22911 0.01036 0.0
C889 C 0.53485 0.2167 0.0162 0.0
C890 C 0.55559 0.22127 0.98616 0.0
C891 C 0.58298 0.23964 -0.00324 0.0
C892 C 0.56466 0.19133 0.97014 0.0
C893 C 0.53557 0.23855 0.96245 0.0
C894 C 0.50759 0.24253 0.97639 0.0
C895 C 0.48532 0.25753 0.95848 0.0
C896 C 0.49194 0.26865 0.9255 0.0
C897 C 0.52073 0.26519 0.91137 0.0
C898 C 0.54266 0.24998 0.9302 0.0
H899 H 0.23668 0.56604 0.42978 0.0
H900 H 0.21772 0.47244 0.41415 0.0
H901 H 0.23773 0.46143 0.47236 0.0
H902 H 0.30575 0.55577 0.47737 0.0
H903 H 0.29844 0.58718 0.50494 0.0
H904 H 0.28448 0.58677 0.46145 0.0
H905 H 0.23103 0.59544 0.48438 0.0
H906 H 0.24481 0.59588 0.52784 0.0
H907 H 0.21579 0.57024 0.51588 0.0
H908 H 0.25595 0.46215 0.53482 0.0
H909 H 0.27186 0.47421 0.59435 0.0
H910 H 0.27986 0.56715 0.56567 0.0
C911 C 0.23684 0.54316 0.43844 0.0
C912 C 0.22547 0.5201 0.41775 0.0
C913 C 0.22639 0.49041 0.42979 0.0
C914 C 0.2377 0.48399 0.4627 0.0
C915 C 0.24841 0.50747 0.48268 0.0
C916 C 0.24832 0.5364 0.47071 0.0
C917 C 0.26012 0.55793 0.49713 0.0
C918 C 0.28891 0.57278 0.48446 0.0
C919 C 0.23653 0.58122 0.50688 0.0
C920 C 0.26609 0.5368 0.52639 0.0
C921 C 0.25942 0.50775 0.51774 0.0
C922 C 0.26163 0.48477 0.54169 0.0
C923 C 0.27063 0.49182 0.5754 0.0
C924 C 0.27719 0.52161 0.58462 0.0
C925 C 0.27527 0.54412 0.5595 0.0
H926 H 0.95321 0.31454 0.04448 0.0
H927 H 0.02299 0.26434 0.0948 0.0
H928 H 0.03721 0.24263 0.03862 0.0
H929 H 0.92789 0.25886 -0.00332 0.0
H930 H 0.91853 0.28029 0.959 0.0
H931 H 0.91927 0.29786 0.00047 0.0
H932 H 0.95709 0.33683 0.9781 0.0
H933 H 0.95622 0.31953 0.93619 0.0
H934 H 0.99112 0.3246 0.95817 0.0
H935 H 0.03761 0.21973 0.97886 0.0
H936 H 0.02295 0.19741 0.9227 0.0
H937 H 0.95125 0.26094 0.91429 0.0
C938 C 0.97218 0.29979 0.04362 0.0
C939 C 0.98698 0.29115 0.07399 0.0
C940 C 0.01143 0.27144 0.07178 0.0
C941 C 0.01971 0.25906 0.03995 0.0
C942 C 0.00352 0.26689 0.01069 0.0
C943 C 0.98042 0.2871 0.01234 0.0
C944 C 0.96345 0.28861 0.97887 0.0
C945 C 0.93036 0.28092 0.9841 0.0
C946 C 0.96722 0.31921 0.96183 0.0
C947 C 0.97939 0.26481 0.95875 0.0
C948 C 0.00306 0.2531 0.9769 0.0
C949 C 0.01951 0.22915 0.96417 0.0
C950 C 0.01107 0.21658 0.93244 0.0
C951 C 0.98605 0.22764 0.91469 0.0
C952 C 0.97056 0.25234 0.9276 0.0
H953 H 0.2855 0.98535 0.44001 0.0
H954 H 0.21535 0.94563 0.37908 0.0
H955 H 0.18213 0.94599 0.42969 0.0
H956 H 0.27518 0.94367 0.51128 0.0
H957 H 0.28233 0.97205 0.54304 0.0
H958 H 0.29836 0.9751 0.50081 0.0
H959 H 0.27425 0.02693 0.49311 0.0
H960 H 0.25821 0.02411 0.53557 0.0
H961 H 0.23475 0.0311 0.49885 0.0
H962 H 0.16101 0.94064 0.48721 0.0
H963 H 0.15199 0.93187 0.5491 0.0
H964 H 0.23423 0.97699 0.5742 0.0
C965 C 0.26276 0.97785 0.43732 0.0
C966 C 0.25252 0.96583 0.40603 0.0
C967 C 0.22314 0.9552 0.40308 0.0
C968 C 0.20417 0.95547 0.43154 0.0
C969 C 0.21501 0.96665 0.46255 0.0
C970 C 0.24348 0.97801 0.46564 0.0
C971 C 0.25071 0.9852 0.50286 0.0
C972 C 0.27826 0.96796 0.5152 0.0
C973 C 0.25471 0.01884 0.50789 0.0
C974 C 0.22266 0.97426 0.52031 0.0
C975 C 0.20218 0.96415 0.49643 0.0
C976 C 0.17633 0.94936 0.50618 0.0
C977 C 0.17147 0.94431 0.54124 0.0
C978 C 0.19221 0.95429 0.56596 0.0
C979 C 0.2177 0.97009 0.55556 0.0
H980 H 0.42375 0.75773 0.91762 0.0
H981 H 0.51391 0.79062 0.90821 0.0
H982 H 0.52495 0.77199 0.96724 0.0
H983 H 0.4117 0.77663 0.00301 0.0
H984 H 0.39034 0.7438 0.01281 0.0
H985 H 0.39103 0.758 0.96956 0.0
H986 H 0.40928 0.70684 0.94704 0.0
H987 H 0.40862 0.69243 0.99033 0.0
H988 H 0.44225 0.69047 0.96523 0.0
H989 H 0.52356 0.75295 0.03017 0.0
H990 H 0.51062 0.73439 0.08851 0.0
H991 H 0.42187 0.7132 0.05232 0.0
C992 C 0.4459 0.761 0.92787 0.0
C993 C 0.4679 0.77592 0.90882 0.0
C994 C 0.49676 0.77927 0.92271 0.0
C995 C 0.50317 0.76875 0.95607 0.0
C996 C 0.4806 0.75447 0.97446 0.0
C997 C 0.45268 0.75031 0.96044 0.0
C998 C 0.43185 0.73498 0.98502 0.0
C999 C 0.40465 0.75453 0.99307 0.0
C1000 C 0.42246 0.70436 0.97107 0.0
C1001 C 0.45194 0.73202 0.01578 0.0
C1002 C 0.48007 0.74309 0.00945 0.0
C1003 C 0.5017 0.74389 0.03518 0.0
C1004 C 0.49417 0.73335 0.06821 0.0
C1005 C 0.46522 0.72238 0.07498 0.0
C1006 C 0.44422 0.72138 0.04812 0.0
H1007 H 0.79335 0.43695 0.54746 0.0
H1008 H 0.74677 0.51115 0.59419 0.0
H1009 H 0.72349 0.52242 0.5378 0.0
H1010 H 0.80346 0.46901 0.46029 0.0
H1011 H 0.79693 0.43337 0.44044 0.0
H1012 H 0.81397 0.43541 0.48238 0.0
H1013 H 0.77311 0.40052 0.50658 0.0
H1014 H 0.75564 0.39878 0.46504 0.0
H1015 H 0.73462 0.41082 0.50203 0.0
H1016 H 0.7017 0.52198 0.47638 0.0
H1017 H 0.68291 0.50869 0.41799 0.0
H1018 H 0.74117 0.4322 0.41633 0.0
C1019 C 0.77888 0.45611 0.54587 0.0
C1020 C 0.77195 0.47321 0.57524 0.0
C1021 C 0.7526 0.49786 0.57192 0.0
C1022 C 0.73928 0.50441 0.54001 0.0
C1023 C 0.74567 0.48611 0.51189 0.0
C1024 C 0.7652 0.46256 0.51468 0.0
C1025 C 0.76611 0.44403 0.48232 0.0
C1026 C 0.79695 0.44557 0.46535 0.0
C1027 C 0.7568 0.41165 0.48945 0.0
C1028 C 0.74321 0.46009 0.46113 0.0
C1029 C 0.73211 0.48479 0.47799 0.0
C1030 C 0.71035 0.50274 0.463 0.0
C1031 C 0.69974 0.49504 0.43005 0.0
C1032 C 0.71033 0.4692 0.41334 0.0
C1033 C 0.7324 0.45179 0.42901 0.0
H1034 H 0.07168 0.77735 0.05892 0.0
H1035 H 0.98164 0.76234 0.09509 0.0
H1036 H 0.96744 0.74496 0.03672 0.0
H1037 H 0.05282 0.80253 0.9728 0.0
H1038 H 0.08447 0.78419 0.95395 0.0
H1039 H 0.08627 0.79757 -0.00235 0.0
H1040 H 0.10079 0.74478 0.01849 0.0
H1041 H 0.09886 0.73119 0.97496 0.0
H1042 H 0.07703 0.71373 0.00823 0.0
H1043 H 0.96451 0.7265 0.97426 0.0
H1044 H 0.97319 0.70885 0.91455 0.0
H1045 H 0.06551 0.73594 0.92243 0.0
C1046 C 0.04884 0.77074 0.0547 0.0
C1047 C 0.02777 0.77117 0.08158 0.0
C1048 C -0.00185 0.76226 0.07479 0.0
C1049 C 0.98989 0.75237 0.04177 0.0
C1050 C 0.01152 0.75176 0.01602 0.0
C1051 C 0.04034 0.76087 0.02224 0.0
C1052 C 0.05996 0.75695 0.99111 0.0
C1053 C 0.07154 0.78711 0.97811 0.0
C1054 C 0.08566 0.73537 -0.00133 0.0
C1055 C 0.03789 0.74362 0.96638 0.0
C1056 C 0.00996 0.74098 0.98086 0.0
C1057 C 0.98626 0.72863 0.96265 0.0
C1058 C 0.9914 0.71865 0.92883 0.0
C1059 C 0.02006 0.72089 0.91394 0.0
C1060 C 0.04338 0.73373 0.93307 0.0
H1061 H 0.73915 0.07463 0.55885 0.0
H1062 H 0.72786 0.98001 0.57624 0.0
H1063 H 0.75078 0.96973 0.51935 0.0
H1064 H 0.72144 0.07489 0.47093 0.0
H1065 H 0.7485 0.10285 0.45987 0.0
H1066 H 0.73275 0.10211 0.50245 0.0
H1067 H 0.78561 0.0991 0.52877 0.0
H1068 H 0.80154 0.09973 0.48619 0.0
H1069 H 0.81036 0.06984 0.51532 0.0
H1070 H 0.77162 0.97068 0.45821 0.0
H1071 H 0.78921 0.9826 0.39936 0.0
H1072 H 0.78805 0.07654 0.42497 0.0
C1073 C 0.74154 0.05168 0.55086 0.0
C1074 C 0.73157 0.0281 0.57181 0.0
C1075 C 0.73538 -0.00159 0.56051 0.0
C1076 C 0.74839 0.99238 0.52832 0.0
C1077 C 0.75777 0.0163 0.50819 0.0
C1078 C 0.75467 0.04533 0.51925 0.0
C1079 C 0.76575 0.06724 0.49278 0.0
C1080 C 0.74061 0.08797 0.4808 0.0
C1081 C 0.7924 0.08501 0.5066 0.0
C1082 C 0.77502 0.04609 0.4646 0.0
C1083 C 0.77038 0.01679 0.47384 0.0
C1084 C 0.77571 0.99353 0.45091 0.0
C1085 C 0.78567 0.00051 0.41757 0.0
C1086 C 0.79022 0.03049 0.40766 0.0
C1087 C 0.78525 0.05338 0.43182 0.0
loop_
_geom_bond_atom_site_label_1
_geom_bond_atom_site_label_2
_geom_bond_distance
_geom_bond_site_symmetry_2
_ccdc_geom_bond_type
C0 O1 1.306 . S
C0 O3 1.160 . S
O1 C0 1.306 . S
O1 Cd2 2.228 . S
Cd2 O1 2.228 . S
Cd2 O6 2.273 . S
Cd2 O10 2.277 . S
O3 C0 1.160 . S
O3 Cd4 2.203 . S
Cd4 O3 2.203 . S
Cd4 O6 2.411 . S
Cd4 O7 2.333 . S
Cd4 O8 2.352 . S
Cd4 O12 2.277 . S
Cd4 O13 2.356 . S
C5 O10 1.209 . S
C5 O12 1.226 . S
O6 Cd2 2.273 . S
O6 Cd4 2.411 . S
O6 C9 1.320 . S
O7 Cd4 2.333 . S
O7 C9 1.214 . S
O8 Cd4 2.352 . S
O8 C11 1.258 . S
C9 O6 1.320 . S
C9 O7 1.214 . S
O10 Cd2 2.277 . S
O10 C5 1.209 . S
C11 O8 1.258 . S
C11 O13 1.282 . S
O12 Cd4 2.277 . S
O12 C5 1.226 . S
O13 Cd4 2.356 . S
O13 C11 1.282 . S
C14 O15 1.306 . S
C14 O17 1.160 . S
O15 C14 1.306 . S
O15 Cd16 2.228 . S
Cd16 O15 2.228 . S
Cd16 O20 2.273 . S
Cd16 O24 2.277 . S
O17 C14 1.160 . S
O17 Cd18 2.203 . S
Cd18 O17 2.203 . S
Cd18 O20 2.411 . S
Cd18 O21 2.333 . S
Cd18 O22 2.352 . S
Cd18 O26 2.277 . S
Cd18 O27 2.356 . S
C19 O24 1.209 . S
C19 O26 1.226 . S
O20 Cd16 2.273 . S
O20 Cd18 2.411 . S
O20 C23 1.320 . S
O21 Cd18 2.333 . S
O21 C23 1.214 . S
O22 Cd18 2.352 . S
O22 C25 1.258 . S
C23 O20 1.320 . S
C23 O21 1.214 . S
O24 Cd16 2.277 . S
O24 C19 1.209 . S
C25 O22 1.258 . S
C25 O27 1.282 . S
O26 Cd18 2.277 . S
O26 C19 1.226 . S
O27 Cd18 2.356 . S
O27 C25 1.282 . S
C28 O29 1.306 . S
C28 O31 1.160 . S
O29 C28 1.306 . S
O29 Cd30 2.228 . S
Cd30 O29 2.228 . S
Cd30 O34 2.273 . S
Cd30 O38 2.277 . S
O31 C28 1.160 . S
O31 Cd32 2.203 . S
Cd32 O31 2.203 . S
Cd32 O34 2.411 . S
Cd32 O35 2.333 . S
Cd32 O36 2.352 1_655 S
Cd32 O40 2.277 . S
Cd32 O41 2.356 1_655 S
C33 O38 1.209 . S
C33 O40 1.226 . S
O34 Cd30 2.273 . S
O34 Cd32 2.411 . S
O34 C37 1.320 . S
O35 Cd32 2.333 . S
O35 C37 1.214 . S
O36 Cd32 2.352 1_455 S
O36 C39 1.258 . S
C37 O34 1.320 . S
C37 O35 1.214 . S
O38 Cd30 2.277 . S
O38 C33 1.209 . S
C39 O36 1.258 . S
C39 O41 1.282 . S
O40 Cd32 2.277 . S
O40 C33 1.226 . S
O41 Cd32 2.356 1_455 S
O41 C39 1.282 . S
C42 O43 1.306 . S
C42 O45 1.160 . S
O43 C42 1.306 . S
O43 Cd44 2.228 . S
Cd44 O43 2.228 . S
Cd44 O48 2.273 . S
Cd44 O52 2.277 . S
O45 C42 1.160 . S
O45 Cd46 2.203 . S
Cd46 O45 2.203 . S
Cd46 O48 2.411 . S
Cd46 O49 2.333 . S
Cd46 O50 2.352 1_565 S
Cd46 O54 2.277 . S
Cd46 O55 2.356 1_565 S
C47 O52 1.209 . S
C47 O54 1.226 . S
O48 Cd44 2.273 . S
O48 Cd46 2.411 . S
O48 C51 1.320 . S
O49 Cd46 2.333 . S
O49 C51 1.214 . S
O50 Cd46 2.352 1_545 S
O50 C53 1.258 . S
C51 O48 1.320 . S
C51 O49 1.214 . S
O52 Cd44 2.277 . S
O52 C47 1.209 . S
C53 O50 1.258 . S
C53 O55 1.282 . S
O54 Cd46 2.277 . S
O54 C47 1.226 . S
O55 Cd46 2.356 1_545 S
O55 C53 1.282 . S
C56 O57 1.306 . S
C56 O59 1.160 . S
O57 C56 1.306 . S
O57 Cd58 2.228 . S
Cd58 O57 2.228 . S
Cd58 O62 2.273 . S
Cd58 O66 2.277 . S
O59 C56 1.160 . S
O59 Cd60 2.203 . S
Cd60 O59 2.203 . S
Cd60 O62 2.411 . S
Cd60 O63 2.333 . S
Cd60 O64 2.352 . S
Cd60 O68 2.277 . S
Cd60 O69 2.356 . S
C61 O66 1.209 . S
C61 O68 1.226 . S
O62 Cd58 2.273 . S
O62 Cd60 2.411 . S
O62 C65 1.320 . S
O63 Cd60 2.333 . S
O63 C65 1.214 . S
O64 Cd60 2.352 . S
O64 C67 1.258 . S
C65 O62 1.320 . S
C65 O63 1.214 . S
O66 Cd58 2.277 . S
O66 C61 1.209 . S
C67 O64 1.258 . S
C67 O69 1.282 . S
O68 Cd60 2.277 . S
O68 C61 1.226 . S
O69 Cd60 2.356 . S
O69 C67 1.282 . S
C70 O71 1.306 . S
C70 O73 1.160 . S
O71 C70 1.306 . S
O71 Cd72 2.228 . S
Cd72 O71 2.228 . S
Cd72 O76 2.273 . S
Cd72 O80 2.277 . S
O73 C70 1.160 . S
O73 Cd74 2.203 . S
Cd74 O73 2.203 . S
Cd74 O76 2.411 . S
Cd74 O77 2.333 . S
Cd74 O78 2.352 . S
Cd74 O82 2.277 . S
Cd74 O83 2.356 . S
C75 O80 1.209 . S
C75 O82 1.226 . S
O76 Cd72 2.273 . S
O76 Cd74 2.411 . S
O76 C79 1.320 . S
O77 Cd74 2.333 . S
O77 C79 1.214 . S
O78 Cd74 2.352 . S
O78 C81 1.258 . S
C79 O76 1.320 . S
C79 O77 1.214 . S
O80 Cd72 2.277 . S
O80 C75 1.209 . S
C81 O78 1.258 . S
C81 O83 1.282 . S
O82 Cd74 2.277 . S
O82 C75 1.226 . S
O83 Cd74 2.356 . S
O83 C81 1.282 . S
C84 O85 1.306 . S
C84 O87 1.160 . S
O85 C84 1.306 . S
O85 Cd86 2.228 . S
Cd86 O85 2.228 . S
Cd86 O90 2.273 . S
Cd86 O94 2.277 . S
O87 C84 1.160 . S
O87 Cd88 2.203 . S
Cd88 O87 2.203 . S
Cd88 O90 2.411 . S
Cd88 O91 2.333 . S
Cd88 O92 2.352 1_655 S
Cd88 O96 2.277 . S
Cd88 O97 2.356 1_655 S
C89 O94 1.209 . S
C89 O96 1.226 . S
O90 Cd86 2.273 . S
O90 Cd88 2.411 . S
O90 C93 1.320 . S
O91 Cd88 2.333 . S
O91 C93 1.214 . S
O92 Cd88 2.352 1_455 S
O92 C95 1.258 . S
C93 O90 1.320 . S
C93 O91 1.214 . S
O94 Cd86 2.277 . S
O94 C89 1.209 . S
C95 O92 1.258 . S
C95 O97 1.282 . S
O96 Cd88 2.277 . S
O96 C89 1.226 . S
O97 Cd88 2.356 1_455 S
O97 C95 1.282 . S
C98 O99 1.306 . S
C98 O101 1.160 . S
O99 C98 1.306 . S
O99 Cd100 2.228 . S
Cd100 O99 2.228 . S
Cd100 O104 2.273 . S
Cd100 O108 2.277 . S
O101 C98 1.160 . S
O101 Cd102 2.203 . S
Cd102 O101 2.203 . S
Cd102 O104 2.411 . S
Cd102 O105 2.333 . S
Cd102 O106 2.352 1_565 S
Cd102 O110 2.277 . S
Cd102 O111 2.356 1_565 S
C103 O108 1.209 . S
C103 O110 1.226 . S
O104 Cd100 2.273 . S
O104 Cd102 2.411 . S
O104 C107 1.320 . S
O105 Cd102 2.333 . S
O105 C107 1.214 . S
O106 Cd102 2.352 1_545 S
O106 C109 1.258 . S
C107 O104 1.320 . S
C107 O105 1.214 . S
O108 Cd100 2.277 . S
O108 C103 1.209 . S
C109 O106 1.258 . S
C109 O111 1.282 . S
O110 Cd102 2.277 . S
O110 C103 1.226 . S
O111 Cd102 2.356 1_545 S
O111 C109 1.282 . S
C112 O113 1.306 . S
C112 O115 1.160 . S
O113 C112 1.306 . S
O113 Cd114 2.228 . S
Cd114 O113 2.228 . S
Cd114 O118 2.273 . S
Cd114 O122 2.277 . S
O115 C112 1.160 . S
O115 Cd116 2.203 . S
Cd116 O115 2.203 . S
Cd116 O118 2.411 . S
Cd116 O119 2.333 . S
Cd116 O120 2.352 . S
Cd116 O124 2.277 . S
Cd116 O125 2.356 . S
C117 O122 1.209 . S
C117 O124 1.226 . S
O118 Cd114 2.273 . S
O118 Cd116 2.411 . S
O118 C121 1.320 . S
O119 Cd116 2.333 . S
O119 C121 1.214 . S
O120 Cd116 2.352 . S
O120 C123 1.258 . S
C121 O118 1.320 . S
C121 O119 1.214 . S
O122 Cd114 2.277 . S
O122 C117 1.209 . S
C123 O120 1.258 . S
C123 O125 1.282 . S
O124 Cd116 2.277 . S
O124 C117 1.226 . S
O125 Cd116 2.356 . S
O125 C123 1.282 . S
C126 O127 1.306 . S
C126 O129 1.160 . S
O127 C126 1.306 . S
O127 Cd128 2.228 . S
Cd128 O127 2.228 . S
Cd128 O132 2.273 . S
Cd128 O136 2.277 . S
O129 C126 1.160 . S
O129 Cd130 2.203 . S
Cd130 O129 2.203 . S
Cd130 O132 2.411 . S
Cd130 O133 2.333 . S
Cd130 O134 2.352 . S
Cd130 O138 2.277 . S
Cd130 O139 2.356 . S
C131 O136 1.209 . S
C131 O138 1.226 . S
O132 Cd128 2.273 . S
O132 Cd130 2.411 . S
O132 C135 1.320 . S
O133 Cd130 2.333 . S
O133 C135 1.214 . S
O134 Cd130 2.352 . S
O134 C137 1.258 . S
C135 O132 1.320 . S
C135 O133 1.214 . S
O136 Cd128 2.277 . S
O136 C131 1.209 . S
C137 O134 1.258 . S
C137 O139 1.282 . S
O138 Cd130 2.277 . S
O138 C131 1.226 . S
O139 Cd130 2.356 . S
O139 C137 1.282 . S
C140 O141 1.306 . S
C140 O143 1.160 . S
O141 C140 1.306 . S
O141 Cd142 2.228 . S
Cd142 O141 2.228 . S
Cd142 O146 2.273 . S
Cd142 O150 2.277 . S
O143 C140 1.160 . S
O143 Cd144 2.203 . S
Cd144 O143 2.203 . S
Cd144 O146 2.411 . S
Cd144 O147 2.333 . S
Cd144 O148 2.352 1_455 S
Cd144 O152 2.277 . S
Cd144 O153 2.356 1_455 S
C145 O150 1.209 . S
C145 O152 1.226 . S
O146 Cd142 2.273 . S
O146 Cd144 2.411 . S
O146 C149 1.320 . S
O147 Cd144 2.333 . S
O147 C149 1.214 . S
O148 Cd144 2.352 1_655 S
O148 C151 1.258 . S
C149 O146 1.320 . S
C149 O147 1.214 . S
O150 Cd142 2.277 . S
O150 C145 1.209 . S
C151 O148 1.258 . S
C151 O153 1.282 . S
O152 Cd144 2.277 . S
O152 C145 1.226 . S
O153 Cd144 2.356 1_655 S
O153 C151 1.282 . S
C154 O155 1.306 . S
C154 O157 1.160 . S
O155 C154 1.306 . S
O155 Cd156 2.228 . S
Cd156 O155 2.228 . S
Cd156 O160 2.273 . S
Cd156 O164 2.277 . S
O157 C154 1.160 . S
O157 Cd158 2.203 . S
Cd158 O157 2.203 . S
Cd158 O160 2.411 . S
Cd158 O161 2.333 . S
Cd158 O162 2.352 1_545 S
Cd158 O166 2.277 . S
Cd158 O167 2.356 1_545 S
C159 O164 1.209 . S
C159 O166 1.226 . S
O160 Cd156 2.273 . S
O160 Cd158 2.411 . S
O160 C163 1.320 . S
O161 Cd158 2.333 . S
O161 C163 1.214 . S
O162 Cd158 2.352 1_565 S
O162 C165 1.258 . S
C163 O160 1.320 . S
C163 O161 1.214 . S
O164 Cd156 2.277 . S
O164 C159 1.209 . S
C165 O162 1.258 . S
C165 O167 1.282 . S
O166 Cd158 2.277 . S
O166 C159 1.226 . S
O167 Cd158 2.356 1_565 S
O167 C165 1.282 . S
C168 O169 1.306 . S
C168 O171 1.160 . S
O169 C168 1.306 . S
O169 Cd170 2.228 . S
Cd170 O169 2.228 . S
Cd170 O174 2.273 . S
Cd170 O178 2.277 . S
O171 C168 1.160 . S
O171 Cd172 2.203 . S
Cd172 O171 2.203 . S
Cd172 O174 2.411 . S
Cd172 O175 2.333 . S
Cd172 O176 2.352 . S
Cd172 O180 2.277 . S
Cd172 O181 2.356 . S
C173 O178 1.209 . S
C173 O180 1.226 . S
O174 Cd170 2.273 . S
O174 Cd172 2.411 . S
O174 C177 1.320 . S
O175 Cd172 2.333 . S
O175 C177 1.214 . S
O176 Cd172 2.352 . S
O176 C179 1.258 . S
C177 O174 1.320 . S
C177 O175 1.214 . S
O178 Cd170 2.277 . S
O178 C173 1.209 . S
C179 O176 1.258 . S
C179 O181 1.282 . S
O180 Cd172 2.277 . S
O180 C173 1.226 . S
O181 Cd172 2.356 . S
O181 C179 1.282 . S
C182 O183 1.306 . S
C182 O185 1.160 . S
O183 C182 1.306 . S
O183 Cd184 2.228 . S
Cd184 O183 2.228 . S
Cd184 O188 2.273 . S
Cd184 O192 2.277 . S
O185 C182 1.160 . S
O185 Cd186 2.203 . S
Cd186 O185 2.203 . S
Cd186 O188 2.411 . S
Cd186 O189 2.333 . S
Cd186 O190 2.352 . S
Cd186 O194 2.277 . S
Cd186 O195 2.356 . S
C187 O192 1.209 . S
C187 O194 1.226 . S
O188 Cd184 2.273 . S
O188 Cd186 2.411 . S
O188 C191 1.320 . S
O189 Cd186 2.333 . S
O189 C191 1.214 . S
O190 Cd186 2.352 . S
O190 C193 1.258 . S
C191 O188 1.320 . S
C191 O189 1.214 . S
O192 Cd184 2.277 . S
O192 C187 1.209 . S
C193 O190 1.258 . S
C193 O195 1.282 . S
O194 Cd186 2.277 . S
O194 C187 1.226 . S
O195 Cd186 2.356 . S
O195 C193 1.282 . S
C196 O197 1.306 . S
C196 O199 1.160 . S
O197 C196 1.306 . S
O197 Cd198 2.228 . S
Cd198 O197 2.228 . S
Cd198 O202 2.273 . S
Cd198 O206 2.277 . S
O199 C196 1.160 . S
O199 Cd200 2.203 . S
Cd200 O199 2.203 . S
Cd200 O202 2.411 . S
Cd200 O203 2.333 . S
Cd200 O204 2.352 1_455 S
Cd200 O208 2.277 . S
Cd200 O209 2.356 1_455 S
C201 O206 1.209 . S
C201 O208 1.226 . S
O202 Cd198 2.273 . S
O202 Cd200 2.411 . S
O202 C205 1.320 . S
O203 Cd200 2.333 . S
O203 C205 1.214 . S
O204 Cd200 2.352 1_655 S
O204 C207 1.258 . S
C205 O202 1.320 . S
C205 O203 1.214 . S
O206 Cd198 2.277 . S
O206 C201 1.209 . S
C207 O204 1.258 . S
C207 O209 1.282 . S
O208 Cd200 2.277 . S
O208 C201 1.226 . S
O209 Cd200 2.356 1_655 S
O209 C207 1.282 . S
C210 O211 1.306 . S
C210 O213 1.160 . S
O211 C210 1.306 . S
O211 Cd212 2.228 . S
Cd212 O211 2.228 . S
Cd212 O216 2.273 . S
Cd212 O220 2.277 . S
O213 C210 1.160 . S
O213 Cd214 2.203 . S
Cd214 O213 2.203 . S
Cd214 O216 2.411 . S
Cd214 O217 2.333 . S
Cd214 O218 2.352 1_545 S
Cd214 O222 2.277 . S
Cd214 O223 2.356 1_545 S
C215 O220 1.209 . S
C215 O222 1.226 . S
O216 Cd212 2.273 . S
O216 Cd214 2.411 . S
O216 C219 1.320 . S
O217 Cd214 2.333 . S
O217 C219 1.214 . S
O218 Cd214 2.352 1_565 S
O218 C221 1.258 . S
C219 O216 1.320 . S
C219 O217 1.214 . S
O220 Cd212 2.277 . S
O220 C215 1.209 . S
C221 O218 1.258 . S
C221 O223 1.282 . S
O222 Cd214 2.277 . S
O222 C215 1.226 . S
O223 Cd214 2.356 1_565 S
O223 C221 1.282 . S
H224 C236 0.930 . S
H225 C238 0.930 . S
H226 C239 0.930 . S
H227 C243 0.959 . S
H228 C243 0.959 . S
H229 C243 0.961 . S
H230 C244 0.960 . S
H231 C244 0.961 . S
H232 C244 0.959 . S
H233 C247 0.929 . S
H234 C248 0.931 . S
H235 C250 0.930 . S
C236 H224 0.930 . S
C236 C237 1.399 . S
C236 C241 1.399 . S
C237 C236 1.399 . S
C237 C238 1.376 . S
C238 H225 0.930 . S
C238 C237 1.376 . S
C238 C239 1.388 . S
C239 H226 0.930 . S
C239 C238 1.388 . S
C239 C240 1.390 . S
C240 C239 1.390 . S
C240 C241 1.394 . S
C240 C246 1.465 . S
C241 C236 1.399 . S
C241 C240 1.394 . S
C241 C242 1.516 . S
C242 C241 1.516 . S
C242 C243 1.502 . S
C242 C244 1.561 . S
C242 C245 1.526 . S
C243 H227 0.959 . S
C243 H228 0.959 . S
C243 H229 0.961 . S
C243 C242 1.502 . S
C244 H230 0.960 . S
C244 H231 0.961 . S
C244 H232 0.959 . S
C244 C242 1.561 . S
C245 C242 1.526 . S
C245 C246 1.396 . S
C245 C250 1.390 . S
C246 C240 1.465 . S
C246 C245 1.396 . S
C246 C247 1.399 . S
C247 H233 0.929 . S
C247 C246 1.399 . S
C247 C248 1.385 . S
C248 H234 0.931 . S
C248 C247 1.385 . S
C248 C249 1.389 . S
C249 C248 1.389 . S
C249 C250 1.387 . S
C250 H235 0.930 . S
C250 C245 1.390 . S
C250 C249 1.387 . S
H251 C263 0.930 . S
H252 C265 0.930 . S
H253 C266 0.930 . S
H254 C270 0.959 . S
H255 C270 0.959 . S
H256 C270 0.961 . S
H257 C271 0.960 . S
H258 C271 0.961 . S
H259 C271 0.959 . S
H260 C274 0.929 . S
H261 C275 0.931 . S
H262 C277 0.930 . S
C263 H251 0.930 . S
C263 C264 1.399 . S
C263 C268 1.399 . S
C264 C263 1.399 . S
C264 C265 1.376 . S
C265 H252 0.930 . S
C265 C264 1.376 . S
C265 C266 1.388 . S
C266 H253 0.930 . S
C266 C265 1.388 . S
C266 C267 1.390 . S
C267 C266 1.390 . S
C267 C268 1.394 . S
C267 C273 1.465 . S
C268 C263 1.399 . S
C268 C267 1.394 . S
C268 C269 1.516 . S
C269 C268 1.516 . S
C269 C270 1.502 . S
C269 C271 1.561 . S
C269 C272 1.526 . S
C270 H254 0.959 . S
C270 H255 0.959 . S
C270 H256 0.961 . S
C270 C269 1.502 . S
C271 H257 0.960 . S
C271 H258 0.961 . S
C271 H259 0.959 . S
C271 C269 1.561 . S
C272 C269 1.526 . S
C272 C273 1.396 . S
C272 C277 1.390 . S
C273 C267 1.465 . S
C273 C272 1.396 . S
C273 C274 1.399 . S
C274 H260 0.929 . S
C274 C273 1.399 . S
C274 C275 1.385 . S
C275 H261 0.931 . S
C275 C274 1.385 . S
C275 C276 1.389 . S
C276 C275 1.389 . S
C276 C277 1.387 . S
C277 H262 0.930 . S
C277 C272 1.390 . S
C277 C276 1.387 . S
H278 C290 0.930 . S
H279 C292 0.930 . S
H280 C293 0.930 . S
H281 C297 0.959 . S
H282 C297 0.959 . S
H283 C297 0.961 . S
H284 C298 0.960 . S
H285 C298 0.961 . S
H286 C298 0.959 . S
H287 C301 0.929 . S
H288 C302 0.931 . S
H289 C304 0.930 . S
C290 H278 0.930 . S
C290 C291 1.399 . S
C290 C295 1.399 . S
C291 C290 1.399 . S
C291 C292 1.376 . S
C292 H279 0.930 . S
C292 C291 1.376 . S
C292 C293 1.388 . S
C293 H280 0.930 . S
C293 C292 1.388 . S
C293 C294 1.390 . S
C294 C293 1.390 . S
C294 C295 1.394 . S
C294 C300 1.465 . S
C295 C290 1.399 . S
C295 C294 1.394 . S
C295 C296 1.516 . S
C296 C295 1.516 . S
C296 C297 1.502 . S
C296 C298 1.561 . S
C296 C299 1.526 . S
C297 H281 0.959 . S
C297 H282 0.959 . S
C297 H283 0.961 . S
C297 C296 1.502 . S
C298 H284 0.960 . S
C298 H285 0.961 . S
C298 H286 0.959 . S
C298 C296 1.561 . S
C299 C296 1.526 . S
C299 C300 1.396 . S
C299 C304 1.390 . S
C300 C294 1.465 . S
C300 C299 1.396 . S
C300 C301 1.399 . S
C301 H287 0.929 . S
C301 C300 1.399 . S
C301 C302 1.385 . S
C302 H288 0.931 . S
C302 C301 1.385 . S
C302 C303 1.389 . S
C303 C302 1.389 . S
C303 C304 1.387 . S
C304 H289 0.930 . S
C304 C299 1.390 . S
C304 C303 1.387 . S
H305 C317 0.930 . S
H306 C319 0.930 . S
H307 C320 0.930 . S
H308 C324 0.959 . S
H309 C324 0.959 . S
H310 C324 0.961 . S
H311 C325 0.960 . S
H312 C325 0.961 . S
H313 C325 0.959 . S
H314 C328 0.929 . S
H315 C329 0.931 . S
H316 C331 0.930 . S
C317 H305 0.930 . S
C317 C318 1.399 . S
C317 C322 1.399 . S
C318 C317 1.399 . S
C318 C319 1.376 . S
C319 H306 0.930 . S
C319 C318 1.376 . S
C319 C320 1.388 . S
C320 H307 0.930 . S
C320 C319 1.388 . S
C320 C321 1.390 . S
C321 C320 1.390 . S
C321 C322 1.394 . S
C321 C327 1.465 . S
C322 C317 1.399 . S
C322 C321 1.394 . S
C322 C323 1.516 . S
C323 C322 1.516 . S
C323 C324 1.502 . S
C323 C325 1.561 . S
C323 C326 1.526 . S
C324 H308 0.959 . S
C324 H309 0.959 . S
C324 H310 0.961 . S
C324 C323 1.502 . S
C325 H311 0.960 . S
C325 H312 0.961 . S
C325 H313 0.959 . S
C325 C323 1.561 . S
C326 C323 1.526 . S
C326 C327 1.396 . S
C326 C331 1.390 . S
C327 C321 1.465 . S
C327 C326 1.396 . S
C327 C328 1.399 . S
C328 H314 0.929 . S
C328 C327 1.399 . S
C328 C329 1.385 . S
C329 H315 0.931 . S
C329 C328 1.385 . S
C329 C330 1.389 . S
C330 C329 1.389 . S
C330 C331 1.387 . S
C331 H316 0.930 . S
C331 C326 1.390 . S
C331 C330 1.387 . S
H332 C344 0.930 . S
H333 C346 0.930 . S
H334 C347 0.930 . S
H335 C351 0.959 . S
H336 C351 0.959 . S
H337 C351 0.961 . S
H338 C352 0.960 . S
H339 C352 0.961 . S
H340 C352 0.959 . S
H341 C355 0.929 . S
H342 C356 0.931 . S
H343 C358 0.930 . S
C344 H332 0.930 . S
C344 C345 1.399 . S
C344 C349 1.399 . S
C345 C344 1.399 . S
C345 C346 1.376 . S
C346 H333 0.930 . S
C346 C345 1.376 . S
C346 C347 1.388 . S
C347 H334 0.930 . S
C347 C346 1.388 . S
C347 C348 1.390 . S
C348 C347 1.390 . S
C348 C349 1.394 . S
C348 C354 1.465 . S
C349 C344 1.399 . S
C349 C348 1.394 . S
C349 C350 1.516 . S
C350 C349 1.516 . S
C350 C351 1.502 . S
C350 C352 1.561 . S
C350 C353 1.526 . S
C351 H335 0.959 . S
C351 H336 0.959 . S
C351 H337 0.961 . S
C351 C350 1.502 . S
C352 H338 0.960 . S
C352 H339 0.961 . S
C352 H340 0.959 . S
C352 C350 1.561 . S
C353 C350 1.526 . S
C353 C354 1.396 . S
C353 C358 1.390 . S
C354 C348 1.465 . S
C354 C353 1.396 . S
C354 C355 1.399 . S
C355 H341 0.929 . S
C355 C354 1.399 . S
C355 C356 1.385 . S
C356 H342 0.931 . S
C356 C355 1.385 . S
C356 C357 1.389 . S
C357 C356 1.389 . S
C357 C358 1.387 . S
C358 H343 0.930 . S
C358 C353 1.390 . S
C358 C357 1.387 . S
H359 C371 0.930 . S
H360 C373 0.930 . S
H361 C374 0.930 . S
H362 C378 0.959 . S
H363 C378 0.959 . S
H364 C378 0.961 . S
H365 C379 0.960 . S
H366 C379 0.961 . S
H367 C379 0.959 . S
H368 C382 0.929 . S
H369 C383 0.931 . S
H370 C385 0.930 . S
C371 H359 0.930 . S
C371 C372 1.399 . S
C371 C376 1.399 . S
C372 C371 1.399 . S
C372 C373 1.376 . S
C373 H360 0.930 . S
C373 C372 1.376 . S
C373 C374 1.388 . S
C374 H361 0.930 . S
C374 C373 1.388 . S
C374 C375 1.390 . S
C375 C374 1.390 . S
C375 C376 1.394 . S
C375 C381 1.465 . S
C376 C371 1.399 . S
C376 C375 1.394 . S
C376 C377 1.516 . S
C377 C376 1.516 . S
C377 C378 1.502 . S
C377 C379 1.561 . S
C377 C380 1.526 . S
C378 H362 0.959 . S
C378 H363 0.959 . S
C378 H364 0.961 . S
C378 C377 1.502 . S
C379 H365 0.960 . S
C379 H366 0.961 . S
C379 H367 0.959 . S
C379 C377 1.561 . S
C380 C377 1.526 . S
C380 C381 1.396 . S
C380 C385 1.390 . S
C381 C375 1.465 . S
C381 C380 1.396 . S
C381 C382 1.399 . S
C382 H368 0.929 . S
C382 C381 1.399 . S
C382 C383 1.385 . S
C383 H369 0.931 . S
C383 C382 1.385 . S
C383 C384 1.389 . S
C384 C383 1.389 . S
C384 C385 1.387 . S
C385 H370 0.930 . S
C385 C380 1.390 . S
C385 C384 1.387 . S
H386 C398 0.930 . S
H387 C400 0.930 . S
H388 C401 0.930 . S
H389 C405 0.959 . S
H390 C405 0.959 . S
H391 C405 0.961 . S
H392 C406 0.960 . S
H393 C406 0.961 . S
H394 C406 0.959 . S
H395 C409 0.929 . S
H396 C410 0.931 . S
H397 C412 0.930 . S
C398 H386 0.930 . S
C398 C399 1.399 . S
C398 C403 1.399 . S
C399 C398 1.399 . S
C399 C400 1.376 . S
C400 H387 0.930 . S
C400 C399 1.376 . S
C400 C401 1.388 . S
C401 H388 0.930 . S
C401 C400 1.388 . S
C401 C402 1.390 . S
C402 C401 1.390 . S
C402 C403 1.394 . S
C402 C408 1.465 . S
C403 C398 1.399 . S
C403 C402 1.394 . S
C403 C404 1.516 . S
C404 C403 1.516 . S
C404 C405 1.502 . S
C404 C406 1.561 . S
C404 C407 1.526 . S
C405 H389 0.959 . S
C405 H390 0.959 . S
C405 H391 0.961 . S
C405 C404 1.502 . S
C406 H392 0.960 . S
C406 H393 0.961 . S
C406 H394 0.959 . S
C406 C404 1.561 . S
C407 C404 1.526 . S
C407 C408 1.396 . S
C407 C412 1.390 . S
C408 C402 1.465 . S
C408 C407 1.396 . S
C408 C409 1.399 . S
C409 H395 0.929 . S
C409 C408 1.399 . S
C409 C410 1.385 . S
C410 H396 0.931 . S
C410 C409 1.385 . S
C410 C411 1.389 . S
C411 C410 1.389 . S
C411 C412 1.387 . S
C412 H397 0.930 . S
C412 C407 1.390 . S
C412 C411 1.387 . S
H413 C425 0.930 . S
H414 C427 0.930 . S
H415 C428 0.930 . S
H416 C432 0.959 . S
H417 C432 0.959 . S
H418 C432 0.961 . S
H419 C433 0.960 . S
H420 C433 0.961 . S
H421 C433 0.959 . S
H422 C436 0.929 . S
H423 C437 0.931 . S
H424 C439 0.930 . S
C425 H413 0.930 . S
C425 C426 1.399 . S
C425 C430 1.399 . S
C426 C425 1.399 . S
C426 C427 1.376 . S
C427 H414 0.930 . S
C427 C426 1.376 . S
C427 C428 1.388 . S
C428 H415 0.930 . S
C428 C427 1.388 . S
C428 C429 1.390 . S
C429 C428 1.390 . S
C429 C430 1.394 . S
C429 C435 1.465 . S
C430 C425 1.399 . S
C430 C429 1.394 . S
C430 C431 1.516 . S
C431 C430 1.516 . S
C431 C432 1.502 . S
C431 C433 1.561 . S
C431 C434 1.526 . S
C432 H416 0.959 . S
C432 H417 0.959 . S
C432 H418 0.961 . S
C432 C431 1.502 . S
C433 H419 0.960 . S
C433 H420 0.961 . S
C433 H421 0.959 . S
C433 C431 1.561 . S
C434 C431 1.526 . S
C434 C435 1.396 . S
C434 C439 1.390 . S
C435 C429 1.465 . S
C435 C434 1.396 . S
C435 C436 1.399 . S
C436 H422 0.929 . S
C436 C435 1.399 . S
C436 C437 1.385 . S
C437 H423 0.931 . S
C437 C436 1.385 . S
C437 C438 1.389 . S
C438 C437 1.389 . S
C438 C439 1.387 . S
C439 H424 0.930 . S
C439 C434 1.390 . S
C439 C438 1.387 . S
H440 C452 0.930 . S
H441 C454 0.930 . S
H442 C455 0.930 . S
H443 C459 0.959 . S
H444 C459 0.959 . S
H445 C459 0.961 . S
H446 C460 0.960 . S
H447 C460 0.961 . S
H448 C460 0.959 . S
H449 C463 0.929 . S
H450 C464 0.931 . S
H451 C466 0.930 . S
C452 H440 0.930 . S
C452 C453 1.399 . S
C452 C457 1.399 . S
C453 C452 1.399 . S
C453 C454 1.376 . S
C454 H441 0.930 . S
C454 C453 1.376 . S
C454 C455 1.388 . S
C455 H442 0.930 . S
C455 C454 1.388 . S
C455 C456 1.390 . S
C456 C455 1.390 . S
C456 C457 1.394 . S
C456 C462 1.465 . S
C457 C452 1.399 . S
C457 C456 1.394 . S
C457 C458 1.516 . S
C458 C457 1.516 . S
C458 C459 1.502 . S
C458 C460 1.561 . S
C458 C461 1.526 . S
C459 H443 0.959 . S
C459 H444 0.959 . S
C459 H445 0.961 . S
C459 C458 1.502 . S
C460 H446 0.960 . S
C460 H447 0.961 . S
C460 H448 0.959 . S
C460 C458 1.561 . S
C461 C458 1.526 . S
C461 C462 1.396 . S
C461 C466 1.390 . S
C462 C456 1.465 . S
C462 C461 1.396 . S
C462 C463 1.399 . S
C463 H449 0.929 . S
C463 C462 1.399 . S
C463 C464 1.385 . S
C464 H450 0.931 . S
C464 C463 1.385 . S
C464 C465 1.389 . S
C465 C464 1.389 . S
C465 C466 1.387 . S
C466 H451 0.930 . S
C466 C461 1.390 . S
C466 C465 1.387 . S
H467 C479 0.930 . S
H468 C481 0.930 . S
H469 C482 0.930 . S
H470 C486 0.959 . S
H471 C486 0.959 . S
H472 C486 0.961 . S
H473 C487 0.960 . S
H474 C487 0.961 . S
H475 C487 0.959 . S
H476 C490 0.929 . S
H477 C491 0.931 . S
H478 C493 0.930 . S
C479 H467 0.930 . S
C479 C480 1.399 . S
C479 C484 1.399 . S
C480 C479 1.399 . S
C480 C481 1.376 . S
C481 H468 0.930 . S
C481 C480 1.376 . S
C481 C482 1.388 . S
C482 H469 0.930 . S
C482 C481 1.388 . S
C482 C483 1.390 . S
C483 C482 1.390 . S
C483 C484 1.394 . S
C483 C489 1.465 . S
C484 C479 1.399 . S
C484 C483 1.394 . S
C484 C485 1.516 . S
C485 C484 1.516 . S
C485 C486 1.502 . S
C485 C487 1.561 . S
C485 C488 1.526 . S
C486 H470 0.959 . S
C486 H471 0.959 . S
C486 H472 0.961 . S
C486 C485 1.502 . S
C487 H473 0.960 . S
C487 H474 0.961 . S
C487 H475 0.959 . S
C487 C485 1.561 . S
C488 C485 1.526 . S
C488 C489 1.396 . S
C488 C493 1.390 . S
C489 C483 1.465 . S
C489 C488 1.396 . S
C489 C490 1.399 . S
C490 H476 0.929 . S
C490 C489 1.399 . S
C490 C491 1.385 . S
C491 H477 0.931 . S
C491 C490 1.385 . S
C491 C492 1.389 . S
C492 C491 1.389 . S
C492 C493 1.387 . S
C493 H478 0.930 . S
C493 C488 1.390 . S
C493 C492 1.387 . S
H494 C506 0.930 . S
H495 C508 0.930 . S
H496 C509 0.930 . S
H497 C513 0.959 . S
H498 C513 0.959 . S
H499 C513 0.961 . S
H500 C514 0.960 . S
H501 C514 0.961 . S
H502 C514 0.959 . S
H503 C517 0.929 . S
H504 C518 0.931 . S
H505 C520 0.930 . S
C506 H494 0.930 . S
C506 C507 1.399 . S
C506 C511 1.399 . S
C507 C506 1.399 . S
C507 C508 1.376 . S
C508 H495 0.930 . S
C508 C507 1.376 . S
C508 C509 1.388 . S
C509 H496 0.930 . S
C509 C508 1.388 . S
C509 C510 1.390 . S
C510 C509 1.390 . S
C510 C511 1.394 . S
C510 C516 1.465 . S
C511 C506 1.399 . S
C511 C510 1.394 . S
C511 C512 1.516 . S
C512 C511 1.516 . S
C512 C513 1.502 . S
C512 C514 1.561 . S
C512 C515 1.526 . S
C513 H497 0.959 . S
C513 H498 0.959 . S
C513 H499 0.961 . S
C513 C512 1.502 . S
C514 H500 0.960 . S
C514 H501 0.961 . S
C514 H502 0.959 . S
C514 C512 1.561 . S
C515 C512 1.526 . S
C515 C516 1.396 . S
C515 C520 1.390 . S
C516 C510 1.465 . S
C516 C515 1.396 . S
C516 C517 1.399 . S
C517 H503 0.929 . S
C517 C516 1.399 . S
C517 C518 1.385 . S
C518 H504 0.931 . S
C518 C517 1.385 . S
C518 C519 1.389 . S
C519 C518 1.389 . S
C519 C520 1.387 . S
C520 H505 0.930 . S
C520 C515 1.390 . S
C520 C519 1.387 . S
H521 C533 0.930 . S
H522 C535 0.930 . S
H523 C536 0.930 . S
H524 C540 0.959 . S
H525 C540 0.959 . S
H526 C540 0.961 . S
H527 C541 0.960 . S
H528 C541 0.961 . S
H529 C541 0.959 . S
H530 C544 0.929 . S
H531 C545 0.931 . S
H532 C547 0.930 . S
C533 H521 0.930 . S
C533 C534 1.399 . S
C533 C538 1.399 . S
C534 C533 1.399 . S
C534 C535 1.376 . S
C535 H522 0.930 . S
C535 C534 1.376 . S
C535 C536 1.388 . S
C536 H523 0.930 . S
C536 C535 1.388 . S
C536 C537 1.390 . S
C537 C536 1.390 . S
C537 C538 1.394 . S
C537 C543 1.465 . S
C538 C533 1.399 . S
C538 C537 1.394 . S
C538 C539 1.516 . S
C539 C538 1.516 . S
C539 C540 1.502 . S
C539 C541 1.561 . S
C539 C542 1.526 . S
C540 H524 0.959 . S
C540 H525 0.959 . S
C540 H526 0.961 . S
C540 C539 1.502 . S
C541 H527 0.960 . S
C541 H528 0.961 . S
C541 H529 0.959 . S
C541 C539 1.561 . S
C542 C539 1.526 . S
C542 C543 1.396 . S
C542 C547 1.390 . S
C543 C537 1.465 . S
C543 C542 1.396 . S
C543 C544 1.399 . S
C544 H530 0.929 . S
C544 C543 1.399 . S
C544 C545 1.385 . S
C545 H531 0.931 . S
C545 C544 1.385 . S
C545 C546 1.389 . S
C546 C545 1.389 . S
C546 C547 1.387 . S
C547 H532 0.930 . S
C547 C542 1.390 . S
C547 C546 1.387 . S
H548 C560 0.930 . S
H549 C562 0.930 . S
H550 C563 0.930 . S
H551 C567 0.959 . S
H552 C567 0.959 . S
H553 C567 0.961 . S
H554 C568 0.960 . S
H555 C568 0.961 . S
H556 C568 0.959 . S
H557 C571 0.929 . S
H558 C572 0.931 . S
H559 C574 0.930 . S
C560 H548 0.930 . S
C560 C561 1.399 . S
C560 C565 1.399 . S
C561 C560 1.399 . S
C561 C562 1.376 . S
C562 H549 0.930 . S
C562 C561 1.376 . S
C562 C563 1.388 . S
C563 H550 0.930 . S
C563 C562 1.388 . S
C563 C564 1.390 . S
C564 C563 1.390 . S
C564 C565 1.394 . S
C564 C570 1.465 . S
C565 C560 1.399 . S
C565 C564 1.394 . S
C565 C566 1.516 . S
C566 C565 1.516 . S
C566 C567 1.502 . S
C566 C568 1.561 . S
C566 C569 1.526 . S
C567 H551 0.959 . S
C567 H552 0.959 . S
C567 H553 0.961 . S
C567 C566 1.502 . S
C568 H554 0.960 . S
C568 H555 0.961 . S
C568 H556 0.959 . S
C568 C566 1.561 . S
C569 C566 1.526 . S
C569 C570 1.396 . S
C569 C574 1.390 . S
C570 C564 1.465 . S
C570 C569 1.396 . S
C570 C571 1.399 . S
C571 H557 0.929 . S
C571 C570 1.399 . S
C571 C572 1.385 . S
C572 H558 0.931 . S
C572 C571 1.385 . S
C572 C573 1.389 . S
C573 C572 1.389 . S
C573 C574 1.387 . S
C574 H559 0.930 . S
C574 C569 1.390 . S
C574 C573 1.387 . S
H575 C587 0.930 . S
H576 C589 0.930 . S
H577 C590 0.930 . S
H578 C594 0.959 . S
H579 C594 0.959 . S
H580 C594 0.961 . S
H581 C595 0.960 . S
H582 C595 0.961 . S
H583 C595 0.959 . S
H584 C598 0.929 . S
H585 C599 0.931 . S
H586 C601 0.930 . S
C587 H575 0.930 . S
C587 C588 1.399 . S
C587 C592 1.399 . S
C588 C587 1.399 . S
C588 C589 1.376 . S
C589 H576 0.930 . S
C589 C588 1.376 . S
C589 C590 1.388 . S
C590 H577 0.930 . S
C590 C589 1.388 . S
C590 C591 1.390 . S
C591 C590 1.390 . S
C591 C592 1.394 . S
C591 C597 1.465 . S
C592 C587 1.399 . S
C592 C591 1.394 . S
C592 C593 1.516 . S
C593 C592 1.516 . S
C593 C594 1.502 . S
C593 C595 1.561 . S
C593 C596 1.526 . S
C594 H578 0.959 . S
C594 H579 0.959 . S
C594 H580 0.961 . S
C594 C593 1.502 . S
C595 H581 0.960 . S
C595 H582 0.961 . S
C595 H583 0.959 . S
C595 C593 1.561 . S
C596 C593 1.526 . S
C596 C597 1.396 . S
C596 C601 1.390 . S
C597 C591 1.465 . S
C597 C596 1.396 . S
C597 C598 1.399 . S
C598 H584 0.929 . S
C598 C597 1.399 . S
C598 C599 1.385 . S
C599 H585 0.931 . S
C599 C598 1.385 . S
C599 C600 1.389 . S
C600 C599 1.389 . S
C600 C601 1.387 . S
C601 H586 0.930 . S
C601 C596 1.390 . S
C601 C600 1.387 . S
H602 C614 0.930 . S
H603 C616 0.930 . S
H604 C617 0.930 . S
H605 C621 0.959 . S
H606 C621 0.959 . S
H607 C621 0.961 . S
H608 C622 0.960 . S
H609 C622 0.961 . S
H610 C622 0.959 . S
H611 C625 0.929 . S
H612 C626 0.931 . S
H613 C628 0.930 . S
C614 H602 0.930 . S
C614 C615 1.399 . S
C614 C619 1.399 . S
C615 C614 1.399 . S
C615 C616 1.376 . S
C616 H603 0.930 . S
C616 C615 1.376 . S
C616 C617 1.388 . S
C617 H604 0.930 . S
C617 C616 1.388 . S
C617 C618 1.390 . S
C618 C617 1.390 . S
C618 C619 1.394 . S
C618 C624 1.465 . S
C619 C614 1.399 . S
C619 C618 1.394 . S
C619 C620 1.516 . S
C620 C619 1.516 . S
C620 C621 1.502 . S
C620 C622 1.561 . S
C620 C623 1.526 . S
C621 H605 0.959 . S
C621 H606 0.959 . S
C621 H607 0.961 . S
C621 C620 1.502 . S
C622 H608 0.960 . S
C622 H609 0.961 . S
C622 H610 0.959 . S
C622 C620 1.561 . S
C623 C620 1.526 . S
C623 C624 1.396 . S
C623 C628 1.390 . S
C624 C618 1.465 . S
C624 C623 1.396 . S
C624 C625 1.399 . S
C625 H611 0.929 . S
C625 C624 1.399 . S
C625 C626 1.385 . S
C626 H612 0.931 . S
C626 C625 1.385 . S
C626 C627 1.389 . S
C627 C626 1.389 . S
C627 C628 1.387 . S
C628 H613 0.930 . S
C628 C623 1.390 . S
C628 C627 1.387 . S
H629 C641 0.930 . S
H630 C643 0.930 . S
H631 C644 0.930 . S
H632 C648 0.959 . S
H633 C648 0.959 . S
H634 C648 0.961 . S
H635 C649 0.960 . S
H636 C649 0.961 . S
H637 C649 0.959 . S
H638 C652 0.929 . S
H639 C653 0.931 . S
H640 C655 0.930 . S
C641 H629 0.930 . S
C641 C642 1.399 . S
C641 C646 1.399 . S
C642 C641 1.399 . S
C642 C643 1.376 . S
C643 H630 0.930 . S
C643 C642 1.376 . S
C643 C644 1.388 . S
C644 H631 0.930 . S
C644 C643 1.388 . S
C644 C645 1.390 . S
C645 C644 1.390 . S
C645 C646 1.394 . S
C645 C651 1.465 . S
C646 C641 1.399 . S
C646 C645 1.394 . S
C646 C647 1.516 . S
C647 C646 1.516 . S
C647 C648 1.502 . S
C647 C649 1.561 . S
C647 C650 1.526 . S
C648 H632 0.959 . S
C648 H633 0.959 . S
C648 H634 0.961 . S
C648 C647 1.502 . S
C649 H635 0.960 . S
C649 H636 0.961 . S
C649 H637 0.959 . S
C649 C647 1.561 . S
C650 C647 1.526 . S
C650 C651 1.396 . S
C650 C655 1.390 . S
C651 C645 1.465 . S
C651 C650 1.396 . S
C651 C652 1.399 . S
C652 H638 0.929 . S
C652 C651 1.399 . S
C652 C653 1.385 . S
C653 H639 0.931 . S
C653 C652 1.385 . S
C653 C654 1.389 . S
C654 C653 1.389 . S
C654 C655 1.387 . S
C655 H640 0.930 . S
C655 C650 1.390 . S
C655 C654 1.387 . S
H656 C668 0.930 . S
H657 C670 0.930 . S
H658 C671 0.930 . S
H659 C675 0.959 . S
H660 C675 0.959 . S
H661 C675 0.961 . S
H662 C676 0.960 . S
H663 C676 0.961 . S
H664 C676 0.959 . S
H665 C679 0.929 . S
H666 C680 0.931 . S
H667 C682 0.930 . S
C668 H656 0.930 . S
C668 C669 1.399 . S
C668 C673 1.399 . S
C669 C668 1.399 . S
C669 C670 1.376 . S
C670 H657 0.930 . S
C670 C669 1.376 . S
C670 C671 1.388 . S
C671 H658 0.930 . S
C671 C670 1.388 . S
C671 C672 1.390 . S
C672 C671 1.390 . S
C672 C673 1.394 . S
C672 C678 1.465 . S
C673 C668 1.399 . S
C673 C672 1.394 . S
C673 C674 1.516 . S
C674 C673 1.516 . S
C674 C675 1.502 . S
C674 C676 1.561 . S
C674 C677 1.526 . S
C675 H659 0.959 . S
C675 H660 0.959 . S
C675 H661 0.961 . S
C675 C674 1.502 . S
C676 H662 0.960 . S
C676 H663 0.961 . S
C676 H664 0.959 . S
C676 C674 1.561 . S
C677 C674 1.526 . S
C677 C678 1.396 . S
C677 C682 1.390 . S
C678 C672 1.465 . S
C678 C677 1.396 . S
C678 C679 1.399 . S
C679 H665 0.929 . S
C679 C678 1.399 . S
C679 C680 1.385 . S
C680 H666 0.931 . S
C680 C679 1.385 . S
C680 C681 1.389 . S
C681 C680 1.389 . S
C681 C682 1.387 . S
C682 H667 0.930 . S
C682 C677 1.390 . S
C682 C681 1.387 . S
H683 C695 0.930 . S
H684 C697 0.930 . S
H685 C698 0.930 . S
H686 C702 0.959 . S
H687 C702 0.959 . S
H688 C702 0.961 . S
H689 C703 0.960 . S
H690 C703 0.961 . S
H691 C703 0.959 . S
H692 C706 0.929 . S
H693 C707 0.931 . S
H694 C709 0.930 . S
C695 H683 0.930 . S
C695 C696 1.399 . S
C695 C700 1.399 . S
C696 C695 1.399 . S
C696 C697 1.376 . S
C697 H684 0.930 . S
C697 C696 1.376 . S
C697 C698 1.388 . S
C698 H685 0.930 . S
C698 C697 1.388 . S
C698 C699 1.390 . S
C699 C698 1.390 . S
C699 C700 1.394 . S
C699 C705 1.465 . S
C700 C695 1.399 . S
C700 C699 1.394 . S
C700 C701 1.516 . S
C701 C700 1.516 . S
C701 C702 1.502 . S
C701 C703 1.561 . S
C701 C704 1.526 . S
C702 H686 0.959 . S
C702 H687 0.959 . S
C702 H688 0.961 . S
C702 C701 1.502 . S
C703 H689 0.960 . S
C703 H690 0.961 . S
C703 H691 0.959 . S
C703 C701 1.561 . S
C704 C701 1.526 . S
C704 C705 1.396 . S
C704 C709 1.390 . S
C705 C699 1.465 . S
C705 C704 1.396 . S
C705 C706 1.399 . S
C706 H692 0.929 . S
C706 C705 1.399 . S
C706 C707 1.385 . S
C707 H693 0.931 . S
C707 C706 1.385 . S
C707 C708 1.389 . S
C708 C707 1.389 . S
C708 C709 1.387 . S
C709 H694 0.930 . S
C709 C704 1.390 . S
C709 C708 1.387 . S
H710 C722 0.930 . S
H711 C724 0.930 . S
H712 C725 0.930 . S
H713 C729 0.959 . S
H714 C729 0.959 . S
H715 C729 0.961 . S
H716 C730 0.960 . S
H717 C730 0.961 . S
H718 C730 0.959 . S
H719 C733 0.929 . S
H720 C734 0.931 . S
H721 C736 0.930 . S
C722 H710 0.930 . S
C722 C723 1.399 . S
C722 C727 1.399 . S
C723 C722 1.399 . S
C723 C724 1.376 . S
C724 H711 0.930 . S
C724 C723 1.376 . S
C724 C725 1.388 . S
C725 H712 0.930 . S
C725 C724 1.388 . S
C725 C726 1.390 . S
C726 C725 1.390 . S
C726 C727 1.394 . S
C726 C732 1.465 . S
C727 C722 1.399 . S
C727 C726 1.394 . S
C727 C728 1.516 . S
C728 C727 1.516 . S
C728 C729 1.502 . S
C728 C730 1.561 . S
C728 C731 1.526 . S
C729 H713 0.959 . S
C729 H714 0.959 . S
C729 H715 0.961 . S
C729 C728 1.502 . S
C730 H716 0.960 . S
C730 H717 0.961 . S
C730 H718 0.959 . S
C730 C728 1.561 . S
C731 C728 1.526 . S
C731 C732 1.396 . S
C731 C736 1.390 . S
C732 C726 1.465 . S
C732 C731 1.396 . S
C732 C733 1.399 . S
C733 H719 0.929 . S
C733 C732 1.399 . S
C733 C734 1.385 . S
C734 H720 0.931 . S
C734 C733 1.385 . S
C734 C735 1.389 . S
C735 C734 1.389 . S
C735 C736 1.387 . S
C736 H721 0.930 . S
C736 C731 1.390 . S
C736 C735 1.387 . S
H737 C749 0.930 . S
H738 C751 0.930 . S
H739 C752 0.930 . S
H740 C756 0.959 . S
H741 C756 0.959 . S
H742 C756 0.961 . S
H743 C757 0.960 . S
H744 C757 0.961 . S
H745 C757 0.959 . S
H746 C760 0.929 . S
H747 C761 0.931 . S
H748 C763 0.930 . S
C749 H737 0.930 . S
C749 C750 1.399 . S
C749 C754 1.399 . S
C750 C749 1.399 . S
C750 C751 1.376 . S
C751 H738 0.930 . S
C751 C750 1.376 . S
C751 C752 1.388 . S
C752 H739 0.930 . S
C752 C751 1.388 . S
C752 C753 1.390 . S
C753 C752 1.390 . S
C753 C754 1.394 . S
C753 C759 1.465 . S
C754 C749 1.399 . S
C754 C753 1.394 . S
C754 C755 1.516 . S
C755 C754 1.516 . S
C755 C756 1.502 . S
C755 C757 1.561 . S
C755 C758 1.526 . S
C756 H740 0.959 . S
C756 H741 0.959 . S
C756 H742 0.961 . S
C756 C755 1.502 . S
C757 H743 0.960 . S
C757 H744 0.961 . S
C757 H745 0.959 . S
C757 C755 1.561 . S
C758 C755 1.526 . S
C758 C759 1.396 . S
C758 C763 1.390 . S
C759 C753 1.465 . S
C759 C758 1.396 . S
C759 C760 1.399 . S
C760 H746 0.929 . S
C760 C759 1.399 . S
C760 C761 1.385 . S
C761 H747 0.931 . S
C761 C760 1.385 . S
C761 C762 1.389 . S
C762 C761 1.389 . S
C762 C763 1.387 . S
C763 H748 0.930 . S
C763 C758 1.390 . S
C763 C762 1.387 . S
H764 C776 0.930 . S
H765 C778 0.930 . S
H766 C779 0.930 . S
H767 C783 0.959 . S
H768 C783 0.959 . S
H769 C783 0.961 . S
H770 C784 0.960 . S
H771 C784 0.961 . S
H772 C784 0.959 . S
H773 C787 0.929 . S
H774 C788 0.931 . S
H775 C790 0.930 . S
C776 H764 0.930 . S
C776 C777 1.399 . S
C776 C781 1.399 . S
C777 C776 1.399 . S
C777 C778 1.376 . S
C778 H765 0.930 . S
C778 C777 1.376 . S
C778 C779 1.388 . S
C779 H766 0.930 . S
C779 C778 1.388 . S
C779 C780 1.390 . S
C780 C779 1.390 . S
C780 C781 1.394 . S
C780 C786 1.465 . S
C781 C776 1.399 . S
C781 C780 1.394 . S
C781 C782 1.516 . S
C782 C781 1.516 . S
C782 C783 1.502 . S
C782 C784 1.561 . S
C782 C785 1.526 . S
C783 H767 0.959 . S
C783 H768 0.959 . S
C783 H769 0.961 . S
C783 C782 1.502 . S
C784 H770 0.960 . S
C784 H771 0.961 . S
C784 H772 0.959 . S
C784 C782 1.561 . S
C785 C782 1.526 . S
C785 C786 1.396 . S
C785 C790 1.390 . S
C786 C780 1.465 . S
C786 C785 1.396 . S
C786 C787 1.399 . S
C787 H773 0.929 . S
C787 C786 1.399 . S
C787 C788 1.385 . S
C788 H774 0.931 . S
C788 C787 1.385 . S
C788 C789 1.389 . S
C789 C788 1.389 . S
C789 C790 1.387 . S
C790 H775 0.930 . S
C790 C785 1.390 . S
C790 C789 1.387 . S
H791 C803 0.930 . S
H792 C805 0.930 . S
H793 C806 0.930 . S
H794 C810 0.959 . S
H795 C810 0.959 . S
H796 C810 0.961 . S
H797 C811 0.960 . S
H798 C811 0.961 . S
H799 C811 0.959 . S
H800 C814 0.929 . S
H801 C815 0.931 . S
H802 C817 0.930 . S
C803 H791 0.930 . S
C803 C804 1.399 . S
C803 C808 1.399 . S
C804 C803 1.399 . S
C804 C805 1.376 . S
C805 H792 0.930 . S
C805 C804 1.376 . S
C805 C806 1.388 . S
C806 H793 0.930 . S
C806 C805 1.388 . S
C806 C807 1.390 . S
C807 C806 1.390 . S
C807 C808 1.394 . S
C807 C813 1.465 . S
C808 C803 1.399 . S
C808 C807 1.394 . S
C808 C809 1.516 . S
C809 C808 1.516 . S
C809 C810 1.502 . S
C809 C811 1.561 . S
C809 C812 1.526 . S
C810 H794 0.959 . S
C810 H795 0.959 . S
C810 H796 0.961 . S
C810 C809 1.502 . S
C811 H797 0.960 . S
C811 H798 0.961 . S
C811 H799 0.959 . S
C811 C809 1.561 . S
C812 C809 1.526 . S
C812 C813 1.396 . S
C812 C817 1.390 . S
C813 C807 1.465 . S
C813 C812 1.396 . S
C813 C814 1.399 . S
C814 H800 0.929 . S
C814 C813 1.399 . S
C814 C815 1.385 . S
C815 H801 0.931 . S
C815 C814 1.385 . S
C815 C816 1.389 . S
C816 C815 1.389 . S
C816 C817 1.387 . S
C817 H802 0.930 . S
C817 C812 1.390 . S
C817 C816 1.387 . S
H818 C830 0.930 . S
H819 C832 0.930 . S
H820 C833 0.930 . S
H821 C837 0.959 . S
H822 C837 0.959 . S
H823 C837 0.961 . S
H824 C838 0.960 . S
H825 C838 0.961 . S
H826 C838 0.959 . S
H827 C841 0.929 . S
H828 C842 0.931 . S
H829 C844 0.930 . S
C830 H818 0.930 . S
C830 C831 1.399 . S
C830 C835 1.399 . S
C831 C830 1.399 . S
C831 C832 1.376 . S
C832 H819 0.930 . S
C832 C831 1.376 . S
C832 C833 1.388 . S
C833 H820 0.930 . S
C833 C832 1.388 . S
C833 C834 1.390 . S
C834 C833 1.390 . S
C834 C835 1.394 . S
C834 C840 1.465 . S
C835 C830 1.399 . S
C835 C834 1.394 . S
C835 C836 1.516 . S
C836 C835 1.516 . S
C836 C837 1.502 . S
C836 C838 1.561 . S
C836 C839 1.526 . S
C837 H821 0.959 . S
C837 H822 0.959 . S
C837 H823 0.961 . S
C837 C836 1.502 . S
C838 H824 0.960 . S
C838 H825 0.961 . S
C838 H826 0.959 . S
C838 C836 1.561 . S
C839 C836 1.526 . S
C839 C840 1.396 . S
C839 C844 1.390 . S
C840 C834 1.465 . S
C840 C839 1.396 . S
C840 C841 1.399 . S
C841 H827 0.929 . S
C841 C840 1.399 . S
C841 C842 1.385 . S
C842 H828 0.931 . S
C842 C841 1.385 . S
C842 C843 1.389 . S
C843 C842 1.389 . S
C843 C844 1.387 . S
C844 H829 0.930 . S
C844 C839 1.390 . S
C844 C843 1.387 . S
H845 C857 0.930 . S
H846 C859 0.930 . S
H847 C860 0.930 . S
H848 C864 0.959 . S
H849 C864 0.959 . S
H850 C864 0.961 . S
H851 C865 0.960 . S
H852 C865 0.961 . S
H853 C865 0.959 . S
H854 C868 0.929 . S
H855 C869 0.931 . S
H856 C871 0.930 . S
C857 H845 0.930 . S
C857 C858 1.399 . S
C857 C862 1.399 . S
C858 C857 1.399 . S
C858 C859 1.376 . S
C859 H846 0.930 . S
C859 C858 1.376 . S
C859 C860 1.388 . S
C860 H847 0.930 . S
C860 C859 1.388 . S
C860 C861 1.390 . S
C861 C860 1.390 . S
C861 C862 1.394 . S
C861 C867 1.465 . S
C862 C857 1.399 . S
C862 C861 1.394 . S
C862 C863 1.516 . S
C863 C862 1.516 . S
C863 C864 1.502 . S
C863 C865 1.561 . S
C863 C866 1.526 . S
C864 H848 0.959 . S
C864 H849 0.959 . S
C864 H850 0.961 . S
C864 C863 1.502 . S
C865 H851 0.960 . S
C865 H852 0.961 . S
C865 H853 0.959 . S
C865 C863 1.561 . S
C866 C863 1.526 . S
C866 C867 1.396 . S
C866 C871 1.390 . S
C867 C861 1.465 . S
C867 C866 1.396 . S
C867 C868 1.399 . S
C868 H854 0.929 . S
C868 C867 1.399 . S
C868 C869 1.385 . S
C869 H855 0.931 . S
C869 C868 1.385 . S
C869 C870 1.389 . S
C870 C869 1.389 . S
C870 C871 1.387 . S
C871 H856 0.930 . S
C871 C866 1.390 . S
C871 C870 1.387 . S
H872 C884 0.930 . S
H873 C886 0.930 . S
H874 C887 0.930 . S
H875 C891 0.959 . S
H876 C891 0.959 . S
H877 C891 0.961 1_554 S
H878 C892 0.960 1_554 S
H879 C892 0.961 . S
H880 C892 0.959 . S
H881 C895 0.929 . S
H882 C896 0.931 . S
H883 C898 0.930 . S
C884 H872 0.930 . S
C884 C885 1.399 . S
C884 C889 1.399 . S
C885 C884 1.399 . S
C885 C886 1.376 . S
C886 H873 0.930 . S
C886 C885 1.376 . S
C886 C887 1.388 . S
C887 H874 0.930 . S
C887 C886 1.388 . S
C887 C888 1.390 . S
C888 C887 1.390 . S
C888 C889 1.394 . S
C888 C894 1.465 1_554 S
C889 C884 1.399 . S
C889 C888 1.394 . S
C889 C890 1.516 1_554 S
C890 C889 1.516 1_556 S
C890 C891 1.502 . S
C890 C892 1.561 . S
C890 C893 1.526 . S
C891 H875 0.959 . S
C891 H876 0.959 . S
C891 H877 0.961 1_556 S
C891 C890 1.502 . S
C892 H878 0.960 1_556 S
C892 H879 0.961 . S
C892 H880 0.959 . S
C892 C890 1.561 . S
C893 C890 1.526 . S
C893 C894 1.396 . S
C893 C898 1.390 . S
C894 C888 1.465 1_556 S
C894 C893 1.396 . S
C894 C895 1.399 . S
C895 H881 0.929 . S
C895 C894 1.399 . S
C895 C896 1.385 . S
C896 H882 0.931 . S
C896 C895 1.385 . S
C896 C897 1.389 . S
C897 C896 1.389 . S
C897 C898 1.387 . S
C898 H883 0.930 . S
C898 C893 1.390 . S
C898 C897 1.387 . S
H899 C911 0.930 . S
H900 C913 0.930 . S
H901 C914 0.930 . S
H902 C918 0.959 . S
H903 C918 0.959 . S
H904 C918 0.961 . S
H905 C919 0.960 . S
H906 C919 0.961 . S
H907 C919 0.959 . S
H908 C922 0.929 . S
H909 C923 0.931 . S
H910 C925 0.930 . S
C911 H899 0.930 . S
C911 C912 1.399 . S
C911 C916 1.399 . S
C912 C911 1.399 . S
C912 C913 1.376 . S
C913 H900 0.930 . S
C913 C912 1.376 . S
C913 C914 1.388 . S
C914 H901 0.930 . S
C914 C913 1.388 . S
C914 C915 1.390 . S
C915 C914 1.390 . S
C915 C916 1.394 . S
C915 C921 1.465 . S
C916 C911 1.399 . S
C916 C915 1.394 . S
C916 C917 1.516 . S
C917 C916 1.516 . S
C917 C918 1.502 . S
C917 C919 1.561 . S
C917 C920 1.526 . S
C918 H902 0.959 . S
C918 H903 0.959 . S
C918 H904 0.961 . S
C918 C917 1.502 . S
C919 H905 0.960 . S
C919 H906 0.961 . S
C919 H907 0.959 . S
C919 C917 1.561 . S
C920 C917 1.526 . S
C920 C921 1.396 . S
C920 C925 1.390 . S
C921 C915 1.465 . S
C921 C920 1.396 . S
C921 C922 1.399 . S
C922 H908 0.929 . S
C922 C921 1.399 . S
C922 C923 1.385 . S
C923 H909 0.931 . S
C923 C922 1.385 . S
C923 C924 1.389 . S
C924 C923 1.389 . S
C924 C925 1.387 . S
C925 H910 0.930 . S
C925 C920 1.390 . S
C925 C924 1.387 . S
H926 C938 0.930 . S
H927 C940 0.930 . S
H928 C941 0.930 . S
H929 C945 0.959 . S
H930 C945 0.959 . S
H931 C945 0.961 1_554 S
H932 C946 0.960 1_554 S
H933 C946 0.957 1_655 S
H934 C946 0.959 . S
H935 C949 0.929 . S
H936 C950 0.931 . S
H937 C952 0.930 . S
C938 H926 0.930 . S
C938 C939 1.399 . S
C938 C943 1.399 . S
C939 C938 1.399 . S
C939 C940 1.376 1_655 S
C940 H927 0.930 . S
C940 C939 1.376 1_455 S
C940 C941 1.388 . S
C941 H928 0.930 . S
C941 C940 1.388 . S
C941 C942 1.390 1_455 S
C942 C941 1.390 1_655 S
C942 C943 1.394 . S
C942 C948 1.465 1_554 S
C943 C938 1.399 . S
C943 C942 1.394 . S
C943 C944 1.516 1_554 S
C944 C943 1.516 1_556 S
C944 C945 1.502 . S
C944 C946 1.561 1_655 S
C944 C947 1.526 . S
C945 H929 0.959 . S
C945 H930 0.959 . S
C945 H931 0.961 1_556 S
C945 C944 1.502 . S
C946 H932 0.960 1_556 S
C946 H933 0.957 1_455 S
C946 H934 0.959 . S
C946 C944 1.561 1_455 S
C947 C944 1.526 . S
C947 C948 1.396 . S
C947 C952 1.390 . S
C948 C942 1.465 1_556 S
C948 C947 1.396 . S
C948 C949 1.399 1_655 S
C949 H935 0.929 . S
C949 C948 1.399 1_455 S
C949 C950 1.385 . S
C950 H936 0.931 . S
C950 C949 1.385 . S
C950 C951 1.389 1_455 S
C951 C950 1.389 1_655 S
C951 C952 1.387 . S
C952 H937 0.930 . S
C952 C947 1.390 . S
C952 C951 1.387 . S
H953 C965 0.930 . S
H954 C967 0.930 . S
H955 C968 0.930 . S
H956 C972 0.959 . S
H957 C972 0.959 . S
H958 C972 0.961 . S
H959 C973 0.960 . S
H960 C973 0.961 . S
H961 C973 0.959 . S
H962 C976 0.929 . S
H963 C977 0.931 . S
H964 C979 0.930 . S
C965 H953 0.930 . S
C965 C966 1.399 1_545 S
C965 C970 1.399 . S
C966 C965 1.399 1_565 S
C966 C967 1.376 . S
C967 H954 0.930 . S
C967 C966 1.376 . S
C967 C968 1.388 . S
C968 H955 0.930 . S
C968 C967 1.388 . S
C968 C969 1.390 . S
C969 C968 1.390 . S
C969 C970 1.394 1_565 S
C969 C975 1.465 . S
C970 C965 1.399 . S
C970 C969 1.394 1_545 S
C970 C971 1.516 . S
C971 C970 1.516 . S
C971 C972 1.502 . S
C971 C973 1.561 . S
C971 C974 1.526 . S
C972 H956 0.959 . S
C972 H957 0.959 . S
C972 H958 0.961 . S
C972 C971 1.502 . S
C973 H959 0.960 . S
C973 H960 0.961 . S
C973 H961 0.959 . S
C973 C971 1.561 . S
C974 C971 1.526 . S
C974 C975 1.396 1_545 S
C974 C979 1.390 . S
C975 C969 1.465 . S
C975 C974 1.396 1_565 S
C975 C976 1.399 . S
C976 H962 0.929 . S
C976 C975 1.399 . S
C976 C977 1.385 . S
C977 H963 0.931 . S
C977 C976 1.385 . S
C977 C978 1.389 . S
C978 C977 1.389 . S
C978 C979 1.387 1_565 S
C979 H964 0.930 . S
C979 C974 1.390 . S
C979 C978 1.387 1_545 S
H980 C992 0.930 . S
H981 C994 0.930 . S
H982 C995 0.930 . S
H983 C999 0.959 1_554 S
H984 C999 0.959 1_554 S
H985 C999 0.961 . S
H986 C1000 0.960 . S
H987 C1000 0.961 1_554 S
H988 C1000 0.959 . S
H989 C1003 0.929 . S
H990 C1004 0.931 . S
H991 C1006 0.930 . S
C992 H980 0.930 . S
C992 C993 1.399 . S
C992 C997 1.399 . S
C993 C992 1.399 . S
C993 C994 1.376 . S
C994 H981 0.930 . S
C994 C993 1.376 . S
C994 C995 1.388 . S
C995 H982 0.930 . S
C995 C994 1.388 . S
C995 C996 1.390 . S
C996 C995 1.390 . S
C996 C997 1.394 . S
C996 C1002 1.465 1_556 S
C997 C992 1.399 . S
C997 C996 1.394 . S
C997 C998 1.516 . S
C998 C997 1.516 . S
C998 C999 1.502 . S
C998 C1000 1.561 . S
C998 C1001 1.526 1_556 S
C999 H983 0.959 1_556 S
C999 H984 0.959 1_556 S
C999 H985 0.961 . S
C999 C998 1.502 . S
C1000 H986 0.960 . S
C1000 H987 0.961 1_556 S
C1000 H988 0.959 . S
C1000 C998 1.561 . S
C1001 C998 1.526 1_554 S
C1001 C1002 1.396 . S
C1001 C1006 1.390 . S
C1002 C996 1.465 1_554 S
C1002 C1001 1.396 . S
C1002 C1003 1.399 . S
C1003 H989 0.929 . S
C1003 C1002 1.399 . S
C1003 C1004 1.385 . S
C1004 H990 0.931 . S
C1004 C1003 1.385 . S
C1004 C1005 1.389 . S
C1005 C1004 1.389 . S
C1005 C1006 1.387 . S
C1006 H991 0.930 . S
C1006 C1001 1.390 . S
C1006 C1005 1.387 . S
H1007 C1019 0.930 . S
H1008 C1021 0.930 . S
H1009 C1022 0.930 . S
H1010 C1026 0.959 . S
H1011 C1026 0.959 . S
H1012 C1026 0.961 . S
H1013 C1027 0.960 . S
H1014 C1027 0.961 . S
H1015 C1027 0.959 . S
H1016 C1030 0.929 . S
H1017 C1031 0.931 . S
H1018 C1033 0.930 . S
C1019 H1007 0.930 . S
C1019 C1020 1.399 . S
C1019 C1024 1.399 . S
C1020 C1019 1.399 . S
C1020 C1021 1.376 . S
C1021 H1008 0.930 . S
C1021 C1020 1.376 . S
C1021 C1022 1.388 . S
C1022 H1009 0.930 . S
C1022 C1021 1.388 . S
C1022 C1023 1.390 . S
C1023 C1022 1.390 . S
C1023 C1024 1.394 . S
C1023 C1029 1.465 . S
C1024 C1019 1.399 . S
C1024 C1023 1.394 . S
C1024 C1025 1.516 . S
C1025 C1024 1.516 . S
C1025 C1026 1.502 . S
C1025 C1027 1.561 . S
C1025 C1028 1.526 . S
C1026 H1010 0.959 . S
C1026 H1011 0.959 . S
C1026 H1012 0.961 . S
C1026 C1025 1.502 . S
C1027 H1013 0.960 . S
C1027 H1014 0.961 . S
C1027 H1015 0.959 . S
C1027 C1025 1.561 . S
C1028 C1025 1.526 . S
C1028 C1029 1.396 . S
C1028 C1033 1.390 . S
C1029 C1023 1.465 . S
C1029 C1028 1.396 . S
C1029 C1030 1.399 . S
C1030 H1016 0.929 . S
C1030 C1029 1.399 . S
C1030 C1031 1.385 . S
C1031 H1017 0.931 . S
C1031 C1030 1.385 . S
C1031 C1032 1.389 . S
C1032 C1031 1.389 . S
C1032 C1033 1.387 . S
C1033 H1018 0.930 . S
C1033 C1028 1.390 . S
C1033 C1032 1.387 . S
H1034 C1046 0.940 . S
H1035 C1048 0.930 . S
H1036 C1049 0.930 . S
H1037 C1053 0.959 . S
H1038 C1053 0.959 . S
H1039 C1053 0.961 1_554 S
H1040 C1054 0.960 1_554 S
H1041 C1054 0.961 . S
H1042 C1054 0.959 . S
H1043 C1057 0.929 . S
H1044 C1058 0.931 . S
H1045 C1060 0.930 . S
C1046 H1034 0.940 . S
C1046 C1047 1.399 . S
C1046 C1051 1.399 . S
C1047 C1046 1.399 . S
C1047 C1048 1.376 . S
C1048 H1035 0.930 . S
C1048 C1047 1.376 . S
C1048 C1049 1.388 . S
C1049 H1036 0.930 . S
C1049 C1048 1.388 . S
C1049 C1050 1.390 . S
C1050 C1049 1.390 . S
C1050 C1051 1.394 . S
C1050 C1056 1.465 1_554 S
C1051 C1046 1.399 . S
C1051 C1050 1.394 . S
C1051 C1052 1.516 1_554 S
C1052 C1051 1.516 1_556 S
C1052 C1053 1.502 1_455 S
C1052 C1054 1.561 . S
C1052 C1055 1.526 . S
C1053 H1037 0.959 . S
C1053 H1038 0.959 . S
C1053 H1039 0.961 1_556 S
C1053 C1052 1.502 1_655 S
C1054 H1040 0.960 1_556 S
C1054 H1041 0.961 . S
C1054 H1042 0.959 . S
C1054 C1052 1.561 . S
C1055 C1052 1.526 . S
C1055 C1056 1.396 . S
C1055 C1060 1.390 . S
C1056 C1050 1.465 1_556 S
C1056 C1055 1.396 . S
C1056 C1057 1.399 . S
C1057 H1043 0.929 . S
C1057 C1056 1.399 . S
C1057 C1058 1.385 . S
C1058 H1044 0.931 . S
C1058 C1057 1.385 . S
C1058 C1059 1.389 . S
C1059 C1058 1.389 . S
C1059 C1060 1.387 . S
C1060 H1045 0.930 . S
C1060 C1055 1.390 . S
C1060 C1059 1.387 . S
H1061 C1073 0.930 . S
H1062 C1075 0.930 . S
H1063 C1076 0.930 . S
H1064 C1080 0.959 . S
H1065 C1080 0.959 . S
H1066 C1080 0.961 . S
H1067 C1081 0.960 . S
H1068 C1081 0.961 . S
H1069 C1081 0.959 . S
H1070 C1084 0.929 . S
H1071 C1085 0.931 . S
H1072 C1087 0.930 . S
C1073 H1061 0.930 . S
C1073 C1074 1.399 . S
C1073 C1078 1.399 . S
C1074 C1073 1.399 . S
C1074 C1075 1.376 1_545 S
C1075 H1062 0.930 . S
C1075 C1074 1.376 1_565 S
C1075 C1076 1.388 . S
C1076 H1063 0.930 . S
C1076 C1075 1.388 . S
C1076 C1077 1.390 1_565 S
C1077 C1076 1.390 1_545 S
C1077 C1078 1.394 . S
C1077 C1083 1.465 . S
C1078 C1073 1.399 . S
C1078 C1077 1.394 . S
C1078 C1079 1.516 . S
C1079 C1078 1.516 . S
C1079 C1080 1.502 . S
C1079 C1081 1.561 . S
C1079 C1082 1.526 . S
C1080 H1064 0.959 . S
C1080 H1065 0.959 . S
C1080 H1066 0.961 . S
C1080 C1079 1.502 . S
C1081 H1067 0.960 . S
C1081 H1068 0.961 . S
C1081 H1069 0.959 . S
C1081 C1079 1.561 . S
C1082 C1079 1.526 . S
C1082 C1083 1.396 . S
C1082 C1087 1.390 . S
C1083 C1077 1.465 . S
C1083 C1082 1.396 . S
C1083 C1084 1.399 1_545 S
C1084 H1070 0.929 . S
C1084 C1083 1.399 1_565 S
C1084 C1085 1.385 . S
C1085 H1071 0.931 . S
C1085 C1084 1.385 . S
C1085 C1086 1.389 1_565 S
C1086 C1085 1.389 1_545 S
C1086 C1087 1.387 . S
C1087 H1072 0.930 . S
C1087 C1082 1.390 . S
C1087 C1086 1.387 . S
C237 C11 1.290 . S
C249 C109 1.302 . S
C264 C25 1.288 . S
C276 C67 1.311 . S
C291 C39 1.306 . S
C303 C81 1.326 . S
C318 C53 1.324 . S
C330 C95 1.295 . S
C345 C123 1.300 . S
C357 C221 1.320 . S
C372 C179 1.311 . S
C384 C137 1.292 . S
C399 C151 1.301 . S
C411 C193 1.289 . S
C426 C165 1.311 . S
C438 C207 1.292 . S
C453 C5 1.421 . S
C465 C135 1.461 . S
C480 C19 1.445 . S
C492 C149 1.455 . S
C507 C163 1.456 . S
C519 C33 1.438 . S
C534 C47 1.462 . S
C546 C121 1.455 . S
C561 C61 1.464 . S
C573 C219 1.459 . S
C588 C177 1.466 . S
C600 C75 1.440 . S
C615 C191 1.467 . S
C627 C89 1.436 . S
C642 C205 1.454 . S
C654 C103 1.457 . S
C669 C23 1.459 . S
C681 C117 1.454 . S
C696 C37 1.457 . S
C708 C131 1.461 . S
C723 C145 1.451 . S
C735 C51 1.457 . S
C750 C9 1.457 . S
C762 C159 1.460 . S
C777 C173 1.429 . S
C789 C107 1.465 . S
C804 C187 1.454 . S
C816 C65 1.456 . S
C831 C79 1.458 . S
C843 C201 1.457 . S
C858 C93 1.460 . S
C870 C215 1.452 . S
C885 C0 1.583 . S
C897 C56 1.576 . S
C912 C70 1.584 . S
C924 C14 1.588 . S
C939 C28 1.584 . S
C951 C84 1.577 . S
C966 C98 1.547 . S
C978 C42 1.543 . S
C993 C112 1.589 . S
C1005 C168 1.586 . S
C1020 C182 1.557 . S
C1032 C126 1.564 . S
C1047 C196 1.550 . S
C1059 C140 1.557 . S
C1074 C210 1.570 . S
C1086 C154 1.577 . S
