# Generated by pormake.
# Topology ukc, (4)-cn, num edge types: 1
# Building blocks:
#     Node 0, Type 0, BuildingBlock: UXUYUI_clean_sbu_0, # of connection points: 4
#     Node 1, Type 0, BuildingBlock: UXUYUI_clean_sbu_0, # of connection points: 4
#     Node 2, Type 0, BuildingBlock: UXUYUI_clean_sbu_0, # of connection points: 4
#     Node 3, Type 0, BuildingBlock: UXUYUI_clean_sbu_0, # of connection points: 4
#     Node 4, Type 0, BuildingBlock: UXUYUI_clean_sbu_0, # of connection points: 4
#     Node 5, Type 0, BuildingBlock: UXUYUI_clean_sbu_0, # of connection points: 4
#     Node 6, Type 0, BuildingBlock: UXUYUI_clean_sbu_0, # of connection points: 4
#     Node 7, Type 0, BuildingBlock: UXUYUI_clean_sbu_0, # of connection points: 4
#     Node 8, Type 0, BuildingBlock: UXUYUI_clean_sbu_0, # of connection points: 4
#     Node 9, Type 0, BuildingBlock: UXUYUI_clean_sbu_0, # of connection points: 4
#     Node 10, Type 0, BuildingBlock: UXUYUI_clean_sbu_0, # of connection points: 4
#     Node 11, Type 0, BuildingBlock: UXUYUI_clean_sbu_0, # of connection points: 4
#     Node 12, Type 0, BuildingBlock: UXUYUI_clean_sbu_0, # of connection points: 4
#     Node 13, Type 0, BuildingBlock: UXUYUI_clean_sbu_0, # of connection points: 4
#     Node 14, Type 0, BuildingBlock: UXUYUI_clean_sbu_0, # of connection points: 4
#     Node 15, Type 0, BuildingBlock: UXUYUI_clean_sbu_0, # of connection points: 4
#     Node 16, Type 0, BuildingBlock: UXUYUI_clean_sbu_0, # of connection points: 4
#     Node 17, Type 0, BuildingBlock: UXUYUI_clean_sbu_0, # of connection points: 4
#     Node 18, Type 0, BuildingBlock: UXUYUI_clean_sbu_0, # of connection points: 4
#     Node 19, Type 0, BuildingBlock: UXUYUI_clean_sbu_0, # of connection points: 4
#     Node 20, Type 0, BuildingBlock: UXUYUI_clean_sbu_0, # of connection points: 4
#     Node 21, Type 0, BuildingBlock: UXUYUI_clean_sbu_0, # of connection points: 4
#     Node 22, Type 0, BuildingBlock: UXUYUI_clean_sbu_0, # of connection points: 4
#     Node 23, Type 0, BuildingBlock: UXUYUI_clean_sbu_0, # of connection points: 4
#     Node 24, Type 0, BuildingBlock: UXUYUI_clean_sbu_0, # of connection points: 4
#     Node 25, Type 0, BuildingBlock: UXUYUI_clean_sbu_0, # of connection points: 4
#     Node 26, Type 0, BuildingBlock: UXUYUI_clean_sbu_0, # of connection points: 4
#     Node 27, Type 0, BuildingBlock: UXUYUI_clean_sbu_0, # of connection points: 4
#     Node 28, Type 0, BuildingBlock: UXUYUI_clean_sbu_0, # of connection points: 4
#     Node 29, Type 0, BuildingBlock: UXUYUI_clean_sbu_0, # of connection points: 4
#     Node 30, Type 0, BuildingBlock: UXUYUI_clean_sbu_0, # of connection points: 4
#     Node 31, Type 0, BuildingBlock: UXUYUI_clean_sbu_0, # of connection points: 4
#     Edge 32, Type (0, 0), BuildingBlock: KIFKEQ_clean_linker_1, # of connection points: 2
#     Edge 33, Type (0, 0), BuildingBlock: KIFKEQ_clean_linker_1, # of connection points: 2
#     Edge 34, Type (0, 0), BuildingBlock: KIFKEQ_clean_linker_1, # of connection points: 2
#     Edge 35, Type (0, 0), BuildingBlock: KIFKEQ_clean_linker_1, # of connection points: 2
#     Edge 36, Type (0, 0), BuildingBlock: KIFKEQ_clean_linker_1, # of connection points: 2
#     Edge 37, Type (0, 0), BuildingBlock: KIFKEQ_clean_linker_1, # of connection points: 2
#     Edge 38, Type (0, 0), BuildingBlock: KIFKEQ_clean_linker_1, # of connection points: 2
#     Edge 39, Type (0, 0), BuildingBlock: KIFKEQ_clean_linker_1, # of connection points: 2
#     Edge 40, Type (0, 0), BuildingBlock: KIFKEQ_clean_linker_1, # of connection points: 2
#     Edge 41, Type (0, 0), BuildingBlock: KIFKEQ_clean_linker_1, # of connection points: 2
#     Edge 42, Type (0, 0), BuildingBlock: KIFKEQ_clean_linker_1, # of connection points: 2
#     Edge 43, Type (0, 0), BuildingBlock: KIFKEQ_clean_linker_1, # of connection points: 2
#     Edge 44, Type (0, 0), BuildingBlock: KIFKEQ_clean_linker_1, # of connection points: 2
#     Edge 45, Type (0, 0), BuildingBlock: KIFKEQ_clean_linker_1, # of connection points: 2
#     Edge 46, Type (0, 0), BuildingBlock: KIFKEQ_clean_linker_1, # of connection points: 2
#     Edge 47, Type (0, 0), BuildingBlock: KIFKEQ_clean_linker_1, # of connection points: 2
#     Edge 48, Type (0, 0), BuildingBlock: KIFKEQ_clean_linker_1, # of connection points: 2
#     Edge 49, Type (0, 0), BuildingBlock: KIFKEQ_clean_linker_1, # of connection points: 2
#     Edge 50, Type (0, 0), BuildingBlock: KIFKEQ_clean_linker_1, # of connection points: 2
#     Edge 51, Type (0, 0), BuildingBlock: KIFKEQ_clean_linker_1, # of connection points: 2
#     Edge 52, Type (0, 0), BuildingBlock: KIFKEQ_clean_linker_1, # of connection points: 2
#     Edge 53, Type (0, 0), BuildingBlock: KIFKEQ_clean_linker_1, # of connection points: 2
#     Edge 54, Type (0, 0), BuildingBlock: KIFKEQ_clean_linker_1, # of connection points: 2
#     Edge 55, Type (0, 0), BuildingBlock: KIFKEQ_clean_linker_1, # of connection points: 2
#     Edge 56, Type (0, 0), BuildingBlock: KIFKEQ_clean_linker_1, # of connection points: 2
#     Edge 57, Type (0, 0), BuildingBlock: KIFKEQ_clean_linker_1, # of connection points: 2
#     Edge 58, Type (0, 0), BuildingBlock: KIFKEQ_clean_linker_1, # of connection points: 2
#     Edge 59, Type (0, 0), BuildingBlock: KIFKEQ_clean_linker_1, # of connection points: 2
#     Edge 60, Type (0, 0), BuildingBlock: KIFKEQ_clean_linker_1, # of connection points: 2
#     Edge 61, Type (0, 0), BuildingBlock: KIFKEQ_clean_linker_1, # of connection points: 2
#     Edge 62, Type (0, 0), BuildingBlock: KIFKEQ_clean_linker_1, # of connection points: 2
#     Edge 63, Type (0, 0), BuildingBlock: KIFKEQ_clean_linker_1, # of connection points: 2
#     Edge 64, Type (0, 0), BuildingBlock: KIFKEQ_clean_linker_1, # of connection points: 2
#     Edge 65, Type (0, 0), BuildingBlock: KIFKEQ_clean_linker_1, # of connection points: 2
#     Edge 66, Type (0, 0), BuildingBlock: KIFKEQ_clean_linker_1, # of connection points: 2
#     Edge 67, Type (0, 0), BuildingBlock: KIFKEQ_clean_linker_1, # of connection points: 2
#     Edge 68, Type (0, 0), BuildingBlock: KIFKEQ_clean_linker_1, # of connection points: 2
#     Edge 69, Type (0, 0), BuildingBlock: KIFKEQ_clean_linker_1, # of connection points: 2
#     Edge 70, Type (0, 0), BuildingBlock: KIFKEQ_clean_linker_1, # of connection points: 2
#     Edge 71, Type (0, 0), BuildingBlock: KIFKEQ_clean_linker_1, # of connection points: 2
#     Edge 72, Type (0, 0), BuildingBlock: KIFKEQ_clean_linker_1, # of connection points: 2
#     Edge 73, Type (0, 0), BuildingBlock: KIFKEQ_clean_linker_1, # of connection points: 2
#     Edge 74, Type (0, 0), BuildingBlock: KIFKEQ_clean_linker_1, # of connection points: 2
#     Edge 75, Type (0, 0), BuildingBlock: KIFKEQ_clean_linker_1, # of connection points: 2
#     Edge 76, Type (0, 0), BuildingBlock: KIFKEQ_clean_linker_1, # of connection points: 2
#     Edge 77, Type (0, 0), BuildingBlock: KIFKEQ_clean_linker_1, # of connection points: 2
#     Edge 78, Type (0, 0), BuildingBlock: KIFKEQ_clean_linker_1, # of connection points: 2
#     Edge 79, Type (0, 0), BuildingBlock: KIFKEQ_clean_linker_1, # of connection points: 2
#     Edge 80, Type (0, 0), BuildingBlock: KIFKEQ_clean_linker_1, # of connection points: 2
#     Edge 81, Type (0, 0), BuildingBlock: KIFKEQ_clean_linker_1, # of connection points: 2
#     Edge 82, Type (0, 0), BuildingBlock: KIFKEQ_clean_linker_1, # of connection points: 2
#     Edge 83, Type (0, 0), BuildingBlock: KIFKEQ_clean_linker_1, # of connection points: 2
#     Edge 84, Type (0, 0), BuildingBlock: KIFKEQ_clean_linker_1, # of connection points: 2
#     Edge 85, Type (0, 0), BuildingBlock: KIFKEQ_clean_linker_1, # of connection points: 2
#     Edge 86, Type (0, 0), BuildingBlock: KIFKEQ_clean_linker_1, # of connection points: 2
#     Edge 87, Type (0, 0), BuildingBlock: KIFKEQ_clean_linker_1, # of connection points: 2
#     Edge 88, Type (0, 0), BuildingBlock: KIFKEQ_clean_linker_1, # of connection points: 2
#     Edge 89, Type (0, 0), BuildingBlock: KIFKEQ_clean_linker_1, # of connection points: 2
#     Edge 90, Type (0, 0), BuildingBlock: KIFKEQ_clean_linker_1, # of connection points: 2
#     Edge 91, Type (0, 0), BuildingBlock: KIFKEQ_clean_linker_1, # of connection points: 2
#     Edge 92, Type (0, 0), BuildingBlock: KIFKEQ_clean_linker_1, # of connection points: 2
#     Edge 93, Type (0, 0), BuildingBlock: KIFKEQ_clean_linker_1, # of connection points: 2
#     Edge 94, Type (0, 0), BuildingBlock: KIFKEQ_clean_linker_1, # of connection points: 2
#     Edge 95, Type (0, 0), BuildingBlock: KIFKEQ_clean_linker_1, # of connection points: 2
# Relax obj value: 0.100
# Max RMSD: 0.121
# Mean RMSD: 0.120
data_MOF--net-ukc--node1-UXUYUI_clean_sbu_0--edge1-KIFKEQ_clean_linker_1
_symmetry_space_group_name_H-M    P1
_symmetry_Int_Tables_number       1
_symmetry_cell_setting            triclinic
loop_
_symmetry_equiv_pos_as_xyz
'x, y, z'
_cell_length_a     67.924379
_cell_length_b     67.91361
_cell_length_c     123.27794
_cell_angle_alpha  89.983155
_cell_angle_beta   90.001394
_cell_angle_gamma 90.008101
loop_
_atom_site_label
_atom_site_type_symbol
_atom_site_fract_x
_atom_site_fract_y
_atom_site_fract_z
_atom_type_partial_charge
Li0 Li 0.12017 0.38492 0.0332 0.0
Li1 Li 0.10203 0.38751 0.04988 0.0
Li2 Li 0.08875 0.36712 0.03589 0.0
Li3 Li 0.08762 0.40425 0.03437 0.0
C4 C 0.124 0.34683 0.04108 0.0
N5 N 0.14453 0.31308 0.03574 0.0
C6 C 0.13699 0.33837 0.04854 0.0
C7 C 0.12139 0.33808 0.03093 0.0
C8 C 0.14726 0.32132 0.04568 0.0
C9 C 0.1319 0.32102 0.02838 0.0
C10 C 0.12301 0.42212 0.04805 0.0
C11 C 0.12519 0.45344 0.05717 0.0
N12 N 0.14226 0.44754 0.06193 0.0
C13 C 0.14062 0.4164 0.05298 0.0
C14 C 0.11523 0.4408 0.0501 0.0
C15 C 0.15011 0.42945 0.06 0.0
C16 C 0.14853 0.39113 0.0165 0.0
N17 N 0.14572 0.3845 0.0268 0.0
C18 C 0.18009 0.37778 0.02872 0.0
C19 C 0.16101 0.37794 0.03292 0.0
C20 C 0.1835 0.38446 0.0181 0.0
C21 C 0.16739 0.39112 0.01194 0.0
H22 H 0.13615 0.39657 0.01187 0.0
H23 H 0.15843 0.37294 0.04112 0.0
C24 C 0.1058 0.36926 0.06986 0.0
N25 N 0.10508 0.38757 0.0654 0.0
C26 C 0.10798 0.3669 0.08103 0.0
C27 C 0.10877 0.4023 0.08292 0.0
C28 C 0.10611 0.40399 0.07171 0.0
C29 C 0.10972 0.38355 0.08767 0.0
H30 H 0.10453 0.35644 0.06471 0.0
H31 H 0.10474 0.4184 0.06811 0.0
C32 C 0.09126 0.37952 0.01311 0.0
N33 N 0.07996 0.37024 0.99218 0.0
C34 C 0.07335 0.3864 0.00899 0.0
C35 C 0.10354 0.36814 0.00651 0.0
C36 C 0.06786 0.38148 0.99841 0.0
C37 C 0.09753 0.36354 0.99597 0.0
C38 C 0.06493 0.3902 0.05431 0.0
C39 C 0.05857 0.37453 0.06077 0.0
C40 C 0.06243 0.40954 0.05792 0.0
C41 C 0.04993 0.37849 0.07082 0.0
C42 C 0.05369 0.41289 0.06801 0.0
N43 N 0.04769 0.39743 0.0742 0.0
C44 C 0.07438 0.33008 0.04155 0.0
C45 C 0.06212 0.34121 0.02464 0.0
C46 C 0.06253 0.31331 0.04104 0.0
N47 N 0.07386 0.34368 0.03346 0.0
C48 C 0.0501 0.32459 0.02375 0.0
C49 C 0.05 0.31052 0.0321 0.0
H50 H 0.0837 0.33252 0.04854 0.0
H51 H 0.06157 0.35234 0.01842 0.0
C52 C 0.08084 0.44147 0.02415 0.0
N53 N 0.07234 0.42546 0.02883 0.0
C54 C 0.06909 0.45626 0.0196 0.0
C55 C 0.04019 0.43775 0.02482 0.0
C56 C 0.05245 0.42346 0.02934 0.0
C57 C 0.04847 0.45436 0.01978 0.0
H58 H 0.09671 0.4426 0.02381 0.0
H59 H 0.04612 0.41053 0.03309 0.0
O60 O 0.11402 0.36363 0.04376 0.0
O61 O 0.11352 0.40963 0.04112 0.0
O62 O 0.09699 0.38442 0.02341 0.0
O63 O 0.07404 0.38663 0.04463 0.0
H64 H 0.1392 0.345 0.05643 0.0
H65 H 0.11125 0.34428 0.02513 0.0
H66 H 0.15741 0.31466 0.05136 0.0
H67 H 0.13 0.3141 0.02055 0.0
H68 H 0.11932 0.46792 0.05887 0.0
H69 H 0.14676 0.40196 0.0515 0.0
H70 H 0.10161 0.44543 0.04633 0.0
H71 H 0.16369 0.42519 0.06394 0.0
H72 H 0.19203 0.37235 0.03371 0.0
H73 H 0.16939 0.39662 0.00377 0.0
H74 H 0.1086 0.35221 0.08444 0.0
H75 H 0.10977 0.41547 0.08785 0.0
H76 H 0.06366 0.39522 0.01395 0.0
H77 H 0.11763 0.36298 0.00944 0.0
H78 H 0.05398 0.38659 0.99517 0.0
H79 H 0.10686 0.3547 0.99079 0.0
H80 H 0.0605 0.35947 0.05811 0.0
H81 H 0.06746 0.42181 0.05305 0.0
H82 H 0.04505 0.36652 0.07595 0.0
H83 H 0.05177 0.42778 0.07094 0.0
H84 H 0.06304 0.30274 0.04761 0.0
H85 H 0.04047 0.32315 0.0168 0.0
H86 H 0.07605 0.46878 0.01573 0.0
H87 H 0.02438 0.43583 0.02526 0.0
Li88 Li 0.87116 0.87036 0.28266 0.0
Li89 Li 0.86789 0.85248 0.29993 0.0
Li90 Li 0.88926 0.83874 0.2849 0.0
Li91 Li 0.85335 0.83792 0.2838 0.0
C92 C 0.90823 0.8752 0.29452 0.0
N93 N 0.94123 0.89853 0.29725 0.0
C94 C 0.90964 0.88787 0.30343 0.0
C95 C 0.92379 0.87414 0.28712 0.0
C96 C 0.92638 0.89963 0.30463 0.0
C97 C 0.94029 0.88611 0.28861 0.0
C98 C 0.83375 0.87239 0.29767 0.0
C99 C 0.80905 0.87022 0.31167 0.0
N100 N 0.80841 0.89021 0.31219 0.0
C101 C 0.83272 0.89291 0.29827 0.0
C102 C 0.82171 0.86093 0.30436 0.0
C103 C 0.81986 0.90165 0.30568 0.0
C104 C 0.86382 0.89911 0.26639 0.0
N105 N 0.87153 0.89614 0.27643 0.0
C106 C 0.87897 0.93041 0.27814 0.0
C107 C 0.87887 0.91134 0.28235 0.0
C108 C 0.87115 0.93402 0.26777 0.0
C109 C 0.86351 0.91801 0.26187 0.0
H110 H 0.85776 0.88682 0.26192 0.0
H111 H 0.88438 0.90874 0.29043 0.0
C112 C 0.87174 0.84021 0.32162 0.0
N113 N 0.86706 0.85591 0.31528 0.0
C114 C 0.87362 0.84244 0.33283 0.0
C115 C 0.86532 0.87685 0.33085 0.0
C116 C 0.8638 0.874 0.31966 0.0
C117 C 0.87061 0.86101 0.33757 0.0
H118 H 0.87461 0.82606 0.31792 0.0
H119 H 0.86077 0.8864 0.31444 0.0
C120 C 0.88179 0.84814 0.2628 0.0
N121 N 0.90095 0.84992 0.24304 0.0
C122 C 0.87658 0.83524 0.25444 0.0
C123 C 0.89654 0.86212 0.26104 0.0
C124 C 0.8865 0.83631 0.24453 0.0
C125 C 0.9061 0.86275 0.25102 0.0
C126 C 0.86295 0.8066 0.29595 0.0
C127 C 0.87143 0.79064 0.29053 0.0
C128 C 0.84653 0.80361 0.30257 0.0
C129 C 0.86307 0.77196 0.29167 0.0
C130 C 0.83861 0.7847 0.3035 0.0
N131 N 0.84696 0.7694 0.29807 0.0
C132 C 0.92589 0.82321 0.29054 0.0
C133 C 0.91527 0.81358 0.27302 0.0
C134 C 0.94258 0.81132 0.28968 0.0
N135 N 0.91265 0.82409 0.28229 0.0
C136 C 0.9318 0.80155 0.27179 0.0
C137 C 0.94565 0.80013 0.28023 0.0
H138 H 0.9232 0.8314 0.29792 0.0
H139 H 0.9043 0.81406 0.2667 0.0
C140 C 0.81331 0.82663 0.2796 0.0
N141 N 0.8326 0.82215 0.27802 0.0
C142 C 0.79858 0.81469 0.27515 0.0
C143 C 0.82388 0.79378 0.26761 0.0
C144 C 0.83806 0.80619 0.2721 0.0
C145 C 0.80378 0.79796 0.26904 0.0
H146 H 0.80935 0.83956 0.28423 0.0
H147 H 0.85351 0.80306 0.2709 0.0
O148 O 0.89199 0.86346 0.29329 0.0
O149 O 0.84633 0.86358 0.2905 0.0
O150 O 0.87224 0.84722 0.27256 0.0
O151 O 0.87075 0.82505 0.29481 0.0
H152 H 0.89787 0.88876 0.3093 0.0
H153 H 0.92329 0.86402 0.28037 0.0
H154 H 0.92757 0.90961 0.31143 0.0
H155 H 0.95241 0.88546 0.28293 0.0
H156 H 0.79973 0.86153 0.31694 0.0
H157 H 0.84182 0.902 0.29309 0.0
H158 H 0.82217 0.84505 0.30391 0.0
H159 H 0.81898 0.91752 0.30627 0.0
H160 H 0.8852 0.94217 0.28296 0.0
H161 H 0.85701 0.92007 0.25393 0.0
H162 H 0.87762 0.82982 0.33774 0.0
H163 H 0.86319 0.89148 0.33415 0.0
H164 H 0.86506 0.82445 0.25561 0.0
H165 H 0.90041 0.87254 0.2673 0.0
H166 H 0.8827 0.82633 0.23802 0.0
H167 H 0.91756 0.87349 0.24957 0.0
H168 H 0.88419 0.7927 0.2854 0.0
H169 H 0.83998 0.81574 0.30694 0.0
H170 H 0.86938 0.7595 0.28746 0.0
H171 H 0.82583 0.78218 0.30855 0.0
H172 H 0.95262 0.81044 0.29648 0.0
H173 H 0.93361 0.79333 0.26433 0.0
H174 H 0.78331 0.81873 0.27634 0.0
H175 H 0.82869 0.78093 0.26314 0.0
Li176 Li 0.38627 0.62099 0.53298 0.0
Li177 Li 0.40287 0.61858 0.55055 0.0
Li178 Li 0.41654 0.63932 0.53541 0.0
Li179 Li 0.41897 0.60322 0.53447 0.0
C180 C 0.3746 0.65292 0.54416 0.0
N181 N 0.33957 0.67351 0.54513 0.0
C182 C 0.36228 0.65097 0.55318 0.0
C183 C 0.36924 0.66552 0.5357 0.0
C184 C 0.3446 0.66147 0.5535 0.0
C185 C 0.35143 0.67574 0.53632 0.0
C186 C 0.38825 0.57936 0.54627 0.0
C187 C 0.39783 0.54872 0.55466 0.0
N188 N 0.37853 0.5442 0.55623 0.0
C189 C 0.36851 0.57426 0.54782 0.0
C190 C 0.40303 0.56637 0.54959 0.0
C191 C 0.3639 0.55648 0.55293 0.0
C192 C 0.35827 0.62178 0.51565 0.0
N193 N 0.36063 0.62067 0.52658 0.0
C194 C 0.32577 0.61927 0.52918 0.0
C195 C 0.34488 0.61927 0.53333 0.0
C196 C 0.32275 0.62037 0.51791 0.0
C197 C 0.33937 0.6216 0.51112 0.0
H198 H 0.37105 0.62268 0.51044 0.0
H199 H 0.34715 0.61825 0.54199 0.0
C200 C 0.41003 0.63125 0.57169 0.0
N201 N 0.39914 0.61816 0.5659 0.0
C202 C 0.40717 0.63329 0.58285 0.0
C203 C 0.38203 0.60817 0.58195 0.0
C204 C 0.38534 0.60667 0.57079 0.0
C205 C 0.39288 0.62179 0.58811 0.0
H206 H 0.42073 0.64039 0.56757 0.0
H207 H 0.37647 0.59676 0.56601 0.0
C208 C 0.41745 0.63123 0.51435 0.0
N209 N 0.43434 0.65094 0.4971 0.0
C210 C 0.43498 0.62435 0.50978 0.0
C211 C 0.40838 0.64798 0.51007 0.0
C212 C 0.44332 0.63456 0.50108 0.0
C213 C 0.4172 0.65779 0.50137 0.0
C214 C 0.44603 0.61559 0.55171 0.0
C215 C 0.46414 0.62524 0.55082 0.0
C216 C 0.44383 0.60035 0.55924 0.0
C217 C 0.47985 0.61924 0.55734 0.0
C218 C 0.45988 0.5948 0.56563 0.0
N219 N 0.47742 0.60425 0.56454 0.0
C220 C 0.424 0.6805 0.53551 0.0
C221 C 0.44938 0.6608 0.52802 0.0
C222 C 0.43553 0.69742 0.5343 0.0
N223 N 0.43115 0.66266 0.53245 0.0
C224 C 0.46134 0.67731 0.52661 0.0
C225 C 0.45457 0.6959 0.52991 0.0
H226 H 0.40957 0.68154 0.53916 0.0
H227 H 0.45489 0.64637 0.52591 0.0
C228 C 0.42645 0.56712 0.52363 0.0
N229 N 0.43502 0.58224 0.5291 0.0
C230 C 0.43804 0.55232 0.51898 0.0
C231 C 0.46701 0.56881 0.5258 0.0
C232 C 0.4549 0.58334 0.53022 0.0
C233 C 0.45867 0.55309 0.51996 0.0
H234 H 0.41061 0.56676 0.52272 0.0
H235 H 0.46145 0.5957 0.53435 0.0
O236 O 0.39185 0.64257 0.54364 0.0
O237 O 0.393 0.59665 0.54119 0.0
O238 O 0.40921 0.62159 0.52297 0.0
O239 O 0.4305 0.62133 0.54538 0.0
H240 H 0.36624 0.64134 0.55982 0.0
H241 H 0.37867 0.66731 0.52871 0.0
H242 H 0.33486 0.66001 0.5604 0.0
H243 H 0.34703 0.68545 0.5298 0.0
H244 H 0.40913 0.53858 0.55731 0.0
H245 H 0.35686 0.58397 0.54517 0.0
H246 H 0.41836 0.56974 0.54819 0.0
H247 H 0.34868 0.55244 0.55425 0.0
H248 H 0.31352 0.61863 0.53478 0.0
H249 H 0.33786 0.62216 0.50238 0.0
H250 H 0.416 0.64383 0.58729 0.0
H251 H 0.37066 0.59923 0.58565 0.0
H252 H 0.44216 0.61136 0.51297 0.0
H253 H 0.39473 0.65338 0.51345 0.0
H254 H 0.45695 0.62948 0.4975 0.0
H255 H 0.4104 0.67084 0.49801 0.0
H256 H 0.46607 0.63719 0.54513 0.0
H257 H 0.42982 0.59308 0.56027 0.0
H258 H 0.49397 0.6265 0.55669 0.0
H259 H 0.45837 0.58302 0.57148 0.0
H260 H 0.42969 0.71149 0.5369 0.0
H261 H 0.47604 0.67541 0.52336 0.0
H262 H 0.4309 0.54071 0.51442 0.0
H263 H 0.48277 0.56997 0.52693 0.0
Li264 Li 0.65136 0.16858 0.78405 0.0
Li265 Li 0.61499 0.16725 0.78555 0.0
Li266 Li 0.63523 0.15343 0.79936 0.0
Li267 Li 0.63312 0.13643 0.78249 0.0
C268 C 0.64199 0.19118 0.80361 0.0
N269 N 0.65778 0.20997 0.8215 0.0
C270 C 0.6297 0.20088 0.81097 0.0
C271 C 0.66232 0.19103 0.80538 0.0
C272 C 0.63796 0.21028 0.81996 0.0
C273 C 0.67002 0.20063 0.81445 0.0
C274 C 0.63157 0.17342 0.76446 0.0
C275 C 0.6347 0.1812 0.74545 0.0
N276 N 0.63202 0.2006 0.74778 0.0
C277 C 0.62883 0.19342 0.76667 0.0
C278 C 0.63453 0.16724 0.75378 0.0
C279 C 0.62911 0.20693 0.75813 0.0
C280 C 0.68823 0.1754 0.77353 0.0
N281 N 0.67248 0.1841 0.77836 0.0
C282 C 0.68499 0.21608 0.77407 0.0
C283 C 0.67074 0.20403 0.7788 0.0
C284 C 0.70132 0.20757 0.76889 0.0
C285 C 0.70298 0.18693 0.76877 0.0
H286 H 0.68918 0.15951 0.77324 0.0
H287 H 0.65809 0.2106 0.78271 0.0
C288 C 0.5831 0.18936 0.79227 0.0
N289 N 0.59113 0.18152 0.78316 0.0
C290 C 0.56672 0.20166 0.7916 0.0
C291 C 0.56619 0.19649 0.7722 0.0
C292 C 0.58277 0.1844 0.77325 0.0
C293 C 0.55828 0.20565 0.78144 0.0
H294 H 0.58959 0.18618 0.80007 0.0
H295 H 0.58915 0.17764 0.76613 0.0
C296 C 0.66911 0.13276 0.79769 0.0
N297 N 0.69244 0.1127 0.81233 0.0
C298 C 0.66217 0.11556 0.80259 0.0
C299 C 0.68797 0.13967 0.80013 0.0
C300 C 0.67417 0.10566 0.81001 0.0
C301 C 0.69953 0.12933 0.80758 0.0
C302 C 0.59454 0.13295 0.7888 0.0
C303 C 0.58167 0.12285 0.79569 0.0
C304 C 0.5903 0.13403 0.7777 0.0
C305 C 0.56476 0.11413 0.79139 0.0
C306 C 0.57323 0.12513 0.77372 0.0
N307 N 0.56091 0.11545 0.78059 0.0
C308 C 0.61812 0.14445 0.8192 0.0
C309 C 0.65212 0.15134 0.82113 0.0
C310 C 0.61643 0.14059 0.83027 0.0
N311 N 0.63579 0.1494 0.81481 0.0
C312 C 0.65106 0.14778 0.8323 0.0
C313 C 0.63306 0.14211 0.83697 0.0
H314 H 0.60526 0.14356 0.81409 0.0
H315 H 0.66598 0.15556 0.81755 0.0
C316 C 0.64145 0.10796 0.76606 0.0
N317 N 0.6331 0.11097 0.77594 0.0
C318 C 0.64192 0.08904 0.76156 0.0
C319 C 0.62504 0.07681 0.77744 0.0
C320 C 0.62501 0.09587 0.78165 0.0
C321 C 0.6337 0.0731 0.76729 0.0
H322 H 0.64798 0.1202 0.76175 0.0
H323 H 0.61861 0.0986 0.78953 0.0
O324 O 0.63418 0.18153 0.79484 0.0
O325 O 0.63165 0.15992 0.7727 0.0
O326 O 0.65756 0.14274 0.79047 0.0
O327 O 0.61125 0.14143 0.79294 0.0
H328 H 0.61396 0.2012 0.80979 0.0
H329 H 0.67206 0.18326 0.79994 0.0
H330 H 0.62861 0.21782 0.82572 0.0
H331 H 0.68572 0.20053 0.81593 0.0
H332 H 0.63698 0.17663 0.73714 0.0
H333 H 0.62648 0.19846 0.77489 0.0
H334 H 0.63669 0.1518 0.75194 0.0
H335 H 0.62703 0.22245 0.75972 0.0
H336 H 0.68327 0.23192 0.77448 0.0
H337 H 0.71528 0.17978 0.7648 0.0
H338 H 0.56076 0.20806 0.79895 0.0
H339 H 0.56001 0.19914 0.76423 0.0
H340 H 0.64757 0.11008 0.80081 0.0
H341 H 0.69358 0.15292 0.79635 0.0
H342 H 0.66894 0.09241 0.81394 0.0
H343 H 0.71413 0.13455 0.80959 0.0
H344 H 0.58474 0.12163 0.80427 0.0
H345 H 0.60004 0.14155 0.77217 0.0
H346 H 0.5547 0.10627 0.79664 0.0
H347 H 0.56979 0.12589 0.76517 0.0
H348 H 0.60218 0.13669 0.83357 0.0
H349 H 0.66424 0.14912 0.83719 0.0
H350 H 0.64899 0.08689 0.75378 0.0
H351 H 0.61824 0.06512 0.7821 0.0
Li352 Li 0.08804 0.60267 0.47116 0.0
Li353 Li 0.08881 0.63857 0.47003 0.0
Li354 Li 0.10286 0.61723 0.45511 0.0
Li355 Li 0.1205 0.62067 0.47247 0.0
C356 C 0.05693 0.61213 0.45883 0.0
N357 N 0.01985 0.5959 0.45661 0.0
C358 C 0.04075 0.62093 0.46388 0.0
C359 C 0.05422 0.59526 0.45253 0.0
C360 C 0.02213 0.61246 0.46269 0.0
C361 C 0.03537 0.58722 0.45154 0.0
C362 C 0.09746 0.6308 0.4923 0.0
C363 C 0.11169 0.65421 0.50474 0.0
N364 N 0.09805 0.64912 0.51231 0.0
C365 C 0.08374 0.6256 0.50025 0.0
C366 C 0.11168 0.64506 0.4946 0.0
C367 C 0.08421 0.63511 0.5103 0.0
C368 C 0.07717 0.56254 0.47546 0.0
N369 N 0.07223 0.58179 0.47682 0.0
C370 C 0.04318 0.57271 0.48657 0.0
C371 C 0.05572 0.58705 0.48234 0.0
C372 C 0.04781 0.55271 0.48527 0.0
C373 C 0.06513 0.54767 0.47968 0.0
H374 H 0.09046 0.55874 0.4711 0.0
H375 H 0.05228 0.60246 0.48344 0.0
C376 C 0.07378 0.67554 0.4645 0.0
N377 N 0.07408 0.66196 0.4726 0.0
C378 C 0.06199 0.6923 0.46536 0.0
C379 C 0.05102 0.68084 0.48291 0.0
C380 C 0.06302 0.66428 0.4817 0.0
C381 C 0.05025 0.69506 0.47463 0.0
H382 H 0.08239 0.67309 0.45724 0.0
H383 H 0.06304 0.65305 0.48788 0.0
C384 C 0.12315 0.58345 0.45748 0.0
N385 N 0.14187 0.55875 0.44298 0.0
C386 C 0.1437 0.58307 0.45693 0.0
C387 C 0.11213 0.57109 0.45076 0.0
C388 C 0.15289 0.57052 0.44952 0.0
C389 C 0.12186 0.55876 0.44344 0.0
C390 C 0.12487 0.65811 0.46085 0.0
C391 C 0.13709 0.66076 0.45184 0.0
C392 C 0.12373 0.67285 0.46873 0.0
C393 C 0.1483 0.67794 0.45099 0.0
C394 C 0.13515 0.68984 0.46758 0.0
N395 N 0.14712 0.692 0.45882 0.0
C396 C 0.09127 0.61927 0.43308 0.0
C397 C 0.12539 0.6141 0.43582 0.0
C398 C 0.0941 0.62069 0.42188 0.0
N399 N 0.10684 0.61617 0.43979 0.0
C400 C 0.12888 0.61524 0.42467 0.0
C401 C 0.11317 0.6189 0.41752 0.0
H402 H 0.07672 0.62129 0.43646 0.0
H403 H 0.13761 0.61218 0.44132 0.0
C404 C 0.14929 0.61238 0.48857 0.0
N405 N 0.14621 0.62121 0.47881 0.0
C406 C 0.16811 0.61217 0.49318 0.0
C407 C 0.1802 0.63016 0.47763 0.0
C408 C 0.16123 0.62984 0.47328 0.0
C409 C 0.18385 0.62121 0.4877 0.0
H410 H 0.13713 0.60543 0.49274 0.0
H411 H 0.15861 0.63617 0.46539 0.0
O412 O 0.07532 0.62003 0.46004 0.0
O413 O 0.09719 0.62158 0.48242 0.0
O414 O 0.1139 0.59575 0.46463 0.0
O415 O 0.11371 0.64139 0.46175 0.0
H416 H 0.04257 0.63405 0.46875 0.0
H417 H 0.06655 0.58842 0.44846 0.0
H418 H 0.00949 0.61903 0.46662 0.0
H419 H 0.03308 0.57409 0.44674 0.0
H420 H 0.1226 0.66531 0.50661 0.0
H421 H 0.07278 0.61442 0.49868 0.0
H422 H 0.12276 0.64888 0.48868 0.0
H423 H 0.07359 0.63133 0.5165 0.0
H424 H 0.03013 0.57725 0.49096 0.0
H425 H 0.06919 0.5324 0.47847 0.0
H426 H 0.06161 0.70263 0.45868 0.0
H427 H 0.04232 0.6824 0.49022 0.0
H428 H 0.15246 0.59244 0.46213 0.0
H429 H 0.09624 0.57106 0.45116 0.0
H430 H 0.16878 0.57015 0.44896 0.0
H431 H 0.11351 0.5492 0.43815 0.0
H432 H 0.13802 0.64963 0.4456 0.0
H433 H 0.11394 0.67139 0.47558 0.0
H434 H 0.15792 0.68011 0.4441 0.0
H435 H 0.13442 0.70134 0.47363 0.0
H436 H 0.08157 0.62386 0.41674 0.0
H437 H 0.14379 0.61352 0.42172 0.0
H438 H 0.1703 0.60516 0.50098 0.0
H439 H 0.19199 0.63696 0.47305 0.0
Li440 Li 0.63828 0.85308 0.70511 0.0
Li441 Li 0.63508 0.87037 0.72252 0.0
Li442 Li 0.65317 0.83766 0.72147 0.0
Li443 Li 0.6174 0.83947 0.72019 0.0
C444 C 0.67593 0.87022 0.70908 0.0
N445 N 0.70874 0.88391 0.69814 0.0
C446 C 0.67855 0.89041 0.7074 0.0
C447 C 0.69025 0.85704 0.70539 0.0
C448 C 0.69515 0.89703 0.70179 0.0
C449 C 0.70666 0.86423 0.69983 0.0
C450 C 0.60227 0.88031 0.7109 0.0
C451 C 0.5779 0.90227 0.7184 0.0
N452 N 0.57886 0.91346 0.70927 0.0
C453 C 0.60285 0.89191 0.70154 0.0
C454 C 0.58955 0.88541 0.71936 0.0
C455 C 0.59096 0.90866 0.70089 0.0
C456 C 0.63031 0.8429 0.68346 0.0
N457 N 0.63928 0.85671 0.68973 0.0
C458 C 0.64591 0.87657 0.67413 0.0
C459 C 0.64705 0.87332 0.6853 0.0
C460 C 0.63662 0.86261 0.66745 0.0
C461 C 0.62894 0.84549 0.67225 0.0
H462 H 0.62377 0.83007 0.68721 0.0
H463 H 0.65348 0.88441 0.69046 0.0
C464 C 0.6361 0.89864 0.73966 0.0
N465 N 0.63483 0.89621 0.72873 0.0
C466 C 0.63594 0.91755 0.74416 0.0
C467 C 0.63327 0.93107 0.72609 0.0
C468 C 0.63363 0.91195 0.72195 0.0
C469 C 0.63442 0.93408 0.73734 0.0
H470 H 0.63729 0.8859 0.74488 0.0
H471 H 0.63312 0.90969 0.71328 0.0
C472 C 0.64452 0.80973 0.70528 0.0
N473 N 0.66205 0.77809 0.695 0.0
C474 C 0.63767 0.79061 0.70714 0.0
C475 C 0.66005 0.81276 0.69804 0.0
C476 C 0.6468 0.7748 0.70191 0.0
C477 C 0.66877 0.79659 0.69295 0.0
C478 C 0.62368 0.84098 0.74141 0.0
C479 C 0.62824 0.82295 0.74627 0.0
C480 C 0.60818 0.85227 0.7455 0.0
C481 C 0.61691 0.81632 0.755 0.0
C482 C 0.5972 0.84515 0.75424 0.0
N483 N 0.60173 0.82745 0.75876 0.0
C484 C 0.69191 0.82969 0.72957 0.0
C485 C 0.67021 0.80243 0.72887 0.0
C486 C 0.70684 0.81785 0.73389 0.0
N487 N 0.67409 0.82178 0.72707 0.0
C488 C 0.68463 0.79009 0.73321 0.0
C489 C 0.7033 0.79771 0.73576 0.0
H490 H 0.69452 0.84522 0.72825 0.0
H491 H 0.65574 0.79663 0.72717 0.0
C492 C 0.57623 0.83158 0.72021 0.0
N493 N 0.59423 0.82455 0.72306 0.0
C494 C 0.55954 0.81968 0.72121 0.0
C495 C 0.5802 0.79363 0.72819 0.0
C496 C 0.59645 0.80606 0.7271 0.0
C497 C 0.56144 0.80027 0.72506 0.0
H498 H 0.57487 0.8462 0.71685 0.0
H499 H 0.61098 0.80073 0.72913 0.0
O500 O 0.65978 0.86351 0.71462 0.0
O501 O 0.61399 0.86397 0.71173 0.0
O502 O 0.63578 0.82539 0.71037 0.0
O503 O 0.63441 0.84757 0.73274 0.0
H504 H 0.66782 0.90087 0.71032 0.0
H505 H 0.68888 0.84143 0.70692 0.0
H506 H 0.69725 0.9126 0.70036 0.0
H507 H 0.71781 0.85416 0.69691 0.0
H508 H 0.56808 0.90644 0.72491 0.0
H509 H 0.61244 0.88812 0.69487 0.0
H510 H 0.58866 0.87645 0.72657 0.0
H511 H 0.59136 0.91783 0.69372 0.0
H512 H 0.65206 0.88996 0.67077 0.0
H513 H 0.62133 0.83452 0.66745 0.0
H514 H 0.63679 0.91921 0.75289 0.0
H515 H 0.63245 0.94338 0.72052 0.0
H516 H 0.6255 0.78796 0.71259 0.0
H517 H 0.66512 0.82745 0.69622 0.0
H518 H 0.64174 0.75993 0.70335 0.0
H519 H 0.68083 0.79875 0.68734 0.0
H520 H 0.64028 0.81409 0.74329 0.0
H521 H 0.6047 0.86643 0.742 0.0
H522 H 0.62018 0.80231 0.75877 0.0
H523 H 0.5851 0.85371 0.75745 0.0
H524 H 0.72102 0.82437 0.73566 0.0
H525 H 0.68101 0.77482 0.73475 0.0
H526 H 0.54536 0.82553 0.71883 0.0
H527 H 0.58249 0.77872 0.73103 0.0
Li528 Li 0.41603 0.3663 0.96927 0.0
Li529 Li 0.41695 0.40278 0.97099 0.0
Li530 Li 0.38501 0.38404 0.97213 0.0
Li531 Li 0.4026 0.38659 0.95541 0.0
C532 C 0.42088 0.38205 0.99069 0.0
N533 N 0.44659 0.38076 0.00803 0.0
C534 C 0.4412 0.38199 0.9889 0.0
C535 C 0.41363 0.38139 1.00129 0.0
C536 C 0.45396 0.38137 0.99778 0.0
C537 C 0.42687 0.38074 0.00995 0.0
C538 C 0.43945 0.39252 0.95113 0.0
C539 C 0.44667 0.41894 0.93866 0.0
N540 N 0.45615 0.40598 0.93207 0.0
C541 C 0.44934 0.37948 0.94426 0.0
C542 C 0.43814 0.41243 0.94833 0.0
C543 C 0.45765 0.38656 0.93465 0.0
C544 C 0.43632 0.33336 0.96237 0.0
N545 N 0.43032 0.34248 0.97159 0.0
C546 C 0.44709 0.3186 0.98245 0.0
C547 C 0.43492 0.33512 0.98154 0.0
C548 C 0.45437 0.30947 0.97303 0.0
C549 C 0.44843 0.31681 0.96289 0.0
H550 H 0.43184 0.33913 0.95458 0.0
H551 H 0.42946 0.34219 0.98878 0.0
C552 C 0.42329 0.43875 0.98248 0.0
N553 N 0.43201 0.42421 0.97663 0.0
C554 C 0.43468 0.45383 0.98703 0.0
C555 C 0.46371 0.43864 0.97941 0.0
C556 C 0.4518 0.42395 0.975 0.0
C557 C 0.45523 0.45387 0.98554 0.0
H558 H 0.40751 0.43855 0.98369 0.0
H559 H 0.45841 0.4121 0.97042 0.0
C560 C 0.38209 0.34559 0.96518 0.0
N561 N 0.3646 0.31119 0.97231 0.0
C562 C 0.37297 0.33294 0.95779 0.0
C563 C 0.38232 0.34073 0.97621 0.0
C564 C 0.3642 0.31562 0.96155 0.0
C565 C 0.3734 0.32328 0.97964 0.0
C566 C 0.38022 0.42067 0.95788 0.0
C567 C 0.36291 0.41369 0.95313 0.0
C568 C 0.3861 0.44014 0.95614 0.0
C569 C 0.35175 0.42633 0.94663 0.0
C570 C 0.37453 0.45232 0.9496 0.0
N571 N 0.35775 0.44522 0.94501 0.0
C572 C 0.35669 0.39117 0.98866 0.0
C573 C 0.34431 0.37583 0.9728 0.0
C574 C 0.33791 0.39119 0.99331 0.0
N575 N 0.3595 0.38356 0.97858 0.0
C576 C 0.32531 0.37561 0.97711 0.0
C577 C 0.32186 0.38338 0.98751 0.0
H578 H 0.36904 0.39729 0.99305 0.0
H579 H 0.34691 0.36998 0.96477 0.0
C580 C 0.40052 0.36867 0.93533 0.0
N581 N 0.39946 0.38684 0.93992 0.0
C582 C 0.39836 0.36636 0.92415 0.0
C583 C 0.39406 0.40156 0.92253 0.0
C584 C 0.39666 0.40323 0.93375 0.0
C585 C 0.39486 0.38292 0.91763 0.0
H586 H 0.40308 0.35592 0.9404 0.0
H587 H 0.39654 0.41761 0.93746 0.0
O588 O 0.40807 0.38274 0.98214 0.0
O589 O 0.43063 0.38583 0.9604 0.0
O590 O 0.39068 0.36259 0.96155 0.0
O591 O 0.39141 0.40857 0.96423 0.0
H592 H 0.44705 0.38218 0.98074 0.0
H593 H 0.39793 0.38133 0.0028 0.0
H594 H 0.46972 0.3813 0.99652 0.0
H595 H 0.42146 0.3802 0.0182 0.0
H596 H 0.44564 0.43428 0.93636 0.0
H597 H 0.45057 0.36405 0.94629 0.0
H598 H 0.43032 0.42269 0.95348 0.0
H599 H 0.46529 0.37662 0.92924 0.0
H600 H 0.45122 0.31343 0.99044 0.0
H601 H 0.45318 0.30991 0.95542 0.0
H602 H 0.42745 0.46537 0.9916 0.0
H603 H 0.47948 0.43779 0.9782 0.0
H604 H 0.37265 0.33649 0.94923 0.0
H605 H 0.38926 0.35029 0.98208 0.0
H606 H 0.35708 0.30571 0.95591 0.0
H607 H 0.37347 0.31936 0.98815 0.0
H608 H 0.3583 0.3986 0.9543 0.0
H609 H 0.39948 0.44573 0.95978 0.0
H610 H 0.33837 0.4211 0.94284 0.0
H611 H 0.3789 0.46741 0.94815 0.0
H612 H 0.33603 0.39713 1.0014 0.0
H613 H 0.31341 0.36974 0.97225 0.0
H614 H 0.39905 0.35174 0.92067 0.0
H615 H 0.39169 0.4147 0.91772 0.0
Li616 Li 0.85246 0.1687 0.22097 0.0
Li617 Li 0.8884 0.16729 0.22009 0.0
Li618 Li 0.86786 0.15331 0.2048 0.0
Li619 Li 0.87058 0.13615 0.22229 0.0
C620 C 0.86248 0.1978 0.20572 0.0
N621 N 0.84708 0.23198 0.19699 0.0
C622 C 0.86912 0.21615 0.20931 0.0
C623 C 0.84831 0.19684 0.19752 0.0
C624 C 0.86106 0.23326 0.20485 0.0
C625 C 0.84063 0.21428 0.19325 0.0
C626 C 0.88107 0.16378 0.24162 0.0
C627 C 0.90752 0.15761 0.25423 0.0
N628 N 0.9017 0.17341 0.2602 0.0
C629 C 0.87521 0.17982 0.24795 0.0
C630 C 0.89722 0.15246 0.24483 0.0
C631 C 0.88589 0.1845 0.25728 0.0
C632 C 0.8129 0.17738 0.22763 0.0
N633 N 0.83146 0.18458 0.22643 0.0
C634 C 0.82165 0.21561 0.23384 0.0
C635 C 0.83605 0.20322 0.22954 0.0
C636 C 0.80229 0.20871 0.23508 0.0
C637 C 0.79799 0.18927 0.23192 0.0
H638 H 0.80969 0.16235 0.22534 0.0
H639 H 0.85106 0.20836 0.2289 0.0
C640 C 0.92876 0.17752 0.21841 0.0
N641 N 0.91136 0.18234 0.22316 0.0
C642 C 0.94519 0.1897 0.21967 0.0
C643 C 0.92553 0.21142 0.23079 0.0
C644 C 0.9095 0.19886 0.22929 0.0
C645 C 0.94362 0.20708 0.22581 0.0
H646 H 0.92972 0.16459 0.21333 0.0
H647 H 0.89537 0.20264 0.23273 0.0
C648 C 0.83024 0.13659 0.20822 0.0
N649 N 0.79817 0.124 0.1963 0.0
C650 C 0.82631 0.11648 0.20716 0.0
C651 C 0.81768 0.15029 0.20337 0.0
C652 C 0.81007 0.1104 0.20106 0.0
C653 C 0.80159 0.14364 0.19733 0.0
C654 C 0.90429 0.1268 0.2108 0.0
C655 C 0.90245 0.114 0.20198 0.0
C656 C 0.91901 0.12351 0.21851 0.0
C657 C 0.91509 0.09784 0.20116 0.0
C658 C 0.93137 0.10719 0.2174 0.0
N659 N 0.92915 0.09478 0.20883 0.0
C660 C 0.87791 0.16271 0.18339 0.0
C661 C 0.85863 0.13375 0.18482 0.0
C662 C 0.87996 0.15997 0.17222 0.0
N663 N 0.86744 0.14965 0.18944 0.0
C664 C 0.8602 0.13049 0.17366 0.0
C665 C 0.87119 0.14357 0.16723 0.0
H666 H 0.88505 0.17505 0.1873 0.0
H667 H 0.85101 0.12317 0.18981 0.0
C668 C 0.86942 0.10805 0.2395 0.0
N669 N 0.87074 0.11042 0.22857 0.0
C670 C 0.86946 0.08917 0.24404 0.0
C671 C 0.87202 0.07554 0.22599 0.0
C672 C 0.87175 0.09464 0.22181 0.0
C673 C 0.87089 0.07262 0.23725 0.0
H674 H 0.86825 0.12081 0.2447 0.0
H675 H 0.87209 0.09687 0.21314 0.0
O676 O 0.87023 0.18089 0.21 0.0
O677 O 0.87092 0.15908 0.23239 0.0
O678 O 0.84613 0.14277 0.21413 0.0
O679 O 0.892 0.14267 0.21174 0.0
H680 H 0.88029 0.21719 0.21554 0.0
H681 H 0.84344 0.18281 0.19439 0.0
H682 H 0.86594 0.24755 0.20764 0.0
H683 H 0.82959 0.21374 0.18693 0.0
H684 H 0.92009 0.14901 0.25678 0.0
H685 H 0.86262 0.18861 0.24565 0.0
H686 H 0.90168 0.13977 0.24017 0.0
H687 H 0.8816 0.19695 0.26222 0.0
H688 H 0.82576 0.2303 0.23639 0.0
H689 H 0.78326 0.18334 0.23271 0.0
H690 H 0.95873 0.18594 0.21553 0.0
H691 H 0.92366 0.22456 0.23566 0.0
H692 H 0.83574 0.10567 0.21096 0.0
H693 H 0.82016 0.1659 0.20435 0.0
H694 H 0.80693 0.09488 0.20011 0.0
H695 H 0.79178 0.1541 0.19351 0.0
H696 H 0.89126 0.11639 0.19589 0.0
H697 H 0.92099 0.13352 0.22523 0.0
H698 H 0.91372 0.08773 0.19442 0.0
H699 H 0.94277 0.10444 0.22334 0.0
H700 H 0.88843 0.17049 0.16756 0.0
H701 H 0.85351 0.11747 0.17018 0.0
H702 H 0.86858 0.08756 0.25277 0.0
H703 H 0.87274 0.06319 0.22046 0.0
Li704 Li 0.8853 0.62206 0.97293 0.0
Li705 Li 0.91609 0.6045 0.97207 0.0
Li706 Li 0.9157 0.64 0.97042 0.0
Li707 Li 0.903 0.61974 0.95589 0.0
C708 C 0.90338 0.63618 0.99164 0.0
N709 N 0.89437 0.66079 0.00877 0.0
C710 C 0.91025 0.63188 1.00206 0.0
C711 C 0.89194 0.65301 0.98993 0.0
C712 C 0.90552 0.6445 0.01062 0.0
C713 C 0.88754 0.66526 0.9987 0.0
C714 C 0.88199 0.58207 0.96911 0.0
C715 C 0.86129 0.55331 0.96786 0.0
N716 N 0.86329 0.55043 0.97872 0.0
C717 C 0.88385 0.57883 0.98026 0.0
C718 C 0.87063 0.56923 0.96285 0.0
C719 C 0.87428 0.56275 0.98497 0.0
C720 C 0.84443 0.62855 0.97265 0.0
N721 N 0.85948 0.62252 0.97911 0.0
C722 C 0.83718 0.61656 0.99377 0.0
C723 C 0.85624 0.61661 0.9895 0.0
C724 C 0.82129 0.62271 0.98729 0.0
C725 C 0.82514 0.62883 0.9766 0.0
H726 H 0.84741 0.63299 0.96439 0.0
H727 H 0.86845 0.61184 0.99448 0.0
C728 C 0.94596 0.58943 0.98497 0.0
N729 N 0.93197 0.58374 0.97775 0.0
C730 C 0.9588 0.57563 0.98947 0.0
C731 C 0.94259 0.55024 0.97903 0.0
C732 C 0.93014 0.56461 0.97466 0.0
C733 C 0.95721 0.55566 0.98656 0.0
H734 H 0.94724 0.60481 0.98715 0.0
H735 H 0.91905 0.56048 0.96879 0.0
C736 C 0.89136 0.65875 0.95516 0.0
N737 N 0.89284 0.68932 0.94039 0.0
C738 C 0.9091 0.66355 0.95006 0.0
C739 C 0.87438 0.66951 0.95276 0.0
C740 C 0.90955 0.67905 0.94261 0.0
C741 C 0.87543 0.68492 0.94527 0.0
C742 C 0.94274 0.60931 0.95545 0.0
C743 C 0.96233 0.61491 0.9539 0.0
C744 C 0.9359 0.59169 0.95096 0.0
C745 C 0.97479 0.60278 0.94786 0.0
C746 C 0.94882 0.57996 0.94497 0.0
N747 N 0.96783 0.5857 0.94355 0.0
C748 C 0.95003 0.65938 0.97633 0.0
C749 C 0.92351 0.68139 0.97337 0.0
C750 C 0.9629 0.67507 0.97808 0.0
N751 N 0.93086 0.66279 0.97384 0.0
C752 C 0.93594 0.69756 0.97491 0.0
C753 C 0.95604 0.69455 0.97714 0.0
H754 H 0.95539 0.6444 0.97676 0.0
H755 H 0.90814 0.68372 0.97148 0.0
C756 C 0.88219 0.61263 0.9364 0.0
N757 N 0.89979 0.61863 0.9405 0.0
C758 C 0.87854 0.61375 0.92525 0.0
C759 C 0.9113 0.62689 0.92274 0.0
C760 C 0.91434 0.62541 0.93391 0.0
C761 C 0.8931 0.6213 0.91829 0.0
H762 H 0.87079 0.60753 0.94185 0.0
H763 H 0.92815 0.63027 0.93734 0.0
O764 O 0.90795 0.62388 0.98322 0.0
O765 O 0.89108 0.59777 0.96428 0.0
O766 O 0.89043 0.64349 0.9624 0.0
O767 O 0.93047 0.62102 0.96143 0.0
H768 H 0.91912 0.6189 0.0035 0.0
H769 H 0.88644 0.65659 0.98194 0.0
H770 H 0.91073 0.64134 0.01873 0.0
H771 H 0.87869 0.67832 0.99749 0.0
H772 H 0.85245 0.54326 0.96311 0.0
H773 H 0.8926 0.58856 0.98525 0.0
H774 H 0.86904 0.57158 0.95421 0.0
H775 H 0.8756 0.56006 0.99359 0.0
H776 H 0.83493 0.61192 1.00208 0.0
H777 H 0.81333 0.63344 0.97128 0.0
H778 H 0.97005 0.58064 0.99504 0.0
H779 H 0.94063 0.53505 0.97661 0.0
H780 H 0.92241 0.65544 0.95183 0.0
H781 H 0.86052 0.66598 0.95664 0.0
H782 H 0.92318 0.68291 0.9386 0.0
H783 H 0.8624 0.69336 0.94333 0.0
H784 H 0.96784 0.6285 0.95735 0.0
H785 H 0.9208 0.58709 0.95207 0.0
H786 H 0.98999 0.60693 0.94659 0.0
H787 H 0.94373 0.56628 0.94145 0.0
H788 H 0.97811 0.67193 0.98006 0.0
H789 H 0.92993 0.71223 0.97399 0.0
H790 H 0.86425 0.60944 0.92216 0.0
H791 H 0.923 0.63257 0.91766 0.0
Li792 Li 0.15139 0.16615 0.7205 0.0
Li793 Li 0.13516 0.13516 0.72228 0.0
Li794 Li 0.1386 0.15117 0.70415 0.0
Li795 Li 0.11633 0.16561 0.71854 0.0
C796 C 0.17536 0.13258 0.71913 0.0
N797 N 0.20678 0.11574 0.72992 0.0
C798 C 0.17729 0.13488 0.73035 0.0
C799 C 0.1894 0.12173 0.7134 0.0
C800 C 0.19328 0.12625 0.73565 0.0
C801 C 0.20518 0.11333 0.719 0.0
C802 C 0.11978 0.15477 0.74028 0.0
C803 C 0.08946 0.1416 0.74742 0.0
N804 N 0.09554 0.14609 0.75763 0.0
C805 C 0.12571 0.15932 0.75084 0.0
C806 C 0.10151 0.14589 0.73854 0.0
C807 C 0.11326 0.15479 0.75951 0.0
C808 C 0.16655 0.1956 0.73399 0.0
N809 N 0.1719 0.1825 0.72619 0.0
C810 C 0.20518 0.19393 0.72683 0.0
C811 C 0.19076 0.18145 0.72254 0.0
C812 C 0.20003 0.20774 0.73484 0.0
C813 C 0.18041 0.20849 0.7384 0.0
H814 H 0.15141 0.19613 0.73671 0.0
H815 H 0.19458 0.17104 0.71625 0.0
C816 C 0.1311 0.09409 0.7223 0.0
N817 N 0.13465 0.10971 0.72891 0.0
C818 C 0.13068 0.07499 0.72651 0.0
C819 C 0.13809 0.08832 0.74422 0.0
C820 C 0.13823 0.10719 0.73968 0.0
C821 C 0.13421 0.0719 0.73761 0.0
H822 H 0.12864 0.09649 0.71373 0.0
H823 H 0.14136 0.11978 0.74474 0.0
C824 C 0.14575 0.19578 0.70749 0.0
N825 N 0.16791 0.22969 0.70557 0.0
C826 C 0.13997 0.21294 0.71287 0.0
C827 C 0.1627 0.19588 0.70107 0.0
C828 C 0.15141 0.22993 0.71182 0.0
C829 C 0.17373 0.21318 0.70022 0.0
C830 C 0.0988 0.13108 0.70656 0.0
C831 C 0.09289 0.13661 0.69613 0.0
C832 C 0.08816 0.11667 0.71215 0.0
C833 C 0.07639 0.12769 0.69149 0.0
C834 C 0.07174 0.10809 0.70723 0.0
N835 N 0.06624 0.11373 0.69709 0.0
C836 C 0.14325 0.1276 0.68544 0.0
C837 C 0.13711 0.16138 0.68197 0.0
C838 C 0.14243 0.12337 0.67434 0.0
N839 N 0.14043 0.14632 0.689 0.0
C840 C 0.13618 0.15782 0.67083 0.0
C841 C 0.13861 0.13855 0.66687 0.0
H842 H 0.14563 0.11589 0.69124 0.0
H843 H 0.13451 0.17606 0.68505 0.0
C844 C 0.09265 0.19446 0.7285 0.0
N845 N 0.09264 0.1802 0.72076 0.0
C846 C 0.07634 0.20681 0.72977 0.0
C847 C 0.06012 0.18919 0.71528 0.0
C848 C 0.07676 0.17728 0.71426 0.0
C849 C 0.05987 0.20444 0.72298 0.0
H850 H 0.10557 0.19658 0.7335 0.0
H851 H 0.07708 0.16603 0.70812 0.0
O852 O 0.15979 0.14078 0.71372 0.0
O853 O 0.13197 0.15901 0.73176 0.0
O854 O 0.13511 0.17883 0.7087 0.0
O855 O 0.11511 0.13944 0.71118 0.0
H856 H 0.16661 0.14324 0.73493 0.0
H857 H 0.18808 0.11981 0.70471 0.0
H858 H 0.19496 0.1279 0.74433 0.0
H859 H 0.21616 0.10489 0.71467 0.0
H860 H 0.07527 0.13473 0.74618 0.0
H861 H 0.13984 0.1662 0.75232 0.0
H862 H 0.09661 0.14243 0.73044 0.0
H863 H 0.11768 0.15817 0.76773 0.0
H864 H 0.22011 0.19301 0.72379 0.0
H865 H 0.17587 0.21878 0.74462 0.0
H866 H 0.12795 0.06275 0.72109 0.0
H867 H 0.1408 0.08663 0.75282 0.0
H868 H 0.12692 0.21307 0.7179 0.0
H869 H 0.16744 0.18265 0.69693 0.0
H870 H 0.14719 0.24329 0.71599 0.0
H871 H 0.18696 0.21344 0.69534 0.0
H872 H 0.10076 0.1479 0.69172 0.0
H873 H 0.09252 0.11212 0.72021 0.0
H874 H 0.07162 0.13189 0.68344 0.0
H875 H 0.06337 0.09693 0.71147 0.0
H876 H 0.1446 0.10834 0.67167 0.0
H877 H 0.13287 0.16993 0.66541 0.0
H878 H 0.07691 0.21848 0.73574 0.0
H879 H 0.04766 0.18657 0.70999 0.0
Li880 Li 0.58864 0.40162 0.47123 0.0
Li881 Li 0.61943 0.38406 0.47318 0.0
Li882 Li 0.60375 0.38608 0.45556 0.0
Li883 Li 0.58958 0.36598 0.46964 0.0
C884 C 0.61358 0.42519 0.45852 0.0
N885 N 0.61178 0.45957 0.44657 0.0
C886 C 0.63022 0.43715 0.45752 0.0
C887 C 0.59603 0.4307 0.45344 0.0
C888 C 0.62901 0.45448 0.45145 0.0
C889 C 0.59542 0.44813 0.44743 0.0
C890 C 0.59834 0.39178 0.49224 0.0
C891 C 0.59281 0.39451 0.5115 0.0
N892 N 0.60339 0.41151 0.51163 0.0
C893 C 0.60914 0.4093 0.49256 0.0
C894 C 0.59007 0.38432 0.50177 0.0
C895 C 0.61153 0.41905 0.50245 0.0
C896 C 0.55377 0.41744 0.47928 0.0
N897 N 0.57252 0.4225 0.47664 0.0
C898 C 0.56705 0.45552 0.48267 0.0
C899 C 0.57938 0.44108 0.47829 0.0
C900 C 0.54762 0.45068 0.48555 0.0
C901 C 0.54102 0.43134 0.4838 0.0
H902 H 0.54879 0.40249 0.47798 0.0
H903 H 0.59449 0.44465 0.47635 0.0
C904 C 0.66037 0.38711 0.47324 0.0
N905 N 0.64485 0.3833 0.47988 0.0
C906 C 0.6796 0.38657 0.47726 0.0
C907 C 0.66656 0.3784 0.49493 0.0
C908 C 0.6476 0.37872 0.49053 0.0
C909 C 0.68284 0.38232 0.48825 0.0
H910 H 0.65776 0.3905 0.46478 0.0
H911 H 0.63513 0.37519 0.49561 0.0
C912 C 0.56396 0.37535 0.45292 0.0
N913 N 0.53993 0.35553 0.43851 0.0
C914 C 0.57153 0.35998 0.44664 0.0
C915 C 0.54418 0.38065 0.45187 0.0
C916 C 0.55915 0.35014 0.4394 0.0
C917 C 0.53226 0.37045 0.44454 0.0
C918 C 0.62445 0.34579 0.46626 0.0
C919 C 0.63554 0.33408 0.45924 0.0
C920 C 0.62256 0.34034 0.47716 0.0
C921 C 0.64462 0.31709 0.46323 0.0
C922 C 0.63188 0.32326 0.48083 0.0
N923 N 0.64262 0.31209 0.47385 0.0
C924 C 0.62523 0.3788 0.43656 0.0
C925 C 0.59539 0.39594 0.43343 0.0
C926 C 0.62891 0.37777 0.42543 0.0
N927 N 0.6086 0.38756 0.44031 0.0
C928 C 0.59852 0.39535 0.42223 0.0
C929 C 0.61534 0.38591 0.41806 0.0
H930 H 0.63544 0.3722 0.44222 0.0
H931 H 0.58219 0.40271 0.4366 0.0
C932 C 0.55978 0.34359 0.47966 0.0
N933 N 0.57446 0.3428 0.47218 0.0
C934 C 0.54695 0.32766 0.48095 0.0
C935 C 0.5648 0.31035 0.46693 0.0
C936 C 0.57733 0.32654 0.46595 0.0
C937 C 0.54919 0.31089 0.4744 0.0
H938 H 0.55771 0.35683 0.48441 0.0
H939 H 0.58899 0.32633 0.45999 0.0
O940 O 0.61466 0.40815 0.46441 0.0
O941 O 0.59552 0.38204 0.48265 0.0
O942 O 0.57572 0.38516 0.46013 0.0
O943 O 0.61554 0.36248 0.46243 0.0
H944 H 0.64392 0.43306 0.4614 0.0
H945 H 0.58297 0.42168 0.45414 0.0
H946 H 0.64178 0.46389 0.4506 0.0
H947 H 0.58192 0.45258 0.44346 0.0
H948 H 0.5865 0.3889 0.51894 0.0
H949 H 0.61566 0.4153 0.48528 0.0
H950 H 0.58161 0.37081 0.50164 0.0
H951 H 0.61986 0.43261 0.50282 0.0
H952 H 0.57279 0.47019 0.48403 0.0
H953 H 0.52612 0.42703 0.48583 0.0
H954 H 0.69179 0.38972 0.47186 0.0
H955 H 0.66852 0.3748 0.50343 0.0
H956 H 0.58679 0.35563 0.44736 0.0
H957 H 0.5381 0.39251 0.45669 0.0
H958 H 0.56481 0.3382 0.4345 0.0
H959 H 0.51692 0.37438 0.44365 0.0
H960 H 0.6371 0.33805 0.45078 0.0
H961 H 0.614 0.34913 0.48273 0.0
H962 H 0.65325 0.30789 0.45787 0.0
H963 H 0.63055 0.31888 0.48924 0.0
H964 H 0.64193 0.37011 0.42263 0.0
H965 H 0.58779 0.40208 0.4169 0.0
H966 H 0.53499 0.32876 0.48673 0.0
H967 H 0.56718 0.29762 0.4618 0.0
Li968 Li 0.35352 0.83998 0.22132 0.0
Li969 Li 0.37134 0.87059 0.22239 0.0
Li970 Li 0.36964 0.85297 0.20533 0.0
Li971 Li 0.38902 0.84 0.22011 0.0
C972 C 0.33151 0.87421 0.218 0.0
N973 N 0.29943 0.89302 0.22708 0.0
C974 C 0.32743 0.87206 0.22905 0.0
C975 C 0.31926 0.88591 0.21157 0.0
C976 C 0.31115 0.8817 0.23349 0.0
C977 C 0.30311 0.8953 0.21631 0.0
C978 C 0.38456 0.85247 0.24127 0.0
C979 C 0.41329 0.86846 0.24867 0.0
N980 N 0.40857 0.86146 0.25867 0.0
C981 C 0.37998 0.84547 0.25162 0.0
C982 C 0.40134 0.86409 0.23977 0.0
C983 C 0.3923 0.85017 0.26032 0.0
C984 C 0.33694 0.81263 0.23536 0.0
N985 N 0.33229 0.82457 0.2269 0.0
C986 C 0.29908 0.81287 0.227 0.0
C987 C 0.3138 0.82496 0.22267 0.0
C988 C 0.30345 0.8004 0.23579 0.0
C989 C 0.32268 0.80043 0.23998 0.0
H990 H 0.35183 0.81248 0.23847 0.0
H991 H 0.31048 0.83461 0.21594 0.0
C992 C 0.37924 0.91131 0.22259 0.0
N993 N 0.37183 0.89634 0.22866 0.0
C994 C 0.37976 0.93047 0.22671 0.0
C995 C 0.36482 0.9185 0.24324 0.0
C996 C 0.36475 0.89954 0.23883 0.0
C997 C 0.3724 0.93428 0.23716 0.0
H998 H 0.38464 0.90836 0.2145 0.0
H999 H 0.35901 0.88739 0.24353 0.0
C1000 C 0.35849 0.81352 0.20462 0.0
N1001 N 0.33492 0.78926 0.19216 0.0
C1002 C 0.36361 0.79379 0.20308 0.0
C1003 C 0.3414 0.82092 0.19979 0.0
C1004 C 0.35151 0.78176 0.19676 0.0
C1005 C 0.32967 0.80842 0.19353 0.0
C1006 C 0.40891 0.86387 0.20522 0.0
C1007 C 0.41362 0.84596 0.20028 0.0
C1008 C 0.42028 0.88054 0.20301 0.0
C1009 C 0.4296 0.84504 0.19317 0.0
C1010 C 0.43616 0.87903 0.19586 0.0
N1011 N 0.44045 0.86146 0.19112 0.0
C1012 C 0.36311 0.87367 0.18568 0.0
C1013 C 0.37614 0.84157 0.18342 0.0
C1014 C 0.36433 0.87711 0.1745 0.0
N1015 N 0.36915 0.85619 0.1899 0.0
C1016 C 0.37771 0.8444 0.17225 0.0
C1017 C 0.37202 0.86245 0.16766 0.0
H1018 H 0.35779 0.88512 0.19103 0.0
H1019 H 0.38098 0.82783 0.18695 0.0
C1020 C 0.40814 0.80494 0.22466 0.0
N1021 N 0.41154 0.82456 0.22365 0.0
C1022 C 0.42376 0.79191 0.22615 0.0
C1023 C 0.44613 0.8196 0.22601 0.0
C1024 C 0.43002 0.83213 0.22447 0.0
C1025 C 0.44311 0.79915 0.22665 0.0
H1026 H 0.39325 0.79938 0.22407 0.0
H1027 H 0.43234 0.84781 0.22361 0.0
O1028 O 0.34738 0.865 0.21343 0.0
O1029 O 0.37253 0.84798 0.23271 0.0
O1030 O 0.37024 0.82541 0.21083 0.0
O1031 O 0.39327 0.86523 0.21218 0.0
H1032 H 0.33671 0.86308 0.23417 0.0
H1033 H 0.32222 0.8877 0.20299 0.0
H1034 H 0.30784 0.88017 0.24203 0.0
H1035 H 0.29351 0.90441 0.21142 0.0
H1036 H 0.42632 0.87743 0.24762 0.0
H1037 H 0.367 0.83652 0.25293 0.0
H1038 H 0.40511 0.86976 0.23185 0.0
H1039 H 0.38893 0.84484 0.26838 0.0
H1040 H 0.2844 0.81341 0.22358 0.0
H1041 H 0.32678 0.79086 0.24663 0.0
H1042 H 0.38553 0.94224 0.2217 0.0
H1043 H 0.3592 0.92074 0.25136 0.0
H1044 H 0.37683 0.78783 0.20673 0.0
H1045 H 0.3372 0.83615 0.20084 0.0
H1046 H 0.35529 0.76646 0.19551 0.0
H1047 H 0.3164 0.81396 0.18976 0.0
H1048 H 0.40506 0.83287 0.2019 0.0
H1049 H 0.41687 0.89452 0.20679 0.0
H1050 H 0.43338 0.83128 0.18928 0.0
H1051 H 0.44507 0.89183 0.19407 0.0
H1052 H 0.35993 0.8913 0.17131 0.0
H1053 H 0.38347 0.8326 0.16726 0.0
H1054 H 0.42074 0.77629 0.22679 0.0
H1055 H 0.46082 0.82578 0.22628 0.0
Li1056 Li 0.90401 0.38595 0.54966 0.0
Li1057 Li 0.91639 0.36554 0.53503 0.0
Li1058 Li 0.91692 0.40103 0.53329 0.0
Li1059 Li 0.88606 0.38352 0.53272 0.0
C1060 C 0.9441 0.39615 0.54968 0.0
N1061 N 0.97009 0.41954 0.56112 0.0
C1062 C 0.96395 0.39091 0.55039 0.0
C1063 C 0.93746 0.41328 0.55478 0.0
C1064 C 0.97686 0.40293 0.55622 0.0
C1065 C 0.95083 0.42491 0.56053 0.0
C1066 C 0.89287 0.34687 0.55055 0.0
C1067 C 0.87807 0.32002 0.56043 0.0
N1068 N 0.89566 0.31632 0.56529 0.0
C1069 C 0.91081 0.34278 0.55564 0.0
C1070 C 0.87636 0.33539 0.55296 0.0
C1071 C 0.91192 0.32729 0.56307 0.0
C1072 C 0.88321 0.39354 0.56902 0.0
N1073 N 0.90087 0.38745 0.56507 0.0
C1074 C 0.91234 0.38045 0.583 0.0
C1075 C 0.91542 0.38115 0.57181 0.0
C1076 C 0.89411 0.3863 0.58734 0.0
C1077 C 0.87951 0.39315 0.58018 0.0
H1078 H 0.87185 0.39834 0.56346 0.0
H1079 H 0.92926 0.37613 0.56849 0.0
C1080 C 0.9505 0.34636 0.52862 0.0
N1081 N 0.93159 0.34275 0.53158 0.0
C1082 C 0.96357 0.33082 0.52691 0.0
C1083 C 0.93732 0.30803 0.5311 0.0
C1084 C 0.92467 0.32405 0.53255 0.0
C1085 C 0.95722 0.31129 0.52842 0.0
H1086 H 0.95553 0.36141 0.52779 0.0
H1087 H 0.90948 0.32152 0.53477 0.0
C1088 C 0.88298 0.42369 0.53658 0.0
N1089 N 0.86421 0.45563 0.52732 0.0
C1090 C 0.88531 0.42769 0.52553 0.0
C1091 C 0.87113 0.43594 0.54292 0.0
C1092 C 0.8757 0.4439 0.521 0.0
C1093 C 0.86175 0.45202 0.53808 0.0
C1094 C 0.90322 0.36926 0.51393 0.0
C1095 C 0.90878 0.37389 0.50332 0.0
C1096 C 0.89238 0.35213 0.51593 0.0
C1097 C 0.90344 0.36128 0.49487 0.0
C1098 C 0.88733 0.33989 0.50726 0.0
N1099 N 0.89292 0.34468 0.497 0.0
C1100 C 0.94353 0.41722 0.51855 0.0
C1101 C 0.93313 0.44017 0.53184 0.0
C1102 C 0.95587 0.43125 0.51383 0.0
N1103 N 0.93252 0.42186 0.52739 0.0
C1104 C 0.94544 0.45463 0.52744 0.0
C1105 C 0.95711 0.45026 0.51831 0.0
H1106 H 0.94277 0.40253 0.5152 0.0
H1107 H 0.92423 0.44349 0.53888 0.0
C1108 C 0.84558 0.37444 0.53249 0.0
N1109 N 0.8602 0.38288 0.52658 0.0
C1110 C 0.82638 0.37369 0.52844 0.0
C1111 C 0.83755 0.39063 0.51235 0.0
C1112 C 0.8566 0.39074 0.51664 0.0
C1113 C 0.82203 0.382 0.51825 0.0
H1114 H 0.84886 0.36829 0.54038 0.0
H1115 H 0.86849 0.39725 0.51204 0.0
O1116 O 0.93137 0.38455 0.54393 0.0
O1117 O 0.89131 0.36209 0.54331 0.0
O1118 O 0.8922 0.40791 0.54124 0.0
O1119 O 0.90832 0.3816 0.52225 0.0
H1120 H 0.96931 0.37769 0.54648 0.0
H1121 H 0.92216 0.4176 0.5543 0.0
H1122 H 0.99227 0.39906 0.55684 0.0
H1123 H 0.94589 0.43822 0.56451 0.0
H1124 H 0.8654 0.31102 0.56237 0.0
H1125 H 0.92379 0.35138 0.55385 0.0
H1126 H 0.86237 0.33831 0.54908 0.0
H1127 H 0.92571 0.32397 0.56705 0.0
H1128 H 0.92393 0.37474 0.58815 0.0
H1129 H 0.86533 0.39804 0.58314 0.0
H1130 H 0.97856 0.33415 0.52456 0.0
H1131 H 0.93168 0.29333 0.53246 0.0
H1132 H 0.89439 0.41838 0.52048 0.0
H1133 H 0.86919 0.43304 0.55149 0.0
H1134 H 0.87735 0.44715 0.51246 0.0
H1135 H 0.85252 0.46162 0.54289 0.0
H1136 H 0.91711 0.38714 0.50164 0.0
H1137 H 0.88783 0.34831 0.52406 0.0
H1138 H 0.90764 0.36469 0.48662 0.0
H1139 H 0.87895 0.3266 0.5087 0.0
H1140 H 0.96424 0.42723 0.5067 0.0
H1141 H 0.94604 0.46895 0.53128 0.0
H1142 H 0.81514 0.36651 0.53324 0.0
H1143 H 0.83504 0.39752 0.50456 0.0
Li1144 Li 0.38965 0.16649 0.28513 0.0
Li1145 Li 0.36958 0.15369 0.29969 0.0
Li1146 Li 0.37158 0.13622 0.28258 0.0
Li1147 Li 0.35415 0.1671 0.28363 0.0
C1148 C 0.40862 0.14213 0.30017 0.0
N1149 N 0.43955 0.14379 0.31471 0.0
C1150 C 0.41334 0.15986 0.30531 0.0
C1151 C 0.41965 0.12525 0.30242 0.0
C1152 C 0.42902 0.1604 0.31263 0.0
C1153 C 0.43523 0.12638 0.3098 0.0
C1154 C 0.35925 0.19342 0.30037 0.0
C1155 C 0.33008 0.19931 0.31104 0.0
N1156 N 0.33588 0.21828 0.31256 0.0
C1157 C 0.36492 0.21296 0.30204 0.0
C1158 C 0.34169 0.18651 0.3049 0.0
C1159 C 0.35291 0.2253 0.30823 0.0
C1160 C 0.40911 0.20095 0.27961 0.0
N1161 N 0.41243 0.18159 0.28168 0.0
C1162 C 0.44719 0.18639 0.28017 0.0
C1163 C 0.43097 0.17404 0.28176 0.0
C1164 C 0.44426 0.20665 0.27837 0.0
C1165 C 0.42484 0.21377 0.27787 0.0
H1166 H 0.39417 0.20648 0.2795 0.0
H1167 H 0.43323 0.15855 0.28335 0.0
C1168 C 0.36274 0.13251 0.31908 0.0
N1169 N 0.36865 0.15021 0.31509 0.0
C1170 C 0.36392 0.12862 0.33021 0.0
C1171 C 0.37694 0.16137 0.33291 0.0
C1172 C 0.37543 0.16465 0.32176 0.0
C1173 C 0.37142 0.14306 0.33726 0.0
H1174 H 0.35765 0.12121 0.31357 0.0
H1175 H 0.38023 0.17854 0.31841 0.0
C1176 C 0.38547 0.15443 0.26388 0.0
N1177 N 0.40971 0.14543 0.24658 0.0
C1178 C 0.38104 0.16144 0.25351 0.0
C1179 C 0.40224 0.14284 0.26546 0.0
C1180 C 0.39348 0.15672 0.24486 0.0
C1181 C 0.41431 0.13845 0.25661 0.0
C1182 C 0.33159 0.13305 0.28658 0.0
C1183 C 0.32797 0.13532 0.27548 0.0
C1184 C 0.31899 0.12144 0.29284 0.0
C1185 C 0.31175 0.12589 0.27084 0.0
C1186 C 0.30292 0.11225 0.28789 0.0
N1187 N 0.29967 0.11465 0.27709 0.0
C1188 C 0.37897 0.09544 0.28235 0.0
C1189 C 0.36526 0.1075 0.26596 0.0
C1190 C 0.37946 0.07631 0.27818 0.0
N1191 N 0.37197 0.11054 0.27622 0.0
C1192 C 0.36531 0.08858 0.26151 0.0
C1193 C 0.37249 0.07267 0.26764 0.0
H1194 H 0.38407 0.09827 0.29051 0.0
H1195 H 0.35984 0.11975 0.26123 0.0
C1196 C 0.33909 0.19647 0.2704 0.0
N1197 N 0.33343 0.18312 0.27798 0.0
C1198 C 0.32535 0.20923 0.26577 0.0
C1199 C 0.30011 0.19435 0.2769 0.0
C1200 C 0.3144 0.18189 0.28135 0.0
C1201 C 0.3055 0.20826 0.26897 0.0
H1202 H 0.35439 0.19727 0.26799 0.0
H1203 H 0.31031 0.17124 0.28747 0.0
O1204 O 0.39322 0.14112 0.29303 0.0
O1205 O 0.37086 0.18126 0.29427 0.0
O1206 O 0.37335 0.15896 0.27238 0.0
O1207 O 0.34742 0.14201 0.29135 0.0
H1208 H 0.40505 0.1731 0.30365 0.0
H1209 H 0.4162 0.1114 0.29851 0.0
H1210 H 0.43282 0.17403 0.31666 0.0
H1211 H 0.44388 0.11343 0.31162 0.0
H1212 H 0.31645 0.19417 0.31459 0.0
H1213 H 0.37848 0.21852 0.29858 0.0
H1214 H 0.33704 0.17144 0.30372 0.0
H1215 H 0.35712 0.24047 0.30959 0.0
H1216 H 0.46185 0.18022 0.28072 0.0
H1217 H 0.42179 0.22914 0.27626 0.0
H1218 H 0.35968 0.11424 0.3332 0.0
H1219 H 0.38259 0.17299 0.33805 0.0
H1220 H 0.3681 0.17042 0.25216 0.0
H1221 H 0.40591 0.13721 0.2734 0.0
H1222 H 0.39022 0.16205 0.23679 0.0
H1223 H 0.42732 0.12949 0.25771 0.0
H1224 H 0.33753 0.14426 0.2705 0.0
H1225 H 0.32161 0.11953 0.30144 0.0
H1226 H 0.30878 0.12752 0.26226 0.0
H1227 H 0.29304 0.1032 0.29264 0.0
H1228 H 0.3849 0.06444 0.28323 0.0
H1229 H 0.36 0.08645 0.25331 0.0
H1230 H 0.33031 0.21993 0.25986 0.0
H1231 H 0.28498 0.19292 0.27955 0.0
Li1232 Li 0.58916 0.63966 0.03584 0.0
Li1233 Li 0.60373 0.61765 0.05044 0.0
Li1234 Li 0.61867 0.62056 0.0323 0.0
Li1235 Li 0.58805 0.60357 0.0337 0.0
C1236 C 0.62088 0.6599 0.04544 0.0
N1237 N 0.63224 0.69816 0.04977 0.0
C1238 C 0.61959 0.66734 0.05599 0.0
C1239 C 0.62815 0.67184 0.03712 0.0
C1240 C 0.62535 0.68674 0.058 0.0
C1241 C 0.63376 0.69116 0.03946 0.0
C1242 C 0.55819 0.61122 0.04658 0.0
C1243 C 0.53873 0.58401 0.05312 0.0
N1244 N 0.52273 0.59147 0.0479 0.0
C1245 C 0.54158 0.61866 0.0413 0.0
C1246 C 0.55679 0.59379 0.05255 0.0
C1247 C 0.52377 0.60844 0.04206 0.0
C1248 C 0.56368 0.66477 0.02428 0.0
N1249 N 0.57454 0.66319 0.03351 0.0
C1250 C 0.56221 0.69401 0.03993 0.0
C1251 C 0.57388 0.67729 0.04132 0.0
C1252 C 0.5507 0.69597 0.03053 0.0
C1253 C 0.55151 0.6811 0.02263 0.0
H1254 H 0.56413 0.65312 0.0183 0.0
H1255 H 0.58201 0.67535 0.04876 0.0
C1256 C 0.62712 0.6179 0.06934 0.0
N1257 N 0.60832 0.61656 0.06564 0.0
C1258 C 0.63084 0.61968 0.08045 0.0
C1259 C 0.59579 0.61827 0.08372 0.0
C1260 C 0.59275 0.61662 0.07256 0.0
C1261 C 0.61503 0.62017 0.08782 0.0
H1262 H 0.63919 0.61837 0.06362 0.0
H1263 H 0.57793 0.61598 0.06939 0.0
C1264 C 0.60053 0.62735 0.01257 0.0
N1265 N 0.61171 0.63481 0.99143 0.0
C1266 C 0.59989 0.61233 0.00484 0.0
C1267 C 0.60651 0.64624 0.00953 0.0
C1268 C 0.6057 0.61638 0.9942 0.0
C1269 C 0.61221 0.6497 0.99881 0.0
C1270 C 0.6279 0.58408 0.03731 0.0
C1271 C 0.62564 0.57282 0.0279 0.0
C1272 C 0.6458 0.58376 0.0429 0.0
C1273 C 0.6414 0.56144 0.02421 0.0
C1274 C 0.66123 0.57221 0.03893 0.0
N1275 N 0.65872 0.56139 0.02975 0.0
C1276 C 0.65876 0.63095 0.03085 0.0
C1277 C 0.648 0.61146 0.01607 0.0
C1278 C 0.67785 0.63153 0.02665 0.0
N1279 N 0.64423 0.62118 0.0255 0.0
C1280 C 0.66692 0.61155 0.01161 0.0
C1281 C 0.68216 0.62173 0.0169 0.0
H1282 H 0.65561 0.63807 0.03849 0.0
H1283 H 0.63647 0.60326 0.01211 0.0
C1284 C 0.55793 0.58918 0.02052 0.0
N1285 N 0.57132 0.58343 0.02807 0.0
C1286 C 0.54487 0.57557 0.01605 0.0
C1287 C 0.55962 0.55026 0.02718 0.0
C1288 C 0.57237 0.56443 0.03149 0.0
C1289 C 0.54564 0.55574 0.01931 0.0
H1290 H 0.55731 0.60445 0.01805 0.0
H1291 H 0.58311 0.5603 0.03756 0.0
O1292 O 0.61537 0.64091 0.04333 0.0
O1293 O 0.5759 0.62063 0.04563 0.0
O1294 O 0.5948 0.62368 0.02301 0.0
O1295 O 0.61277 0.59561 0.04092 0.0
H1296 H 0.61402 0.65829 0.06253 0.0
H1297 H 0.62959 0.66619 0.02896 0.0
H1298 H 0.62432 0.69274 0.06611 0.0
H1299 H 0.63938 0.70058 0.0331 0.0
H1300 H 0.53744 0.57043 0.05765 0.0
H1301 H 0.54247 0.63207 0.03658 0.0
H1302 H 0.5696 0.58772 0.05657 0.0
H1303 H 0.5108 0.61396 0.03798 0.0
H1304 H 0.56168 0.70498 0.0463 0.0
H1305 H 0.54281 0.68209 0.01529 0.0
H1306 H 0.64589 0.62144 0.08318 0.0
H1307 H 0.58315 0.61834 0.08908 0.0
H1308 H 0.59515 0.59765 0.00707 0.0
H1309 H 0.60663 0.65812 0.01537 0.0
H1310 H 0.60544 0.60486 0.98814 0.0
H1311 H 0.61696 0.66423 0.99635 0.0
H1312 H 0.61197 0.57312 0.0234 0.0
H1313 H 0.6478 0.59245 0.05016 0.0
H1314 H 0.6399 0.55274 0.01691 0.0
H1315 H 0.6752 0.57189 0.04313 0.0
H1316 H 0.68922 0.63921 0.03113 0.0
H1317 H 0.66955 0.60381 0.00407 0.0
H1318 H 0.53414 0.58061 0.01017 0.0
H1319 H 0.56091 0.53514 0.02987 0.0
Li1320 Li 0.13547 0.85221 0.80012 0.0
Li1321 Li 0.11558 0.83929 0.7856 0.0
Li1322 Li 0.15099 0.83856 0.78412 0.0
Li1323 Li 0.13376 0.86951 0.78295 0.0
C1324 C 0.14616 0.81276 0.80113 0.0
N1325 N 0.16992 0.78886 0.81371 0.0
C1326 C 0.14094 0.79313 0.80298 0.0
C1327 C 0.16344 0.82024 0.80571 0.0
C1328 C 0.15315 0.78129 0.80935 0.0
C1329 C 0.17526 0.80792 0.81203 0.0
C1330 C 0.09641 0.86377 0.80035 0.0
C1331 C 0.06919 0.87941 0.80948 0.0
N1332 N 0.06497 0.86212 0.81454 0.0
C1333 C 0.09179 0.84615 0.80563 0.0
C1334 C 0.08502 0.88054 0.80227 0.0
C1335 C 0.07585 0.84562 0.81278 0.0
C1336 C 0.14185 0.87412 0.81923 0.0
N1337 N 0.13635 0.85612 0.81548 0.0
C1338 C 0.12942 0.84517 0.83352 0.0
C1339 C 0.13026 0.8417 0.82237 0.0
C1340 C 0.13474 0.86371 0.83764 0.0
C1341 C 0.14115 0.87826 0.83034 0.0
H1342 H 0.14644 0.88537 0.81355 0.0
H1343 H 0.12557 0.82763 0.8192 0.0
C1344 C 0.09476 0.8046 0.78223 0.0
N1345 N 0.09249 0.82446 0.78239 0.0
C1346 C 0.0785 0.79231 0.78086 0.0
C1347 C 0.05787 0.82118 0.77939 0.0
C1348 C 0.07455 0.83292 0.78091 0.0
C1349 C 0.05965 0.80052 0.77951 0.0
H1350 H 0.10921 0.79829 0.78341 0.0
H1351 H 0.07311 0.84877 0.78112 0.0
C1352 C 0.17372 0.8724 0.78702 0.0
N1353 N 0.20596 0.89032 0.77757 0.0
C1354 C 0.17733 0.87012 0.77593 0.0
C1355 C 0.18651 0.88377 0.7933 0.0
C1356 C 0.19371 0.8793 0.7713 0.0
C1357 C 0.20273 0.89271 0.78838 0.0
C1358 C 0.11968 0.85121 0.7643 0.0
C1359 C 0.12344 0.84331 0.75404 0.0
C1360 C 0.10356 0.86374 0.76576 0.0
C1361 C 0.11096 0.84802 0.74542 0.0
C1362 C 0.09143 0.86809 0.75694 0.0
N1363 N 0.09534 0.86021 0.74703 0.0
C1364 C 0.16698 0.8109 0.77003 0.0
C1365 C 0.19039 0.82281 0.78267 0.0
C1366 C 0.18098 0.79843 0.7654 0.0
N1367 N 0.17187 0.82275 0.77848 0.0
C1368 C 0.20485 0.81041 0.77835 0.0
C1369 C 0.20024 0.79793 0.76959 0.0
H1370 H 0.15212 0.81112 0.76689 0.0
H1371 H 0.19391 0.83235 0.78942 0.0
C1372 C 0.12716 0.91035 0.78292 0.0
N1373 N 0.13367 0.89524 0.77666 0.0
C1374 C 0.12693 0.92956 0.77886 0.0
C1375 C 0.14023 0.91732 0.76198 0.0
C1376 C 0.14012 0.89834 0.76635 0.0
C1377 C 0.13358 0.9333 0.76825 0.0
H1378 H 0.12215 0.90745 0.79109 0.0
H1379 H 0.14529 0.88608 0.76154 0.0
O1380 O 0.1343 0.82447 0.79487 0.0
O1381 O 0.11199 0.86476 0.79332 0.0
O1382 O 0.15777 0.86364 0.79178 0.0
O1383 O 0.13187 0.84671 0.77279 0.0
H1384 H 0.12757 0.78711 0.79955 0.0
H1385 H 0.16772 0.83538 0.80446 0.0
H1386 H 0.14929 0.76607 0.81084 0.0
H1387 H 0.18867 0.81352 0.81562 0.0
H1388 H 0.06026 0.89229 0.81105 0.0
H1389 H 0.10037 0.833 0.80424 0.0
H1390 H 0.08838 0.89429 0.79823 0.0
H1391 H 0.07212 0.83208 0.81693 0.0
H1392 H 0.12406 0.83363 0.83882 0.0
H1393 H 0.14553 0.8927 0.83317 0.0
H1394 H 0.08067 0.77653 0.78121 0.0
H1395 H 0.04374 0.82823 0.77821 0.0
H1396 H 0.16763 0.86138 0.77092 0.0
H1397 H 0.1839 0.88567 0.80191 0.0
H1398 H 0.19667 0.87767 0.76273 0.0
H1399 H 0.21275 0.90157 0.79314 0.0
H1400 H 0.1359 0.83366 0.75276 0.0
H1401 H 0.10045 0.87012 0.7736 0.0
H1402 H 0.11369 0.842 0.73743 0.0
H1403 H 0.07891 0.87776 0.75796 0.0
H1404 H 0.17676 0.7894 0.75855 0.0
H1405 H 0.21938 0.8104 0.78196 0.0
H1406 H 0.12141 0.94131 0.78395 0.0
H1407 H 0.14576 0.91948 0.75383 0.0
Li1408 Li 0.61927 0.88466 0.53236 0.0
Li1409 Li 0.60197 0.88746 0.54978 0.0
Li1410 Li 0.58837 0.86666 0.53459 0.0
Li1411 Li 0.58652 0.90266 0.53351 0.0
C1412 C 0.62891 0.85112 0.54353 0.0
N1413 N 0.66137 0.82665 0.54453 0.0
C1414 C 0.64105 0.85124 0.55269 0.0
C1415 C 0.63312 0.83833 0.53496 0.0
C1416 C 0.65743 0.83882 0.55302 0.0
C1417 C 0.64964 0.82614 0.5356 0.0
C1418 C 0.61872 0.9252 0.54614 0.0
C1419 C 0.61213 0.9556 0.5556 0.0
N1420 N 0.63173 0.95778 0.55751 0.0
C1421 C 0.63882 0.92792 0.54806 0.0
C1422 C 0.60528 0.93929 0.54982 0.0
C1423 C 0.64509 0.94442 0.55388 0.0
C1424 C 0.64759 0.8864 0.51526 0.0
N1425 N 0.64509 0.88462 0.52616 0.0
C1426 C 0.67991 0.88281 0.52884 0.0
C1427 C 0.66078 0.8831 0.53296 0.0
C1428 C 0.68299 0.88448 0.51762 0.0
C1429 C 0.66653 0.88643 0.51079 0.0
H1430 H 0.63488 0.88785 0.51003 0.0
H1431 H 0.65845 0.88226 0.54161 0.0
C1432 C 0.59156 0.87974 0.57146 0.0
N1433 N 0.60563 0.88818 0.56514 0.0
C1434 C 0.5943 0.87806 0.58264 0.0
C1435 C 0.62604 0.8937 0.58066 0.0
C1436 C 0.62264 0.89514 0.56951 0.0
C1437 C 0.61184 0.88486 0.58739 0.0
H1438 H 0.57837 0.87385 0.56777 0.0
H1439 H 0.63396 0.90104 0.5643 0.0
C1440 C 0.58993 0.87425 0.51318 0.0
N1441 N 0.57665 0.8543 0.49507 0.0
C1442 C 0.5723 0.87979 0.5082 0.0
C1443 C 0.60098 0.8588 0.50883 0.0
C1444 C 0.56578 0.86945 0.49908 0.0
C1445 C 0.59398 0.84883 0.4997 0.0
C1446 C 0.55817 0.89266 0.54948 0.0
C1447 C 0.53954 0.88465 0.54753 0.0
C1448 C 0.56013 0.90833 0.55674 0.0
C1449 C 0.52313 0.89276 0.5527 0.0
C1450 C 0.54338 0.91602 0.56176 0.0
N1451 N 0.52537 0.90816 0.55964 0.0
C1452 C 0.57988 0.82578 0.53556 0.0
C1453 C 0.55587 0.8452 0.52662 0.0
C1454 C 0.56807 0.80903 0.53453 0.0
N1455 N 0.57357 0.84341 0.53167 0.0
C1456 C 0.54364 0.82884 0.52536 0.0
C1457 C 0.54956 0.81049 0.52949 0.0
H1458 H 0.59379 0.82481 0.53977 0.0
H1459 H 0.5509 0.85951 0.52393 0.0
C1460 C 0.57896 0.94116 0.5251 0.0
N1461 N 0.57068 0.92371 0.52802 0.0
C1462 C 0.5673 0.95625 0.52079 0.0
C1463 C 0.5389 0.93506 0.52249 0.0
C1464 C 0.55109 0.92039 0.52669 0.0
C1465 C 0.54695 0.95329 0.51946 0.0
H1466 H 0.59464 0.94332 0.52606 0.0
H1467 H 0.54497 0.90617 0.52867 0.0
O1468 O 0.61293 0.86335 0.54302 0.0
O1469 O 0.61234 0.90918 0.54039 0.0
O1470 O 0.59646 0.88407 0.52218 0.0
O1471 O 0.57439 0.8849 0.54447 0.0
H1472 H 0.63794 0.86089 0.55944 0.0
H1473 H 0.62369 0.83778 0.52792 0.0
H1474 H 0.66702 0.83886 0.56003 0.0
H1475 H 0.65311 0.81625 0.52899 0.0
H1476 H 0.60187 0.96656 0.55852 0.0
H1477 H 0.64946 0.91735 0.54515 0.0
H1478 H 0.58975 0.9378 0.54812 0.0
H1479 H 0.66059 0.9466 0.55549 0.0
H1480 H 0.6922 0.88162 0.53441 0.0
H1481 H 0.66829 0.88771 0.50209 0.0
H1482 H 0.58286 0.8713 0.5875 0.0
H1483 H 0.63996 0.89877 0.58391 0.0
H1484 H 0.56365 0.89182 0.51138 0.0
H1485 H 0.61487 0.85462 0.51242 0.0
H1486 H 0.55207 0.87348 0.4952 0.0
H1487 H 0.60234 0.83679 0.49629 0.0
H1488 H 0.53775 0.87238 0.54203 0.0
H1489 H 0.57447 0.91429 0.55862 0.0
H1490 H 0.50861 0.8868 0.55119 0.0
H1491 H 0.54471 0.92816 0.56739 0.0
H1492 H 0.57325 0.79516 0.53779 0.0
H1493 H 0.52935 0.83071 0.52161 0.0
H1494 H 0.57411 0.97011 0.51859 0.0
H1495 H 0.52338 0.93196 0.52138 0.0
Li1496 Li 0.36985 0.36985 0.78265 0.0
Li1497 Li 0.36694 0.35247 0.7997 0.0
Li1498 Li 0.38725 0.33912 0.78499 0.0
Li1499 Li 0.35068 0.33794 0.78369 0.0
C1500 C 0.40111 0.38084 0.79407 0.0
N1501 N 0.42092 0.41627 0.79557 0.0
C1502 C 0.39733 0.39361 0.80271 0.0
C1503 C 0.41507 0.38601 0.78624 0.0
C1504 C 0.40749 0.41147 0.80332 0.0
C1505 C 0.42489 0.40401 0.78713 0.0
C1506 C 0.32822 0.36727 0.7965 0.0
C1507 C 0.29912 0.35534 0.80559 0.0
N1508 N 0.29392 0.3742 0.80794 0.0
C1509 C 0.32252 0.38655 0.79894 0.0
C1510 C 0.31638 0.35154 0.7998 0.0
C1511 C 0.30517 0.38974 0.80476 0.0
C1512 C 0.3738 0.39822 0.76562 0.0
N1513 N 0.37038 0.39561 0.77639 0.0
C1514 C 0.36739 0.43037 0.779 0.0
C1515 C 0.36709 0.41119 0.78306 0.0
C1516 C 0.37088 0.43361 0.7679 0.0
C1517 C 0.37412 0.41718 0.76118 0.0
H1518 H 0.37613 0.38558 0.76045 0.0
H1519 H 0.36435 0.40872 0.79158 0.0
C1520 C 0.38503 0.35146 0.81979 0.0
N1521 N 0.36726 0.35545 0.81523 0.0
C1522 C 0.38798 0.35394 0.83091 0.0
C1523 C 0.35434 0.36497 0.83252 0.0
C1524 C 0.35195 0.362 0.82137 0.0
C1525 C 0.37261 0.36106 0.83745 0.0
H1526 H 0.39709 0.3466 0.81473 0.0
H1527 H 0.33799 0.36534 0.81768 0.0
C1528 C 0.37994 0.33917 0.7639 0.0
N1529 N 0.40041 0.32244 0.74687 0.0
C1530 C 0.37251 0.32249 0.75867 0.0
C1531 C 0.39766 0.34747 0.76039 0.0
C1532 C 0.38311 0.31422 0.75009 0.0
C1533 C 0.40783 0.33875 0.7518 0.0
C1534 C 0.36967 0.31337 0.80323 0.0
C1535 C 0.38823 0.30802 0.80716 0.0
C1536 C 0.35278 0.30723 0.80875 0.0
C1537 C 0.38957 0.29686 0.81665 0.0
C1538 C 0.35474 0.2961 0.81822 0.0
N1539 N 0.37294 0.29121 0.82195 0.0
C1540 C 0.428 0.33062 0.78568 0.0
C1541 C 0.40831 0.30594 0.77747 0.0
C1542 C 0.4447 0.31875 0.78477 0.0
N1543 N 0.41027 0.32401 0.7821 0.0
C1544 C 0.42467 0.29369 0.77626 0.0
C1545 C 0.4431 0.29993 0.78011 0.0
H1546 H 0.42906 0.34484 0.78956 0.0
H1547 H 0.39391 0.30082 0.77501 0.0
C1548 C 0.31315 0.33074 0.77388 0.0
N1549 N 0.32967 0.32243 0.77811 0.0
C1550 C 0.2985 0.31887 0.76929 0.0
C1551 C 0.31823 0.29023 0.77348 0.0
C1552 C 0.33236 0.3026 0.77808 0.0
C1553 C 0.30108 0.29834 0.76894 0.0
H1554 H 0.31148 0.34658 0.77395 0.0
H1555 H 0.3457 0.29643 0.78146 0.0
O1556 O 0.39116 0.36338 0.79326 0.0
O1557 O 0.34515 0.36391 0.79078 0.0
O1558 O 0.36993 0.3473 0.77242 0.0
O1559 O 0.36807 0.3246 0.79406 0.0
H1560 H 0.38649 0.38993 0.80881 0.0
H1561 H 0.41824 0.37627 0.77953 0.0
H1562 H 0.40463 0.42155 0.80992 0.0
H1563 H 0.43566 0.40824 0.7811 0.0
H1564 H 0.28985 0.34329 0.80821 0.0
H1565 H 0.33141 0.39892 0.79639 0.0
H1566 H 0.32048 0.33657 0.79794 0.0
H1567 H 0.30063 0.40458 0.80675 0.0
H1568 H 0.36511 0.44253 0.78454 0.0
H1569 H 0.37658 0.41891 0.75256 0.0
H1570 H 0.40224 0.35034 0.83429 0.0
H1571 H 0.3421 0.37078 0.83715 0.0
H1572 H 0.35877 0.31594 0.76123 0.0
H1573 H 0.40356 0.36042 0.76432 0.0
H1574 H 0.37758 0.30126 0.74601 0.0
H1575 H 0.42162 0.34495 0.74905 0.0
H1576 H 0.40147 0.31264 0.80301 0.0
H1577 H 0.33831 0.311 0.80577 0.0
H1578 H 0.40384 0.29276 0.81983 0.0
H1579 H 0.34179 0.29134 0.8226 0.0
H1580 H 0.45867 0.3241 0.78781 0.0
H1581 H 0.42278 0.27917 0.77279 0.0
H1582 H 0.28556 0.32571 0.76581 0.0
H1583 H 0.32069 0.27447 0.77347 0.0
Li1584 Li 0.88576 0.12049 0.03243 0.0
Li1585 Li 0.90337 0.11686 0.04971 0.0
Li1586 Li 0.91721 0.13869 0.03497 0.0
Li1587 Li 0.91832 0.10278 0.03359 0.0
C1588 C 0.88057 0.15744 0.04404 0.0
N1589 N 0.85726 0.19065 0.04587 0.0
C1590 C 0.86747 0.15938 0.05272 0.0
C1591 C 0.88207 0.17259 0.03641 0.0
C1592 C 0.85572 0.17621 0.05346 0.0
C1593 C 0.8701 0.18921 0.03744 0.0
C1594 C 0.88397 0.08277 0.0473 0.0
C1595 C 0.8866 0.05813 0.06131 0.0
N1596 N 0.86662 0.05734 0.06195 0.0
C1597 C 0.86347 0.08159 0.04802 0.0
C1598 C 0.89564 0.07083 0.05392 0.0
C1599 C 0.85498 0.06868 0.0555 0.0
C1600 C 0.85716 0.11413 0.01591 0.0
N1601 N 0.86003 0.12089 0.02617 0.0
C1602 C 0.82562 0.12741 0.02814 0.0
C1603 C 0.84472 0.12731 0.03232 0.0
C1604 C 0.82214 0.1206 0.01755 0.0
C1605 C 0.83826 0.11392 0.0114 0.0
H1606 H 0.86953 0.10874 0.01125 0.0
H1607 H 0.84726 0.13204 0.04055 0.0
C1608 C 0.91498 0.1185 0.07172 0.0
N1609 N 0.89942 0.11548 0.065 0.0
C1610 C 0.91213 0.11982 0.08293 0.0
C1611 C 0.87735 0.11444 0.0801 0.0
C1612 C 0.88086 0.11336 0.06896 0.0
C1613 C 0.89305 0.11806 0.08726 0.0
H1614 H 0.92954 0.12055 0.06835 0.0
H1615 H 0.86866 0.11146 0.06344 0.0
C1616 C 0.90873 0.13128 0.01264 0.0
N1617 N 0.90814 0.15002 0.99273 0.0
C1618 C 0.92228 0.12606 0.0046 0.0
C1619 C 0.8947 0.1458 0.01048 0.0
C1620 C 0.9218 0.13578 0.99461 0.0
C1621 C 0.89468 0.15516 1.00039 0.0
C1622 C 0.94956 0.11268 0.0458 0.0
C1623 C 0.96528 0.12202 0.0406 0.0
C1624 C 0.95302 0.09589 0.05206 0.0
C1625 C 0.98419 0.11414 0.04158 0.0
C1626 C 0.97214 0.08846 0.05285 0.0
N1627 N 0.9872 0.09765 0.04763 0.0
C1628 C 0.93288 0.17475 0.04128 0.0
C1629 C 0.94169 0.16595 0.02333 0.0
C1630 C 0.94461 0.1916 0.04073 0.0
N1631 N 0.93169 0.16232 0.03267 0.0
C1632 C 0.95354 0.18269 0.02241 0.0
C1633 C 0.9553 0.19568 0.03123 0.0
H1634 H 0.92506 0.17128 0.04868 0.0
H1635 H 0.94093 0.15565 0.01669 0.0
C1636 C 0.92935 0.06286 0.02901 0.0
N1637 N 0.93423 0.08215 0.02778 0.0
C1638 C 0.94133 0.04814 0.02459 0.0
C1639 C 0.9631 0.07342 0.01779 0.0
C1640 C 0.95063 0.0876 0.02223 0.0
C1641 C 0.95852 0.05333 0.01888 0.0
H1642 H 0.91609 0.05891 0.03334 0.0
H1643 H 0.95407 0.10304 0.02129 0.0
O1644 O 0.89232 0.14111 0.04326 0.0
O1645 O 0.89255 0.09546 0.04009 0.0
O1646 O 0.90904 0.1219 0.02246 0.0
O1647 O 0.93089 0.12001 0.04481 0.0
H1648 H 0.86626 0.14795 0.05878 0.0
H1649 H 0.89253 0.17171 0.02983 0.0
H1650 H 0.84541 0.1778 0.06009 0.0
H1651 H 0.87109 0.20101 0.03157 0.0
H1652 H 0.89546 0.04889 0.06653 0.0
H1653 H 0.85421 0.0906 0.04289 0.0
H1654 H 0.91151 0.07141 0.05338 0.0
H1655 H 0.83913 0.0677 0.05619 0.0
H1656 H 0.81374 0.13284 0.03317 0.0
H1657 H 0.83626 0.10821 0.00328 0.0
H1658 H 0.92465 0.12294 0.08808 0.0
H1659 H 0.86242 0.11275 0.08304 0.0
H1660 H 0.9331 0.1147 0.00606 0.0
H1661 H 0.88376 0.14965 0.01647 0.0
H1662 H 0.93228 0.13197 0.98834 0.0
H1663 H 0.88391 0.16645 0.99863 0.0
H1664 H 0.96288 0.13507 0.03575 0.0
H1665 H 0.94107 0.08866 0.05627 0.0
H1666 H 0.99648 0.12112 0.03753 0.0
H1667 H 0.97502 0.0754 0.05762 0.0
H1668 H 0.94577 0.20095 0.04782 0.0
H1669 H 0.96136 0.1853 0.01489 0.0
H1670 H 0.93698 0.03289 0.0255 0.0
H1671 H 0.97631 0.07822 0.01364 0.0
Li1672 Li 0.11681 0.6665 0.28468 0.0
Li1673 Li 0.15282 0.66808 0.28354 0.0
Li1674 Li 0.13511 0.63535 0.28243 0.0
Li1675 Li 0.13804 0.65275 0.29983 0.0
C1676 C 0.12398 0.66113 0.26285 0.0
N1677 N 0.10343 0.66702 0.24378 0.0
C1678 C 0.13015 0.6755 0.25548 0.0
C1679 C 0.10752 0.64959 0.26046 0.0
C1680 C 0.11952 0.6783 0.2459 0.0
C1681 C 0.09729 0.65282 0.25079 0.0
C1682 C 0.14216 0.69816 0.29783 0.0
C1683 C 0.16314 0.71792 0.30926 0.0
N1684 N 0.15606 0.73448 0.30442 0.0
C1685 C 0.13486 0.71537 0.2931 0.0
C1686 C 0.15621 0.69943 0.30608 0.0
C1687 C 0.14217 0.73359 0.29649 0.0
C1688 C 0.07767 0.67834 0.28845 0.0
N1689 N 0.09349 0.68118 0.28189 0.0
C1690 C 0.07717 0.70767 0.27283 0.0
C1691 C 0.09353 0.69548 0.27418 0.0
C1692 C 0.0607 0.70537 0.27962 0.0
C1693 C 0.06103 0.69029 0.28744 0.0
H1694 H 0.07824 0.6672 0.29471 0.0
H1695 H 0.10651 0.69789 0.2693 0.0
C1696 C 0.19246 0.67822 0.2775 0.0
N1697 N 0.17338 0.68425 0.27779 0.0
C1698 C 0.20696 0.69036 0.27298 0.0
C1699 C 0.18186 0.7145 0.26902 0.0
C1700 C 0.16789 0.7019 0.27357 0.0
C1701 C 0.20174 0.70881 0.26865 0.0
H1702 H 0.19642 0.6639 0.28064 0.0
H1703 H 0.15255 0.7061 0.2736 0.0
C1704 C 0.10096 0.62651 0.29415 0.0
N1705 N 0.07462 0.59578 0.2965 0.0
C1706 C 0.10344 0.61275 0.30248 0.0
C1707 C 0.08484 0.62486 0.28716 0.0
C1708 C 0.09005 0.59725 0.30349 0.0
C1709 C 0.07175 0.60916 0.28844 0.0
C1710 C 0.17529 0.63655 0.29667 0.0
C1711 C 0.17987 0.61657 0.2977 0.0
C1712 C 0.1868 0.65058 0.30201 0.0
C1713 C 0.19572 0.61094 0.30423 0.0
C1714 C 0.20252 0.64437 0.30846 0.0
N1715 N 0.2066 0.62484 0.30944 0.0
C1716 C 0.13589 0.6069 0.26532 0.0
C1717 C 0.13477 0.59385 0.28312 0.0
C1718 C 0.13597 0.58793 0.26091 0.0
N1719 N 0.13507 0.6095 0.27625 0.0
C1720 C 0.13478 0.57465 0.27908 0.0
C1721 C 0.13536 0.57145 0.26782 0.0
H1722 H 0.1367 0.61954 0.26001 0.0
H1723 H 0.13472 0.59627 0.29178 0.0
C1724 C 0.12909 0.66287 0.32129 0.0
N1725 N 0.13873 0.64926 0.3152 0.0
C1726 C 0.12713 0.66027 0.33248 0.0
C1727 C 0.14532 0.62982 0.33097 0.0
C1728 C 0.14681 0.63294 0.31979 0.0
C1729 C 0.13515 0.64346 0.33744 0.0
H1730 H 0.12249 0.67553 0.3174 0.0
H1731 H 0.15374 0.62195 0.31477 0.0
O1732 O 0.13407 0.65833 0.27233 0.0
O1733 O 0.13517 0.68019 0.29461 0.0
O1734 O 0.1139 0.64182 0.29307 0.0
O1735 O 0.15971 0.6423 0.29039 0.0
H1736 H 0.14297 0.68445 0.25715 0.0
H1737 H 0.10281 0.63815 0.26596 0.0
H1738 H 0.12407 0.68945 0.24015 0.0
H1739 H 0.08449 0.64402 0.24885 0.0
H1740 H 0.17408 0.71911 0.3156 0.0
H1741 H 0.12379 0.71468 0.28681 0.0
H1742 H 0.16158 0.68632 0.31007 0.0
H1743 H 0.13679 0.74702 0.29282 0.0
H1744 H 0.07756 0.71895 0.26663 0.0
H1745 H 0.04887 0.68817 0.293 0.0
H1746 H 0.22202 0.68515 0.27269 0.0
H1747 H 0.1771 0.72861 0.26589 0.0
H1748 H 0.1157 0.61392 0.30803 0.0
H1749 H 0.08233 0.63568 0.28088 0.0
H1750 H 0.09191 0.5864 0.30983 0.0
H1751 H 0.05926 0.60767 0.28306 0.0
H1752 H 0.17124 0.60553 0.29355 0.0
H1753 H 0.18373 0.66609 0.3011 0.0
H1754 H 0.19936 0.59553 0.30515 0.0
H1755 H 0.21151 0.65507 0.31266 0.0
H1756 H 0.13686 0.5862 0.2522 0.0
H1757 H 0.13418 0.56246 0.28473 0.0
H1758 H 0.11927 0.67121 0.33718 0.0
H1759 H 0.15142 0.6165 0.33444 0.0
Li1760 Li 0.58867 0.13908 0.96985 0.0
Li1761 Li 0.58711 0.10311 0.97108 0.0
Li1762 Li 0.6199 0.12069 0.97229 0.0
Li1763 Li 0.60256 0.11754 0.9549 0.0
C1764 C 0.59504 0.13184 0.99191 0.0
N1765 N 0.59159 0.15172 0.01137 0.0
C1766 C 0.58031 0.12665 0.99929 0.0
C1767 C 0.6082 0.14693 0.99451 0.0
C1768 C 0.57874 0.13694 0.00907 0.0
C1769 C 0.60617 0.15686 0.00437 0.0
C1770 C 0.55684 0.11322 0.95739 0.0
C1771 C 0.53633 0.09044 0.94752 0.0
N1772 N 0.52012 0.09829 0.95235 0.0
C1773 C 0.53996 0.12125 0.96213 0.0
C1774 C 0.55501 0.09785 0.94993 0.0
C1775 C 0.52154 0.11342 0.95953 0.0
C1776 C 0.5765 0.17795 0.96563 0.0
N1777 N 0.57406 0.16249 0.97251 0.0
C1778 C 0.548 0.17925 0.98169 0.0
C1779 C 0.56019 0.16286 0.98045 0.0
C1780 C 0.54998 0.19536 0.97462 0.0
C1781 C 0.56464 0.19466 0.96659 0.0
H1782 H 0.58727 0.17705 0.95919 0.0
H1783 H 0.55807 0.15014 0.98557 0.0
C1784 C 0.57676 0.06343 0.9767 0.0
N1785 N 0.57097 0.08258 0.97683 0.0
C1786 C 0.56475 0.04884 0.98123 0.0
C1787 C 0.54112 0.07399 0.98596 0.0
C1788 C 0.55362 0.08805 0.98142 0.0
C1789 C 0.54662 0.05404 0.98596 0.0
H1790 H 0.59082 0.05948 0.97322 0.0
H1791 H 0.54956 0.10343 0.98164 0.0
C1792 C 0.62748 0.15621 0.96085 0.0
N1793 N 0.65538 0.1857 0.95923 0.0
C1794 C 0.64113 0.15606 0.95236 0.0
C1795 C 0.62777 0.1716 0.96837 0.0
C1796 C 0.65521 0.17102 0.95173 0.0
C1797 C 0.64205 0.18631 0.96745 0.0
C1798 C 0.62015 0.08156 0.9578 0.0
C1799 C 0.64047 0.07885 0.95681 0.0
C1800 C 0.60729 0.06936 0.95206 0.0
C1801 C 0.64759 0.0642 0.94989 0.0
C1802 C 0.61498 0.05488 0.94522 0.0
N1803 N 0.6348 0.05264 0.94427 0.0
C1804 C 0.64822 0.11701 0.98931 0.0
C1805 C 0.66129 0.12391 0.97191 0.0
C1806 C 0.66714 0.11682 0.99379 0.0
N1807 N 0.64565 0.12074 0.97856 0.0
C1808 C 0.68042 0.12391 0.97604 0.0
C1809 C 0.68358 0.12033 0.98713 0.0
H1810 H 0.6356 0.114 0.99439 0.0
H1811 H 0.65894 0.12614 0.96334 0.0
C1812 C 0.59168 0.1227 0.93304 0.0
N1813 N 0.6065 0.11643 0.93959 0.0
C1814 C 0.59451 0.12406 0.92184 0.0
C1815 C 0.62777 0.11228 0.9243 0.0
C1816 C 0.62432 0.11127 0.93546 0.0
C1817 C 0.61283 0.11897 0.91732 0.0
H1818 H 0.57782 0.12724 0.93655 0.0
H1819 H 0.6361 0.10698 0.94084 0.0
O1820 O 0.59671 0.12198 0.98227 0.0
O1821 O 0.57501 0.12063 0.9599 0.0
O1822 O 0.61354 0.14171 0.96156 0.0
O1823 O 0.61292 0.09594 0.96447 0.0
H1824 H 0.57012 0.11486 0.99748 0.0
H1825 H 0.62001 0.15076 0.98904 0.0
H1826 H 0.56733 0.13316 0.01482 0.0
H1827 H 0.61625 0.16859 0.00646 0.0
H1828 H 0.53471 0.07849 0.94179 0.0
H1829 H 0.54108 0.13328 0.96784 0.0
H1830 H 0.56784 0.09183 0.94596 0.0
H1831 H 0.50837 0.11938 0.96321 0.0
H1832 H 0.53695 0.17918 0.98803 0.0
H1833 H 0.56646 0.20656 0.96083 0.0
H1834 H 0.56981 0.03372 0.98121 0.0
H1835 H 0.52723 0.07875 0.98938 0.0
H1836 H 0.64099 0.14442 0.94639 0.0
H1837 H 0.61693 0.17235 0.97477 0.0
H1838 H 0.66597 0.17098 0.94526 0.0
H1839 H 0.64246 0.19827 0.97324 0.0
H1840 H 0.65063 0.08801 0.96128 0.0
H1841 H 0.59155 0.07097 0.95292 0.0
H1842 H 0.66328 0.06203 0.94898 0.0
H1843 H 0.60519 0.04538 0.94069 0.0
H1844 H 0.66886 0.1136 1.00234 0.0
H1845 H 0.69257 0.1268 0.97058 0.0
H1846 H 0.58267 0.12968 0.91684 0.0
H1847 H 0.64208 0.10805 0.92121 0.0
Li1848 Li 0.13593 0.35178 0.20547 0.0
Li1849 Li 0.13421 0.36943 0.22221 0.0
Li1850 Li 0.15276 0.33755 0.22097 0.0
Li1851 Li 0.11629 0.33832 0.21969 0.0
C1852 C 0.16916 0.3762 0.2081 0.0
N1853 N 0.19104 0.40273 0.19615 0.0
C1854 C 0.16012 0.39276 0.20358 0.0
C1855 C 0.18929 0.37308 0.20654 0.0
C1856 C 0.17145 0.40602 0.19757 0.0
C1857 C 0.20011 0.38668 0.20047 0.0
C1858 C 0.09524 0.37204 0.2157 0.0
C1859 C 0.07345 0.38098 0.23034 0.0
N1860 N 0.0608 0.38909 0.22305 0.0
C1861 C 0.08201 0.38042 0.20835 0.0
C1862 C 0.09093 0.37228 0.22679 0.0
C1863 C 0.06469 0.38899 0.21223 0.0
C1864 C 0.11748 0.35288 0.18551 0.0
N1865 N 0.13559 0.35504 0.19002 0.0
C1866 C 0.14948 0.36266 0.17269 0.0
C1867 C 0.15158 0.35941 0.18384 0.0
C1868 C 0.13081 0.36096 0.16781 0.0
C1869 C 0.11477 0.3556 0.1744 0.0
H1870 H 0.10508 0.34904 0.19059 0.0
H1871 H 0.16595 0.36058 0.18752 0.0
C1872 C 0.14395 0.39828 0.23805 0.0
N1873 N 0.13415 0.39508 0.2286 0.0
C1874 C 0.14444 0.41713 0.24263 0.0
C1875 C 0.12468 0.42895 0.22769 0.0
C1876 C 0.12461 0.40994 0.22341 0.0
C1877 C 0.13478 0.43282 0.23741 0.0
H1878 H 0.15156 0.38623 0.24197 0.0
H1879 H 0.11702 0.4071 0.21586 0.0
C1880 C 0.1417 0.31501 0.2012 0.0
N1881 N 0.15427 0.29864 0.18189 0.0
C1882 C 0.12844 0.30484 0.19459 0.0
C1883 C 0.16138 0.31678 0.19802 0.0
C1884 C 0.13508 0.29669 0.18485 0.0
C1885 C 0.16744 0.30841 0.18822 0.0
C1886 C 0.13319 0.3343 0.24106 0.0
C1887 C 0.13298 0.31388 0.23965 0.0
C1888 C 0.13344 0.34219 0.25153 0.0
C1889 C 0.13308 0.30167 0.24877 0.0
C1890 C 0.13348 0.32948 0.26044 0.0
N1891 N 0.13331 0.30965 0.25889 0.0
C1892 C 0.189 0.3311 0.2322 0.0
C1893 C 0.17395 0.30269 0.22473 0.0
C1894 C 0.20408 0.31961 0.23666 0.0
N1895 N 0.17433 0.32247 0.22639 0.0
C1896 C 0.18865 0.29068 0.22905 0.0
C1897 C 0.20399 0.29906 0.23515 0.0
H1898 H 0.18887 0.34686 0.23344 0.0
H1899 H 0.16198 0.29616 0.22021 0.0
C1900 C 0.08286 0.31822 0.21334 0.0
N1901 N 0.09256 0.32414 0.2224 0.0
C1902 C 0.06593 0.30669 0.21415 0.0
C1903 C 0.06876 0.30818 0.23368 0.0
C1904 C 0.08562 0.3198 0.23247 0.0
C1905 C 0.05882 0.30127 0.22443 0.0
H1906 H 0.08844 0.32235 0.20545 0.0
H1907 H 0.09314 0.32523 0.23958 0.0
O1908 O 0.15835 0.36283 0.21386 0.0
O1909 O 0.1122 0.36355 0.21195 0.0
O1910 O 0.13542 0.32371 0.21059 0.0
O1911 O 0.13326 0.34658 0.23228 0.0
H1912 H 0.14448 0.39513 0.20452 0.0
H1913 H 0.19644 0.36024 0.20995 0.0
H1914 H 0.16465 0.41886 0.19398 0.0
H1915 H 0.2157 0.38445 0.19918 0.0
H1916 H 0.06994 0.38129 0.2389 0.0
H1917 H 0.08512 0.38033 0.19974 0.0
H1918 H 0.10093 0.36588 0.23262 0.0
H1919 H 0.05433 0.39556 0.20663 0.0
H1920 H 0.16232 0.36686 0.16803 0.0
H1921 H 0.1002 0.35347 0.17104 0.0
H1922 H 0.15261 0.41945 0.25007 0.0
H1923 H 0.11678 0.44047 0.22345 0.0
H1924 H 0.11318 0.30328 0.19692 0.0
H1925 H 0.17179 0.32482 0.20298 0.0
H1926 H 0.12496 0.28885 0.17963 0.0
H1927 H 0.18259 0.30978 0.18563 0.0
H1928 H 0.13256 0.30755 0.23161 0.0
H1929 H 0.13356 0.35798 0.25274 0.0
H1930 H 0.1329 0.28584 0.24781 0.0
H1931 H 0.13364 0.33539 0.26859 0.0
H1932 H 0.2157 0.32675 0.24121 0.0
H1933 H 0.18771 0.27492 0.22783 0.0
H1934 H 0.05879 0.30168 0.2068 0.0
H1935 H 0.06353 0.30469 0.24175 0.0
Li1936 Li 0.91739 0.90308 0.47065 0.0
Li1937 Li 0.91627 0.8659 0.46998 0.0
Li1938 Li 0.90272 0.88516 0.45584 0.0
Li1939 Li 0.88478 0.88401 0.47241 0.0
C1940 C 0.94014 0.88831 0.45109 0.0
N1941 N 0.9584 0.89554 0.43145 0.0
C1942 C 0.94537 0.87266 0.44431 0.0
C1943 C 0.94426 0.90763 0.4479 0.0
C1944 C 0.95454 0.87663 0.4344 0.0
C1945 C 0.95352 0.91098 0.43795 0.0
C1946 C 0.91562 0.88225 0.49234 0.0
C1947 C 0.91117 0.87494 0.51133 0.0
N1948 N 0.93042 0.87932 0.51316 0.0
C1949 C 0.93536 0.88667 0.49441 0.0
C1950 C 0.90341 0.87634 0.50087 0.0
C1951 C 0.94257 0.8851 0.50499 0.0
C1952 C 0.92389 0.94084 0.48032 0.0
N1953 N 0.9326 0.92479 0.47581 0.0
C1954 C 0.96457 0.93793 0.47946 0.0
C1955 C 0.95252 0.92319 0.47523 0.0
C1956 C 0.95611 0.95468 0.48428 0.0
C1957 C 0.93542 0.95606 0.4846 0.0
H1958 H 0.908 0.94171 0.48068 0.0
H1959 H 0.95906 0.91016 0.47169 0.0
C1960 C 0.93223 0.82993 0.46425 0.0
N1961 N 0.93092 0.84242 0.47283 0.0
C1962 C 0.94417 0.81325 0.46481 0.0
C1963 C 0.95251 0.82198 0.48324 0.0
C1964 C 0.94043 0.83857 0.48231 0.0
C1965 C 0.95483 0.8093 0.47433 0.0
H1966 H 0.92424 0.83317 0.45688 0.0
H1967 H 0.93905 0.84848 0.48908 0.0
C1968 C 0.88196 0.91879 0.45617 0.0
N1969 N 0.86306 0.94041 0.44032 0.0
C1970 C 0.86468 0.91164 0.45144 0.0
C1971 C 0.88953 0.937 0.45294 0.0
C1972 C 0.85538 0.92277 0.4434 0.0
C1973 C 0.87977 0.9477 0.44489 0.0
C1974 C 0.88213 0.84495 0.46687 0.0
C1975 C 0.87061 0.83261 0.46037 0.0
C1976 C 0.8847 0.84036 0.47784 0.0
C1977 C 0.8619 0.81592 0.46495 0.0
C1978 C 0.87577 0.82353 0.48211 0.0
N1979 N 0.86464 0.81176 0.47563 0.0
C1980 C 0.89323 0.86721 0.4362 0.0
C1981 C 0.90264 0.90045 0.43369 0.0
C1982 C 0.89026 0.86488 0.42509 0.0
N1983 N 0.89916 0.88479 0.44031 0.0
C1984 C 0.89998 0.89875 0.42248 0.0
C1985 C 0.8937 0.88075 0.41802 0.0
H1986 H 0.89092 0.85486 0.44156 0.0
H1987 H 0.90771 0.91421 0.43706 0.0
C1988 C 0.85593 0.89446 0.48823 0.0
N1989 N 0.85926 0.88426 0.47891 0.0
C1990 C 0.83709 0.89482 0.49283 0.0
C1991 C 0.82554 0.87426 0.47816 0.0
C1992 C 0.84448 0.8745 0.47378 0.0
C1993 C 0.82164 0.8845 0.48781 0.0
H1994 H 0.86788 0.90237 0.49205 0.0
H1995 H 0.84732 0.86704 0.4662 0.0
O1996 O 0.93085 0.88477 0.46074 0.0
O1997 O 0.90816 0.88401 0.48208 0.0
O1998 O 0.89133 0.9081 0.464 0.0
O1999 O 0.89062 0.86143 0.46246 0.0
H2000 H 0.94226 0.85764 0.44663 0.0
H2001 H 0.94005 0.91994 0.45295 0.0
H2002 H 0.95857 0.86467 0.42905 0.0
H2003 H 0.95669 0.92586 0.43535 0.0
H2004 H 0.90188 0.87036 0.518 0.0
H2005 H 0.94512 0.89084 0.48789 0.0
H2006 H 0.8881 0.87281 0.49942 0.0
H2007 H 0.95785 0.88839 0.50669 0.0
H2008 H 0.98038 0.93595 0.47919 0.0
H2009 H 0.9282 0.96878 0.48809 0.0
H2010 H 0.9452 0.80365 0.45782 0.0
H2011 H 0.96049 0.81952 0.49073 0.0
H2012 H 0.85866 0.89756 0.45387 0.0
H2013 H 0.90288 0.94272 0.45656 0.0
H2014 H 0.84207 0.91738 0.43961 0.0
H2015 H 0.8855 0.96178 0.44226 0.0
H2016 H 0.86826 0.83594 0.45189 0.0
H2017 H 0.89354 0.84957 0.48303 0.0
H2018 H 0.85293 0.8063 0.46001 0.0
H2019 H 0.87769 0.81983 0.49058 0.0
H2020 H 0.88516 0.85079 0.42209 0.0
H2021 H 0.90315 0.91131 0.41735 0.0
H2022 H 0.83468 0.90289 0.50029 0.0
H2023 H 0.81396 0.86644 0.47392 0.0
Li2024 Li 0.354 0.66917 0.72198 0.0
Li2025 Li 0.38882 0.66762 0.71988 0.0
Li2026 Li 0.36779 0.65425 0.70577 0.0
Li2027 Li 0.37195 0.63642 0.72352 0.0
C2028 C 0.36031 0.69906 0.70886 0.0
N2029 N 0.33984 0.73386 0.70602 0.0
C2030 C 0.36713 0.71647 0.71361 0.0
C2031 C 0.34315 0.6994 0.70261 0.0
C2032 C 0.35656 0.7339 0.71209 0.0
C2033 C 0.33299 0.71712 0.70129 0.0
C2034 C 0.38551 0.66358 0.74175 0.0
C2035 C 0.40701 0.65176 0.75591 0.0
N2036 N 0.40959 0.67058 0.75941 0.0
C2037 C 0.38833 0.68279 0.74551 0.0
C2038 C 0.3949 0.64792 0.74699 0.0
C2039 C 0.40059 0.68603 0.75444 0.0
C2040 C 0.31374 0.67868 0.72689 0.0
N2041 N 0.33281 0.68453 0.72786 0.0
C2042 C 0.32294 0.71368 0.73728 0.0
C2043 C 0.33759 0.70152 0.73305 0.0
C2044 C 0.30311 0.70816 0.73634 0.0
C2045 C 0.29855 0.69031 0.73114 0.0
H2046 H 0.3103 0.66501 0.72282 0.0
H2047 H 0.35281 0.70578 0.73383 0.0
C2048 C 0.41619 0.69613 0.71385 0.0
N2049 N 0.41313 0.68203 0.72149 0.0
C2050 C 0.43296 0.70795 0.7142 0.0
C2051 C 0.44371 0.69009 0.73007 0.0
C2052 C 0.42676 0.67848 0.72935 0.0
C2053 C 0.44687 0.70518 0.72248 0.0
H2054 H 0.40555 0.69825 0.70744 0.0
H2055 H 0.42463 0.66659 0.73503 0.0
C2056 C 0.3351 0.63278 0.70866 0.0
N2057 N 0.31174 0.61186 0.69437 0.0
C2058 C 0.33713 0.61236 0.70778 0.0
C2059 C 0.32102 0.64252 0.70237 0.0
C2060 C 0.32522 0.60205 0.70049 0.0
C2061 C 0.3094 0.6317 0.69516 0.0
C2062 C 0.41118 0.6418 0.71015 0.0
C2063 C 0.41843 0.65033 0.70064 0.0
C2064 C 0.42426 0.63396 0.71776 0.0
C2065 C 0.43875 0.65095 0.69891 0.0
C2066 C 0.44448 0.63485 0.71573 0.0
N2067 N 0.45124 0.64328 0.70643 0.0
C2068 C 0.36665 0.66513 0.68351 0.0
C2069 C 0.36695 0.6308 0.68688 0.0
C2070 C 0.36775 0.66187 0.67233 0.0
N2071 N 0.36623 0.64968 0.69051 0.0
C2072 C 0.36794 0.62685 0.67577 0.0
C2073 C 0.3686 0.64251 0.66832 0.0
H2074 H 0.36688 0.68001 0.6866 0.0
H2075 H 0.36733 0.61878 0.69262 0.0
C2076 C 0.3602 0.60641 0.73821 0.0
N2077 N 0.37254 0.61089 0.72989 0.0
C2078 C 0.35996 0.5874 0.74257 0.0
C2079 C 0.38515 0.57803 0.72972 0.0
C2080 C 0.38486 0.59718 0.7256 0.0
C2081 C 0.37251 0.57285 0.73829 0.0
H2082 H 0.35039 0.61757 0.74137 0.0
H2083 H 0.39433 0.60107 0.71888 0.0
O2084 O 0.37028 0.68175 0.71039 0.0
O2085 O 0.37336 0.66005 0.73311 0.0
O2086 O 0.34677 0.64315 0.71567 0.0
O2087 O 0.39139 0.64161 0.71213 0.0
H2088 H 0.38024 0.71647 0.71859 0.0
H2089 H 0.33772 0.68612 0.69883 0.0
H2090 H 0.3616 0.74744 0.71578 0.0
H2091 H 0.31965 0.71756 0.6965 0.0
H2092 H 0.4144 0.63979 0.76002 0.0
H2093 H 0.38144 0.69512 0.7415 0.0
H2094 H 0.39298 0.63297 0.7442 0.0
H2095 H 0.40299 0.70083 0.75739 0.0
H2096 H 0.32713 0.72716 0.74137 0.0
H2097 H 0.28343 0.68555 0.73023 0.0
H2098 H 0.43481 0.7194 0.70817 0.0
H2099 H 0.45432 0.68717 0.73643 0.0
H2100 H 0.34791 0.60455 0.71259 0.0
H2101 H 0.31906 0.65826 0.70304 0.0
H2102 H 0.32673 0.58627 0.69967 0.0
H2103 H 0.29851 0.63906 0.69021 0.0
H2104 H 0.40847 0.65659 0.69471 0.0
H2105 H 0.41887 0.62754 0.72522 0.0
H2106 H 0.44459 0.6576 0.69162 0.0
H2107 H 0.45479 0.62896 0.72157 0.0
H2108 H 0.36869 0.67442 0.66694 0.0
H2109 H 0.36844 0.61169 0.67308 0.0
H2110 H 0.34976 0.58404 0.74906 0.0
H2111 H 0.39524 0.56743 0.72624 0.0
Li2112 Li 0.3857 0.12183 0.47214 0.0
Li2113 Li 0.41685 0.10497 0.47132 0.0
Li2114 Li 0.41571 0.14042 0.46954 0.0
Li2115 Li 0.40343 0.1198 0.45509 0.0
C2116 C 0.40345 0.13668 0.49077 0.0
N2117 N 0.3938 0.16138 0.50777 0.0
C2118 C 0.41062 0.1329 0.50119 0.0
C2119 C 0.39133 0.15301 0.489 0.0
C2120 C 0.40559 0.14556 0.50968 0.0
C2121 C 0.38664 0.16532 0.4977 0.0
C2122 C 0.3834 0.08173 0.46842 0.0
C2123 C 0.36369 0.05228 0.46724 0.0
N2124 N 0.36574 0.04957 0.47811 0.0
C2125 C 0.38533 0.07866 0.47958 0.0
C2126 C 0.37251 0.06845 0.46219 0.0
C2127 C 0.37629 0.06231 0.48433 0.0
C2128 C 0.34467 0.12746 0.47189 0.0
N2129 N 0.35988 0.12182 0.47834 0.0
C2130 C 0.33786 0.11609 0.49315 0.0
C2131 C 0.35686 0.11617 0.48879 0.0
C2132 C 0.3218 0.12188 0.4867 0.0
C2133 C 0.32543 0.12763 0.47592 0.0
H2134 H 0.3475 0.13183 0.4636 0.0
H2135 H 0.36917 0.11161 0.49375 0.0
C2136 C 0.44456 0.08929 0.48559 0.0
N2137 N 0.43272 0.08431 0.47714 0.0
C2138 C 0.45693 0.07529 0.49031 0.0
C2139 C 0.44486 0.05125 0.47748 0.0
C2140 C 0.43261 0.06572 0.47304 0.0
C2141 C 0.45722 0.05596 0.48626 0.0
H2142 H 0.44447 0.10424 0.48861 0.0
H2143 H 0.42305 0.06212 0.46631 0.0
C2144 C 0.39096 0.15855 0.45431 0.0
N2145 N 0.39185 0.18923 0.43959 0.0
C2146 C 0.4086 0.16369 0.4492 0.0
C2147 C 0.37379 0.16902 0.45194 0.0
C2148 C 0.40875 0.17925 0.44178 0.0
C2149 C 0.37454 0.18448 0.44448 0.0
C2150 C 0.44334 0.11003 0.45463 0.0
C2151 C 0.46299 0.11559 0.45327 0.0
C2152 C 0.43655 0.09258 0.44991 0.0
C2153 C 0.47556 0.10357 0.44723 0.0
C2154 C 0.44958 0.08096 0.44393 0.0
N2155 N 0.46866 0.08664 0.44272 0.0
C2156 C 0.4498 0.16141 0.47437 0.0
C2157 C 0.4217 0.18193 0.47288 0.0
C2158 C 0.46194 0.17777 0.47584 0.0
N2159 N 0.43015 0.16378 0.47276 0.0
C2160 C 0.43332 0.19873 0.47426 0.0
C2161 C 0.45378 0.19677 0.47562 0.0
H2162 H 0.45609 0.14678 0.47425 0.0
H2163 H 0.40601 0.18342 0.47165 0.0
C2164 C 0.38271 0.11177 0.43568 0.0
N2165 N 0.40013 0.11841 0.43969 0.0
C2166 C 0.37907 0.11219 0.42452 0.0
C2167 C 0.41147 0.12606 0.42181 0.0
C2168 C 0.41448 0.12533 0.43301 0.0
C2169 C 0.39349 0.11961 0.41741 0.0
H2170 H 0.3715 0.10648 0.4412 0.0
H2171 H 0.42811 0.1308 0.43638 0.0
O2172 O 0.40829 0.12432 0.48242 0.0
O2173 O 0.39205 0.09763 0.46354 0.0
O2174 O 0.39035 0.14329 0.46155 0.0
O2175 O 0.43094 0.12166 0.46058 0.0
H2176 H 0.41997 0.12028 0.5027 0.0
H2177 H 0.38553 0.15615 0.48103 0.0
H2178 H 0.41104 0.14281 0.51778 0.0
H2179 H 0.37728 0.17801 0.49644 0.0
H2180 H 0.35521 0.04188 0.46251 0.0
H2181 H 0.39372 0.08873 0.48455 0.0
H2182 H 0.37089 0.07063 0.45353 0.0
H2183 H 0.37766 0.05976 0.49296 0.0
H2184 H 0.33577 0.11126 0.50144 0.0
H2185 H 0.31358 0.13244 0.47068 0.0
H2186 H 0.46639 0.07964 0.49696 0.0
H2187 H 0.44448 0.03649 0.47417 0.0
H2188 H 0.42206 0.15581 0.45093 0.0
H2189 H 0.36001 0.16523 0.45584 0.0
H2190 H 0.4223 0.18337 0.43777 0.0
H2191 H 0.36135 0.19271 0.44257 0.0
H2192 H 0.46847 0.12907 0.45686 0.0
H2193 H 0.4214 0.08803 0.45084 0.0
H2194 H 0.49082 0.10769 0.44612 0.0
H2195 H 0.44452 0.06742 0.44025 0.0
H2196 H 0.47765 0.17559 0.47675 0.0
H2197 H 0.4264 0.2131 0.47416 0.0
H2198 H 0.36509 0.10686 0.42149 0.0
H2199 H 0.42289 0.13222 0.41671 0.0
Li2200 Li 0.65158 0.66742 0.22171 0.0
Li2201 Li 0.63373 0.63607 0.2236 0.0
Li2202 Li 0.63553 0.65386 0.20576 0.0
Li2203 Li 0.61438 0.66661 0.22036 0.0
C2204 C 0.67705 0.63945 0.21513 0.0
N2205 N 0.71737 0.63515 0.2169 0.0
C2206 C 0.68497 0.62621 0.22263 0.0
C2207 C 0.68961 0.65032 0.20843 0.0
C2208 C 0.7054 0.62428 0.22342 0.0
C2209 C 0.70995 0.64799 0.20949 0.0
C2210 C 0.62792 0.65724 0.24361 0.0
C2211 C 0.60501 0.65196 0.25828 0.0
N2212 N 0.62024 0.65202 0.26544 0.0
C2213 C 0.64331 0.65754 0.25113 0.0
C2214 C 0.60858 0.65468 0.24722 0.0
C2215 C 0.63915 0.65475 0.26212 0.0
C2216 C 0.67226 0.70278 0.2249 0.0
N2217 N 0.67278 0.68319 0.22714 0.0
C2218 C 0.7018 0.68747 0.2379 0.0
C2219 C 0.68712 0.6754 0.23354 0.0
C2220 C 0.7015 0.70781 0.23581 0.0
C2221 C 0.68651 0.71542 0.22917 0.0
H2222 H 0.66054 0.70869 0.21994 0.0
H2223 H 0.68695 0.6599 0.23548 0.0
C2224 C 0.62649 0.59538 0.22388 0.0
N2225 N 0.63342 0.61041 0.23008 0.0
C2226 C 0.62602 0.57618 0.22794 0.0
C2227 C 0.64017 0.58815 0.24466 0.0
C2228 C 0.64035 0.60713 0.24027 0.0
C2229 C 0.63293 0.57234 0.23847 0.0
H2230 H 0.62132 0.59831 0.21574 0.0
H2231 H 0.64636 0.61913 0.24493 0.0
C2232 C 0.63408 0.69272 0.20234 0.0
N2233 N 0.63445 0.71538 0.18373 0.0
C2234 C 0.61666 0.70117 0.1985 0.0
C2235 C 0.65173 0.696 0.19681 0.0
C2236 C 0.61715 0.71253 0.18906 0.0
C2237 C 0.6516 0.70744 0.18739 0.0
C2238 C 0.59447 0.63213 0.21315 0.0
C2239 C 0.5836 0.62922 0.20365 0.0
C2240 C 0.58689 0.62573 0.22307 0.0
C2241 C 0.56515 0.62021 0.20429 0.0
C2242 C 0.5684 0.61675 0.22337 0.0
N2243 N 0.55798 0.61422 0.21405 0.0
C2244 C 0.65124 0.64118 0.18539 0.0
C2245 C 0.62026 0.6572 0.18473 0.0
C2246 C 0.65083 0.6382 0.17416 0.0
N2247 N 0.63607 0.65055 0.19041 0.0
C2248 C 0.61934 0.65475 0.17351 0.0
C2249 C 0.63471 0.64504 0.16808 0.0
H2250 H 0.66353 0.63582 0.19011 0.0
H2251 H 0.6082 0.66418 0.18896 0.0
C2252 C 0.59168 0.69512 0.2312 0.0
N2253 N 0.59105 0.68117 0.2233 0.0
C2254 C 0.57551 0.70743 0.23297 0.0
C2255 C 0.55827 0.69061 0.21854 0.0
C2256 C 0.57481 0.67874 0.217 0.0
C2257 C 0.55856 0.70533 0.22654 0.0
H2258 H 0.60492 0.69693 0.23597 0.0
H2259 H 0.57489 0.66806 0.21052 0.0
O2260 O 0.6571 0.64159 0.21427 0.0
O2261 O 0.63173 0.66013 0.23283 0.0
O2262 O 0.63387 0.68135 0.2115 0.0
O2263 O 0.61255 0.64099 0.21266 0.0
H2264 H 0.67547 0.6176 0.22783 0.0
H2265 H 0.68371 0.66046 0.20251 0.0
H2266 H 0.71175 0.61417 0.22924 0.0
H2267 H 0.71985 0.65639 0.2044 0.0
H2268 H 0.59012 0.64989 0.26117 0.0
H2269 H 0.65834 0.6597 0.2485 0.0
H2270 H 0.59641 0.655 0.24157 0.0
H2271 H 0.65094 0.65477 0.26802 0.0
H2272 H 0.71292 0.68105 0.24311 0.0
H2273 H 0.68581 0.73099 0.2273 0.0
H2274 H 0.62015 0.56451 0.2229 0.0
H2275 H 0.64602 0.58583 0.25273 0.0
H2276 H 0.6029 0.69885 0.20272 0.0
H2277 H 0.66536 0.68976 0.19975 0.0
H2278 H 0.60376 0.71905 0.18595 0.0
H2279 H 0.66514 0.71001 0.18298 0.0
H2280 H 0.58932 0.63393 0.19589 0.0
H2281 H 0.59529 0.62743 0.23045 0.0
H2282 H 0.55653 0.61795 0.19701 0.0
H2283 H 0.56235 0.61173 0.231 0.0
H2284 H 0.66299 0.63068 0.17027 0.0
H2285 H 0.60649 0.65995 0.16917 0.0
H2286 H 0.57631 0.71856 0.23925 0.0
H2287 H 0.54567 0.68875 0.21326 0.0
Li2288 Li 0.08913 0.90085 0.97178 0.0
Li2289 Li 0.11981 0.88327 0.9725 0.0
Li2290 Li 0.10214 0.88591 0.95546 0.0
Li2291 Li 0.08941 0.8654 0.96991 0.0
C2292 C 0.12305 0.92337 0.96886 0.0
N2293 N 0.14154 0.95504 0.97856 0.0
C2294 C 0.12117 0.9265 0.98002 0.0
C2295 C 0.13431 0.93635 0.96263 0.0
C2296 C 0.13064 0.94258 0.98477 0.0
C2297 C 0.14356 0.95228 0.96769 0.0
C2298 C 0.10201 0.86861 0.99109 0.0
C2299 C 0.11777 0.83914 0.99773 0.0
N2300 N 0.11151 0.84348 0.00793 0.0
C2301 C 0.09576 0.87278 1.00164 0.0
C2302 C 0.11313 0.85166 0.98911 0.0
C2303 C 0.1007 0.8599 0.01005 0.0
C2304 C 0.06257 0.91741 0.98645 0.0
N2305 N 0.07378 0.92183 0.97765 0.0
C2306 C 0.06146 0.95482 0.9775 0.0
C2307 C 0.07357 0.94013 0.97316 0.0
C2308 C 0.04969 0.95065 0.98659 0.0
C2309 C 0.05045 0.93169 0.99111 0.0
H2310 H 0.06291 0.90268 0.98978 0.0
H2311 H 0.08269 0.9433 0.96619 0.0
C2312 C 0.16073 0.87689 0.97221 0.0
N2313 N 0.14561 0.88269 0.97868 0.0
C2314 C 0.17998 0.87649 0.97621 0.0
C2315 C 0.16774 0.88807 0.99348 0.0
C2316 C 0.14874 0.88823 0.98914 0.0
C2317 C 0.18371 0.88216 0.98699 0.0
H2318 H 0.15782 0.87263 0.96391 0.0
H2319 H 0.1365 0.89294 0.9941 0.0
C2320 C 0.0621 0.89641 0.95529 0.0
N2321 N 0.03647 0.92027 0.94389 0.0
C2322 C 0.04219 0.89143 0.95453 0.0
C2323 C 0.06899 0.91352 0.95025 0.0
C2324 C 0.02946 0.90369 0.94873 0.0
C2325 C 0.05579 0.92539 0.94452 0.0
C2326 C 0.1136 0.84693 0.95454 0.0
C2327 C 0.09593 0.84269 0.94921 0.0
C2328 C 0.13037 0.83576 0.95227 0.0
C2329 C 0.09534 0.82731 0.9417 0.0
C2330 C 0.12919 0.82048 0.94471 0.0
N2331 N 0.11184 0.81661 0.93962 0.0
C2332 C 0.12379 0.89236 0.93631 0.0
C2333 C 0.091 0.88187 0.9332 0.0
C2334 C 0.12782 0.89176 0.9252 0.0
N2335 N 0.10567 0.88732 0.94008 0.0
C2336 C 0.09436 0.88114 0.92203 0.0
C2337 C 0.11304 0.88592 0.91789 0.0
H2338 H 0.13524 0.89643 0.94199 0.0
H2339 H 0.07683 0.87751 0.93638 0.0
C2340 C 0.05522 0.84594 0.97602 0.0
N2341 N 0.07425 0.84254 0.97321 0.0
C2342 C 0.04238 0.83024 0.97784 0.0
C2343 C 0.06907 0.80776 0.97403 0.0
C2344 C 0.08147 0.82393 0.97243 0.0
C2345 C 0.04912 0.81077 0.97663 0.0
H2346 H 0.04996 0.86092 0.9767 0.0
H2347 H 0.09674 0.82159 0.97032 0.0
O2348 O 0.114 0.90771 0.96398 0.0
O2349 O 0.09726 0.8812 0.98282 0.0
O2350 O 0.07466 0.8846 0.96103 0.0
O2351 O 0.11468 0.86207 0.96184 0.0
H2352 H 0.11251 0.91664 0.98498 0.0
H2353 H 0.13591 0.93412 0.95398 0.0
H2354 H 0.12932 0.94516 0.9934 0.0
H2355 H 0.15233 0.96244 0.96297 0.0
H2356 H 0.12636 0.82599 0.99631 0.0
H2357 H 0.08719 0.88588 0.00332 0.0
H2358 H 0.11822 0.84819 0.98103 0.0
H2359 H 0.09596 0.86295 0.01825 0.0
H2360 H 0.06143 0.96932 0.97383 0.0
H2361 H 0.04144 0.9278 0.99804 0.0
H2362 H 0.19177 0.87162 0.97095 0.0
H2363 H 0.16992 0.89284 1.00177 0.0
H2364 H 0.03664 0.87824 0.9584 0.0
H2365 H 0.08434 0.91763 0.95075 0.0
H2366 H 0.01401 0.90002 0.94808 0.0
H2367 H 0.06092 0.93868 0.94059 0.0
H2368 H 0.08278 0.85113 0.95087 0.0
H2369 H 0.14417 0.83887 0.95632 0.0
H2370 H 0.08176 0.82387 0.93752 0.0
H2371 H 0.14206 0.81171 0.94288 0.0
H2372 H 0.14238 0.89573 0.92236 0.0
H2373 H 0.08262 0.87623 0.91673 0.0
H2374 H 0.0273 0.83338 0.9801 0.0
H2375 H 0.07498 0.7931 0.9729 0.0
Li2376 Li 0.87112 0.36816 0.72217 0.0
Li2377 Li 0.85307 0.3377 0.72078 0.0
Li2378 Li 0.88857 0.3375 0.71926 0.0
Li2379 Li 0.8688 0.35126 0.70488 0.0
C2380 C 0.8848 0.34859 0.74067 0.0
N2381 N 0.90946 0.35576 0.75805 0.0
C2382 C 0.88065 0.34043 0.75082 0.0
C2383 C 0.9015 0.36039 0.73935 0.0
C2384 C 0.8933 0.34424 0.75951 0.0
C2385 C 0.91378 0.36384 0.74824 0.0
C2386 C 0.83129 0.37219 0.71829 0.0
C2387 C 0.80224 0.3925 0.71726 0.0
N2388 N 0.79979 0.39065 0.72817 0.0
C2389 C 0.82849 0.37048 0.72949 0.0
C2390 C 0.81808 0.38328 0.71212 0.0
C2391 C 0.81248 0.37993 0.73433 0.0
C2392 C 0.87618 0.40908 0.72185 0.0
N2393 N 0.87187 0.3938 0.72855 0.0
C2394 C 0.86818 0.4158 0.74357 0.0
C2395 C 0.86779 0.39679 0.73923 0.0
C2396 C 0.87259 0.43195 0.73684 0.0
C2397 C 0.87659 0.42834 0.72582 0.0
H2398 H 0.87911 0.40628 0.71336 0.0
H2399 H 0.86418 0.38444 0.74439 0.0
C2400 C 0.83735 0.30744 0.73317 0.0
N2401 N 0.83193 0.32201 0.72624 0.0
C2402 C 0.82326 0.29472 0.73753 0.0
C2403 C 0.79816 0.3123 0.72756 0.0
C2404 C 0.81279 0.32459 0.72331 0.0
C2405 C 0.80335 0.29708 0.73475 0.0
H2406 H 0.85271 0.30567 0.73529 0.0
H2407 H 0.80888 0.33608 0.71764 0.0
C2408 C 0.90801 0.36258 0.70458 0.0
N2409 N 0.93898 0.36193 0.69005 0.0
C2410 C 0.91311 0.34507 0.69932 0.0
C2411 C 0.91866 0.37975 0.70245 0.0
C2412 C 0.92881 0.34505 0.69201 0.0
C2413 C 0.93428 0.37912 0.69508 0.0
C2414 C 0.85742 0.31206 0.70364 0.0
C2415 C 0.86274 0.29263 0.70134 0.0
C2416 C 0.83984 0.31964 0.69947 0.0
C2417 C 0.85036 0.28107 0.69491 0.0
C2418 C 0.82785 0.30761 0.69308 0.0
N2419 N 0.83332 0.28874 0.69095 0.0
C2420 C 0.908 0.30225 0.72306 0.0
C2421 C 0.92962 0.32966 0.72322 0.0
C2422 C 0.92377 0.2893 0.72427 0.0
N2423 N 0.9112 0.32195 0.72237 0.0
C2424 C 0.94587 0.31722 0.72445 0.0
C2425 C 0.94307 0.29671 0.72477 0.0
H2426 H 0.89316 0.29659 0.72244 0.0
H2427 H 0.93177 0.3454 0.72261 0.0
C2428 C 0.86213 0.37291 0.68558 0.0
N2429 N 0.8681 0.3552 0.68953 0.0
C2430 C 0.8635 0.37697 0.67447 0.0
C2431 C 0.87686 0.34437 0.67172 0.0
C2432 C 0.87513 0.34092 0.68283 0.0
C2433 C 0.87127 0.36269 0.66741 0.0
H2434 H 0.85682 0.38408 0.69111 0.0
H2435 H 0.87995 0.32701 0.68615 0.0
O2436 O 0.87251 0.3449 0.73212 0.0
O2437 O 0.84691 0.36322 0.71333 0.0
O2438 O 0.89261 0.36308 0.71172 0.0
O2439 O 0.86943 0.32347 0.70996 0.0
H2440 H 0.86778 0.33126 0.75196 0.0
H2441 H 0.90494 0.3669 0.73158 0.0
H2442 H 0.89026 0.33802 0.76742 0.0
H2443 H 0.92674 0.37296 0.74733 0.0
H2444 H 0.79189 0.40113 0.71258 0.0
H2445 H 0.83851 0.36193 0.73441 0.0
H2446 H 0.82007 0.38475 0.70345 0.0
H2447 H 0.81014 0.37873 0.74298 0.0
H2448 H 0.86522 0.41775 0.75213 0.0
H2449 H 0.87969 0.44029 0.72026 0.0
H2450 H 0.82789 0.28331 0.74311 0.0
H2451 H 0.783 0.31448 0.72511 0.0
H2452 H 0.90503 0.33164 0.70085 0.0
H2453 H 0.91488 0.39343 0.70645 0.0
H2454 H 0.9329 0.3316 0.68788 0.0
H2455 H 0.94264 0.39231 0.69335 0.0
H2456 H 0.87632 0.28655 0.70449 0.0
H2457 H 0.83546 0.33464 0.70111 0.0
H2458 H 0.8543 0.26601 0.69307 0.0
H2459 H 0.81421 0.31329 0.6898 0.0
H2460 H 0.92092 0.27363 0.72466 0.0
H2461 H 0.9605 0.32353 0.72473 0.0
H2462 H 0.85919 0.39135 0.67151 0.0
H2463 H 0.8827 0.33287 0.66655 0.0
Li2464 Li 0.4032 0.88568 0.04952 0.0
Li2465 Li 0.41657 0.86618 0.03492 0.0
Li2466 Li 0.41649 0.90165 0.03358 0.0
Li2467 Li 0.38596 0.8838 0.03233 0.0
C2468 C 0.44245 0.89707 0.05054 0.0
N2469 N 0.466 0.921 0.06321 0.0
C2470 C 0.46213 0.89209 0.05239 0.0
C2471 C 0.43473 0.9142 0.05518 0.0
C2472 C 0.4738 0.90439 0.0588 0.0
C2473 C 0.44688 0.92611 0.06155 0.0
C2474 C 0.39211 0.8464 0.04963 0.0
C2475 C 0.37631 0.81948 0.05897 0.0
N2476 N 0.39371 0.81495 0.06383 0.0
C2477 C 0.40983 0.84145 0.05471 0.0
C2478 C 0.37521 0.83532 0.05176 0.0
C2479 C 0.41034 0.82551 0.06187 0.0
C2480 C 0.38215 0.89233 0.06907 0.0
N2481 N 0.39965 0.8862 0.06492 0.0
C2482 C 0.41116 0.8775 0.0826 0.0
C2483 C 0.41415 0.8791 0.07145 0.0
C2484 C 0.39308 0.88327 0.08713 0.0
C2485 C 0.37856 0.89108 0.08023 0.0
H2486 H 0.37081 0.89773 0.06368 0.0
H2487 H 0.4279 0.8742 0.06797 0.0
C2488 C 0.45183 0.8468 0.03129 0.0
N2489 N 0.43211 0.84358 0.03164 0.0
C2490 C 0.46484 0.83107 0.0301 0.0
C2491 C 0.43696 0.80901 0.02911 0.0
C2492 C 0.42445 0.8252 0.03043 0.0
C2493 C 0.45745 0.81185 0.02917 0.0
H2494 H 0.45746 0.8616 0.03218 0.0
H2495 H 0.40869 0.82302 0.03081 0.0
C2496 C 0.38226 0.92365 0.03649 0.0
N2497 N 0.36384 0.95559 0.02702 0.0
C2498 C 0.38437 0.92721 0.02538 0.0
C2499 C 0.37081 0.93635 0.04278 0.0
C2500 C 0.37493 0.94343 0.02075 0.0
C2501 C 0.3616 0.95242 0.03785 0.0
C2502 C 0.40466 0.87028 0.01365 0.0
C2503 C 0.41222 0.87455 0.00337 0.0
C2504 C 0.39282 0.85364 0.01509 0.0
C2505 C 0.40784 0.86207 0.9947 0.0
C2506 C 0.38878 0.84152 0.00621 0.0
N2507 N 0.39631 0.84595 0.99628 0.0
C2508 C 0.44409 0.91809 0.01967 0.0
C2509 C 0.43141 0.94141 0.03214 0.0
C2510 C 0.45644 0.93226 0.01511 0.0
N2511 N 0.43193 0.92285 0.02801 0.0
C2512 C 0.44365 0.95606 0.02787 0.0
C2513 C 0.45648 0.95156 0.01924 0.0
H2514 H 0.44423 0.90319 0.01658 0.0
H2515 H 0.42165 0.9448 0.03881 0.0
C2516 C 0.34512 0.87707 0.03228 0.0
N2517 N 0.3603 0.88327 0.02597 0.0
C2518 C 0.32596 0.87661 0.02816 0.0
C2519 C 0.3384 0.889 0.0111 0.0
C2520 C 0.35732 0.8892 0.01556 0.0
C2521 C 0.32237 0.88265 0.01743 0.0
H2522 H 0.3479 0.87262 0.04057 0.0
H2523 H 0.36962 0.89411 0.01069 0.0
O2524 O 0.4309 0.88512 0.04425 0.0
O2525 O 0.39115 0.862 0.04263 0.0
O2526 O 0.39128 0.90785 0.04126 0.0
O2527 O 0.40885 0.88246 0.02219 0.0
H2528 H 0.46833 0.87884 0.04891 0.0
H2529 H 0.41953 0.91828 0.05393 0.0
H2530 H 0.48906 0.90071 0.06029 0.0
H2531 H 0.44109 0.93941 0.06517 0.0
H2532 H 0.36334 0.81079 0.0607 0.0
H2533 H 0.42308 0.84982 0.05316 0.0
H2534 H 0.36138 0.83894 0.04788 0.0
H2535 H 0.42396 0.82155 0.06586 0.0
H2536 H 0.42285 0.87164 0.08763 0.0
H2537 H 0.36436 0.89554 0.08337 0.0
H2538 H 0.48054 0.8339 0.03004 0.0
H2539 H 0.43072 0.79438 0.02848 0.0
H2540 H 0.39319 0.91759 0.02037 0.0
H2541 H 0.36904 0.93379 0.0514 0.0
H2542 H 0.37643 0.94634 0.01216 0.0
H2543 H 0.35268 0.96237 0.04262 0.0
H2544 H 0.42136 0.88742 1.00211 0.0
H2545 H 0.38671 0.85012 0.02294 0.0
H2546 H 0.4136 0.86521 0.9867 0.0
H2547 H 0.37963 0.82861 0.00721 0.0
H2548 H 0.46576 0.92813 0.00836 0.0
H2549 H 0.44331 0.97063 0.03141 0.0
H2550 H 0.31404 0.87187 0.03338 0.0
H2551 H 0.33638 0.89358 0.00276 0.0
Li2552 Li 0.88951 0.6648 0.78555 0.0
Li2553 Li 0.86772 0.65132 0.80045 0.0
Li2554 Li 0.87117 0.6348 0.78196 0.0
Li2555 Li 0.85401 0.66516 0.78372 0.0
C2556 C 0.91092 0.63707 0.79587 0.0
N2557 N 0.95049 0.63382 0.80078 0.0
C2558 C 0.91734 0.63899 0.80659 0.0
C2559 C 0.92461 0.63325 0.78767 0.0
C2560 C 0.93741 0.63736 0.8089 0.0
C2561 C 0.94455 0.63173 0.79031 0.0
C2562 C 0.86185 0.69639 0.79579 0.0
C2563 C 0.83833 0.71845 0.80394 0.0
N2564 N 0.84345 0.73259 0.79665 0.0
C2565 C 0.86698 0.71115 0.78842 0.0
C2566 C 0.84749 0.70003 0.80365 0.0
C2567 C 0.85746 0.72936 0.78897 0.0
C2568 C 0.91709 0.68784 0.77368 0.0
N2569 N 0.91272 0.68009 0.78355 0.0
C2570 C 0.93975 0.69713 0.79165 0.0
C2571 C 0.92356 0.6846 0.79247 0.0
C2572 C 0.94455 0.70566 0.78159 0.0
C2573 C 0.93302 0.70071 0.7725 0.0
H2574 H 0.90783 0.68454 0.76678 0.0
H2575 H 0.91936 0.6788 0.8003 0.0
C2576 C 0.86086 0.63032 0.82007 0.0
N2577 N 0.86654 0.64781 0.81571 0.0
C2578 C 0.86218 0.62721 0.83126 0.0
C2579 C 0.875 0.66023 0.83323 0.0
C2580 C 0.87331 0.66273 0.82203 0.0
C2581 C 0.86967 0.64218 0.83797 0.0
H2582 H 0.8558 0.61861 0.8148 0.0
H2583 H 0.87799 0.67639 0.81832 0.0
C2584 C 0.87598 0.65026 0.76258 0.0
N2585 N 0.88028 0.63288 0.74245 0.0
C2586 C 0.85955 0.64725 0.75596 0.0
C2587 C 0.89462 0.64462 0.75892 0.0
C2588 C 0.86203 0.6384 0.74582 0.0
C2589 C 0.89648 0.6358 0.74874 0.0
C2590 C 0.827 0.63985 0.79127 0.0
C2591 C 0.81607 0.6373 0.78176 0.0
C2592 C 0.81727 0.64252 0.80115 0.0
C2593 C 0.79552 0.63761 0.7823 0.0
C2594 C 0.7967 0.6427 0.80135 0.0
N2595 N 0.78635 0.64028 0.792 0.0
C2596 C 0.88675 0.59664 0.77812 0.0
C2597 C 0.85766 0.60362 0.76828 0.0
C2598 C 0.88741 0.57762 0.7738 0.0
N2599 N 0.87205 0.60923 0.77529 0.0
C2600 C 0.85785 0.58482 0.76368 0.0
C2601 C 0.87279 0.57142 0.76648 0.0
H2602 H 0.89777 0.60121 0.78391 0.0
H2603 H 0.84592 0.61367 0.76628 0.0
C2604 C 0.83672 0.6901 0.76824 0.0
N2605 N 0.83328 0.68176 0.77809 0.0
C2606 C 0.82296 0.70281 0.7636 0.0
C2607 C 0.80245 0.6987 0.77943 0.0
C2608 C 0.81668 0.6861 0.78379 0.0
C2609 C 0.80544 0.70719 0.76915 0.0
H2610 H 0.85036 0.68713 0.76405 0.0
H2611 H 0.81452 0.68 0.79179 0.0
O2612 O 0.89135 0.63886 0.79342 0.0
O2613 O 0.87058 0.67831 0.79517 0.0
O2614 O 0.87384 0.65875 0.77258 0.0
O2615 O 0.84711 0.63949 0.79095 0.0
H2616 H 0.90697 0.64181 0.81306 0.0
H2617 H 0.91988 0.63149 0.77936 0.0
H2618 H 0.94259 0.63892 0.81716 0.0
H2619 H 0.9553 0.62888 0.78403 0.0
H2620 H 0.8271 0.72146 0.80993 0.0
H2621 H 0.87802 0.70848 0.78226 0.0
H2622 H 0.84327 0.68867 0.80936 0.0
H2623 H 0.86116 0.74089 0.78327 0.0
H2624 H 0.94828 0.70023 0.79887 0.0
H2625 H 0.93584 0.70719 0.76463 0.0
H2626 H 0.8581 0.61302 0.83458 0.0
H2627 H 0.88066 0.67222 0.83811 0.0
H2628 H 0.845 0.65143 0.75867 0.0
H2629 H 0.90751 0.64706 0.76387 0.0
H2630 H 0.84942 0.63585 0.74064 0.0
H2631 H 0.91081 0.63131 0.74582 0.0
H2632 H 0.82334 0.63545 0.77404 0.0
H2633 H 0.8255 0.64456 0.80858 0.0
H2634 H 0.78688 0.63581 0.775 0.0
H2635 H 0.78897 0.64481 0.80893 0.0
H2636 H 0.89901 0.56775 0.7764 0.0
H2637 H 0.84638 0.58087 0.75799 0.0
H2638 H 0.82621 0.70941 0.7558 0.0
H2639 H 0.78919 0.70161 0.78403 0.0
Li2640 Li 0.08941 0.13922 0.53506 0.0
Li2641 Li 0.10226 0.11825 0.54922 0.0
Li2642 Li 0.11946 0.12098 0.53202 0.0
Li2643 Li 0.08843 0.10379 0.53301 0.0
C2644 C 0.11446 0.15702 0.55027 0.0
N2645 N 0.1138 0.1871 0.56535 0.0
C2646 C 0.09699 0.1617 0.55567 0.0
C2647 C 0.13159 0.16764 0.55253 0.0
C2648 C 0.09695 0.17696 0.56327 0.0
C2649 C 0.13096 0.1828 0.56018 0.0
C2650 C 0.06244 0.10829 0.54998 0.0
C2651 C 0.05647 0.07858 0.56018 0.0
N2652 N 0.03759 0.08447 0.56192 0.0
C2653 C 0.04299 0.11404 0.55185 0.0
C2654 C 0.06926 0.09041 0.55416 0.0
C2655 C 0.03065 0.1018 0.55792 0.0
C2656 C 0.0553 0.15998 0.52987 0.0
N2657 N 0.07475 0.16253 0.53204 0.0
C2658 C 0.07119 0.1975 0.53109 0.0
C2659 C 0.08294 0.18079 0.53245 0.0
C2660 C 0.05095 0.19532 0.5291 0.0
C2661 C 0.04307 0.17627 0.5283 0.0
H2662 H 0.04922 0.14527 0.52957 0.0
H2663 H 0.0985 0.18242 0.53405 0.0
C2664 C 0.12403 0.11038 0.5682 0.0
N2665 N 0.10615 0.11643 0.56455 0.0
C2666 C 0.12829 0.11066 0.5793 0.0
C2667 C 0.09554 0.12312 0.58268 0.0
C2668 C 0.09192 0.12259 0.57154 0.0
C2669 C 0.11401 0.11731 0.58671 0.0
H2670 H 0.13513 0.10573 0.56246 0.0
H2671 H 0.07793 0.12768 0.56844 0.0
C2672 C 0.1009 0.13605 0.51367 0.0
N2673 N 0.1096 0.16121 0.49671 0.0
C2674 C 0.09336 0.1324 0.50332 0.0
C2675 C 0.11287 0.1525 0.5154 0.0
C2676 C 0.09793 0.14529 0.49485 0.0
C2677 C 0.1171 0.16504 0.50673 0.0
C2678 C 0.12234 0.08085 0.53538 0.0
C2679 C 0.12024 0.07812 0.5242 0.0
C2680 C 0.13357 0.06754 0.54141 0.0
C2681 C 0.12944 0.06209 0.51924 0.0
C2682 C 0.14254 0.05169 0.53615 0.0
N2683 N 0.1403 0.04931 0.52526 0.0
C2684 C 0.16041 0.12671 0.5321 0.0
C2685 C 0.14802 0.11617 0.5151 0.0
C2686 C 0.1796 0.127 0.52802 0.0
N2687 N 0.14512 0.12137 0.52563 0.0
C2688 C 0.16697 0.11622 0.51068 0.0
C2689 C 0.18312 0.12167 0.51716 0.0
H2690 H 0.15768 0.1307 0.54046 0.0
H2691 H 0.13564 0.11182 0.51014 0.0
C2692 C 0.05808 0.0892 0.52018 0.0
N2693 N 0.07221 0.08331 0.52727 0.0
C2694 C 0.04511 0.07551 0.51567 0.0
C2695 C 0.06152 0.04985 0.52582 0.0
C2696 C 0.07407 0.06409 0.53022 0.0
C2697 C 0.04675 0.05552 0.51846 0.0
H2698 H 0.05687 0.10461 0.51805 0.0
H2699 H 0.08522 0.05982 0.53602 0.0
O2700 O 0.11498 0.14203 0.54286 0.0
O2701 O 0.07459 0.12012 0.54398 0.0
O2702 O 0.09649 0.12349 0.522 0.0
O2703 O 0.11362 0.09649 0.54046 0.0
H2704 H 0.08356 0.1537 0.55402 0.0
H2705 H 0.14525 0.16419 0.54842 0.0
H2706 H 0.08353 0.18073 0.56751 0.0
H2707 H 0.14412 0.19114 0.56201 0.0
H2708 H 0.06154 0.06471 0.56347 0.0
H2709 H 0.0375 0.12784 0.54865 0.0
H2710 H 0.08426 0.0857 0.55281 0.0
H2711 H 0.01556 0.10607 0.55944 0.0
H2712 H 0.07783 0.21196 0.53165 0.0
H2713 H 0.02751 0.17399 0.52685 0.0
H2714 H 0.14266 0.10585 0.58204 0.0
H2715 H 0.0842 0.12867 0.58804 0.0
H2716 H 0.08407 0.11972 0.50185 0.0
H2717 H 0.11891 0.15557 0.52333 0.0
H2718 H 0.0922 0.14264 0.48679 0.0
H2719 H 0.12634 0.17782 0.50795 0.0
H2720 H 0.11158 0.08822 0.51939 0.0
H2721 H 0.13535 0.06948 0.55008 0.0
H2722 H 0.12793 0.05981 0.51059 0.0
H2723 H 0.15128 0.04127 0.54072 0.0
H2724 H 0.19152 0.13155 0.53329 0.0
H2725 H 0.16897 0.11173 0.50233 0.0
H2726 H 0.03406 0.08049 0.50996 0.0
H2727 H 0.06313 0.03463 0.52828 0.0
Li2728 Li 0.63723 0.35216 0.30011 0.0
Li2729 Li 0.61599 0.33867 0.28555 0.0
Li2730 Li 0.65094 0.33887 0.28366 0.0
Li2731 Li 0.63386 0.36937 0.28278 0.0
C2732 C 0.64789 0.30986 0.29745 0.0
N2733 N 0.67451 0.28021 0.30198 0.0
C2734 C 0.64473 0.29084 0.2935 0.0
C2735 C 0.66457 0.31379 0.30374 0.0
C2736 C 0.65837 0.27606 0.29586 0.0
C2737 C 0.67785 0.2986 0.30594 0.0
C2738 C 0.59832 0.36425 0.30115 0.0
C2739 C 0.57277 0.38143 0.31088 0.0
N2740 N 0.56899 0.36481 0.31667 0.0
C2741 C 0.59419 0.34733 0.3072 0.0
C2742 C 0.58757 0.38146 0.30301 0.0
C2743 C 0.5793 0.34791 0.315 0.0
C2744 C 0.64036 0.37478 0.31917 0.0
N2745 N 0.63863 0.35606 0.3154 0.0
C2746 C 0.63452 0.34377 0.33342 0.0
C2747 C 0.63585 0.34063 0.32225 0.0
C2748 C 0.63581 0.363 0.33759 0.0
C2749 C 0.63902 0.37861 0.33029 0.0
H2750 H 0.64215 0.3868 0.31349 0.0
H2751 H 0.63406 0.32594 0.31903 0.0
C2752 C 0.59578 0.30592 0.27771 0.0
N2753 N 0.5928 0.32386 0.28228 0.0
C2754 C 0.57992 0.29333 0.27575 0.0
C2755 C 0.55805 0.31832 0.28275 0.0
C2756 C 0.57433 0.33048 0.28449 0.0
C2757 C 0.56074 0.29928 0.2785 0.0
H2758 H 0.61055 0.30133 0.27566 0.0
H2759 H 0.57217 0.34507 0.28776 0.0
C2760 C 0.67399 0.37269 0.28602 0.0
N2761 N 0.70522 0.39098 0.27578 0.0
C2762 C 0.67645 0.37083 0.27481 0.0
C2763 C 0.68742 0.38384 0.29202 0.0
C2764 C 0.69232 0.38019 0.26978 0.0
C2765 C 0.70311 0.39297 0.28669 0.0
C2766 C 0.61854 0.35136 0.26446 0.0
C2767 C 0.62242 0.3452 0.25386 0.0
C2768 C 0.60155 0.36231 0.26663 0.0
C2769 C 0.60924 0.35012 0.24559 0.0
C2770 C 0.58874 0.36691 0.25814 0.0
N2771 N 0.59281 0.36078 0.24788 0.0
C2772 C 0.66658 0.31091 0.2695 0.0
C2773 C 0.69047 0.32398 0.28152 0.0
C2774 C 0.68055 0.29841 0.26487 0.0
N2775 N 0.67172 0.32331 0.27766 0.0
C2776 C 0.70493 0.31169 0.27713 0.0
C2777 C 0.70004 0.2986 0.2687 0.0
H2778 H 0.65152 0.31064 0.26664 0.0
H2779 H 0.69412 0.33385 0.2881 0.0
C2780 C 0.62811 0.4103 0.28327 0.0
N2781 N 0.63303 0.39515 0.2766 0.0
C2782 C 0.62768 0.4296 0.27934 0.0
C2783 C 0.63744 0.41735 0.26174 0.0
C2784 C 0.63769 0.39829 0.26602 0.0
C2785 C 0.63242 0.43335 0.26843 0.0
H2786 H 0.62461 0.40738 0.29168 0.0
H2787 H 0.6418 0.38604 0.2609 0.0
O2788 O 0.63505 0.32472 0.29497 0.0
O2789 O 0.61314 0.36422 0.29363 0.0
O2790 O 0.65854 0.36377 0.29117 0.0
O2791 O 0.63141 0.34659 0.27258 0.0
H2792 H 0.63192 0.2875 0.28864 0.0
H2793 H 0.66742 0.3285 0.30672 0.0
H2794 H 0.65614 0.26128 0.29282 0.0
H2795 H 0.69087 0.30146 0.31074 0.0
H2796 H 0.56432 0.39465 0.3124 0.0
H2797 H 0.60236 0.33388 0.30588 0.0
H2798 H 0.59064 0.3947 0.29842 0.0
H2799 H 0.57595 0.33493 0.31974 0.0
H2800 H 0.63229 0.33124 0.33872 0.0
H2801 H 0.63978 0.3937 0.33308 0.0
H2802 H 0.5827 0.27905 0.27216 0.0
H2803 H 0.54359 0.3236 0.28502 0.0
H2804 H 0.66625 0.36226 0.27002 0.0
H2805 H 0.6857 0.38543 0.30071 0.0
H2806 H 0.69439 0.37888 0.26111 0.0
H2807 H 0.71361 0.40166 0.29124 0.0
H2808 H 0.63552 0.33673 0.25204 0.0
H2809 H 0.59825 0.36727 0.27475 0.0
H2810 H 0.61208 0.34545 0.23734 0.0
H2811 H 0.57555 0.37538 0.2597 0.0
H2812 H 0.67614 0.2888 0.25829 0.0
H2813 H 0.71969 0.31217 0.28044 0.0
H2814 H 0.62353 0.44142 0.28476 0.0
H2815 H 0.64149 0.41955 0.25333 0.0
H2816 H 0.97357 0.52333 0.97662 0.0
H2817 H 0.97172 0.55401 0.00733 0.0
H2818 H 0.99582 0.499 0.98446 0.0
H2819 H 0.99435 0.52994 0.01503 0.0
H2820 H 0.05115 0.49451 0.02121 0.0
H2821 H 0.02943 0.51907 0.01298 0.0
H2822 H 0.99486 0.47255 0.99857 0.0
H2823 H 0.01669 0.44806 0.00667 0.0
C2824 C 0.97776 0.52485 0.98506 0.0
C2825 C 0.97079 0.54071 0.99132 0.0
C2826 C 0.99059 0.51092 0.98953 0.0
C2827 C 0.99689 0.51259 1.00035 0.0
C2828 C 0.99 0.52843 0.00662 0.0
C2829 C 0.97704 0.54225 1.00218 0.0
C2830 C 0.039 0.48956 0.01622 0.0
C2831 C 0.03559 0.46936 0.01462 0.0
C2832 C 0.02647 0.5036 0.01158 0.0
C2833 C 0.01041 0.49773 0.00514 0.0
C2834 C 0.00719 0.47754 0.00342 0.0
C2835 C 0.01958 0.46352 0.00815 0.0
H2836 H 0.69544 0.74342 0.24558 0.0
H2837 H 0.7413 0.70214 0.23716 0.0
H2838 H 0.71999 0.76535 0.25359 0.0
H2839 H 0.76583 0.72397 0.2453 0.0
H2840 H 0.80483 0.77916 0.24934 0.0
H2841 H 0.78027 0.75725 0.24151 0.0
H2842 H 0.74308 0.76579 0.2695 0.0
H2843 H 0.76787 0.78733 0.27753 0.0
C2844 C 0.71078 0.73907 0.24541 0.0
C2845 C 0.71645 0.72108 0.24071 0.0
C2846 C 0.7248 0.75154 0.25008 0.0
C2847 C 0.74483 0.74638 0.25007 0.0
C2848 C 0.75052 0.72841 0.24535 0.0
C2849 C 0.73647 0.71585 0.24077 0.0
C2850 C 0.79156 0.7762 0.25392 0.0
C2851 C 0.78845 0.78499 0.26412 0.0
C2852 C 0.77746 0.76367 0.2494 0.0
C2853 C 0.75978 0.75975 0.2549 0.0
C2854 C 0.75649 0.76869 0.26502 0.0
C2855 C 0.77069 0.7811 0.2696 0.0
H2856 H 0.52357 0.44636 0.50316 0.0
H2857 H 0.54176 0.48872 0.47906 0.0
H2858 H 0.50211 0.47091 0.5114 0.0
H2859 H 0.51987 0.51318 0.48705 0.0
H2860 H 0.49468 0.55838 0.51028 0.0
H2861 H 0.51604 0.5337 0.50229 0.0
H2862 H 0.47259 0.48885 0.50906 0.0
H2863 H 0.45178 0.51337 0.51775 0.0
C2864 C 0.52279 0.46088 0.49955 0.0
C2865 C 0.53437 0.46562 0.49047 0.0
C2866 C 0.51043 0.47497 0.50425 0.0
C2867 C 0.50917 0.49411 0.49991 0.0
C2868 C 0.52068 0.49875 0.49076 0.0
C2869 C 0.53321 0.48472 0.48614 0.0
C2870 C 0.48976 0.54322 0.51024 0.0
C2871 C 0.47149 0.53793 0.51477 0.0
C2872 C 0.50193 0.52906 0.50547 0.0
C2873 C 0.4961 0.5092 0.50498 0.0
C2874 C 0.47774 0.50392 0.50941 0.0
C2875 C 0.46563 0.51807 0.51427 0.0
H2876 H 0.76738 0.30698 0.7431 0.0
H2877 H 0.80502 0.25703 0.73688 0.0
H2878 H 0.74291 0.28523 0.75122 0.0
H2879 H 0.7804 0.23516 0.74475 0.0
H2880 H 0.74147 0.20442 0.76989 0.0
H2881 H 0.76597 0.2259 0.76154 0.0
H2882 H 0.71935 0.26055 0.74719 0.0
H2883 H 0.69497 0.23934 0.75577 0.0
C2884 C 0.7703 0.2913 0.74335 0.0
C2885 C 0.78815 0.28374 0.73937 0.0
C2886 C 0.75626 0.2788 0.74798 0.0
C2887 C 0.75962 0.25837 0.74867 0.0
C2888 C 0.77741 0.25082 0.74456 0.0
C2889 C 0.79152 0.26335 0.74001 0.0
C2890 C 0.7365 0.21656 0.7649 0.0
C2891 C 0.7163 0.22024 0.76354 0.0
C2892 C 0.75053 0.22887 0.76007 0.0
C2893 C 0.74469 0.24506 0.75369 0.0
C2894 C 0.72444 0.24851 0.75222 0.0
C2895 C 0.71044 0.23631 0.75712 0.0
H2896 H 0.99377 0.44458 0.50944 0.0
H2897 H 0.95111 0.49014 0.51628 0.0
H2898 H 0.01526 0.46882 0.50108 0.0
H2899 H 0.97321 0.5146 0.50857 0.0
H2900 H 0.0077 0.55076 0.48405 0.0
H2901 H 0.98597 0.526 0.49188 0.0
H2902 H 0.03649 0.49541 0.50497 0.0
H2903 H 0.05819 0.51994 0.49684 0.0
C2904 C 0.98893 0.45976 0.50917 0.0
C2905 C 0.97057 0.4653 0.51351 0.0
C2906 C 1.00144 0.47376 0.50451 0.0
C2907 C 0.99605 0.49374 0.50413 0.0
C2908 C 0.97778 0.49932 0.50856 0.0
C2909 C 0.96519 0.48529 0.51314 0.0
C2910 C 0.01413 0.53874 0.48862 0.0
C2911 C 0.03465 0.5373 0.48984 0.0
C2912 C 1.00167 0.52457 0.49316 0.0
C2913 C 0.0094 0.50868 0.49913 0.0
C2914 C 0.02998 0.50723 0.50029 0.0
C2915 C 0.04245 0.52131 0.49565 0.0
H2916 H 0.73007 0.80654 0.75175 0.0
H2917 H 0.7116 0.75938 0.73053 0.0
H2918 H 0.75504 0.78507 0.7596 0.0
H2919 H 0.73581 0.73766 0.73877 0.0
H2920 H 0.79412 0.70956 0.74786 0.0
H2921 H 0.77037 0.73192 0.73973 0.0
H2922 H 0.75836 0.75695 0.77126 0.0
H2923 H 0.78293 0.73528 0.77932 0.0
C2924 C 0.73136 0.79163 0.74872 0.0
C2925 C 0.71878 0.78473 0.74049 0.0
C2926 C 0.74551 0.77921 0.75334 0.0
C2927 C 0.74744 0.75958 0.74986 0.0
C2928 C 0.73493 0.75274 0.74159 0.0
C2929 C 0.72084 0.76515 0.73695 0.0
C2930 C 0.78661 0.71999 0.75306 0.0
C2931 C 0.79052 0.72061 0.76426 0.0
C2932 C 0.77277 0.73266 0.7484 0.0
C2933 C 0.76236 0.74625 0.75483 0.0
C2934 C 0.76624 0.74685 0.76604 0.0
C2935 C 0.78015 0.73421 0.77069 0.0
H2936 H 0.45166 0.47124 0.00558 0.0
H2937 H 0.48756 0.4718 0.97665 0.0
H2938 H 0.47285 0.49622 0.01368 0.0
H2939 H 0.50928 0.49592 0.98494 0.0
H2940 H 0.53339 0.55322 0.99818 0.0
H2941 H 0.51078 0.52958 0.9902 0.0
H2942 H 0.50525 0.50033 0.02118 0.0
H2943 H 0.52709 0.52469 0.02932 0.0
C2944 C 0.46401 0.47673 1.00092 0.0
C2945 C 0.46787 0.46946 0.99045 0.0
C2946 C 0.47634 0.49087 0.00563 0.0
C2947 C 0.49285 0.49808 0.99999 0.0
C2948 C 0.4966 0.49091 0.98949 0.0
C2949 C 0.48425 0.47685 0.98478 0.0
C2950 C 0.52716 0.54192 0.00334 0.0
C2951 C 0.53207 0.54094 0.01442 0.0
C2952 C 0.51437 0.52817 0.99872 0.0
C2953 C 0.50619 0.51296 0.00502 0.0
C2954 C 0.51108 0.51196 0.0161 0.0
C2955 C 0.52384 0.52579 0.02074 0.0
H2956 H 0.77381 0.19892 0.24988 0.0
H2957 H 0.79591 0.24783 0.23108 0.0
H2958 H 0.74926 0.22044 0.25811 0.0
H2959 H 0.7713 0.26932 0.23924 0.0
H2960 H 0.73877 0.30663 0.26419 0.0
H2961 H 0.76329 0.28472 0.25629 0.0
H2962 H 0.71969 0.23857 0.25404 0.0
H2963 H 0.69543 0.26017 0.2624 0.0
C2964 C 0.77328 0.21421 0.24741 0.0
C2965 C 0.78686 0.22165 0.23983 0.0
C2966 C 0.75921 0.22657 0.25213 0.0
C2967 C 0.75833 0.24666 0.24938 0.0
C2968 C 0.77178 0.25403 0.24171 0.0
C2969 C 0.78587 0.24169 0.23701 0.0
C2970 C 0.73447 0.29174 0.26214 0.0
C2971 C 0.71509 0.2852 0.26393 0.0
C2972 C 0.74847 0.27924 0.25747 0.0
C2973 C 0.74347 0.25989 0.25447 0.0
C2974 C 0.72413 0.25331 0.25633 0.0
C2975 C 0.71013 0.2658 0.26101 0.0
H2976 H 0.30758 0.26809 0.75481 0.0
H2977 H 0.26101 0.29942 0.77121 0.0
H2978 H 0.28338 0.24666 0.74626 0.0
H2979 H 0.23671 0.27764 0.76292 0.0
H2980 H 0.19667 0.24728 0.73849 0.0
H2981 H 0.22102 0.26942 0.74639 0.0
H2982 H 0.26137 0.2206 0.74997 0.0
H2983 H 0.23716 0.19868 0.74177 0.0
C2984 C 0.29214 0.27026 0.75667 0.0
C2985 C 0.2862 0.28541 0.76371 0.0
C2986 C 0.27824 0.25792 0.7518 0.0
C2987 C 0.25802 0.26029 0.75391 0.0
C2988 C 0.2521 0.27553 0.76094 0.0
C2989 C 0.26602 0.288 0.76573 0.0
C2990 C 0.21075 0.24132 0.74099 0.0
C2991 C 0.21501 0.22125 0.73951 0.0
C2992 C 0.2247 0.25398 0.74556 0.0
C2993 C 0.24322 0.24686 0.74887 0.0
C2994 C 0.24744 0.22674 0.74736 0.0
C2995 C 0.23355 0.21412 0.74268 0.0
H2996 H 0.19796 0.73211 0.25058 0.0
H2997 H 0.23972 0.71539 0.27538 0.0
H2998 H 0.22206 0.75455 0.24283 0.0
H2999 H 0.26421 0.73704 0.26725 0.0
H3000 H 0.29607 0.7933 0.25724 0.0
H3001 H 0.27162 0.77121 0.26506 0.0
H3002 H 0.25215 0.75531 0.23285 0.0
H3003 H 0.27641 0.7777 0.22507 0.0
C3004 C 0.21228 0.7332 0.2544 0.0
C3005 C 0.2168 0.72199 0.26367 0.0
C3006 C 0.22622 0.7459 0.24984 0.0
C3007 C 0.24512 0.74766 0.2544 0.0
C3008 C 0.24973 0.73629 0.2636 0.0
C3009 C 0.23574 0.72365 0.26819 0.0
C3010 C 0.2866 0.78503 0.25184 0.0
C3011 C 0.28819 0.78725 0.24053 0.0
C3012 C 0.27262 0.77229 0.25632 0.0
C3013 C 0.25992 0.76137 0.24961 0.0
C3014 C 0.26146 0.76369 0.23829 0.0
C3015 C 0.27538 0.77652 0.23381 0.0
H3016 H 0.2743 0.22666 0.27889 0.0
H3017 H 0.30296 0.22035 0.2478 0.0
H3018 H 0.25001 0.24853 0.27072 0.0
H3019 H 0.27936 0.24298 0.23977 0.0
H3020 H 0.22171 0.26665 0.2262 0.0
H3021 H 0.24569 0.24473 0.23448 0.0
H3022 H 0.24623 0.28103 0.26326 0.0
H3023 H 0.22142 0.30244 0.25518 0.0
C3024 C 0.27543 0.2299 0.27032 0.0
C3025 C 0.29062 0.22169 0.26402 0.0
C3026 C 0.26164 0.24268 0.26565 0.0
C3027 C 0.26271 0.2476 0.25458 0.0
C3028 C 0.27791 0.23938 0.2483 0.0
C3029 C 0.29163 0.22657 0.25294 0.0
C3030 C 0.22679 0.26989 0.23434 0.0
C3031 C 0.21952 0.2863 0.24003 0.0
C3032 C 0.24076 0.25742 0.23904 0.0
C3033 C 0.24795 0.26106 0.24955 0.0
C3034 C 0.24086 0.27761 0.25521 0.0
C3035 C 0.22682 0.29007 0.25051 0.0
H3036 H 0.19495 0.76048 0.76169 0.0
H3037 H 0.23977 0.80475 0.76667 0.0
H3038 H 0.21916 0.73907 0.75326 0.0
H3039 H 0.26425 0.78279 0.75889 0.0
H3040 H 0.29951 0.74799 0.73423 0.0
H3041 H 0.27459 0.76941 0.74214 0.0
H3042 H 0.2467 0.71882 0.75689 0.0
H3043 H 0.2714 0.69739 0.74868 0.0
C3044 C 0.20997 0.76568 0.761 0.0
C3045 C 0.2153 0.78447 0.76482 0.0
C3046 C 0.22396 0.75323 0.75629 0.0
C3047 C 0.24373 0.75913 0.75535 0.0
C3048 C 0.24912 0.77782 0.7593 0.0
C3049 C 0.2351 0.79034 0.76393 0.0
C3050 C 0.28804 0.74147 0.73917 0.0
C3051 C 0.28743 0.72102 0.74085 0.0
C3052 C 0.27379 0.75376 0.74376 0.0
C3053 C 0.25865 0.74592 0.75025 0.0
C3054 C 0.25795 0.72539 0.75183 0.0
C3055 C 0.27212 0.71308 0.74714 0.0
H3056 H 0.55455 0.97722 0.50205 0.0
H3057 H 0.51033 0.9646 0.52625 0.0
H3058 H 0.53307 1.00223 0.49411 0.0
H3059 H 0.4887 0.98923 0.51817 0.0
H3060 H 0.46434 0.04933 0.50779 0.0
H3061 H 0.48646 0.02512 0.51586 0.0
H3062 H 0.50174 0.00398 0.48392 0.0
H3063 H 0.47995 0.02855 0.47582 0.0
C3064 C 0.5403 0.97986 0.50571 0.0
C3065 C 0.53415 0.96892 0.51478 0.0
C3066 C 0.52791 0.99404 0.50109 0.0
C3067 C 0.50915 0.99769 0.50549 0.0
C3068 C 0.50312 0.9869 0.51463 0.0
C3069 C 0.51544 0.97266 0.51921 0.0
C3070 C 0.47252 0.03961 0.50249 0.0
C3071 C 0.4704 0.04089 0.49116 0.0
C3072 C 0.48506 0.02561 0.50712 0.0
C3073 C 0.49587 0.01262 0.50054 0.0
C3074 C 0.49377 0.01391 0.48921 0.0
C3075 C 0.48112 0.02783 0.48457 0.0
H3076 H 0.0446 0.96003 0.00796 0.0
H3077 H 0.02486 0.9755 0.97579 0.0
H3078 H 0.02264 0.98471 0.01569 0.0
H3079 H 1.00242 0.99978 0.98348 0.0
H3080 H 0.97886 0.05498 0.99965 0.0
H3081 H 1.0012 0.0307 0.9921 0.0
H3082 H 0.98918 0.99194 0.01911 0.0
H3083 H 0.96786 0.01683 0.02706 0.0
C3084 C 0.03542 0.96862 0.00255 0.0
C3085 C 0.03648 0.96586 0.99127 0.0
C3086 C 0.02274 0.98272 0.00698 0.0
C3087 C 0.01065 0.99428 1.00024 0.0
C3088 C 0.01173 0.99145 0.98894 0.0
C3089 C 0.02456 0.97749 0.98451 0.0
C3090 C 0.98116 0.04141 0.00408 0.0
C3091 C 0.97158 0.038 0.01403 0.0
C3092 C 0.9938 0.02731 0.99965 0.0
C3093 C 0.99706 0.00927 0.00496 0.0
C3094 C 0.98729 0.00574 0.01485 0.0
C3095 C 0.97478 0.01994 0.01934 0.0
H3096 H 0.5395 0.01629 0.97896 0.0
H3097 H 0.52418 0.05734 0.0044 0.0
H3098 H 0.518 0.99166 0.98716 0.0
H3099 H 0.50239 0.03283 0.01241 0.0
H3100 H 0.44905 0.99088 0.01587 0.0
H3101 H 0.47095 0.01553 0.00802 0.0
H3102 H 0.51605 0.97135 0.004 0.0
H3103 H 0.49441 0.94677 0.01205 0.0
C3104 C 0.5317 0.02005 0.98634 0.0
C3105 C 0.53359 0.03888 0.99098 0.0
C3106 C 0.51933 0.00593 0.99102 0.0
C3107 C 0.50846 0.01032 1.00041 0.0
C3108 C 0.51034 0.0291 0.00507 0.0
C3109 C 0.52282 0.04316 1.00045 0.0
C3110 C 0.46371 0.98644 0.01345 0.0
C3111 C 0.46989 0.96677 0.01458 0.0
C3112 C 0.47625 1.00058 0.00892 0.0
C3113 C 0.4952 0.99537 0.00535 0.0
C3114 C 0.50142 0.97576 0.00651 0.0
C3115 C 0.48896 0.96166 0.01111 0.0
H3116 H 0.00685 0.05833 0.51585 0.0
H3117 H 0.05597 0.0193 0.5102 0.0
H3118 H 0.98466 0.03439 0.50749 0.0
H3119 H 0.03374 0.99526 0.50199 0.0
H3120 H 0.99154 0.96855 0.47676 0.0
H3121 H 0.01323 0.99266 0.4852 0.0
H3122 H 0.97127 1.00064 0.51113 0.0
H3123 H 0.94971 0.97614 0.50285 0.0
C3124 C 0.0129 0.04464 0.51281 0.0
C3125 C 0.03317 0.04072 0.51366 0.0
C3126 C 1.00017 0.03088 0.50811 0.0
C3127 C 0.00745 0.01296 0.50406 0.0
C3128 C 0.02772 0.00901 0.50494 0.0
C3129 C 0.04042 0.02269 0.50974 0.0
C3130 C 0.98697 0.97527 0.48432 0.0
C3131 C 0.96886 0.97025 0.48914 0.0
C3132 C 0.99942 0.98912 0.48914 0.0
C3133 C 0.99401 0.99848 0.49886 0.0
C3134 C 0.97577 0.99381 0.50358 0.0
C3135 C 0.96337 0.97981 0.49881 0.0
H3136 H 0.94944 0.23266 0.03956 0.0
H3137 H 0.99182 0.19779 0.02182 0.0
H3138 H 0.9723 0.26034 0.03957 0.0
H3139 H 0.01449 0.22561 0.02168 0.0
H3140 H 0.04142 0.28678 0.01477 0.0
H3141 H 0.01806 0.2594 0.01412 0.0
H3142 H 0.00444 0.2684 0.04798 0.0
H3143 H 0.02741 0.29597 0.04857 0.0
C3144 C 0.96363 0.23086 0.03568 0.0
C3145 C 0.96878 0.21294 0.03072 0.0
C3146 C 0.97672 0.24674 0.03568 0.0
C3147 C 0.99522 0.24513 0.03066 0.0
C3148 C 1.00025 0.22738 0.02551 0.0
C3149 C 0.9872 0.21145 0.02556 0.0
C3150 C 0.03336 0.28294 0.02206 0.0
C3151 C 0.03628 0.2935 0.03173 0.0
C3152 C 0.02011 0.26719 0.02171 0.0
C3153 C 0.00938 0.26178 0.03099 0.0
C3154 C 0.01233 0.27234 0.04066 0.0
C3155 C 0.02566 0.28799 0.04103 0.0
H3156 H 0.02136 0.69704 0.28195 0.0
H3157 H 0.06154 0.74512 0.2758 0.0
H3158 H 0.99387 0.72005 0.28184 0.0
H3159 H 0.03397 0.76789 0.27506 0.0
H3160 H 0.98341 0.80614 0.28738 0.0
H3161 H 0.01087 0.78315 0.28694 0.0
H3162 H 0.97444 0.74062 0.2703 0.0
H3163 H 0.94667 0.76319 0.27128 0.0
C3164 C 0.02434 0.71249 0.28052 0.0
C3165 C 0.04372 0.71919 0.27891 0.0
C3166 C 0.00853 0.72567 0.28032 0.0
C3167 C 0.01167 0.74586 0.27845 0.0
C3168 C 0.03101 0.7525 0.27667 0.0
C3169 C 0.04682 0.73935 0.27693 0.0
C3170 C 0.9812 0.79183 0.2837 0.0
C3171 C 0.96277 0.78653 0.27939 0.0
C3172 C 0.99704 0.77872 0.28332 0.0
C3173 C 0.99491 0.76 0.27858 0.0
C3174 C 0.97656 0.75481 0.27413 0.0
C3175 C 0.96069 0.76789 0.27456 0.0
H3176 H 0.47912 0.70681 0.51332 0.0
H3177 H 0.46002 0.72426 0.54532 0.0
H3178 H 0.50229 0.73435 0.51297 0.0
H3179 H 0.48281 0.752 0.54487 0.0
H3180 H 0.5419 0.78407 0.54565 0.0
H3181 H 0.51882 0.75659 0.54538 0.0
H3182 H 0.50289 0.77096 0.5124 0.0
H3183 H 0.52639 0.79825 0.51258 0.0
C3184 C 0.47981 0.71657 0.52025 0.0
C3185 C 0.46774 0.71334 0.52935 0.0
C3186 C 0.49296 0.73243 0.52002 0.0
C3187 C 0.49444 0.74529 0.52891 0.0
C3188 C 0.48218 0.74221 0.53794 0.0
C3189 C 0.46895 0.72646 0.53814 0.0
C3190 C 0.53368 0.78122 0.53829 0.0
C3191 C 0.53602 0.79331 0.52912 0.0
C3192 C 0.52027 0.76562 0.53818 0.0
C3193 C 0.50894 0.76168 0.52889 0.0
C3194 C 0.51149 0.77357 0.51966 0.0
C3195 C 0.52482 0.78928 0.51979 0.0
H3196 H 0.55562 0.24194 0.79062 0.0
H3197 H 0.52369 0.20131 0.77026 0.0
H3198 H 0.52833 0.26506 0.78974 0.0
H3199 H 0.49591 0.22417 0.76964 0.0
H3200 H 0.45611 0.27729 0.76319 0.0
H3201 H 0.48427 0.25489 0.76296 0.0
H3202 H 0.49627 0.26921 0.79649 0.0
H3203 H 0.46863 0.29195 0.79654 0.0
C3204 C 0.54264 0.2379 0.78602 0.0
C3205 C 0.5417 0.21977 0.78057 0.0
C3206 C 0.52693 0.25112 0.78555 0.0
C3207 C 0.50975 0.24645 0.77971 0.0
C3208 C 0.50896 0.22839 0.77411 0.0
C3209 C 0.52483 0.21524 0.77449 0.0
C3210 C 0.46485 0.27562 0.77048 0.0
C3211 C 0.4603 0.28648 0.77985 0.0
C3212 C 0.48092 0.26272 0.77038 0.0
C3213 C 0.49266 0.26024 0.7797 0.0
C3214 C 0.48791 0.27103 0.78908 0.0
C3215 C 0.47202 0.28406 0.78914 0.0
H3216 H 0.96081 0.78316 0.49098 0.0
H3217 H 0.98074 0.79766 0.45868 0.0
H3218 H 0.98442 0.75601 0.49168 0.0
H3219 H 0.00388 0.77029 0.45926 0.0
H3220 H 0.05718 0.73315 0.46834 0.0
H3221 H 0.03433 0.76083 0.46866 0.0
H3222 H 0.98984 0.72361 0.48302 0.0
H3223 H 0.01259 0.69585 0.4826 0.0
C3224 C 0.97023 0.78056 0.48404 0.0
C3225 C 0.96885 0.79252 0.47476 0.0
C3226 C 0.98363 0.76492 0.4844 0.0
C3227 C 0.99605 0.76103 0.47553 0.0
C3228 C 0.99469 0.77304 0.46628 0.0
C3229 C 0.98124 0.78857 0.46589 0.0
C3230 C 0.04251 0.73083 0.47153 0.0
C3231 C 0.03672 0.71224 0.47541 0.0
C3232 C 0.02942 0.7467 0.47172 0.0
C3233 C 0.01024 0.74439 0.47582 0.0
C3234 C 0.00458 0.72593 0.47992 0.0
C3235 C 0.01765 0.71003 0.4797 0.0
H3236 H 0.53189 0.7973 0.71006 0.0
H3237 H 0.55215 0.77219 0.74029 0.0
H3238 H 0.50444 0.77436 0.70985 0.0
H3239 H 0.52519 0.74849 0.73977 0.0
H3240 H 0.46246 0.72251 0.74057 0.0
H3241 H 0.48997 0.74559 0.74153 0.0
H3242 H 0.49846 0.74006 0.70692 0.0
H3243 H 0.47081 0.71727 0.70597 0.0
C3244 C 0.53044 0.78698 0.71671 0.0
C3245 C 0.54425 0.78666 0.72521 0.0
C3246 C 0.51484 0.77359 0.7165 0.0
C3247 C 0.51268 0.75943 0.72474 0.0
C3248 C 0.52632 0.75927 0.73333 0.0
C3249 C 0.54191 0.77273 0.73356 0.0
C3250 C 0.47036 0.72609 0.7332 0.0
C3251 C 0.4644 0.71818 0.72319 0.0
C3252 C 0.48613 0.73931 0.73374 0.0
C3253 C 0.49634 0.74484 0.72429 0.0
C3254 C 0.49065 0.7365 0.71432 0.0
C3255 C 0.47485 0.72338 0.71378 0.0
H3256 H 0.55857 0.23458 0.97244 0.0
H3257 H 0.5102 0.19456 0.97811 0.0
H3258 H 0.53569 0.26226 0.97258 0.0
H3259 H 0.48735 0.2222 0.97823 0.0
H3260 H 0.4541 0.27835 0.98727 0.0
H3261 H 0.47765 0.25128 0.98842 0.0
H3262 H 0.50974 0.27547 0.96125 0.0
H3263 H 0.48676 0.30288 0.9604 0.0
C3264 C 0.54305 0.23169 0.97369 0.0
C3265 C 0.53623 0.21236 0.97526 0.0
C3266 C 0.52994 0.24754 0.97376 0.0
C3267 C 0.50967 0.24445 0.97538 0.0
C3268 C 0.50289 0.22515 0.97712 0.0
C3269 C 0.51601 0.20929 0.97706 0.0
C3270 C 0.46629 0.27799 0.98162 0.0
C3271 C 0.46848 0.29277 0.97372 0.0
C3272 C 0.47968 0.26237 0.98221 0.0
C3273 C 0.49559 0.2612 0.97493 0.0
C3274 C 0.4978 0.27603 0.96707 0.0
C3275 C 0.48445 0.29161 0.96648 0.0
H3276 H 0.02459 0.30262 0.21276 0.0
H3277 H 0.05373 0.27016 0.23826 0.0
H3278 H 0.99686 0.2799 0.21359 0.0
H3279 H 0.02566 0.24777 0.23935 0.0
H3280 H 0.98289 0.19871 0.2283 0.0
H3281 H 0.01042 0.22182 0.22841 0.0
H3282 H 0.96972 0.27036 0.22529 0.0
H3283 H 0.94231 0.24729 0.22475 0.0
C3284 C 0.02504 0.29067 0.21858 0.0
C3285 C 0.04139 0.28816 0.22542 0.0
C3286 C 0.00905 0.27776 0.21913 0.0
C3287 C 0.00904 0.26201 0.22654 0.0
C3288 C 0.02529 0.25964 0.23348 0.0
C3289 C 0.04127 0.2726 0.23295 0.0
C3290 C 0.97983 0.21431 0.2276 0.0
C3291 C 0.96039 0.22112 0.22651 0.0
C3292 C 0.99559 0.22757 0.22778 0.0
C3293 C 0.99227 0.24794 0.22685 0.0
C3294 C 0.97281 0.25476 0.22591 0.0
C3295 C 0.95707 0.24152 0.22574 0.0
H3296 H 0.99452 0.69648 0.9704 0.0
H3297 H 0.94911 0.73128 0.98582 0.0
H3298 H 0.01692 0.72437 0.97136 0.0
H3299 H 0.97145 0.75942 0.98633 0.0
H3300 H 0.01024 0.80904 0.9706 0.0
H3301 H 0.98786 0.78114 0.9718 0.0
H3302 H 0.03416 0.74574 0.98572 0.0
H3303 H 0.0565 0.77387 0.98497 0.0
C3304 C 0.98933 0.70994 0.97413 0.0
C3305 C 0.96991 0.71151 0.97805 0.0
C3306 C 1.0022 0.72596 0.97463 0.0
C3307 C 0.99591 0.74404 0.97891 0.0
C3308 C 0.97661 0.74568 0.98289 0.0
C3309 C 0.96379 0.72956 0.98254 0.0
C3310 C 0.01563 0.7955 0.97415 0.0
C3311 C 0.03527 0.79382 0.9777 0.0
C3312 C 1.00277 0.77948 0.97479 0.0
C3313 C 0.00929 0.7613 0.97884 0.0
C3314 C 0.02882 0.75956 0.98246 0.0
C3315 C 0.04163 0.77567 0.98197 0.0
H3316 H 0.97673 0.29953 0.73701 0.0
H3317 H 0.94806 0.26306 0.71304 0.0
H3318 H 0.00518 0.27739 0.73685 0.0
H3319 H 0.97613 0.24079 0.71309 0.0
H3320 H 0.03866 0.21983 0.70616 0.0
H3321 H 0.01058 0.24198 0.70699 0.0
H3322 H 0.01463 0.243 0.74194 0.0
H3323 H 0.04271 0.22051 0.74114 0.0
C3324 C 0.97649 0.28678 0.73174 0.0
C3325 C 0.96014 0.28304 0.72505 0.0
C3326 C 0.99268 0.27402 0.73172 0.0
C3327 C 0.99291 0.25738 0.72493 0.0
C3328 C 0.97649 0.2536 0.71832 0.0
C3329 C 0.96031 0.26625 0.71839 0.0
C3330 C 0.03345 0.22453 0.71404 0.0
C3331 C 0.04285 0.2182 0.72359 0.0
C3332 C 0.01737 0.23729 0.71451 0.0
C3333 C 0.01031 0.24414 0.72453 0.0
C3334 C 0.01985 0.2381 0.73409 0.0
C3335 C 0.03593 0.22522 0.73363 0.0
H3336 H 0.53345 0.29362 0.49254 0.0
H3337 H 0.53236 0.29103 0.45754 0.0
H3338 H 0.50948 0.26676 0.49335 0.0
H3339 H 0.50882 0.26399 0.45835 0.0
H3340 H 0.45181 0.23022 0.46335 0.0
H3341 H 0.47421 0.25829 0.46354 0.0
H3342 H 0.50784 0.23096 0.48918 0.0
H3343 H 0.48513 0.20304 0.48917 0.0
C3344 C 0.52808 0.28733 0.48503 0.0
C3345 C 0.53485 0.2944 0.47498 0.0
C3346 C 0.51448 0.27186 0.4855 0.0
C3347 C 0.50723 0.26328 0.47591 0.0
C3348 C 0.51396 0.27042 0.46588 0.0
C3349 C 0.52762 0.28576 0.46542 0.0
C3350 C 0.4638 0.23034 0.46915 0.0
C3351 C 0.46671 0.21439 0.47624 0.0
C3352 C 0.47676 0.24632 0.46917 0.0
C3353 C 0.49287 0.24678 0.47632 0.0
C3354 C 0.4955 0.23109 0.48361 0.0
C3355 C 0.4826 0.21503 0.48355 0.0
H3356 H 0.44825 0.76495 0.21545 0.0
H3357 H 0.47625 0.80219 0.23928 0.0
H3358 H 0.47595 0.74234 0.21622 0.0
H3359 H 0.504 0.77933 0.2402 0.0
H3360 H 0.55939 0.74533 0.229 0.0
H3361 H 0.53151 0.76792 0.22964 0.0
H3362 H 0.49149 0.71856 0.22763 0.0
H3363 H 0.51942 0.69606 0.22678 0.0
C3364 C 0.46023 0.76815 0.22098 0.0
C3365 C 0.46001 0.78531 0.22734 0.0
C3366 C 0.47612 0.75515 0.22144 0.0
C3367 C 0.49219 0.75891 0.22832 0.0
C3368 C 0.49198 0.77608 0.23471 0.0
C3369 C 0.47608 0.78917 0.2342 0.0
C3370 C 0.54463 0.73931 0.22884 0.0
C3371 C 0.54159 0.71893 0.22779 0.0
C3372 C 0.52863 0.75226 0.22922 0.0
C3373 C 0.50922 0.7451 0.22861 0.0
C3374 C 0.50623 0.72464 0.22788 0.0
C3375 C 0.52222 0.71172 0.22743 0.0
H3376 H 0.95059 0.27355 0.52103 0.0
H3377 H 0.99622 0.31089 0.53427 0.0
H3378 H 0.97328 0.2459 0.52108 0.0
H3379 H 0.01927 0.28375 0.53343 0.0
H3380 H 0.0494 0.2266 0.54286 0.0
H3381 H 0.02696 0.2545 0.54231 0.0
H3382 H 1.00095 0.2316 0.51287 0.0
H3383 H 0.02297 0.20323 0.51376 0.0
C3384 C 0.96546 0.27596 0.52389 0.0
C3385 C 0.97143 0.29456 0.52769 0.0
C3386 C 0.97862 0.26011 0.52375 0.0
C3387 C 0.99819 0.26247 0.52728 0.0
C3388 C 0.00426 0.28119 0.53083 0.0
C3389 C 0.99106 0.29694 0.53112 0.0
C3390 C 0.03897 0.22766 0.53623 0.0
C3391 C 0.03793 0.21279 0.52834 0.0
C3392 C 0.02612 0.2437 0.53587 0.0
C3393 C 0.01208 0.24545 0.52752 0.0
C3394 C 0.01129 0.23064 0.51953 0.0
C3395 C 0.02397 0.21443 0.51999 0.0
H3396 H 0.44721 0.24422 0.28629 0.0
H3397 H 0.48003 0.20028 0.26849 0.0
H3398 H 0.47517 0.26651 0.28524 0.0
H3399 H 0.50824 0.22254 0.26772 0.0
H3400 H 0.56011 0.25946 0.28214 0.0
H3401 H 0.53207 0.23719 0.28111 0.0
H3402 H 0.4947 0.28556 0.27152 0.0
H3403 H 0.52283 0.30786 0.27227 0.0
C3404 C 0.46027 0.23937 0.28202 0.0
C3405 C 0.46128 0.22041 0.27744 0.0
C3406 C 0.47633 0.25217 0.28145 0.0
C3407 C 0.49388 0.24628 0.27639 0.0
C3408 C 0.49495 0.2274 0.27177 0.0
C3409 C 0.4788 0.21463 0.27225 0.0
C3410 C 0.54603 0.26534 0.2796 0.0
C3411 C 0.54378 0.28553 0.27731 0.0
C3412 C 0.52994 0.25254 0.27903 0.0
C3413 C 0.51119 0.25964 0.27627 0.0
C3414 C 0.50895 0.27972 0.27381 0.0
C3415 C 0.52507 0.2925 0.27428 0.0
H3416 H 0.45667 0.78019 0.01539 0.0
H3417 H 0.48902 0.80513 0.0422 0.0
H3418 H 0.47962 0.75248 0.01481 0.0
H3419 H 0.51149 0.77729 0.04193 0.0
H3420 H 0.55956 0.73477 0.03333 0.0
H3421 H 0.53736 0.76288 0.03217 0.0
H3422 H 0.48931 0.72368 0.02416 0.0
H3423 H 0.51184 0.69573 0.02491 0.0
C3424 C 0.46862 0.77964 0.0212 0.0
C3425 C 0.47116 0.79486 0.02879 0.0
C3426 C 0.48174 0.76375 0.02091 0.0
C3427 C 0.49754 0.76263 0.02829 0.0
C3428 C 0.49986 0.77782 0.03594 0.0
C3429 C 0.48691 0.79378 0.03614 0.0
C3430 C 0.54427 0.73224 0.03127 0.0
C3431 C 0.5374 0.71311 0.02924 0.0
C3432 C 0.53148 0.74831 0.03066 0.0
C3433 C 0.51142 0.7456 0.02818 0.0
C3434 C 0.50467 0.72642 0.02595 0.0
C3435 C 0.51755 0.71037 0.02641 0.0
H3436 H 0.95599 0.73335 0.79651 0.0
H3437 H 0.9704 0.71104 0.76464 0.0
H3438 H 0.98333 0.75616 0.79544 0.0
H3439 H 0.9969 0.73502 0.76322 0.0
H3440 H 0.05643 0.76447 0.76951 0.0
H3441 H 0.02861 0.74201 0.7698 0.0
H3442 H 0.99438 0.78523 0.78731 0.0
H3443 H 0.02267 0.80703 0.78778 0.0
C3444 C 0.96497 0.73327 0.78925 0.0
C3445 C 0.96101 0.72012 0.78071 0.0
C3446 C 0.9805 0.74668 0.78856 0.0
C3447 C 0.99237 0.74758 0.77922 0.0
C3448 C 0.98827 0.73462 0.7706 0.0
C3449 C 0.97285 0.72102 0.77136 0.0
C3450 C 0.04304 0.76914 0.77353 0.0
C3451 C 0.04197 0.78756 0.77872 0.0
C3452 C 0.02693 0.75633 0.77354 0.0
C3453 C 0.00919 0.76168 0.77864 0.0
C3454 C 0.00789 0.78039 0.78349 0.0
C3455 C 0.02408 0.79309 0.7836 0.0
H3456 H 0.30428 0.4123 0.99968 0.0
H3457 H 0.29347 0.35479 0.98589 0.0
H3458 H 0.27095 0.41269 0.00704 0.0
H3459 H 0.26008 0.35538 0.99312 0.0
H3460 H 0.19534 0.37327 0.99778 0.0
H3461 H 0.22873 0.37328 0.9904 0.0
H3462 H 0.25089 0.39559 0.02085 0.0
H3463 H 0.21749 0.39601 0.02813 0.0
C3464 C 0.29489 0.39965 0.9983 0.0
C3465 C 0.30161 0.38352 0.99218 0.0
C3466 C 0.27576 0.39991 0.00249 0.0
C3467 C 0.26285 0.38409 1.00063 0.0
C3468 C 0.26956 0.36794 0.99455 0.0
C3469 C 0.28871 0.36762 0.9904 0.0
C3470 C 0.20733 0.37834 0.00286 0.0
C3471 C 0.20377 0.38461 0.01354 0.0
C3472 C 0.22647 0.37816 0.99867 0.0
C3473 C 0.24247 0.3844 0.00505 0.0
C3474 C 0.23888 0.39084 0.0157 0.0
C3475 C 0.21976 0.3909 0.0199 0.0
H3476 H 0.89485 0.04193 0.23168 0.0
H3477 H 0.84708 0.05758 0.2531 0.0
H3478 H 0.89487 0.00861 0.23904 0.0
H3479 H 0.8467 0.02414 0.2603 0.0
H3480 H 0.86423 0.96867 0.27855 0.0
H3481 H 0.86475 1.00194 0.27132 0.0
H3482 H 0.8765 0.97884 0.2393 0.0
H3483 H 0.87722 0.9456 0.24668 0.0
C3484 C 0.88423 0.03817 0.23791 0.0
C3485 C 0.87098 0.05238 0.24182 0.0
C3486 C 0.88418 0.01904 0.2421 0.0
C3487 C 0.87075 0.01359 0.25026 0.0
C3488 C 0.85748 0.02785 0.25416 0.0
C3489 C 0.85765 0.04703 0.25003 0.0
C3490 C 0.8672 0.97066 0.26999 0.0
C3491 C 0.8708 0.95437 0.26323 0.0
C3492 C 0.86721 0.98978 0.2658 0.0
C3493 C 0.87065 0.99316 0.25471 0.0
C3494 C 0.87406 0.97686 0.24791 0.0
C3495 C 0.87419 0.95773 0.25212 0.0
H3496 H 0.20355 0.59024 0.49679 0.0
H3497 H 0.2098 0.65186 0.48897 0.0
H3498 H 0.23711 0.58972 0.5038 0.0
H3499 H 0.24314 0.65161 0.49627 0.0
H3500 H 0.30859 0.64067 0.50025 0.0
H3501 H 0.27541 0.6403 0.49284 0.0
H3502 H 0.25718 0.60036 0.51823 0.0
H3503 H 0.29062 0.59963 0.52517 0.0
C3504 C 0.21204 0.60374 0.49671 0.0
C3505 C 0.20405 0.62108 0.49232 0.0
C3506 C 0.23128 0.60348 0.50075 0.0
C3507 C 0.24295 0.62062 0.50061 0.0
C3508 C 0.23481 0.63802 0.49632 0.0
C3509 C 0.21565 0.63821 0.49218 0.0
C3510 C 0.29761 0.63154 0.50416 0.0
C3511 C 0.3024 0.62019 0.51334 0.0
C3512 C 0.27844 0.63157 0.5 0.0
C3513 C 0.26348 0.62038 0.50495 0.0
C3514 C 0.2683 0.60899 0.5141 0.0
C3515 C 0.28749 0.60882 0.5182 0.0
H3516 H 0.62891 0.06133 0.74613 0.0
H3517 H 0.63982 0.03856 0.77831 0.0
H3518 H 0.6297 0.02795 0.73891 0.0
H3519 H 0.6395 0.00518 0.7712 0.0
H3520 H 0.65778 0.94921 0.7534 0.0
H3521 H 0.65809 0.98274 0.76047 0.0
H3522 H 0.61078 0.99829 0.73864 0.0
H3523 H 0.61076 0.96485 0.73146 0.0
C3524 C 0.63151 0.04923 0.75167 0.0
C3525 C 0.63425 0.05271 0.76282 0.0
C3526 C 0.63169 0.03003 0.74755 0.0
C3527 C 0.63458 0.01379 0.75447 0.0
C3528 C 0.63744 0.01729 0.7656 0.0
C3529 C 0.63735 0.03647 0.76971 0.0
C3530 C 0.64735 0.95977 0.75018 0.0
C3531 C 0.63426 0.95438 0.74186 0.0
C3532 C 0.64751 0.97901 0.75423 0.0
C3533 C 0.63448 0.9933 0.75012 0.0
C3534 C 0.62128 0.98782 0.74186 0.0
C3535 C 0.62121 0.96862 0.73776 0.0
H3536 H 0.70259 0.59106 0.00786 0.0
H3537 H 0.70777 0.6528 0.01577 0.0
H3538 H 0.73598 0.59137 1.00054 0.0
H3539 H 0.74135 0.65297 0.00874 0.0
H3540 H 0.79269 0.6507 0.98456 0.0
H3541 H 0.75901 0.65033 0.99146 0.0
H3542 H 0.77007 0.59434 0.00694 0.0
H3543 H 0.80357 0.59445 0.99978 0.0
C3544 C 0.71082 0.60472 0.008 0.0
C3545 C 0.70249 0.62191 0.01239 0.0
C3546 C 0.73004 0.60484 0.00391 0.0
C3547 C 0.74136 0.62218 0.00407 0.0
C3548 C 0.73298 0.6394 0.0084 0.0
C3549 C 0.7138 0.63926 0.01254 0.0
C3550 C 0.78788 0.63824 0.98936 0.0
C3551 C 0.80083 0.62261 0.99161 0.0
C3552 C 0.76864 0.63812 0.99341 0.0
C3553 C 0.76184 0.62231 0.99976 0.0
C3554 C 0.77477 0.60665 1.00199 0.0
C3555 C 0.79404 0.60682 0.99799 0.0
H3556 H 0.14265 0.96771 0.7788 0.0
H3557 H 0.12467 0.94523 0.74755 0.0
H3558 H 0.14222 1.00107 0.77159 0.0
H3559 H 0.12526 0.97848 0.74019 0.0
H3560 H 0.10802 0.04224 0.73342 0.0
H3561 H 0.10773 0.009 0.74086 0.0
H3562 H 0.15983 0.02242 0.75958 0.0
H3563 H 0.1599 0.05575 0.75224 0.0
C3564 C 0.13858 0.96985 0.77039 0.0
C3565 C 0.13364 0.95371 0.76378 0.0
C3566 C 0.13859 0.989 0.76621 0.0
C3567 C 0.13374 0.99253 0.75529 0.0
C3568 C 0.12885 0.97639 0.74867 0.0
C3569 C 0.12877 0.95724 0.75286 0.0
C3570 C 0.11947 0.03805 0.73908 0.0
C3571 C 0.13398 0.05166 0.74223 0.0
C3572 C 0.11934 0.01896 0.74334 0.0
C3573 C 0.13378 0.01295 0.75082 0.0
C3574 C 0.14829 0.0266 0.75398 0.0
C3575 C 0.14835 0.04572 0.74976 0.0
H3576 H 0.78713 0.38463 0.52952 0.0
H3577 H 0.8101 0.3789 0.49696 0.0
H3578 H 0.75387 0.38355 0.52245 0.0
H3579 H 0.77687 0.37969 0.48982 0.0
H3580 H 0.71474 0.36266 0.48032 0.0
H3581 H 0.74805 0.3619 0.48767 0.0
H3582 H 0.73005 0.40146 0.51334 0.0
H3583 H 0.69657 0.40123 0.50623 0.0
C3584 C 0.78517 0.38314 0.52085 0.0
C3585 C 0.80151 0.38178 0.51386 0.0
C3586 C 0.76597 0.38289 0.51675 0.0
C3587 C 0.76248 0.38163 0.50552 0.0
C3588 C 0.77882 0.38039 0.49852 0.0
C3589 C 0.79801 0.38029 0.50263 0.0
C3590 C 0.71799 0.37115 0.48754 0.0
C3591 C 0.70311 0.38197 0.49272 0.0
C3592 C 0.73712 0.37084 0.49174 0.0
C3593 C 0.74194 0.38167 0.50112 0.0
C3594 C 0.72695 0.39259 0.50624 0.0
C3595 C 0.70774 0.39259 0.50215 0.0
H3596 H 0.34325 0.05427 0.25622 0.0
H3597 H 0.4019 0.0452 0.2688 0.0
H3598 H 0.34336 0.02093 0.24878 0.0
H3599 H 0.40187 0.01174 0.26151 0.0
H3600 H 0.40211 0.96146 0.23629 0.0
H3601 H 0.40214 0.99495 0.24354 0.0
H3602 H 0.34303 0.9864 0.25556 0.0
H3603 H 0.34289 0.95304 0.24816 0.0
C3604 C 0.35619 0.04518 0.25736 0.0
C3605 C 0.37257 0.05238 0.26309 0.0
C3606 C 0.35618 0.02602 0.25319 0.0
C3607 C 0.37261 0.01369 0.25457 0.0
C3608 C 0.38905 0.02094 0.26024 0.0
C3609 C 0.38899 0.04003 0.2645 0.0
C3610 C 0.38909 0.96678 0.24043 0.0
C3611 C 0.3725 0.9546 0.24165 0.0
C3612 C 0.38917 0.98589 0.24466 0.0
C3613 C 0.37259 0.99333 0.25013 0.0
C3614 C 0.35597 0.98116 0.25132 0.0
C3615 C 0.35596 0.96199 0.24717 0.0
H3616 H 0.8006 0.91593 0.49543 0.0
H3617 H 0.79716 0.85305 0.49066 0.0
H3618 H 0.767 0.91593 0.50263 0.0
H3619 H 0.76359 0.85306 0.4978 0.0
H3620 H 0.71295 0.8593 0.52267 0.0
H3621 H 0.74661 0.85945 0.51566 0.0
H3622 H 0.73255 0.90943 0.49544 0.0
H3623 H 0.69886 0.90935 0.50251 0.0
C3624 C 0.7927 0.90211 0.49599 0.0
C3625 C 0.80149 0.88449 0.49248 0.0
C3626 C 0.77343 0.90213 0.50002 0.0
C3627 C 0.76267 0.8845 0.50076 0.0
C3628 C 0.77157 0.86685 0.49738 0.0
C3629 C 0.79072 0.86687 0.49324 0.0
C3630 C 0.71707 0.87035 0.51675 0.0
C3631 C 0.70328 0.88432 0.51314 0.0
C3632 C 0.73629 0.87035 0.51269 0.0
C3633 C 0.74221 0.88447 0.50502 0.0
C3634 C 0.72844 0.89847 0.50142 0.0
C3635 C 0.70913 0.89832 0.50538 0.0
H3636 H 0.36893 0.56093 0.75947 0.0
H3637 H 0.37547 0.53827 0.72692 0.0
H3638 H 0.36844 0.52737 0.76651 0.0
H3639 H 0.37521 0.50476 0.73399 0.0
H3640 H 0.39525 0.44902 0.75228 0.0
H3641 H 0.39558 0.48249 0.7451 0.0
H3642 H 0.34729 0.49793 0.76623 0.0
H3643 H 0.34675 0.46446 0.77331 0.0
C3644 C 0.37011 0.54882 0.7538 0.0
C3645 C 0.37226 0.55236 0.74262 0.0
C3646 C 0.36986 0.52957 0.75785 0.0
C3647 C 0.37181 0.51338 0.75082 0.0
C3648 C 0.37398 0.5169 0.73964 0.0
C3649 C 0.37415 0.53614 0.7356 0.0
C3650 C 0.38455 0.45947 0.75531 0.0
C3651 C 0.371 0.45399 0.7634 0.0
C3652 C 0.38477 0.47868 0.7512 0.0
C3653 C 0.3715 0.4929 0.75511 0.0
C3654 C 0.35792 0.48743 0.76317 0.0
C3655 C 0.35764 0.46821 0.76724 0.0
H3656 H 0.81029 0.12933 0.99681 0.0
H3657 H 0.78783 0.11108 0.02804 0.0
H3658 H 0.77692 0.12901 0.9895 0.0
H3659 H 0.75449 0.11104 0.02075 0.0
H3660 H 0.69625 0.13474 0.00672 0.0
H3661 H 0.72961 0.13456 0.01403 0.0
H3662 H 0.75041 0.10542 0.98509 0.0
H3663 H 0.71706 0.10534 0.97782 0.0
C3664 C 0.79828 0.1251 1.0021 0.0
C3665 C 0.8018 0.12028 0.01303 0.0
C3666 C 0.77914 0.12494 0.99791 0.0
C3667 C 0.76304 0.12005 0.00456 0.0
C3668 C 0.76654 0.11519 0.01547 0.0
C3669 C 0.78567 0.11525 0.01964 0.0
C3670 C 0.70788 0.12809 1.00196 0.0
C3671 C 0.70392 0.12009 0.99166 0.0
C3672 C 0.72702 0.12802 0.00615 0.0
C3673 C 0.74267 0.12002 1.00013 0.0
C3674 C 0.73873 0.11198 0.98986 0.0
C3675 C 0.71959 0.11196 0.98569 0.0
H3676 H 0.15482 0.53907 0.27572 0.0
H3677 H 0.11623 0.55759 0.24978 0.0
H3678 H 0.15478 0.50567 0.26849 0.0
H3679 H 0.11637 0.52421 0.24251 0.0
H3680 H 0.13867 0.46763 0.22637 0.0
H3681 H 0.13884 0.50092 0.23371 0.0
H3682 H 0.13252 0.47748 0.26609 0.0
H3683 H 0.13218 0.44411 0.25875 0.0
C3684 C 0.14619 0.53601 0.26853 0.0
C3685 C 0.1355 0.55107 0.26335 0.0
C3686 C 0.14619 0.51684 0.26438 0.0
C3687 C 0.13558 0.51226 0.25492 0.0
C3688 C 0.12494 0.52731 0.24972 0.0
C3689 C 0.12488 0.54646 0.25389 0.0
C3690 C 0.13712 0.46954 0.23505 0.0
C3691 C 0.13532 0.45314 0.24196 0.0
C3692 C 0.13723 0.48866 0.23926 0.0
C3693 C 0.13563 0.49188 0.25048 0.0
C3694 C 0.13403 0.4755 0.25741 0.0
C3695 C 0.13385 0.45636 0.2532 0.0
H3696 H 0.19525 0.13355 0.49696 0.0
H3697 H 0.2172 0.10982 0.52716 0.0
H3698 H 0.22859 0.13355 0.48962 0.0
H3699 H 0.25052 0.10995 0.51983 0.0
H3700 H 0.30966 0.13308 0.507 0.0
H3701 H 0.27631 0.13297 0.51432 0.0
H3702 H 0.25432 0.11068 0.48383 0.0
H3703 H 0.28767 0.11066 0.47652 0.0
C3704 C 0.20715 0.12818 0.50201 0.0
C3705 C 0.2035 0.1217 0.51267 0.0
C3706 C 0.22627 0.12819 0.4978 0.0
C3707 C 0.24225 0.12177 0.50413 0.0
C3708 C 0.23861 0.11529 0.51478 0.0
C3709 C 0.21948 0.11523 0.51899 0.0
C3710 C 0.29775 0.12797 0.50188 0.0
C3711 C 0.3014 0.12187 0.49116 0.0
C3712 C 0.27862 0.12792 0.50608 0.0
C3713 C 0.26262 0.12182 0.49966 0.0
C3714 C 0.26625 0.11575 0.48894 0.0
C3715 C 0.28539 0.11576 0.48475 0.0
H3716 H 0.64556 0.46699 0.27834 0.0
H3717 H 0.61905 0.44606 0.24865 0.0
H3718 H 0.64558 0.50045 0.27118 0.0
H3719 H 0.61908 0.47952 0.24148 0.0
H3720 H 0.64211 0.53802 0.22794 0.0
H3721 H 0.64184 0.50464 0.23518 0.0
H3722 H 0.62324 0.52701 0.26633 0.0
H3723 H 0.6235 0.56044 0.25909 0.0
C3724 C 0.63955 0.46954 0.27033 0.0
C3725 C 0.6323 0.45381 0.26408 0.0
C3726 C 0.63957 0.48874 0.26621 0.0
C3727 C 0.63234 0.49269 0.25575 0.0
C3728 C 0.62505 0.47697 0.24951 0.0
C3729 C 0.62503 0.45777 0.25362 0.0
C3730 C 0.63778 0.53582 0.2363 0.0
C3731 C 0.63279 0.55194 0.24292 0.0
C3732 C 0.63762 0.51666 0.24046 0.0
C3733 C 0.63249 0.51312 0.25134 0.0
C3734 C 0.62754 0.52923 0.25796 0.0
C3735 C 0.62769 0.5484 0.2538 0.0
H3736 H 0.21777 0.89344 0.97679 0.0
H3737 H 0.19593 0.87067 0.00723 0.0
H3738 H 0.25119 0.89306 0.98399 0.0
H3739 H 0.22924 0.87108 0.01457 0.0
H3740 H 0.29382 0.85456 0.02016 0.0
H3741 H 0.26051 0.85431 0.0128 0.0
H3742 H 0.27156 0.91008 0.99707 0.0
H3743 H 0.30488 0.91031 0.00442 0.0
C3744 C 0.22009 0.8883 0.98501 0.0
C3745 C 0.20413 0.88205 0.99142 0.0
C3746 C 0.23924 0.88832 0.98919 0.0
C3747 C 0.24293 0.88208 0.99987 0.0
C3748 C 0.22698 0.87579 0.00627 0.0
C3749 C 0.20783 0.87578 1.0021 0.0
C3750 C 0.2891 0.86685 0.0152 0.0
C3751 C 0.30205 0.88245 0.01289 0.0
C3752 C 0.26998 0.86671 0.01098 0.0
C3753 C 0.26332 0.88218 0.00434 0.0
C3754 C 0.27629 0.89777 1.00201 0.0
C3755 C 0.29541 0.8979 0.00623 0.0
H3756 H 0.84814 0.44813 0.75218 0.0
H3757 H 0.89753 0.46229 0.7315 0.0
H3758 H 0.84871 0.48136 0.75949 0.0
H3759 H 0.89728 0.4959 0.7383 0.0
H3760 H 0.90465 0.54892 0.76052 0.0
H3761 H 0.90476 0.51527 0.75376 0.0
H3762 H 0.84117 0.51433 0.75489 0.0
H3763 H 0.84112 0.54747 0.7623 0.0
C3764 C 0.85916 0.45829 0.74919 0.0
C3765 C 0.87282 0.45242 0.74124 0.0
C3766 C 0.85929 0.4775 0.75327 0.0
C3767 C 0.87299 0.49144 0.74947 0.0
C3768 C 0.88665 0.48556 0.74153 0.0
C3769 C 0.88661 0.46631 0.7375 0.0
C3770 C 0.89069 0.54147 0.75946 0.0
C3771 C 0.87288 0.55101 0.76199 0.0
C3772 C 0.89074 0.52222 0.75543 0.0
C3773 C 0.87297 0.512 0.75375 0.0
C3774 C 0.85517 0.52158 0.75621 0.0
C3775 C 0.85512 0.54077 0.76031 0.0
H3776 H 0.08668 0.3631 0.10177 0.0
H3777 H 0.13929 0.39858 0.1001 0.0
H3778 H 0.09192 0.3583 0.12127 0.0
H3779 H 0.14481 0.39339 0.11959 0.0
H3780 H 0.15657 0.35398 0.15093 0.0
H3781 H 0.15162 0.36071 0.13167 0.0
H3782 H 0.09337 0.38272 0.13843 0.0
H3783 H 0.09853 0.37721 0.15773 0.0
C3784 C 0.09935 0.36985 0.1056 0.0
C3785 C 0.11257 0.38124 0.0995 0.0
C3786 C 0.10231 0.36716 0.11672 0.0
C3787 C 0.11879 0.37545 0.12188 0.0
C3788 C 0.13206 0.38679 0.11576 0.0
C3789 C 0.12885 0.38985 0.10468 0.0
C3790 C 0.14283 0.3606 0.14839 0.0
C3791 C 0.12794 0.36494 0.15599 0.0
C3792 C 0.13999 0.36434 0.13734 0.0
C3793 C 0.1221 0.37215 0.1336 0.0
C3794 C 0.10723 0.37649 0.14111 0.0
C3795 C 0.11018 0.37315 0.15218 0.0
H3796 H 0.90223 0.84852 0.40551 0.0
H3797 H 0.87869 0.90752 0.40348 0.0
H3798 H 0.89608 0.84383 0.3863 0.0
H3799 H 0.8737 0.90326 0.38404 0.0
H3800 H 0.84762 0.88143 0.35192 0.0
H3801 H 0.85336 0.88651 0.37128 0.0
H3802 H 0.90744 0.8532 0.36898 0.0
H3803 H 0.90135 0.84774 0.34976 0.0
C3804 C 0.89575 0.86053 0.40097 0.0
C3805 C 0.89082 0.87836 0.40611 0.0
C3806 C 0.89249 0.85794 0.38988 0.0
C3807 C 0.8844 0.87317 0.38357 0.0
C3808 C 0.8797 0.8911 0.38866 0.0
C3809 C 0.88283 0.89365 0.3998 0.0
C3810 C 0.86073 0.87523 0.35558 0.0
C3811 C 0.87395 0.86406 0.34935 0.0
C3812 C 0.86409 0.87821 0.36666 0.0
C3813 C 0.88086 0.87024 0.37174 0.0
C3814 C 0.89416 0.85923 0.36543 0.0
C3815 C 0.8907 0.8561 0.3544 0.0
H3816 H 0.39149 0.61438 0.65855 0.0
H3817 H 0.35164 0.66219 0.65125 0.0
H3818 H 0.39664 0.60897 0.63923 0.0
H3819 H 0.35704 0.6569 0.63191 0.0
H3820 H 0.39031 0.65634 0.59939 0.0
H3821 H 0.38394 0.66085 0.6187 0.0
H3822 H 0.37936 0.59784 0.62273 0.0
H3823 H 0.38626 0.59329 0.60344 0.0
C3824 C 0.3836 0.62357 0.65284 0.0
C3825 C 0.37113 0.63873 0.65649 0.0
C3826 C 0.38661 0.62048 0.64175 0.0
C3827 C 0.3773 0.63253 0.63403 0.0
C3828 C 0.36467 0.64755 0.63766 0.0
C3829 C 0.36159 0.65059 0.64875 0.0
C3830 C 0.38812 0.64344 0.60441 0.0
C3831 C 0.38889 0.62445 0.59988 0.0
C3832 C 0.38423 0.64603 0.61545 0.0
C3833 C 0.38109 0.62971 0.62225 0.0
C3834 C 0.38186 0.61071 0.61773 0.0
C3835 C 0.38565 0.60811 0.60666 0.0
H3836 H 0.64808 0.16337 0.85391 0.0
H3837 H 0.61427 0.11122 0.8466 0.0
H3838 H 0.64369 0.15728 0.87328 0.0
H3839 H 0.61023 0.1048 0.86592 0.0
H3840 H 0.58747 0.11176 0.90045 0.0
H3841 H 0.59297 0.11727 0.8812 0.0
H3842 H 0.65246 0.13621 0.88798 0.0
H3843 H 0.64656 0.13182 0.9073 0.0
C3844 C 0.63995 0.15045 0.85646 0.0
C3845 C 0.63142 0.13785 0.84875 0.0
C3846 C 0.63745 0.14691 0.86756 0.0
C3847 C 0.6265 0.13058 0.87119 0.0
C3848 C 0.61838 0.11774 0.86344 0.0
C3849 C 0.62075 0.12137 0.85236 0.0
C3850 C 0.60167 0.11728 0.89786 0.0
C3851 C 0.61654 0.12137 0.90547 0.0
C3852 C 0.60493 0.12019 0.88678 0.0
C3853 C 0.6232 0.12716 0.883 0.0
C3854 C 0.63814 0.13105 0.8906 0.0
C3855 C 0.63484 0.12824 0.90169 0.0
H3856 H 0.10136 0.64801 0.3492 0.0
H3857 H 0.16219 0.63036 0.35225 0.0
H3858 H 0.0963 0.64163 0.36849 0.0
H3859 H 0.15704 0.62366 0.37154 0.0
H3860 H 0.14444 0.6373 0.40773 0.0
H3861 H 0.14999 0.64264 0.38844 0.0
H3862 H 0.09541 0.61291 0.38113 0.0
H3863 H 0.08999 0.6071 0.40043 0.0
C3864 C 0.11368 0.64286 0.35401 0.0
C3865 C 0.1322 0.63977 0.34922 0.0
C3866 C 0.11072 0.639 0.36503 0.0
C3867 C 0.12625 0.6321 0.37153 0.0
C3868 C 0.14481 0.6291 0.36675 0.0
C3869 C 0.14773 0.63279 0.3557 0.0
C3870 C 0.13376 0.63156 0.40203 0.0
C3871 C 0.11677 0.6217 0.40569 0.0
C3872 C 0.13693 0.63471 0.39096 0.0
C3873 C 0.12312 0.62824 0.38327 0.0
C3874 C 0.10619 0.61831 0.38688 0.0
C3875 C 0.10308 0.61502 0.39795 0.0
H3876 H 0.6412 0.83638 0.65078 0.0
H3877 H 0.62623 0.89701 0.6574 0.0
H3878 H 0.63576 0.84199 0.63148 0.0
H3879 H 0.62061 0.90259 0.63812 0.0
H3880 H 0.62982 0.91026 0.60161 0.0
H3881 H 0.63695 0.90493 0.62077 0.0
H3882 H 0.60903 0.84785 0.6191 0.0
H3883 H 0.60275 0.85277 0.59986 0.0
C3884 C 0.63668 0.85089 0.64812 0.0
C3885 C 0.63414 0.86624 0.65563 0.0
C3886 C 0.63351 0.8541 0.63705 0.0
C3887 C 0.62765 0.87273 0.63323 0.0
C3888 C 0.62538 0.88814 0.64074 0.0
C3889 C 0.62861 0.88494 0.65181 0.0
C3890 C 0.62536 0.8965 0.60531 0.0
C3891 C 0.61568 0.88197 0.59918 0.0
C3892 C 0.62927 0.89353 0.61633 0.0
C3893 C 0.62359 0.87595 0.62149 0.0
C3894 C 0.61385 0.86146 0.61536 0.0
C3895 C 0.60998 0.86441 0.60435 0.0
H3896 H 0.40616 0.3744 0.84752 0.0
H3897 H 0.34631 0.35633 0.85426 0.0
H3898 H 0.41161 0.3798 0.86682 0.0
H3899 H 0.35169 0.36266 0.87352 0.0
H3900 H 0.36514 0.3979 0.90523 0.0
H3901 H 0.35956 0.39292 0.88578 0.0
H3902 H 0.41238 0.35773 0.88394 0.0
H3903 H 0.41785 0.36257 0.90339 0.0
C3904 C 0.39418 0.37142 0.85308 0.0
C3905 C 0.3758 0.36476 0.84926 0.0
C3906 C 0.39732 0.37466 0.86414 0.0
C3907 C 0.38208 0.37166 0.87164 0.0
C3908 C 0.36363 0.36529 0.86788 0.0
C3909 C 0.36056 0.36175 0.85683 0.0
C3910 C 0.37559 0.38922 0.90064 0.0
C3911 C 0.39192 0.38061 0.90579 0.0
C3912 C 0.37233 0.38625 0.88955 0.0
C3913 C 0.38553 0.37492 0.88338 0.0
C3914 C 0.40203 0.36661 0.8885 0.0
C3915 C 0.40511 0.36929 0.89961 0.0
H3916 H 0.90524 0.14683 0.15556 0.0
H3917 H 0.84383 0.13136 0.15236 0.0
H3918 H 0.91024 0.14023 0.1363 0.0
H3919 H 0.84894 0.12433 0.13312 0.0
H3920 H 0.86205 0.13698 0.09695 0.0
H3921 H 0.85653 0.14258 0.11621 0.0
H3922 H 0.9105 0.11183 0.12367 0.0
H3923 H 0.91591 0.10587 0.10438 0.0
C3924 C 0.89279 0.14211 0.15073 0.0
C3925 C 0.87412 0.1397 0.15547 0.0
C3926 C 0.89571 0.1381 0.13972 0.0
C3927 C 0.88 0.13171 0.13319 0.0
C3928 C 0.8613 0.12937 0.13792 0.0
C3929 C 0.85841 0.13325 0.14895 0.0
C3930 C 0.8726 0.13109 0.10268 0.0
C3931 C 0.88942 0.12092 0.09907 0.0
C3932 C 0.86944 0.13437 0.11373 0.0
C3933 C 0.88309 0.12769 0.12146 0.0
C3934 C 0.89985 0.11741 0.11789 0.0
C3935 C 0.90295 0.11402 0.10683 0.0
H3936 H 0.84475 0.62427 0.85245 0.0
H3937 H 0.9017 0.65219 0.85012 0.0
H3938 H 0.84993 0.61908 0.87186 0.0
H3939 H 0.90706 0.64675 0.86939 0.0
H3940 H 0.90216 0.65324 0.90585 0.0
H3941 H 0.896 0.65812 0.8866 0.0
H3942 H 0.86898 0.60059 0.8848 0.0
H3943 H 0.87489 0.5959 0.90419 0.0
C3944 C 0.85842 0.62916 0.85608 0.0
C3945 C 0.87273 0.63879 0.84977 0.0
C3946 C 0.86143 0.62615 0.86719 0.0
C3947 C 0.87888 0.63259 0.87224 0.0
C3948 C 0.89326 0.64198 0.86586 0.0
C3949 C 0.8902 0.64509 0.85479 0.0
C3950 C 0.89504 0.64157 0.90133 0.0
C3951 C 0.88915 0.62412 0.90653 0.0
C3952 C 0.89151 0.64435 0.89028 0.0
C3953 C 0.88211 0.6297 0.88409 0.0
C3954 C 0.87604 0.61229 0.88932 0.0
C3955 C 0.87947 0.60956 0.90043 0.0
H3956 H 0.08988 0.10875 0.60391 0.0
H3957 H 0.14831 0.1297 0.59624 0.0
H3958 H 0.09656 0.11336 0.62316 0.0
H3959 H 0.15529 0.13347 0.61552 0.0
H3960 H 0.15161 0.16055 0.64963 0.0
H3961 H 0.14607 0.15462 0.63038 0.0
H3962 H 0.11554 0.10059 0.63811 0.0
H3963 H 0.12032 0.10697 0.65738 0.0
C3964 C 0.10419 0.11425 0.60633 0.0
C3965 C 0.11852 0.11891 0.59851 0.0
C3966 C 0.10811 0.11668 0.61739 0.0
C3967 C 0.12647 0.1238 0.62091 0.0
C3968 C 0.14091 0.12817 0.6131 0.0
C3969 C 0.13699 0.12576 0.60204 0.0
C3970 C 0.14363 0.14745 0.64723 0.0
C3971 C 0.13637 0.13428 0.65508 0.0
C3972 C 0.14065 0.14392 0.63618 0.0
C3973 C 0.13034 0.12712 0.63267 0.0
C3974 C 0.12335 0.11379 0.64051 0.0
C3975 C 0.12632 0.11732 0.65157 0.0
H3976 H 0.58751 0.37892 0.40243 0.0
H3977 H 0.65002 0.38807 0.40663 0.0
H3978 H 0.59244 0.37457 0.38304 0.0
H3979 H 0.65507 0.38259 0.38731 0.0
H3980 H 0.65519 0.38976 0.35047 0.0
H3981 H 0.6499 0.39647 0.36967 0.0
H3982 H 0.60551 0.35093 0.37076 0.0
H3983 H 0.61001 0.345 0.35149 0.0
C3984 C 0.60231 0.38013 0.39922 0.0
C3985 C 0.61836 0.38386 0.40614 0.0
C3986 C 0.60517 0.37733 0.3881 0.0
C3987 C 0.62418 0.37806 0.38359 0.0
C3988 C 0.64021 0.38208 0.39047 0.0
C3989 C 0.63733 0.38498 0.40159 0.0
C3990 C 0.64415 0.38132 0.35477 0.0
C3991 C 0.63306 0.36681 0.3494 0.0
C3992 C 0.64128 0.38502 0.36583 0.0
C3993 C 0.62727 0.37426 0.3718 0.0
C3994 C 0.61624 0.3597 0.36642 0.0
C3995 C 0.61905 0.35608 0.35537 0.0
H3996 H 0.37519 0.90876 0.10132 0.0
H3997 H 0.40219 0.8513 0.09955 0.0
H3998 H 0.36981 0.90421 0.12077 0.0
H3999 H 0.39662 0.84661 0.11886 0.0
H4000 H 0.40384 0.85296 0.15522 0.0
H4001 H 0.40852 0.85841 0.13589 0.0
H4002 H 0.35112 0.88565 0.13398 0.0
H4003 H 0.34659 0.88039 0.15344 0.0
C4004 C 0.37982 0.8951 0.10507 0.0
C4005 C 0.38928 0.88047 0.09891 0.0
C4006 C 0.37671 0.89246 0.11621 0.0
C4007 C 0.38291 0.87509 0.12143 0.0
C4008 C 0.39205 0.86035 0.11519 0.0
C4009 C 0.39523 0.86303 0.1041 0.0
C4010 C 0.39215 0.85998 0.15066 0.0
C4011 C 0.37477 0.8661 0.15585 0.0
C4012 C 0.39481 0.86309 0.13956 0.0
C4013 C 0.38013 0.87233 0.13333 0.0
C4014 C 0.36283 0.87868 0.13854 0.0
C4015 C 0.3602 0.87564 0.14969 0.0
H4016 H 0.84609 0.38139 0.65338 0.0
H4017 H 0.9034 0.35401 0.65501 0.0
H4018 H 0.85133 0.38848 0.63413 0.0
H4019 H 0.90844 0.3607 0.63578 0.0
H4020 H 0.91938 0.39386 0.60421 0.0
H4021 H 0.91361 0.38899 0.62354 0.0
H4022 H 0.85419 0.37008 0.61676 0.0
H4023 H 0.85999 0.37463 0.5974 0.0
C4024 C 0.8598 0.37693 0.64964 0.0
C4025 C 0.87429 0.36706 0.65571 0.0
C4026 C 0.86274 0.38085 0.6386 0.0
C4027 C 0.88031 0.37517 0.63343 0.0
C4028 C 0.89483 0.36545 0.63954 0.0
C4029 C 0.89184 0.36141 0.65053 0.0
C4030 C 0.9051 0.38857 0.60682 0.0
C4031 C 0.89019 0.38456 0.59921 0.0
C4032 C 0.9018 0.3858 0.61791 0.0
C4033 C 0.88347 0.37906 0.62168 0.0
C4034 C 0.8684 0.3755 0.61412 0.0
C4035 C 0.87173 0.37817 0.60302 0.0
H4036 H 0.40313 0.15241 0.34986 0.0
H4037 H 0.34627 0.12404 0.35118 0.0
H4038 H 0.40795 0.14581 0.3691 0.0
H4039 H 0.35131 0.117 0.37045 0.0
H4040 H 0.3592 0.13043 0.40726 0.0
H4041 H 0.35355 0.13507 0.38788 0.0
H4042 H 0.41351 0.1177 0.3813 0.0
H4043 H 0.41913 0.1128 0.40064 0.0
C4044 C 0.39162 0.14482 0.35427 0.0
C4045 C 0.37426 0.13885 0.349 0.0
C4046 C 0.39449 0.14082 0.36527 0.0
C4047 C 0.38004 0.13082 0.3713 0.0
C4048 C 0.36266 0.12485 0.36604 0.0
C4049 C 0.35984 0.12874 0.355 0.0
C4050 C 0.37109 0.12727 0.40168 0.0
C4051 C 0.38966 0.12132 0.40554 0.0
C4052 C 0.36785 0.12997 0.39056 0.0
C4053 C 0.38311 0.12688 0.38306 0.0
C4054 C 0.40154 0.12054 0.38689 0.0
C4055 C 0.40477 0.11775 0.39799 0.0
H4056 H 0.62389 0.67132 0.15241 0.0
H4057 H 0.64269 0.61116 0.15691 0.0
H4058 H 0.62008 0.66542 0.13302 0.0
H4059 H 0.63848 0.60504 0.13754 0.0
H4060 H 0.64479 0.60551 0.1006 0.0
H4061 H 0.6509 0.61208 0.11976 0.0
H4062 H 0.59871 0.64839 0.12098 0.0
H4063 H 0.59324 0.64272 0.10176 0.0
C4064 C 0.62714 0.6568 0.14924 0.0
C4065 C 0.63351 0.64168 0.15619 0.0
C4066 C 0.62489 0.65337 0.13814 0.0
C4067 C 0.62879 0.63469 0.1337 0.0
C4068 C 0.63556 0.61967 0.14063 0.0
C4069 C 0.63796 0.62316 0.15174 0.0
C4070 C 0.63473 0.61505 0.10494 0.0
C4071 C 0.61849 0.62354 0.09961 0.0
C4072 C 0.63811 0.61865 0.11596 0.0
C4073 C 0.62533 0.6308 0.12194 0.0
C4074 C 0.60905 0.63919 0.11662 0.0
C4075 C 0.60572 0.63567 0.10561 0.0
H4076 H 0.12049 0.8971 0.8473 0.0
H4077 H 0.14474 0.83985 0.85469 0.0
H4078 H 0.11636 0.90356 0.86664 0.0
H4079 H 0.14005 0.84606 0.874 0.0
H4080 H 0.14596 0.87071 0.9082 0.0
H4081 H 0.15229 0.86648 0.88886 0.0
H4082 H 0.09556 0.89194 0.88153 0.0
H4083 H 0.08949 0.89674 0.90086 0.0
C4084 C 0.12509 0.88596 0.85305 0.0
C4085 C 0.13295 0.86796 0.84944 0.0
C4086 C 0.12251 0.88957 0.86414 0.0
C4087 C 0.12781 0.87531 0.87187 0.0
C4088 C 0.13598 0.85744 0.86827 0.0
C4089 C 0.13848 0.8538 0.85719 0.0
C4090 C 0.13496 0.87568 0.90246 0.0
C4091 C 0.11721 0.88407 0.90608 0.0
C4092 C 0.1385 0.87305 0.89138 0.0
C4093 C 0.12441 0.87881 0.88365 0.0
C4094 C 0.1068 0.8875 0.88726 0.0
C4095 C 0.10323 0.89007 0.89835 0.0
loop_
_geom_bond_atom_site_label_1
_geom_bond_atom_site_label_2
_geom_bond_distance
_geom_bond_site_symmetry_2
_ccdc_geom_bond_type
Li0 N17 1.990 . S
Li0 O60 1.956 . S
Li0 O61 1.970 . S
Li0 O62 1.961 . S
Li1 N25 1.990 . S
Li1 O60 1.970 . S
Li1 O61 1.956 . S
Li1 O63 1.961 . S
Li2 N47 1.990 . S
Li2 O60 1.961 . S
Li2 O62 1.956 . S
Li2 O63 1.970 . S
Li3 N53 1.990 . S
Li3 O61 1.961 . S
Li3 O62 1.970 . S
Li3 O63 1.956 . S
C4 C6 1.348 . S
C4 C7 1.356 . S
C4 O60 1.325 . S
N5 C8 1.314 . S
N5 C9 1.279 . S
C6 C4 1.348 . S
C6 C8 1.353 . S
C6 H64 0.929 . S
C7 C4 1.356 . S
C7 C9 1.358 . S
C7 H65 0.930 . S
C8 N5 1.314 . S
C8 C6 1.353 . S
C8 H66 0.930 . S
C9 N5 1.279 . S
C9 C7 1.358 . S
C9 H67 0.930 . S
C10 C13 1.348 . S
C10 C14 1.356 . S
C10 O61 1.325 . S
C11 N12 1.279 . S
C11 C14 1.358 . S
C11 H68 0.930 . S
N12 C11 1.279 . S
N12 C15 1.314 . S
C13 C10 1.348 . S
C13 C15 1.353 . S
C13 H69 0.929 . S
C14 C10 1.356 . S
C14 C11 1.358 . S
C14 H70 0.930 . S
C15 N12 1.314 . S
C15 C13 1.353 . S
C15 H71 0.930 . S
C16 N17 1.314 . S
C16 C21 1.353 . S
C16 H22 0.930 . S
N17 Li0 1.990 . S
N17 C16 1.314 . S
N17 C19 1.279 . S
C18 C19 1.358 . S
C18 C20 1.356 . S
C18 H72 0.930 . S
C19 N17 1.279 . S
C19 C18 1.358 . S
C19 H23 0.930 . S
C20 C18 1.356 . S
C20 C21 1.348 . S
C21 C16 1.353 . S
C21 C20 1.348 . S
C21 H73 0.918 1_554 S
H22 C16 0.930 . S
H23 C19 0.930 . S
C24 N25 1.314 . S
C24 C26 1.353 . S
C24 H30 0.930 . S
N25 Li1 1.990 . S
N25 C24 1.314 . S
N25 C28 1.279 . S
C26 C24 1.353 . S
C26 C29 1.348 . S
C26 H74 0.929 . S
C27 C28 1.358 . S
C27 C29 1.356 . S
C27 H75 0.930 . S
C28 N25 1.279 . S
C28 C27 1.358 . S
C28 H31 0.930 . S
C29 C26 1.348 . S
C29 C27 1.356 . S
H30 C24 0.930 . S
H31 C28 0.930 . S
C32 C34 1.348 . S
C32 C35 1.356 . S
C32 O62 1.325 . S
N33 C36 1.314 . S
N33 C37 1.279 . S
C34 C32 1.348 . S
C34 C36 1.353 1_554 S
C34 H76 0.929 . S
C35 C32 1.356 . S
C35 C37 1.358 1_554 S
C35 H77 0.930 . S
C36 N33 1.314 . S
C36 C34 1.353 1_556 S
C36 H78 0.930 . S
C37 N33 1.279 . S
C37 C35 1.358 1_556 S
C37 H79 0.930 . S
C38 C39 1.348 . S
C38 C40 1.356 . S
C38 O63 1.325 . S
C39 C38 1.348 . S
C39 C41 1.353 . S
C39 H80 0.929 . S
C40 C38 1.356 . S
C40 C42 1.358 . S
C40 H81 0.930 . S
C41 C39 1.353 . S
C41 N43 1.314 . S
C41 H82 0.930 . S
C42 C40 1.358 . S
C42 N43 1.279 . S
C42 H83 0.930 . S
N43 C41 1.314 . S
N43 C42 1.279 . S
C44 C46 1.353 . S
C44 N47 1.314 . S
C44 H50 0.930 . S
C45 N47 1.279 . S
C45 C48 1.358 . S
C45 H51 0.930 . S
C46 C44 1.353 . S
C46 C49 1.348 . S
C46 H84 0.929 . S
N47 Li2 1.990 . S
N47 C44 1.314 . S
N47 C45 1.279 . S
C48 C45 1.358 . S
C48 C49 1.356 . S
C48 H85 0.930 . S
C49 C46 1.348 . S
C49 C48 1.356 . S
H50 C44 0.930 . S
H51 C45 0.930 . S
C52 N53 1.314 . S
C52 C54 1.353 . S
C52 H58 0.930 . S
N53 Li3 1.990 . S
N53 C52 1.314 . S
N53 C56 1.279 . S
C54 C52 1.353 . S
C54 C57 1.348 . S
C54 H86 0.929 . S
C55 C56 1.358 . S
C55 C57 1.356 . S
C55 H87 0.930 . S
C56 N53 1.279 . S
C56 C55 1.358 . S
C56 H59 0.930 . S
C57 C54 1.348 . S
C57 C55 1.356 . S
H58 C52 0.930 . S
H59 C56 0.930 . S
O60 Li0 1.956 . S
O60 Li1 1.970 . S
O60 Li2 1.961 . S
O60 C4 1.325 . S
O61 Li0 1.970 . S
O61 Li1 1.956 . S
O61 Li3 1.961 . S
O61 C10 1.325 . S
O62 Li0 1.961 . S
O62 Li2 1.956 . S
O62 Li3 1.970 . S
O62 C32 1.325 . S
O63 Li1 1.961 . S
O63 Li2 1.970 . S
O63 Li3 1.956 . S
O63 C38 1.325 . S
H64 C6 0.929 . S
H65 C7 0.930 . S
H66 C8 0.930 . S
H67 C9 0.930 . S
H68 C11 0.930 . S
H69 C13 0.929 . S
H70 C14 0.930 . S
H71 C15 0.930 . S
H72 C18 0.930 . S
H73 C21 0.918 1_556 S
H74 C26 0.929 . S
H75 C27 0.930 . S
H76 C34 0.929 . S
H77 C35 0.930 . S
H78 C36 0.930 . S
H79 C37 0.930 . S
H80 C39 0.929 . S
H81 C40 0.930 . S
H82 C41 0.930 . S
H83 C42 0.930 . S
H84 C46 0.929 . S
H85 C48 0.930 . S
H86 C54 0.929 . S
H87 C55 0.930 . S
Li88 N105 1.990 . S
Li88 O148 1.956 . S
Li88 O149 1.970 . S
Li88 O150 1.961 . S
Li89 N113 1.990 . S
Li89 O148 1.970 . S
Li89 O149 1.956 . S
Li89 O151 1.961 . S
Li90 N135 1.990 . S
Li90 O148 1.961 . S
Li90 O150 1.956 . S
Li90 O151 1.970 . S
Li91 N141 1.990 . S
Li91 O149 1.961 . S
Li91 O150 1.970 . S
Li91 O151 1.956 . S
C92 C94 1.348 . S
C92 C95 1.356 . S
C92 O148 1.325 . S
N93 C96 1.314 . S
N93 C97 1.279 . S
C94 C92 1.348 . S
C94 C96 1.353 . S
C94 H152 0.929 . S
C95 C92 1.356 . S
C95 C97 1.358 . S
C95 H153 0.930 . S
C96 N93 1.314 . S
C96 C94 1.353 . S
C96 H154 0.930 . S
C97 N93 1.279 . S
C97 C95 1.358 . S
C97 H155 0.930 . S
C98 C101 1.348 . S
C98 C102 1.356 . S
C98 O149 1.325 . S
C99 N100 1.279 . S
C99 C102 1.358 . S
C99 H156 0.930 . S
N100 C99 1.279 . S
N100 C103 1.314 . S
C101 C98 1.348 . S
C101 C103 1.353 . S
C101 H157 0.929 . S
C102 C98 1.356 . S
C102 C99 1.358 . S
C102 H158 0.930 . S
C103 N100 1.314 . S
C103 C101 1.353 . S
C103 H159 0.930 . S
C104 N105 1.314 . S
C104 C109 1.353 . S
C104 H110 0.930 . S
N105 Li88 1.990 . S
N105 C104 1.314 . S
N105 C107 1.279 . S
C106 C107 1.358 . S
C106 C108 1.356 . S
C106 H160 0.930 . S
C107 N105 1.279 . S
C107 C106 1.358 . S
C107 H111 0.930 . S
C108 C106 1.356 . S
C108 C109 1.348 . S
C109 C104 1.353 . S
C109 C108 1.348 . S
C109 H161 0.929 . S
H110 C104 0.930 . S
H111 C107 0.930 . S
C112 N113 1.314 . S
C112 C114 1.353 . S
C112 H118 0.930 . S
N113 Li89 1.990 . S
N113 C112 1.314 . S
N113 C116 1.279 . S
C114 C112 1.353 . S
C114 C117 1.348 . S
C114 H162 0.929 . S
C115 C116 1.358 . S
C115 C117 1.356 . S
C115 H163 0.930 . S
C116 N113 1.279 . S
C116 C115 1.358 . S
C116 H119 0.930 . S
C117 C114 1.348 . S
C117 C115 1.356 . S
H118 C112 0.930 . S
H119 C116 0.930 . S
C120 C122 1.348 . S
C120 C123 1.356 . S
C120 O150 1.325 . S
N121 C124 1.314 . S
N121 C125 1.279 . S
C122 C120 1.348 . S
C122 C124 1.353 . S
C122 H164 0.929 . S
C123 C120 1.356 . S
C123 C125 1.358 . S
C123 H165 0.930 . S
C124 N121 1.314 . S
C124 C122 1.353 . S
C124 H166 0.930 . S
C125 N121 1.279 . S
C125 C123 1.358 . S
C125 H167 0.930 . S
C126 C127 1.348 . S
C126 C128 1.356 . S
C126 O151 1.325 . S
C127 C126 1.348 . S
C127 C129 1.353 . S
C127 H168 0.929 . S
C128 C126 1.356 . S
C128 C130 1.358 . S
C128 H169 0.930 . S
C129 C127 1.353 . S
C129 N131 1.314 . S
C129 H170 0.930 . S
C130 C128 1.358 . S
C130 N131 1.279 . S
C130 H171 0.930 . S
N131 C129 1.314 . S
N131 C130 1.279 . S
C132 C134 1.353 . S
C132 N135 1.314 . S
C132 H138 0.930 . S
C133 N135 1.279 . S
C133 C136 1.358 . S
C133 H139 0.930 . S
C134 C132 1.353 . S
C134 C137 1.348 . S
C134 H172 0.929 . S
N135 Li90 1.990 . S
N135 C132 1.314 . S
N135 C133 1.279 . S
C136 C133 1.358 . S
C136 C137 1.356 . S
C136 H173 0.930 . S
C137 C134 1.348 . S
C137 C136 1.356 . S
H138 C132 0.930 . S
H139 C133 0.930 . S
C140 N141 1.314 . S
C140 C142 1.353 . S
C140 H146 0.930 . S
N141 Li91 1.990 . S
N141 C140 1.314 . S
N141 C144 1.279 . S
C142 C140 1.353 . S
C142 C145 1.348 . S
C142 H174 0.929 . S
C143 C144 1.358 . S
C143 C145 1.356 . S
C143 H175 0.930 . S
C144 N141 1.279 . S
C144 C143 1.358 . S
C144 H147 0.930 . S
C145 C142 1.348 . S
C145 C143 1.356 . S
H146 C140 0.930 . S
H147 C144 0.930 . S
O148 Li88 1.956 . S
O148 Li89 1.970 . S
O148 Li90 1.961 . S
O148 C92 1.325 . S
O149 Li88 1.970 . S
O149 Li89 1.956 . S
O149 Li91 1.961 . S
O149 C98 1.325 . S
O150 Li88 1.961 . S
O150 Li90 1.956 . S
O150 Li91 1.970 . S
O150 C120 1.325 . S
O151 Li89 1.961 . S
O151 Li90 1.970 . S
O151 Li91 1.956 . S
O151 C126 1.325 . S
H152 C94 0.929 . S
H153 C95 0.930 . S
H154 C96 0.930 . S
H155 C97 0.930 . S
H156 C99 0.930 . S
H157 C101 0.929 . S
H158 C102 0.930 . S
H159 C103 0.930 . S
H160 C106 0.930 . S
H161 C109 0.929 . S
H162 C114 0.929 . S
H163 C115 0.930 . S
H164 C122 0.929 . S
H165 C123 0.930 . S
H166 C124 0.930 . S
H167 C125 0.930 . S
H168 C127 0.929 . S
H169 C128 0.930 . S
H170 C129 0.930 . S
H171 C130 0.930 . S
H172 C134 0.929 . S
H173 C136 0.930 . S
H174 C142 0.929 . S
H175 C143 0.930 . S
Li176 N193 1.990 . S
Li176 O236 1.956 . S
Li176 O237 1.970 . S
Li176 O238 1.961 . S
Li177 N201 1.990 . S
Li177 O236 1.970 . S
Li177 O237 1.956 . S
Li177 O239 1.961 . S
Li178 N223 1.990 . S
Li178 O236 1.961 . S
Li178 O238 1.956 . S
Li178 O239 1.970 . S
Li179 N229 1.990 . S
Li179 O237 1.961 . S
Li179 O238 1.970 . S
Li179 O239 1.956 . S
C180 C182 1.348 . S
C180 C183 1.356 . S
C180 O236 1.325 . S
N181 C184 1.314 . S
N181 C185 1.279 . S
C182 C180 1.348 . S
C182 C184 1.353 . S
C182 H240 0.929 . S
C183 C180 1.356 . S
C183 C185 1.358 . S
C183 H241 0.930 . S
C184 N181 1.314 . S
C184 C182 1.353 . S
C184 H242 0.930 . S
C185 N181 1.279 . S
C185 C183 1.358 . S
C185 H243 0.930 . S
C186 C189 1.348 . S
C186 C190 1.356 . S
C186 O237 1.325 . S
C187 N188 1.279 . S
C187 C190 1.358 . S
C187 H244 0.930 . S
N188 C187 1.279 . S
N188 C191 1.314 . S
C189 C186 1.348 . S
C189 C191 1.353 . S
C189 H245 0.929 . S
C190 C186 1.356 . S
C190 C187 1.358 . S
C190 H246 0.930 . S
C191 N188 1.314 . S
C191 C189 1.353 . S
C191 H247 0.930 . S
C192 N193 1.314 . S
C192 C197 1.353 . S
C192 H198 0.930 . S
N193 Li176 1.990 . S
N193 C192 1.314 . S
N193 C195 1.279 . S
C194 C195 1.358 . S
C194 C196 1.356 . S
C194 H248 0.930 . S
C195 N193 1.279 . S
C195 C194 1.358 . S
C195 H199 0.930 . S
C196 C194 1.356 . S
C196 C197 1.348 . S
C197 C192 1.353 . S
C197 C196 1.348 . S
C197 H249 0.929 . S
H198 C192 0.930 . S
H199 C195 0.930 . S
C200 N201 1.314 . S
C200 C202 1.353 . S
C200 H206 0.930 . S
N201 Li177 1.990 . S
N201 C200 1.314 . S
N201 C204 1.279 . S
C202 C200 1.353 . S
C202 C205 1.348 . S
C202 H250 0.929 . S
C203 C204 1.358 . S
C203 C205 1.356 . S
C203 H251 0.930 . S
C204 N201 1.279 . S
C204 C203 1.358 . S
C204 H207 0.930 . S
C205 C202 1.348 . S
C205 C203 1.356 . S
H206 C200 0.930 . S
H207 C204 0.930 . S
C208 C210 1.348 . S
C208 C211 1.356 . S
C208 O238 1.325 . S
N209 C212 1.314 . S
N209 C213 1.279 . S
C210 C208 1.348 . S
C210 C212 1.353 . S
C210 H252 0.929 . S
C211 C208 1.356 . S
C211 C213 1.358 . S
C211 H253 0.930 . S
C212 N209 1.314 . S
C212 C210 1.353 . S
C212 H254 0.930 . S
C213 N209 1.279 . S
C213 C211 1.358 . S
C213 H255 0.930 . S
C214 C215 1.348 . S
C214 C216 1.356 . S
C214 O239 1.325 . S
C215 C214 1.348 . S
C215 C217 1.353 . S
C215 H256 0.929 . S
C216 C214 1.356 . S
C216 C218 1.358 . S
C216 H257 0.930 . S
C217 C215 1.353 . S
C217 N219 1.314 . S
C217 H258 0.930 . S
C218 C216 1.358 . S
C218 N219 1.279 . S
C218 H259 0.930 . S
N219 C217 1.314 . S
N219 C218 1.279 . S
C220 C222 1.353 . S
C220 N223 1.314 . S
C220 H226 0.930 . S
C221 N223 1.279 . S
C221 C224 1.358 . S
C221 H227 0.930 . S
C222 C220 1.353 . S
C222 C225 1.348 . S
C222 H260 0.929 . S
N223 Li178 1.990 . S
N223 C220 1.314 . S
N223 C221 1.279 . S
C224 C221 1.358 . S
C224 C225 1.356 . S
C224 H261 0.930 . S
C225 C222 1.348 . S
C225 C224 1.356 . S
H226 C220 0.930 . S
H227 C221 0.930 . S
C228 N229 1.314 . S
C228 C230 1.353 . S
C228 H234 0.930 . S
N229 Li179 1.990 . S
N229 C228 1.314 . S
N229 C232 1.279 . S
C230 C228 1.353 . S
C230 C233 1.348 . S
C230 H262 0.929 . S
C231 C232 1.358 . S
C231 C233 1.356 . S
C231 H263 0.930 . S
C232 N229 1.279 . S
C232 C231 1.358 . S
C232 H235 0.930 . S
C233 C230 1.348 . S
C233 C231 1.356 . S
H234 C228 0.930 . S
H235 C232 0.930 . S
O236 Li176 1.956 . S
O236 Li177 1.970 . S
O236 Li178 1.961 . S
O236 C180 1.325 . S
O237 Li176 1.970 . S
O237 Li177 1.956 . S
O237 Li179 1.961 . S
O237 C186 1.325 . S
O238 Li176 1.961 . S
O238 Li178 1.956 . S
O238 Li179 1.970 . S
O238 C208 1.325 . S
O239 Li177 1.961 . S
O239 Li178 1.970 . S
O239 Li179 1.956 . S
O239 C214 1.325 . S
H240 C182 0.929 . S
H241 C183 0.930 . S
H242 C184 0.930 . S
H243 C185 0.930 . S
H244 C187 0.930 . S
H245 C189 0.929 . S
H246 C190 0.930 . S
H247 C191 0.930 . S
H248 C194 0.930 . S
H249 C197 0.929 . S
H250 C202 0.929 . S
H251 C203 0.930 . S
H252 C210 0.929 . S
H253 C211 0.930 . S
H254 C212 0.930 . S
H255 C213 0.930 . S
H256 C215 0.929 . S
H257 C216 0.930 . S
H258 C217 0.930 . S
H259 C218 0.930 . S
H260 C222 0.929 . S
H261 C224 0.930 . S
H262 C230 0.929 . S
H263 C231 0.930 . S
Li264 N281 1.990 . S
Li264 O324 1.956 . S
Li264 O325 1.970 . S
Li264 O326 1.961 . S
Li265 N289 1.990 . S
Li265 O324 1.970 . S
Li265 O325 1.956 . S
Li265 O327 1.961 . S
Li266 N311 1.990 . S
Li266 O324 1.961 . S
Li266 O326 1.956 . S
Li266 O327 1.970 . S
Li267 N317 1.990 . S
Li267 O325 1.961 . S
Li267 O326 1.970 . S
Li267 O327 1.956 . S
C268 C270 1.348 . S
C268 C271 1.356 . S
C268 O324 1.325 . S
N269 C272 1.314 . S
N269 C273 1.279 . S
C270 C268 1.348 . S
C270 C272 1.353 . S
C270 H328 0.929 . S
C271 C268 1.356 . S
C271 C273 1.358 . S
C271 H329 0.930 . S
C272 N269 1.314 . S
C272 C270 1.353 . S
C272 H330 0.930 . S
C273 N269 1.279 . S
C273 C271 1.358 . S
C273 H331 0.930 . S
C274 C277 1.348 . S
C274 C278 1.356 . S
C274 O325 1.325 . S
C275 N276 1.279 . S
C275 C278 1.358 . S
C275 H332 0.930 . S
N276 C275 1.279 . S
N276 C279 1.314 . S
C277 C274 1.348 . S
C277 C279 1.353 . S
C277 H333 0.929 . S
C278 C274 1.356 . S
C278 C275 1.358 . S
C278 H334 0.930 . S
C279 N276 1.314 . S
C279 C277 1.353 . S
C279 H335 0.930 . S
C280 N281 1.314 . S
C280 C285 1.353 . S
C280 H286 0.930 . S
N281 Li264 1.990 . S
N281 C280 1.314 . S
N281 C283 1.279 . S
C282 C283 1.358 . S
C282 C284 1.356 . S
C282 H336 0.930 . S
C283 N281 1.279 . S
C283 C282 1.358 . S
C283 H287 0.930 . S
C284 C282 1.356 . S
C284 C285 1.348 . S
C285 C280 1.353 . S
C285 C284 1.348 . S
C285 H337 0.929 . S
H286 C280 0.930 . S
H287 C283 0.930 . S
C288 N289 1.314 . S
C288 C290 1.353 . S
C288 H294 0.930 . S
N289 Li265 1.990 . S
N289 C288 1.314 . S
N289 C292 1.279 . S
C290 C288 1.353 . S
C290 C293 1.348 . S
C290 H338 0.929 . S
C291 C292 1.358 . S
C291 C293 1.356 . S
C291 H339 0.930 . S
C292 N289 1.279 . S
C292 C291 1.358 . S
C292 H295 0.930 . S
C293 C290 1.348 . S
C293 C291 1.356 . S
H294 C288 0.930 . S
H295 C292 0.930 . S
C296 C298 1.348 . S
C296 C299 1.356 . S
C296 O326 1.325 . S
N297 C300 1.314 . S
N297 C301 1.279 . S
C298 C296 1.348 . S
C298 C300 1.353 . S
C298 H340 0.929 . S
C299 C296 1.356 . S
C299 C301 1.358 . S
C299 H341 0.930 . S
C300 N297 1.314 . S
C300 C298 1.353 . S
C300 H342 0.930 . S
C301 N297 1.279 . S
C301 C299 1.358 . S
C301 H343 0.930 . S
C302 C303 1.348 . S
C302 C304 1.356 . S
C302 O327 1.325 . S
C303 C302 1.348 . S
C303 C305 1.353 . S
C303 H344 0.929 . S
C304 C302 1.356 . S
C304 C306 1.358 . S
C304 H345 0.930 . S
C305 C303 1.353 . S
C305 N307 1.314 . S
C305 H346 0.930 . S
C306 C304 1.358 . S
C306 N307 1.279 . S
C306 H347 0.930 . S
N307 C305 1.314 . S
N307 C306 1.279 . S
C308 C310 1.353 . S
C308 N311 1.314 . S
C308 H314 0.930 . S
C309 N311 1.279 . S
C309 C312 1.358 . S
C309 H315 0.930 . S
C310 C308 1.353 . S
C310 C313 1.348 . S
C310 H348 0.929 . S
N311 Li266 1.990 . S
N311 C308 1.314 . S
N311 C309 1.279 . S
C312 C309 1.358 . S
C312 C313 1.356 . S
C312 H349 0.930 . S
C313 C310 1.348 . S
C313 C312 1.356 . S
H314 C308 0.930 . S
H315 C309 0.930 . S
C316 N317 1.314 . S
C316 C318 1.353 . S
C316 H322 0.930 . S
N317 Li267 1.990 . S
N317 C316 1.314 . S
N317 C320 1.279 . S
C318 C316 1.353 . S
C318 C321 1.348 . S
C318 H350 0.929 . S
C319 C320 1.358 . S
C319 C321 1.356 . S
C319 H351 0.930 . S
C320 N317 1.279 . S
C320 C319 1.358 . S
C320 H323 0.930 . S
C321 C318 1.348 . S
C321 C319 1.356 . S
H322 C316 0.930 . S
H323 C320 0.930 . S
O324 Li264 1.956 . S
O324 Li265 1.970 . S
O324 Li266 1.961 . S
O324 C268 1.325 . S
O325 Li264 1.970 . S
O325 Li265 1.956 . S
O325 Li267 1.961 . S
O325 C274 1.325 . S
O326 Li264 1.961 . S
O326 Li266 1.956 . S
O326 Li267 1.970 . S
O326 C296 1.325 . S
O327 Li265 1.961 . S
O327 Li266 1.970 . S
O327 Li267 1.956 . S
O327 C302 1.325 . S
H328 C270 0.929 . S
H329 C271 0.930 . S
H330 C272 0.930 . S
H331 C273 0.930 . S
H332 C275 0.930 . S
H333 C277 0.929 . S
H334 C278 0.930 . S
H335 C279 0.930 . S
H336 C282 0.930 . S
H337 C285 0.929 . S
H338 C290 0.929 . S
H339 C291 0.930 . S
H340 C298 0.929 . S
H341 C299 0.930 . S
H342 C300 0.930 . S
H343 C301 0.930 . S
H344 C303 0.929 . S
H345 C304 0.930 . S
H346 C305 0.930 . S
H347 C306 0.930 . S
H348 C310 0.929 . S
H349 C312 0.930 . S
H350 C318 0.929 . S
H351 C319 0.930 . S
Li352 N369 1.990 . S
Li352 O412 1.956 . S
Li352 O413 1.970 . S
Li352 O414 1.961 . S
Li353 N377 1.990 . S
Li353 O412 1.970 . S
Li353 O413 1.956 . S
Li353 O415 1.961 . S
Li354 N399 1.990 . S
Li354 O412 1.961 . S
Li354 O414 1.956 . S
Li354 O415 1.970 . S
Li355 N405 1.990 . S
Li355 O413 1.961 . S
Li355 O414 1.970 . S
Li355 O415 1.956 . S
C356 C358 1.348 . S
C356 C359 1.356 . S
C356 O412 1.325 . S
N357 C360 1.314 . S
N357 C361 1.279 . S
C358 C356 1.348 . S
C358 C360 1.353 . S
C358 H416 0.929 . S
C359 C356 1.356 . S
C359 C361 1.358 . S
C359 H417 0.930 . S
C360 N357 1.314 . S
C360 C358 1.353 . S
C360 H418 0.930 . S
C361 N357 1.279 . S
C361 C359 1.358 . S
C361 H419 0.930 . S
C362 C365 1.348 . S
C362 C366 1.356 . S
C362 O413 1.325 . S
C363 N364 1.279 . S
C363 C366 1.358 . S
C363 H420 0.930 . S
N364 C363 1.279 . S
N364 C367 1.314 . S
C365 C362 1.348 . S
C365 C367 1.353 . S
C365 H421 0.929 . S
C366 C362 1.356 . S
C366 C363 1.358 . S
C366 H422 0.930 . S
C367 N364 1.314 . S
C367 C365 1.353 . S
C367 H423 0.930 . S
C368 N369 1.314 . S
C368 C373 1.353 . S
C368 H374 0.930 . S
N369 Li352 1.990 . S
N369 C368 1.314 . S
N369 C371 1.279 . S
C370 C371 1.358 . S
C370 C372 1.356 . S
C370 H424 0.930 . S
C371 N369 1.279 . S
C371 C370 1.358 . S
C371 H375 0.930 . S
C372 C370 1.356 . S
C372 C373 1.348 . S
C373 C368 1.353 . S
C373 C372 1.348 . S
C373 H425 0.929 . S
H374 C368 0.930 . S
H375 C371 0.930 . S
C376 N377 1.314 . S
C376 C378 1.353 . S
C376 H382 0.930 . S
N377 Li353 1.990 . S
N377 C376 1.314 . S
N377 C380 1.279 . S
C378 C376 1.353 . S
C378 C381 1.348 . S
C378 H426 0.929 . S
C379 C380 1.358 . S
C379 C381 1.356 . S
C379 H427 0.930 . S
C380 N377 1.279 . S
C380 C379 1.358 . S
C380 H383 0.930 . S
C381 C378 1.348 . S
C381 C379 1.356 . S
H382 C376 0.930 . S
H383 C380 0.930 . S
C384 C386 1.348 . S
C384 C387 1.356 . S
C384 O414 1.325 . S
N385 C388 1.314 . S
N385 C389 1.279 . S
C386 C384 1.348 . S
C386 C388 1.353 . S
C386 H428 0.929 . S
C387 C384 1.356 . S
C387 C389 1.358 . S
C387 H429 0.930 . S
C388 N385 1.314 . S
C388 C386 1.353 . S
C388 H430 0.930 . S
C389 N385 1.279 . S
C389 C387 1.358 . S
C389 H431 0.930 . S
C390 C391 1.348 . S
C390 C392 1.356 . S
C390 O415 1.325 . S
C391 C390 1.348 . S
C391 C393 1.353 . S
C391 H432 0.929 . S
C392 C390 1.356 . S
C392 C394 1.358 . S
C392 H433 0.930 . S
C393 C391 1.353 . S
C393 N395 1.314 . S
C393 H434 0.930 . S
C394 C392 1.358 . S
C394 N395 1.279 . S
C394 H435 0.930 . S
N395 C393 1.314 . S
N395 C394 1.279 . S
C396 C398 1.353 . S
C396 N399 1.314 . S
C396 H402 0.930 . S
C397 N399 1.279 . S
C397 C400 1.358 . S
C397 H403 0.930 . S
C398 C396 1.353 . S
C398 C401 1.348 . S
C398 H436 0.929 . S
N399 Li354 1.990 . S
N399 C396 1.314 . S
N399 C397 1.279 . S
C400 C397 1.358 . S
C400 C401 1.356 . S
C400 H437 0.930 . S
C401 C398 1.348 . S
C401 C400 1.356 . S
H402 C396 0.930 . S
H403 C397 0.930 . S
C404 N405 1.314 . S
C404 C406 1.353 . S
C404 H410 0.930 . S
N405 Li355 1.990 . S
N405 C404 1.314 . S
N405 C408 1.279 . S
C406 C404 1.353 . S
C406 C409 1.348 . S
C406 H438 0.929 . S
C407 C408 1.358 . S
C407 C409 1.356 . S
C407 H439 0.930 . S
C408 N405 1.279 . S
C408 C407 1.358 . S
C408 H411 0.930 . S
C409 C406 1.348 . S
C409 C407 1.356 . S
H410 C404 0.930 . S
H411 C408 0.930 . S
O412 Li352 1.956 . S
O412 Li353 1.970 . S
O412 Li354 1.961 . S
O412 C356 1.325 . S
O413 Li352 1.970 . S
O413 Li353 1.956 . S
O413 Li355 1.961 . S
O413 C362 1.325 . S
O414 Li352 1.961 . S
O414 Li354 1.956 . S
O414 Li355 1.970 . S
O414 C384 1.325 . S
O415 Li353 1.961 . S
O415 Li354 1.970 . S
O415 Li355 1.956 . S
O415 C390 1.325 . S
H416 C358 0.929 . S
H417 C359 0.930 . S
H418 C360 0.930 . S
H419 C361 0.930 . S
H420 C363 0.930 . S
H421 C365 0.929 . S
H422 C366 0.930 . S
H423 C367 0.930 . S
H424 C370 0.930 . S
H425 C373 0.929 . S
H426 C378 0.929 . S
H427 C379 0.930 . S
H428 C386 0.929 . S
H429 C387 0.930 . S
H430 C388 0.930 . S
H431 C389 0.930 . S
H432 C391 0.929 . S
H433 C392 0.930 . S
H434 C393 0.930 . S
H435 C394 0.930 . S
H436 C398 0.929 . S
H437 C400 0.930 . S
H438 C406 0.929 . S
H439 C407 0.930 . S
Li440 N457 1.990 . S
Li440 O500 1.956 . S
Li440 O501 1.970 . S
Li440 O502 1.961 . S
Li441 N465 1.990 . S
Li441 O500 1.970 . S
Li441 O501 1.956 . S
Li441 O503 1.961 . S
Li442 N487 1.990 . S
Li442 O500 1.961 . S
Li442 O502 1.956 . S
Li442 O503 1.970 . S
Li443 N493 1.990 . S
Li443 O501 1.961 . S
Li443 O502 1.970 . S
Li443 O503 1.956 . S
C444 C446 1.348 . S
C444 C447 1.356 . S
C444 O500 1.325 . S
N445 C448 1.314 . S
N445 C449 1.279 . S
C446 C444 1.348 . S
C446 C448 1.353 . S
C446 H504 0.929 . S
C447 C444 1.356 . S
C447 C449 1.358 . S
C447 H505 0.930 . S
C448 N445 1.314 . S
C448 C446 1.353 . S
C448 H506 0.930 . S
C449 N445 1.279 . S
C449 C447 1.358 . S
C449 H507 0.930 . S
C450 C453 1.348 . S
C450 C454 1.356 . S
C450 O501 1.325 . S
C451 N452 1.279 . S
C451 C454 1.358 . S
C451 H508 0.930 . S
N452 C451 1.279 . S
N452 C455 1.314 . S
C453 C450 1.348 . S
C453 C455 1.353 . S
C453 H509 0.929 . S
C454 C450 1.356 . S
C454 C451 1.358 . S
C454 H510 0.930 . S
C455 N452 1.314 . S
C455 C453 1.353 . S
C455 H511 0.930 . S
C456 N457 1.314 . S
C456 C461 1.353 . S
C456 H462 0.930 . S
N457 Li440 1.990 . S
N457 C456 1.314 . S
N457 C459 1.279 . S
C458 C459 1.358 . S
C458 C460 1.356 . S
C458 H512 0.930 . S
C459 N457 1.279 . S
C459 C458 1.358 . S
C459 H463 0.930 . S
C460 C458 1.356 . S
C460 C461 1.348 . S
C461 C456 1.353 . S
C461 C460 1.348 . S
C461 H513 0.929 . S
H462 C456 0.930 . S
H463 C459 0.930 . S
C464 N465 1.314 . S
C464 C466 1.353 . S
C464 H470 0.930 . S
N465 Li441 1.990 . S
N465 C464 1.314 . S
N465 C468 1.279 . S
C466 C464 1.353 . S
C466 C469 1.348 . S
C466 H514 0.929 . S
C467 C468 1.358 . S
C467 C469 1.356 . S
C467 H515 0.930 . S
C468 N465 1.279 . S
C468 C467 1.358 . S
C468 H471 0.930 . S
C469 C466 1.348 . S
C469 C467 1.356 . S
H470 C464 0.930 . S
H471 C468 0.930 . S
C472 C474 1.348 . S
C472 C475 1.356 . S
C472 O502 1.325 . S
N473 C476 1.314 . S
N473 C477 1.279 . S
C474 C472 1.348 . S
C474 C476 1.353 . S
C474 H516 0.929 . S
C475 C472 1.356 . S
C475 C477 1.358 . S
C475 H517 0.930 . S
C476 N473 1.314 . S
C476 C474 1.353 . S
C476 H518 0.930 . S
C477 N473 1.279 . S
C477 C475 1.358 . S
C477 H519 0.930 . S
C478 C479 1.348 . S
C478 C480 1.356 . S
C478 O503 1.325 . S
C479 C478 1.348 . S
C479 C481 1.353 . S
C479 H520 0.929 . S
C480 C478 1.356 . S
C480 C482 1.358 . S
C480 H521 0.930 . S
C481 C479 1.353 . S
C481 N483 1.314 . S
C481 H522 0.930 . S
C482 C480 1.358 . S
C482 N483 1.279 . S
C482 H523 0.930 . S
N483 C481 1.314 . S
N483 C482 1.279 . S
C484 C486 1.353 . S
C484 N487 1.314 . S
C484 H490 0.930 . S
C485 N487 1.279 . S
C485 C488 1.358 . S
C485 H491 0.930 . S
C486 C484 1.353 . S
C486 C489 1.348 . S
C486 H524 0.929 . S
N487 Li442 1.990 . S
N487 C484 1.314 . S
N487 C485 1.279 . S
C488 C485 1.358 . S
C488 C489 1.356 . S
C488 H525 0.930 . S
C489 C486 1.348 . S
C489 C488 1.356 . S
H490 C484 0.930 . S
H491 C485 0.930 . S
C492 N493 1.314 . S
C492 C494 1.353 . S
C492 H498 0.930 . S
N493 Li443 1.990 . S
N493 C492 1.314 . S
N493 C496 1.279 . S
C494 C492 1.353 . S
C494 C497 1.348 . S
C494 H526 0.929 . S
C495 C496 1.358 . S
C495 C497 1.356 . S
C495 H527 0.930 . S
C496 N493 1.279 . S
C496 C495 1.358 . S
C496 H499 0.930 . S
C497 C494 1.348 . S
C497 C495 1.356 . S
H498 C492 0.930 . S
H499 C496 0.930 . S
O500 Li440 1.956 . S
O500 Li441 1.970 . S
O500 Li442 1.961 . S
O500 C444 1.325 . S
O501 Li440 1.970 . S
O501 Li441 1.956 . S
O501 Li443 1.961 . S
O501 C450 1.325 . S
O502 Li440 1.961 . S
O502 Li442 1.956 . S
O502 Li443 1.970 . S
O502 C472 1.325 . S
O503 Li441 1.961 . S
O503 Li442 1.970 . S
O503 Li443 1.956 . S
O503 C478 1.325 . S
H504 C446 0.929 . S
H505 C447 0.930 . S
H506 C448 0.930 . S
H507 C449 0.930 . S
H508 C451 0.930 . S
H509 C453 0.929 . S
H510 C454 0.930 . S
H511 C455 0.930 . S
H512 C458 0.930 . S
H513 C461 0.929 . S
H514 C466 0.929 . S
H515 C467 0.930 . S
H516 C474 0.929 . S
H517 C475 0.930 . S
H518 C476 0.930 . S
H519 C477 0.930 . S
H520 C479 0.929 . S
H521 C480 0.930 . S
H522 C481 0.930 . S
H523 C482 0.930 . S
H524 C486 0.929 . S
H525 C488 0.930 . S
H526 C494 0.929 . S
H527 C495 0.930 . S
Li528 N545 1.990 . S
Li528 O588 1.956 . S
Li528 O589 1.970 . S
Li528 O590 1.961 . S
Li529 N553 1.990 . S
Li529 O588 1.970 . S
Li529 O589 1.956 . S
Li529 O591 1.961 . S
Li530 N575 1.990 . S
Li530 O588 1.961 . S
Li530 O590 1.956 . S
Li530 O591 1.970 . S
Li531 N581 1.990 . S
Li531 O589 1.961 . S
Li531 O590 1.970 . S
Li531 O591 1.956 . S
C532 C534 1.348 . S
C532 C535 1.356 . S
C532 O588 1.325 . S
N533 C536 1.314 . S
N533 C537 1.279 . S
C534 C532 1.348 . S
C534 C536 1.353 1_556 S
C534 H592 0.929 . S
C535 C532 1.356 . S
C535 C537 1.358 1_556 S
C535 H593 0.930 . S
C536 N533 1.314 . S
C536 C534 1.353 1_554 S
C536 H594 0.930 . S
C537 N533 1.279 . S
C537 C535 1.358 1_554 S
C537 H595 0.930 . S
C538 C541 1.348 . S
C538 C542 1.356 . S
C538 O589 1.325 . S
C539 N540 1.279 . S
C539 C542 1.358 . S
C539 H596 0.930 . S
N540 C539 1.279 . S
N540 C543 1.314 . S
C541 C538 1.348 . S
C541 C543 1.353 . S
C541 H597 0.929 . S
C542 C538 1.356 . S
C542 C539 1.358 . S
C542 H598 0.930 . S
C543 N540 1.314 . S
C543 C541 1.353 . S
C543 H599 0.930 . S
C544 N545 1.314 . S
C544 C549 1.353 . S
C544 H550 0.930 . S
N545 Li528 1.990 . S
N545 C544 1.314 . S
N545 C547 1.279 . S
C546 C547 1.358 . S
C546 C548 1.356 . S
C546 H600 0.930 . S
C547 N545 1.279 . S
C547 C546 1.358 . S
C547 H551 0.930 . S
C548 C546 1.356 . S
C548 C549 1.348 . S
C549 C544 1.353 . S
C549 C548 1.348 . S
C549 H601 0.929 . S
H550 C544 0.930 . S
H551 C547 0.930 . S
C552 N553 1.314 . S
C552 C554 1.353 . S
C552 H558 0.930 . S
N553 Li529 1.990 . S
N553 C552 1.314 . S
N553 C556 1.279 . S
C554 C552 1.353 . S
C554 C557 1.348 . S
C554 H602 0.929 . S
C555 C556 1.358 . S
C555 C557 1.356 . S
C555 H603 0.930 . S
C556 N553 1.279 . S
C556 C555 1.358 . S
C556 H559 0.930 . S
C557 C554 1.348 . S
C557 C555 1.356 . S
H558 C552 0.930 . S
H559 C556 0.930 . S
C560 C562 1.348 . S
C560 C563 1.356 . S
C560 O590 1.325 . S
N561 C564 1.314 . S
N561 C565 1.279 . S
C562 C560 1.348 . S
C562 C564 1.353 . S
C562 H604 0.929 . S
C563 C560 1.356 . S
C563 C565 1.358 . S
C563 H605 0.930 . S
C564 N561 1.314 . S
C564 C562 1.353 . S
C564 H606 0.930 . S
C565 N561 1.279 . S
C565 C563 1.358 . S
C565 H607 0.930 . S
C566 C567 1.348 . S
C566 C568 1.356 . S
C566 O591 1.325 . S
C567 C566 1.348 . S
C567 C569 1.353 . S
C567 H608 0.929 . S
C568 C566 1.356 . S
C568 C570 1.358 . S
C568 H609 0.930 . S
C569 C567 1.353 . S
C569 N571 1.314 . S
C569 H610 0.930 . S
C570 C568 1.358 . S
C570 N571 1.279 . S
C570 H611 0.930 . S
N571 C569 1.314 . S
N571 C570 1.279 . S
C572 C574 1.353 . S
C572 N575 1.314 . S
C572 H578 0.930 . S
C573 N575 1.279 . S
C573 C576 1.358 . S
C573 H579 0.930 . S
C574 C572 1.353 . S
C574 C577 1.348 . S
C574 H612 0.918 1_556 S
N575 Li530 1.990 . S
N575 C572 1.314 . S
N575 C573 1.279 . S
C576 C573 1.358 . S
C576 C577 1.356 . S
C576 H613 0.930 . S
C577 C574 1.348 . S
C577 C576 1.356 . S
H578 C572 0.930 . S
H579 C573 0.930 . S
C580 N581 1.314 . S
C580 C582 1.353 . S
C580 H586 0.930 . S
N581 Li531 1.990 . S
N581 C580 1.314 . S
N581 C584 1.279 . S
C582 C580 1.353 . S
C582 C585 1.348 . S
C582 H614 0.929 . S
C583 C584 1.358 . S
C583 C585 1.356 . S
C583 H615 0.930 . S
C584 N581 1.279 . S
C584 C583 1.358 . S
C584 H587 0.930 . S
C585 C582 1.348 . S
C585 C583 1.356 . S
H586 C580 0.930 . S
H587 C584 0.930 . S
O588 Li528 1.956 . S
O588 Li529 1.970 . S
O588 Li530 1.961 . S
O588 C532 1.325 . S
O589 Li528 1.970 . S
O589 Li529 1.956 . S
O589 Li531 1.961 . S
O589 C538 1.325 . S
O590 Li528 1.961 . S
O590 Li530 1.956 . S
O590 Li531 1.970 . S
O590 C560 1.325 . S
O591 Li529 1.961 . S
O591 Li530 1.970 . S
O591 Li531 1.956 . S
O591 C566 1.325 . S
H592 C534 0.929 . S
H593 C535 0.930 . S
H594 C536 0.930 . S
H595 C537 0.930 . S
H596 C539 0.930 . S
H597 C541 0.929 . S
H598 C542 0.930 . S
H599 C543 0.930 . S
H600 C546 0.930 . S
H601 C549 0.929 . S
H602 C554 0.929 . S
H603 C555 0.930 . S
H604 C562 0.929 . S
H605 C563 0.930 . S
H606 C564 0.930 . S
H607 C565 0.930 . S
H608 C567 0.929 . S
H609 C568 0.930 . S
H610 C569 0.930 . S
H611 C570 0.930 . S
H612 C574 0.918 1_554 S
H613 C576 0.930 . S
H614 C582 0.929 . S
H615 C583 0.930 . S
Li616 N633 1.990 . S
Li616 O676 1.956 . S
Li616 O677 1.970 . S
Li616 O678 1.961 . S
Li617 N641 1.990 . S
Li617 O676 1.970 . S
Li617 O677 1.956 . S
Li617 O679 1.961 . S
Li618 N663 1.990 . S
Li618 O676 1.961 . S
Li618 O678 1.956 . S
Li618 O679 1.970 . S
Li619 N669 1.990 . S
Li619 O677 1.961 . S
Li619 O678 1.970 . S
Li619 O679 1.956 . S
C620 C622 1.348 . S
C620 C623 1.356 . S
C620 O676 1.325 . S
N621 C624 1.314 . S
N621 C625 1.279 . S
C622 C620 1.348 . S
C622 C624 1.353 . S
C622 H680 0.929 . S
C623 C620 1.356 . S
C623 C625 1.358 . S
C623 H681 0.930 . S
C624 N621 1.314 . S
C624 C622 1.353 . S
C624 H682 0.930 . S
C625 N621 1.279 . S
C625 C623 1.358 . S
C625 H683 0.930 . S
C626 C629 1.348 . S
C626 C630 1.356 . S
C626 O677 1.325 . S
C627 N628 1.279 . S
C627 C630 1.358 . S
C627 H684 0.930 . S
N628 C627 1.279 . S
N628 C631 1.314 . S
C629 C626 1.348 . S
C629 C631 1.353 . S
C629 H685 0.929 . S
C630 C626 1.356 . S
C630 C627 1.358 . S
C630 H686 0.930 . S
C631 N628 1.314 . S
C631 C629 1.353 . S
C631 H687 0.930 . S
C632 N633 1.314 . S
C632 C637 1.353 . S
C632 H638 0.930 . S
N633 Li616 1.990 . S
N633 C632 1.314 . S
N633 C635 1.279 . S
C634 C635 1.358 . S
C634 C636 1.356 . S
C634 H688 0.930 . S
C635 N633 1.279 . S
C635 C634 1.358 . S
C635 H639 0.930 . S
C636 C634 1.356 . S
C636 C637 1.348 . S
C637 C632 1.353 . S
C637 C636 1.348 . S
C637 H689 0.929 . S
H638 C632 0.930 . S
H639 C635 0.930 . S
C640 N641 1.314 . S
C640 C642 1.353 . S
C640 H646 0.930 . S
N641 Li617 1.990 . S
N641 C640 1.314 . S
N641 C644 1.279 . S
C642 C640 1.353 . S
C642 C645 1.348 . S
C642 H690 0.929 . S
C643 C644 1.358 . S
C643 C645 1.356 . S
C643 H691 0.930 . S
C644 N641 1.279 . S
C644 C643 1.358 . S
C644 H647 0.930 . S
C645 C642 1.348 . S
C645 C643 1.356 . S
H646 C640 0.930 . S
H647 C644 0.930 . S
C648 C650 1.348 . S
C648 C651 1.356 . S
C648 O678 1.325 . S
N649 C652 1.314 . S
N649 C653 1.279 . S
C650 C648 1.348 . S
C650 C652 1.353 . S
C650 H692 0.929 . S
C651 C648 1.356 . S
C651 C653 1.358 . S
C651 H693 0.930 . S
C652 N649 1.314 . S
C652 C650 1.353 . S
C652 H694 0.930 . S
C653 N649 1.279 . S
C653 C651 1.358 . S
C653 H695 0.930 . S
C654 C655 1.348 . S
C654 C656 1.356 . S
C654 O679 1.325 . S
C655 C654 1.348 . S
C655 C657 1.353 . S
C655 H696 0.929 . S
C656 C654 1.356 . S
C656 C658 1.358 . S
C656 H697 0.930 . S
C657 C655 1.353 . S
C657 N659 1.314 . S
C657 H698 0.930 . S
C658 C656 1.358 . S
C658 N659 1.279 . S
C658 H699 0.930 . S
N659 C657 1.314 . S
N659 C658 1.279 . S
C660 C662 1.353 . S
C660 N663 1.314 . S
C660 H666 0.930 . S
C661 N663 1.279 . S
C661 C664 1.358 . S
C661 H667 0.930 . S
C662 C660 1.353 . S
C662 C665 1.348 . S
C662 H700 0.929 . S
N663 Li618 1.990 . S
N663 C660 1.314 . S
N663 C661 1.279 . S
C664 C661 1.358 . S
C664 C665 1.356 . S
C664 H701 0.930 . S
C665 C662 1.348 . S
C665 C664 1.356 . S
H666 C660 0.930 . S
H667 C661 0.930 . S
C668 N669 1.314 . S
C668 C670 1.353 . S
C668 H674 0.930 . S
N669 Li619 1.990 . S
N669 C668 1.314 . S
N669 C672 1.279 . S
C670 C668 1.353 . S
C670 C673 1.348 . S
C670 H702 0.929 . S
C671 C672 1.358 . S
C671 C673 1.356 . S
C671 H703 0.930 . S
C672 N669 1.279 . S
C672 C671 1.358 . S
C672 H675 0.930 . S
C673 C670 1.348 . S
C673 C671 1.356 . S
H674 C668 0.930 . S
H675 C672 0.930 . S
O676 Li616 1.956 . S
O676 Li617 1.970 . S
O676 Li618 1.961 . S
O676 C620 1.325 . S
O677 Li616 1.970 . S
O677 Li617 1.956 . S
O677 Li619 1.961 . S
O677 C626 1.325 . S
O678 Li616 1.961 . S
O678 Li618 1.956 . S
O678 Li619 1.970 . S
O678 C648 1.325 . S
O679 Li617 1.961 . S
O679 Li618 1.970 . S
O679 Li619 1.956 . S
O679 C654 1.325 . S
H680 C622 0.929 . S
H681 C623 0.930 . S
H682 C624 0.930 . S
H683 C625 0.930 . S
H684 C627 0.930 . S
H685 C629 0.929 . S
H686 C630 0.930 . S
H687 C631 0.930 . S
H688 C634 0.930 . S
H689 C637 0.929 . S
H690 C642 0.929 . S
H691 C643 0.930 . S
H692 C650 0.929 . S
H693 C651 0.930 . S
H694 C652 0.930 . S
H695 C653 0.930 . S
H696 C655 0.929 . S
H697 C656 0.930 . S
H698 C657 0.930 . S
H699 C658 0.930 . S
H700 C662 0.929 . S
H701 C664 0.930 . S
H702 C670 0.929 . S
H703 C671 0.930 . S
Li704 N721 1.990 . S
Li704 O764 1.956 . S
Li704 O765 1.970 . S
Li704 O766 1.961 . S
Li705 N729 1.990 . S
Li705 O764 1.970 . S
Li705 O765 1.956 . S
Li705 O767 1.961 . S
Li706 N751 1.990 . S
Li706 O764 1.961 . S
Li706 O766 1.956 . S
Li706 O767 1.970 . S
Li707 N757 1.990 . S
Li707 O765 1.961 . S
Li707 O766 1.970 . S
Li707 O767 1.956 . S
C708 C710 1.348 . S
C708 C711 1.356 . S
C708 O764 1.325 . S
N709 C712 1.314 . S
N709 C713 1.279 . S
C710 C708 1.348 . S
C710 C712 1.353 1_556 S
C710 H768 0.929 . S
C711 C708 1.356 . S
C711 C713 1.358 1_556 S
C711 H769 0.930 . S
C712 N709 1.314 . S
C712 C710 1.353 1_554 S
C712 H770 0.930 . S
C713 N709 1.279 . S
C713 C711 1.358 1_554 S
C713 H771 0.930 . S
C714 C717 1.348 . S
C714 C718 1.356 . S
C714 O765 1.325 . S
C715 N716 1.279 . S
C715 C718 1.358 . S
C715 H772 0.930 . S
N716 C715 1.279 . S
N716 C719 1.314 . S
C717 C714 1.348 . S
C717 C719 1.353 . S
C717 H773 0.929 . S
C718 C714 1.356 . S
C718 C715 1.358 . S
C718 H774 0.930 . S
C719 N716 1.314 . S
C719 C717 1.353 . S
C719 H775 0.930 . S
C720 N721 1.314 . S
C720 C725 1.353 . S
C720 H726 0.930 . S
N721 Li704 1.990 . S
N721 C720 1.314 . S
N721 C723 1.279 . S
C722 C723 1.358 . S
C722 C724 1.356 . S
C722 H776 0.930 1_556 S
C723 N721 1.279 . S
C723 C722 1.358 . S
C723 H727 0.930 . S
C724 C722 1.356 . S
C724 C725 1.348 . S
C725 C720 1.353 . S
C725 C724 1.348 . S
C725 H777 0.929 . S
H726 C720 0.930 . S
H727 C723 0.930 . S
C728 N729 1.314 . S
C728 C730 1.353 . S
C728 H734 0.930 . S
N729 Li705 1.990 . S
N729 C728 1.314 . S
N729 C732 1.279 . S
C730 C728 1.353 . S
C730 C733 1.348 . S
C730 H778 0.929 . S
C731 C732 1.358 . S
C731 C733 1.356 . S
C731 H779 0.930 . S
C732 N729 1.279 . S
C732 C731 1.358 . S
C732 H735 0.930 . S
C733 C730 1.348 . S
C733 C731 1.356 . S
H734 C728 0.930 . S
H735 C732 0.930 . S
C736 C738 1.348 . S
C736 C739 1.356 . S
C736 O766 1.325 . S
N737 C740 1.314 . S
N737 C741 1.279 . S
C738 C736 1.348 . S
C738 C740 1.353 . S
C738 H780 0.929 . S
C739 C736 1.356 . S
C739 C741 1.358 . S
C739 H781 0.930 . S
C740 N737 1.314 . S
C740 C738 1.353 . S
C740 H782 0.930 . S
C741 N737 1.279 . S
C741 C739 1.358 . S
C741 H783 0.930 . S
C742 C743 1.348 . S
C742 C744 1.356 . S
C742 O767 1.325 . S
C743 C742 1.348 . S
C743 C745 1.353 . S
C743 H784 0.929 . S
C744 C742 1.356 . S
C744 C746 1.358 . S
C744 H785 0.930 . S
C745 C743 1.353 . S
C745 N747 1.314 . S
C745 H786 0.930 . S
C746 C744 1.358 . S
C746 N747 1.279 . S
C746 H787 0.930 . S
N747 C745 1.314 . S
N747 C746 1.279 . S
C748 C750 1.353 . S
C748 N751 1.314 . S
C748 H754 0.930 . S
C749 N751 1.279 . S
C749 C752 1.358 . S
C749 H755 0.930 . S
C750 C748 1.353 . S
C750 C753 1.348 . S
C750 H788 0.929 . S
N751 Li706 1.990 . S
N751 C748 1.314 . S
N751 C749 1.279 . S
C752 C749 1.358 . S
C752 C753 1.356 . S
C752 H789 0.930 . S
C753 C750 1.348 . S
C753 C752 1.356 . S
H754 C748 0.930 . S
H755 C749 0.930 . S
C756 N757 1.314 . S
C756 C758 1.353 . S
C756 H762 0.930 . S
N757 Li707 1.990 . S
N757 C756 1.314 . S
N757 C760 1.279 . S
C758 C756 1.353 . S
C758 C761 1.348 . S
C758 H790 0.929 . S
C759 C760 1.358 . S
C759 C761 1.356 . S
C759 H791 0.930 . S
C760 N757 1.279 . S
C760 C759 1.358 . S
C760 H763 0.930 . S
C761 C758 1.348 . S
C761 C759 1.356 . S
H762 C756 0.930 . S
H763 C760 0.930 . S
O764 Li704 1.956 . S
O764 Li705 1.970 . S
O764 Li706 1.961 . S
O764 C708 1.325 . S
O765 Li704 1.970 . S
O765 Li705 1.956 . S
O765 Li707 1.961 . S
O765 C714 1.325 . S
O766 Li704 1.961 . S
O766 Li706 1.956 . S
O766 Li707 1.970 . S
O766 C736 1.325 . S
O767 Li705 1.961 . S
O767 Li706 1.970 . S
O767 Li707 1.956 . S
O767 C742 1.325 . S
H768 C710 0.929 . S
H769 C711 0.930 . S
H770 C712 0.930 . S
H771 C713 0.930 . S
H772 C715 0.930 . S
H773 C717 0.929 . S
H774 C718 0.930 . S
H775 C719 0.930 . S
H776 C722 0.930 1_554 S
H777 C725 0.929 . S
H778 C730 0.929 . S
H779 C731 0.930 . S
H780 C738 0.929 . S
H781 C739 0.930 . S
H782 C740 0.930 . S
H783 C741 0.930 . S
H784 C743 0.929 . S
H785 C744 0.930 . S
H786 C745 0.930 . S
H787 C746 0.930 . S
H788 C750 0.929 . S
H789 C752 0.930 . S
H790 C758 0.929 . S
H791 C759 0.930 . S
Li792 N809 1.990 . S
Li792 O852 1.956 . S
Li792 O853 1.970 . S
Li792 O854 1.961 . S
Li793 N817 1.990 . S
Li793 O852 1.970 . S
Li793 O853 1.956 . S
Li793 O855 1.961 . S
Li794 N839 1.990 . S
Li794 O852 1.961 . S
Li794 O854 1.956 . S
Li794 O855 1.970 . S
Li795 N845 1.990 . S
Li795 O853 1.961 . S
Li795 O854 1.970 . S
Li795 O855 1.956 . S
C796 C798 1.348 . S
C796 C799 1.356 . S
C796 O852 1.325 . S
N797 C800 1.314 . S
N797 C801 1.279 . S
C798 C796 1.348 . S
C798 C800 1.353 . S
C798 H856 0.929 . S
C799 C796 1.356 . S
C799 C801 1.358 . S
C799 H857 0.930 . S
C800 N797 1.314 . S
C800 C798 1.353 . S
C800 H858 0.930 . S
C801 N797 1.279 . S
C801 C799 1.358 . S
C801 H859 0.930 . S
C802 C805 1.348 . S
C802 C806 1.356 . S
C802 O853 1.325 . S
C803 N804 1.279 . S
C803 C806 1.358 . S
C803 H860 0.930 . S
N804 C803 1.279 . S
N804 C807 1.314 . S
C805 C802 1.348 . S
C805 C807 1.353 . S
C805 H861 0.929 . S
C806 C802 1.356 . S
C806 C803 1.358 . S
C806 H862 0.930 . S
C807 N804 1.314 . S
C807 C805 1.353 . S
C807 H863 0.930 . S
C808 N809 1.314 . S
C808 C813 1.353 . S
C808 H814 0.930 . S
N809 Li792 1.990 . S
N809 C808 1.314 . S
N809 C811 1.279 . S
C810 C811 1.358 . S
C810 C812 1.356 . S
C810 H864 0.930 . S
C811 N809 1.279 . S
C811 C810 1.358 . S
C811 H815 0.930 . S
C812 C810 1.356 . S
C812 C813 1.348 . S
C813 C808 1.353 . S
C813 C812 1.348 . S
C813 H865 0.929 . S
H814 C808 0.930 . S
H815 C811 0.930 . S
C816 N817 1.314 . S
C816 C818 1.353 . S
C816 H822 0.930 . S
N817 Li793 1.990 . S
N817 C816 1.314 . S
N817 C820 1.279 . S
C818 C816 1.353 . S
C818 C821 1.348 . S
C818 H866 0.929 . S
C819 C820 1.358 . S
C819 C821 1.356 . S
C819 H867 0.930 . S
C820 N817 1.279 . S
C820 C819 1.358 . S
C820 H823 0.930 . S
C821 C818 1.348 . S
C821 C819 1.356 . S
H822 C816 0.930 . S
H823 C820 0.930 . S
C824 C826 1.348 . S
C824 C827 1.356 . S
C824 O854 1.325 . S
N825 C828 1.314 . S
N825 C829 1.279 . S
C826 C824 1.348 . S
C826 C828 1.353 . S
C826 H868 0.929 . S
C827 C824 1.356 . S
C827 C829 1.358 . S
C827 H869 0.930 . S
C828 N825 1.314 . S
C828 C826 1.353 . S
C828 H870 0.930 . S
C829 N825 1.279 . S
C829 C827 1.358 . S
C829 H871 0.930 . S
C830 C831 1.348 . S
C830 C832 1.356 . S
C830 O855 1.325 . S
C831 C830 1.348 . S
C831 C833 1.353 . S
C831 H872 0.929 . S
C832 C830 1.356 . S
C832 C834 1.358 . S
C832 H873 0.930 . S
C833 C831 1.353 . S
C833 N835 1.314 . S
C833 H874 0.930 . S
C834 C832 1.358 . S
C834 N835 1.279 . S
C834 H875 0.930 . S
N835 C833 1.314 . S
N835 C834 1.279 . S
C836 C838 1.353 . S
C836 N839 1.314 . S
C836 H842 0.930 . S
C837 N839 1.279 . S
C837 C840 1.358 . S
C837 H843 0.930 . S
C838 C836 1.353 . S
C838 C841 1.348 . S
C838 H876 0.929 . S
N839 Li794 1.990 . S
N839 C836 1.314 . S
N839 C837 1.279 . S
C840 C837 1.358 . S
C840 C841 1.356 . S
C840 H877 0.930 . S
C841 C838 1.348 . S
C841 C840 1.356 . S
H842 C836 0.930 . S
H843 C837 0.930 . S
C844 N845 1.314 . S
C844 C846 1.353 . S
C844 H850 0.930 . S
N845 Li795 1.990 . S
N845 C844 1.314 . S
N845 C848 1.279 . S
C846 C844 1.353 . S
C846 C849 1.348 . S
C846 H878 0.929 . S
C847 C848 1.358 . S
C847 C849 1.356 . S
C847 H879 0.930 . S
C848 N845 1.279 . S
C848 C847 1.358 . S
C848 H851 0.930 . S
C849 C846 1.348 . S
C849 C847 1.356 . S
H850 C844 0.930 . S
H851 C848 0.930 . S
O852 Li792 1.956 . S
O852 Li793 1.970 . S
O852 Li794 1.961 . S
O852 C796 1.325 . S
O853 Li792 1.970 . S
O853 Li793 1.956 . S
O853 Li795 1.961 . S
O853 C802 1.325 . S
O854 Li792 1.961 . S
O854 Li794 1.956 . S
O854 Li795 1.970 . S
O854 C824 1.325 . S
O855 Li793 1.961 . S
O855 Li794 1.970 . S
O855 Li795 1.956 . S
O855 C830 1.325 . S
H856 C798 0.929 . S
H857 C799 0.930 . S
H858 C800 0.930 . S
H859 C801 0.930 . S
H860 C803 0.930 . S
H861 C805 0.929 . S
H862 C806 0.930 . S
H863 C807 0.930 . S
H864 C810 0.930 . S
H865 C813 0.929 . S
H866 C818 0.929 . S
H867 C819 0.930 . S
H868 C826 0.929 . S
H869 C827 0.930 . S
H870 C828 0.930 . S
H871 C829 0.930 . S
H872 C831 0.929 . S
H873 C832 0.930 . S
H874 C833 0.930 . S
H875 C834 0.930 . S
H876 C838 0.929 . S
H877 C840 0.930 . S
H878 C846 0.929 . S
H879 C847 0.930 . S
Li880 N897 1.990 . S
Li880 O940 1.956 . S
Li880 O941 1.970 . S
Li880 O942 1.961 . S
Li881 N905 1.990 . S
Li881 O940 1.970 . S
Li881 O941 1.956 . S
Li881 O943 1.961 . S
Li882 N927 1.990 . S
Li882 O940 1.961 . S
Li882 O942 1.956 . S
Li882 O943 1.970 . S
Li883 N933 1.990 . S
Li883 O941 1.961 . S
Li883 O942 1.970 . S
Li883 O943 1.956 . S
C884 C886 1.348 . S
C884 C887 1.356 . S
C884 O940 1.325 . S
N885 C888 1.314 . S
N885 C889 1.279 . S
C886 C884 1.348 . S
C886 C888 1.353 . S
C886 H944 0.929 . S
C887 C884 1.356 . S
C887 C889 1.358 . S
C887 H945 0.930 . S
C888 N885 1.314 . S
C888 C886 1.353 . S
C888 H946 0.930 . S
C889 N885 1.279 . S
C889 C887 1.358 . S
C889 H947 0.930 . S
C890 C893 1.348 . S
C890 C894 1.356 . S
C890 O941 1.325 . S
C891 N892 1.279 . S
C891 C894 1.358 . S
C891 H948 0.930 . S
N892 C891 1.279 . S
N892 C895 1.314 . S
C893 C890 1.348 . S
C893 C895 1.353 . S
C893 H949 0.929 . S
C894 C890 1.356 . S
C894 C891 1.358 . S
C894 H950 0.930 . S
C895 N892 1.314 . S
C895 C893 1.353 . S
C895 H951 0.930 . S
C896 N897 1.314 . S
C896 C901 1.353 . S
C896 H902 0.930 . S
N897 Li880 1.990 . S
N897 C896 1.314 . S
N897 C899 1.279 . S
C898 C899 1.358 . S
C898 C900 1.356 . S
C898 H952 0.930 . S
C899 N897 1.279 . S
C899 C898 1.358 . S
C899 H903 0.930 . S
C900 C898 1.356 . S
C900 C901 1.348 . S
C901 C896 1.353 . S
C901 C900 1.348 . S
C901 H953 0.929 . S
H902 C896 0.930 . S
H903 C899 0.930 . S
C904 N905 1.314 . S
C904 C906 1.353 . S
C904 H910 0.930 . S
N905 Li881 1.990 . S
N905 C904 1.314 . S
N905 C908 1.279 . S
C906 C904 1.353 . S
C906 C909 1.348 . S
C906 H954 0.929 . S
C907 C908 1.358 . S
C907 C909 1.356 . S
C907 H955 0.930 . S
C908 N905 1.279 . S
C908 C907 1.358 . S
C908 H911 0.930 . S
C909 C906 1.348 . S
C909 C907 1.356 . S
H910 C904 0.930 . S
H911 C908 0.930 . S
C912 C914 1.348 . S
C912 C915 1.356 . S
C912 O942 1.325 . S
N913 C916 1.314 . S
N913 C917 1.279 . S
C914 C912 1.348 . S
C914 C916 1.353 . S
C914 H956 0.929 . S
C915 C912 1.356 . S
C915 C917 1.358 . S
C915 H957 0.930 . S
C916 N913 1.314 . S
C916 C914 1.353 . S
C916 H958 0.930 . S
C917 N913 1.279 . S
C917 C915 1.358 . S
C917 H959 0.930 . S
C918 C919 1.348 . S
C918 C920 1.356 . S
C918 O943 1.325 . S
C919 C918 1.348 . S
C919 C921 1.353 . S
C919 H960 0.929 . S
C920 C918 1.356 . S
C920 C922 1.358 . S
C920 H961 0.930 . S
C921 C919 1.353 . S
C921 N923 1.314 . S
C921 H962 0.930 . S
C922 C920 1.358 . S
C922 N923 1.279 . S
C922 H963 0.930 . S
N923 C921 1.314 . S
N923 C922 1.279 . S
C924 C926 1.353 . S
C924 N927 1.314 . S
C924 H930 0.930 . S
C925 N927 1.279 . S
C925 C928 1.358 . S
C925 H931 0.930 . S
C926 C924 1.353 . S
C926 C929 1.348 . S
C926 H964 0.929 . S
N927 Li882 1.990 . S
N927 C924 1.314 . S
N927 C925 1.279 . S
C928 C925 1.358 . S
C928 C929 1.356 . S
C928 H965 0.930 . S
C929 C926 1.348 . S
C929 C928 1.356 . S
H930 C924 0.930 . S
H931 C925 0.930 . S
C932 N933 1.314 . S
C932 C934 1.353 . S
C932 H938 0.930 . S
N933 Li883 1.990 . S
N933 C932 1.314 . S
N933 C936 1.279 . S
C934 C932 1.353 . S
C934 C937 1.348 . S
C934 H966 0.929 . S
C935 C936 1.358 . S
C935 C937 1.356 . S
C935 H967 0.930 . S
C936 N933 1.279 . S
C936 C935 1.358 . S
C936 H939 0.930 . S
C937 C934 1.348 . S
C937 C935 1.356 . S
H938 C932 0.930 . S
H939 C936 0.930 . S
O940 Li880 1.956 . S
O940 Li881 1.970 . S
O940 Li882 1.961 . S
O940 C884 1.325 . S
O941 Li880 1.970 . S
O941 Li881 1.956 . S
O941 Li883 1.961 . S
O941 C890 1.325 . S
O942 Li880 1.961 . S
O942 Li882 1.956 . S
O942 Li883 1.970 . S
O942 C912 1.325 . S
O943 Li881 1.961 . S
O943 Li882 1.970 . S
O943 Li883 1.956 . S
O943 C918 1.325 . S
H944 C886 0.929 . S
H945 C887 0.930 . S
H946 C888 0.930 . S
H947 C889 0.930 . S
H948 C891 0.930 . S
H949 C893 0.929 . S
H950 C894 0.930 . S
H951 C895 0.930 . S
H952 C898 0.930 . S
H953 C901 0.929 . S
H954 C906 0.929 . S
H955 C907 0.930 . S
H956 C914 0.929 . S
H957 C915 0.930 . S
H958 C916 0.930 . S
H959 C917 0.930 . S
H960 C919 0.929 . S
H961 C920 0.930 . S
H962 C921 0.930 . S
H963 C922 0.930 . S
H964 C926 0.929 . S
H965 C928 0.930 . S
H966 C934 0.929 . S
H967 C935 0.930 . S
Li968 N985 1.990 . S
Li968 O1028 1.956 . S
Li968 O1029 1.970 . S
Li968 O1030 1.961 . S
Li969 N993 1.990 . S
Li969 O1028 1.970 . S
Li969 O1029 1.956 . S
Li969 O1031 1.961 . S
Li970 N1015 1.990 . S
Li970 O1028 1.961 . S
Li970 O1030 1.956 . S
Li970 O1031 1.970 . S
Li971 N1021 1.990 . S
Li971 O1029 1.961 . S
Li971 O1030 1.970 . S
Li971 O1031 1.956 . S
C972 C974 1.348 . S
C972 C975 1.356 . S
C972 O1028 1.325 . S
N973 C976 1.314 . S
N973 C977 1.279 . S
C974 C972 1.348 . S
C974 C976 1.353 . S
C974 H1032 0.929 . S
C975 C972 1.356 . S
C975 C977 1.358 . S
C975 H1033 0.930 . S
C976 N973 1.314 . S
C976 C974 1.353 . S
C976 H1034 0.930 . S
C977 N973 1.279 . S
C977 C975 1.358 . S
C977 H1035 0.930 . S
C978 C981 1.348 . S
C978 C982 1.356 . S
C978 O1029 1.325 . S
C979 N980 1.279 . S
C979 C982 1.358 . S
C979 H1036 0.930 . S
N980 C979 1.279 . S
N980 C983 1.314 . S
C981 C978 1.348 . S
C981 C983 1.353 . S
C981 H1037 0.929 . S
C982 C978 1.356 . S
C982 C979 1.358 . S
C982 H1038 0.930 . S
C983 N980 1.314 . S
C983 C981 1.353 . S
C983 H1039 0.930 . S
C984 N985 1.314 . S
C984 C989 1.353 . S
C984 H990 0.930 . S
N985 Li968 1.990 . S
N985 C984 1.314 . S
N985 C987 1.279 . S
C986 C987 1.358 . S
C986 C988 1.356 . S
C986 H1040 0.930 . S
C987 N985 1.279 . S
C987 C986 1.358 . S
C987 H991 0.930 . S
C988 C986 1.356 . S
C988 C989 1.348 . S
C989 C984 1.353 . S
C989 C988 1.348 . S
C989 H1041 0.929 . S
H990 C984 0.930 . S
H991 C987 0.930 . S
C992 N993 1.314 . S
C992 C994 1.353 . S
C992 H998 0.930 . S
N993 Li969 1.990 . S
N993 C992 1.314 . S
N993 C996 1.279 . S
C994 C992 1.353 . S
C994 C997 1.348 . S
C994 H1042 0.929 . S
C995 C996 1.358 . S
C995 C997 1.356 . S
C995 H1043 0.930 . S
C996 N993 1.279 . S
C996 C995 1.358 . S
C996 H999 0.930 . S
C997 C994 1.348 . S
C997 C995 1.356 . S
H998 C992 0.930 . S
H999 C996 0.930 . S
C1000 C1002 1.348 . S
C1000 C1003 1.356 . S
C1000 O1030 1.325 . S
N1001 C1004 1.314 . S
N1001 C1005 1.279 . S
C1002 C1000 1.348 . S
C1002 C1004 1.353 . S
C1002 H1044 0.929 . S
C1003 C1000 1.356 . S
C1003 C1005 1.358 . S
C1003 H1045 0.930 . S
C1004 N1001 1.314 . S
C1004 C1002 1.353 . S
C1004 H1046 0.930 . S
C1005 N1001 1.279 . S
C1005 C1003 1.358 . S
C1005 H1047 0.930 . S
C1006 C1007 1.348 . S
C1006 C1008 1.356 . S
C1006 O1031 1.325 . S
C1007 C1006 1.348 . S
C1007 C1009 1.353 . S
C1007 H1048 0.929 . S
C1008 C1006 1.356 . S
C1008 C1010 1.358 . S
C1008 H1049 0.930 . S
C1009 C1007 1.353 . S
C1009 N1011 1.314 . S
C1009 H1050 0.930 . S
C1010 C1008 1.358 . S
C1010 N1011 1.279 . S
C1010 H1051 0.930 . S
N1011 C1009 1.314 . S
N1011 C1010 1.279 . S
C1012 C1014 1.353 . S
C1012 N1015 1.314 . S
C1012 H1018 0.930 . S
C1013 N1015 1.279 . S
C1013 C1016 1.358 . S
C1013 H1019 0.930 . S
C1014 C1012 1.353 . S
C1014 C1017 1.348 . S
C1014 H1052 0.929 . S
N1015 Li970 1.990 . S
N1015 C1012 1.314 . S
N1015 C1013 1.279 . S
C1016 C1013 1.358 . S
C1016 C1017 1.356 . S
C1016 H1053 0.930 . S
C1017 C1014 1.348 . S
C1017 C1016 1.356 . S
H1018 C1012 0.930 . S
H1019 C1013 0.930 . S
C1020 N1021 1.314 . S
C1020 C1022 1.353 . S
C1020 H1026 0.930 . S
N1021 Li971 1.990 . S
N1021 C1020 1.314 . S
N1021 C1024 1.279 . S
C1022 C1020 1.353 . S
C1022 C1025 1.348 . S
C1022 H1054 0.929 . S
C1023 C1024 1.358 . S
C1023 C1025 1.356 . S
C1023 H1055 0.930 . S
C1024 N1021 1.279 . S
C1024 C1023 1.358 . S
C1024 H1027 0.930 . S
C1025 C1022 1.348 . S
C1025 C1023 1.356 . S
H1026 C1020 0.930 . S
H1027 C1024 0.930 . S
O1028 Li968 1.956 . S
O1028 Li969 1.970 . S
O1028 Li970 1.961 . S
O1028 C972 1.325 . S
O1029 Li968 1.970 . S
O1029 Li969 1.956 . S
O1029 Li971 1.961 . S
O1029 C978 1.325 . S
O1030 Li968 1.961 . S
O1030 Li970 1.956 . S
O1030 Li971 1.970 . S
O1030 C1000 1.325 . S
O1031 Li969 1.961 . S
O1031 Li970 1.970 . S
O1031 Li971 1.956 . S
O1031 C1006 1.325 . S
H1032 C974 0.929 . S
H1033 C975 0.930 . S
H1034 C976 0.930 . S
H1035 C977 0.930 . S
H1036 C979 0.930 . S
H1037 C981 0.929 . S
H1038 C982 0.930 . S
H1039 C983 0.930 . S
H1040 C986 0.930 . S
H1041 C989 0.929 . S
H1042 C994 0.929 . S
H1043 C995 0.930 . S
H1044 C1002 0.929 . S
H1045 C1003 0.930 . S
H1046 C1004 0.930 . S
H1047 C1005 0.930 . S
H1048 C1007 0.929 . S
H1049 C1008 0.930 . S
H1050 C1009 0.930 . S
H1051 C1010 0.930 . S
H1052 C1014 0.929 . S
H1053 C1016 0.930 . S
H1054 C1022 0.929 . S
H1055 C1023 0.930 . S
Li1056 N1073 1.990 . S
Li1056 O1116 1.956 . S
Li1056 O1117 1.970 . S
Li1056 O1118 1.961 . S
Li1057 N1081 1.990 . S
Li1057 O1116 1.970 . S
Li1057 O1117 1.956 . S
Li1057 O1119 1.961 . S
Li1058 N1103 1.990 . S
Li1058 O1116 1.961 . S
Li1058 O1118 1.956 . S
Li1058 O1119 1.970 . S
Li1059 N1109 1.990 . S
Li1059 O1117 1.961 . S
Li1059 O1118 1.970 . S
Li1059 O1119 1.956 . S
C1060 C1062 1.348 . S
C1060 C1063 1.356 . S
C1060 O1116 1.325 . S
N1061 C1064 1.314 . S
N1061 C1065 1.279 . S
C1062 C1060 1.348 . S
C1062 C1064 1.353 . S
C1062 H1120 0.929 . S
C1063 C1060 1.356 . S
C1063 C1065 1.358 . S
C1063 H1121 0.930 . S
C1064 N1061 1.314 . S
C1064 C1062 1.353 . S
C1064 H1122 0.930 . S
C1065 N1061 1.279 . S
C1065 C1063 1.358 . S
C1065 H1123 0.930 . S
C1066 C1069 1.348 . S
C1066 C1070 1.356 . S
C1066 O1117 1.325 . S
C1067 N1068 1.279 . S
C1067 C1070 1.358 . S
C1067 H1124 0.930 . S
N1068 C1067 1.279 . S
N1068 C1071 1.314 . S
C1069 C1066 1.348 . S
C1069 C1071 1.353 . S
C1069 H1125 0.929 . S
C1070 C1066 1.356 . S
C1070 C1067 1.358 . S
C1070 H1126 0.930 . S
C1071 N1068 1.314 . S
C1071 C1069 1.353 . S
C1071 H1127 0.930 . S
C1072 N1073 1.314 . S
C1072 C1077 1.353 . S
C1072 H1078 0.930 . S
N1073 Li1056 1.990 . S
N1073 C1072 1.314 . S
N1073 C1075 1.279 . S
C1074 C1075 1.358 . S
C1074 C1076 1.356 . S
C1074 H1128 0.930 . S
C1075 N1073 1.279 . S
C1075 C1074 1.358 . S
C1075 H1079 0.930 . S
C1076 C1074 1.356 . S
C1076 C1077 1.348 . S
C1077 C1072 1.353 . S
C1077 C1076 1.348 . S
C1077 H1129 0.929 . S
H1078 C1072 0.930 . S
H1079 C1075 0.930 . S
C1080 N1081 1.314 . S
C1080 C1082 1.353 . S
C1080 H1086 0.930 . S
N1081 Li1057 1.990 . S
N1081 C1080 1.314 . S
N1081 C1084 1.279 . S
C1082 C1080 1.353 . S
C1082 C1085 1.348 . S
C1082 H1130 0.929 . S
C1083 C1084 1.358 . S
C1083 C1085 1.356 . S
C1083 H1131 0.930 . S
C1084 N1081 1.279 . S
C1084 C1083 1.358 . S
C1084 H1087 0.930 . S
C1085 C1082 1.348 . S
C1085 C1083 1.356 . S
H1086 C1080 0.930 . S
H1087 C1084 0.930 . S
C1088 C1090 1.348 . S
C1088 C1091 1.356 . S
C1088 O1118 1.325 . S
N1089 C1092 1.314 . S
N1089 C1093 1.279 . S
C1090 C1088 1.348 . S
C1090 C1092 1.353 . S
C1090 H1132 0.929 . S
C1091 C1088 1.356 . S
C1091 C1093 1.358 . S
C1091 H1133 0.930 . S
C1092 N1089 1.314 . S
C1092 C1090 1.353 . S
C1092 H1134 0.930 . S
C1093 N1089 1.279 . S
C1093 C1091 1.358 . S
C1093 H1135 0.930 . S
C1094 C1095 1.348 . S
C1094 C1096 1.356 . S
C1094 O1119 1.325 . S
C1095 C1094 1.348 . S
C1095 C1097 1.353 . S
C1095 H1136 0.929 . S
C1096 C1094 1.356 . S
C1096 C1098 1.358 . S
C1096 H1137 0.930 . S
C1097 C1095 1.353 . S
C1097 N1099 1.314 . S
C1097 H1138 0.930 . S
C1098 C1096 1.358 . S
C1098 N1099 1.279 . S
C1098 H1139 0.930 . S
N1099 C1097 1.314 . S
N1099 C1098 1.279 . S
C1100 C1102 1.353 . S
C1100 N1103 1.314 . S
C1100 H1106 0.930 . S
C1101 N1103 1.279 . S
C1101 C1104 1.358 . S
C1101 H1107 0.930 . S
C1102 C1100 1.353 . S
C1102 C1105 1.348 . S
C1102 H1140 0.929 . S
N1103 Li1058 1.990 . S
N1103 C1100 1.314 . S
N1103 C1101 1.279 . S
C1104 C1101 1.358 . S
C1104 C1105 1.356 . S
C1104 H1141 0.930 . S
C1105 C1102 1.348 . S
C1105 C1104 1.356 . S
H1106 C1100 0.930 . S
H1107 C1101 0.930 . S
C1108 N1109 1.314 . S
C1108 C1110 1.353 . S
C1108 H1114 0.930 . S
N1109 Li1059 1.990 . S
N1109 C1108 1.314 . S
N1109 C1112 1.279 . S
C1110 C1108 1.353 . S
C1110 C1113 1.348 . S
C1110 H1142 0.929 . S
C1111 C1112 1.358 . S
C1111 C1113 1.356 . S
C1111 H1143 0.930 . S
C1112 N1109 1.279 . S
C1112 C1111 1.358 . S
C1112 H1115 0.930 . S
C1113 C1110 1.348 . S
C1113 C1111 1.356 . S
H1114 C1108 0.930 . S
H1115 C1112 0.930 . S
O1116 Li1056 1.956 . S
O1116 Li1057 1.970 . S
O1116 Li1058 1.961 . S
O1116 C1060 1.325 . S
O1117 Li1056 1.970 . S
O1117 Li1057 1.956 . S
O1117 Li1059 1.961 . S
O1117 C1066 1.325 . S
O1118 Li1056 1.961 . S
O1118 Li1058 1.956 . S
O1118 Li1059 1.970 . S
O1118 C1088 1.325 . S
O1119 Li1057 1.961 . S
O1119 Li1058 1.970 . S
O1119 Li1059 1.956 . S
O1119 C1094 1.325 . S
H1120 C1062 0.929 . S
H1121 C1063 0.930 . S
H1122 C1064 0.930 . S
H1123 C1065 0.930 . S
H1124 C1067 0.930 . S
H1125 C1069 0.929 . S
H1126 C1070 0.930 . S
H1127 C1071 0.930 . S
H1128 C1074 0.930 . S
H1129 C1077 0.929 . S
H1130 C1082 0.929 . S
H1131 C1083 0.930 . S
H1132 C1090 0.929 . S
H1133 C1091 0.930 . S
H1134 C1092 0.930 . S
H1135 C1093 0.930 . S
H1136 C1095 0.929 . S
H1137 C1096 0.930 . S
H1138 C1097 0.930 . S
H1139 C1098 0.930 . S
H1140 C1102 0.929 . S
H1141 C1104 0.930 . S
H1142 C1110 0.929 . S
H1143 C1111 0.930 . S
Li1144 N1161 1.990 . S
Li1144 O1204 1.956 . S
Li1144 O1205 1.970 . S
Li1144 O1206 1.961 . S
Li1145 N1169 1.990 . S
Li1145 O1204 1.970 . S
Li1145 O1205 1.956 . S
Li1145 O1207 1.961 . S
Li1146 N1191 1.990 . S
Li1146 O1204 1.961 . S
Li1146 O1206 1.956 . S
Li1146 O1207 1.970 . S
Li1147 N1197 1.990 . S
Li1147 O1205 1.961 . S
Li1147 O1206 1.970 . S
Li1147 O1207 1.956 . S
C1148 C1150 1.348 . S
C1148 C1151 1.356 . S
C1148 O1204 1.325 . S
N1149 C1152 1.314 . S
N1149 C1153 1.279 . S
C1150 C1148 1.348 . S
C1150 C1152 1.353 . S
C1150 H1208 0.929 . S
C1151 C1148 1.356 . S
C1151 C1153 1.358 . S
C1151 H1209 0.930 . S
C1152 N1149 1.314 . S
C1152 C1150 1.353 . S
C1152 H1210 0.930 . S
C1153 N1149 1.279 . S
C1153 C1151 1.358 . S
C1153 H1211 0.930 . S
C1154 C1157 1.348 . S
C1154 C1158 1.356 . S
C1154 O1205 1.325 . S
C1155 N1156 1.279 . S
C1155 C1158 1.358 . S
C1155 H1212 0.930 . S
N1156 C1155 1.279 . S
N1156 C1159 1.314 . S
C1157 C1154 1.348 . S
C1157 C1159 1.353 . S
C1157 H1213 0.929 . S
C1158 C1154 1.356 . S
C1158 C1155 1.358 . S
C1158 H1214 0.930 . S
C1159 N1156 1.314 . S
C1159 C1157 1.353 . S
C1159 H1215 0.930 . S
C1160 N1161 1.314 . S
C1160 C1165 1.353 . S
C1160 H1166 0.930 . S
N1161 Li1144 1.990 . S
N1161 C1160 1.314 . S
N1161 C1163 1.279 . S
C1162 C1163 1.358 . S
C1162 C1164 1.356 . S
C1162 H1216 0.930 . S
C1163 N1161 1.279 . S
C1163 C1162 1.358 . S
C1163 H1167 0.930 . S
C1164 C1162 1.356 . S
C1164 C1165 1.348 . S
C1165 C1160 1.353 . S
C1165 C1164 1.348 . S
C1165 H1217 0.929 . S
H1166 C1160 0.930 . S
H1167 C1163 0.930 . S
C1168 N1169 1.314 . S
C1168 C1170 1.353 . S
C1168 H1174 0.930 . S
N1169 Li1145 1.990 . S
N1169 C1168 1.314 . S
N1169 C1172 1.279 . S
C1170 C1168 1.353 . S
C1170 C1173 1.348 . S
C1170 H1218 0.929 . S
C1171 C1172 1.358 . S
C1171 C1173 1.356 . S
C1171 H1219 0.930 . S
C1172 N1169 1.279 . S
C1172 C1171 1.358 . S
C1172 H1175 0.930 . S
C1173 C1170 1.348 . S
C1173 C1171 1.356 . S
H1174 C1168 0.930 . S
H1175 C1172 0.930 . S
C1176 C1178 1.348 . S
C1176 C1179 1.356 . S
C1176 O1206 1.325 . S
N1177 C1180 1.314 . S
N1177 C1181 1.279 . S
C1178 C1176 1.348 . S
C1178 C1180 1.353 . S
C1178 H1220 0.929 . S
C1179 C1176 1.356 . S
C1179 C1181 1.358 . S
C1179 H1221 0.930 . S
C1180 N1177 1.314 . S
C1180 C1178 1.353 . S
C1180 H1222 0.930 . S
C1181 N1177 1.279 . S
C1181 C1179 1.358 . S
C1181 H1223 0.930 . S
C1182 C1183 1.348 . S
C1182 C1184 1.356 . S
C1182 O1207 1.325 . S
C1183 C1182 1.348 . S
C1183 C1185 1.353 . S
C1183 H1224 0.929 . S
C1184 C1182 1.356 . S
C1184 C1186 1.358 . S
C1184 H1225 0.930 . S
C1185 C1183 1.353 . S
C1185 N1187 1.314 . S
C1185 H1226 0.930 . S
C1186 C1184 1.358 . S
C1186 N1187 1.279 . S
C1186 H1227 0.930 . S
N1187 C1185 1.314 . S
N1187 C1186 1.279 . S
C1188 C1190 1.353 . S
C1188 N1191 1.314 . S
C1188 H1194 0.930 . S
C1189 N1191 1.279 . S
C1189 C1192 1.358 . S
C1189 H1195 0.930 . S
C1190 C1188 1.353 . S
C1190 C1193 1.348 . S
C1190 H1228 0.929 . S
N1191 Li1146 1.990 . S
N1191 C1188 1.314 . S
N1191 C1189 1.279 . S
C1192 C1189 1.358 . S
C1192 C1193 1.356 . S
C1192 H1229 0.930 . S
C1193 C1190 1.348 . S
C1193 C1192 1.356 . S
H1194 C1188 0.930 . S
H1195 C1189 0.930 . S
C1196 N1197 1.314 . S
C1196 C1198 1.353 . S
C1196 H1202 0.930 . S
N1197 Li1147 1.990 . S
N1197 C1196 1.314 . S
N1197 C1200 1.279 . S
C1198 C1196 1.353 . S
C1198 C1201 1.348 . S
C1198 H1230 0.929 . S
C1199 C1200 1.358 . S
C1199 C1201 1.356 . S
C1199 H1231 0.930 . S
C1200 N1197 1.279 . S
C1200 C1199 1.358 . S
C1200 H1203 0.930 . S
C1201 C1198 1.348 . S
C1201 C1199 1.356 . S
H1202 C1196 0.930 . S
H1203 C1200 0.930 . S
O1204 Li1144 1.956 . S
O1204 Li1145 1.970 . S
O1204 Li1146 1.961 . S
O1204 C1148 1.325 . S
O1205 Li1144 1.970 . S
O1205 Li1145 1.956 . S
O1205 Li1147 1.961 . S
O1205 C1154 1.325 . S
O1206 Li1144 1.961 . S
O1206 Li1146 1.956 . S
O1206 Li1147 1.970 . S
O1206 C1176 1.325 . S
O1207 Li1145 1.961 . S
O1207 Li1146 1.970 . S
O1207 Li1147 1.956 . S
O1207 C1182 1.325 . S
H1208 C1150 0.929 . S
H1209 C1151 0.930 . S
H1210 C1152 0.930 . S
H1211 C1153 0.930 . S
H1212 C1155 0.930 . S
H1213 C1157 0.929 . S
H1214 C1158 0.930 . S
H1215 C1159 0.930 . S
H1216 C1162 0.930 . S
H1217 C1165 0.929 . S
H1218 C1170 0.929 . S
H1219 C1171 0.930 . S
H1220 C1178 0.929 . S
H1221 C1179 0.930 . S
H1222 C1180 0.930 . S
H1223 C1181 0.930 . S
H1224 C1183 0.929 . S
H1225 C1184 0.930 . S
H1226 C1185 0.930 . S
H1227 C1186 0.930 . S
H1228 C1190 0.929 . S
H1229 C1192 0.930 . S
H1230 C1198 0.929 . S
H1231 C1199 0.930 . S
Li1232 N1249 1.990 . S
Li1232 O1292 1.956 . S
Li1232 O1293 1.970 . S
Li1232 O1294 1.961 . S
Li1233 N1257 1.990 . S
Li1233 O1292 1.970 . S
Li1233 O1293 1.956 . S
Li1233 O1295 1.961 . S
Li1234 N1279 1.990 . S
Li1234 O1292 1.961 . S
Li1234 O1294 1.956 . S
Li1234 O1295 1.970 . S
Li1235 N1285 1.990 . S
Li1235 O1293 1.961 . S
Li1235 O1294 1.970 . S
Li1235 O1295 1.956 . S
C1236 C1238 1.348 . S
C1236 C1239 1.356 . S
C1236 O1292 1.325 . S
N1237 C1240 1.314 . S
N1237 C1241 1.279 . S
C1238 C1236 1.348 . S
C1238 C1240 1.353 . S
C1238 H1296 0.929 . S
C1239 C1236 1.356 . S
C1239 C1241 1.358 . S
C1239 H1297 0.930 . S
C1240 N1237 1.314 . S
C1240 C1238 1.353 . S
C1240 H1298 0.930 . S
C1241 N1237 1.279 . S
C1241 C1239 1.358 . S
C1241 H1299 0.930 . S
C1242 C1245 1.348 . S
C1242 C1246 1.356 . S
C1242 O1293 1.325 . S
C1243 N1244 1.279 . S
C1243 C1246 1.358 . S
C1243 H1300 0.930 . S
N1244 C1243 1.279 . S
N1244 C1247 1.314 . S
C1245 C1242 1.348 . S
C1245 C1247 1.353 . S
C1245 H1301 0.929 . S
C1246 C1242 1.356 . S
C1246 C1243 1.358 . S
C1246 H1302 0.930 . S
C1247 N1244 1.314 . S
C1247 C1245 1.353 . S
C1247 H1303 0.930 . S
C1248 N1249 1.314 . S
C1248 C1253 1.353 . S
C1248 H1254 0.930 . S
N1249 Li1232 1.990 . S
N1249 C1248 1.314 . S
N1249 C1251 1.279 . S
C1250 C1251 1.358 . S
C1250 C1252 1.356 . S
C1250 H1304 0.930 . S
C1251 N1249 1.279 . S
C1251 C1250 1.358 . S
C1251 H1255 0.930 . S
C1252 C1250 1.356 . S
C1252 C1253 1.348 . S
C1253 C1248 1.353 . S
C1253 C1252 1.348 . S
C1253 H1305 0.929 . S
H1254 C1248 0.930 . S
H1255 C1251 0.930 . S
C1256 N1257 1.314 . S
C1256 C1258 1.353 . S
C1256 H1262 0.930 . S
N1257 Li1233 1.990 . S
N1257 C1256 1.314 . S
N1257 C1260 1.279 . S
C1258 C1256 1.353 . S
C1258 C1261 1.348 . S
C1258 H1306 0.929 . S
C1259 C1260 1.358 . S
C1259 C1261 1.356 . S
C1259 H1307 0.930 . S
C1260 N1257 1.279 . S
C1260 C1259 1.358 . S
C1260 H1263 0.930 . S
C1261 C1258 1.348 . S
C1261 C1259 1.356 . S
H1262 C1256 0.930 . S
H1263 C1260 0.930 . S
C1264 C1266 1.348 . S
C1264 C1267 1.356 . S
C1264 O1294 1.325 . S
N1265 C1268 1.314 . S
N1265 C1269 1.279 . S
C1266 C1264 1.348 . S
C1266 C1268 1.353 1_554 S
C1266 H1308 0.929 . S
C1267 C1264 1.356 . S
C1267 C1269 1.358 1_554 S
C1267 H1309 0.930 . S
C1268 N1265 1.314 . S
C1268 C1266 1.353 1_556 S
C1268 H1310 0.930 . S
C1269 N1265 1.279 . S
C1269 C1267 1.358 1_556 S
C1269 H1311 0.930 . S
C1270 C1271 1.348 . S
C1270 C1272 1.356 . S
C1270 O1295 1.325 . S
C1271 C1270 1.348 . S
C1271 C1273 1.353 . S
C1271 H1312 0.929 . S
C1272 C1270 1.356 . S
C1272 C1274 1.358 . S
C1272 H1313 0.930 . S
C1273 C1271 1.353 . S
C1273 N1275 1.314 . S
C1273 H1314 0.930 . S
C1274 C1272 1.358 . S
C1274 N1275 1.279 . S
C1274 H1315 0.930 . S
N1275 C1273 1.314 . S
N1275 C1274 1.279 . S
C1276 C1278 1.353 . S
C1276 N1279 1.314 . S
C1276 H1282 0.930 . S
C1277 N1279 1.279 . S
C1277 C1280 1.358 . S
C1277 H1283 0.930 . S
C1278 C1276 1.353 . S
C1278 C1281 1.348 . S
C1278 H1316 0.929 . S
N1279 Li1234 1.990 . S
N1279 C1276 1.314 . S
N1279 C1277 1.279 . S
C1280 C1277 1.358 . S
C1280 C1281 1.356 . S
C1280 H1317 0.930 1_554 S
C1281 C1278 1.348 . S
C1281 C1280 1.356 . S
H1282 C1276 0.930 . S
H1283 C1277 0.930 . S
C1284 N1285 1.314 . S
C1284 C1286 1.353 . S
C1284 H1290 0.930 . S
N1285 Li1235 1.990 . S
N1285 C1284 1.314 . S
N1285 C1288 1.279 . S
C1286 C1284 1.353 . S
C1286 C1289 1.348 . S
C1286 H1318 0.929 . S
C1287 C1288 1.358 . S
C1287 C1289 1.356 . S
C1287 H1319 0.930 . S
C1288 N1285 1.279 . S
C1288 C1287 1.358 . S
C1288 H1291 0.930 . S
C1289 C1286 1.348 . S
C1289 C1287 1.356 . S
H1290 C1284 0.930 . S
H1291 C1288 0.930 . S
O1292 Li1232 1.956 . S
O1292 Li1233 1.970 . S
O1292 Li1234 1.961 . S
O1292 C1236 1.325 . S
O1293 Li1232 1.970 . S
O1293 Li1233 1.956 . S
O1293 Li1235 1.961 . S
O1293 C1242 1.325 . S
O1294 Li1232 1.961 . S
O1294 Li1234 1.956 . S
O1294 Li1235 1.970 . S
O1294 C1264 1.325 . S
O1295 Li1233 1.961 . S
O1295 Li1234 1.970 . S
O1295 Li1235 1.956 . S
O1295 C1270 1.325 . S
H1296 C1238 0.929 . S
H1297 C1239 0.930 . S
H1298 C1240 0.930 . S
H1299 C1241 0.930 . S
H1300 C1243 0.930 . S
H1301 C1245 0.929 . S
H1302 C1246 0.930 . S
H1303 C1247 0.930 . S
H1304 C1250 0.930 . S
H1305 C1253 0.929 . S
H1306 C1258 0.929 . S
H1307 C1259 0.930 . S
H1308 C1266 0.929 . S
H1309 C1267 0.930 . S
H1310 C1268 0.930 . S
H1311 C1269 0.930 . S
H1312 C1271 0.929 . S
H1313 C1272 0.930 . S
H1314 C1273 0.930 . S
H1315 C1274 0.930 . S
H1316 C1278 0.929 . S
H1317 C1280 0.930 1_556 S
H1318 C1286 0.929 . S
H1319 C1287 0.930 . S
Li1320 N1337 1.990 . S
Li1320 O1380 1.956 . S
Li1320 O1381 1.970 . S
Li1320 O1382 1.961 . S
Li1321 N1345 1.990 . S
Li1321 O1380 1.970 . S
Li1321 O1381 1.956 . S
Li1321 O1383 1.961 . S
Li1322 N1367 1.990 . S
Li1322 O1380 1.961 . S
Li1322 O1382 1.956 . S
Li1322 O1383 1.970 . S
Li1323 N1373 1.990 . S
Li1323 O1381 1.961 . S
Li1323 O1382 1.970 . S
Li1323 O1383 1.956 . S
C1324 C1326 1.348 . S
C1324 C1327 1.356 . S
C1324 O1380 1.325 . S
N1325 C1328 1.314 . S
N1325 C1329 1.279 . S
C1326 C1324 1.348 . S
C1326 C1328 1.353 . S
C1326 H1384 0.929 . S
C1327 C1324 1.356 . S
C1327 C1329 1.358 . S
C1327 H1385 0.930 . S
C1328 N1325 1.314 . S
C1328 C1326 1.353 . S
C1328 H1386 0.930 . S
C1329 N1325 1.279 . S
C1329 C1327 1.358 . S
C1329 H1387 0.930 . S
C1330 C1333 1.348 . S
C1330 C1334 1.356 . S
C1330 O1381 1.325 . S
C1331 N1332 1.279 . S
C1331 C1334 1.358 . S
C1331 H1388 0.930 . S
N1332 C1331 1.279 . S
N1332 C1335 1.314 . S
C1333 C1330 1.348 . S
C1333 C1335 1.353 . S
C1333 H1389 0.929 . S
C1334 C1330 1.356 . S
C1334 C1331 1.358 . S
C1334 H1390 0.930 . S
C1335 N1332 1.314 . S
C1335 C1333 1.353 . S
C1335 H1391 0.930 . S
C1336 N1337 1.314 . S
C1336 C1341 1.353 . S
C1336 H1342 0.930 . S
N1337 Li1320 1.990 . S
N1337 C1336 1.314 . S
N1337 C1339 1.279 . S
C1338 C1339 1.358 . S
C1338 C1340 1.356 . S
C1338 H1392 0.930 . S
C1339 N1337 1.279 . S
C1339 C1338 1.358 . S
C1339 H1343 0.930 . S
C1340 C1338 1.356 . S
C1340 C1341 1.348 . S
C1341 C1336 1.353 . S
C1341 C1340 1.348 . S
C1341 H1393 0.929 . S
H1342 C1336 0.930 . S
H1343 C1339 0.930 . S
C1344 N1345 1.314 . S
C1344 C1346 1.353 . S
C1344 H1350 0.930 . S
N1345 Li1321 1.990 . S
N1345 C1344 1.314 . S
N1345 C1348 1.279 . S
C1346 C1344 1.353 . S
C1346 C1349 1.348 . S
C1346 H1394 0.929 . S
C1347 C1348 1.358 . S
C1347 C1349 1.356 . S
C1347 H1395 0.930 . S
C1348 N1345 1.279 . S
C1348 C1347 1.358 . S
C1348 H1351 0.930 . S
C1349 C1346 1.348 . S
C1349 C1347 1.356 . S
H1350 C1344 0.930 . S
H1351 C1348 0.930 . S
C1352 C1354 1.348 . S
C1352 C1355 1.356 . S
C1352 O1382 1.325 . S
N1353 C1356 1.314 . S
N1353 C1357 1.279 . S
C1354 C1352 1.348 . S
C1354 C1356 1.353 . S
C1354 H1396 0.929 . S
C1355 C1352 1.356 . S
C1355 C1357 1.358 . S
C1355 H1397 0.930 . S
C1356 N1353 1.314 . S
C1356 C1354 1.353 . S
C1356 H1398 0.930 . S
C1357 N1353 1.279 . S
C1357 C1355 1.358 . S
C1357 H1399 0.930 . S
C1358 C1359 1.348 . S
C1358 C1360 1.356 . S
C1358 O1383 1.325 . S
C1359 C1358 1.348 . S
C1359 C1361 1.353 . S
C1359 H1400 0.929 . S
C1360 C1358 1.356 . S
C1360 C1362 1.358 . S
C1360 H1401 0.930 . S
C1361 C1359 1.353 . S
C1361 N1363 1.314 . S
C1361 H1402 0.930 . S
C1362 C1360 1.358 . S
C1362 N1363 1.279 . S
C1362 H1403 0.930 . S
N1363 C1361 1.314 . S
N1363 C1362 1.279 . S
C1364 C1366 1.353 . S
C1364 N1367 1.314 . S
C1364 H1370 0.930 . S
C1365 N1367 1.279 . S
C1365 C1368 1.358 . S
C1365 H1371 0.930 . S
C1366 C1364 1.353 . S
C1366 C1369 1.348 . S
C1366 H1404 0.929 . S
N1367 Li1322 1.990 . S
N1367 C1364 1.314 . S
N1367 C1365 1.279 . S
C1368 C1365 1.358 . S
C1368 C1369 1.356 . S
C1368 H1405 0.930 . S
C1369 C1366 1.348 . S
C1369 C1368 1.356 . S
H1370 C1364 0.930 . S
H1371 C1365 0.930 . S
C1372 N1373 1.314 . S
C1372 C1374 1.353 . S
C1372 H1378 0.930 . S
N1373 Li1323 1.990 . S
N1373 C1372 1.314 . S
N1373 C1376 1.279 . S
C1374 C1372 1.353 . S
C1374 C1377 1.348 . S
C1374 H1406 0.929 . S
C1375 C1376 1.358 . S
C1375 C1377 1.356 . S
C1375 H1407 0.930 . S
C1376 N1373 1.279 . S
C1376 C1375 1.358 . S
C1376 H1379 0.930 . S
C1377 C1374 1.348 . S
C1377 C1375 1.356 . S
H1378 C1372 0.930 . S
H1379 C1376 0.930 . S
O1380 Li1320 1.956 . S
O1380 Li1321 1.970 . S
O1380 Li1322 1.961 . S
O1380 C1324 1.325 . S
O1381 Li1320 1.970 . S
O1381 Li1321 1.956 . S
O1381 Li1323 1.961 . S
O1381 C1330 1.325 . S
O1382 Li1320 1.961 . S
O1382 Li1322 1.956 . S
O1382 Li1323 1.970 . S
O1382 C1352 1.325 . S
O1383 Li1321 1.961 . S
O1383 Li1322 1.970 . S
O1383 Li1323 1.956 . S
O1383 C1358 1.325 . S
H1384 C1326 0.929 . S
H1385 C1327 0.930 . S
H1386 C1328 0.930 . S
H1387 C1329 0.930 . S
H1388 C1331 0.930 . S
H1389 C1333 0.929 . S
H1390 C1334 0.930 . S
H1391 C1335 0.930 . S
H1392 C1338 0.930 . S
H1393 C1341 0.929 . S
H1394 C1346 0.929 . S
H1395 C1347 0.930 . S
H1396 C1354 0.929 . S
H1397 C1355 0.930 . S
H1398 C1356 0.930 . S
H1399 C1357 0.930 . S
H1400 C1359 0.929 . S
H1401 C1360 0.930 . S
H1402 C1361 0.930 . S
H1403 C1362 0.930 . S
H1404 C1366 0.929 . S
H1405 C1368 0.930 . S
H1406 C1374 0.929 . S
H1407 C1375 0.930 . S
Li1408 N1425 1.990 . S
Li1408 O1468 1.956 . S
Li1408 O1469 1.970 . S
Li1408 O1470 1.961 . S
Li1409 N1433 1.990 . S
Li1409 O1468 1.970 . S
Li1409 O1469 1.956 . S
Li1409 O1471 1.961 . S
Li1410 N1455 1.990 . S
Li1410 O1468 1.961 . S
Li1410 O1470 1.956 . S
Li1410 O1471 1.970 . S
Li1411 N1461 1.990 . S
Li1411 O1469 1.961 . S
Li1411 O1470 1.970 . S
Li1411 O1471 1.956 . S
C1412 C1414 1.348 . S
C1412 C1415 1.356 . S
C1412 O1468 1.325 . S
N1413 C1416 1.314 . S
N1413 C1417 1.279 . S
C1414 C1412 1.348 . S
C1414 C1416 1.353 . S
C1414 H1472 0.929 . S
C1415 C1412 1.356 . S
C1415 C1417 1.358 . S
C1415 H1473 0.930 . S
C1416 N1413 1.314 . S
C1416 C1414 1.353 . S
C1416 H1474 0.930 . S
C1417 N1413 1.279 . S
C1417 C1415 1.358 . S
C1417 H1475 0.930 . S
C1418 C1421 1.348 . S
C1418 C1422 1.356 . S
C1418 O1469 1.325 . S
C1419 N1420 1.279 . S
C1419 C1422 1.358 . S
C1419 H1476 0.930 . S
N1420 C1419 1.279 . S
N1420 C1423 1.314 . S
C1421 C1418 1.348 . S
C1421 C1423 1.353 . S
C1421 H1477 0.929 . S
C1422 C1418 1.356 . S
C1422 C1419 1.358 . S
C1422 H1478 0.930 . S
C1423 N1420 1.314 . S
C1423 C1421 1.353 . S
C1423 H1479 0.930 . S
C1424 N1425 1.314 . S
C1424 C1429 1.353 . S
C1424 H1430 0.930 . S
N1425 Li1408 1.990 . S
N1425 C1424 1.314 . S
N1425 C1427 1.279 . S
C1426 C1427 1.358 . S
C1426 C1428 1.356 . S
C1426 H1480 0.930 . S
C1427 N1425 1.279 . S
C1427 C1426 1.358 . S
C1427 H1431 0.930 . S
C1428 C1426 1.356 . S
C1428 C1429 1.348 . S
C1429 C1424 1.353 . S
C1429 C1428 1.348 . S
C1429 H1481 0.929 . S
H1430 C1424 0.930 . S
H1431 C1427 0.930 . S
C1432 N1433 1.314 . S
C1432 C1434 1.353 . S
C1432 H1438 0.930 . S
N1433 Li1409 1.990 . S
N1433 C1432 1.314 . S
N1433 C1436 1.279 . S
C1434 C1432 1.353 . S
C1434 C1437 1.348 . S
C1434 H1482 0.929 . S
C1435 C1436 1.358 . S
C1435 C1437 1.356 . S
C1435 H1483 0.930 . S
C1436 N1433 1.279 . S
C1436 C1435 1.358 . S
C1436 H1439 0.930 . S
C1437 C1434 1.348 . S
C1437 C1435 1.356 . S
H1438 C1432 0.930 . S
H1439 C1436 0.930 . S
C1440 C1442 1.348 . S
C1440 C1443 1.356 . S
C1440 O1470 1.325 . S
N1441 C1444 1.314 . S
N1441 C1445 1.279 . S
C1442 C1440 1.348 . S
C1442 C1444 1.353 . S
C1442 H1484 0.929 . S
C1443 C1440 1.356 . S
C1443 C1445 1.358 . S
C1443 H1485 0.930 . S
C1444 N1441 1.314 . S
C1444 C1442 1.353 . S
C1444 H1486 0.930 . S
C1445 N1441 1.279 . S
C1445 C1443 1.358 . S
C1445 H1487 0.930 . S
C1446 C1447 1.348 . S
C1446 C1448 1.356 . S
C1446 O1471 1.325 . S
C1447 C1446 1.348 . S
C1447 C1449 1.353 . S
C1447 H1488 0.929 . S
C1448 C1446 1.356 . S
C1448 C1450 1.358 . S
C1448 H1489 0.930 . S
C1449 C1447 1.353 . S
C1449 N1451 1.314 . S
C1449 H1490 0.930 . S
C1450 C1448 1.358 . S
C1450 N1451 1.279 . S
C1450 H1491 0.930 . S
N1451 C1449 1.314 . S
N1451 C1450 1.279 . S
C1452 C1454 1.353 . S
C1452 N1455 1.314 . S
C1452 H1458 0.930 . S
C1453 N1455 1.279 . S
C1453 C1456 1.358 . S
C1453 H1459 0.930 . S
C1454 C1452 1.353 . S
C1454 C1457 1.348 . S
C1454 H1492 0.929 . S
N1455 Li1410 1.990 . S
N1455 C1452 1.314 . S
N1455 C1453 1.279 . S
C1456 C1453 1.358 . S
C1456 C1457 1.356 . S
C1456 H1493 0.930 . S
C1457 C1454 1.348 . S
C1457 C1456 1.356 . S
H1458 C1452 0.930 . S
H1459 C1453 0.930 . S
C1460 N1461 1.314 . S
C1460 C1462 1.353 . S
C1460 H1466 0.930 . S
N1461 Li1411 1.990 . S
N1461 C1460 1.314 . S
N1461 C1464 1.279 . S
C1462 C1460 1.353 . S
C1462 C1465 1.348 . S
C1462 H1494 0.929 . S
C1463 C1464 1.358 . S
C1463 C1465 1.356 . S
C1463 H1495 0.930 . S
C1464 N1461 1.279 . S
C1464 C1463 1.358 . S
C1464 H1467 0.930 . S
C1465 C1462 1.348 . S
C1465 C1463 1.356 . S
H1466 C1460 0.930 . S
H1467 C1464 0.930 . S
O1468 Li1408 1.956 . S
O1468 Li1409 1.970 . S
O1468 Li1410 1.961 . S
O1468 C1412 1.325 . S
O1469 Li1408 1.970 . S
O1469 Li1409 1.956 . S
O1469 Li1411 1.961 . S
O1469 C1418 1.325 . S
O1470 Li1408 1.961 . S
O1470 Li1410 1.956 . S
O1470 Li1411 1.970 . S
O1470 C1440 1.325 . S
O1471 Li1409 1.961 . S
O1471 Li1410 1.970 . S
O1471 Li1411 1.956 . S
O1471 C1446 1.325 . S
H1472 C1414 0.929 . S
H1473 C1415 0.930 . S
H1474 C1416 0.930 . S
H1475 C1417 0.930 . S
H1476 C1419 0.930 . S
H1477 C1421 0.929 . S
H1478 C1422 0.930 . S
H1479 C1423 0.930 . S
H1480 C1426 0.930 . S
H1481 C1429 0.929 . S
H1482 C1434 0.929 . S
H1483 C1435 0.930 . S
H1484 C1442 0.929 . S
H1485 C1443 0.930 . S
H1486 C1444 0.930 . S
H1487 C1445 0.930 . S
H1488 C1447 0.929 . S
H1489 C1448 0.930 . S
H1490 C1449 0.930 . S
H1491 C1450 0.930 . S
H1492 C1454 0.929 . S
H1493 C1456 0.930 . S
H1494 C1462 0.929 . S
H1495 C1463 0.930 . S
Li1496 N1513 1.990 . S
Li1496 O1556 1.956 . S
Li1496 O1557 1.970 . S
Li1496 O1558 1.961 . S
Li1497 N1521 1.990 . S
Li1497 O1556 1.970 . S
Li1497 O1557 1.956 . S
Li1497 O1559 1.961 . S
Li1498 N1543 1.990 . S
Li1498 O1556 1.961 . S
Li1498 O1558 1.956 . S
Li1498 O1559 1.970 . S
Li1499 N1549 1.990 . S
Li1499 O1557 1.961 . S
Li1499 O1558 1.970 . S
Li1499 O1559 1.956 . S
C1500 C1502 1.348 . S
C1500 C1503 1.356 . S
C1500 O1556 1.325 . S
N1501 C1504 1.314 . S
N1501 C1505 1.279 . S
C1502 C1500 1.348 . S
C1502 C1504 1.353 . S
C1502 H1560 0.929 . S
C1503 C1500 1.356 . S
C1503 C1505 1.358 . S
C1503 H1561 0.930 . S
C1504 N1501 1.314 . S
C1504 C1502 1.353 . S
C1504 H1562 0.930 . S
C1505 N1501 1.279 . S
C1505 C1503 1.358 . S
C1505 H1563 0.930 . S
C1506 C1509 1.348 . S
C1506 C1510 1.356 . S
C1506 O1557 1.325 . S
C1507 N1508 1.279 . S
C1507 C1510 1.358 . S
C1507 H1564 0.930 . S
N1508 C1507 1.279 . S
N1508 C1511 1.314 . S
C1509 C1506 1.348 . S
C1509 C1511 1.353 . S
C1509 H1565 0.929 . S
C1510 C1506 1.356 . S
C1510 C1507 1.358 . S
C1510 H1566 0.930 . S
C1511 N1508 1.314 . S
C1511 C1509 1.353 . S
C1511 H1567 0.930 . S
C1512 N1513 1.314 . S
C1512 C1517 1.353 . S
C1512 H1518 0.930 . S
N1513 Li1496 1.990 . S
N1513 C1512 1.314 . S
N1513 C1515 1.279 . S
C1514 C1515 1.358 . S
C1514 C1516 1.356 . S
C1514 H1568 0.930 . S
C1515 N1513 1.279 . S
C1515 C1514 1.358 . S
C1515 H1519 0.930 . S
C1516 C1514 1.356 . S
C1516 C1517 1.348 . S
C1517 C1512 1.353 . S
C1517 C1516 1.348 . S
C1517 H1569 0.929 . S
H1518 C1512 0.930 . S
H1519 C1515 0.930 . S
C1520 N1521 1.314 . S
C1520 C1522 1.353 . S
C1520 H1526 0.930 . S
N1521 Li1497 1.990 . S
N1521 C1520 1.314 . S
N1521 C1524 1.279 . S
C1522 C1520 1.353 . S
C1522 C1525 1.348 . S
C1522 H1570 0.929 . S
C1523 C1524 1.358 . S
C1523 C1525 1.356 . S
C1523 H1571 0.930 . S
C1524 N1521 1.279 . S
C1524 C1523 1.358 . S
C1524 H1527 0.930 . S
C1525 C1522 1.348 . S
C1525 C1523 1.356 . S
H1526 C1520 0.930 . S
H1527 C1524 0.930 . S
C1528 C1530 1.348 . S
C1528 C1531 1.356 . S
C1528 O1558 1.325 . S
N1529 C1532 1.314 . S
N1529 C1533 1.279 . S
C1530 C1528 1.348 . S
C1530 C1532 1.353 . S
C1530 H1572 0.929 . S
C1531 C1528 1.356 . S
C1531 C1533 1.358 . S
C1531 H1573 0.930 . S
C1532 N1529 1.314 . S
C1532 C1530 1.353 . S
C1532 H1574 0.930 . S
C1533 N1529 1.279 . S
C1533 C1531 1.358 . S
C1533 H1575 0.930 . S
C1534 C1535 1.348 . S
C1534 C1536 1.356 . S
C1534 O1559 1.325 . S
C1535 C1534 1.348 . S
C1535 C1537 1.353 . S
C1535 H1576 0.929 . S
C1536 C1534 1.356 . S
C1536 C1538 1.358 . S
C1536 H1577 0.930 . S
C1537 C1535 1.353 . S
C1537 N1539 1.314 . S
C1537 H1578 0.930 . S
C1538 C1536 1.358 . S
C1538 N1539 1.279 . S
C1538 H1579 0.930 . S
N1539 C1537 1.314 . S
N1539 C1538 1.279 . S
C1540 C1542 1.353 . S
C1540 N1543 1.314 . S
C1540 H1546 0.930 . S
C1541 N1543 1.279 . S
C1541 C1544 1.358 . S
C1541 H1547 0.930 . S
C1542 C1540 1.353 . S
C1542 C1545 1.348 . S
C1542 H1580 0.929 . S
N1543 Li1498 1.990 . S
N1543 C1540 1.314 . S
N1543 C1541 1.279 . S
C1544 C1541 1.358 . S
C1544 C1545 1.356 . S
C1544 H1581 0.930 . S
C1545 C1542 1.348 . S
C1545 C1544 1.356 . S
H1546 C1540 0.930 . S
H1547 C1541 0.930 . S
C1548 N1549 1.314 . S
C1548 C1550 1.353 . S
C1548 H1554 0.930 . S
N1549 Li1499 1.990 . S
N1549 C1548 1.314 . S
N1549 C1552 1.279 . S
C1550 C1548 1.353 . S
C1550 C1553 1.348 . S
C1550 H1582 0.929 . S
C1551 C1552 1.358 . S
C1551 C1553 1.356 . S
C1551 H1583 0.930 . S
C1552 N1549 1.279 . S
C1552 C1551 1.358 . S
C1552 H1555 0.930 . S
C1553 C1550 1.348 . S
C1553 C1551 1.356 . S
H1554 C1548 0.930 . S
H1555 C1552 0.930 . S
O1556 Li1496 1.956 . S
O1556 Li1497 1.970 . S
O1556 Li1498 1.961 . S
O1556 C1500 1.325 . S
O1557 Li1496 1.970 . S
O1557 Li1497 1.956 . S
O1557 Li1499 1.961 . S
O1557 C1506 1.325 . S
O1558 Li1496 1.961 . S
O1558 Li1498 1.956 . S
O1558 Li1499 1.970 . S
O1558 C1528 1.325 . S
O1559 Li1497 1.961 . S
O1559 Li1498 1.970 . S
O1559 Li1499 1.956 . S
O1559 C1534 1.325 . S
H1560 C1502 0.929 . S
H1561 C1503 0.930 . S
H1562 C1504 0.930 . S
H1563 C1505 0.930 . S
H1564 C1507 0.930 . S
H1565 C1509 0.929 . S
H1566 C1510 0.930 . S
H1567 C1511 0.930 . S
H1568 C1514 0.930 . S
H1569 C1517 0.929 . S
H1570 C1522 0.929 . S
H1571 C1523 0.930 . S
H1572 C1530 0.929 . S
H1573 C1531 0.930 . S
H1574 C1532 0.930 . S
H1575 C1533 0.930 . S
H1576 C1535 0.929 . S
H1577 C1536 0.930 . S
H1578 C1537 0.930 . S
H1579 C1538 0.930 . S
H1580 C1542 0.929 . S
H1581 C1544 0.930 . S
H1582 C1550 0.929 . S
H1583 C1551 0.930 . S
Li1584 N1601 1.990 . S
Li1584 O1644 1.956 . S
Li1584 O1645 1.970 . S
Li1584 O1646 1.961 . S
Li1585 N1609 1.990 . S
Li1585 O1644 1.970 . S
Li1585 O1645 1.956 . S
Li1585 O1647 1.961 . S
Li1586 N1631 1.990 . S
Li1586 O1644 1.961 . S
Li1586 O1646 1.956 . S
Li1586 O1647 1.970 . S
Li1587 N1637 1.990 . S
Li1587 O1645 1.961 . S
Li1587 O1646 1.970 . S
Li1587 O1647 1.956 . S
C1588 C1590 1.348 . S
C1588 C1591 1.356 . S
C1588 O1644 1.325 . S
N1589 C1592 1.314 . S
N1589 C1593 1.279 . S
C1590 C1588 1.348 . S
C1590 C1592 1.353 . S
C1590 H1648 0.929 . S
C1591 C1588 1.356 . S
C1591 C1593 1.358 . S
C1591 H1649 0.930 . S
C1592 N1589 1.314 . S
C1592 C1590 1.353 . S
C1592 H1650 0.930 . S
C1593 N1589 1.279 . S
C1593 C1591 1.358 . S
C1593 H1651 0.930 . S
C1594 C1597 1.348 . S
C1594 C1598 1.356 . S
C1594 O1645 1.325 . S
C1595 N1596 1.279 . S
C1595 C1598 1.358 . S
C1595 H1652 0.930 . S
N1596 C1595 1.279 . S
N1596 C1599 1.314 . S
C1597 C1594 1.348 . S
C1597 C1599 1.353 . S
C1597 H1653 0.929 . S
C1598 C1594 1.356 . S
C1598 C1595 1.358 . S
C1598 H1654 0.930 . S
C1599 N1596 1.314 . S
C1599 C1597 1.353 . S
C1599 H1655 0.930 . S
C1600 N1601 1.314 . S
C1600 C1605 1.353 . S
C1600 H1606 0.930 . S
N1601 Li1584 1.990 . S
N1601 C1600 1.314 . S
N1601 C1603 1.279 . S
C1602 C1603 1.358 . S
C1602 C1604 1.356 . S
C1602 H1656 0.930 . S
C1603 N1601 1.279 . S
C1603 C1602 1.358 . S
C1603 H1607 0.930 . S
C1604 C1602 1.356 . S
C1604 C1605 1.348 . S
C1605 C1600 1.353 . S
C1605 C1604 1.348 . S
C1605 H1657 0.918 1_554 S
H1606 C1600 0.930 . S
H1607 C1603 0.930 . S
C1608 N1609 1.314 . S
C1608 C1610 1.353 . S
C1608 H1614 0.930 . S
N1609 Li1585 1.990 . S
N1609 C1608 1.314 . S
N1609 C1612 1.279 . S
C1610 C1608 1.353 . S
C1610 C1613 1.348 . S
C1610 H1658 0.929 . S
C1611 C1612 1.358 . S
C1611 C1613 1.356 . S
C1611 H1659 0.930 . S
C1612 N1609 1.279 . S
C1612 C1611 1.358 . S
C1612 H1615 0.930 . S
C1613 C1610 1.348 . S
C1613 C1611 1.356 . S
H1614 C1608 0.930 . S
H1615 C1612 0.930 . S
C1616 C1618 1.348 . S
C1616 C1619 1.356 . S
C1616 O1646 1.325 . S
N1617 C1620 1.314 . S
N1617 C1621 1.279 . S
C1618 C1616 1.348 . S
C1618 C1620 1.353 1_554 S
C1618 H1660 0.929 . S
C1619 C1616 1.356 . S
C1619 C1621 1.358 1_554 S
C1619 H1661 0.930 . S
C1620 N1617 1.314 . S
C1620 C1618 1.353 1_556 S
C1620 H1662 0.930 . S
C1621 N1617 1.279 . S
C1621 C1619 1.358 1_556 S
C1621 H1663 0.930 . S
C1622 C1623 1.348 . S
C1622 C1624 1.356 . S
C1622 O1647 1.325 . S
C1623 C1622 1.348 . S
C1623 C1625 1.353 . S
C1623 H1664 0.929 . S
C1624 C1622 1.356 . S
C1624 C1626 1.358 . S
C1624 H1665 0.930 . S
C1625 C1623 1.353 . S
C1625 N1627 1.314 . S
C1625 H1666 0.930 . S
C1626 C1624 1.358 . S
C1626 N1627 1.279 . S
C1626 H1667 0.930 . S
N1627 C1625 1.314 . S
N1627 C1626 1.279 . S
C1628 C1630 1.353 . S
C1628 N1631 1.314 . S
C1628 H1634 0.930 . S
C1629 N1631 1.279 . S
C1629 C1632 1.358 . S
C1629 H1635 0.930 . S
C1630 C1628 1.353 . S
C1630 C1633 1.348 . S
C1630 H1668 0.929 . S
N1631 Li1586 1.990 . S
N1631 C1628 1.314 . S
N1631 C1629 1.279 . S
C1632 C1629 1.358 . S
C1632 C1633 1.356 . S
C1632 H1669 0.930 . S
C1633 C1630 1.348 . S
C1633 C1632 1.356 . S
H1634 C1628 0.930 . S
H1635 C1629 0.930 . S
C1636 N1637 1.314 . S
C1636 C1638 1.353 . S
C1636 H1642 0.930 . S
N1637 Li1587 1.990 . S
N1637 C1636 1.314 . S
N1637 C1640 1.279 . S
C1638 C1636 1.353 . S
C1638 C1641 1.348 . S
C1638 H1670 0.929 . S
C1639 C1640 1.358 . S
C1639 C1641 1.356 . S
C1639 H1671 0.930 . S
C1640 N1637 1.279 . S
C1640 C1639 1.358 . S
C1640 H1643 0.930 . S
C1641 C1638 1.348 . S
C1641 C1639 1.356 . S
H1642 C1636 0.930 . S
H1643 C1640 0.930 . S
O1644 Li1584 1.956 . S
O1644 Li1585 1.970 . S
O1644 Li1586 1.961 . S
O1644 C1588 1.325 . S
O1645 Li1584 1.970 . S
O1645 Li1585 1.956 . S
O1645 Li1587 1.961 . S
O1645 C1594 1.325 . S
O1646 Li1584 1.961 . S
O1646 Li1586 1.956 . S
O1646 Li1587 1.970 . S
O1646 C1616 1.325 . S
O1647 Li1585 1.961 . S
O1647 Li1586 1.970 . S
O1647 Li1587 1.956 . S
O1647 C1622 1.325 . S
H1648 C1590 0.929 . S
H1649 C1591 0.930 . S
H1650 C1592 0.930 . S
H1651 C1593 0.930 . S
H1652 C1595 0.930 . S
H1653 C1597 0.929 . S
H1654 C1598 0.930 . S
H1655 C1599 0.930 . S
H1656 C1602 0.930 . S
H1657 C1605 0.918 1_556 S
H1658 C1610 0.929 . S
H1659 C1611 0.930 . S
H1660 C1618 0.929 . S
H1661 C1619 0.930 . S
H1662 C1620 0.930 . S
H1663 C1621 0.930 . S
H1664 C1623 0.929 . S
H1665 C1624 0.930 . S
H1666 C1625 0.930 . S
H1667 C1626 0.930 . S
H1668 C1630 0.929 . S
H1669 C1632 0.930 . S
H1670 C1638 0.929 . S
H1671 C1639 0.930 . S
Li1672 N1689 1.990 . S
Li1672 O1732 1.956 . S
Li1672 O1733 1.970 . S
Li1672 O1734 1.961 . S
Li1673 N1697 1.990 . S
Li1673 O1732 1.970 . S
Li1673 O1733 1.956 . S
Li1673 O1735 1.961 . S
Li1674 N1719 1.990 . S
Li1674 O1732 1.961 . S
Li1674 O1734 1.956 . S
Li1674 O1735 1.970 . S
Li1675 N1725 1.990 . S
Li1675 O1733 1.961 . S
Li1675 O1734 1.970 . S
Li1675 O1735 1.956 . S
C1676 C1678 1.348 . S
C1676 C1679 1.356 . S
C1676 O1732 1.325 . S
N1677 C1680 1.314 . S
N1677 C1681 1.279 . S
C1678 C1676 1.348 . S
C1678 C1680 1.353 . S
C1678 H1736 0.929 . S
C1679 C1676 1.356 . S
C1679 C1681 1.358 . S
C1679 H1737 0.930 . S
C1680 N1677 1.314 . S
C1680 C1678 1.353 . S
C1680 H1738 0.930 . S
C1681 N1677 1.279 . S
C1681 C1679 1.358 . S
C1681 H1739 0.930 . S
C1682 C1685 1.348 . S
C1682 C1686 1.356 . S
C1682 O1733 1.325 . S
C1683 N1684 1.279 . S
C1683 C1686 1.358 . S
C1683 H1740 0.930 . S
N1684 C1683 1.279 . S
N1684 C1687 1.314 . S
C1685 C1682 1.348 . S
C1685 C1687 1.353 . S
C1685 H1741 0.929 . S
C1686 C1682 1.356 . S
C1686 C1683 1.358 . S
C1686 H1742 0.930 . S
C1687 N1684 1.314 . S
C1687 C1685 1.353 . S
C1687 H1743 0.930 . S
C1688 N1689 1.314 . S
C1688 C1693 1.353 . S
C1688 H1694 0.930 . S
N1689 Li1672 1.990 . S
N1689 C1688 1.314 . S
N1689 C1691 1.279 . S
C1690 C1691 1.358 . S
C1690 C1692 1.356 . S
C1690 H1744 0.930 . S
C1691 N1689 1.279 . S
C1691 C1690 1.358 . S
C1691 H1695 0.930 . S
C1692 C1690 1.356 . S
C1692 C1693 1.348 . S
C1693 C1688 1.353 . S
C1693 C1692 1.348 . S
C1693 H1745 0.929 . S
H1694 C1688 0.930 . S
H1695 C1691 0.930 . S
C1696 N1697 1.314 . S
C1696 C1698 1.353 . S
C1696 H1702 0.930 . S
N1697 Li1673 1.990 . S
N1697 C1696 1.314 . S
N1697 C1700 1.279 . S
C1698 C1696 1.353 . S
C1698 C1701 1.348 . S
C1698 H1746 0.929 . S
C1699 C1700 1.358 . S
C1699 C1701 1.356 . S
C1699 H1747 0.930 . S
C1700 N1697 1.279 . S
C1700 C1699 1.358 . S
C1700 H1703 0.930 . S
C1701 C1698 1.348 . S
C1701 C1699 1.356 . S
H1702 C1696 0.930 . S
H1703 C1700 0.930 . S
C1704 C1706 1.348 . S
C1704 C1707 1.356 . S
C1704 O1734 1.325 . S
N1705 C1708 1.314 . S
N1705 C1709 1.279 . S
C1706 C1704 1.348 . S
C1706 C1708 1.353 . S
C1706 H1748 0.929 . S
C1707 C1704 1.356 . S
C1707 C1709 1.358 . S
C1707 H1749 0.930 . S
C1708 N1705 1.314 . S
C1708 C1706 1.353 . S
C1708 H1750 0.930 . S
C1709 N1705 1.279 . S
C1709 C1707 1.358 . S
C1709 H1751 0.930 . S
C1710 C1711 1.348 . S
C1710 C1712 1.356 . S
C1710 O1735 1.325 . S
C1711 C1710 1.348 . S
C1711 C1713 1.353 . S
C1711 H1752 0.929 . S
C1712 C1710 1.356 . S
C1712 C1714 1.358 . S
C1712 H1753 0.930 . S
C1713 C1711 1.353 . S
C1713 N1715 1.314 . S
C1713 H1754 0.930 . S
C1714 C1712 1.358 . S
C1714 N1715 1.279 . S
C1714 H1755 0.930 . S
N1715 C1713 1.314 . S
N1715 C1714 1.279 . S
C1716 C1718 1.353 . S
C1716 N1719 1.314 . S
C1716 H1722 0.930 . S
C1717 N1719 1.279 . S
C1717 C1720 1.358 . S
C1717 H1723 0.930 . S
C1718 C1716 1.353 . S
C1718 C1721 1.348 . S
C1718 H1756 0.929 . S
N1719 Li1674 1.990 . S
N1719 C1716 1.314 . S
N1719 C1717 1.279 . S
C1720 C1717 1.358 . S
C1720 C1721 1.356 . S
C1720 H1757 0.930 . S
C1721 C1718 1.348 . S
C1721 C1720 1.356 . S
H1722 C1716 0.930 . S
H1723 C1717 0.930 . S
C1724 N1725 1.314 . S
C1724 C1726 1.353 . S
C1724 H1730 0.930 . S
N1725 Li1675 1.990 . S
N1725 C1724 1.314 . S
N1725 C1728 1.279 . S
C1726 C1724 1.353 . S
C1726 C1729 1.348 . S
C1726 H1758 0.929 . S
C1727 C1728 1.358 . S
C1727 C1729 1.356 . S
C1727 H1759 0.930 . S
C1728 N1725 1.279 . S
C1728 C1727 1.358 . S
C1728 H1731 0.930 . S
C1729 C1726 1.348 . S
C1729 C1727 1.356 . S
H1730 C1724 0.930 . S
H1731 C1728 0.930 . S
O1732 Li1672 1.956 . S
O1732 Li1673 1.970 . S
O1732 Li1674 1.961 . S
O1732 C1676 1.325 . S
O1733 Li1672 1.970 . S
O1733 Li1673 1.956 . S
O1733 Li1675 1.961 . S
O1733 C1682 1.325 . S
O1734 Li1672 1.961 . S
O1734 Li1674 1.956 . S
O1734 Li1675 1.970 . S
O1734 C1704 1.325 . S
O1735 Li1673 1.961 . S
O1735 Li1674 1.970 . S
O1735 Li1675 1.956 . S
O1735 C1710 1.325 . S
H1736 C1678 0.929 . S
H1737 C1679 0.930 . S
H1738 C1680 0.930 . S
H1739 C1681 0.930 . S
H1740 C1683 0.930 . S
H1741 C1685 0.929 . S
H1742 C1686 0.930 . S
H1743 C1687 0.930 . S
H1744 C1690 0.930 . S
H1745 C1693 0.929 . S
H1746 C1698 0.929 . S
H1747 C1699 0.930 . S
H1748 C1706 0.929 . S
H1749 C1707 0.930 . S
H1750 C1708 0.930 . S
H1751 C1709 0.930 . S
H1752 C1711 0.929 . S
H1753 C1712 0.930 . S
H1754 C1713 0.930 . S
H1755 C1714 0.930 . S
H1756 C1718 0.929 . S
H1757 C1720 0.930 . S
H1758 C1726 0.929 . S
H1759 C1727 0.930 . S
Li1760 N1777 1.990 . S
Li1760 O1820 1.956 . S
Li1760 O1821 1.970 . S
Li1760 O1822 1.961 . S
Li1761 N1785 1.990 . S
Li1761 O1820 1.970 . S
Li1761 O1821 1.956 . S
Li1761 O1823 1.961 . S
Li1762 N1807 1.990 . S
Li1762 O1820 1.961 . S
Li1762 O1822 1.956 . S
Li1762 O1823 1.970 . S
Li1763 N1813 1.990 . S
Li1763 O1821 1.961 . S
Li1763 O1822 1.970 . S
Li1763 O1823 1.956 . S
C1764 C1766 1.348 . S
C1764 C1767 1.356 . S
C1764 O1820 1.325 . S
N1765 C1768 1.314 . S
N1765 C1769 1.279 . S
C1766 C1764 1.348 . S
C1766 C1768 1.353 1_556 S
C1766 H1824 0.929 . S
C1767 C1764 1.356 . S
C1767 C1769 1.358 1_556 S
C1767 H1825 0.930 . S
C1768 N1765 1.314 . S
C1768 C1766 1.353 1_554 S
C1768 H1826 0.930 . S
C1769 N1765 1.279 . S
C1769 C1767 1.358 1_554 S
C1769 H1827 0.930 . S
C1770 C1773 1.348 . S
C1770 C1774 1.356 . S
C1770 O1821 1.325 . S
C1771 N1772 1.279 . S
C1771 C1774 1.358 . S
C1771 H1828 0.930 . S
N1772 C1771 1.279 . S
N1772 C1775 1.314 . S
C1773 C1770 1.348 . S
C1773 C1775 1.353 . S
C1773 H1829 0.929 . S
C1774 C1770 1.356 . S
C1774 C1771 1.358 . S
C1774 H1830 0.930 . S
C1775 N1772 1.314 . S
C1775 C1773 1.353 . S
C1775 H1831 0.930 . S
C1776 N1777 1.314 . S
C1776 C1781 1.353 . S
C1776 H1782 0.930 . S
N1777 Li1760 1.990 . S
N1777 C1776 1.314 . S
N1777 C1779 1.279 . S
C1778 C1779 1.358 . S
C1778 C1780 1.356 . S
C1778 H1832 0.930 . S
C1779 N1777 1.279 . S
C1779 C1778 1.358 . S
C1779 H1783 0.930 . S
C1780 C1778 1.356 . S
C1780 C1781 1.348 . S
C1781 C1776 1.353 . S
C1781 C1780 1.348 . S
C1781 H1833 0.929 . S
H1782 C1776 0.930 . S
H1783 C1779 0.930 . S
C1784 N1785 1.314 . S
C1784 C1786 1.353 . S
C1784 H1790 0.930 . S
N1785 Li1761 1.990 . S
N1785 C1784 1.314 . S
N1785 C1788 1.279 . S
C1786 C1784 1.353 . S
C1786 C1789 1.348 . S
C1786 H1834 0.929 . S
C1787 C1788 1.358 . S
C1787 C1789 1.356 . S
C1787 H1835 0.930 . S
C1788 N1785 1.279 . S
C1788 C1787 1.358 . S
C1788 H1791 0.930 . S
C1789 C1786 1.348 . S
C1789 C1787 1.356 . S
H1790 C1784 0.930 . S
H1791 C1788 0.930 . S
C1792 C1794 1.348 . S
C1792 C1795 1.356 . S
C1792 O1822 1.325 . S
N1793 C1796 1.314 . S
N1793 C1797 1.279 . S
C1794 C1792 1.348 . S
C1794 C1796 1.353 . S
C1794 H1836 0.929 . S
C1795 C1792 1.356 . S
C1795 C1797 1.358 . S
C1795 H1837 0.930 . S
C1796 N1793 1.314 . S
C1796 C1794 1.353 . S
C1796 H1838 0.930 . S
C1797 N1793 1.279 . S
C1797 C1795 1.358 . S
C1797 H1839 0.930 . S
C1798 C1799 1.348 . S
C1798 C1800 1.356 . S
C1798 O1823 1.325 . S
C1799 C1798 1.348 . S
C1799 C1801 1.353 . S
C1799 H1840 0.929 . S
C1800 C1798 1.356 . S
C1800 C1802 1.358 . S
C1800 H1841 0.930 . S
C1801 C1799 1.353 . S
C1801 N1803 1.314 . S
C1801 H1842 0.930 . S
C1802 C1800 1.358 . S
C1802 N1803 1.279 . S
C1802 H1843 0.930 . S
N1803 C1801 1.314 . S
N1803 C1802 1.279 . S
C1804 C1806 1.353 . S
C1804 N1807 1.314 . S
C1804 H1810 0.930 . S
C1805 N1807 1.279 . S
C1805 C1808 1.358 . S
C1805 H1811 0.930 . S
C1806 C1804 1.353 . S
C1806 C1809 1.348 . S
C1806 H1844 0.918 1_556 S
N1807 Li1762 1.990 . S
N1807 C1804 1.314 . S
N1807 C1805 1.279 . S
C1808 C1805 1.358 . S
C1808 C1809 1.356 . S
C1808 H1845 0.930 . S
C1809 C1806 1.348 . S
C1809 C1808 1.356 . S
H1810 C1804 0.930 . S
H1811 C1805 0.930 . S
C1812 N1813 1.314 . S
C1812 C1814 1.353 . S
C1812 H1818 0.930 . S
N1813 Li1763 1.990 . S
N1813 C1812 1.314 . S
N1813 C1816 1.279 . S
C1814 C1812 1.353 . S
C1814 C1817 1.348 . S
C1814 H1846 0.929 . S
C1815 C1816 1.358 . S
C1815 C1817 1.356 . S
C1815 H1847 0.930 . S
C1816 N1813 1.279 . S
C1816 C1815 1.358 . S
C1816 H1819 0.930 . S
C1817 C1814 1.348 . S
C1817 C1815 1.356 . S
H1818 C1812 0.930 . S
H1819 C1816 0.930 . S
O1820 Li1760 1.956 . S
O1820 Li1761 1.970 . S
O1820 Li1762 1.961 . S
O1820 C1764 1.325 . S
O1821 Li1760 1.970 . S
O1821 Li1761 1.956 . S
O1821 Li1763 1.961 . S
O1821 C1770 1.325 . S
O1822 Li1760 1.961 . S
O1822 Li1762 1.956 . S
O1822 Li1763 1.970 . S
O1822 C1792 1.325 . S
O1823 Li1761 1.961 . S
O1823 Li1762 1.970 . S
O1823 Li1763 1.956 . S
O1823 C1798 1.325 . S
H1824 C1766 0.929 . S
H1825 C1767 0.930 . S
H1826 C1768 0.930 . S
H1827 C1769 0.930 . S
H1828 C1771 0.930 . S
H1829 C1773 0.929 . S
H1830 C1774 0.930 . S
H1831 C1775 0.930 . S
H1832 C1778 0.930 . S
H1833 C1781 0.929 . S
H1834 C1786 0.929 . S
H1835 C1787 0.930 . S
H1836 C1794 0.929 . S
H1837 C1795 0.930 . S
H1838 C1796 0.930 . S
H1839 C1797 0.930 . S
H1840 C1799 0.929 . S
H1841 C1800 0.930 . S
H1842 C1801 0.930 . S
H1843 C1802 0.930 . S
H1844 C1806 0.918 1_554 S
H1845 C1808 0.930 . S
H1846 C1814 0.929 . S
H1847 C1815 0.930 . S
Li1848 N1865 1.990 . S
Li1848 O1908 1.956 . S
Li1848 O1909 1.970 . S
Li1848 O1910 1.961 . S
Li1849 N1873 1.990 . S
Li1849 O1908 1.970 . S
Li1849 O1909 1.956 . S
Li1849 O1911 1.961 . S
Li1850 N1895 1.990 . S
Li1850 O1908 1.961 . S
Li1850 O1910 1.956 . S
Li1850 O1911 1.970 . S
Li1851 N1901 1.990 . S
Li1851 O1909 1.961 . S
Li1851 O1910 1.970 . S
Li1851 O1911 1.956 . S
C1852 C1854 1.348 . S
C1852 C1855 1.356 . S
C1852 O1908 1.325 . S
N1853 C1856 1.314 . S
N1853 C1857 1.279 . S
C1854 C1852 1.348 . S
C1854 C1856 1.353 . S
C1854 H1912 0.929 . S
C1855 C1852 1.356 . S
C1855 C1857 1.358 . S
C1855 H1913 0.930 . S
C1856 N1853 1.314 . S
C1856 C1854 1.353 . S
C1856 H1914 0.930 . S
C1857 N1853 1.279 . S
C1857 C1855 1.358 . S
C1857 H1915 0.930 . S
C1858 C1861 1.348 . S
C1858 C1862 1.356 . S
C1858 O1909 1.325 . S
C1859 N1860 1.279 . S
C1859 C1862 1.358 . S
C1859 H1916 0.930 . S
N1860 C1859 1.279 . S
N1860 C1863 1.314 . S
C1861 C1858 1.348 . S
C1861 C1863 1.353 . S
C1861 H1917 0.929 . S
C1862 C1858 1.356 . S
C1862 C1859 1.358 . S
C1862 H1918 0.930 . S
C1863 N1860 1.314 . S
C1863 C1861 1.353 . S
C1863 H1919 0.930 . S
C1864 N1865 1.314 . S
C1864 C1869 1.353 . S
C1864 H1870 0.930 . S
N1865 Li1848 1.990 . S
N1865 C1864 1.314 . S
N1865 C1867 1.279 . S
C1866 C1867 1.358 . S
C1866 C1868 1.356 . S
C1866 H1920 0.930 . S
C1867 N1865 1.279 . S
C1867 C1866 1.358 . S
C1867 H1871 0.930 . S
C1868 C1866 1.356 . S
C1868 C1869 1.348 . S
C1869 C1864 1.353 . S
C1869 C1868 1.348 . S
C1869 H1921 0.929 . S
H1870 C1864 0.930 . S
H1871 C1867 0.930 . S
C1872 N1873 1.314 . S
C1872 C1874 1.353 . S
C1872 H1878 0.930 . S
N1873 Li1849 1.990 . S
N1873 C1872 1.314 . S
N1873 C1876 1.279 . S
C1874 C1872 1.353 . S
C1874 C1877 1.348 . S
C1874 H1922 0.929 . S
C1875 C1876 1.358 . S
C1875 C1877 1.356 . S
C1875 H1923 0.930 . S
C1876 N1873 1.279 . S
C1876 C1875 1.358 . S
C1876 H1879 0.930 . S
C1877 C1874 1.348 . S
C1877 C1875 1.356 . S
H1878 C1872 0.930 . S
H1879 C1876 0.930 . S
C1880 C1882 1.348 . S
C1880 C1883 1.356 . S
C1880 O1910 1.325 . S
N1881 C1884 1.314 . S
N1881 C1885 1.279 . S
C1882 C1880 1.348 . S
C1882 C1884 1.353 . S
C1882 H1924 0.929 . S
C1883 C1880 1.356 . S
C1883 C1885 1.358 . S
C1883 H1925 0.930 . S
C1884 N1881 1.314 . S
C1884 C1882 1.353 . S
C1884 H1926 0.930 . S
C1885 N1881 1.279 . S
C1885 C1883 1.358 . S
C1885 H1927 0.930 . S
C1886 C1887 1.348 . S
C1886 C1888 1.356 . S
C1886 O1911 1.325 . S
C1887 C1886 1.348 . S
C1887 C1889 1.353 . S
C1887 H1928 0.929 . S
C1888 C1886 1.356 . S
C1888 C1890 1.358 . S
C1888 H1929 0.930 . S
C1889 C1887 1.353 . S
C1889 N1891 1.314 . S
C1889 H1930 0.930 . S
C1890 C1888 1.358 . S
C1890 N1891 1.279 . S
C1890 H1931 0.930 . S
N1891 C1889 1.314 . S
N1891 C1890 1.279 . S
C1892 C1894 1.353 . S
C1892 N1895 1.314 . S
C1892 H1898 0.930 . S
C1893 N1895 1.279 . S
C1893 C1896 1.358 . S
C1893 H1899 0.930 . S
C1894 C1892 1.353 . S
C1894 C1897 1.348 . S
C1894 H1932 0.929 . S
N1895 Li1850 1.990 . S
N1895 C1892 1.314 . S
N1895 C1893 1.279 . S
C1896 C1893 1.358 . S
C1896 C1897 1.356 . S
C1896 H1933 0.930 . S
C1897 C1894 1.348 . S
C1897 C1896 1.356 . S
H1898 C1892 0.930 . S
H1899 C1893 0.930 . S
C1900 N1901 1.314 . S
C1900 C1902 1.353 . S
C1900 H1906 0.930 . S
N1901 Li1851 1.990 . S
N1901 C1900 1.314 . S
N1901 C1904 1.279 . S
C1902 C1900 1.353 . S
C1902 C1905 1.348 . S
C1902 H1934 0.929 . S
C1903 C1904 1.358 . S
C1903 C1905 1.356 . S
C1903 H1935 0.930 . S
C1904 N1901 1.279 . S
C1904 C1903 1.358 . S
C1904 H1907 0.930 . S
C1905 C1902 1.348 . S
C1905 C1903 1.356 . S
H1906 C1900 0.930 . S
H1907 C1904 0.930 . S
O1908 Li1848 1.956 . S
O1908 Li1849 1.970 . S
O1908 Li1850 1.961 . S
O1908 C1852 1.325 . S
O1909 Li1848 1.970 . S
O1909 Li1849 1.956 . S
O1909 Li1851 1.961 . S
O1909 C1858 1.325 . S
O1910 Li1848 1.961 . S
O1910 Li1850 1.956 . S
O1910 Li1851 1.970 . S
O1910 C1880 1.325 . S
O1911 Li1849 1.961 . S
O1911 Li1850 1.970 . S
O1911 Li1851 1.956 . S
O1911 C1886 1.325 . S
H1912 C1854 0.929 . S
H1913 C1855 0.930 . S
H1914 C1856 0.930 . S
H1915 C1857 0.930 . S
H1916 C1859 0.930 . S
H1917 C1861 0.929 . S
H1918 C1862 0.930 . S
H1919 C1863 0.930 . S
H1920 C1866 0.930 . S
H1921 C1869 0.929 . S
H1922 C1874 0.929 . S
H1923 C1875 0.930 . S
H1924 C1882 0.929 . S
H1925 C1883 0.930 . S
H1926 C1884 0.930 . S
H1927 C1885 0.930 . S
H1928 C1887 0.929 . S
H1929 C1888 0.930 . S
H1930 C1889 0.930 . S
H1931 C1890 0.930 . S
H1932 C1894 0.929 . S
H1933 C1896 0.930 . S
H1934 C1902 0.929 . S
H1935 C1903 0.930 . S
Li1936 N1953 1.990 . S
Li1936 O1996 1.956 . S
Li1936 O1997 1.970 . S
Li1936 O1998 1.961 . S
Li1937 N1961 1.990 . S
Li1937 O1996 1.970 . S
Li1937 O1997 1.956 . S
Li1937 O1999 1.961 . S
Li1938 N1983 1.990 . S
Li1938 O1996 1.961 . S
Li1938 O1998 1.956 . S
Li1938 O1999 1.970 . S
Li1939 N1989 1.990 . S
Li1939 O1997 1.961 . S
Li1939 O1998 1.970 . S
Li1939 O1999 1.956 . S
C1940 C1942 1.348 . S
C1940 C1943 1.356 . S
C1940 O1996 1.325 . S
N1941 C1944 1.314 . S
N1941 C1945 1.279 . S
C1942 C1940 1.348 . S
C1942 C1944 1.353 . S
C1942 H2000 0.929 . S
C1943 C1940 1.356 . S
C1943 C1945 1.358 . S
C1943 H2001 0.930 . S
C1944 N1941 1.314 . S
C1944 C1942 1.353 . S
C1944 H2002 0.930 . S
C1945 N1941 1.279 . S
C1945 C1943 1.358 . S
C1945 H2003 0.930 . S
C1946 C1949 1.348 . S
C1946 C1950 1.356 . S
C1946 O1997 1.325 . S
C1947 N1948 1.279 . S
C1947 C1950 1.358 . S
C1947 H2004 0.930 . S
N1948 C1947 1.279 . S
N1948 C1951 1.314 . S
C1949 C1946 1.348 . S
C1949 C1951 1.353 . S
C1949 H2005 0.929 . S
C1950 C1946 1.356 . S
C1950 C1947 1.358 . S
C1950 H2006 0.930 . S
C1951 N1948 1.314 . S
C1951 C1949 1.353 . S
C1951 H2007 0.930 . S
C1952 N1953 1.314 . S
C1952 C1957 1.353 . S
C1952 H1958 0.930 . S
N1953 Li1936 1.990 . S
N1953 C1952 1.314 . S
N1953 C1955 1.279 . S
C1954 C1955 1.358 . S
C1954 C1956 1.356 . S
C1954 H2008 0.930 . S
C1955 N1953 1.279 . S
C1955 C1954 1.358 . S
C1955 H1959 0.930 . S
C1956 C1954 1.356 . S
C1956 C1957 1.348 . S
C1957 C1952 1.353 . S
C1957 C1956 1.348 . S
C1957 H2009 0.929 . S
H1958 C1952 0.930 . S
H1959 C1955 0.930 . S
C1960 N1961 1.314 . S
C1960 C1962 1.353 . S
C1960 H1966 0.930 . S
N1961 Li1937 1.990 . S
N1961 C1960 1.314 . S
N1961 C1964 1.279 . S
C1962 C1960 1.353 . S
C1962 C1965 1.348 . S
C1962 H2010 0.929 . S
C1963 C1964 1.358 . S
C1963 C1965 1.356 . S
C1963 H2011 0.930 . S
C1964 N1961 1.279 . S
C1964 C1963 1.358 . S
C1964 H1967 0.930 . S
C1965 C1962 1.348 . S
C1965 C1963 1.356 . S
H1966 C1960 0.930 . S
H1967 C1964 0.930 . S
C1968 C1970 1.348 . S
C1968 C1971 1.356 . S
C1968 O1998 1.325 . S
N1969 C1972 1.314 . S
N1969 C1973 1.279 . S
C1970 C1968 1.348 . S
C1970 C1972 1.353 . S
C1970 H2012 0.929 . S
C1971 C1968 1.356 . S
C1971 C1973 1.358 . S
C1971 H2013 0.930 . S
C1972 N1969 1.314 . S
C1972 C1970 1.353 . S
C1972 H2014 0.930 . S
C1973 N1969 1.279 . S
C1973 C1971 1.358 . S
C1973 H2015 0.930 . S
C1974 C1975 1.348 . S
C1974 C1976 1.356 . S
C1974 O1999 1.325 . S
C1975 C1974 1.348 . S
C1975 C1977 1.353 . S
C1975 H2016 0.929 . S
C1976 C1974 1.356 . S
C1976 C1978 1.358 . S
C1976 H2017 0.930 . S
C1977 C1975 1.353 . S
C1977 N1979 1.314 . S
C1977 H2018 0.930 . S
C1978 C1976 1.358 . S
C1978 N1979 1.279 . S
C1978 H2019 0.930 . S
N1979 C1977 1.314 . S
N1979 C1978 1.279 . S
C1980 C1982 1.353 . S
C1980 N1983 1.314 . S
C1980 H1986 0.930 . S
C1981 N1983 1.279 . S
C1981 C1984 1.358 . S
C1981 H1987 0.930 . S
C1982 C1980 1.353 . S
C1982 C1985 1.348 . S
C1982 H2020 0.929 . S
N1983 Li1938 1.990 . S
N1983 C1980 1.314 . S
N1983 C1981 1.279 . S
C1984 C1981 1.358 . S
C1984 C1985 1.356 . S
C1984 H2021 0.930 . S
C1985 C1982 1.348 . S
C1985 C1984 1.356 . S
H1986 C1980 0.930 . S
H1987 C1981 0.930 . S
C1988 N1989 1.314 . S
C1988 C1990 1.353 . S
C1988 H1994 0.930 . S
N1989 Li1939 1.990 . S
N1989 C1988 1.314 . S
N1989 C1992 1.279 . S
C1990 C1988 1.353 . S
C1990 C1993 1.348 . S
C1990 H2022 0.929 . S
C1991 C1992 1.358 . S
C1991 C1993 1.356 . S
C1991 H2023 0.930 . S
C1992 N1989 1.279 . S
C1992 C1991 1.358 . S
C1992 H1995 0.930 . S
C1993 C1990 1.348 . S
C1993 C1991 1.356 . S
H1994 C1988 0.930 . S
H1995 C1992 0.930 . S
O1996 Li1936 1.956 . S
O1996 Li1937 1.970 . S
O1996 Li1938 1.961 . S
O1996 C1940 1.325 . S
O1997 Li1936 1.970 . S
O1997 Li1937 1.956 . S
O1997 Li1939 1.961 . S
O1997 C1946 1.325 . S
O1998 Li1936 1.961 . S
O1998 Li1938 1.956 . S
O1998 Li1939 1.970 . S
O1998 C1968 1.325 . S
O1999 Li1937 1.961 . S
O1999 Li1938 1.970 . S
O1999 Li1939 1.956 . S
O1999 C1974 1.325 . S
H2000 C1942 0.929 . S
H2001 C1943 0.930 . S
H2002 C1944 0.930 . S
H2003 C1945 0.930 . S
H2004 C1947 0.930 . S
H2005 C1949 0.929 . S
H2006 C1950 0.930 . S
H2007 C1951 0.930 . S
H2008 C1954 0.930 . S
H2009 C1957 0.929 . S
H2010 C1962 0.929 . S
H2011 C1963 0.930 . S
H2012 C1970 0.929 . S
H2013 C1971 0.930 . S
H2014 C1972 0.930 . S
H2015 C1973 0.930 . S
H2016 C1975 0.929 . S
H2017 C1976 0.930 . S
H2018 C1977 0.930 . S
H2019 C1978 0.930 . S
H2020 C1982 0.929 . S
H2021 C1984 0.930 . S
H2022 C1990 0.929 . S
H2023 C1991 0.930 . S
Li2024 N2041 1.990 . S
Li2024 O2084 1.956 . S
Li2024 O2085 1.970 . S
Li2024 O2086 1.961 . S
Li2025 N2049 1.990 . S
Li2025 O2084 1.970 . S
Li2025 O2085 1.956 . S
Li2025 O2087 1.961 . S
Li2026 N2071 1.990 . S
Li2026 O2084 1.961 . S
Li2026 O2086 1.956 . S
Li2026 O2087 1.970 . S
Li2027 N2077 1.990 . S
Li2027 O2085 1.961 . S
Li2027 O2086 1.970 . S
Li2027 O2087 1.956 . S
C2028 C2030 1.348 . S
C2028 C2031 1.356 . S
C2028 O2084 1.325 . S
N2029 C2032 1.314 . S
N2029 C2033 1.279 . S
C2030 C2028 1.348 . S
C2030 C2032 1.353 . S
C2030 H2088 0.929 . S
C2031 C2028 1.356 . S
C2031 C2033 1.358 . S
C2031 H2089 0.930 . S
C2032 N2029 1.314 . S
C2032 C2030 1.353 . S
C2032 H2090 0.930 . S
C2033 N2029 1.279 . S
C2033 C2031 1.358 . S
C2033 H2091 0.930 . S
C2034 C2037 1.348 . S
C2034 C2038 1.356 . S
C2034 O2085 1.325 . S
C2035 N2036 1.279 . S
C2035 C2038 1.358 . S
C2035 H2092 0.930 . S
N2036 C2035 1.279 . S
N2036 C2039 1.314 . S
C2037 C2034 1.348 . S
C2037 C2039 1.353 . S
C2037 H2093 0.929 . S
C2038 C2034 1.356 . S
C2038 C2035 1.358 . S
C2038 H2094 0.930 . S
C2039 N2036 1.314 . S
C2039 C2037 1.353 . S
C2039 H2095 0.930 . S
C2040 N2041 1.314 . S
C2040 C2045 1.353 . S
C2040 H2046 0.930 . S
N2041 Li2024 1.990 . S
N2041 C2040 1.314 . S
N2041 C2043 1.279 . S
C2042 C2043 1.358 . S
C2042 C2044 1.356 . S
C2042 H2096 0.930 . S
C2043 N2041 1.279 . S
C2043 C2042 1.358 . S
C2043 H2047 0.930 . S
C2044 C2042 1.356 . S
C2044 C2045 1.348 . S
C2045 C2040 1.353 . S
C2045 C2044 1.348 . S
C2045 H2097 0.929 . S
H2046 C2040 0.930 . S
H2047 C2043 0.930 . S
C2048 N2049 1.314 . S
C2048 C2050 1.353 . S
C2048 H2054 0.930 . S
N2049 Li2025 1.990 . S
N2049 C2048 1.314 . S
N2049 C2052 1.279 . S
C2050 C2048 1.353 . S
C2050 C2053 1.348 . S
C2050 H2098 0.929 . S
C2051 C2052 1.358 . S
C2051 C2053 1.356 . S
C2051 H2099 0.930 . S
C2052 N2049 1.279 . S
C2052 C2051 1.358 . S
C2052 H2055 0.930 . S
C2053 C2050 1.348 . S
C2053 C2051 1.356 . S
H2054 C2048 0.930 . S
H2055 C2052 0.930 . S
C2056 C2058 1.348 . S
C2056 C2059 1.356 . S
C2056 O2086 1.325 . S
N2057 C2060 1.314 . S
N2057 C2061 1.279 . S
C2058 C2056 1.348 . S
C2058 C2060 1.353 . S
C2058 H2100 0.929 . S
C2059 C2056 1.356 . S
C2059 C2061 1.358 . S
C2059 H2101 0.930 . S
C2060 N2057 1.314 . S
C2060 C2058 1.353 . S
C2060 H2102 0.930 . S
C2061 N2057 1.279 . S
C2061 C2059 1.358 . S
C2061 H2103 0.930 . S
C2062 C2063 1.348 . S
C2062 C2064 1.356 . S
C2062 O2087 1.325 . S
C2063 C2062 1.348 . S
C2063 C2065 1.353 . S
C2063 H2104 0.929 . S
C2064 C2062 1.356 . S
C2064 C2066 1.358 . S
C2064 H2105 0.930 . S
C2065 C2063 1.353 . S
C2065 N2067 1.314 . S
C2065 H2106 0.930 . S
C2066 C2064 1.358 . S
C2066 N2067 1.279 . S
C2066 H2107 0.930 . S
N2067 C2065 1.314 . S
N2067 C2066 1.279 . S
C2068 C2070 1.353 . S
C2068 N2071 1.314 . S
C2068 H2074 0.930 . S
C2069 N2071 1.279 . S
C2069 C2072 1.358 . S
C2069 H2075 0.930 . S
C2070 C2068 1.353 . S
C2070 C2073 1.348 . S
C2070 H2108 0.929 . S
N2071 Li2026 1.990 . S
N2071 C2068 1.314 . S
N2071 C2069 1.279 . S
C2072 C2069 1.358 . S
C2072 C2073 1.356 . S
C2072 H2109 0.930 . S
C2073 C2070 1.348 . S
C2073 C2072 1.356 . S
H2074 C2068 0.930 . S
H2075 C2069 0.930 . S
C2076 N2077 1.314 . S
C2076 C2078 1.353 . S
C2076 H2082 0.930 . S
N2077 Li2027 1.990 . S
N2077 C2076 1.314 . S
N2077 C2080 1.279 . S
C2078 C2076 1.353 . S
C2078 C2081 1.348 . S
C2078 H2110 0.929 . S
C2079 C2080 1.358 . S
C2079 C2081 1.356 . S
C2079 H2111 0.930 . S
C2080 N2077 1.279 . S
C2080 C2079 1.358 . S
C2080 H2083 0.930 . S
C2081 C2078 1.348 . S
C2081 C2079 1.356 . S
H2082 C2076 0.930 . S
H2083 C2080 0.930 . S
O2084 Li2024 1.956 . S
O2084 Li2025 1.970 . S
O2084 Li2026 1.961 . S
O2084 C2028 1.325 . S
O2085 Li2024 1.970 . S
O2085 Li2025 1.956 . S
O2085 Li2027 1.961 . S
O2085 C2034 1.325 . S
O2086 Li2024 1.961 . S
O2086 Li2026 1.956 . S
O2086 Li2027 1.970 . S
O2086 C2056 1.325 . S
O2087 Li2025 1.961 . S
O2087 Li2026 1.970 . S
O2087 Li2027 1.956 . S
O2087 C2062 1.325 . S
H2088 C2030 0.929 . S
H2089 C2031 0.930 . S
H2090 C2032 0.930 . S
H2091 C2033 0.930 . S
H2092 C2035 0.930 . S
H2093 C2037 0.929 . S
H2094 C2038 0.930 . S
H2095 C2039 0.930 . S
H2096 C2042 0.930 . S
H2097 C2045 0.929 . S
H2098 C2050 0.929 . S
H2099 C2051 0.930 . S
H2100 C2058 0.929 . S
H2101 C2059 0.930 . S
H2102 C2060 0.930 . S
H2103 C2061 0.930 . S
H2104 C2063 0.929 . S
H2105 C2064 0.930 . S
H2106 C2065 0.930 . S
H2107 C2066 0.930 . S
H2108 C2070 0.929 . S
H2109 C2072 0.930 . S
H2110 C2078 0.929 . S
H2111 C2079 0.930 . S
Li2112 N2129 1.990 . S
Li2112 O2172 1.956 . S
Li2112 O2173 1.970 . S
Li2112 O2174 1.961 . S
Li2113 N2137 1.990 . S
Li2113 O2172 1.970 . S
Li2113 O2173 1.956 . S
Li2113 O2175 1.961 . S
Li2114 N2159 1.990 . S
Li2114 O2172 1.961 . S
Li2114 O2174 1.956 . S
Li2114 O2175 1.970 . S
Li2115 N2165 1.990 . S
Li2115 O2173 1.961 . S
Li2115 O2174 1.970 . S
Li2115 O2175 1.956 . S
C2116 C2118 1.348 . S
C2116 C2119 1.356 . S
C2116 O2172 1.325 . S
N2117 C2120 1.314 . S
N2117 C2121 1.279 . S
C2118 C2116 1.348 . S
C2118 C2120 1.353 . S
C2118 H2176 0.929 . S
C2119 C2116 1.356 . S
C2119 C2121 1.358 . S
C2119 H2177 0.930 . S
C2120 N2117 1.314 . S
C2120 C2118 1.353 . S
C2120 H2178 0.930 . S
C2121 N2117 1.279 . S
C2121 C2119 1.358 . S
C2121 H2179 0.930 . S
C2122 C2125 1.348 . S
C2122 C2126 1.356 . S
C2122 O2173 1.325 . S
C2123 N2124 1.279 . S
C2123 C2126 1.358 . S
C2123 H2180 0.930 . S
N2124 C2123 1.279 . S
N2124 C2127 1.314 . S
C2125 C2122 1.348 . S
C2125 C2127 1.353 . S
C2125 H2181 0.929 . S
C2126 C2122 1.356 . S
C2126 C2123 1.358 . S
C2126 H2182 0.930 . S
C2127 N2124 1.314 . S
C2127 C2125 1.353 . S
C2127 H2183 0.930 . S
C2128 N2129 1.314 . S
C2128 C2133 1.353 . S
C2128 H2134 0.930 . S
N2129 Li2112 1.990 . S
N2129 C2128 1.314 . S
N2129 C2131 1.279 . S
C2130 C2131 1.358 . S
C2130 C2132 1.356 . S
C2130 H2184 0.930 . S
C2131 N2129 1.279 . S
C2131 C2130 1.358 . S
C2131 H2135 0.930 . S
C2132 C2130 1.356 . S
C2132 C2133 1.348 . S
C2133 C2128 1.353 . S
C2133 C2132 1.348 . S
C2133 H2185 0.929 . S
H2134 C2128 0.930 . S
H2135 C2131 0.930 . S
C2136 N2137 1.314 . S
C2136 C2138 1.353 . S
C2136 H2142 0.930 . S
N2137 Li2113 1.990 . S
N2137 C2136 1.314 . S
N2137 C2140 1.279 . S
C2138 C2136 1.353 . S
C2138 C2141 1.348 . S
C2138 H2186 0.929 . S
C2139 C2140 1.358 . S
C2139 C2141 1.356 . S
C2139 H2187 0.930 . S
C2140 N2137 1.279 . S
C2140 C2139 1.358 . S
C2140 H2143 0.930 . S
C2141 C2138 1.348 . S
C2141 C2139 1.356 . S
H2142 C2136 0.930 . S
H2143 C2140 0.930 . S
C2144 C2146 1.348 . S
C2144 C2147 1.356 . S
C2144 O2174 1.325 . S
N2145 C2148 1.314 . S
N2145 C2149 1.279 . S
C2146 C2144 1.348 . S
C2146 C2148 1.353 . S
C2146 H2188 0.929 . S
C2147 C2144 1.356 . S
C2147 C2149 1.358 . S
C2147 H2189 0.930 . S
C2148 N2145 1.314 . S
C2148 C2146 1.353 . S
C2148 H2190 0.930 . S
C2149 N2145 1.279 . S
C2149 C2147 1.358 . S
C2149 H2191 0.930 . S
C2150 C2151 1.348 . S
C2150 C2152 1.356 . S
C2150 O2175 1.325 . S
C2151 C2150 1.348 . S
C2151 C2153 1.353 . S
C2151 H2192 0.929 . S
C2152 C2150 1.356 . S
C2152 C2154 1.358 . S
C2152 H2193 0.930 . S
C2153 C2151 1.353 . S
C2153 N2155 1.314 . S
C2153 H2194 0.930 . S
C2154 C2152 1.358 . S
C2154 N2155 1.279 . S
C2154 H2195 0.930 . S
N2155 C2153 1.314 . S
N2155 C2154 1.279 . S
C2156 C2158 1.353 . S
C2156 N2159 1.314 . S
C2156 H2162 0.930 . S
C2157 N2159 1.279 . S
C2157 C2160 1.358 . S
C2157 H2163 0.930 . S
C2158 C2156 1.353 . S
C2158 C2161 1.348 . S
C2158 H2196 0.929 . S
N2159 Li2114 1.990 . S
N2159 C2156 1.314 . S
N2159 C2157 1.279 . S
C2160 C2157 1.358 . S
C2160 C2161 1.356 . S
C2160 H2197 0.930 . S
C2161 C2158 1.348 . S
C2161 C2160 1.356 . S
H2162 C2156 0.930 . S
H2163 C2157 0.930 . S
C2164 N2165 1.314 . S
C2164 C2166 1.353 . S
C2164 H2170 0.930 . S
N2165 Li2115 1.990 . S
N2165 C2164 1.314 . S
N2165 C2168 1.279 . S
C2166 C2164 1.353 . S
C2166 C2169 1.348 . S
C2166 H2198 0.929 . S
C2167 C2168 1.358 . S
C2167 C2169 1.356 . S
C2167 H2199 0.930 . S
C2168 N2165 1.279 . S
C2168 C2167 1.358 . S
C2168 H2171 0.930 . S
C2169 C2166 1.348 . S
C2169 C2167 1.356 . S
H2170 C2164 0.930 . S
H2171 C2168 0.930 . S
O2172 Li2112 1.956 . S
O2172 Li2113 1.970 . S
O2172 Li2114 1.961 . S
O2172 C2116 1.325 . S
O2173 Li2112 1.970 . S
O2173 Li2113 1.956 . S
O2173 Li2115 1.961 . S
O2173 C2122 1.325 . S
O2174 Li2112 1.961 . S
O2174 Li2114 1.956 . S
O2174 Li2115 1.970 . S
O2174 C2144 1.325 . S
O2175 Li2113 1.961 . S
O2175 Li2114 1.970 . S
O2175 Li2115 1.956 . S
O2175 C2150 1.325 . S
H2176 C2118 0.929 . S
H2177 C2119 0.930 . S
H2178 C2120 0.930 . S
H2179 C2121 0.930 . S
H2180 C2123 0.930 . S
H2181 C2125 0.929 . S
H2182 C2126 0.930 . S
H2183 C2127 0.930 . S
H2184 C2130 0.930 . S
H2185 C2133 0.929 . S
H2186 C2138 0.929 . S
H2187 C2139 0.930 . S
H2188 C2146 0.929 . S
H2189 C2147 0.930 . S
H2190 C2148 0.930 . S
H2191 C2149 0.930 . S
H2192 C2151 0.929 . S
H2193 C2152 0.930 . S
H2194 C2153 0.930 . S
H2195 C2154 0.930 . S
H2196 C2158 0.929 . S
H2197 C2160 0.930 . S
H2198 C2166 0.929 . S
H2199 C2167 0.930 . S
Li2200 N2217 1.990 . S
Li2200 O2260 1.956 . S
Li2200 O2261 1.970 . S
Li2200 O2262 1.961 . S
Li2201 N2225 1.990 . S
Li2201 O2260 1.970 . S
Li2201 O2261 1.956 . S
Li2201 O2263 1.961 . S
Li2202 N2247 1.990 . S
Li2202 O2260 1.961 . S
Li2202 O2262 1.956 . S
Li2202 O2263 1.970 . S
Li2203 N2253 1.990 . S
Li2203 O2261 1.961 . S
Li2203 O2262 1.970 . S
Li2203 O2263 1.956 . S
C2204 C2206 1.348 . S
C2204 C2207 1.356 . S
C2204 O2260 1.325 . S
N2205 C2208 1.314 . S
N2205 C2209 1.279 . S
C2206 C2204 1.348 . S
C2206 C2208 1.353 . S
C2206 H2264 0.929 . S
C2207 C2204 1.356 . S
C2207 C2209 1.358 . S
C2207 H2265 0.930 . S
C2208 N2205 1.314 . S
C2208 C2206 1.353 . S
C2208 H2266 0.930 . S
C2209 N2205 1.279 . S
C2209 C2207 1.358 . S
C2209 H2267 0.930 . S
C2210 C2213 1.348 . S
C2210 C2214 1.356 . S
C2210 O2261 1.325 . S
C2211 N2212 1.279 . S
C2211 C2214 1.358 . S
C2211 H2268 0.930 . S
N2212 C2211 1.279 . S
N2212 C2215 1.314 . S
C2213 C2210 1.348 . S
C2213 C2215 1.353 . S
C2213 H2269 0.929 . S
C2214 C2210 1.356 . S
C2214 C2211 1.358 . S
C2214 H2270 0.930 . S
C2215 N2212 1.314 . S
C2215 C2213 1.353 . S
C2215 H2271 0.930 . S
C2216 N2217 1.314 . S
C2216 C2221 1.353 . S
C2216 H2222 0.930 . S
N2217 Li2200 1.990 . S
N2217 C2216 1.314 . S
N2217 C2219 1.279 . S
C2218 C2219 1.358 . S
C2218 C2220 1.356 . S
C2218 H2272 0.930 . S
C2219 N2217 1.279 . S
C2219 C2218 1.358 . S
C2219 H2223 0.930 . S
C2220 C2218 1.356 . S
C2220 C2221 1.348 . S
C2221 C2216 1.353 . S
C2221 C2220 1.348 . S
C2221 H2273 0.929 . S
H2222 C2216 0.930 . S
H2223 C2219 0.930 . S
C2224 N2225 1.314 . S
C2224 C2226 1.353 . S
C2224 H2230 0.930 . S
N2225 Li2201 1.990 . S
N2225 C2224 1.314 . S
N2225 C2228 1.279 . S
C2226 C2224 1.353 . S
C2226 C2229 1.348 . S
C2226 H2274 0.929 . S
C2227 C2228 1.358 . S
C2227 C2229 1.356 . S
C2227 H2275 0.930 . S
C2228 N2225 1.279 . S
C2228 C2227 1.358 . S
C2228 H2231 0.930 . S
C2229 C2226 1.348 . S
C2229 C2227 1.356 . S
H2230 C2224 0.930 . S
H2231 C2228 0.930 . S
C2232 C2234 1.348 . S
C2232 C2235 1.356 . S
C2232 O2262 1.325 . S
N2233 C2236 1.314 . S
N2233 C2237 1.279 . S
C2234 C2232 1.348 . S
C2234 C2236 1.353 . S
C2234 H2276 0.929 . S
C2235 C2232 1.356 . S
C2235 C2237 1.358 . S
C2235 H2277 0.930 . S
C2236 N2233 1.314 . S
C2236 C2234 1.353 . S
C2236 H2278 0.930 . S
C2237 N2233 1.279 . S
C2237 C2235 1.358 . S
C2237 H2279 0.930 . S
C2238 C2239 1.348 . S
C2238 C2240 1.356 . S
C2238 O2263 1.325 . S
C2239 C2238 1.348 . S
C2239 C2241 1.353 . S
C2239 H2280 0.929 . S
C2240 C2238 1.356 . S
C2240 C2242 1.358 . S
C2240 H2281 0.930 . S
C2241 C2239 1.353 . S
C2241 N2243 1.314 . S
C2241 H2282 0.930 . S
C2242 C2240 1.358 . S
C2242 N2243 1.279 . S
C2242 H2283 0.930 . S
N2243 C2241 1.314 . S
N2243 C2242 1.279 . S
C2244 C2246 1.353 . S
C2244 N2247 1.314 . S
C2244 H2250 0.930 . S
C2245 N2247 1.279 . S
C2245 C2248 1.358 . S
C2245 H2251 0.930 . S
C2246 C2244 1.353 . S
C2246 C2249 1.348 . S
C2246 H2284 0.929 . S
N2247 Li2202 1.990 . S
N2247 C2244 1.314 . S
N2247 C2245 1.279 . S
C2248 C2245 1.358 . S
C2248 C2249 1.356 . S
C2248 H2285 0.930 . S
C2249 C2246 1.348 . S
C2249 C2248 1.356 . S
H2250 C2244 0.930 . S
H2251 C2245 0.930 . S
C2252 N2253 1.314 . S
C2252 C2254 1.353 . S
C2252 H2258 0.930 . S
N2253 Li2203 1.990 . S
N2253 C2252 1.314 . S
N2253 C2256 1.279 . S
C2254 C2252 1.353 . S
C2254 C2257 1.348 . S
C2254 H2286 0.929 . S
C2255 C2256 1.358 . S
C2255 C2257 1.356 . S
C2255 H2287 0.930 . S
C2256 N2253 1.279 . S
C2256 C2255 1.358 . S
C2256 H2259 0.930 . S
C2257 C2254 1.348 . S
C2257 C2255 1.356 . S
H2258 C2252 0.930 . S
H2259 C2256 0.930 . S
O2260 Li2200 1.956 . S
O2260 Li2201 1.970 . S
O2260 Li2202 1.961 . S
O2260 C2204 1.325 . S
O2261 Li2200 1.970 . S
O2261 Li2201 1.956 . S
O2261 Li2203 1.961 . S
O2261 C2210 1.325 . S
O2262 Li2200 1.961 . S
O2262 Li2202 1.956 . S
O2262 Li2203 1.970 . S
O2262 C2232 1.325 . S
O2263 Li2201 1.961 . S
O2263 Li2202 1.970 . S
O2263 Li2203 1.956 . S
O2263 C2238 1.325 . S
H2264 C2206 0.929 . S
H2265 C2207 0.930 . S
H2266 C2208 0.930 . S
H2267 C2209 0.930 . S
H2268 C2211 0.930 . S
H2269 C2213 0.929 . S
H2270 C2214 0.930 . S
H2271 C2215 0.930 . S
H2272 C2218 0.930 . S
H2273 C2221 0.929 . S
H2274 C2226 0.929 . S
H2275 C2227 0.930 . S
H2276 C2234 0.929 . S
H2277 C2235 0.930 . S
H2278 C2236 0.930 . S
H2279 C2237 0.930 . S
H2280 C2239 0.929 . S
H2281 C2240 0.930 . S
H2282 C2241 0.930 . S
H2283 C2242 0.930 . S
H2284 C2246 0.929 . S
H2285 C2248 0.930 . S
H2286 C2254 0.929 . S
H2287 C2255 0.930 . S
Li2288 N2305 1.990 . S
Li2288 O2348 1.956 . S
Li2288 O2349 1.970 . S
Li2288 O2350 1.961 . S
Li2289 N2313 1.990 . S
Li2289 O2348 1.970 . S
Li2289 O2349 1.956 . S
Li2289 O2351 1.961 . S
Li2290 N2335 1.990 . S
Li2290 O2348 1.961 . S
Li2290 O2350 1.956 . S
Li2290 O2351 1.970 . S
Li2291 N2341 1.990 . S
Li2291 O2349 1.961 . S
Li2291 O2350 1.970 . S
Li2291 O2351 1.956 . S
C2292 C2294 1.348 . S
C2292 C2295 1.356 . S
C2292 O2348 1.325 . S
N2293 C2296 1.314 . S
N2293 C2297 1.279 . S
C2294 C2292 1.348 . S
C2294 C2296 1.353 . S
C2294 H2352 0.929 . S
C2295 C2292 1.356 . S
C2295 C2297 1.358 . S
C2295 H2353 0.930 . S
C2296 N2293 1.314 . S
C2296 C2294 1.353 . S
C2296 H2354 0.930 . S
C2297 N2293 1.279 . S
C2297 C2295 1.358 . S
C2297 H2355 0.930 . S
C2298 C2301 1.348 . S
C2298 C2302 1.356 . S
C2298 O2349 1.325 . S
C2299 N2300 1.279 . S
C2299 C2302 1.358 1_554 S
C2299 H2356 0.930 . S
N2300 C2299 1.279 . S
N2300 C2303 1.314 . S
C2301 C2298 1.348 . S
C2301 C2303 1.353 1_556 S
C2301 H2357 0.929 . S
C2302 C2298 1.356 . S
C2302 C2299 1.358 1_556 S
C2302 H2358 0.930 . S
C2303 N2300 1.314 . S
C2303 C2301 1.353 1_554 S
C2303 H2359 0.930 . S
C2304 N2305 1.314 . S
C2304 C2309 1.353 . S
C2304 H2310 0.930 . S
N2305 Li2288 1.990 . S
N2305 C2304 1.314 . S
N2305 C2307 1.279 . S
C2306 C2307 1.358 . S
C2306 C2308 1.356 . S
C2306 H2360 0.930 . S
C2307 N2305 1.279 . S
C2307 C2306 1.358 . S
C2307 H2311 0.930 . S
C2308 C2306 1.356 . S
C2308 C2309 1.348 . S
C2309 C2304 1.353 . S
C2309 C2308 1.348 . S
C2309 H2361 0.929 . S
H2310 C2304 0.930 . S
H2311 C2307 0.930 . S
C2312 N2313 1.314 . S
C2312 C2314 1.353 . S
C2312 H2318 0.930 . S
N2313 Li2289 1.990 . S
N2313 C2312 1.314 . S
N2313 C2316 1.279 . S
C2314 C2312 1.353 . S
C2314 C2317 1.348 . S
C2314 H2362 0.929 . S
C2315 C2316 1.358 . S
C2315 C2317 1.356 . S
C2315 H2363 0.930 1_556 S
C2316 N2313 1.279 . S
C2316 C2315 1.358 . S
C2316 H2319 0.930 . S
C2317 C2314 1.348 . S
C2317 C2315 1.356 . S
H2318 C2312 0.930 . S
H2319 C2316 0.930 . S
C2320 C2322 1.348 . S
C2320 C2323 1.356 . S
C2320 O2350 1.325 . S
N2321 C2324 1.314 . S
N2321 C2325 1.279 . S
C2322 C2320 1.348 . S
C2322 C2324 1.353 . S
C2322 H2364 0.929 . S
C2323 C2320 1.356 . S
C2323 C2325 1.358 . S
C2323 H2365 0.930 . S
C2324 N2321 1.314 . S
C2324 C2322 1.353 . S
C2324 H2366 0.930 . S
C2325 N2321 1.279 . S
C2325 C2323 1.358 . S
C2325 H2367 0.930 . S
C2326 C2327 1.348 . S
C2326 C2328 1.356 . S
C2326 O2351 1.325 . S
C2327 C2326 1.348 . S
C2327 C2329 1.353 . S
C2327 H2368 0.929 . S
C2328 C2326 1.356 . S
C2328 C2330 1.358 . S
C2328 H2369 0.930 . S
C2329 C2327 1.353 . S
C2329 N2331 1.314 . S
C2329 H2370 0.930 . S
C2330 C2328 1.358 . S
C2330 N2331 1.279 . S
C2330 H2371 0.930 . S
N2331 C2329 1.314 . S
N2331 C2330 1.279 . S
C2332 C2334 1.353 . S
C2332 N2335 1.314 . S
C2332 H2338 0.930 . S
C2333 N2335 1.279 . S
C2333 C2336 1.358 . S
C2333 H2339 0.930 . S
C2334 C2332 1.353 . S
C2334 C2337 1.348 . S
C2334 H2372 0.929 . S
N2335 Li2290 1.990 . S
N2335 C2332 1.314 . S
N2335 C2333 1.279 . S
C2336 C2333 1.358 . S
C2336 C2337 1.356 . S
C2336 H2373 0.930 . S
C2337 C2334 1.348 . S
C2337 C2336 1.356 . S
H2338 C2332 0.930 . S
H2339 C2333 0.930 . S
C2340 N2341 1.314 . S
C2340 C2342 1.353 . S
C2340 H2346 0.930 . S
N2341 Li2291 1.990 . S
N2341 C2340 1.314 . S
N2341 C2344 1.279 . S
C2342 C2340 1.353 . S
C2342 C2345 1.348 . S
C2342 H2374 0.929 . S
C2343 C2344 1.358 . S
C2343 C2345 1.356 . S
C2343 H2375 0.930 . S
C2344 N2341 1.279 . S
C2344 C2343 1.358 . S
C2344 H2347 0.930 . S
C2345 C2342 1.348 . S
C2345 C2343 1.356 . S
H2346 C2340 0.930 . S
H2347 C2344 0.930 . S
O2348 Li2288 1.956 . S
O2348 Li2289 1.970 . S
O2348 Li2290 1.961 . S
O2348 C2292 1.325 . S
O2349 Li2288 1.970 . S
O2349 Li2289 1.956 . S
O2349 Li2291 1.961 . S
O2349 C2298 1.325 . S
O2350 Li2288 1.961 . S
O2350 Li2290 1.956 . S
O2350 Li2291 1.970 . S
O2350 C2320 1.325 . S
O2351 Li2289 1.961 . S
O2351 Li2290 1.970 . S
O2351 Li2291 1.956 . S
O2351 C2326 1.325 . S
H2352 C2294 0.929 . S
H2353 C2295 0.930 . S
H2354 C2296 0.930 . S
H2355 C2297 0.930 . S
H2356 C2299 0.930 . S
H2357 C2301 0.929 . S
H2358 C2302 0.930 . S
H2359 C2303 0.930 . S
H2360 C2306 0.930 . S
H2361 C2309 0.929 . S
H2362 C2314 0.929 . S
H2363 C2315 0.930 1_554 S
H2364 C2322 0.929 . S
H2365 C2323 0.930 . S
H2366 C2324 0.930 . S
H2367 C2325 0.930 . S
H2368 C2327 0.929 . S
H2369 C2328 0.930 . S
H2370 C2329 0.930 . S
H2371 C2330 0.930 . S
H2372 C2334 0.929 . S
H2373 C2336 0.930 . S
H2374 C2342 0.929 . S
H2375 C2343 0.930 . S
Li2376 N2393 1.990 . S
Li2376 O2436 1.956 . S
Li2376 O2437 1.970 . S
Li2376 O2438 1.961 . S
Li2377 N2401 1.990 . S
Li2377 O2436 1.970 . S
Li2377 O2437 1.956 . S
Li2377 O2439 1.961 . S
Li2378 N2423 1.990 . S
Li2378 O2436 1.961 . S
Li2378 O2438 1.956 . S
Li2378 O2439 1.970 . S
Li2379 N2429 1.990 . S
Li2379 O2437 1.961 . S
Li2379 O2438 1.970 . S
Li2379 O2439 1.956 . S
C2380 C2382 1.348 . S
C2380 C2383 1.356 . S
C2380 O2436 1.325 . S
N2381 C2384 1.314 . S
N2381 C2385 1.279 . S
C2382 C2380 1.348 . S
C2382 C2384 1.353 . S
C2382 H2440 0.929 . S
C2383 C2380 1.356 . S
C2383 C2385 1.358 . S
C2383 H2441 0.930 . S
C2384 N2381 1.314 . S
C2384 C2382 1.353 . S
C2384 H2442 0.930 . S
C2385 N2381 1.279 . S
C2385 C2383 1.358 . S
C2385 H2443 0.930 . S
C2386 C2389 1.348 . S
C2386 C2390 1.356 . S
C2386 O2437 1.325 . S
C2387 N2388 1.279 . S
C2387 C2390 1.358 . S
C2387 H2444 0.930 . S
N2388 C2387 1.279 . S
N2388 C2391 1.314 . S
C2389 C2386 1.348 . S
C2389 C2391 1.353 . S
C2389 H2445 0.929 . S
C2390 C2386 1.356 . S
C2390 C2387 1.358 . S
C2390 H2446 0.930 . S
C2391 N2388 1.314 . S
C2391 C2389 1.353 . S
C2391 H2447 0.930 . S
C2392 N2393 1.314 . S
C2392 C2397 1.353 . S
C2392 H2398 0.930 . S
N2393 Li2376 1.990 . S
N2393 C2392 1.314 . S
N2393 C2395 1.279 . S
C2394 C2395 1.358 . S
C2394 C2396 1.356 . S
C2394 H2448 0.930 . S
C2395 N2393 1.279 . S
C2395 C2394 1.358 . S
C2395 H2399 0.930 . S
C2396 C2394 1.356 . S
C2396 C2397 1.348 . S
C2397 C2392 1.353 . S
C2397 C2396 1.348 . S
C2397 H2449 0.929 . S
H2398 C2392 0.930 . S
H2399 C2395 0.930 . S
C2400 N2401 1.314 . S
C2400 C2402 1.353 . S
C2400 H2406 0.930 . S
N2401 Li2377 1.990 . S
N2401 C2400 1.314 . S
N2401 C2404 1.279 . S
C2402 C2400 1.353 . S
C2402 C2405 1.348 . S
C2402 H2450 0.929 . S
C2403 C2404 1.358 . S
C2403 C2405 1.356 . S
C2403 H2451 0.930 . S
C2404 N2401 1.279 . S
C2404 C2403 1.358 . S
C2404 H2407 0.930 . S
C2405 C2402 1.348 . S
C2405 C2403 1.356 . S
H2406 C2400 0.930 . S
H2407 C2404 0.930 . S
C2408 C2410 1.348 . S
C2408 C2411 1.356 . S
C2408 O2438 1.325 . S
N2409 C2412 1.314 . S
N2409 C2413 1.279 . S
C2410 C2408 1.348 . S
C2410 C2412 1.353 . S
C2410 H2452 0.929 . S
C2411 C2408 1.356 . S
C2411 C2413 1.358 . S
C2411 H2453 0.930 . S
C2412 N2409 1.314 . S
C2412 C2410 1.353 . S
C2412 H2454 0.930 . S
C2413 N2409 1.279 . S
C2413 C2411 1.358 . S
C2413 H2455 0.930 . S
C2414 C2415 1.348 . S
C2414 C2416 1.356 . S
C2414 O2439 1.325 . S
C2415 C2414 1.348 . S
C2415 C2417 1.353 . S
C2415 H2456 0.929 . S
C2416 C2414 1.356 . S
C2416 C2418 1.358 . S
C2416 H2457 0.930 . S
C2417 C2415 1.353 . S
C2417 N2419 1.314 . S
C2417 H2458 0.930 . S
C2418 C2416 1.358 . S
C2418 N2419 1.279 . S
C2418 H2459 0.930 . S
N2419 C2417 1.314 . S
N2419 C2418 1.279 . S
C2420 C2422 1.353 . S
C2420 N2423 1.314 . S
C2420 H2426 0.930 . S
C2421 N2423 1.279 . S
C2421 C2424 1.358 . S
C2421 H2427 0.930 . S
C2422 C2420 1.353 . S
C2422 C2425 1.348 . S
C2422 H2460 0.929 . S
N2423 Li2378 1.990 . S
N2423 C2420 1.314 . S
N2423 C2421 1.279 . S
C2424 C2421 1.358 . S
C2424 C2425 1.356 . S
C2424 H2461 0.930 . S
C2425 C2422 1.348 . S
C2425 C2424 1.356 . S
H2426 C2420 0.930 . S
H2427 C2421 0.930 . S
C2428 N2429 1.314 . S
C2428 C2430 1.353 . S
C2428 H2434 0.930 . S
N2429 Li2379 1.990 . S
N2429 C2428 1.314 . S
N2429 C2432 1.279 . S
C2430 C2428 1.353 . S
C2430 C2433 1.348 . S
C2430 H2462 0.929 . S
C2431 C2432 1.358 . S
C2431 C2433 1.356 . S
C2431 H2463 0.930 . S
C2432 N2429 1.279 . S
C2432 C2431 1.358 . S
C2432 H2435 0.930 . S
C2433 C2430 1.348 . S
C2433 C2431 1.356 . S
H2434 C2428 0.930 . S
H2435 C2432 0.930 . S
O2436 Li2376 1.956 . S
O2436 Li2377 1.970 . S
O2436 Li2378 1.961 . S
O2436 C2380 1.325 . S
O2437 Li2376 1.970 . S
O2437 Li2377 1.956 . S
O2437 Li2379 1.961 . S
O2437 C2386 1.325 . S
O2438 Li2376 1.961 . S
O2438 Li2378 1.956 . S
O2438 Li2379 1.970 . S
O2438 C2408 1.325 . S
O2439 Li2377 1.961 . S
O2439 Li2378 1.970 . S
O2439 Li2379 1.956 . S
O2439 C2414 1.325 . S
H2440 C2382 0.929 . S
H2441 C2383 0.930 . S
H2442 C2384 0.930 . S
H2443 C2385 0.930 . S
H2444 C2387 0.930 . S
H2445 C2389 0.929 . S
H2446 C2390 0.930 . S
H2447 C2391 0.930 . S
H2448 C2394 0.930 . S
H2449 C2397 0.929 . S
H2450 C2402 0.929 . S
H2451 C2403 0.930 . S
H2452 C2410 0.929 . S
H2453 C2411 0.930 . S
H2454 C2412 0.930 . S
H2455 C2413 0.930 . S
H2456 C2415 0.929 . S
H2457 C2416 0.930 . S
H2458 C2417 0.930 . S
H2459 C2418 0.930 . S
H2460 C2422 0.929 . S
H2461 C2424 0.930 . S
H2462 C2430 0.929 . S
H2463 C2431 0.930 . S
Li2464 N2481 1.990 . S
Li2464 O2524 1.956 . S
Li2464 O2525 1.970 . S
Li2464 O2526 1.961 . S
Li2465 N2489 1.990 . S
Li2465 O2524 1.970 . S
Li2465 O2525 1.956 . S
Li2465 O2527 1.961 . S
Li2466 N2511 1.990 . S
Li2466 O2524 1.961 . S
Li2466 O2526 1.956 . S
Li2466 O2527 1.970 . S
Li2467 N2517 1.990 . S
Li2467 O2525 1.961 . S
Li2467 O2526 1.970 . S
Li2467 O2527 1.956 . S
C2468 C2470 1.348 . S
C2468 C2471 1.356 . S
C2468 O2524 1.325 . S
N2469 C2472 1.314 . S
N2469 C2473 1.279 . S
C2470 C2468 1.348 . S
C2470 C2472 1.353 . S
C2470 H2528 0.929 . S
C2471 C2468 1.356 . S
C2471 C2473 1.358 . S
C2471 H2529 0.930 . S
C2472 N2469 1.314 . S
C2472 C2470 1.353 . S
C2472 H2530 0.930 . S
C2473 N2469 1.279 . S
C2473 C2471 1.358 . S
C2473 H2531 0.930 . S
C2474 C2477 1.348 . S
C2474 C2478 1.356 . S
C2474 O2525 1.325 . S
C2475 N2476 1.279 . S
C2475 C2478 1.358 . S
C2475 H2532 0.930 . S
N2476 C2475 1.279 . S
N2476 C2479 1.314 . S
C2477 C2474 1.348 . S
C2477 C2479 1.353 . S
C2477 H2533 0.929 . S
C2478 C2474 1.356 . S
C2478 C2475 1.358 . S
C2478 H2534 0.930 . S
C2479 N2476 1.314 . S
C2479 C2477 1.353 . S
C2479 H2535 0.930 . S
C2480 N2481 1.314 . S
C2480 C2485 1.353 . S
C2480 H2486 0.930 . S
N2481 Li2464 1.990 . S
N2481 C2480 1.314 . S
N2481 C2483 1.279 . S
C2482 C2483 1.358 . S
C2482 C2484 1.356 . S
C2482 H2536 0.930 . S
C2483 N2481 1.279 . S
C2483 C2482 1.358 . S
C2483 H2487 0.930 . S
C2484 C2482 1.356 . S
C2484 C2485 1.348 . S
C2485 C2480 1.353 . S
C2485 C2484 1.348 . S
C2485 H2537 0.929 . S
H2486 C2480 0.930 . S
H2487 C2483 0.930 . S
C2488 N2489 1.314 . S
C2488 C2490 1.353 . S
C2488 H2494 0.930 . S
N2489 Li2465 1.990 . S
N2489 C2488 1.314 . S
N2489 C2492 1.279 . S
C2490 C2488 1.353 . S
C2490 C2493 1.348 . S
C2490 H2538 0.929 . S
C2491 C2492 1.358 . S
C2491 C2493 1.356 . S
C2491 H2539 0.930 . S
C2492 N2489 1.279 . S
C2492 C2491 1.358 . S
C2492 H2495 0.930 . S
C2493 C2490 1.348 . S
C2493 C2491 1.356 . S
H2494 C2488 0.930 . S
H2495 C2492 0.930 . S
C2496 C2498 1.348 . S
C2496 C2499 1.356 . S
C2496 O2526 1.325 . S
N2497 C2500 1.314 . S
N2497 C2501 1.279 . S
C2498 C2496 1.348 . S
C2498 C2500 1.353 . S
C2498 H2540 0.929 . S
C2499 C2496 1.356 . S
C2499 C2501 1.358 . S
C2499 H2541 0.930 . S
C2500 N2497 1.314 . S
C2500 C2498 1.353 . S
C2500 H2542 0.930 . S
C2501 N2497 1.279 . S
C2501 C2499 1.358 . S
C2501 H2543 0.930 . S
C2502 C2503 1.348 . S
C2502 C2504 1.356 . S
C2502 O2527 1.325 . S
C2503 C2502 1.348 . S
C2503 C2505 1.353 1_554 S
C2503 H2544 0.929 . S
C2504 C2502 1.356 . S
C2504 C2506 1.358 1_554 S
C2504 H2545 0.930 . S
C2505 C2503 1.353 1_556 S
C2505 N2507 1.314 . S
C2505 H2546 0.930 . S
C2506 C2504 1.358 1_556 S
C2506 N2507 1.279 . S
C2506 H2547 0.930 . S
N2507 C2505 1.314 . S
N2507 C2506 1.279 . S
C2508 C2510 1.353 . S
C2508 N2511 1.314 . S
C2508 H2514 0.930 . S
C2509 N2511 1.279 . S
C2509 C2512 1.358 . S
C2509 H2515 0.930 . S
C2510 C2508 1.353 . S
C2510 C2513 1.348 . S
C2510 H2548 0.929 . S
N2511 Li2466 1.990 . S
N2511 C2508 1.314 . S
N2511 C2509 1.279 . S
C2512 C2509 1.358 . S
C2512 C2513 1.356 . S
C2512 H2549 0.930 . S
C2513 C2510 1.348 . S
C2513 C2512 1.356 . S
H2514 C2508 0.930 . S
H2515 C2509 0.930 . S
C2516 N2517 1.314 . S
C2516 C2518 1.353 . S
C2516 H2522 0.930 . S
N2517 Li2467 1.990 . S
N2517 C2516 1.314 . S
N2517 C2520 1.279 . S
C2518 C2516 1.353 . S
C2518 C2521 1.348 . S
C2518 H2550 0.929 . S
C2519 C2520 1.358 . S
C2519 C2521 1.356 . S
C2519 H2551 0.930 1_554 S
C2520 N2517 1.279 . S
C2520 C2519 1.358 . S
C2520 H2523 0.930 . S
C2521 C2518 1.348 . S
C2521 C2519 1.356 . S
H2522 C2516 0.930 . S
H2523 C2520 0.930 . S
O2524 Li2464 1.956 . S
O2524 Li2465 1.970 . S
O2524 Li2466 1.961 . S
O2524 C2468 1.325 . S
O2525 Li2464 1.970 . S
O2525 Li2465 1.956 . S
O2525 Li2467 1.961 . S
O2525 C2474 1.325 . S
O2526 Li2464 1.961 . S
O2526 Li2466 1.956 . S
O2526 Li2467 1.970 . S
O2526 C2496 1.325 . S
O2527 Li2465 1.961 . S
O2527 Li2466 1.970 . S
O2527 Li2467 1.956 . S
O2527 C2502 1.325 . S
H2528 C2470 0.929 . S
H2529 C2471 0.930 . S
H2530 C2472 0.930 . S
H2531 C2473 0.930 . S
H2532 C2475 0.930 . S
H2533 C2477 0.929 . S
H2534 C2478 0.930 . S
H2535 C2479 0.930 . S
H2536 C2482 0.930 . S
H2537 C2485 0.929 . S
H2538 C2490 0.929 . S
H2539 C2491 0.930 . S
H2540 C2498 0.929 . S
H2541 C2499 0.930 . S
H2542 C2500 0.930 . S
H2543 C2501 0.930 . S
H2544 C2503 0.929 . S
H2545 C2504 0.930 . S
H2546 C2505 0.930 . S
H2547 C2506 0.930 . S
H2548 C2510 0.929 . S
H2549 C2512 0.930 . S
H2550 C2518 0.929 . S
H2551 C2519 0.930 1_556 S
Li2552 N2569 1.990 . S
Li2552 O2612 1.956 . S
Li2552 O2613 1.970 . S
Li2552 O2614 1.961 . S
Li2553 N2577 1.990 . S
Li2553 O2612 1.970 . S
Li2553 O2613 1.956 . S
Li2553 O2615 1.961 . S
Li2554 N2599 1.990 . S
Li2554 O2612 1.961 . S
Li2554 O2614 1.956 . S
Li2554 O2615 1.970 . S
Li2555 N2605 1.990 . S
Li2555 O2613 1.961 . S
Li2555 O2614 1.970 . S
Li2555 O2615 1.956 . S
C2556 C2558 1.348 . S
C2556 C2559 1.356 . S
C2556 O2612 1.325 . S
N2557 C2560 1.314 . S
N2557 C2561 1.279 . S
C2558 C2556 1.348 . S
C2558 C2560 1.353 . S
C2558 H2616 0.929 . S
C2559 C2556 1.356 . S
C2559 C2561 1.358 . S
C2559 H2617 0.930 . S
C2560 N2557 1.314 . S
C2560 C2558 1.353 . S
C2560 H2618 0.930 . S
C2561 N2557 1.279 . S
C2561 C2559 1.358 . S
C2561 H2619 0.930 . S
C2562 C2565 1.348 . S
C2562 C2566 1.356 . S
C2562 O2613 1.325 . S
C2563 N2564 1.279 . S
C2563 C2566 1.358 . S
C2563 H2620 0.930 . S
N2564 C2563 1.279 . S
N2564 C2567 1.314 . S
C2565 C2562 1.348 . S
C2565 C2567 1.353 . S
C2565 H2621 0.929 . S
C2566 C2562 1.356 . S
C2566 C2563 1.358 . S
C2566 H2622 0.930 . S
C2567 N2564 1.314 . S
C2567 C2565 1.353 . S
C2567 H2623 0.930 . S
C2568 N2569 1.314 . S
C2568 C2573 1.353 . S
C2568 H2574 0.930 . S
N2569 Li2552 1.990 . S
N2569 C2568 1.314 . S
N2569 C2571 1.279 . S
C2570 C2571 1.358 . S
C2570 C2572 1.356 . S
C2570 H2624 0.930 . S
C2571 N2569 1.279 . S
C2571 C2570 1.358 . S
C2571 H2575 0.930 . S
C2572 C2570 1.356 . S
C2572 C2573 1.348 . S
C2573 C2568 1.353 . S
C2573 C2572 1.348 . S
C2573 H2625 0.929 . S
H2574 C2568 0.930 . S
H2575 C2571 0.930 . S
C2576 N2577 1.314 . S
C2576 C2578 1.353 . S
C2576 H2582 0.930 . S
N2577 Li2553 1.990 . S
N2577 C2576 1.314 . S
N2577 C2580 1.279 . S
C2578 C2576 1.353 . S
C2578 C2581 1.348 . S
C2578 H2626 0.929 . S
C2579 C2580 1.358 . S
C2579 C2581 1.356 . S
C2579 H2627 0.930 . S
C2580 N2577 1.279 . S
C2580 C2579 1.358 . S
C2580 H2583 0.930 . S
C2581 C2578 1.348 . S
C2581 C2579 1.356 . S
H2582 C2576 0.930 . S
H2583 C2580 0.930 . S
C2584 C2586 1.348 . S
C2584 C2587 1.356 . S
C2584 O2614 1.325 . S
N2585 C2588 1.314 . S
N2585 C2589 1.279 . S
C2586 C2584 1.348 . S
C2586 C2588 1.353 . S
C2586 H2628 0.929 . S
C2587 C2584 1.356 . S
C2587 C2589 1.358 . S
C2587 H2629 0.930 . S
C2588 N2585 1.314 . S
C2588 C2586 1.353 . S
C2588 H2630 0.930 . S
C2589 N2585 1.279 . S
C2589 C2587 1.358 . S
C2589 H2631 0.930 . S
C2590 C2591 1.348 . S
C2590 C2592 1.356 . S
C2590 O2615 1.325 . S
C2591 C2590 1.348 . S
C2591 C2593 1.353 . S
C2591 H2632 0.929 . S
C2592 C2590 1.356 . S
C2592 C2594 1.358 . S
C2592 H2633 0.930 . S
C2593 C2591 1.353 . S
C2593 N2595 1.314 . S
C2593 H2634 0.930 . S
C2594 C2592 1.358 . S
C2594 N2595 1.279 . S
C2594 H2635 0.930 . S
N2595 C2593 1.314 . S
N2595 C2594 1.279 . S
C2596 C2598 1.353 . S
C2596 N2599 1.314 . S
C2596 H2602 0.930 . S
C2597 N2599 1.279 . S
C2597 C2600 1.358 . S
C2597 H2603 0.930 . S
C2598 C2596 1.353 . S
C2598 C2601 1.348 . S
C2598 H2636 0.929 . S
N2599 Li2554 1.990 . S
N2599 C2596 1.314 . S
N2599 C2597 1.279 . S
C2600 C2597 1.358 . S
C2600 C2601 1.356 . S
C2600 H2637 0.930 . S
C2601 C2598 1.348 . S
C2601 C2600 1.356 . S
H2602 C2596 0.930 . S
H2603 C2597 0.930 . S
C2604 N2605 1.314 . S
C2604 C2606 1.353 . S
C2604 H2610 0.930 . S
N2605 Li2555 1.990 . S
N2605 C2604 1.314 . S
N2605 C2608 1.279 . S
C2606 C2604 1.353 . S
C2606 C2609 1.348 . S
C2606 H2638 0.929 . S
C2607 C2608 1.358 . S
C2607 C2609 1.356 . S
C2607 H2639 0.930 . S
C2608 N2605 1.279 . S
C2608 C2607 1.358 . S
C2608 H2611 0.930 . S
C2609 C2606 1.348 . S
C2609 C2607 1.356 . S
H2610 C2604 0.930 . S
H2611 C2608 0.930 . S
O2612 Li2552 1.956 . S
O2612 Li2553 1.970 . S
O2612 Li2554 1.961 . S
O2612 C2556 1.325 . S
O2613 Li2552 1.970 . S
O2613 Li2553 1.956 . S
O2613 Li2555 1.961 . S
O2613 C2562 1.325 . S
O2614 Li2552 1.961 . S
O2614 Li2554 1.956 . S
O2614 Li2555 1.970 . S
O2614 C2584 1.325 . S
O2615 Li2553 1.961 . S
O2615 Li2554 1.970 . S
O2615 Li2555 1.956 . S
O2615 C2590 1.325 . S
H2616 C2558 0.929 . S
H2617 C2559 0.930 . S
H2618 C2560 0.930 . S
H2619 C2561 0.930 . S
H2620 C2563 0.930 . S
H2621 C2565 0.929 . S
H2622 C2566 0.930 . S
H2623 C2567 0.930 . S
H2624 C2570 0.930 . S
H2625 C2573 0.929 . S
H2626 C2578 0.929 . S
H2627 C2579 0.930 . S
H2628 C2586 0.929 . S
H2629 C2587 0.930 . S
H2630 C2588 0.930 . S
H2631 C2589 0.930 . S
H2632 C2591 0.929 . S
H2633 C2592 0.930 . S
H2634 C2593 0.930 . S
H2635 C2594 0.930 . S
H2636 C2598 0.929 . S
H2637 C2600 0.930 . S
H2638 C2606 0.929 . S
H2639 C2607 0.930 . S
Li2640 N2657 1.990 . S
Li2640 O2700 1.956 . S
Li2640 O2701 1.970 . S
Li2640 O2702 1.961 . S
Li2641 N2665 1.990 . S
Li2641 O2700 1.970 . S
Li2641 O2701 1.956 . S
Li2641 O2703 1.961 . S
Li2642 N2687 1.990 . S
Li2642 O2700 1.961 . S
Li2642 O2702 1.956 . S
Li2642 O2703 1.970 . S
Li2643 N2693 1.990 . S
Li2643 O2701 1.961 . S
Li2643 O2702 1.970 . S
Li2643 O2703 1.956 . S
C2644 C2646 1.348 . S
C2644 C2647 1.356 . S
C2644 O2700 1.325 . S
N2645 C2648 1.314 . S
N2645 C2649 1.279 . S
C2646 C2644 1.348 . S
C2646 C2648 1.353 . S
C2646 H2704 0.929 . S
C2647 C2644 1.356 . S
C2647 C2649 1.358 . S
C2647 H2705 0.930 . S
C2648 N2645 1.314 . S
C2648 C2646 1.353 . S
C2648 H2706 0.930 . S
C2649 N2645 1.279 . S
C2649 C2647 1.358 . S
C2649 H2707 0.930 . S
C2650 C2653 1.348 . S
C2650 C2654 1.356 . S
C2650 O2701 1.325 . S
C2651 N2652 1.279 . S
C2651 C2654 1.358 . S
C2651 H2708 0.930 . S
N2652 C2651 1.279 . S
N2652 C2655 1.314 . S
C2653 C2650 1.348 . S
C2653 C2655 1.353 . S
C2653 H2709 0.929 . S
C2654 C2650 1.356 . S
C2654 C2651 1.358 . S
C2654 H2710 0.930 . S
C2655 N2652 1.314 . S
C2655 C2653 1.353 . S
C2655 H2711 0.930 . S
C2656 N2657 1.314 . S
C2656 C2661 1.353 . S
C2656 H2662 0.930 . S
N2657 Li2640 1.990 . S
N2657 C2656 1.314 . S
N2657 C2659 1.279 . S
C2658 C2659 1.358 . S
C2658 C2660 1.356 . S
C2658 H2712 0.930 . S
C2659 N2657 1.279 . S
C2659 C2658 1.358 . S
C2659 H2663 0.930 . S
C2660 C2658 1.356 . S
C2660 C2661 1.348 . S
C2661 C2656 1.353 . S
C2661 C2660 1.348 . S
C2661 H2713 0.929 . S
H2662 C2656 0.930 . S
H2663 C2659 0.930 . S
C2664 N2665 1.314 . S
C2664 C2666 1.353 . S
C2664 H2670 0.930 . S
N2665 Li2641 1.990 . S
N2665 C2664 1.314 . S
N2665 C2668 1.279 . S
C2666 C2664 1.353 . S
C2666 C2669 1.348 . S
C2666 H2714 0.929 . S
C2667 C2668 1.358 . S
C2667 C2669 1.356 . S
C2667 H2715 0.930 . S
C2668 N2665 1.279 . S
C2668 C2667 1.358 . S
C2668 H2671 0.930 . S
C2669 C2666 1.348 . S
C2669 C2667 1.356 . S
H2670 C2664 0.930 . S
H2671 C2668 0.930 . S
C2672 C2674 1.348 . S
C2672 C2675 1.356 . S
C2672 O2702 1.325 . S
N2673 C2676 1.314 . S
N2673 C2677 1.279 . S
C2674 C2672 1.348 . S
C2674 C2676 1.353 . S
C2674 H2716 0.929 . S
C2675 C2672 1.356 . S
C2675 C2677 1.358 . S
C2675 H2717 0.930 . S
C2676 N2673 1.314 . S
C2676 C2674 1.353 . S
C2676 H2718 0.930 . S
C2677 N2673 1.279 . S
C2677 C2675 1.358 . S
C2677 H2719 0.930 . S
C2678 C2679 1.348 . S
C2678 C2680 1.356 . S
C2678 O2703 1.325 . S
C2679 C2678 1.348 . S
C2679 C2681 1.353 . S
C2679 H2720 0.929 . S
C2680 C2678 1.356 . S
C2680 C2682 1.358 . S
C2680 H2721 0.930 . S
C2681 C2679 1.353 . S
C2681 N2683 1.314 . S
C2681 H2722 0.930 . S
C2682 C2680 1.358 . S
C2682 N2683 1.279 . S
C2682 H2723 0.930 . S
N2683 C2681 1.314 . S
N2683 C2682 1.279 . S
C2684 C2686 1.353 . S
C2684 N2687 1.314 . S
C2684 H2690 0.930 . S
C2685 N2687 1.279 . S
C2685 C2688 1.358 . S
C2685 H2691 0.930 . S
C2686 C2684 1.353 . S
C2686 C2689 1.348 . S
C2686 H2724 0.929 . S
N2687 Li2642 1.990 . S
N2687 C2684 1.314 . S
N2687 C2685 1.279 . S
C2688 C2685 1.358 . S
C2688 C2689 1.356 . S
C2688 H2725 0.930 . S
C2689 C2686 1.348 . S
C2689 C2688 1.356 . S
H2690 C2684 0.930 . S
H2691 C2685 0.930 . S
C2692 N2693 1.314 . S
C2692 C2694 1.353 . S
C2692 H2698 0.930 . S
N2693 Li2643 1.990 . S
N2693 C2692 1.314 . S
N2693 C2696 1.279 . S
C2694 C2692 1.353 . S
C2694 C2697 1.348 . S
C2694 H2726 0.929 . S
C2695 C2696 1.358 . S
C2695 C2697 1.356 . S
C2695 H2727 0.930 . S
C2696 N2693 1.279 . S
C2696 C2695 1.358 . S
C2696 H2699 0.930 . S
C2697 C2694 1.348 . S
C2697 C2695 1.356 . S
H2698 C2692 0.930 . S
H2699 C2696 0.930 . S
O2700 Li2640 1.956 . S
O2700 Li2641 1.970 . S
O2700 Li2642 1.961 . S
O2700 C2644 1.325 . S
O2701 Li2640 1.970 . S
O2701 Li2641 1.956 . S
O2701 Li2643 1.961 . S
O2701 C2650 1.325 . S
O2702 Li2640 1.961 . S
O2702 Li2642 1.956 . S
O2702 Li2643 1.970 . S
O2702 C2672 1.325 . S
O2703 Li2641 1.961 . S
O2703 Li2642 1.970 . S
O2703 Li2643 1.956 . S
O2703 C2678 1.325 . S
H2704 C2646 0.929 . S
H2705 C2647 0.930 . S
H2706 C2648 0.930 . S
H2707 C2649 0.930 . S
H2708 C2651 0.930 . S
H2709 C2653 0.929 . S
H2710 C2654 0.930 . S
H2711 C2655 0.930 . S
H2712 C2658 0.930 . S
H2713 C2661 0.929 . S
H2714 C2666 0.929 . S
H2715 C2667 0.930 . S
H2716 C2674 0.929 . S
H2717 C2675 0.930 . S
H2718 C2676 0.930 . S
H2719 C2677 0.930 . S
H2720 C2679 0.929 . S
H2721 C2680 0.930 . S
H2722 C2681 0.930 . S
H2723 C2682 0.930 . S
H2724 C2686 0.929 . S
H2725 C2688 0.930 . S
H2726 C2694 0.929 . S
H2727 C2695 0.930 . S
Li2728 N2745 1.990 . S
Li2728 O2788 1.956 . S
Li2728 O2789 1.970 . S
Li2728 O2790 1.961 . S
Li2729 N2753 1.990 . S
Li2729 O2788 1.970 . S
Li2729 O2789 1.956 . S
Li2729 O2791 1.961 . S
Li2730 N2775 1.990 . S
Li2730 O2788 1.961 . S
Li2730 O2790 1.956 . S
Li2730 O2791 1.970 . S
Li2731 N2781 1.990 . S
Li2731 O2789 1.961 . S
Li2731 O2790 1.970 . S
Li2731 O2791 1.956 . S
C2732 C2734 1.348 . S
C2732 C2735 1.356 . S
C2732 O2788 1.325 . S
N2733 C2736 1.314 . S
N2733 C2737 1.279 . S
C2734 C2732 1.348 . S
C2734 C2736 1.353 . S
C2734 H2792 0.929 . S
C2735 C2732 1.356 . S
C2735 C2737 1.358 . S
C2735 H2793 0.930 . S
C2736 N2733 1.314 . S
C2736 C2734 1.353 . S
C2736 H2794 0.930 . S
C2737 N2733 1.279 . S
C2737 C2735 1.358 . S
C2737 H2795 0.930 . S
C2738 C2741 1.348 . S
C2738 C2742 1.356 . S
C2738 O2789 1.325 . S
C2739 N2740 1.279 . S
C2739 C2742 1.358 . S
C2739 H2796 0.930 . S
N2740 C2739 1.279 . S
N2740 C2743 1.314 . S
C2741 C2738 1.348 . S
C2741 C2743 1.353 . S
C2741 H2797 0.929 . S
C2742 C2738 1.356 . S
C2742 C2739 1.358 . S
C2742 H2798 0.930 . S
C2743 N2740 1.314 . S
C2743 C2741 1.353 . S
C2743 H2799 0.930 . S
C2744 N2745 1.314 . S
C2744 C2749 1.353 . S
C2744 H2750 0.930 . S
N2745 Li2728 1.990 . S
N2745 C2744 1.314 . S
N2745 C2747 1.279 . S
C2746 C2747 1.358 . S
C2746 C2748 1.356 . S
C2746 H2800 0.930 . S
C2747 N2745 1.279 . S
C2747 C2746 1.358 . S
C2747 H2751 0.930 . S
C2748 C2746 1.356 . S
C2748 C2749 1.348 . S
C2749 C2744 1.353 . S
C2749 C2748 1.348 . S
C2749 H2801 0.929 . S
H2750 C2744 0.930 . S
H2751 C2747 0.930 . S
C2752 N2753 1.314 . S
C2752 C2754 1.353 . S
C2752 H2758 0.930 . S
N2753 Li2729 1.990 . S
N2753 C2752 1.314 . S
N2753 C2756 1.279 . S
C2754 C2752 1.353 . S
C2754 C2757 1.348 . S
C2754 H2802 0.929 . S
C2755 C2756 1.358 . S
C2755 C2757 1.356 . S
C2755 H2803 0.930 . S
C2756 N2753 1.279 . S
C2756 C2755 1.358 . S
C2756 H2759 0.930 . S
C2757 C2754 1.348 . S
C2757 C2755 1.356 . S
H2758 C2752 0.930 . S
H2759 C2756 0.930 . S
C2760 C2762 1.348 . S
C2760 C2763 1.356 . S
C2760 O2790 1.325 . S
N2761 C2764 1.314 . S
N2761 C2765 1.279 . S
C2762 C2760 1.348 . S
C2762 C2764 1.353 . S
C2762 H2804 0.929 . S
C2763 C2760 1.356 . S
C2763 C2765 1.358 . S
C2763 H2805 0.930 . S
C2764 N2761 1.314 . S
C2764 C2762 1.353 . S
C2764 H2806 0.930 . S
C2765 N2761 1.279 . S
C2765 C2763 1.358 . S
C2765 H2807 0.930 . S
C2766 C2767 1.348 . S
C2766 C2768 1.356 . S
C2766 O2791 1.325 . S
C2767 C2766 1.348 . S
C2767 C2769 1.353 . S
C2767 H2808 0.929 . S
C2768 C2766 1.356 . S
C2768 C2770 1.358 . S
C2768 H2809 0.930 . S
C2769 C2767 1.353 . S
C2769 N2771 1.314 . S
C2769 H2810 0.930 . S
C2770 C2768 1.358 . S
C2770 N2771 1.279 . S
C2770 H2811 0.930 . S
N2771 C2769 1.314 . S
N2771 C2770 1.279 . S
C2772 C2774 1.353 . S
C2772 N2775 1.314 . S
C2772 H2778 0.930 . S
C2773 N2775 1.279 . S
C2773 C2776 1.358 . S
C2773 H2779 0.930 . S
C2774 C2772 1.353 . S
C2774 C2777 1.348 . S
C2774 H2812 0.929 . S
N2775 Li2730 1.990 . S
N2775 C2772 1.314 . S
N2775 C2773 1.279 . S
C2776 C2773 1.358 . S
C2776 C2777 1.356 . S
C2776 H2813 0.930 . S
C2777 C2774 1.348 . S
C2777 C2776 1.356 . S
H2778 C2772 0.930 . S
H2779 C2773 0.930 . S
C2780 N2781 1.314 . S
C2780 C2782 1.353 . S
C2780 H2786 0.930 . S
N2781 Li2731 1.990 . S
N2781 C2780 1.314 . S
N2781 C2784 1.279 . S
C2782 C2780 1.353 . S
C2782 C2785 1.348 . S
C2782 H2814 0.929 . S
C2783 C2784 1.358 . S
C2783 C2785 1.356 . S
C2783 H2815 0.930 . S
C2784 N2781 1.279 . S
C2784 C2783 1.358 . S
C2784 H2787 0.930 . S
C2785 C2782 1.348 . S
C2785 C2783 1.356 . S
H2786 C2780 0.930 . S
H2787 C2784 0.930 . S
O2788 Li2728 1.956 . S
O2788 Li2729 1.970 . S
O2788 Li2730 1.961 . S
O2788 C2732 1.325 . S
O2789 Li2728 1.970 . S
O2789 Li2729 1.956 . S
O2789 Li2731 1.961 . S
O2789 C2738 1.325 . S
O2790 Li2728 1.961 . S
O2790 Li2730 1.956 . S
O2790 Li2731 1.970 . S
O2790 C2760 1.325 . S
O2791 Li2729 1.961 . S
O2791 Li2730 1.970 . S
O2791 Li2731 1.956 . S
O2791 C2766 1.325 . S
H2792 C2734 0.929 . S
H2793 C2735 0.930 . S
H2794 C2736 0.930 . S
H2795 C2737 0.930 . S
H2796 C2739 0.930 . S
H2797 C2741 0.929 . S
H2798 C2742 0.930 . S
H2799 C2743 0.930 . S
H2800 C2746 0.930 . S
H2801 C2749 0.929 . S
H2802 C2754 0.929 . S
H2803 C2755 0.930 . S
H2804 C2762 0.929 . S
H2805 C2763 0.930 . S
H2806 C2764 0.930 . S
H2807 C2765 0.930 . S
H2808 C2767 0.929 . S
H2809 C2768 0.930 . S
H2810 C2769 0.930 . S
H2811 C2770 0.930 . S
H2812 C2774 0.929 . S
H2813 C2776 0.930 . S
H2814 C2782 0.929 . S
H2815 C2783 0.930 . S
H2816 C2824 0.950 . S
H2817 C2829 0.950 . S
H2818 C2826 0.950 . S
H2819 C2828 0.950 1_455 S
H2820 C2830 0.950 . S
H2821 C2832 0.950 . S
H2822 C2834 0.950 1_655 S
H2823 C2835 0.950 . S
C2824 H2816 0.950 . S
C2824 C2825 1.386 . S
C2824 C2826 1.391 . S
C2825 C2824 1.386 . S
C2825 C2829 1.393 . S
C2826 H2818 0.950 . S
C2826 C2824 1.391 . S
C2826 C2827 1.400 . S
C2827 C2826 1.400 . S
C2827 C2828 1.398 . S
C2827 C2833 1.491 1_656 S
C2828 H2819 0.950 1_655 S
C2828 C2827 1.398 . S
C2828 C2829 1.391 . S
C2829 H2817 0.950 . S
C2829 C2825 1.393 . S
C2829 C2828 1.391 . S
C2830 H2820 0.950 . S
C2830 C2831 1.386 . S
C2830 C2832 1.391 . S
C2831 C2830 1.386 . S
C2831 C2835 1.393 . S
C2832 H2821 0.950 . S
C2832 C2830 1.391 . S
C2832 C2833 1.400 . S
C2833 C2827 1.491 1_454 S
C2833 C2832 1.400 . S
C2833 C2834 1.398 . S
C2834 H2822 0.950 1_455 S
C2834 C2833 1.398 . S
C2834 C2835 1.391 . S
C2835 H2823 0.950 . S
C2835 C2831 1.393 . S
C2835 C2834 1.391 . S
H2836 C2844 0.950 . S
H2837 C2849 0.950 . S
H2838 C2846 0.950 . S
H2839 C2848 0.950 . S
H2840 C2850 0.950 . S
H2841 C2852 0.950 . S
H2842 C2854 0.950 . S
H2843 C2855 0.950 . S
C2844 H2836 0.950 . S
C2844 C2845 1.386 . S
C2844 C2846 1.391 . S
C2845 C2844 1.386 . S
C2845 C2849 1.393 . S
C2846 H2838 0.950 . S
C2846 C2844 1.391 . S
C2846 C2847 1.400 . S
C2847 C2846 1.400 . S
C2847 C2848 1.398 . S
C2847 C2853 1.491 . S
C2848 H2839 0.950 . S
C2848 C2847 1.398 . S
C2848 C2849 1.391 . S
C2849 H2837 0.950 . S
C2849 C2845 1.393 . S
C2849 C2848 1.391 . S
C2850 H2840 0.950 . S
C2850 C2851 1.386 . S
C2850 C2852 1.391 . S
C2851 C2850 1.386 . S
C2851 C2855 1.393 . S
C2852 H2841 0.950 . S
C2852 C2850 1.391 . S
C2852 C2853 1.400 . S
C2853 C2847 1.491 . S
C2853 C2852 1.400 . S
C2853 C2854 1.398 . S
C2854 H2842 0.950 . S
C2854 C2853 1.398 . S
C2854 C2855 1.391 . S
C2855 H2843 0.950 . S
C2855 C2851 1.393 . S
C2855 C2854 1.391 . S
H2856 C2864 0.950 . S
H2857 C2869 0.950 . S
H2858 C2866 0.950 . S
H2859 C2868 0.950 . S
H2860 C2870 0.950 . S
H2861 C2872 0.950 . S
H2862 C2874 0.950 . S
H2863 C2875 0.950 . S
C2864 H2856 0.950 . S
C2864 C2865 1.386 . S
C2864 C2866 1.391 . S
C2865 C2864 1.386 . S
C2865 C2869 1.393 . S
C2866 H2858 0.950 . S
C2866 C2864 1.391 . S
C2866 C2867 1.400 . S
C2867 C2866 1.400 . S
C2867 C2868 1.398 . S
C2867 C2873 1.491 . S
C2868 H2859 0.950 . S
C2868 C2867 1.398 . S
C2868 C2869 1.391 . S
C2869 H2857 0.950 . S
C2869 C2865 1.393 . S
C2869 C2868 1.391 . S
C2870 H2860 0.950 . S
C2870 C2871 1.386 . S
C2870 C2872 1.391 . S
C2871 C2870 1.386 . S
C2871 C2875 1.393 . S
C2872 H2861 0.950 . S
C2872 C2870 1.391 . S
C2872 C2873 1.400 . S
C2873 C2867 1.491 . S
C2873 C2872 1.400 . S
C2873 C2874 1.398 . S
C2874 H2862 0.950 . S
C2874 C2873 1.398 . S
C2874 C2875 1.391 . S
C2875 H2863 0.950 . S
C2875 C2871 1.393 . S
C2875 C2874 1.391 . S
H2876 C2884 0.950 . S
H2877 C2889 0.950 . S
H2878 C2886 0.950 . S
H2879 C2888 0.950 . S
H2880 C2890 0.950 . S
H2881 C2892 0.950 . S
H2882 C2894 0.950 . S
H2883 C2895 0.950 . S
C2884 H2876 0.950 . S
C2884 C2885 1.386 . S
C2884 C2886 1.391 . S
C2885 C2884 1.386 . S
C2885 C2889 1.393 . S
C2886 H2878 0.950 . S
C2886 C2884 1.391 . S
C2886 C2887 1.400 . S
C2887 C2886 1.400 . S
C2887 C2888 1.398 . S
C2887 C2893 1.491 . S
C2888 H2879 0.950 . S
C2888 C2887 1.398 . S
C2888 C2889 1.391 . S
C2889 H2877 0.950 . S
C2889 C2885 1.393 . S
C2889 C2888 1.391 . S
C2890 H2880 0.950 . S
C2890 C2891 1.386 . S
C2890 C2892 1.391 . S
C2891 C2890 1.386 . S
C2891 C2895 1.393 . S
C2892 H2881 0.950 . S
C2892 C2890 1.391 . S
C2892 C2893 1.400 . S
C2893 C2887 1.491 . S
C2893 C2892 1.400 . S
C2893 C2894 1.398 . S
C2894 H2882 0.950 . S
C2894 C2893 1.398 . S
C2894 C2895 1.391 . S
C2895 H2883 0.950 . S
C2895 C2891 1.393 . S
C2895 C2894 1.391 . S
H2896 C2904 0.950 . S
H2897 C2909 0.950 . S
H2898 C2906 0.950 1_455 S
H2899 C2908 0.950 . S
H2900 C2910 0.950 . S
H2901 C2912 0.950 1_655 S
H2902 C2914 0.950 . S
H2903 C2915 0.950 . S
C2904 H2896 0.950 . S
C2904 C2905 1.386 . S
C2904 C2906 1.391 . S
C2905 C2904 1.386 . S
C2905 C2909 1.393 . S
C2906 H2898 0.950 1_655 S
C2906 C2904 1.391 . S
C2906 C2907 1.400 . S
C2907 C2906 1.400 . S
C2907 C2908 1.398 . S
C2907 C2913 1.491 1_655 S
C2908 H2899 0.950 . S
C2908 C2907 1.398 . S
C2908 C2909 1.391 . S
C2909 H2897 0.950 . S
C2909 C2905 1.393 . S
C2909 C2908 1.391 . S
C2910 H2900 0.950 . S
C2910 C2911 1.386 . S
C2910 C2912 1.391 . S
C2911 C2910 1.386 . S
C2911 C2915 1.393 . S
C2912 H2901 0.950 1_455 S
C2912 C2910 1.391 . S
C2912 C2913 1.400 . S
C2913 C2907 1.491 1_455 S
C2913 C2912 1.400 . S
C2913 C2914 1.398 . S
C2914 H2902 0.950 . S
C2914 C2913 1.398 . S
C2914 C2915 1.391 . S
C2915 H2903 0.950 . S
C2915 C2911 1.393 . S
C2915 C2914 1.391 . S
H2916 C2924 0.950 . S
H2917 C2929 0.950 . S
H2918 C2926 0.950 . S
H2919 C2928 0.950 . S
H2920 C2930 0.950 . S
H2921 C2932 0.950 . S
H2922 C2934 0.950 . S
H2923 C2935 0.950 . S
C2924 H2916 0.950 . S
C2924 C2925 1.386 . S
C2924 C2926 1.391 . S
C2925 C2924 1.386 . S
C2925 C2929 1.393 . S
C2926 H2918 0.950 . S
C2926 C2924 1.391 . S
C2926 C2927 1.400 . S
C2927 C2926 1.400 . S
C2927 C2928 1.398 . S
C2927 C2933 1.491 . S
C2928 H2919 0.950 . S
C2928 C2927 1.398 . S
C2928 C2929 1.391 . S
C2929 H2917 0.950 . S
C2929 C2925 1.393 . S
C2929 C2928 1.391 . S
C2930 H2920 0.950 . S
C2930 C2931 1.386 . S
C2930 C2932 1.391 . S
C2931 C2930 1.386 . S
C2931 C2935 1.393 . S
C2932 H2921 0.950 . S
C2932 C2930 1.391 . S
C2932 C2933 1.400 . S
C2933 C2927 1.491 . S
C2933 C2932 1.400 . S
C2933 C2934 1.398 . S
C2934 H2922 0.950 . S
C2934 C2933 1.398 . S
C2934 C2935 1.391 . S
C2935 H2923 0.950 . S
C2935 C2931 1.393 . S
C2935 C2934 1.391 . S
H2936 C2944 0.950 1_554 S
H2937 C2949 0.950 . S
H2938 C2946 0.950 . S
H2939 C2948 0.950 . S
H2940 C2950 0.896 1_556 S
H2941 C2952 0.950 . S
H2942 C2954 0.950 . S
H2943 C2955 0.950 . S
C2944 H2936 0.950 1_556 S
C2944 C2945 1.386 . S
C2944 C2946 1.391 1_556 S
C2945 C2944 1.386 . S
C2945 C2949 1.393 . S
C2946 H2938 0.950 . S
C2946 C2944 1.391 1_554 S
C2946 C2947 1.400 1_554 S
C2947 C2946 1.400 1_556 S
C2947 C2948 1.398 . S
C2947 C2953 1.491 1_556 S
C2948 H2939 0.950 . S
C2948 C2947 1.398 . S
C2948 C2949 1.391 . S
C2949 H2937 0.950 . S
C2949 C2945 1.393 . S
C2949 C2948 1.391 . S
C2950 H2940 0.896 1_554 S
C2950 C2951 1.486 . S
C2950 C2952 1.352 1_554 S
C2951 C2950 1.486 . S
C2951 C2955 1.393 . S
C2952 H2941 0.950 . S
C2952 C2950 1.352 1_556 S
C2952 C2953 1.400 1_556 S
C2953 C2947 1.491 1_554 S
C2953 C2952 1.400 1_554 S
C2953 C2954 1.398 . S
C2954 H2942 0.950 . S
C2954 C2953 1.398 . S
C2954 C2955 1.391 . S
C2955 H2943 0.950 . S
C2955 C2951 1.393 . S
C2955 C2954 1.391 . S
H2956 C2964 0.950 . S
H2957 C2969 0.950 . S
H2958 C2966 0.950 . S
H2959 C2968 0.950 . S
H2960 C2970 0.950 . S
H2961 C2972 0.950 . S
H2962 C2974 0.950 . S
H2963 C2975 0.950 . S
C2964 H2956 0.950 . S
C2964 C2965 1.386 . S
C2964 C2966 1.391 . S
C2965 C2964 1.386 . S
C2965 C2969 1.393 . S
C2966 H2958 0.950 . S
C2966 C2964 1.391 . S
C2966 C2967 1.400 . S
C2967 C2966 1.400 . S
C2967 C2968 1.398 . S
C2967 C2973 1.491 . S
C2968 H2959 0.950 . S
C2968 C2967 1.398 . S
C2968 C2969 1.391 . S
C2969 H2957 0.950 . S
C2969 C2965 1.393 . S
C2969 C2968 1.391 . S
C2970 H2960 0.950 . S
C2970 C2971 1.386 . S
C2970 C2972 1.391 . S
C2971 C2970 1.386 . S
C2971 C2975 1.393 . S
C2972 H2961 0.950 . S
C2972 C2970 1.391 . S
C2972 C2973 1.400 . S
C2973 C2967 1.491 . S
C2973 C2972 1.400 . S
C2973 C2974 1.398 . S
C2974 H2962 0.950 . S
C2974 C2973 1.398 . S
C2974 C2975 1.391 . S
C2975 H2963 0.950 . S
C2975 C2971 1.393 . S
C2975 C2974 1.391 . S
H2976 C2984 0.950 . S
H2977 C2989 0.950 . S
H2978 C2986 0.950 . S
H2979 C2988 0.950 . S
H2980 C2990 0.950 . S
H2981 C2992 0.950 . S
H2982 C2994 0.950 . S
H2983 C2995 0.950 . S
C2984 H2976 0.950 . S
C2984 C2985 1.386 . S
C2984 C2986 1.391 . S
C2985 C2984 1.386 . S
C2985 C2989 1.393 . S
C2986 H2978 0.950 . S
C2986 C2984 1.391 . S
C2986 C2987 1.400 . S
C2987 C2986 1.400 . S
C2987 C2988 1.398 . S
C2987 C2993 1.491 . S
C2988 H2979 0.950 . S
C2988 C2987 1.398 . S
C2988 C2989 1.391 . S
C2989 H2977 0.950 . S
C2989 C2985 1.393 . S
C2989 C2988 1.391 . S
C2990 H2980 0.950 . S
C2990 C2991 1.386 . S
C2990 C2992 1.391 . S
C2991 C2990 1.386 . S
C2991 C2995 1.393 . S
C2992 H2981 0.950 . S
C2992 C2990 1.391 . S
C2992 C2993 1.400 . S
C2993 C2987 1.491 . S
C2993 C2992 1.400 . S
C2993 C2994 1.398 . S
C2994 H2982 0.950 . S
C2994 C2993 1.398 . S
C2994 C2995 1.391 . S
C2995 H2983 0.950 . S
C2995 C2991 1.393 . S
C2995 C2994 1.391 . S
H2996 C3004 0.950 . S
H2997 C3009 0.950 . S
H2998 C3006 0.950 . S
H2999 C3008 0.950 . S
H3000 C3010 0.950 . S
H3001 C3012 0.950 . S
H3002 C3014 0.950 . S
H3003 C3015 0.950 . S
C3004 H2996 0.950 . S
C3004 C3005 1.386 . S
C3004 C3006 1.391 . S
C3005 C3004 1.386 . S
C3005 C3009 1.393 . S
C3006 H2998 0.950 . S
C3006 C3004 1.391 . S
C3006 C3007 1.400 . S
C3007 C3006 1.400 . S
C3007 C3008 1.398 . S
C3007 C3013 1.491 . S
C3008 H2999 0.950 . S
C3008 C3007 1.398 . S
C3008 C3009 1.391 . S
C3009 H2997 0.950 . S
C3009 C3005 1.393 . S
C3009 C3008 1.391 . S
C3010 H3000 0.950 . S
C3010 C3011 1.386 . S
C3010 C3012 1.391 . S
C3011 C3010 1.386 . S
C3011 C3015 1.393 . S
C3012 H3001 0.950 . S
C3012 C3010 1.391 . S
C3012 C3013 1.400 . S
C3013 C3007 1.491 . S
C3013 C3012 1.400 . S
C3013 C3014 1.398 . S
C3014 H3002 0.950 . S
C3014 C3013 1.398 . S
C3014 C3015 1.391 . S
C3015 H3003 0.950 . S
C3015 C3011 1.393 . S
C3015 C3014 1.391 . S
H3016 C3024 0.950 . S
H3017 C3029 0.950 . S
H3018 C3026 0.950 . S
H3019 C3028 0.950 . S
H3020 C3030 0.950 . S
H3021 C3032 0.950 . S
H3022 C3034 0.950 . S
H3023 C3035 0.950 . S
C3024 H3016 0.950 . S
C3024 C3025 1.386 . S
C3024 C3026 1.391 . S
C3025 C3024 1.386 . S
C3025 C3029 1.393 . S
C3026 H3018 0.950 . S
C3026 C3024 1.391 . S
C3026 C3027 1.400 . S
C3027 C3026 1.400 . S
C3027 C3028 1.398 . S
C3027 C3033 1.491 . S
C3028 H3019 0.950 . S
C3028 C3027 1.398 . S
C3028 C3029 1.391 . S
C3029 H3017 0.950 . S
C3029 C3025 1.393 . S
C3029 C3028 1.391 . S
C3030 H3020 0.950 . S
C3030 C3031 1.386 . S
C3030 C3032 1.391 . S
C3031 C3030 1.386 . S
C3031 C3035 1.393 . S
C3032 H3021 0.950 . S
C3032 C3030 1.391 . S
C3032 C3033 1.400 . S
C3033 C3027 1.491 . S
C3033 C3032 1.400 . S
C3033 C3034 1.398 . S
C3034 H3022 0.950 . S
C3034 C3033 1.398 . S
C3034 C3035 1.391 . S
C3035 H3023 0.950 . S
C3035 C3031 1.393 . S
C3035 C3034 1.391 . S
H3036 C3044 0.950 . S
H3037 C3049 0.950 . S
H3038 C3046 0.950 . S
H3039 C3048 0.950 . S
H3040 C3050 0.950 . S
H3041 C3052 0.950 . S
H3042 C3054 0.950 . S
H3043 C3055 0.950 . S
C3044 H3036 0.950 . S
C3044 C3045 1.386 . S
C3044 C3046 1.391 . S
C3045 C3044 1.386 . S
C3045 C3049 1.393 . S
C3046 H3038 0.950 . S
C3046 C3044 1.391 . S
C3046 C3047 1.400 . S
C3047 C3046 1.400 . S
C3047 C3048 1.398 . S
C3047 C3053 1.491 . S
C3048 H3039 0.950 . S
C3048 C3047 1.398 . S
C3048 C3049 1.391 . S
C3049 H3037 0.950 . S
C3049 C3045 1.393 . S
C3049 C3048 1.391 . S
C3050 H3040 0.950 . S
C3050 C3051 1.386 . S
C3050 C3052 1.391 . S
C3051 C3050 1.386 . S
C3051 C3055 1.393 . S
C3052 H3041 0.950 . S
C3052 C3050 1.391 . S
C3052 C3053 1.400 . S
C3053 C3047 1.491 . S
C3053 C3052 1.400 . S
C3053 C3054 1.398 . S
C3054 H3042 0.950 . S
C3054 C3053 1.398 . S
C3054 C3055 1.391 . S
C3055 H3043 0.950 . S
C3055 C3051 1.393 . S
C3055 C3054 1.391 . S
H3056 C3064 0.950 . S
H3057 C3069 0.950 . S
H3058 C3066 0.950 . S
H3059 C3068 0.950 1_545 S
H3060 C3070 0.950 . S
H3061 C3072 0.950 . S
H3062 C3074 0.950 1_565 S
H3063 C3075 0.950 . S
C3064 H3056 0.950 . S
C3064 C3065 1.386 . S
C3064 C3066 1.391 . S
C3065 C3064 1.386 . S
C3065 C3069 1.393 . S
C3066 H3058 0.950 . S
C3066 C3064 1.391 . S
C3066 C3067 1.400 . S
C3067 C3066 1.400 . S
C3067 C3068 1.398 . S
C3067 C3073 1.491 1_565 S
C3068 H3059 0.950 1_565 S
C3068 C3067 1.398 . S
C3068 C3069 1.391 . S
C3069 H3057 0.950 . S
C3069 C3065 1.393 . S
C3069 C3068 1.391 . S
C3070 H3060 0.950 . S
C3070 C3071 1.386 . S
C3070 C3072 1.391 . S
C3071 C3070 1.386 . S
C3071 C3075 1.393 . S
C3072 H3061 0.950 . S
C3072 C3070 1.391 . S
C3072 C3073 1.400 . S
C3073 C3067 1.491 1_545 S
C3073 C3072 1.400 . S
C3073 C3074 1.398 . S
C3074 H3062 0.950 1_545 S
C3074 C3073 1.398 . S
C3074 C3075 1.391 . S
C3075 H3063 0.950 . S
C3075 C3071 1.393 . S
C3075 C3074 1.391 . S
H3076 C3084 0.951 1_554 S
H3077 C3089 0.950 . S
H3078 C3086 0.950 . S
H3079 C3088 0.916 1_545 S
H3080 C3090 0.954 1_556 S
H3081 C3092 0.950 . S
H3082 C3094 0.929 1_565 S
H3083 C3095 0.950 . S
C3084 H3076 0.951 1_556 S
C3084 C3085 1.386 . S
C3084 C3086 1.391 1_556 S
C3085 C3084 1.386 . S
C3085 C3089 1.393 . S
C3086 H3078 0.950 . S
C3086 C3084 1.391 1_554 S
C3086 C3087 1.400 1_554 S
C3087 C3086 1.400 1_556 S
C3087 C3088 1.410 . S
C3087 C3093 1.491 1_466 S
C3088 H3079 0.916 1_565 S
C3088 C3087 1.410 . S
C3088 C3089 1.414 . S
C3089 H3077 0.950 . S
C3089 C3085 1.393 . S
C3089 C3088 1.414 . S
C3090 H3080 0.954 1_554 S
C3090 C3091 1.386 . S
C3090 C3092 1.391 1_554 S
C3091 C3090 1.386 . S
C3091 C3095 1.393 . S
C3092 H3081 0.950 . S
C3092 C3090 1.391 1_556 S
C3092 C3093 1.400 1_556 S
C3093 C3087 1.491 1_644 S
C3093 C3092 1.400 1_554 S
C3093 C3094 1.405 . S
C3094 H3082 0.929 1_545 S
C3094 C3093 1.405 . S
C3094 C3095 1.405 . S
C3095 H3083 0.950 . S
C3095 C3091 1.393 . S
C3095 C3094 1.405 . S
H3096 C3104 0.950 . S
H3097 C3109 0.950 . S
H3098 C3106 0.940 1_564 S
H3099 C3108 0.950 . S
H3100 C3110 0.950 . S
H3101 C3112 0.938 1_546 S
H3102 C3114 0.950 . S
H3103 C3115 0.950 . S
C3104 H3096 0.950 . S
C3104 C3105 1.386 . S
C3104 C3106 1.391 . S
C3105 C3104 1.386 . S
C3105 C3109 1.393 . S
C3106 H3098 0.940 1_546 S
C3106 C3104 1.391 . S
C3106 C3107 1.400 . S
C3107 C3106 1.400 . S
C3107 C3108 1.398 . S
C3107 C3113 1.491 1_546 S
C3108 H3099 0.950 . S
C3108 C3107 1.398 . S
C3108 C3109 1.391 . S
C3109 H3097 0.950 . S
C3109 C3105 1.393 . S
C3109 C3108 1.391 . S
C3110 H3100 0.950 . S
C3110 C3111 1.386 . S
C3110 C3112 1.391 . S
C3111 C3110 1.386 . S
C3111 C3115 1.393 . S
C3112 H3101 0.938 1_564 S
C3112 C3110 1.391 . S
C3112 C3113 1.400 . S
C3113 C3107 1.491 1_564 S
C3113 C3112 1.400 . S
C3113 C3114 1.398 . S
C3114 H3102 0.950 . S
C3114 C3113 1.398 . S
C3114 C3115 1.391 . S
C3115 H3103 0.950 . S
C3115 C3111 1.393 . S
C3115 C3114 1.391 . S
H3116 C3124 0.950 . S
H3117 C3129 0.950 . S
H3118 C3126 0.950 1_655 S
H3119 C3128 0.950 . S
H3120 C3130 0.950 . S
H3121 C3132 0.950 1_455 S
H3122 C3134 0.950 . S
H3123 C3135 0.950 . S
C3124 H3116 0.950 . S
C3124 C3125 1.386 . S
C3124 C3126 1.391 . S
C3125 C3124 1.386 . S
C3125 C3129 1.393 . S
C3126 H3118 0.950 1_455 S
C3126 C3124 1.391 . S
C3126 C3127 1.400 . S
C3127 C3126 1.400 . S
C3127 C3128 1.398 . S
C3127 C3133 1.491 1_445 S
C3128 H3119 0.950 . S
C3128 C3127 1.398 . S
C3128 C3129 1.391 . S
C3129 H3117 0.950 . S
C3129 C3125 1.393 . S
C3129 C3128 1.391 . S
C3130 H3120 0.950 . S
C3130 C3131 1.386 . S
C3130 C3132 1.391 . S
C3131 C3130 1.386 . S
C3131 C3135 1.393 . S
C3132 H3121 0.950 1_655 S
C3132 C3130 1.391 . S
C3132 C3133 1.400 . S
C3133 C3127 1.491 1_665 S
C3133 C3132 1.400 . S
C3133 C3134 1.398 . S
C3134 H3122 0.950 . S
C3134 C3133 1.398 . S
C3134 C3135 1.391 . S
C3135 H3123 0.950 . S
C3135 C3131 1.393 . S
C3135 C3134 1.391 . S
H3136 C3144 0.950 . S
H3137 C3149 0.950 . S
H3138 C3146 0.950 . S
H3139 C3148 0.969 . S
H3140 C3150 0.950 . S
H3141 C3152 0.950 . S
H3142 C3154 0.969 . S
H3143 C3155 0.950 . S
C3144 H3136 0.950 . S
C3144 C3145 1.386 . S
C3144 C3146 1.391 . S
C3145 C3144 1.386 . S
C3145 C3149 1.393 . S
C3146 H3138 0.950 . S
C3146 C3144 1.391 . S
C3146 C3147 1.400 . S
C3147 C3146 1.400 . S
C3147 C3148 1.398 . S
C3147 C3153 1.491 1_655 S
C3148 H3139 0.969 . S
C3148 C3147 1.398 . S
C3148 C3149 1.391 . S
C3149 H3137 0.950 . S
C3149 C3145 1.393 . S
C3149 C3148 1.391 . S
C3150 H3140 0.950 . S
C3150 C3151 1.386 . S
C3150 C3152 1.391 . S
C3151 C3150 1.386 . S
C3151 C3155 1.393 . S
C3152 H3141 0.950 . S
C3152 C3150 1.391 . S
C3152 C3153 1.400 . S
C3153 C3147 1.491 1_455 S
C3153 C3152 1.400 . S
C3153 C3154 1.398 . S
C3154 H3142 0.969 . S
C3154 C3153 1.398 . S
C3154 C3155 1.391 . S
C3155 H3143 0.950 . S
C3155 C3151 1.393 . S
C3155 C3154 1.391 . S
H3156 C3164 0.950 . S
H3157 C3169 0.950 . S
H3158 C3166 0.950 1_655 S
H3159 C3168 0.950 . S
H3160 C3170 0.950 . S
H3161 C3172 0.950 1_455 S
H3162 C3174 0.950 . S
H3163 C3175 0.950 . S
C3164 H3156 0.950 . S
C3164 C3165 1.386 . S
C3164 C3166 1.391 . S
C3165 C3164 1.386 . S
C3165 C3169 1.393 . S
C3166 H3158 0.950 1_455 S
C3166 C3164 1.391 . S
C3166 C3167 1.400 . S
C3167 C3166 1.400 . S
C3167 C3168 1.398 . S
C3167 C3173 1.491 1_455 S
C3168 H3159 0.950 . S
C3168 C3167 1.398 . S
C3168 C3169 1.391 . S
C3169 H3157 0.950 . S
C3169 C3165 1.393 . S
C3169 C3168 1.391 . S
C3170 H3160 0.950 . S
C3170 C3171 1.386 . S
C3170 C3172 1.391 . S
C3171 C3170 1.386 . S
C3171 C3175 1.393 . S
C3172 H3161 0.950 1_655 S
C3172 C3170 1.391 . S
C3172 C3173 1.400 . S
C3173 C3167 1.491 1_655 S
C3173 C3172 1.400 . S
C3173 C3174 1.398 . S
C3174 H3162 0.950 . S
C3174 C3173 1.398 . S
C3174 C3175 1.391 . S
C3175 H3163 0.950 . S
C3175 C3171 1.393 . S
C3175 C3174 1.391 . S
H3176 C3184 0.950 . S
H3177 C3189 0.950 . S
H3178 C3186 0.950 . S
H3179 C3188 0.950 . S
H3180 C3190 0.950 . S
H3181 C3192 0.950 . S
H3182 C3194 0.950 . S
H3183 C3195 0.950 . S
C3184 H3176 0.950 . S
C3184 C3185 1.386 . S
C3184 C3186 1.391 . S
C3185 C3184 1.386 . S
C3185 C3189 1.393 . S
C3186 H3178 0.950 . S
C3186 C3184 1.391 . S
C3186 C3187 1.400 . S
C3187 C3186 1.400 . S
C3187 C3188 1.398 . S
C3187 C3193 1.491 . S
C3188 H3179 0.950 . S
C3188 C3187 1.398 . S
C3188 C3189 1.391 . S
C3189 H3177 0.950 . S
C3189 C3185 1.393 . S
C3189 C3188 1.391 . S
C3190 H3180 0.950 . S
C3190 C3191 1.386 . S
C3190 C3192 1.391 . S
C3191 C3190 1.386 . S
C3191 C3195 1.393 . S
C3192 H3181 0.950 . S
C3192 C3190 1.391 . S
C3192 C3193 1.400 . S
C3193 C3187 1.491 . S
C3193 C3192 1.400 . S
C3193 C3194 1.398 . S
C3194 H3182 0.950 . S
C3194 C3193 1.398 . S
C3194 C3195 1.391 . S
C3195 H3183 0.950 . S
C3195 C3191 1.393 . S
C3195 C3194 1.391 . S
H3196 C3204 0.950 . S
H3197 C3209 0.950 . S
H3198 C3206 0.950 . S
H3199 C3208 0.950 . S
H3200 C3210 0.950 . S
H3201 C3212 0.950 . S
H3202 C3214 0.950 . S
H3203 C3215 0.950 . S
C3204 H3196 0.950 . S
C3204 C3205 1.386 . S
C3204 C3206 1.391 . S
C3205 C3204 1.386 . S
C3205 C3209 1.393 . S
C3206 H3198 0.950 . S
C3206 C3204 1.391 . S
C3206 C3207 1.400 . S
C3207 C3206 1.400 . S
C3207 C3208 1.398 . S
C3207 C3213 1.491 . S
C3208 H3199 0.950 . S
C3208 C3207 1.398 . S
C3208 C3209 1.391 . S
C3209 H3197 0.950 . S
C3209 C3205 1.393 . S
C3209 C3208 1.391 . S
C3210 H3200 0.950 . S
C3210 C3211 1.386 . S
C3210 C3212 1.391 . S
C3211 C3210 1.386 . S
C3211 C3215 1.393 . S
C3212 H3201 0.950 . S
C3212 C3210 1.391 . S
C3212 C3213 1.400 . S
C3213 C3207 1.491 . S
C3213 C3212 1.400 . S
C3213 C3214 1.398 . S
C3214 H3202 0.950 . S
C3214 C3213 1.398 . S
C3214 C3215 1.391 . S
C3215 H3203 0.950 . S
C3215 C3211 1.393 . S
C3215 C3214 1.391 . S
H3216 C3224 0.950 . S
H3217 C3229 0.950 . S
H3218 C3226 0.950 . S
H3219 C3228 0.950 1_455 S
H3220 C3230 0.950 . S
H3221 C3232 0.950 . S
H3222 C3234 0.950 1_655 S
H3223 C3235 0.950 . S
C3224 H3216 0.950 . S
C3224 C3225 1.386 . S
C3224 C3226 1.391 . S
C3225 C3224 1.386 . S
C3225 C3229 1.393 . S
C3226 H3218 0.950 . S
C3226 C3224 1.391 . S
C3226 C3227 1.400 . S
C3227 C3226 1.400 . S
C3227 C3228 1.398 . S
C3227 C3233 1.491 1_655 S
C3228 H3219 0.950 1_655 S
C3228 C3227 1.398 . S
C3228 C3229 1.391 . S
C3229 H3217 0.950 . S
C3229 C3225 1.393 . S
C3229 C3228 1.391 . S
C3230 H3220 0.950 . S
C3230 C3231 1.386 . S
C3230 C3232 1.391 . S
C3231 C3230 1.386 . S
C3231 C3235 1.393 . S
C3232 H3221 0.950 . S
C3232 C3230 1.391 . S
C3232 C3233 1.400 . S
C3233 C3227 1.491 1_455 S
C3233 C3232 1.400 . S
C3233 C3234 1.398 . S
C3234 H3222 0.950 1_455 S
C3234 C3233 1.398 . S
C3234 C3235 1.391 . S
C3235 H3223 0.950 . S
C3235 C3231 1.393 . S
C3235 C3234 1.391 . S
H3236 C3244 0.950 . S
H3237 C3249 0.950 . S
H3238 C3246 0.950 . S
H3239 C3248 0.950 . S
H3240 C3250 0.950 . S
H3241 C3252 0.950 . S
H3242 C3254 0.950 . S
H3243 C3255 0.950 . S
C3244 H3236 0.950 . S
C3244 C3245 1.386 . S
C3244 C3246 1.391 . S
C3245 C3244 1.386 . S
C3245 C3249 1.393 . S
C3246 H3238 0.950 . S
C3246 C3244 1.391 . S
C3246 C3247 1.400 . S
C3247 C3246 1.400 . S
C3247 C3248 1.398 . S
C3247 C3253 1.491 . S
C3248 H3239 0.950 . S
C3248 C3247 1.398 . S
C3248 C3249 1.391 . S
C3249 H3237 0.950 . S
C3249 C3245 1.393 . S
C3249 C3248 1.391 . S
C3250 H3240 0.950 . S
C3250 C3251 1.386 . S
C3250 C3252 1.391 . S
C3251 C3250 1.386 . S
C3251 C3255 1.393 . S
C3252 H3241 0.950 . S
C3252 C3250 1.391 . S
C3252 C3253 1.400 . S
C3253 C3247 1.491 . S
C3253 C3252 1.400 . S
C3253 C3254 1.398 . S
C3254 H3242 0.950 . S
C3254 C3253 1.398 . S
C3254 C3255 1.391 . S
C3255 H3243 0.950 . S
C3255 C3251 1.393 . S
C3255 C3254 1.391 . S
H3256 C3264 0.950 . S
H3257 C3269 0.950 . S
H3258 C3266 0.950 . S
H3259 C3268 0.950 . S
H3260 C3270 0.950 . S
H3261 C3272 0.950 . S
H3262 C3274 0.950 . S
H3263 C3275 0.950 . S
C3264 H3256 0.950 . S
C3264 C3265 1.386 . S
C3264 C3266 1.391 . S
C3265 C3264 1.386 . S
C3265 C3269 1.393 . S
C3266 H3258 0.950 . S
C3266 C3264 1.391 . S
C3266 C3267 1.400 . S
C3267 C3266 1.400 . S
C3267 C3268 1.398 . S
C3267 C3273 1.491 . S
C3268 H3259 0.950 . S
C3268 C3267 1.398 . S
C3268 C3269 1.391 . S
C3269 H3257 0.950 . S
C3269 C3265 1.393 . S
C3269 C3268 1.391 . S
C3270 H3260 0.950 . S
C3270 C3271 1.386 . S
C3270 C3272 1.391 . S
C3271 C3270 1.386 . S
C3271 C3275 1.393 . S
C3272 H3261 0.950 . S
C3272 C3270 1.391 . S
C3272 C3273 1.400 . S
C3273 C3267 1.491 . S
C3273 C3272 1.400 . S
C3273 C3274 1.398 . S
C3274 H3262 0.950 . S
C3274 C3273 1.398 . S
C3274 C3275 1.391 . S
C3275 H3263 0.950 . S
C3275 C3271 1.393 . S
C3275 C3274 1.391 . S
H3276 C3284 0.950 . S
H3277 C3289 0.950 . S
H3278 C3286 0.950 1_655 S
H3279 C3288 0.950 . S
H3280 C3290 0.950 . S
H3281 C3292 0.950 1_455 S
H3282 C3294 0.950 . S
H3283 C3295 0.950 . S
C3284 H3276 0.950 . S
C3284 C3285 1.386 . S
C3284 C3286 1.391 . S
C3285 C3284 1.386 . S
C3285 C3289 1.393 . S
C3286 H3278 0.950 1_455 S
C3286 C3284 1.391 . S
C3286 C3287 1.400 . S
C3287 C3286 1.400 . S
C3287 C3288 1.398 . S
C3287 C3293 1.491 1_455 S
C3288 H3279 0.950 . S
C3288 C3287 1.398 . S
C3288 C3289 1.391 . S
C3289 H3277 0.950 . S
C3289 C3285 1.393 . S
C3289 C3288 1.391 . S
C3290 H3280 0.950 . S
C3290 C3291 1.386 . S
C3290 C3292 1.391 . S
C3291 C3290 1.386 . S
C3291 C3295 1.393 . S
C3292 H3281 0.950 1_655 S
C3292 C3290 1.391 . S
C3292 C3293 1.400 . S
C3293 C3287 1.491 1_655 S
C3293 C3292 1.400 . S
C3293 C3294 1.398 . S
C3294 H3282 0.950 . S
C3294 C3293 1.398 . S
C3294 C3295 1.391 . S
C3295 H3283 0.950 . S
C3295 C3291 1.393 . S
C3295 C3294 1.391 . S
H3296 C3304 0.950 . S
H3297 C3309 0.950 . S
H3298 C3306 0.950 1_455 S
H3299 C3308 0.950 . S
H3300 C3310 0.950 . S
H3301 C3312 0.950 1_655 S
H3302 C3314 0.950 . S
H3303 C3315 0.950 . S
C3304 H3296 0.950 . S
C3304 C3305 1.386 . S
C3304 C3306 1.391 . S
C3305 C3304 1.386 . S
C3305 C3309 1.393 . S
C3306 H3298 0.950 1_655 S
C3306 C3304 1.391 . S
C3306 C3307 1.400 . S
C3307 C3306 1.400 . S
C3307 C3308 1.398 . S
C3307 C3313 1.491 1_655 S
C3308 H3299 0.950 . S
C3308 C3307 1.398 . S
C3308 C3309 1.391 . S
C3309 H3297 0.950 . S
C3309 C3305 1.393 . S
C3309 C3308 1.391 . S
C3310 H3300 0.950 . S
C3310 C3311 1.386 . S
C3310 C3312 1.391 . S
C3311 C3310 1.386 . S
C3311 C3315 1.393 . S
C3312 H3301 0.950 1_455 S
C3312 C3310 1.391 . S
C3312 C3313 1.400 . S
C3313 C3307 1.491 1_455 S
C3313 C3312 1.400 . S
C3313 C3314 1.398 . S
C3314 H3302 0.950 . S
C3314 C3313 1.398 . S
C3314 C3315 1.391 . S
C3315 H3303 0.950 . S
C3315 C3311 1.393 . S
C3315 C3314 1.391 . S
H3316 C3324 0.950 . S
H3317 C3329 0.950 . S
H3318 C3326 0.950 1_455 S
H3319 C3328 0.950 . S
H3320 C3330 0.950 . S
H3321 C3332 0.950 1_655 S
H3322 C3334 0.950 . S
H3323 C3335 0.950 . S
C3324 H3316 0.950 . S
C3324 C3325 1.386 . S
C3324 C3326 1.391 . S
C3325 C3324 1.386 . S
C3325 C3329 1.393 . S
C3326 H3318 0.950 1_655 S
C3326 C3324 1.391 . S
C3326 C3327 1.400 . S
C3327 C3326 1.400 . S
C3327 C3328 1.398 . S
C3327 C3333 1.491 1_655 S
C3328 H3319 0.950 . S
C3328 C3327 1.398 . S
C3328 C3329 1.391 . S
C3329 H3317 0.950 . S
C3329 C3325 1.393 . S
C3329 C3328 1.391 . S
C3330 H3320 0.950 . S
C3330 C3331 1.386 . S
C3330 C3332 1.391 . S
C3331 C3330 1.386 . S
C3331 C3335 1.393 . S
C3332 H3321 0.950 1_455 S
C3332 C3330 1.391 . S
C3332 C3333 1.400 . S
C3333 C3327 1.491 1_455 S
C3333 C3332 1.400 . S
C3333 C3334 1.398 . S
C3334 H3322 0.950 . S
C3334 C3333 1.398 . S
C3334 C3335 1.391 . S
C3335 H3323 0.950 . S
C3335 C3331 1.393 . S
C3335 C3334 1.391 . S
H3336 C3344 0.950 . S
H3337 C3349 0.950 . S
H3338 C3346 0.950 . S
H3339 C3348 0.950 . S
H3340 C3350 0.950 . S
H3341 C3352 0.950 . S
H3342 C3354 0.950 . S
H3343 C3355 0.950 . S
C3344 H3336 0.950 . S
C3344 C3345 1.386 . S
C3344 C3346 1.391 . S
C3345 C3344 1.386 . S
C3345 C3349 1.393 . S
C3346 H3338 0.950 . S
C3346 C3344 1.391 . S
C3346 C3347 1.400 . S
C3347 C3346 1.400 . S
C3347 C3348 1.398 . S
C3347 C3353 1.491 . S
C3348 H3339 0.950 . S
C3348 C3347 1.398 . S
C3348 C3349 1.391 . S
C3349 H3337 0.950 . S
C3349 C3345 1.393 . S
C3349 C3348 1.391 . S
C3350 H3340 0.950 . S
C3350 C3351 1.386 . S
C3350 C3352 1.391 . S
C3351 C3350 1.386 . S
C3351 C3355 1.393 . S
C3352 H3341 0.950 . S
C3352 C3350 1.391 . S
C3352 C3353 1.400 . S
C3353 C3347 1.491 . S
C3353 C3352 1.400 . S
C3353 C3354 1.398 . S
C3354 H3342 0.950 . S
C3354 C3353 1.398 . S
C3354 C3355 1.391 . S
C3355 H3343 0.950 . S
C3355 C3351 1.393 . S
C3355 C3354 1.391 . S
H3356 C3364 0.950 . S
H3357 C3369 0.950 . S
H3358 C3366 0.950 . S
H3359 C3368 0.950 . S
H3360 C3370 0.950 . S
H3361 C3372 0.950 . S
H3362 C3374 0.950 . S
H3363 C3375 0.950 . S
C3364 H3356 0.950 . S
C3364 C3365 1.386 . S
C3364 C3366 1.391 . S
C3365 C3364 1.386 . S
C3365 C3369 1.393 . S
C3366 H3358 0.950 . S
C3366 C3364 1.391 . S
C3366 C3367 1.400 . S
C3367 C3366 1.400 . S
C3367 C3368 1.398 . S
C3367 C3373 1.491 . S
C3368 H3359 0.950 . S
C3368 C3367 1.398 . S
C3368 C3369 1.391 . S
C3369 H3357 0.950 . S
C3369 C3365 1.393 . S
C3369 C3368 1.391 . S
C3370 H3360 0.950 . S
C3370 C3371 1.386 . S
C3370 C3372 1.391 . S
C3371 C3370 1.386 . S
C3371 C3375 1.393 . S
C3372 H3361 0.950 . S
C3372 C3370 1.391 . S
C3372 C3373 1.400 . S
C3373 C3367 1.491 . S
C3373 C3372 1.400 . S
C3373 C3374 1.398 . S
C3374 H3362 0.950 . S
C3374 C3373 1.398 . S
C3374 C3375 1.391 . S
C3375 H3363 0.950 . S
C3375 C3371 1.393 . S
C3375 C3374 1.391 . S
H3376 C3384 0.950 . S
H3377 C3389 0.950 . S
H3378 C3386 0.950 . S
H3379 C3388 0.950 1_455 S
H3380 C3390 0.950 . S
H3381 C3392 0.950 . S
H3382 C3394 0.950 1_655 S
H3383 C3395 0.950 . S
C3384 H3376 0.950 . S
C3384 C3385 1.386 . S
C3384 C3386 1.391 . S
C3385 C3384 1.386 . S
C3385 C3389 1.393 . S
C3386 H3378 0.950 . S
C3386 C3384 1.391 . S
C3386 C3387 1.400 . S
C3387 C3386 1.400 . S
C3387 C3388 1.398 . S
C3387 C3393 1.491 1_655 S
C3388 H3379 0.950 1_655 S
C3388 C3387 1.398 . S
C3388 C3389 1.391 . S
C3389 H3377 0.950 . S
C3389 C3385 1.393 . S
C3389 C3388 1.391 . S
C3390 H3380 0.950 . S
C3390 C3391 1.386 . S
C3390 C3392 1.391 . S
C3391 C3390 1.386 . S
C3391 C3395 1.393 . S
C3392 H3381 0.950 . S
C3392 C3390 1.391 . S
C3392 C3393 1.400 . S
C3393 C3387 1.491 1_455 S
C3393 C3392 1.400 . S
C3393 C3394 1.398 . S
C3394 H3382 0.950 1_455 S
C3394 C3393 1.398 . S
C3394 C3395 1.391 . S
C3395 H3383 0.950 . S
C3395 C3391 1.393 . S
C3395 C3394 1.391 . S
H3396 C3404 0.950 . S
H3397 C3409 0.950 . S
H3398 C3406 0.950 . S
H3399 C3408 0.950 . S
H3400 C3410 0.950 . S
H3401 C3412 0.950 . S
H3402 C3414 0.950 . S
H3403 C3415 0.950 . S
C3404 H3396 0.950 . S
C3404 C3405 1.386 . S
C3404 C3406 1.391 . S
C3405 C3404 1.386 . S
C3405 C3409 1.393 . S
C3406 H3398 0.950 . S
C3406 C3404 1.391 . S
C3406 C3407 1.400 . S
C3407 C3406 1.400 . S
C3407 C3408 1.398 . S
C3407 C3413 1.491 . S
C3408 H3399 0.950 . S
C3408 C3407 1.398 . S
C3408 C3409 1.391 . S
C3409 H3397 0.950 . S
C3409 C3405 1.393 . S
C3409 C3408 1.391 . S
C3410 H3400 0.950 . S
C3410 C3411 1.386 . S
C3410 C3412 1.391 . S
C3411 C3410 1.386 . S
C3411 C3415 1.393 . S
C3412 H3401 0.950 . S
C3412 C3410 1.391 . S
C3412 C3413 1.400 . S
C3413 C3407 1.491 . S
C3413 C3412 1.400 . S
C3413 C3414 1.398 . S
C3414 H3402 0.950 . S
C3414 C3413 1.398 . S
C3414 C3415 1.391 . S
C3415 H3403 0.950 . S
C3415 C3411 1.393 . S
C3415 C3414 1.391 . S
H3416 C3424 0.950 . S
H3417 C3429 0.950 . S
H3418 C3426 0.950 . S
H3419 C3428 0.950 . S
H3420 C3430 0.950 . S
H3421 C3432 0.950 . S
H3422 C3434 0.950 . S
H3423 C3435 0.950 . S
C3424 H3416 0.950 . S
C3424 C3425 1.386 . S
C3424 C3426 1.391 . S
C3425 C3424 1.386 . S
C3425 C3429 1.393 . S
C3426 H3418 0.950 . S
C3426 C3424 1.391 . S
C3426 C3427 1.400 . S
C3427 C3426 1.400 . S
C3427 C3428 1.398 . S
C3427 C3433 1.491 . S
C3428 H3419 0.950 . S
C3428 C3427 1.398 . S
C3428 C3429 1.391 . S
C3429 H3417 0.950 . S
C3429 C3425 1.393 . S
C3429 C3428 1.391 . S
C3430 H3420 0.950 . S
C3430 C3431 1.386 . S
C3430 C3432 1.391 . S
C3431 C3430 1.386 . S
C3431 C3435 1.393 . S
C3432 H3421 0.950 . S
C3432 C3430 1.391 . S
C3432 C3433 1.400 . S
C3433 C3427 1.491 . S
C3433 C3432 1.400 . S
C3433 C3434 1.398 . S
C3434 H3422 0.950 . S
C3434 C3433 1.398 . S
C3434 C3435 1.391 . S
C3435 H3423 0.950 . S
C3435 C3431 1.393 . S
C3435 C3434 1.391 . S
H3436 C3444 0.950 . S
H3437 C3449 0.950 . S
H3438 C3446 0.950 . S
H3439 C3448 0.950 . S
H3440 C3450 0.950 . S
H3441 C3452 0.950 . S
H3442 C3454 0.950 . S
H3443 C3455 0.950 . S
C3444 H3436 0.950 . S
C3444 C3445 1.386 . S
C3444 C3446 1.391 . S
C3445 C3444 1.386 . S
C3445 C3449 1.393 . S
C3446 H3438 0.950 . S
C3446 C3444 1.391 . S
C3446 C3447 1.400 . S
C3447 C3446 1.400 . S
C3447 C3448 1.398 . S
C3447 C3453 1.491 1_655 S
C3448 H3439 0.950 . S
C3448 C3447 1.398 . S
C3448 C3449 1.391 . S
C3449 H3437 0.950 . S
C3449 C3445 1.393 . S
C3449 C3448 1.391 . S
C3450 H3440 0.950 . S
C3450 C3451 1.386 . S
C3450 C3452 1.391 . S
C3451 C3450 1.386 . S
C3451 C3455 1.393 . S
C3452 H3441 0.950 . S
C3452 C3450 1.391 . S
C3452 C3453 1.400 . S
C3453 C3447 1.491 1_455 S
C3453 C3452 1.400 . S
C3453 C3454 1.398 . S
C3454 H3442 0.950 . S
C3454 C3453 1.398 . S
C3454 C3455 1.391 . S
C3455 H3443 0.950 . S
C3455 C3451 1.393 . S
C3455 C3454 1.391 . S
H3456 C3464 0.996 . S
H3457 C3469 0.950 . S
H3458 C3466 0.950 . S
H3459 C3468 0.950 . S
H3460 C3470 0.996 . S
H3461 C3472 0.950 . S
H3462 C3474 0.950 . S
H3463 C3475 0.950 . S
C3464 H3456 0.996 . S
C3464 C3465 1.323 1_554 S
C3464 C3466 1.417 . S
C3465 C3464 1.323 1_556 S
C3465 C3469 1.393 . S
C3466 H3458 0.950 . S
C3466 C3464 1.417 . S
C3466 C3467 1.400 1_554 S
C3467 C3466 1.400 1_556 S
C3467 C3468 1.398 . S
C3467 C3473 1.491 1_556 S
C3468 H3459 0.950 . S
C3468 C3467 1.398 . S
C3468 C3469 1.391 . S
C3469 H3457 0.950 . S
C3469 C3465 1.393 . S
C3469 C3468 1.391 . S
C3470 H3460 0.996 . S
C3470 C3471 1.323 1_556 S
C3470 C3472 1.417 . S
C3471 C3470 1.323 1_554 S
C3471 C3475 1.393 . S
C3472 H3461 0.950 . S
C3472 C3470 1.417 . S
C3472 C3473 1.400 1_556 S
C3473 C3467 1.491 1_554 S
C3473 C3472 1.400 1_554 S
C3473 C3474 1.398 . S
C3474 H3462 0.950 . S
C3474 C3473 1.398 . S
C3474 C3475 1.391 . S
C3475 H3463 0.950 . S
C3475 C3471 1.393 . S
C3475 C3474 1.391 . S
H3476 C3484 0.950 . S
H3477 C3489 0.950 . S
H3478 C3486 0.950 . S
H3479 C3488 0.950 . S
H3480 C3490 0.950 . S
H3481 C3492 0.950 . S
H3482 C3494 0.950 . S
H3483 C3495 0.950 . S
C3484 H3476 0.950 . S
C3484 C3485 1.386 . S
C3484 C3486 1.391 . S
C3485 C3484 1.386 . S
C3485 C3489 1.393 . S
C3486 H3478 0.950 . S
C3486 C3484 1.391 . S
C3486 C3487 1.400 . S
C3487 C3486 1.400 . S
C3487 C3488 1.398 . S
C3487 C3493 1.491 1_545 S
C3488 H3479 0.950 . S
C3488 C3487 1.398 . S
C3488 C3489 1.391 . S
C3489 H3477 0.950 . S
C3489 C3485 1.393 . S
C3489 C3488 1.391 . S
C3490 H3480 0.950 . S
C3490 C3491 1.386 . S
C3490 C3492 1.391 . S
C3491 C3490 1.386 . S
C3491 C3495 1.393 . S
C3492 H3481 0.950 . S
C3492 C3490 1.391 . S
C3492 C3493 1.400 . S
C3493 C3487 1.491 1_565 S
C3493 C3492 1.400 . S
C3493 C3494 1.398 . S
C3494 H3482 0.950 . S
C3494 C3493 1.398 . S
C3494 C3495 1.391 . S
C3495 H3483 0.950 . S
C3495 C3491 1.393 . S
C3495 C3494 1.391 . S
H3496 C3504 0.950 . S
H3497 C3509 0.950 . S
H3498 C3506 0.950 . S
H3499 C3508 0.950 . S
H3500 C3510 0.950 . S
H3501 C3512 0.950 . S
H3502 C3514 0.950 . S
H3503 C3515 0.950 . S
C3504 H3496 0.950 . S
C3504 C3505 1.386 . S
C3504 C3506 1.391 . S
C3505 C3504 1.386 . S
C3505 C3509 1.393 . S
C3506 H3498 0.950 . S
C3506 C3504 1.391 . S
C3506 C3507 1.400 . S
C3507 C3506 1.400 . S
C3507 C3508 1.398 . S
C3507 C3513 1.491 . S
C3508 H3499 0.950 . S
C3508 C3507 1.398 . S
C3508 C3509 1.391 . S
C3509 H3497 0.950 . S
C3509 C3505 1.393 . S
C3509 C3508 1.391 . S
C3510 H3500 0.950 . S
C3510 C3511 1.386 . S
C3510 C3512 1.391 . S
C3511 C3510 1.386 . S
C3511 C3515 1.393 . S
C3512 H3501 0.950 . S
C3512 C3510 1.391 . S
C3512 C3513 1.400 . S
C3513 C3507 1.491 . S
C3513 C3512 1.400 . S
C3513 C3514 1.398 . S
C3514 H3502 0.950 . S
C3514 C3513 1.398 . S
C3514 C3515 1.391 . S
C3515 H3503 0.950 . S
C3515 C3511 1.393 . S
C3515 C3514 1.391 . S
H3516 C3524 0.950 . S
H3517 C3529 0.950 . S
H3518 C3526 0.950 . S
H3519 C3528 0.950 . S
H3520 C3530 0.950 . S
H3521 C3532 0.950 . S
H3522 C3534 0.950 . S
H3523 C3535 0.950 . S
C3524 H3516 0.950 . S
C3524 C3525 1.386 . S
C3524 C3526 1.391 . S
C3525 C3524 1.386 . S
C3525 C3529 1.393 . S
C3526 H3518 0.950 . S
C3526 C3524 1.391 . S
C3526 C3527 1.400 . S
C3527 C3526 1.400 . S
C3527 C3528 1.398 . S
C3527 C3533 1.491 1_545 S
C3528 H3519 0.950 . S
C3528 C3527 1.398 . S
C3528 C3529 1.391 . S
C3529 H3517 0.950 . S
C3529 C3525 1.393 . S
C3529 C3528 1.391 . S
C3530 H3520 0.950 . S
C3530 C3531 1.386 . S
C3530 C3532 1.391 . S
C3531 C3530 1.386 . S
C3531 C3535 1.393 . S
C3532 H3521 0.950 . S
C3532 C3530 1.391 . S
C3532 C3533 1.400 . S
C3533 C3527 1.491 1_565 S
C3533 C3532 1.400 . S
C3533 C3534 1.398 . S
C3534 H3522 0.950 . S
C3534 C3533 1.398 . S
C3534 C3535 1.391 . S
C3535 H3523 0.950 . S
C3535 C3531 1.393 . S
C3535 C3534 1.391 . S
H3536 C3544 0.950 . S
H3537 C3549 0.950 . S
H3538 C3546 0.935 1_556 S
H3539 C3548 0.950 . S
H3540 C3550 0.950 . S
H3541 C3552 0.935 1_554 S
H3542 C3554 0.950 . S
H3543 C3555 0.950 . S
C3544 H3536 0.950 . S
C3544 C3545 1.386 . S
C3544 C3546 1.407 . S
C3545 C3544 1.386 . S
C3545 C3549 1.393 . S
C3546 H3538 0.935 1_554 S
C3546 C3544 1.407 . S
C3546 C3547 1.405 . S
C3547 C3546 1.405 . S
C3547 C3548 1.398 . S
C3547 C3553 1.491 1_554 S
C3548 H3539 0.950 . S
C3548 C3547 1.398 . S
C3548 C3549 1.391 . S
C3549 H3537 0.950 . S
C3549 C3545 1.393 . S
C3549 C3548 1.391 . S
C3550 H3540 0.950 . S
C3550 C3551 1.386 . S
C3550 C3552 1.407 . S
C3551 C3550 1.386 . S
C3551 C3555 1.393 . S
C3552 H3541 0.935 1_556 S
C3552 C3550 1.407 . S
C3552 C3553 1.405 . S
C3553 C3547 1.491 1_556 S
C3553 C3552 1.405 . S
C3553 C3554 1.398 . S
C3554 H3542 0.950 . S
C3554 C3553 1.398 . S
C3554 C3555 1.391 . S
C3555 H3543 0.950 . S
C3555 C3551 1.393 . S
C3555 C3554 1.391 . S
H3556 C3564 0.950 . S
H3557 C3569 0.950 . S
H3558 C3566 0.950 . S
H3559 C3568 0.950 . S
H3560 C3570 0.950 . S
H3561 C3572 0.950 . S
H3562 C3574 0.950 . S
H3563 C3575 0.950 . S
C3564 H3556 0.950 . S
C3564 C3565 1.386 . S
C3564 C3566 1.391 . S
C3565 C3564 1.386 . S
C3565 C3569 1.393 . S
C3566 H3558 0.950 . S
C3566 C3564 1.391 . S
C3566 C3567 1.400 . S
C3567 C3566 1.400 . S
C3567 C3568 1.398 . S
C3567 C3573 1.491 1_565 S
C3568 H3559 0.950 . S
C3568 C3567 1.398 . S
C3568 C3569 1.391 . S
C3569 H3557 0.950 . S
C3569 C3565 1.393 . S
C3569 C3568 1.391 . S
C3570 H3560 0.950 . S
C3570 C3571 1.386 . S
C3570 C3572 1.391 . S
C3571 C3570 1.386 . S
C3571 C3575 1.393 . S
C3572 H3561 0.950 . S
C3572 C3570 1.391 . S
C3572 C3573 1.400 . S
C3573 C3567 1.491 1_545 S
C3573 C3572 1.400 . S
C3573 C3574 1.398 . S
C3574 H3562 0.950 . S
C3574 C3573 1.398 . S
C3574 C3575 1.391 . S
C3575 H3563 0.950 . S
C3575 C3571 1.393 . S
C3575 C3574 1.391 . S
H3576 C3584 0.950 . S
H3577 C3589 0.950 . S
H3578 C3586 0.950 . S
H3579 C3588 0.950 . S
H3580 C3590 0.950 . S
H3581 C3592 0.950 . S
H3582 C3594 0.950 . S
H3583 C3595 0.950 . S
C3584 H3576 0.950 . S
C3584 C3585 1.386 . S
C3584 C3586 1.391 . S
C3585 C3584 1.386 . S
C3585 C3589 1.393 . S
C3586 H3578 0.950 . S
C3586 C3584 1.391 . S
C3586 C3587 1.400 . S
C3587 C3586 1.400 . S
C3587 C3588 1.398 . S
C3587 C3593 1.491 . S
C3588 H3579 0.950 . S
C3588 C3587 1.398 . S
C3588 C3589 1.391 . S
C3589 H3577 0.950 . S
C3589 C3585 1.393 . S
C3589 C3588 1.391 . S
C3590 H3580 0.950 . S
C3590 C3591 1.386 . S
C3590 C3592 1.391 . S
C3591 C3590 1.386 . S
C3591 C3595 1.393 . S
C3592 H3581 0.950 . S
C3592 C3590 1.391 . S
C3592 C3593 1.400 . S
C3593 C3587 1.491 . S
C3593 C3592 1.400 . S
C3593 C3594 1.398 . S
C3594 H3582 0.950 . S
C3594 C3593 1.398 . S
C3594 C3595 1.391 . S
C3595 H3583 0.950 . S
C3595 C3591 1.393 . S
C3595 C3594 1.391 . S
H3596 C3604 0.950 . S
H3597 C3609 0.950 . S
H3598 C3606 0.950 . S
H3599 C3608 0.950 . S
H3600 C3610 0.950 . S
H3601 C3612 0.950 . S
H3602 C3614 0.950 . S
H3603 C3615 0.950 . S
C3604 H3596 0.950 . S
C3604 C3605 1.386 . S
C3604 C3606 1.391 . S
C3605 C3604 1.386 . S
C3605 C3609 1.393 . S
C3606 H3598 0.950 . S
C3606 C3604 1.391 . S
C3606 C3607 1.400 . S
C3607 C3606 1.400 . S
C3607 C3608 1.398 . S
C3607 C3613 1.491 1_545 S
C3608 H3599 0.950 . S
C3608 C3607 1.398 . S
C3608 C3609 1.391 . S
C3609 H3597 0.950 . S
C3609 C3605 1.393 . S
C3609 C3608 1.391 . S
C3610 H3600 0.950 . S
C3610 C3611 1.386 . S
C3610 C3612 1.391 . S
C3611 C3610 1.386 . S
C3611 C3615 1.393 . S
C3612 H3601 0.950 . S
C3612 C3610 1.391 . S
C3612 C3613 1.400 . S
C3613 C3607 1.491 1_565 S
C3613 C3612 1.400 . S
C3613 C3614 1.398 . S
C3614 H3602 0.950 . S
C3614 C3613 1.398 . S
C3614 C3615 1.391 . S
C3615 H3603 0.950 . S
C3615 C3611 1.393 . S
C3615 C3614 1.391 . S
H3616 C3624 0.950 . S
H3617 C3629 0.950 . S
H3618 C3626 0.950 . S
H3619 C3628 0.950 . S
H3620 C3630 0.950 . S
H3621 C3632 0.950 . S
H3622 C3634 0.950 . S
H3623 C3635 0.950 . S
C3624 H3616 0.950 . S
C3624 C3625 1.386 . S
C3624 C3626 1.391 . S
C3625 C3624 1.386 . S
C3625 C3629 1.393 . S
C3626 H3618 0.950 . S
C3626 C3624 1.391 . S
C3626 C3627 1.400 . S
C3627 C3626 1.400 . S
C3627 C3628 1.398 . S
C3627 C3633 1.491 . S
C3628 H3619 0.950 . S
C3628 C3627 1.398 . S
C3628 C3629 1.391 . S
C3629 H3617 0.950 . S
C3629 C3625 1.393 . S
C3629 C3628 1.391 . S
C3630 H3620 0.950 . S
C3630 C3631 1.386 . S
C3630 C3632 1.391 . S
C3631 C3630 1.386 . S
C3631 C3635 1.393 . S
C3632 H3621 0.950 . S
C3632 C3630 1.391 . S
C3632 C3633 1.400 . S
C3633 C3627 1.491 . S
C3633 C3632 1.400 . S
C3633 C3634 1.398 . S
C3634 H3622 0.950 . S
C3634 C3633 1.398 . S
C3634 C3635 1.391 . S
C3635 H3623 0.950 . S
C3635 C3631 1.393 . S
C3635 C3634 1.391 . S
H3636 C3644 0.950 . S
H3637 C3649 0.950 . S
H3638 C3646 0.950 . S
H3639 C3648 0.950 . S
H3640 C3650 0.950 . S
H3641 C3652 0.950 . S
H3642 C3654 0.950 . S
H3643 C3655 0.950 . S
C3644 H3636 0.950 . S
C3644 C3645 1.386 . S
C3644 C3646 1.391 . S
C3645 C3644 1.386 . S
C3645 C3649 1.393 . S
C3646 H3638 0.950 . S
C3646 C3644 1.391 . S
C3646 C3647 1.400 . S
C3647 C3646 1.400 . S
C3647 C3648 1.398 . S
C3647 C3653 1.491 . S
C3648 H3639 0.950 . S
C3648 C3647 1.398 . S
C3648 C3649 1.391 . S
C3649 H3637 0.950 . S
C3649 C3645 1.393 . S
C3649 C3648 1.391 . S
C3650 H3640 0.950 . S
C3650 C3651 1.386 . S
C3650 C3652 1.391 . S
C3651 C3650 1.386 . S
C3651 C3655 1.393 . S
C3652 H3641 0.950 . S
C3652 C3650 1.391 . S
C3652 C3653 1.400 . S
C3653 C3647 1.491 . S
C3653 C3652 1.400 . S
C3653 C3654 1.398 . S
C3654 H3642 0.950 . S
C3654 C3653 1.398 . S
C3654 C3655 1.391 . S
C3655 H3643 0.950 . S
C3655 C3651 1.393 . S
C3655 C3654 1.391 . S
H3656 C3664 0.950 . S
H3657 C3669 0.950 . S
H3658 C3666 0.950 . S
H3659 C3668 0.950 . S
H3660 C3670 0.950 . S
H3661 C3672 0.950 . S
H3662 C3674 0.950 . S
H3663 C3675 0.950 . S
C3664 H3656 0.950 . S
C3664 C3665 1.386 1_556 S
C3664 C3666 1.391 . S
C3665 C3664 1.386 1_554 S
C3665 C3669 1.393 . S
C3666 H3658 0.950 . S
C3666 C3664 1.391 . S
C3666 C3667 1.400 1_556 S
C3667 C3666 1.400 1_554 S
C3667 C3668 1.398 . S
C3667 C3673 1.491 1_554 S
C3668 H3659 0.950 . S
C3668 C3667 1.398 . S
C3668 C3669 1.391 . S
C3669 H3657 0.950 . S
C3669 C3665 1.393 . S
C3669 C3668 1.391 . S
C3670 H3660 0.950 . S
C3670 C3671 1.386 1_554 S
C3670 C3672 1.391 . S
C3671 C3670 1.386 1_556 S
C3671 C3675 1.393 . S
C3672 H3661 0.950 . S
C3672 C3670 1.391 . S
C3672 C3673 1.400 1_554 S
C3673 C3667 1.491 1_556 S
C3673 C3672 1.400 1_556 S
C3673 C3674 1.398 . S
C3674 H3662 0.950 . S
C3674 C3673 1.398 . S
C3674 C3675 1.391 . S
C3675 H3663 0.950 . S
C3675 C3671 1.393 . S
C3675 C3674 1.391 . S
H3676 C3684 0.950 . S
H3677 C3689 0.950 . S
H3678 C3686 0.950 . S
H3679 C3688 0.950 . S
H3680 C3690 0.950 . S
H3681 C3692 0.950 . S
H3682 C3694 0.950 . S
H3683 C3695 0.950 . S
C3684 H3676 0.950 . S
C3684 C3685 1.386 . S
C3684 C3686 1.391 . S
C3685 C3684 1.386 . S
C3685 C3689 1.393 . S
C3686 H3678 0.950 . S
C3686 C3684 1.391 . S
C3686 C3687 1.400 . S
C3687 C3686 1.400 . S
C3687 C3688 1.398 . S
C3687 C3693 1.491 . S
C3688 H3679 0.950 . S
C3688 C3687 1.398 . S
C3688 C3689 1.391 . S
C3689 H3677 0.950 . S
C3689 C3685 1.393 . S
C3689 C3688 1.391 . S
C3690 H3680 0.950 . S
C3690 C3691 1.386 . S
C3690 C3692 1.391 . S
C3691 C3690 1.386 . S
C3691 C3695 1.393 . S
C3692 H3681 0.950 . S
C3692 C3690 1.391 . S
C3692 C3693 1.400 . S
C3693 C3687 1.491 . S
C3693 C3692 1.400 . S
C3693 C3694 1.398 . S
C3694 H3682 0.950 . S
C3694 C3693 1.398 . S
C3694 C3695 1.391 . S
C3695 H3683 0.950 . S
C3695 C3691 1.393 . S
C3695 C3694 1.391 . S
H3696 C3704 0.950 . S
H3697 C3709 0.950 . S
H3698 C3706 0.950 . S
H3699 C3708 0.950 . S
H3700 C3710 0.950 . S
H3701 C3712 0.950 . S
H3702 C3714 0.950 . S
H3703 C3715 0.950 . S
C3704 H3696 0.950 . S
C3704 C3705 1.386 . S
C3704 C3706 1.391 . S
C3705 C3704 1.386 . S
C3705 C3709 1.393 . S
C3706 H3698 0.950 . S
C3706 C3704 1.391 . S
C3706 C3707 1.400 . S
C3707 C3706 1.400 . S
C3707 C3708 1.398 . S
C3707 C3713 1.491 . S
C3708 H3699 0.950 . S
C3708 C3707 1.398 . S
C3708 C3709 1.391 . S
C3709 H3697 0.950 . S
C3709 C3705 1.393 . S
C3709 C3708 1.391 . S
C3710 H3700 0.950 . S
C3710 C3711 1.386 . S
C3710 C3712 1.391 . S
C3711 C3710 1.386 . S
C3711 C3715 1.393 . S
C3712 H3701 0.950 . S
C3712 C3710 1.391 . S
C3712 C3713 1.400 . S
C3713 C3707 1.491 . S
C3713 C3712 1.400 . S
C3713 C3714 1.398 . S
C3714 H3702 0.950 . S
C3714 C3713 1.398 . S
C3714 C3715 1.391 . S
C3715 H3703 0.950 . S
C3715 C3711 1.393 . S
C3715 C3714 1.391 . S
H3716 C3724 0.950 . S
H3717 C3729 0.950 . S
H3718 C3726 0.950 . S
H3719 C3728 0.950 . S
H3720 C3730 0.950 . S
H3721 C3732 0.950 . S
H3722 C3734 0.950 . S
H3723 C3735 0.950 . S
C3724 H3716 0.950 . S
C3724 C3725 1.386 . S
C3724 C3726 1.391 . S
C3725 C3724 1.386 . S
C3725 C3729 1.393 . S
C3726 H3718 0.950 . S
C3726 C3724 1.391 . S
C3726 C3727 1.400 . S
C3727 C3726 1.400 . S
C3727 C3728 1.398 . S
C3727 C3733 1.491 . S
C3728 H3719 0.950 . S
C3728 C3727 1.398 . S
C3728 C3729 1.391 . S
C3729 H3717 0.950 . S
C3729 C3725 1.393 . S
C3729 C3728 1.391 . S
C3730 H3720 0.950 . S
C3730 C3731 1.386 . S
C3730 C3732 1.391 . S
C3731 C3730 1.386 . S
C3731 C3735 1.393 . S
C3732 H3721 0.950 . S
C3732 C3730 1.391 . S
C3732 C3733 1.400 . S
C3733 C3727 1.491 . S
C3733 C3732 1.400 . S
C3733 C3734 1.398 . S
C3734 H3722 0.950 . S
C3734 C3733 1.398 . S
C3734 C3735 1.391 . S
C3735 H3723 0.950 . S
C3735 C3731 1.393 . S
C3735 C3734 1.391 . S
H3736 C3744 0.950 . S
H3737 C3749 0.950 . S
H3738 C3746 0.950 . S
H3739 C3748 0.950 . S
H3740 C3750 0.950 . S
H3741 C3752 0.950 . S
H3742 C3754 0.950 . S
H3743 C3755 0.950 . S
C3744 H3736 0.950 . S
C3744 C3745 1.386 . S
C3744 C3746 1.391 . S
C3745 C3744 1.386 . S
C3745 C3749 1.393 1_556 S
C3746 H3738 0.950 . S
C3746 C3744 1.391 . S
C3746 C3747 1.400 . S
C3747 C3746 1.400 . S
C3747 C3748 1.398 1_556 S
C3747 C3753 1.491 1_556 S
C3748 H3739 0.950 . S
C3748 C3747 1.398 1_554 S
C3748 C3749 1.391 . S
C3749 H3737 0.950 . S
C3749 C3745 1.393 1_554 S
C3749 C3748 1.391 . S
C3750 H3740 0.950 . S
C3750 C3751 1.386 . S
C3750 C3752 1.391 . S
C3751 C3750 1.386 . S
C3751 C3755 1.393 1_554 S
C3752 H3741 0.950 . S
C3752 C3750 1.391 . S
C3752 C3753 1.400 . S
C3753 C3747 1.491 1_554 S
C3753 C3752 1.400 . S
C3753 C3754 1.398 1_554 S
C3754 H3742 0.950 . S
C3754 C3753 1.398 1_556 S
C3754 C3755 1.391 . S
C3755 H3743 0.950 . S
C3755 C3751 1.393 1_556 S
C3755 C3754 1.391 . S
H3756 C3764 0.950 . S
H3757 C3769 0.950 . S
H3758 C3766 0.950 . S
H3759 C3768 0.950 . S
H3760 C3770 0.950 . S
H3761 C3772 0.950 . S
H3762 C3774 0.950 . S
H3763 C3775 0.950 . S
C3764 H3756 0.950 . S
C3764 C3765 1.386 . S
C3764 C3766 1.391 . S
C3765 C3764 1.386 . S
C3765 C3769 1.393 . S
C3766 H3758 0.950 . S
C3766 C3764 1.391 . S
C3766 C3767 1.400 . S
C3767 C3766 1.400 . S
C3767 C3768 1.398 . S
C3767 C3773 1.491 . S
C3768 H3759 0.950 . S
C3768 C3767 1.398 . S
C3768 C3769 1.391 . S
C3769 H3757 0.950 . S
C3769 C3765 1.393 . S
C3769 C3768 1.391 . S
C3770 H3760 0.950 . S
C3770 C3771 1.386 . S
C3770 C3772 1.391 . S
C3771 C3770 1.386 . S
C3771 C3775 1.393 . S
C3772 H3761 0.950 . S
C3772 C3770 1.391 . S
C3772 C3773 1.400 . S
C3773 C3767 1.491 . S
C3773 C3772 1.400 . S
C3773 C3774 1.398 . S
C3774 H3762 0.950 . S
C3774 C3773 1.398 . S
C3774 C3775 1.391 . S
C3775 H3763 0.950 . S
C3775 C3771 1.393 . S
C3775 C3774 1.391 . S
H3776 C3784 0.950 . S
H3777 C3789 0.950 . S
H3778 C3786 0.950 . S
H3779 C3788 0.950 . S
H3780 C3790 0.950 . S
H3781 C3792 0.950 . S
H3782 C3794 0.950 . S
H3783 C3795 0.950 . S
C3784 H3776 0.950 . S
C3784 C3785 1.386 . S
C3784 C3786 1.391 . S
C3785 C3784 1.386 . S
C3785 C3789 1.393 . S
C3786 H3778 0.950 . S
C3786 C3784 1.391 . S
C3786 C3787 1.400 . S
C3787 C3786 1.400 . S
C3787 C3788 1.398 . S
C3787 C3793 1.491 . S
C3788 H3779 0.950 . S
C3788 C3787 1.398 . S
C3788 C3789 1.391 . S
C3789 H3777 0.950 . S
C3789 C3785 1.393 . S
C3789 C3788 1.391 . S
C3790 H3780 0.950 . S
C3790 C3791 1.386 . S
C3790 C3792 1.391 . S
C3791 C3790 1.386 . S
C3791 C3795 1.393 . S
C3792 H3781 0.950 . S
C3792 C3790 1.391 . S
C3792 C3793 1.400 . S
C3793 C3787 1.491 . S
C3793 C3792 1.400 . S
C3793 C3794 1.398 . S
C3794 H3782 0.950 . S
C3794 C3793 1.398 . S
C3794 C3795 1.391 . S
C3795 H3783 0.950 . S
C3795 C3791 1.393 . S
C3795 C3794 1.391 . S
H3796 C3804 0.950 . S
H3797 C3809 0.950 . S
H3798 C3806 0.950 . S
H3799 C3808 0.950 . S
H3800 C3810 0.950 . S
H3801 C3812 0.950 . S
H3802 C3814 0.950 . S
H3803 C3815 0.950 . S
C3804 H3796 0.950 . S
C3804 C3805 1.386 . S
C3804 C3806 1.391 . S
C3805 C3804 1.386 . S
C3805 C3809 1.393 . S
C3806 H3798 0.950 . S
C3806 C3804 1.391 . S
C3806 C3807 1.400 . S
C3807 C3806 1.400 . S
C3807 C3808 1.398 . S
C3807 C3813 1.491 . S
C3808 H3799 0.950 . S
C3808 C3807 1.398 . S
C3808 C3809 1.391 . S
C3809 H3797 0.950 . S
C3809 C3805 1.393 . S
C3809 C3808 1.391 . S
C3810 H3800 0.950 . S
C3810 C3811 1.386 . S
C3810 C3812 1.391 . S
C3811 C3810 1.386 . S
C3811 C3815 1.393 . S
C3812 H3801 0.950 . S
C3812 C3810 1.391 . S
C3812 C3813 1.400 . S
C3813 C3807 1.491 . S
C3813 C3812 1.400 . S
C3813 C3814 1.398 . S
C3814 H3802 0.950 . S
C3814 C3813 1.398 . S
C3814 C3815 1.391 . S
C3815 H3803 0.950 . S
C3815 C3811 1.393 . S
C3815 C3814 1.391 . S
H3816 C3824 0.950 . S
H3817 C3829 0.950 . S
H3818 C3826 0.950 . S
H3819 C3828 0.950 . S
H3820 C3830 0.950 . S
H3821 C3832 0.950 . S
H3822 C3834 0.950 . S
H3823 C3835 0.950 . S
C3824 H3816 0.950 . S
C3824 C3825 1.386 . S
C3824 C3826 1.391 . S
C3825 C3824 1.386 . S
C3825 C3829 1.393 . S
C3826 H3818 0.950 . S
C3826 C3824 1.391 . S
C3826 C3827 1.400 . S
C3827 C3826 1.400 . S
C3827 C3828 1.398 . S
C3827 C3833 1.491 . S
C3828 H3819 0.950 . S
C3828 C3827 1.398 . S
C3828 C3829 1.391 . S
C3829 H3817 0.950 . S
C3829 C3825 1.393 . S
C3829 C3828 1.391 . S
C3830 H3820 0.950 . S
C3830 C3831 1.386 . S
C3830 C3832 1.391 . S
C3831 C3830 1.386 . S
C3831 C3835 1.393 . S
C3832 H3821 0.950 . S
C3832 C3830 1.391 . S
C3832 C3833 1.400 . S
C3833 C3827 1.491 . S
C3833 C3832 1.400 . S
C3833 C3834 1.398 . S
C3834 H3822 0.950 . S
C3834 C3833 1.398 . S
C3834 C3835 1.391 . S
C3835 H3823 0.950 . S
C3835 C3831 1.393 . S
C3835 C3834 1.391 . S
H3836 C3844 0.950 . S
H3837 C3849 0.950 . S
H3838 C3846 0.950 . S
H3839 C3848 0.950 . S
H3840 C3850 0.950 . S
H3841 C3852 0.950 . S
H3842 C3854 0.950 . S
H3843 C3855 0.950 . S
C3844 H3836 0.950 . S
C3844 C3845 1.386 . S
C3844 C3846 1.391 . S
C3845 C3844 1.386 . S
C3845 C3849 1.393 . S
C3846 H3838 0.950 . S
C3846 C3844 1.391 . S
C3846 C3847 1.400 . S
C3847 C3846 1.400 . S
C3847 C3848 1.398 . S
C3847 C3853 1.491 . S
C3848 H3839 0.950 . S
C3848 C3847 1.398 . S
C3848 C3849 1.391 . S
C3849 H3837 0.950 . S
C3849 C3845 1.393 . S
C3849 C3848 1.391 . S
C3850 H3840 0.950 . S
C3850 C3851 1.386 . S
C3850 C3852 1.391 . S
C3851 C3850 1.386 . S
C3851 C3855 1.393 . S
C3852 H3841 0.950 . S
C3852 C3850 1.391 . S
C3852 C3853 1.400 . S
C3853 C3847 1.491 . S
C3853 C3852 1.400 . S
C3853 C3854 1.398 . S
C3854 H3842 0.950 . S
C3854 C3853 1.398 . S
C3854 C3855 1.391 . S
C3855 H3843 0.950 . S
C3855 C3851 1.393 . S
C3855 C3854 1.391 . S
H3856 C3864 0.950 . S
H3857 C3869 0.950 . S
H3858 C3866 0.950 . S
H3859 C3868 0.950 . S
H3860 C3870 0.950 . S
H3861 C3872 0.950 . S
H3862 C3874 0.950 . S
H3863 C3875 0.950 . S
C3864 H3856 0.950 . S
C3864 C3865 1.386 . S
C3864 C3866 1.391 . S
C3865 C3864 1.386 . S
C3865 C3869 1.393 . S
C3866 H3858 0.950 . S
C3866 C3864 1.391 . S
C3866 C3867 1.400 . S
C3867 C3866 1.400 . S
C3867 C3868 1.398 . S
C3867 C3873 1.491 . S
C3868 H3859 0.950 . S
C3868 C3867 1.398 . S
C3868 C3869 1.391 . S
C3869 H3857 0.950 . S
C3869 C3865 1.393 . S
C3869 C3868 1.391 . S
C3870 H3860 0.950 . S
C3870 C3871 1.386 . S
C3870 C3872 1.391 . S
C3871 C3870 1.386 . S
C3871 C3875 1.393 . S
C3872 H3861 0.950 . S
C3872 C3870 1.391 . S
C3872 C3873 1.400 . S
C3873 C3867 1.491 . S
C3873 C3872 1.400 . S
C3873 C3874 1.398 . S
C3874 H3862 0.950 . S
C3874 C3873 1.398 . S
C3874 C3875 1.391 . S
C3875 H3863 0.950 . S
C3875 C3871 1.393 . S
C3875 C3874 1.391 . S
H3876 C3884 0.950 . S
H3877 C3889 0.950 . S
H3878 C3886 0.950 . S
H3879 C3888 0.950 . S
H3880 C3890 0.950 . S
H3881 C3892 0.950 . S
H3882 C3894 0.950 . S
H3883 C3895 0.950 . S
C3884 H3876 0.950 . S
C3884 C3885 1.386 . S
C3884 C3886 1.391 . S
C3885 C3884 1.386 . S
C3885 C3889 1.393 . S
C3886 H3878 0.950 . S
C3886 C3884 1.391 . S
C3886 C3887 1.400 . S
C3887 C3886 1.400 . S
C3887 C3888 1.398 . S
C3887 C3893 1.491 . S
C3888 H3879 0.950 . S
C3888 C3887 1.398 . S
C3888 C3889 1.391 . S
C3889 H3877 0.950 . S
C3889 C3885 1.393 . S
C3889 C3888 1.391 . S
C3890 H3880 0.950 . S
C3890 C3891 1.386 . S
C3890 C3892 1.391 . S
C3891 C3890 1.386 . S
C3891 C3895 1.393 . S
C3892 H3881 0.950 . S
C3892 C3890 1.391 . S
C3892 C3893 1.400 . S
C3893 C3887 1.491 . S
C3893 C3892 1.400 . S
C3893 C3894 1.398 . S
C3894 H3882 0.950 . S
C3894 C3893 1.398 . S
C3894 C3895 1.391 . S
C3895 H3883 0.950 . S
C3895 C3891 1.393 . S
C3895 C3894 1.391 . S
H3896 C3904 0.950 . S
H3897 C3909 0.950 . S
H3898 C3906 0.950 . S
H3899 C3908 0.950 . S
H3900 C3910 0.950 . S
H3901 C3912 0.950 . S
H3902 C3914 0.950 . S
H3903 C3915 0.950 . S
C3904 H3896 0.950 . S
C3904 C3905 1.386 . S
C3904 C3906 1.391 . S
C3905 C3904 1.386 . S
C3905 C3909 1.393 . S
C3906 H3898 0.950 . S
C3906 C3904 1.391 . S
C3906 C3907 1.400 . S
C3907 C3906 1.400 . S
C3907 C3908 1.398 . S
C3907 C3913 1.491 . S
C3908 H3899 0.950 . S
C3908 C3907 1.398 . S
C3908 C3909 1.391 . S
C3909 H3897 0.950 . S
C3909 C3905 1.393 . S
C3909 C3908 1.391 . S
C3910 H3900 0.950 . S
C3910 C3911 1.386 . S
C3910 C3912 1.391 . S
C3911 C3910 1.386 . S
C3911 C3915 1.393 . S
C3912 H3901 0.950 . S
C3912 C3910 1.391 . S
C3912 C3913 1.400 . S
C3913 C3907 1.491 . S
C3913 C3912 1.400 . S
C3913 C3914 1.398 . S
C3914 H3902 0.950 . S
C3914 C3913 1.398 . S
C3914 C3915 1.391 . S
C3915 H3903 0.950 . S
C3915 C3911 1.393 . S
C3915 C3914 1.391 . S
H3916 C3924 0.950 . S
H3917 C3929 0.950 . S
H3918 C3926 0.950 . S
H3919 C3928 0.950 . S
H3920 C3930 0.950 . S
H3921 C3932 0.950 . S
H3922 C3934 0.950 . S
H3923 C3935 0.950 . S
C3924 H3916 0.950 . S
C3924 C3925 1.386 . S
C3924 C3926 1.391 . S
C3925 C3924 1.386 . S
C3925 C3929 1.393 . S
C3926 H3918 0.950 . S
C3926 C3924 1.391 . S
C3926 C3927 1.400 . S
C3927 C3926 1.400 . S
C3927 C3928 1.398 . S
C3927 C3933 1.491 . S
C3928 H3919 0.950 . S
C3928 C3927 1.398 . S
C3928 C3929 1.391 . S
C3929 H3917 0.950 . S
C3929 C3925 1.393 . S
C3929 C3928 1.391 . S
C3930 H3920 0.950 . S
C3930 C3931 1.386 . S
C3930 C3932 1.391 . S
C3931 C3930 1.386 . S
C3931 C3935 1.393 . S
C3932 H3921 0.950 . S
C3932 C3930 1.391 . S
C3932 C3933 1.400 . S
C3933 C3927 1.491 . S
C3933 C3932 1.400 . S
C3933 C3934 1.398 . S
C3934 H3922 0.950 . S
C3934 C3933 1.398 . S
C3934 C3935 1.391 . S
C3935 H3923 0.950 . S
C3935 C3931 1.393 . S
C3935 C3934 1.391 . S
H3936 C3944 0.950 . S
H3937 C3949 0.950 . S
H3938 C3946 0.950 . S
H3939 C3948 0.950 . S
H3940 C3950 0.950 . S
H3941 C3952 0.950 . S
H3942 C3954 0.950 . S
H3943 C3955 0.950 . S
C3944 H3936 0.950 . S
C3944 C3945 1.386 . S
C3944 C3946 1.391 . S
C3945 C3944 1.386 . S
C3945 C3949 1.393 . S
C3946 H3938 0.950 . S
C3946 C3944 1.391 . S
C3946 C3947 1.400 . S
C3947 C3946 1.400 . S
C3947 C3948 1.398 . S
C3947 C3953 1.491 . S
C3948 H3939 0.950 . S
C3948 C3947 1.398 . S
C3948 C3949 1.391 . S
C3949 H3937 0.950 . S
C3949 C3945 1.393 . S
C3949 C3948 1.391 . S
C3950 H3940 0.950 . S
C3950 C3951 1.386 . S
C3950 C3952 1.391 . S
C3951 C3950 1.386 . S
C3951 C3955 1.393 . S
C3952 H3941 0.950 . S
C3952 C3950 1.391 . S
C3952 C3953 1.400 . S
C3953 C3947 1.491 . S
C3953 C3952 1.400 . S
C3953 C3954 1.398 . S
C3954 H3942 0.950 . S
C3954 C3953 1.398 . S
C3954 C3955 1.391 . S
C3955 H3943 0.950 . S
C3955 C3951 1.393 . S
C3955 C3954 1.391 . S
H3956 C3964 0.950 . S
H3957 C3969 0.950 . S
H3958 C3966 0.950 . S
H3959 C3968 0.950 . S
H3960 C3970 0.950 . S
H3961 C3972 0.950 . S
H3962 C3974 0.950 . S
H3963 C3975 0.950 . S
C3964 H3956 0.950 . S
C3964 C3965 1.386 . S
C3964 C3966 1.391 . S
C3965 C3964 1.386 . S
C3965 C3969 1.393 . S
C3966 H3958 0.950 . S
C3966 C3964 1.391 . S
C3966 C3967 1.400 . S
C3967 C3966 1.400 . S
C3967 C3968 1.398 . S
C3967 C3973 1.491 . S
C3968 H3959 0.950 . S
C3968 C3967 1.398 . S
C3968 C3969 1.391 . S
C3969 H3957 0.950 . S
C3969 C3965 1.393 . S
C3969 C3968 1.391 . S
C3970 H3960 0.950 . S
C3970 C3971 1.386 . S
C3970 C3972 1.391 . S
C3971 C3970 1.386 . S
C3971 C3975 1.393 . S
C3972 H3961 0.950 . S
C3972 C3970 1.391 . S
C3972 C3973 1.400 . S
C3973 C3967 1.491 . S
C3973 C3972 1.400 . S
C3973 C3974 1.398 . S
C3974 H3962 0.950 . S
C3974 C3973 1.398 . S
C3974 C3975 1.391 . S
C3975 H3963 0.950 . S
C3975 C3971 1.393 . S
C3975 C3974 1.391 . S
H3976 C3984 0.950 . S
H3977 C3989 0.950 . S
H3978 C3986 0.950 . S
H3979 C3988 0.950 . S
H3980 C3990 0.950 . S
H3981 C3992 0.950 . S
H3982 C3994 0.950 . S
H3983 C3995 0.950 . S
C3984 H3976 0.950 . S
C3984 C3985 1.386 . S
C3984 C3986 1.391 . S
C3985 C3984 1.386 . S
C3985 C3989 1.393 . S
C3986 H3978 0.950 . S
C3986 C3984 1.391 . S
C3986 C3987 1.400 . S
C3987 C3986 1.400 . S
C3987 C3988 1.398 . S
C3987 C3993 1.491 . S
C3988 H3979 0.950 . S
C3988 C3987 1.398 . S
C3988 C3989 1.391 . S
C3989 H3977 0.950 . S
C3989 C3985 1.393 . S
C3989 C3988 1.391 . S
C3990 H3980 0.950 . S
C3990 C3991 1.386 . S
C3990 C3992 1.391 . S
C3991 C3990 1.386 . S
C3991 C3995 1.393 . S
C3992 H3981 0.950 . S
C3992 C3990 1.391 . S
C3992 C3993 1.400 . S
C3993 C3987 1.491 . S
C3993 C3992 1.400 . S
C3993 C3994 1.398 . S
C3994 H3982 0.950 . S
C3994 C3993 1.398 . S
C3994 C3995 1.391 . S
C3995 H3983 0.950 . S
C3995 C3991 1.393 . S
C3995 C3994 1.391 . S
H3996 C4004 0.950 . S
H3997 C4009 0.950 . S
H3998 C4006 0.950 . S
H3999 C4008 0.950 . S
H4000 C4010 0.950 . S
H4001 C4012 0.950 . S
H4002 C4014 0.950 . S
H4003 C4015 0.950 . S
C4004 H3996 0.950 . S
C4004 C4005 1.386 . S
C4004 C4006 1.391 . S
C4005 C4004 1.386 . S
C4005 C4009 1.393 . S
C4006 H3998 0.950 . S
C4006 C4004 1.391 . S
C4006 C4007 1.400 . S
C4007 C4006 1.400 . S
C4007 C4008 1.398 . S
C4007 C4013 1.491 . S
C4008 H3999 0.950 . S
C4008 C4007 1.398 . S
C4008 C4009 1.391 . S
C4009 H3997 0.950 . S
C4009 C4005 1.393 . S
C4009 C4008 1.391 . S
C4010 H4000 0.950 . S
C4010 C4011 1.386 . S
C4010 C4012 1.391 . S
C4011 C4010 1.386 . S
C4011 C4015 1.393 . S
C4012 H4001 0.950 . S
C4012 C4010 1.391 . S
C4012 C4013 1.400 . S
C4013 C4007 1.491 . S
C4013 C4012 1.400 . S
C4013 C4014 1.398 . S
C4014 H4002 0.950 . S
C4014 C4013 1.398 . S
C4014 C4015 1.391 . S
C4015 H4003 0.950 . S
C4015 C4011 1.393 . S
C4015 C4014 1.391 . S
H4016 C4024 0.950 . S
H4017 C4029 0.950 . S
H4018 C4026 0.950 . S
H4019 C4028 0.950 . S
H4020 C4030 0.950 . S
H4021 C4032 0.950 . S
H4022 C4034 0.950 . S
H4023 C4035 0.950 . S
C4024 H4016 0.950 . S
C4024 C4025 1.386 . S
C4024 C4026 1.391 . S
C4025 C4024 1.386 . S
C4025 C4029 1.393 . S
C4026 H4018 0.950 . S
C4026 C4024 1.391 . S
C4026 C4027 1.400 . S
C4027 C4026 1.400 . S
C4027 C4028 1.398 . S
C4027 C4033 1.491 . S
C4028 H4019 0.950 . S
C4028 C4027 1.398 . S
C4028 C4029 1.391 . S
C4029 H4017 0.950 . S
C4029 C4025 1.393 . S
C4029 C4028 1.391 . S
C4030 H4020 0.950 . S
C4030 C4031 1.386 . S
C4030 C4032 1.391 . S
C4031 C4030 1.386 . S
C4031 C4035 1.393 . S
C4032 H4021 0.950 . S
C4032 C4030 1.391 . S
C4032 C4033 1.400 . S
C4033 C4027 1.491 . S
C4033 C4032 1.400 . S
C4033 C4034 1.398 . S
C4034 H4022 0.950 . S
C4034 C4033 1.398 . S
C4034 C4035 1.391 . S
C4035 H4023 0.950 . S
C4035 C4031 1.393 . S
C4035 C4034 1.391 . S
H4036 C4044 0.950 . S
H4037 C4049 0.950 . S
H4038 C4046 0.950 . S
H4039 C4048 0.950 . S
H4040 C4050 0.950 . S
H4041 C4052 0.950 . S
H4042 C4054 0.950 . S
H4043 C4055 0.950 . S
C4044 H4036 0.950 . S
C4044 C4045 1.386 . S
C4044 C4046 1.391 . S
C4045 C4044 1.386 . S
C4045 C4049 1.393 . S
C4046 H4038 0.950 . S
C4046 C4044 1.391 . S
C4046 C4047 1.400 . S
C4047 C4046 1.400 . S
C4047 C4048 1.398 . S
C4047 C4053 1.491 . S
C4048 H4039 0.950 . S
C4048 C4047 1.398 . S
C4048 C4049 1.391 . S
C4049 H4037 0.950 . S
C4049 C4045 1.393 . S
C4049 C4048 1.391 . S
C4050 H4040 0.950 . S
C4050 C4051 1.386 . S
C4050 C4052 1.391 . S
C4051 C4050 1.386 . S
C4051 C4055 1.393 . S
C4052 H4041 0.950 . S
C4052 C4050 1.391 . S
C4052 C4053 1.400 . S
C4053 C4047 1.491 . S
C4053 C4052 1.400 . S
C4053 C4054 1.398 . S
C4054 H4042 0.950 . S
C4054 C4053 1.398 . S
C4054 C4055 1.391 . S
C4055 H4043 0.950 . S
C4055 C4051 1.393 . S
C4055 C4054 1.391 . S
H4056 C4064 0.950 . S
H4057 C4069 0.950 . S
H4058 C4066 0.950 . S
H4059 C4068 0.950 . S
H4060 C4070 0.950 . S
H4061 C4072 0.950 . S
H4062 C4074 0.950 . S
H4063 C4075 0.950 . S
C4064 H4056 0.950 . S
C4064 C4065 1.386 . S
C4064 C4066 1.391 . S
C4065 C4064 1.386 . S
C4065 C4069 1.393 . S
C4066 H4058 0.950 . S
C4066 C4064 1.391 . S
C4066 C4067 1.400 . S
C4067 C4066 1.400 . S
C4067 C4068 1.398 . S
C4067 C4073 1.491 . S
C4068 H4059 0.950 . S
C4068 C4067 1.398 . S
C4068 C4069 1.391 . S
C4069 H4057 0.950 . S
C4069 C4065 1.393 . S
C4069 C4068 1.391 . S
C4070 H4060 0.950 . S
C4070 C4071 1.386 . S
C4070 C4072 1.391 . S
C4071 C4070 1.386 . S
C4071 C4075 1.393 . S
C4072 H4061 0.950 . S
C4072 C4070 1.391 . S
C4072 C4073 1.400 . S
C4073 C4067 1.491 . S
C4073 C4072 1.400 . S
C4073 C4074 1.398 . S
C4074 H4062 0.950 . S
C4074 C4073 1.398 . S
C4074 C4075 1.391 . S
C4075 H4063 0.950 . S
C4075 C4071 1.393 . S
C4075 C4074 1.391 . S
H4076 C4084 0.950 . S
H4077 C4089 0.950 . S
H4078 C4086 0.950 . S
H4079 C4088 0.950 . S
H4080 C4090 0.950 . S
H4081 C4092 0.950 . S
H4082 C4094 0.950 . S
H4083 C4095 0.950 . S
C4084 H4076 0.950 . S
C4084 C4085 1.386 . S
C4084 C4086 1.391 . S
C4085 C4084 1.386 . S
C4085 C4089 1.393 . S
C4086 H4078 0.950 . S
C4086 C4084 1.391 . S
C4086 C4087 1.400 . S
C4087 C4086 1.400 . S
C4087 C4088 1.398 . S
C4087 C4093 1.491 . S
C4088 H4079 0.950 . S
C4088 C4087 1.398 . S
C4088 C4089 1.391 . S
C4089 H4077 0.950 . S
C4089 C4085 1.393 . S
C4089 C4088 1.391 . S
C4090 H4080 0.950 . S
C4090 C4091 1.386 . S
C4090 C4092 1.391 . S
C4091 C4090 1.386 . S
C4091 C4095 1.393 . S
C4092 H4081 0.950 . S
C4092 C4090 1.391 . S
C4092 C4093 1.400 . S
C4093 C4087 1.491 . S
C4093 C4092 1.400 . S
C4093 C4094 1.398 . S
C4094 H4082 0.950 . S
C4094 C4093 1.398 . S
C4094 C4095 1.391 . S
C4095 H4083 0.950 . S
C4095 C4091 1.393 . S
C4095 C4094 1.391 . S
C2825 C733 1.568 . S
C2831 C57 1.565 . S
C2845 C2220 1.573 . S
C2851 C145 1.571 . S
C2865 C900 1.571 . S
C2871 C233 1.569 . S
C2885 C2405 1.569 . S
C2891 C284 1.567 . S
C2905 C1105 1.565 . S
C2911 C372 1.562 . S
C2925 C489 1.561 . S
C2931 C2609 1.564 . S
C2945 C557 1.561 . S
C2951 C1289 1.564 . S
C2965 C636 1.561 . S
C2971 C2777 1.564 . S
C2985 C1553 1.569 . S
C2991 C812 1.571 . S
C3005 C1701 1.564 . S
C3011 C988 1.567 . S
C3025 C1201 1.564 . S
C3031 C1897 1.561 . S
C3045 C1369 1.566 . S
C3051 C2044 1.564 . S
C3065 C1465 1.561 . S
C3071 C2141 1.564 . S
C3085 C2308 1.572 . S
C3091 C1641 1.571 . S
C3105 C1789 1.564 . S
C3111 C2513 1.567 . S
C3125 C2697 1.564 . S
C3131 C1956 1.561 . S
C3145 C1633 1.088 . S
C3151 C49 1.092 . S
C3165 C1692 1.092 . S
C3171 C137 1.103 . S
C3185 C225 1.102 . S
C3191 C1457 1.107 . S
C3205 C293 1.093 . S
C3211 C1545 1.088 . S
C3225 C1965 1.098 . S
C3231 C381 1.107 . S
C3245 C497 1.094 . S
C3251 C2053 1.088 . S
C3265 C1780 1.088 . S
C3271 C548 1.094 . S
C3285 C1905 1.092 . S
C3291 C645 1.103 . S
C3305 C753 1.086 . S
C3311 C2345 1.098 . S
C3325 C2425 1.088 . S
C3331 C849 1.082 . S
C3345 C937 1.084 . S
C3351 C2161 1.084 . S
C3365 C1025 1.087 . S
C3371 C2257 1.099 . S
C3385 C1085 1.088 . S
C3391 C2660 1.082 . S
C3405 C1164 1.085 . S
C3411 C2757 1.098 . S
C3425 C2493 1.092 . S
C3431 C1252 1.082 . S
C3445 C2572 1.098 . S
C3451 C1349 1.099 . S
C3465 C577 1.333 . S
C3471 C20 1.333 . S
C3485 C673 1.343 . S
C3491 C108 1.343 . S
C3505 C409 1.332 . S
C3511 C196 1.332 . S
C3525 C321 1.344 . S
C3531 C469 1.344 . S
C3545 C1281 1.343 . S
C3551 C724 1.343 . S
C3565 C1377 1.342 . S
C3571 C821 1.343 . S
C3585 C1113 1.341 . S
C3591 C909 1.342 . S
C3605 C1193 1.343 . S
C3611 C997 1.342 . S
C3625 C1993 1.331 . S
C3631 C1428 1.331 . S
C3645 C2081 1.333 . S
C3651 C1516 1.333 . S
C3665 C1604 1.335 . S
C3671 C1809 1.336 . S
C3685 C1721 1.336 . S
C3691 C1877 1.336 . S
C3705 C2689 1.336 . S
C3711 C2132 1.335 . S
C3725 C2785 1.336 . S
C3731 C2229 1.337 . S
C3745 C2317 1.342 . S
C3751 C2521 1.342 . S
C3765 C2396 1.343 . S
C3771 C2601 1.343 . S
C3785 C29 1.551 . S
C3791 C1868 1.551 . S
C3805 C1985 1.551 . S
C3811 C117 1.556 . S
C3825 C2073 1.561 . S
C3831 C205 1.561 . S
C3845 C313 1.554 . S
C3851 C1817 1.560 . S
C3865 C1729 1.556 . S
C3871 C401 1.551 . S
C3885 C460 1.551 . S
C3891 C1437 1.554 . S
C3905 C1525 1.558 . S
C3911 C585 1.552 . S
C3925 C665 1.557 . S
C3931 C1613 1.551 . S
C3945 C2581 1.560 . S
C3951 C761 1.560 . S
C3965 C2669 1.568 . S
C3971 C841 1.561 . S
C3985 C929 1.570 . S
C3991 C2748 1.566 . S
C4005 C2484 1.560 . S
C4011 C1017 1.560 . S
C4025 C2433 1.564 . S
C4031 C1076 1.559 . S
C4045 C1173 1.564 . S
C4051 C2169 1.570 . S
C4065 C2249 1.570 . S
C4071 C1261 1.565 . S
C4085 C1340 1.561 . S
C4091 C2337 1.569 . S
