# Generated by pormake.
# Topology lon, (4)-cn, num edge types: 1
# Building blocks:
#     Node 0, Type 0, BuildingBlock: AZAVOO_clean_sbu_0, # of connection points: 4
#     Node 1, Type 0, BuildingBlock: AZAVOO_clean_sbu_0, # of connection points: 4
#     Node 2, Type 0, BuildingBlock: AZAVOO_clean_sbu_0, # of connection points: 4
#     Node 3, Type 0, BuildingBlock: AZAVOO_clean_sbu_0, # of connection points: 4
#     Edge 4, Type (0, 0), BuildingBlock: UVAHIK_clean_linker_0, # of connection points: 2
#     Edge 5, Type (0, 0), BuildingBlock: UVAHIK_clean_linker_0, # of connection points: 2
#     Edge 6, Type (0, 0), BuildingBlock: UVAHIK_clean_linker_0, # of connection points: 2
#     Edge 7, Type (0, 0), BuildingBlock: UVAHIK_clean_linker_0, # of connection points: 2
#     Edge 8, Type (0, 0), BuildingBlock: UVAHIK_clean_linker_0, # of connection points: 2
#     Edge 9, Type (0, 0), BuildingBlock: UVAHIK_clean_linker_0, # of connection points: 2
#     Edge 10, Type (0, 0), BuildingBlock: UVAHIK_clean_linker_0, # of connection points: 2
#     Edge 11, Type (0, 0), BuildingBlock: UVAHIK_clean_linker_0, # of connection points: 2
# Relax obj value: 0.018
# Max RMSD: 0.070
# Mean RMSD: 0.063
data_MOF--net-lon--node1-AZAVOO_clean_sbu_0--edge1-UVAHIK_clean_linker_0
_symmetry_space_group_name_H-M    P1
_symmetry_Int_Tables_number       1
_symmetry_cell_setting            triclinic
loop_
_symmetry_equiv_pos_as_xyz
'x, y, z'
_cell_length_a     31.803544
_cell_length_b     31.312812
_cell_length_c     54.320826
_cell_angle_alpha  94.273644
_cell_angle_beta   89.420906
_cell_angle_gamma 120.35022
loop_
_atom_site_label
_atom_site_type_symbol
_atom_site_fract_x
_atom_site_fract_y
_atom_site_fract_z
_atom_type_partial_charge
Mg0 Mg 0.45504 0.68342 0.0682 0.0
O1 O 0.37516 0.6466 0.05287 0.0
O2 O 0.34483 0.69163 0.07075 0.0
Mg3 Mg 0.40161 0.75442 0.09684 0.0
C4 C 0.34024 0.65552 0.05614 0.0
C5 C 0.51965 0.65167 0.04075 0.0
O6 O 0.5487 0.68697 0.05738 0.0
O7 O 0.47884 0.74782 0.04389 0.0
O8 O 0.44703 0.78996 0.06343 0.0
O9 O 0.43145 0.63694 0.10057 0.0
O10 O 0.43575 0.70947 0.10002 0.0
C11 C 0.47196 0.78471 0.04614 0.0
C12 C 0.42452 0.6709 0.11157 0.0
O13 O 0.47524 0.64036 0.03929 0.0
Mg14 Mg 0.61834 0.3579 0.55924 0.0
O15 O 0.57216 0.27394 0.54848 0.0
O16 O 0.51323 0.24207 0.57589 0.0
Mg17 Mg 0.52163 0.305 0.60375 0.0
C18 C 0.53474 0.23708 0.55684 0.0
C19 C 0.67656 0.4139 0.51511 0.0
O20 O 0.664 0.44506 0.52529 0.0
O21 O 0.55875 0.36904 0.54366 0.0
O22 O 0.50382 0.34182 0.57329 0.0
O23 O 0.66577 0.34681 0.58461 0.0
O24 O 0.59943 0.34787 0.59599 0.0
C25 C 0.5189 0.36209 0.55297 0.0
C26 C 0.63577 0.34284 0.60178 0.0
O27 O 0.65909 0.37144 0.52338 0.0
Mg28 Mg 0.25414 0.64083 0.40528 0.0
O29 O 0.29307 0.72185 0.42278 0.0
O30 O 0.27263 0.76375 0.39857 0.0
Mg31 Mg 0.22013 0.71108 0.36747 0.0
C32 C 0.29568 0.76213 0.41726 0.0
C33 C 0.28356 0.57898 0.42889 0.0
O34 O 0.27622 0.56638 0.40503 0.0
O35 O 0.18192 0.62664 0.4208 0.0
O36 O 0.1618 0.66752 0.39572 0.0
O37 O 0.31561 0.65769 0.38053 0.0
O38 O 0.25188 0.66365 0.37039 0.0
C39 C 0.1523 0.63972 0.41352 0.0
C40 C 0.29325 0.6683 0.36447 0.0
O41 O 0.27469 0.61225 0.43786 0.0
Mg42 Mg 0.78139 0.32838 0.89757 0.0
O43 O 0.73725 0.36511 0.91227 0.0
O44 O 0.66355 0.32121 0.89354 0.0
Mg45 Mg 0.6592 0.25793 0.86802 0.0
C46 C 0.69402 0.35694 0.90843 0.0
C47 C 0.87486 0.35942 0.92619 0.0
O48 O 0.8681 0.32218 0.91059 0.0
O49 O 0.73975 0.26391 0.92193 0.0
O50 O 0.66709 0.22288 0.90187 0.0
O51 O 0.80437 0.37436 0.86482 0.0
O52 O 0.73835 0.30054 0.86552 0.0
C53 C 0.69593 0.22754 0.91942 0.0
C54 C 0.76511 0.33877 0.85366 0.0
O55 O 0.84285 0.37243 0.92664 0.0
C56 C 0.41945 0.6448 0.15426 0.0
C57 C 0.40569 0.66651 0.1367 0.0
C58 C 0.40698 0.64645 0.17893 0.0
C59 C 0.3217 0.6593 0.21979 0.0
H60 H 0.42784 0.71568 0.26873 0.0
C61 C 0.2884 0.69212 0.32198 0.0
C62 C 0.31207 0.67983 0.3394 0.0
C63 C 0.30195 0.69552 0.29731 0.0
C64 C 0.39762 0.69928 0.25539 0.0
H65 H 0.36527 0.70371 0.13067 0.0
H66 H 0.34274 0.70579 0.17364 0.0
H67 H 0.44426 0.70612 0.22535 0.0
H68 H 0.36977 0.6634 0.34484 0.0
H69 H 0.39228 0.66774 0.30198 0.0
H70 H 0.27462 0.65069 0.24969 0.0
C71 C 0.36389 0.68837 0.16844 0.0
C72 C 0.40712 0.69389 0.23056 0.0
C73 C 0.37712 0.68754 0.1439 0.0
C74 C 0.35091 0.67317 0.3319 0.0
C75 C 0.364 0.6759 0.30724 0.0
C76 C 0.312 0.66392 0.24468 0.0
C77 C 0.37967 0.66889 0.18626 0.0
C78 C 0.36923 0.67374 0.21257 0.0
C79 C 0.33903 0.68606 0.28949 0.0
C80 C 0.34983 0.68385 0.26284 0.0
H81 H 0.44159 0.62845 0.14915 0.0
H82 H 0.41913 0.63074 0.19234 0.0
H83 H 0.29186 0.64348 0.20622 0.0
H84 H 0.25845 0.69765 0.3272 0.0
H85 H 0.28266 0.70459 0.28429 0.0
C86 C 0.61858 0.34303 0.64677 0.0
C87 C 0.64472 0.33607 0.62742 0.0
C88 C 0.63103 0.34269 0.67131 0.0
C89 C 0.69343 0.30069 0.71087 0.0
H90 H 0.70784 0.40784 0.75743 0.0
C91 C 0.71366 0.2977 0.8154 0.0
C92 C 0.75086 0.34097 0.8282 0.0
C93 C 0.70117 0.29807 0.79095 0.0
C94 C 0.70423 0.37792 0.74458 0.0
H95 H 0.70317 0.32147 0.61853 0.0
H96 H 0.72441 0.32016 0.66141 0.0
H97 H 0.68374 0.40459 0.71436 0.0
H98 H 0.80372 0.41884 0.82552 0.0
H99 H 0.78134 0.41961 0.78252 0.0
H100 H 0.71378 0.27394 0.74103 0.0
C101 C 0.69445 0.32607 0.65758 0.0
C102 C 0.68997 0.37575 0.72004 0.0
C103 C 0.68232 0.32689 0.63304 0.0
C104 C 0.77487 0.38497 0.81611 0.0
C105 C 0.76199 0.38544 0.79159 0.0
C106 C 0.70718 0.30258 0.73542 0.0
C107 C 0.66951 0.33488 0.67695 0.0
C108 C 0.68434 0.33704 0.70298 0.0
C109 C 0.72539 0.34177 0.77873 0.0
C110 C 0.71254 0.3411 0.75253 0.0
H111 H 0.58951 0.35034 0.64303 0.0
H112 H 0.61079 0.34891 0.68589 0.0
H113 H 0.68921 0.27037 0.69812 0.0
H114 H 0.69465 0.26306 0.82408 0.0
H115 H 0.67243 0.26404 0.78158 0.0
C116 C 0.50724 0.58397 0.00846 0.0
C117 C 0.5382 0.62402 0.02527 0.0
C118 C 0.52472 0.55655 -0.00503 0.0
C119 C 0.63897 0.56077 0.97503 0.0
H120 H 0.55673 0.41749 0.96786 0.0
C121 C 0.70936 0.42985 0.93805 0.0
C122 C 0.67785 0.38929 0.92159 0.0
C123 C 0.69316 0.45958 0.95042 0.0
C124 C 0.58001 0.4575 0.96947 0.0
H125 H 0.61208 0.66716 0.0407 0.0
H126 H 0.64219 0.61923 0.01749 0.0
H127 H 0.52648 0.46747 -0.01095 0.0
H128 H 0.60456 0.34872 0.90516 0.0
H129 H 0.57682 0.40042 0.92645 0.0
H130 H 0.69262 0.55061 0.95554 0.0
C131 C 0.6046 0.60924 0.01445 0.0
C132 C 0.56259 0.4862 0.98157 0.0
C133 C 0.58717 0.63658 0.0279 0.0
C134 C 0.62994 0.37943 0.91775 0.0
C135 C 0.61381 0.40896 0.9301 0.0
C136 C 0.65644 0.53203 0.96294 0.0
C137 C 0.57354 0.56859 -0.00203 0.0
C138 C 0.5918 0.53821 -0.01549 0.0
C139 C 0.64507 0.44927 0.94667 0.0
C140 C 0.62712 0.48003 0.95996 0.0
H141 H 0.46937 0.5734 0.00592 0.0
H142 H 0.49995 0.52591 -0.01783 0.0
H143 H 0.66226 0.60078 0.97668 0.0
H144 H 0.74647 0.43856 0.94148 0.0
H145 H 0.71806 0.49015 0.96322 0.0
C146 C 0.08477 0.57605 0.43752 0.0
C147 C 0.10374 0.61902 0.42461 0.0
C148 C 0.03697 0.55351 0.4457 0.0
C149 C 0.9378 0.57623 0.46223 0.0
H150 H 0.85405 0.43451 0.44669 0.0
C151 C 0.73656 0.47796 0.48847 0.0
C152 C 0.71835 0.43198 0.4985 0.0
C153 C 0.78094 0.4993 0.47648 0.0
C154 C 0.87699 0.474 0.45143 0.0
H155 H 0.08794 0.67302 0.41101 0.0
H156 H 1.00484 0.63416 0.42581 0.0
H157 H 0.9383 0.47586 0.43364 0.0
H158 H 0.73122 0.37112 0.50268 0.0
H159 H 0.80891 0.40871 0.48249 0.0
H160 H 0.8775 0.5745 0.48076 0.0
C161 C 0.02688 0.61776 0.42936 0.0
C162 C 0.92525 0.49764 0.44391 0.0
C163 C 0.07442 0.6399 0.42085 0.0
C164 C 0.74411 0.40653 0.49509 0.0
C165 C 0.78876 0.42814 0.4834 0.0
C166 C 0.88977 0.55252 0.47004 0.0
C167 C 1.00743 0.57388 0.44149 0.0
C168 C 0.95617 0.54894 0.44933 0.0
C169 C 0.80845 0.47544 0.47453 0.0
C170 C 0.85871 0.50102 0.46484 0.0
H171 H 0.10628 0.55889 0.44065 0.0
H172 H 0.02302 0.52 0.45527 0.0
H173 H 0.96099 0.61576 0.46682 0.0
H174 H 0.71735 0.4983 0.4906 0.0
H175 H 0.79423 0.53513 0.4693 0.0
C176 C 0.62807 0.1598 0.94058 0.0
C177 C 0.678 0.18694 0.93593 0.0
C178 C 0.60883 0.11617 0.9525 0.0
C179 C 0.64022 0.03939 -0.01134 0.0
H180 H 0.51318 0.93488 0.96289 0.0
C181 C 0.54161 0.83828 0.01995 0.0
C182 C 0.49543 0.82457 0.02924 0.0
C183 C 0.56637 0.88057 0.00678 0.0
C184 C 0.54873 0.9637 0.97018 0.0
H185 H 0.74749 0.19113 0.94104 0.0
H186 H 0.71363 0.11378 0.96141 0.0
H187 H 0.55291 0.01443 0.94483 0.0
H188 H 0.43793 0.84256 0.03108 0.0
H189 H 0.48042 0.91523 0.00744 0.0
H190 H 0.63569 0.98768 0.01387 0.0
C191 C 0.68941 0.12666 0.95619 0.0
C192 C 0.57136 0.00947 0.96005 0.0
C193 C 0.70886 0.17099 0.94456 0.0
C194 C 0.47352 0.85237 0.02416 0.0
C195 C 0.49774 0.89382 0.0106 0.0
C196 C 0.61775 0.99318 -0.0014 0.0
C197 C 0.63888 0.09799 0.95962 0.0
C198 C 0.61683 0.04836 0.96955 0.0
C199 C 0.54473 0.90888 0.00223 0.0
C200 C 0.57137 0.95537 -0.01024 0.0
H201 H 0.60357 0.17164 0.93437 0.0
H202 H 0.57005 0.09606 0.9556 0.0
H203 H 0.6751 0.06849 -0.0035 0.0
H204 H 0.55941 0.81766 0.0238 0.0
H205 H 0.60255 0.89147 0.00039 0.0
C206 C 0.45704 0.38927 0.55403 0.0
C207 C 0.49092 0.38116 0.54077 0.0
C208 C 0.43362 0.41123 0.5433 0.0
C209 C 0.44541 0.48729 0.49138 0.0
H210 H 0.31196 0.4497 0.50604 0.0
C211 C 0.32855 0.53366 0.43192 0.0
C212 C 0.30565 0.55743 0.44393 0.0
C213 C 0.35095 0.51413 0.44543 0.0
C214 C 0.34943 0.46089 0.50206 0.0
H215 H 0.52524 0.38791 0.50546 0.0
H216 H 0.48299 0.42423 0.48638 0.0
H217 H 0.3502 0.40917 0.52541 0.0
H218 H 0.28754 0.57862 0.4796 0.0
H219 H 0.32602 0.54282 0.50344 0.0
H220 H 0.44368 0.53744 0.46723 0.0
C221 C 0.47571 0.41533 0.5054 0.0
C222 C 0.37145 0.43779 0.51314 0.0
C223 C 0.49966 0.39404 0.51626 0.0
C224 C 0.30501 0.56059 0.46987 0.0
C225 C 0.32681 0.54006 0.48347 0.0
C226 C 0.42317 0.50974 0.48007 0.0
C227 C 0.443 0.42505 0.51891 0.0
C228 C 0.41961 0.45032 0.50773 0.0
C229 C 0.35041 0.51717 0.47129 0.0
C230 C 0.37489 0.49643 0.48512 0.0
H231 H 0.44972 0.38014 0.57304 0.0
H232 H 0.40921 0.41862 0.55442 0.0
H233 H 0.48292 0.49903 0.48725 0.0
H234 H 0.32989 0.53069 0.41196 0.0
H235 H 0.36851 0.49626 0.43561 0.0
C236 C 0.25528 0.63509 0.04548 0.0
C237 C 0.29254 0.62345 0.04277 0.0
C238 C 0.21019 0.60556 0.03317 0.0
C239 C 0.12883 0.48035 0.00337 0.0
H240 H 0.06707 0.54469 0.97377 0.0
C241 C 0.95585 0.37281 0.93986 0.0
C242 C 0.92061 0.38734 0.94147 0.0
C243 C 1.00041 0.40043 0.95294 0.0
C244 C 0.08342 0.52607 -0.01776 0.0
H245 H 0.31109 0.57113 0.02488 0.0
H246 H 0.23198 0.51944 0.00321 0.0
H247 H 0.14696 0.59497 -0.0057 0.0
H248 H 0.90421 0.44178 0.95865 0.0
H249 H 0.9819 0.48977 -0.0182 0.0
H250 H 0.06517 0.41141 -0.00865 0.0
C251 C 0.23789 0.55146 0.0151 0.0
C252 C 0.12935 0.55492 -0.00606 0.0
C253 C 0.28331 0.58123 0.02741 0.0
C254 C 0.93061 0.42964 0.95693 0.0
C255 C 0.97529 0.45734 0.97006 0.0
C256 C 0.08279 0.45145 -0.00831 0.0
C257 C 0.20088 0.56346 0.01778 0.0
C258 C 0.15259 0.53245 0.00471 0.0
C259 C 1.01095 0.44333 0.96803 0.0
C260 C 0.05947 0.47395 0.98099 0.0
H261 H 0.26078 0.66715 0.05719 0.0
H262 H 0.18232 0.61547 0.03598 0.0
H263 H 0.1454 0.46188 0.01178 0.0
H264 H 0.94946 0.34045 0.92811 0.0
H265 H 0.02714 0.38883 0.95068 0.0
C266 C 0.52375 0.18143 0.51877 0.0
C267 C 0.5151 0.18699 0.54388 0.0
C268 C 0.50343 0.13417 0.50631 0.0
C269 C 0.40574 1.00219 0.51175 0.0
H270 H 0.47029 0.97829 0.456 0.0
C271 C 0.33398 0.80851 0.45823 0.0
C272 C 0.3262 0.80885 0.43283 0.0
C273 C 0.36014 0.85326 0.47299 0.0
C274 C 0.45199 0.98449 0.4716 0.0
H275 H 0.47976 0.14723 0.57585 0.0
H276 H 0.44627 0.06494 0.55454 0.0
H277 H 0.51072 0.05867 0.47988 0.0
H278 H 0.3413 0.85617 0.40284 0.0
H279 H 0.38813 0.93398 0.42846 0.0
H280 H 0.34748 0.92725 0.50355 0.0
C281 C 0.46714 0.09692 0.54408 0.0
C282 C 0.47488 0.03072 0.48519 0.0
C283 C 0.48666 0.14421 0.55641 0.0
C284 C 0.34645 0.85469 0.42237 0.0
C285 C 0.37347 0.89923 0.43698 0.0
C286 C 0.38333 0.95565 0.49843 0.0
C287 C 0.47469 0.09111 0.51875 0.0
C288 C 0.45175 0.04064 0.50522 0.0
C289 C 0.38002 0.899 0.46247 0.0
C290 C 0.40589 0.94665 0.478 0.0
H291 H 0.5452 0.21367 0.50854 0.0
H292 H 0.50943 0.13165 0.48674 0.0
H293 H 0.38613 0.0083 0.52668 0.0
H294 H 0.31866 0.77376 0.4668 0.0
H295 H 0.36481 0.85219 0.49262 0.0
loop_
_geom_bond_atom_site_label_1
_geom_bond_atom_site_label_2
_geom_bond_distance
_geom_bond_site_symmetry_2
_ccdc_geom_bond_type
Mg0 O1 2.028 . S
Mg0 O7 1.986 . S
Mg0 O9 2.114 . S
Mg0 O10 2.251 . S
Mg0 O13 2.010 . S
O1 Mg0 2.028 . S
O1 C4 1.250 . S
O2 Mg3 2.028 . S
O2 C4 1.248 . S
Mg3 O2 2.028 . S
Mg3 O8 2.032 . S
Mg3 O10 2.079 . S
C4 O1 1.250 . S
C4 O2 1.248 . S
C5 O6 1.264 . S
C5 O13 1.249 . S
O6 C5 1.264 . S
O7 Mg0 1.986 . S
O7 C11 1.246 . S
O8 Mg3 2.032 . S
O8 C11 1.259 . S
O9 Mg0 2.114 . S
O9 C12 1.252 . S
O10 Mg0 2.251 . S
O10 Mg3 2.079 . S
O10 C12 1.273 . S
C11 O7 1.246 . S
C11 O8 1.259 . S
C12 O9 1.252 . S
C12 O10 1.273 . S
O13 Mg0 2.010 . S
O13 C5 1.249 . S
Mg14 O15 2.028 . S
Mg14 O21 1.986 . S
Mg14 O23 2.114 . S
Mg14 O24 2.251 . S
Mg14 O27 2.010 . S
O15 Mg14 2.028 . S
O15 C18 1.250 . S
O16 Mg17 2.028 . S
O16 C18 1.248 . S
Mg17 O16 2.028 . S
Mg17 O22 2.032 . S
Mg17 O24 2.079 . S
C18 O15 1.250 . S
C18 O16 1.248 . S
C19 O20 1.264 . S
C19 O27 1.249 . S
O20 C19 1.264 . S
O21 Mg14 1.986 . S
O21 C25 1.246 . S
O22 Mg17 2.032 . S
O22 C25 1.259 . S
O23 Mg14 2.114 . S
O23 C26 1.252 . S
O24 Mg14 2.251 . S
O24 Mg17 2.079 . S
O24 C26 1.273 . S
C25 O21 1.246 . S
C25 O22 1.259 . S
C26 O23 1.252 . S
C26 O24 1.273 . S
O27 Mg14 2.010 . S
O27 C19 1.249 . S
Mg28 O29 2.028 . S
Mg28 O35 1.986 . S
Mg28 O37 2.114 . S
Mg28 O38 2.251 . S
Mg28 O41 2.010 . S
O29 Mg28 2.028 . S
O29 C32 1.250 . S
O30 Mg31 2.028 . S
O30 C32 1.248 . S
Mg31 O30 2.028 . S
Mg31 O36 2.032 . S
Mg31 O38 2.079 . S
C32 O29 1.250 . S
C32 O30 1.248 . S
C33 O34 1.264 . S
C33 O41 1.249 . S
O34 C33 1.264 . S
O35 Mg28 1.986 . S
O35 C39 1.246 . S
O36 Mg31 2.032 . S
O36 C39 1.259 . S
O37 Mg28 2.114 . S
O37 C40 1.252 . S
O38 Mg28 2.251 . S
O38 Mg31 2.079 . S
O38 C40 1.273 . S
C39 O35 1.246 . S
C39 O36 1.259 . S
C40 O37 1.252 . S
C40 O38 1.273 . S
O41 Mg28 2.010 . S
O41 C33 1.249 . S
Mg42 O43 2.028 . S
Mg42 O49 1.986 . S
Mg42 O51 2.114 . S
Mg42 O52 2.251 . S
Mg42 O55 2.010 . S
O43 Mg42 2.028 . S
O43 C46 1.250 . S
O44 Mg45 2.028 . S
O44 C46 1.248 . S
Mg45 O44 2.028 . S
Mg45 O50 2.032 . S
Mg45 O52 2.079 . S
C46 O43 1.250 . S
C46 O44 1.248 . S
C47 O48 1.264 . S
C47 O55 1.249 . S
O48 C47 1.264 . S
O49 Mg42 1.986 . S
O49 C53 1.246 . S
O50 Mg45 2.032 . S
O50 C53 1.259 . S
O51 Mg42 2.114 . S
O51 C54 1.252 . S
O52 Mg42 2.251 . S
O52 Mg45 2.079 . S
O52 C54 1.273 . S
C53 O49 1.246 . S
C53 O50 1.259 . S
C54 O51 1.252 . S
C54 O52 1.273 . S
O55 Mg42 2.010 . S
O55 C47 1.249 . S
C56 C57 1.349 . S
C56 C58 1.327 . S
C56 H81 0.950 . S
C57 C56 1.349 . S
C57 C73 1.349 . S
C58 C56 1.327 . S
C58 C77 1.429 . S
C58 H82 0.950 . S
C59 C76 1.574 . S
C59 C78 1.368 . S
C59 H83 0.949 . S
H60 C64 0.949 . S
C61 C62 1.349 . S
C61 C63 1.327 . S
C61 H84 0.950 . S
C62 C61 1.349 . S
C62 C74 1.349 . S
C63 C61 1.327 . S
C63 C79 1.429 . S
C63 H85 0.950 . S
C64 H60 0.949 . S
C64 C72 1.574 . S
C64 C80 1.368 . S
H65 C73 0.950 . S
H66 C71 0.950 . S
H67 C72 0.949 . S
H68 C74 0.950 . S
H69 C75 0.950 . S
H70 C76 0.949 . S
C71 H66 0.950 . S
C71 C73 1.327 . S
C71 C77 1.429 . S
C72 C64 1.574 . S
C72 H67 0.949 . S
C72 C78 1.368 . S
C73 C57 1.349 . S
C73 H65 0.950 . S
C73 C71 1.327 . S
C74 C62 1.349 . S
C74 H68 0.950 . S
C74 C75 1.327 . S
C75 H69 0.950 . S
C75 C74 1.327 . S
C75 C79 1.429 . S
C76 C59 1.574 . S
C76 H70 0.949 . S
C76 C80 1.368 . S
C77 C58 1.429 . S
C77 C71 1.429 . S
C77 C78 1.523 . S
C78 C59 1.368 . S
C78 C72 1.368 . S
C78 C77 1.523 . S
C79 C63 1.429 . S
C79 C75 1.429 . S
C79 C80 1.523 . S
C80 C64 1.368 . S
C80 C76 1.368 . S
C80 C79 1.523 . S
H81 C56 0.950 . S
H82 C58 0.950 . S
H83 C59 0.949 . S
H84 C61 0.950 . S
H85 C63 0.950 . S
C86 C87 1.349 . S
C86 C88 1.327 . S
C86 H111 0.950 . S
C87 C86 1.349 . S
C87 C103 1.349 . S
C88 C86 1.327 . S
C88 C107 1.429 . S
C88 H112 0.950 . S
C89 C106 1.574 . S
C89 C108 1.368 . S
C89 H113 0.949 . S
H90 C94 0.949 . S
C91 C92 1.349 . S
C91 C93 1.327 . S
C91 H114 0.950 . S
C92 C91 1.349 . S
C92 C104 1.349 . S
C93 C91 1.327 . S
C93 C109 1.429 . S
C93 H115 0.950 . S
C94 H90 0.949 . S
C94 C102 1.574 . S
C94 C110 1.368 . S
H95 C103 0.950 . S
H96 C101 0.950 . S
H97 C102 0.949 . S
H98 C104 0.950 . S
H99 C105 0.950 . S
H100 C106 0.949 . S
C101 H96 0.950 . S
C101 C103 1.327 . S
C101 C107 1.429 . S
C102 C94 1.574 . S
C102 H97 0.949 . S
C102 C108 1.368 . S
C103 C87 1.349 . S
C103 H95 0.950 . S
C103 C101 1.327 . S
C104 C92 1.349 . S
C104 H98 0.950 . S
C104 C105 1.327 . S
C105 H99 0.950 . S
C105 C104 1.327 . S
C105 C109 1.429 . S
C106 C89 1.574 . S
C106 H100 0.949 . S
C106 C110 1.368 . S
C107 C88 1.429 . S
C107 C101 1.429 . S
C107 C108 1.523 . S
C108 C89 1.368 . S
C108 C102 1.368 . S
C108 C107 1.523 . S
C109 C93 1.429 . S
C109 C105 1.429 . S
C109 C110 1.523 . S
C110 C94 1.368 . S
C110 C106 1.368 . S
C110 C109 1.523 . S
H111 C86 0.950 . S
H112 C88 0.950 . S
H113 C89 0.949 . S
H114 C91 0.950 . S
H115 C93 0.950 . S
C116 C117 1.349 . S
C116 C118 1.328 1_554 S
C116 H141 0.950 1_554 S
C117 C116 1.349 . S
C117 C133 1.349 . S
C118 C116 1.328 1_556 S
C118 C137 1.430 1_556 S
C118 H142 0.947 . S
C119 C136 1.574 . S
C119 C138 1.368 . S
C119 H143 0.949 . S
H120 C124 0.949 . S
C121 C122 1.349 . S
C121 C123 1.327 . S
C121 H144 0.950 . S
C122 C121 1.349 . S
C122 C134 1.349 . S
C123 C121 1.327 . S
C123 C139 1.429 . S
C123 H145 0.950 1_556 S
C124 H120 0.949 . S
C124 C132 1.574 . S
C124 C140 1.368 . S
H125 C133 0.950 . S
H126 C131 0.950 . S
H127 C132 0.949 . S
H128 C134 0.950 . S
H129 C135 0.950 . S
H130 C136 0.949 . S
C131 H126 0.950 . S
C131 C133 1.327 . S
C131 C137 1.429 . S
C132 C124 1.574 . S
C132 H127 0.949 . S
C132 C138 1.368 1_556 S
C133 C117 1.349 . S
C133 H125 0.950 . S
C133 C131 1.327 . S
C134 C122 1.349 . S
C134 H128 0.950 . S
C134 C135 1.327 . S
C135 H129 0.950 . S
C135 C134 1.327 . S
C135 C139 1.429 . S
C136 C119 1.574 . S
C136 H130 0.949 . S
C136 C140 1.368 1_554 S
C137 C118 1.430 1_554 S
C137 C131 1.429 . S
C137 C138 1.523 . S
C138 C119 1.368 . S
C138 C132 1.368 1_554 S
C138 C137 1.523 . S
C139 C123 1.429 . S
C139 C135 1.429 . S
C139 C140 1.523 . S
C140 C124 1.368 . S
C140 C136 1.368 1_556 S
C140 C139 1.523 . S
H141 C116 0.950 1_556 S
H142 C118 0.947 . S
H143 C119 0.949 . S
H144 C121 0.950 . S
H145 C123 0.950 1_554 S
C146 C147 1.349 . S
C146 C148 1.327 . S
C146 H171 0.950 . S
C147 C146 1.349 . S
C147 C163 1.349 . S
C148 C146 1.327 . S
C148 C167 1.429 . S
C148 H172 0.950 . S
C149 C166 1.574 1_455 S
C149 C168 1.368 . S
C149 H173 0.949 . S
H150 C154 0.949 . S
C151 C152 1.349 . S
C151 C153 1.327 . S
C151 H174 0.950 . S
C152 C151 1.349 . S
C152 C164 1.349 . S
C153 C151 1.327 . S
C153 C169 1.429 . S
C153 H175 0.950 . S
C154 H150 0.949 . S
C154 C162 1.574 1_655 S
C154 C170 1.368 . S
H155 C163 0.950 . S
H156 C161 0.950 . S
H157 C162 0.949 . S
H158 C164 0.950 . S
H159 C165 0.950 . S
H160 C166 0.949 . S
C161 H156 0.950 . S
C161 C163 1.327 . S
C161 C167 1.429 . S
C162 C154 1.574 1_455 S
C162 H157 0.949 . S
C162 C168 1.368 . S
C163 C147 1.349 . S
C163 H155 0.950 . S
C163 C161 1.327 . S
C164 C152 1.349 . S
C164 H158 0.950 . S
C164 C165 1.327 . S
C165 H159 0.950 . S
C165 C164 1.327 . S
C165 C169 1.429 . S
C166 C149 1.574 1_655 S
C166 H160 0.949 . S
C166 C170 1.368 . S
C167 C148 1.429 . S
C167 C161 1.429 . S
C167 C168 1.523 . S
C168 C149 1.368 . S
C168 C162 1.368 . S
C168 C167 1.523 . S
C169 C153 1.429 . S
C169 C165 1.429 . S
C169 C170 1.523 . S
C170 C154 1.368 . S
C170 C166 1.368 . S
C170 C169 1.523 . S
H171 C146 0.950 . S
H172 C148 0.950 . S
H173 C149 0.949 . S
H174 C151 0.950 . S
H175 C153 0.950 . S
C176 C177 1.349 . S
C176 C178 1.327 . S
C176 H201 0.950 . S
C177 C176 1.349 . S
C177 C193 1.349 . S
C178 C176 1.327 . S
C178 C197 1.429 . S
C178 H202 0.950 1_556 S
C179 C196 1.574 1_545 S
C179 C198 1.368 . S
C179 H203 0.949 . S
H180 C184 0.949 . S
C181 C182 1.349 . S
C181 C183 1.327 . S
C181 H204 0.950 . S
C182 C181 1.349 . S
C182 C194 1.349 . S
C183 C181 1.327 . S
C183 C199 1.429 . S
C183 H205 0.950 1_554 S
C184 H180 0.949 . S
C184 C192 1.574 1_565 S
C184 C200 1.368 . S
H185 C193 0.950 . S
H186 C191 0.950 . S
H187 C192 0.949 . S
H188 C194 0.950 . S
H189 C195 0.950 . S
H190 C196 0.949 . S
C191 H186 0.950 . S
C191 C193 1.327 . S
C191 C197 1.429 . S
C192 C184 1.574 1_545 S
C192 H187 0.949 . S
C192 C198 1.368 1_554 S
C193 C177 1.349 . S
C193 H185 0.950 . S
C193 C191 1.327 . S
C194 C182 1.349 . S
C194 H188 0.950 . S
C194 C195 1.327 . S
C195 H189 0.950 . S
C195 C194 1.327 . S
C195 C199 1.429 . S
C196 C179 1.574 1_565 S
C196 H190 0.949 . S
C196 C200 1.368 1_556 S
C197 C178 1.429 . S
C197 C191 1.429 . S
C197 C198 1.523 . S
C198 C179 1.368 . S
C198 C192 1.368 1_556 S
C198 C197 1.523 . S
C199 C183 1.429 . S
C199 C195 1.429 . S
C199 C200 1.523 . S
C200 C184 1.368 . S
C200 C196 1.368 1_554 S
C200 C199 1.523 . S
H201 C176 0.950 . S
H202 C178 0.950 1_554 S
H203 C179 0.949 . S
H204 C181 0.950 . S
H205 C183 0.950 1_556 S
C206 C207 1.349 . S
C206 C208 1.327 . S
C206 H231 0.950 . S
C207 C206 1.349 . S
C207 C223 1.349 . S
C208 C206 1.327 . S
C208 C227 1.429 . S
C208 H232 0.950 . S
C209 C226 1.574 . S
C209 C228 1.368 . S
C209 H233 0.949 . S
H210 C214 0.949 . S
C211 C212 1.349 . S
C211 C213 1.327 . S
C211 H234 0.950 . S
C212 C211 1.349 . S
C212 C224 1.349 . S
C213 C211 1.327 . S
C213 C229 1.429 . S
C213 H235 0.950 . S
C214 H210 0.949 . S
C214 C222 1.574 . S
C214 C230 1.368 . S
H215 C223 0.950 . S
H216 C221 0.950 . S
H217 C222 0.949 . S
H218 C224 0.950 . S
H219 C225 0.950 . S
H220 C226 0.949 . S
C221 H216 0.950 . S
C221 C223 1.327 . S
C221 C227 1.429 . S
C222 C214 1.574 . S
C222 H217 0.949 . S
C222 C228 1.368 . S
C223 C207 1.349 . S
C223 H215 0.950 . S
C223 C221 1.327 . S
C224 C212 1.349 . S
C224 H218 0.950 . S
C224 C225 1.327 . S
C225 H219 0.950 . S
C225 C224 1.327 . S
C225 C229 1.429 . S
C226 C209 1.574 . S
C226 H220 0.949 . S
C226 C230 1.368 . S
C227 C208 1.429 . S
C227 C221 1.429 . S
C227 C228 1.523 . S
C228 C209 1.368 . S
C228 C222 1.368 . S
C228 C227 1.523 . S
C229 C213 1.429 . S
C229 C225 1.429 . S
C229 C230 1.523 . S
C230 C214 1.368 . S
C230 C226 1.368 . S
C230 C229 1.523 . S
H231 C206 0.950 . S
H232 C208 0.950 . S
H233 C209 0.949 . S
H234 C211 0.950 . S
H235 C213 0.950 . S
C236 C237 1.349 . S
C236 C238 1.327 . S
C236 H261 0.950 . S
C237 C236 1.349 . S
C237 C253 1.349 . S
C238 C236 1.327 . S
C238 C257 1.429 . S
C238 H262 0.950 . S
C239 C256 1.574 . S
C239 C258 1.368 1_556 S
C239 H263 0.949 . S
H240 C244 0.949 . S
C241 C242 1.349 . S
C241 C243 1.327 . S
C241 H264 0.950 . S
C242 C241 1.349 . S
C242 C254 1.349 . S
C243 C241 1.327 . S
C243 C259 1.429 . S
C243 H265 0.950 . S
C244 H240 0.949 . S
C244 C252 1.574 1_655 S
C244 C260 1.368 1_554 S
H245 C253 0.950 . S
H246 C251 0.950 1_556 S
H247 C252 0.949 . S
H248 C254 0.950 1_554 S
H249 C255 0.950 . S
H250 C256 0.949 1_655 S
C251 H246 0.950 1_554 S
C251 C253 1.327 . S
C251 C257 1.429 . S
C252 C244 1.574 1_455 S
C252 H247 0.949 . S
C252 C258 1.368 . S
C253 C237 1.349 . S
C253 H245 0.950 . S
C253 C251 1.327 . S
C254 C242 1.349 . S
C254 H248 0.950 1_556 S
C254 C255 1.327 1_556 S
C255 H249 0.950 . S
C255 C254 1.327 1_554 S
C255 C259 1.429 1_554 S
C256 C239 1.574 . S
C256 H250 0.949 1_455 S
C256 C260 1.368 1_455 S
C257 C238 1.429 . S
C257 C251 1.429 . S
C257 C258 1.523 . S
C258 C239 1.368 1_554 S
C258 C252 1.368 . S
C258 C257 1.523 . S
C259 C243 1.429 . S
C259 C255 1.429 1_556 S
C259 C260 1.523 . S
C260 C244 1.368 1_556 S
C260 C256 1.368 1_655 S
C260 C259 1.523 . S
H261 C236 0.950 . S
H262 C238 0.950 . S
H263 C239 0.949 . S
H264 C241 0.950 . S
H265 C243 0.950 . S
C266 C267 1.349 . S
C266 C268 1.327 . S
C266 H291 0.950 . S
C267 C266 1.349 . S
C267 C283 1.349 . S
C268 C266 1.327 . S
C268 C287 1.429 . S
C268 H292 0.950 . S
C269 C286 1.574 1_545 S
C269 C288 1.368 . S
C269 H293 0.949 . S
H270 C274 0.949 . S
C271 C272 1.349 . S
C271 C273 1.327 . S
C271 H294 0.950 . S
C272 C271 1.349 . S
C272 C284 1.349 . S
C273 C271 1.327 . S
C273 C289 1.429 . S
C273 H295 0.950 . S
C274 H270 0.949 . S
C274 C282 1.574 1_565 S
C274 C290 1.368 . S
H275 C283 0.950 . S
H276 C281 0.950 . S
H277 C282 0.949 . S
H278 C284 0.950 . S
H279 C285 0.950 . S
H280 C286 0.949 . S
C281 H276 0.950 . S
C281 C283 1.327 . S
C281 C287 1.429 . S
C282 C274 1.574 1_545 S
C282 H277 0.949 . S
C282 C288 1.368 . S
C283 C267 1.349 . S
C283 H275 0.950 . S
C283 C281 1.327 . S
C284 C272 1.349 . S
C284 H278 0.950 . S
C284 C285 1.327 . S
C285 H279 0.950 . S
C285 C284 1.327 . S
C285 C289 1.429 . S
C286 C269 1.574 1_565 S
C286 H280 0.949 . S
C286 C290 1.368 . S
C287 C268 1.429 . S
C287 C281 1.429 . S
C287 C288 1.523 . S
C288 C269 1.368 . S
C288 C282 1.368 . S
C288 C287 1.523 . S
C289 C273 1.429 . S
C289 C285 1.429 . S
C289 C290 1.523 . S
C290 C274 1.368 . S
C290 C286 1.368 . S
C290 C289 1.523 . S
H291 C266 0.950 . S
H292 C268 0.950 . S
H293 C269 0.949 . S
H294 C271 0.950 . S
H295 C273 0.950 . S
C57 C12 1.502 . S
C62 C40 1.502 . S
C87 C26 1.502 . S
C92 C54 1.502 . S
C117 C5 1.322 . S
C122 C46 1.577 . S
C147 C39 1.372 . S
C152 C19 1.132 . S
C177 C53 1.251 . S
C182 C11 1.251 . S
C207 C25 1.373 . S
C212 C33 1.132 . S
C237 C4 1.577 . S
C242 C47 1.322 . S
C267 C18 1.701 . S
C272 C32 1.701 . S
