# Generated by pormake.
# Topology wfz, (7)-cn, num edge types: 1
# Building blocks:
#     Node 0, Type 0, BuildingBlock: HICVOG_clean_sbu_0, # of connection points: 7
#     Node 1, Type 0, BuildingBlock: HICVOG_clean_sbu_0, # of connection points: 7
#     Node 2, Type 0, BuildingBlock: HICVOG_clean_sbu_0, # of connection points: 7
#     Node 3, Type 0, BuildingBlock: HICVOG_clean_sbu_0, # of connection points: 7
#     Node 4, Type 0, BuildingBlock: HICVOG_clean_sbu_0, # of connection points: 7
#     Node 5, Type 0, BuildingBlock: HICVOG_clean_sbu_0, # of connection points: 7
#     Node 6, Type 0, BuildingBlock: HICVOG_clean_sbu_0, # of connection points: 7
#     Node 7, Type 0, BuildingBlock: HICVOG_clean_sbu_0, # of connection points: 7
#     Edge 8, Type (0, 0), BuildingBlock: EZIPEK_clean_linker_0, # of connection points: 2
#     Edge 9, Type (0, 0), BuildingBlock: EZIPEK_clean_linker_0, # of connection points: 2
#     Edge 10, Type (0, 0), BuildingBlock: EZIPEK_clean_linker_0, # of connection points: 2
#     Edge 11, Type (0, 0), BuildingBlock: EZIPEK_clean_linker_0, # of connection points: 2
#     Edge 12, Type (0, 0), BuildingBlock: EZIPEK_clean_linker_0, # of connection points: 2
#     Edge 13, Type (0, 0), BuildingBlock: EZIPEK_clean_linker_0, # of connection points: 2
#     Edge 14, Type (0, 0), BuildingBlock: EZIPEK_clean_linker_0, # of connection points: 2
#     Edge 15, Type (0, 0), BuildingBlock: EZIPEK_clean_linker_0, # of connection points: 2
#     Edge 16, Type (0, 0), BuildingBlock: EZIPEK_clean_linker_0, # of connection points: 2
#     Edge 17, Type (0, 0), BuildingBlock: EZIPEK_clean_linker_0, # of connection points: 2
#     Edge 18, Type (0, 0), BuildingBlock: EZIPEK_clean_linker_0, # of connection points: 2
#     Edge 19, Type (0, 0), BuildingBlock: EZIPEK_clean_linker_0, # of connection points: 2
#     Edge 20, Type (0, 0), BuildingBlock: EZIPEK_clean_linker_0, # of connection points: 2
#     Edge 21, Type (0, 0), BuildingBlock: EZIPEK_clean_linker_0, # of connection points: 2
#     Edge 22, Type (0, 0), BuildingBlock: EZIPEK_clean_linker_0, # of connection points: 2
#     Edge 23, Type (0, 0), BuildingBlock: EZIPEK_clean_linker_0, # of connection points: 2
#     Edge 24, Type (0, 0), BuildingBlock: EZIPEK_clean_linker_0, # of connection points: 2
#     Edge 25, Type (0, 0), BuildingBlock: EZIPEK_clean_linker_0, # of connection points: 2
#     Edge 26, Type (0, 0), BuildingBlock: EZIPEK_clean_linker_0, # of connection points: 2
#     Edge 27, Type (0, 0), BuildingBlock: EZIPEK_clean_linker_0, # of connection points: 2
#     Edge 28, Type (0, 0), BuildingBlock: EZIPEK_clean_linker_0, # of connection points: 2
#     Edge 29, Type (0, 0), BuildingBlock: EZIPEK_clean_linker_0, # of connection points: 2
#     Edge 30, Type (0, 0), BuildingBlock: EZIPEK_clean_linker_0, # of connection points: 2
#     Edge 31, Type (0, 0), BuildingBlock: EZIPEK_clean_linker_0, # of connection points: 2
#     Edge 32, Type (0, 0), BuildingBlock: EZIPEK_clean_linker_0, # of connection points: 2
#     Edge 33, Type (0, 0), BuildingBlock: EZIPEK_clean_linker_0, # of connection points: 2
#     Edge 34, Type (0, 0), BuildingBlock: EZIPEK_clean_linker_0, # of connection points: 2
#     Edge 35, Type (0, 0), BuildingBlock: EZIPEK_clean_linker_0, # of connection points: 2
# Relax obj value: 0.185
# Max RMSD: 0.263
# Mean RMSD: 0.263
data_MOF--net-wfz--node1-HICVOG_clean_sbu_0--edge1-EZIPEK_clean_linker_0
_symmetry_space_group_name_H-M    P1
_symmetry_Int_Tables_number       1
_symmetry_cell_setting            triclinic
loop_
_symmetry_equiv_pos_as_xyz
'x, y, z'
_cell_length_a     18.069208
_cell_length_b     18.160341
_cell_length_c     47.91294
_cell_angle_alpha  90.153819
_cell_angle_beta   89.735103
_cell_angle_gamma 89.610262
loop_
_atom_site_label
_atom_site_type_symbol
_atom_site_fract_x
_atom_site_fract_y
_atom_site_fract_z
_atom_type_partial_charge
Zn0 Zn 0.26894 0.4676 0.39941 0.0
C1 C 0.40251 0.44823 0.46366 0.0
N2 N 0.41882 0.3838 0.45095 0.0
C3 C 0.38921 0.39073 0.42561 0.0
N4 N 0.35382 0.45561 0.42311 0.0
N5 N 0.36436 0.49405 0.44629 0.0
C6 C 0.28798 0.68737 0.48915 0.0
O7 O 0.22863 0.67217 0.47458 0.0
O8 O 0.26673 0.39425 0.36761 0.0
Zn9 Zn 0.35007 0.60238 0.44362 0.0
N10 N 0.1812 0.44722 0.42177 0.0
C11 C 0.10375 0.47283 0.46107 0.0
C12 C 0.16873 0.48494 0.44589 0.0
C13 C 0.13103 0.39771 0.41225 0.0
N14 N 0.05319 0.42411 0.45134 0.0
C15 C 0.06521 0.38633 0.42718 0.0
O16 O 0.25663 0.63444 0.4224 0.0
C17 C 0.23322 0.62379 0.39764 0.0
O18 O 0.25361 0.56837 0.38329 0.0
H19 H 0.2084 0.52471 0.45308 0.0
H20 H 0.14163 0.36798 0.39306 0.0
C21 C 0.4724 0.69831 0.42467 0.0
C22 C 0.52043 0.72431 0.40362 0.0
C23 C 0.47836 0.63091 0.3731 0.0
C24 C 0.42989 0.60636 0.3936 0.0
N25 N 0.42796 0.63962 0.41907 0.0
N26 N 0.52221 0.6893 0.37852 0.0
H27 H 0.46908 0.72547 0.44478 0.0
C28 C 0.28266 0.41111 0.34259 0.0
O29 O 0.3124 0.47533 0.33725 0.0
O30 O 0.34915 0.65869 0.48113 0.0
H31 H 0.39387 0.5608 0.38914 0.0
H32 H 0.09321 0.50261 0.48028 0.0
H33 H 0.48058 0.60426 0.35289 0.0
Zn34 Zn 0.99313 0.85754 0.69869 0.0
C35 C 0.19407 0.91198 0.67625 0.0
N36 N 0.19404 0.95212 0.6999 0.0
C37 C 0.13419 0.92723 0.71371 0.0
N38 N 0.09955 0.87377 0.69906 0.0
N39 N 0.13894 0.86237 0.67607 0.0
C40 C 0.18824 0.73748 0.59854 0.0
O41 O 0.13729 0.68664 0.60093 0.0
O42 O 0.94363 0.85177 0.73689 0.0
Zn43 Zn 0.13518 0.77241 0.65374 0.0
N44 N 0.95252 0.93602 0.6755 0.0
C45 C 0.95098 0.97684 0.62831 0.0
C46 C 0.9744 0.92741 0.64854 0.0
C47 C 0.90649 0.99262 0.68314 0.0
N48 N 0.90371 0.03179 0.63559 0.0
C49 C 0.87978 0.04095 0.66233 0.0
O50 O 0.03336 0.73879 0.64232 0.0
C51 C 0.97402 0.72902 0.6562 0.0
O52 O 0.96028 0.76338 0.67892 0.0
H53 H 1.00928 0.88147 0.64281 0.0
H54 H 0.88854 0.99809 0.70463 0.0
C55 C 0.21196 0.63497 0.66562 0.0
C56 C 0.22846 0.57349 0.68226 0.0
C57 C 0.16181 0.62737 0.71981 0.0
C58 C 0.14424 0.68764 0.70307 0.0
N59 N 0.17035 0.69098 0.67647 0.0
N60 N 0.20334 0.57149 0.70904 0.0
H61 H 0.23064 0.63735 0.64416 0.0
C62 C 0.9734 0.81319 0.75595 0.0
O63 O 0.04129 0.78881 0.75234 0.0
O64 O 0.19886 0.78181 0.6187 0.0
H65 H 0.10858 0.73073 0.71096 0.0
H66 H 0.96866 0.97049 0.60683 0.0
H67 H 0.14144 0.62441 0.74105 0.0
Zn68 Zn 0.71179 0.48724 0.94542 0.0
C69 C 0.64314 0.67216 0.91119 0.0
N70 N 0.5893 0.67157 0.93027 0.0
C71 C 0.61198 0.62192 0.94914 0.0
N72 N 0.67845 0.59151 0.94108 0.0
N73 N 0.69868 0.62618 0.91788 0.0
C74 C 0.80246 0.67772 0.8449 0.0
O75 O 0.76794 0.61566 0.83991 0.0
O76 O 0.73698 0.45627 0.98548 0.0
Zn77 Zn 0.79759 0.62561 0.90207 0.0
N78 N 0.6375 0.42997 0.92556 0.0
C79 C 0.59074 0.42248 0.87923 0.0
C80 C 0.63737 0.45405 0.89873 0.0
C81 C 0.59251 0.37377 0.93376 0.0
N82 N 0.5459 0.36704 0.8872 0.0
C83 C 0.54538 0.34128 0.91381 0.0
O84 O 0.83333 0.52839 0.88783 0.0
C85 C 0.84107 0.4686 0.90114 0.0
O86 O 0.80428 0.45508 0.92328 0.0
H87 H 0.67504 0.49674 0.89243 0.0
H88 H 0.59352 0.35456 0.95512 0.0
C89 C 0.92664 0.69417 0.9212 0.0
C90 C 0.98176 0.71504 0.93995 0.0
C91 C 0.91784 0.65376 0.97623 0.0
C92 C 0.86261 0.63325 0.95741 0.0
N93 N 0.86814 0.65413 0.93026 0.0
N94 N 0.97619 0.6943 0.96713 0.0
H95 H 0.93028 0.7099 0.89948 0.0
C96 C 0.76678 0.39355 0.98996 0.0
O97 O 0.77338 0.34648 0.96922 0.0
O98 O 0.81275 0.69739 0.87004 0.0
H99 H 0.81619 0.60071 0.96433 0.0
H100 H 0.59053 0.44145 0.85785 0.0
H101 H 0.91405 0.63808 0.99794 0.0
Zn102 Zn 0.11319 0.21699 0.19392 0.0
C103 C 0.91215 0.15931 0.17208 0.0
N104 N 0.91315 0.12039 0.19592 0.0
C105 C 0.97233 0.14738 0.20937 0.0
N106 N 1.00644 0.19997 0.19402 0.0
N107 N 0.96623 0.20994 0.17125 0.0
C108 C 0.93545 0.31459 0.0889 0.0
O109 O 1.00641 0.32955 0.08787 0.0
O110 O 0.15778 0.22064 0.23294 0.0
Zn111 Zn 0.96398 0.3005 0.14885 0.0
N112 N 0.15889 0.1408 0.17028 0.0
C113 C 0.1721 0.10786 0.12233 0.0
C114 C 0.14262 0.15319 0.14304 0.0
C115 C 0.20481 0.08404 0.17774 0.0
N116 N 0.21812 0.05203 0.12955 0.0
C117 C 0.2361 0.03867 0.1566 0.0
O118 O 0.06373 0.34787 0.14224 0.0
C119 C 0.12643 0.35234 0.15412 0.0
O120 O 0.14491 0.31114 0.17446 0.0
H121 H 0.1069 0.19865 0.13745 0.0
H122 H 0.21796 0.0752 0.19949 0.0
C123 C 0.89658 0.43967 0.15455 0.0
C124 C 0.84186 0.49001 0.1634 0.0
C125 C 0.81553 0.41303 0.20195 0.0
C126 C 0.86557 0.36047 0.19168 0.0
N127 N 0.90538 0.37488 0.16826 0.0
N128 N 0.80325 0.47572 0.18719 0.0
H129 H 0.92655 0.44849 0.13528 0.0
C130 C 0.14971 0.28199 0.24555 0.0
O131 O 0.10898 0.33366 0.23402 0.0
O132 O 0.90751 0.29232 0.11182 0.0
H133 H 0.86999 0.3076 0.20149 0.0
H134 H 0.15902 0.11736 0.10062 0.0
H135 H 0.78357 0.40213 0.22061 0.0
Zn136 Zn 0.84943 0.9761 0.34152 0.0
C137 C 0.9134 0.17298 0.36529 0.0
N138 N 0.95423 0.17175 0.34177 0.0
C139 C 0.92735 0.11362 0.32762 0.0
N140 N 0.87189 0.08096 0.34206 0.0
N141 N 0.86169 0.11975 0.36524 0.0
C142 C 0.73238 0.17165 0.44206 0.0
O143 O 0.67931 0.12323 0.43908 0.0
O144 O 0.84539 0.93272 0.30218 0.0
Zn145 Zn 0.77098 0.11632 0.38726 0.0
N146 N 0.92575 0.93109 0.36436 0.0
C147 C 0.97212 0.93406 0.4108 0.0
C148 C 0.92289 0.95878 0.39069 0.0
C149 C 0.97546 0.87724 0.35735 0.0
N150 N 1.02146 0.88055 0.40402 0.0
C151 C 0.02428 0.85079 0.37797 0.0
O152 O 0.73742 1.01535 0.39957 0.0
C153 C 0.72393 0.95785 0.38529 0.0
O154 O 0.75524 0.94486 0.36188 0.0
H155 H 0.88094 0.99861 0.39613 0.0
H156 H 0.97614 0.85456 0.33643 0.0
C157 C 0.63606 0.19414 0.37397 0.0
C158 C 0.5748 0.21191 0.35728 0.0
C159 C 0.62606 0.14118 0.32036 0.0
C160 C 0.68651 0.12294 0.33711 0.0
N161 N 0.69064 0.15008 0.36355 0.0
N162 N 0.57153 0.18537 0.33076 0.0
H163 H 0.63978 0.21475 0.39511 0.0
C164 C 0.78125 0.92252 0.29195 0.0
O165 O 0.72257 0.94288 0.30634 0.0
O166 O 0.77895 0.18041 0.42233 0.0
H167 H 0.72911 0.08635 0.32923 0.0
H168 H 0.97027 0.95619 0.43178 0.0
H169 H 0.62232 0.11996 0.2993 0.0
Zn170 Zn 0.61243 0.36531 0.59489 0.0
C171 C 0.40064 0.37928 0.6179 0.0
N172 N 0.38721 0.40899 0.59293 0.0
C173 C 0.45078 0.39797 0.57866 0.0
N174 N 0.50204 0.36217 0.59462 0.0
N175 N 0.46808 0.34835 0.61862 0.0
C176 C 0.43063 0.22227 0.69637 0.0
O177 O 0.4965 0.1913 0.69691 0.0
O178 O 0.66374 0.34782 0.55674 0.0
Zn179 Zn 0.48373 0.26361 0.64173 0.0
N180 N 0.63856 0.46387 0.60894 0.0
C181 C 0.59404 0.58005 0.62563 0.0
C182 C 0.58089 0.50986 0.61519 0.0
C183 C 0.70985 0.48606 0.61309 0.0
N184 N 0.66459 0.60212 0.62965 0.0
C185 C 0.72316 0.55725 0.62382 0.0
O186 O 0.5869 0.2508 0.65603 0.0
C187 C 0.64943 0.25199 0.64384 0.0
O188 O 0.66002 0.28866 0.62146 0.0
H189 H 0.52459 0.49269 0.61233 0.0
H190 H 0.75532 0.44903 0.60823 0.0
C191 C 0.41452 0.12737 0.6278 0.0
C192 C 0.40452 0.06231 0.61258 0.0
C193 C 0.48985 0.1042 0.57862 0.0
C194 C 0.5009 0.16834 0.5942 0.0
N195 N 0.46333 0.17845 0.61857 0.0
N196 N 0.44232 0.05225 0.58824 0.0
H197 H 0.38436 0.13681 0.64698 0.0
C198 C 0.69244 0.2847 0.55171 0.0
O199 O 0.6791 0.23199 0.5697 0.0
O200 O 0.41157 0.25906 0.67491 0.0
H201 H 0.54038 0.20887 0.58738 0.0
H202 H 0.5484 0.61676 0.63058 0.0
H203 H 0.51975 0.09527 0.55928 0.0
Zn204 Zn 0.21848 0.09899 0.84915 0.0
C205 C 0.15101 0.90186 0.87197 0.0
N206 N 0.11501 0.90069 0.84748 0.0
C207 C 0.14372 0.95865 0.83384 0.0
N208 N 0.19403 0.99423 0.84972 0.0
N209 N 0.20055 0.95689 0.8732 0.0
C210 C 0.28434 0.91075 0.95032 0.0
O211 O 0.26019 0.97858 0.95365 0.0
O212 O 0.22827 0.13582 0.80892 0.0
Zn213 Zn 0.29349 0.95954 0.89337 0.0
N214 N 0.14053 0.14728 0.87094 0.0
C215 C 0.09084 0.14858 0.91713 0.0
C216 C 0.13944 0.11988 0.89733 0.0
C217 C 0.09495 0.20427 0.86362 0.0
N218 N 0.04585 0.20522 0.91005 0.0
C219 C 0.0466 0.23447 0.88398 0.0
O220 O 0.32153 0.0586 0.9088 0.0
C221 C 0.33796 0.11621 0.89518 0.0
O222 O 0.31077 0.12973 0.87119 0.0
H223 H 0.17686 0.07606 0.90312 0.0
H224 H 0.09745 0.22676 0.84275 0.0
C225 C 0.42858 0.88979 0.87331 0.0
C226 C 0.48746 0.87866 0.85444 0.0
C227 C 0.4317 0.9622 0.823 0.0
C228 C 0.37379 0.97389 0.8419 0.0
N229 N 0.37269 0.93703 0.86661 0.0
N230 N 0.48735 0.91496 0.82967 0.0
H231 H 0.42777 0.86193 0.89326 0.0
C232 C 0.29165 0.15732 0.80057 0.0
O233 O 0.34712 0.15862 0.81811 0.0
O234 O 0.29848 0.8871 0.92581 0.0
H235 H 0.33046 1.01264 0.83688 0.0
H236 H 0.08949 0.12662 0.93809 0.0
H237 H 0.43266 0.991 0.80327 0.0
Zn238 Zn 0.62652 0.81314 0.13027 0.0
C239 C 0.62817 0.70087 0.06155 0.0
N240 N 0.70087 0.69677 0.06567 0.0
C241 C 0.70944 0.70831 0.09312 0.0
N242 N 0.64277 0.72664 0.10509 0.0
N243 N 0.5918 0.7181 0.08537 0.0
C244 C 0.37 0.75525 0.05072 0.0
O245 O 0.32568 0.7581 0.07249 0.0
O246 O 0.68443 0.82725 0.16646 0.0
Zn247 Zn 0.48407 0.71024 0.09074 0.0
N248 N 0.64485 0.90034 0.10854 0.0
C249 C 0.60933 0.98326 0.07248 0.0
C250 C 0.6001 0.91681 0.0867 0.0
C251 C 0.69654 0.94872 0.11742 0.0
N252 N 0.66079 0.03204 0.08151 0.0
C253 C 0.70409 1.01645 0.10391 0.0
O254 O 0.43512 0.77977 0.11858 0.0
C255 C 0.4543 0.8201 0.13899 0.0
O256 O 0.5223 0.83087 0.14368 0.0
H257 H 0.5563 0.8796 0.08107 0.0
H258 H 0.72967 0.93591 0.1355 0.0
C259 C 0.39157 0.58744 0.10768 0.0
C260 C 0.37959 0.51744 0.11934 0.0
C261 C 0.50917 0.4986 0.12227 0.0
C262 C 0.52096 0.56853 0.11138 0.0
N263 N 0.46231 0.61119 0.10375 0.0
N264 N 0.43893 0.47479 0.1261 0.0
H265 H 0.34544 0.62305 0.10245 0.0
C266 C 0.7038 0.78521 0.18631 0.0
O267 O 0.69348 0.71395 0.18389 0.0
O268 O 0.43637 0.733 0.0536 0.0
H269 H 0.5766 0.58914 0.10967 0.0
H270 H 0.57443 0.99683 0.05492 0.0
H271 H 0.55549 0.46406 0.1282 0.0
C272 C 0.49321 0.37981 0.39115 0.0
C273 C 0.42507 0.35234 0.40182 0.0
C274 C 0.44769 0.23498 0.37766 0.0
C275 C 0.51673 0.26248 0.36808 0.0
N276 N 0.59796 0.3654 0.36057 0.0
N277 N 0.32981 0.26084 0.40079 0.0
C278 C 0.53596 0.33664 0.37271 0.0
C279 C 0.39955 0.28217 0.39341 0.0
N280 N 0.52193 0.44541 0.39943 0.0
N281 N 0.43046 0.16279 0.37312 0.0
H282 H 0.29438 0.29464 0.41249 0.0
H283 H 0.30493 0.21299 0.39356 0.0
H284 H 0.46392 0.12757 0.36124 0.0
H285 H 0.38509 0.13674 0.38206 0.0
H286 H 0.49775 0.4804 0.41418 0.0
H287 H 0.49775 0.4804 0.41418 0.0
H288 H 0.61452 0.41971 0.36385 0.0
H289 H 0.63054 0.33599 0.34629 0.0
C290 C 0.28018 1.00223 0.61425 0.0
C291 C 0.35451 1.00469 0.62341 0.0
C292 C 0.32627 0.91965 0.66153 0.0
C293 C 0.25054 0.92314 0.65405 0.0
N294 N 0.15972 0.94531 0.61844 0.0
N295 N 0.45345 0.95209 0.65037 0.0
C296 C 0.22902 0.95672 0.62864 0.0
C297 C 0.37931 0.95831 0.64526 0.0
N298 N 0.25778 0.04651 0.59281 0.0
N299 N 0.34639 0.88111 0.68477 0.0
H300 H 0.493 0.97958 0.63845 0.0
H301 H 0.47641 0.91612 0.66485 0.0
H302 H 0.30906 0.84792 0.69555 0.0
H303 H 0.39883 0.88244 0.6936 0.0
H304 H 0.20267 0.05447 0.58729 0.0
H305 H 0.29446 0.07855 0.58124 0.0
H306 H 0.1419 0.96343 0.59899 0.0
H307 H 0.12285 0.90994 0.62812 0.0
C308 C 0.6068 0.85187 0.87881 0.0
C309 C 0.54882 0.82754 0.8613 0.0
C310 C 0.59455 0.70103 0.86486 0.0
C311 C 0.63932 0.7231 0.88739 0.0
N312 N 0.69954 0.81797 0.91331 0.0
N313 N 0.49176 0.73136 0.83438 0.0
C314 C 0.6505 0.79856 0.89303 0.0
C315 C 0.54514 0.7529 0.85274 0.0
N316 N 0.61888 0.92556 0.88194 0.0
N317 N 0.59775 0.62955 0.85613 0.0
H318 H 0.45615 0.76866 0.82465 0.0
H319 H 0.48089 0.6767 0.82941 0.0
H320 H 0.6345 0.59218 0.86513 0.0
H321 H 0.5699 0.60924 0.83882 0.0
H322 H 0.66272 0.94747 0.89317 0.0
H323 H 0.58783 0.96498 0.87125 0.0
H324 H 0.70563 0.8713 0.9209 0.0
H325 H 0.73366 0.7789 0.92287 0.0
C326 C 0.88373 0.10556 0.12529 0.0
C327 C 0.85865 0.14372 0.14952 0.0
C328 C 0.73009 0.12075 0.1361 0.0
C329 C 0.75586 0.0714 0.11527 0.0
N330 N 0.85555 1.01705 0.08881 0.0
N331 N 0.75809 0.18686 0.17866 0.0
C332 C 0.83227 0.06481 0.1092 0.0
C333 C 0.78171 0.15226 0.15485 0.0
N334 N 0.95674 0.10741 0.11791 0.0
N335 N 0.65614 0.13615 0.1382 0.0
H336 H 0.79423 0.21168 0.19262 0.0
H337 H 0.70333 0.18724 0.1855 0.0
H338 H 0.6171 0.11274 0.12495 0.0
H339 H 0.63425 0.17683 0.15124 0.0
H340 H 0.97757 0.0866 0.09918 0.0
H341 H 0.99585 0.13581 0.12942 0.0
H342 H 0.91063 1.002 0.08562 0.0
H343 H 0.81881 0.98969 0.07569 0.0
C344 C 0.96071 0.35874 0.39477 0.0
C345 C 1.00864 0.33503 0.41633 0.0
C346 C 0.95985 0.21001 0.41236 0.0
C347 C 0.92477 0.23022 0.38711 0.0
N348 N 0.88155 0.32437 0.35604 0.0
N349 N 0.05278 0.23963 0.44698 0.0
C350 C 0.92121 0.30525 0.37912 0.0
C351 C 1.00686 0.2613 0.4259 0.0
N352 N 0.95315 0.43231 0.38947 0.0
N353 N 0.94801 0.14189 0.42329 0.0
H354 H 0.08619 0.27636 0.45789 0.0
H355 H 0.06083 0.18494 0.45273 0.0
H356 H 0.91074 0.10569 0.41433 0.0
H357 H 0.96745 0.12489 0.44266 0.0
H358 H 0.91564 0.45431 0.3753 0.0
H359 H 0.98075 0.47228 0.40104 0.0
H360 H 0.88348 0.3759 0.34664 0.0
H361 H 0.84685 0.28706 0.34606 0.0
C362 C 0.2355 0.45374 0.65612 0.0
C363 C 0.27185 0.51065 0.67095 0.0
C364 C 0.39115 0.44968 0.66267 0.0
C365 C 0.35692 0.40324 0.64271 0.0
N366 N 0.24674 0.35214 0.62309 0.0
N367 N 0.38387 0.56394 0.68885 0.0
C368 C 0.27875 0.40172 0.64072 0.0
C369 C 0.34952 0.5084 0.67471 0.0
N370 N 0.15995 0.45009 0.65669 0.0
N371 N 0.46272 0.43718 0.67049 0.0
H372 H 0.35497 0.6066 0.69875 0.0
H373 H 0.44106 0.57054 0.68917 0.0
H374 H 0.49275 0.39101 0.66417 0.0
H375 H 0.48886 0.46636 0.68632 0.0
H376 H 0.1299 0.40692 0.64817 0.0
H377 H 0.12706 0.48823 0.66746 0.0
H378 H 0.19095 0.35264 0.61783 0.0
H379 H 0.27761 0.31072 0.6132 0.0
C380 C 0.14496 0.78232 0.89732 0.0
C381 C 0.12529 0.85777 0.89592 0.0
C382 C 0.03244 0.84035 0.9327 0.0
C383 C 0.04216 0.76337 0.93014 0.0
N384 N 0.11029 0.65927 0.91224 0.0
N385 N 0.04484 0.95807 0.91 0.0
C386 C 0.10002 0.73378 0.91332 0.0
C387 C 0.06877 0.88717 0.91349 0.0
N388 N 0.20635 0.75772 0.88331 0.0
N389 N 0.9866 0.86844 0.95289 0.0
H390 H 0.06738 0.99313 0.89515 0.0
H391 H 0.99832 0.98009 0.91994 0.0
H392 H 0.95787 0.83519 0.96689 0.0
H393 H 0.98277 0.92443 0.9575 0.0
H394 H 0.2273 0.70439 0.88487 0.0
H395 H 0.23997 0.79304 0.87175 0.0
H396 H 0.1457 0.63283 0.8982 0.0
H397 H 0.0813 0.62361 0.9253 0.0
C398 C 0.82373 0.62557 0.15203 0.0
C399 C 0.81707 0.54994 0.14451 0.0
C400 C 0.77729 0.58629 0.09827 0.0
C401 C 0.76522 0.65992 0.10768 0.0
N402 N 0.81109 0.75378 0.13748 0.0
N403 N 0.77737 0.45916 0.11045 0.0
C404 C 0.79773 0.68106 0.13312 0.0
C405 C 0.79026 0.53073 0.11778 0.0
N406 N 0.85258 0.64396 0.17739 0.0
N407 N 0.78478 0.56733 0.07088 0.0
H408 H 0.78043 0.41545 0.12447 0.0
H409 H 0.75746 0.44488 0.09074 0.0
H410 H 0.7913 0.60465 0.05458 0.0
H411 H 0.7913 0.60465 0.05458 0.0
H412 H 0.85253 0.6973 0.18539 0.0
H413 H 0.87443 0.60481 0.19101 0.0
H414 H 0.84666 0.77243 0.1529 0.0
H415 H 0.79335 0.79407 0.12345 0.0
C416 C 0.29989 0.72678 0.56693 0.0
C417 C 0.22493 0.74834 0.57111 0.0
C418 C 0.21128 0.76753 0.52088 0.0
C419 C 0.2783 0.72813 0.51637 0.0
N420 N 0.40171 0.7095 0.53394 0.0
N421 N 0.11195 0.80003 0.55293 0.0
C422 C 0.32801 0.72006 0.53904 0.0
C423 C 0.18187 0.77327 0.54834 0.0
N424 N 0.34256 0.70944 0.58949 0.0
N425 N 0.17825 0.80247 0.49896 0.0
H426 H 0.09073 0.80961 0.57293 0.0
H427 H 0.07412 0.81023 0.53705 0.0
H428 H 0.20291 0.80408 0.47922 0.0
H429 H 0.13212 0.83675 0.50094 0.0
H430 H 0.39547 0.68677 0.58813 0.0
H431 H 0.32376 0.71575 0.60998 0.0
H432 H 0.44163 0.70582 0.54945 0.0
H433 H 0.42442 0.7138 0.51401 0.0
C434 C 0.83954 0.79146 0.81768 0.0
C435 C 0.84484 0.71419 0.8221 0.0
C436 C 0.9243 0.70264 0.78078 0.0
C437 C 0.92685 0.78044 0.77834 0.0
N438 N 0.89513 0.90004 0.79697 0.0
N439 N 0.91118 0.60059 0.81238 0.0
C440 C 0.88659 0.82537 0.79747 0.0
C441 C 0.8925 0.67091 0.80493 0.0
N442 N 0.78811 0.83202 0.83209 0.0
N443 N 0.94955 0.6585 0.75956 0.0
H444 H 0.8939 0.57633 0.83098 0.0
H445 H 0.95127 0.56972 0.80178 0.0
H446 H 0.96957 0.67905 0.7407 0.0
H447 H 0.94238 0.60159 0.75942 0.0
H448 H 0.77666 0.88714 0.82785 0.0
H449 H 0.75219 0.80876 0.84662 0.0
H450 H 0.87342 0.93505 0.81224 0.0
H451 H 0.92916 0.92646 0.78254 0.0
C452 C 0.78719 0.31085 0.03153 0.0
C453 C 0.80381 0.3769 1.01704 0.0
C454 C 0.89471 0.40753 0.05307 0.0
C455 C 0.88682 0.3364 0.06502 0.0
N456 N 0.83126 0.21612 0.06305 0.0
N457 N 0.88577 0.48044 1.0112 0.0
C458 C 0.83405 0.287 0.05372 0.0
C459 C 0.86062 0.42345 0.02711 0.0
N460 N 0.7259 0.27151 0.02441 0.0
N461 N 0.93259 0.46122 0.0669 0.0
H462 H 0.86515 0.49261 0.99147 0.0
H463 H 0.93282 0.51042 1.01629 0.0
H464 H 0.9553 0.45364 0.08663 0.0
H465 H 0.93396 0.51579 0.06024 0.0
H466 H 0.70679 0.22688 0.03592 0.0
H467 H 0.69006 0.28798 1.00855 0.0
H468 H 0.79898 0.17554 0.05383 0.0
H469 H 0.86676 0.19607 0.07833 0.0
C470 C 0.26484 0.30676 0.27386 0.0
C471 C 0.18679 0.2981 0.27252 0.0
C472 C 0.17243 0.36137 0.31734 0.0
C473 C 0.25053 0.3677 0.3194 0.0
N474 N 0.37175 0.33242 0.30289 0.0
N475 N 0.07039 0.29541 0.29688 0.0
C476 C 0.29707 0.33575 0.29868 0.0
C477 C 0.14203 0.31829 0.29562 0.0
N478 N 0.30774 0.29113 0.25102 0.0
N479 N 0.12682 0.40054 0.33484 0.0
H480 H 0.04854 0.26094 0.28169 0.0
H481 H 0.03648 0.3029 0.31434 0.0
H482 H 0.14631 0.43701 0.34989 0.0
H483 H 0.06956 0.40293 0.33247 0.0
H484 H 0.3636 0.30447 0.24964 0.0
H485 H 0.28647 0.26886 0.23268 0.0
H486 H 0.408 0.30352 0.28985 0.0
H487 H 0.39665 0.35318 0.32086 0.0
C488 C 0.69996 0.79143 0.23909 0.0
C489 C 0.72896 0.81831 0.21339 0.0
C490 C 0.79338 0.91596 0.23956 0.0
C491 C 0.77073 0.88348 0.26499 0.0
N492 N 0.71724 0.7801 0.28895 0.0
N493 N 0.81399 0.90115 0.19003 0.0
C494 C 0.72906 0.81775 0.26469 0.0
C495 C 0.77891 0.87908 0.21386 0.0
N496 N 0.64017 0.74567 0.23938 0.0
N497 N 0.82527 0.98398 0.23974 0.0
H498 H 0.80483 0.87761 0.17062 0.0
H499 H 0.857 0.93908 0.1899 0.0
H500 H 0.8371 1.01261 0.25806 0.0
H501 H 0.83384 1.01474 0.22173 0.0
H502 H 0.61311 0.73035 0.2577 0.0
H503 H 0.61116 0.73087 0.22152 0.0
H504 H 0.69334 0.72804 0.28949 0.0
H505 H 0.73834 0.79738 0.30811 0.0
C506 C 0.72828 0.31401 0.50103 0.0
C507 C 0.72906 0.26547 0.5242 0.0
C508 C 0.76119 0.16264 0.49301 0.0
C509 C 0.74297 0.20726 0.46973 0.0
N510 N 0.71583 0.32716 0.45073 0.0
N511 N 0.79185 0.15854 0.54219 0.0
C512 C 0.73006 0.28396 0.47341 0.0
C513 C 0.75931 0.19386 0.52025 0.0
N514 N 0.73127 0.38822 0.50541 0.0
N515 N 0.7788 0.08998 0.48913 0.0
H516 H 0.79983 0.18454 0.56139 0.0
H517 H 0.81986 0.10846 0.54044 0.0
H518 H 0.78664 0.06663 0.4694 0.0
H519 H 0.78273 0.05224 0.50539 0.0
H520 H 0.73578 0.4266 0.4894 0.0
H521 H 0.73937 0.4108 0.52517 0.0
H522 H 0.69829 0.38176 0.45212 0.0
H523 H 0.718 0.30714 0.43031 0.0
C524 C 0.32124 0.11801 0.75173 0.0
C525 C 0.30651 0.1758 0.77092 0.0
C526 C 0.35235 0.26642 0.73703 0.0
C527 C 0.37796 0.20769 0.71975 0.0
N528 N 0.3837 0.0775 0.70941 0.0
N529 N 0.30347 0.3047 0.78227 0.0
C530 C 0.36045 0.13346 0.72657 0.0
C531 C 0.31957 0.25011 0.76344 0.0
N532 N 0.29849 0.04822 0.75787 0.0
N533 N 0.36067 0.33763 0.72847 0.0
H534 H 0.27566 0.29463 0.80101 0.0
H535 H 0.31949 0.35927 0.77999 0.0
H536 H 0.38795 0.3518 0.71012 0.0
H537 H 0.3367 0.38276 0.73851 0.0
H538 H 0.30087 1.00421 0.74396 0.0
H539 H 0.27188 0.03519 0.77652 0.0
H540 H 0.38141 0.02199 0.71457 0.0
H541 H 0.4084 0.08644 0.69005 0.0
C542 C 0.38052 0.86235 1.01822 0.0
C543 C 0.34847 0.79326 0.02462 0.0
C544 C 0.27068 0.80244 0.98292 0.0
C545 C 0.30783 0.868 0.97521 0.0
N546 N 0.40926 0.95161 0.98244 0.0
N547 N 0.27051 0.69205 1.01145 0.0
C548 C 0.36597 0.89549 0.992 0.0
C549 C 0.29571 0.76158 1.00646 0.0
N550 N 0.42263 0.89787 0.03764 0.0
N551 N 0.20938 0.78125 0.96854 0.0
H552 H 0.28699 0.66126 0.02873 0.0
H553 H 0.23789 0.66287 0.99745 0.0
H554 H 0.18914 0.81134 0.95175 0.0
H555 H 0.1752 0.73824 0.97469 0.0
H556 H 0.44084 0.95178 0.03523 0.0
H557 H 0.43386 0.87604 0.05729 0.0
H558 H 0.45739 0.9684 0.99244 0.0
H559 H 0.40144 0.97653 0.96307 0.0
C560 C 0.59333 0.917 0.39452 0.0
C561 C 0.67063 0.90305 0.39625 0.0
C562 C 0.64715 0.77547 0.41031 0.0
C563 C 0.57006 0.78837 0.40737 0.0
N564 N 0.46818 0.87345 0.40294 0.0
N565 N 0.7709 0.82658 0.41234 0.0
C566 C 0.54268 0.86018 0.40174 0.0
C567 C 0.69743 0.83453 0.4063 0.0
N568 N 0.5686 0.98315 0.38451 0.0
N569 N 0.67214 0.70582 0.41589 0.0
H570 H 0.80858 0.86931 0.40991 0.0
H571 H 0.79358 0.78041 0.42196 0.0
H572 H 0.63651 0.66256 0.42063 0.0
H573 H 0.72754 0.69 0.41481 0.0
H574 H 0.51367 0.99433 0.37957 0.0
H575 H 0.60395 0.02645 0.37969 0.0
H576 H 0.4444 0.92563 0.40149 0.0
H577 H 0.42997 0.83258 0.40772 0.0
C578 C 0.69159 0.12417 0.65749 0.0
C579 C 0.70816 0.20033 0.65395 0.0
C580 C 0.83905 0.17332 0.66362 0.0
C581 C 0.82159 0.0978 0.6673 0.0
N582 N 0.72876 1.00588 0.67597 0.0
N583 N 0.79435 0.29964 0.66014 0.0
C584 C 0.74692 0.07517 0.66737 0.0
C585 C 0.78102 0.2257 0.6591 0.0
N586 N 0.6252 0.09662 0.64898 0.0
N587 N 0.91149 0.19431 0.66363 0.0
H588 H 0.7528 0.33907 0.65733 0.0
H589 H 0.84475 0.32194 0.66617 0.0
H590 H 0.95438 0.1579 0.66862 0.0
H591 H 0.92918 0.24646 0.65772 0.0
H592 H 0.61409 0.04051 0.64778 0.0
H593 H 0.58383 0.12848 0.6401 0.0
H594 H 0.67436 0.98935 0.67938 0.0
H595 H 0.76773 0.96722 0.68249 0.0
C596 C 0.41619 0.29795 0.92021 0.0
C597 C 0.49292 0.28116 0.92012 0.0
C598 C 0.46679 0.15177 0.90964 0.0
C599 C 0.39032 0.16982 0.90753 0.0
N600 N 0.28995 0.25315 0.91823 0.0
N601 N 0.59072 0.19126 0.92233 0.0
C602 C 0.36428 0.24087 0.9153 0.0
C603 C 0.51786 0.20738 0.91763 0.0
N604 N 0.39367 0.3694 0.92374 0.0
N605 N 0.49104 0.08289 0.90231 0.0
H606 H 0.62898 0.23145 0.92782 0.0
H607 H 0.6122 0.13802 0.9232 0.0
H608 H 0.45544 0.04054 0.89671 0.0
H609 H 0.54656 0.06828 0.90041 0.0
H610 H 0.33971 0.38782 0.92059 0.0
H611 H 0.43041 0.41121 0.92909 0.0
H612 H 0.26694 0.30183 0.92594 0.0
H613 H 0.25108 0.21186 0.91515 0.0
C614 C 0.36267 0.98989 0.1694 0.0
C615 C 0.28789 0.97615 0.16218 0.0
C616 C 0.3202 0.84678 0.15193 0.0
C617 C 0.39623 0.86458 0.15455 0.0
N618 N 0.48049 0.9365 0.18243 0.0
N619 N 0.19236 0.88999 0.15032 0.0
C620 C 0.415 0.93104 0.1685 0.0
C621 C 0.26557 0.9035 0.15509 0.0
N622 N 0.38513 0.05986 0.17535 0.0
N623 N 0.30077 0.77488 0.14808 0.0
H624 H 0.1511 0.92921 0.15429 0.0
H625 H 0.17228 0.84117 0.14198 0.0
H626 H 0.33974 0.73223 0.14876 0.0
H627 H 0.24655 0.75625 0.14722 0.0
H628 H 0.44065 0.07424 0.17714 0.0
H629 H 0.34887 0.10462 0.17655 0.0
H630 H 0.49463 0.98222 0.19441 0.0
H631 H 0.51484 0.89115 0.18589 0.0
C632 C 0.154 0.80698 0.37303 0.0
C633 C 0.07769 0.78997 0.37316 0.0
C634 C 0.10726 0.6594 0.37993 0.0
C635 C 0.18198 0.67871 0.38525 0.0
N636 N 0.27912 0.76905 0.38481 0.0
N637 N 0.97981 0.70104 0.37677 0.0
C638 C 0.20632 0.75199 0.38087 0.0
C639 C 0.05383 0.71616 0.37591 0.0
N640 N 0.17573 0.87607 0.36544 0.0
N641 N 0.08694 0.58711 0.37912 0.0
H642 H 0.93909 0.74071 0.37305 0.0
H643 H 0.95848 0.6502 0.38261 0.0
H644 H 0.12312 0.54384 0.38335 0.0
H645 H 0.03575 0.56968 0.37184 0.0
H646 H 0.23065 0.89152 0.3628 0.0
H647 H 0.13784 0.91658 0.35937 0.0
H648 H 0.29926 0.82256 0.38521 0.0
H649 H 0.31964 0.72921 0.3886 0.0
C650 C 0.83479 0.57259 0.65445 0.0
C651 C 0.79851 0.58675 0.62881 0.0
C652 C 0.88177 0.69033 0.61969 0.0
C653 C 0.91795 0.67654 0.64545 0.0
N654 N 0.94208 0.59392 0.68368 0.0
N655 N 0.79819 0.6456 0.58395 0.0
C656 C 0.89855 0.61417 0.66169 0.0
C657 C 0.82595 0.64114 0.61038 0.0
N658 N 0.80629 0.52175 0.67245 0.0
N659 N 0.89735 0.75276 0.60495 0.0
H660 H 0.7573 0.61011 0.57669 0.0
H661 H 0.8203 0.67923 0.5685 0.0
H662 H 0.93733 0.79056 0.61103 0.0
H663 H 0.86687 0.77025 0.58779 0.0
H664 H 0.82444 0.51517 0.69289 0.0
H665 H 0.76144 0.4885 0.66739 0.0
H666 H 0.93514 0.54522 0.69477 0.0
H667 H 0.98965 0.62259 0.68925 0.0
C668 C 1.02314 0.36973 0.88451 0.0
C669 C 0.99667 0.29803 0.87888 0.0
C670 C 0.86885 0.34443 0.88022 0.0
C671 C 0.89486 0.41267 0.89066 0.0
N672 N 0.99658 0.49097 0.90354 0.0
N673 N 0.89557 0.21552 0.87062 0.0
C674 C 0.97207 0.42614 0.89247 0.0
C675 C 0.91976 0.28521 0.8761 0.0
N676 N 0.09732 0.38325 0.88271 0.0
N677 N 0.79569 0.33693 0.8738 0.0
H678 H 0.9318 0.17219 0.86588 0.0
H679 H 0.84033 0.1999 0.87183 0.0
H680 H 0.75775 0.38001 0.87605 0.0
H681 H 0.77383 0.29086 0.86395 0.0
H682 H 0.12006 0.43566 0.88397 0.0
H683 H 0.13584 0.34249 0.87738 0.0
H684 H 0.05157 0.50052 0.90864 0.0
H685 H 0.96121 0.5338 0.90951 0.0
C686 C 0.27241 0.50184 0.15224 0.0
C687 C 0.30454 0.48905 0.12557 0.0
C688 C 0.21423 0.39211 0.11615 0.0
C689 C 0.18231 0.4043 0.14297 0.0
N690 N 0.16875 0.48125 0.1837 0.0
N691 N 0.29637 0.43627 0.07965 0.0
C692 C 0.2076 0.46267 0.16013 0.0
C693 C 0.27188 0.43897 0.10667 0.0
N694 N 0.30568 0.54927 0.17042 0.0
N695 N 0.1929 0.33297 0.10048 0.0
H696 H 0.33892 0.46969 0.07227 0.0
H697 H 0.27033 0.40629 0.06401 0.0
H698 H 0.15109 0.29715 0.10656 0.0
H699 H 0.22014 0.31599 0.08236 0.0
H700 H 0.29068 0.55444 0.19133 0.0
H701 H 0.3512 0.5812 0.16488 0.0
H702 H 0.17998 0.52747 0.19581 0.0
H703 H 0.12078 0.45388 0.18984 0.0
C704 C 0.49703 0.39111 0.52808 0.0
C705 C 0.45871 0.42857 0.54974 0.0
C706 C 0.38622 0.4936 0.51409 0.0
C707 C 0.43015 0.46147 0.49267 0.0
N708 N 0.54788 0.40447 0.48178 0.0
N709 N 0.38735 0.53742 0.56173 0.0
C710 C 0.4936 0.42017 0.50072 0.0
C711 C 0.41108 0.48809 0.54212 0.0
N712 N 0.5285 0.32375 0.53225 0.0
N713 N 0.31819 0.52264 0.5086 0.0
H714 H 0.41027 0.53961 0.58168 0.0
H715 H 0.3509 0.58007 0.55709 0.0
H716 H 0.2959 0.52422 0.48868 0.0
H717 H 0.28171 0.53944 0.52435 0.0
H718 H 0.55034 0.29231 0.51587 0.0
H719 H 0.52628 0.29641 0.55125 0.0
H720 H 0.59441 0.37368 0.48702 0.0
H721 H 0.54897 0.42848 0.46201 0.0
C722 C 0.19096 0.90599 0.7892 0.0
C723 C 0.14448 0.95835 0.80283 0.0
C724 C 0.08811 0.99044 0.75773 0.0
C725 C 0.13079 0.93414 0.74463 0.0
N726 N 0.21449 0.83044 0.7485 0.0
N727 N 0.0443 0.04594 0.80122 0.0
C728 C 0.17984 0.8898 0.76057 0.0
C729 C 0.09172 0.99951 0.78739 0.0
N730 N 0.24729 0.87269 0.80353 0.0
N731 N 0.0453 0.03581 0.74172 0.0
H732 H 0.04811 0.05573 0.82264 0.0
H733 H 0.99932 0.0719 0.79187 0.0
H734 H 0.03989 0.02856 0.72022 0.0
H735 H 1.01824 0.08248 0.74937 0.0
H736 H 0.28922 0.84199 0.79398 0.0
H737 H 0.25641 0.88065 0.82476 0.0
H738 H 0.24313 0.79047 0.75973 0.0
H739 H 0.20928 0.81686 0.7275 0.0
C740 C 0.56853 0.7228 1.01507 0.0
C741 C 0.59577 0.67265 0.03514 0.0
C742 C 0.59825 0.5753 0.9991 0.0
C743 C 0.58421 0.62916 0.9788 0.0
N744 N 0.5032 0.73404 0.97161 0.0
N745 N 0.62871 0.54749 0.04716 0.0
C746 C 0.55261 0.69699 0.98792 0.0
C747 C 0.6066 0.59716 0.02755 0.0
N748 N 0.56201 0.79589 0.02121 0.0
N749 N 0.59506 0.50331 0.99143 0.0
H750 H 0.63241 0.56112 0.06821 0.0
H751 H 0.64628 0.49415 0.04243 0.0
H752 H 0.58247 0.48884 0.97096 0.0
H753 H 0.5965 0.45959 1.00544 0.0
H754 H 0.55067 0.83559 1.0061 0.0
H755 H 0.57279 0.81684 0.04097 0.0
H756 H 0.47644 0.78211 0.97812 0.0
H757 H 0.48008 0.71032 0.95385 0.0
C758 C 0.93637 0.19378 0.25621 0.0
C759 C 0.97611 0.14075 0.24039 0.0
C760 C 0.98291 0.06281 0.28243 0.0
C761 C 0.93463 0.11242 0.29662 0.0
N762 N 0.84783 0.21332 0.29327 0.0
N763 N 0.03062 1.01969 0.23757 0.0
C764 C 0.90546 0.17382 0.28219 0.0
C765 C 0.99737 0.0734 0.25325 0.0
N766 N 0.93174 0.26484 0.24731 0.0
N767 N 1.01557 1.00679 0.29684 0.0
H768 H 0.04508 0.02786 0.21668 0.0
H769 H 0.04058 0.96664 0.24493 0.0
H770 H 1.00404 0.99734 0.31787 0.0
H771 H 0.05652 0.97274 0.28836 0.0
H772 H 0.90717 0.30673 0.25913 0.0
H773 H 0.96299 0.28374 0.23054 0.0
H774 H 0.82118 0.25553 0.28246 0.0
H775 H 0.82129 0.19782 0.31169 0.0
loop_
_geom_bond_atom_site_label_1
_geom_bond_atom_site_label_2
_geom_bond_distance
_geom_bond_site_symmetry_2
_ccdc_geom_bond_type
Zn0 N4 2.020 . S
Zn0 O8 2.019 . S
Zn0 N10 2.119 . S
Zn0 O18 1.975 . S
C1 N2 1.334 . S
C1 N5 1.336 . S
N2 C1 1.334 . S
N2 C3 1.334 . S
C3 N2 1.334 . S
C3 N4 1.336 . S
N4 Zn0 2.020 . S
N4 C3 1.336 . S
N4 N5 1.354 . S
N5 C1 1.336 . S
N5 N4 1.354 . S
N5 Zn9 2.020 . S
C6 O7 1.244 . S
C6 O30 1.257 . S
O7 C6 1.244 . S
O8 Zn0 2.019 . S
O8 C28 1.257 . S
Zn9 N5 2.020 . S
Zn9 O16 1.975 . S
Zn9 N25 2.119 . S
Zn9 O30 2.019 . S
N10 Zn0 2.119 . S
N10 C12 1.334 . S
N10 C13 1.328 . S
C11 C12 1.391 . S
C11 N14 1.329 . S
C11 H32 0.930 . S
C12 N10 1.334 . S
C12 C11 1.391 . S
C12 H19 0.930 . S
C13 N10 1.328 . S
C13 C15 1.392 . S
C13 H20 0.930 . S
N14 C11 1.329 . S
N14 C15 1.331 . S
C15 C13 1.392 . S
C15 N14 1.331 . S
O16 Zn9 1.975 . S
O16 C17 1.252 . S
C17 O16 1.252 . S
C17 O18 1.252 . S
O18 Zn0 1.975 . S
O18 C17 1.252 . S
H19 C12 0.930 . S
H20 C13 0.930 . S
C21 C22 1.392 . S
C21 N25 1.328 . S
C21 H27 0.930 . S
C22 C21 1.392 . S
C22 N26 1.331 . S
C23 C24 1.391 . S
C23 N26 1.329 . S
C23 H33 0.930 . S
C24 C23 1.391 . S
C24 N25 1.334 . S
C24 H31 0.930 . S
N25 Zn9 2.119 . S
N25 C21 1.328 . S
N25 C24 1.334 . S
N26 C22 1.331 . S
N26 C23 1.329 . S
H27 C21 0.930 . S
C28 O8 1.257 . S
C28 O29 1.244 . S
O29 C28 1.244 . S
O30 C6 1.257 . S
O30 Zn9 2.019 . S
H31 C24 0.930 . S
H32 C11 0.930 . S
H33 C23 0.930 . S
Zn34 N38 2.020 1_655 S
Zn34 O42 2.019 . S
Zn34 N44 2.119 . S
Zn34 O52 1.975 . S
C35 N36 1.334 . S
C35 N39 1.336 . S
N36 C35 1.334 . S
N36 C37 1.334 . S
C37 N36 1.334 . S
C37 N38 1.336 . S
N38 Zn34 2.020 1_455 S
N38 C37 1.336 . S
N38 N39 1.354 . S
N39 C35 1.336 . S
N39 N38 1.354 . S
N39 Zn43 2.020 . S
C40 O41 1.244 . S
C40 O64 1.257 . S
O41 C40 1.244 . S
O42 Zn34 2.019 . S
O42 C62 1.257 . S
Zn43 N39 2.020 . S
Zn43 O50 1.975 1_455 S
Zn43 N59 2.119 . S
Zn43 O64 2.019 . S
N44 Zn34 2.119 . S
N44 C46 1.334 . S
N44 C47 1.328 . S
C45 C46 1.391 . S
C45 N48 1.329 . S
C45 H66 0.930 . S
C46 N44 1.334 . S
C46 C45 1.391 . S
C46 H53 0.930 . S
C47 N44 1.328 . S
C47 C49 1.392 . S
C47 H54 0.930 . S
N48 C45 1.329 . S
N48 C49 1.331 . S
C49 C47 1.392 . S
C49 N48 1.331 . S
O50 Zn43 1.975 1_655 S
O50 C51 1.252 . S
C51 O50 1.252 . S
C51 O52 1.252 . S
O52 Zn34 1.975 . S
O52 C51 1.252 . S
H53 C46 0.930 . S
H54 C47 0.930 . S
C55 C56 1.392 . S
C55 N59 1.328 . S
C55 H61 0.930 . S
C56 C55 1.392 . S
C56 N60 1.331 . S
C57 C58 1.391 . S
C57 N60 1.329 . S
C57 H67 0.930 . S
C58 C57 1.391 . S
C58 N59 1.334 . S
C58 H65 0.930 . S
N59 Zn43 2.119 . S
N59 C55 1.328 . S
N59 C58 1.334 . S
N60 C56 1.331 . S
N60 C57 1.329 . S
H61 C55 0.930 . S
C62 O42 1.257 . S
C62 O63 1.244 . S
O63 C62 1.244 . S
O64 C40 1.257 . S
O64 Zn43 2.019 . S
H65 C58 0.930 . S
H66 C45 0.930 . S
H67 C57 0.930 . S
Zn68 N72 2.020 . S
Zn68 O76 2.019 . S
Zn68 N78 2.119 . S
Zn68 O86 1.975 . S
C69 N70 1.334 . S
C69 N73 1.336 . S
N70 C69 1.334 . S
N70 C71 1.334 . S
C71 N70 1.334 . S
C71 N72 1.336 . S
N72 Zn68 2.020 . S
N72 C71 1.336 . S
N72 N73 1.354 . S
N73 C69 1.336 . S
N73 N72 1.354 . S
N73 Zn77 2.020 . S
C74 O75 1.244 . S
C74 O98 1.257 . S
O75 C74 1.244 . S
O76 Zn68 2.019 . S
O76 C96 1.257 . S
Zn77 N73 2.020 . S
Zn77 O84 1.975 . S
Zn77 N93 2.119 . S
Zn77 O98 2.019 . S
N78 Zn68 2.119 . S
N78 C80 1.334 . S
N78 C81 1.328 . S
C79 C80 1.391 . S
C79 N82 1.329 . S
C79 H100 0.930 . S
C80 N78 1.334 . S
C80 C79 1.391 . S
C80 H87 0.930 . S
C81 N78 1.328 . S
C81 C83 1.392 . S
C81 H88 0.930 . S
N82 C79 1.329 . S
N82 C83 1.331 . S
C83 C81 1.392 . S
C83 N82 1.331 . S
O84 Zn77 1.975 . S
O84 C85 1.252 . S
C85 O84 1.252 . S
C85 O86 1.252 . S
O86 Zn68 1.975 . S
O86 C85 1.252 . S
H87 C80 0.930 . S
H88 C81 0.930 . S
C89 C90 1.378 1_655 S
C89 N93 1.328 . S
C89 H95 0.930 . S
C90 C89 1.378 1_455 S
C90 N94 1.336 . S
C91 C92 1.391 . S
C91 N94 1.329 1_655 S
C91 H101 0.930 1_655 S
C92 C91 1.391 . S
C92 N93 1.334 . S
C92 H99 0.930 . S
N93 Zn77 2.119 . S
N93 C89 1.328 . S
N93 C92 1.334 . S
N94 C90 1.336 . S
N94 C91 1.329 1_455 S
H95 C89 0.930 . S
C96 O76 1.257 . S
C96 O97 1.244 . S
O97 C96 1.244 . S
O98 C74 1.257 . S
O98 Zn77 2.019 . S
H99 C92 0.930 . S
H100 C79 0.930 . S
H101 C91 0.930 1_455 S
Zn102 N106 2.020 1_455 S
Zn102 O110 2.019 . S
Zn102 N112 2.119 . S
Zn102 O120 1.975 . S
C103 N104 1.334 . S
C103 N107 1.336 . S
N104 C103 1.334 . S
N104 C105 1.334 . S
C105 N104 1.334 . S
C105 N106 1.336 . S
N106 Zn102 2.020 1_655 S
N106 C105 1.336 . S
N106 N107 1.354 . S
N107 C103 1.336 . S
N107 N106 1.354 . S
N107 Zn111 2.020 . S
C108 O109 1.244 . S
C108 O132 1.257 . S
O109 C108 1.244 . S
O110 Zn102 2.019 . S
O110 C130 1.257 . S
Zn111 N107 2.020 . S
Zn111 O118 1.975 1_655 S
Zn111 N127 2.119 . S
Zn111 O132 2.019 . S
N112 Zn102 2.119 . S
N112 C114 1.334 . S
N112 C115 1.328 . S
C113 C114 1.391 . S
C113 N116 1.329 . S
C113 H134 0.930 . S
C114 N112 1.334 . S
C114 C113 1.391 . S
C114 H121 0.930 . S
C115 N112 1.328 . S
C115 C117 1.392 . S
C115 H122 0.930 . S
N116 C113 1.329 . S
N116 C117 1.331 . S
C117 C115 1.392 . S
C117 N116 1.331 . S
O118 Zn111 1.975 1_455 S
O118 C119 1.252 . S
C119 O118 1.252 . S
C119 O120 1.252 . S
O120 Zn102 1.975 . S
O120 C119 1.252 . S
H121 C114 0.930 . S
H122 C115 0.930 . S
C123 C124 1.392 . S
C123 N127 1.328 . S
C123 H129 0.930 . S
C124 C123 1.392 . S
C124 N128 1.331 . S
C125 C126 1.391 . S
C125 N128 1.329 . S
C125 H135 0.930 . S
C126 C125 1.391 . S
C126 N127 1.334 . S
C126 H133 0.930 . S
N127 Zn111 2.119 . S
N127 C123 1.328 . S
N127 C126 1.334 . S
N128 C124 1.331 . S
N128 C125 1.329 . S
H129 C123 0.930 . S
C130 O110 1.257 . S
C130 O131 1.244 . S
O131 C130 1.244 . S
O132 C108 1.257 . S
O132 Zn111 2.019 . S
H133 C126 0.930 . S
H134 C113 0.930 . S
H135 C125 0.930 . S
Zn136 N140 2.020 1_565 S
Zn136 O144 2.019 . S
Zn136 N146 2.119 . S
Zn136 O154 1.975 . S
C137 N138 1.334 . S
C137 N141 1.336 . S
N138 C137 1.334 . S
N138 C139 1.334 . S
C139 N138 1.334 . S
C139 N140 1.336 . S
N140 Zn136 2.020 1_545 S
N140 C139 1.336 . S
N140 N141 1.354 . S
N141 C137 1.336 . S
N141 N140 1.354 . S
N141 Zn145 2.020 . S
C142 O143 1.244 . S
C142 O166 1.257 . S
O143 C142 1.244 . S
O144 Zn136 2.019 . S
O144 C164 1.257 . S
Zn145 N141 2.020 . S
Zn145 O152 1.975 1_545 S
Zn145 N161 2.119 . S
Zn145 O166 2.019 . S
N146 Zn136 2.119 . S
N146 C148 1.334 . S
N146 C149 1.328 . S
C147 C148 1.391 . S
C147 N150 1.329 . S
C147 H168 0.930 . S
C148 N146 1.334 . S
C148 C147 1.391 . S
C148 H155 0.930 . S
C149 N146 1.328 . S
C149 C151 1.392 . S
C149 H156 0.930 . S
N150 C147 1.329 . S
N150 C151 1.331 . S
C151 C149 1.392 . S
C151 N150 1.331 . S
O152 Zn145 1.975 1_565 S
O152 C153 1.252 . S
C153 O152 1.252 . S
C153 O154 1.252 . S
O154 Zn136 1.975 . S
O154 C153 1.252 . S
H155 C148 0.930 . S
H156 C149 0.930 . S
C157 C158 1.392 . S
C157 N161 1.328 . S
C157 H163 0.930 . S
C158 C157 1.392 . S
C158 N162 1.331 . S
C159 C160 1.391 . S
C159 N162 1.329 . S
C159 H169 0.930 . S
C160 C159 1.391 . S
C160 N161 1.334 . S
C160 H167 0.930 . S
N161 Zn145 2.119 . S
N161 C157 1.328 . S
N161 C160 1.334 . S
N162 C158 1.331 . S
N162 C159 1.329 . S
H163 C157 0.930 . S
C164 O144 1.257 . S
C164 O165 1.244 . S
O165 C164 1.244 . S
O166 C142 1.257 . S
O166 Zn145 2.019 . S
H167 C160 0.930 . S
H168 C147 0.930 . S
H169 C159 0.930 . S
Zn170 N174 2.020 . S
Zn170 O178 2.019 . S
Zn170 N180 2.119 . S
Zn170 O188 1.975 . S
C171 N172 1.334 . S
C171 N175 1.336 . S
N172 C171 1.334 . S
N172 C173 1.334 . S
C173 N172 1.334 . S
C173 N174 1.336 . S
N174 Zn170 2.020 . S
N174 C173 1.336 . S
N174 N175 1.354 . S
N175 C171 1.336 . S
N175 N174 1.354 . S
N175 Zn179 2.020 . S
C176 O177 1.244 . S
C176 O200 1.257 . S
O177 C176 1.244 . S
O178 Zn170 2.019 . S
O178 C198 1.257 . S
Zn179 N175 2.020 . S
Zn179 O186 1.975 . S
Zn179 N195 2.119 . S
Zn179 O200 2.019 . S
N180 Zn170 2.119 . S
N180 C182 1.334 . S
N180 C183 1.328 . S
C181 C182 1.391 . S
C181 N184 1.329 . S
C181 H202 0.930 . S
C182 N180 1.334 . S
C182 C181 1.391 . S
C182 H189 0.930 . S
C183 N180 1.328 . S
C183 C185 1.392 . S
C183 H190 0.930 . S
N184 C181 1.329 . S
N184 C185 1.331 . S
C185 C183 1.392 . S
C185 N184 1.331 . S
O186 Zn179 1.975 . S
O186 C187 1.252 . S
C187 O186 1.252 . S
C187 O188 1.252 . S
O188 Zn170 1.975 . S
O188 C187 1.252 . S
H189 C182 0.930 . S
H190 C183 0.930 . S
C191 C192 1.392 . S
C191 N195 1.328 . S
C191 H197 0.930 . S
C192 C191 1.392 . S
C192 N196 1.331 . S
C193 C194 1.391 . S
C193 N196 1.329 . S
C193 H203 0.930 . S
C194 C193 1.391 . S
C194 N195 1.334 . S
C194 H201 0.930 . S
N195 Zn179 2.119 . S
N195 C191 1.328 . S
N195 C194 1.334 . S
N196 C192 1.331 . S
N196 C193 1.329 . S
H197 C191 0.930 . S
C198 O178 1.257 . S
C198 O199 1.244 . S
O199 C198 1.244 . S
O200 C176 1.257 . S
O200 Zn179 2.019 . S
H201 C194 0.930 . S
H202 C181 0.930 . S
H203 C193 0.930 . S
Zn204 N208 2.020 1_545 S
Zn204 O212 2.019 . S
Zn204 N214 2.119 . S
Zn204 O222 1.975 . S
C205 N206 1.334 . S
C205 N209 1.336 . S
N206 C205 1.334 . S
N206 C207 1.334 . S
C207 N206 1.334 . S
C207 N208 1.336 . S
N208 Zn204 2.020 1_565 S
N208 C207 1.336 . S
N208 N209 1.354 . S
N209 C205 1.336 . S
N209 N208 1.354 . S
N209 Zn213 2.020 . S
C210 O211 1.244 . S
C210 O234 1.257 . S
O211 C210 1.244 . S
O212 Zn204 2.019 . S
O212 C232 1.257 . S
Zn213 N209 2.020 . S
Zn213 O220 1.975 1_565 S
Zn213 N229 2.119 . S
Zn213 O234 2.019 . S
N214 Zn204 2.119 . S
N214 C216 1.334 . S
N214 C217 1.328 . S
C215 C216 1.391 . S
C215 N218 1.329 . S
C215 H236 0.930 . S
C216 N214 1.334 . S
C216 C215 1.391 . S
C216 H223 0.930 . S
C217 N214 1.328 . S
C217 C219 1.392 . S
C217 H224 0.930 . S
N218 C215 1.329 . S
N218 C219 1.331 . S
C219 C217 1.392 . S
C219 N218 1.331 . S
O220 Zn213 1.975 1_545 S
O220 C221 1.252 . S
C221 O220 1.252 . S
C221 O222 1.252 . S
O222 Zn204 1.975 . S
O222 C221 1.252 . S
H223 C216 0.930 . S
H224 C217 0.930 . S
C225 C226 1.392 . S
C225 N229 1.328 . S
C225 H231 0.930 . S
C226 C225 1.392 . S
C226 N230 1.331 . S
C227 C228 1.391 . S
C227 N230 1.329 . S
C227 H237 0.930 . S
C228 C227 1.391 . S
C228 N229 1.334 . S
C228 H235 0.930 . S
N229 Zn213 2.119 . S
N229 C225 1.328 . S
N229 C228 1.334 . S
N230 C226 1.331 . S
N230 C227 1.329 . S
H231 C225 0.930 . S
C232 O212 1.257 . S
C232 O233 1.244 . S
O233 C232 1.244 . S
O234 C210 1.257 . S
O234 Zn213 2.019 . S
H235 C228 0.930 . S
H236 C215 0.930 . S
H237 C227 0.930 . S
Zn238 N242 2.020 . S
Zn238 O246 2.019 . S
Zn238 N248 2.119 . S
Zn238 O256 1.975 . S
C239 N240 1.334 . S
C239 N243 1.336 . S
N240 C239 1.334 . S
N240 C241 1.334 . S
C241 N240 1.334 . S
C241 N242 1.336 . S
N242 Zn238 2.020 . S
N242 C241 1.336 . S
N242 N243 1.354 . S
N243 C239 1.336 . S
N243 N242 1.354 . S
N243 Zn247 2.020 . S
C244 O245 1.244 . S
C244 O268 1.257 . S
O245 C244 1.244 . S
O246 Zn238 2.019 . S
O246 C266 1.257 . S
Zn247 N243 2.020 . S
Zn247 O254 1.975 . S
Zn247 N263 2.119 . S
Zn247 O268 2.019 . S
N248 Zn238 2.119 . S
N248 C250 1.334 . S
N248 C251 1.328 . S
C249 C250 1.391 . S
C249 N252 1.329 1_565 S
C249 H270 0.930 1_565 S
C250 N248 1.334 . S
C250 C249 1.391 . S
C250 H257 0.930 . S
C251 N248 1.328 . S
C251 C253 1.378 1_565 S
C251 H258 0.930 . S
N252 C249 1.329 1_545 S
N252 C253 1.336 . S
C253 C251 1.378 1_545 S
C253 N252 1.336 . S
O254 Zn247 1.975 . S
O254 C255 1.252 . S
C255 O254 1.252 . S
C255 O256 1.252 . S
O256 Zn238 1.975 . S
O256 C255 1.252 . S
H257 C250 0.930 . S
H258 C251 0.930 . S
C259 C260 1.392 . S
C259 N263 1.328 . S
C259 H265 0.930 . S
C260 C259 1.392 . S
C260 N264 1.331 . S
C261 C262 1.391 . S
C261 N264 1.329 . S
C261 H271 0.930 . S
C262 C261 1.391 . S
C262 N263 1.334 . S
C262 H269 0.930 . S
N263 Zn247 2.119 . S
N263 C259 1.328 . S
N263 C262 1.334 . S
N264 C260 1.331 . S
N264 C261 1.329 . S
H265 C259 0.930 . S
C266 O246 1.257 . S
C266 O267 1.244 . S
O267 C266 1.244 . S
O268 C244 1.257 . S
O268 Zn247 2.019 . S
H269 C262 0.930 . S
H270 C249 0.930 1_545 S
H271 C261 0.930 . S
C272 C273 1.363 . S
C272 C278 1.379 . S
C272 N280 1.356 . S
C273 C272 1.363 . S
C273 C279 1.363 . S
C274 C275 1.363 . S
C274 C279 1.379 . S
C274 N281 1.356 . S
C275 C274 1.363 . S
C275 C278 1.363 . S
N276 C278 1.356 . S
N276 H288 0.984 . S
N276 H289 0.985 . S
N277 C279 1.356 . S
N277 H282 0.984 . S
N277 H283 0.985 . S
C278 C272 1.379 . S
C278 C275 1.363 . S
C278 N276 1.356 . S
C279 C273 1.363 . S
C279 C274 1.379 . S
C279 N277 1.356 . S
N280 C272 1.356 . S
N280 H286 0.984 . S
N280 H287 0.984 . S
N281 C274 1.356 . S
N281 H284 0.984 . S
N281 H285 0.985 . S
H282 N277 0.984 . S
H283 N277 0.985 . S
H284 N281 0.984 . S
H285 N281 0.985 . S
H286 N280 0.984 . S
H287 N280 0.984 . S
H288 N276 0.984 . S
H289 N276 0.985 . S
C290 C291 1.363 . S
C290 C296 1.379 . S
C290 N298 1.356 1_565 S
C291 C290 1.363 . S
C291 C297 1.363 . S
C292 C293 1.363 . S
C292 C297 1.379 . S
C292 N299 1.356 . S
C293 C292 1.363 . S
C293 C296 1.363 . S
N294 C296 1.356 . S
N294 H306 0.984 . S
N294 H307 0.985 . S
N295 C297 1.356 . S
N295 H300 0.984 1_565 S
N295 H301 0.985 . S
C296 C290 1.379 . S
C296 C293 1.363 . S
C296 N294 1.356 . S
C297 C291 1.363 . S
C297 C292 1.379 . S
C297 N295 1.356 . S
N298 C290 1.356 1_545 S
N298 H304 0.984 . S
N298 H305 0.984 . S
N299 C292 1.356 . S
N299 H302 0.984 . S
N299 H303 0.985 . S
H300 N295 0.984 1_545 S
H301 N295 0.985 . S
H302 N299 0.984 . S
H303 N299 0.985 . S
H304 N298 0.984 . S
H305 N298 0.984 . S
H306 N294 0.984 . S
H307 N294 0.985 . S
C308 C309 1.363 . S
C308 C314 1.379 . S
C308 N316 1.356 . S
C309 C308 1.363 . S
C309 C315 1.363 . S
C310 C311 1.363 . S
C310 C315 1.379 . S
C310 N317 1.356 . S
C311 C310 1.363 . S
C311 C314 1.363 . S
N312 C314 1.356 . S
N312 H324 0.984 . S
N312 H325 0.985 . S
N313 C315 1.356 . S
N313 H318 0.984 . S
N313 H319 0.985 . S
C314 C308 1.379 . S
C314 C311 1.363 . S
C314 N312 1.356 . S
C315 C309 1.363 . S
C315 C310 1.379 . S
C315 N313 1.356 . S
N316 C308 1.356 . S
N316 H322 0.984 . S
N316 H323 0.984 . S
N317 C310 1.356 . S
N317 H320 0.984 . S
N317 H321 0.985 . S
H318 N313 0.984 . S
H319 N313 0.985 . S
H320 N317 0.984 . S
H321 N317 0.985 . S
H322 N316 0.984 . S
H323 N316 0.984 . S
H324 N312 0.984 . S
H325 N312 0.985 . S
C326 C327 1.363 . S
C326 C332 1.379 . S
C326 N334 1.356 . S
C327 C326 1.363 . S
C327 C333 1.363 . S
C328 C329 1.363 . S
C328 C333 1.379 . S
C328 N335 1.356 . S
C329 C328 1.363 . S
C329 C332 1.363 . S
N330 C332 1.356 1_565 S
N330 H342 0.984 . S
N330 H343 0.985 . S
N331 C333 1.356 . S
N331 H336 0.984 . S
N331 H337 0.985 . S
C332 C326 1.379 . S
C332 C329 1.363 . S
C332 N330 1.356 1_545 S
C333 C327 1.363 . S
C333 C328 1.379 . S
C333 N331 1.356 . S
N334 C326 1.356 . S
N334 H340 0.984 . S
N334 H341 0.984 . S
N335 C328 1.356 . S
N335 H338 0.984 . S
N335 H339 0.985 . S
H336 N331 0.984 . S
H337 N331 0.985 . S
H338 N335 0.984 . S
H339 N335 0.985 . S
H340 N334 0.984 . S
H341 N334 0.984 . S
H342 N330 0.984 . S
H343 N330 0.985 . S
C344 C345 1.363 . S
C344 C350 1.379 . S
C344 N352 1.356 . S
C345 C344 1.363 . S
C345 C351 1.363 . S
C346 C347 1.363 . S
C346 C351 1.379 . S
C346 N353 1.356 . S
C347 C346 1.363 . S
C347 C350 1.363 . S
N348 C350 1.356 . S
N348 H360 0.984 . S
N348 H361 0.985 . S
N349 C351 1.356 1_455 S
N349 H354 0.984 . S
N349 H355 0.985 . S
C350 C344 1.379 . S
C350 C347 1.363 . S
C350 N348 1.356 . S
C351 C345 1.363 . S
C351 C346 1.379 . S
C351 N349 1.356 1_655 S
N352 C344 1.356 . S
N352 H358 0.984 . S
N352 H359 0.972 1_655 S
N353 C346 1.356 . S
N353 H356 0.984 . S
N353 H357 0.985 . S
H354 N349 0.984 . S
H355 N349 0.985 . S
H356 N353 0.984 . S
H357 N353 0.985 . S
H358 N352 0.984 . S
H359 N352 0.972 1_455 S
H360 N348 0.984 . S
H361 N348 0.985 . S
C362 C363 1.363 . S
C362 C368 1.379 . S
C362 N370 1.356 . S
C363 C362 1.363 . S
C363 C369 1.363 . S
C364 C365 1.363 . S
C364 C369 1.379 . S
C364 N371 1.356 . S
C365 C364 1.363 . S
C365 C368 1.363 . S
N366 C368 1.356 . S
N366 H378 0.984 . S
N366 H379 0.985 . S
N367 C369 1.356 . S
N367 H372 0.984 . S
N367 H373 0.985 . S
C368 C362 1.379 . S
C368 C365 1.363 . S
C368 N366 1.356 . S
C369 C363 1.363 . S
C369 C364 1.379 . S
C369 N367 1.356 . S
N370 C362 1.356 . S
N370 H376 0.984 . S
N370 H377 0.984 . S
N371 C364 1.356 . S
N371 H374 0.984 . S
N371 H375 0.985 . S
H372 N367 0.984 . S
H373 N367 0.985 . S
H374 N371 0.984 . S
H375 N371 0.985 . S
H376 N370 0.984 . S
H377 N370 0.984 . S
H378 N366 0.984 . S
H379 N366 0.985 . S
C380 C381 1.363 . S
C380 C386 1.379 . S
C380 N388 1.356 . S
C381 C380 1.363 . S
C381 C387 1.363 . S
C382 C383 1.363 . S
C382 C387 1.379 . S
C382 N389 1.356 1_455 S
C383 C382 1.363 . S
C383 C386 1.363 . S
N384 C386 1.356 . S
N384 H396 0.984 . S
N384 H397 0.985 . S
N385 C387 1.356 . S
N385 H390 0.984 . S
N385 H391 0.985 . S
C386 C380 1.379 . S
C386 C383 1.363 . S
C386 N384 1.356 . S
C387 C381 1.363 . S
C387 C382 1.379 . S
C387 N385 1.356 . S
N388 C380 1.356 . S
N388 H394 0.984 . S
N388 H395 0.984 . S
N389 C382 1.356 1_655 S
N389 H392 0.984 . S
N389 H393 0.985 . S
H390 N385 0.984 . S
H391 N385 0.985 . S
H392 N389 0.984 . S
H393 N389 0.985 . S
H394 N388 0.984 . S
H395 N388 0.984 . S
H396 N384 0.984 . S
H397 N384 0.985 . S
C398 C399 1.363 . S
C398 C404 1.379 . S
C398 N406 1.356 . S
C399 C398 1.363 . S
C399 C405 1.363 . S
C400 C401 1.363 . S
C400 C405 1.379 . S
C400 N407 1.356 . S
C401 C400 1.363 . S
C401 C404 1.363 . S
N402 C404 1.356 . S
N402 H414 0.984 . S
N402 H415 0.985 . S
N403 C405 1.356 . S
N403 H408 0.984 . S
N403 H409 0.985 . S
C404 C398 1.379 . S
C404 C401 1.363 . S
C404 N402 1.356 . S
C405 C399 1.363 . S
C405 C400 1.379 . S
C405 N403 1.356 . S
N406 C398 1.356 . S
N406 H412 0.984 . S
N406 H413 0.984 . S
N407 C400 1.356 . S
N407 H410 0.984 . S
N407 H411 0.985 . S
H408 N403 0.984 . S
H409 N403 0.985 . S
H410 N407 0.984 . S
H411 N407 0.985 . S
H412 N406 0.984 . S
H413 N406 0.984 . S
H414 N402 0.984 . S
H415 N402 0.985 . S
C416 C417 1.363 . S
C416 C422 1.379 . S
C416 N424 1.356 . S
C417 C416 1.363 . S
C417 C423 1.363 . S
C418 C419 1.363 . S
C418 C423 1.379 . S
C418 N425 1.356 . S
C419 C418 1.363 . S
C419 C422 1.363 . S
N420 C422 1.356 . S
N420 H432 0.984 . S
N420 H433 0.985 . S
N421 C423 1.356 . S
N421 H426 0.984 . S
N421 H427 0.985 1_455 S
C422 C416 1.379 . S
C422 C419 1.363 . S
C422 N420 1.356 . S
C423 C417 1.363 . S
C423 C418 1.379 . S
C423 N421 1.356 . S
N424 C416 1.356 . S
N424 H430 0.984 . S
N424 H431 0.984 . S
N425 C418 1.356 . S
N425 H428 0.984 . S
N425 H429 0.985 . S
H426 N421 0.984 . S
H427 N421 0.985 1_655 S
H428 N425 0.984 . S
H429 N425 0.985 . S
H430 N424 0.984 . S
H431 N424 0.984 . S
H432 N420 0.984 . S
H433 N420 0.985 . S
C434 C435 1.363 . S
C434 C440 1.379 . S
C434 N442 1.356 . S
C435 C434 1.363 . S
C435 C441 1.363 . S
C436 C437 1.363 . S
C436 C441 1.379 . S
C436 N443 1.356 . S
C437 C436 1.363 . S
C437 C440 1.363 . S
N438 C440 1.356 . S
N438 H450 0.984 . S
N438 H451 0.985 . S
N439 C441 1.356 . S
N439 H444 0.984 . S
N439 H445 0.985 . S
C440 C434 1.379 . S
C440 C437 1.363 . S
C440 N438 1.356 . S
C441 C435 1.363 . S
C441 C436 1.379 . S
C441 N439 1.356 . S
N442 C434 1.356 . S
N442 H448 0.984 . S
N442 H449 0.984 . S
N443 C436 1.356 . S
N443 H446 0.984 . S
N443 H447 0.985 . S
H444 N439 0.984 . S
H445 N439 0.985 . S
H446 N443 0.984 . S
H447 N443 0.985 . S
H448 N442 0.984 . S
H449 N442 0.984 . S
H450 N438 0.984 . S
H451 N438 0.985 . S
C452 C453 1.363 . S
C452 C458 1.379 . S
C452 N460 1.356 1_554 S
C453 C452 1.363 . S
C453 C459 1.363 . S
C454 C455 1.363 . S
C454 C459 1.379 . S
C454 N461 1.356 . S
C455 C454 1.363 . S
C455 C458 1.363 . S
N456 C458 1.356 . S
N456 H468 0.984 . S
N456 H469 0.985 . S
N457 C459 1.356 . S
N457 H462 0.958 1_554 S
N457 H463 0.985 . S
C458 C452 1.379 . S
C458 C455 1.363 . S
C458 N456 1.356 . S
C459 C453 1.363 . S
C459 C454 1.379 . S
C459 N457 1.356 . S
N460 C452 1.356 1_556 S
N460 H466 0.984 . S
N460 H467 0.984 . S
N461 C454 1.356 . S
N461 H464 0.984 . S
N461 H465 0.985 . S
H462 N457 0.958 1_556 S
H463 N457 0.985 . S
H464 N461 0.984 . S
H465 N461 0.985 . S
H466 N460 0.984 . S
H467 N460 0.984 . S
H468 N456 0.984 . S
H469 N456 0.985 . S
C470 C471 1.363 . S
C470 C476 1.379 . S
C470 N478 1.356 . S
C471 C470 1.363 . S
C471 C477 1.363 . S
C472 C473 1.363 . S
C472 C477 1.379 . S
C472 N479 1.356 . S
C473 C472 1.363 . S
C473 C476 1.363 . S
N474 C476 1.356 . S
N474 H486 0.984 . S
N474 H487 0.985 . S
N475 C477 1.356 . S
N475 H480 0.984 . S
N475 H481 0.985 . S
C476 C470 1.379 . S
C476 C473 1.363 . S
C476 N474 1.356 . S
C477 C471 1.363 . S
C477 C472 1.379 . S
C477 N475 1.356 . S
N478 C470 1.356 . S
N478 H484 0.984 . S
N478 H485 0.984 . S
N479 C472 1.356 . S
N479 H482 0.984 . S
N479 H483 0.985 . S
H480 N475 0.984 . S
H481 N475 0.985 . S
H482 N479 0.984 . S
H483 N479 0.985 . S
H484 N478 0.984 . S
H485 N478 0.984 . S
H486 N474 0.984 . S
H487 N474 0.985 . S
C488 C489 1.363 . S
C488 C494 1.379 . S
C488 N496 1.356 . S
C489 C488 1.363 . S
C489 C495 1.363 . S
C490 C491 1.363 . S
C490 C495 1.379 . S
C490 N497 1.356 . S
C491 C490 1.363 . S
C491 C494 1.363 . S
N492 C494 1.356 . S
N492 H504 0.984 . S
N492 H505 0.985 . S
N493 C495 1.356 . S
N493 H498 0.984 . S
N493 H499 0.985 . S
C494 C488 1.379 . S
C494 C491 1.363 . S
C494 N492 1.356 . S
C495 C489 1.363 . S
C495 C490 1.379 . S
C495 N493 1.356 . S
N496 C488 1.356 . S
N496 H502 0.984 . S
N496 H503 0.984 . S
N497 C490 1.356 . S
N497 H500 0.984 . S
N497 H501 0.985 . S
H498 N493 0.984 . S
H499 N493 0.985 . S
H500 N497 0.984 . S
H501 N497 0.985 . S
H502 N496 0.984 . S
H503 N496 0.984 . S
H504 N492 0.984 . S
H505 N492 0.985 . S
C506 C507 1.363 . S
C506 C512 1.379 . S
C506 N514 1.356 . S
C507 C506 1.363 . S
C507 C513 1.363 . S
C508 C509 1.363 . S
C508 C513 1.379 . S
C508 N515 1.356 . S
C509 C508 1.363 . S
C509 C512 1.363 . S
N510 C512 1.356 . S
N510 H522 0.984 . S
N510 H523 0.985 . S
N511 C513 1.356 . S
N511 H516 0.984 . S
N511 H517 0.985 . S
C512 C506 1.379 . S
C512 C509 1.363 . S
C512 N510 1.356 . S
C513 C507 1.363 . S
C513 C508 1.379 . S
C513 N511 1.356 . S
N514 C506 1.356 . S
N514 H520 0.984 . S
N514 H521 0.984 . S
N515 C508 1.356 . S
N515 H518 0.984 . S
N515 H519 0.985 . S
H516 N511 0.984 . S
H517 N511 0.985 . S
H518 N515 0.984 . S
H519 N515 0.985 . S
H520 N514 0.984 . S
H521 N514 0.984 . S
H522 N510 0.984 . S
H523 N510 0.985 . S
C524 C525 1.363 . S
C524 C530 1.379 . S
C524 N532 1.356 . S
C525 C524 1.363 . S
C525 C531 1.363 . S
C526 C527 1.363 . S
C526 C531 1.379 . S
C526 N533 1.356 . S
C527 C526 1.363 . S
C527 C530 1.363 . S
N528 C530 1.356 . S
N528 H540 0.984 . S
N528 H541 0.985 . S
N529 C531 1.356 . S
N529 H534 0.984 . S
N529 H535 0.985 . S
C530 C524 1.379 . S
C530 C527 1.363 . S
C530 N528 1.356 . S
C531 C525 1.363 . S
C531 C526 1.379 . S
C531 N529 1.356 . S
N532 C524 1.356 . S
N532 H538 0.984 . S
N532 H539 0.984 . S
N533 C526 1.356 . S
N533 H536 0.984 . S
N533 H537 0.985 . S
H534 N529 0.984 . S
H535 N529 0.985 . S
H536 N533 0.984 . S
H537 N533 0.985 . S
H538 N532 0.984 . S
H539 N532 0.984 . S
H540 N528 0.984 . S
H541 N528 0.985 . S
C542 C543 1.363 . S
C542 C548 1.379 . S
C542 N550 1.356 . S
C543 C542 1.363 . S
C543 C549 1.364 . S
C544 C545 1.363 . S
C544 C549 1.383 . S
C544 N551 1.356 . S
C545 C544 1.363 . S
C545 C548 1.363 . S
N546 C548 1.356 . S
N546 H558 0.984 . S
N546 H559 0.985 . S
N547 C549 1.350 1_554 S
N547 H552 0.984 . S
N547 H553 0.985 . S
C548 C542 1.379 . S
C548 C545 1.363 . S
C548 N546 1.356 . S
C549 C543 1.364 . S
C549 C544 1.383 . S
C549 N547 1.350 1_556 S
N550 C542 1.356 . S
N550 H556 0.984 . S
N550 H557 0.984 . S
N551 C544 1.356 . S
N551 H554 0.984 . S
N551 H555 0.985 . S
H552 N547 0.984 . S
H553 N547 0.985 . S
H554 N551 0.984 . S
H555 N551 0.985 . S
H556 N550 0.984 . S
H557 N550 0.984 . S
H558 N546 0.984 . S
H559 N546 0.985 . S
C560 C561 1.363 . S
C560 C566 1.379 . S
C560 N568 1.356 . S
C561 C560 1.363 . S
C561 C567 1.363 . S
C562 C563 1.363 . S
C562 C567 1.379 . S
C562 N569 1.356 . S
C563 C562 1.363 . S
C563 C566 1.363 . S
N564 C566 1.356 . S
N564 H576 0.984 . S
N564 H577 0.985 . S
N565 C567 1.356 . S
N565 H570 0.984 . S
N565 H571 0.985 . S
C566 C560 1.379 . S
C566 C563 1.363 . S
C566 N564 1.356 . S
C567 C561 1.363 . S
C567 C562 1.379 . S
C567 N565 1.356 . S
N568 C560 1.356 . S
N568 H574 0.984 1_565 S
N568 H575 0.984 . S
N569 C562 1.356 . S
N569 H572 0.984 . S
N569 H573 0.985 . S
H570 N565 0.984 . S
H571 N565 0.985 . S
H572 N569 0.984 . S
H573 N569 0.985 . S
H574 N568 0.984 1_545 S
H575 N568 0.984 . S
H576 N564 0.984 . S
H577 N564 0.985 . S
C578 C579 1.363 . S
C578 C584 1.379 1_545 S
C578 N586 1.356 . S
C579 C578 1.363 . S
C579 C585 1.363 . S
C580 C581 1.363 1_545 S
C580 C585 1.379 . S
C580 N587 1.356 . S
C581 C580 1.363 1_565 S
C581 C584 1.363 . S
N582 C584 1.356 . S
N582 H594 0.984 . S
N582 H595 0.985 . S
N583 C585 1.356 . S
N583 H588 0.984 . S
N583 H589 0.985 . S
C584 C578 1.379 1_565 S
C584 C581 1.363 . S
C584 N582 1.356 . S
C585 C579 1.363 . S
C585 C580 1.379 . S
C585 N583 1.356 . S
N586 C578 1.356 . S
N586 H592 0.984 1_545 S
N586 H593 0.984 . S
N587 C580 1.356 . S
N587 H590 0.984 1_545 S
N587 H591 0.985 . S
H588 N583 0.984 . S
H589 N583 0.985 . S
H590 N587 0.984 1_565 S
H591 N587 0.985 . S
H592 N586 0.984 1_565 S
H593 N586 0.984 . S
H594 N582 0.984 . S
H595 N582 0.985 . S
C596 C597 1.363 . S
C596 C602 1.379 . S
C596 N604 1.356 . S
C597 C596 1.363 . S
C597 C603 1.363 . S
C598 C599 1.363 . S
C598 C603 1.379 . S
C598 N605 1.356 . S
C599 C598 1.363 . S
C599 C602 1.363 . S
N600 C602 1.356 . S
N600 H612 0.984 . S
N600 H613 0.985 . S
N601 C603 1.356 . S
N601 H606 0.984 . S
N601 H607 0.985 . S
C602 C596 1.379 . S
C602 C599 1.363 . S
C602 N600 1.356 . S
C603 C597 1.363 . S
C603 C598 1.379 . S
C603 N601 1.356 . S
N604 C596 1.356 . S
N604 H610 0.984 . S
N604 H611 0.984 . S
N605 C598 1.356 . S
N605 H608 0.984 . S
N605 H609 0.985 . S
H606 N601 0.984 . S
H607 N601 0.985 . S
H608 N605 0.984 . S
H609 N605 0.985 . S
H610 N604 0.984 . S
H611 N604 0.984 . S
H612 N600 0.984 . S
H613 N600 0.985 . S
C614 C615 1.363 . S
C614 C620 1.379 1_545 S
C614 N622 1.356 . S
C615 C614 1.363 . S
C615 C621 1.363 . S
C616 C617 1.363 . S
C616 C621 1.379 1_565 S
C616 N623 1.356 . S
C617 C616 1.363 . S
C617 C620 1.363 . S
N618 C620 1.356 . S
N618 H630 0.984 . S
N618 H631 0.985 . S
N619 C621 1.356 . S
N619 H624 0.984 . S
N619 H625 0.985 . S
C620 C614 1.379 1_565 S
C620 C617 1.363 . S
C620 N618 1.356 . S
C621 C615 1.363 . S
C621 C616 1.379 1_545 S
C621 N619 1.356 . S
N622 C614 1.356 . S
N622 H628 0.984 . S
N622 H629 0.984 . S
N623 C616 1.356 . S
N623 H626 0.984 . S
N623 H627 0.985 . S
H624 N619 0.984 . S
H625 N619 0.985 . S
H626 N623 0.984 . S
H627 N623 0.985 . S
H628 N622 0.984 . S
H629 N622 0.984 . S
H630 N618 0.984 . S
H631 N618 0.985 . S
C632 C633 1.363 1_455 S
C632 C638 1.379 . S
C632 N640 1.356 . S
C633 C632 1.363 1_655 S
C633 C639 1.363 . S
C634 C635 1.363 . S
C634 C639 1.379 1_455 S
C634 N641 1.356 . S
C635 C634 1.363 . S
C635 C638 1.363 . S
N636 C638 1.356 . S
N636 H648 0.984 . S
N636 H649 0.985 . S
N637 C639 1.356 . S
N637 H642 0.984 . S
N637 H643 0.985 . S
C638 C632 1.379 . S
C638 C635 1.363 . S
C638 N636 1.356 . S
C639 C633 1.363 . S
C639 C634 1.379 1_655 S
C639 N637 1.356 . S
N640 C632 1.356 . S
N640 H646 0.984 . S
N640 H647 0.984 1_455 S
N641 C634 1.356 . S
N641 H644 0.984 . S
N641 H645 0.985 1_455 S
H642 N637 0.984 . S
H643 N637 0.985 . S
H644 N641 0.984 . S
H645 N641 0.985 1_655 S
H646 N640 0.984 . S
H647 N640 0.984 1_655 S
H648 N636 0.984 . S
H649 N636 0.985 . S
C650 C651 1.363 . S
C650 C656 1.379 . S
C650 N658 1.356 . S
C651 C650 1.363 . S
C651 C657 1.363 . S
C652 C653 1.363 . S
C652 C657 1.379 . S
C652 N659 1.356 . S
C653 C652 1.363 . S
C653 C656 1.363 . S
N654 C656 1.356 . S
N654 H666 0.984 1_655 S
N654 H667 0.985 . S
N655 C657 1.356 . S
N655 H660 0.984 . S
N655 H661 0.985 . S
C656 C650 1.379 . S
C656 C653 1.363 . S
C656 N654 1.356 . S
C657 C651 1.363 . S
C657 C652 1.379 . S
C657 N655 1.356 . S
N658 C650 1.356 . S
N658 H664 0.984 . S
N658 H665 0.984 . S
N659 C652 1.356 . S
N659 H662 0.984 . S
N659 H663 0.985 . S
H660 N655 0.984 . S
H661 N655 0.985 . S
H662 N659 0.984 . S
H663 N659 0.985 . S
H664 N658 0.984 . S
H665 N658 0.984 . S
H666 N654 0.984 1_455 S
H667 N654 0.985 . S
C668 C669 1.363 . S
C668 C674 1.379 . S
C668 N676 1.356 . S
C669 C668 1.363 . S
C669 C675 1.363 1_455 S
C670 C671 1.363 . S
C670 C675 1.379 . S
C670 N677 1.356 . S
C671 C670 1.363 . S
C671 C674 1.363 1_655 S
N672 C674 1.356 . S
N672 H684 0.984 . S
N672 H685 0.985 1_455 S
N673 C675 1.356 . S
N673 H678 0.984 1_655 S
N673 H679 0.985 . S
C674 C668 1.379 . S
C674 C671 1.363 1_455 S
C674 N672 1.356 . S
C675 C669 1.363 1_655 S
C675 C670 1.379 . S
C675 N673 1.356 . S
N676 C668 1.356 . S
N676 H682 0.984 . S
N676 H683 0.984 . S
N677 C670 1.356 . S
N677 H680 0.984 . S
N677 H681 0.985 . S
H678 N673 0.984 1_455 S
H679 N673 0.985 . S
H680 N677 0.984 . S
H681 N677 0.985 . S
H682 N676 0.984 . S
H683 N676 0.984 . S
H684 N672 0.984 . S
H685 N672 0.985 1_655 S
C686 C687 1.363 . S
C686 C692 1.379 . S
C686 N694 1.356 . S
C687 C686 1.363 . S
C687 C693 1.363 . S
C688 C689 1.363 . S
C688 C693 1.379 . S
C688 N695 1.356 . S
C689 C688 1.363 . S
C689 C692 1.363 . S
N690 C692 1.356 . S
N690 H702 0.984 . S
N690 H703 0.985 . S
N691 C693 1.356 . S
N691 H696 0.984 . S
N691 H697 0.985 . S
C692 C686 1.379 . S
C692 C689 1.363 . S
C692 N690 1.356 . S
C693 C687 1.363 . S
C693 C688 1.379 . S
C693 N691 1.356 . S
N694 C686 1.356 . S
N694 H700 0.984 . S
N694 H701 0.984 . S
N695 C688 1.356 . S
N695 H698 0.984 . S
N695 H699 0.985 . S
H696 N691 0.984 . S
H697 N691 0.985 . S
H698 N695 0.984 . S
H699 N695 0.985 . S
H700 N694 0.984 . S
H701 N694 0.984 . S
H702 N690 0.984 . S
H703 N690 0.985 . S
C704 C705 1.363 . S
C704 C710 1.379 . S
C704 N712 1.356 . S
C705 C704 1.363 . S
C705 C711 1.363 . S
C706 C707 1.363 . S
C706 C711 1.379 . S
C706 N713 1.356 . S
C707 C706 1.363 . S
C707 C710 1.363 . S
N708 C710 1.356 . S
N708 H720 0.984 . S
N708 H721 0.985 . S
N709 C711 1.356 . S
N709 H714 0.984 . S
N709 H715 0.985 . S
C710 C704 1.379 . S
C710 C707 1.363 . S
C710 N708 1.356 . S
C711 C705 1.363 . S
C711 C706 1.379 . S
C711 N709 1.356 . S
N712 C704 1.356 . S
N712 H718 0.984 . S
N712 H719 0.984 . S
N713 C706 1.356 . S
N713 H716 0.984 . S
N713 H717 0.985 . S
H714 N709 0.984 . S
H715 N709 0.985 . S
H716 N713 0.984 . S
H717 N713 0.985 . S
H718 N712 0.984 . S
H719 N712 0.984 . S
H720 N708 0.984 . S
H721 N708 0.985 . S
C722 C723 1.363 . S
C722 C728 1.379 . S
C722 N730 1.356 . S
C723 C722 1.363 . S
C723 C729 1.363 . S
C724 C725 1.363 . S
C724 C729 1.379 . S
C724 N731 1.356 . S
C725 C724 1.363 . S
C725 C728 1.363 . S
N726 C728 1.356 . S
N726 H738 0.984 . S
N726 H739 0.985 . S
N727 C729 1.356 1_545 S
N727 H732 0.984 . S
N727 H733 0.985 . S
C728 C722 1.379 . S
C728 C725 1.363 . S
C728 N726 1.356 . S
C729 C723 1.363 . S
C729 C724 1.379 . S
C729 N727 1.356 1_565 S
N730 C722 1.356 . S
N730 H736 0.984 . S
N730 H737 0.984 . S
N731 C724 1.356 . S
N731 H734 0.984 . S
N731 H735 0.985 1_565 S
H732 N727 0.984 . S
H733 N727 0.985 . S
H734 N731 0.984 . S
H735 N731 0.985 1_545 S
H736 N730 0.984 . S
H737 N730 0.984 . S
H738 N726 0.984 . S
H739 N726 0.985 . S
C740 C741 1.363 . S
C740 C746 1.379 1_554 S
C740 N748 1.356 . S
C741 C740 1.363 . S
C741 C747 1.363 . S
C742 C743 1.363 . S
C742 C747 1.379 1_556 S
C742 N749 1.356 . S
C743 C742 1.363 . S
C743 C746 1.363 . S
N744 C746 1.356 . S
N744 H756 0.984 . S
N744 H757 0.985 . S
N745 C747 1.356 . S
N745 H750 0.984 . S
N745 H751 0.985 . S
C746 C740 1.379 1_556 S
C746 C743 1.363 . S
C746 N744 1.356 . S
C747 C741 1.363 . S
C747 C742 1.379 1_554 S
C747 N745 1.356 . S
N748 C740 1.356 . S
N748 H754 0.984 . S
N748 H755 0.984 . S
N749 C742 1.356 . S
N749 H752 0.984 . S
N749 H753 0.985 . S
H750 N745 0.984 . S
H751 N745 0.985 . S
H752 N749 0.984 . S
H753 N749 0.985 . S
H754 N748 0.984 . S
H755 N748 0.984 . S
H756 N744 0.984 . S
H757 N744 0.985 . S
C758 C759 1.363 . S
C758 C764 1.379 . S
C758 N766 1.356 . S
C759 C758 1.363 . S
C759 C765 1.363 . S
C760 C761 1.363 . S
C760 C765 1.379 . S
C760 N767 1.356 1_545 S
C761 C760 1.363 . S
C761 C764 1.363 . S
N762 C764 1.356 . S
N762 H774 0.984 . S
N762 H775 0.985 . S
N763 C765 1.356 . S
N763 H768 0.984 . S
N763 H769 0.985 1_545 S
C764 C758 1.379 . S
C764 C761 1.363 . S
C764 N762 1.356 . S
C765 C759 1.363 . S
C765 C760 1.379 . S
C765 N763 1.356 . S
N766 C758 1.356 . S
N766 H772 0.984 . S
N766 H773 0.984 . S
N767 C760 1.356 1_565 S
N767 H770 0.984 . S
N767 H771 0.985 . S
H768 N763 0.984 . S
H769 N763 0.985 1_565 S
H770 N767 0.984 . S
H771 N767 0.985 . S
H772 N766 0.984 . S
H773 N766 0.984 . S
H774 N762 0.984 . S
H775 N762 0.985 . S
C273 C3 1.282 . S
C275 C158 1.429 . S
C291 C192 1.429 1_565 S
C293 C35 1.282 . S
C309 C226 1.428 . S
C311 C69 1.281 . S
C327 C103 1.281 . S
C329 C253 1.440 . S
C345 C15 1.429 1_655 S
C347 C137 1.282 . S
C363 C56 1.428 . S
C365 C171 1.281 . S
C381 C205 1.281 . S
C383 C90 1.440 . S
C399 C124 1.428 . S
C401 C241 1.281 . S
C417 C40 1.491 . S
C419 C6 1.533 . S
C435 C74 1.491 . S
C437 C62 1.533 . S
C453 C96 1.533 1_554 S
C455 C108 1.491 . S
C471 C130 1.533 . S
C473 C28 1.491 . S
C489 C266 1.491 . S
C491 C164 1.533 . S
C507 C198 1.533 . S
C509 C142 1.491 . S
C525 C232 1.533 . S
C527 C176 1.491 . S
C543 C244 1.533 1_556 S
C545 C210 1.491 . S
C561 C153 1.945 . S
C563 C22 1.663 . S
C579 C187 1.945 . S
C581 C49 1.663 . S
C597 C83 1.663 . S
C599 C221 1.945 . S
C615 C117 1.663 . S
C617 C255 1.945 . S
C633 C151 1.663 . S
C635 C17 1.945 . S
C651 C185 1.663 . S
C653 C51 1.945 . S
C669 C219 1.663 . S
C671 C85 1.945 . S
C687 C260 1.663 . S
C689 C119 1.945 . S
C705 C173 2.191 . S
C707 C1 2.191 . S
C723 C207 2.191 . S
C725 C37 2.191 . S
C741 C239 2.191 . S
C743 C71 2.191 . S
C759 C105 2.191 . S
C761 C139 2.191 . S
