# Generated by pormake.
# Topology ilc, (8)-cn, num edge types: 1
# Building blocks:
#     Node 0, Type 0, BuildingBlock: XADDAJ01_clean_sbu_3, # of connection points: 8
#     Node 1, Type 0, BuildingBlock: XADDAJ01_clean_sbu_3, # of connection points: 8
#     Node 2, Type 0, BuildingBlock: XADDAJ01_clean_sbu_3, # of connection points: 8
#     Edge 3, Type (0, 0), BuildingBlock: MIFKUJ_clean_linker_0, # of connection points: 2
#     Edge 4, Type (0, 0), BuildingBlock: MIFKUJ_clean_linker_0, # of connection points: 2
#     Edge 5, Type (0, 0), BuildingBlock: MIFKUJ_clean_linker_0, # of connection points: 2
#     Edge 6, Type (0, 0), BuildingBlock: MIFKUJ_clean_linker_0, # of connection points: 2
#     Edge 7, Type (0, 0), BuildingBlock: MIFKUJ_clean_linker_0, # of connection points: 2
#     Edge 8, Type (0, 0), BuildingBlock: MIFKUJ_clean_linker_0, # of connection points: 2
#     Edge 9, Type (0, 0), BuildingBlock: MIFKUJ_clean_linker_0, # of connection points: 2
#     Edge 10, Type (0, 0), BuildingBlock: MIFKUJ_clean_linker_0, # of connection points: 2
#     Edge 11, Type (0, 0), BuildingBlock: MIFKUJ_clean_linker_0, # of connection points: 2
#     Edge 12, Type (0, 0), BuildingBlock: MIFKUJ_clean_linker_0, # of connection points: 2
#     Edge 13, Type (0, 0), BuildingBlock: MIFKUJ_clean_linker_0, # of connection points: 2
#     Edge 14, Type (0, 0), BuildingBlock: MIFKUJ_clean_linker_0, # of connection points: 2
# Relax obj value: 0.142
# Max RMSD: 0.200
# Mean RMSD: 0.200
data_MOF--net-ilc--node1-XADDAJ01_clean_sbu_3--edge1-MIFKUJ_clean_linker_0
_symmetry_space_group_name_H-M    P1
_symmetry_Int_Tables_number       1
_symmetry_cell_setting            triclinic
loop_
_symmetry_equiv_pos_as_xyz
'x, y, z'
_cell_length_a     27.245965
_cell_length_b     37.979906
_cell_length_c     23.695991
_cell_angle_alpha  100.22008
_cell_angle_beta   78.182736
_cell_angle_gamma 139.42321
loop_
_atom_site_label
_atom_site_type_symbol
_atom_site_fract_x
_atom_site_fract_y
_atom_site_fract_z
_atom_type_partial_charge
C0 C 0.13041 0.01565 0.19899 0.0
C1 C 0.09147 0.01937 0.24374 0.0
C2 C 0.07667 1.00348 0.29972 0.0
C3 C 0.10307 0.98512 0.31051 0.0
C4 C 0.14193 0.9811 0.26692 0.0
C5 C 0.15614 0.99677 0.21089 0.0
O6 O 1.01585 0.01611 0.05004 0.0
Tb7 Tb 0.12095 0.07055 0.09067 0.0
Tb8 Tb 0.99897 0.97547 0.92441 0.0
O9 O 0.12278 0.12157 0.15211 0.0
O10 O 0.93158 0.93387 1.00482 0.0
O11 O 0.19399 0.07796 0.12492 0.0
C12 C 0.97118 0.01931 0.89682 0.0
O13 O 0.07448 1.00009 0.11972 0.0
O14 O 0.09894 0.02582 0.9685 0.0
O15 O 0.19316 0.10778 0.00808 0.0
C16 C 0.13802 0.02682 0.13907 0.0
C17 C 0.91436 0.86742 0.85925 0.0
O18 O 0.85859 0.84967 0.89879 0.0
C19 C 0.95695 0.9629 0.05346 0.0
C20 C 0.16321 0.07717 0.96083 0.0
O21 O 0.97989 0.91927 0.85904 0.0
C22 C 0.92971 0.00998 0.85384 0.0
C23 C 0.90122 0.04254 0.80328 0.0
C24 C 0.94307 0.05201 0.84218 0.0
C25 C 0.87448 0.95864 0.82606 0.0
C26 C 0.8312 0.94881 0.7883 0.0
C27 C 0.8449 0.991 0.77789 0.0
C28 C 0.18076 0.17467 0.14871 0.0
O29 O 0.23644 0.19594 0.10731 0.0
O30 O 0.92813 0.9818 0.93546 0.0
O31 O 0.0347 0.03542 0.87784 0.0
H32 H 0.07046 0.03281 0.2343 0.0
H33 H 0.08923 0.97034 0.35261 0.0
H34 H 0.1841 0.99219 0.1764 0.0
H35 H 0.98635 0.09184 0.86249 0.0
H36 H 0.86555 0.92666 0.83356 0.0
H37 H 0.81452 0.98484 0.74674 0.0
C38 C 0.79141 0.33326 0.49071 0.0
C39 C 0.8479 0.38542 0.51634 0.0
C40 C 0.89162 0.39637 0.55464 0.0
C41 C 0.87754 0.35444 0.56725 0.0
C42 C 0.82048 0.30221 0.54343 0.0
C43 C 0.77781 0.29159 0.5043 0.0
O44 O 0.62738 0.32358 0.37816 0.0
Tb45 Tb 0.72754 0.37086 0.41983 0.0
Tb46 Tb 0.59736 0.28023 0.25811 0.0
O47 O 0.75438 0.43118 0.48285 0.0
O48 O 0.52717 0.24312 0.34104 0.0
O49 O 0.79068 0.35779 0.40717 0.0
C50 C 0.58794 0.33166 0.21747 0.0
O51 O 0.68842 0.31107 0.46937 0.0
O52 O 0.70427 0.32859 0.29257 0.0
O53 O 0.79432 0.40991 0.33834 0.0
C54 C 0.74828 0.32286 0.44861 0.0
C55 C 0.59801 0.20146 0.19962 0.0
O56 O 0.62536 0.21197 0.24734 0.0
C57 C 0.56081 0.27335 0.38742 0.0
C58 C 0.76656 0.38158 0.28962 0.0
O59 O 0.58206 0.22538 0.19221 0.0
C60 C 0.59379 0.3436 0.15875 0.0
C61 C 0.57252 0.37315 0.0932 0.0
C62 C 0.56413 0.36013 0.14908 0.0
C63 C 0.63282 0.34124 0.1124 0.0
C64 C 0.64214 0.3549 0.05689 0.0
C65 C 0.61044 0.3696 0.04757 0.0
C66 C 0.8193 0.48294 0.47717 0.0
O67 O 0.87076 0.49808 0.43434 0.0
O68 O 0.52865 0.28078 0.23208 0.0
O69 O 0.6509 0.35421 0.23307 0.0
H70 H 0.85701 0.41712 0.50711 0.0
H71 H 0.90809 0.36133 0.59888 0.0
H72 H 0.73365 0.25117 0.48544 0.0
H73 H 0.53616 0.36385 0.18482 0.0
H74 H 0.65797 0.33037 0.11983 0.0
H75 H 0.61983 0.38208 1.00519 0.0
C76 C 0.47279 0.67433 0.78421 0.0
C77 C 0.44352 0.67948 0.8367 0.0
C78 C 0.4374 0.66207 0.88754 0.0
C79 C 0.45857 0.63794 0.88577 0.0
C80 C 0.48617 0.63107 0.8338 0.0
C81 C 0.49385 0.64964 0.7825 0.0
O82 O 0.32795 0.68673 0.76155 0.0
Tb83 Tb 0.43814 0.73151 0.71318 0.0
Tb84 Tb 0.28967 0.62549 0.6329 0.0
O85 O 0.48675 0.803 0.76732 0.0
O86 O 0.26406 0.60343 0.72105 0.0
O87 O 0.52371 0.74768 0.73703 0.0
C88 C 0.2367 0.65502 0.61671 0.0
O89 O 0.41901 0.66617 0.70932 0.0
O90 O 0.39949 0.67121 0.58338 0.0
O91 O 0.46948 0.75567 0.62476 0.0
C92 C 0.48189 0.69607 0.73245 0.0
C93 C 0.28145 0.54387 0.57236 0.0
O94 O 0.33965 0.57347 0.60167 0.0
C95 C 0.2718 0.63365 0.76444 0.0
C96 C 0.458 0.72424 0.58087 0.0
O97 O 0.24528 0.55518 0.57844 0.0
C98 C 0.22655 0.6667 0.56666 0.0
C99 C 0.20754 0.70955 0.5242 0.0
C100 C 0.22244 0.70221 0.57196 0.0
C101 C 0.21781 0.64025 0.51328 0.0
C102 C 0.20202 0.647 0.46632 0.0
C103 C 0.19658 0.68125 0.4723 0.0
C104 C 0.46856 0.826 0.76253 0.0
O105 O 0.42509 0.80681 0.72271 0.0
O106 O 0.19603 0.60412 0.62005 0.0
O107 O 0.3068 0.68927 0.62864 0.0
H108 H 0.42698 0.69816 0.83816 0.0
H109 H 0.45237 0.62351 0.92521 0.0
H110 H 0.51602 0.64513 0.74206 0.0
H111 H 0.22996 0.72334 0.61271 0.0
H112 H 0.22275 0.61407 0.50831 0.0
H113 H 0.18705 0.68798 0.43521 0.0
H114 H 0.6883 0.88677 0.76459 0.0
H115 H 0.65158 0.85072 0.66716 0.0
H116 H 0.82627 0.86348 0.6277 0.0
H117 H 0.86474 0.90122 0.72382 0.0
H118 H 0.77488 0.93636 0.60069 0.0
H119 H 0.80739 0.79934 0.50362 0.0
H120 H 0.74235 0.70861 0.51958 0.0
H121 H 0.54365 0.66165 0.60006 0.0
H122 H 0.60693 0.75176 0.58404 0.0
H123 H 0.08365 0.02198 0.41703 0.0
H124 H 0.97521 0.97915 0.48987 0.0
H125 H 0.84038 0.92776 0.3593 0.0
H126 H 0.94912 0.9705 0.286 0.0
H127 H 0.80188 0.84338 0.44724 0.0
H128 H 0.80048 0.96356 0.42487 0.0
H129 H 0.86012 0.05195 0.40535 0.0
H130 H 0.97273 0.12114 0.55835 0.0
H131 H 0.91345 0.03301 0.57905 0.0
C132 C 0.71574 0.87869 0.73621 0.0
C133 C 0.78189 0.89933 0.75051 0.0
C134 C 0.69459 0.85805 0.68044 0.0
C135 C 0.73797 0.85632 0.63958 0.0
C136 C 0.79235 0.86497 0.65833 0.0
C137 C 0.81445 0.88659 0.71372 0.0
C138 C 0.74779 0.86576 0.57824 0.0
C139 C 0.77733 0.9145 0.5665 0.0
C140 C 0.75036 0.83715 0.53328 0.0
C141 C 0.71208 0.78258 0.5424 0.0
C142 C 0.74957 0.7696 0.52416 0.0
C143 C 0.71305 0.71824 0.53343 0.0
C144 C 0.63893 0.67938 0.56076 0.0
C145 C 0.60111 0.69178 0.57892 0.0
C146 C 0.63736 0.74305 0.56984 0.0
C147 C 0.03127 1.00215 0.40373 0.0
C148 C 1.02327 0.9966 0.34501 0.0
C149 C 0.96939 0.97768 0.44536 0.0
C150 C 0.89906 0.94815 0.42905 0.0
C151 C 0.89351 0.94857 0.37193 0.0
C152 C 0.95585 0.97357 0.33035 0.0
C153 C 0.83187 0.91473 0.47216 0.0
C154 C 0.79359 0.86253 0.48052 0.0
C155 C 0.81872 0.93899 0.51348 0.0
C156 C 0.85293 0.99181 0.50315 0.0
C157 C 0.83817 0.99772 0.45424 0.0
C158 C 0.8717 0.0477 0.44313 0.0
C159 C 0.92028 0.09217 0.48068 0.0
C160 C 0.93477 0.08653 0.52965 0.0
C161 C 0.90107 0.03654 0.54116 0.0
H162 H 0.94653 0.13095 0.47197 0.0
H163 H 0.61085 0.63969 0.56792 0.0
H164 H 0.86105 0.44823 0.6103 0.0
H165 H 0.89341 0.48565 0.70753 0.0
H166 H 0.0609 0.49179 0.68327 0.0
H167 H 0.03201 0.45736 0.58425 0.0
H168 H 0.91062 0.39752 0.73892 0.0
H169 H 0.10886 0.58498 0.75672 0.0
H170 H 0.18943 0.67998 0.74281 0.0
H171 H 1.01101 0.65558 0.82918 0.0
H172 H 0.92881 0.56012 0.84331 0.0
H173 H 0.78593 0.41331 0.06407 0.0
H174 H 0.88393 0.44575 0.98355 0.0
H175 H 0.71638 0.35016 0.86423 0.0
H176 H 0.61822 0.3171 0.94466 0.0
H177 H 0.91967 0.50641 0.89709 0.0
H178 H 0.77303 0.3103 0.75234 0.0
H179 H 0.69377 0.21528 0.7659 0.0
H180 H 0.77694 0.25962 0.92916 0.0
H181 H 0.85529 0.35462 0.91714 0.0
C182 C 0.909 0.46154 0.62375 0.0
C183 C 0.94079 0.44677 0.5912 0.0
C184 C 0.92755 0.48302 0.67977 0.0
C185 C 0.97699 0.48901 0.7032 0.0
C186 C 1.02144 0.48636 0.6662 0.0
C187 C 1.00449 0.46641 0.6096 0.0
C188 C 0.95777 0.47522 0.76416 0.0
C189 C 0.9142 0.42181 0.77402 0.0
C190 C 0.96344 0.50735 0.80965 0.0
C191 C 1.01251 0.56501 0.80146 0.0
C192 C 0.08654 0.59965 0.77285 0.0
C193 C 0.13261 0.65371 0.76485 0.0
C194 C 0.10541 0.67385 0.7852 0.0
C195 C 0.0321 0.63995 0.81364 0.0
C196 C 0.9858 0.58583 0.82185 0.0
C197 C 0.76978 0.39751 0.02091 0.0
C198 C 0.69501 0.36285 0.01043 0.0
C199 C 0.8258 0.41668 0.9752 0.0
C200 C 0.80758 0.40084 0.91846 0.0
C201 C 0.73164 0.3629 0.90797 0.0
C202 C 0.6757 0.3441 0.95372 0.0
C203 C 0.86825 0.4277 0.8697 0.0
C204 C 0.91878 0.48307 0.8625 0.0
C205 C 0.86894 0.39743 0.82624 0.0
C206 C 0.82064 0.33987 0.83374 0.0
C207 C 0.77482 0.29992 0.79101 0.0
C208 C 0.72976 0.24596 0.79849 0.0
C209 C 0.73085 0.23149 0.84808 0.0
C210 C 0.77623 0.27084 0.89067 0.0
C211 C 0.82061 0.32468 0.88372 0.0
H212 H 0.69631 0.18979 0.85366 0.0
H213 H 0.14109 0.7157 0.77885 0.0
H214 H 0.30508 0.6284 0.91248 0.0
H215 H 0.24731 0.62585 0.00878 0.0
H216 H 0.44457 0.70361 0.08277 0.0
H217 H 0.50276 0.70758 0.9872 0.0
H218 H 0.20958 0.56725 0.09222 0.0
H219 H 0.47097 0.77613 0.2021 0.0
H220 H 0.57482 0.8731 0.18064 0.0
H221 H 0.45104 0.8422 0.05524 0.0
H222 H 0.34592 0.74509 0.07636 0.0
H223 H 0.30708 0.65515 0.40912 0.0
H224 H 0.3266 0.64647 0.30456 0.0
H225 H 0.11475 0.58218 0.28794 0.0
H226 H 0.09451 0.59027 0.39282 0.0
H227 H 0.33519 0.71177 0.24596 0.0
H228 H 0.06773 0.51395 0.14845 0.0
H229 H 0.95432 0.41704 0.17087 0.0
H230 H 0.0812 0.42837 0.2703 0.0
H231 H 0.1953 0.52503 0.24774 0.0
C232 C 0.33679 0.64663 0.94925 0.0
C233 C 0.40786 0.66802 0.94298 0.0
C234 C 0.30375 0.6448 1.00388 0.0
C235 C 0.34168 0.66449 0.05249 0.0
C236 C 0.4147 0.68877 0.04565 0.0
C237 C 0.44759 0.69058 0.99127 0.0
C238 C 0.30215 0.65332 0.11108 0.0
C239 C 0.23602 0.59898 0.12574 0.0
C240 C 0.3365 0.69473 0.15449 0.0
C241 C 0.40062 0.75307 0.14057 0.0
C242 C 0.46572 0.78994 0.17 0.0
C243 C 0.52488 0.84497 0.15787 0.0
C244 C 0.51961 0.86375 0.11649 0.0
C245 C 0.45519 0.82753 0.08708 0.0
C246 C 0.39589 0.77244 0.099 0.0
C247 C 0.26295 0.63669 0.38347 0.0
C248 C 0.19995 0.62414 0.40852 0.0
C249 C 0.27437 0.63212 0.32382 0.0
C250 C 0.22261 0.61453 0.28893 0.0
C251 C 0.15518 0.59585 0.31439 0.0
C252 C 0.14382 0.60057 0.37408 0.0
C253 C 0.24631 0.62581 0.22712 0.0
C254 C 0.3086 0.68029 0.21216 0.0
C255 C 0.20742 0.58469 0.18357 0.0
C256 C 0.13948 0.5267 0.19715 0.0
C257 C 0.07119 0.4956 0.17504 0.0
C258 C 1.00692 0.44085 0.18774 0.0
C259 C 1.01048 0.41673 0.22226 0.0
C260 C 0.07841 0.44723 0.24392 0.0
C261 C 0.14278 0.50199 0.23133 0.0
H262 H 0.96067 0.37435 0.23204 0.0
H263 H 0.56536 0.9064 0.1073 0.0
H264 H 0.32669 0.81928 0.51493 0.0
H265 H 0.32411 0.87341 0.47544 0.0
H266 H 0.08013 0.73652 0.48532 0.0
H267 H 0.08287 0.6827 0.52492 0.0
H268 H 0.14132 0.77121 0.3775 0.0
H269 H 0.1664 0.8522 0.56528 0.0
H270 H 0.22265 0.90132 0.65641 0.0
H271 H 0.43099 0.03939 0.56237 0.0
H272 H 0.37613 0.99096 0.47052 0.0
H273 H 0.04005 0.87733 0.29589 0.0
H274 H 0.06156 0.83836 0.34277 0.0
H275 H 0.30284 0.98708 0.32218 0.0
H276 H 0.28061 0.02691 0.27617 0.0
H277 H 0.2548 0.95198 0.43169 0.0
H278 H 0.22564 0.8689 0.24327 0.0
H279 H 0.16234 0.82115 0.15432 0.0
H280 H 0.95589 0.68645 0.2533 0.0
H281 H 1.01831 0.73339 0.34256 0.0
C282 C 0.27238 0.80183 0.51171 0.0
C283 C 0.2048 0.74714 0.5242 0.0
C284 C 0.27091 0.83257 0.48845 0.0
C285 C 0.20181 0.80897 0.47696 0.0
C286 C 0.13402 0.75563 0.49373 0.0
C287 C 0.13549 0.72512 0.51718 0.0
C288 C 0.20023 0.83682 0.44123 0.0
C289 C 0.16565 0.81055 0.38983 0.0
C290 C 0.23385 0.88891 0.45593 0.0
C291 C 0.26751 0.91768 0.51097 0.0
C292 C 0.22452 0.89279 0.56396 0.0
C293 C 0.25607 0.92057 0.61577 0.0
C294 C 0.33048 0.97331 0.61518 0.0
C295 C 0.37343 0.99847 0.56275 0.0
C296 C 0.34211 0.97091 0.51081 0.0
C297 C 0.09789 0.90115 0.29969 0.0
C298 C 0.15877 0.95475 0.28131 0.0
C299 C 0.11024 0.87891 0.32677 0.0
C300 C 0.18398 0.90942 0.33575 0.0
C301 C 0.24542 0.96259 0.31571 0.0
C302 C 0.23292 0.98507 0.28863 0.0
C303 C 0.19521 0.88601 0.36852 0.0
C304 C 0.23155 0.91301 0.41915 0.0
C305 C 0.16305 0.83444 0.35338 0.0
C306 C 0.12659 0.80478 0.29948 0.0
C307 C 0.16687 0.82905 0.24588 0.0
C308 C 0.13114 0.80212 0.19543 0.0
C309 C 0.05504 0.75086 0.19811 0.0
C310 C 1.01485 0.72612 0.25117 0.0
C311 C 0.05051 0.75275 0.30167 0.0
H312 H 0.02732 0.73029 0.15905 0.0
H313 H 0.35477 0.99475 0.65535 0.0
H314 H 0.377 0.54196 0.51695 0.0
H315 H 0.34911 0.47501 0.44544 0.0
H316 H 0.11557 0.38324 0.46139 0.0
H317 H 0.14382 0.45165 0.5318 0.0
H318 H 0.19833 0.34093 0.46584 0.0
H319 H 0.14789 0.41398 0.36189 0.0
H320 H 0.19383 0.49545 0.33428 0.0
H321 H 0.39972 0.55434 0.24912 0.0
H322 H 0.35662 0.47453 0.27918 0.0
H323 H 0.07836 0.14506 0.24224 0.0
H324 H 0.08734 0.20448 0.31367 0.0
H325 H 0.30124 0.34446 0.22398 0.0
H326 H 0.29214 0.2854 0.15213 0.0
H327 H 0.22439 0.36212 0.25752 0.0
H328 H 0.29386 0.3054 0.34425 0.0
H329 H 0.28812 0.24455 0.37806 0.0
H330 H 0.09279 0.17541 0.4966 0.0
H331 H 0.09514 0.23435 0.462 0.0
C332 C 0.3196 0.50755 0.50531 0.0
C333 C 0.26259 0.50215 0.52984 0.0
C334 C 0.30387 0.46937 0.46442 0.0
C335 C 0.23056 0.42448 0.44784 0.0
C336 C 0.17279 0.41802 0.47321 0.0
C337 C 0.18895 0.45706 0.51328 0.0
C338 C 0.21568 0.3851 0.40336 0.0
C339 C 0.20161 0.34429 0.42037 0.0
C340 C 0.22554 0.39223 0.34392 0.0
C341 C 0.24949 0.4387 0.32357 0.0
C342 C 0.20338 0.44464 0.33801 0.0
C343 C 0.2289 0.49052 0.32185 0.0
C344 C 0.29961 0.53005 0.28983 0.0
C345 C 0.345 0.52376 0.27399 0.0
C346 C 0.3202 0.47834 0.29083 0.0
C347 C 0.12715 0.18847 0.23755 0.0
C348 C 0.18463 0.21037 0.19148 0.0
C349 C 0.13235 0.22247 0.27857 0.0
C350 C 0.1953 0.27913 0.27466 0.0
C351 C 0.25198 0.30098 0.22803 0.0
C352 C 0.24683 0.26705 0.18704 0.0
C353 C 0.20308 0.31561 0.31988 0.0
C354 C 0.21795 0.35695 0.30301 0.0
C355 C 0.19722 0.3104 0.37942 0.0
C356 C 0.19386 0.27369 0.39969 0.0
C357 C 0.24869 0.27652 0.37679 0.0
C358 C 0.24601 0.24234 0.39611 0.0
C359 C 0.18949 0.20569 0.43905 0.0
C360 C 0.1357 0.20328 0.46282 0.0
C361 C 0.13759 0.237 0.44329 0.0
H362 H 0.18768 0.17942 0.4542 0.0
H363 H 0.31919 0.5655 0.27727 0.0
H364 H 0.58337 0.83174 0.55508 0.0
H365 H 0.67058 0.86964 0.46615 0.0
H366 H 0.5448 0.7087 0.39888 0.0
H367 H 0.45795 0.67062 0.48738 0.0
H368 H 0.6924 0.77591 0.37207 0.0
H369 H 0.51734 0.77254 0.35772 0.0
H370 H 0.44534 0.79023 0.38863 0.0
H371 H 0.65338 0.96158 0.38639 0.0
H372 H 0.72664 0.94488 0.3556 0.0
H373 H 0.85123 0.85596 0.07628 0.0
H374 H 0.76515 0.81071 0.16477 0.0
H375 H 0.87126 0.96469 0.24256 0.0
H376 H 0.95821 0.01001 0.15501 0.0
H377 H 0.72746 0.89445 0.26217 0.0
H378 H 0.89938 0.88757 0.26173 0.0
H379 H 0.95763 0.85962 0.23034 0.0
H380 H 0.73899 0.69298 0.25182 0.0
H381 H 0.67903 0.7201 0.28287 0.0
C382 C 0.57442 0.80446 0.52146 0.0
C383 C 0.51295 0.74812 0.52812 0.0
C384 C 0.62434 0.82616 0.47062 0.0
C385 C 0.61376 0.79195 0.42554 0.0
C386 C 0.55409 0.73589 0.43298 0.0
C387 C 0.50408 0.71419 0.48357 0.0
C388 C 0.66252 0.81416 0.36956 0.0
C389 C 0.69978 0.80147 0.34753 0.0
C390 C 0.67147 0.84715 0.33764 0.0
C391 C 0.6276 0.85745 0.35539 0.0
C392 C 0.5478 0.814 0.36429 0.0
C393 C 0.50672 0.82384 0.38161 0.0
C394 C 0.54478 0.877 0.38977 0.0
C395 C 0.62398 0.92042 0.38026 0.0
C396 C 0.66532 0.91078 0.36283 0.0
C397 C 0.85724 0.88024 0.11286 0.0
C398 C 0.91223 0.93665 0.10911 0.0
C399 C 0.80797 0.85431 0.16341 0.0
C400 C 0.8128 0.88435 0.2111 0.0
C401 C 0.86726 0.94064 0.20687 0.0
C402 C 0.91744 0.96667 0.15693 0.0
C403 C 0.75983 0.85771 0.26484 0.0
C404 C 0.72076 0.86909 0.2864 0.0
C405 C 0.74785 0.82224 0.29528 0.0
C406 C 0.78449 0.8062 0.27486 0.0
C407 C 0.86343 0.84509 0.25992 0.0
C408 C 0.89688 0.82929 0.24199 0.0
C409 C 0.85208 0.77451 0.23912 0.0
C410 C 0.77369 0.73544 0.25402 0.0
C411 C 0.73997 0.75108 0.27179 0.0
H412 H 0.87809 0.76235 0.22534 0.0
H413 H 0.5129 0.88456 0.40325 0.0
H414 H 0.76 0.26173 0.64982 0.0
H415 H 0.77373 0.21666 0.69483 0.0
H416 H 0.8667 0.2065 0.53101 0.0
H417 H 0.85382 0.2524 0.48572 0.0
H418 H 0.76826 0.11353 0.6023 0.0
H419 H 0.98408 0.30925 0.61697 0.0
H420 H 0.04676 0.40112 0.64276 0.0
H421 H 0.95682 0.35842 0.81989 0.0
H422 H 0.8918 0.26575 0.79503 0.0
H423 H 0.96297 0.0852 0.69813 0.0
H424 H 0.94879 0.13066 0.65495 0.0
H425 H 0.85404 0.13798 0.81955 0.0
H426 H 0.86733 0.09162 0.86321 0.0
H427 H 0.95049 0.23136 0.74955 0.0
H428 H 0.74376 0.04187 0.7431 0.0
H429 H 0.66504 0.94593 0.72504 0.0
H430 H 0.71462 0.96774 0.54247 0.0
H431 H 0.79664 0.06482 0.5592 0.0
C432 C 0.78044 0.24785 0.62301 0.0
C433 C 0.80507 0.25983 0.56425 0.0
C434 C 0.78893 0.22267 0.64886 0.0
C435 C 0.82224 0.20908 0.6165 0.0
C436 C 0.84098 0.21682 0.55673 0.0
C437 C 0.83294 0.24246 0.53077 0.0
C438 C 0.8435 0.19145 0.64617 0.0
C439 C 0.80946 0.13954 0.63344 0.0
C440 C 0.89433 0.2248 0.68904 0.0
C441 C 0.93275 0.2804 0.70403 0.0
C442 C 0.97701 0.31923 0.66134 0.0
C443 C 1.01301 0.37147 0.67582 0.0
C444 C 1.00591 0.38557 0.73298 0.0
C445 C 0.96232 0.34738 0.7757 0.0
C446 C 0.92582 0.29498 0.76143 0.0
C447 C 0.94204 0.09854 0.72558 0.0
C448 C 0.91693 0.08554 0.78406 0.0
C449 C 0.93307 0.12378 0.70067 0.0
C450 C 0.89908 0.13659 0.73367 0.0
C451 C 0.88037 0.12828 0.79336 0.0
C452 C 0.88859 0.10233 0.81837 0.0
C453 C 0.87693 0.15376 0.70449 0.0
C454 C 0.91035 0.20547 0.71761 0.0
C455 C 0.82419 0.1196 0.66277 0.0
C456 C 0.7786 0.06163 0.65249 0.0
C457 C 0.74007 0.02702 0.699 0.0
C458 C 0.69428 0.97213 0.68902 0.0
C459 C 0.68512 0.95085 0.63266 0.0
C460 C 0.7222 0.98445 0.58614 0.0
C461 C 0.76872 0.03953 0.59587 0.0
H462 H 0.64911 0.90826 0.62508 0.0
H463 H 0.03416 0.42608 0.7442 0.0
H464 H 0.71792 0.46542 0.56143 0.0
H465 H 0.73617 0.5331 0.62238 0.0
H466 H 0.96556 0.66023 0.54186 0.0
H467 H 0.94824 0.59292 0.48063 0.0
H468 H 0.95895 0.67509 0.65697 0.0
H469 H 0.82867 0.63442 0.50708 0.0
H470 H 0.7284 0.57979 0.44275 0.0
H471 H 0.56698 0.53262 0.58812 0.0
H472 H 0.6661 0.58647 0.65346 0.0
H473 H 1.02028 0.89107 0.77482 0.0
H474 H 1.00688 0.82787 0.70783 0.0
H475 H 0.77523 0.69443 0.78171 0.0
H476 H 0.78783 0.75744 0.84849 0.0
H477 H 0.78805 0.68663 0.6655 0.0
H478 H 0.9195 0.72281 0.81525 0.0
H479 H 1.02215 0.7788 0.87772 0.0
H480 H 0.18444 0.83761 0.72854 0.0
H481 H 0.08304 0.78284 0.66505 0.0
C482 C 0.77246 0.50778 0.55673 0.0
C483 C 0.83162 0.52377 0.51604 0.0
C484 C 0.78257 0.54642 0.59137 0.0
C485 C 0.85202 0.60177 0.58605 0.0
C486 C 0.91159 0.61776 0.54635 0.0
C487 C 0.90149 0.57921 0.51145 0.0
C488 C 0.86316 0.64298 0.62278 0.0
C489 C 0.92215 0.67807 0.65827 0.0
C490 C 0.81452 0.64641 0.62488 0.0
C491 C 0.75455 0.61344 0.58549 0.0
C492 C 0.77156 0.61169 0.52554 0.0
C493 C 0.71497 0.58108 0.48879 0.0
C494 C 0.64123 0.55244 0.51135 0.0
C495 C 0.62401 0.55455 0.5707 0.0
C496 C 0.68037 0.58507 0.60761 0.0
C497 C 0.96637 0.84829 0.77679 0.0
C498 C 0.9052 0.82927 0.81722 0.0
C499 C 0.95899 0.81219 0.73863 0.0
C500 C 0.89045 0.75636 0.74032 0.0
C501 C 0.82878 0.73735 0.77982 0.0
C502 C 0.8361 0.77343 0.81802 0.0
C503 C 0.88256 0.71771 0.70054 0.0
C504 C 0.82458 0.68341 0.66419 0.0
C505 C 0.93241 0.71525 0.69727 0.0
C506 C 0.99373 0.7492 0.73539 0.0
C507 C 0.97721 0.7482 0.79573 0.0
C508 C 0.03517 0.77965 0.83132 0.0
C509 C 0.10981 0.81192 0.8071 0.0
C510 C 0.12665 0.81277 0.74722 0.0
C511 C 0.06897 0.78156 0.71142 0.0
H512 H 0.15456 0.83612 0.83474 0.0
H513 H 0.59754 0.52884 0.48282 0.0
H514 H 0.46407 0.1711 0.42538 0.0
H515 H 0.40038 0.13849 0.52303 0.0
H516 H 0.50637 0.29697 0.57915 0.0
H517 H 0.57535 0.33046 0.48335 0.0
H518 H 0.50088 0.26304 0.66137 0.0
H519 H 0.30148 0.17131 0.54093 0.0
H520 H 0.22908 0.11356 0.45743 0.0
H521 H 0.16897 0.9831 0.51709 0.0
H522 H 0.24102 0.04006 0.6008 0.0
H523 H 0.25892 0.17981 0.92416 0.0
H524 H 0.32344 0.21373 0.82692 0.0
H525 H 0.22202 0.05687 0.76895 0.0
H526 H 0.1528 0.02212 0.86432 0.0
H527 H 0.22474 0.09069 0.68771 0.0
H528 H 0.42511 0.18348 0.80834 0.0
H529 H 0.49795 0.24186 0.89139 0.0
H530 H 0.5562 0.3713 0.83101 0.0
H531 H 0.48336 0.31357 0.74783 0.0
C532 C 0.47417 0.19893 0.4589 0.0
C533 C 0.52447 0.25324 0.44675 0.0
C534 C 0.43688 0.18014 0.51472 0.0
C535 C 0.44587 0.21452 0.55885 0.0
C536 C 0.49759 0.26916 0.54651 0.0
C537 C 0.53707 0.28838 0.49149 0.0
C538 C 0.4019 0.19424 0.61766 0.0
C539 C 0.44026 0.22561 0.66681 0.0
C540 C 0.32282 0.14487 0.62591 0.0
C541 C 0.27704 0.11006 0.57684 0.0
C542 C 0.2727 0.13028 0.53622 0.0
C543 C 0.23177 0.0977 0.48887 0.0
C544 C 0.19472 0.04478 0.48188 0.0
C545 C 0.19773 0.0241 0.52255 0.0
C546 C 0.23839 0.05644 0.57003 0.0
C547 C 0.2501 0.15263 0.89037 0.0
C548 C 0.20095 0.09837 0.90191 0.0
C549 C 0.28778 0.17217 0.83476 0.0
C550 C 0.28004 0.13858 0.79017 0.0
C551 C 0.22972 0.08406 0.80194 0.0
C552 C 0.19011 0.06412 0.85677 0.0
C553 C 0.32378 0.15941 0.73139 0.0
C554 C 0.28534 0.12816 0.68223 0.0
C555 C 0.40272 0.20899 0.72313 0.0
C556 C 0.4484 0.2441 0.77216 0.0
C557 C 0.45349 0.2244 0.81283 0.0
C558 C 0.49477 0.25738 0.85991 0.0
C559 C 0.53156 0.31023 0.86652 0.0
C560 C 0.52768 0.33037 0.82583 0.0
C561 C 0.48657 0.29759 0.77867 0.0
H562 H 0.56304 0.33562 0.90316 0.0
H563 H 0.16374 0.01977 0.44494 0.0
H564 H 0.65496 0.47838 0.10325 0.0
H565 H 0.63675 0.52026 0.05743 0.0
H566 H 0.42414 0.36188 1.00511 0.0
H567 H 0.44422 0.32033 0.04942 0.0
H568 H 0.50157 0.42081 0.91717 0.0
H569 H 0.43904 0.44999 0.10833 0.0
H570 H 0.4517 0.47944 0.21095 0.0
H571 H 0.6577 0.6441 0.16399 0.0
H572 H 0.64705 0.61553 0.06111 0.0
H573 H 0.39325 0.52341 0.82158 0.0
H574 H 0.40756 0.47663 0.86162 0.0
H575 H 0.63313 0.63074 0.8999 0.0
H576 H 0.61831 0.67733 0.86015 0.0
H577 H 0.54474 0.57176 0.99503 0.0
H578 H 0.60178 0.53681 0.80071 0.0
H579 H 0.58066 0.50222 0.69969 0.0
H580 H 0.37053 0.34222 0.75631 0.0
H581 H 0.39013 0.37566 0.85769 0.0
C582 C 0.60297 0.45257 0.08392 0.0
C583 C 0.55004 0.39614 0.08104 0.0
C584 C 0.5926 0.47649 0.05745 0.0
C585 C 0.52869 0.44442 0.02787 0.0
C586 C 0.47393 0.38769 0.02752 0.0
C587 C 0.48476 0.36383 0.05352 0.0
C588 C 0.52284 0.47013 0.99287 0.0
C589 C 0.50967 0.45318 0.93468 0.0
C590 C 0.53504 0.5133 0.01487 0.0
C591 C 0.54263 0.53048 0.0769 0.0
C592 C 0.48753 0.4924 0.11986 0.0
C593 C 0.49425 0.50896 0.17812 0.0
C594 C 0.55558 0.56359 0.19402 0.0
C595 C 0.61033 0.60177 0.15167 0.0
C596 C 0.60395 0.58541 0.09335 0.0
C597 C 0.44725 0.54704 0.83581 0.0
C598 C 0.50536 0.6039 0.83653 0.0
C599 C 0.45523 0.52032 0.85923 0.0
C600 C 0.52139 0.55003 0.88409 0.0
C601 C 0.58151 0.60682 0.8811 0.0
C602 C 0.57354 0.63347 0.8576 0.0
C603 C 0.52421 0.52273 0.91941 0.0
C604 C 0.53662 0.53935 0.97772 0.0
C605 C 0.50982 0.47858 0.89785 0.0
C606 C 0.497 0.45891 0.8368 0.0
C607 C 0.55061 0.49439 0.79162 0.0
C608 C 0.53904 0.47497 0.73429 0.0
C609 C 0.47412 0.42023 0.72157 0.0
C610 C 0.42069 0.38466 0.76619 0.0
C611 C 0.43207 0.40379 0.82359 0.0
H612 H 0.4654 0.40534 0.67714 0.0
H613 H 0.56058 0.57637 0.23913 0.0
H614 H 0.43481 0.87809 0.76488 0.0
H615 H 0.45926 0.94278 0.83763 0.0
H616 H 0.57569 0.93741 0.92796 0.0
H617 H 0.54994 0.87144 0.85546 0.0
H618 H 0.47821 0.9278 1.00151 0.0
H619 H 0.68244 0.0624 0.85489 0.0
H620 H 0.73751 0.10329 0.76002 0.0
H621 H 0.56693 0.09078 0.76259 0.0
H622 H 0.51209 0.05153 0.85904 0.0
H623 H 0.63396 0.15056 0.19753 0.0
H624 H 0.61149 0.08672 0.12392 0.0
H625 H 0.50622 0.09883 0.0282 0.0
H626 H 0.53033 0.16372 0.10083 0.0
H627 H 0.59544 0.10363 0.95758 0.0
H628 H 0.40704 0.9886 0.10854 0.0
H629 H 0.35095 0.95318 0.20632 0.0
H630 H 0.47159 0.91941 0.19513 0.0
H631 H 0.5313 0.95702 0.09809 0.0
C632 C 0.46642 0.89103 0.7998 0.0
C633 C 0.49023 0.86932 0.80425 0.0
C634 C 0.48088 0.9285 0.84134 0.0
C635 C 0.52022 0.94576 0.88821 0.0
C636 C 0.54536 0.92492 0.89222 0.0
C637 C 0.53078 0.88727 0.85062 0.0
C638 C 0.53102 0.98292 0.93459 0.0
C639 C 0.50513 0.96674 0.99212 0.0
C640 C 0.56246 0.0325 0.92237 0.0
C641 C 0.59259 0.05329 0.8635 0.0
C642 C 0.6562 0.06783 0.83493 0.0
C643 C 0.68759 0.09096 0.78097 0.0
C644 C 0.65521 0.09883 0.75462 0.0
C645 C 0.59168 0.08427 0.78275 0.0
C646 C 0.56074 0.06199 0.83728 0.0
C647 C 0.6059 0.13959 0.16085 0.0
C648 C 0.58399 0.16235 0.15514 0.0
C649 C 0.59259 0.10271 0.11891 0.0
C650 C 0.55619 0.0872 0.07064 0.0
C651 C 0.53433 0.10997 0.06494 0.0
C652 C 0.54811 0.14711 0.10662 0.0
C653 C 0.54364 0.04906 0.0249 0.0
C654 C 0.56874 0.06484 0.96741 0.0
C655 C 0.50969 0.99855 0.03731 0.0
C656 C 0.47467 0.97649 0.09615 0.0
C657 C 0.42263 0.97443 0.12716 0.0
C658 C 0.38998 0.95381 0.1825 0.0
C659 C 0.40754 0.93394 0.20697 0.0
C660 C 0.45815 0.93494 0.1762 0.0
C661 C 0.4917 0.95614 0.12108 0.0
H662 H 0.38183 0.91772 0.24972 0.0
H663 H 0.67953 0.11643 0.71262 0.0
H664 H 0.28034 0.68277 0.86748 0.0
H665 H 0.19252 0.64002 0.95499 0.0
H666 H 0.04628 0.48352 0.86617 0.0
H667 H 0.13635 0.52603 0.77921 0.0
H668 H 0.06167 0.58978 0.98909 0.0
H669 H 0.94475 0.38023 0.96457 0.0
H670 H 0.9848 0.34132 0.91506 0.0
H671 H 0.21846 0.49883 0.91296 0.0
H672 H 0.17932 0.53831 0.96248 0.0
H673 H 0.74254 0.33434 0.18085 0.0
H674 H 0.82739 0.37859 0.09172 0.0
H675 H 0.98267 0.53209 0.18538 0.0
H676 H 0.89754 0.48889 0.27341 0.0
H677 H 0.96389 0.42866 0.06155 0.0
H678 H 0.07662 0.62204 0.12838 0.0
H679 H 0.04226 0.66448 0.18005 0.0
H680 H 0.83372 0.54657 0.10214 0.0
H681 H 0.86796 0.50452 0.04961 0.0
C682 C 0.2297 0.63922 0.86658 0.0
C683 C 0.21634 0.60772 0.81675 0.0
C684 C 0.17915 0.6147 0.91673 0.0
C685 C 0.11359 0.55816 0.91814 0.0
C686 C 0.0979 0.52692 0.86725 0.0
C687 C 0.14935 0.55132 0.81737 0.0
C688 C 0.06247 0.53246 0.97301 0.0
C689 C 0.04136 0.55496 1.00503 0.0
C690 C 0.03478 0.48653 0.9942 0.0
C691 C 0.05897 0.46271 0.96564 0.0
C692 C 1.00457 0.40668 0.95304 0.0
C693 C 0.02711 0.38439 0.92519 0.0
C694 C 0.10411 0.41763 0.91034 0.0
C695 C 0.15873 0.47312 0.92394 0.0
C696 C 0.13635 0.49549 0.95182 0.0
C697 C 0.79372 0.37779 0.18201 0.0
C698 C 0.81238 0.40817 0.23406 0.0
C699 C 0.8425 0.40311 0.13107 0.0
C700 C 0.91018 0.45942 0.13087 0.0
C701 C 0.92896 0.48947 0.1831 0.0
C702 C 0.88037 0.46434 0.23386 0.0
C703 C 0.96322 0.48588 0.07696 0.0
C704 C 0.98466 0.46352 0.04524 0.0
C705 C 0.99312 0.53279 0.05673 0.0
C706 C 0.9731 0.55866 0.08711 0.0
C707 C 0.02331 0.60514 0.12262 0.0
C708 C 1.004 0.62926 0.15192 0.0
C709 C 0.93532 0.60781 0.14495 0.0
C710 C 0.88631 0.56264 0.10823 0.0
C711 C 0.90536 0.53836 0.07906 0.0
H712 H 0.92018 0.62633 0.16755 0.0
H713 H 0.12146 0.40033 0.88866 0.0
loop_
_geom_bond_atom_site_label_1
_geom_bond_atom_site_label_2
_geom_bond_distance
_geom_bond_site_symmetry_2
_ccdc_geom_bond_type
C0 C1 1.386 . S
C0 C5 1.384 1_545 S
C0 C16 1.497 . S
C1 C0 1.386 . S
C1 C2 1.393 1_545 S
C1 H32 0.932 . S
C2 C1 1.393 1_565 S
C2 C3 1.387 . S
C3 C2 1.387 . S
C3 C4 1.392 . S
C3 H33 0.930 . S
C4 C3 1.392 . S
C4 C5 1.402 . S
C5 C0 1.384 1_565 S
C5 C4 1.402 . S
C5 H34 0.930 . S
O6 Tb7 2.288 1_655 S
O6 C19 1.257 1_545 S
Tb7 O6 2.288 1_455 S
Tb7 O9 2.303 . S
Tb7 O11 2.430 . S
Tb7 O13 2.459 . S
Tb7 O15 2.301 1_554 S
Tb7 C16 2.808 . S
Tb8 O10 2.301 1_556 S
Tb8 C12 2.808 . S
Tb8 O14 2.288 1_655 S
Tb8 O21 2.303 . S
Tb8 O30 2.430 . S
Tb8 O31 2.459 . S
O9 Tb7 2.303 . S
O9 C28 1.255 . S
O10 Tb8 2.301 1_554 S
O10 C19 1.237 . S
O11 Tb7 2.430 . S
O11 C16 1.248 . S
C12 Tb8 2.808 . S
C12 C22 1.497 . S
C12 O30 1.248 . S
C12 O31 1.260 . S
O13 Tb7 2.459 . S
O13 C16 1.260 . S
O14 Tb8 2.288 1_455 S
O14 C20 1.257 1_565 S
O15 Tb7 2.301 1_556 S
O15 C20 1.237 . S
C16 C0 1.497 . S
C16 Tb7 2.808 . S
C16 O11 1.248 . S
C16 O13 1.260 . S
C17 O18 1.255 . S
C17 O21 1.255 . S
O18 C17 1.255 . S
C19 O6 1.257 1_565 S
C19 O10 1.237 . S
C20 O14 1.257 1_545 S
C20 O15 1.237 . S
O21 Tb8 2.303 . S
O21 C17 1.255 . S
C22 C12 1.497 . S
C22 C24 1.384 1_565 S
C22 C25 1.386 . S
C23 C24 1.402 . S
C23 C27 1.392 . S
C24 C22 1.384 1_545 S
C24 C23 1.402 . S
C24 H35 0.930 . S
C25 C22 1.386 . S
C25 C26 1.393 1_565 S
C25 H36 0.932 . S
C26 C25 1.393 1_545 S
C26 C27 1.387 . S
C27 C23 1.392 . S
C27 C26 1.387 . S
C27 H37 0.930 . S
C28 O9 1.255 . S
C28 O29 1.255 . S
O29 C28 1.255 . S
O30 Tb8 2.430 . S
O30 C12 1.248 . S
O31 Tb8 2.459 . S
O31 C12 1.260 . S
H32 C1 0.932 . S
H33 C3 0.930 . S
H34 C5 0.930 . S
H35 C24 0.930 . S
H36 C25 0.932 . S
H37 C27 0.930 . S
C38 C39 1.386 . S
C38 C43 1.384 . S
C38 C54 1.497 . S
C39 C38 1.386 . S
C39 C40 1.393 . S
C39 H70 0.932 . S
C40 C39 1.393 . S
C40 C41 1.387 . S
C41 C40 1.387 . S
C41 C42 1.392 . S
C41 H71 0.930 . S
C42 C41 1.392 . S
C42 C43 1.402 . S
C43 C38 1.384 . S
C43 C42 1.402 . S
C43 H72 0.930 . S
O44 Tb45 2.288 . S
O44 C57 1.257 . S
Tb45 O44 2.288 . S
Tb45 O47 2.303 . S
Tb45 O49 2.430 . S
Tb45 O51 2.459 . S
Tb45 O53 2.301 . S
Tb45 C54 2.808 . S
Tb46 O48 2.301 . S
Tb46 C50 2.808 . S
Tb46 O52 2.288 . S
Tb46 O59 2.303 . S
Tb46 O68 2.430 . S
Tb46 O69 2.459 . S
O47 Tb45 2.303 . S
O47 C66 1.255 . S
O48 Tb46 2.301 . S
O48 C57 1.237 . S
O49 Tb45 2.430 . S
O49 C54 1.248 . S
C50 Tb46 2.808 . S
C50 C60 1.497 . S
C50 O68 1.248 . S
C50 O69 1.260 . S
O51 Tb45 2.459 . S
O51 C54 1.260 . S
O52 Tb46 2.288 . S
O52 C58 1.257 . S
O53 Tb45 2.301 . S
O53 C58 1.237 . S
C54 C38 1.497 . S
C54 Tb45 2.808 . S
C54 O49 1.248 . S
C54 O51 1.260 . S
C55 O56 1.255 . S
C55 O59 1.255 . S
O56 C55 1.255 . S
C57 O44 1.257 . S
C57 O48 1.237 . S
C58 O52 1.257 . S
C58 O53 1.237 . S
O59 Tb46 2.303 . S
O59 C55 1.255 . S
C60 C50 1.497 . S
C60 C62 1.384 . S
C60 C63 1.386 . S
C61 C62 1.402 . S
C61 C65 1.392 . S
C62 C60 1.384 . S
C62 C61 1.402 . S
C62 H73 0.930 . S
C63 C60 1.386 . S
C63 C64 1.393 . S
C63 H74 0.932 . S
C64 C63 1.393 . S
C64 C65 1.387 . S
C65 C61 1.392 . S
C65 C64 1.387 . S
C65 H75 0.930 . S
C66 O47 1.255 . S
C66 O67 1.255 . S
O67 C66 1.255 . S
O68 Tb46 2.430 . S
O68 C50 1.248 . S
O69 Tb46 2.459 . S
O69 C50 1.260 . S
H70 C39 0.932 . S
H71 C41 0.930 . S
H72 C43 0.930 . S
H73 C62 0.930 . S
H74 C63 0.932 . S
H75 C65 0.930 . S
C76 C77 1.386 . S
C76 C81 1.384 . S
C76 C92 1.497 . S
C77 C76 1.386 . S
C77 C78 1.393 . S
C77 H108 0.932 . S
C78 C77 1.393 . S
C78 C79 1.387 . S
C79 C78 1.387 . S
C79 C80 1.392 . S
C79 H109 0.930 . S
C80 C79 1.392 . S
C80 C81 1.402 . S
C81 C76 1.384 . S
C81 C80 1.402 . S
C81 H110 0.930 . S
O82 Tb83 2.288 . S
O82 C95 1.257 . S
Tb83 O82 2.288 . S
Tb83 O85 2.303 . S
Tb83 O87 2.430 . S
Tb83 O89 2.459 . S
Tb83 O91 2.301 . S
Tb83 C92 2.808 . S
Tb84 O86 2.301 . S
Tb84 C88 2.808 . S
Tb84 O90 2.288 . S
Tb84 O97 2.303 . S
Tb84 O106 2.430 . S
Tb84 O107 2.459 . S
O85 Tb83 2.303 . S
O85 C104 1.255 . S
O86 Tb84 2.301 . S
O86 C95 1.237 . S
O87 Tb83 2.430 . S
O87 C92 1.248 . S
C88 Tb84 2.808 . S
C88 C98 1.497 . S
C88 O106 1.248 . S
C88 O107 1.260 . S
O89 Tb83 2.459 . S
O89 C92 1.260 . S
O90 Tb84 2.288 . S
O90 C96 1.257 . S
O91 Tb83 2.301 . S
O91 C96 1.237 . S
C92 C76 1.497 . S
C92 Tb83 2.808 . S
C92 O87 1.248 . S
C92 O89 1.260 . S
C93 O94 1.255 . S
C93 O97 1.255 . S
O94 C93 1.255 . S
C95 O82 1.257 . S
C95 O86 1.237 . S
C96 O90 1.257 . S
C96 O91 1.237 . S
O97 Tb84 2.303 . S
O97 C93 1.255 . S
C98 C88 1.497 . S
C98 C100 1.384 . S
C98 C101 1.386 . S
C99 C100 1.402 . S
C99 C103 1.392 . S
C100 C98 1.384 . S
C100 C99 1.402 . S
C100 H111 0.930 . S
C101 C98 1.386 . S
C101 C102 1.393 . S
C101 H112 0.932 . S
C102 C101 1.393 . S
C102 C103 1.387 . S
C103 C99 1.392 . S
C103 C102 1.387 . S
C103 H113 0.930 . S
C104 O85 1.255 . S
C104 O105 1.255 . S
O105 C104 1.255 . S
O106 Tb84 2.430 . S
O106 C88 1.248 . S
O107 Tb84 2.459 . S
O107 C88 1.260 . S
H108 C77 0.932 . S
H109 C79 0.930 . S
H110 C81 0.930 . S
H111 C100 0.930 . S
H112 C101 0.932 . S
H113 C103 0.930 . S
H114 C132 0.951 . S
H115 C134 0.951 . S
H116 C136 0.950 1_455 S
H117 C137 0.954 1_455 S
H118 C139 0.950 . S
H119 C142 0.950 1_545 S
H120 C143 0.950 . S
H121 C145 0.950 . S
H122 C146 0.950 . S
H123 C147 0.951 . S
H124 C149 0.951 . S
H125 C151 0.950 1_655 S
H126 C152 0.953 1_655 S
H127 C154 0.950 . S
H128 C157 0.950 1_565 S
H129 C158 0.950 . S
H130 C160 0.950 . S
H131 C161 0.950 . S
C132 H114 0.951 . S
C132 C133 1.366 1_565 S
C132 C134 1.388 . S
C133 C132 1.366 1_545 S
C133 C137 1.385 . S
C134 H115 0.951 . S
C134 C132 1.388 . S
C134 C135 1.366 1_565 S
C135 C134 1.366 1_545 S
C135 C136 1.414 . S
C135 C138 1.499 . S
C136 H116 0.950 1_655 S
C136 C135 1.414 . S
C136 C137 1.374 . S
C137 H117 0.954 1_655 S
C137 C133 1.385 . S
C137 C136 1.374 . S
C138 C135 1.499 . S
C138 C139 1.373 . S
C138 C140 1.389 1_545 S
C139 H118 0.950 . S
C139 C138 1.373 . S
C139 C155 1.377 1_655 S
C140 C138 1.389 1_565 S
C140 C141 1.524 . S
C140 C154 1.377 1_655 S
C141 C140 1.524 . S
C141 C142 1.397 1_655 S
C141 C146 1.363 . S
C142 H119 0.950 1_565 S
C142 C141 1.397 1_455 S
C142 C143 1.334 . S
C143 H120 0.950 . S
C143 C142 1.334 . S
C143 C144 1.287 . S
C144 C143 1.287 . S
C144 C145 1.524 1_455 S
C144 H163 0.913 . S
C145 H121 0.950 . S
C145 C144 1.524 1_655 S
C145 C146 1.415 . S
C146 H122 0.950 . S
C146 C141 1.363 . S
C146 C145 1.415 . S
C147 H123 0.951 . S
C147 C148 1.366 1_545 S
C147 C149 1.388 . S
C148 C147 1.366 1_565 S
C148 C152 1.385 . S
C149 H124 0.951 . S
C149 C147 1.388 . S
C149 C150 1.366 1_545 S
C150 C149 1.366 1_565 S
C150 C151 1.414 . S
C150 C153 1.499 . S
C151 H125 0.950 1_455 S
C151 C150 1.414 . S
C151 C152 1.374 . S
C152 H126 0.953 1_455 S
C152 C148 1.385 . S
C152 C151 1.374 . S
C153 C150 1.499 . S
C153 C154 1.373 . S
C153 C155 1.389 1_565 S
C154 H127 0.950 . S
C154 C140 1.377 1_455 S
C154 C153 1.373 . S
C155 C139 1.377 1_455 S
C155 C153 1.389 1_545 S
C155 C156 1.524 . S
C156 C155 1.524 . S
C156 C157 1.397 1_455 S
C156 C161 1.363 . S
C157 H128 0.950 1_545 S
C157 C156 1.397 1_655 S
C157 C158 1.334 . S
C158 H129 0.950 . S
C158 C157 1.334 . S
C158 C159 1.287 . S
C159 C158 1.287 . S
C159 C160 1.524 1_655 S
C159 H162 0.999 . S
C160 H130 0.950 . S
C160 C159 1.524 1_455 S
C160 C161 1.415 . S
C161 H131 0.950 . S
C161 C156 1.363 . S
C161 C160 1.415 . S
H162 C159 0.999 . S
H163 C144 0.913 . S
H164 C182 0.951 . S
H165 C184 0.951 . S
H166 C186 0.950 . S
H167 C187 0.950 . S
H168 C189 0.950 . S
H169 C192 0.950 . S
H170 C193 0.950 . S
H171 C195 0.950 . S
H172 C196 0.950 . S
H173 C197 0.951 . S
H174 C199 0.951 . S
H175 C201 0.950 . S
H176 C202 0.950 . S
H177 C204 0.950 . S
H178 C207 0.950 . S
H179 C208 0.941 1_554 S
H180 C210 0.950 . S
H181 C211 0.950 . S
C182 H164 0.951 . S
C182 C183 1.366 . S
C182 C184 1.388 . S
C183 C182 1.366 . S
C183 C187 1.385 . S
C184 H165 0.951 . S
C184 C182 1.388 . S
C184 C185 1.366 . S
C185 C184 1.366 . S
C185 C186 1.414 . S
C185 C188 1.499 . S
C186 H166 0.950 . S
C186 C185 1.414 . S
C186 C187 1.374 . S
C187 H167 0.950 . S
C187 C183 1.385 . S
C187 C186 1.374 . S
C188 C185 1.499 . S
C188 C189 1.373 . S
C188 C190 1.389 . S
C189 H168 0.950 . S
C189 C188 1.373 . S
C189 C205 1.377 . S
C190 C188 1.389 . S
C190 C191 1.524 . S
C190 C204 1.377 . S
C191 C190 1.524 . S
C191 C192 1.397 . S
C191 C196 1.363 . S
C192 H169 0.950 . S
C192 C191 1.397 . S
C192 C193 1.334 . S
C193 H170 0.950 . S
C193 C192 1.334 . S
C193 C194 1.287 . S
C194 C193 1.287 . S
C194 C195 1.524 . S
C194 H213 0.913 . S
C195 H171 0.950 . S
C195 C194 1.524 . S
C195 C196 1.415 . S
C196 H172 0.950 . S
C196 C191 1.363 . S
C196 C195 1.415 . S
C197 H173 0.951 . S
C197 C198 1.366 . S
C197 C199 1.388 1_554 S
C198 C197 1.366 . S
C198 C202 1.385 . S
C199 H174 0.951 . S
C199 C197 1.388 1_556 S
C199 C200 1.366 . S
C200 C199 1.366 . S
C200 C201 1.414 . S
C200 C203 1.499 . S
C201 H175 0.950 . S
C201 C200 1.414 . S
C201 C202 1.374 1_556 S
C202 H176 0.950 . S
C202 C198 1.385 . S
C202 C201 1.374 1_554 S
C203 C200 1.499 . S
C203 C204 1.373 . S
C203 C205 1.389 . S
C204 H177 0.950 . S
C204 C190 1.377 . S
C204 C203 1.373 . S
C205 C189 1.377 . S
C205 C203 1.389 . S
C205 C206 1.524 . S
C206 C205 1.524 . S
C206 C207 1.397 . S
C206 C211 1.363 . S
C207 H178 0.950 . S
C207 C206 1.397 . S
C207 C208 1.334 . S
C208 H179 0.941 1_556 S
C208 C207 1.334 . S
C208 C209 1.287 . S
C209 C208 1.287 . S
C209 C210 1.524 . S
C209 H212 1.005 . S
C210 H180 0.950 . S
C210 C209 1.524 . S
C210 C211 1.415 . S
C211 H181 0.950 . S
C211 C206 1.363 . S
C211 C210 1.415 . S
H212 C209 1.005 . S
H213 C194 0.913 . S
H214 C232 0.951 . S
H215 C234 0.951 . S
H216 C236 0.950 . S
H217 C237 0.950 . S
H218 C239 0.950 . S
H219 C242 0.950 . S
H220 C243 0.950 . S
H221 C245 0.950 . S
H222 C246 0.950 . S
H223 C247 0.951 . S
H224 C249 0.951 . S
H225 C251 0.950 . S
H226 C252 0.950 . S
H227 C254 0.950 . S
H228 C257 0.950 . S
H229 C258 0.950 . S
H230 C260 0.950 . S
H231 C261 0.950 . S
C232 H214 0.951 . S
C232 C233 1.366 . S
C232 C234 1.388 1_556 S
C233 C232 1.366 . S
C233 C237 1.385 . S
C234 H215 0.951 . S
C234 C232 1.388 1_554 S
C234 C235 1.366 . S
C235 C234 1.366 . S
C235 C236 1.414 . S
C235 C238 1.499 . S
C236 H216 0.950 . S
C236 C235 1.414 . S
C236 C237 1.374 1_554 S
C237 H217 0.950 . S
C237 C233 1.385 . S
C237 C236 1.374 1_556 S
C238 C235 1.499 . S
C238 C239 1.373 . S
C238 C240 1.389 . S
C239 H218 0.950 . S
C239 C238 1.373 . S
C239 C255 1.377 . S
C240 C238 1.389 . S
C240 C241 1.524 . S
C240 C254 1.377 . S
C241 C240 1.524 . S
C241 C242 1.397 . S
C241 C246 1.363 . S
C242 H219 0.950 . S
C242 C241 1.397 . S
C242 C243 1.334 . S
C243 H220 0.950 . S
C243 C242 1.334 . S
C243 C244 1.287 . S
C244 C243 1.287 . S
C244 C245 1.524 . S
C244 H263 0.913 . S
C245 H221 0.950 . S
C245 C244 1.524 . S
C245 C246 1.415 . S
C246 H222 0.950 . S
C246 C241 1.363 . S
C246 C245 1.415 . S
C247 H223 0.951 . S
C247 C248 1.366 . S
C247 C249 1.388 . S
C248 C247 1.366 . S
C248 C252 1.385 . S
C249 H224 0.951 . S
C249 C247 1.388 . S
C249 C250 1.366 . S
C250 C249 1.366 . S
C250 C251 1.414 . S
C250 C253 1.499 . S
C251 H225 0.950 . S
C251 C250 1.414 . S
C251 C252 1.374 . S
C252 H226 0.950 . S
C252 C248 1.385 . S
C252 C251 1.374 . S
C253 C250 1.499 . S
C253 C254 1.373 . S
C253 C255 1.389 . S
C254 H227 0.950 . S
C254 C240 1.377 . S
C254 C253 1.373 . S
C255 C239 1.377 . S
C255 C253 1.389 . S
C255 C256 1.524 . S
C256 C255 1.524 . S
C256 C257 1.397 . S
C256 C261 1.363 . S
C257 H228 0.950 . S
C257 C256 1.397 . S
C257 C258 1.334 . S
C258 H229 0.950 . S
C258 C257 1.334 . S
C258 C259 1.287 . S
C259 C258 1.287 . S
C259 C260 1.524 . S
C259 H262 0.999 . S
C260 H230 0.950 . S
C260 C259 1.524 . S
C260 C261 1.415 . S
C261 H231 0.950 . S
C261 C256 1.363 . S
C261 C260 1.415 . S
H262 C259 0.999 . S
H263 C244 0.913 . S
H264 C282 0.951 . S
H265 C284 0.951 . S
H266 C286 0.950 . S
H267 C287 0.950 . S
H268 C289 0.950 . S
H269 C292 0.950 . S
H270 C293 0.950 . S
H271 C295 0.950 1_545 S
H272 C296 0.950 . S
H273 C297 0.951 1_655 S
H274 C299 0.951 . S
H275 C301 0.950 . S
H276 C302 0.950 . S
H277 C304 0.950 . S
H278 C307 0.950 . S
H279 C308 0.950 . S
H280 C310 0.950 . S
H281 C311 0.950 . S
C282 H264 0.951 . S
C282 C283 1.366 . S
C282 C284 1.388 . S
C283 C282 1.366 . S
C283 C287 1.385 . S
C284 H265 0.951 . S
C284 C282 1.388 . S
C284 C285 1.366 . S
C285 C284 1.366 . S
C285 C286 1.414 . S
C285 C288 1.499 . S
C286 H266 0.950 . S
C286 C285 1.414 . S
C286 C287 1.374 . S
C287 H267 0.950 . S
C287 C283 1.385 . S
C287 C286 1.374 . S
C288 C285 1.499 . S
C288 C289 1.373 . S
C288 C290 1.389 . S
C289 H268 0.950 . S
C289 C288 1.373 . S
C289 C305 1.377 . S
C290 C288 1.389 . S
C290 C291 1.524 . S
C290 C304 1.377 . S
C291 C290 1.524 . S
C291 C292 1.397 . S
C291 C296 1.363 . S
C292 H269 0.950 . S
C292 C291 1.397 . S
C292 C293 1.334 . S
C293 H270 0.950 . S
C293 C292 1.334 . S
C293 C294 1.287 . S
C294 C293 1.287 . S
C294 C295 1.524 . S
C294 H313 0.913 . S
C295 H271 0.950 1_565 S
C295 C294 1.524 . S
C295 C296 1.415 . S
C296 H272 0.950 . S
C296 C291 1.363 . S
C296 C295 1.415 . S
C297 H273 0.951 1_455 S
C297 C298 1.366 . S
C297 C299 1.388 . S
C298 C297 1.366 . S
C298 C302 1.385 . S
C299 H274 0.951 . S
C299 C297 1.388 . S
C299 C300 1.366 . S
C300 C299 1.366 . S
C300 C301 1.414 . S
C300 C303 1.499 . S
C301 H275 0.950 . S
C301 C300 1.414 . S
C301 C302 1.374 . S
C302 H276 0.950 . S
C302 C298 1.385 . S
C302 C301 1.374 . S
C303 C300 1.499 . S
C303 C304 1.373 . S
C303 C305 1.389 . S
C304 H277 0.950 . S
C304 C290 1.377 . S
C304 C303 1.373 . S
C305 C289 1.377 . S
C305 C303 1.389 . S
C305 C306 1.524 . S
C306 C305 1.524 . S
C306 C307 1.397 . S
C306 C311 1.363 . S
C307 H278 0.950 . S
C307 C306 1.397 . S
C307 C308 1.334 . S
C308 H279 0.950 . S
C308 C307 1.334 . S
C308 C309 1.287 . S
C309 C308 1.287 . S
C309 C310 1.524 1_455 S
C309 H312 0.999 . S
C310 H280 0.950 . S
C310 C309 1.524 1_655 S
C310 C311 1.414 1_655 S
C311 H281 0.950 . S
C311 C306 1.363 . S
C311 C310 1.414 1_455 S
H312 C309 0.999 . S
H313 C294 0.913 . S
H314 C332 0.951 . S
H315 C334 0.951 . S
H316 C336 0.950 . S
H317 C337 0.950 . S
H318 C339 0.950 . S
H319 C342 0.950 . S
H320 C343 0.950 . S
H321 C345 0.950 . S
H322 C346 0.950 . S
H323 C347 0.951 1_655 S
H324 C349 0.951 . S
H325 C351 0.950 . S
H326 C352 0.950 . S
H327 C354 0.950 . S
H328 C357 0.950 . S
H329 C358 0.950 . S
H330 C360 0.950 1_655 S
H331 C361 0.950 . S
C332 H314 0.951 . S
C332 C333 1.366 . S
C332 C334 1.388 . S
C333 C332 1.366 . S
C333 C337 1.385 . S
C334 H315 0.951 . S
C334 C332 1.388 . S
C334 C335 1.366 . S
C335 C334 1.366 . S
C335 C336 1.414 . S
C335 C338 1.499 . S
C336 H316 0.950 . S
C336 C335 1.414 . S
C336 C337 1.374 . S
C337 H317 0.950 . S
C337 C333 1.385 . S
C337 C336 1.374 . S
C338 C335 1.499 . S
C338 C339 1.373 . S
C338 C340 1.389 . S
C339 H318 0.950 . S
C339 C338 1.373 . S
C339 C355 1.377 . S
C340 C338 1.389 . S
C340 C341 1.524 . S
C340 C354 1.377 . S
C341 C340 1.524 . S
C341 C342 1.397 . S
C341 C346 1.363 . S
C342 H319 0.950 . S
C342 C341 1.397 . S
C342 C343 1.334 . S
C343 H320 0.950 . S
C343 C342 1.334 . S
C343 C344 1.287 . S
C344 C343 1.287 . S
C344 C345 1.524 . S
C344 H363 0.913 . S
C345 H321 0.950 . S
C345 C344 1.524 . S
C345 C346 1.415 . S
C346 H322 0.950 . S
C346 C341 1.363 . S
C346 C345 1.415 . S
C347 H323 0.951 1_455 S
C347 C348 1.366 . S
C347 C349 1.388 . S
C348 C347 1.366 . S
C348 C352 1.385 . S
C349 H324 0.951 . S
C349 C347 1.388 . S
C349 C350 1.366 . S
C350 C349 1.366 . S
C350 C351 1.414 . S
C350 C353 1.499 . S
C351 H325 0.950 . S
C351 C350 1.414 . S
C351 C352 1.374 . S
C352 H326 0.950 . S
C352 C348 1.385 . S
C352 C351 1.374 . S
C353 C350 1.499 . S
C353 C354 1.373 . S
C353 C355 1.389 . S
C354 H327 0.950 . S
C354 C340 1.377 . S
C354 C353 1.373 . S
C355 C339 1.377 . S
C355 C353 1.389 . S
C355 C356 1.524 . S
C356 C355 1.524 . S
C356 C357 1.397 . S
C356 C361 1.363 . S
C357 H328 0.950 . S
C357 C356 1.397 . S
C357 C358 1.334 . S
C358 H329 0.950 . S
C358 C357 1.334 . S
C358 C359 1.287 . S
C359 C358 1.287 . S
C359 C360 1.524 . S
C359 H362 0.999 . S
C360 H330 0.950 1_455 S
C360 C359 1.524 . S
C360 C361 1.415 . S
C361 H331 0.950 . S
C361 C356 1.363 . S
C361 C360 1.415 . S
H362 C359 0.999 . S
H363 C344 0.913 . S
H364 C382 0.951 . S
H365 C384 0.951 . S
H366 C386 0.950 . S
H367 C387 0.950 . S
H368 C389 0.950 . S
H369 C392 0.950 . S
H370 C393 0.950 . S
H371 C395 0.950 . S
H372 C396 0.950 . S
H373 C397 0.951 . S
H374 C399 0.951 . S
H375 C401 0.950 . S
H376 C402 0.950 1_545 S
H377 C404 0.950 . S
H378 C407 0.950 . S
H379 C408 0.950 . S
H380 C410 0.950 . S
H381 C411 0.950 . S
C382 H364 0.951 . S
C382 C383 1.366 . S
C382 C384 1.388 . S
C383 C382 1.366 . S
C383 C387 1.385 . S
C384 H365 0.951 . S
C384 C382 1.388 . S
C384 C385 1.366 . S
C385 C384 1.366 . S
C385 C386 1.414 . S
C385 C388 1.499 . S
C386 H366 0.950 . S
C386 C385 1.414 . S
C386 C387 1.374 . S
C387 H367 0.950 . S
C387 C383 1.385 . S
C387 C386 1.374 . S
C388 C385 1.499 . S
C388 C389 1.373 . S
C388 C390 1.389 . S
C389 H368 0.950 . S
C389 C388 1.373 . S
C389 C405 1.377 . S
C390 C388 1.389 . S
C390 C391 1.524 . S
C390 C404 1.377 . S
C391 C390 1.524 . S
C391 C392 1.397 . S
C391 C396 1.363 . S
C392 H369 0.950 . S
C392 C391 1.397 . S
C392 C393 1.334 . S
C393 H370 0.950 . S
C393 C392 1.334 . S
C393 C394 1.287 . S
C394 C393 1.287 . S
C394 C395 1.524 . S
C394 H413 0.913 . S
C395 H371 0.950 . S
C395 C394 1.524 . S
C395 C396 1.415 . S
C396 H372 0.950 . S
C396 C391 1.363 . S
C396 C395 1.415 . S
C397 H373 0.951 . S
C397 C398 1.366 . S
C397 C399 1.388 . S
C398 C397 1.366 . S
C398 C402 1.385 . S
C399 H374 0.951 . S
C399 C397 1.388 . S
C399 C400 1.366 . S
C400 C399 1.366 . S
C400 C401 1.414 . S
C400 C403 1.499 . S
C401 H375 0.950 . S
C401 C400 1.414 . S
C401 C402 1.374 . S
C402 H376 0.950 1_565 S
C402 C398 1.385 . S
C402 C401 1.374 . S
C403 C400 1.499 . S
C403 C404 1.373 . S
C403 C405 1.389 . S
C404 H377 0.950 . S
C404 C390 1.377 . S
C404 C403 1.373 . S
C405 C389 1.377 . S
C405 C403 1.389 . S
C405 C406 1.524 . S
C406 C405 1.524 . S
C406 C407 1.397 . S
C406 C411 1.363 . S
C407 H378 0.950 . S
C407 C406 1.397 . S
C407 C408 1.334 . S
C408 H379 0.950 . S
C408 C407 1.334 . S
C408 C409 1.287 . S
C409 C408 1.287 . S
C409 C410 1.524 . S
C409 H412 0.999 . S
C410 H380 0.950 . S
C410 C409 1.524 . S
C410 C411 1.415 . S
C411 H381 0.950 . S
C411 C406 1.363 . S
C411 C410 1.415 . S
H412 C409 0.999 . S
H413 C394 0.913 . S
H414 C432 0.951 . S
H415 C434 0.951 . S
H416 C436 0.950 . S
H417 C437 0.950 . S
H418 C439 0.950 . S
H419 C442 0.950 . S
H420 C443 0.950 . S
H421 C445 0.950 . S
H422 C446 0.950 . S
H423 C447 0.951 . S
H424 C449 0.951 . S
H425 C451 0.950 . S
H426 C452 0.950 . S
H427 C454 0.950 . S
H428 C457 0.950 . S
H429 C458 0.950 1_565 S
H430 C460 0.950 . S
H431 C461 0.950 . S
C432 H414 0.951 . S
C432 C433 1.366 . S
C432 C434 1.388 . S
C433 C432 1.366 . S
C433 C437 1.385 . S
C434 H415 0.951 . S
C434 C432 1.388 . S
C434 C435 1.366 . S
C435 C434 1.366 . S
C435 C436 1.414 . S
C435 C438 1.499 . S
C436 H416 0.950 . S
C436 C435 1.414 . S
C436 C437 1.374 . S
C437 H417 0.950 . S
C437 C433 1.385 . S
C437 C436 1.374 . S
C438 C435 1.499 . S
C438 C439 1.373 . S
C438 C440 1.389 . S
C439 H418 0.950 . S
C439 C438 1.373 . S
C439 C455 1.377 . S
C440 C438 1.389 . S
C440 C441 1.524 . S
C440 C454 1.377 . S
C441 C440 1.524 . S
C441 C442 1.397 . S
C441 C446 1.363 . S
C442 H419 0.950 . S
C442 C441 1.397 . S
C442 C443 1.334 . S
C443 H420 0.950 . S
C443 C442 1.334 . S
C443 C444 1.287 . S
C444 C443 1.287 . S
C444 C445 1.524 . S
C444 H463 0.913 . S
C445 H421 0.950 . S
C445 C444 1.524 . S
C445 C446 1.415 . S
C446 H422 0.950 . S
C446 C441 1.363 . S
C446 C445 1.415 . S
C447 H423 0.951 . S
C447 C448 1.366 . S
C447 C449 1.388 . S
C448 C447 1.366 . S
C448 C452 1.385 . S
C449 H424 0.951 . S
C449 C447 1.388 . S
C449 C450 1.366 . S
C450 C449 1.366 . S
C450 C451 1.414 . S
C450 C453 1.499 . S
C451 H425 0.950 . S
C451 C450 1.414 . S
C451 C452 1.374 . S
C452 H426 0.950 . S
C452 C448 1.385 . S
C452 C451 1.374 . S
C453 C450 1.499 . S
C453 C454 1.373 . S
C453 C455 1.389 . S
C454 H427 0.950 . S
C454 C440 1.377 . S
C454 C453 1.373 . S
C455 C439 1.377 . S
C455 C453 1.389 . S
C455 C456 1.524 . S
C456 C455 1.524 . S
C456 C457 1.397 . S
C456 C461 1.363 . S
C457 H428 0.950 . S
C457 C456 1.397 . S
C457 C458 1.334 . S
C458 H429 0.950 1_545 S
C458 C457 1.334 . S
C458 C459 1.287 . S
C459 C458 1.287 . S
C459 C460 1.524 . S
C459 H462 0.999 1_545 S
C460 H430 0.950 . S
C460 C459 1.524 . S
C460 C461 1.415 . S
C461 H431 0.950 . S
C461 C456 1.363 . S
C461 C460 1.415 . S
H462 C459 0.999 1_565 S
H463 C444 0.913 . S
H464 C482 0.951 . S
H465 C484 0.951 . S
H466 C486 0.950 . S
H467 C487 0.950 . S
H468 C489 0.950 . S
H469 C492 0.950 . S
H470 C493 0.950 . S
H471 C495 0.950 . S
H472 C496 0.950 . S
H473 C497 0.951 1_455 S
H474 C499 0.951 . S
H475 C501 0.950 . S
H476 C502 0.950 . S
H477 C504 0.950 . S
H478 C507 0.950 . S
H479 C508 0.950 . S
H480 C510 0.950 . S
H481 C511 0.950 . S
C482 H464 0.951 . S
C482 C483 1.366 . S
C482 C484 1.388 . S
C483 C482 1.366 . S
C483 C487 1.385 . S
C484 H465 0.951 . S
C484 C482 1.388 . S
C484 C485 1.366 . S
C485 C484 1.366 . S
C485 C486 1.414 . S
C485 C488 1.499 . S
C486 H466 0.950 . S
C486 C485 1.414 . S
C486 C487 1.374 . S
C487 H467 0.950 . S
C487 C483 1.385 . S
C487 C486 1.374 . S
C488 C485 1.499 . S
C488 C489 1.373 . S
C488 C490 1.389 . S
C489 H468 0.950 . S
C489 C488 1.373 . S
C489 C505 1.377 . S
C490 C488 1.389 . S
C490 C491 1.524 . S
C490 C504 1.377 . S
C491 C490 1.524 . S
C491 C492 1.397 . S
C491 C496 1.363 . S
C492 H469 0.950 . S
C492 C491 1.397 . S
C492 C493 1.334 . S
C493 H470 0.950 . S
C493 C492 1.334 . S
C493 C494 1.287 . S
C494 C493 1.287 . S
C494 C495 1.524 . S
C494 H513 0.913 . S
C495 H471 0.950 . S
C495 C494 1.524 . S
C495 C496 1.415 . S
C496 H472 0.950 . S
C496 C491 1.363 . S
C496 C495 1.415 . S
C497 H473 0.951 1_655 S
C497 C498 1.366 . S
C497 C499 1.388 . S
C498 C497 1.366 . S
C498 C502 1.385 . S
C499 H474 0.951 . S
C499 C497 1.388 . S
C499 C500 1.366 . S
C500 C499 1.366 . S
C500 C501 1.414 . S
C500 C503 1.499 . S
C501 H475 0.950 . S
C501 C500 1.414 . S
C501 C502 1.374 . S
C502 H476 0.950 . S
C502 C498 1.385 . S
C502 C501 1.374 . S
C503 C500 1.499 . S
C503 C504 1.373 . S
C503 C505 1.389 . S
C504 H477 0.950 . S
C504 C490 1.377 . S
C504 C503 1.373 . S
C505 C489 1.377 . S
C505 C503 1.389 . S
C505 C506 1.524 . S
C506 C505 1.524 . S
C506 C507 1.397 . S
C506 C511 1.363 1_655 S
C507 H478 0.950 . S
C507 C506 1.397 . S
C507 C508 1.334 1_655 S
C508 H479 0.950 . S
C508 C507 1.334 1_455 S
C508 C509 1.287 . S
C509 C508 1.287 . S
C509 C510 1.524 . S
C509 H512 0.999 . S
C510 H480 0.950 . S
C510 C509 1.524 . S
C510 C511 1.415 . S
C511 H481 0.950 . S
C511 C506 1.363 1_455 S
C511 C510 1.415 . S
H512 C509 0.999 . S
H513 C494 0.913 . S
H514 C532 0.951 . S
H515 C534 0.951 . S
H516 C536 0.950 . S
H517 C537 0.950 . S
H518 C539 0.950 . S
H519 C542 0.950 . S
H520 C543 0.950 . S
H521 C545 0.935 1_565 S
H522 C546 0.950 . S
H523 C547 0.951 . S
H524 C549 0.951 . S
H525 C551 0.950 . S
H526 C552 0.950 . S
H527 C554 0.950 . S
H528 C557 0.950 . S
H529 C558 0.950 . S
H530 C560 0.950 . S
H531 C561 0.950 . S
C532 H514 0.951 . S
C532 C533 1.366 . S
C532 C534 1.388 . S
C533 C532 1.366 . S
C533 C537 1.385 . S
C534 H515 0.951 . S
C534 C532 1.388 . S
C534 C535 1.366 . S
C535 C534 1.366 . S
C535 C536 1.414 . S
C535 C538 1.499 . S
C536 H516 0.950 . S
C536 C535 1.414 . S
C536 C537 1.374 . S
C537 H517 0.950 . S
C537 C533 1.385 . S
C537 C536 1.374 . S
C538 C535 1.499 . S
C538 C539 1.373 . S
C538 C540 1.389 . S
C539 H518 0.950 . S
C539 C538 1.373 . S
C539 C555 1.377 . S
C540 C538 1.389 . S
C540 C541 1.524 . S
C540 C554 1.377 . S
C541 C540 1.524 . S
C541 C542 1.397 . S
C541 C546 1.363 . S
C542 H519 0.950 . S
C542 C541 1.397 . S
C542 C543 1.334 . S
C543 H520 0.950 . S
C543 C542 1.334 . S
C543 C544 1.287 . S
C544 C543 1.287 . S
C544 C545 1.524 . S
C544 H563 0.913 . S
C545 H521 0.935 1_545 S
C545 C544 1.524 . S
C545 C546 1.415 . S
C546 H522 0.950 . S
C546 C541 1.363 . S
C546 C545 1.415 . S
C547 H523 0.951 . S
C547 C548 1.366 . S
C547 C549 1.388 . S
C548 C547 1.366 . S
C548 C552 1.385 . S
C549 H524 0.951 . S
C549 C547 1.388 . S
C549 C550 1.366 . S
C550 C549 1.366 . S
C550 C551 1.414 . S
C550 C553 1.499 . S
C551 H525 0.950 . S
C551 C550 1.414 . S
C551 C552 1.374 . S
C552 H526 0.950 . S
C552 C548 1.385 . S
C552 C551 1.374 . S
C553 C550 1.499 . S
C553 C554 1.373 . S
C553 C555 1.389 . S
C554 H527 0.950 . S
C554 C540 1.377 . S
C554 C553 1.373 . S
C555 C539 1.377 . S
C555 C553 1.389 . S
C555 C556 1.524 . S
C556 C555 1.524 . S
C556 C557 1.397 . S
C556 C561 1.363 . S
C557 H528 0.950 . S
C557 C556 1.397 . S
C557 C558 1.334 . S
C558 H529 0.950 . S
C558 C557 1.334 . S
C558 C559 1.287 . S
C559 C558 1.287 . S
C559 C560 1.524 . S
C559 H562 0.999 . S
C560 H530 0.950 . S
C560 C559 1.524 . S
C560 C561 1.415 . S
C561 H531 0.950 . S
C561 C556 1.363 . S
C561 C560 1.415 . S
H562 C559 0.999 . S
H563 C544 0.913 . S
H564 C582 0.951 . S
H565 C584 0.951 . S
H566 C586 0.950 . S
H567 C587 0.950 . S
H568 C589 0.950 . S
H569 C592 0.950 . S
H570 C593 0.950 . S
H571 C595 0.950 . S
H572 C596 0.950 . S
H573 C597 0.951 . S
H574 C599 0.951 . S
H575 C601 0.950 . S
H576 C602 0.950 . S
H577 C604 0.950 . S
H578 C607 0.950 . S
H579 C608 0.950 . S
H580 C610 0.950 . S
H581 C611 0.950 . S
C582 H564 0.951 . S
C582 C583 1.366 . S
C582 C584 1.388 . S
C583 C582 1.366 . S
C583 C587 1.385 . S
C584 H565 0.951 . S
C584 C582 1.388 . S
C584 C585 1.366 . S
C585 C584 1.366 . S
C585 C586 1.414 . S
C585 C588 1.499 . S
C586 H566 0.950 . S
C586 C585 1.414 . S
C586 C587 1.374 . S
C587 H567 0.950 . S
C587 C583 1.385 . S
C587 C586 1.374 . S
C588 C585 1.499 . S
C588 C589 1.373 1_554 S
C588 C590 1.389 . S
C589 H568 0.950 . S
C589 C588 1.373 1_556 S
C589 C605 1.377 . S
C590 C588 1.389 . S
C590 C591 1.524 . S
C590 C604 1.377 . S
C591 C590 1.524 . S
C591 C592 1.397 . S
C591 C596 1.363 . S
C592 H569 0.950 . S
C592 C591 1.397 . S
C592 C593 1.334 . S
C593 H570 0.950 . S
C593 C592 1.334 . S
C593 C594 1.287 . S
C594 C593 1.287 . S
C594 C595 1.524 . S
C594 H613 0.913 . S
C595 H571 0.950 . S
C595 C594 1.524 . S
C595 C596 1.415 . S
C596 H572 0.950 . S
C596 C591 1.363 . S
C596 C595 1.415 . S
C597 H573 0.951 . S
C597 C598 1.366 . S
C597 C599 1.388 . S
C598 C597 1.366 . S
C598 C602 1.385 . S
C599 H574 0.951 . S
C599 C597 1.388 . S
C599 C600 1.366 . S
C600 C599 1.366 . S
C600 C601 1.414 . S
C600 C603 1.499 . S
C601 H575 0.950 . S
C601 C600 1.414 . S
C601 C602 1.374 . S
C602 H576 0.950 . S
C602 C598 1.385 . S
C602 C601 1.374 . S
C603 C600 1.499 . S
C603 C604 1.373 1_556 S
C603 C605 1.389 . S
C604 H577 0.950 . S
C604 C590 1.377 . S
C604 C603 1.373 1_554 S
C605 C589 1.377 . S
C605 C603 1.389 . S
C605 C606 1.524 . S
C606 C605 1.524 . S
C606 C607 1.397 . S
C606 C611 1.363 . S
C607 H578 0.950 . S
C607 C606 1.397 . S
C607 C608 1.334 . S
C608 H579 0.950 . S
C608 C607 1.334 . S
C608 C609 1.287 . S
C609 C608 1.287 . S
C609 C610 1.524 . S
C609 H612 0.999 . S
C610 H580 0.950 . S
C610 C609 1.524 . S
C610 C611 1.415 . S
C611 H581 0.950 . S
C611 C606 1.363 . S
C611 C610 1.415 . S
H612 C609 0.999 . S
H613 C594 0.913 . S
H614 C632 0.951 . S
H615 C634 0.951 . S
H616 C636 0.950 . S
H617 C637 0.950 . S
H618 C639 0.950 . S
H619 C642 0.950 . S
H620 C643 0.950 . S
H621 C645 0.950 . S
H622 C646 0.950 . S
H623 C647 0.951 . S
H624 C649 0.951 . S
H625 C651 0.950 . S
H626 C652 0.950 . S
H627 C654 0.950 . S
H628 C657 0.950 . S
H629 C658 0.950 . S
H630 C660 0.950 . S
H631 C661 0.950 . S
C632 H614 0.951 . S
C632 C633 1.366 . S
C632 C634 1.388 . S
C633 C632 1.366 . S
C633 C637 1.385 . S
C634 H615 0.951 . S
C634 C632 1.388 . S
C634 C635 1.366 . S
C635 C634 1.366 . S
C635 C636 1.414 . S
C635 C638 1.499 . S
C636 H616 0.950 . S
C636 C635 1.414 . S
C636 C637 1.374 . S
C637 H617 0.950 . S
C637 C633 1.385 . S
C637 C636 1.374 . S
C638 C635 1.499 . S
C638 C639 1.373 1_556 S
C638 C640 1.389 1_565 S
C639 H618 0.950 . S
C639 C638 1.373 1_554 S
C639 C655 1.377 . S
C640 C638 1.389 1_545 S
C640 C641 1.524 . S
C640 C654 1.377 . S
C641 C640 1.524 . S
C641 C642 1.397 . S
C641 C646 1.363 . S
C642 H619 0.950 . S
C642 C641 1.397 . S
C642 C643 1.334 . S
C643 H620 0.950 . S
C643 C642 1.334 . S
C643 C644 1.287 . S
C644 C643 1.287 . S
C644 C645 1.524 . S
C644 H663 0.913 . S
C645 H621 0.950 . S
C645 C644 1.524 . S
C645 C646 1.415 . S
C646 H622 0.950 . S
C646 C641 1.363 . S
C646 C645 1.415 . S
C647 H623 0.951 . S
C647 C648 1.366 . S
C647 C649 1.388 . S
C648 C647 1.366 . S
C648 C652 1.385 . S
C649 H624 0.951 . S
C649 C647 1.388 . S
C649 C650 1.366 . S
C650 C649 1.366 . S
C650 C651 1.414 . S
C650 C653 1.499 . S
C651 H625 0.950 . S
C651 C650 1.414 . S
C651 C652 1.374 . S
C652 H626 0.950 . S
C652 C648 1.385 . S
C652 C651 1.374 . S
C653 C650 1.499 . S
C653 C654 1.373 1_554 S
C653 C655 1.389 1_545 S
C654 H627 0.950 . S
C654 C640 1.377 . S
C654 C653 1.373 1_556 S
C655 C639 1.377 . S
C655 C653 1.389 1_565 S
C655 C656 1.524 . S
C656 C655 1.524 . S
C656 C657 1.397 . S
C656 C661 1.363 . S
C657 H628 0.950 . S
C657 C656 1.397 . S
C657 C658 1.334 . S
C658 H629 0.950 . S
C658 C657 1.334 . S
C658 C659 1.287 . S
C659 C658 1.287 . S
C659 C660 1.524 . S
C659 H662 0.999 . S
C660 H630 0.950 . S
C660 C659 1.524 . S
C660 C661 1.415 . S
C661 H631 0.950 . S
C661 C656 1.363 . S
C661 C660 1.415 . S
H662 C659 0.999 . S
H663 C644 0.913 . S
H664 C682 0.951 . S
H665 C684 0.951 . S
H666 C686 0.950 . S
H667 C687 0.950 . S
H668 C689 0.950 . S
H669 C692 0.950 . S
H670 C693 0.950 . S
H671 C695 0.950 . S
H672 C696 0.950 1_554 S
H673 C697 0.951 . S
H674 C699 0.951 . S
H675 C701 0.950 . S
H676 C702 0.950 . S
H677 C704 0.950 . S
H678 C707 0.950 . S
H679 C708 0.950 . S
H680 C710 0.950 . S
H681 C711 0.950 1_556 S
C682 H664 0.951 . S
C682 C683 1.366 . S
C682 C684 1.388 . S
C683 C682 1.366 . S
C683 C687 1.385 . S
C684 H665 0.951 . S
C684 C682 1.388 . S
C684 C685 1.366 . S
C685 C684 1.366 . S
C685 C686 1.414 . S
C685 C688 1.499 . S
C686 H666 0.950 . S
C686 C685 1.414 . S
C686 C687 1.374 . S
C687 H667 0.950 . S
C687 C683 1.385 . S
C687 C686 1.374 . S
C688 C685 1.499 . S
C688 C689 1.373 . S
C688 C690 1.389 . S
C689 H668 0.950 . S
C689 C688 1.373 . S
C689 C705 1.377 1_456 S
C690 C688 1.389 . S
C690 C691 1.524 . S
C690 C704 1.377 1_456 S
C691 C690 1.524 . S
C691 C692 1.397 . S
C691 C696 1.363 . S
C692 H669 0.950 . S
C692 C691 1.397 . S
C692 C693 1.334 . S
C693 H670 0.950 . S
C693 C692 1.334 . S
C693 C694 1.287 . S
C694 C693 1.287 . S
C694 C695 1.524 . S
C694 H713 0.913 . S
C695 H671 0.950 . S
C695 C694 1.524 . S
C695 C696 1.415 . S
C696 H672 0.950 1_556 S
C696 C691 1.363 . S
C696 C695 1.415 . S
C697 H673 0.951 . S
C697 C698 1.366 . S
C697 C699 1.388 . S
C698 C697 1.366 . S
C698 C702 1.385 . S
C699 H674 0.951 . S
C699 C697 1.388 . S
C699 C700 1.366 . S
C700 C699 1.366 . S
C700 C701 1.414 . S
C700 C703 1.499 . S
C701 H675 0.950 . S
C701 C700 1.414 . S
C701 C702 1.374 . S
C702 H676 0.950 . S
C702 C698 1.385 . S
C702 C701 1.374 . S
C703 C700 1.499 . S
C703 C704 1.373 . S
C703 C705 1.389 . S
C704 H677 0.950 . S
C704 C690 1.377 1_654 S
C704 C703 1.373 . S
C705 C689 1.377 1_654 S
C705 C703 1.389 . S
C705 C706 1.524 . S
C706 C705 1.524 . S
C706 C707 1.397 . S
C706 C711 1.363 . S
C707 H678 0.950 . S
C707 C706 1.397 . S
C707 C708 1.334 . S
C708 H679 0.950 . S
C708 C707 1.334 . S
C708 C709 1.287 . S
C709 C708 1.287 . S
C709 C710 1.524 . S
C709 H712 0.999 . S
C710 H680 0.950 . S
C710 C709 1.524 . S
C710 C711 1.415 . S
C711 H681 0.950 1_554 S
C711 C706 1.363 . S
C711 C710 1.415 . S
H712 C709 0.999 . S
H713 C694 0.913 . S
C133 C26 0.322 . S
C148 C2 0.322 . S
C183 C40 0.322 . S
C198 C64 0.322 . S
C233 C78 0.320 . S
C248 C102 0.320 . S
C283 C99 2.624 . S
C298 C4 2.624 . S
C333 C93 1.156 . S
C348 C28 1.154 . S
C383 C96 1.423 . S
C398 C19 1.422 . S
C433 C42 2.625 . S
C448 C23 2.625 . S
C483 C66 1.156 . S
C498 C17 1.159 . S
C533 C57 1.423 . S
C548 C20 1.424 . S
C583 C61 2.624 . S
C598 C80 2.624 . S
C633 C104 1.158 . S
C648 C55 1.158 . S
C683 C95 1.423 . S
C698 C58 1.423 . S
