# Generated by pormake.
# Topology umq, (4)-cn, num edge types: 1
# Building blocks:
#     Node 0, Type 0, BuildingBlock: QUQFOY_clean_sbu_3, # of connection points: 4
#     Node 1, Type 0, BuildingBlock: QUQFOY_clean_sbu_3, # of connection points: 4
#     Node 2, Type 0, BuildingBlock: QUQFOY_clean_sbu_3, # of connection points: 4
#     Node 3, Type 0, BuildingBlock: QUQFOY_clean_sbu_3, # of connection points: 4
#     Node 4, Type 0, BuildingBlock: QUQFOY_clean_sbu_3, # of connection points: 4
#     Node 5, Type 0, BuildingBlock: QUQFOY_clean_sbu_3, # of connection points: 4
#     Node 6, Type 0, BuildingBlock: QUQFOY_clean_sbu_3, # of connection points: 4
#     Node 7, Type 0, BuildingBlock: QUQFOY_clean_sbu_3, # of connection points: 4
#     Node 8, Type 0, BuildingBlock: QUQFOY_clean_sbu_3, # of connection points: 4
#     Node 9, Type 0, BuildingBlock: QUQFOY_clean_sbu_3, # of connection points: 4
#     Node 10, Type 0, BuildingBlock: QUQFOY_clean_sbu_3, # of connection points: 4
#     Node 11, Type 0, BuildingBlock: QUQFOY_clean_sbu_3, # of connection points: 4
#     Node 12, Type 0, BuildingBlock: QUQFOY_clean_sbu_3, # of connection points: 4
#     Node 13, Type 0, BuildingBlock: QUQFOY_clean_sbu_3, # of connection points: 4
#     Node 14, Type 0, BuildingBlock: QUQFOY_clean_sbu_3, # of connection points: 4
#     Node 15, Type 0, BuildingBlock: QUQFOY_clean_sbu_3, # of connection points: 4
#     Node 16, Type 0, BuildingBlock: QUQFOY_clean_sbu_3, # of connection points: 4
#     Node 17, Type 0, BuildingBlock: QUQFOY_clean_sbu_3, # of connection points: 4
#     Node 18, Type 0, BuildingBlock: QUQFOY_clean_sbu_3, # of connection points: 4
#     Node 19, Type 0, BuildingBlock: QUQFOY_clean_sbu_3, # of connection points: 4
#     Node 20, Type 0, BuildingBlock: QUQFOY_clean_sbu_3, # of connection points: 4
#     Node 21, Type 0, BuildingBlock: QUQFOY_clean_sbu_3, # of connection points: 4
#     Node 22, Type 0, BuildingBlock: QUQFOY_clean_sbu_3, # of connection points: 4
#     Node 23, Type 0, BuildingBlock: QUQFOY_clean_sbu_3, # of connection points: 4
#     Node 24, Type 0, BuildingBlock: QUQFOY_clean_sbu_3, # of connection points: 4
#     Node 25, Type 0, BuildingBlock: QUQFOY_clean_sbu_3, # of connection points: 4
#     Node 26, Type 0, BuildingBlock: QUQFOY_clean_sbu_3, # of connection points: 4
#     Node 27, Type 0, BuildingBlock: QUQFOY_clean_sbu_3, # of connection points: 4
#     Node 28, Type 0, BuildingBlock: QUQFOY_clean_sbu_3, # of connection points: 4
#     Node 29, Type 0, BuildingBlock: QUQFOY_clean_sbu_3, # of connection points: 4
#     Node 30, Type 0, BuildingBlock: QUQFOY_clean_sbu_3, # of connection points: 4
#     Node 31, Type 0, BuildingBlock: QUQFOY_clean_sbu_3, # of connection points: 4
#     Edge 32, Type (0, 0), BuildingBlock: CIFDUS_clean_linker_0, # of connection points: 2
#     Edge 33, Type (0, 0), BuildingBlock: CIFDUS_clean_linker_0, # of connection points: 2
#     Edge 34, Type (0, 0), BuildingBlock: CIFDUS_clean_linker_0, # of connection points: 2
#     Edge 35, Type (0, 0), BuildingBlock: CIFDUS_clean_linker_0, # of connection points: 2
#     Edge 36, Type (0, 0), BuildingBlock: CIFDUS_clean_linker_0, # of connection points: 2
#     Edge 37, Type (0, 0), BuildingBlock: CIFDUS_clean_linker_0, # of connection points: 2
#     Edge 38, Type (0, 0), BuildingBlock: CIFDUS_clean_linker_0, # of connection points: 2
#     Edge 39, Type (0, 0), BuildingBlock: CIFDUS_clean_linker_0, # of connection points: 2
#     Edge 40, Type (0, 0), BuildingBlock: CIFDUS_clean_linker_0, # of connection points: 2
#     Edge 41, Type (0, 0), BuildingBlock: CIFDUS_clean_linker_0, # of connection points: 2
#     Edge 42, Type (0, 0), BuildingBlock: CIFDUS_clean_linker_0, # of connection points: 2
#     Edge 43, Type (0, 0), BuildingBlock: CIFDUS_clean_linker_0, # of connection points: 2
#     Edge 44, Type (0, 0), BuildingBlock: CIFDUS_clean_linker_0, # of connection points: 2
#     Edge 45, Type (0, 0), BuildingBlock: CIFDUS_clean_linker_0, # of connection points: 2
#     Edge 46, Type (0, 0), BuildingBlock: CIFDUS_clean_linker_0, # of connection points: 2
#     Edge 47, Type (0, 0), BuildingBlock: CIFDUS_clean_linker_0, # of connection points: 2
#     Edge 48, Type (0, 0), BuildingBlock: CIFDUS_clean_linker_0, # of connection points: 2
#     Edge 49, Type (0, 0), BuildingBlock: CIFDUS_clean_linker_0, # of connection points: 2
#     Edge 50, Type (0, 0), BuildingBlock: CIFDUS_clean_linker_0, # of connection points: 2
#     Edge 51, Type (0, 0), BuildingBlock: CIFDUS_clean_linker_0, # of connection points: 2
#     Edge 52, Type (0, 0), BuildingBlock: CIFDUS_clean_linker_0, # of connection points: 2
#     Edge 53, Type (0, 0), BuildingBlock: CIFDUS_clean_linker_0, # of connection points: 2
#     Edge 54, Type (0, 0), BuildingBlock: CIFDUS_clean_linker_0, # of connection points: 2
#     Edge 55, Type (0, 0), BuildingBlock: CIFDUS_clean_linker_0, # of connection points: 2
#     Edge 56, Type (0, 0), BuildingBlock: CIFDUS_clean_linker_0, # of connection points: 2
#     Edge 57, Type (0, 0), BuildingBlock: CIFDUS_clean_linker_0, # of connection points: 2
#     Edge 58, Type (0, 0), BuildingBlock: CIFDUS_clean_linker_0, # of connection points: 2
#     Edge 59, Type (0, 0), BuildingBlock: CIFDUS_clean_linker_0, # of connection points: 2
#     Edge 60, Type (0, 0), BuildingBlock: CIFDUS_clean_linker_0, # of connection points: 2
#     Edge 61, Type (0, 0), BuildingBlock: CIFDUS_clean_linker_0, # of connection points: 2
#     Edge 62, Type (0, 0), BuildingBlock: CIFDUS_clean_linker_0, # of connection points: 2
#     Edge 63, Type (0, 0), BuildingBlock: CIFDUS_clean_linker_0, # of connection points: 2
#     Edge 64, Type (0, 0), BuildingBlock: CIFDUS_clean_linker_0, # of connection points: 2
#     Edge 65, Type (0, 0), BuildingBlock: CIFDUS_clean_linker_0, # of connection points: 2
#     Edge 66, Type (0, 0), BuildingBlock: CIFDUS_clean_linker_0, # of connection points: 2
#     Edge 67, Type (0, 0), BuildingBlock: CIFDUS_clean_linker_0, # of connection points: 2
#     Edge 68, Type (0, 0), BuildingBlock: CIFDUS_clean_linker_0, # of connection points: 2
#     Edge 69, Type (0, 0), BuildingBlock: CIFDUS_clean_linker_0, # of connection points: 2
#     Edge 70, Type (0, 0), BuildingBlock: CIFDUS_clean_linker_0, # of connection points: 2
#     Edge 71, Type (0, 0), BuildingBlock: CIFDUS_clean_linker_0, # of connection points: 2
#     Edge 72, Type (0, 0), BuildingBlock: CIFDUS_clean_linker_0, # of connection points: 2
#     Edge 73, Type (0, 0), BuildingBlock: CIFDUS_clean_linker_0, # of connection points: 2
#     Edge 74, Type (0, 0), BuildingBlock: CIFDUS_clean_linker_0, # of connection points: 2
#     Edge 75, Type (0, 0), BuildingBlock: CIFDUS_clean_linker_0, # of connection points: 2
#     Edge 76, Type (0, 0), BuildingBlock: CIFDUS_clean_linker_0, # of connection points: 2
#     Edge 77, Type (0, 0), BuildingBlock: CIFDUS_clean_linker_0, # of connection points: 2
#     Edge 78, Type (0, 0), BuildingBlock: CIFDUS_clean_linker_0, # of connection points: 2
#     Edge 79, Type (0, 0), BuildingBlock: CIFDUS_clean_linker_0, # of connection points: 2
#     Edge 80, Type (0, 0), BuildingBlock: CIFDUS_clean_linker_0, # of connection points: 2
#     Edge 81, Type (0, 0), BuildingBlock: CIFDUS_clean_linker_0, # of connection points: 2
#     Edge 82, Type (0, 0), BuildingBlock: CIFDUS_clean_linker_0, # of connection points: 2
#     Edge 83, Type (0, 0), BuildingBlock: CIFDUS_clean_linker_0, # of connection points: 2
#     Edge 84, Type (0, 0), BuildingBlock: CIFDUS_clean_linker_0, # of connection points: 2
#     Edge 85, Type (0, 0), BuildingBlock: CIFDUS_clean_linker_0, # of connection points: 2
#     Edge 86, Type (0, 0), BuildingBlock: CIFDUS_clean_linker_0, # of connection points: 2
#     Edge 87, Type (0, 0), BuildingBlock: CIFDUS_clean_linker_0, # of connection points: 2
#     Edge 88, Type (0, 0), BuildingBlock: CIFDUS_clean_linker_0, # of connection points: 2
#     Edge 89, Type (0, 0), BuildingBlock: CIFDUS_clean_linker_0, # of connection points: 2
#     Edge 90, Type (0, 0), BuildingBlock: CIFDUS_clean_linker_0, # of connection points: 2
#     Edge 91, Type (0, 0), BuildingBlock: CIFDUS_clean_linker_0, # of connection points: 2
#     Edge 92, Type (0, 0), BuildingBlock: CIFDUS_clean_linker_0, # of connection points: 2
#     Edge 93, Type (0, 0), BuildingBlock: CIFDUS_clean_linker_0, # of connection points: 2
#     Edge 94, Type (0, 0), BuildingBlock: CIFDUS_clean_linker_0, # of connection points: 2
#     Edge 95, Type (0, 0), BuildingBlock: CIFDUS_clean_linker_0, # of connection points: 2
# Relax obj value: 0.064
# Max RMSD: 0.052
# Mean RMSD: 0.052
data_MOF--net-umq--node1-QUQFOY_clean_sbu_3--edge1-CIFDUS_clean_linker_0
_symmetry_space_group_name_H-M    P1
_symmetry_Int_Tables_number       1
_symmetry_cell_setting            triclinic
loop_
_symmetry_equiv_pos_as_xyz
'x, y, z'
_cell_length_a     59.848627
_cell_length_b     59.845891
_cell_length_c     40.572478
_cell_angle_alpha  89.780906
_cell_angle_beta   89.894521
_cell_angle_gamma 89.896943
loop_
_atom_site_label
_atom_site_type_symbol
_atom_site_fract_x
_atom_site_fract_y
_atom_site_fract_z
_atom_type_partial_charge
C0 C 0.22257 0.10616 0.09442 0.0
O1 O 0.21132 0.12357 0.10124 0.0
Cd2 Cd 0.20844 0.14245 0.15219 0.0
O3 O 0.23372 0.09571 0.11644 0.0
Cd4 Cd 0.23863 0.09864 0.17773 0.0
C5 C 0.26516 0.1484 0.1685 0.0
O6 O 0.20114 0.11139 0.18592 0.0
O7 O 0.22032 0.11096 0.2304 0.0
O8 O 0.23446 0.0586 0.17762 0.0
C9 C 0.20177 0.1149 0.2165 0.0
O10 O 0.24605 0.15662 0.16169 0.0
C11 C 0.25045 0.05439 0.19719 0.0
O12 O 0.26751 0.12757 0.17425 0.0
O13 O 0.26183 0.07097 0.20712 0.0
C14 C 0.88835 0.21224 0.0819 0.0
O15 O 0.87316 0.19808 0.08852 0.0
Cd16 Cd 0.85644 0.18921 0.14003 0.0
O17 O 0.8977 0.22361 0.10457 0.0
Cd18 Cd 0.8958 0.22486 0.16636 0.0
C19 C 0.84198 0.24323 0.16265 0.0
O20 O 0.88847 0.1855 0.17281 0.0
O21 O 0.88775 0.20374 0.21799 0.0
O22 O 0.93612 0.22998 0.16309 0.0
C23 C 0.88528 0.1852 0.20357 0.0
O24 O 0.83659 0.22334 0.15486 0.0
C25 C 0.9371 0.24368 0.18687 0.0
O26 O 0.86239 0.24867 0.1667 0.0
O27 O 0.91877 0.24931 0.20031 0.0
C28 C 0.75268 0.88814 0.07045 0.0
O29 O 0.76492 0.87079 0.07191 0.0
Cd30 Cd 0.77693 0.84981 0.11861 0.0
O31 O 0.74477 0.8973 0.09633 0.0
Cd32 Cd 0.74751 0.88943 0.15691 0.0
C33 C 0.72505 0.83722 0.15074 0.0
O34 O 0.78681 0.87937 0.15371 0.0
O35 O 0.77265 0.87764 0.20215 0.0
O36 O 0.74364 0.92986 0.16351 0.0
C37 C 0.7896 0.87507 0.18388 0.0
O38 O 0.7436 0.83084 0.13852 0.0
C39 C 0.73235 0.92856 0.19 0.0
O40 O 0.7216 0.8577 0.15766 0.0
O41 O 0.72728 0.90914 0.20017 0.0
C42 C 0.08771 0.76946 0.09342 0.0
O43 O 0.10172 0.78433 0.10158 0.0
Cd44 Cd 0.12428 0.78423 0.14917 0.0
O45 O 0.08211 0.75401 0.11358 0.0
Cd46 Cd 0.08921 0.74614 0.17359 0.0
C47 C 0.13922 0.72744 0.15004 0.0
O48 O 0.09981 0.78235 0.19379 0.0
O49 O 0.11243 0.75469 0.22213 0.0
O50 O 0.05184 0.75359 0.19097 0.0
C51 C 0.1107 0.77571 0.21866 0.0
O52 O 0.1433 0.74823 0.14646 0.0
C53 C 0.04777 0.73449 0.20311 0.0
O54 O 0.11991 0.7207 0.15903 0.0
O55 O 0.06275 0.71951 0.20007 0.0
C56 C 0.20583 0.90456 0.39983 0.0
O57 O 0.19126 0.88932 0.397 0.0
Cd58 Cd 0.18685 0.86441 0.35228 0.0
O59 O 0.21883 0.90948 0.37597 0.0
Cd60 Cd 0.2211 0.89781 0.31687 0.0
C61 C 0.24212 0.84821 0.33892 0.0
O62 O 0.18296 0.88674 0.30496 0.0
O63 O 0.20847 0.87165 0.27472 0.0
O64 O 0.21355 0.93308 0.29109 0.0
C65 C 0.18784 0.87463 0.28047 0.0
O66 O 0.22208 0.84383 0.34752 0.0
C67 C 0.23276 0.93595 0.27864 0.0
O68 O 0.24741 0.86754 0.32811 0.0
O69 O 0.2476 0.9213 0.28489 0.0
C70 C 0.09597 0.22118 0.39785 0.0
O71 O 0.11226 0.20812 0.39203 0.0
Cd72 Cd 0.13176 0.20273 0.34187 0.0
O73 O 0.08679 0.23258 0.37491 0.0
Cd74 Cd 0.09021 0.23529 0.31333 0.0
C75 C 0.14106 0.25894 0.32333 0.0
O76 O 0.10176 0.19697 0.30603 0.0
O77 O 0.10258 0.21657 0.26181 0.0
O78 O 0.04959 0.23592 0.3152 0.0
C79 C 0.10622 0.19791 0.27564 0.0
O80 O 0.14782 0.23944 0.33128 0.0
C81 C 0.04734 0.2496 0.29143 0.0
O82 O 0.12058 0.26263 0.31656 0.0
O83 O 0.06508 0.25729 0.27848 0.0
C84 C 0.76773 0.09097 0.38342 0.0
O85 O 0.78117 0.10689 0.37736 0.0
Cd86 Cd 0.78833 0.126 0.32721 0.0
O87 O 0.75598 0.08214 0.36068 0.0
Cd88 Cd 0.75362 0.08736 0.29906 0.0
C89 C 0.73373 0.14027 0.30831 0.0
O90 O 0.79302 0.09512 0.29229 0.0
O91 O 0.77396 0.0986 0.24805 0.0
O92 O 0.74878 0.04691 0.29507 0.0
C93 C 0.79285 0.09959 0.26189 0.0
O94 O 0.7536 0.14599 0.31568 0.0
C95 C 0.73483 0.04794 0.27154 0.0
O96 O 0.7289 0.11991 0.3027 0.0
O97 O 0.72873 0.06727 0.26218 0.0
C98 C 0.87885 0.77964 0.40514 0.0
O99 O 0.86152 0.79011 0.39563 0.0
Cd100 Cd 0.84682 0.79485 0.34211 0.0
O101 O 0.89156 0.76948 0.38471 0.0
Cd102 Cd 0.89247 0.76552 0.3227 0.0
C103 C 0.84218 0.73922 0.3196 0.0
O104 O 0.88036 0.80312 0.31485 0.0
O105 O 0.88224 0.7851 0.26967 0.0
O106 O 0.93271 0.76937 0.32526 0.0
C107 C 0.87786 0.80335 0.28406 0.0
O108 O 0.83337 0.75818 0.32563 0.0
C109 C 0.93721 0.75325 0.30611 0.0
O110 O 0.86335 0.73676 0.31916 0.0
O111 O 0.92076 0.74202 0.29544 0.0
C112 C 0.7739 0.89725 0.88529 0.0
O113 O 0.78858 0.88204 0.88223 0.0
Cd114 Cd 0.79832 0.8611 0.83479 0.0
O115 O 0.76236 0.9041 0.86079 0.0
Cd116 Cd 0.7622 0.89636 0.79991 0.0
C117 C 0.74523 0.84282 0.81342 0.0
O118 O 0.80223 0.89054 0.79688 0.0
O119 O 0.78489 0.88478 0.75164 0.0
O120 O 0.7554 0.93636 0.79328 0.0
C121 C 0.80331 0.88516 0.76689 0.0
O122 O 0.76515 0.83885 0.82288 0.0
C123 C 0.7431 0.93432 0.76799 0.0
O124 O 0.73921 0.86251 0.80518 0.0
O125 O 0.73857 0.91459 0.7588 0.0
C126 C 0.09925 0.78454 0.90356 0.0
O127 O 0.11534 0.79738 0.89583 0.0
Cd128 Cd 0.13328 0.80235 0.8442 0.0
O129 O 0.0902 0.77165 0.8824 0.0
Cd130 Cd 0.0942 0.7648 0.82156 0.0
C131 C 0.14847 0.74755 0.82686 0.0
O132 O 0.10064 0.80381 0.81237 0.0
O133 O 0.09987 0.78487 0.7679 0.0
O134 O 0.05436 0.75708 0.826 0.0
C135 C 0.10262 0.80366 0.78147 0.0
O136 O 0.15356 0.76775 0.8332 0.0
C137 C 0.05401 0.74307 0.80258 0.0
O138 O 0.12816 0.74172 0.82313 0.0
O139 O 0.07253 0.73848 0.78887 0.0
C140 C 0.19965 0.10212 0.90511 0.0
O141 O 0.18675 0.11783 0.89588 0.0
Cd142 Cd 0.18217 0.13434 0.8433 0.0
O143 O 0.2125 0.09207 0.88476 0.0
Cd144 Cd 0.21872 0.09356 0.82344 0.0
C145 C 0.23777 0.14714 0.82797 0.0
O146 O 0.18014 0.10158 0.81209 0.0
O147 O 0.20076 0.10112 0.76912 0.0
O148 O 0.22385 0.0531 0.82622 0.0
C149 C 0.18153 0.1042 0.78133 0.0
O150 O 0.21761 0.15316 0.83296 0.0
C151 C 0.23892 0.05256 0.80413 0.0
O152 O 0.24292 0.12654 0.8252 0.0
O153 O 0.24535 0.07115 0.79236 0.0
C154 C 0.88462 0.21108 0.8885 0.0
O155 O 0.86794 0.20017 0.87787 0.0
Cd156 Cd 0.85267 0.19889 0.82444 0.0
O157 O 0.89605 0.22385 0.86956 0.0
Cd158 Cd 0.89538 0.23311 0.80862 0.0
C159 C 0.84317 0.25563 0.81278 0.0
O160 O 0.88684 0.19501 0.79658 0.0
O161 O 0.88806 0.21544 0.75344 0.0
O162 O 0.93585 0.23715 0.8146 0.0
C163 C 0.88514 0.19619 0.76573 0.0
O164 O 0.83601 0.2357 0.81605 0.0
C165 C 0.93781 0.2514 0.7915 0.0
O166 O 0.86405 0.25962 0.81105 0.0
O167 O 0.91997 0.25792 0.77761 0.0
C168 C 0.78309 0.0948 0.57336 0.0
O169 O 0.79603 0.111 0.57985 0.0
Cd170 Cd 0.80191 0.13077 0.62967 0.0
O171 O 0.77062 0.086 0.59547 0.0
Cd172 Cd 0.76565 0.09177 0.65654 0.0
C173 C 0.7472 0.14548 0.64743 0.0
O174 O 0.80467 0.10025 0.66576 0.0
O175 O 0.78435 0.1016 0.70908 0.0
O176 O 0.76029 0.05135 0.66111 0.0
C177 C 0.80345 0.10411 0.69625 0.0
O178 O 0.76726 0.15085 0.64047 0.0
C179 C 0.74541 0.05266 0.68341 0.0
O180 O 0.74181 0.12513 0.65247 0.0
O181 O 0.73907 0.07209 0.69169 0.0
C182 C 0.88933 0.76967 0.59859 0.0
O183 O 0.87443 0.7834 0.60803 0.0
Cd184 Cd 0.86253 0.79352 0.66151 0.0
O185 O 0.90087 0.75843 0.61933 0.0
Cd186 Cd 0.90286 0.75735 0.68147 0.0
C187 C 0.84887 0.74072 0.69018 0.0
O188 O 0.8976 0.79697 0.68639 0.0
O189 O 0.89842 0.78018 0.73277 0.0
O190 O 0.94285 0.75086 0.67482 0.0
C191 C 0.89617 0.79844 0.71729 0.0
O192 O 0.84335 0.76075 0.68313 0.0
C193 C 0.94439 0.73759 0.69923 0.0
O194 O 0.86924 0.73445 0.68912 0.0
O195 O 0.92641 0.7326 0.71415 0.0
C196 C 0.19972 0.90454 0.58904 0.0
O197 O 0.1871 0.88827 0.59669 0.0
Cd198 Cd 0.18493 0.86788 0.64661 0.0
O199 O 0.21363 0.9127 0.60959 0.0
Cd200 Cd 0.22266 0.90652 0.66959 0.0
C201 C 0.24101 0.85343 0.65628 0.0
O202 O 0.18423 0.89857 0.68217 0.0
O203 O 0.20576 0.89654 0.72399 0.0
O204 O 0.22821 0.94685 0.66875 0.0
C205 C 0.18623 0.89451 0.71251 0.0
O206 O 0.2206 0.84837 0.65146 0.0
C207 C 0.24262 0.94692 0.69167 0.0
O208 O 0.24676 0.87357 0.66197 0.0
O209 O 0.24865 0.9281 0.70314 0.0
C210 C 0.09999 0.21523 0.58976 0.0
O211 O 0.11686 0.20393 0.59905 0.0
Cd212 Cd 0.13369 0.20175 0.65143 0.0
O213 O 0.0893 0.2279 0.60964 0.0
Cd214 Cd 0.09155 0.23639 0.67049 0.0
C215 C 0.14395 0.25827 0.664 0.0
O216 O 0.10009 0.19796 0.6807 0.0
O217 O 0.09896 0.21734 0.72471 0.0
O218 O 0.05116 0.2412 0.66509 0.0
C219 C 0.10185 0.19841 0.71156 0.0
O220 O 0.15074 0.23831 0.65953 0.0
C221 C 0.04933 0.25441 0.68937 0.0
O222 O 0.12319 0.26254 0.66737 0.0
O223 O 0.06724 0.26017 0.70367 0.0
C224 C 0.73643 0.6122 0.5919 0.0
O225 O 0.72567 0.62944 0.601 0.0
Cd226 Cd 0.71001 0.63899 0.65292 0.0
O227 O 0.74112 0.59648 0.61213 0.0
Cd228 Cd 0.73594 0.59212 0.67328 0.0
C229 C 0.76138 0.6421 0.68921 0.0
O230 O 0.69733 0.60434 0.67297 0.0
O231 O 0.71075 0.59851 0.72104 0.0
O232 O 0.73656 0.55146 0.66591 0.0
C233 C 0.69412 0.60423 0.70371 0.0
O234 O 0.74295 0.65155 0.6819 0.0
C235 C 0.748 0.54772 0.69172 0.0
O236 O 0.76389 0.62105 0.68593 0.0
O237 O 0.75467 0.56462 0.70774 0.0
C238 C 0.38927 0.73068 0.58015 0.0
O239 O 0.37237 0.71837 0.58552 0.0
Cd240 Cd 0.35308 0.71238 0.63578 0.0
O241 O 0.39888 0.74129 0.6034 0.0
Cd242 Cd 0.39493 0.74343 0.66504 0.0
C243 C 0.34395 0.76796 0.65754 0.0
O244 O 0.38406 0.70476 0.66933 0.0
O245 O 0.38373 0.72204 0.71538 0.0
O246 O 0.43555 0.74509 0.66186 0.0
C247 C 0.38046 0.704 0.69993 0.0
O248 O 0.33694 0.74878 0.64879 0.0
C249 C 0.43793 0.75703 0.68739 0.0
O250 O 0.36457 0.77117 0.6638 0.0
O251 O 0.42025 0.76344 0.70193 0.0
C252 C 0.29262 0.38733 0.58783 0.0
O253 O 0.30474 0.3709 0.59658 0.0
Cd254 Cd 0.30594 0.35244 0.64817 0.0
O255 O 0.27899 0.39661 0.60785 0.0
Cd256 Cd 0.26919 0.39332 0.66806 0.0
C257 C 0.24925 0.34046 0.65859 0.0
O258 O 0.30707 0.38431 0.68139 0.0
O259 O 0.28562 0.38451 0.72346 0.0
O260 O 0.26542 0.4336 0.66144 0.0
C261 C 0.30499 0.38105 0.71193 0.0
O262 O 0.26954 0.33459 0.65431 0.0
C263 C 0.25061 0.43593 0.68358 0.0
O264 O 0.24404 0.36095 0.66268 0.0
O265 O 0.24382 0.41831 0.69795 0.0
C266 C 0.59946 0.26704 0.58524 0.0
O267 O 0.61539 0.2797 0.59403 0.0
Cd268 Cd 0.63147 0.28445 0.64663 0.0
O269 O 0.58905 0.25478 0.60602 0.0
Cd270 Cd 0.59029 0.24956 0.6676 0.0
C271 C 0.64303 0.22856 0.66235 0.0
O272 O 0.59812 0.28837 0.67659 0.0
O273 O 0.59802 0.26905 0.72096 0.0
O274 O 0.54992 0.24505 0.66306 0.0
C275 C 0.60041 0.288 0.70743 0.0
O276 O 0.64953 0.24851 0.6569 0.0
C277 C 0.54845 0.23087 0.68634 0.0
O278 O 0.62235 0.22411 0.666 0.0
O279 O 0.56655 0.22468 0.69988 0.0
C280 C 0.7027 0.38726 0.8958 0.0
O281 O 0.68955 0.37137 0.88861 0.0
Cd282 Cd 0.68403 0.35327 0.8374 0.0
O283 O 0.71508 0.39647 0.87396 0.0
Cd284 Cd 0.72012 0.39319 0.81251 0.0
C285 C 0.73934 0.33977 0.81944 0.0
O286 O 0.68123 0.38481 0.80334 0.0
O287 O 0.7011 0.38454 0.75953 0.0
O288 O 0.72466 0.43359 0.81567 0.0
C289 C 0.68214 0.38154 0.77268 0.0
O290 O 0.71924 0.33433 0.82606 0.0
C291 C 0.73859 0.43491 0.7921 0.0
O292 O 0.74478 0.36019 0.81507 0.0
O293 O 0.74466 0.41672 0.77878 0.0
C294 C 0.6008 0.71037 0.8877 0.0
O295 O 0.6183 0.69978 0.87925 0.0
Cd296 Cd 0.63609 0.69857 0.82717 0.0
O297 O 0.58999 0.72249 0.86717 0.0
Cd298 Cd 0.59311 0.7311 0.80635 0.0
C299 C 0.6444 0.75524 0.81331 0.0
O300 O 0.60373 0.69318 0.79535 0.0
O301 O 0.60314 0.71358 0.75211 0.0
O302 O 0.55243 0.73352 0.81061 0.0
C303 C 0.60665 0.6945 0.76466 0.0
O304 O 0.65209 0.73564 0.8182 0.0
C305 C 0.55025 0.74786 0.78771 0.0
O306 O 0.62348 0.75855 0.80994 0.0
O307 O 0.56803 0.75496 0.7742 0.0
C308 C 0.27429 0.6005 0.87771 0.0
O309 O 0.28671 0.61716 0.87125 0.0
Cd310 Cd 0.2905 0.63646 0.82054 0.0
O311 O 0.26256 0.59119 0.85538 0.0
Cd312 Cd 0.25754 0.59465 0.79409 0.0
C313 C 0.23376 0.64561 0.80539 0.0
O314 O 0.29564 0.60574 0.78573 0.0
O315 O 0.27619 0.6064 0.7416 0.0
O316 O 0.25641 0.55419 0.7991 0.0
C317 C 0.29486 0.60993 0.75528 0.0
O318 O 0.25339 0.65245 0.8121 0.0
C319 C 0.24319 0.55118 0.77512 0.0
O320 O 0.2301 0.62508 0.79894 0.0
O321 O 0.236 0.56848 0.7603 0.0
C322 C 0.39321 0.26239 0.89821 0.0
O323 O 0.37678 0.27529 0.8924 0.0
Cd324 Cd 0.35768 0.28156 0.84199 0.0
O325 O 0.40227 0.25078 0.87547 0.0
Cd326 Cd 0.39763 0.24691 0.81438 0.0
C327 C 0.34485 0.22657 0.82257 0.0
O328 O 0.38923 0.28607 0.8082 0.0
O329 O 0.389 0.26802 0.76279 0.0
O330 O 0.43792 0.24162 0.81669 0.0
C331 C 0.38632 0.28646 0.77745 0.0
O332 O 0.33891 0.24635 0.83021 0.0
C333 C 0.43885 0.22858 0.79212 0.0
O334 O 0.3653 0.22187 0.81705 0.0
O335 O 0.42048 0.22332 0.77865 0.0
C336 C 0.28374 0.39442 0.39729 0.0
O337 O 0.29732 0.37857 0.39162 0.0
Cd338 Cd 0.30056 0.35637 0.34383 0.0
O339 O 0.27055 0.40159 0.37494 0.0
Cd340 Cd 0.26591 0.39327 0.31472 0.0
C341 C 0.24465 0.34266 0.33204 0.0
O342 O 0.30356 0.38208 0.30044 0.0
O343 O 0.2781 0.3711 0.26701 0.0
O344 O 0.27206 0.43013 0.29306 0.0
C345 C 0.29873 0.37216 0.27394 0.0
O346 O 0.26476 0.33727 0.33876 0.0
C347 C 0.25261 0.43297 0.28144 0.0
O348 O 0.2396 0.36265 0.32393 0.0
O349 O 0.23833 0.41769 0.28681 0.0
C350 C 0.6073 0.285 0.39418 0.0
O351 O 0.62326 0.29771 0.38539 0.0
Cd352 Cd 0.64008 0.30244 0.33304 0.0
O353 O 0.59745 0.27226 0.37361 0.0
Cd354 Cd 0.59982 0.26568 0.31248 0.0
C355 C 0.6537 0.24711 0.3175 0.0
O356 O 0.60706 0.3044 0.30209 0.0
O357 O 0.60666 0.28475 0.25835 0.0
O358 O 0.55963 0.2594 0.31635 0.0
C359 C 0.60945 0.30374 0.27127 0.0
O360 O 0.65953 0.26726 0.32275 0.0
C361 C 0.55913 0.24477 0.29376 0.0
O362 O 0.63317 0.24188 0.31443 0.0
O363 O 0.57767 0.2392 0.28093 0.0
C364 C 0.72927 0.60106 0.40171 0.0
O365 O 0.71546 0.61707 0.39841 0.0
Cd366 Cd 0.69626 0.63126 0.35147 0.0
O367 O 0.73612 0.58978 0.37701 0.0
Cd368 Cd 0.72993 0.59419 0.31616 0.0
C369 C 0.7443 0.64976 0.3154 0.0
O370 O 0.68977 0.59843 0.32129 0.0
O371 O 0.70209 0.60071 0.27195 0.0
O372 O 0.73964 0.55472 0.30925 0.0
C373 C 0.68544 0.60132 0.29116 0.0
O374 O 0.72477 0.65427 0.32599 0.0
C375 C 0.75032 0.55786 0.2825 0.0
O376 O 0.75081 0.62958 0.3122 0.0
O377 O 0.7525 0.5779 0.27269 0.0
C378 C 0.3887 0.71641 0.39068 0.0
O379 O 0.37144 0.70489 0.38433 0.0
Cd380 Cd 0.35059 0.7033 0.33501 0.0
O381 O 0.39793 0.72873 0.36877 0.0
Cd382 Cd 0.3917 0.73525 0.30809 0.0
C383 C 0.34192 0.76014 0.32352 0.0
O384 O 0.38012 0.69717 0.29785 0.0
O385 O 0.37734 0.719 0.25607 0.0
O386 O 0.43235 0.73616 0.30292 0.0
C387 C 0.37523 0.6995 0.26782 0.0
O388 O 0.33446 0.74063 0.3296 0.0
C389 C 0.43248 0.7506 0.2799 0.0
O390 O 0.3624 0.76318 0.31619 0.0
O391 O 0.4138 0.75887 0.2715 0.0
C392 C 0.28393 0.59896 0.0697 0.0
O393 O 0.29314 0.61684 0.07949 0.0
Cd394 Cd 0.29128 0.63365 0.13186 0.0
O395 O 0.27255 0.58662 0.08927 0.0
Cd396 Cd 0.26454 0.58618 0.15036 0.0
C397 C 0.23339 0.63311 0.14326 0.0
O398 O 0.29971 0.60241 0.16428 0.0
O399 O 0.2777 0.59919 0.20563 0.0
O400 O 0.27411 0.54698 0.15016 0.0
C401 C 0.29659 0.60524 0.19469 0.0
O402 O 0.25195 0.64308 0.13862 0.0
C403 C 0.25779 0.54057 0.16781 0.0
O404 O 0.23262 0.61199 0.1473 0.0
O405 O 0.24355 0.55535 0.17592 0.0
C406 C 0.40451 0.28307 0.08724 0.0
O407 O 0.39111 0.29804 0.09729 0.0
Cd408 Cd 0.37445 0.30071 0.14975 0.0
O409 O 0.41207 0.26809 0.10678 0.0
Cd410 Cd 0.41018 0.26066 0.16787 0.0
C411 C 0.35662 0.24536 0.15866 0.0
O412 O 0.40537 0.29895 0.18516 0.0
O413 O 0.39713 0.27467 0.22182 0.0
O414 O 0.45046 0.25576 0.16543 0.0
C415 C 0.39875 0.29513 0.21418 0.0
O416 O 0.35275 0.26621 0.15527 0.0
C417 C 0.45118 0.24025 0.18683 0.0
O418 O 0.37652 0.23804 0.16194 0.0
O419 O 0.43268 0.23336 0.19831 0.0
C420 C 0.72378 0.39416 0.08534 0.0
O421 O 0.71148 0.37768 0.09319 0.0
Cd422 Cd 0.70485 0.36027 0.14469 0.0
O423 O 0.73525 0.40463 0.10688 0.0
Cd424 Cd 0.73864 0.40112 0.16873 0.0
C425 C 0.75962 0.34822 0.16478 0.0
O426 O 0.69949 0.39272 0.17599 0.0
O427 O 0.71832 0.39161 0.22063 0.0
O428 O 0.74292 0.44171 0.17201 0.0
C429 C 0.69954 0.38963 0.20671 0.0
O430 O 0.73987 0.34163 0.15839 0.0
C431 C 0.75712 0.44095 0.19526 0.0
O432 O 0.76397 0.36894 0.1678 0.0
O433 O 0.76377 0.42175 0.20434 0.0
C434 C 0.59068 0.70705 0.07938 0.0
O435 O 0.60537 0.69204 0.08429 0.0
Cd436 Cd 0.62363 0.6808 0.13339 0.0
O437 O 0.58257 0.71843 0.1032 0.0
Cd438 Cd 0.58743 0.71751 0.16495 0.0
C439 C 0.64178 0.73337 0.15607 0.0
O440 O 0.59264 0.67753 0.16858 0.0
O441 O 0.59752 0.69466 0.21404 0.0
O442 O 0.54764 0.72594 0.17103 0.0
C443 C 0.59757 0.67628 0.19875 0.0
O444 O 0.64619 0.71342 0.14725 0.0
C445 C 0.55035 0.73887 0.19548 0.0
O446 O 0.62179 0.73941 0.16232 0.0
O447 O 0.57029 0.74274 0.20439 0.0
H448 H 0.35719 0.20031 0.17065 0.0
H449 H 0.31282 0.25529 0.14794 0.0
H450 H 0.28094 0.23021 0.14951 0.0
H451 H 0.2655 0.19302 0.15718 0.0
H452 H 0.30913 0.13755 0.18 0.0
H453 H 0.34141 0.16258 0.17866 0.0
C454 C 0.34056 0.20679 0.16596 0.0
C455 C 0.33749 0.22968 0.15913 0.0
C456 C 0.32213 0.19224 0.16701 0.0
C457 C 0.31577 0.23778 0.15325 0.0
C458 C 0.29746 0.22345 0.15416 0.0
C459 C 0.28204 0.18631 0.16194 0.0
C460 C 0.28484 0.1634 0.16867 0.0
C461 C 0.30045 0.2007 0.16104 0.0
C462 C 0.30645 0.15512 0.17477 0.0
C463 C 0.32494 0.16941 0.17396 0.0
H464 H 0.8466 0.2883 0.17118 0.0
H465 H 0.79702 0.23642 0.16061 0.0
H466 H 0.76738 0.26425 0.16169 0.0
H467 H 0.75548 0.30315 0.16314 0.0
H468 H 0.80453 0.3555 0.17306 0.0
H469 H 0.83437 0.32757 0.17492 0.0
C470 C 0.82931 0.28306 0.16935 0.0
C471 C 0.82412 0.26027 0.1656 0.0
C472 C 0.81222 0.29921 0.16973 0.0
C473 C 0.80158 0.25382 0.1633 0.0
C474 C 0.78457 0.26973 0.16391 0.0
C475 C 0.77268 0.30853 0.16581 0.0
C476 C 0.77773 0.33142 0.16771 0.0
C477 C 0.78971 0.29246 0.16668 0.0
C478 C 0.80014 0.338 0.17143 0.0
C479 C 0.81723 0.32203 0.17246 0.0
H480 H 0.63867 0.77798 0.16924 0.0
H481 H 0.6862 0.72604 0.14533 0.0
H482 H 0.7161 0.75351 0.14298 0.0
H483 H 0.7285 0.79225 0.14497 0.0
H484 H 0.68137 0.84457 0.1684 0.0
H485 H 0.6516 0.81687 0.17385 0.0
C486 C 0.65559 0.77263 0.16375 0.0
C487 C 0.66009 0.74996 0.15724 0.0
C488 C 0.67278 0.78856 0.1622 0.0
C489 C 0.68216 0.74336 0.15028 0.0
C490 C 0.69931 0.75906 0.14888 0.0
C491 C 0.71175 0.79766 0.15137 0.0
C492 C 0.70717 0.8205 0.15598 0.0
C493 C 0.69475 0.78172 0.15433 0.0
C494 C 0.68538 0.82711 0.1646 0.0
C495 C 0.66833 0.81128 0.16767 0.0
H496 H 0.22881 0.67585 0.1233 0.0
H497 H 0.19147 0.62098 0.16505 0.0
H498 H 0.15834 0.64499 0.16947 0.0
H499 H 0.14073 0.68244 0.164 0.0
H500 H 0.17942 0.73656 0.12225 0.0
H501 H 0.2112 0.71187 0.11535 0.0
C502 C 0.21345 0.66903 0.13335 0.0
C503 C 0.21271 0.64672 0.14415 0.0
C504 C 0.19467 0.68285 0.13593 0.0
C505 C 0.19252 0.63814 0.15663 0.0
C506 C 0.17359 0.65188 0.15924 0.0
C507 C 0.15606 0.68874 0.15317 0.0
C508 C 0.15766 0.71142 0.14399 0.0
C509 C 0.17456 0.67439 0.14934 0.0
C510 C 0.17767 0.71929 0.1299 0.0
C511 C 0.19593 0.70517 0.12586 0.0
H512 H 0.28581 0.84974 0.31902 0.0
H513 H 0.2363 0.80576 0.36171 0.0
H514 H 0.26288 0.77502 0.36102 0.0
H515 H 0.29954 0.76018 0.34693 0.0
H516 H 0.34954 0.80353 0.3044 0.0
H517 H 0.32336 0.83493 0.3065 0.0
C518 C 0.28088 0.83347 0.32837 0.0
C519 C 0.25902 0.83012 0.34027 0.0
C520 C 0.29627 0.8157 0.32781 0.0
C521 C 0.25296 0.80889 0.35231 0.0
C522 C 0.26814 0.79123 0.3519 0.0
C523 C 0.30478 0.77647 0.33808 0.0
C524 C 0.32643 0.77942 0.32532 0.0
C525 C 0.28973 0.79439 0.33942 0.0
C526 C 0.33295 0.80075 0.31429 0.0
C527 C 0.31799 0.81873 0.31547 0.0
H528 H 0.20054 0.34614 0.31473 0.0
H529 H 0.24977 0.29947 0.35173 0.0
H530 H 0.22211 0.26985 0.35204 0.0
H531 H 0.18446 0.25688 0.34142 0.0
H532 H 0.13452 0.30272 0.30461 0.0
H533 H 0.16204 0.33295 0.30461 0.0
C534 C 0.20518 0.32951 0.32298 0.0
C535 C 0.22726 0.32511 0.33313 0.0
C536 C 0.18914 0.31236 0.32304 0.0
C537 C 0.23296 0.30342 0.3437 0.0
C538 C 0.21715 0.2864 0.34389 0.0
C539 C 0.17949 0.27345 0.33331 0.0
C540 C 0.15744 0.27747 0.32293 0.0
C541 C 0.19527 0.29066 0.33348 0.0
C542 C 0.15139 0.29913 0.31269 0.0
C543 C 0.16711 0.31642 0.3127 0.0
H544 H 0.73874 0.18491 0.31684 0.0
H545 H 0.68882 0.13463 0.29758 0.0
H546 H 0.65965 0.16327 0.29818 0.0
H547 H 0.64827 0.20252 0.30551 0.0
H548 H 0.69866 0.25239 0.32487 0.0
H549 H 0.72763 0.22387 0.32286 0.0
C550 C 0.7215 0.18014 0.31268 0.0
C551 C 0.71602 0.15761 0.3073 0.0
C552 C 0.70484 0.19662 0.31316 0.0
C553 C 0.69356 0.15184 0.30182 0.0
C554 C 0.67684 0.16821 0.30221 0.0
C555 C 0.66558 0.20717 0.30924 0.0
C556 C 0.67119 0.22961 0.31546 0.0
C557 C 0.68228 0.19064 0.30808 0.0
C558 C 0.69377 0.23529 0.32011 0.0
C559 C 0.7104 0.21898 0.31897 0.0
H560 H 0.78983 0.64788 0.31151 0.0
H561 H 0.73407 0.69371 0.30725 0.0
H562 H 0.75965 0.72527 0.30588 0.0
H563 H 0.79739 0.73999 0.3106 0.0
H564 H 0.85355 0.69478 0.31636 0.0
H565 H 0.82824 0.66285 0.31217 0.0
C566 C 0.7833 0.66476 0.30974 0.0
C567 C 0.76005 0.66841 0.30979 0.0
C568 C 0.79814 0.68296 0.30958 0.0
C569 C 0.75187 0.69041 0.30757 0.0
C570 C 0.76648 0.7085 0.30684 0.0
C571 C 0.80418 0.72317 0.31078 0.0
C572 C 0.82732 0.71981 0.31423 0.0
C573 C 0.78958 0.70498 0.30867 0.0
C574 C 0.83579 0.69787 0.31393 0.0
C575 C 0.82132 0.6796 0.31158 0.0
H576 H 0.69999 0.84501 0.80381 0.0
H577 H 0.75393 0.79851 0.82198 0.0
H578 H 0.72759 0.76764 0.82318 0.0
H579 H 0.68945 0.75374 0.82012 0.0
H580 H 0.63498 0.79964 0.80256 0.0
H581 H 0.66136 0.83078 0.80011 0.0
C582 C 0.70599 0.82811 0.80788 0.0
C583 C 0.72895 0.82417 0.81286 0.0
C584 C 0.69067 0.8103 0.80878 0.0
C585 C 0.73638 0.80214 0.8182 0.0
C586 C 0.72132 0.78441 0.81889 0.0
C587 C 0.68325 0.77053 0.81572 0.0
C588 C 0.66022 0.77429 0.81161 0.0
C589 C 0.69845 0.78831 0.81442 0.0
C590 C 0.65261 0.79622 0.8059 0.0
C591 C 0.66769 0.81406 0.80446 0.0
H592 H 0.145 0.70323 0.81089 0.0
H593 H 0.19307 0.75436 0.8353 0.0
H594 H 0.22333 0.72752 0.82987 0.0
H595 H 0.23632 0.68979 0.81893 0.0
H596 H 0.18901 0.63802 0.79476 0.0
H597 H 0.15834 0.66496 0.79918 0.0
C598 C 0.16209 0.7085 0.81505 0.0
C599 C 0.16666 0.73083 0.82359 0.0
C600 C 0.17959 0.69291 0.81186 0.0
C601 C 0.18895 0.73733 0.82876 0.0
C602 C 0.20635 0.72198 0.82564 0.0
C603 C 0.21933 0.6843 0.81451 0.0
C604 C 0.21503 0.66185 0.80657 0.0
C605 C 0.20185 0.69977 0.81727 0.0
C606 C 0.19285 0.65518 0.80091 0.0
C607 C 0.17528 0.67058 0.80349 0.0
H608 H 0.30007 0.23178 0.82864 0.0
H609 H 0.35081 0.18155 0.81283 0.0
H610 H 0.32212 0.15249 0.81239 0.0
H611 H 0.28264 0.14133 0.81798 0.0
H612 H 0.23241 0.19216 0.83388 0.0
H613 H 0.261 0.22094 0.83274 0.0
C614 C 0.30494 0.21449 0.82503 0.0
C615 C 0.3276 0.20888 0.82094 0.0
C616 C 0.28845 0.19793 0.82488 0.0
C617 C 0.3335 0.18637 0.81609 0.0
C618 C 0.3171 0.16973 0.81588 0.0
C619 C 0.27793 0.1587 0.82111 0.0
C620 C 0.25536 0.16448 0.82615 0.0
C621 C 0.29452 0.1753 0.82049 0.0
C622 C 0.24961 0.18713 0.83005 0.0
C623 C 0.26596 0.20366 0.82942 0.0
H624 H 0.79811 0.25248 0.81645 0.0
H625 H 0.85133 0.30072 0.80724 0.0
H626 H 0.82394 0.33114 0.80768 0.0
H627 H 0.78473 0.344 0.81203 0.0
H628 H 0.7322 0.29493 0.82186 0.0
H629 H 0.75956 0.26498 0.81979 0.0
C630 C 0.80383 0.26962 0.81445 0.0
C631 C 0.82679 0.27425 0.81191 0.0
C632 C 0.78808 0.28696 0.8149 0.0
C633 C 0.83376 0.29663 0.80928 0.0
C634 C 0.8181 0.31405 0.80955 0.0
C635 C 0.77928 0.32676 0.81361 0.0
C636 C 0.75639 0.32183 0.81723 0.0
C637 C 0.79519 0.30941 0.81256 0.0
C638 C 0.74967 0.29934 0.81923 0.0
C639 C 0.76531 0.28212 0.81803 0.0
H640 H 0.68755 0.23221 0.65147 0.0
H641 H 0.63623 0.1838 0.67371 0.0
H642 H 0.66393 0.15375 0.67139 0.0
H643 H 0.70268 0.1412 0.66173 0.0
H644 H 0.75341 0.1902 0.63883 0.0
H645 H 0.72587 0.21996 0.64267 0.0
C646 C 0.68235 0.21512 0.65598 0.0
C647 C 0.6598 0.21032 0.66271 0.0
C648 C 0.69825 0.19796 0.65432 0.0
C649 C 0.65347 0.18801 0.66845 0.0
C650 C 0.66929 0.1708 0.66707 0.0
C651 C 0.70771 0.15838 0.65758 0.0
C652 C 0.73012 0.16336 0.64989 0.0
C653 C 0.69173 0.17557 0.65977 0.0
C654 C 0.73631 0.18577 0.64469 0.0
C655 C 0.72057 0.20288 0.64691 0.0
H656 H 0.76036 0.68585 0.70546 0.0
H657 H 0.80587 0.63074 0.69074 0.0
H658 H 0.8376 0.6564 0.69335 0.0
H659 H 0.85187 0.69511 0.69261 0.0
H660 H 0.80549 0.74987 0.70497 0.0
H661 H 0.77471 0.72366 0.71049 0.0
C662 C 0.77722 0.67934 0.70326 0.0
C663 C 0.78069 0.65646 0.69736 0.0
C664 C 0.79526 0.69419 0.70392 0.0
C665 C 0.80269 0.6483 0.69514 0.0
C666 C 0.82085 0.66299 0.69639 0.0
C667 C 0.83508 0.70128 0.69699 0.0
C668 C 0.83098 0.72445 0.69779 0.0
C669 C 0.81726 0.68608 0.69963 0.0
C670 C 0.80912 0.73216 0.7037 0.0
C671 C 0.79146 0.71718 0.70692 0.0
H672 H 0.28595 0.8563 0.66898 0.0
H673 H 0.23424 0.80971 0.64125 0.0
H674 H 0.2614 0.77955 0.6397 0.0
H675 H 0.29947 0.76618 0.64593 0.0
H676 H 0.35185 0.8119 0.67357 0.0
H677 H 0.32472 0.84254 0.67552 0.0
C678 C 0.28064 0.83956 0.66255 0.0
C679 C 0.25802 0.83538 0.65523 0.0
C680 C 0.29642 0.82209 0.66174 0.0
C681 C 0.25147 0.81352 0.64704 0.0
C682 C 0.267 0.79619 0.64613 0.0
C683 C 0.30507 0.78282 0.65244 0.0
C684 C 0.32772 0.78667 0.65957 0.0
C685 C 0.28947 0.80027 0.65344 0.0
C686 C 0.33452 0.80841 0.66797 0.0
C687 C 0.31901 0.82596 0.66905 0.0
H688 H 0.18871 0.25454 0.65582 0.0
H689 H 0.13678 0.30326 0.67323 0.0
H690 H 0.16468 0.33314 0.67311 0.0
H691 H 0.20402 0.34535 0.66772 0.0
H692 H 0.25524 0.29578 0.65008 0.0
H693 H 0.22732 0.26642 0.65061 0.0
C694 C 0.18338 0.27167 0.65965 0.0
C695 C 0.16063 0.27659 0.66453 0.0
C696 C 0.19942 0.28868 0.65946 0.0
C697 C 0.15417 0.29895 0.66942 0.0
C698 C 0.17013 0.31606 0.66933 0.0
C699 C 0.20907 0.32814 0.66397 0.0
C700 C 0.23178 0.3229 0.65885 0.0
C701 C 0.19283 0.31112 0.6643 0.0
C702 C 0.23795 0.30043 0.65407 0.0
C703 C 0.22198 0.28354 0.65438 0.0
H704 H 0.18625 0.10351 0.05692 0.0
H705 H 0.2571 0.0909 0.05588 0.0
H706 H 0.25588 0.0849 -0.00404 0.0
H707 H 0.23514 0.08912 0.94314 0.0
H708 H 0.16437 0.103 0.94622 0.0
H709 H 0.16492 0.10217 0.00614 0.0
C710 C 0.20135 0.09905 0.04359 0.0
C711 C 0.22176 0.098 0.06034 0.0
C712 C 0.2005 0.09598 0.00953 0.0
C713 C 0.24121 0.09185 0.04322 0.0
C714 C 0.24051 0.08857 0.00902 0.0
C715 C 0.2198 0.09135 0.95704 0.0
C716 C 0.19981 0.09648 0.94045 0.0
C717 C 0.22034 0.09142 -0.00826 0.0
C718 C 0.18001 0.09938 0.95857 0.0
C719 C 0.1803 0.09895 -0.0072 0.0
H720 H 0.89858 0.24208 0.93371 0.0
H721 H 0.88413 0.17203 0.92094 0.0
H722 H 0.88712 0.16579 0.97999 0.0
H723 H 0.88861 0.18084 0.03527 0.0
H724 H 0.90164 0.25082 0.05046 0.0
H725 H 0.90482 0.25653 -0.0094 0.0
C726 C 0.89663 0.22543 0.94396 0.0
C727 C 0.89084 0.20758 0.92322 0.0
C728 C 0.89783 0.22201 0.97832 0.0
C729 C 0.88827 0.18605 0.93659 0.0
C730 C 0.88996 0.18246 0.97032 0.0
C731 C 0.89246 0.1973 0.0255 0.0
C732 C 0.8945 0.21544 0.047 0.0
C733 C 0.89387 0.20043 -0.00857 0.0
C734 C 0.89992 0.23661 0.03421 0.0
C735 C 0.90158 0.23988 3e-05 0.0
H736 H 0.73541 0.89685 0.92062 0.0
H737 H 0.8047 0.91603 0.9244 0.0
H738 H 0.80246 0.91994 0.98416 0.0
H739 H 0.78331 0.90977 0.03523 0.0
H740 H 0.71512 0.88726 0.03268 0.0
H741 H 0.71403 0.89306 0.97274 0.0
C742 C 0.74966 0.90275 0.93455 0.0
C743 C 0.77019 0.90616 0.91848 0.0
C744 C 0.74849 0.90394 0.96915 0.0
C745 C 0.78877 0.91338 0.93653 0.0
C746 C 0.78753 0.91545 0.97065 0.0
C747 C 0.76798 0.90701 0.02158 0.0
C748 C 0.74932 0.89823 0.0379 0.0
C749 C 0.76786 0.90958 0.98728 0.0
C750 C 0.72956 0.8943 0.02034 0.0
C751 C 0.72906 0.89739 0.98611 0.0
H752 H 0.08412 0.75021 0.9424 0.0
H753 H 0.09572 0.82135 0.94094 0.0
H754 H 0.08813 0.82345 -0.00023 0.0
H755 H 0.08446 0.80451 0.05239 0.0
H756 H 0.07595 0.73305 0.05624 0.0
H757 H 0.07529 0.73163 -0.00417 0.0
C758 C 0.08448 0.76616 0.95497 0.0
C759 C 0.09084 0.78554 0.93765 0.0
C760 C 0.08076 0.76716 0.98923 0.0
C761 C 0.09126 0.80617 0.95401 0.0
C762 C 0.08688 0.8074 0.9876 0.0
C763 C 0.08195 0.78867 0.04002 0.0
C764 C 0.08066 0.7689 0.0586 0.0
C765 C 0.08257 0.78791 0.00562 0.0
C766 C 0.07702 0.74852 0.04238 0.0
C767 C 0.07692 0.74768 0.00785 0.0
H768 H 0.17353 0.91523 0.44265 0.0
H769 H 0.24504 0.91503 0.4307 0.0
H770 H 0.2498 0.91961 0.49033 0.0
H771 H 0.23328 0.91547 0.54629 0.0
H772 H 0.16159 0.91301 0.55654 0.0
H773 H 0.15713 0.91813 0.49734 0.0
C774 C 0.19014 0.91688 0.45306 0.0
C775 C 0.20889 0.91443 0.43267 0.0
C776 C 0.19266 0.91872 0.48718 0.0
C777 C 0.23036 0.91686 0.44611 0.0
C778 C 0.23306 0.91922 0.48022 0.0
C779 C 0.21675 0.91681 0.53553 0.0
C780 C 0.19778 0.91355 0.55542 0.0
C781 C 0.21432 0.91895 0.50115 0.0
C782 C 0.1764 0.91521 0.54145 0.0
C783 C 0.17384 0.91807 0.50764 0.0
H784 H 0.08559 0.24738 0.54642 0.0
H785 H 0.0987 0.17675 0.55626 0.0
H786 H 0.09469 0.17187 0.4971 0.0
H787 H 0.09366 0.18836 0.44243 0.0
H788 H 0.08235 0.259 0.43033 0.0
H789 H 0.07899 0.26326 0.49037 0.0
C790 C 0.08697 0.23091 0.53554 0.0
C791 C 0.09277 0.21249 0.55539 0.0
C792 C 0.08524 0.22829 0.50114 0.0
C793 C 0.09458 0.19119 0.54124 0.0
C794 C 0.09231 0.18837 0.50746 0.0
C795 C 0.09001 0.20462 0.45294 0.0
C796 C 0.08862 0.22338 0.43232 0.0
C797 C 0.08863 0.20692 0.48712 0.0
C798 C 0.08352 0.24433 0.44594 0.0
C799 C 0.0818 0.24677 0.48022 0.0
H800 H 0.74739 0.08425 0.5343 0.0
H801 H 0.81938 0.08723 0.53621 0.0
H802 H 0.82087 0.08196 0.47679 0.0
H803 H 0.80184 0.08332 0.42401 0.0
H804 H 0.72997 0.08242 0.41984 0.0
H805 H 0.72813 0.07963 0.48028 0.0
C806 C 0.76333 0.08306 0.52167 0.0
C807 C 0.78325 0.08636 0.53934 0.0
C808 C 0.76404 0.08073 0.48712 0.0
C809 C 0.80386 0.08496 0.5229 0.0
C810 C 0.80473 0.08201 0.48897 0.0
C811 C 0.78579 0.08193 0.43636 0.0
C812 C 0.76609 0.08333 0.41785 0.0
C813 C 0.78495 0.08093 0.47075 0.0
C814 C 0.74535 0.08132 0.4338 0.0
C815 C 0.74433 0.07996 0.46831 0.0
H816 H 0.88463 0.80248 0.5546 0.0
H817 H 0.903 0.73302 0.56242 0.0
H818 H 0.90392 0.73018 0.50189 0.0
H819 H 0.89523 0.74703 0.44674 0.0
H820 H 0.87543 0.81637 0.44205 0.0
H821 H 0.87953 0.81976 0.50134 0.0
C822 C 0.889 0.78671 0.54311 0.0
C823 C 0.89332 0.76789 0.56278 0.0
C824 C 0.88913 0.78521 0.50881 0.0
C825 C 0.89949 0.74772 0.54764 0.0
C826 C 0.89989 0.74609 0.5131 0.0
C827 C 0.89223 0.76289 0.45882 0.0
C828 C 0.88477 0.78137 0.44025 0.0
C829 C 0.89413 0.76464 0.49338 0.0
C830 C 0.88087 0.80187 0.45598 0.0
C831 C 0.88321 0.80384 0.48985 0.0
H832 H 0.73583 0.57597 0.55084 0.0
H833 H 0.75178 0.64619 0.55497 0.0
H834 H 0.75516 0.64767 0.49524 0.0
H835 H 0.74699 0.63092 0.44215 0.0
H836 H 0.7291 0.56145 0.43598 0.0
H837 H 0.73343 0.55748 0.49601 0.0
C838 C 0.74065 0.59136 0.53857 0.0
C839 C 0.74322 0.61104 0.55705 0.0
C840 C 0.74192 0.59226 0.5039 0.0
C841 C 0.74941 0.63095 0.54108 0.0
C842 C 0.75131 0.63182 0.50696 0.0
C843 C 0.74467 0.61477 0.45394 0.0
C844 C 0.73759 0.59656 0.43511 0.0
C845 C 0.7466 0.61288 0.48815 0.0
C846 C 0.73466 0.57565 0.45024 0.0
C847 C 0.73692 0.57348 0.48453 0.0
H848 H 0.40077 0.75119 0.43007 0.0
H849 H 0.39463 0.67943 0.42726 0.0
H850 H 0.3984 0.67742 0.48696 0.0
H851 H 0.39612 0.69635 0.5398 0.0
H852 H 0.40036 0.76807 0.54451 0.0
H853 H 0.40499 0.76998 0.48433 0.0
C854 C 0.40105 0.73514 0.44258 0.0
C855 C 0.39722 0.71548 0.42459 0.0
C856 C 0.40244 0.73418 0.4772 0.0
C857 C 0.39739 0.69474 0.44084 0.0
C858 C 0.39942 0.69359 0.47493 0.0
C859 C 0.39862 0.71235 0.52764 0.0
C860 C 0.3976 0.73204 0.54612 0.0
C861 C 0.4008 0.71324 0.49337 0.0
C862 C 0.40109 0.75271 0.53051 0.0
C863 C 0.40355 0.75378 0.49616 0.0
H864 H 0.31751 0.39812 0.43995 0.0
H865 H 0.24645 0.40802 0.43126 0.0
H866 H 0.24315 0.41048 0.49146 0.0
H867 H 0.25989 0.40261 0.54641 0.0
H868 H 0.33075 0.38994 0.55294 0.0
H869 H 0.33482 0.39598 0.4939 0.0
C870 C 0.30137 0.40138 0.45124 0.0
C871 C 0.28222 0.40252 0.43146 0.0
C872 C 0.29957 0.40191 0.48556 0.0
C873 C 0.26144 0.40708 0.44613 0.0
C874 C 0.25954 0.40822 0.48054 0.0
C875 C 0.27624 0.40175 0.53489 0.0
C876 C 0.29495 0.39547 0.55371 0.0
C877 C 0.27836 0.40456 0.50054 0.0
C878 C 0.31608 0.39438 0.53871 0.0
C879 C 0.31843 0.39784 0.50499 0.0
H880 H 0.59982 0.30231 0.54498 0.0
H881 H 0.58619 0.23167 0.54685 0.0
H882 H 0.58426 0.23133 0.48629 0.0
H883 H 0.59207 0.25058 0.4329 0.0
H884 H 0.60741 0.32103 0.4335 0.0
H885 H 0.60281 0.32209 0.49299 0.0
C886 C 0.59607 0.28689 0.53213 0.0
C887 C 0.59353 0.267 0.55004 0.0
C888 C 0.5955 0.28681 0.49774 0.0
C889 C 0.58826 0.24719 0.53336 0.0
C890 C 0.58734 0.24698 0.49881 0.0
C891 C 0.5939 0.26618 0.44611 0.0
C892 C 0.60044 0.28562 0.42904 0.0
C893 C 0.59176 0.26658 0.48069 0.0
C894 C 0.60277 0.30579 0.44626 0.0
C895 C 0.60013 0.30643 0.48025 0.0
H896 H 0.73869 0.40043 0.93267 0.0
H897 H 0.66729 0.39066 0.9362 0.0
H898 H 0.66736 0.39602 -0.00442 0.0
H899 H 0.68806 0.39751 0.04681 0.0
H900 H 0.75958 0.40515 0.04582 0.0
H901 H 0.75923 0.40709 0.9852 0.0
C902 C 0.72316 0.40003 0.94648 0.0
C903 C 0.70304 0.39484 0.9303 0.0
C904 C 0.7234 0.40252 0.98102 0.0
C905 C 0.68299 0.3943 0.94829 0.0
C906 C 0.68301 0.39736 0.98222 0.0
C907 C 0.70353 0.40009 0.0333 0.0
C908 C 0.72382 0.40092 0.05042 0.0
C909 C 0.70317 0.40054 -0.00111 0.0
C910 C 0.74376 0.40452 0.03294 0.0
C911 C 0.74354 0.40539 -0.00165 0.0
H912 H 0.58684 0.67691 0.03141 0.0
H913 H 0.58108 0.74748 0.05011 0.0
H914 H 0.58024 0.75499 -0.00949 0.0
H915 H 0.58755 0.74143 0.93333 0.0
H916 H 0.59577 0.67069 0.91722 0.0
H917 H 0.58901 0.6632 0.97538 0.0
C918 C 0.58493 0.69391 0.02242 0.0
C919 C 0.58436 0.71164 0.04489 0.0
C920 C 0.58517 0.69804 0.9885 0.0
C921 C 0.58155 0.73357 0.03313 0.0
C922 C 0.5813 0.73785 -0.00092 0.0
C923 C 0.58727 0.72442 0.94261 0.0
C924 C 0.59237 0.70662 0.92132 0.0
C925 C 0.58405 0.72025 0.97653 0.0
C926 C 0.59213 0.68461 0.93339 0.0
C927 C 0.58829 0.68032 0.96659 0.0
H928 H 0.25261 0.58286 0.02698 0.0
H929 H 0.32169 0.60263 0.03437 0.0
H930 H 0.32556 0.60146 0.97468 0.0
H931 H 0.30801 0.6007 0.92084 0.0
H932 H 0.23863 0.58274 0.91149 0.0
H933 H 0.23614 0.57693 0.97137 0.0
C934 C 0.2686 0.58627 0.0154 0.0
C935 C 0.28679 0.59308 0.03479 0.0
C936 C 0.27053 0.58623 0.9808 0.0
C937 C 0.30743 0.59761 0.01974 0.0
C938 C 0.30965 0.597 0.98567 0.0
C939 C 0.29242 0.59517 0.93188 0.0
C940 C 0.27343 0.59256 0.9121 0.0
C941 C 0.29108 0.59231 0.966 0.0
C942 C 0.25345 0.58495 0.92641 0.0
C943 C 0.252 0.58178 0.96062 0.0
H944 H 0.40108 0.29786 0.93582 0.0
H945 H 0.40502 0.22601 0.9357 0.0
H946 H 0.41271 0.22603 -0.00476 0.0
H947 H 0.41241 0.24669 0.04832 0.0
H948 H 0.40751 0.31865 0.04657 0.0
H949 H 0.40664 0.31849 0.98664 0.0
C950 C 0.40403 0.28224 0.9488 0.0
C951 C 0.40214 0.26197 0.9319 0.0
C952 C 0.40819 0.28245 0.98265 0.0
C953 C 0.40634 0.2418 0.94852 0.0
C954 C 0.4106 0.24184 0.98249 0.0
C955 C 0.41181 0.2623 0.03469 0.0
C956 C 0.40965 0.28263 0.05173 0.0
C957 C 0.41075 0.26206 3e-05 0.0
C958 C 0.40885 0.30279 0.03392 0.0
C959 C 0.40828 0.30272 -0.00032 0.0
H960 H 0.22555 0.01806 0.18413 0.0
H961 H 0.28275 0.03957 0.24017 0.0
H962 H 0.28432 0.0031 0.26777 0.0
H963 H 0.26646 0.96657 0.28042 0.0
H964 H 0.20713 0.94763 0.2274 0.0
H965 H 0.20946 0.98147 0.19389 0.0
C966 C 0.2386 0.01472 0.20202 0.0
C967 C 0.25388 0.03156 0.21029 0.0
C968 C 0.23889 0.99415 0.21849 0.0
C969 C 0.2707 0.0269 0.23348 0.0
C970 C 0.27156 0.00608 0.24935 0.0
C971 C 0.25438 0.96979 0.26107 0.0
C972 C 0.23665 0.95483 0.25621 0.0
C973 C 0.25532 0.98979 0.24274 0.0
C974 C 0.22084 0.95909 0.23149 0.0
C975 C 0.22215 0.9784 0.2124 0.0
H976 H 0.94639 0.25181 0.25069 0.0
H977 H 0.97636 0.24977 0.15405 0.0
H978 H 0.01339 0.25526 0.17823 0.0
H979 H 0.03745 0.25585 0.22723 0.0
H980 H 0.00769 0.25254 0.32395 0.0
H981 H 0.97033 0.25422 0.29959 0.0
C982 C 0.961 0.25309 0.23494 0.0
C983 C 0.95876 0.2505 0.20071 0.0
C984 C 0.98226 0.25507 0.24914 0.0
C985 C 0.97778 0.25173 0.1805 0.0
C986 C -0.00108 0.25479 0.19432 0.0
C987 C 0.02275 0.25601 0.24292 0.0
C988 C 0.02518 0.25418 0.27726 0.0
C989 C 0.00141 0.2558 0.22866 0.0
C990 C 0.00611 0.25395 0.29743 0.0
C991 C 0.9848 0.25484 0.28351 0.0
H992 H 0.73163 0.0054 0.29454 0.0
H993 H 0.72431 0.0455 0.20667 0.0
H994 H 0.72114 0.01178 0.17329 0.0
H995 H 0.72502 0.97092 0.16848 0.0
H996 H 0.72983 0.93075 0.25664 0.0
H997 H 0.72913 0.96439 0.29057 0.0
C998 C 0.72891 0.00669 0.26817 0.0
C999 C 0.7285 0.0278 0.25298 0.0
C1000 C 0.72684 0.98724 0.24917 0.0
C1001 C 0.72468 0.02937 0.21889 0.0
C1002 C 0.72302 0.01011 0.19975 0.0
C1003 C 0.7255 0.96958 0.19515 0.0
C1004 C 0.72778 0.94851 0.21008 0.0
C1005 C 0.72477 0.98897 0.21451 0.0
C1006 C 0.72809 0.94686 0.24463 0.0
C1007 C 0.72782 0.96608 0.26403 0.0
H1008 H 0.03531 0.76019 0.25303 0.0
H1009 H 0.01538 0.70218 0.19806 0.0
H1010 H 0.97934 0.70159 0.22746 0.0
H1011 H 0.9524 0.72025 0.26508 0.0
H1012 H 0.97392 0.77782 0.32049 0.0
H1013 H 0.01065 0.77571 0.29501 0.0
C1014 C 0.02314 0.74723 0.24787 0.0
C1015 C 0.02765 0.73141 0.22336 0.0
C1016 C 0.0028 0.74701 0.26485 0.0
C1017 C 0.01209 0.7145 0.21695 0.0
C1018 C 0.99152 0.71427 0.23361 0.0
C1019 C 0.96525 0.7321 0.27192 0.0
C1020 C 0.96029 0.74938 0.2943 0.0
C1021 C 0.98649 0.73082 0.25707 0.0
C1022 C 0.97718 0.76448 0.30316 0.0
C1023 C -0.00179 0.76334 0.28854 0.0
H1024 H 0.73457 0.97662 0.78837 0.0
H1025 H 0.73955 0.9357 0.70143 0.0
H1026 H 0.73864 0.96904 0.66648 0.0
H1027 H 0.74164 0.01002 0.66137 0.0
H1028 H 0.73409 0.05083 0.74804 0.0
H1029 H 0.73043 0.01741 0.78234 0.0
C1030 C 0.73492 0.97504 0.76174 0.0
C1031 C 0.73741 0.95386 0.74744 0.0
C1032 C 0.73414 0.99425 0.74179 0.0
C1033 C 0.73761 0.95189 0.71295 0.0
C1034 C 0.73726 0.97095 0.69296 0.0
C1035 C 0.7387 0.01153 0.68766 0.0
C1036 C 0.73844 0.03275 0.70228 0.0
C1037 C 0.73632 0.99224 0.70719 0.0
C1038 C 0.73435 0.03462 0.73627 0.0
C1039 C 0.73241 0.01552 0.75593 0.0
H1040 H 0.95419 0.72956 0.76294 0.0
H1041 H 0.98378 0.73283 0.66606 0.0
H1042 H 0.02114 0.7304 0.69027 0.0
H1043 H 0.04508 0.73345 0.7391 0.0
H1044 H 0.01514 0.73576 0.83577 0.0
H1045 H 0.9782 0.72958 0.81174 0.0
C1046 C 0.96881 0.72912 0.74711 0.0
C1047 C 0.96634 0.73136 0.71283 0.0
C1048 C 0.99016 0.72901 0.76129 0.0
C1049 C 0.98537 0.73115 0.69255 0.0
C1050 C 0.00669 0.72987 0.7064 0.0
C1051 C 0.03051 0.732 0.75492 0.0
C1052 C 0.03269 0.73504 0.78908 0.0
C1053 C 0.00928 0.72969 0.74077 0.0
C1054 C 0.01374 0.73351 0.80937 0.0
C1055 C 0.99266 0.73007 0.79563 0.0
H1056 H 0.24856 0.95365 0.75657 0.0
H1057 H 0.2499 0.98728 0.66247 0.0
H1058 H 0.25325 0.02343 0.69008 0.0
H1059 H 0.25002 0.04547 0.7407 0.0
H1060 H 0.24266 0.01195 0.83432 0.0
H1061 H 0.24773 0.9757 0.80748 0.0
C1062 C 0.25022 0.96888 0.74219 0.0
C1063 C 0.24914 0.96794 0.70764 0.0
C1064 C 0.25076 0.98959 0.75826 0.0
C1065 C 0.25076 0.98772 0.68913 0.0
C1066 C 0.25257 0.00834 0.70491 0.0
C1067 C 0.25011 0.03024 0.75529 0.0
C1068 C 0.24606 0.03126 0.78938 0.0
C1069 C 0.25174 0.00951 0.73944 0.0
C1070 C 0.24576 0.01146 0.80801 0.0
C1071 C 0.24857 0.99079 0.79266 0.0
H1072 H 0.9482 0.26093 0.72836 0.0
H1073 H 0.97695 0.25485 0.82533 0.0
H1074 H 0.01446 0.25928 0.80201 0.0
H1075 H 0.03903 0.2599 0.75348 0.0
H1076 H 0.01025 0.26045 0.65615 0.0
H1077 H 0.97275 0.26347 0.67998 0.0
C1078 C 0.96267 0.26111 0.74442 0.0
C1079 C 0.95993 0.25768 0.77847 0.0
C1080 C 0.98415 0.26246 0.73064 0.0
C1081 C 0.97876 0.25748 0.79903 0.0
C1082 C 0.00016 0.25994 0.78569 0.0
C1083 C 0.02455 0.26124 0.73753 0.0
C1084 C 0.02728 0.26009 0.70317 0.0
C1085 C 0.00307 0.26173 0.75144 0.0
C1086 C 0.00845 0.26134 0.68269 0.0
C1087 C 0.98705 0.26298 0.69631 0.0
H1088 H 0.75317 0.53577 0.75539 0.0
H1089 H 0.74879 0.50855 0.65737 0.0
H1090 H 0.74884 0.47058 0.68015 0.0
H1091 H 0.74602 0.44548 0.72823 0.0
H1092 H 0.74546 0.47333 0.82607 0.0
H1093 H 0.75171 0.51072 0.80324 0.0
C1094 C 0.75267 0.5215 0.739 0.0
C1095 C 0.75107 0.52487 0.70478 0.0
C1096 C 0.75165 0.49987 0.75234 0.0
C1097 C 0.75002 0.5063 0.68381 0.0
C1098 C 0.75 0.48463 0.69683 0.0
C1099 C 0.74774 0.45972 0.7445 0.0
C1100 C 0.74545 0.45677 0.77873 0.0
C1101 C 0.75023 0.48125 0.73109 0.0
C1102 C 0.74722 0.4753 0.79963 0.0
C1103 C 0.75072 0.49664 0.78659 0.0
H1104 H 0.53952 0.75909 0.7252 0.0
H1105 H 0.51118 0.74991 0.82207 0.0
H1106 H 0.4736 0.75555 0.79978 0.0
H1107 H 0.44873 0.75885 0.75184 0.0
H1108 H 0.47702 0.76296 0.65423 0.0
H1109 H 0.51471 0.76385 0.67754 0.0
C1110 C 0.52512 0.75877 0.74148 0.0
C1111 C 0.52801 0.75418 0.77519 0.0
C1112 C 0.50358 0.76097 0.72823 0.0
C1113 C 0.50927 0.7534 0.79601 0.0
C1114 C 0.48782 0.75658 0.78327 0.0
C1115 C 0.46317 0.76043 0.73579 0.0
C1116 C 0.46023 0.76098 0.70146 0.0
C1117 C 0.48474 0.75978 0.74929 0.0
C1118 C 0.47899 0.76255 0.68077 0.0
C1119 C 0.50049 0.76298 0.69408 0.0
H1120 H 0.2402 0.44851 0.74551 0.0
H1121 H 0.24648 0.47352 0.64617 0.0
H1122 H 0.24082 0.51177 0.6657 0.0
H1123 H 0.23897 0.53827 0.71178 0.0
H1124 H 0.23806 0.51337 0.81159 0.0
H1125 H 0.23644 0.47492 0.79137 0.0
C1126 C 0.2398 0.46233 0.72813 0.0
C1127 C 0.24364 0.45833 0.69451 0.0
C1128 C 0.23772 0.48429 0.73976 0.0
C1129 C 0.24355 0.47631 0.67219 0.0
C1130 C 0.24039 0.49814 0.68336 0.0
C1131 C 0.23789 0.5244 0.72901 0.0
C1132 C 0.23853 0.5285 0.76305 0.0
C1133 C 0.23816 0.50238 0.7172 0.0
C1134 C 0.23758 0.51049 0.78525 0.0
C1135 C 0.23673 0.48855 0.7737 0.0
H1136 H 0.44788 0.22305 0.72756 0.0
H1137 H 0.47823 0.22133 0.82381 0.0
H1138 H 0.51526 0.21775 0.79865 0.0
H1139 H 0.53905 0.22052 0.74955 0.0
H1140 H 0.50884 0.22768 0.65369 0.0
H1141 H 0.47167 0.22342 0.67818 0.0
C1142 C 0.46259 0.22132 0.74295 0.0
C1143 C 0.46047 0.22238 0.7774 0.0
C1144 C 0.48382 0.2205 0.7283 0.0
C1145 C 0.47958 0.22056 0.7972 0.0
C1146 C 0.50071 0.2186 0.78283 0.0
C1147 C 0.52433 0.2206 0.73397 0.0
C1148 C 0.52657 0.22436 0.69993 0.0
C1149 C 0.50307 0.21934 0.74843 0.0
C1150 C 0.50743 0.22482 0.68 0.0
C1151 C 0.48622 0.22247 0.694 0.0
H1152 H 0.22587 0.52187 0.20763 0.0
H1153 H 0.28881 0.50797 0.15949 0.0
H1154 H 0.29207 0.47301 0.1898 0.0
H1155 H 0.27911 0.44826 0.23368 0.0
H1156 H 0.21564 0.46017 0.28067 0.0
H1157 H 0.21043 0.49413 0.24712 0.0
C1158 C 0.24008 0.51099 0.20339 0.0
C1159 C 0.25723 0.5177 0.18168 0.0
C1160 C 0.24191 0.49078 0.22101 0.0
C1161 C 0.27545 0.50333 0.1762 0.0
C1162 C 0.27741 0.48335 0.19365 0.0
C1163 C 0.26408 0.45827 0.2364 0.0
C1164 C 0.24797 0.45219 0.25988 0.0
C1165 C 0.26111 0.47728 0.21676 0.0
C1166 C 0.2283 0.4648 0.26281 0.0
C1167 C 0.22538 0.48415 0.2437 0.0
H1168 H 0.55089 0.23419 0.2305 0.0
H1169 H 0.51948 0.23927 0.32589 0.0
H1170 H 0.48278 0.23343 0.30081 0.0
H1171 H 0.45951 0.2329 0.25104 0.0
H1172 H 0.49082 0.23395 0.15533 0.0
H1173 H 0.52772 0.23095 0.18098 0.0
C1174 C 0.53604 0.23343 0.24584 0.0
C1175 C 0.53776 0.23711 0.27992 0.0
C1176 C 0.51499 0.23136 0.23103 0.0
C1177 C 0.51845 0.2365 0.29956 0.0
C1178 C 0.49751 0.23325 0.28522 0.0
C1179 C 0.47442 0.23179 0.23587 0.0
C1180 C 0.47261 0.23348 0.20144 0.0
C1181 C 0.49553 0.2315 0.25086 0.0
C1182 C 0.49195 0.23258 0.18191 0.0
C1183 C 0.51299 0.23101 0.19657 0.0
H1184 H 0.76228 0.51599 0.30175 0.0
H1185 H 0.75295 0.55758 0.21582 0.0
H1186 H 0.75657 0.52502 0.18013 0.0
H1187 H 0.75733 0.48408 0.17409 0.0
H1188 H 0.76893 0.44274 0.2597 0.0
H1189 H 0.76991 0.47581 0.29467 0.0
C1190 C 0.7615 0.51792 0.27518 0.0
C1191 C 0.75703 0.539 0.26142 0.0
C1192 C 0.76386 0.49917 0.25476 0.0
C1193 C 0.75635 0.54145 0.22697 0.0
C1194 C 0.75828 0.52283 0.20654 0.0
C1195 C 0.76057 0.48241 0.20029 0.0
C1196 C 0.76273 0.46106 0.21439 0.0
C1197 C 0.76129 0.50151 0.22025 0.0
C1198 C 0.76719 0.45905 0.24828 0.0
C1199 C 0.76759 0.47793 0.26836 0.0
H1200 H 0.47532 0.7509 0.3016 0.0
H1201 H 0.43504 0.75918 0.2144 0.0
H1202 H 0.46851 0.75808 0.17986 0.0
H1203 H 0.50874 0.74984 0.17428 0.0
H1204 H 0.54931 0.74433 0.26164 0.0
H1205 H 0.51633 0.74957 0.29635 0.0
C1206 C 0.47399 0.75296 0.2751 0.0
C1207 C 0.45285 0.75483 0.26047 0.0
C1208 C 0.49331 0.7526 0.25544 0.0
C1209 C 0.45122 0.75774 0.22617 0.0
C1210 C 0.47032 0.75694 0.20639 0.0
C1211 C 0.51034 0.75025 0.2009 0.0
C1212 C 0.53125 0.74642 0.21547 0.0
C1213 C 0.49137 0.75363 0.22069 0.0
C1214 C 0.53331 0.74725 0.24993 0.0
C1215 C 0.51446 0.7501 0.26979 0.0
H1216 H 0.16875 0.13853 0.18728 0.0
H1217 H 0.19411 0.11912 0.28269 0.0
H1218 H 0.16488 0.14132 0.30953 0.0
H1219 H 0.13368 0.16796 0.30559 0.0
H1220 H 0.11101 0.19015 0.21 0.0
H1221 H 0.1375 0.16478 0.18334 0.0
C1222 C 0.16779 0.13898 0.21397 0.0
C1223 C 0.18355 0.12722 0.23304 0.0
C1224 C 0.15144 0.15226 0.22909 0.0
C1225 C 0.1822 0.12812 0.26755 0.0
C1226 C 0.1655 0.14078 0.28285 0.0
C1227 C 0.13437 0.16708 0.27893 0.0
C1228 C 0.12043 0.18089 0.25972 0.0
C1229 C 0.15024 0.15316 0.26384 0.0
C1230 C 0.12161 0.17968 0.22523 0.0
C1231 C 0.13678 0.16525 0.21002 0.0
H1232 H 0.86046 0.15334 0.17366 0.0
H1233 H 0.88183 0.17617 0.26927 0.0
H1234 H 0.85689 0.1492 0.29591 0.0
H1235 H 0.82622 0.12222 0.29184 0.0
H1236 H 0.80171 0.10289 0.1962 0.0
H1237 H 0.83074 0.12541 0.16958 0.0
C1238 C 0.85989 0.15224 0.20033 0.0
C1239 C 0.87286 0.1668 0.21952 0.0
C1240 C 0.84479 0.13748 0.21538 0.0
C1241 C 0.87191 0.16518 0.25403 0.0
C1242 C 0.85762 0.14983 0.26923 0.0
C1243 C 0.82744 0.12268 0.26518 0.0
C1244 C 0.81186 0.11098 0.24593 0.0
C1245 C 0.84354 0.13636 0.25013 0.0
C1246 C 0.8135 0.11186 0.21144 0.0
C1247 C 0.83005 0.12473 0.19627 0.0
H1248 H 0.86776 0.80868 0.21875 0.0
H1249 H 0.85695 0.83777 0.31474 0.0
H1250 H 0.82963 0.86349 0.29174 0.0
H1251 H 0.80607 0.87534 0.24562 0.0
H1252 H 0.81764 0.84804 0.14892 0.0
H1253 H 0.84745 0.82421 0.17079 0.0
C1254 C 0.85964 0.82086 0.23447 0.0
C1255 C 0.86411 0.82099 0.26847 0.0
C1256 C 0.84394 0.83584 0.22105 0.0
C1257 C 0.85369 0.8371 0.28851 0.0
C1258 C 0.83798 0.85183 0.27544 0.0
C1259 C 0.81534 0.86436 0.22932 0.0
C1260 C 0.80954 0.86316 0.19593 0.0
C1261 C 0.83254 0.85094 0.24196 0.0
C1262 C 0.82182 0.84916 0.17483 0.0
C1263 C 0.83879 0.83547 0.18733 0.0
H1264 H 0.1906 0.82985 0.27919 0.0
H1265 H 0.1475 0.88509 0.25431 0.0
H1266 H 0.119 0.85907 0.23421 0.0
H1267 H 0.10696 0.8206 0.22278 0.0
H1268 H 0.14916 0.76531 0.25138 0.0
H1269 H 0.17731 0.79133 0.27175 0.0
C1270 C 0.17501 0.83609 0.26904 0.0
C1271 C 0.17116 0.85919 0.2673 0.0
C1272 C 0.15854 0.82106 0.25875 0.0
C1273 C 0.15076 0.86728 0.25526 0.0
C1274 C 0.13451 0.85245 0.24398 0.0
C1275 C 0.12223 0.81428 0.23382 0.0
C1276 C 0.12606 0.79113 0.23544 0.0
C1277 C 0.13826 0.82931 0.24556 0.0
C1278 C 0.14579 0.78308 0.25001 0.0
C1279 C 0.16197 0.79794 0.26139 0.0
H1280 H 0.87444 0.83184 0.6856 0.0
H1281 H 0.89114 0.80774 0.7829 0.0
H1282 H 0.8659 0.8354 0.80729 0.0
H1283 H 0.83552 0.86273 0.80033 0.0
H1284 H 0.81548 0.88277 0.7025 0.0
H1285 H 0.84568 0.86038 0.67878 0.0
C1286 C 0.87284 0.8328 0.71219 0.0
C1287 C 0.88444 0.81758 0.73243 0.0
C1288 C 0.85748 0.84785 0.72583 0.0
C1289 C 0.88225 0.81918 0.76681 0.0
C1290 C 0.86776 0.8349 0.78073 0.0
C1291 C 0.83802 0.86248 0.77386 0.0
C1292 C 0.8233 0.87426 0.75309 0.0
C1293 C 0.85472 0.84876 0.7604 0.0
C1294 C 0.82657 0.8737 0.71886 0.0
C1295 C 0.84379 0.8609 0.70534 0.0
H1296 H 0.15263 0.87002 0.68661 0.0
H1297 H 0.1812 0.89088 0.77905 0.0
H1298 H 0.15524 0.86654 0.80892 0.0
H1299 H 0.12727 0.83677 0.80821 0.0
H1300 H 0.10246 0.81223 0.71538 0.0
H1301 H 0.12405 0.84077 0.68597 0.0
C1302 C 0.15303 0.86943 0.71331 0.0
C1303 C 0.16886 0.88211 0.73068 0.0
C1304 C 0.13886 0.85464 0.7301 0.0
C1305 C 0.16921 0.88116 0.76523 0.0
C1306 C 0.15442 0.86723 0.78225 0.0
C1307 C 0.12639 0.83779 0.78156 0.0
C1308 C 0.11341 0.82237 0.7639 0.0
C1309 C 0.13961 0.85348 0.76487 0.0
C1310 C 0.11245 0.82388 0.72941 0.0
C1311 C 0.1248 0.84014 0.71265 0.0
H1312 H 0.1254 0.16428 0.68532 0.0
H1313 H 0.10171 0.19057 0.77794 0.0
H1314 H 0.12187 0.16107 0.80761 0.0
H1315 H 0.14879 0.13018 0.80715 0.0
H1316 H 0.17619 0.10724 0.71479 0.0
H1317 H 0.15153 0.13283 0.68481 0.0
C1318 C 0.12444 0.16344 0.712 0.0
C1319 C 0.11219 0.1796 0.72952 0.0
C1320 C 0.13673 0.14707 0.7288 0.0
C1321 C 0.11116 0.17836 0.76402 0.0
C1322 C 0.12267 0.16152 0.78092 0.0
C1323 C 0.14924 0.1306 0.78045 0.0
C1324 C 0.16442 0.11699 0.76315 0.0
C1325 C 0.1359 0.14612 0.76357 0.0
C1326 C 0.16472 0.11766 0.72858 0.0
C1327 C 0.15071 0.13233 0.71149 0.0
H1328 H 0.86293 0.1609 0.79115 0.0
H1329 H 0.88275 0.19097 0.69881 0.0
H1330 H 0.86138 0.16273 0.66874 0.0
H1331 H 0.8344 0.13177 0.66924 0.0
H1332 H 0.81132 0.10497 0.76208 0.0
H1333 H 0.83698 0.12952 0.79163 0.0
C1334 C 0.86281 0.16116 0.76442 0.0
C1335 C 0.87431 0.17804 0.74717 0.0
C1336 C 0.84986 0.1455 0.74751 0.0
C1337 C 0.87392 0.17819 0.71258 0.0
C1338 C 0.86171 0.16208 0.69544 0.0
C1339 C 0.83521 0.1311 0.69591 0.0
C1340 C 0.821 0.11666 0.71355 0.0
C1341 C 0.84921 0.14598 0.7127 0.0
C1342 C 0.8221 0.11603 0.74808 0.0
C1343 C 0.83669 0.13008 0.76493 0.0
H1344 H 0.66643 0.63391 0.6736 0.0
H1345 H 0.67952 0.60203 0.7672 0.0
H1346 H 0.65142 0.62571 0.79356 0.0
H1347 H 0.62609 0.65774 0.79102 0.0
H1348 H 0.61521 0.69182 0.69847 0.0
H1349 H 0.63943 0.66484 0.67053 0.0
C1350 C 0.66288 0.6319 0.69967 0.0
C1351 C 0.67508 0.61631 0.71851 0.0
C1352 C 0.64728 0.64608 0.71484 0.0
C1353 C 0.6704 0.61399 0.75227 0.0
C1354 C 0.65439 0.62755 0.76733 0.0
C1355 C 0.62876 0.65913 0.76464 0.0
C1356 C 0.61898 0.67685 0.74685 0.0
C1357 C 0.64318 0.64402 0.74902 0.0
C1358 C 0.62264 0.6784 0.71272 0.0
C1359 C 0.63651 0.66301 0.69677 0.0
H1360 H 0.32692 0.63433 0.78533 0.0
H1361 H 0.30131 0.61704 0.68942 0.0
H1362 H 0.32746 0.64321 0.66352 0.0
H1363 H 0.35533 0.67305 0.66866 0.0
H1364 H 0.37795 0.69299 0.76505 0.0
H1365 H 0.3552 0.66362 0.79041 0.0
C1366 C 0.32719 0.6361 0.75873 0.0
C1367 C 0.31216 0.62382 0.73928 0.0
C1368 C 0.3416 0.65175 0.74421 0.0
C1369 C 0.31268 0.62637 0.70488 0.0
C1370 C 0.32757 0.64135 0.6901 0.0
C1371 C 0.35547 0.6708 0.69519 0.0
C1372 C 0.36827 0.68514 0.71503 0.0
C1373 C 0.34177 0.65445 0.70959 0.0
C1374 C 0.36816 0.68218 0.74936 0.0
C1375 C 0.35516 0.66542 0.76382 0.0
H1376 H 0.36028 0.31807 0.80581 0.0
H1377 H 0.38786 0.29752 0.71238 0.0
H1378 H 0.36721 0.3274 0.68446 0.0
H1379 H 0.33914 0.35706 0.68616 0.0
H1380 H 0.30792 0.37454 0.77852 0.0
H1381 H 0.33254 0.34837 0.8076 0.0
C1382 C 0.36197 0.32031 0.77939 0.0
C1383 C 0.37552 0.30566 0.76108 0.0
C1384 C 0.34937 0.3369 0.76343 0.0
C1385 C 0.37743 0.30858 0.72687 0.0
C1386 C 0.36564 0.32563 0.71096 0.0
C1387 C 0.3378 0.35533 0.7127 0.0
C1388 C 0.32162 0.36761 0.73018 0.0
C1389 C 0.35122 0.33955 0.72891 0.0
C1390 C 0.32019 0.36519 0.76455 0.0
C1391 C 0.3342 0.35019 0.78112 0.0
H1392 H 0.62333 0.32221 0.67989 0.0
H1393 H 0.60188 0.29563 0.77373 0.0
H1394 H 0.62305 0.3247 0.80229 0.0
H1395 H 0.65028 0.35528 0.8004 0.0
H1396 H 0.67516 0.37867 0.70656 0.0
H1397 H 0.64965 0.35342 0.67797 0.0
C1398 C 0.62305 0.32292 0.70659 0.0
C1399 C 0.61114 0.30677 0.72475 0.0
C1400 C 0.63592 0.33905 0.72273 0.0
C1401 C 0.61103 0.30784 0.7593 0.0
C1402 C 0.62313 0.32442 0.77558 0.0
C1403 C 0.64995 0.35504 0.77369 0.0
C1404 C 0.66466 0.36871 0.75555 0.0
C1405 C 0.63604 0.33977 0.75754 0.0
C1406 C 0.66404 0.36821 0.72099 0.0
C1407 C 0.64953 0.35375 0.70468 0.0
H1408 H 0.3547 0.29612 0.20623 0.0
H1409 H 0.40874 0.32994 0.25486 0.0
H1410 H 0.38232 0.35763 0.27714 0.0
H1411 H 0.34372 0.37182 0.2824 0.0
H1412 H 0.29039 0.33881 0.23018 0.0
H1413 H 0.31681 0.31138 0.20876 0.0
C1414 C 0.3606 0.30957 0.22176 0.0
C1415 C 0.38336 0.31105 0.22942 0.0
C1416 C 0.34554 0.32562 0.23333 0.0
C1417 C 0.39112 0.32852 0.24918 0.0
C1418 C 0.37608 0.34432 0.26165 0.0
C1419 C 0.33794 0.35873 0.26611 0.0
C1420 C 0.31513 0.35728 0.258 0.0
C1421 C 0.35324 0.34304 0.25377 0.0
C1422 C 0.30786 0.34033 0.23672 0.0
C1423 C 0.32292 0.32455 0.22464 0.0
H1424 H 0.63287 0.33763 0.29837 0.0
H1425 H 0.61329 0.30989 0.20476 0.0
H1426 H 0.63756 0.33656 0.17611 0.0
H1427 H 0.66722 0.36475 0.17826 0.0
H1428 H 0.69011 0.38892 0.27236 0.0
H1429 H 0.66153 0.36663 0.30044 0.0
C1430 C 0.6337 0.33755 0.27167 0.0
C1431 C 0.62146 0.32171 0.25366 0.0
C1432 C 0.64842 0.35215 0.25558 0.0
C1433 C 0.62267 0.32187 0.21911 0.0
C1434 C 0.63658 0.33704 0.20277 0.0
C1435 C 0.66575 0.36538 0.20489 0.0
C1436 C 0.68075 0.37837 0.22332 0.0
C1437 C 0.64998 0.35181 0.22084 0.0
C1438 C 0.67878 0.37893 0.25777 0.0
C1439 C 0.66249 0.36619 0.27377 0.0
H1440 H 0.66804 0.60185 0.22963 0.0
H1441 H 0.65563 0.62444 0.32884 0.0
H1442 H 0.62524 0.64826 0.30929 0.0
H1443 H 0.60581 0.66644 0.26292 0.0
H1444 H 0.61703 0.6425 0.16406 0.0
H1445 H 0.64394 0.6152 0.1846 0.0
C1446 C 0.65837 0.61168 0.247 0.0
C1447 C 0.66434 0.6118 0.28044 0.0
C1448 C 0.64083 0.62524 0.23563 0.0
C1449 C 0.65148 0.62425 0.30287 0.0
C1450 C 0.63416 0.63795 0.29171 0.0
C1451 C 0.61385 0.65494 0.24601 0.0
C1452 C 0.60987 0.65684 0.212 0.0
C1453 C 0.62924 0.63918 0.25798 0.0
C1454 C 0.62002 0.64158 0.19035 0.0
C1455 C 0.6355 0.626 0.20204 0.0
H1456 H 0.32697 0.63421 0.17036 0.0
H1457 H 0.29951 0.60916 0.26167 0.0
H1458 H 0.32303 0.63514 0.29268 0.0
H1459 H 0.34989 0.66625 0.29335 0.0
H1460 H 0.37423 0.69353 0.20152 0.0
H1461 H 0.35337 0.66526 0.17094 0.0
C1462 C 0.32623 0.63429 0.19707 0.0
C1463 C 0.31158 0.61979 0.21378 0.0
C1464 C 0.33914 0.64971 0.2145 0.0
C1465 C 0.31066 0.62022 0.24834 0.0
C1466 C 0.32407 0.63505 0.26601 0.0
C1467 C 0.35077 0.66583 0.26666 0.0
C1468 C 0.3636 0.6818 0.24959 0.0
C1469 C 0.33816 0.65006 0.24929 0.0
C1470 C 0.3644 0.68137 0.21505 0.0
C1471 C 0.35251 0.66525 0.19763 0.0
loop_
_geom_bond_atom_site_label_1
_geom_bond_atom_site_label_2
_geom_bond_distance
_geom_bond_site_symmetry_2
_ccdc_geom_bond_type
C0 O1 1.306 . S
C0 O3 1.160 . S
O1 C0 1.306 . S
O1 Cd2 2.228 . S
Cd2 O1 2.228 . S
Cd2 O6 2.273 . S
Cd2 O10 2.277 . S
O3 C0 1.160 . S
O3 Cd4 2.203 . S
Cd4 O3 2.203 . S
Cd4 O6 2.411 . S
Cd4 O7 2.333 . S
Cd4 O8 2.352 . S
Cd4 O12 2.277 . S
Cd4 O13 2.356 . S
C5 O10 1.209 . S
C5 O12 1.226 . S
O6 Cd2 2.273 . S
O6 Cd4 2.411 . S
O6 C9 1.320 . S
O7 Cd4 2.333 . S
O7 C9 1.214 . S
O8 Cd4 2.352 . S
O8 C11 1.258 . S
C9 O6 1.320 . S
C9 O7 1.214 . S
O10 Cd2 2.277 . S
O10 C5 1.209 . S
C11 O8 1.258 . S
C11 O13 1.282 . S
O12 Cd4 2.277 . S
O12 C5 1.226 . S
O13 Cd4 2.356 . S
O13 C11 1.282 . S
C14 O15 1.306 . S
C14 O17 1.160 . S
O15 C14 1.306 . S
O15 Cd16 2.228 . S
Cd16 O15 2.228 . S
Cd16 O20 2.273 . S
Cd16 O24 2.277 . S
O17 C14 1.160 . S
O17 Cd18 2.203 . S
Cd18 O17 2.203 . S
Cd18 O20 2.411 . S
Cd18 O21 2.333 . S
Cd18 O22 2.352 . S
Cd18 O26 2.277 . S
Cd18 O27 2.356 . S
C19 O24 1.209 . S
C19 O26 1.226 . S
O20 Cd16 2.273 . S
O20 Cd18 2.411 . S
O20 C23 1.320 . S
O21 Cd18 2.333 . S
O21 C23 1.214 . S
O22 Cd18 2.352 . S
O22 C25 1.258 . S
C23 O20 1.320 . S
C23 O21 1.214 . S
O24 Cd16 2.277 . S
O24 C19 1.209 . S
C25 O22 1.258 . S
C25 O27 1.282 . S
O26 Cd18 2.277 . S
O26 C19 1.226 . S
O27 Cd18 2.356 . S
O27 C25 1.282 . S
C28 O29 1.306 . S
C28 O31 1.160 . S
O29 C28 1.306 . S
O29 Cd30 2.228 . S
Cd30 O29 2.228 . S
Cd30 O34 2.273 . S
Cd30 O38 2.277 . S
O31 C28 1.160 . S
O31 Cd32 2.203 . S
Cd32 O31 2.203 . S
Cd32 O34 2.411 . S
Cd32 O35 2.333 . S
Cd32 O36 2.352 . S
Cd32 O40 2.277 . S
Cd32 O41 2.356 . S
C33 O38 1.209 . S
C33 O40 1.226 . S
O34 Cd30 2.273 . S
O34 Cd32 2.411 . S
O34 C37 1.320 . S
O35 Cd32 2.333 . S
O35 C37 1.214 . S
O36 Cd32 2.352 . S
O36 C39 1.258 . S
C37 O34 1.320 . S
C37 O35 1.214 . S
O38 Cd30 2.277 . S
O38 C33 1.209 . S
C39 O36 1.258 . S
C39 O41 1.282 . S
O40 Cd32 2.277 . S
O40 C33 1.226 . S
O41 Cd32 2.356 . S
O41 C39 1.282 . S
C42 O43 1.306 . S
C42 O45 1.160 . S
O43 C42 1.306 . S
O43 Cd44 2.228 . S
Cd44 O43 2.228 . S
Cd44 O48 2.273 . S
Cd44 O52 2.277 . S
O45 C42 1.160 . S
O45 Cd46 2.203 . S
Cd46 O45 2.203 . S
Cd46 O48 2.411 . S
Cd46 O49 2.333 . S
Cd46 O50 2.352 . S
Cd46 O54 2.277 . S
Cd46 O55 2.356 . S
C47 O52 1.209 . S
C47 O54 1.226 . S
O48 Cd44 2.273 . S
O48 Cd46 2.411 . S
O48 C51 1.320 . S
O49 Cd46 2.333 . S
O49 C51 1.214 . S
O50 Cd46 2.352 . S
O50 C53 1.258 . S
C51 O48 1.320 . S
C51 O49 1.214 . S
O52 Cd44 2.277 . S
O52 C47 1.209 . S
C53 O50 1.258 . S
C53 O55 1.282 . S
O54 Cd46 2.277 . S
O54 C47 1.226 . S
O55 Cd46 2.356 . S
O55 C53 1.282 . S
C56 O57 1.306 . S
C56 O59 1.160 . S
O57 C56 1.306 . S
O57 Cd58 2.228 . S
Cd58 O57 2.228 . S
Cd58 O62 2.273 . S
Cd58 O66 2.277 . S
O59 C56 1.160 . S
O59 Cd60 2.203 . S
Cd60 O59 2.203 . S
Cd60 O62 2.411 . S
Cd60 O63 2.333 . S
Cd60 O64 2.352 . S
Cd60 O68 2.277 . S
Cd60 O69 2.356 . S
C61 O66 1.209 . S
C61 O68 1.226 . S
O62 Cd58 2.273 . S
O62 Cd60 2.411 . S
O62 C65 1.320 . S
O63 Cd60 2.333 . S
O63 C65 1.214 . S
O64 Cd60 2.352 . S
O64 C67 1.258 . S
C65 O62 1.320 . S
C65 O63 1.214 . S
O66 Cd58 2.277 . S
O66 C61 1.209 . S
C67 O64 1.258 . S
C67 O69 1.282 . S
O68 Cd60 2.277 . S
O68 C61 1.226 . S
O69 Cd60 2.356 . S
O69 C67 1.282 . S
C70 O71 1.306 . S
C70 O73 1.160 . S
O71 C70 1.306 . S
O71 Cd72 2.228 . S
Cd72 O71 2.228 . S
Cd72 O76 2.273 . S
Cd72 O80 2.277 . S
O73 C70 1.160 . S
O73 Cd74 2.203 . S
Cd74 O73 2.203 . S
Cd74 O76 2.411 . S
Cd74 O77 2.333 . S
Cd74 O78 2.352 . S
Cd74 O82 2.277 . S
Cd74 O83 2.356 . S
C75 O80 1.209 . S
C75 O82 1.226 . S
O76 Cd72 2.273 . S
O76 Cd74 2.411 . S
O76 C79 1.320 . S
O77 Cd74 2.333 . S
O77 C79 1.214 . S
O78 Cd74 2.352 . S
O78 C81 1.258 . S
C79 O76 1.320 . S
C79 O77 1.214 . S
O80 Cd72 2.277 . S
O80 C75 1.209 . S
C81 O78 1.258 . S
C81 O83 1.282 . S
O82 Cd74 2.277 . S
O82 C75 1.226 . S
O83 Cd74 2.356 . S
O83 C81 1.282 . S
C84 O85 1.306 . S
C84 O87 1.160 . S
O85 C84 1.306 . S
O85 Cd86 2.228 . S
Cd86 O85 2.228 . S
Cd86 O90 2.273 . S
Cd86 O94 2.277 . S
O87 C84 1.160 . S
O87 Cd88 2.203 . S
Cd88 O87 2.203 . S
Cd88 O90 2.411 . S
Cd88 O91 2.333 . S
Cd88 O92 2.352 . S
Cd88 O96 2.277 . S
Cd88 O97 2.356 . S
C89 O94 1.209 . S
C89 O96 1.226 . S
O90 Cd86 2.273 . S
O90 Cd88 2.411 . S
O90 C93 1.320 . S
O91 Cd88 2.333 . S
O91 C93 1.214 . S
O92 Cd88 2.352 . S
O92 C95 1.258 . S
C93 O90 1.320 . S
C93 O91 1.214 . S
O94 Cd86 2.277 . S
O94 C89 1.209 . S
C95 O92 1.258 . S
C95 O97 1.282 . S
O96 Cd88 2.277 . S
O96 C89 1.226 . S
O97 Cd88 2.356 . S
O97 C95 1.282 . S
C98 O99 1.306 . S
C98 O101 1.160 . S
O99 C98 1.306 . S
O99 Cd100 2.228 . S
Cd100 O99 2.228 . S
Cd100 O104 2.273 . S
Cd100 O108 2.277 . S
O101 C98 1.160 . S
O101 Cd102 2.203 . S
Cd102 O101 2.203 . S
Cd102 O104 2.411 . S
Cd102 O105 2.333 . S
Cd102 O106 2.352 . S
Cd102 O110 2.277 . S
Cd102 O111 2.356 . S
C103 O108 1.209 . S
C103 O110 1.226 . S
O104 Cd100 2.273 . S
O104 Cd102 2.411 . S
O104 C107 1.320 . S
O105 Cd102 2.333 . S
O105 C107 1.214 . S
O106 Cd102 2.352 . S
O106 C109 1.258 . S
C107 O104 1.320 . S
C107 O105 1.214 . S
O108 Cd100 2.277 . S
O108 C103 1.209 . S
C109 O106 1.258 . S
C109 O111 1.282 . S
O110 Cd102 2.277 . S
O110 C103 1.226 . S
O111 Cd102 2.356 . S
O111 C109 1.282 . S
C112 O113 1.306 . S
C112 O115 1.160 . S
O113 C112 1.306 . S
O113 Cd114 2.228 . S
Cd114 O113 2.228 . S
Cd114 O118 2.273 . S
Cd114 O122 2.277 . S
O115 C112 1.160 . S
O115 Cd116 2.203 . S
Cd116 O115 2.203 . S
Cd116 O118 2.411 . S
Cd116 O119 2.333 . S
Cd116 O120 2.352 . S
Cd116 O124 2.277 . S
Cd116 O125 2.356 . S
C117 O122 1.209 . S
C117 O124 1.226 . S
O118 Cd114 2.273 . S
O118 Cd116 2.411 . S
O118 C121 1.320 . S
O119 Cd116 2.333 . S
O119 C121 1.214 . S
O120 Cd116 2.352 . S
O120 C123 1.258 . S
C121 O118 1.320 . S
C121 O119 1.214 . S
O122 Cd114 2.277 . S
O122 C117 1.209 . S
C123 O120 1.258 . S
C123 O125 1.282 . S
O124 Cd116 2.277 . S
O124 C117 1.226 . S
O125 Cd116 2.356 . S
O125 C123 1.282 . S
C126 O127 1.306 . S
C126 O129 1.160 . S
O127 C126 1.306 . S
O127 Cd128 2.228 . S
Cd128 O127 2.228 . S
Cd128 O132 2.273 . S
Cd128 O136 2.277 . S
O129 C126 1.160 . S
O129 Cd130 2.203 . S
Cd130 O129 2.203 . S
Cd130 O132 2.411 . S
Cd130 O133 2.333 . S
Cd130 O134 2.352 . S
Cd130 O138 2.277 . S
Cd130 O139 2.356 . S
C131 O136 1.209 . S
C131 O138 1.226 . S
O132 Cd128 2.273 . S
O132 Cd130 2.411 . S
O132 C135 1.320 . S
O133 Cd130 2.333 . S
O133 C135 1.214 . S
O134 Cd130 2.352 . S
O134 C137 1.258 . S
C135 O132 1.320 . S
C135 O133 1.214 . S
O136 Cd128 2.277 . S
O136 C131 1.209 . S
C137 O134 1.258 . S
C137 O139 1.282 . S
O138 Cd130 2.277 . S
O138 C131 1.226 . S
O139 Cd130 2.356 . S
O139 C137 1.282 . S
C140 O141 1.306 . S
C140 O143 1.160 . S
O141 C140 1.306 . S
O141 Cd142 2.228 . S
Cd142 O141 2.228 . S
Cd142 O146 2.273 . S
Cd142 O150 2.277 . S
O143 C140 1.160 . S
O143 Cd144 2.203 . S
Cd144 O143 2.203 . S
Cd144 O146 2.411 . S
Cd144 O147 2.333 . S
Cd144 O148 2.352 . S
Cd144 O152 2.277 . S
Cd144 O153 2.356 . S
C145 O150 1.209 . S
C145 O152 1.226 . S
O146 Cd142 2.273 . S
O146 Cd144 2.411 . S
O146 C149 1.320 . S
O147 Cd144 2.333 . S
O147 C149 1.214 . S
O148 Cd144 2.352 . S
O148 C151 1.258 . S
C149 O146 1.320 . S
C149 O147 1.214 . S
O150 Cd142 2.277 . S
O150 C145 1.209 . S
C151 O148 1.258 . S
C151 O153 1.282 . S
O152 Cd144 2.277 . S
O152 C145 1.226 . S
O153 Cd144 2.356 . S
O153 C151 1.282 . S
C154 O155 1.306 . S
C154 O157 1.160 . S
O155 C154 1.306 . S
O155 Cd156 2.228 . S
Cd156 O155 2.228 . S
Cd156 O160 2.273 . S
Cd156 O164 2.277 . S
O157 C154 1.160 . S
O157 Cd158 2.203 . S
Cd158 O157 2.203 . S
Cd158 O160 2.411 . S
Cd158 O161 2.333 . S
Cd158 O162 2.352 . S
Cd158 O166 2.277 . S
Cd158 O167 2.356 . S
C159 O164 1.209 . S
C159 O166 1.226 . S
O160 Cd156 2.273 . S
O160 Cd158 2.411 . S
O160 C163 1.320 . S
O161 Cd158 2.333 . S
O161 C163 1.214 . S
O162 Cd158 2.352 . S
O162 C165 1.258 . S
C163 O160 1.320 . S
C163 O161 1.214 . S
O164 Cd156 2.277 . S
O164 C159 1.209 . S
C165 O162 1.258 . S
C165 O167 1.282 . S
O166 Cd158 2.277 . S
O166 C159 1.226 . S
O167 Cd158 2.356 . S
O167 C165 1.282 . S
C168 O169 1.306 . S
C168 O171 1.160 . S
O169 C168 1.306 . S
O169 Cd170 2.228 . S
Cd170 O169 2.228 . S
Cd170 O174 2.273 . S
Cd170 O178 2.277 . S
O171 C168 1.160 . S
O171 Cd172 2.203 . S
Cd172 O171 2.203 . S
Cd172 O174 2.411 . S
Cd172 O175 2.333 . S
Cd172 O176 2.352 . S
Cd172 O180 2.277 . S
Cd172 O181 2.356 . S
C173 O178 1.209 . S
C173 O180 1.226 . S
O174 Cd170 2.273 . S
O174 Cd172 2.411 . S
O174 C177 1.320 . S
O175 Cd172 2.333 . S
O175 C177 1.214 . S
O176 Cd172 2.352 . S
O176 C179 1.258 . S
C177 O174 1.320 . S
C177 O175 1.214 . S
O178 Cd170 2.277 . S
O178 C173 1.209 . S
C179 O176 1.258 . S
C179 O181 1.282 . S
O180 Cd172 2.277 . S
O180 C173 1.226 . S
O181 Cd172 2.356 . S
O181 C179 1.282 . S
C182 O183 1.306 . S
C182 O185 1.160 . S
O183 C182 1.306 . S
O183 Cd184 2.228 . S
Cd184 O183 2.228 . S
Cd184 O188 2.273 . S
Cd184 O192 2.277 . S
O185 C182 1.160 . S
O185 Cd186 2.203 . S
Cd186 O185 2.203 . S
Cd186 O188 2.411 . S
Cd186 O189 2.333 . S
Cd186 O190 2.352 . S
Cd186 O194 2.277 . S
Cd186 O195 2.356 . S
C187 O192 1.209 . S
C187 O194 1.226 . S
O188 Cd184 2.273 . S
O188 Cd186 2.411 . S
O188 C191 1.320 . S
O189 Cd186 2.333 . S
O189 C191 1.214 . S
O190 Cd186 2.352 . S
O190 C193 1.258 . S
C191 O188 1.320 . S
C191 O189 1.214 . S
O192 Cd184 2.277 . S
O192 C187 1.209 . S
C193 O190 1.258 . S
C193 O195 1.282 . S
O194 Cd186 2.277 . S
O194 C187 1.226 . S
O195 Cd186 2.356 . S
O195 C193 1.282 . S
C196 O197 1.306 . S
C196 O199 1.160 . S
O197 C196 1.306 . S
O197 Cd198 2.228 . S
Cd198 O197 2.228 . S
Cd198 O202 2.273 . S
Cd198 O206 2.277 . S
O199 C196 1.160 . S
O199 Cd200 2.203 . S
Cd200 O199 2.203 . S
Cd200 O202 2.411 . S
Cd200 O203 2.333 . S
Cd200 O204 2.352 . S
Cd200 O208 2.277 . S
Cd200 O209 2.356 . S
C201 O206 1.209 . S
C201 O208 1.226 . S
O202 Cd198 2.273 . S
O202 Cd200 2.411 . S
O202 C205 1.320 . S
O203 Cd200 2.333 . S
O203 C205 1.214 . S
O204 Cd200 2.352 . S
O204 C207 1.258 . S
C205 O202 1.320 . S
C205 O203 1.214 . S
O206 Cd198 2.277 . S
O206 C201 1.209 . S
C207 O204 1.258 . S
C207 O209 1.282 . S
O208 Cd200 2.277 . S
O208 C201 1.226 . S
O209 Cd200 2.356 . S
O209 C207 1.282 . S
C210 O211 1.306 . S
C210 O213 1.160 . S
O211 C210 1.306 . S
O211 Cd212 2.228 . S
Cd212 O211 2.228 . S
Cd212 O216 2.273 . S
Cd212 O220 2.277 . S
O213 C210 1.160 . S
O213 Cd214 2.203 . S
Cd214 O213 2.203 . S
Cd214 O216 2.411 . S
Cd214 O217 2.333 . S
Cd214 O218 2.352 . S
Cd214 O222 2.277 . S
Cd214 O223 2.356 . S
C215 O220 1.209 . S
C215 O222 1.226 . S
O216 Cd212 2.273 . S
O216 Cd214 2.411 . S
O216 C219 1.320 . S
O217 Cd214 2.333 . S
O217 C219 1.214 . S
O218 Cd214 2.352 . S
O218 C221 1.258 . S
C219 O216 1.320 . S
C219 O217 1.214 . S
O220 Cd212 2.277 . S
O220 C215 1.209 . S
C221 O218 1.258 . S
C221 O223 1.282 . S
O222 Cd214 2.277 . S
O222 C215 1.226 . S
O223 Cd214 2.356 . S
O223 C221 1.282 . S
C224 O225 1.306 . S
C224 O227 1.160 . S
O225 C224 1.306 . S
O225 Cd226 2.228 . S
Cd226 O225 2.228 . S
Cd226 O230 2.273 . S
Cd226 O234 2.277 . S
O227 C224 1.160 . S
O227 Cd228 2.203 . S
Cd228 O227 2.203 . S
Cd228 O230 2.411 . S
Cd228 O231 2.333 . S
Cd228 O232 2.352 . S
Cd228 O236 2.277 . S
Cd228 O237 2.356 . S
C229 O234 1.209 . S
C229 O236 1.226 . S
O230 Cd226 2.273 . S
O230 Cd228 2.411 . S
O230 C233 1.320 . S
O231 Cd228 2.333 . S
O231 C233 1.214 . S
O232 Cd228 2.352 . S
O232 C235 1.258 . S
C233 O230 1.320 . S
C233 O231 1.214 . S
O234 Cd226 2.277 . S
O234 C229 1.209 . S
C235 O232 1.258 . S
C235 O237 1.282 . S
O236 Cd228 2.277 . S
O236 C229 1.226 . S
O237 Cd228 2.356 . S
O237 C235 1.282 . S
C238 O239 1.306 . S
C238 O241 1.160 . S
O239 C238 1.306 . S
O239 Cd240 2.228 . S
Cd240 O239 2.228 . S
Cd240 O244 2.273 . S
Cd240 O248 2.277 . S
O241 C238 1.160 . S
O241 Cd242 2.203 . S
Cd242 O241 2.203 . S
Cd242 O244 2.411 . S
Cd242 O245 2.333 . S
Cd242 O246 2.352 . S
Cd242 O250 2.277 . S
Cd242 O251 2.356 . S
C243 O248 1.209 . S
C243 O250 1.226 . S
O244 Cd240 2.273 . S
O244 Cd242 2.411 . S
O244 C247 1.320 . S
O245 Cd242 2.333 . S
O245 C247 1.214 . S
O246 Cd242 2.352 . S
O246 C249 1.258 . S
C247 O244 1.320 . S
C247 O245 1.214 . S
O248 Cd240 2.277 . S
O248 C243 1.209 . S
C249 O246 1.258 . S
C249 O251 1.282 . S
O250 Cd242 2.277 . S
O250 C243 1.226 . S
O251 Cd242 2.356 . S
O251 C249 1.282 . S
C252 O253 1.306 . S
C252 O255 1.160 . S
O253 C252 1.306 . S
O253 Cd254 2.228 . S
Cd254 O253 2.228 . S
Cd254 O258 2.273 . S
Cd254 O262 2.277 . S
O255 C252 1.160 . S
O255 Cd256 2.203 . S
Cd256 O255 2.203 . S
Cd256 O258 2.411 . S
Cd256 O259 2.333 . S
Cd256 O260 2.352 . S
Cd256 O264 2.277 . S
Cd256 O265 2.356 . S
C257 O262 1.209 . S
C257 O264 1.226 . S
O258 Cd254 2.273 . S
O258 Cd256 2.411 . S
O258 C261 1.320 . S
O259 Cd256 2.333 . S
O259 C261 1.214 . S
O260 Cd256 2.352 . S
O260 C263 1.258 . S
C261 O258 1.320 . S
C261 O259 1.214 . S
O262 Cd254 2.277 . S
O262 C257 1.209 . S
C263 O260 1.258 . S
C263 O265 1.282 . S
O264 Cd256 2.277 . S
O264 C257 1.226 . S
O265 Cd256 2.356 . S
O265 C263 1.282 . S
C266 O267 1.306 . S
C266 O269 1.160 . S
O267 C266 1.306 . S
O267 Cd268 2.228 . S
Cd268 O267 2.228 . S
Cd268 O272 2.273 . S
Cd268 O276 2.277 . S
O269 C266 1.160 . S
O269 Cd270 2.203 . S
Cd270 O269 2.203 . S
Cd270 O272 2.411 . S
Cd270 O273 2.333 . S
Cd270 O274 2.352 . S
Cd270 O278 2.277 . S
Cd270 O279 2.356 . S
C271 O276 1.209 . S
C271 O278 1.226 . S
O272 Cd268 2.273 . S
O272 Cd270 2.411 . S
O272 C275 1.320 . S
O273 Cd270 2.333 . S
O273 C275 1.214 . S
O274 Cd270 2.352 . S
O274 C277 1.258 . S
C275 O272 1.320 . S
C275 O273 1.214 . S
O276 Cd268 2.277 . S
O276 C271 1.209 . S
C277 O274 1.258 . S
C277 O279 1.282 . S
O278 Cd270 2.277 . S
O278 C271 1.226 . S
O279 Cd270 2.356 . S
O279 C277 1.282 . S
C280 O281 1.306 . S
C280 O283 1.160 . S
O281 C280 1.306 . S
O281 Cd282 2.228 . S
Cd282 O281 2.228 . S
Cd282 O286 2.273 . S
Cd282 O290 2.277 . S
O283 C280 1.160 . S
O283 Cd284 2.203 . S
Cd284 O283 2.203 . S
Cd284 O286 2.411 . S
Cd284 O287 2.333 . S
Cd284 O288 2.352 . S
Cd284 O292 2.277 . S
Cd284 O293 2.356 . S
C285 O290 1.209 . S
C285 O292 1.226 . S
O286 Cd282 2.273 . S
O286 Cd284 2.411 . S
O286 C289 1.320 . S
O287 Cd284 2.333 . S
O287 C289 1.214 . S
O288 Cd284 2.352 . S
O288 C291 1.258 . S
C289 O286 1.320 . S
C289 O287 1.214 . S
O290 Cd282 2.277 . S
O290 C285 1.209 . S
C291 O288 1.258 . S
C291 O293 1.282 . S
O292 Cd284 2.277 . S
O292 C285 1.226 . S
O293 Cd284 2.356 . S
O293 C291 1.282 . S
C294 O295 1.306 . S
C294 O297 1.160 . S
O295 C294 1.306 . S
O295 Cd296 2.228 . S
Cd296 O295 2.228 . S
Cd296 O300 2.273 . S
Cd296 O304 2.277 . S
O297 C294 1.160 . S
O297 Cd298 2.203 . S
Cd298 O297 2.203 . S
Cd298 O300 2.411 . S
Cd298 O301 2.333 . S
Cd298 O302 2.352 . S
Cd298 O306 2.277 . S
Cd298 O307 2.356 . S
C299 O304 1.209 . S
C299 O306 1.226 . S
O300 Cd296 2.273 . S
O300 Cd298 2.411 . S
O300 C303 1.320 . S
O301 Cd298 2.333 . S
O301 C303 1.214 . S
O302 Cd298 2.352 . S
O302 C305 1.258 . S
C303 O300 1.320 . S
C303 O301 1.214 . S
O304 Cd296 2.277 . S
O304 C299 1.209 . S
C305 O302 1.258 . S
C305 O307 1.282 . S
O306 Cd298 2.277 . S
O306 C299 1.226 . S
O307 Cd298 2.356 . S
O307 C305 1.282 . S
C308 O309 1.306 . S
C308 O311 1.160 . S
O309 C308 1.306 . S
O309 Cd310 2.228 . S
Cd310 O309 2.228 . S
Cd310 O314 2.273 . S
Cd310 O318 2.277 . S
O311 C308 1.160 . S
O311 Cd312 2.203 . S
Cd312 O311 2.203 . S
Cd312 O314 2.411 . S
Cd312 O315 2.333 . S
Cd312 O316 2.352 . S
Cd312 O320 2.277 . S
Cd312 O321 2.356 . S
C313 O318 1.209 . S
C313 O320 1.226 . S
O314 Cd310 2.273 . S
O314 Cd312 2.411 . S
O314 C317 1.320 . S
O315 Cd312 2.333 . S
O315 C317 1.214 . S
O316 Cd312 2.352 . S
O316 C319 1.258 . S
C317 O314 1.320 . S
C317 O315 1.214 . S
O318 Cd310 2.277 . S
O318 C313 1.209 . S
C319 O316 1.258 . S
C319 O321 1.282 . S
O320 Cd312 2.277 . S
O320 C313 1.226 . S
O321 Cd312 2.356 . S
O321 C319 1.282 . S
C322 O323 1.306 . S
C322 O325 1.160 . S
O323 C322 1.306 . S
O323 Cd324 2.228 . S
Cd324 O323 2.228 . S
Cd324 O328 2.273 . S
Cd324 O332 2.277 . S
O325 C322 1.160 . S
O325 Cd326 2.203 . S
Cd326 O325 2.203 . S
Cd326 O328 2.411 . S
Cd326 O329 2.333 . S
Cd326 O330 2.352 . S
Cd326 O334 2.277 . S
Cd326 O335 2.356 . S
C327 O332 1.209 . S
C327 O334 1.226 . S
O328 Cd324 2.273 . S
O328 Cd326 2.411 . S
O328 C331 1.320 . S
O329 Cd326 2.333 . S
O329 C331 1.214 . S
O330 Cd326 2.352 . S
O330 C333 1.258 . S
C331 O328 1.320 . S
C331 O329 1.214 . S
O332 Cd324 2.277 . S
O332 C327 1.209 . S
C333 O330 1.258 . S
C333 O335 1.282 . S
O334 Cd326 2.277 . S
O334 C327 1.226 . S
O335 Cd326 2.356 . S
O335 C333 1.282 . S
C336 O337 1.306 . S
C336 O339 1.160 . S
O337 C336 1.306 . S
O337 Cd338 2.228 . S
Cd338 O337 2.228 . S
Cd338 O342 2.273 . S
Cd338 O346 2.277 . S
O339 C336 1.160 . S
O339 Cd340 2.203 . S
Cd340 O339 2.203 . S
Cd340 O342 2.411 . S
Cd340 O343 2.333 . S
Cd340 O344 2.352 . S
Cd340 O348 2.277 . S
Cd340 O349 2.356 . S
C341 O346 1.209 . S
C341 O348 1.226 . S
O342 Cd338 2.273 . S
O342 Cd340 2.411 . S
O342 C345 1.320 . S
O343 Cd340 2.333 . S
O343 C345 1.214 . S
O344 Cd340 2.352 . S
O344 C347 1.258 . S
C345 O342 1.320 . S
C345 O343 1.214 . S
O346 Cd338 2.277 . S
O346 C341 1.209 . S
C347 O344 1.258 . S
C347 O349 1.282 . S
O348 Cd340 2.277 . S
O348 C341 1.226 . S
O349 Cd340 2.356 . S
O349 C347 1.282 . S
C350 O351 1.306 . S
C350 O353 1.160 . S
O351 C350 1.306 . S
O351 Cd352 2.228 . S
Cd352 O351 2.228 . S
Cd352 O356 2.273 . S
Cd352 O360 2.277 . S
O353 C350 1.160 . S
O353 Cd354 2.203 . S
Cd354 O353 2.203 . S
Cd354 O356 2.411 . S
Cd354 O357 2.333 . S
Cd354 O358 2.352 . S
Cd354 O362 2.277 . S
Cd354 O363 2.356 . S
C355 O360 1.209 . S
C355 O362 1.226 . S
O356 Cd352 2.273 . S
O356 Cd354 2.411 . S
O356 C359 1.320 . S
O357 Cd354 2.333 . S
O357 C359 1.214 . S
O358 Cd354 2.352 . S
O358 C361 1.258 . S
C359 O356 1.320 . S
C359 O357 1.214 . S
O360 Cd352 2.277 . S
O360 C355 1.209 . S
C361 O358 1.258 . S
C361 O363 1.282 . S
O362 Cd354 2.277 . S
O362 C355 1.226 . S
O363 Cd354 2.356 . S
O363 C361 1.282 . S
C364 O365 1.306 . S
C364 O367 1.160 . S
O365 C364 1.306 . S
O365 Cd366 2.228 . S
Cd366 O365 2.228 . S
Cd366 O370 2.273 . S
Cd366 O374 2.277 . S
O367 C364 1.160 . S
O367 Cd368 2.203 . S
Cd368 O367 2.203 . S
Cd368 O370 2.411 . S
Cd368 O371 2.333 . S
Cd368 O372 2.352 . S
Cd368 O376 2.277 . S
Cd368 O377 2.356 . S
C369 O374 1.209 . S
C369 O376 1.226 . S
O370 Cd366 2.273 . S
O370 Cd368 2.411 . S
O370 C373 1.320 . S
O371 Cd368 2.333 . S
O371 C373 1.214 . S
O372 Cd368 2.352 . S
O372 C375 1.258 . S
C373 O370 1.320 . S
C373 O371 1.214 . S
O374 Cd366 2.277 . S
O374 C369 1.209 . S
C375 O372 1.258 . S
C375 O377 1.282 . S
O376 Cd368 2.277 . S
O376 C369 1.226 . S
O377 Cd368 2.356 . S
O377 C375 1.282 . S
C378 O379 1.306 . S
C378 O381 1.160 . S
O379 C378 1.306 . S
O379 Cd380 2.228 . S
Cd380 O379 2.228 . S
Cd380 O384 2.273 . S
Cd380 O388 2.277 . S
O381 C378 1.160 . S
O381 Cd382 2.203 . S
Cd382 O381 2.203 . S
Cd382 O384 2.411 . S
Cd382 O385 2.333 . S
Cd382 O386 2.352 . S
Cd382 O390 2.277 . S
Cd382 O391 2.356 . S
C383 O388 1.209 . S
C383 O390 1.226 . S
O384 Cd380 2.273 . S
O384 Cd382 2.411 . S
O384 C387 1.320 . S
O385 Cd382 2.333 . S
O385 C387 1.214 . S
O386 Cd382 2.352 . S
O386 C389 1.258 . S
C387 O384 1.320 . S
C387 O385 1.214 . S
O388 Cd380 2.277 . S
O388 C383 1.209 . S
C389 O386 1.258 . S
C389 O391 1.282 . S
O390 Cd382 2.277 . S
O390 C383 1.226 . S
O391 Cd382 2.356 . S
O391 C389 1.282 . S
C392 O393 1.306 . S
C392 O395 1.160 . S
O393 C392 1.306 . S
O393 Cd394 2.228 . S
Cd394 O393 2.228 . S
Cd394 O398 2.273 . S
Cd394 O402 2.277 . S
O395 C392 1.160 . S
O395 Cd396 2.203 . S
Cd396 O395 2.203 . S
Cd396 O398 2.411 . S
Cd396 O399 2.333 . S
Cd396 O400 2.352 . S
Cd396 O404 2.277 . S
Cd396 O405 2.356 . S
C397 O402 1.209 . S
C397 O404 1.226 . S
O398 Cd394 2.273 . S
O398 Cd396 2.411 . S
O398 C401 1.320 . S
O399 Cd396 2.333 . S
O399 C401 1.214 . S
O400 Cd396 2.352 . S
O400 C403 1.258 . S
C401 O398 1.320 . S
C401 O399 1.214 . S
O402 Cd394 2.277 . S
O402 C397 1.209 . S
C403 O400 1.258 . S
C403 O405 1.282 . S
O404 Cd396 2.277 . S
O404 C397 1.226 . S
O405 Cd396 2.356 . S
O405 C403 1.282 . S
C406 O407 1.306 . S
C406 O409 1.160 . S
O407 C406 1.306 . S
O407 Cd408 2.228 . S
Cd408 O407 2.228 . S
Cd408 O412 2.273 . S
Cd408 O416 2.277 . S
O409 C406 1.160 . S
O409 Cd410 2.203 . S
Cd410 O409 2.203 . S
Cd410 O412 2.411 . S
Cd410 O413 2.333 . S
Cd410 O414 2.352 . S
Cd410 O418 2.277 . S
Cd410 O419 2.356 . S
C411 O416 1.209 . S
C411 O418 1.226 . S
O412 Cd408 2.273 . S
O412 Cd410 2.411 . S
O412 C415 1.320 . S
O413 Cd410 2.333 . S
O413 C415 1.214 . S
O414 Cd410 2.352 . S
O414 C417 1.258 . S
C415 O412 1.320 . S
C415 O413 1.214 . S
O416 Cd408 2.277 . S
O416 C411 1.209 . S
C417 O414 1.258 . S
C417 O419 1.282 . S
O418 Cd410 2.277 . S
O418 C411 1.226 . S
O419 Cd410 2.356 . S
O419 C417 1.282 . S
C420 O421 1.306 . S
C420 O423 1.160 . S
O421 C420 1.306 . S
O421 Cd422 2.228 . S
Cd422 O421 2.228 . S
Cd422 O426 2.273 . S
Cd422 O430 2.277 . S
O423 C420 1.160 . S
O423 Cd424 2.203 . S
Cd424 O423 2.203 . S
Cd424 O426 2.411 . S
Cd424 O427 2.333 . S
Cd424 O428 2.352 . S
Cd424 O432 2.277 . S
Cd424 O433 2.356 . S
C425 O430 1.209 . S
C425 O432 1.226 . S
O426 Cd422 2.273 . S
O426 Cd424 2.411 . S
O426 C429 1.320 . S
O427 Cd424 2.333 . S
O427 C429 1.214 . S
O428 Cd424 2.352 . S
O428 C431 1.258 . S
C429 O426 1.320 . S
C429 O427 1.214 . S
O430 Cd422 2.277 . S
O430 C425 1.209 . S
C431 O428 1.258 . S
C431 O433 1.282 . S
O432 Cd424 2.277 . S
O432 C425 1.226 . S
O433 Cd424 2.356 . S
O433 C431 1.282 . S
C434 O435 1.306 . S
C434 O437 1.160 . S
O435 C434 1.306 . S
O435 Cd436 2.228 . S
Cd436 O435 2.228 . S
Cd436 O440 2.273 . S
Cd436 O444 2.277 . S
O437 C434 1.160 . S
O437 Cd438 2.203 . S
Cd438 O437 2.203 . S
Cd438 O440 2.411 . S
Cd438 O441 2.333 . S
Cd438 O442 2.352 . S
Cd438 O446 2.277 . S
Cd438 O447 2.356 . S
C439 O444 1.209 . S
C439 O446 1.226 . S
O440 Cd436 2.273 . S
O440 Cd438 2.411 . S
O440 C443 1.320 . S
O441 Cd438 2.333 . S
O441 C443 1.214 . S
O442 Cd438 2.352 . S
O442 C445 1.258 . S
C443 O440 1.320 . S
C443 O441 1.214 . S
O444 Cd436 2.277 . S
O444 C439 1.209 . S
C445 O442 1.258 . S
C445 O447 1.282 . S
O446 Cd438 2.277 . S
O446 C439 1.226 . S
O447 Cd438 2.356 . S
O447 C445 1.282 . S
H448 C454 0.930 . S
H449 C457 0.930 . S
H450 C458 0.930 . S
H451 C459 0.930 . S
H452 C462 0.930 . S
H453 C463 0.930 . S
C454 H448 0.930 . S
C454 C455 1.355 . S
C454 C456 1.415 . S
C455 C454 1.355 . S
C455 C457 1.419 . S
C456 C454 1.415 . S
C456 C461 1.425 . S
C456 C463 1.409 . S
C457 H449 0.930 . S
C457 C455 1.419 . S
C457 C458 1.362 . S
C458 H450 0.930 . S
C458 C457 1.362 . S
C458 C461 1.409 . S
C459 H451 0.930 . S
C459 C460 1.355 . S
C459 C461 1.415 . S
C460 C459 1.355 . S
C460 C462 1.419 . S
C461 C456 1.425 . S
C461 C458 1.409 . S
C461 C459 1.415 . S
C462 H452 0.930 . S
C462 C460 1.419 . S
C462 C463 1.362 . S
C463 H453 0.930 . S
C463 C456 1.409 . S
C463 C462 1.362 . S
H464 C470 0.930 . S
H465 C473 0.930 . S
H466 C474 0.930 . S
H467 C475 0.930 . S
H468 C478 0.930 . S
H469 C479 0.930 . S
C470 H464 0.930 . S
C470 C471 1.355 . S
C470 C472 1.415 . S
C471 C470 1.355 . S
C471 C473 1.419 . S
C472 C470 1.415 . S
C472 C477 1.425 . S
C472 C479 1.409 . S
C473 H465 0.930 . S
C473 C471 1.419 . S
C473 C474 1.362 . S
C474 H466 0.930 . S
C474 C473 1.362 . S
C474 C477 1.409 . S
C475 H467 0.930 . S
C475 C476 1.355 . S
C475 C477 1.415 . S
C476 C475 1.355 . S
C476 C478 1.419 . S
C477 C472 1.425 . S
C477 C474 1.409 . S
C477 C475 1.415 . S
C478 H468 0.930 . S
C478 C476 1.419 . S
C478 C479 1.362 . S
C479 H469 0.930 . S
C479 C472 1.409 . S
C479 C478 1.362 . S
H480 C486 0.930 . S
H481 C489 0.930 . S
H482 C490 0.930 . S
H483 C491 0.930 . S
H484 C494 0.930 . S
H485 C495 0.930 . S
C486 H480 0.930 . S
C486 C487 1.355 . S
C486 C488 1.415 . S
C487 C486 1.355 . S
C487 C489 1.419 . S
C488 C486 1.415 . S
C488 C493 1.425 . S
C488 C495 1.409 . S
C489 H481 0.930 . S
C489 C487 1.419 . S
C489 C490 1.362 . S
C490 H482 0.930 . S
C490 C489 1.362 . S
C490 C493 1.409 . S
C491 H483 0.930 . S
C491 C492 1.355 . S
C491 C493 1.415 . S
C492 C491 1.355 . S
C492 C494 1.419 . S
C493 C488 1.425 . S
C493 C490 1.409 . S
C493 C491 1.415 . S
C494 H484 0.930 . S
C494 C492 1.419 . S
C494 C495 1.362 . S
C495 H485 0.930 . S
C495 C488 1.409 . S
C495 C494 1.362 . S
H496 C502 0.930 . S
H497 C505 0.930 . S
H498 C506 0.930 . S
H499 C507 0.930 . S
H500 C510 0.930 . S
H501 C511 0.930 . S
C502 H496 0.930 . S
C502 C503 1.355 . S
C502 C504 1.415 . S
C503 C502 1.355 . S
C503 C505 1.419 . S
C504 C502 1.415 . S
C504 C509 1.425 . S
C504 C511 1.409 . S
C505 H497 0.930 . S
C505 C503 1.419 . S
C505 C506 1.362 . S
C506 H498 0.930 . S
C506 C505 1.362 . S
C506 C509 1.409 . S
C507 H499 0.930 . S
C507 C508 1.355 . S
C507 C509 1.415 . S
C508 C507 1.355 . S
C508 C510 1.419 . S
C509 C504 1.425 . S
C509 C506 1.409 . S
C509 C507 1.415 . S
C510 H500 0.930 . S
C510 C508 1.419 . S
C510 C511 1.362 . S
C511 H501 0.930 . S
C511 C504 1.409 . S
C511 C510 1.362 . S
H512 C518 0.930 . S
H513 C521 0.930 . S
H514 C522 0.930 . S
H515 C523 0.930 . S
H516 C526 0.930 . S
H517 C527 0.930 . S
C518 H512 0.930 . S
C518 C519 1.355 . S
C518 C520 1.415 . S
C519 C518 1.355 . S
C519 C521 1.419 . S
C520 C518 1.415 . S
C520 C525 1.425 . S
C520 C527 1.409 . S
C521 H513 0.930 . S
C521 C519 1.419 . S
C521 C522 1.362 . S
C522 H514 0.930 . S
C522 C521 1.362 . S
C522 C525 1.409 . S
C523 H515 0.930 . S
C523 C524 1.355 . S
C523 C525 1.415 . S
C524 C523 1.355 . S
C524 C526 1.419 . S
C525 C520 1.425 . S
C525 C522 1.409 . S
C525 C523 1.415 . S
C526 H516 0.930 . S
C526 C524 1.419 . S
C526 C527 1.362 . S
C527 H517 0.930 . S
C527 C520 1.409 . S
C527 C526 1.362 . S
H528 C534 0.930 . S
H529 C537 0.930 . S
H530 C538 0.930 . S
H531 C539 0.930 . S
H532 C542 0.930 . S
H533 C543 0.930 . S
C534 H528 0.930 . S
C534 C535 1.355 . S
C534 C536 1.415 . S
C535 C534 1.355 . S
C535 C537 1.419 . S
C536 C534 1.415 . S
C536 C541 1.425 . S
C536 C543 1.409 . S
C537 H529 0.930 . S
C537 C535 1.419 . S
C537 C538 1.362 . S
C538 H530 0.930 . S
C538 C537 1.362 . S
C538 C541 1.409 . S
C539 H531 0.930 . S
C539 C540 1.355 . S
C539 C541 1.415 . S
C540 C539 1.355 . S
C540 C542 1.419 . S
C541 C536 1.425 . S
C541 C538 1.409 . S
C541 C539 1.415 . S
C542 H532 0.930 . S
C542 C540 1.419 . S
C542 C543 1.362 . S
C543 H533 0.930 . S
C543 C536 1.409 . S
C543 C542 1.362 . S
H544 C550 0.930 . S
H545 C553 0.930 . S
H546 C554 0.930 . S
H547 C555 0.930 . S
H548 C558 0.930 . S
H549 C559 0.930 . S
C550 H544 0.930 . S
C550 C551 1.355 . S
C550 C552 1.415 . S
C551 C550 1.355 . S
C551 C553 1.419 . S
C552 C550 1.415 . S
C552 C557 1.425 . S
C552 C559 1.409 . S
C553 H545 0.930 . S
C553 C551 1.419 . S
C553 C554 1.362 . S
C554 H546 0.930 . S
C554 C553 1.362 . S
C554 C557 1.409 . S
C555 H547 0.930 . S
C555 C556 1.355 . S
C555 C557 1.415 . S
C556 C555 1.355 . S
C556 C558 1.419 . S
C557 C552 1.425 . S
C557 C554 1.409 . S
C557 C555 1.415 . S
C558 H548 0.930 . S
C558 C556 1.419 . S
C558 C559 1.362 . S
C559 H549 0.930 . S
C559 C552 1.409 . S
C559 C558 1.362 . S
H560 C566 0.930 . S
H561 C569 0.930 . S
H562 C570 0.930 . S
H563 C571 0.930 . S
H564 C574 0.930 . S
H565 C575 0.930 . S
C566 H560 0.930 . S
C566 C567 1.355 . S
C566 C568 1.415 . S
C567 C566 1.355 . S
C567 C569 1.419 . S
C568 C566 1.415 . S
C568 C573 1.425 . S
C568 C575 1.409 . S
C569 H561 0.930 . S
C569 C567 1.419 . S
C569 C570 1.362 . S
C570 H562 0.930 . S
C570 C569 1.362 . S
C570 C573 1.409 . S
C571 H563 0.930 . S
C571 C572 1.355 . S
C571 C573 1.415 . S
C572 C571 1.355 . S
C572 C574 1.419 . S
C573 C568 1.425 . S
C573 C570 1.409 . S
C573 C571 1.415 . S
C574 H564 0.930 . S
C574 C572 1.419 . S
C574 C575 1.362 . S
C575 H565 0.930 . S
C575 C568 1.409 . S
C575 C574 1.362 . S
H576 C582 0.930 . S
H577 C585 0.930 . S
H578 C586 0.930 . S
H579 C587 0.930 . S
H580 C590 0.930 . S
H581 C591 0.930 . S
C582 H576 0.930 . S
C582 C583 1.355 . S
C582 C584 1.415 . S
C583 C582 1.355 . S
C583 C585 1.419 . S
C584 C582 1.415 . S
C584 C589 1.425 . S
C584 C591 1.409 . S
C585 H577 0.930 . S
C585 C583 1.419 . S
C585 C586 1.362 . S
C586 H578 0.930 . S
C586 C585 1.362 . S
C586 C589 1.409 . S
C587 H579 0.930 . S
C587 C588 1.355 . S
C587 C589 1.415 . S
C588 C587 1.355 . S
C588 C590 1.419 . S
C589 C584 1.425 . S
C589 C586 1.409 . S
C589 C587 1.415 . S
C590 H580 0.930 . S
C590 C588 1.419 . S
C590 C591 1.362 . S
C591 H581 0.930 . S
C591 C584 1.409 . S
C591 C590 1.362 . S
H592 C598 0.930 . S
H593 C601 0.930 . S
H594 C602 0.930 . S
H595 C603 0.930 . S
H596 C606 0.930 . S
H597 C607 0.930 . S
C598 H592 0.930 . S
C598 C599 1.355 . S
C598 C600 1.415 . S
C599 C598 1.355 . S
C599 C601 1.419 . S
C600 C598 1.415 . S
C600 C605 1.425 . S
C600 C607 1.409 . S
C601 H593 0.930 . S
C601 C599 1.419 . S
C601 C602 1.362 . S
C602 H594 0.930 . S
C602 C601 1.362 . S
C602 C605 1.409 . S
C603 H595 0.930 . S
C603 C604 1.355 . S
C603 C605 1.415 . S
C604 C603 1.355 . S
C604 C606 1.419 . S
C605 C600 1.425 . S
C605 C602 1.409 . S
C605 C603 1.415 . S
C606 H596 0.930 . S
C606 C604 1.419 . S
C606 C607 1.362 . S
C607 H597 0.930 . S
C607 C600 1.409 . S
C607 C606 1.362 . S
H608 C614 0.930 . S
H609 C617 0.930 . S
H610 C618 0.930 . S
H611 C619 0.930 . S
H612 C622 0.930 . S
H613 C623 0.930 . S
C614 H608 0.930 . S
C614 C615 1.355 . S
C614 C616 1.415 . S
C615 C614 1.355 . S
C615 C617 1.419 . S
C616 C614 1.415 . S
C616 C621 1.425 . S
C616 C623 1.409 . S
C617 H609 0.930 . S
C617 C615 1.419 . S
C617 C618 1.362 . S
C618 H610 0.930 . S
C618 C617 1.362 . S
C618 C621 1.409 . S
C619 H611 0.930 . S
C619 C620 1.355 . S
C619 C621 1.415 . S
C620 C619 1.355 . S
C620 C622 1.419 . S
C621 C616 1.425 . S
C621 C618 1.409 . S
C621 C619 1.415 . S
C622 H612 0.930 . S
C622 C620 1.419 . S
C622 C623 1.362 . S
C623 H613 0.930 . S
C623 C616 1.409 . S
C623 C622 1.362 . S
H624 C630 0.930 . S
H625 C633 0.930 . S
H626 C634 0.930 . S
H627 C635 0.930 . S
H628 C638 0.930 . S
H629 C639 0.930 . S
C630 H624 0.930 . S
C630 C631 1.355 . S
C630 C632 1.415 . S
C631 C630 1.355 . S
C631 C633 1.419 . S
C632 C630 1.415 . S
C632 C637 1.425 . S
C632 C639 1.409 . S
C633 H625 0.930 . S
C633 C631 1.419 . S
C633 C634 1.362 . S
C634 H626 0.930 . S
C634 C633 1.362 . S
C634 C637 1.409 . S
C635 H627 0.930 . S
C635 C636 1.355 . S
C635 C637 1.415 . S
C636 C635 1.355 . S
C636 C638 1.419 . S
C637 C632 1.425 . S
C637 C634 1.409 . S
C637 C635 1.415 . S
C638 H628 0.930 . S
C638 C636 1.419 . S
C638 C639 1.362 . S
C639 H629 0.930 . S
C639 C632 1.409 . S
C639 C638 1.362 . S
H640 C646 0.930 . S
H641 C649 0.930 . S
H642 C650 0.930 . S
H643 C651 0.930 . S
H644 C654 0.930 . S
H645 C655 0.930 . S
C646 H640 0.930 . S
C646 C647 1.355 . S
C646 C648 1.415 . S
C647 C646 1.355 . S
C647 C649 1.419 . S
C648 C646 1.415 . S
C648 C653 1.425 . S
C648 C655 1.409 . S
C649 H641 0.930 . S
C649 C647 1.419 . S
C649 C650 1.362 . S
C650 H642 0.930 . S
C650 C649 1.362 . S
C650 C653 1.409 . S
C651 H643 0.930 . S
C651 C652 1.355 . S
C651 C653 1.415 . S
C652 C651 1.355 . S
C652 C654 1.419 . S
C653 C648 1.425 . S
C653 C650 1.409 . S
C653 C651 1.415 . S
C654 H644 0.930 . S
C654 C652 1.419 . S
C654 C655 1.362 . S
C655 H645 0.930 . S
C655 C648 1.409 . S
C655 C654 1.362 . S
H656 C662 0.930 . S
H657 C665 0.930 . S
H658 C666 0.930 . S
H659 C667 0.930 . S
H660 C670 0.930 . S
H661 C671 0.930 . S
C662 H656 0.930 . S
C662 C663 1.355 . S
C662 C664 1.415 . S
C663 C662 1.355 . S
C663 C665 1.419 . S
C664 C662 1.415 . S
C664 C669 1.425 . S
C664 C671 1.409 . S
C665 H657 0.930 . S
C665 C663 1.419 . S
C665 C666 1.362 . S
C666 H658 0.930 . S
C666 C665 1.362 . S
C666 C669 1.409 . S
C667 H659 0.930 . S
C667 C668 1.355 . S
C667 C669 1.415 . S
C668 C667 1.355 . S
C668 C670 1.419 . S
C669 C664 1.425 . S
C669 C666 1.409 . S
C669 C667 1.415 . S
C670 H660 0.930 . S
C670 C668 1.419 . S
C670 C671 1.362 . S
C671 H661 0.930 . S
C671 C664 1.409 . S
C671 C670 1.362 . S
H672 C678 0.930 . S
H673 C681 0.930 . S
H674 C682 0.930 . S
H675 C683 0.930 . S
H676 C686 0.930 . S
H677 C687 0.930 . S
C678 H672 0.930 . S
C678 C679 1.355 . S
C678 C680 1.415 . S
C679 C678 1.355 . S
C679 C681 1.419 . S
C680 C678 1.415 . S
C680 C685 1.425 . S
C680 C687 1.409 . S
C681 H673 0.930 . S
C681 C679 1.419 . S
C681 C682 1.362 . S
C682 H674 0.930 . S
C682 C681 1.362 . S
C682 C685 1.409 . S
C683 H675 0.930 . S
C683 C684 1.355 . S
C683 C685 1.415 . S
C684 C683 1.355 . S
C684 C686 1.419 . S
C685 C680 1.425 . S
C685 C682 1.409 . S
C685 C683 1.415 . S
C686 H676 0.930 . S
C686 C684 1.419 . S
C686 C687 1.362 . S
C687 H677 0.930 . S
C687 C680 1.409 . S
C687 C686 1.362 . S
H688 C694 0.930 . S
H689 C697 0.930 . S
H690 C698 0.930 . S
H691 C699 0.930 . S
H692 C702 0.930 . S
H693 C703 0.930 . S
C694 H688 0.930 . S
C694 C695 1.355 . S
C694 C696 1.415 . S
C695 C694 1.355 . S
C695 C697 1.419 . S
C696 C694 1.415 . S
C696 C701 1.425 . S
C696 C703 1.409 . S
C697 H689 0.930 . S
C697 C695 1.419 . S
C697 C698 1.362 . S
C698 H690 0.930 . S
C698 C697 1.362 . S
C698 C701 1.409 . S
C699 H691 0.930 . S
C699 C700 1.355 . S
C699 C701 1.415 . S
C700 C699 1.355 . S
C700 C702 1.419 . S
C701 C696 1.425 . S
C701 C698 1.409 . S
C701 C699 1.415 . S
C702 H692 0.930 . S
C702 C700 1.419 . S
C702 C703 1.362 . S
C703 H693 0.930 . S
C703 C696 1.409 . S
C703 C702 1.362 . S
H704 C710 0.930 . S
H705 C713 0.930 . S
H706 C714 0.930 . S
H707 C715 0.930 . S
H708 C718 0.930 . S
H709 C719 0.930 . S
C710 H704 0.930 . S
C710 C711 1.355 . S
C710 C712 1.415 . S
C711 C710 1.355 . S
C711 C713 1.419 . S
C712 C710 1.415 . S
C712 C717 1.425 1_554 S
C712 C719 1.409 1_554 S
C713 H705 0.930 . S
C713 C711 1.419 . S
C713 C714 1.362 . S
C714 H706 0.930 . S
C714 C713 1.362 . S
C714 C717 1.409 1_554 S
C715 H707 0.930 . S
C715 C716 1.355 . S
C715 C717 1.415 . S
C716 C715 1.355 . S
C716 C718 1.419 . S
C717 C712 1.425 1_556 S
C717 C714 1.409 1_556 S
C717 C715 1.415 . S
C718 H708 0.930 . S
C718 C716 1.419 . S
C718 C719 1.362 . S
C719 H709 0.930 . S
C719 C712 1.409 1_556 S
C719 C718 1.362 . S
H720 C726 0.930 . S
H721 C729 0.930 . S
H722 C730 0.930 . S
H723 C731 0.930 . S
H724 C734 0.930 . S
H725 C735 0.930 . S
C726 H720 0.930 . S
C726 C727 1.355 . S
C726 C728 1.415 . S
C727 C726 1.355 . S
C727 C729 1.419 . S
C728 C726 1.415 . S
C728 C733 1.425 1_556 S
C728 C735 1.409 1_556 S
C729 H721 0.930 . S
C729 C727 1.419 . S
C729 C730 1.362 . S
C730 H722 0.930 . S
C730 C729 1.362 . S
C730 C733 1.409 1_556 S
C731 H723 0.930 . S
C731 C732 1.355 . S
C731 C733 1.415 . S
C732 C731 1.355 . S
C732 C734 1.419 . S
C733 C728 1.425 1_554 S
C733 C730 1.409 1_554 S
C733 C731 1.415 . S
C734 H724 0.930 . S
C734 C732 1.419 . S
C734 C735 1.362 . S
C735 H725 0.930 . S
C735 C728 1.409 1_554 S
C735 C734 1.362 . S
H736 C742 0.930 . S
H737 C745 0.930 . S
H738 C746 0.930 . S
H739 C747 0.930 . S
H740 C750 0.930 . S
H741 C751 0.930 . S
C742 H736 0.930 . S
C742 C743 1.355 . S
C742 C744 1.415 . S
C743 C742 1.355 . S
C743 C745 1.419 . S
C744 C742 1.415 . S
C744 C749 1.425 1_556 S
C744 C751 1.409 1_556 S
C745 H737 0.930 . S
C745 C743 1.419 . S
C745 C746 1.362 . S
C746 H738 0.930 . S
C746 C745 1.362 . S
C746 C749 1.409 1_556 S
C747 H739 0.930 . S
C747 C748 1.355 . S
C747 C749 1.415 . S
C748 C747 1.355 . S
C748 C750 1.419 . S
C749 C744 1.425 1_554 S
C749 C746 1.409 1_554 S
C749 C747 1.415 . S
C750 H740 0.930 . S
C750 C748 1.419 . S
C750 C751 1.362 . S
C751 H741 0.930 . S
C751 C744 1.409 1_554 S
C751 C750 1.362 . S
H752 C758 0.930 . S
H753 C761 0.930 . S
H754 C762 0.930 . S
H755 C763 0.930 . S
H756 C766 0.930 . S
H757 C767 0.930 . S
C758 H752 0.930 . S
C758 C759 1.355 . S
C758 C760 1.415 . S
C759 C758 1.355 . S
C759 C761 1.419 . S
C760 C758 1.415 . S
C760 C765 1.425 1_556 S
C760 C767 1.409 1_556 S
C761 H753 0.930 . S
C761 C759 1.419 . S
C761 C762 1.362 . S
C762 H754 0.930 . S
C762 C761 1.362 . S
C762 C765 1.409 1_556 S
C763 H755 0.930 . S
C763 C764 1.355 . S
C763 C765 1.415 . S
C764 C763 1.355 . S
C764 C766 1.419 . S
C765 C760 1.425 1_554 S
C765 C762 1.409 1_554 S
C765 C763 1.415 . S
C766 H756 0.930 . S
C766 C764 1.419 . S
C766 C767 1.362 . S
C767 H757 0.930 . S
C767 C760 1.409 1_554 S
C767 C766 1.362 . S
H768 C774 0.930 . S
H769 C777 0.930 . S
H770 C778 0.930 . S
H771 C779 0.930 . S
H772 C782 0.930 . S
H773 C783 0.930 . S
C774 H768 0.930 . S
C774 C775 1.355 . S
C774 C776 1.415 . S
C775 C774 1.355 . S
C775 C777 1.419 . S
C776 C774 1.415 . S
C776 C781 1.425 . S
C776 C783 1.409 . S
C777 H769 0.930 . S
C777 C775 1.419 . S
C777 C778 1.362 . S
C778 H770 0.930 . S
C778 C777 1.362 . S
C778 C781 1.409 . S
C779 H771 0.930 . S
C779 C780 1.355 . S
C779 C781 1.415 . S
C780 C779 1.355 . S
C780 C782 1.419 . S
C781 C776 1.425 . S
C781 C778 1.409 . S
C781 C779 1.415 . S
C782 H772 0.930 . S
C782 C780 1.419 . S
C782 C783 1.362 . S
C783 H773 0.930 . S
C783 C776 1.409 . S
C783 C782 1.362 . S
H784 C790 0.930 . S
H785 C793 0.930 . S
H786 C794 0.930 . S
H787 C795 0.930 . S
H788 C798 0.930 . S
H789 C799 0.930 . S
C790 H784 0.930 . S
C790 C791 1.355 . S
C790 C792 1.415 . S
C791 C790 1.355 . S
C791 C793 1.419 . S
C792 C790 1.415 . S
C792 C797 1.425 . S
C792 C799 1.409 . S
C793 H785 0.930 . S
C793 C791 1.419 . S
C793 C794 1.362 . S
C794 H786 0.930 . S
C794 C793 1.362 . S
C794 C797 1.409 . S
C795 H787 0.930 . S
C795 C796 1.355 . S
C795 C797 1.415 . S
C796 C795 1.355 . S
C796 C798 1.419 . S
C797 C792 1.425 . S
C797 C794 1.409 . S
C797 C795 1.415 . S
C798 H788 0.930 . S
C798 C796 1.419 . S
C798 C799 1.362 . S
C799 H789 0.930 . S
C799 C792 1.409 . S
C799 C798 1.362 . S
H800 C806 0.930 . S
H801 C809 0.930 . S
H802 C810 0.930 . S
H803 C811 0.930 . S
H804 C814 0.930 . S
H805 C815 0.930 . S
C806 H800 0.930 . S
C806 C807 1.355 . S
C806 C808 1.415 . S
C807 C806 1.355 . S
C807 C809 1.419 . S
C808 C806 1.415 . S
C808 C813 1.425 . S
C808 C815 1.409 . S
C809 H801 0.930 . S
C809 C807 1.419 . S
C809 C810 1.362 . S
C810 H802 0.930 . S
C810 C809 1.362 . S
C810 C813 1.409 . S
C811 H803 0.930 . S
C811 C812 1.355 . S
C811 C813 1.415 . S
C812 C811 1.355 . S
C812 C814 1.419 . S
C813 C808 1.425 . S
C813 C810 1.409 . S
C813 C811 1.415 . S
C814 H804 0.930 . S
C814 C812 1.419 . S
C814 C815 1.362 . S
C815 H805 0.930 . S
C815 C808 1.409 . S
C815 C814 1.362 . S
H816 C822 0.930 . S
H817 C825 0.930 . S
H818 C826 0.930 . S
H819 C827 0.930 . S
H820 C830 0.930 . S
H821 C831 0.930 . S
C822 H816 0.930 . S
C822 C823 1.355 . S
C822 C824 1.415 . S
C823 C822 1.355 . S
C823 C825 1.419 . S
C824 C822 1.415 . S
C824 C829 1.425 . S
C824 C831 1.409 . S
C825 H817 0.930 . S
C825 C823 1.419 . S
C825 C826 1.362 . S
C826 H818 0.930 . S
C826 C825 1.362 . S
C826 C829 1.409 . S
C827 H819 0.930 . S
C827 C828 1.355 . S
C827 C829 1.415 . S
C828 C827 1.355 . S
C828 C830 1.419 . S
C829 C824 1.425 . S
C829 C826 1.409 . S
C829 C827 1.415 . S
C830 H820 0.930 . S
C830 C828 1.419 . S
C830 C831 1.362 . S
C831 H821 0.930 . S
C831 C824 1.409 . S
C831 C830 1.362 . S
H832 C838 0.930 . S
H833 C841 0.930 . S
H834 C842 0.930 . S
H835 C843 0.930 . S
H836 C846 0.930 . S
H837 C847 0.930 . S
C838 H832 0.930 . S
C838 C839 1.355 . S
C838 C840 1.415 . S
C839 C838 1.355 . S
C839 C841 1.419 . S
C840 C838 1.415 . S
C840 C845 1.425 . S
C840 C847 1.409 . S
C841 H833 0.930 . S
C841 C839 1.419 . S
C841 C842 1.362 . S
C842 H834 0.930 . S
C842 C841 1.362 . S
C842 C845 1.409 . S
C843 H835 0.930 . S
C843 C844 1.355 . S
C843 C845 1.415 . S
C844 C843 1.355 . S
C844 C846 1.419 . S
C845 C840 1.425 . S
C845 C842 1.409 . S
C845 C843 1.415 . S
C846 H836 0.930 . S
C846 C844 1.419 . S
C846 C847 1.362 . S
C847 H837 0.930 . S
C847 C840 1.409 . S
C847 C846 1.362 . S
H848 C854 0.930 . S
H849 C857 0.930 . S
H850 C858 0.930 . S
H851 C859 0.930 . S
H852 C862 0.930 . S
H853 C863 0.930 . S
C854 H848 0.930 . S
C854 C855 1.355 . S
C854 C856 1.415 . S
C855 C854 1.355 . S
C855 C857 1.419 . S
C856 C854 1.415 . S
C856 C861 1.425 . S
C856 C863 1.409 . S
C857 H849 0.930 . S
C857 C855 1.419 . S
C857 C858 1.362 . S
C858 H850 0.930 . S
C858 C857 1.362 . S
C858 C861 1.409 . S
C859 H851 0.930 . S
C859 C860 1.355 . S
C859 C861 1.415 . S
C860 C859 1.355 . S
C860 C862 1.419 . S
C861 C856 1.425 . S
C861 C858 1.409 . S
C861 C859 1.415 . S
C862 H852 0.930 . S
C862 C860 1.419 . S
C862 C863 1.362 . S
C863 H853 0.930 . S
C863 C856 1.409 . S
C863 C862 1.362 . S
H864 C870 0.930 . S
H865 C873 0.930 . S
H866 C874 0.930 . S
H867 C875 0.930 . S
H868 C878 0.930 . S
H869 C879 0.930 . S
C870 H864 0.930 . S
C870 C871 1.355 . S
C870 C872 1.415 . S
C871 C870 1.355 . S
C871 C873 1.419 . S
C872 C870 1.415 . S
C872 C877 1.425 . S
C872 C879 1.409 . S
C873 H865 0.930 . S
C873 C871 1.419 . S
C873 C874 1.362 . S
C874 H866 0.930 . S
C874 C873 1.362 . S
C874 C877 1.409 . S
C875 H867 0.930 . S
C875 C876 1.355 . S
C875 C877 1.415 . S
C876 C875 1.355 . S
C876 C878 1.419 . S
C877 C872 1.425 . S
C877 C874 1.409 . S
C877 C875 1.415 . S
C878 H868 0.930 . S
C878 C876 1.419 . S
C878 C879 1.362 . S
C879 H869 0.930 . S
C879 C872 1.409 . S
C879 C878 1.362 . S
H880 C886 0.930 . S
H881 C889 0.930 . S
H882 C890 0.930 . S
H883 C891 0.930 . S
H884 C894 0.930 . S
H885 C895 0.930 . S
C886 H880 0.930 . S
C886 C887 1.355 . S
C886 C888 1.415 . S
C887 C886 1.355 . S
C887 C889 1.419 . S
C888 C886 1.415 . S
C888 C893 1.425 . S
C888 C895 1.409 . S
C889 H881 0.930 . S
C889 C887 1.419 . S
C889 C890 1.362 . S
C890 H882 0.930 . S
C890 C889 1.362 . S
C890 C893 1.409 . S
C891 H883 0.930 . S
C891 C892 1.355 . S
C891 C893 1.415 . S
C892 C891 1.355 . S
C892 C894 1.419 . S
C893 C888 1.425 . S
C893 C890 1.409 . S
C893 C891 1.415 . S
C894 H884 0.930 . S
C894 C892 1.419 . S
C894 C895 1.362 . S
C895 H885 0.930 . S
C895 C888 1.409 . S
C895 C894 1.362 . S
H896 C902 0.930 . S
H897 C905 0.930 . S
H898 C906 0.930 . S
H899 C907 0.930 . S
H900 C910 0.930 . S
H901 C911 0.930 . S
C902 H896 0.930 . S
C902 C903 1.355 . S
C902 C904 1.415 . S
C903 C902 1.355 . S
C903 C905 1.419 . S
C904 C902 1.415 . S
C904 C909 1.425 1_556 S
C904 C911 1.409 1_556 S
C905 H897 0.930 . S
C905 C903 1.419 . S
C905 C906 1.362 . S
C906 H898 0.930 . S
C906 C905 1.362 . S
C906 C909 1.409 1_556 S
C907 H899 0.930 . S
C907 C908 1.355 . S
C907 C909 1.415 . S
C908 C907 1.355 . S
C908 C910 1.419 . S
C909 C904 1.425 1_554 S
C909 C906 1.409 1_554 S
C909 C907 1.415 . S
C910 H900 0.930 . S
C910 C908 1.419 . S
C910 C911 1.362 . S
C911 H901 0.930 . S
C911 C904 1.409 1_554 S
C911 C910 1.362 . S
H912 C918 0.930 . S
H913 C921 0.930 . S
H914 C922 0.930 . S
H915 C923 0.930 . S
H916 C926 0.930 . S
H917 C927 0.930 . S
C918 H912 0.930 . S
C918 C919 1.355 . S
C918 C920 1.415 . S
C919 C918 1.355 . S
C919 C921 1.419 . S
C920 C918 1.415 . S
C920 C925 1.425 1_554 S
C920 C927 1.409 1_554 S
C921 H913 0.930 . S
C921 C919 1.419 . S
C921 C922 1.362 . S
C922 H914 0.930 . S
C922 C921 1.362 . S
C922 C925 1.409 1_554 S
C923 H915 0.930 . S
C923 C924 1.355 . S
C923 C925 1.415 . S
C924 C923 1.355 . S
C924 C926 1.419 . S
C925 C920 1.425 1_556 S
C925 C922 1.409 1_556 S
C925 C923 1.415 . S
C926 H916 0.930 . S
C926 C924 1.419 . S
C926 C927 1.362 . S
C927 H917 0.930 . S
C927 C920 1.409 1_556 S
C927 C926 1.362 . S
H928 C934 0.930 . S
H929 C937 0.930 . S
H930 C938 0.930 . S
H931 C939 0.930 . S
H932 C942 0.930 . S
H933 C943 0.930 . S
C934 H928 0.930 . S
C934 C935 1.355 . S
C934 C936 1.415 . S
C935 C934 1.355 . S
C935 C937 1.419 . S
C936 C934 1.415 . S
C936 C941 1.425 1_554 S
C936 C943 1.409 1_554 S
C937 H929 0.930 . S
C937 C935 1.419 . S
C937 C938 1.362 . S
C938 H930 0.930 . S
C938 C937 1.362 . S
C938 C941 1.409 1_554 S
C939 H931 0.930 . S
C939 C940 1.355 . S
C939 C941 1.415 . S
C940 C939 1.355 . S
C940 C942 1.419 . S
C941 C936 1.425 1_556 S
C941 C938 1.409 1_556 S
C941 C939 1.415 . S
C942 H932 0.930 . S
C942 C940 1.419 . S
C942 C943 1.362 . S
C943 H933 0.930 . S
C943 C936 1.409 1_556 S
C943 C942 1.362 . S
H944 C950 0.930 . S
H945 C953 0.930 . S
H946 C954 0.930 . S
H947 C955 0.930 . S
H948 C958 0.930 . S
H949 C959 0.930 . S
C950 H944 0.930 . S
C950 C951 1.355 . S
C950 C952 1.415 . S
C951 C950 1.355 . S
C951 C953 1.419 . S
C952 C950 1.415 . S
C952 C957 1.425 1_556 S
C952 C959 1.409 1_556 S
C953 H945 0.930 . S
C953 C951 1.419 . S
C953 C954 1.362 . S
C954 H946 0.930 . S
C954 C953 1.362 . S
C954 C957 1.409 1_556 S
C955 H947 0.930 . S
C955 C956 1.355 . S
C955 C957 1.415 . S
C956 C955 1.355 . S
C956 C958 1.419 . S
C957 C952 1.425 1_554 S
C957 C954 1.409 1_554 S
C957 C955 1.415 . S
C958 H948 0.930 . S
C958 C956 1.419 . S
C958 C959 1.362 . S
C959 H949 0.930 . S
C959 C952 1.409 1_554 S
C959 C958 1.362 . S
H960 C966 0.930 . S
H961 C969 0.930 . S
H962 C970 0.930 . S
H963 C971 0.930 . S
H964 C974 0.930 . S
H965 C975 0.930 . S
C966 H960 0.930 . S
C966 C967 1.355 . S
C966 C968 1.415 1_545 S
C967 C966 1.355 . S
C967 C969 1.419 . S
C968 C966 1.415 1_565 S
C968 C973 1.425 1_565 S
C968 C975 1.409 . S
C969 H961 0.930 . S
C969 C967 1.419 . S
C969 C970 1.362 . S
C970 H962 0.930 . S
C970 C969 1.362 . S
C970 C973 1.409 . S
C971 H963 0.930 . S
C971 C972 1.355 . S
C971 C973 1.415 1_565 S
C972 C971 1.355 . S
C972 C974 1.419 . S
C973 C968 1.425 1_545 S
C973 C970 1.409 . S
C973 C971 1.415 1_545 S
C974 H964 0.930 . S
C974 C972 1.419 . S
C974 C975 1.362 . S
C975 H965 0.930 . S
C975 C968 1.409 . S
C975 C974 1.362 . S
H976 C982 0.930 . S
H977 C985 0.930 . S
H978 C986 0.930 . S
H979 C987 0.930 . S
H980 C990 0.930 . S
H981 C991 0.930 . S
C982 H976 0.930 . S
C982 C983 1.355 . S
C982 C984 1.415 . S
C983 C982 1.355 . S
C983 C985 1.419 . S
C984 C982 1.415 . S
C984 C989 1.425 1_655 S
C984 C991 1.409 . S
C985 H977 0.930 . S
C985 C983 1.419 . S
C985 C986 1.362 1_655 S
C986 H978 0.930 . S
C986 C985 1.362 1_455 S
C986 C989 1.409 . S
C987 H979 0.930 . S
C987 C988 1.355 . S
C987 C989 1.415 . S
C988 C987 1.355 . S
C988 C990 1.419 . S
C989 C984 1.425 1_455 S
C989 C986 1.409 . S
C989 C987 1.415 . S
C990 H980 0.930 . S
C990 C988 1.419 . S
C990 C991 1.362 1_455 S
C991 H981 0.930 . S
C991 C984 1.409 . S
C991 C990 1.362 1_655 S
H992 C998 0.930 . S
H993 C1001 0.930 . S
H994 C1002 0.930 . S
H995 C1003 0.930 . S
H996 C1006 0.930 . S
H997 C1007 0.930 . S
C998 H992 0.930 . S
C998 C999 1.355 . S
C998 C1000 1.415 1_545 S
C999 C998 1.355 . S
C999 C1001 1.419 . S
C1000 C998 1.415 1_565 S
C1000 C1005 1.425 1_565 S
C1000 C1007 1.409 . S
C1001 H993 0.930 . S
C1001 C999 1.419 . S
C1001 C1002 1.362 . S
C1002 H994 0.930 . S
C1002 C1001 1.362 . S
C1002 C1005 1.409 . S
C1003 H995 0.930 . S
C1003 C1004 1.355 . S
C1003 C1005 1.415 1_565 S
C1004 C1003 1.355 . S
C1004 C1006 1.419 . S
C1005 C1000 1.425 1_545 S
C1005 C1002 1.409 . S
C1005 C1003 1.415 1_545 S
C1006 H996 0.930 . S
C1006 C1004 1.419 . S
C1006 C1007 1.362 . S
C1007 H997 0.930 . S
C1007 C1000 1.409 . S
C1007 C1006 1.362 . S
H1008 C1014 0.930 . S
H1009 C1017 0.930 . S
H1010 C1018 0.930 . S
H1011 C1019 0.930 . S
H1012 C1022 0.930 . S
H1013 C1023 0.930 . S
C1014 H1008 0.930 . S
C1014 C1015 1.355 . S
C1014 C1016 1.415 1_455 S
C1015 C1014 1.355 . S
C1015 C1017 1.419 . S
C1016 C1014 1.415 1_655 S
C1016 C1021 1.425 1_655 S
C1016 C1023 1.409 . S
C1017 H1009 0.930 . S
C1017 C1015 1.419 . S
C1017 C1018 1.362 . S
C1018 H1010 0.930 . S
C1018 C1017 1.362 . S
C1018 C1021 1.409 . S
C1019 H1011 0.930 . S
C1019 C1020 1.355 . S
C1019 C1021 1.415 1_655 S
C1020 C1019 1.355 . S
C1020 C1022 1.419 . S
C1021 C1016 1.425 1_455 S
C1021 C1018 1.409 . S
C1021 C1019 1.415 1_455 S
C1022 H1012 0.930 . S
C1022 C1020 1.419 . S
C1022 C1023 1.362 . S
C1023 H1013 0.930 . S
C1023 C1016 1.409 . S
C1023 C1022 1.362 . S
H1024 C1030 0.930 . S
H1025 C1033 0.930 . S
H1026 C1034 0.930 . S
H1027 C1035 0.930 . S
H1028 C1038 0.930 . S
H1029 C1039 0.930 . S
C1030 H1024 0.930 . S
C1030 C1031 1.355 . S
C1030 C1032 1.415 . S
C1031 C1030 1.355 . S
C1031 C1033 1.419 . S
C1032 C1030 1.415 . S
C1032 C1037 1.425 1_565 S
C1032 C1039 1.409 1_565 S
C1033 H1025 0.930 . S
C1033 C1031 1.419 . S
C1033 C1034 1.362 . S
C1034 H1026 0.930 . S
C1034 C1033 1.362 . S
C1034 C1037 1.409 1_565 S
C1035 H1027 0.930 . S
C1035 C1036 1.355 . S
C1035 C1037 1.415 . S
C1036 C1035 1.355 . S
C1036 C1038 1.419 . S
C1037 C1032 1.425 1_545 S
C1037 C1034 1.409 1_545 S
C1037 C1035 1.415 . S
C1038 H1028 0.930 . S
C1038 C1036 1.419 . S
C1038 C1039 1.362 . S
C1039 H1029 0.930 . S
C1039 C1032 1.409 1_545 S
C1039 C1038 1.362 . S
H1040 C1046 0.930 . S
H1041 C1049 0.930 . S
H1042 C1050 0.930 . S
H1043 C1051 0.930 . S
H1044 C1054 0.930 . S
H1045 C1055 0.930 . S
C1046 H1040 0.930 . S
C1046 C1047 1.355 . S
C1046 C1048 1.415 . S
C1047 C1046 1.355 . S
C1047 C1049 1.419 . S
C1048 C1046 1.415 . S
C1048 C1053 1.425 1_655 S
C1048 C1055 1.409 1_655 S
C1049 H1041 0.930 . S
C1049 C1047 1.419 . S
C1049 C1050 1.362 . S
C1050 H1042 0.930 . S
C1050 C1049 1.362 . S
C1050 C1053 1.409 1_655 S
C1051 H1043 0.930 . S
C1051 C1052 1.355 . S
C1051 C1053 1.415 . S
C1052 C1051 1.355 . S
C1052 C1054 1.419 . S
C1053 C1048 1.425 1_455 S
C1053 C1050 1.409 1_455 S
C1053 C1051 1.415 . S
C1054 H1044 0.930 . S
C1054 C1052 1.419 . S
C1054 C1055 1.362 . S
C1055 H1045 0.930 . S
C1055 C1048 1.409 1_455 S
C1055 C1054 1.362 . S
H1056 C1062 0.930 . S
H1057 C1065 0.930 . S
H1058 C1066 0.930 . S
H1059 C1067 0.930 . S
H1060 C1070 0.930 . S
H1061 C1071 0.930 . S
C1062 H1056 0.930 . S
C1062 C1063 1.355 . S
C1062 C1064 1.415 . S
C1063 C1062 1.355 . S
C1063 C1065 1.419 . S
C1064 C1062 1.415 . S
C1064 C1069 1.425 1_565 S
C1064 C1071 1.409 . S
C1065 H1057 0.930 . S
C1065 C1063 1.419 . S
C1065 C1066 1.362 1_565 S
C1066 H1058 0.930 . S
C1066 C1065 1.362 1_545 S
C1066 C1069 1.409 . S
C1067 H1059 0.930 . S
C1067 C1068 1.355 . S
C1067 C1069 1.415 . S
C1068 C1067 1.355 . S
C1068 C1070 1.419 . S
C1069 C1064 1.425 1_545 S
C1069 C1066 1.409 . S
C1069 C1067 1.415 . S
C1070 H1060 0.930 . S
C1070 C1068 1.419 . S
C1070 C1071 1.362 1_545 S
C1071 H1061 0.930 . S
C1071 C1064 1.409 . S
C1071 C1070 1.362 1_565 S
H1072 C1078 0.930 . S
H1073 C1081 0.930 . S
H1074 C1082 0.930 . S
H1075 C1083 0.930 . S
H1076 C1086 0.930 . S
H1077 C1087 0.930 . S
C1078 H1072 0.930 . S
C1078 C1079 1.355 . S
C1078 C1080 1.415 . S
C1079 C1078 1.355 . S
C1079 C1081 1.419 . S
C1080 C1078 1.415 . S
C1080 C1085 1.425 1_655 S
C1080 C1087 1.409 . S
C1081 H1073 0.930 . S
C1081 C1079 1.419 . S
C1081 C1082 1.362 1_655 S
C1082 H1074 0.930 . S
C1082 C1081 1.362 1_455 S
C1082 C1085 1.409 . S
C1083 H1075 0.930 . S
C1083 C1084 1.355 . S
C1083 C1085 1.415 . S
C1084 C1083 1.355 . S
C1084 C1086 1.419 . S
C1085 C1080 1.425 1_455 S
C1085 C1082 1.409 . S
C1085 C1083 1.415 . S
C1086 H1076 0.930 . S
C1086 C1084 1.419 . S
C1086 C1087 1.362 1_455 S
C1087 H1077 0.930 . S
C1087 C1080 1.409 . S
C1087 C1086 1.362 1_655 S
H1088 C1094 0.930 . S
H1089 C1097 0.930 . S
H1090 C1098 0.930 . S
H1091 C1099 0.930 . S
H1092 C1102 0.930 . S
H1093 C1103 0.930 . S
C1094 H1088 0.930 . S
C1094 C1095 1.355 . S
C1094 C1096 1.415 . S
C1095 C1094 1.355 . S
C1095 C1097 1.419 . S
C1096 C1094 1.415 . S
C1096 C1101 1.425 . S
C1096 C1103 1.409 . S
C1097 H1089 0.930 . S
C1097 C1095 1.419 . S
C1097 C1098 1.362 . S
C1098 H1090 0.930 . S
C1098 C1097 1.362 . S
C1098 C1101 1.409 . S
C1099 H1091 0.930 . S
C1099 C1100 1.355 . S
C1099 C1101 1.415 . S
C1100 C1099 1.355 . S
C1100 C1102 1.419 . S
C1101 C1096 1.425 . S
C1101 C1098 1.409 . S
C1101 C1099 1.415 . S
C1102 H1092 0.930 . S
C1102 C1100 1.419 . S
C1102 C1103 1.362 . S
C1103 H1093 0.930 . S
C1103 C1096 1.409 . S
C1103 C1102 1.362 . S
H1104 C1110 0.930 . S
H1105 C1113 0.930 . S
H1106 C1114 0.930 . S
H1107 C1115 0.930 . S
H1108 C1118 0.930 . S
H1109 C1119 0.930 . S
C1110 H1104 0.930 . S
C1110 C1111 1.355 . S
C1110 C1112 1.415 . S
C1111 C1110 1.355 . S
C1111 C1113 1.419 . S
C1112 C1110 1.415 . S
C1112 C1117 1.425 . S
C1112 C1119 1.409 . S
C1113 H1105 0.930 . S
C1113 C1111 1.419 . S
C1113 C1114 1.362 . S
C1114 H1106 0.930 . S
C1114 C1113 1.362 . S
C1114 C1117 1.409 . S
C1115 H1107 0.930 . S
C1115 C1116 1.355 . S
C1115 C1117 1.415 . S
C1116 C1115 1.355 . S
C1116 C1118 1.419 . S
C1117 C1112 1.425 . S
C1117 C1114 1.409 . S
C1117 C1115 1.415 . S
C1118 H1108 0.930 . S
C1118 C1116 1.419 . S
C1118 C1119 1.362 . S
C1119 H1109 0.930 . S
C1119 C1112 1.409 . S
C1119 C1118 1.362 . S
H1120 C1126 0.930 . S
H1121 C1129 0.930 . S
H1122 C1130 0.930 . S
H1123 C1131 0.930 . S
H1124 C1134 0.930 . S
H1125 C1135 0.930 . S
C1126 H1120 0.930 . S
C1126 C1127 1.355 . S
C1126 C1128 1.415 . S
C1127 C1126 1.355 . S
C1127 C1129 1.419 . S
C1128 C1126 1.415 . S
C1128 C1133 1.425 . S
C1128 C1135 1.409 . S
C1129 H1121 0.930 . S
C1129 C1127 1.419 . S
C1129 C1130 1.362 . S
C1130 H1122 0.930 . S
C1130 C1129 1.362 . S
C1130 C1133 1.409 . S
C1131 H1123 0.930 . S
C1131 C1132 1.355 . S
C1131 C1133 1.415 . S
C1132 C1131 1.355 . S
C1132 C1134 1.419 . S
C1133 C1128 1.425 . S
C1133 C1130 1.409 . S
C1133 C1131 1.415 . S
C1134 H1124 0.930 . S
C1134 C1132 1.419 . S
C1134 C1135 1.362 . S
C1135 H1125 0.930 . S
C1135 C1128 1.409 . S
C1135 C1134 1.362 . S
H1136 C1142 0.930 . S
H1137 C1145 0.930 . S
H1138 C1146 0.930 . S
H1139 C1147 0.930 . S
H1140 C1150 0.930 . S
H1141 C1151 0.930 . S
C1142 H1136 0.930 . S
C1142 C1143 1.355 . S
C1142 C1144 1.415 . S
C1143 C1142 1.355 . S
C1143 C1145 1.419 . S
C1144 C1142 1.415 . S
C1144 C1149 1.425 . S
C1144 C1151 1.409 . S
C1145 H1137 0.930 . S
C1145 C1143 1.419 . S
C1145 C1146 1.362 . S
C1146 H1138 0.930 . S
C1146 C1145 1.362 . S
C1146 C1149 1.409 . S
C1147 H1139 0.930 . S
C1147 C1148 1.355 . S
C1147 C1149 1.415 . S
C1148 C1147 1.355 . S
C1148 C1150 1.419 . S
C1149 C1144 1.425 . S
C1149 C1146 1.409 . S
C1149 C1147 1.415 . S
C1150 H1140 0.930 . S
C1150 C1148 1.419 . S
C1150 C1151 1.362 . S
C1151 H1141 0.930 . S
C1151 C1144 1.409 . S
C1151 C1150 1.362 . S
H1152 C1158 0.930 . S
H1153 C1161 0.930 . S
H1154 C1162 0.930 . S
H1155 C1163 0.930 . S
H1156 C1166 0.930 . S
H1157 C1167 0.930 . S
C1158 H1152 0.930 . S
C1158 C1159 1.355 . S
C1158 C1160 1.415 . S
C1159 C1158 1.355 . S
C1159 C1161 1.419 . S
C1160 C1158 1.415 . S
C1160 C1165 1.425 . S
C1160 C1167 1.409 . S
C1161 H1153 0.930 . S
C1161 C1159 1.419 . S
C1161 C1162 1.362 . S
C1162 H1154 0.930 . S
C1162 C1161 1.362 . S
C1162 C1165 1.409 . S
C1163 H1155 0.930 . S
C1163 C1164 1.355 . S
C1163 C1165 1.415 . S
C1164 C1163 1.355 . S
C1164 C1166 1.419 . S
C1165 C1160 1.425 . S
C1165 C1162 1.409 . S
C1165 C1163 1.415 . S
C1166 H1156 0.930 . S
C1166 C1164 1.419 . S
C1166 C1167 1.362 . S
C1167 H1157 0.930 . S
C1167 C1160 1.409 . S
C1167 C1166 1.362 . S
H1168 C1174 0.930 . S
H1169 C1177 0.930 . S
H1170 C1178 0.930 . S
H1171 C1179 0.930 . S
H1172 C1182 0.930 . S
H1173 C1183 0.930 . S
C1174 H1168 0.930 . S
C1174 C1175 1.355 . S
C1174 C1176 1.415 . S
C1175 C1174 1.355 . S
C1175 C1177 1.419 . S
C1176 C1174 1.415 . S
C1176 C1181 1.425 . S
C1176 C1183 1.409 . S
C1177 H1169 0.930 . S
C1177 C1175 1.419 . S
C1177 C1178 1.362 . S
C1178 H1170 0.930 . S
C1178 C1177 1.362 . S
C1178 C1181 1.409 . S
C1179 H1171 0.930 . S
C1179 C1180 1.355 . S
C1179 C1181 1.415 . S
C1180 C1179 1.355 . S
C1180 C1182 1.419 . S
C1181 C1176 1.425 . S
C1181 C1178 1.409 . S
C1181 C1179 1.415 . S
C1182 H1172 0.930 . S
C1182 C1180 1.419 . S
C1182 C1183 1.362 . S
C1183 H1173 0.930 . S
C1183 C1176 1.409 . S
C1183 C1182 1.362 . S
H1184 C1190 0.930 . S
H1185 C1193 0.930 . S
H1186 C1194 0.930 . S
H1187 C1195 0.930 . S
H1188 C1198 0.930 . S
H1189 C1199 0.930 . S
C1190 H1184 0.930 . S
C1190 C1191 1.355 . S
C1190 C1192 1.415 . S
C1191 C1190 1.355 . S
C1191 C1193 1.419 . S
C1192 C1190 1.415 . S
C1192 C1197 1.425 . S
C1192 C1199 1.409 . S
C1193 H1185 0.930 . S
C1193 C1191 1.419 . S
C1193 C1194 1.362 . S
C1194 H1186 0.930 . S
C1194 C1193 1.362 . S
C1194 C1197 1.409 . S
C1195 H1187 0.930 . S
C1195 C1196 1.355 . S
C1195 C1197 1.415 . S
C1196 C1195 1.355 . S
C1196 C1198 1.419 . S
C1197 C1192 1.425 . S
C1197 C1194 1.409 . S
C1197 C1195 1.415 . S
C1198 H1188 0.930 . S
C1198 C1196 1.419 . S
C1198 C1199 1.362 . S
C1199 H1189 0.930 . S
C1199 C1192 1.409 . S
C1199 C1198 1.362 . S
H1200 C1206 0.930 . S
H1201 C1209 0.930 . S
H1202 C1210 0.930 . S
H1203 C1211 0.930 . S
H1204 C1214 0.930 . S
H1205 C1215 0.930 . S
C1206 H1200 0.930 . S
C1206 C1207 1.355 . S
C1206 C1208 1.415 . S
C1207 C1206 1.355 . S
C1207 C1209 1.419 . S
C1208 C1206 1.415 . S
C1208 C1213 1.425 . S
C1208 C1215 1.409 . S
C1209 H1201 0.930 . S
C1209 C1207 1.419 . S
C1209 C1210 1.362 . S
C1210 H1202 0.930 . S
C1210 C1209 1.362 . S
C1210 C1213 1.409 . S
C1211 H1203 0.930 . S
C1211 C1212 1.355 . S
C1211 C1213 1.415 . S
C1212 C1211 1.355 . S
C1212 C1214 1.419 . S
C1213 C1208 1.425 . S
C1213 C1210 1.409 . S
C1213 C1211 1.415 . S
C1214 H1204 0.930 . S
C1214 C1212 1.419 . S
C1214 C1215 1.362 . S
C1215 H1205 0.930 . S
C1215 C1208 1.409 . S
C1215 C1214 1.362 . S
H1216 C1222 0.930 . S
H1217 C1225 0.930 . S
H1218 C1226 0.930 . S
H1219 C1227 0.930 . S
H1220 C1230 0.930 . S
H1221 C1231 0.930 . S
C1222 H1216 0.930 . S
C1222 C1223 1.355 . S
C1222 C1224 1.415 . S
C1223 C1222 1.355 . S
C1223 C1225 1.419 . S
C1224 C1222 1.415 . S
C1224 C1229 1.425 . S
C1224 C1231 1.409 . S
C1225 H1217 0.930 . S
C1225 C1223 1.419 . S
C1225 C1226 1.362 . S
C1226 H1218 0.930 . S
C1226 C1225 1.362 . S
C1226 C1229 1.409 . S
C1227 H1219 0.930 . S
C1227 C1228 1.355 . S
C1227 C1229 1.415 . S
C1228 C1227 1.355 . S
C1228 C1230 1.419 . S
C1229 C1224 1.425 . S
C1229 C1226 1.409 . S
C1229 C1227 1.415 . S
C1230 H1220 0.930 . S
C1230 C1228 1.419 . S
C1230 C1231 1.362 . S
C1231 H1221 0.930 . S
C1231 C1224 1.409 . S
C1231 C1230 1.362 . S
H1232 C1238 0.930 . S
H1233 C1241 0.930 . S
H1234 C1242 0.930 . S
H1235 C1243 0.930 . S
H1236 C1246 0.930 . S
H1237 C1247 0.930 . S
C1238 H1232 0.930 . S
C1238 C1239 1.355 . S
C1238 C1240 1.415 . S
C1239 C1238 1.355 . S
C1239 C1241 1.419 . S
C1240 C1238 1.415 . S
C1240 C1245 1.425 . S
C1240 C1247 1.409 . S
C1241 H1233 0.930 . S
C1241 C1239 1.419 . S
C1241 C1242 1.362 . S
C1242 H1234 0.930 . S
C1242 C1241 1.362 . S
C1242 C1245 1.409 . S
C1243 H1235 0.930 . S
C1243 C1244 1.355 . S
C1243 C1245 1.415 . S
C1244 C1243 1.355 . S
C1244 C1246 1.419 . S
C1245 C1240 1.425 . S
C1245 C1242 1.409 . S
C1245 C1243 1.415 . S
C1246 H1236 0.930 . S
C1246 C1244 1.419 . S
C1246 C1247 1.362 . S
C1247 H1237 0.930 . S
C1247 C1240 1.409 . S
C1247 C1246 1.362 . S
H1248 C1254 0.930 . S
H1249 C1257 0.930 . S
H1250 C1258 0.930 . S
H1251 C1259 0.930 . S
H1252 C1262 0.930 . S
H1253 C1263 0.930 . S
C1254 H1248 0.930 . S
C1254 C1255 1.355 . S
C1254 C1256 1.415 . S
C1255 C1254 1.355 . S
C1255 C1257 1.419 . S
C1256 C1254 1.415 . S
C1256 C1261 1.425 . S
C1256 C1263 1.409 . S
C1257 H1249 0.930 . S
C1257 C1255 1.419 . S
C1257 C1258 1.362 . S
C1258 H1250 0.930 . S
C1258 C1257 1.362 . S
C1258 C1261 1.409 . S
C1259 H1251 0.930 . S
C1259 C1260 1.355 . S
C1259 C1261 1.415 . S
C1260 C1259 1.355 . S
C1260 C1262 1.419 . S
C1261 C1256 1.425 . S
C1261 C1258 1.409 . S
C1261 C1259 1.415 . S
C1262 H1252 0.930 . S
C1262 C1260 1.419 . S
C1262 C1263 1.362 . S
C1263 H1253 0.930 . S
C1263 C1256 1.409 . S
C1263 C1262 1.362 . S
H1264 C1270 0.930 . S
H1265 C1273 0.930 . S
H1266 C1274 0.930 . S
H1267 C1275 0.930 . S
H1268 C1278 0.930 . S
H1269 C1279 0.930 . S
C1270 H1264 0.930 . S
C1270 C1271 1.355 . S
C1270 C1272 1.415 . S
C1271 C1270 1.355 . S
C1271 C1273 1.419 . S
C1272 C1270 1.415 . S
C1272 C1277 1.425 . S
C1272 C1279 1.409 . S
C1273 H1265 0.930 . S
C1273 C1271 1.419 . S
C1273 C1274 1.362 . S
C1274 H1266 0.930 . S
C1274 C1273 1.362 . S
C1274 C1277 1.409 . S
C1275 H1267 0.930 . S
C1275 C1276 1.355 . S
C1275 C1277 1.415 . S
C1276 C1275 1.355 . S
C1276 C1278 1.419 . S
C1277 C1272 1.425 . S
C1277 C1274 1.409 . S
C1277 C1275 1.415 . S
C1278 H1268 0.930 . S
C1278 C1276 1.419 . S
C1278 C1279 1.362 . S
C1279 H1269 0.930 . S
C1279 C1272 1.409 . S
C1279 C1278 1.362 . S
H1280 C1286 0.930 . S
H1281 C1289 0.930 . S
H1282 C1290 0.930 . S
H1283 C1291 0.930 . S
H1284 C1294 0.930 . S
H1285 C1295 0.930 . S
C1286 H1280 0.930 . S
C1286 C1287 1.355 . S
C1286 C1288 1.415 . S
C1287 C1286 1.355 . S
C1287 C1289 1.419 . S
C1288 C1286 1.415 . S
C1288 C1293 1.425 . S
C1288 C1295 1.409 . S
C1289 H1281 0.930 . S
C1289 C1287 1.419 . S
C1289 C1290 1.362 . S
C1290 H1282 0.930 . S
C1290 C1289 1.362 . S
C1290 C1293 1.409 . S
C1291 H1283 0.930 . S
C1291 C1292 1.355 . S
C1291 C1293 1.415 . S
C1292 C1291 1.355 . S
C1292 C1294 1.419 . S
C1293 C1288 1.425 . S
C1293 C1290 1.409 . S
C1293 C1291 1.415 . S
C1294 H1284 0.930 . S
C1294 C1292 1.419 . S
C1294 C1295 1.362 . S
C1295 H1285 0.930 . S
C1295 C1288 1.409 . S
C1295 C1294 1.362 . S
H1296 C1302 0.930 . S
H1297 C1305 0.930 . S
H1298 C1306 0.930 . S
H1299 C1307 0.930 . S
H1300 C1310 0.930 . S
H1301 C1311 0.930 . S
C1302 H1296 0.930 . S
C1302 C1303 1.355 . S
C1302 C1304 1.415 . S
C1303 C1302 1.355 . S
C1303 C1305 1.419 . S
C1304 C1302 1.415 . S
C1304 C1309 1.425 . S
C1304 C1311 1.409 . S
C1305 H1297 0.930 . S
C1305 C1303 1.419 . S
C1305 C1306 1.362 . S
C1306 H1298 0.930 . S
C1306 C1305 1.362 . S
C1306 C1309 1.409 . S
C1307 H1299 0.930 . S
C1307 C1308 1.355 . S
C1307 C1309 1.415 . S
C1308 C1307 1.355 . S
C1308 C1310 1.419 . S
C1309 C1304 1.425 . S
C1309 C1306 1.409 . S
C1309 C1307 1.415 . S
C1310 H1300 0.930 . S
C1310 C1308 1.419 . S
C1310 C1311 1.362 . S
C1311 H1301 0.930 . S
C1311 C1304 1.409 . S
C1311 C1310 1.362 . S
H1312 C1318 0.930 . S
H1313 C1321 0.930 . S
H1314 C1322 0.930 . S
H1315 C1323 0.930 . S
H1316 C1326 0.930 . S
H1317 C1327 0.930 . S
C1318 H1312 0.930 . S
C1318 C1319 1.355 . S
C1318 C1320 1.415 . S
C1319 C1318 1.355 . S
C1319 C1321 1.419 . S
C1320 C1318 1.415 . S
C1320 C1325 1.425 . S
C1320 C1327 1.409 . S
C1321 H1313 0.930 . S
C1321 C1319 1.419 . S
C1321 C1322 1.362 . S
C1322 H1314 0.930 . S
C1322 C1321 1.362 . S
C1322 C1325 1.409 . S
C1323 H1315 0.930 . S
C1323 C1324 1.355 . S
C1323 C1325 1.415 . S
C1324 C1323 1.355 . S
C1324 C1326 1.419 . S
C1325 C1320 1.425 . S
C1325 C1322 1.409 . S
C1325 C1323 1.415 . S
C1326 H1316 0.930 . S
C1326 C1324 1.419 . S
C1326 C1327 1.362 . S
C1327 H1317 0.930 . S
C1327 C1320 1.409 . S
C1327 C1326 1.362 . S
H1328 C1334 0.930 . S
H1329 C1337 0.930 . S
H1330 C1338 0.930 . S
H1331 C1339 0.930 . S
H1332 C1342 0.930 . S
H1333 C1343 0.930 . S
C1334 H1328 0.930 . S
C1334 C1335 1.355 . S
C1334 C1336 1.415 . S
C1335 C1334 1.355 . S
C1335 C1337 1.419 . S
C1336 C1334 1.415 . S
C1336 C1341 1.425 . S
C1336 C1343 1.409 . S
C1337 H1329 0.930 . S
C1337 C1335 1.419 . S
C1337 C1338 1.362 . S
C1338 H1330 0.930 . S
C1338 C1337 1.362 . S
C1338 C1341 1.409 . S
C1339 H1331 0.930 . S
C1339 C1340 1.355 . S
C1339 C1341 1.415 . S
C1340 C1339 1.355 . S
C1340 C1342 1.419 . S
C1341 C1336 1.425 . S
C1341 C1338 1.409 . S
C1341 C1339 1.415 . S
C1342 H1332 0.930 . S
C1342 C1340 1.419 . S
C1342 C1343 1.362 . S
C1343 H1333 0.930 . S
C1343 C1336 1.409 . S
C1343 C1342 1.362 . S
H1344 C1350 0.930 . S
H1345 C1353 0.930 . S
H1346 C1354 0.930 . S
H1347 C1355 0.930 . S
H1348 C1358 0.930 . S
H1349 C1359 0.930 . S
C1350 H1344 0.930 . S
C1350 C1351 1.355 . S
C1350 C1352 1.415 . S
C1351 C1350 1.355 . S
C1351 C1353 1.419 . S
C1352 C1350 1.415 . S
C1352 C1357 1.425 . S
C1352 C1359 1.409 . S
C1353 H1345 0.930 . S
C1353 C1351 1.419 . S
C1353 C1354 1.362 . S
C1354 H1346 0.930 . S
C1354 C1353 1.362 . S
C1354 C1357 1.409 . S
C1355 H1347 0.930 . S
C1355 C1356 1.355 . S
C1355 C1357 1.415 . S
C1356 C1355 1.355 . S
C1356 C1358 1.419 . S
C1357 C1352 1.425 . S
C1357 C1354 1.409 . S
C1357 C1355 1.415 . S
C1358 H1348 0.930 . S
C1358 C1356 1.419 . S
C1358 C1359 1.362 . S
C1359 H1349 0.930 . S
C1359 C1352 1.409 . S
C1359 C1358 1.362 . S
H1360 C1366 0.930 . S
H1361 C1369 0.930 . S
H1362 C1370 0.930 . S
H1363 C1371 0.930 . S
H1364 C1374 0.930 . S
H1365 C1375 0.930 . S
C1366 H1360 0.930 . S
C1366 C1367 1.355 . S
C1366 C1368 1.415 . S
C1367 C1366 1.355 . S
C1367 C1369 1.419 . S
C1368 C1366 1.415 . S
C1368 C1373 1.425 . S
C1368 C1375 1.409 . S
C1369 H1361 0.930 . S
C1369 C1367 1.419 . S
C1369 C1370 1.362 . S
C1370 H1362 0.930 . S
C1370 C1369 1.362 . S
C1370 C1373 1.409 . S
C1371 H1363 0.930 . S
C1371 C1372 1.355 . S
C1371 C1373 1.415 . S
C1372 C1371 1.355 . S
C1372 C1374 1.419 . S
C1373 C1368 1.425 . S
C1373 C1370 1.409 . S
C1373 C1371 1.415 . S
C1374 H1364 0.930 . S
C1374 C1372 1.419 . S
C1374 C1375 1.362 . S
C1375 H1365 0.930 . S
C1375 C1368 1.409 . S
C1375 C1374 1.362 . S
H1376 C1382 0.930 . S
H1377 C1385 0.930 . S
H1378 C1386 0.930 . S
H1379 C1387 0.930 . S
H1380 C1390 0.930 . S
H1381 C1391 0.930 . S
C1382 H1376 0.930 . S
C1382 C1383 1.355 . S
C1382 C1384 1.415 . S
C1383 C1382 1.355 . S
C1383 C1385 1.419 . S
C1384 C1382 1.415 . S
C1384 C1389 1.425 . S
C1384 C1391 1.409 . S
C1385 H1377 0.930 . S
C1385 C1383 1.419 . S
C1385 C1386 1.362 . S
C1386 H1378 0.930 . S
C1386 C1385 1.362 . S
C1386 C1389 1.409 . S
C1387 H1379 0.930 . S
C1387 C1388 1.355 . S
C1387 C1389 1.415 . S
C1388 C1387 1.355 . S
C1388 C1390 1.419 . S
C1389 C1384 1.425 . S
C1389 C1386 1.409 . S
C1389 C1387 1.415 . S
C1390 H1380 0.930 . S
C1390 C1388 1.419 . S
C1390 C1391 1.362 . S
C1391 H1381 0.930 . S
C1391 C1384 1.409 . S
C1391 C1390 1.362 . S
H1392 C1398 0.930 . S
H1393 C1401 0.930 . S
H1394 C1402 0.930 . S
H1395 C1403 0.930 . S
H1396 C1406 0.930 . S
H1397 C1407 0.930 . S
C1398 H1392 0.930 . S
C1398 C1399 1.355 . S
C1398 C1400 1.415 . S
C1399 C1398 1.355 . S
C1399 C1401 1.419 . S
C1400 C1398 1.415 . S
C1400 C1405 1.425 . S
C1400 C1407 1.409 . S
C1401 H1393 0.930 . S
C1401 C1399 1.419 . S
C1401 C1402 1.362 . S
C1402 H1394 0.930 . S
C1402 C1401 1.362 . S
C1402 C1405 1.409 . S
C1403 H1395 0.930 . S
C1403 C1404 1.355 . S
C1403 C1405 1.415 . S
C1404 C1403 1.355 . S
C1404 C1406 1.419 . S
C1405 C1400 1.425 . S
C1405 C1402 1.409 . S
C1405 C1403 1.415 . S
C1406 H1396 0.930 . S
C1406 C1404 1.419 . S
C1406 C1407 1.362 . S
C1407 H1397 0.930 . S
C1407 C1400 1.409 . S
C1407 C1406 1.362 . S
H1408 C1414 0.930 . S
H1409 C1417 0.930 . S
H1410 C1418 0.930 . S
H1411 C1419 0.930 . S
H1412 C1422 0.930 . S
H1413 C1423 0.930 . S
C1414 H1408 0.930 . S
C1414 C1415 1.355 . S
C1414 C1416 1.415 . S
C1415 C1414 1.355 . S
C1415 C1417 1.419 . S
C1416 C1414 1.415 . S
C1416 C1421 1.425 . S
C1416 C1423 1.409 . S
C1417 H1409 0.930 . S
C1417 C1415 1.419 . S
C1417 C1418 1.362 . S
C1418 H1410 0.930 . S
C1418 C1417 1.362 . S
C1418 C1421 1.409 . S
C1419 H1411 0.930 . S
C1419 C1420 1.355 . S
C1419 C1421 1.415 . S
C1420 C1419 1.355 . S
C1420 C1422 1.419 . S
C1421 C1416 1.425 . S
C1421 C1418 1.409 . S
C1421 C1419 1.415 . S
C1422 H1412 0.930 . S
C1422 C1420 1.419 . S
C1422 C1423 1.362 . S
C1423 H1413 0.930 . S
C1423 C1416 1.409 . S
C1423 C1422 1.362 . S
H1424 C1430 0.930 . S
H1425 C1433 0.930 . S
H1426 C1434 0.930 . S
H1427 C1435 0.930 . S
H1428 C1438 0.930 . S
H1429 C1439 0.930 . S
C1430 H1424 0.930 . S
C1430 C1431 1.355 . S
C1430 C1432 1.415 . S
C1431 C1430 1.355 . S
C1431 C1433 1.419 . S
C1432 C1430 1.415 . S
C1432 C1437 1.425 . S
C1432 C1439 1.409 . S
C1433 H1425 0.930 . S
C1433 C1431 1.419 . S
C1433 C1434 1.362 . S
C1434 H1426 0.930 . S
C1434 C1433 1.362 . S
C1434 C1437 1.409 . S
C1435 H1427 0.930 . S
C1435 C1436 1.355 . S
C1435 C1437 1.415 . S
C1436 C1435 1.355 . S
C1436 C1438 1.419 . S
C1437 C1432 1.425 . S
C1437 C1434 1.409 . S
C1437 C1435 1.415 . S
C1438 H1428 0.930 . S
C1438 C1436 1.419 . S
C1438 C1439 1.362 . S
C1439 H1429 0.930 . S
C1439 C1432 1.409 . S
C1439 C1438 1.362 . S
H1440 C1446 0.930 . S
H1441 C1449 0.930 . S
H1442 C1450 0.930 . S
H1443 C1451 0.930 . S
H1444 C1454 0.930 . S
H1445 C1455 0.930 . S
C1446 H1440 0.930 . S
C1446 C1447 1.355 . S
C1446 C1448 1.415 . S
C1447 C1446 1.355 . S
C1447 C1449 1.419 . S
C1448 C1446 1.415 . S
C1448 C1453 1.425 . S
C1448 C1455 1.409 . S
C1449 H1441 0.930 . S
C1449 C1447 1.419 . S
C1449 C1450 1.362 . S
C1450 H1442 0.930 . S
C1450 C1449 1.362 . S
C1450 C1453 1.409 . S
C1451 H1443 0.930 . S
C1451 C1452 1.355 . S
C1451 C1453 1.415 . S
C1452 C1451 1.355 . S
C1452 C1454 1.419 . S
C1453 C1448 1.425 . S
C1453 C1450 1.409 . S
C1453 C1451 1.415 . S
C1454 H1444 0.930 . S
C1454 C1452 1.419 . S
C1454 C1455 1.362 . S
C1455 H1445 0.930 . S
C1455 C1448 1.409 . S
C1455 C1454 1.362 . S
H1456 C1462 0.930 . S
H1457 C1465 0.930 . S
H1458 C1466 0.930 . S
H1459 C1467 0.930 . S
H1460 C1470 0.930 . S
H1461 C1471 0.930 . S
C1462 H1456 0.930 . S
C1462 C1463 1.355 . S
C1462 C1464 1.415 . S
C1463 C1462 1.355 . S
C1463 C1465 1.419 . S
C1464 C1462 1.415 . S
C1464 C1469 1.425 . S
C1464 C1471 1.409 . S
C1465 H1457 0.930 . S
C1465 C1463 1.419 . S
C1465 C1466 1.362 . S
C1466 H1458 0.930 . S
C1466 C1465 1.362 . S
C1466 C1469 1.409 . S
C1467 H1459 0.930 . S
C1467 C1468 1.355 . S
C1467 C1469 1.415 . S
C1468 C1467 1.355 . S
C1468 C1470 1.419 . S
C1469 C1464 1.425 . S
C1469 C1466 1.409 . S
C1469 C1467 1.415 . S
C1470 H1460 0.930 . S
C1470 C1468 1.419 . S
C1470 C1471 1.362 . S
C1471 H1461 0.930 . S
C1471 C1464 1.409 . S
C1471 C1470 1.362 . S
C455 C411 1.547 . S
C460 C5 1.551 . S
C471 C19 1.548 . S
C476 C425 1.549 . S
C487 C439 1.550 . S
C492 C33 1.548 . S
C503 C397 1.554 . S
C508 C47 1.544 . S
C519 C61 1.544 . S
C524 C383 1.554 . S
C535 C341 1.544 . S
C540 C75 1.553 . S
C551 C89 1.553 . S
C556 C355 1.545 . S
C567 C369 1.544 . S
C572 C103 1.554 . S
C583 C117 1.543 . S
C588 C299 1.554 . S
C599 C131 1.544 . S
C604 C313 1.553 . S
C615 C327 1.554 . S
C620 C145 1.544 . S
C631 C159 1.553 . S
C636 C285 1.545 . S
C647 C271 1.554 . S
C652 C173 1.544 . S
C663 C229 1.554 . S
C668 C187 1.543 . S
C679 C201 1.545 . S
C684 C243 1.553 . S
C695 C215 1.554 . S
C700 C257 1.544 . S
C711 C0 1.387 . S
C716 C140 1.426 . S
C727 C154 1.385 . S
C732 C14 1.428 . S
C743 C112 1.427 . S
C748 C28 1.386 . S
C759 C126 1.430 . S
C764 C42 1.383 . S
C775 C56 1.381 . S
C780 C196 1.432 . S
C791 C210 1.432 . S
C796 C70 1.381 . S
C807 C168 1.432 . S
C812 C84 1.381 . S
C823 C182 1.381 . S
C828 C98 1.432 . S
C839 C224 1.386 . S
C844 C364 1.427 . S
C855 C378 1.405 . S
C860 C238 1.409 . S
C871 C336 1.416 . S
C876 C252 1.397 . S
C887 C266 1.382 . S
C892 C350 1.431 . S
C903 C280 1.381 . S
C908 C420 1.432 . S
C919 C434 1.421 . S
C924 C294 1.392 . S
C935 C392 1.431 . S
C940 C308 1.382 . S
C951 C322 1.386 . S
C956 C406 1.427 . S
C967 C11 1.469 . S
C972 C67 1.475 . S
C983 C25 1.508 . S
C988 C81 1.510 . S
C999 C95 1.474 . S
C1004 C39 1.469 . S
C1015 C53 1.469 . S
C1020 C109 1.477 . S
C1031 C123 1.484 . S
C1036 C179 1.501 . S
C1047 C193 1.495 . S
C1052 C137 1.478 . S
C1063 C207 1.511 . S
C1068 C151 1.505 . S
C1079 C165 1.511 . S
C1084 C221 1.501 . S
C1095 C235 1.484 . S
C1100 C291 1.502 . S
C1111 C305 1.507 . S
C1116 C249 1.511 . S
C1127 C263 1.491 . S
C1132 C319 1.506 . S
C1143 C333 1.485 . S
C1148 C277 1.502 . S
C1159 C403 1.484 . S
C1164 C347 1.471 . S
C1175 C361 1.509 . S
C1180 C417 1.496 . S
C1191 C375 1.469 . S
C1196 C431 1.477 . S
C1207 C389 1.469 . S
C1212 C445 1.475 . S
C1223 C9 1.403 . S
C1228 C79 1.414 . S
C1239 C23 1.412 . S
C1244 C93 1.401 . S
C1255 C107 1.413 . S
C1260 C37 1.408 . S
C1271 C65 1.411 . S
C1276 C51 1.401 . S
C1287 C191 1.401 . S
C1292 C121 1.411 . S
C1303 C205 1.412 . S
C1308 C135 1.409 . S
C1319 C219 1.402 . S
C1324 C149 1.410 . S
C1335 C163 1.403 . S
C1340 C177 1.414 . S
C1351 C233 1.402 . S
C1356 C303 1.410 . S
C1367 C317 1.413 . S
C1372 C247 1.402 . S
C1383 C331 1.411 . S
C1388 C261 1.401 . S
C1399 C275 1.414 . S
C1404 C289 1.403 . S
C1415 C415 1.412 . S
C1420 C345 1.409 . S
C1431 C359 1.403 . S
C1436 C429 1.414 . S
C1447 C373 1.407 . S
C1452 C443 1.413 . S
C1463 C401 1.413 . S
C1468 C387 1.407 . S
