# Generated by pormake.
# Topology xfc, (7)-cn, num edge types: 1
# Building blocks:
#     Node 0, Type 0, BuildingBlock: NUHQUE_clean_sbu_2, # of connection points: 7
#     Node 1, Type 0, BuildingBlock: NUHQUE_clean_sbu_2, # of connection points: 7
#     Node 2, Type 0, BuildingBlock: NUHQUE_clean_sbu_2, # of connection points: 7
#     Node 3, Type 0, BuildingBlock: NUHQUE_clean_sbu_2, # of connection points: 7
#     Node 4, Type 0, BuildingBlock: NUHQUE_clean_sbu_2, # of connection points: 7
#     Node 5, Type 0, BuildingBlock: NUHQUE_clean_sbu_2, # of connection points: 7
#     Node 6, Type 0, BuildingBlock: NUHQUE_clean_sbu_2, # of connection points: 7
#     Node 7, Type 0, BuildingBlock: NUHQUE_clean_sbu_2, # of connection points: 7
#     Node 8, Type 0, BuildingBlock: NUHQUE_clean_sbu_2, # of connection points: 7
#     Node 9, Type 0, BuildingBlock: NUHQUE_clean_sbu_2, # of connection points: 7
#     Node 10, Type 0, BuildingBlock: NUHQUE_clean_sbu_2, # of connection points: 7
#     Node 11, Type 0, BuildingBlock: NUHQUE_clean_sbu_2, # of connection points: 7
#     Node 12, Type 0, BuildingBlock: NUHQUE_clean_sbu_2, # of connection points: 7
#     Node 13, Type 0, BuildingBlock: NUHQUE_clean_sbu_2, # of connection points: 7
#     Node 14, Type 0, BuildingBlock: NUHQUE_clean_sbu_2, # of connection points: 7
#     Node 15, Type 0, BuildingBlock: NUHQUE_clean_sbu_2, # of connection points: 7
#     Edge 16, Type (0, 0), BuildingBlock: ZUJKAS_clean_linker_0, # of connection points: 2
#     Edge 17, Type (0, 0), BuildingBlock: ZUJKAS_clean_linker_0, # of connection points: 2
#     Edge 18, Type (0, 0), BuildingBlock: ZUJKAS_clean_linker_0, # of connection points: 2
#     Edge 19, Type (0, 0), BuildingBlock: ZUJKAS_clean_linker_0, # of connection points: 2
#     Edge 20, Type (0, 0), BuildingBlock: ZUJKAS_clean_linker_0, # of connection points: 2
#     Edge 21, Type (0, 0), BuildingBlock: ZUJKAS_clean_linker_0, # of connection points: 2
#     Edge 22, Type (0, 0), BuildingBlock: ZUJKAS_clean_linker_0, # of connection points: 2
#     Edge 23, Type (0, 0), BuildingBlock: ZUJKAS_clean_linker_0, # of connection points: 2
#     Edge 24, Type (0, 0), BuildingBlock: ZUJKAS_clean_linker_0, # of connection points: 2
#     Edge 25, Type (0, 0), BuildingBlock: ZUJKAS_clean_linker_0, # of connection points: 2
#     Edge 26, Type (0, 0), BuildingBlock: ZUJKAS_clean_linker_0, # of connection points: 2
#     Edge 27, Type (0, 0), BuildingBlock: ZUJKAS_clean_linker_0, # of connection points: 2
#     Edge 28, Type (0, 0), BuildingBlock: ZUJKAS_clean_linker_0, # of connection points: 2
#     Edge 29, Type (0, 0), BuildingBlock: ZUJKAS_clean_linker_0, # of connection points: 2
#     Edge 30, Type (0, 0), BuildingBlock: ZUJKAS_clean_linker_0, # of connection points: 2
#     Edge 31, Type (0, 0), BuildingBlock: ZUJKAS_clean_linker_0, # of connection points: 2
#     Edge 32, Type (0, 0), BuildingBlock: ZUJKAS_clean_linker_0, # of connection points: 2
#     Edge 33, Type (0, 0), BuildingBlock: ZUJKAS_clean_linker_0, # of connection points: 2
#     Edge 34, Type (0, 0), BuildingBlock: ZUJKAS_clean_linker_0, # of connection points: 2
#     Edge 35, Type (0, 0), BuildingBlock: ZUJKAS_clean_linker_0, # of connection points: 2
#     Edge 36, Type (0, 0), BuildingBlock: ZUJKAS_clean_linker_0, # of connection points: 2
#     Edge 37, Type (0, 0), BuildingBlock: ZUJKAS_clean_linker_0, # of connection points: 2
#     Edge 38, Type (0, 0), BuildingBlock: ZUJKAS_clean_linker_0, # of connection points: 2
#     Edge 39, Type (0, 0), BuildingBlock: ZUJKAS_clean_linker_0, # of connection points: 2
#     Edge 40, Type (0, 0), BuildingBlock: ZUJKAS_clean_linker_0, # of connection points: 2
#     Edge 41, Type (0, 0), BuildingBlock: ZUJKAS_clean_linker_0, # of connection points: 2
#     Edge 42, Type (0, 0), BuildingBlock: ZUJKAS_clean_linker_0, # of connection points: 2
#     Edge 43, Type (0, 0), BuildingBlock: ZUJKAS_clean_linker_0, # of connection points: 2
#     Edge 44, Type (0, 0), BuildingBlock: ZUJKAS_clean_linker_0, # of connection points: 2
#     Edge 45, Type (0, 0), BuildingBlock: ZUJKAS_clean_linker_0, # of connection points: 2
#     Edge 46, Type (0, 0), BuildingBlock: ZUJKAS_clean_linker_0, # of connection points: 2
#     Edge 47, Type (0, 0), BuildingBlock: ZUJKAS_clean_linker_0, # of connection points: 2
#     Edge 48, Type (0, 0), BuildingBlock: ZUJKAS_clean_linker_0, # of connection points: 2
#     Edge 49, Type (0, 0), BuildingBlock: ZUJKAS_clean_linker_0, # of connection points: 2
#     Edge 50, Type (0, 0), BuildingBlock: ZUJKAS_clean_linker_0, # of connection points: 2
#     Edge 51, Type (0, 0), BuildingBlock: ZUJKAS_clean_linker_0, # of connection points: 2
#     Edge 52, Type (0, 0), BuildingBlock: ZUJKAS_clean_linker_0, # of connection points: 2
#     Edge 53, Type (0, 0), BuildingBlock: ZUJKAS_clean_linker_0, # of connection points: 2
#     Edge 54, Type (0, 0), BuildingBlock: ZUJKAS_clean_linker_0, # of connection points: 2
#     Edge 55, Type (0, 0), BuildingBlock: ZUJKAS_clean_linker_0, # of connection points: 2
#     Edge 56, Type (0, 0), BuildingBlock: ZUJKAS_clean_linker_0, # of connection points: 2
#     Edge 57, Type (0, 0), BuildingBlock: ZUJKAS_clean_linker_0, # of connection points: 2
#     Edge 58, Type (0, 0), BuildingBlock: ZUJKAS_clean_linker_0, # of connection points: 2
#     Edge 59, Type (0, 0), BuildingBlock: ZUJKAS_clean_linker_0, # of connection points: 2
#     Edge 60, Type (0, 0), BuildingBlock: ZUJKAS_clean_linker_0, # of connection points: 2
#     Edge 61, Type (0, 0), BuildingBlock: ZUJKAS_clean_linker_0, # of connection points: 2
#     Edge 62, Type (0, 0), BuildingBlock: ZUJKAS_clean_linker_0, # of connection points: 2
#     Edge 63, Type (0, 0), BuildingBlock: ZUJKAS_clean_linker_0, # of connection points: 2
#     Edge 64, Type (0, 0), BuildingBlock: ZUJKAS_clean_linker_0, # of connection points: 2
#     Edge 65, Type (0, 0), BuildingBlock: ZUJKAS_clean_linker_0, # of connection points: 2
#     Edge 66, Type (0, 0), BuildingBlock: ZUJKAS_clean_linker_0, # of connection points: 2
#     Edge 67, Type (0, 0), BuildingBlock: ZUJKAS_clean_linker_0, # of connection points: 2
#     Edge 68, Type (0, 0), BuildingBlock: ZUJKAS_clean_linker_0, # of connection points: 2
#     Edge 69, Type (0, 0), BuildingBlock: ZUJKAS_clean_linker_0, # of connection points: 2
#     Edge 70, Type (0, 0), BuildingBlock: ZUJKAS_clean_linker_0, # of connection points: 2
#     Edge 71, Type (0, 0), BuildingBlock: ZUJKAS_clean_linker_0, # of connection points: 2
# Relax obj value: 0.401
# Max RMSD: 0.227
# Mean RMSD: 0.227
data_MOF--net-xfc--node1-NUHQUE_clean_sbu_2--edge1-ZUJKAS_clean_linker_0
_symmetry_space_group_name_H-M    P1
_symmetry_Int_Tables_number       1
_symmetry_cell_setting            triclinic
loop_
_symmetry_equiv_pos_as_xyz
'x, y, z'
_cell_length_a     46.798577
_cell_length_b     46.820951
_cell_length_c     58.8646
_cell_angle_alpha  90.006062
_cell_angle_beta   90.007593
_cell_angle_gamma 89.979028
loop_
_atom_site_label
_atom_site_type_symbol
_atom_site_fract_x
_atom_site_fract_y
_atom_site_fract_z
_atom_type_partial_charge
O0 O 0.0287 0.01772 0.14715 0.0
Tb1 Tb 0.9833 0.02626 0.14649 0.0
Eu2 Eu 0.9988 0.02243 0.20215 0.0
C3 C 0.04458 0.03295 0.13324 0.0
O4 O 0.03209 0.05206 0.12024 0.0
C5 C 0.01392 0.0747 0.17019 0.0
O6 O 0.9533 0.03524 0.19493 0.0
C7 C 0.01056 0.01632 0.245 0.0
C8 C 0.94427 0.06169 0.19676 0.0
O9 O 0.961 0.08083 0.20623 0.0
C10 C 0.97145 0.97307 0.17416 0.0
C11 C 0.00481 0.99612 0.26389 0.0
C12 C 0.02771 0.98107 0.27398 0.0
C13 C 0.02287 0.96264 0.29246 0.0
C14 C 0.99493 0.95882 0.30037 0.0
C15 C 0.97203 0.97349 0.29059 0.0
C16 C 0.97691 0.99233 0.2725 0.0
O17 O 0.98924 0.06861 0.16061 0.0
O18 O 0.02521 0.05649 0.18476 0.0
O19 O 0.98844 0.00793 0.11295 0.0
O20 O 0.96034 0.04335 0.11684 0.0
C21 C 0.97135 0.02525 0.10241 0.0
O22 O 0.99409 0.97851 0.18667 0.0
O23 O 0.9583 0.99406 0.16373 0.0
O24 O 0.98908 0.03187 0.23749 0.0
O25 O 0.02746 0.00716 0.22868 0.0
H26 H 0.04932 0.98418 0.26782 0.0
H27 H 0.99092 0.94435 0.31442 0.0
H28 H 0.95901 0.00376 0.26518 0.0
O29 O 0.29033 0.82529 0.42876 0.0
Tb30 Tb 0.27433 0.78328 0.42023 0.0
Eu31 Eu 0.23962 0.72739 0.44202 0.0
C32 C 0.27945 0.84032 0.44559 0.0
O33 O 0.26048 0.82874 0.45919 0.0
C34 C 0.20947 0.78137 0.42202 0.0
O35 O 0.21857 0.68466 0.43736 0.0
C36 C 0.24599 0.74428 0.48382 0.0
C37 C 0.19069 0.68276 0.43534 0.0
O38 O 0.17503 0.7056 0.43901 0.0
C39 C 0.30564 0.72741 0.43027 0.0
C40 C 0.26643 0.7426 0.50313 0.0
C41 C 0.28066 0.7677 0.51029 0.0
C42 C 0.29962 0.76696 0.52878 0.0
C43 C 0.30366 0.74136 0.5405 0.0
C44 C 0.28917 0.71649 0.53424 0.0
C45 C 0.27088 0.71689 0.51529 0.0
O46 O 0.23148 0.79386 0.43145 0.0
O47 O 0.20909 0.75343 0.4207 0.0
O48 O 0.28708 0.79569 0.38593 0.0
O49 O 0.26094 0.75893 0.39027 0.0
C50 C 0.27394 0.77502 0.37547 0.0
O51 O 0.28154 0.71355 0.42735 0.0
O52 O 0.30563 0.75477 0.43533 0.0
O53 O 0.2317 0.7211 0.47818 0.0
O54 O 0.25405 0.75951 0.46617 0.0
H55 H 0.27704 0.78773 0.50151 0.0
H56 H 0.31787 0.74093 0.55508 0.0
H57 H 0.25976 0.69752 0.51047 0.0
O58 O 0.40909 0.01608 0.68299 0.0
Tb59 Tb 0.45178 0.9982 0.68311 0.0
Eu60 Eu 0.50686 0.96631 0.70723 0.0
C61 C 0.38767 0.00369 0.69363 0.0
O62 O 0.39258 0.98263 0.70781 0.0
C63 C 0.4534 0.93502 0.68799 0.0
O64 O 0.55077 0.94814 0.70109 0.0
C65 C 0.48977 0.97257 0.74892 0.0
C66 C 0.55377 0.9211 0.69557 0.0
O67 O 0.53177 0.90392 0.69788 0.0
C68 C 0.5052 0.03289 0.69433 0.0
C69 C 0.49267 0.99277 0.76824 0.0
C70 C 0.46848 0.00809 0.77595 0.0
C71 C 0.47082 0.02752 0.79409 0.0
C72 C 0.49719 0.03066 0.80502 0.0
C73 C 0.52126 0.01531 0.79791 0.0
C74 C 0.51911 0.99672 0.77929 0.0
O75 O 0.44167 0.95716 0.6978 0.0
O76 O 0.48131 0.93474 0.68653 0.0
O77 O 0.44525 -0.00025 0.64638 0.0
O78 O 0.48447 0.98354 0.6592 0.0
C79 C 0.46992 0.98896 0.64092 0.0
O80 O 0.51996 0.00899 0.69313 0.0
O81 O 0.47731 0.03251 0.69738 0.0
O82 O 0.51219 0.95702 0.74324 0.0
O83 O 0.4752 0.98188 0.7313 0.0
H84 H 0.44802 0.0053 0.76759 0.0
H85 H 0.49906 0.04538 0.81918 0.0
H86 H 0.53791 0.98517 0.77371 0.0
O87 O 0.20232 0.16503 0.92667 0.0
Tb88 Tb 0.21822 0.207 0.9177 0.0
Eu89 Eu 0.25272 0.26527 0.93622 0.0
C90 C 0.21292 0.15071 0.944 0.0
O91 O 0.22958 0.16373 0.95866 0.0
C92 C 0.28235 0.20835 0.92154 0.0
O93 O 0.27687 0.30491 0.92651 0.0
C94 C 0.24674 0.25637 0.97958 0.0
C95 C 0.27502 0.31295 0.90515 0.0
O96 O 0.25874 0.29803 0.89137 0.0
C97 C 0.18622 0.26381 0.92358 0.0
C98 C 0.22541 0.26118 0.99796 0.0
C99 C 0.20821 0.23826 0.00561 0.0
C100 C 0.18779 0.24251 0.02279 0.0
C101 C 0.18486 0.26959 0.0325 0.0
C102 C 0.20239 0.29227 0.0259 0.0
C103 C 0.22278 0.2881 0.00869 0.0
O104 O 0.25992 0.19813 0.93199 0.0
O105 O 0.28352 0.23596 0.91805 0.0
O106 O 0.21086 0.19229 0.88292 0.0
O107 O 0.23518 0.23005 0.88832 0.0
C108 C 0.22514 0.21266 0.87304 0.0
O109 O 0.21051 0.2775 0.92078 0.0
O110 O 0.18567 0.23665 0.92941 0.0
O111 O 0.25998 0.27883 0.97117 0.0
O112 O 0.24003 0.23733 0.964 0.0
H113 H 0.21064 0.21718 0.99823 0.0
H114 H 0.16966 0.27274 0.0462 0.0
H115 H 0.23643 0.30573 1.00378 0.0
O116 O 0.0964 0.03389 0.82173 0.0
Tb117 Tb 0.05343 0.01741 0.82554 0.0
Eu118 Eu 0.99887 0.9803 0.80802 0.0
C119 C 0.11505 0.02118 0.80835 0.0
O120 O 0.10647 0.00106 0.79439 0.0
C121 C 0.05405 0.95279 0.82936 0.0
O122 O 0.95758 0.95872 0.81748 0.0
C123 C 0.01312 0.98032 0.76546 0.0
C124 C 0.95703 0.93124 0.82201 0.0
O125 O 0.97985 0.9158 0.81773 0.0
C126 C -0.00026 0.04796 0.81109 0.0
C127 C 0.01034 0.00074 0.74625 0.0
C128 C 0.03465 0.01566 0.73838 0.0
C129 C 0.03204 0.03673 0.72147 0.0
C130 C 0.00508 0.04236 0.71217 0.0
C131 C 0.9809 0.02722 0.71925 0.0
C132 C 0.98355 0.0063 0.73618 0.0
O133 O 0.06651 0.97385 0.81862 0.0
O134 O 0.0261 0.95264 0.83097 0.0
O135 O 0.05747 0.0324 0.86061 0.0
O136 O 0.02168 0.00688 0.85136 0.0
C137 C 0.03386 0.02079 0.86781 0.0
O138 O 0.98555 0.02495 0.81714 0.0
O139 O 0.02701 0.04616 0.80581 0.0
O140 O 0.9896 0.96813 0.77307 0.0
O141 O 0.03066 0.98807 0.78181 0.0
H142 H 0.05544 0.01141 0.74576 0.0
H143 H 0.00296 0.0582 0.69882 0.0
H144 H 0.96464 0.99495 0.74177 0.0
O145 O 0.22323 0.82322 0.08327 0.0
Tb146 Tb 0.24514 0.78308 0.08845 0.0
Eu147 Eu 0.27861 0.72832 0.06081 0.0
C148 C 0.23348 0.84358 0.07022 0.0
O149 O 0.25628 0.8389 0.05779 0.0
C150 C 0.30814 0.78241 0.08014 0.0
O151 O 0.29922 0.68504 0.06332 0.0
C152 C 0.2683 0.74697 0.02 0.0
C153 C 0.32696 0.68303 0.06634 0.0
O154 O 0.34264 0.70616 0.06431 0.0
C155 C 0.214 0.72609 0.07878 0.0
C156 C 0.24815 0.74369 1.00073 0.0
C157 C 0.23745 0.76845 0.98994 0.0
C158 C 0.21935 0.76615 0.97096 0.0
C159 C 0.21135 0.73904 0.96332 0.0
C160 C 0.22138 0.71427 0.97392 0.0
C161 C 0.24006 0.7165 0.99253 0.0
O162 O 0.28481 0.79323 0.07155 0.0
O163 O 0.31005 0.75455 0.08114 0.0
O164 O 0.24146 0.79797 0.12341 0.0
O165 O 0.2612 0.75784 0.11721 0.0
C166 C 0.25367 0.77605 0.13285 0.0
O167 O 0.23845 0.71235 0.07737 0.0
O168 O 0.21224 0.75401 0.07667 0.0
O169 O 0.28598 0.72574 0.02435 0.0
O170 O 0.25822 0.75932 0.0384 0.0
H171 H 0.24376 0.78942 0.99593 0.0
H172 H 0.19718 0.73716 0.94879 0.0
H173 H 0.24804 0.69727 1.00057 0.0
O174 O 0.44595 0.02534 0.38342 0.0
Tb175 Tb 0.48759 0.01104 0.37231 0.0
Eu176 Eu 0.51262 0.02825 0.30134 0.0
C177 C 0.44223 0.03186 0.4049 0.0
O178 O 0.4642 0.03082 0.41878 0.0
C179 C 0.48865 0.06251 0.3427 0.0
O180 O 0.55628 0.04545 0.30984 0.0
C181 C 0.49988 0.02327 0.25864 0.0
C182 C 0.55977 0.07266 0.31459 0.0
O183 O 0.53844 0.09035 0.31103 0.0
C184 C 0.50872 0.97352 0.33343 0.0
C185 C 0.50409 0.00286 0.2396 0.0
C186 C 0.48114 0.98547 0.23231 0.0
C187 C 0.48484 0.96601 0.21437 0.0
C188 C 0.51114 0.96484 0.20316 0.0
C189 C 0.5339 0.98231 0.20975 0.0
C190 C 0.53056 0.001 0.22818 0.0
O191 O 0.5064 0.0449 0.35269 0.0
O192 O 0.4854 0.06014 0.32058 0.0
O193 O 0.49655 0.97625 0.39568 0.0
O194 O 0.52071 0.01468 0.39827 0.0
C195 C 0.51648 0.98942 0.40703 0.0
O196 O 0.52225 0.98463 0.31595 0.0
O197 O 0.48582 0.98635 0.34127 0.0
O198 O 0.52235 0.03755 0.26596 0.0
O199 O 0.48274 0.01499 0.27512 0.0
H200 H 0.4606 0.98675 0.24076 0.0
H201 H 0.51397 0.9501 0.1891 0.0
H202 H 0.54842 0.01425 0.2333 0.0
O203 O 0.30287 0.16811 0.57862 0.0
Tb204 Tb 0.28656 0.20946 0.58863 0.0
Eu205 Eu 0.24893 0.26443 0.56989 0.0
C206 C 0.29198 0.15437 0.56113 0.0
O207 O 0.27453 0.16774 0.54726 0.0
C208 C 0.22201 0.20861 0.58895 0.0
O209 O 0.22583 0.30503 0.5786 0.0
C210 C 0.25028 0.24961 0.52736 0.0
C211 C 0.22983 0.31451 0.59938 0.0
O212 O 0.24697 0.30008 0.61284 0.0
C213 C 0.31624 0.26677 0.57885 0.0
C214 C 0.26723 0.25181 0.50611 0.0
C215 C 0.28036 0.22703 0.4972 0.0
C216 C 0.29424 0.22785 0.47607 0.0
C217 C 0.29507 0.25345 0.46391 0.0
C218 C 0.2828 0.2784 0.47262 0.0
C219 C 0.269 0.27766 0.49381 0.0
O220 O 0.24376 0.19773 0.578 0.0
O221 O 0.22094 0.23637 0.59158 0.0
O222 O 0.29784 0.1958 0.62301 0.0
O223 O 0.27205 0.23285 0.61864 0.0
C224 C 0.28399 0.21605 0.63347 0.0
O225 O 0.2917 0.27984 0.58188 0.0
O226 O 0.31739 0.23923 0.57442 0.0
O227 O 0.23669 0.27247 0.53475 0.0
O228 O 0.26114 0.23392 0.54377 0.0
H229 H 0.27932 0.20703 0.50643 0.0
H230 H 0.30633 0.25419 0.4478 0.0
H231 H 0.25936 0.297 0.50042 0.0
O232 O 0.7023 0.32309 0.58772 0.0
Tb233 Tb 0.72028 0.28107 0.59358 0.0
Eu234 Eu 0.76088 0.22802 0.57257 0.0
C235 C 0.71316 0.3406 0.57251 0.0
O236 O 0.7308 0.33088 0.557 0.0
C237 C 0.78506 0.28633 0.5901 0.0
O238 O 0.78991 0.19024 0.57787 0.0
C239 C 0.75069 0.24114 0.53039 0.0
C240 C 0.77931 0.16476 0.58206 0.0
O241 O 0.75158 0.16087 0.58056 0.0
C242 C 0.69544 0.22217 0.58586 0.0
C243 C 0.72839 0.2368 0.51269 0.0
C244 C 0.71019 0.25969 0.50654 0.0
C245 C 0.68911 0.25607 0.48971 0.0
C246 C 0.68671 0.22953 0.47893 0.0
C247 C 0.70474 0.20677 0.48447 0.0
C248 C 0.72575 0.21042 0.50121 0.0
O249 O 0.76131 0.29554 0.58097 0.0
O250 O 0.78956 0.25874 0.59146 0.0
O251 O 0.70582 0.28823 0.62839 0.0
O252 O 0.74111 0.2605 0.62254 0.0
C253 C 0.72478 0.27186 0.63798 0.0
O254 O 0.72104 0.21147 0.58937 0.0
O255 O 0.69263 0.24874 0.57895 0.0
O256 O 0.76608 0.21889 0.53653 0.0
O257 O 0.74392 0.25783 0.54754 0.0
H258 H 0.71236 0.28022 0.51487 0.0
H259 H 0.67128 0.22673 0.46535 0.0
H260 H 0.73983 0.19275 0.50523 0.0
O261 O 0.79403 0.66167 0.09636 0.0
Tb262 Tb 0.78032 0.70576 0.09454 0.0
Eu263 Eu 0.74829 0.76095 0.06983 0.0
C264 C 0.78208 0.64139 0.08414 0.0
O265 O 0.76545 0.64811 0.06699 0.0
C266 C 0.71664 0.70745 0.08883 0.0
O267 O 0.72741 0.80316 0.07733 0.0
C268 C 0.75183 0.74673 0.02729 0.0
C269 C 0.73372 0.8152 0.09689 0.0
O270 O 0.75229 0.80246 0.11022 0.0
C271 C 0.81554 0.75706 0.08008 0.0
C272 C 0.77325 0.74812 0.0087 0.0
C273 C 0.78527 0.72255 1.00027 0.0
C274 C 0.80651 0.72329 0.98342 0.0
C275 C 0.81531 0.74969 0.97478 0.0
C276 C 0.80309 0.77524 0.98237 0.0
C277 C 0.78195 0.77448 0.99929 0.0
O278 O 0.7392 0.69532 0.08002 0.0
O279 O 0.71636 0.73538 0.09029 0.0
O280 O 0.78797 0.70113 0.13086 0.0
O281 O 0.7648 0.73732 0.11924 0.0
C282 C 0.77493 0.72435 0.13707 0.0
O283 O 0.79222 0.77252 0.08235 0.0
O284 O 0.81419 0.72915 0.07782 0.0
O285 O 0.74025 0.77086 0.03424 0.0
O286 O 0.75779 0.72908 0.04402 0.0
H287 H 0.77837 0.70212 0.00699 0.0
H288 H 0.83112 0.75031 0.9613 0.0
H289 H 0.77263 0.79434 0.00516 0.0
O290 O 0.80223 0.32685 0.92816 0.0
Tb291 Tb 0.78592 0.28436 0.92168 0.0
Eu292 Eu 0.75016 0.22732 0.93896 0.0
C293 C 0.79103 0.34351 0.94383 0.0
O294 O 0.77302 0.33286 0.95868 0.0
C295 C 0.72172 0.28451 0.92347 0.0
O296 O 0.7273 0.18701 0.92912 0.0
C297 C 0.75268 0.23728 0.98231 0.0
C298 C 0.73147 0.17727 0.90843 0.0
O299 O 0.74917 0.19109 0.89504 0.0
C300 C 0.81742 0.22822 0.92933 0.0
C301 C 0.77098 0.2325 1.00257 0.0
C302 C 0.7865 0.25563 0.01185 0.0
C303 C 0.80192 0.25234 0.03215 0.0
C304 C 0.80201 0.22579 0.04297 0.0
C305 C 0.78692 0.2026 0.03409 0.0
C306 C 0.77152 0.20579 0.01379 0.0
O307 O 0.74379 0.29464 0.9345 0.0
O308 O 0.72063 0.25692 0.91978 0.0
O309 O 0.7956 0.29552 0.88645 0.0
O310 O 0.76905 0.25967 0.89315 0.0
C311 C 0.78065 0.27512 0.8773 0.0
O312 O 0.79333 0.21457 0.92548 0.0
O313 O 0.81734 0.2552 0.9356 0.0
O314 O 0.73919 0.21518 0.97356 0.0
O315 O 0.7623 0.25522 0.9669 0.0
H316 H 0.78599 0.27636 1.00365 0.0
H317 H 0.81436 0.22296 0.05842 0.0
H318 H 0.75967 0.18777 0.00713 0.0
O319 O 0.70584 0.6761 0.41131 0.0
Tb320 Tb 0.72331 0.71869 0.41477 0.0
Eu321 Eu 0.76152 0.7693 0.43977 0.0
C322 C 0.7158 0.65411 0.42276 0.0
O323 O 0.73161 0.65835 0.44087 0.0
C324 C 0.7874 0.71284 0.41934 0.0
O325 O 0.78913 0.80781 0.4332 0.0
C326 C 0.75628 0.75492 0.48221 0.0
C327 C 0.77773 0.83304 0.42935 0.0
O328 O 0.75005 0.83638 0.43187 0.0
C329 C 0.69462 0.77292 0.4311 0.0
C330 C 0.7353 0.75772 0.50111 0.0
C331 C 0.71702 0.73463 0.50657 0.0
C332 C 0.69744 0.73695 0.52457 0.0
C333 C 0.69681 0.76189 0.53755 0.0
C334 C 0.71521 0.78465 0.53295 0.0
C335 C 0.73418 0.78281 0.51451 0.0
O336 O 0.76359 0.7021 0.42721 0.0
O337 O 0.79041 0.7407 0.41897 0.0
O338 O 0.71081 0.71771 0.37918 0.0
O339 O 0.74261 0.74739 0.38953 0.0
C340 C 0.72799 0.73771 0.37233 0.0
O341 O 0.71918 0.78563 0.42719 0.0
O342 O 0.69346 0.74503 0.4336 0.0
O343 O 0.76966 0.77819 0.4755 0.0
O344 O 0.74924 0.73793 0.46528 0.0
H345 H 0.71785 0.715 0.49683 0.0
H346 H 0.68197 0.76348 0.55167 0.0
H347 H 0.74834 0.80058 0.51102 0.0
O348 O 0.58067 0.5224 0.67075 0.0
Tb349 Tb 0.54256 0.50019 0.65953 0.0
Eu350 Eu 0.50022 0.52735 0.70538 0.0
C351 C 0.59312 0.53861 0.65543 0.0
O352 O 0.57918 0.54324 0.6364 0.0
C353 C 0.52212 0.56075 0.66358 0.0
O354 O 0.45664 0.54704 0.70074 0.0
C355 C 0.51857 0.51857 0.74637 0.0
C356 C 0.45382 0.57459 0.69703 0.0
O357 O 0.47579 0.59143 0.70071 0.0
C358 C 0.49962 0.46405 0.68483 0.0
C359 C 0.51583 0.49768 0.76524 0.0
C360 C 0.54027 0.48276 0.77289 0.0
C361 C 0.53819 0.46297 0.79079 0.0
C362 C 0.51181 0.45899 0.80151 0.0
C363 C 0.48746 0.474 0.79452 0.0
C364 C 0.48937 0.49297 0.77611 0.0
O365 O 0.51511 0.53675 0.65368 0.0
O366 O 0.52508 0.56058 0.68572 0.0
O367 O 0.57279 0.47972 0.63639 0.0
O368 O 0.5307 0.48845 0.62491 0.0
C369 C 0.55551 0.47821 0.61919 0.0
O370 O 0.48369 0.48615 0.69026 0.0
O371 O 0.5272 0.46723 0.68208 0.0
O372 O 0.4963 0.53486 0.7417 0.0
O373 O 0.5324 0.50981 0.72814 0.0
H374 H 0.56075 0.48624 0.76475 0.0
H375 H 0.51019 0.444 0.81551 0.0
H376 H 0.47041 0.50432 0.77063 0.0
O377 O 0.93413 0.48626 0.17137 0.0
Tb378 Tb 0.97298 0.49199 0.1518 0.0
Eu379 Eu 0.00951 0.46851 0.20169 0.0
C380 C 0.91664 0.46518 0.1665 0.0
O381 O 0.92408 0.44699 0.15063 0.0
C382 C 0.98763 0.43146 0.16201 0.0
O383 O 0.04925 0.44163 0.19778 0.0
C384 C 0.99216 0.48004 0.24252 0.0
C385 C 0.07455 0.45346 0.19512 0.0
O386 O 0.07763 0.48078 0.19953 0.0
C387 C 0.01567 0.53012 0.17672 0.0
C388 C 0.99534 0.50301 0.25975 0.0
C389 C 0.97111 0.51864 0.26694 0.0
C390 C 0.97391 0.54094 0.28282 0.0
C391 C 0.00096 0.54715 0.29168 0.0
C392 C 0.02504 0.53136 0.28531 0.0
C393 C 0.02223 0.50927 0.26938 0.0
O394 O 0.99807 0.45326 0.15097 0.0
O395 O 0.98309 0.43488 0.18382 0.0
O396 O 0.94526 0.4931 0.12188 0.0
O397 O 0.98613 0.51269 0.12024 0.0
C398 C 0.96294 0.50703 0.10895 0.0
O399 O 0.02895 0.50806 0.18571 0.0
O400 O 0.98901 0.5285 0.17007 0.0
O401 O 0.01477 0.4641 0.23819 0.0
O402 O 0.97725 0.48648 0.22421 0.0
H403 H 0.95021 0.51365 0.26006 0.0
H404 H 0.00314 0.56376 0.30443 0.0
H405 H 0.04102 0.49721 0.2645 0.0
O406 O 0.57545 0.48737 0.31875 0.0
Tb407 Tb 0.54796 0.49563 0.34762 0.0
Eu408 Eu 0.49773 0.47254 0.30893 0.0
C409 C 0.5914 0.46422 0.31841 0.0
O410 O 0.58215 0.44154 0.32928 0.0
C411 C 0.51882 0.44072 0.35045 0.0
O412 O 0.45466 0.45292 0.31647 0.0
C413 C 0.51174 0.47657 0.26647 0.0
C414 C 0.44025 0.46267 0.33407 0.0
O415 O 0.45056 0.4845 0.34541 0.0
C416 C 0.50166 0.53817 0.33085 0.0
C417 C 0.51017 0.49886 0.24851 0.0
C418 C 0.53487 0.51452 0.24248 0.0
C419 C 0.53321 0.53666 0.22641 0.0
C420 C 0.50699 0.54271 0.21611 0.0
C421 C 0.4825 0.52687 0.22123 0.0
C422 C 0.48413 0.50481 0.23731 0.0
O423 O 0.51425 0.46686 0.3569 0.0
O424 O 0.51929 0.43691 0.32847 0.0
O425 O 0.57988 0.47784 0.37062 0.0
O426 O 0.56194 0.51833 0.37813 0.0
C427 C 0.57955 0.49869 0.38513 0.0
O428 O 0.48662 0.51699 0.32197 0.0
O429 O 0.52816 0.53524 0.33794 0.0
O430 O 0.4874 0.46537 0.27339 0.0
O431 O 0.52993 0.48122 0.28318 0.0
H432 H 0.55521 0.50981 0.25045 0.0
H433 H 0.50585 0.55935 0.20329 0.0
H434 H 0.46503 0.4927 0.24124 0.0
O435 O 0.90402 0.47605 0.81246 0.0
Tb436 Tb 0.94588 0.49165 0.82214 0.0
Eu437 Eu 0.00793 0.52336 0.80469 0.0
C438 C 0.88496 0.49248 0.80245 0.0
O439 O 0.89311 0.51638 0.7928 0.0
C440 C 0.95383 0.55472 0.82212 0.0
O441 O 0.05155 0.54091 0.81301 0.0
C442 C 0.99384 0.52007 0.76206 0.0
C443 C 0.05439 0.56815 0.81796 0.0
O444 O 0.03256 0.58528 0.81461 0.0
C445 C 0.00185 0.45664 0.81682 0.0
C446 C 0.99764 0.50191 0.74163 0.0
C447 C 0.97347 0.48905 0.73146 0.0
C448 C 0.97619 0.47286 0.7114 0.0
C449 C 0.00337 0.46971 0.70173 0.0
C450 C 0.02751 0.48244 0.71145 0.0
C451 C 0.02472 0.49825 0.73155 0.0
O452 O 0.94272 0.53475 0.80933 0.0
O453 O 0.98144 0.55379 0.82543 0.0
O454 O 0.92691 0.48629 0.85576 0.0
O455 O 0.96869 0.50374 0.8531 0.0
C456 C 0.94835 0.49674 0.86706 0.0
O457 O 0.0174 0.47992 0.81903 0.0
O458 O 0.97452 0.45758 0.81132 0.0
O459 O 0.01596 0.53483 0.76944 0.0
O460 O 0.97817 0.50935 0.77852 0.0
H461 H 0.95253 0.49205 0.73897 0.0
H462 H 0.00605 0.45654 0.68672 0.0
H463 H 0.04351 0.50795 0.73904 0.0
H464 H 0.06153 0.03765 0.9062 0.0
H465 H 0.04162 0.04134 0.94458 0.0
H466 H 0.95876 0.01678 0.91894 0.0
H467 H 0.97901 0.01158 0.88082 0.0
H468 H 0.00121 0.07328 0.96304 0.0
H469 H 0.96797 0.95956 0.96831 0.0
H470 H 0.98961 0.97295 0.94537 0.0
H471 H 0.95159 0.97884 0.94545 0.0
C472 C 0.03912 0.03291 0.90885 0.0
C473 C 0.02187 0.0239 0.89075 0.0
C474 C 0.02771 0.03514 0.93072 0.0
C475 C 0.99879 0.0288 0.93475 0.0
C476 C 0.98129 0.02093 0.91641 0.0
H477 H 0.94001 0.06229 0.07591 0.0
H478 H 0.94014 0.06483 0.03409 0.0
C479 C 0.99284 0.01809 0.89465 0.0
C480 C 0.98739 0.02984 0.95827 0.0
H481 H 0.9576 0.98858 0.99978 0.0
C482 C 0.99149 0.05483 0.97106 0.0
C483 C 0.97466 0.00572 0.96868 0.0
C484 C 0.9709 0.97768 0.95634 0.0
C485 C 0.98458 0.05595 0.99426 0.0
C486 C 0.97234 0.03166 0.00474 0.0
C487 C 0.9668 0.00722 0.99164 0.0
C488 C 0.9694 0.02936 0.02976 0.0
C489 C 0.99207 0.08246 0.00759 0.0
C490 C 0.98474 0.00792 0.04106 0.0
C491 C 0.98426 0.00616 0.06463 0.0
C492 C 0.96857 0.02592 0.07751 0.0
C493 C 0.95235 0.04688 0.06631 0.0
C494 C 0.95262 0.04848 0.0425 0.0
H495 H 0.00612 0.09711 0.99782 0.0
H496 H 0.97219 0.09418 0.01189 0.0
H497 H 0.00302 0.07677 0.02371 0.0
H498 H 0.99784 0.99293 0.03164 0.0
H499 H 0.99696 0.98975 0.0728 0.0
H500 H 0.2471 0.73292 0.35146 0.0
H501 H 0.24574 0.72698 0.31003 0.0
H502 H 0.29785 0.80231 0.30215 0.0
H503 H 0.29963 0.80804 0.34343 0.0
H504 H 0.22409 0.76367 0.27851 0.0
H505 H 0.33896 0.74566 0.26142 0.0
H506 H 0.32388 0.7433 0.28959 0.0
H507 H 0.33276 0.77753 0.27761 0.0
C508 C 0.25847 0.74802 0.34085 0.0
C509 C 0.27355 0.77088 0.35061 0.0
C510 C 0.25769 0.74462 0.31722 0.0
C511 C 0.27212 0.7639 0.30298 0.0
C512 C 0.28717 0.78674 0.31278 0.0
H513 H 0.2384 0.81338 0.16589 0.0
H514 H 0.24299 0.80752 0.20697 0.0
C515 C 0.28798 0.79013 0.33636 0.0
C516 C 0.27005 0.7613 0.27788 0.0
H517 H 0.31009 0.75902 0.22935 0.0
C518 C 0.24289 0.7623 0.26779 0.0
C519 C 0.29453 0.75904 0.26385 0.0
C520 C 0.32416 0.75601 0.27367 0.0
C521 C 0.23963 0.76243 0.24408 0.0
C522 C 0.2642 0.76205 0.23007 0.0
C523 C 0.29129 0.75969 0.24011 0.0
C524 C 0.26217 0.76553 0.20505 0.0
C525 C 0.20985 0.76314 0.23424 0.0
C526 C 0.2723 0.74425 0.19027 0.0
C527 C 0.26983 0.74763 0.16668 0.0
C528 C 0.25737 0.77244 0.15759 0.0
C529 C 0.24788 0.79393 0.17242 0.0
C530 C 0.25034 0.79055 0.19591 0.0
H531 H 0.19382 0.75483 0.24649 0.0
H532 H 0.20407 0.78555 0.23018 0.0
H533 H 0.20856 0.75039 0.21836 0.0
H534 H 0.28174 0.72488 0.19699 0.0
H535 H 0.27742 0.73079 0.15559 0.0
H536 H 0.49586 0.94549 0.43216 0.0
H537 H 0.49923 0.94066 0.47333 0.0
H538 H 0.55996 0.00989 0.4755 0.0
H539 H 0.55599 0.0154 0.43419 0.0
H540 H 0.53897 0.93411 0.50809 0.0
H541 H 0.49018 0.04254 0.50783 0.0
H542 H 0.49448 0.02182 0.48228 0.0
H543 H 0.52457 0.04014 0.49447 0.0
C544 C 0.51062 0.95912 0.44131 0.0
C545 C 0.52529 0.98117 0.43011 0.0
C546 C 0.51255 0.9563 0.46485 0.0
C547 C 0.52923 0.97543 0.4775 0.0
C548 C 0.54645 0.99534 0.46605 0.0
H549 H 0.52356 0.97407 0.62723 0.0
H550 H 0.54088 0.96938 0.58807 0.0
C551 C 0.5443 0.99837 0.44247 0.0
C552 C 0.52491 0.9773 0.50238 0.0
H553 H 0.49632 0.02054 0.54314 0.0
C554 C 0.52995 0.95308 0.51588 0.0
C555 C 0.51255 0.00192 0.51234 0.0
C556 C 0.50486 0.02801 0.49852 0.0
C557 C 0.52249 0.95266 0.53902 0.0
C558 C 0.51014 0.97731 0.54889 0.0
C559 C 0.50583 0.0017 0.53551 0.0
C560 C 0.49976 0.97804 0.57267 0.0
C561 C 0.52673 0.92551 0.55241 0.0
C562 C 0.47102 0.98477 0.57699 0.0
C563 C 0.46126 0.98794 0.59924 0.0
C564 C 0.48005 0.98429 0.61756 0.0
C565 C 0.50866 0.97691 0.61333 0.0
C566 C 0.51851 0.97401 0.59101 0.0
H567 H 0.52999 0.90674 0.54115 0.0
H568 H 0.54593 0.92774 0.56333 0.0
H569 H 0.50809 0.92128 0.56359 0.0
H570 H 0.45618 0.98798 0.56309 0.0
H571 H 0.43907 0.9935 0.60208 0.0
H572 H 0.25492 0.25692 0.65692 0.0
H573 H 0.24614 0.25884 0.69795 0.0
H574 H 0.2944 0.18111 0.7068 0.0
H575 H 0.30368 0.17942 0.66587 0.0
H576 H 0.21798 0.22001 0.72415 0.0
H577 H 0.32918 0.23241 0.75499 0.0
H578 H 0.31943 0.23758 0.72561 0.0
H579 H 0.32452 0.20212 0.73668 0.0
C580 C 0.26396 0.24047 0.66769 0.0
C581 C 0.28015 0.21813 0.6583 0.0
C582 C 0.25887 0.24154 0.69109 0.0
C583 C 0.26995 0.22035 0.7055 0.0
C584 C 0.2862 0.19806 0.6961 0.0
H585 H 0.20895 0.17525 0.84002 0.0
H586 H 0.21943 0.17794 0.79931 0.0
C587 C 0.29138 0.19704 0.67271 0.0
C588 C 0.26336 0.22084 0.73018 0.0
H589 H 0.29405 0.22075 0.78284 0.0
C590 C 0.23461 0.22037 0.73699 0.0
C591 C 0.28506 0.22163 0.74693 0.0
C592 C 0.31627 0.22375 0.74073 0.0
C593 C 0.22696 0.22011 0.76006 0.0
C594 C 0.24868 0.21971 0.77679 0.0
C595 C 0.27742 0.22078 0.77 0.0
C596 C 0.24206 0.21818 0.80144 0.0
C597 C 0.19568 0.22065 0.76626 0.0
C598 C 0.2519 0.23952 0.81627 0.0
C599 C 0.24615 0.23788 0.83956 0.0
C600 C 0.23051 0.21482 0.8484 0.0
C601 C 0.22078 0.19341 0.83359 0.0
C602 C 0.22664 0.195 0.81033 0.0
H603 H 0.18238 0.22918 0.75216 0.0
H604 H 0.1884 0.19856 0.76987 0.0
H605 H 0.19189 0.23385 0.78164 0.0
H606 H 0.26399 0.2575 0.80981 0.0
H607 H 0.25404 0.25459 0.85064 0.0
H608 H 0.80592 0.30397 0.84259 0.0
H609 H 0.79478 0.30051 0.80204 0.0
H610 H 0.73139 0.23609 0.8164 0.0
H611 H 0.74305 0.23892 0.85693 0.0
H612 H 0.76274 0.22251 0.77933 0.0
H613 H 0.72422 0.33394 0.77263 0.0
H614 H 0.76015 0.33205 0.78313 0.0
H615 H 0.7314 0.31704 0.79956 0.0
C616 C 0.78974 0.28896 0.83704 0.0
C617 C 0.77526 0.27178 0.85281 0.0
C618 C 0.78324 0.28716 0.81393 0.0
C619 C 0.76181 0.26849 0.80626 0.0
C620 C 0.74787 0.25076 0.82196 0.0
H621 H 0.68762 0.28738 0.67128 0.0
H622 H 0.6947 0.28383 0.71241 0.0
C623 C 0.75455 0.25238 0.84508 0.0
C624 C 0.75396 0.26755 0.78187 0.0
H625 H 0.73266 0.30951 0.73762 0.0
C626 C 0.75596 0.24147 0.77021 0.0
C627 C 0.74446 0.29216 0.77013 0.0
C628 C 0.73961 0.3203 0.78206 0.0
C629 C 0.74957 0.23951 0.74695 0.0
C630 C 0.74177 0.26451 0.7349 0.0
C631 C 0.73898 0.2904 0.74675 0.0
C632 C 0.73667 0.26453 0.71 0.0
C633 C 0.75082 0.21059 0.73567 0.0
C634 C 0.75782 0.25478 0.69493 0.0
C635 C 0.75358 0.25637 0.67145 0.0
C636 C 0.72839 0.26832 0.66266 0.0
C637 C 0.70722 0.27804 0.67767 0.0
C638 C 0.71128 0.27606 0.70114 0.0
H639 H 0.74756 0.19311 0.74818 0.0
H640 H 0.73445 0.20858 0.72212 0.0
H641 H 0.77223 0.20759 0.72794 0.0
H642 H 0.77793 0.2466 0.70128 0.0
H643 H 0.77036 0.24903 0.6602 0.0
H644 H 0.75159 0.77423 0.15287 0.0
H645 H 0.74591 0.78879 0.19273 0.0
H646 H 0.78411 0.7094 0.21433 0.0
H647 H 0.79063 0.69534 0.17481 0.0
H648 H 0.71532 0.76531 0.22545 0.0
H649 H 0.82777 0.76426 0.25296 0.0
H650 H 0.81778 0.76308 0.22335 0.0
H651 H 0.81905 0.73076 0.24001 0.0
C652 C 0.75907 0.76014 0.16618 0.0
C653 C 0.77173 0.73377 0.16082 0.0
C654 C 0.75584 0.76845 0.18891 0.0
C655 C 0.76523 0.75051 0.20656 0.0
C656 C 0.77761 0.72407 0.20108 0.0
H657 H 0.70167 0.71432 0.33594 0.0
H658 H 0.71022 0.72426 0.29594 0.0
C659 C 0.78106 0.71591 0.17846 0.0
C660 C 0.76033 0.75809 0.23075 0.0
H661 H 0.79251 0.75606 0.28274 0.0
C662 C 0.73232 0.7639 0.23793 0.0
C663 C 0.78255 0.75711 0.24706 0.0
C664 C 0.81349 0.7538 0.24038 0.0
C665 C 0.72561 0.76644 0.26109 0.0
C666 C 0.74733 0.7622 0.2775 0.0
C667 C 0.7757 0.75874 0.27024 0.0
C668 C 0.74074 0.75819 0.30198 0.0
C669 C 0.69517 0.77308 0.26768 0.0
C670 C 0.75561 0.77341 0.31886 0.0
C671 C 0.75109 0.76734 0.34191 0.0
C672 C 0.73168 0.74595 0.34834 0.0
C673 C 0.71656 0.73112 0.33147 0.0
C674 C 0.72123 0.73699 0.30856 0.0
H675 H 0.68462 0.78647 0.25454 0.0
H676 H 0.68293 0.75285 0.26897 0.0
H677 H 0.69403 0.78438 0.28424 0.0
H678 H 0.77101 0.78964 0.31419 0.0
H679 H 0.7631 0.77899 0.35462 0.0
H680 H 0.61054 0.45507 0.40322 0.0
H681 H 0.61982 0.44655 0.44356 0.0
H682 H 0.58081 0.52751 0.45997 0.0
H683 H 0.57268 0.53666 0.41962 0.0
H684 H 0.6247 0.51535 0.4885 0.0
H685 H 0.55204 0.42169 0.48071 0.0
H686 H 0.58357 0.42049 0.4634 0.0
H687 H 0.55667 0.44714 0.45808 0.0
C688 C 0.60478 0.47143 0.41541 0.0
C689 C 0.59072 0.49645 0.4084 0.0
C690 C 0.60983 0.4664 0.43845 0.0
C691 C 0.60026 0.48602 0.45479 0.0
C692 C 0.58822 0.51199 0.44764 0.0
H693 H 0.52197 0.47804 0.58166 0.0
H694 H 0.53768 0.47568 0.54213 0.0
C695 C 0.58355 0.51721 0.4246 0.0
C696 C 0.59973 0.47856 0.47924 0.0
H697 H 0.56695 0.43417 0.51717 0.0
C698 C 0.6125 0.49734 0.49482 0.0
C699 C 0.58349 0.45516 0.48739 0.0
C700 C 0.56795 0.43505 0.47159 0.0
C701 C 0.60836 0.49415 0.5183 0.0
C702 C 0.59154 0.47116 0.52634 0.0
C703 C 0.58001 0.45159 0.51086 0.0
C704 C 0.58235 0.46935 0.55031 0.0
C705 C 0.62041 0.5164 0.53421 0.0
C706 C 0.60217 0.46559 0.56794 0.0
C707 C 0.5932 0.46695 0.59057 0.0
C708 C 0.5643 0.47194 0.59576 0.0
C709 C 0.54434 0.47415 0.57809 0.0
C710 C 0.5533 0.47283 0.55554 0.0
H711 H 0.62898 0.53521 0.52495 0.0
H712 H 0.60375 0.52386 0.54628 0.0
H713 H 0.63805 0.50687 0.54427 0.0
H714 H 0.62461 0.46239 0.56421 0.0
H715 H 0.609 0.46521 0.60396 0.0
H716 H -0.00012 0.5332 0.08002 0.0
H717 H 0.99557 0.53729 0.03868 0.0
H718 H 0.91306 0.49638 0.04146 0.0
H719 H 0.91716 0.49246 0.08284 0.0
H720 H 0.99024 0.48958 0.01048 0.0
H721 H 0.89912 0.56399 0.99828 0.0
H722 H 0.91854 0.56143 0.02473 0.0
H723 H 0.89217 0.53504 0.01752 0.0
C724 C 0.9806 0.52557 0.07184 0.0
C725 C 0.95885 0.51249 0.08454 0.0
C726 C 0.97817 0.52792 0.04826 0.0
C727 C 0.95388 0.5174 0.03706 0.0
C728 C 0.93172 0.50514 0.04982 0.0
H729 H 0.90717 0.48267 0.89774 0.0
H730 H 0.90876 0.48914 0.93904 0.0
C731 C 0.93415 0.50277 0.07342 0.0
C732 C 0.95305 0.51661 0.01194 0.0
H733 H 0.91476 0.53817 0.96565 0.0
C734 C 0.97393 0.50046 1.00064 0.0
C735 C 0.93158 0.53061 0.99923 0.0
C736 C 0.9092 0.54896 0.0105 0.0
C737 C 0.97358 0.49737 0.97696 0.0
C738 C 0.95209 0.51133 0.96421 0.0
C739 C 0.93126 0.52762 0.97549 0.0
C740 C 0.95064 0.50875 0.93918 0.0
C741 C 0.99568 0.47844 0.96589 0.0
C742 C 0.97342 0.51815 0.92558 0.0
C743 C 0.97266 0.51423 0.90207 0.0
C744 C 0.949 0.50111 0.8918 0.0
C745 C 0.92581 0.49254 0.90531 0.0
C746 C 0.92663 0.49635 0.92885 0.0
H747 H 0.00576 0.46368 0.97831 0.0
H748 H 0.98609 0.46558 0.952 0.0
H749 H 0.01279 0.49195 0.95849 0.0
H750 H 0.99185 0.52835 0.93318 0.0
H751 H 0.99061 0.52141 0.89195 0.0
H752 H 0.12997 0.24006 0.02584 0.0
H753 H 0.10195 0.20827 0.05019 0.0
H754 H 0.17827 0.16106 0.06682 0.0
H755 H 0.20648 0.19305 0.04242 0.0
H756 H 0.09453 0.14703 0.05322 0.0
H757 H 0.14905 0.194 0.12849 0.0
H758 H 0.15088 0.2101 0.10066 0.0
H759 H 0.17172 0.17889 0.10694 0.0
C760 C 0.14059 0.22237 0.03418 0.0
C761 C 0.17035 0.21896 0.03229 0.0
C762 C 0.12461 0.20431 0.04814 0.0
C763 C 0.13812 0.18269 0.06065 0.0
C764 C 0.16752 0.17791 0.05755 0.0
H765 H 0.07223 0.0795 0.17231 0.0
H766 H 0.10273 0.10593 0.14604 0.0
C767 C 0.18354 0.19592 0.04341 0.0
C768 C 0.12164 0.16684 0.07814 0.0
H769 H 0.11342 0.15977 0.13555 0.0
C770 C 0.09874 0.14962 0.07122 0.0
C771 C 0.12711 0.17043 0.10161 0.0
C772 C 0.15087 0.18949 0.11001 0.0
C773 C 0.08117 0.13573 0.08713 0.0
C774 C 0.08621 0.13983 0.11069 0.0
C775 C 0.10945 0.15672 0.11756 0.0
C776 C 0.06777 0.12662 0.12844 0.0
C777 C 0.05759 0.11669 0.07837 0.0
C778 C 0.03804 0.13076 0.12829 0.0
C779 C 0.0205 0.11553 0.14322 0.0
C780 C 0.03238 0.0962 0.15889 0.0
C781 C 0.06232 0.09421 0.1605 0.0
C782 C 0.07983 0.10918 0.14534 0.0
H783 H 0.06273 0.10815 0.06123 0.0
H784 H 0.05348 0.09844 0.08991 0.0
H785 H 0.03763 0.12936 0.07686 0.0
H786 H 0.02827 0.14498 0.11603 0.0
H787 H 0.99754 0.11782 0.1417 0.0
H788 H 0.03393 0.96174 0.33769 0.0
H789 H 0.06724 0.93077 0.35805 0.0
H790 H 0.09742 0.89675 0.29431 0.0
H791 H 0.06409 0.92815 0.27376 0.0
H792 H 0.0657 0.87192 0.35654 0.0
H793 H 0.17177 0.91251 0.32896 0.0
H794 H 0.13927 0.93276 0.32518 0.0
H795 H 0.14745 0.90364 0.30641 0.0
C796 C 0.04803 0.948 0.328 0.0
C797 C 0.04642 0.94728 0.30415 0.0
C798 C 0.06698 0.93027 0.33964 0.0
C799 C 0.08484 0.91142 0.32774 0.0
C800 C 0.08413 0.9114 0.30385 0.0
H801 H 0.16673 0.76372 0.39325 0.0
H802 H 0.13578 0.7939 0.36972 0.0
C803 C 0.06515 0.92935 0.29212 0.0
C804 C 0.10263 0.8907 0.34063 0.0
H805 H 0.17149 0.87113 0.352 0.0
C806 C 0.08884 0.87167 0.35549 0.0
C807 C 0.1328 0.89051 0.33934 0.0
C808 C 0.14882 0.91107 0.32427 0.0
C809 C 0.10437 0.85274 0.3693 0.0
C810 C 0.13453 0.85247 0.36796 0.0
C811 C 0.14834 0.87127 0.35292 0.0
C812 C 0.15227 0.83386 0.38278 0.0
C813 C 0.08839 0.83385 0.38572 0.0
C814 C 0.17182 0.84623 0.39792 0.0
C815 C 0.18951 0.82909 0.41132 0.0
C816 C 0.18814 0.79912 0.40983 0.0
C817 C 0.16812 0.78671 0.39499 0.0
C818 C 0.15041 0.80394 0.38152 0.0
H819 H 0.06608 0.84127 0.38839 0.0
H820 H 0.08755 0.8118 0.37884 0.0
H821 H 0.09938 0.8331 0.40243 0.0
H822 H 0.17358 0.86925 0.39922 0.0
H823 H 0.20472 0.83942 0.42251 0.0
H824 H 0.27606 0.81504 0.54703 0.0
H825 H 0.30082 0.85006 0.57116 0.0
H826 H 0.38142 0.80981 0.55568 0.0
H827 H 0.35679 0.77509 0.53164 0.0
H828 H 0.33063 0.83137 0.60925 0.0
H829 H 0.40251 0.89433 0.55385 0.0
H830 H 0.37226 0.87468 0.54292 0.0
H831 H 0.40524 0.85655 0.54918 0.0
C832 C 0.29917 0.81456 0.54803 0.0
C833 C 0.31461 0.79263 0.53735 0.0
C834 C 0.31327 0.83436 0.56195 0.0
C835 C 0.34302 0.83269 0.56514 0.0
C836 C 0.35859 0.81194 0.55317 0.0
H837 H 0.47186 0.89367 0.65841 0.0
H838 H 0.44383 0.8693 0.6291 0.0
C839 C 0.34452 0.7921 0.53943 0.0
C840 C 0.35731 0.84962 0.58324 0.0
H841 H 0.41376 0.894 0.5936 0.0
C842 C 0.34853 0.84543 0.60581 0.0
C843 C 0.38087 0.86767 0.57876 0.0
C844 C 0.39064 0.87382 0.55484 0.0
C845 C 0.36327 0.85793 0.62407 0.0
C846 C 0.38716 0.87561 0.61963 0.0
C847 C 0.39558 0.8803 0.59702 0.0
C848 C 0.40377 0.88935 0.6382 0.0
C849 C 0.35379 0.85117 0.64798 0.0
C850 C 0.39054 0.90851 0.65322 0.0
C851 C 0.40642 0.92218 0.67015 0.0
C852 C 0.436 0.91734 0.67225 0.0
C853 C 0.44912 0.89777 0.65741 0.0
C854 C 0.43316 0.88397 0.64053 0.0
H855 H 0.34049 0.83154 0.64864 0.0
H856 H 0.37243 0.84831 0.65943 0.0
H857 H 0.34071 0.86914 0.65455 0.0
H858 H 0.36803 0.91346 0.65152 0.0
H859 H 0.3956 0.93721 0.68112 0.0
H860 H 0.32897 0.22171 0.89533 0.0
H861 H 0.35734 0.18931 0.87171 0.0
H862 H 0.30677 0.11803 0.89484 0.0
H863 H 0.27876 0.15011 0.91882 0.0
H864 H 0.36321 0.10513 0.89403 0.0
H865 H 0.33238 0.15426 0.81203 0.0
H866 H 0.34772 0.17947 0.83146 0.0
H867 H 0.31432 0.16248 0.83831 0.0
C868 C 0.32404 0.19911 0.89556 0.0
C869 C 0.30156 0.18857 0.909 0.0
C870 C 0.34008 0.18063 0.88183 0.0
C871 C 0.33378 0.15129 0.88104 0.0
C872 C 0.31193 0.14059 0.89499 0.0
H873 H 0.4178 0.00936 0.80792 0.0
H874 H 0.38114 0.03802 0.82749 0.0
C875 C 0.29598 0.159 0.90879 0.0
C876 C 0.35027 0.13168 0.866 0.0
H877 H 0.37144 0.12126 0.81098 0.0
C878 C 0.36473 0.10847 0.87583 0.0
C879 C 0.35207 0.13585 0.84219 0.0
C880 C 0.33556 0.15918 0.83032 0.0
C881 C 0.38187 0.0901 0.86272 0.0
C882 C 0.38442 0.09486 0.83906 0.0
C883 C 0.36945 0.11764 0.82911 0.0
C884 C 0.4044 0.07783 0.82481 0.0
C885 C 0.39805 0.0664 0.87439 0.0
C886 C 0.42896 0.09091 0.81601 0.0
C887 C 0.44975 0.07467 0.80489 0.0
C888 C 0.44631 0.04503 0.80213 0.0
C889 C 0.42091 0.03218 0.80972 0.0
C890 C 0.40013 0.04847 0.82106 0.0
H891 H 0.3974 0.06842 0.89319 0.0
H892 H 0.38847 0.04555 0.86968 0.0
H893 H 0.42073 0.06622 0.86883 0.0
H894 H 0.43266 0.11352 0.81861 0.0
H895 H 0.46908 0.08513 0.79912 0.0
H896 H 0.22685 0.77764 0.92631 0.0
H897 H 0.20094 0.81252 0.90326 0.0
H898 H 0.15985 0.84508 0.96353 0.0
H899 H 0.18625 0.81023 0.98676 0.0
H900 H 0.14248 0.8121 0.90011 0.0
H901 H 0.18058 0.91841 0.92903 0.0
H902 H 0.1999 0.88582 0.93489 0.0
H903 H 0.16885 0.89492 0.9513 0.0
C904 C 0.2129 0.79282 0.9347 0.0
C905 C 0.20859 0.79136 0.9583 0.0
C906 C 0.198 0.81263 0.92152 0.0
C907 C 0.17842 0.83146 0.93161 0.0
C908 C 0.17515 0.83108 0.95538 0.0
H909 H 0.03606 0.91011 0.85797 0.0
H910 H 0.06559 0.8805 0.883 0.0
C911 C 0.19026 0.81124 0.96866 0.0
C912 C 0.15962 0.84922 0.91688 0.0
H913 H 0.14103 0.91788 0.9038 0.0
C914 C 0.14218 0.83524 0.90093 0.0
C915 C 0.15934 0.87941 0.91784 0.0
C916 C 0.17832 0.89563 0.93403 0.0
C917 C 0.12456 0.85053 0.88591 0.0
C918 C 0.12392 0.8807 0.88709 0.0
C919 C 0.14138 0.89474 0.90301 0.0
C920 C 0.10586 0.89808 0.87153 0.0
C921 C 0.10734 0.83425 0.86853 0.0
C922 C 0.1186 0.91793 0.85682 0.0
C923 C 0.10179 0.93486 0.84251 0.0
C924 C 0.07179 0.93247 0.84267 0.0
C925 C 0.05908 0.91231 0.85722 0.0
C926 C 0.07595 0.89535 0.87155 0.0
H927 H 0.11559 0.81221 0.86608 0.0
H928 H 0.08486 0.83268 0.8744 0.0
H929 H 0.10746 0.84539 0.85188 0.0
H930 H 0.14161 0.92044 0.8565 0.0
H931 H 0.11235 0.95028 0.83167 0.0
H932 H 0.48697 0.90829 0.21085 0.0
H933 H 0.45342 0.87722 0.19066 0.0
H934 H 0.39762 0.94908 0.17918 0.0
H935 H 0.43132 0.98038 0.19947 0.0
H936 H 0.39122 0.86605 0.1953 0.0
H937 H 0.42311 0.91933 0.11463 0.0
H938 H 0.44384 0.92251 0.14037 0.0
H939 H 0.41111 0.94212 0.13732 0.0
C940 C 0.4672 0.9173 0.20448 0.0
C941 C 0.46171 0.9467 0.20661 0.0
C942 C 0.44809 0.89955 0.19296 0.0
C943 C 0.42328 0.91093 0.18317 0.0
C944 C 0.41683 0.93997 0.18646 0.0
H945 H 0.30561 0.84035 0.08433 0.0
H946 H 0.33301 0.87078 0.10986 0.0
C947 C 0.4359 0.95776 0.19819 0.0
C948 C 0.4057 0.89283 0.16793 0.0
H949 H 0.38955 0.88216 0.11199 0.0
C950 C 0.3907 0.86959 0.17709 0.0
C951 C 0.40528 0.89743 0.14419 0.0
C952 C 0.42181 0.92155 0.13339 0.0
C953 C 0.37491 0.851 0.16312 0.0
C954 C 0.37482 0.85537 0.13931 0.0
C955 C 0.38973 0.87874 0.13022 0.0
C956 C 0.3588 0.83647 0.12349 0.0
C957 C 0.35801 0.82723 0.17405 0.0
C958 C 0.36466 0.80706 0.12216 0.0
C959 C 0.3489 0.78946 0.10752 0.0
C960 C 0.32717 0.80103 0.09382 0.0
C961 C 0.32212 0.83065 0.09464 0.0
C962 C 0.33775 0.84813 0.1093 0.0
H963 H 0.35412 0.83141 0.19237 0.0
H964 H 0.33709 0.82428 0.16545 0.0
H965 H 0.37019 0.80698 0.17263 0.0
H966 H 0.38132 0.79768 0.13253 0.0
H967 H 0.35338 0.76676 0.10726 0.0
H968 H 0.28219 0.20103 0.4364 0.0
H969 H 0.31328 0.16819 0.41552 0.0
H970 H 0.37246 0.16783 0.47175 0.0
H971 H 0.34078 0.20001 0.49292 0.0
H972 H 0.36522 0.18327 0.40213 0.0
H973 H 0.37493 0.08506 0.45394 0.0
H974 H 0.34718 0.11112 0.45878 0.0
H975 H 0.38259 0.11681 0.46986 0.0
C976 C 0.30131 0.193 0.44459 0.0
C977 C 0.30903 0.20274 0.46631 0.0
C978 C 0.31916 0.17442 0.43262 0.0
C979 C 0.34523 0.16539 0.44203 0.0
C980 C 0.35222 0.17392 0.46427 0.0
H981 H 0.49564 0.08078 0.38613 0.0
H982 H 0.46157 0.10684 0.40991 0.0
C983 C 0.33413 0.1923 0.47639 0.0
C984 C 0.3664 0.15015 0.42753 0.0
H985 H 0.41009 0.09193 0.42504 0.0
C986 C 0.3746 0.16296 0.40694 0.0
C987 C 0.37909 0.12394 0.43394 0.0
C988 C 0.37031 0.10828 0.45523 0.0
C989 C 0.39512 0.15043 0.39266 0.0
C990 C 0.40768 0.12411 0.39898 0.0
C991 C 0.39999 0.11166 0.41984 0.0
C992 C 0.42866 0.10907 0.38415 0.0
C993 C 0.4038 0.16607 0.37133 0.0
C994 C 0.42157 0.10155 0.36171 0.0
C995 C 0.44115 0.08688 0.34799 0.0
C996 C 0.46799 0.07894 0.35661 0.0
C997 C 0.47506 0.08652 0.37904 0.0
C998 C 0.4556 0.1014 0.39266 0.0
H999 H 0.39924 0.18931 0.3726 0.0
H1000 H 0.42691 0.16321 0.3677 0.0
H1001 H 0.39143 0.15756 0.35675 0.0
H1002 H 0.40066 0.10655 0.35491 0.0
H1003 H 0.43501 0.08119 0.33083 0.0
H1004 H 0.03691 0.09434 0.71717 0.0
H1005 H 0.07389 0.12085 0.69673 0.0
H1006 H 0.12034 0.04259 0.68538 0.0
H1007 H 0.08308 0.01581 0.70577 0.0
H1008 H 0.13544 0.1251 0.70208 0.0
H1009 H 0.10225 0.07435 0.62067 0.0
H1010 H 0.08035 0.07297 0.64589 0.0
H1011 H 0.11147 0.05075 0.64364 0.0
C1012 C 0.05524 0.08285 0.71061 0.0
C1013 C 0.05703 0.05299 0.71286 0.0
C1014 C 0.07636 0.09801 0.69898 0.0
C1015 C 0.09959 0.08363 0.68922 0.0
C1016 C 0.10235 0.05402 0.69254 0.0
H1017 H 0.22364 0.15024 0.59148 0.0
H1018 H 0.1955 0.11927 0.6163 0.0
C1019 C 0.08124 0.0388 0.70435 0.0
C1020 C 0.11965 0.0996 0.67438 0.0
H1021 H 0.13842 0.10903 0.61879 0.0
C1022 C 0.13629 0.12148 0.68389 0.0
C1023 C 0.12067 0.09483 0.65065 0.0
C1024 C 0.10264 0.07211 0.63946 0.0
C1025 C 0.15383 0.13884 0.67028 0.0
C1026 C 0.15413 0.13468 0.64644 0.0
C1027 C 0.13804 0.11232 0.63703 0.0
C1028 C 0.1706 0.15358 0.63092 0.0
C1029 C 0.17207 0.16129 0.68161 0.0
C1030 C 0.16535 0.18311 0.63033 0.0
C1031 C 0.18137 0.20094 0.61612 0.0
C1032 C 0.2028 0.18954 0.60205 0.0
C1033 C 0.20729 0.15979 0.60207 0.0
C1034 C 0.1913 0.14202 0.61632 0.0
H1035 H 0.17596 0.15616 0.69978 0.0
H1036 H 0.193 0.16358 0.67291 0.0
H1037 H 0.16086 0.18216 0.68088 0.0
H1038 H 0.14893 0.19244 0.64097 0.0
H1039 H 0.1773 0.22371 0.61648 0.0
H1040 H 0.91041 0.95914 0.83949 0.0
H1041 H 0.87558 0.94042 0.86673 0.0
H1042 H 0.91564 0.85761 0.8632 0.0
H1043 H 0.95032 0.87596 0.83586 0.0
H1044 H 0.85504 0.856 0.86358 0.0
H1045 H 0.89935 0.92347 0.93309 0.0
H1046 H 0.88775 0.94172 0.90784 0.0
H1047 H 0.91794 0.91812 0.90657 0.0
C1048 C 0.91155 0.93682 0.84422 0.0
C1049 C 0.93333 0.9191 0.83564 0.0
C1050 C 0.89173 0.92624 0.85992 0.0
C1051 C 0.89338 0.89779 0.8673 0.0
C1052 C 0.9141 0.87969 0.85782 0.0
H1053 H 0.85678 0.79658 0.98 0.0
H1054 H 0.87417 0.83235 0.95311 0.0
C1055 C 0.93391 0.89023 0.84217 0.0
C1056 C 0.8746 0.88692 0.88565 0.0
H1057 H 0.86342 0.89073 0.94295 0.0
C1058 C 0.85644 0.86387 0.88088 0.0
C1059 C 0.87674 0.89717 0.90822 0.0
C1060 C 0.8966 0.92135 0.91442 0.0
C1061 C 0.84116 0.85004 0.8982 0.0
C1062 C 0.84382 0.85982 0.92087 0.0
C1063 C 0.86117 0.88355 0.92552 0.0
C1064 C 0.83223 0.84306 0.94016 0.0
C1065 C 0.82365 0.82398 0.8923 0.0
C1066 C 0.80274 0.83836 0.94268 0.0
C1067 C 0.79275 0.81796 0.9582 0.0
C1068 C 0.81218 0.80209 0.9713 0.0
C1069 C 0.84142 0.80862 0.97009 0.0
C1070 C 0.85135 0.82899 0.95471 0.0
H1071 H 0.82737 0.81672 0.87457 0.0
H1072 H 0.82875 0.80609 0.904 0.0
H1073 H 0.80062 0.82906 0.89418 0.0
H1074 H 0.78762 0.84931 0.93181 0.0
H1075 H 0.77013 0.8131 0.95872 0.0
H1076 H 0.83732 0.16569 0.58751 0.0
H1077 H 0.86647 0.13214 0.60924 0.0
H1078 H 0.79226 0.07983 0.62156 0.0
H1079 H 0.76282 0.11336 0.59989 0.0
H1080 H 0.82168 0.09571 0.66104 0.0
H1081 H 0.89604 0.0509 0.59712 0.0
H1082 H 0.89398 0.08917 0.59617 0.0
H1083 H 0.8629 0.06822 0.58943 0.0
C1084 C 0.82726 0.14676 0.59442 0.0
C1085 C 0.79771 0.14228 0.59204 0.0
C1086 C 0.84401 0.1275 0.60675 0.0
C1087 C 0.83157 0.10337 0.61685 0.0
C1088 C 0.80229 0.09825 0.61379 0.0
H1089 H 0.94663 0.99123 0.69502 0.0
H1090 H 0.90557 0.00484 0.67117 0.0
C1091 C 0.78553 0.11742 0.60136 0.0
C1092 C 0.8486 0.08535 0.6325 0.0
H1093 H 0.9109 0.04775 0.63623 0.0
C1094 C 0.84089 0.08473 0.65555 0.0
C1095 C 0.87347 0.07078 0.6253 0.0
C1096 C 0.88197 0.06951 0.60061 0.0
C1097 C 0.85839 0.07148 0.67179 0.0
C1098 C 0.88428 0.0587 0.66479 0.0
C1099 C 0.89108 0.05771 0.64157 0.0
C1100 C 0.90611 0.04924 0.68136 0.0
C1101 C 0.84949 0.07198 0.69641 0.0
C1102 C 0.91961 0.06961 0.69515 0.0
C1103 C 0.94298 0.06195 0.70854 0.0
C1104 C 0.95315 0.03375 0.70847 0.0
C1105 C 0.93885 0.01301 0.69553 0.0
C1106 C 0.91559 0.02078 0.68187 0.0
H1107 H 0.82603 0.07483 0.6982 0.0
H1108 H 0.85592 0.05199 0.70519 0.0
H1109 H 0.86015 0.09016 0.70505 0.0
H1110 H 0.91294 0.09177 0.69472 0.0
H1111 H 0.95386 0.07831 0.71828 0.0
H1112 H 0.57066 0.126 0.33118 0.0
H1113 H 0.60783 0.13981 0.35795 0.0
H1114 H 0.64331 0.05485 0.35508 0.0
H1115 H 0.60562 0.04059 0.32854 0.0
H1116 H 0.63548 0.0713 0.39799 0.0
H1117 H 0.69132 0.15796 0.35288 0.0
H1118 H 0.65359 0.16449 0.35291 0.0
H1119 H 0.6676 0.13353 0.33846 0.0
C1120 C 0.5867 0.11036 0.33581 0.0
C1121 C 0.5851 0.08217 0.32771 0.0
C1122 C 0.60812 0.11837 0.35106 0.0
C1123 C 0.62868 0.09851 0.35833 0.0
C1124 C 0.6278 0.0706 0.34962 0.0
H1125 H 0.74299 0.18239 0.45536 0.0
H1126 H 0.73138 0.14792 0.42524 0.0
C1127 C 0.60627 0.06251 0.33439 0.0
C1128 C 0.64898 0.10631 0.37674 0.0
H1129 H 0.69259 0.16035 0.39423 0.0
C1130 C 0.64852 0.09041 0.39699 0.0
C1131 C 0.6666 0.13079 0.37538 0.0
C1132 C 0.67006 0.14744 0.35362 0.0
C1133 C 0.66325 0.09971 0.41643 0.0
C1134 C 0.67831 0.1259 0.41575 0.0
C1135 C 0.68076 0.14045 0.39496 0.0
C1136 C 0.68802 0.14072 0.43672 0.0
C1137 C 0.66178 0.08176 0.43767 0.0
C1138 C 0.66796 0.14724 0.4537 0.0
C1139 C 0.67467 0.1666 0.4709 0.0
C1140 C 0.70148 0.18 0.4714 0.0
C1141 C 0.72236 0.17192 0.45553 0.0
C1142 C 0.71563 0.15246 0.43823 0.0
H1143 H 0.66032 0.0587 0.43337 0.0
H1144 H 0.6807 0.08517 0.44873 0.0
H1145 H 0.64225 0.08747 0.44735 0.0
H1146 H 0.64632 0.13917 0.45267 0.0
H1147 H 0.65811 0.17287 0.48276 0.0
H1148 H 0.69276 0.84646 0.07466 0.0
H1149 H 0.66434 0.88589 0.09014 0.0
H1150 H 0.71109 0.88055 0.15316 0.0
H1151 H 0.73985 0.8418 0.13775 0.0
H1152 H 0.62972 0.8803 0.12614 0.0
H1153 H 0.70776 0.96585 0.14465 0.0
H1154 H 0.71603 0.93602 0.12633 0.0
H1155 H 0.71834 0.93231 0.15673 0.0
C1156 C 0.69735 0.85409 0.09164 0.0
C1157 C 0.71848 0.84094 0.10499 0.0
C1158 C 0.68114 0.87665 0.10045 0.0
C1159 C 0.68587 0.88649 0.12269 0.0
C1160 C 0.70755 0.87391 0.13576 0.0
H1161 H 0.58538 0.96476 0.22624 0.0
H1162 H 0.62544 0.94665 0.2034 0.0
C1163 C 0.7238 0.85151 0.12696 0.0
C1164 C 0.66593 0.90718 0.13331 0.0
H1165 H 0.66282 0.96853 0.16476 0.0
C1166 C 0.6369 0.89986 0.1342 0.0
C1167 C 0.67537 0.93259 0.14401 0.0
C1168 C 0.70605 0.9423 0.1427 0.0
C1169 C 0.61723 0.91658 0.14623 0.0
C1170 C 0.62677 0.94157 0.15741 0.0
C1171 C 0.65566 0.94934 0.15616 0.0
C1172 C 0.60683 0.95889 0.17118 0.0
C1173 C 0.58652 0.90679 0.1476 0.0
C1174 C 0.58404 0.97309 0.16063 0.0
C1175 C 0.56125 0.98326 0.17358 0.0
C1176 C 0.56112 0.97964 0.19727 0.0
C1177 C 0.58522 0.96799 0.20802 0.0
C1178 C 0.60799 0.9576 0.195 0.0
H1179 H 0.58383 0.88443 0.14167 0.0
H1180 H 0.57846 0.90837 0.16531 0.0
H1181 H 0.57305 0.92076 0.13677 0.0
H1182 H 0.58291 0.97444 0.14228 0.0
H1183 H 0.5428 0.99215 0.16499 0.0
H1184 H 0.76499 0.19175 0.07563 0.0
H1185 H 0.78416 0.15687 0.10247 0.0
H1186 H 0.83345 0.11841 0.04864 0.0
H1187 H 0.81464 0.15389 0.02178 0.0
H1188 H 0.79331 0.09769 0.109 0.0
H1189 H 0.89321 0.15731 0.08937 0.0
H1190 H 0.85876 0.16863 0.07906 0.0
H1191 H 0.87701 0.13929 0.06573 0.0
C1192 C 0.77881 0.17494 0.06933 0.0
C1193 C 0.78848 0.17544 0.04674 0.0
C1194 C 0.78987 0.1551 0.08469 0.0
C1195 C 0.81078 0.13555 0.07766 0.0
C1196 C 0.81767 0.13367 0.05445 0.0
H1197 H 0.90905 0.02821 0.1709 0.0
H1198 H 0.87414 0.04422 0.14288 0.0
C1199 C 0.80668 0.15367 0.03906 0.0
C1200 C 0.82867 0.12131 0.0951 0.0
H1201 H 0.89564 0.12288 0.11809 0.0
C1202 C 0.81577 0.10289 0.11089 0.0
C1203 C 0.85781 0.12875 0.09784 0.0
C1204 C 0.87256 0.14975 0.08226 0.0
C1205 C 0.83123 0.09183 0.12943 0.0
C1206 C 0.86035 0.09925 0.13204 0.0
C1207 C 0.87328 0.11731 0.11607 0.0
C1208 C 0.87807 0.08902 0.1513 0.0
C1209 C 0.81608 0.07313 0.14645 0.0
C1210 C 0.89169 0.10885 0.16557 0.0
C1211 C 0.91192 0.09981 0.18149 0.0
C1212 C 0.91902 0.07074 0.18337 0.0
C1213 C 0.90414 0.05077 0.16993 0.0
C1214 C 0.88399 0.05986 0.15395 0.0
H1215 H 0.79248 0.0752 0.14516 0.0
H1216 H 0.82176 0.05048 0.14321 0.0
H1217 H 0.82272 0.07849 0.16405 0.0
H1218 H 0.88744 0.13149 0.16378 0.0
H1219 H 0.92295 0.11574 0.19154 0.0
H1220 H 0.53131 0.00936 0.84303 0.0
H1221 H 0.57242 0.02766 0.86423 0.0
H1222 H 0.6132 0.05148 0.80133 0.0
H1223 H 0.57212 0.03275 0.77998 0.0
H1224 H 0.6516 0.03025 0.83792 0.0
H1225 H 0.57713 0.1166 0.86469 0.0
H1226 H 0.56544 0.08084 0.87068 0.0
H1227 H 0.56901 0.09241 0.84172 0.0
C1228 C 0.54943 0.01778 0.83374 0.0
C1229 C 0.54857 0.01996 0.80995 0.0
C1230 C 0.57281 0.02826 0.84583 0.0
C1231 C 0.59551 0.04136 0.83433 0.0
C1232 C 0.59579 0.04146 0.81047 0.0
H1233 H 0.73401 0.15419 0.86594 0.0
H1234 H 0.7031 0.11754 0.8498 0.0
C1235 C 0.57243 0.03074 0.79831 0.0
C1236 C 0.6169 0.05809 0.84717 0.0
H1237 H 0.62378 0.11833 0.8793 0.0
C1238 C 0.6456 0.04944 0.84706 0.0
C1239 C 0.6089 0.08313 0.85902 0.0
C1240 C 0.57851 0.09403 0.85897 0.0
C1241 C 0.66658 0.06524 0.85866 0.0
C1242 C 0.6586 0.0905 0.87025 0.0
C1243 C 0.62982 0.09884 0.87056 0.0
C1244 C 0.67974 0.10985 0.88094 0.0
C1245 C 0.69702 0.05465 0.85852 0.0
C1246 C 0.67679 0.1179 0.9038 0.0
C1247 C 0.69427 0.13915 0.91306 0.0
C1248 C 0.71487 0.15283 0.89953 0.0
C1249 C 0.71838 0.14406 0.87685 0.0
C1250 C 0.70089 0.12287 0.86762 0.0
H1251 H 0.69805 0.03128 0.85535 0.0
H1252 H 0.70893 0.0655 0.8447 0.0
H1253 H 0.70789 0.05938 0.87486 0.0
H1254 H 0.66042 0.10826 0.91432 0.0
H1255 H 0.69105 0.1454 0.93059 0.0
H1256 H 0.6974 0.83862 0.52258 0.0
H1257 H 0.68003 0.87412 0.55006 0.0
H1258 H 0.70931 0.82069 0.60509 0.0
H1259 H 0.72718 0.78595 0.57777 0.0
H1260 H 0.6376 0.86067 0.57686 0.0
H1261 H 0.72523 0.89698 0.63216 0.0
H1262 H 0.73181 0.88002 0.60509 0.0
H1263 H 0.72578 0.85881 0.63022 0.0
C1264 C 0.70141 0.83533 0.54052 0.0
C1265 C 0.71374 0.80975 0.54814 0.0
C1266 C 0.69129 0.85545 0.55623 0.0
C1267 C 0.69345 0.85024 0.57973 0.0
C1268 C 0.70795 0.82571 0.58717 0.0
H1269 H 0.56578 0.86734 0.68031 0.0
H1270 H 0.60188 0.85365 0.65241 0.0
C1271 C 0.7181 0.80575 0.57153 0.0
C1272 C 0.67617 0.867 0.59626 0.0
H1273 H 0.67779 0.89537 0.6498 0.0
C1274 C 0.64658 0.86885 0.59255 0.0
C1275 C 0.6877 0.87794 0.61675 0.0
C1276 C 0.71943 0.8786 0.62114 0.0
C1277 C 0.62811 0.87959 0.60925 0.0
C1278 C 0.6394 0.88813 0.63047 0.0
C1279 C 0.66911 0.88815 0.6337 0.0
C1280 C 0.62032 0.89586 0.64964 0.0
C1281 C 0.59651 0.88108 0.6042 0.0
C1282 C 0.61974 0.9238 0.65822 0.0
C1283 C 0.59917 0.93171 0.67434 0.0
C1284 C 0.57891 0.91174 0.68214 0.0
C1285 C 0.58087 0.88332 0.67457 0.0
C1286 C 0.60141 0.87548 0.65852 0.0
H1287 H 0.5923 0.88146 0.58562 0.0
H1288 H 0.58583 0.86195 0.61138 0.0
H1289 H 0.58672 0.90035 0.612 0.0
H1290 H 0.63432 0.93979 0.65171 0.0
H1291 H 0.5983 0.95377 0.67983 0.0
H1292 H 0.93977 0.92595 0.28677 0.0
H1293 H 0.89891 0.9129 0.3105 0.0
H1294 H 0.9004 0.99647 0.34136 0.0
H1295 H 0.9415 0.00953 0.31746 0.0
H1296 H 0.90492 0.95207 0.3723 0.0
H1297 H 0.81398 0.93253 0.31441 0.0
H1298 H 0.84602 0.91525 0.30485 0.0
H1299 H 0.84463 0.95364 0.30624 0.0
C1300 C 0.93056 0.94186 0.29796 0.0
C1301 C 0.94331 0.96882 0.30015 0.0
C1302 C 0.90724 0.93444 0.3115 0.0
C1303 C 0.8964 0.95382 0.32754 0.0
C1304 C 0.90826 0.98133 0.32893 0.0
H1305 H 0.7595 0.885 0.41366 0.0
H1306 H 0.78695 0.9197 0.39152 0.0
C1307 C 0.93152 0.98885 0.31521 0.0
C1308 C 0.87569 0.9437 0.34479 0.0
H1309 H 0.81285 0.90747 0.35036 0.0
C1310 C 0.88448 0.94288 0.3676 0.0
C1311 C 0.84894 0.93196 0.33871 0.0
C1312 C 0.83769 0.93363 0.31474 0.0
C1313 C 0.86808 0.92896 0.3842 0.0
C1314 C 0.84244 0.91522 0.37774 0.0
C1315 C 0.8327 0.91772 0.35526 0.0
C1316 C 0.82665 0.89617 0.39345 0.0
C1317 C 0.87872 0.92847 0.40839 0.0
C1318 C 0.83997 0.87161 0.40212 0.0
C1319 C 0.82438 0.85174 0.41475 0.0
C1320 C 0.79509 0.85596 0.41885 0.0
C1321 C 0.78204 0.88111 0.41086 0.0
C1322 C 0.79765 0.90095 0.39815 0.0
H1323 H 0.89288 0.94698 0.41196 0.0
H1324 H 0.86069 0.9287 0.42066 0.0
H1325 H 0.89132 0.9087 0.41119 0.0
H1326 H 0.86218 0.86719 0.39832 0.0
H1327 H 0.83508 0.83257 0.42058 0.0
H1328 H 0.63966 0.7378 0.52321 0.0
H1329 H 0.60729 0.70639 0.5443 0.0
H1330 H 0.67871 0.65363 0.56389 0.0
H1331 H 0.71116 0.68497 0.54245 0.0
H1332 H 0.6266 0.62267 0.55473 0.0
H1333 H 0.61063 0.71316 0.61435 0.0
H1334 H 0.60255 0.72127 0.58522 0.0
H1335 H 0.63862 0.71282 0.59327 0.0
C1336 C 0.64824 0.71889 0.53134 0.0
C1337 C 0.6778 0.71363 0.53116 0.0
C1338 C 0.62983 0.70118 0.54359 0.0
C1339 C 0.6407 0.67811 0.55611 0.0
C1340 C 0.66992 0.67145 0.55445 0.0
H1341 H 0.56295 0.60022 0.67519 0.0
H1342 H 0.59116 0.62929 0.64882 0.0
C1343 C 0.6884 0.68915 0.54206 0.0
C1344 C 0.62204 0.66262 0.57238 0.0
H1345 H 0.58203 0.67217 0.62035 0.0
C1346 C 0.61686 0.63343 0.5691 0.0
C1347 C 0.60976 0.67662 0.59134 0.0
C1348 C 0.61582 0.70763 0.59646 0.0
C1349 C 0.59926 0.61792 0.58404 0.0
C1350 C 0.58613 0.63218 0.60261 0.0
C1351 C 0.59179 0.66129 0.60605 0.0
C1352 C 0.56701 0.61716 0.61893 0.0
C1353 C 0.59537 0.58635 0.57982 0.0
C1354 C 0.54305 0.60199 0.61118 0.0
C1355 C 0.52711 0.58522 0.62617 0.0
C1356 C 0.53445 0.5837 0.64931 0.0
C1357 C 0.55673 0.601 0.65747 0.0
C1358 C 0.57302 0.61743 0.64236 0.0
H1359 H 0.61393 0.57716 0.57058 0.0
H1360 H 0.59247 0.57436 0.59589 0.0
H1361 H 0.57612 0.58307 0.56913 0.0
H1362 H 0.53729 0.60226 0.59337 0.0
H1363 H 0.50981 0.57238 0.61945 0.0
H1364 H 0.54199 0.40535 0.79464 0.0
H1365 H 0.57843 0.37788 0.81494 0.0
H1366 H 0.62646 0.45505 0.82671 0.0
H1367 H 0.58979 0.48276 0.80631 0.0
H1368 H 0.64053 0.37265 0.80984 0.0
H1369 H 0.60661 0.42288 0.89128 0.0
H1370 H 0.58498 0.42463 0.86593 0.0
H1371 H 0.61634 0.44645 0.86842 0.0
C1372 C 0.56063 0.41636 0.80116 0.0
C1373 C 0.56306 0.44617 0.799 0.0
C1374 C 0.58141 0.40066 0.81275 0.0
C1375 C 0.60492 0.41446 0.82263 0.0
C1376 C 0.60829 0.44404 0.81942 0.0
H1377 H 0.72461 0.34292 0.92203 0.0
H1378 H 0.69825 0.3752 0.89702 0.0
C1379 C 0.58752 0.4598 0.80761 0.0
C1380 C 0.6245 0.39795 0.83756 0.0
H1381 H 0.64163 0.38708 0.89334 0.0
C1382 C 0.64099 0.37593 0.82807 0.0
C1383 C 0.62505 0.40228 0.86135 0.0
C1384 C 0.60722 0.42519 0.8725 0.0
C1385 C 0.65785 0.35796 0.84176 0.0
C1386 C 0.65756 0.3616 0.86566 0.0
C1387 C 0.64169 0.38415 0.87506 0.0
C1388 C 0.67306 0.34191 0.88125 0.0
C1389 C 0.67601 0.33541 0.83046 0.0
C1390 C 0.6671 0.31249 0.88127 0.0
C1391 C 0.68212 0.29391 0.89559 0.0
C1392 C 0.70326 0.30441 0.91038 0.0
C1393 C 0.70844 0.33404 0.91092 0.0
C1394 C 0.69346 0.35257 0.89654 0.0
H1395 H 0.68055 0.34091 0.81245 0.0
H1396 H 0.69662 0.33251 0.83952 0.0
H1397 H 0.66439 0.31476 0.83064 0.0
H1398 H 0.65089 0.30383 0.87009 0.0
H1399 H 0.67755 0.27126 0.89474 0.0
H1400 H 0.99257 0.42077 0.11672 0.0
H1401 H 0.96186 0.39056 0.09339 0.0
H1402 H 0.91847 0.36088 0.1535 0.0
H1403 H 0.94932 0.3911 0.17716 0.0
H1404 H 0.94859 0.32996 0.09407 0.0
H1405 H 0.85575 0.39994 0.11292 0.0
H1406 H 0.89192 0.40971 0.12018 0.0
H1407 H 0.87265 0.38441 0.13737 0.0
C1408 C 0.97689 0.40742 0.1251 0.0
C1409 C 0.97312 0.40868 0.14881 0.0
C1410 C 0.95932 0.39019 0.11169 0.0
C1411 C 0.93754 0.37397 0.12167 0.0
C1412 C 0.93492 0.37361 0.14546 0.0
H1413 H 0.79881 0.2704 0.07584 0.0
H1414 H 0.83198 0.30198 0.09563 0.0
C1415 C 0.95273 0.39068 0.15897 0.0
C1416 C 0.9167 0.35877 0.10703 0.0
H1417 H 0.84643 0.35817 0.09139 0.0
C1418 C 0.92626 0.33613 0.09338 0.0
C1419 C 0.88768 0.36713 0.10599 0.0
C1420 C 0.87636 0.39182 0.11972 0.0
C1421 C 0.90729 0.3209 0.07936 0.0
C1422 C 0.87816 0.32906 0.07856 0.0
C1423 C 0.86878 0.35207 0.09189 0.0
C1424 C 0.85655 0.31246 0.06563 0.0
C1425 C 0.91839 0.29555 0.0662 0.0
C1426 C 0.85854 0.30882 0.04196 0.0
C1427 C 0.83949 0.29067 0.03056 0.0
C1428 C 0.81823 0.27602 0.04272 0.0
C1429 C 0.81518 0.28125 0.06611 0.0
C1430 C 0.83413 0.29927 0.07743 0.0
H1431 H 0.93965 0.28845 0.07243 0.0
H1432 H 0.90331 0.2773 0.06734 0.0
H1433 H 0.92061 0.30148 0.04804 0.0
H1434 H 0.87529 0.31936 0.03244 0.0
H1435 H 0.8423 0.28694 0.01253 0.0
H1436 H 0.78516 0.65465 0.41507 0.0
H1437 H 0.81516 0.62412 0.3913 0.0
H1438 H 0.86443 0.69754 0.37081 0.0
H1439 H 0.83478 0.72822 0.39481 0.0
H1440 H 0.82259 0.62647 0.34504 0.0
H1441 H 0.92648 0.64137 0.3886 0.0
H1442 H 0.89298 0.65182 0.40131 0.0
H1443 H 0.90993 0.67445 0.38061 0.0
C1444 C 0.80268 0.6643 0.40583 0.0
C1445 C 0.80767 0.69394 0.40701 0.0
C1446 C 0.81973 0.64678 0.39213 0.0
C1447 C 0.84226 0.65843 0.37942 0.0
C1448 C 0.84755 0.68793 0.3808 0.0
H1449 H 0.96799 0.59862 0.28384 0.0
H1450 H 0.93318 0.62624 0.30568 0.0
C1451 C 0.83053 0.70549 0.39453 0.0
C1452 C 0.85952 0.63993 0.36408 0.0
H1453 H 0.92791 0.61934 0.3522 0.0
C1454 C 0.84561 0.62475 0.34668 0.0
C1455 C 0.88953 0.63754 0.36628 0.0
C1456 C 0.90561 0.65192 0.38534 0.0
C1457 C 0.861 0.60801 0.33101 0.0
C1458 C 0.89107 0.60617 0.33294 0.0
C1459 C 0.90488 0.62097 0.35057 0.0
C1460 C 0.90898 0.58946 0.31681 0.0
C1461 C 0.84506 0.59309 0.31216 0.0
C1462 C 0.90643 0.55959 0.31513 0.0
C1463 C 0.92626 0.54373 0.30243 0.0
C1464 C 0.94909 0.5575 0.29145 0.0
C1465 C 0.95059 0.58748 0.29214 0.0
C1466 C 0.93079 0.60326 0.30469 0.0
H1467 H 0.82324 0.60197 0.30983 0.0
H1468 H 0.85686 0.59483 0.29585 0.0
H1469 H 0.84297 0.5701 0.31639 0.0
H1470 H 0.89007 0.5484 0.32461 0.0
H1471 H 0.92488 0.52063 0.30246 0.0
H1472 H 0.54281 0.38795 0.3418 0.0
H1473 H 0.57057 0.35836 0.36833 0.0
H1474 H 0.55758 0.4209 0.42108 0.0
H1475 H 0.52912 0.44969 0.39532 0.0
H1476 H 0.61981 0.37054 0.39029 0.0
H1477 H 0.53564 0.34951 0.45426 0.0
H1478 H 0.52776 0.36282 0.42619 0.0
H1479 H 0.5397 0.38676 0.44807 0.0
C1480 C 0.54545 0.39507 0.35918 0.0
C1481 C 0.53363 0.42113 0.36641 0.0
C1482 C 0.56146 0.37826 0.37429 0.0
C1483 C 0.56581 0.38718 0.39687 0.0
C1484 C 0.55389 0.41311 0.40403 0.0
H1485 H 0.70325 0.31198 0.48031 0.0
H1486 H 0.67358 0.3472 0.46033 0.0
C1487 C 0.53772 0.42967 0.38913 0.0
C1488 C 0.58359 0.37004 0.4128 0.0
H1489 H 0.5832 0.33853 0.46514 0.0
C1490 C 0.61178 0.36338 0.40662 0.0
C1491 C 0.57306 0.36056 0.43405 0.0
C1492 C 0.54232 0.36499 0.44098 0.0
C1493 C 0.62967 0.34736 0.42098 0.0
C1494 C 0.61946 0.33864 0.44259 0.0
C1495 C 0.59129 0.34556 0.4488 0.0
C1496 C 0.63642 0.31975 0.45792 0.0
C1497 C 0.6589 0.33901 0.41239 0.0
C1498 C 0.62476 0.29359 0.46493 0.0
C1499 C 0.64131 0.27394 0.47695 0.0
C1500 C 0.67013 0.27973 0.48199 0.0
C1501 C 0.68119 0.3068 0.47658 0.0
C1502 C 0.66438 0.32675 0.46478 0.0
H1503 H 0.66046 0.34098 0.39362 0.0
H1504 H 0.67516 0.35337 0.41997 0.0
H1505 H 0.66418 0.31668 0.41716 0.0
H1506 H 0.60317 0.28772 0.4602 0.0
H1507 H 0.63191 0.25353 0.48132 0.0
H1508 H 0.93135 0.44402 0.73143 0.0
H1509 H 0.8948 0.41509 0.71235 0.0
H1510 H 0.92962 0.43906 0.64722 0.0
H1511 H 0.96461 0.46931 0.666 0.0
H1512 H 0.87479 0.43688 0.64402 0.0
H1513 H 0.91073 0.33775 0.68703 0.0
H1514 H 0.89802 0.36456 0.7063 0.0
H1515 H 0.92971 0.37106 0.68975 0.0
C1516 C 0.93078 0.4436 0.71305 0.0
C1517 C 0.95134 0.45854 0.70029 0.0
C1518 C 0.91017 0.42665 0.70214 0.0
C1519 C 0.91001 0.42401 0.67831 0.0
C1520 C 0.92943 0.44032 0.6656 0.0
H1521 H 0.84225 0.28144 0.60001 0.0
H1522 H 0.87203 0.31565 0.621 0.0
C1523 C 0.94965 0.45748 0.67642 0.0
C1524 C 0.89038 0.4039 0.66631 0.0
H1525 H 0.87103 0.33364 0.66249 0.0
C1526 C 0.87397 0.4143 0.6481 0.0
C1527 C 0.88964 0.37427 0.67127 0.0
C1528 C 0.90816 0.36114 0.68949 0.0
C1529 C 0.8572 0.39605 0.63462 0.0
C1530 C 0.85576 0.36656 0.64001 0.0
C1531 C 0.87196 0.3562 0.65835 0.0
C1532 C 0.83786 0.34607 0.62678 0.0
C1533 C 0.84214 0.40856 0.61421 0.0
C1534 C 0.8087 0.35149 0.62315 0.0
C1535 C 0.79197 0.33238 0.61069 0.0
C1536 C 0.80375 0.30694 0.6021 0.0
C1537 C 0.8327 0.30101 0.60623 0.0
C1538 C 0.84965 0.32051 0.6183 0.0
H1539 H 0.85289 0.42831 0.60818 0.0
H1540 H 0.84132 0.39312 0.59991 0.0
H1541 H 0.81996 0.41438 0.61899 0.0
H1542 H 0.79868 0.37035 0.6302 0.0
H1543 H 0.76951 0.33717 0.6084 0.0
H1544 H 0.77875 0.67763 0.96459 0.0
H1545 H 0.80011 0.64026 0.94065 0.0
H1546 H 0.88402 0.67384 0.95498 0.0
H1547 H 0.86287 0.71066 0.97901 0.0
H1548 H 0.82996 0.65381 0.90224 0.0
H1549 H 0.89923 0.58897 0.95814 0.0
H1550 H 0.87075 0.61111 0.96907 0.0
H1551 H 0.90491 0.62649 0.96211 0.0
C1552 C 0.80179 0.67627 0.96328 0.0
C1553 C 0.81919 0.69697 0.97362 0.0
C1554 C 0.81397 0.65507 0.9495 0.0
C1555 C 0.84371 0.65405 0.94614 0.0
C1556 C 0.86112 0.67371 0.95764 0.0
H1557 H 0.97009 0.59542 0.85279 0.0
H1558 H 0.94111 0.61701 0.88284 0.0
C1559 C 0.849 0.69488 0.97128 0.0
C1560 C 0.8564 0.6354 0.92836 0.0
H1561 H 0.91129 0.58893 0.91835 0.0
C1562 C 0.84737 0.63917 0.9058 0.0
C1563 C 0.8792 0.61641 0.933 0.0
C1564 C 0.8889 0.61027 0.95694 0.0
C1565 C 0.86152 0.62574 0.88766 0.0
C1566 C 0.8851 0.60773 0.89223 0.0
C1567 C 0.89339 0.603 0.91485 0.0
C1568 C 0.90228 0.5947 0.87373 0.0
C1569 C 0.852 0.63207 0.86368 0.0
C1570 C 0.89005 0.57506 0.85858 0.0
C1571 C 0.9065 0.56291 0.84125 0.0
C1572 C 0.9356 0.56993 0.83884 0.0
C1573 C 0.94772 0.58969 0.85403 0.0
C1574 C 0.93124 0.60191 0.87131 0.0
H1575 H 0.83759 0.6509 0.86286 0.0
H1576 H 0.8707 0.63603 0.8525 0.0
H1577 H 0.84023 0.61337 0.85687 0.0
H1578 H 0.86789 0.56878 0.86037 0.0
H1579 H 0.89655 0.54741 0.83019 0.0
H1580 H 0.58224 0.51669 0.20696 0.0
H1581 H 0.61771 0.54517 0.18607 0.0
H1582 H 0.57505 0.62247 0.20702 0.0
H1583 H 0.53985 0.59417 0.22787 0.0
H1584 H 0.60003 0.58082 0.15008 0.0
H1585 H 0.65966 0.64315 0.21462 0.0
H1586 H 0.63997 0.61113 0.22156 0.0
H1587 H 0.62155 0.64453 0.21798 0.0
C1588 C 0.5812 0.53978 0.2078 0.0
C1589 C 0.5585 0.5533 0.2191 0.0
C1590 C 0.60127 0.55601 0.19573 0.0
C1591 C 0.59912 0.58596 0.19509 0.0
C1592 C 0.57747 0.59947 0.20758 0.0
H1593 H 0.67333 0.7251 0.11707 0.0
H1594 H 0.64403 0.69518 0.14212 0.0
C1595 C 0.55735 0.5833 0.21947 0.0
C1596 C 0.61697 0.60292 0.17918 0.0
H1597 H 0.66314 0.65929 0.17625 0.0
C1598 C 0.61411 0.59776 0.1558 0.0
C1599 C 0.63497 0.62528 0.18667 0.0
C1600 C 0.63948 0.63126 0.21159 0.0
C1601 C 0.62822 0.61476 0.13966 0.0
C1602 C 0.64619 0.6372 0.14712 0.0
C1603 C 0.64924 0.64221 0.17053 0.0
C1604 C 0.66258 0.65523 0.13093 0.0
C1605 C 0.62302 0.60906 0.11476 0.0
C1606 C 0.68253 0.64272 0.11619 0.0
C1607 C 0.69902 0.65968 0.10174 0.0
C1608 C 0.69623 0.68963 0.10189 0.0
C1609 C 0.67586 0.70212 0.11638 0.0
C1610 C 0.65925 0.68506 0.13082 0.0
H1611 H 0.60272 0.59727 0.11198 0.0
H1612 H 0.62226 0.62927 0.1049 0.0
H1613 H 0.64069 0.59576 0.10798 0.0
H1614 H 0.68594 0.61984 0.11627 0.0
H1615 H 0.71457 0.64928 0.09094 0.0
H1616 H 0.26577 0.28859 0.4293 0.0
H1617 H 0.28455 0.32566 0.40403 0.0
H1618 H 0.32859 0.36427 0.46056 0.0
H1619 H 0.30977 0.32712 0.48596 0.0
H1620 H 0.28875 0.39047 0.40454 0.0
H1621 H 0.3906 0.33034 0.41481 0.0
H1622 H 0.3564 0.31547 0.42263 0.0
H1623 H 0.37315 0.34158 0.44054 0.0
C1624 C 0.27855 0.30566 0.43646 0.0
C1625 C 0.28643 0.30507 0.4595 0.0
C1626 C 0.28929 0.32675 0.42203 0.0
C1627 C 0.30821 0.3474 0.43041 0.0
C1628 C 0.31406 0.34838 0.45381 0.0
H1629 H 0.40235 0.48197 0.36553 0.0
H1630 H 0.36685 0.45417 0.38624 0.0
C1631 C 0.30316 0.32734 0.46832 0.0
C1632 C 0.32495 0.3649 0.41427 0.0
H1633 H 0.39187 0.37147 0.39186 0.0
C1634 C 0.3113 0.38645 0.40176 0.0
C1635 C 0.35418 0.35903 0.41033 0.0
C1636 C 0.36953 0.33523 0.42261 0.0
C1637 C 0.32643 0.40283 0.38574 0.0
C1638 C 0.35588 0.39747 0.38229 0.0
C1639 C 0.36928 0.3755 0.39449 0.0
C1640 C 0.37384 0.41531 0.36716 0.0
C1641 C 0.31078 0.42554 0.3725 0.0
C1642 C 0.38941 0.40279 0.34933 0.0
C1643 C 0.40986 0.41867 0.33741 0.0
C1644 C 0.41532 0.4472 0.34341 0.0
C1645 C 0.3987 0.46 0.36053 0.0
C1646 C 0.3782 0.4442 0.37231 0.0
H1647 H 0.28736 0.42164 0.37232 0.0
H1648 H 0.31458 0.44662 0.38056 0.0
H1649 H 0.31859 0.42659 0.3547 0.0
H1650 H 0.38647 0.38043 0.3452 0.0
H1651 H 0.4224 0.40818 0.32439 0.0
H1652 H 0.45044 0.4911 0.19478 0.0
H1653 H 0.41415 0.50567 0.16681 0.0
H1654 H 0.42003 0.59253 0.19083 0.0
H1655 H 0.4557 0.578 0.21881 0.0
H1656 H 0.36442 0.57662 0.17867 0.0
H1657 H 0.44399 0.55022 0.11141 0.0
H1658 H 0.43308 0.52177 0.12999 0.0
H1659 H 0.45341 0.55113 0.14111 0.0
C1660 C 0.44316 0.51306 0.19453 0.0
C1661 C 0.45588 0.53352 0.20876 0.0
C1662 C 0.42272 0.52142 0.17842 0.0
C1663 C 0.41488 0.55029 0.17644 0.0
C1664 C 0.42585 0.57017 0.19199 0.0
H1665 H 0.38228 0.67397 0.07917 0.0
H1666 H 0.4003 0.63568 0.10331 0.0
C1667 C 0.4462 0.56188 0.20797 0.0
C1668 C 0.39785 0.56092 0.15695 0.0
H1669 H 0.40375 0.57638 0.10042 0.0
C1670 C 0.37259 0.57605 0.16143 0.0
C1671 C 0.40884 0.56036 0.13454 0.0
C1672 C 0.43639 0.54519 0.12883 0.0
C1673 C 0.35888 0.59199 0.14441 0.0
C1674 C 0.37052 0.59235 0.1222 0.0
C1675 C 0.39485 0.57591 0.11743 0.0
C1676 C 0.3602 0.61273 0.10473 0.0
C1677 C 0.33327 0.60992 0.15075 0.0
C1678 C 0.332 0.61188 0.09667 0.0
C1679 C 0.32154 0.63389 0.08289 0.0
C1680 C 0.33921 0.65702 0.07687 0.0
C1681 C 0.36803 0.65661 0.08359 0.0
C1682 C 0.37839 0.63469 0.0974 0.0
H1683 H 0.32995 0.61088 0.16943 0.0
H1684 H 0.33569 0.63205 0.14425 0.0
H1685 H 0.3138 0.6006 0.14297 0.0
H1686 H 0.31778 0.59478 0.10174 0.0
H1687 H 0.29929 0.63342 0.07785 0.0
H1688 H 0.09993 0.53684 0.83378 0.0
H1689 H 0.13722 0.55277 0.86015 0.0
H1690 H 0.10228 0.63798 0.85885 0.0
H1691 H 0.06539 0.62247 0.83232 0.0
H1692 H 0.16152 0.63722 0.85773 0.0
H1693 H 0.11955 0.56843 0.92724 0.0
H1694 H 0.12948 0.55052 0.90141 0.0
H1695 H 0.0998 0.57484 0.90141 0.0
C1696 C 0.10046 0.55908 0.83883 0.0
C1697 C 0.07949 0.57833 0.83107 0.0
C1698 C 0.12165 0.56808 0.85406 0.0
C1699 C 0.12217 0.59642 0.86185 0.0
C1700 C 0.1022 0.61596 0.85318 0.0
H1701 H 0.16839 0.69165 0.97566 0.0
H1702 H 0.1488 0.65641 0.94926 0.0
C1703 C 0.08109 0.60704 0.83798 0.0
C1704 C 0.14253 0.60586 0.87972 0.0
H1705 H 0.15727 0.5994 0.93638 0.0
C1706 C 0.16099 0.62866 0.87485 0.0
C1707 C 0.14156 0.59478 0.90209 0.0
C1708 C 0.12143 0.57094 0.90853 0.0
C1709 C 0.17762 0.64147 0.89189 0.0
C1710 C 0.17621 0.6308 0.91439 0.0
C1711 C 0.15859 0.60727 0.91908 0.0
C1712 C 0.18947 0.64647 0.93365 0.0
C1713 C 0.19517 0.66748 0.88593 0.0
C1714 C 0.21911 0.65126 0.93463 0.0
C1715 C 0.23035 0.67136 0.94987 0.0
C1716 C 0.21208 0.68664 0.96437 0.0
C1717 C 0.18289 0.67979 0.96484 0.0
C1718 C 0.1717 0.65979 0.94966 0.0
H1719 H 0.19006 0.67581 0.86873 0.0
H1720 H 0.19157 0.68482 0.89848 0.0
H1721 H 0.21818 0.66182 0.88628 0.0
H1722 H 0.23327 0.64087 0.92265 0.0
H1723 H 0.25285 0.67665 0.94899 0.0
H1724 H 0.19105 0.3486 0.57721 0.0
H1725 H 0.16242 0.38733 0.59362 0.0
H1726 H 0.20383 0.37465 0.65832 0.0
H1727 H 0.23279 0.33665 0.64205 0.0
H1728 H 0.12476 0.38037 0.6276 0.0
H1729 H 0.2048 0.46047 0.65429 0.0
H1730 H 0.21318 0.43189 0.63478 0.0
H1731 H 0.2131 0.42558 0.66496 0.0
C1732 C 0.1944 0.35445 0.59481 0.0
C1733 C 0.21412 0.33951 0.60833 0.0
C1734 C 0.17808 0.37659 0.60416 0.0
C1735 C 0.18133 0.38423 0.62711 0.0
C1736 C 0.20149 0.36974 0.64043 0.0
H1737 H 0.07553 0.45849 0.72958 0.0
H1738 H 0.11627 0.43932 0.70806 0.0
C1739 C 0.21784 0.34776 0.63112 0.0
C1740 C 0.16148 0.40485 0.63791 0.0
H1741 H 0.15865 0.46344 0.67255 0.0
C1742 C 0.13215 0.39882 0.63707 0.0
C1743 C 0.17118 0.42882 0.65041 0.0
C1744 C 0.20228 0.43724 0.65099 0.0
C1745 C 0.11235 0.4154 0.64909 0.0
C1746 C 0.12212 0.43885 0.6621 0.0
C1747 C 0.15134 0.44536 0.6626 0.0
C1748 C 0.10193 0.45602 0.67573 0.0
C1749 C 0.08116 0.40714 0.64844 0.0
C1750 C 0.08138 0.47289 0.66479 0.0
C1751 C 0.05824 0.4837 0.67698 0.0
C1752 C 0.05544 0.47795 0.70031 0.0
C1753 C 0.0774 0.46333 0.71165 0.0
C1754 C 0.10055 0.45235 0.69938 0.0
H1755 H 0.07784 0.38567 0.64085 0.0
H1756 H 0.07192 0.40725 0.66582 0.0
H1757 H 0.0692 0.42294 0.63809 0.0
H1758 H 0.08224 0.47606 0.64657 0.0
H1759 H 0.04154 0.49501 0.66793 0.0
H1760 H 0.27342 0.70998 0.57803 0.0
H1761 H 0.2949 0.67708 0.60533 0.0
H1762 H 0.33782 0.63328 0.55062 0.0
H1763 H 0.3168 0.66693 0.52323 0.0
H1764 H 0.30075 0.61971 0.61432 0.0
H1765 H 0.40364 0.66769 0.58646 0.0
H1766 H 0.36956 0.68118 0.57709 0.0
H1767 H 0.3842 0.64932 0.56461 0.0
C1768 C 0.28655 0.69261 0.57177 0.0
C1769 C 0.29355 0.69094 0.5486 0.0
C1770 C 0.29892 0.67388 0.58738 0.0
C1771 C 0.31857 0.65318 0.58011 0.0
C1772 C 0.32318 0.6495 0.55666 0.0
H1773 H 0.41221 0.54341 0.67562 0.0
H1774 H 0.37728 0.5608 0.64803 0.0
C1775 C 0.31087 0.66842 0.54098 0.0
C1776 C 0.33678 0.63857 0.59726 0.0
H1777 H 0.40561 0.63472 0.61633 0.0
C1778 C 0.32372 0.62272 0.61468 0.0
C1779 C 0.3667 0.64312 0.59801 0.0
C1780 C 0.38192 0.66144 0.5807 0.0
C1781 C 0.33971 0.61153 0.63289 0.0
C1782 C 0.36963 0.61592 0.63349 0.0
C1783 C 0.38268 0.63137 0.61589 0.0
C1784 C 0.38804 0.60542 0.65235 0.0
C1785 C 0.32428 0.59606 0.65172 0.0
C1786 C 0.40564 0.62467 0.66417 0.0
C1787 C 0.42588 0.61477 0.67978 0.0
C1788 C 0.42895 0.58537 0.68394 0.0
C1789 C 0.41028 0.56622 0.67298 0.0
C1790 C 0.39018 0.57614 0.65721 0.0
H1791 H 0.3011 0.60123 0.6519 0.0
H1792 H 0.3265 0.57269 0.64913 0.0
H1793 H 0.33349 0.6015 0.66855 0.0
H1794 H 0.40438 0.64737 0.66075 0.0
H1795 H 0.43988 0.63009 0.6879 0.0
H1796 H 0.13429 0.67287 0.42634 0.0
H1797 H 0.11432 0.63492 0.40283 0.0
H1798 H 0.19784 0.59686 0.3963 0.0
H1799 H 0.21814 0.63498 0.41968 0.0
H1800 H 0.17261 0.60688 0.35521 0.0
H1801 H 0.09661 0.55068 0.41132 0.0
H1802 H 0.09145 0.58861 0.41243 0.0
H1803 H 0.12461 0.57344 0.42223 0.0
C1804 C 0.14834 0.65608 0.42038 0.0
C1805 C 0.17784 0.65708 0.42479 0.0
C1806 C 0.13684 0.63426 0.40704 0.0
C1807 C 0.15455 0.61289 0.39797 0.0
C1808 C 0.18379 0.61306 0.40322 0.0
H1809 H 0.05774 0.49529 0.31076 0.0
H1810 H 0.09631 0.50917 0.33692 0.0
C1811 C 0.19532 0.63486 0.41663 0.0
C1812 C 0.14296 0.59271 0.38089 0.0
H1813 H 0.08641 0.54855 0.3709 0.0
C1814 C 0.15417 0.59358 0.35876 0.0
C1815 C 0.11925 0.57496 0.38555 0.0
C1816 C 0.10749 0.57161 0.40925 0.0
C1817 C 0.14085 0.57899 0.34083 0.0
C1818 C 0.11551 0.56348 0.34512 0.0
C1819 C 0.10569 0.5607 0.36756 0.0
C1820 C 0.09671 0.55349 0.32649 0.0
C1821 C 0.15343 0.58117 0.31731 0.0
C1822 C 0.08474 0.57363 0.3116 0.0
C1823 C 0.06284 0.56578 0.29681 0.0
C1824 C 0.05251 0.53765 0.29661 0.0
C1825 C 0.06568 0.51702 0.31042 0.0
C1826 C 0.08752 0.52496 0.32542 0.0
H1827 H 0.17692 0.58454 0.31805 0.0
H1828 H 0.14897 0.56169 0.30715 0.0
H1829 H 0.1439 0.5998 0.30844 0.0
H1830 H 0.09102 0.59587 0.31245 0.0
H1831 H 0.05281 0.58206 0.28643 0.0
H1832 H 0.07326 0.3984 0.17951 0.0
H1833 H 0.10593 0.37635 0.15237 0.0
H1834 H 0.1591 0.45151 0.15377 0.0
H1835 H 0.12634 0.47394 0.1808 0.0
H1836 H 0.14383 0.43602 0.11046 0.0
H1837 H 0.18555 0.34197 0.1566 0.0
H1838 H 0.14729 0.34394 0.15769 0.0
H1839 H 0.16837 0.37146 0.17092 0.0
C1840 C 0.09226 0.41002 0.17452 0.0
C1841 C 0.09709 0.438 0.18233 0.0
C1842 C 0.11101 0.39731 0.15903 0.0
C1843 C 0.13511 0.41218 0.15114 0.0
C1844 C 0.1407 0.43961 0.15967 0.0
H1845 H 0.24104 0.31561 0.055 0.0
H1846 H 0.23038 0.35073 0.08487 0.0
C1847 C 0.12197 0.45234 0.17521 0.0
C1848 C 0.15262 0.40018 0.13236 0.0
H1849 H 0.18782 0.33988 0.11569 0.0
C1850 C 0.15393 0.41522 0.11173 0.0
C1851 C 0.16619 0.37327 0.13406 0.0
C1852 C 0.16706 0.35686 0.1561 0.0
C1853 C 0.16685 0.40328 0.09239 0.0
C1854 C 0.17847 0.37544 0.09364 0.0
C1855 C 0.17876 0.36117 0.11464 0.0
C1856 C 0.18743 0.35937 0.07307 0.0
C1857 C 0.16738 0.42034 0.07066 0.0
C1858 C 0.16724 0.35335 0.05608 0.0
C1859 C 0.17335 0.33349 0.03906 0.0
C1860 C 0.19978 0.3193 0.03869 0.0
C1861 C 0.22077 0.32677 0.05467 0.0
C1862 C 0.21457 0.34658 0.07184 0.0
H1863 H 0.16703 0.44365 0.07419 0.0
H1864 H 0.18658 0.41528 0.06034 0.0
H1865 H 0.1481 0.41515 0.06049 0.0
H1866 H 0.14596 0.3624 0.05692 0.0
H1867 H 0.15667 0.3276 0.02719 0.0
H1868 H 0.43617 0.45741 0.77667 0.0
H1869 H 0.39501 0.43885 0.79789 0.0
H1870 H 0.43692 0.45991 0.86099 0.0
H1871 H 0.4781 0.47804 0.83987 0.0
H1872 H 0.42291 0.40338 0.85744 0.0
H1873 H 0.32906 0.47051 0.83602 0.0
H1874 H 0.34873 0.4582 0.81172 0.0
H1875 H 0.36539 0.48227 0.83149 0.0
C1876 C 0.43609 0.45892 0.79504 0.0
C1877 C 0.46026 0.46895 0.80669 0.0
C1878 C 0.41258 0.44838 0.80715 0.0
C1879 C 0.41286 0.44811 0.83104 0.0
C1880 C 0.43624 0.45995 0.84259 0.0
H1881 H 0.31223 0.34773 0.92827 0.0
H1882 H 0.34422 0.38386 0.9121 0.0
C1883 C 0.45972 0.47028 0.83053 0.0
C1884 C 0.39103 0.43187 0.84392 0.0
H1885 H 0.31936 0.42536 0.85347 0.0
C1886 C 0.40029 0.40843 0.85684 0.0
C1887 C 0.36156 0.43838 0.84295 0.0
C1888 C 0.35055 0.46387 0.82996 0.0
C1889 C 0.38086 0.39073 0.86823 0.0
C1890 C 0.35133 0.39699 0.86706 0.0
C1891 C 0.34204 0.42072 0.85444 0.0
C1892 C 0.32977 0.37785 0.87748 0.0
C1893 C 0.39208 0.36476 0.88057 0.0
C1894 C 0.31025 0.36343 0.86354 0.0
C1895 C 0.29186 0.34301 0.87273 0.0
C1896 C 0.29263 0.3366 0.89607 0.0
C1897 C 0.31131 0.35199 0.9102 0.0
C1898 C 0.32966 0.37256 0.90098 0.0
H1899 H 0.41436 0.35955 0.87555 0.0
H1900 H 0.39189 0.36892 0.89912 0.0
H1901 H 0.37842 0.34583 0.8772 0.0
H1902 H 0.30993 0.36724 0.84539 0.0
H1903 H 0.27762 0.33168 0.86137 0.0
H1904 H 0.18327 0.85873 0.08978 0.0
H1905 H 0.16645 0.90685 0.09806 0.0
H1906 H 0.24021 0.94246 0.06458 0.0
H1907 H 0.25746 0.89399 0.05606 0.0
H1908 H 0.21178 0.95381 0.12171 0.0
H1909 H 0.15509 0.97885 0.04102 0.0
H1910 H 0.15629 0.94195 0.04974 0.0
H1911 H 0.18868 0.95975 0.04172 0.0
C1912 C 0.19583 0.87671 0.08392 0.0
C1913 C 0.22172 0.87261 0.07235 0.0
C1914 C 0.18624 0.90414 0.08873 0.0
C1915 C 0.20233 0.92792 0.0821 0.0
C1916 C 0.2277 0.92417 0.06987 0.0
H1917 H 0.08301 0.06334 0.10822 0.0
H1918 H 0.13136 0.04886 0.09791 0.0
C1919 C 0.23734 0.89656 0.06492 0.0
C1920 C 0.19202 0.95633 0.08872 0.0
H1921 H 0.1377 0.00102 0.07466 0.0
C1922 C 0.19634 0.96502 0.11125 0.0
C1923 C 0.17239 0.97103 0.07486 0.0
C1924 C 0.16782 0.96265 0.0504 0.0
C1925 C 0.17891 0.98597 0.12108 0.0
C1926 C 0.15645 0.99779 0.10808 0.0
C1927 C 0.15474 0.99173 0.08474 0.0
C1928 C 0.13118 0.01093 0.11889 0.0
C1929 C 0.18338 0.9937 0.14568 0.0
C1930 C 0.11539 0.99491 0.1347 0.0
C1931 C 0.08773 0.00311 0.14061 0.0
C1932 C 0.07531 0.02722 0.13053 0.0
C1933 C 0.09189 0.0444 0.11603 0.0
C1934 C 0.11962 0.0363 0.11022 0.0
H1935 H 0.20648 0.99326 0.15002 0.0
H1936 H 0.17466 0.01519 0.14966 0.0
H1937 H 0.17254 0.97769 0.15658 0.0
H1938 H 0.12354 0.97485 0.14118 0.0
H1939 H 0.07551 0.98953 0.1519 0.0
H1940 H 0.3945 0.0516 0.38324 0.0
H1941 H 0.34513 0.04611 0.39595 0.0
H1942 H 0.37586 0.00837 0.45846 0.0
H1943 H 0.42438 0.01735 0.447 0.0
H1944 H 0.32364 0.00144 0.39573 0.0
H1945 H 0.30325 0.02778 0.48312 0.0
H1946 H 0.33248 0.04506 0.46857 0.0
H1947 H 0.33834 0.01323 0.48556 0.0
C1948 C 0.39045 0.04338 0.40013 0.0
C1949 C 0.41311 0.03442 0.41401 0.0
C1950 C 0.36222 0.04023 0.40745 0.0
C1951 C 0.3562 0.02635 0.42814 0.0
C1952 C 0.37916 0.01982 0.44274 0.0
H1953 H 0.32486 0.86802 0.42759 0.0
H1954 H 0.33181 0.91935 0.42456 0.0
C1955 C 0.40727 0.02441 0.43593 0.0
C1956 C 0.32838 0.01141 0.43154 0.0
H1957 H 0.29803 0.97242 0.47407 0.0
C1958 C 0.31715 0.99626 0.41291 0.0
C1959 C 0.31773 0.00507 0.45352 0.0
C1960 C 0.32345 0.02408 0.47367 0.0
C1961 C 0.30097 0.97154 0.4162 0.0
C1962 C 0.2969 0.96133 0.43851 0.0
C1963 C 0.30281 0.97939 0.45692 0.0
C1964 C 0.29297 0.93046 0.44256 0.0
C1965 C 0.29111 0.95491 0.39569 0.0
C1966 C 0.26979 0.91973 0.45499 0.0
C1967 C 0.26604 0.89015 0.45709 0.0
C1968 C 0.28544 0.87116 0.44675 0.0
C1969 C 0.30939 0.88211 0.43545 0.0
C1970 C 0.31323 0.91145 0.43357 0.0
H1971 H 0.28497 0.96963 0.38171 0.0
H1972 H 0.30894 0.94141 0.3894 0.0
H1973 H 0.27264 0.94094 0.39979 0.0
H1974 H 0.25421 0.93412 0.46235 0.0
H1975 H 0.24734 0.88221 0.4659 0.0
H1976 H 0.24879 0.11818 0.54917 0.0
H1977 H 0.24255 0.06964 0.56399 0.0
H1978 H 0.32818 0.0721 0.5911 0.0
H1979 H 0.33442 0.12028 0.57646 0.0
H1980 H 0.30791 0.01536 0.578 0.0
H1981 H 0.23205 0.07465 0.63386 0.0
H1982 H 0.22649 0.07242 0.60364 0.0
H1983 H 0.25446 0.09466 0.61473 0.0
C1984 C 0.26673 0.10777 0.55733 0.0
C1985 C 0.29197 0.12301 0.56206 0.0
C1986 C 0.26304 0.08011 0.56589 0.0
C1987 C 0.28468 0.06757 0.579 0.0
C1988 C 0.31117 0.08143 0.58103 0.0
H1989 H 0.36566 0.05296 0.67739 0.0
H1990 H 0.3249 0.05724 0.65189 0.0
C1991 C 0.31475 0.10901 0.57273 0.0
C1992 C 0.27882 0.04385 0.59488 0.0
H1993 H 0.26289 0.04165 0.65127 0.0
C1994 C 0.29679 0.01993 0.59376 0.0
C1995 C 0.26374 0.04954 0.61525 0.0
C1996 C 0.24298 0.07412 0.61711 0.0
C1997 C 0.30444 0.00515 0.61357 0.0
C1998 C 0.29368 0.01476 0.63469 0.0
C1999 C 0.27143 0.03477 0.63504 0.0
C2000 C 0.31202 0.01296 0.65503 0.0
C2001 C 0.32739 0.98256 0.61222 0.0
C2002 C 0.31721 0.98706 0.66623 0.0
C2003 C 0.34045 0.98471 0.6811 0.0
C2004 C 0.35879 0.00816 0.68453 0.0
C2005 C 0.35185 0.03463 0.67497 0.0
C2006 C 0.32853 0.03705 0.66045 0.0
H2007 H 0.33194 0.97613 0.59441 0.0
H2008 H 0.34744 0.99079 0.61991 0.0
H2009 H 0.32078 0.96335 0.62191 0.0
H2010 H 0.30464 0.96829 0.66226 0.0
H2011 H 0.34552 0.96397 0.68819 0.0
H2012 H 0.17025 0.11554 0.93072 0.0
H2013 H 0.17682 0.06874 0.91359 0.0
H2014 H 0.26579 0.06963 0.93286 0.0
H2015 H 0.25894 0.11633 0.95078 0.0
H2016 H 0.25716 0.0718 0.88667 0.0
H2017 H 0.1928 0.98359 0.92026 0.0
H2018 H 0.17287 0.01605 0.92334 0.0
H2019 H 0.20634 0.01194 0.93824 0.0
C2020 C 0.19076 0.10501 0.93246 0.0
C2021 C 0.21408 0.11949 0.94187 0.0
C2022 C 0.19455 0.07812 0.92279 0.0
C2023 C 0.22184 0.06558 0.922 0.0
C2024 C 0.24452 0.07873 0.93355 0.0
H2025 H 0.15373 0.9779 0.81077 0.0
H2026 H 0.19715 0.97836 0.834 0.0
C2027 C 0.24054 0.10541 0.94376 0.0
C2028 C 0.2273 0.04422 0.90402 0.0
H2029 H 0.18695 0.99336 0.87839 0.0
C2030 C 0.24295 0.05361 0.88506 0.0
C2031 C 0.20981 0.01983 0.90195 0.0
C2032 C 0.1948 0.00711 0.9222 0.0
C2033 C 0.23661 0.04323 0.86331 0.0
C2034 C 0.21432 0.0232 0.8608 0.0
C2035 C 0.20346 0.00947 0.8802 0.0
C2036 C 0.19563 0.02378 0.84056 0.0
C2037 C 0.25103 0.05651 0.84302 0.0
C2038 C 0.18111 0.04937 0.83574 0.0
C2039 C 0.15604 0.04905 0.823 0.0
C2040 C 0.14538 0.02323 0.81455 0.0
C2041 C 0.16169 0.99816 0.81699 0.0
C2042 C 0.18652 0.99836 0.83023 0.0
H2043 H 0.27383 0.0611 0.84683 0.0
H2044 H 0.24973 0.0424 0.82788 0.0
H2045 H 0.2405 0.07715 0.83897 0.0
H2046 H 0.1873 0.06916 0.84391 0.0
H2047 H 0.14374 0.06857 0.8214 0.0
H2048 H 0.9438 0.06271 0.80891 0.0
H2049 H 0.92103 0.10311 0.82801 0.0
H2050 H 0.00373 0.13533 0.84759 0.0
H2051 H 0.02674 0.09504 0.82816 0.0
H2052 H 0.96316 0.12247 0.88435 0.0
H2053 H 0.91622 0.19162 0.8175 0.0
H2054 H 0.9107 0.15399 0.81327 0.0
H2055 H 0.94631 0.16826 0.81229 0.0
C2056 C 0.95717 0.07898 0.81655 0.0
C2057 C 0.98701 0.07584 0.81695 0.0
C2058 C 0.94414 0.10204 0.82746 0.0
C2059 C 0.96071 0.12223 0.83914 0.0
C2060 C 0.99062 0.12007 0.8385 0.0
H2061 H 0.86663 0.25423 0.91499 0.0
H2062 H 0.90685 0.23142 0.89532 0.0
C2063 C 0.00372 0.09718 0.82725 0.0
C2064 C 0.94646 0.14296 0.85439 0.0
H2065 H 0.89612 0.1957 0.85484 0.0
C2066 C 0.94897 0.13894 0.87795 0.0
C2067 C 0.92803 0.16439 0.84598 0.0
C2068 C 0.92525 0.17008 0.82087 0.0
C2069 C 0.93219 0.15466 0.89327 0.0
C2070 C 0.91247 0.17486 0.88477 0.0
C2071 C 0.91124 0.18013 0.86131 0.0
C2072 C 0.89079 0.18846 0.89957 0.0
C2073 C 0.93492 0.14889 0.91838 0.0
C2074 C 0.8688 0.17177 0.90882 0.0
C2075 C 0.84576 0.18469 0.91986 0.0
C2076 C 0.84437 0.21455 0.92198 0.0
C2077 C 0.86725 0.23115 0.91385 0.0
C2078 C 0.89015 0.2182 0.9025 0.0
H2079 H 0.9556 0.13846 0.92255 0.0
H2080 H 0.93304 0.169 0.92828 0.0
H2081 H 0.91743 0.13441 0.92378 0.0
H2082 H 0.86872 0.14881 0.9065 0.0
H2083 H 0.82842 0.17135 0.92588 0.0
H2084 H 0.63983 0.2407 0.59025 0.0
H2085 H 0.60046 0.21558 0.60934 0.0
H2086 H 0.65496 0.14256 0.61978 0.0
H2087 H 0.69416 0.16711 0.60075 0.0
H2088 H 0.57961 0.14923 0.60012 0.0
H2089 H 0.62328 0.17836 0.68492 0.0
H2090 H 0.62915 0.20001 0.65991 0.0
H2091 H 0.64849 0.16725 0.66355 0.0
C2092 C 0.64327 0.21909 0.59623 0.0
C2093 C 0.67024 0.206 0.5941 0.0
C2094 C 0.62079 0.20485 0.60718 0.0
C2095 C 0.62502 0.17741 0.61613 0.0
C2096 C 0.65142 0.16383 0.61309 0.0
H2097 H 0.56236 0.04299 0.69437 0.0
H2098 H 0.58743 0.08287 0.67681 0.0
C2099 C 0.67378 0.17793 0.60216 0.0
C2100 C 0.60266 0.16306 0.62971 0.0
H2101 H 0.58806 0.14195 0.68397 0.0
C2102 C 0.58093 0.14807 0.61849 0.0
C2103 C 0.6047 0.16161 0.65363 0.0
C2104 C 0.62752 0.17777 0.66636 0.0
C2105 C 0.5621 0.13022 0.63054 0.0
C2106 C 0.56491 0.12779 0.65444 0.0
C2107 C 0.58583 0.14395 0.6657 0.0
C2108 C 0.54904 0.10586 0.66756 0.0
C2109 C 0.54058 0.11272 0.61746 0.0
C2110 C 0.51908 0.10608 0.66906 0.0
C2111 C 0.50457 0.08318 0.6792 0.0
C2112 C 0.51987 0.05974 0.68793 0.0
C2113 C 0.5499 0.06058 0.68766 0.0
C2114 C 0.56431 0.0834 0.67763 0.0
H2115 H 0.54427 0.11368 0.59884 0.0
H2116 H 0.54135 0.09003 0.62292 0.0
H2117 H 0.51878 0.12094 0.62095 0.0
H2118 H 0.50691 0.12348 0.66176 0.0
H2119 H 0.48143 0.08316 0.67912 0.0
H2120 H 0.64029 0.75355 0.4222 0.0
H2121 H 0.59914 0.78261 0.41056 0.0
H2122 H 0.64831 0.85925 0.42156 0.0
H2123 H 0.68916 0.8306 0.4334 0.0
H2124 H 0.58963 0.86374 0.43481 0.0
H2125 H 0.60444 0.82104 0.34719 0.0
H2126 H 0.59862 0.79546 0.3695 0.0
H2127 H 0.6309 0.81614 0.36913 0.0
C2128 C 0.64208 0.7766 0.42266 0.0
C2129 C 0.66811 0.78979 0.42837 0.0
C2130 C 0.61861 0.79315 0.41589 0.0
C2131 C 0.62089 0.82303 0.41483 0.0
C2132 C 0.64614 0.83621 0.42216 0.0
H2133 H 0.56449 0.95717 0.33217 0.0
H2134 H 0.58722 0.91829 0.35301 0.0
C2135 C 0.66953 0.81977 0.42883 0.0
C2136 C 0.59851 0.84075 0.40395 0.0
H2137 H 0.57199 0.85861 0.3518 0.0
C2138 C 0.58527 0.86232 0.41674 0.0
C2139 C 0.59321 0.83899 0.38031 0.0
C2140 C 0.6076 0.81683 0.36559 0.0
C2141 C 0.56768 0.88286 0.40636 0.0
C2142 C 0.56316 0.88161 0.38264 0.0
C2143 C 0.57544 0.85936 0.37002 0.0
C2144 C 0.5486 0.9049 0.37016 0.0
C2145 C 0.55527 0.90662 0.42057 0.0
C2146 C 0.51924 0.91007 0.37274 0.0
C2147 C 0.50609 0.93229 0.36069 0.0
C2148 C 0.52219 0.94977 0.34608 0.0
C2149 C 0.55149 0.94419 0.34334 0.0
C2150 C 0.56454 0.92199 0.35526 0.0
H2151 H 0.56387 0.9067 0.43816 0.0
H2152 H 0.55972 0.92766 0.41262 0.0
H2153 H 0.53174 0.90399 0.42148 0.0
H2154 H 0.50651 0.89683 0.38392 0.0
H2155 H 0.48336 0.93579 0.36278 0.0
H2156 H 0.00306 0.92365 0.17633 0.0
H2157 H 0.9886 0.87621 0.1623 0.0
H2158 H 0.90474 0.90903 0.14689 0.0
H2159 H 0.91891 0.95612 0.16053 0.0
H2160 H 0.913 0.84875 0.17163 0.0
H2161 H 0.96781 0.86826 0.08896 0.0
H2162 H 0.98497 0.87676 0.1156 0.0
H2163 H 0.95556 0.89799 0.10588 0.0
C2164 C 0.98139 0.92051 0.17038 0.0
C2165 C 0.96213 0.94356 0.16938 0.0
C2166 C 0.97324 0.89352 0.16231 0.0
C2167 C 0.9457 0.88933 0.15349 0.0
C2168 C 0.9261 0.91194 0.15363 0.0
H2169 H 0.82963 0.81233 0.07255 0.0
H2170 H 0.86929 0.83852 0.08958 0.0
C2171 C 0.93425 0.93882 0.1614 0.0
C2172 C 0.93722 0.86226 0.14254 0.0
H2173 H 0.93264 0.83223 0.08984 0.0
C2174 C 0.91799 0.8444 0.15397 0.0
C2175 C 0.94367 0.85702 0.11947 0.0
C2176 C 0.96415 0.8759 0.10659 0.0
C2177 C 0.90347 0.82253 0.14245 0.0
C2178 C 0.90844 0.81855 0.11893 0.0
C2179 C 0.92911 0.83521 0.10789 0.0
C2180 C 0.88863 0.80128 0.10499 0.0
C2181 C 0.88115 0.80541 0.15499 0.0
C2182 C 0.8872 0.77145 0.10712 0.0
C2183 C 0.86459 0.75633 0.09717 0.0
C2184 C 0.84306 0.77099 0.08524 0.0
C2185 C 0.84586 0.80052 0.08173 0.0
C2186 C 0.86852 0.8155 0.09143 0.0
H2187 H 0.87858 0.81251 0.17289 0.0
H2188 H 0.86019 0.80725 0.14627 0.0
H2189 H 0.8873 0.78252 0.15502 0.0
H2190 H 0.90266 0.76013 0.11744 0.0
H2191 H 0.86284 0.73359 0.10027 0.0
H2192 H 0.62678 0.55021 0.6191 0.0
H2193 H 0.67329 0.53006 0.6139 0.0
H2194 H 0.68062 0.51626 0.68621 0.0
H2195 H 0.63125 0.53271 0.69102 0.0
H2196 H 0.7237 0.51985 0.62002 0.0
H2197 H 0.67198 0.43659 0.67453 0.0
H2198 H 0.65311 0.46917 0.66935 0.0
H2199 H 0.68435 0.46874 0.68752 0.0
C2200 C 0.63831 0.54347 0.6341 0.0
C2201 C 0.62456 0.54096 0.65519 0.0
C2202 C 0.66544 0.53204 0.63114 0.0
C2203 C 0.67963 0.51891 0.64944 0.0
C2204 C 0.66896 0.52362 0.67148 0.0
H2205 H 0.75962 0.3748 0.57634 0.0
H2206 H 0.76172 0.42008 0.59715 0.0
C2207 C 0.64092 0.53356 0.67432 0.0
C2208 C 0.69947 0.49485 0.644 0.0
H2209 H 0.69682 0.42196 0.64344 0.0
C2210 C 0.71822 0.4984 0.62544 0.0
C2211 C 0.69357 0.46659 0.65164 0.0
C2212 C 0.67472 0.45991 0.67182 0.0
C2213 C 0.72598 0.47515 0.61162 0.0
C2214 C 0.71643 0.44759 0.61761 0.0
C2215 C 0.70283 0.44348 0.63851 0.0
C2216 C 0.7159 0.42336 0.60147 0.0
C2217 C 0.74176 0.48058 0.58971 0.0
C2218 C 0.68943 0.4105 0.59654 0.0
C2219 C 0.68827 0.38431 0.58538 0.0
C2220 C 0.7135 0.37103 0.57828 0.0
C2221 C 0.73982 0.38503 0.58135 0.0
C2222 C 0.74108 0.41089 0.59322 0.0
H2223 H 0.74419 0.50374 0.58611 0.0
H2224 H 0.76338 0.47096 0.59076 0.0
H2225 H 0.73038 0.47044 0.57525 0.0
H2226 H 0.66969 0.41991 0.60262 0.0
H2227 H 0.66784 0.37373 0.58335 0.0
H2228 H 0.74983 0.38314 0.95344 0.0
H2229 H 0.74565 0.43033 0.93564 0.0
H2230 H 0.82974 0.42011 0.90669 0.0
H2231 H 0.83403 0.37335 0.92437 0.0
H2232 H 0.81501 0.478 0.91835 0.0
H2233 H 0.73135 0.42352 0.8665 0.0
H2234 H 0.72725 0.42723 0.89677 0.0
H2235 H 0.75332 0.40289 0.88557 0.0
C2236 C 0.76789 0.39156 0.94407 0.0
C2237 C 0.79215 0.37452 0.93995 0.0
C2238 C 0.76534 0.41841 0.93379 0.0
C2239 C 0.78713 0.4284 0.91951 0.0
C2240 C 0.81263 0.41275 0.91762 0.0
H2241 H 0.8574 0.44309 0.8119 0.0
H2242 H 0.81811 0.43865 0.83869 0.0
C2243 C 0.81508 0.38599 0.92769 0.0
C2244 C 0.78246 0.45191 0.90317 0.0
H2245 H 0.76082 0.45657 0.84803 0.0
C2246 C 0.80218 0.47442 0.90326 0.0
C2247 C 0.76527 0.44735 0.88371 0.0
C2248 C 0.74303 0.42401 0.88294 0.0
C2249 C 0.80878 0.48914 0.8832 0.0
C2250 C 0.79483 0.48119 0.86277 0.0
C2251 C 0.77162 0.4623 0.86369 0.0
C2252 C 0.80996 0.48414 0.84086 0.0
C2253 C 0.83345 0.50995 0.88341 0.0
C2254 C 0.81669 0.51095 0.83169 0.0
C2255 C 0.83921 0.51347 0.81617 0.0
C2256 C 0.85515 0.48919 0.80993 0.0
C2257 C 0.8456 0.46211 0.81662 0.0
C2258 C 0.8231 0.45961 0.83193 0.0
H2259 H 0.84189 0.51368 0.90081 0.0
H2260 H 0.85116 0.50174 0.87267 0.0
H2261 H 0.82648 0.53077 0.87632 0.0
H2262 H 0.80648 0.53007 0.83811 0.0
H2263 H 0.84609 0.53465 0.81121 0.0
H2264 H 0.88912 0.51024 0.18608 0.0
H2265 H 0.83901 0.5206 0.18103 0.0
H2266 H 0.82462 0.43479 0.15668 0.0
H2267 H 0.87542 0.42443 0.1618 0.0
H2268 H 0.81818 0.47014 0.12379 0.0
H2269 H 0.75607 0.51656 0.19265 0.0
H2270 H 0.79144 0.53011 0.19651 0.0
H2271 H 0.78511 0.49205 0.19836 0.0
C2272 C 0.87513 0.49307 0.18076 0.0
C2273 C 0.8863 0.467 0.17313 0.0
C2274 C 0.84612 0.49891 0.17811 0.0
C2275 C 0.8279 0.47864 0.168 0.0
C2276 C 0.83825 0.45089 0.16423 0.0
H2277 H 0.74624 0.597 0.07336 0.0
H2278 H 0.74372 0.55023 0.09229 0.0
C2279 C 0.86735 0.44509 0.16689 0.0
C2280 C 0.80305 0.48941 0.1549 0.0
H2281 H 0.76141 0.54886 0.15724 0.0
C2282 C 0.80446 0.48635 0.13114 0.0
C2283 C 0.78433 0.50999 0.1642 0.0
C2284 C 0.77901 0.51202 0.18939 0.0
C2285 C 0.79265 0.50707 0.11677 0.0
C2286 C 0.77896 0.53091 0.12653 0.0
C2287 C 0.77273 0.53089 0.14986 0.0
C2288 C 0.77935 0.55862 0.11469 0.0
C2289 C 0.79859 0.50562 0.09161 0.0
C2290 C 0.80063 0.57827 0.12073 0.0
C2291 C 0.80231 0.60463 0.10996 0.0
C2292 C 0.78273 0.61189 0.09286 0.0
C2293 C 0.76184 0.59184 0.08632 0.0
C2294 C 0.76014 0.5653 0.09723 0.0
H2295 H 0.80707 0.48443 0.08643 0.0
H2296 H 0.77874 0.50999 0.08189 0.0
H2297 H 0.8145 0.52222 0.08697 0.0
H2298 H 0.81594 0.57321 0.13396 0.0
H2299 H 0.81863 0.61957 0.11538 0.0
H2300 H 0.63472 0.42769 0.33098 0.0
H2301 H 0.68127 0.44402 0.34453 0.0
H2302 H 0.66468 0.52745 0.3164 0.0
H2303 H 0.61919 0.51097 0.30179 0.0
H2304 H 0.72143 0.51961 0.32288 0.0
H2305 H 0.66244 0.48714 0.40134 0.0
H2306 H 0.6739 0.45991 0.38198 0.0
H2307 H 0.64573 0.48405 0.37392 0.0
C2308 C 0.64161 0.4491 0.32666 0.0
C2309 C 0.62262 0.46861 0.31645 0.0
C2310 C 0.66819 0.45846 0.33463 0.0
C2311 C 0.6756 0.48741 0.33273 0.0
C2312 C 0.65911 0.50516 0.31865 0.0
H2313 H 0.69098 0.64009 0.3825 0.0
H2314 H 0.69309 0.59464 0.3627 0.0
C2315 C 0.63289 0.49572 0.31035 0.0
C2316 C 0.69516 0.50133 0.34919 0.0
H2317 H 0.69197 0.52633 0.40364 0.0
C2318 C 0.71581 0.52033 0.34075 0.0
C2319 C 0.68821 0.50208 0.37269 0.0
C2320 C 0.66635 0.48231 0.38313 0.0
C2321 C 0.72664 0.5424 0.35438 0.0
C2322 C 0.71649 0.54541 0.37685 0.0
C2323 C 0.6993 0.52405 0.38625 0.0
C2324 C 0.71761 0.57314 0.38877 0.0
C2325 C 0.74696 0.56375 0.34407 0.0
C2326 C 0.72962 0.57575 0.41051 0.0
C2327 C 0.72829 0.60188 0.42207 0.0
C2328 C 0.71448 0.62552 0.41217 0.0
C2329 C 0.70179 0.6224 0.39067 0.0
C2330 C 0.70338 0.59652 0.37913 0.0
H2331 H 0.76041 0.55361 0.33077 0.0
H2332 H 0.73449 0.58111 0.33589 0.0
H2333 H 0.76105 0.57338 0.35719 0.0
H2334 H 0.74009 0.55768 0.41843 0.0
H2335 H 0.73838 0.60364 0.43857 0.0
H2336 H 0.35621 0.75165 0.41672 0.0
H2337 H 0.39721 0.7268 0.39972 0.0
H2338 H 0.35623 0.6458 0.41203 0.0
H2339 H 0.3154 0.67028 0.42895 0.0
H2340 H 0.41767 0.64866 0.42185 0.0
H2341 H 0.38689 0.68722 0.33565 0.0
H2342 H 0.3911 0.71328 0.3579 0.0
H2343 H 0.36236 0.68804 0.35931 0.0
C2344 C 0.35627 0.72852 0.41627 0.0
C2345 C 0.33253 0.71288 0.42402 0.0
C2346 C 0.37956 0.71441 0.4064 0.0
C2347 C 0.37945 0.68455 0.40436 0.0
C2348 C 0.3566 0.66889 0.41337 0.0
H2349 H 0.44524 0.55136 0.32406 0.0
H2350 H 0.41905 0.59157 0.3403 0.0
C2351 C 0.3333 0.68291 0.42302 0.0
C2352 C 0.40205 0.66929 0.39168 0.0
H2353 H 0.42388 0.65338 0.33776 0.0
C2354 C 0.4195 0.65004 0.40351 0.0
C2355 C 0.40394 0.67097 0.36773 0.0
C2356 C 0.38504 0.69084 0.35424 0.0
C2357 C 0.43822 0.63169 0.39197 0.0
C2358 C 0.43966 0.63289 0.36796 0.0
C2359 C 0.42284 0.65275 0.35616 0.0
C2360 C 0.45639 0.61168 0.3549 0.0
C2361 C 0.45518 0.6101 0.40544 0.0
C2362 C 0.48621 0.61045 0.35684 0.0
C2363 C 0.5013 0.58746 0.34759 0.0
C2364 C 0.48678 0.56531 0.33623 0.0
C2365 C 0.45713 0.56787 0.3328 0.0
C2366 C 0.44209 0.59087 0.34207 0.0
H2367 H 0.44805 0.60885 0.42341 0.0
H2368 H 0.45332 0.58855 0.39769 0.0
H2369 H 0.47808 0.61621 0.40529 0.0
H2370 H 0.49765 0.6266 0.36638 0.0
H2371 H 0.52415 0.58639 0.35038 0.0
H2372 H 0.00473 0.56603 0.14149 0.0
H2373 H 0.0363 0.60223 0.12574 0.0
H2374 H 0.09569 0.58856 0.18081 0.0
H2375 H 0.06489 0.55066 0.19582 0.0
H2376 H 0.05698 0.65045 0.13709 0.0
H2377 H 0.14775 0.57514 0.1292 0.0
H2378 H 0.1127 0.56364 0.13782 0.0
H2379 H 0.13674 0.57957 0.15813 0.0
C2380 C 0.02438 0.57088 0.15041 0.0
C2381 C 0.03254 0.55527 0.16975 0.0
C2382 C 0.04246 0.59163 0.14136 0.0
C2383 C 0.06883 0.59761 0.15167 0.0
C2384 C 0.076 0.58357 0.17202 0.0
H2385 H 0.17406 0.7423 0.10959 0.0
H2386 H 0.13741 0.71219 0.12688 0.0
C2387 C 0.05826 0.56216 0.18074 0.0
C2388 C 0.08904 0.61767 0.14048 0.0
H2389 H 0.15738 0.62361 0.12092 0.0
C2390 C 0.07892 0.64452 0.13346 0.0
C2391 C 0.11751 0.60976 0.13524 0.0
C2392 C 0.12923 0.58036 0.14026 0.0
C2393 C 0.09635 0.6636 0.12134 0.0
C2394 C 0.1252 0.6562 0.11706 0.0
C2395 C 0.13533 0.62942 0.12421 0.0
C2396 C 0.14546 0.67562 0.1052 0.0
C2397 C 0.08323 0.69093 0.11261 0.0
C2398 C 0.16265 0.66512 0.08746 0.0
C2399 C 0.18428 0.682 0.07815 0.0
C2400 C 0.18862 0.70994 0.08598 0.0
C2401 C 0.17066 0.72099 0.10293 0.0
C2402 C 0.1496 0.7038 0.11275 0.0
H2403 H 0.0598 0.68862 0.11012 0.0
H2404 H 0.08661 0.70814 0.12528 0.0
H2405 H 0.09291 0.6976 0.09623 0.0
H2406 H 0.15992 0.6435 0.08128 0.0
H2407 H 0.19801 0.67301 0.06516 0.0
H2408 H 0.1762 0.32098 0.92318 0.0
H2409 H 0.13579 0.34591 0.90593 0.0
H2410 H 0.09619 0.26519 0.89016 0.0
H2411 H 0.13659 0.23993 0.90772 0.0
H2412 H 0.10579 0.30558 0.85195 0.0
H2413 H 0.04957 0.35481 0.92515 0.0
H2414 H 0.08783 0.35826 0.9258 0.0
H2415 H 0.07189 0.32346 0.92792 0.0
C2416 C 0.15859 0.30851 0.91652 0.0
C2417 C 0.15955 0.2785 0.91683 0.0
C2418 C 0.13548 0.32279 0.90673 0.0
C2419 C 0.11297 0.30738 0.89689 0.0
C2420 C 0.1133 0.27743 0.89783 0.0
H2421 H 0.97545 0.40915 0.83413 0.0
H2422 H 0.99876 0.36766 0.85175 0.0
C2423 C 0.1363 0.26306 0.90796 0.0
C2424 C 0.09083 0.32282 0.88372 0.0
H2425 H 0.04083 0.37554 0.88857 0.0
C2426 C 0.09113 0.32044 0.85995 0.0
C2427 C 0.07169 0.34208 0.89421 0.0
C2428 C 0.06994 0.34472 0.9197 0.0
C2429 C 0.07399 0.33816 0.84633 0.0
C2430 C 0.05619 0.35869 0.85679 0.0
C2431 C 0.05456 0.35981 0.88059 0.0
C2432 C 0.04166 0.38132 0.8435 0.0
C2433 C 0.07574 0.33549 0.82084 0.0
C2434 C 0.05807 0.40242 0.83276 0.0
C2435 C 0.04491 0.42615 0.82292 0.0
C2436 C 0.01503 0.42915 0.82347 0.0
C2437 C 0.99849 0.40726 0.8332 0.0
C2438 C 0.01175 0.38365 0.84338 0.0
H2439 H 0.08425 0.31432 0.81563 0.0
H2440 H 0.05442 0.33866 0.81295 0.0
H2441 H 0.09031 0.35219 0.81416 0.0
H2442 H 0.0812 0.40121 0.83293 0.0
H2443 H 0.05823 0.44267 0.81558 0.0
H2444 H 0.32406 0.32417 0.57668 0.0
H2445 H 0.36342 0.3516 0.59291 0.0
H2446 H 0.40678 0.27345 0.61065 0.0
H2447 H 0.36732 0.24569 0.59426 0.0
H2448 H 0.39672 0.31269 0.64762 0.0
H2449 H 0.4475 0.36614 0.57393 0.0
H2450 H 0.40918 0.36849 0.57407 0.0
H2451 H 0.42609 0.3342 0.57112 0.0
C2452 C 0.34232 0.31278 0.58348 0.0
C2453 C 0.34261 0.28278 0.58419 0.0
C2454 C 0.36484 0.3285 0.59269 0.0
C2455 C 0.38806 0.31456 0.60287 0.0
C2456 C 0.3891 0.28458 0.60272 0.0
H2457 H 0.52425 0.41972 0.66163 0.0
H2458 H 0.49998 0.37961 0.64331 0.0
C2459 C 0.36665 0.26877 0.59323 0.0
C2460 C 0.40935 0.33146 0.61575 0.0
H2461 H 0.45587 0.38717 0.6105 0.0
C2462 C 0.41007 0.32863 0.63949 0.0
C2463 C 0.42679 0.35214 0.60511 0.0
C2464 C 0.42762 0.35532 0.57963 0.0
C2465 C 0.4267 0.34698 0.65297 0.0
C2466 C 0.44284 0.36875 0.64239 0.0
C2467 C 0.4433 0.37058 0.61858 0.0
C2468 C 0.45799 0.39097 0.65567 0.0
C2469 C 0.42645 0.3433 0.67842 0.0
C2470 C 0.44244 0.41043 0.66896 0.0
C2471 C 0.45619 0.43346 0.6794 0.0
C2472 C 0.48578 0.43746 0.67673 0.0
C2473 C 0.50147 0.41723 0.66416 0.0
C2474 C 0.48764 0.39433 0.65359 0.0
H2475 H 0.41956 0.32146 0.68337 0.0
H2476 H 0.44792 0.34749 0.68574 0.0
H2477 H 0.41121 0.35878 0.68596 0.0
H2478 H 0.41946 0.40846 0.6705 0.0
H2479 H 0.44348 0.44865 0.68891 0.0
loop_
_geom_bond_atom_site_label_1
_geom_bond_atom_site_label_2
_geom_bond_distance
_geom_bond_site_symmetry_2
_ccdc_geom_bond_type
O0 Tb1 2.292 . S
O0 C3 1.255 . S
Tb1 O0 2.292 . S
Tb1 O17 2.326 . S
Tb1 O19 2.500 . S
Tb1 O20 2.473 . S
Tb1 O23 2.324 1_455 S
Eu2 O6 2.292 . S
Eu2 C7 2.852 . S
Eu2 O18 2.324 1_655 S
Eu2 O22 2.326 . S
Eu2 O24 2.500 . S
Eu2 O25 2.473 1_655 S
C3 O0 1.255 . S
C3 O4 1.247 . S
O4 C3 1.247 . S
C5 O17 1.242 . S
C5 O18 1.258 . S
O6 Eu2 2.292 . S
O6 C8 1.255 . S
C7 Eu2 2.852 . S
C7 C11 1.503 . S
C7 O24 1.273 . S
C7 O25 1.257 1_655 S
C8 O6 1.255 . S
C8 O9 1.247 . S
O9 C8 1.247 . S
C10 O22 1.242 . S
C10 O23 1.258 . S
C11 C7 1.503 . S
C11 C12 1.379 1_655 S
C11 C16 1.392 . S
C12 C11 1.379 1_455 S
C12 C13 1.404 . S
C12 H26 0.929 . S
C13 C12 1.404 . S
C13 C14 1.389 1_455 S
C14 C13 1.389 1_655 S
C14 C15 1.399 . S
C14 H27 0.931 . S
C15 C14 1.399 . S
C15 C16 1.390 . S
C16 C11 1.392 . S
C16 C15 1.390 . S
C16 H28 0.929 . S
O17 Tb1 2.326 . S
O17 C5 1.242 . S
O18 Eu2 2.324 1_455 S
O18 C5 1.258 . S
O19 Tb1 2.500 . S
O19 C21 1.273 . S
O20 Tb1 2.473 . S
O20 C21 1.257 . S
C21 O19 1.273 . S
C21 O20 1.257 . S
O22 Eu2 2.326 . S
O22 C10 1.242 . S
O23 Tb1 2.324 1_655 S
O23 C10 1.258 . S
O24 Eu2 2.500 . S
O24 C7 1.273 . S
O25 Eu2 2.473 1_455 S
O25 C7 1.257 1_455 S
H26 C12 0.929 . S
H27 C14 0.931 . S
H28 C16 0.929 . S
O29 Tb30 2.292 . S
O29 C32 1.255 . S
Tb30 O29 2.292 . S
Tb30 O46 2.326 . S
Tb30 O48 2.500 . S
Tb30 O49 2.473 . S
Tb30 O52 2.324 . S
Eu31 O35 2.292 . S
Eu31 C36 2.852 . S
Eu31 O47 2.324 . S
Eu31 O51 2.326 . S
Eu31 O53 2.500 . S
Eu31 O54 2.473 . S
C32 O29 1.255 . S
C32 O33 1.247 . S
O33 C32 1.247 . S
C34 O46 1.242 . S
C34 O47 1.258 . S
O35 Eu31 2.292 . S
O35 C37 1.255 . S
C36 Eu31 2.852 . S
C36 C40 1.503 . S
C36 O53 1.273 . S
C36 O54 1.257 . S
C37 O35 1.255 . S
C37 O38 1.247 . S
O38 C37 1.247 . S
C39 O51 1.242 . S
C39 O52 1.258 . S
C40 C36 1.503 . S
C40 C41 1.379 . S
C40 C45 1.392 . S
C41 C40 1.379 . S
C41 C42 1.404 . S
C41 H55 0.929 . S
C42 C41 1.404 . S
C42 C43 1.389 . S
C43 C42 1.389 . S
C43 C44 1.399 . S
C43 H56 0.931 . S
C44 C43 1.399 . S
C44 C45 1.390 . S
C45 C40 1.392 . S
C45 C44 1.390 . S
C45 H57 0.929 . S
O46 Tb30 2.326 . S
O46 C34 1.242 . S
O47 Eu31 2.324 . S
O47 C34 1.258 . S
O48 Tb30 2.500 . S
O48 C50 1.273 . S
O49 Tb30 2.473 . S
O49 C50 1.257 . S
C50 O48 1.273 . S
C50 O49 1.257 . S
O51 Eu31 2.326 . S
O51 C39 1.242 . S
O52 Tb30 2.324 . S
O52 C39 1.258 . S
O53 Eu31 2.500 . S
O53 C36 1.273 . S
O54 Eu31 2.473 . S
O54 C36 1.257 . S
H55 C41 0.929 . S
H56 C43 0.931 . S
H57 C45 0.929 . S
O58 Tb59 2.292 . S
O58 C61 1.255 . S
Tb59 O58 2.292 . S
Tb59 O75 2.326 . S
Tb59 O77 2.500 . S
Tb59 O78 2.473 . S
Tb59 O81 2.324 . S
Eu60 O64 2.292 . S
Eu60 C65 2.852 . S
Eu60 O76 2.324 . S
Eu60 O80 2.326 . S
Eu60 O82 2.500 . S
Eu60 O83 2.473 . S
C61 O58 1.255 . S
C61 O62 1.247 . S
O62 C61 1.247 . S
C63 O75 1.242 . S
C63 O76 1.258 . S
O64 Eu60 2.292 . S
O64 C66 1.255 . S
C65 Eu60 2.852 . S
C65 C69 1.503 . S
C65 O82 1.273 . S
C65 O83 1.257 . S
C66 O64 1.255 . S
C66 O67 1.247 . S
O67 C66 1.247 . S
C68 O80 1.242 . S
C68 O81 1.258 . S
C69 C65 1.503 . S
C69 C70 1.379 . S
C69 C74 1.392 . S
C70 C69 1.379 . S
C70 C71 1.404 . S
C70 H84 0.929 . S
C71 C70 1.404 . S
C71 C72 1.389 . S
C72 C71 1.389 . S
C72 C73 1.399 . S
C72 H85 0.931 . S
C73 C72 1.399 . S
C73 C74 1.390 . S
C74 C69 1.392 . S
C74 C73 1.390 . S
C74 H86 0.929 . S
O75 Tb59 2.326 . S
O75 C63 1.242 . S
O76 Eu60 2.324 . S
O76 C63 1.258 . S
O77 Tb59 2.500 . S
O77 C79 1.273 . S
O78 Tb59 2.473 . S
O78 C79 1.257 . S
C79 O77 1.273 . S
C79 O78 1.257 . S
O80 Eu60 2.326 . S
O80 C68 1.242 . S
O81 Tb59 2.324 . S
O81 C68 1.258 . S
O82 Eu60 2.500 . S
O82 C65 1.273 . S
O83 Eu60 2.473 . S
O83 C65 1.257 . S
H84 C70 0.929 . S
H85 C72 0.931 . S
H86 C74 0.929 . S
O87 Tb88 2.292 . S
O87 C90 1.255 . S
Tb88 O87 2.292 . S
Tb88 O104 2.326 . S
Tb88 O106 2.500 . S
Tb88 O107 2.473 . S
Tb88 O110 2.324 . S
Eu89 O93 2.292 . S
Eu89 C94 2.852 . S
Eu89 O105 2.324 . S
Eu89 O109 2.326 . S
Eu89 O111 2.500 . S
Eu89 O112 2.473 . S
C90 O87 1.255 . S
C90 O91 1.247 . S
O91 C90 1.247 . S
C92 O104 1.242 . S
C92 O105 1.258 . S
O93 Eu89 2.292 . S
O93 C95 1.255 . S
C94 Eu89 2.852 . S
C94 C98 1.503 1_556 S
C94 O111 1.273 . S
C94 O112 1.257 . S
C95 O93 1.255 . S
C95 O96 1.247 . S
O96 C95 1.247 . S
C97 O109 1.242 . S
C97 O110 1.258 . S
C98 C94 1.503 1_554 S
C98 C99 1.379 . S
C98 C103 1.392 . S
C99 C98 1.379 . S
C99 C100 1.404 . S
C99 H113 0.940 . S
C100 C99 1.404 . S
C100 C101 1.389 . S
C101 C100 1.389 . S
C101 C102 1.399 . S
C101 H114 0.931 . S
C102 C101 1.399 . S
C102 C103 1.390 . S
C103 C98 1.392 . S
C103 C102 1.390 . S
C103 H115 0.929 . S
O104 Tb88 2.326 . S
O104 C92 1.242 . S
O105 Eu89 2.324 . S
O105 C92 1.258 . S
O106 Tb88 2.500 . S
O106 C108 1.273 . S
O107 Tb88 2.473 . S
O107 C108 1.257 . S
C108 O106 1.273 . S
C108 O107 1.257 . S
O109 Eu89 2.326 . S
O109 C97 1.242 . S
O110 Tb88 2.324 . S
O110 C97 1.258 . S
O111 Eu89 2.500 . S
O111 C94 1.273 . S
O112 Eu89 2.473 . S
O112 C94 1.257 . S
H113 C99 0.940 . S
H114 C101 0.931 . S
H115 C103 0.929 . S
O116 Tb117 2.292 . S
O116 C119 1.255 . S
Tb117 O116 2.292 . S
Tb117 O133 2.326 . S
Tb117 O135 2.500 . S
Tb117 O136 2.473 . S
Tb117 O139 2.324 1_455 S
Eu118 O122 2.292 . S
Eu118 C123 2.852 . S
Eu118 O134 2.324 1_655 S
Eu118 O138 2.326 . S
Eu118 O140 2.500 . S
Eu118 O141 2.473 1_655 S
C119 O116 1.255 . S
C119 O120 1.247 . S
O120 C119 1.247 . S
C121 O133 1.242 . S
C121 O134 1.258 . S
O122 Eu118 2.292 . S
O122 C124 1.255 . S
C123 Eu118 2.852 . S
C123 C127 1.503 . S
C123 O140 1.273 . S
C123 O141 1.257 1_655 S
C124 O122 1.255 . S
C124 O125 1.247 . S
O125 C124 1.247 . S
C126 O138 1.242 . S
C126 O139 1.258 . S
C127 C123 1.503 . S
C127 C128 1.379 1_655 S
C127 C132 1.392 . S
C128 C127 1.379 1_455 S
C128 C129 1.404 . S
C128 H142 0.929 . S
C129 C128 1.404 . S
C129 C130 1.389 1_455 S
C130 C129 1.389 1_655 S
C130 C131 1.399 . S
C130 H143 0.931 . S
C131 C130 1.399 . S
C131 C132 1.390 . S
C132 C127 1.392 . S
C132 C131 1.390 . S
C132 H144 0.929 . S
O133 Tb117 2.326 . S
O133 C121 1.242 . S
O134 Eu118 2.324 1_455 S
O134 C121 1.258 . S
O135 Tb117 2.500 . S
O135 C137 1.273 . S
O136 Tb117 2.473 . S
O136 C137 1.257 . S
C137 O135 1.273 . S
C137 O136 1.257 . S
O138 Eu118 2.326 . S
O138 C126 1.242 . S
O139 Tb117 2.324 1_655 S
O139 C126 1.258 . S
O140 Eu118 2.500 . S
O140 C123 1.273 . S
O141 Eu118 2.473 1_455 S
O141 C123 1.257 1_455 S
H142 C128 0.929 . S
H143 C130 0.931 . S
H144 C132 0.929 . S
O145 Tb146 2.292 . S
O145 C148 1.255 . S
Tb146 O145 2.292 . S
Tb146 O162 2.326 . S
Tb146 O164 2.500 . S
Tb146 O165 2.473 . S
Tb146 O168 2.324 . S
Eu147 O151 2.292 . S
Eu147 C152 2.852 . S
Eu147 O163 2.324 . S
Eu147 O167 2.326 . S
Eu147 O169 2.500 . S
Eu147 O170 2.473 . S
C148 O145 1.255 . S
C148 O149 1.247 . S
O149 C148 1.247 . S
C150 O162 1.242 . S
C150 O163 1.258 . S
O151 Eu147 2.292 . S
O151 C153 1.255 . S
C152 Eu147 2.852 . S
C152 C156 1.503 1_554 S
C152 O169 1.273 . S
C152 O170 1.257 . S
C153 O151 1.255 . S
C153 O154 1.247 . S
O154 C153 1.247 . S
C155 O167 1.242 . S
C155 O168 1.258 . S
C156 C152 1.503 1_556 S
C156 C157 1.379 . S
C156 C161 1.392 . S
C157 C156 1.379 . S
C157 C158 1.404 . S
C157 H171 0.940 . S
C158 C157 1.404 . S
C158 C159 1.389 . S
C159 C158 1.389 . S
C159 C160 1.399 . S
C159 H172 0.931 . S
C160 C159 1.399 . S
C160 C161 1.390 . S
C161 C156 1.392 . S
C161 C160 1.390 . S
C161 H173 0.929 . S
O162 Tb146 2.326 . S
O162 C150 1.242 . S
O163 Eu147 2.324 . S
O163 C150 1.258 . S
O164 Tb146 2.500 . S
O164 C166 1.273 . S
O165 Tb146 2.473 . S
O165 C166 1.257 . S
C166 O164 1.273 . S
C166 O165 1.257 . S
O167 Eu147 2.326 . S
O167 C155 1.242 . S
O168 Tb146 2.324 . S
O168 C155 1.258 . S
O169 Eu147 2.500 . S
O169 C152 1.273 . S
O170 Eu147 2.473 . S
O170 C152 1.257 . S
H171 C157 0.940 . S
H172 C159 0.931 . S
H173 C161 0.929 . S
O174 Tb175 2.292 . S
O174 C177 1.255 . S
Tb175 O174 2.292 . S
Tb175 O191 2.326 . S
Tb175 O193 2.500 . S
Tb175 O194 2.473 . S
Tb175 O197 2.324 . S
Eu176 O180 2.292 . S
Eu176 C181 2.852 . S
Eu176 O192 2.324 . S
Eu176 O196 2.326 . S
Eu176 O198 2.500 . S
Eu176 O199 2.473 . S
C177 O174 1.255 . S
C177 O178 1.247 . S
O178 C177 1.247 . S
C179 O191 1.242 . S
C179 O192 1.258 . S
O180 Eu176 2.292 . S
O180 C182 1.255 . S
C181 Eu176 2.852 . S
C181 C185 1.503 . S
C181 O198 1.273 . S
C181 O199 1.257 . S
C182 O180 1.255 . S
C182 O183 1.247 . S
O183 C182 1.247 . S
C184 O196 1.242 . S
C184 O197 1.258 . S
C185 C181 1.503 . S
C185 C186 1.379 . S
C185 C190 1.392 . S
C186 C185 1.379 . S
C186 C187 1.404 . S
C186 H200 0.929 . S
C187 C186 1.404 . S
C187 C188 1.389 . S
C188 C187 1.389 . S
C188 C189 1.399 . S
C188 H201 0.931 . S
C189 C188 1.399 . S
C189 C190 1.390 . S
C190 C185 1.392 . S
C190 C189 1.390 . S
C190 H202 0.929 . S
O191 Tb175 2.326 . S
O191 C179 1.242 . S
O192 Eu176 2.324 . S
O192 C179 1.258 . S
O193 Tb175 2.500 . S
O193 C195 1.273 . S
O194 Tb175 2.473 . S
O194 C195 1.257 . S
C195 O193 1.273 . S
C195 O194 1.257 . S
O196 Eu176 2.326 . S
O196 C184 1.242 . S
O197 Tb175 2.324 . S
O197 C184 1.258 . S
O198 Eu176 2.500 . S
O198 C181 1.273 . S
O199 Eu176 2.473 . S
O199 C181 1.257 . S
H200 C186 0.929 . S
H201 C188 0.931 . S
H202 C190 0.929 . S
O203 Tb204 2.292 . S
O203 C206 1.255 . S
Tb204 O203 2.292 . S
Tb204 O220 2.326 . S
Tb204 O222 2.500 . S
Tb204 O223 2.473 . S
Tb204 O226 2.324 . S
Eu205 O209 2.292 . S
Eu205 C210 2.852 . S
Eu205 O221 2.324 . S
Eu205 O225 2.326 . S
Eu205 O227 2.500 . S
Eu205 O228 2.473 . S
C206 O203 1.255 . S
C206 O207 1.247 . S
O207 C206 1.247 . S
C208 O220 1.242 . S
C208 O221 1.258 . S
O209 Eu205 2.292 . S
O209 C211 1.255 . S
C210 Eu205 2.852 . S
C210 C214 1.503 . S
C210 O227 1.273 . S
C210 O228 1.257 . S
C211 O209 1.255 . S
C211 O212 1.247 . S
O212 C211 1.247 . S
C213 O225 1.242 . S
C213 O226 1.258 . S
C214 C210 1.503 . S
C214 C215 1.379 . S
C214 C219 1.392 . S
C215 C214 1.379 . S
C215 C216 1.404 . S
C215 H229 0.929 . S
C216 C215 1.404 . S
C216 C217 1.389 . S
C217 C216 1.389 . S
C217 C218 1.399 . S
C217 H230 0.931 . S
C218 C217 1.399 . S
C218 C219 1.390 . S
C219 C214 1.392 . S
C219 C218 1.390 . S
C219 H231 0.929 . S
O220 Tb204 2.326 . S
O220 C208 1.242 . S
O221 Eu205 2.324 . S
O221 C208 1.258 . S
O222 Tb204 2.500 . S
O222 C224 1.273 . S
O223 Tb204 2.473 . S
O223 C224 1.257 . S
C224 O222 1.273 . S
C224 O223 1.257 . S
O225 Eu205 2.326 . S
O225 C213 1.242 . S
O226 Tb204 2.324 . S
O226 C213 1.258 . S
O227 Eu205 2.500 . S
O227 C210 1.273 . S
O228 Eu205 2.473 . S
O228 C210 1.257 . S
H229 C215 0.929 . S
H230 C217 0.931 . S
H231 C219 0.929 . S
O232 Tb233 2.292 . S
O232 C235 1.255 . S
Tb233 O232 2.292 . S
Tb233 O249 2.326 . S
Tb233 O251 2.500 . S
Tb233 O252 2.473 . S
Tb233 O255 2.324 . S
Eu234 O238 2.292 . S
Eu234 C239 2.852 . S
Eu234 O250 2.324 . S
Eu234 O254 2.326 . S
Eu234 O256 2.500 . S
Eu234 O257 2.473 . S
C235 O232 1.255 . S
C235 O236 1.247 . S
O236 C235 1.247 . S
C237 O249 1.242 . S
C237 O250 1.258 . S
O238 Eu234 2.292 . S
O238 C240 1.255 . S
C239 Eu234 2.852 . S
C239 C243 1.503 . S
C239 O256 1.273 . S
C239 O257 1.257 . S
C240 O238 1.255 . S
C240 O241 1.247 . S
O241 C240 1.247 . S
C242 O254 1.242 . S
C242 O255 1.258 . S
C243 C239 1.503 . S
C243 C244 1.379 . S
C243 C248 1.392 . S
C244 C243 1.379 . S
C244 C245 1.404 . S
C244 H258 0.929 . S
C245 C244 1.404 . S
C245 C246 1.389 . S
C246 C245 1.389 . S
C246 C247 1.399 . S
C246 H259 0.931 . S
C247 C246 1.399 . S
C247 C248 1.390 . S
C248 C243 1.392 . S
C248 C247 1.390 . S
C248 H260 0.929 . S
O249 Tb233 2.326 . S
O249 C237 1.242 . S
O250 Eu234 2.324 . S
O250 C237 1.258 . S
O251 Tb233 2.500 . S
O251 C253 1.273 . S
O252 Tb233 2.473 . S
O252 C253 1.257 . S
C253 O251 1.273 . S
C253 O252 1.257 . S
O254 Eu234 2.326 . S
O254 C242 1.242 . S
O255 Tb233 2.324 . S
O255 C242 1.258 . S
O256 Eu234 2.500 . S
O256 C239 1.273 . S
O257 Eu234 2.473 . S
O257 C239 1.257 . S
H258 C244 0.929 . S
H259 C246 0.931 . S
H260 C248 0.929 . S
O261 Tb262 2.292 . S
O261 C264 1.255 . S
Tb262 O261 2.292 . S
Tb262 O278 2.326 . S
Tb262 O280 2.500 . S
Tb262 O281 2.473 . S
Tb262 O284 2.324 . S
Eu263 O267 2.292 . S
Eu263 C268 2.852 . S
Eu263 O279 2.324 . S
Eu263 O283 2.326 . S
Eu263 O285 2.500 . S
Eu263 O286 2.473 . S
C264 O261 1.255 . S
C264 O265 1.247 . S
O265 C264 1.247 . S
C266 O278 1.242 . S
C266 O279 1.258 . S
O267 Eu263 2.292 . S
O267 C269 1.255 . S
C268 Eu263 2.852 . S
C268 C272 1.503 1_554 S
C268 O285 1.273 . S
C268 O286 1.257 . S
C269 O267 1.255 . S
C269 O270 1.247 . S
O270 C269 1.247 . S
C271 O283 1.242 . S
C271 O284 1.258 . S
C272 C268 1.503 1_556 S
C272 C273 1.379 . S
C272 C277 1.392 . S
C273 C272 1.379 . S
C273 C274 1.404 . S
C273 H287 0.940 . S
C274 C273 1.404 . S
C274 C275 1.389 . S
C275 C274 1.389 . S
C275 C276 1.399 . S
C275 H288 0.931 . S
C276 C275 1.399 . S
C276 C277 1.390 . S
C277 C272 1.392 . S
C277 C276 1.390 . S
C277 H289 0.929 . S
O278 Tb262 2.326 . S
O278 C266 1.242 . S
O279 Eu263 2.324 . S
O279 C266 1.258 . S
O280 Tb262 2.500 . S
O280 C282 1.273 . S
O281 Tb262 2.473 . S
O281 C282 1.257 . S
C282 O280 1.273 . S
C282 O281 1.257 . S
O283 Eu263 2.326 . S
O283 C271 1.242 . S
O284 Tb262 2.324 . S
O284 C271 1.258 . S
O285 Eu263 2.500 . S
O285 C268 1.273 . S
O286 Eu263 2.473 . S
O286 C268 1.257 . S
H287 C273 0.940 . S
H288 C275 0.931 . S
H289 C277 0.929 . S
O290 Tb291 2.292 . S
O290 C293 1.255 . S
Tb291 O290 2.292 . S
Tb291 O307 2.326 . S
Tb291 O309 2.500 . S
Tb291 O310 2.473 . S
Tb291 O313 2.324 . S
Eu292 O296 2.292 . S
Eu292 C297 2.852 . S
Eu292 O308 2.324 . S
Eu292 O312 2.326 . S
Eu292 O314 2.500 . S
Eu292 O315 2.473 . S
C293 O290 1.255 . S
C293 O294 1.247 . S
O294 C293 1.247 . S
C295 O307 1.242 . S
C295 O308 1.258 . S
O296 Eu292 2.292 . S
O296 C298 1.255 . S
C297 Eu292 2.852 . S
C297 C301 1.503 1_556 S
C297 O314 1.273 . S
C297 O315 1.257 . S
C298 O296 1.255 . S
C298 O299 1.247 . S
O299 C298 1.247 . S
C300 O312 1.242 . S
C300 O313 1.258 . S
C301 C297 1.503 1_554 S
C301 C302 1.379 . S
C301 C306 1.392 . S
C302 C301 1.379 . S
C302 C303 1.404 . S
C302 H316 0.940 . S
C303 C302 1.404 . S
C303 C304 1.389 . S
C304 C303 1.389 . S
C304 C305 1.399 . S
C304 H317 0.931 . S
C305 C304 1.399 . S
C305 C306 1.390 . S
C306 C301 1.392 . S
C306 C305 1.390 . S
C306 H318 0.929 . S
O307 Tb291 2.326 . S
O307 C295 1.242 . S
O308 Eu292 2.324 . S
O308 C295 1.258 . S
O309 Tb291 2.500 . S
O309 C311 1.273 . S
O310 Tb291 2.473 . S
O310 C311 1.257 . S
C311 O309 1.273 . S
C311 O310 1.257 . S
O312 Eu292 2.326 . S
O312 C300 1.242 . S
O313 Tb291 2.324 . S
O313 C300 1.258 . S
O314 Eu292 2.500 . S
O314 C297 1.273 . S
O315 Eu292 2.473 . S
O315 C297 1.257 . S
H316 C302 0.940 . S
H317 C304 0.931 . S
H318 C306 0.929 . S
O319 Tb320 2.292 . S
O319 C322 1.255 . S
Tb320 O319 2.292 . S
Tb320 O336 2.326 . S
Tb320 O338 2.500 . S
Tb320 O339 2.473 . S
Tb320 O342 2.324 . S
Eu321 O325 2.292 . S
Eu321 C326 2.852 . S
Eu321 O337 2.324 . S
Eu321 O341 2.326 . S
Eu321 O343 2.500 . S
Eu321 O344 2.473 . S
C322 O319 1.255 . S
C322 O323 1.247 . S
O323 C322 1.247 . S
C324 O336 1.242 . S
C324 O337 1.258 . S
O325 Eu321 2.292 . S
O325 C327 1.255 . S
C326 Eu321 2.852 . S
C326 C330 1.503 . S
C326 O343 1.273 . S
C326 O344 1.257 . S
C327 O325 1.255 . S
C327 O328 1.247 . S
O328 C327 1.247 . S
C329 O341 1.242 . S
C329 O342 1.258 . S
C330 C326 1.503 . S
C330 C331 1.379 . S
C330 C335 1.392 . S
C331 C330 1.379 . S
C331 C332 1.404 . S
C331 H345 0.929 . S
C332 C331 1.404 . S
C332 C333 1.389 . S
C333 C332 1.389 . S
C333 C334 1.399 . S
C333 H346 0.931 . S
C334 C333 1.399 . S
C334 C335 1.390 . S
C335 C330 1.392 . S
C335 C334 1.390 . S
C335 H347 0.929 . S
O336 Tb320 2.326 . S
O336 C324 1.242 . S
O337 Eu321 2.324 . S
O337 C324 1.258 . S
O338 Tb320 2.500 . S
O338 C340 1.273 . S
O339 Tb320 2.473 . S
O339 C340 1.257 . S
C340 O338 1.273 . S
C340 O339 1.257 . S
O341 Eu321 2.326 . S
O341 C329 1.242 . S
O342 Tb320 2.324 . S
O342 C329 1.258 . S
O343 Eu321 2.500 . S
O343 C326 1.273 . S
O344 Eu321 2.473 . S
O344 C326 1.257 . S
H345 C331 0.929 . S
H346 C333 0.931 . S
H347 C335 0.929 . S
O348 Tb349 2.292 . S
O348 C351 1.255 . S
Tb349 O348 2.292 . S
Tb349 O365 2.326 . S
Tb349 O367 2.500 . S
Tb349 O368 2.473 . S
Tb349 O371 2.324 . S
Eu350 O354 2.292 . S
Eu350 C355 2.852 . S
Eu350 O366 2.324 . S
Eu350 O370 2.326 . S
Eu350 O372 2.500 . S
Eu350 O373 2.473 . S
C351 O348 1.255 . S
C351 O352 1.247 . S
O352 C351 1.247 . S
C353 O365 1.242 . S
C353 O366 1.258 . S
O354 Eu350 2.292 . S
O354 C356 1.255 . S
C355 Eu350 2.852 . S
C355 C359 1.503 . S
C355 O372 1.273 . S
C355 O373 1.257 . S
C356 O354 1.255 . S
C356 O357 1.247 . S
O357 C356 1.247 . S
C358 O370 1.242 . S
C358 O371 1.258 . S
C359 C355 1.503 . S
C359 C360 1.379 . S
C359 C364 1.392 . S
C360 C359 1.379 . S
C360 C361 1.404 . S
C360 H374 0.929 . S
C361 C360 1.404 . S
C361 C362 1.389 . S
C362 C361 1.389 . S
C362 C363 1.399 . S
C362 H375 0.931 . S
C363 C362 1.399 . S
C363 C364 1.390 . S
C364 C359 1.392 . S
C364 C363 1.390 . S
C364 H376 0.929 . S
O365 Tb349 2.326 . S
O365 C353 1.242 . S
O366 Eu350 2.324 . S
O366 C353 1.258 . S
O367 Tb349 2.500 . S
O367 C369 1.273 . S
O368 Tb349 2.473 . S
O368 C369 1.257 . S
C369 O367 1.273 . S
C369 O368 1.257 . S
O370 Eu350 2.326 . S
O370 C358 1.242 . S
O371 Tb349 2.324 . S
O371 C358 1.258 . S
O372 Eu350 2.500 . S
O372 C355 1.273 . S
O373 Eu350 2.473 . S
O373 C355 1.257 . S
H374 C360 0.929 . S
H375 C362 0.931 . S
H376 C364 0.929 . S
O377 Tb378 2.292 . S
O377 C380 1.255 . S
Tb378 O377 2.292 . S
Tb378 O394 2.326 . S
Tb378 O396 2.500 . S
Tb378 O397 2.473 1_655 S
Tb378 O400 2.324 1_655 S
Eu379 O383 2.292 . S
Eu379 C384 2.852 . S
Eu379 O395 2.324 1_455 S
Eu379 O399 2.326 . S
Eu379 O401 2.500 . S
Eu379 O402 2.473 1_455 S
C380 O377 1.255 . S
C380 O381 1.247 . S
O381 C380 1.247 . S
C382 O394 1.242 . S
C382 O395 1.258 . S
O383 Eu379 2.292 . S
O383 C385 1.255 . S
C384 Eu379 2.852 . S
C384 C388 1.503 . S
C384 O401 1.273 . S
C384 O402 1.257 1_455 S
C385 O383 1.255 . S
C385 O386 1.247 . S
O386 C385 1.247 . S
C387 O399 1.242 . S
C387 O400 1.258 . S
C388 C384 1.503 . S
C388 C389 1.379 1_455 S
C388 C393 1.392 . S
C389 C388 1.379 1_655 S
C389 C390 1.404 . S
C389 H403 0.929 . S
C390 C389 1.404 . S
C390 C391 1.389 1_655 S
C391 C390 1.389 1_455 S
C391 C392 1.399 . S
C391 H404 0.931 . S
C392 C391 1.399 . S
C392 C393 1.390 . S
C393 C388 1.392 . S
C393 C392 1.390 . S
C393 H405 0.929 . S
O394 Tb378 2.326 . S
O394 C382 1.242 . S
O395 Eu379 2.324 1_655 S
O395 C382 1.258 . S
O396 Tb378 2.500 . S
O396 C398 1.273 . S
O397 Tb378 2.473 1_455 S
O397 C398 1.257 1_455 S
C398 O396 1.273 . S
C398 O397 1.257 1_655 S
O399 Eu379 2.326 . S
O399 C387 1.242 . S
O400 Tb378 2.324 1_455 S
O400 C387 1.258 . S
O401 Eu379 2.500 . S
O401 C384 1.273 . S
O402 Eu379 2.473 1_655 S
O402 C384 1.257 1_655 S
H403 C389 0.929 . S
H404 C391 0.931 . S
H405 C393 0.929 . S
O406 Tb407 2.292 . S
O406 C409 1.255 . S
Tb407 O406 2.292 . S
Tb407 O423 2.326 . S
Tb407 O425 2.500 . S
Tb407 O426 2.473 . S
Tb407 O429 2.324 . S
Eu408 O412 2.292 . S
Eu408 C413 2.852 . S
Eu408 O424 2.324 . S
Eu408 O428 2.326 . S
Eu408 O430 2.500 . S
Eu408 O431 2.473 . S
C409 O406 1.255 . S
C409 O410 1.247 . S
O410 C409 1.247 . S
C411 O423 1.242 . S
C411 O424 1.258 . S
O412 Eu408 2.292 . S
O412 C414 1.255 . S
C413 Eu408 2.852 . S
C413 C417 1.503 . S
C413 O430 1.273 . S
C413 O431 1.257 . S
C414 O412 1.255 . S
C414 O415 1.247 . S
O415 C414 1.247 . S
C416 O428 1.242 . S
C416 O429 1.258 . S
C417 C413 1.503 . S
C417 C418 1.379 . S
C417 C422 1.392 . S
C418 C417 1.379 . S
C418 C419 1.404 . S
C418 H432 0.929 . S
C419 C418 1.404 . S
C419 C420 1.389 . S
C420 C419 1.389 . S
C420 C421 1.399 . S
C420 H433 0.931 . S
C421 C420 1.399 . S
C421 C422 1.390 . S
C422 C417 1.392 . S
C422 C421 1.390 . S
C422 H434 0.929 . S
O423 Tb407 2.326 . S
O423 C411 1.242 . S
O424 Eu408 2.324 . S
O424 C411 1.258 . S
O425 Tb407 2.500 . S
O425 C427 1.273 . S
O426 Tb407 2.473 . S
O426 C427 1.257 . S
C427 O425 1.273 . S
C427 O426 1.257 . S
O428 Eu408 2.326 . S
O428 C416 1.242 . S
O429 Tb407 2.324 . S
O429 C416 1.258 . S
O430 Eu408 2.500 . S
O430 C413 1.273 . S
O431 Eu408 2.473 . S
O431 C413 1.257 . S
H432 C418 0.929 . S
H433 C420 0.931 . S
H434 C422 0.929 . S
O435 Tb436 2.292 . S
O435 C438 1.255 . S
Tb436 O435 2.292 . S
Tb436 O452 2.326 . S
Tb436 O454 2.500 . S
Tb436 O455 2.473 1_655 S
Tb436 O458 2.324 1_655 S
Eu437 O441 2.292 . S
Eu437 C442 2.852 . S
Eu437 O453 2.324 1_455 S
Eu437 O457 2.326 . S
Eu437 O459 2.500 . S
Eu437 O460 2.473 1_455 S
C438 O435 1.255 . S
C438 O439 1.247 . S
O439 C438 1.247 . S
C440 O452 1.242 . S
C440 O453 1.258 . S
O441 Eu437 2.292 . S
O441 C443 1.255 . S
C442 Eu437 2.852 . S
C442 C446 1.503 . S
C442 O459 1.273 . S
C442 O460 1.257 1_455 S
C443 O441 1.255 . S
C443 O444 1.247 . S
O444 C443 1.247 . S
C445 O457 1.242 . S
C445 O458 1.258 . S
C446 C442 1.503 . S
C446 C447 1.379 1_455 S
C446 C451 1.392 . S
C447 C446 1.379 1_655 S
C447 C448 1.404 . S
C447 H461 0.929 . S
C448 C447 1.404 . S
C448 C449 1.389 1_655 S
C449 C448 1.389 1_455 S
C449 C450 1.399 . S
C449 H462 0.931 . S
C450 C449 1.399 . S
C450 C451 1.390 . S
C451 C446 1.392 . S
C451 C450 1.390 . S
C451 H463 0.929 . S
O452 Tb436 2.326 . S
O452 C440 1.242 . S
O453 Eu437 2.324 1_655 S
O453 C440 1.258 . S
O454 Tb436 2.500 . S
O454 C456 1.273 . S
O455 Tb436 2.473 1_455 S
O455 C456 1.257 1_455 S
C456 O454 1.273 . S
C456 O455 1.257 1_655 S
O457 Eu437 2.326 . S
O457 C445 1.242 . S
O458 Tb436 2.324 1_455 S
O458 C445 1.258 . S
O459 Eu437 2.500 . S
O459 C442 1.273 . S
O460 Eu437 2.473 1_655 S
O460 C442 1.257 1_655 S
H461 C447 0.929 . S
H462 C449 0.931 . S
H463 C451 0.929 . S
H464 C472 0.929 . S
H465 C474 0.930 . S
H466 C476 0.930 1_655 S
H467 C479 0.929 1_655 S
H468 C482 0.930 . S
H469 C484 0.960 1_554 S
H470 C484 0.960 . S
H471 C484 0.960 . S
C472 H464 0.929 . S
C472 C473 1.377 . S
C472 C474 1.384 . S
C473 C472 1.377 . S
C473 C479 1.390 . S
C474 H465 0.930 . S
C474 C472 1.384 . S
C474 C475 1.372 . S
C475 C474 1.372 . S
C475 C476 1.400 . S
C475 C480 1.490 . S
C476 H466 0.930 1_455 S
C476 C475 1.400 . S
C476 C479 1.386 . S
H477 C493 0.930 1_655 S
H478 C494 0.931 1_655 S
C479 H467 0.929 1_455 S
C479 C473 1.390 . S
C479 C476 1.386 . S
C480 C475 1.490 . S
C480 C482 1.395 1_565 S
C480 C483 1.403 . S
H481 C487 0.930 . S
C482 H468 0.930 . S
C482 C480 1.395 1_545 S
C482 C485 1.378 1_556 S
C483 C480 1.403 . S
C483 C484 1.524 . S
C483 C487 1.400 1_556 S
C484 H469 0.960 1_556 S
C484 H470 0.960 . S
C484 H471 0.960 . S
C484 C483 1.524 . S
C485 C482 1.378 1_554 S
C485 C486 1.416 . S
C485 C489 1.496 . S
C486 C485 1.416 . S
C486 C487 1.385 1_545 S
C486 C488 1.478 . S
C487 H481 0.930 . S
C487 C483 1.400 1_554 S
C487 C486 1.385 1_565 S
C488 C486 1.478 . S
C488 C490 1.381 . S
C488 C494 1.383 . S
C489 C485 1.496 . S
C489 H495 0.959 1_554 S
C489 H496 0.961 1_455 S
C489 H497 0.960 . S
C490 C488 1.381 . S
C490 C491 1.394 . S
C490 H498 0.930 . S
C491 C490 1.394 . S
C491 C492 1.383 . S
C491 H499 0.929 . S
C492 C491 1.383 . S
C492 C493 1.377 . S
C493 H477 0.930 1_455 S
C493 C492 1.377 . S
C493 C494 1.379 . S
C494 H478 0.931 1_455 S
C494 C488 1.383 . S
C494 C493 1.379 . S
H495 C489 0.959 1_556 S
H496 C489 0.961 1_655 S
H497 C489 0.960 . S
H498 C490 0.930 . S
H499 C491 0.929 . S
H500 C508 0.929 . S
H501 C510 0.930 . S
H502 C512 0.930 . S
H503 C515 0.929 . S
H504 C518 0.930 . S
H505 C520 0.960 . S
H506 C520 0.960 . S
H507 C520 0.960 . S
C508 H500 0.929 . S
C508 C509 1.377 . S
C508 C510 1.384 . S
C509 C508 1.377 . S
C509 C515 1.390 . S
C510 H501 0.930 . S
C510 C508 1.384 . S
C510 C511 1.372 . S
C511 C510 1.372 . S
C511 C512 1.400 . S
C511 C516 1.490 . S
C512 H502 0.930 . S
C512 C511 1.400 . S
C512 C515 1.386 . S
H513 C529 0.930 . S
H514 C530 0.931 . S
C515 H503 0.929 . S
C515 C509 1.390 . S
C515 C512 1.386 . S
C516 C511 1.490 . S
C516 C518 1.395 . S
C516 C519 1.403 . S
H517 C523 0.930 . S
C518 H504 0.930 . S
C518 C516 1.395 . S
C518 C521 1.403 . S
C519 C516 1.403 . S
C519 C520 1.524 . S
C519 C523 1.400 . S
C520 H505 0.960 . S
C520 H506 0.960 . S
C520 H507 0.960 . S
C520 C519 1.524 . S
C521 C518 1.403 . S
C521 C522 1.392 . S
C521 C525 1.495 . S
C522 C521 1.392 . S
C522 C523 1.385 . S
C522 C524 1.478 . S
C523 H517 0.930 . S
C523 C519 1.400 . S
C523 C522 1.385 . S
C524 C522 1.478 . S
C524 C526 1.381 . S
C524 C530 1.383 . S
C525 C521 1.495 . S
C525 H531 0.959 . S
C525 H532 0.961 . S
C525 H533 0.960 . S
C526 C524 1.381 . S
C526 C527 1.394 . S
C526 H534 0.930 . S
C527 C526 1.394 . S
C527 C528 1.383 . S
C527 H535 0.929 . S
C528 C527 1.383 . S
C528 C529 1.377 . S
C529 H513 0.930 . S
C529 C528 1.377 . S
C529 C530 1.379 . S
C530 H514 0.931 . S
C530 C524 1.383 . S
C530 C529 1.379 . S
H531 C525 0.959 . S
H532 C525 0.961 . S
H533 C525 0.960 . S
H534 C526 0.930 . S
H535 C527 0.929 . S
H536 C544 0.929 . S
H537 C546 0.930 . S
H538 C548 0.930 . S
H539 C551 0.929 . S
H540 C554 0.930 . S
H541 C556 0.960 . S
H542 C556 0.960 . S
H543 C556 0.960 . S
C544 H536 0.929 . S
C544 C545 1.377 . S
C544 C546 1.384 . S
C545 C544 1.377 . S
C545 C551 1.390 . S
C546 H537 0.930 . S
C546 C544 1.384 . S
C546 C547 1.372 . S
C547 C546 1.372 . S
C547 C548 1.400 . S
C547 C552 1.490 . S
C548 H538 0.930 . S
C548 C547 1.400 . S
C548 C551 1.386 . S
H549 C565 0.930 . S
H550 C566 0.931 . S
C551 H539 0.929 . S
C551 C545 1.390 . S
C551 C548 1.386 . S
C552 C547 1.490 . S
C552 C554 1.395 1_545 S
C552 C555 1.403 . S
H553 C559 0.930 . S
C554 H540 0.930 . S
C554 C552 1.395 1_565 S
C554 C557 1.403 . S
C555 C552 1.403 . S
C555 C556 1.524 . S
C555 C559 1.400 . S
C556 H541 0.960 . S
C556 H542 0.960 . S
C556 H543 0.960 . S
C556 C555 1.524 . S
C557 C554 1.403 . S
C557 C558 1.392 . S
C557 C561 1.495 . S
C558 C557 1.392 . S
C558 C559 1.385 1_565 S
C558 C560 1.478 . S
C559 H553 0.930 . S
C559 C555 1.400 . S
C559 C558 1.385 1_545 S
C560 C558 1.478 . S
C560 C562 1.381 . S
C560 C566 1.383 . S
C561 C557 1.495 . S
C561 H567 0.959 . S
C561 H568 0.961 . S
C561 H569 0.960 . S
C562 C560 1.381 . S
C562 C563 1.394 . S
C562 H570 0.930 . S
C563 C562 1.394 . S
C563 C564 1.383 . S
C563 H571 0.929 . S
C564 C563 1.383 . S
C564 C565 1.377 . S
C565 H549 0.930 . S
C565 C564 1.377 . S
C565 C566 1.379 . S
C566 H550 0.931 . S
C566 C560 1.383 . S
C566 C565 1.379 . S
H567 C561 0.959 . S
H568 C561 0.961 . S
H569 C561 0.960 . S
H570 C562 0.930 . S
H571 C563 0.929 . S
H572 C580 0.929 . S
H573 C582 0.930 . S
H574 C584 0.930 . S
H575 C587 0.929 . S
H576 C590 0.930 . S
H577 C592 0.960 . S
H578 C592 0.960 . S
H579 C592 0.960 . S
C580 H572 0.929 . S
C580 C581 1.377 . S
C580 C582 1.384 . S
C581 C580 1.377 . S
C581 C587 1.390 . S
C582 H573 0.930 . S
C582 C580 1.384 . S
C582 C583 1.372 . S
C583 C582 1.372 . S
C583 C584 1.400 . S
C583 C588 1.490 . S
C584 H574 0.930 . S
C584 C583 1.400 . S
C584 C587 1.386 . S
H585 C601 0.930 . S
H586 C602 0.931 . S
C587 H575 0.929 . S
C587 C581 1.390 . S
C587 C584 1.386 . S
C588 C583 1.490 . S
C588 C590 1.395 . S
C588 C591 1.403 . S
H589 C595 0.930 . S
C590 H576 0.930 . S
C590 C588 1.395 . S
C590 C593 1.403 . S
C591 C588 1.403 . S
C591 C592 1.524 . S
C591 C595 1.400 . S
C592 H577 0.960 . S
C592 H578 0.960 . S
C592 H579 0.960 . S
C592 C591 1.524 . S
C593 C590 1.403 . S
C593 C594 1.392 . S
C593 C597 1.495 . S
C594 C593 1.392 . S
C594 C595 1.385 . S
C594 C596 1.478 . S
C595 H589 0.930 . S
C595 C591 1.400 . S
C595 C594 1.385 . S
C596 C594 1.478 . S
C596 C598 1.381 . S
C596 C602 1.383 . S
C597 C593 1.495 . S
C597 H603 0.959 . S
C597 H604 0.961 . S
C597 H605 0.960 . S
C598 C596 1.381 . S
C598 C599 1.394 . S
C598 H606 0.930 . S
C599 C598 1.394 . S
C599 C600 1.383 . S
C599 H607 0.929 . S
C600 C599 1.383 . S
C600 C601 1.377 . S
C601 H585 0.930 . S
C601 C600 1.377 . S
C601 C602 1.379 . S
C602 H586 0.931 . S
C602 C596 1.383 . S
C602 C601 1.379 . S
H603 C597 0.959 . S
H604 C597 0.961 . S
H605 C597 0.960 . S
H606 C598 0.930 . S
H607 C599 0.929 . S
H608 C616 0.929 . S
H609 C618 0.930 . S
H610 C620 0.930 . S
H611 C623 0.929 . S
H612 C626 0.930 . S
H613 C628 0.960 . S
H614 C628 0.960 . S
H615 C628 0.960 . S
C616 H608 0.929 . S
C616 C617 1.377 . S
C616 C618 1.384 . S
C617 C616 1.377 . S
C617 C623 1.390 . S
C618 H609 0.930 . S
C618 C616 1.384 . S
C618 C619 1.372 . S
C619 C618 1.372 . S
C619 C620 1.400 . S
C619 C624 1.490 . S
C620 H610 0.930 . S
C620 C619 1.400 . S
C620 C623 1.386 . S
H621 C637 0.930 . S
H622 C638 0.931 . S
C623 H611 0.929 . S
C623 C617 1.390 . S
C623 C620 1.386 . S
C624 C619 1.490 . S
C624 C626 1.395 . S
C624 C627 1.403 . S
H625 C631 0.930 . S
C626 H612 0.930 . S
C626 C624 1.395 . S
C626 C629 1.403 . S
C627 C624 1.403 . S
C627 C628 1.524 . S
C627 C631 1.400 . S
C628 H613 0.960 . S
C628 H614 0.960 . S
C628 H615 0.960 . S
C628 C627 1.524 . S
C629 C626 1.403 . S
C629 C630 1.392 . S
C629 C633 1.495 . S
C630 C629 1.392 . S
C630 C631 1.385 . S
C630 C632 1.478 . S
C631 H625 0.930 . S
C631 C627 1.400 . S
C631 C630 1.385 . S
C632 C630 1.478 . S
C632 C634 1.381 . S
C632 C638 1.383 . S
C633 C629 1.495 . S
C633 H639 0.959 . S
C633 H640 0.961 . S
C633 H641 0.960 . S
C634 C632 1.381 . S
C634 C635 1.394 . S
C634 H642 0.930 . S
C635 C634 1.394 . S
C635 C636 1.383 . S
C635 H643 0.929 . S
C636 C635 1.383 . S
C636 C637 1.377 . S
C637 H621 0.930 . S
C637 C636 1.377 . S
C637 C638 1.379 . S
C638 H622 0.931 . S
C638 C632 1.383 . S
C638 C637 1.379 . S
H639 C633 0.959 . S
H640 C633 0.961 . S
H641 C633 0.960 . S
H642 C634 0.930 . S
H643 C635 0.929 . S
H644 C652 0.929 . S
H645 C654 0.930 . S
H646 C656 0.930 . S
H647 C659 0.929 . S
H648 C662 0.930 . S
H649 C664 0.960 . S
H650 C664 0.960 . S
H651 C664 0.960 . S
C652 H644 0.929 . S
C652 C653 1.377 . S
C652 C654 1.384 . S
C653 C652 1.377 . S
C653 C659 1.390 . S
C654 H645 0.930 . S
C654 C652 1.384 . S
C654 C655 1.372 . S
C655 C654 1.372 . S
C655 C656 1.400 . S
C655 C660 1.490 . S
C656 H646 0.930 . S
C656 C655 1.400 . S
C656 C659 1.386 . S
H657 C673 0.930 . S
H658 C674 0.931 . S
C659 H647 0.929 . S
C659 C653 1.390 . S
C659 C656 1.386 . S
C660 C655 1.490 . S
C660 C662 1.395 . S
C660 C663 1.403 . S
H661 C667 0.930 . S
C662 H648 0.930 . S
C662 C660 1.395 . S
C662 C665 1.403 . S
C663 C660 1.403 . S
C663 C664 1.524 . S
C663 C667 1.400 . S
C664 H649 0.960 . S
C664 H650 0.960 . S
C664 H651 0.960 . S
C664 C663 1.524 . S
C665 C662 1.403 . S
C665 C666 1.392 . S
C665 C669 1.495 . S
C666 C665 1.392 . S
C666 C667 1.385 . S
C666 C668 1.478 . S
C667 H661 0.930 . S
C667 C663 1.400 . S
C667 C666 1.385 . S
C668 C666 1.478 . S
C668 C670 1.381 . S
C668 C674 1.383 . S
C669 C665 1.495 . S
C669 H675 0.959 . S
C669 H676 0.961 . S
C669 H677 0.960 . S
C670 C668 1.381 . S
C670 C671 1.394 . S
C670 H678 0.930 . S
C671 C670 1.394 . S
C671 C672 1.383 . S
C671 H679 0.929 . S
C672 C671 1.383 . S
C672 C673 1.377 . S
C673 H657 0.930 . S
C673 C672 1.377 . S
C673 C674 1.379 . S
C674 H658 0.931 . S
C674 C668 1.383 . S
C674 C673 1.379 . S
H675 C669 0.959 . S
H676 C669 0.961 . S
H677 C669 0.960 . S
H678 C670 0.930 . S
H679 C671 0.929 . S
H680 C688 0.929 . S
H681 C690 0.930 . S
H682 C692 0.930 . S
H683 C695 0.929 . S
H684 C698 0.930 . S
H685 C700 0.960 . S
H686 C700 0.960 . S
H687 C700 0.960 . S
C688 H680 0.929 . S
C688 C689 1.377 . S
C688 C690 1.384 . S
C689 C688 1.377 . S
C689 C695 1.390 . S
C690 H681 0.930 . S
C690 C688 1.384 . S
C690 C691 1.372 . S
C691 C690 1.372 . S
C691 C692 1.400 . S
C691 C696 1.490 . S
C692 H682 0.930 . S
C692 C691 1.400 . S
C692 C695 1.386 . S
H693 C709 0.930 . S
H694 C710 0.931 . S
C695 H683 0.929 . S
C695 C689 1.390 . S
C695 C692 1.386 . S
C696 C691 1.490 . S
C696 C698 1.395 . S
C696 C699 1.403 . S
H697 C703 0.930 . S
C698 H684 0.930 . S
C698 C696 1.395 . S
C698 C701 1.403 . S
C699 C696 1.403 . S
C699 C700 1.524 . S
C699 C703 1.400 . S
C700 H685 0.960 . S
C700 H686 0.960 . S
C700 H687 0.960 . S
C700 C699 1.524 . S
C701 C698 1.403 . S
C701 C702 1.392 . S
C701 C705 1.495 . S
C702 C701 1.392 . S
C702 C703 1.385 . S
C702 C704 1.478 . S
C703 H697 0.930 . S
C703 C699 1.400 . S
C703 C702 1.385 . S
C704 C702 1.478 . S
C704 C706 1.381 . S
C704 C710 1.383 . S
C705 C701 1.495 . S
C705 H711 0.959 . S
C705 H712 0.961 . S
C705 H713 0.960 . S
C706 C704 1.381 . S
C706 C707 1.394 . S
C706 H714 0.930 . S
C707 C706 1.394 . S
C707 C708 1.383 . S
C707 H715 0.929 . S
C708 C707 1.383 . S
C708 C709 1.377 . S
C709 H693 0.930 . S
C709 C708 1.377 . S
C709 C710 1.379 . S
C710 H694 0.931 . S
C710 C704 1.383 . S
C710 C709 1.379 . S
H711 C705 0.959 . S
H712 C705 0.961 . S
H713 C705 0.960 . S
H714 C706 0.930 . S
H715 C707 0.929 . S
H716 C724 0.929 . S
H717 C726 0.930 . S
H718 C728 0.930 . S
H719 C731 0.929 . S
H720 C734 0.930 . S
H721 C736 0.960 . S
H722 C736 0.960 1_455 S
H723 C736 0.960 . S
C724 H716 0.929 . S
C724 C725 1.377 1_455 S
C724 C726 1.384 . S
C725 C724 1.377 1_655 S
C725 C731 1.390 . S
C726 H717 0.930 . S
C726 C724 1.384 . S
C726 C727 1.372 1_455 S
C727 C726 1.372 1_655 S
C727 C728 1.400 . S
C727 C732 1.490 . S
C728 H718 0.930 . S
C728 C727 1.400 . S
C728 C731 1.386 . S
H729 C745 0.930 . S
H730 C746 0.931 . S
C731 H719 0.929 . S
C731 C725 1.390 . S
C731 C728 1.386 . S
C732 C727 1.490 . S
C732 C734 1.395 . S
C732 C735 1.403 . S
H733 C739 0.930 . S
C734 H720 0.930 . S
C734 C732 1.395 . S
C734 C737 1.403 1_554 S
C735 C732 1.403 . S
C735 C736 1.524 . S
C735 C739 1.400 1_554 S
C736 H721 0.960 . S
C736 H722 0.960 1_655 S
C736 H723 0.960 . S
C736 C735 1.524 . S
C737 C734 1.403 1_556 S
C737 C738 1.392 . S
C737 C741 1.495 . S
C738 C737 1.392 . S
C738 C739 1.385 . S
C738 C740 1.478 . S
C739 H733 0.930 . S
C739 C735 1.400 1_556 S
C739 C738 1.385 . S
C740 C738 1.478 . S
C740 C742 1.381 1_655 S
C740 C746 1.383 . S
C741 C737 1.495 . S
C741 H747 0.959 . S
C741 H748 0.961 . S
C741 H749 0.960 1_655 S
C742 C740 1.381 1_455 S
C742 C743 1.394 . S
C742 H750 0.930 . S
C743 C742 1.394 . S
C743 C744 1.383 1_455 S
C743 H751 0.929 . S
C744 C743 1.383 1_655 S
C744 C745 1.377 . S
C745 H729 0.930 . S
C745 C744 1.377 . S
C745 C746 1.379 . S
C746 H730 0.931 . S
C746 C740 1.383 . S
C746 C745 1.379 . S
H747 C741 0.959 . S
H748 C741 0.961 . S
H749 C741 0.960 1_455 S
H750 C742 0.930 . S
H751 C743 0.929 . S
H752 C760 0.929 . S
H753 C762 0.930 . S
H754 C764 0.930 . S
H755 C767 0.929 . S
H756 C770 0.930 . S
H757 C772 0.960 . S
H758 C772 0.960 . S
H759 C772 0.960 . S
C760 H752 0.929 . S
C760 C761 1.377 . S
C760 C762 1.384 . S
C761 C760 1.377 . S
C761 C767 1.390 . S
C762 H753 0.930 . S
C762 C760 1.384 . S
C762 C763 1.372 . S
C763 C762 1.372 . S
C763 C764 1.400 . S
C763 C768 1.490 . S
C764 H754 0.930 . S
C764 C763 1.400 . S
C764 C767 1.386 . S
H765 C781 0.930 . S
H766 C782 0.931 . S
C767 H755 0.929 . S
C767 C761 1.390 . S
C767 C764 1.386 . S
C768 C763 1.490 . S
C768 C770 1.395 . S
C768 C771 1.403 . S
H769 C775 0.930 . S
C770 H756 0.930 . S
C770 C768 1.395 . S
C770 C773 1.403 . S
C771 C768 1.403 . S
C771 C772 1.524 . S
C771 C775 1.400 . S
C772 H757 0.960 . S
C772 H758 0.960 . S
C772 H759 0.960 . S
C772 C771 1.524 . S
C773 C770 1.403 . S
C773 C774 1.392 . S
C773 C777 1.495 . S
C774 C773 1.392 . S
C774 C775 1.385 . S
C774 C776 1.478 . S
C775 H769 0.930 . S
C775 C771 1.400 . S
C775 C774 1.385 . S
C776 C774 1.478 . S
C776 C778 1.381 . S
C776 C782 1.383 . S
C777 C773 1.495 . S
C777 H783 0.959 . S
C777 H784 0.961 . S
C777 H785 0.960 . S
C778 C776 1.381 . S
C778 C779 1.394 . S
C778 H786 0.930 . S
C779 C778 1.394 . S
C779 C780 1.383 . S
C779 H787 0.929 . S
C780 C779 1.383 . S
C780 C781 1.377 . S
C781 H765 0.930 . S
C781 C780 1.377 . S
C781 C782 1.379 . S
C782 H766 0.931 . S
C782 C776 1.383 . S
C782 C781 1.379 . S
H783 C777 0.959 . S
H784 C777 0.961 . S
H785 C777 0.960 . S
H786 C778 0.930 . S
H787 C779 0.929 . S
H788 C796 0.929 1_545 S
H789 C798 0.930 . S
H790 C800 0.930 . S
H791 C803 0.929 . S
H792 C806 0.930 . S
H793 C808 0.960 . S
H794 C808 0.960 . S
H795 C808 0.960 . S
C796 H788 0.929 1_565 S
C796 C797 1.377 . S
C796 C798 1.384 . S
C797 C796 1.377 . S
C797 C803 1.390 . S
C798 H789 0.930 . S
C798 C796 1.384 . S
C798 C799 1.372 . S
C799 C798 1.372 . S
C799 C800 1.400 . S
C799 C804 1.490 . S
C800 H790 0.930 . S
C800 C799 1.400 . S
C800 C803 1.386 . S
H801 C817 0.930 . S
H802 C818 0.931 . S
C803 H791 0.929 . S
C803 C797 1.390 . S
C803 C800 1.386 . S
C804 C799 1.490 . S
C804 C806 1.395 . S
C804 C807 1.403 . S
H805 C811 0.930 . S
C806 H792 0.930 . S
C806 C804 1.395 . S
C806 C809 1.403 . S
C807 C804 1.403 . S
C807 C808 1.524 . S
C807 C811 1.400 . S
C808 H793 0.960 . S
C808 H794 0.960 . S
C808 H795 0.960 . S
C808 C807 1.524 . S
C809 C806 1.403 . S
C809 C810 1.392 . S
C809 C813 1.495 . S
C810 C809 1.392 . S
C810 C811 1.385 . S
C810 C812 1.478 . S
C811 H805 0.930 . S
C811 C807 1.400 . S
C811 C810 1.385 . S
C812 C810 1.478 . S
C812 C814 1.381 . S
C812 C818 1.383 . S
C813 C809 1.495 . S
C813 H819 0.959 . S
C813 H820 0.961 . S
C813 H821 0.960 . S
C814 C812 1.381 . S
C814 C815 1.394 . S
C814 H822 0.930 . S
C815 C814 1.394 . S
C815 C816 1.383 . S
C815 H823 0.929 . S
C816 C815 1.383 . S
C816 C817 1.377 . S
C817 H801 0.930 . S
C817 C816 1.377 . S
C817 C818 1.379 . S
C818 H802 0.931 . S
C818 C812 1.383 . S
C818 C817 1.379 . S
H819 C813 0.959 . S
H820 C813 0.961 . S
H821 C813 0.960 . S
H822 C814 0.930 . S
H823 C815 0.929 . S
H824 C832 0.929 . S
H825 C834 0.930 . S
H826 C836 0.930 . S
H827 C839 0.929 . S
H828 C842 0.930 . S
H829 C844 0.960 . S
H830 C844 0.960 . S
H831 C844 0.960 . S
C832 H824 0.929 . S
C832 C833 1.377 . S
C832 C834 1.384 . S
C833 C832 1.377 . S
C833 C839 1.390 . S
C834 H825 0.930 . S
C834 C832 1.384 . S
C834 C835 1.372 . S
C835 C834 1.372 . S
C835 C836 1.400 . S
C835 C840 1.490 . S
C836 H826 0.930 . S
C836 C835 1.400 . S
C836 C839 1.386 . S
H837 C853 0.930 . S
H838 C854 0.931 . S
C839 H827 0.929 . S
C839 C833 1.390 . S
C839 C836 1.386 . S
C840 C835 1.490 . S
C840 C842 1.395 . S
C840 C843 1.403 . S
H841 C847 0.930 . S
C842 H828 0.930 . S
C842 C840 1.395 . S
C842 C845 1.403 . S
C843 C840 1.403 . S
C843 C844 1.524 . S
C843 C847 1.400 . S
C844 H829 0.960 . S
C844 H830 0.960 . S
C844 H831 0.960 . S
C844 C843 1.524 . S
C845 C842 1.403 . S
C845 C846 1.392 . S
C845 C849 1.495 . S
C846 C845 1.392 . S
C846 C847 1.385 . S
C846 C848 1.478 . S
C847 H841 0.930 . S
C847 C843 1.400 . S
C847 C846 1.385 . S
C848 C846 1.478 . S
C848 C850 1.381 . S
C848 C854 1.383 . S
C849 C845 1.495 . S
C849 H855 0.959 . S
C849 H856 0.961 . S
C849 H857 0.960 . S
C850 C848 1.381 . S
C850 C851 1.394 . S
C850 H858 0.930 . S
C851 C850 1.394 . S
C851 C852 1.383 . S
C851 H859 0.929 . S
C852 C851 1.383 . S
C852 C853 1.377 . S
C853 H837 0.930 . S
C853 C852 1.377 . S
C853 C854 1.379 . S
C854 H838 0.931 . S
C854 C848 1.383 . S
C854 C853 1.379 . S
H855 C849 0.959 . S
H856 C849 0.961 . S
H857 C849 0.960 . S
H858 C850 0.930 . S
H859 C851 0.929 . S
H860 C868 0.929 . S
H861 C870 0.930 . S
H862 C872 0.930 . S
H863 C875 0.929 . S
H864 C878 0.930 . S
H865 C880 0.960 . S
H866 C880 0.960 . S
H867 C880 0.960 . S
C868 H860 0.929 . S
C868 C869 1.377 . S
C868 C870 1.384 . S
C869 C868 1.377 . S
C869 C875 1.390 . S
C870 H861 0.930 . S
C870 C868 1.384 . S
C870 C871 1.372 . S
C871 C870 1.372 . S
C871 C872 1.400 . S
C871 C876 1.490 . S
C872 H862 0.930 . S
C872 C871 1.400 . S
C872 C875 1.386 . S
H873 C889 0.930 1_565 S
H874 C890 0.931 . S
C875 H863 0.929 . S
C875 C869 1.390 . S
C875 C872 1.386 . S
C876 C871 1.490 . S
C876 C878 1.395 . S
C876 C879 1.403 . S
H877 C883 0.930 . S
C878 H864 0.930 . S
C878 C876 1.395 . S
C878 C881 1.403 . S
C879 C876 1.403 . S
C879 C880 1.524 . S
C879 C883 1.400 . S
C880 H865 0.960 . S
C880 H866 0.960 . S
C880 H867 0.960 . S
C880 C879 1.524 . S
C881 C878 1.403 . S
C881 C882 1.392 . S
C881 C885 1.495 . S
C882 C881 1.392 . S
C882 C883 1.385 . S
C882 C884 1.478 . S
C883 H877 0.930 . S
C883 C879 1.400 . S
C883 C882 1.385 . S
C884 C882 1.478 . S
C884 C886 1.381 . S
C884 C890 1.383 . S
C885 C881 1.495 . S
C885 H891 0.959 . S
C885 H892 0.961 . S
C885 H893 0.960 . S
C886 C884 1.381 . S
C886 C887 1.394 . S
C886 H894 0.930 . S
C887 C886 1.394 . S
C887 C888 1.383 . S
C887 H895 0.929 . S
C888 C887 1.383 . S
C888 C889 1.377 . S
C889 H873 0.930 1_545 S
C889 C888 1.377 . S
C889 C890 1.379 . S
C890 H874 0.931 . S
C890 C884 1.383 . S
C890 C889 1.379 . S
H891 C885 0.959 . S
H892 C885 0.961 . S
H893 C885 0.960 . S
H894 C886 0.930 . S
H895 C887 0.929 . S
H896 C904 0.929 . S
H897 C906 0.930 . S
H898 C908 0.930 . S
H899 C911 0.929 . S
H900 C914 0.930 . S
H901 C916 0.960 . S
H902 C916 0.960 . S
H903 C916 0.960 . S
C904 H896 0.929 . S
C904 C905 1.377 . S
C904 C906 1.384 . S
C905 C904 1.377 . S
C905 C911 1.390 . S
C906 H897 0.930 . S
C906 C904 1.384 . S
C906 C907 1.372 . S
C907 C906 1.372 . S
C907 C908 1.400 . S
C907 C912 1.490 . S
C908 H898 0.930 . S
C908 C907 1.400 . S
C908 C911 1.386 . S
H909 C925 0.930 . S
H910 C926 0.931 . S
C911 H899 0.929 . S
C911 C905 1.390 . S
C911 C908 1.386 . S
C912 C907 1.490 . S
C912 C914 1.395 . S
C912 C915 1.403 . S
H913 C919 0.930 . S
C914 H900 0.930 . S
C914 C912 1.395 . S
C914 C917 1.403 . S
C915 C912 1.403 . S
C915 C916 1.524 . S
C915 C919 1.400 . S
C916 H901 0.960 . S
C916 H902 0.960 . S
C916 H903 0.960 . S
C916 C915 1.524 . S
C917 C914 1.403 . S
C917 C918 1.392 . S
C917 C921 1.495 . S
C918 C917 1.392 . S
C918 C919 1.385 . S
C918 C920 1.478 . S
C919 H913 0.930 . S
C919 C915 1.400 . S
C919 C918 1.385 . S
C920 C918 1.478 . S
C920 C922 1.381 . S
C920 C926 1.383 . S
C921 C917 1.495 . S
C921 H927 0.959 . S
C921 H928 0.961 . S
C921 H929 0.960 . S
C922 C920 1.381 . S
C922 C923 1.394 . S
C922 H930 0.930 . S
C923 C922 1.394 . S
C923 C924 1.383 . S
C923 H931 0.929 . S
C924 C923 1.383 . S
C924 C925 1.377 . S
C925 H909 0.930 . S
C925 C924 1.377 . S
C925 C926 1.379 . S
C926 H910 0.931 . S
C926 C920 1.383 . S
C926 C925 1.379 . S
H927 C921 0.959 . S
H928 C921 0.961 . S
H929 C921 0.960 . S
H930 C922 0.930 . S
H931 C923 0.929 . S
H932 C940 0.929 . S
H933 C942 0.930 . S
H934 C944 0.930 . S
H935 C947 0.929 1_545 S
H936 C950 0.930 . S
H937 C952 0.960 . S
H938 C952 0.960 . S
H939 C952 0.960 . S
C940 H932 0.929 . S
C940 C941 1.377 . S
C940 C942 1.384 . S
C941 C940 1.377 . S
C941 C947 1.390 . S
C942 H933 0.930 . S
C942 C940 1.384 . S
C942 C943 1.372 . S
C943 C942 1.372 . S
C943 C944 1.400 . S
C943 C948 1.490 . S
C944 H934 0.930 . S
C944 C943 1.400 . S
C944 C947 1.386 . S
H945 C961 0.930 . S
H946 C962 0.931 . S
C947 H935 0.929 1_565 S
C947 C941 1.390 . S
C947 C944 1.386 . S
C948 C943 1.490 . S
C948 C950 1.395 . S
C948 C951 1.403 . S
H949 C955 0.930 . S
C950 H936 0.930 . S
C950 C948 1.395 . S
C950 C953 1.403 . S
C951 C948 1.403 . S
C951 C952 1.524 . S
C951 C955 1.400 . S
C952 H937 0.960 . S
C952 H938 0.960 . S
C952 H939 0.960 . S
C952 C951 1.524 . S
C953 C950 1.403 . S
C953 C954 1.392 . S
C953 C957 1.495 . S
C954 C953 1.392 . S
C954 C955 1.385 . S
C954 C956 1.478 . S
C955 H949 0.930 . S
C955 C951 1.400 . S
C955 C954 1.385 . S
C956 C954 1.478 . S
C956 C958 1.381 . S
C956 C962 1.383 . S
C957 C953 1.495 . S
C957 H963 0.959 . S
C957 H964 0.961 . S
C957 H965 0.960 . S
C958 C956 1.381 . S
C958 C959 1.394 . S
C958 H966 0.930 . S
C959 C958 1.394 . S
C959 C960 1.383 . S
C959 H967 0.929 . S
C960 C959 1.383 . S
C960 C961 1.377 . S
C961 H945 0.930 . S
C961 C960 1.377 . S
C961 C962 1.379 . S
C962 H946 0.931 . S
C962 C956 1.383 . S
C962 C961 1.379 . S
H963 C957 0.959 . S
H964 C957 0.961 . S
H965 C957 0.960 . S
H966 C958 0.930 . S
H967 C959 0.929 . S
H968 C976 0.929 . S
H969 C978 0.930 . S
H970 C980 0.930 . S
H971 C983 0.929 . S
H972 C986 0.930 . S
H973 C988 0.960 . S
H974 C988 0.960 . S
H975 C988 0.960 . S
C976 H968 0.929 . S
C976 C977 1.377 . S
C976 C978 1.384 . S
C977 C976 1.377 . S
C977 C983 1.390 . S
C978 H969 0.930 . S
C978 C976 1.384 . S
C978 C979 1.372 . S
C979 C978 1.372 . S
C979 C980 1.400 . S
C979 C984 1.490 . S
C980 H970 0.930 . S
C980 C979 1.400 . S
C980 C983 1.386 . S
H981 C997 0.930 . S
H982 C998 0.931 . S
C983 H971 0.929 . S
C983 C977 1.390 . S
C983 C980 1.386 . S
C984 C979 1.490 . S
C984 C986 1.395 . S
C984 C987 1.403 . S
H985 C991 0.930 . S
C986 H972 0.930 . S
C986 C984 1.395 . S
C986 C989 1.403 . S
C987 C984 1.403 . S
C987 C988 1.524 . S
C987 C991 1.400 . S
C988 H973 0.960 . S
C988 H974 0.960 . S
C988 H975 0.960 . S
C988 C987 1.524 . S
C989 C986 1.403 . S
C989 C990 1.392 . S
C989 C993 1.495 . S
C990 C989 1.392 . S
C990 C991 1.385 . S
C990 C992 1.478 . S
C991 H985 0.930 . S
C991 C987 1.400 . S
C991 C990 1.385 . S
C992 C990 1.478 . S
C992 C994 1.381 . S
C992 C998 1.383 . S
C993 C989 1.495 . S
C993 H999 0.959 . S
C993 H1000 0.961 . S
C993 H1001 0.960 . S
C994 C992 1.381 . S
C994 C995 1.394 . S
C994 H1002 0.930 . S
C995 C994 1.394 . S
C995 C996 1.383 . S
C995 H1003 0.929 . S
C996 C995 1.383 . S
C996 C997 1.377 . S
C997 H981 0.930 . S
C997 C996 1.377 . S
C997 C998 1.379 . S
C998 H982 0.931 . S
C998 C992 1.383 . S
C998 C997 1.379 . S
H999 C993 0.959 . S
H1000 C993 0.961 . S
H1001 C993 0.960 . S
H1002 C994 0.930 . S
H1003 C995 0.929 . S
H1004 C1012 0.929 . S
H1005 C1014 0.930 . S
H1006 C1016 0.930 . S
H1007 C1019 0.929 1_565 S
H1008 C1022 0.930 . S
H1009 C1024 0.960 . S
H1010 C1024 0.960 . S
H1011 C1024 0.960 . S
C1012 H1004 0.929 . S
C1012 C1013 1.377 . S
C1012 C1014 1.384 . S
C1013 C1012 1.377 . S
C1013 C1019 1.390 . S
C1014 H1005 0.930 . S
C1014 C1012 1.384 . S
C1014 C1015 1.372 . S
C1015 C1014 1.372 . S
C1015 C1016 1.400 . S
C1015 C1020 1.490 . S
C1016 H1006 0.930 . S
C1016 C1015 1.400 . S
C1016 C1019 1.386 . S
H1017 C1033 0.930 . S
H1018 C1034 0.931 . S
C1019 H1007 0.929 1_545 S
C1019 C1013 1.390 . S
C1019 C1016 1.386 . S
C1020 C1015 1.490 . S
C1020 C1022 1.395 . S
C1020 C1023 1.403 . S
H1021 C1027 0.930 . S
C1022 H1008 0.930 . S
C1022 C1020 1.395 . S
C1022 C1025 1.403 . S
C1023 C1020 1.403 . S
C1023 C1024 1.524 . S
C1023 C1027 1.400 . S
C1024 H1009 0.960 . S
C1024 H1010 0.960 . S
C1024 H1011 0.960 . S
C1024 C1023 1.524 . S
C1025 C1022 1.403 . S
C1025 C1026 1.392 . S
C1025 C1029 1.495 . S
C1026 C1025 1.392 . S
C1026 C1027 1.385 . S
C1026 C1028 1.478 . S
C1027 H1021 0.930 . S
C1027 C1023 1.400 . S
C1027 C1026 1.385 . S
C1028 C1026 1.478 . S
C1028 C1030 1.381 . S
C1028 C1034 1.383 . S
C1029 C1025 1.495 . S
C1029 H1035 0.959 . S
C1029 H1036 0.961 . S
C1029 H1037 0.960 . S
C1030 C1028 1.381 . S
C1030 C1031 1.394 . S
C1030 H1038 0.930 . S
C1031 C1030 1.394 . S
C1031 C1032 1.383 . S
C1031 H1039 0.929 . S
C1032 C1031 1.383 . S
C1032 C1033 1.377 . S
C1033 H1017 0.930 . S
C1033 C1032 1.377 . S
C1033 C1034 1.379 . S
C1034 H1018 0.931 . S
C1034 C1028 1.383 . S
C1034 C1033 1.379 . S
H1035 C1029 0.959 . S
H1036 C1029 0.961 . S
H1037 C1029 0.960 . S
H1038 C1030 0.930 . S
H1039 C1031 0.929 . S
H1040 C1048 0.929 . S
H1041 C1050 0.930 . S
H1042 C1052 0.930 . S
H1043 C1055 0.929 . S
H1044 C1058 0.930 . S
H1045 C1060 0.960 . S
H1046 C1060 0.960 . S
H1047 C1060 0.960 . S
C1048 H1040 0.929 . S
C1048 C1049 1.377 . S
C1048 C1050 1.384 . S
C1049 C1048 1.377 . S
C1049 C1055 1.390 . S
C1050 H1041 0.930 . S
C1050 C1048 1.384 . S
C1050 C1051 1.372 . S
C1051 C1050 1.372 . S
C1051 C1052 1.400 . S
C1051 C1056 1.490 . S
C1052 H1042 0.930 . S
C1052 C1051 1.400 . S
C1052 C1055 1.386 . S
H1053 C1069 0.930 . S
H1054 C1070 0.931 . S
C1055 H1043 0.929 . S
C1055 C1049 1.390 . S
C1055 C1052 1.386 . S
C1056 C1051 1.490 . S
C1056 C1058 1.395 . S
C1056 C1059 1.403 . S
H1057 C1063 0.930 . S
C1058 H1044 0.930 . S
C1058 C1056 1.395 . S
C1058 C1061 1.403 . S
C1059 C1056 1.403 . S
C1059 C1060 1.524 . S
C1059 C1063 1.400 . S
C1060 H1045 0.960 . S
C1060 H1046 0.960 . S
C1060 H1047 0.960 . S
C1060 C1059 1.524 . S
C1061 C1058 1.403 . S
C1061 C1062 1.392 . S
C1061 C1065 1.495 . S
C1062 C1061 1.392 . S
C1062 C1063 1.385 . S
C1062 C1064 1.478 . S
C1063 H1057 0.930 . S
C1063 C1059 1.400 . S
C1063 C1062 1.385 . S
C1064 C1062 1.478 . S
C1064 C1066 1.381 . S
C1064 C1070 1.383 . S
C1065 C1061 1.495 . S
C1065 H1071 0.959 . S
C1065 H1072 0.961 . S
C1065 H1073 0.960 . S
C1066 C1064 1.381 . S
C1066 C1067 1.394 . S
C1066 H1074 0.930 . S
C1067 C1066 1.394 . S
C1067 C1068 1.383 . S
C1067 H1075 0.929 . S
C1068 C1067 1.383 . S
C1068 C1069 1.377 . S
C1069 H1053 0.930 . S
C1069 C1068 1.377 . S
C1069 C1070 1.379 . S
C1070 H1054 0.931 . S
C1070 C1064 1.383 . S
C1070 C1069 1.379 . S
H1071 C1065 0.959 . S
H1072 C1065 0.961 . S
H1073 C1065 0.960 . S
H1074 C1066 0.930 . S
H1075 C1067 0.929 . S
H1076 C1084 0.929 . S
H1077 C1086 0.930 . S
H1078 C1088 0.930 . S
H1079 C1091 0.929 . S
H1080 C1094 0.930 . S
H1081 C1096 0.960 . S
H1082 C1096 0.960 . S
H1083 C1096 0.960 . S
C1084 H1076 0.929 . S
C1084 C1085 1.377 . S
C1084 C1086 1.384 . S
C1085 C1084 1.377 . S
C1085 C1091 1.390 . S
C1086 H1077 0.930 . S
C1086 C1084 1.384 . S
C1086 C1087 1.372 . S
C1087 C1086 1.372 . S
C1087 C1088 1.400 . S
C1087 C1092 1.490 . S
C1088 H1078 0.930 . S
C1088 C1087 1.400 . S
C1088 C1091 1.386 . S
H1089 C1105 0.930 . S
H1090 C1106 0.931 . S
C1091 H1079 0.929 . S
C1091 C1085 1.390 . S
C1091 C1088 1.386 . S
C1092 C1087 1.490 . S
C1092 C1094 1.395 . S
C1092 C1095 1.403 . S
H1093 C1099 0.930 . S
C1094 H1080 0.930 . S
C1094 C1092 1.395 . S
C1094 C1097 1.403 . S
C1095 C1092 1.403 . S
C1095 C1096 1.524 . S
C1095 C1099 1.400 . S
C1096 H1081 0.960 . S
C1096 H1082 0.960 . S
C1096 H1083 0.960 . S
C1096 C1095 1.524 . S
C1097 C1094 1.403 . S
C1097 C1098 1.392 . S
C1097 C1101 1.495 . S
C1098 C1097 1.392 . S
C1098 C1099 1.385 . S
C1098 C1100 1.478 . S
C1099 H1093 0.930 . S
C1099 C1095 1.400 . S
C1099 C1098 1.385 . S
C1100 C1098 1.478 . S
C1100 C1102 1.381 . S
C1100 C1106 1.383 1_545 S
C1101 C1097 1.495 . S
C1101 H1107 0.959 . S
C1101 H1108 0.961 . S
C1101 H1109 0.960 . S
C1102 C1100 1.381 . S
C1102 C1103 1.394 . S
C1102 H1110 0.930 . S
C1103 C1102 1.394 . S
C1103 C1104 1.383 1_545 S
C1103 H1111 0.929 . S
C1104 C1103 1.383 1_565 S
C1104 C1105 1.377 . S
C1105 H1089 0.930 . S
C1105 C1104 1.377 . S
C1105 C1106 1.379 . S
C1106 H1090 0.931 . S
C1106 C1100 1.383 1_565 S
C1106 C1105 1.379 . S
H1107 C1101 0.959 . S
H1108 C1101 0.961 . S
H1109 C1101 0.960 . S
H1110 C1102 0.930 . S
H1111 C1103 0.929 . S
H1112 C1120 0.929 . S
H1113 C1122 0.930 . S
H1114 C1124 0.930 . S
H1115 C1127 0.929 . S
H1116 C1130 0.930 . S
H1117 C1132 0.960 . S
H1118 C1132 0.960 . S
H1119 C1132 0.960 . S
C1120 H1112 0.929 . S
C1120 C1121 1.377 . S
C1120 C1122 1.384 . S
C1121 C1120 1.377 . S
C1121 C1127 1.390 . S
C1122 H1113 0.930 . S
C1122 C1120 1.384 . S
C1122 C1123 1.372 . S
C1123 C1122 1.372 . S
C1123 C1124 1.400 . S
C1123 C1128 1.490 . S
C1124 H1114 0.930 . S
C1124 C1123 1.400 . S
C1124 C1127 1.386 . S
H1125 C1141 0.930 . S
H1126 C1142 0.931 . S
C1127 H1115 0.929 . S
C1127 C1121 1.390 . S
C1127 C1124 1.386 . S
C1128 C1123 1.490 . S
C1128 C1130 1.395 . S
C1128 C1131 1.403 . S
H1129 C1135 0.930 . S
C1130 H1116 0.930 . S
C1130 C1128 1.395 . S
C1130 C1133 1.403 . S
C1131 C1128 1.403 . S
C1131 C1132 1.524 . S
C1131 C1135 1.400 . S
C1132 H1117 0.960 . S
C1132 H1118 0.960 . S
C1132 H1119 0.960 . S
C1132 C1131 1.524 . S
C1133 C1130 1.403 . S
C1133 C1134 1.392 . S
C1133 C1137 1.495 . S
C1134 C1133 1.392 . S
C1134 C1135 1.385 . S
C1134 C1136 1.478 . S
C1135 H1129 0.930 . S
C1135 C1131 1.400 . S
C1135 C1134 1.385 . S
C1136 C1134 1.478 . S
C1136 C1138 1.381 . S
C1136 C1142 1.383 . S
C1137 C1133 1.495 . S
C1137 H1143 0.959 . S
C1137 H1144 0.961 . S
C1137 H1145 0.960 . S
C1138 C1136 1.381 . S
C1138 C1139 1.394 . S
C1138 H1146 0.930 . S
C1139 C1138 1.394 . S
C1139 C1140 1.383 . S
C1139 H1147 0.929 . S
C1140 C1139 1.383 . S
C1140 C1141 1.377 . S
C1141 H1125 0.930 . S
C1141 C1140 1.377 . S
C1141 C1142 1.379 . S
C1142 H1126 0.931 . S
C1142 C1136 1.383 . S
C1142 C1141 1.379 . S
H1143 C1137 0.959 . S
H1144 C1137 0.961 . S
H1145 C1137 0.960 . S
H1146 C1138 0.930 . S
H1147 C1139 0.929 . S
H1148 C1156 0.929 . S
H1149 C1158 0.930 . S
H1150 C1160 0.930 . S
H1151 C1163 0.929 . S
H1152 C1166 0.930 . S
H1153 C1168 0.960 . S
H1154 C1168 0.960 . S
H1155 C1168 0.960 . S
C1156 H1148 0.929 . S
C1156 C1157 1.377 . S
C1156 C1158 1.384 . S
C1157 C1156 1.377 . S
C1157 C1163 1.390 . S
C1158 H1149 0.930 . S
C1158 C1156 1.384 . S
C1158 C1159 1.372 . S
C1159 C1158 1.372 . S
C1159 C1160 1.400 . S
C1159 C1164 1.490 . S
C1160 H1150 0.930 . S
C1160 C1159 1.400 . S
C1160 C1163 1.386 . S
H1161 C1177 0.928 1_565 S
H1162 C1178 0.931 . S
C1163 H1151 0.929 . S
C1163 C1157 1.390 . S
C1163 C1160 1.386 . S
C1164 C1159 1.490 . S
C1164 C1166 1.395 . S
C1164 C1167 1.403 . S
H1165 C1171 0.930 . S
C1166 H1152 0.930 . S
C1166 C1164 1.395 . S
C1166 C1169 1.403 . S
C1167 C1164 1.403 . S
C1167 C1168 1.524 . S
C1167 C1171 1.400 . S
C1168 H1153 0.960 . S
C1168 H1154 0.960 . S
C1168 H1155 0.960 . S
C1168 C1167 1.524 . S
C1169 C1166 1.403 . S
C1169 C1170 1.392 . S
C1169 C1173 1.495 . S
C1170 C1169 1.392 . S
C1170 C1171 1.385 . S
C1170 C1172 1.478 . S
C1171 H1165 0.930 . S
C1171 C1167 1.400 . S
C1171 C1170 1.385 . S
C1172 C1170 1.478 . S
C1172 C1174 1.381 1_565 S
C1172 C1178 1.383 . S
C1173 C1169 1.495 . S
C1173 H1179 0.959 . S
C1173 H1180 0.961 . S
C1173 H1181 0.960 . S
C1174 C1172 1.381 1_545 S
C1174 C1175 1.394 . S
C1174 H1182 0.930 . S
C1175 C1174 1.394 . S
C1175 C1176 1.383 . S
C1175 H1183 0.929 . S
C1176 C1175 1.383 . S
C1176 C1177 1.379 . S
C1177 H1161 0.928 1_545 S
C1177 C1176 1.379 . S
C1177 C1178 1.377 1_545 S
C1178 H1162 0.931 . S
C1178 C1172 1.383 . S
C1178 C1177 1.377 1_565 S
H1179 C1173 0.959 . S
H1180 C1173 0.961 . S
H1181 C1173 0.960 . S
H1182 C1174 0.930 . S
H1183 C1175 0.929 . S
H1184 C1192 0.929 . S
H1185 C1194 0.930 . S
H1186 C1196 0.930 . S
H1187 C1199 0.929 . S
H1188 C1202 0.930 . S
H1189 C1204 0.960 . S
H1190 C1204 0.960 . S
H1191 C1204 0.960 . S
C1192 H1184 0.929 . S
C1192 C1193 1.377 . S
C1192 C1194 1.384 . S
C1193 C1192 1.377 . S
C1193 C1199 1.390 . S
C1194 H1185 0.930 . S
C1194 C1192 1.384 . S
C1194 C1195 1.372 . S
C1195 C1194 1.372 . S
C1195 C1196 1.400 . S
C1195 C1200 1.490 . S
C1196 H1186 0.930 . S
C1196 C1195 1.400 . S
C1196 C1199 1.386 . S
H1197 C1213 0.930 . S
H1198 C1214 0.931 . S
C1199 H1187 0.929 . S
C1199 C1193 1.390 . S
C1199 C1196 1.386 . S
C1200 C1195 1.490 . S
C1200 C1202 1.395 . S
C1200 C1203 1.403 . S
H1201 C1207 0.930 . S
C1202 H1188 0.930 . S
C1202 C1200 1.395 . S
C1202 C1205 1.403 . S
C1203 C1200 1.403 . S
C1203 C1204 1.524 . S
C1203 C1207 1.400 . S
C1204 H1189 0.960 . S
C1204 H1190 0.960 . S
C1204 H1191 0.960 . S
C1204 C1203 1.524 . S
C1205 C1202 1.403 . S
C1205 C1206 1.392 . S
C1205 C1209 1.495 . S
C1206 C1205 1.392 . S
C1206 C1207 1.385 . S
C1206 C1208 1.478 . S
C1207 H1201 0.930 . S
C1207 C1203 1.400 . S
C1207 C1206 1.385 . S
C1208 C1206 1.478 . S
C1208 C1210 1.381 . S
C1208 C1214 1.383 . S
C1209 C1205 1.495 . S
C1209 H1215 0.959 . S
C1209 H1216 0.961 . S
C1209 H1217 0.960 . S
C1210 C1208 1.381 . S
C1210 C1211 1.394 . S
C1210 H1218 0.930 . S
C1211 C1210 1.394 . S
C1211 C1212 1.383 . S
C1211 H1219 0.929 . S
C1212 C1211 1.383 . S
C1212 C1213 1.377 . S
C1213 H1197 0.930 . S
C1213 C1212 1.377 . S
C1213 C1214 1.379 . S
C1214 H1198 0.931 . S
C1214 C1208 1.383 . S
C1214 C1213 1.379 . S
H1215 C1209 0.959 . S
H1216 C1209 0.961 . S
H1217 C1209 0.960 . S
H1218 C1210 0.930 . S
H1219 C1211 0.929 . S
H1220 C1228 0.929 . S
H1221 C1230 0.930 . S
H1222 C1232 0.930 . S
H1223 C1235 0.929 . S
H1224 C1238 0.930 . S
H1225 C1240 0.960 . S
H1226 C1240 0.960 . S
H1227 C1240 0.960 . S
C1228 H1220 0.929 . S
C1228 C1229 1.377 . S
C1228 C1230 1.384 1_565 S
C1229 C1228 1.377 . S
C1229 C1235 1.390 . S
C1230 H1221 0.930 . S
C1230 C1228 1.384 1_545 S
C1230 C1231 1.372 . S
C1231 C1230 1.372 . S
C1231 C1232 1.400 . S
C1231 C1236 1.490 . S
C1232 H1222 0.930 . S
C1232 C1231 1.400 . S
C1232 C1235 1.386 1_545 S
H1233 C1249 0.930 . S
H1234 C1250 0.931 . S
C1235 H1223 0.929 . S
C1235 C1229 1.390 . S
C1235 C1232 1.386 1_565 S
C1236 C1231 1.490 . S
C1236 C1238 1.395 . S
C1236 C1239 1.403 . S
H1237 C1243 0.930 . S
C1238 H1224 0.930 . S
C1238 C1236 1.395 . S
C1238 C1241 1.403 . S
C1239 C1236 1.403 . S
C1239 C1240 1.524 . S
C1239 C1243 1.400 . S
C1240 H1225 0.960 . S
C1240 H1226 0.960 . S
C1240 H1227 0.960 . S
C1240 C1239 1.524 . S
C1241 C1238 1.403 . S
C1241 C1242 1.392 . S
C1241 C1245 1.495 . S
C1242 C1241 1.392 . S
C1242 C1243 1.385 . S
C1242 C1244 1.478 . S
C1243 H1237 0.930 . S
C1243 C1239 1.400 . S
C1243 C1242 1.385 . S
C1244 C1242 1.478 . S
C1244 C1246 1.381 . S
C1244 C1250 1.383 . S
C1245 C1241 1.495 . S
C1245 H1251 0.959 . S
C1245 H1252 0.961 . S
C1245 H1253 0.960 . S
C1246 C1244 1.381 . S
C1246 C1247 1.394 . S
C1246 H1254 0.930 . S
C1247 C1246 1.394 . S
C1247 C1248 1.383 . S
C1247 H1255 0.929 . S
C1248 C1247 1.383 . S
C1248 C1249 1.377 . S
C1249 H1233 0.930 . S
C1249 C1248 1.377 . S
C1249 C1250 1.379 . S
C1250 H1234 0.931 . S
C1250 C1244 1.383 . S
C1250 C1249 1.379 . S
H1251 C1245 0.959 . S
H1252 C1245 0.961 . S
H1253 C1245 0.960 . S
H1254 C1246 0.930 . S
H1255 C1247 0.929 . S
H1256 C1264 0.929 . S
H1257 C1266 0.930 . S
H1258 C1268 0.930 . S
H1259 C1271 0.929 . S
H1260 C1274 0.930 . S
H1261 C1276 0.960 . S
H1262 C1276 0.960 . S
H1263 C1276 0.960 . S
C1264 H1256 0.929 . S
C1264 C1265 1.377 . S
C1264 C1266 1.384 . S
C1265 C1264 1.377 . S
C1265 C1271 1.390 . S
C1266 H1257 0.930 . S
C1266 C1264 1.384 . S
C1266 C1267 1.372 . S
C1267 C1266 1.372 . S
C1267 C1268 1.400 . S
C1267 C1272 1.490 . S
C1268 H1258 0.930 . S
C1268 C1267 1.400 . S
C1268 C1271 1.386 . S
H1269 C1285 0.930 . S
H1270 C1286 0.931 . S
C1271 H1259 0.929 . S
C1271 C1265 1.390 . S
C1271 C1268 1.386 . S
C1272 C1267 1.490 . S
C1272 C1274 1.395 . S
C1272 C1275 1.403 . S
H1273 C1279 0.930 . S
C1274 H1260 0.930 . S
C1274 C1272 1.395 . S
C1274 C1277 1.403 . S
C1275 C1272 1.403 . S
C1275 C1276 1.524 . S
C1275 C1279 1.400 . S
C1276 H1261 0.960 . S
C1276 H1262 0.960 . S
C1276 H1263 0.960 . S
C1276 C1275 1.524 . S
C1277 C1274 1.403 . S
C1277 C1278 1.392 . S
C1277 C1281 1.495 . S
C1278 C1277 1.392 . S
C1278 C1279 1.385 . S
C1278 C1280 1.478 . S
C1279 H1273 0.930 . S
C1279 C1275 1.400 . S
C1279 C1278 1.385 . S
C1280 C1278 1.478 . S
C1280 C1282 1.381 . S
C1280 C1286 1.383 . S
C1281 C1277 1.495 . S
C1281 H1287 0.959 . S
C1281 H1288 0.961 . S
C1281 H1289 0.960 . S
C1282 C1280 1.381 . S
C1282 C1283 1.394 . S
C1282 H1290 0.930 . S
C1283 C1282 1.394 . S
C1283 C1284 1.383 . S
C1283 H1291 0.929 . S
C1284 C1283 1.383 . S
C1284 C1285 1.377 . S
C1285 H1269 0.930 . S
C1285 C1284 1.377 . S
C1285 C1286 1.379 . S
C1286 H1270 0.931 . S
C1286 C1280 1.383 . S
C1286 C1285 1.379 . S
H1287 C1281 0.959 . S
H1288 C1281 0.961 . S
H1289 C1281 0.960 . S
H1290 C1282 0.930 . S
H1291 C1283 0.929 . S
H1292 C1300 0.929 . S
H1293 C1302 0.930 . S
H1294 C1304 0.930 . S
H1295 C1307 0.929 . S
H1296 C1310 0.930 . S
H1297 C1312 0.960 . S
H1298 C1312 0.960 . S
H1299 C1312 0.960 . S
C1300 H1292 0.929 . S
C1300 C1301 1.377 1_565 S
C1300 C1302 1.384 . S
C1301 C1300 1.377 1_545 S
C1301 C1307 1.390 . S
C1302 H1293 0.930 . S
C1302 C1300 1.384 . S
C1302 C1303 1.372 . S
C1303 C1302 1.372 . S
C1303 C1304 1.400 1_565 S
C1303 C1308 1.490 . S
C1304 H1294 0.930 . S
C1304 C1303 1.400 1_545 S
C1304 C1307 1.386 . S
H1305 C1321 0.930 . S
H1306 C1322 0.931 . S
C1307 H1295 0.929 . S
C1307 C1301 1.390 . S
C1307 C1304 1.386 . S
C1308 C1303 1.490 . S
C1308 C1310 1.395 . S
C1308 C1311 1.403 . S
H1309 C1315 0.930 . S
C1310 H1296 0.930 . S
C1310 C1308 1.395 . S
C1310 C1313 1.403 . S
C1311 C1308 1.403 . S
C1311 C1312 1.524 . S
C1311 C1315 1.400 . S
C1312 H1297 0.960 . S
C1312 H1298 0.960 . S
C1312 H1299 0.960 . S
C1312 C1311 1.524 . S
C1313 C1310 1.403 . S
C1313 C1314 1.392 . S
C1313 C1317 1.495 . S
C1314 C1313 1.392 . S
C1314 C1315 1.385 . S
C1314 C1316 1.478 . S
C1315 H1309 0.930 . S
C1315 C1311 1.400 . S
C1315 C1314 1.385 . S
C1316 C1314 1.478 . S
C1316 C1318 1.381 . S
C1316 C1322 1.383 . S
C1317 C1313 1.495 . S
C1317 H1323 0.959 . S
C1317 H1324 0.961 . S
C1317 H1325 0.960 . S
C1318 C1316 1.381 . S
C1318 C1319 1.394 . S
C1318 H1326 0.930 . S
C1319 C1318 1.394 . S
C1319 C1320 1.383 . S
C1319 H1327 0.929 . S
C1320 C1319 1.383 . S
C1320 C1321 1.377 . S
C1321 H1305 0.930 . S
C1321 C1320 1.377 . S
C1321 C1322 1.379 . S
C1322 H1306 0.931 . S
C1322 C1316 1.383 . S
C1322 C1321 1.379 . S
H1323 C1317 0.959 . S
H1324 C1317 0.961 . S
H1325 C1317 0.960 . S
H1326 C1318 0.930 . S
H1327 C1319 0.929 . S
H1328 C1336 0.929 . S
H1329 C1338 0.930 . S
H1330 C1340 0.930 . S
H1331 C1343 0.929 . S
H1332 C1346 0.930 . S
H1333 C1348 0.960 . S
H1334 C1348 0.960 . S
H1335 C1348 0.960 . S
C1336 H1328 0.929 . S
C1336 C1337 1.377 . S
C1336 C1338 1.384 . S
C1337 C1336 1.377 . S
C1337 C1343 1.390 . S
C1338 H1329 0.930 . S
C1338 C1336 1.384 . S
C1338 C1339 1.372 . S
C1339 C1338 1.372 . S
C1339 C1340 1.400 . S
C1339 C1344 1.490 . S
C1340 H1330 0.930 . S
C1340 C1339 1.400 . S
C1340 C1343 1.386 . S
H1341 C1357 0.930 . S
H1342 C1358 0.931 . S
C1343 H1331 0.929 . S
C1343 C1337 1.390 . S
C1343 C1340 1.386 . S
C1344 C1339 1.490 . S
C1344 C1346 1.395 . S
C1344 C1347 1.403 . S
H1345 C1351 0.930 . S
C1346 H1332 0.930 . S
C1346 C1344 1.395 . S
C1346 C1349 1.403 . S
C1347 C1344 1.403 . S
C1347 C1348 1.524 . S
C1347 C1351 1.400 . S
C1348 H1333 0.960 . S
C1348 H1334 0.960 . S
C1348 H1335 0.960 . S
C1348 C1347 1.524 . S
C1349 C1346 1.403 . S
C1349 C1350 1.392 . S
C1349 C1353 1.495 . S
C1350 C1349 1.392 . S
C1350 C1351 1.385 . S
C1350 C1352 1.478 . S
C1351 H1345 0.930 . S
C1351 C1347 1.400 . S
C1351 C1350 1.385 . S
C1352 C1350 1.478 . S
C1352 C1354 1.381 . S
C1352 C1358 1.383 . S
C1353 C1349 1.495 . S
C1353 H1359 0.959 . S
C1353 H1360 0.961 . S
C1353 H1361 0.960 . S
C1354 C1352 1.381 . S
C1354 C1355 1.394 . S
C1354 H1362 0.930 . S
C1355 C1354 1.394 . S
C1355 C1356 1.383 . S
C1355 H1363 0.929 . S
C1356 C1355 1.383 . S
C1356 C1357 1.377 . S
C1357 H1341 0.930 . S
C1357 C1356 1.377 . S
C1357 C1358 1.379 . S
C1358 H1342 0.931 . S
C1358 C1352 1.383 . S
C1358 C1357 1.379 . S
H1359 C1353 0.959 . S
H1360 C1353 0.961 . S
H1361 C1353 0.960 . S
H1362 C1354 0.930 . S
H1363 C1355 0.929 . S
H1364 C1372 0.929 . S
H1365 C1374 0.930 . S
H1366 C1376 0.930 . S
H1367 C1379 0.929 . S
H1368 C1382 0.930 . S
H1369 C1384 0.960 . S
H1370 C1384 0.960 . S
H1371 C1384 0.960 . S
C1372 H1364 0.929 . S
C1372 C1373 1.377 . S
C1372 C1374 1.384 . S
C1373 C1372 1.377 . S
C1373 C1379 1.390 . S
C1374 H1365 0.930 . S
C1374 C1372 1.384 . S
C1374 C1375 1.372 . S
C1375 C1374 1.372 . S
C1375 C1376 1.400 . S
C1375 C1380 1.490 . S
C1376 H1366 0.930 . S
C1376 C1375 1.400 . S
C1376 C1379 1.386 . S
H1377 C1393 0.930 . S
H1378 C1394 0.931 . S
C1379 H1367 0.929 . S
C1379 C1373 1.390 . S
C1379 C1376 1.386 . S
C1380 C1375 1.490 . S
C1380 C1382 1.395 . S
C1380 C1383 1.403 . S
H1381 C1387 0.930 . S
C1382 H1368 0.930 . S
C1382 C1380 1.395 . S
C1382 C1385 1.403 . S
C1383 C1380 1.403 . S
C1383 C1384 1.524 . S
C1383 C1387 1.400 . S
C1384 H1369 0.960 . S
C1384 H1370 0.960 . S
C1384 H1371 0.960 . S
C1384 C1383 1.524 . S
C1385 C1382 1.403 . S
C1385 C1386 1.392 . S
C1385 C1389 1.495 . S
C1386 C1385 1.392 . S
C1386 C1387 1.385 . S
C1386 C1388 1.478 . S
C1387 H1381 0.930 . S
C1387 C1383 1.400 . S
C1387 C1386 1.385 . S
C1388 C1386 1.478 . S
C1388 C1390 1.381 . S
C1388 C1394 1.383 . S
C1389 C1385 1.495 . S
C1389 H1395 0.959 . S
C1389 H1396 0.961 . S
C1389 H1397 0.960 . S
C1390 C1388 1.381 . S
C1390 C1391 1.394 . S
C1390 H1398 0.930 . S
C1391 C1390 1.394 . S
C1391 C1392 1.383 . S
C1391 H1399 0.929 . S
C1392 C1391 1.383 . S
C1392 C1393 1.377 . S
C1393 H1377 0.930 . S
C1393 C1392 1.377 . S
C1393 C1394 1.379 . S
C1394 H1378 0.931 . S
C1394 C1388 1.383 . S
C1394 C1393 1.379 . S
H1395 C1389 0.959 . S
H1396 C1389 0.961 . S
H1397 C1389 0.960 . S
H1398 C1390 0.930 . S
H1399 C1391 0.929 . S
H1400 C1408 0.929 . S
H1401 C1410 0.930 . S
H1402 C1412 0.930 . S
H1403 C1415 0.929 . S
H1404 C1418 0.930 . S
H1405 C1420 0.960 . S
H1406 C1420 0.960 . S
H1407 C1420 0.960 . S
C1408 H1400 0.929 . S
C1408 C1409 1.377 . S
C1408 C1410 1.384 . S
C1409 C1408 1.377 . S
C1409 C1415 1.390 . S
C1410 H1401 0.930 . S
C1410 C1408 1.384 . S
C1410 C1411 1.372 . S
C1411 C1410 1.372 . S
C1411 C1412 1.400 . S
C1411 C1416 1.490 . S
C1412 H1402 0.930 . S
C1412 C1411 1.400 . S
C1412 C1415 1.386 . S
H1413 C1429 0.930 . S
H1414 C1430 0.931 . S
C1415 H1403 0.929 . S
C1415 C1409 1.390 . S
C1415 C1412 1.386 . S
C1416 C1411 1.490 . S
C1416 C1418 1.395 . S
C1416 C1419 1.403 . S
H1417 C1423 0.930 . S
C1418 H1404 0.930 . S
C1418 C1416 1.395 . S
C1418 C1421 1.403 . S
C1419 C1416 1.403 . S
C1419 C1420 1.524 . S
C1419 C1423 1.400 . S
C1420 H1405 0.960 . S
C1420 H1406 0.960 . S
C1420 H1407 0.960 . S
C1420 C1419 1.524 . S
C1421 C1418 1.403 . S
C1421 C1422 1.392 . S
C1421 C1425 1.495 . S
C1422 C1421 1.392 . S
C1422 C1423 1.385 . S
C1422 C1424 1.478 . S
C1423 H1417 0.930 . S
C1423 C1419 1.400 . S
C1423 C1422 1.385 . S
C1424 C1422 1.478 . S
C1424 C1426 1.381 . S
C1424 C1430 1.383 . S
C1425 C1421 1.495 . S
C1425 H1431 0.959 . S
C1425 H1432 0.961 . S
C1425 H1433 0.960 . S
C1426 C1424 1.381 . S
C1426 C1427 1.394 . S
C1426 H1434 0.930 . S
C1427 C1426 1.394 . S
C1427 C1428 1.383 . S
C1427 H1435 0.929 . S
C1428 C1427 1.383 . S
C1428 C1429 1.377 . S
C1429 H1413 0.930 . S
C1429 C1428 1.377 . S
C1429 C1430 1.379 . S
C1430 H1414 0.931 . S
C1430 C1424 1.383 . S
C1430 C1429 1.379 . S
H1431 C1425 0.959 . S
H1432 C1425 0.961 . S
H1433 C1425 0.960 . S
H1434 C1426 0.930 . S
H1435 C1427 0.929 . S
H1436 C1444 0.929 . S
H1437 C1446 0.930 . S
H1438 C1448 0.930 . S
H1439 C1451 0.929 . S
H1440 C1454 0.930 . S
H1441 C1456 0.960 . S
H1442 C1456 0.960 . S
H1443 C1456 0.960 . S
C1444 H1436 0.929 . S
C1444 C1445 1.377 . S
C1444 C1446 1.384 . S
C1445 C1444 1.377 . S
C1445 C1451 1.390 . S
C1446 H1437 0.930 . S
C1446 C1444 1.384 . S
C1446 C1447 1.372 . S
C1447 C1446 1.372 . S
C1447 C1448 1.400 . S
C1447 C1452 1.490 . S
C1448 H1438 0.930 . S
C1448 C1447 1.400 . S
C1448 C1451 1.386 . S
H1449 C1465 0.930 . S
H1450 C1466 0.931 . S
C1451 H1439 0.929 . S
C1451 C1445 1.390 . S
C1451 C1448 1.386 . S
C1452 C1447 1.490 . S
C1452 C1454 1.395 . S
C1452 C1455 1.403 . S
H1453 C1459 0.930 . S
C1454 H1440 0.930 . S
C1454 C1452 1.395 . S
C1454 C1457 1.403 . S
C1455 C1452 1.403 . S
C1455 C1456 1.524 . S
C1455 C1459 1.400 . S
C1456 H1441 0.960 . S
C1456 H1442 0.960 . S
C1456 H1443 0.960 . S
C1456 C1455 1.524 . S
C1457 C1454 1.403 . S
C1457 C1458 1.392 . S
C1457 C1461 1.495 . S
C1458 C1457 1.392 . S
C1458 C1459 1.385 . S
C1458 C1460 1.478 . S
C1459 H1453 0.930 . S
C1459 C1455 1.400 . S
C1459 C1458 1.385 . S
C1460 C1458 1.478 . S
C1460 C1462 1.381 . S
C1460 C1466 1.383 . S
C1461 C1457 1.495 . S
C1461 H1467 0.959 . S
C1461 H1468 0.961 . S
C1461 H1469 0.960 . S
C1462 C1460 1.381 . S
C1462 C1463 1.394 . S
C1462 H1470 0.930 . S
C1463 C1462 1.394 . S
C1463 C1464 1.383 . S
C1463 H1471 0.929 . S
C1464 C1463 1.383 . S
C1464 C1465 1.377 . S
C1465 H1449 0.930 . S
C1465 C1464 1.377 . S
C1465 C1466 1.379 . S
C1466 H1450 0.931 . S
C1466 C1460 1.383 . S
C1466 C1465 1.379 . S
H1467 C1461 0.959 . S
H1468 C1461 0.961 . S
H1469 C1461 0.960 . S
H1470 C1462 0.930 . S
H1471 C1463 0.929 . S
H1472 C1480 0.929 . S
H1473 C1482 0.930 . S
H1474 C1484 0.930 . S
H1475 C1487 0.929 . S
H1476 C1490 0.930 . S
H1477 C1492 0.960 . S
H1478 C1492 0.960 . S
H1479 C1492 0.960 . S
C1480 H1472 0.929 . S
C1480 C1481 1.377 . S
C1480 C1482 1.384 . S
C1481 C1480 1.377 . S
C1481 C1487 1.390 . S
C1482 H1473 0.930 . S
C1482 C1480 1.384 . S
C1482 C1483 1.372 . S
C1483 C1482 1.372 . S
C1483 C1484 1.400 . S
C1483 C1488 1.490 . S
C1484 H1474 0.930 . S
C1484 C1483 1.400 . S
C1484 C1487 1.386 . S
H1485 C1501 0.930 . S
H1486 C1502 0.931 . S
C1487 H1475 0.929 . S
C1487 C1481 1.390 . S
C1487 C1484 1.386 . S
C1488 C1483 1.490 . S
C1488 C1490 1.395 . S
C1488 C1491 1.403 . S
H1489 C1495 0.930 . S
C1490 H1476 0.930 . S
C1490 C1488 1.395 . S
C1490 C1493 1.403 . S
C1491 C1488 1.403 . S
C1491 C1492 1.524 . S
C1491 C1495 1.400 . S
C1492 H1477 0.960 . S
C1492 H1478 0.960 . S
C1492 H1479 0.960 . S
C1492 C1491 1.524 . S
C1493 C1490 1.403 . S
C1493 C1494 1.392 . S
C1493 C1497 1.495 . S
C1494 C1493 1.392 . S
C1494 C1495 1.385 . S
C1494 C1496 1.478 . S
C1495 H1489 0.930 . S
C1495 C1491 1.400 . S
C1495 C1494 1.385 . S
C1496 C1494 1.478 . S
C1496 C1498 1.381 . S
C1496 C1502 1.383 . S
C1497 C1493 1.495 . S
C1497 H1503 0.959 . S
C1497 H1504 0.961 . S
C1497 H1505 0.960 . S
C1498 C1496 1.381 . S
C1498 C1499 1.394 . S
C1498 H1506 0.930 . S
C1499 C1498 1.394 . S
C1499 C1500 1.383 . S
C1499 H1507 0.929 . S
C1500 C1499 1.383 . S
C1500 C1501 1.377 . S
C1501 H1485 0.930 . S
C1501 C1500 1.377 . S
C1501 C1502 1.379 . S
C1502 H1486 0.931 . S
C1502 C1496 1.383 . S
C1502 C1501 1.379 . S
H1503 C1497 0.959 . S
H1504 C1497 0.961 . S
H1505 C1497 0.960 . S
H1506 C1498 0.930 . S
H1507 C1499 0.929 . S
H1508 C1516 0.929 . S
H1509 C1518 0.930 . S
H1510 C1520 0.930 . S
H1511 C1523 0.929 . S
H1512 C1526 0.930 . S
H1513 C1528 0.960 . S
H1514 C1528 0.960 . S
H1515 C1528 0.960 . S
C1516 H1508 0.929 . S
C1516 C1517 1.377 . S
C1516 C1518 1.384 . S
C1517 C1516 1.377 . S
C1517 C1523 1.390 . S
C1518 H1509 0.930 . S
C1518 C1516 1.384 . S
C1518 C1519 1.372 . S
C1519 C1518 1.372 . S
C1519 C1520 1.400 . S
C1519 C1524 1.490 . S
C1520 H1510 0.930 . S
C1520 C1519 1.400 . S
C1520 C1523 1.386 . S
H1521 C1537 0.930 . S
H1522 C1538 0.931 . S
C1523 H1511 0.929 . S
C1523 C1517 1.390 . S
C1523 C1520 1.386 . S
C1524 C1519 1.490 . S
C1524 C1526 1.395 . S
C1524 C1527 1.403 . S
H1525 C1531 0.930 . S
C1526 H1512 0.930 . S
C1526 C1524 1.395 . S
C1526 C1529 1.403 . S
C1527 C1524 1.403 . S
C1527 C1528 1.524 . S
C1527 C1531 1.400 . S
C1528 H1513 0.960 . S
C1528 H1514 0.960 . S
C1528 H1515 0.960 . S
C1528 C1527 1.524 . S
C1529 C1526 1.403 . S
C1529 C1530 1.392 . S
C1529 C1533 1.495 . S
C1530 C1529 1.392 . S
C1530 C1531 1.385 . S
C1530 C1532 1.478 . S
C1531 H1525 0.930 . S
C1531 C1527 1.400 . S
C1531 C1530 1.385 . S
C1532 C1530 1.478 . S
C1532 C1534 1.381 . S
C1532 C1538 1.383 . S
C1533 C1529 1.495 . S
C1533 H1539 0.959 . S
C1533 H1540 0.961 . S
C1533 H1541 0.960 . S
C1534 C1532 1.381 . S
C1534 C1535 1.394 . S
C1534 H1542 0.930 . S
C1535 C1534 1.394 . S
C1535 C1536 1.383 . S
C1535 H1543 0.929 . S
C1536 C1535 1.383 . S
C1536 C1537 1.377 . S
C1537 H1521 0.930 . S
C1537 C1536 1.377 . S
C1537 C1538 1.379 . S
C1538 H1522 0.931 . S
C1538 C1532 1.383 . S
C1538 C1537 1.379 . S
H1539 C1533 0.959 . S
H1540 C1533 0.961 . S
H1541 C1533 0.960 . S
H1542 C1534 0.930 . S
H1543 C1535 0.929 . S
H1544 C1552 0.929 . S
H1545 C1554 0.930 . S
H1546 C1556 0.930 . S
H1547 C1559 0.929 . S
H1548 C1562 0.930 . S
H1549 C1564 0.960 . S
H1550 C1564 0.960 . S
H1551 C1564 0.960 . S
C1552 H1544 0.929 . S
C1552 C1553 1.377 . S
C1552 C1554 1.384 . S
C1553 C1552 1.377 . S
C1553 C1559 1.390 . S
C1554 H1545 0.930 . S
C1554 C1552 1.384 . S
C1554 C1555 1.372 . S
C1555 C1554 1.372 . S
C1555 C1556 1.400 . S
C1555 C1560 1.490 . S
C1556 H1546 0.930 . S
C1556 C1555 1.400 . S
C1556 C1559 1.386 . S
H1557 C1573 0.930 . S
H1558 C1574 0.931 . S
C1559 H1547 0.929 . S
C1559 C1553 1.390 . S
C1559 C1556 1.386 . S
C1560 C1555 1.490 . S
C1560 C1562 1.395 . S
C1560 C1563 1.403 . S
H1561 C1567 0.930 . S
C1562 H1548 0.930 . S
C1562 C1560 1.395 . S
C1562 C1565 1.403 . S
C1563 C1560 1.403 . S
C1563 C1564 1.524 . S
C1563 C1567 1.400 . S
C1564 H1549 0.960 . S
C1564 H1550 0.960 . S
C1564 H1551 0.960 . S
C1564 C1563 1.524 . S
C1565 C1562 1.403 . S
C1565 C1566 1.392 . S
C1565 C1569 1.495 . S
C1566 C1565 1.392 . S
C1566 C1567 1.385 . S
C1566 C1568 1.478 . S
C1567 H1561 0.930 . S
C1567 C1563 1.400 . S
C1567 C1566 1.385 . S
C1568 C1566 1.478 . S
C1568 C1570 1.381 . S
C1568 C1574 1.383 . S
C1569 C1565 1.495 . S
C1569 H1575 0.959 . S
C1569 H1576 0.961 . S
C1569 H1577 0.960 . S
C1570 C1568 1.381 . S
C1570 C1571 1.394 . S
C1570 H1578 0.930 . S
C1571 C1570 1.394 . S
C1571 C1572 1.383 . S
C1571 H1579 0.929 . S
C1572 C1571 1.383 . S
C1572 C1573 1.377 . S
C1573 H1557 0.930 . S
C1573 C1572 1.377 . S
C1573 C1574 1.379 . S
C1574 H1558 0.931 . S
C1574 C1568 1.383 . S
C1574 C1573 1.379 . S
H1575 C1569 0.959 . S
H1576 C1569 0.961 . S
H1577 C1569 0.960 . S
H1578 C1570 0.930 . S
H1579 C1571 0.929 . S
H1580 C1588 0.929 . S
H1581 C1590 0.930 . S
H1582 C1592 0.930 . S
H1583 C1595 0.929 . S
H1584 C1598 0.930 . S
H1585 C1600 0.960 . S
H1586 C1600 0.960 . S
H1587 C1600 0.960 . S
C1588 H1580 0.929 . S
C1588 C1589 1.377 . S
C1588 C1590 1.384 . S
C1589 C1588 1.377 . S
C1589 C1595 1.390 . S
C1590 H1581 0.930 . S
C1590 C1588 1.384 . S
C1590 C1591 1.372 . S
C1591 C1590 1.372 . S
C1591 C1592 1.400 . S
C1591 C1596 1.490 . S
C1592 H1582 0.930 . S
C1592 C1591 1.400 . S
C1592 C1595 1.386 . S
H1593 C1609 0.930 . S
H1594 C1610 0.931 . S
C1595 H1583 0.929 . S
C1595 C1589 1.390 . S
C1595 C1592 1.386 . S
C1596 C1591 1.490 . S
C1596 C1598 1.395 . S
C1596 C1599 1.403 . S
H1597 C1603 0.930 . S
C1598 H1584 0.930 . S
C1598 C1596 1.395 . S
C1598 C1601 1.403 . S
C1599 C1596 1.403 . S
C1599 C1600 1.524 . S
C1599 C1603 1.400 . S
C1600 H1585 0.960 . S
C1600 H1586 0.960 . S
C1600 H1587 0.960 . S
C1600 C1599 1.524 . S
C1601 C1598 1.403 . S
C1601 C1602 1.392 . S
C1601 C1605 1.495 . S
C1602 C1601 1.392 . S
C1602 C1603 1.385 . S
C1602 C1604 1.478 . S
C1603 H1597 0.930 . S
C1603 C1599 1.400 . S
C1603 C1602 1.385 . S
C1604 C1602 1.478 . S
C1604 C1606 1.381 . S
C1604 C1610 1.383 . S
C1605 C1601 1.495 . S
C1605 H1611 0.959 . S
C1605 H1612 0.961 . S
C1605 H1613 0.960 . S
C1606 C1604 1.381 . S
C1606 C1607 1.394 . S
C1606 H1614 0.930 . S
C1607 C1606 1.394 . S
C1607 C1608 1.383 . S
C1607 H1615 0.929 . S
C1608 C1607 1.383 . S
C1608 C1609 1.377 . S
C1609 H1593 0.930 . S
C1609 C1608 1.377 . S
C1609 C1610 1.379 . S
C1610 H1594 0.931 . S
C1610 C1604 1.383 . S
C1610 C1609 1.379 . S
H1611 C1605 0.959 . S
H1612 C1605 0.961 . S
H1613 C1605 0.960 . S
H1614 C1606 0.930 . S
H1615 C1607 0.929 . S
H1616 C1624 0.929 . S
H1617 C1626 0.930 . S
H1618 C1628 0.930 . S
H1619 C1631 0.929 . S
H1620 C1634 0.930 . S
H1621 C1636 0.960 . S
H1622 C1636 0.960 . S
H1623 C1636 0.960 . S
C1624 H1616 0.929 . S
C1624 C1625 1.377 . S
C1624 C1626 1.384 . S
C1625 C1624 1.377 . S
C1625 C1631 1.390 . S
C1626 H1617 0.930 . S
C1626 C1624 1.384 . S
C1626 C1627 1.372 . S
C1627 C1626 1.372 . S
C1627 C1628 1.400 . S
C1627 C1632 1.490 . S
C1628 H1618 0.930 . S
C1628 C1627 1.400 . S
C1628 C1631 1.386 . S
H1629 C1645 0.930 . S
H1630 C1646 0.931 . S
C1631 H1619 0.929 . S
C1631 C1625 1.390 . S
C1631 C1628 1.386 . S
C1632 C1627 1.490 . S
C1632 C1634 1.395 . S
C1632 C1635 1.403 . S
H1633 C1639 0.930 . S
C1634 H1620 0.930 . S
C1634 C1632 1.395 . S
C1634 C1637 1.403 . S
C1635 C1632 1.403 . S
C1635 C1636 1.524 . S
C1635 C1639 1.400 . S
C1636 H1621 0.960 . S
C1636 H1622 0.960 . S
C1636 H1623 0.960 . S
C1636 C1635 1.524 . S
C1637 C1634 1.403 . S
C1637 C1638 1.392 . S
C1637 C1641 1.495 . S
C1638 C1637 1.392 . S
C1638 C1639 1.385 . S
C1638 C1640 1.478 . S
C1639 H1633 0.930 . S
C1639 C1635 1.400 . S
C1639 C1638 1.385 . S
C1640 C1638 1.478 . S
C1640 C1642 1.381 . S
C1640 C1646 1.383 . S
C1641 C1637 1.495 . S
C1641 H1647 0.959 . S
C1641 H1648 0.961 . S
C1641 H1649 0.960 . S
C1642 C1640 1.381 . S
C1642 C1643 1.394 . S
C1642 H1650 0.930 . S
C1643 C1642 1.394 . S
C1643 C1644 1.383 . S
C1643 H1651 0.929 . S
C1644 C1643 1.383 . S
C1644 C1645 1.377 . S
C1645 H1629 0.930 . S
C1645 C1644 1.377 . S
C1645 C1646 1.379 . S
C1646 H1630 0.931 . S
C1646 C1640 1.383 . S
C1646 C1645 1.379 . S
H1647 C1641 0.959 . S
H1648 C1641 0.961 . S
H1649 C1641 0.960 . S
H1650 C1642 0.930 . S
H1651 C1643 0.929 . S
H1652 C1660 0.929 . S
H1653 C1662 0.930 . S
H1654 C1664 0.930 . S
H1655 C1667 0.929 . S
H1656 C1670 0.930 . S
H1657 C1672 0.960 . S
H1658 C1672 0.960 . S
H1659 C1672 0.960 . S
C1660 H1652 0.929 . S
C1660 C1661 1.377 . S
C1660 C1662 1.384 . S
C1661 C1660 1.377 . S
C1661 C1667 1.390 . S
C1662 H1653 0.930 . S
C1662 C1660 1.384 . S
C1662 C1663 1.372 . S
C1663 C1662 1.372 . S
C1663 C1664 1.400 . S
C1663 C1668 1.490 . S
C1664 H1654 0.930 . S
C1664 C1663 1.400 . S
C1664 C1667 1.386 . S
H1665 C1681 0.930 . S
H1666 C1682 0.931 . S
C1667 H1655 0.929 . S
C1667 C1661 1.390 . S
C1667 C1664 1.386 . S
C1668 C1663 1.490 . S
C1668 C1670 1.395 . S
C1668 C1671 1.403 . S
H1669 C1675 0.930 . S
C1670 H1656 0.930 . S
C1670 C1668 1.395 . S
C1670 C1673 1.403 . S
C1671 C1668 1.403 . S
C1671 C1672 1.524 . S
C1671 C1675 1.400 . S
C1672 H1657 0.960 . S
C1672 H1658 0.960 . S
C1672 H1659 0.960 . S
C1672 C1671 1.524 . S
C1673 C1670 1.403 . S
C1673 C1674 1.392 . S
C1673 C1677 1.495 . S
C1674 C1673 1.392 . S
C1674 C1675 1.385 . S
C1674 C1676 1.478 . S
C1675 H1669 0.930 . S
C1675 C1671 1.400 . S
C1675 C1674 1.385 . S
C1676 C1674 1.478 . S
C1676 C1678 1.381 . S
C1676 C1682 1.383 . S
C1677 C1673 1.495 . S
C1677 H1683 0.959 . S
C1677 H1684 0.961 . S
C1677 H1685 0.960 . S
C1678 C1676 1.381 . S
C1678 C1679 1.394 . S
C1678 H1686 0.930 . S
C1679 C1678 1.394 . S
C1679 C1680 1.383 . S
C1679 H1687 0.929 . S
C1680 C1679 1.383 . S
C1680 C1681 1.377 . S
C1681 H1665 0.930 . S
C1681 C1680 1.377 . S
C1681 C1682 1.379 . S
C1682 H1666 0.931 . S
C1682 C1676 1.383 . S
C1682 C1681 1.379 . S
H1683 C1677 0.959 . S
H1684 C1677 0.961 . S
H1685 C1677 0.960 . S
H1686 C1678 0.930 . S
H1687 C1679 0.929 . S
H1688 C1696 0.929 . S
H1689 C1698 0.930 . S
H1690 C1700 0.930 . S
H1691 C1703 0.929 . S
H1692 C1706 0.930 . S
H1693 C1708 0.960 . S
H1694 C1708 0.960 . S
H1695 C1708 0.960 . S
C1696 H1688 0.929 . S
C1696 C1697 1.377 . S
C1696 C1698 1.384 . S
C1697 C1696 1.377 . S
C1697 C1703 1.390 . S
C1698 H1689 0.930 . S
C1698 C1696 1.384 . S
C1698 C1699 1.372 . S
C1699 C1698 1.372 . S
C1699 C1700 1.400 . S
C1699 C1704 1.490 . S
C1700 H1690 0.930 . S
C1700 C1699 1.400 . S
C1700 C1703 1.386 . S
H1701 C1717 0.930 . S
H1702 C1718 0.931 . S
C1703 H1691 0.929 . S
C1703 C1697 1.390 . S
C1703 C1700 1.386 . S
C1704 C1699 1.490 . S
C1704 C1706 1.395 . S
C1704 C1707 1.403 . S
H1705 C1711 0.930 . S
C1706 H1692 0.930 . S
C1706 C1704 1.395 . S
C1706 C1709 1.403 . S
C1707 C1704 1.403 . S
C1707 C1708 1.524 . S
C1707 C1711 1.400 . S
C1708 H1693 0.960 . S
C1708 H1694 0.960 . S
C1708 H1695 0.960 . S
C1708 C1707 1.524 . S
C1709 C1706 1.403 . S
C1709 C1710 1.392 . S
C1709 C1713 1.495 . S
C1710 C1709 1.392 . S
C1710 C1711 1.385 . S
C1710 C1712 1.478 . S
C1711 H1705 0.930 . S
C1711 C1707 1.400 . S
C1711 C1710 1.385 . S
C1712 C1710 1.478 . S
C1712 C1714 1.381 . S
C1712 C1718 1.383 . S
C1713 C1709 1.495 . S
C1713 H1719 0.959 . S
C1713 H1720 0.961 . S
C1713 H1721 0.960 . S
C1714 C1712 1.381 . S
C1714 C1715 1.394 . S
C1714 H1722 0.930 . S
C1715 C1714 1.394 . S
C1715 C1716 1.383 . S
C1715 H1723 0.929 . S
C1716 C1715 1.383 . S
C1716 C1717 1.377 . S
C1717 H1701 0.930 . S
C1717 C1716 1.377 . S
C1717 C1718 1.379 . S
C1718 H1702 0.931 . S
C1718 C1712 1.383 . S
C1718 C1717 1.379 . S
H1719 C1713 0.959 . S
H1720 C1713 0.961 . S
H1721 C1713 0.960 . S
H1722 C1714 0.930 . S
H1723 C1715 0.929 . S
H1724 C1732 0.929 . S
H1725 C1734 0.930 . S
H1726 C1736 0.930 . S
H1727 C1739 0.929 . S
H1728 C1742 0.930 . S
H1729 C1744 0.960 . S
H1730 C1744 0.960 . S
H1731 C1744 0.960 . S
C1732 H1724 0.929 . S
C1732 C1733 1.377 . S
C1732 C1734 1.384 . S
C1733 C1732 1.377 . S
C1733 C1739 1.390 . S
C1734 H1725 0.930 . S
C1734 C1732 1.384 . S
C1734 C1735 1.372 . S
C1735 C1734 1.372 . S
C1735 C1736 1.400 . S
C1735 C1740 1.490 . S
C1736 H1726 0.930 . S
C1736 C1735 1.400 . S
C1736 C1739 1.386 . S
H1737 C1753 0.930 . S
H1738 C1754 0.931 . S
C1739 H1727 0.929 . S
C1739 C1733 1.390 . S
C1739 C1736 1.386 . S
C1740 C1735 1.490 . S
C1740 C1742 1.395 . S
C1740 C1743 1.403 . S
H1741 C1747 0.930 . S
C1742 H1728 0.930 . S
C1742 C1740 1.395 . S
C1742 C1745 1.403 . S
C1743 C1740 1.403 . S
C1743 C1744 1.524 . S
C1743 C1747 1.400 . S
C1744 H1729 0.960 . S
C1744 H1730 0.960 . S
C1744 H1731 0.960 . S
C1744 C1743 1.524 . S
C1745 C1742 1.403 . S
C1745 C1746 1.392 . S
C1745 C1749 1.495 . S
C1746 C1745 1.392 . S
C1746 C1747 1.385 . S
C1746 C1748 1.478 . S
C1747 H1741 0.930 . S
C1747 C1743 1.400 . S
C1747 C1746 1.385 . S
C1748 C1746 1.478 . S
C1748 C1750 1.381 . S
C1748 C1754 1.383 . S
C1749 C1745 1.495 . S
C1749 H1755 0.959 . S
C1749 H1756 0.961 . S
C1749 H1757 0.960 . S
C1750 C1748 1.381 . S
C1750 C1751 1.394 . S
C1750 H1758 0.930 . S
C1751 C1750 1.394 . S
C1751 C1752 1.383 . S
C1751 H1759 0.929 . S
C1752 C1751 1.383 . S
C1752 C1753 1.377 . S
C1753 H1737 0.930 . S
C1753 C1752 1.377 . S
C1753 C1754 1.379 . S
C1754 H1738 0.931 . S
C1754 C1748 1.383 . S
C1754 C1753 1.379 . S
H1755 C1749 0.959 . S
H1756 C1749 0.961 . S
H1757 C1749 0.960 . S
H1758 C1750 0.930 . S
H1759 C1751 0.929 . S
H1760 C1768 0.929 . S
H1761 C1770 0.930 . S
H1762 C1772 0.930 . S
H1763 C1775 0.929 . S
H1764 C1778 0.930 . S
H1765 C1780 0.960 . S
H1766 C1780 0.960 . S
H1767 C1780 0.960 . S
C1768 H1760 0.929 . S
C1768 C1769 1.377 . S
C1768 C1770 1.384 . S
C1769 C1768 1.377 . S
C1769 C1775 1.390 . S
C1770 H1761 0.930 . S
C1770 C1768 1.384 . S
C1770 C1771 1.372 . S
C1771 C1770 1.372 . S
C1771 C1772 1.400 . S
C1771 C1776 1.490 . S
C1772 H1762 0.930 . S
C1772 C1771 1.400 . S
C1772 C1775 1.386 . S
H1773 C1789 0.930 . S
H1774 C1790 0.931 . S
C1775 H1763 0.929 . S
C1775 C1769 1.390 . S
C1775 C1772 1.386 . S
C1776 C1771 1.490 . S
C1776 C1778 1.395 . S
C1776 C1779 1.403 . S
H1777 C1783 0.930 . S
C1778 H1764 0.930 . S
C1778 C1776 1.395 . S
C1778 C1781 1.403 . S
C1779 C1776 1.403 . S
C1779 C1780 1.524 . S
C1779 C1783 1.400 . S
C1780 H1765 0.960 . S
C1780 H1766 0.960 . S
C1780 H1767 0.960 . S
C1780 C1779 1.524 . S
C1781 C1778 1.403 . S
C1781 C1782 1.392 . S
C1781 C1785 1.495 . S
C1782 C1781 1.392 . S
C1782 C1783 1.385 . S
C1782 C1784 1.478 . S
C1783 H1777 0.930 . S
C1783 C1779 1.400 . S
C1783 C1782 1.385 . S
C1784 C1782 1.478 . S
C1784 C1786 1.381 . S
C1784 C1790 1.383 . S
C1785 C1781 1.495 . S
C1785 H1791 0.959 . S
C1785 H1792 0.961 . S
C1785 H1793 0.960 . S
C1786 C1784 1.381 . S
C1786 C1787 1.394 . S
C1786 H1794 0.930 . S
C1787 C1786 1.394 . S
C1787 C1788 1.383 . S
C1787 H1795 0.929 . S
C1788 C1787 1.383 . S
C1788 C1789 1.377 . S
C1789 H1773 0.930 . S
C1789 C1788 1.377 . S
C1789 C1790 1.379 . S
C1790 H1774 0.931 . S
C1790 C1784 1.383 . S
C1790 C1789 1.379 . S
H1791 C1785 0.959 . S
H1792 C1785 0.961 . S
H1793 C1785 0.960 . S
H1794 C1786 0.930 . S
H1795 C1787 0.929 . S
H1796 C1804 0.929 . S
H1797 C1806 0.930 . S
H1798 C1808 0.930 . S
H1799 C1811 0.929 . S
H1800 C1814 0.930 . S
H1801 C1816 0.960 . S
H1802 C1816 0.960 . S
H1803 C1816 0.960 . S
C1804 H1796 0.929 . S
C1804 C1805 1.377 . S
C1804 C1806 1.384 . S
C1805 C1804 1.377 . S
C1805 C1811 1.390 . S
C1806 H1797 0.930 . S
C1806 C1804 1.384 . S
C1806 C1807 1.372 . S
C1807 C1806 1.372 . S
C1807 C1808 1.400 . S
C1807 C1812 1.490 . S
C1808 H1798 0.930 . S
C1808 C1807 1.400 . S
C1808 C1811 1.386 . S
H1809 C1825 0.930 . S
H1810 C1826 0.931 . S
C1811 H1799 0.929 . S
C1811 C1805 1.390 . S
C1811 C1808 1.386 . S
C1812 C1807 1.490 . S
C1812 C1814 1.395 . S
C1812 C1815 1.403 . S
H1813 C1819 0.930 . S
C1814 H1800 0.930 . S
C1814 C1812 1.395 . S
C1814 C1817 1.403 . S
C1815 C1812 1.403 . S
C1815 C1816 1.524 . S
C1815 C1819 1.400 . S
C1816 H1801 0.960 . S
C1816 H1802 0.960 . S
C1816 H1803 0.960 . S
C1816 C1815 1.524 . S
C1817 C1814 1.403 . S
C1817 C1818 1.392 . S
C1817 C1821 1.495 . S
C1818 C1817 1.392 . S
C1818 C1819 1.385 . S
C1818 C1820 1.478 . S
C1819 H1813 0.930 . S
C1819 C1815 1.400 . S
C1819 C1818 1.385 . S
C1820 C1818 1.478 . S
C1820 C1822 1.381 . S
C1820 C1826 1.383 . S
C1821 C1817 1.495 . S
C1821 H1827 0.959 . S
C1821 H1828 0.961 . S
C1821 H1829 0.960 . S
C1822 C1820 1.381 . S
C1822 C1823 1.394 . S
C1822 H1830 0.930 . S
C1823 C1822 1.394 . S
C1823 C1824 1.383 . S
C1823 H1831 0.929 . S
C1824 C1823 1.383 . S
C1824 C1825 1.377 . S
C1825 H1809 0.930 . S
C1825 C1824 1.377 . S
C1825 C1826 1.379 . S
C1826 H1810 0.931 . S
C1826 C1820 1.383 . S
C1826 C1825 1.379 . S
H1827 C1821 0.959 . S
H1828 C1821 0.961 . S
H1829 C1821 0.960 . S
H1830 C1822 0.930 . S
H1831 C1823 0.929 . S
H1832 C1840 0.929 . S
H1833 C1842 0.930 . S
H1834 C1844 0.930 . S
H1835 C1847 0.929 . S
H1836 C1850 0.930 . S
H1837 C1852 0.960 . S
H1838 C1852 0.960 . S
H1839 C1852 0.960 . S
C1840 H1832 0.929 . S
C1840 C1841 1.377 . S
C1840 C1842 1.384 . S
C1841 C1840 1.377 . S
C1841 C1847 1.390 . S
C1842 H1833 0.930 . S
C1842 C1840 1.384 . S
C1842 C1843 1.372 . S
C1843 C1842 1.372 . S
C1843 C1844 1.400 . S
C1843 C1848 1.490 . S
C1844 H1834 0.930 . S
C1844 C1843 1.400 . S
C1844 C1847 1.386 . S
H1845 C1861 0.930 . S
H1846 C1862 0.931 . S
C1847 H1835 0.929 . S
C1847 C1841 1.390 . S
C1847 C1844 1.386 . S
C1848 C1843 1.490 . S
C1848 C1850 1.395 . S
C1848 C1851 1.403 . S
H1849 C1855 0.930 . S
C1850 H1836 0.930 . S
C1850 C1848 1.395 . S
C1850 C1853 1.403 . S
C1851 C1848 1.403 . S
C1851 C1852 1.524 . S
C1851 C1855 1.400 . S
C1852 H1837 0.960 . S
C1852 H1838 0.960 . S
C1852 H1839 0.960 . S
C1852 C1851 1.524 . S
C1853 C1850 1.403 . S
C1853 C1854 1.392 . S
C1853 C1857 1.495 . S
C1854 C1853 1.392 . S
C1854 C1855 1.385 . S
C1854 C1856 1.478 . S
C1855 H1849 0.930 . S
C1855 C1851 1.400 . S
C1855 C1854 1.385 . S
C1856 C1854 1.478 . S
C1856 C1858 1.381 . S
C1856 C1862 1.383 . S
C1857 C1853 1.495 . S
C1857 H1863 0.959 . S
C1857 H1864 0.961 . S
C1857 H1865 0.960 . S
C1858 C1856 1.381 . S
C1858 C1859 1.394 . S
C1858 H1866 0.930 . S
C1859 C1858 1.394 . S
C1859 C1860 1.383 . S
C1859 H1867 0.929 . S
C1860 C1859 1.383 . S
C1860 C1861 1.377 . S
C1861 H1845 0.930 . S
C1861 C1860 1.377 . S
C1861 C1862 1.379 . S
C1862 H1846 0.931 . S
C1862 C1856 1.383 . S
C1862 C1861 1.379 . S
H1863 C1857 0.959 . S
H1864 C1857 0.961 . S
H1865 C1857 0.960 . S
H1866 C1858 0.930 . S
H1867 C1859 0.929 . S
H1868 C1876 0.929 . S
H1869 C1878 0.930 . S
H1870 C1880 0.930 . S
H1871 C1883 0.929 . S
H1872 C1886 0.930 . S
H1873 C1888 0.960 . S
H1874 C1888 0.960 . S
H1875 C1888 0.960 . S
C1876 H1868 0.929 . S
C1876 C1877 1.377 . S
C1876 C1878 1.384 . S
C1877 C1876 1.377 . S
C1877 C1883 1.390 . S
C1878 H1869 0.930 . S
C1878 C1876 1.384 . S
C1878 C1879 1.372 . S
C1879 C1878 1.372 . S
C1879 C1880 1.400 . S
C1879 C1884 1.490 . S
C1880 H1870 0.930 . S
C1880 C1879 1.400 . S
C1880 C1883 1.386 . S
H1881 C1897 0.930 . S
H1882 C1898 0.931 . S
C1883 H1871 0.929 . S
C1883 C1877 1.390 . S
C1883 C1880 1.386 . S
C1884 C1879 1.490 . S
C1884 C1886 1.395 . S
C1884 C1887 1.403 . S
H1885 C1891 0.930 . S
C1886 H1872 0.930 . S
C1886 C1884 1.395 . S
C1886 C1889 1.403 . S
C1887 C1884 1.403 . S
C1887 C1888 1.524 . S
C1887 C1891 1.400 . S
C1888 H1873 0.960 . S
C1888 H1874 0.960 . S
C1888 H1875 0.960 . S
C1888 C1887 1.524 . S
C1889 C1886 1.403 . S
C1889 C1890 1.392 . S
C1889 C1893 1.495 . S
C1890 C1889 1.392 . S
C1890 C1891 1.385 . S
C1890 C1892 1.478 . S
C1891 H1885 0.930 . S
C1891 C1887 1.400 . S
C1891 C1890 1.385 . S
C1892 C1890 1.478 . S
C1892 C1894 1.381 . S
C1892 C1898 1.383 . S
C1893 C1889 1.495 . S
C1893 H1899 0.959 . S
C1893 H1900 0.961 . S
C1893 H1901 0.960 . S
C1894 C1892 1.381 . S
C1894 C1895 1.394 . S
C1894 H1902 0.930 . S
C1895 C1894 1.394 . S
C1895 C1896 1.383 . S
C1895 H1903 0.929 . S
C1896 C1895 1.383 . S
C1896 C1897 1.377 . S
C1897 H1881 0.930 . S
C1897 C1896 1.377 . S
C1897 C1898 1.379 . S
C1898 H1882 0.931 . S
C1898 C1892 1.383 . S
C1898 C1897 1.379 . S
H1899 C1893 0.959 . S
H1900 C1893 0.961 . S
H1901 C1893 0.960 . S
H1902 C1894 0.930 . S
H1903 C1895 0.929 . S
H1904 C1912 0.929 . S
H1905 C1914 0.930 . S
H1906 C1916 0.930 . S
H1907 C1919 0.929 . S
H1908 C1922 0.930 . S
H1909 C1924 0.960 . S
H1910 C1924 0.960 . S
H1911 C1924 0.960 . S
C1912 H1904 0.929 . S
C1912 C1913 1.377 . S
C1912 C1914 1.384 . S
C1913 C1912 1.377 . S
C1913 C1919 1.390 . S
C1914 H1905 0.930 . S
C1914 C1912 1.384 . S
C1914 C1915 1.372 . S
C1915 C1914 1.372 . S
C1915 C1916 1.400 . S
C1915 C1920 1.490 . S
C1916 H1906 0.930 . S
C1916 C1915 1.400 . S
C1916 C1919 1.386 . S
H1917 C1933 0.930 . S
H1918 C1934 0.931 . S
C1919 H1907 0.929 . S
C1919 C1913 1.390 . S
C1919 C1916 1.386 . S
C1920 C1915 1.490 . S
C1920 C1922 1.395 . S
C1920 C1923 1.403 . S
H1921 C1927 0.930 . S
C1922 H1908 0.930 . S
C1922 C1920 1.395 . S
C1922 C1925 1.403 . S
C1923 C1920 1.403 . S
C1923 C1924 1.524 . S
C1923 C1927 1.400 . S
C1924 H1909 0.960 . S
C1924 H1910 0.960 . S
C1924 H1911 0.960 . S
C1924 C1923 1.524 . S
C1925 C1922 1.403 . S
C1925 C1926 1.392 . S
C1925 C1929 1.495 . S
C1926 C1925 1.392 . S
C1926 C1927 1.385 . S
C1926 C1928 1.478 . S
C1927 H1921 0.930 . S
C1927 C1923 1.400 . S
C1927 C1926 1.385 . S
C1928 C1926 1.478 . S
C1928 C1930 1.381 . S
C1928 C1934 1.383 . S
C1929 C1925 1.495 . S
C1929 H1935 0.959 . S
C1929 H1936 0.961 . S
C1929 H1937 0.960 . S
C1930 C1928 1.381 . S
C1930 C1931 1.394 . S
C1930 H1938 0.930 . S
C1931 C1930 1.394 . S
C1931 C1932 1.383 1_565 S
C1931 H1939 0.929 . S
C1932 C1931 1.383 1_545 S
C1932 C1933 1.377 . S
C1933 H1917 0.930 . S
C1933 C1932 1.377 . S
C1933 C1934 1.379 1_545 S
C1934 H1918 0.931 . S
C1934 C1928 1.383 . S
C1934 C1933 1.379 1_565 S
H1935 C1929 0.959 . S
H1936 C1929 0.961 . S
H1937 C1929 0.960 . S
H1938 C1930 0.930 . S
H1939 C1931 0.929 . S
H1940 C1948 0.929 . S
H1941 C1950 0.930 . S
H1942 C1952 0.930 . S
H1943 C1955 0.929 . S
H1944 C1958 0.930 . S
H1945 C1960 0.960 . S
H1946 C1960 0.960 . S
H1947 C1960 0.965 . S
C1948 H1940 0.929 . S
C1948 C1949 1.377 1_565 S
C1948 C1950 1.384 . S
C1949 C1948 1.377 1_545 S
C1949 C1955 1.390 . S
C1950 H1941 0.930 . S
C1950 C1948 1.384 . S
C1950 C1951 1.372 . S
C1951 C1950 1.372 . S
C1951 C1952 1.400 . S
C1951 C1956 1.490 . S
C1952 H1942 0.930 . S
C1952 C1951 1.400 . S
C1952 C1955 1.386 1_565 S
H1953 C1969 0.930 . S
H1954 C1970 0.931 . S
C1955 H1943 0.929 . S
C1955 C1949 1.390 . S
C1955 C1952 1.386 1_545 S
C1956 C1951 1.490 . S
C1956 C1958 1.395 . S
C1956 C1959 1.403 . S
H1957 C1963 0.930 . S
C1958 H1944 0.930 . S
C1958 C1956 1.395 . S
C1958 C1961 1.403 . S
C1959 C1956 1.403 . S
C1959 C1960 1.524 . S
C1959 C1963 1.400 . S
C1960 H1945 0.960 . S
C1960 H1946 0.960 . S
C1960 H1947 0.965 . S
C1960 C1959 1.524 . S
C1961 C1958 1.403 . S
C1961 C1962 1.392 . S
C1961 C1965 1.495 . S
C1962 C1961 1.392 . S
C1962 C1963 1.385 . S
C1962 C1964 1.478 . S
C1963 H1957 0.930 . S
C1963 C1959 1.400 . S
C1963 C1962 1.385 . S
C1964 C1962 1.478 . S
C1964 C1966 1.381 . S
C1964 C1970 1.383 . S
C1965 C1961 1.495 . S
C1965 H1971 0.959 . S
C1965 H1972 0.961 . S
C1965 H1973 0.960 . S
C1966 C1964 1.381 . S
C1966 C1967 1.394 . S
C1966 H1974 0.930 . S
C1967 C1966 1.394 . S
C1967 C1968 1.383 . S
C1967 H1975 0.929 . S
C1968 C1967 1.383 . S
C1968 C1969 1.377 . S
C1969 H1953 0.930 . S
C1969 C1968 1.377 . S
C1969 C1970 1.379 . S
C1970 H1954 0.931 . S
C1970 C1964 1.383 . S
C1970 C1969 1.379 . S
H1971 C1965 0.959 . S
H1972 C1965 0.961 . S
H1973 C1965 0.960 . S
H1974 C1966 0.930 . S
H1975 C1967 0.929 . S
H1976 C1984 0.929 . S
H1977 C1986 0.930 . S
H1978 C1988 0.930 . S
H1979 C1991 0.929 . S
H1980 C1994 0.930 . S
H1981 C1996 0.960 . S
H1982 C1996 0.960 . S
H1983 C1996 0.960 . S
C1984 H1976 0.929 . S
C1984 C1985 1.377 . S
C1984 C1986 1.384 . S
C1985 C1984 1.377 . S
C1985 C1991 1.390 . S
C1986 H1977 0.930 . S
C1986 C1984 1.384 . S
C1986 C1987 1.372 . S
C1987 C1986 1.372 . S
C1987 C1988 1.400 . S
C1987 C1992 1.490 . S
C1988 H1978 0.930 . S
C1988 C1987 1.400 . S
C1988 C1991 1.386 . S
H1989 C2005 0.930 . S
H1990 C2006 0.931 . S
C1991 H1979 0.929 . S
C1991 C1985 1.390 . S
C1991 C1988 1.386 . S
C1992 C1987 1.490 . S
C1992 C1994 1.395 . S
C1992 C1995 1.403 . S
H1993 C1999 0.930 . S
C1994 H1980 0.930 . S
C1994 C1992 1.395 . S
C1994 C1997 1.403 . S
C1995 C1992 1.403 . S
C1995 C1996 1.524 . S
C1995 C1999 1.400 . S
C1996 H1981 0.960 . S
C1996 H1982 0.960 . S
C1996 H1983 0.960 . S
C1996 C1995 1.524 . S
C1997 C1994 1.403 . S
C1997 C1998 1.392 . S
C1997 C2001 1.495 . S
C1998 C1997 1.392 . S
C1998 C1999 1.385 . S
C1998 C2000 1.478 . S
C1999 H1993 0.930 . S
C1999 C1995 1.400 . S
C1999 C1998 1.385 . S
C2000 C1998 1.478 . S
C2000 C2002 1.355 1_545 S
C2000 C2006 1.383 . S
C2001 C1997 1.495 . S
C2001 H2007 0.959 . S
C2001 H2008 0.961 . S
C2001 H2009 0.960 1_545 S
C2002 C2000 1.355 1_565 S
C2002 C2003 1.412 . S
C2002 H2010 0.940 . S
C2003 C2002 1.412 . S
C2003 C2004 1.383 . S
C2003 H2011 0.929 . S
C2004 C2003 1.383 . S
C2004 C2005 1.377 1_565 S
C2005 H1989 0.930 . S
C2005 C2004 1.377 1_545 S
C2005 C2006 1.379 . S
C2006 H1990 0.931 . S
C2006 C2000 1.383 . S
C2006 C2005 1.379 . S
H2007 C2001 0.959 . S
H2008 C2001 0.961 . S
H2009 C2001 0.960 1_565 S
H2010 C2002 0.940 . S
H2011 C2003 0.929 . S
H2012 C2020 0.929 . S
H2013 C2022 0.930 . S
H2014 C2024 0.930 . S
H2015 C2027 0.929 . S
H2016 C2030 0.930 . S
H2017 C2032 0.960 . S
H2018 C2032 0.960 . S
H2019 C2032 0.960 . S
C2020 H2012 0.929 . S
C2020 C2021 1.377 . S
C2020 C2022 1.384 . S
C2021 C2020 1.377 . S
C2021 C2027 1.390 . S
C2022 H2013 0.930 . S
C2022 C2020 1.384 . S
C2022 C2023 1.372 . S
C2023 C2022 1.372 . S
C2023 C2024 1.400 . S
C2023 C2028 1.490 . S
C2024 H2014 0.930 . S
C2024 C2023 1.400 . S
C2024 C2027 1.386 . S
H2025 C2041 0.918 1_565 S
H2026 C2042 0.931 . S
C2027 H2015 0.929 . S
C2027 C2021 1.390 . S
C2027 C2024 1.386 . S
C2028 C2023 1.490 . S
C2028 C2030 1.395 . S
C2028 C2031 1.403 . S
H2029 C2035 0.930 . S
C2030 H2016 0.930 . S
C2030 C2028 1.395 . S
C2030 C2033 1.403 . S
C2031 C2028 1.403 . S
C2031 C2032 1.524 . S
C2031 C2035 1.400 . S
C2032 H2017 0.960 . S
C2032 H2018 0.960 . S
C2032 H2019 0.960 . S
C2032 C2031 1.524 . S
C2033 C2030 1.403 . S
C2033 C2034 1.392 . S
C2033 C2037 1.495 . S
C2034 C2033 1.392 . S
C2034 C2035 1.385 . S
C2034 C2036 1.478 . S
C2035 H2029 0.930 . S
C2035 C2031 1.400 . S
C2035 C2034 1.385 . S
C2036 C2034 1.478 . S
C2036 C2038 1.381 . S
C2036 C2042 1.383 . S
C2037 C2033 1.495 . S
C2037 H2043 0.959 . S
C2037 H2044 0.961 . S
C2037 H2045 0.960 . S
C2038 C2036 1.381 . S
C2038 C2039 1.394 . S
C2038 H2046 0.930 . S
C2039 C2038 1.394 . S
C2039 C2040 1.383 1_545 S
C2039 H2047 0.929 1_545 S
C2040 C2039 1.383 1_565 S
C2040 C2041 1.377 1_565 S
C2041 H2025 0.918 1_545 S
C2041 C2040 1.377 1_545 S
C2041 C2042 1.379 . S
C2042 H2026 0.931 . S
C2042 C2036 1.383 . S
C2042 C2041 1.379 . S
H2043 C2037 0.959 . S
H2044 C2037 0.961 . S
H2045 C2037 0.960 . S
H2046 C2038 0.930 . S
H2047 C2039 0.929 1_565 S
H2048 C2056 0.929 . S
H2049 C2058 0.930 . S
H2050 C2060 0.930 . S
H2051 C2063 0.929 . S
H2052 C2066 0.930 . S
H2053 C2068 0.960 . S
H2054 C2068 0.960 . S
H2055 C2068 0.960 . S
C2056 H2048 0.929 . S
C2056 C2057 1.377 . S
C2056 C2058 1.384 . S
C2057 C2056 1.377 . S
C2057 C2063 1.390 . S
C2058 H2049 0.930 . S
C2058 C2056 1.384 . S
C2058 C2059 1.372 . S
C2059 C2058 1.372 . S
C2059 C2060 1.400 . S
C2059 C2064 1.490 . S
C2060 H2050 0.930 . S
C2060 C2059 1.400 . S
C2060 C2063 1.386 . S
H2061 C2077 0.930 . S
H2062 C2078 0.931 . S
C2063 H2051 0.929 . S
C2063 C2057 1.390 . S
C2063 C2060 1.386 . S
C2064 C2059 1.490 . S
C2064 C2066 1.395 . S
C2064 C2067 1.403 . S
H2065 C2071 0.930 . S
C2066 H2052 0.930 . S
C2066 C2064 1.395 . S
C2066 C2069 1.403 . S
C2067 C2064 1.403 . S
C2067 C2068 1.524 . S
C2067 C2071 1.400 . S
C2068 H2053 0.960 . S
C2068 H2054 0.960 . S
C2068 H2055 0.960 . S
C2068 C2067 1.524 . S
C2069 C2066 1.403 . S
C2069 C2070 1.392 . S
C2069 C2073 1.495 . S
C2070 C2069 1.392 . S
C2070 C2071 1.385 . S
C2070 C2072 1.478 . S
C2071 H2065 0.930 . S
C2071 C2067 1.400 . S
C2071 C2070 1.385 . S
C2072 C2070 1.478 . S
C2072 C2074 1.381 . S
C2072 C2078 1.383 . S
C2073 C2069 1.495 . S
C2073 H2079 0.959 . S
C2073 H2080 0.961 . S
C2073 H2081 0.960 . S
C2074 C2072 1.381 . S
C2074 C2075 1.394 . S
C2074 H2082 0.930 . S
C2075 C2074 1.394 . S
C2075 C2076 1.383 . S
C2075 H2083 0.929 . S
C2076 C2075 1.383 . S
C2076 C2077 1.377 . S
C2077 H2061 0.930 . S
C2077 C2076 1.377 . S
C2077 C2078 1.379 . S
C2078 H2062 0.931 . S
C2078 C2072 1.383 . S
C2078 C2077 1.379 . S
H2079 C2073 0.959 . S
H2080 C2073 0.961 . S
H2081 C2073 0.960 . S
H2082 C2074 0.930 . S
H2083 C2075 0.929 . S
H2084 C2092 0.929 . S
H2085 C2094 0.930 . S
H2086 C2096 0.930 . S
H2087 C2099 0.929 . S
H2088 C2102 0.930 . S
H2089 C2104 0.960 . S
H2090 C2104 0.960 . S
H2091 C2104 0.960 . S
C2092 H2084 0.929 . S
C2092 C2093 1.377 . S
C2092 C2094 1.384 . S
C2093 C2092 1.377 . S
C2093 C2099 1.390 . S
C2094 H2085 0.930 . S
C2094 C2092 1.384 . S
C2094 C2095 1.372 . S
C2095 C2094 1.372 . S
C2095 C2096 1.400 . S
C2095 C2100 1.490 . S
C2096 H2086 0.930 . S
C2096 C2095 1.400 . S
C2096 C2099 1.386 . S
H2097 C2113 0.930 1_565 S
H2098 C2114 0.931 . S
C2099 H2087 0.929 . S
C2099 C2093 1.390 . S
C2099 C2096 1.386 . S
C2100 C2095 1.490 . S
C2100 C2102 1.395 . S
C2100 C2103 1.403 . S
H2101 C2107 0.930 . S
C2102 H2088 0.930 . S
C2102 C2100 1.395 . S
C2102 C2105 1.403 . S
C2103 C2100 1.403 . S
C2103 C2104 1.524 . S
C2103 C2107 1.400 . S
C2104 H2089 0.960 . S
C2104 H2090 0.960 . S
C2104 H2091 0.960 . S
C2104 C2103 1.524 . S
C2105 C2102 1.403 . S
C2105 C2106 1.392 . S
C2105 C2109 1.495 . S
C2106 C2105 1.392 . S
C2106 C2107 1.385 . S
C2106 C2108 1.478 . S
C2107 H2101 0.930 . S
C2107 C2103 1.400 . S
C2107 C2106 1.385 . S
C2108 C2106 1.478 . S
C2108 C2110 1.381 . S
C2108 C2114 1.383 . S
C2109 C2105 1.495 . S
C2109 H2115 0.959 . S
C2109 H2116 0.961 . S
C2109 H2117 0.960 . S
C2110 C2108 1.381 . S
C2110 C2111 1.394 . S
C2110 H2118 0.930 . S
C2111 C2110 1.394 . S
C2111 C2112 1.383 . S
C2111 H2119 0.929 . S
C2112 C2111 1.383 . S
C2112 C2113 1.377 . S
C2113 H2097 0.930 1_545 S
C2113 C2112 1.377 . S
C2113 C2114 1.379 . S
C2114 H2098 0.931 . S
C2114 C2108 1.383 . S
C2114 C2113 1.379 . S
H2115 C2109 0.959 . S
H2116 C2109 0.961 . S
H2117 C2109 0.960 . S
H2118 C2110 0.930 . S
H2119 C2111 0.929 . S
H2120 C2128 0.929 . S
H2121 C2130 0.930 . S
H2122 C2132 0.930 . S
H2123 C2135 0.929 . S
H2124 C2138 0.930 . S
H2125 C2140 0.960 . S
H2126 C2140 0.960 . S
H2127 C2140 0.960 . S
C2128 H2120 0.929 . S
C2128 C2129 1.377 . S
C2128 C2130 1.384 . S
C2129 C2128 1.377 . S
C2129 C2135 1.390 . S
C2130 H2121 0.930 . S
C2130 C2128 1.384 . S
C2130 C2131 1.372 . S
C2131 C2130 1.372 . S
C2131 C2132 1.400 . S
C2131 C2136 1.490 . S
C2132 H2122 0.930 . S
C2132 C2131 1.400 . S
C2132 C2135 1.386 . S
H2133 C2149 0.930 . S
H2134 C2150 0.931 . S
C2135 H2123 0.929 . S
C2135 C2129 1.390 . S
C2135 C2132 1.386 . S
C2136 C2131 1.490 . S
C2136 C2138 1.395 . S
C2136 C2139 1.403 . S
H2137 C2143 0.930 . S
C2138 H2124 0.930 . S
C2138 C2136 1.395 . S
C2138 C2141 1.403 . S
C2139 C2136 1.403 . S
C2139 C2140 1.524 . S
C2139 C2143 1.400 . S
C2140 H2125 0.960 . S
C2140 H2126 0.960 . S
C2140 H2127 0.960 . S
C2140 C2139 1.524 . S
C2141 C2138 1.403 . S
C2141 C2142 1.392 . S
C2141 C2145 1.495 . S
C2142 C2141 1.392 . S
C2142 C2143 1.385 . S
C2142 C2144 1.478 . S
C2143 H2137 0.930 . S
C2143 C2139 1.400 . S
C2143 C2142 1.385 . S
C2144 C2142 1.478 . S
C2144 C2146 1.381 . S
C2144 C2150 1.383 . S
C2145 C2141 1.495 . S
C2145 H2151 0.959 . S
C2145 H2152 0.961 . S
C2145 H2153 0.960 . S
C2146 C2144 1.381 . S
C2146 C2147 1.394 . S
C2146 H2154 0.930 . S
C2147 C2146 1.394 . S
C2147 C2148 1.383 . S
C2147 H2155 0.929 . S
C2148 C2147 1.383 . S
C2148 C2149 1.377 . S
C2149 H2133 0.930 . S
C2149 C2148 1.377 . S
C2149 C2150 1.379 . S
C2150 H2134 0.931 . S
C2150 C2144 1.383 . S
C2150 C2149 1.379 . S
H2151 C2145 0.959 . S
H2152 C2145 0.961 . S
H2153 C2145 0.960 . S
H2154 C2146 0.930 . S
H2155 C2147 0.929 . S
H2156 C2164 0.929 . S
H2157 C2166 0.930 . S
H2158 C2168 0.930 . S
H2159 C2171 0.929 1_545 S
H2160 C2174 0.930 . S
H2161 C2176 0.960 . S
H2162 C2176 0.960 . S
H2163 C2176 0.960 . S
C2164 H2156 0.929 . S
C2164 C2165 1.377 . S
C2164 C2166 1.384 . S
C2165 C2164 1.377 . S
C2165 C2171 1.390 . S
C2166 H2157 0.930 . S
C2166 C2164 1.384 . S
C2166 C2167 1.372 . S
C2167 C2166 1.372 . S
C2167 C2168 1.400 . S
C2167 C2172 1.490 . S
C2168 H2158 0.930 . S
C2168 C2167 1.400 . S
C2168 C2171 1.386 . S
H2169 C2185 0.930 . S
H2170 C2186 0.931 . S
C2171 H2159 0.929 1_565 S
C2171 C2165 1.390 . S
C2171 C2168 1.386 . S
C2172 C2167 1.490 . S
C2172 C2174 1.395 . S
C2172 C2175 1.403 . S
H2173 C2179 0.930 . S
C2174 H2160 0.930 . S
C2174 C2172 1.395 . S
C2174 C2177 1.403 . S
C2175 C2172 1.403 . S
C2175 C2176 1.524 . S
C2175 C2179 1.400 . S
C2176 H2161 0.960 . S
C2176 H2162 0.960 . S
C2176 H2163 0.960 . S
C2176 C2175 1.524 . S
C2177 C2174 1.403 . S
C2177 C2178 1.392 . S
C2177 C2181 1.495 . S
C2178 C2177 1.392 . S
C2178 C2179 1.385 . S
C2178 C2180 1.478 . S
C2179 H2173 0.930 . S
C2179 C2175 1.400 . S
C2179 C2178 1.385 . S
C2180 C2178 1.478 . S
C2180 C2182 1.381 . S
C2180 C2186 1.383 . S
C2181 C2177 1.495 . S
C2181 H2187 0.959 . S
C2181 H2188 0.961 . S
C2181 H2189 0.960 . S
C2182 C2180 1.381 . S
C2182 C2183 1.394 . S
C2182 H2190 0.930 . S
C2183 C2182 1.394 . S
C2183 C2184 1.383 . S
C2183 H2191 0.929 . S
C2184 C2183 1.383 . S
C2184 C2185 1.377 . S
C2185 H2169 0.930 . S
C2185 C2184 1.377 . S
C2185 C2186 1.379 . S
C2186 H2170 0.931 . S
C2186 C2180 1.383 . S
C2186 C2185 1.379 . S
H2187 C2181 0.959 . S
H2188 C2181 0.961 . S
H2189 C2181 0.960 . S
H2190 C2182 0.930 . S
H2191 C2183 0.929 . S
H2192 C2200 0.929 . S
H2193 C2202 0.930 . S
H2194 C2204 0.930 . S
H2195 C2207 0.929 . S
H2196 C2210 0.930 . S
H2197 C2212 0.960 . S
H2198 C2212 0.960 . S
H2199 C2212 0.960 . S
C2200 H2192 0.929 . S
C2200 C2201 1.377 . S
C2200 C2202 1.384 . S
C2201 C2200 1.377 . S
C2201 C2207 1.390 . S
C2202 H2193 0.930 . S
C2202 C2200 1.384 . S
C2202 C2203 1.372 . S
C2203 C2202 1.372 . S
C2203 C2204 1.400 . S
C2203 C2208 1.490 . S
C2204 H2194 0.930 . S
C2204 C2203 1.400 . S
C2204 C2207 1.386 . S
H2205 C2221 0.930 . S
H2206 C2222 0.931 . S
C2207 H2195 0.929 . S
C2207 C2201 1.390 . S
C2207 C2204 1.386 . S
C2208 C2203 1.490 . S
C2208 C2210 1.395 . S
C2208 C2211 1.403 . S
H2209 C2215 0.930 . S
C2210 H2196 0.930 . S
C2210 C2208 1.395 . S
C2210 C2213 1.403 . S
C2211 C2208 1.403 . S
C2211 C2212 1.524 . S
C2211 C2215 1.400 . S
C2212 H2197 0.960 . S
C2212 H2198 0.960 . S
C2212 H2199 0.960 . S
C2212 C2211 1.524 . S
C2213 C2210 1.403 . S
C2213 C2214 1.392 . S
C2213 C2217 1.495 . S
C2214 C2213 1.392 . S
C2214 C2215 1.385 . S
C2214 C2216 1.478 . S
C2215 H2209 0.930 . S
C2215 C2211 1.400 . S
C2215 C2214 1.385 . S
C2216 C2214 1.478 . S
C2216 C2218 1.381 . S
C2216 C2222 1.383 . S
C2217 C2213 1.495 . S
C2217 H2223 0.959 . S
C2217 H2224 0.961 . S
C2217 H2225 0.960 . S
C2218 C2216 1.381 . S
C2218 C2219 1.394 . S
C2218 H2226 0.930 . S
C2219 C2218 1.394 . S
C2219 C2220 1.383 . S
C2219 H2227 0.929 . S
C2220 C2219 1.383 . S
C2220 C2221 1.377 . S
C2221 H2205 0.930 . S
C2221 C2220 1.377 . S
C2221 C2222 1.379 . S
C2222 H2206 0.931 . S
C2222 C2216 1.383 . S
C2222 C2221 1.379 . S
H2223 C2217 0.959 . S
H2224 C2217 0.961 . S
H2225 C2217 0.960 . S
H2226 C2218 0.930 . S
H2227 C2219 0.929 . S
H2228 C2236 0.929 . S
H2229 C2238 0.930 . S
H2230 C2240 0.930 . S
H2231 C2243 0.929 . S
H2232 C2246 0.930 . S
H2233 C2248 0.960 . S
H2234 C2248 0.960 . S
H2235 C2248 0.960 . S
C2236 H2228 0.929 . S
C2236 C2237 1.377 . S
C2236 C2238 1.384 . S
C2237 C2236 1.377 . S
C2237 C2243 1.390 . S
C2238 H2229 0.930 . S
C2238 C2236 1.384 . S
C2238 C2239 1.372 . S
C2239 C2238 1.372 . S
C2239 C2240 1.400 . S
C2239 C2244 1.490 . S
C2240 H2230 0.930 . S
C2240 C2239 1.400 . S
C2240 C2243 1.386 . S
H2241 C2257 0.930 . S
H2242 C2258 0.931 . S
C2243 H2231 0.929 . S
C2243 C2237 1.390 . S
C2243 C2240 1.386 . S
C2244 C2239 1.490 . S
C2244 C2246 1.395 . S
C2244 C2247 1.403 . S
H2245 C2251 0.930 . S
C2246 H2232 0.930 . S
C2246 C2244 1.395 . S
C2246 C2249 1.403 . S
C2247 C2244 1.403 . S
C2247 C2248 1.524 . S
C2247 C2251 1.400 . S
C2248 H2233 0.960 . S
C2248 H2234 0.960 . S
C2248 H2235 0.960 . S
C2248 C2247 1.524 . S
C2249 C2246 1.403 . S
C2249 C2250 1.392 . S
C2249 C2253 1.495 . S
C2250 C2249 1.392 . S
C2250 C2251 1.385 . S
C2250 C2252 1.478 . S
C2251 H2245 0.930 . S
C2251 C2247 1.400 . S
C2251 C2250 1.385 . S
C2252 C2250 1.478 . S
C2252 C2254 1.381 . S
C2252 C2258 1.383 . S
C2253 C2249 1.495 . S
C2253 H2259 0.959 . S
C2253 H2260 0.961 . S
C2253 H2261 0.960 . S
C2254 C2252 1.381 . S
C2254 C2255 1.394 . S
C2254 H2262 0.930 . S
C2255 C2254 1.394 . S
C2255 C2256 1.383 . S
C2255 H2263 0.929 . S
C2256 C2255 1.383 . S
C2256 C2257 1.377 . S
C2257 H2241 0.930 . S
C2257 C2256 1.377 . S
C2257 C2258 1.379 . S
C2258 H2242 0.931 . S
C2258 C2252 1.383 . S
C2258 C2257 1.379 . S
H2259 C2253 0.959 . S
H2260 C2253 0.961 . S
H2261 C2253 0.960 . S
H2262 C2254 0.930 . S
H2263 C2255 0.929 . S
H2264 C2272 0.929 . S
H2265 C2274 0.930 . S
H2266 C2276 0.930 . S
H2267 C2279 0.929 . S
H2268 C2282 0.930 . S
H2269 C2284 0.960 . S
H2270 C2284 0.960 . S
H2271 C2284 0.960 . S
C2272 H2264 0.929 . S
C2272 C2273 1.377 . S
C2272 C2274 1.384 . S
C2273 C2272 1.377 . S
C2273 C2279 1.390 . S
C2274 H2265 0.930 . S
C2274 C2272 1.384 . S
C2274 C2275 1.372 . S
C2275 C2274 1.372 . S
C2275 C2276 1.400 . S
C2275 C2280 1.490 . S
C2276 H2266 0.930 . S
C2276 C2275 1.400 . S
C2276 C2279 1.386 . S
H2277 C2293 0.930 . S
H2278 C2294 0.931 . S
C2279 H2267 0.929 . S
C2279 C2273 1.390 . S
C2279 C2276 1.386 . S
C2280 C2275 1.490 . S
C2280 C2282 1.395 . S
C2280 C2283 1.403 . S
H2281 C2287 0.930 . S
C2282 H2268 0.930 . S
C2282 C2280 1.395 . S
C2282 C2285 1.403 . S
C2283 C2280 1.403 . S
C2283 C2284 1.524 . S
C2283 C2287 1.400 . S
C2284 H2269 0.960 . S
C2284 H2270 0.960 . S
C2284 H2271 0.960 . S
C2284 C2283 1.524 . S
C2285 C2282 1.403 . S
C2285 C2286 1.392 . S
C2285 C2289 1.495 . S
C2286 C2285 1.392 . S
C2286 C2287 1.385 . S
C2286 C2288 1.478 . S
C2287 H2281 0.930 . S
C2287 C2283 1.400 . S
C2287 C2286 1.385 . S
C2288 C2286 1.478 . S
C2288 C2290 1.381 . S
C2288 C2294 1.383 . S
C2289 C2285 1.495 . S
C2289 H2295 0.959 . S
C2289 H2296 0.961 . S
C2289 H2297 0.960 . S
C2290 C2288 1.381 . S
C2290 C2291 1.394 . S
C2290 H2298 0.930 . S
C2291 C2290 1.394 . S
C2291 C2292 1.383 . S
C2291 H2299 0.929 . S
C2292 C2291 1.383 . S
C2292 C2293 1.377 . S
C2293 H2277 0.930 . S
C2293 C2292 1.377 . S
C2293 C2294 1.379 . S
C2294 H2278 0.931 . S
C2294 C2288 1.383 . S
C2294 C2293 1.379 . S
H2295 C2289 0.959 . S
H2296 C2289 0.961 . S
H2297 C2289 0.960 . S
H2298 C2290 0.930 . S
H2299 C2291 0.929 . S
H2300 C2308 0.929 . S
H2301 C2310 0.930 . S
H2302 C2312 0.930 . S
H2303 C2315 0.929 . S
H2304 C2318 0.930 . S
H2305 C2320 0.960 . S
H2306 C2320 0.960 . S
H2307 C2320 0.960 . S
C2308 H2300 0.929 . S
C2308 C2309 1.377 . S
C2308 C2310 1.384 . S
C2309 C2308 1.377 . S
C2309 C2315 1.390 . S
C2310 H2301 0.930 . S
C2310 C2308 1.384 . S
C2310 C2311 1.372 . S
C2311 C2310 1.372 . S
C2311 C2312 1.400 . S
C2311 C2316 1.490 . S
C2312 H2302 0.930 . S
C2312 C2311 1.400 . S
C2312 C2315 1.386 . S
H2313 C2329 0.930 . S
H2314 C2330 0.931 . S
C2315 H2303 0.929 . S
C2315 C2309 1.390 . S
C2315 C2312 1.386 . S
C2316 C2311 1.490 . S
C2316 C2318 1.395 . S
C2316 C2319 1.403 . S
H2317 C2323 0.930 . S
C2318 H2304 0.930 . S
C2318 C2316 1.395 . S
C2318 C2321 1.403 . S
C2319 C2316 1.403 . S
C2319 C2320 1.524 . S
C2319 C2323 1.400 . S
C2320 H2305 0.960 . S
C2320 H2306 0.960 . S
C2320 H2307 0.960 . S
C2320 C2319 1.524 . S
C2321 C2318 1.403 . S
C2321 C2322 1.392 . S
C2321 C2325 1.495 . S
C2322 C2321 1.392 . S
C2322 C2323 1.385 . S
C2322 C2324 1.478 . S
C2323 H2317 0.930 . S
C2323 C2319 1.400 . S
C2323 C2322 1.385 . S
C2324 C2322 1.478 . S
C2324 C2326 1.381 . S
C2324 C2330 1.383 . S
C2325 C2321 1.495 . S
C2325 H2331 0.959 . S
C2325 H2332 0.961 . S
C2325 H2333 0.960 . S
C2326 C2324 1.381 . S
C2326 C2327 1.394 . S
C2326 H2334 0.930 . S
C2327 C2326 1.394 . S
C2327 C2328 1.383 . S
C2327 H2335 0.929 . S
C2328 C2327 1.383 . S
C2328 C2329 1.377 . S
C2329 H2313 0.930 . S
C2329 C2328 1.377 . S
C2329 C2330 1.379 . S
C2330 H2314 0.931 . S
C2330 C2324 1.383 . S
C2330 C2329 1.379 . S
H2331 C2325 0.959 . S
H2332 C2325 0.961 . S
H2333 C2325 0.960 . S
H2334 C2326 0.930 . S
H2335 C2327 0.929 . S
H2336 C2344 0.929 . S
H2337 C2346 0.930 . S
H2338 C2348 0.930 . S
H2339 C2351 0.929 . S
H2340 C2354 0.930 . S
H2341 C2356 0.960 . S
H2342 C2356 0.960 . S
H2343 C2356 0.960 . S
C2344 H2336 0.929 . S
C2344 C2345 1.377 . S
C2344 C2346 1.384 . S
C2345 C2344 1.377 . S
C2345 C2351 1.390 . S
C2346 H2337 0.930 . S
C2346 C2344 1.384 . S
C2346 C2347 1.372 . S
C2347 C2346 1.372 . S
C2347 C2348 1.400 . S
C2347 C2352 1.490 . S
C2348 H2338 0.930 . S
C2348 C2347 1.400 . S
C2348 C2351 1.386 . S
H2349 C2365 0.930 . S
H2350 C2366 0.931 . S
C2351 H2339 0.929 . S
C2351 C2345 1.390 . S
C2351 C2348 1.386 . S
C2352 C2347 1.490 . S
C2352 C2354 1.395 . S
C2352 C2355 1.403 . S
H2353 C2359 0.930 . S
C2354 H2340 0.930 . S
C2354 C2352 1.395 . S
C2354 C2357 1.403 . S
C2355 C2352 1.403 . S
C2355 C2356 1.524 . S
C2355 C2359 1.400 . S
C2356 H2341 0.960 . S
C2356 H2342 0.960 . S
C2356 H2343 0.960 . S
C2356 C2355 1.524 . S
C2357 C2354 1.403 . S
C2357 C2358 1.392 . S
C2357 C2361 1.495 . S
C2358 C2357 1.392 . S
C2358 C2359 1.385 . S
C2358 C2360 1.478 . S
C2359 H2353 0.930 . S
C2359 C2355 1.400 . S
C2359 C2358 1.385 . S
C2360 C2358 1.478 . S
C2360 C2362 1.381 . S
C2360 C2366 1.383 . S
C2361 C2357 1.495 . S
C2361 H2367 0.959 . S
C2361 H2368 0.961 . S
C2361 H2369 0.960 . S
C2362 C2360 1.381 . S
C2362 C2363 1.394 . S
C2362 H2370 0.930 . S
C2363 C2362 1.394 . S
C2363 C2364 1.383 . S
C2363 H2371 0.929 . S
C2364 C2363 1.383 . S
C2364 C2365 1.377 . S
C2365 H2349 0.930 . S
C2365 C2364 1.377 . S
C2365 C2366 1.379 . S
C2366 H2350 0.931 . S
C2366 C2360 1.383 . S
C2366 C2365 1.379 . S
H2367 C2361 0.959 . S
H2368 C2361 0.961 . S
H2369 C2361 0.960 . S
H2370 C2362 0.930 . S
H2371 C2363 0.929 . S
H2372 C2380 0.929 . S
H2373 C2382 0.930 . S
H2374 C2384 0.930 . S
H2375 C2387 0.929 . S
H2376 C2390 0.930 . S
H2377 C2392 0.960 . S
H2378 C2392 0.960 . S
H2379 C2392 0.960 . S
C2380 H2372 0.929 . S
C2380 C2381 1.377 . S
C2380 C2382 1.384 . S
C2381 C2380 1.377 . S
C2381 C2387 1.390 . S
C2382 H2373 0.930 . S
C2382 C2380 1.384 . S
C2382 C2383 1.372 . S
C2383 C2382 1.372 . S
C2383 C2384 1.400 . S
C2383 C2388 1.490 . S
C2384 H2374 0.930 . S
C2384 C2383 1.400 . S
C2384 C2387 1.386 . S
H2385 C2401 0.930 . S
H2386 C2402 0.931 . S
C2387 H2375 0.929 . S
C2387 C2381 1.390 . S
C2387 C2384 1.386 . S
C2388 C2383 1.490 . S
C2388 C2390 1.395 . S
C2388 C2391 1.403 . S
H2389 C2395 0.930 . S
C2390 H2376 0.930 . S
C2390 C2388 1.395 . S
C2390 C2393 1.403 . S
C2391 C2388 1.403 . S
C2391 C2392 1.524 . S
C2391 C2395 1.400 . S
C2392 H2377 0.960 . S
C2392 H2378 0.960 . S
C2392 H2379 0.960 . S
C2392 C2391 1.524 . S
C2393 C2390 1.403 . S
C2393 C2394 1.392 . S
C2393 C2397 1.495 . S
C2394 C2393 1.392 . S
C2394 C2395 1.385 . S
C2394 C2396 1.478 . S
C2395 H2389 0.930 . S
C2395 C2391 1.400 . S
C2395 C2394 1.385 . S
C2396 C2394 1.478 . S
C2396 C2398 1.381 . S
C2396 C2402 1.383 . S
C2397 C2393 1.495 . S
C2397 H2403 0.959 . S
C2397 H2404 0.961 . S
C2397 H2405 0.960 . S
C2398 C2396 1.381 . S
C2398 C2399 1.394 . S
C2398 H2406 0.930 . S
C2399 C2398 1.394 . S
C2399 C2400 1.383 . S
C2399 H2407 0.929 . S
C2400 C2399 1.383 . S
C2400 C2401 1.377 . S
C2401 H2385 0.930 . S
C2401 C2400 1.377 . S
C2401 C2402 1.379 . S
C2402 H2386 0.931 . S
C2402 C2396 1.383 . S
C2402 C2401 1.379 . S
H2403 C2397 0.959 . S
H2404 C2397 0.961 . S
H2405 C2397 0.960 . S
H2406 C2398 0.930 . S
H2407 C2399 0.929 . S
H2408 C2416 0.929 . S
H2409 C2418 0.930 . S
H2410 C2420 0.930 . S
H2411 C2423 0.929 . S
H2412 C2426 0.930 . S
H2413 C2428 0.960 . S
H2414 C2428 0.960 . S
H2415 C2428 0.960 . S
C2416 H2408 0.929 . S
C2416 C2417 1.377 . S
C2416 C2418 1.384 . S
C2417 C2416 1.377 . S
C2417 C2423 1.390 . S
C2418 H2409 0.930 . S
C2418 C2416 1.384 . S
C2418 C2419 1.372 . S
C2419 C2418 1.372 . S
C2419 C2420 1.400 . S
C2419 C2424 1.490 . S
C2420 H2410 0.930 . S
C2420 C2419 1.400 . S
C2420 C2423 1.386 . S
H2421 C2437 0.930 . S
H2422 C2438 0.931 . S
C2423 H2411 0.929 . S
C2423 C2417 1.390 . S
C2423 C2420 1.386 . S
C2424 C2419 1.490 . S
C2424 C2426 1.395 . S
C2424 C2427 1.403 . S
H2425 C2431 0.930 . S
C2426 H2412 0.930 . S
C2426 C2424 1.395 . S
C2426 C2429 1.403 . S
C2427 C2424 1.403 . S
C2427 C2428 1.524 . S
C2427 C2431 1.400 . S
C2428 H2413 0.960 . S
C2428 H2414 0.960 . S
C2428 H2415 0.960 . S
C2428 C2427 1.524 . S
C2429 C2426 1.403 . S
C2429 C2430 1.392 . S
C2429 C2433 1.495 . S
C2430 C2429 1.392 . S
C2430 C2431 1.385 . S
C2430 C2432 1.478 . S
C2431 H2425 0.930 . S
C2431 C2427 1.400 . S
C2431 C2430 1.385 . S
C2432 C2430 1.478 . S
C2432 C2434 1.381 . S
C2432 C2438 1.383 . S
C2433 C2429 1.495 . S
C2433 H2439 0.959 . S
C2433 H2440 0.961 . S
C2433 H2441 0.960 . S
C2434 C2432 1.381 . S
C2434 C2435 1.394 . S
C2434 H2442 0.930 . S
C2435 C2434 1.394 . S
C2435 C2436 1.383 . S
C2435 H2443 0.929 . S
C2436 C2435 1.383 . S
C2436 C2437 1.377 . S
C2437 H2421 0.930 . S
C2437 C2436 1.377 . S
C2437 C2438 1.379 . S
C2438 H2422 0.931 . S
C2438 C2432 1.383 . S
C2438 C2437 1.379 . S
H2439 C2433 0.959 . S
H2440 C2433 0.961 . S
H2441 C2433 0.960 . S
H2442 C2434 0.930 . S
H2443 C2435 0.929 . S
H2444 C2452 0.929 . S
H2445 C2454 0.930 . S
H2446 C2456 0.930 . S
H2447 C2459 0.929 . S
H2448 C2462 0.930 . S
H2449 C2464 0.960 . S
H2450 C2464 0.960 . S
H2451 C2464 0.960 . S
C2452 H2444 0.929 . S
C2452 C2453 1.377 . S
C2452 C2454 1.384 . S
C2453 C2452 1.377 . S
C2453 C2459 1.390 . S
C2454 H2445 0.930 . S
C2454 C2452 1.384 . S
C2454 C2455 1.372 . S
C2455 C2454 1.372 . S
C2455 C2456 1.400 . S
C2455 C2460 1.490 . S
C2456 H2446 0.930 . S
C2456 C2455 1.400 . S
C2456 C2459 1.386 . S
H2457 C2473 0.930 . S
H2458 C2474 0.931 . S
C2459 H2447 0.929 . S
C2459 C2453 1.390 . S
C2459 C2456 1.386 . S
C2460 C2455 1.490 . S
C2460 C2462 1.395 . S
C2460 C2463 1.403 . S
H2461 C2467 0.930 . S
C2462 H2448 0.930 . S
C2462 C2460 1.395 . S
C2462 C2465 1.403 . S
C2463 C2460 1.403 . S
C2463 C2464 1.524 . S
C2463 C2467 1.400 . S
C2464 H2449 0.960 . S
C2464 H2450 0.960 . S
C2464 H2451 0.960 . S
C2464 C2463 1.524 . S
C2465 C2462 1.403 . S
C2465 C2466 1.392 . S
C2465 C2469 1.495 . S
C2466 C2465 1.392 . S
C2466 C2467 1.385 . S
C2466 C2468 1.478 . S
C2467 H2461 0.930 . S
C2467 C2463 1.400 . S
C2467 C2466 1.385 . S
C2468 C2466 1.478 . S
C2468 C2470 1.381 . S
C2468 C2474 1.383 . S
C2469 C2465 1.495 . S
C2469 H2475 0.959 . S
C2469 H2476 0.961 . S
C2469 H2477 0.960 . S
C2470 C2468 1.381 . S
C2470 C2471 1.394 . S
C2470 H2478 0.930 . S
C2471 C2470 1.394 . S
C2471 C2472 1.383 . S
C2471 H2479 0.929 . S
C2472 C2471 1.383 . S
C2472 C2473 1.377 . S
C2473 H2457 0.930 . S
C2473 C2472 1.377 . S
C2473 C2474 1.379 . S
C2474 H2458 0.931 . S
C2474 C2468 1.383 . S
C2474 C2473 1.379 . S
H2475 C2469 0.959 . S
H2476 C2469 0.961 . S
H2477 C2469 0.960 . S
H2478 C2470 0.930 . S
H2479 C2471 0.929 . S
C473 C137 1.534 . S
C492 C21 1.571 . S
C509 C50 1.530 . S
C528 C166 1.487 . S
C545 C195 1.541 . S
C564 C79 1.553 . S
C581 C224 1.528 . S
C600 C108 1.488 . S
C617 C311 1.525 . S
C636 C253 1.539 . S
C653 C282 1.531 . S
C672 C340 1.488 . S
C689 C427 1.541 . S
C708 C369 1.532 . S
C725 C398 1.529 . S
C744 C456 1.487 . S
C761 C100 1.827 . S
C780 C5 1.838 . S
C797 C13 1.828 1_565 S
C816 C34 1.840 . S
C833 C42 1.833 . S
C852 C63 1.861 . S
C869 C92 1.843 . S
C888 C71 1.805 1_545 S
C905 C158 1.828 . S
C924 C121 1.838 . S
C941 C187 1.825 1_565 S
C960 C150 1.828 . S
C977 C216 1.828 . S
C996 C179 1.838 . S
C1013 C129 1.825 1_545 S
C1032 C208 1.827 . S
C1049 C124 1.105 . S
C1068 C276 1.216 . S
C1085 C240 1.102 . S
C1104 C131 1.221 . S
C1121 C182 1.113 . S
C1140 C247 1.183 . S
C1157 C269 1.122 . S
C1176 C189 1.153 . S
C1193 C305 1.187 . S
C1212 C8 1.167 . S
C1229 C73 1.188 . S
C1248 C298 1.165 . S
C1265 C334 1.205 . S
C1284 C66 1.050 . S
C1301 C15 1.196 . S
C1320 C327 1.108 . S
C1337 C332 1.829 . S
C1356 C353 1.847 . S
C1373 C361 1.824 . S
C1392 C295 1.823 . S
C1409 C382 1.849 . S
C1428 C303 1.836 . S
C1445 C324 1.850 . S
C1464 C390 1.847 . S
C1481 C411 1.845 . S
C1500 C245 1.817 . S
C1517 C448 1.832 . S
C1536 C237 1.856 . S
C1553 C274 1.833 . S
C1572 C440 1.861 . S
C1589 C419 1.832 . S
C1608 C266 1.857 . S
C1625 C218 1.187 . S
C1644 C414 1.166 . S
C1661 C421 1.203 . S
C1680 C153 1.068 . S
C1697 C443 1.105 . S
C1716 C160 1.216 . S
C1733 C211 1.123 . S
C1752 C450 1.150 . S
C1769 C44 1.187 . S
C1788 C356 1.167 . S
C1805 C37 1.110 . S
C1824 C392 1.194 . S
C1841 C385 1.117 . S
C1860 C102 1.167 . S
C1877 C363 1.202 . S
C1896 C95 1.065 . S
C1913 C148 0.593 . S
C1932 C3 0.550 . S
C1949 C177 0.604 . S
C1968 C32 0.533 . S
C1985 C206 0.600 . S
C2004 C61 0.615 . S
C2021 C90 0.600 . S
C2040 C119 0.532 . S
C2057 C126 2.961 1_545 S
C2076 C300 2.966 . S
C2093 C242 2.956 . S
C2112 C68 2.945 1_545 S
C2129 C329 2.957 . S
C2148 C184 2.950 1_565 S
C2165 C10 2.957 1_565 S
C2184 C271 2.947 . S
C2201 C351 0.581 . S
C2220 C235 0.647 . S
C2237 C293 0.601 . S
C2256 C438 0.532 . S
C2273 C380 0.598 . S
C2292 C264 0.535 . S
C2309 C409 0.594 . S
C2328 C322 0.639 . S
C2345 C39 2.956 . S
C2364 C416 2.938 . S
C2381 C387 2.959 . S
C2400 C155 2.951 . S
C2417 C97 2.961 . S
C2436 C445 2.966 . S
C2453 C213 2.961 . S
C2472 C358 2.967 . S
