# Generated by pormake.
# Topology fng, (5)-cn, num edge types: 1
# Building blocks:
#     Node 0, Type 0, BuildingBlock: XOMCOT_clean_sbu_0, # of connection points: 5
#     Node 1, Type 0, BuildingBlock: XOMCOT_clean_sbu_0, # of connection points: 5
#     Node 2, Type 0, BuildingBlock: XOMCOT_clean_sbu_0, # of connection points: 5
#     Node 3, Type 0, BuildingBlock: XOMCOT_clean_sbu_0, # of connection points: 5
#     Node 4, Type 0, BuildingBlock: XOMCOT_clean_sbu_0, # of connection points: 5
#     Node 5, Type 0, BuildingBlock: XOMCOT_clean_sbu_0, # of connection points: 5
#     Node 6, Type 0, BuildingBlock: XOMCOT_clean_sbu_0, # of connection points: 5
#     Node 7, Type 0, BuildingBlock: XOMCOT_clean_sbu_0, # of connection points: 5
#     Node 8, Type 0, BuildingBlock: XOMCOT_clean_sbu_0, # of connection points: 5
#     Node 9, Type 0, BuildingBlock: XOMCOT_clean_sbu_0, # of connection points: 5
#     Node 10, Type 0, BuildingBlock: XOMCOT_clean_sbu_0, # of connection points: 5
#     Node 11, Type 0, BuildingBlock: XOMCOT_clean_sbu_0, # of connection points: 5
#     Node 12, Type 0, BuildingBlock: XOMCOT_clean_sbu_0, # of connection points: 5
#     Node 13, Type 0, BuildingBlock: XOMCOT_clean_sbu_0, # of connection points: 5
#     Node 14, Type 0, BuildingBlock: XOMCOT_clean_sbu_0, # of connection points: 5
#     Node 15, Type 0, BuildingBlock: XOMCOT_clean_sbu_0, # of connection points: 5
#     Node 16, Type 0, BuildingBlock: XOMCOT_clean_sbu_0, # of connection points: 5
#     Node 17, Type 0, BuildingBlock: XOMCOT_clean_sbu_0, # of connection points: 5
#     Edge 18, Type (0, 0), BuildingBlock: KIFKEQ_clean_linker_1, # of connection points: 2
#     Edge 19, Type (0, 0), BuildingBlock: KIFKEQ_clean_linker_1, # of connection points: 2
#     Edge 20, Type (0, 0), BuildingBlock: KIFKEQ_clean_linker_1, # of connection points: 2
#     Edge 21, Type (0, 0), BuildingBlock: KIFKEQ_clean_linker_1, # of connection points: 2
#     Edge 22, Type (0, 0), BuildingBlock: KIFKEQ_clean_linker_1, # of connection points: 2
#     Edge 23, Type (0, 0), BuildingBlock: KIFKEQ_clean_linker_1, # of connection points: 2
#     Edge 24, Type (0, 0), BuildingBlock: KIFKEQ_clean_linker_1, # of connection points: 2
#     Edge 25, Type (0, 0), BuildingBlock: KIFKEQ_clean_linker_1, # of connection points: 2
#     Edge 26, Type (0, 0), BuildingBlock: KIFKEQ_clean_linker_1, # of connection points: 2
#     Edge 27, Type (0, 0), BuildingBlock: KIFKEQ_clean_linker_1, # of connection points: 2
#     Edge 28, Type (0, 0), BuildingBlock: KIFKEQ_clean_linker_1, # of connection points: 2
#     Edge 29, Type (0, 0), BuildingBlock: KIFKEQ_clean_linker_1, # of connection points: 2
#     Edge 30, Type (0, 0), BuildingBlock: KIFKEQ_clean_linker_1, # of connection points: 2
#     Edge 31, Type (0, 0), BuildingBlock: KIFKEQ_clean_linker_1, # of connection points: 2
#     Edge 32, Type (0, 0), BuildingBlock: KIFKEQ_clean_linker_1, # of connection points: 2
#     Edge 33, Type (0, 0), BuildingBlock: KIFKEQ_clean_linker_1, # of connection points: 2
#     Edge 34, Type (0, 0), BuildingBlock: KIFKEQ_clean_linker_1, # of connection points: 2
#     Edge 35, Type (0, 0), BuildingBlock: KIFKEQ_clean_linker_1, # of connection points: 2
#     Edge 36, Type (0, 0), BuildingBlock: KIFKEQ_clean_linker_1, # of connection points: 2
#     Edge 37, Type (0, 0), BuildingBlock: KIFKEQ_clean_linker_1, # of connection points: 2
#     Edge 38, Type (0, 0), BuildingBlock: KIFKEQ_clean_linker_1, # of connection points: 2
#     Edge 39, Type (0, 0), BuildingBlock: KIFKEQ_clean_linker_1, # of connection points: 2
#     Edge 40, Type (0, 0), BuildingBlock: KIFKEQ_clean_linker_1, # of connection points: 2
#     Edge 41, Type (0, 0), BuildingBlock: KIFKEQ_clean_linker_1, # of connection points: 2
#     Edge 42, Type (0, 0), BuildingBlock: KIFKEQ_clean_linker_1, # of connection points: 2
#     Edge 43, Type (0, 0), BuildingBlock: KIFKEQ_clean_linker_1, # of connection points: 2
#     Edge 44, Type (0, 0), BuildingBlock: KIFKEQ_clean_linker_1, # of connection points: 2
#     Edge 45, Type (0, 0), BuildingBlock: KIFKEQ_clean_linker_1, # of connection points: 2
#     Edge 46, Type (0, 0), BuildingBlock: KIFKEQ_clean_linker_1, # of connection points: 2
#     Edge 47, Type (0, 0), BuildingBlock: KIFKEQ_clean_linker_1, # of connection points: 2
#     Edge 48, Type (0, 0), BuildingBlock: KIFKEQ_clean_linker_1, # of connection points: 2
#     Edge 49, Type (0, 0), BuildingBlock: KIFKEQ_clean_linker_1, # of connection points: 2
#     Edge 50, Type (0, 0), BuildingBlock: KIFKEQ_clean_linker_1, # of connection points: 2
#     Edge 51, Type (0, 0), BuildingBlock: KIFKEQ_clean_linker_1, # of connection points: 2
#     Edge 52, Type (0, 0), BuildingBlock: KIFKEQ_clean_linker_1, # of connection points: 2
#     Edge 53, Type (0, 0), BuildingBlock: KIFKEQ_clean_linker_1, # of connection points: 2
#     Edge 54, Type (0, 0), BuildingBlock: KIFKEQ_clean_linker_1, # of connection points: 2
#     Edge 55, Type (0, 0), BuildingBlock: KIFKEQ_clean_linker_1, # of connection points: 2
#     Edge 56, Type (0, 0), BuildingBlock: KIFKEQ_clean_linker_1, # of connection points: 2
#     Edge 57, Type (0, 0), BuildingBlock: KIFKEQ_clean_linker_1, # of connection points: 2
#     Edge 58, Type (0, 0), BuildingBlock: KIFKEQ_clean_linker_1, # of connection points: 2
#     Edge 59, Type (0, 0), BuildingBlock: KIFKEQ_clean_linker_1, # of connection points: 2
#     Edge 60, Type (0, 0), BuildingBlock: KIFKEQ_clean_linker_1, # of connection points: 2
#     Edge 61, Type (0, 0), BuildingBlock: KIFKEQ_clean_linker_1, # of connection points: 2
#     Edge 62, Type (0, 0), BuildingBlock: KIFKEQ_clean_linker_1, # of connection points: 2
# Relax obj value: 0.100
# Max RMSD: 0.127
# Mean RMSD: 0.127
data_MOF--net-fng--node1-XOMCOT_clean_sbu_0--edge1-KIFKEQ_clean_linker_1
_symmetry_space_group_name_H-M    P1
_symmetry_Int_Tables_number       1
_symmetry_cell_setting            triclinic
loop_
_symmetry_equiv_pos_as_xyz
'x, y, z'
_cell_length_a     80.659061
_cell_length_b     80.579309
_cell_length_c     17.583045
_cell_angle_alpha  89.958574
_cell_angle_beta   89.965341
_cell_angle_gamma 120.08067
loop_
_atom_site_label
_atom_site_type_symbol
_atom_site_fract_x
_atom_site_fract_y
_atom_site_fract_z
_atom_type_partial_charge
Co0 Co 0.15963 0.254 0.11174 0.0
C1 C 0.15989 0.25945 0.94583 0.0
C2 C 0.18395 0.28313 0.99923 0.0
C3 C 0.18619 0.28541 0.92146 0.0
N4 N 0.16728 0.26697 0.01444 0.0
N5 N 0.17109 0.27036 0.88813 0.0
H6 H 0.14717 0.24575 0.93776 0.0
H7 H 0.19431 0.29203 0.04167 0.0
C8 C 0.16634 0.29407 0.1466 0.0
O9 O 0.15989 0.29522 0.07936 0.0
N10 N 0.15244 0.24111 0.20845 0.0
C11 C 0.13793 0.22334 0.22372 0.0
C12 C 0.13694 0.22061 0.3014 0.0
C13 C 0.16024 0.24883 0.27617 0.0
N14 N 0.15095 0.23672 0.33424 0.0
C15 C 0.12208 0.23126 0.04956 0.0
C16 C 0.10427 0.24888 0.11898 0.0
C17 C 0.09346 0.23309 0.07142 0.0
C18 C 0.10267 0.22431 0.03681 0.0
C19 C 0.12383 0.2553 0.13127 0.0
N20 N 0.13274 0.24688 0.09467 0.0
H21 H 0.12832 0.22358 0.02353 0.0
H22 H 0.13138 0.26653 0.17223 0.0
H23 H 0.12848 0.21326 0.18165 0.0
H24 H 0.17208 0.26328 0.28284 0.0
O25 O 0.15897 0.23179 0.06657 0.0
O26 O 0.18465 0.25573 0.11901 0.0
O27 O 0.16639 0.27882 0.16632 0.0
C28 C 0.17697 0.23936 0.08345 0.0
H29 H 0.19856 0.29656 0.89197 0.0
H30 H 0.12657 0.20783 0.33124 0.0
H31 H 0.09751 0.25572 0.14858 0.0
H32 H 0.09486 0.21195 0.00028 0.0
Co33 Co 0.78543 0.914 0.10804 0.0
C34 C 0.77989 0.90863 0.9424 0.0
C35 C 0.75655 0.90967 0.99564 0.0
C36 C 0.75431 0.90957 0.91786 0.0
N37 N 0.77247 0.90878 0.01095 0.0
N38 N 0.76914 0.90911 0.88462 0.0
H39 H 0.79343 0.90928 0.93448 0.0
H40 H 0.74781 0.91141 0.03799 0.0
C41 C 0.74514 0.88085 0.14333 0.0
O42 O 0.74359 0.87341 0.07545 0.0
N43 N 0.79833 0.9196 0.20458 0.0
C44 C 0.81604 0.92275 0.21962 0.0
C45 C 0.81877 0.92443 0.29729 0.0
C46 C 0.79067 0.9197 0.27243 0.0
N47 N 0.80273 0.92241 0.33035 0.0
C48 C 0.8084 0.89942 0.04618 0.0
C49 C 0.78995 0.86333 0.11075 0.0
C50 C 0.80603 0.86861 0.06461 0.0
C51 C 0.81526 0.88692 0.03261 0.0
C52 C 0.78365 0.87653 0.12418 0.0
N53 N 0.79251 0.89422 0.09004 0.0
H54 H 0.81628 0.91352 0.02152 0.0
H55 H 0.77212 0.87255 0.16392 0.0
H56 H 0.82609 0.92337 0.17743 0.0
H57 H 0.77627 0.91719 0.2793 0.0
O58 O 0.8076 0.93566 0.0628 0.0
O59 O 0.78372 0.93732 0.11607 0.0
O60 O 0.76066 0.89589 0.16303 0.0
C61 C 0.80005 0.94607 0.08024 0.0
H62 H 0.74336 0.91105 0.88826 0.0
H63 H 0.8315 0.92674 0.32697 0.0
H64 H 0.78275 0.84943 0.1383 0.0
H65 H 0.82788 0.89166 0.9974 0.0
Co66 Co 0.12442 0.87976 0.11538 0.0
C67 C 0.12958 0.87944 0.94951 0.0
C68 C 0.12898 0.85529 0.00314 0.0
C69 C 0.12902 0.85306 0.92538 0.0
N70 N 0.12962 0.87201 0.01819 0.0
N71 N 0.12921 0.86821 0.8919 0.0
H72 H 0.12873 0.89222 0.94135 0.0
H73 H 0.12744 0.84491 0.04568 0.0
C74 C 0.15766 0.87289 0.15054 0.0
O75 O 0.16525 0.87914 0.08304 0.0
N76 N 0.11885 0.88706 0.21199 0.0
C77 C 0.11578 0.90167 0.22715 0.0
C78 C 0.11408 0.90268 0.30483 0.0
C79 C 0.11868 0.87922 0.27977 0.0
N80 N 0.116 0.88858 0.33778 0.0
C81 C 0.13927 0.91732 0.05264 0.0
C82 C 0.17493 0.93512 0.12024 0.0
C83 C 0.16989 0.94593 0.07295 0.0
C84 C 0.15179 0.93672 0.03928 0.0
C85 C 0.16172 0.91556 0.1332 0.0
N86 N 0.14427 0.90665 0.09754 0.0
H87 H 0.12529 0.91108 0.02718 0.0
H88 H 0.16547 0.90802 0.17391 0.0
H89 H 0.11525 0.91117 0.18501 0.0
H90 H 0.12111 0.86728 0.2865 0.0
O91 O 0.10284 0.88038 0.07038 0.0
O92 O 0.10107 0.85474 0.12341 0.0
O93 O 0.14245 0.87301 0.1701 0.0
C94 C 0.09237 0.86239 0.08786 0.0
H95 H 0.12771 0.84066 0.896 0.0
H96 H 0.11182 0.91314 0.33459 0.0
H97 H 0.18863 0.94188 0.14911 0.0
H98 H 0.14721 0.94455 0.00299 0.0
Co99 Co 0.26098 0.15236 0.88847 0.0
C100 C 0.26645 0.15259 0.0543 0.0
C101 C 0.29015 0.17664 0.00062 0.0
C102 C 0.29243 0.17886 0.07837 0.0
N103 N 0.27397 0.15999 0.9856 0.0
N104 N 0.27737 0.16378 0.11188 0.0
H105 H 0.25274 0.13989 0.06249 0.0
H106 H 0.29905 0.187 0.95808 0.0
C107 C 0.30101 0.15908 0.85276 0.0
O108 O 0.30221 0.15257 0.91985 0.0
N109 N 0.24808 0.14518 0.79191 0.0
C110 C 0.23035 0.13061 0.77681 0.0
C111 C 0.22763 0.12962 0.69915 0.0
C112 C 0.25577 0.15301 0.72411 0.0
N113 N 0.24369 0.14368 0.66614 0.0
C114 C 0.23825 0.11476 0.95092 0.0
C115 C 0.2559 0.09695 0.88173 0.0
C116 C 0.24012 0.08613 0.92945 0.0
C117 C 0.23132 0.09534 0.96389 0.0
C118 C 0.26229 0.11652 0.86918 0.0
N119 N 0.25386 0.12544 0.90567 0.0
H120 H 0.23057 0.121 0.97689 0.0
H121 H 0.27351 0.12408 0.82811 0.0
H122 H 0.2203 0.12112 0.81898 0.0
H123 H 0.27018 0.1649 0.71731 0.0
O124 O 0.23881 0.15172 0.93392 0.0
O125 O 0.26273 0.17741 0.88116 0.0
O126 O 0.28575 0.15914 0.8335 0.0
C127 C 0.24638 0.16973 0.91692 0.0
H128 H 0.30359 0.19123 0.10772 0.0
H129 H 0.21488 0.1192 0.66944 0.0
H130 H 0.26276 0.09019 0.85224 0.0
H131 H 0.21896 0.0875 0.00047 0.0
Co132 Co 0.8872 0.11762 0.88812 0.0
C133 C 0.88753 0.12389 0.05328 0.0
C134 C 0.86221 0.12084 0.00088 0.0
C135 C 0.86017 0.12096 0.07862 0.0
N136 N 0.87947 0.12284 0.98508 0.0
N137 N 0.87609 0.12271 0.1116 0.0
H138 H 0.901 0.12437 0.06032 0.0
H139 H 0.85137 0.11824 0.9589 0.0
C140 C 0.87984 0.15064 0.85438 0.0
O141 O 0.88557 0.15782 0.92272 0.0
N142 N 0.89447 0.11201 0.7916 0.0
C143 C 0.90822 0.10763 0.77654 0.0
C144 C 0.90933 0.10612 0.69867 0.0
C145 C 0.8873 0.11288 0.72371 0.0
N146 N 0.89627 0.10963 0.66599 0.0
C147 C 0.92488 0.13214 0.94832 0.0
C148 C 0.94244 0.16832 0.88455 0.0
C149 C 0.95337 0.16298 0.92955 0.0
C150 C 0.94428 0.14462 0.96131 0.0
C151 C 0.92288 0.15515 0.87185 0.0
N152 N 0.9141 0.13741 0.90557 0.0
H153 H 0.91867 0.11805 0.97303 0.0
H154 H 0.91523 0.1592 0.83301 0.0
H155 H 0.91709 0.10612 0.81886 0.0
H156 H 0.87577 0.11589 0.71646 0.0
O157 O 0.88771 0.09599 0.9334 0.0
O158 O 0.86215 0.09427 0.88025 0.0
O159 O 0.88051 0.13576 0.83368 0.0
C160 C 0.86974 0.08555 0.91604 0.0
H161 H 0.84741 0.11862 0.10815 0.0
H162 H 0.91942 0.1034 0.66839 0.0
H163 H 0.94908 0.18225 0.8573 0.0
H164 H 0.95218 0.13984 0.99608 0.0
Co165 Co 0.92131 0.77735 0.89255 0.0
C166 C 0.91961 0.77287 0.05921 0.0
C167 C 0.908 0.74553 0.00542 0.0
C168 C 0.90718 0.7429 0.0832 0.0
N169 N 0.91524 0.76434 0.99045 0.0
N170 N 0.91443 0.7602 0.11688 0.0
H171 H 0.92754 0.78818 0.06715 0.0
H172 H 0.90412 0.73443 0.96335 0.0
C173 C 0.88609 0.73944 0.84566 0.0
O174 O 0.87567 0.74064 0.90051 0.0
N175 N 0.92762 0.7902 0.79585 0.0
C176 C 0.9303 0.80775 0.7803 0.0
C177 C 0.93171 0.81032 0.70258 0.0
C178 C 0.92781 0.78248 0.72827 0.0
N179 N 0.93011 0.79439 0.67031 0.0
C180 C 0.90413 0.79699 0.96341 0.0
C181 C 0.87371 0.78609 0.86516 0.0
C182 C 0.8762 0.79858 0.92527 0.0
C183 C 0.89169 0.80404 0.97428 0.0
C184 C 0.88682 0.77954 0.85551 0.0
N185 N 0.90143 0.78439 0.90631 0.0
H186 H 0.91653 0.8026 0.99924 0.0
H187 H 0.88553 0.77111 0.80583 0.0
H188 H 0.93031 0.81757 0.8222 0.0
H189 H 0.92522 0.76802 0.72127 0.0
O190 O 0.94255 0.79983 0.938 0.0
O191 O 0.94459 0.77569 0.88878 0.0
O192 O 0.90365 0.75246 0.83764 0.0
C193 C 0.95309 0.79223 0.92324 0.0
H194 H 0.90183 0.72933 0.11227 0.0
H195 H 0.93323 0.82268 0.67204 0.0
H196 H 0.86227 0.7821 0.82439 0.0
H197 H 0.89444 0.8141 0.02004 0.0
Co198 Co 0.82616 0.58794 0.44087 0.0
C199 C 0.8262 0.59382 0.27442 0.0
C200 C 0.84945 0.61784 0.33011 0.0
C201 C 0.85182 0.62068 0.25267 0.0
N202 N 0.83327 0.60106 0.34378 0.0
N203 N 0.83715 0.60553 0.21804 0.0
H204 H 0.81432 0.57963 0.26439 0.0
H205 H 0.85944 0.62686 0.37335 0.0
C206 C 0.83119 0.62718 0.4786 0.0
O207 O 0.82206 0.62707 0.41656 0.0
N208 N 0.81964 0.57517 0.53796 0.0
C209 C 0.80642 0.55687 0.55348 0.0
C210 C 0.80581 0.55426 0.63123 0.0
C211 C 0.82695 0.58336 0.6056 0.0
N212 N 0.8187 0.571 0.66408 0.0
C213 C 0.78865 0.56567 0.37816 0.0
C214 C 0.77032 0.58126 0.45842 0.0
C215 C 0.75973 0.56638 0.40673 0.0
C216 C 0.76917 0.55857 0.36689 0.0
C217 C 0.78997 0.58783 0.46904 0.0
N218 N 0.79915 0.58057 0.42669 0.0
H219 H 0.79506 0.5586 0.34866 0.0
H220 H 0.79744 0.59821 0.51316 0.0
H221 H 0.79763 0.5463 0.51147 0.0
H222 H 0.83776 0.59827 0.61164 0.0
O223 O 0.82537 0.56576 0.39477 0.0
O224 O 0.85128 0.58986 0.44534 0.0
O225 O 0.83321 0.61284 0.4949 0.0
C226 C 0.84347 0.57344 0.4101 0.0
H227 H 0.86377 0.63256 0.22407 0.0
H228 H 0.79641 0.54104 0.66081 0.0
H229 H 0.76335 0.58722 0.4923 0.0
H230 H 0.76145 0.54679 0.3276 0.0
Co231 Co 0.45318 0.24845 0.44805 0.0
C232 C 0.44741 0.24245 0.28297 0.0
C233 C 0.42551 0.24623 0.33489 0.0
C234 C 0.42345 0.24614 0.25716 0.0
N235 N 0.44044 0.24372 0.35096 0.0
N236 N 0.43737 0.24392 0.22451 0.0
H237 H 0.4602 0.24156 0.27625 0.0
H238 H 0.41741 0.24908 0.37671 0.0
C239 C 0.41238 0.2156 0.47953 0.0
O240 O 0.41053 0.20916 0.40964 0.0
N241 N 0.46593 0.25359 0.54466 0.0
C242 C 0.48418 0.25831 0.55928 0.0
C243 C 0.48685 0.25972 0.63709 0.0
C244 C 0.45786 0.25241 0.61278 0.0
N245 N 0.47018 0.2558 0.67018 0.0
C246 C 0.4769 0.23447 0.38793 0.0
C247 C 0.45608 0.19696 0.43681 0.0
C248 C 0.47248 0.20242 0.39198 0.0
C249 C 0.48309 0.22165 0.36924 0.0
C250 C 0.45047 0.21043 0.45522 0.0
N251 N 0.46039 0.22883 0.42809 0.0
H252 H 0.48554 0.24906 0.36871 0.0
H253 H 0.43831 0.20587 0.49206 0.0
H254 H 0.49468 0.26027 0.51667 0.0
H255 H 0.44325 0.2492 0.62039 0.0
O256 O 0.47541 0.27053 0.40474 0.0
O257 O 0.45114 0.2715 0.45825 0.0
O258 O 0.42825 0.22991 0.50153 0.0
C259 C 0.46758 0.2806 0.42346 0.0
H260 H 0.41328 0.2488 0.22733 0.0
H261 H 0.49979 0.26274 0.66703 0.0
H262 H 0.44751 0.18239 0.45726 0.0
H263 H 0.49632 0.22698 0.33765 0.0
Co264 Co 0.79145 0.21457 0.45055 0.0
C265 C 0.79774 0.2149 0.28551 0.0
C266 C 0.79378 0.18912 0.33749 0.0
C267 C 0.79395 0.18719 0.25974 0.0
N268 N 0.79633 0.2066 0.35354 0.0
N269 N 0.79628 0.20339 0.22703 0.0
H270 H 0.79871 0.22863 0.27872 0.0
H271 H 0.79081 0.17812 0.37931 0.0
C272 C 0.82396 0.20637 0.48299 0.0
O273 O 0.83079 0.21153 0.41381 0.0
N274 N 0.78617 0.22212 0.5471 0.0
C275 C 0.78181 0.2359 0.56183 0.0
C276 C 0.78044 0.23719 0.63968 0.0
C277 C 0.78719 0.21511 0.6152 0.0
N278 N 0.78404 0.22421 0.6727 0.0
C279 C 0.80623 0.25248 0.39087 0.0
C280 C 0.84283 0.26921 0.44962 0.0
C281 C 0.83758 0.28046 0.4063 0.0
C282 C 0.81899 0.27185 0.37728 0.0
C283 C 0.82939 0.24978 0.46332 0.0
N284 N 0.81143 0.24139 0.43204 0.0
H285 H 0.79201 0.24653 0.36788 0.0
H286 H 0.83348 0.24195 0.50098 0.0
H287 H 0.78015 0.24466 0.51927 0.0
H288 H 0.79018 0.20357 0.62277 0.0
O289 O 0.76983 0.21523 0.40588 0.0
O290 O 0.76802 0.18966 0.45975 0.0
O291 O 0.80948 0.20765 0.50456 0.0
C292 C 0.75932 0.19729 0.42409 0.0
H293 H 0.79125 0.17433 0.22995 0.0
H294 H 0.77774 0.24732 0.6697 0.0
H295 H 0.85695 0.27553 0.4749 0.0
H296 H 0.81429 0.28008 0.34415 0.0
Co297 Co 0.92738 0.48614 0.21885 0.0
C298 C 0.93368 0.48693 0.38512 0.0
C299 C 0.95627 0.51149 0.32906 0.0
C300 C 0.95899 0.51405 0.4065 0.0
N301 N 0.94048 0.49437 0.31563 0.0
N302 N 0.94473 0.49856 0.44141 0.0
H303 H 0.92013 0.47414 0.39526 0.0
H304 H 0.96464 0.52184 0.2856 0.0
C305 C 0.96753 0.49307 0.18438 0.0
O306 O 0.96887 0.48706 0.25235 0.0
N307 N 0.91454 0.4785 0.12227 0.0
C308 C 0.89692 0.46387 0.10657 0.0
C309 C 0.89434 0.46306 0.02877 0.0
C310 C 0.92231 0.48649 0.05481 0.0
N311 N 0.91043 0.47726 0.99604 0.0
C312 C 0.90531 0.44897 0.28569 0.0
C313 C 0.92356 0.43127 0.22089 0.0
C314 C 0.90882 0.42096 0.27383 0.0
C315 C 0.89944 0.43005 0.30467 0.0
C316 C 0.92906 0.45042 0.2033 0.0
N317 N 0.92054 0.4594 0.23848 0.0
H318 H 0.89738 0.45515 0.30994 0.0
H319 H 0.9399 0.45771 0.1605 0.0
H320 H 0.88682 0.45428 0.14841 0.0
H321 H 0.93661 0.49859 0.04941 0.0
O322 O 0.90514 0.48549 0.26356 0.0
O323 O 0.9289 0.51104 0.2092 0.0
O324 O 0.95217 0.49283 0.16434 0.0
C325 C 0.91259 0.50342 0.24517 0.0
H326 H 0.97015 0.52661 0.43487 0.0
H327 H 0.88164 0.45258 0.99913 0.0
H328 H 0.93088 0.42468 0.1937 0.0
H329 H 0.88736 0.42251 0.34278 0.0
Co330 Co 0.55377 0.45063 0.21541 0.0
C331 C 0.55355 0.45574 0.38127 0.0
C332 C 0.52932 0.455 0.32807 0.0
C333 C 0.52715 0.45507 0.40582 0.0
N334 N 0.54606 0.45572 0.31277 0.0
N335 N 0.54235 0.45536 0.43901 0.0
H336 H 0.56638 0.45497 0.3892 0.0
H337 H 0.51892 0.45342 0.28569 0.0
C338 C 0.54721 0.48422 0.18203 0.0
O339 O 0.553 0.49139 0.25034 0.0
N340 N 0.56104 0.44517 0.1186 0.0
C341 C 0.57537 0.44168 0.10349 0.0
C342 C 0.5764 0.44 0.02583 0.0
C343 C 0.55338 0.44528 0.05083 0.0
N344 N 0.56259 0.44235 0.9929 0.0
C345 C 0.5912 0.46466 0.27772 0.0
C346 C 0.60927 0.50097 0.21507 0.0
C347 C 0.61988 0.49547 0.26125 0.0
C348 C 0.61055 0.47703 0.2923 0.0
C349 C 0.58977 0.48791 0.20073 0.0
N350 N 0.58072 0.47012 0.23399 0.0
H351 H 0.58479 0.45048 0.30173 0.0
H352 H 0.58238 0.4921 0.1611 0.0
H353 H 0.58464 0.44077 0.14567 0.0
H354 H 0.54167 0.44805 0.04403 0.0
O355 O 0.5539 0.4286 0.2589 0.0
O356 O 0.52854 0.42765 0.20679 0.0
O357 O 0.54753 0.46915 0.16153 0.0
C358 C 0.53593 0.41855 0.24111 0.0
H359 H 0.51476 0.45374 0.43543 0.0
H360 H 0.58664 0.43742 0.99606 0.0
H361 H 0.61611 0.51496 0.18826 0.0
H362 H 0.61821 0.47211 0.32779 0.0
Co363 Co 0.58809 0.1107 0.23089 0.0
C364 C 0.58664 0.10623 0.39753 0.0
C365 C 0.57555 0.07894 0.34368 0.0
C366 C 0.57481 0.07633 0.42146 0.0
N367 N 0.5824 0.0977 0.32876 0.0
N368 N 0.58173 0.09358 0.45518 0.0
H369 H 0.59428 0.12153 0.40547 0.0
H370 H 0.57185 0.06789 0.30155 0.0
C371 C 0.55314 0.07247 0.18494 0.0
O372 O 0.54281 0.07344 0.2407 0.0
N373 N 0.59402 0.12352 0.1342 0.0
C374 C 0.59624 0.14089 0.1186 0.0
C375 C 0.59758 0.14343 0.04086 0.0
C376 C 0.59441 0.11589 0.06666 0.0
N377 N 0.5964 0.12768 0.00865 0.0
C378 C 0.57042 0.12969 0.30326 0.0
C379 C 0.53936 0.11776 0.2079 0.0
C380 C 0.54119 0.12956 0.27014 0.0
C381 C 0.55728 0.13575 0.3169 0.0
C382 C 0.55308 0.1121 0.1959 0.0
N383 N 0.56791 0.11728 0.24575 0.0
H384 H 0.58309 0.13581 0.33768 0.0
H385 H 0.55191 0.10386 0.14574 0.0
H386 H 0.59601 0.15059 0.16049 0.0
H387 H 0.5922 0.10158 0.05973 0.0
O388 O 0.60919 0.13335 0.27596 0.0
O389 O 0.61161 0.10949 0.22612 0.0
O390 O 0.57059 0.0857 0.17614 0.0
C391 C 0.61994 0.12602 0.26065 0.0
H392 H 0.56972 0.06278 0.4505 0.0
H393 H 0.59878 0.15566 0.01029 0.0
H394 H 0.52751 0.11298 0.16862 0.0
H395 H 0.56017 0.14582 0.36272 0.0
Co396 Co 0.49304 0.92124 0.77759 0.0
C397 C 0.4946 0.92595 0.61086 0.0
C398 C 0.51532 0.95178 0.66576 0.0
C399 C 0.51801 0.95423 0.58816 0.0
N400 N 0.50036 0.93413 0.67989 0.0
N401 N 0.50502 0.93786 0.55396 0.0
H402 H 0.48373 0.91125 0.60204 0.0
H403 H 0.5244 0.9618 0.70878 0.0
C404 C 0.49774 0.96036 0.81664 0.0
O405 O 0.488 0.96002 0.75622 0.0
N406 N 0.48626 0.90862 0.87478 0.0
C407 C 0.47242 0.89057 0.89051 0.0
C408 C 0.47185 0.88792 0.96819 0.0
C409 C 0.49401 0.91664 0.94217 0.0
N410 N 0.48542 0.90438 0.00056 0.0
C411 C 0.45586 0.90014 0.71071 0.0
C412 C 0.43762 0.91576 0.79111 0.0
C413 C 0.42749 0.90248 0.73307 0.0
C414 C 0.43685 0.89435 0.69442 0.0
C415 C 0.45688 0.92124 0.80569 0.0
N416 N 0.46616 0.91427 0.76238 0.0
H417 H 0.46204 0.89273 0.68225 0.0
H418 H 0.46409 0.93081 0.85252 0.0
H419 H 0.4632 0.88021 0.84867 0.0
H420 H 0.50533 0.93136 0.94837 0.0
O421 O 0.49191 0.89877 0.73269 0.0
O422 O 0.51797 0.9228 0.78282 0.0
O423 O 0.50033 0.94628 0.83117 0.0
C424 C 0.51 0.9063 0.74811 0.0
H425 H 0.52935 0.96664 0.55956 0.0
H426 H 0.4621 0.8749 0.99825 0.0
H427 H 0.4308 0.92194 0.82463 0.0
H428 H 0.4294 0.88316 0.65255 0.0
Co429 Co 0.11979 0.58148 0.7785 0.0
C430 C 0.11382 0.57517 0.61351 0.0
C431 C 0.09201 0.57909 0.66545 0.0
C432 C 0.08991 0.57892 0.58769 0.0
N433 N 0.10693 0.57656 0.68154 0.0
N434 N 0.10378 0.57662 0.55502 0.0
H435 H 0.12657 0.57423 0.60675 0.0
H436 H 0.08398 0.58205 0.70722 0.0
C437 C 0.079 0.54897 0.81147 0.0
O438 O 0.0773 0.54207 0.74245 0.0
N439 N 0.13264 0.5868 0.875 0.0
C440 C 0.15078 0.59117 0.88968 0.0
C441 C 0.15345 0.59255 0.96752 0.0
C442 C 0.12462 0.58579 0.94312 0.0
N443 N 0.13687 0.58895 0.00058 0.0
C444 C 0.14279 0.56662 0.71907 0.0
C445 C 0.12285 0.53003 0.77864 0.0
C446 C 0.13934 0.53526 0.7352 0.0
C447 C 0.14935 0.55384 0.70575 0.0
C448 C 0.11692 0.54349 0.79204 0.0
N449 N 0.12652 0.56145 0.76037 0.0
H450 H 0.1511 0.58083 0.69577 0.0
H451 H 0.105 0.53943 0.8298 0.0
H452 H 0.16118 0.59282 0.84711 0.0
H453 H 0.11009 0.58279 0.95073 0.0
O454 O 0.14213 0.60306 0.7335 0.0
O455 O 0.11844 0.60497 0.7872 0.0
O456 O 0.0948 0.56348 0.83277 0.0
C457 C 0.13478 0.61362 0.75143 0.0
H458 H 0.07975 0.5816 0.55786 0.0
H459 H 0.16628 0.59527 0.99751 0.0
H460 H 0.11504 0.51592 0.80424 0.0
H461 H 0.16227 0.55853 0.67253 0.0
Co462 Co 0.45858 0.54694 0.77441 0.0
C463 C 0.46317 0.54585 0.60804 0.0
C464 C 0.4638 0.52256 0.66385 0.0
C465 C 0.46419 0.52017 0.58638 0.0
N466 N 0.46353 0.53889 0.67739 0.0
N467 N 0.46376 0.53486 0.55146 0.0
H468 H 0.46094 0.55778 0.59851 0.0
H469 H 0.46291 0.51262 0.70722 0.0
C470 C 0.4919 0.54029 0.80997 0.0
O471 O 0.4999 0.54738 0.74377 0.0
N472 N 0.45333 0.55441 0.87121 0.0
C473 C 0.45231 0.57013 0.88855 0.0
C474 C 0.45084 0.57089 0.96652 0.0
C475 C 0.45217 0.5457 0.93786 0.0
N476 N 0.45091 0.55556 0.99749 0.0
C477 C 0.47461 0.58425 0.70753 0.0
C478 C 0.50972 0.60169 0.77927 0.0
C479 C 0.50593 0.6123 0.72547 0.0
C480 C 0.48787 0.60329 0.69089 0.0
C481 C 0.49586 0.58248 0.79467 0.0
N482 N 0.47882 0.57363 0.75617 0.0
H483 H 0.4607 0.57825 0.68161 0.0
H484 H 0.49882 0.57506 0.83884 0.0
H485 H 0.45334 0.58069 0.8479 0.0
H486 H 0.45267 0.53258 0.94224 0.0
O487 O 0.43727 0.54808 0.72964 0.0
O488 O 0.43499 0.52217 0.7825 0.0
O489 O 0.47634 0.53979 0.82884 0.0
C490 C 0.42656 0.53009 0.74689 0.0
H491 H 0.46419 0.50824 0.55819 0.0
H492 H 0.45068 0.58236 0.99784 0.0
H493 H 0.52324 0.60811 0.80931 0.0
H494 H 0.48371 0.61102 0.65222 0.0
Co495 Co 0.59387 0.81916 0.55299 0.0
C496 C 0.59926 0.81984 0.71896 0.0
C497 C 0.62286 0.84391 0.66497 0.0
C498 C 0.62509 0.84627 0.7427 0.0
N499 N 0.60678 0.82715 0.65017 0.0
N500 N 0.6101 0.83116 0.77639 0.0
H501 H 0.5856 0.80707 0.72731 0.0
H502 H 0.63173 0.85423 0.62225 0.0
C503 C 0.63412 0.82638 0.51822 0.0
O504 O 0.63537 0.82006 0.58566 0.0
N505 N 0.58105 0.81163 0.45639 0.0
C506 C 0.56346 0.79683 0.44125 0.0
C507 C 0.56074 0.79582 0.36358 0.0
C508 C 0.58866 0.81958 0.38864 0.0
N509 N 0.57666 0.81011 0.33063 0.0
C510 C 0.57191 0.7816 0.61749 0.0
C511 C 0.59073 0.76464 0.55148 0.0
C512 C 0.57576 0.75382 0.60299 0.0
C513 C 0.56612 0.76258 0.63454 0.0
C514 C 0.59603 0.78379 0.53544 0.0
N515 N 0.58725 0.79242 0.57125 0.0
H516 H 0.56372 0.7875 0.64178 0.0
H517 H 0.6069 0.79132 0.49303 0.0
H518 H 0.55351 0.78722 0.48341 0.0
H519 H 0.60296 0.83168 0.38195 0.0
O520 O 0.57148 0.81821 0.59786 0.0
O521 O 0.59521 0.84398 0.54455 0.0
O522 O 0.61878 0.82622 0.49846 0.0
C523 C 0.57886 0.83619 0.58027 0.0
H524 H 0.63619 0.85871 0.77189 0.0
H525 H 0.54808 0.78526 0.33383 0.0
H526 H 0.59834 0.75843 0.52381 0.0
H527 H 0.55383 0.7547 0.67137 0.0
Co528 Co 0.22141 0.78536 0.56107 0.0
C529 C 0.22113 0.79064 0.72673 0.0
C530 C 0.19653 0.78913 0.67367 0.0
C531 C 0.19436 0.78917 0.75147 0.0
N532 N 0.21348 0.79035 0.65824 0.0
N533 N 0.2098 0.78993 0.78459 0.0
H534 H 0.23416 0.79024 0.73453 0.0
H535 H 0.18598 0.78721 0.63138 0.0
C536 C 0.21357 0.81804 0.52607 0.0
O537 O 0.21942 0.8255 0.59395 0.0
N538 N 0.22891 0.78001 0.46447 0.0
C539 C 0.24367 0.77718 0.44939 0.0
C540 C 0.24477 0.77553 0.37172 0.0
C541 C 0.22107 0.77974 0.39665 0.0
N542 N 0.23057 0.77724 0.33871 0.0
C543 C 0.25916 0.80082 0.62287 0.0
C544 C 0.27594 0.83681 0.55769 0.0
C545 C 0.28704 0.83209 0.60444 0.0
C546 C 0.27845 0.8138 0.63651 0.0
C547 C 0.25659 0.82317 0.54421 0.0
N548 N 0.24814 0.80556 0.57885 0.0
H549 H 0.25325 0.78675 0.64751 0.0
H550 H 0.24884 0.82677 0.50398 0.0
H551 H 0.2532 0.77676 0.49156 0.0
H552 H 0.20902 0.78198 0.38982 0.0
O553 O 0.22236 0.76394 0.60625 0.0
O554 O 0.19661 0.7618 0.55307 0.0
O555 O 0.21428 0.80313 0.50623 0.0
C556 C 0.20442 0.75328 0.58878 0.0
H557 H 0.18183 0.78746 0.78114 0.0
H558 H 0.25534 0.77345 0.342 0.0
H559 H 0.28233 0.85066 0.52981 0.0
H560 H 0.28667 0.80948 0.67164 0.0
Co561 Co 0.25555 0.44609 0.55118 0.0
C562 C 0.25098 0.4407 0.71732 0.0
C563 C 0.25112 0.41699 0.66325 0.0
C564 C 0.25127 0.41471 0.74098 0.0
N565 N 0.25063 0.43316 0.6485 0.0
N566 N 0.25136 0.42978 0.77471 0.0
H567 H 0.25204 0.45441 0.72574 0.0
H568 H 0.25241 0.40805 0.62048 0.0
C569 C 0.22225 0.40589 0.51708 0.0
O570 O 0.21473 0.4047 0.58458 0.0
N571 N 0.26084 0.45889 0.45444 0.0
C572 C 0.26371 0.4765 0.43902 0.0
C573 C 0.26543 0.4792 0.36129 0.0
C574 C 0.26113 0.45124 0.38682 0.0
N575 N 0.26371 0.46323 0.32861 0.0
C576 C 0.24037 0.46819 0.61647 0.0
C577 C 0.2044 0.44964 0.55179 0.0
C578 C 0.20879 0.46443 0.60432 0.0
C579 C 0.22726 0.47397 0.63501 0.0
C580 C 0.21811 0.44423 0.53463 0.0
N581 N 0.2356 0.45287 0.56991 0.0
H582 H 0.25452 0.47631 0.64028 0.0
H583 H 0.2146 0.43337 0.49204 0.0
H584 H 0.26412 0.4865 0.48101 0.0
H585 H 0.25886 0.43692 0.38038 0.0
O586 O 0.27712 0.46845 0.59559 0.0
O587 O 0.27897 0.44465 0.54246 0.0
O588 O 0.2375 0.42119 0.49706 0.0
C589 C 0.28763 0.46102 0.57801 0.0
H590 H 0.25248 0.40353 0.77012 0.0
H591 H 0.26759 0.49187 0.33134 0.0
H592 H 0.1905 0.44223 0.5246 0.0
H593 H 0.23178 0.48612 0.67266 0.0
H594 H 0.1842 0.26282 0.40165 0.0
H595 H 0.12527 0.22046 0.44924 0.0
H596 H 0.18936 0.2712 0.53601 0.0
H597 H 0.13049 0.22877 0.58349 0.0
H598 H 0.15256 0.23472 0.82639 0.0
H599 H 0.14801 0.22648 0.69234 0.0
H600 H 0.17968 0.28662 0.63352 0.0
H601 H 0.18419 0.29493 0.76858 0.0
C602 C 0.17231 0.25533 0.44056 0.0
C603 C 0.1543 0.24096 0.41435 0.0
C604 C 0.17528 0.26017 0.51762 0.0
C605 C 0.16033 0.2507 0.57038 0.0
C606 C 0.14238 0.23617 0.54442 0.0
C607 C 0.1394 0.23136 0.46736 0.0
C608 C 0.15835 0.24625 0.78516 0.0
C609 C 0.16857 0.26554 0.80839 0.0
C610 C 0.15577 0.24149 0.70814 0.0
C611 C 0.16339 0.25588 0.65226 0.0
C612 C 0.1738 0.27518 0.67526 0.0
C613 C 0.17637 0.27995 0.75254 0.0
H614 H 0.81868 0.91255 0.44485 0.0
H615 H 0.77697 0.92992 0.39831 0.0
H616 H 0.81037 0.9094 0.57919 0.0
H617 H 0.76861 0.92668 0.53277 0.0
H618 H 0.74463 0.89797 0.76527 0.0
H619 H 0.75293 0.90165 0.63016 0.0
H620 H 0.81296 0.92913 0.68846 0.0
H621 H 0.80473 0.92554 0.82259 0.0
C622 C 0.80793 0.91595 0.46324 0.0
C623 C 0.79851 0.92149 0.41051 0.0
C624 C 0.80312 0.91409 0.54035 0.0
C625 C 0.78878 0.91773 0.56665 0.0
C626 C 0.77949 0.92346 0.51415 0.0
C627 C 0.78432 0.92534 0.43703 0.0
C628 C 0.75958 0.90487 0.7491 0.0
C629 C 0.77396 0.91126 0.80484 0.0
C630 C 0.76435 0.90701 0.67178 0.0
C631 C 0.78361 0.9156 0.6486 0.0
C632 C 0.79797 0.92212 0.70438 0.0
C633 C 0.79322 0.91999 0.78145 0.0
H634 H 0.14051 0.85498 0.7725 0.0
H635 H 0.11242 0.88699 0.82988 0.0
H636 H 0.13681 0.85956 0.63738 0.0
H637 H 0.10884 0.89161 0.69578 0.0
H638 H 0.12571 0.91433 0.45253 0.0
H639 H 0.12876 0.90907 0.58681 0.0
H640 H 0.11173 0.85003 0.53988 0.0
H641 H 0.10855 0.85523 0.40549 0.0
C642 C 0.13348 0.8629 0.75636 0.0
C643 C 0.12697 0.87078 0.81211 0.0
C644 C 0.13134 0.86551 0.67904 0.0
C645 C 0.12262 0.87605 0.6559 0.0
C646 C 0.11595 0.88375 0.71168 0.0
C647 C 0.11807 0.88113 0.78874 0.0
C648 C 0.12234 0.90015 0.47078 0.0
C649 C 0.11688 0.88522 0.41792 0.0
C650 C 0.12415 0.89715 0.54785 0.0
C651 C 0.12055 0.87914 0.57398 0.0
C652 C 0.11492 0.86415 0.52136 0.0
C653 C 0.11307 0.86715 0.44429 0.0
H654 H 0.26978 0.17696 0.5983 0.0
H655 H 0.2275 0.11795 0.55142 0.0
H656 H 0.27818 0.1821 0.46388 0.0
H657 H 0.23583 0.12315 0.41713 0.0
H658 H 0.30191 0.1769 0.23124 0.0
H659 H 0.2936 0.1724 0.36637 0.0
H660 H 0.23353 0.14068 0.30812 0.0
H661 H 0.24176 0.14523 0.174 0.0
C662 C 0.26231 0.16505 0.55954 0.0
C663 C 0.24795 0.14702 0.58597 0.0
C664 C 0.26716 0.16801 0.48244 0.0
C665 C 0.25772 0.15303 0.42986 0.0
C666 C 0.24321 0.13507 0.45605 0.0
C667 C 0.23839 0.1321 0.53314 0.0
C668 C 0.28695 0.16907 0.24741 0.0
C669 C 0.27255 0.16126 0.19168 0.0
C670 C 0.28218 0.16651 0.32474 0.0
C671 C 0.2629 0.15608 0.34793 0.0
C672 C 0.24852 0.14845 0.29218 0.0
C673 C 0.25328 0.15102 0.2151 0.0
H674 H 0.89839 0.08854 0.55101 0.0
H675 H 0.88824 0.13508 0.6012 0.0
H676 H 0.89302 0.09134 0.41591 0.0
H677 H 0.88347 0.13841 0.46679 0.0
H678 H 0.85751 0.1275 0.2313 0.0
H679 H 0.86184 0.12347 0.36536 0.0
H680 H 0.90686 0.11136 0.30885 0.0
H681 H 0.90169 0.11401 0.17534 0.0
C682 C 0.89516 0.09945 0.53285 0.0
C683 C 0.89354 0.11145 0.58635 0.0
C684 C 0.89215 0.10114 0.4556 0.0
C685 C 0.88773 0.11508 0.4303 0.0
C686 C 0.88638 0.12723 0.48416 0.0
C687 C 0.88916 0.12536 0.56124 0.0
C688 C 0.86819 0.12377 0.24717 0.0
C689 C 0.8792 0.12112 0.1916 0.0
C690 C 0.87084 0.12168 0.32437 0.0
C691 C 0.88473 0.1171 0.34814 0.0
C692 C 0.89584 0.11461 0.29275 0.0
C693 C 0.89305 0.11648 0.21564 0.0
H694 H 0.91978 0.793 0.18285 0.0
H695 H 0.91362 0.73768 0.23458 0.0
H696 H 0.92465 0.80136 0.31558 0.0
H697 H 0.917 0.74559 0.36943 0.0
H698 H 0.94316 0.77362 0.59824 0.0
H699 H 0.9394 0.76493 0.46367 0.0
H700 H 0.90815 0.79505 0.43018 0.0
H701 H 0.91271 0.80429 0.56349 0.0
C702 C 0.91949 0.78255 0.22224 0.0
C703 C 0.91656 0.7647 0.19707 0.0
C704 C 0.92195 0.78727 0.29913 0.0
C705 C 0.92113 0.77415 0.35366 0.0
C706 C 0.91798 0.75618 0.32896 0.0
C707 C 0.91578 0.75153 0.25151 0.0
C708 C 0.93559 0.77841 0.56162 0.0
C709 C 0.92841 0.78979 0.59077 0.0
C710 C 0.93329 0.77333 0.48475 0.0
C711 C 0.9235 0.77931 0.43574 0.0
C712 C 0.91617 0.79055 0.46556 0.0
C713 C 0.91875 0.79586 0.542 0.0
H714 H 0.80388 0.58684 0.14105 0.0
H715 H 0.86518 0.61409 0.11484 0.0
H716 H 0.79967 0.57824 0.00665 0.0
H717 H 0.86114 0.60493 0.98113 0.0
H718 H 0.84838 0.60274 0.72943 0.0
H719 H 0.85254 0.61139 0.86218 0.0
H720 H 0.80185 0.55759 0.91739 0.0
H721 H 0.79683 0.54942 0.78352 0.0
C722 C 0.81644 0.59089 0.10635 0.0
C723 C 0.83484 0.6012 0.13809 0.0
C724 C 0.81406 0.58585 0.02949 0.0
C725 C 0.83005 0.59078 0.98276 0.0
C726 C 0.84849 0.60116 0.01481 0.0
C727 C 0.85085 0.60642 0.09147 0.0
C728 C 0.8379 0.59274 0.76913 0.0
C729 C 0.82205 0.57541 0.74439 0.0
C730 C 0.8405 0.59765 0.84606 0.0
C731 C 0.8275 0.58526 0.90091 0.0
C732 C 0.81196 0.56769 0.87671 0.0
C733 C 0.80922 0.56287 0.79954 0.0
H734 H 0.47161 0.25233 0.16113 0.0
H735 H 0.41397 0.23885 0.10495 0.0
H736 H 0.47939 0.25462 0.02745 0.0
H737 H 0.42225 0.24246 0.97077 0.0
H738 H 0.43687 0.23019 0.73592 0.0
H739 H 0.42891 0.22706 0.8705 0.0
H740 H 0.48546 0.27456 0.91964 0.0
H741 H 0.49349 0.27719 0.7844 0.0
C742 C 0.46051 0.24978 0.12068 0.0
C743 C 0.44204 0.24526 0.14459 0.0
C744 C 0.46513 0.25143 0.04355 0.0
C745 C 0.45151 0.24882 0.98816 0.0
C746 C 0.43306 0.24434 0.01184 0.0
C747 C 0.42836 0.24249 0.08904 0.0
C748 C 0.44752 0.24003 0.77553 0.0
C749 C 0.46574 0.25403 0.74992 0.0
C750 C 0.44296 0.23829 0.85267 0.0
C751 C 0.45649 0.25064 0.90603 0.0
C752 C 0.47478 0.26463 0.88028 0.0
C753 C 0.4794 0.26621 0.80297 0.0
H754 H 0.80941 0.21612 0.73762 0.0
H755 H 0.76309 0.22658 0.7877 0.0
H756 H 0.81267 0.21134 0.87211 0.0
H757 H 0.76585 0.22124 0.92287 0.0
H758 H 0.78823 0.22949 0.16364 0.0
H759 H 0.7859 0.23497 0.03004 0.0
H760 H 0.79738 0.18951 0.97321 0.0
H761 H 0.80105 0.18485 0.10731 0.0
C762 C 0.79974 0.21712 0.77757 0.0
C763 C 0.78589 0.22156 0.75241 0.0
C764 C 0.80156 0.21435 0.85468 0.0
C765 C 0.78945 0.21577 0.9085 0.0
C766 C 0.77561 0.2203 0.88318 0.0
C767 C 0.77395 0.2233 0.80589 0.0
C768 C 0.79063 0.22083 0.12319 0.0
C769 C 0.79496 0.20674 0.14709 0.0
C770 C 0.78895 0.22379 0.04608 0.0
C771 C 0.79135 0.21264 0.99063 0.0
C772 C 0.79566 0.19855 0.01428 0.0
C773 C 0.79754 0.1957 0.09147 0.0
H774 H 0.94141 0.50804 0.93084 0.0
H775 H 0.88959 0.45507 0.87591 0.0
H776 H 0.95 0.51292 0.79809 0.0
H777 H 0.89777 0.4607 0.74217 0.0
H778 H 0.92801 0.46503 0.5181 0.0
H779 H 0.91945 0.46011 0.65256 0.0
H780 H 0.94248 0.52113 0.67954 0.0
H781 H 0.9515 0.52596 0.54559 0.0
C782 C 0.93171 0.49739 0.89109 0.0
C783 C 0.91481 0.48095 0.9157 0.0
C784 C 0.9366 0.50039 0.81412 0.0
C785 C 0.92465 0.48719 0.75905 0.0
C786 C 0.90753 0.47101 0.78305 0.0
C787 C 0.90271 0.4679 0.86023 0.0
C788 C 0.93124 0.47735 0.55302 0.0
C789 C 0.94047 0.49587 0.52151 0.0
C790 C 0.92624 0.47455 0.62997 0.0
C791 C 0.93016 0.4902 0.67713 0.0
C792 C 0.9395 0.50876 0.64543 0.0
C793 C 0.94469 0.51156 0.56862 0.0
H794 H 0.58835 0.45193 0.87835 0.0
H795 H 0.52938 0.43509 0.92533 0.0
H796 H 0.58319 0.45501 0.74396 0.0
H797 H 0.52426 0.43826 0.79085 0.0
H798 H 0.52931 0.46692 0.5581 0.0
H799 H 0.53393 0.46333 0.69324 0.0
H800 H 0.56575 0.43508 0.63529 0.0
H801 H 0.56111 0.43859 0.50111 0.0
C802 C 0.57422 0.44864 0.86001 0.0
C803 C 0.55929 0.44327 0.91282 0.0
C804 C 0.57127 0.45045 0.78292 0.0
C805 C 0.55333 0.44693 0.7568 0.0
C806 C 0.53834 0.44138 0.80939 0.0
C807 C 0.54128 0.43954 0.88648 0.0
C808 C 0.53719 0.45986 0.57436 0.0
C809 C 0.54499 0.45324 0.51876 0.0
C810 C 0.53982 0.45778 0.65167 0.0
C811 C 0.55029 0.449 0.6749 0.0
C812 C 0.55794 0.44224 0.61927 0.0
C813 C 0.55531 0.44432 0.5422 0.0
H814 H 0.58632 0.1261 0.52112 0.0
H815 H 0.58137 0.0713 0.57295 0.0
H816 H 0.59094 0.13444 0.65387 0.0
H817 H 0.5845 0.07916 0.70784 0.0
H818 H 0.61015 0.10749 0.93687 0.0
H819 H 0.60663 0.09881 0.80232 0.0
H820 H 0.57427 0.12777 0.76824 0.0
H821 H 0.57859 0.13701 0.90155 0.0
C822 C 0.58625 0.11577 0.56053 0.0
C823 C 0.58373 0.09807 0.53538 0.0
C824 C 0.58856 0.12047 0.63744 0.0
C825 C 0.588 0.10747 0.69201 0.0
C826 C 0.58526 0.08965 0.66733 0.0
C827 C 0.58322 0.08503 0.58987 0.0
C828 C 0.60239 0.11202 0.90013 0.0
C829 C 0.59483 0.12308 0.92912 0.0
C830 C 0.60022 0.10695 0.82327 0.0
C831 C 0.5902 0.11261 0.77409 0.0
C832 C 0.58248 0.12353 0.80376 0.0
C833 C 0.58492 0.12884 0.88019 0.0
H834 H 0.51491 0.96242 0.43478 0.0
H835 H 0.49189 0.90265 0.49163 0.0
H836 H 0.51097 0.95416 0.29959 0.0
H837 H 0.48771 0.89446 0.35747 0.0
H838 H 0.518 0.93268 0.06532 0.0
H839 H 0.52348 0.94111 0.19944 0.0
H840 H 0.46698 0.89427 0.25264 0.0
H841 H 0.46127 0.88599 0.1185 0.0
C842 C 0.50916 0.94758 0.41854 0.0
C843 C 0.50347 0.9332 0.47416 0.0
C844 C 0.50689 0.94285 0.34122 0.0
C845 C 0.49886 0.92363 0.31809 0.0
C846 C 0.49357 0.90933 0.37362 0.0
C847 C 0.49591 0.91406 0.45065 0.0
C848 C 0.50665 0.92423 0.10527 0.0
C849 C 0.48912 0.90867 0.08056 0.0
C850 C 0.50983 0.92908 0.18224 0.0
C851 C 0.49565 0.91839 0.23644 0.0
C852 C 0.47827 0.90265 0.21218 0.0
C853 C 0.47502 0.89787 0.13517 0.0
H854 H 0.13797 0.58482 0.49162 0.0
H855 H 0.08046 0.57176 0.43531 0.0
H856 H 0.14579 0.58718 0.358 0.0
H857 H 0.0888 0.57545 0.30118 0.0
H858 H 0.1034 0.5635 0.06574 0.0
H859 H 0.09535 0.56021 0.20026 0.0
H860 H 0.15211 0.6072 0.25057 0.0
H861 H 0.16022 0.60997 0.11537 0.0
C862 C 0.1269 0.58237 0.45117 0.0
C863 C 0.10846 0.57796 0.47507 0.0
C864 C 0.13155 0.58407 0.37405 0.0
C865 C 0.11799 0.58161 0.31859 0.0
C866 C 0.09956 0.57722 0.34225 0.0
C867 C 0.09483 0.57532 0.41945 0.0
C868 C 0.11408 0.5732 0.1056 0.0
C869 C 0.13238 0.58709 0.0803 0.0
C870 C 0.10947 0.57136 0.18273 0.0
C871 C 0.12302 0.58352 0.23644 0.0
C872 C 0.1414 0.5974 0.21098 0.0
C873 C 0.14606 0.59907 0.13368 0.0
H874 H 0.47399 0.56827 0.47855 0.0
H875 H 0.44986 0.50744 0.44154 0.0
H876 H 0.46979 0.57263 0.34438 0.0
H877 H 0.44595 0.51191 0.3069 0.0
H878 H 0.46357 0.53296 0.05985 0.0
H879 H 0.46625 0.52753 0.19357 0.0
H880 H 0.44319 0.56398 0.25238 0.0
H881 H 0.44022 0.56932 0.11781 0.0
C882 C 0.46768 0.5558 0.44201 0.0
C883 C 0.46216 0.53748 0.47116 0.0
C884 C 0.46527 0.55831 0.36508 0.0
C885 C 0.45742 0.5426 0.31526 0.0
C886 C 0.45218 0.52432 0.3439 0.0
C887 C 0.45449 0.52178 0.42105 0.0
C888 C 0.45876 0.53964 0.10065 0.0
C889 C 0.45169 0.55165 0.07726 0.0
C890 C 0.46034 0.53651 0.17768 0.0
C891 C 0.45499 0.54536 0.23347 0.0
C892 C 0.44769 0.55717 0.21055 0.0
C893 C 0.446 0.56024 0.13334 0.0
H894 H 0.60232 0.84367 0.26333 0.0
H895 H 0.56074 0.78449 0.21537 0.0
H896 H 0.61066 0.84912 0.12892 0.0
H897 H 0.56899 0.79001 0.08105 0.0
H898 H 0.57451 0.81234 0.8386 0.0
H899 H 0.56631 0.80759 0.97274 0.0
H900 H 0.62638 0.83984 0.03084 0.0
H901 H 0.63465 0.84453 0.89567 0.0
C902 C 0.595 0.83179 0.22435 0.0
C903 C 0.58086 0.81361 0.25049 0.0
C904 C 0.5998 0.83493 0.14724 0.0
C905 C 0.59053 0.82 0.09436 0.0
C906 C 0.57623 0.80189 0.12024 0.0
C907 C 0.57146 0.79874 0.19734 0.0
C908 C 0.58603 0.81822 0.87967 0.0
C909 C 0.6053 0.82864 0.8562 0.0
C910 C 0.5813 0.81553 0.95675 0.0
C911 C 0.59568 0.82323 0.01244 0.0
C912 C 0.61495 0.83388 0.98923 0.0
C913 C 0.6197 0.83656 0.91189 0.0
H914 H 0.25646 0.78752 0.2241 0.0
H915 H 0.1971 0.76909 0.27089 0.0
H916 H 0.25118 0.7905 0.08977 0.0
H917 H 0.19186 0.77217 0.13646 0.0
H918 H 0.19609 0.80068 0.90406 0.0
H919 H 0.20083 0.79714 0.03912 0.0
H920 H 0.23424 0.77062 0.98053 0.0
H921 H 0.22947 0.77407 0.84644 0.0
C922 C 0.24222 0.78385 0.20576 0.0
C923 C 0.22722 0.77807 0.25856 0.0
C924 C 0.2392 0.78562 0.12866 0.0
C925 C 0.22111 0.78163 0.10245 0.0
C926 C 0.20605 0.77566 0.15502 0.0
C927 C 0.20906 0.77387 0.23212 0.0
C928 C 0.20435 0.79401 0.92015 0.0
C929 C 0.21254 0.78786 0.86435 0.0
C930 C 0.20705 0.79196 0.99744 0.0
C931 C 0.218 0.78367 0.02052 0.0
C932 C 0.22605 0.77739 0.96468 0.0
C933 C 0.22335 0.77944 0.88763 0.0
H934 H 0.2685 0.46539 0.83674 0.0
H935 H 0.23993 0.40516 0.8941 0.0
H936 H 0.27192 0.47356 0.97083 0.0
H937 H 0.24351 0.41341 0.02925 0.0
H938 H 0.25424 0.47923 0.2129 0.0
H939 H 0.25155 0.47096 0.07869 0.0
H940 H 0.26852 0.42905 0.12759 0.0
H941 H 0.27139 0.43741 0.26188 0.0
C942 C 0.26272 0.45384 0.87787 0.0
C943 C 0.2537 0.43456 0.8545 0.0
C944 C 0.26475 0.45856 0.95491 0.0
C945 C 0.25788 0.44415 0.01067 0.0
C946 C 0.24911 0.42486 0.98757 0.0
C947 C 0.24704 0.42012 0.91025 0.0
C948 C 0.25767 0.46846 0.19513 0.0
C949 C 0.26302 0.459 0.24854 0.0
C950 C 0.25607 0.46367 0.11809 0.0
C951 C 0.25976 0.4493 0.09254 0.0
C952 C 0.26528 0.43996 0.14567 0.0
C953 C 0.26693 0.44479 0.22271 0.0
H954 H 0.19305 0.36912 0.54436 0.0
H955 H 0.2302 0.4056 0.36556 0.0
H956 H 0.17853 0.34224 0.45533 0.0
H957 H 0.21589 0.37877 0.27716 0.0
H958 H 0.17381 0.33079 0.11958 0.0
H959 H 0.18617 0.35766 0.20865 0.0
H960 H 0.18717 0.3212 0.38648 0.0
H961 H 0.17466 0.29438 0.29803 0.0
C962 C 0.1981 0.37145 0.48611 0.0
C963 C 0.21289 0.38958 0.46249 0.0
C964 C 0.18985 0.35599 0.43509 0.0
C965 C 0.19604 0.35827 0.35889 0.0
C966 C 0.2106 0.37648 0.33506 0.0
C967 C 0.21893 0.39188 0.38613 0.0
C968 C 0.17656 0.32847 0.17776 0.0
C969 C 0.17328 0.31037 0.20126 0.0
C970 C 0.18377 0.34393 0.22881 0.0
C971 C 0.18773 0.34166 0.30492 0.0
C972 C 0.18413 0.32347 0.32865 0.0
C973 C 0.17707 0.30808 0.27754 0.0
H974 H 0.70808 0.85223 0.11725 0.0
H975 H 0.74543 0.88858 0.29542 0.0
H976 H 0.6814 0.83811 0.20739 0.0
H977 H 0.7188 0.87469 0.3849 0.0
H978 H 0.67066 0.83325 0.54377 0.0
H979 H 0.69732 0.84523 0.45371 0.0
H980 H 0.66103 0.84721 0.27775 0.0
H981 H 0.63441 0.83506 0.36713 0.0
C982 C 0.71065 0.85719 0.17559 0.0
C983 C 0.72896 0.87164 0.19869 0.0
C984 C 0.6953 0.84917 0.22726 0.0
C985 C 0.69787 0.85527 0.30361 0.0
C986 C 0.71627 0.86947 0.32691 0.0
C987 C 0.73156 0.87757 0.27521 0.0
C988 C 0.66833 0.83616 0.4858 0.0
C989 C 0.65033 0.83322 0.46308 0.0
C990 C 0.68367 0.84314 0.43418 0.0
C991 C 0.68139 0.84724 0.35826 0.0
C992 C 0.66331 0.84403 0.33537 0.0
C993 C 0.64803 0.83718 0.38703 0.0
H994 H 0.20611 0.81025 0.37399 0.0
H995 H 0.20512 0.84663 0.55205 0.0
H996 H 0.19354 0.82423 0.28432 0.0
H997 H 0.19274 0.86083 0.46176 0.0
H998 H 0.14919 0.86428 0.30164 0.0
H999 H 0.16343 0.85196 0.39111 0.0
H1000 H 0.20171 0.85371 0.21545 0.0
H1001 H 0.18724 0.86586 0.12527 0.0
C1002 C 0.20328 0.82127 0.39414 0.0
C1003 C 0.20657 0.82719 0.47068 0.0
C1004 C 0.19619 0.82943 0.34233 0.0
C1005 C 0.19206 0.84368 0.36555 0.0
C1006 C 0.19553 0.84974 0.44193 0.0
C1007 C 0.20275 0.84167 0.4937 0.0
C1008 C 0.16064 0.86208 0.28182 0.0
C1009 C 0.16696 0.86602 0.2058 0.0
C1010 C 0.16894 0.85512 0.33353 0.0
C1011 C 0.18375 0.8518 0.31077 0.0
C1012 C 0.19019 0.85589 0.2349 0.0
C1013 C 0.18197 0.86298 0.18321 0.0
H1014 H 0.37526 0.18737 0.45124 0.0
H1015 H 0.41252 0.22203 0.6328 0.0
H1016 H 0.3485 0.1726 0.54076 0.0
H1017 H 0.38584 0.20752 0.72175 0.0
H1018 H 0.33741 0.16544 0.87739 0.0
H1019 H 0.36414 0.17779 0.78755 0.0
H1020 H 0.32816 0.18112 0.61353 0.0
H1021 H 0.30148 0.16857 0.70259 0.0
C1022 C 0.37781 0.19183 0.5102 0.0
C1023 C 0.39614 0.20599 0.53447 0.0
C1024 C 0.3624 0.18343 0.56156 0.0
C1025 C 0.36493 0.18887 0.63871 0.0
C1026 C 0.38334 0.20278 0.66312 0.0
C1027 C 0.39868 0.21124 0.61175 0.0
C1028 C 0.33516 0.1687 0.81986 0.0
C1029 C 0.31723 0.16604 0.79763 0.0
C1030 C 0.35054 0.17591 0.76837 0.0
C1031 C 0.34838 0.18052 0.69307 0.0
C1032 C 0.33036 0.17755 0.67063 0.0
C1033 C 0.31504 0.17047 0.72214 0.0
H1034 H 0.87084 0.14218 0.70368 0.0
H1035 H 0.873 0.18035 0.88054 0.0
H1036 H 0.85848 0.15652 0.61504 0.0
H1037 H 0.86073 0.19488 0.79127 0.0
H1038 H 0.81671 0.19898 0.63545 0.0
H1039 H 0.83108 0.18665 0.72413 0.0
H1040 H 0.86712 0.18581 0.54426 0.0
H1041 H 0.85254 0.19803 0.45505 0.0
C1042 C 0.86881 0.15371 0.72373 0.0
C1043 C 0.87293 0.16002 0.79963 0.0
C1044 C 0.8618 0.16205 0.67252 0.0
C1045 C 0.85856 0.17689 0.69572 0.0
C1046 C 0.86283 0.18334 0.77149 0.0
C1047 C 0.86999 0.17507 0.82266 0.0
C1048 C 0.82772 0.19626 0.61461 0.0
C1049 C 0.83336 0.1995 0.53773 0.0
C1050 C 0.83609 0.18928 0.66582 0.0
C1051 C 0.85029 0.18518 0.64162 0.0
C1052 C 0.85608 0.18859 0.56486 0.0
C1053 C 0.84779 0.19571 0.5137 0.0
H1054 H 0.90501 0.72735 0.75216 0.0
H1055 H 0.84803 0.7142 0.81692 0.0
H1056 H 0.89139 0.70036 0.66378 0.0
H1057 H 0.83441 0.6873 0.72708 0.0
H1058 H 0.82156 0.65539 0.48953 0.0
H1059 H 0.83428 0.68238 0.57895 0.0
H1060 H 0.871 0.66346 0.67721 0.0
H1061 H 0.85818 0.63643 0.58923 0.0
C1062 C 0.88957 0.71873 0.7475 0.0
C1063 C 0.87762 0.72292 0.79203 0.0
C1064 C 0.88177 0.70322 0.69696 0.0
C1065 C 0.86183 0.69168 0.68847 0.0
C1066 C 0.84984 0.69599 0.7321 0.0
C1067 C 0.85764 0.71132 0.78387 0.0
C1068 C 0.83234 0.65699 0.53022 0.0
C1069 C 0.83885 0.64373 0.53202 0.0
C1070 C 0.83954 0.67239 0.58168 0.0
C1071 C 0.85368 0.67507 0.63502 0.0
C1072 C 0.86023 0.66187 0.63648 0.0
C1073 C 0.8528 0.64632 0.58616 0.0
H1074 H 0.96782 0.50166 0.03322 0.0
H1075 H 1.00414 0.50014 0.21022 0.0
H1076 H 0.99452 0.51415 0.94425 0.0
H1077 H 0.03089 0.51242 0.12051 0.0
H1078 H 0.0789 0.55637 0.96373 0.0
H1079 H 0.05222 0.54201 0.05267 0.0
H1080 H 1.01525 0.50569 0.87361 0.0
H1081 H 0.04203 0.52027 0.78411 0.0
C1082 C 0.98147 0.5039 0.05327 0.0
C1083 C 0.98376 0.49994 0.12935 0.0
C1084 C 0.9968 0.51094 0.00184 0.0
C1085 C 1.01494 0.51435 0.02493 0.0
C1086 C 1.0172 0.5102 0.10082 0.0
C1087 C 1.00181 0.50303 0.15224 0.0
C1088 C 0.06515 0.5453 0.94311 0.0
C1089 C 0.06272 0.53958 0.86637 0.0
C1090 C 0.0498 0.53693 0.99448 0.0
C1091 C 0.03149 0.52266 0.9706 0.0
C1092 C 0.02907 0.51679 0.89397 0.0
C1093 C 0.04449 0.52509 0.84264 0.0
H1094 H 0.4822 0.5297 0.95855 0.0
H1095 H 0.52248 0.53473 0.78564 0.0
H1096 H 0.49648 0.5173 0.04766 0.0
H1097 H 0.53689 0.52236 0.87519 0.0
H1098 H 0.54108 0.47779 0.02876 0.0
H1099 H 0.52868 0.49212 0.93987 0.0
H1100 H 0.52581 0.52674 0.12103 0.0
H1101 H 0.53807 0.51221 0.21048 0.0
C1102 C 0.49416 0.52825 0.93953 0.0
C1103 C 0.50112 0.53321 0.86466 0.0
C1104 C 0.50245 0.52123 0.99095 0.0
C1105 C 0.51787 0.5188 0.96884 0.0
C1106 C 0.52492 0.52386 0.89404 0.0
C1107 C 0.51671 0.53105 0.84274 0.0
C1108 C 0.53784 0.48846 0.04987 0.0
C1109 C 0.5405 0.49373 0.12717 0.0
C1110 C 0.53085 0.49681 0.99855 0.0
C1111 C 0.52618 0.51058 0.02308 0.0
C1112 C 0.52905 0.51603 0.10022 0.0
C1113 C 0.53621 0.50778 0.15149 0.0
H1114 H 0.51508 0.04656 0.15944 0.0
H1115 H 0.57202 0.06109 0.08767 0.0
H1116 H 0.50142 0.01974 0.06934 0.0
H1117 H 0.55835 0.03417 0.99893 0.0
H1118 H 0.52588 0.97031 0.92286 0.0
H1119 H 0.53888 0.99731 0.01106 0.0
H1120 H 0.50023 1.01486 0.92164 0.0
H1121 H 0.48733 0.98791 0.83203 0.0
C1122 C 0.52468 0.04401 0.12477 0.0
C1123 C 0.54466 0.05598 0.13109 0.0
C1124 C 0.51684 0.02871 0.07284 0.0
C1125 C 0.5288 0.02481 0.0271 0.0
C1126 C 0.54875 0.03671 0.03373 0.0
C1127 C 0.55658 0.05218 0.0845 0.0
C1128 C 0.52013 0.97991 0.92176 0.0
C1129 C 0.50558 0.97694 0.87004 0.0
C1130 C 0.52765 0.99544 0.97219 0.0
C1131 C 0.52061 1.00824 0.97333 0.0
C1132 C 0.50589 1.00518 0.92238 0.0
C1133 C 0.49859 0.98981 0.87077 0.0
H1134 H 0.2156 0.25238 0.09978 0.0
H1135 H 0.16316 0.20494 0.01289 0.0
H1136 H 0.23313 0.23632 0.05867 0.0
H1137 H 0.18053 0.18918 0.97136 0.0
H1138 H 0.25953 0.20844 0.90106 0.0
H1139 H 0.24353 0.22603 0.9422 0.0
H1140 H 0.1962 0.17332 0.0286 0.0
H1141 H 0.21191 0.1559 0.98704 0.0
C1142 C 0.20782 0.23856 0.07207 0.0
C1143 C 0.18795 0.22989 0.06022 0.0
C1144 C 0.21788 0.22942 0.04799 0.0
C1145 C 0.20824 0.21138 0.01204 0.0
C1146 C 0.1884 0.20288 0.99992 0.0
C1147 C 0.17842 0.21199 0.02359 0.0
C1148 C 0.24568 0.20065 0.92858 0.0
C1149 C 0.23695 0.18074 0.94017 0.0
C1150 C 0.23657 0.21074 0.95268 0.0
C1151 C 0.2185 0.20109 0.98838 0.0
C1152 C 0.20993 0.1812 0.00024 0.0
C1153 C 0.21901 0.1712 0.97656 0.0
H1154 H 0.78701 0.97164 0.09727 0.0
H1155 H 0.83446 0.96684 0.00973 0.0
H1156 H 0.80306 1.00535 0.05668 0.0
H1157 H 0.85022 1.00008 0.96872 0.0
H1158 H 0.83108 0.05995 0.89972 0.0
H1159 H 0.81345 0.02624 0.94033 0.0
H1160 H 0.86599 0.03155 0.02687 0.0
H1161 H 0.88346 0.0648 0.98585 0.0
C1162 C 0.80084 0.97776 0.06953 0.0
C1163 C 0.80951 0.96657 0.05735 0.0
C1164 C 0.80997 0.99701 0.04574 0.0
C1165 C 0.828 1.00549 0.00978 0.0
C1166 C 0.83651 0.99418 0.99731 0.0
C1167 C 0.82741 0.97503 0.02067 0.0
C1168 C 0.83882 0.05384 0.92715 0.0
C1169 C 0.8587 0.06504 0.93894 0.0
C1170 C 0.82871 0.03458 0.95095 0.0
C1171 C 0.83831 0.02612 0.98652 0.0
C1172 C 0.85816 0.03745 0.99859 0.0
C1173 C 0.86818 0.05659 0.97523 0.0
H1174 H 0.97879 0.77935 0.9088 0.0
H1175 H 0.97355 0.82684 0.99307 0.0
H1176 H 1.01236 0.79561 0.94986 0.0
H1177 H 1.00675 0.84285 0.03465 0.0
H1178 H 0.07162 0.87616 0.01835 0.0
H1179 H 0.03836 0.85869 0.97805 0.0
H1180 H 0.03305 0.80613 0.06535 0.0
H1181 H 0.06674 0.82375 0.10518 0.0
C1182 C 0.98478 0.79323 0.93604 0.0
C1183 C 0.97351 0.80185 0.94711 0.0
C1184 C 1.00397 0.80249 0.96008 0.0
C1185 C 1.01233 0.82061 0.99529 0.0
C1186 C 1.00093 0.82907 0.00669 0.0
C1187 C 0.98182 0.81983 0.98303 0.0
C1188 C 0.0634 0.86088 0.02931 0.0
C1189 C 0.07185 0.85139 0.06549 0.0
C1190 C 0.04425 0.85085 0.00639 0.0
C1191 C 0.03292 0.83099 0.01879 0.0
C1192 C 0.04138 0.82139 0.05443 0.0
C1193 C 0.06064 0.8315 0.07777 0.0
H1194 H 0.83771 0.78068 0.95751 0.0
H1195 H 0.8873 0.83624 0.91801 0.0
H1196 H 0.81925 0.79609 0.99482 0.0
H1197 H 0.86898 0.85164 0.95187 0.0
H1198 H 0.84176 0.87602 0.09971 0.0
H1199 H 0.8572 0.85786 0.06387 0.0
H1200 H 0.80455 0.8148 0.95945 0.0
H1201 H 0.78891 0.8329 0.99865 0.0
C1202 C 0.84448 0.79616 0.95512 0.0
C1203 C 0.86392 0.80731 0.93527 0.0
C1204 C 0.83395 0.80502 0.97657 0.0
C1205 C 0.84268 0.82519 0.97812 0.0
C1206 C 0.86187 0.83614 0.95396 0.0
C1207 C 0.87236 0.82734 0.93353 0.0
C1208 C 0.83342 0.86252 0.07008 0.0
C1209 C 0.81418 0.85588 0.05178 0.0
C1210 C 0.84232 0.85218 0.04859 0.0
C1211 C 0.83232 0.83503 0.00686 0.0
C1212 C 0.81274 0.82792 0.99147 0.0
C1213 C 0.80374 0.83824 0.01396 0.0
H1214 H 0.20337 0.0582 0.90657 0.0
H1215 H 0.25806 0.06684 0.98101 0.0
H1216 H 0.18815 0.02458 0.94262 0.0
H1217 H 0.24269 0.03298 0.01968 0.0
H1218 H 0.20709 0.96515 0.02048 0.0
H1219 H 0.22564 0.999 0.98156 0.0
H1220 H 0.17963 1.00751 0.05971 0.0
H1221 H 0.16119 0.97392 0.09604 0.0
C1222 C 0.21215 0.05281 0.9304 0.0
C1223 C 0.23186 0.06517 0.94158 0.0
C1224 C 0.20341 0.03356 0.95182 0.0
C1225 C 0.21406 0.02608 0.98605 0.0
C1226 C 0.23402 0.03822 0.99369 0.0
C1227 C 0.24285 0.05759 0.97146 0.0
C1228 C 0.20117 0.97442 0.03019 0.0
C1229 C 0.18263 0.96688 0.06048 0.0
C1230 C 0.21175 0.99378 0.00783 0.0
C1231 C 0.20397 1.00595 0.01571 0.0
C1232 C 0.18587 0.99851 0.0503 0.0
C1233 C 0.17533 0.97927 0.07188 0.0
H1234 H 0.97245 0.19996 0.98448 0.0
H1235 H 0.98145 0.15456 0.90372 0.0
H1236 H 1.00628 0.21847 0.02299 0.0
H1237 H 1.01501 0.17298 0.93978 0.0
H1238 H 0.0656 0.19617 0.09275 0.0
H1239 H 0.03202 0.181 0.05708 0.0
H1240 H 0.04025 0.23584 0.98396 0.0
H1241 H 0.0741 0.25115 0.02209 0.0
C1242 C 0.98177 0.19415 0.97356 0.0
C1243 C 0.9743 0.17574 0.94193 0.0
C1244 C 1.00112 0.2047 0.99569 0.0
C1245 C 1.01333 0.19705 0.98625 0.0
C1246 C 1.00597 0.17911 0.95036 0.0
C1247 C 0.98674 0.16859 0.92898 0.0
C1248 C 0.0602 0.20503 0.06982 0.0
C1249 C 0.07251 0.2248 0.05953 0.0
C1250 C 0.04096 0.19632 0.04865 0.0
C1251 C 0.03345 0.20708 0.01565 0.0
C1252 C 0.04553 0.22709 0.00898 0.0
C1253 C 0.06489 0.23588 0.0309 0.0
H1254 H 0.92568 0.54206 0.22743 0.0
H1255 H 0.87808 0.48972 0.31496 0.0
H1256 H 0.90971 0.55974 0.26756 0.0
H1257 H 0.86241 0.50725 0.35558 0.0
H1258 H 0.82947 0.53894 0.33995 0.0
H1259 H 0.84672 0.52306 0.29827 0.0
H1260 H 0.89953 0.57031 0.38354 0.0
H1261 H 0.88213 0.58649 0.42474 0.0
C1262 C 0.91183 0.53433 0.25503 0.0
C1263 C 0.9031 0.51445 0.26742 0.0
C1264 C 0.90275 0.54448 0.27857 0.0
C1265 C 0.8847 0.53492 0.3145 0.0
C1266 C 0.87612 0.51506 0.32702 0.0
C1267 C 0.88518 0.50499 0.3039 0.0
C1268 C 0.84476 0.546 0.35008 0.0
C1269 C 0.85438 0.56396 0.3862 0.0
C1270 C 0.85466 0.53682 0.32636 0.0
C1271 C 0.87452 0.54531 0.33793 0.0
C1272 C 0.88426 0.56342 0.37327 0.0
C1273 C 0.87428 0.57262 0.39738 0.0
H1274 H 0.54769 0.39248 0.23757 0.0
H1275 H 0.49899 0.39856 0.29333 0.0
H1276 H 0.53053 0.35933 0.27959 0.0
H1277 H 0.48209 0.36573 0.3421 0.0
H1278 H 0.45029 0.30052 0.37496 0.0
H1279 H 0.46585 0.33332 0.32623 0.0
H1280 H 0.52116 0.33988 0.38108 0.0
H1281 H 0.50549 0.30674 0.42306 0.0
C1282 C 0.53326 0.38665 0.25944 0.0
C1283 C 0.52464 0.39802 0.26198 0.0
C1284 C 0.52342 0.36764 0.28482 0.0
C1285 C 0.50487 0.3596 0.31633 0.0
C1286 C 0.49617 0.37107 0.31767 0.0
C1287 C 0.50587 0.38997 0.2899 0.0
C1288 C 0.46578 0.30913 0.37671 0.0
C1289 C 0.47671 0.30112 0.40248 0.0
C1290 C 0.47478 0.32802 0.34897 0.0
C1291 C 0.49496 0.33954 0.34819 0.0
C1292 C 0.50571 0.33154 0.37752 0.0
C1293 C 0.49673 0.31253 0.40287 0.0
H1294 H 0.73833 0.21093 0.35544 0.0
H1295 H 0.73388 0.15865 0.44152 0.0
H1296 H 0.70504 0.19326 0.3153 0.0
H1297 H 0.7002 0.14084 0.40191 0.0
H1298 H 0.646 0.11361 0.24578 0.0
H1299 H 0.6796 0.13023 0.28656 0.0
H1300 H 0.67336 0.17709 0.37136 0.0
H1301 H 0.64013 0.16073 0.33005 0.0
C1302 C 0.7302 0.19565 0.36627 0.0
C1303 C 0.73878 0.18624 0.40214 0.0
C1304 C 0.71103 0.1855 0.34346 0.0
C1305 C 0.69983 0.16561 0.35563 0.0
C1306 C 0.70843 0.15612 0.39111 0.0
C1307 C 0.72768 0.16634 0.41435 0.0
C1308 C 0.65186 0.12749 0.27293 0.0
C1309 C 0.6404 0.13589 0.28413 0.0
C1310 C 0.67107 0.13695 0.29682 0.0
C1311 C 0.67926 0.15506 0.33201 0.0
C1312 C 0.66768 0.16333 0.34344 0.0
C1313 C 0.64855 0.15388 0.31993 0.0
H1314 H 0.52125 0.13891 0.16711 0.0
H1315 H 0.5294 0.13572 0.40834 0.0
H1316 H 0.5013 0.15302 0.19341 0.0
H1317 H 0.51096 0.15122 0.43438 0.0
H1318 H 0.46965 0.17177 0.47384 0.0
H1319 H 0.48232 0.15095 0.44072 0.0
H1320 H 0.50412 0.18186 0.22938 0.0
H1321 H 0.49005 0.20142 0.25941 0.0
C1322 C 0.51872 0.14106 0.22578 0.0
C1323 C 0.52729 0.13638 0.28538 0.0
C1324 C 0.50748 0.14949 0.24099 0.0
C1325 C 0.50463 0.15367 0.3162 0.0
C1326 C 0.51254 0.14819 0.37573 0.0
C1327 C 0.5235 0.13954 0.3606 0.0
C1328 C 0.47674 0.17385 0.41948 0.0
C1329 C 0.479 0.1886 0.37007 0.0
C1330 C 0.48432 0.16204 0.40083 0.0
C1331 C 0.49461 0.16475 0.33261 0.0
C1332 C 0.49623 0.17905 0.28211 0.0
C1333 C 0.48841 0.19063 0.30019 0.0
H1334 H 0.87325 0.29825 0.34003 0.0
H1335 H 0.83131 0.30956 0.4424 0.0
H1336 H 0.8933 0.33257 0.30894 0.0
H1337 H 0.85125 0.34359 0.41267 0.0
H1338 H 0.89879 0.40513 0.41566 0.0
H1339 H 0.88379 0.37144 0.45089 0.0
H1340 H 0.8898 0.35698 0.22025 0.0
H1341 H 0.9045 0.39089 0.18397 0.0
C1342 C 0.8685 0.30813 0.35683 0.0
C1343 C 0.85078 0.30131 0.39378 0.0
C1344 C 0.87986 0.32768 0.33856 0.0
C1345 C 0.87387 0.34079 0.35849 0.0
C1346 C 0.85637 0.33393 0.39718 0.0
C1347 C 0.84492 0.31444 0.41406 0.0
C1348 C 0.89698 0.39483 0.3722 0.0
C1349 C 0.90252 0.40075 0.29649 0.0
C1350 C 0.88843 0.37551 0.3926 0.0
C1351 C 0.88537 0.36152 0.33819 0.0
C1352 C 0.89201 0.36746 0.2635 0.0
C1353 C 0.90046 0.38689 0.24276 0.0
H1354 H 0.73232 0.52934 0.42783 0.0
H1355 H 0.73995 0.58412 0.35955 0.0
H1356 H 0.69868 0.5138 0.39253 0.0
H1357 H 0.7061 0.56847 0.32129 0.0
H1358 H 0.63864 0.53233 0.31724 0.0
H1359 H 0.67228 0.55089 0.35785 0.0
H1360 H 0.68152 0.50555 0.27654 0.0
H1361 H 0.6481 0.48707 0.23867 0.0
C1362 C 0.72668 0.53807 0.4057 0.0
C1363 C 0.73874 0.5579 0.39606 0.0
C1364 C 0.70743 0.52915 0.38459 0.0
C1365 C 0.69968 0.53976 0.35206 0.0
C1366 C 0.71153 0.55982 0.34601 0.0
C1367 C 0.7309 0.56882 0.36801 0.0
C1368 C 0.64802 0.52655 0.30732 0.0
C1369 C 0.64073 0.50818 0.27559 0.0
C1370 C 0.66727 0.53714 0.33064 0.0
C1371 C 0.67959 0.52957 0.32223 0.0
C1372 C 0.6724 0.51163 0.28645 0.0
C1373 C 0.65325 0.50107 0.26397 0.0
H1374 H 0.54435 0.8223 0.65054 0.0
H1375 H 0.59181 0.87479 0.5634 0.0
H1376 H 0.52863 0.83975 0.69213 0.0
H1377 H 0.57583 0.89237 0.60449 0.0
H1378 H 0.54861 0.91914 0.76233 0.0
H1379 H 0.56585 0.90284 0.72071 0.0
H1380 H 0.51284 0.85564 0.63655 0.0
H1381 H 0.49574 0.87166 0.67866 0.0
C1382 C 0.55141 0.83758 0.63977 0.0
C1383 C 0.56931 0.84711 0.60314 0.0
C1384 C 0.54233 0.8476 0.66345 0.0
C1385 C 0.55088 0.86748 0.65138 0.0
C1386 C 0.56889 0.8771 0.61522 0.0
C1387 C 0.57798 0.867 0.59113 0.0
C1388 C 0.54067 0.90525 0.73519 0.0
C1389 C 0.52077 0.89665 0.7244 0.0
C1390 C 0.55056 0.89597 0.71081 0.0
C1391 C 0.54073 0.87786 0.67556 0.0
C1392 C 0.52086 0.86941 0.66454 0.0
C1393 C 0.51104 0.87867 0.68852 0.0
H1394 H 0.21838 0.7327 0.65865 0.0
H1395 H 0.16589 0.72744 0.57188 0.0
H1396 H 0.20107 0.6994 0.69943 0.0
H1397 H 0.14844 0.69373 0.6122 0.0
H1398 H 0.16949 0.63447 0.6828 0.0
H1399 H 0.1854 0.66779 0.64236 0.0
H1400 H 0.13801 0.67297 0.72802 0.0
H1401 H 0.12183 0.63924 0.768 0.0
C1402 C 0.20313 0.7244 0.64784 0.0
C1403 C 0.19356 0.73274 0.61149 0.0
C1404 C 0.19319 0.70522 0.67105 0.0
C1405 C 0.17335 0.69378 0.6588 0.0
C1406 C 0.16369 0.70216 0.62304 0.0
C1407 C 0.1737 0.72142 0.5994 0.0
C1408 C 0.16242 0.64267 0.69335 0.0
C1409 C 0.14441 0.63418 0.72912 0.0
C1410 C 0.17162 0.66186 0.67035 0.0
C1411 C 0.16308 0.67316 0.68223 0.0
C1412 C 0.14495 0.66465 0.71748 0.0
C1413 C 0.13574 0.64538 0.74093 0.0
H1414 H 0.31323 0.44802 0.56204 0.0
H1415 H 0.30829 0.49557 0.64772 0.0
H1416 H 0.34678 0.46404 0.60368 0.0
H1417 H 0.34139 0.5113 0.68984 0.0
H1418 H 0.40066 0.49148 0.76239 0.0
H1419 H 0.36713 0.47414 0.72044 0.0
H1420 H 0.37313 0.5271 0.6345 0.0
H1421 H 0.40623 0.54429 0.67695 0.0
C1422 C 0.31929 0.46187 0.58953 0.0
C1423 C 0.3081 0.47057 0.60097 0.0
C1424 C 0.33846 0.47099 0.61395 0.0
C1425 C 0.34686 0.48903 0.64986 0.0
C1426 C 0.33555 0.49758 0.66136 0.0
C1427 C 0.31649 0.4885 0.63736 0.0
C1428 C 0.39474 0.49938 0.73486 0.0
C1429 C 0.4061 0.5193 0.72359 0.0
C1430 C 0.37559 0.48944 0.71025 0.0
C1431 C 0.36736 0.49922 0.67433 0.0
C1432 C 0.37883 0.51912 0.66297 0.0
C1433 C 0.39789 0.52899 0.68716 0.0
H1434 H 0.12148 0.49959 0.66896 0.0
H1435 H 0.17466 0.54158 0.77197 0.0
H1436 H 0.13576 0.4796 0.63822 0.0
H1437 H 0.18877 0.5217 0.74256 0.0
H1438 H 0.20285 0.47435 0.74593 0.0
H1439 H 0.18407 0.4892 0.78083 0.0
H1440 H 0.16374 0.48318 0.55001 0.0
H1441 H 0.18302 0.4686 0.5141 0.0
C1442 C 0.13609 0.50436 0.686 0.0
C1443 C 0.14697 0.52207 0.72304 0.0
C1444 C 0.1443 0.49304 0.66792 0.0
C1445 C 0.16338 0.49906 0.68811 0.0
C1446 C 0.17399 0.51655 0.72688 0.0
C1447 C 0.16594 0.52796 0.74359 0.0
C1448 C 0.19437 0.47612 0.70238 0.0
C1449 C 0.19481 0.47062 0.62673 0.0
C1450 C 0.18355 0.48459 0.72258 0.0
C1451 C 0.17263 0.48761 0.66802 0.0
C1452 C 0.17199 0.481 0.59337 0.0
C1453 C 0.18302 0.47262 0.57285 0.0
H1454 H 0.53129 0.64104 0.82109 0.0
H1455 H 0.51266 0.63024 0.58704 0.0
H1456 H 0.55169 0.675 0.79187 0.0
H1457 H 0.53181 0.66416 0.55914 0.0
H1458 H 0.57435 0.72544 0.51036 0.0
H1459 H 0.56138 0.69164 0.54054 0.0
H1460 H 0.54877 0.70186 0.76898 0.0
H1461 H 0.56297 0.73569 0.7405 0.0
C1462 C 0.53163 0.64582 0.76326 0.0
C1463 C 0.52003 0.6328 0.70685 0.0
C1464 C 0.54316 0.66542 0.7466 0.0
C1465 C 0.54331 0.67259 0.67319 0.0
C1466 C 0.53233 0.65938 0.61617 0.0
C1467 C 0.52102 0.63983 0.6326 0.0
C1468 C 0.56924 0.72058 0.56755 0.0
C1469 C 0.5695 0.7334 0.62249 0.0
C1470 C 0.5615 0.70105 0.5847 0.0
C1471 C 0.55368 0.69374 0.6571 0.0
C1472 C 0.55472 0.70676 0.71279 0.0
C1473 C 0.56262 0.72625 0.69593 0.0
H1474 H 0.31642 0.82797 0.55359 0.0
H1475 H 0.30417 0.86555 0.68599 0.0
H1476 H 0.35046 0.84768 0.58381 0.0
H1477 H 0.33843 0.88533 0.71767 0.0
H1478 H 0.39724 0.89479 0.8289 0.0
H1479 H 0.36328 0.88029 0.79465 0.0
H1480 H 0.37787 0.88129 0.55796 0.0
H1481 H 0.4116 0.89607 0.59145 0.0
C1482 C 0.32113 0.84065 0.58835 0.0
C1483 C 0.30779 0.8454 0.61678 0.0
C1484 C 0.34059 0.85194 0.60571 0.0
C1485 C 0.34717 0.8681 0.65306 0.0
C1486 C 0.33379 0.87294 0.68124 0.0
C1487 C 0.31427 0.86177 0.66266 0.0
C1488 C 0.39325 0.89233 0.76945 0.0
C1489 C 0.40717 0.8963 0.71314 0.0
C1490 C 0.37378 0.88399 0.74984 0.0
C1491 C 0.36787 0.87937 0.67367 0.0
C1492 C 0.38191 0.88432 0.61726 0.0
C1493 C 0.40126 0.89276 0.63662 0.0
loop_
_geom_bond_atom_site_label_1
_geom_bond_atom_site_label_2
_geom_bond_distance
_geom_bond_site_symmetry_2
_ccdc_geom_bond_type
Co0 N4 2.148 1_554 S
Co0 N10 2.128 . S
Co0 N20 2.194 . S
Co0 O25 2.351 . S
Co0 O26 2.155 . S
Co0 O27 2.096 . S
C1 N4 1.301 . S
C1 N5 1.328 . S
C1 H6 0.930 . S
C2 C3 1.333 . S
C2 N4 1.317 . S
C2 H7 0.930 . S
C3 C2 1.333 . S
C3 N5 1.350 . S
C3 H29 0.931 . S
N4 Co0 2.148 1_556 S
N4 C1 1.301 . S
N4 C2 1.317 . S
N5 C1 1.328 . S
N5 C3 1.350 . S
H6 C1 0.930 . S
H7 C2 0.930 . S
C8 O9 1.224 . S
C8 O27 1.247 . S
O9 C8 1.224 . S
N10 Co0 2.128 . S
N10 C11 1.355 . S
N10 C13 1.311 . S
C11 N10 1.355 . S
C11 C12 1.363 . S
C11 H23 0.929 . S
C12 C11 1.363 . S
C12 N14 1.375 . S
C12 H30 0.931 . S
C13 N10 1.311 . S
C13 N14 1.347 . S
C13 H24 0.929 . S
N14 C12 1.375 . S
N14 C13 1.347 . S
C15 C18 1.365 . S
C15 N20 1.328 . S
C15 H21 0.929 . S
C16 C17 1.362 . S
C16 C19 1.378 . S
C16 H31 0.929 . S
C17 C16 1.362 . S
C17 C18 1.366 . S
C18 C15 1.365 . S
C18 C17 1.366 . S
C18 H32 0.930 . S
C19 C16 1.378 . S
C19 N20 1.315 . S
C19 H22 0.930 . S
N20 Co0 2.194 . S
N20 C15 1.328 . S
N20 C19 1.315 . S
H21 C15 0.929 . S
H22 C19 0.930 . S
H23 C11 0.929 . S
H24 C13 0.929 . S
O25 Co0 2.351 . S
O25 C28 1.244 . S
O26 Co0 2.155 . S
O26 C28 1.240 . S
O27 Co0 2.096 . S
O27 C8 1.247 . S
C28 O25 1.244 . S
C28 O26 1.240 . S
H29 C3 0.931 . S
H30 C12 0.931 . S
H31 C16 0.929 . S
H32 C18 0.930 . S
Co33 N37 2.148 1_554 S
Co33 N43 2.128 . S
Co33 N53 2.194 . S
Co33 O58 2.351 . S
Co33 O59 2.155 . S
Co33 O60 2.096 . S
C34 N37 1.301 . S
C34 N38 1.328 . S
C34 H39 0.930 . S
C35 C36 1.333 . S
C35 N37 1.317 . S
C35 H40 0.930 . S
C36 C35 1.333 . S
C36 N38 1.350 . S
C36 H62 0.931 . S
N37 Co33 2.148 1_556 S
N37 C34 1.301 . S
N37 C35 1.317 . S
N38 C34 1.328 . S
N38 C36 1.350 . S
H39 C34 0.930 . S
H40 C35 0.930 . S
C41 O42 1.224 . S
C41 O60 1.247 . S
O42 C41 1.224 . S
N43 Co33 2.128 . S
N43 C44 1.355 . S
N43 C46 1.311 . S
C44 N43 1.355 . S
C44 C45 1.363 . S
C44 H56 0.929 . S
C45 C44 1.363 . S
C45 N47 1.375 . S
C45 H63 0.931 . S
C46 N43 1.311 . S
C46 N47 1.347 . S
C46 H57 0.929 . S
N47 C45 1.375 . S
N47 C46 1.347 . S
C48 C51 1.365 . S
C48 N53 1.328 . S
C48 H54 0.929 . S
C49 C50 1.362 . S
C49 C52 1.378 . S
C49 H64 0.929 . S
C50 C49 1.362 . S
C50 C51 1.366 . S
C51 C48 1.365 . S
C51 C50 1.366 . S
C51 H65 0.930 . S
C52 C49 1.378 . S
C52 N53 1.315 . S
C52 H55 0.930 . S
N53 Co33 2.194 . S
N53 C48 1.328 . S
N53 C52 1.315 . S
H54 C48 0.929 . S
H55 C52 0.930 . S
H56 C44 0.929 . S
H57 C46 0.929 . S
O58 Co33 2.351 . S
O58 C61 1.244 . S
O59 Co33 2.155 . S
O59 C61 1.240 . S
O60 Co33 2.096 . S
O60 C41 1.247 . S
C61 O58 1.244 . S
C61 O59 1.240 . S
H62 C36 0.931 . S
H63 C45 0.931 . S
H64 C49 0.929 . S
H65 C51 0.930 . S
Co66 N70 2.148 1_554 S
Co66 N76 2.128 . S
Co66 N86 2.194 . S
Co66 O91 2.351 . S
Co66 O92 2.155 . S
Co66 O93 2.096 . S
C67 N70 1.301 . S
C67 N71 1.328 . S
C67 H72 0.930 . S
C68 C69 1.333 . S
C68 N70 1.317 . S
C68 H73 0.930 . S
C69 C68 1.333 . S
C69 N71 1.350 . S
C69 H95 0.931 . S
N70 Co66 2.148 1_556 S
N70 C67 1.301 . S
N70 C68 1.317 . S
N71 C67 1.328 . S
N71 C69 1.350 . S
H72 C67 0.930 . S
H73 C68 0.930 . S
C74 O75 1.224 . S
C74 O93 1.247 . S
O75 C74 1.224 . S
N76 Co66 2.128 . S
N76 C77 1.355 . S
N76 C79 1.311 . S
C77 N76 1.355 . S
C77 C78 1.363 . S
C77 H89 0.929 . S
C78 C77 1.363 . S
C78 N80 1.375 . S
C78 H96 0.931 . S
C79 N76 1.311 . S
C79 N80 1.347 . S
C79 H90 0.929 . S
N80 C78 1.375 . S
N80 C79 1.347 . S
C81 C84 1.365 . S
C81 N86 1.328 . S
C81 H87 0.929 . S
C82 C83 1.362 . S
C82 C85 1.378 . S
C82 H97 0.929 . S
C83 C82 1.362 . S
C83 C84 1.366 . S
C84 C81 1.365 . S
C84 C83 1.366 . S
C84 H98 0.930 . S
C85 C82 1.378 . S
C85 N86 1.315 . S
C85 H88 0.930 . S
N86 Co66 2.194 . S
N86 C81 1.328 . S
N86 C85 1.315 . S
H87 C81 0.929 . S
H88 C85 0.930 . S
H89 C77 0.929 . S
H90 C79 0.929 . S
O91 Co66 2.351 . S
O91 C94 1.244 . S
O92 Co66 2.155 . S
O92 C94 1.240 . S
O93 Co66 2.096 . S
O93 C74 1.247 . S
C94 O91 1.244 . S
C94 O92 1.240 . S
H95 C69 0.931 . S
H96 C78 0.931 . S
H97 C82 0.929 . S
H98 C84 0.930 . S
Co99 N103 2.148 1_556 S
Co99 N109 2.128 . S
Co99 N119 2.194 . S
Co99 O124 2.351 . S
Co99 O125 2.155 . S
Co99 O126 2.096 . S
C100 N103 1.301 . S
C100 N104 1.328 . S
C100 H105 0.930 . S
C101 C102 1.333 . S
C101 N103 1.317 . S
C101 H106 0.930 . S
C102 C101 1.333 . S
C102 N104 1.350 . S
C102 H128 0.931 . S
N103 Co99 2.148 1_554 S
N103 C100 1.301 . S
N103 C101 1.317 . S
N104 C100 1.328 . S
N104 C102 1.350 . S
H105 C100 0.930 . S
H106 C101 0.930 . S
C107 O108 1.224 . S
C107 O126 1.247 . S
O108 C107 1.224 . S
N109 Co99 2.128 . S
N109 C110 1.355 . S
N109 C112 1.311 . S
C110 N109 1.355 . S
C110 C111 1.363 . S
C110 H122 0.929 . S
C111 C110 1.363 . S
C111 N113 1.375 . S
C111 H129 0.931 . S
C112 N109 1.311 . S
C112 N113 1.347 . S
C112 H123 0.929 . S
N113 C111 1.375 . S
N113 C112 1.347 . S
C114 C117 1.365 . S
C114 N119 1.328 . S
C114 H120 0.929 . S
C115 C116 1.362 . S
C115 C118 1.378 . S
C115 H130 0.929 . S
C116 C115 1.362 . S
C116 C117 1.366 . S
C117 C114 1.365 . S
C117 C116 1.366 . S
C117 H131 0.930 . S
C118 C115 1.378 . S
C118 N119 1.315 . S
C118 H121 0.930 . S
N119 Co99 2.194 . S
N119 C114 1.328 . S
N119 C118 1.315 . S
H120 C114 0.929 . S
H121 C118 0.930 . S
H122 C110 0.929 . S
H123 C112 0.929 . S
O124 Co99 2.351 . S
O124 C127 1.244 . S
O125 Co99 2.155 . S
O125 C127 1.240 . S
O126 Co99 2.096 . S
O126 C107 1.247 . S
C127 O124 1.244 . S
C127 O125 1.240 . S
H128 C102 0.931 . S
H129 C111 0.931 . S
H130 C115 0.929 . S
H131 C117 0.930 . S
Co132 N136 2.148 1_556 S
Co132 N142 2.128 . S
Co132 N152 2.194 . S
Co132 O157 2.351 . S
Co132 O158 2.155 . S
Co132 O159 2.096 . S
C133 N136 1.301 . S
C133 N137 1.328 . S
C133 H138 0.930 . S
C134 C135 1.333 . S
C134 N136 1.317 . S
C134 H139 0.930 . S
C135 C134 1.333 . S
C135 N137 1.350 . S
C135 H161 0.931 . S
N136 Co132 2.148 1_554 S
N136 C133 1.301 . S
N136 C134 1.317 . S
N137 C133 1.328 . S
N137 C135 1.350 . S
H138 C133 0.930 . S
H139 C134 0.930 . S
C140 O141 1.224 . S
C140 O159 1.247 . S
O141 C140 1.224 . S
N142 Co132 2.128 . S
N142 C143 1.355 . S
N142 C145 1.311 . S
C143 N142 1.355 . S
C143 C144 1.363 . S
C143 H155 0.929 . S
C144 C143 1.363 . S
C144 N146 1.375 . S
C144 H162 0.931 . S
C145 N142 1.311 . S
C145 N146 1.347 . S
C145 H156 0.929 . S
N146 C144 1.375 . S
N146 C145 1.347 . S
C147 C150 1.365 . S
C147 N152 1.328 . S
C147 H153 0.929 . S
C148 C149 1.362 . S
C148 C151 1.378 . S
C148 H163 0.929 . S
C149 C148 1.362 . S
C149 C150 1.366 . S
C150 C147 1.365 . S
C150 C149 1.366 . S
C150 H164 0.930 . S
C151 C148 1.378 . S
C151 N152 1.315 . S
C151 H154 0.930 . S
N152 Co132 2.194 . S
N152 C147 1.328 . S
N152 C151 1.315 . S
H153 C147 0.929 . S
H154 C151 0.930 . S
H155 C143 0.929 . S
H156 C145 0.929 . S
O157 Co132 2.351 . S
O157 C160 1.244 . S
O158 Co132 2.155 . S
O158 C160 1.240 . S
O159 Co132 2.096 . S
O159 C140 1.247 . S
C160 O157 1.244 . S
C160 O158 1.240 . S
H161 C135 0.931 . S
H162 C144 0.931 . S
H163 C148 0.929 . S
H164 C150 0.930 . S
Co165 N169 2.148 1_556 S
Co165 N175 2.128 . S
Co165 N185 2.194 . S
Co165 O190 2.351 . S
Co165 O191 2.155 . S
Co165 O192 2.096 . S
C166 N169 1.301 . S
C166 N170 1.328 . S
C166 H171 0.930 . S
C167 C168 1.333 . S
C167 N169 1.317 . S
C167 H172 0.930 . S
C168 C167 1.333 . S
C168 N170 1.350 . S
C168 H194 0.931 . S
N169 Co165 2.148 1_554 S
N169 C166 1.301 . S
N169 C167 1.317 . S
N170 C166 1.328 . S
N170 C168 1.350 . S
H171 C166 0.930 . S
H172 C167 0.930 . S
C173 O174 1.224 . S
C173 O192 1.247 . S
O174 C173 1.224 . S
N175 Co165 2.128 . S
N175 C176 1.355 . S
N175 C178 1.311 . S
C176 N175 1.355 . S
C176 C177 1.363 . S
C176 H188 0.929 . S
C177 C176 1.363 . S
C177 N179 1.375 . S
C177 H195 0.931 . S
C178 N175 1.311 . S
C178 N179 1.347 . S
C178 H189 0.929 . S
N179 C177 1.375 . S
N179 C178 1.347 . S
C180 C183 1.365 . S
C180 N185 1.328 . S
C180 H186 0.929 . S
C181 C182 1.362 . S
C181 C184 1.378 . S
C181 H196 0.929 . S
C182 C181 1.362 . S
C182 C183 1.366 . S
C183 C180 1.365 . S
C183 C182 1.366 . S
C183 H197 0.930 . S
C184 C181 1.378 . S
C184 N185 1.315 . S
C184 H187 0.930 . S
N185 Co165 2.194 . S
N185 C180 1.328 . S
N185 C184 1.315 . S
H186 C180 0.929 . S
H187 C184 0.930 . S
H188 C176 0.929 . S
H189 C178 0.929 . S
O190 Co165 2.351 . S
O190 C193 1.244 . S
O191 Co165 2.155 . S
O191 C193 1.240 . S
O192 Co165 2.096 . S
O192 C173 1.247 . S
C193 O190 1.244 . S
C193 O191 1.240 . S
H194 C168 0.931 . S
H195 C177 0.931 . S
H196 C181 0.929 . S
H197 C183 0.930 . S
Co198 N202 2.148 . S
Co198 N208 2.128 . S
Co198 N218 2.194 . S
Co198 O223 2.351 . S
Co198 O224 2.155 . S
Co198 O225 2.096 . S
C199 N202 1.301 . S
C199 N203 1.328 . S
C199 H204 0.930 . S
C200 C201 1.333 . S
C200 N202 1.317 . S
C200 H205 0.930 . S
C201 C200 1.333 . S
C201 N203 1.350 . S
C201 H227 0.931 . S
N202 Co198 2.148 . S
N202 C199 1.301 . S
N202 C200 1.317 . S
N203 C199 1.328 . S
N203 C201 1.350 . S
H204 C199 0.930 . S
H205 C200 0.930 . S
C206 O207 1.224 . S
C206 O225 1.247 . S
O207 C206 1.224 . S
N208 Co198 2.128 . S
N208 C209 1.355 . S
N208 C211 1.311 . S
C209 N208 1.355 . S
C209 C210 1.363 . S
C209 H221 0.929 . S
C210 C209 1.363 . S
C210 N212 1.375 . S
C210 H228 0.931 . S
C211 N208 1.311 . S
C211 N212 1.347 . S
C211 H222 0.929 . S
N212 C210 1.375 . S
N212 C211 1.347 . S
C213 C216 1.365 . S
C213 N218 1.328 . S
C213 H219 0.929 . S
C214 C215 1.362 . S
C214 C217 1.378 . S
C214 H229 0.929 . S
C215 C214 1.362 . S
C215 C216 1.366 . S
C216 C213 1.365 . S
C216 C215 1.366 . S
C216 H230 0.930 . S
C217 C214 1.378 . S
C217 N218 1.315 . S
C217 H220 0.930 . S
N218 Co198 2.194 . S
N218 C213 1.328 . S
N218 C217 1.315 . S
H219 C213 0.929 . S
H220 C217 0.930 . S
H221 C209 0.929 . S
H222 C211 0.929 . S
O223 Co198 2.351 . S
O223 C226 1.244 . S
O224 Co198 2.155 . S
O224 C226 1.240 . S
O225 Co198 2.096 . S
O225 C206 1.247 . S
C226 O223 1.244 . S
C226 O224 1.240 . S
H227 C201 0.931 . S
H228 C210 0.931 . S
H229 C214 0.929 . S
H230 C216 0.930 . S
Co231 N235 2.148 . S
Co231 N241 2.128 . S
Co231 N251 2.194 . S
Co231 O256 2.351 . S
Co231 O257 2.155 . S
Co231 O258 2.096 . S
C232 N235 1.301 . S
C232 N236 1.328 . S
C232 H237 0.930 . S
C233 C234 1.333 . S
C233 N235 1.317 . S
C233 H238 0.930 . S
C234 C233 1.333 . S
C234 N236 1.350 . S
C234 H260 0.931 . S
N235 Co231 2.148 . S
N235 C232 1.301 . S
N235 C233 1.317 . S
N236 C232 1.328 . S
N236 C234 1.350 . S
H237 C232 0.930 . S
H238 C233 0.930 . S
C239 O240 1.224 . S
C239 O258 1.247 . S
O240 C239 1.224 . S
N241 Co231 2.128 . S
N241 C242 1.355 . S
N241 C244 1.311 . S
C242 N241 1.355 . S
C242 C243 1.363 . S
C242 H254 0.929 . S
C243 C242 1.363 . S
C243 N245 1.375 . S
C243 H261 0.931 . S
C244 N241 1.311 . S
C244 N245 1.347 . S
C244 H255 0.929 . S
N245 C243 1.375 . S
N245 C244 1.347 . S
C246 C249 1.365 . S
C246 N251 1.328 . S
C246 H252 0.929 . S
C247 C248 1.362 . S
C247 C250 1.378 . S
C247 H262 0.929 . S
C248 C247 1.362 . S
C248 C249 1.366 . S
C249 C246 1.365 . S
C249 C248 1.366 . S
C249 H263 0.930 . S
C250 C247 1.378 . S
C250 N251 1.315 . S
C250 H253 0.930 . S
N251 Co231 2.194 . S
N251 C246 1.328 . S
N251 C250 1.315 . S
H252 C246 0.929 . S
H253 C250 0.930 . S
H254 C242 0.929 . S
H255 C244 0.929 . S
O256 Co231 2.351 . S
O256 C259 1.244 . S
O257 Co231 2.155 . S
O257 C259 1.240 . S
O258 Co231 2.096 . S
O258 C239 1.247 . S
C259 O256 1.244 . S
C259 O257 1.240 . S
H260 C234 0.931 . S
H261 C243 0.931 . S
H262 C247 0.929 . S
H263 C249 0.930 . S
Co264 N268 2.148 . S
Co264 N274 2.128 . S
Co264 N284 2.194 . S
Co264 O289 2.351 . S
Co264 O290 2.155 . S
Co264 O291 2.096 . S
C265 N268 1.301 . S
C265 N269 1.328 . S
C265 H270 0.930 . S
C266 C267 1.333 . S
C266 N268 1.317 . S
C266 H271 0.930 . S
C267 C266 1.333 . S
C267 N269 1.350 . S
C267 H293 0.931 . S
N268 Co264 2.148 . S
N268 C265 1.301 . S
N268 C266 1.317 . S
N269 C265 1.328 . S
N269 C267 1.350 . S
H270 C265 0.930 . S
H271 C266 0.930 . S
C272 O273 1.224 . S
C272 O291 1.247 . S
O273 C272 1.224 . S
N274 Co264 2.128 . S
N274 C275 1.355 . S
N274 C277 1.311 . S
C275 N274 1.355 . S
C275 C276 1.363 . S
C275 H287 0.929 . S
C276 C275 1.363 . S
C276 N278 1.375 . S
C276 H294 0.931 . S
C277 N274 1.311 . S
C277 N278 1.347 . S
C277 H288 0.929 . S
N278 C276 1.375 . S
N278 C277 1.347 . S
C279 C282 1.365 . S
C279 N284 1.328 . S
C279 H285 0.929 . S
C280 C281 1.362 . S
C280 C283 1.378 . S
C280 H295 0.929 . S
C281 C280 1.362 . S
C281 C282 1.366 . S
C282 C279 1.365 . S
C282 C281 1.366 . S
C282 H296 0.930 . S
C283 C280 1.378 . S
C283 N284 1.315 . S
C283 H286 0.930 . S
N284 Co264 2.194 . S
N284 C279 1.328 . S
N284 C283 1.315 . S
H285 C279 0.929 . S
H286 C283 0.930 . S
H287 C275 0.929 . S
H288 C277 0.929 . S
O289 Co264 2.351 . S
O289 C292 1.244 . S
O290 Co264 2.155 . S
O290 C292 1.240 . S
O291 Co264 2.096 . S
O291 C272 1.247 . S
C292 O289 1.244 . S
C292 O290 1.240 . S
H293 C267 0.931 . S
H294 C276 0.931 . S
H295 C280 0.929 . S
H296 C282 0.930 . S
Co297 N301 2.148 . S
Co297 N307 2.128 . S
Co297 N317 2.194 . S
Co297 O322 2.351 . S
Co297 O323 2.155 . S
Co297 O324 2.096 . S
C298 N301 1.301 . S
C298 N302 1.328 . S
C298 H303 0.930 . S
C299 C300 1.333 . S
C299 N301 1.317 . S
C299 H304 0.930 . S
C300 C299 1.333 . S
C300 N302 1.350 . S
C300 H326 0.931 . S
N301 Co297 2.148 . S
N301 C298 1.301 . S
N301 C299 1.317 . S
N302 C298 1.328 . S
N302 C300 1.350 . S
H303 C298 0.930 . S
H304 C299 0.930 . S
C305 O306 1.224 . S
C305 O324 1.247 . S
O306 C305 1.224 . S
N307 Co297 2.128 . S
N307 C308 1.355 . S
N307 C310 1.311 . S
C308 N307 1.355 . S
C308 C309 1.363 . S
C308 H320 0.929 . S
C309 C308 1.363 . S
C309 N311 1.375 1_554 S
C309 H327 0.931 1_554 S
C310 N307 1.311 . S
C310 N311 1.347 1_554 S
C310 H321 0.929 . S
N311 C309 1.375 1_556 S
N311 C310 1.347 1_556 S
C312 C315 1.365 . S
C312 N317 1.328 . S
C312 H318 0.929 . S
C313 C314 1.362 . S
C313 C316 1.378 . S
C313 H328 0.929 . S
C314 C313 1.362 . S
C314 C315 1.366 . S
C315 C312 1.365 . S
C315 C314 1.366 . S
C315 H329 0.930 . S
C316 C313 1.378 . S
C316 N317 1.315 . S
C316 H319 0.930 . S
N317 Co297 2.194 . S
N317 C312 1.328 . S
N317 C316 1.315 . S
H318 C312 0.929 . S
H319 C316 0.930 . S
H320 C308 0.929 . S
H321 C310 0.929 . S
O322 Co297 2.351 . S
O322 C325 1.244 . S
O323 Co297 2.155 . S
O323 C325 1.240 . S
O324 Co297 2.096 . S
O324 C305 1.247 . S
C325 O322 1.244 . S
C325 O323 1.240 . S
H326 C300 0.931 . S
H327 C309 0.931 1_556 S
H328 C313 0.929 . S
H329 C315 0.930 . S
Co330 N334 2.148 . S
Co330 N340 2.128 . S
Co330 N350 2.194 . S
Co330 O355 2.351 . S
Co330 O356 2.155 . S
Co330 O357 2.096 . S
C331 N334 1.301 . S
C331 N335 1.328 . S
C331 H336 0.930 . S
C332 C333 1.333 . S
C332 N334 1.317 . S
C332 H337 0.930 . S
C333 C332 1.333 . S
C333 N335 1.350 . S
C333 H359 0.931 . S
N334 Co330 2.148 . S
N334 C331 1.301 . S
N334 C332 1.317 . S
N335 C331 1.328 . S
N335 C333 1.350 . S
H336 C331 0.930 . S
H337 C332 0.930 . S
C338 O339 1.224 . S
C338 O357 1.247 . S
O339 C338 1.224 . S
N340 Co330 2.128 . S
N340 C341 1.355 . S
N340 C343 1.311 . S
C341 N340 1.355 . S
C341 C342 1.363 . S
C341 H353 0.929 . S
C342 C341 1.363 . S
C342 N344 1.375 1_554 S
C342 H360 0.931 1_554 S
C343 N340 1.311 . S
C343 N344 1.347 1_554 S
C343 H354 0.929 . S
N344 C342 1.375 1_556 S
N344 C343 1.347 1_556 S
C345 C348 1.365 . S
C345 N350 1.328 . S
C345 H351 0.929 . S
C346 C347 1.362 . S
C346 C349 1.378 . S
C346 H361 0.929 . S
C347 C346 1.362 . S
C347 C348 1.366 . S
C348 C345 1.365 . S
C348 C347 1.366 . S
C348 H362 0.930 . S
C349 C346 1.378 . S
C349 N350 1.315 . S
C349 H352 0.930 . S
N350 Co330 2.194 . S
N350 C345 1.328 . S
N350 C349 1.315 . S
H351 C345 0.929 . S
H352 C349 0.930 . S
H353 C341 0.929 . S
H354 C343 0.929 . S
O355 Co330 2.351 . S
O355 C358 1.244 . S
O356 Co330 2.155 . S
O356 C358 1.240 . S
O357 Co330 2.096 . S
O357 C338 1.247 . S
C358 O355 1.244 . S
C358 O356 1.240 . S
H359 C333 0.931 . S
H360 C342 0.931 1_556 S
H361 C346 0.929 . S
H362 C348 0.930 . S
Co363 N367 2.148 . S
Co363 N373 2.128 . S
Co363 N383 2.194 . S
Co363 O388 2.351 . S
Co363 O389 2.155 . S
Co363 O390 2.096 . S
C364 N367 1.301 . S
C364 N368 1.328 . S
C364 H369 0.930 . S
C365 C366 1.333 . S
C365 N367 1.317 . S
C365 H370 0.930 . S
C366 C365 1.333 . S
C366 N368 1.350 . S
C366 H392 0.931 . S
N367 Co363 2.148 . S
N367 C364 1.301 . S
N367 C365 1.317 . S
N368 C364 1.328 . S
N368 C366 1.350 . S
H369 C364 0.930 . S
H370 C365 0.930 . S
C371 O372 1.224 . S
C371 O390 1.247 . S
O372 C371 1.224 . S
N373 Co363 2.128 . S
N373 C374 1.355 . S
N373 C376 1.311 . S
C374 N373 1.355 . S
C374 C375 1.363 . S
C374 H386 0.929 . S
C375 C374 1.363 . S
C375 N377 1.375 1_554 S
C375 H393 0.931 1_554 S
C376 N373 1.311 . S
C376 N377 1.347 1_554 S
C376 H387 0.929 . S
N377 C375 1.375 1_556 S
N377 C376 1.347 1_556 S
C378 C381 1.365 . S
C378 N383 1.328 . S
C378 H384 0.929 . S
C379 C380 1.362 . S
C379 C382 1.378 . S
C379 H394 0.929 . S
C380 C379 1.362 . S
C380 C381 1.366 . S
C381 C378 1.365 . S
C381 C380 1.366 . S
C381 H395 0.930 . S
C382 C379 1.378 . S
C382 N383 1.315 . S
C382 H385 0.930 . S
N383 Co363 2.194 . S
N383 C378 1.328 . S
N383 C382 1.315 . S
H384 C378 0.929 . S
H385 C382 0.930 . S
H386 C374 0.929 . S
H387 C376 0.929 . S
O388 Co363 2.351 . S
O388 C391 1.244 . S
O389 Co363 2.155 . S
O389 C391 1.240 . S
O390 Co363 2.096 . S
O390 C371 1.247 . S
C391 O388 1.244 . S
C391 O389 1.240 . S
H392 C366 0.931 . S
H393 C375 0.931 1_556 S
H394 C379 0.929 . S
H395 C381 0.930 . S
Co396 N400 2.148 . S
Co396 N406 2.128 . S
Co396 N416 2.194 . S
Co396 O421 2.351 . S
Co396 O422 2.155 . S
Co396 O423 2.096 . S
C397 N400 1.301 . S
C397 N401 1.328 . S
C397 H402 0.930 . S
C398 C399 1.333 . S
C398 N400 1.317 . S
C398 H403 0.930 . S
C399 C398 1.333 . S
C399 N401 1.350 . S
C399 H425 0.931 . S
N400 Co396 2.148 . S
N400 C397 1.301 . S
N400 C398 1.317 . S
N401 C397 1.328 . S
N401 C399 1.350 . S
H402 C397 0.930 . S
H403 C398 0.930 . S
C404 O405 1.224 . S
C404 O423 1.247 . S
O405 C404 1.224 . S
N406 Co396 2.128 . S
N406 C407 1.355 . S
N406 C409 1.311 . S
C407 N406 1.355 . S
C407 C408 1.363 . S
C407 H419 0.929 . S
C408 C407 1.363 . S
C408 N410 1.375 1_556 S
C408 H426 0.931 1_556 S
C409 N406 1.311 . S
C409 N410 1.347 1_556 S
C409 H420 0.929 . S
N410 C408 1.375 1_554 S
N410 C409 1.347 1_554 S
C411 C414 1.365 . S
C411 N416 1.328 . S
C411 H417 0.929 . S
C412 C413 1.362 . S
C412 C415 1.378 . S
C412 H427 0.929 . S
C413 C412 1.362 . S
C413 C414 1.366 . S
C414 C411 1.365 . S
C414 C413 1.366 . S
C414 H428 0.930 . S
C415 C412 1.378 . S
C415 N416 1.315 . S
C415 H418 0.930 . S
N416 Co396 2.194 . S
N416 C411 1.328 . S
N416 C415 1.315 . S
H417 C411 0.929 . S
H418 C415 0.930 . S
H419 C407 0.929 . S
H420 C409 0.929 . S
O421 Co396 2.351 . S
O421 C424 1.244 . S
O422 Co396 2.155 . S
O422 C424 1.240 . S
O423 Co396 2.096 . S
O423 C404 1.247 . S
C424 O421 1.244 . S
C424 O422 1.240 . S
H425 C399 0.931 . S
H426 C408 0.931 1_554 S
H427 C412 0.929 . S
H428 C414 0.930 . S
Co429 N433 2.148 . S
Co429 N439 2.128 . S
Co429 N449 2.194 . S
Co429 O454 2.351 . S
Co429 O455 2.155 . S
Co429 O456 2.096 . S
C430 N433 1.301 . S
C430 N434 1.328 . S
C430 H435 0.930 . S
C431 C432 1.333 . S
C431 N433 1.317 . S
C431 H436 0.930 . S
C432 C431 1.333 . S
C432 N434 1.350 . S
C432 H458 0.931 . S
N433 Co429 2.148 . S
N433 C430 1.301 . S
N433 C431 1.317 . S
N434 C430 1.328 . S
N434 C432 1.350 . S
H435 C430 0.930 . S
H436 C431 0.930 . S
C437 O438 1.224 . S
C437 O456 1.247 . S
O438 C437 1.224 . S
N439 Co429 2.128 . S
N439 C440 1.355 . S
N439 C442 1.311 . S
C440 N439 1.355 . S
C440 C441 1.363 . S
C440 H452 0.929 . S
C441 C440 1.363 . S
C441 N443 1.375 1_556 S
C441 H459 0.931 1_556 S
C442 N439 1.311 . S
C442 N443 1.347 1_556 S
C442 H453 0.929 . S
N443 C441 1.375 1_554 S
N443 C442 1.347 1_554 S
C444 C447 1.365 . S
C444 N449 1.328 . S
C444 H450 0.929 . S
C445 C446 1.362 . S
C445 C448 1.378 . S
C445 H460 0.929 . S
C446 C445 1.362 . S
C446 C447 1.366 . S
C447 C444 1.365 . S
C447 C446 1.366 . S
C447 H461 0.930 . S
C448 C445 1.378 . S
C448 N449 1.315 . S
C448 H451 0.930 . S
N449 Co429 2.194 . S
N449 C444 1.328 . S
N449 C448 1.315 . S
H450 C444 0.929 . S
H451 C448 0.930 . S
H452 C440 0.929 . S
H453 C442 0.929 . S
O454 Co429 2.351 . S
O454 C457 1.244 . S
O455 Co429 2.155 . S
O455 C457 1.240 . S
O456 Co429 2.096 . S
O456 C437 1.247 . S
C457 O454 1.244 . S
C457 O455 1.240 . S
H458 C432 0.931 . S
H459 C441 0.931 1_554 S
H460 C445 0.929 . S
H461 C447 0.930 . S
Co462 N466 2.148 . S
Co462 N472 2.128 . S
Co462 N482 2.194 . S
Co462 O487 2.351 . S
Co462 O488 2.155 . S
Co462 O489 2.096 . S
C463 N466 1.301 . S
C463 N467 1.328 . S
C463 H468 0.930 . S
C464 C465 1.333 . S
C464 N466 1.317 . S
C464 H469 0.930 . S
C465 C464 1.333 . S
C465 N467 1.350 . S
C465 H491 0.931 . S
N466 Co462 2.148 . S
N466 C463 1.301 . S
N466 C464 1.317 . S
N467 C463 1.328 . S
N467 C465 1.350 . S
H468 C463 0.930 . S
H469 C464 0.930 . S
C470 O471 1.224 . S
C470 O489 1.247 . S
O471 C470 1.224 . S
N472 Co462 2.128 . S
N472 C473 1.355 . S
N472 C475 1.311 . S
C473 N472 1.355 . S
C473 C474 1.363 . S
C473 H485 0.929 . S
C474 C473 1.363 . S
C474 N476 1.375 1_556 S
C474 H492 0.931 1_556 S
C475 N472 1.311 . S
C475 N476 1.347 1_556 S
C475 H486 0.929 . S
N476 C474 1.375 1_554 S
N476 C475 1.347 1_554 S
C477 C480 1.365 . S
C477 N482 1.328 . S
C477 H483 0.929 . S
C478 C479 1.362 . S
C478 C481 1.378 . S
C478 H493 0.929 . S
C479 C478 1.362 . S
C479 C480 1.366 . S
C480 C477 1.365 . S
C480 C479 1.366 . S
C480 H494 0.930 . S
C481 C478 1.378 . S
C481 N482 1.315 . S
C481 H484 0.930 . S
N482 Co462 2.194 . S
N482 C477 1.328 . S
N482 C481 1.315 . S
H483 C477 0.929 . S
H484 C481 0.930 . S
H485 C473 0.929 . S
H486 C475 0.929 . S
O487 Co462 2.351 . S
O487 C490 1.244 . S
O488 Co462 2.155 . S
O488 C490 1.240 . S
O489 Co462 2.096 . S
O489 C470 1.247 . S
C490 O487 1.244 . S
C490 O488 1.240 . S
H491 C465 0.931 . S
H492 C474 0.931 1_554 S
H493 C478 0.929 . S
H494 C480 0.930 . S
Co495 N499 2.148 . S
Co495 N505 2.128 . S
Co495 N515 2.194 . S
Co495 O520 2.351 . S
Co495 O521 2.155 . S
Co495 O522 2.096 . S
C496 N499 1.301 . S
C496 N500 1.328 . S
C496 H501 0.930 . S
C497 C498 1.333 . S
C497 N499 1.317 . S
C497 H502 0.930 . S
C498 C497 1.333 . S
C498 N500 1.350 . S
C498 H524 0.931 . S
N499 Co495 2.148 . S
N499 C496 1.301 . S
N499 C497 1.317 . S
N500 C496 1.328 . S
N500 C498 1.350 . S
H501 C496 0.930 . S
H502 C497 0.930 . S
C503 O504 1.224 . S
C503 O522 1.247 . S
O504 C503 1.224 . S
N505 Co495 2.128 . S
N505 C506 1.355 . S
N505 C508 1.311 . S
C506 N505 1.355 . S
C506 C507 1.363 . S
C506 H518 0.929 . S
C507 C506 1.363 . S
C507 N509 1.375 . S
C507 H525 0.931 . S
C508 N505 1.311 . S
C508 N509 1.347 . S
C508 H519 0.929 . S
N509 C507 1.375 . S
N509 C508 1.347 . S
C510 C513 1.365 . S
C510 N515 1.328 . S
C510 H516 0.929 . S
C511 C512 1.362 . S
C511 C514 1.378 . S
C511 H526 0.929 . S
C512 C511 1.362 . S
C512 C513 1.366 . S
C513 C510 1.365 . S
C513 C512 1.366 . S
C513 H527 0.930 . S
C514 C511 1.378 . S
C514 N515 1.315 . S
C514 H517 0.930 . S
N515 Co495 2.194 . S
N515 C510 1.328 . S
N515 C514 1.315 . S
H516 C510 0.929 . S
H517 C514 0.930 . S
H518 C506 0.929 . S
H519 C508 0.929 . S
O520 Co495 2.351 . S
O520 C523 1.244 . S
O521 Co495 2.155 . S
O521 C523 1.240 . S
O522 Co495 2.096 . S
O522 C503 1.247 . S
C523 O520 1.244 . S
C523 O521 1.240 . S
H524 C498 0.931 . S
H525 C507 0.931 . S
H526 C511 0.929 . S
H527 C513 0.930 . S
Co528 N532 2.148 . S
Co528 N538 2.128 . S
Co528 N548 2.194 . S
Co528 O553 2.351 . S
Co528 O554 2.155 . S
Co528 O555 2.096 . S
C529 N532 1.301 . S
C529 N533 1.328 . S
C529 H534 0.930 . S
C530 C531 1.333 . S
C530 N532 1.317 . S
C530 H535 0.930 . S
C531 C530 1.333 . S
C531 N533 1.350 . S
C531 H557 0.931 . S
N532 Co528 2.148 . S
N532 C529 1.301 . S
N532 C530 1.317 . S
N533 C529 1.328 . S
N533 C531 1.350 . S
H534 C529 0.930 . S
H535 C530 0.930 . S
C536 O537 1.224 . S
C536 O555 1.247 . S
O537 C536 1.224 . S
N538 Co528 2.128 . S
N538 C539 1.355 . S
N538 C541 1.311 . S
C539 N538 1.355 . S
C539 C540 1.363 . S
C539 H551 0.929 . S
C540 C539 1.363 . S
C540 N542 1.375 . S
C540 H558 0.931 . S
C541 N538 1.311 . S
C541 N542 1.347 . S
C541 H552 0.929 . S
N542 C540 1.375 . S
N542 C541 1.347 . S
C543 C546 1.365 . S
C543 N548 1.328 . S
C543 H549 0.929 . S
C544 C545 1.362 . S
C544 C547 1.378 . S
C544 H559 0.929 . S
C545 C544 1.362 . S
C545 C546 1.366 . S
C546 C543 1.365 . S
C546 C545 1.366 . S
C546 H560 0.930 . S
C547 C544 1.378 . S
C547 N548 1.315 . S
C547 H550 0.930 . S
N548 Co528 2.194 . S
N548 C543 1.328 . S
N548 C547 1.315 . S
H549 C543 0.929 . S
H550 C547 0.930 . S
H551 C539 0.929 . S
H552 C541 0.929 . S
O553 Co528 2.351 . S
O553 C556 1.244 . S
O554 Co528 2.155 . S
O554 C556 1.240 . S
O555 Co528 2.096 . S
O555 C536 1.247 . S
C556 O553 1.244 . S
C556 O554 1.240 . S
H557 C531 0.931 . S
H558 C540 0.931 . S
H559 C544 0.929 . S
H560 C546 0.930 . S
Co561 N565 2.148 . S
Co561 N571 2.128 . S
Co561 N581 2.194 . S
Co561 O586 2.351 . S
Co561 O587 2.155 . S
Co561 O588 2.096 . S
C562 N565 1.301 . S
C562 N566 1.328 . S
C562 H567 0.930 . S
C563 C564 1.333 . S
C563 N565 1.317 . S
C563 H568 0.930 . S
C564 C563 1.333 . S
C564 N566 1.350 . S
C564 H590 0.931 . S
N565 Co561 2.148 . S
N565 C562 1.301 . S
N565 C563 1.317 . S
N566 C562 1.328 . S
N566 C564 1.350 . S
H567 C562 0.930 . S
H568 C563 0.930 . S
C569 O570 1.224 . S
C569 O588 1.247 . S
O570 C569 1.224 . S
N571 Co561 2.128 . S
N571 C572 1.355 . S
N571 C574 1.311 . S
C572 N571 1.355 . S
C572 C573 1.363 . S
C572 H584 0.929 . S
C573 C572 1.363 . S
C573 N575 1.375 . S
C573 H591 0.931 . S
C574 N571 1.311 . S
C574 N575 1.347 . S
C574 H585 0.929 . S
N575 C573 1.375 . S
N575 C574 1.347 . S
C576 C579 1.365 . S
C576 N581 1.328 . S
C576 H582 0.929 . S
C577 C578 1.362 . S
C577 C580 1.378 . S
C577 H592 0.929 . S
C578 C577 1.362 . S
C578 C579 1.366 . S
C579 C576 1.365 . S
C579 C578 1.366 . S
C579 H593 0.930 . S
C580 C577 1.378 . S
C580 N581 1.315 . S
C580 H583 0.930 . S
N581 Co561 2.194 . S
N581 C576 1.328 . S
N581 C580 1.315 . S
H582 C576 0.929 . S
H583 C580 0.930 . S
H584 C572 0.929 . S
H585 C574 0.929 . S
O586 Co561 2.351 . S
O586 C589 1.244 . S
O587 Co561 2.155 . S
O587 C589 1.240 . S
O588 Co561 2.096 . S
O588 C569 1.247 . S
C589 O586 1.244 . S
C589 O587 1.240 . S
H590 C564 0.931 . S
H591 C573 0.931 . S
H592 C577 0.929 . S
H593 C579 0.930 . S
H594 C602 0.950 . S
H595 C607 0.950 . S
H596 C604 0.950 . S
H597 C606 0.950 . S
H598 C608 0.950 . S
H599 C610 0.950 . S
H600 C612 0.950 . S
H601 C613 0.950 . S
C602 H594 0.950 . S
C602 C603 1.386 . S
C602 C604 1.391 . S
C603 C602 1.386 . S
C603 C607 1.393 . S
C604 H596 0.950 . S
C604 C602 1.391 . S
C604 C605 1.400 . S
C605 C604 1.400 . S
C605 C606 1.398 . S
C605 C611 1.491 . S
C606 H597 0.950 . S
C606 C605 1.398 . S
C606 C607 1.391 . S
C607 H595 0.950 . S
C607 C603 1.393 . S
C607 C606 1.391 . S
C608 H598 0.950 . S
C608 C609 1.386 . S
C608 C610 1.391 . S
C609 C608 1.386 . S
C609 C613 1.393 . S
C610 H599 0.950 . S
C610 C608 1.391 . S
C610 C611 1.400 . S
C611 C605 1.491 . S
C611 C610 1.400 . S
C611 C612 1.398 . S
C612 H600 0.950 . S
C612 C611 1.398 . S
C612 C613 1.391 . S
C613 H601 0.950 . S
C613 C609 1.393 . S
C613 C612 1.391 . S
H614 C622 0.950 . S
H615 C627 0.950 . S
H616 C624 0.950 . S
H617 C626 0.950 . S
H618 C628 0.950 . S
H619 C630 0.950 . S
H620 C632 0.950 . S
H621 C633 0.950 . S
C622 H614 0.950 . S
C622 C623 1.386 . S
C622 C624 1.391 . S
C623 C622 1.386 . S
C623 C627 1.393 . S
C624 H616 0.950 . S
C624 C622 1.391 . S
C624 C625 1.400 . S
C625 C624 1.400 . S
C625 C626 1.398 . S
C625 C631 1.491 . S
C626 H617 0.950 . S
C626 C625 1.398 . S
C626 C627 1.391 . S
C627 H615 0.950 . S
C627 C623 1.393 . S
C627 C626 1.391 . S
C628 H618 0.950 . S
C628 C629 1.386 . S
C628 C630 1.391 . S
C629 C628 1.386 . S
C629 C633 1.393 . S
C630 H619 0.950 . S
C630 C628 1.391 . S
C630 C631 1.400 . S
C631 C625 1.491 . S
C631 C630 1.400 . S
C631 C632 1.398 . S
C632 H620 0.950 . S
C632 C631 1.398 . S
C632 C633 1.391 . S
C633 H621 0.950 . S
C633 C629 1.393 . S
C633 C632 1.391 . S
H634 C642 0.950 . S
H635 C647 0.950 . S
H636 C644 0.950 . S
H637 C646 0.950 . S
H638 C648 0.950 . S
H639 C650 0.950 . S
H640 C652 0.950 . S
H641 C653 0.950 . S
C642 H634 0.950 . S
C642 C643 1.386 . S
C642 C644 1.391 . S
C643 C642 1.386 . S
C643 C647 1.393 . S
C644 H636 0.950 . S
C644 C642 1.391 . S
C644 C645 1.400 . S
C645 C644 1.400 . S
C645 C646 1.398 . S
C645 C651 1.491 . S
C646 H637 0.950 . S
C646 C645 1.398 . S
C646 C647 1.391 . S
C647 H635 0.950 . S
C647 C643 1.393 . S
C647 C646 1.391 . S
C648 H638 0.950 . S
C648 C649 1.386 . S
C648 C650 1.391 . S
C649 C648 1.386 . S
C649 C653 1.393 . S
C650 H639 0.950 . S
C650 C648 1.391 . S
C650 C651 1.400 . S
C651 C645 1.491 . S
C651 C650 1.400 . S
C651 C652 1.398 . S
C652 H640 0.950 . S
C652 C651 1.398 . S
C652 C653 1.391 . S
C653 H641 0.950 . S
C653 C649 1.393 . S
C653 C652 1.391 . S
H654 C662 0.950 . S
H655 C667 0.950 . S
H656 C664 0.950 . S
H657 C666 0.950 . S
H658 C668 0.950 . S
H659 C670 0.950 . S
H660 C672 0.950 . S
H661 C673 0.950 . S
C662 H654 0.950 . S
C662 C663 1.386 . S
C662 C664 1.391 . S
C663 C662 1.386 . S
C663 C667 1.393 . S
C664 H656 0.950 . S
C664 C662 1.391 . S
C664 C665 1.400 . S
C665 C664 1.400 . S
C665 C666 1.398 . S
C665 C671 1.491 . S
C666 H657 0.950 . S
C666 C665 1.398 . S
C666 C667 1.391 . S
C667 H655 0.950 . S
C667 C663 1.393 . S
C667 C666 1.391 . S
C668 H658 0.950 . S
C668 C669 1.386 . S
C668 C670 1.391 . S
C669 C668 1.386 . S
C669 C673 1.393 . S
C670 H659 0.950 . S
C670 C668 1.391 . S
C670 C671 1.400 . S
C671 C665 1.491 . S
C671 C670 1.400 . S
C671 C672 1.398 . S
C672 H660 0.950 . S
C672 C671 1.398 . S
C672 C673 1.391 . S
C673 H661 0.950 . S
C673 C669 1.393 . S
C673 C672 1.391 . S
H674 C682 0.950 . S
H675 C687 0.950 . S
H676 C684 0.950 . S
H677 C686 0.950 . S
H678 C688 0.950 . S
H679 C690 0.950 . S
H680 C692 0.950 . S
H681 C693 0.950 . S
C682 H674 0.950 . S
C682 C683 1.386 . S
C682 C684 1.391 . S
C683 C682 1.386 . S
C683 C687 1.393 . S
C684 H676 0.950 . S
C684 C682 1.391 . S
C684 C685 1.400 . S
C685 C684 1.400 . S
C685 C686 1.398 . S
C685 C691 1.491 . S
C686 H677 0.950 . S
C686 C685 1.398 . S
C686 C687 1.391 . S
C687 H675 0.950 . S
C687 C683 1.393 . S
C687 C686 1.391 . S
C688 H678 0.950 . S
C688 C689 1.386 . S
C688 C690 1.391 . S
C689 C688 1.386 . S
C689 C693 1.393 . S
C690 H679 0.950 . S
C690 C688 1.391 . S
C690 C691 1.400 . S
C691 C685 1.491 . S
C691 C690 1.400 . S
C691 C692 1.398 . S
C692 H680 0.950 . S
C692 C691 1.398 . S
C692 C693 1.391 . S
C693 H681 0.950 . S
C693 C689 1.393 . S
C693 C692 1.391 . S
H694 C702 0.950 . S
H695 C707 0.950 . S
H696 C704 0.950 . S
H697 C706 0.950 . S
H698 C708 0.950 . S
H699 C710 0.950 . S
H700 C712 0.950 . S
H701 C713 0.950 . S
C702 H694 0.950 . S
C702 C703 1.386 . S
C702 C704 1.391 . S
C703 C702 1.386 . S
C703 C707 1.393 . S
C704 H696 0.950 . S
C704 C702 1.391 . S
C704 C705 1.400 . S
C705 C704 1.400 . S
C705 C706 1.398 . S
C705 C711 1.491 . S
C706 H697 0.950 . S
C706 C705 1.398 . S
C706 C707 1.391 . S
C707 H695 0.950 . S
C707 C703 1.393 . S
C707 C706 1.391 . S
C708 H698 0.950 . S
C708 C709 1.386 . S
C708 C710 1.391 . S
C709 C708 1.386 . S
C709 C713 1.393 . S
C710 H699 0.950 . S
C710 C708 1.391 . S
C710 C711 1.400 . S
C711 C705 1.491 . S
C711 C710 1.400 . S
C711 C712 1.398 . S
C712 H700 0.950 . S
C712 C711 1.398 . S
C712 C713 1.391 . S
C713 H701 0.950 . S
C713 C709 1.393 . S
C713 C712 1.391 . S
H714 C722 0.950 . S
H715 C727 0.950 . S
H716 C724 0.950 1_556 S
H717 C726 0.950 1_556 S
H718 C728 0.950 . S
H719 C730 0.950 . S
H720 C732 0.950 . S
H721 C733 0.950 . S
C722 H714 0.950 . S
C722 C723 1.386 . S
C722 C724 1.391 . S
C723 C722 1.386 . S
C723 C727 1.393 . S
C724 H716 0.950 1_554 S
C724 C722 1.391 . S
C724 C725 1.400 1_554 S
C725 C724 1.400 1_556 S
C725 C726 1.398 1_556 S
C725 C731 1.491 . S
C726 H717 0.950 1_554 S
C726 C725 1.398 1_554 S
C726 C727 1.391 . S
C727 H715 0.950 . S
C727 C723 1.393 . S
C727 C726 1.391 . S
C728 H718 0.950 . S
C728 C729 1.386 . S
C728 C730 1.391 . S
C729 C728 1.386 . S
C729 C733 1.393 . S
C730 H719 0.950 . S
C730 C728 1.391 . S
C730 C731 1.400 . S
C731 C725 1.491 . S
C731 C730 1.400 . S
C731 C732 1.398 . S
C732 H720 0.950 . S
C732 C731 1.398 . S
C732 C733 1.391 . S
C733 H721 0.950 . S
C733 C729 1.393 . S
C733 C732 1.391 . S
H734 C742 0.950 . S
H735 C747 0.950 . S
H736 C744 0.950 . S
H737 C746 0.950 1_556 S
H738 C748 0.950 . S
H739 C750 0.950 . S
H740 C752 0.950 . S
H741 C753 0.950 . S
C742 H734 0.950 . S
C742 C743 1.386 . S
C742 C744 1.391 . S
C743 C742 1.386 . S
C743 C747 1.393 . S
C744 H736 0.950 . S
C744 C742 1.391 . S
C744 C745 1.400 1_554 S
C745 C744 1.400 1_556 S
C745 C746 1.398 1_556 S
C745 C751 1.491 . S
C746 H737 0.950 1_554 S
C746 C745 1.398 1_554 S
C746 C747 1.391 . S
C747 H735 0.950 . S
C747 C743 1.393 . S
C747 C746 1.391 . S
C748 H738 0.950 . S
C748 C749 1.386 . S
C748 C750 1.391 . S
C749 C748 1.386 . S
C749 C753 1.393 . S
C750 H739 0.950 . S
C750 C748 1.391 . S
C750 C751 1.400 . S
C751 C745 1.491 . S
C751 C750 1.400 . S
C751 C752 1.398 . S
C752 H740 0.950 . S
C752 C751 1.398 . S
C752 C753 1.391 . S
C753 H741 0.950 . S
C753 C749 1.393 . S
C753 C752 1.391 . S
H754 C762 0.950 . S
H755 C767 0.950 . S
H756 C764 0.950 . S
H757 C766 0.950 . S
H758 C768 0.950 . S
H759 C770 0.950 1_556 S
H760 C772 0.950 1_556 S
H761 C773 0.950 . S
C762 H754 0.950 . S
C762 C763 1.386 . S
C762 C764 1.391 . S
C763 C762 1.386 . S
C763 C767 1.393 . S
C764 H756 0.950 . S
C764 C762 1.391 . S
C764 C765 1.400 . S
C765 C764 1.400 . S
C765 C766 1.398 . S
C765 C771 1.491 . S
C766 H757 0.950 . S
C766 C765 1.398 . S
C766 C767 1.391 . S
C767 H755 0.950 . S
C767 C763 1.393 . S
C767 C766 1.391 . S
C768 H758 0.950 . S
C768 C769 1.386 . S
C768 C770 1.391 . S
C769 C768 1.386 . S
C769 C773 1.393 . S
C770 H759 0.950 1_554 S
C770 C768 1.391 . S
C770 C771 1.400 1_554 S
C771 C765 1.491 . S
C771 C770 1.400 1_556 S
C771 C772 1.398 1_556 S
C772 H760 0.950 1_554 S
C772 C771 1.398 1_554 S
C772 C773 1.391 . S
C773 H761 0.950 . S
C773 C769 1.393 . S
C773 C772 1.391 . S
H774 C782 0.950 . S
H775 C787 0.950 . S
H776 C784 0.950 . S
H777 C786 0.950 . S
H778 C788 0.950 . S
H779 C790 0.950 . S
H780 C792 0.950 . S
H781 C793 0.950 . S
C782 H774 0.950 . S
C782 C783 1.386 . S
C782 C784 1.391 . S
C783 C782 1.386 . S
C783 C787 1.393 . S
C784 H776 0.950 . S
C784 C782 1.391 . S
C784 C785 1.400 . S
C785 C784 1.400 . S
C785 C786 1.398 . S
C785 C791 1.491 . S
C786 H777 0.950 . S
C786 C785 1.398 . S
C786 C787 1.391 . S
C787 H775 0.950 . S
C787 C783 1.393 . S
C787 C786 1.391 . S
C788 H778 0.950 . S
C788 C789 1.386 . S
C788 C790 1.391 . S
C789 C788 1.386 . S
C789 C793 1.393 . S
C790 H779 0.950 . S
C790 C788 1.391 . S
C790 C791 1.400 . S
C791 C785 1.491 . S
C791 C790 1.400 . S
C791 C792 1.398 . S
C792 H780 0.950 . S
C792 C791 1.398 . S
C792 C793 1.391 . S
C793 H781 0.950 . S
C793 C789 1.393 . S
C793 C792 1.391 . S
H794 C802 0.950 . S
H795 C807 0.950 . S
H796 C804 0.950 . S
H797 C806 0.950 . S
H798 C808 0.950 . S
H799 C810 0.950 . S
H800 C812 0.950 . S
H801 C813 0.950 . S
C802 H794 0.950 . S
C802 C803 1.386 . S
C802 C804 1.391 . S
C803 C802 1.386 . S
C803 C807 1.393 . S
C804 H796 0.950 . S
C804 C802 1.391 . S
C804 C805 1.400 . S
C805 C804 1.400 . S
C805 C806 1.398 . S
C805 C811 1.491 . S
C806 H797 0.950 . S
C806 C805 1.398 . S
C806 C807 1.391 . S
C807 H795 0.950 . S
C807 C803 1.393 . S
C807 C806 1.391 . S
C808 H798 0.950 . S
C808 C809 1.386 . S
C808 C810 1.391 . S
C809 C808 1.386 . S
C809 C813 1.393 . S
C810 H799 0.950 . S
C810 C808 1.391 . S
C810 C811 1.400 . S
C811 C805 1.491 . S
C811 C810 1.400 . S
C811 C812 1.398 . S
C812 H800 0.950 . S
C812 C811 1.398 . S
C812 C813 1.391 . S
C813 H801 0.950 . S
C813 C809 1.393 . S
C813 C812 1.391 . S
H814 C822 0.950 . S
H815 C827 0.950 . S
H816 C824 0.950 . S
H817 C826 0.950 . S
H818 C828 0.950 . S
H819 C830 0.950 . S
H820 C832 0.950 . S
H821 C833 0.950 . S
C822 H814 0.950 . S
C822 C823 1.386 . S
C822 C824 1.391 . S
C823 C822 1.386 . S
C823 C827 1.393 . S
C824 H816 0.950 . S
C824 C822 1.391 . S
C824 C825 1.400 . S
C825 C824 1.400 . S
C825 C826 1.398 . S
C825 C831 1.491 . S
C826 H817 0.950 . S
C826 C825 1.398 . S
C826 C827 1.391 . S
C827 H815 0.950 . S
C827 C823 1.393 . S
C827 C826 1.391 . S
C828 H818 0.950 . S
C828 C829 1.386 . S
C828 C830 1.391 . S
C829 C828 1.386 . S
C829 C833 1.393 . S
C830 H819 0.950 . S
C830 C828 1.391 . S
C830 C831 1.400 . S
C831 C825 1.491 . S
C831 C830 1.400 . S
C831 C832 1.398 . S
C832 H820 0.950 . S
C832 C831 1.398 . S
C832 C833 1.391 . S
C833 H821 0.950 . S
C833 C829 1.393 . S
C833 C832 1.391 . S
H834 C842 0.950 . S
H835 C847 0.950 . S
H836 C844 0.950 . S
H837 C846 0.950 . S
H838 C848 0.950 . S
H839 C850 0.950 . S
H840 C852 0.950 . S
H841 C853 0.950 . S
C842 H834 0.950 . S
C842 C843 1.386 . S
C842 C844 1.391 . S
C843 C842 1.386 . S
C843 C847 1.393 . S
C844 H836 0.950 . S
C844 C842 1.391 . S
C844 C845 1.400 . S
C845 C844 1.400 . S
C845 C846 1.398 . S
C845 C851 1.491 . S
C846 H837 0.950 . S
C846 C845 1.398 . S
C846 C847 1.391 . S
C847 H835 0.950 . S
C847 C843 1.393 . S
C847 C846 1.391 . S
C848 H838 0.950 . S
C848 C849 1.386 . S
C848 C850 1.391 . S
C849 C848 1.386 . S
C849 C853 1.393 . S
C850 H839 0.950 . S
C850 C848 1.391 . S
C850 C851 1.400 . S
C851 C845 1.491 . S
C851 C850 1.400 . S
C851 C852 1.398 . S
C852 H840 0.950 . S
C852 C851 1.398 . S
C852 C853 1.391 . S
C853 H841 0.950 . S
C853 C849 1.393 . S
C853 C852 1.391 . S
H854 C862 0.950 . S
H855 C867 0.950 . S
H856 C864 0.950 . S
H857 C866 0.950 . S
H858 C868 0.950 . S
H859 C870 0.950 . S
H860 C872 0.950 . S
H861 C873 0.950 . S
C862 H854 0.950 . S
C862 C863 1.386 . S
C862 C864 1.391 . S
C863 C862 1.386 . S
C863 C867 1.393 . S
C864 H856 0.950 . S
C864 C862 1.391 . S
C864 C865 1.400 . S
C865 C864 1.400 . S
C865 C866 1.398 . S
C865 C871 1.491 . S
C866 H857 0.950 . S
C866 C865 1.398 . S
C866 C867 1.391 . S
C867 H855 0.950 . S
C867 C863 1.393 . S
C867 C866 1.391 . S
C868 H858 0.950 . S
C868 C869 1.386 . S
C868 C870 1.391 . S
C869 C868 1.386 . S
C869 C873 1.393 . S
C870 H859 0.950 . S
C870 C868 1.391 . S
C870 C871 1.400 . S
C871 C865 1.491 . S
C871 C870 1.400 . S
C871 C872 1.398 . S
C872 H860 0.950 . S
C872 C871 1.398 . S
C872 C873 1.391 . S
C873 H861 0.950 . S
C873 C869 1.393 . S
C873 C872 1.391 . S
H874 C882 0.950 . S
H875 C887 0.950 . S
H876 C884 0.950 . S
H877 C886 0.950 . S
H878 C888 0.950 . S
H879 C890 0.950 . S
H880 C892 0.950 . S
H881 C893 0.950 . S
C882 H874 0.950 . S
C882 C883 1.386 . S
C882 C884 1.391 . S
C883 C882 1.386 . S
C883 C887 1.393 . S
C884 H876 0.950 . S
C884 C882 1.391 . S
C884 C885 1.400 . S
C885 C884 1.400 . S
C885 C886 1.398 . S
C885 C891 1.491 . S
C886 H877 0.950 . S
C886 C885 1.398 . S
C886 C887 1.391 . S
C887 H875 0.950 . S
C887 C883 1.393 . S
C887 C886 1.391 . S
C888 H878 0.950 . S
C888 C889 1.386 . S
C888 C890 1.391 . S
C889 C888 1.386 . S
C889 C893 1.393 . S
C890 H879 0.950 . S
C890 C888 1.391 . S
C890 C891 1.400 . S
C891 C885 1.491 . S
C891 C890 1.400 . S
C891 C892 1.398 . S
C892 H880 0.950 . S
C892 C891 1.398 . S
C892 C893 1.391 . S
C893 H881 0.950 . S
C893 C889 1.393 . S
C893 C892 1.391 . S
H894 C902 0.950 . S
H895 C907 0.950 . S
H896 C904 0.950 . S
H897 C906 0.950 . S
H898 C908 0.950 . S
H899 C910 0.950 . S
H900 C912 0.950 1_554 S
H901 C913 0.950 . S
C902 H894 0.950 . S
C902 C903 1.386 . S
C902 C904 1.391 . S
C903 C902 1.386 . S
C903 C907 1.393 . S
C904 H896 0.950 . S
C904 C902 1.391 . S
C904 C905 1.400 . S
C905 C904 1.400 . S
C905 C906 1.398 . S
C905 C911 1.491 . S
C906 H897 0.950 . S
C906 C905 1.398 . S
C906 C907 1.391 . S
C907 H895 0.950 . S
C907 C903 1.393 . S
C907 C906 1.391 . S
C908 H898 0.950 . S
C908 C909 1.386 . S
C908 C910 1.391 . S
C909 C908 1.386 . S
C909 C913 1.393 . S
C910 H899 0.950 . S
C910 C908 1.391 . S
C910 C911 1.400 1_556 S
C911 C905 1.491 . S
C911 C910 1.400 1_554 S
C911 C912 1.398 1_554 S
C912 H900 0.950 1_556 S
C912 C911 1.398 1_556 S
C912 C913 1.391 . S
C913 H901 0.950 . S
C913 C909 1.393 . S
C913 C912 1.391 . S
H914 C922 0.950 . S
H915 C927 0.950 . S
H916 C924 0.950 . S
H917 C926 0.950 . S
H918 C928 0.950 . S
H919 C930 0.950 1_554 S
H920 C932 0.950 . S
H921 C933 0.950 . S
C922 H914 0.950 . S
C922 C923 1.386 . S
C922 C924 1.391 . S
C923 C922 1.386 . S
C923 C927 1.393 . S
C924 H916 0.950 . S
C924 C922 1.391 . S
C924 C925 1.400 . S
C925 C924 1.400 . S
C925 C926 1.398 . S
C925 C931 1.491 . S
C926 H917 0.950 . S
C926 C925 1.398 . S
C926 C927 1.391 . S
C927 H915 0.950 . S
C927 C923 1.393 . S
C927 C926 1.391 . S
C928 H918 0.950 . S
C928 C929 1.386 . S
C928 C930 1.391 . S
C929 C928 1.386 . S
C929 C933 1.393 . S
C930 H919 0.950 1_556 S
C930 C928 1.391 . S
C930 C931 1.400 1_556 S
C931 C925 1.491 . S
C931 C930 1.400 1_554 S
C931 C932 1.398 1_554 S
C932 H920 0.950 . S
C932 C931 1.398 1_556 S
C932 C933 1.391 . S
C933 H921 0.950 . S
C933 C929 1.393 . S
C933 C932 1.391 . S
H934 C942 0.950 . S
H935 C947 0.950 . S
H936 C944 0.950 1_554 S
H937 C946 0.950 1_554 S
H938 C948 0.950 . S
H939 C950 0.950 . S
H940 C952 0.950 . S
H941 C953 0.950 . S
C942 H934 0.950 . S
C942 C943 1.386 . S
C942 C944 1.391 . S
C943 C942 1.386 . S
C943 C947 1.393 . S
C944 H936 0.950 1_556 S
C944 C942 1.391 . S
C944 C945 1.400 1_556 S
C945 C944 1.400 1_554 S
C945 C946 1.398 1_554 S
C945 C951 1.491 . S
C946 H937 0.950 1_556 S
C946 C945 1.398 1_556 S
C946 C947 1.391 . S
C947 H935 0.950 . S
C947 C943 1.393 . S
C947 C946 1.391 . S
C948 H938 0.950 . S
C948 C949 1.386 . S
C948 C950 1.391 . S
C949 C948 1.386 . S
C949 C953 1.393 . S
C950 H939 0.950 . S
C950 C948 1.391 . S
C950 C951 1.400 . S
C951 C945 1.491 . S
C951 C950 1.400 . S
C951 C952 1.398 . S
C952 H940 0.950 . S
C952 C951 1.398 . S
C952 C953 1.391 . S
C953 H941 0.950 . S
C953 C949 1.393 . S
C953 C952 1.391 . S
H954 C962 0.950 . S
H955 C967 0.950 . S
H956 C964 0.950 . S
H957 C966 0.950 . S
H958 C968 0.950 . S
H959 C970 0.950 . S
H960 C972 0.950 . S
H961 C973 0.950 . S
C962 H954 0.950 . S
C962 C963 1.386 . S
C962 C964 1.391 . S
C963 C962 1.386 . S
C963 C967 1.393 . S
C964 H956 0.950 . S
C964 C962 1.391 . S
C964 C965 1.400 . S
C965 C964 1.400 . S
C965 C966 1.398 . S
C965 C971 1.491 . S
C966 H957 0.950 . S
C966 C965 1.398 . S
C966 C967 1.391 . S
C967 H955 0.950 . S
C967 C963 1.393 . S
C967 C966 1.391 . S
C968 H958 0.950 . S
C968 C969 1.386 . S
C968 C970 1.391 . S
C969 C968 1.386 . S
C969 C973 1.393 . S
C970 H959 0.950 . S
C970 C968 1.391 . S
C970 C971 1.400 . S
C971 C965 1.491 . S
C971 C970 1.400 . S
C971 C972 1.398 . S
C972 H960 0.950 . S
C972 C971 1.398 . S
C972 C973 1.391 . S
C973 H961 0.950 . S
C973 C969 1.393 . S
C973 C972 1.391 . S
H974 C982 0.950 . S
H975 C987 0.950 . S
H976 C984 0.950 . S
H977 C986 0.950 . S
H978 C988 0.950 . S
H979 C990 0.950 . S
H980 C992 0.950 . S
H981 C993 0.950 . S
C982 H974 0.950 . S
C982 C983 1.386 . S
C982 C984 1.391 . S
C983 C982 1.386 . S
C983 C987 1.393 . S
C984 H976 0.950 . S
C984 C982 1.391 . S
C984 C985 1.400 . S
C985 C984 1.400 . S
C985 C986 1.398 . S
C985 C991 1.491 . S
C986 H977 0.950 . S
C986 C985 1.398 . S
C986 C987 1.391 . S
C987 H975 0.950 . S
C987 C983 1.393 . S
C987 C986 1.391 . S
C988 H978 0.950 . S
C988 C989 1.386 . S
C988 C990 1.391 . S
C989 C988 1.386 . S
C989 C993 1.393 . S
C990 H979 0.950 . S
C990 C988 1.391 . S
C990 C991 1.400 . S
C991 C985 1.491 . S
C991 C990 1.400 . S
C991 C992 1.398 . S
C992 H980 0.950 . S
C992 C991 1.398 . S
C992 C993 1.391 . S
C993 H981 0.950 . S
C993 C989 1.393 . S
C993 C992 1.391 . S
H994 C1002 0.950 . S
H995 C1007 0.950 . S
H996 C1004 0.950 . S
H997 C1006 0.950 . S
H998 C1008 0.950 . S
H999 C1010 0.950 . S
H1000 C1012 0.950 . S
H1001 C1013 0.950 . S
C1002 H994 0.950 . S
C1002 C1003 1.386 . S
C1002 C1004 1.391 . S
C1003 C1002 1.386 . S
C1003 C1007 1.393 . S
C1004 H996 0.950 . S
C1004 C1002 1.391 . S
C1004 C1005 1.400 . S
C1005 C1004 1.400 . S
C1005 C1006 1.398 . S
C1005 C1011 1.491 . S
C1006 H997 0.950 . S
C1006 C1005 1.398 . S
C1006 C1007 1.391 . S
C1007 H995 0.950 . S
C1007 C1003 1.393 . S
C1007 C1006 1.391 . S
C1008 H998 0.950 . S
C1008 C1009 1.386 . S
C1008 C1010 1.391 . S
C1009 C1008 1.386 . S
C1009 C1013 1.393 . S
C1010 H999 0.950 . S
C1010 C1008 1.391 . S
C1010 C1011 1.400 . S
C1011 C1005 1.491 . S
C1011 C1010 1.400 . S
C1011 C1012 1.398 . S
C1012 H1000 0.950 . S
C1012 C1011 1.398 . S
C1012 C1013 1.391 . S
C1013 H1001 0.950 . S
C1013 C1009 1.393 . S
C1013 C1012 1.391 . S
H1014 C1022 0.950 . S
H1015 C1027 0.950 . S
H1016 C1024 0.950 . S
H1017 C1026 0.950 . S
H1018 C1028 0.950 . S
H1019 C1030 0.950 . S
H1020 C1032 0.950 . S
H1021 C1033 0.950 . S
C1022 H1014 0.950 . S
C1022 C1023 1.386 . S
C1022 C1024 1.391 . S
C1023 C1022 1.386 . S
C1023 C1027 1.393 . S
C1024 H1016 0.950 . S
C1024 C1022 1.391 . S
C1024 C1025 1.400 . S
C1025 C1024 1.400 . S
C1025 C1026 1.398 . S
C1025 C1031 1.491 . S
C1026 H1017 0.950 . S
C1026 C1025 1.398 . S
C1026 C1027 1.391 . S
C1027 H1015 0.950 . S
C1027 C1023 1.393 . S
C1027 C1026 1.391 . S
C1028 H1018 0.950 . S
C1028 C1029 1.386 . S
C1028 C1030 1.391 . S
C1029 C1028 1.386 . S
C1029 C1033 1.393 . S
C1030 H1019 0.950 . S
C1030 C1028 1.391 . S
C1030 C1031 1.400 . S
C1031 C1025 1.491 . S
C1031 C1030 1.400 . S
C1031 C1032 1.398 . S
C1032 H1020 0.950 . S
C1032 C1031 1.398 . S
C1032 C1033 1.391 . S
C1033 H1021 0.950 . S
C1033 C1029 1.393 . S
C1033 C1032 1.391 . S
H1034 C1042 0.950 . S
H1035 C1047 0.950 . S
H1036 C1044 0.950 . S
H1037 C1046 0.950 . S
H1038 C1048 0.950 . S
H1039 C1050 0.950 . S
H1040 C1052 0.950 . S
H1041 C1053 0.950 . S
C1042 H1034 0.950 . S
C1042 C1043 1.386 . S
C1042 C1044 1.391 . S
C1043 C1042 1.386 . S
C1043 C1047 1.393 . S
C1044 H1036 0.950 . S
C1044 C1042 1.391 . S
C1044 C1045 1.400 . S
C1045 C1044 1.400 . S
C1045 C1046 1.398 . S
C1045 C1051 1.491 . S
C1046 H1037 0.950 . S
C1046 C1045 1.398 . S
C1046 C1047 1.391 . S
C1047 H1035 0.950 . S
C1047 C1043 1.393 . S
C1047 C1046 1.391 . S
C1048 H1038 0.950 . S
C1048 C1049 1.386 . S
C1048 C1050 1.391 . S
C1049 C1048 1.386 . S
C1049 C1053 1.393 . S
C1050 H1039 0.950 . S
C1050 C1048 1.391 . S
C1050 C1051 1.400 . S
C1051 C1045 1.491 . S
C1051 C1050 1.400 . S
C1051 C1052 1.398 . S
C1052 H1040 0.950 . S
C1052 C1051 1.398 . S
C1052 C1053 1.391 . S
C1053 H1041 0.950 . S
C1053 C1049 1.393 . S
C1053 C1052 1.391 . S
H1054 C1062 0.950 . S
H1055 C1067 0.950 . S
H1056 C1064 0.950 . S
H1057 C1066 0.950 . S
H1058 C1068 0.950 . S
H1059 C1070 0.950 . S
H1060 C1072 0.950 . S
H1061 C1073 0.950 . S
C1062 H1054 0.950 . S
C1062 C1063 1.386 . S
C1062 C1064 1.391 . S
C1063 C1062 1.386 . S
C1063 C1067 1.393 . S
C1064 H1056 0.950 . S
C1064 C1062 1.391 . S
C1064 C1065 1.400 . S
C1065 C1064 1.400 . S
C1065 C1066 1.398 . S
C1065 C1071 1.491 . S
C1066 H1057 0.950 . S
C1066 C1065 1.398 . S
C1066 C1067 1.391 . S
C1067 H1055 0.950 . S
C1067 C1063 1.393 . S
C1067 C1066 1.391 . S
C1068 H1058 0.950 . S
C1068 C1069 1.386 . S
C1068 C1070 1.391 . S
C1069 C1068 1.386 . S
C1069 C1073 1.393 . S
C1070 H1059 0.950 . S
C1070 C1068 1.391 . S
C1070 C1071 1.400 . S
C1071 C1065 1.491 . S
C1071 C1070 1.400 . S
C1071 C1072 1.398 . S
C1072 H1060 0.950 . S
C1072 C1071 1.398 . S
C1072 C1073 1.391 . S
C1073 H1061 0.950 . S
C1073 C1069 1.393 . S
C1073 C1072 1.391 . S
H1074 C1082 0.950 . S
H1075 C1087 0.950 . S
H1076 C1084 0.950 1_556 S
H1077 C1086 0.950 1_455 S
H1078 C1088 0.950 . S
H1079 C1090 0.950 1_554 S
H1080 C1092 0.950 1_655 S
H1081 C1093 0.950 . S
C1082 H1074 0.950 . S
C1082 C1083 1.386 . S
C1082 C1084 1.391 . S
C1083 C1082 1.386 . S
C1083 C1087 1.393 . S
C1084 H1076 0.950 1_554 S
C1084 C1082 1.391 . S
C1084 C1085 1.400 . S
C1085 C1084 1.400 . S
C1085 C1086 1.398 . S
C1085 C1091 1.491 1_654 S
C1086 H1077 0.950 1_655 S
C1086 C1085 1.398 . S
C1086 C1087 1.391 . S
C1087 H1075 0.950 . S
C1087 C1083 1.393 . S
C1087 C1086 1.391 . S
C1088 H1078 0.950 . S
C1088 C1089 1.386 . S
C1088 C1090 1.391 . S
C1089 C1088 1.386 . S
C1089 C1093 1.393 . S
C1090 H1079 0.950 1_556 S
C1090 C1088 1.391 . S
C1090 C1091 1.400 . S
C1091 C1085 1.491 1_456 S
C1091 C1090 1.400 . S
C1091 C1092 1.398 . S
C1092 H1080 0.950 1_455 S
C1092 C1091 1.398 . S
C1092 C1093 1.391 . S
C1093 H1081 0.950 . S
C1093 C1089 1.393 . S
C1093 C1092 1.391 . S
H1094 C1102 0.950 . S
H1095 C1107 0.950 . S
H1096 C1104 0.950 1_554 S
H1097 C1106 0.950 . S
H1098 C1108 0.950 . S
H1099 C1110 0.950 1_556 S
H1100 C1112 0.950 . S
H1101 C1113 0.950 . S
C1102 H1094 0.950 . S
C1102 C1103 1.386 . S
C1102 C1104 1.391 . S
C1103 C1102 1.386 . S
C1103 C1107 1.393 . S
C1104 H1096 0.950 1_556 S
C1104 C1102 1.391 . S
C1104 C1105 1.400 . S
C1105 C1104 1.400 . S
C1105 C1106 1.398 . S
C1105 C1111 1.491 1_556 S
C1106 H1097 0.950 . S
C1106 C1105 1.398 . S
C1106 C1107 1.391 . S
C1107 H1095 0.950 . S
C1107 C1103 1.393 . S
C1107 C1106 1.391 . S
C1108 H1098 0.950 . S
C1108 C1109 1.386 . S
C1108 C1110 1.391 . S
C1109 C1108 1.386 . S
C1109 C1113 1.393 . S
C1110 H1099 0.950 1_554 S
C1110 C1108 1.391 . S
C1110 C1111 1.400 . S
C1111 C1105 1.491 1_554 S
C1111 C1110 1.400 . S
C1111 C1112 1.398 . S
C1112 H1100 0.950 . S
C1112 C1111 1.398 . S
C1112 C1113 1.391 . S
C1113 H1101 0.950 . S
C1113 C1109 1.393 . S
C1113 C1112 1.391 . S
H1114 C1122 0.950 . S
H1115 C1127 0.950 . S
H1116 C1124 0.950 . S
H1117 C1126 0.950 . S
H1118 C1128 0.950 . S
H1119 C1130 0.950 . S
H1120 C1132 0.950 . S
H1121 C1133 0.950 . S
C1122 H1114 0.950 . S
C1122 C1123 1.386 . S
C1122 C1124 1.391 . S
C1123 C1122 1.386 . S
C1123 C1127 1.393 . S
C1124 H1116 0.950 . S
C1124 C1122 1.391 . S
C1124 C1125 1.400 . S
C1125 C1124 1.400 . S
C1125 C1126 1.398 . S
C1125 C1131 1.491 1_544 S
C1126 H1117 0.950 . S
C1126 C1125 1.398 . S
C1126 C1127 1.391 . S
C1127 H1115 0.950 . S
C1127 C1123 1.393 . S
C1127 C1126 1.391 . S
C1128 H1118 0.950 . S
C1128 C1129 1.386 . S
C1128 C1130 1.391 . S
C1129 C1128 1.386 . S
C1129 C1133 1.393 . S
C1130 H1119 0.950 . S
C1130 C1128 1.391 . S
C1130 C1131 1.400 . S
C1131 C1125 1.491 1_566 S
C1131 C1130 1.400 . S
C1131 C1132 1.398 . S
C1132 H1120 0.950 . S
C1132 C1131 1.398 . S
C1132 C1133 1.391 . S
C1133 H1121 0.950 . S
C1133 C1129 1.393 . S
C1133 C1132 1.391 . S
H1134 C1142 0.950 . S
H1135 C1147 0.950 . S
H1136 C1144 0.950 . S
H1137 C1146 0.950 . S
H1138 C1148 0.950 . S
H1139 C1150 0.950 . S
H1140 C1152 0.950 . S
H1141 C1153 0.950 . S
C1142 H1134 0.950 . S
C1142 C1143 1.386 . S
C1142 C1144 1.391 . S
C1143 C1142 1.386 . S
C1143 C1147 1.393 1_554 S
C1144 H1136 0.950 . S
C1144 C1142 1.391 . S
C1144 C1145 1.400 . S
C1145 C1144 1.400 . S
C1145 C1146 1.398 1_554 S
C1145 C1151 1.491 1_554 S
C1146 H1137 0.950 . S
C1146 C1145 1.398 1_556 S
C1146 C1147 1.391 . S
C1147 H1135 0.950 . S
C1147 C1143 1.393 1_556 S
C1147 C1146 1.391 . S
C1148 H1138 0.950 . S
C1148 C1149 1.386 . S
C1148 C1150 1.391 . S
C1149 C1148 1.386 . S
C1149 C1153 1.393 1_556 S
C1150 H1139 0.950 . S
C1150 C1148 1.391 . S
C1150 C1151 1.400 . S
C1151 C1145 1.491 1_556 S
C1151 C1150 1.400 . S
C1151 C1152 1.398 1_556 S
C1152 H1140 0.950 . S
C1152 C1151 1.398 1_554 S
C1152 C1153 1.391 . S
C1153 H1141 0.950 . S
C1153 C1149 1.393 1_554 S
C1153 C1152 1.391 . S
H1154 C1162 0.950 . S
H1155 C1167 0.950 . S
H1156 C1164 0.950 . S
H1157 C1166 0.950 . S
H1158 C1168 0.950 . S
H1159 C1170 0.950 . S
H1160 C1172 0.950 . S
H1161 C1173 0.950 . S
C1162 H1154 0.950 . S
C1162 C1163 1.386 . S
C1162 C1164 1.391 . S
C1163 C1162 1.386 . S
C1163 C1167 1.393 1_554 S
C1164 H1156 0.950 . S
C1164 C1162 1.391 . S
C1164 C1165 1.400 . S
C1165 C1164 1.400 . S
C1165 C1166 1.398 1_554 S
C1165 C1171 1.491 1_564 S
C1166 H1157 0.950 . S
C1166 C1165 1.398 1_556 S
C1166 C1167 1.391 . S
C1167 H1155 0.950 . S
C1167 C1163 1.393 1_556 S
C1167 C1166 1.391 . S
C1168 H1158 0.950 . S
C1168 C1169 1.386 . S
C1168 C1170 1.391 . S
C1169 C1168 1.386 . S
C1169 C1173 1.393 1_556 S
C1170 H1159 0.950 . S
C1170 C1168 1.391 . S
C1170 C1171 1.400 . S
C1171 C1165 1.491 1_546 S
C1171 C1170 1.400 . S
C1171 C1172 1.398 1_556 S
C1172 H1160 0.950 . S
C1172 C1171 1.398 1_554 S
C1172 C1173 1.391 . S
C1173 H1161 0.950 . S
C1173 C1169 1.393 1_554 S
C1173 C1172 1.391 . S
H1174 C1182 0.950 1_554 S
H1175 C1187 0.950 . S
H1176 C1184 0.950 . S
H1177 C1186 0.950 . S
H1178 C1188 0.950 1_556 S
H1179 C1190 0.950 . S
H1180 C1192 0.950 . S
H1181 C1193 0.950 . S
C1182 H1174 0.950 1_556 S
C1182 C1183 1.386 . S
C1182 C1184 1.391 1_556 S
C1183 C1182 1.386 . S
C1183 C1187 1.393 . S
C1184 H1176 0.950 . S
C1184 C1182 1.391 1_554 S
C1184 C1185 1.400 1_554 S
C1185 C1184 1.400 1_556 S
C1185 C1186 1.398 . S
C1185 C1191 1.491 1_656 S
C1186 H1177 0.950 . S
C1186 C1185 1.398 . S
C1186 C1187 1.391 . S
C1187 H1175 0.950 . S
C1187 C1183 1.393 . S
C1187 C1186 1.391 . S
C1188 H1178 0.950 1_554 S
C1188 C1189 1.386 . S
C1188 C1190 1.391 1_554 S
C1189 C1188 1.386 . S
C1189 C1193 1.393 . S
C1190 H1179 0.950 . S
C1190 C1188 1.391 1_556 S
C1190 C1191 1.400 1_556 S
C1191 C1185 1.491 1_454 S
C1191 C1190 1.400 1_554 S
C1191 C1192 1.398 . S
C1192 H1180 0.950 . S
C1192 C1191 1.398 . S
C1192 C1193 1.391 . S
C1193 H1181 0.950 . S
C1193 C1189 1.393 . S
C1193 C1192 1.391 . S
H1194 C1202 0.950 . S
H1195 C1207 0.950 . S
H1196 C1204 0.950 . S
H1197 C1206 0.950 . S
H1198 C1208 0.950 . S
H1199 C1210 0.950 . S
H1200 C1212 0.950 . S
H1201 C1213 0.950 . S
C1202 H1194 0.950 . S
C1202 C1203 1.386 . S
C1202 C1204 1.391 . S
C1203 C1202 1.386 . S
C1203 C1207 1.393 . S
C1204 H1196 0.950 . S
C1204 C1202 1.391 . S
C1204 C1205 1.400 . S
C1205 C1204 1.400 . S
C1205 C1206 1.398 . S
C1205 C1211 1.491 1_556 S
C1206 H1197 0.950 . S
C1206 C1205 1.398 . S
C1206 C1207 1.391 . S
C1207 H1195 0.950 . S
C1207 C1203 1.393 . S
C1207 C1206 1.391 . S
C1208 H1198 0.950 . S
C1208 C1209 1.386 . S
C1208 C1210 1.391 . S
C1209 C1208 1.386 . S
C1209 C1213 1.393 . S
C1210 H1199 0.950 . S
C1210 C1208 1.391 . S
C1210 C1211 1.400 . S
C1211 C1205 1.491 1_554 S
C1211 C1210 1.400 . S
C1211 C1212 1.398 . S
C1212 H1200 0.950 . S
C1212 C1211 1.398 . S
C1212 C1213 1.391 . S
C1213 H1201 0.950 . S
C1213 C1209 1.393 . S
C1213 C1212 1.391 . S
H1214 C1222 0.950 . S
H1215 C1227 0.950 . S
H1216 C1224 0.950 . S
H1217 C1226 0.950 1_554 S
H1218 C1228 0.950 . S
H1219 C1230 0.950 . S
H1220 C1232 0.950 1_556 S
H1221 C1233 0.950 . S
C1222 H1214 0.950 . S
C1222 C1223 1.386 . S
C1222 C1224 1.391 . S
C1223 C1222 1.386 . S
C1223 C1227 1.393 . S
C1224 H1216 0.950 . S
C1224 C1222 1.391 . S
C1224 C1225 1.400 . S
C1225 C1224 1.400 . S
C1225 C1226 1.398 . S
C1225 C1231 1.491 1_546 S
C1226 H1217 0.950 1_556 S
C1226 C1225 1.398 . S
C1226 C1227 1.391 . S
C1227 H1215 0.950 . S
C1227 C1223 1.393 . S
C1227 C1226 1.391 . S
C1228 H1218 0.950 . S
C1228 C1229 1.386 . S
C1228 C1230 1.391 . S
C1229 C1228 1.386 . S
C1229 C1233 1.393 . S
C1230 H1219 0.950 . S
C1230 C1228 1.391 . S
C1230 C1231 1.400 . S
C1231 C1225 1.491 1_564 S
C1231 C1230 1.400 . S
C1231 C1232 1.398 . S
C1232 H1220 0.950 1_554 S
C1232 C1231 1.398 . S
C1232 C1233 1.391 . S
C1233 H1221 0.950 . S
C1233 C1229 1.393 . S
C1233 C1232 1.391 . S
H1234 C1242 0.950 . S
H1235 C1247 0.950 . S
H1236 C1244 0.950 . S
H1237 C1246 0.950 . S
H1238 C1248 0.950 . S
H1239 C1250 0.950 . S
H1240 C1252 0.950 . S
H1241 C1253 0.950 . S
C1242 H1234 0.950 . S
C1242 C1243 1.386 . S
C1242 C1244 1.391 . S
C1243 C1242 1.386 . S
C1243 C1247 1.393 . S
C1244 H1236 0.950 . S
C1244 C1242 1.391 . S
C1244 C1245 1.400 . S
C1245 C1244 1.400 . S
C1245 C1246 1.398 . S
C1245 C1251 1.491 1_656 S
C1246 H1237 0.950 . S
C1246 C1245 1.398 . S
C1246 C1247 1.391 . S
C1247 H1235 0.950 . S
C1247 C1243 1.393 . S
C1247 C1246 1.391 . S
C1248 H1238 0.950 . S
C1248 C1249 1.386 . S
C1248 C1250 1.391 . S
C1249 C1248 1.386 . S
C1249 C1253 1.393 . S
C1250 H1239 0.950 . S
C1250 C1248 1.391 . S
C1250 C1251 1.400 . S
C1251 C1245 1.491 1_454 S
C1251 C1250 1.400 . S
C1251 C1252 1.398 . S
C1252 H1240 0.950 . S
C1252 C1251 1.398 . S
C1252 C1253 1.391 . S
C1253 H1241 0.950 . S
C1253 C1249 1.393 . S
C1253 C1252 1.391 . S
H1254 C1262 0.950 . S
H1255 C1267 0.950 . S
H1256 C1264 0.950 . S
H1257 C1266 0.950 . S
H1258 C1268 0.950 . S
H1259 C1270 0.950 . S
H1260 C1272 0.950 . S
H1261 C1273 0.950 . S
C1262 H1254 0.950 . S
C1262 C1263 1.386 . S
C1262 C1264 1.391 . S
C1263 C1262 1.386 . S
C1263 C1267 1.393 . S
C1264 H1256 0.950 . S
C1264 C1262 1.391 . S
C1264 C1265 1.400 . S
C1265 C1264 1.400 . S
C1265 C1266 1.398 . S
C1265 C1271 1.491 . S
C1266 H1257 0.950 . S
C1266 C1265 1.398 . S
C1266 C1267 1.391 . S
C1267 H1255 0.950 . S
C1267 C1263 1.393 . S
C1267 C1266 1.391 . S
C1268 H1258 0.950 . S
C1268 C1269 1.386 . S
C1268 C1270 1.391 . S
C1269 C1268 1.386 . S
C1269 C1273 1.393 . S
C1270 H1259 0.950 . S
C1270 C1268 1.391 . S
C1270 C1271 1.400 . S
C1271 C1265 1.491 . S
C1271 C1270 1.400 . S
C1271 C1272 1.398 . S
C1272 H1260 0.950 . S
C1272 C1271 1.398 . S
C1272 C1273 1.391 . S
C1273 H1261 0.950 . S
C1273 C1269 1.393 . S
C1273 C1272 1.391 . S
H1274 C1282 0.950 . S
H1275 C1287 0.950 . S
H1276 C1284 0.950 . S
H1277 C1286 0.950 . S
H1278 C1288 0.950 . S
H1279 C1290 0.950 . S
H1280 C1292 0.950 . S
H1281 C1293 0.950 . S
C1282 H1274 0.950 . S
C1282 C1283 1.386 . S
C1282 C1284 1.391 . S
C1283 C1282 1.386 . S
C1283 C1287 1.393 . S
C1284 H1276 0.950 . S
C1284 C1282 1.391 . S
C1284 C1285 1.400 . S
C1285 C1284 1.400 . S
C1285 C1286 1.398 . S
C1285 C1291 1.491 . S
C1286 H1277 0.950 . S
C1286 C1285 1.398 . S
C1286 C1287 1.391 . S
C1287 H1275 0.950 . S
C1287 C1283 1.393 . S
C1287 C1286 1.391 . S
C1288 H1278 0.950 . S
C1288 C1289 1.386 . S
C1288 C1290 1.391 . S
C1289 C1288 1.386 . S
C1289 C1293 1.393 . S
C1290 H1279 0.950 . S
C1290 C1288 1.391 . S
C1290 C1291 1.400 . S
C1291 C1285 1.491 . S
C1291 C1290 1.400 . S
C1291 C1292 1.398 . S
C1292 H1280 0.950 . S
C1292 C1291 1.398 . S
C1292 C1293 1.391 . S
C1293 H1281 0.950 . S
C1293 C1289 1.393 . S
C1293 C1292 1.391 . S
H1294 C1302 0.950 . S
H1295 C1307 0.950 . S
H1296 C1304 0.950 . S
H1297 C1306 0.950 . S
H1298 C1308 0.950 . S
H1299 C1310 0.950 . S
H1300 C1312 0.950 . S
H1301 C1313 0.950 . S
C1302 H1294 0.950 . S
C1302 C1303 1.386 . S
C1302 C1304 1.391 . S
C1303 C1302 1.386 . S
C1303 C1307 1.393 . S
C1304 H1296 0.950 . S
C1304 C1302 1.391 . S
C1304 C1305 1.400 . S
C1305 C1304 1.400 . S
C1305 C1306 1.398 . S
C1305 C1311 1.491 . S
C1306 H1297 0.950 . S
C1306 C1305 1.398 . S
C1306 C1307 1.391 . S
C1307 H1295 0.950 . S
C1307 C1303 1.393 . S
C1307 C1306 1.391 . S
C1308 H1298 0.950 . S
C1308 C1309 1.386 . S
C1308 C1310 1.391 . S
C1309 C1308 1.386 . S
C1309 C1313 1.393 . S
C1310 H1299 0.950 . S
C1310 C1308 1.391 . S
C1310 C1311 1.400 . S
C1311 C1305 1.491 . S
C1311 C1310 1.400 . S
C1311 C1312 1.398 . S
C1312 H1300 0.950 . S
C1312 C1311 1.398 . S
C1312 C1313 1.391 . S
C1313 H1301 0.950 . S
C1313 C1309 1.393 . S
C1313 C1312 1.391 . S
H1314 C1322 0.950 . S
H1315 C1327 0.950 . S
H1316 C1324 0.950 . S
H1317 C1326 0.950 . S
H1318 C1328 0.950 . S
H1319 C1330 0.950 . S
H1320 C1332 0.950 . S
H1321 C1333 0.950 . S
C1322 H1314 0.950 . S
C1322 C1323 1.386 . S
C1322 C1324 1.391 . S
C1323 C1322 1.386 . S
C1323 C1327 1.393 . S
C1324 H1316 0.950 . S
C1324 C1322 1.391 . S
C1324 C1325 1.400 . S
C1325 C1324 1.400 . S
C1325 C1326 1.398 . S
C1325 C1331 1.491 . S
C1326 H1317 0.950 . S
C1326 C1325 1.398 . S
C1326 C1327 1.391 . S
C1327 H1315 0.950 . S
C1327 C1323 1.393 . S
C1327 C1326 1.391 . S
C1328 H1318 0.950 . S
C1328 C1329 1.386 . S
C1328 C1330 1.391 . S
C1329 C1328 1.386 . S
C1329 C1333 1.393 . S
C1330 H1319 0.950 . S
C1330 C1328 1.391 . S
C1330 C1331 1.400 . S
C1331 C1325 1.491 . S
C1331 C1330 1.400 . S
C1331 C1332 1.398 . S
C1332 H1320 0.950 . S
C1332 C1331 1.398 . S
C1332 C1333 1.391 . S
C1333 H1321 0.950 . S
C1333 C1329 1.393 . S
C1333 C1332 1.391 . S
H1334 C1342 0.950 . S
H1335 C1347 0.950 . S
H1336 C1344 0.950 . S
H1337 C1346 0.950 . S
H1338 C1348 0.950 . S
H1339 C1350 0.950 . S
H1340 C1352 0.950 . S
H1341 C1353 0.950 . S
C1342 H1334 0.950 . S
C1342 C1343 1.386 . S
C1342 C1344 1.391 . S
C1343 C1342 1.386 . S
C1343 C1347 1.393 . S
C1344 H1336 0.950 . S
C1344 C1342 1.391 . S
C1344 C1345 1.400 . S
C1345 C1344 1.400 . S
C1345 C1346 1.398 . S
C1345 C1351 1.491 . S
C1346 H1337 0.950 . S
C1346 C1345 1.398 . S
C1346 C1347 1.391 . S
C1347 H1335 0.950 . S
C1347 C1343 1.393 . S
C1347 C1346 1.391 . S
C1348 H1338 0.950 . S
C1348 C1349 1.386 . S
C1348 C1350 1.391 . S
C1349 C1348 1.386 . S
C1349 C1353 1.393 . S
C1350 H1339 0.950 . S
C1350 C1348 1.391 . S
C1350 C1351 1.400 . S
C1351 C1345 1.491 . S
C1351 C1350 1.400 . S
C1351 C1352 1.398 . S
C1352 H1340 0.950 . S
C1352 C1351 1.398 . S
C1352 C1353 1.391 . S
C1353 H1341 0.950 . S
C1353 C1349 1.393 . S
C1353 C1352 1.391 . S
H1354 C1362 0.950 . S
H1355 C1367 0.950 . S
H1356 C1364 0.950 . S
H1357 C1366 0.950 . S
H1358 C1368 0.950 . S
H1359 C1370 0.950 . S
H1360 C1372 0.950 . S
H1361 C1373 0.950 . S
C1362 H1354 0.950 . S
C1362 C1363 1.386 . S
C1362 C1364 1.391 . S
C1363 C1362 1.386 . S
C1363 C1367 1.393 . S
C1364 H1356 0.950 . S
C1364 C1362 1.391 . S
C1364 C1365 1.400 . S
C1365 C1364 1.400 . S
C1365 C1366 1.398 . S
C1365 C1371 1.491 . S
C1366 H1357 0.950 . S
C1366 C1365 1.398 . S
C1366 C1367 1.391 . S
C1367 H1355 0.950 . S
C1367 C1363 1.393 . S
C1367 C1366 1.391 . S
C1368 H1358 0.950 . S
C1368 C1369 1.386 . S
C1368 C1370 1.391 . S
C1369 C1368 1.386 . S
C1369 C1373 1.393 . S
C1370 H1359 0.950 . S
C1370 C1368 1.391 . S
C1370 C1371 1.400 . S
C1371 C1365 1.491 . S
C1371 C1370 1.400 . S
C1371 C1372 1.398 . S
C1372 H1360 0.950 . S
C1372 C1371 1.398 . S
C1372 C1373 1.391 . S
C1373 H1361 0.950 . S
C1373 C1369 1.393 . S
C1373 C1372 1.391 . S
H1374 C1382 0.950 . S
H1375 C1387 0.950 . S
H1376 C1384 0.950 . S
H1377 C1386 0.950 . S
H1378 C1388 0.950 . S
H1379 C1390 0.950 . S
H1380 C1392 0.950 . S
H1381 C1393 0.950 . S
C1382 H1374 0.950 . S
C1382 C1383 1.386 . S
C1382 C1384 1.391 . S
C1383 C1382 1.386 . S
C1383 C1387 1.393 . S
C1384 H1376 0.950 . S
C1384 C1382 1.391 . S
C1384 C1385 1.400 . S
C1385 C1384 1.400 . S
C1385 C1386 1.398 . S
C1385 C1391 1.491 . S
C1386 H1377 0.950 . S
C1386 C1385 1.398 . S
C1386 C1387 1.391 . S
C1387 H1375 0.950 . S
C1387 C1383 1.393 . S
C1387 C1386 1.391 . S
C1388 H1378 0.950 . S
C1388 C1389 1.386 . S
C1388 C1390 1.391 . S
C1389 C1388 1.386 . S
C1389 C1393 1.393 . S
C1390 H1379 0.950 . S
C1390 C1388 1.391 . S
C1390 C1391 1.400 . S
C1391 C1385 1.491 . S
C1391 C1390 1.400 . S
C1391 C1392 1.398 . S
C1392 H1380 0.950 . S
C1392 C1391 1.398 . S
C1392 C1393 1.391 . S
C1393 H1381 0.950 . S
C1393 C1389 1.393 . S
C1393 C1392 1.391 . S
H1394 C1402 0.950 . S
H1395 C1407 0.950 . S
H1396 C1404 0.950 . S
H1397 C1406 0.950 . S
H1398 C1408 0.950 . S
H1399 C1410 0.950 . S
H1400 C1412 0.950 . S
H1401 C1413 0.950 . S
C1402 H1394 0.950 . S
C1402 C1403 1.386 . S
C1402 C1404 1.391 . S
C1403 C1402 1.386 . S
C1403 C1407 1.393 . S
C1404 H1396 0.950 . S
C1404 C1402 1.391 . S
C1404 C1405 1.400 . S
C1405 C1404 1.400 . S
C1405 C1406 1.398 . S
C1405 C1411 1.491 . S
C1406 H1397 0.950 . S
C1406 C1405 1.398 . S
C1406 C1407 1.391 . S
C1407 H1395 0.950 . S
C1407 C1403 1.393 . S
C1407 C1406 1.391 . S
C1408 H1398 0.950 . S
C1408 C1409 1.386 . S
C1408 C1410 1.391 . S
C1409 C1408 1.386 . S
C1409 C1413 1.393 . S
C1410 H1399 0.950 . S
C1410 C1408 1.391 . S
C1410 C1411 1.400 . S
C1411 C1405 1.491 . S
C1411 C1410 1.400 . S
C1411 C1412 1.398 . S
C1412 H1400 0.950 . S
C1412 C1411 1.398 . S
C1412 C1413 1.391 . S
C1413 H1401 0.950 . S
C1413 C1409 1.393 . S
C1413 C1412 1.391 . S
H1414 C1422 0.950 . S
H1415 C1427 0.950 . S
H1416 C1424 0.950 . S
H1417 C1426 0.950 . S
H1418 C1428 0.950 . S
H1419 C1430 0.950 . S
H1420 C1432 0.950 . S
H1421 C1433 0.950 . S
C1422 H1414 0.950 . S
C1422 C1423 1.386 . S
C1422 C1424 1.391 . S
C1423 C1422 1.386 . S
C1423 C1427 1.393 . S
C1424 H1416 0.950 . S
C1424 C1422 1.391 . S
C1424 C1425 1.400 . S
C1425 C1424 1.400 . S
C1425 C1426 1.398 . S
C1425 C1431 1.491 . S
C1426 H1417 0.950 . S
C1426 C1425 1.398 . S
C1426 C1427 1.391 . S
C1427 H1415 0.950 . S
C1427 C1423 1.393 . S
C1427 C1426 1.391 . S
C1428 H1418 0.950 . S
C1428 C1429 1.386 . S
C1428 C1430 1.391 . S
C1429 C1428 1.386 . S
C1429 C1433 1.393 . S
C1430 H1419 0.950 . S
C1430 C1428 1.391 . S
C1430 C1431 1.400 . S
C1431 C1425 1.491 . S
C1431 C1430 1.400 . S
C1431 C1432 1.398 . S
C1432 H1420 0.950 . S
C1432 C1431 1.398 . S
C1432 C1433 1.391 . S
C1433 H1421 0.950 . S
C1433 C1429 1.393 . S
C1433 C1432 1.391 . S
H1434 C1442 0.950 . S
H1435 C1447 0.950 . S
H1436 C1444 0.950 . S
H1437 C1446 0.950 . S
H1438 C1448 0.950 . S
H1439 C1450 0.950 . S
H1440 C1452 0.950 . S
H1441 C1453 0.950 . S
C1442 H1434 0.950 . S
C1442 C1443 1.386 . S
C1442 C1444 1.391 . S
C1443 C1442 1.386 . S
C1443 C1447 1.393 . S
C1444 H1436 0.950 . S
C1444 C1442 1.391 . S
C1444 C1445 1.400 . S
C1445 C1444 1.400 . S
C1445 C1446 1.398 . S
C1445 C1451 1.491 . S
C1446 H1437 0.950 . S
C1446 C1445 1.398 . S
C1446 C1447 1.391 . S
C1447 H1435 0.950 . S
C1447 C1443 1.393 . S
C1447 C1446 1.391 . S
C1448 H1438 0.950 . S
C1448 C1449 1.386 . S
C1448 C1450 1.391 . S
C1449 C1448 1.386 . S
C1449 C1453 1.393 . S
C1450 H1439 0.950 . S
C1450 C1448 1.391 . S
C1450 C1451 1.400 . S
C1451 C1445 1.491 . S
C1451 C1450 1.400 . S
C1451 C1452 1.398 . S
C1452 H1440 0.950 . S
C1452 C1451 1.398 . S
C1452 C1453 1.391 . S
C1453 H1441 0.950 . S
C1453 C1449 1.393 . S
C1453 C1452 1.391 . S
H1454 C1462 0.950 . S
H1455 C1467 0.950 . S
H1456 C1464 0.950 . S
H1457 C1466 0.950 . S
H1458 C1468 0.950 . S
H1459 C1470 0.950 . S
H1460 C1472 0.950 . S
H1461 C1473 0.950 . S
C1462 H1454 0.950 . S
C1462 C1463 1.386 . S
C1462 C1464 1.391 . S
C1463 C1462 1.386 . S
C1463 C1467 1.393 . S
C1464 H1456 0.950 . S
C1464 C1462 1.391 . S
C1464 C1465 1.400 . S
C1465 C1464 1.400 . S
C1465 C1466 1.398 . S
C1465 C1471 1.491 . S
C1466 H1457 0.950 . S
C1466 C1465 1.398 . S
C1466 C1467 1.391 . S
C1467 H1455 0.950 . S
C1467 C1463 1.393 . S
C1467 C1466 1.391 . S
C1468 H1458 0.950 . S
C1468 C1469 1.386 . S
C1468 C1470 1.391 . S
C1469 C1468 1.386 . S
C1469 C1473 1.393 . S
C1470 H1459 0.950 . S
C1470 C1468 1.391 . S
C1470 C1471 1.400 . S
C1471 C1465 1.491 . S
C1471 C1470 1.400 . S
C1471 C1472 1.398 . S
C1472 H1460 0.950 . S
C1472 C1471 1.398 . S
C1472 C1473 1.391 . S
C1473 H1461 0.950 . S
C1473 C1469 1.393 . S
C1473 C1472 1.391 . S
H1474 C1482 0.950 . S
H1475 C1487 0.950 . S
H1476 C1484 0.950 . S
H1477 C1486 0.950 . S
H1478 C1488 0.950 . S
H1479 C1490 0.950 . S
H1480 C1492 0.950 . S
H1481 C1493 0.950 . S
C1482 H1474 0.950 . S
C1482 C1483 1.386 . S
C1482 C1484 1.391 . S
C1483 C1482 1.386 . S
C1483 C1487 1.393 . S
C1484 H1476 0.950 . S
C1484 C1482 1.391 . S
C1484 C1485 1.400 . S
C1485 C1484 1.400 . S
C1485 C1486 1.398 . S
C1485 C1491 1.491 . S
C1486 H1477 0.950 . S
C1486 C1485 1.398 . S
C1486 C1487 1.391 . S
C1487 H1475 0.950 . S
C1487 C1483 1.393 . S
C1487 C1486 1.391 . S
C1488 H1478 0.950 . S
C1488 C1489 1.386 . S
C1488 C1490 1.391 . S
C1489 C1488 1.386 . S
C1489 C1493 1.393 . S
C1490 H1479 0.950 . S
C1490 C1488 1.391 . S
C1490 C1491 1.400 . S
C1491 C1485 1.491 . S
C1491 C1490 1.400 . S
C1491 C1492 1.398 . S
C1492 H1480 0.950 . S
C1492 C1491 1.398 . S
C1492 C1493 1.391 . S
C1493 H1481 0.950 . S
C1493 C1489 1.393 . S
C1493 C1492 1.391 . S
C603 N14 1.103 . S
C609 N5 1.104 . S
C623 N47 1.093 . S
C629 N38 1.094 . S
C643 N71 1.101 . S
C649 N80 1.099 . S
C663 N113 1.103 . S
C669 N104 1.102 . S
C683 N146 1.098 . S
C689 N137 1.097 . S
C703 N170 1.094 . S
C709 N179 1.093 . S
C723 N203 1.096 . S
C729 N212 1.094 . S
C743 N236 1.095 . S
C749 N245 1.096 . S
C763 N278 1.094 . S
C769 N269 1.096 . S
C783 N311 1.103 . S
C789 N302 1.102 . S
C803 N344 1.093 . S
C809 N335 1.094 . S
C823 N368 1.094 . S
C829 N377 1.093 . S
C843 N401 1.096 . S
C849 N410 1.094 . S
C863 N434 1.096 . S
C869 N443 1.097 . S
C883 N467 1.095 . S
C889 N476 1.095 . S
C903 N509 1.097 . S
C909 N500 1.100 . S
C923 N542 1.094 . S
C929 N533 1.094 . S
C943 N566 1.101 . S
C949 N575 1.102 . S
C963 C569 1.508 . S
C969 C8 1.510 . S
C983 C41 1.504 . S
C989 C503 1.505 . S
C1003 C536 1.509 . S
C1009 C74 1.507 . S
C1023 C239 1.507 . S
C1029 C107 1.510 . S
C1043 C140 1.516 . S
C1049 C272 1.514 . S
C1063 C173 1.517 . S
C1069 C206 1.519 . S
C1083 C305 1.513 . S
C1089 C437 1.510 . S
C1103 C470 1.515 . S
C1109 C338 1.513 . S
C1123 C371 1.501 . S
C1129 C404 1.501 . S
C1143 C28 1.565 . S
C1149 C127 1.564 . S
C1163 C61 1.566 . S
C1169 C160 1.565 . S
C1183 C193 1.564 . S
C1189 C94 1.565 . S
C1203 C182 1.592 . S
C1209 C50 1.592 . S
C1223 C116 1.605 . S
C1229 C83 1.604 . S
C1243 C149 1.592 . S
C1249 C17 1.592 . S
C1263 C325 1.565 . S
C1269 C226 1.564 . S
C1283 C358 1.565 . S
C1289 C259 1.566 . S
C1303 C292 1.566 . S
C1309 C391 1.566 . S
C1323 C380 1.597 . S
C1329 C248 1.596 . S
C1343 C281 1.594 . S
C1349 C314 1.595 . S
C1363 C215 1.605 . S
C1369 C347 1.605 . S
C1383 C523 1.566 . S
C1389 C424 1.566 . S
C1403 C556 1.564 . S
C1409 C457 1.565 . S
C1423 C589 1.566 . S
C1429 C490 1.565 . S
C1443 C446 1.594 . S
C1449 C578 1.594 . S
C1463 C479 1.599 . S
C1469 C512 1.598 . S
C1483 C545 1.601 . S
C1489 C413 1.601 . S
