# Generated by pormake.
# Topology wkj, (6)-cn, num edge types: 1
# Building blocks:
#     Node 0, Type 0, BuildingBlock: BETFEN_clean_sbu_0, # of connection points: 6
#     Node 1, Type 0, BuildingBlock: BETFEN_clean_sbu_0, # of connection points: 6
#     Node 2, Type 0, BuildingBlock: BETFEN_clean_sbu_0, # of connection points: 6
#     Node 3, Type 0, BuildingBlock: BETFEN_clean_sbu_0, # of connection points: 6
#     Node 4, Type 0, BuildingBlock: BETFEN_clean_sbu_0, # of connection points: 6
#     Node 5, Type 0, BuildingBlock: BETFEN_clean_sbu_0, # of connection points: 6
#     Node 6, Type 0, BuildingBlock: BETFEN_clean_sbu_0, # of connection points: 6
#     Node 7, Type 0, BuildingBlock: BETFEN_clean_sbu_0, # of connection points: 6
#     Node 8, Type 0, BuildingBlock: BETFEN_clean_sbu_0, # of connection points: 6
#     Node 9, Type 0, BuildingBlock: BETFEN_clean_sbu_0, # of connection points: 6
#     Node 10, Type 0, BuildingBlock: BETFEN_clean_sbu_0, # of connection points: 6
#     Node 11, Type 0, BuildingBlock: BETFEN_clean_sbu_0, # of connection points: 6
#     Edge 12, Type (0, 0), BuildingBlock: KIFKEQ_clean_linker_1, # of connection points: 2
#     Edge 13, Type (0, 0), BuildingBlock: KIFKEQ_clean_linker_1, # of connection points: 2
#     Edge 14, Type (0, 0), BuildingBlock: KIFKEQ_clean_linker_1, # of connection points: 2
#     Edge 15, Type (0, 0), BuildingBlock: KIFKEQ_clean_linker_1, # of connection points: 2
#     Edge 16, Type (0, 0), BuildingBlock: KIFKEQ_clean_linker_1, # of connection points: 2
#     Edge 17, Type (0, 0), BuildingBlock: KIFKEQ_clean_linker_1, # of connection points: 2
#     Edge 18, Type (0, 0), BuildingBlock: KIFKEQ_clean_linker_1, # of connection points: 2
#     Edge 19, Type (0, 0), BuildingBlock: KIFKEQ_clean_linker_1, # of connection points: 2
#     Edge 20, Type (0, 0), BuildingBlock: KIFKEQ_clean_linker_1, # of connection points: 2
#     Edge 21, Type (0, 0), BuildingBlock: KIFKEQ_clean_linker_1, # of connection points: 2
#     Edge 22, Type (0, 0), BuildingBlock: KIFKEQ_clean_linker_1, # of connection points: 2
#     Edge 23, Type (0, 0), BuildingBlock: KIFKEQ_clean_linker_1, # of connection points: 2
#     Edge 24, Type (0, 0), BuildingBlock: KIFKEQ_clean_linker_1, # of connection points: 2
#     Edge 25, Type (0, 0), BuildingBlock: KIFKEQ_clean_linker_1, # of connection points: 2
#     Edge 26, Type (0, 0), BuildingBlock: KIFKEQ_clean_linker_1, # of connection points: 2
#     Edge 27, Type (0, 0), BuildingBlock: KIFKEQ_clean_linker_1, # of connection points: 2
#     Edge 28, Type (0, 0), BuildingBlock: KIFKEQ_clean_linker_1, # of connection points: 2
#     Edge 29, Type (0, 0), BuildingBlock: KIFKEQ_clean_linker_1, # of connection points: 2
#     Edge 30, Type (0, 0), BuildingBlock: KIFKEQ_clean_linker_1, # of connection points: 2
#     Edge 31, Type (0, 0), BuildingBlock: KIFKEQ_clean_linker_1, # of connection points: 2
#     Edge 32, Type (0, 0), BuildingBlock: KIFKEQ_clean_linker_1, # of connection points: 2
#     Edge 33, Type (0, 0), BuildingBlock: KIFKEQ_clean_linker_1, # of connection points: 2
#     Edge 34, Type (0, 0), BuildingBlock: KIFKEQ_clean_linker_1, # of connection points: 2
#     Edge 35, Type (0, 0), BuildingBlock: KIFKEQ_clean_linker_1, # of connection points: 2
#     Edge 36, Type (0, 0), BuildingBlock: KIFKEQ_clean_linker_1, # of connection points: 2
#     Edge 37, Type (0, 0), BuildingBlock: KIFKEQ_clean_linker_1, # of connection points: 2
#     Edge 38, Type (0, 0), BuildingBlock: KIFKEQ_clean_linker_1, # of connection points: 2
#     Edge 39, Type (0, 0), BuildingBlock: KIFKEQ_clean_linker_1, # of connection points: 2
#     Edge 40, Type (0, 0), BuildingBlock: KIFKEQ_clean_linker_1, # of connection points: 2
#     Edge 41, Type (0, 0), BuildingBlock: KIFKEQ_clean_linker_1, # of connection points: 2
#     Edge 42, Type (0, 0), BuildingBlock: KIFKEQ_clean_linker_1, # of connection points: 2
#     Edge 43, Type (0, 0), BuildingBlock: KIFKEQ_clean_linker_1, # of connection points: 2
#     Edge 44, Type (0, 0), BuildingBlock: KIFKEQ_clean_linker_1, # of connection points: 2
#     Edge 45, Type (0, 0), BuildingBlock: KIFKEQ_clean_linker_1, # of connection points: 2
#     Edge 46, Type (0, 0), BuildingBlock: KIFKEQ_clean_linker_1, # of connection points: 2
#     Edge 47, Type (0, 0), BuildingBlock: KIFKEQ_clean_linker_1, # of connection points: 2
# Relax obj value: 0.755
# Max RMSD: 0.175
# Mean RMSD: 0.175
data_MOF--net-wkj--node1-BETFEN_clean_sbu_0--edge1-KIFKEQ_clean_linker_1
_symmetry_space_group_name_H-M    P1
_symmetry_Int_Tables_number       1
_symmetry_cell_setting            triclinic
loop_
_symmetry_equiv_pos_as_xyz
'x, y, z'
_cell_length_a     49.881914
_cell_length_b     50.008321
_cell_length_c     31.557804
_cell_angle_alpha  90.100465
_cell_angle_beta   89.706885
_cell_angle_gamma 119.84516
loop_
_atom_site_label
_atom_site_type_symbol
_atom_site_fract_x
_atom_site_fract_y
_atom_site_fract_z
_atom_type_partial_charge
Pr0 Pr 0.43876 0.0743 0.35406 0.0
Pr1 Pr 0.49183 0.0786 0.33919 0.0
C2 C 0.3792 0.05939 0.36629 0.0
C3 C 0.35994 0.05392 0.40396 0.0
C4 C 0.32784 0.04082 0.40047 0.0
C5 C 0.30951 0.03386 0.43699 0.0
C6 C 0.32317 0.04001 0.47736 0.0
C7 C 0.35553 0.05405 0.48033 0.0
C8 C 0.3737 0.06091 0.444 0.0
C9 C 0.4762 0.13552 0.32667 0.0
C10 C 0.48564 0.09028 0.44474 0.0
C11 C 0.55348 0.10554 0.32886 0.0
C12 C 0.5745 0.12929 0.2991 0.0
C13 C 0.56277 0.1336 0.26109 0.0
C14 C 0.58042 0.1598 0.23663 0.0
C15 C 0.61005 0.18242 0.24989 0.0
C16 C 0.62236 0.17743 0.28704 0.0
C17 C 0.60456 0.15106 0.31168 0.0
C18 C 0.45079 0.02164 0.38002 0.0
C19 C 0.44736 0.04073 0.25834 0.0
O20 O 0.38771 0.03901 0.35895 0.0
O21 O 0.40178 0.08755 0.36155 0.0
O22 O 0.47519 0.11197 0.30844 0.0
O23 O 0.46177 0.12732 0.36263 0.0
O24 O 0.50464 0.09128 0.41427 0.0
O25 O 0.45721 0.08298 0.43056 0.0
O26 O 0.54027 0.11539 0.35552 0.0
O27 O 0.53425 0.07843 0.31305 0.0
O28 O 0.45583 0.0479 0.38927 0.0
O29 O 0.46851 0.02382 0.34819 0.0
O30 O 0.42804 0.04433 0.28491 0.0
O31 O 0.47638 0.05419 0.2711 0.0
H32 H 0.31694 0.03537 0.36963 0.0
H33 H 0.28467 0.02308 0.43371 0.0
H34 H 0.36684 0.0584 0.51081 0.0
H35 H 0.39847 0.07093 0.44722 0.0
H36 H 0.53943 0.11735 0.25119 0.0
H37 H 0.5706 0.16262 0.20759 0.0
H38 H 0.64516 0.19442 0.29785 0.0
H39 H 0.6137 0.14833 0.34141 0.0
Pr40 Pr 0.37621 0.46151 0.68205 0.0
Pr41 Pr 0.42215 0.51804 0.67029 0.0
C42 C 0.33139 0.4045 0.70617 0.0
C43 C 0.31716 0.38847 0.74579 0.0
C44 C 0.29266 0.35798 0.74509 0.0
C45 C 0.27991 0.34227 0.78308 0.0
C46 C 0.29148 0.357 0.82216 0.0
C47 C 0.3156 0.38788 0.8224 0.0
C48 C 0.32829 0.40344 0.78457 0.0
C49 C 0.35189 0.49444 0.63905 0.0
C50 C 0.40394 0.51131 0.77215 0.0
C51 C 0.45232 0.57599 0.64035 0.0
C52 C 0.43783 0.59471 0.63143 0.0
C53 C 0.44807 0.61517 0.59712 0.0
C54 C 0.4286 0.62482 0.57958 0.0
C55 C 0.39851 0.61366 0.59579 0.0
C56 C 0.38974 0.59593 0.63298 0.0
C57 C 0.40928 0.58655 0.6507 0.0
C58 C 0.44333 0.48376 0.71577 0.0
C59 C 0.41876 0.46962 0.59074 0.0
O60 O 0.36015 0.41196 0.70029 0.0
O61 O 0.32611 0.4266 0.69579 0.0
O62 O 0.36929 0.50396 0.67162 0.0
O63 O 0.35135 0.46993 0.62436 0.0
O64 O 0.42072 0.53193 0.74299 0.0
O65 O 0.3846 0.48276 0.7569 0.0
O66 O 0.45327 0.56949 0.6801 0.0
O67 O 0.44276 0.5519 0.6159 0.0
O68 O 0.42622 0.47402 0.68373 0.0
O69 O 0.45271 0.5127 0.72156 0.0
O70 O 0.39609 0.44933 0.61621 0.0
O71 O 0.43245 0.49879 0.60387 0.0
H72 H 0.28377 0.34621 0.71523 0.0
H73 H 0.26135 0.31855 0.78191 0.0
H74 H 0.32563 0.39973 0.85186 0.0
H75 H 0.34726 0.42694 0.78563 0.0
H76 H 0.46981 0.62138 0.58155 0.0
H77 H 0.43582 0.6382 0.55058 0.0
H78 H 0.36669 0.58698 0.64599 0.0
H79 H 0.40077 0.57049 0.67703 0.0
Pr80 Pr 0.90026 0.36113 1.02258 0.0
Pr81 Pr 0.89866 0.41088 1.00591 0.0
C82 C 0.9136 0.31546 1.03414 0.0
C83 C 0.92455 0.30431 1.06909 0.0
C84 C 0.93784 0.28585 1.06091 0.0
C85 C 0.94973 0.27653 1.09419 0.0
C86 C 0.94824 0.28545 0.136 0.0
C87 C 0.93433 0.30349 0.14394 0.0
C88 C 0.92268 0.31292 1.11075 0.0
C89 C 0.83883 0.33884 0.99692 0.0
C90 C 0.88827 0.39662 1.11157 0.0
C91 C 0.87431 0.44782 0.99482 0.0
C92 C 0.84234 0.43865 0.98318 0.0
C93 C 0.83665 0.45522 0.95227 0.0
C94 C 0.80768 0.44223 0.93298 0.0
C95 C 0.78411 0.41237 0.94418 0.0
C96 C 0.78892 0.39738 0.97839 0.0
C97 C 0.81785 0.4103 0.99754 0.0
C98 C 0.95617 0.42436 1.04297 0.0
C99 C 0.93482 0.40082 0.92583 0.0
O100 O 0.93341 0.34252 1.01904 0.0
O101 O 0.88602 0.31182 1.03878 0.0
O102 O 0.86254 0.36067 0.97805 0.0
O103 O 0.8471 0.33278 1.03275 0.0
O104 O 0.88464 0.41202 1.08 0.0
O105 O 0.89626 0.37569 1.09862 0.0
O106 O 0.87772 0.43862 1.03193 0.0
O107 O 0.89043 0.44369 0.9655 0.0
O108 O 0.92965 0.40509 1.0545 0.0
O109 O 0.9542 0.43993 1.01124 0.0
O110 O 0.92854 0.37695 0.95185 0.0
O111 O 0.92484 0.4193 0.93941 0.0
H112 H 0.93947 0.27912 1.02877 0.0
H113 H 0.96042 0.26273 1.08723 0.0
H114 H 0.93352 0.31139 0.17566 0.0
H115 H 0.91276 0.32745 0.11752 0.0
H116 H 0.85525 0.47702 0.94067 0.0
H117 H 0.80487 0.45427 0.90639 0.0
H118 H 0.77119 0.37446 0.98781 0.0
H119 H 0.82164 0.39693 1.02131 0.0
Pr120 Pr 0.52106 0.90807 0.34991 0.0
Pr121 Pr 0.47002 0.90704 0.33819 0.0
C122 C 0.58061 0.92169 0.35638 0.0
C123 C 0.60524 0.9341 0.38854 0.0
C124 C 0.61449 0.91457 0.4074 0.0
C125 C 0.63474 0.92479 0.44173 0.0
C126 C 0.64634 0.95483 0.45742 0.0
C127 C 0.63885 0.97504 0.4365 0.0
C128 C 0.61845 0.96477 0.40245 0.0
C129 C 0.48072 0.84626 0.32787 0.0
C130 C 0.47651 0.89515 0.44216 0.0
C131 C 0.40878 0.88289 0.3277 0.0
C132 C 0.38664 0.85086 0.31582 0.0
C133 C 0.36558 0.845 0.28304 0.0
C134 C 0.35192 0.81663 0.26202 0.0
C135 C 0.35938 0.79389 0.27337 0.0
C136 C 0.37759 0.79856 0.3094 0.0
C137 C 0.39123 0.82686 0.33033 0.0
C138 C 0.51443 0.9641 0.37555 0.0
C139 C 0.51383 0.94547 0.25763 0.0
O140 O 0.57232 0.94054 0.34045 0.0
O141 O 0.55713 0.89441 0.36392 0.0
O142 O 0.48205 0.86958 0.30852 0.0
O143 O 0.49713 0.85534 0.3619 0.0
O144 O 0.45659 0.89216 0.41225 0.0
O145 O 0.50507 0.90349 0.42719 0.0
O146 O 0.42145 0.8868 0.3649 0.0
O147 O 0.42891 0.89882 0.29827 0.0
O148 O 0.50806 0.93762 0.38589 0.0
O149 O 0.49605 0.9622 0.34508 0.0
O150 O 0.53062 0.93544 0.27884 0.0
O151 O 0.48705 0.93808 0.27533 0.0
H152 H 0.60498 0.89096 0.3968 0.0
H153 H 0.64026 0.90882 0.45719 0.0
H154 H 0.6471 -0.0018 0.44823 0.0
H155 H 0.61202 0.9805 0.38837 0.0
H156 H 0.36193 0.86325 0.27116 0.0
H157 H 0.3382 0.81384 0.23413 0.0
H158 H 0.38357 0.7814 0.31898 0.0
H159 H 0.40755 0.83078 0.3554 0.0
Pr160 Pr 0.61439 0.52809 0.67922 0.0
Pr161 Pr 0.567 0.47312 0.668 0.0
C162 C 0.66062 0.58404 0.70388 0.0
C163 C 0.67289 0.60037 0.74381 0.0
C164 C 0.69845 0.63027 0.74378 0.0
C165 C 0.70972 0.64608 0.78199 0.0
C166 C 0.69559 0.63202 0.82061 0.0
C167 C 0.67029 0.60178 0.82026 0.0
C168 C 0.65906 0.58613 0.7822 0.0
C169 C 0.63772 0.49563 0.63287 0.0
C170 C 0.58442 0.47921 0.77056 0.0
C171 C 0.53088 0.41451 0.64165 0.0
C172 C 0.53693 0.39452 0.61384 0.0
C173 C 0.55697 0.4071 0.57908 0.0
C174 C 0.56651 0.38932 0.55652 0.0
C175 C 0.55664 0.35869 0.5686 0.0
C176 C 0.536 0.3459 0.6029 0.0
C177 C 0.52628 0.36374 0.6254 0.0
C178 C 0.54873 0.50942 0.71532 0.0
C179 C 0.57337 0.52159 0.587 0.0
O180 O 0.63318 0.57879 0.69343 0.0
O181 O 0.66412 0.56024 0.69763 0.0
O182 O 0.61946 0.48474 0.66481 0.0
O183 O 0.63906 0.52098 0.6206 0.0
O184 O 0.56531 0.45978 0.74199 0.0
O185 O 0.60598 0.50675 0.75444 0.0
O186 O 0.54635 0.42179 0.67689 0.0
O187 O 0.53038 0.43795 0.62417 0.0
O188 O 0.56541 0.5185 0.68269 0.0
O189 O 0.53893 0.48049 0.72155 0.0
O190 O 0.59646 0.54129 0.61231 0.0
O191 O 0.55859 0.49249 0.60066 0.0
H192 H 0.70942 0.64147 0.71424 0.0
H193 H 0.72919 0.66935 0.78133 0.0
H194 H 0.65837 0.59054 0.84932 0.0
H195 H 0.63926 0.5631 0.78272 0.0
H196 H 0.56592 0.43095 0.56997 0.0
H197 H 0.58171 0.39969 0.52953 0.0
H198 H 0.52799 0.32243 0.61301 0.0
H199 H 0.51124 0.35384 0.65268 0.0
Pr200 Pr 0.07929 0.60952 1.02345 0.0
Pr201 Pr 0.07968 0.55893 1.00714 0.0
C202 C 0.06772 0.65658 1.03323 0.0
C203 C 0.05861 0.67036 1.06723 0.0
C204 C 0.04556 0.68874 1.05743 0.0
C205 C 0.03507 0.70038 1.08985 0.0
C206 C 0.03772 0.69385 0.13241 0.0
C207 C 0.05162 0.67603 0.14192 0.0
C208 C 0.06188 0.66431 1.1096 0.0
C209 C 0.14082 0.6296 1.0003 0.0
C210 C 0.09005 0.57389 1.11277 0.0
C211 C 0.10349 0.52165 0.99504 0.0
C212 C 0.13445 0.53068 0.97816 0.0
C213 C 0.13783 0.51408 0.94477 0.0
C214 C 0.16529 0.52704 0.92117 0.0
C215 C 0.18959 0.55686 0.93057 0.0
C216 C 0.18725 0.572 0.96665 0.0
C217 C 0.15991 0.55911 0.99014 0.0
C218 C 0.0223 0.54657 1.04443 0.0
C219 C 0.04575 0.57079 0.92599 0.0
O220 O 0.04685 0.629 1.02133 0.0
O221 O 0.09513 0.65965 1.03642 0.0
O222 O 0.11719 0.6088 0.98032 0.0
O223 O 0.13215 0.63606 1.03569 0.0
O224 O 0.09264 0.55752 1.08145 0.0
O225 O 0.08303 0.59544 1.09964 0.0
O226 O 0.10297 0.53318 1.03186 0.0
O227 O 0.08451 0.52323 0.96817 0.0
O228 O 0.04888 0.5657 1.05567 0.0
O229 O 0.02418 0.5307 1.01292 0.0
O230 O 0.05219 0.59466 0.95212 0.0
O231 O 0.05497 0.5518 0.93981 0.0
H232 H 0.0429 0.69354 1.02473 0.0
H233 H 0.02439 0.71396 1.08167 0.0
H234 H 0.0533 0.66992 0.17433 0.0
H235 H 0.07169 0.64991 0.11762 0.0
H236 H 0.11847 0.49227 0.93486 0.0
H237 H 0.1663 0.51496 0.89322 0.0
H238 H 0.20563 0.59493 0.97465 0.0
H239 H 0.15799 0.5726 1.01565 0.0
Pr240 Pr 0.896 0.51829 0.52602 0.0
Pr241 Pr 0.88416 0.46177 0.54308 0.0
C242 C 0.90888 0.57485 0.49929 0.0
C243 C 0.91657 0.59407 0.46146 0.0
C244 C 0.92025 0.62365 0.46474 0.0
C245 C 0.92746 0.64235 0.42888 0.0
C246 C 0.93094 0.63156 0.38927 0.0
C247 C 0.92694 0.60168 0.38622 0.0
C248 C 0.91979 0.58305 0.42208 0.0
C249 C 0.83938 0.4898 0.57134 0.0
C250 C 0.87896 0.46655 0.43853 0.0
C251 C 0.85671 0.40481 0.57658 0.0
C252 C 0.83603 0.39278 0.61367 0.0
C253 C 0.84395 0.40982 0.65143 0.0
C254 C 0.82174 0.40315 0.68269 0.0
C255 C 0.7911 0.37941 0.67689 0.0
C256 C 0.78357 0.36091 0.64052 0.0
C257 C 0.80592 0.36767 0.60896 0.0
C258 C 0.94055 0.4943 0.49857 0.0
C259 C 0.92456 0.51216 0.62296 0.0
O260 O 0.92984 0.56874 0.5131 0.0
O261 O 0.8811 0.55111 0.5008 0.0
O262 O 0.8462 0.47736 0.54072 0.0
O263 O 0.86402 0.5147 0.58285 0.0
O264 O 0.87494 0.44695 0.46936 0.0
O265 O 0.88667 0.4953 0.45185 0.0
O266 O 0.8451 0.41248 0.54502 0.0
O267 O 0.88572 0.42513 0.58364 0.0
O268 O 0.93275 0.505 0.52926 0.0
O269 O 0.92054 0.46541 0.49292 0.0
O270 O 0.92479 0.53205 0.59426 0.0
O271 O 0.90848 0.48259 0.6118 0.0
H272 H 0.91762 0.63231 0.49507 0.0
H273 H 0.93032 0.66519 0.43211 0.0
H274 H 0.93011 0.59295 0.35629 0.0
H275 H 0.91699 0.5602 0.41918 0.0
H276 H 0.86686 0.42939 0.65604 0.0
H277 H 0.82836 0.41722 0.71104 0.0
H278 H 0.76017 0.3423 0.63559 0.0
H279 H 0.79924 0.35443 0.57987 0.0
Pr280 Pr 0.3637 0.88477 0.85917 0.0
Pr281 Pr 0.40958 0.87256 0.88352 0.0
C282 C 0.32407 0.90583 0.84505 0.0
C283 C 0.31615 0.92021 0.81079 0.0
C284 C 0.29319 0.92818 0.81708 0.0
C285 C 0.28393 0.93987 0.7835 0.0
C286 C 0.29744 0.94343 0.74324 0.0
C287 C 0.32104 0.93609 0.73751 0.0
C288 C 0.33032 0.92456 0.77105 0.0
C289 C 0.33522 0.82157 0.88179 0.0
C290 C 0.4027 0.87676 0.77291 0.0
C291 C 0.43549 0.83782 0.89989 0.0
C292 C 0.42394 0.81093 0.92853 0.0
C293 C 0.44176 0.81149 0.96311 0.0
C294 C 0.42821 0.78994 0.99586 0.0
C295 C 0.39661 0.76762 0.99451 0.0
C296 C 0.37966 0.76529 0.95801 0.0
C297 C 0.39314 0.78674 0.92539 0.0
C298 C 0.43189 0.9331 0.85752 0.0
C299 C 0.39633 0.91082 0.96136 0.0
O300 O 0.35113 0.92251 0.86239 0.0
O301 O 0.31731 0.87742 0.83835 0.0
O302 O 0.35665 0.84363 0.90304 0.0
O303 O 0.33114 0.83215 0.84649 0.0
O304 O 0.41644 0.87038 0.80493 0.0
O305 O 0.38154 0.88447 0.78523 0.0
O306 O 0.41864 0.83394 0.86642 0.0
O307 O 0.44487 0.86455 0.91813 0.0
O308 O 0.41316 0.90906 0.83928 0.0
O309 O 0.4425 0.92661 0.89126 0.0
O310 O 0.37715 0.9102 0.93092 0.0
O311 O 0.41125 0.89557 0.95237 0.0
H312 H 0.28205 0.92485 0.84772 0.0
H313 H 0.26574 0.94539 0.7887 0.0
H314 H 0.33231 0.93924 0.70702 0.0
H315 H 0.3482 0.9186 0.76585 0.0
H316 H 0.46549 0.82988 0.96627 0.0
H317 H 0.44178 0.79247 1.02383 0.0
H318 H 0.35533 0.74822 0.95604 0.0
H319 H 0.37864 0.78552 0.89917 0.0
Pr320 Pr 0.48576 0.39216 0.19122 0.0
Pr321 Pr 0.53796 0.40401 0.2164 0.0
C322 C 0.42701 0.37868 0.17616 0.0
C323 C 0.40236 0.36112 0.14555 0.0
C324 C 0.37147 0.34565 0.15915 0.0
C325 C 0.34763 0.33007 0.12999 0.0
C326 C 0.3544 0.32984 1.08672 0.0
C327 C 0.38557 0.34464 1.07359 0.0
C328 C 0.4093 0.35997 1.10276 0.0
C329 C 0.48811 0.33669 0.21041 0.0
C330 C 0.52923 0.4119 1.10487 0.0
C331 C 0.58465 0.39177 0.22477 0.0
C332 C 0.59153 0.37108 0.25008 0.0
C333 C 0.61486 0.38371 0.28067 0.0
C334 C 0.61829 0.36464 0.30973 0.0
C335 C 0.59843 0.33248 0.3087 0.0
C336 C 0.57731 0.31969 0.27518 0.0
C337 C 0.57384 0.33881 0.24613 0.0
C338 C 0.55051 0.46182 0.20508 0.0
C339 C 0.49615 0.41527 0.29378 0.0
O340 O 0.45125 0.40353 0.16224 0.0
O341 O 0.43401 0.36265 0.20158 0.0
O342 O 0.49483 0.35935 0.23417 0.0
O343 O 0.48316 0.34369 0.17261 0.0
O344 O 0.54849 0.41503 0.13697 0.0
O345 O 0.50025 0.40095 0.11711 0.0
O346 O 0.56302 0.37887 0.19619 0.0
O347 O 0.58357 0.41398 0.24527 0.0
O348 O 0.53179 0.43998 0.18082 0.0
O349 O 0.55843 0.45308 0.23927 0.0
O350 O 0.48194 0.41484 0.25816 0.0
O351 O 0.51884 0.40847 0.28825 0.0
H352 H 0.36577 0.34608 0.19224 0.0
H353 H 0.32394 0.31867 0.14121 0.0
H354 H 0.39173 0.34555 1.04047 0.0
H355 H 0.43304 0.37155 1.09166 0.0
H356 H 0.62921 0.40848 0.28382 0.0
H357 H 0.63468 0.37543 0.33522 0.0
H358 H 0.56201 0.29499 0.27314 0.0
H359 H 0.5562 0.32829 0.22208 0.0
Pr360 Pr 0.09213 0.45993 0.52963 0.0
Pr361 Pr 0.09878 0.51439 0.54479 0.0
C362 C 0.08373 0.40474 0.50331 0.0
C363 C 0.07599 0.38595 0.46502 0.0
C364 C 0.07154 0.35603 0.4673 0.0
C365 C 0.06348 0.3376 0.43106 0.0
C366 C 0.05993 0.34901 0.39209 0.0
C367 C 0.06484 0.37925 0.39002 0.0
C368 C 0.07279 0.39757 0.42623 0.0
C369 C 0.14911 0.49389 0.57247 0.0
C370 C 0.10321 0.50926 0.44083 0.0
C371 C 0.12387 0.57169 0.57681 0.0
C372 C 0.15349 0.58864 0.59913 0.0
C373 C 0.15651 0.60744 0.63378 0.0
C374 C 0.18169 0.61732 0.66111 0.0
C375 C 0.20391 0.60818 0.6543 0.0
C376 C 0.20219 0.59166 0.61748 0.0
C377 C 0.17717 0.58192 0.59016 0.0
C378 C 0.0416 0.47702 0.50472 0.0
C379 C 0.06003 0.46403 0.62529 0.0
O380 O 0.06179 0.40849 0.51961 0.0
O381 O 0.11041 0.43002 0.50313 0.0
O382 O 0.14021 0.50368 0.54116 0.0
O383 O 0.12619 0.4682 0.58595 0.0
O384 O 0.10561 0.5286 0.47111 0.0
O385 O 0.09891 0.48179 0.45494 0.0
O386 O 0.12584 0.56623 0.53685 0.0
O387 O 0.10258 0.54753 0.59681 0.0
O388 O 0.05204 0.4683 0.53439 0.0
O389 O 0.05908 0.50633 0.49823 0.0
O390 O 0.06375 0.44518 0.59858 0.0
O391 O 0.07244 0.49314 0.61233 0.0
H392 H 0.07404 0.34686 0.49717 0.0
H393 H 0.0599 0.31445 0.43352 0.0
H394 H 0.06163 0.38846 0.36065 0.0
H395 H 0.07605 0.42063 0.4241 0.0
H396 H 0.13838 0.61263 0.64136 0.0
H397 H 0.18219 0.62968 0.68959 0.0
H398 H 0.21895 0.5843 0.6115 0.0
H399 H 0.17529 0.5673 0.56367 0.0
Pr400 Pr 0.58785 0.08857 0.85796 0.0
Pr401 Pr 0.57277 0.12659 0.88503 0.0
C402 C 0.60482 0.04626 0.83918 0.0
C403 C 0.61918 0.03919 0.80348 0.0
C404 C 0.63957 0.02813 0.81132 0.0
C405 C 0.65434 0.0224 0.77768 0.0
C406 C 0.64891 0.0277 0.73568 0.0
C407 C 0.6284 0.03883 0.72812 0.0
C408 C 0.61381 0.04468 0.76171 0.0
C409 C 0.6412 0.14752 0.87818 0.0
C410 C 0.56411 0.11008 0.77352 0.0
C411 C 0.58163 0.18399 0.89594 0.0
C412 C 0.60089 0.21072 0.92337 0.0
C413 C 0.58668 0.21925 0.95488 0.0
C414 C 0.60441 0.24027 0.98625 0.0
C415 C 0.63673 0.25318 0.98667 0.0
C416 C 0.65114 0.24723 0.95246 0.0
C417 C 0.63338 0.22618 0.92103 0.0
C418 C 0.5162 0.07949 0.87349 0.0
C419 C 0.56562 0.0749 0.96133 0.0
O420 O 0.5769 0.04154 0.83367 0.0
O421 O 0.62256 0.07191 0.8589 0.0
O422 O 0.61875 0.13043 0.90185 0.0
O423 O 0.63477 0.13615 0.84 0.0
O424 O 0.56034 0.12551 0.8062 0.0
O425 O 0.57685 0.09346 0.78466 0.0
O426 O 0.59604 0.177 0.86707 0.0
O427 O 0.55947 0.15968 0.91475 0.0
O428 O 0.53858 0.08416 0.84878 0.0
O429 O 0.52428 0.09505 0.90865 0.0
O430 O 0.56874 0.06234 0.92591 0.0
O431 O 0.56875 0.10295 0.95607 0.0
H432 H 0.6442 0.02411 0.8435 0.0
H433 H 0.67014 0.01403 0.78455 0.0
H434 H 0.62315 0.04252 0.69614 0.0
H435 H 0.59832 0.05345 0.75499 0.0
H436 H 0.56171 0.20812 0.95691 0.0
H437 H 0.59247 0.24414 1.01224 0.0
H438 H 0.67603 0.2572 0.95163 0.0
H439 H 0.64511 0.22077 0.8964 0.0
Pr440 Pr 0.5038 0.61511 0.19229 0.0
Pr441 Pr 0.44578 0.57076 0.21573 0.0
C442 C 0.56493 0.65296 0.17929 0.0
C443 C 0.58802 0.65905 0.14646 0.0
C444 C 0.61955 0.67648 0.15605 0.0
C445 C 0.64172 0.68346 0.12431 0.0
C446 C 0.63246 0.67327 1.08265 0.0
C447 C 0.60078 0.65527 1.07351 0.0
C448 C 0.57872 0.64815 1.10521 0.0
C449 C 0.47094 0.64595 0.2149 0.0
C450 C 0.4577 0.57876 1.10507 0.0
C451 C 0.38443 0.54353 0.23014 0.0
C452 C 0.36541 0.5506 0.2592 0.0
C453 C 0.3502 0.53117 0.29375 0.0
C454 C 0.33716 0.5406 0.32565 0.0
C455 C 0.33913 0.56963 0.32346 0.0
C456 C 0.35177 0.58772 0.28698 0.0
C457 C 0.36479 0.57833 0.25517 0.0
C458 C 0.483 0.54693 0.18903 0.0
C459 C 0.49603 0.58055 0.2936 0.0
O460 O 0.55367 0.6266 0.19893 0.0
O461 O 0.5439 0.66016 0.16976 0.0
O462 O 0.47017 0.62368 0.23614 0.0
O463 O 0.48577 0.64946 0.17975 0.0
O464 O 0.43723 0.56528 0.13698 0.0
O465 O 0.48663 0.59878 0.11782 0.0
O466 O 0.39862 0.56344 0.19977 0.0
O467 O 0.40181 0.53381 0.24747 0.0
O468 O 0.4783 0.5662 0.17097 0.0
O469 O 0.46588 0.53679 0.22293 0.0
O470 O 0.51497 0.59974 0.26331 0.0
O471 O 0.46594 0.56699 0.2847 0.0
H472 H 0.62697 0.68492 0.18792 0.0
H473 H 0.66599 0.69723 0.1321 0.0
H474 H 0.59306 0.64651 1.04183 0.0
H475 H 0.55442 0.63435 1.0975 0.0
H476 H 0.35006 0.50956 0.29739 0.0
H477 H 0.32779 0.52626 0.35356 0.0
H478 H 0.35334 0.61005 0.28431 0.0
H479 H 0.37591 0.59375 0.22867 0.0
H480 H 0.47251 0.1822 0.36525 0.0
H481 H 0.49149 0.15822 0.24199 0.0
H482 H 0.47469 0.22772 0.33682 0.0
H483 H 0.49551 0.20586 0.21284 0.0
H484 H 0.47731 0.28429 0.16381 0.0
H485 H 0.47643 0.23734 0.18893 0.0
H486 H 0.49766 0.27578 0.31504 0.0
H487 H 0.49812 0.3216 0.28998 0.0
C488 C 0.47776 0.18684 0.33182 0.0
C489 C 0.48179 0.16577 0.30643 0.0
C490 C 0.47935 0.21377 0.31515 0.0
C491 C 0.48562 0.22189 0.27186 0.0
C492 C 0.49028 0.20105 0.24619 0.0
C493 C 0.48832 0.17355 0.26307 0.0
C494 C 0.48176 0.28262 0.19694 0.0
C495 C 0.48755 0.30717 0.22466 0.0
C496 C 0.48151 0.25549 0.21158 0.0
C497 C 0.48691 0.25156 0.25468 0.0
C498 C 0.4929 0.27653 0.28191 0.0
C499 C 0.49325 0.30344 0.26733 0.0
H500 H 0.31927 0.48264 0.56478 0.0
H501 H 0.32498 0.52142 0.68852 0.0
H502 H 0.274 0.48765 0.54864 0.0
H503 H 0.27901 0.52579 0.67282 0.0
H504 H 0.17198 0.48662 0.6477 0.0
H505 H 0.22227 0.49153 0.66309 0.0
H506 H 0.25196 0.52213 0.53503 0.0
H507 H 0.20151 0.51781 0.51999 0.0
C508 C 0.31115 0.49262 0.58854 0.0
C509 C 0.32631 0.50161 0.62808 0.0
C510 C 0.28494 0.49556 0.57917 0.0
C511 C 0.27205 0.50695 0.60929 0.0
C512 C 0.28764 0.5166 0.64862 0.0
C513 C 0.31437 0.51431 0.65764 0.0
C514 C 0.18938 0.49505 0.62292 0.0
C515 C 0.18223 0.50199 0.58257 0.0
C516 C 0.21852 0.49789 0.63183 0.0
C517 C 0.2418 0.50706 0.60047 0.0
C518 C 0.23492 0.5147 0.56023 0.0
C519 C 0.20589 0.51253 0.55159 0.0
H520 H 0.81588 0.33175 0.9127 0.0
H521 H 0.79294 0.28752 1.03491 0.0
H522 H 0.76894 0.28773 0.88308 0.0
H523 H 0.74824 0.24376 1.00593 0.0
H524 H 0.65545 0.17144 0.95854 0.0
H525 H 0.7003 0.21739 0.98427 0.0
H526 H 0.7389 0.23759 0.85786 0.0
H527 H 0.69292 0.19102 0.83205 0.0
C528 C 0.80093 0.31286 0.93346 0.0
C529 C 0.80881 0.31388 0.97666 0.0
C530 C 0.77386 0.28709 0.91628 0.0
C531 C 0.75359 0.26108 0.94146 0.0
C532 C 0.76176 0.26273 0.98463 0.0
C533 C 0.78821 0.28832 1.00164 0.0
C534 C 0.67346 0.18553 0.93596 0.0
C535 C 0.67006 0.17682 0.89297 0.0
C536 C 0.6998 0.21239 0.95095 0.0
C537 C 0.7245 0.23237 0.92386 0.0
C538 C 0.72091 0.22373 0.88046 0.0
C539 C 0.69435 0.19658 0.86538 0.0
H540 H 0.45104 0.65499 0.29503 0.0
H541 H 0.48193 0.69844 0.17312 0.0
H542 H 0.44852 0.70013 0.32038 0.0
H543 H 0.48078 0.74365 0.19831 0.0
H544 H 0.46674 0.8228 0.24405 0.0
H545 H 0.46017 0.77366 0.21754 0.0
H546 H 0.47203 0.74938 0.34455 0.0
H547 H 0.47706 0.79721 0.37051 0.0
C548 C 0.45729 0.67405 0.27347 0.0
C549 C 0.46681 0.67247 0.23179 0.0
C550 C 0.45618 0.7005 0.28816 0.0
C551 C 0.46473 0.72677 0.26198 0.0
C552 C 0.47354 0.72456 0.22006 0.0
C553 C 0.47444 0.69822 0.20545 0.0
C554 C 0.46738 0.80673 0.2664 0.0
C555 C 0.47246 0.81462 0.30973 0.0
C556 C 0.46402 0.77831 0.2511 0.0
C557 C 0.4658 0.75653 0.27836 0.0
C558 C 0.46999 0.76439 0.32179 0.0
C559 C 0.47312 0.79246 0.33692 0.0
H560 H 0.64717 0.44585 0.65376 0.0
H561 H 0.69032 0.5329 0.58776 0.0
H562 H 0.69316 0.44065 0.63847 0.0
H563 H 0.73579 0.52816 0.57407 0.0
H564 H 0.82666 0.53067 0.61159 0.0
H565 H 0.77764 0.52859 0.62502 0.0
H566 H 0.72901 0.43821 0.5691 0.0
H567 H 0.77903 0.44065 0.55404 0.0
C568 C 0.66617 0.46381 0.63587 0.0
C569 C 0.66445 0.48987 0.62225 0.0
C570 C 0.69267 0.46078 0.62695 0.0
C571 C 0.71873 0.48406 0.605 0.0
C572 C 0.71663 0.50974 0.59116 0.0
C573 C 0.69016 0.51239 0.59909 0.0
C574 C 0.80574 0.5101 0.60201 0.0
C575 C 0.80752 0.48591 0.5813 0.0
C576 C 0.77729 0.50899 0.6098 0.0
C577 C 0.74883 0.4833 0.59829 0.0
C578 C 0.75021 0.45844 0.57876 0.0
C579 C 0.77905 0.45987 0.56993 0.0
H580 H 0.28259 0.77892 0.84168 0.0
H581 H 0.32911 0.79348 0.96124 0.0
H582 H 0.23888 0.73194 0.8684 0.0
H583 H 0.28556 0.74527 0.98803 0.0
H584 H 0.18936 0.67647 1.04169 0.0
H585 H 0.23625 0.71966 1.01408 0.0
H586 H 0.21193 0.68108 0.88827 0.0
H587 H 0.16368 0.63806 0.91637 0.0
C588 C 0.28381 0.77194 0.87376 0.0
C589 C 0.30982 0.79074 0.89913 0.0
C590 C 0.2584 0.7444 0.88922 0.0
C591 C 0.2576 0.73386 0.93095 0.0
C592 C 0.28421 0.75225 0.95605 0.0
C593 C 0.30968 0.78011 0.94054 0.0
C594 C 0.1939 0.67684 1.00803 0.0
C595 C 0.172 0.65332 0.98155 0.0
C596 C 0.22139 0.70196 0.99198 0.0
C597 C 0.2288 0.70499 0.94837 0.0
C598 C 0.20742 0.68067 0.92189 0.0
C599 C 0.17959 0.65544 0.9381 0.0
H600 H 0.67735 0.23973 1.02405 0.0
H601 H 0.63329 0.29448 1.04134 0.0
H602 H 0.68555 0.24031 1.09884 0.0
H603 H 0.64261 0.29629 0.11739 0.0
H604 H 0.6712 0.21149 0.22613 0.0
H605 H 0.69523 0.25001 0.17013 0.0
H606 H 0.61106 0.25454 0.15951 0.0
H607 H 0.58838 0.21802 0.21669 0.0
C608 C 0.67101 0.2535 1.04359 0.0
C609 C 0.65354 0.26595 1.02695 0.0
C610 C 0.67576 0.2539 1.08708 0.0
C611 C 0.6632 0.26694 0.11479 0.0
C612 C 0.65119 0.28466 1.09717 0.0
C613 C 0.646 0.28382 1.05355 0.0
C614 C 0.65842 0.22171 0.21278 0.0
C615 C 0.62748 0.21086 0.22436 0.0
C616 C 0.67208 0.24367 0.18048 0.0
C617 C 0.65479 0.25462 0.15882 0.0
C618 C 0.62532 0.24673 0.17475 0.0
C619 C 0.61192 0.22519 0.20721 0.0
H620 H 0.37726 0.62639 0.35514 0.0
H621 H 0.29041 0.54372 0.3799 0.0
H622 H 0.37874 0.64306 0.42672 0.0
H623 H 0.29063 0.56128 0.4522 0.0
H624 H 0.34418 0.56416 0.57359 0.0
H625 H 0.31671 0.55905 0.50911 0.0
H626 H 0.37008 0.6579 0.49033 0.0
H627 H 0.39945 0.66234 0.55409 0.0
C628 C 0.35761 0.61242 0.37548 0.0
C629 C 0.33411 0.58336 0.36223 0.0
C630 C 0.3583 0.62211 0.41702 0.0
C631 C 0.3353 0.60309 0.44641 0.0
C632 C 0.30948 0.576 0.43121 0.0
C633 C 0.30916 0.56596 0.38968 0.0
C634 C 0.3493 0.58499 0.55659 0.0
C635 C 0.37466 0.61351 0.56797 0.0
C636 C 0.33333 0.58213 0.51922 0.0
C637 C 0.34219 0.60789 0.49275 0.0
C638 C 0.36377 0.63725 0.50852 0.0
C639 C 0.38042 0.63997 0.54534 0.0
H640 H 0.74668 0.42973 0.90266 0.0
H641 H 0.7653 0.35456 0.9154 0.0
H642 H 0.72367 0.41006 0.83347 0.0
H643 H 0.74436 0.33608 0.8465 0.0
H644 H 0.74829 0.32577 0.71578 0.0
H645 H 0.721 0.32225 0.78191 0.0
H646 H 0.75537 0.42061 0.77615 0.0
H647 H 0.78046 0.42326 0.70975 0.0
C648 C 0.74487 0.40843 0.89134 0.0
C649 C 0.75899 0.39448 0.91356 0.0
C650 C 0.73188 0.39721 0.85154 0.0
C651 C 0.73407 0.37272 0.83286 0.0
C652 C 0.74277 0.35545 0.85881 0.0
C653 C 0.75505 0.36622 0.89885 0.0
C654 C 0.74881 0.34626 0.72807 0.0
C655 C 0.76756 0.37504 0.70897 0.0
C656 C 0.73337 0.34437 0.76611 0.0
C657 C 0.73713 0.37136 0.7859 0.0
C658 C 0.752 0.3992 0.76288 0.0
C659 C 0.76699 0.40095 0.72484 0.0
H660 H 0.34416 0.76341 1.02621 0.0
H661 H 0.41258 0.7369 1.05237 0.0
H662 H 0.32609 0.75235 1.09818 0.0
H663 H 0.39317 0.72372 0.12493 0.0
H664 H 0.30723 0.7553 0.2278 0.0
H665 H 0.30647 0.72948 0.16174 0.0
H666 H 0.40238 0.7557 0.18089 0.0
H667 H 0.40215 0.77925 0.24707 0.0
C668 C 0.35441 0.75376 1.04698 0.0
C669 C 0.38028 0.75171 1.03395 0.0
C670 C 0.34386 0.74715 1.08867 0.0
C671 C 0.35871 0.73797 0.11835 0.0
C672 C 0.38192 0.73193 1.10358 0.0
C673 C 0.39297 0.73925 1.06193 0.0
C674 C 0.32765 0.75433 0.21844 0.0
C675 C 0.35495 0.76991 0.24205 0.0
C676 C 0.3274 0.7398 0.18038 0.0
C677 C 0.35477 0.74161 0.16459 0.0
C678 C 0.38075 0.75369 0.19127 0.0
C679 C 0.38072 0.76748 0.22962 0.0
H680 H 0.54487 0.28961 0.34572 0.0
H681 H 0.64376 0.33414 0.36049 0.0
H682 H 0.53779 0.28036 0.42027 0.0
H683 H 0.63682 0.32346 0.4363 0.0
H684 H 0.5234 0.2976 0.54544 0.0
H685 H 0.53754 0.27232 0.49097 0.0
H686 H 0.6277 0.35415 0.48054 0.0
H687 H 0.61443 0.37781 0.53711 0.0
C688 C 0.56517 0.29597 0.36459 0.0
C689 C 0.5949 0.31421 0.34751 0.0
C690 C 0.56114 0.29055 0.40805 0.0
C691 C 0.58688 0.30309 0.43519 0.0
C692 C 0.61647 0.3152 0.41671 0.0
C693 C 0.6205 0.32115 0.37316 0.0
C694 C 0.54666 0.30963 0.53262 0.0
C695 C 0.56731 0.34032 0.54404 0.0
C696 C 0.55473 0.29523 0.501 0.0
C697 C 0.58321 0.31161 0.47939 0.0
C698 C 0.60532 0.3406 0.49544 0.0
C699 C 0.59749 0.35465 0.52755 0.0
H700 H 0.2063 0.61395 0.90164 0.0
H701 H 0.22529 0.53932 0.8845 0.0
H702 H 0.22923 0.63499 0.83412 0.0
H703 H 0.25058 0.56161 0.81696 0.0
H704 H 0.24093 0.65756 0.70517 0.0
H705 H 0.25909 0.65427 0.77558 0.0
H706 H 0.22681 0.55734 0.75445 0.0
H707 H 0.21103 0.56147 0.68422 0.0
C708 C 0.21688 0.60286 0.88427 0.0
C709 C 0.21318 0.57447 0.89774 0.0
C710 C 0.23036 0.61511 0.84513 0.0
C711 C 0.24077 0.59938 0.81866 0.0
C712 C 0.24149 0.57361 0.83542 0.0
C713 C 0.22725 0.5609 0.87429 0.0
C714 C 0.23899 0.63598 0.71528 0.0
C715 C 0.22385 0.6096 0.68979 0.0
C716 C 0.24912 0.63392 0.75576 0.0
C717 C 0.24308 0.60516 0.77197 0.0
C718 C 0.23185 0.57995 0.74391 0.0
C719 C 0.22252 0.58223 0.70322 0.0
H720 H 0.44258 0.927 1.02438 0.0
H721 H 0.36471 0.93937 1.00158 0.0
H722 H 0.45309 0.95604 1.09065 0.0
H723 H 0.37484 0.96819 1.06866 0.0
H724 H 0.3893 0.00819 0.21171 0.0
H725 H 0.37706 0.97893 0.14455 0.0
H726 H 0.47111 -0.00109 0.13509 0.0
H727 H 0.48299 0.02795 0.20179 0.0
C728 C 0.42726 0.93565 1.03302 0.0
C729 C 0.40236 0.92961 1.00512 0.0
C730 C 0.43355 0.95302 1.07222 0.0
C731 C 0.41527 0.96576 1.08795 0.0
C732 C 0.39011 0.95948 1.06015 0.0
C733 C 0.38414 0.9425 1.02043 0.0
C734 C 0.4077 0.00658 0.19575 0.0
C735 C 0.43772 0.02144 0.21467 0.0
C736 C 0.40054 0.98936 0.15599 0.0
C737 C 0.42263 0.98509 0.13175 0.0
C738 C 0.45248 7e-05 0.15095 0.0
C739 C 0.4596 0.01739 0.1902 0.0
H740 H 0.51116 0.41028 0.38118 0.0
H741 H 0.45603 0.43884 0.31161 0.0
H742 H 0.49311 0.42158 0.44824 0.0
H743 H 0.4383 0.45041 0.37797 0.0
H744 H 0.42069 0.48936 0.50562 0.0
H745 H 0.43695 0.47597 0.43921 0.0
H746 H 0.46059 0.41646 0.50777 0.0
H747 H 0.44228 0.4285 0.57394 0.0
C748 C 0.49527 0.41906 0.37939 0.0
C749 C 0.48576 0.42324 0.33837 0.0
C750 C 0.48441 0.42559 0.41903 0.0
C751 C 0.46335 0.43733 0.42146 0.0
C752 C 0.45428 0.4418 0.38027 0.0
C753 C 0.46474 0.43487 0.34087 0.0
C754 C 0.42901 0.47311 0.50716 0.0
C755 C 0.42922 0.46025 0.54748 0.0
C756 C 0.43881 0.46525 0.46789 0.0
C757 C 0.45124 0.44488 0.46522 0.0
C758 C 0.45183 0.43233 0.50586 0.0
C759 C 0.44089 0.43931 0.54499 0.0
H760 H 0.04146 0.49569 0.68214 0.0
H761 H 0.035 0.40705 0.67227 0.0
H762 H 0.01329 0.48049 0.74929 0.0
H763 H 0.0067 0.39161 0.74027 0.0
H764 H 0.96665 0.37313 0.88286 0.0
H765 H -0.00497 0.38657 0.81474 0.0
H766 H 0.97238 0.45805 0.79608 0.0
H767 H 0.94555 0.44566 0.86408 0.0
C768 C 0.03418 0.47273 0.69385 0.0
C769 C 0.04152 0.45318 0.66933 0.0
C770 C 0.01734 0.46362 0.73358 0.0
C771 C 0.00642 0.43414 0.75309 0.0
C772 C 0.01399 0.41457 0.72865 0.0
C773 C 0.03059 0.4236 0.68843 0.0
C774 C 0.96771 0.39196 0.86467 0.0
C775 C 0.95297 0.40798 0.88153 0.0
C776 C 0.98436 0.39988 0.82441 0.0
C777 C 0.98771 0.42448 0.79744 0.0
C778 C 0.97244 0.43991 0.81436 0.0
C779 C 0.95613 0.43223 0.85443 0.0
H780 H 0.5416 0.93993 0.17993 0.0
H781 H 0.5099 -0.00207 0.23441 0.0
H782 H 0.55342 0.96916 1.11315 0.0
H783 H 0.5239 0.02856 0.1691 0.0
H784 H 0.55379 0.08925 1.04568 0.0
H785 H 0.54363 0.06073 1.11258 0.0
H786 H 0.55128 0.98902 1.04782 0.0
H787 H 0.56145 0.01767 0.98136 0.0
C788 C 0.53731 0.95911 0.17848 0.0
C789 C 0.52431 0.96551 0.2149 0.0
C790 C 0.54408 0.97633 0.13892 0.0
C791 C 0.53934 0.00213 0.13254 0.0
C792 C 0.52755 0.00906 0.1698 0.0
C793 C 0.51961 0.99116 0.20858 0.0
C794 C 0.55341 0.06742 1.04512 0.0
C795 C 0.55884 0.05685 1.00566 0.0
C796 C 0.5473 0.05039 1.08468 0.0
C797 C 0.54627 0.02124 1.08867 0.0
C798 C 0.55178 0.01087 1.04899 0.0
C799 C 0.55768 0.02778 1.00951 0.0
H800 H 0.59993 0.57891 0.53962 0.0
H801 H 0.52238 0.4872 0.5317 0.0
H802 H 0.58337 0.59273 0.47359 0.0
H803 H 0.50601 0.50095 0.46607 0.0
H804 H 0.46471 0.53419 0.35686 0.0
H805 H 0.48273 0.52167 0.42204 0.0
H806 H 0.57447 0.59628 0.39837 0.0
H807 H 0.55643 0.6086 0.33249 0.0
C808 C 0.57924 0.56128 0.5244 0.0
C809 C 0.56314 0.53138 0.54373 0.0
C810 C 0.56945 0.5694 0.48521 0.0
C811 C 0.54236 0.54856 0.46174 0.0
C812 C 0.52642 0.51875 0.4813 0.0
C813 C 0.53631 0.51055 0.52008 0.0
C814 C 0.48888 0.54832 0.36487 0.0
C815 C 0.50832 0.57301 0.33683 0.0
C816 C 0.49961 0.54075 0.40343 0.0
C817 C 0.53082 0.55729 0.41846 0.0
C818 C 0.55029 0.58221 0.39049 0.0
C819 C 0.53964 0.5895 0.35143 0.0
H820 H 0.02948 0.52239 0.8676 0.0
H821 H 0.02057 0.60317 0.87886 0.0
H822 H 0.00326 0.51064 0.79948 0.0
H823 H -0.00667 0.59084 0.81023 0.0
H824 H 0.95644 0.57076 0.66623 0.0
H825 H 0.98371 0.58507 0.7347 0.0
H826 H 0.96214 0.49123 0.75239 0.0
H827 H 0.93495 0.47714 0.68468 0.0
C828 C 0.02186 0.5379 0.8562 0.0
C829 C 0.02812 0.56413 0.88141 0.0
C830 C 0.00597 0.5307 0.81596 0.0
C831 C -0.00549 0.54884 0.79667 0.0
C832 C 0.00099 0.57541 0.82171 0.0
C833 C 0.01699 0.58268 0.86232 0.0
C834 C 0.95728 0.55285 0.68437 0.0
C835 C 0.9425 0.52226 0.66741 0.0
C836 C 0.9733 0.56124 0.72489 0.0
C837 C 0.97643 0.53993 0.75193 0.0
C838 C 0.96167 0.50941 0.7346 0.0
C839 C 0.94539 0.50099 0.69454 0.0
H840 H 0.44417 0.96268 0.38033 0.0
H841 H 0.43411 0.0268 0.46127 0.0
H842 H 0.46298 0.94703 0.44108 0.0
H843 H 0.46155 0.01733 0.51706 0.0
H844 H 0.52234 0.02357 0.37527 0.0
H845 H 0.50763 0.04102 0.43861 0.0
H846 H 0.51387 0.97278 0.51301 0.0
H847 H 0.53717 0.96135 0.45323 0.0
C848 C 0.4452 0.97292 0.41097 0.0
C849 C 0.44159 -0.00116 0.41476 0.0
C850 C 0.45606 0.96412 0.44619 0.0
C851 C 0.46941 0.98571 0.47961 0.0
C852 C 0.45501 0.00292 0.48906 0.0
C853 C 0.44022 0.00909 0.45615 0.0
C854 C 0.5234 0.01425 0.40576 0.0
C855 C 0.52694 0.98826 0.4086 0.0
C856 C 0.5149 0.02409 0.44251 0.0
C857 C 0.50379 0.00349 0.47737 0.0
C858 C 0.51863 0.98642 0.48443 0.0
C859 C 0.53109 0.97919 0.44941 0.0
H860 H 0.47682 0.45307 0.71956 0.0
H861 H 0.41231 0.46567 0.79505 0.0
H862 H 0.50658 0.45969 0.78457 0.0
H863 H 0.4486 0.48464 0.85335 0.0
H864 H 0.5808 0.52781 0.79301 0.0
H865 H 0.54427 0.50751 0.85174 0.0
H866 H 0.48557 0.53251 0.7854 0.0
H867 H 0.51571 0.54052 0.72018 0.0
C868 C 0.46888 0.4575 0.74934 0.0
C869 C 0.4449 0.4644 0.75031 0.0
C870 C 0.4862 0.46199 0.78637 0.0
C871 C 0.48359 0.47994 0.81907 0.0
C872 C 0.45386 0.47534 0.82553 0.0
C873 C 0.43394 0.46651 0.79081 0.0
C874 C 0.55907 0.52699 0.78971 0.0
C875 C 0.54796 0.52935 0.74966 0.0
C876 C 0.53898 0.51725 0.82458 0.0
C877 C 0.50918 0.51261 0.81887 0.0
C878 C 0.50626 0.53072 0.78683 0.0
C879 C 0.52381 0.53602 0.74962 0.0
H880 H 0.95355 0.40063 0.12202 0.0
H881 H 0.01685 0.47446 1.04022 0.0
H882 H 0.96619 0.43693 0.17969 0.0
H883 H 0.03612 0.50773 1.10236 0.0
H884 H 0.02528 0.56961 0.12417 0.0
H885 H 0.0127 0.53258 0.18086 0.0
H886 H 0.94235 0.46282 1.10346 0.0
H887 H 0.96147 0.49686 1.04198 0.0
C888 C 0.97178 0.42416 0.11692 0.0
C889 C 0.98077 0.43622 1.07542 0.0
C890 C 0.97976 0.44472 0.1508 0.0
C891 C -0.00225 0.47623 0.14209 0.0
C892 C 0.01826 0.48403 1.10711 0.0
C893 C 0.00747 0.46505 1.07117 0.0
C894 C 0.00691 0.5462 0.11888 0.0
C895 C -0.00226 0.53464 1.07728 0.0
C896 C -0.001 0.5252 0.15223 0.0
C897 C 0.98089 0.49382 0.14292 0.0
C898 C 0.96023 0.48647 1.1085 0.0
C899 C 0.97093 0.50591 1.07294 0.0
H900 H 0.05103 0.45799 0.42424 0.0
H901 H 0.97773 0.44494 0.50857 0.0
H902 H 0.02923 0.4748 0.36859 0.0
H903 H 0.94984 0.44814 0.44716 0.0
H904 H 0.00455 0.52711 0.50365 0.0
H905 H 0.0343 0.5223 0.44504 0.0
H906 H 0.95641 0.4904 0.36325 0.0
H907 H 0.93252 0.50829 0.41469 0.0
C908 C 0.03007 0.4581 0.43085 0.0
C909 C 0.0192 0.45651 0.47262 0.0
C910 C 0.01647 0.46558 0.39784 0.0
C911 C -0.00956 0.46809 0.40698 0.0
C912 C 0.97248 0.45086 0.44215 0.0
C913 C 0.98815 0.44841 0.47739 0.0
C914 C -0.00525 0.52196 0.47213 0.0
C915 C 0.96362 0.51286 0.46557 0.0
C916 C 0.01147 0.51856 0.43863 0.0
C917 C -0.00553 0.49949 0.40434 0.0
C918 C 0.9684 0.50101 0.39239 0.0
C919 C 0.95358 0.50913 0.42317 0.0
H920 H 0.43528 0.97285 0.91926 0.0
H921 H 0.41172 0.94842 0.78808 0.0
H922 H 0.42329 0.01376 0.91202 0.0
H923 H 0.39972 0.98957 0.78014 0.0
H924 H 0.46909 0.08349 0.91297 0.0
H925 H 0.41546 0.0578 0.88957 0.0
H926 H 0.4421 0.04014 0.76906 0.0
H927 H 0.49579 0.06361 0.7915 0.0
C928 C 0.42809 0.97674 0.88864 0.0
C929 C 0.4269 0.95934 0.85341 0.0
C930 C 0.42023 -0.00033 0.88442 0.0
C931 C 0.41312 0.00694 0.84403 0.0
C932 C 0.40676 0.98583 0.81097 0.0
C933 C 0.41465 0.96296 0.81517 0.0
C934 C 0.46365 0.07368 0.88144 0.0
C935 C 0.48579 0.07118 0.85622 0.0
C936 C 0.43309 0.06015 0.86728 0.0
C937 C 0.42515 0.03999 0.83267 0.0
C938 C 0.44792 0.04982 0.80063 0.0
C939 C 0.47858 0.06244 0.81364 0.0
H940 H 0.52001 0.56817 0.12053 0.0
H941 H 0.51725 0.54003 0.25044 0.0
H942 H 0.573 0.57907 0.1136 0.0
H943 H 0.56985 0.55085 0.24421 0.0
H944 H 0.55474 0.48271 0.12349 0.0
H945 H 0.58153 0.53663 1.10229 0.0
H946 H 0.62431 0.5636 0.22341 0.0
H947 H 0.59957 0.50971 0.24545 0.0
C948 C 0.53078 0.56406 0.14756 0.0
C949 C 0.514 0.55109 0.18515 0.0
C950 C 0.56144 0.57126 0.14396 0.0
C951 C 0.57532 0.5639 0.17707 0.0
C952 C 0.55976 0.55528 0.21674 0.0
C953 C 0.5291 0.54809 0.22032 0.0
C954 C 0.56987 0.50004 0.1459 0.0
C955 C 0.5717 0.49259 0.18826 0.0
C956 C 0.58603 0.53094 0.13357 0.0
C957 C 0.59758 0.55324 0.16601 0.0
C958 C 0.61032 0.54594 0.20063 0.0
C959 C 0.59512 0.51515 0.21398 0.0
H960 H 0.2845 0.9197 0.66379 0.0
H961 H 0.28721 -0.0076 0.74087 0.0
H962 H 0.27726 0.94307 0.601 0.0
H963 H 0.27867 0.0155 0.67778 0.0
H964 H 0.2704 0.98461 0.4893 0.0
H965 H 0.24972 0.95961 0.55713 0.0
H966 H 0.31407 0.04343 0.62183 0.0
H967 H 0.33322 0.06891 0.55412 0.0
C968 C 0.28286 0.9404 0.66731 0.0
C969 C 0.28723 0.95471 0.70691 0.0
C970 C 0.27815 0.95358 0.63137 0.0
C971 C 0.27761 0.98139 0.6342 0.0
C972 C 0.27936 -0.0057 0.67447 0.0
C973 C 0.28413 0.98104 0.71058 0.0
C974 C 0.2791 -0.00184 0.51793 0.0
C975 C 0.3042 0.02843 0.51646 0.0
C976 C 0.26746 0.9837 0.55688 0.0
C977 C 0.28105 -0.00088 0.5949 0.0
C978 C 0.30316 0.03068 0.59328 0.0
C979 C 0.31449 0.04524 0.55436 0.0
H980 H 0.35127 0.29832 1.0142 0.0
H981 H 0.30096 0.33287 1.08607 0.0
H982 H 0.32025 0.29269 0.95271 0.0
H983 H 0.26799 0.32476 1.0254 0.0
H984 H 0.2794 0.29827 0.83872 0.0
H985 H 0.27792 0.27672 0.90834 0.0
H986 H 0.28142 0.35678 0.96664 0.0
H987 H 0.28058 0.37691 0.89744 0.0
C988 C 0.3329 0.30382 1.01724 0.0
C989 C 0.3295 0.31728 1.05447 0.0
C990 C 0.31459 0.30004 0.98204 0.0
C991 C 0.29209 0.3092 0.98352 0.0
C992 C 0.28578 0.31845 1.02269 0.0
C993 C 0.30452 0.32277 1.05773 0.0
C994 C 0.27841 0.31054 0.86646 0.0
C995 C 0.28123 0.33983 0.86271 0.0
C996 C 0.27792 0.29834 0.90645 0.0
C997 C 0.2808 0.3155 0.94326 0.0
C998 C 0.27939 0.34281 0.9393 0.0
C999 C 0.27939 0.35471 0.89943 0.0
H1000 H 0.00558 0.29106 0.13549 0.0
H1001 H 0.92616 0.26582 0.21582 0.0
H1002 H 0.03609 0.29455 0.19753 0.0
H1003 H 0.95679 0.27065 0.27781 0.0
H1004 H 0.01386 0.28883 0.38761 0.0
H1005 H 0.98856 0.2601 0.3236 0.0
H1006 H 0.05513 0.33625 0.24724 0.0
H1007 H 0.08104 0.36413 0.31094 0.0
C1008 C -0.00564 0.28526 0.16624 0.0
C1009 C 0.96376 0.27897 0.17107 0.0
C1010 C 0.01191 0.2875 0.20182 0.0
C1011 C -0.00085 0.28369 0.2427 0.0
C1012 C 0.96747 0.27376 0.24689 0.0
C1013 C 0.94994 0.27137 0.21138 0.0
C1014 C 0.02373 0.29888 0.35709 0.0
C1015 C 0.04896 0.32902 0.35416 0.0
C1016 C 0.00912 0.2825 0.32044 0.0
C1017 C 0.01942 0.29607 0.28031 0.0
C1018 C 0.04657 0.32494 0.27751 0.0
C1019 C 0.0612 0.3412 0.31407 0.0
H1020 H 0.65776 0.97807 0.72667 0.0
H1021 H 0.67244 0.06065 0.66274 0.0
H1022 H 0.67185 0.9612 0.66206 0.0
H1023 H 0.68439 0.04298 0.59771 0.0
H1024 H 0.62814 0.9209 0.52954 0.0
H1025 H 0.64168 0.94025 0.60098 0.0
H1026 H 0.7124 0.02832 0.55223 0.0
H1027 H 0.69786 0.0089 0.48004 0.0
C1028 C 0.66464 -0.00704 0.69912 0.0
C1029 C 0.66315 0.0203 0.69945 0.0
C1030 C 0.67247 0.98315 0.66195 0.0
C1031 C 0.67858 0.00031 0.62431 0.0
C1032 C 0.67995 0.02908 0.62593 0.0
C1033 C 0.67249 0.03902 0.66313 0.0
C1034 C 0.64742 0.94399 0.53402 0.0
C1035 C 0.66151 0.96363 0.49927 0.0
C1036 C 0.65532 0.95517 0.57521 0.0
C1037 C 0.67766 0.98617 0.58247 0.0
C1038 C 0.69446 0.0046 0.5477 0.0
C1039 C 0.68627 -0.00651 0.5064 0.0
H1040 H 0.68441 0.66792 1.08416 0.0
H1041 H 0.63207 0.69503 1.00416 0.0
H1042 H 0.71589 0.67011 1.02312 0.0
H1043 H 0.66243 0.69623 0.94329 0.0
H1044 H 0.70914 0.69144 0.83423 0.0
H1045 H 0.70876 0.71414 0.90242 0.0
H1046 H 0.69992 0.63361 0.96601 0.0
H1047 H 0.70198 0.61183 0.89817 0.0
C1048 C 0.68021 0.67512 1.05374 0.0
C1049 C 0.65542 0.6806 1.04847 0.0
C1050 C 0.69811 0.67626 1.01881 0.0
C1051 C 0.69143 0.6829 0.97819 0.0
C1052 C 0.6685 0.69126 0.97402 0.0
C1053 C 0.6507 0.69012 1.0088 0.0
C1054 C 0.70854 0.67924 0.86286 0.0
C1055 C 0.70461 0.64943 0.86093 0.0
C1056 C 0.70807 0.69214 0.90194 0.0
C1057 C 0.70334 0.67528 0.93956 0.0
C1058 C 0.70348 0.64726 0.93776 0.0
C1059 C 0.70422 0.63451 0.89877 0.0
H1060 H 0.98056 0.68864 0.1325 0.0
H1061 H 0.0612 0.71701 0.2104 0.0
H1062 H 0.95069 0.68639 0.19505 0.0
H1063 H 0.03119 0.71327 0.273 0.0
H1064 H 0.9088 0.61642 0.30887 0.0
H1065 H 0.9331 0.64512 0.24484 0.0
H1066 H -0.00113 0.72206 0.3202 0.0
H1067 H 0.97525 0.69247 0.38451 0.0
C1068 C -0.00779 0.69548 0.16275 0.0
C1069 C 0.02293 0.70206 0.16689 0.0
C1070 C 0.97502 0.69393 0.19866 0.0
C1071 C 0.98823 0.69862 0.23918 0.0
C1072 C 0.0201 0.70933 0.24242 0.0
C1073 C 0.0373 0.71111 0.20654 0.0
C1074 C 0.92811 0.63967 0.31175 0.0
C1075 C 0.94072 0.65183 0.35154 0.0
C1076 C 0.9418 0.65643 0.275 0.0
C1077 C 0.96835 0.68579 0.27733 0.0
C1078 C 0.9788 0.69929 0.31736 0.0
C1079 C 0.96515 0.6824 0.3542 0.0
H1080 H 0.4574 0.09528 0.52312 0.0
H1081 H 0.53847 0.09313 0.48229 0.0
H1082 H 0.47491 0.10064 0.59736 0.0
H1083 H 0.55565 0.0979 0.55572 0.0
H1084 H 0.57716 0.08764 0.6981 0.0
H1085 H 0.55904 0.08331 0.62513 0.0
H1086 H 0.50397 0.12366 0.66218 0.0
H1087 H 0.52265 0.12832 0.73566 0.0
C1088 C 0.47904 0.09591 0.52919 0.0
C1089 C 0.49594 0.09374 0.49378 0.0
C1090 C 0.48948 0.09914 0.57307 0.0
C1091 C 0.51749 0.09989 0.58583 0.0
C1092 C 0.53402 0.09737 0.55022 0.0
C1093 C 0.52389 0.09468 0.50656 0.0
C1094 C 0.56138 0.09604 0.6914 0.0
C1095 C 0.55243 0.10886 0.72556 0.0
C1096 C 0.55064 0.09352 0.64808 0.0
C1097 C 0.52931 0.10304 0.63439 0.0
C1098 C 0.52002 0.11561 0.66875 0.0
C1099 C 0.53122 0.11858 0.71218 0.0
H1100 H 0.44979 0.56567 0.8117 0.0
H1101 H 0.37358 0.47824 0.84935 0.0
H1102 H 0.4617 0.58067 0.88594 0.0
H1103 H 0.38536 0.49326 0.92438 0.0
H1104 H 0.40222 0.53174 1.06625 0.0
H1105 H 0.38943 0.51588 0.9919 0.0
H1106 H 0.48053 0.58626 0.95433 0.0
H1107 H 0.49313 0.60186 1.02862 0.0
C1108 C 0.43505 0.54928 0.83547 0.0
C1109 C 0.41006 0.52033 0.82159 0.0
C1110 C 0.44226 0.55807 0.87958 0.0
C1111 C 0.42505 0.53891 0.91458 0.0
C1112 C 0.39987 0.50984 0.90069 0.0
C1113 C 0.39284 0.50088 0.85632 0.0
C1114 C 0.41985 0.5442 1.04253 0.0
C1115 C 0.44914 0.5688 1.05625 0.0
C1116 C 0.41236 0.53473 0.9985 0.0
C1117 C 0.43333 0.54912 0.96372 0.0
C1118 C 0.46262 0.57382 0.97766 0.0
C1119 C 0.47019 0.58307 1.0217 0.0
H1120 H 0.89416 0.37212 0.1921 0.0
H1121 H 0.87917 0.44408 0.14533 0.0
H1122 H 0.89199 0.38812 0.26527 0.0
H1123 H 0.87699 0.46017 0.2179 0.0
H1124 H 0.88544 0.49772 0.35832 0.0
H1125 H 0.88779 0.48186 0.28514 0.0
H1126 H 0.87673 0.39611 0.33145 0.0
H1127 H 0.87444 0.41207 0.40403 0.0
C1128 C 0.8902 0.39133 0.19669 0.0
C1129 C 0.88659 0.40598 0.16001 0.0
C1130 C 0.88885 0.40087 0.24001 0.0
C1131 C 0.8841 0.42617 0.25088 0.0
C1132 C 0.88082 0.44086 0.21391 0.0
C1133 C 0.88193 0.4312 0.1708 0.0
C1134 C 0.88319 0.47526 0.35348 0.0
C1135 C 0.87925 0.45663 0.3899 0.0
C1136 C 0.88458 0.46578 0.31015 0.0
C1137 C 0.8825 0.43688 0.299 0.0
C1138 C 0.87874 0.41849 0.33568 0.0
C1139 C 0.87713 0.42786 0.37879 0.0
H1140 H 0.50868 0.89799 0.51979 0.0
H1141 H 0.42119 0.88604 0.48033 0.0
H1142 H 0.4922 0.89371 0.59444 0.0
H1143 H 0.40468 0.88183 0.55421 0.0
H1144 H 0.38009 0.88904 0.6965 0.0
H1145 H 0.3972 0.89337 0.62258 0.0
H1146 H 0.46876 0.87451 0.66096 0.0
H1147 H 0.45141 0.87018 0.73494 0.0
C1148 C 0.48577 0.89433 0.52632 0.0
C1149 C 0.46677 0.89226 0.49128 0.0
C1150 C 0.47592 0.89173 0.57043 0.0
C1151 C 0.44632 0.88721 0.58365 0.0
C1152 C 0.42762 0.88544 0.54832 0.0
C1153 C 0.43732 0.88775 0.50446 0.0
C1154 C 0.39945 0.88558 0.6898 0.0
C1155 C 0.41359 0.87891 0.72439 0.0
C1156 C 0.4096 0.88805 0.64601 0.0
C1157 C 0.43511 0.88441 0.63248 0.0
C1158 C 0.44934 0.87791 0.66731 0.0
C1159 C 0.439 0.87518 0.71109 0.0
H1160 H 0.53427 0.42889 0.81209 0.0
H1161 H 0.61978 0.50862 0.84687 0.0
H1162 H 0.5227 0.41424 0.88664 0.0
H1163 H 0.60848 0.49361 0.92228 0.0
H1164 H 0.49291 0.39867 1.03057 0.0
H1165 H 0.50609 0.41423 0.95643 0.0
H1166 H 0.60227 0.46579 0.9891 0.0
H1167 H 0.58885 0.44963 1.06379 0.0
C1168 C 0.55113 0.44364 0.83522 0.0
C1169 C 0.57851 0.47038 0.82033 0.0
C1170 C 0.54418 0.43505 0.87956 0.0
C1171 C 0.5641 0.45202 0.91393 0.0
C1172 C 0.59174 0.4788 0.89909 0.0
C1173 C 0.59848 0.48774 0.85449 0.0
C1174 C 0.51712 0.41315 1.02269 0.0
C1175 C 0.53926 0.42193 1.0561 0.0
C1176 C 0.52498 0.42236 0.97865 0.0
C1177 C 0.55584 0.44189 0.96332 0.0
C1178 C 0.5781 0.45104 0.99689 0.0
C1179 C 0.57023 0.44134 1.04106 0.0
H1180 H 0.09823 0.47774 0.36124 0.0
H1181 H 0.10422 0.5617 0.40539 0.0
H1182 H 0.09498 0.49234 0.28781 0.0
H1183 H 0.1011 0.57646 0.33266 0.0
H1184 H 0.0853 0.59978 0.19293 0.0
H1185 H 0.08817 0.58485 0.26627 0.0
H1186 H 0.10203 0.51167 0.21995 0.0
H1187 H 0.09905 0.52665 0.14719 0.0
C1188 C 0.09916 0.49956 0.356 0.0
C1189 C 0.102 0.51814 0.39206 0.0
C1190 C 0.09722 0.50831 0.3125 0.0
C1191 C 0.09771 0.53638 0.30082 0.0
C1192 C 0.10036 0.55469 0.3372 0.0
C1193 C 0.10243 0.54603 0.38044 0.0
C1194 C 0.08912 0.58051 0.19779 0.0
C1195 C 0.09213 0.56519 0.16132 0.0
C1196 C 0.09088 0.5716 0.24125 0.0
C1197 C 0.09559 0.54636 0.25251 0.0
C1198 C 0.09831 0.53102 0.21574 0.0
C1199 C 0.0967 0.54 0.17249 0.0
loop_
_geom_bond_atom_site_label_1
_geom_bond_atom_site_label_2
_geom_bond_distance
_geom_bond_site_symmetry_2
_ccdc_geom_bond_type
Pr0 C2 2.880 . S
Pr0 O20 2.562 . S
Pr0 O21 2.490 . S
Pr0 O22 2.695 . S
Pr0 O23 2.512 . S
Pr0 O25 2.437 . S
Pr0 O28 2.436 . S
Pr0 O30 2.438 . S
Pr1 C11 2.880 . S
Pr1 O22 2.436 . S
Pr1 O24 2.438 . S
Pr1 O26 2.562 . S
Pr1 O27 2.490 . S
Pr1 O28 2.695 . S
Pr1 O29 2.512 . S
Pr1 O31 2.437 . S
C2 Pr0 2.880 . S
C2 C3 1.491 . S
C2 O20 1.254 . S
C2 O21 1.225 . S
C3 C2 1.491 . S
C3 C4 1.392 . S
C3 C8 1.356 . S
C4 C3 1.392 . S
C4 C5 1.368 . S
C4 H32 0.929 . S
C5 C4 1.368 . S
C5 C6 1.386 . S
C5 H33 0.929 . S
C6 C5 1.386 . S
C6 C7 1.373 . S
C7 C6 1.373 . S
C7 C8 1.409 . S
C7 H34 0.931 . S
C8 C3 1.356 . S
C8 C7 1.409 . S
C8 H35 0.930 . S
C9 O22 1.270 . S
C9 O23 1.248 . S
C10 O24 1.267 . S
C10 O25 1.278 . S
C11 Pr1 2.880 . S
C11 C12 1.491 . S
C11 O26 1.254 . S
C11 O27 1.225 . S
C12 C11 1.491 . S
C12 C13 1.392 . S
C12 C17 1.356 . S
C13 C12 1.392 . S
C13 C14 1.368 . S
C13 H36 0.929 . S
C14 C13 1.368 . S
C14 C15 1.386 . S
C14 H37 0.929 . S
C15 C14 1.386 . S
C15 C16 1.373 . S
C16 C15 1.373 . S
C16 C17 1.409 . S
C16 H38 0.931 . S
C17 C12 1.356 . S
C17 C16 1.409 . S
C17 H39 0.930 . S
C18 O28 1.270 . S
C18 O29 1.248 . S
C19 O30 1.267 . S
C19 O31 1.278 . S
O20 Pr0 2.562 . S
O20 C2 1.254 . S
O21 Pr0 2.490 . S
O21 C2 1.225 . S
O22 Pr0 2.695 . S
O22 Pr1 2.436 . S
O22 C9 1.270 . S
O23 Pr0 2.512 . S
O23 C9 1.248 . S
O24 Pr1 2.438 . S
O24 C10 1.267 . S
O25 Pr0 2.437 . S
O25 C10 1.278 . S
O26 Pr1 2.562 . S
O26 C11 1.254 . S
O27 Pr1 2.490 . S
O27 C11 1.225 . S
O28 Pr0 2.436 . S
O28 Pr1 2.695 . S
O28 C18 1.270 . S
O29 Pr1 2.512 . S
O29 C18 1.248 . S
O30 Pr0 2.438 . S
O30 C19 1.267 . S
O31 Pr1 2.437 . S
O31 C19 1.278 . S
H32 C4 0.929 . S
H33 C5 0.929 . S
H34 C7 0.931 . S
H35 C8 0.930 . S
H36 C13 0.929 . S
H37 C14 0.929 . S
H38 C16 0.931 . S
H39 C17 0.930 . S
Pr40 C42 2.880 . S
Pr40 O60 2.562 . S
Pr40 O61 2.490 . S
Pr40 O62 2.695 . S
Pr40 O63 2.512 . S
Pr40 O65 2.437 . S
Pr40 O68 2.436 . S
Pr40 O70 2.438 . S
Pr41 C51 2.880 . S
Pr41 O62 2.436 . S
Pr41 O64 2.438 . S
Pr41 O66 2.562 . S
Pr41 O67 2.490 . S
Pr41 O68 2.695 . S
Pr41 O69 2.512 . S
Pr41 O71 2.437 . S
C42 Pr40 2.880 . S
C42 C43 1.491 . S
C42 O60 1.254 . S
C42 O61 1.225 . S
C43 C42 1.491 . S
C43 C44 1.392 . S
C43 C48 1.356 . S
C44 C43 1.392 . S
C44 C45 1.368 . S
C44 H72 0.929 . S
C45 C44 1.368 . S
C45 C46 1.386 . S
C45 H73 0.929 . S
C46 C45 1.386 . S
C46 C47 1.373 . S
C47 C46 1.373 . S
C47 C48 1.409 . S
C47 H74 0.931 . S
C48 C43 1.356 . S
C48 C47 1.409 . S
C48 H75 0.930 . S
C49 O62 1.270 . S
C49 O63 1.248 . S
C50 O64 1.267 . S
C50 O65 1.278 . S
C51 Pr41 2.880 . S
C51 C52 1.491 . S
C51 O66 1.254 . S
C51 O67 1.225 . S
C52 C51 1.491 . S
C52 C53 1.392 . S
C52 C57 1.356 . S
C53 C52 1.392 . S
C53 C54 1.368 . S
C53 H76 0.929 . S
C54 C53 1.368 . S
C54 C55 1.386 . S
C54 H77 0.929 . S
C55 C54 1.386 . S
C55 C56 1.373 . S
C56 C55 1.373 . S
C56 C57 1.409 . S
C56 H78 0.931 . S
C57 C52 1.356 . S
C57 C56 1.409 . S
C57 H79 0.930 . S
C58 O68 1.270 . S
C58 O69 1.248 . S
C59 O70 1.267 . S
C59 O71 1.278 . S
O60 Pr40 2.562 . S
O60 C42 1.254 . S
O61 Pr40 2.490 . S
O61 C42 1.225 . S
O62 Pr40 2.695 . S
O62 Pr41 2.436 . S
O62 C49 1.270 . S
O63 Pr40 2.512 . S
O63 C49 1.248 . S
O64 Pr41 2.438 . S
O64 C50 1.267 . S
O65 Pr40 2.437 . S
O65 C50 1.278 . S
O66 Pr41 2.562 . S
O66 C51 1.254 . S
O67 Pr41 2.490 . S
O67 C51 1.225 . S
O68 Pr40 2.436 . S
O68 Pr41 2.695 . S
O68 C58 1.270 . S
O69 Pr41 2.512 . S
O69 C58 1.248 . S
O70 Pr40 2.438 . S
O70 C59 1.267 . S
O71 Pr41 2.437 . S
O71 C59 1.278 . S
H72 C44 0.929 . S
H73 C45 0.929 . S
H74 C47 0.931 . S
H75 C48 0.930 . S
H76 C53 0.929 . S
H77 C54 0.929 . S
H78 C56 0.931 . S
H79 C57 0.930 . S
Pr80 C82 2.880 1_556 S
Pr80 O100 2.562 . S
Pr80 O101 2.490 . S
Pr80 O102 2.695 . S
Pr80 O103 2.512 . S
Pr80 O105 2.437 . S
Pr80 O108 2.436 . S
Pr80 O110 2.438 . S
Pr81 C91 2.880 . S
Pr81 O102 2.436 . S
Pr81 O104 2.438 . S
Pr81 O106 2.562 . S
Pr81 O107 2.490 . S
Pr81 O108 2.695 . S
Pr81 O109 2.512 . S
Pr81 O111 2.437 . S
C82 Pr80 2.880 1_554 S
C82 C83 1.491 . S
C82 O100 1.254 1_554 S
C82 O101 1.225 1_554 S
C83 C82 1.491 . S
C83 C84 1.392 . S
C83 C88 1.356 . S
C84 C83 1.392 . S
C84 C85 1.368 . S
C84 H112 0.929 . S
C85 C84 1.368 . S
C85 C86 1.386 . S
C85 H113 0.929 . S
C86 C85 1.386 . S
C86 C87 1.373 . S
C87 C86 1.373 . S
C87 C88 1.409 . S
C87 H114 0.931 . S
C88 C83 1.356 . S
C88 C87 1.409 . S
C88 H115 0.930 . S
C89 O102 1.270 . S
C89 O103 1.248 . S
C90 O104 1.267 . S
C90 O105 1.278 . S
C91 Pr81 2.880 . S
C91 C92 1.491 . S
C91 O106 1.254 . S
C91 O107 1.225 . S
C92 C91 1.491 . S
C92 C93 1.392 . S
C92 C97 1.356 . S
C93 C92 1.392 . S
C93 C94 1.368 . S
C93 H116 0.929 . S
C94 C93 1.368 . S
C94 C95 1.386 . S
C94 H117 0.929 . S
C95 C94 1.386 . S
C95 C96 1.373 . S
C96 C95 1.373 . S
C96 C97 1.409 . S
C96 H118 0.931 . S
C97 C92 1.356 . S
C97 C96 1.409 . S
C97 H119 0.930 . S
C98 O108 1.270 . S
C98 O109 1.248 . S
C99 O110 1.267 . S
C99 O111 1.278 . S
O100 Pr80 2.562 . S
O100 C82 1.254 1_556 S
O101 Pr80 2.490 . S
O101 C82 1.225 1_556 S
O102 Pr80 2.695 . S
O102 Pr81 2.436 . S
O102 C89 1.270 . S
O103 Pr80 2.512 . S
O103 C89 1.248 . S
O104 Pr81 2.438 . S
O104 C90 1.267 . S
O105 Pr80 2.437 . S
O105 C90 1.278 . S
O106 Pr81 2.562 . S
O106 C91 1.254 . S
O107 Pr81 2.490 . S
O107 C91 1.225 . S
O108 Pr80 2.436 . S
O108 Pr81 2.695 . S
O108 C98 1.270 . S
O109 Pr81 2.512 . S
O109 C98 1.248 . S
O110 Pr80 2.438 . S
O110 C99 1.267 . S
O111 Pr81 2.437 . S
O111 C99 1.278 . S
H112 C84 0.929 . S
H113 C85 0.929 . S
H114 C87 0.931 . S
H115 C88 0.930 . S
H116 C93 0.929 . S
H117 C94 0.929 . S
H118 C96 0.931 . S
H119 C97 0.930 . S
Pr120 C122 2.880 . S
Pr120 O140 2.562 . S
Pr120 O141 2.490 . S
Pr120 O142 2.695 . S
Pr120 O143 2.512 . S
Pr120 O145 2.437 . S
Pr120 O148 2.436 . S
Pr120 O150 2.438 . S
Pr121 C131 2.880 . S
Pr121 O142 2.436 . S
Pr121 O144 2.438 . S
Pr121 O146 2.562 . S
Pr121 O147 2.490 . S
Pr121 O148 2.695 . S
Pr121 O149 2.512 . S
Pr121 O151 2.437 . S
C122 Pr120 2.880 . S
C122 C123 1.491 . S
C122 O140 1.254 . S
C122 O141 1.225 . S
C123 C122 1.491 . S
C123 C124 1.392 . S
C123 C128 1.356 . S
C124 C123 1.392 . S
C124 C125 1.368 . S
C124 H152 0.929 . S
C125 C124 1.368 . S
C125 C126 1.386 . S
C125 H153 0.929 . S
C126 C125 1.386 . S
C126 C127 1.373 . S
C127 C126 1.373 . S
C127 C128 1.409 . S
C127 H154 0.931 . S
C128 C123 1.356 . S
C128 C127 1.409 . S
C128 H155 0.930 . S
C129 O142 1.270 . S
C129 O143 1.248 . S
C130 O144 1.267 . S
C130 O145 1.278 . S
C131 Pr121 2.880 . S
C131 C132 1.491 . S
C131 O146 1.254 . S
C131 O147 1.225 . S
C132 C131 1.491 . S
C132 C133 1.392 . S
C132 C137 1.356 . S
C133 C132 1.392 . S
C133 C134 1.368 . S
C133 H156 0.929 . S
C134 C133 1.368 . S
C134 C135 1.386 . S
C134 H157 0.929 . S
C135 C134 1.386 . S
C135 C136 1.373 . S
C136 C135 1.373 . S
C136 C137 1.409 . S
C136 H158 0.931 . S
C137 C132 1.356 . S
C137 C136 1.409 . S
C137 H159 0.930 . S
C138 O148 1.270 . S
C138 O149 1.248 . S
C139 O150 1.267 . S
C139 O151 1.278 . S
O140 Pr120 2.562 . S
O140 C122 1.254 . S
O141 Pr120 2.490 . S
O141 C122 1.225 . S
O142 Pr120 2.695 . S
O142 Pr121 2.436 . S
O142 C129 1.270 . S
O143 Pr120 2.512 . S
O143 C129 1.248 . S
O144 Pr121 2.438 . S
O144 C130 1.267 . S
O145 Pr120 2.437 . S
O145 C130 1.278 . S
O146 Pr121 2.562 . S
O146 C131 1.254 . S
O147 Pr121 2.490 . S
O147 C131 1.225 . S
O148 Pr120 2.436 . S
O148 Pr121 2.695 . S
O148 C138 1.270 . S
O149 Pr121 2.512 . S
O149 C138 1.248 . S
O150 Pr120 2.438 . S
O150 C139 1.267 . S
O151 Pr121 2.437 . S
O151 C139 1.278 . S
H152 C124 0.929 . S
H153 C125 0.929 . S
H154 C127 0.931 . S
H155 C128 0.930 . S
H156 C133 0.929 . S
H157 C134 0.929 . S
H158 C136 0.931 . S
H159 C137 0.930 . S
Pr160 C162 2.880 . S
Pr160 O180 2.562 . S
Pr160 O181 2.490 . S
Pr160 O182 2.695 . S
Pr160 O183 2.512 . S
Pr160 O185 2.437 . S
Pr160 O188 2.436 . S
Pr160 O190 2.438 . S
Pr161 C171 2.880 . S
Pr161 O182 2.436 . S
Pr161 O184 2.438 . S
Pr161 O186 2.562 . S
Pr161 O187 2.490 . S
Pr161 O188 2.695 . S
Pr161 O189 2.512 . S
Pr161 O191 2.437 . S
C162 Pr160 2.880 . S
C162 C163 1.491 . S
C162 O180 1.254 . S
C162 O181 1.225 . S
C163 C162 1.491 . S
C163 C164 1.392 . S
C163 C168 1.356 . S
C164 C163 1.392 . S
C164 C165 1.368 . S
C164 H192 0.929 . S
C165 C164 1.368 . S
C165 C166 1.386 . S
C165 H193 0.929 . S
C166 C165 1.386 . S
C166 C167 1.373 . S
C167 C166 1.373 . S
C167 C168 1.409 . S
C167 H194 0.931 . S
C168 C163 1.356 . S
C168 C167 1.409 . S
C168 H195 0.930 . S
C169 O182 1.270 . S
C169 O183 1.248 . S
C170 O184 1.267 . S
C170 O185 1.278 . S
C171 Pr161 2.880 . S
C171 C172 1.491 . S
C171 O186 1.254 . S
C171 O187 1.225 . S
C172 C171 1.491 . S
C172 C173 1.392 . S
C172 C177 1.356 . S
C173 C172 1.392 . S
C173 C174 1.368 . S
C173 H196 0.929 . S
C174 C173 1.368 . S
C174 C175 1.386 . S
C174 H197 0.929 . S
C175 C174 1.386 . S
C175 C176 1.373 . S
C176 C175 1.373 . S
C176 C177 1.409 . S
C176 H198 0.931 . S
C177 C172 1.356 . S
C177 C176 1.409 . S
C177 H199 0.930 . S
C178 O188 1.270 . S
C178 O189 1.248 . S
C179 O190 1.267 . S
C179 O191 1.278 . S
O180 Pr160 2.562 . S
O180 C162 1.254 . S
O181 Pr160 2.490 . S
O181 C162 1.225 . S
O182 Pr160 2.695 . S
O182 Pr161 2.436 . S
O182 C169 1.270 . S
O183 Pr160 2.512 . S
O183 C169 1.248 . S
O184 Pr161 2.438 . S
O184 C170 1.267 . S
O185 Pr160 2.437 . S
O185 C170 1.278 . S
O186 Pr161 2.562 . S
O186 C171 1.254 . S
O187 Pr161 2.490 . S
O187 C171 1.225 . S
O188 Pr160 2.436 . S
O188 Pr161 2.695 . S
O188 C178 1.270 . S
O189 Pr161 2.512 . S
O189 C178 1.248 . S
O190 Pr160 2.438 . S
O190 C179 1.267 . S
O191 Pr161 2.437 . S
O191 C179 1.278 . S
H192 C164 0.929 . S
H193 C165 0.929 . S
H194 C167 0.931 . S
H195 C168 0.930 . S
H196 C173 0.929 . S
H197 C174 0.929 . S
H198 C176 0.931 . S
H199 C177 0.930 . S
Pr200 C202 2.880 1_556 S
Pr200 O220 2.562 . S
Pr200 O221 2.490 . S
Pr200 O222 2.695 . S
Pr200 O223 2.512 . S
Pr200 O225 2.437 . S
Pr200 O228 2.436 . S
Pr200 O230 2.438 . S
Pr201 C211 2.880 . S
Pr201 O222 2.436 . S
Pr201 O224 2.438 . S
Pr201 O226 2.562 . S
Pr201 O227 2.490 . S
Pr201 O228 2.695 . S
Pr201 O229 2.512 . S
Pr201 O231 2.437 . S
C202 Pr200 2.880 1_554 S
C202 C203 1.491 . S
C202 O220 1.254 1_554 S
C202 O221 1.225 1_554 S
C203 C202 1.491 . S
C203 C204 1.392 . S
C203 C208 1.356 . S
C204 C203 1.392 . S
C204 C205 1.368 . S
C204 H232 0.929 . S
C205 C204 1.368 . S
C205 C206 1.386 . S
C205 H233 0.929 . S
C206 C205 1.386 . S
C206 C207 1.373 . S
C207 C206 1.373 . S
C207 C208 1.409 . S
C207 H234 0.931 . S
C208 C203 1.356 . S
C208 C207 1.409 . S
C208 H235 0.930 . S
C209 O222 1.270 . S
C209 O223 1.248 . S
C210 O224 1.267 . S
C210 O225 1.278 . S
C211 Pr201 2.880 . S
C211 C212 1.491 . S
C211 O226 1.254 . S
C211 O227 1.225 . S
C212 C211 1.491 . S
C212 C213 1.392 . S
C212 C217 1.356 . S
C213 C212 1.392 . S
C213 C214 1.368 . S
C213 H236 0.929 . S
C214 C213 1.368 . S
C214 C215 1.386 . S
C214 H237 0.929 . S
C215 C214 1.386 . S
C215 C216 1.373 . S
C216 C215 1.373 . S
C216 C217 1.409 . S
C216 H238 0.931 . S
C217 C212 1.356 . S
C217 C216 1.409 . S
C217 H239 0.930 . S
C218 O228 1.270 . S
C218 O229 1.248 . S
C219 O230 1.267 . S
C219 O231 1.278 . S
O220 Pr200 2.562 . S
O220 C202 1.254 1_556 S
O221 Pr200 2.490 . S
O221 C202 1.225 1_556 S
O222 Pr200 2.695 . S
O222 Pr201 2.436 . S
O222 C209 1.270 . S
O223 Pr200 2.512 . S
O223 C209 1.248 . S
O224 Pr201 2.438 . S
O224 C210 1.267 . S
O225 Pr200 2.437 . S
O225 C210 1.278 . S
O226 Pr201 2.562 . S
O226 C211 1.254 . S
O227 Pr201 2.490 . S
O227 C211 1.225 . S
O228 Pr200 2.436 . S
O228 Pr201 2.695 . S
O228 C218 1.270 . S
O229 Pr201 2.512 . S
O229 C218 1.248 . S
O230 Pr200 2.438 . S
O230 C219 1.267 . S
O231 Pr201 2.437 . S
O231 C219 1.278 . S
H232 C204 0.929 . S
H233 C205 0.929 . S
H234 C207 0.931 . S
H235 C208 0.930 . S
H236 C213 0.929 . S
H237 C214 0.929 . S
H238 C216 0.931 . S
H239 C217 0.930 . S
Pr240 C242 2.880 . S
Pr240 O260 2.562 . S
Pr240 O261 2.490 . S
Pr240 O262 2.695 . S
Pr240 O263 2.512 . S
Pr240 O265 2.437 . S
Pr240 O268 2.436 . S
Pr240 O270 2.438 . S
Pr241 C251 2.880 . S
Pr241 O262 2.436 . S
Pr241 O264 2.438 . S
Pr241 O266 2.562 . S
Pr241 O267 2.490 . S
Pr241 O268 2.695 . S
Pr241 O269 2.512 . S
Pr241 O271 2.437 . S
C242 Pr240 2.880 . S
C242 C243 1.491 . S
C242 O260 1.254 . S
C242 O261 1.225 . S
C243 C242 1.491 . S
C243 C244 1.392 . S
C243 C248 1.356 . S
C244 C243 1.392 . S
C244 C245 1.368 . S
C244 H272 0.929 . S
C245 C244 1.368 . S
C245 C246 1.386 . S
C245 H273 0.929 . S
C246 C245 1.386 . S
C246 C247 1.373 . S
C247 C246 1.373 . S
C247 C248 1.409 . S
C247 H274 0.931 . S
C248 C243 1.356 . S
C248 C247 1.409 . S
C248 H275 0.930 . S
C249 O262 1.270 . S
C249 O263 1.248 . S
C250 O264 1.267 . S
C250 O265 1.278 . S
C251 Pr241 2.880 . S
C251 C252 1.491 . S
C251 O266 1.254 . S
C251 O267 1.225 . S
C252 C251 1.491 . S
C252 C253 1.392 . S
C252 C257 1.356 . S
C253 C252 1.392 . S
C253 C254 1.368 . S
C253 H276 0.929 . S
C254 C253 1.368 . S
C254 C255 1.386 . S
C254 H277 0.929 . S
C255 C254 1.386 . S
C255 C256 1.373 . S
C256 C255 1.373 . S
C256 C257 1.409 . S
C256 H278 0.931 . S
C257 C252 1.356 . S
C257 C256 1.409 . S
C257 H279 0.930 . S
C258 O268 1.270 . S
C258 O269 1.248 . S
C259 O270 1.267 . S
C259 O271 1.278 . S
O260 Pr240 2.562 . S
O260 C242 1.254 . S
O261 Pr240 2.490 . S
O261 C242 1.225 . S
O262 Pr240 2.695 . S
O262 Pr241 2.436 . S
O262 C249 1.270 . S
O263 Pr240 2.512 . S
O263 C249 1.248 . S
O264 Pr241 2.438 . S
O264 C250 1.267 . S
O265 Pr240 2.437 . S
O265 C250 1.278 . S
O266 Pr241 2.562 . S
O266 C251 1.254 . S
O267 Pr241 2.490 . S
O267 C251 1.225 . S
O268 Pr240 2.436 . S
O268 Pr241 2.695 . S
O268 C258 1.270 . S
O269 Pr241 2.512 . S
O269 C258 1.248 . S
O270 Pr240 2.438 . S
O270 C259 1.267 . S
O271 Pr241 2.437 . S
O271 C259 1.278 . S
H272 C244 0.929 . S
H273 C245 0.929 . S
H274 C247 0.931 . S
H275 C248 0.930 . S
H276 C253 0.929 . S
H277 C254 0.929 . S
H278 C256 0.931 . S
H279 C257 0.930 . S
Pr280 C282 2.880 . S
Pr280 O300 2.562 . S
Pr280 O301 2.490 . S
Pr280 O302 2.695 . S
Pr280 O303 2.512 . S
Pr280 O305 2.437 . S
Pr280 O308 2.436 . S
Pr280 O310 2.438 . S
Pr281 C291 2.880 . S
Pr281 O302 2.436 . S
Pr281 O304 2.438 . S
Pr281 O306 2.562 . S
Pr281 O307 2.490 . S
Pr281 O308 2.695 . S
Pr281 O309 2.512 . S
Pr281 O311 2.437 . S
C282 Pr280 2.880 . S
C282 C283 1.491 . S
C282 O300 1.254 . S
C282 O301 1.225 . S
C283 C282 1.491 . S
C283 C284 1.392 . S
C283 C288 1.356 . S
C284 C283 1.392 . S
C284 C285 1.368 . S
C284 H312 0.929 . S
C285 C284 1.368 . S
C285 C286 1.386 . S
C285 H313 0.929 . S
C286 C285 1.386 . S
C286 C287 1.373 . S
C287 C286 1.373 . S
C287 C288 1.409 . S
C287 H314 0.931 . S
C288 C283 1.356 . S
C288 C287 1.409 . S
C288 H315 0.930 . S
C289 O302 1.270 . S
C289 O303 1.248 . S
C290 O304 1.267 . S
C290 O305 1.278 . S
C291 Pr281 2.880 . S
C291 C292 1.491 . S
C291 O306 1.254 . S
C291 O307 1.225 . S
C292 C291 1.491 . S
C292 C293 1.392 . S
C292 C297 1.356 . S
C293 C292 1.392 . S
C293 C294 1.368 . S
C293 H316 0.929 . S
C294 C293 1.368 . S
C294 C295 1.386 . S
C294 H317 0.929 . S
C295 C294 1.386 . S
C295 C296 1.373 . S
C296 C295 1.373 . S
C296 C297 1.409 . S
C296 H318 0.931 . S
C297 C292 1.356 . S
C297 C296 1.409 . S
C297 H319 0.930 . S
C298 O308 1.270 . S
C298 O309 1.248 . S
C299 O310 1.267 . S
C299 O311 1.278 . S
O300 Pr280 2.562 . S
O300 C282 1.254 . S
O301 Pr280 2.490 . S
O301 C282 1.225 . S
O302 Pr280 2.695 . S
O302 Pr281 2.436 . S
O302 C289 1.270 . S
O303 Pr280 2.512 . S
O303 C289 1.248 . S
O304 Pr281 2.438 . S
O304 C290 1.267 . S
O305 Pr280 2.437 . S
O305 C290 1.278 . S
O306 Pr281 2.562 . S
O306 C291 1.254 . S
O307 Pr281 2.490 . S
O307 C291 1.225 . S
O308 Pr280 2.436 . S
O308 Pr281 2.695 . S
O308 C298 1.270 . S
O309 Pr281 2.512 . S
O309 C298 1.248 . S
O310 Pr280 2.438 . S
O310 C299 1.267 . S
O311 Pr281 2.437 . S
O311 C299 1.278 . S
H312 C284 0.929 . S
H313 C285 0.929 . S
H314 C287 0.931 . S
H315 C288 0.930 . S
H316 C293 0.929 . S
H317 C294 0.929 . S
H318 C296 0.931 . S
H319 C297 0.930 . S
Pr320 C322 2.880 1_554 S
Pr320 O340 2.562 . S
Pr320 O341 2.490 . S
Pr320 O342 2.695 . S
Pr320 O343 2.512 . S
Pr320 O345 2.437 . S
Pr320 O348 2.436 . S
Pr320 O350 2.438 . S
Pr321 C331 2.880 . S
Pr321 O342 2.436 . S
Pr321 O344 2.438 . S
Pr321 O346 2.562 . S
Pr321 O347 2.490 . S
Pr321 O348 2.695 . S
Pr321 O349 2.512 . S
Pr321 O351 2.437 . S
C322 Pr320 2.880 1_556 S
C322 C323 1.491 . S
C322 O340 1.254 1_556 S
C322 O341 1.225 1_556 S
C323 C322 1.491 . S
C323 C324 1.392 . S
C323 C328 1.356 . S
C324 C323 1.392 . S
C324 C325 1.368 . S
C324 H352 0.929 . S
C325 C324 1.368 . S
C325 C326 1.386 . S
C325 H353 0.929 . S
C326 C325 1.386 . S
C326 C327 1.373 . S
C327 C326 1.373 . S
C327 C328 1.409 . S
C327 H354 0.931 . S
C328 C323 1.356 . S
C328 C327 1.409 . S
C328 H355 0.930 . S
C329 O342 1.270 . S
C329 O343 1.248 . S
C330 O344 1.267 . S
C330 O345 1.278 . S
C331 Pr321 2.880 . S
C331 C332 1.491 . S
C331 O346 1.254 . S
C331 O347 1.225 . S
C332 C331 1.491 . S
C332 C333 1.392 . S
C332 C337 1.356 . S
C333 C332 1.392 . S
C333 C334 1.368 . S
C333 H356 0.929 . S
C334 C333 1.368 . S
C334 C335 1.386 . S
C334 H357 0.929 . S
C335 C334 1.386 . S
C335 C336 1.373 . S
C336 C335 1.373 . S
C336 C337 1.409 . S
C336 H358 0.931 . S
C337 C332 1.356 . S
C337 C336 1.409 . S
C337 H359 0.930 . S
C338 O348 1.270 . S
C338 O349 1.248 . S
C339 O350 1.267 . S
C339 O351 1.278 . S
O340 Pr320 2.562 . S
O340 C322 1.254 1_554 S
O341 Pr320 2.490 . S
O341 C322 1.225 1_554 S
O342 Pr320 2.695 . S
O342 Pr321 2.436 . S
O342 C329 1.270 . S
O343 Pr320 2.512 . S
O343 C329 1.248 . S
O344 Pr321 2.438 . S
O344 C330 1.267 . S
O345 Pr320 2.437 . S
O345 C330 1.278 . S
O346 Pr321 2.562 . S
O346 C331 1.254 . S
O347 Pr321 2.490 . S
O347 C331 1.225 . S
O348 Pr320 2.436 . S
O348 Pr321 2.695 . S
O348 C338 1.270 . S
O349 Pr321 2.512 . S
O349 C338 1.248 . S
O350 Pr320 2.438 . S
O350 C339 1.267 . S
O351 Pr321 2.437 . S
O351 C339 1.278 . S
H352 C324 0.929 . S
H353 C325 0.929 . S
H354 C327 0.931 . S
H355 C328 0.930 . S
H356 C333 0.929 . S
H357 C334 0.929 . S
H358 C336 0.931 . S
H359 C337 0.930 . S
Pr360 C362 2.880 . S
Pr360 O380 2.562 . S
Pr360 O381 2.490 . S
Pr360 O382 2.695 . S
Pr360 O383 2.512 . S
Pr360 O385 2.437 . S
Pr360 O388 2.436 . S
Pr360 O390 2.438 . S
Pr361 C371 2.880 . S
Pr361 O382 2.436 . S
Pr361 O384 2.438 . S
Pr361 O386 2.562 . S
Pr361 O387 2.490 . S
Pr361 O388 2.695 . S
Pr361 O389 2.512 . S
Pr361 O391 2.437 . S
C362 Pr360 2.880 . S
C362 C363 1.491 . S
C362 O380 1.254 . S
C362 O381 1.225 . S
C363 C362 1.491 . S
C363 C364 1.392 . S
C363 C368 1.356 . S
C364 C363 1.392 . S
C364 C365 1.368 . S
C364 H392 0.929 . S
C365 C364 1.368 . S
C365 C366 1.386 . S
C365 H393 0.929 . S
C366 C365 1.386 . S
C366 C367 1.373 . S
C367 C366 1.373 . S
C367 C368 1.409 . S
C367 H394 0.931 . S
C368 C363 1.356 . S
C368 C367 1.409 . S
C368 H395 0.930 . S
C369 O382 1.270 . S
C369 O383 1.248 . S
C370 O384 1.267 . S
C370 O385 1.278 . S
C371 Pr361 2.880 . S
C371 C372 1.491 . S
C371 O386 1.254 . S
C371 O387 1.225 . S
C372 C371 1.491 . S
C372 C373 1.392 . S
C372 C377 1.356 . S
C373 C372 1.392 . S
C373 C374 1.368 . S
C373 H396 0.929 . S
C374 C373 1.368 . S
C374 C375 1.386 . S
C374 H397 0.929 . S
C375 C374 1.386 . S
C375 C376 1.373 . S
C376 C375 1.373 . S
C376 C377 1.409 . S
C376 H398 0.931 . S
C377 C372 1.356 . S
C377 C376 1.409 . S
C377 H399 0.930 . S
C378 O388 1.270 . S
C378 O389 1.248 . S
C379 O390 1.267 . S
C379 O391 1.278 . S
O380 Pr360 2.562 . S
O380 C362 1.254 . S
O381 Pr360 2.490 . S
O381 C362 1.225 . S
O382 Pr360 2.695 . S
O382 Pr361 2.436 . S
O382 C369 1.270 . S
O383 Pr360 2.512 . S
O383 C369 1.248 . S
O384 Pr361 2.438 . S
O384 C370 1.267 . S
O385 Pr360 2.437 . S
O385 C370 1.278 . S
O386 Pr361 2.562 . S
O386 C371 1.254 . S
O387 Pr361 2.490 . S
O387 C371 1.225 . S
O388 Pr360 2.436 . S
O388 Pr361 2.695 . S
O388 C378 1.270 . S
O389 Pr361 2.512 . S
O389 C378 1.248 . S
O390 Pr360 2.438 . S
O390 C379 1.267 . S
O391 Pr361 2.437 . S
O391 C379 1.278 . S
H392 C364 0.929 . S
H393 C365 0.929 . S
H394 C367 0.931 . S
H395 C368 0.930 . S
H396 C373 0.929 . S
H397 C374 0.929 . S
H398 C376 0.931 . S
H399 C377 0.930 . S
Pr400 C402 2.880 . S
Pr400 O420 2.562 . S
Pr400 O421 2.490 . S
Pr400 O422 2.695 . S
Pr400 O423 2.512 . S
Pr400 O425 2.437 . S
Pr400 O428 2.436 . S
Pr400 O430 2.438 . S
Pr401 C411 2.880 . S
Pr401 O422 2.436 . S
Pr401 O424 2.438 . S
Pr401 O426 2.562 . S
Pr401 O427 2.490 . S
Pr401 O428 2.695 . S
Pr401 O429 2.512 . S
Pr401 O431 2.437 . S
C402 Pr400 2.880 . S
C402 C403 1.491 . S
C402 O420 1.254 . S
C402 O421 1.225 . S
C403 C402 1.491 . S
C403 C404 1.392 . S
C403 C408 1.356 . S
C404 C403 1.392 . S
C404 C405 1.368 . S
C404 H432 0.929 . S
C405 C404 1.368 . S
C405 C406 1.386 . S
C405 H433 0.929 . S
C406 C405 1.386 . S
C406 C407 1.373 . S
C407 C406 1.373 . S
C407 C408 1.409 . S
C407 H434 0.931 . S
C408 C403 1.356 . S
C408 C407 1.409 . S
C408 H435 0.930 . S
C409 O422 1.270 . S
C409 O423 1.248 . S
C410 O424 1.267 . S
C410 O425 1.278 . S
C411 Pr401 2.880 . S
C411 C412 1.491 . S
C411 O426 1.254 . S
C411 O427 1.225 . S
C412 C411 1.491 . S
C412 C413 1.392 . S
C412 C417 1.356 . S
C413 C412 1.392 . S
C413 C414 1.368 . S
C413 H436 0.929 . S
C414 C413 1.368 . S
C414 C415 1.386 . S
C414 H437 0.929 . S
C415 C414 1.386 . S
C415 C416 1.373 . S
C416 C415 1.373 . S
C416 C417 1.409 . S
C416 H438 0.931 . S
C417 C412 1.356 . S
C417 C416 1.409 . S
C417 H439 0.930 . S
C418 O428 1.270 . S
C418 O429 1.248 . S
C419 O430 1.267 . S
C419 O431 1.278 . S
O420 Pr400 2.562 . S
O420 C402 1.254 . S
O421 Pr400 2.490 . S
O421 C402 1.225 . S
O422 Pr400 2.695 . S
O422 Pr401 2.436 . S
O422 C409 1.270 . S
O423 Pr400 2.512 . S
O423 C409 1.248 . S
O424 Pr401 2.438 . S
O424 C410 1.267 . S
O425 Pr400 2.437 . S
O425 C410 1.278 . S
O426 Pr401 2.562 . S
O426 C411 1.254 . S
O427 Pr401 2.490 . S
O427 C411 1.225 . S
O428 Pr400 2.436 . S
O428 Pr401 2.695 . S
O428 C418 1.270 . S
O429 Pr401 2.512 . S
O429 C418 1.248 . S
O430 Pr400 2.438 . S
O430 C419 1.267 . S
O431 Pr401 2.437 . S
O431 C419 1.278 . S
H432 C404 0.929 . S
H433 C405 0.929 . S
H434 C407 0.931 . S
H435 C408 0.930 . S
H436 C413 0.929 . S
H437 C414 0.929 . S
H438 C416 0.931 . S
H439 C417 0.930 . S
Pr440 C442 2.880 1_554 S
Pr440 O460 2.562 . S
Pr440 O461 2.490 . S
Pr440 O462 2.695 . S
Pr440 O463 2.512 . S
Pr440 O465 2.437 . S
Pr440 O468 2.436 . S
Pr440 O470 2.438 . S
Pr441 C451 2.880 . S
Pr441 O462 2.436 . S
Pr441 O464 2.438 . S
Pr441 O466 2.562 . S
Pr441 O467 2.490 . S
Pr441 O468 2.695 . S
Pr441 O469 2.512 . S
Pr441 O471 2.437 . S
C442 Pr440 2.880 1_556 S
C442 C443 1.491 . S
C442 O460 1.254 1_556 S
C442 O461 1.225 1_556 S
C443 C442 1.491 . S
C443 C444 1.392 . S
C443 C448 1.356 . S
C444 C443 1.392 . S
C444 C445 1.368 . S
C444 H472 0.929 . S
C445 C444 1.368 . S
C445 C446 1.386 . S
C445 H473 0.929 . S
C446 C445 1.386 . S
C446 C447 1.373 . S
C447 C446 1.373 . S
C447 C448 1.409 . S
C447 H474 0.931 . S
C448 C443 1.356 . S
C448 C447 1.409 . S
C448 H475 0.930 . S
C449 O462 1.270 . S
C449 O463 1.248 . S
C450 O464 1.267 . S
C450 O465 1.278 . S
C451 Pr441 2.880 . S
C451 C452 1.491 . S
C451 O466 1.254 . S
C451 O467 1.225 . S
C452 C451 1.491 . S
C452 C453 1.392 . S
C452 C457 1.356 . S
C453 C452 1.392 . S
C453 C454 1.368 . S
C453 H476 0.929 . S
C454 C453 1.368 . S
C454 C455 1.386 . S
C454 H477 0.929 . S
C455 C454 1.386 . S
C455 C456 1.373 . S
C456 C455 1.373 . S
C456 C457 1.409 . S
C456 H478 0.931 . S
C457 C452 1.356 . S
C457 C456 1.409 . S
C457 H479 0.930 . S
C458 O468 1.270 . S
C458 O469 1.248 . S
C459 O470 1.267 . S
C459 O471 1.278 . S
O460 Pr440 2.562 . S
O460 C442 1.254 1_554 S
O461 Pr440 2.490 . S
O461 C442 1.225 1_554 S
O462 Pr440 2.695 . S
O462 Pr441 2.436 . S
O462 C449 1.270 . S
O463 Pr440 2.512 . S
O463 C449 1.248 . S
O464 Pr441 2.438 . S
O464 C450 1.267 . S
O465 Pr440 2.437 . S
O465 C450 1.278 . S
O466 Pr441 2.562 . S
O466 C451 1.254 . S
O467 Pr441 2.490 . S
O467 C451 1.225 . S
O468 Pr440 2.436 . S
O468 Pr441 2.695 . S
O468 C458 1.270 . S
O469 Pr441 2.512 . S
O469 C458 1.248 . S
O470 Pr440 2.438 . S
O470 C459 1.267 . S
O471 Pr441 2.437 . S
O471 C459 1.278 . S
H472 C444 0.929 . S
H473 C445 0.929 . S
H474 C447 0.931 . S
H475 C448 0.930 . S
H476 C453 0.929 . S
H477 C454 0.929 . S
H478 C456 0.931 . S
H479 C457 0.930 . S
H480 C488 0.950 . S
H481 C493 0.950 . S
H482 C490 0.950 . S
H483 C492 0.950 . S
H484 C494 0.950 . S
H485 C496 0.950 . S
H486 C498 0.950 . S
H487 C499 0.950 . S
C488 H480 0.950 . S
C488 C489 1.386 . S
C488 C490 1.391 . S
C489 C488 1.386 . S
C489 C493 1.393 . S
C490 H482 0.950 . S
C490 C488 1.391 . S
C490 C491 1.400 . S
C491 C490 1.400 . S
C491 C492 1.398 . S
C491 C497 1.491 . S
C492 H483 0.950 . S
C492 C491 1.398 . S
C492 C493 1.391 . S
C493 H481 0.950 . S
C493 C489 1.393 . S
C493 C492 1.391 . S
C494 H484 0.950 . S
C494 C495 1.386 . S
C494 C496 1.391 . S
C495 C494 1.386 . S
C495 C499 1.393 . S
C496 H485 0.950 . S
C496 C494 1.391 . S
C496 C497 1.400 . S
C497 C491 1.491 . S
C497 C496 1.400 . S
C497 C498 1.398 . S
C498 H486 0.950 . S
C498 C497 1.398 . S
C498 C499 1.391 . S
C499 H487 0.950 . S
C499 C495 1.393 . S
C499 C498 1.391 . S
H500 C508 0.950 . S
H501 C513 0.950 . S
H502 C510 0.950 . S
H503 C512 0.950 . S
H504 C514 0.950 . S
H505 C516 0.950 . S
H506 C518 0.950 . S
H507 C519 0.950 . S
C508 H500 0.950 . S
C508 C509 1.386 . S
C508 C510 1.391 . S
C509 C508 1.386 . S
C509 C513 1.393 . S
C510 H502 0.950 . S
C510 C508 1.391 . S
C510 C511 1.400 . S
C511 C510 1.400 . S
C511 C512 1.398 . S
C511 C517 1.491 . S
C512 H503 0.950 . S
C512 C511 1.398 . S
C512 C513 1.391 . S
C513 H501 0.950 . S
C513 C509 1.393 . S
C513 C512 1.391 . S
C514 H504 0.950 . S
C514 C515 1.386 . S
C514 C516 1.391 . S
C515 C514 1.386 . S
C515 C519 1.393 . S
C516 H505 0.950 . S
C516 C514 1.391 . S
C516 C517 1.400 . S
C517 C511 1.491 . S
C517 C516 1.400 . S
C517 C518 1.398 . S
C518 H506 0.950 . S
C518 C517 1.398 . S
C518 C519 1.391 . S
C519 H507 0.950 . S
C519 C515 1.393 . S
C519 C518 1.391 . S
H520 C528 0.950 . S
H521 C533 0.950 . S
H522 C530 0.950 . S
H523 C532 0.950 . S
H524 C534 0.950 . S
H525 C536 0.950 . S
H526 C538 0.950 . S
H527 C539 0.950 . S
C528 H520 0.950 . S
C528 C529 1.386 . S
C528 C530 1.391 . S
C529 C528 1.386 . S
C529 C533 1.393 . S
C530 H522 0.950 . S
C530 C528 1.391 . S
C530 C531 1.400 . S
C531 C530 1.400 . S
C531 C532 1.398 . S
C531 C537 1.491 . S
C532 H523 0.950 . S
C532 C531 1.398 . S
C532 C533 1.391 . S
C533 H521 0.950 . S
C533 C529 1.393 . S
C533 C532 1.391 . S
C534 H524 0.950 . S
C534 C535 1.386 . S
C534 C536 1.391 . S
C535 C534 1.386 . S
C535 C539 1.393 . S
C536 H525 0.950 . S
C536 C534 1.391 . S
C536 C537 1.400 . S
C537 C531 1.491 . S
C537 C536 1.400 . S
C537 C538 1.398 . S
C538 H526 0.950 . S
C538 C537 1.398 . S
C538 C539 1.391 . S
C539 H527 0.950 . S
C539 C535 1.393 . S
C539 C538 1.391 . S
H540 C548 0.950 . S
H541 C553 0.950 . S
H542 C550 0.950 . S
H543 C552 0.950 . S
H544 C554 0.950 . S
H545 C556 0.950 . S
H546 C558 0.950 . S
H547 C559 0.950 . S
C548 H540 0.950 . S
C548 C549 1.386 . S
C548 C550 1.391 . S
C549 C548 1.386 . S
C549 C553 1.393 . S
C550 H542 0.950 . S
C550 C548 1.391 . S
C550 C551 1.400 . S
C551 C550 1.400 . S
C551 C552 1.398 . S
C551 C557 1.491 . S
C552 H543 0.950 . S
C552 C551 1.398 . S
C552 C553 1.391 . S
C553 H541 0.950 . S
C553 C549 1.393 . S
C553 C552 1.391 . S
C554 H544 0.950 . S
C554 C555 1.386 . S
C554 C556 1.391 . S
C555 C554 1.386 . S
C555 C559 1.393 . S
C556 H545 0.950 . S
C556 C554 1.391 . S
C556 C557 1.400 . S
C557 C551 1.491 . S
C557 C556 1.400 . S
C557 C558 1.398 . S
C558 H546 0.950 . S
C558 C557 1.398 . S
C558 C559 1.391 . S
C559 H547 0.950 . S
C559 C555 1.393 . S
C559 C558 1.391 . S
H560 C568 0.950 . S
H561 C573 0.950 . S
H562 C570 0.950 . S
H563 C572 0.950 . S
H564 C574 0.950 . S
H565 C576 0.950 . S
H566 C578 0.950 . S
H567 C579 0.950 . S
C568 H560 0.950 . S
C568 C569 1.386 . S
C568 C570 1.391 . S
C569 C568 1.386 . S
C569 C573 1.393 . S
C570 H562 0.950 . S
C570 C568 1.391 . S
C570 C571 1.400 . S
C571 C570 1.400 . S
C571 C572 1.398 . S
C571 C577 1.491 . S
C572 H563 0.950 . S
C572 C571 1.398 . S
C572 C573 1.391 . S
C573 H561 0.950 . S
C573 C569 1.393 . S
C573 C572 1.391 . S
C574 H564 0.950 . S
C574 C575 1.386 . S
C574 C576 1.391 . S
C575 C574 1.386 . S
C575 C579 1.393 . S
C576 H565 0.950 . S
C576 C574 1.391 . S
C576 C577 1.400 . S
C577 C571 1.491 . S
C577 C576 1.400 . S
C577 C578 1.398 . S
C578 H566 0.950 . S
C578 C577 1.398 . S
C578 C579 1.391 . S
C579 H567 0.950 . S
C579 C575 1.393 . S
C579 C578 1.391 . S
H580 C588 0.950 . S
H581 C593 0.950 . S
H582 C590 0.950 . S
H583 C592 0.950 . S
H584 C594 0.950 . S
H585 C596 0.950 . S
H586 C598 0.950 . S
H587 C599 0.950 . S
C588 H580 0.950 . S
C588 C589 1.386 . S
C588 C590 1.391 . S
C589 C588 1.386 . S
C589 C593 1.393 . S
C590 H582 0.950 . S
C590 C588 1.391 . S
C590 C591 1.400 . S
C591 C590 1.400 . S
C591 C592 1.398 . S
C591 C597 1.491 . S
C592 H583 0.950 . S
C592 C591 1.398 . S
C592 C593 1.391 . S
C593 H581 0.950 . S
C593 C589 1.393 . S
C593 C592 1.391 . S
C594 H584 0.950 . S
C594 C595 1.386 . S
C594 C596 1.391 . S
C595 C594 1.386 . S
C595 C599 1.393 . S
C596 H585 0.950 . S
C596 C594 1.391 . S
C596 C597 1.400 . S
C597 C591 1.491 . S
C597 C596 1.400 . S
C597 C598 1.398 . S
C598 H586 0.950 . S
C598 C597 1.398 . S
C598 C599 1.391 . S
C599 H587 0.950 . S
C599 C595 1.393 . S
C599 C598 1.391 . S
H600 C608 0.950 . S
H601 C613 0.950 . S
H602 C610 0.950 . S
H603 C612 0.950 1_554 S
H604 C614 0.950 . S
H605 C616 0.950 . S
H606 C618 0.950 1_556 S
H607 C619 0.950 . S
C608 H600 0.950 . S
C608 C609 1.386 . S
C608 C610 1.391 . S
C609 C608 1.386 . S
C609 C613 1.393 . S
C610 H602 0.950 . S
C610 C608 1.391 . S
C610 C611 1.400 . S
C611 C610 1.400 . S
C611 C612 1.398 . S
C611 C617 1.491 1_556 S
C612 H603 0.950 1_556 S
C612 C611 1.398 . S
C612 C613 1.391 . S
C613 H601 0.950 . S
C613 C609 1.393 . S
C613 C612 1.391 . S
C614 H604 0.950 . S
C614 C615 1.386 . S
C614 C616 1.391 . S
C615 C614 1.386 . S
C615 C619 1.393 . S
C616 H605 0.950 . S
C616 C614 1.391 . S
C616 C617 1.400 . S
C617 C611 1.491 1_554 S
C617 C616 1.400 . S
C617 C618 1.398 . S
C618 H606 0.950 1_554 S
C618 C617 1.398 . S
C618 C619 1.391 . S
C619 H607 0.950 . S
C619 C615 1.393 . S
C619 C618 1.391 . S
H620 C628 0.950 . S
H621 C633 0.950 . S
H622 C630 0.950 . S
H623 C632 0.950 . S
H624 C634 0.950 . S
H625 C636 0.950 . S
H626 C638 0.950 . S
H627 C639 0.950 . S
C628 H620 0.950 . S
C628 C629 1.386 . S
C628 C630 1.391 . S
C629 C628 1.386 . S
C629 C633 1.393 . S
C630 H622 0.950 . S
C630 C628 1.391 . S
C630 C631 1.400 . S
C631 C630 1.400 . S
C631 C632 1.398 . S
C631 C637 1.491 . S
C632 H623 0.950 . S
C632 C631 1.398 . S
C632 C633 1.391 . S
C633 H621 0.950 . S
C633 C629 1.393 . S
C633 C632 1.391 . S
C634 H624 0.950 . S
C634 C635 1.386 . S
C634 C636 1.391 . S
C635 C634 1.386 . S
C635 C639 1.393 . S
C636 H625 0.950 . S
C636 C634 1.391 . S
C636 C637 1.400 . S
C637 C631 1.491 . S
C637 C636 1.400 . S
C637 C638 1.398 . S
C638 H626 0.950 . S
C638 C637 1.398 . S
C638 C639 1.391 . S
C639 H627 0.950 . S
C639 C635 1.393 . S
C639 C638 1.391 . S
H640 C648 0.950 . S
H641 C653 0.950 . S
H642 C650 0.950 . S
H643 C652 0.950 . S
H644 C654 0.950 . S
H645 C656 0.950 . S
H646 C658 0.950 . S
H647 C659 0.950 . S
C648 H640 0.950 . S
C648 C649 1.386 . S
C648 C650 1.391 . S
C649 C648 1.386 . S
C649 C653 1.393 . S
C650 H642 0.950 . S
C650 C648 1.391 . S
C650 C651 1.400 . S
C651 C650 1.400 . S
C651 C652 1.398 . S
C651 C657 1.491 . S
C652 H643 0.950 . S
C652 C651 1.398 . S
C652 C653 1.391 . S
C653 H641 0.950 . S
C653 C649 1.393 . S
C653 C652 1.391 . S
C654 H644 0.950 . S
C654 C655 1.386 . S
C654 C656 1.391 . S
C655 C654 1.386 . S
C655 C659 1.393 . S
C656 H645 0.950 . S
C656 C654 1.391 . S
C656 C657 1.400 . S
C657 C651 1.491 . S
C657 C656 1.400 . S
C657 C658 1.398 . S
C658 H646 0.950 . S
C658 C657 1.398 . S
C658 C659 1.391 . S
C659 H647 0.950 . S
C659 C655 1.393 . S
C659 C658 1.391 . S
H660 C668 0.950 . S
H661 C673 0.950 . S
H662 C670 0.950 . S
H663 C672 0.950 . S
H664 C674 0.950 . S
H665 C676 0.950 . S
H666 C678 0.950 . S
H667 C679 0.950 . S
C668 H660 0.950 . S
C668 C669 1.386 . S
C668 C670 1.391 . S
C669 C668 1.386 . S
C669 C673 1.393 . S
C670 H662 0.950 . S
C670 C668 1.391 . S
C670 C671 1.400 . S
C671 C670 1.400 . S
C671 C672 1.398 . S
C671 C677 1.491 1_556 S
C672 H663 0.950 . S
C672 C671 1.398 . S
C672 C673 1.391 . S
C673 H661 0.950 . S
C673 C669 1.393 . S
C673 C672 1.391 . S
C674 H664 0.950 . S
C674 C675 1.386 . S
C674 C676 1.391 . S
C675 C674 1.386 . S
C675 C679 1.393 . S
C676 H665 0.950 . S
C676 C674 1.391 . S
C676 C677 1.400 . S
C677 C671 1.491 1_554 S
C677 C676 1.400 . S
C677 C678 1.398 . S
C678 H666 0.950 . S
C678 C677 1.398 . S
C678 C679 1.391 . S
C679 H667 0.950 . S
C679 C675 1.393 . S
C679 C678 1.391 . S
H680 C688 0.950 . S
H681 C693 0.950 . S
H682 C690 0.950 . S
H683 C692 0.950 . S
H684 C694 0.950 . S
H685 C696 0.950 . S
H686 C698 0.950 . S
H687 C699 0.950 . S
C688 H680 0.950 . S
C688 C689 1.386 . S
C688 C690 1.391 . S
C689 C688 1.386 . S
C689 C693 1.393 . S
C690 H682 0.950 . S
C690 C688 1.391 . S
C690 C691 1.400 . S
C691 C690 1.400 . S
C691 C692 1.398 . S
C691 C697 1.491 . S
C692 H683 0.950 . S
C692 C691 1.398 . S
C692 C693 1.391 . S
C693 H681 0.950 . S
C693 C689 1.393 . S
C693 C692 1.391 . S
C694 H684 0.950 . S
C694 C695 1.386 . S
C694 C696 1.391 . S
C695 C694 1.386 . S
C695 C699 1.393 . S
C696 H685 0.950 . S
C696 C694 1.391 . S
C696 C697 1.400 . S
C697 C691 1.491 . S
C697 C696 1.400 . S
C697 C698 1.398 . S
C698 H686 0.950 . S
C698 C697 1.398 . S
C698 C699 1.391 . S
C699 H687 0.950 . S
C699 C695 1.393 . S
C699 C698 1.391 . S
H700 C708 0.950 . S
H701 C713 0.950 . S
H702 C710 0.950 . S
H703 C712 0.950 . S
H704 C714 0.950 . S
H705 C716 0.950 . S
H706 C718 0.950 . S
H707 C719 0.950 . S
C708 H700 0.950 . S
C708 C709 1.386 . S
C708 C710 1.391 . S
C709 C708 1.386 . S
C709 C713 1.393 . S
C710 H702 0.950 . S
C710 C708 1.391 . S
C710 C711 1.400 . S
C711 C710 1.400 . S
C711 C712 1.398 . S
C711 C717 1.491 . S
C712 H703 0.950 . S
C712 C711 1.398 . S
C712 C713 1.391 . S
C713 H701 0.950 . S
C713 C709 1.393 . S
C713 C712 1.391 . S
C714 H704 0.950 . S
C714 C715 1.386 . S
C714 C716 1.391 . S
C715 C714 1.386 . S
C715 C719 1.393 . S
C716 H705 0.950 . S
C716 C714 1.391 . S
C716 C717 1.400 . S
C717 C711 1.491 . S
C717 C716 1.400 . S
C717 C718 1.398 . S
C718 H706 0.950 . S
C718 C717 1.398 . S
C718 C719 1.391 . S
C719 H707 0.950 . S
C719 C715 1.393 . S
C719 C718 1.391 . S
H720 C728 0.950 . S
H721 C733 0.950 . S
H722 C730 0.950 . S
H723 C732 0.950 . S
H724 C734 0.950 . S
H725 C736 0.950 . S
H726 C738 0.950 . S
H727 C739 0.950 . S
C728 H720 0.950 . S
C728 C729 1.386 . S
C728 C730 1.391 . S
C729 C728 1.386 . S
C729 C733 1.393 . S
C730 H722 0.950 . S
C730 C728 1.391 . S
C730 C731 1.400 . S
C731 C730 1.400 . S
C731 C732 1.398 1_565 S
C731 C737 1.491 1_566 S
C732 H723 0.950 . S
C732 C731 1.398 1_545 S
C732 C733 1.391 1_545 S
C733 H721 0.950 . S
C733 C729 1.393 . S
C733 C732 1.391 1_565 S
C734 H724 0.950 . S
C734 C735 1.386 . S
C734 C736 1.391 . S
C735 C734 1.386 . S
C735 C739 1.393 . S
C736 H725 0.950 . S
C736 C734 1.391 . S
C736 C737 1.400 . S
C737 C731 1.491 1_544 S
C737 C736 1.400 . S
C737 C738 1.398 1_545 S
C738 H726 0.950 . S
C738 C737 1.398 1_565 S
C738 C739 1.391 1_565 S
C739 H727 0.950 . S
C739 C735 1.393 . S
C739 C738 1.391 1_545 S
H740 C748 0.950 . S
H741 C753 0.950 . S
H742 C750 0.950 . S
H743 C752 0.950 . S
H744 C754 0.950 . S
H745 C756 0.950 . S
H746 C758 0.950 . S
H747 C759 0.950 . S
C748 H740 0.950 . S
C748 C749 1.386 . S
C748 C750 1.391 . S
C749 C748 1.386 . S
C749 C753 1.393 . S
C750 H742 0.950 . S
C750 C748 1.391 . S
C750 C751 1.400 . S
C751 C750 1.400 . S
C751 C752 1.398 . S
C751 C757 1.491 . S
C752 H743 0.950 . S
C752 C751 1.398 . S
C752 C753 1.391 . S
C753 H741 0.950 . S
C753 C749 1.393 . S
C753 C752 1.391 . S
C754 H744 0.950 . S
C754 C755 1.386 . S
C754 C756 1.391 . S
C755 C754 1.386 . S
C755 C759 1.393 . S
C756 H745 0.950 . S
C756 C754 1.391 . S
C756 C757 1.400 . S
C757 C751 1.491 . S
C757 C756 1.400 . S
C757 C758 1.398 . S
C758 H746 0.950 . S
C758 C757 1.398 . S
C758 C759 1.391 . S
C759 H747 0.950 . S
C759 C755 1.393 . S
C759 C758 1.391 . S
H760 C768 0.950 . S
H761 C773 0.950 1_655 S
H762 C770 0.950 . S
H763 C772 0.950 . S
H764 C774 0.950 . S
H765 C776 0.950 . S
H766 C778 0.950 . S
H767 C779 0.950 1_455 S
C768 H760 0.950 . S
C768 C769 1.386 . S
C768 C770 1.391 . S
C769 C768 1.386 . S
C769 C773 1.393 . S
C770 H762 0.950 . S
C770 C768 1.391 . S
C770 C771 1.400 . S
C771 C770 1.400 . S
C771 C772 1.398 1_455 S
C771 C777 1.491 1_455 S
C772 H763 0.950 . S
C772 C771 1.398 1_655 S
C772 C773 1.391 1_655 S
C773 H761 0.950 1_455 S
C773 C769 1.393 . S
C773 C772 1.391 1_455 S
C774 H764 0.950 . S
C774 C775 1.386 . S
C774 C776 1.391 . S
C775 C774 1.386 . S
C775 C779 1.393 . S
C776 H765 0.950 . S
C776 C774 1.391 . S
C776 C777 1.400 . S
C777 C771 1.491 1_655 S
C777 C776 1.400 . S
C777 C778 1.398 1_655 S
C778 H766 0.950 . S
C778 C777 1.398 1_455 S
C778 C779 1.391 1_455 S
C779 H767 0.950 1_655 S
C779 C775 1.393 . S
C779 C778 1.391 1_655 S
H780 C788 0.950 . S
H781 C793 0.950 . S
H782 C790 0.950 1_545 S
H783 C792 0.950 . S
H784 C794 0.950 . S
H785 C796 0.950 1_565 S
H786 C798 0.950 . S
H787 C799 0.950 . S
C788 H780 0.950 . S
C788 C789 1.386 . S
C788 C790 1.391 . S
C789 C788 1.386 . S
C789 C793 1.393 . S
C790 H782 0.950 1_565 S
C790 C788 1.391 . S
C790 C791 1.400 . S
C791 C790 1.400 . S
C791 C792 1.398 . S
C791 C797 1.491 1_564 S
C792 H783 0.950 . S
C792 C791 1.398 . S
C792 C793 1.391 . S
C793 H781 0.950 . S
C793 C789 1.393 . S
C793 C792 1.391 . S
C794 H784 0.950 . S
C794 C795 1.386 . S
C794 C796 1.391 . S
C795 C794 1.386 . S
C795 C799 1.393 . S
C796 H785 0.950 1_545 S
C796 C794 1.391 . S
C796 C797 1.400 . S
C797 C791 1.491 1_546 S
C797 C796 1.400 . S
C797 C798 1.398 . S
C798 H786 0.950 . S
C798 C797 1.398 . S
C798 C799 1.391 . S
C799 H787 0.950 . S
C799 C795 1.393 . S
C799 C798 1.391 . S
H800 C808 0.950 . S
H801 C813 0.950 . S
H802 C810 0.950 . S
H803 C812 0.950 . S
H804 C814 0.950 . S
H805 C816 0.950 . S
H806 C818 0.950 . S
H807 C819 0.950 . S
C808 H800 0.950 . S
C808 C809 1.386 . S
C808 C810 1.391 . S
C809 C808 1.386 . S
C809 C813 1.393 . S
C810 H802 0.950 . S
C810 C808 1.391 . S
C810 C811 1.400 . S
C811 C810 1.400 . S
C811 C812 1.398 . S
C811 C817 1.491 . S
C812 H803 0.950 . S
C812 C811 1.398 . S
C812 C813 1.391 . S
C813 H801 0.950 . S
C813 C809 1.393 . S
C813 C812 1.391 . S
C814 H804 0.950 . S
C814 C815 1.386 . S
C814 C816 1.391 . S
C815 C814 1.386 . S
C815 C819 1.393 . S
C816 H805 0.950 . S
C816 C814 1.391 . S
C816 C817 1.400 . S
C817 C811 1.491 . S
C817 C816 1.400 . S
C817 C818 1.398 . S
C818 H806 0.950 . S
C818 C817 1.398 . S
C818 C819 1.391 . S
C819 H807 0.950 . S
C819 C815 1.393 . S
C819 C818 1.391 . S
H820 C828 0.950 . S
H821 C833 0.935 1_655 S
H822 C830 0.950 . S
H823 C832 0.950 . S
H824 C834 0.950 . S
H825 C836 0.950 . S
H826 C838 0.950 . S
H827 C839 0.935 1_455 S
C828 H820 0.950 . S
C828 C829 1.386 . S
C828 C830 1.391 . S
C829 C828 1.386 . S
C829 C833 1.393 . S
C830 H822 0.950 . S
C830 C828 1.391 . S
C830 C831 1.400 . S
C831 C830 1.400 . S
C831 C832 1.398 1_455 S
C831 C837 1.491 1_455 S
C832 H823 0.950 . S
C832 C831 1.398 1_655 S
C832 C833 1.391 1_655 S
C833 H821 0.935 1_455 S
C833 C829 1.393 . S
C833 C832 1.391 1_455 S
C834 H824 0.950 . S
C834 C835 1.386 . S
C834 C836 1.391 . S
C835 C834 1.386 . S
C835 C839 1.393 . S
C836 H825 0.950 . S
C836 C834 1.391 . S
C836 C837 1.400 . S
C837 C831 1.491 1_655 S
C837 C836 1.400 . S
C837 C838 1.398 1_655 S
C838 H826 0.950 . S
C838 C837 1.398 1_455 S
C838 C839 1.391 1_455 S
C839 H827 0.935 1_655 S
C839 C835 1.393 . S
C839 C838 1.391 1_655 S
H840 C848 0.950 . S
H841 C853 0.950 . S
H842 C850 0.950 1_565 S
H843 C852 0.950 . S
H844 C854 0.950 . S
H845 C856 0.950 1_545 S
H846 C858 0.950 . S
H847 C859 0.950 . S
C848 H840 0.950 . S
C848 C849 1.386 . S
C848 C850 1.391 . S
C849 C848 1.386 . S
C849 C853 1.393 . S
C850 H842 0.950 1_545 S
C850 C848 1.391 . S
C850 C851 1.400 . S
C851 C850 1.400 . S
C851 C852 1.398 . S
C851 C857 1.491 1_545 S
C852 H843 0.950 . S
C852 C851 1.398 . S
C852 C853 1.391 . S
C853 H841 0.950 . S
C853 C849 1.393 . S
C853 C852 1.391 . S
C854 H844 0.950 . S
C854 C855 1.386 . S
C854 C856 1.391 . S
C855 C854 1.386 . S
C855 C859 1.393 . S
C856 H845 0.950 1_565 S
C856 C854 1.391 . S
C856 C857 1.400 . S
C857 C851 1.491 1_565 S
C857 C856 1.400 . S
C857 C858 1.398 . S
C858 H846 0.950 . S
C858 C857 1.398 . S
C858 C859 1.391 . S
C859 H847 0.950 . S
C859 C855 1.393 . S
C859 C858 1.391 . S
H860 C868 0.950 . S
H861 C873 0.950 . S
H862 C870 0.950 . S
H863 C872 0.950 . S
H864 C874 0.950 . S
H865 C876 0.950 . S
H866 C878 0.950 . S
H867 C879 0.950 . S
C868 H860 0.950 . S
C868 C869 1.386 . S
C868 C870 1.391 . S
C869 C868 1.386 . S
C869 C873 1.393 . S
C870 H862 0.950 . S
C870 C868 1.391 . S
C870 C871 1.400 . S
C871 C870 1.400 . S
C871 C872 1.398 . S
C871 C877 1.491 . S
C872 H863 0.950 . S
C872 C871 1.398 . S
C872 C873 1.391 . S
C873 H861 0.950 . S
C873 C869 1.393 . S
C873 C872 1.391 . S
C874 H864 0.950 . S
C874 C875 1.386 . S
C874 C876 1.391 . S
C875 C874 1.386 . S
C875 C879 1.393 . S
C876 H865 0.950 . S
C876 C874 1.391 . S
C876 C877 1.400 . S
C877 C871 1.491 . S
C877 C876 1.400 . S
C877 C878 1.398 . S
C878 H866 0.950 . S
C878 C877 1.398 . S
C878 C879 1.391 . S
C879 H867 0.950 . S
C879 C875 1.393 . S
C879 C878 1.391 . S
H880 C888 0.950 . S
H881 C893 0.950 . S
H882 C890 0.950 . S
H883 C892 0.950 1_455 S
H884 C894 0.950 . S
H885 C896 0.950 . S
H886 C898 0.950 1_655 S
H887 C899 0.950 . S
C888 H880 0.950 . S
C888 C889 1.386 . S
C888 C890 1.391 . S
C889 C888 1.386 . S
C889 C893 1.393 . S
C890 H882 0.950 . S
C890 C888 1.391 . S
C890 C891 1.400 . S
C891 C890 1.400 . S
C891 C892 1.398 . S
C891 C897 1.491 1_655 S
C892 H883 0.950 1_655 S
C892 C891 1.398 . S
C892 C893 1.391 . S
C893 H881 0.950 . S
C893 C889 1.393 . S
C893 C892 1.391 . S
C894 H884 0.950 . S
C894 C895 1.386 . S
C894 C896 1.391 . S
C895 C894 1.386 . S
C895 C899 1.393 . S
C896 H885 0.950 . S
C896 C894 1.391 . S
C896 C897 1.400 . S
C897 C891 1.491 1_455 S
C897 C896 1.400 . S
C897 C898 1.398 . S
C898 H886 0.950 1_455 S
C898 C897 1.398 . S
C898 C899 1.391 . S
C899 H887 0.950 . S
C899 C895 1.393 . S
C899 C898 1.391 . S
H900 C908 0.950 . S
H901 C913 0.950 . S
H902 C910 0.950 1_655 S
H903 C912 0.950 . S
H904 C914 0.950 . S
H905 C916 0.950 1_455 S
H906 C918 0.950 . S
H907 C919 0.950 . S
C908 H900 0.950 . S
C908 C909 1.386 . S
C908 C910 1.391 . S
C909 C908 1.386 . S
C909 C913 1.393 . S
C910 H902 0.950 1_455 S
C910 C908 1.391 . S
C910 C911 1.400 . S
C911 C910 1.400 . S
C911 C912 1.398 . S
C911 C917 1.491 1_455 S
C912 H903 0.950 . S
C912 C911 1.398 . S
C912 C913 1.391 . S
C913 H901 0.950 . S
C913 C909 1.393 . S
C913 C912 1.391 . S
C914 H904 0.950 . S
C914 C915 1.386 . S
C914 C916 1.391 . S
C915 C914 1.386 . S
C915 C919 1.393 . S
C916 H905 0.950 1_655 S
C916 C914 1.391 . S
C916 C917 1.400 . S
C917 C911 1.491 1_655 S
C917 C916 1.400 . S
C917 C918 1.398 . S
C918 H906 0.950 . S
C918 C917 1.398 . S
C918 C919 1.391 . S
C919 H907 0.950 . S
C919 C915 1.393 . S
C919 C918 1.391 . S
H920 C928 0.950 . S
H921 C933 0.950 . S
H922 C930 0.950 1_545 S
H923 C932 0.950 . S
H924 C934 0.950 . S
H925 C936 0.950 1_565 S
H926 C938 0.950 . S
H927 C939 0.950 . S
C928 H920 0.950 . S
C928 C929 1.386 . S
C928 C930 1.391 . S
C929 C928 1.386 . S
C929 C933 1.393 . S
C930 H922 0.950 1_565 S
C930 C928 1.391 . S
C930 C931 1.400 . S
C931 C930 1.400 . S
C931 C932 1.398 . S
C931 C937 1.491 1_565 S
C932 H923 0.950 . S
C932 C931 1.398 . S
C932 C933 1.391 . S
C933 H921 0.950 . S
C933 C929 1.393 . S
C933 C932 1.391 . S
C934 H924 0.950 . S
C934 C935 1.386 . S
C934 C936 1.391 . S
C935 C934 1.386 . S
C935 C939 1.393 . S
C936 H925 0.950 1_545 S
C936 C934 1.391 . S
C936 C937 1.400 . S
C937 C931 1.491 1_545 S
C937 C936 1.400 . S
C937 C938 1.398 . S
C938 H926 0.950 . S
C938 C937 1.398 . S
C938 C939 1.391 . S
C939 H927 0.950 . S
C939 C935 1.393 . S
C939 C938 1.391 . S
H940 C948 0.950 . S
H941 C953 0.950 . S
H942 C950 0.950 . S
H943 C952 0.950 . S
H944 C954 0.950 . S
H945 C956 0.950 . S
H946 C958 0.950 . S
H947 C959 0.950 . S
C948 H940 0.950 . S
C948 C949 1.386 . S
C948 C950 1.391 . S
C949 C948 1.386 . S
C949 C953 1.393 . S
C950 H942 0.950 . S
C950 C948 1.391 . S
C950 C951 1.400 . S
C951 C950 1.400 . S
C951 C952 1.398 . S
C951 C957 1.491 . S
C952 H943 0.950 . S
C952 C951 1.398 . S
C952 C953 1.391 . S
C953 H941 0.950 . S
C953 C949 1.393 . S
C953 C952 1.391 . S
C954 H944 0.950 . S
C954 C955 1.386 . S
C954 C956 1.391 . S
C955 C954 1.386 . S
C955 C959 1.393 . S
C956 H945 0.950 . S
C956 C954 1.391 . S
C956 C957 1.400 . S
C957 C951 1.491 . S
C957 C956 1.400 . S
C957 C958 1.398 . S
C958 H946 0.950 . S
C958 C957 1.398 . S
C958 C959 1.391 . S
C959 H947 0.950 . S
C959 C955 1.393 . S
C959 C958 1.391 . S
H960 C968 0.950 . S
H961 C973 0.950 . S
H962 C970 0.950 . S
H963 C972 0.950 . S
H964 C974 0.950 . S
H965 C976 0.950 . S
H966 C978 0.950 . S
H967 C979 0.950 . S
C968 H960 0.950 . S
C968 C969 1.386 . S
C968 C970 1.391 . S
C969 C968 1.386 . S
C969 C973 1.393 . S
C970 H962 0.950 . S
C970 C968 1.391 . S
C970 C971 1.400 . S
C971 C970 1.400 . S
C971 C972 1.398 . S
C971 C977 1.491 1_565 S
C972 H963 0.950 . S
C972 C971 1.398 . S
C972 C973 1.391 . S
C973 H961 0.950 . S
C973 C969 1.393 . S
C973 C972 1.391 . S
C974 H964 0.950 . S
C974 C975 1.386 . S
C974 C976 1.391 . S
C975 C974 1.386 . S
C975 C979 1.393 . S
C976 H965 0.950 . S
C976 C974 1.391 . S
C976 C977 1.400 . S
C977 C971 1.491 1_545 S
C977 C976 1.400 . S
C977 C978 1.398 . S
C978 H966 0.950 . S
C978 C977 1.398 . S
C978 C979 1.391 . S
C979 H967 0.950 . S
C979 C975 1.393 . S
C979 C978 1.391 . S
H980 C988 0.950 . S
H981 C993 0.950 . S
H982 C990 0.950 . S
H983 C992 0.950 . S
H984 C994 0.950 . S
H985 C996 0.950 . S
H986 C998 0.950 . S
H987 C999 0.950 . S
C988 H980 0.950 . S
C988 C989 1.386 . S
C988 C990 1.391 . S
C989 C988 1.386 . S
C989 C993 1.393 . S
C990 H982 0.950 . S
C990 C988 1.391 . S
C990 C991 1.400 . S
C991 C990 1.400 . S
C991 C992 1.398 . S
C991 C997 1.491 . S
C992 H983 0.950 . S
C992 C991 1.398 . S
C992 C993 1.391 . S
C993 H981 0.950 . S
C993 C989 1.393 . S
C993 C992 1.391 . S
C994 H984 0.950 . S
C994 C995 1.386 . S
C994 C996 1.391 . S
C995 C994 1.386 . S
C995 C999 1.393 . S
C996 H985 0.950 . S
C996 C994 1.391 . S
C996 C997 1.400 . S
C997 C991 1.491 . S
C997 C996 1.400 . S
C997 C998 1.398 . S
C998 H986 0.950 . S
C998 C997 1.398 . S
C998 C999 1.391 . S
C999 H987 0.950 . S
C999 C995 1.393 . S
C999 C998 1.391 . S
H1000 C1008 0.950 . S
H1001 C1013 0.950 . S
H1002 C1010 0.952 . S
H1003 C1012 0.950 . S
H1004 C1014 0.950 . S
H1005 C1016 0.952 . S
H1006 C1018 0.950 . S
H1007 C1019 0.950 . S
C1008 H1000 0.950 . S
C1008 C1009 1.386 . S
C1008 C1010 1.391 . S
C1009 C1008 1.386 . S
C1009 C1013 1.393 . S
C1010 H1002 0.952 . S
C1010 C1008 1.391 . S
C1010 C1011 1.400 . S
C1011 C1010 1.400 . S
C1011 C1012 1.398 . S
C1011 C1017 1.491 1_655 S
C1012 H1003 0.950 . S
C1012 C1011 1.398 . S
C1012 C1013 1.391 . S
C1013 H1001 0.950 . S
C1013 C1009 1.393 . S
C1013 C1012 1.391 . S
C1014 H1004 0.950 . S
C1014 C1015 1.386 . S
C1014 C1016 1.391 . S
C1015 C1014 1.386 . S
C1015 C1019 1.393 . S
C1016 H1005 0.952 . S
C1016 C1014 1.391 . S
C1016 C1017 1.400 . S
C1017 C1011 1.491 1_455 S
C1017 C1016 1.400 . S
C1017 C1018 1.398 . S
C1018 H1006 0.950 . S
C1018 C1017 1.398 . S
C1018 C1019 1.391 . S
C1019 H1007 0.950 . S
C1019 C1015 1.393 . S
C1019 C1018 1.391 . S
H1020 C1028 0.950 . S
H1021 C1033 0.950 . S
H1022 C1030 0.950 . S
H1023 C1032 0.950 . S
H1024 C1034 0.950 . S
H1025 C1036 0.950 . S
H1026 C1038 0.950 . S
H1027 C1039 0.950 . S
C1028 H1020 0.950 . S
C1028 C1029 1.386 . S
C1028 C1030 1.391 . S
C1029 C1028 1.386 . S
C1029 C1033 1.393 . S
C1030 H1022 0.950 . S
C1030 C1028 1.391 . S
C1030 C1031 1.400 . S
C1031 C1030 1.400 . S
C1031 C1032 1.398 . S
C1031 C1037 1.491 1_545 S
C1032 H1023 0.950 . S
C1032 C1031 1.398 . S
C1032 C1033 1.391 . S
C1033 H1021 0.950 . S
C1033 C1029 1.393 . S
C1033 C1032 1.391 . S
C1034 H1024 0.950 . S
C1034 C1035 1.386 . S
C1034 C1036 1.391 . S
C1035 C1034 1.386 . S
C1035 C1039 1.393 . S
C1036 H1025 0.950 . S
C1036 C1034 1.391 . S
C1036 C1037 1.400 . S
C1037 C1031 1.491 1_565 S
C1037 C1036 1.400 . S
C1037 C1038 1.398 . S
C1038 H1026 0.950 . S
C1038 C1037 1.398 . S
C1038 C1039 1.391 . S
C1039 H1027 0.950 . S
C1039 C1035 1.393 . S
C1039 C1038 1.391 . S
H1040 C1048 0.950 . S
H1041 C1053 0.950 . S
H1042 C1050 0.950 . S
H1043 C1052 0.950 . S
H1044 C1054 0.950 . S
H1045 C1056 0.950 . S
H1046 C1058 0.950 . S
H1047 C1059 0.950 . S
C1048 H1040 0.950 . S
C1048 C1049 1.386 . S
C1048 C1050 1.391 . S
C1049 C1048 1.386 . S
C1049 C1053 1.393 . S
C1050 H1042 0.950 . S
C1050 C1048 1.391 . S
C1050 C1051 1.400 . S
C1051 C1050 1.400 . S
C1051 C1052 1.398 . S
C1051 C1057 1.491 . S
C1052 H1043 0.950 . S
C1052 C1051 1.398 . S
C1052 C1053 1.391 . S
C1053 H1041 0.950 . S
C1053 C1049 1.393 . S
C1053 C1052 1.391 . S
C1054 H1044 0.950 . S
C1054 C1055 1.386 . S
C1054 C1056 1.391 . S
C1055 C1054 1.386 . S
C1055 C1059 1.393 . S
C1056 H1045 0.950 . S
C1056 C1054 1.391 . S
C1056 C1057 1.400 . S
C1057 C1051 1.491 . S
C1057 C1056 1.400 . S
C1057 C1058 1.398 . S
C1058 H1046 0.950 . S
C1058 C1057 1.398 . S
C1058 C1059 1.391 . S
C1059 H1047 0.950 . S
C1059 C1055 1.393 . S
C1059 C1058 1.391 . S
H1060 C1068 0.950 . S
H1061 C1073 0.950 . S
H1062 C1070 0.950 . S
H1063 C1072 0.950 . S
H1064 C1074 0.950 . S
H1065 C1076 0.950 . S
H1066 C1078 0.950 . S
H1067 C1079 0.950 . S
C1068 H1060 0.950 . S
C1068 C1069 1.386 . S
C1068 C1070 1.391 . S
C1069 C1068 1.386 . S
C1069 C1073 1.393 . S
C1070 H1062 0.950 . S
C1070 C1068 1.391 . S
C1070 C1071 1.400 . S
C1071 C1070 1.400 . S
C1071 C1072 1.398 . S
C1071 C1077 1.491 1_455 S
C1072 H1063 0.950 . S
C1072 C1071 1.398 . S
C1072 C1073 1.391 . S
C1073 H1061 0.950 . S
C1073 C1069 1.393 . S
C1073 C1072 1.391 . S
C1074 H1064 0.950 . S
C1074 C1075 1.386 . S
C1074 C1076 1.391 . S
C1075 C1074 1.386 . S
C1075 C1079 1.393 . S
C1076 H1065 0.950 . S
C1076 C1074 1.391 . S
C1076 C1077 1.400 . S
C1077 C1071 1.491 1_655 S
C1077 C1076 1.400 . S
C1077 C1078 1.398 . S
C1078 H1066 0.950 . S
C1078 C1077 1.398 . S
C1078 C1079 1.391 . S
C1079 H1067 0.950 . S
C1079 C1075 1.393 . S
C1079 C1078 1.391 . S
H1080 C1088 0.950 . S
H1081 C1093 0.950 . S
H1082 C1090 0.950 . S
H1083 C1092 0.950 . S
H1084 C1094 0.950 . S
H1085 C1096 0.950 . S
H1086 C1098 0.950 . S
H1087 C1099 0.950 . S
C1088 H1080 0.950 . S
C1088 C1089 1.386 . S
C1088 C1090 1.391 . S
C1089 C1088 1.386 . S
C1089 C1093 1.393 . S
C1090 H1082 0.950 . S
C1090 C1088 1.391 . S
C1090 C1091 1.400 . S
C1091 C1090 1.400 . S
C1091 C1092 1.398 . S
C1091 C1097 1.491 . S
C1092 H1083 0.950 . S
C1092 C1091 1.398 . S
C1092 C1093 1.391 . S
C1093 H1081 0.950 . S
C1093 C1089 1.393 . S
C1093 C1092 1.391 . S
C1094 H1084 0.950 . S
C1094 C1095 1.386 . S
C1094 C1096 1.391 . S
C1095 C1094 1.386 . S
C1095 C1099 1.393 . S
C1096 H1085 0.950 . S
C1096 C1094 1.391 . S
C1096 C1097 1.400 . S
C1097 C1091 1.491 . S
C1097 C1096 1.400 . S
C1097 C1098 1.398 . S
C1098 H1086 0.950 . S
C1098 C1097 1.398 . S
C1098 C1099 1.391 . S
C1099 H1087 0.950 . S
C1099 C1095 1.393 . S
C1099 C1098 1.391 . S
H1100 C1108 0.950 . S
H1101 C1113 0.950 . S
H1102 C1110 0.950 . S
H1103 C1112 0.950 . S
H1104 C1114 0.950 . S
H1105 C1116 0.950 . S
H1106 C1118 0.950 . S
H1107 C1119 0.950 . S
C1108 H1100 0.950 . S
C1108 C1109 1.386 . S
C1108 C1110 1.391 . S
C1109 C1108 1.386 . S
C1109 C1113 1.393 . S
C1110 H1102 0.950 . S
C1110 C1108 1.391 . S
C1110 C1111 1.400 . S
C1111 C1110 1.400 . S
C1111 C1112 1.398 . S
C1111 C1117 1.491 . S
C1112 H1103 0.950 . S
C1112 C1111 1.398 . S
C1112 C1113 1.391 . S
C1113 H1101 0.950 . S
C1113 C1109 1.393 . S
C1113 C1112 1.391 . S
C1114 H1104 0.950 . S
C1114 C1115 1.386 . S
C1114 C1116 1.391 . S
C1115 C1114 1.386 . S
C1115 C1119 1.393 . S
C1116 H1105 0.950 . S
C1116 C1114 1.391 . S
C1116 C1117 1.400 . S
C1117 C1111 1.491 . S
C1117 C1116 1.400 . S
C1117 C1118 1.398 . S
C1118 H1106 0.950 . S
C1118 C1117 1.398 . S
C1118 C1119 1.391 . S
C1119 H1107 0.950 . S
C1119 C1115 1.393 . S
C1119 C1118 1.391 . S
H1120 C1128 0.950 . S
H1121 C1133 0.950 . S
H1122 C1130 0.950 . S
H1123 C1132 0.950 . S
H1124 C1134 0.950 . S
H1125 C1136 0.950 . S
H1126 C1138 0.950 . S
H1127 C1139 0.950 . S
C1128 H1120 0.950 . S
C1128 C1129 1.386 . S
C1128 C1130 1.391 . S
C1129 C1128 1.386 . S
C1129 C1133 1.393 . S
C1130 H1122 0.950 . S
C1130 C1128 1.391 . S
C1130 C1131 1.400 . S
C1131 C1130 1.400 . S
C1131 C1132 1.398 . S
C1131 C1137 1.491 . S
C1132 H1123 0.950 . S
C1132 C1131 1.398 . S
C1132 C1133 1.391 . S
C1133 H1121 0.950 . S
C1133 C1129 1.393 . S
C1133 C1132 1.391 . S
C1134 H1124 0.950 . S
C1134 C1135 1.386 . S
C1134 C1136 1.391 . S
C1135 C1134 1.386 . S
C1135 C1139 1.393 . S
C1136 H1125 0.950 . S
C1136 C1134 1.391 . S
C1136 C1137 1.400 . S
C1137 C1131 1.491 . S
C1137 C1136 1.400 . S
C1137 C1138 1.398 . S
C1138 H1126 0.950 . S
C1138 C1137 1.398 . S
C1138 C1139 1.391 . S
C1139 H1127 0.950 . S
C1139 C1135 1.393 . S
C1139 C1138 1.391 . S
H1140 C1148 0.950 . S
H1141 C1153 0.950 . S
H1142 C1150 0.950 . S
H1143 C1152 0.950 . S
H1144 C1154 0.950 . S
H1145 C1156 0.950 . S
H1146 C1158 0.950 . S
H1147 C1159 0.950 . S
C1148 H1140 0.950 . S
C1148 C1149 1.386 . S
C1148 C1150 1.391 . S
C1149 C1148 1.386 . S
C1149 C1153 1.393 . S
C1150 H1142 0.950 . S
C1150 C1148 1.391 . S
C1150 C1151 1.400 . S
C1151 C1150 1.400 . S
C1151 C1152 1.398 . S
C1151 C1157 1.491 . S
C1152 H1143 0.950 . S
C1152 C1151 1.398 . S
C1152 C1153 1.391 . S
C1153 H1141 0.950 . S
C1153 C1149 1.393 . S
C1153 C1152 1.391 . S
C1154 H1144 0.950 . S
C1154 C1155 1.386 . S
C1154 C1156 1.391 . S
C1155 C1154 1.386 . S
C1155 C1159 1.393 . S
C1156 H1145 0.950 . S
C1156 C1154 1.391 . S
C1156 C1157 1.400 . S
C1157 C1151 1.491 . S
C1157 C1156 1.400 . S
C1157 C1158 1.398 . S
C1158 H1146 0.950 . S
C1158 C1157 1.398 . S
C1158 C1159 1.391 . S
C1159 H1147 0.950 . S
C1159 C1155 1.393 . S
C1159 C1158 1.391 . S
H1160 C1168 0.950 . S
H1161 C1173 0.950 . S
H1162 C1170 0.950 . S
H1163 C1172 0.950 . S
H1164 C1174 0.950 . S
H1165 C1176 0.950 . S
H1166 C1178 0.950 . S
H1167 C1179 0.950 . S
C1168 H1160 0.950 . S
C1168 C1169 1.386 . S
C1168 C1170 1.391 . S
C1169 C1168 1.386 . S
C1169 C1173 1.393 . S
C1170 H1162 0.950 . S
C1170 C1168 1.391 . S
C1170 C1171 1.400 . S
C1171 C1170 1.400 . S
C1171 C1172 1.398 . S
C1171 C1177 1.491 . S
C1172 H1163 0.950 . S
C1172 C1171 1.398 . S
C1172 C1173 1.391 . S
C1173 H1161 0.950 . S
C1173 C1169 1.393 . S
C1173 C1172 1.391 . S
C1174 H1164 0.950 . S
C1174 C1175 1.386 . S
C1174 C1176 1.391 . S
C1175 C1174 1.386 . S
C1175 C1179 1.393 . S
C1176 H1165 0.950 . S
C1176 C1174 1.391 . S
C1176 C1177 1.400 . S
C1177 C1171 1.491 . S
C1177 C1176 1.400 . S
C1177 C1178 1.398 . S
C1178 H1166 0.950 . S
C1178 C1177 1.398 . S
C1178 C1179 1.391 . S
C1179 H1167 0.950 . S
C1179 C1175 1.393 . S
C1179 C1178 1.391 . S
H1180 C1188 0.950 . S
H1181 C1193 0.950 . S
H1182 C1190 0.950 . S
H1183 C1192 0.950 . S
H1184 C1194 0.950 . S
H1185 C1196 0.950 . S
H1186 C1198 0.950 . S
H1187 C1199 0.950 . S
C1188 H1180 0.950 . S
C1188 C1189 1.386 . S
C1188 C1190 1.391 . S
C1189 C1188 1.386 . S
C1189 C1193 1.393 . S
C1190 H1182 0.950 . S
C1190 C1188 1.391 . S
C1190 C1191 1.400 . S
C1191 C1190 1.400 . S
C1191 C1192 1.398 . S
C1191 C1197 1.491 . S
C1192 H1183 0.950 . S
C1192 C1191 1.398 . S
C1192 C1193 1.391 . S
C1193 H1181 0.950 . S
C1193 C1189 1.393 . S
C1193 C1192 1.391 . S
C1194 H1184 0.950 . S
C1194 C1195 1.386 . S
C1194 C1196 1.391 . S
C1195 C1194 1.386 . S
C1195 C1199 1.393 . S
C1196 H1185 0.950 . S
C1196 C1194 1.391 . S
C1196 C1197 1.400 . S
C1197 C1191 1.491 . S
C1197 C1196 1.400 . S
C1197 C1198 1.398 . S
C1198 H1186 0.950 . S
C1198 C1197 1.398 . S
C1198 C1199 1.391 . S
C1199 H1187 0.950 . S
C1199 C1195 1.393 . S
C1199 C1198 1.391 . S
C489 C9 1.095 . S
C495 C329 1.079 . S
C509 C49 1.071 . S
C515 C369 1.091 . S
C529 C89 1.066 . S
C535 C409 1.075 . S
C549 C449 1.091 . S
C555 C129 1.093 . S
C569 C169 1.072 . S
C575 C249 1.067 . S
C589 C289 1.095 . S
C595 C209 1.078 . S
C609 C415 1.542 . S
C615 C15 1.547 . S
C629 C455 1.535 . S
C635 C55 1.525 . S
C649 C95 1.532 . S
C655 C255 1.544 . S
C669 C295 1.546 . S
C675 C135 1.545 . S
C689 C335 1.546 . S
C695 C175 1.545 . S
C709 C215 1.547 . S
C715 C375 1.539 . S
C729 C299 4.239 . S
C735 C19 4.243 . S
C749 C339 4.239 . S
C755 C59 4.245 . S
C769 C379 4.239 . S
C775 C99 4.244 . S
C789 C139 4.247 . S
C795 C419 4.244 . S
C809 C179 4.247 . S
C815 C459 4.244 . S
C829 C219 4.239 . S
C835 C259 4.244 . S
C849 C18 0.491 . S
C855 C138 0.538 . S
C869 C58 0.481 . S
C875 C178 0.484 . S
C889 C98 0.542 . S
C895 C218 0.495 . S
C909 C378 0.546 . S
C915 C258 0.570 . S
C929 C298 0.479 . S
C935 C418 0.517 . S
C949 C458 0.565 . S
C955 C338 0.526 . S
C969 C286 0.740 . S
C975 C6 0.745 . S
C989 C326 0.745 . S
C995 C46 0.739 . S
C1009 C86 0.681 . S
C1015 C366 0.706 . S
C1029 C406 0.680 . S
C1035 C126 0.699 . S
C1049 C446 0.695 . S
C1055 C166 0.727 . S
C1069 C206 0.686 . S
C1075 C246 0.683 . S
C1089 C10 4.755 . S
C1095 C410 4.755 . S
C1109 C50 4.755 . S
C1115 C450 4.754 1_556 S
C1129 C90 4.755 1_554 S
C1135 C250 4.756 . S
C1149 C130 4.754 . S
C1155 C290 4.755 . S
C1169 C170 4.756 . S
C1175 C330 4.756 1_556 S
C1189 C370 4.756 . S
C1195 C210 4.756 1_554 S
