# Generated by pormake.
# Topology dei, (4)-cn, num edge types: 1
# Building blocks:
#     Node 0, Type 0, BuildingBlock: CEKHIL_clean_sbu_0, # of connection points: 4
#     Node 1, Type 0, BuildingBlock: CEKHIL_clean_sbu_0, # of connection points: 4
#     Node 2, Type 0, BuildingBlock: CEKHIL_clean_sbu_0, # of connection points: 4
#     Node 3, Type 0, BuildingBlock: CEKHIL_clean_sbu_0, # of connection points: 4
#     Node 4, Type 0, BuildingBlock: CEKHIL_clean_sbu_0, # of connection points: 4
#     Node 5, Type 0, BuildingBlock: CEKHIL_clean_sbu_0, # of connection points: 4
#     Node 6, Type 0, BuildingBlock: CEKHIL_clean_sbu_0, # of connection points: 4
#     Node 7, Type 0, BuildingBlock: CEKHIL_clean_sbu_0, # of connection points: 4
#     Node 8, Type 0, BuildingBlock: CEKHIL_clean_sbu_0, # of connection points: 4
#     Node 9, Type 0, BuildingBlock: CEKHIL_clean_sbu_0, # of connection points: 4
#     Node 10, Type 0, BuildingBlock: CEKHIL_clean_sbu_0, # of connection points: 4
#     Node 11, Type 0, BuildingBlock: CEKHIL_clean_sbu_0, # of connection points: 4
#     Node 12, Type 0, BuildingBlock: CEKHIL_clean_sbu_0, # of connection points: 4
#     Node 13, Type 0, BuildingBlock: CEKHIL_clean_sbu_0, # of connection points: 4
#     Node 14, Type 0, BuildingBlock: CEKHIL_clean_sbu_0, # of connection points: 4
#     Node 15, Type 0, BuildingBlock: CEKHIL_clean_sbu_0, # of connection points: 4
#     Node 16, Type 0, BuildingBlock: CEKHIL_clean_sbu_0, # of connection points: 4
#     Node 17, Type 0, BuildingBlock: CEKHIL_clean_sbu_0, # of connection points: 4
#     Node 18, Type 0, BuildingBlock: CEKHIL_clean_sbu_0, # of connection points: 4
#     Node 19, Type 0, BuildingBlock: CEKHIL_clean_sbu_0, # of connection points: 4
#     Node 20, Type 0, BuildingBlock: CEKHIL_clean_sbu_0, # of connection points: 4
#     Node 21, Type 0, BuildingBlock: CEKHIL_clean_sbu_0, # of connection points: 4
#     Node 22, Type 0, BuildingBlock: CEKHIL_clean_sbu_0, # of connection points: 4
#     Node 23, Type 0, BuildingBlock: CEKHIL_clean_sbu_0, # of connection points: 4
#     Node 24, Type 0, BuildingBlock: CEKHIL_clean_sbu_0, # of connection points: 4
#     Node 25, Type 0, BuildingBlock: CEKHIL_clean_sbu_0, # of connection points: 4
#     Node 26, Type 0, BuildingBlock: CEKHIL_clean_sbu_0, # of connection points: 4
#     Node 27, Type 0, BuildingBlock: CEKHIL_clean_sbu_0, # of connection points: 4
#     Node 28, Type 0, BuildingBlock: CEKHIL_clean_sbu_0, # of connection points: 4
#     Node 29, Type 0, BuildingBlock: CEKHIL_clean_sbu_0, # of connection points: 4
#     Node 30, Type 0, BuildingBlock: CEKHIL_clean_sbu_0, # of connection points: 4
#     Node 31, Type 0, BuildingBlock: CEKHIL_clean_sbu_0, # of connection points: 4
#     Edge 32, Type (0, 0), BuildingBlock: XUDNAN_clean_linker_2, # of connection points: 2
#     Edge 33, Type (0, 0), BuildingBlock: XUDNAN_clean_linker_2, # of connection points: 2
#     Edge 34, Type (0, 0), BuildingBlock: XUDNAN_clean_linker_2, # of connection points: 2
#     Edge 35, Type (0, 0), BuildingBlock: XUDNAN_clean_linker_2, # of connection points: 2
#     Edge 36, Type (0, 0), BuildingBlock: XUDNAN_clean_linker_2, # of connection points: 2
#     Edge 37, Type (0, 0), BuildingBlock: XUDNAN_clean_linker_2, # of connection points: 2
#     Edge 38, Type (0, 0), BuildingBlock: XUDNAN_clean_linker_2, # of connection points: 2
#     Edge 39, Type (0, 0), BuildingBlock: XUDNAN_clean_linker_2, # of connection points: 2
#     Edge 40, Type (0, 0), BuildingBlock: XUDNAN_clean_linker_2, # of connection points: 2
#     Edge 41, Type (0, 0), BuildingBlock: XUDNAN_clean_linker_2, # of connection points: 2
#     Edge 42, Type (0, 0), BuildingBlock: XUDNAN_clean_linker_2, # of connection points: 2
#     Edge 43, Type (0, 0), BuildingBlock: XUDNAN_clean_linker_2, # of connection points: 2
#     Edge 44, Type (0, 0), BuildingBlock: XUDNAN_clean_linker_2, # of connection points: 2
#     Edge 45, Type (0, 0), BuildingBlock: XUDNAN_clean_linker_2, # of connection points: 2
#     Edge 46, Type (0, 0), BuildingBlock: XUDNAN_clean_linker_2, # of connection points: 2
#     Edge 47, Type (0, 0), BuildingBlock: XUDNAN_clean_linker_2, # of connection points: 2
#     Edge 48, Type (0, 0), BuildingBlock: XUDNAN_clean_linker_2, # of connection points: 2
#     Edge 49, Type (0, 0), BuildingBlock: XUDNAN_clean_linker_2, # of connection points: 2
#     Edge 50, Type (0, 0), BuildingBlock: XUDNAN_clean_linker_2, # of connection points: 2
#     Edge 51, Type (0, 0), BuildingBlock: XUDNAN_clean_linker_2, # of connection points: 2
#     Edge 52, Type (0, 0), BuildingBlock: XUDNAN_clean_linker_2, # of connection points: 2
#     Edge 53, Type (0, 0), BuildingBlock: XUDNAN_clean_linker_2, # of connection points: 2
#     Edge 54, Type (0, 0), BuildingBlock: XUDNAN_clean_linker_2, # of connection points: 2
#     Edge 55, Type (0, 0), BuildingBlock: XUDNAN_clean_linker_2, # of connection points: 2
#     Edge 56, Type (0, 0), BuildingBlock: XUDNAN_clean_linker_2, # of connection points: 2
#     Edge 57, Type (0, 0), BuildingBlock: XUDNAN_clean_linker_2, # of connection points: 2
#     Edge 58, Type (0, 0), BuildingBlock: XUDNAN_clean_linker_2, # of connection points: 2
#     Edge 59, Type (0, 0), BuildingBlock: XUDNAN_clean_linker_2, # of connection points: 2
#     Edge 60, Type (0, 0), BuildingBlock: XUDNAN_clean_linker_2, # of connection points: 2
#     Edge 61, Type (0, 0), BuildingBlock: XUDNAN_clean_linker_2, # of connection points: 2
#     Edge 62, Type (0, 0), BuildingBlock: XUDNAN_clean_linker_2, # of connection points: 2
#     Edge 63, Type (0, 0), BuildingBlock: XUDNAN_clean_linker_2, # of connection points: 2
#     Edge 64, Type (0, 0), BuildingBlock: XUDNAN_clean_linker_2, # of connection points: 2
#     Edge 65, Type (0, 0), BuildingBlock: XUDNAN_clean_linker_2, # of connection points: 2
#     Edge 66, Type (0, 0), BuildingBlock: XUDNAN_clean_linker_2, # of connection points: 2
#     Edge 67, Type (0, 0), BuildingBlock: XUDNAN_clean_linker_2, # of connection points: 2
#     Edge 68, Type (0, 0), BuildingBlock: XUDNAN_clean_linker_2, # of connection points: 2
#     Edge 69, Type (0, 0), BuildingBlock: XUDNAN_clean_linker_2, # of connection points: 2
#     Edge 70, Type (0, 0), BuildingBlock: XUDNAN_clean_linker_2, # of connection points: 2
#     Edge 71, Type (0, 0), BuildingBlock: XUDNAN_clean_linker_2, # of connection points: 2
#     Edge 72, Type (0, 0), BuildingBlock: XUDNAN_clean_linker_2, # of connection points: 2
#     Edge 73, Type (0, 0), BuildingBlock: XUDNAN_clean_linker_2, # of connection points: 2
#     Edge 74, Type (0, 0), BuildingBlock: XUDNAN_clean_linker_2, # of connection points: 2
#     Edge 75, Type (0, 0), BuildingBlock: XUDNAN_clean_linker_2, # of connection points: 2
#     Edge 76, Type (0, 0), BuildingBlock: XUDNAN_clean_linker_2, # of connection points: 2
#     Edge 77, Type (0, 0), BuildingBlock: XUDNAN_clean_linker_2, # of connection points: 2
#     Edge 78, Type (0, 0), BuildingBlock: XUDNAN_clean_linker_2, # of connection points: 2
#     Edge 79, Type (0, 0), BuildingBlock: XUDNAN_clean_linker_2, # of connection points: 2
#     Edge 80, Type (0, 0), BuildingBlock: XUDNAN_clean_linker_2, # of connection points: 2
#     Edge 81, Type (0, 0), BuildingBlock: XUDNAN_clean_linker_2, # of connection points: 2
#     Edge 82, Type (0, 0), BuildingBlock: XUDNAN_clean_linker_2, # of connection points: 2
#     Edge 83, Type (0, 0), BuildingBlock: XUDNAN_clean_linker_2, # of connection points: 2
#     Edge 84, Type (0, 0), BuildingBlock: XUDNAN_clean_linker_2, # of connection points: 2
#     Edge 85, Type (0, 0), BuildingBlock: XUDNAN_clean_linker_2, # of connection points: 2
#     Edge 86, Type (0, 0), BuildingBlock: XUDNAN_clean_linker_2, # of connection points: 2
#     Edge 87, Type (0, 0), BuildingBlock: XUDNAN_clean_linker_2, # of connection points: 2
#     Edge 88, Type (0, 0), BuildingBlock: XUDNAN_clean_linker_2, # of connection points: 2
#     Edge 89, Type (0, 0), BuildingBlock: XUDNAN_clean_linker_2, # of connection points: 2
#     Edge 90, Type (0, 0), BuildingBlock: XUDNAN_clean_linker_2, # of connection points: 2
#     Edge 91, Type (0, 0), BuildingBlock: XUDNAN_clean_linker_2, # of connection points: 2
#     Edge 92, Type (0, 0), BuildingBlock: XUDNAN_clean_linker_2, # of connection points: 2
#     Edge 93, Type (0, 0), BuildingBlock: XUDNAN_clean_linker_2, # of connection points: 2
#     Edge 94, Type (0, 0), BuildingBlock: XUDNAN_clean_linker_2, # of connection points: 2
#     Edge 95, Type (0, 0), BuildingBlock: XUDNAN_clean_linker_2, # of connection points: 2
# Relax obj value: 0.244
# Max RMSD: 0.066
# Mean RMSD: 0.066
data_MOF--net-dei--node1-CEKHIL_clean_sbu_0--edge1-XUDNAN_clean_linker_2
_symmetry_space_group_name_H-M    P1
_symmetry_Int_Tables_number       1
_symmetry_cell_setting            triclinic
loop_
_symmetry_equiv_pos_as_xyz
'x, y, z'
_cell_length_a     57.999541
_cell_length_b     58.029674
_cell_length_c     74.609834
_cell_angle_alpha  89.999892
_cell_angle_beta   90.003691
_cell_angle_gamma 90.007843
loop_
_atom_site_label
_atom_site_type_symbol
_atom_site_fract_x
_atom_site_fract_y
_atom_site_fract_z
_atom_type_partial_charge
Co0 Co 0.12885 0.61746 0.0288 0.0
O1 O 0.12365 0.5847 0.0292 0.0
O2 O 0.14448 0.60245 0.00871 0.0
C3 C 0.13724 0.61889 0.05837 0.0
O4 O 0.13831 0.65165 0.02489 0.0
Co5 Co 0.09833 0.64963 0.05173 0.0
O6 O 0.12363 0.6718 0.04799 0.0
C7 C 0.08058 0.63135 0.01733 0.0
C8 C 0.13641 0.58312 0.01506 0.0
C9 C 0.13673 0.67034 0.03436 0.0
O10 O 0.10002 0.62163 0.01403 0.0
O11 O 0.07625 0.64242 0.03179 0.0
O12 O 0.15305 0.61377 0.04672 0.0
O13 O 0.1168 0.62197 0.05195 0.0
Co14 Co 0.63542 0.87918 0.27575 0.0
O15 O 0.6681 0.87422 0.27559 0.0
O16 O 0.6497 0.89612 0.256 0.0
C17 C 0.63446 0.88664 0.30541 0.0
O18 O 0.60113 0.88825 0.27253 0.0
Co19 Co 0.6044 0.84727 0.29854 0.0
O20 O 0.58192 0.87245 0.29567 0.0
C21 C 0.6227 0.83088 0.26374 0.0
C22 C 0.66914 0.88779 0.26191 0.0
C23 C 0.58281 0.88608 0.28232 0.0
O24 O 0.63145 0.85079 0.26044 0.0
O25 O 0.61226 0.82586 0.27835 0.0
O26 O 0.6391 0.90284 0.294 0.0
O27 O 0.63165 0.86631 0.29871 0.0
Co28 Co 0.38554 0.3889 0.52755 0.0
O29 O 0.39128 0.42154 0.52862 0.0
O30 O 0.36469 0.40541 0.5115 0.0
C31 C 0.38568 0.38387 0.55759 0.0
O32 O 0.37477 0.35519 0.52353 0.0
Co33 Co 0.42174 0.35459 0.54322 0.0
O34 O 0.39556 0.33294 0.5423 0.0
C35 C 0.43005 0.37726 0.50817 0.0
C36 C 0.3749 0.42412 0.51701 0.0
C37 C 0.37882 0.33575 0.53149 0.0
O38 O 0.40976 0.38625 0.50812 0.0
O39 O 0.43814 0.36535 0.52118 0.0
O40 O 0.36705 0.39076 0.54955 0.0
O41 O 0.40362 0.38183 0.54754 0.0
Co42 Co 0.8711 0.12437 0.77871 0.0
O43 O 0.83833 0.12871 0.78008 0.0
O44 O 0.85581 0.10964 0.75835 0.0
C45 C 0.87433 0.1139 0.80777 0.0
O46 O 0.90525 0.11644 0.77363 0.0
Co47 Co 0.90225 0.15536 0.80284 0.0
O48 O 0.92759 0.13667 0.79287 0.0
C49 C 0.8765 0.17484 0.77234 0.0
C50 C 0.83661 0.11697 0.76544 0.0
C51 C 0.92511 0.12207 0.78027 0.0
O52 O 0.87365 0.15468 0.76554 0.0
O53 O 0.88497 0.17832 0.78795 0.0
O54 O 0.86893 0.09869 0.7957 0.0
O55 O 0.87629 0.13471 0.80203 0.0
Co56 Co 0.13256 0.38513 0.96671 0.0
O57 O 0.12767 0.41763 0.96337 0.0
O58 O 0.14635 0.40275 0.98641 0.0
C59 C 0.14365 0.38019 0.93788 0.0
O60 O 0.14166 0.35171 0.97373 0.0
Co61 Co 0.10417 0.3502 0.94416 0.0
O62 O 0.12591 0.32723 0.95363 0.0
C63 C 0.08301 0.37302 0.97569 0.0
C64 C 0.13922 0.42105 0.97792 0.0
C65 C 0.13887 0.33128 0.96701 0.0
O66 O 0.10224 0.38265 0.97993 0.0
O67 O 0.0802 0.36075 0.9616 0.0
O68 O 0.15841 0.38668 0.94995 0.0
O69 O 0.12275 0.37772 0.94343 0.0
Co70 Co 0.86738 0.8814 0.21994 0.0
O71 O 0.83464 0.87761 0.21855 0.0
O72 O 0.85228 0.89745 0.23982 0.0
C73 C 0.87096 0.89055 0.19062 0.0
O74 O 0.90169 0.88868 0.22476 0.0
Co75 Co 0.89701 0.84781 0.19705 0.0
O76 O 0.92302 0.86623 0.20636 0.0
C77 C 0.87195 0.83118 0.22877 0.0
C78 C 0.83304 0.89 0.23286 0.0
C79 C 0.92125 0.88177 0.21835 0.0
O80 O 0.86924 0.85197 0.23427 0.0
O81 O 0.8802 0.82603 0.21338 0.0
O82 O 0.86596 0.9063 0.20235 0.0
O83 O 0.87217 0.86986 0.19682 0.0
Co84 Co 0.37911 0.62155 0.4698 0.0
O85 O 0.3831 0.58873 0.46814 0.0
O86 O 0.36152 0.60598 0.48857 0.0
C87 C 0.37263 0.6269 0.44032 0.0
O88 O 0.37105 0.65568 0.47501 0.0
Co89 Co 0.41384 0.65319 0.44916 0.0
O90 O 0.39323 0.67813 0.4572 0.0
C91 C 0.42777 0.63078 0.48311 0.0
C92 C 0.36966 0.58689 0.48189 0.0
C93 C 0.37733 0.67559 0.4688 0.0
O94 O 0.40723 0.62316 0.4858 0.0
O95 O 0.43396 0.64163 0.46897 0.0
O96 O 0.35579 0.62085 0.45077 0.0
O97 O 0.39274 0.62766 0.44758 0.0
Co98 Co 0.64083 0.1254 0.71764 0.0
O99 O 0.6738 0.12798 0.71743 0.0
O100 O 0.65412 0.10858 0.73787 0.0
C101 C 0.63848 0.11689 0.68814 0.0
O102 O 0.60604 0.11922 0.72128 0.0
Co103 Co 0.61335 0.16013 0.69405 0.0
O104 O 0.58632 0.14223 0.70221 0.0
C105 C 0.63714 0.1756 0.72676 0.0
C106 C 0.67402 0.11532 0.73165 0.0
C107 C 0.58703 0.1266 0.7142 0.0
O108 O 0.63904 0.15467 0.73217 0.0
O109 O 0.62987 0.18115 0.71115 0.0
O110 O 0.64245 0.10075 0.69979 0.0
O111 O 0.63759 0.13748 0.69455 0.0
Co112 Co 0.87759 0.39121 0.96621 0.0
O113 O 0.88239 0.42408 0.96596 0.0
O114 O 0.8628 0.40565 0.98693 0.0
C115 C 0.86754 0.39001 0.93689 0.0
O116 O 0.86885 0.35687 0.97034 0.0
Co117 Co 0.90705 0.35975 0.94133 0.0
O118 O 0.8863 0.33495 0.94933 0.0
C119 C 0.92697 0.37858 0.97494 0.0
C120 C 0.87037 0.42511 0.98051 0.0
C121 C 0.87274 0.33723 0.96261 0.0
O122 O 0.90748 0.38717 0.97975 0.0
O123 O 0.93035 0.36848 0.95991 0.0
O124 O 0.85228 0.39485 0.94905 0.0
O125 O 0.88826 0.38704 0.94269 0.0
Co126 Co 0.3697 0.13644 0.71793 0.0
O127 O 0.33669 0.13858 0.71675 0.0
O128 O 0.35547 0.11475 0.73469 0.0
C129 C 0.37294 0.13594 0.68774 0.0
O130 O 0.40429 0.12903 0.7219 0.0
Co131 Co 0.39974 0.17462 0.70082 0.0
O132 O 0.42577 0.15386 0.70572 0.0
C133 C 0.37722 0.18255 0.73593 0.0
C134 C 0.33585 0.12246 0.72864 0.0
C135 C 0.42391 0.13639 0.71591 0.0
O136 O 0.37018 0.16155 0.73674 0.0
O137 O 0.38781 0.19108 0.72242 0.0
O138 O 0.36954 0.11695 0.69655 0.0
O139 O 0.37373 0.15445 0.69726 0.0
Co140 Co 0.62346 0.62242 0.47035 0.0
O141 O 0.61768 0.58982 0.46846 0.0
O142 O 0.64207 0.60538 0.48766 0.0
C143 C 0.62642 0.6279 0.44046 0.0
O144 O 0.6342 0.65595 0.47543 0.0
Co145 Co 0.58962 0.65764 0.45272 0.0
O146 O 0.61585 0.67891 0.45565 0.0
C147 C 0.57716 0.63452 0.48681 0.0
C148 C 0.63255 0.58681 0.48119 0.0
C149 C 0.63134 0.67561 0.46746 0.0
O150 O 0.5972 0.62511 0.48812 0.0
O151 O 0.57077 0.64678 0.47344 0.0
O152 O 0.64417 0.62066 0.44947 0.0
O153 O 0.60763 0.63009 0.44946 0.0
Co154 Co 0.13727 0.88128 0.21734 0.0
O155 O 0.17004 0.87781 0.21529 0.0
O156 O 0.1528 0.89514 0.23795 0.0
C157 C 0.13307 0.89285 0.18862 0.0
O158 O 0.10313 0.8883 0.22306 0.0
Co159 Co 0.10635 0.85041 0.19293 0.0
O160 O 0.08095 0.86871 0.20332 0.0
C161 C 0.13245 0.83041 0.223 0.0
C162 C 0.17199 0.88874 0.2303 0.0
C163 C 0.08332 0.88277 0.21631 0.0
O164 O 0.1355 0.85048 0.22987 0.0
O165 O 0.1237 0.82709 0.20746 0.0
O166 O 0.13852 0.90768 0.20095 0.0
O167 O 0.1317 0.87179 0.19389 0.0
Co168 Co 0.88503 0.6233 0.02709 0.0
O169 O 0.89189 0.59076 0.02811 0.0
O170 O 0.8659 0.6062 0.01016 0.0
C171 C 0.88357 0.62749 0.0572 0.0
O172 O 0.87295 0.65658 0.02284 0.0
Co173 Co 0.91762 0.65966 0.04468 0.0
O174 O 0.89029 0.67969 0.04301 0.0
C175 C 0.93004 0.63775 0.00994 0.0
C176 C 0.87623 0.5877 0.01597 0.0
C177 C 0.87492 0.67609 0.03117 0.0
O178 O 0.91041 0.62744 0.00872 0.0
O179 O 0.93611 0.64998 0.02342 0.0
O180 O 0.86553 0.62018 0.04857 0.0
O181 O 0.9017 0.63084 0.04763 0.0
Co182 Co 0.14018 0.12589 0.7783 0.0
O183 O 0.17289 0.13097 0.77935 0.0
O184 O 0.15549 0.11167 0.75776 0.0
C185 C 0.13806 0.11556 0.80745 0.0
O186 O 0.10622 0.11683 0.7734 0.0
Co187 Co 0.10746 0.15468 0.80267 0.0
O188 O 0.08379 0.13252 0.7949 0.0
C189 C 0.12683 0.17507 0.76941 0.0
C190 C 0.1747 0.11916 0.76473 0.0
C191 C 0.08652 0.11958 0.7813 0.0
O192 O 0.13622 0.15585 0.76486 0.0
O193 O 0.11598 0.17816 0.78416 0.0
O194 O 0.14352 0.10045 0.79533 0.0
O195 O 0.13505 0.13628 0.80171 0.0
Co196 Co 0.62034 0.38837 0.52426 0.0
O197 O 0.61532 0.42114 0.52597 0.0
O198 O 0.641 0.40487 0.50808 0.0
C199 C 0.62067 0.38283 0.55422 0.0
O200 O 0.63074 0.35465 0.51971 0.0
Co201 Co 0.58447 0.3538 0.54003 0.0
O202 O 0.61073 0.33228 0.53889 0.0
C203 C 0.57536 0.37722 0.50537 0.0
C204 C 0.63151 0.42361 0.51422 0.0
C205 C 0.62714 0.3352 0.5278 0.0
O206 O 0.59559 0.38639 0.50516 0.0
O207 O 0.56769 0.36493 0.51832 0.0
O208 O 0.63928 0.38956 0.54607 0.0
O209 O 0.60255 0.38108 0.54433 0.0
Co210 Co 0.36831 0.87133 0.2754 0.0
O211 O 0.33547 0.8674 0.27641 0.0
O212 O 0.35315 0.89181 0.25826 0.0
C213 C 0.37104 0.87296 0.30552 0.0
O214 O 0.40241 0.88068 0.27154 0.0
Co215 Co 0.40114 0.83667 0.29326 0.0
O216 O 0.42306 0.86261 0.29275 0.0
C217 C 0.38025 0.82581 0.25793 0.0
C218 C 0.3339 0.88336 0.26441 0.0
C219 C 0.42117 0.87796 0.28068 0.0
O220 O 0.37055 0.84572 0.2571 0.0
O221 O 0.39219 0.81894 0.27135 0.0
O222 O 0.36668 0.89143 0.29632 0.0
O223 O 0.37317 0.85417 0.29645 0.0
Co224 Co 0.6325 0.1204 0.52859 0.0
O225 O 0.62885 0.08752 0.52954 0.0
O226 O 0.64662 0.1058 0.50763 0.0
C227 C 0.64371 0.12307 0.55748 0.0
O228 O 0.63966 0.15492 0.52413 0.0
Co229 Co 0.60159 0.15022 0.55375 0.0
O230 O 0.62377 0.17463 0.5471 0.0
C231 C 0.58179 0.12688 0.52215 0.0
C232 C 0.64 0.08625 0.5146 0.0
C233 C 0.63662 0.1737 0.53325 0.0
O234 O 0.60199 0.12297 0.51578 0.0
O235 O 0.57811 0.13537 0.53773 0.0
O236 O 0.65868 0.11816 0.54511 0.0
O237 O 0.62268 0.12474 0.55213 0.0
Co238 Co 0.13793 0.37956 0.77797 0.0
O239 O 0.17079 0.37489 0.77874 0.0
O240 O 0.15297 0.39467 0.75759 0.0
C241 C 0.13623 0.38904 0.80732 0.0
O242 O 0.10364 0.38843 0.77363 0.0
Co243 Co 0.10557 0.35024 0.80208 0.0
O244 O 0.08348 0.3753 0.7973 0.0
C245 C 0.12464 0.33061 0.7684 0.0
C246 C 0.17229 0.38726 0.76441 0.0
C247 C 0.08493 0.38743 0.78313 0.0
O248 O 0.13413 0.34989 0.76411 0.0
O249 O 0.11367 0.32729 0.78307 0.0
O250 O 0.14128 0.40454 0.7954 0.0
O251 O 0.13326 0.36845 0.80127 0.0
Co252 Co 0.87595 0.88907 0.03086 0.0
O253 O 0.88153 0.92166 0.03262 0.0
O254 O 0.86204 0.90548 0.01055 0.0
C255 C 0.86519 0.88643 0.05987 0.0
O256 O 0.86635 0.85521 0.02564 0.0
Co257 Co 0.90377 0.85535 0.05499 0.0
O258 O 0.87798 0.83442 0.04946 0.0
C259 C 0.92473 0.87433 0.02178 0.0
C260 C 0.86966 0.92425 0.01813 0.0
C261 C 0.86645 0.83638 0.03503 0.0
O262 O 0.90597 0.88485 0.01752 0.0
O263 O 0.92733 0.8628 0.03628 0.0
O264 O 0.85035 0.89244 0.04772 0.0
O265 O 0.88597 0.88326 0.05429 0.0
Co266 Co 0.36816 0.63635 0.27911 0.0
O267 O 0.33541 0.64174 0.27892 0.0
O268 O 0.35261 0.61481 0.26288 0.0
C269 C 0.37056 0.63764 0.30937 0.0
O270 O 0.40226 0.6259 0.27647 0.0
Co271 Co 0.4012 0.67269 0.29575 0.0
O272 O 0.42314 0.64675 0.29608 0.0
C273 C 0.38093 0.68028 0.25963 0.0
C274 C 0.33351 0.62501 0.26759 0.0
C275 C 0.42121 0.63005 0.28512 0.0
O276 O 0.37176 0.66007 0.25945 0.0
O277 O 0.39207 0.6885 0.273 0.0
O278 O 0.36525 0.6185 0.30134 0.0
O279 O 0.37333 0.65521 0.29905 0.0
Co280 Co 0.63036 0.88938 0.4651 0.0
O281 O 0.62691 0.92204 0.4619 0.0
O282 O 0.64535 0.90623 0.4847 0.0
C283 C 0.64071 0.88387 0.43626 0.0
O284 O 0.638 0.85544 0.4717 0.0
Co285 Co 0.59981 0.85602 0.44301 0.0
O286 O 0.62452 0.83396 0.44887 0.0
C287 C 0.58058 0.87929 0.47502 0.0
C288 C 0.63889 0.92487 0.47631 0.0
C289 C 0.63675 0.83618 0.46292 0.0
O290 O 0.60027 0.88832 0.47871 0.0
O291 O 0.5768 0.86683 0.46116 0.0
O292 O 0.65595 0.88977 0.44814 0.0
O293 O 0.61975 0.88255 0.44195 0.0
Co294 Co 0.37012 0.37325 0.71852 0.0
O295 O 0.33731 0.36836 0.7165 0.0
O296 O 0.35337 0.39311 0.73514 0.0
C297 C 0.37632 0.37478 0.68865 0.0
O298 O 0.40391 0.38324 0.7236 0.0
Co299 Co 0.40448 0.33743 0.70238 0.0
O300 O 0.42647 0.36319 0.70456 0.0
C301 C 0.38077 0.32762 0.73673 0.0
C302 C 0.33458 0.38384 0.72881 0.0
C303 C 0.42356 0.37939 0.71583 0.0
O304 O 0.37176 0.34789 0.73711 0.0
O305 O 0.39313 0.3201 0.72378 0.0
O306 O 0.36935 0.39304 0.69715 0.0
O307 O 0.37769 0.35626 0.69809 0.0
Co308 Co 0.87834 0.12097 0.96709 0.0
O309 O 0.88333 0.08816 0.96612 0.0
O310 O 0.86455 0.10568 0.98787 0.0
C311 C 0.86732 0.12301 0.9381 0.0
O312 O 0.86954 0.15517 0.97186 0.0
Co313 Co 0.90703 0.15315 0.94214 0.0
O314 O 0.88565 0.17728 0.95031 0.0
C315 C 0.928 0.13354 0.97506 0.0
C316 C 0.87191 0.08641 0.98092 0.0
C317 C 0.87269 0.17483 0.96393 0.0
O318 O 0.90866 0.12482 0.98007 0.0
O319 O 0.93093 0.14404 0.96014 0.0
O320 O 0.85247 0.11761 0.95043 0.0
O321 O 0.8882 0.12589 0.94353 0.0
Co322 Co 0.13645 0.62308 0.21822 0.0
O323 O 0.16937 0.62719 0.21692 0.0
O324 O 0.15161 0.60877 0.23886 0.0
C325 C 0.13298 0.61207 0.18925 0.0
O326 O 0.10215 0.61556 0.22338 0.0
Co327 Co 0.10543 0.6538 0.19372 0.0
O328 O 0.08005 0.63486 0.20341 0.0
C329 C 0.13105 0.67368 0.22417 0.0
C330 C 0.1709 0.61592 0.23181 0.0
C331 C 0.08237 0.62075 0.21637 0.0
O332 O 0.13403 0.65359 0.23106 0.0
O333 O 0.12252 0.677 0.20856 0.0
O334 O 0.13844 0.59708 0.20147 0.0
O335 O 0.13125 0.633 0.19476 0.0
Co336 Co 0.37635 0.89066 0.46488 0.0
O337 O 0.37833 0.92332 0.461 0.0
O338 O 0.36024 0.90743 0.48394 0.0
C339 C 0.36719 0.88333 0.43611 0.0
O340 O 0.37007 0.85682 0.47225 0.0
Co341 Co 0.40896 0.85797 0.44347 0.0
O342 O 0.3884 0.8336 0.45257 0.0
C343 C 0.42627 0.8829 0.47548 0.0
C344 C 0.36607 0.92606 0.47528 0.0
C345 C 0.37463 0.83669 0.46563 0.0
O346 O 0.40621 0.8913 0.47895 0.0
O347 O 0.43079 0.8706 0.46168 0.0
O348 O 0.35112 0.88882 0.44745 0.0
O349 O 0.38794 0.88356 0.44219 0.0
Co350 Co 0.86717 0.63212 0.2176 0.0
O351 O 0.83452 0.63549 0.21367 0.0
O352 O 0.84973 0.61309 0.2345 0.0
C353 C 0.87593 0.62862 0.18823 0.0
O354 O 0.90085 0.62392 0.22452 0.0
Co355 Co 0.90037 0.66924 0.20112 0.0
O356 O 0.9247 0.64827 0.20975 0.0
C357 C 0.87116 0.68043 0.23223 0.0
C358 C 0.83132 0.62105 0.22662 0.0
C359 C 0.92125 0.63105 0.22 0.0
O360 O 0.86642 0.65903 0.2349 0.0
O361 O 0.88226 0.68791 0.21862 0.0
O362 O 0.86885 0.61069 0.19712 0.0
O363 O 0.87568 0.64774 0.1969 0.0
Co364 Co 0.13413 0.11837 0.96649 0.0
O365 O 0.12853 0.08603 0.96299 0.0
O366 O 0.14706 0.10028 0.98633 0.0
C367 C 0.14598 0.12307 0.93784 0.0
O368 O 0.14366 0.15163 0.97367 0.0
Co369 Co 0.10722 0.15398 0.94333 0.0
O370 O 0.12997 0.17608 0.95266 0.0
C371 C 0.08488 0.13213 0.97488 0.0
C372 C 0.13973 0.08221 0.97763 0.0
C373 C 0.14201 0.17195 0.96654 0.0
O374 O 0.1036 0.12164 0.97928 0.0
O375 O 0.08279 0.14451 0.96076 0.0
O376 O 0.16035 0.11622 0.95007 0.0
O377 O 0.12505 0.12603 0.94315 0.0
Co378 Co 0.63733 0.37276 0.71456 0.0
O379 O 0.66979 0.36839 0.71034 0.0
O380 O 0.65566 0.39199 0.7308 0.0
C381 C 0.62858 0.37555 0.68517 0.0
O382 O 0.60395 0.38215 0.72157 0.0
Co383 Co 0.60227 0.33688 0.69914 0.0
O384 O 0.58034 0.36234 0.70311 0.0
C385 C 0.63004 0.32568 0.73123 0.0
C386 C 0.67368 0.38339 0.72277 0.0
C387 C 0.58387 0.37832 0.71447 0.0
O388 O 0.63763 0.34647 0.73239 0.0
O389 O 0.6173 0.31835 0.71844 0.0
O390 O 0.63604 0.39353 0.69377 0.0
O391 O 0.62818 0.35664 0.69417 0.0
Co392 Co 0.3757 0.12028 0.52849 0.0
O393 O 0.37731 0.08728 0.52959 0.0
O394 O 0.36007 0.10641 0.50786 0.0
C395 C 0.36579 0.12409 0.55745 0.0
O396 O 0.37037 0.15509 0.52404 0.0
Co397 Co 0.40895 0.14849 0.55299 0.0
O398 O 0.38722 0.17369 0.54714 0.0
C399 C 0.42653 0.12411 0.52104 0.0
C400 C 0.3658 0.08656 0.51479 0.0
C401 C 0.37404 0.1735 0.53346 0.0
O402 O 0.40597 0.12085 0.51511 0.0
O403 O 0.43106 0.13271 0.53644 0.0
O404 O 0.3499 0.12028 0.54554 0.0
O405 O 0.38667 0.12401 0.5517 0.0
Co406 Co 0.63643 0.63574 0.27899 0.0
O407 O 0.66943 0.64021 0.27902 0.0
O408 O 0.6512 0.61584 0.26128 0.0
C409 C 0.63338 0.63439 0.30921 0.0
O410 O 0.60213 0.62604 0.27595 0.0
Co411 Co 0.60392 0.67145 0.29751 0.0
O412 O 0.58165 0.64583 0.29648 0.0
C413 C 0.62397 0.68153 0.26182 0.0
C414 C 0.67069 0.62478 0.26652 0.0
C415 C 0.58331 0.62984 0.28488 0.0
O416 O 0.63301 0.6613 0.26063 0.0
O417 O 0.61311 0.68882 0.27563 0.0
O418 O 0.63922 0.61596 0.30041 0.0
O419 O 0.63115 0.65276 0.29973 0.0
Co420 Co 0.12982 0.88576 0.02911 0.0
O421 O 0.12428 0.91847 0.02933 0.0
O422 O 0.14393 0.90055 0.00823 0.0
C423 C 0.14003 0.88509 0.05828 0.0
O424 O 0.13932 0.85154 0.02528 0.0
Co425 Co 0.10149 0.85369 0.05418 0.0
O426 O 0.12672 0.83182 0.04935 0.0
C427 C 0.0808 0.87147 0.02051 0.0
C428 C 0.13615 0.91993 0.01472 0.0
C429 C 0.13864 0.83306 0.03507 0.0
O430 O 0.09993 0.88091 0.01576 0.0
O431 O 0.07788 0.86101 0.03545 0.0
O432 O 0.15516 0.89022 0.04609 0.0
O433 O 0.11937 0.88154 0.05258 0.0
Co434 Co 0.86838 0.38312 0.77756 0.0
O435 O 0.83538 0.37952 0.77808 0.0
O436 O 0.85434 0.39604 0.75592 0.0
C437 C 0.87045 0.39554 0.80621 0.0
O438 O 0.90303 0.39021 0.77333 0.0
Co439 Co 0.89801 0.35369 0.804 0.0
O440 O 0.92258 0.37547 0.79686 0.0
C441 C 0.87464 0.33215 0.77308 0.0
C442 C 0.83457 0.38979 0.76272 0.0
C443 C 0.92174 0.38767 0.78266 0.0
O444 O 0.87133 0.35194 0.76577 0.0
O445 O 0.88271 0.32949 0.78892 0.0
O446 O 0.86563 0.41001 0.79346 0.0
O447 O 0.87235 0.37437 0.80134 0.0
H448 H 0.1104 0.63462 0.16246 0.0
H449 H 0.15821 0.57868 0.1726 0.0
H450 H 0.16524 0.57497 0.14 0.0
H451 H 0.08596 0.60964 0.12104 0.0
H452 H 0.08264 0.6375 0.11068 0.0
H453 H 0.08075 0.63475 0.13468 0.0
H454 H 0.11286 0.66549 0.13811 0.0
H455 H 0.11523 0.66796 0.11412 0.0
H456 H 0.14031 0.66101 0.12732 0.0
H457 H 0.17047 0.5807 0.10676 0.0
H458 H 0.16793 0.59009 0.07449 0.0
H459 H 0.11432 0.64011 0.0858 0.0
C460 C 0.12197 0.62128 0.15775 0.0
C461 C 0.13377 0.6069 0.16994 0.0
C462 C 0.14883 0.58967 0.1634 0.0
C463 C 0.15308 0.5876 0.14496 0.0
C464 C 0.14175 0.60259 0.1333 0.0
C465 C 0.126 0.61865 0.13939 0.0
C466 C 0.11588 0.63244 0.12405 0.0
C467 C 0.08976 0.62833 0.12252 0.0
C468 C 0.12141 0.65825 0.12603 0.0
C469 C 0.12874 0.62195 0.1084 0.0
C470 C 0.14384 0.60501 0.11406 0.0
C471 C 0.15845 0.59367 0.10214 0.0
C472 C 0.15705 0.59928 0.08389 0.0
C473 C 0.1409 0.61576 0.07775 0.0
C474 C 0.12673 0.62736 0.09019 0.0
H475 H 0.61842 0.86039 0.40967 0.0
H476 H 0.67354 0.90933 0.41944 0.0
H477 H 0.67741 0.91577 0.38685 0.0
H478 H 0.64459 0.83564 0.36863 0.0
H479 H 0.61696 0.8315 0.35805 0.0
H480 H 0.6194 0.83008 0.3821 0.0
H481 H 0.58787 0.8615 0.38495 0.0
H482 H 0.58567 0.86339 0.36092 0.0
H483 H 0.59187 0.88885 0.37389 0.0
H484 H 0.67184 0.92049 0.35381 0.0
H485 H 0.66271 0.91762 0.32156 0.0
H486 H 0.61374 0.86299 0.33279 0.0
C487 C 0.63161 0.87208 0.40487 0.0
C488 C 0.64571 0.88438 0.41695 0.0
C489 C 0.66276 0.89958 0.41032 0.0
C490 C 0.66494 0.90349 0.39187 0.0
C491 C 0.65027 0.89165 0.3803 0.0
C492 C 0.63441 0.87574 0.38647 0.0
C493 C 0.62104 0.86505 0.37112 0.0
C494 C 0.62579 0.83903 0.3699 0.0
C495 C 0.59508 0.87 0.37283 0.0
C496 C 0.63148 0.87787 0.35542 0.0
C497 C 0.64806 0.89337 0.36107 0.0
C498 C 0.6592 0.90814 0.34918 0.0
C499 C 0.65374 0.90655 0.33093 0.0
C500 C 0.63762 0.89003 0.32478 0.0
C501 C 0.62625 0.87564 0.3372 0.0
H502 H 0.35687 0.40057 0.66175 0.0
H503 H 0.40817 0.34787 0.6722 0.0
H504 H 0.41618 0.34488 0.63987 0.0
H505 H 0.33397 0.37346 0.62264 0.0
H506 H 0.32858 0.39991 0.61068 0.0
H507 H 0.3281 0.39964 0.63482 0.0
H508 H 0.35891 0.43195 0.63563 0.0
H509 H 0.35931 0.43249 0.61149 0.0
H510 H 0.3857 0.42802 0.62377 0.0
H511 H 0.41876 0.34738 0.60677 0.0
H512 H 0.41485 0.35429 0.57433 0.0
H513 H 0.35954 0.4029 0.58449 0.0
C514 C 0.37007 0.38875 0.65719 0.0
C515 C 0.38218 0.37468 0.66944 0.0
C516 C 0.39886 0.35892 0.66304 0.0
C517 C 0.40352 0.35708 0.6447 0.0
C518 C 0.39103 0.37084 0.63291 0.0
C519 C 0.37455 0.38629 0.63881 0.0
C520 C 0.36272 0.39801 0.62313 0.0
C521 C 0.33681 0.39241 0.62281 0.0
C522 C 0.36692 0.42417 0.62353 0.0
C523 C 0.3752 0.38675 0.60755 0.0
C524 C 0.39161 0.37132 0.61357 0.0
C525 C 0.40589 0.3593 0.60185 0.0
C526 C 0.40352 0.36332 0.58346 0.0
C527 C 0.38674 0.37891 0.57694 0.0
C528 C 0.37224 0.3906 0.58914 0.0
H529 H 0.88869 0.14521 0.9107 0.0
H530 H 0.83579 0.09457 0.92231 0.0
H531 H 0.83325 0.08503 0.89001 0.0
H532 H 0.86312 0.16508 0.86834 0.0
H533 H 0.89095 0.16962 0.85818 0.0
H534 H 0.88755 0.17274 0.88204 0.0
H535 H 0.92031 0.14299 0.88691 0.0
H536 H 0.92337 0.1393 0.86307 0.0
H537 H 0.91781 0.11468 0.87715 0.0
H538 H 0.83954 0.0785 0.85676 0.0
H539 H 0.84836 0.08088 0.82434 0.0
H540 H 0.89541 0.13743 0.83464 0.0
C541 C 0.87625 0.13245 0.90637 0.0
C542 C 0.86241 0.12062 0.91887 0.0
C543 C 0.84634 0.10399 0.91283 0.0
C544 C 0.84497 0.0983 0.89457 0.0
C545 C 0.85952 0.10971 0.88262 0.0
C546 C 0.87436 0.1269 0.88822 0.0
C547 C 0.88778 0.13695 0.8727 0.0
C548 C 0.88199 0.16261 0.87016 0.0
C549 C 0.91386 0.13324 0.87511 0.0
C550 C 0.87843 0.12249 0.8575 0.0
C551 C 0.86241 0.10662 0.8635 0.0
C552 C 0.85187 0.09101 0.85189 0.0
C553 C 0.85717 0.0923 0.83355 0.0
C554 C 0.87256 0.10932 0.8271 0.0
C555 C 0.8836 0.12425 0.83928 0.0
H556 H 0.12118 0.3585 0.91059 0.0
H557 H 0.17618 0.40707 0.92173 0.0
H558 H 0.17904 0.41607 0.8894 0.0
H559 H 0.14582 0.33707 0.8683 0.0
H560 H 0.11784 0.33365 0.85812 0.0
H561 H 0.12106 0.33062 0.88201 0.0
H562 H 0.08965 0.36182 0.88668 0.0
H563 H 0.08676 0.36538 0.86281 0.0
H564 H 0.09338 0.38989 0.87672 0.0
H565 H 0.17294 0.42264 0.85625 0.0
H566 H 0.16382 0.42064 0.82386 0.0
H567 H 0.1147 0.36592 0.83431 0.0
C568 C 0.13414 0.37067 0.90615 0.0
C569 C 0.14849 0.38208 0.91857 0.0
C570 C 0.16521 0.39795 0.91236 0.0
C571 C 0.16679 0.40335 0.89407 0.0
C572 C 0.15179 0.3924 0.88221 0.0
C573 C 0.13624 0.37591 0.88794 0.0
C574 C 0.12242 0.36629 0.87244 0.0
C575 C 0.12708 0.34037 0.87008 0.0
C576 C 0.09652 0.37114 0.87481 0.0
C577 C 0.13239 0.38017 0.85713 0.0
C578 C 0.14904 0.39542 0.86307 0.0
C579 C 0.16013 0.41058 0.85141 0.0
C580 C 0.15468 0.40951 0.8331 0.0
C581 C 0.1386 0.39313 0.82669 0.0
C582 C 0.12709 0.37857 0.83891 0.0
H583 H 0.88565 0.86218 0.08678 0.0
H584 H 0.83436 0.91484 0.07626 0.0
H585 H 0.83128 0.92257 0.10878 0.0
H586 H 0.8582 0.84065 0.12818 0.0
H587 H 0.88556 0.83474 0.13868 0.0
H588 H 0.88279 0.83294 0.11467 0.0
H589 H 0.91653 0.86189 0.11126 0.0
H590 H 0.91905 0.86421 0.13525 0.0
H591 H 0.91464 0.88973 0.1219 0.0
H592 H 0.83728 0.92752 0.14193 0.0
H593 H 0.84581 0.9241 0.17427 0.0
H594 H 0.8908 0.86603 0.16343 0.0
C595 C 0.87345 0.87501 0.0914 0.0
C596 C 0.86022 0.88795 0.07914 0.0
C597 C 0.84444 0.90461 0.08553 0.0
C598 C 0.84276 0.90925 0.10393 0.0
C599 C 0.85663 0.89672 0.11566 0.0
C600 C 0.87116 0.87947 0.10972 0.0
C601 C 0.88382 0.8682 0.12515 0.0
C602 C 0.87719 0.84262 0.12677 0.0
C603 C 0.91007 0.8712 0.12327 0.0
C604 C 0.8745 0.88213 0.14068 0.0
C605 C 0.85912 0.89874 0.13488 0.0
C606 C 0.84902 0.91437 0.14667 0.0
C607 C 0.85416 0.91245 0.16497 0.0
C608 C 0.86891 0.89479 0.17125 0.0
C609 C 0.8794 0.87964 0.15892 0.0
H610 H 0.37309 0.59747 0.41205 0.0
H611 H 0.36588 0.66944 0.42636 0.0
H612 H 0.36457 0.67994 0.39417 0.0
H613 H 0.41004 0.60629 0.37453 0.0
H614 H 0.3976 0.58371 0.36105 0.0
H615 H 0.39686 0.58167 0.38513 0.0
H616 H 0.35243 0.57716 0.38431 0.0
H617 H 0.35304 0.57894 0.36021 0.0
H618 H 0.33525 0.59849 0.3729 0.0
H619 H 0.36657 0.6827 0.36085 0.0
H620 H 0.36847 0.67767 0.32811 0.0
H621 H 0.37321 0.60353 0.33503 0.0
C622 C 0.37081 0.61535 0.40829 0.0
C623 C 0.3693 0.63274 0.42143 0.0
C624 C 0.36682 0.65601 0.41631 0.0
C625 C 0.36615 0.66207 0.39813 0.0
C626 C 0.36801 0.64458 0.38539 0.0
C627 C 0.37008 0.62167 0.39019 0.0
C628 C 0.37222 0.60634 0.37381 0.0
C629 C 0.39557 0.59376 0.37363 0.0
C630 C 0.35203 0.58923 0.37275 0.0
C631 C 0.37092 0.6242 0.35904 0.0
C632 C 0.36876 0.64615 0.36606 0.0
C633 C 0.36806 0.6656 0.35518 0.0
C634 C 0.36927 0.66254 0.3366 0.0
C635 C 0.37089 0.6402 0.32905 0.0
C636 C 0.37182 0.62079 0.34045 0.0
H637 H 0.61806 0.14129 0.66122 0.0
H638 H 0.6646 0.08433 0.67152 0.0
H639 H 0.67329 0.08171 0.63912 0.0
H640 H 0.59486 0.11743 0.61969 0.0
H641 H 0.59195 0.14533 0.60932 0.0
H642 H 0.58976 0.14259 0.63329 0.0
H643 H 0.62219 0.17298 0.63694 0.0
H644 H 0.62484 0.17541 0.61295 0.0
H645 H 0.64971 0.16821 0.62632 0.0
H646 H 0.67916 0.08746 0.60596 0.0
H647 H 0.67569 0.09558 0.5735 0.0
H648 H 0.62283 0.14643 0.58463 0.0
C649 C 0.62984 0.12809 0.65657 0.0
C650 C 0.64072 0.11302 0.66875 0.0
C651 C 0.65596 0.09589 0.66231 0.0
C652 C 0.66118 0.09444 0.64399 0.0
C653 C 0.65065 0.10998 0.63234 0.0
C654 C 0.63479 0.12604 0.6383 0.0
C655 C 0.625 0.13991 0.6229 0.0
C656 C 0.59884 0.13607 0.6212 0.0
C657 C 0.63079 0.16565 0.62491 0.0
C658 C 0.63796 0.12927 0.60737 0.0
C659 C 0.65304 0.11238 0.61314 0.0
C660 C 0.66727 0.10049 0.60125 0.0
C661 C 0.66536 0.10537 0.5829 0.0
C662 C 0.64903 0.12161 0.5767 0.0
C663 C 0.63547 0.13395 0.58911 0.0
H664 H 0.89517 0.37605 0.83309 0.0
H665 H 0.84261 0.42731 0.82238 0.0
H666 H 0.83524 0.43094 0.85499 0.0
H667 H 0.8677 0.34745 0.86793 0.0
H668 H 0.89317 0.3428 0.88129 0.0
H669 H 0.89556 0.34547 0.85733 0.0
H670 H 0.92468 0.37905 0.86087 0.0
H671 H 0.92287 0.37609 0.88486 0.0
H672 H 0.9171 0.40355 0.8745 0.0
H673 H 0.83058 0.42511 0.88857 0.0
H674 H 0.83407 0.41607 0.92091 0.0
H675 H 0.89141 0.37046 0.90939 0.0
C676 C 0.8825 0.38844 0.83767 0.0
C677 C 0.86947 0.40147 0.82535 0.0
C678 C 0.85296 0.41744 0.83171 0.0
C679 C 0.84852 0.41941 0.85016 0.0
C680 C 0.86109 0.40562 0.86196 0.0
C681 C 0.87822 0.39095 0.85598 0.0
C682 C 0.8894 0.37811 0.87134 0.0
C683 C 0.88626 0.35191 0.86934 0.0
C684 C 0.91503 0.3846 0.87299 0.0
C685 C 0.87552 0.3874 0.88689 0.0
C686 C 0.85908 0.40304 0.88123 0.0
C687 C 0.84361 0.41315 0.89318 0.0
C688 C 0.84555 0.40773 0.91147 0.0
C689 C 0.86302 0.39261 0.91757 0.0
C690 C 0.87794 0.38213 0.90507 0.0
H691 H 0.39035 0.10789 0.66145 0.0
H692 H 0.34639 0.16716 0.67059 0.0
H693 H 0.33723 0.16883 0.63828 0.0
H694 H 0.4144 0.1299 0.62031 0.0
H695 H 0.41649 0.10195 0.6099 0.0
H696 H 0.41822 0.1045 0.63391 0.0
H697 H 0.38447 0.0755 0.63715 0.0
H698 H 0.38247 0.07307 0.61313 0.0
H699 H 0.35749 0.08125 0.62601 0.0
H700 H 0.33178 0.16321 0.60508 0.0
H701 H 0.33556 0.15446 0.57261 0.0
H702 H 0.38601 0.10172 0.58489 0.0
C703 C 0.37879 0.12114 0.65657 0.0
C704 C 0.36895 0.13732 0.66835 0.0
C705 C 0.35415 0.15469 0.66162 0.0
C706 C 0.3487 0.15566 0.64336 0.0
C707 C 0.35856 0.1394 0.63201 0.0
C708 C 0.3737 0.12279 0.63827 0.0
C709 C 0.38335 0.10858 0.62303 0.0
C710 C 0.40967 0.11142 0.62171 0.0
C711 C 0.37653 0.08309 0.62495 0.0
C712 C 0.3712 0.11973 0.60731 0.0
C713 C 0.35658 0.13715 0.61278 0.0
C714 C 0.34324 0.14967 0.60061 0.0
C715 C 0.34533 0.14454 0.58228 0.0
C716 C 0.361 0.12749 0.57651 0.0
C717 C 0.37391 0.11486 0.58914 0.0
H718 H 0.65164 0.60665 0.41381 0.0
H719 H 0.6014 0.66062 0.42362 0.0
H720 H 0.59796 0.6674 0.39127 0.0
H721 H 0.67929 0.63346 0.37455 0.0
H722 H 0.6826 0.60655 0.36276 0.0
H723 H 0.68276 0.60699 0.38691 0.0
H724 H 0.64953 0.57717 0.38725 0.0
H725 H 0.64904 0.57689 0.36311 0.0
H726 H 0.62315 0.58347 0.37545 0.0
H727 H 0.59876 0.6681 0.35866 0.0
H728 H 0.60441 0.66344 0.32637 0.0
H729 H 0.65246 0.60741 0.336 0.0
C730 C 0.64035 0.6202 0.40907 0.0
C731 C 0.62697 0.63333 0.42119 0.0
C732 C 0.61189 0.65049 0.41459 0.0
C733 C 0.60977 0.65444 0.39622 0.0
C734 C 0.62264 0.64088 0.38459 0.0
C735 C 0.63769 0.62413 0.3906 0.0
C736 C 0.64858 0.61142 0.37491 0.0
C737 C 0.67487 0.61482 0.37478 0.0
C738 C 0.64219 0.58571 0.37521 0.0
C739 C 0.63723 0.62373 0.35925 0.0
C740 C 0.62244 0.64069 0.3653 0.0
C741 C 0.61024 0.65486 0.35369 0.0
C742 C 0.61356 0.65201 0.33532 0.0
C743 C 0.62871 0.63494 0.32864 0.0
C744 C 0.64048 0.62034 0.34076 0.0
H745 H 0.11156 0.87002 0.16163 0.0
H746 H 0.15832 0.92666 0.17235 0.0
H747 H 0.16667 0.92988 0.13989 0.0
H748 H 0.14359 0.84329 0.1279 0.0
H749 H 0.11923 0.83553 0.11416 0.0
H750 H 0.11577 0.83856 0.13803 0.0
H751 H 0.0833 0.86867 0.13334 0.0
H752 H 0.08621 0.86526 0.10946 0.0
H753 H 0.08863 0.89347 0.11939 0.0
H754 H 0.17296 0.92379 0.10656 0.0
H755 H 0.17089 0.91413 0.07425 0.0
H756 H 0.11834 0.86301 0.08558 0.0
C757 C 0.12315 0.88344 0.15707 0.0
C758 C 0.13428 0.89814 0.16938 0.0
C759 C 0.14942 0.91544 0.16304 0.0
C760 C 0.15444 0.91721 0.14468 0.0
C761 C 0.14386 0.9018 0.13294 0.0
C762 C 0.12803 0.88568 0.13884 0.0
C763 C 0.11881 0.8713 0.12354 0.0
C764 C 0.12471 0.84566 0.12607 0.0
C765 C 0.09269 0.8749 0.1213 0.0
C766 C 0.13214 0.88162 0.1081 0.0
C767 C 0.14678 0.89894 0.11379 0.0
C768 C 0.16136 0.91045 0.10193 0.0
C769 C 0.16027 0.90468 0.08367 0.0
C770 C 0.14447 0.88786 0.07755 0.0
C771 C 0.13056 0.87597 0.08997 0.0
H772 H 0.85699 0.60694 0.08343 0.0
H773 H 0.91242 0.65605 0.07503 0.0
H774 H 0.9175 0.65979 0.10757 0.0
H775 H 0.83315 0.63399 0.12354 0.0
H776 H 0.82681 0.60697 0.13439 0.0
H777 H 0.82673 0.60882 0.11029 0.0
H778 H 0.85639 0.57548 0.10885 0.0
H779 H 0.85685 0.57381 0.13296 0.0
H780 H 0.88332 0.57811 0.12074 0.0
H781 H 0.91709 0.65847 0.14044 0.0
H782 H 0.90973 0.65354 0.17272 0.0
H783 H 0.8559 0.60391 0.16092 0.0
C784 C 0.86989 0.61874 0.08851 0.0
C785 C 0.88423 0.63132 0.07672 0.0
C786 C 0.90123 0.64628 0.0838 0.0
C787 C 0.90431 0.64848 0.10227 0.0
C788 C 0.89041 0.63542 0.11354 0.0
C789 C 0.87344 0.62093 0.10705 0.0
C790 C 0.86119 0.60869 0.12232 0.0
C791 C 0.83545 0.615 0.12265 0.0
C792 C 0.86465 0.58247 0.12114 0.0
C793 C 0.87388 0.61875 0.13831 0.0
C794 C 0.89067 0.63411 0.13283 0.0
C795 C 0.90411 0.6464 0.14495 0.0
C796 C 0.89986 0.64344 0.16324 0.0
C797 C 0.8825 0.62816 0.16922 0.0
C798 C 0.86966 0.61527 0.15664 0.0
H799 H 0.11718 0.13873 0.83462 0.0
H800 H 0.16502 0.08306 0.82368 0.0
H801 H 0.17435 0.08063 0.85602 0.0
H802 H 0.14936 0.16672 0.86819 0.0
H803 H 0.12491 0.17383 0.88204 0.0
H804 H 0.12135 0.17073 0.85818 0.0
H805 H 0.08967 0.13983 0.86302 0.0
H806 H 0.09269 0.14329 0.88688 0.0
H807 H 0.09574 0.11515 0.87692 0.0
H808 H 0.18072 0.08676 0.88929 0.0
H809 H 0.17806 0.09559 0.92168 0.0
H810 H 0.1245 0.14578 0.9107 0.0
C811 C 0.12932 0.12577 0.8391 0.0
C812 C 0.14041 0.11107 0.82676 0.0
C813 C 0.15619 0.0943 0.83302 0.0
C814 C 0.16177 0.09298 0.8513 0.0
C815 C 0.15112 0.10833 0.86307 0.0
C816 C 0.13477 0.12397 0.85727 0.0
C817 C 0.12532 0.13808 0.87264 0.0
C818 C 0.13056 0.16386 0.8701 0.0
C819 C 0.09932 0.13382 0.87501 0.0
C820 C 0.13905 0.12809 0.88801 0.0
C821 C 0.15413 0.11122 0.8822 0.0
C822 C 0.16885 0.0998 0.89401 0.0
C823 C 0.16741 0.10511 0.91233 0.0
C824 C 0.15112 0.12138 0.91859 0.0
C825 C 0.13715 0.13331 0.90621 0.0
H826 H 0.64685 0.40193 0.58106 0.0
H827 H 0.59142 0.35341 0.57097 0.0
H828 H 0.58682 0.34731 0.60344 0.0
H829 H 0.67135 0.37295 0.61989 0.0
H830 H 0.67742 0.39938 0.63166 0.0
H831 H 0.67728 0.39898 0.60753 0.0
H832 H 0.6471 0.43191 0.60742 0.0
H833 H 0.64693 0.43219 0.63156 0.0
H834 H 0.62037 0.42821 0.6194 0.0
H835 H 0.58837 0.34591 0.63657 0.0
H836 H 0.59595 0.34945 0.66896 0.0
H837 H 0.64822 0.40113 0.65832 0.0
C838 C 0.63402 0.38977 0.58575 0.0
C839 C 0.61964 0.37793 0.57356 0.0
C840 C 0.60267 0.36255 0.5801 0.0
C841 C 0.59989 0.35901 0.59851 0.0
C842 C 0.61398 0.37126 0.61021 0.0
C843 C 0.63068 0.38637 0.60417 0.0
C844 C 0.64294 0.39789 0.61974 0.0
C845 C 0.66878 0.39194 0.6197 0.0
C846 C 0.6391 0.42411 0.61951 0.0
C847 C 0.6306 0.38673 0.63542 0.0
C848 C 0.61405 0.37134 0.62954 0.0
C849 C 0.6011 0.35806 0.64137 0.0
C850 C 0.60548 0.36023 0.65973 0.0
C851 C 0.62236 0.37582 0.66607 0.0
C852 C 0.63482 0.38951 0.65379 0.0
H853 H 0.3939 0.89616 0.33202 0.0
H854 H 0.33875 0.84742 0.32219 0.0
H855 H 0.33027 0.84587 0.35468 0.0
H856 H 0.41431 0.86809 0.37198 0.0
H857 H 0.42198 0.89456 0.38312 0.0
H858 H 0.42257 0.89298 0.35902 0.0
H859 H 0.39488 0.92798 0.3572 0.0
H860 H 0.39413 0.92959 0.38131 0.0
H861 H 0.36765 0.92695 0.36883 0.0
H862 H 0.3269 0.85095 0.38817 0.0
H863 H 0.33237 0.85836 0.42071 0.0
H864 H 0.39222 0.90032 0.40867 0.0
C865 C 0.38001 0.88531 0.33681 0.0
C866 C 0.36679 0.87205 0.32483 0.0
C867 C 0.34898 0.85767 0.33136 0.0
C868 C 0.34399 0.85678 0.34971 0.0
C869 C 0.3573 0.87005 0.3613 0.0
C870 C 0.37522 0.88372 0.35515 0.0
C871 C 0.38786 0.89506 0.37052 0.0
C872 C 0.41317 0.88719 0.37119 0.0
C873 C 0.38601 0.92146 0.36939 0.0
C874 C 0.37423 0.88567 0.3862 0.0
C875 C 0.35638 0.87165 0.38062 0.0
C876 C 0.34095 0.86172 0.39274 0.0
C877 C 0.34409 0.86603 0.41111 0.0
C878 C 0.3628 0.87963 0.41699 0.0
C879 C 0.37796 0.88957 0.4044 0.0
H880 H 0.05328 0.66508 0.00454 0.0
H881 H 0.06428 0.5915 0.00271 0.0
H882 H 0.02573 0.58623 0.98919 0.0
H883 H 1.00301 0.66578 0.02033 0.0
H884 H 0.99052 0.68912 0.00764 0.0
H885 H 0.02104 0.68763 0.01033 0.0
H886 H 0.02622 0.68826 0.97585 0.0
H887 H 0.99535 0.68963 0.97307 0.0
H888 H 0.01164 0.6672 0.96217 0.0
H889 H 0.98328 0.58791 0.98667 0.0
H890 H 0.94327 0.59646 0.99568 0.0
H891 H 0.95906 0.66918 0.99642 0.0
C892 C 0.04791 0.64805 0.00032 0.0
C893 C 0.06152 0.62873 0.00449 0.0
C894 C 0.05412 0.60653 -0.00071 0.0
C895 C 0.03225 0.60343 0.99156 0.0
C896 C 0.0184 0.62279 0.98864 0.0
C897 C 0.02631 0.64483 0.99236 0.0
C898 C 0.00709 0.66237 0.99113 0.0
C899 C 0.00531 0.67701 0.00838 0.0
C900 C 0.01026 0.67777 0.97456 0.0
C901 C 0.98661 0.64648 0.98876 0.0
C902 C 0.99348 0.62379 0.98648 0.0
C903 C 0.97765 0.60565 0.98768 0.0
C904 C 0.95482 0.61062 0.99269 0.0
C905 C 0.94826 0.63351 0.9966 0.0
C906 C 0.96377 0.65164 0.9931 0.0
H907 H 0.59119 0.70747 0.24691 0.0
H908 H 0.66462 0.6956 0.247 0.0
H909 H 0.67111 0.73519 0.23606 0.0
H910 H 0.59079 0.7579 0.21013 0.0
H911 H 0.56878 0.77208 0.22314 0.0
H912 H 0.5691 0.74106 0.22143 0.0
H913 H 0.56916 0.73833 0.25602 0.0
H914 H 0.56934 0.76895 0.25788 0.0
H915 H 0.59181 0.75237 0.26852 0.0
H916 H 0.67059 0.77767 0.23682 0.0
H917 H 0.6633 0.81647 0.24924 0.0
H918 H 0.5903 0.80192 0.25107 0.0
C919 C 0.60846 0.71286 0.2433 0.0
C920 C 0.62737 0.69868 0.24756 0.0
C921 C 0.64989 0.70611 0.24338 0.0
C922 C 0.65368 0.72871 0.23726 0.0
C923 C 0.63472 0.7434 0.23523 0.0
C924 C 0.61236 0.73551 0.2377 0.0
C925 C 0.59544 0.75531 0.23926 0.0
C926 C 0.58013 0.75667 0.22249 0.0
C927 C 0.58065 0.75362 0.25644 0.0
C928 C 0.61201 0.7754 0.23991 0.0
C929 C 0.63443 0.76845 0.23643 0.0
C930 C 0.65305 0.78342 0.23892 0.0
C931 C 0.6488 0.80546 0.24598 0.0
C932 C 0.62621 0.81196 0.25091 0.0
C933 C 0.6076 0.79725 0.24701 0.0
H934 H 0.45545 0.34677 0.48981 0.0
H935 H 0.44273 0.41958 0.49594 0.0
H936 H 0.48094 0.42814 0.48309 0.0
H937 H 0.50286 0.34415 0.50707 0.0
H938 H 0.51789 0.32389 0.49292 0.0
H939 H 0.48721 0.32375 0.49344 0.0
H940 H 0.48578 0.32956 0.4591 0.0
H941 H 0.51688 0.32957 0.45845 0.0
H942 H 0.50099 0.3533 0.44896 0.0
H943 H 0.52316 0.42819 0.48234 0.0
H944 H 0.56217 0.41966 0.49364 0.0
H945 H 0.54936 0.34686 0.48743 0.0
C946 C 0.46026 0.36447 0.48716 0.0
C947 C 0.44635 0.3825 0.49363 0.0
C948 C 0.45303 0.40556 0.49065 0.0
C949 C 0.47482 0.41052 0.48339 0.0
C950 C 0.4894 0.39222 0.47885 0.0
C951 C 0.482 0.36952 0.48004 0.0
C952 C 0.50202 0.35289 0.47837 0.0
C953 C 0.50252 0.33522 0.49389 0.0
C954 C 0.50138 0.34062 0.46013 0.0
C955 C 0.52203 0.36961 0.47919 0.0
C956 C 0.51451 0.39228 0.47831 0.0
C957 C 0.52935 0.4106 0.4823 0.0
C958 C 0.55162 0.40566 0.48864 0.0
C959 C 0.55858 0.38259 0.4912 0.0
C960 C 0.54434 0.36458 0.4851 0.0
H961 H 0.84408 0.30066 0.78392 0.0
H962 H 0.89269 0.31581 0.74166 0.0
H963 H 0.88989 0.27544 0.73096 0.0
H964 H 0.86648 0.25285 0.79703 0.0
H965 H 0.84049 0.23711 0.80212 0.0
H966 H 0.84015 0.26791 0.80236 0.0
H967 H 0.8068 0.26818 0.77925 0.0
H968 H 0.80694 0.2371 0.779 0.0
H969 H 0.80995 0.25292 0.75835 0.0
H970 H 0.89034 0.23225 0.73069 0.0
H971 H 0.89395 0.19175 0.7409 0.0
H972 H 0.84452 0.20488 0.78298 0.0
C973 C 0.85312 0.29564 0.77183 0.0
C974 C 0.86831 0.31109 0.7634 0.0
C975 C 0.88058 0.30415 0.74798 0.0
C976 C 0.87904 0.28128 0.74185 0.0
C977 C 0.86481 0.2659 0.75113 0.0
C978 C 0.85163 0.27302 0.76559 0.0
C979 C 0.84089 0.25283 0.77529 0.0
C980 C 0.84743 0.25268 0.79535 0.0
C981 C 0.81458 0.25276 0.77281 0.0
C982 C 0.8519 0.23312 0.76522 0.0
C983 C 0.86497 0.24083 0.75089 0.0
C984 C 0.87949 0.22593 0.74142 0.0
C985 C 0.88143 0.20295 0.74723 0.0
C986 C 0.86913 0.19539 0.76246 0.0
C987 C 0.85351 0.21032 0.77098 0.0
H988 H 0.9558 0.34465 0.98438 0.0
H989 H 0.94434 0.41785 0.99006 0.0
H990 H 0.98469 0.42287 0.00017 0.0
H991 H 1.0036 0.33934 0.0216 0.0
H992 H 0.01831 0.31845 0.00786 0.0
H993 H 0.98723 0.31955 0.00801 0.0
H994 H 0.98734 0.32382 0.97346 0.0
H995 H 0.01813 0.32303 0.9732 0.0
H996 H 1.00323 0.3472 0.96338 0.0
H997 H 0.02779 0.4214 0.00019 0.0
H998 H 0.06778 0.4136 0.99029 0.0
H999 H 0.05126 0.3413 0.98461 0.0
C1000 C 0.96154 0.36148 0.9888 0.0
C1001 C 0.94718 0.38081 0.98668 0.0
C1002 C 0.95509 0.40279 0.992 0.0
C1003 C 0.978 0.40574 0.99773 0.0
C1004 C 0.99244 0.38645 0.99841 0.0
C1005 C 0.98425 0.36458 0.99451 0.0
C1006 C 1.00367 0.34733 0.99285 0.0
C1007 C 1.00317 0.33016 0.00852 0.0
C1008 C 1.00305 0.33466 0.97464 0.0
C1009 C 0.02417 0.36328 0.99433 0.0
C1010 C 0.01752 0.38562 0.99832 0.0
C1011 C 0.03326 0.40387 0.99769 0.0
C1012 C 0.05597 0.39932 0.99208 0.0
C1013 C 0.06241 0.37683 0.98682 0.0
C1014 C 0.04667 0.35856 0.98885 0.0
H1015 H 0.83697 0.8019 0.22326 0.0
H1016 H 0.89371 0.81639 0.25897 0.0
H1017 H 0.88988 0.77754 0.27227 0.0
H1018 H 0.80521 0.75761 0.25557 0.0
H1019 H 0.79719 0.74082 0.23623 0.0
H1020 H 0.79825 0.77184 0.23479 0.0
H1021 H 0.82613 0.76877 0.20778 0.0
H1022 H 0.82508 0.73809 0.20912 0.0
H1023 H 0.85254 0.75263 0.2102 0.0
H1024 H 0.88924 0.73529 0.27364 0.0
H1025 H 0.89207 0.69531 0.26264 0.0
H1026 H 0.83428 0.70698 0.22741 0.0
C1027 C 0.84757 0.79718 0.23463 0.0
C1028 C 0.86531 0.81193 0.24039 0.0
C1029 C 0.87965 0.80535 0.25477 0.0
C1030 C 0.87752 0.78332 0.26239 0.0
C1031 C 0.86068 0.76839 0.25566 0.0
C1032 C 0.84549 0.77532 0.24236 0.0
C1033 C 0.83205 0.7551 0.23493 0.0
C1034 C 0.80667 0.75643 0.24073 0.0
C1035 C 0.83414 0.75357 0.21432 0.0
C1036 C 0.84422 0.73539 0.24428 0.0
C1037 C 0.85993 0.74339 0.25684 0.0
C1038 C 0.87633 0.72873 0.2645 0.0
C1039 C 0.87776 0.70594 0.2583 0.0
C1040 C 0.86288 0.69814 0.24463 0.0
C1041 C 0.84505 0.7125 0.23847 0.0
H1042 H 0.45433 0.66271 0.49865 0.0
H1043 H 0.44299 0.58931 0.49559 0.0
H1044 H 0.48189 0.5824 0.50801 0.0
H1045 H 0.50261 0.66454 0.4808 0.0
H1046 H 0.51673 0.68639 0.49404 0.0
H1047 H 0.48604 0.68565 0.49303 0.0
H1048 H 0.48388 0.68291 0.5276 0.0
H1049 H 0.51494 0.68375 0.52874 0.0
H1050 H 0.49936 0.6605 0.53921 0.0
H1051 H 0.52434 0.58348 0.5094 0.0
H1052 H 0.56383 0.59238 0.49923 0.0
H1053 H 0.54879 0.66514 0.50217 0.0
C1054 C 0.45967 0.64528 0.50176 0.0
C1055 C 0.44588 0.62656 0.49646 0.0
C1056 C 0.45326 0.60385 0.50001 0.0
C1057 C 0.47536 0.59983 0.50705 0.0
C1058 C 0.48955 0.61874 0.51079 0.0
C1059 C 0.48165 0.64115 0.50874 0.0
C1060 C 0.50119 0.65837 0.50988 0.0
C1061 C 0.50167 0.67462 0.49345 0.0
C1062 C 0.49975 0.67219 0.5274 0.0
C1063 C 0.52159 0.64213 0.5102 0.0
C1064 C 0.51462 0.61936 0.51172 0.0
C1065 C 0.53009 0.60121 0.50893 0.0
C1066 C 0.5526 0.60637 0.50324 0.0
C1067 C 0.55916 0.62946 0.50013 0.0
C1068 C 0.54408 0.64743 0.50492 0.0
H1069 H 0.6712 0.20643 0.72274 0.0
H1070 H 0.61379 0.18828 0.75674 0.0
H1071 H 0.6149 0.227 0.77048 0.0
H1072 H 0.69884 0.25205 0.75663 0.0
H1073 H 0.70699 0.26949 0.73767 0.0
H1074 H 0.70784 0.23847 0.73606 0.0
H1075 H 0.68152 0.24025 0.70808 0.0
H1076 H 0.68059 0.27092 0.70961 0.0
H1077 H 0.65404 0.25471 0.70961 0.0
H1078 H 0.61243 0.26904 0.7715 0.0
H1079 H 0.60766 0.30876 0.76036 0.0
H1080 H 0.66857 0.30125 0.72772 0.0
C1081 C 0.65992 0.21034 0.73389 0.0
C1082 C 0.64269 0.19459 0.73897 0.0
C1083 C 0.62745 0.2001 0.75306 0.0
C1084 C 0.62802 0.22207 0.76091 0.0
C1085 C 0.64427 0.23802 0.75476 0.0
C1086 C 0.66049 0.23214 0.7419 0.0
C1087 C 0.67314 0.2532 0.73505 0.0
C1088 C 0.69819 0.25331 0.74176 0.0
C1089 C 0.6722 0.25486 0.71439 0.0
C1090 C 0.6593 0.27207 0.74404 0.0
C1091 C 0.64338 0.26301 0.756 0.0
C1092 C 0.6255 0.27649 0.76292 0.0
C1093 C 0.62292 0.29912 0.75662 0.0
C1094 C 0.63827 0.30805 0.74371 0.0
C1095 C 0.65742 0.29494 0.73828 0.0
H1096 H 0.41058 0.30069 0.75446 0.0
H1097 H 0.33808 0.3154 0.74855 0.0
H1098 H 0.32855 0.27699 0.76055 0.0
H1099 H 0.41215 0.25397 0.73614 0.0
H1100 H 0.43198 0.23792 0.74998 0.0
H1101 H 0.43287 0.26857 0.75019 0.0
H1102 H 0.42694 0.26876 0.78453 0.0
H1103 H 0.42616 0.23768 0.78443 0.0
H1104 H 0.40277 0.25376 0.79425 0.0
H1105 H 0.32745 0.23489 0.7602 0.0
H1106 H 0.33505 0.19623 0.74783 0.0
H1107 H 0.40814 0.20687 0.75449 0.0
C1108 C 0.39275 0.29621 0.75697 0.0
C1109 C 0.37507 0.31077 0.75078 0.0
C1110 C 0.35183 0.30457 0.7536 0.0
C1111 C 0.34632 0.28268 0.76039 0.0
C1112 C 0.36426 0.2675 0.76461 0.0
C1113 C 0.38716 0.27436 0.7636 0.0
C1114 C 0.40329 0.2539 0.76482 0.0
C1115 C 0.42103 0.25358 0.74934 0.0
C1116 C 0.4155 0.2535 0.7831 0.0
C1117 C 0.38606 0.23437 0.76348 0.0
C1118 C 0.36358 0.24241 0.76454 0.0
C1119 C 0.34488 0.22825 0.76012 0.0
C1120 C 0.34929 0.20619 0.75316 0.0
C1121 C 0.37218 0.19875 0.75052 0.0
C1122 C 0.39055 0.21223 0.75697 0.0
H1123 H 0.16311 0.70364 0.21355 0.0
H1124 H 0.11347 0.6907 0.25551 0.0
H1125 H 0.11727 0.73114 0.26578 0.0
H1126 H 0.19779 0.75188 0.23858 0.0
H1127 H 0.20121 0.76691 0.21761 0.0
H1128 H 0.20108 0.73583 0.21805 0.0
H1129 H 0.1681 0.73562 0.19464 0.0
H1130 H 0.16793 0.76641 0.19425 0.0
H1131 H 0.14178 0.75099 0.19945 0.0
H1132 H 0.11776 0.77421 0.26549 0.0
H1133 H 0.11471 0.81444 0.25457 0.0
H1134 H 0.16373 0.79935 0.21258 0.0
C1135 C 0.15413 0.70913 0.22555 0.0
C1136 C 0.13837 0.69428 0.23399 0.0
C1137 C 0.12609 0.70185 0.24922 0.0
C1138 C 0.12817 0.72478 0.25509 0.0
C1139 C 0.14286 0.73962 0.24572 0.0
C1140 C 0.15606 0.73186 0.23145 0.0
C1141 C 0.16709 0.75161 0.22139 0.0
C1142 C 0.19335 0.75155 0.22408 0.0
C1143 C 0.1608 0.75112 0.20128 0.0
C1144 C 0.15613 0.77177 0.23094 0.0
C1145 C 0.14298 0.76468 0.24543 0.0
C1146 C 0.12865 0.78004 0.25461 0.0
C1147 C 0.12701 0.80285 0.24838 0.0
C1148 C 0.13933 0.80977 0.23298 0.0
C1149 C 0.1547 0.79438 0.22469 0.0
H1150 H 0.09317 0.20466 0.7606 0.0
H1151 H 0.16598 0.19174 0.75355 0.0
H1152 H 0.17138 0.23178 0.7429 0.0
H1153 H 0.08749 0.25185 0.72301 0.0
H1154 H 0.06734 0.2672 0.737 0.0
H1155 H 0.06785 0.23612 0.73719 0.0
H1156 H 0.07334 0.23675 0.77164 0.0
H1157 H 0.07304 0.26753 0.77155 0.0
H1158 H 0.09732 0.25244 0.78106 0.0
H1159 H 0.17074 0.2748 0.74249 0.0
H1160 H 0.16416 0.31492 0.75252 0.0
H1161 H 0.09172 0.30004 0.75972 0.0
C1162 C 0.10997 0.21003 0.75584 0.0
C1163 C 0.12911 0.19534 0.75771 0.0
C1164 C 0.15105 0.20274 0.75185 0.0
C1165 C 0.15422 0.22547 0.7458 0.0
C1166 C 0.13517 0.24024 0.74534 0.0
C1167 C 0.11329 0.23255 0.7498 0.0
C1168 C 0.09646 0.25231 0.75159 0.0
C1169 C 0.07874 0.25184 0.73628 0.0
C1170 C 0.08439 0.25224 0.77005 0.0
C1171 C 0.11274 0.27246 0.74955 0.0
C1172 C 0.13481 0.26531 0.74514 0.0
C1173 C 0.1534 0.28067 0.7453 0.0
C1174 C 0.14955 0.30346 0.75097 0.0
C1175 C 0.1274 0.31038 0.75672 0.0
C1176 C 0.10869 0.29508 0.75504 0.0
H1177 H 0.41261 0.70569 0.24257 0.0
H1178 H 0.3395 0.69261 0.24546 0.0
H1179 H 0.33169 0.73093 0.2326 0.0
H1180 H 0.41373 0.7524 0.26064 0.0
H1181 H 0.43485 0.76805 0.24771 0.0
H1182 H 0.43524 0.73738 0.24761 0.0
H1183 H 0.43188 0.73699 0.21308 0.0
H1184 H 0.43172 0.76808 0.21303 0.0
H1185 H 0.4088 0.75239 0.2022 0.0
H1186 H 0.33143 0.77311 0.23237 0.0
H1187 H 0.33882 0.81196 0.24446 0.0
H1188 H 0.41211 0.79958 0.24176 0.0
C1189 C 0.39509 0.71046 0.23918 0.0
C1190 C 0.37668 0.69642 0.2448 0.0
C1191 C 0.35383 0.70302 0.24085 0.0
C1192 C 0.34929 0.72488 0.23359 0.0
C1193 C 0.36783 0.73964 0.23006 0.0
C1194 C 0.39046 0.73233 0.23214 0.0
C1195 C 0.40708 0.75247 0.2316 0.0
C1196 C 0.42361 0.75257 0.24787 0.0
C1197 C 0.42066 0.75248 0.21392 0.0
C1198 C 0.39019 0.77233 0.23207 0.0
C1199 C 0.36767 0.76474 0.22998 0.0
C1200 C 0.34897 0.77937 0.23329 0.0
C1201 C 0.35327 0.80152 0.24012 0.0
C1202 C 0.37606 0.80856 0.24385 0.0
C1203 C 0.39462 0.79449 0.23857 0.0
H1204 H 0.45644 0.09069 0.52876 0.0
H1205 H 0.44224 0.14473 0.49058 0.0
H1206 H 0.48255 0.14285 0.47983 0.0
H1207 H 0.50261 0.11131 0.54433 0.0
H1208 H 0.51915 0.08537 0.5477 0.0
H1209 H 0.4884 0.08388 0.5471 0.0
H1210 H 0.4901 0.054 0.52136 0.0
H1211 H 0.52118 0.05509 0.52205 0.0
H1212 H 0.50618 0.06041 0.5013 0.0
H1213 H 0.52533 0.14403 0.48042 0.0
H1214 H 0.56521 0.14771 0.49199 0.0
H1215 H 0.55198 0.09334 0.53016 0.0
C1216 C 0.46161 0.10096 0.51733 0.0
C1217 C 0.44644 0.11744 0.51016 0.0
C1218 C 0.45361 0.13153 0.4958 0.0
C1219 C 0.4765 0.13057 0.48968 0.0
C1220 C 0.49173 0.11523 0.49797 0.0
C1221 C 0.48436 0.10022 0.51125 0.0
C1222 C 0.50448 0.08885 0.52064 0.0
C1223 C 0.5036 0.09263 0.54112 0.0
C1224 C 0.50555 0.06306 0.51605 0.0
C1225 C 0.52427 0.10171 0.51208 0.0
C1226 C 0.51677 0.11611 0.49847 0.0
C1227 C 0.53154 0.13221 0.49054 0.0
C1228 C 0.55413 0.13423 0.49716 0.0
C1229 C 0.56144 0.12046 0.51167 0.0
C1230 C 0.54671 0.10349 0.51869 0.0
H1231 H 0.9543 0.84027 0.01378 0.0
H1232 H 0.94171 0.91284 0.00507 0.0
H1233 H 0.98181 0.91762 0.99434 0.0
H1234 H 1.00208 0.84523 0.03433 0.0
H1235 H 0.0171 0.82049 0.02551 0.0
H1236 H 0.9863 0.82092 0.02555 0.0
H1237 H 0.98572 0.8139 0.99127 0.0
H1238 H 0.01681 0.81324 0.99113 0.0
H1239 H 1.00157 0.83281 0.97659 0.0
H1240 H 0.02486 0.91672 0.9938 0.0
H1241 H 0.06505 0.91034 0.00379 0.0
H1242 H 0.04976 0.83841 0.01311 0.0
C1243 C 0.95974 0.85688 0.00868 0.0
C1244 C 0.94513 0.87615 0.01012 0.0
C1245 C 0.95265 0.8978 0.00375 0.0
C1246 C 0.97541 0.90063 0.99764 0.0
C1247 C 0.99011 0.88151 0.99766 0.0
C1248 C 0.98231 0.85987 0.00264 0.0
C1249 C 1.002 0.84304 0.0049 0.0
C1250 C 1.00185 0.83182 0.02368 0.0
C1251 C 1.00149 0.82467 0.99008 0.0
C1252 C 0.02223 0.85913 0.00246 0.0
C1253 C 0.01518 0.88102 0.99747 0.0
C1254 C 0.03064 0.8995 0.99707 0.0
C1255 C 0.05347 0.89575 0.00273 0.0
C1256 C 0.0603 0.87384 0.00905 0.0
C1257 C 0.04486 0.85519 0.008 0.0
H1258 H 0.45453 0.8512 0.48921 0.0
H1259 H 0.44288 0.92463 0.48677 0.0
H1260 H 0.48309 0.93153 0.4965 0.0
H1261 H 0.50348 0.85245 0.52607 0.0
H1262 H 0.51793 0.82953 0.51426 0.0
H1263 H 0.48685 0.83042 0.51497 0.0
H1264 H 0.48577 0.82878 0.48032 0.0
H1265 H 0.51652 0.82823 0.47944 0.0
H1266 H 0.50098 0.8504 0.46758 0.0
H1267 H 0.52603 0.93036 0.49656 0.0
H1268 H 0.56568 0.92141 0.48648 0.0
H1269 H 0.54977 0.84867 0.4876 0.0
C1270 C 0.46018 0.86866 0.49186 0.0
C1271 C 0.44581 0.88738 0.48752 0.0
C1272 C 0.45361 0.9101 0.49048 0.0
C1273 C 0.47646 0.91411 0.49596 0.0
C1274 C 0.49101 0.89518 0.49866 0.0
C1275 C 0.48291 0.87279 0.4971 0.0
C1276 C 0.50247 0.85553 0.49676 0.0
C1277 C 0.5027 0.84114 0.51405 0.0
C1278 C 0.50136 0.83988 0.48003 0.0
C1279 C 0.52284 0.87172 0.49617 0.0
C1280 C 0.51609 0.89448 0.49821 0.0
C1281 C 0.5316 0.91261 0.49556 0.0
C1282 C 0.55411 0.90742 0.48985 0.0
C1283 C 0.56056 0.88435 0.48645 0.0
C1284 C 0.54515 0.86637 0.49048 0.0
H1285 H 0.05451 0.16539 0.9831 0.0
H1286 H 0.0678 0.09264 0.99011 0.0
H1287 H 0.0275 0.08692 0.00013 0.0
H1288 H 0.00675 0.17087 0.01984 0.0
H1289 H 0.99147 0.19085 0.00567 0.0
H1290 H 0.02257 0.19048 0.0057 0.0
H1291 H 0.02239 0.18473 0.97127 0.0
H1292 H 0.99159 0.1849 0.97113 0.0
H1293 H 0.00691 0.16064 0.96184 0.0
H1294 H 0.98433 0.08742 0.0004 0.0
H1295 H 0.94407 0.09398 0.9906 0.0
H1296 H 0.95891 0.16636 0.98316 0.0
C1297 C 0.04915 0.14849 0.98764 0.0
C1298 C 0.06405 0.12948 0.98595 0.0
C1299 C 0.05663 0.10747 0.99163 0.0
C1300 C 0.03376 0.10412 0.99733 0.0
C1301 C 0.01885 0.12306 0.99762 0.0
C1302 C 0.0265 0.14499 0.99329 0.0
C1303 C 0.00668 0.16172 0.99131 0.0
C1304 C 0.00688 0.17953 0.00654 0.0
C1305 C 0.00692 0.17364 0.9728 0.0
C1306 C 0.98657 0.14537 0.99325 0.0
C1307 C 0.99377 0.12333 0.99766 0.0
C1308 C 0.97844 0.10473 0.99757 0.0
C1309 C 0.95558 0.10857 0.99203 0.0
C1310 C 0.9486 0.13071 0.98632 0.0
C1311 C 0.96392 0.1494 0.98781 0.0
H1312 H 0.12731 0.44562 0.00822 0.0
H1313 H 0.16382 0.4505 0.95775 0.0
H1314 H 0.16943 0.49229 0.96245 0.0
H1315 H 0.09633 0.49687 0.00298 0.0
H1316 H 0.09713 0.50536 0.02621 0.0
H1317 H 0.09882 0.47534 0.02029 0.0
H1318 H 0.13719 0.47147 0.03782 0.0
H1319 H 0.13547 0.50146 0.04397 0.0
H1320 H 0.16077 0.49063 0.03275 0.0
H1321 H 0.16827 0.53428 0.9714 0.0
H1322 H 0.16058 0.57298 0.98419 0.0
H1323 H 0.12362 0.54104 0.02825 0.0
C1324 C 0.13718 0.45542 -0.00145 0.0
C1325 C 0.14572 0.44484 0.98286 0.0
C1326 C 0.15762 0.45831 0.97003 0.0
C1327 C 0.16082 0.48205 0.97256 0.0
C1328 C 0.15176 0.49221 0.98794 0.0
C1329 C 0.14026 0.47933 0.00077 0.0
C1330 C 0.1306 0.49481 0.01533 0.0
C1331 C 0.10415 0.49298 0.01624 0.0
C1332 C 0.14167 0.48926 0.03355 0.0
C1333 C 0.13814 0.5183 0.00853 0.0
C1334 C 0.15052 0.51645 0.9928 0.0
C1335 C 0.15874 0.53592 0.98381 0.0
C1336 C 0.15426 0.55785 0.99113 0.0
C1337 C 0.1415 0.56012 0.00719 0.0
C1338 C 0.13345 0.53997 0.01594 0.0
H1339 H 0.79898 0.85918 0.23796 0.0
H1340 H 0.81483 0.93179 0.24306 0.0
H1341 H 0.7734 0.93999 0.24905 0.0
H1342 H 0.7459 0.86445 0.21587 0.0
H1343 H 0.73213 0.84099 0.22754 0.0
H1344 H 0.76292 0.8409 0.22445 0.0
H1345 H 0.76926 0.83712 0.25871 0.0
H1346 H 0.7385 0.83648 0.26187 0.0
H1347 H 0.75571 0.85748 0.27362 0.0
H1348 H 0.72891 0.93988 0.25183 0.0
H1349 H 0.68753 0.93084 0.25706 0.0
H1350 H 0.70245 0.85807 0.25174 0.0
C1351 C 0.79378 0.87675 0.24074 0.0
C1352 C 0.80996 0.89487 0.24022 0.0
C1353 C 0.80264 0.91767 0.24374 0.0
C1354 C 0.77915 0.92246 0.24691 0.0
C1355 C 0.76342 0.90418 0.24672 0.0
C1356 C 0.77064 0.8817 0.24421 0.0
C1357 C 0.75071 0.86494 0.24505 0.0
C1358 C 0.74776 0.85207 0.22716 0.0
C1359 C 0.75372 0.84801 0.26075 0.0
C1360 C 0.73097 0.88141 0.24829 0.0
C1361 C 0.73845 0.90404 0.24891 0.0
C1362 C 0.72297 0.92221 0.25147 0.0
C1363 C 0.69948 0.91698 0.25417 0.0
C1364 C 0.69191 0.89382 0.25453 0.0
C1365 C 0.70782 0.87595 0.25128 0.0
H1366 H 0.40415 0.45965 0.51071 0.0
H1367 H 0.33175 0.44138 0.50945 0.0
H1368 H 0.32182 0.48201 0.50217 0.0
H1369 H 0.39888 0.51555 0.52984 0.0
H1370 H 0.42105 0.52823 0.51607 0.0
H1371 H 0.42217 0.49801 0.52148 0.0
H1372 H 0.42363 0.48766 0.4877 0.0
H1373 H 0.42293 0.51786 0.48221 0.0
H1374 H 0.40166 0.49863 0.47289 0.0
H1375 H 0.32027 0.52609 0.49685 0.0
H1376 H 0.32755 0.56709 0.48885 0.0
H1377 H 0.40109 0.55461 0.4911 0.0
C1378 C 0.38619 0.46419 0.50881 0.0
C1379 C 0.36866 0.4475 0.51072 0.0
C1380 C 0.34541 0.45395 0.50794 0.0
C1381 C 0.33964 0.47701 0.50396 0.0
C1382 C 0.3574 0.49321 0.50249 0.0
C1383 C 0.38025 0.48686 0.50442 0.0
C1384 C 0.39628 0.50703 0.50125 0.0
C1385 C 0.41042 0.51252 0.51817 0.0
C1386 C 0.41205 0.50252 0.48505 0.0
C1387 C 0.37897 0.52587 0.49735 0.0
C1388 C 0.35658 0.5178 0.49845 0.0
C1389 C 0.33775 0.53247 0.49582 0.0
C1390 C 0.34199 0.55574 0.49146 0.0
C1391 C 0.36484 0.56387 0.48945 0.0
C1392 C 0.38345 0.54876 0.4926 0.0
H1393 H 0.80004 0.14592 0.76481 0.0
H1394 H 0.82092 0.07682 0.75003 0.0
H1395 H 0.7803 0.06746 0.74221 0.0
H1396 H 0.74604 0.13256 0.78425 0.0
H1397 H 0.73141 0.15743 0.77529 0.0
H1398 H 0.76195 0.15857 0.77959 0.0
H1399 H 0.76974 0.1703 0.74662 0.0
H1400 H 0.7392 0.16979 0.74236 0.0
H1401 H 0.75838 0.15277 0.72873 0.0
H1402 H 0.73629 0.06553 0.7377 0.0
H1403 H 0.69487 0.07319 0.73162 0.0
H1404 H 0.70414 0.14422 0.74773 0.0
C1405 C 0.79608 0.12888 0.75972 0.0
C1406 C 0.81351 0.11204 0.758 0.0
C1407 C 0.80779 0.08999 0.75125 0.0
C1408 C 0.78475 0.0845 0.74698 0.0
C1409 C 0.76782 0.10139 0.74931 0.0
C1410 C 0.7734 0.12332 0.75509 0.0
C1411 C 0.75241 0.13881 0.75567 0.0
C1412 C 0.74769 0.14733 0.77484 0.0
C1413 C 0.75509 0.15911 0.74256 0.0
C1414 C 0.73397 0.12217 0.74951 0.0
C1415 C 0.74303 0.10053 0.74617 0.0
C1416 C 0.72909 0.0824 0.74029 0.0
C1417 C 0.70555 0.08678 0.7371 0.0
C1418 C 0.69636 0.1091 0.73966 0.0
C1419 C 0.7107 0.12686 0.74614 0.0
H1420 H 0.90124 0.54819 0.02081 0.0
H1421 H 0.83802 0.57371 0.99694 0.0
H1422 H 0.82781 0.53389 0.98784 0.0
H1423 H 0.9139 0.50701 0.98667 0.0
H1424 H 0.9257 0.48609 0.002 0.0
H1425 H 0.92709 0.51631 0.00733 0.0
H1426 H 0.9063 0.50834 0.03744 0.0
H1427 H 0.90456 0.47811 0.03207 0.0
H1428 H 0.87873 0.49398 0.03736 0.0
H1429 H 0.82474 0.49085 0.98126 0.0
H1430 H 0.83126 0.44947 0.97466 0.0
H1431 H 0.89721 0.45261 0.00167 0.0
C1432 C 0.88518 0.54543 0.01372 0.0
C1433 C 0.87033 0.56409 0.00968 0.0
C1434 C 0.84965 0.55972 0.00018 0.0
C1435 C 0.84366 0.53713 0.99506 0.0
C1436 C 0.8586 0.51909 -0.00056 0.0
C1437 C 0.87909 0.52308 0.00836 0.0
C1438 C 0.89279 0.50099 0.01062 0.0
C1439 C 0.91625 0.50271 0.00108 0.0
C1440 C 0.89576 0.49501 0.03056 0.0
C1441 C 0.87698 0.48391 0.00138 0.0
C1442 C 0.85713 0.49459 0.99532 0.0
C1443 C 0.84015 0.48235 0.98608 0.0
C1444 C 0.84386 0.45882 0.98254 0.0
C1445 C 0.86441 0.44783 0.9881 0.0
C1446 C 0.88106 0.4605 0.99776 0.0
H1447 H 0.21639 0.13128 0.7788 0.0
H1448 H 0.18548 0.09612 0.73344 0.0
H1449 H 0.2245 0.08876 0.72109 0.0
H1450 H 0.26009 0.15972 0.755 0.0
H1451 H 0.2814 0.15692 0.77246 0.0
H1452 H 0.25127 0.15763 0.77812 0.0
H1453 H 0.25561 0.11867 0.79478 0.0
H1454 H 0.28576 0.11773 0.78898 0.0
H1455 H 0.26711 0.09409 0.78302 0.0
H1456 H 0.26685 0.08816 0.71265 0.0
H1457 H 0.30844 0.09579 0.70815 0.0
H1458 H 0.31157 0.13053 0.7594 0.0
C1459 C 0.21774 0.12185 0.76632 0.0
C1460 C 0.19782 0.11426 0.75706 0.0
C1461 C 0.20046 0.10208 0.74076 0.0
C1462 C 0.22256 0.09774 0.73371 0.0
C1463 C 0.24183 0.1055 0.74322 0.0
C1464 C 0.23958 0.11731 0.75918 0.0
C1465 C 0.26281 0.12495 0.76638 0.0
C1466 C 0.26395 0.15136 0.76808 0.0
C1467 C 0.26813 0.11315 0.78436 0.0
C1468 C 0.27859 0.1162 0.75171 0.0
C1469 C 0.26618 0.10476 0.73857 0.0
C1470 C 0.27675 0.09663 0.72304 0.0
C1471 C 0.30039 0.10088 0.72064 0.0
C1472 C 0.31324 0.11296 0.73374 0.0
C1473 C 0.30229 0.12037 0.74959 0.0
H1474 H 0.61542 0.45038 0.48687 0.0
H1475 H 0.66305 0.44987 0.5315 0.0
H1476 H 0.67062 0.49154 0.52702 0.0
H1477 H 0.64729 0.49355 0.45911 0.0
H1478 H 0.62094 0.50649 0.45119 0.0
H1479 H 0.62166 0.47624 0.45665 0.0
H1480 H 0.58753 0.48211 0.47859 0.0
H1481 H 0.58688 0.51237 0.47338 0.0
H1482 H 0.59003 0.5031 0.49631 0.0
H1483 H 0.66994 0.53433 0.51932 0.0
H1484 H 0.66213 0.57393 0.50838 0.0
H1485 H 0.61486 0.54612 0.46883 0.0
C1486 C 0.62805 0.45894 0.49523 0.0
C1487 C 0.63922 0.44694 0.50918 0.0
C1488 C 0.65488 0.45877 0.52043 0.0
C1489 C 0.65916 0.48242 0.51803 0.0
C1490 C 0.64758 0.49398 0.50432 0.0
C1491 C 0.63253 0.48255 0.49298 0.0
C1492 C 0.62125 0.49916 0.47998 0.0
C1493 C 0.6282 0.49352 0.46058 0.0
C1494 C 0.59487 0.49918 0.48221 0.0
C1495 C 0.63174 0.52176 0.4861 0.0
C1496 C 0.64704 0.51847 0.50005 0.0
C1497 C 0.65818 0.53704 0.50826 0.0
C1498 C 0.65361 0.55949 0.502 0.0
C1499 C 0.63794 0.5632 0.48773 0.0
C1500 C 0.62702 0.54396 0.47972 0.0
H1501 H 0.21331 0.87733 0.21538 0.0
H1502 H 0.18341 0.91041 0.26208 0.0
H1503 H 0.22272 0.91688 0.27423 0.0
H1504 H 0.25689 0.8473 0.23798 0.0
H1505 H 0.27801 0.85062 0.22045 0.0
H1506 H 0.2478 0.85054 0.21501 0.0
H1507 H 0.25239 0.89017 0.19939 0.0
H1508 H 0.28264 0.89046 0.20493 0.0
H1509 H 0.2644 0.91406 0.2117 0.0
H1510 H 0.26518 0.91672 0.28222 0.0
H1511 H 0.3068 0.90869 0.28602 0.0
H1512 H 0.30879 0.8763 0.2338 0.0
C1513 C 0.21493 0.88617 0.2281 0.0
C1514 C 0.19523 0.89343 0.23779 0.0
C1515 C 0.19823 0.90476 0.25442 0.0
C1516 C 0.22049 0.90857 0.26136 0.0
C1517 C 0.23952 0.9011 0.25143 0.0
C1518 C 0.23691 0.89013 0.23515 0.0
C1519 C 0.25993 0.88253 0.22753 0.0
C1520 C 0.26069 0.85619 0.22511 0.0
C1521 C 0.26514 0.89506 0.20984 0.0
C1522 C 0.27602 0.8904 0.24229 0.0
C1523 C 0.26393 0.90132 0.25587 0.0
C1524 C 0.27483 0.90863 0.27151 0.0
C1525 C 0.29846 0.90414 0.27351 0.0
C1526 C 0.31099 0.89262 0.25993 0.0
C1527 C 0.29973 0.88598 0.24402 0.0
H1528 H 0.62832 0.04412 0.52815 0.0
H1529 H 0.66205 0.07637 0.48269 0.0
H1530 H 0.66879 0.03775 0.46943 0.0
H1531 H 0.66535 0.99344 0.53087 0.0
H1532 H 0.64192 0.97453 0.53684 0.0
H1533 H 0.64097 0.00451 0.54313 0.0
H1534 H 0.60162 0.00903 0.52707 0.0
H1535 H 0.60237 0.97909 0.52085 0.0
H1536 H 0.59907 1.00089 0.50383 0.0
H1537 H 0.66919 0.99582 0.46027 0.0
H1538 H 0.6627 0.95418 0.45547 0.0
H1539 H 0.62972 0.94903 0.50738 0.0
C1540 C 0.63731 0.04314 0.51545 0.0
C1541 C 0.64471 0.06335 0.50644 0.0
C1542 C 0.65628 0.06119 0.48983 0.0
C1543 C 0.66023 0.03931 0.48226 0.0
C1544 C 0.65265 0.01978 0.49153 0.0
C1545 C 0.64144 0.02152 0.50778 0.0
C1546 C 0.63411 0.99802 0.5147 0.0
C1547 C 0.64632 0.99229 0.53244 0.0
C1548 C 0.60773 0.99669 0.51672 0.0
C1549 C 0.64257 0.98266 0.49965 0.0
C1550 C 0.65333 0.99558 0.48645 0.0
C1551 C 0.66118 0.98554 0.47065 0.0
C1552 C 0.6575 0.96188 0.46807 0.0
C1553 C 0.6463 0.94838 0.48126 0.0
C1554 C 0.63907 0.95882 0.49739 0.0
H1555 H 0.19755 0.3699 0.73628 0.0
H1556 H 0.19951 0.41914 0.77981 0.0
H1557 H 0.241 0.42594 0.77421 0.0
H1558 H 0.24998 0.34405 0.74538 0.0
H1559 H 0.25876 0.33977 0.72245 0.0
H1560 H 0.22861 0.34128 0.72796 0.0
H1561 H 0.22304 0.37461 0.70527 0.0
H1562 H 0.25317 0.37299 0.6995 0.0
H1563 H 0.24095 0.39992 0.70689 0.0
H1564 H 0.28329 0.42415 0.76603 0.0
H1565 H 0.32256 0.41492 0.75511 0.0
H1566 H 0.29325 0.36662 0.717 0.0
C1567 C 0.20658 0.38279 0.74408 0.0
C1568 C 0.19527 0.39461 0.75809 0.0
C1569 C 0.2078 0.41049 0.76868 0.0
C1570 C 0.23139 0.41435 0.76565 0.0
C1571 C 0.24228 0.40209 0.75199 0.0
C1572 C 0.23024 0.38681 0.74123 0.0
C1573 C 0.2464 0.37464 0.72833 0.0
C1574 C 0.2459 0.34838 0.73122 0.0
C1575 C 0.24054 0.38092 0.70884 0.0
C1576 C 0.2694 0.38487 0.73392 0.0
C1577 C 0.26666 0.40085 0.74746 0.0
C1578 C 0.28559 0.41188 0.75526 0.0
C1579 C 0.30786 0.40649 0.74902 0.0
C1580 C 0.31107 0.39012 0.73517 0.0
C1581 C 0.29146 0.37932 0.72754 0.0
H1582 H 0.88323 0.94896 0.98828 0.0
H1583 H 0.84272 0.95306 0.03691 0.0
H1584 H 0.83707 0.99483 0.03212 0.0
H1585 H 0.91302 1.00054 0.99469 0.0
H1586 H 0.91359 0.00917 0.97149 0.0
H1587 H 0.9119 0.97909 0.97722 0.0
H1588 H 0.87473 0.97481 0.95827 0.0
H1589 H 0.87649 0.00484 0.95225 0.0
H1590 H 0.85064 0.99368 0.96246 0.0
H1591 H 0.83893 0.03694 0.02365 0.0
H1592 H 0.8468 0.07578 0.01122 0.0
H1593 H 0.88658 0.04455 0.96836 0.0
C1594 C 0.87245 0.95857 0.99748 0.0
C1595 C 0.86281 0.94776 0.01269 0.0
C1596 C 0.84973 0.96101 0.02495 0.0
C1597 C 0.84653 0.98475 0.02239 0.0
C1598 C 0.8567 0.99513 0.00752 0.0
C1599 C 0.86922 0.98245 0.99516 0.0
C1600 C 0.87961 0.99814 0.98103 0.0
C1601 C 0.9061 0.99664 0.98112 0.0
C1602 C 0.86978 0.99253 0.9624 0.0
C1603 C 0.87136 0.02152 0.98758 0.0
C1604 C 0.85806 0.01943 0.00282 0.0
C1605 C 0.84914 0.03876 0.01159 0.0
C1606 C 0.85377 0.06078 0.0045 0.0
C1607 C 0.86726 0.06331 0.98882 0.0
C1608 C 0.87612 0.0433 0.98034 0.0
H1609 H 0.29743 0.65345 0.26077 0.0
H1610 H 0.3172 0.58148 0.25985 0.0
H1611 H 0.27677 0.5707 0.25251 0.0
H1612 H 0.24182 0.64707 0.28002 0.0
H1613 H 0.22852 0.66888 0.26627 0.0
H1614 H 0.25878 0.6707 0.27152 0.0
H1615 H 0.26884 0.67225 0.23769 0.0
H1616 H 0.23859 0.67091 0.23237 0.0
H1617 H 0.25818 0.65003 0.22298 0.0
H1618 H 0.2327 0.56819 0.2472 0.0
H1619 H 0.19154 0.57451 0.23921 0.0
H1620 H 0.20232 0.64827 0.24128 0.0
C1621 C 0.29329 0.63541 0.25888 0.0
C1622 C 0.31038 0.61825 0.26093 0.0
C1623 C 0.30437 0.59487 0.25821 0.0
C1624 C 0.28142 0.58862 0.25421 0.0
C1625 C 0.26483 0.60601 0.25266 0.0
C1626 C 0.27071 0.62898 0.2545 0.0
C1627 C 0.25014 0.64456 0.2514 0.0
C1628 C 0.24449 0.65863 0.26831 0.0
C1629 C 0.25418 0.66036 0.23514 0.0
C1630 C 0.2316 0.62685 0.24763 0.0
C1631 C 0.2402 0.60466 0.24875 0.0
C1632 C 0.22592 0.58551 0.24619 0.0
C1633 C 0.20253 0.58921 0.24185 0.0
C1634 C 0.19383 0.61183 0.23984 0.0
C1635 C 0.20855 0.63079 0.24291 0.0
H1636 H 0.37526 0.04405 0.52854 0.0
H1637 H 0.34415 0.07758 0.48251 0.0
H1638 H 0.33701 0.03924 0.46885 0.0
H1639 H 0.40468 1.00102 0.5047 0.0
H1640 H 0.40042 0.97894 0.52137 0.0
H1641 H 0.4012 0.00875 0.52795 0.0
H1642 H 0.36112 0.00438 0.5429 0.0
H1643 H 0.36016 0.97452 0.53627 0.0
H1644 H 0.33718 0.99376 0.52989 0.0
H1645 H 0.33675 0.99745 0.45915 0.0
H1646 H 0.34345 0.95591 0.45399 0.0
H1647 H 0.37354 0.94951 0.50686 0.0
C1648 C 0.36667 0.04343 0.51566 0.0
C1649 C 0.3602 0.0639 0.50659 0.0
C1650 C 0.34918 0.06218 0.48973 0.0
C1651 C 0.34502 0.04047 0.48191 0.0
C1652 C 0.35182 0.02067 0.49121 0.0
C1653 C 0.36235 0.022 0.50775 0.0
C1654 C 0.36915 0.99831 0.51461 0.0
C1655 C 0.39541 0.99667 0.51731 0.0
C1656 C 0.35612 0.9924 0.53195 0.0
C1657 C 0.3612 0.98332 0.49917 0.0
C1658 C 0.35115 0.99658 0.48584 0.0
C1659 C 0.34415 0.98691 0.46965 0.0
C1660 C 0.34796 0.96331 0.46685 0.0
C1661 C 0.35841 0.94949 0.48022 0.0
C1662 C 0.36474 0.95954 0.49671 0.0
H1663 H 0.71359 0.63314 0.28044 0.0
H1664 H 0.67918 0.60235 0.23472 0.0
H1665 H 0.71718 0.59455 0.22079 0.0
H1666 H 0.75762 0.66132 0.25704 0.0
H1667 H 0.77977 0.65593 0.27345 0.0
H1668 H 0.75007 0.65743 0.28029 0.0
H1669 H 0.75333 0.61684 0.29451 0.0
H1670 H 0.78309 0.61519 0.28768 0.0
H1671 H 0.76311 0.59298 0.28103 0.0
H1672 H 0.75873 0.59432 0.21043 0.0
H1673 H 0.80044 0.60006 0.20501 0.0
H1674 H 0.80824 0.62864 0.25825 0.0
C1675 C 0.71403 0.62449 0.26758 0.0
C1676 C 0.69336 0.61837 0.25864 0.0
C1677 C 0.69474 0.60709 0.24185 0.0
C1678 C 0.71626 0.6026 0.23386 0.0
C1679 C 0.73629 0.60912 0.24296 0.0
C1680 C 0.73535 0.61957 0.25957 0.0
C1681 C 0.75935 0.62549 0.26633 0.0
C1682 C 0.76184 0.65159 0.26945 0.0
C1683 C 0.76505 0.61181 0.2834 0.0
C1684 C 0.77397 0.61748 0.25066 0.0
C1685 C 0.76031 0.608 0.23734 0.0
C1686 C 0.76961 0.60117 0.22095 0.0
C1687 C 0.79331 0.60442 0.21799 0.0
C1688 C 0.80759 0.61406 0.23142 0.0
C1689 C 0.79783 0.62038 0.24805 0.0
H1690 H 0.12454 0.96216 0.02829 0.0
H1691 H 0.15843 0.9298 0.98295 0.0
H1692 H 0.16587 0.9684 0.96992 0.0
H1693 H 0.09649 0.00665 0.00407 0.0
H1694 H 0.10024 0.02812 0.02129 0.0
H1695 H 0.09858 0.99811 0.02725 0.0
H1696 H 0.13786 1.00131 0.04358 0.0
H1697 H 0.13973 0.03133 0.03755 0.0
H1698 H 0.16268 0.01185 0.03156 0.0
H1699 H 0.16732 0.01035 0.96103 0.0
H1700 H 0.16242 0.05226 0.95663 0.0
H1701 H 0.12886 0.05769 0.00832 0.0
C1702 C 0.13362 0.96312 0.01564 0.0
C1703 C 0.14088 0.94287 0.0066 0.0
C1704 C 0.1527 0.945 0.9901 0.0
C1705 C 0.15705 0.96687 0.98264 0.0
C1706 C 0.14966 0.98644 0.99194 0.0
C1707 C 0.13822 0.98476 0.0081 0.0
C1708 C 0.13148 0.00838 0.01517 0.0
C1709 C 0.10514 0.01043 0.01705 0.0
C1710 C 0.14367 0.01352 0.03302 0.0
C1711 C 0.14053 0.02373 0.00029 0.0
C1712 C 0.15104 0.01067 0.98706 0.0
C1713 C 0.15947 0.02071 0.97143 0.0
C1714 C 0.15668 0.04453 0.96908 0.0
C1715 C 0.1458 0.05821 0.98233 0.0
C1716 C 0.13793 0.04773 0.99827 0.0
H1717 H 0.79169 0.38477 0.77742 0.0
H1718 H 0.82617 0.40317 0.72784 0.0
H1719 H 0.78814 0.40691 0.71292 0.0
H1720 H 0.74802 0.35059 0.75851 0.0
H1721 H 0.72581 0.35974 0.77384 0.0
H1722 H 0.75553 0.36013 0.78075 0.0
H1723 H 0.75199 0.40342 0.78874 0.0
H1724 H 0.72222 0.40318 0.78181 0.0
H1725 H 0.74206 0.4235 0.772 0.0
H1726 H 0.74654 0.40463 0.70282 0.0
H1727 H 0.70481 0.39797 0.69845 0.0
H1728 H 0.69704 0.38319 0.75502 0.0
C1729 C 0.7913 0.38984 0.76345 0.0
C1730 C 0.81198 0.39366 0.75377 0.0
C1731 C 0.81061 0.40024 0.73554 0.0
C1732 C 0.78907 0.40241 0.72698 0.0
C1733 C 0.76904 0.39825 0.7369 0.0
C1734 C 0.76999 0.39231 0.7548 0.0
C1735 C 0.74603 0.38802 0.76234 0.0
C1736 C 0.74372 0.36314 0.76926 0.0
C1737 C 0.74024 0.40558 0.7771 0.0
C1738 C 0.73137 0.39193 0.74579 0.0
C1739 C 0.74502 0.39784 0.73126 0.0
C1740 C 0.73569 0.40051 0.71418 0.0
C1741 C 0.71198 0.39672 0.71183 0.0
C1742 C 0.69768 0.39067 0.72647 0.0
C1743 C 0.70746 0.38859 0.74373 0.0
H1744 H 0.1567 0.79979 0.05623 0.0
H1745 H 0.14169 0.81532 0.00072 0.0
H1746 H 0.14765 0.77414 0.99294 0.0
H1747 H 0.19896 0.75072 0.04824 0.0
H1748 H 0.18759 0.73535 0.06729 0.0
H1749 H 0.18811 0.76642 0.06731 0.0
H1750 H 0.14421 0.76705 0.07369 0.0
H1751 H 0.1435 0.73617 0.07356 0.0
H1752 H 0.12492 0.75213 0.0587 0.0
H1753 H 0.14733 0.72952 0.99275 0.0
H1754 H 0.14045 0.68839 0.00023 0.0
H1755 H 0.15519 0.70296 0.05593 0.0
C1756 C 0.15571 0.79473 0.04228 0.0
C1757 C 0.14906 0.81088 0.02905 0.0
C1758 C 0.14734 0.80344 0.01102 0.0
C1759 C 0.15054 0.77998 0.00653 0.0
C1760 C 0.1558 0.76423 0.02016 0.0
C1761 C 0.15875 0.77154 0.03767 0.0
C1762 C 0.16124 0.75134 0.05038 0.0
C1763 C 0.18542 0.75094 0.0588 0.0
C1764 C 0.14234 0.7517 0.06491 0.0
C1765 C 0.15802 0.73139 0.03755 0.0
C1766 C 0.15542 0.73895 0.02009 0.0
C1767 C 0.14994 0.72348 0.00632 0.0
C1768 C 0.14623 0.70004 0.01064 0.0
C1769 C 0.14765 0.69236 0.02862 0.0
C1770 C 0.15446 0.70821 0.04201 0.0
H1771 H 0.54923 0.90051 0.30475 0.0
H1772 H 0.56525 0.89338 0.24838 0.0
H1773 H 0.52397 0.89928 0.24096 0.0
H1774 H 0.50318 0.86704 0.30458 0.0
H1775 H 0.48633 0.88283 0.32074 0.0
H1776 H 0.51714 0.88496 0.32108 0.0
H1777 H 0.5145 0.92937 0.31814 0.0
H1778 H 0.48347 0.9274 0.31795 0.0
H1779 H 0.49831 0.94188 0.29995 0.0
H1780 H 0.47971 0.89728 0.24055 0.0
H1781 H 0.43899 0.88721 0.24721 0.0
H1782 H 0.45272 0.89466 0.30391 0.0
C1783 C 0.54421 0.90129 0.29077 0.0
C1784 C 0.56049 0.89677 0.27713 0.0
C1785 C 0.5532 0.89735 0.25903 0.0
C1786 C 0.5297 0.90055 0.25473 0.0
C1787 C 0.51381 0.90351 0.26867 0.0
C1788 C 0.52097 0.9043 0.28636 0.0
C1789 C 0.50069 0.90417 0.29913 0.0
C1790 C 0.50192 0.88352 0.31212 0.0
C1791 C 0.49915 0.92707 0.30939 0.0
C1792 C 0.48095 0.90172 0.28603 0.0
C1793 C 0.48863 0.90201 0.26847 0.0
C1794 C 0.47352 0.89765 0.25423 0.0
C1795 C 0.45035 0.89208 0.2581 0.0
C1796 C 0.44267 0.89048 0.27607 0.0
C1797 C 0.45804 0.89621 0.29005 0.0
H1798 H 0.36063 0.20757 0.55582 0.0
H1799 H 0.3672 0.19136 0.49942 0.0
H1800 H 0.36035 0.23255 0.49198 0.0
H1801 H 0.31742 0.2563 0.55122 0.0
H1802 H 0.33131 0.27196 0.56908 0.0
H1803 H 0.33099 0.24088 0.56935 0.0
H1804 H 0.37557 0.24047 0.57188 0.0
H1805 H 0.37601 0.27135 0.57162 0.0
H1806 H 0.3925 0.25545 0.55529 0.0
H1807 H 0.3607 0.27703 0.49149 0.0
H1808 H 0.36916 0.31811 0.49808 0.0
H1809 H 0.36244 0.30426 0.55479 0.0
C1810 C 0.35975 0.21251 0.54185 0.0
C1811 C 0.36426 0.19623 0.5282 0.0
C1812 C 0.36335 0.20345 0.5101 0.0
C1813 C 0.35956 0.22686 0.50576 0.0
C1814 C 0.35629 0.24273 0.51969 0.0
C1815 C 0.35601 0.23563 0.53739 0.0
C1816 C 0.35521 0.25592 0.55012 0.0
C1817 C 0.33237 0.25628 0.56056 0.0
C1818 C 0.37606 0.25578 0.56296 0.0
C1819 C 0.35646 0.27572 0.53697 0.0
C1820 C 0.35649 0.26797 0.51942 0.0
C1821 C 0.36004 0.28324 0.50516 0.0
C1822 C 0.36463 0.30664 0.50898 0.0
C1823 C 0.36596 0.31444 0.52693 0.0
C1824 C 0.36088 0.29888 0.54094 0.0
H1825 H 0.95811 0.14682 0.76399 0.0
H1826 H 0.9419 0.07779 0.78171 0.0
H1827 H 0.9829 0.06654 0.77763 0.0
H1828 H 0.00649 0.13104 0.73142 0.0
H1829 H 0.02241 0.15639 0.7379 0.0
H1830 H 0.99132 0.15688 0.73781 0.0
H1831 H 0.99148 0.16998 0.77101 0.0
H1832 H 0.02238 0.16939 0.77123 0.0
H1833 H 0.00642 0.15276 0.78744 0.0
H1834 H 0.02707 0.06593 0.77829 0.0
H1835 H 0.06831 0.07586 0.78297 0.0
H1836 H 0.05508 0.14499 0.76408 0.0
C1837 C 0.96302 0.129 0.76605 0.0
C1838 C 0.94682 0.11297 0.77265 0.0
C1839 C 0.95393 0.09008 0.77606 0.0
C1840 C 0.97724 0.08364 0.77388 0.0
C1841 C 0.9931 0.10025 0.76808 0.0
C1842 C 0.98607 0.1224 0.76389 0.0
C1843 C 0.00648 0.13802 0.76032 0.0
C1844 C 0.00668 0.14605 0.74069 0.0
C1845 C 0.00669 0.15873 0.77328 0.0
C1846 C 0.02622 0.12165 0.76405 0.0
C1847 C 0.01832 0.09979 0.76823 0.0
C1848 C 0.03344 0.08274 0.77442 0.0
C1849 C 0.05689 0.08841 0.77692 0.0
C1850 C 0.06495 0.11091 0.77322 0.0
C1851 C 0.04949 0.12738 0.76622 0.0
H1852 H 0.11792 0.20238 0.98603 0.0
H1853 H 0.18567 0.18969 0.96417 0.0
H1854 H 0.19588 0.23073 0.96893 0.0
H1855 H 0.10829 0.25024 0.96359 0.0
H1856 H 0.09231 0.26558 0.98053 0.0
H1857 H 0.09299 0.23472 0.98083 0.0
H1858 H 0.1087 0.2352 0.01331 0.0
H1859 H 0.10788 0.26627 0.0132 0.0
H1860 H 0.13434 0.25147 0.01847 0.0
H1861 H 0.19506 0.27454 0.96919 0.0
H1862 H 0.18318 0.31519 0.96462 0.0
H1863 H 0.11574 0.29934 0.9859 0.0
C1864 C 0.13541 0.20799 0.98341 0.0
C1865 C 0.15137 0.19269 0.97549 0.0
C1866 C 0.17359 0.20088 0.97101 0.0
C1867 C 0.17942 0.22427 0.97354 0.0
C1868 C 0.16281 0.23926 0.98056 0.0
C1869 C 0.1413 0.23126 0.98568 0.0
C1870 C 0.12512 0.25106 0.98996 0.0
C1871 C 0.10343 0.25035 0.97801 0.0
C1872 C 0.11863 0.25099 0.00993 0.0
C1873 C 0.14034 0.2715 0.98547 0.0
C1874 C 0.16223 0.26448 0.9805 0.0
C1875 C 0.17825 0.28024 0.97365 0.0
C1876 C 0.17147 0.30339 0.97124 0.0
C1877 C 0.14885 0.31056 0.97558 0.0
C1878 C 0.13346 0.2945 0.98328 0.0
H1879 H 0.9544 0.85612 0.23344 0.0
H1880 H 0.93869 0.92598 0.21747 0.0
H1881 H 0.97992 0.93659 0.22138 0.0
H1882 H 1.00338 0.87009 0.26578 0.0
H1883 H 0.01886 0.84478 0.25862 0.0
H1884 H 0.98778 0.84469 0.25897 0.0
H1885 H 0.98726 0.83281 0.22549 0.0
H1886 H 0.01816 0.833 0.22499 0.0
H1887 H 1.00218 0.85043 0.20931 0.0
H1888 H 0.0243 0.93685 0.22086 0.0
H1889 H 0.06547 0.92671 0.21597 0.0
H1890 H 0.05127 0.8567 0.23238 0.0
C1891 C 0.95949 0.87394 0.23166 0.0
C1892 C 0.94338 0.89039 0.22559 0.0
C1893 C 0.95069 0.91333 0.22266 0.0
C1894 C 0.97412 0.91941 0.22476 0.0
C1895 C 0.98987 0.90241 0.23001 0.0
C1896 C 0.98264 0.88018 0.23371 0.0
C1897 C 1.00286 0.86416 0.23675 0.0
C1898 C 1.00324 0.85542 0.25619 0.0
C1899 C 1.00259 0.84394 0.22333 0.0
C1900 C 0.02274 0.8804 0.23321 0.0
C1901 C 0.0151 0.90255 0.22972 0.0
C1902 C 0.03044 0.91974 0.22412 0.0
C1903 C 0.05384 0.91393 0.22149 0.0
C1904 C 0.06156 0.89111 0.22433 0.0
C1905 C 0.0459 0.87446 0.23075 0.0
H1906 H 0.40105 0.70876 0.48564 0.0
H1907 H 0.33302 0.69227 0.46581 0.0
H1908 H 0.32155 0.7333 0.46923 0.0
H1909 H 0.38382 0.75785 0.51705 0.0
H1910 H 0.40952 0.77356 0.5111 0.0
H1911 H 0.40992 0.74249 0.51164 0.0
H1912 H 0.42462 0.74183 0.47885 0.0
H1913 H 0.42413 0.7727 0.47816 0.0
H1914 H 0.40823 0.7564 0.46172 0.0
H1915 H 0.32084 0.77749 0.46847 0.0
H1916 H 0.33099 0.81859 0.46357 0.0
H1917 H 0.39952 0.80561 0.48392 0.0
C1918 C 0.38335 0.71362 0.48297 0.0
C1919 C 0.36769 0.69732 0.47599 0.0
C1920 C 0.34499 0.70437 0.47178 0.0
C1921 C 0.33844 0.7277 0.47358 0.0
C1922 C 0.35474 0.74365 0.47976 0.0
C1923 C 0.37668 0.7367 0.48466 0.0
C1924 C 0.39219 0.75715 0.48839 0.0
C1925 C 0.39927 0.7578 0.50823 0.0
C1926 C 0.41352 0.757 0.47604 0.0
C1927 C 0.37606 0.77682 0.4839 0.0
C1928 C 0.35434 0.76887 0.47931 0.0
C1929 C 0.33753 0.78389 0.47262 0.0
C1930 C 0.34333 0.80728 0.47001 0.0
C1931 C 0.36576 0.81536 0.474 0.0
C1932 C 0.38196 0.80002 0.48151 0.0
H1933 H 0.45892 0.15881 0.73169 0.0
H1934 H 0.4393 0.09162 0.7118 0.0
H1935 H 0.48001 0.07856 0.71459 0.0
H1936 H 0.50733 0.16436 0.70774 0.0
H1937 H 0.52404 0.17923 0.72452 0.0
H1938 H 0.49318 0.18108 0.72489 0.0
H1939 H 0.49263 0.16586 0.75754 0.0
H1940 H 0.52366 0.16406 0.75732 0.0
H1941 H 0.5067 0.13901 0.76283 0.0
H1942 H 0.52455 0.07592 0.71411 0.0
H1943 H 0.56642 0.08404 0.71053 0.0
H1944 H 0.55576 0.15293 0.73095 0.0
C1945 C 0.46305 0.14101 0.72868 0.0
C1946 C 0.44598 0.12606 0.72187 0.0
C1947 C 0.45204 0.10313 0.7175 0.0
C1948 C 0.47516 0.09566 0.71897 0.0
C1949 C 0.49186 0.11125 0.72508 0.0
C1950 C 0.48585 0.13339 0.73015 0.0
C1951 C 0.50689 0.14789 0.73425 0.0
C1952 C 0.50791 0.16938 0.72212 0.0
C1953 C 0.5075 0.15459 0.75417 0.0
C1954 C 0.52587 0.13097 0.7298 0.0
C1955 C 0.51707 0.10973 0.72486 0.0
C1956 C 0.53156 0.09227 0.71845 0.0
C1957 C 0.55536 0.09692 0.71657 0.0
C1958 C 0.56432 0.11888 0.72096 0.0
C1959 C 0.54941 0.13576 0.72808 0.0
H1960 H 0.89829 0.30471 0.97869 0.0
H1961 H 0.82873 0.31934 0.96135 0.0
H1962 H 0.81833 0.27817 0.96579 0.0
H1963 H 0.90455 0.25579 0.95537 0.0
H1964 H 0.92187 0.24056 0.97155 0.0
H1965 H 0.9219 0.27146 0.9713 0.0
H1966 H 0.90966 0.2722 0.00468 0.0
H1967 H 0.90969 0.24113 0.00508 0.0
H1968 H 0.88423 0.25678 0.01169 0.0
H1969 H 0.81829 0.23375 0.96623 0.0
H1970 H 0.82865 0.19246 0.96259 0.0
H1971 H 0.89814 0.20752 0.9799 0.0
C1972 C 0.88054 0.29943 0.97677 0.0
C1973 C 0.86408 0.31531 0.97029 0.0
C1974 C 0.84133 0.30763 0.96697 0.0
C1975 C 0.83538 0.2842 0.96935 0.0
C1976 C 0.85236 0.26872 0.97514 0.0
C1977 C 0.87444 0.27623 0.97905 0.0
C1978 C 0.89049 0.25617 0.9827 0.0
C1979 C 0.91088 0.25599 0.96944 0.0
C1980 C 0.89901 0.2566 0.0022 0.0
C1981 C 0.87438 0.23604 0.9795 0.0
C1982 C 0.85231 0.24346 0.97543 0.0
C1983 C 0.83531 0.22781 0.96997 0.0
C1984 C 0.84123 0.20431 0.96809 0.0
C1985 C 0.86394 0.19668 0.97164 0.0
C1986 C 0.88039 0.21274 0.97788 0.0
H1987 H 0.65561 0.80235 0.44295 0.0
H1988 H 0.63913 0.82011 0.49778 0.0
H1989 H 0.64511 0.77932 0.50671 0.0
H1990 H 0.62381 0.75506 0.44116 0.0
H1991 H 0.64256 0.73836 0.42693 0.0
H1992 H 0.64362 0.76919 0.42612 0.0
H1993 H 0.68736 0.76828 0.43315 0.0
H1994 H 0.68646 0.73723 0.43391 0.0
H1995 H 0.69756 0.75322 0.45274 0.0
H1996 H 0.6443 0.73499 0.50795 0.0
H1997 H 0.63603 0.69392 0.50124 0.0
H1998 H 0.65241 0.70584 0.44549 0.0
C1999 C 0.65436 0.79786 0.45701 0.0
C2000 C 0.64725 0.81448 0.46972 0.0
C2001 C 0.64514 0.80784 0.4879 0.0
C2002 C 0.64837 0.78461 0.49303 0.0
C2003 C 0.65405 0.76833 0.47988 0.0
C2004 C 0.65738 0.7749 0.46224 0.0
C2005 C 0.65992 0.75419 0.45004 0.0
C2006 C 0.64137 0.75421 0.43522 0.0
C2007 C 0.68428 0.75317 0.44199 0.0
C2008 C 0.65616 0.7348 0.46329 0.0
C2009 C 0.65339 0.7431 0.48055 0.0
C2010 C 0.64712 0.72834 0.49458 0.0
C2011 C 0.64266 0.70492 0.49071 0.0
C2012 C 0.64414 0.69659 0.47292 0.0
C2013 C 0.65187 0.71161 0.4593 0.0
H2014 H 0.85325 0.70605 0.0531 0.0
H2015 H 0.86963 0.69406 0.99737 0.0
H2016 H 0.86041 0.73485 0.99048 0.0
H2017 H 0.80677 0.75249 0.04546 0.0
H2018 H 0.81657 0.76776 0.06507 0.0
H2019 H 0.81807 0.73673 0.06433 0.0
H2020 H 0.86171 0.73872 0.07156 0.0
H2021 H 0.86044 0.76955 0.07214 0.0
H2022 H 0.88043 0.7554 0.05727 0.0
H2023 H 0.85885 0.77911 0.99151 0.0
H2024 H 0.86421 0.82004 0.00025 0.0
H2025 H 0.84766 0.80248 0.05513 0.0
C2026 C 0.85357 0.71172 0.03927 0.0
C2027 C 0.86162 0.69679 0.02571 0.0
C2028 C 0.86278 0.70499 0.00786 0.0
C2029 C 0.85775 0.72825 0.00389 0.0
C2030 C 0.85115 0.74296 0.01785 0.0
C2031 C 0.84851 0.73474 0.03515 0.0
C2032 C 0.84437 0.75421 0.04828 0.0
C2033 C 0.81999 0.7527 0.05625 0.0
C2034 C 0.86284 0.75448 0.06316 0.0
C2035 C 0.84663 0.77484 0.03598 0.0
C2036 C 0.85004 0.76819 0.01838 0.0
C2037 C 0.85546 0.78446 0.00515 0.0
C2038 C 0.85831 0.80778 0.01018 0.0
C2039 C 0.85603 0.81455 0.02833 0.0
C2040 C 0.84907 0.79792 0.04109 0.0
H2041 H 0.64563 0.30517 0.55125 0.0
H2042 H 0.63557 0.31654 0.49453 0.0
H2043 H 0.64519 0.27556 0.4886 0.0
H2044 H 0.69232 0.25862 0.54729 0.0
H2045 H 0.68024 0.24362 0.56625 0.0
H2046 H 0.67886 0.27463 0.56515 0.0
H2047 H 0.63455 0.27271 0.56927 0.0
H2048 H 0.63571 0.24187 0.57016 0.0
H2049 H 0.61757 0.25586 0.55383 0.0
H2050 H 0.64713 0.23119 0.49005 0.0
H2051 H 0.64178 0.19018 0.49867 0.0
H2052 H 0.65098 0.2087 0.55441 0.0
C2053 C 0.64671 0.29929 0.53749 0.0
C2054 C 0.64037 0.31411 0.52331 0.0
C2055 C 0.64107 0.30567 0.50552 0.0
C2056 C 0.64634 0.28232 0.50209 0.0
C2057 C 0.65126 0.26776 0.51656 0.0
C2058 C 0.65197 0.27619 0.53391 0.0
C2059 C 0.65453 0.25692 0.54744 0.0
C2060 C 0.67788 0.25855 0.5571 0.0
C2061 C 0.63439 0.25685 0.56094 0.0
C2062 C 0.65371 0.23615 0.5352 0.0
C2063 C 0.65233 0.24256 0.51738 0.0
C2064 C 0.64885 0.22606 0.50393 0.0
C2065 C 0.64596 0.20273 0.50891 0.0
C2066 C 0.64621 0.19619 0.52719 0.0
C2067 C 0.65105 0.2131 0.54029 0.0
H2068 H 0.95494 0.40604 0.80369 0.0
H2069 H 0.94004 0.38899 0.74845 0.0
H2070 H 0.98131 0.39486 0.74076 0.0
H2071 H 1.00324 0.44884 0.79465 0.0
H2072 H 0.01871 0.4388 0.81409 0.0
H2073 H 0.98762 0.43864 0.81397 0.0
H2074 H 0.98784 0.3951 0.82168 0.0
H2075 H 0.01875 0.39509 0.82174 0.0
H2076 H 1.00335 0.37542 0.80738 0.0
H2077 H 0.026 0.39496 0.74087 0.0
H2078 H 0.06719 0.38914 0.74878 0.0
H2079 H 0.05185 0.40654 0.80389 0.0
C2080 C 0.96018 0.40453 0.78981 0.0
C2081 C 0.94421 0.39737 0.77662 0.0
C2082 C 0.95183 0.395 0.75869 0.0
C2083 C 0.97532 0.39818 0.75426 0.0
C2084 C 0.99089 0.40415 0.76785 0.0
C2085 C 0.98338 0.40771 0.78523 0.0
C2086 C 1.00342 0.41127 0.79795 0.0
C2087 C 1.00323 0.43586 0.80561 0.0
C2088 C 1.00333 0.39314 0.81305 0.0
C2089 C 0.02354 0.40785 0.78531 0.0
C2090 C 0.01618 0.40425 0.7679 0.0
C2091 C 0.03188 0.39836 0.75438 0.0
C2092 C 0.05535 0.39527 0.75893 0.0
C2093 C 0.06283 0.39774 0.7769 0.0
C2094 C 0.04675 0.40499 0.78998 0.0
H2095 H 0.45391 0.6172 0.30891 0.0
H2096 H 0.43869 0.61747 0.25216 0.0
H2097 H 0.47976 0.60891 0.24559 0.0
H2098 H 0.50205 0.64778 0.30668 0.0
H2099 H 0.51775 0.63308 0.32412 0.0
H2100 H 0.48685 0.63286 0.32429 0.0
H2101 H 0.48682 0.58822 0.3247 0.0
H2102 H 0.51791 0.58828 0.32468 0.0
H2103 H 0.50237 0.57257 0.30769 0.0
H2104 H 0.5243 0.6091 0.24545 0.0
H2105 H 0.56545 0.61771 0.25183 0.0
H2106 H 0.5507 0.61689 0.30867 0.0
C2107 C 0.45901 0.6143 0.29513 0.0
C2108 C 0.44302 0.6176 0.28107 0.0
C2109 C 0.45047 0.61439 0.26317 0.0
C2110 C 0.47387 0.60969 0.25934 0.0
C2111 C 0.48951 0.60784 0.27356 0.0
C2112 C 0.48214 0.6096 0.29116 0.0
C2113 C 0.50231 0.61007 0.30405 0.0
C2114 C 0.50223 0.63226 0.31543 0.0
C2115 C 0.50235 0.58849 0.31598 0.0
C2116 C 0.52231 0.60971 0.29102 0.0
C2117 C 0.51479 0.60791 0.27348 0.0
C2118 C 0.53032 0.60986 0.25917 0.0
C2119 C 0.55376 0.61457 0.26289 0.0
C2120 C 0.56137 0.61762 0.28076 0.0
C2121 C 0.54549 0.61418 0.29489 0.0
H2122 H 0.45525 0.39697 0.69327 0.0
H2123 H 0.44106 0.38707 0.74962 0.0
H2124 H 0.48216 0.39491 0.75662 0.0
H2125 H 0.50308 0.36656 0.69188 0.0
H2126 H 0.51863 0.38395 0.67592 0.0
H2127 H 0.48775 0.38441 0.67608 0.0
H2128 H 0.48809 0.42873 0.68021 0.0
H2129 H 0.51918 0.42846 0.67992 0.0
H2130 H 0.50404 0.4413 0.6985 0.0
H2131 H 0.52653 0.3944 0.75629 0.0
H2132 H 0.56733 0.3859 0.74864 0.0
H2133 H 0.5519 0.39653 0.69256 0.0
C2134 C 0.46057 0.39776 0.70717 0.0
C2135 C 0.44489 0.39194 0.72093 0.0
C2136 C 0.4526 0.39221 0.73892 0.0
C2137 C 0.47602 0.39647 0.74298 0.0
C2138 C 0.49141 0.40081 0.72891 0.0
C2139 C 0.48375 0.40196 0.71135 0.0
C2140 C 0.50371 0.4035 0.69832 0.0
C2141 C 0.50326 0.38341 0.68478 0.0
C2142 C 0.50376 0.4269 0.68867 0.0
C2143 C 0.52392 0.40157 0.71107 0.0
C2144 C 0.51668 0.40057 0.72873 0.0
C2145 C 0.53236 0.39591 0.74256 0.0
C2146 C 0.55561 0.39129 0.73815 0.0
C2147 C 0.56288 0.39109 0.72005 0.0
C2148 C 0.54694 0.39725 0.70655 0.0
H2149 H 0.95566 0.65182 0.23797 0.0
H2150 H 0.93571 0.58628 0.21523 0.0
H2151 H 0.97617 0.57264 0.21782 0.0
H2152 H 1.00356 0.6587 0.21443 0.0
H2153 H 0.02072 0.67226 0.2316 0.0
H2154 H 0.9899 0.67423 0.23248 0.0
H2155 H 0.98995 0.65663 0.26439 0.0
H2156 H 0.02097 0.65475 0.26367 0.0
H2157 H 0.00403 0.6294 0.26831 0.0
H2158 H 0.02034 0.56998 0.21652 0.0
H2159 H 0.06192 0.57845 0.21199 0.0
H2160 H 0.05246 0.6456 0.23589 0.0
C2161 C 0.95962 0.63414 0.23447 0.0
C2162 C 0.94248 0.61986 0.22686 0.0
C2163 C 0.94841 0.59719 0.22166 0.0
C2164 C 0.97143 0.58941 0.22297 0.0
C2165 C 0.98823 0.60442 0.22974 0.0
C2166 C 0.98238 0.62622 0.23573 0.0
C2167 C 1.00362 0.64033 0.24017 0.0
C2168 C 0.00449 0.66267 0.22899 0.0
C2169 C 0.0047 0.64558 0.26034 0.0
C2170 C 0.02248 0.62369 0.23475 0.0
C2171 C 0.01343 0.60284 0.22911 0.0
C2172 C 0.02759 0.58593 0.22149 0.0
C2173 C 0.05126 0.59076 0.21908 0.0
C2174 C 0.06051 0.61232 0.22423 0.0
C2175 C 0.04599 0.62861 0.23259 0.0
loop_
_geom_bond_atom_site_label_1
_geom_bond_atom_site_label_2
_geom_bond_distance
_geom_bond_site_symmetry_2
_ccdc_geom_bond_type
Co0 O1 2.216 . S
Co0 O2 2.091 . S
Co0 O4 2.004 . S
Co0 O10 2.021 . S
Co0 O12 2.137 . S
Co0 O13 2.244 . S
O1 Co0 2.216 . S
O1 C8 1.247 . S
O2 Co0 2.091 . S
O2 C8 1.261 . S
C3 O12 1.247 . S
C3 O13 1.272 . S
O4 Co0 2.004 . S
O4 C9 1.259 . S
Co5 O6 2.061 . S
Co5 O11 2.052 . S
Co5 O13 2.135 . S
O6 Co5 2.061 . S
O6 C9 1.235 . S
C7 O10 1.238 . S
C7 O11 1.241 . S
C8 O1 1.247 . S
C8 O2 1.261 . S
C9 O4 1.259 . S
C9 O6 1.235 . S
O10 Co0 2.021 . S
O10 C7 1.238 . S
O11 Co5 2.052 . S
O11 C7 1.241 . S
O12 Co0 2.137 . S
O12 C3 1.247 . S
O13 Co0 2.244 . S
O13 C3 1.272 . S
O13 Co5 2.135 . S
Co14 O15 2.216 . S
Co14 O16 2.091 . S
Co14 O18 2.004 . S
Co14 O24 2.021 . S
Co14 O26 2.137 . S
Co14 O27 2.244 . S
O15 Co14 2.216 . S
O15 C22 1.247 . S
O16 Co14 2.091 . S
O16 C22 1.261 . S
C17 O26 1.247 . S
C17 O27 1.272 . S
O18 Co14 2.004 . S
O18 C23 1.259 . S
Co19 O20 2.061 . S
Co19 O25 2.052 . S
Co19 O27 2.135 . S
O20 Co19 2.061 . S
O20 C23 1.235 . S
C21 O24 1.238 . S
C21 O25 1.241 . S
C22 O15 1.247 . S
C22 O16 1.261 . S
C23 O18 1.259 . S
C23 O20 1.235 . S
O24 Co14 2.021 . S
O24 C21 1.238 . S
O25 Co19 2.052 . S
O25 C21 1.241 . S
O26 Co14 2.137 . S
O26 C17 1.247 . S
O27 Co14 2.244 . S
O27 C17 1.272 . S
O27 Co19 2.135 . S
Co28 O29 2.216 . S
Co28 O30 2.091 . S
Co28 O32 2.004 . S
Co28 O38 2.021 . S
Co28 O40 2.137 . S
Co28 O41 2.244 . S
O29 Co28 2.216 . S
O29 C36 1.247 . S
O30 Co28 2.091 . S
O30 C36 1.261 . S
C31 O40 1.247 . S
C31 O41 1.272 . S
O32 Co28 2.004 . S
O32 C37 1.259 . S
Co33 O34 2.061 . S
Co33 O39 2.052 . S
Co33 O41 2.135 . S
O34 Co33 2.061 . S
O34 C37 1.235 . S
C35 O38 1.238 . S
C35 O39 1.241 . S
C36 O29 1.247 . S
C36 O30 1.261 . S
C37 O32 1.259 . S
C37 O34 1.235 . S
O38 Co28 2.021 . S
O38 C35 1.238 . S
O39 Co33 2.052 . S
O39 C35 1.241 . S
O40 Co28 2.137 . S
O40 C31 1.247 . S
O41 Co28 2.244 . S
O41 C31 1.272 . S
O41 Co33 2.135 . S
Co42 O43 2.216 . S
Co42 O44 2.091 . S
Co42 O46 2.004 . S
Co42 O52 2.021 . S
Co42 O54 2.137 . S
Co42 O55 2.244 . S
O43 Co42 2.216 . S
O43 C50 1.247 . S
O44 Co42 2.091 . S
O44 C50 1.261 . S
C45 O54 1.247 . S
C45 O55 1.272 . S
O46 Co42 2.004 . S
O46 C51 1.259 . S
Co47 O48 2.061 . S
Co47 O53 2.052 . S
Co47 O55 2.135 . S
O48 Co47 2.061 . S
O48 C51 1.235 . S
C49 O52 1.238 . S
C49 O53 1.241 . S
C50 O43 1.247 . S
C50 O44 1.261 . S
C51 O46 1.259 . S
C51 O48 1.235 . S
O52 Co42 2.021 . S
O52 C49 1.238 . S
O53 Co47 2.052 . S
O53 C49 1.241 . S
O54 Co42 2.137 . S
O54 C45 1.247 . S
O55 Co42 2.244 . S
O55 C45 1.272 . S
O55 Co47 2.135 . S
Co56 O57 2.216 . S
Co56 O58 2.091 . S
Co56 O60 2.004 . S
Co56 O66 2.021 . S
Co56 O68 2.137 . S
Co56 O69 2.244 . S
O57 Co56 2.216 . S
O57 C64 1.247 . S
O58 Co56 2.091 . S
O58 C64 1.261 . S
C59 O68 1.247 . S
C59 O69 1.272 . S
O60 Co56 2.004 . S
O60 C65 1.259 . S
Co61 O62 2.061 . S
Co61 O67 2.052 . S
Co61 O69 2.135 . S
O62 Co61 2.061 . S
O62 C65 1.235 . S
C63 O66 1.238 . S
C63 O67 1.241 . S
C64 O57 1.247 . S
C64 O58 1.261 . S
C65 O60 1.259 . S
C65 O62 1.235 . S
O66 Co56 2.021 . S
O66 C63 1.238 . S
O67 Co61 2.052 . S
O67 C63 1.241 . S
O68 Co56 2.137 . S
O68 C59 1.247 . S
O69 Co56 2.244 . S
O69 C59 1.272 . S
O69 Co61 2.135 . S
Co70 O71 2.216 . S
Co70 O72 2.091 . S
Co70 O74 2.004 . S
Co70 O80 2.021 . S
Co70 O82 2.137 . S
Co70 O83 2.244 . S
O71 Co70 2.216 . S
O71 C78 1.247 . S
O72 Co70 2.091 . S
O72 C78 1.261 . S
C73 O82 1.247 . S
C73 O83 1.272 . S
O74 Co70 2.004 . S
O74 C79 1.259 . S
Co75 O76 2.061 . S
Co75 O81 2.052 . S
Co75 O83 2.135 . S
O76 Co75 2.061 . S
O76 C79 1.235 . S
C77 O80 1.238 . S
C77 O81 1.241 . S
C78 O71 1.247 . S
C78 O72 1.261 . S
C79 O74 1.259 . S
C79 O76 1.235 . S
O80 Co70 2.021 . S
O80 C77 1.238 . S
O81 Co75 2.052 . S
O81 C77 1.241 . S
O82 Co70 2.137 . S
O82 C73 1.247 . S
O83 Co70 2.244 . S
O83 C73 1.272 . S
O83 Co75 2.135 . S
Co84 O85 2.216 . S
Co84 O86 2.091 . S
Co84 O88 2.004 . S
Co84 O94 2.021 . S
Co84 O96 2.137 . S
Co84 O97 2.244 . S
O85 Co84 2.216 . S
O85 C92 1.247 . S
O86 Co84 2.091 . S
O86 C92 1.261 . S
C87 O96 1.247 . S
C87 O97 1.272 . S
O88 Co84 2.004 . S
O88 C93 1.259 . S
Co89 O90 2.061 . S
Co89 O95 2.052 . S
Co89 O97 2.135 . S
O90 Co89 2.061 . S
O90 C93 1.235 . S
C91 O94 1.238 . S
C91 O95 1.241 . S
C92 O85 1.247 . S
C92 O86 1.261 . S
C93 O88 1.259 . S
C93 O90 1.235 . S
O94 Co84 2.021 . S
O94 C91 1.238 . S
O95 Co89 2.052 . S
O95 C91 1.241 . S
O96 Co84 2.137 . S
O96 C87 1.247 . S
O97 Co84 2.244 . S
O97 C87 1.272 . S
O97 Co89 2.135 . S
Co98 O99 2.216 . S
Co98 O100 2.091 . S
Co98 O102 2.004 . S
Co98 O108 2.021 . S
Co98 O110 2.137 . S
Co98 O111 2.244 . S
O99 Co98 2.216 . S
O99 C106 1.247 . S
O100 Co98 2.091 . S
O100 C106 1.261 . S
C101 O110 1.247 . S
C101 O111 1.272 . S
O102 Co98 2.004 . S
O102 C107 1.259 . S
Co103 O104 2.061 . S
Co103 O109 2.052 . S
Co103 O111 2.135 . S
O104 Co103 2.061 . S
O104 C107 1.235 . S
C105 O108 1.238 . S
C105 O109 1.241 . S
C106 O99 1.247 . S
C106 O100 1.261 . S
C107 O102 1.259 . S
C107 O104 1.235 . S
O108 Co98 2.021 . S
O108 C105 1.238 . S
O109 Co103 2.052 . S
O109 C105 1.241 . S
O110 Co98 2.137 . S
O110 C101 1.247 . S
O111 Co98 2.244 . S
O111 C101 1.272 . S
O111 Co103 2.135 . S
Co112 O113 2.216 . S
Co112 O114 2.091 . S
Co112 O116 2.004 . S
Co112 O122 2.021 . S
Co112 O124 2.137 . S
Co112 O125 2.244 . S
O113 Co112 2.216 . S
O113 C120 1.247 . S
O114 Co112 2.091 . S
O114 C120 1.261 . S
C115 O124 1.247 . S
C115 O125 1.272 . S
O116 Co112 2.004 . S
O116 C121 1.259 . S
Co117 O118 2.061 . S
Co117 O123 2.052 . S
Co117 O125 2.135 . S
O118 Co117 2.061 . S
O118 C121 1.235 . S
C119 O122 1.238 . S
C119 O123 1.241 . S
C120 O113 1.247 . S
C120 O114 1.261 . S
C121 O116 1.259 . S
C121 O118 1.235 . S
O122 Co112 2.021 . S
O122 C119 1.238 . S
O123 Co117 2.052 . S
O123 C119 1.241 . S
O124 Co112 2.137 . S
O124 C115 1.247 . S
O125 Co112 2.244 . S
O125 C115 1.272 . S
O125 Co117 2.135 . S
Co126 O127 2.216 . S
Co126 O128 2.091 . S
Co126 O130 2.004 . S
Co126 O136 2.021 . S
Co126 O138 2.137 . S
Co126 O139 2.244 . S
O127 Co126 2.216 . S
O127 C134 1.247 . S
O128 Co126 2.091 . S
O128 C134 1.261 . S
C129 O138 1.247 . S
C129 O139 1.272 . S
O130 Co126 2.004 . S
O130 C135 1.259 . S
Co131 O132 2.061 . S
Co131 O137 2.052 . S
Co131 O139 2.135 . S
O132 Co131 2.061 . S
O132 C135 1.235 . S
C133 O136 1.238 . S
C133 O137 1.241 . S
C134 O127 1.247 . S
C134 O128 1.261 . S
C135 O130 1.259 . S
C135 O132 1.235 . S
O136 Co126 2.021 . S
O136 C133 1.238 . S
O137 Co131 2.052 . S
O137 C133 1.241 . S
O138 Co126 2.137 . S
O138 C129 1.247 . S
O139 Co126 2.244 . S
O139 C129 1.272 . S
O139 Co131 2.135 . S
Co140 O141 2.216 . S
Co140 O142 2.091 . S
Co140 O144 2.004 . S
Co140 O150 2.021 . S
Co140 O152 2.137 . S
Co140 O153 2.244 . S
O141 Co140 2.216 . S
O141 C148 1.247 . S
O142 Co140 2.091 . S
O142 C148 1.261 . S
C143 O152 1.247 . S
C143 O153 1.272 . S
O144 Co140 2.004 . S
O144 C149 1.259 . S
Co145 O146 2.061 . S
Co145 O151 2.052 . S
Co145 O153 2.135 . S
O146 Co145 2.061 . S
O146 C149 1.235 . S
C147 O150 1.238 . S
C147 O151 1.241 . S
C148 O141 1.247 . S
C148 O142 1.261 . S
C149 O144 1.259 . S
C149 O146 1.235 . S
O150 Co140 2.021 . S
O150 C147 1.238 . S
O151 Co145 2.052 . S
O151 C147 1.241 . S
O152 Co140 2.137 . S
O152 C143 1.247 . S
O153 Co140 2.244 . S
O153 C143 1.272 . S
O153 Co145 2.135 . S
Co154 O155 2.216 . S
Co154 O156 2.091 . S
Co154 O158 2.004 . S
Co154 O164 2.021 . S
Co154 O166 2.137 . S
Co154 O167 2.244 . S
O155 Co154 2.216 . S
O155 C162 1.247 . S
O156 Co154 2.091 . S
O156 C162 1.261 . S
C157 O166 1.247 . S
C157 O167 1.272 . S
O158 Co154 2.004 . S
O158 C163 1.259 . S
Co159 O160 2.061 . S
Co159 O165 2.052 . S
Co159 O167 2.135 . S
O160 Co159 2.061 . S
O160 C163 1.235 . S
C161 O164 1.238 . S
C161 O165 1.241 . S
C162 O155 1.247 . S
C162 O156 1.261 . S
C163 O158 1.259 . S
C163 O160 1.235 . S
O164 Co154 2.021 . S
O164 C161 1.238 . S
O165 Co159 2.052 . S
O165 C161 1.241 . S
O166 Co154 2.137 . S
O166 C157 1.247 . S
O167 Co154 2.244 . S
O167 C157 1.272 . S
O167 Co159 2.135 . S
Co168 O169 2.216 . S
Co168 O170 2.091 . S
Co168 O172 2.004 . S
Co168 O178 2.021 . S
Co168 O180 2.137 . S
Co168 O181 2.244 . S
O169 Co168 2.216 . S
O169 C176 1.247 . S
O170 Co168 2.091 . S
O170 C176 1.261 . S
C171 O180 1.247 . S
C171 O181 1.272 . S
O172 Co168 2.004 . S
O172 C177 1.259 . S
Co173 O174 2.061 . S
Co173 O179 2.052 . S
Co173 O181 2.135 . S
O174 Co173 2.061 . S
O174 C177 1.235 . S
C175 O178 1.238 . S
C175 O179 1.241 . S
C176 O169 1.247 . S
C176 O170 1.261 . S
C177 O172 1.259 . S
C177 O174 1.235 . S
O178 Co168 2.021 . S
O178 C175 1.238 . S
O179 Co173 2.052 . S
O179 C175 1.241 . S
O180 Co168 2.137 . S
O180 C171 1.247 . S
O181 Co168 2.244 . S
O181 C171 1.272 . S
O181 Co173 2.135 . S
Co182 O183 2.216 . S
Co182 O184 2.091 . S
Co182 O186 2.004 . S
Co182 O192 2.021 . S
Co182 O194 2.137 . S
Co182 O195 2.244 . S
O183 Co182 2.216 . S
O183 C190 1.247 . S
O184 Co182 2.091 . S
O184 C190 1.261 . S
C185 O194 1.247 . S
C185 O195 1.272 . S
O186 Co182 2.004 . S
O186 C191 1.259 . S
Co187 O188 2.061 . S
Co187 O193 2.052 . S
Co187 O195 2.135 . S
O188 Co187 2.061 . S
O188 C191 1.235 . S
C189 O192 1.238 . S
C189 O193 1.241 . S
C190 O183 1.247 . S
C190 O184 1.261 . S
C191 O186 1.259 . S
C191 O188 1.235 . S
O192 Co182 2.021 . S
O192 C189 1.238 . S
O193 Co187 2.052 . S
O193 C189 1.241 . S
O194 Co182 2.137 . S
O194 C185 1.247 . S
O195 Co182 2.244 . S
O195 C185 1.272 . S
O195 Co187 2.135 . S
Co196 O197 2.216 . S
Co196 O198 2.091 . S
Co196 O200 2.004 . S
Co196 O206 2.021 . S
Co196 O208 2.137 . S
Co196 O209 2.244 . S
O197 Co196 2.216 . S
O197 C204 1.247 . S
O198 Co196 2.091 . S
O198 C204 1.261 . S
C199 O208 1.247 . S
C199 O209 1.272 . S
O200 Co196 2.004 . S
O200 C205 1.259 . S
Co201 O202 2.061 . S
Co201 O207 2.052 . S
Co201 O209 2.135 . S
O202 Co201 2.061 . S
O202 C205 1.235 . S
C203 O206 1.238 . S
C203 O207 1.241 . S
C204 O197 1.247 . S
C204 O198 1.261 . S
C205 O200 1.259 . S
C205 O202 1.235 . S
O206 Co196 2.021 . S
O206 C203 1.238 . S
O207 Co201 2.052 . S
O207 C203 1.241 . S
O208 Co196 2.137 . S
O208 C199 1.247 . S
O209 Co196 2.244 . S
O209 C199 1.272 . S
O209 Co201 2.135 . S
Co210 O211 2.216 . S
Co210 O212 2.091 . S
Co210 O214 2.004 . S
Co210 O220 2.021 . S
Co210 O222 2.137 . S
Co210 O223 2.244 . S
O211 Co210 2.216 . S
O211 C218 1.247 . S
O212 Co210 2.091 . S
O212 C218 1.261 . S
C213 O222 1.247 . S
C213 O223 1.272 . S
O214 Co210 2.004 . S
O214 C219 1.259 . S
Co215 O216 2.061 . S
Co215 O221 2.052 . S
Co215 O223 2.135 . S
O216 Co215 2.061 . S
O216 C219 1.235 . S
C217 O220 1.238 . S
C217 O221 1.241 . S
C218 O211 1.247 . S
C218 O212 1.261 . S
C219 O214 1.259 . S
C219 O216 1.235 . S
O220 Co210 2.021 . S
O220 C217 1.238 . S
O221 Co215 2.052 . S
O221 C217 1.241 . S
O222 Co210 2.137 . S
O222 C213 1.247 . S
O223 Co210 2.244 . S
O223 C213 1.272 . S
O223 Co215 2.135 . S
Co224 O225 2.216 . S
Co224 O226 2.091 . S
Co224 O228 2.004 . S
Co224 O234 2.021 . S
Co224 O236 2.137 . S
Co224 O237 2.244 . S
O225 Co224 2.216 . S
O225 C232 1.247 . S
O226 Co224 2.091 . S
O226 C232 1.261 . S
C227 O236 1.247 . S
C227 O237 1.272 . S
O228 Co224 2.004 . S
O228 C233 1.259 . S
Co229 O230 2.061 . S
Co229 O235 2.052 . S
Co229 O237 2.135 . S
O230 Co229 2.061 . S
O230 C233 1.235 . S
C231 O234 1.238 . S
C231 O235 1.241 . S
C232 O225 1.247 . S
C232 O226 1.261 . S
C233 O228 1.259 . S
C233 O230 1.235 . S
O234 Co224 2.021 . S
O234 C231 1.238 . S
O235 Co229 2.052 . S
O235 C231 1.241 . S
O236 Co224 2.137 . S
O236 C227 1.247 . S
O237 Co224 2.244 . S
O237 C227 1.272 . S
O237 Co229 2.135 . S
Co238 O239 2.216 . S
Co238 O240 2.091 . S
Co238 O242 2.004 . S
Co238 O248 2.021 . S
Co238 O250 2.137 . S
Co238 O251 2.244 . S
O239 Co238 2.216 . S
O239 C246 1.247 . S
O240 Co238 2.091 . S
O240 C246 1.261 . S
C241 O250 1.247 . S
C241 O251 1.272 . S
O242 Co238 2.004 . S
O242 C247 1.259 . S
Co243 O244 2.061 . S
Co243 O249 2.052 . S
Co243 O251 2.135 . S
O244 Co243 2.061 . S
O244 C247 1.235 . S
C245 O248 1.238 . S
C245 O249 1.241 . S
C246 O239 1.247 . S
C246 O240 1.261 . S
C247 O242 1.259 . S
C247 O244 1.235 . S
O248 Co238 2.021 . S
O248 C245 1.238 . S
O249 Co243 2.052 . S
O249 C245 1.241 . S
O250 Co238 2.137 . S
O250 C241 1.247 . S
O251 Co238 2.244 . S
O251 C241 1.272 . S
O251 Co243 2.135 . S
Co252 O253 2.216 . S
Co252 O254 2.091 . S
Co252 O256 2.004 . S
Co252 O262 2.021 . S
Co252 O264 2.137 . S
Co252 O265 2.244 . S
O253 Co252 2.216 . S
O253 C260 1.247 . S
O254 Co252 2.091 . S
O254 C260 1.261 . S
C255 O264 1.247 . S
C255 O265 1.272 . S
O256 Co252 2.004 . S
O256 C261 1.259 . S
Co257 O258 2.061 . S
Co257 O263 2.052 . S
Co257 O265 2.135 . S
O258 Co257 2.061 . S
O258 C261 1.235 . S
C259 O262 1.238 . S
C259 O263 1.241 . S
C260 O253 1.247 . S
C260 O254 1.261 . S
C261 O256 1.259 . S
C261 O258 1.235 . S
O262 Co252 2.021 . S
O262 C259 1.238 . S
O263 Co257 2.052 . S
O263 C259 1.241 . S
O264 Co252 2.137 . S
O264 C255 1.247 . S
O265 Co252 2.244 . S
O265 C255 1.272 . S
O265 Co257 2.135 . S
Co266 O267 2.216 . S
Co266 O268 2.091 . S
Co266 O270 2.004 . S
Co266 O276 2.021 . S
Co266 O278 2.137 . S
Co266 O279 2.244 . S
O267 Co266 2.216 . S
O267 C274 1.247 . S
O268 Co266 2.091 . S
O268 C274 1.261 . S
C269 O278 1.247 . S
C269 O279 1.272 . S
O270 Co266 2.004 . S
O270 C275 1.259 . S
Co271 O272 2.061 . S
Co271 O277 2.052 . S
Co271 O279 2.135 . S
O272 Co271 2.061 . S
O272 C275 1.235 . S
C273 O276 1.238 . S
C273 O277 1.241 . S
C274 O267 1.247 . S
C274 O268 1.261 . S
C275 O270 1.259 . S
C275 O272 1.235 . S
O276 Co266 2.021 . S
O276 C273 1.238 . S
O277 Co271 2.052 . S
O277 C273 1.241 . S
O278 Co266 2.137 . S
O278 C269 1.247 . S
O279 Co266 2.244 . S
O279 C269 1.272 . S
O279 Co271 2.135 . S
Co280 O281 2.216 . S
Co280 O282 2.091 . S
Co280 O284 2.004 . S
Co280 O290 2.021 . S
Co280 O292 2.137 . S
Co280 O293 2.244 . S
O281 Co280 2.216 . S
O281 C288 1.247 . S
O282 Co280 2.091 . S
O282 C288 1.261 . S
C283 O292 1.247 . S
C283 O293 1.272 . S
O284 Co280 2.004 . S
O284 C289 1.259 . S
Co285 O286 2.061 . S
Co285 O291 2.052 . S
Co285 O293 2.135 . S
O286 Co285 2.061 . S
O286 C289 1.235 . S
C287 O290 1.238 . S
C287 O291 1.241 . S
C288 O281 1.247 . S
C288 O282 1.261 . S
C289 O284 1.259 . S
C289 O286 1.235 . S
O290 Co280 2.021 . S
O290 C287 1.238 . S
O291 Co285 2.052 . S
O291 C287 1.241 . S
O292 Co280 2.137 . S
O292 C283 1.247 . S
O293 Co280 2.244 . S
O293 C283 1.272 . S
O293 Co285 2.135 . S
Co294 O295 2.216 . S
Co294 O296 2.091 . S
Co294 O298 2.004 . S
Co294 O304 2.021 . S
Co294 O306 2.137 . S
Co294 O307 2.244 . S
O295 Co294 2.216 . S
O295 C302 1.247 . S
O296 Co294 2.091 . S
O296 C302 1.261 . S
C297 O306 1.247 . S
C297 O307 1.272 . S
O298 Co294 2.004 . S
O298 C303 1.259 . S
Co299 O300 2.061 . S
Co299 O305 2.052 . S
Co299 O307 2.135 . S
O300 Co299 2.061 . S
O300 C303 1.235 . S
C301 O304 1.238 . S
C301 O305 1.241 . S
C302 O295 1.247 . S
C302 O296 1.261 . S
C303 O298 1.259 . S
C303 O300 1.235 . S
O304 Co294 2.021 . S
O304 C301 1.238 . S
O305 Co299 2.052 . S
O305 C301 1.241 . S
O306 Co294 2.137 . S
O306 C297 1.247 . S
O307 Co294 2.244 . S
O307 C297 1.272 . S
O307 Co299 2.135 . S
Co308 O309 2.216 . S
Co308 O310 2.091 . S
Co308 O312 2.004 . S
Co308 O318 2.021 . S
Co308 O320 2.137 . S
Co308 O321 2.244 . S
O309 Co308 2.216 . S
O309 C316 1.247 . S
O310 Co308 2.091 . S
O310 C316 1.261 . S
C311 O320 1.247 . S
C311 O321 1.272 . S
O312 Co308 2.004 . S
O312 C317 1.259 . S
Co313 O314 2.061 . S
Co313 O319 2.052 . S
Co313 O321 2.135 . S
O314 Co313 2.061 . S
O314 C317 1.235 . S
C315 O318 1.238 . S
C315 O319 1.241 . S
C316 O309 1.247 . S
C316 O310 1.261 . S
C317 O312 1.259 . S
C317 O314 1.235 . S
O318 Co308 2.021 . S
O318 C315 1.238 . S
O319 Co313 2.052 . S
O319 C315 1.241 . S
O320 Co308 2.137 . S
O320 C311 1.247 . S
O321 Co308 2.244 . S
O321 C311 1.272 . S
O321 Co313 2.135 . S
Co322 O323 2.216 . S
Co322 O324 2.091 . S
Co322 O326 2.004 . S
Co322 O332 2.021 . S
Co322 O334 2.137 . S
Co322 O335 2.244 . S
O323 Co322 2.216 . S
O323 C330 1.247 . S
O324 Co322 2.091 . S
O324 C330 1.261 . S
C325 O334 1.247 . S
C325 O335 1.272 . S
O326 Co322 2.004 . S
O326 C331 1.259 . S
Co327 O328 2.061 . S
Co327 O333 2.052 . S
Co327 O335 2.135 . S
O328 Co327 2.061 . S
O328 C331 1.235 . S
C329 O332 1.238 . S
C329 O333 1.241 . S
C330 O323 1.247 . S
C330 O324 1.261 . S
C331 O326 1.259 . S
C331 O328 1.235 . S
O332 Co322 2.021 . S
O332 C329 1.238 . S
O333 Co327 2.052 . S
O333 C329 1.241 . S
O334 Co322 2.137 . S
O334 C325 1.247 . S
O335 Co322 2.244 . S
O335 C325 1.272 . S
O335 Co327 2.135 . S
Co336 O337 2.216 . S
Co336 O338 2.091 . S
Co336 O340 2.004 . S
Co336 O346 2.021 . S
Co336 O348 2.137 . S
Co336 O349 2.244 . S
O337 Co336 2.216 . S
O337 C344 1.247 . S
O338 Co336 2.091 . S
O338 C344 1.261 . S
C339 O348 1.247 . S
C339 O349 1.272 . S
O340 Co336 2.004 . S
O340 C345 1.259 . S
Co341 O342 2.061 . S
Co341 O347 2.052 . S
Co341 O349 2.135 . S
O342 Co341 2.061 . S
O342 C345 1.235 . S
C343 O346 1.238 . S
C343 O347 1.241 . S
C344 O337 1.247 . S
C344 O338 1.261 . S
C345 O340 1.259 . S
C345 O342 1.235 . S
O346 Co336 2.021 . S
O346 C343 1.238 . S
O347 Co341 2.052 . S
O347 C343 1.241 . S
O348 Co336 2.137 . S
O348 C339 1.247 . S
O349 Co336 2.244 . S
O349 C339 1.272 . S
O349 Co341 2.135 . S
Co350 O351 2.216 . S
Co350 O352 2.091 . S
Co350 O354 2.004 . S
Co350 O360 2.021 . S
Co350 O362 2.137 . S
Co350 O363 2.244 . S
O351 Co350 2.216 . S
O351 C358 1.247 . S
O352 Co350 2.091 . S
O352 C358 1.261 . S
C353 O362 1.247 . S
C353 O363 1.272 . S
O354 Co350 2.004 . S
O354 C359 1.259 . S
Co355 O356 2.061 . S
Co355 O361 2.052 . S
Co355 O363 2.135 . S
O356 Co355 2.061 . S
O356 C359 1.235 . S
C357 O360 1.238 . S
C357 O361 1.241 . S
C358 O351 1.247 . S
C358 O352 1.261 . S
C359 O354 1.259 . S
C359 O356 1.235 . S
O360 Co350 2.021 . S
O360 C357 1.238 . S
O361 Co355 2.052 . S
O361 C357 1.241 . S
O362 Co350 2.137 . S
O362 C353 1.247 . S
O363 Co350 2.244 . S
O363 C353 1.272 . S
O363 Co355 2.135 . S
Co364 O365 2.216 . S
Co364 O366 2.091 . S
Co364 O368 2.004 . S
Co364 O374 2.021 . S
Co364 O376 2.137 . S
Co364 O377 2.244 . S
O365 Co364 2.216 . S
O365 C372 1.247 . S
O366 Co364 2.091 . S
O366 C372 1.261 . S
C367 O376 1.247 . S
C367 O377 1.272 . S
O368 Co364 2.004 . S
O368 C373 1.259 . S
Co369 O370 2.061 . S
Co369 O375 2.052 . S
Co369 O377 2.135 . S
O370 Co369 2.061 . S
O370 C373 1.235 . S
C371 O374 1.238 . S
C371 O375 1.241 . S
C372 O365 1.247 . S
C372 O366 1.261 . S
C373 O368 1.259 . S
C373 O370 1.235 . S
O374 Co364 2.021 . S
O374 C371 1.238 . S
O375 Co369 2.052 . S
O375 C371 1.241 . S
O376 Co364 2.137 . S
O376 C367 1.247 . S
O377 Co364 2.244 . S
O377 C367 1.272 . S
O377 Co369 2.135 . S
Co378 O379 2.216 . S
Co378 O380 2.091 . S
Co378 O382 2.004 . S
Co378 O388 2.021 . S
Co378 O390 2.137 . S
Co378 O391 2.244 . S
O379 Co378 2.216 . S
O379 C386 1.247 . S
O380 Co378 2.091 . S
O380 C386 1.261 . S
C381 O390 1.247 . S
C381 O391 1.272 . S
O382 Co378 2.004 . S
O382 C387 1.259 . S
Co383 O384 2.061 . S
Co383 O389 2.052 . S
Co383 O391 2.135 . S
O384 Co383 2.061 . S
O384 C387 1.235 . S
C385 O388 1.238 . S
C385 O389 1.241 . S
C386 O379 1.247 . S
C386 O380 1.261 . S
C387 O382 1.259 . S
C387 O384 1.235 . S
O388 Co378 2.021 . S
O388 C385 1.238 . S
O389 Co383 2.052 . S
O389 C385 1.241 . S
O390 Co378 2.137 . S
O390 C381 1.247 . S
O391 Co378 2.244 . S
O391 C381 1.272 . S
O391 Co383 2.135 . S
Co392 O393 2.216 . S
Co392 O394 2.091 . S
Co392 O396 2.004 . S
Co392 O402 2.021 . S
Co392 O404 2.137 . S
Co392 O405 2.244 . S
O393 Co392 2.216 . S
O393 C400 1.247 . S
O394 Co392 2.091 . S
O394 C400 1.261 . S
C395 O404 1.247 . S
C395 O405 1.272 . S
O396 Co392 2.004 . S
O396 C401 1.259 . S
Co397 O398 2.061 . S
Co397 O403 2.052 . S
Co397 O405 2.135 . S
O398 Co397 2.061 . S
O398 C401 1.235 . S
C399 O402 1.238 . S
C399 O403 1.241 . S
C400 O393 1.247 . S
C400 O394 1.261 . S
C401 O396 1.259 . S
C401 O398 1.235 . S
O402 Co392 2.021 . S
O402 C399 1.238 . S
O403 Co397 2.052 . S
O403 C399 1.241 . S
O404 Co392 2.137 . S
O404 C395 1.247 . S
O405 Co392 2.244 . S
O405 C395 1.272 . S
O405 Co397 2.135 . S
Co406 O407 2.216 . S
Co406 O408 2.091 . S
Co406 O410 2.004 . S
Co406 O416 2.021 . S
Co406 O418 2.137 . S
Co406 O419 2.244 . S
O407 Co406 2.216 . S
O407 C414 1.247 . S
O408 Co406 2.091 . S
O408 C414 1.261 . S
C409 O418 1.247 . S
C409 O419 1.272 . S
O410 Co406 2.004 . S
O410 C415 1.259 . S
Co411 O412 2.061 . S
Co411 O417 2.052 . S
Co411 O419 2.135 . S
O412 Co411 2.061 . S
O412 C415 1.235 . S
C413 O416 1.238 . S
C413 O417 1.241 . S
C414 O407 1.247 . S
C414 O408 1.261 . S
C415 O410 1.259 . S
C415 O412 1.235 . S
O416 Co406 2.021 . S
O416 C413 1.238 . S
O417 Co411 2.052 . S
O417 C413 1.241 . S
O418 Co406 2.137 . S
O418 C409 1.247 . S
O419 Co406 2.244 . S
O419 C409 1.272 . S
O419 Co411 2.135 . S
Co420 O421 2.216 . S
Co420 O422 2.091 . S
Co420 O424 2.004 . S
Co420 O430 2.021 . S
Co420 O432 2.137 . S
Co420 O433 2.244 . S
O421 Co420 2.216 . S
O421 C428 1.247 . S
O422 Co420 2.091 . S
O422 C428 1.261 . S
C423 O432 1.247 . S
C423 O433 1.272 . S
O424 Co420 2.004 . S
O424 C429 1.259 . S
Co425 O426 2.061 . S
Co425 O431 2.052 . S
Co425 O433 2.135 . S
O426 Co425 2.061 . S
O426 C429 1.235 . S
C427 O430 1.238 . S
C427 O431 1.241 . S
C428 O421 1.247 . S
C428 O422 1.261 . S
C429 O424 1.259 . S
C429 O426 1.235 . S
O430 Co420 2.021 . S
O430 C427 1.238 . S
O431 Co425 2.052 . S
O431 C427 1.241 . S
O432 Co420 2.137 . S
O432 C423 1.247 . S
O433 Co420 2.244 . S
O433 C423 1.272 . S
O433 Co425 2.135 . S
Co434 O435 2.216 . S
Co434 O436 2.091 . S
Co434 O438 2.004 . S
Co434 O444 2.021 . S
Co434 O446 2.137 . S
Co434 O447 2.244 . S
O435 Co434 2.216 . S
O435 C442 1.247 . S
O436 Co434 2.091 . S
O436 C442 1.261 . S
C437 O446 1.247 . S
C437 O447 1.272 . S
O438 Co434 2.004 . S
O438 C443 1.259 . S
Co439 O440 2.061 . S
Co439 O445 2.052 . S
Co439 O447 2.135 . S
O440 Co439 2.061 . S
O440 C443 1.235 . S
C441 O444 1.238 . S
C441 O445 1.241 . S
C442 O435 1.247 . S
C442 O436 1.261 . S
C443 O438 1.259 . S
C443 O440 1.235 . S
O444 Co434 2.021 . S
O444 C441 1.238 . S
O445 Co439 2.052 . S
O445 C441 1.241 . S
O446 Co434 2.137 . S
O446 C437 1.247 . S
O447 Co434 2.244 . S
O447 C437 1.272 . S
O447 Co439 2.135 . S
H448 C460 0.930 . S
H449 C462 0.930 . S
H450 C463 0.930 . S
H451 C467 0.959 . S
H452 C467 0.959 . S
H453 C467 0.961 . S
H454 C468 0.960 . S
H455 C468 0.961 . S
H456 C468 0.959 . S
H457 C471 0.929 . S
H458 C472 0.931 . S
H459 C474 0.930 . S
C460 H448 0.930 . S
C460 C461 1.399 . S
C460 C465 1.399 . S
C461 C460 1.399 . S
C461 C462 1.376 . S
C462 H449 0.930 . S
C462 C461 1.376 . S
C462 C463 1.388 . S
C463 H450 0.930 . S
C463 C462 1.388 . S
C463 C464 1.390 . S
C464 C463 1.390 . S
C464 C465 1.394 . S
C464 C470 1.465 . S
C465 C460 1.399 . S
C465 C464 1.394 . S
C465 C466 1.516 . S
C466 C465 1.516 . S
C466 C467 1.502 . S
C466 C468 1.561 . S
C466 C469 1.526 . S
C467 H451 0.959 . S
C467 H452 0.959 . S
C467 H453 0.961 . S
C467 C466 1.502 . S
C468 H454 0.960 . S
C468 H455 0.961 . S
C468 H456 0.959 . S
C468 C466 1.561 . S
C469 C466 1.526 . S
C469 C470 1.396 . S
C469 C474 1.390 . S
C470 C464 1.465 . S
C470 C469 1.396 . S
C470 C471 1.399 . S
C471 H457 0.929 . S
C471 C470 1.399 . S
C471 C472 1.385 . S
C472 H458 0.931 . S
C472 C471 1.385 . S
C472 C473 1.389 . S
C473 C472 1.389 . S
C473 C474 1.387 . S
C474 H459 0.930 . S
C474 C469 1.390 . S
C474 C473 1.387 . S
H475 C487 0.930 . S
H476 C489 0.930 . S
H477 C490 0.930 . S
H478 C494 0.959 . S
H479 C494 0.959 . S
H480 C494 0.961 . S
H481 C495 0.960 . S
H482 C495 0.961 . S
H483 C495 0.959 . S
H484 C498 0.929 . S
H485 C499 0.931 . S
H486 C501 0.930 . S
C487 H475 0.930 . S
C487 C488 1.399 . S
C487 C492 1.399 . S
C488 C487 1.399 . S
C488 C489 1.376 . S
C489 H476 0.930 . S
C489 C488 1.376 . S
C489 C490 1.388 . S
C490 H477 0.930 . S
C490 C489 1.388 . S
C490 C491 1.390 . S
C491 C490 1.390 . S
C491 C492 1.394 . S
C491 C497 1.465 . S
C492 C487 1.399 . S
C492 C491 1.394 . S
C492 C493 1.516 . S
C493 C492 1.516 . S
C493 C494 1.502 . S
C493 C495 1.561 . S
C493 C496 1.526 . S
C494 H478 0.959 . S
C494 H479 0.959 . S
C494 H480 0.961 . S
C494 C493 1.502 . S
C495 H481 0.960 . S
C495 H482 0.961 . S
C495 H483 0.959 . S
C495 C493 1.561 . S
C496 C493 1.526 . S
C496 C497 1.396 . S
C496 C501 1.390 . S
C497 C491 1.465 . S
C497 C496 1.396 . S
C497 C498 1.399 . S
C498 H484 0.929 . S
C498 C497 1.399 . S
C498 C499 1.385 . S
C499 H485 0.931 . S
C499 C498 1.385 . S
C499 C500 1.389 . S
C500 C499 1.389 . S
C500 C501 1.387 . S
C501 H486 0.930 . S
C501 C496 1.390 . S
C501 C500 1.387 . S
H502 C514 0.930 . S
H503 C516 0.930 . S
H504 C517 0.930 . S
H505 C521 0.959 . S
H506 C521 0.959 . S
H507 C521 0.961 . S
H508 C522 0.960 . S
H509 C522 0.961 . S
H510 C522 0.959 . S
H511 C525 0.929 . S
H512 C526 0.931 . S
H513 C528 0.930 . S
C514 H502 0.930 . S
C514 C515 1.399 . S
C514 C519 1.399 . S
C515 C514 1.399 . S
C515 C516 1.376 . S
C516 H503 0.930 . S
C516 C515 1.376 . S
C516 C517 1.388 . S
C517 H504 0.930 . S
C517 C516 1.388 . S
C517 C518 1.390 . S
C518 C517 1.390 . S
C518 C519 1.394 . S
C518 C524 1.465 . S
C519 C514 1.399 . S
C519 C518 1.394 . S
C519 C520 1.516 . S
C520 C519 1.516 . S
C520 C521 1.502 . S
C520 C522 1.561 . S
C520 C523 1.526 . S
C521 H505 0.959 . S
C521 H506 0.959 . S
C521 H507 0.961 . S
C521 C520 1.502 . S
C522 H508 0.960 . S
C522 H509 0.961 . S
C522 H510 0.959 . S
C522 C520 1.561 . S
C523 C520 1.526 . S
C523 C524 1.396 . S
C523 C528 1.390 . S
C524 C518 1.465 . S
C524 C523 1.396 . S
C524 C525 1.399 . S
C525 H511 0.929 . S
C525 C524 1.399 . S
C525 C526 1.385 . S
C526 H512 0.931 . S
C526 C525 1.385 . S
C526 C527 1.389 . S
C527 C526 1.389 . S
C527 C528 1.387 . S
C528 H513 0.930 . S
C528 C523 1.390 . S
C528 C527 1.387 . S
H529 C541 0.930 . S
H530 C543 0.930 . S
H531 C544 0.930 . S
H532 C548 0.959 . S
H533 C548 0.959 . S
H534 C548 0.961 . S
H535 C549 0.960 . S
H536 C549 0.961 . S
H537 C549 0.959 . S
H538 C552 0.929 . S
H539 C553 0.931 . S
H540 C555 0.930 . S
C541 H529 0.930 . S
C541 C542 1.399 . S
C541 C546 1.399 . S
C542 C541 1.399 . S
C542 C543 1.376 . S
C543 H530 0.930 . S
C543 C542 1.376 . S
C543 C544 1.388 . S
C544 H531 0.930 . S
C544 C543 1.388 . S
C544 C545 1.390 . S
C545 C544 1.390 . S
C545 C546 1.394 . S
C545 C551 1.465 . S
C546 C541 1.399 . S
C546 C545 1.394 . S
C546 C547 1.516 . S
C547 C546 1.516 . S
C547 C548 1.502 . S
C547 C549 1.561 . S
C547 C550 1.526 . S
C548 H532 0.959 . S
C548 H533 0.959 . S
C548 H534 0.961 . S
C548 C547 1.502 . S
C549 H535 0.960 . S
C549 H536 0.961 . S
C549 H537 0.959 . S
C549 C547 1.561 . S
C550 C547 1.526 . S
C550 C551 1.396 . S
C550 C555 1.390 . S
C551 C545 1.465 . S
C551 C550 1.396 . S
C551 C552 1.399 . S
C552 H538 0.929 . S
C552 C551 1.399 . S
C552 C553 1.385 . S
C553 H539 0.931 . S
C553 C552 1.385 . S
C553 C554 1.389 . S
C554 C553 1.389 . S
C554 C555 1.387 . S
C555 H540 0.930 . S
C555 C550 1.390 . S
C555 C554 1.387 . S
H556 C568 0.930 . S
H557 C570 0.930 . S
H558 C571 0.930 . S
H559 C575 0.959 . S
H560 C575 0.959 . S
H561 C575 0.961 . S
H562 C576 0.960 . S
H563 C576 0.961 . S
H564 C576 0.959 . S
H565 C579 0.929 . S
H566 C580 0.931 . S
H567 C582 0.930 . S
C568 H556 0.930 . S
C568 C569 1.399 . S
C568 C573 1.399 . S
C569 C568 1.399 . S
C569 C570 1.376 . S
C570 H557 0.930 . S
C570 C569 1.376 . S
C570 C571 1.388 . S
C571 H558 0.930 . S
C571 C570 1.388 . S
C571 C572 1.390 . S
C572 C571 1.390 . S
C572 C573 1.394 . S
C572 C578 1.465 . S
C573 C568 1.399 . S
C573 C572 1.394 . S
C573 C574 1.516 . S
C574 C573 1.516 . S
C574 C575 1.502 . S
C574 C576 1.561 . S
C574 C577 1.526 . S
C575 H559 0.959 . S
C575 H560 0.959 . S
C575 H561 0.961 . S
C575 C574 1.502 . S
C576 H562 0.960 . S
C576 H563 0.961 . S
C576 H564 0.959 . S
C576 C574 1.561 . S
C577 C574 1.526 . S
C577 C578 1.396 . S
C577 C582 1.390 . S
C578 C572 1.465 . S
C578 C577 1.396 . S
C578 C579 1.399 . S
C579 H565 0.929 . S
C579 C578 1.399 . S
C579 C580 1.385 . S
C580 H566 0.931 . S
C580 C579 1.385 . S
C580 C581 1.389 . S
C581 C580 1.389 . S
C581 C582 1.387 . S
C582 H567 0.930 . S
C582 C577 1.390 . S
C582 C581 1.387 . S
H583 C595 0.930 . S
H584 C597 0.930 . S
H585 C598 0.930 . S
H586 C602 0.959 . S
H587 C602 0.959 . S
H588 C602 0.961 . S
H589 C603 0.960 . S
H590 C603 0.961 . S
H591 C603 0.959 . S
H592 C606 0.929 . S
H593 C607 0.931 . S
H594 C609 0.930 . S
C595 H583 0.930 . S
C595 C596 1.399 . S
C595 C600 1.399 . S
C596 C595 1.399 . S
C596 C597 1.376 . S
C597 H584 0.930 . S
C597 C596 1.376 . S
C597 C598 1.388 . S
C598 H585 0.930 . S
C598 C597 1.388 . S
C598 C599 1.390 . S
C599 C598 1.390 . S
C599 C600 1.394 . S
C599 C605 1.465 . S
C600 C595 1.399 . S
C600 C599 1.394 . S
C600 C601 1.516 . S
C601 C600 1.516 . S
C601 C602 1.502 . S
C601 C603 1.561 . S
C601 C604 1.526 . S
C602 H586 0.959 . S
C602 H587 0.959 . S
C602 H588 0.961 . S
C602 C601 1.502 . S
C603 H589 0.960 . S
C603 H590 0.961 . S
C603 H591 0.959 . S
C603 C601 1.561 . S
C604 C601 1.526 . S
C604 C605 1.396 . S
C604 C609 1.390 . S
C605 C599 1.465 . S
C605 C604 1.396 . S
C605 C606 1.399 . S
C606 H592 0.929 . S
C606 C605 1.399 . S
C606 C607 1.385 . S
C607 H593 0.931 . S
C607 C606 1.385 . S
C607 C608 1.389 . S
C608 C607 1.389 . S
C608 C609 1.387 . S
C609 H594 0.930 . S
C609 C604 1.390 . S
C609 C608 1.387 . S
H610 C622 0.930 . S
H611 C624 0.930 . S
H612 C625 0.930 . S
H613 C629 0.959 . S
H614 C629 0.959 . S
H615 C629 0.961 . S
H616 C630 0.960 . S
H617 C630 0.961 . S
H618 C630 0.959 . S
H619 C633 0.929 . S
H620 C634 0.931 . S
H621 C636 0.930 . S
C622 H610 0.930 . S
C622 C623 1.399 . S
C622 C627 1.399 . S
C623 C622 1.399 . S
C623 C624 1.376 . S
C624 H611 0.930 . S
C624 C623 1.376 . S
C624 C625 1.388 . S
C625 H612 0.930 . S
C625 C624 1.388 . S
C625 C626 1.390 . S
C626 C625 1.390 . S
C626 C627 1.394 . S
C626 C632 1.465 . S
C627 C622 1.399 . S
C627 C626 1.394 . S
C627 C628 1.516 . S
C628 C627 1.516 . S
C628 C629 1.502 . S
C628 C630 1.561 . S
C628 C631 1.526 . S
C629 H613 0.959 . S
C629 H614 0.959 . S
C629 H615 0.961 . S
C629 C628 1.502 . S
C630 H616 0.960 . S
C630 H617 0.961 . S
C630 H618 0.959 . S
C630 C628 1.561 . S
C631 C628 1.526 . S
C631 C632 1.396 . S
C631 C636 1.390 . S
C632 C626 1.465 . S
C632 C631 1.396 . S
C632 C633 1.399 . S
C633 H619 0.929 . S
C633 C632 1.399 . S
C633 C634 1.385 . S
C634 H620 0.931 . S
C634 C633 1.385 . S
C634 C635 1.389 . S
C635 C634 1.389 . S
C635 C636 1.387 . S
C636 H621 0.930 . S
C636 C631 1.390 . S
C636 C635 1.387 . S
H637 C649 0.930 . S
H638 C651 0.930 . S
H639 C652 0.930 . S
H640 C656 0.959 . S
H641 C656 0.959 . S
H642 C656 0.961 . S
H643 C657 0.960 . S
H644 C657 0.961 . S
H645 C657 0.959 . S
H646 C660 0.929 . S
H647 C661 0.931 . S
H648 C663 0.930 . S
C649 H637 0.930 . S
C649 C650 1.399 . S
C649 C654 1.399 . S
C650 C649 1.399 . S
C650 C651 1.376 . S
C651 H638 0.930 . S
C651 C650 1.376 . S
C651 C652 1.388 . S
C652 H639 0.930 . S
C652 C651 1.388 . S
C652 C653 1.390 . S
C653 C652 1.390 . S
C653 C654 1.394 . S
C653 C659 1.465 . S
C654 C649 1.399 . S
C654 C653 1.394 . S
C654 C655 1.516 . S
C655 C654 1.516 . S
C655 C656 1.502 . S
C655 C657 1.561 . S
C655 C658 1.526 . S
C656 H640 0.959 . S
C656 H641 0.959 . S
C656 H642 0.961 . S
C656 C655 1.502 . S
C657 H643 0.960 . S
C657 H644 0.961 . S
C657 H645 0.959 . S
C657 C655 1.561 . S
C658 C655 1.526 . S
C658 C659 1.396 . S
C658 C663 1.390 . S
C659 C653 1.465 . S
C659 C658 1.396 . S
C659 C660 1.399 . S
C660 H646 0.929 . S
C660 C659 1.399 . S
C660 C661 1.385 . S
C661 H647 0.931 . S
C661 C660 1.385 . S
C661 C662 1.389 . S
C662 C661 1.389 . S
C662 C663 1.387 . S
C663 H648 0.930 . S
C663 C658 1.390 . S
C663 C662 1.387 . S
H664 C676 0.930 . S
H665 C678 0.930 . S
H666 C679 0.930 . S
H667 C683 0.959 . S
H668 C683 0.959 . S
H669 C683 0.961 . S
H670 C684 0.960 . S
H671 C684 0.961 . S
H672 C684 0.959 . S
H673 C687 0.929 . S
H674 C688 0.931 . S
H675 C690 0.930 . S
C676 H664 0.930 . S
C676 C677 1.399 . S
C676 C681 1.399 . S
C677 C676 1.399 . S
C677 C678 1.376 . S
C678 H665 0.930 . S
C678 C677 1.376 . S
C678 C679 1.388 . S
C679 H666 0.930 . S
C679 C678 1.388 . S
C679 C680 1.390 . S
C680 C679 1.390 . S
C680 C681 1.394 . S
C680 C686 1.465 . S
C681 C676 1.399 . S
C681 C680 1.394 . S
C681 C682 1.516 . S
C682 C681 1.516 . S
C682 C683 1.502 . S
C682 C684 1.561 . S
C682 C685 1.526 . S
C683 H667 0.959 . S
C683 H668 0.959 . S
C683 H669 0.961 . S
C683 C682 1.502 . S
C684 H670 0.960 . S
C684 H671 0.961 . S
C684 H672 0.959 . S
C684 C682 1.561 . S
C685 C682 1.526 . S
C685 C686 1.396 . S
C685 C690 1.390 . S
C686 C680 1.465 . S
C686 C685 1.396 . S
C686 C687 1.399 . S
C687 H673 0.929 . S
C687 C686 1.399 . S
C687 C688 1.385 . S
C688 H674 0.931 . S
C688 C687 1.385 . S
C688 C689 1.389 . S
C689 C688 1.389 . S
C689 C690 1.387 . S
C690 H675 0.930 . S
C690 C685 1.390 . S
C690 C689 1.387 . S
H691 C703 0.930 . S
H692 C705 0.930 . S
H693 C706 0.930 . S
H694 C710 0.959 . S
H695 C710 0.959 . S
H696 C710 0.961 . S
H697 C711 0.960 . S
H698 C711 0.961 . S
H699 C711 0.959 . S
H700 C714 0.929 . S
H701 C715 0.931 . S
H702 C717 0.930 . S
C703 H691 0.930 . S
C703 C704 1.399 . S
C703 C708 1.399 . S
C704 C703 1.399 . S
C704 C705 1.376 . S
C705 H692 0.930 . S
C705 C704 1.376 . S
C705 C706 1.388 . S
C706 H693 0.930 . S
C706 C705 1.388 . S
C706 C707 1.390 . S
C707 C706 1.390 . S
C707 C708 1.394 . S
C707 C713 1.465 . S
C708 C703 1.399 . S
C708 C707 1.394 . S
C708 C709 1.516 . S
C709 C708 1.516 . S
C709 C710 1.502 . S
C709 C711 1.561 . S
C709 C712 1.526 . S
C710 H694 0.959 . S
C710 H695 0.959 . S
C710 H696 0.961 . S
C710 C709 1.502 . S
C711 H697 0.960 . S
C711 H698 0.961 . S
C711 H699 0.959 . S
C711 C709 1.561 . S
C712 C709 1.526 . S
C712 C713 1.396 . S
C712 C717 1.390 . S
C713 C707 1.465 . S
C713 C712 1.396 . S
C713 C714 1.399 . S
C714 H700 0.929 . S
C714 C713 1.399 . S
C714 C715 1.385 . S
C715 H701 0.931 . S
C715 C714 1.385 . S
C715 C716 1.389 . S
C716 C715 1.389 . S
C716 C717 1.387 . S
C717 H702 0.930 . S
C717 C712 1.390 . S
C717 C716 1.387 . S
H718 C730 0.930 . S
H719 C732 0.930 . S
H720 C733 0.930 . S
H721 C737 0.959 . S
H722 C737 0.959 . S
H723 C737 0.961 . S
H724 C738 0.960 . S
H725 C738 0.961 . S
H726 C738 0.959 . S
H727 C741 0.929 . S
H728 C742 0.931 . S
H729 C744 0.930 . S
C730 H718 0.930 . S
C730 C731 1.399 . S
C730 C735 1.399 . S
C731 C730 1.399 . S
C731 C732 1.376 . S
C732 H719 0.930 . S
C732 C731 1.376 . S
C732 C733 1.388 . S
C733 H720 0.930 . S
C733 C732 1.388 . S
C733 C734 1.390 . S
C734 C733 1.390 . S
C734 C735 1.394 . S
C734 C740 1.465 . S
C735 C730 1.399 . S
C735 C734 1.394 . S
C735 C736 1.516 . S
C736 C735 1.516 . S
C736 C737 1.502 . S
C736 C738 1.561 . S
C736 C739 1.526 . S
C737 H721 0.959 . S
C737 H722 0.959 . S
C737 H723 0.961 . S
C737 C736 1.502 . S
C738 H724 0.960 . S
C738 H725 0.961 . S
C738 H726 0.959 . S
C738 C736 1.561 . S
C739 C736 1.526 . S
C739 C740 1.396 . S
C739 C744 1.390 . S
C740 C734 1.465 . S
C740 C739 1.396 . S
C740 C741 1.399 . S
C741 H727 0.929 . S
C741 C740 1.399 . S
C741 C742 1.385 . S
C742 H728 0.931 . S
C742 C741 1.385 . S
C742 C743 1.389 . S
C743 C742 1.389 . S
C743 C744 1.387 . S
C744 H729 0.930 . S
C744 C739 1.390 . S
C744 C743 1.387 . S
H745 C757 0.930 . S
H746 C759 0.930 . S
H747 C760 0.930 . S
H748 C764 0.959 . S
H749 C764 0.959 . S
H750 C764 0.961 . S
H751 C765 0.960 . S
H752 C765 0.961 . S
H753 C765 0.959 . S
H754 C768 0.929 . S
H755 C769 0.931 . S
H756 C771 0.930 . S
C757 H745 0.930 . S
C757 C758 1.399 . S
C757 C762 1.399 . S
C758 C757 1.399 . S
C758 C759 1.376 . S
C759 H746 0.930 . S
C759 C758 1.376 . S
C759 C760 1.388 . S
C760 H747 0.930 . S
C760 C759 1.388 . S
C760 C761 1.390 . S
C761 C760 1.390 . S
C761 C762 1.394 . S
C761 C767 1.465 . S
C762 C757 1.399 . S
C762 C761 1.394 . S
C762 C763 1.516 . S
C763 C762 1.516 . S
C763 C764 1.502 . S
C763 C765 1.561 . S
C763 C766 1.526 . S
C764 H748 0.959 . S
C764 H749 0.959 . S
C764 H750 0.961 . S
C764 C763 1.502 . S
C765 H751 0.960 . S
C765 H752 0.961 . S
C765 H753 0.959 . S
C765 C763 1.561 . S
C766 C763 1.526 . S
C766 C767 1.396 . S
C766 C771 1.390 . S
C767 C761 1.465 . S
C767 C766 1.396 . S
C767 C768 1.399 . S
C768 H754 0.929 . S
C768 C767 1.399 . S
C768 C769 1.385 . S
C769 H755 0.931 . S
C769 C768 1.385 . S
C769 C770 1.389 . S
C770 C769 1.389 . S
C770 C771 1.387 . S
C771 H756 0.930 . S
C771 C766 1.390 . S
C771 C770 1.387 . S
H772 C784 0.930 . S
H773 C786 0.930 . S
H774 C787 0.930 . S
H775 C791 0.959 . S
H776 C791 0.959 . S
H777 C791 0.961 . S
H778 C792 0.960 . S
H779 C792 0.961 . S
H780 C792 0.959 . S
H781 C795 0.929 . S
H782 C796 0.931 . S
H783 C798 0.930 . S
C784 H772 0.930 . S
C784 C785 1.399 . S
C784 C789 1.399 . S
C785 C784 1.399 . S
C785 C786 1.376 . S
C786 H773 0.930 . S
C786 C785 1.376 . S
C786 C787 1.388 . S
C787 H774 0.930 . S
C787 C786 1.388 . S
C787 C788 1.390 . S
C788 C787 1.390 . S
C788 C789 1.394 . S
C788 C794 1.465 . S
C789 C784 1.399 . S
C789 C788 1.394 . S
C789 C790 1.516 . S
C790 C789 1.516 . S
C790 C791 1.502 . S
C790 C792 1.561 . S
C790 C793 1.526 . S
C791 H775 0.959 . S
C791 H776 0.959 . S
C791 H777 0.961 . S
C791 C790 1.502 . S
C792 H778 0.960 . S
C792 H779 0.961 . S
C792 H780 0.959 . S
C792 C790 1.561 . S
C793 C790 1.526 . S
C793 C794 1.396 . S
C793 C798 1.390 . S
C794 C788 1.465 . S
C794 C793 1.396 . S
C794 C795 1.399 . S
C795 H781 0.929 . S
C795 C794 1.399 . S
C795 C796 1.385 . S
C796 H782 0.931 . S
C796 C795 1.385 . S
C796 C797 1.389 . S
C797 C796 1.389 . S
C797 C798 1.387 . S
C798 H783 0.930 . S
C798 C793 1.390 . S
C798 C797 1.387 . S
H799 C811 0.930 . S
H800 C813 0.930 . S
H801 C814 0.930 . S
H802 C818 0.959 . S
H803 C818 0.959 . S
H804 C818 0.961 . S
H805 C819 0.960 . S
H806 C819 0.961 . S
H807 C819 0.959 . S
H808 C822 0.929 . S
H809 C823 0.931 . S
H810 C825 0.930 . S
C811 H799 0.930 . S
C811 C812 1.399 . S
C811 C816 1.399 . S
C812 C811 1.399 . S
C812 C813 1.376 . S
C813 H800 0.930 . S
C813 C812 1.376 . S
C813 C814 1.388 . S
C814 H801 0.930 . S
C814 C813 1.388 . S
C814 C815 1.390 . S
C815 C814 1.390 . S
C815 C816 1.394 . S
C815 C821 1.465 . S
C816 C811 1.399 . S
C816 C815 1.394 . S
C816 C817 1.516 . S
C817 C816 1.516 . S
C817 C818 1.502 . S
C817 C819 1.561 . S
C817 C820 1.526 . S
C818 H802 0.959 . S
C818 H803 0.959 . S
C818 H804 0.961 . S
C818 C817 1.502 . S
C819 H805 0.960 . S
C819 H806 0.961 . S
C819 H807 0.959 . S
C819 C817 1.561 . S
C820 C817 1.526 . S
C820 C821 1.396 . S
C820 C825 1.390 . S
C821 C815 1.465 . S
C821 C820 1.396 . S
C821 C822 1.399 . S
C822 H808 0.929 . S
C822 C821 1.399 . S
C822 C823 1.385 . S
C823 H809 0.931 . S
C823 C822 1.385 . S
C823 C824 1.389 . S
C824 C823 1.389 . S
C824 C825 1.387 . S
C825 H810 0.930 . S
C825 C820 1.390 . S
C825 C824 1.387 . S
H826 C838 0.930 . S
H827 C840 0.930 . S
H828 C841 0.930 . S
H829 C845 0.959 . S
H830 C845 0.959 . S
H831 C845 0.961 . S
H832 C846 0.960 . S
H833 C846 0.961 . S
H834 C846 0.959 . S
H835 C849 0.929 . S
H836 C850 0.931 . S
H837 C852 0.930 . S
C838 H826 0.930 . S
C838 C839 1.399 . S
C838 C843 1.399 . S
C839 C838 1.399 . S
C839 C840 1.376 . S
C840 H827 0.930 . S
C840 C839 1.376 . S
C840 C841 1.388 . S
C841 H828 0.930 . S
C841 C840 1.388 . S
C841 C842 1.390 . S
C842 C841 1.390 . S
C842 C843 1.394 . S
C842 C848 1.465 . S
C843 C838 1.399 . S
C843 C842 1.394 . S
C843 C844 1.516 . S
C844 C843 1.516 . S
C844 C845 1.502 . S
C844 C846 1.561 . S
C844 C847 1.526 . S
C845 H829 0.959 . S
C845 H830 0.959 . S
C845 H831 0.961 . S
C845 C844 1.502 . S
C846 H832 0.960 . S
C846 H833 0.961 . S
C846 H834 0.959 . S
C846 C844 1.561 . S
C847 C844 1.526 . S
C847 C848 1.396 . S
C847 C852 1.390 . S
C848 C842 1.465 . S
C848 C847 1.396 . S
C848 C849 1.399 . S
C849 H835 0.929 . S
C849 C848 1.399 . S
C849 C850 1.385 . S
C850 H836 0.931 . S
C850 C849 1.385 . S
C850 C851 1.389 . S
C851 C850 1.389 . S
C851 C852 1.387 . S
C852 H837 0.930 . S
C852 C847 1.390 . S
C852 C851 1.387 . S
H853 C865 0.930 . S
H854 C867 0.930 . S
H855 C868 0.930 . S
H856 C872 0.959 . S
H857 C872 0.959 . S
H858 C872 0.961 . S
H859 C873 0.960 . S
H860 C873 0.961 . S
H861 C873 0.959 . S
H862 C876 0.929 . S
H863 C877 0.931 . S
H864 C879 0.930 . S
C865 H853 0.930 . S
C865 C866 1.399 . S
C865 C870 1.399 . S
C866 C865 1.399 . S
C866 C867 1.376 . S
C867 H854 0.930 . S
C867 C866 1.376 . S
C867 C868 1.388 . S
C868 H855 0.930 . S
C868 C867 1.388 . S
C868 C869 1.390 . S
C869 C868 1.390 . S
C869 C870 1.394 . S
C869 C875 1.465 . S
C870 C865 1.399 . S
C870 C869 1.394 . S
C870 C871 1.516 . S
C871 C870 1.516 . S
C871 C872 1.502 . S
C871 C873 1.561 . S
C871 C874 1.526 . S
C872 H856 0.959 . S
C872 H857 0.959 . S
C872 H858 0.961 . S
C872 C871 1.502 . S
C873 H859 0.960 . S
C873 H860 0.961 . S
C873 H861 0.959 . S
C873 C871 1.561 . S
C874 C871 1.526 . S
C874 C875 1.396 . S
C874 C879 1.390 . S
C875 C869 1.465 . S
C875 C874 1.396 . S
C875 C876 1.399 . S
C876 H862 0.929 . S
C876 C875 1.399 . S
C876 C877 1.385 . S
C877 H863 0.931 . S
C877 C876 1.385 . S
C877 C878 1.389 . S
C878 C877 1.389 . S
C878 C879 1.387 . S
C879 H864 0.930 . S
C879 C874 1.390 . S
C879 C878 1.387 . S
H880 C892 0.930 . S
H881 C894 0.930 . S
H882 C895 0.930 . S
H883 C899 0.962 . S
H884 C899 0.979 . S
H885 C899 0.940 1_455 S
H886 C900 0.958 1_455 S
H887 C900 0.963 . S
H888 C900 0.959 . S
H889 C903 0.929 . S
H890 C904 0.931 . S
H891 C906 0.930 . S
C892 H880 0.930 . S
C892 C893 1.399 . S
C892 C897 1.399 . S
C893 C892 1.399 . S
C893 C894 1.376 . S
C894 H881 0.930 . S
C894 C893 1.376 . S
C894 C895 1.388 . S
C895 H882 0.930 . S
C895 C894 1.388 . S
C895 C896 1.390 . S
C896 C895 1.390 . S
C896 C897 1.394 . S
C896 C902 1.465 1_455 S
C897 C892 1.399 . S
C897 C896 1.394 . S
C897 C898 1.517 1_455 S
C898 C897 1.517 1_655 S
C898 C899 1.502 . S
C898 C900 1.561 1_554 S
C898 C901 1.525 . S
C899 H883 0.962 . S
C899 H884 0.979 . S
C899 H885 0.940 1_655 S
C899 C898 1.502 . S
C900 H886 0.958 1_655 S
C900 H887 0.963 . S
C900 H888 0.959 . S
C900 C898 1.561 1_556 S
C901 C898 1.525 . S
C901 C902 1.396 . S
C901 C906 1.390 . S
C902 C896 1.465 1_655 S
C902 C901 1.396 . S
C902 C903 1.399 . S
C903 H889 0.929 . S
C903 C902 1.399 . S
C903 C904 1.385 . S
C904 H890 0.931 . S
C904 C903 1.385 . S
C904 C905 1.389 . S
C905 C904 1.389 . S
C905 C906 1.387 . S
C906 H891 0.930 . S
C906 C901 1.390 . S
C906 C905 1.387 . S
H907 C919 0.930 . S
H908 C921 0.930 . S
H909 C922 0.930 . S
H910 C926 0.959 . S
H911 C926 0.959 . S
H912 C926 0.961 . S
H913 C927 0.960 . S
H914 C927 0.961 . S
H915 C927 0.959 . S
H916 C930 0.929 . S
H917 C931 0.931 . S
H918 C933 0.930 . S
C919 H907 0.930 . S
C919 C920 1.399 . S
C919 C924 1.399 . S
C920 C919 1.399 . S
C920 C921 1.376 . S
C921 H908 0.930 . S
C921 C920 1.376 . S
C921 C922 1.388 . S
C922 H909 0.930 . S
C922 C921 1.388 . S
C922 C923 1.390 . S
C923 C922 1.390 . S
C923 C924 1.394 . S
C923 C929 1.465 . S
C924 C919 1.399 . S
C924 C923 1.394 . S
C924 C925 1.516 . S
C925 C924 1.516 . S
C925 C926 1.502 . S
C925 C927 1.561 . S
C925 C928 1.526 . S
C926 H910 0.959 . S
C926 H911 0.959 . S
C926 H912 0.961 . S
C926 C925 1.502 . S
C927 H913 0.960 . S
C927 H914 0.961 . S
C927 H915 0.959 . S
C927 C925 1.561 . S
C928 C925 1.526 . S
C928 C929 1.396 . S
C928 C933 1.390 . S
C929 C923 1.465 . S
C929 C928 1.396 . S
C929 C930 1.399 . S
C930 H916 0.929 . S
C930 C929 1.399 . S
C930 C931 1.385 . S
C931 H917 0.931 . S
C931 C930 1.385 . S
C931 C932 1.389 . S
C932 C931 1.389 . S
C932 C933 1.387 . S
C933 H918 0.930 . S
C933 C928 1.390 . S
C933 C932 1.387 . S
H934 C946 0.930 . S
H935 C948 0.930 . S
H936 C949 0.930 . S
H937 C953 0.959 . S
H938 C953 0.959 . S
H939 C953 0.961 . S
H940 C954 0.960 . S
H941 C954 0.961 . S
H942 C954 0.959 . S
H943 C957 0.929 . S
H944 C958 0.931 . S
H945 C960 0.930 . S
C946 H934 0.930 . S
C946 C947 1.399 . S
C946 C951 1.399 . S
C947 C946 1.399 . S
C947 C948 1.376 . S
C948 H935 0.930 . S
C948 C947 1.376 . S
C948 C949 1.388 . S
C949 H936 0.930 . S
C949 C948 1.388 . S
C949 C950 1.390 . S
C950 C949 1.390 . S
C950 C951 1.394 . S
C950 C956 1.465 . S
C951 C946 1.399 . S
C951 C950 1.394 . S
C951 C952 1.516 . S
C952 C951 1.516 . S
C952 C953 1.502 . S
C952 C954 1.561 . S
C952 C955 1.526 . S
C953 H937 0.959 . S
C953 H938 0.959 . S
C953 H939 0.961 . S
C953 C952 1.502 . S
C954 H940 0.960 . S
C954 H941 0.961 . S
C954 H942 0.959 . S
C954 C952 1.561 . S
C955 C952 1.526 . S
C955 C956 1.396 . S
C955 C960 1.390 . S
C956 C950 1.465 . S
C956 C955 1.396 . S
C956 C957 1.399 . S
C957 H943 0.929 . S
C957 C956 1.399 . S
C957 C958 1.385 . S
C958 H944 0.931 . S
C958 C957 1.385 . S
C958 C959 1.389 . S
C959 C958 1.389 . S
C959 C960 1.387 . S
C960 H945 0.930 . S
C960 C955 1.390 . S
C960 C959 1.387 . S
H961 C973 0.930 . S
H962 C975 0.930 . S
H963 C976 0.930 . S
H964 C980 0.959 . S
H965 C980 0.959 . S
H966 C980 0.961 . S
H967 C981 0.960 . S
H968 C981 0.961 . S
H969 C981 0.959 . S
H970 C984 0.929 . S
H971 C985 0.931 . S
H972 C987 0.930 . S
C973 H961 0.930 . S
C973 C974 1.399 . S
C973 C978 1.399 . S
C974 C973 1.399 . S
C974 C975 1.376 . S
C975 H962 0.930 . S
C975 C974 1.376 . S
C975 C976 1.388 . S
C976 H963 0.930 . S
C976 C975 1.388 . S
C976 C977 1.390 . S
C977 C976 1.390 . S
C977 C978 1.394 . S
C977 C983 1.465 . S
C978 C973 1.399 . S
C978 C977 1.394 . S
C978 C979 1.516 . S
C979 C978 1.516 . S
C979 C980 1.502 . S
C979 C981 1.561 . S
C979 C982 1.526 . S
C980 H964 0.959 . S
C980 H965 0.959 . S
C980 H966 0.961 . S
C980 C979 1.502 . S
C981 H967 0.960 . S
C981 H968 0.961 . S
C981 H969 0.959 . S
C981 C979 1.561 . S
C982 C979 1.526 . S
C982 C983 1.396 . S
C982 C987 1.390 . S
C983 C977 1.465 . S
C983 C982 1.396 . S
C983 C984 1.399 . S
C984 H970 0.929 . S
C984 C983 1.399 . S
C984 C985 1.385 . S
C985 H971 0.931 . S
C985 C984 1.385 . S
C985 C986 1.389 . S
C986 C985 1.389 . S
C986 C987 1.387 . S
C987 H972 0.930 . S
C987 C982 1.390 . S
C987 C986 1.387 . S
H988 C1000 0.930 1_554 S
H989 C1002 0.930 . S
H990 C1003 0.930 . S
H991 C1007 0.962 . S
H992 C1007 0.979 . S
H993 C1007 0.940 1_655 S
H994 C1008 0.958 1_654 S
H995 C1008 0.963 1_554 S
H996 C1008 0.959 . S
H997 C1011 0.929 . S
H998 C1012 0.931 . S
H999 C1014 0.930 1_554 S
C1000 H988 0.930 1_556 S
C1000 C1001 1.399 . S
C1000 C1005 1.399 . S
C1001 C1000 1.399 . S
C1001 C1002 1.376 . S
C1002 H989 0.930 . S
C1002 C1001 1.376 . S
C1002 C1003 1.388 . S
C1003 H990 0.930 . S
C1003 C1002 1.388 . S
C1003 C1004 1.390 . S
C1004 C1003 1.390 . S
C1004 C1005 1.394 . S
C1004 C1010 1.465 1_655 S
C1005 C1000 1.399 . S
C1005 C1004 1.394 . S
C1005 C1006 1.517 1_656 S
C1006 C1005 1.517 1_454 S
C1006 C1007 1.502 . S
C1006 C1008 1.561 1_554 S
C1006 C1009 1.525 1_554 S
C1007 H991 0.962 . S
C1007 H992 0.979 . S
C1007 H993 0.940 1_455 S
C1007 C1006 1.502 . S
C1008 H994 0.958 1_456 S
C1008 H995 0.963 1_556 S
C1008 H996 0.959 . S
C1008 C1006 1.561 1_556 S
C1009 C1006 1.525 1_556 S
C1009 C1010 1.396 . S
C1009 C1014 1.390 . S
C1010 C1004 1.465 1_455 S
C1010 C1009 1.396 . S
C1010 C1011 1.399 . S
C1011 H997 0.929 . S
C1011 C1010 1.399 . S
C1011 C1012 1.385 . S
C1012 H998 0.931 . S
C1012 C1011 1.385 . S
C1012 C1013 1.389 . S
C1013 C1012 1.389 . S
C1013 C1014 1.387 . S
C1014 H999 0.930 1_556 S
C1014 C1009 1.390 . S
C1014 C1013 1.387 . S
H1015 C1027 0.930 . S
H1016 C1029 0.930 . S
H1017 C1030 0.930 . S
H1018 C1034 0.959 . S
H1019 C1034 0.959 . S
H1020 C1034 0.961 . S
H1021 C1035 0.960 . S
H1022 C1035 0.961 . S
H1023 C1035 0.959 . S
H1024 C1038 0.929 . S
H1025 C1039 0.931 . S
H1026 C1041 0.930 . S
C1027 H1015 0.930 . S
C1027 C1028 1.399 . S
C1027 C1032 1.399 . S
C1028 C1027 1.399 . S
C1028 C1029 1.376 . S
C1029 H1016 0.930 . S
C1029 C1028 1.376 . S
C1029 C1030 1.388 . S
C1030 H1017 0.930 . S
C1030 C1029 1.388 . S
C1030 C1031 1.390 . S
C1031 C1030 1.390 . S
C1031 C1032 1.394 . S
C1031 C1037 1.465 . S
C1032 C1027 1.399 . S
C1032 C1031 1.394 . S
C1032 C1033 1.516 . S
C1033 C1032 1.516 . S
C1033 C1034 1.502 . S
C1033 C1035 1.561 . S
C1033 C1036 1.526 . S
C1034 H1018 0.959 . S
C1034 H1019 0.959 . S
C1034 H1020 0.961 . S
C1034 C1033 1.502 . S
C1035 H1021 0.960 . S
C1035 H1022 0.961 . S
C1035 H1023 0.959 . S
C1035 C1033 1.561 . S
C1036 C1033 1.526 . S
C1036 C1037 1.396 . S
C1036 C1041 1.390 . S
C1037 C1031 1.465 . S
C1037 C1036 1.396 . S
C1037 C1038 1.399 . S
C1038 H1024 0.929 . S
C1038 C1037 1.399 . S
C1038 C1039 1.385 . S
C1039 H1025 0.931 . S
C1039 C1038 1.385 . S
C1039 C1040 1.389 . S
C1040 C1039 1.389 . S
C1040 C1041 1.387 . S
C1041 H1026 0.930 . S
C1041 C1036 1.390 . S
C1041 C1040 1.387 . S
H1042 C1054 0.930 . S
H1043 C1056 0.930 . S
H1044 C1057 0.930 . S
H1045 C1061 0.959 . S
H1046 C1061 0.959 . S
H1047 C1061 0.961 . S
H1048 C1062 0.960 . S
H1049 C1062 0.961 . S
H1050 C1062 0.959 . S
H1051 C1065 0.929 . S
H1052 C1066 0.931 . S
H1053 C1068 0.930 . S
C1054 H1042 0.930 . S
C1054 C1055 1.399 . S
C1054 C1059 1.399 . S
C1055 C1054 1.399 . S
C1055 C1056 1.376 . S
C1056 H1043 0.930 . S
C1056 C1055 1.376 . S
C1056 C1057 1.388 . S
C1057 H1044 0.930 . S
C1057 C1056 1.388 . S
C1057 C1058 1.390 . S
C1058 C1057 1.390 . S
C1058 C1059 1.394 . S
C1058 C1064 1.465 . S
C1059 C1054 1.399 . S
C1059 C1058 1.394 . S
C1059 C1060 1.516 . S
C1060 C1059 1.516 . S
C1060 C1061 1.502 . S
C1060 C1062 1.561 . S
C1060 C1063 1.526 . S
C1061 H1045 0.959 . S
C1061 H1046 0.959 . S
C1061 H1047 0.961 . S
C1061 C1060 1.502 . S
C1062 H1048 0.960 . S
C1062 H1049 0.961 . S
C1062 H1050 0.959 . S
C1062 C1060 1.561 . S
C1063 C1060 1.526 . S
C1063 C1064 1.396 . S
C1063 C1068 1.390 . S
C1064 C1058 1.465 . S
C1064 C1063 1.396 . S
C1064 C1065 1.399 . S
C1065 H1051 0.929 . S
C1065 C1064 1.399 . S
C1065 C1066 1.385 . S
C1066 H1052 0.931 . S
C1066 C1065 1.385 . S
C1066 C1067 1.389 . S
C1067 C1066 1.389 . S
C1067 C1068 1.387 . S
C1068 H1053 0.930 . S
C1068 C1063 1.390 . S
C1068 C1067 1.387 . S
H1069 C1081 0.930 . S
H1070 C1083 0.930 . S
H1071 C1084 0.930 . S
H1072 C1088 0.959 . S
H1073 C1088 0.959 . S
H1074 C1088 0.961 . S
H1075 C1089 0.960 . S
H1076 C1089 0.961 . S
H1077 C1089 0.959 . S
H1078 C1092 0.929 . S
H1079 C1093 0.931 . S
H1080 C1095 0.930 . S
C1081 H1069 0.930 . S
C1081 C1082 1.399 . S
C1081 C1086 1.399 . S
C1082 C1081 1.399 . S
C1082 C1083 1.376 . S
C1083 H1070 0.930 . S
C1083 C1082 1.376 . S
C1083 C1084 1.388 . S
C1084 H1071 0.930 . S
C1084 C1083 1.388 . S
C1084 C1085 1.390 . S
C1085 C1084 1.390 . S
C1085 C1086 1.394 . S
C1085 C1091 1.465 . S
C1086 C1081 1.399 . S
C1086 C1085 1.394 . S
C1086 C1087 1.516 . S
C1087 C1086 1.516 . S
C1087 C1088 1.502 . S
C1087 C1089 1.561 . S
C1087 C1090 1.526 . S
C1088 H1072 0.959 . S
C1088 H1073 0.959 . S
C1088 H1074 0.961 . S
C1088 C1087 1.502 . S
C1089 H1075 0.960 . S
C1089 H1076 0.961 . S
C1089 H1077 0.959 . S
C1089 C1087 1.561 . S
C1090 C1087 1.526 . S
C1090 C1091 1.396 . S
C1090 C1095 1.390 . S
C1091 C1085 1.465 . S
C1091 C1090 1.396 . S
C1091 C1092 1.399 . S
C1092 H1078 0.929 . S
C1092 C1091 1.399 . S
C1092 C1093 1.385 . S
C1093 H1079 0.931 . S
C1093 C1092 1.385 . S
C1093 C1094 1.389 . S
C1094 C1093 1.389 . S
C1094 C1095 1.387 . S
C1095 H1080 0.930 . S
C1095 C1090 1.390 . S
C1095 C1094 1.387 . S
H1096 C1108 0.930 . S
H1097 C1110 0.930 . S
H1098 C1111 0.930 . S
H1099 C1115 0.959 . S
H1100 C1115 0.959 . S
H1101 C1115 0.961 . S
H1102 C1116 0.960 . S
H1103 C1116 0.961 . S
H1104 C1116 0.959 . S
H1105 C1119 0.929 . S
H1106 C1120 0.931 . S
H1107 C1122 0.930 . S
C1108 H1096 0.930 . S
C1108 C1109 1.399 . S
C1108 C1113 1.399 . S
C1109 C1108 1.399 . S
C1109 C1110 1.376 . S
C1110 H1097 0.930 . S
C1110 C1109 1.376 . S
C1110 C1111 1.388 . S
C1111 H1098 0.930 . S
C1111 C1110 1.388 . S
C1111 C1112 1.390 . S
C1112 C1111 1.390 . S
C1112 C1113 1.394 . S
C1112 C1118 1.465 . S
C1113 C1108 1.399 . S
C1113 C1112 1.394 . S
C1113 C1114 1.516 . S
C1114 C1113 1.516 . S
C1114 C1115 1.502 . S
C1114 C1116 1.561 . S
C1114 C1117 1.526 . S
C1115 H1099 0.959 . S
C1115 H1100 0.959 . S
C1115 H1101 0.961 . S
C1115 C1114 1.502 . S
C1116 H1102 0.960 . S
C1116 H1103 0.961 . S
C1116 H1104 0.959 . S
C1116 C1114 1.561 . S
C1117 C1114 1.526 . S
C1117 C1118 1.396 . S
C1117 C1122 1.390 . S
C1118 C1112 1.465 . S
C1118 C1117 1.396 . S
C1118 C1119 1.399 . S
C1119 H1105 0.929 . S
C1119 C1118 1.399 . S
C1119 C1120 1.385 . S
C1120 H1106 0.931 . S
C1120 C1119 1.385 . S
C1120 C1121 1.389 . S
C1121 C1120 1.389 . S
C1121 C1122 1.387 . S
C1122 H1107 0.930 . S
C1122 C1117 1.390 . S
C1122 C1121 1.387 . S
H1123 C1135 0.930 . S
H1124 C1137 0.930 . S
H1125 C1138 0.930 . S
H1126 C1142 0.959 . S
H1127 C1142 0.959 . S
H1128 C1142 0.961 . S
H1129 C1143 0.960 . S
H1130 C1143 0.961 . S
H1131 C1143 0.959 . S
H1132 C1146 0.929 . S
H1133 C1147 0.931 . S
H1134 C1149 0.930 . S
C1135 H1123 0.930 . S
C1135 C1136 1.399 . S
C1135 C1140 1.399 . S
C1136 C1135 1.399 . S
C1136 C1137 1.376 . S
C1137 H1124 0.930 . S
C1137 C1136 1.376 . S
C1137 C1138 1.388 . S
C1138 H1125 0.930 . S
C1138 C1137 1.388 . S
C1138 C1139 1.390 . S
C1139 C1138 1.390 . S
C1139 C1140 1.394 . S
C1139 C1145 1.465 . S
C1140 C1135 1.399 . S
C1140 C1139 1.394 . S
C1140 C1141 1.516 . S
C1141 C1140 1.516 . S
C1141 C1142 1.502 . S
C1141 C1143 1.561 . S
C1141 C1144 1.526 . S
C1142 H1126 0.959 . S
C1142 H1127 0.959 . S
C1142 H1128 0.961 . S
C1142 C1141 1.502 . S
C1143 H1129 0.960 . S
C1143 H1130 0.961 . S
C1143 H1131 0.959 . S
C1143 C1141 1.561 . S
C1144 C1141 1.526 . S
C1144 C1145 1.396 . S
C1144 C1149 1.390 . S
C1145 C1139 1.465 . S
C1145 C1144 1.396 . S
C1145 C1146 1.399 . S
C1146 H1132 0.929 . S
C1146 C1145 1.399 . S
C1146 C1147 1.385 . S
C1147 H1133 0.931 . S
C1147 C1146 1.385 . S
C1147 C1148 1.389 . S
C1148 C1147 1.389 . S
C1148 C1149 1.387 . S
C1149 H1134 0.930 . S
C1149 C1144 1.390 . S
C1149 C1148 1.387 . S
H1150 C1162 0.930 . S
H1151 C1164 0.930 . S
H1152 C1165 0.930 . S
H1153 C1169 0.959 . S
H1154 C1169 0.959 . S
H1155 C1169 0.961 . S
H1156 C1170 0.960 . S
H1157 C1170 0.961 . S
H1158 C1170 0.959 . S
H1159 C1173 0.929 . S
H1160 C1174 0.931 . S
H1161 C1176 0.930 . S
C1162 H1150 0.930 . S
C1162 C1163 1.399 . S
C1162 C1167 1.399 . S
C1163 C1162 1.399 . S
C1163 C1164 1.376 . S
C1164 H1151 0.930 . S
C1164 C1163 1.376 . S
C1164 C1165 1.388 . S
C1165 H1152 0.930 . S
C1165 C1164 1.388 . S
C1165 C1166 1.390 . S
C1166 C1165 1.390 . S
C1166 C1167 1.394 . S
C1166 C1172 1.465 . S
C1167 C1162 1.399 . S
C1167 C1166 1.394 . S
C1167 C1168 1.516 . S
C1168 C1167 1.516 . S
C1168 C1169 1.502 . S
C1168 C1170 1.561 . S
C1168 C1171 1.526 . S
C1169 H1153 0.959 . S
C1169 H1154 0.959 . S
C1169 H1155 0.961 . S
C1169 C1168 1.502 . S
C1170 H1156 0.960 . S
C1170 H1157 0.961 . S
C1170 H1158 0.959 . S
C1170 C1168 1.561 . S
C1171 C1168 1.526 . S
C1171 C1172 1.396 . S
C1171 C1176 1.390 . S
C1172 C1166 1.465 . S
C1172 C1171 1.396 . S
C1172 C1173 1.399 . S
C1173 H1159 0.929 . S
C1173 C1172 1.399 . S
C1173 C1174 1.385 . S
C1174 H1160 0.931 . S
C1174 C1173 1.385 . S
C1174 C1175 1.389 . S
C1175 C1174 1.389 . S
C1175 C1176 1.387 . S
C1176 H1161 0.930 . S
C1176 C1171 1.390 . S
C1176 C1175 1.387 . S
H1177 C1189 0.930 . S
H1178 C1191 0.930 . S
H1179 C1192 0.930 . S
H1180 C1196 0.959 . S
H1181 C1196 0.959 . S
H1182 C1196 0.961 . S
H1183 C1197 0.960 . S
H1184 C1197 0.961 . S
H1185 C1197 0.959 . S
H1186 C1200 0.929 . S
H1187 C1201 0.931 . S
H1188 C1203 0.930 . S
C1189 H1177 0.930 . S
C1189 C1190 1.399 . S
C1189 C1194 1.399 . S
C1190 C1189 1.399 . S
C1190 C1191 1.376 . S
C1191 H1178 0.930 . S
C1191 C1190 1.376 . S
C1191 C1192 1.388 . S
C1192 H1179 0.930 . S
C1192 C1191 1.388 . S
C1192 C1193 1.390 . S
C1193 C1192 1.390 . S
C1193 C1194 1.394 . S
C1193 C1199 1.465 . S
C1194 C1189 1.399 . S
C1194 C1193 1.394 . S
C1194 C1195 1.516 . S
C1195 C1194 1.516 . S
C1195 C1196 1.502 . S
C1195 C1197 1.561 . S
C1195 C1198 1.526 . S
C1196 H1180 0.959 . S
C1196 H1181 0.959 . S
C1196 H1182 0.961 . S
C1196 C1195 1.502 . S
C1197 H1183 0.960 . S
C1197 H1184 0.961 . S
C1197 H1185 0.959 . S
C1197 C1195 1.561 . S
C1198 C1195 1.526 . S
C1198 C1199 1.396 . S
C1198 C1203 1.390 . S
C1199 C1193 1.465 . S
C1199 C1198 1.396 . S
C1199 C1200 1.399 . S
C1200 H1186 0.929 . S
C1200 C1199 1.399 . S
C1200 C1201 1.385 . S
C1201 H1187 0.931 . S
C1201 C1200 1.385 . S
C1201 C1202 1.389 . S
C1202 C1201 1.389 . S
C1202 C1203 1.387 . S
C1203 H1188 0.930 . S
C1203 C1198 1.390 . S
C1203 C1202 1.387 . S
H1204 C1216 0.930 . S
H1205 C1218 0.930 . S
H1206 C1219 0.930 . S
H1207 C1223 0.959 . S
H1208 C1223 0.959 . S
H1209 C1223 0.961 . S
H1210 C1224 0.960 . S
H1211 C1224 0.961 . S
H1212 C1224 0.959 . S
H1213 C1227 0.929 . S
H1214 C1228 0.931 . S
H1215 C1230 0.930 . S
C1216 H1204 0.930 . S
C1216 C1217 1.399 . S
C1216 C1221 1.399 . S
C1217 C1216 1.399 . S
C1217 C1218 1.376 . S
C1218 H1205 0.930 . S
C1218 C1217 1.376 . S
C1218 C1219 1.388 . S
C1219 H1206 0.930 . S
C1219 C1218 1.388 . S
C1219 C1220 1.390 . S
C1220 C1219 1.390 . S
C1220 C1221 1.394 . S
C1220 C1226 1.465 . S
C1221 C1216 1.399 . S
C1221 C1220 1.394 . S
C1221 C1222 1.516 . S
C1222 C1221 1.516 . S
C1222 C1223 1.502 . S
C1222 C1224 1.561 . S
C1222 C1225 1.526 . S
C1223 H1207 0.959 . S
C1223 H1208 0.959 . S
C1223 H1209 0.961 . S
C1223 C1222 1.502 . S
C1224 H1210 0.960 . S
C1224 H1211 0.961 . S
C1224 H1212 0.959 . S
C1224 C1222 1.561 . S
C1225 C1222 1.526 . S
C1225 C1226 1.396 . S
C1225 C1230 1.390 . S
C1226 C1220 1.465 . S
C1226 C1225 1.396 . S
C1226 C1227 1.399 . S
C1227 H1213 0.929 . S
C1227 C1226 1.399 . S
C1227 C1228 1.385 . S
C1228 H1214 0.931 . S
C1228 C1227 1.385 . S
C1228 C1229 1.389 . S
C1229 C1228 1.389 . S
C1229 C1230 1.387 . S
C1230 H1215 0.930 . S
C1230 C1225 1.390 . S
C1230 C1229 1.387 . S
H1231 C1243 0.890 1_556 S
H1232 C1245 0.930 . S
H1233 C1246 0.930 . S
H1234 C1250 0.962 . S
H1235 C1250 0.979 . S
H1236 C1250 0.940 1_655 S
H1237 C1251 0.958 1_655 S
H1238 C1251 0.963 . S
H1239 C1251 0.959 . S
H1240 C1254 0.929 . S
H1241 C1255 0.931 . S
H1242 C1257 0.872 1_556 S
C1243 H1231 0.890 1_554 S
C1243 C1244 1.431 . S
C1243 C1248 1.408 . S
C1244 C1243 1.431 . S
C1244 C1245 1.376 . S
C1245 H1232 0.930 . S
C1245 C1244 1.376 . S
C1245 C1246 1.388 . S
C1246 H1233 0.930 . S
C1246 C1245 1.388 . S
C1246 C1247 1.390 . S
C1247 C1246 1.390 . S
C1247 C1248 1.394 . S
C1247 C1253 1.465 1_655 S
C1248 C1243 1.408 . S
C1248 C1247 1.394 . S
C1248 C1249 1.517 1_654 S
C1249 C1248 1.517 1_456 S
C1249 C1250 1.502 . S
C1249 C1251 1.561 . S
C1249 C1252 1.525 1_556 S
C1250 H1234 0.962 . S
C1250 H1235 0.979 . S
C1250 H1236 0.940 1_455 S
C1250 C1249 1.502 . S
C1251 H1237 0.958 1_455 S
C1251 H1238 0.963 . S
C1251 H1239 0.959 . S
C1251 C1249 1.561 . S
C1252 C1249 1.525 1_554 S
C1252 C1253 1.396 . S
C1252 C1257 1.403 . S
C1253 C1247 1.465 1_455 S
C1253 C1252 1.396 . S
C1253 C1254 1.399 . S
C1254 H1240 0.929 . S
C1254 C1253 1.399 . S
C1254 C1255 1.385 . S
C1255 H1241 0.931 . S
C1255 C1254 1.385 . S
C1255 C1256 1.389 . S
C1256 C1255 1.389 . S
C1256 C1257 1.434 . S
C1257 H1242 0.872 1_554 S
C1257 C1252 1.403 . S
C1257 C1256 1.434 . S
H1258 C1270 0.930 . S
H1259 C1272 0.930 . S
H1260 C1273 0.930 . S
H1261 C1277 0.959 . S
H1262 C1277 0.959 . S
H1263 C1277 0.961 . S
H1264 C1278 0.960 . S
H1265 C1278 0.961 . S
H1266 C1278 0.959 . S
H1267 C1281 0.929 . S
H1268 C1282 0.931 . S
H1269 C1284 0.930 . S
C1270 H1258 0.930 . S
C1270 C1271 1.399 . S
C1270 C1275 1.399 . S
C1271 C1270 1.399 . S
C1271 C1272 1.376 . S
C1272 H1259 0.930 . S
C1272 C1271 1.376 . S
C1272 C1273 1.388 . S
C1273 H1260 0.930 . S
C1273 C1272 1.388 . S
C1273 C1274 1.390 . S
C1274 C1273 1.390 . S
C1274 C1275 1.394 . S
C1274 C1280 1.465 . S
C1275 C1270 1.399 . S
C1275 C1274 1.394 . S
C1275 C1276 1.516 . S
C1276 C1275 1.516 . S
C1276 C1277 1.502 . S
C1276 C1278 1.561 . S
C1276 C1279 1.526 . S
C1277 H1261 0.959 . S
C1277 H1262 0.959 . S
C1277 H1263 0.961 . S
C1277 C1276 1.502 . S
C1278 H1264 0.960 . S
C1278 H1265 0.961 . S
C1278 H1266 0.959 . S
C1278 C1276 1.561 . S
C1279 C1276 1.526 . S
C1279 C1280 1.396 . S
C1279 C1284 1.390 . S
C1280 C1274 1.465 . S
C1280 C1279 1.396 . S
C1280 C1281 1.399 . S
C1281 H1267 0.929 . S
C1281 C1280 1.399 . S
C1281 C1282 1.385 . S
C1282 H1268 0.931 . S
C1282 C1281 1.385 . S
C1282 C1283 1.389 . S
C1283 C1282 1.389 . S
C1283 C1284 1.387 . S
C1284 H1269 0.930 . S
C1284 C1279 1.390 . S
C1284 C1283 1.387 . S
H1285 C1297 0.930 1_554 S
H1286 C1299 0.930 . S
H1287 C1300 0.930 . S
H1288 C1304 0.962 . S
H1289 C1304 0.979 . S
H1290 C1304 0.940 1_455 S
H1291 C1305 0.958 1_455 S
H1292 C1305 0.963 . S
H1293 C1305 0.959 . S
H1294 C1308 0.929 . S
H1295 C1309 0.931 . S
H1296 C1311 0.930 1_554 S
C1297 H1285 0.930 1_556 S
C1297 C1298 1.399 . S
C1297 C1302 1.399 . S
C1298 C1297 1.399 . S
C1298 C1299 1.376 . S
C1299 H1286 0.930 . S
C1299 C1298 1.376 . S
C1299 C1300 1.388 . S
C1300 H1287 0.930 . S
C1300 C1299 1.388 . S
C1300 C1301 1.390 . S
C1301 C1300 1.390 . S
C1301 C1302 1.394 . S
C1301 C1307 1.465 1_455 S
C1302 C1297 1.399 . S
C1302 C1301 1.394 . S
C1302 C1303 1.517 1_455 S
C1303 C1302 1.517 1_655 S
C1303 C1304 1.502 1_556 S
C1303 C1305 1.561 . S
C1303 C1306 1.525 . S
C1304 H1288 0.962 . S
C1304 H1289 0.979 . S
C1304 H1290 0.940 1_655 S
C1304 C1303 1.502 1_554 S
C1305 H1291 0.958 1_655 S
C1305 H1292 0.963 . S
C1305 H1293 0.959 . S
C1305 C1303 1.561 . S
C1306 C1303 1.525 . S
C1306 C1307 1.396 . S
C1306 C1311 1.390 . S
C1307 C1301 1.465 1_655 S
C1307 C1306 1.396 . S
C1307 C1308 1.399 . S
C1308 H1294 0.929 . S
C1308 C1307 1.399 . S
C1308 C1309 1.385 . S
C1309 H1295 0.931 . S
C1309 C1308 1.385 . S
C1309 C1310 1.389 . S
C1310 C1309 1.389 . S
C1310 C1311 1.387 . S
C1311 H1296 0.930 1_556 S
C1311 C1306 1.390 . S
C1311 C1310 1.387 . S
H1312 C1324 0.930 . S
H1313 C1326 0.930 . S
H1314 C1327 0.930 . S
H1315 C1331 0.959 . S
H1316 C1331 0.959 . S
H1317 C1331 0.961 . S
H1318 C1332 0.960 . S
H1319 C1332 0.961 . S
H1320 C1332 0.959 . S
H1321 C1335 0.929 . S
H1322 C1336 0.931 . S
H1323 C1338 0.930 . S
C1324 H1312 0.930 . S
C1324 C1325 1.399 1_554 S
C1324 C1329 1.399 . S
C1325 C1324 1.399 1_556 S
C1325 C1326 1.376 . S
C1326 H1313 0.930 . S
C1326 C1325 1.376 . S
C1326 C1327 1.388 . S
C1327 H1314 0.930 . S
C1327 C1326 1.388 . S
C1327 C1328 1.390 . S
C1328 C1327 1.390 . S
C1328 C1329 1.394 1_556 S
C1328 C1334 1.465 . S
C1329 C1324 1.399 . S
C1329 C1328 1.394 1_554 S
C1329 C1330 1.516 . S
C1330 C1329 1.516 . S
C1330 C1331 1.502 . S
C1330 C1332 1.561 . S
C1330 C1333 1.526 . S
C1331 H1315 0.959 . S
C1331 H1316 0.959 . S
C1331 H1317 0.961 . S
C1331 C1330 1.502 . S
C1332 H1318 0.960 . S
C1332 H1319 0.961 . S
C1332 H1320 0.959 . S
C1332 C1330 1.561 . S
C1333 C1330 1.526 . S
C1333 C1334 1.396 1_554 S
C1333 C1338 1.390 . S
C1334 C1328 1.465 . S
C1334 C1333 1.396 1_556 S
C1334 C1335 1.399 . S
C1335 H1321 0.929 . S
C1335 C1334 1.399 . S
C1335 C1336 1.385 . S
C1336 H1322 0.931 . S
C1336 C1335 1.385 . S
C1336 C1337 1.389 1_556 S
C1337 C1336 1.389 1_554 S
C1337 C1338 1.387 . S
C1338 H1323 0.930 . S
C1338 C1333 1.390 . S
C1338 C1337 1.387 . S
H1339 C1351 0.930 . S
H1340 C1353 0.930 . S
H1341 C1354 0.930 . S
H1342 C1358 0.959 . S
H1343 C1358 0.959 . S
H1344 C1358 0.961 . S
H1345 C1359 0.960 . S
H1346 C1359 0.961 . S
H1347 C1359 0.959 . S
H1348 C1362 0.929 . S
H1349 C1363 0.931 . S
H1350 C1365 0.930 . S
C1351 H1339 0.930 . S
C1351 C1352 1.399 . S
C1351 C1356 1.399 . S
C1352 C1351 1.399 . S
C1352 C1353 1.376 . S
C1353 H1340 0.930 . S
C1353 C1352 1.376 . S
C1353 C1354 1.388 . S
C1354 H1341 0.930 . S
C1354 C1353 1.388 . S
C1354 C1355 1.390 . S
C1355 C1354 1.390 . S
C1355 C1356 1.394 . S
C1355 C1361 1.465 . S
C1356 C1351 1.399 . S
C1356 C1355 1.394 . S
C1356 C1357 1.516 . S
C1357 C1356 1.516 . S
C1357 C1358 1.502 . S
C1357 C1359 1.561 . S
C1357 C1360 1.526 . S
C1358 H1342 0.959 . S
C1358 H1343 0.959 . S
C1358 H1344 0.961 . S
C1358 C1357 1.502 . S
C1359 H1345 0.960 . S
C1359 H1346 0.961 . S
C1359 H1347 0.959 . S
C1359 C1357 1.561 . S
C1360 C1357 1.526 . S
C1360 C1361 1.396 . S
C1360 C1365 1.390 . S
C1361 C1355 1.465 . S
C1361 C1360 1.396 . S
C1361 C1362 1.399 . S
C1362 H1348 0.929 . S
C1362 C1361 1.399 . S
C1362 C1363 1.385 . S
C1363 H1349 0.931 . S
C1363 C1362 1.385 . S
C1363 C1364 1.389 . S
C1364 C1363 1.389 . S
C1364 C1365 1.387 . S
C1365 H1350 0.930 . S
C1365 C1360 1.390 . S
C1365 C1364 1.387 . S
H1366 C1378 0.930 . S
H1367 C1380 0.930 . S
H1368 C1381 0.930 . S
H1369 C1385 0.959 . S
H1370 C1385 0.959 . S
H1371 C1385 0.961 . S
H1372 C1386 0.960 . S
H1373 C1386 0.961 . S
H1374 C1386 0.959 . S
H1375 C1389 0.929 . S
H1376 C1390 0.931 . S
H1377 C1392 0.930 . S
C1378 H1366 0.930 . S
C1378 C1379 1.399 . S
C1378 C1383 1.399 . S
C1379 C1378 1.399 . S
C1379 C1380 1.376 . S
C1380 H1367 0.930 . S
C1380 C1379 1.376 . S
C1380 C1381 1.388 . S
C1381 H1368 0.930 . S
C1381 C1380 1.388 . S
C1381 C1382 1.390 . S
C1382 C1381 1.390 . S
C1382 C1383 1.394 . S
C1382 C1388 1.465 . S
C1383 C1378 1.399 . S
C1383 C1382 1.394 . S
C1383 C1384 1.516 . S
C1384 C1383 1.516 . S
C1384 C1385 1.502 . S
C1384 C1386 1.561 . S
C1384 C1387 1.526 . S
C1385 H1369 0.959 . S
C1385 H1370 0.959 . S
C1385 H1371 0.961 . S
C1385 C1384 1.502 . S
C1386 H1372 0.960 . S
C1386 H1373 0.961 . S
C1386 H1374 0.959 . S
C1386 C1384 1.561 . S
C1387 C1384 1.526 . S
C1387 C1388 1.396 . S
C1387 C1392 1.390 . S
C1388 C1382 1.465 . S
C1388 C1387 1.396 . S
C1388 C1389 1.399 . S
C1389 H1375 0.929 . S
C1389 C1388 1.399 . S
C1389 C1390 1.385 . S
C1390 H1376 0.931 . S
C1390 C1389 1.385 . S
C1390 C1391 1.389 . S
C1391 C1390 1.389 . S
C1391 C1392 1.387 . S
C1392 H1377 0.930 . S
C1392 C1387 1.390 . S
C1392 C1391 1.387 . S
H1393 C1405 0.930 . S
H1394 C1407 0.930 . S
H1395 C1408 0.930 . S
H1396 C1412 0.959 . S
H1397 C1412 0.959 . S
H1398 C1412 0.961 . S
H1399 C1413 0.960 . S
H1400 C1413 0.961 . S
H1401 C1413 0.959 . S
H1402 C1416 0.929 . S
H1403 C1417 0.931 . S
H1404 C1419 0.930 . S
C1405 H1393 0.930 . S
C1405 C1406 1.399 . S
C1405 C1410 1.399 . S
C1406 C1405 1.399 . S
C1406 C1407 1.376 . S
C1407 H1394 0.930 . S
C1407 C1406 1.376 . S
C1407 C1408 1.388 . S
C1408 H1395 0.930 . S
C1408 C1407 1.388 . S
C1408 C1409 1.390 . S
C1409 C1408 1.390 . S
C1409 C1410 1.394 . S
C1409 C1415 1.465 . S
C1410 C1405 1.399 . S
C1410 C1409 1.394 . S
C1410 C1411 1.516 . S
C1411 C1410 1.516 . S
C1411 C1412 1.502 . S
C1411 C1413 1.561 . S
C1411 C1414 1.526 . S
C1412 H1396 0.959 . S
C1412 H1397 0.959 . S
C1412 H1398 0.961 . S
C1412 C1411 1.502 . S
C1413 H1399 0.960 . S
C1413 H1400 0.961 . S
C1413 H1401 0.959 . S
C1413 C1411 1.561 . S
C1414 C1411 1.526 . S
C1414 C1415 1.396 . S
C1414 C1419 1.390 . S
C1415 C1409 1.465 . S
C1415 C1414 1.396 . S
C1415 C1416 1.399 . S
C1416 H1402 0.929 . S
C1416 C1415 1.399 . S
C1416 C1417 1.385 . S
C1417 H1403 0.931 . S
C1417 C1416 1.385 . S
C1417 C1418 1.389 . S
C1418 C1417 1.389 . S
C1418 C1419 1.387 . S
C1419 H1404 0.930 . S
C1419 C1414 1.390 . S
C1419 C1418 1.387 . S
H1420 C1432 0.930 . S
H1421 C1434 0.930 . S
H1422 C1435 0.930 . S
H1423 C1439 0.959 . S
H1424 C1439 0.959 . S
H1425 C1439 0.961 . S
H1426 C1440 0.960 . S
H1427 C1440 0.961 . S
H1428 C1440 0.959 . S
H1429 C1443 0.929 . S
H1430 C1444 0.931 . S
H1431 C1446 0.930 . S
C1432 H1420 0.930 . S
C1432 C1433 1.399 . S
C1432 C1437 1.399 . S
C1433 C1432 1.399 . S
C1433 C1434 1.376 1_554 S
C1434 H1421 0.930 . S
C1434 C1433 1.376 1_556 S
C1434 C1435 1.388 . S
C1435 H1422 0.930 . S
C1435 C1434 1.388 . S
C1435 C1436 1.390 . S
C1436 C1435 1.390 . S
C1436 C1437 1.394 1_556 S
C1436 C1442 1.465 . S
C1437 C1432 1.399 . S
C1437 C1436 1.394 1_554 S
C1437 C1438 1.516 . S
C1438 C1437 1.516 . S
C1438 C1439 1.502 . S
C1438 C1440 1.561 . S
C1438 C1441 1.526 . S
C1439 H1423 0.959 . S
C1439 H1424 0.959 . S
C1439 H1425 0.961 . S
C1439 C1438 1.502 . S
C1440 H1426 0.960 . S
C1440 H1427 0.961 . S
C1440 H1428 0.959 . S
C1440 C1438 1.561 . S
C1441 C1438 1.526 . S
C1441 C1442 1.396 1_554 S
C1441 C1446 1.390 . S
C1442 C1436 1.465 . S
C1442 C1441 1.396 1_556 S
C1442 C1443 1.399 . S
C1443 H1429 0.929 . S
C1443 C1442 1.399 . S
C1443 C1444 1.385 . S
C1444 H1430 0.931 . S
C1444 C1443 1.385 . S
C1444 C1445 1.389 . S
C1445 C1444 1.389 . S
C1445 C1446 1.387 1_556 S
C1446 H1431 0.930 . S
C1446 C1441 1.390 . S
C1446 C1445 1.387 1_554 S
H1447 C1459 0.930 . S
H1448 C1461 0.930 . S
H1449 C1462 0.930 . S
H1450 C1466 0.959 . S
H1451 C1466 0.959 . S
H1452 C1466 0.961 . S
H1453 C1467 0.960 . S
H1454 C1467 0.961 . S
H1455 C1467 0.959 . S
H1456 C1470 0.929 . S
H1457 C1471 0.931 . S
H1458 C1473 0.930 . S
C1459 H1447 0.930 . S
C1459 C1460 1.399 . S
C1459 C1464 1.399 . S
C1460 C1459 1.399 . S
C1460 C1461 1.376 . S
C1461 H1448 0.930 . S
C1461 C1460 1.376 . S
C1461 C1462 1.388 . S
C1462 H1449 0.930 . S
C1462 C1461 1.388 . S
C1462 C1463 1.390 . S
C1463 C1462 1.390 . S
C1463 C1464 1.394 . S
C1463 C1469 1.465 . S
C1464 C1459 1.399 . S
C1464 C1463 1.394 . S
C1464 C1465 1.516 . S
C1465 C1464 1.516 . S
C1465 C1466 1.502 . S
C1465 C1467 1.561 . S
C1465 C1468 1.526 . S
C1466 H1450 0.959 . S
C1466 H1451 0.959 . S
C1466 H1452 0.961 . S
C1466 C1465 1.502 . S
C1467 H1453 0.960 . S
C1467 H1454 0.961 . S
C1467 H1455 0.959 . S
C1467 C1465 1.561 . S
C1468 C1465 1.526 . S
C1468 C1469 1.396 . S
C1468 C1473 1.390 . S
C1469 C1463 1.465 . S
C1469 C1468 1.396 . S
C1469 C1470 1.399 . S
C1470 H1456 0.929 . S
C1470 C1469 1.399 . S
C1470 C1471 1.385 . S
C1471 H1457 0.931 . S
C1471 C1470 1.385 . S
C1471 C1472 1.389 . S
C1472 C1471 1.389 . S
C1472 C1473 1.387 . S
C1473 H1458 0.930 . S
C1473 C1468 1.390 . S
C1473 C1472 1.387 . S
H1474 C1486 0.930 . S
H1475 C1488 0.930 . S
H1476 C1489 0.930 . S
H1477 C1493 0.959 . S
H1478 C1493 0.959 . S
H1479 C1493 0.961 . S
H1480 C1494 0.960 . S
H1481 C1494 0.961 . S
H1482 C1494 0.959 . S
H1483 C1497 0.929 . S
H1484 C1498 0.931 . S
H1485 C1500 0.930 . S
C1486 H1474 0.930 . S
C1486 C1487 1.399 . S
C1486 C1491 1.399 . S
C1487 C1486 1.399 . S
C1487 C1488 1.376 . S
C1488 H1475 0.930 . S
C1488 C1487 1.376 . S
C1488 C1489 1.388 . S
C1489 H1476 0.930 . S
C1489 C1488 1.388 . S
C1489 C1490 1.390 . S
C1490 C1489 1.390 . S
C1490 C1491 1.394 . S
C1490 C1496 1.465 . S
C1491 C1486 1.399 . S
C1491 C1490 1.394 . S
C1491 C1492 1.516 . S
C1492 C1491 1.516 . S
C1492 C1493 1.502 . S
C1492 C1494 1.561 . S
C1492 C1495 1.526 . S
C1493 H1477 0.959 . S
C1493 H1478 0.959 . S
C1493 H1479 0.961 . S
C1493 C1492 1.502 . S
C1494 H1480 0.960 . S
C1494 H1481 0.961 . S
C1494 H1482 0.959 . S
C1494 C1492 1.561 . S
C1495 C1492 1.526 . S
C1495 C1496 1.396 . S
C1495 C1500 1.390 . S
C1496 C1490 1.465 . S
C1496 C1495 1.396 . S
C1496 C1497 1.399 . S
C1497 H1483 0.929 . S
C1497 C1496 1.399 . S
C1497 C1498 1.385 . S
C1498 H1484 0.931 . S
C1498 C1497 1.385 . S
C1498 C1499 1.389 . S
C1499 C1498 1.389 . S
C1499 C1500 1.387 . S
C1500 H1485 0.930 . S
C1500 C1495 1.390 . S
C1500 C1499 1.387 . S
H1501 C1513 0.930 . S
H1502 C1515 0.930 . S
H1503 C1516 0.930 . S
H1504 C1520 0.959 . S
H1505 C1520 0.959 . S
H1506 C1520 0.961 . S
H1507 C1521 0.960 . S
H1508 C1521 0.961 . S
H1509 C1521 0.959 . S
H1510 C1524 0.929 . S
H1511 C1525 0.931 . S
H1512 C1527 0.930 . S
C1513 H1501 0.930 . S
C1513 C1514 1.399 . S
C1513 C1518 1.399 . S
C1514 C1513 1.399 . S
C1514 C1515 1.376 . S
C1515 H1502 0.930 . S
C1515 C1514 1.376 . S
C1515 C1516 1.388 . S
C1516 H1503 0.930 . S
C1516 C1515 1.388 . S
C1516 C1517 1.390 . S
C1517 C1516 1.390 . S
C1517 C1518 1.394 . S
C1517 C1523 1.465 . S
C1518 C1513 1.399 . S
C1518 C1517 1.394 . S
C1518 C1519 1.516 . S
C1519 C1518 1.516 . S
C1519 C1520 1.502 . S
C1519 C1521 1.561 . S
C1519 C1522 1.526 . S
C1520 H1504 0.959 . S
C1520 H1505 0.959 . S
C1520 H1506 0.961 . S
C1520 C1519 1.502 . S
C1521 H1507 0.960 . S
C1521 H1508 0.961 . S
C1521 H1509 0.959 . S
C1521 C1519 1.561 . S
C1522 C1519 1.526 . S
C1522 C1523 1.396 . S
C1522 C1527 1.390 . S
C1523 C1517 1.465 . S
C1523 C1522 1.396 . S
C1523 C1524 1.399 . S
C1524 H1510 0.929 . S
C1524 C1523 1.399 . S
C1524 C1525 1.385 . S
C1525 H1511 0.931 . S
C1525 C1524 1.385 . S
C1525 C1526 1.389 . S
C1526 C1525 1.389 . S
C1526 C1527 1.387 . S
C1527 H1512 0.930 . S
C1527 C1522 1.390 . S
C1527 C1526 1.387 . S
H1528 C1540 0.930 . S
H1529 C1542 0.930 . S
H1530 C1543 0.930 . S
H1531 C1547 0.959 . S
H1532 C1547 0.959 . S
H1533 C1547 0.961 1_545 S
H1534 C1548 0.960 1_545 S
H1535 C1548 0.961 . S
H1536 C1548 0.959 . S
H1537 C1551 0.929 . S
H1538 C1552 0.931 . S
H1539 C1554 0.930 . S
C1540 H1528 0.930 . S
C1540 C1541 1.399 . S
C1540 C1545 1.399 . S
C1541 C1540 1.399 . S
C1541 C1542 1.376 . S
C1542 H1529 0.930 . S
C1542 C1541 1.376 . S
C1542 C1543 1.388 . S
C1543 H1530 0.930 . S
C1543 C1542 1.388 . S
C1543 C1544 1.390 . S
C1544 C1543 1.390 . S
C1544 C1545 1.394 . S
C1544 C1550 1.465 1_545 S
C1545 C1540 1.399 . S
C1545 C1544 1.394 . S
C1545 C1546 1.516 1_545 S
C1546 C1545 1.516 1_565 S
C1546 C1547 1.502 . S
C1546 C1548 1.561 . S
C1546 C1549 1.526 . S
C1547 H1531 0.959 . S
C1547 H1532 0.959 . S
C1547 H1533 0.961 1_565 S
C1547 C1546 1.502 . S
C1548 H1534 0.960 1_565 S
C1548 H1535 0.961 . S
C1548 H1536 0.959 . S
C1548 C1546 1.561 . S
C1549 C1546 1.526 . S
C1549 C1550 1.396 . S
C1549 C1554 1.390 . S
C1550 C1544 1.465 1_565 S
C1550 C1549 1.396 . S
C1550 C1551 1.399 . S
C1551 H1537 0.929 . S
C1551 C1550 1.399 . S
C1551 C1552 1.385 . S
C1552 H1538 0.931 . S
C1552 C1551 1.385 . S
C1552 C1553 1.389 . S
C1553 C1552 1.389 . S
C1553 C1554 1.387 . S
C1554 H1539 0.930 . S
C1554 C1549 1.390 . S
C1554 C1553 1.387 . S
H1555 C1567 0.930 . S
H1556 C1569 0.930 . S
H1557 C1570 0.930 . S
H1558 C1574 0.959 . S
H1559 C1574 0.959 . S
H1560 C1574 0.961 . S
H1561 C1575 0.960 . S
H1562 C1575 0.961 . S
H1563 C1575 0.959 . S
H1564 C1578 0.929 . S
H1565 C1579 0.931 . S
H1566 C1581 0.930 . S
C1567 H1555 0.930 . S
C1567 C1568 1.399 . S
C1567 C1572 1.399 . S
C1568 C1567 1.399 . S
C1568 C1569 1.376 . S
C1569 H1556 0.930 . S
C1569 C1568 1.376 . S
C1569 C1570 1.388 . S
C1570 H1557 0.930 . S
C1570 C1569 1.388 . S
C1570 C1571 1.390 . S
C1571 C1570 1.390 . S
C1571 C1572 1.394 . S
C1571 C1577 1.465 . S
C1572 C1567 1.399 . S
C1572 C1571 1.394 . S
C1572 C1573 1.516 . S
C1573 C1572 1.516 . S
C1573 C1574 1.502 . S
C1573 C1575 1.561 . S
C1573 C1576 1.526 . S
C1574 H1558 0.959 . S
C1574 H1559 0.959 . S
C1574 H1560 0.961 . S
C1574 C1573 1.502 . S
C1575 H1561 0.960 . S
C1575 H1562 0.961 . S
C1575 H1563 0.959 . S
C1575 C1573 1.561 . S
C1576 C1573 1.526 . S
C1576 C1577 1.396 . S
C1576 C1581 1.390 . S
C1577 C1571 1.465 . S
C1577 C1576 1.396 . S
C1577 C1578 1.399 . S
C1578 H1564 0.929 . S
C1578 C1577 1.399 . S
C1578 C1579 1.385 . S
C1579 H1565 0.931 . S
C1579 C1578 1.385 . S
C1579 C1580 1.389 . S
C1580 C1579 1.389 . S
C1580 C1581 1.387 . S
C1581 H1566 0.930 . S
C1581 C1576 1.390 . S
C1581 C1580 1.387 . S
H1582 C1594 0.930 . S
H1583 C1596 0.930 . S
H1584 C1597 0.930 . S
H1585 C1601 0.969 . S
H1586 C1601 0.959 1_545 S
H1587 C1601 0.961 . S
H1588 C1602 0.960 . S
H1589 C1602 0.961 1_545 S
H1590 C1602 0.959 . S
H1591 C1605 0.929 . S
H1592 C1606 0.931 . S
H1593 C1608 0.930 . S
C1594 H1582 0.930 . S
C1594 C1595 1.399 1_556 S
C1594 C1599 1.399 . S
C1595 C1594 1.399 1_554 S
C1595 C1596 1.376 . S
C1596 H1583 0.930 . S
C1596 C1595 1.376 . S
C1596 C1597 1.388 . S
C1597 H1584 0.930 . S
C1597 C1596 1.388 . S
C1597 C1598 1.390 . S
C1598 C1597 1.390 . S
C1598 C1599 1.394 1_554 S
C1598 C1604 1.465 1_565 S
C1599 C1594 1.399 . S
C1599 C1598 1.394 1_556 S
C1599 C1600 1.516 . S
C1600 C1599 1.516 . S
C1600 C1601 1.502 . S
C1600 C1602 1.561 . S
C1600 C1603 1.526 1_565 S
C1601 H1585 0.969 . S
C1601 H1586 0.959 1_565 S
C1601 H1587 0.961 . S
C1601 C1600 1.502 . S
C1602 H1588 0.960 . S
C1602 H1589 0.961 1_565 S
C1602 H1590 0.959 . S
C1602 C1600 1.561 . S
C1603 C1600 1.526 1_545 S
C1603 C1604 1.396 1_556 S
C1603 C1608 1.390 . S
C1604 C1598 1.465 1_545 S
C1604 C1603 1.396 1_554 S
C1604 C1605 1.399 . S
C1605 H1591 0.929 . S
C1605 C1604 1.399 . S
C1605 C1606 1.385 . S
C1606 H1592 0.931 . S
C1606 C1605 1.385 . S
C1606 C1607 1.389 1_554 S
C1607 C1606 1.389 1_556 S
C1607 C1608 1.387 . S
C1608 H1593 0.930 . S
C1608 C1603 1.390 . S
C1608 C1607 1.387 . S
H1609 C1621 0.930 . S
H1610 C1623 0.930 . S
H1611 C1624 0.930 . S
H1612 C1628 0.959 . S
H1613 C1628 0.959 . S
H1614 C1628 0.961 . S
H1615 C1629 0.960 . S
H1616 C1629 0.961 . S
H1617 C1629 0.959 . S
H1618 C1632 0.929 . S
H1619 C1633 0.931 . S
H1620 C1635 0.930 . S
C1621 H1609 0.930 . S
C1621 C1622 1.399 . S
C1621 C1626 1.399 . S
C1622 C1621 1.399 . S
C1622 C1623 1.376 . S
C1623 H1610 0.930 . S
C1623 C1622 1.376 . S
C1623 C1624 1.388 . S
C1624 H1611 0.930 . S
C1624 C1623 1.388 . S
C1624 C1625 1.390 . S
C1625 C1624 1.390 . S
C1625 C1626 1.394 . S
C1625 C1631 1.465 . S
C1626 C1621 1.399 . S
C1626 C1625 1.394 . S
C1626 C1627 1.516 . S
C1627 C1626 1.516 . S
C1627 C1628 1.502 . S
C1627 C1629 1.561 . S
C1627 C1630 1.526 . S
C1628 H1612 0.959 . S
C1628 H1613 0.959 . S
C1628 H1614 0.961 . S
C1628 C1627 1.502 . S
C1629 H1615 0.960 . S
C1629 H1616 0.961 . S
C1629 H1617 0.959 . S
C1629 C1627 1.561 . S
C1630 C1627 1.526 . S
C1630 C1631 1.396 . S
C1630 C1635 1.390 . S
C1631 C1625 1.465 . S
C1631 C1630 1.396 . S
C1631 C1632 1.399 . S
C1632 H1618 0.929 . S
C1632 C1631 1.399 . S
C1632 C1633 1.385 . S
C1633 H1619 0.931 . S
C1633 C1632 1.385 . S
C1633 C1634 1.389 . S
C1634 C1633 1.389 . S
C1634 C1635 1.387 . S
C1635 H1620 0.930 . S
C1635 C1630 1.390 . S
C1635 C1634 1.387 . S
H1636 C1648 0.930 . S
H1637 C1650 0.930 . S
H1638 C1651 0.930 . S
H1639 C1655 0.959 . S
H1640 C1655 0.959 . S
H1641 C1655 0.961 1_545 S
H1642 C1656 0.960 1_545 S
H1643 C1656 0.961 . S
H1644 C1656 0.959 . S
H1645 C1659 0.929 . S
H1646 C1660 0.931 . S
H1647 C1662 0.930 . S
C1648 H1636 0.930 . S
C1648 C1649 1.399 . S
C1648 C1653 1.399 . S
C1649 C1648 1.399 . S
C1649 C1650 1.376 . S
C1650 H1637 0.930 . S
C1650 C1649 1.376 . S
C1650 C1651 1.388 . S
C1651 H1638 0.930 . S
C1651 C1650 1.388 . S
C1651 C1652 1.390 . S
C1652 C1651 1.390 . S
C1652 C1653 1.394 . S
C1652 C1658 1.465 1_545 S
C1653 C1648 1.399 . S
C1653 C1652 1.394 . S
C1653 C1654 1.516 1_545 S
C1654 C1653 1.516 1_565 S
C1654 C1655 1.502 . S
C1654 C1656 1.561 . S
C1654 C1657 1.526 . S
C1655 H1639 0.959 . S
C1655 H1640 0.959 . S
C1655 H1641 0.961 1_565 S
C1655 C1654 1.502 . S
C1656 H1642 0.960 1_565 S
C1656 H1643 0.961 . S
C1656 H1644 0.959 . S
C1656 C1654 1.561 . S
C1657 C1654 1.526 . S
C1657 C1658 1.396 . S
C1657 C1662 1.390 . S
C1658 C1652 1.465 1_565 S
C1658 C1657 1.396 . S
C1658 C1659 1.399 . S
C1659 H1645 0.929 . S
C1659 C1658 1.399 . S
C1659 C1660 1.385 . S
C1660 H1646 0.931 . S
C1660 C1659 1.385 . S
C1660 C1661 1.389 . S
C1661 C1660 1.389 . S
C1661 C1662 1.387 . S
C1662 H1647 0.930 . S
C1662 C1657 1.390 . S
C1662 C1661 1.387 . S
H1663 C1675 0.930 . S
H1664 C1677 0.930 . S
H1665 C1678 0.930 . S
H1666 C1682 0.959 . S
H1667 C1682 0.959 . S
H1668 C1682 0.961 . S
H1669 C1683 0.960 . S
H1670 C1683 0.961 . S
H1671 C1683 0.959 . S
H1672 C1686 0.929 . S
H1673 C1687 0.931 . S
H1674 C1689 0.930 . S
C1675 H1663 0.930 . S
C1675 C1676 1.399 . S
C1675 C1680 1.399 . S
C1676 C1675 1.399 . S
C1676 C1677 1.376 . S
C1677 H1664 0.930 . S
C1677 C1676 1.376 . S
C1677 C1678 1.388 . S
C1678 H1665 0.930 . S
C1678 C1677 1.388 . S
C1678 C1679 1.390 . S
C1679 C1678 1.390 . S
C1679 C1680 1.394 . S
C1679 C1685 1.465 . S
C1680 C1675 1.399 . S
C1680 C1679 1.394 . S
C1680 C1681 1.516 . S
C1681 C1680 1.516 . S
C1681 C1682 1.502 . S
C1681 C1683 1.561 . S
C1681 C1684 1.526 . S
C1682 H1666 0.959 . S
C1682 H1667 0.959 . S
C1682 H1668 0.961 . S
C1682 C1681 1.502 . S
C1683 H1669 0.960 . S
C1683 H1670 0.961 . S
C1683 H1671 0.959 . S
C1683 C1681 1.561 . S
C1684 C1681 1.526 . S
C1684 C1685 1.396 . S
C1684 C1689 1.390 . S
C1685 C1679 1.465 . S
C1685 C1684 1.396 . S
C1685 C1686 1.399 . S
C1686 H1672 0.929 . S
C1686 C1685 1.399 . S
C1686 C1687 1.385 . S
C1687 H1673 0.931 . S
C1687 C1686 1.385 . S
C1687 C1688 1.389 . S
C1688 C1687 1.389 . S
C1688 C1689 1.387 . S
C1689 H1674 0.930 . S
C1689 C1684 1.390 . S
C1689 C1688 1.387 . S
H1690 C1702 0.930 . S
H1691 C1704 0.930 . S
H1692 C1705 0.930 . S
H1693 C1709 0.959 . S
H1694 C1709 0.959 . S
H1695 C1709 0.961 1_565 S
H1696 C1710 0.960 1_565 S
H1697 C1710 0.961 . S
H1698 C1710 0.959 . S
H1699 C1713 0.929 . S
H1700 C1714 0.931 . S
H1701 C1716 0.930 . S
C1702 H1690 0.930 . S
C1702 C1703 1.399 . S
C1702 C1707 1.399 . S
C1703 C1702 1.399 . S
C1703 C1704 1.376 1_554 S
C1704 H1691 0.930 . S
C1704 C1703 1.376 1_556 S
C1704 C1705 1.388 . S
C1705 H1692 0.930 . S
C1705 C1704 1.388 . S
C1705 C1706 1.390 . S
C1706 C1705 1.390 . S
C1706 C1707 1.394 1_556 S
C1706 C1712 1.465 1_565 S
C1707 C1702 1.399 . S
C1707 C1706 1.394 1_554 S
C1707 C1708 1.516 1_565 S
C1708 C1707 1.516 1_545 S
C1708 C1709 1.502 . S
C1708 C1710 1.561 . S
C1708 C1711 1.526 . S
C1709 H1693 0.959 . S
C1709 H1694 0.959 . S
C1709 H1695 0.961 1_545 S
C1709 C1708 1.502 . S
C1710 H1696 0.960 1_545 S
C1710 H1697 0.961 . S
C1710 H1698 0.959 . S
C1710 C1708 1.561 . S
C1711 C1708 1.526 . S
C1711 C1712 1.396 1_554 S
C1711 C1716 1.390 . S
C1712 C1706 1.465 1_545 S
C1712 C1711 1.396 1_556 S
C1712 C1713 1.399 . S
C1713 H1699 0.929 . S
C1713 C1712 1.399 . S
C1713 C1714 1.385 . S
C1714 H1700 0.931 . S
C1714 C1713 1.385 . S
C1714 C1715 1.389 . S
C1715 C1714 1.389 . S
C1715 C1716 1.387 1_556 S
C1716 H1701 0.930 . S
C1716 C1711 1.390 . S
C1716 C1715 1.387 1_554 S
H1717 C1729 0.930 . S
H1718 C1731 0.930 . S
H1719 C1732 0.930 . S
H1720 C1736 0.959 . S
H1721 C1736 0.959 . S
H1722 C1736 0.961 . S
H1723 C1737 0.960 . S
H1724 C1737 0.961 . S
H1725 C1737 0.959 . S
H1726 C1740 0.929 . S
H1727 C1741 0.931 . S
H1728 C1743 0.930 . S
C1729 H1717 0.930 . S
C1729 C1730 1.399 . S
C1729 C1734 1.399 . S
C1730 C1729 1.399 . S
C1730 C1731 1.376 . S
C1731 H1718 0.930 . S
C1731 C1730 1.376 . S
C1731 C1732 1.388 . S
C1732 H1719 0.930 . S
C1732 C1731 1.388 . S
C1732 C1733 1.390 . S
C1733 C1732 1.390 . S
C1733 C1734 1.394 . S
C1733 C1739 1.465 . S
C1734 C1729 1.399 . S
C1734 C1733 1.394 . S
C1734 C1735 1.516 . S
C1735 C1734 1.516 . S
C1735 C1736 1.502 . S
C1735 C1737 1.561 . S
C1735 C1738 1.526 . S
C1736 H1720 0.959 . S
C1736 H1721 0.959 . S
C1736 H1722 0.961 . S
C1736 C1735 1.502 . S
C1737 H1723 0.960 . S
C1737 H1724 0.961 . S
C1737 H1725 0.959 . S
C1737 C1735 1.561 . S
C1738 C1735 1.526 . S
C1738 C1739 1.396 . S
C1738 C1743 1.390 . S
C1739 C1733 1.465 . S
C1739 C1738 1.396 . S
C1739 C1740 1.399 . S
C1740 H1726 0.929 . S
C1740 C1739 1.399 . S
C1740 C1741 1.385 . S
C1741 H1727 0.931 . S
C1741 C1740 1.385 . S
C1741 C1742 1.389 . S
C1742 C1741 1.389 . S
C1742 C1743 1.387 . S
C1743 H1728 0.930 . S
C1743 C1738 1.390 . S
C1743 C1742 1.387 . S
H1744 C1756 0.930 . S
H1745 C1758 0.930 . S
H1746 C1759 0.930 . S
H1747 C1763 0.959 . S
H1748 C1763 0.959 . S
H1749 C1763 0.961 . S
H1750 C1764 0.960 . S
H1751 C1764 0.961 . S
H1752 C1764 0.959 . S
H1753 C1767 0.929 . S
H1754 C1768 0.931 . S
H1755 C1770 0.930 . S
C1756 H1744 0.930 . S
C1756 C1757 1.399 . S
C1756 C1761 1.399 . S
C1757 C1756 1.399 . S
C1757 C1758 1.376 1_554 S
C1758 H1745 0.930 . S
C1758 C1757 1.376 1_556 S
C1758 C1759 1.388 . S
C1759 H1746 0.930 . S
C1759 C1758 1.388 . S
C1759 C1760 1.390 1_556 S
C1760 C1759 1.390 1_554 S
C1760 C1761 1.394 . S
C1760 C1766 1.465 . S
C1761 C1756 1.399 . S
C1761 C1760 1.394 . S
C1761 C1762 1.516 . S
C1762 C1761 1.516 . S
C1762 C1763 1.502 . S
C1762 C1764 1.561 . S
C1762 C1765 1.526 . S
C1763 H1747 0.959 . S
C1763 H1748 0.959 . S
C1763 H1749 0.961 . S
C1763 C1762 1.502 . S
C1764 H1750 0.960 . S
C1764 H1751 0.961 . S
C1764 H1752 0.959 . S
C1764 C1762 1.561 . S
C1765 C1762 1.526 . S
C1765 C1766 1.396 . S
C1765 C1770 1.390 . S
C1766 C1760 1.465 . S
C1766 C1765 1.396 . S
C1766 C1767 1.399 1_554 S
C1767 H1753 0.929 . S
C1767 C1766 1.399 1_556 S
C1767 C1768 1.385 . S
C1768 H1754 0.931 . S
C1768 C1767 1.385 . S
C1768 C1769 1.389 1_556 S
C1769 C1768 1.389 1_554 S
C1769 C1770 1.387 . S
C1770 H1755 0.930 . S
C1770 C1765 1.390 . S
C1770 C1769 1.387 . S
H1771 C1783 0.930 . S
H1772 C1785 0.930 . S
H1773 C1786 0.930 . S
H1774 C1790 0.959 . S
H1775 C1790 0.959 . S
H1776 C1790 0.961 . S
H1777 C1791 0.960 . S
H1778 C1791 0.961 . S
H1779 C1791 0.959 . S
H1780 C1794 0.929 . S
H1781 C1795 0.931 . S
H1782 C1797 0.930 . S
C1783 H1771 0.930 . S
C1783 C1784 1.399 . S
C1783 C1788 1.399 . S
C1784 C1783 1.399 . S
C1784 C1785 1.376 . S
C1785 H1772 0.930 . S
C1785 C1784 1.376 . S
C1785 C1786 1.388 . S
C1786 H1773 0.930 . S
C1786 C1785 1.388 . S
C1786 C1787 1.390 . S
C1787 C1786 1.390 . S
C1787 C1788 1.394 . S
C1787 C1793 1.465 . S
C1788 C1783 1.399 . S
C1788 C1787 1.394 . S
C1788 C1789 1.516 . S
C1789 C1788 1.516 . S
C1789 C1790 1.502 . S
C1789 C1791 1.561 . S
C1789 C1792 1.526 . S
C1790 H1774 0.959 . S
C1790 H1775 0.959 . S
C1790 H1776 0.961 . S
C1790 C1789 1.502 . S
C1791 H1777 0.960 . S
C1791 H1778 0.961 . S
C1791 H1779 0.959 . S
C1791 C1789 1.561 . S
C1792 C1789 1.526 . S
C1792 C1793 1.396 . S
C1792 C1797 1.390 . S
C1793 C1787 1.465 . S
C1793 C1792 1.396 . S
C1793 C1794 1.399 . S
C1794 H1780 0.929 . S
C1794 C1793 1.399 . S
C1794 C1795 1.385 . S
C1795 H1781 0.931 . S
C1795 C1794 1.385 . S
C1795 C1796 1.389 . S
C1796 C1795 1.389 . S
C1796 C1797 1.387 . S
C1797 H1782 0.930 . S
C1797 C1792 1.390 . S
C1797 C1796 1.387 . S
H1798 C1810 0.930 . S
H1799 C1812 0.930 . S
H1800 C1813 0.930 . S
H1801 C1817 0.959 . S
H1802 C1817 0.959 . S
H1803 C1817 0.961 . S
H1804 C1818 0.960 . S
H1805 C1818 0.961 . S
H1806 C1818 0.959 . S
H1807 C1821 0.929 . S
H1808 C1822 0.931 . S
H1809 C1824 0.930 . S
C1810 H1798 0.930 . S
C1810 C1811 1.399 . S
C1810 C1815 1.399 . S
C1811 C1810 1.399 . S
C1811 C1812 1.376 . S
C1812 H1799 0.930 . S
C1812 C1811 1.376 . S
C1812 C1813 1.388 . S
C1813 H1800 0.930 . S
C1813 C1812 1.388 . S
C1813 C1814 1.390 . S
C1814 C1813 1.390 . S
C1814 C1815 1.394 . S
C1814 C1820 1.465 . S
C1815 C1810 1.399 . S
C1815 C1814 1.394 . S
C1815 C1816 1.516 . S
C1816 C1815 1.516 . S
C1816 C1817 1.502 . S
C1816 C1818 1.561 . S
C1816 C1819 1.526 . S
C1817 H1801 0.959 . S
C1817 H1802 0.959 . S
C1817 H1803 0.961 . S
C1817 C1816 1.502 . S
C1818 H1804 0.960 . S
C1818 H1805 0.961 . S
C1818 H1806 0.959 . S
C1818 C1816 1.561 . S
C1819 C1816 1.526 . S
C1819 C1820 1.396 . S
C1819 C1824 1.390 . S
C1820 C1814 1.465 . S
C1820 C1819 1.396 . S
C1820 C1821 1.399 . S
C1821 H1807 0.929 . S
C1821 C1820 1.399 . S
C1821 C1822 1.385 . S
C1822 H1808 0.931 . S
C1822 C1821 1.385 . S
C1822 C1823 1.389 . S
C1823 C1822 1.389 . S
C1823 C1824 1.387 . S
C1824 H1809 0.930 . S
C1824 C1819 1.390 . S
C1824 C1823 1.387 . S
H1825 C1837 0.930 . S
H1826 C1839 0.930 . S
H1827 C1840 0.930 . S
H1828 C1844 0.962 . S
H1829 C1844 0.979 . S
H1830 C1844 0.940 1_655 S
H1831 C1845 0.958 1_655 S
H1832 C1845 0.963 . S
H1833 C1845 0.959 . S
H1834 C1848 0.929 . S
H1835 C1849 0.931 . S
H1836 C1851 0.930 . S
C1837 H1825 0.930 . S
C1837 C1838 1.399 . S
C1837 C1842 1.399 . S
C1838 C1837 1.399 . S
C1838 C1839 1.376 . S
C1839 H1826 0.930 . S
C1839 C1838 1.376 . S
C1839 C1840 1.388 . S
C1840 H1827 0.930 . S
C1840 C1839 1.388 . S
C1840 C1841 1.390 . S
C1841 C1840 1.390 . S
C1841 C1842 1.394 . S
C1841 C1847 1.465 1_655 S
C1842 C1837 1.399 . S
C1842 C1841 1.394 . S
C1842 C1843 1.517 1_655 S
C1843 C1842 1.517 1_455 S
C1843 C1844 1.502 . S
C1843 C1845 1.561 . S
C1843 C1846 1.525 . S
C1844 H1828 0.962 . S
C1844 H1829 0.979 . S
C1844 H1830 0.940 1_455 S
C1844 C1843 1.502 . S
C1845 H1831 0.958 1_455 S
C1845 H1832 0.963 . S
C1845 H1833 0.959 . S
C1845 C1843 1.561 . S
C1846 C1843 1.525 . S
C1846 C1847 1.396 . S
C1846 C1851 1.390 . S
C1847 C1841 1.465 1_455 S
C1847 C1846 1.396 . S
C1847 C1848 1.399 . S
C1848 H1834 0.929 . S
C1848 C1847 1.399 . S
C1848 C1849 1.385 . S
C1849 H1835 0.931 . S
C1849 C1848 1.385 . S
C1849 C1850 1.389 . S
C1850 C1849 1.389 . S
C1850 C1851 1.387 . S
C1851 H1836 0.930 . S
C1851 C1846 1.390 . S
C1851 C1850 1.387 . S
H1852 C1864 0.930 1_554 S
H1853 C1866 0.930 . S
H1854 C1867 0.930 . S
H1855 C1871 0.945 1_556 S
H1856 C1871 0.959 . S
H1857 C1871 0.961 . S
H1858 C1872 0.960 . S
H1859 C1872 0.961 . S
H1860 C1872 0.959 . S
H1861 C1875 0.929 . S
H1862 C1876 0.931 . S
H1863 C1878 0.930 1_554 S
C1864 H1852 0.930 1_556 S
C1864 C1865 1.399 . S
C1864 C1869 1.399 . S
C1865 C1864 1.399 . S
C1865 C1866 1.376 . S
C1866 H1853 0.930 . S
C1866 C1865 1.376 . S
C1866 C1867 1.388 . S
C1867 H1854 0.930 . S
C1867 C1866 1.388 . S
C1867 C1868 1.390 . S
C1868 C1867 1.390 . S
C1868 C1869 1.394 . S
C1868 C1874 1.465 . S
C1869 C1864 1.399 . S
C1869 C1868 1.394 . S
C1869 C1870 1.516 1_556 S
C1870 C1869 1.516 1_554 S
C1870 C1871 1.502 . S
C1870 C1872 1.561 . S
C1870 C1873 1.526 1_554 S
C1871 H1855 0.945 1_554 S
C1871 H1856 0.959 . S
C1871 H1857 0.961 . S
C1871 C1870 1.502 . S
C1872 H1858 0.960 . S
C1872 H1859 0.961 . S
C1872 H1860 0.959 . S
C1872 C1870 1.561 . S
C1873 C1870 1.526 1_556 S
C1873 C1874 1.396 . S
C1873 C1878 1.390 . S
C1874 C1868 1.465 . S
C1874 C1873 1.396 . S
C1874 C1875 1.399 . S
C1875 H1861 0.929 . S
C1875 C1874 1.399 . S
C1875 C1876 1.385 . S
C1876 H1862 0.931 . S
C1876 C1875 1.385 . S
C1876 C1877 1.389 . S
C1877 C1876 1.389 . S
C1877 C1878 1.387 . S
C1878 H1863 0.930 1_556 S
C1878 C1873 1.390 . S
C1878 C1877 1.387 . S
H1879 C1891 0.930 . S
H1880 C1893 0.930 . S
H1881 C1894 0.930 . S
H1882 C1898 0.962 . S
H1883 C1898 0.979 . S
H1884 C1898 0.940 1_655 S
H1885 C1899 0.958 1_655 S
H1886 C1899 0.963 . S
H1887 C1899 0.959 . S
H1888 C1902 0.929 . S
H1889 C1903 0.931 . S
H1890 C1905 0.930 . S
C1891 H1879 0.930 . S
C1891 C1892 1.399 . S
C1891 C1896 1.399 . S
C1892 C1891 1.399 . S
C1892 C1893 1.376 . S
C1893 H1880 0.930 . S
C1893 C1892 1.376 . S
C1893 C1894 1.388 . S
C1894 H1881 0.930 . S
C1894 C1893 1.388 . S
C1894 C1895 1.390 . S
C1895 C1894 1.390 . S
C1895 C1896 1.394 . S
C1895 C1901 1.465 1_655 S
C1896 C1891 1.399 . S
C1896 C1895 1.394 . S
C1896 C1897 1.517 1_655 S
C1897 C1896 1.517 1_455 S
C1897 C1898 1.502 . S
C1897 C1899 1.561 . S
C1897 C1900 1.525 . S
C1898 H1882 0.962 . S
C1898 H1883 0.979 . S
C1898 H1884 0.940 1_455 S
C1898 C1897 1.502 . S
C1899 H1885 0.958 1_455 S
C1899 H1886 0.963 . S
C1899 H1887 0.959 . S
C1899 C1897 1.561 . S
C1900 C1897 1.525 . S
C1900 C1901 1.396 . S
C1900 C1905 1.390 . S
C1901 C1895 1.465 1_455 S
C1901 C1900 1.396 . S
C1901 C1902 1.399 . S
C1902 H1888 0.929 . S
C1902 C1901 1.399 . S
C1902 C1903 1.385 . S
C1903 H1889 0.931 . S
C1903 C1902 1.385 . S
C1903 C1904 1.389 . S
C1904 C1903 1.389 . S
C1904 C1905 1.387 . S
C1905 H1890 0.930 . S
C1905 C1900 1.390 . S
C1905 C1904 1.387 . S
H1906 C1918 0.930 . S
H1907 C1920 0.930 . S
H1908 C1921 0.930 . S
H1909 C1925 0.959 . S
H1910 C1925 0.959 . S
H1911 C1925 0.961 . S
H1912 C1926 0.960 . S
H1913 C1926 0.961 . S
H1914 C1926 0.959 . S
H1915 C1929 0.929 . S
H1916 C1930 0.931 . S
H1917 C1932 0.930 . S
C1918 H1906 0.930 . S
C1918 C1919 1.399 . S
C1918 C1923 1.399 . S
C1919 C1918 1.399 . S
C1919 C1920 1.376 . S
C1920 H1907 0.930 . S
C1920 C1919 1.376 . S
C1920 C1921 1.388 . S
C1921 H1908 0.930 . S
C1921 C1920 1.388 . S
C1921 C1922 1.390 . S
C1922 C1921 1.390 . S
C1922 C1923 1.394 . S
C1922 C1928 1.465 . S
C1923 C1918 1.399 . S
C1923 C1922 1.394 . S
C1923 C1924 1.516 . S
C1924 C1923 1.516 . S
C1924 C1925 1.502 . S
C1924 C1926 1.561 . S
C1924 C1927 1.526 . S
C1925 H1909 0.959 . S
C1925 H1910 0.959 . S
C1925 H1911 0.961 . S
C1925 C1924 1.502 . S
C1926 H1912 0.960 . S
C1926 H1913 0.961 . S
C1926 H1914 0.959 . S
C1926 C1924 1.561 . S
C1927 C1924 1.526 . S
C1927 C1928 1.396 . S
C1927 C1932 1.390 . S
C1928 C1922 1.465 . S
C1928 C1927 1.396 . S
C1928 C1929 1.399 . S
C1929 H1915 0.929 . S
C1929 C1928 1.399 . S
C1929 C1930 1.385 . S
C1930 H1916 0.931 . S
C1930 C1929 1.385 . S
C1930 C1931 1.389 . S
C1931 C1930 1.389 . S
C1931 C1932 1.387 . S
C1932 H1917 0.930 . S
C1932 C1927 1.390 . S
C1932 C1931 1.387 . S
H1933 C1945 0.930 . S
H1934 C1947 0.930 . S
H1935 C1948 0.930 . S
H1936 C1952 0.959 . S
H1937 C1952 0.959 . S
H1938 C1952 0.961 . S
H1939 C1953 0.960 . S
H1940 C1953 0.961 . S
H1941 C1953 0.959 . S
H1942 C1956 0.929 . S
H1943 C1957 0.931 . S
H1944 C1959 0.930 . S
C1945 H1933 0.930 . S
C1945 C1946 1.399 . S
C1945 C1950 1.399 . S
C1946 C1945 1.399 . S
C1946 C1947 1.376 . S
C1947 H1934 0.930 . S
C1947 C1946 1.376 . S
C1947 C1948 1.388 . S
C1948 H1935 0.930 . S
C1948 C1947 1.388 . S
C1948 C1949 1.390 . S
C1949 C1948 1.390 . S
C1949 C1950 1.394 . S
C1949 C1955 1.465 . S
C1950 C1945 1.399 . S
C1950 C1949 1.394 . S
C1950 C1951 1.516 . S
C1951 C1950 1.516 . S
C1951 C1952 1.502 . S
C1951 C1953 1.561 . S
C1951 C1954 1.526 . S
C1952 H1936 0.959 . S
C1952 H1937 0.959 . S
C1952 H1938 0.961 . S
C1952 C1951 1.502 . S
C1953 H1939 0.960 . S
C1953 H1940 0.961 . S
C1953 H1941 0.959 . S
C1953 C1951 1.561 . S
C1954 C1951 1.526 . S
C1954 C1955 1.396 . S
C1954 C1959 1.390 . S
C1955 C1949 1.465 . S
C1955 C1954 1.396 . S
C1955 C1956 1.399 . S
C1956 H1942 0.929 . S
C1956 C1955 1.399 . S
C1956 C1957 1.385 . S
C1957 H1943 0.931 . S
C1957 C1956 1.385 . S
C1957 C1958 1.389 . S
C1958 C1957 1.389 . S
C1958 C1959 1.387 . S
C1959 H1944 0.930 . S
C1959 C1954 1.390 . S
C1959 C1958 1.387 . S
H1960 C1972 0.930 . S
H1961 C1974 0.920 1_554 S
H1962 C1975 0.930 1_554 S
H1963 C1979 0.959 . S
H1964 C1979 0.959 . S
H1965 C1979 0.961 . S
H1966 C1980 0.960 . S
H1967 C1980 0.961 . S
H1968 C1980 1.017 . S
H1969 C1983 0.929 1_554 S
H1970 C1984 0.956 . S
H1971 C1986 0.930 . S
C1972 H1960 0.930 . S
C1972 C1973 1.399 . S
C1972 C1977 1.399 . S
C1973 C1972 1.399 . S
C1973 C1974 1.376 . S
C1974 H1961 0.920 1_556 S
C1974 C1973 1.376 . S
C1974 C1975 1.388 . S
C1975 H1962 0.930 1_556 S
C1975 C1974 1.388 . S
C1975 C1976 1.390 . S
C1976 C1975 1.390 . S
C1976 C1977 1.394 . S
C1976 C1982 1.465 . S
C1977 C1972 1.399 . S
C1977 C1976 1.394 . S
C1977 C1978 1.516 . S
C1978 C1977 1.516 . S
C1978 C1979 1.502 . S
C1978 C1980 1.561 . S
C1978 C1981 1.526 . S
C1979 H1963 0.959 . S
C1979 H1964 0.959 . S
C1979 H1965 0.961 . S
C1979 C1978 1.502 . S
C1980 H1966 0.960 . S
C1980 H1967 0.961 . S
C1980 H1968 1.017 . S
C1980 C1978 1.561 . S
C1981 C1978 1.526 . S
C1981 C1982 1.396 . S
C1981 C1986 1.390 . S
C1982 C1976 1.465 . S
C1982 C1981 1.396 . S
C1982 C1983 1.399 . S
C1983 H1969 0.929 1_556 S
C1983 C1982 1.399 . S
C1983 C1984 1.385 . S
C1984 H1970 0.956 . S
C1984 C1983 1.385 . S
C1984 C1985 1.389 . S
C1985 C1984 1.389 . S
C1985 C1986 1.387 . S
C1986 H1971 0.930 . S
C1986 C1981 1.390 . S
C1986 C1985 1.387 . S
H1987 C1999 0.930 . S
H1988 C2001 0.930 . S
H1989 C2002 0.930 . S
H1990 C2006 0.959 . S
H1991 C2006 0.959 . S
H1992 C2006 0.961 . S
H1993 C2007 0.960 . S
H1994 C2007 0.961 . S
H1995 C2007 0.959 . S
H1996 C2010 0.929 . S
H1997 C2011 0.931 . S
H1998 C2013 0.930 . S
C1999 H1987 0.930 . S
C1999 C2000 1.399 . S
C1999 C2004 1.399 . S
C2000 C1999 1.399 . S
C2000 C2001 1.376 . S
C2001 H1988 0.930 . S
C2001 C2000 1.376 . S
C2001 C2002 1.388 . S
C2002 H1989 0.930 . S
C2002 C2001 1.388 . S
C2002 C2003 1.390 . S
C2003 C2002 1.390 . S
C2003 C2004 1.394 . S
C2003 C2009 1.465 . S
C2004 C1999 1.399 . S
C2004 C2003 1.394 . S
C2004 C2005 1.516 . S
C2005 C2004 1.516 . S
C2005 C2006 1.502 . S
C2005 C2007 1.561 . S
C2005 C2008 1.526 . S
C2006 H1990 0.959 . S
C2006 H1991 0.959 . S
C2006 H1992 0.961 . S
C2006 C2005 1.502 . S
C2007 H1993 0.960 . S
C2007 H1994 0.961 . S
C2007 H1995 0.959 . S
C2007 C2005 1.561 . S
C2008 C2005 1.526 . S
C2008 C2009 1.396 . S
C2008 C2013 1.390 . S
C2009 C2003 1.465 . S
C2009 C2008 1.396 . S
C2009 C2010 1.399 . S
C2010 H1996 0.929 . S
C2010 C2009 1.399 . S
C2010 C2011 1.385 . S
C2011 H1997 0.931 . S
C2011 C2010 1.385 . S
C2011 C2012 1.389 . S
C2012 C2011 1.389 . S
C2012 C2013 1.387 . S
C2013 H1998 0.930 . S
C2013 C2008 1.390 . S
C2013 C2012 1.387 . S
H2014 C2026 0.930 . S
H2015 C2028 0.930 . S
H2016 C2029 0.930 . S
H2017 C2033 0.959 . S
H2018 C2033 0.959 . S
H2019 C2033 0.961 . S
H2020 C2034 0.960 . S
H2021 C2034 0.961 . S
H2022 C2034 0.959 . S
H2023 C2037 0.929 . S
H2024 C2038 0.931 . S
H2025 C2040 0.930 . S
C2026 H2014 0.930 . S
C2026 C2027 1.399 . S
C2026 C2031 1.399 . S
C2027 C2026 1.399 . S
C2027 C2028 1.376 1_554 S
C2028 H2015 0.930 . S
C2028 C2027 1.376 1_556 S
C2028 C2029 1.388 . S
C2029 H2016 0.930 . S
C2029 C2028 1.388 . S
C2029 C2030 1.390 1_556 S
C2030 C2029 1.390 1_554 S
C2030 C2031 1.394 . S
C2030 C2036 1.465 . S
C2031 C2026 1.399 . S
C2031 C2030 1.394 . S
C2031 C2032 1.516 . S
C2032 C2031 1.516 . S
C2032 C2033 1.502 . S
C2032 C2034 1.561 . S
C2032 C2035 1.526 . S
C2033 H2017 0.959 . S
C2033 H2018 0.959 . S
C2033 H2019 0.961 . S
C2033 C2032 1.502 . S
C2034 H2020 0.960 . S
C2034 H2021 0.961 . S
C2034 H2022 0.959 . S
C2034 C2032 1.561 . S
C2035 C2032 1.526 . S
C2035 C2036 1.396 . S
C2035 C2040 1.390 . S
C2036 C2030 1.465 . S
C2036 C2035 1.396 . S
C2036 C2037 1.399 1_554 S
C2037 H2023 0.929 . S
C2037 C2036 1.399 1_556 S
C2037 C2038 1.385 . S
C2038 H2024 0.931 . S
C2038 C2037 1.385 . S
C2038 C2039 1.389 1_556 S
C2039 C2038 1.389 1_554 S
C2039 C2040 1.387 . S
C2040 H2025 0.930 . S
C2040 C2035 1.390 . S
C2040 C2039 1.387 . S
H2041 C2053 0.930 . S
H2042 C2055 0.930 . S
H2043 C2056 0.930 . S
H2044 C2060 0.959 . S
H2045 C2060 0.959 . S
H2046 C2060 0.961 . S
H2047 C2061 0.960 . S
H2048 C2061 0.961 . S
H2049 C2061 0.959 . S
H2050 C2064 0.929 . S
H2051 C2065 0.931 . S
H2052 C2067 0.930 . S
C2053 H2041 0.930 . S
C2053 C2054 1.399 . S
C2053 C2058 1.399 . S
C2054 C2053 1.399 . S
C2054 C2055 1.376 . S
C2055 H2042 0.930 . S
C2055 C2054 1.376 . S
C2055 C2056 1.388 . S
C2056 H2043 0.930 . S
C2056 C2055 1.388 . S
C2056 C2057 1.390 . S
C2057 C2056 1.390 . S
C2057 C2058 1.394 . S
C2057 C2063 1.465 . S
C2058 C2053 1.399 . S
C2058 C2057 1.394 . S
C2058 C2059 1.516 . S
C2059 C2058 1.516 . S
C2059 C2060 1.502 . S
C2059 C2061 1.561 . S
C2059 C2062 1.526 . S
C2060 H2044 0.959 . S
C2060 H2045 0.959 . S
C2060 H2046 0.961 . S
C2060 C2059 1.502 . S
C2061 H2047 0.960 . S
C2061 H2048 0.961 . S
C2061 H2049 0.959 . S
C2061 C2059 1.561 . S
C2062 C2059 1.526 . S
C2062 C2063 1.396 . S
C2062 C2067 1.390 . S
C2063 C2057 1.465 . S
C2063 C2062 1.396 . S
C2063 C2064 1.399 . S
C2064 H2050 0.929 . S
C2064 C2063 1.399 . S
C2064 C2065 1.385 . S
C2065 H2051 0.931 . S
C2065 C2064 1.385 . S
C2065 C2066 1.389 . S
C2066 C2065 1.389 . S
C2066 C2067 1.387 . S
C2067 H2052 0.930 . S
C2067 C2062 1.390 . S
C2067 C2066 1.387 . S
H2068 C2080 0.930 . S
H2069 C2082 0.930 . S
H2070 C2083 0.930 . S
H2071 C2087 0.962 . S
H2072 C2087 0.979 . S
H2073 C2087 0.940 1_655 S
H2074 C2088 0.958 1_655 S
H2075 C2088 0.963 . S
H2076 C2088 0.959 . S
H2077 C2091 0.929 . S
H2078 C2092 0.931 . S
H2079 C2094 0.930 . S
C2080 H2068 0.930 . S
C2080 C2081 1.399 . S
C2080 C2085 1.399 . S
C2081 C2080 1.399 . S
C2081 C2082 1.376 . S
C2082 H2069 0.930 . S
C2082 C2081 1.376 . S
C2082 C2083 1.388 . S
C2083 H2070 0.930 . S
C2083 C2082 1.388 . S
C2083 C2084 1.390 . S
C2084 C2083 1.390 . S
C2084 C2085 1.394 . S
C2084 C2090 1.465 1_655 S
C2085 C2080 1.399 . S
C2085 C2084 1.394 . S
C2085 C2086 1.517 1_655 S
C2086 C2085 1.517 1_455 S
C2086 C2087 1.502 . S
C2086 C2088 1.561 . S
C2086 C2089 1.525 . S
C2087 H2071 0.962 . S
C2087 H2072 0.979 . S
C2087 H2073 0.940 1_455 S
C2087 C2086 1.502 . S
C2088 H2074 0.958 1_455 S
C2088 H2075 0.963 . S
C2088 H2076 0.959 . S
C2088 C2086 1.561 . S
C2089 C2086 1.525 . S
C2089 C2090 1.396 . S
C2089 C2094 1.390 . S
C2090 C2084 1.465 1_455 S
C2090 C2089 1.396 . S
C2090 C2091 1.399 . S
C2091 H2077 0.929 . S
C2091 C2090 1.399 . S
C2091 C2092 1.385 . S
C2092 H2078 0.931 . S
C2092 C2091 1.385 . S
C2092 C2093 1.389 . S
C2093 C2092 1.389 . S
C2093 C2094 1.387 . S
C2094 H2079 0.930 . S
C2094 C2089 1.390 . S
C2094 C2093 1.387 . S
H2095 C2107 0.930 . S
H2096 C2109 0.930 . S
H2097 C2110 0.930 . S
H2098 C2114 0.959 . S
H2099 C2114 0.959 . S
H2100 C2114 0.961 . S
H2101 C2115 0.960 . S
H2102 C2115 0.961 . S
H2103 C2115 0.959 . S
H2104 C2118 0.929 . S
H2105 C2119 0.931 . S
H2106 C2121 0.930 . S
C2107 H2095 0.930 . S
C2107 C2108 1.399 . S
C2107 C2112 1.399 . S
C2108 C2107 1.399 . S
C2108 C2109 1.376 . S
C2109 H2096 0.930 . S
C2109 C2108 1.376 . S
C2109 C2110 1.388 . S
C2110 H2097 0.930 . S
C2110 C2109 1.388 . S
C2110 C2111 1.390 . S
C2111 C2110 1.390 . S
C2111 C2112 1.394 . S
C2111 C2117 1.465 . S
C2112 C2107 1.399 . S
C2112 C2111 1.394 . S
C2112 C2113 1.516 . S
C2113 C2112 1.516 . S
C2113 C2114 1.502 . S
C2113 C2115 1.561 . S
C2113 C2116 1.526 . S
C2114 H2098 0.959 . S
C2114 H2099 0.959 . S
C2114 H2100 0.961 . S
C2114 C2113 1.502 . S
C2115 H2101 0.960 . S
C2115 H2102 0.961 . S
C2115 H2103 0.959 . S
C2115 C2113 1.561 . S
C2116 C2113 1.526 . S
C2116 C2117 1.396 . S
C2116 C2121 1.390 . S
C2117 C2111 1.465 . S
C2117 C2116 1.396 . S
C2117 C2118 1.399 . S
C2118 H2104 0.929 . S
C2118 C2117 1.399 . S
C2118 C2119 1.385 . S
C2119 H2105 0.931 . S
C2119 C2118 1.385 . S
C2119 C2120 1.389 . S
C2120 C2119 1.389 . S
C2120 C2121 1.387 . S
C2121 H2106 0.930 . S
C2121 C2116 1.390 . S
C2121 C2120 1.387 . S
H2122 C2134 0.930 . S
H2123 C2136 0.930 . S
H2124 C2137 0.930 . S
H2125 C2141 0.959 . S
H2126 C2141 0.959 . S
H2127 C2141 0.961 . S
H2128 C2142 0.960 . S
H2129 C2142 0.961 . S
H2130 C2142 0.959 . S
H2131 C2145 0.929 . S
H2132 C2146 0.931 . S
H2133 C2148 0.930 . S
C2134 H2122 0.930 . S
C2134 C2135 1.399 . S
C2134 C2139 1.399 . S
C2135 C2134 1.399 . S
C2135 C2136 1.376 . S
C2136 H2123 0.930 . S
C2136 C2135 1.376 . S
C2136 C2137 1.388 . S
C2137 H2124 0.930 . S
C2137 C2136 1.388 . S
C2137 C2138 1.390 . S
C2138 C2137 1.390 . S
C2138 C2139 1.394 . S
C2138 C2144 1.465 . S
C2139 C2134 1.399 . S
C2139 C2138 1.394 . S
C2139 C2140 1.516 . S
C2140 C2139 1.516 . S
C2140 C2141 1.502 . S
C2140 C2142 1.561 . S
C2140 C2143 1.526 . S
C2141 H2125 0.959 . S
C2141 H2126 0.959 . S
C2141 H2127 0.961 . S
C2141 C2140 1.502 . S
C2142 H2128 0.960 . S
C2142 H2129 0.961 . S
C2142 H2130 0.959 . S
C2142 C2140 1.561 . S
C2143 C2140 1.526 . S
C2143 C2144 1.396 . S
C2143 C2148 1.390 . S
C2144 C2138 1.465 . S
C2144 C2143 1.396 . S
C2144 C2145 1.399 . S
C2145 H2131 0.929 . S
C2145 C2144 1.399 . S
C2145 C2146 1.385 . S
C2146 H2132 0.931 . S
C2146 C2145 1.385 . S
C2146 C2147 1.389 . S
C2147 C2146 1.389 . S
C2147 C2148 1.387 . S
C2148 H2133 0.930 . S
C2148 C2143 1.390 . S
C2148 C2147 1.387 . S
H2149 C2161 0.930 . S
H2150 C2163 0.930 . S
H2151 C2164 0.930 . S
H2152 C2168 0.962 . S
H2153 C2168 0.979 . S
H2154 C2168 0.940 1_655 S
H2155 C2169 0.958 1_655 S
H2156 C2169 0.963 . S
H2157 C2169 0.959 . S
H2158 C2172 0.929 . S
H2159 C2173 0.931 . S
H2160 C2175 0.930 . S
C2161 H2149 0.930 . S
C2161 C2162 1.399 . S
C2161 C2166 1.399 . S
C2162 C2161 1.399 . S
C2162 C2163 1.376 . S
C2163 H2150 0.930 . S
C2163 C2162 1.376 . S
C2163 C2164 1.388 . S
C2164 H2151 0.930 . S
C2164 C2163 1.388 . S
C2164 C2165 1.390 . S
C2165 C2164 1.390 . S
C2165 C2166 1.394 . S
C2165 C2171 1.465 1_655 S
C2166 C2161 1.399 . S
C2166 C2165 1.394 . S
C2166 C2167 1.517 1_655 S
C2167 C2166 1.517 1_455 S
C2167 C2168 1.502 . S
C2167 C2169 1.561 . S
C2167 C2170 1.525 . S
C2168 H2152 0.962 . S
C2168 H2153 0.979 . S
C2168 H2154 0.940 1_455 S
C2168 C2167 1.502 . S
C2169 H2155 0.958 1_455 S
C2169 H2156 0.963 . S
C2169 H2157 0.959 . S
C2169 C2167 1.561 . S
C2170 C2167 1.525 . S
C2170 C2171 1.396 . S
C2170 C2175 1.390 . S
C2171 C2165 1.465 1_455 S
C2171 C2170 1.396 . S
C2171 C2172 1.399 . S
C2172 H2158 0.929 . S
C2172 C2171 1.399 . S
C2172 C2173 1.385 . S
C2173 H2159 0.931 . S
C2173 C2172 1.385 . S
C2173 C2174 1.389 . S
C2174 C2173 1.389 . S
C2174 C2175 1.387 . S
C2175 H2160 0.930 . S
C2175 C2170 1.390 . S
C2175 C2174 1.387 . S
C461 C325 1.707 . S
C473 C3 1.701 . S
C488 C283 1.673 . S
C500 C17 1.713 . S
C515 C297 1.683 . S
C527 C31 1.686 . S
C542 C311 1.673 . S
C554 C45 1.714 . S
C569 C59 1.675 . S
C581 C241 1.715 . S
C596 C255 1.676 . S
C608 C73 1.716 . S
C623 C87 1.713 . S
C635 C269 1.673 . S
C650 C101 1.714 . S
C662 C227 1.690 . S
C677 C437 1.682 . S
C689 C115 1.714 . S
C704 C129 1.677 . S
C716 C395 1.710 . S
C731 C143 1.680 . S
C743 C409 1.678 . S
C758 C157 1.711 . S
C770 C423 1.679 . S
C785 C171 1.679 . S
C797 C353 1.679 . S
C812 C185 1.712 . S
C824 C367 1.680 . S
C839 C199 1.685 . S
C851 C381 1.675 . S
C866 C213 1.677 . S
C878 C339 1.710 . S
C893 C7 1.303 . S
C905 C175 1.290 . S
C920 C413 1.218 . S
C932 C21 1.220 . S
C947 C35 1.224 . S
C959 C203 1.220 . S
C974 C441 1.316 . S
C986 C49 1.317 . S
C1001 C119 1.231 . S
C1013 C63 1.244 . S
C1028 C77 1.273 . S
C1040 C357 1.288 . S
C1055 C91 1.309 . S
C1067 C147 1.298 . S
C1082 C105 1.300 . S
C1094 C385 1.309 . S
C1109 C301 1.259 . S
C1121 C133 1.245 . S
C1136 C329 1.292 . S
C1148 C161 1.303 . S
C1163 C189 1.220 . S
C1175 C245 1.219 . S
C1190 C273 1.259 . S
C1202 C217 1.245 . S
C1217 C399 1.286 . S
C1229 C231 1.271 . S
C1244 C259 1.245 . S
C1256 C427 1.233 . S
C1271 C343 1.221 . S
C1283 C287 1.230 . S
C1298 C371 1.239 . S
C1310 C315 1.254 . S
C1325 C64 1.241 . S
C1337 C8 1.265 . S
C1352 C78 1.265 . S
C1364 C22 1.243 . S
C1379 C36 1.264 . S
C1391 C92 1.247 . S
C1406 C50 1.264 . S
C1418 C106 1.246 . S
C1433 C176 1.265 . S
C1445 C120 1.225 . S
C1460 C190 1.243 . S
C1472 C134 1.210 . S
C1487 C204 1.207 . S
C1499 C148 1.250 . S
C1514 C162 1.248 . S
C1526 C218 1.208 . S
C1541 C232 1.245 . S
C1553 C288 1.210 . S
C1568 C246 1.207 . S
C1580 C302 1.233 . S
C1595 C260 1.238 . S
C1607 C316 1.265 . S
C1622 C274 1.265 . S
C1634 C330 1.239 . S
C1649 C400 1.262 . S
C1661 C344 1.236 . S
C1676 C414 1.233 . S
C1688 C358 1.214 . S
C1703 C428 1.265 . S
C1715 C372 1.223 . S
C1730 C442 1.248 . S
C1742 C386 1.208 . S
C1757 C429 1.520 . S
C1769 C9 1.532 . S
C1784 C23 1.527 . S
C1796 C219 1.515 . S
C1811 C401 1.511 . S
C1823 C37 1.524 . S
C1838 C51 1.516 . S
C1850 C191 1.528 . S
C1865 C373 1.514 . S
C1877 C65 1.502 . S
C1892 C79 1.472 . S
C1904 C163 1.471 . S
C1919 C93 1.469 . S
C1931 C345 1.473 . S
C1946 C135 1.549 . S
C1958 C107 1.543 . S
C1973 C121 1.552 . S
C1985 C317 1.551 . S
C2000 C289 1.552 . S
C2012 C149 1.551 . S
C2027 C177 1.513 . S
C2039 C261 1.525 . S
C2054 C205 1.532 . S
C2066 C233 1.541 . S
C2081 C443 1.517 . S
C2093 C247 1.529 . S
C2108 C275 1.552 . S
C2120 C415 1.551 . S
C2135 C303 1.552 . S
C2147 C387 1.552 . S
C2162 C359 1.552 . S
C2174 C331 1.552 . S
