# Generated by pormake.
# Topology sml, (6)-cn, num edge types: 1
# Building blocks:
#     Node 0, Type 0, BuildingBlock: MIFKUJ_clean_sbu_0, # of connection points: 6
#     Node 1, Type 0, BuildingBlock: MIFKUJ_clean_sbu_0, # of connection points: 6
#     Node 2, Type 0, BuildingBlock: MIFKUJ_clean_sbu_0, # of connection points: 6
#     Node 3, Type 0, BuildingBlock: MIFKUJ_clean_sbu_0, # of connection points: 6
#     Node 4, Type 0, BuildingBlock: MIFKUJ_clean_sbu_0, # of connection points: 6
#     Node 5, Type 0, BuildingBlock: MIFKUJ_clean_sbu_0, # of connection points: 6
#     Edge 6, Type (0, 0), BuildingBlock: CIFDUS_clean_linker_0, # of connection points: 2
#     Edge 7, Type (0, 0), BuildingBlock: CIFDUS_clean_linker_0, # of connection points: 2
#     Edge 8, Type (0, 0), BuildingBlock: CIFDUS_clean_linker_0, # of connection points: 2
#     Edge 9, Type (0, 0), BuildingBlock: CIFDUS_clean_linker_0, # of connection points: 2
#     Edge 10, Type (0, 0), BuildingBlock: CIFDUS_clean_linker_0, # of connection points: 2
#     Edge 11, Type (0, 0), BuildingBlock: CIFDUS_clean_linker_0, # of connection points: 2
#     Edge 12, Type (0, 0), BuildingBlock: CIFDUS_clean_linker_0, # of connection points: 2
#     Edge 13, Type (0, 0), BuildingBlock: CIFDUS_clean_linker_0, # of connection points: 2
#     Edge 14, Type (0, 0), BuildingBlock: CIFDUS_clean_linker_0, # of connection points: 2
#     Edge 15, Type (0, 0), BuildingBlock: CIFDUS_clean_linker_0, # of connection points: 2
#     Edge 16, Type (0, 0), BuildingBlock: CIFDUS_clean_linker_0, # of connection points: 2
#     Edge 17, Type (0, 0), BuildingBlock: CIFDUS_clean_linker_0, # of connection points: 2
#     Edge 18, Type (0, 0), BuildingBlock: CIFDUS_clean_linker_0, # of connection points: 2
#     Edge 19, Type (0, 0), BuildingBlock: CIFDUS_clean_linker_0, # of connection points: 2
#     Edge 20, Type (0, 0), BuildingBlock: CIFDUS_clean_linker_0, # of connection points: 2
#     Edge 21, Type (0, 0), BuildingBlock: CIFDUS_clean_linker_0, # of connection points: 2
#     Edge 22, Type (0, 0), BuildingBlock: CIFDUS_clean_linker_0, # of connection points: 2
#     Edge 23, Type (0, 0), BuildingBlock: CIFDUS_clean_linker_0, # of connection points: 2
# Relax obj value: 0.138
# Max RMSD: 0.178
# Mean RMSD: 0.178
data_MOF--net-sml--node1-MIFKUJ_clean_sbu_0--edge1-CIFDUS_clean_linker_0
_symmetry_space_group_name_H-M    P1
_symmetry_Int_Tables_number       1
_symmetry_cell_setting            triclinic
loop_
_symmetry_equiv_pos_as_xyz
'x, y, z'
_cell_length_a     33.49273
_cell_length_b     33.878877
_cell_length_c     16.616929
_cell_angle_alpha  90.420175
_cell_angle_beta   89.058747
_cell_angle_gamma 120.38345
loop_
_atom_site_label
_atom_site_type_symbol
_atom_site_fract_x
_atom_site_fract_y
_atom_site_fract_z
_atom_type_partial_charge
Zn0 Zn 0.22369 0.42468 0.09056 0.0
Zn1 Zn 0.20231 0.40719 0.90303 0.0
C2 C 0.21912 0.50121 0.15319 0.0
O3 O 0.25012 0.50187 0.20134 0.0
C4 C 0.21454 0.33052 0.87463 0.0
O5 O 0.17648 0.31697 0.83388 0.0
O6 O 0.24045 0.41783 0.20338 0.0
O7 O 0.16915 0.36193 0.06392 0.0
O8 O 0.14379 0.38661 0.96722 0.0
C9 C 0.20765 0.40223 0.25525 0.0
O10 O 0.16557 0.38927 0.23134 0.0
O11 O 0.20193 0.47092 0.09829 0.0
C12 C 0.21882 0.41257 0.73458 0.0
O13 O 0.26088 0.42682 0.76019 0.0
O14 O 0.18649 0.40254 0.78588 0.0
O15 O 0.25241 0.4716 0.91967 0.0
O16 O 0.28281 0.45605 0.0231 0.0
O17 O 0.23023 0.36676 0.91662 0.0
C18 C 0.13562 0.36132 0.02834 0.0
C19 C 0.2869 0.48126 0.96336 0.0
Zn20 Zn 0.80074 0.21121 0.43177 0.0
Zn21 Zn 0.79636 0.19117 0.24199 0.0
C22 C 0.72306 0.2224 0.4595 0.0
O23 O 0.75702 0.26495 0.46506 0.0
C24 C 0.88965 0.19981 0.23946 0.0
O25 O 0.8688 0.15504 0.24506 0.0
O26 O 0.82272 0.22835 0.54476 0.0
O27 O 0.80773 0.15642 0.40681 0.0
O28 O 0.75989 0.13347 0.30567 0.0
C29 C 0.79937 0.19708 0.5961 0.0
O30 O 0.76569 0.15743 0.57082 0.0
O31 O 0.73246 0.19132 0.44203 0.0
C32 C 0.80455 0.20671 0.07542 0.0
O33 O 0.83611 0.24719 0.10155 0.0
O34 O 0.78082 0.17524 0.12622 0.0
O35 O 0.78279 0.24089 0.26522 0.0
O36 O 0.83277 0.26884 0.36392 0.0
O37 O 0.86593 0.21951 0.24361 0.0
C38 C 0.77536 0.12428 0.36748 0.0
C39 C 0.81136 0.27469 0.30692 0.0
Zn40 Zn 0.57374 0.79704 0.74267 0.0
Zn41 Zn 0.58881 0.78786 0.55341 0.0
C42 C 0.49469 0.71865 0.80837 0.0
O43 O 0.49491 0.75067 0.85366 0.0
C44 C 0.67641 0.87621 0.55723 0.0
O45 O 0.69757 0.85248 0.5544 0.0
O46 O 0.58366 0.82175 0.85623 0.0
O47 O 0.63514 0.80315 0.71044 0.0
O48 O 0.60695 0.74984 0.61813 0.0
C49 C 0.59616 0.80165 0.90562 0.0
O50 O 0.60393 0.76958 0.87846 0.0
O51 O 0.52532 0.7297 0.75316 0.0
C52 C 0.58732 0.80086 0.38612 0.0
O53 O 0.57893 0.83236 0.41419 0.0
O54 O 0.59232 0.77527 0.43567 0.0
O55 O 0.52536 0.77718 0.57351 0.0
O56 O 0.54339 0.82464 0.6767 0.0
O57 O 0.63256 0.85555 0.56351 0.0
C58 C 0.6332 0.76829 0.67768 0.0
C59 C 0.51766 0.80363 0.61716 0.0
Zn60 Zn 0.79136 0.56493 0.09846 0.0
Zn61 Zn 0.81614 0.61745 0.88106 0.0
C62 C 0.80319 0.49613 0.17888 0.0
O63 O 0.80079 0.5172 0.24373 0.0
C64 C 0.79392 0.69002 0.88958 0.0
O65 O 0.83824 0.71662 0.90364 0.0
O66 O 0.7837 0.58438 0.21035 0.0
O67 O 0.84629 0.6148 0.04241 0.0
O68 O 0.87815 0.65644 0.93531 0.0
C69 C 0.81786 0.61696 0.24633 0.0
O70 O 0.85639 0.64273 0.20582 0.0
O71 O 0.8007 0.51079 0.11 0.0
C72 C 0.7896 0.58741 0.72326 0.0
O73 O 0.75019 0.56434 0.76295 0.0
O74 O 0.82612 0.61353 0.76206 0.0
O75 O 0.77917 0.55175 0.9239 0.0
O76 O 0.7352 0.5428 0.02978 0.0
O77 O 0.77708 0.64702 0.88484 0.0
C78 C 0.88163 0.6467 0.00744 0.0
C79 C 0.73896 0.53599 0.95531 0.0
Zn80 Zn 0.20489 0.77919 0.40436 0.0
Zn81 Zn 0.21479 0.80087 0.21469 0.0
C82 C 0.28267 0.77708 0.46473 0.0
O83 O 0.24976 0.74557 0.51034 0.0
C84 C 0.13396 0.80531 0.18322 0.0
O85 O 0.16562 0.84558 0.15556 0.0
O86 O 0.18078 0.76555 0.51866 0.0
O87 O 0.20139 0.835 0.37379 0.0
O88 O 0.25464 0.85749 0.27918 0.0
C89 C 0.20271 0.79762 0.56894 0.0
O90 O 0.23651 0.83713 0.54245 0.0
O91 O 0.27238 0.79686 0.41094 0.0
C92 C 0.20547 0.78573 0.04786 0.0
O93 O 0.1725 0.74599 0.0752 0.0
O94 O 0.23113 0.81639 0.09792 0.0
O95 O 0.22108 0.74623 0.23528 0.0
O96 O 0.17367 0.72016 0.34075 0.0
O97 O 0.14697 0.78116 0.22043 0.0
C98 C 0.23725 0.86692 0.33946 0.0
C99 C 0.19402 0.71345 0.28136 0.0
Zn100 Zn 0.45585 0.23135 0.73976 0.0
Zn101 Zn 0.40331 0.20242 0.54361 0.0
C102 C 0.55165 0.30367 0.74941 0.0
O103 O 0.55909 0.26987 0.73348 0.0
C104 C 0.33566 0.10571 0.56866 0.0
O105 O 0.31 0.12096 0.60101 0.0
O106 O 0.44794 0.20362 0.84892 0.0
O107 O 0.39832 0.23656 0.72734 0.0
O108 O 0.36522 0.22121 0.60833 0.0
C109 C 0.44018 0.22595 0.90257 0.0
O110 O 0.43866 0.26241 0.88106 0.0
O111 O 0.51029 0.29579 0.7525 0.0
C112 C 0.41173 0.19623 0.37791 0.0
O113 O 0.42966 0.17212 0.4041 0.0
O114 O 0.39655 0.2139 0.42864 0.0
O115 O 0.47222 0.23794 0.55789 0.0
O116 O 0.47482 0.19797 0.65845 0.0
O117 O 0.37719 0.13407 0.54765 0.0
C118 C 0.36686 0.2332 0.6812 0.0
C119 C 0.49058 0.21756 0.591 0.0
H120 H 0.36966 0.2791 0.81904 0.0
H121 H 0.28459 0.21117 0.61351 0.0
H122 H 0.22782 0.23128 0.66029 0.0
H123 H 0.20455 0.27201 0.75419 0.0
H124 H 0.29099 0.34388 0.95597 0.0
H125 H 0.34457 0.31771 0.91671 0.0
C126 C 0.33853 0.26837 0.78483 0.0
C127 C 0.33164 0.24388 0.71251 0.0
C128 C 0.3062 0.28069 0.81145 0.0
C129 C 0.2911 0.23042 0.66889 0.0
C130 C 0.25848 0.24178 0.69572 0.0
C131 C 0.2347 0.28142 0.79047 0.0
C132 C 0.24367 0.30984 0.85801 0.0
C133 C 0.26597 0.26743 0.76622 0.0
C134 C 0.28323 0.32202 0.90371 0.0
C135 C 0.31399 0.30723 0.88107 0.0
H136 H 0.09967 0.2877 0.13009 0.0
H137 H 0.06497 0.37722 0.00453 0.0
H138 H 0.98735 0.33724 0.06378 0.0
H139 H 0.92892 0.27651 0.14904 0.0
H140 H 0.95969 0.18209 0.26637 0.0
H141 H 0.03939 0.22452 0.2133 0.0
C142 C 0.07504 0.29835 0.11574 0.0
C143 C 0.08812 0.33538 0.06285 0.0
C144 C 0.0299 0.27453 0.14893 0.0
C145 C 0.05575 0.34864 0.04447 0.0
C146 C 0.01139 0.32594 0.07866 0.0
C147 C 0.95316 0.26544 0.16383 0.0
C148 C 0.93864 0.22656 0.21244 0.0
C149 C 0.9981 0.28888 0.13082 0.0
C150 C 0.97019 0.2121 0.22947 0.0
C151 C 0.01566 0.23627 0.19895 0.0
H152 H 0.81058 0.08331 0.46081 0.0
H153 H 0.68555 0.05992 0.34676 0.0
H154 H 0.64343 0.98273 0.40179 0.0
H155 H 0.64212 0.9214 0.47885 0.0
H156 H 0.76754 0.94002 0.58312 0.0
H157 H 0.80956 0.01976 0.53617 0.0
C158 C 0.77414 0.06118 0.44816 0.0
C159 C 0.75123 0.07719 0.39964 0.0
C160 C 0.75022 0.0162 0.47856 0.0
C161 C 0.70409 0.04822 0.38321 0.0
C162 C 0.67988 0.00416 0.41502 0.0
C163 C 0.67854 0.94302 0.49227 0.0
C164 C 0.70163 0.92516 0.53526 0.0
C165 C 0.70259 0.9878 0.46245 0.0
C166 C 0.74904 0.95324 0.55052 0.0
C167 C 0.77302 0.99869 0.52348 0.0
H168 H 0.70506 0.80678 0.78208 0.0
H169 H 0.61723 0.68207 0.65254 0.0
H170 H 0.65668 0.64585 0.71243 0.0
H171 H 0.71723 0.65 0.79821 0.0
H172 H 0.80886 0.77576 0.92138 0.0
H173 H 0.76646 0.81103 0.86811 0.0
C174 C 0.6946 0.77169 0.767 0.0
C175 C 0.65837 0.74724 0.71267 0.0
C176 C 0.71789 0.75118 0.80087 0.0
C177 C 0.64528 0.70183 0.69356 0.0
C178 C 0.66766 0.68097 0.7281 0.0
C179 C 0.72758 0.68494 0.8144 0.0
C180 C 0.76587 0.71012 0.86429 0.0
C181 C 0.70407 0.70535 0.78156 0.0
C182 C 0.77935 0.75562 0.88337 0.0
C183 C 0.75524 0.77583 0.85268 0.0
H184 H 0.06286 0.71841 0.20989 0.0
H185 H 0.09671 0.84475 0.09115 0.0
H186 H 0.0216 0.80696 0.02593 0.0
H187 H 0.94812 0.73652 -0.00486 0.0
H188 H 0.91389 0.61095 0.11641 0.0
H189 H 0.98738 0.64974 0.18724 0.0
C190 C 0.05361 0.73791 0.1707 0.0
C191 C 0.08565 0.7843 0.15504 0.0
C192 C 0.0105 0.71587 0.13265 0.0
C193 C 0.07288 0.80896 0.10416 0.0
C194 C 0.02998 0.78731 0.06635 0.0
C195 C 0.95693 0.7178 0.03705 0.0
C196 C 0.926 0.67097 0.05012 0.0
C197 C 0.99895 0.74052 0.07864 0.0
C198 C 0.93732 0.64708 0.1054 0.0
C199 C 0.97926 0.66923 0.14598 0.0
H200 H 0.36546 0.07176 0.44891 0.0
H201 H 0.25603 0.03189 0.626 0.0
H202 H 0.2158 0.95417 0.57104 0.0
H203 H 0.21026 0.89861 0.46879 0.0
H204 H 0.31873 0.94039 0.28874 0.0
H205 H 0.36033 0.0165 0.3481 0.0
C206 C 0.33313 0.04593 0.47633 0.0
C207 C 0.31391 0.05751 0.54183 0.0
C208 C 0.30961 1.00185 0.443 0.0
C209 C 0.2716 0.02379 0.57568 0.0
C210 C 0.24849 0.97943 0.54403 0.0
C211 C 0.24298 0.92435 0.44246 0.0
C212 C 0.26123 0.91366 0.37422 0.0
C213 C 0.26684 0.96826 0.4769 0.0
C214 C 0.3037 0.94757 0.34099 0.0
C215 C 0.32768 0.99113 0.37512 0.0
H216 H 0.28081 0.43565 0.61091 0.0
H217 H 0.13464 0.37531 0.66268 0.0
H218 H 0.11831 0.36471 0.51906 0.0
H219 H 0.14552 0.37407 0.37907 0.0
H220 H 0.29171 0.4354 0.32671 0.0
H221 H 0.30794 0.44376 0.47056 0.0
C222 C 0.24536 0.42015 0.59085 0.0
C223 C 0.20904 0.4065 0.6475 0.0
C224 C 0.23619 0.41421 0.50815 0.0
C225 C 0.1633 0.38641 0.62039 0.0
C226 C 0.1539 0.38021 0.53826 0.0
C227 C 0.18094 0.38901 0.399 0.0
C228 C 0.21733 0.40408 0.34214 0.0
C229 C 0.19008 0.39416 0.48166 0.0
C230 C 0.26301 0.42336 0.36915 0.0
C231 C 0.27236 0.42832 0.45141 0.0
H232 H 0.85535 0.26383 0.95336 0.0
H233 H 0.73842 0.12927 0.00166 0.0
H234 H 0.72739 0.1143 0.85749 0.0
H235 H 0.75041 0.1395 0.71831 0.0
H236 H 0.86709 0.27407 0.66933 0.0
H237 H 0.87889 0.28882 0.81366 0.0
C238 C 0.82738 0.23125 0.93241 0.0
C239 C 0.79768 0.19777 0.98818 0.0
C240 C 0.82129 0.2228 0.84948 0.0
C241 C 0.76177 0.15565 0.96001 0.0
C242 C 0.75544 0.14703 0.87759 0.0
C243 C 0.77857 0.17203 0.73906 0.0
C244 C 0.80782 0.20563 0.68314 0.0
C245 C 0.78497 0.18036 0.82188 0.0
C246 C 0.84406 0.24761 0.71114 0.0
C247 C 0.85079 0.2561 0.79363 0.0
H248 H 0.58015 0.85143 0.26696 0.0
H249 H 0.60444 0.7396 0.30771 0.0
H250 H 0.61138 0.73161 0.16282 0.0
H251 H 0.60896 0.75517 0.02496 0.0
H252 H 0.58332 0.86604 0.98343 0.0
H253 H 0.57892 0.87584 0.12862 0.0
C254 C 0.58697 0.82529 0.24426 0.0
C255 C 0.5916 0.79604 0.29825 0.0
C256 C 0.59084 0.82081 0.16083 0.0
C257 C 0.60059 0.76248 0.26762 0.0
C258 C 0.60462 0.75792 0.18474 0.0
C259 C 0.60272 0.78173 0.04749 0.0
C260 C 0.59649 0.80985 -0.0067 0.0
C261 C 0.59966 0.78678 0.13085 0.0
C262 C 0.58826 0.84394 0.02376 0.0
C263 C 0.58562 0.84948 0.10678 0.0
H264 H 0.85259 0.65105 0.6194 0.0
H265 H 0.72683 0.51954 0.62834 0.0
H266 H 0.72329 0.51801 0.48167 0.0
H267 H 0.75509 0.55436 0.35122 0.0
H268 H 0.88089 0.68588 0.3411 0.0
H269 H 0.88469 0.6875 0.48792 0.0
C270 C 0.82467 0.62193 0.58909 0.0
C271 C 0.79003 0.58548 0.6345 0.0
C272 C 0.82239 0.62162 0.50468 0.0
C273 C 0.75379 0.54812 0.59461 0.0
C274 C 0.75166 0.54726 0.51079 0.0
C275 C 0.78307 0.58366 0.38105 0.0
C276 C 0.81745 0.62009 0.33519 0.0
C277 C 0.78547 0.58403 0.46529 0.0
C278 C 0.85381 0.65747 0.37495 0.0
C279 C 0.85617 0.65832 0.45891 0.0
H280 H 0.24908 0.85692 0.6896 0.0
H281 H 0.13947 0.71848 0.64493 0.0
H282 H 0.13091 0.70269 0.78932 0.0
H283 H 0.15583 0.72761 0.92764 0.0
H284 H 0.26613 0.8658 0.9719 0.0
H285 H 0.27325 0.88213 0.82785 0.0
C286 C 0.22307 0.82334 0.71134 0.0
C287 C 0.19494 0.78895 0.65647 0.0
C288 C 0.2187 0.81434 0.79425 0.0
C289 C 0.1615 0.74563 0.68582 0.0
C290 C 0.15669 0.73651 0.76837 0.0
C291 C 0.18151 0.76131 0.90587 0.0
C292 C 0.21056 0.79536 0.96049 0.0
C293 C 0.18539 0.77049 0.82302 0.0
C294 C 0.24351 0.83887 0.93117 0.0
C295 C 0.24752 0.84829 0.84881 0.0
H296 H 0.43188 0.15547 0.25561 0.0
H297 H 0.39101 0.2555 0.30536 0.0
H298 H 0.395 0.27231 0.16197 0.0
H299 H 0.41283 0.26075 0.02385 0.0
H300 H 0.45338 0.16064 0.97287 0.0
H301 H 0.4465 0.14149 0.116 0.0
C302 C 0.42372 0.18086 0.23507 0.0
C303 C 0.4115 0.20444 0.29101 0.0
C304 C 0.42609 0.19037 0.15263 0.0
C305 C 0.40057 0.23691 0.26348 0.0
C306 C 0.40294 0.24662 0.18157 0.0
C307 C 0.42012 0.23466 0.04389 0.0
C308 C 0.43397 0.21241 0.98801 0.0
C309 C 0.41612 0.2239 0.12584 0.0
C310 C 0.44277 0.17835 0.01483 0.0
C311 C 0.43893 0.16745 0.09658 0.0
H312 H 0.20677 0.53488 0.2924 0.0
H313 H 0.20298 0.54672 0.03497 0.0
H314 H 0.19248 0.61296 0.05186 0.0
H315 H 0.1911 0.67124 0.14055 0.0
H316 H 0.18988 0.65583 0.39811 0.0
H317 H 0.19523 0.58686 0.38083 0.0
C318 C 0.20305 0.55171 0.24012 0.0
C319 C 0.20611 0.53654 0.1626 0.0
C320 C 0.19635 0.58909 0.25047 0.0
C321 C 0.20063 0.55795 0.09517 0.0
C322 C 0.19491 0.59589 0.10487 0.0
C323 C 0.19136 0.6523 0.19271 0.0
C324 C 0.19046 0.66857 0.27046 0.0
C325 C 0.19372 0.61233 0.18224 0.0
C326 C 0.19032 0.64371 0.33776 0.0
C327 C 0.19367 0.6045 0.32788 0.0
H328 H 0.68409 0.2735 0.43056 0.0
H329 H 0.65633 0.1468 0.53911 0.0
H330 H 0.58165 0.13393 0.59098 0.0
H331 H 0.52589 0.16109 0.61062 0.0
H332 H 0.55275 0.28569 0.49366 0.0
H333 H 0.62591 0.29696 0.43985 0.0
C334 C 0.66138 0.24283 0.46486 0.0
C335 C 0.67557 0.21122 0.48134 0.0
C336 C 0.61849 0.2355 0.49347 0.0
C337 C 0.64585 0.17141 0.52519 0.0
C338 C 0.60336 0.16426 0.55534 0.0
C339 C 0.54782 0.19063 0.57329 0.0
C340 C 0.53414 0.22277 0.55697 0.0
C341 C 0.58961 0.19645 0.54084 0.0
C342 C 0.56249 0.2605 0.50738 0.0
C343 C 0.6044 0.26704 0.47657 0.0
H344 H 0.32535 0.51731 0.81824 0.0
H345 H 0.3462 0.54089 0.07344 0.0
H346 H 0.41387 0.61652 0.04757 0.0
H347 H 0.4635 0.67781 0.95224 0.0
H348 H 0.4465 0.65251 0.69706 0.0
H349 H 0.38096 0.57525 0.72263 0.0
C350 C 0.34515 0.53889 0.868 0.0
C351 C 0.33087 0.52396 0.94757 0.0
C352 C 0.38437 0.58187 0.85257 0.0
C353 C 0.35684 0.55176 0.01175 0.0
C354 C 0.39528 0.59502 -0.00303 0.0
C355 C 0.44561 0.65509 0.90239 0.0
C356 C 0.45911 0.67062 0.82298 0.0
C357 C 0.4088 0.6107 0.91769 0.0
C358 C 0.43647 0.64099 0.75864 0.0
C359 C 0.39898 0.59704 0.77328 0.0
H360 H 0.79534 0.3063 0.16908 0.0
H361 H 0.83947 0.34476 0.41409 0.0
H362 H 0.84139 0.41711 0.39522 0.0
H363 H 0.8274 0.46774 0.31122 0.0
H364 H 0.78655 0.43134 0.06429 0.0
H365 H 0.78702 0.35991 0.08152 0.0
C366 C 0.8056 0.33067 0.21815 0.0
C367 C 0.81668 0.32005 0.29316 0.0
C368 C 0.80725 0.37244 0.20654 0.0
C369 C 0.83067 0.35215 0.35586 0.0
C370 C 0.83165 0.39343 0.3452 0.0
C371 C 0.81876 0.44428 0.26102 0.0
C372 C 0.80656 0.45457 0.18686 0.0
C373 C 0.81948 0.40365 0.27114 0.0
C374 C 0.79602 0.42413 0.12207 0.0
C375 C 0.79614 0.38326 0.13193 0.0
H376 H 0.32421 0.79114 0.60746 0.0
H377 H 0.34837 0.79045 0.35211 0.0
H378 H 0.4253 0.80113 0.37676 0.0
H379 H 0.48254 0.80418 0.47211 0.0
H380 H 0.46017 0.80996 0.72719 0.0
H381 H 0.38566 0.80438 0.70182 0.0
C382 C 0.34667 0.79385 0.55736 0.0
C383 C 0.33087 0.78947 0.47824 0.0
C384 C 0.39086 0.80078 0.57209 0.0
C385 C 0.36014 0.79374 0.41345 0.0
C386 C 0.40388 0.79962 0.4276 0.0
C387 C 0.46151 0.80478 0.52193 0.0
C388 C 0.47631 0.80695 0.60139 0.0
C389 C 0.41915 0.80221 0.50676 0.0
C390 C 0.44934 0.80838 0.66558 0.0
C391 C 0.4067 0.80491 0.65111 0.0
H392 H 0.73992 0.47916 0.8401 0.0
H393 H 0.64745 0.50595 0.98281 0.0
H394 H 0.5807 0.43842 0.92573 0.0
H395 H 0.549 0.36882 0.84233 0.0
H396 H 0.64233 0.33974 0.70745 0.0
H397 H 0.70836 0.41133 0.75381 0.0
C398 C 0.70516 0.4706 0.85799 0.0
C399 C 0.69862 0.49755 0.91561 0.0
C400 C 0.66711 0.43117 0.82653 0.0
C401 C 0.65335 0.48564 0.93875 0.0
C402 C 0.61521 0.44705 0.90615 0.0
C403 C 0.58376 0.37852 0.82222 0.0
C404 C 0.59081 0.34907 0.7715 0.0
C405 C 0.6217 0.41913 0.851 0.0
C406 C 0.63605 0.36176 0.74673 0.0
C407 C 0.67382 0.40266 0.77325 0.0
loop_
_geom_bond_atom_site_label_1
_geom_bond_atom_site_label_2
_geom_bond_distance
_geom_bond_site_symmetry_2
_ccdc_geom_bond_type
Zn0 O6 1.969 . S
Zn0 O7 1.965 . S
Zn0 O11 2.024 . S
Zn0 O16 1.969 . S
Zn1 O8 1.969 . S
Zn1 O14 1.969 . S
Zn1 O15 1.965 . S
Zn1 O17 2.024 . S
C2 O3 1.229 . S
C2 O11 1.058 . S
O3 C2 1.229 . S
C4 O5 1.229 . S
C4 O17 1.058 . S
O5 C4 1.229 . S
O6 Zn0 1.969 . S
O6 C9 1.267 . S
O7 Zn0 1.965 . S
O7 C18 1.260 . S
O8 Zn1 1.969 . S
O8 C18 1.258 1_556 S
C9 O6 1.267 . S
C9 O10 1.228 . S
O10 C9 1.228 . S
O11 Zn0 2.024 . S
O11 C2 1.058 . S
C12 O13 1.228 . S
C12 O14 1.267 . S
O13 C12 1.228 . S
O14 Zn1 1.969 . S
O14 C12 1.267 . S
O15 Zn1 1.965 . S
O15 C19 1.260 . S
O16 Zn0 1.969 . S
O16 C19 1.258 1_554 S
O17 Zn1 2.024 . S
O17 C4 1.058 . S
C18 O7 1.260 . S
C18 O8 1.258 1_554 S
C19 O15 1.260 . S
C19 O16 1.258 1_556 S
Zn20 O26 1.969 . S
Zn20 O27 1.965 . S
Zn20 O31 2.024 . S
Zn20 O36 1.969 . S
Zn21 O28 1.969 . S
Zn21 O34 1.969 . S
Zn21 O35 1.965 . S
Zn21 O37 2.024 . S
C22 O23 1.229 . S
C22 O31 1.058 . S
O23 C22 1.229 . S
C24 O25 1.229 . S
C24 O37 1.058 . S
O25 C24 1.229 . S
O26 Zn20 1.969 . S
O26 C29 1.267 . S
O27 Zn20 1.965 . S
O27 C38 1.260 . S
O28 Zn21 1.969 . S
O28 C38 1.258 . S
C29 O26 1.267 . S
C29 O30 1.228 . S
O30 C29 1.228 . S
O31 Zn20 2.024 . S
O31 C22 1.058 . S
C32 O33 1.228 . S
C32 O34 1.267 . S
O33 C32 1.228 . S
O34 Zn21 1.969 . S
O34 C32 1.267 . S
O35 Zn21 1.965 . S
O35 C39 1.260 . S
O36 Zn20 1.969 . S
O36 C39 1.258 . S
O37 Zn21 2.024 . S
O37 C24 1.058 . S
C38 O27 1.260 . S
C38 O28 1.258 . S
C39 O35 1.260 . S
C39 O36 1.258 . S
Zn40 O46 1.969 . S
Zn40 O47 1.965 . S
Zn40 O51 2.024 . S
Zn40 O56 1.969 . S
Zn41 O48 1.969 . S
Zn41 O54 1.969 . S
Zn41 O55 1.965 . S
Zn41 O57 2.024 . S
C42 O43 1.229 . S
C42 O51 1.058 . S
O43 C42 1.229 . S
C44 O45 1.229 . S
C44 O57 1.058 . S
O45 C44 1.229 . S
O46 Zn40 1.969 . S
O46 C49 1.267 . S
O47 Zn40 1.965 . S
O47 C58 1.260 . S
O48 Zn41 1.969 . S
O48 C58 1.258 . S
C49 O46 1.267 . S
C49 O50 1.228 . S
O50 C49 1.228 . S
O51 Zn40 2.024 . S
O51 C42 1.058 . S
C52 O53 1.228 . S
C52 O54 1.267 . S
O53 C52 1.228 . S
O54 Zn41 1.969 . S
O54 C52 1.267 . S
O55 Zn41 1.965 . S
O55 C59 1.260 . S
O56 Zn40 1.969 . S
O56 C59 1.258 . S
O57 Zn41 2.024 . S
O57 C44 1.058 . S
C58 O47 1.260 . S
C58 O48 1.258 . S
C59 O55 1.260 . S
C59 O56 1.258 . S
Zn60 O66 1.969 . S
Zn60 O67 1.965 . S
Zn60 O71 2.024 . S
Zn60 O76 1.969 . S
Zn61 O68 1.969 . S
Zn61 O74 1.969 . S
Zn61 O75 1.965 . S
Zn61 O77 2.024 . S
C62 O63 1.229 . S
C62 O71 1.058 . S
O63 C62 1.229 . S
C64 O65 1.229 . S
C64 O77 1.058 . S
O65 C64 1.229 . S
O66 Zn60 1.969 . S
O66 C69 1.267 . S
O67 Zn60 1.965 . S
O67 C78 1.260 . S
O68 Zn61 1.969 . S
O68 C78 1.258 1_556 S
C69 O66 1.267 . S
C69 O70 1.228 . S
O70 C69 1.228 . S
O71 Zn60 2.024 . S
O71 C62 1.058 . S
C72 O73 1.228 . S
C72 O74 1.267 . S
O73 C72 1.228 . S
O74 Zn61 1.969 . S
O74 C72 1.267 . S
O75 Zn61 1.965 . S
O75 C79 1.260 . S
O76 Zn60 1.969 . S
O76 C79 1.258 1_554 S
O77 Zn61 2.024 . S
O77 C64 1.058 . S
C78 O67 1.260 . S
C78 O68 1.258 1_554 S
C79 O75 1.260 . S
C79 O76 1.258 1_556 S
Zn80 O86 1.969 . S
Zn80 O87 1.965 . S
Zn80 O91 2.024 . S
Zn80 O96 1.969 . S
Zn81 O88 1.969 . S
Zn81 O94 1.969 . S
Zn81 O95 1.965 . S
Zn81 O97 2.024 . S
C82 O83 1.229 . S
C82 O91 1.058 . S
O83 C82 1.229 . S
C84 O85 1.229 . S
C84 O97 1.058 . S
O85 C84 1.229 . S
O86 Zn80 1.969 . S
O86 C89 1.267 . S
O87 Zn80 1.965 . S
O87 C98 1.260 . S
O88 Zn81 1.969 . S
O88 C98 1.258 . S
C89 O86 1.267 . S
C89 O90 1.228 . S
O90 C89 1.228 . S
O91 Zn80 2.024 . S
O91 C82 1.058 . S
C92 O93 1.228 . S
C92 O94 1.267 . S
O93 C92 1.228 . S
O94 Zn81 1.969 . S
O94 C92 1.267 . S
O95 Zn81 1.965 . S
O95 C99 1.260 . S
O96 Zn80 1.969 . S
O96 C99 1.258 . S
O97 Zn81 2.024 . S
O97 C84 1.058 . S
C98 O87 1.260 . S
C98 O88 1.258 . S
C99 O95 1.260 . S
C99 O96 1.258 . S
Zn100 O106 1.969 . S
Zn100 O107 1.965 . S
Zn100 O111 2.024 . S
Zn100 O116 1.969 . S
Zn101 O108 1.969 . S
Zn101 O114 1.969 . S
Zn101 O115 1.965 . S
Zn101 O117 2.024 . S
C102 O103 1.229 . S
C102 O111 1.058 . S
O103 C102 1.229 . S
C104 O105 1.229 . S
C104 O117 1.058 . S
O105 C104 1.229 . S
O106 Zn100 1.969 . S
O106 C109 1.267 . S
O107 Zn100 1.965 . S
O107 C118 1.260 . S
O108 Zn101 1.969 . S
O108 C118 1.258 . S
C109 O106 1.267 . S
C109 O110 1.228 . S
O110 C109 1.228 . S
O111 Zn100 2.024 . S
O111 C102 1.058 . S
C112 O113 1.228 . S
C112 O114 1.267 . S
O113 C112 1.228 . S
O114 Zn101 1.969 . S
O114 C112 1.267 . S
O115 Zn101 1.965 . S
O115 C119 1.260 . S
O116 Zn100 1.969 . S
O116 C119 1.258 . S
O117 Zn101 2.024 . S
O117 C104 1.058 . S
C118 O107 1.260 . S
C118 O108 1.258 . S
C119 O115 1.260 . S
C119 O116 1.258 . S
H120 C126 0.930 . S
H121 C129 0.930 . S
H122 C130 0.930 . S
H123 C131 0.930 . S
H124 C134 0.930 . S
H125 C135 0.930 . S
C126 H120 0.930 . S
C126 C127 1.355 . S
C126 C128 1.415 . S
C127 C126 1.355 . S
C127 C129 1.419 . S
C128 C126 1.415 . S
C128 C133 1.425 . S
C128 C135 1.409 . S
C129 H121 0.930 . S
C129 C127 1.419 . S
C129 C130 1.362 . S
C130 H122 0.930 . S
C130 C129 1.362 . S
C130 C133 1.409 . S
C131 H123 0.930 . S
C131 C132 1.355 . S
C131 C133 1.415 . S
C132 C131 1.355 . S
C132 C134 1.419 . S
C133 C128 1.425 . S
C133 C130 1.409 . S
C133 C131 1.415 . S
C134 H124 0.930 . S
C134 C132 1.419 . S
C134 C135 1.362 . S
C135 H125 0.930 . S
C135 C128 1.409 . S
C135 C134 1.362 . S
H136 C142 0.930 . S
H137 C145 0.930 . S
H138 C146 0.930 . S
H139 C147 0.930 . S
H140 C150 0.930 . S
H141 C151 0.930 . S
C142 H136 0.930 . S
C142 C143 1.355 . S
C142 C144 1.415 . S
C143 C142 1.355 . S
C143 C145 1.419 . S
C144 C142 1.415 . S
C144 C149 1.425 . S
C144 C151 1.409 . S
C145 H137 0.930 . S
C145 C143 1.419 . S
C145 C146 1.362 . S
C146 H138 0.930 . S
C146 C145 1.362 . S
C146 C149 1.409 . S
C147 H139 0.930 . S
C147 C148 1.355 . S
C147 C149 1.415 1_655 S
C148 C147 1.355 . S
C148 C150 1.419 . S
C149 C144 1.425 . S
C149 C146 1.409 . S
C149 C147 1.415 1_455 S
C150 H140 0.930 . S
C150 C148 1.419 . S
C150 C151 1.362 1_655 S
C151 H141 0.930 . S
C151 C144 1.409 . S
C151 C150 1.362 1_455 S
H152 C158 0.930 . S
H153 C161 0.930 . S
H154 C162 0.930 . S
H155 C163 0.930 . S
H156 C166 0.930 . S
H157 C167 0.930 . S
C158 H152 0.930 . S
C158 C159 1.355 . S
C158 C160 1.415 . S
C159 C158 1.355 . S
C159 C161 1.419 . S
C160 C158 1.415 . S
C160 C165 1.425 . S
C160 C167 1.409 . S
C161 H153 0.930 . S
C161 C159 1.419 . S
C161 C162 1.362 . S
C162 H154 0.930 . S
C162 C161 1.362 . S
C162 C165 1.409 . S
C163 H155 0.930 . S
C163 C164 1.355 . S
C163 C165 1.415 1_565 S
C164 C163 1.355 . S
C164 C166 1.419 . S
C165 C160 1.425 . S
C165 C162 1.409 . S
C165 C163 1.415 1_545 S
C166 H156 0.930 . S
C166 C164 1.419 . S
C166 C167 1.362 1_565 S
C167 H157 0.930 . S
C167 C160 1.409 . S
C167 C166 1.362 1_545 S
H168 C174 0.930 . S
H169 C177 0.930 . S
H170 C178 0.930 . S
H171 C179 0.930 . S
H172 C182 0.930 . S
H173 C183 0.930 . S
C174 H168 0.930 . S
C174 C175 1.355 . S
C174 C176 1.415 . S
C175 C174 1.355 . S
C175 C177 1.419 . S
C176 C174 1.415 . S
C176 C181 1.425 . S
C176 C183 1.409 . S
C177 H169 0.930 . S
C177 C175 1.419 . S
C177 C178 1.362 . S
C178 H170 0.930 . S
C178 C177 1.362 . S
C178 C181 1.409 . S
C179 H171 0.930 . S
C179 C180 1.355 . S
C179 C181 1.415 . S
C180 C179 1.355 . S
C180 C182 1.419 . S
C181 C176 1.425 . S
C181 C178 1.409 . S
C181 C179 1.415 . S
C182 H172 0.930 . S
C182 C180 1.419 . S
C182 C183 1.362 . S
C183 H173 0.930 . S
C183 C176 1.409 . S
C183 C182 1.362 . S
H184 C190 0.930 . S
H185 C193 0.930 . S
H186 C194 0.930 . S
H187 C195 0.930 . S
H188 C198 0.930 . S
H189 C199 0.930 . S
C190 H184 0.930 . S
C190 C191 1.355 . S
C190 C192 1.415 1_455 S
C191 C190 1.355 . S
C191 C193 1.419 . S
C192 C190 1.415 1_655 S
C192 C197 1.425 . S
C192 C199 1.409 . S
C193 H185 0.930 . S
C193 C191 1.419 . S
C193 C194 1.362 1_455 S
C194 H186 0.930 . S
C194 C193 1.362 1_655 S
C194 C197 1.409 . S
C195 H187 0.930 . S
C195 C196 1.355 . S
C195 C197 1.415 . S
C196 C195 1.355 . S
C196 C198 1.419 . S
C197 C192 1.425 . S
C197 C194 1.409 . S
C197 C195 1.415 . S
C198 H188 0.930 . S
C198 C196 1.419 . S
C198 C199 1.362 . S
C199 H189 0.930 . S
C199 C192 1.409 . S
C199 C198 1.362 . S
H200 C206 0.930 . S
H201 C209 0.930 . S
H202 C210 0.930 . S
H203 C211 0.930 . S
H204 C214 0.930 . S
H205 C215 0.934 . S
C206 H200 0.930 . S
C206 C207 1.355 . S
C206 C208 1.415 1_545 S
C207 C206 1.355 . S
C207 C209 1.419 . S
C208 C206 1.415 1_565 S
C208 C213 1.425 . S
C208 C215 1.409 . S
C209 H201 0.930 . S
C209 C207 1.419 . S
C209 C210 1.362 1_545 S
C210 H202 0.930 . S
C210 C209 1.362 1_565 S
C210 C213 1.409 . S
C211 H203 0.930 . S
C211 C212 1.355 . S
C211 C213 1.415 . S
C212 C211 1.355 . S
C212 C214 1.419 . S
C213 C208 1.425 . S
C213 C210 1.409 . S
C213 C211 1.415 . S
C214 H204 0.930 . S
C214 C212 1.419 . S
C214 C215 1.362 . S
C215 H205 0.934 . S
C215 C208 1.409 . S
C215 C214 1.362 . S
H216 C222 0.930 . S
H217 C225 0.930 . S
H218 C226 0.930 . S
H219 C227 0.930 . S
H220 C230 0.930 . S
H221 C231 0.930 . S
C222 H216 0.930 . S
C222 C223 1.355 . S
C222 C224 1.415 . S
C223 C222 1.355 . S
C223 C225 1.419 . S
C224 C222 1.415 . S
C224 C229 1.425 . S
C224 C231 1.409 . S
C225 H217 0.930 . S
C225 C223 1.419 . S
C225 C226 1.362 . S
C226 H218 0.930 . S
C226 C225 1.362 . S
C226 C229 1.409 . S
C227 H219 0.930 . S
C227 C228 1.355 . S
C227 C229 1.415 . S
C228 C227 1.355 . S
C228 C230 1.419 . S
C229 C224 1.425 . S
C229 C226 1.409 . S
C229 C227 1.415 . S
C230 H220 0.930 . S
C230 C228 1.419 . S
C230 C231 1.362 . S
C231 H221 0.930 . S
C231 C224 1.409 . S
C231 C230 1.362 . S
H232 C238 0.930 . S
H233 C241 0.930 1_554 S
H234 C242 0.930 . S
H235 C243 0.930 . S
H236 C246 0.930 . S
H237 C247 0.930 . S
C238 H232 0.930 . S
C238 C239 1.355 . S
C238 C240 1.415 . S
C239 C238 1.355 . S
C239 C241 1.419 . S
C240 C238 1.415 . S
C240 C245 1.425 . S
C240 C247 1.409 . S
C241 H233 0.930 1_556 S
C241 C239 1.419 . S
C241 C242 1.362 . S
C242 H234 0.930 . S
C242 C241 1.362 . S
C242 C245 1.409 . S
C243 H235 0.930 . S
C243 C244 1.355 . S
C243 C245 1.415 . S
C244 C243 1.355 . S
C244 C246 1.419 . S
C245 C240 1.425 . S
C245 C242 1.409 . S
C245 C243 1.415 . S
C246 H236 0.930 . S
C246 C244 1.419 . S
C246 C247 1.362 . S
C247 H237 0.930 . S
C247 C240 1.409 . S
C247 C246 1.362 . S
H248 C254 0.930 . S
H249 C257 0.930 . S
H250 C258 0.930 . S
H251 C259 0.930 . S
H252 C262 0.930 . S
H253 C263 0.930 . S
C254 H248 0.930 . S
C254 C255 1.355 . S
C254 C256 1.415 . S
C255 C254 1.355 . S
C255 C257 1.419 . S
C256 C254 1.415 . S
C256 C261 1.425 . S
C256 C263 1.409 . S
C257 H249 0.930 . S
C257 C255 1.419 . S
C257 C258 1.362 . S
C258 H250 0.930 . S
C258 C257 1.362 . S
C258 C261 1.409 . S
C259 H251 0.930 . S
C259 C260 1.355 . S
C259 C261 1.415 . S
C260 C259 1.355 . S
C260 C262 1.419 . S
C261 C256 1.425 . S
C261 C258 1.409 . S
C261 C259 1.415 . S
C262 H252 0.930 . S
C262 C260 1.419 . S
C262 C263 1.362 . S
C263 H253 0.930 . S
C263 C256 1.409 . S
C263 C262 1.362 . S
H264 C270 0.930 . S
H265 C273 0.930 . S
H266 C274 0.930 . S
H267 C275 0.930 . S
H268 C278 0.930 . S
H269 C279 0.930 . S
C270 H264 0.930 . S
C270 C271 1.355 . S
C270 C272 1.415 . S
C271 C270 1.355 . S
C271 C273 1.419 . S
C272 C270 1.415 . S
C272 C277 1.425 . S
C272 C279 1.409 . S
C273 H265 0.930 . S
C273 C271 1.419 . S
C273 C274 1.362 . S
C274 H266 0.930 . S
C274 C273 1.362 . S
C274 C277 1.409 . S
C275 H267 0.930 . S
C275 C276 1.355 . S
C275 C277 1.415 . S
C276 C275 1.355 . S
C276 C278 1.419 . S
C277 C272 1.425 . S
C277 C274 1.409 . S
C277 C275 1.415 . S
C278 H268 0.930 . S
C278 C276 1.419 . S
C278 C279 1.362 . S
C279 H269 0.930 . S
C279 C272 1.409 . S
C279 C278 1.362 . S
H280 C286 0.930 . S
H281 C289 0.930 . S
H282 C290 0.930 . S
H283 C291 0.930 . S
H284 C294 0.930 . S
H285 C295 0.930 . S
C286 H280 0.930 . S
C286 C287 1.355 . S
C286 C288 1.415 . S
C287 C286 1.355 . S
C287 C289 1.419 . S
C288 C286 1.415 . S
C288 C293 1.425 . S
C288 C295 1.409 . S
C289 H281 0.930 . S
C289 C287 1.419 . S
C289 C290 1.362 . S
C290 H282 0.930 . S
C290 C289 1.362 . S
C290 C293 1.409 . S
C291 H283 0.930 . S
C291 C292 1.355 . S
C291 C293 1.415 . S
C292 C291 1.355 . S
C292 C294 1.419 . S
C293 C288 1.425 . S
C293 C290 1.409 . S
C293 C291 1.415 . S
C294 H284 0.930 . S
C294 C292 1.419 . S
C294 C295 1.362 . S
C295 H285 0.930 . S
C295 C288 1.409 . S
C295 C294 1.362 . S
H296 C302 0.930 . S
H297 C305 0.930 . S
H298 C306 0.930 . S
H299 C307 0.930 . S
H300 C310 0.930 . S
H301 C311 0.930 . S
C302 H296 0.930 . S
C302 C303 1.355 . S
C302 C304 1.415 . S
C303 C302 1.355 . S
C303 C305 1.419 . S
C304 C302 1.415 . S
C304 C309 1.425 . S
C304 C311 1.409 . S
C305 H297 0.930 . S
C305 C303 1.419 . S
C305 C306 1.362 . S
C306 H298 0.930 . S
C306 C305 1.362 . S
C306 C309 1.409 . S
C307 H299 0.930 . S
C307 C308 1.355 . S
C307 C309 1.415 . S
C308 C307 1.355 . S
C308 C310 1.419 . S
C309 C304 1.425 . S
C309 C306 1.409 . S
C309 C307 1.415 . S
C310 H300 0.930 . S
C310 C308 1.419 . S
C310 C311 1.362 . S
C311 H301 0.930 . S
C311 C304 1.409 . S
C311 C310 1.362 . S
H312 C318 0.930 . S
H313 C321 0.930 . S
H314 C322 0.930 . S
H315 C323 0.930 . S
H316 C326 0.930 . S
H317 C327 0.930 . S
C318 H312 0.930 . S
C318 C319 1.355 . S
C318 C320 1.415 . S
C319 C318 1.355 . S
C319 C321 1.419 . S
C320 C318 1.415 . S
C320 C325 1.425 . S
C320 C327 1.409 . S
C321 H313 0.930 . S
C321 C319 1.419 . S
C321 C322 1.362 . S
C322 H314 0.930 . S
C322 C321 1.362 . S
C322 C325 1.409 . S
C323 H315 0.930 . S
C323 C324 1.355 . S
C323 C325 1.415 . S
C324 C323 1.355 . S
C324 C326 1.419 . S
C325 C320 1.425 . S
C325 C322 1.409 . S
C325 C323 1.415 . S
C326 H316 0.930 . S
C326 C324 1.419 . S
C326 C327 1.362 . S
C327 H317 0.930 . S
C327 C320 1.409 . S
C327 C326 1.362 . S
H328 C334 0.930 . S
H329 C337 0.930 . S
H330 C338 0.930 . S
H331 C339 0.930 . S
H332 C342 0.930 . S
H333 C343 0.930 . S
C334 H328 0.930 . S
C334 C335 1.355 . S
C334 C336 1.415 . S
C335 C334 1.355 . S
C335 C337 1.419 . S
C336 C334 1.415 . S
C336 C341 1.425 . S
C336 C343 1.409 . S
C337 H329 0.930 . S
C337 C335 1.419 . S
C337 C338 1.362 . S
C338 H330 0.930 . S
C338 C337 1.362 . S
C338 C341 1.409 . S
C339 H331 0.930 . S
C339 C340 1.355 . S
C339 C341 1.415 . S
C340 C339 1.355 . S
C340 C342 1.419 . S
C341 C336 1.425 . S
C341 C338 1.409 . S
C341 C339 1.415 . S
C342 H332 0.930 . S
C342 C340 1.419 . S
C342 C343 1.362 . S
C343 H333 0.930 . S
C343 C336 1.409 . S
C343 C342 1.362 . S
H344 C350 0.930 . S
H345 C353 0.930 1_554 S
H346 C354 0.930 1_554 S
H347 C355 0.930 . S
H348 C358 0.930 . S
H349 C359 0.930 . S
C350 H344 0.930 . S
C350 C351 1.355 . S
C350 C352 1.415 . S
C351 C350 1.355 . S
C351 C353 1.419 . S
C352 C350 1.415 . S
C352 C357 1.425 . S
C352 C359 1.409 . S
C353 H345 0.930 1_556 S
C353 C351 1.419 . S
C353 C354 1.362 . S
C354 H346 0.930 1_556 S
C354 C353 1.362 . S
C354 C357 1.409 . S
C355 H347 0.930 . S
C355 C356 1.355 . S
C355 C357 1.415 . S
C356 C355 1.355 . S
C356 C358 1.419 . S
C357 C352 1.425 . S
C357 C354 1.409 . S
C357 C355 1.415 . S
C358 H348 0.930 . S
C358 C356 1.419 . S
C358 C359 1.362 . S
C359 H349 0.930 . S
C359 C352 1.409 . S
C359 C358 1.362 . S
H360 C366 0.930 . S
H361 C369 0.930 . S
H362 C370 0.930 . S
H363 C371 0.930 . S
H364 C374 0.930 . S
H365 C375 0.930 . S
C366 H360 0.930 . S
C366 C367 1.355 . S
C366 C368 1.415 . S
C367 C366 1.355 . S
C367 C369 1.419 . S
C368 C366 1.415 . S
C368 C373 1.425 . S
C368 C375 1.409 . S
C369 H361 0.930 . S
C369 C367 1.419 . S
C369 C370 1.362 . S
C370 H362 0.930 . S
C370 C369 1.362 . S
C370 C373 1.409 . S
C371 H363 0.930 . S
C371 C372 1.355 . S
C371 C373 1.415 . S
C372 C371 1.355 . S
C372 C374 1.419 . S
C373 C368 1.425 . S
C373 C370 1.409 . S
C373 C371 1.415 . S
C374 H364 0.930 . S
C374 C372 1.419 . S
C374 C375 1.362 . S
C375 H365 0.930 . S
C375 C368 1.409 . S
C375 C374 1.362 . S
H376 C382 0.930 . S
H377 C385 0.930 . S
H378 C386 0.930 . S
H379 C387 0.930 . S
H380 C390 0.930 . S
H381 C391 0.930 . S
C382 H376 0.930 . S
C382 C383 1.355 . S
C382 C384 1.415 . S
C383 C382 1.355 . S
C383 C385 1.419 . S
C384 C382 1.415 . S
C384 C389 1.425 . S
C384 C391 1.409 . S
C385 H377 0.930 . S
C385 C383 1.419 . S
C385 C386 1.362 . S
C386 H378 0.930 . S
C386 C385 1.362 . S
C386 C389 1.409 . S
C387 H379 0.930 . S
C387 C388 1.355 . S
C387 C389 1.415 . S
C388 C387 1.355 . S
C388 C390 1.419 . S
C389 C384 1.425 . S
C389 C386 1.409 . S
C389 C387 1.415 . S
C390 H380 0.930 . S
C390 C388 1.419 . S
C390 C391 1.362 . S
C391 H381 0.930 . S
C391 C384 1.409 . S
C391 C390 1.362 . S
H392 C398 0.930 . S
H393 C401 0.930 . S
H394 C402 0.930 . S
H395 C403 0.930 . S
H396 C406 0.930 . S
H397 C407 0.930 . S
C398 H392 0.930 . S
C398 C399 1.355 . S
C398 C400 1.415 . S
C399 C398 1.355 . S
C399 C401 1.419 . S
C400 C398 1.415 . S
C400 C405 1.425 . S
C400 C407 1.409 . S
C401 H393 0.930 . S
C401 C399 1.419 . S
C401 C402 1.362 . S
C402 H394 0.930 . S
C402 C401 1.362 . S
C402 C405 1.409 . S
C403 H395 0.930 . S
C403 C404 1.355 . S
C403 C405 1.415 . S
C404 C403 1.355 . S
C404 C406 1.419 . S
C405 C400 1.425 . S
C405 C402 1.409 . S
C405 C403 1.415 . S
C406 H396 0.930 . S
C406 C404 1.419 . S
C406 C407 1.362 . S
C407 H397 0.930 . S
C407 C400 1.409 . S
C407 C406 1.362 . S
C127 C118 1.435 . S
C132 C4 1.381 . S
C143 C18 1.444 . S
C148 C24 1.398 . S
C159 C38 1.444 . S
C164 C44 1.393 . S
C175 C58 1.444 . S
C180 C64 1.379 . S
C191 C84 1.346 . S
C196 C78 1.441 . S
C207 C104 1.397 . S
C212 C98 1.444 . S
C223 C12 1.260 . S
C228 C9 1.260 . S
C239 C32 1.263 1_556 S
C244 C29 1.263 . S
C255 C52 1.299 . S
C260 C49 1.299 1_554 S
C271 C72 1.249 . S
C276 C69 1.249 . S
C287 C89 1.259 . S
C292 C92 1.259 1_556 S
C303 C112 1.279 . S
C308 C109 1.279 1_554 S
C319 C2 1.473 . S
C324 C99 1.489 . S
C335 C22 1.371 . S
C340 C119 1.524 . S
C351 C19 1.506 . S
C356 C42 1.465 . S
C367 C39 1.528 . S
C372 C62 1.430 . S
C383 C82 1.468 . S
C388 C59 1.503 . S
C399 C79 1.537 . S
C404 C102 1.378 . S
