# Generated by pormake.
# Topology ung, (4)-cn, num edge types: 1
# Building blocks:
#     Node 0, Type 0, BuildingBlock: QUQFOY_clean_sbu_1, # of connection points: 4
#     Node 1, Type 0, BuildingBlock: QUQFOY_clean_sbu_1, # of connection points: 4
#     Node 2, Type 0, BuildingBlock: QUQFOY_clean_sbu_1, # of connection points: 4
#     Node 3, Type 0, BuildingBlock: QUQFOY_clean_sbu_1, # of connection points: 4
#     Node 4, Type 0, BuildingBlock: QUQFOY_clean_sbu_1, # of connection points: 4
#     Node 5, Type 0, BuildingBlock: QUQFOY_clean_sbu_1, # of connection points: 4
#     Node 6, Type 0, BuildingBlock: QUQFOY_clean_sbu_1, # of connection points: 4
#     Node 7, Type 0, BuildingBlock: QUQFOY_clean_sbu_1, # of connection points: 4
#     Node 8, Type 0, BuildingBlock: QUQFOY_clean_sbu_1, # of connection points: 4
#     Node 9, Type 0, BuildingBlock: QUQFOY_clean_sbu_1, # of connection points: 4
#     Node 10, Type 0, BuildingBlock: QUQFOY_clean_sbu_1, # of connection points: 4
#     Node 11, Type 0, BuildingBlock: QUQFOY_clean_sbu_1, # of connection points: 4
#     Node 12, Type 0, BuildingBlock: QUQFOY_clean_sbu_1, # of connection points: 4
#     Node 13, Type 0, BuildingBlock: QUQFOY_clean_sbu_1, # of connection points: 4
#     Node 14, Type 0, BuildingBlock: QUQFOY_clean_sbu_1, # of connection points: 4
#     Node 15, Type 0, BuildingBlock: QUQFOY_clean_sbu_1, # of connection points: 4
#     Node 16, Type 0, BuildingBlock: QUQFOY_clean_sbu_1, # of connection points: 4
#     Node 17, Type 0, BuildingBlock: QUQFOY_clean_sbu_1, # of connection points: 4
#     Edge 18, Type (0, 0), BuildingBlock: UVAHIK_clean_linker_0, # of connection points: 2
#     Edge 19, Type (0, 0), BuildingBlock: UVAHIK_clean_linker_0, # of connection points: 2
#     Edge 20, Type (0, 0), BuildingBlock: UVAHIK_clean_linker_0, # of connection points: 2
#     Edge 21, Type (0, 0), BuildingBlock: UVAHIK_clean_linker_0, # of connection points: 2
#     Edge 22, Type (0, 0), BuildingBlock: UVAHIK_clean_linker_0, # of connection points: 2
#     Edge 23, Type (0, 0), BuildingBlock: UVAHIK_clean_linker_0, # of connection points: 2
#     Edge 24, Type (0, 0), BuildingBlock: UVAHIK_clean_linker_0, # of connection points: 2
#     Edge 25, Type (0, 0), BuildingBlock: UVAHIK_clean_linker_0, # of connection points: 2
#     Edge 26, Type (0, 0), BuildingBlock: UVAHIK_clean_linker_0, # of connection points: 2
#     Edge 27, Type (0, 0), BuildingBlock: UVAHIK_clean_linker_0, # of connection points: 2
#     Edge 28, Type (0, 0), BuildingBlock: UVAHIK_clean_linker_0, # of connection points: 2
#     Edge 29, Type (0, 0), BuildingBlock: UVAHIK_clean_linker_0, # of connection points: 2
#     Edge 30, Type (0, 0), BuildingBlock: UVAHIK_clean_linker_0, # of connection points: 2
#     Edge 31, Type (0, 0), BuildingBlock: UVAHIK_clean_linker_0, # of connection points: 2
#     Edge 32, Type (0, 0), BuildingBlock: UVAHIK_clean_linker_0, # of connection points: 2
#     Edge 33, Type (0, 0), BuildingBlock: UVAHIK_clean_linker_0, # of connection points: 2
#     Edge 34, Type (0, 0), BuildingBlock: UVAHIK_clean_linker_0, # of connection points: 2
#     Edge 35, Type (0, 0), BuildingBlock: UVAHIK_clean_linker_0, # of connection points: 2
#     Edge 36, Type (0, 0), BuildingBlock: UVAHIK_clean_linker_0, # of connection points: 2
#     Edge 37, Type (0, 0), BuildingBlock: UVAHIK_clean_linker_0, # of connection points: 2
#     Edge 38, Type (0, 0), BuildingBlock: UVAHIK_clean_linker_0, # of connection points: 2
#     Edge 39, Type (0, 0), BuildingBlock: UVAHIK_clean_linker_0, # of connection points: 2
#     Edge 40, Type (0, 0), BuildingBlock: UVAHIK_clean_linker_0, # of connection points: 2
#     Edge 41, Type (0, 0), BuildingBlock: UVAHIK_clean_linker_0, # of connection points: 2
#     Edge 42, Type (0, 0), BuildingBlock: UVAHIK_clean_linker_0, # of connection points: 2
#     Edge 43, Type (0, 0), BuildingBlock: UVAHIK_clean_linker_0, # of connection points: 2
#     Edge 44, Type (0, 0), BuildingBlock: UVAHIK_clean_linker_0, # of connection points: 2
#     Edge 45, Type (0, 0), BuildingBlock: UVAHIK_clean_linker_0, # of connection points: 2
#     Edge 46, Type (0, 0), BuildingBlock: UVAHIK_clean_linker_0, # of connection points: 2
#     Edge 47, Type (0, 0), BuildingBlock: UVAHIK_clean_linker_0, # of connection points: 2
#     Edge 48, Type (0, 0), BuildingBlock: UVAHIK_clean_linker_0, # of connection points: 2
#     Edge 49, Type (0, 0), BuildingBlock: UVAHIK_clean_linker_0, # of connection points: 2
#     Edge 50, Type (0, 0), BuildingBlock: UVAHIK_clean_linker_0, # of connection points: 2
#     Edge 51, Type (0, 0), BuildingBlock: UVAHIK_clean_linker_0, # of connection points: 2
#     Edge 52, Type (0, 0), BuildingBlock: UVAHIK_clean_linker_0, # of connection points: 2
#     Edge 53, Type (0, 0), BuildingBlock: UVAHIK_clean_linker_0, # of connection points: 2
# Relax obj value: 0.067
# Max RMSD: 0.172
# Mean RMSD: 0.149
data_MOF--net-ung--node1-QUQFOY_clean_sbu_1--edge1-UVAHIK_clean_linker_0
_symmetry_space_group_name_H-M    P1
_symmetry_Int_Tables_number       1
_symmetry_cell_setting            triclinic
loop_
_symmetry_equiv_pos_as_xyz
'x, y, z'
_cell_length_a     90.330945
_cell_length_b     107.43493
_cell_length_c     29.111758
_cell_angle_alpha  90.549361
_cell_angle_beta   93.833514
_cell_angle_gamma 125.15046
loop_
_atom_site_label
_atom_site_type_symbol
_atom_site_fract_x
_atom_site_fract_y
_atom_site_fract_z
_atom_type_partial_charge
O0 O 0.04292 0.56324 0.29738 0.0
Cd1 Cd 0.04626 0.57727 0.24544 0.0
Cd2 Cd 0.01845 0.57525 0.28324 0.0
O3 O 0.01693 0.55787 0.31884 0.0
O4 O 0.05779 0.57359 0.19554 0.0
O5 O 0.02957 0.56702 0.18797 0.0
C6 C 0.0424 0.56703 0.17099 0.0
C7 C 0.9941 0.57235 0.23834 0.0
C8 C 0.02949 0.55579 0.32163 0.0
C9 C 0.05509 0.60594 0.29053 0.0
O10 O 0.03923 0.59757 0.3042 0.0
O11 O 0.06054 0.60035 0.26323 0.0
O12 O 0.99535 0.57396 0.28275 0.0
O13 O 0.00614 0.57156 0.21984 0.0
O14 O 0.4827 0.45887 0.30619 0.0
Cd15 Cd 0.46564 0.44672 0.24867 0.0
Cd16 Cd 0.46821 0.42551 0.28511 0.0
O17 O 0.48875 0.44279 0.33082 0.0
O18 O 0.46923 0.46284 0.20781 0.0
O19 O 0.47714 0.4474 0.1912 0.0
C20 C 0.47704 0.45904 0.18123 0.0
C21 C 0.47033 0.40891 0.23847 0.0
C22 C 0.49121 0.4557 0.33451 0.0
C23 C 0.43231 0.42153 0.28571 0.0
O24 O 0.44224 0.41729 0.30022 0.0
O25 O 0.43849 0.43273 0.26002 0.0
O26 O 0.46916 0.40741 0.28231 0.0
O27 O 0.47153 0.42052 0.22164 0.0
O28 O 0.57303 0.00279 0.22601 0.0
Cd29 Cd 0.59125 0.0052 0.2774 0.0
Cd30 Cd 0.57949 0.97797 0.2391 0.0
O31 O 0.5591 0.97852 0.20423 0.0
O32 O 0.59385 0.02069 0.32238 0.0
O33 O 0.58138 0.99659 0.33742 0.0
C34 C 0.58512 0.00975 0.34965 0.0
C35 C 0.57655 0.96017 0.28978 0.0
C36 C 0.56057 0.99101 0.20154 0.0
C37 C 0.6176 0.00451 0.22497 0.0
O38 O 0.60415 0.99103 0.21207 0.0
O39 O 0.61622 0.01211 0.25613 0.0
O40 O 0.57327 0.95691 0.24579 0.0
O41 O 0.58024 0.9731 0.3047 0.0
O42 O 0.03621 0.46933 0.79287 0.0
Cd43 Cd 0.0384 0.45714 0.74188 0.0
Cd44 Cd 0.01137 0.4344 0.7826 0.0
O45 O 0.00903 0.45083 0.81159 0.0
O46 O 0.05186 0.47203 0.69419 0.0
O47 O 0.02295 0.45252 0.68256 0.0
C48 C 0.03685 0.46474 0.66789 0.0
C49 C 0.98805 0.41278 0.73808 0.0
C50 C 0.0224 0.46483 0.81482 0.0
C51 C 0.04739 0.43885 0.7952 0.0
O52 O 0.03224 0.4335 0.81156 0.0
O53 O 0.05191 0.44737 0.76132 0.0
O54 O 0.98835 0.41339 0.7825 0.0
O55 O 1.00059 0.42475 0.71894 0.0
O56 O 0.58454 0.56305 0.74872 0.0
Cd57 Cd 0.60275 0.57867 0.80005 0.0
Cd58 Cd 0.58964 0.59379 0.76546 0.0
O59 O 0.56981 0.57328 0.72983 0.0
O60 O 0.60515 0.56639 0.84708 0.0
O61 O 0.59242 0.57853 0.85854 0.0
C62 C 0.59613 0.56918 0.87269 0.0
C63 C 0.58488 0.60905 0.8108 0.0
C64 C 0.57165 0.56243 0.72572 0.0
C65 C 0.6284 0.60547 0.75041 0.0
O66 O 0.61454 0.60545 0.73928 0.0
O67 O 0.62753 0.59634 0.77952 0.0
O68 O 0.58279 0.60854 0.76634 0.0
O69 O 0.58841 0.60006 0.82937 0.0
O70 O 0.48389 0.02108 0.79085 0.0
Cd71 Cd 0.46609 0.01826 0.7374 0.0
Cd72 Cd 0.47696 0.04534 0.77435 0.0
O73 O 0.4974 0.04539 0.81143 0.0
O74 O 0.46462 0.0031 0.69329 0.0
O75 O 0.47682 0.02716 0.6784 0.0
C76 C 0.47358 0.01415 0.66655 0.0
C77 C 0.47926 0.06272 0.723 0.0
C78 C 0.49608 0.03299 0.81533 0.0
C79 C 0.43873 0.01854 0.78586 0.0
O80 O 0.45202 0.03198 0.79962 0.0
O81 O 0.44061 0.01104 0.75552 0.0
O82 O 0.4821 0.06599 0.76698 0.0
O83 O 0.47667 0.05016 0.70854 0.0
O84 O 0.70373 0.8934 0.63126 0.0
Cd85 Cd 0.70624 0.90774 0.58082 0.0
Cd86 Cd 0.67911 0.9048 0.62184 0.0
O87 O 0.67662 0.88603 0.6496 0.0
O88 O 0.7196 0.9058 0.5322 0.0
O89 O 0.6907 0.89731 0.52155 0.0
C90 C 0.70453 0.89857 0.5061 0.0
C91 C 0.65662 0.90377 0.57384 0.0
C92 C 0.68974 0.88467 0.65271 0.0
C93 C 0.7149 0.93519 0.63404 0.0
O94 O 0.69987 0.92604 0.65108 0.0
O95 O 0.71934 0.93066 0.60045 0.0
O96 O 0.65562 0.90295 0.61791 0.0
O97 O 0.66998 0.90451 0.55719 0.0
O98 O 0.15394 0.79471 0.61385 0.0
Cd99 Cd 0.13573 0.78053 0.56037 0.0
Cd100 Cd 0.14468 0.76265 0.59647 0.0
O101 O 0.16493 0.78183 0.63716 0.0
O102 O 0.13467 0.79473 0.51877 0.0
O103 O 0.14575 0.7818 0.49991 0.0
C104 C 0.14297 0.79204 0.49022 0.0
C105 C 0.14768 0.74792 0.54406 0.0
C106 C 0.16495 0.79368 0.64007 0.0
C107 C 0.10678 0.75375 0.60575 0.0
O108 O 0.11908 0.75185 0.61811 0.0
O109 O 0.10995 0.7641 0.57865 0.0
O110 O 0.14936 0.74672 0.58795 0.0
O111 O 0.14583 0.75839 0.53046 0.0
O112 O 0.22158 0.31818 0.62032 0.0
Cd113 Cd 0.23355 0.31276 0.57389 0.0
Cd114 Cd 0.26494 0.33896 0.62192 0.0
O115 O 0.24536 0.34135 0.64457 0.0
O116 O 0.21657 0.30254 0.5152 0.0
O117 O 0.24174 0.32585 0.52084 0.0
C118 C 0.22739 0.31526 0.49635 0.0
C119 C 0.28742 0.35612 0.57529 0.0
C120 C 0.2284 0.33078 0.64316 0.0
C121 C 0.25835 0.30818 0.63308 0.0
O122 O 0.26627 0.32191 0.64873 0.0
O123 O 0.24615 0.30265 0.59921 0.0
O124 O 0.29003 0.35885 0.61952 0.0
O125 O 0.27231 0.34397 0.55882 0.0
O126 O 0.70496 0.80402 0.12407 0.0
Cd127 Cd 0.70706 0.79164 0.07338 0.0
Cd128 Cd 0.68116 0.76905 0.11748 0.0
O129 O 0.6785 0.78533 0.14608 0.0
O130 O 0.71888 0.8058 0.02282 0.0
O131 O 0.6903 0.78554 0.01576 0.0
C132 C 0.70343 0.79764 0.99847 0.0
C133 C 0.6578 0.74655 0.07653 0.0
C134 C 0.69149 0.79944 0.14757 0.0
C135 C 0.71775 0.77449 0.12695 0.0
O136 O 0.70287 0.7691 0.14488 0.0
O137 O 0.72149 0.78262 0.09226 0.0
O138 O 0.65884 0.74783 0.12099 0.0
O139 O 0.66952 0.75836 0.05532 0.0
O140 O 0.24197 0.90122 0.05256 0.0
Cd141 Cd 0.25897 0.91652 0.10592 0.0
Cd142 Cd 0.24676 0.93166 0.06673 0.0
O143 O 0.22779 0.91148 0.02841 0.0
O144 O 0.26138 0.90378 0.15111 0.0
O145 O 0.24775 0.91504 0.16436 0.0
C146 C 0.25184 0.90582 0.17715 0.0
C147 C 0.24151 0.94611 0.11411 0.0
C148 C 0.22979 0.90068 0.02631 0.0
C149 C 0.28593 0.94358 0.05873 0.0
O150 O 0.27232 0.94357 0.04439 0.0
O151 O 0.28428 0.93438 0.08864 0.0
O152 O 0.24003 0.94644 0.06974 0.0
O153 O 0.24459 0.93667 0.13115 0.0
O154 O 0.14092 0.34265 0.09769 0.0
Cd155 Cd 0.12228 0.34193 0.05126 0.0
Cd156 Cd 0.13755 0.36959 0.09496 0.0
O157 O 0.15749 0.36699 0.12162 0.0
O158 O 0.11766 0.32777 0.99782 0.0
O159 O 0.13155 0.35262 0.99358 0.0
C160 C 0.12635 0.33973 0.97416 0.0
C161 C 0.14098 0.38905 0.05132 0.0
C162 C 0.15467 0.3539 0.1213 0.0
C163 C 0.09888 0.34407 0.11149 0.0
O164 O 0.11336 0.35698 0.12467 0.0
O165 O 0.09859 0.3363 0.07767 0.0
O166 O 0.14451 0.39111 0.0956 0.0
O167 O 0.13687 0.37648 0.03207 0.0
O168 O 0.37602 0.22935 0.96085 0.0
Cd169 Cd 0.38011 0.24428 0.91086 0.0
Cd170 Cd 0.35205 0.24125 0.94773 0.0
O171 O 0.34857 0.22213 0.97565 0.0
O172 O 0.3923 0.24132 0.86089 0.0
O173 O 0.36397 0.23445 0.85243 0.0
C174 C 0.37702 0.23472 0.8358 0.0
C175 C 0.33003 0.24119 0.9006 0.0
C176 C 0.36152 0.22056 0.98049 0.0
C177 C 0.38853 0.27134 0.96475 0.0
O178 O 0.37288 0.26211 0.97872 0.0
O179 O 0.39376 0.26718 0.93211 0.0
O180 O 0.32941 0.24076 0.94481 0.0
O181 O 0.34263 0.24094 0.88328 0.0
O182 O 0.80924 0.12478 0.94526 0.0
Cd183 Cd 0.79217 0.11002 0.89099 0.0
Cd184 Cd 0.80433 0.0946 0.92616 0.0
O185 O 0.82405 0.11464 0.96411 0.0
O186 O 0.79055 0.12312 0.84574 0.0
O187 O 0.80388 0.11154 0.83351 0.0
C188 C 0.80022 0.12101 0.82046 0.0
C189 C 0.80798 0.0789 0.87986 0.0
C190 C 0.82187 0.12527 0.96916 0.0
C191 C 0.76542 0.08287 0.93719 0.0
O192 O 0.7792 0.08303 0.95068 0.0
O193 O 0.76677 0.09203 0.90754 0.0
O194 O 0.81022 0.07929 0.92428 0.0
O195 O 0.80537 0.08849 0.86184 0.0
O196 O 0.91738 0.67659 0.89377 0.0
Cd197 Cd 0.93431 0.6789 0.94858 0.0
Cd198 Cd 0.92644 0.65315 0.90868 0.0
O199 O 0.90722 0.65351 0.86653 0.0
O200 O 0.9338 0.69253 0.99434 0.0
O201 O 0.92278 0.66841 0.00537 0.0
C202 C 0.92497 0.68088 0.01906 0.0
C203 C 0.92114 0.63299 0.95185 0.0
C204 C 0.90708 0.66529 0.86513 0.0
C205 C 0.96468 0.68151 0.90669 0.0
O206 O 0.9528 0.66776 0.89211 0.0
O207 O 0.96068 0.6883 0.93386 0.0
O208 O 0.92137 0.63241 0.90759 0.0
O209 O 0.92268 0.64461 0.9711 0.0
O210 O 0.36974 0.1372 0.45357 0.0
Cd211 Cd 0.37214 0.12513 0.40293 0.0
Cd212 Cd 0.34442 0.10176 0.44231 0.0
O213 O 0.34309 0.11842 0.47454 0.0
O214 O 0.38459 0.13947 0.35319 0.0
O215 O 0.35593 0.11934 0.34455 0.0
C216 C 0.36932 0.13146 0.328 0.0
C217 C 0.32 0.08026 0.39936 0.0
C218 C 0.35626 0.1325 0.47708 0.0
C219 C 0.38061 0.10597 0.45358 0.0
O220 O 0.36492 0.09982 0.46768 0.0
O221 O 0.38596 0.11575 0.42302 0.0
O222 O 0.32111 0.08096 0.44388 0.0
O223 O 0.33228 0.09212 0.37933 0.0
O224 O 0.9051 0.23185 0.38639 0.0
Cd225 Cd 0.92191 0.24626 0.44151 0.0
Cd226 Cd 0.91137 0.26273 0.40416 0.0
O227 O 0.89188 0.24307 0.36422 0.0
O228 O 0.92291 0.23262 0.48576 0.0
O229 O 0.91009 0.24456 0.4991 0.0
C230 C 0.9134 0.23481 0.51142 0.0
C231 C 0.90702 0.27779 0.45147 0.0
C232 C 0.89332 0.23199 0.36049 0.0
C233 C 0.9502 0.27344 0.39746 0.0
O234 O 0.93708 0.27408 0.38292 0.0
O235 O 0.94778 0.26378 0.4265 0.0
O236 O 0.90585 0.27828 0.40713 0.0
O237 O 0.90918 0.26782 0.46853 0.0
O238 O 0.82071 0.68704 0.4559 0.0
Cd239 Cd 0.80154 0.68288 0.40437 0.0
Cd240 Cd 0.81136 0.70987 0.43865 0.0
O241 O 0.83284 0.71123 0.47483 0.0
O242 O 0.80047 0.66797 0.36031 0.0
O243 O 0.8108 0.69161 0.3441 0.0
C244 C 0.80836 0.67888 0.33257 0.0
C245 C 0.81283 0.7274 0.38918 0.0
C246 C 0.83267 0.69937 0.47907 0.0
C247 C 0.77405 0.68218 0.45484 0.0
O248 O 0.78686 0.69602 0.46598 0.0
O249 O 0.77612 0.67461 0.42528 0.0
O250 O 0.8152 0.73008 0.43338 0.0
O251 O 0.81097 0.71528 0.37322 0.0
C252 C 0.03866 0.49047 0.85635 0.0
C253 C 0.02245 0.47596 0.84549 0.0
C254 C 0.0392 0.50087 0.88672 0.0
C255 C 0.0144 0.5029 0.97969 0.0
H256 H 0.04796 0.5464 0.96649 0.0
C257 C 0.02121 0.54786 0.10721 0.0
C258 C 0.03908 0.55863 0.12658 0.0
C259 C 0.01787 0.53848 0.06857 0.0
C260 C 0.03852 0.53428 0.97053 0.0
H261 H 0.99391 0.46115 0.85717 0.0
H262 H 0.99468 0.47951 0.90929 0.0
H263 H 0.04389 0.52845 0.90635 0.0
H264 H 0.0675 0.56851 0.11929 0.0
H265 H 0.06167 0.55233 0.05115 0.0
H266 H 0.009 0.50886 0.04383 0.0
C267 C 0.00713 0.48272 0.89515 0.0
C268 C 0.03624 0.52397 0.93625 0.0
C269 C 0.00665 0.47221 0.86505 0.0
C270 C 0.05359 0.56032 0.1052 0.0
C271 C 0.05025 0.5511 0.06611 0.0
C272 C 0.0165 0.51323 0.01363 0.0
C273 C 0.02347 0.49716 0.90672 0.0
C274 C 0.02446 0.50812 0.94084 0.0
C275 C 0.03235 0.53986 0.04806 0.0
C276 C 0.02884 0.52901 0.00982 0.0
H277 H 0.05114 0.49373 0.8422 0.0
H278 H 0.05213 0.5117 0.89542 0.0
H279 H 0.00541 0.49083 0.9849 0.0
H280 H 0.00973 0.54626 0.12294 0.0
H281 H 0.00395 0.52998 0.05511 0.0
C282 C 0.58869 0.5478 0.92272 0.0
C283 C 0.58782 0.56018 0.91314 0.0
C284 C 0.57762 0.53725 0.95409 0.0
C285 C 0.53373 0.52205 1.00021 0.0
H286 H 0.54746 0.50155 0.08285 0.0
C287 C 0.48751 0.48174 0.13483 0.0
C288 C 0.48741 0.46887 0.14393 0.0
C289 C 0.49943 0.49243 0.10507 0.0
C290 C 0.54335 0.50702 0.05944 0.0
H291 H 0.57574 0.57187 0.93177 0.0
H292 H 0.55671 0.55363 0.98707 0.0
H293 H 0.57029 0.52212 0.03853 0.0
H294 H 0.49918 0.45677 0.12725 0.0
H295 H 0.51985 0.47537 0.07466 0.0
H296 H 0.50682 0.50697 0.02089 0.0
C297 C 0.5656 0.55186 0.96946 0.0
C298 C 0.55646 0.51886 0.03423 0.0
C299 C 0.57665 0.5624 0.9381 0.0
C300 C 0.49891 0.46656 0.12095 0.0
C301 C 0.5109 0.4773 0.09121 0.0
C302 C 0.52065 0.51023 0.02534 0.0
C303 C 0.56548 0.53888 0.97655 0.0
C304 C 0.55181 0.52656 0.00449 0.0
C305 C 0.51155 0.49051 0.08371 0.0
C306 C 0.5253 0.50261 0.05538 0.0
H307 H 0.59714 0.54575 0.90405 0.0
H308 H 0.57785 0.52736 0.9587 0.0
H309 H 0.52958 0.52749 0.97678 0.0
H310 H 0.47885 0.48388 0.15205 0.0
H311 H 0.49966 0.50253 0.10036 0.0
C312 C 0.54876 0.00544 0.16979 0.0
C313 C 0.54961 0.99282 0.16585 0.0
C314 C 0.54213 0.00941 0.13237 0.0
C315 C 0.53857 0.00645 0.0064 0.0
H316 H 0.5106 0.02323 0.01578 0.0
C317 C 0.50825 0.01904 0.84876 0.0
C318 C 0.507 0.03147 0.8519 0.0
C319 C 0.515 0.01537 0.88667 0.0
C320 C 0.51869 0.01882 0.01279 0.0
H321 H 0.54302 0.97384 0.12058 0.0
H322 H 0.5312 0.9807 0.05499 0.0
H323 H 0.51654 0.01296 0.0833 0.0
H324 H 0.51296 0.0504 0.89634 0.0
H325 H 0.52504 0.04406 0.96285 0.0
H326 H 0.54076 0.01233 0.93596 0.0
C327 C 0.53594 0.98765 0.08699 0.0
C328 C 0.52196 0.01282 0.05137 0.0
C329 C 0.54249 0.9836 0.12468 0.0
C330 C 0.51381 0.04078 0.89287 0.0
C331 C 0.5205 0.03704 0.93107 0.0
C332 C 0.53533 0.01247 0.96785 0.0
C333 C 0.53626 1.00088 0.09004 0.0
C334 C 0.53189 0.00652 0.04857 0.0
C335 C 0.52064 0.02401 0.92874 0.0
C336 C 0.52529 0.01868 0.97054 0.0
H337 H 0.55408 0.01274 0.20118 0.0
H338 H 0.54261 0.01969 0.13587 0.0
H339 H 0.54663 1.00201 0.00338 0.0
H340 H 0.50318 0.01168 0.81756 0.0
H341 H 0.51482 0.00522 0.88368 0.0
C342 C 0.57867 0.02516 0.39838 0.0
C343 C 0.57723 0.01158 0.38993 0.0
C344 C 0.56816 0.02583 0.43009 0.0
C345 C 0.53905 0.00587 0.52518 0.0
H346 H 0.51461 0.02417 0.48111 0.0
C347 C 0.48109 0.99923 0.61921 0.0
C348 C 0.48215 0.01265 0.62731 0.0
C349 C 0.49202 0.99881 0.58829 0.0
C350 C 0.52143 0.01913 0.4941 0.0
H351 H 0.56454 0.98839 0.41041 0.0
H352 H 0.54624 0.98958 0.46561 0.0
H353 H 0.5367 0.02494 0.43521 0.0
H354 H 0.4947 0.03586 0.60721 0.0
H355 H 0.51372 0.03513 0.5534 0.0
H356 H 0.52376 1.00004 0.58404 0.0
C357 C 0.55549 0.99972 0.44783 0.0
C358 C 0.53416 0.01963 0.46791 0.0
C359 C 0.56598 0.99903 0.4161 0.0
C360 C 0.49353 0.02533 0.60174 0.0
C361 C 0.50444 0.02491 0.57082 0.0
C362 C 0.52633 0.00538 0.55138 0.0
C363 C 0.55602 0.01297 0.45409 0.0
C364 C 0.54312 0.013 0.48312 0.0
C365 C 0.50421 0.0118 0.56476 0.0
C366 C 0.51733 0.01197 0.5361 0.0
H367 H 0.58725 0.03505 0.37891 0.0
H368 H 0.56917 0.03632 0.43486 0.0
H369 H 0.54585 1.0008 0.53811 0.0
H370 H 0.47243 0.98924 0.63825 0.0
H371 H 0.49124 0.98843 0.58365 0.0
C372 C 0.01324 0.53454 0.37574 0.0
C373 C 0.02898 0.54498 0.35396 0.0
C374 C 0.01319 0.52461 0.40674 0.0
C375 C 0.04401 0.52162 0.48591 0.0
H376 H 0.00627 0.47815 0.47925 0.0
C377 C 0.05089 0.48279 0.60516 0.0
C378 C 0.03523 0.47118 0.6247 0.0
C379 C 0.04957 0.49054 0.56862 0.0
C380 C 0.01682 0.49029 0.48198 0.0
H381 H 0.05696 0.55303 0.34753 0.0
H382 H 0.05689 0.53595 0.40182 0.0
H383 H 0.0045 0.4943 0.42369 0.0
H384 H 0.00583 0.45813 0.62004 0.0
H385 H 0.00352 0.47193 0.55727 0.0
H386 H 0.05613 0.51792 0.54468 0.0
C387 C 0.0446 0.53543 0.39493 0.0
C388 C 0.01579 0.49952 0.45009 0.0
C389 C 0.04458 0.54517 0.36365 0.0
C390 C 0.01815 0.46699 0.60554 0.0
C391 C 0.01684 0.47491 0.5694 0.0
C392 C 0.04493 0.51248 0.51804 0.0
C393 C 0.02896 0.5251 0.41701 0.0
C394 C 0.02947 0.51525 0.45155 0.0
C395 C 0.03258 0.48706 0.55123 0.0
C396 C 0.03145 0.49666 0.51636 0.0
H397 H 1.00098 0.53407 0.36891 0.0
H398 H 1.00097 0.51679 0.42347 0.0
H399 H 0.05461 0.53376 0.48831 0.0
H400 H 0.06424 0.48618 0.6189 0.0
H401 H 0.06196 0.4995 0.55468 0.0
C402 C 0.55133 0.55113 0.65218 0.0
C403 C 0.56001 0.54957 0.6912 0.0
C404 C 0.54297 0.53988 0.61599 0.0
C405 C 0.54473 0.50891 0.5663 0.0
H406 H 0.50243 0.49962 0.48958 0.0
C407 C 0.50738 0.4622 0.41424 0.0
C408 C 0.50233 0.46664 0.37431 0.0
C409 C 0.51496 0.4719 0.45438 0.0
C410 C 0.51432 0.50216 0.51062 0.0
H411 H 0.56564 0.53455 0.72448 0.0
H412 H 0.55057 0.51477 0.66227 0.0
H413 H 0.5129 0.51658 0.55853 0.0
H414 H 0.50256 0.48518 0.34419 0.0
H415 H 0.5157 0.5019 0.41372 0.0
H416 H 0.54596 0.49432 0.5182 0.0
C417 C 0.55073 0.52487 0.65871 0.0
C418 C 0.52034 0.51191 0.55007 0.0
C419 C 0.55923 0.53616 0.69456 0.0
C420 C 0.50604 0.48128 0.37449 0.0
C421 C 0.51348 0.49086 0.41441 0.0
C422 C 0.53858 0.49903 0.527 0.0
C423 C 0.54296 0.52678 0.61837 0.0
C424 C 0.53578 0.51558 0.57809 0.0
C425 C 0.5175 0.4861 0.45513 0.0
C426 C 0.5235 0.49577 0.4984 0.0
H427 H 0.55182 0.56138 0.64849 0.0
H428 H 0.53726 0.54181 0.58531 0.0
H429 H 0.55684 0.51165 0.58664 0.0
H430 H 0.50466 0.45099 0.4152 0.0
H431 H 0.51802 0.46799 0.48536 0.0
C432 C 0.7076 0.82542 0.18688 0.0
C433 C 0.69165 0.81057 0.17856 0.0
C434 C 0.70843 0.8357 0.21846 0.0
C435 C 0.68149 0.84507 0.27899 0.0
H436 H 0.72248 0.86449 0.37188 0.0
C437 C 0.68556 0.87877 0.44179 0.0
C438 C 0.70277 0.89076 0.46182 0.0
C439 C 0.68395 0.86989 0.40373 0.0
C440 C 0.71113 0.85946 0.34574 0.0
H441 H 0.66383 0.79509 0.1958 0.0
H442 H 0.66525 0.81326 0.25075 0.0
H443 H 0.71989 0.84727 0.31201 0.0
H444 H 0.73174 0.90349 0.45589 0.0
H445 H 0.72898 0.88851 0.38834 0.0
H446 H 0.67286 0.85745 0.31217 0.0
C447 C 0.67711 0.81683 0.23279 0.0
C448 C 0.7096 0.84949 0.31157 0.0
C449 C 0.67633 0.80642 0.20152 0.0
C450 C 0.71829 0.89422 0.44149 0.0
C451 C 0.71669 0.88551 0.40298 0.0
C452 C 0.68315 0.85525 0.31288 0.0
C453 C 0.69328 0.83148 0.24212 0.0
C454 C 0.69476 0.84215 0.27793 0.0
C455 C 0.69952 0.87293 0.38439 0.0
C456 C 0.69798 0.86255 0.34687 0.0
H457 H 0.71966 0.82904 0.16981 0.0
H458 H 0.72101 0.84698 0.22464 0.0
H459 H 0.66998 0.83964 0.25321 0.0
H460 H 0.67333 0.87575 0.45685 0.0
H461 H 0.67051 0.86024 0.39085 0.0
C462 C 0.14956 0.8139 0.44373 0.0
C463 C 0.15127 0.80186 0.45123 0.0
C464 C 0.16009 0.82493 0.41287 0.0
C465 C 0.20374 0.84239 0.36287 0.0
H466 H 0.18615 0.86085 0.28349 0.0
C467 C 0.24578 0.8845 0.2256 0.0
C468 C 0.24368 0.89626 0.21671 0.0
C469 C 0.23529 0.87357 0.25675 0.0
C470 C 0.19135 0.85598 0.30601 0.0
H471 H 0.16455 0.79143 0.43007 0.0
H472 H 0.18275 0.81058 0.37577 0.0
H473 H 0.16506 0.83965 0.32867 0.0
H474 H 0.22982 0.90638 0.2359 0.0
H475 H 0.21181 0.88748 0.29096 0.0
H476 H 0.23003 0.85874 0.34037 0.0
C477 C 0.17351 0.81164 0.39444 0.0
C478 C 0.17923 0.84377 0.3317 0.0
C479 C 0.16294 0.80058 0.42521 0.0
C480 C 0.23171 0.89741 0.24179 0.0
C481 C 0.22124 0.88649 0.273 0.0
C482 C 0.21587 0.85461 0.33725 0.0
C483 C 0.17257 0.82416 0.3889 0.0
C484 C 0.18527 0.83682 0.36037 0.0
C485 C 0.22251 0.87418 0.27978 0.0
C486 C 0.20982 0.86156 0.3085 0.0
H487 H 0.14071 0.81522 0.46328 0.0
H488 H 0.15909 0.83445 0.40954 0.0
H489 H 0.2089 0.83748 0.38533 0.0
H490 H 0.25485 0.88326 0.20679 0.0
H491 H 0.23657 0.86421 0.26097 0.0
C492 C 0.20687 0.30764 0.42303 0.0
C493 C 0.22303 0.31848 0.44998 0.0
C494 C 0.20197 0.3117 0.38212 0.0
C495 C 0.20683 0.34463 0.33338 0.0
H496 H 0.19015 0.32142 0.21588 0.0
C497 C 0.18168 0.36292 0.17847 0.0
C498 C 0.16619 0.35107 0.1516 0.0
C499 C 0.19116 0.35966 0.21046 0.0
C500 C 0.19458 0.32797 0.24856 0.0
H501 H 0.24712 0.34187 0.4539 0.0
H502 H 0.23837 0.34888 0.38338 0.0
H503 H 0.20102 0.3135 0.28041 0.0
H504 H 0.1489 0.32655 0.13635 0.0
H505 H 0.1648 0.32092 0.19258 0.0
H506 H 0.19962 0.35865 0.30296 0.0
C507 C 0.22952 0.33731 0.39385 0.0
C508 C 0.20086 0.32342 0.28539 0.0
C509 C 0.23452 0.33323 0.43418 0.0
C510 C 0.1608 0.33601 0.15631 0.0
C511 C 0.17007 0.33276 0.18852 0.0
C512 C 0.20026 0.34901 0.29689 0.0
C513 C 0.21304 0.3267 0.36794 0.0
C514 C 0.20693 0.33166 0.32819 0.0
C515 C 0.18522 0.34449 0.21662 0.0
C516 C 0.19385 0.34066 0.25406 0.0
H517 H 0.19775 0.29621 0.43428 0.0
H518 H 0.18915 0.30333 0.36269 0.0
H519 H 0.21131 0.3511 0.36623 0.0
H520 H 0.18627 0.37465 0.1755 0.0
H521 H 0.20298 0.36904 0.23081 0.0
C522 C 0.1445 0.35278 0.90766 0.0
C523 C 0.13229 0.33914 0.92854 0.0
C524 C 0.153 0.3527 0.86946 0.0
C525 C 0.15233 0.32881 0.77683 0.0
H526 H 0.20485 0.35582 0.79862 0.0
C527 C 0.19909 0.32014 0.67808 0.0
C528 C 0.21641 0.33285 0.66942 0.0
C529 C 0.18795 0.32182 0.70448 0.0
C530 C 0.19023 0.34844 0.79125 0.0
H531 H 0.11837 0.31461 0.92357 0.0
H532 H 0.13307 0.31446 0.85622 0.0
H533 H 0.1861 0.35705 0.85198 0.0
H534 H 0.23536 0.35739 0.68035 0.0
H535 H 0.21568 0.36044 0.72525 0.0
H536 H 0.15639 0.32021 0.71601 0.0
C537 C 0.13612 0.32521 0.86972 0.0
C538 C 0.17948 0.34912 0.82201 0.0
C539 C 0.12774 0.3253 0.90832 0.0
C540 C 0.22216 0.34735 0.6868 0.0
C541 C 0.21088 0.34908 0.71273 0.0
C542 C 0.16309 0.32827 0.74562 0.0
C543 C 0.1493 0.33897 0.851 0.0
C544 C 0.16044 0.33914 0.81555 0.0
C545 C 0.19371 0.3363 0.72241 0.0
C546 C 0.1822 0.33787 0.75293 0.0
H547 H 0.14825 0.36365 0.92221 0.0
H548 H 0.16295 0.36344 0.85529 0.0
H549 H 0.13766 0.32109 0.77089 0.0
H550 H 0.19427 0.30877 0.66544 0.0
H551 H 0.17501 0.31167 0.71187 0.0
C552 C 0.68271 0.79704 0.93536 0.0
C553 C 0.70044 0.80287 0.95418 0.0
C554 C 0.67988 0.80354 0.89739 0.0
C555 C 0.70166 0.82789 0.80078 0.0
H556 H 0.67033 0.84102 0.81847 0.0
C557 C 0.70498 0.87384 0.69278 0.0
C558 C 0.68916 0.87325 0.68232 0.0
C559 C 0.70484 0.86353 0.72191 0.0
C560 C 0.67884 0.83719 0.81233 0.0
H561 H 0.72907 0.81954 0.94643 0.0
H562 H 0.72411 0.83067 0.87959 0.0
H563 H 0.67263 0.82551 0.87503 0.0
H564 H 0.66062 0.86107 0.69348 0.0
H565 H 0.66021 0.84275 0.74341 0.0
H566 H 0.70787 0.83947 0.73809 0.0
C567 C 0.71242 0.82114 0.89439 0.0
C568 C 0.68018 0.82832 0.8449 0.0
C569 C 0.71525 0.8148 0.93275 0.0
C570 C 0.67308 0.8619 0.70108 0.0
C571 C 0.67288 0.85144 0.72993 0.0
C572 C 0.70015 0.83659 0.76788 0.0
C573 C 0.69471 0.81584 0.87702 0.0
C574 C 0.69187 0.82383 0.83992 0.0
C575 C 0.68881 0.8522 0.74104 0.0
C576 C 0.68902 0.84166 0.7737 0.0
H577 H 0.671 0.78788 0.95116 0.0
H578 H 0.66609 0.79915 0.88445 0.0
H579 H 0.7106 0.82443 0.79579 0.0
H580 H 0.71766 0.88249 0.67921 0.0
H581 H 0.71747 0.86473 0.7303 0.0
C582 C 0.21284 0.89015 0.94814 0.0
C583 C 0.21954 0.88814 0.99021 0.0
C584 C 0.2065 0.87942 0.91097 0.0
C585 C 0.21191 0.84981 0.86812 0.0
H586 H 0.17238 0.83972 0.77828 0.0
C587 C 0.18133 0.80251 0.71944 0.0
C588 C 0.176 0.80572 0.67731 0.0
C589 C 0.18794 0.81287 0.75782 0.0
C590 C 0.18359 0.84256 0.80286 0.0
H591 H 0.22354 0.87277 0.02756 0.0
H592 H 0.21199 0.8539 0.96346 0.0
H593 H 0.17943 0.85634 0.846 0.0
H594 H 0.17498 0.82281 0.64115 0.0
H595 H 0.18671 0.84086 0.70755 0.0
H596 H 0.21592 0.83588 0.82493 0.0
C597 C 0.21219 0.86397 0.95847 0.0
C598 C 0.18761 0.85207 0.84169 0.0
C599 C 0.21864 0.87472 0.99536 0.0
C600 C 0.17875 0.81992 0.67333 0.0
C601 C 0.18533 0.83022 0.71145 0.0
C602 C 0.20781 0.84022 0.82936 0.0
C603 C 0.20661 0.86642 0.91536 0.0
C604 C 0.20187 0.85588 0.87472 0.0
C605 C 0.18932 0.82657 0.75453 0.0
C606 C 0.19371 0.8366 0.79612 0.0
H607 H 0.21349 0.90043 0.94307 0.0
H608 H 0.20236 0.8817 0.87819 0.0
H609 H 0.2232 0.85271 0.89245 0.0
H610 H 0.17929 0.79163 0.72358 0.0
H611 H 0.19097 0.80978 0.79062 0.0
C612 C 0.38851 0.22802 0.7706 0.0
C613 C 0.37393 0.2264 0.79138 0.0
C614 C 0.3853 0.21875 0.73171 0.0
C615 C 0.35162 0.18087 0.67917 0.0
H616 H 0.3787 0.19601 0.57139 0.0
C617 C 0.34092 0.13976 0.52945 0.0
C618 C 0.35654 0.14354 0.50877 0.0
C619 C 0.34165 0.15026 0.56025 0.0
C620 C 0.37115 0.19154 0.60145 0.0
H621 H 0.34457 0.21408 0.78683 0.0
H622 H 0.33901 0.19774 0.71946 0.0
H623 H 0.38304 0.21399 0.63178 0.0
H624 H 0.38517 0.16129 0.5045 0.0
H625 H 0.38661 0.17919 0.55894 0.0
H626 H 0.34036 0.15844 0.65035 0.0
C627 C 0.35289 0.20622 0.7332 0.0
C628 C 0.37359 0.20188 0.63588 0.0
C629 C 0.35611 0.21565 0.77159 0.0
C630 C 0.37282 0.15802 0.51943 0.0
C631 C 0.37361 0.16839 0.55053 0.0
C632 C 0.34939 0.17051 0.64511 0.0
C633 C 0.36743 0.20753 0.71332 0.0
C634 C 0.36398 0.19665 0.67527 0.0
C635 C 0.35807 0.16469 0.57148 0.0
C636 C 0.35931 0.17569 0.60602 0.0
H637 H 0.40238 0.23618 0.78506 0.0
H638 H 0.39675 0.21994 0.71717 0.0
H639 H 0.34417 0.17653 0.70945 0.0
H640 H 0.32814 0.12873 0.52178 0.0
H641 H 0.32933 0.14705 0.57513 0.0
C642 C 0.80684 0.14241 0.77149 0.0
C643 C 0.809 0.13074 0.78154 0.0
C644 C 0.81773 0.15343 0.741 0.0
C645 C 0.84927 0.16272 0.65098 0.0
H646 H 0.87003 0.20451 0.69283 0.0
C647 C 0.90661 0.21325 0.55979 0.0
C648 C 0.90452 0.22497 0.55003 0.0
C649 C 0.89572 0.2022 0.5902 0.0
C650 C 0.86424 0.19291 0.68045 0.0
H651 H 0.82355 0.12099 0.76535 0.0
H652 H 0.84252 0.14021 0.71221 0.0
H653 H 0.84814 0.18364 0.73774 0.0
H654 H 0.89003 0.23475 0.56658 0.0
H655 H 0.87103 0.21547 0.61952 0.0
H656 H 0.86537 0.17199 0.59368 0.0
C657 C 0.8324 0.14083 0.72779 0.0
C658 C 0.85164 0.18093 0.70609 0.0
C659 C 0.82152 0.12981 0.75831 0.0
C660 C 0.89202 0.2259 0.57339 0.0
C661 C 0.88112 0.21483 0.60381 0.0
C662 C 0.86187 0.1747 0.62534 0.0
C663 C 0.831 0.15302 0.71982 0.0
C664 C 0.84398 0.16569 0.69164 0.0
C665 C 0.88249 0.20261 0.61157 0.0
C666 C 0.86952 0.18994 0.63977 0.0
H667 H 0.79728 0.14343 0.78867 0.0
H668 H 0.81605 0.16249 0.73484 0.0
H669 H 0.8435 0.15112 0.63863 0.0
H670 H 0.91616 0.21224 0.54251 0.0
H671 H 0.89738 0.19312 0.59619 0.0
C672 C 0.89446 0.67886 0.83095 0.0
C673 C 0.89656 0.6669 0.8275 0.0
C674 C 0.88746 0.68234 0.79307 0.0
C675 C 0.88334 0.67905 0.66659 0.0
H676 H 0.85209 0.6926 0.67776 0.0
C677 C 0.84735 0.68723 0.51134 0.0
C678 C 0.84486 0.69896 0.5145 0.0
C679 C 0.85556 0.6846 0.54855 0.0
C680 C 0.86108 0.68909 0.67424 0.0
H681 H 0.89202 0.64867 0.78219 0.0
H682 H 0.87949 0.65463 0.7158 0.0
H683 H 0.86027 0.68374 0.74502 0.0
H684 H 0.85009 0.7178 0.55806 0.0
H685 H 0.86464 0.71327 0.62338 0.0
H686 H 0.88401 0.6843 0.59566 0.0
C687 C 0.88358 0.66147 0.74782 0.0
C688 C 0.86567 0.68392 0.71272 0.0
C689 C 0.89055 0.65794 0.78595 0.0
C690 C 0.85186 0.70869 0.55461 0.0
C691 C 0.85999 0.70598 0.59213 0.0
C692 C 0.87873 0.6842 0.62808 0.0
C693 C 0.88238 0.67395 0.75071 0.0
C694 C 0.87683 0.67881 0.70934 0.0
C695 C 0.86141 0.69362 0.58992 0.0
C696 C 0.86751 0.68925 0.63146 0.0
H697 H 0.89889 0.68596 0.86254 0.0
H698 H 0.88684 0.69207 0.79647 0.0
H699 H 0.89227 0.67549 0.66305 0.0
H700 H 0.84217 0.67958 0.48076 0.0
H701 H 0.85637 0.67495 0.54575 0.0
C702 C 0.82782 0.69045 0.26708 0.0
C703 C 0.81682 0.67765 0.29259 0.0
C704 C 0.83892 0.69042 0.23595 0.0
C705 C 0.84786 0.66587 0.17145 0.0
H706 H 0.89766 0.70188 0.18418 0.0
C707 C 0.90399 0.66794 0.08122 0.0
C708 C 0.91556 0.68124 0.05821 0.0
C709 C 0.89255 0.66751 0.11225 0.0
C710 C 0.88379 0.6918 0.17989 0.0
H711 H 0.80787 0.6544 0.30302 0.0
H712 H 0.82718 0.65434 0.24853 0.0
H713 H 0.87512 0.70081 0.22882 0.0
H714 H 0.92495 0.70476 0.05166 0.0
H715 H 0.905 0.70399 0.1054 0.0
H716 H 0.8565 0.65689 0.12229 0.0
C717 C 0.82726 0.66441 0.25266 0.0
C718 C 0.87085 0.6912 0.20535 0.0
C719 C 0.81619 0.66445 0.28391 0.0
C720 C 0.91622 0.69434 0.06885 0.0
C721 C 0.90478 0.69391 0.09979 0.0
C722 C 0.8608 0.66648 0.14585 0.0
C723 C 0.8392 0.67757 0.22953 0.0
C724 C 0.85273 0.67826 0.20132 0.0
C725 C 0.89246 0.68036 0.1209 0.0
C726 C 0.87892 0.67947 0.14971 0.0
H727 H 0.82858 0.70079 0.27279 0.0
H728 H 0.8477 0.70063 0.21788 0.0
H729 H 0.83398 0.65579 0.16736 0.0
H730 H 0.90319 0.65766 0.07389 0.0
H731 H 0.88349 0.65699 0.12867 0.0
C732 C 0.34926 0.13114 0.26359 0.0
C733 C 0.36682 0.13683 0.28347 0.0
C734 C 0.34687 0.13776 0.22523 0.0
C735 C 0.36971 0.16208 0.12948 0.0
H736 H 0.33893 0.17591 0.14452 0.0
C737 C 0.37566 0.20905 0.02191 0.0
C738 C 0.36016 0.20883 0.01005 0.0
C739 C 0.3748 0.19843 0.05096 0.0
C740 C 0.34729 0.17189 0.13912 0.0
H741 H 0.39561 0.15334 0.27727 0.0
H742 H 0.39142 0.16466 0.20975 0.0
H743 H 0.34029 0.16007 0.20158 0.0
H744 H 0.33146 0.197 0.01868 0.0
H745 H 0.32982 0.17815 0.06858 0.0
H746 H 0.37674 0.17381 0.06708 0.0
C747 C 0.37952 0.15517 0.22402 0.0
C748 C 0.34809 0.16283 0.17197 0.0
C749 C 0.38192 0.14872 0.26277 0.0
C750 C 0.34367 0.19754 0.02737 0.0
C751 C 0.34277 0.18678 0.05617 0.0
C752 C 0.36874 0.17097 0.09632 0.0
C753 C 0.36198 0.15 0.20555 0.0
C754 C 0.3596 0.15811 0.16798 0.0
C755 C 0.35837 0.18716 0.06862 0.0
C756 C 0.35786 0.17631 0.10125 0.0
H757 H 0.33735 0.12202 0.27882 0.0
H758 H 0.3332 0.13348 0.21145 0.0
H759 H 0.37853 0.15843 0.12527 0.0
H760 H 0.38863 0.21764 0.00949 0.0
H761 H 0.3872 0.19935 0.06045 0.0
C762 C 0.87501 0.22203 0.28352 0.0
C763 C 0.8828 0.21985 0.32323 0.0
C764 C 0.86797 0.21159 0.24524 0.0
C765 C 0.87342 0.18326 0.19235 0.0
H766 H 0.82986 0.17089 0.11546 0.0
C767 C 0.84077 0.13564 0.0452 0.0
C768 C 0.83259 0.13758 0.00583 0.0
C769 C 0.84788 0.14616 0.08328 0.0
C770 C 0.8422 0.1744 0.13623 0.0
H771 H 0.8881 0.20445 0.35522 0.0
H772 H 0.87561 0.18623 0.28911 0.0
H773 H 0.83889 0.18771 0.18414 0.0
H774 H 0.82669 0.15264 0.97407 0.0
H775 H 0.83942 0.17106 0.03971 0.0
H776 H 0.87676 0.16998 0.14443 0.0
C777 C 0.87537 0.19618 0.28689 0.0
C778 C 0.84734 0.18401 0.17565 0.0
C779 C 0.88241 0.20658 0.32492 0.0
C780 C 0.8327 0.15071 0.00415 0.0
C781 C 0.83986 0.16122 0.04193 0.0
C782 C 0.8683 0.17367 0.1529 0.0
C783 C 0.86858 0.19878 0.24612 0.0
C784 C 0.86298 0.18852 0.20422 0.0
C785 C 0.847 0.15883 0.08249 0.0
C786 C 0.85265 0.16914 0.12433 0.0
H787 H 0.87518 0.23216 0.2811 0.0
H788 H 0.86284 0.21392 0.21427 0.0
H789 H 0.88575 0.18675 0.21321 0.0
H790 H 0.84079 0.12559 0.04759 0.0
H791 H 0.85327 0.14397 0.11407 0.0
C792 C 0.06032 0.62892 0.3315 0.0
C793 C 0.06732 0.62215 0.30798 0.0
C794 C 0.07179 0.6439 0.35019 0.0
C795 C 0.11882 0.67281 0.39505 0.0
H796 H 0.10312 0.69964 0.38815 0.0
C797 C 0.14143 0.73682 0.4632 0.0
C798 C 0.14532 0.73631 0.51045 0.0
C799 C 0.1354 0.72434 0.43266 0.0
C800 C 0.10791 0.69243 0.38989 0.0
H801 H 0.09194 0.62594 0.28528 0.0
H802 H 0.11206 0.6522 0.31843 0.0
H803 H 0.08535 0.6751 0.34461 0.0
H804 H 0.14725 0.72275 0.56199 0.0
H805 H 0.13667 0.70099 0.5088 0.0
H806 H 0.14121 0.69007 0.44119 0.0
C807 C 0.09764 0.64582 0.3223 0.0
C808 C 0.09759 0.67828 0.36531 0.0
C809 C 0.0861 0.63082 0.3031 0.0
C810 C 0.14435 0.72351 0.52582 0.0
C811 C 0.13833 0.71103 0.49524 0.0
C812 C 0.12912 0.68697 0.41994 0.0
C813 C 0.0906 0.6525 0.34618 0.0
C814 C 0.10271 0.66818 0.3683 0.0
C815 C 0.13313 0.71108 0.44863 0.0
C816 C 0.1236 0.69684 0.41825 0.0
H817 H 0.04593 0.62259 0.3359 0.0
H818 H 0.06596 0.64864 0.36888 0.0
H819 H 0.12307 0.66525 0.39823 0.0
H820 H 0.14214 0.74654 0.45011 0.0
H821 H 0.13184 0.72485 0.39679 0.0
C822 C 0.40592 0.40026 0.32321 0.0
C823 C 0.41443 0.41455 0.30402 0.0
C824 C 0.39072 0.39469 0.3477 0.0
C825 C 0.37026 0.40791 0.41908 0.0
H826 H 0.32904 0.36546 0.40782 0.0
C827 C 0.31963 0.37662 0.55953 0.0
C828 C 0.30132 0.36589 0.54358 0.0
C829 C 0.33286 0.38412 0.52805 0.0
C830 C 0.34037 0.37739 0.41115 0.0
H831 H 0.41327 0.43396 0.29399 0.0
H832 H 0.38664 0.4242 0.33728 0.0
H833 H 0.3523 0.37494 0.35378 0.0
H834 H 0.28231 0.35546 0.48235 0.0
H835 H 0.30521 0.36855 0.42802 0.0
H836 H 0.3584 0.41024 0.47713 0.0
C837 C 0.39182 0.41737 0.33327 0.0
C838 C 0.35373 0.38277 0.38037 0.0
C839 C 0.40692 0.42286 0.30812 0.0
C840 C 0.29635 0.36349 0.49582 0.0
C841 C 0.30947 0.37095 0.46459 0.0
C842 C 0.35693 0.40247 0.45024 0.0
C843 C 0.3838 0.40336 0.35402 0.0
C844 C 0.36889 0.39805 0.38422 0.0
C845 C 0.32792 0.38098 0.48026 0.0
C846 C 0.34189 0.38713 0.44668 0.0
H847 H 0.4114 0.3936 0.32065 0.0
H848 H 0.38488 0.3839 0.36351 0.0
H849 H 0.38192 0.41971 0.42312 0.0
H850 H 0.32385 0.37869 0.59612 0.0
H851 H 0.34701 0.39179 0.54109 0.0
C852 C 0.64754 0.90955 0.49839 0.0
C853 C 0.64367 0.90496 0.54359 0.0
C854 C 0.63647 0.91231 0.4712 0.0
C855 C 0.60297 0.92152 0.48189 0.0
H856 H 0.59944 0.91745 0.34851 0.0
C857 C 0.58617 0.95582 0.36697 0.0
C858 C 0.57813 0.95025 0.32176 0.0
C859 C 0.59048 0.94767 0.3951 0.0
C860 C 0.59991 0.91843 0.3857 0.0
H861 H 0.62461 0.89893 0.59495 0.0
H862 H 0.60488 0.90318 0.54695 0.0
H863 H 0.61315 0.90721 0.39405 0.0
H864 H 0.56717 0.93124 0.27172 0.0
H865 H 0.57399 0.91668 0.32144 0.0
H866 H 0.58927 0.93236 0.47355 0.0
C867 C 0.6168 0.90513 0.53288 0.0
C868 C 0.60812 0.91277 0.41195 0.0
C869 C 0.62803 0.90257 0.56034 0.0
C870 C 0.57349 0.9359 0.30629 0.0
C871 C 0.57757 0.92762 0.33471 0.0
C872 C 0.59451 0.92698 0.45564 0.0
C873 C 0.62106 0.91035 0.48821 0.0
C874 C 0.61025 0.91462 0.46042 0.0
C875 C 0.58663 0.9336 0.37906 0.0
C876 C 0.59332 0.92592 0.40713 0.0
H877 H 0.65953 0.91159 0.48448 0.0
H878 H 0.64048 0.91657 0.43744 0.0
H879 H 0.60439 0.92329 0.51904 0.0
H880 H 0.59002 0.96688 0.37997 0.0
H881 H 0.59766 0.95283 0.42863 0.0
C882 C 0.63457 0.00356 0.16239 0.0
C883 C 0.63403 0.01178 0.19933 0.0
C884 C 0.64865 0.01075 0.13359 0.0
C885 C 0.68366 0.04891 0.09559 0.0
H886 H 0.70151 0.02725 0.04208 0.0
C887 C 0.74735 0.06249 0.99101 0.0
C888 C 0.74845 0.07285 0.95982 0.0
C889 C 0.73263 0.05437 0.01748 0.0
C890 C 0.69677 0.03352 0.05685 0.0
H891 H 0.6484 0.03392 0.23622 0.0
H892 H 0.6734 0.04642 0.18659 0.0
H893 H 0.6791 0.01513 0.09802 0.0
H894 H 0.73444 0.08226 0.93046 0.0
H895 H 0.70832 0.06772 0.97619 0.0
H896 H 0.70195 0.06756 0.0557 0.0
C897 C 0.6626 0.03446 0.17926 0.0
C898 C 0.68375 0.02649 0.08865 0.0
C899 C 0.64839 0.02726 0.20803 0.0
C900 C 0.73401 0.07438 0.95421 0.0
C901 C 0.71915 0.06617 0.98075 0.0
C902 C 0.69683 0.05601 0.06402 0.0
C903 C 0.6627 0.02634 0.14116 0.0
C904 C 0.67703 0.03409 0.10846 0.0
C905 C 0.71848 0.05628 0.0133 0.0
C906 C 0.7036 0.04841 0.04442 0.0
H907 H 0.62373 0.99163 0.15451 0.0
H908 H 0.64811 0.00416 0.10433 0.0
H909 H 0.67858 0.05501 0.10956 0.0
H910 H 0.7582 0.06098 0.99623 0.0
H911 H 0.73274 0.04704 0.04254 0.0
C912 C 0.92262 0.61051 0.9591 0.0
C913 C 0.9213 0.62164 0.98005 0.0
C914 C 0.9261 0.60159 0.98593 0.0
C915 C 0.92758 0.58962 0.10431 0.0
H916 H 0.96844 0.59048 0.06609 0.0
C917 C 0.9716 0.57887 0.22766 0.0
C918 C 0.98048 0.57296 0.20917 0.0
C919 C 0.96104 0.58181 0.19878 0.0
C920 C 0.95675 0.58976 0.07695 0.0
H921 H 0.92135 0.63139 0.04571 0.0
H922 H 0.92736 0.61577 0.0925 0.0
H923 H 0.95541 0.60064 0.01731 0.0
H924 H 0.98417 0.56444 0.14634 0.0
H925 H 0.96523 0.56897 0.09622 0.0
H926 H 0.92906 0.57885 0.16429 0.0
C927 C 0.92571 0.61395 0.05532 0.0
C928 C 0.9493 0.59566 0.04888 0.0
C929 C 0.92233 0.62294 0.02846 0.0
C930 C 0.97765 0.56915 0.16159 0.0
C931 C 0.96691 0.57188 0.1328 0.0
C932 C 0.93495 0.58357 0.1323 0.0
C933 C 0.92824 0.60353 0.03432 0.0
C934 C 0.9348 0.59587 0.06249 0.0
C935 C 0.95895 0.57873 0.15076 0.0
C936 C 0.94983 0.58377 0.11931 0.0
H937 H 0.92182 0.60915 0.92191 0.0
H938 H 0.9277 0.5935 0.96875 0.0
H939 H 0.91632 0.58951 0.11554 0.0
H940 H 0.97356 0.582 0.26417 0.0
H941 H 0.95531 0.58721 0.21397 0.0
C942 C 0.41453 0.29918 0.96618 0.0
C943 C 0.40081 0.28666 0.98862 0.0
C944 C 0.42569 0.31364 0.98941 0.0
C945 C 0.44458 0.33268 0.10332 0.0
H946 H 0.44204 0.36547 0.06018 0.0
C947 C 0.46243 0.38264 0.22527 0.0
C948 C 0.46833 0.39681 0.20796 0.0
C949 C 0.45782 0.37037 0.19565 0.0
C950 C 0.44336 0.35664 0.07235 0.0
H951 H 0.38837 0.27936 0.0532 0.0
H952 H 0.40818 0.30438 0.09385 0.0
H953 H 0.42745 0.34181 0.01249 0.0
H954 H 0.47506 0.40947 0.14616 0.0
H955 H 0.46771 0.38824 0.09455 0.0
H956 H 0.4605 0.34732 0.16294 0.0
C957 C 0.41013 0.30308 0.05825 0.0
C958 C 0.4349 0.34305 0.04497 0.0
C959 C 0.39874 0.2888 0.03484 0.0
C960 C 0.47045 0.39867 0.16057 0.0
C961 C 0.46606 0.38642 0.13091 0.0
C962 C 0.45333 0.34635 0.13029 0.0
C963 C 0.42363 0.31565 0.03575 0.0
C964 C 0.435 0.33081 0.06088 0.0
C965 C 0.45922 0.37198 0.14786 0.0
C966 C 0.45233 0.35835 0.11596 0.0
H967 H 0.4164 0.29786 0.93054 0.0
H968 H 0.43601 0.32321 0.97138 0.0
H969 H 0.44496 0.32342 0.11611 0.0
H970 H 0.46052 0.38076 0.26154 0.0
H971 H 0.45233 0.35945 0.21021 0.0
C972 C 0.91227 0.30317 0.46403 0.0
C973 C 0.90829 0.28956 0.48194 0.0
C974 C 0.91695 0.31551 0.49353 0.0
C975 C 0.93574 0.33066 0.61421 0.0
H976 H 0.92897 0.36189 0.57881 0.0
C977 C 0.96392 0.3846 0.7318 0.0
C978 C 0.97462 0.39841 0.71023 0.0
C979 C 0.95289 0.37076 0.70555 0.0
C980 C 0.93095 0.35324 0.58912 0.0
H981 H 0.90474 0.27781 0.54474 0.0
H982 H 0.91209 0.29904 0.59613 0.0
H983 H 0.91402 0.33821 0.53084 0.0
H984 H 0.98142 0.40857 0.64408 0.0
H985 H 0.96195 0.3844 0.59827 0.0
H986 H 0.95264 0.34571 0.67248 0.0
C987 C 0.9123 0.30045 0.55936 0.0
C988 C 0.92245 0.33968 0.56156 0.0
C989 C 0.90788 0.28819 0.52986 0.0
C990 C 0.97337 0.39813 0.66177 0.0
C991 C 0.96216 0.3843 0.63551 0.0
C992 C 0.94402 0.34411 0.64199 0.0
C993 C 0.91754 0.31449 0.54173 0.0
C994 C 0.92498 0.32829 0.57328 0.0
C995 C 0.95212 0.37043 0.65714 0.0
C996 C 0.94196 0.35565 0.62942 0.0
H997 H 0.91282 0.30465 0.42728 0.0
H998 H 0.92106 0.32611 0.47844 0.0
H999 H 0.93841 0.32239 0.62408 0.0
H1000 H 0.96455 0.3844 0.76905 0.0
H1001 H 0.94518 0.36027 0.72317 0.0
C1002 C 0.64496 0.62454 0.6919 0.0
C1003 C 0.64482 0.61515 0.72543 0.0
C1004 C 0.65919 0.63228 0.66375 0.0
C1005 C 0.69575 0.6312 0.619 0.0
H1006 H 0.71112 0.67078 0.57707 0.0
C1007 C 0.75639 0.68308 0.51547 0.0
C1008 C 0.75762 0.67467 0.48052 0.0
C1009 C 0.74231 0.67589 0.54424 0.0
C1010 C 0.70712 0.65979 0.58865 0.0
H1011 H 0.66002 0.60705 0.75692 0.0
H1012 H 0.68529 0.621 0.70839 0.0
H1013 H 0.68904 0.65909 0.63385 0.0
H1014 H 0.74449 0.65214 0.44718 0.0
H1015 H 0.71945 0.63959 0.49675 0.0
H1016 H 0.71442 0.63221 0.57496 0.0
C1017 C 0.67407 0.62204 0.70326 0.0
C1018 C 0.69428 0.65299 0.62091 0.0
C1019 C 0.65969 0.61418 0.73139 0.0
C1020 C 0.74395 0.65895 0.4738 0.0
C1021 C 0.72972 0.65174 0.50254 0.0
C1022 C 0.70877 0.63809 0.58699 0.0
C1023 C 0.67382 0.63099 0.66858 0.0
C1024 C 0.68833 0.63857 0.63631 0.0
C1025 C 0.72892 0.6601 0.53863 0.0
C1026 C 0.71459 0.65246 0.57136 0.0
H1027 H 0.63373 0.62556 0.68619 0.0
H1028 H 0.65835 0.63885 0.63707 0.0
H1029 H 0.69131 0.62 0.62959 0.0
H1030 H 0.76668 0.69521 0.52181 0.0
H1031 H 0.74232 0.68269 0.57198 0.0
C1032 C 0.38702 0.09178 0.50969 0.0
C1033 C 0.39302 0.10245 0.47548 0.0
C1034 C 0.39898 0.08938 0.53369 0.0
C1035 C 0.44275 0.09419 0.5311 0.0
H1036 H 0.43897 0.09026 0.66282 0.0
C1037 C 0.47647 0.08423 0.70728 0.0
C1038 C 0.47634 0.07184 0.69065 0.0
C1039 C 0.46985 0.0907 0.67869 0.0
C1040 C 0.44047 0.09158 0.62623 0.0
H1041 H 0.41626 0.11858 0.43866 0.0
H1042 H 0.43722 0.11433 0.48077 0.0
H1043 H 0.41997 0.09568 0.61733 0.0
H1044 H 0.47052 0.05735 0.62988 0.0
H1045 H 0.45884 0.06851 0.58034 0.0
H1046 H 0.46325 0.08998 0.5402 0.0
C1047 C 0.42319 0.10783 0.48885 0.0
C1048 C 0.42935 0.09446 0.6 0.0
C1049 C 0.41118 0.11028 0.46479 0.0
C1050 C 0.47077 0.06686 0.64387 0.0
C1051 C 0.46412 0.07331 0.61533 0.0
C1052 C 0.45389 0.09125 0.55741 0.0
C1053 C 0.41729 0.09756 0.52418 0.0
C1054 C 0.4301 0.09552 0.55203 0.0
C1055 C 0.46291 0.08491 0.63288 0.0
C1056 C 0.45269 0.0897 0.60524 0.0
H1057 H 0.3731 0.08545 0.51866 0.0
H1058 H 0.39389 0.08113 0.55999 0.0
H1059 H 0.44365 0.09493 0.4942 0.0
H1060 H 0.48078 0.08841 0.74304 0.0
H1061 H 0.46948 0.09985 0.69303 0.0
C1062 C 0.30425 0.96297 0.00245 0.0
C1063 C 0.30305 0.95328 0.0364 0.0
C1064 C 0.31917 0.97061 0.97642 0.0
C1065 C 0.35578 0.96848 0.93802 0.0
H1066 H 0.37391 0.00871 0.89659 0.0
C1067 C 0.42032 0.01983 0.84336 0.0
C1068 C 0.42172 0.01136 0.80901 0.0
C1069 C 0.40548 0.01286 0.86971 0.0
C1070 C 0.36912 0.99752 0.90805 0.0
H1071 H 0.31708 0.94459 0.07106 0.0
H1072 H 0.34351 0.95833 0.02622 0.0
H1073 H 0.35044 0.99727 0.94994 0.0
H1074 H 0.40818 0.98899 0.77413 0.0
H1075 H 0.38187 0.97684 0.81958 0.0
H1076 H 0.37497 0.969 0.89727 0.0
C1077 C 0.33261 0.95969 0.01909 0.0
C1078 C 0.3555 0.99088 0.93833 0.0
C1079 C 0.31756 0.95195 0.04513 0.0
C1080 C 0.40752 0.99584 0.80036 0.0
C1081 C 0.39255 0.98885 0.82672 0.0
C1082 C 0.36953 0.97519 0.90794 0.0
C1083 C 0.33341 0.96889 0.98384 0.0
C1084 C 0.3486 0.97625 0.95357 0.0
C1085 C 0.39152 0.99725 0.86223 0.0
C1086 C 0.37636 0.98979 0.89259 0.0
H1087 H 0.29333 0.96428 0.99471 0.0
H1088 H 0.31917 0.97743 0.94925 0.0
H1089 H 0.3506 0.95711 0.94851 0.0
H1090 H 0.43099 0.03181 0.85108 0.0
H1091 H 0.4053 0.01966 0.8971 0.0
C1092 C 0.07386 0.43692 0.79411 0.0
C1093 C 0.06017 0.4359 0.81788 0.0
C1094 C 0.08595 0.43426 0.81644 0.0
C1095 C 0.10743 0.43605 0.92871 0.0
H1096 H 0.10775 0.40221 0.88332 0.0
C1097 C 0.13347 0.40802 0.04414 0.0
C1098 C 0.13899 0.39959 0.02382 0.0
C1099 C 0.12742 0.41514 0.01665 0.0
C1100 C 0.10832 0.41198 0.89609 0.0
H1101 H 0.0487 0.43162 0.88387 0.0
H1102 H 0.07012 0.42742 0.92293 0.0
H1103 H 0.09044 0.40956 0.8388 0.0
H1104 H 0.14407 0.3931 0.95925 0.0
H1105 H 0.13469 0.4063 0.91146 0.0
H1106 H 0.12544 0.43874 0.98562 0.0
C1107 C 0.07133 0.4301 0.88699 0.0
C1108 C 0.09824 0.4161 0.87054 0.0
C1109 C 0.059 0.43238 0.86448 0.0
C1110 C 0.13975 0.39944 0.97582 0.0
C1111 C 0.13412 0.40686 0.94839 0.0
C1112 C 0.11783 0.43217 0.95382 0.0
C1113 C 0.08486 0.43096 0.86319 0.0
C1114 C 0.09735 0.42791 0.8872 0.0
C1115 C 0.12711 0.41426 0.96819 0.0
C1116 C 0.11806 0.4198 0.93856 0.0
H1117 H 0.07508 0.43962 0.7582 0.0
H1118 H 0.09628 0.43494 0.7974 0.0
H1119 H 0.10705 0.44531 0.94202 0.0
H1120 H 0.13256 0.4082 0.08103 0.0
H1121 H 0.12199 0.42053 0.0335 0.0
C1122 C 0.58564 0.62023 0.88764 0.0
C1123 C 0.58543 0.62081 0.83944 0.0
C1124 C 0.58915 0.63254 0.91523 0.0
C1125 C 0.59508 0.67013 0.91111 0.0
H1126 H 0.62709 0.67989 0.02173 0.0
C1127 C 0.6428 0.73052 0.00246 0.0
C1128 C 0.64468 0.73163 0.05096 0.0
C1129 C 0.63221 0.71625 0.97834 0.0
C1130 C 0.61794 0.67723 0.99133 0.0
H1131 H 0.58793 0.63449 0.78226 0.0
H1132 H 0.59461 0.6561 0.83008 0.0
H1133 H 0.61455 0.65618 0.97685 0.0
H1134 H 0.63629 0.71861 0.1121 0.0
H1135 H 0.61799 0.69372 0.06995 0.0
H1136 H 0.59938 0.69171 0.92485 0.0
C1137 C 0.59168 0.64605 0.84688 0.0
C1138 C 0.61064 0.66355 0.96556 0.0
C1139 C 0.5879 0.63364 0.8193 0.0
C1140 C 0.63514 0.71817 0.07475 0.0
C1141 C 0.62474 0.70391 0.05065 0.0
C1142 C 0.6026 0.68393 0.93664 0.0
C1143 C 0.59284 0.64586 0.89532 0.0
C1144 C 0.59925 0.65985 0.92477 0.0
C1145 C 0.62345 0.70278 0.0022 0.0
C1146 C 0.61425 0.68768 0.9768 0.0
H1147 H 0.58365 0.61044 0.9042 0.0
H1148 H 0.58942 0.63175 0.95228 0.0
H1149 H 0.58613 0.66761 0.88043 0.0
H1150 H 0.64996 0.74067 0.98309 0.0
H1151 H 0.63158 0.71575 0.94102 0.0
C1152 C 0.72695 0.95405 0.70146 0.0
C1153 C 0.72754 0.95091 0.65489 0.0
C1154 C 0.73908 0.96875 0.72195 0.0
C1155 C 0.76344 0.00819 0.70179 0.0
H1156 H 0.7948 0.0151 0.81112 0.0
C1157 C 0.80487 0.06665 0.80262 0.0
C1158 C 0.80562 0.06635 0.85093 0.0
C1159 C 0.79911 0.05359 0.77511 0.0
C1160 C 0.78602 0.0134 0.78095 0.0
H1161 H 0.74115 0.96075 0.59311 0.0
H1162 H 0.76196 0.98674 0.62879 0.0
H1163 H 0.77652 0.99003 0.77027 0.0
H1164 H 0.80172 0.05231 0.90826 0.0
H1165 H 0.79106 0.02954 0.8609 0.0
H1166 H 0.77171 0.03107 0.71381 0.0
C1167 C 0.75228 0.97767 0.64937 0.0
C1168 C 0.77568 0.99905 0.75739 0.0
C1169 C 0.74041 0.96284 0.62908 0.0
C1170 C 0.80144 0.05298 0.87114 0.0
C1171 C 0.79535 0.03986 0.84372 0.0
C1172 C 0.77346 0.02246 0.72592 0.0
C1173 C 0.75178 0.98068 0.69608 0.0
C1174 C 0.76412 0.99627 0.71803 0.0
C1175 C 0.7936 0.03982 0.79525 0.0
C1176 C 0.78467 0.02522 0.76642 0.0
H1177 H 0.71726 0.94509 0.72232 0.0
H1178 H 0.73838 0.97085 0.75795 0.0
H1179 H 0.75449 0.00625 0.67166 0.0
H1180 H 0.80811 0.07681 0.786 0.0
H1181 H 0.79848 0.0542 0.73801 0.0
C1182 C 0.08042 0.75166 0.6374 0.0
C1183 C 0.08961 0.74505 0.628 0.0
C1184 C 0.06638 0.74475 0.66666 0.0
C1185 C 0.03336 0.70891 0.71759 0.0
H1186 H 0.04014 0.73441 0.82356 0.0
C1187 C 0.98872 0.68225 0.8669 0.0
C1188 C 0.98217 0.69008 0.88584 0.0
C1189 C 0.00286 0.68949 0.8382 0.0
C1190 C 0.03788 0.72716 0.79395 0.0
H1191 H 0.0906 0.72561 0.63915 0.0
H1192 H 0.06572 0.71333 0.689 0.0
H1193 H 0.06091 0.74555 0.76296 0.0
H1194 H 0.9859 0.71186 0.89175 0.0
H1195 H 0.01024 0.72443 0.84061 0.0
H1196 H 0.01017 0.69059 0.74749 0.0
C1197 C 0.06952 0.72392 0.67432 0.0
C1198 C 0.04977 0.73356 0.75925 0.0
C1199 C 0.08374 0.73094 0.64585 0.0
C1200 C 0.99079 0.70558 0.87793 0.0
C1201 C 0.00475 0.71278 0.8485 0.0
C1202 C 0.02133 0.70255 0.75188 0.0
C1203 C 0.06109 0.73099 0.68612 0.0
C1204 C 0.04769 0.72446 0.72098 0.0
C1205 C 0.01053 0.70465 0.827 0.0
C1206 C 0.02353 0.71155 0.7908 0.0
H1207 H 0.08476 0.76258 0.6244 0.0
H1208 H 0.05996 0.75034 0.675 0.0
H1209 H 0.03142 0.70168 0.68824 0.0
H1210 H 0.9824 0.67031 0.87278 0.0
H1211 H 0.00736 0.68302 0.82355 0.0
C1212 C 0.26057 0.28585 0.6334 0.0
C1213 C 0.26287 0.29847 0.65663 0.0
C1214 C 0.26516 0.27695 0.65645 0.0
C1215 C 0.26949 0.26489 0.76974 0.0
H1216 H 0.30813 0.26323 0.72756 0.0
C1217 C 0.30935 0.24956 0.88972 0.0
C1218 C 0.31779 0.24331 0.87087 0.0
C1219 C 0.29997 0.25367 0.86101 0.0
C1220 C 0.297 0.26319 0.73944 0.0
H1221 H 0.27128 0.31138 0.7224 0.0
H1222 H 0.27872 0.2956 0.76268 0.0
H1223 H 0.29634 0.27495 0.68101 0.0
H1224 H 0.32206 0.23557 0.80736 0.0
H1225 H 0.30492 0.24199 0.75734 0.0
H1226 H 0.26982 0.25302 0.8278 0.0
C1227 C 0.27362 0.29273 0.72663 0.0
C1228 C 0.29034 0.26999 0.71272 0.0
C1229 C 0.26948 0.30181 0.70343 0.0
C1230 C 0.31581 0.24049 0.82287 0.0
C1231 C 0.30612 0.24432 0.79416 0.0
C1232 C 0.27587 0.2578 0.79602 0.0
C1233 C 0.27161 0.28029 0.70336 0.0
C1234 C 0.27685 0.27124 0.72822 0.0
C1235 C 0.29848 0.25137 0.81268 0.0
C1236 C 0.29008 0.25721 0.78194 0.0
H1237 H 0.25552 0.28303 0.59733 0.0
H1238 H 0.26355 0.26741 0.63784 0.0
H1239 H 0.25895 0.26562 0.78219 0.0
H1240 H 0.31077 0.25199 0.92658 0.0
H1241 H 0.2946 0.25927 0.87683 0.0
C1242 C 0.98102 0.28017 0.38212 0.0
C1243 C 0.96761 0.28295 0.37623 0.0
C1244 C 0.99612 0.28769 0.35624 0.0
C1245 C 0.02165 0.32038 0.28173 0.0
H1246 H 0.03551 0.2958 0.22738 0.0
C1247 C 0.06735 0.32274 0.12924 0.0
C1248 C 0.08296 0.33769 0.13872 0.0
C1249 C 0.05324 0.31638 0.15834 0.0
C1250 C 0.03166 0.30278 0.24189 0.0
H1251 H 0.96005 0.29639 0.34028 0.0
H1252 H 0.98605 0.30925 0.29517 0.0
H1253 H 0.01187 0.28462 0.28078 0.0
H1254 H 0.09573 0.3578 0.18557 0.0
H1255 H 0.07144 0.34669 0.23622 0.0
H1256 H 0.04092 0.33836 0.24169 0.0
C1257 C 0.98509 0.3014 0.31988 0.0
C1258 C 0.01834 0.29644 0.27314 0.0
C1259 C 0.97008 0.29393 0.34566 0.0
C1260 C 0.0839 0.34626 0.17708 0.0
C1261 C 0.06989 0.3399 0.20613 0.0
C1262 C 0.03488 0.32668 0.25035 0.0
C1263 C 0.99811 0.29816 0.3241 0.0
C1264 C 0.01312 0.30516 0.29328 0.0
C1265 C 0.05448 0.32483 0.19749 0.0
C1266 C 0.04004 0.31796 0.22998 0.0
H1267 H 0.97952 0.27178 0.4054 0.0
H1268 H 0.00608 0.28513 0.36084 0.0
H1269 H 0.01808 0.32747 0.29689 0.0
H1270 H 0.06618 0.31584 0.09996 0.0
H1271 H 0.04141 0.30482 0.15029 0.0
C1272 C 0.80961 0.73505 0.31002 0.0
C1273 C 0.80999 0.73681 0.35807 0.0
C1274 C 0.80388 0.74198 0.2804 0.0
C1275 C 0.79065 0.76944 0.27912 0.0
H1276 H 0.75944 0.74417 0.17109 0.0
C1277 C 0.73095 0.7693 0.19579 0.0
C1278 C 0.73102 0.77193 0.14858 0.0
C1279 C 0.74353 0.76712 0.21717 0.0
C1280 C 0.76834 0.75144 0.20077 0.0
H1281 H 0.80541 0.74774 0.41275 0.0
H1282 H 0.79482 0.75927 0.36168 0.0
H1283 H 0.77667 0.73685 0.21653 0.0
H1284 H 0.74424 0.77423 0.08661 0.0
H1285 H 0.76589 0.76973 0.124 0.0
H1286 H 0.78107 0.78334 0.26479 0.0
C1287 C 0.79937 0.75294 0.34637 0.0
C1288 C 0.77834 0.74733 0.22682 0.0
C1289 C 0.8054 0.74624 0.3759 0.0
C1290 C 0.7439 0.77224 0.12305 0.0
C1291 C 0.75624 0.76966 0.14432 0.0
C1292 C 0.78036 0.77334 0.25362 0.0
C1293 C 0.79809 0.75061 0.29813 0.0
C1294 C 0.78935 0.75609 0.26702 0.0
C1295 C 0.75621 0.7672 0.19164 0.0
C1296 C 0.76888 0.76423 0.21474 0.0
H1297 H 0.81319 0.72793 0.29523 0.0
H1298 H 0.80356 0.74022 0.24358 0.0
H1299 H 0.7993 0.77673 0.309 0.0
H1300 H 0.72128 0.7691 0.21646 0.0
H1301 H 0.74316 0.76512 0.25362 0.0
C1302 C 0.24166 0.95606 0.19248 0.0
C1303 C 0.24208 0.95753 0.14461 0.0
C1304 C 0.24547 0.96809 0.22211 0.0
C1305 C 0.25395 0.00672 0.22487 0.0
H1306 H 0.28475 0.01348 0.33527 0.0
C1307 C 0.30432 0.06546 0.32376 0.0
C1308 C 0.30612 0.06586 0.37221 0.0
C1309 C 0.29298 0.05156 0.29792 0.0
C1310 C 0.27593 0.01165 0.30498 0.0
H1311 H 0.24594 0.97248 0.09011 0.0
H1312 H 0.25314 0.99357 0.14152 0.0
H1313 H 0.2711 0.99024 0.2869 0.0
H1314 H 0.29678 0.05201 0.43151 0.0
H1315 H 0.27715 0.02776 0.38635 0.0
H1316 H 0.25973 0.02867 0.24224 0.0
C1317 C 0.24949 0.98307 0.15648 0.0
C1318 C 0.268 0.99826 0.27719 0.0
C1319 C 0.24541 0.97095 0.12684 0.0
C1320 C 0.29573 0.05212 0.39426 0.0
C1321 C 0.28455 0.03821 0.36841 0.0
C1322 C 0.26211 0.02025 0.25245 0.0
C1323 C 0.25011 0.98198 0.20466 0.0
C1324 C 0.25706 0.99565 0.23638 0.0
C1325 C 0.28335 0.03775 0.31996 0.0
C1326 C 0.27335 0.02292 0.29255 0.0
H1327 H 0.239 0.94581 0.20724 0.0
H1328 H 0.24529 0.96662 0.25886 0.0
H1329 H 0.24538 0.00505 0.19425 0.0
H1330 H 0.31212 0.07585 0.3057 0.0
H1331 H 0.29243 0.05157 0.26063 0.0
loop_
_geom_bond_atom_site_label_1
_geom_bond_atom_site_label_2
_geom_bond_distance
_geom_bond_site_symmetry_2
_ccdc_geom_bond_type
O0 Cd1 2.223 . S
O0 C8 1.315 . S
Cd1 O0 2.223 . S
Cd1 O4 2.297 . S
Cd1 O5 2.439 . S
Cd1 O11 2.240 . S
Cd2 O3 2.240 . S
Cd2 O10 2.223 . S
Cd2 O12 2.297 . S
Cd2 O13 2.439 . S
O3 Cd2 2.240 . S
O3 C8 1.279 . S
O4 Cd1 2.297 . S
O4 C6 1.247 . S
O5 Cd1 2.439 . S
O5 C6 1.208 . S
C6 O4 1.247 . S
C6 O5 1.208 . S
C7 O12 1.247 . S
C7 O13 1.208 . S
C8 O0 1.315 . S
C8 O3 1.279 . S
C9 O10 1.315 . S
C9 O11 1.279 . S
O10 Cd2 2.223 . S
O10 C9 1.315 . S
O11 Cd1 2.240 . S
O11 C9 1.279 . S
O12 Cd2 2.297 . S
O12 C7 1.247 . S
O13 Cd2 2.439 . S
O13 C7 1.208 . S
O14 Cd15 2.223 . S
O14 C22 1.315 . S
Cd15 O14 2.223 . S
Cd15 O18 2.297 . S
Cd15 O19 2.439 . S
Cd15 O25 2.240 . S
Cd16 O17 2.240 . S
Cd16 O24 2.223 . S
Cd16 O26 2.297 . S
Cd16 O27 2.439 . S
O17 Cd16 2.240 . S
O17 C22 1.279 . S
O18 Cd15 2.297 . S
O18 C20 1.247 . S
O19 Cd15 2.439 . S
O19 C20 1.208 . S
C20 O18 1.247 . S
C20 O19 1.208 . S
C21 O26 1.247 . S
C21 O27 1.208 . S
C22 O14 1.315 . S
C22 O17 1.279 . S
C23 O24 1.315 . S
C23 O25 1.279 . S
O24 Cd16 2.223 . S
O24 C23 1.315 . S
O25 Cd15 2.240 . S
O25 C23 1.279 . S
O26 Cd16 2.297 . S
O26 C21 1.247 . S
O27 Cd16 2.439 . S
O27 C21 1.208 . S
O28 Cd29 2.223 . S
O28 C36 1.315 . S
Cd29 O28 2.223 . S
Cd29 O32 2.297 . S
Cd29 O33 2.439 . S
Cd29 O39 2.240 . S
Cd30 O31 2.240 . S
Cd30 O38 2.220 1_565 S
Cd30 O40 2.297 . S
Cd30 O41 2.439 . S
O31 Cd30 2.240 . S
O31 C36 1.279 1_565 S
O32 Cd29 2.297 . S
O32 C34 1.247 . S
O33 Cd29 2.439 . S
O33 C34 1.208 . S
C34 O32 1.247 . S
C34 O33 1.208 . S
C35 O40 1.247 . S
C35 O41 1.208 . S
C36 O28 1.315 . S
C36 O31 1.279 1_545 S
C37 O38 1.322 . S
C37 O39 1.279 . S
O38 Cd30 2.220 1_545 S
O38 C37 1.322 . S
O39 Cd29 2.240 . S
O39 C37 1.279 . S
O40 Cd30 2.297 . S
O40 C35 1.247 . S
O41 Cd30 2.439 . S
O41 C35 1.208 . S
O42 Cd43 2.223 . S
O42 C50 1.315 . S
Cd43 O42 2.223 . S
Cd43 O46 2.297 . S
Cd43 O47 2.439 . S
Cd43 O53 2.240 . S
Cd44 O45 2.240 . S
Cd44 O52 2.223 1_655 S
Cd44 O54 2.297 . S
Cd44 O55 2.439 . S
O45 Cd44 2.240 . S
O45 C50 1.279 1_655 S
O46 Cd43 2.297 . S
O46 C48 1.247 . S
O47 Cd43 2.439 . S
O47 C48 1.208 . S
C48 O46 1.247 . S
C48 O47 1.208 . S
C49 O54 1.247 . S
C49 O55 1.208 . S
C50 O42 1.315 . S
C50 O45 1.279 1_455 S
C51 O52 1.315 . S
C51 O53 1.279 . S
O52 Cd44 2.223 1_455 S
O52 C51 1.315 . S
O53 Cd43 2.240 . S
O53 C51 1.279 . S
O54 Cd44 2.297 . S
O54 C49 1.247 . S
O55 Cd44 2.439 . S
O55 C49 1.208 . S
O56 Cd57 2.223 . S
O56 C64 1.315 . S
Cd57 O56 2.223 . S
Cd57 O60 2.297 . S
Cd57 O61 2.439 . S
Cd57 O67 2.240 . S
Cd58 O59 2.240 . S
Cd58 O66 2.223 . S
Cd58 O68 2.297 . S
Cd58 O69 2.439 . S
O59 Cd58 2.240 . S
O59 C64 1.279 . S
O60 Cd57 2.297 . S
O60 C62 1.247 . S
O61 Cd57 2.439 . S
O61 C62 1.208 . S
C62 O60 1.247 . S
C62 O61 1.208 . S
C63 O68 1.247 . S
C63 O69 1.208 . S
C64 O56 1.315 . S
C64 O59 1.279 . S
C65 O66 1.315 . S
C65 O67 1.279 . S
O66 Cd58 2.223 . S
O66 C65 1.315 . S
O67 Cd57 2.240 . S
O67 C65 1.279 . S
O68 Cd58 2.297 . S
O68 C63 1.247 . S
O69 Cd58 2.439 . S
O69 C63 1.208 . S
O70 Cd71 2.223 . S
O70 C78 1.315 . S
Cd71 O70 2.223 . S
Cd71 O74 2.297 . S
Cd71 O75 2.439 . S
Cd71 O81 2.240 . S
Cd72 O73 2.240 . S
Cd72 O80 2.223 . S
Cd72 O82 2.297 . S
Cd72 O83 2.439 . S
O73 Cd72 2.240 . S
O73 C78 1.279 . S
O74 Cd71 2.297 . S
O74 C76 1.247 . S
O75 Cd71 2.439 . S
O75 C76 1.208 . S
C76 O74 1.247 . S
C76 O75 1.208 . S
C77 O82 1.247 . S
C77 O83 1.208 . S
C78 O70 1.315 . S
C78 O73 1.279 . S
C79 O80 1.315 . S
C79 O81 1.279 . S
O80 Cd72 2.223 . S
O80 C79 1.315 . S
O81 Cd71 2.240 . S
O81 C79 1.279 . S
O82 Cd72 2.297 . S
O82 C77 1.247 . S
O83 Cd72 2.439 . S
O83 C77 1.208 . S
O84 Cd85 2.223 . S
O84 C92 1.315 . S
Cd85 O84 2.223 . S
Cd85 O88 2.297 . S
Cd85 O89 2.439 . S
Cd85 O95 2.240 . S
Cd86 O87 2.240 . S
Cd86 O94 2.223 . S
Cd86 O96 2.297 . S
Cd86 O97 2.439 . S
O87 Cd86 2.240 . S
O87 C92 1.279 . S
O88 Cd85 2.297 . S
O88 C90 1.247 . S
O89 Cd85 2.439 . S
O89 C90 1.208 . S
C90 O88 1.247 . S
C90 O89 1.208 . S
C91 O96 1.247 . S
C91 O97 1.208 . S
C92 O84 1.315 . S
C92 O87 1.279 . S
C93 O94 1.315 . S
C93 O95 1.279 . S
O94 Cd86 2.223 . S
O94 C93 1.315 . S
O95 Cd85 2.240 . S
O95 C93 1.279 . S
O96 Cd86 2.297 . S
O96 C91 1.247 . S
O97 Cd86 2.439 . S
O97 C91 1.208 . S
O98 Cd99 2.223 . S
O98 C106 1.315 . S
Cd99 O98 2.223 . S
Cd99 O102 2.297 . S
Cd99 O103 2.439 . S
Cd99 O109 2.240 . S
Cd100 O101 2.240 . S
Cd100 O108 2.223 . S
Cd100 O110 2.297 . S
Cd100 O111 2.439 . S
O101 Cd100 2.240 . S
O101 C106 1.279 . S
O102 Cd99 2.297 . S
O102 C104 1.247 . S
O103 Cd99 2.439 . S
O103 C104 1.208 . S
C104 O102 1.247 . S
C104 O103 1.208 . S
C105 O110 1.247 . S
C105 O111 1.208 . S
C106 O98 1.315 . S
C106 O101 1.279 . S
C107 O108 1.315 . S
C107 O109 1.279 . S
O108 Cd100 2.223 . S
O108 C107 1.315 . S
O109 Cd99 2.240 . S
O109 C107 1.279 . S
O110 Cd100 2.297 . S
O110 C105 1.247 . S
O111 Cd100 2.439 . S
O111 C105 1.208 . S
O112 Cd113 2.223 . S
O112 C120 1.315 . S
Cd113 O112 2.223 . S
Cd113 O116 2.297 . S
Cd113 O117 2.439 . S
Cd113 O123 2.240 . S
Cd114 O115 2.240 . S
Cd114 O122 2.223 . S
Cd114 O124 2.297 . S
Cd114 O125 2.439 . S
O115 Cd114 2.240 . S
O115 C120 1.279 . S
O116 Cd113 2.297 . S
O116 C118 1.247 . S
O117 Cd113 2.439 . S
O117 C118 1.208 . S
C118 O116 1.247 . S
C118 O117 1.208 . S
C119 O124 1.247 . S
C119 O125 1.208 . S
C120 O112 1.315 . S
C120 O115 1.279 . S
C121 O122 1.315 . S
C121 O123 1.279 . S
O122 Cd114 2.223 . S
O122 C121 1.315 . S
O123 Cd113 2.240 . S
O123 C121 1.279 . S
O124 Cd114 2.297 . S
O124 C119 1.247 . S
O125 Cd114 2.439 . S
O125 C119 1.208 . S
O126 Cd127 2.223 . S
O126 C134 1.315 . S
Cd127 O126 2.223 . S
Cd127 O130 2.297 . S
Cd127 O131 2.439 1_554 S
Cd127 O137 2.240 . S
Cd128 O129 2.240 . S
Cd128 O136 2.223 . S
Cd128 O138 2.297 . S
Cd128 O139 2.439 . S
O129 Cd128 2.240 . S
O129 C134 1.279 . S
O130 Cd127 2.297 . S
O130 C132 1.247 1_554 S
O131 Cd127 2.439 1_556 S
O131 C132 1.208 . S
C132 O130 1.247 1_556 S
C132 O131 1.208 . S
C133 O138 1.247 . S
C133 O139 1.208 . S
C134 O126 1.315 . S
C134 O129 1.279 . S
C135 O136 1.315 . S
C135 O137 1.279 . S
O136 Cd128 2.223 . S
O136 C135 1.315 . S
O137 Cd127 2.240 . S
O137 C135 1.279 . S
O138 Cd128 2.297 . S
O138 C133 1.247 . S
O139 Cd128 2.439 . S
O139 C133 1.208 . S
O140 Cd141 2.223 . S
O140 C148 1.315 . S
Cd141 O140 2.223 . S
Cd141 O144 2.297 . S
Cd141 O145 2.439 . S
Cd141 O151 2.240 . S
Cd142 O143 2.240 . S
Cd142 O150 2.223 . S
Cd142 O152 2.297 . S
Cd142 O153 2.439 . S
O143 Cd142 2.240 . S
O143 C148 1.279 . S
O144 Cd141 2.297 . S
O144 C146 1.247 . S
O145 Cd141 2.439 . S
O145 C146 1.208 . S
C146 O144 1.247 . S
C146 O145 1.208 . S
C147 O152 1.247 . S
C147 O153 1.208 . S
C148 O140 1.315 . S
C148 O143 1.279 . S
C149 O150 1.315 . S
C149 O151 1.279 . S
O150 Cd142 2.223 . S
O150 C149 1.315 . S
O151 Cd141 2.240 . S
O151 C149 1.279 . S
O152 Cd142 2.297 . S
O152 C147 1.247 . S
O153 Cd142 2.439 . S
O153 C147 1.208 . S
O154 Cd155 2.223 . S
O154 C162 1.315 . S
Cd155 O154 2.223 . S
Cd155 O158 2.297 . S
Cd155 O159 2.439 1_554 S
Cd155 O165 2.240 . S
Cd156 O157 2.240 . S
Cd156 O164 2.223 . S
Cd156 O166 2.297 . S
Cd156 O167 2.439 . S
O157 Cd156 2.240 . S
O157 C162 1.279 . S
O158 Cd155 2.297 . S
O158 C160 1.247 1_554 S
O159 Cd155 2.439 1_556 S
O159 C160 1.208 . S
C160 O158 1.247 1_556 S
C160 O159 1.208 . S
C161 O166 1.247 . S
C161 O167 1.208 . S
C162 O154 1.315 . S
C162 O157 1.279 . S
C163 O164 1.315 . S
C163 O165 1.279 . S
O164 Cd156 2.223 . S
O164 C163 1.315 . S
O165 Cd155 2.240 . S
O165 C163 1.279 . S
O166 Cd156 2.297 . S
O166 C161 1.247 . S
O167 Cd156 2.439 . S
O167 C161 1.208 . S
O168 Cd169 2.223 . S
O168 C176 1.315 . S
Cd169 O168 2.223 . S
Cd169 O172 2.297 . S
Cd169 O173 2.439 . S
Cd169 O179 2.240 . S
Cd170 O171 2.240 . S
Cd170 O178 2.223 1_556 S
Cd170 O180 2.297 . S
Cd170 O181 2.439 . S
O171 Cd170 2.240 . S
O171 C176 1.279 . S
O172 Cd169 2.297 . S
O172 C174 1.247 . S
O173 Cd169 2.439 . S
O173 C174 1.208 . S
C174 O172 1.247 . S
C174 O173 1.208 . S
C175 O180 1.247 . S
C175 O181 1.208 . S
C176 O168 1.315 . S
C176 O171 1.279 . S
C177 O178 1.315 1_556 S
C177 O179 1.279 . S
O178 Cd170 2.223 1_554 S
O178 C177 1.315 1_554 S
O179 Cd169 2.240 . S
O179 C177 1.279 . S
O180 Cd170 2.297 . S
O180 C175 1.247 . S
O181 Cd170 2.439 . S
O181 C175 1.208 . S
O182 Cd183 2.223 . S
O182 C190 1.315 . S
Cd183 O182 2.223 . S
Cd183 O186 2.297 . S
Cd183 O187 2.439 . S
Cd183 O193 2.240 . S
Cd184 O185 2.240 . S
Cd184 O192 2.223 . S
Cd184 O194 2.297 . S
Cd184 O195 2.439 . S
O185 Cd184 2.240 . S
O185 C190 1.279 . S
O186 Cd183 2.297 . S
O186 C188 1.247 . S
O187 Cd183 2.439 . S
O187 C188 1.208 . S
C188 O186 1.247 . S
C188 O187 1.208 . S
C189 O194 1.247 . S
C189 O195 1.208 . S
C190 O182 1.315 . S
C190 O185 1.279 . S
C191 O192 1.315 . S
C191 O193 1.279 . S
O192 Cd184 2.223 . S
O192 C191 1.315 . S
O193 Cd183 2.240 . S
O193 C191 1.279 . S
O194 Cd184 2.297 . S
O194 C189 1.247 . S
O195 Cd184 2.439 . S
O195 C189 1.208 . S
O196 Cd197 2.223 . S
O196 C204 1.315 . S
Cd197 O196 2.223 . S
Cd197 O200 2.297 . S
Cd197 O201 2.439 . S
Cd197 O207 2.240 . S
Cd198 O199 2.240 . S
Cd198 O206 2.223 . S
Cd198 O208 2.297 . S
Cd198 O209 2.439 . S
O199 Cd198 2.240 . S
O199 C204 1.279 . S
O200 Cd197 2.297 . S
O200 C202 1.247 . S
O201 Cd197 2.439 . S
O201 C202 1.208 . S
C202 O200 1.247 . S
C202 O201 1.208 . S
C203 O208 1.247 . S
C203 O209 1.208 . S
C204 O196 1.315 . S
C204 O199 1.279 . S
C205 O206 1.315 . S
C205 O207 1.279 . S
O206 Cd198 2.223 . S
O206 C205 1.315 . S
O207 Cd197 2.240 . S
O207 C205 1.279 . S
O208 Cd198 2.297 . S
O208 C203 1.247 . S
O209 Cd198 2.439 . S
O209 C203 1.208 . S
O210 Cd211 2.223 . S
O210 C218 1.315 . S
Cd211 O210 2.223 . S
Cd211 O214 2.297 . S
Cd211 O215 2.439 . S
Cd211 O221 2.240 . S
Cd212 O213 2.240 . S
Cd212 O220 2.223 . S
Cd212 O222 2.297 . S
Cd212 O223 2.439 . S
O213 Cd212 2.240 . S
O213 C218 1.279 . S
O214 Cd211 2.297 . S
O214 C216 1.247 . S
O215 Cd211 2.439 . S
O215 C216 1.208 . S
C216 O214 1.247 . S
C216 O215 1.208 . S
C217 O222 1.247 . S
C217 O223 1.208 . S
C218 O210 1.315 . S
C218 O213 1.279 . S
C219 O220 1.315 . S
C219 O221 1.279 . S
O220 Cd212 2.223 . S
O220 C219 1.315 . S
O221 Cd211 2.240 . S
O221 C219 1.279 . S
O222 Cd212 2.297 . S
O222 C217 1.247 . S
O223 Cd212 2.439 . S
O223 C217 1.208 . S
O224 Cd225 2.223 . S
O224 C232 1.315 . S
Cd225 O224 2.223 . S
Cd225 O228 2.297 . S
Cd225 O229 2.439 . S
Cd225 O235 2.240 . S
Cd226 O227 2.240 . S
Cd226 O234 2.223 . S
Cd226 O236 2.297 . S
Cd226 O237 2.439 . S
O227 Cd226 2.240 . S
O227 C232 1.279 . S
O228 Cd225 2.297 . S
O228 C230 1.247 . S
O229 Cd225 2.439 . S
O229 C230 1.208 . S
C230 O228 1.247 . S
C230 O229 1.208 . S
C231 O236 1.247 . S
C231 O237 1.208 . S
C232 O224 1.315 . S
C232 O227 1.279 . S
C233 O234 1.315 . S
C233 O235 1.279 . S
O234 Cd226 2.223 . S
O234 C233 1.315 . S
O235 Cd225 2.240 . S
O235 C233 1.279 . S
O236 Cd226 2.297 . S
O236 C231 1.247 . S
O237 Cd226 2.439 . S
O237 C231 1.208 . S
O238 Cd239 2.223 . S
O238 C246 1.315 . S
Cd239 O238 2.223 . S
Cd239 O242 2.297 . S
Cd239 O243 2.439 . S
Cd239 O249 2.240 . S
Cd240 O241 2.240 . S
Cd240 O248 2.223 . S
Cd240 O250 2.297 . S
Cd240 O251 2.439 . S
O241 Cd240 2.240 . S
O241 C246 1.279 . S
O242 Cd239 2.297 . S
O242 C244 1.247 . S
O243 Cd239 2.439 . S
O243 C244 1.208 . S
C244 O242 1.247 . S
C244 O243 1.208 . S
C245 O250 1.247 . S
C245 O251 1.208 . S
C246 O238 1.315 . S
C246 O241 1.279 . S
C247 O248 1.315 . S
C247 O249 1.279 . S
O248 Cd240 2.223 . S
O248 C247 1.315 . S
O249 Cd239 2.240 . S
O249 C247 1.279 . S
O250 Cd240 2.297 . S
O250 C245 1.247 . S
O251 Cd240 2.439 . S
O251 C245 1.208 . S
C252 C253 1.349 . S
C252 C254 1.327 . S
C252 H277 0.950 . S
C253 C252 1.349 . S
C253 C269 1.349 1_455 S
C254 C252 1.327 . S
C254 C273 1.429 . S
C254 H278 0.950 . S
C255 C272 1.574 . S
C255 C274 1.368 . S
C255 H279 0.949 1_455 S
H256 C260 0.947 1_554 S
C257 C258 1.349 . S
C257 C259 1.327 . S
C257 H280 0.950 . S
C258 C257 1.349 . S
C258 C270 1.349 . S
C259 C257 1.327 . S
C259 C275 1.429 . S
C259 H281 0.950 . S
C260 H256 0.947 1_556 S
C260 C268 1.577 . S
C260 C276 1.368 1_556 S
H261 C269 0.950 . S
H262 C267 0.950 . S
H263 C268 0.949 . S
H264 C270 0.950 . S
H265 C271 0.950 . S
H266 C272 0.949 1_655 S
C267 H262 0.950 . S
C267 C269 1.327 . S
C267 C273 1.429 1_655 S
C268 C260 1.577 . S
C268 H263 0.949 . S
C268 C274 1.368 . S
C269 C253 1.349 1_655 S
C269 H261 0.950 . S
C269 C267 1.327 . S
C270 C258 1.349 . S
C270 H264 0.950 . S
C270 C271 1.327 . S
C271 H265 0.950 . S
C271 C270 1.327 . S
C271 C275 1.429 . S
C272 C255 1.574 . S
C272 H266 0.949 1_455 S
C272 C276 1.368 1_556 S
C273 C254 1.429 . S
C273 C267 1.429 1_455 S
C273 C274 1.523 . S
C274 C255 1.368 . S
C274 C268 1.368 . S
C274 C273 1.523 . S
C275 C259 1.429 . S
C275 C271 1.429 . S
C275 C276 1.523 . S
C276 C260 1.368 1_554 S
C276 C272 1.368 1_554 S
C276 C275 1.523 . S
H277 C252 0.950 . S
H278 C254 0.950 . S
H279 C255 0.949 1_655 S
H280 C257 0.950 . S
H281 C259 0.950 . S
C282 C283 1.349 . S
C282 C284 1.327 . S
C282 H307 0.950 . S
C283 C282 1.349 . S
C283 C299 1.349 . S
C284 C282 1.327 . S
C284 C303 1.429 . S
C284 H308 0.950 . S
C285 C302 1.574 . S
C285 C304 1.368 1_554 S
C285 H309 0.949 . S
H286 C290 0.949 . S
C287 C288 1.349 . S
C287 C289 1.327 . S
C287 H310 0.950 . S
C288 C287 1.349 . S
C288 C300 1.349 . S
C289 C287 1.327 . S
C289 C305 1.429 . S
C289 H311 0.950 . S
C290 H286 0.949 . S
C290 C298 1.574 1_554 S
C290 C306 1.368 . S
H291 C299 0.950 . S
H292 C297 0.950 . S
H293 C298 0.949 . S
H294 C300 0.950 . S
H295 C301 0.950 . S
H296 C302 0.949 . S
C297 H292 0.950 . S
C297 C299 1.327 . S
C297 C303 1.429 . S
C298 C290 1.574 1_556 S
C298 H293 0.949 . S
C298 C304 1.368 . S
C299 C283 1.349 . S
C299 H291 0.950 . S
C299 C297 1.327 . S
C300 C288 1.349 . S
C300 H294 0.950 . S
C300 C301 1.327 . S
C301 H295 0.950 . S
C301 C300 1.327 . S
C301 C305 1.429 . S
C302 C285 1.574 . S
C302 H296 0.949 . S
C302 C306 1.368 . S
C303 C284 1.429 . S
C303 C297 1.429 . S
C303 C304 1.523 . S
C304 C285 1.368 1_556 S
C304 C298 1.368 . S
C304 C303 1.523 . S
C305 C289 1.429 . S
C305 C301 1.429 . S
C305 C306 1.523 . S
C306 C290 1.368 . S
C306 C302 1.368 . S
C306 C305 1.523 . S
H307 C282 0.950 . S
H308 C284 0.950 . S
H309 C285 0.949 . S
H310 C287 0.950 . S
H311 C289 0.950 . S
C312 C313 1.349 . S
C312 C314 1.327 . S
C312 H337 0.950 . S
C313 C312 1.349 . S
C313 C329 1.349 1_545 S
C314 C312 1.327 . S
C314 C333 1.429 . S
C314 H338 0.950 . S
C315 C332 1.574 1_554 S
C315 C334 1.368 . S
C315 H339 0.925 1_545 S
H316 C320 0.949 . S
C317 C318 1.349 . S
C317 C319 1.327 . S
C317 H340 0.950 . S
C318 C317 1.349 . S
C318 C330 1.349 . S
C319 C317 1.327 . S
C319 C335 1.429 . S
C319 H341 0.950 . S
C320 H316 0.949 . S
C320 C328 1.574 . S
C320 C336 1.368 1_554 S
H321 C329 0.950 . S
H322 C327 0.950 1_565 S
H323 C328 0.949 . S
H324 C330 0.950 . S
H325 C331 0.950 . S
H326 C332 0.949 . S
C327 H322 0.950 1_545 S
C327 C329 1.327 1_545 S
C327 C333 1.429 . S
C328 C320 1.574 . S
C328 H323 0.949 . S
C328 C334 1.368 . S
C329 C313 1.349 1_565 S
C329 H321 0.950 . S
C329 C327 1.327 1_565 S
C330 C318 1.349 . S
C330 H324 0.950 . S
C330 C331 1.327 . S
C331 H325 0.950 . S
C331 C330 1.327 . S
C331 C335 1.429 . S
C332 C315 1.574 1_556 S
C332 H326 0.949 . S
C332 C336 1.368 . S
C333 C314 1.429 . S
C333 C327 1.429 . S
C333 C334 1.523 . S
C334 C315 1.368 . S
C334 C328 1.368 . S
C334 C333 1.523 . S
C335 C319 1.429 . S
C335 C331 1.429 . S
C335 C336 1.523 . S
C336 C320 1.368 1_556 S
C336 C332 1.368 . S
C336 C335 1.523 . S
H337 C312 0.950 . S
H338 C314 0.950 . S
H339 C315 0.925 1_565 S
H340 C317 0.950 . S
H341 C319 0.950 . S
C342 C343 1.349 . S
C342 C344 1.327 . S
C342 H367 0.950 . S
C343 C342 1.349 . S
C343 C359 1.349 . S
C344 C342 1.327 . S
C344 C363 1.429 . S
C344 H368 0.950 . S
C345 C362 1.574 . S
C345 C364 1.368 . S
C345 H369 0.949 . S
H346 C350 0.949 . S
C347 C348 1.349 . S
C347 C349 1.327 . S
C347 H370 0.950 . S
C348 C347 1.349 . S
C348 C360 1.349 . S
C349 C347 1.327 . S
C349 C365 1.429 . S
C349 H371 0.950 . S
C350 H346 0.949 . S
C350 C358 1.574 . S
C350 C366 1.368 . S
H351 C359 0.950 1_565 S
H352 C357 0.950 . S
H353 C358 0.949 . S
H354 C360 0.950 . S
H355 C361 0.950 . S
H356 C362 0.949 . S
C357 H352 0.950 . S
C357 C359 1.327 . S
C357 C363 1.429 . S
C358 C350 1.574 . S
C358 H353 0.949 . S
C358 C364 1.368 . S
C359 C343 1.349 . S
C359 H351 0.950 1_545 S
C359 C357 1.327 . S
C360 C348 1.349 . S
C360 H354 0.950 . S
C360 C361 1.327 . S
C361 H355 0.950 . S
C361 C360 1.327 . S
C361 C365 1.429 . S
C362 C345 1.574 . S
C362 H356 0.949 . S
C362 C366 1.368 . S
C363 C344 1.429 . S
C363 C357 1.429 . S
C363 C364 1.523 . S
C364 C345 1.368 . S
C364 C358 1.368 . S
C364 C363 1.523 . S
C365 C349 1.429 . S
C365 C361 1.429 . S
C365 C366 1.523 . S
C366 C350 1.368 . S
C366 C362 1.368 . S
C366 C365 1.523 . S
H367 C342 0.950 . S
H368 C344 0.950 . S
H369 C345 0.949 . S
H370 C347 0.950 . S
H371 C349 0.950 . S
C372 C373 1.349 . S
C372 C374 1.327 . S
C372 H397 0.950 . S
C373 C372 1.349 . S
C373 C389 1.349 . S
C374 C372 1.327 . S
C374 C393 1.429 . S
C374 H398 0.950 . S
C375 C392 1.574 . S
C375 C394 1.368 . S
C375 H399 0.949 . S
H376 C380 0.949 . S
C377 C378 1.349 . S
C377 C379 1.327 . S
C377 H400 0.950 . S
C378 C377 1.349 . S
C378 C390 1.349 . S
C379 C377 1.327 . S
C379 C395 1.429 . S
C379 H401 0.950 . S
C380 H376 0.949 . S
C380 C388 1.574 . S
C380 C396 1.368 . S
H381 C389 0.950 . S
H382 C387 0.950 . S
H383 C388 0.949 . S
H384 C390 0.950 . S
H385 C391 0.950 . S
H386 C392 0.949 . S
C387 H382 0.950 . S
C387 C389 1.327 . S
C387 C393 1.429 . S
C388 C380 1.574 . S
C388 H383 0.949 . S
C388 C394 1.368 . S
C389 C373 1.349 . S
C389 H381 0.950 . S
C389 C387 1.327 . S
C390 C378 1.349 . S
C390 H384 0.950 . S
C390 C391 1.327 . S
C391 H385 0.950 . S
C391 C390 1.327 . S
C391 C395 1.429 . S
C392 C375 1.574 . S
C392 H386 0.949 . S
C392 C396 1.368 . S
C393 C374 1.429 . S
C393 C387 1.429 . S
C393 C394 1.523 . S
C394 C375 1.368 . S
C394 C388 1.368 . S
C394 C393 1.523 . S
C395 C379 1.429 . S
C395 C391 1.429 . S
C395 C396 1.523 . S
C396 C380 1.368 . S
C396 C392 1.368 . S
C396 C395 1.523 . S
H397 C372 0.950 . S
H398 C374 0.950 . S
H399 C375 0.949 . S
H400 C377 0.950 . S
H401 C379 0.950 . S
C402 C403 1.349 . S
C402 C404 1.327 . S
C402 H427 0.950 . S
C403 C402 1.349 . S
C403 C419 1.349 . S
C404 C402 1.327 . S
C404 C423 1.429 . S
C404 H428 0.950 . S
C405 C422 1.574 . S
C405 C424 1.368 . S
C405 H429 0.949 . S
H406 C410 0.949 . S
C407 C408 1.349 . S
C407 C409 1.327 . S
C407 H430 0.950 . S
C408 C407 1.349 . S
C408 C420 1.349 . S
C409 C407 1.327 . S
C409 C425 1.429 . S
C409 H431 0.950 . S
C410 H406 0.949 . S
C410 C418 1.574 . S
C410 C426 1.368 . S
H411 C419 0.950 . S
H412 C417 0.950 . S
H413 C418 0.949 . S
H414 C420 0.950 . S
H415 C421 0.950 . S
H416 C422 0.949 . S
C417 H412 0.950 . S
C417 C419 1.327 . S
C417 C423 1.429 . S
C418 C410 1.574 . S
C418 H413 0.949 . S
C418 C424 1.368 . S
C419 C403 1.349 . S
C419 H411 0.950 . S
C419 C417 1.327 . S
C420 C408 1.349 . S
C420 H414 0.950 . S
C420 C421 1.327 . S
C421 H415 0.950 . S
C421 C420 1.327 . S
C421 C425 1.429 . S
C422 C405 1.574 . S
C422 H416 0.949 . S
C422 C426 1.368 . S
C423 C404 1.429 . S
C423 C417 1.429 . S
C423 C424 1.523 . S
C424 C405 1.368 . S
C424 C418 1.368 . S
C424 C423 1.523 . S
C425 C409 1.429 . S
C425 C421 1.429 . S
C425 C426 1.523 . S
C426 C410 1.368 . S
C426 C422 1.368 . S
C426 C425 1.523 . S
H427 C402 0.950 . S
H428 C404 0.950 . S
H429 C405 0.949 . S
H430 C407 0.950 . S
H431 C409 0.950 . S
C432 C433 1.349 . S
C432 C434 1.327 . S
C432 H457 0.950 . S
C433 C432 1.349 . S
C433 C449 1.349 . S
C434 C432 1.327 . S
C434 C453 1.429 . S
C434 H458 0.950 . S
C435 C452 1.574 . S
C435 C454 1.368 . S
C435 H459 0.949 . S
H436 C440 0.949 . S
C437 C438 1.349 . S
C437 C439 1.327 . S
C437 H460 0.950 . S
C438 C437 1.349 . S
C438 C450 1.349 . S
C439 C437 1.327 . S
C439 C455 1.429 . S
C439 H461 0.950 . S
C440 H436 0.949 . S
C440 C448 1.574 . S
C440 C456 1.368 . S
H441 C449 0.950 . S
H442 C447 0.950 . S
H443 C448 0.949 . S
H444 C450 0.950 . S
H445 C451 0.950 . S
H446 C452 0.949 . S
C447 H442 0.950 . S
C447 C449 1.327 . S
C447 C453 1.429 . S
C448 C440 1.574 . S
C448 H443 0.949 . S
C448 C454 1.368 . S
C449 C433 1.349 . S
C449 H441 0.950 . S
C449 C447 1.327 . S
C450 C438 1.349 . S
C450 H444 0.950 . S
C450 C451 1.327 . S
C451 H445 0.950 . S
C451 C450 1.327 . S
C451 C455 1.429 . S
C452 C435 1.574 . S
C452 H446 0.949 . S
C452 C456 1.368 . S
C453 C434 1.429 . S
C453 C447 1.429 . S
C453 C454 1.523 . S
C454 C435 1.368 . S
C454 C448 1.368 . S
C454 C453 1.523 . S
C455 C439 1.429 . S
C455 C451 1.429 . S
C455 C456 1.523 . S
C456 C440 1.368 . S
C456 C452 1.368 . S
C456 C455 1.523 . S
H457 C432 0.950 . S
H458 C434 0.950 . S
H459 C435 0.949 . S
H460 C437 0.950 . S
H461 C439 0.950 . S
C462 C463 1.349 . S
C462 C464 1.327 . S
C462 H487 0.950 . S
C463 C462 1.349 . S
C463 C479 1.349 . S
C464 C462 1.327 . S
C464 C483 1.429 . S
C464 H488 0.950 . S
C465 C482 1.574 . S
C465 C484 1.368 . S
C465 H489 0.949 . S
H466 C470 0.949 . S
C467 C468 1.349 . S
C467 C469 1.327 . S
C467 H490 0.950 . S
C468 C467 1.349 . S
C468 C480 1.349 . S
C469 C467 1.327 . S
C469 C485 1.429 . S
C469 H491 0.950 . S
C470 H466 0.949 . S
C470 C478 1.574 . S
C470 C486 1.368 . S
H471 C479 0.950 . S
H472 C477 0.950 . S
H473 C478 0.949 . S
H474 C480 0.950 . S
H475 C481 0.950 . S
H476 C482 0.949 . S
C477 H472 0.950 . S
C477 C479 1.327 . S
C477 C483 1.429 . S
C478 C470 1.574 . S
C478 H473 0.949 . S
C478 C484 1.368 . S
C479 C463 1.349 . S
C479 H471 0.950 . S
C479 C477 1.327 . S
C480 C468 1.349 . S
C480 H474 0.950 . S
C480 C481 1.327 . S
C481 H475 0.950 . S
C481 C480 1.327 . S
C481 C485 1.429 . S
C482 C465 1.574 . S
C482 H476 0.949 . S
C482 C486 1.368 . S
C483 C464 1.429 . S
C483 C477 1.429 . S
C483 C484 1.523 . S
C484 C465 1.368 . S
C484 C478 1.368 . S
C484 C483 1.523 . S
C485 C469 1.429 . S
C485 C481 1.429 . S
C485 C486 1.523 . S
C486 C470 1.368 . S
C486 C482 1.368 . S
C486 C485 1.523 . S
H487 C462 0.950 . S
H488 C464 0.950 . S
H489 C465 0.949 . S
H490 C467 0.950 . S
H491 C469 0.950 . S
C492 C493 1.349 . S
C492 C494 1.327 . S
C492 H517 0.950 . S
C493 C492 1.349 . S
C493 C509 1.349 . S
C494 C492 1.327 . S
C494 C513 1.429 . S
C494 H518 0.950 . S
C495 C512 1.574 . S
C495 C514 1.368 . S
C495 H519 0.949 . S
H496 C500 0.949 . S
C497 C498 1.349 . S
C497 C499 1.327 . S
C497 H520 0.950 . S
C498 C497 1.349 . S
C498 C510 1.349 . S
C499 C497 1.327 . S
C499 C515 1.429 . S
C499 H521 0.950 . S
C500 H496 0.949 . S
C500 C508 1.574 . S
C500 C516 1.368 . S
H501 C509 0.950 . S
H502 C507 0.950 . S
H503 C508 0.949 . S
H504 C510 0.950 . S
H505 C511 0.950 . S
H506 C512 0.949 . S
C507 H502 0.950 . S
C507 C509 1.327 . S
C507 C513 1.429 . S
C508 C500 1.574 . S
C508 H503 0.949 . S
C508 C514 1.368 . S
C509 C493 1.349 . S
C509 H501 0.950 . S
C509 C507 1.327 . S
C510 C498 1.349 . S
C510 H504 0.950 . S
C510 C511 1.327 . S
C511 H505 0.950 . S
C511 C510 1.327 . S
C511 C515 1.429 . S
C512 C495 1.574 . S
C512 H506 0.949 . S
C512 C516 1.368 . S
C513 C494 1.429 . S
C513 C507 1.429 . S
C513 C514 1.523 . S
C514 C495 1.368 . S
C514 C508 1.368 . S
C514 C513 1.523 . S
C515 C499 1.429 . S
C515 C511 1.429 . S
C515 C516 1.523 . S
C516 C500 1.368 . S
C516 C512 1.368 . S
C516 C515 1.523 . S
H517 C492 0.950 . S
H518 C494 0.950 . S
H519 C495 0.949 . S
H520 C497 0.950 . S
H521 C499 0.950 . S
C522 C523 1.349 . S
C522 C524 1.327 . S
C522 H547 0.950 . S
C523 C522 1.349 . S
C523 C539 1.349 . S
C524 C522 1.327 . S
C524 C543 1.429 . S
C524 H548 0.950 . S
C525 C542 1.574 . S
C525 C544 1.368 . S
C525 H549 0.949 . S
H526 C530 0.949 . S
C527 C528 1.349 . S
C527 C529 1.327 . S
C527 H550 0.950 . S
C528 C527 1.349 . S
C528 C540 1.349 . S
C529 C527 1.327 . S
C529 C545 1.429 . S
C529 H551 0.950 . S
C530 H526 0.949 . S
C530 C538 1.574 . S
C530 C546 1.368 . S
H531 C539 0.950 . S
H532 C537 0.950 . S
H533 C538 0.949 . S
H534 C540 0.950 . S
H535 C541 0.950 . S
H536 C542 0.949 . S
C537 H532 0.950 . S
C537 C539 1.327 . S
C537 C543 1.429 . S
C538 C530 1.574 . S
C538 H533 0.949 . S
C538 C544 1.368 . S
C539 C523 1.349 . S
C539 H531 0.950 . S
C539 C537 1.327 . S
C540 C528 1.349 . S
C540 H534 0.950 . S
C540 C541 1.327 . S
C541 H535 0.950 . S
C541 C540 1.327 . S
C541 C545 1.429 . S
C542 C525 1.574 . S
C542 H536 0.949 . S
C542 C546 1.368 . S
C543 C524 1.429 . S
C543 C537 1.429 . S
C543 C544 1.523 . S
C544 C525 1.368 . S
C544 C538 1.368 . S
C544 C543 1.523 . S
C545 C529 1.429 . S
C545 C541 1.429 . S
C545 C546 1.523 . S
C546 C530 1.368 . S
C546 C542 1.368 . S
C546 C545 1.523 . S
H547 C522 0.950 . S
H548 C524 0.950 . S
H549 C525 0.949 . S
H550 C527 0.950 . S
H551 C529 0.950 . S
C552 C553 1.349 . S
C552 C554 1.327 . S
C552 H577 0.950 . S
C553 C552 1.349 . S
C553 C569 1.349 . S
C554 C552 1.327 . S
C554 C573 1.429 . S
C554 H578 0.950 . S
C555 C572 1.574 . S
C555 C574 1.368 . S
C555 H579 0.949 . S
H556 C560 0.949 . S
C557 C558 1.349 . S
C557 C559 1.327 . S
C557 H580 0.950 . S
C558 C557 1.349 . S
C558 C570 1.349 . S
C559 C557 1.327 . S
C559 C575 1.429 . S
C559 H581 0.950 . S
C560 H556 0.949 . S
C560 C568 1.574 . S
C560 C576 1.368 . S
H561 C569 0.950 . S
H562 C567 0.950 . S
H563 C568 0.949 . S
H564 C570 0.950 . S
H565 C571 0.950 . S
H566 C572 0.949 . S
C567 H562 0.950 . S
C567 C569 1.327 . S
C567 C573 1.429 . S
C568 C560 1.574 . S
C568 H563 0.949 . S
C568 C574 1.368 . S
C569 C553 1.349 . S
C569 H561 0.950 . S
C569 C567 1.327 . S
C570 C558 1.349 . S
C570 H564 0.950 . S
C570 C571 1.327 . S
C571 H565 0.950 . S
C571 C570 1.327 . S
C571 C575 1.429 . S
C572 C555 1.574 . S
C572 H566 0.949 . S
C572 C576 1.368 . S
C573 C554 1.429 . S
C573 C567 1.429 . S
C573 C574 1.523 . S
C574 C555 1.368 . S
C574 C568 1.368 . S
C574 C573 1.523 . S
C575 C559 1.429 . S
C575 C571 1.429 . S
C575 C576 1.523 . S
C576 C560 1.368 . S
C576 C572 1.368 . S
C576 C575 1.523 . S
H577 C552 0.950 . S
H578 C554 0.950 . S
H579 C555 0.949 . S
H580 C557 0.950 . S
H581 C559 0.950 . S
C582 C583 1.349 . S
C582 C584 1.327 . S
C582 H607 0.950 . S
C583 C582 1.349 . S
C583 C599 1.349 . S
C584 C582 1.327 . S
C584 C603 1.429 . S
C584 H608 0.950 . S
C585 C602 1.574 . S
C585 C604 1.368 . S
C585 H609 0.949 . S
H586 C590 0.949 . S
C587 C588 1.349 . S
C587 C589 1.327 . S
C587 H610 0.950 . S
C588 C587 1.349 . S
C588 C600 1.349 . S
C589 C587 1.327 . S
C589 C605 1.429 . S
C589 H611 0.950 . S
C590 H586 0.949 . S
C590 C598 1.574 . S
C590 C606 1.368 . S
H591 C599 0.950 1_554 S
H592 C597 0.950 . S
H593 C598 0.949 . S
H594 C600 0.950 . S
H595 C601 0.950 . S
H596 C602 0.949 . S
C597 H592 0.950 . S
C597 C599 1.327 . S
C597 C603 1.429 . S
C598 C590 1.574 . S
C598 H593 0.949 . S
C598 C604 1.368 . S
C599 C583 1.349 . S
C599 H591 0.950 1_556 S
C599 C597 1.327 . S
C600 C588 1.349 . S
C600 H594 0.950 . S
C600 C601 1.327 . S
C601 H595 0.950 . S
C601 C600 1.327 . S
C601 C605 1.429 . S
C602 C585 1.574 . S
C602 H596 0.949 . S
C602 C606 1.368 . S
C603 C584 1.429 . S
C603 C597 1.429 . S
C603 C604 1.523 . S
C604 C585 1.368 . S
C604 C598 1.368 . S
C604 C603 1.523 . S
C605 C589 1.429 . S
C605 C601 1.429 . S
C605 C606 1.523 . S
C606 C590 1.368 . S
C606 C602 1.368 . S
C606 C605 1.523 . S
H607 C582 0.950 . S
H608 C584 0.950 . S
H609 C585 0.949 . S
H610 C587 0.950 . S
H611 C589 0.950 . S
C612 C613 1.349 . S
C612 C614 1.327 . S
C612 H637 0.950 . S
C613 C612 1.349 . S
C613 C629 1.349 . S
C614 C612 1.327 . S
C614 C633 1.429 . S
C614 H638 0.950 . S
C615 C632 1.574 . S
C615 C634 1.368 . S
C615 H639 0.949 . S
H616 C620 0.949 . S
C617 C618 1.349 . S
C617 C619 1.327 . S
C617 H640 0.950 . S
C618 C617 1.349 . S
C618 C630 1.349 . S
C619 C617 1.327 . S
C619 C635 1.429 . S
C619 H641 0.950 . S
C620 H616 0.949 . S
C620 C628 1.574 . S
C620 C636 1.368 . S
H621 C629 0.950 . S
H622 C627 0.950 . S
H623 C628 0.949 . S
H624 C630 0.950 . S
H625 C631 0.950 . S
H626 C632 0.949 . S
C627 H622 0.950 . S
C627 C629 1.327 . S
C627 C633 1.429 . S
C628 C620 1.574 . S
C628 H623 0.949 . S
C628 C634 1.368 . S
C629 C613 1.349 . S
C629 H621 0.950 . S
C629 C627 1.327 . S
C630 C618 1.349 . S
C630 H624 0.950 . S
C630 C631 1.327 . S
C631 H625 0.950 . S
C631 C630 1.327 . S
C631 C635 1.429 . S
C632 C615 1.574 . S
C632 H626 0.949 . S
C632 C636 1.368 . S
C633 C614 1.429 . S
C633 C627 1.429 . S
C633 C634 1.523 . S
C634 C615 1.368 . S
C634 C628 1.368 . S
C634 C633 1.523 . S
C635 C619 1.429 . S
C635 C631 1.429 . S
C635 C636 1.523 . S
C636 C620 1.368 . S
C636 C632 1.368 . S
C636 C635 1.523 . S
H637 C612 0.950 . S
H638 C614 0.950 . S
H639 C615 0.949 . S
H640 C617 0.950 . S
H641 C619 0.950 . S
C642 C643 1.349 . S
C642 C644 1.327 . S
C642 H667 0.950 . S
C643 C642 1.349 . S
C643 C659 1.349 . S
C644 C642 1.327 . S
C644 C663 1.429 . S
C644 H668 0.950 . S
C645 C662 1.574 . S
C645 C664 1.368 . S
C645 H669 0.949 . S
H646 C650 0.949 . S
C647 C648 1.349 . S
C647 C649 1.327 . S
C647 H670 0.950 . S
C648 C647 1.349 . S
C648 C660 1.349 . S
C649 C647 1.327 . S
C649 C665 1.429 . S
C649 H671 0.950 . S
C650 H646 0.949 . S
C650 C658 1.574 . S
C650 C666 1.368 . S
H651 C659 0.950 . S
H652 C657 0.950 . S
H653 C658 0.949 . S
H654 C660 0.950 . S
H655 C661 0.950 . S
H656 C662 0.949 . S
C657 H652 0.950 . S
C657 C659 1.327 . S
C657 C663 1.429 . S
C658 C650 1.574 . S
C658 H653 0.949 . S
C658 C664 1.368 . S
C659 C643 1.349 . S
C659 H651 0.950 . S
C659 C657 1.327 . S
C660 C648 1.349 . S
C660 H654 0.950 . S
C660 C661 1.327 . S
C661 H655 0.950 . S
C661 C660 1.327 . S
C661 C665 1.429 . S
C662 C645 1.574 . S
C662 H656 0.949 . S
C662 C666 1.368 . S
C663 C644 1.429 . S
C663 C657 1.429 . S
C663 C664 1.523 . S
C664 C645 1.368 . S
C664 C658 1.368 . S
C664 C663 1.523 . S
C665 C649 1.429 . S
C665 C661 1.429 . S
C665 C666 1.523 . S
C666 C650 1.368 . S
C666 C662 1.368 . S
C666 C665 1.523 . S
H667 C642 0.950 . S
H668 C644 0.950 . S
H669 C645 0.949 . S
H670 C647 0.950 . S
H671 C649 0.950 . S
C672 C673 1.349 . S
C672 C674 1.327 . S
C672 H697 0.950 . S
C673 C672 1.349 . S
C673 C689 1.349 . S
C674 C672 1.327 . S
C674 C693 1.429 . S
C674 H698 0.950 . S
C675 C692 1.574 . S
C675 C694 1.368 . S
C675 H699 0.949 . S
H676 C680 0.949 . S
C677 C678 1.349 . S
C677 C679 1.327 . S
C677 H700 0.950 . S
C678 C677 1.349 . S
C678 C690 1.349 . S
C679 C677 1.327 . S
C679 C695 1.429 . S
C679 H701 0.950 . S
C680 H676 0.949 . S
C680 C688 1.574 . S
C680 C696 1.368 . S
H681 C689 0.950 . S
H682 C687 0.950 . S
H683 C688 0.949 . S
H684 C690 0.950 . S
H685 C691 0.950 . S
H686 C692 0.949 . S
C687 H682 0.950 . S
C687 C689 1.327 . S
C687 C693 1.429 . S
C688 C680 1.574 . S
C688 H683 0.949 . S
C688 C694 1.368 . S
C689 C673 1.349 . S
C689 H681 0.950 . S
C689 C687 1.327 . S
C690 C678 1.349 . S
C690 H684 0.950 . S
C690 C691 1.327 . S
C691 H685 0.950 . S
C691 C690 1.327 . S
C691 C695 1.429 . S
C692 C675 1.574 . S
C692 H686 0.949 . S
C692 C696 1.368 . S
C693 C674 1.429 . S
C693 C687 1.429 . S
C693 C694 1.523 . S
C694 C675 1.368 . S
C694 C688 1.368 . S
C694 C693 1.523 . S
C695 C679 1.429 . S
C695 C691 1.429 . S
C695 C696 1.523 . S
C696 C680 1.368 . S
C696 C692 1.368 . S
C696 C695 1.523 . S
H697 C672 0.950 . S
H698 C674 0.950 . S
H699 C675 0.949 . S
H700 C677 0.950 . S
H701 C679 0.950 . S
C702 C703 1.349 . S
C702 C704 1.327 . S
C702 H727 0.950 . S
C703 C702 1.349 . S
C703 C719 1.349 . S
C704 C702 1.327 . S
C704 C723 1.429 . S
C704 H728 0.950 . S
C705 C722 1.574 . S
C705 C724 1.368 . S
C705 H729 0.949 . S
H706 C710 0.949 . S
C707 C708 1.349 . S
C707 C709 1.327 . S
C707 H730 0.950 . S
C708 C707 1.349 . S
C708 C720 1.349 . S
C709 C707 1.327 . S
C709 C725 1.429 . S
C709 H731 0.950 . S
C710 H706 0.949 . S
C710 C718 1.574 . S
C710 C726 1.368 . S
H711 C719 0.950 . S
H712 C717 0.950 . S
H713 C718 0.949 . S
H714 C720 0.950 . S
H715 C721 0.950 . S
H716 C722 0.949 . S
C717 H712 0.950 . S
C717 C719 1.327 . S
C717 C723 1.429 . S
C718 C710 1.574 . S
C718 H713 0.949 . S
C718 C724 1.368 . S
C719 C703 1.349 . S
C719 H711 0.950 . S
C719 C717 1.327 . S
C720 C708 1.349 . S
C720 H714 0.950 . S
C720 C721 1.327 . S
C721 H715 0.950 . S
C721 C720 1.327 . S
C721 C725 1.429 . S
C722 C705 1.574 . S
C722 H716 0.949 . S
C722 C726 1.368 . S
C723 C704 1.429 . S
C723 C717 1.429 . S
C723 C724 1.523 . S
C724 C705 1.368 . S
C724 C718 1.368 . S
C724 C723 1.523 . S
C725 C709 1.429 . S
C725 C721 1.429 . S
C725 C726 1.523 . S
C726 C710 1.368 . S
C726 C722 1.368 . S
C726 C725 1.523 . S
H727 C702 0.950 . S
H728 C704 0.950 . S
H729 C705 0.949 . S
H730 C707 0.950 . S
H731 C709 0.950 . S
C732 C733 1.349 . S
C732 C734 1.327 . S
C732 H757 0.950 . S
C733 C732 1.349 . S
C733 C749 1.349 . S
C734 C732 1.327 . S
C734 C753 1.429 . S
C734 H758 0.950 . S
C735 C752 1.574 . S
C735 C754 1.368 . S
C735 H759 0.949 . S
H736 C740 0.949 . S
C737 C738 1.349 . S
C737 C739 1.327 . S
C737 H760 0.950 . S
C738 C737 1.349 . S
C738 C750 1.349 . S
C739 C737 1.327 . S
C739 C755 1.429 . S
C739 H761 0.950 . S
C740 H736 0.949 . S
C740 C748 1.574 . S
C740 C756 1.368 . S
H741 C749 0.950 . S
H742 C747 0.950 . S
H743 C748 0.949 . S
H744 C750 0.950 . S
H745 C751 0.950 . S
H746 C752 0.949 . S
C747 H742 0.950 . S
C747 C749 1.327 . S
C747 C753 1.429 . S
C748 C740 1.574 . S
C748 H743 0.949 . S
C748 C754 1.368 . S
C749 C733 1.349 . S
C749 H741 0.950 . S
C749 C747 1.327 . S
C750 C738 1.349 . S
C750 H744 0.950 . S
C750 C751 1.327 . S
C751 H745 0.950 . S
C751 C750 1.327 . S
C751 C755 1.429 . S
C752 C735 1.574 . S
C752 H746 0.949 . S
C752 C756 1.368 . S
C753 C734 1.429 . S
C753 C747 1.429 . S
C753 C754 1.523 . S
C754 C735 1.368 . S
C754 C748 1.368 . S
C754 C753 1.523 . S
C755 C739 1.429 . S
C755 C751 1.429 . S
C755 C756 1.523 . S
C756 C740 1.368 . S
C756 C752 1.368 . S
C756 C755 1.523 . S
H757 C732 0.950 . S
H758 C734 0.950 . S
H759 C735 0.949 . S
H760 C737 0.950 . S
H761 C739 0.950 . S
C762 C763 1.349 . S
C762 C764 1.327 . S
C762 H787 0.950 . S
C763 C762 1.349 . S
C763 C779 1.349 . S
C764 C762 1.327 . S
C764 C783 1.429 . S
C764 H788 0.950 . S
C765 C782 1.574 . S
C765 C784 1.368 . S
C765 H789 0.949 . S
H766 C770 0.949 . S
C767 C768 1.349 . S
C767 C769 1.327 . S
C767 H790 0.950 . S
C768 C767 1.349 . S
C768 C780 1.349 . S
C769 C767 1.327 . S
C769 C785 1.429 . S
C769 H791 0.950 . S
C770 H766 0.949 . S
C770 C778 1.574 . S
C770 C786 1.368 . S
H771 C779 0.950 . S
H772 C777 0.950 . S
H773 C778 0.949 . S
H774 C780 0.950 1_556 S
H775 C781 0.950 . S
H776 C782 0.949 . S
C777 H772 0.950 . S
C777 C779 1.327 . S
C777 C783 1.429 . S
C778 C770 1.574 . S
C778 H773 0.949 . S
C778 C784 1.368 . S
C779 C763 1.349 . S
C779 H771 0.950 . S
C779 C777 1.327 . S
C780 C768 1.349 . S
C780 H774 0.950 1_554 S
C780 C781 1.327 . S
C781 H775 0.950 . S
C781 C780 1.327 . S
C781 C785 1.429 . S
C782 C765 1.574 . S
C782 H776 0.949 . S
C782 C786 1.368 . S
C783 C764 1.429 . S
C783 C777 1.429 . S
C783 C784 1.523 . S
C784 C765 1.368 . S
C784 C778 1.368 . S
C784 C783 1.523 . S
C785 C769 1.429 . S
C785 C781 1.429 . S
C785 C786 1.523 . S
C786 C770 1.368 . S
C786 C782 1.368 . S
C786 C785 1.523 . S
H787 C762 0.950 . S
H788 C764 0.950 . S
H789 C765 0.949 . S
H790 C767 0.950 . S
H791 C769 0.950 . S
C792 C793 1.349 . S
C792 C794 1.327 . S
C792 H817 0.950 . S
C793 C792 1.349 . S
C793 C809 1.349 . S
C794 C792 1.327 . S
C794 C813 1.429 . S
C794 H818 0.950 . S
C795 C812 1.574 . S
C795 C814 1.368 . S
C795 H819 0.949 . S
H796 C800 0.949 . S
C797 C798 1.349 . S
C797 C799 1.327 . S
C797 H820 0.950 . S
C798 C797 1.349 . S
C798 C810 1.349 . S
C799 C797 1.327 . S
C799 C815 1.429 . S
C799 H821 0.950 . S
C800 H796 0.949 . S
C800 C808 1.574 . S
C800 C816 1.368 . S
H801 C809 0.950 . S
H802 C807 0.950 . S
H803 C808 0.949 . S
H804 C810 0.950 . S
H805 C811 0.950 . S
H806 C812 0.949 . S
C807 H802 0.950 . S
C807 C809 1.327 . S
C807 C813 1.429 . S
C808 C800 1.574 . S
C808 H803 0.949 . S
C808 C814 1.368 . S
C809 C793 1.349 . S
C809 H801 0.950 . S
C809 C807 1.327 . S
C810 C798 1.349 . S
C810 H804 0.950 . S
C810 C811 1.327 . S
C811 H805 0.950 . S
C811 C810 1.327 . S
C811 C815 1.429 . S
C812 C795 1.574 . S
C812 H806 0.949 . S
C812 C816 1.368 . S
C813 C794 1.429 . S
C813 C807 1.429 . S
C813 C814 1.523 . S
C814 C795 1.368 . S
C814 C808 1.368 . S
C814 C813 1.523 . S
C815 C799 1.429 . S
C815 C811 1.429 . S
C815 C816 1.523 . S
C816 C800 1.368 . S
C816 C812 1.368 . S
C816 C815 1.523 . S
H817 C792 0.950 . S
H818 C794 0.950 . S
H819 C795 0.949 . S
H820 C797 0.950 . S
H821 C799 0.950 . S
C822 C823 1.349 . S
C822 C824 1.327 . S
C822 H847 0.950 . S
C823 C822 1.349 . S
C823 C839 1.349 . S
C824 C822 1.327 . S
C824 C843 1.429 . S
C824 H848 0.950 . S
C825 C842 1.574 . S
C825 C844 1.368 . S
C825 H849 0.949 . S
H826 C830 0.949 . S
C827 C828 1.349 . S
C827 C829 1.327 . S
C827 H850 0.950 . S
C828 C827 1.349 . S
C828 C840 1.349 . S
C829 C827 1.327 . S
C829 C845 1.429 . S
C829 H851 0.950 . S
C830 H826 0.949 . S
C830 C838 1.574 . S
C830 C846 1.368 . S
H831 C839 0.950 . S
H832 C837 0.950 . S
H833 C838 0.949 . S
H834 C840 0.950 . S
H835 C841 0.950 . S
H836 C842 0.949 . S
C837 H832 0.950 . S
C837 C839 1.327 . S
C837 C843 1.429 . S
C838 C830 1.574 . S
C838 H833 0.949 . S
C838 C844 1.368 . S
C839 C823 1.349 . S
C839 H831 0.950 . S
C839 C837 1.327 . S
C840 C828 1.349 . S
C840 H834 0.950 . S
C840 C841 1.327 . S
C841 H835 0.950 . S
C841 C840 1.327 . S
C841 C845 1.429 . S
C842 C825 1.574 . S
C842 H836 0.949 . S
C842 C846 1.368 . S
C843 C824 1.429 . S
C843 C837 1.429 . S
C843 C844 1.523 . S
C844 C825 1.368 . S
C844 C838 1.368 . S
C844 C843 1.523 . S
C845 C829 1.429 . S
C845 C841 1.429 . S
C845 C846 1.523 . S
C846 C830 1.368 . S
C846 C842 1.368 . S
C846 C845 1.523 . S
H847 C822 0.950 . S
H848 C824 0.950 . S
H849 C825 0.949 . S
H850 C827 0.950 . S
H851 C829 0.950 . S
C852 C853 1.349 . S
C852 C854 1.327 . S
C852 H877 0.950 . S
C853 C852 1.349 . S
C853 C869 1.349 . S
C854 C852 1.327 . S
C854 C873 1.429 . S
C854 H878 0.950 . S
C855 C872 1.574 . S
C855 C874 1.368 . S
C855 H879 0.949 . S
H856 C860 0.949 . S
C857 C858 1.349 . S
C857 C859 1.327 . S
C857 H880 0.950 . S
C858 C857 1.349 . S
C858 C870 1.349 . S
C859 C857 1.327 . S
C859 C875 1.429 . S
C859 H881 0.950 . S
C860 H856 0.949 . S
C860 C868 1.574 . S
C860 C876 1.368 . S
H861 C869 0.950 . S
H862 C867 0.950 . S
H863 C868 0.949 . S
H864 C870 0.950 . S
H865 C871 0.950 . S
H866 C872 0.949 . S
C867 H862 0.950 . S
C867 C869 1.327 . S
C867 C873 1.429 . S
C868 C860 1.574 . S
C868 H863 0.949 . S
C868 C874 1.368 . S
C869 C853 1.349 . S
C869 H861 0.950 . S
C869 C867 1.327 . S
C870 C858 1.349 . S
C870 H864 0.950 . S
C870 C871 1.327 . S
C871 H865 0.950 . S
C871 C870 1.327 . S
C871 C875 1.429 . S
C872 C855 1.574 . S
C872 H866 0.949 . S
C872 C876 1.368 . S
C873 C854 1.429 . S
C873 C867 1.429 . S
C873 C874 1.523 . S
C874 C855 1.368 . S
C874 C868 1.368 . S
C874 C873 1.523 . S
C875 C859 1.429 . S
C875 C871 1.429 . S
C875 C876 1.523 . S
C876 C860 1.368 . S
C876 C872 1.368 . S
C876 C875 1.523 . S
H877 C852 0.950 . S
H878 C854 0.950 . S
H879 C855 0.949 . S
H880 C857 0.950 . S
H881 C859 0.950 . S
C882 C883 1.349 . S
C882 C884 1.327 . S
C882 H907 0.950 . S
C883 C882 1.349 . S
C883 C899 1.349 . S
C884 C882 1.327 . S
C884 C903 1.429 . S
C884 H908 0.950 . S
C885 C902 1.574 . S
C885 C904 1.368 . S
C885 H909 0.949 . S
H886 C890 0.949 . S
C887 C888 1.349 1_554 S
C887 C889 1.327 . S
C887 H910 0.950 . S
C888 C887 1.349 1_556 S
C888 C900 1.349 . S
C889 C887 1.327 . S
C889 C905 1.429 . S
C889 H911 0.950 . S
C890 H886 0.949 . S
C890 C898 1.574 . S
C890 C906 1.368 . S
H891 C899 0.950 . S
H892 C897 0.950 . S
H893 C898 0.949 . S
H894 C900 0.950 . S
H895 C901 0.950 . S
H896 C902 0.949 . S
C897 H892 0.950 . S
C897 C899 1.327 . S
C897 C903 1.429 . S
C898 C890 1.574 . S
C898 H893 0.949 . S
C898 C904 1.368 . S
C899 C883 1.349 . S
C899 H891 0.950 . S
C899 C897 1.327 . S
C900 C888 1.349 . S
C900 H894 0.950 . S
C900 C901 1.327 . S
C901 H895 0.950 . S
C901 C900 1.327 . S
C901 C905 1.429 1_556 S
C902 C885 1.574 . S
C902 H896 0.949 . S
C902 C906 1.368 . S
C903 C884 1.429 . S
C903 C897 1.429 . S
C903 C904 1.523 . S
C904 C885 1.368 . S
C904 C898 1.368 . S
C904 C903 1.523 . S
C905 C889 1.429 . S
C905 C901 1.429 1_554 S
C905 C906 1.523 . S
C906 C890 1.368 . S
C906 C902 1.368 . S
C906 C905 1.523 . S
H907 C882 0.950 . S
H908 C884 0.950 . S
H909 C885 0.949 . S
H910 C887 0.950 . S
H911 C889 0.950 . S
C912 C913 1.349 . S
C912 C914 1.327 . S
C912 H937 0.950 . S
C913 C912 1.349 . S
C913 C929 1.349 1_556 S
C914 C912 1.327 . S
C914 C933 1.429 1_556 S
C914 H938 0.950 . S
C915 C932 1.574 . S
C915 C934 1.368 . S
C915 H939 0.949 . S
H916 C920 0.920 1_455 S
C917 C918 1.304 1_655 S
C917 C919 1.327 . S
C917 H940 0.950 . S
C918 C917 1.304 1_455 S
C918 C930 1.360 . S
C919 C917 1.327 . S
C919 C935 1.429 . S
C919 H941 0.950 . S
C920 H916 0.920 1_655 S
C920 C928 1.574 . S
C920 C936 1.368 . S
H921 C929 0.950 . S
H922 C927 0.950 . S
H923 C928 0.949 . S
H924 C930 0.950 . S
H925 C931 0.950 . S
H926 C932 0.949 . S
C927 H922 0.950 . S
C927 C929 1.327 . S
C927 C933 1.429 . S
C928 C920 1.574 . S
C928 H923 0.949 . S
C928 C934 1.368 . S
C929 C913 1.349 1_554 S
C929 H921 0.950 . S
C929 C927 1.327 . S
C930 C918 1.360 . S
C930 H924 0.950 . S
C930 C931 1.327 . S
C931 H925 0.950 . S
C931 C930 1.327 . S
C931 C935 1.429 1_455 S
C932 C915 1.574 . S
C932 H926 0.949 . S
C932 C936 1.368 . S
C933 C914 1.429 1_554 S
C933 C927 1.429 . S
C933 C934 1.523 . S
C934 C915 1.368 . S
C934 C928 1.368 . S
C934 C933 1.523 . S
C935 C919 1.429 . S
C935 C931 1.429 1_655 S
C935 C936 1.523 . S
C936 C920 1.368 . S
C936 C932 1.368 . S
C936 C935 1.523 . S
H937 C912 0.950 . S
H938 C914 0.950 . S
H939 C915 0.949 . S
H940 C917 0.950 . S
H941 C919 0.950 . S
C942 C943 1.349 1_556 S
C942 C944 1.327 1_556 S
C942 H967 0.950 . S
C943 C942 1.349 1_554 S
C943 C959 1.349 . S
C944 C942 1.327 1_554 S
C944 C963 1.429 . S
C944 H968 0.950 . S
C945 C962 1.574 . S
C945 C964 1.368 . S
C945 H969 0.949 . S
H946 C950 0.949 . S
C947 C948 1.349 . S
C947 C949 1.327 . S
C947 H970 0.950 . S
C948 C947 1.349 . S
C948 C960 1.349 . S
C949 C947 1.327 . S
C949 C965 1.429 . S
C949 H971 0.950 . S
C950 H946 0.949 . S
C950 C958 1.574 . S
C950 C966 1.368 . S
H951 C959 0.950 . S
H952 C957 0.950 . S
H953 C958 0.949 . S
H954 C960 0.950 . S
H955 C961 0.950 . S
H956 C962 0.949 . S
C957 H952 0.950 . S
C957 C959 1.327 . S
C957 C963 1.429 . S
C958 C950 1.574 . S
C958 H953 0.949 . S
C958 C964 1.368 . S
C959 C943 1.349 . S
C959 H951 0.950 . S
C959 C957 1.327 . S
C960 C948 1.349 . S
C960 H954 0.950 . S
C960 C961 1.327 . S
C961 H955 0.950 . S
C961 C960 1.327 . S
C961 C965 1.429 . S
C962 C945 1.574 . S
C962 H956 0.949 . S
C962 C966 1.368 . S
C963 C944 1.429 . S
C963 C957 1.429 . S
C963 C964 1.523 . S
C964 C945 1.368 . S
C964 C958 1.368 . S
C964 C963 1.523 . S
C965 C949 1.429 . S
C965 C961 1.429 . S
C965 C966 1.523 . S
C966 C950 1.368 . S
C966 C962 1.368 . S
C966 C965 1.523 . S
H967 C942 0.950 . S
H968 C944 0.950 . S
H969 C945 0.949 . S
H970 C947 0.950 . S
H971 C949 0.950 . S
C972 C973 1.349 . S
C972 C974 1.327 . S
C972 H997 0.950 . S
C973 C972 1.349 . S
C973 C989 1.349 . S
C974 C972 1.327 . S
C974 C993 1.429 . S
C974 H998 0.950 . S
C975 C992 1.574 . S
C975 C994 1.368 . S
C975 H999 0.949 . S
H976 C980 0.949 . S
C977 C978 1.349 . S
C977 C979 1.327 . S
C977 H1000 0.950 . S
C978 C977 1.349 . S
C978 C990 1.349 . S
C979 C977 1.327 . S
C979 C995 1.429 . S
C979 H1001 0.950 . S
C980 H976 0.949 . S
C980 C988 1.574 . S
C980 C996 1.368 . S
H981 C989 0.950 . S
H982 C987 0.950 . S
H983 C988 0.949 . S
H984 C990 0.950 . S
H985 C991 0.950 . S
H986 C992 0.949 . S
C987 H982 0.950 . S
C987 C989 1.327 . S
C987 C993 1.429 . S
C988 C980 1.574 . S
C988 H983 0.949 . S
C988 C994 1.368 . S
C989 C973 1.349 . S
C989 H981 0.950 . S
C989 C987 1.327 . S
C990 C978 1.349 . S
C990 H984 0.950 . S
C990 C991 1.327 . S
C991 H985 0.950 . S
C991 C990 1.327 . S
C991 C995 1.429 . S
C992 C975 1.574 . S
C992 H986 0.949 . S
C992 C996 1.368 . S
C993 C974 1.429 . S
C993 C987 1.429 . S
C993 C994 1.523 . S
C994 C975 1.368 . S
C994 C988 1.368 . S
C994 C993 1.523 . S
C995 C979 1.429 . S
C995 C991 1.429 . S
C995 C996 1.523 . S
C996 C980 1.368 . S
C996 C992 1.368 . S
C996 C995 1.523 . S
H997 C972 0.950 . S
H998 C974 0.950 . S
H999 C975 0.949 . S
H1000 C977 0.950 . S
H1001 C979 0.950 . S
C1002 C1003 1.349 . S
C1002 C1004 1.327 . S
C1002 H1027 0.950 . S
C1003 C1002 1.349 . S
C1003 C1019 1.349 . S
C1004 C1002 1.327 . S
C1004 C1023 1.429 . S
C1004 H1028 0.950 . S
C1005 C1022 1.574 . S
C1005 C1024 1.368 . S
C1005 H1029 0.949 . S
H1006 C1010 0.949 . S
C1007 C1008 1.349 . S
C1007 C1009 1.327 . S
C1007 H1030 0.950 . S
C1008 C1007 1.349 . S
C1008 C1020 1.349 . S
C1009 C1007 1.327 . S
C1009 C1025 1.429 . S
C1009 H1031 0.950 . S
C1010 H1006 0.949 . S
C1010 C1018 1.574 . S
C1010 C1026 1.368 . S
H1011 C1019 0.950 . S
H1012 C1017 0.950 . S
H1013 C1018 0.949 . S
H1014 C1020 0.950 . S
H1015 C1021 0.950 . S
H1016 C1022 0.949 . S
C1017 H1012 0.950 . S
C1017 C1019 1.327 . S
C1017 C1023 1.429 . S
C1018 C1010 1.574 . S
C1018 H1013 0.949 . S
C1018 C1024 1.368 . S
C1019 C1003 1.349 . S
C1019 H1011 0.950 . S
C1019 C1017 1.327 . S
C1020 C1008 1.349 . S
C1020 H1014 0.950 . S
C1020 C1021 1.327 . S
C1021 H1015 0.950 . S
C1021 C1020 1.327 . S
C1021 C1025 1.429 . S
C1022 C1005 1.574 . S
C1022 H1016 0.949 . S
C1022 C1026 1.368 . S
C1023 C1004 1.429 . S
C1023 C1017 1.429 . S
C1023 C1024 1.523 . S
C1024 C1005 1.368 . S
C1024 C1018 1.368 . S
C1024 C1023 1.523 . S
C1025 C1009 1.429 . S
C1025 C1021 1.429 . S
C1025 C1026 1.523 . S
C1026 C1010 1.368 . S
C1026 C1022 1.368 . S
C1026 C1025 1.523 . S
H1027 C1002 0.950 . S
H1028 C1004 0.950 . S
H1029 C1005 0.949 . S
H1030 C1007 0.950 . S
H1031 C1009 0.950 . S
C1032 C1033 1.349 . S
C1032 C1034 1.327 . S
C1032 H1057 0.950 . S
C1033 C1032 1.349 . S
C1033 C1049 1.349 . S
C1034 C1032 1.327 . S
C1034 C1053 1.429 . S
C1034 H1058 0.950 . S
C1035 C1052 1.574 . S
C1035 C1054 1.368 . S
C1035 H1059 0.949 . S
H1036 C1040 0.949 . S
C1037 C1038 1.349 . S
C1037 C1039 1.327 . S
C1037 H1060 0.950 . S
C1038 C1037 1.349 . S
C1038 C1050 1.349 . S
C1039 C1037 1.327 . S
C1039 C1055 1.429 . S
C1039 H1061 0.950 . S
C1040 H1036 0.949 . S
C1040 C1048 1.574 . S
C1040 C1056 1.368 . S
H1041 C1049 0.950 . S
H1042 C1047 0.950 . S
H1043 C1048 0.949 . S
H1044 C1050 0.950 . S
H1045 C1051 0.950 . S
H1046 C1052 0.949 . S
C1047 H1042 0.950 . S
C1047 C1049 1.327 . S
C1047 C1053 1.429 . S
C1048 C1040 1.574 . S
C1048 H1043 0.949 . S
C1048 C1054 1.368 . S
C1049 C1033 1.349 . S
C1049 H1041 0.950 . S
C1049 C1047 1.327 . S
C1050 C1038 1.349 . S
C1050 H1044 0.950 . S
C1050 C1051 1.327 . S
C1051 H1045 0.950 . S
C1051 C1050 1.327 . S
C1051 C1055 1.429 . S
C1052 C1035 1.574 . S
C1052 H1046 0.949 . S
C1052 C1056 1.368 . S
C1053 C1034 1.429 . S
C1053 C1047 1.429 . S
C1053 C1054 1.523 . S
C1054 C1035 1.368 . S
C1054 C1048 1.368 . S
C1054 C1053 1.523 . S
C1055 C1039 1.429 . S
C1055 C1051 1.429 . S
C1055 C1056 1.523 . S
C1056 C1040 1.368 . S
C1056 C1052 1.368 . S
C1056 C1055 1.523 . S
H1057 C1032 0.950 . S
H1058 C1034 0.950 . S
H1059 C1035 0.949 . S
H1060 C1037 0.950 . S
H1061 C1039 0.950 . S
C1062 C1063 1.349 1_556 S
C1062 C1064 1.327 . S
C1062 H1087 0.950 . S
C1063 C1062 1.349 1_554 S
C1063 C1079 1.349 . S
C1064 C1062 1.327 . S
C1064 C1083 1.429 . S
C1064 H1088 0.950 . S
C1065 C1082 1.574 . S
C1065 C1084 1.368 . S
C1065 H1089 0.949 1_556 S
H1066 C1070 0.949 . S
C1067 C1068 1.349 . S
C1067 C1069 1.327 . S
C1067 H1090 0.950 . S
C1068 C1067 1.349 . S
C1068 C1080 1.349 . S
C1069 C1067 1.327 . S
C1069 C1085 1.445 1_545 S
C1069 H1091 0.950 . S
C1070 H1066 0.949 . S
C1070 C1078 1.574 . S
C1070 C1086 1.368 . S
H1071 C1079 0.950 . S
H1072 C1077 0.950 . S
H1073 C1078 0.949 . S
H1074 C1080 0.950 . S
H1075 C1081 0.950 . S
H1076 C1082 0.949 . S
C1077 H1072 0.950 . S
C1077 C1079 1.327 . S
C1077 C1083 1.429 1_554 S
C1078 C1070 1.574 . S
C1078 H1073 0.949 . S
C1078 C1084 1.368 . S
C1079 C1063 1.349 . S
C1079 H1071 0.950 . S
C1079 C1077 1.327 . S
C1080 C1068 1.349 . S
C1080 H1074 0.950 . S
C1080 C1081 1.327 . S
C1081 H1075 0.950 . S
C1081 C1080 1.327 . S
C1081 C1085 1.401 1_545 S
C1082 C1065 1.574 . S
C1082 H1076 0.949 . S
C1082 C1086 1.368 . S
C1083 C1064 1.429 . S
C1083 C1077 1.429 1_556 S
C1083 C1084 1.523 . S
C1084 C1065 1.368 . S
C1084 C1078 1.368 . S
C1084 C1083 1.523 . S
C1085 C1069 1.445 1_565 S
C1085 C1081 1.401 1_565 S
C1085 C1086 1.537 . S
C1086 C1070 1.368 . S
C1086 C1082 1.368 . S
C1086 C1085 1.537 . S
H1087 C1062 0.950 . S
H1088 C1064 0.950 . S
H1089 C1065 0.949 1_554 S
H1090 C1067 0.950 . S
H1091 C1069 0.950 . S
C1092 C1093 1.349 . S
C1092 C1094 1.327 . S
C1092 H1117 0.950 . S
C1093 C1092 1.349 . S
C1093 C1109 1.349 . S
C1094 C1092 1.327 . S
C1094 C1113 1.429 . S
C1094 H1118 0.950 . S
C1095 C1112 1.574 . S
C1095 C1114 1.368 . S
C1095 H1119 0.949 . S
H1096 C1100 0.949 . S
C1097 C1098 1.349 . S
C1097 C1099 1.327 1_554 S
C1097 H1120 0.950 . S
C1098 C1097 1.349 . S
C1098 C1110 1.349 1_554 S
C1099 C1097 1.327 1_556 S
C1099 C1115 1.429 . S
C1099 H1121 0.950 1_556 S
C1100 H1096 0.949 . S
C1100 C1108 1.574 . S
C1100 C1116 1.368 . S
H1101 C1109 0.950 . S
H1102 C1107 0.950 . S
H1103 C1108 0.949 . S
H1104 C1110 0.950 . S
H1105 C1111 0.950 . S
H1106 C1112 0.949 . S
C1107 H1102 0.950 . S
C1107 C1109 1.327 . S
C1107 C1113 1.429 . S
C1108 C1100 1.574 . S
C1108 H1103 0.949 . S
C1108 C1114 1.368 . S
C1109 C1093 1.349 . S
C1109 H1101 0.950 . S
C1109 C1107 1.327 . S
C1110 C1098 1.349 1_556 S
C1110 H1104 0.950 . S
C1110 C1111 1.327 . S
C1111 H1105 0.950 . S
C1111 C1110 1.327 . S
C1111 C1115 1.429 . S
C1112 C1095 1.574 . S
C1112 H1106 0.949 . S
C1112 C1116 1.368 . S
C1113 C1094 1.429 . S
C1113 C1107 1.429 . S
C1113 C1114 1.523 . S
C1114 C1095 1.368 . S
C1114 C1108 1.368 . S
C1114 C1113 1.523 . S
C1115 C1099 1.429 . S
C1115 C1111 1.429 . S
C1115 C1116 1.523 . S
C1116 C1100 1.368 . S
C1116 C1112 1.368 . S
C1116 C1115 1.523 . S
H1117 C1092 0.950 . S
H1118 C1094 0.950 . S
H1119 C1095 0.949 . S
H1120 C1097 0.950 . S
H1121 C1099 0.950 1_554 S
C1122 C1123 1.349 . S
C1122 C1124 1.327 . S
C1122 H1147 0.950 . S
C1123 C1122 1.349 . S
C1123 C1139 1.349 . S
C1124 C1122 1.327 . S
C1124 C1143 1.429 . S
C1124 H1148 0.950 . S
C1125 C1142 1.574 . S
C1125 C1144 1.368 . S
C1125 H1149 0.949 . S
H1126 C1130 0.949 . S
C1127 C1128 1.349 1_556 S
C1127 C1129 1.327 . S
C1127 H1150 0.950 . S
C1128 C1127 1.349 1_554 S
C1128 C1140 1.349 . S
C1129 C1127 1.327 . S
C1129 C1145 1.429 . S
C1129 H1151 0.950 . S
C1130 H1126 0.949 . S
C1130 C1138 1.574 . S
C1130 C1146 1.368 . S
H1131 C1139 0.950 . S
H1132 C1137 0.950 . S
H1133 C1138 0.949 . S
H1134 C1140 0.950 . S
H1135 C1141 0.950 . S
H1136 C1142 0.949 . S
C1137 H1132 0.950 . S
C1137 C1139 1.327 . S
C1137 C1143 1.429 . S
C1138 C1130 1.574 . S
C1138 H1133 0.949 . S
C1138 C1144 1.368 . S
C1139 C1123 1.349 . S
C1139 H1131 0.950 . S
C1139 C1137 1.327 . S
C1140 C1128 1.349 . S
C1140 H1134 0.950 . S
C1140 C1141 1.327 1_554 S
C1141 H1135 0.950 . S
C1141 C1140 1.327 1_556 S
C1141 C1145 1.429 . S
C1142 C1125 1.574 . S
C1142 H1136 0.949 . S
C1142 C1146 1.368 . S
C1143 C1124 1.429 . S
C1143 C1137 1.429 . S
C1143 C1144 1.523 . S
C1144 C1125 1.368 . S
C1144 C1138 1.368 . S
C1144 C1143 1.523 . S
C1145 C1129 1.429 . S
C1145 C1141 1.429 . S
C1145 C1146 1.523 . S
C1146 C1130 1.368 . S
C1146 C1142 1.368 . S
C1146 C1145 1.523 . S
H1147 C1122 0.950 . S
H1148 C1124 0.950 . S
H1149 C1125 0.949 . S
H1150 C1127 0.950 . S
H1151 C1129 0.950 . S
C1152 C1153 1.349 . S
C1152 C1154 1.327 . S
C1152 H1177 0.950 . S
C1153 C1152 1.349 . S
C1153 C1169 1.349 . S
C1154 C1152 1.327 . S
C1154 C1173 1.429 . S
C1154 H1178 0.950 . S
C1155 C1172 1.574 . S
C1155 C1174 1.368 . S
C1155 H1179 0.949 . S
H1156 C1160 0.949 . S
C1157 C1158 1.349 . S
C1157 C1159 1.327 . S
C1157 H1180 0.950 . S
C1158 C1157 1.349 . S
C1158 C1170 1.349 . S
C1159 C1157 1.327 . S
C1159 C1175 1.429 . S
C1159 H1181 0.950 . S
C1160 H1156 0.949 . S
C1160 C1168 1.574 . S
C1160 C1176 1.368 . S
H1161 C1169 0.950 . S
H1162 C1167 0.950 . S
H1163 C1168 0.949 . S
H1164 C1170 0.950 . S
H1165 C1171 0.950 . S
H1166 C1172 0.949 1_545 S
C1167 H1162 0.950 . S
C1167 C1169 1.327 . S
C1167 C1173 1.429 . S
C1168 C1160 1.574 . S
C1168 H1163 0.949 . S
C1168 C1174 1.368 . S
C1169 C1153 1.349 . S
C1169 H1161 0.950 . S
C1169 C1167 1.327 . S
C1170 C1158 1.349 . S
C1170 H1164 0.950 . S
C1170 C1171 1.327 . S
C1171 H1165 0.950 . S
C1171 C1170 1.327 . S
C1171 C1175 1.429 . S
C1172 C1155 1.574 . S
C1172 H1166 0.949 1_565 S
C1172 C1176 1.368 . S
C1173 C1154 1.429 . S
C1173 C1167 1.429 . S
C1173 C1174 1.523 . S
C1174 C1155 1.368 . S
C1174 C1168 1.368 . S
C1174 C1173 1.523 . S
C1175 C1159 1.429 . S
C1175 C1171 1.429 . S
C1175 C1176 1.523 1_545 S
C1176 C1160 1.368 . S
C1176 C1172 1.368 . S
C1176 C1175 1.523 1_565 S
H1177 C1152 0.950 . S
H1178 C1154 0.950 . S
H1179 C1155 0.949 . S
H1180 C1157 0.950 . S
H1181 C1159 0.950 . S
C1182 C1183 1.349 . S
C1182 C1184 1.327 . S
C1182 H1207 0.950 . S
C1183 C1182 1.349 . S
C1183 C1199 1.349 . S
C1184 C1182 1.327 . S
C1184 C1203 1.429 . S
C1184 H1208 0.950 . S
C1185 C1202 1.574 . S
C1185 C1204 1.368 . S
C1185 H1209 0.949 . S
H1186 C1190 0.949 . S
C1187 C1188 1.349 . S
C1187 C1189 1.327 . S
C1187 H1210 0.950 . S
C1188 C1187 1.349 . S
C1188 C1200 1.349 . S
C1189 C1187 1.327 . S
C1189 C1205 1.429 1_655 S
C1189 H1211 0.950 1_655 S
C1190 H1186 0.949 . S
C1190 C1198 1.574 . S
C1190 C1206 1.368 . S
H1191 C1199 0.950 . S
H1192 C1197 0.950 . S
H1193 C1198 0.949 . S
H1194 C1200 0.950 . S
H1195 C1201 0.951 1_455 S
H1196 C1202 0.949 . S
C1197 H1192 0.950 . S
C1197 C1199 1.327 . S
C1197 C1203 1.429 . S
C1198 C1190 1.574 . S
C1198 H1193 0.949 . S
C1198 C1204 1.368 . S
C1199 C1183 1.349 . S
C1199 H1191 0.950 . S
C1199 C1197 1.327 . S
C1200 C1188 1.349 . S
C1200 H1194 0.950 . S
C1200 C1201 1.339 . S
C1201 H1195 0.951 1_655 S
C1201 C1200 1.339 . S
C1201 C1205 1.415 1_655 S
C1202 C1185 1.574 . S
C1202 H1196 0.949 . S
C1202 C1206 1.368 . S
C1203 C1184 1.429 . S
C1203 C1197 1.429 . S
C1203 C1204 1.523 . S
C1204 C1185 1.368 . S
C1204 C1198 1.368 . S
C1204 C1203 1.523 . S
C1205 C1189 1.429 1_455 S
C1205 C1201 1.415 1_455 S
C1205 C1206 1.523 . S
C1206 C1190 1.368 . S
C1206 C1202 1.368 . S
C1206 C1205 1.523 . S
H1207 C1182 0.950 . S
H1208 C1184 0.950 . S
H1209 C1185 0.949 . S
H1210 C1187 0.950 . S
H1211 C1189 0.950 1_455 S
C1212 C1213 1.349 . S
C1212 C1214 1.327 . S
C1212 H1237 0.950 . S
C1213 C1212 1.349 . S
C1213 C1229 1.349 . S
C1214 C1212 1.327 . S
C1214 C1233 1.429 . S
C1214 H1238 0.950 . S
C1215 C1232 1.574 . S
C1215 C1234 1.368 . S
C1215 H1239 0.949 . S
H1216 C1220 0.949 . S
C1217 C1218 1.349 . S
C1217 C1219 1.327 . S
C1217 H1240 0.950 . S
C1218 C1217 1.349 . S
C1218 C1230 1.349 . S
C1219 C1217 1.327 . S
C1219 C1235 1.429 . S
C1219 H1241 0.950 . S
C1220 H1216 0.949 . S
C1220 C1228 1.574 . S
C1220 C1236 1.368 . S
H1221 C1229 0.950 . S
H1222 C1227 0.950 . S
H1223 C1228 0.949 . S
H1224 C1230 0.950 . S
H1225 C1231 0.950 . S
H1226 C1232 0.949 . S
C1227 H1222 0.950 . S
C1227 C1229 1.327 . S
C1227 C1233 1.429 . S
C1228 C1220 1.574 . S
C1228 H1223 0.949 . S
C1228 C1234 1.368 . S
C1229 C1213 1.349 . S
C1229 H1221 0.950 . S
C1229 C1227 1.327 . S
C1230 C1218 1.349 . S
C1230 H1224 0.950 . S
C1230 C1231 1.327 . S
C1231 H1225 0.950 . S
C1231 C1230 1.327 . S
C1231 C1235 1.429 . S
C1232 C1215 1.574 . S
C1232 H1226 0.949 . S
C1232 C1236 1.368 . S
C1233 C1214 1.429 . S
C1233 C1227 1.429 . S
C1233 C1234 1.523 . S
C1234 C1215 1.368 . S
C1234 C1228 1.368 . S
C1234 C1233 1.523 . S
C1235 C1219 1.429 . S
C1235 C1231 1.429 . S
C1235 C1236 1.523 . S
C1236 C1220 1.368 . S
C1236 C1232 1.368 . S
C1236 C1235 1.523 . S
H1237 C1212 0.950 . S
H1238 C1214 0.950 . S
H1239 C1215 0.949 . S
H1240 C1217 0.950 . S
H1241 C1219 0.950 . S
C1242 C1243 1.349 . S
C1242 C1244 1.327 . S
C1242 H1267 0.950 . S
C1243 C1242 1.349 . S
C1243 C1259 1.349 . S
C1244 C1242 1.327 . S
C1244 C1263 1.429 . S
C1244 H1268 0.950 1_655 S
C1245 C1262 1.574 . S
C1245 C1264 1.368 . S
C1245 H1269 0.949 1_455 S
H1246 C1250 0.949 . S
C1247 C1248 1.349 . S
C1247 C1249 1.327 . S
C1247 H1270 0.950 . S
C1248 C1247 1.349 . S
C1248 C1260 1.349 . S
C1249 C1247 1.327 . S
C1249 C1265 1.429 . S
C1249 H1271 0.950 . S
C1250 H1246 0.949 . S
C1250 C1258 1.574 . S
C1250 C1266 1.368 . S
H1251 C1259 0.950 . S
H1252 C1257 0.950 . S
H1253 C1258 0.949 . S
H1254 C1260 0.950 . S
H1255 C1261 0.950 . S
H1256 C1262 0.949 . S
C1257 H1252 0.950 . S
C1257 C1259 1.327 . S
C1257 C1263 1.429 . S
C1258 C1250 1.574 . S
C1258 H1253 0.949 . S
C1258 C1264 1.368 . S
C1259 C1243 1.349 . S
C1259 H1251 0.950 . S
C1259 C1257 1.327 . S
C1260 C1248 1.349 . S
C1260 H1254 0.950 . S
C1260 C1261 1.327 . S
C1261 H1255 0.950 . S
C1261 C1260 1.327 . S
C1261 C1265 1.429 . S
C1262 C1245 1.574 . S
C1262 H1256 0.949 . S
C1262 C1266 1.368 . S
C1263 C1244 1.429 . S
C1263 C1257 1.429 . S
C1263 C1264 1.523 1_655 S
C1264 C1245 1.368 . S
C1264 C1258 1.368 . S
C1264 C1263 1.523 1_455 S
C1265 C1249 1.429 . S
C1265 C1261 1.429 . S
C1265 C1266 1.523 . S
C1266 C1250 1.368 . S
C1266 C1262 1.368 . S
C1266 C1265 1.523 . S
H1267 C1242 0.950 . S
H1268 C1244 0.950 1_455 S
H1269 C1245 0.949 1_655 S
H1270 C1247 0.950 . S
H1271 C1249 0.950 . S
C1272 C1273 1.349 . S
C1272 C1274 1.327 . S
C1272 H1297 0.950 . S
C1273 C1272 1.349 . S
C1273 C1289 1.349 . S
C1274 C1272 1.327 . S
C1274 C1293 1.429 . S
C1274 H1298 0.950 . S
C1275 C1292 1.574 . S
C1275 C1294 1.368 . S
C1275 H1299 0.949 . S
H1276 C1280 0.949 . S
C1277 C1278 1.349 . S
C1277 C1279 1.327 . S
C1277 H1300 0.950 . S
C1278 C1277 1.349 . S
C1278 C1290 1.349 . S
C1279 C1277 1.327 . S
C1279 C1295 1.429 . S
C1279 H1301 0.950 . S
C1280 H1276 0.949 . S
C1280 C1288 1.574 . S
C1280 C1296 1.368 . S
H1281 C1289 0.950 . S
H1282 C1287 0.950 . S
H1283 C1288 0.949 . S
H1284 C1290 0.950 . S
H1285 C1291 0.950 . S
H1286 C1292 0.949 . S
C1287 H1282 0.950 . S
C1287 C1289 1.327 . S
C1287 C1293 1.429 . S
C1288 C1280 1.574 . S
C1288 H1283 0.949 . S
C1288 C1294 1.368 . S
C1289 C1273 1.349 . S
C1289 H1281 0.950 . S
C1289 C1287 1.327 . S
C1290 C1278 1.349 . S
C1290 H1284 0.950 . S
C1290 C1291 1.327 . S
C1291 H1285 0.950 . S
C1291 C1290 1.327 . S
C1291 C1295 1.429 . S
C1292 C1275 1.574 . S
C1292 H1286 0.949 . S
C1292 C1296 1.368 . S
C1293 C1274 1.429 . S
C1293 C1287 1.429 . S
C1293 C1294 1.523 . S
C1294 C1275 1.368 . S
C1294 C1288 1.368 . S
C1294 C1293 1.523 . S
C1295 C1279 1.429 . S
C1295 C1291 1.429 . S
C1295 C1296 1.523 . S
C1296 C1280 1.368 . S
C1296 C1292 1.368 . S
C1296 C1295 1.523 . S
H1297 C1272 0.950 . S
H1298 C1274 0.950 . S
H1299 C1275 0.949 . S
H1300 C1277 0.950 . S
H1301 C1279 0.950 . S
C1302 C1303 1.349 . S
C1302 C1304 1.327 . S
C1302 H1327 0.950 . S
C1303 C1302 1.349 . S
C1303 C1319 1.349 . S
C1304 C1302 1.327 . S
C1304 C1323 1.429 . S
C1304 H1328 0.950 . S
C1305 C1322 1.574 . S
C1305 C1324 1.368 1_545 S
C1305 H1329 0.949 . S
H1306 C1310 0.949 . S
C1307 C1308 1.349 . S
C1307 C1309 1.327 . S
C1307 H1330 0.950 . S
C1308 C1307 1.349 . S
C1308 C1320 1.349 . S
C1309 C1307 1.327 . S
C1309 C1325 1.429 . S
C1309 H1331 0.950 . S
C1310 H1306 0.949 . S
C1310 C1318 1.574 1_545 S
C1310 C1326 1.368 . S
H1311 C1319 0.950 . S
H1312 C1317 0.950 . S
H1313 C1318 0.949 . S
H1314 C1320 0.950 . S
H1315 C1321 0.950 . S
H1316 C1322 0.949 . S
C1317 H1312 0.950 . S
C1317 C1319 1.327 . S
C1317 C1323 1.429 . S
C1318 C1310 1.574 1_565 S
C1318 H1313 0.949 . S
C1318 C1324 1.368 . S
C1319 C1303 1.349 . S
C1319 H1311 0.950 . S
C1319 C1317 1.327 . S
C1320 C1308 1.349 . S
C1320 H1314 0.950 . S
C1320 C1321 1.327 . S
C1321 H1315 0.950 . S
C1321 C1320 1.327 . S
C1321 C1325 1.429 . S
C1322 C1305 1.574 . S
C1322 H1316 0.949 . S
C1322 C1326 1.368 . S
C1323 C1304 1.429 . S
C1323 C1317 1.429 . S
C1323 C1324 1.523 . S
C1324 C1305 1.368 1_565 S
C1324 C1318 1.368 . S
C1324 C1323 1.523 . S
C1325 C1309 1.429 . S
C1325 C1321 1.429 . S
C1325 C1326 1.523 . S
C1326 C1310 1.368 . S
C1326 C1322 1.368 . S
C1326 C1325 1.523 . S
H1327 C1302 0.950 . S
H1328 C1304 0.950 . S
H1329 C1305 0.949 . S
H1330 C1307 0.950 . S
H1331 C1309 0.950 . S
C253 C50 1.265 . S
C258 C6 1.314 . S
C283 C62 1.495 . S
C288 C20 1.473 . S
C313 C36 1.585 . S
C318 C78 1.559 . S
C343 C34 1.391 . S
C348 C76 1.379 . S
C373 C8 1.322 . S
C378 C48 1.346 . S
C403 C64 1.509 . S
C408 C22 1.461 . S
C433 C134 1.219 . S
C438 C90 1.252 . S
C463 C104 1.365 . S
C468 C146 1.374 . S
C493 C118 1.338 . S
C498 C162 1.294 . S
C523 C160 1.534 . S
C528 C120 1.489 . S
C553 C132 1.393 . S
C558 C92 1.351 . S
C583 C148 1.612 1_556 S
C588 C106 1.587 . S
C613 C174 1.476 . S
C618 C218 1.444 . S
C643 C188 1.412 . S
C648 C230 1.421 . S
C673 C204 1.536 . S
C678 C246 1.509 . S
C703 C244 1.354 . S
C708 C202 1.364 1_554 S
C733 C216 1.325 . S
C738 C176 1.275 1_554 S
C763 C232 1.487 . S
C768 C190 1.468 1_554 S
C793 C9 1.315 . S
C798 C105 1.367 . S
C823 C23 1.365 . S
C828 C119 1.370 . S
C853 C91 1.006 . S
C858 C35 1.008 . S
C883 C37 1.574 . S
C888 C191 1.604 . S
C913 C203 0.909 . S
C918 C7 0.937 . S
C943 C177 1.419 1_554 S
C948 C21 1.423 . S
C973 C231 0.974 . S
C978 C49 0.972 . S
C1003 C65 1.502 . S
C1008 C247 1.541 . S
C1033 C219 1.313 . S
C1038 C77 1.350 . S
C1063 C149 1.551 . S
C1068 C79 1.580 . S
C1093 C51 1.174 . S
C1098 C161 1.213 . S
C1123 C63 0.895 . S
C1128 C133 0.894 . S
C1153 C93 1.205 . S
C1158 C189 1.239 . S
C1183 C107 1.523 . S
C1188 C205 1.489 . S
C1213 C121 1.149 . S
C1218 C175 1.170 . S
C1243 C233 1.488 . S
C1248 C163 1.501 . S
C1273 C245 1.336 . S
C1278 C135 1.294 . S
C1303 C147 1.000 . S
C1308 C217 0.998 . S
