# Generated by pormake.
# Topology wji, (4)-cn, num edge types: 1
# Building blocks:
#     Node 0, Type 0, BuildingBlock: KUFVIS_clean_sbu_0, # of connection points: 4
#     Node 1, Type 0, BuildingBlock: KUFVIS_clean_sbu_0, # of connection points: 4
#     Node 2, Type 0, BuildingBlock: KUFVIS_clean_sbu_0, # of connection points: 4
#     Node 3, Type 0, BuildingBlock: KUFVIS_clean_sbu_0, # of connection points: 4
#     Node 4, Type 0, BuildingBlock: KUFVIS_clean_sbu_0, # of connection points: 4
#     Node 5, Type 0, BuildingBlock: KUFVIS_clean_sbu_0, # of connection points: 4
#     Node 6, Type 0, BuildingBlock: KUFVIS_clean_sbu_0, # of connection points: 4
#     Node 7, Type 0, BuildingBlock: KUFVIS_clean_sbu_0, # of connection points: 4
#     Node 8, Type 0, BuildingBlock: KUFVIS_clean_sbu_0, # of connection points: 4
#     Node 9, Type 0, BuildingBlock: KUFVIS_clean_sbu_0, # of connection points: 4
#     Node 10, Type 0, BuildingBlock: KUFVIS_clean_sbu_0, # of connection points: 4
#     Node 11, Type 0, BuildingBlock: KUFVIS_clean_sbu_0, # of connection points: 4
#     Edge 12, Type (0, 0), BuildingBlock: XUDNAN_clean_linker_2, # of connection points: 2
#     Edge 13, Type (0, 0), BuildingBlock: XUDNAN_clean_linker_2, # of connection points: 2
#     Edge 14, Type (0, 0), BuildingBlock: XUDNAN_clean_linker_2, # of connection points: 2
#     Edge 15, Type (0, 0), BuildingBlock: XUDNAN_clean_linker_2, # of connection points: 2
#     Edge 16, Type (0, 0), BuildingBlock: XUDNAN_clean_linker_2, # of connection points: 2
#     Edge 17, Type (0, 0), BuildingBlock: XUDNAN_clean_linker_2, # of connection points: 2
#     Edge 18, Type (0, 0), BuildingBlock: XUDNAN_clean_linker_2, # of connection points: 2
#     Edge 19, Type (0, 0), BuildingBlock: XUDNAN_clean_linker_2, # of connection points: 2
#     Edge 20, Type (0, 0), BuildingBlock: XUDNAN_clean_linker_2, # of connection points: 2
#     Edge 21, Type (0, 0), BuildingBlock: XUDNAN_clean_linker_2, # of connection points: 2
#     Edge 22, Type (0, 0), BuildingBlock: XUDNAN_clean_linker_2, # of connection points: 2
#     Edge 23, Type (0, 0), BuildingBlock: XUDNAN_clean_linker_2, # of connection points: 2
#     Edge 24, Type (0, 0), BuildingBlock: XUDNAN_clean_linker_2, # of connection points: 2
#     Edge 25, Type (0, 0), BuildingBlock: XUDNAN_clean_linker_2, # of connection points: 2
#     Edge 26, Type (0, 0), BuildingBlock: XUDNAN_clean_linker_2, # of connection points: 2
#     Edge 27, Type (0, 0), BuildingBlock: XUDNAN_clean_linker_2, # of connection points: 2
#     Edge 28, Type (0, 0), BuildingBlock: XUDNAN_clean_linker_2, # of connection points: 2
#     Edge 29, Type (0, 0), BuildingBlock: XUDNAN_clean_linker_2, # of connection points: 2
#     Edge 30, Type (0, 0), BuildingBlock: XUDNAN_clean_linker_2, # of connection points: 2
#     Edge 31, Type (0, 0), BuildingBlock: XUDNAN_clean_linker_2, # of connection points: 2
#     Edge 32, Type (0, 0), BuildingBlock: XUDNAN_clean_linker_2, # of connection points: 2
#     Edge 33, Type (0, 0), BuildingBlock: XUDNAN_clean_linker_2, # of connection points: 2
#     Edge 34, Type (0, 0), BuildingBlock: XUDNAN_clean_linker_2, # of connection points: 2
#     Edge 35, Type (0, 0), BuildingBlock: XUDNAN_clean_linker_2, # of connection points: 2
# Relax obj value: 0.184
# Max RMSD: 0.114
# Mean RMSD: 0.114
data_MOF--net-wji--node1-KUFVIS_clean_sbu_0--edge1-XUDNAN_clean_linker_2
_symmetry_space_group_name_H-M    P1
_symmetry_Int_Tables_number       1
_symmetry_cell_setting            triclinic
loop_
_symmetry_equiv_pos_as_xyz
'x, y, z'
_cell_length_a     56.081201
_cell_length_b     56.24093
_cell_length_c     23.21729
_cell_angle_alpha  89.894922
_cell_angle_beta   89.982882
_cell_angle_gamma 119.94361
loop_
_atom_site_label
_atom_site_type_symbol
_atom_site_fract_x
_atom_site_fract_y
_atom_site_fract_z
_atom_type_partial_charge
Mn0 Mn 0.4099 0.3126 0.43022 0.0
Mn1 Mn 0.40661 0.37083 0.42045 0.0
C2 C 0.3717 0.3143 0.46721 0.0
C3 C 0.42312 0.286 0.48675 0.0
C4 C 0.39945 0.33441 0.31804 0.0
O5 O 0.45008 0.34214 0.41516 0.0
O6 O 0.44568 0.37979 0.42346 0.0
C7 C 0.42955 0.39506 0.53314 0.0
N8 N 0.4088 0.38615 0.49439 0.0
C9 C 0.38418 0.40195 0.55314 0.0
C10 C 0.40564 0.41184 0.59328 0.0
C11 C 0.42843 0.40845 0.58271 0.0
C12 C 0.38661 0.38903 0.50388 0.0
H13 H 0.44679 0.39194 0.52627 0.0
C14 C 0.46031 0.36815 0.41921 0.0
O15 O 0.41912 0.28198 0.43158 0.0
O16 O 0.42016 0.3056 0.50783 0.0
N17 N 0.36997 0.36523 0.4182 0.0
C18 C 0.35071 0.35371 0.37594 0.0
C19 C 0.32636 0.35497 0.37946 0.0
C20 C 0.32218 0.36835 0.42613 0.0
C21 C 0.34238 0.38026 0.46894 0.0
C22 C 0.36618 0.37828 0.46305 0.0
H23 H 0.35394 0.34375 0.3398 0.0
O24 O 0.36987 0.29102 0.45432 0.0
O25 O 0.39531 0.33539 0.45545 0.0
O26 O 0.40016 0.31475 0.34463 0.0
O27 O 0.40324 0.3563 0.34241 0.0
C28 C 0.33968 0.39366 0.51768 0.0
C29 C 0.36057 0.40445 0.55985 0.0
H30 H 0.40472 0.42184 0.63233 0.0
H31 H 0.44515 0.41576 0.61243 0.0
H32 H 0.31092 0.34578 0.34612 0.0
H33 H 0.30336 0.36925 0.42878 0.0
H34 H 0.32149 0.39547 0.52352 0.0
H35 H 0.35819 0.41449 0.59741 0.0
Mn36 Mn 0.10924 0.4235 0.62727 0.0
Mn37 Mn 0.0509 0.4264 0.6386 0.0
C38 C 0.06995 0.3871 0.66941 0.0
C39 C 0.15067 0.43266 0.674 0.0
C40 C 0.07362 0.41961 0.52495 0.0
O41 O 0.122 0.46463 0.61789 0.0
O42 O 0.08293 0.46404 0.64546 0.0
C43 C 0.05272 0.44596 0.75657 0.0
N44 N 0.04007 0.42612 0.7162 0.0
C45 C 1.00112 0.4 0.77813 0.0
C46 C 1.01385 0.42006 0.82058 0.0
C47 C 0.03966 0.44326 0.80936 0.0
C48 C 0.01505 0.40393 0.72593 0.0
H49 H 0.07246 0.46388 0.74822 0.0
C50 C 0.10867 0.47664 0.63315 0.0
O51 O 0.14806 0.42951 0.61841 0.0
O52 O 0.12995 0.43145 0.70084 0.0
N53 N 0.01867 0.39082 0.63307 0.0
C54 C 1.00906 0.3735 0.58708 0.0
C55 C 0.98331 0.34944 0.59064 0.0
C56 C 0.96751 0.34358 0.64111 0.0
C57 C 0.97768 0.3618 0.68766 0.0
C58 C 1.0036 0.38535 0.68173 0.0
H59 H 0.02079 0.37802 0.54778 0.0
O60 O 0.08932 0.38324 0.6492 0.0
O61 O 0.07405 0.41158 0.66203 0.0
O62 O 0.09258 0.41522 0.54402 0.0
O63 O 0.05943 0.4261 0.55727 0.0
C64 C 0.96329 0.35739 0.73998 0.0
C65 C 0.97503 0.37649 0.78523 0.0
H66 H 1.00398 0.41766 0.86188 0.0
H67 H 0.04978 0.4591 0.84098 0.0
H68 H 0.97557 0.33554 0.5544 0.0
H69 H 0.94764 0.32502 0.64368 0.0
H70 H 0.94327 0.33931 0.74598 0.0
H71 H 0.96381 0.37293 0.82528 0.0
Mn72 Mn 0.70127 0.10599 0.79211 0.0
Mn73 Mn 0.6378 0.05032 0.80744 0.0
C74 C 0.69498 0.06882 0.84727 0.0
C75 C 0.73603 0.14947 0.8231 0.0
C76 C 0.67199 0.06174 0.6994 0.0
O77 O 0.67563 0.12059 0.76735 0.0
O78 O 0.63475 0.08246 0.78443 0.0
C79 C 0.6172 0.06766 0.90632 0.0
N80 N 0.62389 0.04965 0.88253 0.0
C81 C 0.60419 0.01852 0.96223 0.0
C82 C 0.59651 0.03643 0.98678 0.0
C83 C 0.60341 0.0613 0.95934 0.0
C84 C 0.61808 0.02605 0.90956 0.0
H85 H 0.6218 0.08642 0.88436 0.0
C86 C 0.64929 0.10756 0.76912 0.0
O87 O 0.73493 0.1412 0.77046 0.0
O88 O 0.71636 0.13296 0.8572 0.0
N89 N 0.63731 0.01728 0.82942 0.0
C90 C 0.64291 1.00065 0.79631 0.0
C91 C 0.63726 0.975 0.81785 0.0
C92 C 0.62518 0.96635 0.87248 0.0
C93 C 0.61871 0.98339 0.90488 0.0
C94 C 0.62514 0.00889 0.88147 0.0
H95 H 0.6516 1.00686 0.75372 0.0
O96 O 0.7191 0.08599 0.82677 0.0
O97 O 0.67542 0.07398 0.8353 0.0
O98 O 0.69345 0.08355 0.7165 0.0
O99 O 0.6503 0.04875 0.72974 0.0
C100 C 0.6055 0.97576 0.95884 0.0
C101 C 0.59811 0.99325 0.98735 0.0
H102 H 0.58487 0.03106 0.02606 0.0
H103 H 0.59754 0.07518 0.97836 0.0
H104 H 0.64197 0.96181 0.79219 0.0
H105 H 0.62067 0.94648 0.88882 0.0
H106 H 0.60051 0.95631 0.97834 0.0
H107 H 0.58769 0.987 0.02844 0.0
Mn108 Mn 0.61317 0.69905 0.90894 0.0
Mn109 Mn 0.60507 0.63563 0.89271 0.0
C110 C 0.64736 0.68969 0.94101 0.0
C111 C 0.60678 0.7293 0.96919 0.0
C112 C 0.62055 0.67617 0.79412 0.0
O113 O 0.57169 0.67531 0.89531 0.0
O114 O 0.56897 0.634 0.89023 0.0
C115 C 0.57806 0.61572 0.00538 0.0
N116 N 0.59757 0.61873 0.96666 0.0
C117 C 0.61552 0.59812 0.03141 0.0
C118 C 0.59561 0.5947 0.07191 0.0
C119 C 0.57692 0.60376 0.05902 0.0
C120 C 0.61627 0.61108 0.97952 0.0
H121 H 0.56393 0.62297 0.99582 0.0
C122 C 0.55803 0.64923 0.89057 0.0
O123 O 0.61061 0.73377 0.91405 0.0
O124 O 0.60604 0.70732 0.98799 0.0
N125 N 0.63775 0.63285 0.89424 0.0
C126 C 0.65687 0.63934 0.85196 0.0
C127 C 0.67711 0.63174 0.85781 0.0
C128 C 0.67714 0.61698 0.90661 0.0
C129 C 0.65677 0.60976 0.9488 0.0
C130 C 0.63704 0.61777 0.94028 0.0
H131 H 0.65647 0.64988 0.81379 0.0
O132 O 0.65309 0.71463 0.93032 0.0
O133 O 0.62211 0.67128 0.93051 0.0
O134 O 0.62113 0.69607 0.82243 0.0
O135 O 0.61407 0.65285 0.81605 0.0
C136 C 0.65554 0.59536 0.99949 0.0
C137 C 0.63511 0.58987 0.04117 0.0
H138 H 0.59529 0.58601 0.11356 0.0
H139 H 0.56204 0.60219 0.0905 0.0
H140 H 0.6925 0.63707 0.82456 0.0
H141 H 0.69286 0.61128 0.91121 0.0
H142 H 0.6706 0.58905 0.0075 0.0
H143 H 0.63481 0.57951 0.08079 0.0
Mn144 Mn 0.91671 0.59467 0.1128 0.0
Mn145 Mn 0.96892 0.58208 0.08221 0.0
C146 C 0.95846 0.61954 0.16101 0.0
C147 C 0.87724 0.58594 0.1662 0.0
C148 C 0.95053 0.61228 0.00153 0.0
O149 O 0.89707 0.55624 0.07624 0.0
O150 O 0.93302 0.54873 0.06857 0.0
C151 C 0.96184 0.53976 0.16762 0.0
N152 N 0.97807 0.56432 0.14128 0.0
C153 C 0.01833 0.56993 0.19065 0.0
C154 C 1.00205 0.54461 0.21807 0.0
C155 C 0.97368 0.52958 0.20683 0.0
C156 C 1.00547 0.57895 0.15162 0.0
H157 H 0.94009 0.5282 0.15884 0.0
C158 C 0.90735 0.54085 0.06559 0.0
O159 O 0.88181 0.5965 0.11488 0.0
O160 O 0.89502 0.57956 0.18566 0.0
N161 N 1.00488 0.61272 0.09463 0.0
C162 C 0.01642 0.63861 0.07269 0.0
C163 C 0.04415 0.65745 0.08438 0.0
C164 C 0.05971 0.64945 0.11828 0.0
C165 C 0.04731 0.62273 0.14069 0.0
C166 C 0.01965 0.60478 0.12726 0.0
H167 H 1.00453 0.64481 0.04662 0.0
O168 O 0.9418 0.62916 0.15542 0.0
O169 O 0.95082 0.59595 0.13617 0.0
O170 O 0.93299 0.61372 0.03423 0.0
O171 O 0.96331 0.59987 0.01556 0.0
C172 C 0.06098 0.61356 0.17773 0.0
C173 C 0.04651 0.58716 0.20261 0.0
H174 H 1.01099 0.53683 0.24888 0.0
H175 H 0.96101 0.51024 0.22857 0.0
H176 H 0.05352 0.67811 0.06733 0.0
H177 H 0.08102 0.66414 0.12767 0.0
H178 H 0.0824 0.62696 0.18878 0.0
H179 H 0.05702 0.58069 0.23245 0.0
Mn180 Mn 0.34595 0.92044 0.30215 0.0
Mn181 Mn 0.41048 0.9735 0.30363 0.0
C182 C 0.35432 0.96212 0.34397 0.0
C183 C 0.31223 0.88167 0.35333 0.0
C184 C 0.3748 0.95319 0.1959 0.0
O185 O 0.36917 0.90217 0.28721 0.0
O186 O 0.41112 0.93849 0.30492 0.0
C187 C 0.43623 0.96969 0.41099 0.0
N188 N 0.42836 0.98411 0.37646 0.0
C189 C 0.46253 0.02692 0.41766 0.0
C190 C 0.4716 0.01253 0.45238 0.0
C191 C 0.45797 0.98374 0.44996 0.0
C192 C 0.44052 0.01173 0.38031 0.0
H193 H 0.42654 0.94773 0.40743 0.0
C194 C 0.39504 0.91289 0.29533 0.0
O195 O 0.31014 0.88388 0.29801 0.0
O196 O 0.33388 0.9012 0.37727 0.0
N197 N 0.41305 0.00861 0.30262 0.0
C198 C 0.40299 0.01933 0.26322 0.0
C199 C 0.41244 0.04764 0.26367 0.0
C200 C 0.43295 0.06468 0.30292 0.0
C201 C 0.44328 0.05314 0.34234 0.0
C202 C 0.43188 0.02463 0.34207 0.0
H203 H 0.38818 1.00646 0.23129 0.0
O204 O 0.33055 0.94434 0.3232 0.0
O205 O 0.37331 0.9554 0.33732 0.0
O206 O 0.35196 0.93531 0.21809 0.0
O207 O 0.39664 0.96632 0.22516 0.0
C208 C 0.46495 0.06883 0.38075 0.0
C209 C 0.47493 0.05577 0.41754 0.0
H210 H 0.48874 0.02335 0.48161 0.0
H211 H 0.46464 0.97247 0.47702 0.0
H212 H 0.40455 0.0564 0.23273 0.0
H213 H 0.44085 0.08662 0.30195 0.0
H214 H 0.47444 0.09098 0.38156 0.0
H215 H 0.49209 0.06811 0.4458 0.0
Mn216 Mn 0.67529 0.58549 0.36228 0.0
Mn217 Mn 0.60908 0.56576 0.33325 0.0
C218 C 0.66479 0.60954 0.29413 0.0
C219 C 0.71525 0.58281 0.34286 0.0
C220 C 0.63923 0.60139 0.4354 0.0
O221 O 0.65545 0.54649 0.3957 0.0
O222 O 0.6127 0.53813 0.37828 0.0
C223 C 0.59896 0.51949 0.25719 0.0
N224 N 0.59766 0.54268 0.26708 0.0
C225 C 0.56642 0.53282 0.18832 0.0
C226 C 0.56747 0.50888 0.17687 0.0
C227 C 0.58421 0.50243 0.21089 0.0
C228 C 0.58308 0.54997 0.23247 0.0
H229 H 0.61075 0.51383 0.28502 0.0
C230 C 0.62943 0.53132 0.39901 0.0
O231 O 0.71172 0.59163 0.39208 0.0
O232 O 0.69543 0.57499 0.30605 0.0
N233 N 0.59985 0.58896 0.29004 0.0
C234 C 0.59958 0.61168 0.30935 0.0
C235 C 0.583 0.62038 0.28171 0.0
C236 C 0.566 0.60506 0.23582 0.0
C237 C 0.5659 0.58126 0.21776 0.0
C238 C 0.58369 0.57419 0.24544 0.0
H239 H 0.61162 0.62286 0.34624 0.0
O240 O 0.68831 0.62064 0.32029 0.0
O241 O 0.64771 0.58407 0.30779 0.0
O242 O 0.6615 0.60039 0.42954 0.0
O243 O 0.61896 0.58947 0.40091 0.0
C244 C 0.54766 0.56339 0.17566 0.0
C245 C 0.54847 0.53961 0.15977 0.0
H246 H 0.55519 0.49509 0.14273 0.0
H247 H 0.58498 0.4839 0.20268 0.0
H248 H 0.58281 0.6385 0.29668 0.0
H249 H 0.5527 0.61145 0.21559 0.0
H250 H 0.53293 0.56776 0.1551 0.0
H251 H 0.53472 0.52635 0.12657 0.0
Mn252 Mn 0.10744 0.69224 0.56866 0.0
Mn253 Mn 0.05419 0.62779 0.55045 0.0
C254 C 0.07488 0.68285 0.49692 0.0
C255 C 0.15222 0.72702 0.54438 0.0
C256 C 0.059 0.66392 0.65246 0.0
O257 O 0.1208 0.66804 0.60797 0.0
O258 O 0.08605 0.62598 0.58233 0.0
C259 C 0.07387 0.60344 0.46246 0.0
N260 N 0.05551 0.61114 0.47962 0.0
C261 C 0.02609 0.58816 0.39874 0.0
C262 C 0.04483 0.5802 0.38001 0.0
C263 C 0.06893 0.58804 0.41184 0.0
C264 C 0.03235 0.60387 0.44902 0.0
H265 H 0.092 0.60886 0.48742 0.0
C266 C 0.1098 0.64186 0.60428 0.0
O267 O 0.14079 0.72721 0.59293 0.0
O268 O 0.13823 0.70605 0.51128 0.0
N269 N 0.02272 0.62772 0.51826 0.0
C270 C 1.00768 0.63858 0.54008 0.0
C271 C 0.98382 0.63418 0.51121 0.0
C272 C 0.97545 0.61832 0.46077 0.0
C273 C 0.99134 0.60747 0.43903 0.0
C274 C 0.0152 0.613 0.46904 0.0
H275 H 1.01377 0.65043 0.57928 0.0
O276 O 0.08911 0.70754 0.51732 0.0
O277 O 0.07923 0.66465 0.52132 0.0
O278 O 0.08051 0.68587 0.63603 0.0
O279 O 0.04914 0.64154 0.62449 0.0
C280 C 0.98434 0.59123 0.38898 0.0
C281 C 1.00149 0.58123 0.36939 0.0
H282 H 0.04096 0.56813 0.34125 0.0
H283 H 0.08347 0.58192 0.3978 0.0
H284 H 0.97173 0.64273 0.52813 0.0
H285 H 0.95685 0.61468 0.43901 0.0
H286 H 0.96586 0.58638 0.36513 0.0
H287 H 0.99588 0.56874 0.33089 0.0
Mn288 Mn 0.4226 0.09783 0.74585 0.0
Mn289 Mn 0.42464 0.03944 0.72942 0.0
C290 C 0.38653 0.0601 0.69953 0.0
C291 C 0.43243 0.14081 0.70823 0.0
C292 C 0.41684 0.05976 0.84459 0.0
O293 O 0.46364 0.1098 0.75676 0.0
O294 O 0.46269 0.07103 0.727 0.0
C295 C 0.44623 0.04418 0.61239 0.0
N296 N 0.42573 0.03051 0.65117 0.0
C297 C 0.40118 0.99269 0.58633 0.0
C298 C 0.42206 1.00635 0.54562 0.0
C299 C 0.44475 0.03218 0.55901 0.0
C300 C 0.40386 1.00565 0.63912 0.0
H301 H 0.46367 0.06398 0.62238 0.0
C302 C 0.47566 0.09642 0.74159 0.0
O303 O 0.42891 0.13554 0.76309 0.0
O304 O 0.43139 0.12164 0.67577 0.0
N305 N 0.38871 1.00752 0.73108 0.0
C306 C 0.37044 0.99707 0.77559 0.0
C307 C 0.3465 0.9714 0.76952 0.0
C308 C 0.3418 0.95651 0.7182 0.0
C309 C 0.36104 0.96753 0.67328 0.0
C310 C 0.38434 0.99336 0.6816 0.0
H311 H 0.37413 1.00809 0.81557 0.0
O312 O 0.38253 0.07894 0.72202 0.0
O313 O 0.41091 0.06371 0.70694 0.0
O314 O 0.41321 0.0793 0.82694 0.0
O315 O 0.42308 0.04578 0.81137 0.0
C316 C 0.35793 0.95404 0.62037 0.0
C317 C 0.37804 0.96661 0.57692 0.0
H318 H 0.42051 0.9973 0.50383 0.0
H319 H 0.46107 0.0432 0.52858 0.0
H320 H 0.33182 0.963 0.80453 0.0
H321 H 0.32336 0.93668 0.71375 0.0
H322 H 0.34011 0.93407 0.61256 0.0
H323 H 0.3755 0.95608 0.53641 0.0
Mn324 Mn 0.34746 0.42387 0.87718 0.0
Mn325 Mn 0.41153 0.43698 0.84956 0.0
C326 C 0.35328 0.39249 0.8204 0.0
C327 C 0.31018 0.4302 0.85137 0.0
C328 C 0.38331 0.41686 0.96541 0.0
O329 O 0.37193 0.46494 0.89731 0.0
O330 O 0.41134 0.47177 0.85699 0.0
C331 C 0.42681 0.46625 0.73836 0.0
N332 N 0.42366 0.44497 0.77177 0.0
C333 C 0.45653 0.4395 0.71542 0.0
C334 C 0.4605 0.46168 0.68078 0.0
C335 C 0.44508 0.47469 0.69148 0.0
C336 C 0.43711 0.43125 0.75972 0.0
H337 H 0.41601 0.47709 0.74853 0.0
C338 C 0.39648 0.48068 0.87922 0.0
O339 O 0.31343 0.42409 0.90371 0.0
O340 O 0.32884 0.43327 0.81454 0.0
N341 N 0.41552 0.4054 0.84124 0.0
C342 C 0.40966 0.38484 0.87967 0.0
C343 C 0.4217 0.36833 0.87259 0.0
C344 C 0.44058 0.37393 0.82767 0.0
C345 C 0.44643 0.39536 0.78898 0.0
C346 C 0.43256 0.41004 0.79625 0.0
H347 H 0.39608 0.38116 0.91557 0.0
O348 O 0.33044 0.38568 0.8472 0.0
O349 O 0.3724 0.41797 0.82747 0.0
O350 O 0.35912 0.41139 0.95114 0.0
O351 O 0.40377 0.42959 0.93188 0.0
C352 C 0.46603 0.40322 0.74448 0.0
C353 C 0.47146 0.4256 0.70848 0.0
H354 H 0.47519 0.46876 0.64564 0.0
H355 H 0.44795 0.49173 0.66484 0.0
H356 H 0.41711 0.35188 0.90274 0.0
H357 H 0.45053 0.36175 0.82342 0.0
H358 H 0.47734 0.39246 0.73812 0.0
H359 H 0.4869 0.43173 0.67498 0.0
Mn360 Mn 0.92987 0.33996 0.07221 0.0
Mn361 Mn 0.98127 0.40541 0.07211 0.0
C362 C 0.97227 0.35062 0.02983 0.0
C363 C 0.89167 0.30567 0.02056 0.0
C364 C 0.96259 0.36914 0.17907 0.0
O365 O 0.90971 0.36134 0.0856 0.0
O366 O 0.94528 0.40426 0.07307 0.0
C367 C 0.97506 0.43083 0.96645 0.0
N368 N 0.99052 0.42354 0.9993 0.0
C369 C 0.03234 0.45792 0.95443 0.0
C370 C 0.01687 0.46606 0.92073 0.0
C371 C 0.98807 0.45207 0.92591 0.0
C372 C 0.01817 0.43618 0.99306 0.0
H373 H 0.95311 0.42125 0.97274 0.0
C374 C 0.91964 0.38715 0.08003 0.0
O375 O 0.89398 0.30331 0.07576 0.0
O376 O 0.91096 0.32764 0.99699 0.0
N377 N 0.01715 0.40957 0.07071 0.0
C378 C 0.02904 0.4003 0.1091 0.0
C379 C 0.05757 0.41063 0.10666 0.0
C380 C 0.07363 0.43115 0.06641 0.0
C381 C 0.06089 0.44061 0.02798 0.0
C382 C 0.03222 0.42839 0.03025 0.0
H383 H 0.01692 0.38543 0.14174 0.0
O384 O 0.95545 0.32653 0.05078 0.0
O385 O 0.96434 0.3686 0.03754 0.0
O386 O 0.94465 0.34637 0.15678 0.0
O387 O 0.97528 0.39113 0.15016 0.0
C388 C 0.07555 0.46218 0.9886 0.0
C389 C 0.06133 0.47115 0.95263 0.0
H390 H 0.02687 0.48295 0.89053 0.0
H391 H 0.97601 0.45821 0.90001 0.0
H392 H 0.06724 0.40337 0.13681 0.0
H393 H 0.09574 0.43971 0.06582 0.0
H394 H 0.09778 0.47231 0.98631 0.0
H395 H 0.07291 0.48825 0.92365 0.0
Mn396 Mn 0.60941 0.91589 0.24449 0.0
Mn397 Mn 0.59189 0.96502 0.25436 0.0
C398 C 0.6364 0.95771 0.1963 0.0
C399 C 0.60585 0.87644 0.20088 0.0
C400 C 0.61865 0.95082 0.35131 0.0
O401 O 0.56899 0.89441 0.27049 0.0
O402 O 0.5592 0.92862 0.26541 0.0
C403 C 0.55376 0.95337 0.15728 0.0
N404 N 0.57722 0.97114 0.18562 0.0
C405 C 0.57768 0.01013 0.14187 0.0
C406 C 0.55345 0.99226 0.1122 0.0
C407 C 0.54177 0.96375 0.11903 0.0
C408 C 0.58937 0.99853 0.17724 0.0
H409 H 0.5438 0.93156 0.16541 0.0
C410 C 0.55223 0.90352 0.27309 0.0
O411 O 0.61324 0.8827 0.25418 0.0
O412 O 0.60017 0.89294 0.17268 0.0
N413 N 0.62114 1.00181 0.24561 0.0
C414 C 0.64375 0.01609 0.27951 0.0
C415 C 0.65867 0.04485 0.27601 0.0
C416 C 0.64937 0.05862 0.23993 0.0
C417 C 0.62568 0.04344 0.20649 0.0
C418 C 0.61265 0.0148 0.20917 0.0
H419 H 0.65009 1.00565 0.30957 0.0
O420 O 0.64609 0.94203 0.21224 0.0
O421 O 0.61082 0.94879 0.21091 0.0
O422 O 0.62283 0.93349 0.32461 0.0
O423 O 0.60609 0.96204 0.32906 0.0
C424 C 0.61415 0.0556 0.17153 0.0
C425 C 0.59002 0.03897 0.13981 0.0
H426 H 0.54352 1.00019 0.08439 0.0
H427 H 0.52301 0.94987 0.09653 0.0
H428 H 0.67674 0.05641 0.30245 0.0
H429 H 0.66041 0.08084 0.23869 0.0
H430 H 0.62353 0.07771 0.16916 0.0
H431 H 0.581 0.04862 0.11438 0.0
H432 H 0.34681 0.38229 0.05145 0.0
H433 H 0.43291 0.42412 0.99949 0.0
H434 H 0.44276 0.39919 0.07255 0.0
H435 H 0.36313 0.38656 0.20469 0.0
H436 H 0.33352 0.35387 0.22201 0.0
H437 H 0.33228 0.37352 0.16197 0.0
H438 H 0.31848 0.33163 0.09553 0.0
H439 H 0.32054 0.31221 0.15528 0.0
H440 H 0.34047 0.31683 0.09104 0.0
H441 H 0.44458 0.36992 0.14889 0.0
H442 H 0.4406 0.34767 0.24282 0.0
H443 H 0.35495 0.32588 0.2531 0.0
C444 C 0.36774 0.38637 0.05582 0.0
C445 C 0.38879 0.40495 0.01817 0.0
C446 C 0.41604 0.40985 0.02652 0.0
C447 C 0.42199 0.39551 0.0678 0.0
C448 C 0.40076 0.37661 0.10224 0.0
C449 C 0.3744 0.37267 0.09853 0.0
C450 C 0.3564 0.35327 0.14593 0.0
C451 C 0.34571 0.36766 0.18603 0.0
C452 C 0.33256 0.32692 0.12039 0.0
C453 C 0.37695 0.34738 0.1766 0.0
C454 C 0.40217 0.36046 0.14932 0.0
C455 C 0.42488 0.35938 0.1706 0.0
C456 C 0.42234 0.34624 0.2235 0.0
C457 C 0.39744 0.33472 0.25482 0.0
C458 C 0.37413 0.33418 0.22968 0.0
H459 H 0.05645 0.37549 0.44795 0.0
H460 H 0.07054 0.45837 0.46504 0.0
H461 H 0.03792 0.44986 0.38679 0.0
H462 H 0.05186 0.37762 0.28189 0.0
H463 H 0.02706 0.34149 0.27856 0.0
H464 H 0.05288 0.35442 0.33422 0.0
H465 H 1.0141 0.33189 0.41038 0.0
H466 H 0.98811 0.32004 0.35512 0.0
H467 H 0.98768 0.34122 0.41286 0.0
H468 H 0.99615 0.42933 0.32761 0.0
H469 H 0.96357 0.40718 0.24848 0.0
H470 H 0.98257 0.34123 0.24678 0.0
C471 C 0.05387 0.39229 0.4329 0.0
C472 C 0.06595 0.41762 0.46321 0.0
C473 C 0.06158 0.43888 0.44266 0.0
C474 C 0.04265 0.43409 0.39891 0.0
C475 C 0.02921 0.4083 0.37358 0.0
C476 C 0.03592 0.38838 0.38634 0.0
C477 C 0.01953 0.36339 0.34768 0.0
C478 C 0.03899 0.35897 0.30823 0.0
C479 C 1.00128 0.33761 0.38368 0.0
C480 C 1.00207 0.37229 0.31318 0.0
C481 C 1.00737 0.39782 0.33144 0.0
C482 C 0.99255 0.40982 0.31114 0.0
C483 C 0.97365 0.39675 0.26685 0.0
C484 C 0.97063 0.37263 0.24076 0.0
C485 C 0.98413 0.35947 0.26601 0.0
H486 H 0.5946 0.96187 0.43972 0.0
H487 H 0.67103 0.96645 0.38862 0.0
H488 H 0.69454 0.99677 0.47222 0.0
H489 H 0.62202 0.02975 0.47611 0.0
H490 H 0.59959 0.02401 0.53658 0.0
H491 H 0.58818 0.99979 0.47825 0.0
H492 H 0.57845 0.96016 0.54885 0.0
H493 H 0.58887 0.98406 0.60778 0.0
H494 H 0.60516 0.96371 0.59727 0.0
H495 H 0.71029 0.03146 0.55752 0.0
H496 H 0.71474 0.06063 0.64192 0.0
H497 H 0.62753 0.03282 0.63162 0.0
C498 C 0.61607 0.96843 0.44734 0.0
C499 C 0.63093 0.9615 0.40841 0.0
C500 C 0.65914 0.97096 0.4189 0.0
C501 C 0.6727 0.98852 0.46577 0.0
C502 C 0.65763 0.99614 0.50171 0.0
C503 C 0.62974 0.9858 0.49347 0.0
C504 C 0.6181 0.99769 0.53584 0.0
C505 C 0.60629 0.01376 0.50481 0.0
C506 C 0.59637 0.97506 0.57475 0.0
C507 C 0.64377 0.01666 0.56909 0.0
C508 C 0.66651 0.01576 0.54908 0.0
C509 C 0.6925 0.03209 0.57361 0.0
C510 C 0.69496 0.04888 0.62101 0.0
C511 C 0.67151 0.04904 0.64321 0.0
C512 C 0.64586 0.03314 0.61576 0.0
H513 H 0.67228 0.62614 0.53225 0.0
H514 H 0.59823 0.6138 0.4456 0.0
H515 H 0.59123 0.64026 0.5199 0.0
H516 H 0.6446 0.61656 0.67206 0.0
H517 H 0.67589 0.64202 0.70604 0.0
H518 H 0.67754 0.6252 0.64161 0.0
H519 H 0.70702 0.67266 0.59278 0.0
H520 H 0.70499 0.68952 0.65706 0.0
H521 H 0.69402 0.69617 0.58891 0.0
H522 H 0.58839 0.66341 0.60778 0.0
H523 H 0.58814 0.67731 0.70871 0.0
H524 H 0.66425 0.67733 0.73964 0.0
C525 C 0.65489 0.62941 0.52845 0.0
C526 C 0.63614 0.61798 0.48205 0.0
C527 C 0.61327 0.62238 0.47979 0.0
C528 C 0.60906 0.63762 0.52189 0.0
C529 C 0.62775 0.64854 0.56682 0.0
C530 C 0.65012 0.64452 0.57087 0.0
C531 C 0.66534 0.65621 0.62708 0.0
C532 C 0.66585 0.63365 0.66386 0.0
C533 C 0.69458 0.68006 0.61576 0.0
C534 C 0.6474 0.66638 0.65437 0.0
C535 C 0.62611 0.66221 0.61831 0.0
C536 C 0.60531 0.66738 0.63606 0.0
C537 C 0.60545 0.67561 0.69322 0.0
C538 C 0.62624 0.67858 0.73172 0.0
C539 C 0.64811 0.67519 0.71109 0.0
H540 H 0.01537 0.61927 0.70151 0.0
H541 H 0.06684 0.7073 0.72314 0.0
H542 H 0.03911 0.7049 0.80882 0.0
H543 H 0.95062 0.61346 0.74503 0.0
H544 H 0.93936 0.58117 0.78115 0.0
H545 H 0.96209 0.59051 0.71993 0.0
H546 H 0.99735 0.58408 0.78052 0.0
H547 H 0.97447 0.57413 0.84125 0.0
H548 H 1.00932 0.60207 0.8479 0.0
H549 H 1.00633 0.69125 0.89743 0.0
H550 H 0.97663 0.66769 0.98199 0.0
H551 H 0.94745 0.5894 0.89823 0.0
C552 C 0.0209 0.63827 0.72362 0.0
C553 C 0.0434 0.66355 0.70504 0.0
C554 C 0.04977 0.68766 0.73627 0.0
C555 C 0.03396 0.68649 0.78478 0.0
C556 C 1.01175 0.6611 0.80138 0.0
C557 C 1.00548 0.63745 0.77158 0.0
C558 C 0.98202 0.61231 0.79941 0.0
C559 C 0.95705 0.59856 0.75896 0.0
C560 C 0.99136 0.59197 0.81841 0.0
C561 C 0.97617 0.62522 0.85053 0.0
C562 C 0.99316 0.65344 0.85088 0.0
C563 C 0.99264 0.66926 0.89676 0.0
C564 C 0.97538 0.65579 0.94432 0.0
C565 C 0.95906 0.62682 0.94569 0.0
C566 C 0.95889 0.61163 0.89726 0.0
H567 H 0.37266 0.03995 0.92192 0.0
H568 H 0.45771 0.0601 0.90296 0.0
H569 H 0.45226 0.0296 0.98372 0.0
H570 H 0.37536 0.03754 0.08738 0.0
H571 H 0.33993 0.01056 0.09174 0.0
H572 H 0.35088 0.03554 0.03449 0.0
H573 H 0.33113 0.9958 0.96066 0.0
H574 H 0.3213 0.97077 0.01756 0.0
H575 H 0.34355 0.97177 0.9604 0.0
H576 H 0.43526 0.98974 0.04716 0.0
H577 H 0.41532 0.95788 0.12833 0.0
H578 H 0.34398 0.96885 0.12622 0.0
C579 C 0.39048 0.03909 0.93701 0.0
C580 C 0.4157 0.05242 0.90607 0.0
C581 C 0.43835 0.05024 0.92623 0.0
C582 C 0.43532 0.03256 0.9714 0.0
C583 C 0.40975 0.01798 0.99785 0.0
C584 C 0.38821 0.02228 0.9845 0.0
C585 C 0.36364 1.00483 0.02369 0.0
C586 C 0.35707 0.02321 0.06159 0.0
C587 C 0.33841 0.9846 0.98845 0.0
C588 C 0.37474 0.98968 0.05953 0.0
C589 C 0.40098 0.99697 0.04146 0.0
C590 C 0.41515 0.98459 0.06336 0.0
C591 C 0.40338 0.96612 0.10887 0.0
C592 C 0.37829 0.9611 0.13426 0.0
C593 C 0.36306 0.97206 0.10756 0.0
H594 H 0.59073 0.51068 0.48058 0.0
H595 H 0.63573 0.48866 0.36171 0.0
H596 H 0.59886 0.43996 0.36739 0.0
H597 H 0.55228 0.44213 0.56393 0.0
H598 H 0.52203 0.44561 0.56612 0.0
H599 H 0.55576 0.4757 0.56901 0.0
H600 H 0.54288 0.49575 0.4817 0.0
H601 H 0.50965 0.46557 0.47715 0.0
H602 H 0.53219 0.47658 0.41541 0.0
H603 H 0.55176 0.39572 0.3688 0.0
H604 H 0.50158 0.36199 0.36798 0.0
H605 H 0.48756 0.41596 0.478 0.0
C606 C 0.59366 0.49524 0.4591 0.0
C607 C 0.61633 0.50317 0.42213 0.0
C608 C 0.619 0.48279 0.392 0.0
C609 C 0.59791 0.45511 0.39447 0.0
C610 C 0.57449 0.44827 0.42757 0.0
C611 C 0.57261 0.46786 0.4603 0.0
C612 C 0.54382 0.45712 0.48351 0.0
C613 C 0.54346 0.455 0.54956 0.0
C614 C 0.53144 0.47479 0.46317 0.0
C615 C 0.52935 0.42904 0.45624 0.0
C616 C 0.54728 0.42375 0.42554 0.0
C617 C 0.53772 0.39955 0.39372 0.0
C618 C 0.5092 0.38054 0.39325 0.0
C619 C 0.4906 0.38632 0.42288 0.0
C620 C 0.5011 0.41074 0.45515 0.0
H621 H 0.12658 0.51615 0.54975 0.0
H622 H 0.12008 0.50367 0.73419 0.0
H623 H 0.1313 0.55164 0.74867 0.0
H624 H 0.18229 0.59321 0.55353 0.0
H625 H 0.16618 0.60016 0.4937 0.0
H626 H 0.16519 0.56766 0.49848 0.0
H627 H 0.11194 0.54222 0.49123 0.0
H628 H 0.11293 0.57451 0.48632 0.0
H629 H 0.09267 0.55036 0.54183 0.0
H630 H 0.13105 0.59579 0.74208 0.0
H631 H 0.12037 0.63201 0.71408 0.0
H632 H 0.13078 0.61849 0.53486 0.0
C633 C 0.12916 0.52415 0.59309 0.0
C634 C 0.12324 0.50662 0.64096 0.0
C635 C 0.12521 0.5171 0.69715 0.0
C636 C 0.13158 0.54433 0.70573 0.0
C637 C 0.13617 0.56095 0.65761 0.0
C638 C 0.13555 0.55141 0.60228 0.0
C639 C 0.13722 0.57193 0.55775 0.0
C640 C 0.16434 0.58396 0.52387 0.0
C641 C 0.1122 0.55897 0.51697 0.0
C642 C 0.13678 0.59341 0.59645 0.0
C643 C 0.13675 0.58707 0.65399 0.0
C644 C 0.13213 0.6016 0.69728 0.0
C645 C 0.12626 0.62229 0.68119 0.0
C646 C 0.12519 0.62822 0.62246 0.0
C647 C 0.13184 0.61451 0.58007 0.0
H648 H 0.50664 0.08208 0.6766 0.0
H649 H 0.51368 0.14079 0.80572 0.0
H650 H 0.56384 0.15769 0.8128 0.0
H651 H 0.54731 0.062 0.7422 0.0
H652 H 0.56216 0.05746 0.6772 0.0
H653 H 0.52881 0.05446 0.67503 0.0
H654 H 0.54579 0.09186 0.59552 0.0
H655 H 0.57943 0.09511 0.59782 0.0
H656 H 0.57578 0.1249 0.60817 0.0
H657 H 0.61162 0.1618 0.81751 0.0
H658 H 0.64984 0.15155 0.82131 0.0
H659 H 0.61053 0.09088 0.68756 0.0
C660 C 0.51875 0.09902 0.70535 0.0
C661 C 0.5062 0.11011 0.7406 0.0
C662 C 0.52288 0.13213 0.77788 0.0
C663 C 0.5514 0.14185 0.78207 0.0
C664 C 0.56293 0.1297 0.74785 0.0
C665 C 0.54698 0.10892 0.70969 0.0
C666 C 0.56301 0.09689 0.68221 0.0
C667 C 0.54953 0.0659 0.69498 0.0
C668 C 0.5662 0.10254 0.61706 0.0
C669 C 0.59025 0.1131 0.71284 0.0
C670 C 0.59019 0.13237 0.74979 0.0
C671 C 0.61214 0.14738 0.78747 0.0
C672 C 0.63393 0.14167 0.78903 0.0
C673 C 0.63339 0.12102 0.75348 0.0
C674 C 0.61183 0.10746 0.71358 0.0
H675 H 0.52585 0.61767 0.80426 0.0
H676 H 0.52306 0.64534 0.97629 0.0
H677 H 0.47432 0.6086 0.98551 0.0
H678 H 0.44958 0.59149 0.76605 0.0
H679 H 0.44835 0.56325 0.72691 0.0
H680 H 0.47972 0.59598 0.72856 0.0
H681 H 0.5059 0.57212 0.767 0.0
H682 H 0.47478 0.53958 0.76603 0.0
H683 H 0.49405 0.55187 0.83199 0.0
H684 H 0.43051 0.56184 0.98431 0.0
H685 H 0.39698 0.51226 0.97089 0.0
H686 H 0.42786 0.51704 0.79801 0.0
C687 C 0.51436 0.61692 0.8424 0.0
C688 C 0.52775 0.63465 0.8889 0.0
C689 C 0.51274 0.63246 0.93949 0.0
C690 C 0.4851 0.61152 0.94513 0.0
C691 C 0.47273 0.59334 0.89933 0.0
C692 C 0.48681 0.59638 0.84826 0.0
C693 C 0.47072 0.57231 0.80848 0.0
C694 C 0.46154 0.5813 0.7543 0.0
C695 C 0.48735 0.55815 0.79254 0.0
C696 C 0.44639 0.55428 0.84655 0.0
C697 C 0.44741 0.56678 0.89841 0.0
C698 C 0.42902 0.55223 0.94311 0.0
C699 C 0.40991 0.5241 0.93516 0.0
C700 C 0.40969 0.51092 0.8832 0.0
C701 C 0.42731 0.52665 0.83786 0.0
H702 H 0.90238 0.41065 0.16013 0.0
H703 H 0.89804 0.39079 0.9794 0.0
H704 H 0.87997 0.42181 0.95768 0.0
H705 H 0.83908 0.42366 0.15659 0.0
H706 H 0.85623 0.45079 0.20851 0.0
H707 H 0.86003 0.4208 0.21198 0.0
H708 H 0.91297 0.4518 0.20822 0.0
H709 H 0.90922 0.48152 0.20493 0.0
H710 H 0.92834 0.47574 0.14942 0.0
H711 H 0.8777 0.46444 0.9522 0.0
H712 H 0.88921 0.51262 0.96493 0.0
H713 H 0.8898 0.50326 0.14948 0.0
C714 C 0.89591 0.41166 0.11671 0.0
C715 C 0.90088 0.39801 0.07156 0.0
C716 C 0.8936 0.4006 0.01462 0.0
C717 C 0.88332 0.41819 0.00195 0.0
C718 C 0.87983 0.43257 0.04699 0.0
C719 C 0.88508 0.42882 0.10364 0.0
C720 C 0.88355 0.44953 0.14284 0.0
C721 C 0.85821 0.43534 0.18231 0.0
C722 C 0.91012 0.46561 0.17831 0.0
C723 C 0.88011 0.46755 0.09873 0.0
C724 C 0.87705 0.45691 0.04377 0.0
C725 C 0.87872 0.47237 0.9951 0.0
C726 C 0.88505 0.49971 0.00256 0.0
C727 C 0.88931 0.51114 0.05822 0.0
C728 C 0.88532 0.49441 0.10673 0.0
H729 H 0.42878 0.91116 0.37589 0.0
H730 H 0.39184 0.87719 0.21099 0.0
H731 H 0.42319 0.85825 0.19997 0.0
H732 H 0.49307 0.93724 0.33537 0.0
H733 H 0.5062 0.93097 0.40108 0.0
H734 H 0.47589 0.93393 0.40307 0.0
H735 H 0.44909 0.88606 0.45165 0.0
H736 H 0.47954 0.88291 0.44929 0.0
H737 H 0.44795 0.85674 0.41757 0.0
H738 H 0.46588 0.85406 0.19618 0.0
H739 H 0.51493 0.86674 0.19806 0.0
H740 H 0.52378 0.9032 0.36584 0.0
C741 C 0.42661 0.89887 0.3385 0.0
C742 C 0.40793 0.89552 0.29443 0.0
C743 C 0.40573 0.87953 0.24573 0.0
C744 C 0.42349 0.86873 0.23924 0.0
C745 C 0.44284 0.8737 0.28242 0.0
C746 C 0.4441 0.8881 0.33166 0.0
C747 C 0.46925 0.89484 0.36737 0.0
C748 C 0.48714 0.92607 0.37718 0.0
C749 C 0.46095 0.87919 0.42487 0.0
C750 C 0.48329 0.88403 0.32844 0.0
C751 C 0.46739 0.87103 0.2805 0.0
C752 C 0.47802 0.86321 0.23447 0.0
C753 C 0.50586 0.8702 0.23606 0.0
C754 C 0.5227 0.88507 0.28305 0.0
C755 C 0.51086 0.89069 0.33084 0.0
H756 H 0.37703 0.36131 0.78658 0.0
H757 H 0.3217 0.38976 0.73154 0.0
H758 H 0.31232 0.36324 0.64166 0.0
H759 H 0.40983 0.36979 0.66467 0.0
H760 H 0.41222 0.3391 0.65785 0.0
H761 H 0.40977 0.35116 0.72751 0.0
H762 H 0.36731 0.30878 0.75971 0.0
H763 H 0.36945 0.29249 0.6946 0.0
H764 H 0.33799 0.29212 0.71258 0.0
H765 H 0.30944 0.33407 0.55641 0.0
H766 H 0.32406 0.31724 0.47218 0.0
H767 H 0.38604 0.314 0.57715 0.0
C768 C 0.36337 0.36236 0.75541 0.0
C769 C 0.35052 0.37805 0.76559 0.0
C770 C 0.3319 0.37798 0.72425 0.0
C771 C 0.32611 0.36267 0.6735 0.0
C772 C 0.33912 0.34745 0.66447 0.0
C773 C 0.35769 0.34747 0.70386 0.0
C774 C 0.37105 0.33176 0.68067 0.0
C775 C 0.40259 0.34903 0.68246 0.0
C776 C 0.36083 0.30468 0.71386 0.0
C777 C 0.35979 0.32617 0.61985 0.0
C778 C 0.33968 0.33324 0.61293 0.0
C779 C 0.32557 0.32898 0.56095 0.0
C780 C 0.33397 0.31952 0.51337 0.0
C781 C 0.35691 0.31573 0.51811 0.0
C782 C 0.36885 0.31752 0.57256 0.0
H783 H 0.02782 0.37812 0.9962 0.0
H784 H 0.94524 0.32031 0.93829 0.0
H785 H 0.96339 0.31653 0.8449 0.0
H786 H 0.05116 0.41571 0.88783 0.0
H787 H 0.08446 0.42027 0.86944 0.0
H788 H 0.07232 0.41324 0.94223 0.0
H789 H 0.07264 0.37002 0.95922 0.0
H790 H 0.09119 0.37692 0.89209 0.0
H791 H 0.06091 0.34402 0.90432 0.0
H792 H 0.98961 0.31981 0.75595 0.0
H793 H 0.02023 0.33928 0.67091 0.0
H794 H 0.08443 0.39909 0.78073 0.0
C795 C 1.01364 0.36481 0.9639 0.0
C796 C 0.98501 0.34995 0.9744 0.0
C797 C 0.96722 0.33214 0.93119 0.0
C798 C 0.97735 0.32943 0.87817 0.0
C799 C 1.00552 0.34443 0.8687 0.0
C800 C 0.02352 0.36184 0.91015 0.0
C801 C 0.05255 0.37753 0.88608 0.0
C802 C 0.06587 0.40853 0.89662 0.0
C803 C 0.07037 0.36646 0.91196 0.0
C804 C 0.04686 0.36963 0.8229 0.0
C805 C 0.02024 0.34855 0.81509 0.0
C806 C 1.01047 0.33655 0.76125 0.0
C807 C 0.02785 0.34768 0.71324 0.0
C808 C 0.05395 0.3712 0.71958 0.0
C809 C 0.06407 0.3815 0.77519 0.0
H810 H 0.65827 0.01333 0.1678 0.0
H811 H 0.6403 0.93446 0.09902 0.0
H812 H 0.66028 0.95624 0.00576 0.0
H813 H 0.63652 0.03343 0.06123 0.0
H814 H 0.66173 0.06843 0.0436 0.0
H815 H 0.65855 0.05631 0.11579 0.0
H816 H 0.7042 0.06191 0.13495 0.0
H817 H 0.71466 0.08254 0.07034 0.0
H818 H 0.72227 0.05515 0.079 0.0
H819 H 0.68466 0.9872 0.9211 0.0
H820 H 0.69691 0.02124 0.84207 0.0
H821 H 0.68942 0.07668 0.95977 0.0
C822 C 0.65795 1.00051 0.13319 0.0
C823 C 0.64727 0.97206 0.14075 0.0
C824 C 0.64841 0.95634 0.09423 0.0
C825 C 0.66 0.96853 0.04128 0.0
C826 C 0.67038 0.99657 0.03518 0.0
C827 C 0.66901 0.01233 0.07938 0.0
C828 C 0.67902 0.04146 0.05909 0.0
C829 C 0.65761 0.05035 0.07021 0.0
C830 C 0.70668 0.06144 0.08752 0.0
C831 C 0.6831 0.03852 0.99557 0.0
C832 C 0.68039 0.01326 0.98379 0.0
C833 C 0.68606 1.00679 0.92935 0.0
C834 C 0.69285 0.02605 0.88482 0.0
C835 C 0.69226 0.05047 0.89479 0.0
C836 C 0.68852 0.05734 0.95111 0.0
H837 H 0.63887 0.69418 0.05311 0.0
H838 H 0.68853 0.6764 0.93808 0.0
H839 H 0.70044 0.6554 0.01937 0.0
H840 H 0.69145 0.70981 0.17864 0.0
H841 H 0.66432 0.69918 0.23111 0.0
H842 H 0.66342 0.71619 0.1659 0.0
H843 H 0.61458 0.67474 0.13991 0.0
H844 H 0.61643 0.66082 0.20798 0.0
H845 H 0.60982 0.6406 0.14385 0.0
H846 H 0.6934 0.62394 0.10434 0.0
H847 H 0.68424 0.59953 0.19753 0.0
H848 H 0.64843 0.6467 0.26354 0.0
C849 C 0.65281 0.68644 0.04558 0.0
C850 C 0.66147 0.68505 0.98926 0.0
C851 C 0.68062 0.67613 0.98067 0.0
C852 C 0.68756 0.6644 0.02657 0.0
C853 C 0.67616 0.66328 0.08066 0.0
C854 C 0.6609 0.67589 0.09127 0.0
C855 C 0.6526 0.67335 0.15409 0.0
C856 C 0.66893 0.70129 0.18421 0.0
C857 C 0.62149 0.66162 0.16164 0.0
C858 C 0.6617 0.65359 0.17492 0.0
C859 C 0.67553 0.6483 0.13196 0.0
C860 C 0.68341 0.62859 0.13884 0.0
C861 C 0.67765 0.61448 0.19138 0.0
C862 C 0.66468 0.62051 0.23675 0.0
C863 C 0.6571 0.64071 0.22876 0.0
H864 H 0.04331 0.70154 0.43915 0.0
H865 H 0.0872 0.6568 0.41712 0.0
H866 H 0.06505 0.63987 0.32369 0.0
H867 H 0.98226 0.659 0.37561 0.0
H868 H 0.97799 0.68333 0.33284 0.0
H869 H 0.99899 0.69458 0.39663 0.0
H870 H 0.03997 0.73062 0.33534 0.0
H871 H 0.01879 0.71907 0.27162 0.0
H872 H 0.05114 0.71952 0.2733 0.0
H873 H 0.02165 0.61162 0.27328 0.0
H874 H 0.9784 0.59232 0.21976 0.0
H875 H 0.97942 0.66857 0.22467 0.0
C876 C 0.04861 0.68873 0.41372 0.0
C877 C 0.06505 0.67842 0.43702 0.0
C878 C 0.07286 0.66299 0.40184 0.0
C879 C 0.06088 0.65372 0.34833 0.0
C880 C 0.04271 0.66185 0.32879 0.0
C881 C 0.03805 0.68056 0.35756 0.0
C882 C 0.01816 0.68615 0.32304 0.0
C883 C 0.99287 0.68043 0.35925 0.0
C884 C 0.0329 0.7156 0.29941 0.0
C885 C 1.01044 0.6653 0.27453 0.0
C886 C 0.02419 0.65085 0.2814 0.0
C887 C 1.01352 0.62457 0.26005 0.0
C888 C 0.98993 0.61401 0.22674 0.0
C889 C 0.98036 0.63099 0.20527 0.0
C890 C 0.98938 0.65664 0.23286 0.0
H891 H 0.38053 0.01786 0.375 0.0
H892 H 0.32312 0.93558 0.43494 0.0
H893 H 0.31705 0.9542 0.52558 0.0
H894 H 0.4167 0.04307 0.48201 0.0
H895 H 0.42016 0.07594 0.49893 0.0
H896 H 0.41371 0.06335 0.42653 0.0
H897 H 0.36981 0.06216 0.40801 0.0
H898 H 0.37593 0.08098 0.47439 0.0
H899 H 0.34344 0.05018 0.46247 0.0
H900 H 0.31893 0.98067 0.61254 0.0
H901 H 0.33804 0.01116 0.69739 0.0
H902 H 0.39906 0.07495 0.5881 0.0
C903 C 0.36685 1.00384 0.40719 0.0
C904 C 0.35269 0.97518 0.39806 0.0
C905 C 0.33433 0.9576 0.441 0.0
C906 C 0.33032 0.96799 0.49236 0.0
C907 C 0.34474 0.99618 0.50066 0.0
C908 C 0.36269 0.01398 0.45943 0.0
C909 C 0.37772 0.04311 0.48254 0.0
C910 C 0.40892 0.05717 0.47234 0.0
C911 C 0.36602 0.0601 0.45525 0.0
C912 C 0.36943 0.03764 0.5457 0.0
C913 C 0.34817 0.01111 0.55356 0.0
C914 C 0.33577 1.00146 0.60723 0.0
C915 C 0.34673 0.01876 0.65516 0.0
C916 C 0.37054 0.04465 0.64903 0.0
C917 C 0.38121 0.05475 0.59346 0.0
H918 H 0.42118 0.23637 0.4639 0.0
H919 H 0.43863 0.29619 0.5989 0.0
H920 H 0.44537 0.26691 0.668 0.0
H921 H 0.38288 0.17734 0.55137 0.0
H922 H 0.39582 0.15705 0.51827 0.0
H923 H 0.3943 0.1835 0.47745 0.0
H924 H 0.44635 0.20606 0.45488 0.0
H925 H 0.44799 0.17958 0.49555 0.0
H926 H 0.47053 0.21516 0.51328 0.0
H927 H 0.4469 0.22998 0.72508 0.0
H928 H 0.44432 0.18803 0.76526 0.0
H929 H 0.4269 0.15179 0.59471 0.0
C930 C 0.42689 0.24349 0.50773 0.0
C931 C 0.42946 0.26875 0.52567 0.0
C932 C 0.43656 0.27704 0.58379 0.0
C933 C 0.44047 0.26052 0.62358 0.0
C934 C 0.43734 0.23562 0.60497 0.0
C935 C 0.43089 0.22712 0.54841 0.0
C936 C 0.42772 0.19882 0.54068 0.0
C937 C 0.39844 0.17795 0.52077 0.0
C938 C 0.44945 0.19999 0.4986 0.0
C939 C 0.43301 0.19272 0.60176 0.0
C940 C 0.43857 0.21429 0.63806 0.0
C941 C 0.44288 0.21306 0.69694 0.0
C942 C 0.44134 0.18912 0.71945 0.0
C943 C 0.43569 0.16669 0.68325 0.0
C944 C 0.43171 0.16873 0.62347 0.0
H945 H 0.2904 0.42922 0.74167 0.0
H946 H 0.27499 0.43691 0.92197 0.0
H947 H 0.23447 0.44071 0.89462 0.0
H948 H 0.26881 0.47593 0.68374 0.0
H949 H 0.25249 0.45524 0.62112 0.0
H950 H 0.28122 0.45451 0.65404 0.0
H951 H 0.25189 0.40176 0.66511 0.0
H952 H 0.2231 0.40231 0.63212 0.0
H953 H 0.21934 0.38705 0.70229 0.0
H954 H 0.19562 0.4432 0.84893 0.0
H955 H 0.15884 0.44151 0.7889 0.0
H956 H 0.1971 0.43048 0.6363 0.0
C957 C 0.27863 0.43198 0.77534 0.0
C958 C 0.28607 0.433 0.83415 0.0
C959 C 0.26982 0.43614 0.87681 0.0
C960 C 0.24678 0.43839 0.86162 0.0
C961 C 0.23997 0.43724 0.80348 0.0
C962 C 0.25524 0.43391 0.76091 0.0
C963 C 0.24251 0.43204 0.70187 0.0
C964 C 0.26245 0.45585 0.66289 0.0
C965 C 0.23368 0.40413 0.6737 0.0
C966 C 0.21765 0.43476 0.718 0.0
C967 C 0.21689 0.43798 0.7769 0.0
C968 C 0.19602 0.44069 0.8028 0.0
C969 C 0.17514 0.43971 0.76802 0.0
C970 C 0.17488 0.43588 0.70754 0.0
C971 C 0.1967 0.43361 0.6822 0.0
H972 H 0.84443 0.25654 0.05244 0.0
H973 H 0.88784 0.30734 0.90459 0.0
H974 H 0.85231 0.27404 0.84028 0.0
H975 H 0.82203 0.19145 0.98279 0.0
H976 H 0.78862 0.17422 0.01662 0.0
H977 H 0.8172 0.20233 0.0527 0.0
H978 H 0.78931 0.22751 0.06146 0.0
H979 H 0.76067 0.19948 0.02528 0.0
H980 H 0.77511 0.23391 0.99756 0.0
H981 H 0.81369 0.23511 0.79018 0.0
H982 H 0.77309 0.19233 0.7576 0.0
H983 H 0.75247 0.16594 0.93541 0.0
C984 C 0.84634 0.26064 0.0066 0.0
C985 C 0.86908 0.28475 0.98393 0.0
C986 C 0.87074 0.28922 0.92349 0.0
C987 C 0.85059 0.27037 0.88627 0.0
C988 C 0.82856 0.24693 0.90965 0.0
C989 C 0.82611 0.2419 0.96831 0.0
C990 C 0.80021 0.21472 0.9813 0.0
C991 C 0.80746 0.19448 0.01005 0.0
C992 C 0.78014 0.21918 0.01862 0.0
C993 C 0.78884 0.20536 0.92084 0.0
C994 C 0.80564 0.22435 0.88033 0.0
C995 C 0.80022 0.22013 0.82149 0.0
C996 C 0.77709 0.19574 0.80335 0.0
C997 C 0.75944 0.17585 0.84378 0.0
C998 C 0.76535 0.18092 0.90343 0.0
H999 H 0.60527 0.86417 0.08485 0.0
H1000 H 0.60294 0.8326 0.2568 0.0
H1001 H 0.6012 0.79153 0.21518 0.0
H1002 H 0.55996 0.79818 0.01622 0.0
H1003 H 0.57949 0.8068 0.95021 0.0
H1004 H 0.5792 0.83343 0.99279 0.0
H1005 H 0.63241 0.85914 0.99746 0.0
H1006 H 0.63286 0.83262 0.95491 0.0
H1007 H 0.6496 0.8415 0.02414 0.0
H1008 H 0.6002 0.75439 0.15697 0.0
H1009 H 0.60203 0.72345 0.08518 0.0
H1010 H 0.6067 0.77834 0.94804 0.0
C1011 C 0.60413 0.84845 0.11361 0.0
C1012 C 0.60407 0.85157 0.17426 0.0
C1013 C 0.60299 0.83074 0.21038 0.0
C1014 C 0.60192 0.80726 0.18711 0.0
C1015 C 0.60218 0.80485 0.12744 0.0
C1016 C 0.6034 0.82486 0.09096 0.0
C1017 C 0.60456 0.81738 0.02834 0.0
C1018 C 0.5793 0.81373 0.99492 0.0
C1019 C 0.63146 0.83895 0.99952 0.0
C1020 C 0.60387 0.79012 0.03557 0.0
C1021 C 0.60227 0.78336 0.09327 0.0
C1022 C 0.60144 0.75943 0.11165 0.0
C1023 C 0.60247 0.74193 0.07024 0.0
C1024 C 0.60449 0.7483 0.01063 0.0
C1025 C 0.6051 0.77279 0.99313 0.0
H1026 H 0.73591 0.58394 0.23524 0.0
H1027 H 0.75264 0.58102 0.41665 0.0
H1028 H 0.79486 0.57963 0.39109 0.0
H1029 H 0.76059 0.53983 0.18244 0.0
H1030 H 0.77587 0.5599 0.11836 0.0
H1031 H 0.74649 0.55947 0.15091 0.0
H1032 H 0.77367 0.61248 0.15818 0.0
H1033 H 0.80309 0.6131 0.12546 0.0
H1034 H 0.80645 0.62913 0.19443 0.0
H1035 H 0.83484 0.57732 0.34481 0.0
H1036 H 0.87154 0.57898 0.28299 0.0
H1037 H 0.83048 0.58675 0.1318 0.0
C1038 C 0.74837 0.58282 0.26963 0.0
C1039 C 0.74081 0.58228 0.32806 0.0
C1040 C 0.75796 0.58137 0.37169 0.0
C1041 C 0.78193 0.58048 0.35751 0.0
C1042 C 0.78875 0.58097 0.29945 0.0
C1043 C 0.77263 0.5825 0.25624 0.0
C1044 C 0.7852 0.58416 0.19734 0.0
C1045 C 0.76588 0.55936 0.16008 0.0
C1046 C 0.79254 0.61133 0.16709 0.0
C1047 C 0.81087 0.58318 0.214 0.0
C1048 C 0.81235 0.58098 0.27307 0.0
C1049 C 0.83392 0.5792 0.29858 0.0
C1050 C 0.85464 0.58005 0.26301 0.0
C1051 C 0.854 0.58306 0.20249 0.0
C1052 C 0.83167 0.58454 0.17788 0.0
H1053 H 0.17251 0.74173 0.43394 0.0
H1054 H 0.19217 0.76596 0.61273 0.0
H1055 H 0.23566 0.80664 0.58237 0.0
H1056 H 0.24278 0.76527 0.3838 0.0
H1057 H 0.2378 0.77769 0.31581 0.0
H1058 H 0.2091 0.74933 0.35141 0.0
H1059 H 0.18217 0.77562 0.34849 0.0
H1060 H 0.21079 0.80408 0.31306 0.0
H1061 H 0.19736 0.80951 0.3792 0.0
H1062 H 0.27617 0.84483 0.53363 0.0
H1063 H 0.31089 0.87976 0.46992 0.0
H1064 H 0.26504 0.83308 0.32024 0.0
C1065 C 0.18621 0.75539 0.46671 0.0
C1066 C 0.1791 0.75049 0.52592 0.0
C1067 C 0.19724 0.76919 0.56732 0.0
C1068 C 0.22201 0.79234 0.55043 0.0
C1069 C 0.22827 0.79675 0.49184 0.0
C1070 C 0.2109 0.77893 0.45046 0.0
C1071 C 0.22199 0.78942 0.39022 0.0
C1072 C 0.22829 0.76922 0.35844 0.0
C1073 C 0.20188 0.79499 0.35572 0.0
C1074 C 0.24828 0.81597 0.40427 0.0
C1075 C 0.25147 0.8195 0.46327 0.0
C1076 C 0.27391 0.84226 0.4874 0.0
C1077 C 0.2936 0.86203 0.45055 0.0
C1078 C 0.29087 0.85929 0.38977 0.0
C1079 C 0.26779 0.83582 0.36638 0.0
loop_
_geom_bond_atom_site_label_1
_geom_bond_atom_site_label_2
_geom_bond_distance
_geom_bond_site_symmetry_2
_ccdc_geom_bond_type
Mn0 O5 2.095 . S
Mn0 O15 2.162 . S
Mn0 O16 2.297 . S
Mn0 O24 2.385 . S
Mn0 O25 2.209 . S
Mn0 O26 2.094 . S
Mn1 O6 2.121 . S
Mn1 N8 2.257 . S
Mn1 N17 2.282 . S
Mn1 O25 2.215 . S
Mn1 O27 2.117 . S
C2 O24 1.234 . S
C2 O25 1.283 . S
C3 O15 1.281 . S
C3 O16 1.236 . S
C4 O26 1.240 . S
C4 O27 1.264 . S
O5 Mn0 2.095 . S
O5 C14 1.250 . S
O6 Mn1 2.121 . S
O6 C14 1.258 . S
C7 N8 1.326 . S
C7 C11 1.460 . S
C7 H13 0.929 . S
N8 Mn1 2.257 . S
N8 C7 1.326 . S
N8 C12 1.362 . S
C9 C10 1.258 . S
C9 C12 1.431 . S
C9 C29 1.449 . S
C10 C9 1.258 . S
C10 C11 1.477 . S
C10 H30 0.931 . S
C11 C7 1.460 . S
C11 C10 1.477 . S
C11 H31 0.930 . S
C12 N8 1.362 . S
C12 C9 1.431 . S
C12 C22 1.476 . S
H13 C7 0.929 . S
C14 O5 1.250 . S
C14 O6 1.258 . S
O15 Mn0 2.162 . S
O15 C3 1.281 . S
O16 Mn0 2.297 . S
O16 C3 1.236 . S
N17 Mn1 2.282 . S
N17 C18 1.328 . S
N17 C22 1.318 . S
C18 N17 1.328 . S
C18 C19 1.457 . S
C18 H23 0.929 . S
C19 C18 1.457 . S
C19 C20 1.291 . S
C19 H32 0.931 . S
C20 C19 1.291 . S
C20 C21 1.373 . S
C20 H33 0.929 . S
C21 C20 1.373 . S
C21 C22 1.396 . S
C21 C28 1.403 . S
C22 C12 1.476 . S
C22 N17 1.318 . S
C22 C21 1.396 . S
H23 C18 0.929 . S
O24 Mn0 2.385 . S
O24 C2 1.234 . S
O25 Mn0 2.209 . S
O25 Mn1 2.215 . S
O25 C2 1.283 . S
O26 Mn0 2.094 . S
O26 C4 1.240 . S
O27 Mn1 2.117 . S
O27 C4 1.264 . S
C28 C21 1.403 . S
C28 C29 1.399 . S
C28 H34 0.929 . S
C29 C9 1.449 . S
C29 C28 1.399 . S
C29 H35 0.930 . S
H30 C10 0.931 . S
H31 C11 0.930 . S
H32 C19 0.931 . S
H33 C20 0.929 . S
H34 C28 0.929 . S
H35 C29 0.930 . S
Mn36 O41 2.095 . S
Mn36 O51 2.162 . S
Mn36 O52 2.297 . S
Mn36 O60 2.385 . S
Mn36 O61 2.209 . S
Mn36 O62 2.094 . S
Mn37 O42 2.121 . S
Mn37 N44 2.257 . S
Mn37 N53 2.282 . S
Mn37 O61 2.215 . S
Mn37 O63 2.117 . S
C38 O60 1.234 . S
C38 O61 1.283 . S
C39 O51 1.281 . S
C39 O52 1.236 . S
C40 O62 1.240 . S
C40 O63 1.264 . S
O41 Mn36 2.095 . S
O41 C50 1.250 . S
O42 Mn37 2.121 . S
O42 C50 1.258 . S
C43 N44 1.326 . S
C43 C47 1.460 . S
C43 H49 0.929 . S
N44 Mn37 2.257 . S
N44 C43 1.326 . S
N44 C48 1.362 . S
C45 C46 1.258 . S
C45 C48 1.431 1_655 S
C45 C65 1.449 . S
C46 C45 1.258 . S
C46 C47 1.477 1_655 S
C46 H66 0.931 . S
C47 C43 1.460 . S
C47 C46 1.477 1_455 S
C47 H67 0.930 . S
C48 N44 1.362 . S
C48 C45 1.431 1_455 S
C48 C58 1.476 1_455 S
H49 C43 0.929 . S
C50 O41 1.250 . S
C50 O42 1.258 . S
O51 Mn36 2.162 . S
O51 C39 1.281 . S
O52 Mn36 2.297 . S
O52 C39 1.236 . S
N53 Mn37 2.282 . S
N53 C54 1.328 1_455 S
N53 C58 1.318 1_455 S
C54 N53 1.328 1_655 S
C54 C55 1.457 . S
C54 H59 0.929 1_655 S
C55 C54 1.457 . S
C55 C56 1.291 . S
C55 H68 0.931 . S
C56 C55 1.291 . S
C56 C57 1.373 . S
C56 H69 0.929 . S
C57 C56 1.373 . S
C57 C58 1.396 . S
C57 C64 1.403 . S
C58 C48 1.476 1_655 S
C58 N53 1.318 1_655 S
C58 C57 1.396 . S
H59 C54 0.929 1_455 S
O60 Mn36 2.385 . S
O60 C38 1.234 . S
O61 Mn36 2.209 . S
O61 Mn37 2.215 . S
O61 C38 1.283 . S
O62 Mn36 2.094 . S
O62 C40 1.240 . S
O63 Mn37 2.117 . S
O63 C40 1.264 . S
C64 C57 1.403 . S
C64 C65 1.399 . S
C64 H70 0.929 . S
C65 C45 1.449 . S
C65 C64 1.399 . S
C65 H71 0.930 . S
H66 C46 0.931 . S
H67 C47 0.930 . S
H68 C55 0.931 . S
H69 C56 0.929 . S
H70 C64 0.929 . S
H71 C65 0.930 . S
Mn72 O77 2.095 . S
Mn72 O87 2.162 . S
Mn72 O88 2.297 . S
Mn72 O96 2.385 . S
Mn72 O97 2.209 . S
Mn72 O98 2.094 . S
Mn73 O78 2.121 . S
Mn73 N80 2.257 . S
Mn73 N89 2.282 . S
Mn73 O97 2.215 . S
Mn73 O99 2.117 . S
C74 O96 1.234 . S
C74 O97 1.283 . S
C75 O87 1.281 . S
C75 O88 1.236 . S
C76 O98 1.240 . S
C76 O99 1.264 . S
O77 Mn72 2.095 . S
O77 C86 1.250 . S
O78 Mn73 2.121 . S
O78 C86 1.258 . S
C79 N80 1.326 . S
C79 C83 1.460 . S
C79 H85 0.929 . S
N80 Mn73 2.257 . S
N80 C79 1.326 . S
N80 C84 1.362 . S
C81 C82 1.258 . S
C81 C84 1.431 1_565 S
C81 C101 1.449 . S
C82 C81 1.258 . S
C82 C83 1.477 1_565 S
C82 H102 0.931 . S
C83 C79 1.460 . S
C83 C82 1.477 1_545 S
C83 H103 0.930 . S
C84 N80 1.362 . S
C84 C81 1.431 1_545 S
C84 C94 1.476 1_545 S
H85 C79 0.929 . S
C86 O77 1.250 . S
C86 O78 1.258 . S
O87 Mn72 2.162 . S
O87 C75 1.281 . S
O88 Mn72 2.297 . S
O88 C75 1.236 . S
N89 Mn73 2.282 . S
N89 C90 1.328 1_545 S
N89 C94 1.318 1_545 S
C90 N89 1.328 1_565 S
C90 C91 1.457 . S
C90 H95 0.929 1_565 S
C91 C90 1.457 . S
C91 C92 1.291 . S
C91 H104 0.931 . S
C92 C91 1.291 . S
C92 C93 1.373 . S
C92 H105 0.929 . S
C93 C92 1.373 . S
C93 C94 1.396 . S
C93 C100 1.403 . S
C94 C84 1.476 1_565 S
C94 N89 1.318 1_565 S
C94 C93 1.396 . S
H95 C90 0.929 1_545 S
O96 Mn72 2.385 . S
O96 C74 1.234 . S
O97 Mn72 2.209 . S
O97 Mn73 2.215 . S
O97 C74 1.283 . S
O98 Mn72 2.094 . S
O98 C76 1.240 . S
O99 Mn73 2.117 . S
O99 C76 1.264 . S
C100 C93 1.403 . S
C100 C101 1.399 . S
C100 H106 0.929 . S
C101 C81 1.449 . S
C101 C100 1.399 . S
C101 H107 0.930 . S
H102 C82 0.931 . S
H103 C83 0.930 . S
H104 C91 0.931 . S
H105 C92 0.929 . S
H106 C100 0.929 . S
H107 C101 0.930 . S
Mn108 O113 2.095 . S
Mn108 O123 2.162 . S
Mn108 O124 2.291 1_556 S
Mn108 O132 2.385 . S
Mn108 O133 2.209 . S
Mn108 O134 2.094 . S
Mn109 O114 2.121 . S
Mn109 N116 2.257 1_556 S
Mn109 N125 2.282 . S
Mn109 O133 2.215 . S
Mn109 O135 2.117 . S
C110 O132 1.234 1_554 S
C110 O133 1.283 1_554 S
C111 O123 1.281 . S
C111 O124 1.231 1_556 S
C112 O134 1.240 . S
C112 O135 1.264 . S
O113 Mn108 2.095 . S
O113 C122 1.250 . S
O114 Mn109 2.121 . S
O114 C122 1.258 . S
C115 N116 1.326 . S
C115 C119 1.460 . S
C115 H121 0.929 . S
N116 Mn109 2.257 1_554 S
N116 C115 1.326 . S
N116 C120 1.362 . S
C117 C118 1.258 . S
C117 C120 1.431 . S
C117 C137 1.449 . S
C118 C117 1.258 . S
C118 C119 1.477 . S
C118 H138 0.931 . S
C119 C115 1.460 . S
C119 C118 1.477 . S
C119 H139 0.930 . S
C120 N116 1.362 . S
C120 C117 1.431 . S
C120 C130 1.480 . S
H121 C115 0.929 . S
C122 O113 1.250 . S
C122 O114 1.258 . S
O123 Mn108 2.162 . S
O123 C111 1.281 . S
O124 Mn108 2.291 1_554 S
O124 C111 1.231 1_554 S
N125 Mn109 2.282 . S
N125 C126 1.328 . S
N125 C130 1.310 1_556 S
C126 N125 1.328 . S
C126 C127 1.457 . S
C126 H131 0.929 . S
C127 C126 1.457 . S
C127 C128 1.291 . S
C127 H140 0.931 . S
C128 C127 1.291 . S
C128 C129 1.373 1_556 S
C128 H141 0.929 1_556 S
C129 C128 1.373 1_554 S
C129 C130 1.399 . S
C129 C136 1.403 . S
C130 C120 1.480 . S
C130 N125 1.310 1_554 S
C130 C129 1.399 . S
H131 C126 0.929 . S
O132 Mn108 2.385 . S
O132 C110 1.234 1_556 S
O133 Mn108 2.209 . S
O133 Mn109 2.215 . S
O133 C110 1.283 1_556 S
O134 Mn108 2.094 . S
O134 C112 1.240 . S
O135 Mn109 2.117 . S
O135 C112 1.264 . S
C136 C129 1.403 . S
C136 C137 1.399 . S
C136 H142 0.929 . S
C137 C117 1.449 . S
C137 C136 1.399 . S
C137 H143 0.930 . S
H138 C118 0.931 . S
H139 C119 0.930 . S
H140 C127 0.931 . S
H141 C128 0.929 1_554 S
H142 C136 0.929 . S
H143 C137 0.930 . S
Mn144 O149 2.095 . S
Mn144 O159 2.162 . S
Mn144 O160 2.297 . S
Mn144 O168 2.385 . S
Mn144 O169 2.209 . S
Mn144 O170 2.094 . S
Mn145 O150 2.121 . S
Mn145 N152 2.257 . S
Mn145 N161 2.282 . S
Mn145 O169 2.215 . S
Mn145 O171 2.117 . S
C146 O168 1.234 . S
C146 O169 1.283 . S
C147 O159 1.281 . S
C147 O160 1.236 . S
C148 O170 1.234 1_556 S
C148 O171 1.255 1_556 S
O149 Mn144 2.095 . S
O149 C158 1.250 . S
O150 Mn145 2.121 . S
O150 C158 1.258 . S
C151 N152 1.326 . S
C151 C155 1.460 . S
C151 H157 0.929 . S
N152 Mn145 2.257 . S
N152 C151 1.326 . S
N152 C156 1.362 . S
C153 C154 1.258 . S
C153 C156 1.431 1_455 S
C153 C173 1.449 . S
C154 C153 1.258 . S
C154 C155 1.477 1_455 S
C154 H174 0.931 . S
C155 C151 1.460 . S
C155 C154 1.477 1_655 S
C155 H175 0.930 . S
C156 N152 1.362 . S
C156 C153 1.431 1_655 S
C156 C166 1.476 1_655 S
H157 C151 0.929 . S
C158 O149 1.250 . S
C158 O150 1.258 . S
O159 Mn144 2.162 . S
O159 C147 1.281 . S
O160 Mn144 2.297 . S
O160 C147 1.236 . S
N161 Mn145 2.282 . S
N161 C162 1.328 1_655 S
N161 C166 1.318 1_655 S
C162 N161 1.328 1_455 S
C162 C163 1.457 . S
C162 H167 0.929 1_455 S
C163 C162 1.457 . S
C163 C164 1.291 . S
C163 H176 0.931 . S
C164 C163 1.291 . S
C164 C165 1.373 . S
C164 H177 0.929 . S
C165 C164 1.373 . S
C165 C166 1.396 . S
C165 C172 1.403 . S
C166 C156 1.476 1_455 S
C166 N161 1.318 1_455 S
C166 C165 1.396 . S
H167 C162 0.929 1_655 S
O168 Mn144 2.385 . S
O168 C146 1.234 . S
O169 Mn144 2.209 . S
O169 Mn145 2.215 . S
O169 C146 1.283 . S
O170 Mn144 2.094 . S
O170 C148 1.234 1_554 S
O171 Mn145 2.117 . S
O171 C148 1.255 1_554 S
C172 C165 1.403 . S
C172 C173 1.399 . S
C172 H178 0.929 . S
C173 C153 1.449 . S
C173 C172 1.399 . S
C173 H179 0.930 . S
H174 C154 0.931 . S
H175 C155 0.930 . S
H176 C163 0.931 . S
H177 C164 0.929 . S
H178 C172 0.929 . S
H179 C173 0.930 . S
Mn180 O185 2.095 . S
Mn180 O195 2.162 . S
Mn180 O196 2.297 . S
Mn180 O204 2.385 . S
Mn180 O205 2.209 . S
Mn180 O206 2.094 . S
Mn181 O186 2.121 . S
Mn181 N188 2.257 . S
Mn181 N197 2.282 . S
Mn181 O205 2.215 . S
Mn181 O207 2.117 . S
C182 O204 1.234 . S
C182 O205 1.283 . S
C183 O195 1.281 . S
C183 O196 1.236 . S
C184 O206 1.240 . S
C184 O207 1.264 . S
O185 Mn180 2.095 . S
O185 C194 1.250 . S
O186 Mn181 2.121 . S
O186 C194 1.258 . S
C187 N188 1.326 . S
C187 C191 1.460 . S
C187 H193 0.929 . S
N188 Mn181 2.257 . S
N188 C187 1.326 . S
N188 C192 1.362 . S
C189 C190 1.258 . S
C189 C192 1.431 1_545 S
C189 C209 1.449 . S
C190 C189 1.258 . S
C190 C191 1.477 1_545 S
C190 H210 0.931 . S
C191 C187 1.460 . S
C191 C190 1.477 1_565 S
C191 H211 0.930 . S
C192 N188 1.362 . S
C192 C189 1.431 1_565 S
C192 C202 1.476 1_565 S
H193 C187 0.929 . S
C194 O185 1.250 . S
C194 O186 1.258 . S
O195 Mn180 2.162 . S
O195 C183 1.281 . S
O196 Mn180 2.297 . S
O196 C183 1.236 . S
N197 Mn181 2.282 . S
N197 C198 1.328 1_565 S
N197 C202 1.318 1_565 S
C198 N197 1.328 1_545 S
C198 C199 1.457 . S
C198 H203 0.929 1_545 S
C199 C198 1.457 . S
C199 C200 1.291 . S
C199 H212 0.931 . S
C200 C199 1.291 . S
C200 C201 1.373 . S
C200 H213 0.929 . S
C201 C200 1.373 . S
C201 C202 1.396 . S
C201 C208 1.403 . S
C202 C192 1.476 1_545 S
C202 N197 1.318 1_545 S
C202 C201 1.396 . S
H203 C198 0.929 1_565 S
O204 Mn180 2.385 . S
O204 C182 1.234 . S
O205 Mn180 2.209 . S
O205 Mn181 2.215 . S
O205 C182 1.283 . S
O206 Mn180 2.094 . S
O206 C184 1.240 . S
O207 Mn181 2.117 . S
O207 C184 1.264 . S
C208 C201 1.403 . S
C208 C209 1.399 . S
C208 H214 0.929 . S
C209 C189 1.449 . S
C209 C208 1.399 . S
C209 H215 0.930 . S
H210 C190 0.931 . S
H211 C191 0.930 . S
H212 C199 0.931 . S
H213 C200 0.929 . S
H214 C208 0.929 . S
H215 C209 0.930 . S
Mn216 O221 2.095 . S
Mn216 O231 2.162 . S
Mn216 O232 2.297 . S
Mn216 O240 2.385 . S
Mn216 O241 2.209 . S
Mn216 O242 2.094 . S
Mn217 O222 2.121 . S
Mn217 N224 2.257 . S
Mn217 N233 2.282 . S
Mn217 O241 2.215 . S
Mn217 O243 2.117 . S
C218 O240 1.234 . S
C218 O241 1.283 . S
C219 O231 1.281 . S
C219 O232 1.236 . S
C220 O242 1.240 . S
C220 O243 1.264 . S
O221 Mn216 2.095 . S
O221 C230 1.250 . S
O222 Mn217 2.121 . S
O222 C230 1.258 . S
C223 N224 1.326 . S
C223 C227 1.460 . S
C223 H229 0.929 . S
N224 Mn217 2.257 . S
N224 C223 1.326 . S
N224 C228 1.362 . S
C225 C226 1.258 . S
C225 C228 1.431 . S
C225 C245 1.449 . S
C226 C225 1.258 . S
C226 C227 1.477 . S
C226 H246 0.931 . S
C227 C223 1.460 . S
C227 C226 1.477 . S
C227 H247 0.930 . S
C228 N224 1.362 . S
C228 C225 1.431 . S
C228 C238 1.476 . S
H229 C223 0.929 . S
C230 O221 1.250 . S
C230 O222 1.258 . S
O231 Mn216 2.162 . S
O231 C219 1.281 . S
O232 Mn216 2.297 . S
O232 C219 1.236 . S
N233 Mn217 2.282 . S
N233 C234 1.328 . S
N233 C238 1.318 . S
C234 N233 1.328 . S
C234 C235 1.457 . S
C234 H239 0.929 . S
C235 C234 1.457 . S
C235 C236 1.291 . S
C235 H248 0.931 . S
C236 C235 1.291 . S
C236 C237 1.373 . S
C236 H249 0.929 . S
C237 C236 1.373 . S
C237 C238 1.396 . S
C237 C244 1.403 . S
C238 C228 1.476 . S
C238 N233 1.318 . S
C238 C237 1.396 . S
H239 C234 0.929 . S
O240 Mn216 2.385 . S
O240 C218 1.234 . S
O241 Mn216 2.209 . S
O241 Mn217 2.215 . S
O241 C218 1.283 . S
O242 Mn216 2.094 . S
O242 C220 1.240 . S
O243 Mn217 2.117 . S
O243 C220 1.264 . S
C244 C237 1.403 . S
C244 C245 1.399 . S
C244 H250 0.929 . S
C245 C225 1.449 . S
C245 C244 1.399 . S
C245 H251 0.930 . S
H246 C226 0.931 . S
H247 C227 0.930 . S
H248 C235 0.931 . S
H249 C236 0.929 . S
H250 C244 0.929 . S
H251 C245 0.930 . S
Mn252 O257 2.095 . S
Mn252 O267 2.162 . S
Mn252 O268 2.297 . S
Mn252 O276 2.385 . S
Mn252 O277 2.209 . S
Mn252 O278 2.094 . S
Mn253 O258 2.121 . S
Mn253 N260 2.257 . S
Mn253 N269 2.282 . S
Mn253 O277 2.215 . S
Mn253 O279 2.117 . S
C254 O276 1.234 . S
C254 O277 1.283 . S
C255 O267 1.281 . S
C255 O268 1.236 . S
C256 O278 1.240 . S
C256 O279 1.264 . S
O257 Mn252 2.095 . S
O257 C266 1.250 . S
O258 Mn253 2.121 . S
O258 C266 1.258 . S
C259 N260 1.326 . S
C259 C263 1.460 . S
C259 H265 0.929 . S
N260 Mn253 2.257 . S
N260 C259 1.326 . S
N260 C264 1.362 . S
C261 C262 1.258 . S
C261 C264 1.431 1_655 S
C261 C281 1.449 . S
C262 C261 1.258 . S
C262 C263 1.477 1_655 S
C262 H282 0.931 . S
C263 C259 1.460 . S
C263 C262 1.477 1_455 S
C263 H283 0.930 . S
C264 N260 1.362 . S
C264 C261 1.431 1_455 S
C264 C274 1.476 1_455 S
H265 C259 0.929 . S
C266 O257 1.250 . S
C266 O258 1.258 . S
O267 Mn252 2.162 . S
O267 C255 1.281 . S
O268 Mn252 2.297 . S
O268 C255 1.236 . S
N269 Mn253 2.282 . S
N269 C270 1.328 1_455 S
N269 C274 1.318 1_455 S
C270 N269 1.328 1_655 S
C270 C271 1.457 . S
C270 H275 0.929 1_655 S
C271 C270 1.457 . S
C271 C272 1.291 . S
C271 H284 0.931 . S
C272 C271 1.291 . S
C272 C273 1.373 . S
C272 H285 0.929 . S
C273 C272 1.373 . S
C273 C274 1.396 . S
C273 C280 1.403 . S
C274 C264 1.476 1_655 S
C274 N269 1.318 1_655 S
C274 C273 1.396 . S
H275 C270 0.929 1_455 S
O276 Mn252 2.385 . S
O276 C254 1.234 . S
O277 Mn252 2.209 . S
O277 Mn253 2.215 . S
O277 C254 1.283 . S
O278 Mn252 2.094 . S
O278 C256 1.240 . S
O279 Mn253 2.117 . S
O279 C256 1.264 . S
C280 C273 1.403 . S
C280 C281 1.399 . S
C280 H286 0.929 . S
C281 C261 1.449 . S
C281 C280 1.399 . S
C281 H287 0.930 . S
H282 C262 0.931 . S
H283 C263 0.930 . S
H284 C271 0.931 . S
H285 C272 0.929 . S
H286 C280 0.929 . S
H287 C281 0.930 . S
Mn288 O293 2.095 . S
Mn288 O303 2.162 . S
Mn288 O304 2.297 . S
Mn288 O312 2.385 . S
Mn288 O313 2.209 . S
Mn288 O314 2.094 . S
Mn289 O294 2.121 . S
Mn289 N296 2.257 . S
Mn289 N305 2.282 . S
Mn289 O313 2.215 . S
Mn289 O315 2.117 . S
C290 O312 1.234 . S
C290 O313 1.283 . S
C291 O303 1.281 . S
C291 O304 1.236 . S
C292 O314 1.240 . S
C292 O315 1.264 . S
O293 Mn288 2.095 . S
O293 C302 1.250 . S
O294 Mn289 2.121 . S
O294 C302 1.258 . S
C295 N296 1.326 . S
C295 C299 1.460 . S
C295 H301 0.929 . S
N296 Mn289 2.257 . S
N296 C295 1.326 . S
N296 C300 1.362 . S
C297 C298 1.258 . S
C297 C300 1.431 1_565 S
C297 C317 1.449 . S
C298 C297 1.258 . S
C298 C299 1.477 1_565 S
C298 H318 0.931 . S
C299 C295 1.460 . S
C299 C298 1.477 1_545 S
C299 H319 0.930 . S
C300 N296 1.362 . S
C300 C297 1.431 1_545 S
C300 C310 1.476 1_545 S
H301 C295 0.929 . S
C302 O293 1.250 . S
C302 O294 1.258 . S
O303 Mn288 2.162 . S
O303 C291 1.281 . S
O304 Mn288 2.297 . S
O304 C291 1.236 . S
N305 Mn289 2.282 . S
N305 C306 1.328 1_545 S
N305 C310 1.318 1_545 S
C306 N305 1.328 1_565 S
C306 C307 1.457 . S
C306 H311 0.929 1_565 S
C307 C306 1.457 . S
C307 C308 1.291 . S
C307 H320 0.931 . S
C308 C307 1.291 . S
C308 C309 1.373 . S
C308 H321 0.929 . S
C309 C308 1.373 . S
C309 C310 1.396 . S
C309 C316 1.403 . S
C310 C300 1.476 1_565 S
C310 N305 1.318 1_565 S
C310 C309 1.396 . S
H311 C306 0.929 1_545 S
O312 Mn288 2.385 . S
O312 C290 1.234 . S
O313 Mn288 2.209 . S
O313 Mn289 2.215 . S
O313 C290 1.283 . S
O314 Mn288 2.094 . S
O314 C292 1.240 . S
O315 Mn289 2.117 . S
O315 C292 1.264 . S
C316 C309 1.403 . S
C316 C317 1.399 . S
C316 H322 0.929 . S
C317 C297 1.449 . S
C317 C316 1.399 . S
C317 H323 0.930 . S
H318 C298 0.931 . S
H319 C299 0.930 . S
H320 C307 0.931 . S
H321 C308 0.929 . S
H322 C316 0.929 . S
H323 C317 0.930 . S
Mn324 O329 2.095 . S
Mn324 O339 2.162 . S
Mn324 O340 2.297 . S
Mn324 O348 2.385 . S
Mn324 O349 2.209 . S
Mn324 O350 2.094 . S
Mn325 O330 2.121 . S
Mn325 N332 2.257 . S
Mn325 N341 2.282 . S
Mn325 O349 2.215 . S
Mn325 O351 2.117 . S
C326 O348 1.234 . S
C326 O349 1.283 . S
C327 O339 1.281 . S
C327 O340 1.236 . S
C328 O350 1.234 1_554 S
C328 O351 1.254 1_554 S
O329 Mn324 2.095 . S
O329 C338 1.250 . S
O330 Mn325 2.121 . S
O330 C338 1.258 . S
C331 N332 1.326 . S
C331 C335 1.460 . S
C331 H337 0.929 . S
N332 Mn325 2.257 . S
N332 C331 1.326 . S
N332 C336 1.362 . S
C333 C334 1.258 . S
C333 C336 1.431 . S
C333 C353 1.449 . S
C334 C333 1.258 . S
C334 C335 1.477 . S
C334 H354 0.931 . S
C335 C331 1.460 . S
C335 C334 1.477 . S
C335 H355 0.930 . S
C336 N332 1.362 . S
C336 C333 1.431 . S
C336 C346 1.476 . S
H337 C331 0.929 . S
C338 O329 1.250 . S
C338 O330 1.258 . S
O339 Mn324 2.162 . S
O339 C327 1.281 . S
O340 Mn324 2.297 . S
O340 C327 1.236 . S
N341 Mn325 2.282 . S
N341 C342 1.328 . S
N341 C346 1.318 . S
C342 N341 1.328 . S
C342 C343 1.457 . S
C342 H347 0.929 . S
C343 C342 1.457 . S
C343 C344 1.291 . S
C343 H356 0.931 . S
C344 C343 1.291 . S
C344 C345 1.373 . S
C344 H357 0.929 . S
C345 C344 1.373 . S
C345 C346 1.396 . S
C345 C352 1.403 . S
C346 C336 1.476 . S
C346 N341 1.318 . S
C346 C345 1.396 . S
H347 C342 0.929 . S
O348 Mn324 2.385 . S
O348 C326 1.234 . S
O349 Mn324 2.209 . S
O349 Mn325 2.215 . S
O349 C326 1.283 . S
O350 Mn324 2.094 . S
O350 C328 1.234 1_556 S
O351 Mn325 2.117 . S
O351 C328 1.254 1_556 S
C352 C345 1.403 . S
C352 C353 1.399 . S
C352 H358 0.929 . S
C353 C333 1.449 . S
C353 C352 1.399 . S
C353 H359 0.930 . S
H354 C334 0.931 . S
H355 C335 0.930 . S
H356 C343 0.931 . S
H357 C344 0.929 . S
H358 C352 0.929 . S
H359 C353 0.930 . S
Mn360 O365 2.095 . S
Mn360 O375 2.162 . S
Mn360 O376 2.291 1_554 S
Mn360 O384 2.385 . S
Mn360 O385 2.209 . S
Mn360 O386 2.094 . S
Mn361 O366 2.121 . S
Mn361 N368 2.257 1_554 S
Mn361 N377 2.282 . S
Mn361 O385 2.215 . S
Mn361 O387 2.117 . S
C362 O384 1.234 1_556 S
C362 O385 1.283 1_556 S
C363 O375 1.281 . S
C363 O376 1.232 1_554 S
C364 O386 1.240 . S
C364 O387 1.264 . S
O365 Mn360 2.095 . S
O365 C374 1.250 . S
O366 Mn361 2.121 . S
O366 C374 1.258 . S
C367 N368 1.326 . S
C367 C371 1.460 . S
C367 H373 0.929 . S
N368 Mn361 2.257 1_556 S
N368 C367 1.326 . S
N368 C372 1.362 . S
C369 C370 1.258 . S
C369 C372 1.431 1_455 S
C369 C389 1.449 . S
C370 C369 1.258 . S
C370 C371 1.477 1_455 S
C370 H390 0.931 . S
C371 C367 1.460 . S
C371 C370 1.477 1_655 S
C371 H391 0.930 . S
C372 N368 1.362 . S
C372 C369 1.431 1_655 S
C372 C382 1.480 1_655 S
H373 C367 0.929 . S
C374 O365 1.250 . S
C374 O366 1.258 . S
O375 Mn360 2.162 . S
O375 C363 1.281 . S
O376 Mn360 2.291 1_556 S
O376 C363 1.232 1_556 S
N377 Mn361 2.282 . S
N377 C378 1.328 1_655 S
N377 C382 1.310 1_654 S
C378 N377 1.328 1_455 S
C378 C379 1.457 . S
C378 H383 0.929 1_455 S
C379 C378 1.457 . S
C379 C380 1.291 . S
C379 H392 0.931 . S
C380 C379 1.291 . S
C380 C381 1.373 1_554 S
C380 H393 0.929 1_554 S
C381 C380 1.373 1_556 S
C381 C382 1.399 . S
C381 C388 1.403 . S
C382 C372 1.480 1_455 S
C382 N377 1.310 1_456 S
C382 C381 1.399 . S
H383 C378 0.929 1_655 S
O384 Mn360 2.385 . S
O384 C362 1.234 1_554 S
O385 Mn360 2.209 . S
O385 Mn361 2.215 . S
O385 C362 1.283 1_554 S
O386 Mn360 2.094 . S
O386 C364 1.240 . S
O387 Mn361 2.117 . S
O387 C364 1.264 . S
C388 C381 1.403 . S
C388 C389 1.399 . S
C388 H394 0.929 . S
C389 C369 1.449 . S
C389 C388 1.399 . S
C389 H395 0.930 . S
H390 C370 0.931 . S
H391 C371 0.930 . S
H392 C379 0.931 . S
H393 C380 0.929 1_556 S
H394 C388 0.929 . S
H395 C389 0.930 . S
Mn396 O401 2.095 . S
Mn396 O411 2.162 . S
Mn396 O412 2.297 . S
Mn396 O420 2.385 . S
Mn396 O421 2.209 . S
Mn396 O422 2.094 . S
Mn397 O402 2.121 . S
Mn397 N404 2.257 . S
Mn397 N413 2.282 . S
Mn397 O421 2.215 . S
Mn397 O423 2.117 . S
C398 O420 1.234 . S
C398 O421 1.283 . S
C399 O411 1.281 . S
C399 O412 1.236 . S
C400 O422 1.240 . S
C400 O423 1.264 . S
O401 Mn396 2.095 . S
O401 C410 1.250 . S
O402 Mn397 2.121 . S
O402 C410 1.258 . S
C403 N404 1.326 . S
C403 C407 1.460 . S
C403 H409 0.929 . S
N404 Mn397 2.257 . S
N404 C403 1.326 . S
N404 C408 1.362 . S
C405 C406 1.258 . S
C405 C408 1.431 1_545 S
C405 C425 1.449 . S
C406 C405 1.258 . S
C406 C407 1.477 1_545 S
C406 H426 0.931 . S
C407 C403 1.460 . S
C407 C406 1.477 1_565 S
C407 H427 0.930 . S
C408 N404 1.362 . S
C408 C405 1.431 1_565 S
C408 C418 1.476 1_565 S
H409 C403 0.929 . S
C410 O401 1.250 . S
C410 O402 1.258 . S
O411 Mn396 2.162 . S
O411 C399 1.281 . S
O412 Mn396 2.297 . S
O412 C399 1.236 . S
N413 Mn397 2.282 . S
N413 C414 1.328 1_565 S
N413 C418 1.318 1_565 S
C414 N413 1.328 1_545 S
C414 C415 1.457 . S
C414 H419 0.929 1_545 S
C415 C414 1.457 . S
C415 C416 1.291 . S
C415 H428 0.931 . S
C416 C415 1.291 . S
C416 C417 1.373 . S
C416 H429 0.929 . S
C417 C416 1.373 . S
C417 C418 1.396 . S
C417 C424 1.403 . S
C418 C408 1.476 1_545 S
C418 N413 1.318 1_545 S
C418 C417 1.396 . S
H419 C414 0.929 1_565 S
O420 Mn396 2.385 . S
O420 C398 1.234 . S
O421 Mn396 2.209 . S
O421 Mn397 2.215 . S
O421 C398 1.283 . S
O422 Mn396 2.094 . S
O422 C400 1.240 . S
O423 Mn397 2.117 . S
O423 C400 1.264 . S
C424 C417 1.403 . S
C424 C425 1.399 . S
C424 H430 0.929 . S
C425 C405 1.449 . S
C425 C424 1.399 . S
C425 H431 0.930 . S
H426 C406 0.931 . S
H427 C407 0.930 . S
H428 C415 0.931 . S
H429 C416 0.929 . S
H430 C424 0.929 . S
H431 C425 0.930 . S
H432 C444 0.930 . S
H433 C446 0.930 . S
H434 C447 0.930 . S
H435 C451 0.959 . S
H436 C451 0.959 . S
H437 C451 0.961 . S
H438 C452 0.960 . S
H439 C452 0.961 . S
H440 C452 0.959 . S
H441 C455 0.929 . S
H442 C456 0.931 . S
H443 C458 0.930 . S
C444 H432 0.930 . S
C444 C445 1.399 . S
C444 C449 1.399 . S
C445 C444 1.399 . S
C445 C446 1.376 . S
C446 H433 0.930 . S
C446 C445 1.376 . S
C446 C447 1.388 . S
C447 H434 0.930 . S
C447 C446 1.388 . S
C447 C448 1.390 . S
C448 C447 1.390 . S
C448 C449 1.394 . S
C448 C454 1.465 . S
C449 C444 1.399 . S
C449 C448 1.394 . S
C449 C450 1.516 . S
C450 C449 1.516 . S
C450 C451 1.502 . S
C450 C452 1.561 . S
C450 C453 1.526 . S
C451 H435 0.959 . S
C451 H436 0.959 . S
C451 H437 0.961 . S
C451 C450 1.502 . S
C452 H438 0.960 . S
C452 H439 0.961 . S
C452 H440 0.959 . S
C452 C450 1.561 . S
C453 C450 1.526 . S
C453 C454 1.396 . S
C453 C458 1.390 . S
C454 C448 1.465 . S
C454 C453 1.396 . S
C454 C455 1.399 . S
C455 H441 0.929 . S
C455 C454 1.399 . S
C455 C456 1.385 . S
C456 H442 0.931 . S
C456 C455 1.385 . S
C456 C457 1.389 . S
C457 C456 1.389 . S
C457 C458 1.387 . S
C458 H443 0.930 . S
C458 C453 1.390 . S
C458 C457 1.387 . S
H459 C471 0.930 . S
H460 C473 0.930 . S
H461 C474 0.930 . S
H462 C478 0.959 1_455 S
H463 C478 0.959 . S
H464 C478 0.961 1_455 S
H465 C479 0.960 . S
H466 C479 0.961 . S
H467 C479 0.959 . S
H468 C482 0.929 . S
H469 C483 0.931 . S
H470 C485 0.930 . S
C471 H459 0.930 . S
C471 C472 1.399 . S
C471 C476 1.399 . S
C472 C471 1.399 . S
C472 C473 1.376 . S
C473 H460 0.930 . S
C473 C472 1.376 . S
C473 C474 1.388 . S
C474 H461 0.930 . S
C474 C473 1.388 . S
C474 C475 1.390 . S
C475 C474 1.390 . S
C475 C476 1.394 . S
C475 C481 1.465 1_455 S
C476 C471 1.399 . S
C476 C475 1.394 . S
C476 C477 1.516 1_455 S
C477 C476 1.516 1_655 S
C477 C478 1.502 . S
C477 C479 1.561 . S
C477 C480 1.526 . S
C478 H462 0.959 1_655 S
C478 H463 0.959 . S
C478 H464 0.961 1_655 S
C478 C477 1.502 . S
C479 H465 0.960 . S
C479 H466 0.961 . S
C479 H467 0.959 . S
C479 C477 1.561 . S
C480 C477 1.526 . S
C480 C481 1.396 . S
C480 C485 1.390 . S
C481 C475 1.465 1_655 S
C481 C480 1.396 . S
C481 C482 1.399 . S
C482 H468 0.929 . S
C482 C481 1.399 . S
C482 C483 1.385 . S
C483 H469 0.931 . S
C483 C482 1.385 . S
C483 C484 1.389 . S
C484 C483 1.389 . S
C484 C485 1.387 . S
C485 H470 0.930 . S
C485 C480 1.390 . S
C485 C484 1.387 . S
H486 C498 0.930 . S
H487 C500 0.930 . S
H488 C501 0.930 . S
H489 C505 0.959 . S
H490 C505 0.959 . S
H491 C505 0.961 . S
H492 C506 0.960 . S
H493 C506 0.961 . S
H494 C506 0.959 . S
H495 C509 0.929 1_565 S
H496 C510 0.931 . S
H497 C512 0.930 . S
C498 H486 0.930 . S
C498 C499 1.399 . S
C498 C503 1.399 . S
C499 C498 1.399 . S
C499 C500 1.376 . S
C500 H487 0.930 . S
C500 C499 1.376 . S
C500 C501 1.388 . S
C501 H488 0.930 . S
C501 C500 1.388 . S
C501 C502 1.390 . S
C502 C501 1.390 . S
C502 C503 1.394 . S
C502 C508 1.465 1_565 S
C503 C498 1.399 . S
C503 C502 1.394 . S
C503 C504 1.516 1_565 S
C504 C503 1.516 1_545 S
C504 C505 1.502 . S
C504 C506 1.561 . S
C504 C507 1.526 . S
C505 H489 0.959 . S
C505 H490 0.959 . S
C505 H491 0.961 . S
C505 C504 1.502 . S
C506 H492 0.960 . S
C506 H493 0.961 . S
C506 H494 0.959 . S
C506 C504 1.561 . S
C507 C504 1.526 . S
C507 C508 1.396 . S
C507 C512 1.390 . S
C508 C502 1.465 1_545 S
C508 C507 1.396 . S
C508 C509 1.399 . S
C509 H495 0.929 1_545 S
C509 C508 1.399 . S
C509 C510 1.385 . S
C510 H496 0.931 . S
C510 C509 1.385 . S
C510 C511 1.389 . S
C511 C510 1.389 . S
C511 C512 1.387 . S
C512 H497 0.930 . S
C512 C507 1.390 . S
C512 C511 1.387 . S
H513 C525 0.930 . S
H514 C527 0.930 . S
H515 C528 0.930 . S
H516 C532 0.959 . S
H517 C532 0.959 . S
H518 C532 0.961 . S
H519 C533 0.960 . S
H520 C533 0.961 . S
H521 C533 0.959 . S
H522 C536 0.929 . S
H523 C537 0.931 . S
H524 C539 0.930 . S
C525 H513 0.930 . S
C525 C526 1.399 . S
C525 C530 1.399 . S
C526 C525 1.399 . S
C526 C527 1.376 . S
C527 H514 0.930 . S
C527 C526 1.376 . S
C527 C528 1.388 . S
C528 H515 0.930 . S
C528 C527 1.388 . S
C528 C529 1.390 . S
C529 C528 1.390 . S
C529 C530 1.394 . S
C529 C535 1.465 . S
C530 C525 1.399 . S
C530 C529 1.394 . S
C530 C531 1.516 . S
C531 C530 1.516 . S
C531 C532 1.502 . S
C531 C533 1.561 . S
C531 C534 1.526 . S
C532 H516 0.959 . S
C532 H517 0.959 . S
C532 H518 0.961 . S
C532 C531 1.502 . S
C533 H519 0.960 . S
C533 H520 0.961 . S
C533 H521 0.959 . S
C533 C531 1.561 . S
C534 C531 1.526 . S
C534 C535 1.396 . S
C534 C539 1.390 . S
C535 C529 1.465 . S
C535 C534 1.396 . S
C535 C536 1.399 . S
C536 H522 0.929 . S
C536 C535 1.399 . S
C536 C537 1.385 . S
C537 H523 0.931 . S
C537 C536 1.385 . S
C537 C538 1.389 . S
C538 C537 1.389 . S
C538 C539 1.387 . S
C539 H524 0.930 . S
C539 C534 1.390 . S
C539 C538 1.387 . S
H540 C552 0.930 . S
H541 C554 0.930 . S
H542 C555 0.930 . S
H543 C559 0.959 . S
H544 C559 0.959 . S
H545 C559 0.961 . S
H546 C560 0.960 . S
H547 C560 0.961 . S
H548 C560 0.959 . S
H549 C563 0.929 . S
H550 C564 0.931 . S
H551 C566 0.930 . S
C552 H540 0.930 . S
C552 C553 1.399 . S
C552 C557 1.399 . S
C553 C552 1.399 . S
C553 C554 1.376 . S
C554 H541 0.930 . S
C554 C553 1.376 . S
C554 C555 1.388 1_455 S
C555 H542 0.930 . S
C555 C554 1.388 1_655 S
C555 C556 1.390 1_655 S
C556 C555 1.390 1_455 S
C556 C557 1.394 . S
C556 C562 1.465 1_455 S
C557 C552 1.399 . S
C557 C556 1.394 . S
C557 C558 1.516 . S
C558 C557 1.516 . S
C558 C559 1.502 . S
C558 C560 1.561 . S
C558 C561 1.526 1_455 S
C559 H543 0.959 . S
C559 H544 0.959 . S
C559 H545 0.961 . S
C559 C558 1.502 . S
C560 H546 0.960 . S
C560 H547 0.961 . S
C560 H548 0.959 . S
C560 C558 1.561 . S
C561 C558 1.526 1_655 S
C561 C562 1.396 . S
C561 C566 1.390 . S
C562 C556 1.465 1_655 S
C562 C561 1.396 . S
C562 C563 1.399 . S
C563 H549 0.929 . S
C563 C562 1.399 . S
C563 C564 1.385 . S
C564 H550 0.931 . S
C564 C563 1.385 . S
C564 C565 1.389 . S
C565 C564 1.389 . S
C565 C566 1.387 . S
C566 H551 0.930 . S
C566 C561 1.390 . S
C566 C565 1.387 . S
H567 C579 0.930 . S
H568 C581 0.930 . S
H569 C582 0.930 1_554 S
H570 C586 0.959 . S
H571 C586 0.959 . S
H572 C586 0.961 . S
H573 C587 0.960 . S
H574 C587 0.961 . S
H575 C587 0.959 . S
H576 C590 0.929 . S
H577 C591 0.931 . S
H578 C593 0.930 . S
C579 H567 0.930 . S
C579 C580 1.399 . S
C579 C584 1.399 . S
C580 C579 1.399 . S
C580 C581 1.376 . S
C581 H568 0.930 . S
C581 C580 1.376 . S
C581 C582 1.388 . S
C582 H569 0.930 1_556 S
C582 C581 1.388 . S
C582 C583 1.390 . S
C583 C582 1.390 . S
C583 C584 1.394 . S
C583 C589 1.488 1_556 S
C584 C579 1.399 . S
C584 C583 1.394 . S
C584 C585 1.516 1_545 S
C585 C584 1.516 1_565 S
C585 C586 1.502 . S
C585 C587 1.561 . S
C585 C588 1.526 1_556 S
C586 H570 0.959 . S
C586 H571 0.959 . S
C586 H572 0.961 . S
C586 C585 1.502 . S
C587 H573 0.960 . S
C587 H574 0.961 . S
C587 H575 0.959 . S
C587 C585 1.561 . S
C588 C585 1.526 1_554 S
C588 C589 1.365 1_565 S
C588 C593 1.390 . S
C589 C583 1.488 1_554 S
C589 C588 1.365 1_545 S
C589 C590 1.403 . S
C590 H576 0.929 . S
C590 C589 1.403 . S
C590 C591 1.385 1_545 S
C591 H577 0.931 . S
C591 C590 1.385 1_565 S
C591 C592 1.389 . S
C592 C591 1.389 . S
C592 C593 1.387 . S
C593 H578 0.930 . S
C593 C588 1.390 . S
C593 C592 1.387 . S
H594 C606 0.930 . S
H595 C608 0.930 . S
H596 C609 0.930 . S
H597 C613 0.959 . S
H598 C613 0.959 . S
H599 C613 0.961 . S
H600 C614 0.960 . S
H601 C614 0.961 . S
H602 C614 0.959 . S
H603 C617 0.929 . S
H604 C618 0.931 . S
H605 C620 0.930 . S
C606 H594 0.930 . S
C606 C607 1.399 . S
C606 C611 1.399 . S
C607 C606 1.399 . S
C607 C608 1.376 . S
C608 H595 0.930 . S
C608 C607 1.376 . S
C608 C609 1.388 . S
C609 H596 0.930 . S
C609 C608 1.388 . S
C609 C610 1.390 . S
C610 C609 1.390 . S
C610 C611 1.394 . S
C610 C616 1.465 . S
C611 C606 1.399 . S
C611 C610 1.394 . S
C611 C612 1.516 . S
C612 C611 1.516 . S
C612 C613 1.502 . S
C612 C614 1.561 . S
C612 C615 1.526 . S
C613 H597 0.959 . S
C613 H598 0.959 . S
C613 H599 0.961 . S
C613 C612 1.502 . S
C614 H600 0.960 . S
C614 H601 0.961 . S
C614 H602 0.959 . S
C614 C612 1.561 . S
C615 C612 1.526 . S
C615 C616 1.396 . S
C615 C620 1.390 . S
C616 C610 1.465 . S
C616 C615 1.396 . S
C616 C617 1.399 . S
C617 H603 0.929 . S
C617 C616 1.399 . S
C617 C618 1.385 . S
C618 H604 0.931 . S
C618 C617 1.385 . S
C618 C619 1.389 . S
C619 C618 1.389 . S
C619 C620 1.387 . S
C620 H605 0.930 . S
C620 C615 1.390 . S
C620 C619 1.387 . S
H621 C633 0.930 . S
H622 C635 0.930 . S
H623 C636 0.930 . S
H624 C640 0.959 . S
H625 C640 0.959 . S
H626 C640 0.961 . S
H627 C641 0.960 . S
H628 C641 0.961 . S
H629 C641 0.959 . S
H630 C644 0.929 . S
H631 C645 0.931 . S
H632 C647 0.930 . S
C633 H621 0.930 . S
C633 C634 1.399 . S
C633 C638 1.399 . S
C634 C633 1.399 . S
C634 C635 1.376 . S
C635 H622 0.930 . S
C635 C634 1.376 . S
C635 C636 1.388 . S
C636 H623 0.930 . S
C636 C635 1.388 . S
C636 C637 1.390 . S
C637 C636 1.390 . S
C637 C638 1.394 . S
C637 C643 1.465 . S
C638 C633 1.399 . S
C638 C637 1.394 . S
C638 C639 1.516 . S
C639 C638 1.516 . S
C639 C640 1.502 . S
C639 C641 1.561 . S
C639 C642 1.526 . S
C640 H624 0.959 . S
C640 H625 0.959 . S
C640 H626 0.961 . S
C640 C639 1.502 . S
C641 H627 0.960 . S
C641 H628 0.961 . S
C641 H629 0.959 . S
C641 C639 1.561 . S
C642 C639 1.526 . S
C642 C643 1.396 . S
C642 C647 1.390 . S
C643 C637 1.465 . S
C643 C642 1.396 . S
C643 C644 1.399 . S
C644 H630 0.929 . S
C644 C643 1.399 . S
C644 C645 1.385 . S
C645 H631 0.931 . S
C645 C644 1.385 . S
C645 C646 1.389 . S
C646 C645 1.389 . S
C646 C647 1.387 . S
C647 H632 0.930 . S
C647 C642 1.390 . S
C647 C646 1.387 . S
H648 C660 0.930 . S
H649 C662 0.930 . S
H650 C663 0.930 . S
H651 C667 0.959 . S
H652 C667 0.959 . S
H653 C667 0.961 . S
H654 C668 0.960 . S
H655 C668 0.961 . S
H656 C668 0.959 . S
H657 C671 0.929 . S
H658 C672 0.931 . S
H659 C674 0.930 . S
C660 H648 0.930 . S
C660 C661 1.399 . S
C660 C665 1.399 . S
C661 C660 1.399 . S
C661 C662 1.376 . S
C662 H649 0.930 . S
C662 C661 1.376 . S
C662 C663 1.388 . S
C663 H650 0.930 . S
C663 C662 1.388 . S
C663 C664 1.390 . S
C664 C663 1.390 . S
C664 C665 1.394 . S
C664 C670 1.465 . S
C665 C660 1.399 . S
C665 C664 1.394 . S
C665 C666 1.516 . S
C666 C665 1.516 . S
C666 C667 1.502 . S
C666 C668 1.561 . S
C666 C669 1.526 . S
C667 H651 0.959 . S
C667 H652 0.959 . S
C667 H653 0.961 . S
C667 C666 1.502 . S
C668 H654 0.960 . S
C668 H655 0.961 . S
C668 H656 0.959 . S
C668 C666 1.561 . S
C669 C666 1.526 . S
C669 C670 1.396 . S
C669 C674 1.390 . S
C670 C664 1.465 . S
C670 C669 1.396 . S
C670 C671 1.399 . S
C671 H657 0.929 . S
C671 C670 1.399 . S
C671 C672 1.385 . S
C672 H658 0.931 . S
C672 C671 1.385 . S
C672 C673 1.389 . S
C673 C672 1.389 . S
C673 C674 1.387 . S
C674 H659 0.930 . S
C674 C669 1.390 . S
C674 C673 1.387 . S
H675 C687 0.930 . S
H676 C689 0.930 . S
H677 C690 0.930 1_554 S
H678 C694 0.959 . S
H679 C694 0.959 . S
H680 C694 0.961 . S
H681 C695 0.960 . S
H682 C695 0.961 . S
H683 C695 0.959 . S
H684 C698 0.929 1_554 S
H685 C699 0.931 1_554 S
H686 C701 0.930 . S
C687 H675 0.930 . S
C687 C688 1.399 . S
C687 C692 1.399 . S
C688 C687 1.399 . S
C688 C689 1.376 . S
C689 H676 0.930 . S
C689 C688 1.376 . S
C689 C690 1.388 . S
C690 H677 0.930 1_556 S
C690 C689 1.388 . S
C690 C691 1.390 . S
C691 C690 1.390 . S
C691 C692 1.394 . S
C691 C697 1.465 . S
C692 C687 1.399 . S
C692 C691 1.394 . S
C692 C693 1.516 . S
C693 C692 1.516 . S
C693 C694 1.502 . S
C693 C695 1.561 . S
C693 C696 1.526 . S
C694 H678 0.959 . S
C694 H679 0.959 . S
C694 H680 0.961 . S
C694 C693 1.502 . S
C695 H681 0.960 . S
C695 H682 0.961 . S
C695 H683 0.959 . S
C695 C693 1.561 . S
C696 C693 1.526 . S
C696 C697 1.396 . S
C696 C701 1.390 . S
C697 C691 1.465 . S
C697 C696 1.396 . S
C697 C698 1.399 . S
C698 H684 0.929 1_556 S
C698 C697 1.399 . S
C698 C699 1.385 . S
C699 H685 0.931 1_556 S
C699 C698 1.385 . S
C699 C700 1.389 . S
C700 C699 1.389 . S
C700 C701 1.387 . S
C701 H686 0.930 . S
C701 C696 1.390 . S
C701 C700 1.387 . S
H702 C714 0.930 . S
H703 C716 0.930 . S
H704 C717 0.930 1_556 S
H705 C721 0.959 . S
H706 C721 0.959 . S
H707 C721 0.961 . S
H708 C722 0.960 . S
H709 C722 0.961 . S
H710 C722 0.959 . S
H711 C725 0.929 1_556 S
H712 C726 0.931 1_556 S
H713 C728 0.930 . S
C714 H702 0.930 . S
C714 C715 1.399 . S
C714 C719 1.399 . S
C715 C714 1.399 . S
C715 C716 1.376 . S
C716 H703 0.930 . S
C716 C715 1.376 . S
C716 C717 1.388 . S
C717 H704 0.930 1_554 S
C717 C716 1.388 . S
C717 C718 1.390 . S
C718 C717 1.390 . S
C718 C719 1.394 . S
C718 C724 1.465 . S
C719 C714 1.399 . S
C719 C718 1.394 . S
C719 C720 1.516 . S
C720 C719 1.516 . S
C720 C721 1.502 . S
C720 C722 1.561 . S
C720 C723 1.526 . S
C721 H705 0.959 . S
C721 H706 0.959 . S
C721 H707 0.961 . S
C721 C720 1.502 . S
C722 H708 0.960 . S
C722 H709 0.961 . S
C722 H710 0.959 . S
C722 C720 1.561 . S
C723 C720 1.526 . S
C723 C724 1.396 . S
C723 C728 1.390 . S
C724 C718 1.465 . S
C724 C723 1.396 . S
C724 C725 1.399 . S
C725 H711 0.929 1_554 S
C725 C724 1.399 . S
C725 C726 1.385 . S
C726 H712 0.931 1_554 S
C726 C725 1.385 . S
C726 C727 1.389 . S
C727 C726 1.389 . S
C727 C728 1.387 . S
C728 H713 0.930 . S
C728 C723 1.390 . S
C728 C727 1.387 . S
H729 C741 0.930 . S
H730 C743 0.930 . S
H731 C744 0.930 . S
H732 C748 0.959 . S
H733 C748 0.959 . S
H734 C748 0.961 . S
H735 C749 0.960 . S
H736 C749 0.961 . S
H737 C749 0.959 . S
H738 C752 0.929 . S
H739 C753 0.931 . S
H740 C755 0.930 . S
C741 H729 0.930 . S
C741 C742 1.399 . S
C741 C746 1.399 . S
C742 C741 1.399 . S
C742 C743 1.376 . S
C743 H730 0.930 . S
C743 C742 1.376 . S
C743 C744 1.388 . S
C744 H731 0.930 . S
C744 C743 1.388 . S
C744 C745 1.390 . S
C745 C744 1.390 . S
C745 C746 1.394 . S
C745 C751 1.465 . S
C746 C741 1.399 . S
C746 C745 1.394 . S
C746 C747 1.516 . S
C747 C746 1.516 . S
C747 C748 1.502 . S
C747 C749 1.561 . S
C747 C750 1.526 . S
C748 H732 0.959 . S
C748 H733 0.959 . S
C748 H734 0.961 . S
C748 C747 1.502 . S
C749 H735 0.960 . S
C749 H736 0.961 . S
C749 H737 0.959 . S
C749 C747 1.561 . S
C750 C747 1.526 . S
C750 C751 1.396 . S
C750 C755 1.390 . S
C751 C745 1.465 . S
C751 C750 1.396 . S
C751 C752 1.399 . S
C752 H738 0.929 . S
C752 C751 1.399 . S
C752 C753 1.385 . S
C753 H739 0.931 . S
C753 C752 1.385 . S
C753 C754 1.389 . S
C754 C753 1.389 . S
C754 C755 1.387 . S
C755 H740 0.930 . S
C755 C750 1.390 . S
C755 C754 1.387 . S
H756 C768 0.930 . S
H757 C770 0.930 . S
H758 C771 0.930 . S
H759 C775 0.959 . S
H760 C775 0.959 . S
H761 C775 0.961 . S
H762 C776 0.960 . S
H763 C776 0.961 . S
H764 C776 0.959 . S
H765 C779 0.929 . S
H766 C780 0.931 . S
H767 C782 0.930 . S
C768 H756 0.930 . S
C768 C769 1.399 . S
C768 C773 1.399 . S
C769 C768 1.399 . S
C769 C770 1.376 . S
C770 H757 0.930 . S
C770 C769 1.376 . S
C770 C771 1.388 . S
C771 H758 0.930 . S
C771 C770 1.388 . S
C771 C772 1.390 . S
C772 C771 1.390 . S
C772 C773 1.394 . S
C772 C778 1.465 . S
C773 C768 1.399 . S
C773 C772 1.394 . S
C773 C774 1.516 . S
C774 C773 1.516 . S
C774 C775 1.502 . S
C774 C776 1.561 . S
C774 C777 1.526 . S
C775 H759 0.959 . S
C775 H760 0.959 . S
C775 H761 0.961 . S
C775 C774 1.502 . S
C776 H762 0.960 . S
C776 H763 0.961 . S
C776 H764 0.959 . S
C776 C774 1.561 . S
C777 C774 1.526 . S
C777 C778 1.396 . S
C777 C782 1.390 . S
C778 C772 1.465 . S
C778 C777 1.396 . S
C778 C779 1.399 . S
C779 H765 0.929 . S
C779 C778 1.399 . S
C779 C780 1.385 . S
C780 H766 0.931 . S
C780 C779 1.385 . S
C780 C781 1.389 . S
C781 C780 1.389 . S
C781 C782 1.387 . S
C782 H767 0.930 . S
C782 C777 1.390 . S
C782 C781 1.387 . S
H783 C795 0.930 . S
H784 C797 0.930 . S
H785 C798 0.930 . S
H786 C802 0.959 . S
H787 C802 0.959 . S
H788 C802 0.961 . S
H789 C803 0.960 . S
H790 C803 0.961 . S
H791 C803 0.959 . S
H792 C806 0.929 . S
H793 C807 0.931 . S
H794 C809 0.930 . S
C795 H783 0.930 . S
C795 C796 1.399 . S
C795 C800 1.399 . S
C796 C795 1.399 . S
C796 C797 1.376 . S
C797 H784 0.930 . S
C797 C796 1.376 . S
C797 C798 1.388 . S
C798 H785 0.930 . S
C798 C797 1.388 . S
C798 C799 1.390 . S
C799 C798 1.390 . S
C799 C800 1.394 . S
C799 C805 1.465 . S
C800 C795 1.399 . S
C800 C799 1.394 . S
C800 C801 1.516 1_655 S
C801 C800 1.516 1_455 S
C801 C802 1.502 . S
C801 C803 1.561 . S
C801 C804 1.526 . S
C802 H786 0.959 . S
C802 H787 0.959 . S
C802 H788 0.961 . S
C802 C801 1.502 . S
C803 H789 0.960 . S
C803 H790 0.961 . S
C803 H791 0.959 . S
C803 C801 1.561 . S
C804 C801 1.526 . S
C804 C805 1.396 1_455 S
C804 C809 1.390 . S
C805 C799 1.465 . S
C805 C804 1.396 1_655 S
C805 C806 1.399 . S
C806 H792 0.929 . S
C806 C805 1.399 . S
C806 C807 1.385 1_655 S
C807 H793 0.931 . S
C807 C806 1.385 1_455 S
C807 C808 1.389 . S
C808 C807 1.389 . S
C808 C809 1.387 . S
C809 H794 0.930 . S
C809 C804 1.390 . S
C809 C808 1.387 . S
H810 C822 0.930 . S
H811 C824 0.930 . S
H812 C825 0.930 . S
H813 C829 0.959 . S
H814 C829 0.959 1_545 S
H815 C829 0.961 1_554 S
H816 C830 0.960 . S
H817 C830 0.961 . S
H818 C830 0.959 . S
H819 C833 0.929 . S
H820 C834 0.931 . S
H821 C836 0.930 . S
C822 H810 0.930 . S
C822 C823 1.399 . S
C822 C827 1.399 . S
C823 C822 1.399 . S
C823 C824 1.376 . S
C824 H811 0.930 . S
C824 C823 1.376 . S
C824 C825 1.388 . S
C825 H812 0.930 . S
C825 C824 1.388 . S
C825 C826 1.390 . S
C826 C825 1.390 . S
C826 C827 1.394 . S
C826 C832 1.465 1_564 S
C827 C822 1.399 . S
C827 C826 1.394 . S
C827 C828 1.516 1_565 S
C828 C827 1.516 1_545 S
C828 C829 1.502 1_544 S
C828 C830 1.561 . S
C828 C831 1.526 1_554 S
C829 H813 0.959 . S
C829 H814 0.959 1_565 S
C829 H815 0.961 1_556 S
C829 C828 1.502 1_566 S
C830 H816 0.960 . S
C830 H817 0.961 . S
C830 H818 0.959 . S
C830 C828 1.561 . S
C831 C828 1.526 1_556 S
C831 C832 1.396 . S
C831 C836 1.390 . S
C832 C826 1.465 1_546 S
C832 C831 1.396 . S
C832 C833 1.399 . S
C833 H819 0.929 . S
C833 C832 1.399 . S
C833 C834 1.385 . S
C834 H820 0.931 . S
C834 C833 1.385 . S
C834 C835 1.389 . S
C835 C834 1.389 . S
C835 C836 1.387 . S
C836 H821 0.930 . S
C836 C831 1.390 . S
C836 C835 1.387 . S
H837 C849 0.930 . S
H838 C851 0.930 . S
H839 C852 0.930 . S
H840 C856 0.959 . S
H841 C856 0.959 . S
H842 C856 0.961 . S
H843 C857 0.960 . S
H844 C857 0.961 . S
H845 C857 0.959 . S
H846 C860 0.929 . S
H847 C861 0.931 . S
H848 C863 0.930 . S
C849 H837 0.930 . S
C849 C850 1.399 . S
C849 C854 1.399 . S
C850 C849 1.399 . S
C850 C851 1.376 . S
C851 H838 0.930 . S
C851 C850 1.376 . S
C851 C852 1.388 . S
C852 H839 0.930 . S
C852 C851 1.388 . S
C852 C853 1.390 . S
C853 C852 1.390 . S
C853 C854 1.394 . S
C853 C859 1.465 . S
C854 C849 1.399 . S
C854 C853 1.394 . S
C854 C855 1.516 . S
C855 C854 1.516 . S
C855 C856 1.502 . S
C855 C857 1.561 . S
C855 C858 1.526 . S
C856 H840 0.959 . S
C856 H841 0.959 . S
C856 H842 0.961 . S
C856 C855 1.502 . S
C857 H843 0.960 . S
C857 H844 0.961 . S
C857 H845 0.959 . S
C857 C855 1.561 . S
C858 C855 1.526 . S
C858 C859 1.396 . S
C858 C863 1.390 . S
C859 C853 1.465 . S
C859 C858 1.396 . S
C859 C860 1.399 . S
C860 H846 0.929 . S
C860 C859 1.399 . S
C860 C861 1.385 . S
C861 H847 0.931 . S
C861 C860 1.385 . S
C861 C862 1.389 . S
C862 C861 1.389 . S
C862 C863 1.387 . S
C863 H848 0.930 . S
C863 C858 1.390 . S
C863 C862 1.387 . S
H864 C876 0.930 . S
H865 C878 0.930 . S
H866 C879 0.930 . S
H867 C883 0.959 . S
H868 C883 0.959 . S
H869 C883 0.961 1_455 S
H870 C884 0.960 . S
H871 C884 0.961 . S
H872 C884 0.959 . S
H873 C887 0.929 . S
H874 C888 0.931 . S
H875 C890 0.930 . S
C876 H864 0.930 . S
C876 C877 1.399 . S
C876 C881 1.399 . S
C877 C876 1.399 . S
C877 C878 1.376 . S
C878 H865 0.930 . S
C878 C877 1.376 . S
C878 C879 1.388 . S
C879 H866 0.930 . S
C879 C878 1.388 . S
C879 C880 1.390 . S
C880 C879 1.390 . S
C880 C881 1.394 . S
C880 C886 1.465 1_455 S
C881 C876 1.399 . S
C881 C880 1.394 . S
C881 C882 1.516 . S
C882 C881 1.516 . S
C882 C883 1.502 1_455 S
C882 C884 1.561 . S
C882 C885 1.526 1_455 S
C883 H867 0.959 . S
C883 H868 0.959 . S
C883 H869 0.961 1_655 S
C883 C882 1.502 1_655 S
C884 H870 0.960 . S
C884 H871 0.961 . S
C884 H872 0.959 . S
C884 C882 1.561 . S
C885 C882 1.526 1_655 S
C885 C886 1.396 . S
C885 C890 1.390 . S
C886 C880 1.465 1_655 S
C886 C885 1.396 . S
C886 C887 1.399 . S
C887 H873 0.929 . S
C887 C886 1.399 . S
C887 C888 1.385 . S
C888 H874 0.931 . S
C888 C887 1.385 . S
C888 C889 1.389 . S
C889 C888 1.389 . S
C889 C890 1.387 . S
C890 H875 0.930 . S
C890 C885 1.390 . S
C890 C889 1.387 . S
H891 C903 0.930 . S
H892 C905 0.930 . S
H893 C906 0.930 . S
H894 C910 0.959 . S
H895 C910 0.959 . S
H896 C910 0.961 . S
H897 C911 0.960 . S
H898 C911 0.961 . S
H899 C911 0.959 . S
H900 C914 0.929 . S
H901 C915 0.931 . S
H902 C917 0.930 . S
C903 H891 0.930 . S
C903 C904 1.399 . S
C903 C908 1.399 . S
C904 C903 1.399 . S
C904 C905 1.376 . S
C905 H892 0.930 . S
C905 C904 1.376 . S
C905 C906 1.388 . S
C906 H893 0.930 . S
C906 C905 1.388 . S
C906 C907 1.390 . S
C907 C906 1.390 . S
C907 C908 1.394 . S
C907 C913 1.465 . S
C908 C903 1.399 . S
C908 C907 1.394 . S
C908 C909 1.516 1_565 S
C909 C908 1.516 1_545 S
C909 C910 1.502 . S
C909 C911 1.561 . S
C909 C912 1.526 . S
C910 H894 0.959 . S
C910 H895 0.959 . S
C910 H896 0.961 . S
C910 C909 1.502 . S
C911 H897 0.960 . S
C911 H898 0.961 . S
C911 H899 0.959 . S
C911 C909 1.561 . S
C912 C909 1.526 . S
C912 C913 1.396 1_545 S
C912 C917 1.390 . S
C913 C907 1.465 . S
C913 C912 1.396 1_565 S
C913 C914 1.399 . S
C914 H900 0.929 . S
C914 C913 1.399 . S
C914 C915 1.385 1_565 S
C915 H901 0.931 . S
C915 C914 1.385 1_545 S
C915 C916 1.389 . S
C916 C915 1.389 . S
C916 C917 1.387 . S
C917 H902 0.930 . S
C917 C912 1.390 . S
C917 C916 1.387 . S
H918 C930 0.930 . S
H919 C932 0.930 . S
H920 C933 0.930 . S
H921 C937 0.959 . S
H922 C937 0.959 . S
H923 C937 0.961 . S
H924 C938 0.960 . S
H925 C938 0.961 . S
H926 C938 0.959 . S
H927 C941 0.929 . S
H928 C942 0.931 . S
H929 C944 0.930 . S
C930 H918 0.930 . S
C930 C931 1.399 . S
C930 C935 1.399 . S
C931 C930 1.399 . S
C931 C932 1.376 . S
C932 H919 0.930 . S
C932 C931 1.376 . S
C932 C933 1.388 . S
C933 H920 0.930 . S
C933 C932 1.388 . S
C933 C934 1.390 . S
C934 C933 1.390 . S
C934 C935 1.394 . S
C934 C940 1.465 . S
C935 C930 1.399 . S
C935 C934 1.394 . S
C935 C936 1.516 . S
C936 C935 1.516 . S
C936 C937 1.502 . S
C936 C938 1.561 . S
C936 C939 1.526 . S
C937 H921 0.959 . S
C937 H922 0.959 . S
C937 H923 0.961 . S
C937 C936 1.502 . S
C938 H924 0.960 . S
C938 H925 0.961 . S
C938 H926 0.959 . S
C938 C936 1.561 . S
C939 C936 1.526 . S
C939 C940 1.396 . S
C939 C944 1.390 . S
C940 C934 1.465 . S
C940 C939 1.396 . S
C940 C941 1.399 . S
C941 H927 0.929 . S
C941 C940 1.399 . S
C941 C942 1.385 . S
C942 H928 0.931 . S
C942 C941 1.385 . S
C942 C943 1.389 . S
C943 C942 1.389 . S
C943 C944 1.387 . S
C944 H929 0.930 . S
C944 C939 1.390 . S
C944 C943 1.387 . S
H945 C957 0.930 . S
H946 C959 0.930 . S
H947 C960 0.930 . S
H948 C964 0.959 . S
H949 C964 0.959 . S
H950 C964 0.961 . S
H951 C965 0.960 . S
H952 C965 0.961 . S
H953 C965 0.959 . S
H954 C968 0.929 . S
H955 C969 0.931 . S
H956 C971 0.930 . S
C957 H945 0.930 . S
C957 C958 1.399 . S
C957 C962 1.399 . S
C958 C957 1.399 . S
C958 C959 1.376 . S
C959 H946 0.930 . S
C959 C958 1.376 . S
C959 C960 1.388 . S
C960 H947 0.930 . S
C960 C959 1.388 . S
C960 C961 1.390 . S
C961 C960 1.390 . S
C961 C962 1.394 . S
C961 C967 1.465 . S
C962 C957 1.399 . S
C962 C961 1.394 . S
C962 C963 1.516 . S
C963 C962 1.516 . S
C963 C964 1.502 . S
C963 C965 1.561 . S
C963 C966 1.526 . S
C964 H948 0.959 . S
C964 H949 0.959 . S
C964 H950 0.961 . S
C964 C963 1.502 . S
C965 H951 0.960 . S
C965 H952 0.961 . S
C965 H953 0.959 . S
C965 C963 1.561 . S
C966 C963 1.526 . S
C966 C967 1.396 . S
C966 C971 1.390 . S
C967 C961 1.465 . S
C967 C966 1.396 . S
C967 C968 1.399 . S
C968 H954 0.929 . S
C968 C967 1.399 . S
C968 C969 1.385 . S
C969 H955 0.931 . S
C969 C968 1.385 . S
C969 C970 1.389 . S
C970 C969 1.389 . S
C970 C971 1.387 . S
C971 H956 0.930 . S
C971 C966 1.390 . S
C971 C970 1.387 . S
H972 C984 0.930 . S
H973 C986 0.930 . S
H974 C987 0.930 . S
H975 C991 0.959 . S
H976 C991 0.959 . S
H977 C991 0.961 1_554 S
H978 C992 0.960 . S
H979 C992 0.961 . S
H980 C992 0.959 1_556 S
H981 C995 0.929 . S
H982 C996 0.931 . S
H983 C998 0.930 . S
C984 H972 0.930 . S
C984 C985 1.399 1_554 S
C984 C989 1.399 1_554 S
C985 C984 1.399 1_556 S
C985 C986 1.376 . S
C986 H973 0.930 . S
C986 C985 1.376 . S
C986 C987 1.388 . S
C987 H974 0.930 . S
C987 C986 1.388 . S
C987 C988 1.390 . S
C988 C987 1.390 . S
C988 C989 1.394 . S
C988 C994 1.465 . S
C989 C984 1.399 1_556 S
C989 C988 1.394 . S
C989 C990 1.516 . S
C990 C989 1.516 . S
C990 C991 1.502 . S
C990 C992 1.561 1_556 S
C990 C993 1.526 . S
C991 H975 0.959 . S
C991 H976 0.959 . S
C991 H977 0.961 1_556 S
C991 C990 1.502 . S
C992 H978 0.960 . S
C992 H979 0.961 . S
C992 H980 0.959 1_554 S
C992 C990 1.561 1_554 S
C993 C990 1.526 . S
C993 C994 1.396 . S
C993 C998 1.390 . S
C994 C988 1.465 . S
C994 C993 1.396 . S
C994 C995 1.399 . S
C995 H981 0.929 . S
C995 C994 1.399 . S
C995 C996 1.385 . S
C996 H982 0.931 . S
C996 C995 1.385 . S
C996 C997 1.389 . S
C997 C996 1.389 . S
C997 C998 1.387 . S
C998 H983 0.930 . S
C998 C993 1.390 . S
C998 C997 1.387 . S
H999 C1011 0.930 . S
H1000 C1013 0.930 . S
H1001 C1014 0.930 . S
H1002 C1018 0.959 . S
H1003 C1018 0.959 . S
H1004 C1018 0.961 . S
H1005 C1019 0.960 . S
H1006 C1019 0.961 . S
H1007 C1019 0.959 . S
H1008 C1022 0.929 . S
H1009 C1023 0.931 . S
H1010 C1025 0.930 . S
C1011 H999 0.930 . S
C1011 C1012 1.399 . S
C1011 C1016 1.399 . S
C1012 C1011 1.399 . S
C1012 C1013 1.376 . S
C1013 H1000 0.930 . S
C1013 C1012 1.376 . S
C1013 C1014 1.388 . S
C1014 H1001 0.930 . S
C1014 C1013 1.388 . S
C1014 C1015 1.390 . S
C1015 C1014 1.390 . S
C1015 C1016 1.394 . S
C1015 C1021 1.465 . S
C1016 C1011 1.399 . S
C1016 C1015 1.394 . S
C1016 C1017 1.516 . S
C1017 C1016 1.516 . S
C1017 C1018 1.502 1_554 S
C1017 C1019 1.561 . S
C1017 C1020 1.526 . S
C1018 H1002 0.959 . S
C1018 H1003 0.959 . S
C1018 H1004 0.961 . S
C1018 C1017 1.502 1_556 S
C1019 H1005 0.960 . S
C1019 H1006 0.961 . S
C1019 H1007 0.959 . S
C1019 C1017 1.561 . S
C1020 C1017 1.526 . S
C1020 C1021 1.396 . S
C1020 C1025 1.390 1_554 S
C1021 C1015 1.465 . S
C1021 C1020 1.396 . S
C1021 C1022 1.399 . S
C1022 H1008 0.929 . S
C1022 C1021 1.399 . S
C1022 C1023 1.385 . S
C1023 H1009 0.931 . S
C1023 C1022 1.385 . S
C1023 C1024 1.389 . S
C1024 C1023 1.389 . S
C1024 C1025 1.387 1_554 S
C1025 H1010 0.930 . S
C1025 C1020 1.390 1_556 S
C1025 C1024 1.387 1_556 S
H1026 C1038 0.930 . S
H1027 C1040 0.930 . S
H1028 C1041 0.930 . S
H1029 C1045 0.959 . S
H1030 C1045 0.959 . S
H1031 C1045 0.961 . S
H1032 C1046 0.960 . S
H1033 C1046 0.961 . S
H1034 C1046 0.959 . S
H1035 C1049 0.929 . S
H1036 C1050 0.931 . S
H1037 C1052 0.930 . S
C1038 H1026 0.930 . S
C1038 C1039 1.399 . S
C1038 C1043 1.399 . S
C1039 C1038 1.399 . S
C1039 C1040 1.376 . S
C1040 H1027 0.930 . S
C1040 C1039 1.376 . S
C1040 C1041 1.388 . S
C1041 H1028 0.930 . S
C1041 C1040 1.388 . S
C1041 C1042 1.390 . S
C1042 C1041 1.390 . S
C1042 C1043 1.394 . S
C1042 C1048 1.465 . S
C1043 C1038 1.399 . S
C1043 C1042 1.394 . S
C1043 C1044 1.516 . S
C1044 C1043 1.516 . S
C1044 C1045 1.502 . S
C1044 C1046 1.561 . S
C1044 C1047 1.526 . S
C1045 H1029 0.959 . S
C1045 H1030 0.959 . S
C1045 H1031 0.961 . S
C1045 C1044 1.502 . S
C1046 H1032 0.960 . S
C1046 H1033 0.961 . S
C1046 H1034 0.959 . S
C1046 C1044 1.561 . S
C1047 C1044 1.526 . S
C1047 C1048 1.396 . S
C1047 C1052 1.390 . S
C1048 C1042 1.465 . S
C1048 C1047 1.396 . S
C1048 C1049 1.399 . S
C1049 H1035 0.929 . S
C1049 C1048 1.399 . S
C1049 C1050 1.385 . S
C1050 H1036 0.931 . S
C1050 C1049 1.385 . S
C1050 C1051 1.389 . S
C1051 C1050 1.389 . S
C1051 C1052 1.387 . S
C1052 H1037 0.930 . S
C1052 C1047 1.390 . S
C1052 C1051 1.387 . S
H1053 C1065 0.930 . S
H1054 C1067 0.930 . S
H1055 C1068 0.930 . S
H1056 C1072 0.959 . S
H1057 C1072 0.959 . S
H1058 C1072 0.961 . S
H1059 C1073 0.960 . S
H1060 C1073 0.961 . S
H1061 C1073 0.959 . S
H1062 C1076 0.929 . S
H1063 C1077 0.931 . S
H1064 C1079 0.930 . S
C1065 H1053 0.930 . S
C1065 C1066 1.399 . S
C1065 C1070 1.399 . S
C1066 C1065 1.399 . S
C1066 C1067 1.376 . S
C1067 H1054 0.930 . S
C1067 C1066 1.376 . S
C1067 C1068 1.388 . S
C1068 H1055 0.930 . S
C1068 C1067 1.388 . S
C1068 C1069 1.390 . S
C1069 C1068 1.390 . S
C1069 C1070 1.394 . S
C1069 C1075 1.465 . S
C1070 C1065 1.399 . S
C1070 C1069 1.394 . S
C1070 C1071 1.516 . S
C1071 C1070 1.516 . S
C1071 C1072 1.502 . S
C1071 C1073 1.561 . S
C1071 C1074 1.526 . S
C1072 H1056 0.959 . S
C1072 H1057 0.959 . S
C1072 H1058 0.961 . S
C1072 C1071 1.502 . S
C1073 H1059 0.960 . S
C1073 H1060 0.961 . S
C1073 H1061 0.959 . S
C1073 C1071 1.561 . S
C1074 C1071 1.526 . S
C1074 C1075 1.396 . S
C1074 C1079 1.390 . S
C1075 C1069 1.465 . S
C1075 C1074 1.396 . S
C1075 C1076 1.399 . S
C1076 H1062 0.929 . S
C1076 C1075 1.399 . S
C1076 C1077 1.385 . S
C1077 H1063 0.931 . S
C1077 C1076 1.385 . S
C1077 C1078 1.389 . S
C1078 C1077 1.389 . S
C1078 C1079 1.387 . S
C1079 H1064 0.930 . S
C1079 C1074 1.390 . S
C1079 C1078 1.387 . S
C445 C328 1.439 . S
C457 C4 1.444 . S
C472 C40 1.432 . S
C484 C364 1.429 . S
C499 C400 1.446 . S
C511 C76 1.424 . S
C526 C220 1.423 . S
C538 C112 1.446 . S
C553 C256 1.455 . S
C565 C148 1.499 . S
C580 C292 1.462 . S
C592 C184 1.428 . S
C607 C230 1.342 . S
C619 C14 1.364 . S
C634 C50 1.354 . S
C646 C266 1.378 . S
C661 C302 1.418 . S
C673 C86 1.430 . S
C688 C122 1.334 . S
C700 C338 1.355 . S
C715 C374 1.336 . S
C727 C158 1.357 . S
C742 C194 1.330 . S
C754 C410 1.323 . S
C769 C326 1.388 . S
C781 C2 1.384 . S
C796 C362 1.389 . S
C808 C38 1.386 . S
C823 C398 1.389 . S
C835 C74 1.390 . S
C850 C110 1.388 . S
C862 C218 1.390 . S
C877 C254 1.383 . S
C889 C146 1.383 . S
C904 C182 1.390 . S
C916 C290 1.387 . S
C931 C3 1.208 . S
C943 C291 1.202 . S
C958 C327 1.208 . S
C970 C39 1.191 . S
C985 C363 1.189 1_556 S
C997 C75 1.219 . S
C1012 C399 1.220 . S
C1024 C111 1.186 1_554 S
C1039 C219 1.216 . S
C1051 C147 1.193 . S
C1066 C255 1.210 . S
C1078 C183 1.189 . S
