# Generated by pormake.
# Topology yff, (5)-cn, num edge types: 1
# Building blocks:
#     Node 0, Type 0, BuildingBlock: XOMCOT_clean_sbu_1, # of connection points: 5
#     Node 1, Type 0, BuildingBlock: XOMCOT_clean_sbu_1, # of connection points: 5
#     Node 2, Type 0, BuildingBlock: XOMCOT_clean_sbu_1, # of connection points: 5
#     Node 3, Type 0, BuildingBlock: XOMCOT_clean_sbu_1, # of connection points: 5
#     Node 4, Type 0, BuildingBlock: XOMCOT_clean_sbu_1, # of connection points: 5
#     Node 5, Type 0, BuildingBlock: XOMCOT_clean_sbu_1, # of connection points: 5
#     Node 6, Type 0, BuildingBlock: XOMCOT_clean_sbu_1, # of connection points: 5
#     Node 7, Type 0, BuildingBlock: XOMCOT_clean_sbu_1, # of connection points: 5
#     Node 8, Type 0, BuildingBlock: XOMCOT_clean_sbu_1, # of connection points: 5
#     Node 9, Type 0, BuildingBlock: XOMCOT_clean_sbu_1, # of connection points: 5
#     Node 10, Type 0, BuildingBlock: XOMCOT_clean_sbu_1, # of connection points: 5
#     Node 11, Type 0, BuildingBlock: XOMCOT_clean_sbu_1, # of connection points: 5
#     Node 12, Type 0, BuildingBlock: XOMCOT_clean_sbu_1, # of connection points: 5
#     Node 13, Type 0, BuildingBlock: XOMCOT_clean_sbu_1, # of connection points: 5
#     Node 14, Type 0, BuildingBlock: XOMCOT_clean_sbu_1, # of connection points: 5
#     Node 15, Type 0, BuildingBlock: XOMCOT_clean_sbu_1, # of connection points: 5
#     Edge 16, Type (0, 0), BuildingBlock: OJICUG_clean_linker_0, # of connection points: 2
#     Edge 17, Type (0, 0), BuildingBlock: OJICUG_clean_linker_0, # of connection points: 2
#     Edge 18, Type (0, 0), BuildingBlock: OJICUG_clean_linker_0, # of connection points: 2
#     Edge 19, Type (0, 0), BuildingBlock: OJICUG_clean_linker_0, # of connection points: 2
#     Edge 20, Type (0, 0), BuildingBlock: OJICUG_clean_linker_0, # of connection points: 2
#     Edge 21, Type (0, 0), BuildingBlock: OJICUG_clean_linker_0, # of connection points: 2
#     Edge 22, Type (0, 0), BuildingBlock: OJICUG_clean_linker_0, # of connection points: 2
#     Edge 23, Type (0, 0), BuildingBlock: OJICUG_clean_linker_0, # of connection points: 2
#     Edge 24, Type (0, 0), BuildingBlock: OJICUG_clean_linker_0, # of connection points: 2
#     Edge 25, Type (0, 0), BuildingBlock: OJICUG_clean_linker_0, # of connection points: 2
#     Edge 26, Type (0, 0), BuildingBlock: OJICUG_clean_linker_0, # of connection points: 2
#     Edge 27, Type (0, 0), BuildingBlock: OJICUG_clean_linker_0, # of connection points: 2
#     Edge 28, Type (0, 0), BuildingBlock: OJICUG_clean_linker_0, # of connection points: 2
#     Edge 29, Type (0, 0), BuildingBlock: OJICUG_clean_linker_0, # of connection points: 2
#     Edge 30, Type (0, 0), BuildingBlock: OJICUG_clean_linker_0, # of connection points: 2
#     Edge 31, Type (0, 0), BuildingBlock: OJICUG_clean_linker_0, # of connection points: 2
#     Edge 32, Type (0, 0), BuildingBlock: OJICUG_clean_linker_0, # of connection points: 2
#     Edge 33, Type (0, 0), BuildingBlock: OJICUG_clean_linker_0, # of connection points: 2
#     Edge 34, Type (0, 0), BuildingBlock: OJICUG_clean_linker_0, # of connection points: 2
#     Edge 35, Type (0, 0), BuildingBlock: OJICUG_clean_linker_0, # of connection points: 2
#     Edge 36, Type (0, 0), BuildingBlock: OJICUG_clean_linker_0, # of connection points: 2
#     Edge 37, Type (0, 0), BuildingBlock: OJICUG_clean_linker_0, # of connection points: 2
#     Edge 38, Type (0, 0), BuildingBlock: OJICUG_clean_linker_0, # of connection points: 2
#     Edge 39, Type (0, 0), BuildingBlock: OJICUG_clean_linker_0, # of connection points: 2
#     Edge 40, Type (0, 0), BuildingBlock: OJICUG_clean_linker_0, # of connection points: 2
#     Edge 41, Type (0, 0), BuildingBlock: OJICUG_clean_linker_0, # of connection points: 2
#     Edge 42, Type (0, 0), BuildingBlock: OJICUG_clean_linker_0, # of connection points: 2
#     Edge 43, Type (0, 0), BuildingBlock: OJICUG_clean_linker_0, # of connection points: 2
#     Edge 44, Type (0, 0), BuildingBlock: OJICUG_clean_linker_0, # of connection points: 2
#     Edge 45, Type (0, 0), BuildingBlock: OJICUG_clean_linker_0, # of connection points: 2
#     Edge 46, Type (0, 0), BuildingBlock: OJICUG_clean_linker_0, # of connection points: 2
#     Edge 47, Type (0, 0), BuildingBlock: OJICUG_clean_linker_0, # of connection points: 2
#     Edge 48, Type (0, 0), BuildingBlock: OJICUG_clean_linker_0, # of connection points: 2
#     Edge 49, Type (0, 0), BuildingBlock: OJICUG_clean_linker_0, # of connection points: 2
#     Edge 50, Type (0, 0), BuildingBlock: OJICUG_clean_linker_0, # of connection points: 2
#     Edge 51, Type (0, 0), BuildingBlock: OJICUG_clean_linker_0, # of connection points: 2
#     Edge 52, Type (0, 0), BuildingBlock: OJICUG_clean_linker_0, # of connection points: 2
#     Edge 53, Type (0, 0), BuildingBlock: OJICUG_clean_linker_0, # of connection points: 2
#     Edge 54, Type (0, 0), BuildingBlock: OJICUG_clean_linker_0, # of connection points: 2
#     Edge 55, Type (0, 0), BuildingBlock: OJICUG_clean_linker_0, # of connection points: 2
# Relax obj value: 0.475
# Max RMSD: 0.406
# Mean RMSD: 0.313
data_MOF--net-yff--node1-XOMCOT_clean_sbu_1--edge1-OJICUG_clean_linker_0
_symmetry_space_group_name_H-M    P1
_symmetry_Int_Tables_number       1
_symmetry_cell_setting            triclinic
loop_
_symmetry_equiv_pos_as_xyz
'x, y, z'
_cell_length_a     45.760496
_cell_length_b     45.84324
_cell_length_c     21.828041
_cell_angle_alpha  90.269739
_cell_angle_beta   90.722964
_cell_angle_gamma 110.66001
loop_
_atom_site_label
_atom_site_type_symbol
_atom_site_fract_x
_atom_site_fract_y
_atom_site_fract_z
_atom_type_partial_charge
C0 C 0.13216 0.0249 0.43499 0.0
C1 C 0.12259 -0.00247 0.40161 0.0
N2 N 0.09685 -0.00416 0.369 0.0
N3 N 0.11285 0.04062 0.42256 0.0
C4 C 0.09167 0.0224 0.38206 0.0
H5 H 0.15082 0.03199 0.46895 0.0
Co6 Co 0.11033 0.07443 0.46644 0.0
C7 C 0.1135 0.11832 0.3624 0.0
O8 O 0.13624 0.14091 0.3897 0.0
N9 N 0.10655 0.10654 0.51509 0.0
C10 C 0.09405 0.14379 0.56138 0.0
C11 C 0.09844 0.1318 0.50558 0.0
C12 C 0.1057 0.10313 0.57661 0.0
N13 N 0.09849 0.12552 0.60602 0.0
O14 O 0.06729 0.05311 0.47542 0.0
H15 H 0.09355 0.13984 0.46165 0.0
H16 H 0.10947 0.0838 0.59931 0.0
O17 O 0.10131 0.09217 0.38936 0.0
C18 C 0.05867 0.03155 0.51474 0.0
O19 O 0.07991 0.02558 0.54829 0.0
N20 N 0.15374 0.09491 0.45912 0.0
C21 C 0.21846 0.11227 0.45456 0.0
C22 C 0.20037 0.10596 0.40056 0.0
C23 C 0.16802 0.09674 0.40389 0.0
C24 C 0.17119 0.10224 0.51188 0.0
C25 C 0.20362 0.11133 0.5106 0.0
H26 H 0.1544 0.08895 0.36229 0.0
H27 H 0.1601 0.0988 0.55578 0.0
H28 H 0.07177 0.02772 0.36531 0.0
H29 H 0.13251 0.97933 0.4044 0.0
H30 H 0.08622 0.16324 0.56828 0.0
H31 H 0.21093 0.1062 0.35634 0.0
H32 H 0.21662 0.11509 0.55351 0.0
C33 C 0.59324 0.10787 0.97623 0.0
C34 C 0.60792 0.09479 0.93546 0.0
N35 N 0.58725 0.08011 0.89074 0.0
N36 N 0.56359 0.10175 0.95692 0.0
C37 C 0.56065 0.08496 0.90486 0.0
H38 H 0.60301 0.11974 1.01874 0.0
Co39 Co 0.53192 0.10818 1.00031 0.0
C40 C 0.50435 0.13582 0.89774 0.0
O41 O 0.50639 0.16094 0.92941 0.0
N42 N 0.49973 0.11291 0.04735 0.0
C43 C 0.45919 0.12114 0.08927 0.0
C44 C 0.47365 0.11937 0.03507 0.0
C45 C 0.49933 0.10889 0.10869 0.0
N46 N 0.4756 0.11473 0.13558 0.0
O47 O 0.50797 0.06509 0.99271 0.0
H48 H 0.46502 0.12213 0.99016 0.0
H49 H 0.51719 0.10316 0.1335 0.0
O50 O 0.51273 0.1146 0.92217 0.0
C51 C 0.51094 0.04421 0.02767 0.0
O52 O 0.53179 0.05227 0.07243 0.0
N53 N 0.55604 0.15139 1.00822 0.0
C54 C 0.56858 0.21497 1.01207 0.0
C55 C 0.57588 0.20106 0.95962 0.0
C56 C 0.56914 0.16887 0.9585 0.0
C57 C 0.5578 0.16589 0.06355 0.0
C58 C 0.56298 0.19771 0.06639 0.0
H59 H 0.57066 0.15771 0.9155 0.0
H60 H 0.55216 0.15264 0.10505 0.0
H61 H 0.53888 0.07539 0.87941 0.0
H62 H 0.63141 0.0946 0.9405 0.0
H63 H 0.43809 0.12647 0.09415 0.0
H64 H 0.58276 0.21395 0.91755 0.0
H65 H 0.55894 0.2074 0.10937 0.0
C66 C 0.31471 0.41307 0.33963 0.0
C67 C 0.32173 0.43505 0.29409 0.0
N68 N 0.35202 0.44232 0.27978 0.0
N69 N 0.34064 0.40692 0.3547 0.0
C70 C 0.36262 0.42443 0.31613 0.0
H71 H 0.29226 0.40285 0.36092 0.0
Co72 Co 0.34698 0.38089 0.41516 0.0
C73 C 0.35316 0.34718 0.31962 0.0
O74 O 0.32312 0.33575 0.3311 0.0
N75 N 0.35334 0.35487 0.47541 0.0
C76 C 0.3527 0.31308 0.52698 0.0
C77 C 0.34831 0.32419 0.47045 0.0
C78 C 0.36082 0.36193 0.53527 0.0
N79 N 0.36036 0.3368 0.56802 0.0
O80 O 0.38529 0.41363 0.44333 0.0
H81 H 0.34114 0.3105 0.42888 0.0
H82 H 0.36524 0.38484 0.55485 0.0
O83 O 0.371 0.36738 0.3569 0.0
C84 C 0.39708 0.44341 0.4446 0.0
O85 O 0.38059 0.46019 0.42616 0.0
N86 N 0.32055 0.39169 0.46829 0.0
C87 C 0.26818 0.40313 0.50853 0.0
C88 C 0.26537 0.37408 0.48326 0.0
C89 C 0.29187 0.36895 0.46323 0.0
C90 C 0.32444 0.4183 0.50096 0.0
C91 C 0.29829 0.42471 0.52088 0.0
H92 H 0.28931 0.34765 0.43852 0.0
H93 H 0.34723 0.43531 0.50973 0.0
H94 H 0.38659 0.4254 0.31742 0.0
H95 H 0.30587 0.4452 0.27385 0.0
H96 H 0.35022 0.28923 0.53693 0.0
H97 H 0.2427 0.35623 0.47505 0.0
H98 H 0.30158 0.44712 0.54185 0.0
C99 C 0.89786 0.36024 0.95891 0.0
C100 C 0.88297 0.3711 0.91376 0.0
N101 N 0.9047 0.39409 0.88349 0.0
N102 N 0.92885 0.37608 0.95649 0.0
C103 C 0.93219 0.3964 0.91009 0.0
H104 H 0.88673 0.3427 0.99252 0.0
Co105 Co 0.96114 0.3755 1.0092 0.0
C106 C 0.00031 0.36095 0.90633 0.0
O107 O 0.00358 0.33596 0.9301 0.0
N108 N -0.00612 0.37651 0.06401 0.0
C109 C 0.03802 0.37832 0.1109 0.0
C110 C 0.02238 0.37473 0.05545 0.0
C111 C -0.00668 0.3822 0.12496 0.0
N112 N 0.01971 0.38306 0.15474 0.0
O113 O 0.97722 0.41899 1.00884 0.0
H114 H 0.03215 0.37232 1.01202 0.0
H115 H 0.97375 0.38562 0.14714 0.0
O116 O 0.98565 0.37564 0.93553 0.0
C117 C 0.96476 0.43282 0.04488 0.0
O118 O 0.94156 0.41621 0.07933 0.0
N119 N 0.94417 0.33189 1.01341 0.0
C120 C 0.93161 0.26932 0.03795 0.0
C121 C 0.93421 0.27988 0.97712 0.0
C122 C 0.93974 0.31139 0.96572 0.0
C123 C 0.93636 0.32105 0.07117 0.0
C124 C 0.93032 0.28985 0.08468 0.0
H125 H 0.94241 0.31957 0.91907 0.0
H126 H 0.93663 0.33703 0.10781 0.0
H127 H 0.95448 0.41321 0.89701 0.0
H128 H 0.858 0.36357 0.90566 0.0
H129 H 0.06156 0.37854 0.11799 0.0
H130 H 0.93442 0.2647 0.93913 0.0
H131 H 0.92674 0.28236 0.13187 0.0
C132 C 0.62051 0.9818 0.62172 0.0
C133 C 0.62784 0.00563 0.66446 0.0
N134 N 0.60354 -0.0 0.70266 0.0
N135 N 0.59188 0.96112 0.63338 0.0
C136 C 0.58224 0.97273 0.68288 0.0
H137 H 0.63443 0.98038 0.5829 0.0
Co138 Co 0.56757 0.92816 0.58392 0.0
C139 C 0.5454 0.88269 0.68953 0.0
O140 O 0.55783 0.86246 0.67082 0.0
N141 N 0.54289 0.89658 0.5313 0.0
C142 C 0.51794 0.85394 0.47601 0.0
C143 C 0.52943 0.86524 0.5336 0.0
C144 C 0.5387 0.90369 0.47267 0.0
N145 N 0.52394 0.8783 0.43784 0.0
O146 O 0.53684 0.94656 0.58007 0.0
H147 H 0.52893 0.85118 0.5732 0.0
H148 H 0.54834 0.92708 0.45487 0.0
O149 O 0.54757 0.90648 0.65723 0.0
C150 C 0.54199 0.97103 0.54864 0.0
O151 O 0.56811 0.98219 0.51806 0.0
N152 N 0.59891 0.91059 0.58646 0.0
C153 C 0.64884 0.88936 0.58269 0.0
C154 C 0.63951 0.89826 0.6385 0.0
C155 C 0.61467 0.90915 0.63929 0.0
C156 C 0.60817 0.90257 0.53175 0.0
C157 C 0.6325 0.89117 0.52902 0.0
H158 H 0.60854 0.9171 0.6823 0.0
H159 H 0.59733 0.90575 0.4894 0.0
H160 H 0.55935 0.96192 0.70225 0.0
H161 H 0.6487 0.02631 0.66505 0.0
H162 H 0.50666 0.82968 0.46302 0.0
H163 H 0.65216 0.89822 0.68076 0.0
H164 H 0.63909 0.88477 0.48485 0.0
C165 C 0.44065 0.57771 0.05957 0.0
C166 C 0.4163 0.55902 0.09357 0.0
N167 N 0.42714 0.54147 0.13031 0.0
N168 N 0.46691 0.57243 0.07544 0.0
C169 C 0.45796 0.55008 0.11846 0.0
H170 H 0.4391 0.59327 0.02359 0.0
Co171 Co 0.50409 0.58875 0.03325 0.0
C172 C 0.54897 0.61388 0.13982 0.0
O173 O 0.55982 0.64163 0.11488 0.0
N174 N 0.54008 0.60361 0.98514 0.0
C175 C 0.58633 0.61562 0.94057 0.0
C176 C 0.57117 0.61256 0.99575 0.0
C177 C 0.53708 0.60045 0.92337 0.0
N178 N 0.56477 0.60773 0.89499 0.0
O179 O 0.50427 0.54783 1.02067 0.0
H180 H 0.58236 0.61448 0.04007 0.0
H181 H 0.51466 0.59187 0.89981 0.0
O182 O 0.52811 0.59151 0.11105 0.0
C183 C 0.4836 0.52963 0.98501 0.0
O184 O 0.46325 0.53978 0.95793 0.0
N185 N 0.50258 0.6292 0.04454 0.0
C186 C 0.48536 0.68168 0.05647 0.0
C187 C 0.48804 0.66474 0.10802 0.0
C188 C 0.49618 0.6384 0.10102 0.0
C189 C 0.50079 0.64586 0.9939 0.0
C190 C 0.49233 0.67228 0.99887 0.0
H191 H 0.4952 0.62419 0.14081 0.0
H192 H 0.50403 0.63774 0.94892 0.0
H193 H 0.47349 0.53955 0.13879 0.0
H194 H 0.39215 0.55724 0.08907 0.0
H195 H 0.61117 0.62123 0.93475 0.0
H196 H 0.48208 0.67067 0.15311 0.0
H197 H 0.49044 0.68472 0.95783 0.0
C198 C 0.86134 0.4907 0.62278 0.0
C199 C 0.85681 0.46687 0.66369 0.0
N200 N 0.88336 0.4724 0.69682 0.0
N201 N 0.89048 0.51169 0.63039 0.0
C202 C 0.9034 0.4998 0.6754 0.0
H203 H 0.84457 0.49236 0.58887 0.0
Co204 Co 0.91036 0.54685 0.58248 0.0
C205 C 0.92481 0.5949 0.68566 0.0
O206 O 0.91075 0.6117 0.65754 0.0
N207 N 0.93219 0.58188 0.53118 0.0
C208 C 0.96372 0.62754 0.49456 0.0
C209 C 0.95227 0.61067 0.54665 0.0
C210 C 0.93327 0.58176 0.46877 0.0
N211 N 0.95174 0.60923 0.44549 0.0
O212 O 0.89426 0.5216 0.51111 0.0
H213 H 0.95964 0.61895 0.59253 0.0
H214 H 0.92053 0.56203 0.44005 0.0
O215 O 0.92693 0.57084 0.6588 0.0
C216 C 0.90302 0.50123 0.48505 0.0
O217 O 0.88682 0.48619 0.43725 0.0
N218 N 0.87359 0.55804 0.58302 0.0
C219 C 0.81681 0.56877 0.58037 0.0
C220 C 0.82905 0.56194 0.63549 0.0
C221 C 0.85725 0.55648 0.63577 0.0
C222 C 0.86204 0.56506 0.52917 0.0
C223 C 0.83396 0.57065 0.52694 0.0
H224 H 0.86563 0.55032 0.67853 0.0
H225 H 0.87367 0.5652 0.48662 0.0
H226 H 0.92746 0.51062 0.69043 0.0
H227 H 0.83549 0.44697 0.66813 0.0
H228 H 0.98051 0.65108 0.49301 0.0
H229 H 0.81675 0.5604 0.67811 0.0
H230 H 0.82516 0.57508 0.48301 0.0
C231 C 0.00241 0.85623 0.15512 0.0
C232 C 0.02377 0.86933 0.20146 0.0
N233 N 0.01788 0.89397 0.22453 0.0
N234 N 0.98368 0.87309 0.14784 0.0
C235 C -0.00721 0.89492 0.19269 0.0
H236 H 0.00126 0.83622 0.12747 0.0
Co237 Co 0.95169 0.86772 0.08971 0.0
C238 C 0.91594 0.8517 0.18732 0.0
O239 O 0.91878 0.82545 0.16924 0.0
N240 N 0.91935 0.8618 0.03236 0.0
C241 C 0.87397 0.84184 0.98246 0.0
C242 C 0.88916 0.84346 0.03791 0.0
C243 C 0.92192 0.87131 0.97342 0.0
N244 N 0.89469 0.8592 0.94173 0.0
O245 O 0.96719 0.91205 0.06838 0.0
H246 H 0.87905 0.83094 0.07878 0.0
H247 H 0.94385 0.88529 0.95323 0.0
O248 O 0.92702 0.87557 0.15339 0.0
C249 C -0.00846 0.9367 0.07371 0.0
O250 O 0.01713 0.93569 0.10001 0.0
N251 N 0.97518 0.85703 0.02994 0.0
C252 C 0.01209 0.82563 0.98408 0.0
C253 C 0.98012 0.8099 0.9929 0.0
C254 C 0.96219 0.82601 1.01683 0.0
C255 C 0.00509 0.87361 1.01312 0.0
C256 C 0.02428 0.85811 0.99104 0.0
H257 H 0.93871 0.81301 0.03143 0.0
H258 H 0.01546 0.89809 1.02243 0.0
H259 H 0.98254 0.9127 0.1987 0.0
H260 H 0.04265 0.86175 0.21584 0.0
H261 H 0.8497 0.8283 0.97263 0.0
H262 H 0.96989 0.78474 0.98879 0.0
H263 H 0.04891 0.87095 0.98451 0.0
C264 C 0.85516 0.96291 0.60619 0.0
C265 C 0.86449 0.99039 0.63929 0.0
N266 N 0.88939 -0.0083 0.67429 0.0
N267 N 0.87376 0.94678 0.62118 0.0
C268 C 0.89427 0.96483 0.66291 0.0
H269 H 0.83725 0.95603 0.5707 0.0
Co270 Co 0.87681 0.91271 0.57889 0.0
C271 C 0.87132 0.86946 0.68415 0.0
O272 O 0.84844 0.84707 0.65671 0.0
N273 N 0.88131 0.88041 0.53211 0.0
C274 C 0.89259 0.84219 0.48675 0.0
C275 C 0.8878 0.85428 0.54224 0.0
C276 C 0.88351 0.8842 0.47084 0.0
N277 N 0.88994 0.86124 0.44189 0.0
O278 O 0.92002 0.93401 0.57204 0.0
H279 H 0.89088 0.84537 0.58654 0.0
H280 H 0.88056 0.90387 0.44794 0.0
O281 O 0.88447 0.89527 0.65674 0.0
C282 C 0.92883 0.95555 0.53269 0.0
O283 O 0.90774 0.96138 0.49844 0.0
N284 N 0.83325 0.8922 0.58395 0.0
C285 C 0.76854 0.87512 0.5826 0.0
C286 C 0.78548 0.88331 0.6378 0.0
C287 C 0.81789 0.89198 0.63743 0.0
C288 C 0.81677 0.88275 0.5305 0.0
C289 C 0.7844 0.87344 0.52907 0.0
H290 H 0.83079 0.90083 0.67944 0.0
H291 H 0.82847 0.88446 0.48759 0.0
H292 H 0.9136 0.95917 0.68168 0.0
H293 H 0.85511 0.0089 0.63464 0.0
H294 H 0.89911 0.82188 0.48032 0.0
H295 H 0.77422 0.8856 0.67996 0.0
H296 H 0.77212 0.86722 0.48547 0.0
C297 C 0.39795 0.87506 0.13917 0.0
C298 C 0.38423 0.8872 0.18367 0.0
N299 N 0.40642 0.91218 0.20963 0.0
N300 N 0.42866 0.89221 0.13761 0.0
C301 C 0.43303 0.91458 0.18063 0.0
H302 H 0.38618 0.85557 0.10893 0.0
Co303 Co 0.45983 0.89162 0.08493 0.0
C304 C 0.50211 0.87612 0.17748 0.0
O305 O 0.50684 0.85481 0.14255 0.0
N306 N 0.4926 0.89323 0.02995 0.0
C307 C 0.53918 0.90025 0.98926 0.0
C308 C 0.52354 0.90134 0.04225 0.0
C309 C 0.49069 0.88956 0.96808 0.0
N310 N 0.51831 0.89282 0.94277 0.0
O311 O 0.43322 0.89267 1.01745 0.0
H312 H 0.53462 0.9088 0.08636 0.0
H313 H 0.46955 0.88476 0.94113 0.0
O314 O 0.48599 0.89187 0.15709 0.0
C315 C 0.43117 0.91548 0.98678 0.0
O316 O 0.41023 0.90928 0.94221 0.0
N317 N 0.44395 0.84683 0.08261 0.0
C318 C 0.44165 0.78533 0.07876 0.0
C319 C 0.43934 0.79944 0.13481 0.0
C320 C 0.43976 0.8301 0.13557 0.0
C321 C 0.43983 0.83128 0.0278 0.0
C322 C 0.43942 0.80078 0.02469 0.0
H323 H 0.43993 0.8413 0.17934 0.0
H324 H 0.43875 0.84272 0.9855 0.0
H325 H 0.45526 0.93312 0.18845 0.0
H326 H 0.35976 0.87849 0.19529 0.0
H327 H 0.56406 0.90558 0.98486 0.0
H328 H 0.43926 0.78772 0.1778 0.0
H329 H 0.43983 0.79052 0.98009 0.0
C330 C 0.6008 0.49534 0.56298 0.0
C331 C 0.59124 0.46851 0.5966 0.0
N332 N 0.56745 0.46874 0.63206 0.0
N333 N 0.58349 0.51274 0.57782 0.0
C334 C 0.56325 0.4959 0.6199 0.0
H335 H 0.61828 0.50118 0.52773 0.0
Co336 Co 0.58435 0.54786 0.53481 0.0
C337 C 0.59125 0.59264 0.64093 0.0
O338 O 0.6162 0.61313 0.61672 0.0
N339 N 0.5842 0.58139 0.48592 0.0
C340 C 0.577 0.62162 0.43978 0.0
C341 C 0.58054 0.60903 0.4955 0.0
C342 C 0.58181 0.57743 0.42427 0.0
N343 N 0.57756 0.60154 0.39493 0.0
O344 O 0.54024 0.52966 0.52152 0.0
H345 H 0.57815 0.61866 0.53946 0.0
H346 H 0.58222 0.55656 0.4015 0.0
O347 O 0.57664 0.56714 0.61194 0.0
C348 C 0.5293 0.50539 0.48786 0.0
O349 O 0.54864 0.49377 0.46209 0.0
N350 N 0.62845 0.56486 0.54697 0.0
C351 C 0.69212 0.57434 0.56072 0.0
C352 C 0.67275 0.56914 0.61172 0.0
C353 C 0.64106 0.56398 0.60383 0.0
C354 C 0.64722 0.57132 0.49697 0.0
C355 C 0.67919 0.57637 0.50288 0.0
H356 H 0.62629 0.55702 0.64331 0.0
H357 H 0.6372 0.57043 0.45167 0.0
H358 H 0.54496 0.50284 0.63906 0.0
H359 H 0.59993 0.44948 0.59251 0.0
H360 H 0.57237 0.64298 0.43309 0.0
H361 H 0.68165 0.56755 0.65731 0.0
H362 H 0.69314 0.57978 0.46202 0.0
C363 C 0.08026 0.63456 0.13077 0.0
C364 C 0.09466 0.62345 0.1763 0.0
N365 N 0.07242 0.60457 0.2127 0.0
N366 N 0.04914 0.62295 0.13891 0.0
C367 C 0.04518 0.60501 0.18916 0.0
H368 H 0.0916 0.64888 0.09261 0.0
Co369 Co 0.01711 0.62428 0.08705 0.0
C370 C 0.98016 0.64245 0.19223 0.0
O371 O 0.97757 0.6681 0.17037 0.0
N372 N 0.9848 0.62443 0.03251 0.0
C373 C 0.9429 0.62758 0.98409 0.0
C374 C 0.95821 0.63043 0.03984 0.0
C375 C 0.9846 0.61728 0.97212 0.0
N376 N 0.95956 0.61929 0.9414 0.0
O377 O -0.00141 0.58093 0.09155 0.0
H378 H 0.94983 0.63597 0.08254 0.0
H379 H 0.00291 0.6112 0.95078 0.0
O380 O -0.00609 0.62747 0.16115 0.0
C381 C 0.01065 0.56654 0.0559 0.0
O382 O 0.03407 0.5827 1.02148 0.0
N383 N 0.03669 0.66712 0.07791 0.0
C384 C 0.05467 0.72826 0.03861 0.0
C385 C 0.04896 0.72115 0.10106 0.0
C386 C 0.04071 0.69021 0.12014 0.0
C387 C 0.04718 0.67428 1.01982 0.0
C388 C 0.05619 0.70475 0.999 0.0
H389 H 0.03614 0.68478 0.16789 0.0
H390 H 0.04667 0.65588 0.98826 0.0
H391 H 0.02245 0.59151 0.20664 0.0
H392 H 0.11942 0.62767 0.1802 0.0
H393 H 0.92084 0.63076 0.97591 0.0
H394 H 0.04847 0.73869 0.134 0.0
H395 H 0.06204 0.70939 0.95123 0.0
C396 C 0.37432 0.02041 0.46029 0.0
C397 C 0.36697 -0.00456 0.42031 0.0
N398 N 0.39234 -0.0015 0.38662 0.0
N399 N 0.40401 0.03937 0.45109 0.0
C400 C 0.41443 0.02534 0.40622 0.0
H401 H 0.35929 0.02414 0.49499 0.0
Co402 Co 0.42677 0.07427 0.49798 0.0
C403 C 0.45185 0.11853 0.39303 0.0
O404 O 0.44133 0.13971 0.41467 0.0
N405 N 0.44981 0.10761 0.54922 0.0
C406 C 0.48349 0.14869 0.59836 0.0
C407 C 0.47139 0.13636 0.54177 0.0
C408 C 0.4499 0.10287 0.61033 0.0
N409 N 0.47005 0.12739 0.64139 0.0
O410 O 0.45779 0.05694 0.51031 0.0
H411 H 0.47961 0.14718 0.49856 0.0
H412 H 0.43575 0.0813 0.6315 0.0
O413 O 0.44845 0.09391 0.42376 0.0
C414 C 0.45349 0.03415 0.54609 0.0
O415 O 0.42732 0.02327 0.57657 0.0
N416 N 0.39505 0.09103 0.48579 0.0
C417 C 0.34238 0.10754 0.47012 0.0
C418 C 0.35676 0.09973 0.41961 0.0
C419 C 0.38249 0.09082 0.42855 0.0
C420 C 0.3818 0.09924 0.53549 0.0
C421 C 0.35552 0.10781 0.52864 0.0
H422 H 0.39164 0.08264 0.3893 0.0
H423 H 0.39055 0.09772 0.58105 0.0
H424 H 0.43805 0.03429 0.38937 0.0
H425 H 0.3451 0.97591 0.41807 0.0
H426 H 0.50203 0.17084 0.6068 0.0
H427 H 0.34748 0.09924 0.37358 0.0
H428 H 0.34463 0.11286 0.5691 0.0
C429 C 0.4785 0.32656 0.83816 0.0
C430 C 0.4984 0.34128 0.79209 0.0
N431 N 0.49311 0.36756 0.77793 0.0
N432 N 0.46115 0.34382 0.85393 0.0
C433 C 0.46987 0.36801 0.81477 0.0
H434 H 0.47737 0.30492 0.85908 0.0
Co435 Co 0.43141 0.33744 0.91558 0.0
C436 C 0.39154 0.32518 0.82017 0.0
O437 O 0.39328 0.29782 0.83268 0.0
N438 N 0.4016 0.33089 0.97666 0.0
C439 C 0.35771 0.31141 0.02864 0.0
C440 C 0.3712 0.31286 0.97224 0.0
C441 C 0.40607 0.34021 0.03616 0.0
N442 N 0.37972 0.32843 0.06915 0.0
O443 O 0.44887 0.38109 0.94035 0.0
H444 H 0.35964 0.30085 0.93112 0.0
H445 H 0.42856 0.35434 0.05537 0.0
O446 O 0.405 0.34785 0.85684 0.0
C447 C 0.47545 0.40314 0.94055 0.0
O448 O 0.50062 0.39793 0.9234 0.0
N449 N 0.4563 0.32433 0.96953 0.0
C450 C 0.49687 0.29454 1.00416 0.0
C451 C 0.46702 0.27736 0.98094 0.0
C452 C 0.447 0.2928 0.96408 0.0
C453 C 0.48278 0.3406 1.00217 0.0
C454 C 0.50393 0.32607 1.01915 0.0
H455 H 0.42542 0.28011 0.93992 0.0
H456 H 0.48864 0.36491 1.01285 0.0
H457 H 0.4606 0.38669 0.81599 0.0
H458 H 0.51578 0.33348 0.77146 0.0
H459 H 0.33351 0.29856 0.03889 0.0
H460 H 0.4603 0.25267 0.97084 0.0
H461 H 0.52632 0.33975 0.03951 0.0
C462 C 0.10233 0.5151 0.49925 0.0
C463 C 0.10768 0.53942 0.45913 0.0
N464 N 0.08744 0.5297 0.41145 0.0
N465 N 0.07905 0.49003 0.47684 0.0
C466 C 0.07029 0.49962 0.42354 0.0
H467 H 0.11417 0.51577 0.54273 0.0
Co468 Co 0.06172 0.45263 0.51816 0.0
C469 C 0.0551 0.40839 0.40998 0.0
O470 O 0.07194 0.39386 0.43648 0.0
N471 N 0.04362 0.41621 0.56402 0.0
C472 C 0.02027 0.36933 0.60444 0.0
C473 C 0.0299 0.38553 0.55084 0.0
C474 C 0.04075 0.41805 0.62544 0.0
N475 N 0.02721 0.3899 0.65145 0.0
O476 O 0.02256 0.45806 0.51667 0.0
H477 H 0.02606 0.37525 0.50563 0.0
H478 H 0.04921 0.43987 0.65077 0.0
O479 O 0.04967 0.43032 0.43869 0.0
C480 C 0.01595 0.4782 0.54824 0.0
O481 O 0.03694 0.49637 0.5866 0.0
N482 N 0.10128 0.44769 0.51967 0.0
C483 C 0.15845 0.43832 0.52113 0.0
C484 C 0.14701 0.44735 0.46732 0.0
C485 C 0.11864 0.45223 0.46771 0.0
C486 C 0.11341 0.44165 0.57363 0.0
C487 C 0.14173 0.43642 0.57524 0.0
H488 H 0.11022 0.45892 0.42552 0.0
H489 H 0.10122 0.4406 0.6159 0.0
H490 H 0.05139 0.48487 0.39476 0.0
H491 H 0.12444 0.56275 0.46584 0.0
H492 H 0.00836 0.34442 0.60827 0.0
H493 H 0.15972 0.45028 0.42489 0.0
H494 H 0.14996 0.4301 0.61813 0.0
C495 C 0.98339 0.13316 0.88539 0.0
C496 C 0.9622 0.11945 0.83907 0.0
N497 N 0.96764 0.09401 0.81898 0.0
N498 N 0.00156 0.11596 0.89556 0.0
C499 C -0.00776 0.09314 0.85261 0.0
H500 H 0.98482 0.15386 0.91106 0.0
Co501 Co 0.03303 0.12161 0.95501 0.0
C502 C 0.06965 0.13527 0.859 0.0
O503 O 0.06719 0.16187 0.87589 0.0
N504 N 0.06481 0.12752 1.01404 0.0
C505 C 0.11001 0.14669 0.06488 0.0
C506 C 0.09523 0.14525 1.00902 0.0
C507 C 0.06171 0.11822 0.07321 0.0
N508 N 0.08886 0.12982 0.10542 0.0
O509 O 0.01604 0.07785 0.97951 0.0
H510 H 0.10584 0.15735 0.9681 0.0
H511 H 0.03956 0.1046 0.09306 0.0
O512 O 0.05768 0.11167 0.89331 0.0
C513 C -0.00879 0.05362 0.97586 0.0
O514 O 0.96588 0.0548 0.94871 0.0
N515 N 0.00991 0.13462 1.01219 0.0
C516 C 0.97586 0.16902 0.05883 0.0
C517 C 0.00781 0.18325 0.04779 0.0
C518 C 0.02426 0.16569 0.02359 0.0
C519 C 0.97969 0.1196 0.0292 0.0
C520 C 0.96197 0.13662 0.05175 0.0
H521 H 0.04787 0.17752 1.00837 0.0
H522 H 0.96812 0.0952 1.02037 0.0
H523 H 0.002 0.07487 0.84917 0.0
H524 H 0.94381 0.12722 0.82256 0.0
H525 H 0.13439 0.15966 0.07504 0.0
H526 H 0.01927 0.2083 0.05179 0.0
H527 H 0.93727 0.12494 0.05978 0.0
C528 C 0.97182 -0.00167 0.48379 0.0
C529 C 0.96206 0.9748 0.52785 0.0
H530 H 0.0101 0.03482 0.44518 0.0
C531 C 0.98426 0.97019 0.56795 0.0
H532 H 0.95523 0.00242 0.45227 0.0
C533 C 0.01569 0.9888 0.56399 0.0
C534 C 0.02545 0.01233 0.5199 0.0
H535 H 0.97737 0.95228 0.60257 0.0
H536 H 0.03231 0.98471 0.59545 0.0
C537 C 0.00324 0.01694 0.47984 0.0
C538 C 0.46945 0.00284 0.96833 0.0
C539 C 0.4909 0.01123 1.01763 0.0
H540 H 0.43407 0.96635 0.92025 0.0
C541 C 0.49282 0.98785 0.05706 0.0
H542 H 0.46739 0.02025 0.93688 0.0
C543 C 0.4736 0.95677 0.0475 0.0
C544 C 0.45201 0.94828 0.99828 0.0
H545 H 0.50909 -0.00648 0.09555 0.0
H546 H 0.47584 0.93979 0.07914 0.0
C547 C 0.45027 0.97182 0.95883 0.0
C548 C 0.47473 0.5059 0.48614 0.0
C549 C 0.49528 0.48947 0.47989 0.0
H550 H 0.42736 0.50419 0.47927 0.0
C551 C 0.48313 0.45755 0.46519 0.0
H552 H 0.48352 0.53054 0.49751 0.0
C553 C 0.45106 0.44237 0.45604 0.0
C554 C 0.43054 0.45896 0.46018 0.0
H555 H 0.49843 0.44424 0.4607 0.0
H556 H 0.44248 0.41781 0.44392 0.0
C557 C 0.44264 0.49084 0.47567 0.0
C558 C 0.97494 0.51502 0.09244 0.0
C559 C -0.00124 0.53236 0.05323 0.0
H560 H 0.94543 0.4697 0.12055 0.0
C561 C 0.01119 0.51678 1.01122 0.0
H562 H 0.96498 0.52648 0.12537 0.0
C563 C 2e-05 0.48438 1.00846 0.0
C564 C 0.97625 0.467 0.04772 0.0
H565 H 0.02952 0.52958 0.98033 0.0
H566 H 0.01004 0.47299 0.9755 0.0
C567 C 0.96375 0.48255 0.08969 0.0
C568 C 0.49279 0.97666 0.58519 0.0
C569 C 0.51951 0.98734 0.54869 0.0
H570 H 0.45096 0.98329 0.61339 0.0
C571 C 0.52476 0.01394 0.5128 0.0
H572 H 0.48825 0.95628 0.61365 0.0
C573 C 0.50349 0.02942 0.51283 0.0
C574 C 0.47659 0.01858 0.54879 0.0
H575 H 0.5452 0.02276 0.48438 0.0
H576 H 0.50804 0.04972 0.48414 0.0
C577 C 0.4715 -0.00783 0.58524 0.0
C578 C 0.45289 0.47426 0.95889 0.0
C579 C 0.48152 0.49714 0.97594 0.0
H580 H 0.42842 0.42639 0.93559 0.0
C581 C 0.50799 0.48871 0.9837 0.0
H582 H 0.43207 0.48013 0.95313 0.0
C583 C 0.50603 0.458 0.97276 0.0
C584 C 0.4774 0.43516 0.95532 0.0
H585 H 0.53034 0.50598 0.99682 0.0
H586 H 0.52689 0.45216 0.97783 0.0
C587 C 0.45077 0.44348 0.94929 0.0
C588 C 0.93622 0.46826 0.48222 0.0
C589 C 0.93095 0.49451 0.50593 0.0
H590 H 0.96688 0.44241 0.47727 0.0
C591 C 0.95323 0.51444 0.54669 0.0
H592 H 0.91954 0.45227 0.45095 0.0
C593 C 0.98041 0.50863 0.56222 0.0
C594 C 0.98601 0.48291 0.53688 0.0
H595 H 0.95041 0.53503 0.56544 0.0
H596 H -0.00257 0.52482 0.59265 0.0
C597 C 0.96339 0.46255 0.49743 0.0
C598 C 0.0174 -0.00595 0.05721 0.0
C599 C -0.00877 0.9666 0.0491 0.0
H600 H 0.03792 0.043 0.04079 0.0
C601 C 0.96491 0.9681 1.01732 0.0
H602 H 0.03804 -0.00623 0.08166 0.0
C603 C 0.96484 -0.00361 0.99391 0.0
C604 C -0.00891 0.0238 1.00173 0.0
H605 H 0.94437 0.94739 1.01021 0.0
H606 H 0.94424 -0.00331 0.96932 0.0
C607 C 0.01734 0.02232 0.03379 0.0
C608 C 0.1223 0.14884 0.26505 0.0
C609 C 0.10533 0.1218 0.29727 0.0
H610 H 0.13032 0.17261 0.17941 0.0
C611 C 0.08201 0.09767 0.26551 0.0
H612 H 0.1404 0.16793 0.28781 0.0
C613 C 0.07622 0.10042 0.20283 0.0
C614 C 0.09384 0.12718 0.17043 0.0
H615 H 0.06854 0.07646 0.28878 0.0
H616 H 0.05851 0.08128 0.17939 0.0
C617 C 0.11672 0.15144 0.20255 0.0
C618 C 0.48601 0.10464 0.80042 0.0
C619 C 0.49437 0.13323 0.83225 0.0
H620 H 0.47152 0.08035 0.71479 0.0
C621 C 0.49407 0.15973 0.80029 0.0
H622 H 0.48607 0.08381 0.82357 0.0
C623 C 0.48611 0.15779 0.73784 0.0
C624 C 0.47772 0.12923 0.70605 0.0
H625 H 0.50054 0.18217 0.82324 0.0
H626 H 0.4863 0.17862 0.71439 0.0
C627 C 0.47752 0.10261 0.73818 0.0
C628 C 0.38932 0.36239 0.22946 0.0
C629 C 0.36387 0.34051 0.25902 0.0
H630 H 0.41407 0.37602 0.14525 0.0
C631 C 0.34557 0.31363 0.22654 0.0
H632 H 0.40365 0.38353 0.25308 0.0
C633 C 0.35148 0.30931 0.16522 0.0
C634 C 0.37575 0.33189 0.13421 0.0
H635 H 0.32592 0.29622 0.24807 0.0
H636 H 0.33657 0.28839 0.14188 0.0
C637 C 0.39518 0.35814 0.16756 0.0
C638 C 0.01573 0.40476 0.75546 0.0
C639 C 0.02159 0.38322 0.71585 0.0
H640 H 0.00455 0.41476 0.84643 0.0
C641 C 0.02182 0.35495 0.74022 0.0
H642 H 0.01521 0.42666 0.73817 0.0
C643 C 0.01598 0.34821 0.80239 0.0
C644 C 0.00935 0.3694 0.84172 0.0
H645 H 0.02667 0.33804 0.71119 0.0
H646 H 0.01595 0.32602 0.81926 0.0
C647 C 0.00951 0.39787 0.81753 0.0
C648 C 0.54922 0.86945 0.79971 0.0
C649 C 0.53583 0.88253 0.75406 0.0
H650 H 0.55459 0.86323 0.89611 0.0
C651 C 0.51598 0.89845 0.77156 0.0
H652 H 0.56496 0.85744 0.78776 0.0
C653 C 0.50982 0.90138 0.83346 0.0
C654 C 0.52403 0.88917 0.87906 0.0
H655 H 0.50557 0.909 0.73741 0.0
H656 H 0.49467 0.91396 0.8459 0.0
C657 C 0.54366 0.87307 0.86166 0.0
C658 C 0.57488 0.63636 0.24016 0.0
C659 C 0.55795 0.61 0.2044 0.0
H660 H 0.59425 0.65428 0.3284 0.0
C661 C 0.54854 0.58053 0.23214 0.0
H662 H 0.5825 0.65947 0.22065 0.0
C663 C 0.5556 0.57761 0.29416 0.0
C664 C 0.57182 0.60413 0.33015 0.0
H665 H 0.53538 0.55975 0.20616 0.0
H666 H 0.54754 0.55468 0.31442 0.0
C667 C 0.5815 0.63347 0.30217 0.0
C668 C 0.96067 0.5919 0.8433 0.0
C669 C 0.95213 0.61393 0.87669 0.0
H670 H 0.95862 0.56838 0.75714 0.0
C671 C 0.93573 0.63041 0.84595 0.0
H672 H 0.97311 0.57865 0.86567 0.0
C673 C 0.92772 0.6248 0.78375 0.0
C674 C 0.93556 0.60228 0.75057 0.0
H675 H 0.92915 0.6478 0.87001 0.0
H676 H 0.91481 0.63779 0.76201 0.0
C677 C 0.95229 0.58598 0.78109 0.0
C678 C 0.89438 0.82738 0.28693 0.0
C679 C 0.90595 0.85427 0.2508 0.0
H680 H 0.88018 0.80852 0.37582 0.0
C681 C 0.91093 0.88347 0.27807 0.0
H682 H 0.89023 0.80448 0.26739 0.0
C683 C 0.90533 0.88573 0.34052 0.0
C684 C 0.89465 0.85885 0.37705 0.0
H685 H 0.9202 0.90465 0.25176 0.0
H686 H 0.91037 0.90866 0.36049 0.0
C687 C 0.88887 0.82965 0.34928 0.0
C688 C 0.90742 0.88816 0.84409 0.0
C689 C 0.88958 0.86161 0.87679 0.0
H690 H 0.91576 0.91154 0.7577 0.0
C691 C 0.86673 0.83723 0.84487 0.0
H692 H 0.92508 0.9074 0.86735 0.0
C693 C 0.86149 0.83948 0.78214 0.0
C694 C 0.87884 0.86626 0.74961 0.0
H695 H 0.85297 0.8162 0.86825 0.0
H696 H 0.84345 0.82033 0.75939 0.0
C697 C 0.90204 0.89052 0.78124 0.0
C698 C 0.5208 0.85323 0.33604 0.0
C699 C 0.51874 0.87776 0.37247 0.0
H700 H 0.51797 0.83383 0.24571 0.0
C701 C 0.51251 0.9024 0.34385 0.0
H702 H 0.52599 0.83416 0.35671 0.0
C703 C 0.5079 0.90227 0.28037 0.0
C704 C 0.50988 0.87769 0.24387 0.0
H705 H 0.51064 0.92153 0.3708 0.0
H706 H 0.50248 0.92129 0.25998 0.0
C707 C 0.51663 0.85329 0.27237 0.0
C708 C 0.54904 0.58118 0.79376 0.0
C709 C 0.57024 0.60481 0.83042 0.0
H710 H 0.53902 0.55852 0.70551 0.0
C711 C 0.59753 0.625 0.80337 0.0
H712 H 0.52794 0.56502 0.81332 0.0
C713 C 0.60371 0.62153 0.74161 0.0
C714 C 0.58298 0.59745 0.70519 0.0
H715 H 0.61418 0.64355 0.83014 0.0
H716 H 0.62519 0.63742 0.72284 0.0
C717 C 0.55545 0.57738 0.73201 0.0
C718 C 0.96668 0.60291 0.27719 0.0
C719 C 0.97118 0.63325 0.25671 0.0
H720 H 0.95675 0.57143 0.35315 0.0
C721 C 0.96853 0.65527 0.29937 0.0
H722 H 0.9685 0.58535 0.24563 0.0
C723 C 0.96228 0.6474 0.36109 0.0
C724 C 0.95788 0.61713 0.38161 0.0
H725 H 0.97202 0.67889 0.28543 0.0
H726 H 0.96067 0.66497 0.39282 0.0
C727 C 0.95981 0.59488 0.33875 0.0
C728 C 0.4786 0.09662 0.24134 0.0
C729 C 0.47055 0.11625 0.20043 0.0
H730 H 0.47923 0.08204 0.33434 0.0
C731 C 0.45813 0.13792 0.22396 0.0
H732 H 0.48815 0.07966 0.22452 0.0
C733 C 0.45343 0.13963 0.28687 0.0
C734 C 0.46065 0.11941 0.32769 0.0
H735 H 0.45221 0.1537 0.1937 0.0
H736 H 0.44329 0.15624 0.30321 0.0
C737 C 0.47352 0.09803 0.30423 0.0
C738 C 0.39096 0.35898 0.72963 0.0
C739 C 0.37971 0.32992 0.75882 0.0
H740 H 0.39414 0.38392 0.64553 0.0
C741 C 0.36015 0.30393 0.72547 0.0
H742 H 0.40639 0.37937 0.75388 0.0
C743 C 0.35314 0.30648 0.66375 0.0
C744 C 0.36565 0.33508 0.63326 0.0
H745 H 0.35095 0.28124 0.74668 0.0
H746 H 0.33821 0.28579 0.63974 0.0
C747 C 0.38403 0.36152 0.66739 0.0
C748 C 0.04719 0.37519 0.24813 0.0
C749 C 0.02733 0.38854 0.21936 0.0
H750 H 0.07109 0.37056 0.3303 0.0
C751 C 0.01573 0.40778 0.25449 0.0
H752 H 0.05623 0.35998 0.22269 0.0
C753 C 0.0244 0.41405 0.3165 0.0
C754 C 0.04455 0.40088 0.34503 0.0
H755 H 0.00059 0.41863 0.23366 0.0
H756 H 0.01549 0.42939 0.34193 0.0
C757 C 0.05554 0.38113 0.31009 0.0
C758 C 0.0993 0.15697 0.69849 0.0
C759 C 0.0937 0.12778 0.67088 0.0
H760 H 0.09701 0.1822 0.77961 0.0
C761 C 0.08255 0.10089 0.70729 0.0
H762 H 0.10833 0.17809 0.67198 0.0
C763 C 0.07599 0.10316 0.7694 0.0
C764 C 0.08064 0.13239 0.79635 0.0
H765 H 0.07773 0.07799 0.68729 0.0
H766 H 0.06622 0.082 0.79558 0.0
C767 C 0.093 0.15926 0.7604 0.0
C768 C 0.06974 0.92406 0.26961 0.0
C769 C 0.03741 0.91793 0.26539 0.0
H770 H 0.11405 0.95406 0.30515 0.0
C771 C 0.02489 0.93728 0.29772 0.0
H772 H 0.08027 0.90996 0.24465 0.0
C773 C 0.04433 0.96275 0.33175 0.0
C774 C 0.07674 0.96937 0.33452 0.0
H775 H 5e-05 0.93289 0.29637 0.0
H776 H 0.03392 0.97712 0.35626 0.0
C777 C 0.08917 0.94947 0.30391 0.0
C778 C 0.56953 0.01762 0.76941 0.0
C779 C 0.59958 0.0203 0.75012 0.0
H780 H 0.54202 0.03381 0.82915 0.0
C781 C 0.62555 0.04341 0.77744 0.0
H782 H 0.54885 0.00059 0.74901 0.0
C783 C 0.62154 0.06322 0.82296 0.0
C784 C 0.59147 0.06033 0.8425 0.0
H785 H 0.64904 0.04608 0.76413 0.0
H786 H 0.64206 0.08087 0.84259 0.0
C787 C 0.56555 0.03723 0.81504 0.0
C788 C 0.39805 0.46565 0.21438 0.0
C789 C 0.37053 0.46686 0.24044 0.0
H790 H 0.43765 0.48843 0.15869 0.0
C791 C 0.36223 0.49316 0.23006 0.0
H792 H 0.40489 0.44555 0.22088 0.0
C793 C 0.38104 0.51772 0.19467 0.0
C794 C 0.40858 0.51658 0.16877 0.0
H795 H 0.34158 0.49515 0.25041 0.0
H796 H 0.37421 0.53783 0.18819 0.0
C797 C 0.41691 0.49028 0.17901 0.0
C798 C 0.9146 0.46404 0.78475 0.0
C799 C 0.88911 0.45256 0.74355 0.0
H800 H 0.93939 0.45466 0.8616 0.0
C801 C 0.86911 0.42125 0.74922 0.0
H802 H 0.93034 0.48799 0.78277 0.0
C803 C 0.8742 0.40221 0.79496 0.0
C804 C 0.89961 0.41372 0.83598 0.0
H805 H 0.84955 0.41113 0.71807 0.0
H806 H 0.85844 0.37826 0.7977 0.0
C807 C 0.91984 0.44485 0.83016 0.0
C808 C 0.96081 0.04961 0.74867 0.0
C809 C 0.94831 0.06973 0.77848 0.0
H810 H 0.95197 0.0092 0.69191 0.0
C811 C 0.91618 0.06421 0.77178 0.0
H812 H 0.98552 0.0535 0.75191 0.0
C813 C 0.89691 0.03873 0.73738 0.0
C814 C 0.9093 0.01815 0.70916 0.0
H815 H 0.90567 0.07892 0.79476 0.0
H816 H 0.87216 0.03467 0.73412 0.0
C817 C 0.94153 0.02409 0.71454 0.0
C818 C 0.37331 0.93613 0.26477 0.0
C819 C 0.40258 0.93333 0.25551 0.0
H820 H 0.34722 0.95934 0.31315 0.0
C821 C 0.42832 0.9522 0.29083 0.0
H822 H 0.35304 0.92235 0.238 0.0
C823 C 0.42499 0.9736 0.33348 0.0
C824 C 0.3958 0.97655 0.34231 0.0
H825 H 0.45108 0.9503 0.28604 0.0
H826 H 0.44523 0.98748 0.36027 0.0
C827 C 0.36996 0.95743 0.30776 0.0
C828 C 0.51681 0.43842 0.67841 0.0
C829 C 0.54857 0.44347 0.66937 0.0
H830 H 0.47398 0.40968 0.71872 0.0
C831 C 0.56149 0.4227 0.69542 0.0
H832 H 0.50601 0.45363 0.65794 0.0
C833 C 0.54315 0.39748 0.72982 0.0
C834 C 0.51144 0.39243 0.73913 0.0
H835 H 0.58596 0.42618 0.68991 0.0
H836 H 0.55408 0.38241 0.75041 0.0
C837 C 0.49843 0.41314 0.71292 0.0
C838 C 0.10491 0.59366 0.29491 0.0
C839 C 0.07637 0.58556 0.26252 0.0
H840 H 0.13099 0.58214 0.36676 0.0
C841 C 0.05174 0.55837 0.2794 0.0
H842 H 0.12432 0.61445 0.28347 0.0
C843 C 0.05542 0.54001 0.32771 0.0
C844 C 0.08387 0.54823 0.36046 0.0
H845 H 0.02957 0.55093 0.25503 0.0
H846 H 0.03572 0.51962 0.33981 0.0
C847 C 0.10861 0.57523 0.3432 0.0
C848 C 0.27409 0.135 0.49264 0.0
C849 C 0.25144 0.11438 0.45351 0.0
H850 H 0.32106 0.14947 0.52793 0.0
C851 C 0.25958 0.09303 0.41757 0.0
H852 H 0.2684 0.15173 0.52076 0.0
C853 C 0.28934 0.09158 0.42196 0.0
C854 C 0.31184 0.11155 0.4622 0.0
H855 H 0.24246 0.07623 0.38824 0.0
H856 H 0.29419 0.07375 0.3957 0.0
C857 C 0.3041 0.13362 0.4969 0.0
C858 C 0.54282 0.24573 0.95218 0.0
C859 C 0.55832 0.24239 1.0064 0.0
H860 H 0.51168 0.26502 0.90953 0.0
C861 C 0.55755 0.26101 0.05769 0.0
H862 H 0.54232 0.23195 0.91154 0.0
C863 C 0.53895 0.27967 0.05665 0.0
C864 C 0.52105 0.28004 1.00424 0.0
H865 H 0.5698 0.2598 0.0998 0.0
H866 H 0.53707 0.29217 0.09776 0.0
C867 C 0.52457 0.26433 0.95118 0.0
C868 C 0.23593 0.42953 0.56408 0.0
C869 C 0.23996 0.41184 0.51423 0.0
H870 H 0.20696 0.45193 0.60554 0.0
C871 C 0.21713 0.40324 0.46723 0.0
H872 H 0.25311 0.43654 0.60094 0.0
C873 C 0.19088 0.41182 0.46997 0.0
C874 C 0.18672 0.42951 0.51953 0.0
H875 H 0.21975 0.39023 0.42742 0.0
H876 H 0.17367 0.40434 0.43318 0.0
C877 C 0.20943 0.43815 0.56687 0.0
C878 C 0.92379 0.2131 1.01488 0.0
C879 C 0.93575 0.23945 0.05336 0.0
H880 H 0.92674 0.16923 0.98788 0.0
C881 C 0.95606 0.23885 0.10199 0.0
H882 H 0.90783 0.21268 0.97753 0.0
C883 C 0.96664 0.21397 0.1081 0.0
C884 C 0.95702 0.18912 0.066 0.0
H885 H 0.96604 0.2588 0.13224 0.0
H886 H 0.9843 0.21534 0.14267 0.0
C887 C 0.93427 0.18805 1.02132 0.0
C888 C 0.68549 0.86435 0.62522 0.0
C889 C 0.67765 0.88186 0.57935 0.0
H890 H 0.72048 0.84781 0.66167 0.0
C891 C 0.69877 0.89446 0.53207 0.0
H892 H 0.66949 0.85413 0.66189 0.0
C893 C 0.72755 0.89069 0.53174 0.0
C894 C 0.73602 0.8743 0.57878 0.0
H895 H 0.69382 0.90869 0.49684 0.0
H896 H 0.74386 0.90223 0.49636 0.0
C897 C 0.71452 0.86064 0.62499 0.0
C898 C 0.45051 0.71042 1.02229 0.0
C899 C 0.47349 0.70775 0.06288 0.0
H900 H 0.42135 0.73618 0.99684 0.0
C901 C 0.48427 0.72952 0.11102 0.0
H902 H 0.44124 0.69357 0.98558 0.0
C903 C 0.47289 0.75388 0.11757 0.0
C904 C 0.4503 0.75698 0.07632 0.0
H905 H 0.50209 0.72815 0.14284 0.0
H906 H 0.48273 0.77098 0.15364 0.0
C907 C 0.43897 0.73471 0.02904 0.0
C908 C 0.76074 0.55166 0.61181 0.0
C909 C 0.78542 0.57177 0.57767 0.0
H910 H 0.71222 0.53634 0.6324 0.0
C911 C 0.77938 0.5935 0.53883 0.0
H912 H 0.76429 0.53415 0.64108 0.0
C913 C 0.74928 0.59475 0.53371 0.0
C914 C 0.72458 0.57438 0.5675 0.0
H915 H 0.79792 0.60956 0.5123 0.0
H916 H 0.74536 0.6117 0.50344 0.0
C917 C 0.73078 0.55293 0.60676 0.0
C918 C 0.06377 0.78559 0.04734 0.0
C919 C 0.05294 0.75764 1.01325 0.0
H920 H 0.05972 0.83011 0.06305 0.0
C921 C 0.03515 0.75635 0.95945 0.0
H922 H 0.07797 0.78756 0.08829 0.0
C923 C 0.02507 0.78082 0.94462 0.0
C924 C 0.03262 0.80703 0.9832 0.0
H925 H 0.02618 0.73521 0.93206 0.0
H926 H 0.00876 0.77789 0.90665 0.0
C927 C 0.05372 0.81017 0.03229 0.0
loop_
_geom_bond_atom_site_label_1
_geom_bond_atom_site_label_2
_geom_bond_distance
_geom_bond_site_symmetry_2
_ccdc_geom_bond_type
C0 C1 1.351 . S
C0 N3 1.368 1_565 S
C0 H5 0.931 . S
C1 C0 1.351 . S
C1 N2 1.373 . S
C1 H29 0.930 . S
N2 C1 1.373 . S
N2 C4 1.340 1_565 S
N3 C0 1.368 1_545 S
N3 C4 1.321 . S
N3 Co6 2.135 . S
C4 N2 1.340 1_545 S
C4 N3 1.321 . S
C4 H28 0.930 . S
H5 C0 0.931 . S
Co6 N3 2.135 . S
Co6 N9 2.121 . S
Co6 O14 2.055 . S
Co6 O17 2.039 . S
Co6 N20 2.140 . S
C7 O8 1.227 . S
C7 O17 1.265 . S
O8 C7 1.227 . S
N9 Co6 2.121 . S
N9 C11 1.375 . S
N9 C12 1.313 . S
C10 C11 1.338 . S
C10 N13 1.377 . S
C10 H30 0.930 . S
C11 N9 1.375 . S
C11 C10 1.338 . S
C11 H15 0.931 . S
C12 N9 1.313 . S
C12 N13 1.344 . S
C12 H16 0.930 . S
N13 C10 1.377 . S
N13 C12 1.344 . S
O14 Co6 2.055 . S
O14 C18 1.253 . S
H15 C11 0.931 . S
H16 C12 0.930 . S
O17 Co6 2.039 . S
O17 C7 1.265 . S
C18 O14 1.253 . S
C18 O19 1.227 . S
O19 C18 1.227 . S
N20 Co6 2.140 . S
N20 C23 1.346 . S
N20 C24 1.345 . S
C21 C22 1.387 . S
C21 C25 1.391 . S
C22 C21 1.387 . S
C22 C23 1.369 . S
C22 H31 0.929 . S
C23 N20 1.346 . S
C23 C22 1.369 . S
C23 H26 0.928 . S
C24 N20 1.345 . S
C24 C25 1.371 . S
C24 H27 0.931 . S
C25 C21 1.391 . S
C25 C24 1.371 . S
C25 H32 0.930 . S
H26 C23 0.928 . S
H27 C24 0.931 . S
H28 C4 0.930 . S
H29 C1 0.930 . S
H30 C10 0.930 . S
H31 C22 0.929 . S
H32 C25 0.930 . S
C33 C34 1.351 . S
C33 N36 1.368 . S
C33 H38 0.931 . S
C34 C33 1.351 . S
C34 N35 1.373 . S
C34 H62 0.930 . S
N35 C34 1.373 . S
N35 C37 1.340 . S
N36 C33 1.368 . S
N36 C37 1.321 . S
N36 Co39 2.135 . S
C37 N35 1.340 . S
C37 N36 1.321 . S
C37 H61 0.930 . S
H38 C33 0.931 . S
Co39 N36 2.135 . S
Co39 N42 2.121 1_556 S
Co39 O47 2.055 . S
Co39 O50 2.039 . S
Co39 N53 2.140 . S
C40 O41 1.227 . S
C40 O50 1.265 . S
O41 C40 1.227 . S
N42 Co39 2.121 1_554 S
N42 C44 1.375 1_554 S
N42 C45 1.313 . S
C43 C44 1.338 1_554 S
C43 N46 1.377 . S
C43 H63 0.930 . S
C44 N42 1.375 1_556 S
C44 C43 1.338 1_556 S
C44 H48 0.931 . S
C45 N42 1.313 . S
C45 N46 1.344 . S
C45 H49 0.930 . S
N46 C43 1.377 . S
N46 C45 1.344 . S
O47 Co39 2.055 . S
O47 C51 1.253 1_556 S
H48 C44 0.931 . S
H49 C45 0.930 . S
O50 Co39 2.039 . S
O50 C40 1.265 . S
C51 O47 1.253 1_554 S
C51 O52 1.227 . S
O52 C51 1.227 . S
N53 Co39 2.140 . S
N53 C56 1.346 . S
N53 C57 1.345 1_556 S
C54 C55 1.387 . S
C54 C58 1.391 1_556 S
C55 C54 1.387 . S
C55 C56 1.369 . S
C55 H64 0.929 . S
C56 N53 1.346 . S
C56 C55 1.369 . S
C56 H59 0.928 . S
C57 N53 1.345 1_554 S
C57 C58 1.371 . S
C57 H60 0.931 . S
C58 C54 1.391 1_554 S
C58 C57 1.371 . S
C58 H65 0.930 . S
H59 C56 0.928 . S
H60 C57 0.931 . S
H61 C37 0.930 . S
H62 C34 0.930 . S
H63 C43 0.930 . S
H64 C55 0.929 . S
H65 C58 0.930 . S
C66 C67 1.351 . S
C66 N69 1.368 . S
C66 H71 0.931 . S
C67 C66 1.351 . S
C67 N68 1.373 . S
C67 H95 0.930 . S
N68 C67 1.373 . S
N68 C70 1.340 . S
N69 C66 1.368 . S
N69 C70 1.321 . S
N69 Co72 2.135 . S
C70 N68 1.340 . S
C70 N69 1.321 . S
C70 H94 0.930 . S
H71 C66 0.931 . S
Co72 N69 2.135 . S
Co72 N75 2.121 . S
Co72 O80 2.055 . S
Co72 O83 2.039 . S
Co72 N86 2.140 . S
C73 O74 1.227 . S
C73 O83 1.265 . S
O74 C73 1.227 . S
N75 Co72 2.121 . S
N75 C77 1.375 . S
N75 C78 1.313 . S
C76 C77 1.338 . S
C76 N79 1.377 . S
C76 H96 0.930 . S
C77 N75 1.375 . S
C77 C76 1.338 . S
C77 H81 0.931 . S
C78 N75 1.313 . S
C78 N79 1.344 . S
C78 H82 0.930 . S
N79 C76 1.377 . S
N79 C78 1.344 . S
O80 Co72 2.055 . S
O80 C84 1.253 . S
H81 C77 0.931 . S
H82 C78 0.930 . S
O83 Co72 2.039 . S
O83 C73 1.265 . S
C84 O80 1.253 . S
C84 O85 1.227 . S
O85 C84 1.227 . S
N86 Co72 2.140 . S
N86 C89 1.346 . S
N86 C90 1.345 . S
C87 C88 1.387 . S
C87 C91 1.391 . S
C88 C87 1.387 . S
C88 C89 1.369 . S
C88 H97 0.929 . S
C89 N86 1.346 . S
C89 C88 1.369 . S
C89 H92 0.928 . S
C90 N86 1.345 . S
C90 C91 1.371 . S
C90 H93 0.931 . S
C91 C87 1.391 . S
C91 C90 1.371 . S
C91 H98 0.930 . S
H92 C89 0.928 . S
H93 C90 0.931 . S
H94 C70 0.930 . S
H95 C67 0.930 . S
H96 C76 0.930 . S
H97 C88 0.929 . S
H98 C91 0.930 . S
C99 C100 1.351 . S
C99 N102 1.368 . S
C99 H104 0.931 . S
C100 C99 1.351 . S
C100 N101 1.373 . S
C100 H128 0.930 . S
N101 C100 1.373 . S
N101 C103 1.340 . S
N102 C99 1.368 . S
N102 C103 1.321 . S
N102 Co105 2.135 1_655 S
C103 N101 1.340 . S
C103 N102 1.321 . S
C103 H127 0.930 . S
H104 C99 0.931 . S
Co105 N102 2.135 1_455 S
Co105 N108 2.121 1_556 S
Co105 O113 2.055 1_455 S
Co105 O116 2.039 . S
Co105 N119 2.140 1_455 S
C106 O107 1.227 . S
C106 O116 1.265 . S
O107 C106 1.227 . S
N108 Co105 2.121 1_554 S
N108 C110 1.375 1_554 S
N108 C111 1.313 . S
C109 C110 1.338 1_554 S
C109 N112 1.377 . S
C109 H129 0.930 . S
C110 N108 1.375 1_556 S
C110 C109 1.338 1_556 S
C110 H114 0.931 . S
C111 N108 1.313 . S
C111 N112 1.344 . S
C111 H115 0.930 . S
N112 C109 1.377 . S
N112 C111 1.344 . S
O113 Co105 2.055 1_655 S
O113 C117 1.253 1_556 S
H114 C110 0.931 . S
H115 C111 0.930 . S
O116 Co105 2.039 . S
O116 C106 1.265 . S
C117 O113 1.253 1_554 S
C117 O118 1.227 . S
O118 C117 1.227 . S
N119 Co105 2.140 1_655 S
N119 C122 1.346 . S
N119 C123 1.345 1_556 S
C120 C121 1.387 . S
C120 C124 1.391 1_556 S
C121 C120 1.387 . S
C121 C122 1.369 . S
C121 H130 0.929 . S
C122 N119 1.346 . S
C122 C121 1.369 . S
C122 H125 0.928 . S
C123 N119 1.345 1_554 S
C123 C124 1.371 . S
C123 H126 0.931 1_655 S
C124 C120 1.391 1_554 S
C124 C123 1.371 . S
C124 H131 0.930 . S
H125 C122 0.928 . S
H126 C123 0.931 1_455 S
H127 C103 0.930 . S
H128 C100 0.930 . S
H129 C109 0.930 . S
H130 C121 0.929 . S
H131 C124 0.930 . S
C132 C133 1.351 . S
C132 N135 1.368 . S
C132 H137 0.931 . S
C133 C132 1.351 . S
C133 N134 1.373 . S
C133 H161 0.930 . S
N134 C133 1.373 . S
N134 C136 1.340 . S
N135 C132 1.368 . S
N135 C136 1.321 . S
N135 Co138 2.135 1_545 S
C136 N134 1.340 . S
C136 N135 1.321 . S
C136 H160 0.930 . S
H137 C132 0.931 . S
Co138 N135 2.135 1_565 S
Co138 N141 2.121 . S
Co138 O146 2.055 1_565 S
Co138 O149 2.039 . S
Co138 N152 2.140 1_565 S
C139 O140 1.227 . S
C139 O149 1.265 . S
O140 C139 1.227 . S
N141 Co138 2.121 . S
N141 C143 1.375 . S
N141 C144 1.313 . S
C142 C143 1.338 . S
C142 N145 1.377 . S
C142 H162 0.930 . S
C143 N141 1.375 . S
C143 C142 1.338 . S
C143 H147 0.931 . S
C144 N141 1.313 . S
C144 N145 1.344 . S
C144 H148 0.930 . S
N145 C142 1.377 . S
N145 C144 1.344 . S
O146 Co138 2.055 1_545 S
O146 C150 1.253 . S
H147 C143 0.931 . S
H148 C144 0.930 . S
O149 Co138 2.039 . S
O149 C139 1.265 . S
C150 O146 1.253 . S
C150 O151 1.227 . S
O151 C150 1.227 . S
N152 Co138 2.140 1_545 S
N152 C155 1.346 . S
N152 C156 1.345 . S
C153 C154 1.387 . S
C153 C157 1.391 . S
C154 C153 1.387 . S
C154 C155 1.369 . S
C154 H163 0.929 . S
C155 N152 1.346 . S
C155 C154 1.369 . S
C155 H158 0.928 . S
C156 N152 1.345 . S
C156 C157 1.371 . S
C156 H159 0.931 1_545 S
C157 C153 1.391 . S
C157 C156 1.371 . S
C157 H164 0.930 . S
H158 C155 0.928 . S
H159 C156 0.931 1_565 S
H160 C136 0.930 . S
H161 C133 0.930 . S
H162 C142 0.930 . S
H163 C154 0.929 . S
H164 C157 0.930 . S
C165 C166 1.351 . S
C165 N168 1.368 . S
C165 H170 0.931 . S
C166 C165 1.351 . S
C166 N167 1.373 . S
C166 H194 0.930 . S
N167 C166 1.373 . S
N167 C169 1.340 . S
N168 C165 1.368 . S
N168 C169 1.321 . S
N168 Co171 2.135 . S
C169 N167 1.340 . S
C169 N168 1.321 . S
C169 H193 0.930 . S
H170 C165 0.931 . S
Co171 N168 2.135 . S
Co171 N174 2.121 . S
Co171 O179 2.055 . S
Co171 O182 2.039 . S
Co171 N185 2.140 . S
C172 O173 1.227 . S
C172 O182 1.265 . S
O173 C172 1.227 . S
N174 Co171 2.121 . S
N174 C176 1.375 . S
N174 C177 1.313 1_554 S
C175 C176 1.338 1_556 S
C175 N178 1.377 . S
C175 H195 0.930 . S
C176 N174 1.375 . S
C176 C175 1.338 1_554 S
C176 H180 0.931 . S
C177 N174 1.313 1_556 S
C177 N178 1.344 . S
C177 H181 0.930 . S
N178 C175 1.377 . S
N178 C177 1.344 . S
O179 Co171 2.055 . S
O179 C183 1.253 1_554 S
H180 C176 0.931 . S
H181 C177 0.930 . S
O182 Co171 2.039 . S
O182 C172 1.265 . S
C183 O179 1.253 1_556 S
C183 O184 1.227 . S
O184 C183 1.227 . S
N185 Co171 2.140 . S
N185 C188 1.346 . S
N185 C189 1.345 . S
C186 C187 1.387 . S
C186 C190 1.391 . S
C187 C186 1.387 . S
C187 C188 1.369 . S
C187 H196 0.929 . S
C188 N185 1.346 . S
C188 C187 1.369 . S
C188 H191 0.928 . S
C189 N185 1.345 . S
C189 C190 1.371 . S
C189 H192 0.931 1_554 S
C190 C186 1.391 . S
C190 C189 1.371 . S
C190 H197 0.929 1_554 S
H191 C188 0.928 . S
H192 C189 0.931 1_556 S
H193 C169 0.930 . S
H194 C166 0.930 . S
H195 C175 0.930 . S
H196 C187 0.929 . S
H197 C190 0.929 1_556 S
C198 C199 1.351 . S
C198 N201 1.368 . S
C198 H203 0.931 . S
C199 C198 1.351 . S
C199 N200 1.373 . S
C199 H227 0.930 . S
N200 C199 1.373 . S
N200 C202 1.340 . S
N201 C198 1.368 . S
N201 C202 1.321 . S
N201 Co204 2.135 . S
C202 N200 1.340 . S
C202 N201 1.321 . S
C202 H226 0.930 . S
H203 C198 0.931 . S
Co204 N201 2.135 . S
Co204 N207 2.121 . S
Co204 O212 2.055 . S
Co204 O215 2.039 . S
Co204 N218 2.140 . S
C205 O206 1.227 . S
C205 O215 1.265 . S
O206 C205 1.227 . S
N207 Co204 2.121 . S
N207 C209 1.375 . S
N207 C210 1.313 . S
C208 C209 1.338 . S
C208 N211 1.377 . S
C208 H228 0.930 . S
C209 N207 1.375 . S
C209 C208 1.338 . S
C209 H213 0.931 . S
C210 N207 1.313 . S
C210 N211 1.344 . S
C210 H214 0.930 . S
N211 C208 1.377 . S
N211 C210 1.344 . S
O212 Co204 2.055 . S
O212 C216 1.253 . S
H213 C209 0.931 . S
H214 C210 0.930 . S
O215 Co204 2.039 . S
O215 C205 1.265 . S
C216 O212 1.253 . S
C216 O217 1.227 . S
O217 C216 1.227 . S
N218 Co204 2.140 . S
N218 C221 1.346 . S
N218 C222 1.345 . S
C219 C220 1.387 . S
C219 C223 1.391 . S
C220 C219 1.387 . S
C220 C221 1.369 . S
C220 H229 0.929 . S
C221 N218 1.346 . S
C221 C220 1.369 . S
C221 H224 0.928 . S
C222 N218 1.345 . S
C222 C223 1.371 . S
C222 H225 0.931 . S
C223 C219 1.391 . S
C223 C222 1.371 . S
C223 H230 0.930 . S
H224 C221 0.928 . S
H225 C222 0.931 . S
H226 C202 0.930 . S
H227 C199 0.930 . S
H228 C208 0.930 . S
H229 C220 0.929 . S
H230 C223 0.930 . S
C231 C232 1.351 . S
C231 N234 1.368 1_455 S
C231 H236 0.931 . S
C232 C231 1.351 . S
C232 N233 1.373 . S
C232 H260 0.930 . S
N233 C232 1.373 . S
N233 C235 1.340 1_455 S
N234 C231 1.368 1_655 S
N234 C235 1.321 . S
N234 Co237 2.135 . S
C235 N233 1.340 1_655 S
C235 N234 1.321 . S
C235 H259 0.930 . S
H236 C231 0.931 . S
Co237 N234 2.135 . S
Co237 N240 2.121 . S
Co237 O245 2.055 . S
Co237 O248 2.039 . S
Co237 N251 2.140 . S
C238 O239 1.227 . S
C238 O248 1.265 . S
O239 C238 1.227 . S
N240 Co237 2.121 . S
N240 C242 1.375 . S
N240 C243 1.313 1_554 S
C241 C242 1.338 1_556 S
C241 N244 1.377 . S
C241 H261 0.930 . S
C242 N240 1.375 . S
C242 C241 1.338 1_554 S
C242 H246 0.931 . S
C243 N240 1.313 1_556 S
C243 N244 1.344 . S
C243 H247 0.930 . S
N244 C241 1.377 . S
N244 C243 1.344 . S
O245 Co237 2.055 . S
O245 C249 1.253 1_554 S
H246 C242 0.931 . S
H247 C243 0.930 . S
O248 Co237 2.039 . S
O248 C238 1.265 . S
C249 O245 1.253 1_556 S
C249 O250 1.227 . S
O250 C249 1.227 . S
N251 Co237 2.140 . S
N251 C254 1.346 . S
N251 C255 1.345 . S
C252 C253 1.387 . S
C252 C256 1.391 1_554 S
C253 C252 1.387 . S
C253 C254 1.369 . S
C253 H262 0.929 . S
C254 N251 1.346 . S
C254 C253 1.369 . S
C254 H257 0.928 . S
C255 N251 1.345 . S
C255 C256 1.371 1_554 S
C255 H258 0.931 1_554 S
C256 C252 1.391 1_556 S
C256 C255 1.371 1_556 S
C256 H263 0.930 . S
H257 C254 0.928 . S
H258 C255 0.931 1_556 S
H259 C235 0.930 . S
H260 C232 0.930 . S
H261 C241 0.930 . S
H262 C253 0.929 . S
H263 C256 0.930 . S
C264 C265 1.351 . S
C264 N267 1.368 1_545 S
C264 H269 0.931 . S
C265 C264 1.351 . S
C265 N266 1.373 . S
C265 H293 0.930 . S
N266 C265 1.373 . S
N266 C268 1.340 1_545 S
N267 C264 1.368 1_565 S
N267 C268 1.321 . S
N267 Co270 2.135 . S
C268 N266 1.340 1_565 S
C268 N267 1.321 . S
C268 H292 0.930 . S
H269 C264 0.931 . S
Co270 N267 2.135 . S
Co270 N273 2.121 . S
Co270 O278 2.055 . S
Co270 O281 2.039 . S
Co270 N284 2.140 . S
C271 O272 1.227 . S
C271 O281 1.265 . S
O272 C271 1.227 . S
N273 Co270 2.121 . S
N273 C275 1.375 . S
N273 C276 1.313 . S
C274 C275 1.338 . S
C274 N277 1.377 . S
C274 H294 0.930 . S
C275 N273 1.375 . S
C275 C274 1.338 . S
C275 H279 0.931 . S
C276 N273 1.313 . S
C276 N277 1.344 . S
C276 H280 0.930 . S
N277 C274 1.377 . S
N277 C276 1.344 . S
O278 Co270 2.055 . S
O278 C282 1.253 . S
H279 C275 0.931 . S
H280 C276 0.930 . S
O281 Co270 2.039 . S
O281 C271 1.265 . S
C282 O278 1.253 . S
C282 O283 1.227 . S
O283 C282 1.227 . S
N284 Co270 2.140 . S
N284 C287 1.346 . S
N284 C288 1.345 . S
C285 C286 1.387 . S
C285 C289 1.391 . S
C286 C285 1.387 . S
C286 C287 1.369 . S
C286 H295 0.929 . S
C287 N284 1.346 . S
C287 C286 1.369 . S
C287 H290 0.928 . S
C288 N284 1.345 . S
C288 C289 1.371 . S
C288 H291 0.931 . S
C289 C285 1.391 . S
C289 C288 1.371 . S
C289 H296 0.930 . S
H290 C287 0.928 . S
H291 C288 0.931 . S
H292 C268 0.930 . S
H293 C265 0.930 . S
H294 C274 0.930 . S
H295 C286 0.929 . S
H296 C289 0.930 . S
C297 C298 1.351 . S
C297 N300 1.368 . S
C297 H302 0.931 . S
C298 C297 1.351 . S
C298 N299 1.373 . S
C298 H326 0.930 . S
N299 C298 1.373 . S
N299 C301 1.340 . S
N300 C297 1.368 . S
N300 C301 1.321 . S
N300 Co303 2.135 . S
C301 N299 1.340 . S
C301 N300 1.321 . S
C301 H325 0.930 . S
H302 C297 0.931 . S
Co303 N300 2.135 . S
Co303 N306 2.121 1_554 S
Co303 O311 2.055 . S
Co303 O314 2.039 . S
Co303 N317 2.140 . S
C304 O305 1.227 . S
C304 O314 1.265 . S
O305 C304 1.227 . S
N306 Co303 2.121 1_556 S
N306 C308 1.375 1_556 S
N306 C309 1.313 . S
C307 C308 1.338 1_556 S
C307 N310 1.377 . S
C307 H327 0.930 . S
C308 N306 1.375 1_554 S
C308 C307 1.338 1_554 S
C308 H312 0.931 . S
C309 N306 1.313 . S
C309 N310 1.344 . S
C309 H313 0.930 . S
N310 C307 1.377 . S
N310 C309 1.344 . S
O311 Co303 2.055 . S
O311 C315 1.253 1_554 S
H312 C308 0.931 . S
H313 C309 0.930 . S
O314 Co303 2.039 . S
O314 C304 1.265 . S
C315 O311 1.253 1_556 S
C315 O316 1.227 . S
O316 C315 1.227 . S
N317 Co303 2.140 . S
N317 C320 1.346 . S
N317 C321 1.345 1_554 S
C318 C319 1.387 . S
C318 C322 1.391 1_554 S
C319 C318 1.387 . S
C319 C320 1.369 . S
C319 H328 0.929 . S
C320 N317 1.346 . S
C320 C319 1.369 . S
C320 H323 0.928 . S
C321 N317 1.345 1_556 S
C321 C322 1.371 . S
C321 H324 0.931 . S
C322 C318 1.391 1_556 S
C322 C321 1.371 . S
C322 H329 0.930 . S
H323 C320 0.928 . S
H324 C321 0.931 . S
H325 C301 0.930 . S
H326 C298 0.930 . S
H327 C307 0.930 . S
H328 C319 0.929 . S
H329 C322 0.930 . S
C330 C331 1.351 . S
C330 N333 1.368 . S
C330 H335 0.931 . S
C331 C330 1.351 . S
C331 N332 1.373 . S
C331 H359 0.930 . S
N332 C331 1.373 . S
N332 C334 1.340 . S
N333 C330 1.368 . S
N333 C334 1.321 . S
N333 Co336 2.135 . S
C334 N332 1.340 . S
C334 N333 1.321 . S
C334 H358 0.930 . S
H335 C330 0.931 . S
Co336 N333 2.135 . S
Co336 N339 2.121 . S
Co336 O344 2.055 . S
Co336 O347 2.039 . S
Co336 N350 2.140 . S
C337 O338 1.227 . S
C337 O347 1.265 . S
O338 C337 1.227 . S
N339 Co336 2.121 . S
N339 C341 1.375 . S
N339 C342 1.313 . S
C340 C341 1.338 . S
C340 N343 1.377 . S
C340 H360 0.930 . S
C341 N339 1.375 . S
C341 C340 1.338 . S
C341 H345 0.931 . S
C342 N339 1.313 . S
C342 N343 1.344 . S
C342 H346 0.930 . S
N343 C340 1.377 . S
N343 C342 1.344 . S
O344 Co336 2.055 . S
O344 C348 1.253 . S
H345 C341 0.931 . S
H346 C342 0.930 . S
O347 Co336 2.039 . S
O347 C337 1.265 . S
C348 O344 1.253 . S
C348 O349 1.227 . S
O349 C348 1.227 . S
N350 Co336 2.140 . S
N350 C353 1.346 . S
N350 C354 1.345 . S
C351 C352 1.387 . S
C351 C355 1.391 . S
C352 C351 1.387 . S
C352 C353 1.369 . S
C352 H361 0.929 . S
C353 N350 1.346 . S
C353 C352 1.369 . S
C353 H356 0.928 . S
C354 N350 1.345 . S
C354 C355 1.371 . S
C354 H357 0.931 . S
C355 C351 1.391 . S
C355 C354 1.371 . S
C355 H362 0.930 . S
H356 C353 0.928 . S
H357 C354 0.931 . S
H358 C334 0.930 . S
H359 C331 0.930 . S
H360 C340 0.930 . S
H361 C352 0.929 . S
H362 C355 0.930 . S
C363 C364 1.351 . S
C363 N366 1.368 . S
C363 H368 0.931 . S
C364 C363 1.351 . S
C364 N365 1.373 . S
C364 H392 0.930 . S
N365 C364 1.373 . S
N365 C367 1.340 . S
N366 C363 1.368 . S
N366 C367 1.321 . S
N366 Co369 2.135 1_455 S
C367 N365 1.340 . S
C367 N366 1.321 . S
C367 H391 0.930 . S
H368 C363 0.931 . S
Co369 N366 2.135 1_655 S
Co369 N372 2.121 1_554 S
Co369 O377 2.055 1_655 S
Co369 O380 2.039 . S
Co369 N383 2.140 1_655 S
C370 O371 1.227 . S
C370 O380 1.265 . S
O371 C370 1.227 . S
N372 Co369 2.121 1_556 S
N372 C374 1.375 1_556 S
N372 C375 1.313 . S
C373 C374 1.338 1_556 S
C373 N376 1.377 . S
C373 H393 0.930 . S
C374 N372 1.375 1_554 S
C374 C373 1.338 1_554 S
C374 H378 0.931 . S
C375 N372 1.313 . S
C375 N376 1.344 . S
C375 H379 0.930 . S
N376 C373 1.377 . S
N376 C375 1.344 . S
O377 Co369 2.055 1_455 S
O377 C381 1.253 1_554 S
H378 C374 0.931 . S
H379 C375 0.930 . S
O380 Co369 2.039 . S
O380 C370 1.265 . S
C381 O377 1.253 1_556 S
C381 O382 1.227 . S
O382 C381 1.227 . S
N383 Co369 2.140 1_455 S
N383 C386 1.346 . S
N383 C387 1.345 1_554 S
C384 C385 1.387 . S
C384 C388 1.391 1_554 S
C385 C384 1.387 . S
C385 C386 1.369 . S
C385 H394 0.929 . S
C386 N383 1.346 . S
C386 C385 1.369 . S
C386 H389 0.928 . S
C387 N383 1.345 1_556 S
C387 C388 1.371 . S
C387 H390 0.931 1_455 S
C388 C384 1.391 1_556 S
C388 C387 1.371 . S
C388 H395 0.930 . S
H389 C386 0.928 . S
H390 C387 0.931 1_655 S
H391 C367 0.930 . S
H392 C364 0.930 . S
H393 C373 0.930 . S
H394 C385 0.929 . S
H395 C388 0.930 . S
C396 C397 1.351 . S
C396 N399 1.368 . S
C396 H401 0.931 . S
C397 C396 1.351 . S
C397 N398 1.373 . S
C397 H425 0.930 . S
N398 C397 1.373 . S
N398 C400 1.340 . S
N399 C396 1.368 . S
N399 C400 1.321 . S
N399 Co402 2.135 1_565 S
C400 N398 1.340 . S
C400 N399 1.321 . S
C400 H424 0.930 . S
H401 C396 0.931 . S
Co402 N399 2.135 1_545 S
Co402 N405 2.121 . S
Co402 O410 2.055 1_545 S
Co402 O413 2.039 . S
Co402 N416 2.140 1_545 S
C403 O404 1.227 . S
C403 O413 1.265 . S
O404 C403 1.227 . S
N405 Co402 2.121 . S
N405 C407 1.375 . S
N405 C408 1.313 . S
C406 C407 1.338 . S
C406 N409 1.377 . S
C406 H426 0.930 . S
C407 N405 1.375 . S
C407 C406 1.338 . S
C407 H411 0.931 . S
C408 N405 1.313 . S
C408 N409 1.344 . S
C408 H412 0.930 . S
N409 C406 1.377 . S
N409 C408 1.344 . S
O410 Co402 2.055 1_565 S
O410 C414 1.253 . S
H411 C407 0.931 . S
H412 C408 0.930 . S
O413 Co402 2.039 . S
O413 C403 1.265 . S
C414 O410 1.253 . S
C414 O415 1.227 . S
O415 C414 1.227 . S
N416 Co402 2.140 1_565 S
N416 C419 1.346 . S
N416 C420 1.345 . S
C417 C418 1.387 . S
C417 C421 1.391 . S
C418 C417 1.387 . S
C418 C419 1.369 . S
C418 H427 0.929 . S
C419 N416 1.346 . S
C419 C418 1.369 . S
C419 H422 0.928 . S
C420 N416 1.345 . S
C420 C421 1.371 . S
C420 H423 0.931 1_565 S
C421 C417 1.391 . S
C421 C420 1.371 . S
C421 H428 0.930 . S
H422 C419 0.928 . S
H423 C420 0.931 1_545 S
H424 C400 0.930 . S
H425 C397 0.930 . S
H426 C406 0.930 . S
H427 C418 0.929 . S
H428 C421 0.930 . S
C429 C430 1.351 . S
C429 N432 1.368 . S
C429 H434 0.931 . S
C430 C429 1.351 . S
C430 N431 1.373 . S
C430 H458 0.930 . S
N431 C430 1.373 . S
N431 C433 1.340 . S
N432 C429 1.368 . S
N432 C433 1.321 . S
N432 Co435 2.135 . S
C433 N431 1.340 . S
C433 N432 1.321 . S
C433 H457 0.930 . S
H434 C429 0.931 . S
Co435 N432 2.135 . S
Co435 N438 2.121 . S
Co435 O443 2.055 . S
Co435 O446 2.039 . S
Co435 N449 2.140 . S
C436 O437 1.227 . S
C436 O446 1.265 . S
O437 C436 1.227 . S
N438 Co435 2.121 . S
N438 C440 1.375 . S
N438 C441 1.313 1_556 S
C439 C440 1.338 1_554 S
C439 N442 1.377 . S
C439 H459 0.930 . S
C440 N438 1.375 . S
C440 C439 1.338 1_556 S
C440 H444 0.931 . S
C441 N438 1.313 1_554 S
C441 N442 1.344 . S
C441 H445 0.930 . S
N442 C439 1.377 . S
N442 C441 1.344 . S
O443 Co435 2.055 . S
O443 C447 1.253 1_556 S
H444 C440 0.931 . S
H445 C441 0.930 . S
O446 Co435 2.039 . S
O446 C436 1.265 . S
C447 O443 1.253 1_554 S
C447 O448 1.227 . S
O448 C447 1.227 . S
N449 Co435 2.140 . S
N449 C452 1.346 . S
N449 C453 1.345 . S
C450 C451 1.387 . S
C450 C454 1.391 . S
C451 C450 1.387 . S
C451 C452 1.369 . S
C451 H460 0.929 . S
C452 N449 1.346 . S
C452 C451 1.369 . S
C452 H455 0.928 . S
C453 N449 1.345 . S
C453 C454 1.371 . S
C453 H456 0.931 1_556 S
C454 C450 1.391 . S
C454 C453 1.371 . S
C454 H461 0.929 1_556 S
H455 C452 0.928 . S
H456 C453 0.931 1_554 S
H457 C433 0.930 . S
H458 C430 0.930 . S
H459 C439 0.930 . S
H460 C451 0.929 . S
H461 C454 0.929 1_554 S
C462 C463 1.351 . S
C462 N465 1.368 . S
C462 H467 0.931 . S
C463 C462 1.351 . S
C463 N464 1.373 . S
C463 H491 0.930 . S
N464 C463 1.373 . S
N464 C466 1.340 . S
N465 C462 1.368 . S
N465 C466 1.321 . S
N465 Co468 2.135 . S
C466 N464 1.340 . S
C466 N465 1.321 . S
C466 H490 0.930 . S
H467 C462 0.931 . S
Co468 N465 2.135 . S
Co468 N471 2.121 . S
Co468 O476 2.055 . S
Co468 O479 2.039 . S
Co468 N482 2.140 . S
C469 O470 1.227 . S
C469 O479 1.265 . S
O470 C469 1.227 . S
N471 Co468 2.121 . S
N471 C473 1.375 . S
N471 C474 1.313 . S
C472 C473 1.338 . S
C472 N475 1.377 . S
C472 H492 0.930 . S
C473 N471 1.375 . S
C473 C472 1.338 . S
C473 H477 0.931 . S
C474 N471 1.313 . S
C474 N475 1.344 . S
C474 H478 0.930 . S
N475 C472 1.377 . S
N475 C474 1.344 . S
O476 Co468 2.055 . S
O476 C480 1.253 . S
H477 C473 0.931 . S
H478 C474 0.930 . S
O479 Co468 2.039 . S
O479 C469 1.265 . S
C480 O476 1.253 . S
C480 O481 1.227 . S
O481 C480 1.227 . S
N482 Co468 2.140 . S
N482 C485 1.346 . S
N482 C486 1.345 . S
C483 C484 1.387 . S
C483 C487 1.391 . S
C484 C483 1.387 . S
C484 C485 1.369 . S
C484 H493 0.929 . S
C485 N482 1.346 . S
C485 C484 1.369 . S
C485 H488 0.928 . S
C486 N482 1.345 . S
C486 C487 1.371 . S
C486 H489 0.931 . S
C487 C483 1.391 . S
C487 C486 1.371 . S
C487 H494 0.930 . S
H488 C485 0.928 . S
H489 C486 0.931 . S
H490 C466 0.930 . S
H491 C463 0.930 . S
H492 C472 0.930 . S
H493 C484 0.929 . S
H494 C487 0.930 . S
C495 C496 1.351 . S
C495 N498 1.368 1_655 S
C495 H500 0.931 . S
C496 C495 1.351 . S
C496 N497 1.373 . S
C496 H524 0.930 . S
N497 C496 1.373 . S
N497 C499 1.340 1_655 S
N498 C495 1.368 1_455 S
N498 C499 1.321 . S
N498 Co501 2.135 . S
C499 N497 1.340 1_455 S
C499 N498 1.321 . S
C499 H523 0.930 . S
H500 C495 0.931 . S
Co501 N498 2.135 . S
Co501 N504 2.121 . S
Co501 O509 2.055 . S
Co501 O512 2.039 . S
Co501 N515 2.140 . S
C502 O503 1.227 . S
C502 O512 1.265 . S
O503 C502 1.227 . S
N504 Co501 2.121 . S
N504 C506 1.375 . S
N504 C507 1.313 1_556 S
C505 C506 1.338 1_554 S
C505 N508 1.377 . S
C505 H525 0.930 . S
C506 N504 1.375 . S
C506 C505 1.338 1_556 S
C506 H510 0.931 . S
C507 N504 1.313 1_554 S
C507 N508 1.344 . S
C507 H511 0.930 . S
N508 C505 1.377 . S
N508 C507 1.344 . S
O509 Co501 2.055 . S
O509 C513 1.253 1_556 S
H510 C506 0.931 . S
H511 C507 0.930 . S
O512 Co501 2.039 . S
O512 C502 1.265 . S
C513 O509 1.253 1_554 S
C513 O514 1.227 . S
O514 C513 1.227 . S
N515 Co501 2.140 . S
N515 C518 1.346 . S
N515 C519 1.345 . S
C516 C517 1.387 . S
C516 C520 1.391 1_556 S
C517 C516 1.387 . S
C517 C518 1.369 . S
C517 H526 0.929 . S
C518 N515 1.346 . S
C518 C517 1.369 . S
C518 H521 0.928 . S
C519 N515 1.345 . S
C519 C520 1.371 1_556 S
C519 H522 0.931 1_556 S
C520 C516 1.391 1_554 S
C520 C519 1.371 1_554 S
C520 H527 0.930 . S
H521 C518 0.928 . S
H522 C519 0.931 1_554 S
H523 C499 0.930 . S
H524 C496 0.930 . S
H525 C505 0.930 . S
H526 C517 0.929 . S
H527 C520 0.930 . S
C528 C529 1.387 1_545 S
C528 H532 0.950 . S
C528 C537 1.390 1_655 S
C529 C528 1.387 1_565 S
C529 C531 1.387 . S
H530 C537 0.950 . S
C531 C529 1.387 . S
C531 C533 1.390 1_655 S
C531 H535 0.950 . S
H532 C528 0.950 . S
C533 C531 1.390 1_455 S
C533 C534 1.387 1_565 S
C533 H536 0.950 . S
C534 C533 1.387 1_545 S
C534 C537 1.387 . S
H535 C531 0.950 . S
H536 C533 0.950 . S
C537 C528 1.390 1_455 S
C537 H530 0.950 . S
C537 C534 1.387 . S
C538 C539 1.387 1_556 S
C538 H542 0.950 . S
C538 C547 1.392 . S
C539 C538 1.387 1_554 S
C539 C541 1.386 1_545 S
H540 C547 0.949 . S
C541 C539 1.386 1_565 S
C541 C543 1.392 . S
C541 H545 0.949 . S
H542 C538 0.950 . S
C543 C541 1.392 . S
C543 C544 1.387 1_554 S
C543 H546 0.950 . S
C544 C543 1.387 1_556 S
C544 C547 1.386 1_565 S
H545 C541 0.949 . S
H546 C543 0.950 . S
C547 C538 1.392 . S
C547 H540 0.949 . S
C547 C544 1.386 1_545 S
C548 C549 1.387 . S
C548 H552 0.950 . S
C548 C557 1.390 . S
C549 C548 1.387 . S
C549 C551 1.387 . S
H550 C557 0.950 . S
C551 C549 1.387 . S
C551 C553 1.390 . S
C551 H555 0.950 . S
H552 C548 0.950 . S
C553 C551 1.390 . S
C553 C554 1.387 . S
C553 H556 0.950 . S
C554 C553 1.387 . S
C554 C557 1.387 . S
H555 C551 0.950 . S
H556 C553 0.950 . S
C557 C548 1.390 . S
C557 H550 0.950 . S
C557 C554 1.387 . S
C558 C559 1.387 1_554 S
C558 H562 0.950 . S
C558 C567 1.390 . S
C559 C558 1.387 1_556 S
C559 C561 1.387 1_455 S
H560 C567 0.950 . S
C561 C559 1.387 1_655 S
C561 C563 1.390 . S
C561 H565 0.950 . S
H562 C558 0.950 . S
C563 C561 1.390 . S
C563 C564 1.387 1_556 S
C563 H566 0.950 . S
C564 C563 1.387 1_554 S
C564 C567 1.387 1_655 S
H565 C561 0.950 . S
H566 C563 0.950 . S
C567 C558 1.390 . S
C567 H560 0.950 . S
C567 C564 1.387 1_455 S
C568 C569 1.387 . S
C568 H572 0.950 . S
C568 C577 1.390 . S
C569 C568 1.387 . S
C569 C571 1.387 1_545 S
H570 C577 0.950 . S
C571 C569 1.387 1_565 S
C571 C573 1.390 . S
C571 H575 0.950 . S
H572 C568 0.950 . S
C573 C571 1.390 . S
C573 C574 1.387 . S
C573 H576 0.950 . S
C574 C573 1.387 . S
C574 C577 1.387 1_565 S
H575 C571 0.950 . S
H576 C573 0.950 . S
C577 C568 1.390 . S
C577 H570 0.950 . S
C577 C574 1.387 1_545 S
C578 C579 1.387 . S
C578 H582 0.950 . S
C578 C587 1.390 . S
C579 C578 1.387 . S
C579 C581 1.387 1_556 S
H580 C587 0.950 . S
C581 C579 1.387 1_554 S
C581 C583 1.390 . S
C581 H585 0.950 . S
H582 C578 0.950 . S
C583 C581 1.390 . S
C583 C584 1.387 . S
C583 H586 0.950 . S
C584 C583 1.387 . S
C584 C587 1.387 1_554 S
H585 C581 0.950 . S
H586 C583 0.950 . S
C587 C578 1.390 . S
C587 H580 0.950 . S
C587 C584 1.387 1_556 S
C588 C589 1.387 . S
C588 H592 0.950 . S
C588 C597 1.408 . S
C589 C588 1.387 . S
C589 C591 1.365 1_655 S
H590 C597 0.955 . S
C591 C589 1.365 1_455 S
C591 C593 1.408 . S
C591 H595 0.955 . S
H592 C588 0.950 . S
C593 C591 1.408 . S
C593 C594 1.387 . S
C593 H596 0.950 . S
C594 C593 1.387 . S
C594 C597 1.365 1_455 S
H595 C591 0.955 . S
H596 C593 0.950 . S
C597 C588 1.408 . S
C597 H590 0.955 . S
C597 C594 1.365 1_655 S
C598 C599 1.387 1_455 S
C598 H602 0.950 . S
C598 C607 1.390 1_565 S
C599 C598 1.387 1_655 S
C599 C601 1.387 1_556 S
H600 C607 0.950 . S
C601 C599 1.387 1_554 S
C601 C603 1.390 1_565 S
C601 H605 0.950 . S
H602 C598 0.950 . S
C603 C601 1.390 1_545 S
C603 C604 1.387 1_655 S
C603 H606 0.950 . S
C604 C603 1.387 1_455 S
C604 C607 1.387 1_554 S
H605 C601 0.950 . S
H606 C603 0.950 . S
C607 C598 1.390 1_545 S
C607 H600 0.950 . S
C607 C604 1.387 1_556 S
C608 C609 1.387 . S
C608 H612 0.950 . S
C608 C617 1.390 . S
C609 C608 1.387 . S
C609 C611 1.387 . S
H610 C617 0.950 . S
C611 C609 1.387 . S
C611 C613 1.390 . S
C611 H615 0.950 . S
H612 C608 0.950 . S
C613 C611 1.390 . S
C613 C614 1.387 . S
C613 H616 0.950 . S
C614 C613 1.387 . S
C614 C617 1.387 . S
H615 C611 0.950 . S
H616 C613 0.950 . S
C617 C608 1.390 . S
C617 H610 0.950 . S
C617 C614 1.387 . S
C618 C619 1.387 . S
C618 H622 0.950 . S
C618 C627 1.390 . S
C619 C618 1.387 . S
C619 C621 1.387 . S
H620 C627 0.950 . S
C621 C619 1.387 . S
C621 C623 1.390 . S
C621 H625 0.950 . S
H622 C618 0.950 . S
C623 C621 1.390 . S
C623 C624 1.387 . S
C623 H626 0.950 . S
C624 C623 1.387 . S
C624 C627 1.387 . S
H625 C621 0.950 . S
H626 C623 0.950 . S
C627 C618 1.390 . S
C627 H620 0.950 . S
C627 C624 1.387 . S
C628 C629 1.387 . S
C628 H632 0.950 . S
C628 C637 1.390 . S
C629 C628 1.387 . S
C629 C631 1.387 . S
H630 C637 0.950 . S
C631 C629 1.387 . S
C631 C633 1.390 . S
C631 H635 0.950 . S
H632 C628 0.950 . S
C633 C631 1.390 . S
C633 C634 1.387 . S
C633 H636 0.950 . S
C634 C633 1.387 . S
C634 C637 1.387 . S
H635 C631 0.950 . S
H636 C633 0.950 . S
C637 C628 1.390 . S
C637 H630 0.950 . S
C637 C634 1.387 . S
C638 C639 1.387 . S
C638 H642 0.950 . S
C638 C647 1.390 . S
C639 C638 1.387 . S
C639 C641 1.387 . S
H640 C647 0.950 . S
C641 C639 1.387 . S
C641 C643 1.390 . S
C641 H645 0.950 . S
H642 C638 0.950 . S
C643 C641 1.390 . S
C643 C644 1.387 . S
C643 H646 0.950 . S
C644 C643 1.387 . S
C644 C647 1.387 . S
H645 C641 0.950 . S
H646 C643 0.950 . S
C647 C638 1.390 . S
C647 H640 0.950 . S
C647 C644 1.387 . S
C648 C649 1.387 . S
C648 H652 0.950 . S
C648 C657 1.390 . S
C649 C648 1.387 . S
C649 C651 1.387 . S
H650 C657 0.950 . S
C651 C649 1.387 . S
C651 C653 1.390 . S
C651 H655 0.950 . S
H652 C648 0.950 . S
C653 C651 1.390 . S
C653 C654 1.387 . S
C653 H656 0.950 . S
C654 C653 1.387 . S
C654 C657 1.387 . S
H655 C651 0.950 . S
H656 C653 0.950 . S
C657 C648 1.390 . S
C657 H650 0.950 . S
C657 C654 1.387 . S
C658 C659 1.387 . S
C658 H662 0.950 . S
C658 C667 1.390 . S
C659 C658 1.387 . S
C659 C661 1.387 . S
H660 C667 0.950 . S
C661 C659 1.387 . S
C661 C663 1.390 . S
C661 H665 0.950 . S
H662 C658 0.950 . S
C663 C661 1.390 . S
C663 C664 1.387 . S
C663 H666 0.950 . S
C664 C663 1.387 . S
C664 C667 1.387 . S
H665 C661 0.950 . S
H666 C663 0.950 . S
C667 C658 1.390 . S
C667 H660 0.950 . S
C667 C664 1.387 . S
C668 C669 1.387 . S
C668 H672 0.950 . S
C668 C677 1.390 . S
C669 C668 1.387 . S
C669 C671 1.387 . S
H670 C677 0.950 . S
C671 C669 1.387 . S
C671 C673 1.390 . S
C671 H675 0.950 . S
H672 C668 0.950 . S
C673 C671 1.390 . S
C673 C674 1.387 . S
C673 H676 0.950 . S
C674 C673 1.387 . S
C674 C677 1.387 . S
H675 C671 0.950 . S
H676 C673 0.950 . S
C677 C668 1.390 . S
C677 H670 0.950 . S
C677 C674 1.387 . S
C678 C679 1.387 . S
C678 H682 0.950 . S
C678 C687 1.390 . S
C679 C678 1.387 . S
C679 C681 1.387 . S
H680 C687 0.950 . S
C681 C679 1.387 . S
C681 C683 1.390 . S
C681 H685 0.950 . S
H682 C678 0.950 . S
C683 C681 1.390 . S
C683 C684 1.387 . S
C683 H686 0.950 . S
C684 C683 1.387 . S
C684 C687 1.387 . S
H685 C681 0.950 . S
H686 C683 0.950 . S
C687 C678 1.390 . S
C687 H680 0.950 . S
C687 C684 1.387 . S
C688 C689 1.387 . S
C688 H692 0.950 . S
C688 C697 1.390 . S
C689 C688 1.387 . S
C689 C691 1.387 . S
H690 C697 0.950 . S
C691 C689 1.387 . S
C691 C693 1.390 . S
C691 H695 0.950 . S
H692 C688 0.950 . S
C693 C691 1.390 . S
C693 C694 1.387 . S
C693 H696 0.950 . S
C694 C693 1.387 . S
C694 C697 1.387 . S
H695 C691 0.950 . S
H696 C693 0.950 . S
C697 C688 1.390 . S
C697 H690 0.950 . S
C697 C694 1.387 . S
C698 C699 1.387 . S
C698 H702 0.950 . S
C698 C707 1.390 . S
C699 C698 1.387 . S
C699 C701 1.387 . S
H700 C707 0.950 . S
C701 C699 1.387 . S
C701 C703 1.390 . S
C701 H705 0.950 . S
H702 C698 0.950 . S
C703 C701 1.390 . S
C703 C704 1.387 . S
C703 H706 0.950 . S
C704 C703 1.387 . S
C704 C707 1.387 . S
H705 C701 0.950 . S
H706 C703 0.950 . S
C707 C698 1.390 . S
C707 H700 0.950 . S
C707 C704 1.387 . S
C708 C709 1.387 . S
C708 H712 0.950 . S
C708 C717 1.390 . S
C709 C708 1.387 . S
C709 C711 1.387 . S
H710 C717 0.950 . S
C711 C709 1.387 . S
C711 C713 1.390 . S
C711 H715 0.950 . S
H712 C708 0.950 . S
C713 C711 1.390 . S
C713 C714 1.387 . S
C713 H716 0.950 . S
C714 C713 1.387 . S
C714 C717 1.387 . S
H715 C711 0.950 . S
H716 C713 0.950 . S
C717 C708 1.390 . S
C717 H710 0.950 . S
C717 C714 1.387 . S
C718 C719 1.387 . S
C718 H722 0.950 . S
C718 C727 1.390 . S
C719 C718 1.387 . S
C719 C721 1.387 . S
H720 C727 0.950 . S
C721 C719 1.387 . S
C721 C723 1.390 . S
C721 H725 0.950 . S
H722 C718 0.950 . S
C723 C721 1.390 . S
C723 C724 1.387 . S
C723 H726 0.950 . S
C724 C723 1.387 . S
C724 C727 1.387 . S
H725 C721 0.950 . S
H726 C723 0.950 . S
C727 C718 1.390 . S
C727 H720 0.950 . S
C727 C724 1.387 . S
C728 C729 1.387 . S
C728 H732 0.950 . S
C728 C737 1.390 . S
C729 C728 1.387 . S
C729 C731 1.387 . S
H730 C737 0.950 . S
C731 C729 1.387 . S
C731 C733 1.390 . S
C731 H735 0.950 . S
H732 C728 0.950 . S
C733 C731 1.390 . S
C733 C734 1.387 . S
C733 H736 0.950 . S
C734 C733 1.387 . S
C734 C737 1.387 . S
H735 C731 0.950 . S
H736 C733 0.950 . S
C737 C728 1.390 . S
C737 H730 0.950 . S
C737 C734 1.387 . S
C738 C739 1.387 . S
C738 H742 0.950 . S
C738 C747 1.390 . S
C739 C738 1.387 . S
C739 C741 1.387 . S
H740 C747 0.950 . S
C741 C739 1.387 . S
C741 C743 1.390 . S
C741 H745 0.950 . S
H742 C738 0.950 . S
C743 C741 1.390 . S
C743 C744 1.387 . S
C743 H746 0.950 . S
C744 C743 1.387 . S
C744 C747 1.387 . S
H745 C741 0.950 . S
H746 C743 0.950 . S
C747 C738 1.390 . S
C747 H740 0.950 . S
C747 C744 1.387 . S
C748 C749 1.387 . S
C748 H752 0.950 . S
C748 C757 1.390 . S
C749 C748 1.387 . S
C749 C751 1.387 . S
H750 C757 0.950 . S
C751 C749 1.387 . S
C751 C753 1.390 . S
C751 H755 0.950 . S
H752 C748 0.950 . S
C753 C751 1.390 . S
C753 C754 1.387 . S
C753 H756 0.950 . S
C754 C753 1.387 . S
C754 C757 1.387 . S
H755 C751 0.950 . S
H756 C753 0.950 . S
C757 C748 1.390 . S
C757 H750 0.950 . S
C757 C754 1.387 . S
C758 C759 1.387 . S
C758 H762 0.950 . S
C758 C767 1.390 . S
C759 C758 1.387 . S
C759 C761 1.387 . S
H760 C767 0.950 . S
C761 C759 1.387 . S
C761 C763 1.390 . S
C761 H765 0.950 . S
H762 C758 0.950 . S
C763 C761 1.390 . S
C763 C764 1.387 . S
C763 H766 0.950 . S
C764 C763 1.387 . S
C764 C767 1.387 . S
H765 C761 0.950 . S
H766 C763 0.950 . S
C767 C758 1.390 . S
C767 H760 0.950 . S
C767 C764 1.387 . S
C768 C769 1.387 . S
C768 H772 0.950 . S
C768 C777 1.390 . S
C769 C768 1.387 . S
C769 C771 1.387 . S
H770 C777 0.950 . S
C771 C769 1.387 . S
C771 C773 1.390 . S
C771 H775 0.950 . S
H772 C768 0.950 . S
C773 C771 1.390 . S
C773 C774 1.387 . S
C773 H776 0.978 . S
C774 C773 1.387 . S
C774 C777 1.387 . S
H775 C771 0.950 . S
H776 C773 0.978 . S
C777 C768 1.390 . S
C777 H770 0.950 . S
C777 C774 1.387 . S
C778 C779 1.387 . S
C778 H782 0.950 . S
C778 C787 1.390 . S
C779 C778 1.387 . S
C779 C781 1.387 . S
H780 C787 0.950 . S
C781 C779 1.387 . S
C781 C783 1.390 . S
C781 H785 0.950 . S
H782 C778 0.950 . S
C783 C781 1.390 . S
C783 C784 1.387 . S
C783 H786 0.950 . S
C784 C783 1.387 . S
C784 C787 1.387 . S
H785 C781 0.950 . S
H786 C783 0.950 . S
C787 C778 1.390 . S
C787 H780 0.950 . S
C787 C784 1.387 . S
C788 C789 1.387 . S
C788 H792 0.950 . S
C788 C797 1.390 . S
C789 C788 1.387 . S
C789 C791 1.387 . S
H790 C797 0.950 . S
C791 C789 1.387 . S
C791 C793 1.390 . S
C791 H795 0.950 . S
H792 C788 0.950 . S
C793 C791 1.390 . S
C793 C794 1.387 . S
C793 H796 0.950 . S
C794 C793 1.387 . S
C794 C797 1.387 . S
H795 C791 0.950 . S
H796 C793 0.950 . S
C797 C788 1.390 . S
C797 H790 0.950 . S
C797 C794 1.387 . S
C798 C799 1.387 . S
C798 H802 0.950 . S
C798 C807 1.390 . S
C799 C798 1.387 . S
C799 C801 1.387 . S
H800 C807 0.950 . S
C801 C799 1.387 . S
C801 C803 1.390 . S
C801 H805 0.950 . S
H802 C798 0.950 . S
C803 C801 1.390 . S
C803 C804 1.387 . S
C803 H806 0.950 . S
C804 C803 1.387 . S
C804 C807 1.387 . S
H805 C801 0.950 . S
H806 C803 0.950 . S
C807 C798 1.390 . S
C807 H800 0.950 . S
C807 C804 1.387 . S
C808 C809 1.387 . S
C808 H812 0.950 . S
C808 C817 1.390 . S
C809 C808 1.387 . S
C809 C811 1.387 . S
H810 C817 0.950 . S
C811 C809 1.387 . S
C811 C813 1.390 . S
C811 H815 0.950 . S
H812 C808 0.950 . S
C813 C811 1.390 . S
C813 C814 1.387 . S
C813 H816 0.950 . S
C814 C813 1.387 . S
C814 C817 1.387 . S
H815 C811 0.950 . S
H816 C813 0.950 . S
C817 C808 1.390 . S
C817 H810 0.950 . S
C817 C814 1.387 . S
C818 C819 1.387 . S
C818 H822 0.950 . S
C818 C827 1.390 . S
C819 C818 1.387 . S
C819 C821 1.387 . S
H820 C827 0.950 . S
C821 C819 1.387 . S
C821 C823 1.390 . S
C821 H825 0.950 . S
H822 C818 0.950 . S
C823 C821 1.390 . S
C823 C824 1.387 . S
C823 H826 0.950 . S
C824 C823 1.387 . S
C824 C827 1.387 . S
H825 C821 0.950 . S
H826 C823 0.950 . S
C827 C818 1.390 . S
C827 H820 0.950 . S
C827 C824 1.387 . S
C828 C829 1.387 . S
C828 H832 0.950 . S
C828 C837 1.390 . S
C829 C828 1.387 . S
C829 C831 1.387 . S
H830 C837 0.950 . S
C831 C829 1.387 . S
C831 C833 1.390 . S
C831 H835 0.950 . S
H832 C828 0.950 . S
C833 C831 1.390 . S
C833 C834 1.387 . S
C833 H836 0.950 . S
C834 C833 1.387 . S
C834 C837 1.387 . S
H835 C831 0.950 . S
H836 C833 0.950 . S
C837 C828 1.390 . S
C837 H830 0.950 . S
C837 C834 1.387 . S
C838 C839 1.387 . S
C838 H842 0.950 . S
C838 C847 1.390 . S
C839 C838 1.387 . S
C839 C841 1.387 . S
H840 C847 0.950 . S
C841 C839 1.387 . S
C841 C843 1.390 . S
C841 H845 0.950 . S
H842 C838 0.950 . S
C843 C841 1.390 . S
C843 C844 1.387 . S
C843 H846 0.950 . S
C844 C843 1.387 . S
C844 C847 1.387 . S
H845 C841 0.950 . S
H846 C843 0.950 . S
C847 C838 1.390 . S
C847 H840 0.950 . S
C847 C844 1.387 . S
C848 C849 1.387 . S
C848 H852 0.950 . S
C848 C857 1.390 . S
C849 C848 1.387 . S
C849 C851 1.387 . S
H850 C857 0.950 . S
C851 C849 1.387 . S
C851 C853 1.390 1_545 S
C851 H855 0.950 . S
H852 C848 0.950 . S
C853 C851 1.390 1_565 S
C853 C854 1.387 . S
C853 H856 0.950 . S
C854 C853 1.387 . S
C854 C857 1.387 1_565 S
H855 C851 0.950 . S
H856 C853 0.950 . S
C857 C848 1.390 . S
C857 H850 0.950 . S
C857 C854 1.387 1_545 S
C858 C859 1.387 . S
C858 H862 0.950 . S
C858 C867 1.390 . S
C859 C858 1.387 . S
C859 C861 1.387 1_556 S
H860 C867 0.950 . S
C861 C859 1.387 1_554 S
C861 C863 1.390 . S
C861 H865 0.950 . S
H862 C858 0.950 . S
C863 C861 1.390 . S
C863 C864 1.387 1_554 S
C863 H866 0.950 . S
C864 C863 1.387 1_556 S
C864 C867 1.387 . S
H865 C861 0.950 . S
H866 C863 0.950 . S
C867 C858 1.390 . S
C867 H860 0.950 . S
C867 C864 1.387 . S
C868 C869 1.387 . S
C868 H872 0.950 . S
C868 C877 1.390 . S
C869 C868 1.387 . S
C869 C871 1.387 . S
H870 C877 0.950 . S
C871 C869 1.387 . S
C871 C873 1.390 . S
C871 H875 0.950 . S
H872 C868 0.950 . S
C873 C871 1.390 . S
C873 C874 1.387 . S
C873 H876 0.950 . S
C874 C873 1.387 . S
C874 C877 1.387 . S
H875 C871 0.950 . S
H876 C873 0.950 . S
C877 C868 1.390 . S
C877 H870 0.950 . S
C877 C874 1.387 . S
C878 C879 1.387 1_554 S
C878 H882 0.950 . S
C878 C887 1.390 1_655 S
C879 C878 1.387 1_556 S
C879 C881 1.389 . S
H880 C887 0.950 . S
C881 C879 1.389 . S
C881 C883 1.388 1_655 S
C881 H885 0.950 . S
H882 C878 0.950 . S
C883 C881 1.388 1_455 S
C883 C884 1.387 . S
C883 H886 0.950 . S
C884 C883 1.387 . S
C884 C887 1.387 1_556 S
H885 C881 0.950 . S
H886 C883 0.950 . S
C887 C878 1.390 1_455 S
C887 H880 0.950 . S
C887 C884 1.387 1_554 S
C888 C889 1.387 1_565 S
C888 H892 0.950 . S
C888 C897 1.390 . S
C889 C888 1.387 1_545 S
C889 C891 1.387 . S
H890 C897 0.950 . S
C891 C889 1.387 . S
C891 C893 1.375 1_545 S
C891 H895 0.950 . S
H892 C888 0.950 . S
C893 C891 1.375 1_565 S
C893 C894 1.399 . S
C893 H896 0.953 1_565 S
C894 C893 1.399 . S
C894 C897 1.387 . S
H895 C891 0.950 . S
H896 C893 0.953 1_545 S
C897 C888 1.390 . S
C897 H890 0.950 . S
C897 C894 1.387 . S
C898 C899 1.387 1_556 S
C898 H902 0.950 . S
C898 C907 1.390 . S
C899 C898 1.387 1_554 S
C899 C901 1.387 . S
H900 C907 0.950 . S
C901 C899 1.387 . S
C901 C903 1.390 . S
C901 H905 0.950 . S
H902 C898 0.950 . S
C903 C901 1.390 . S
C903 C904 1.387 . S
C903 H906 0.950 . S
C904 C903 1.387 . S
C904 C907 1.387 1_554 S
H905 C901 0.950 . S
H906 C903 0.950 . S
C907 C898 1.390 . S
C907 H900 0.950 . S
C907 C904 1.387 1_556 S
C908 C909 1.387 . S
C908 H912 0.950 . S
C908 C917 1.390 . S
C909 C908 1.387 . S
C909 C911 1.387 . S
H910 C917 0.950 . S
C911 C909 1.387 . S
C911 C913 1.390 . S
C911 H915 0.950 . S
H912 C908 0.950 . S
C913 C911 1.390 . S
C913 C914 1.387 . S
C913 H916 0.950 . S
C914 C913 1.387 . S
C914 C917 1.387 . S
H915 C911 0.950 . S
H916 C913 0.950 . S
C917 C908 1.390 . S
C917 H910 0.950 . S
C917 C914 1.387 . S
C918 C919 1.387 1_556 S
C918 H922 0.950 . S
C918 C927 1.390 1_455 S
C919 C918 1.387 1_554 S
C919 C921 1.383 1_455 S
H920 C927 0.950 . S
C921 C919 1.383 1_655 S
C921 C923 1.397 . S
C921 H925 0.947 1_655 S
H922 C918 0.950 . S
C923 C921 1.397 . S
C923 C924 1.387 . S
C923 H926 0.950 . S
C924 C923 1.387 . S
C924 C927 1.387 1_554 S
H925 C921 0.947 1_455 S
H926 C923 0.950 . S
C927 C918 1.390 1_655 S
C927 H920 0.950 . S
C927 C924 1.387 1_556 S
C529 C282 1.308 . S
C534 C18 1.308 . S
C539 C51 2.086 . S
C544 C315 2.086 . S
C549 C348 1.303 . S
C554 C84 1.303 . S
C559 C381 1.420 . S
C564 C117 1.420 . S
C569 C150 1.414 . S
C574 C414 1.414 . S
C579 C183 1.303 . S
C584 C447 1.303 . S
C589 C216 2.086 . S
C594 C480 2.086 . S
C599 C249 1.304 . S
C604 C513 1.304 . S
C609 C7 1.759 . S
C614 N508 1.863 . S
C619 C40 1.781 . S
C624 N409 1.873 . S
C629 C73 1.772 . S
C634 N442 1.873 . S
C639 N475 1.933 . S
C644 C106 1.826 . S
C649 C139 1.830 . S
C654 N310 1.932 . S
C659 C172 1.774 . S
C664 N343 1.873 . S
C669 N376 1.873 . S
C674 C205 1.781 . S
C679 C238 1.760 . S
C684 N277 1.863 . S
C689 N244 1.863 . S
C694 C271 1.759 . S
C699 N145 1.873 . S
C704 C304 1.781 . S
C709 N178 1.874 . S
C714 C337 1.772 . S
C719 C370 1.831 . S
C724 N211 1.933 . S
C729 N46 1.934 . S
C734 C403 1.828 . S
C739 C436 1.774 . S
C744 N79 1.873 . S
C749 N112 1.873 . S
C754 C469 1.781 . S
C759 N13 1.864 . S
C764 C502 1.756 . S
C769 N233 0.824 . S
C774 N2 0.825 . S
C779 N134 0.739 . S
C784 N35 0.739 . S
C789 N68 0.827 . S
C794 N167 0.830 . S
C799 N200 0.740 . S
C804 N101 0.743 . S
C809 N497 0.824 . S
C814 N266 0.821 . S
C819 N299 0.740 . S
C824 N398 0.742 . S
C829 N332 0.829 . S
C834 N431 0.832 . S
C839 N365 0.740 . S
C844 N464 0.739 . S
C849 C21 1.523 . S
C854 C417 1.440 . S
C859 C54 1.721 . S
C864 C450 1.936 . S
C869 C87 1.936 . S
C874 C483 1.721 . S
C879 C120 1.438 . S
C884 C516 1.519 . S
C889 C153 1.441 . S
C894 C285 1.521 . S
C899 C186 1.936 . S
C904 C318 1.721 . S
C909 C219 1.721 . S
C914 C351 1.936 . S
C919 C384 1.442 . S
C924 C252 1.521 . S
