# Generated by pormake.
# Topology can, (4)-cn, num edge types: 1
# Building blocks:
#     Node 0, Type 0, BuildingBlock: UXUYUI_clean_sbu_0, # of connection points: 4
#     Node 1, Type 0, BuildingBlock: UXUYUI_clean_sbu_0, # of connection points: 4
#     Node 2, Type 0, BuildingBlock: UXUYUI_clean_sbu_0, # of connection points: 4
#     Node 3, Type 0, BuildingBlock: UXUYUI_clean_sbu_0, # of connection points: 4
#     Node 4, Type 0, BuildingBlock: UXUYUI_clean_sbu_0, # of connection points: 4
#     Node 5, Type 0, BuildingBlock: UXUYUI_clean_sbu_0, # of connection points: 4
#     Node 6, Type 0, BuildingBlock: UXUYUI_clean_sbu_0, # of connection points: 4
#     Node 7, Type 0, BuildingBlock: UXUYUI_clean_sbu_0, # of connection points: 4
#     Node 8, Type 0, BuildingBlock: UXUYUI_clean_sbu_0, # of connection points: 4
#     Node 9, Type 0, BuildingBlock: UXUYUI_clean_sbu_0, # of connection points: 4
#     Node 10, Type 0, BuildingBlock: UXUYUI_clean_sbu_0, # of connection points: 4
#     Node 11, Type 0, BuildingBlock: UXUYUI_clean_sbu_0, # of connection points: 4
#     Edge 12, Type (0, 0), BuildingBlock: TEMPAE_clean_linker_10, # of connection points: 2
#     Edge 13, Type (0, 0), BuildingBlock: TEMPAE_clean_linker_10, # of connection points: 2
#     Edge 14, Type (0, 0), BuildingBlock: TEMPAE_clean_linker_10, # of connection points: 2
#     Edge 15, Type (0, 0), BuildingBlock: TEMPAE_clean_linker_10, # of connection points: 2
#     Edge 16, Type (0, 0), BuildingBlock: TEMPAE_clean_linker_10, # of connection points: 2
#     Edge 17, Type (0, 0), BuildingBlock: TEMPAE_clean_linker_10, # of connection points: 2
#     Edge 18, Type (0, 0), BuildingBlock: TEMPAE_clean_linker_10, # of connection points: 2
#     Edge 19, Type (0, 0), BuildingBlock: TEMPAE_clean_linker_10, # of connection points: 2
#     Edge 20, Type (0, 0), BuildingBlock: TEMPAE_clean_linker_10, # of connection points: 2
#     Edge 21, Type (0, 0), BuildingBlock: TEMPAE_clean_linker_10, # of connection points: 2
#     Edge 22, Type (0, 0), BuildingBlock: TEMPAE_clean_linker_10, # of connection points: 2
#     Edge 23, Type (0, 0), BuildingBlock: TEMPAE_clean_linker_10, # of connection points: 2
#     Edge 24, Type (0, 0), BuildingBlock: TEMPAE_clean_linker_10, # of connection points: 2
#     Edge 25, Type (0, 0), BuildingBlock: TEMPAE_clean_linker_10, # of connection points: 2
#     Edge 26, Type (0, 0), BuildingBlock: TEMPAE_clean_linker_10, # of connection points: 2
#     Edge 27, Type (0, 0), BuildingBlock: TEMPAE_clean_linker_10, # of connection points: 2
#     Edge 28, Type (0, 0), BuildingBlock: TEMPAE_clean_linker_10, # of connection points: 2
#     Edge 29, Type (0, 0), BuildingBlock: TEMPAE_clean_linker_10, # of connection points: 2
#     Edge 30, Type (0, 0), BuildingBlock: TEMPAE_clean_linker_10, # of connection points: 2
#     Edge 31, Type (0, 0), BuildingBlock: TEMPAE_clean_linker_10, # of connection points: 2
#     Edge 32, Type (0, 0), BuildingBlock: TEMPAE_clean_linker_10, # of connection points: 2
#     Edge 33, Type (0, 0), BuildingBlock: TEMPAE_clean_linker_10, # of connection points: 2
#     Edge 34, Type (0, 0), BuildingBlock: TEMPAE_clean_linker_10, # of connection points: 2
#     Edge 35, Type (0, 0), BuildingBlock: TEMPAE_clean_linker_10, # of connection points: 2
# Relax obj value: 0.136
# Max RMSD: 0.111
# Mean RMSD: 0.111
data_MOF--net-can--node1-UXUYUI_clean_sbu_0--edge1-TEMPAE_clean_linker_10
_symmetry_space_group_name_H-M    P1
_symmetry_Int_Tables_number       1
_symmetry_cell_setting            triclinic
loop_
_symmetry_equiv_pos_as_xyz
'x, y, z'
_cell_length_a     86.991058
_cell_length_b     86.987183
_cell_length_c     38.05948
_cell_angle_alpha  90.001776
_cell_angle_beta   90.003524
_cell_angle_gamma 119.99717
loop_
_atom_site_label
_atom_site_type_symbol
_atom_site_fract_x
_atom_site_fract_y
_atom_site_fract_z
_atom_type_partial_charge
Li0 Li 0.07966 0.42905 0.25145 0.0
Li1 Li 0.06369 0.39954 0.28141 0.0
Li2 Li 0.09127 0.40971 0.24839 0.0
Li3 Li 0.06533 0.40192 0.21556 0.0
C4 C 0.09365 0.43388 0.31412 0.0
N5 N 0.10542 0.46284 0.35823 0.0
C6 C 0.08294 0.43362 0.34175 0.0
C7 C 0.11041 0.44879 0.30913 0.0
C8 C 0.08912 0.44841 0.36372 0.0
C9 C 0.1161 0.46332 0.33164 0.0
C10 C 0.03985 0.40889 0.23179 0.0
C11 C 0.00976 0.39031 0.21179 0.0
N12 N 0.01123 0.40394 0.19178 0.0
C13 C 0.04108 0.42273 0.21109 0.0
C14 C 0.02407 0.39256 0.23224 0.0
C15 C 0.02645 0.41996 0.19104 0.0
C16 C 0.09586 0.46584 0.23471 0.0
N17 N 0.08358 0.45253 0.25508 0.0
C18 C 0.07457 0.47196 0.28008 0.0
C19 C 0.07302 0.45525 0.27751 0.0
C20 C 0.087 0.48597 0.2591 0.0
C21 C 0.09785 0.48279 0.2364 0.0
H22 H 0.10384 0.46323 0.21661 0.0
H23 H 0.06322 0.44433 0.29307 0.0
C24 C 0.05467 0.37925 0.34428 0.0
N25 N 0.04956 0.38779 0.32126 0.0
C26 C 0.04505 0.372 0.37518 0.0
C27 C 0.02512 0.38247 0.358 0.0
C28 C 0.03509 0.38947 0.32746 0.0
C29 C 0.03014 0.37371 0.38252 0.0
H30 H 0.06645 0.37845 0.3391 0.0
H31 H 0.0316 0.39675 0.3092 0.0
C32 C 0.10333 0.42822 0.18897 0.0
N33 N 0.13321 0.43793 0.14859 0.0
C34 C 0.10192 0.41973 0.15695 0.0
C35 C 0.11991 0.44174 0.2003 0.0
C36 C 0.11719 0.42482 0.13694 0.0
C37 C 0.13487 0.44642 0.17958 0.0
C38 C 0.07565 0.3748 0.24016 0.0
C39 C 0.07621 0.36914 0.20605 0.0
C40 C 0.08237 0.36947 0.26804 0.0
C41 C 0.08355 0.35827 0.2004 0.0
C42 C 0.08966 0.35865 0.26129 0.0
N43 N 0.09008 0.35331 0.2279 0.0
C44 C 0.12264 0.41389 0.27939 0.0
C45 C 0.1182 0.40313 0.22093 0.0
C46 C 0.13848 0.41352 0.28162 0.0
N47 N 0.11292 0.40885 0.24929 0.0
C48 C 0.13399 0.4027 0.22189 0.0
C49 C 0.14437 0.40798 0.2525 0.0
H50 H 0.11808 0.41818 0.30175 0.0
H51 H 0.11013 0.39883 0.19754 0.0
C52 C 0.0542 0.40406 0.14778 0.0
N53 N 0.05189 0.39242 0.17382 0.0
C54 C 0.04431 0.39811 0.11691 0.0
C55 C 0.02979 0.36825 0.14024 0.0
C56 C 0.03993 0.37482 0.17081 0.0
C57 C 0.03191 0.37999 0.11284 0.0
H58 H 0.0637 0.41802 0.15115 0.0
H59 H 0.03817 0.36593 0.19226 0.0
O60 O 0.08769 0.41971 0.2918 0.0
O61 O 0.05421 0.41114 0.25063 0.0
O62 O 0.08852 0.42343 0.20889 0.0
O63 O 0.06864 0.38557 0.24617 0.0
H64 H 0.06993 0.42222 0.34598 0.0
H65 H 0.11889 0.44917 0.28796 0.0
H66 H 0.08093 0.44844 0.38509 0.0
H67 H 0.129 0.47499 0.32795 0.0
H68 H 0.9975 0.37771 0.21171 0.0
H69 H 0.05326 0.4354 0.21015 0.0
H70 H 0.023 0.38165 0.24782 0.0
H71 H 0.02723 0.43052 0.17476 0.0
H72 H 0.06605 0.47387 0.29817 0.0
H73 H 0.1074 0.49313 0.21937 0.0
H74 H 0.04935 0.36528 0.39326 0.0
H75 H 0.01397 0.38445 0.3629 0.0
H76 H 0.08923 0.40916 0.14785 0.0
H77 H 0.12125 0.44842 0.22502 0.0
H78 H 0.11631 0.41829 0.11222 0.0
H79 H 0.1478 0.45677 0.18816 0.0
H80 H 0.07131 0.37332 0.18407 0.0
H81 H 0.08225 0.3739 0.29452 0.0
H82 H 0.08415 0.35387 0.17411 0.0
H83 H 0.09503 0.35454 0.28259 0.0
H84 H 0.14615 0.41775 0.30566 0.0
H85 H 0.13794 0.39807 0.19906 0.0
H86 H 0.04647 0.40758 0.09632 0.0
H87 H 0.02021 0.35422 0.13829 0.0
Li88 Li 0.65014 0.07856 0.75443 0.0
Li89 Li 0.66345 0.06362 0.78187 0.0
Li90 Li 0.68134 0.09175 0.75109 0.0
Li91 Li 0.66226 0.06446 0.7163 0.0
C92 C 0.66007 0.0943 0.81647 0.0
N93 N 0.64527 0.10846 0.86109 0.0
C94 C 0.65245 0.08589 0.84828 0.0
C95 C 0.66019 0.10995 0.80743 0.0
C96 C 0.64504 0.09326 0.87047 0.0
C97 C 0.65262 0.11687 0.8303 0.0
C98 C 0.62479 0.04454 0.75591 0.0
C99 C 0.59526 0.0339 0.7333 0.0
N100 N 0.58858 0.02882 0.76626 0.0
C101 C 0.61763 0.03917 0.78956 0.0
C102 C 0.61352 0.04182 0.72752 0.0
C103 C 0.59929 0.03124 0.79424 0.0
C104 C 0.62722 0.08978 0.72705 0.0
N105 N 0.63052 0.08285 0.75618 0.0
C106 C 0.6048 0.08022 0.78459 0.0
C107 C 0.61966 0.07812 0.7847 0.0
C108 C 0.6009 0.0871 0.75469 0.0
C109 C 0.61243 0.09207 0.72574 0.0
H110 H 0.63585 0.09317 0.70447 0.0
H111 H 0.62232 0.07239 0.80739 0.0
C112 C 0.67263 0.05748 0.84945 0.0
N113 N 0.66291 0.04944 0.82028 0.0
C114 C 0.67112 0.04748 0.87926 0.0
C115 C 0.65037 0.021 0.84769 0.0
C116 C 0.6523 0.03153 0.8185 0.0
C117 C 0.65953 0.02903 0.87888 0.0
H118 H 0.68109 0.07176 0.84992 0.0
H119 H 0.64494 0.02549 0.79469 0.0
C120 C 0.67503 0.10242 0.69126 0.0
N121 N 0.69736 0.13162 0.65109 0.0
C122 C 0.68467 0.10071 0.66366 0.0
C123 C 0.67662 0.11893 0.69827 0.0
C124 C 0.6959 0.11565 0.64368 0.0
C125 C 0.68803 0.13355 0.67772 0.0
C126 C 0.69278 0.06413 0.76432 0.0
C127 C 0.70671 0.07575 0.78611 0.0
C128 C 0.68826 0.04631 0.76233 0.0
C129 C 0.71596 0.06934 0.80551 0.0
C130 C 0.69781 0.04041 0.7822 0.0
N131 N 0.71134 0.05195 0.80319 0.0
C132 C 0.70651 0.12704 0.77046 0.0
C133 C 0.71627 0.1142 0.72728 0.0
C134 C 0.72261 0.14297 0.76872 0.0
N135 N 0.7036 0.11315 0.74964 0.0
C136 C 0.73262 0.12985 0.72481 0.0
C137 C 0.73588 0.14453 0.74558 0.0
H138 H 0.69637 0.12577 0.78846 0.0
H139 H 0.7136 0.10287 0.71119 0.0
C140 C 0.64787 0.05259 0.64981 0.0
N141 N 0.65956 0.05246 0.67328 0.0
C142 C 0.64501 0.04391 0.61763 0.0
C143 C 0.66668 0.03552 0.63395 0.0
C144 C 0.66907 0.04433 0.66594 0.0
C145 C 0.65444 0.03516 0.60935 0.0
H146 H 0.64075 0.05947 0.65614 0.0
H147 H 0.67855 0.04477 0.6848 0.0
O148 O 0.6675 0.08734 0.7945 0.0
O149 O 0.64274 0.05255 0.75086 0.0
O150 O 0.66434 0.08808 0.71176 0.0
O151 O 0.68322 0.07003 0.74596 0.0
H152 H 0.65204 0.07369 0.85562 0.0
H153 H 0.66581 0.11652 0.78276 0.0
H154 H 0.63904 0.08685 0.89508 0.0
H155 H 0.65253 0.1289 0.82351 0.0
H156 H 0.5864 0.03183 0.7116 0.0
H157 H 0.62615 0.04143 0.81196 0.0
H158 H 0.61882 0.04594 0.70135 0.0
H159 H 0.59359 0.02714 0.82017 0.0
H160 H 0.59638 0.07638 0.80765 0.0
H161 H 0.60979 0.09717 0.70194 0.0
H162 H 0.67834 0.05422 0.90281 0.0
H163 H 0.64153 0.00679 0.84612 0.0
H164 H 0.68368 0.08806 0.65803 0.0
H165 H 0.66923 0.12045 0.71949 0.0
H166 H 0.70353 0.11455 0.62237 0.0
H167 H 0.68949 0.14643 0.68298 0.0
H168 H 0.71023 0.08952 0.78834 0.0
H169 H 0.67728 0.03706 0.74615 0.0
H170 H 0.72674 0.07816 0.82255 0.0
H171 H 0.69439 0.02663 0.78109 0.0
H172 H 0.72472 0.15388 0.78562 0.0
H173 H 0.74249 0.13056 0.70653 0.0
H174 H 0.63532 0.04384 0.59967 0.0
H175 H 0.67444 0.0292 0.62843 0.0
Li176 Li 0.59819 0.66352 0.28477 0.0
Li177 Li 0.57035 0.6507 0.25123 0.0
Li178 Li 0.59852 0.6639 0.22054 0.0
Li179 Li 0.58906 0.68178 0.25358 0.0
C180 C 0.59863 0.63531 0.25102 0.0
N181 N 0.61946 0.6196 0.24936 0.0
C182 C 0.59075 0.6169 0.24788 0.0
C183 C 0.6171 0.64575 0.25325 0.0
C184 C 0.60151 0.6092 0.24712 0.0
C185 C 0.6274 0.63755 0.25238 0.0
C186 C 0.57462 0.67671 0.31598 0.0
C187 C 0.55864 0.69148 0.33378 0.0
N188 N 0.57088 0.70012 0.3594 0.0
C189 C 0.58696 0.68566 0.34267 0.0
C190 C 0.56026 0.67954 0.31167 0.0
C191 C 0.58486 0.69746 0.3643 0.0
C192 C 0.62389 0.67348 0.33968 0.0
N193 N 0.60871 0.66016 0.32551 0.0
C194 C 0.60638 0.64035 0.37125 0.0
C195 C 0.59999 0.64381 0.34044 0.0
C196 C 0.62178 0.65393 0.38723 0.0
C197 C 0.63066 0.67067 0.37082 0.0
H198 H 0.63047 0.68639 0.32725 0.0
H199 H 0.58797 0.63347 0.32844 0.0
C200 C 0.54366 0.61789 0.22634 0.0
N201 N 0.54701 0.63093 0.24992 0.0
C202 C 0.52696 0.60264 0.22512 0.0
C203 C 0.5174 0.61468 0.27207 0.0
C204 C 0.53435 0.62965 0.27259 0.0
C205 C 0.51362 0.60086 0.24834 0.0
H206 H 0.55405 0.61932 0.20871 0.0
H207 H 0.53748 0.64015 0.29131 0.0
C208 C 0.6251 0.69878 0.23613 0.0
N209 N 0.64924 0.72897 0.20044 0.0
C210 C 0.62013 0.70374 0.20507 0.0
C211 C 0.64234 0.70921 0.24905 0.0
C212 C 0.63253 0.71904 0.18743 0.0
C213 C 0.65435 0.72441 0.23061 0.0
C214 C 0.56285 0.66118 0.19168 0.0
C215 C 0.56214 0.65546 0.15709 0.0
C216 C 0.54783 0.66054 0.20646 0.0
C217 C 0.54626 0.64868 0.13828 0.0
C218 C 0.53219 0.65364 0.18687 0.0
N219 N 0.53172 0.64787 0.15347 0.0
C220 C 0.59855 0.64666 0.15967 0.0
C221 C 0.62704 0.67116 0.17175 0.0
C222 C 0.60465 0.64322 0.12846 0.0
N223 N 0.60957 0.66074 0.18002 0.0
C224 C 0.6338 0.66805 0.1409 0.0
C225 C 0.62243 0.65412 0.11855 0.0
H226 H 0.5849 0.63817 0.16765 0.0
H227 H 0.63576 0.68188 0.18893 0.0
C228 C 0.6014 0.71686 0.27733 0.0
N229 N 0.58998 0.70413 0.2548 0.0
C230 C 0.60217 0.73327 0.27903 0.0
C231 C 0.57977 0.7233 0.23363 0.0
C232 C 0.5794 0.70709 0.23292 0.0
C233 C 0.5912 0.73663 0.25705 0.0
H234 H 0.60984 0.71421 0.29411 0.0
H235 H 0.57073 0.69692 0.21471 0.0
O236 O 0.58823 0.64299 0.25154 0.0
O237 O 0.57669 0.66538 0.29406 0.0
O238 O 0.61319 0.68399 0.25427 0.0
O239 O 0.57825 0.6677 0.21069 0.0
H240 H 0.57647 0.60865 0.24603 0.0
H241 H 0.62345 0.66003 0.25555 0.0
H242 H 0.5956 0.59496 0.24471 0.0
H243 H 0.6417 0.64546 0.25407 0.0
H244 H 0.54766 0.69387 0.33053 0.0
H245 H 0.59815 0.6837 0.34646 0.0
H246 H 0.55051 0.67271 0.29137 0.0
H247 H 0.59438 0.70455 0.38489 0.0
H248 H 0.59929 0.62714 0.38242 0.0
H249 H 0.64246 0.68159 0.38232 0.0
H250 H 0.5245 0.59234 0.20624 0.0
H251 H 0.50752 0.6137 0.29064 0.0
H252 H 0.60688 0.6959 0.1946 0.0
H253 H 0.64639 0.70558 0.27308 0.0
H254 H 0.62886 0.72302 0.16337 0.0
H255 H 0.66774 0.7326 0.2403 0.0
H256 H 0.57375 0.65647 0.14462 0.0
H257 H 0.5482 0.66514 0.23294 0.0
H258 H 0.54553 0.64415 0.11154 0.0
H259 H 0.52043 0.65287 0.19822 0.0
H260 H 0.59559 0.63209 0.11231 0.0
H261 H 0.64765 0.67663 0.13424 0.0
H262 H 0.6111 0.74311 0.29763 0.0
H263 H 0.57137 0.72545 0.21568 0.0
Li264 Li 0.92152 0.57247 0.75164 0.0
Li265 Li 0.93742 0.60161 0.78114 0.0
Li266 Li 0.90841 0.59106 0.75022 0.0
Li267 Li 0.93525 0.60063 0.71615 0.0
C268 C 0.90755 0.56733 0.81582 0.0
N269 N 0.89569 0.53925 0.86228 0.0
C270 C 0.91726 0.5689 0.8462 0.0
C271 C 0.89171 0.55154 0.80926 0.0
C272 C 0.91106 0.55454 0.86933 0.0
C273 C 0.88597 0.53748 0.833 0.0
C274 C 0.96435 0.59578 0.74698 0.0
C275 C 0.99507 0.61736 0.73594 0.0
N276 N -0.00018 0.60531 0.74607 0.0
C277 C 0.96954 0.58356 0.7569 0.0
C278 C 0.97723 0.61278 0.73612 0.0
C279 C 0.98752 0.58865 0.75643 0.0
C280 C 0.90861 0.53747 0.72668 0.0
N281 N 0.91769 0.54894 0.75316 0.0
C282 C 0.92266 0.52724 0.7812 0.0
C283 C 0.92468 0.54418 0.78013 0.0
C284 C 0.91354 0.51513 0.75401 0.0
C285 C 0.90635 0.5204 0.72659 0.0
H286 H 0.90341 0.54168 0.70528 0.0
H287 H 0.93203 0.55363 0.80063 0.0
C288 C 0.94712 0.62436 0.83989 0.0
N289 N 0.95143 0.61375 0.82108 0.0
C290 C 0.95653 0.63275 0.87042 0.0
C291 C 0.97479 0.61938 0.86115 0.0
C292 C 0.96491 0.61109 0.83118 0.0
C293 C 0.97056 0.63026 0.88131 0.0
H294 H 0.93621 0.62609 0.8314 0.0
H295 H 0.96774 0.60219 0.81658 0.0
C296 C 0.89705 0.57365 0.69064 0.0
N297 N 0.86651 0.56433 0.65281 0.0
C298 C 0.8977 0.58341 0.66096 0.0
C299 C 0.88092 0.55901 0.70084 0.0
C300 C 0.8821 0.57851 0.64223 0.0
C301 C 0.86562 0.55456 0.68145 0.0
C302 C 0.93997 0.63303 0.74403 0.0
C303 C 0.93222 0.64229 0.72941 0.0
C304 C 0.95783 0.64231 0.75393 0.0
C305 C 0.94259 0.66058 0.72407 0.0
C306 C 0.96776 0.6606 0.74821 0.0
N307 N 0.96001 0.66928 0.73346 0.0
C308 C 0.87429 0.58177 0.77601 0.0
C309 C 0.88363 0.60052 0.72603 0.0
C310 C 0.85804 0.58135 0.77621 0.0
N311 N 0.88662 0.59118 0.75104 0.0
C312 C 0.8676 0.60053 0.72529 0.0
C313 C 0.85451 0.59081 0.75056 0.0
H314 H 0.87703 0.57451 0.79567 0.0
H315 H 0.89364 0.60783 0.7064 0.0
C316 C 0.95674 0.60353 0.65954 0.0
N317 N 0.94746 0.61082 0.67346 0.0
C318 C 0.96621 0.61014 0.6284 0.0
C319 C 0.9557 0.63112 0.62537 0.0
C320 C 0.9466 0.62423 0.65692 0.0
C321 C 0.96579 0.62415 0.61099 0.0
H322 H 0.95676 0.59252 0.67267 0.0
H323 H 0.93867 0.62942 0.66789 0.0
O324 O 0.91349 0.58119 0.79271 0.0
O325 O 0.94675 0.59096 0.74735 0.0
O326 O 0.9121 0.57847 0.70975 0.0
O327 O 0.92994 0.6151 0.74957 0.0
H328 H 0.92949 0.58103 0.85183 0.0
H329 H 0.88403 0.5501 0.7859 0.0
H330 H 0.91848 0.55554 0.89286 0.0
H331 H 0.87381 0.52515 0.82811 0.0
H332 H 0.00515 0.63046 0.72757 0.0
H333 H 0.9598 0.5703 0.76502 0.0
H334 H 0.9735 0.62225 0.72726 0.0
H335 H 0.9917 0.57935 0.76424 0.0
H336 H 0.92825 0.5237 0.80307 0.0
H337 H 0.89946 0.5116 0.70482 0.0
H338 H 0.95287 0.64102 0.8854 0.0
H339 H 0.98527 0.61683 0.86915 0.0
H340 H 0.91007 0.59475 0.65268 0.0
H341 H 0.88021 0.55128 0.72366 0.0
H342 H 0.88238 0.58602 0.61933 0.0
H343 H 0.85302 0.54335 0.68921 0.0
H344 H 0.91837 0.63543 0.72207 0.0
H345 H 0.96397 0.63555 0.76624 0.0
H346 H 0.93678 0.66786 0.71252 0.0
H347 H 0.98161 0.66791 0.75564 0.0
H348 H 0.84826 0.57351 0.79594 0.0
H349 H 0.86556 0.6082 0.70531 0.0
H350 H 0.97354 0.60417 0.61773 0.0
H351 H 0.95499 0.64186 0.61251 0.0
Li352 Li 0.33637 0.93282 0.27775 0.0
Li353 Li 0.34781 0.91686 0.24525 0.0
Li354 Li 0.33569 0.93276 0.21442 0.0
Li355 Li 0.31639 0.90609 0.24588 0.0
C356 C 0.36547 0.96084 0.24351 0.0
N357 N 0.38284 0.99746 0.24013 0.0
C358 C 0.38371 0.97047 0.23702 0.0
C359 C 0.35605 0.96982 0.24827 0.0
C360 C 0.39225 0.98898 0.23542 0.0
C361 C 0.36507 0.98834 0.24647 0.0
C362 C 0.34025 0.90808 0.3165 0.0
C363 C 0.34009 0.8956 0.37318 0.0
N364 N 0.35756 0.90785 0.37722 0.0
C365 C 0.35821 0.92054 0.3212 0.0
C366 C 0.33111 0.8955 0.34266 0.0
C367 C 0.36672 0.92021 0.35208 0.0
C368 C 0.32494 0.94364 0.33783 0.0
N369 N 0.33946 0.94606 0.31975 0.0
C370 C 0.35875 0.96608 0.36355 0.0
C371 C 0.35615 0.9571 0.33184 0.0
C372 C 0.34403 0.96368 0.38316 0.0
C373 C 0.32692 0.95242 0.36975 0.0
H374 H 0.31181 0.93466 0.32771 0.0
H375 H 0.36751 0.95878 0.31711 0.0
C376 C 0.37954 0.92122 0.21979 0.0
N377 N 0.36619 0.91111 0.24241 0.0
C378 C 0.39433 0.91904 0.21726 0.0
C379 C 0.38117 0.89578 0.26087 0.0
C380 C 0.36651 0.89827 0.26224 0.0
C381 C 0.39549 0.90644 0.23852 0.0
H382 H 0.37878 0.93117 0.20404 0.0
H383 H 0.35561 0.89025 0.27975 0.0
C384 C 0.30174 0.92709 0.22936 0.0
N385 N 0.27244 0.92335 0.19351 0.0
C386 C 0.29807 0.92003 0.1954 0.0
C387 C 0.29053 0.93228 0.24506 0.0
C388 C 0.28319 0.91823 0.17772 0.0
C389 C 0.27577 0.93027 0.22651 0.0
C390 C 0.3286 0.89233 0.1941 0.0
C391 C 0.32846 0.8886 0.15835 0.0
C392 C 0.32577 0.87933 0.21897 0.0
C393 C 0.32551 0.87192 0.14804 0.0
C394 C 0.32287 0.86282 0.20761 0.0
N395 N 0.3228 0.85949 0.17268 0.0
C396 C 0.34661 0.9427 0.14567 0.0
C397 C 0.33385 0.95873 0.17057 0.0
C398 C 0.34948 0.95175 0.11395 0.0
N399 N 0.33887 0.94626 0.17304 0.0
C400 C 0.33657 0.96821 0.13933 0.0
C401 C 0.34442 0.96469 0.11046 0.0
H402 H 0.3506 0.93282 0.14858 0.0
H403 H 0.32769 0.96128 0.19278 0.0
C404 C 0.28579 0.87817 0.27733 0.0
N405 N 0.29355 0.88533 0.24599 0.0
C406 C 0.26931 0.86258 0.27835 0.0
C407 C 0.26901 0.86226 0.21483 0.0
C408 C 0.28552 0.87776 0.21504 0.0
C409 C 0.26075 0.85441 0.24677 0.0
H410 H 0.29247 0.88453 0.30152 0.0
H411 H 0.29202 0.88363 0.19045 0.0
O412 O 0.35697 0.94271 0.24498 0.0
O413 O 0.33152 0.90818 0.28665 0.0
O414 O 0.31622 0.92902 0.24735 0.0
O415 O 0.3314 0.90861 0.20439 0.0
H416 H 0.39118 0.96371 0.23328 0.0
H417 H 0.34193 0.9626 0.25334 0.0
H418 H 0.40637 0.99661 0.23043 0.0
H419 H 0.35795 0.99545 0.2501 0.0
H420 H 0.33316 0.88594 0.39365 0.0
H421 H 0.36555 0.93033 0.30121 0.0
H422 H 0.3172 0.88575 0.33943 0.0
H423 H 0.38061 0.92978 0.35604 0.0
H424 H 0.37217 0.97483 0.37263 0.0
H425 H 0.31522 0.9501 0.38418 0.0
H426 H 0.4048 0.92726 0.19902 0.0
H427 H 0.3815 0.88598 0.27793 0.0
H428 H 0.3066 0.91598 0.18275 0.0
H429 H 0.29321 0.9378 0.27133 0.0
H430 H 0.28019 0.91277 0.15143 0.0
H431 H 0.26697 0.93423 0.23835 0.0
H432 H 0.33057 0.89849 0.13876 0.0
H433 H 0.32571 0.88188 0.24674 0.0
H434 H 0.32536 0.86886 0.12045 0.0
H435 H 0.32064 0.85265 0.22657 0.0
H436 H 0.35583 0.94884 0.09255 0.0
H437 H 0.3324 0.97802 0.13761 0.0
H438 H 0.26329 0.85703 0.30353 0.0
H439 H 0.26296 0.85626 0.18992 0.0
Li440 Li 0.4282 0.34892 0.75027 0.0
Li441 Li 0.39982 0.33565 0.78183 0.0
Li442 Li 0.40868 0.31636 0.74802 0.0
Li443 Li 0.39886 0.33484 0.7179 0.0
C444 C 0.43404 0.33366 0.80993 0.0
N445 N 0.46213 0.33765 0.85064 0.0
C446 C 0.43677 0.34115 0.84346 0.0
C447 C 0.44543 0.32792 0.7974 0.0
C448 C 0.4511 0.34314 0.86355 0.0
C449 C 0.45959 0.33012 0.81829 0.0
C450 C 0.40575 0.36822 0.76205 0.0
C451 C 0.38432 0.37731 0.77497 0.0
N452 N 0.39736 0.39245 0.78988 0.0
C453 C 0.41898 0.38397 0.7771 0.0
C454 C 0.38831 0.36494 0.76061 0.0
C455 C 0.41446 0.39602 0.79118 0.0
C456 C 0.46113 0.37401 0.72021 0.0
N457 N 0.45192 0.36828 0.75081 0.0
C458 C 0.47581 0.39176 0.78259 0.0
C459 C 0.45887 0.37683 0.78165 0.0
C460 C 0.48564 0.39806 0.7514 0.0
C461 C 0.47816 0.38888 0.71993 0.0
H462 H 0.45511 0.36727 0.69588 0.0
H463 H 0.45106 0.37238 0.8054 0.0
C464 C 0.37277 0.32541 0.8339 0.0
N465 N 0.38936 0.33801 0.82384 0.0
C466 C 0.36555 0.32735 0.86529 0.0
C467 C 0.39258 0.35521 0.87506 0.0
C468 C 0.39932 0.35262 0.84383 0.0
C469 C 0.37551 0.34243 0.88641 0.0
H470 H 0.36524 0.31376 0.81776 0.0
H471 H 0.41259 0.36226 0.83555 0.0
C472 C 0.42914 0.32791 0.6857 0.0
N473 N 0.44673 0.31736 0.63977 0.0
C474 C 0.42174 0.32075 0.65295 0.0
C475 C 0.44565 0.33001 0.69477 0.0
C476 C 0.43079 0.31541 0.63019 0.0
C477 C 0.45429 0.32452 0.67129 0.0
C478 C 0.36845 0.30506 0.73721 0.0
C479 C 0.36363 0.28918 0.71963 0.0
C480 C 0.35613 0.31081 0.74061 0.0
C481 C 0.34667 0.2795 0.70505 0.0
C482 C 0.3393 0.30077 0.72565 0.0
N483 N 0.33497 0.28547 0.70828 0.0
C484 C 0.40948 0.28731 0.77879 0.0
C485 C 0.40587 0.28528 0.71696 0.0
C486 C 0.40915 0.2711 0.77979 0.0
N487 N 0.40808 0.29415 0.74764 0.0
C488 C 0.40544 0.26903 0.71672 0.0
C489 C 0.40715 0.26176 0.74843 0.0
H490 H 0.41079 0.29442 0.80293 0.0
H491 H 0.4042 0.29068 0.69268 0.0
C492 C 0.38963 0.35313 0.66916 0.0
N493 N 0.38749 0.33692 0.67681 0.0
C494 C 0.38269 0.35576 0.63815 0.0
C495 C 0.37139 0.32493 0.62341 0.0
C496 C 0.37859 0.32291 0.6547 0.0
C497 C 0.37354 0.34159 0.61462 0.0
H498 H 0.39715 0.36418 0.68667 0.0
H499 H 0.37746 0.31027 0.66085 0.0
O500 O 0.42009 0.33166 0.78987 0.0
O501 O 0.40988 0.35615 0.74853 0.0
O502 O 0.42044 0.33322 0.70829 0.0
O503 O 0.38503 0.31475 0.75153 0.0
H504 H 0.42798 0.34547 0.85381 0.0
H505 H 0.44322 0.32161 0.77202 0.0
H506 H 0.45343 0.34904 0.88943 0.0
H507 H 0.46851 0.32576 0.80884 0.0
H508 H 0.37085 0.37489 0.7742 0.0
H509 H 0.43257 0.38682 0.77812 0.0
H510 H 0.378 0.353 0.74845 0.0
H511 H 0.42454 0.4082 0.80314 0.0
H512 H 0.48108 0.3984 0.80743 0.0
H513 H 0.48516 0.39348 0.69521 0.0
H514 H 0.35245 0.31703 0.87318 0.0
H515 H 0.40068 0.36719 0.89002 0.0
H516 H 0.40909 0.31921 0.64527 0.0
H517 H 0.45186 0.33604 0.71945 0.0
H518 H 0.42514 0.30971 0.60489 0.0
H519 H 0.46706 0.32603 0.67805 0.0
H520 H 0.37292 0.28442 0.71705 0.0
H521 H 0.35948 0.32285 0.75478 0.0
H522 H 0.34282 0.26725 0.69115 0.0
H523 H 0.32967 0.30513 0.72793 0.0
H524 H 0.41018 0.26582 0.80489 0.0
H525 H 0.40392 0.2623 0.69193 0.0
H526 H 0.385 0.36892 0.63215 0.0
H527 H 0.36438 0.31362 0.60613 0.0
Li528 Li 0.59787 0.93316 0.27869 0.0
Li529 Li 0.58962 0.90565 0.24738 0.0
Li530 Li 0.59819 0.93358 0.21365 0.0
Li531 Li 0.5696 0.91706 0.244 0.0
C532 C 0.63078 0.93851 0.25171 0.0
N533 N 0.66697 0.95928 0.2623 0.0
C534 C 0.64031 0.93124 0.26708 0.0
C535 C 0.63976 0.95627 0.24109 0.0
C536 C 0.65857 0.94197 0.27241 0.0
C537 C 0.65802 0.96658 0.24683 0.0
C538 C 0.57328 0.89547 0.30864 0.0
C539 C 0.55646 0.86429 0.3228 0.0
N540 N 0.5668 0.86726 0.35166 0.0
C541 C 0.58365 0.89824 0.33858 0.0
C542 C 0.55947 0.87839 0.30081 0.0
C543 C 0.58019 0.8838 0.35996 0.0
C544 C 0.59892 0.95449 0.33398 0.0
N545 N 0.60772 0.94662 0.3204 0.0
C546 C 0.62848 0.95751 0.36791 0.0
C547 C 0.62221 0.94786 0.33672 0.0
C548 C 0.61967 0.96584 0.38249 0.0
C549 C 0.60475 0.9643 0.36497 0.0
H550 H 0.5873 0.9531 0.32068 0.0
H551 H 0.62868 0.94107 0.32604 0.0
C552 C 0.5827 0.87199 0.2237 0.0
N553 N 0.59119 0.8846 0.24872 0.0
C554 C 0.58314 0.85618 0.22474 0.0
C555 C 0.60134 0.86676 0.27693 0.0
C556 C 0.60049 0.88234 0.27493 0.0
C557 C 0.59254 0.85338 0.25167 0.0
H558 H 0.57548 0.87415 0.20303 0.0
H559 H 0.6071 0.89257 0.29453 0.0
C560 C 0.59186 0.96042 0.24286 0.0
N561 N 0.60173 0.99587 0.23674 0.0
C562 C 0.57995 0.96529 0.22935 0.0
C563 C 0.60866 0.97362 0.25393 0.0
C564 C 0.58522 0.98326 0.22625 0.0
C565 C 0.61343 0.99145 0.25047 0.0
C566 C 0.56423 0.90107 0.18259 0.0
C567 C 0.56412 0.90924 0.15103 0.0
C568 C 0.54939 0.88493 0.19201 0.0
C569 C 0.54904 0.90125 0.12969 0.0
C570 C 0.53456 0.87738 0.16999 0.0
N571 N 0.53469 0.88564 0.13956 0.0
C572 C 0.62328 0.94611 0.1581 0.0
C573 C 0.60284 0.95659 0.15736 0.0
C574 C 0.63125 0.95544 0.12727 0.0
N575 N 0.60943 0.94697 0.17256 0.0
C576 C 0.61037 0.96609 0.12659 0.0
C577 C 0.62478 0.96561 0.11111 0.0
H578 H 0.62807 0.9381 0.17043 0.0
H579 H 0.5914 0.9565 0.16856 0.0
C580 C 0.53399 0.90163 0.26781 0.0
N581 N 0.54553 0.91163 0.24214 0.0
C582 C 0.5165 0.89825 0.26731 0.0
C583 C 0.52315 0.91544 0.21386 0.0
C584 C 0.54045 0.91842 0.21535 0.0
C585 C 0.51092 0.90534 0.24023 0.0
H586 H 0.53841 0.89647 0.28894 0.0
H587 H 0.54993 0.92638 0.19535 0.0
O588 O 0.61288 0.92812 0.24622 0.0
O589 O 0.57667 0.9094 0.28705 0.0
O590 O 0.58684 0.94283 0.24616 0.0
O591 O 0.57878 0.90884 0.2041 0.0
H592 H 0.6337 0.91747 0.27499 0.0
H593 H 0.63279 0.96202 0.22808 0.0
H594 H 0.66606 0.93653 0.28452 0.0
H595 H 0.66509 0.98035 0.23881 0.0
H596 H 0.54591 0.85099 0.3169 0.0
H597 H 0.59435 0.91136 0.3451 0.0
H598 H 0.55127 0.87601 0.27785 0.0
H599 H 0.58818 0.88574 0.38309 0.0
H600 H 0.63984 0.95809 0.38086 0.0
H601 H 0.59767 0.97066 0.37501 0.0
H602 H 0.57597 0.84615 0.20496 0.0
H603 H 0.60893 0.86529 0.29789 0.0
H604 H 0.56679 0.95532 0.22116 0.0
H605 H 0.61784 0.97019 0.26565 0.0
H606 H 0.57618 0.98719 0.21556 0.0
H607 H 0.62641 0.00177 0.2589 0.0
H608 H 0.57553 0.92163 0.14312 0.0
H609 H 0.54926 0.8784 0.21626 0.0
H610 H 0.54875 0.90747 0.10528 0.0
H611 H 0.52293 0.86497 0.17713 0.0
H612 H 0.64236 0.95473 0.11625 0.0
H613 H 0.60464 0.97337 0.11455 0.0
H614 H 0.50749 0.89024 0.28798 0.0
H615 H 0.51956 0.92142 0.1928 0.0
Li616 Li 0.66605 0.59974 0.78377 0.0
Li617 Li 0.68448 0.59043 0.75418 0.0
Li618 Li 0.66525 0.59879 0.72131 0.0
Li619 Li 0.65155 0.5708 0.75346 0.0
C620 C 0.69554 0.63057 0.76462 0.0
N621 N 0.71453 0.66429 0.79276 0.0
C622 C 0.71266 0.63674 0.77774 0.0
C623 C 0.68817 0.64162 0.76546 0.0
C624 C 0.72202 0.65382 0.79194 0.0
C625 C 0.69795 0.6586 0.77991 0.0
C626 C 0.67432 0.5809 0.82815 0.0
C627 C 0.66914 0.57406 0.88995 0.0
N628 N 0.68618 0.58675 0.89691 0.0
C629 C 0.69176 0.5939 0.83597 0.0
C630 C 0.66289 0.57092 0.85538 0.0
C631 C 0.69752 0.59664 0.87085 0.0
C632 C 0.6463 0.60401 0.83617 0.0
N633 N 0.66336 0.6105 0.82551 0.0
C634 C 0.67413 0.62867 0.87695 0.0
C635 C 0.67721 0.62255 0.84527 0.0
C636 C 0.65664 0.62199 0.88873 0.0
C637 C 0.64262 0.60957 0.86787 0.0
H638 H 0.63553 0.59418 0.82038 0.0
H639 H 0.69068 0.62708 0.83712 0.0
C640 C 0.71918 0.60158 0.73094 0.0
N641 N 0.70613 0.59016 0.75286 0.0
C642 C 0.73528 0.60172 0.72925 0.0
C643 C 0.72406 0.57817 0.77241 0.0
C644 C 0.70818 0.57845 0.77316 0.0
C645 C 0.73792 0.58995 0.75029 0.0
H646 H 0.71705 0.61059 0.71481 0.0
H647 H 0.69748 0.56938 0.79007 0.0
C648 C 0.63319 0.59297 0.73714 0.0
N649 N 0.61044 0.60098 0.70144 0.0
C650 C 0.62032 0.58048 0.71462 0.0
C651 C 0.63431 0.60942 0.74196 0.0
C652 C 0.60899 0.58481 0.69668 0.0
C653 C 0.62274 0.61325 0.72355 0.0
C654 C 0.67119 0.56465 0.70212 0.0
C655 C 0.675 0.56367 0.66682 0.0
C656 C 0.67047 0.55208 0.72596 0.0
C657 C 0.67802 0.55007 0.65588 0.0
C658 C 0.67359 0.5387 0.71401 0.0
N659 N 0.67726 0.53798 0.67951 0.0
C660 C 0.67146 0.62637 0.67232 0.0
C661 C 0.65187 0.59682 0.65408 0.0
C662 C 0.66908 0.63292 0.64048 0.0
N663 N 0.66277 0.60861 0.67853 0.0
C664 C 0.64896 0.60276 0.62211 0.0
C665 C 0.65763 0.62106 0.61486 0.0
H666 H 0.68031 0.63545 0.69194 0.0
H667 H 0.64527 0.58274 0.65965 0.0
C668 C 0.62344 0.53957 0.78309 0.0
N669 N 0.63203 0.54719 0.75265 0.0
C670 C 0.60848 0.52262 0.78283 0.0
C671 C 0.6114 0.52174 0.7198 0.0
C672 C 0.62633 0.53868 0.72131 0.0
C673 C 0.60221 0.51353 0.75083 0.0
H674 H 0.62796 0.54683 0.80744 0.0
H675 H 0.6332 0.54519 0.69738 0.0
O676 O 0.68623 0.61392 0.75045 0.0
O677 O 0.66838 0.57827 0.79414 0.0
O678 O 0.64465 0.58912 0.75437 0.0
O679 O 0.66836 0.57799 0.71319 0.0
H680 H 0.71864 0.62843 0.77706 0.0
H681 H 0.67501 0.6371 0.75525 0.0
H682 H 0.73525 0.65874 0.80232 0.0
H683 H 0.69236 0.66725 0.78091 0.0
H684 H 0.66043 0.56642 0.91126 0.0
H685 H 0.70071 0.60201 0.81541 0.0
H686 H 0.64933 0.56088 0.85001 0.0
H687 H 0.71096 0.60672 0.87722 0.0
H688 H 0.68529 0.63807 0.89263 0.0
H689 H 0.62895 0.60415 0.87607 0.0
H690 H 0.74548 0.61082 0.7114 0.0
H691 H 0.72556 0.56901 0.78935 0.0
H692 H 0.61923 0.56766 0.7107 0.0
H693 H 0.64399 0.61911 0.75978 0.0
H694 H 0.59907 0.57533 0.67891 0.0
H695 H 0.62351 0.62597 0.72689 0.0
H696 H 0.67561 0.57333 0.64807 0.0
H697 H 0.66756 0.55264 0.7534 0.0
H698 H 0.68098 0.54914 0.62862 0.0
H699 H 0.67309 0.52889 0.73216 0.0
H700 H 0.67627 0.6471 0.63586 0.0
H701 H 0.63981 0.59311 0.6035 0.0
H702 H 0.60159 0.51692 0.80726 0.0
H703 H 0.60704 0.51517 0.69461 0.0
Li704 Li 0.0925 0.68321 0.24895 0.0
Li705 Li 0.06587 0.66559 0.28052 0.0
Li706 Li 0.07938 0.65136 0.24993 0.0
Li707 Li 0.06478 0.66509 0.21749 0.0
C708 C 0.10499 0.66922 0.29959 0.0
N709 N 0.13686 0.67187 0.31883 0.0
C710 C 0.10876 0.66837 0.33499 0.0
C711 C 0.11744 0.6714 0.27395 0.0
C712 C 0.12494 0.66975 0.3442 0.0
C713 C 0.13347 0.67271 0.28421 0.0
C714 C 0.07435 0.70075 0.2659 0.0
C715 C 0.07472 0.72865 0.26768 0.0
N716 N 0.08177 0.73162 0.30056 0.0
C717 C 0.0816 0.70409 0.2997 0.0
C718 C 0.07089 0.71312 0.24972 0.0
C719 C 0.08525 0.71977 0.31679 0.0
C720 C 0.12095 0.71296 0.21639 0.0
N721 N 0.11415 0.70526 0.24796 0.0
C722 C 0.13798 0.7295 0.2783 0.0
C723 C 0.12233 0.71311 0.27862 0.0
C724 C 0.14532 0.73781 0.24611 0.0
C725 C 0.13668 0.72931 0.21483 0.0
H726 H 0.11408 0.70643 0.19246 0.0
H727 H 0.1167 0.70668 0.30339 0.0
C728 C 0.05318 0.6523 0.34695 0.0
N729 N 0.05269 0.66322 0.32203 0.0
C730 C 0.04318 0.64878 0.37757 0.0
C731 C 0.03262 0.66811 0.35664 0.0
C732 C 0.04267 0.6711 0.32615 0.0
C733 C 0.03271 0.65671 0.38263 0.0
H734 H 0.06115 0.64611 0.3427 0.0
H735 H 0.04224 0.67944 0.30557 0.0
C736 C 0.08755 0.65852 0.17796 0.0
N737 N 0.08544 0.64052 0.11668 0.0
C738 C 0.0734 0.6413 0.1726 0.0
C739 C 0.10061 0.66657 0.15213 0.0
C740 C 0.07257 0.63243 0.14145 0.0
C741 C 0.09932 0.65725 0.12134 0.0
C742 C 0.03691 0.63664 0.26148 0.0
C743 C 0.0296 0.62076 0.28039 0.0
C744 C 0.02686 0.64493 0.256 0.0
C745 C 0.01238 0.61348 0.29371 0.0
C746 C 0.00969 0.63721 0.2697 0.0
N747 N 0.00288 0.62179 0.28816 0.0
C748 C 0.07512 0.61965 0.27698 0.0
C749 C 0.09564 0.63091 0.22986 0.0
C750 C 0.07715 0.60475 0.27952 0.0
N751 N 0.08399 0.63212 0.25194 0.0
C752 C 0.09806 0.61622 0.23142 0.0
C753 C 0.08857 0.60277 0.25622 0.0
H754 H 0.0664 0.62126 0.29491 0.0
H755 H 0.10304 0.64129 0.21096 0.0
C756 C 0.05764 0.67728 0.15411 0.0
N757 N 0.05172 0.66317 0.17621 0.0
C758 C 0.04892 0.67564 0.12228 0.0
C759 C 0.02801 0.64512 0.13711 0.0
C760 C 0.03722 0.6473 0.16836 0.0
C761 C 0.03396 0.65932 0.11328 0.0
H762 H 0.06939 0.68967 0.16087 0.0
H763 H 0.03298 0.63619 0.18606 0.0
O764 O 0.08913 0.66781 0.29041 0.0
O765 O 0.0708 0.68559 0.24837 0.0
O766 O 0.08859 0.66764 0.208 0.0
O767 O 0.05395 0.64434 0.24914 0.0
H768 H 0.09924 0.66667 0.35514 0.0
H769 H 0.11483 0.67211 0.24642 0.0
H770 H 0.12803 0.66912 0.37151 0.0
H771 H 0.14322 0.67441 0.26465 0.0
H772 H 0.07211 0.73834 0.25546 0.0
H773 H 0.0844 0.69469 0.31265 0.0
H774 H 0.06532 0.71074 0.22351 0.0
H775 H 0.09087 0.72252 0.34295 0.0
H776 H 0.14436 0.73552 0.30297 0.0
H777 H 0.14187 0.73536 0.1895 0.0
H778 H 0.04369 0.64002 0.39717 0.0
H779 H 0.02455 0.67431 0.35951 0.0
H780 H 0.06318 0.6348 0.19226 0.0
H781 H 0.11163 0.6799 0.15585 0.0
H782 H 0.0617 0.61911 0.13698 0.0
H783 H 0.10934 0.66333 0.10113 0.0
H784 H 0.0371 0.6141 0.2848 0.0
H785 H 0.03239 0.65735 0.24181 0.0
H786 H 0.00659 0.60122 0.30849 0.0
H787 H 0.00183 0.64355 0.26585 0.0
H788 H 0.06954 0.59471 0.299 0.0
H789 H 0.10729 0.61541 0.21347 0.0
H790 H 0.05414 0.68686 0.10453 0.0
H791 H 0.0164 0.63238 0.13161 0.0
Li792 Li 0.40795 0.09221 0.74734 0.0
Li793 Li 0.39934 0.06396 0.77676 0.0
Li794 Li 0.42836 0.08008 0.7435 0.0
Li795 Li 0.39974 0.06467 0.71357 0.0
C796 C 0.42961 0.09995 0.8112 0.0
N797 N 0.44824 0.12461 0.86309 0.0
C798 C 0.42148 0.09934 0.84326 0.0
C799 C 0.44735 0.11294 0.80585 0.0
C800 C 0.43107 0.11197 0.86906 0.0
C801 C 0.45651 0.12533 0.83231 0.0
C802 C 0.36878 0.06298 0.76208 0.0
C803 C 0.34147 0.0379 0.78234 0.0
N804 N 0.33688 0.0492 0.79754 0.0
C805 C 0.36375 0.07434 0.77769 0.0
C806 C 0.35751 0.04462 0.76417 0.0
C807 C 0.34758 0.06711 0.79556 0.0
C808 C 0.40575 0.12064 0.71756 0.0
N809 N 0.40671 0.11347 0.74866 0.0
C810 C 0.40634 0.137 0.78039 0.0
C811 C 0.40674 0.12116 0.77978 0.0
C812 C 0.4058 0.14495 0.74864 0.0
C813 C 0.40538 0.13649 0.71692 0.0
H814 H 0.40539 0.11407 0.69319 0.0
H815 H 0.40701 0.115 0.80415 0.0
C816 C 0.39208 0.03658 0.82439 0.0
N817 N 0.389 0.05019 0.81813 0.0
C818 C 0.3861 0.02678 0.8554 0.0
C819 C 0.37362 0.04498 0.87282 0.0
C820 C 0.37991 0.05448 0.8415 0.0
C821 C 0.3769 0.03106 0.88028 0.0
H822 H 0.3995 0.03356 0.8056 0.0
H823 H 0.3779 0.06555 0.8363 0.0
C824 C 0.43287 0.10407 0.68891 0.0
N825 N 0.45941 0.13426 0.65701 0.0
C826 C 0.43594 0.10416 0.65284 0.0
C827 C 0.44318 0.11941 0.70864 0.0
C828 C 0.44946 0.11953 0.63722 0.0
C829 C 0.45655 0.13452 0.69208 0.0
C830 C 0.40759 0.03973 0.72629 0.0
C831 C 0.42099 0.0403 0.70512 0.0
C832 C 0.39103 0.02425 0.72769 0.0
C833 C 0.41749 0.02539 0.68524 0.0
C834 C 0.38805 0.00963 0.70738 0.0
N835 N 0.40123 0.01051 0.68673 0.0
C836 C 0.4587 0.08248 0.77384 0.0
C837 C 0.46199 0.08964 0.7132 0.0
C838 C 0.47573 0.08472 0.77514 0.0
N839 N 0.45222 0.08497 0.74321 0.0
C840 C 0.47911 0.09205 0.7133 0.0
C841 C 0.48614 0.08944 0.74452 0.0
H842 H 0.45048 0.07845 0.79714 0.0
H843 H 0.45639 0.09109 0.68897 0.0
C844 C 0.3714 0.0418 0.66721 0.0
N845 N 0.38927 0.05183 0.67152 0.0
C846 C 0.3644 0.03216 0.63619 0.0
C847 C 0.39432 0.04355 0.61472 0.0
C848 C 0.40071 0.05292 0.64605 0.0
C849 C 0.37593 0.03298 0.60944 0.0
H850 H 0.3626 0.04123 0.68784 0.0
H851 H 0.41486 0.06086 0.6504 0.0
O852 O 0.42046 0.08748 0.78582 0.0
O853 O 0.38458 0.06982 0.74457 0.0
O854 O 0.41972 0.08908 0.70459 0.0
O855 O 0.41061 0.05434 0.74524 0.0
H856 H 0.40785 0.08935 0.84806 0.0
H857 H 0.45411 0.11341 0.78171 0.0
H858 H 0.42486 0.11172 0.89385 0.0
H859 H 0.47021 0.13547 0.82843 0.0
H860 H 0.33267 0.02372 0.78439 0.0
H861 H 0.37225 0.08858 0.77611 0.0
H862 H 0.36119 0.03564 0.75223 0.0
H863 H 0.34355 0.07574 0.8079 0.0
H864 H 0.40673 0.14309 0.80545 0.0
H865 H 0.40464 0.142 0.69187 0.0
H866 H 0.38875 0.01603 0.85996 0.0
H867 H 0.36679 0.04886 0.89148 0.0
H868 H 0.42799 0.09247 0.63704 0.0
H869 H 0.44069 0.11974 0.73631 0.0
H870 H 0.45203 0.11975 0.60937 0.0
H871 H 0.46461 0.14648 0.70708 0.0
H872 H 0.43388 0.05219 0.70374 0.0
H873 H 0.38055 0.02357 0.74409 0.0
H874 H 0.4277 0.02568 0.66854 0.0
H875 H 0.37525 0.9976 0.708 0.0
H876 H 0.48047 0.08224 0.79961 0.0
H877 H 0.4867 0.09577 0.68914 0.0
H878 H 0.35014 0.02428 0.63306 0.0
H879 H 0.4037 0.04433 0.59511 0.0
Li880 Li 0.33423 0.39961 0.28 0.0
Li881 Li 0.31436 0.4087 0.25364 0.0
Li882 Li 0.3332 0.40053 0.21688 0.0
Li883 Li 0.34689 0.42893 0.24863 0.0
C884 C 0.30461 0.36964 0.26665 0.0
N885 N 0.28755 0.33822 0.30393 0.0
C886 C 0.2896 0.3656 0.28672 0.0
C887 C 0.31083 0.35763 0.26521 0.0
C888 C 0.28118 0.34966 0.30545 0.0
C889 C 0.30206 0.34184 0.28436 0.0
C890 C 0.33053 0.43211 0.31409 0.0
C891 C 0.33157 0.45993 0.32505 0.0
N892 N 0.32768 0.45539 0.35944 0.0
C893 C 0.32672 0.4278 0.34962 0.0
C894 C 0.33312 0.44837 0.30176 0.0
C895 C 0.32527 0.43971 0.37209 0.0
C896 C 0.35248 0.38756 0.32324 0.0
N897 N 0.33737 0.38842 0.32014 0.0
C898 C 0.32759 0.37533 0.37687 0.0
C899 C 0.32497 0.38245 0.34608 0.0
C900 C 0.34323 0.37456 0.38111 0.0
C901 C 0.35568 0.38061 0.35362 0.0
H902 H 0.36224 0.39262 0.30245 0.0
H903 H 0.31323 0.38361 0.34323 0.0
C904 C 0.28193 0.40283 0.22702 0.0
N905 N 0.29196 0.40746 0.2567 0.0
C906 C 0.26557 0.40218 0.22694 0.0
C907 C 0.27005 0.41084 0.28811 0.0
C908 C 0.28626 0.41119 0.28708 0.0
C909 C 0.25954 0.40638 0.25771 0.0
H910 H 0.28679 0.39986 0.20329 0.0
H911 H 0.29425 0.41444 0.31053 0.0
C912 C 0.36664 0.40848 0.22892 0.0
N913 N 0.39046 0.40329 0.18997 0.0
C914 C 0.38091 0.42283 0.21222 0.0
C915 C 0.36458 0.39153 0.22612 0.0
C916 C 0.3928 0.41992 0.19259 0.0
C917 C 0.37673 0.38917 0.20619 0.0
C918 C 0.32667 0.43253 0.19091 0.0
C919 C 0.33196 0.43515 0.1557 0.0
C920 C 0.31907 0.44198 0.20527 0.0
C921 C 0.32978 0.44737 0.1356 0.0
C922 C 0.3171 0.45406 0.1843 0.0
N923 N 0.32247 0.4565 0.1502 0.0
C924 C 0.32367 0.37289 0.16624 0.0
C925 C 0.34764 0.40119 0.15099 0.0
C926 C 0.32541 0.36576 0.13452 0.0
N927 N 0.33477 0.39031 0.17381 0.0
C928 C 0.34998 0.39463 0.11931 0.0
C929 C 0.33876 0.37669 0.11054 0.0
H930 H 0.31346 0.36455 0.18479 0.0
H931 H 0.35623 0.415 0.15762 0.0
C932 C 0.3787 0.45647 0.27385 0.0
N933 N 0.36611 0.45274 0.24897 0.0
C934 C 0.39393 0.4732 0.27516 0.0
C935 C 0.38276 0.48213 0.22574 0.0
C936 C 0.36781 0.46518 0.22522 0.0
C937 C 0.39619 0.48628 0.2507 0.0
H938 H 0.37704 0.44626 0.29222 0.0
H939 H 0.35773 0.46199 0.20558 0.0
O940 O 0.31317 0.38528 0.24852 0.0
O941 O 0.33202 0.42058 0.2918 0.0
O942 O 0.35473 0.41102 0.24784 0.0
O943 O 0.32868 0.42055 0.2109 0.0
H944 H 0.2846 0.37474 0.28806 0.0
H945 H 0.32237 0.36052 0.24964 0.0
H946 H 0.26961 0.3464 0.32126 0.0
H947 H 0.30679 0.33247 0.28367 0.0
H948 H 0.33351 0.47254 0.31581 0.0
H949 H 0.32484 0.41537 0.35974 0.0
H950 H 0.33646 0.45214 0.27461 0.0
H951 H 0.32223 0.4365 0.3996 0.0
H952 H 0.31778 0.37106 0.3976 0.0
H953 H 0.36786 0.38014 0.35574 0.0
H954 H 0.25789 0.39879 0.20289 0.0
H955 H 0.26572 0.4139 0.31248 0.0
H956 H 0.3827 0.43603 0.21405 0.0
H957 H 0.35363 0.3803 0.23893 0.0
H958 H 0.40384 0.43088 0.17935 0.0
H959 H 0.37523 0.3761 0.20359 0.0
H960 H 0.3377 0.42787 0.14397 0.0
H961 H 0.31462 0.43998 0.23222 0.0
H962 H 0.33389 0.44957 0.10836 0.0
H963 H 0.31126 0.46147 0.19513 0.0
H964 H 0.31631 0.35192 0.12874 0.0
H965 H 0.3607 0.40351 0.10214 0.0
H966 H 0.40403 0.47567 0.29452 0.0
H967 H 0.3838 0.49185 0.20669 0.0
Li968 Li 0.90485 0.31467 0.75017 0.0
Li969 Li 0.93241 0.3337 0.77931 0.0
Li970 Li 0.91767 0.34777 0.74922 0.0
Li971 Li 0.9323 0.33427 0.71727 0.0
C972 C 0.90591 0.32645 0.82458 0.0
N973 N 0.90137 0.31766 0.89513 0.0
C974 C 0.89953 0.30888 0.83511 0.0
C975 C 0.90998 0.33953 0.85 0.0
C976 C 0.8973 0.3047 0.87087 0.0
C977 C 0.90762 0.33483 0.88552 0.0
C978 C 0.93381 0.3045 0.76393 0.0
C979 C 0.95895 0.3024 0.78438 0.0
N980 N 0.94769 0.28627 0.79867 0.0
C981 C 0.92249 0.28786 0.77865 0.0
C982 C 0.95219 0.3118 0.7666 0.0
C983 C 0.92977 0.27886 0.79616 0.0
C984 C 0.88206 0.27985 0.7267 0.0
N985 N 0.88319 0.29277 0.74844 0.0
C986 C 0.85321 0.27427 0.76711 0.0
C987 C 0.86913 0.2904 0.76812 0.0
C988 C 0.85171 0.26056 0.7453 0.0
C989 C 0.86634 0.26353 0.72469 0.0
H990 H 0.89344 0.28222 0.71112 0.0
H991 H 0.87031 0.30104 0.78467 0.0
C992 C 0.95936 0.35353 0.8279 0.0
N993 N 0.94623 0.3367 0.8208 0.0
C994 C 0.96919 0.35728 0.85887 0.0
C995 C 0.95186 0.32632 0.87483 0.0
C996 C 0.94242 0.32315 0.84347 0.0
C997 C 0.96536 0.34361 0.88298 0.0
H998 H 0.96195 0.36415 0.80988 0.0
H999 H 0.93184 0.30991 0.83767 0.0
C1000 C 0.89191 0.32687 0.69714 0.0
N1001 N 0.8587 0.31846 0.67277 0.0
C1002 C 0.8874 0.32214 0.66199 0.0
C1003 C 0.87951 0.32726 0.71995 0.0
C1004 C 0.87055 0.31796 0.65015 0.0
C1005 C 0.86279 0.32298 0.70712 0.0
C1006 C 0.95731 0.36649 0.73005 0.0
C1007 C 0.9561 0.37848 0.70739 0.0
C1008 C 0.97308 0.36595 0.7318 0.0
C1009 C 0.97068 0.38964 0.68649 0.0
C1010 C 0.98736 0.37732 0.71046 0.0
N1011 N 0.98587 0.38881 0.68841 0.0
C1012 C 0.9186 0.37784 0.77798 0.0
C1013 C 0.90691 0.37125 0.72022 0.0
C1014 C 0.9169 0.39296 0.77895 0.0
N1015 N 0.91348 0.36727 0.74908 0.0
C1016 C 0.90494 0.38623 0.72005 0.0
C1017 C 0.91002 0.39735 0.74968 0.0
H1018 H 0.92449 0.3748 0.79992 0.0
H1019 H 0.90354 0.36305 0.69701 0.0
C1020 C 0.95643 0.33091 0.67111 0.0
N1021 N 0.94473 0.33687 0.67463 0.0
C1022 C 0.96594 0.33384 0.63987 0.0
C1023 C 0.95095 0.34869 0.61643 0.0
C1024 C 0.94172 0.34544 0.64803 0.0
C1025 C 0.96335 0.34297 0.61212 0.0
H1026 H 0.95853 0.3241 0.69265 0.0
H1027 H 0.9323 0.34998 0.65161 0.0
O1028 O 0.90829 0.33082 0.78964 0.0
O1029 O 0.92692 0.31344 0.7465 0.0
O1030 O 0.90826 0.33073 0.70922 0.0
O1031 O 0.943 0.35507 0.74988 0.0
H1032 H 0.89669 0.29862 0.81599 0.0
H1033 H 0.91497 0.35319 0.8425 0.0
H1034 H 0.89247 0.29118 0.87934 0.0
H1035 H 0.91076 0.34485 0.90544 0.0
H1036 H 0.97314 0.30796 0.78688 0.0
H1037 H 0.90824 0.28198 0.77679 0.0
H1038 H 0.96114 0.32469 0.75554 0.0
H1039 H 0.92117 0.26601 0.80782 0.0
H1040 H 0.84213 0.27259 0.78296 0.0
H1041 H 0.86573 0.25326 0.70766 0.0
H1042 H 0.9793 0.37085 0.86438 0.0
H1043 H 0.94856 0.31538 0.8926 0.0
H1044 H 0.89684 0.32169 0.64407 0.0
H1045 H 0.88276 0.33083 0.74729 0.0
H1046 H 0.86688 0.31429 0.62299 0.0
H1047 H 0.85307 0.32323 0.72447 0.0
H1048 H 0.94397 0.37901 0.7056 0.0
H1049 H 0.97423 0.35677 0.74927 0.0
H1050 H 0.9699 0.3989 0.66864 0.0
H1051 H -0.00039 0.37697 0.71138 0.0
H1052 H 0.92142 0.40139 0.80198 0.0
H1053 H 0.89958 0.38911 0.69691 0.0
H1054 H 0.97547 0.32933 0.63772 0.0
H1055 H 0.94836 0.35554 0.59555 0.0
C1056 C 0.01906 0.3581 0.06341 0.0
C1057 C 0.02131 0.37346 0.0801 0.0
C1058 C 0.0097 0.35226 0.03162 0.0
C1059 C 0.00236 0.36199 0.0163 0.0
C1060 C 0.0043 0.37732 0.03338 0.0
C1061 C 0.01377 0.38288 0.06504 0.0
C1062 C 0.00793 0.33588 0.01411 0.0
C1063 C 0.99655 0.38797 0.018 0.0
C1064 C 0.9934 0.35893 0.91821 0.0
C1065 C 0.97497 0.34753 0.91695 0.0
C1066 C 0.00254 0.36344 0.95033 0.0
C1067 C 0.99299 0.35644 0.98197 0.0
C1068 C 0.97443 0.34467 0.98084 0.0
C1069 C 0.96564 0.34034 0.94833 0.0
C1070 C 0.02236 0.37595 0.95046 0.0
C1071 C 0.9638 0.337 0.01404 0.0
H1072 H 0.02501 0.35087 0.0748 0.0
H1073 H 0.01524 0.39461 0.07813 0.0
H1074 H 0.99373 0.32606 0.0096 0.0
H1075 H 0.0145 0.33942 0.98802 0.0
H1076 H 0.01394 0.32951 0.02997 0.0
H1077 H 0.99885 0.3993 0.03504 0.0
H1078 H 0.00253 0.39323 0.99187 0.0
H1079 H 0.98205 0.37934 0.01402 0.0
H1080 H 0.00069 0.36434 0.89399 0.0
H1081 H 0.95137 0.3317 0.94754 0.0
H1082 H 0.02912 0.36974 0.96425 0.0
H1083 H 0.0255 0.38823 0.96503 0.0
H1084 H 0.0279 0.37968 0.92351 0.0
H1085 H 0.96939 0.33013 0.02949 0.0
H1086 H 0.94959 0.32746 0.00854 0.0
H1087 H 0.96463 0.34786 0.0307 0.0
C1088 C 0.64392 0.98705 0.42275 0.0
C1089 C 0.62577 0.97585 0.41605 0.0
C1090 C 0.64975 0.99685 0.45408 0.0
C1091 C 0.63711 0.99545 0.4792 0.0
C1092 C 0.61879 0.98403 0.47276 0.0
C1093 C 0.61336 0.97434 0.44134 0.0
C1094 C 0.66939 0.00886 0.4601 0.0
C1095 C 0.60491 0.98217 0.49892 0.0
C1096 C 0.6501 0.00883 0.57432 0.0
C1097 C 0.65123 0.02549 0.57548 0.0
C1098 C 0.64603 0.99911 0.54289 0.0
C1099 C 0.64292 0.00618 0.51196 0.0
C1100 C 0.64448 0.02317 0.51275 0.0
C1101 C 0.64867 0.03264 0.54445 0.0
C1102 C 0.64456 0.98107 0.54302 0.0
C1103 C 0.64126 0.03116 0.48029 0.0
H1104 H 0.65358 0.98841 0.40319 0.0
H1105 H 0.59933 0.96548 0.43666 0.0
H1106 H 0.67246 0.02283 0.46233 0.0
H1107 H 0.67339 0.00538 0.48522 0.0
H1108 H 0.67753 0.00797 0.43854 0.0
H1109 H 0.59121 0.97258 0.4901 0.0
H1110 H 0.60725 0.9777 0.52465 0.0
H1111 H 0.60588 0.99525 0.50319 0.0
H1112 H 0.65187 0.00312 0.59822 0.0
H1113 H 0.64985 0.04565 0.54498 0.0
H1114 H 0.65301 0.9803 0.52205 0.0
H1115 H 0.63066 0.97069 0.53737 0.0
H1116 H 0.64854 0.97799 0.56862 0.0
H1117 H 0.64996 0.03158 0.45856 0.0
H1118 H 0.64372 0.04482 0.48496 0.0
H1119 H 0.62733 0.02274 0.47143 0.0
C1120 C 0.61925 0.6486 0.05392 0.0
C1121 C 0.6289 0.65092 0.08487 0.0
C1122 C 0.62469 0.64485 0.02196 0.0
C1123 C 0.64003 0.64312 0.02105 0.0
C1124 C 0.64999 0.64571 0.05214 0.0
C1125 C 0.64437 0.64973 0.0837 0.0
C1126 C 0.61386 0.64245 0.98928 0.0
C1127 C 0.66628 0.64374 0.05228 0.0
C1128 C 0.64147 0.61465 0.94703 0.0
C1129 C 0.65299 0.6275 0.9231 0.0
C1130 C 0.63753 0.61957 0.97941 0.0
C1131 C 0.6451 0.63779 0.98782 0.0
C1132 C 0.65691 0.65083 0.96389 0.0
C1133 C 0.66083 0.64551 0.93187 0.0
C1134 C 0.62509 0.60526 0.00444 0.0
C1135 C 0.66504 0.67039 0.97173 0.0
H1136 H 0.6074 0.64975 0.05474 0.0
H1137 H 0.65177 0.65141 0.10769 0.0
H1138 H 0.62249 0.65136 0.96812 0.0
H1139 H 0.60807 0.62863 0.97955 0.0
H1140 H 0.6029 0.64524 0.99405 0.0
H1141 H 0.67293 0.64686 0.07833 0.0
H1142 H 0.66251 0.62993 0.04511 0.0
H1143 H 0.67593 0.65262 0.03231 0.0
H1144 H 0.6356 0.6007 0.94045 0.0
H1145 H 0.66968 0.65545 0.91327 0.0
H1146 H 0.61296 0.60623 0.00836 0.0
H1147 H 0.6315 0.60711 0.0305 0.0
H1148 H 0.62106 0.59172 0.99472 0.0
H1149 H 0.6544 0.67382 0.97434 0.0
H1150 H 0.67438 0.67883 0.95087 0.0
H1151 H 0.67225 0.67362 0.99712 0.0
C1152 C 0.02244 0.66675 0.43466 0.0
C1153 C 0.02186 0.65289 0.41483 0.0
C1154 C 0.01302 0.66329 0.46638 0.0
C1155 C 0.00267 0.64554 0.47818 0.0
C1156 C 0.00161 0.63148 0.45762 0.0
C1157 C 0.0113 0.63534 0.42628 0.0
C1158 C 0.0146 0.67862 0.48777 0.0
C1159 C 0.99054 0.61237 0.4691 0.0
C1160 C 0.99327 0.63495 0.57503 0.0
C1161 C 0.97563 0.63109 0.57764 0.0
C1162 C 0.00244 0.64031 0.54304 0.0
C1163 C 0.99365 0.64163 0.51286 0.0
C1164 C 0.97597 0.6382 0.51554 0.0
C1165 C 0.96718 0.63305 0.54803 0.0
C1166 C 0.02136 0.64409 0.54134 0.0
C1167 C 0.96613 0.6393 0.48385 0.0
H1168 H 0.03069 0.68034 0.42589 0.0
H1169 H 0.01066 0.6246 0.41067 0.0
H1170 H 0.00123 0.67659 0.49379 0.0
H1171 H 0.02112 0.6793 0.51323 0.0
H1172 H 0.02242 0.69154 0.47404 0.0
H1173 H 0.99033 0.60295 0.44912 0.0
H1174 H 0.99589 0.61028 0.49398 0.0
H1175 H 0.97669 0.60914 0.4743 0.0
H1176 H -0.00013 0.63364 0.59806 0.0
H1177 H 0.95349 0.62993 0.54999 0.0
H1178 H 0.03005 0.65737 0.52964 0.0
H1179 H 0.0221 0.63418 0.52415 0.0
H1180 H 0.02665 0.64363 0.56765 0.0
H1181 H 0.97395 0.65238 0.47079 0.0
H1182 H 0.95286 0.63734 0.49079 0.0
H1183 H 0.96435 0.62901 0.46446 0.0
C1184 C 0.35454 0.01619 0.92845 0.0
C1185 C 0.37136 0.02148 0.91435 0.0
C1186 C 0.34923 0.00711 0.96064 0.0
C1187 C 0.36106 0.00333 0.97919 0.0
C1188 C 0.37812 0.00879 0.96523 0.0
C1189 C 0.38304 0.01778 0.93298 0.0
C1190 C 0.33091 0.00141 0.97464 0.0
C1191 C 0.39116 0.00511 0.98432 0.0
C1192 C 0.35496 0.99301 0.0769 0.0
C1193 C 0.34757 0.97452 0.07691 0.0
C1194 C 0.35905 0.00255 0.04523 0.0
C1195 C 0.35558 0.99335 0.01289 0.0
C1196 C 0.34765 0.97464 0.01276 0.0
C1197 C 0.34377 0.96546 0.04477 0.0
C1198 C 0.36757 0.02252 0.04641 0.0
C1199 C 0.34362 0.96434 0.97881 0.0
H1200 H 0.34541 0.0189 0.91401 0.0
H1201 H 0.39617 0.02211 0.92252 0.0
H1202 H 0.32324 0.98675 0.97727 0.0
H1203 H 0.33188 0.00707 0.00122 0.0
H1204 H 0.32342 0.00566 0.95735 0.0
H1205 H 0.404 0.0105 0.97017 0.0
H1206 H 0.39375 0.01103 0.011 0.0
H1207 H 0.38546 0.99059 0.9876 0.0
H1208 H 0.35805 9e-05 0.10168 0.0
H1209 H 0.33781 0.95113 0.04467 0.0
H1210 H 0.35989 0.02691 0.03017 0.0
H1211 H 0.38114 0.02868 0.03516 0.0
H1212 H 0.36851 0.02757 0.0736 0.0
H1213 H 0.33533 0.96755 0.96155 0.0
H1214 H 0.33659 0.94976 0.98322 0.0
H1215 H 0.35616 0.96822 0.96453 0.0
C1216 C 0.36377 0.37786 0.43022 0.0
C1217 C 0.34694 0.36834 0.41469 0.0
C1218 C 0.36738 0.37263 0.4626 0.0
C1219 C 0.35384 0.35748 0.47986 0.0
C1220 C 0.33687 0.34768 0.46416 0.0
C1221 C 0.3336 0.35326 0.43177 0.0
C1222 C 0.38562 0.3835 0.4786 0.0
C1223 C 0.32215 0.33138 0.48167 0.0
C1224 C 0.36939 0.33703 0.54946 0.0
C1225 C 0.36713 0.34448 0.58039 0.0
C1226 C 0.36459 0.3407 0.51663 0.0
C1227 C 0.35746 0.35216 0.51465 0.0
C1228 C 0.35469 0.35932 0.54582 0.0
C1229 C 0.35952 0.35536 0.57831 0.0
C1230 C 0.36771 0.33278 0.48397 0.0
C1231 C 0.34707 0.37157 0.54478 0.0
H1232 H 0.37405 0.38968 0.41741 0.0
H1233 H 0.32062 0.34577 0.4197 0.0
H1234 H 0.38459 0.3889 0.50434 0.0
H1235 H 0.39154 0.37499 0.48349 0.0
H1236 H 0.39476 0.39474 0.4615 0.0
H1237 H 0.30982 0.32502 0.46566 0.0
H1238 H 0.32648 0.32152 0.48641 0.0
H1239 H 0.31907 0.33497 0.50764 0.0
H1240 H 0.37546 0.32879 0.55075 0.0
H1241 H 0.35748 0.36094 0.60213 0.0
H1242 H 0.378 0.3435 0.46746 0.0
H1243 H 0.35539 0.32599 0.46806 0.0
H1244 H 0.37213 0.32312 0.49019 0.0
H1245 H 0.3562 0.38384 0.53017 0.0
H1246 H 0.34497 0.37535 0.57148 0.0
H1247 H 0.33421 0.36515 0.53059 0.0
C1248 C 0.99873 0.64648 0.91562 0.0
C1249 C 0.98016 0.63801 0.91457 0.0
C1250 C 0.0079 0.65194 0.94763 0.0
C1251 C 0.99822 0.64861 0.97932 0.0
C1252 C 0.97952 0.64079 0.97825 0.0
C1253 C 0.9707 0.63567 0.9458 0.0
C1254 C 0.02788 0.6605 0.94763 0.0
C1255 C 0.96872 0.63686 0.01149 0.0
C1256 C 0.01866 0.6408 0.06041 0.0
C1257 C 0.02491 0.65681 0.07883 0.0
C1258 C 0.00985 0.63798 0.02821 0.0
C1259 C 0.00747 0.6516 0.01362 0.0
C1260 C 0.01394 0.6679 0.03171 0.0
C1261 C 0.02251 0.67029 0.06422 0.0
C1262 C 0.0031 0.62037 0.00977 0.0
C1263 C 0.01177 0.68278 0.01674 0.0
H1264 H 0.00606 0.64846 0.8914 0.0
H1265 H 0.95633 0.62899 0.94504 0.0
H1266 H 0.03391 0.67272 0.96391 0.0
H1267 H 0.03176 0.65128 0.95941 0.0
H1268 H 0.03352 0.66398 0.92071 0.0
H1269 H 0.95453 0.63231 0.006 0.0
H1270 H 0.96948 0.62634 0.02657 0.0
H1271 H 0.97416 0.64881 0.02847 0.0
H1272 H 0.0208 0.63046 0.07102 0.0
H1273 H 0.02714 0.68264 0.07838 0.0
H1274 H 0.00956 0.62245 0.98371 0.0
H1275 H 0.9886 0.6141 0.00517 0.0
H1276 H 0.00567 0.611 0.02507 0.0
H1277 H 0.01794 0.68647 0.9903 0.0
H1278 H 0.01789 0.69478 0.03372 0.0
H1279 H 0.99747 0.67832 0.0135 0.0
C1280 C 0.35941 0.97353 0.44121 0.0
C1281 C 0.34667 0.97274 0.41756 0.0
C1282 C 0.36282 0.98281 0.47301 0.0
C1283 C 0.35325 0.99153 0.48146 0.0
C1284 C 0.34002 0.99039 0.45819 0.0
C1285 C 0.33687 0.98099 0.42648 0.0
C1286 C 0.37698 0.98362 0.4972 0.0
C1287 C 0.32954 0.9995 0.46633 0.0
C1288 C 0.35516 0.00501 0.57708 0.0
C1289 C 0.369 0.02272 0.57634 0.0
C1290 C 0.34945 0.99482 0.54619 0.0
C1291 C 0.3578 0.00253 0.51385 0.0
C1292 C 0.37138 0.02056 0.51279 0.0
C1293 C 0.37679 0.03043 0.54401 0.0
C1294 C 0.33492 0.97564 0.54835 0.0
C1295 C 0.38057 0.0293 0.47882 0.0
H1296 H 0.36678 0.96689 0.43477 0.0
H1297 H 0.32708 0.98052 0.40822 0.0
H1298 H 0.38786 0.99757 0.49992 0.0
H1299 H 0.3714 0.97887 0.5238 0.0
H1300 H 0.3827 0.97551 0.48745 0.0
H1301 H 0.31896 0.99641 0.44662 0.0
H1302 H 0.32334 0.99548 0.49269 0.0
H1303 H 0.33857 0.01409 0.46696 0.0
H1304 H 0.34918 0.99893 0.602 0.0
H1305 H 0.38728 0.0442 0.54318 0.0
H1306 H 0.34043 0.9669 0.54192 0.0
H1307 H 0.32439 0.97289 0.52881 0.0
H1308 H 0.32882 0.97206 0.57489 0.0
H1309 H 0.38782 0.02276 0.46858 0.0
H1310 H 0.39017 0.04368 0.48215 0.0
H1311 H 0.37066 0.02769 0.45867 0.0
C1312 C 0.37958 0.35273 0.94903 0.0
C1313 C 0.36831 0.34497 0.92006 0.0
C1314 C 0.37343 0.3565 0.98006 0.0
C1315 C 0.35544 0.35208 0.98257 0.0
C1316 C 0.34377 0.34353 0.95409 0.0
C1317 C 0.35037 0.3402 0.92305 0.0
C1318 C 0.38634 0.36575 0.00976 0.0
C1319 C 0.32444 0.33835 0.95604 0.0
C1320 C 0.33949 0.35258 0.07528 0.0
C1321 C 0.34131 0.36954 0.07684 0.0
C1322 C 0.34326 0.34635 0.04424 0.0
C1323 C 0.34926 0.35745 0.01425 0.0
C1324 C 0.35057 0.37433 0.0153 0.0
C1325 C 0.34641 0.38007 0.04641 0.0
C1326 C 0.34141 0.32814 0.04393 0.0
C1327 C 0.35704 0.38662 0.98395 0.0
H1328 H 0.39333 0.35605 0.94739 0.0
H1329 H 0.34156 0.33432 0.9008 0.0
H1330 H 0.38749 0.37885 0.01481 0.0
H1331 H 0.3814 0.35787 0.03427 0.0
H1332 H 0.39978 0.36786 0.00399 0.0
H1333 H 0.31676 0.33027 0.93308 0.0
H1334 H 0.31835 0.3307 0.9804 0.0
H1335 H 0.32326 0.35046 0.95708 0.0
H1336 H 0.33569 0.34437 0.09865 0.0
H1337 H 0.34742 0.393 0.04701 0.0
H1338 H 0.35473 0.32944 0.04208 0.0
H1339 H 0.33372 0.32054 0.02059 0.0
H1340 H 0.33474 0.32042 0.06795 0.0
H1341 H 0.37091 0.39023 0.97774 0.0
H1342 H 0.35664 0.39902 0.98859 0.0
H1343 H 0.34886 0.37986 0.96052 0.0
C1344 C 0.98065 0.36339 0.56287 0.0
C1345 C 0.97361 0.34671 0.57895 0.0
C1346 C 0.99003 0.36708 0.53113 0.0
C1347 C 0.99246 0.35377 0.51506 0.0
C1348 C 0.98558 0.33696 0.53134 0.0
C1349 C 0.97624 0.33363 0.56313 0.0
C1350 C 0.99723 0.3852 0.51467 0.0
C1351 C 0.98792 0.32246 0.51497 0.0
C1352 C 0.00179 0.35917 0.41708 0.0
C1353 C 0.02036 0.36723 0.41626 0.0
C1354 C 0.9925 0.35427 0.44902 0.0
C1355 C 0.00198 0.35746 0.48093 0.0
C1356 C 0.02066 0.36505 0.48024 0.0
C1357 C 0.02963 0.36989 0.44793 0.0
C1358 C 0.97256 0.34616 0.44868 0.0
C1359 C 0.03123 0.36862 0.51372 0.0
H1360 H 0.97893 0.37365 0.57527 0.0
H1361 H 0.97069 0.32067 0.57528 0.0
H1362 H 0.01181 0.39152 0.5112 0.0
H1363 H 0.99135 0.38389 0.48821 0.0
H1364 H 0.99437 0.39414 0.53075 0.0
H1365 H 0.98217 0.31028 0.53143 0.0
H1366 H 0.98146 0.31895 0.48879 0.0
H1367 H 0.00223 0.32719 0.51086 0.0
H1368 H 0.99451 0.35682 0.39269 0.0
H1369 H 0.04398 0.37631 0.44759 0.0
H1370 H 0.96886 0.35513 0.46223 0.0
H1371 H 0.96621 0.3334 0.46323 0.0
H1372 H 0.96709 0.34372 0.42159 0.0
H1373 H 0.03016 0.37876 0.52953 0.0
H1374 H 0.0455 0.37344 0.50856 0.0
H1375 H 0.02579 0.35638 0.52986 0.0
C1376 C 0.6698 0.02151 0.93463 0.0
C1377 C 0.65597 0.01847 0.9116 0.0
C1378 C 0.66628 0.01264 0.96703 0.0
C1379 C 0.6485 0.00055 0.97662 0.0
C1380 C 0.63455 0.99705 0.95303 0.0
C1381 C 0.63845 0.00605 0.92083 0.0
C1382 C 0.68151 0.01657 0.99139 0.0
C1383 C 0.6154 0.98431 0.96235 0.0
C1384 C 0.63668 0.96707 0.05037 0.0
C1385 C 0.6325 0.9752 0.07768 0.0
C1386 C 0.64258 0.97545 0.01765 0.0
C1387 C 0.64426 0.99232 0.01212 0.0
C1388 C 0.64068 0.00086 0.03997 0.0
C1389 C 0.63489 0.99222 0.07241 0.0
C1390 C 0.64633 0.96597 0.9886 0.0
C1391 C 0.64238 0.01888 0.03514 0.0
H1392 H 0.68338 0.03095 0.92744 0.0
H1393 H 0.62767 0.00384 0.90342 0.0
H1394 H 0.68049 0.02319 0.01548 0.0
H1395 H 0.68088 0.00404 0.99971 0.0
H1396 H 0.69462 0.02529 0.97898 0.0
H1397 H 0.60622 0.98232 0.9403 0.0
H1398 H 0.61371 0.97123 0.96988 0.0
H1399 H 0.6115 0.98944 0.98534 0.0
H1400 H 0.63473 0.95386 0.05415 0.0
H1401 H 0.63199 0.99871 0.0936 0.0
H1402 H 0.65951 0.97485 0.97674 0.0
H1403 H 0.63629 0.96226 0.96749 0.0
H1404 H 0.64601 0.95373 0.99806 0.0
H1405 H 0.65579 0.02852 0.02515 0.0
H1406 H 0.64005 0.02413 0.05997 0.0
H1407 H 0.63262 0.018 0.01529 0.0
C1408 C 0.61606 0.63992 0.44691 0.0
C1409 C 0.62824 0.65063 0.42107 0.0
C1410 C 0.62177 0.63605 0.4784 0.0
C1411 C 0.64016 0.64329 0.48459 0.0
C1412 C 0.65258 0.65449 0.45912 0.0
C1413 C 0.64647 0.65795 0.42756 0.0
C1414 C 0.6081 0.62396 0.50484 0.0
C1415 C 0.67229 0.66262 0.465 0.0
C1416 C 0.65297 0.64291 0.57988 0.0
C1417 C 0.65451 0.6276 0.58096 0.0
C1418 C 0.64898 0.64859 0.54838 0.0
C1419 C 0.64623 0.63859 0.51731 0.0
C1420 C 0.6482 0.6234 0.518 0.0
C1421 C 0.65244 0.61818 0.54971 0.0
C1422 C 0.64718 0.66497 0.54859 0.0
C1423 C 0.64528 0.61233 0.48545 0.0
H1424 H 0.60198 0.63454 0.44258 0.0
H1425 H 0.65599 0.66611 0.40769 0.0
H1426 H 0.60941 0.61206 0.50932 0.0
H1427 H 0.61035 0.63087 0.53043 0.0
H1428 H 0.59431 0.61951 0.49612 0.0
H1429 H 0.68022 0.67185 0.44354 0.0
H1430 H 0.67615 0.66997 0.49026 0.0
H1431 H 0.67577 0.65199 0.46683 0.0
H1432 H 0.65436 0.6502 0.60388 0.0
H1433 H 0.654 0.60657 0.55006 0.0
H1434 H 0.63317 0.6612 0.54343 0.0
H1435 H 0.65535 0.67418 0.52735 0.0
H1436 H 0.65127 0.67214 0.57408 0.0
H1437 H 0.63133 0.60658 0.47651 0.0
H1438 H 0.64803 0.60132 0.49006 0.0
H1439 H 0.65392 0.62075 0.46381 0.0
C1440 C 0.09019 0.57808 0.22582 0.0
C1441 C 0.09013 0.58653 0.25717 0.0
C1442 C 0.09061 0.56216 0.22628 0.0
C1443 C 0.09095 0.55449 0.25887 0.0
C1444 C 0.09131 0.56316 0.29059 0.0
C1445 C 0.0909 0.57908 0.28936 0.0
C1446 C 0.09017 0.55329 0.19188 0.0
C1447 C 0.09175 0.55543 0.32584 0.0
C1448 C 0.0726 0.50471 0.26071 0.0
C1449 C 0.08814 0.50359 0.2599 0.0
C1450 C 0.07336 0.52119 0.26068 0.0
C1451 C 0.09006 0.53698 0.25974 0.0
C1452 C 0.10581 0.53598 0.25912 0.0
C1453 C 0.10466 0.51929 0.25919 0.0
C1454 C 0.05626 0.5217 0.26125 0.0
C1455 C 0.12386 0.55254 0.2582 0.0
H1456 H 0.08939 0.58364 0.20087 0.0
H1457 H 0.09111 0.58568 0.31367 0.0
H1458 H 0.10143 0.55073 0.1905 0.0
H1459 H 0.07777 0.54025 0.19014 0.0
H1460 H 0.09084 0.56142 0.16881 0.0
H1461 H 0.09283 0.56423 0.348 0.0
H1462 H 0.07949 0.5424 0.32938 0.0
H1463 H 0.10314 0.55305 0.32707 0.0
H1464 H 0.05978 0.49264 0.26069 0.0
H1465 H 0.11672 0.51852 0.25894 0.0
H1466 H 0.05529 0.52843 0.23728 0.0
H1467 H 0.0561 0.52949 0.28418 0.0
H1468 H 0.04437 0.50823 0.2626 0.0
H1469 H 0.12508 0.56038 0.23432 0.0
H1470 H 0.13483 0.54949 0.25828 0.0
H1471 H 0.12547 0.56104 0.28123 0.0
C1472 C 0.51542 0.09864 0.77344 0.0
C1473 C 0.50388 0.09082 0.74488 0.0
C1474 C 0.53174 0.09904 0.77504 0.0
C1475 C 0.53665 0.09149 0.74737 0.0
C1476 C 0.52528 0.08399 0.71806 0.0
C1477 C 0.50902 0.0837 0.71721 0.0
C1478 C 0.54353 0.10718 0.80671 0.0
C1479 C 0.53007 0.07582 0.68803 0.0
C1480 C 0.58484 0.10331 0.73804 0.0
C1481 C 0.58456 0.08849 0.75332 0.0
C1482 C 0.56938 0.10455 0.73609 0.0
C1483 C 0.55327 0.09065 0.74982 0.0
C1484 C 0.55293 0.07572 0.76548 0.0
C1485 C 0.56855 0.0748 0.76693 0.0
C1486 C 0.57023 0.12066 0.71917 0.0
C1487 C 0.536 0.06062 0.78041 0.0
H1488 H 0.51165 0.10439 0.79467 0.0
H1489 H 0.50008 0.07742 0.69528 0.0
H1490 H 0.54504 0.09687 0.82091 0.0
H1491 H 0.55698 0.11757 0.79831 0.0
H1492 H 0.53815 0.11318 0.82524 0.0
H1493 H 0.52025 0.07142 0.66629 0.0
H1494 H 0.54333 0.08549 0.67745 0.0
H1495 H 0.53084 0.06417 0.69761 0.0
H1496 H 0.59721 0.11403 0.72782 0.0
H1497 H 0.56814 0.06316 0.77822 0.0
H1498 H 0.5658 0.12735 0.73808 0.0
H1499 H 0.56109 0.11654 0.69634 0.0
H1500 H 0.58383 0.13038 0.71005 0.0
H1501 H 0.5305 0.0657 0.80068 0.0
H1502 H 0.53807 0.05016 0.79242 0.0
H1503 H 0.52589 0.05451 0.75935 0.0
C1504 C 0.48039 0.58535 0.24952 0.0
C1505 C 0.49602 0.58444 0.2485 0.0
C1506 C 0.46368 0.56985 0.24983 0.0
C1507 C 0.46263 0.55308 0.24947 0.0
C1508 C 0.47839 0.55209 0.24863 0.0
C1509 C 0.49489 0.56779 0.248 0.0
C1510 C 0.44715 0.57141 0.25031 0.0
C1511 C 0.47782 0.53445 0.24861 0.0
C1512 C 0.42088 0.51234 0.28209 0.0
C1513 C 0.41274 0.50389 0.25046 0.0
C1514 C 0.43699 0.5285 0.28216 0.0
C1515 C 0.44508 0.53649 0.24984 0.0
C1516 C 0.43674 0.52828 0.21783 0.0
C1517 C 0.42073 0.51205 0.21852 0.0
C1518 C 0.44553 0.53684 0.31684 0.0
C1519 C 0.44492 0.53645 0.18283 0.0
H1520 H 0.48124 0.59822 0.24961 0.0
H1521 H 0.50696 0.56705 0.24769 0.0
H1522 H 0.43887 0.56469 0.22693 0.0
H1523 H 0.43907 0.56465 0.27386 0.0
H1524 H 0.45026 0.58545 0.25047 0.0
H1525 H 0.49129 0.53599 0.24821 0.0
H1526 H 0.47071 0.52672 0.27229 0.0
H1527 H 0.47036 0.52656 0.22535 0.0
H1528 H 0.41467 0.5063 0.30687 0.0
H1529 H 0.41471 0.50552 0.19395 0.0
H1530 H 0.4478 0.55055 0.3184 0.0
H1531 H 0.45869 0.53775 0.31889 0.0
H1532 H 0.43731 0.52916 0.33966 0.0
H1533 H 0.44765 0.55034 0.18157 0.0
H1534 H 0.43624 0.52894 0.16037 0.0
H1535 H 0.45781 0.53688 0.17981 0.0
C1536 C 0.89629 0.48225 0.74311 0.0
C1537 C 0.91208 0.49735 0.75368 0.0
C1538 C 0.89493 0.46547 0.74212 0.0
C1539 C 0.90969 0.46376 0.75206 0.0
C1540 C 0.92561 0.47892 0.76297 0.0
C1541 C 0.92663 0.49552 0.76354 0.0
C1542 C 0.87775 0.4496 0.73031 0.0
C1543 C 0.94164 0.47763 0.77377 0.0
C1544 C 0.90334 0.41902 0.77976 0.0
C1545 C 0.9089 0.41385 0.74961 0.0
C1546 C 0.90317 0.43506 0.78069 0.0
C1547 C 0.90864 0.44618 0.75072 0.0
C1548 C 0.91386 0.44086 0.71993 0.0
C1549 C 0.91396 0.42478 0.71977 0.0
C1550 C 0.89749 0.44028 0.81398 0.0
C1551 C 0.91977 0.45237 0.68744 0.0
H1552 H 0.88493 0.48352 0.73586 0.0
H1553 H 0.93897 0.50715 0.77115 0.0
H1554 H 0.88015 0.44347 0.70692 0.0
H1555 H 0.87248 0.43939 0.75131 0.0
H1556 H 0.86748 0.45315 0.72359 0.0
H1557 H 0.9529 0.49063 0.78226 0.0
H1558 H 0.93811 0.46803 0.79568 0.0
H1559 H 0.94611 0.47261 0.75151 0.0
H1560 H 0.89917 0.41052 0.80274 0.0
H1561 H 0.9185 0.42101 0.69654 0.0
H1562 H 0.88659 0.44303 0.80829 0.0
H1563 H 0.90875 0.45268 0.82467 0.0
H1564 H 0.89294 0.42982 0.8345 0.0
H1565 H 0.90945 0.45557 0.6793 0.0
H1566 H 0.92252 0.44589 0.66507 0.0
H1567 H 0.93201 0.46511 0.69327 0.0
C1568 C 0.41078 0.88836 0.24135 0.0
C1569 C 0.41181 0.90494 0.23825 0.0
C1570 C 0.42619 0.88697 0.24188 0.0
C1571 C 0.44302 0.90251 0.23885 0.0
C1572 C 0.44415 0.91924 0.23543 0.0
C1573 C 0.42858 0.92027 0.23545 0.0
C1574 C 0.42449 0.86892 0.24584 0.0
C1575 C 0.46185 0.93612 0.23198 0.0
C1576 C 0.48504 0.90423 0.27168 0.0
C1577 C 0.49276 0.90297 0.24022 0.0
C1578 C 0.46851 0.9034 0.27176 0.0
C1579 C 0.45954 0.90142 0.23958 0.0
C1580 C 0.46698 0.89961 0.20787 0.0
C1581 C 0.48346 0.90033 0.20859 0.0
C1582 C 0.46095 0.90528 0.30616 0.0
C1583 C 0.45784 0.89753 0.17302 0.0
H1584 H 0.3979 0.87643 0.24312 0.0
H1585 H 0.42959 0.93317 0.2338 0.0
H1586 H 0.43059 0.86611 0.22295 0.0
H1587 H 0.43178 0.8687 0.26959 0.0
H1588 H 0.41044 0.85814 0.24809 0.0
H1589 H 0.46041 0.94802 0.22857 0.0
H1590 H 0.47003 0.93803 0.25571 0.0
H1591 H 0.46924 0.93515 0.20912 0.0
H1592 H 0.49219 0.90649 0.29619 0.0
H1593 H 0.48918 0.89903 0.18424 0.0
H1594 H 0.44706 0.89432 0.3093 0.0
H1595 H 0.46069 0.9179 0.30628 0.0
H1596 H 0.46882 0.90524 0.32911 0.0
H1597 H 0.44402 0.88626 0.17411 0.0
H1598 H 0.46486 0.89526 0.15102 0.0
H1599 H 0.45712 0.90966 0.16728 0.0
C1600 C 0.58274 0.48295 0.77501 0.0
C1601 C 0.58577 0.49591 0.74975 0.0
C1602 C 0.56689 0.46653 0.77514 0.0
C1603 C 0.55375 0.46305 0.74951 0.0
C1604 C 0.55685 0.47597 0.72361 0.0
C1605 C 0.57283 0.49223 0.72402 0.0
C1606 C 0.5641 0.45303 0.80303 0.0
C1607 C 0.54311 0.47278 0.69597 0.0
C1608 C 0.51743 0.41553 0.73199 0.0
C1609 C 0.50326 0.41452 0.75147 0.0
C1610 C 0.53402 0.43119 0.73138 0.0
C1611 C 0.53645 0.44618 0.75058 0.0
C1612 C 0.52222 0.44521 0.77042 0.0
C1613 C 0.50582 0.4294 0.77064 0.0
C1614 C 0.54891 0.43171 0.71007 0.0
C1615 C 0.52426 0.46095 0.79107 0.0
H1616 H 0.59279 0.48565 0.79469 0.0
H1617 H 0.575 0.50228 0.70472 0.0
H1618 H 0.5526 0.45045 0.81973 0.0
H1619 H 0.56097 0.44025 0.79062 0.0
H1620 H 0.57593 0.4575 0.82015 0.0
H1621 H 0.54785 0.48391 0.67691 0.0
H1622 H 0.53945 0.46039 0.68134 0.0
H1623 H 0.53086 0.47102 0.70873 0.0
H1624 H 0.51557 0.40402 0.71742 0.0
H1625 H 0.49484 0.42879 0.7853 0.0
H1626 H 0.56054 0.43528 0.7272 0.0
H1627 H 0.55324 0.44211 0.68952 0.0
H1628 H 0.54496 0.41881 0.69716 0.0
H1629 H 0.5353 0.46534 0.8102 0.0
H1630 H 0.51199 0.45792 0.8056 0.0
H1631 H 0.5277 0.47225 0.77307 0.0
C1632 C 0.1734 0.41472 0.22607 0.0
C1633 C 0.16126 0.40772 0.25392 0.0
C1634 C 0.18942 0.41454 0.22693 0.0
C1635 C 0.19332 0.40703 0.2562 0.0
C1636 C 0.1811 0.3999 0.28437 0.0
C1637 C 0.16524 0.40041 0.28296 0.0
C1638 C 0.20221 0.42244 0.19657 0.0
C1639 C 0.18473 0.39164 0.31585 0.0
C1640 C 0.22725 0.39225 0.24282 0.0
C1641 C 0.24248 0.40634 0.25795 0.0
C1642 C 0.21109 0.39219 0.24247 0.0
C1643 C 0.21021 0.40666 0.2573 0.0
C1644 C 0.22554 0.42091 0.27268 0.0
C1645 C 0.24148 0.42054 0.27296 0.0
C1646 C 0.19497 0.37667 0.22616 0.0
C1647 C 0.22516 0.43666 0.28841 0.0
H1648 H 0.17044 0.42056 0.20378 0.0
H1649 H 0.15579 0.39482 0.30435 0.0
H1650 H 0.21521 0.43324 0.20616 0.0
H1651 H 0.20457 0.4122 0.1845 0.0
H1652 H 0.19726 0.42792 0.17594 0.0
H1653 H 0.17382 0.38661 0.33546 0.0
H1654 H 0.18655 0.38046 0.30729 0.0
H1655 H 0.19723 0.40152 0.32883 0.0
H1656 H 0.22795 0.38117 0.23153 0.0
H1657 H 0.25329 0.43155 0.28431 0.0
H1658 H 0.19018 0.38132 0.20379 0.0
H1659 H 0.18404 0.37063 0.24566 0.0
H1660 H 0.19778 0.36627 0.21652 0.0
H1661 H 0.22136 0.44325 0.26801 0.0
H1662 H 0.2382 0.44657 0.29962 0.0
H1663 H 0.21501 0.43218 0.30947 0.0
C1664 C 0.82767 0.23496 0.71209 0.0
C1665 C 0.83499 0.24323 0.74428 0.0
C1666 C 0.81167 0.21871 0.71084 0.0
C1667 C 0.80289 0.21052 0.74256 0.0
C1668 C 0.81035 0.21871 0.77514 0.0
C1669 C 0.82628 0.235 0.7756 0.0
C1670 C 0.80403 0.21044 0.6756 0.0
C1671 C 0.80146 0.21029 0.80954 0.0
C1672 C 0.75342 0.17766 0.74204 0.0
C1673 C 0.75307 0.16137 0.74341 0.0
C1674 C 0.76956 0.19375 0.74112 0.0
C1675 C 0.78572 0.19353 0.74177 0.0
C1676 C 0.78546 0.17713 0.74269 0.0
C1677 C 0.76911 0.16123 0.74338 0.0
C1678 C 0.76932 0.21097 0.73983 0.0
C1679 C 0.80243 0.1764 0.74365 0.0
H1680 H 0.83429 0.24138 0.68782 0.0
H1681 H 0.83204 0.24125 0.80054 0.0
H1682 H 0.80219 0.19687 0.67428 0.0
H1683 H 0.79076 0.20913 0.67223 0.0
H1684 H 0.81264 0.21837 0.65341 0.0
H1685 H 0.80921 0.21818 0.83261 0.0
H1686 H 0.78807 0.20888 0.8106 0.0
H1687 H 0.79967 0.19676 0.81159 0.0
H1688 H 0.74103 0.1778 0.74157 0.0
H1689 H 0.76888 0.14866 0.74477 0.0
H1690 H 0.77696 0.21893 0.71677 0.0
H1691 H 0.77582 0.21896 0.76364 0.0
H1692 H 0.75562 0.20882 0.73824 0.0
H1693 H 0.81091 0.18364 0.72083 0.0
H1694 H 0.79993 0.16256 0.74329 0.0
H1695 H 0.81004 0.18307 0.76774 0.0
C1696 C 0.57596 0.75461 0.2558 0.0
C1697 C 0.59172 0.75396 0.2582 0.0
C1698 C 0.57625 0.77087 0.25559 0.0
C1699 C 0.59269 0.78689 0.25808 0.0
C1700 C 0.60862 0.78635 0.26113 0.0
C1701 C 0.60796 0.76989 0.26106 0.0
C1702 C 0.55897 0.77092 0.25231 0.0
C1703 C 0.6264 0.80316 0.26395 0.0
C1704 C 0.59473 0.82866 0.22268 0.0
C1705 C 0.59303 0.83656 0.25346 0.0
C1706 C 0.59476 0.81256 0.22385 0.0
C1707 C 0.59319 0.80421 0.25663 0.0
C1708 C 0.59173 0.81222 0.28786 0.0
C1709 C 0.5916 0.82826 0.28589 0.0
C1710 C 0.59631 0.8044 0.18997 0.0
C1711 C 0.59009 0.80373 0.32331 0.0
H1712 H 0.56334 0.74236 0.25418 0.0
H1713 H 0.62021 0.76951 0.26252 0.0
H1714 H 0.5573 0.77798 0.27495 0.0
H1715 H 0.55914 0.77817 0.22818 0.0
H1716 H 0.54729 0.75729 0.25113 0.0
H1717 H 0.63749 0.80043 0.26748 0.0
H1718 H 0.62892 0.81127 0.23988 0.0
H1719 H 0.62636 0.81125 0.28646 0.0
H1720 H 0.59614 0.83512 0.19758 0.0
H1721 H 0.59004 0.83415 0.30976 0.0
H1722 H 0.58444 0.79108 0.18641 0.0
H1723 H 0.60803 0.80255 0.19101 0.0
H1724 H 0.5976 0.81266 0.16669 0.0
H1725 H 0.57781 0.79056 0.3242 0.0
H1726 H 0.58969 0.81197 0.34519 0.0
H1727 H 0.60144 0.8015 0.32762 0.0
C1728 C 0.82942 0.59144 0.78171 0.0
C1729 C 0.83729 0.59055 0.75018 0.0
C1730 C 0.81319 0.59124 0.78173 0.0
C1731 C 0.80469 0.59025 0.74941 0.0
C1732 C 0.81256 0.58938 0.71749 0.0
C1733 C 0.82873 0.58947 0.71826 0.0
C1734 C 0.80517 0.59214 0.81632 0.0
C1735 C 0.80389 0.58836 0.68251 0.0
C1736 C 0.75526 0.574 0.7506 0.0
C1737 C 0.75503 0.59001 0.74941 0.0
C1738 C 0.77133 0.57388 0.75056 0.0
C1739 C 0.78756 0.59016 0.74904 0.0
C1740 C 0.78744 0.60636 0.74747 0.0
C1741 C 0.77118 0.60609 0.7478 0.0
C1742 C 0.77094 0.55635 0.75233 0.0
C1743 C 0.8045 0.62397 0.74572 0.0
H1744 H 0.83607 0.59254 0.80645 0.0
H1745 H 0.83458 0.5885 0.69381 0.0
H1746 H 0.80371 0.6041 0.81698 0.0
H1747 H 0.79169 0.58041 0.81918 0.0
H1748 H 0.81334 0.5926 0.83917 0.0
H1749 H 0.81182 0.58792 0.66005 0.0
H1750 H 0.79053 0.57634 0.68157 0.0
H1751 H 0.80207 0.60002 0.67922 0.0
H1752 H 0.74284 0.56151 0.75129 0.0
H1753 H 0.77114 0.61853 0.74738 0.0
H1754 H 0.77825 0.556 0.77591 0.0
H1755 H 0.77772 0.55481 0.72903 0.0
H1756 H 0.7572 0.54487 0.75342 0.0
H1757 H 0.81263 0.62575 0.76945 0.0
H1758 H 0.8021 0.63535 0.74384 0.0
H1759 H 0.81241 0.62426 0.72262 0.0
C1760 C 0.22977 0.83532 0.2243 0.0
C1761 C 0.24345 0.83761 0.24703 0.0
C1762 C 0.21351 0.81933 0.22365 0.0
C1763 C 0.21094 0.80526 0.2461 0.0
C1764 C 0.22467 0.80752 0.2692 0.0
C1765 C 0.24075 0.82369 0.26947 0.0
C1766 C 0.1991 0.81747 0.19892 0.0
C1767 C 0.22246 0.79277 0.29335 0.0
C1768 C 0.16414 0.76887 0.26815 0.0
C1769 C 0.16194 0.75525 0.24534 0.0
C1770 C 0.17993 0.7853 0.26834 0.0
C1771 C 0.1939 0.78812 0.24536 0.0
C1772 C 0.1917 0.77447 0.22208 0.0
C1773 C 0.1757 0.7582 0.22224 0.0
C1774 C 0.18171 0.79961 0.29325 0.0
C1775 C 0.20636 0.77694 0.19738 0.0
H1776 H 0.23175 0.84612 0.20719 0.0
H1777 H 0.25137 0.82533 0.28676 0.0
H1778 H 0.19563 0.80637 0.18035 0.0
H1779 H 0.18692 0.8142 0.21396 0.0
H1780 H 0.20313 0.82975 0.18352 0.0
H1781 H 0.23441 0.79668 0.30981 0.0
H1782 H 0.2109 0.7888 0.31092 0.0
H1783 H 0.21976 0.78092 0.27767 0.0
H1784 H 0.15343 0.76669 0.28572 0.0
H1785 H 0.17409 0.74764 0.20482 0.0
H1786 H 0.18484 0.8118 0.27836 0.0
H1787 H 0.19287 0.80314 0.31169 0.0
H1788 H 0.16944 0.79545 0.30879 0.0
H1789 H 0.21013 0.78857 0.18012 0.0
H1790 H 0.20245 0.76509 0.18062 0.0
H1791 H 0.21832 0.77968 0.21267 0.0
C1792 C 0.39447 0.23031 0.72805 0.0
C1793 C 0.40675 0.24449 0.7488 0.0
C1794 C 0.39405 0.21397 0.72791 0.0
C1795 C 0.40619 0.21176 0.74905 0.0
C1796 C 0.41857 0.22598 0.77016 0.0
C1797 C 0.4187 0.24218 0.76978 0.0
C1798 C 0.38061 0.19908 0.70514 0.0
C1799 C 0.43176 0.22412 0.79297 0.0
C1800 C 0.39533 0.16497 0.77273 0.0
C1801 C 0.40577 0.16201 0.74861 0.0
C1802 C 0.39532 0.1811 0.77315 0.0
C1803 C 0.40602 0.19458 0.74888 0.0
C1804 C 0.41657 0.19167 0.72444 0.0
C1805 C 0.41632 0.17542 0.7246 0.0
C1806 C 0.38385 0.1837 0.79953 0.0
C1807 C 0.42818 0.20577 0.69823 0.0
H1808 H 0.38504 0.23193 0.71216 0.0
H1809 H 0.42837 0.25315 0.78554 0.0
H1810 H 0.38751 0.19495 0.68609 0.0
H1811 H 0.37202 0.18735 0.72162 0.0
H1812 H 0.37205 0.20294 0.69033 0.0
H1813 H 0.44039 0.23639 0.80813 0.0
H1814 H 0.42465 0.21298 0.8117 0.0
H1815 H 0.4403 0.22094 0.77644 0.0
H1816 H 0.38699 0.15457 0.79106 0.0
H1817 H 0.4246 0.17331 0.70622 0.0
H1818 H 0.37428 0.18648 0.78568 0.0
H1819 H 0.39221 0.19535 0.81639 0.0
H1820 H 0.37632 0.1719 0.81665 0.0
H1821 H 0.41997 0.20936 0.68161 0.0
H1822 H 0.43552 0.20138 0.68086 0.0
H1823 H 0.43793 0.21797 0.71225 0.0
loop_
_geom_bond_atom_site_label_1
_geom_bond_atom_site_label_2
_geom_bond_distance
_geom_bond_site_symmetry_2
_ccdc_geom_bond_type
Li0 N17 1.990 . S
Li0 O60 1.956 . S
Li0 O61 1.970 . S
Li0 O62 1.961 . S
Li1 N25 1.990 . S
Li1 O60 1.970 . S
Li1 O61 1.956 . S
Li1 O63 1.961 . S
Li2 N47 1.990 . S
Li2 O60 1.961 . S
Li2 O62 1.956 . S
Li2 O63 1.970 . S
Li3 N53 1.990 . S
Li3 O61 1.961 . S
Li3 O62 1.970 . S
Li3 O63 1.956 . S
C4 C6 1.348 . S
C4 C7 1.356 . S
C4 O60 1.325 . S
N5 C8 1.314 . S
N5 C9 1.279 . S
C6 C4 1.348 . S
C6 C8 1.353 . S
C6 H64 0.929 . S
C7 C4 1.356 . S
C7 C9 1.358 . S
C7 H65 0.930 . S
C8 N5 1.314 . S
C8 C6 1.353 . S
C8 H66 0.930 . S
C9 N5 1.279 . S
C9 C7 1.358 . S
C9 H67 0.930 . S
C10 C13 1.348 . S
C10 C14 1.356 . S
C10 O61 1.325 . S
C11 N12 1.279 . S
C11 C14 1.358 . S
C11 H68 0.930 . S
N12 C11 1.279 . S
N12 C15 1.314 . S
C13 C10 1.348 . S
C13 C15 1.353 . S
C13 H69 0.929 . S
C14 C10 1.356 . S
C14 C11 1.358 . S
C14 H70 0.930 . S
C15 N12 1.314 . S
C15 C13 1.353 . S
C15 H71 0.930 . S
C16 N17 1.314 . S
C16 C21 1.353 . S
C16 H22 0.930 . S
N17 Li0 1.990 . S
N17 C16 1.314 . S
N17 C19 1.279 . S
C18 C19 1.358 . S
C18 C20 1.356 . S
C18 H72 0.930 . S
C19 N17 1.279 . S
C19 C18 1.358 . S
C19 H23 0.930 . S
C20 C18 1.356 . S
C20 C21 1.348 . S
C21 C16 1.353 . S
C21 C20 1.348 . S
C21 H73 0.929 . S
H22 C16 0.930 . S
H23 C19 0.930 . S
C24 N25 1.314 . S
C24 C26 1.353 . S
C24 H30 0.930 . S
N25 Li1 1.990 . S
N25 C24 1.314 . S
N25 C28 1.279 . S
C26 C24 1.353 . S
C26 C29 1.348 . S
C26 H74 0.929 . S
C27 C28 1.358 . S
C27 C29 1.356 . S
C27 H75 0.930 . S
C28 N25 1.279 . S
C28 C27 1.358 . S
C28 H31 0.930 . S
C29 C26 1.348 . S
C29 C27 1.356 . S
H30 C24 0.930 . S
H31 C28 0.930 . S
C32 C34 1.348 . S
C32 C35 1.356 . S
C32 O62 1.325 . S
N33 C36 1.314 . S
N33 C37 1.279 . S
C34 C32 1.348 . S
C34 C36 1.353 . S
C34 H76 0.929 . S
C35 C32 1.356 . S
C35 C37 1.358 . S
C35 H77 0.930 . S
C36 N33 1.314 . S
C36 C34 1.353 . S
C36 H78 0.930 . S
C37 N33 1.279 . S
C37 C35 1.358 . S
C37 H79 0.930 . S
C38 C39 1.348 . S
C38 C40 1.356 . S
C38 O63 1.325 . S
C39 C38 1.348 . S
C39 C41 1.353 . S
C39 H80 0.929 . S
C40 C38 1.356 . S
C40 C42 1.358 . S
C40 H81 0.930 . S
C41 C39 1.353 . S
C41 N43 1.314 . S
C41 H82 0.930 . S
C42 C40 1.358 . S
C42 N43 1.279 . S
C42 H83 0.930 . S
N43 C41 1.314 . S
N43 C42 1.279 . S
C44 C46 1.353 . S
C44 N47 1.314 . S
C44 H50 0.930 . S
C45 N47 1.279 . S
C45 C48 1.358 . S
C45 H51 0.930 . S
C46 C44 1.353 . S
C46 C49 1.348 . S
C46 H84 0.929 . S
N47 Li2 1.990 . S
N47 C44 1.314 . S
N47 C45 1.279 . S
C48 C45 1.358 . S
C48 C49 1.356 . S
C48 H85 0.930 . S
C49 C46 1.348 . S
C49 C48 1.356 . S
H50 C44 0.930 . S
H51 C45 0.930 . S
C52 N53 1.314 . S
C52 C54 1.353 . S
C52 H58 0.930 . S
N53 Li3 1.990 . S
N53 C52 1.314 . S
N53 C56 1.279 . S
C54 C52 1.353 . S
C54 C57 1.348 . S
C54 H86 0.929 . S
C55 C56 1.358 . S
C55 C57 1.356 . S
C55 H87 0.930 . S
C56 N53 1.279 . S
C56 C55 1.358 . S
C56 H59 0.930 . S
C57 C54 1.348 . S
C57 C55 1.356 . S
H58 C52 0.930 . S
H59 C56 0.930 . S
O60 Li0 1.956 . S
O60 Li1 1.970 . S
O60 Li2 1.961 . S
O60 C4 1.325 . S
O61 Li0 1.970 . S
O61 Li1 1.956 . S
O61 Li3 1.961 . S
O61 C10 1.325 . S
O62 Li0 1.961 . S
O62 Li2 1.956 . S
O62 Li3 1.970 . S
O62 C32 1.325 . S
O63 Li1 1.961 . S
O63 Li2 1.970 . S
O63 Li3 1.956 . S
O63 C38 1.325 . S
H64 C6 0.929 . S
H65 C7 0.930 . S
H66 C8 0.930 . S
H67 C9 0.930 . S
H68 C11 0.930 . S
H69 C13 0.929 . S
H70 C14 0.930 . S
H71 C15 0.930 . S
H72 C18 0.930 . S
H73 C21 0.929 . S
H74 C26 0.929 . S
H75 C27 0.930 . S
H76 C34 0.929 . S
H77 C35 0.930 . S
H78 C36 0.930 . S
H79 C37 0.930 . S
H80 C39 0.929 . S
H81 C40 0.930 . S
H82 C41 0.930 . S
H83 C42 0.930 . S
H84 C46 0.929 . S
H85 C48 0.930 . S
H86 C54 0.929 . S
H87 C55 0.930 . S
Li88 N105 1.990 . S
Li88 O148 1.956 . S
Li88 O149 1.970 . S
Li88 O150 1.961 . S
Li89 N113 1.990 . S
Li89 O148 1.970 . S
Li89 O149 1.956 . S
Li89 O151 1.961 . S
Li90 N135 1.990 . S
Li90 O148 1.961 . S
Li90 O150 1.956 . S
Li90 O151 1.970 . S
Li91 N141 1.990 . S
Li91 O149 1.961 . S
Li91 O150 1.970 . S
Li91 O151 1.956 . S
C92 C94 1.348 . S
C92 C95 1.356 . S
C92 O148 1.325 . S
N93 C96 1.314 . S
N93 C97 1.279 . S
C94 C92 1.348 . S
C94 C96 1.353 . S
C94 H152 0.929 . S
C95 C92 1.356 . S
C95 C97 1.358 . S
C95 H153 0.930 . S
C96 N93 1.314 . S
C96 C94 1.353 . S
C96 H154 0.930 . S
C97 N93 1.279 . S
C97 C95 1.358 . S
C97 H155 0.930 . S
C98 C101 1.348 . S
C98 C102 1.356 . S
C98 O149 1.325 . S
C99 N100 1.279 . S
C99 C102 1.358 . S
C99 H156 0.930 . S
N100 C99 1.279 . S
N100 C103 1.314 . S
C101 C98 1.348 . S
C101 C103 1.353 . S
C101 H157 0.929 . S
C102 C98 1.356 . S
C102 C99 1.358 . S
C102 H158 0.930 . S
C103 N100 1.314 . S
C103 C101 1.353 . S
C103 H159 0.930 . S
C104 N105 1.314 . S
C104 C109 1.353 . S
C104 H110 0.930 . S
N105 Li88 1.990 . S
N105 C104 1.314 . S
N105 C107 1.279 . S
C106 C107 1.358 . S
C106 C108 1.356 . S
C106 H160 0.930 . S
C107 N105 1.279 . S
C107 C106 1.358 . S
C107 H111 0.930 . S
C108 C106 1.356 . S
C108 C109 1.348 . S
C109 C104 1.353 . S
C109 C108 1.348 . S
C109 H161 0.929 . S
H110 C104 0.930 . S
H111 C107 0.930 . S
C112 N113 1.314 . S
C112 C114 1.353 . S
C112 H118 0.930 . S
N113 Li89 1.990 . S
N113 C112 1.314 . S
N113 C116 1.279 . S
C114 C112 1.353 . S
C114 C117 1.348 . S
C114 H162 0.929 . S
C115 C116 1.358 . S
C115 C117 1.356 . S
C115 H163 0.930 . S
C116 N113 1.279 . S
C116 C115 1.358 . S
C116 H119 0.930 . S
C117 C114 1.348 . S
C117 C115 1.356 . S
H118 C112 0.930 . S
H119 C116 0.930 . S
C120 C122 1.348 . S
C120 C123 1.356 . S
C120 O150 1.325 . S
N121 C124 1.314 . S
N121 C125 1.279 . S
C122 C120 1.348 . S
C122 C124 1.353 . S
C122 H164 0.929 . S
C123 C120 1.356 . S
C123 C125 1.358 . S
C123 H165 0.930 . S
C124 N121 1.314 . S
C124 C122 1.353 . S
C124 H166 0.930 . S
C125 N121 1.279 . S
C125 C123 1.358 . S
C125 H167 0.930 . S
C126 C127 1.348 . S
C126 C128 1.356 . S
C126 O151 1.325 . S
C127 C126 1.348 . S
C127 C129 1.353 . S
C127 H168 0.929 . S
C128 C126 1.356 . S
C128 C130 1.358 . S
C128 H169 0.930 . S
C129 C127 1.353 . S
C129 N131 1.314 . S
C129 H170 0.930 . S
C130 C128 1.358 . S
C130 N131 1.279 . S
C130 H171 0.930 . S
N131 C129 1.314 . S
N131 C130 1.279 . S
C132 C134 1.353 . S
C132 N135 1.314 . S
C132 H138 0.930 . S
C133 N135 1.279 . S
C133 C136 1.358 . S
C133 H139 0.930 . S
C134 C132 1.353 . S
C134 C137 1.348 . S
C134 H172 0.929 . S
N135 Li90 1.990 . S
N135 C132 1.314 . S
N135 C133 1.279 . S
C136 C133 1.358 . S
C136 C137 1.356 . S
C136 H173 0.930 . S
C137 C134 1.348 . S
C137 C136 1.356 . S
H138 C132 0.930 . S
H139 C133 0.930 . S
C140 N141 1.314 . S
C140 C142 1.353 . S
C140 H146 0.930 . S
N141 Li91 1.990 . S
N141 C140 1.314 . S
N141 C144 1.279 . S
C142 C140 1.353 . S
C142 C145 1.348 . S
C142 H174 0.929 . S
C143 C144 1.358 . S
C143 C145 1.356 . S
C143 H175 0.930 . S
C144 N141 1.279 . S
C144 C143 1.358 . S
C144 H147 0.930 . S
C145 C142 1.348 . S
C145 C143 1.356 . S
H146 C140 0.930 . S
H147 C144 0.930 . S
O148 Li88 1.956 . S
O148 Li89 1.970 . S
O148 Li90 1.961 . S
O148 C92 1.325 . S
O149 Li88 1.970 . S
O149 Li89 1.956 . S
O149 Li91 1.961 . S
O149 C98 1.325 . S
O150 Li88 1.961 . S
O150 Li90 1.956 . S
O150 Li91 1.970 . S
O150 C120 1.325 . S
O151 Li89 1.961 . S
O151 Li90 1.970 . S
O151 Li91 1.956 . S
O151 C126 1.325 . S
H152 C94 0.929 . S
H153 C95 0.930 . S
H154 C96 0.930 . S
H155 C97 0.930 . S
H156 C99 0.930 . S
H157 C101 0.929 . S
H158 C102 0.930 . S
H159 C103 0.930 . S
H160 C106 0.930 . S
H161 C109 0.929 . S
H162 C114 0.929 . S
H163 C115 0.930 . S
H164 C122 0.929 . S
H165 C123 0.930 . S
H166 C124 0.930 . S
H167 C125 0.930 . S
H168 C127 0.929 . S
H169 C128 0.930 . S
H170 C129 0.930 . S
H171 C130 0.930 . S
H172 C134 0.929 . S
H173 C136 0.930 . S
H174 C142 0.929 . S
H175 C143 0.930 . S
Li176 N193 1.990 . S
Li176 O236 1.956 . S
Li176 O237 1.970 . S
Li176 O238 1.961 . S
Li177 N201 1.990 . S
Li177 O236 1.970 . S
Li177 O237 1.956 . S
Li177 O239 1.961 . S
Li178 N223 1.990 . S
Li178 O236 1.961 . S
Li178 O238 1.956 . S
Li178 O239 1.970 . S
Li179 N229 1.990 . S
Li179 O237 1.961 . S
Li179 O238 1.970 . S
Li179 O239 1.956 . S
C180 C182 1.348 . S
C180 C183 1.356 . S
C180 O236 1.325 . S
N181 C184 1.314 . S
N181 C185 1.279 . S
C182 C180 1.348 . S
C182 C184 1.353 . S
C182 H240 0.929 . S
C183 C180 1.356 . S
C183 C185 1.358 . S
C183 H241 0.930 . S
C184 N181 1.314 . S
C184 C182 1.353 . S
C184 H242 0.930 . S
C185 N181 1.279 . S
C185 C183 1.358 . S
C185 H243 0.930 . S
C186 C189 1.348 . S
C186 C190 1.356 . S
C186 O237 1.325 . S
C187 N188 1.279 . S
C187 C190 1.358 . S
C187 H244 0.930 . S
N188 C187 1.279 . S
N188 C191 1.314 . S
C189 C186 1.348 . S
C189 C191 1.353 . S
C189 H245 0.929 . S
C190 C186 1.356 . S
C190 C187 1.358 . S
C190 H246 0.930 . S
C191 N188 1.314 . S
C191 C189 1.353 . S
C191 H247 0.930 . S
C192 N193 1.314 . S
C192 C197 1.353 . S
C192 H198 0.930 . S
N193 Li176 1.990 . S
N193 C192 1.314 . S
N193 C195 1.279 . S
C194 C195 1.358 . S
C194 C196 1.356 . S
C194 H248 0.930 . S
C195 N193 1.279 . S
C195 C194 1.358 . S
C195 H199 0.930 . S
C196 C194 1.356 . S
C196 C197 1.348 . S
C197 C192 1.353 . S
C197 C196 1.348 . S
C197 H249 0.929 . S
H198 C192 0.930 . S
H199 C195 0.930 . S
C200 N201 1.314 . S
C200 C202 1.353 . S
C200 H206 0.930 . S
N201 Li177 1.990 . S
N201 C200 1.314 . S
N201 C204 1.279 . S
C202 C200 1.353 . S
C202 C205 1.348 . S
C202 H250 0.929 . S
C203 C204 1.358 . S
C203 C205 1.356 . S
C203 H251 0.930 . S
C204 N201 1.279 . S
C204 C203 1.358 . S
C204 H207 0.930 . S
C205 C202 1.348 . S
C205 C203 1.356 . S
H206 C200 0.930 . S
H207 C204 0.930 . S
C208 C210 1.348 . S
C208 C211 1.356 . S
C208 O238 1.325 . S
N209 C212 1.314 . S
N209 C213 1.279 . S
C210 C208 1.348 . S
C210 C212 1.353 . S
C210 H252 0.929 . S
C211 C208 1.356 . S
C211 C213 1.358 . S
C211 H253 0.930 . S
C212 N209 1.314 . S
C212 C210 1.353 . S
C212 H254 0.930 . S
C213 N209 1.279 . S
C213 C211 1.358 . S
C213 H255 0.930 . S
C214 C215 1.348 . S
C214 C216 1.356 . S
C214 O239 1.325 . S
C215 C214 1.348 . S
C215 C217 1.353 . S
C215 H256 0.929 . S
C216 C214 1.356 . S
C216 C218 1.358 . S
C216 H257 0.930 . S
C217 C215 1.353 . S
C217 N219 1.314 . S
C217 H258 0.930 . S
C218 C216 1.358 . S
C218 N219 1.279 . S
C218 H259 0.930 . S
N219 C217 1.314 . S
N219 C218 1.279 . S
C220 C222 1.353 . S
C220 N223 1.314 . S
C220 H226 0.930 . S
C221 N223 1.279 . S
C221 C224 1.358 . S
C221 H227 0.930 . S
C222 C220 1.353 . S
C222 C225 1.348 . S
C222 H260 0.929 . S
N223 Li178 1.990 . S
N223 C220 1.314 . S
N223 C221 1.279 . S
C224 C221 1.358 . S
C224 C225 1.356 . S
C224 H261 0.930 . S
C225 C222 1.348 . S
C225 C224 1.356 . S
H226 C220 0.930 . S
H227 C221 0.930 . S
C228 N229 1.314 . S
C228 C230 1.353 . S
C228 H234 0.930 . S
N229 Li179 1.990 . S
N229 C228 1.314 . S
N229 C232 1.279 . S
C230 C228 1.353 . S
C230 C233 1.348 . S
C230 H262 0.929 . S
C231 C232 1.358 . S
C231 C233 1.356 . S
C231 H263 0.930 . S
C232 N229 1.279 . S
C232 C231 1.358 . S
C232 H235 0.930 . S
C233 C230 1.348 . S
C233 C231 1.356 . S
H234 C228 0.930 . S
H235 C232 0.930 . S
O236 Li176 1.956 . S
O236 Li177 1.970 . S
O236 Li178 1.961 . S
O236 C180 1.325 . S
O237 Li176 1.970 . S
O237 Li177 1.956 . S
O237 Li179 1.961 . S
O237 C186 1.325 . S
O238 Li176 1.961 . S
O238 Li178 1.956 . S
O238 Li179 1.970 . S
O238 C208 1.325 . S
O239 Li177 1.961 . S
O239 Li178 1.970 . S
O239 Li179 1.956 . S
O239 C214 1.325 . S
H240 C182 0.929 . S
H241 C183 0.930 . S
H242 C184 0.930 . S
H243 C185 0.930 . S
H244 C187 0.930 . S
H245 C189 0.929 . S
H246 C190 0.930 . S
H247 C191 0.930 . S
H248 C194 0.930 . S
H249 C197 0.929 . S
H250 C202 0.929 . S
H251 C203 0.930 . S
H252 C210 0.929 . S
H253 C211 0.930 . S
H254 C212 0.930 . S
H255 C213 0.930 . S
H256 C215 0.929 . S
H257 C216 0.930 . S
H258 C217 0.930 . S
H259 C218 0.930 . S
H260 C222 0.929 . S
H261 C224 0.930 . S
H262 C230 0.929 . S
H263 C231 0.930 . S
Li264 N281 1.990 . S
Li264 O324 1.956 . S
Li264 O325 1.970 . S
Li264 O326 1.961 . S
Li265 N289 1.990 . S
Li265 O324 1.970 . S
Li265 O325 1.956 . S
Li265 O327 1.961 . S
Li266 N311 1.990 . S
Li266 O324 1.961 . S
Li266 O326 1.956 . S
Li266 O327 1.970 . S
Li267 N317 1.990 . S
Li267 O325 1.961 . S
Li267 O326 1.970 . S
Li267 O327 1.956 . S
C268 C270 1.348 . S
C268 C271 1.356 . S
C268 O324 1.325 . S
N269 C272 1.314 . S
N269 C273 1.279 . S
C270 C268 1.348 . S
C270 C272 1.353 . S
C270 H328 0.929 . S
C271 C268 1.356 . S
C271 C273 1.358 . S
C271 H329 0.930 . S
C272 N269 1.314 . S
C272 C270 1.353 . S
C272 H330 0.930 . S
C273 N269 1.279 . S
C273 C271 1.358 . S
C273 H331 0.930 . S
C274 C277 1.348 . S
C274 C278 1.356 . S
C274 O325 1.325 . S
C275 N276 1.279 . S
C275 C278 1.358 . S
C275 H332 0.930 . S
N276 C275 1.279 . S
N276 C279 1.314 . S
C277 C274 1.348 . S
C277 C279 1.353 . S
C277 H333 0.929 . S
C278 C274 1.356 . S
C278 C275 1.358 . S
C278 H334 0.930 . S
C279 N276 1.314 . S
C279 C277 1.353 . S
C279 H335 0.930 . S
C280 N281 1.314 . S
C280 C285 1.353 . S
C280 H286 0.930 . S
N281 Li264 1.990 . S
N281 C280 1.314 . S
N281 C283 1.279 . S
C282 C283 1.358 . S
C282 C284 1.356 . S
C282 H336 0.930 . S
C283 N281 1.279 . S
C283 C282 1.358 . S
C283 H287 0.930 . S
C284 C282 1.356 . S
C284 C285 1.348 . S
C285 C280 1.353 . S
C285 C284 1.348 . S
C285 H337 0.929 . S
H286 C280 0.930 . S
H287 C283 0.930 . S
C288 N289 1.314 . S
C288 C290 1.353 . S
C288 H294 0.930 . S
N289 Li265 1.990 . S
N289 C288 1.314 . S
N289 C292 1.279 . S
C290 C288 1.353 . S
C290 C293 1.348 . S
C290 H338 0.929 . S
C291 C292 1.358 . S
C291 C293 1.356 . S
C291 H339 0.930 . S
C292 N289 1.279 . S
C292 C291 1.358 . S
C292 H295 0.930 . S
C293 C290 1.348 . S
C293 C291 1.356 . S
H294 C288 0.930 . S
H295 C292 0.930 . S
C296 C298 1.348 . S
C296 C299 1.356 . S
C296 O326 1.325 . S
N297 C300 1.314 . S
N297 C301 1.279 . S
C298 C296 1.348 . S
C298 C300 1.353 . S
C298 H340 0.929 . S
C299 C296 1.356 . S
C299 C301 1.358 . S
C299 H341 0.930 . S
C300 N297 1.314 . S
C300 C298 1.353 . S
C300 H342 0.930 . S
C301 N297 1.279 . S
C301 C299 1.358 . S
C301 H343 0.930 . S
C302 C303 1.348 . S
C302 C304 1.356 . S
C302 O327 1.325 . S
C303 C302 1.348 . S
C303 C305 1.353 . S
C303 H344 0.929 . S
C304 C302 1.356 . S
C304 C306 1.358 . S
C304 H345 0.930 . S
C305 C303 1.353 . S
C305 N307 1.314 . S
C305 H346 0.930 . S
C306 C304 1.358 . S
C306 N307 1.279 . S
C306 H347 0.930 . S
N307 C305 1.314 . S
N307 C306 1.279 . S
C308 C310 1.353 . S
C308 N311 1.314 . S
C308 H314 0.930 . S
C309 N311 1.279 . S
C309 C312 1.358 . S
C309 H315 0.930 . S
C310 C308 1.353 . S
C310 C313 1.348 . S
C310 H348 0.929 . S
N311 Li266 1.990 . S
N311 C308 1.314 . S
N311 C309 1.279 . S
C312 C309 1.358 . S
C312 C313 1.356 . S
C312 H349 0.930 . S
C313 C310 1.348 . S
C313 C312 1.356 . S
H314 C308 0.930 . S
H315 C309 0.930 . S
C316 N317 1.314 . S
C316 C318 1.353 . S
C316 H322 0.930 . S
N317 Li267 1.990 . S
N317 C316 1.314 . S
N317 C320 1.279 . S
C318 C316 1.353 . S
C318 C321 1.348 . S
C318 H350 0.929 . S
C319 C320 1.358 . S
C319 C321 1.356 . S
C319 H351 0.930 . S
C320 N317 1.279 . S
C320 C319 1.358 . S
C320 H323 0.930 . S
C321 C318 1.348 . S
C321 C319 1.356 . S
H322 C316 0.930 . S
H323 C320 0.930 . S
O324 Li264 1.956 . S
O324 Li265 1.970 . S
O324 Li266 1.961 . S
O324 C268 1.325 . S
O325 Li264 1.970 . S
O325 Li265 1.956 . S
O325 Li267 1.961 . S
O325 C274 1.325 . S
O326 Li264 1.961 . S
O326 Li266 1.956 . S
O326 Li267 1.970 . S
O326 C296 1.325 . S
O327 Li265 1.961 . S
O327 Li266 1.970 . S
O327 Li267 1.956 . S
O327 C302 1.325 . S
H328 C270 0.929 . S
H329 C271 0.930 . S
H330 C272 0.930 . S
H331 C273 0.930 . S
H332 C275 0.930 . S
H333 C277 0.929 . S
H334 C278 0.930 . S
H335 C279 0.930 . S
H336 C282 0.930 . S
H337 C285 0.929 . S
H338 C290 0.929 . S
H339 C291 0.930 . S
H340 C298 0.929 . S
H341 C299 0.930 . S
H342 C300 0.930 . S
H343 C301 0.930 . S
H344 C303 0.929 . S
H345 C304 0.930 . S
H346 C305 0.930 . S
H347 C306 0.930 . S
H348 C310 0.929 . S
H349 C312 0.930 . S
H350 C318 0.929 . S
H351 C319 0.930 . S
Li352 N369 1.990 . S
Li352 O412 1.956 . S
Li352 O413 1.970 . S
Li352 O414 1.961 . S
Li353 N377 1.990 . S
Li353 O412 1.970 . S
Li353 O413 1.956 . S
Li353 O415 1.961 . S
Li354 N399 1.990 . S
Li354 O412 1.961 . S
Li354 O414 1.956 . S
Li354 O415 1.970 . S
Li355 N405 1.990 . S
Li355 O413 1.961 . S
Li355 O414 1.970 . S
Li355 O415 1.956 . S
C356 C358 1.348 . S
C356 C359 1.356 . S
C356 O412 1.325 . S
N357 C360 1.314 . S
N357 C361 1.279 . S
C358 C356 1.348 . S
C358 C360 1.353 . S
C358 H416 0.929 . S
C359 C356 1.356 . S
C359 C361 1.358 . S
C359 H417 0.930 . S
C360 N357 1.314 . S
C360 C358 1.353 . S
C360 H418 0.930 . S
C361 N357 1.279 . S
C361 C359 1.358 . S
C361 H419 0.930 . S
C362 C365 1.348 . S
C362 C366 1.356 . S
C362 O413 1.325 . S
C363 N364 1.279 . S
C363 C366 1.358 . S
C363 H420 0.930 . S
N364 C363 1.279 . S
N364 C367 1.314 . S
C365 C362 1.348 . S
C365 C367 1.353 . S
C365 H421 0.929 . S
C366 C362 1.356 . S
C366 C363 1.358 . S
C366 H422 0.930 . S
C367 N364 1.314 . S
C367 C365 1.353 . S
C367 H423 0.930 . S
C368 N369 1.314 . S
C368 C373 1.353 . S
C368 H374 0.930 . S
N369 Li352 1.990 . S
N369 C368 1.314 . S
N369 C371 1.279 . S
C370 C371 1.358 . S
C370 C372 1.356 . S
C370 H424 0.930 . S
C371 N369 1.279 . S
C371 C370 1.358 . S
C371 H375 0.930 . S
C372 C370 1.356 . S
C372 C373 1.348 . S
C373 C368 1.353 . S
C373 C372 1.348 . S
C373 H425 0.929 . S
H374 C368 0.930 . S
H375 C371 0.930 . S
C376 N377 1.314 . S
C376 C378 1.353 . S
C376 H382 0.930 . S
N377 Li353 1.990 . S
N377 C376 1.314 . S
N377 C380 1.279 . S
C378 C376 1.353 . S
C378 C381 1.348 . S
C378 H426 0.929 . S
C379 C380 1.358 . S
C379 C381 1.356 . S
C379 H427 0.930 . S
C380 N377 1.279 . S
C380 C379 1.358 . S
C380 H383 0.930 . S
C381 C378 1.348 . S
C381 C379 1.356 . S
H382 C376 0.930 . S
H383 C380 0.930 . S
C384 C386 1.348 . S
C384 C387 1.356 . S
C384 O414 1.325 . S
N385 C388 1.314 . S
N385 C389 1.279 . S
C386 C384 1.348 . S
C386 C388 1.353 . S
C386 H428 0.929 . S
C387 C384 1.356 . S
C387 C389 1.358 . S
C387 H429 0.930 . S
C388 N385 1.314 . S
C388 C386 1.353 . S
C388 H430 0.930 . S
C389 N385 1.279 . S
C389 C387 1.358 . S
C389 H431 0.930 . S
C390 C391 1.348 . S
C390 C392 1.356 . S
C390 O415 1.325 . S
C391 C390 1.348 . S
C391 C393 1.353 . S
C391 H432 0.929 . S
C392 C390 1.356 . S
C392 C394 1.358 . S
C392 H433 0.930 . S
C393 C391 1.353 . S
C393 N395 1.314 . S
C393 H434 0.930 . S
C394 C392 1.358 . S
C394 N395 1.279 . S
C394 H435 0.930 . S
N395 C393 1.314 . S
N395 C394 1.279 . S
C396 C398 1.353 . S
C396 N399 1.314 . S
C396 H402 0.930 . S
C397 N399 1.279 . S
C397 C400 1.358 . S
C397 H403 0.930 . S
C398 C396 1.353 . S
C398 C401 1.348 . S
C398 H436 0.929 . S
N399 Li354 1.990 . S
N399 C396 1.314 . S
N399 C397 1.279 . S
C400 C397 1.358 . S
C400 C401 1.356 . S
C400 H437 0.930 . S
C401 C398 1.348 . S
C401 C400 1.356 . S
H402 C396 0.930 . S
H403 C397 0.930 . S
C404 N405 1.314 . S
C404 C406 1.353 . S
C404 H410 0.930 . S
N405 Li355 1.990 . S
N405 C404 1.314 . S
N405 C408 1.279 . S
C406 C404 1.353 . S
C406 C409 1.348 . S
C406 H438 0.929 . S
C407 C408 1.358 . S
C407 C409 1.356 . S
C407 H439 0.930 . S
C408 N405 1.279 . S
C408 C407 1.358 . S
C408 H411 0.930 . S
C409 C406 1.348 . S
C409 C407 1.356 . S
H410 C404 0.930 . S
H411 C408 0.930 . S
O412 Li352 1.956 . S
O412 Li353 1.970 . S
O412 Li354 1.961 . S
O412 C356 1.325 . S
O413 Li352 1.970 . S
O413 Li353 1.956 . S
O413 Li355 1.961 . S
O413 C362 1.325 . S
O414 Li352 1.961 . S
O414 Li354 1.956 . S
O414 Li355 1.970 . S
O414 C384 1.325 . S
O415 Li353 1.961 . S
O415 Li354 1.970 . S
O415 Li355 1.956 . S
O415 C390 1.325 . S
H416 C358 0.929 . S
H417 C359 0.930 . S
H418 C360 0.930 . S
H419 C361 0.930 . S
H420 C363 0.930 . S
H421 C365 0.929 . S
H422 C366 0.930 . S
H423 C367 0.930 . S
H424 C370 0.930 . S
H425 C373 0.929 . S
H426 C378 0.929 . S
H427 C379 0.930 . S
H428 C386 0.929 . S
H429 C387 0.930 . S
H430 C388 0.930 . S
H431 C389 0.930 . S
H432 C391 0.929 . S
H433 C392 0.930 . S
H434 C393 0.930 . S
H435 C394 0.930 . S
H436 C398 0.929 . S
H437 C400 0.930 . S
H438 C406 0.929 . S
H439 C407 0.930 . S
Li440 N457 1.990 . S
Li440 O500 1.956 . S
Li440 O501 1.970 . S
Li440 O502 1.961 . S
Li441 N465 1.990 . S
Li441 O500 1.970 . S
Li441 O501 1.956 . S
Li441 O503 1.961 . S
Li442 N487 1.990 . S
Li442 O500 1.961 . S
Li442 O502 1.956 . S
Li442 O503 1.970 . S
Li443 N493 1.990 . S
Li443 O501 1.961 . S
Li443 O502 1.970 . S
Li443 O503 1.956 . S
C444 C446 1.348 . S
C444 C447 1.356 . S
C444 O500 1.325 . S
N445 C448 1.314 . S
N445 C449 1.279 . S
C446 C444 1.348 . S
C446 C448 1.353 . S
C446 H504 0.929 . S
C447 C444 1.356 . S
C447 C449 1.358 . S
C447 H505 0.930 . S
C448 N445 1.314 . S
C448 C446 1.353 . S
C448 H506 0.930 . S
C449 N445 1.279 . S
C449 C447 1.358 . S
C449 H507 0.930 . S
C450 C453 1.348 . S
C450 C454 1.356 . S
C450 O501 1.325 . S
C451 N452 1.279 . S
C451 C454 1.358 . S
C451 H508 0.930 . S
N452 C451 1.279 . S
N452 C455 1.314 . S
C453 C450 1.348 . S
C453 C455 1.353 . S
C453 H509 0.929 . S
C454 C450 1.356 . S
C454 C451 1.358 . S
C454 H510 0.930 . S
C455 N452 1.314 . S
C455 C453 1.353 . S
C455 H511 0.930 . S
C456 N457 1.314 . S
C456 C461 1.353 . S
C456 H462 0.930 . S
N457 Li440 1.990 . S
N457 C456 1.314 . S
N457 C459 1.279 . S
C458 C459 1.358 . S
C458 C460 1.356 . S
C458 H512 0.930 . S
C459 N457 1.279 . S
C459 C458 1.358 . S
C459 H463 0.930 . S
C460 C458 1.356 . S
C460 C461 1.348 . S
C461 C456 1.353 . S
C461 C460 1.348 . S
C461 H513 0.929 . S
H462 C456 0.930 . S
H463 C459 0.930 . S
C464 N465 1.314 . S
C464 C466 1.353 . S
C464 H470 0.930 . S
N465 Li441 1.990 . S
N465 C464 1.314 . S
N465 C468 1.279 . S
C466 C464 1.353 . S
C466 C469 1.348 . S
C466 H514 0.929 . S
C467 C468 1.358 . S
C467 C469 1.356 . S
C467 H515 0.930 . S
C468 N465 1.279 . S
C468 C467 1.358 . S
C468 H471 0.930 . S
C469 C466 1.348 . S
C469 C467 1.356 . S
H470 C464 0.930 . S
H471 C468 0.930 . S
C472 C474 1.348 . S
C472 C475 1.356 . S
C472 O502 1.325 . S
N473 C476 1.314 . S
N473 C477 1.279 . S
C474 C472 1.348 . S
C474 C476 1.353 . S
C474 H516 0.929 . S
C475 C472 1.356 . S
C475 C477 1.358 . S
C475 H517 0.930 . S
C476 N473 1.314 . S
C476 C474 1.353 . S
C476 H518 0.930 . S
C477 N473 1.279 . S
C477 C475 1.358 . S
C477 H519 0.930 . S
C478 C479 1.348 . S
C478 C480 1.356 . S
C478 O503 1.325 . S
C479 C478 1.348 . S
C479 C481 1.353 . S
C479 H520 0.929 . S
C480 C478 1.356 . S
C480 C482 1.358 . S
C480 H521 0.930 . S
C481 C479 1.353 . S
C481 N483 1.314 . S
C481 H522 0.930 . S
C482 C480 1.358 . S
C482 N483 1.279 . S
C482 H523 0.930 . S
N483 C481 1.314 . S
N483 C482 1.279 . S
C484 C486 1.353 . S
C484 N487 1.314 . S
C484 H490 0.930 . S
C485 N487 1.279 . S
C485 C488 1.358 . S
C485 H491 0.930 . S
C486 C484 1.353 . S
C486 C489 1.348 . S
C486 H524 0.929 . S
N487 Li442 1.990 . S
N487 C484 1.314 . S
N487 C485 1.279 . S
C488 C485 1.358 . S
C488 C489 1.356 . S
C488 H525 0.930 . S
C489 C486 1.348 . S
C489 C488 1.356 . S
H490 C484 0.930 . S
H491 C485 0.930 . S
C492 N493 1.314 . S
C492 C494 1.353 . S
C492 H498 0.930 . S
N493 Li443 1.990 . S
N493 C492 1.314 . S
N493 C496 1.279 . S
C494 C492 1.353 . S
C494 C497 1.348 . S
C494 H526 0.929 . S
C495 C496 1.358 . S
C495 C497 1.356 . S
C495 H527 0.930 . S
C496 N493 1.279 . S
C496 C495 1.358 . S
C496 H499 0.930 . S
C497 C494 1.348 . S
C497 C495 1.356 . S
H498 C492 0.930 . S
H499 C496 0.930 . S
O500 Li440 1.956 . S
O500 Li441 1.970 . S
O500 Li442 1.961 . S
O500 C444 1.325 . S
O501 Li440 1.970 . S
O501 Li441 1.956 . S
O501 Li443 1.961 . S
O501 C450 1.325 . S
O502 Li440 1.961 . S
O502 Li442 1.956 . S
O502 Li443 1.970 . S
O502 C472 1.325 . S
O503 Li441 1.961 . S
O503 Li442 1.970 . S
O503 Li443 1.956 . S
O503 C478 1.325 . S
H504 C446 0.929 . S
H505 C447 0.930 . S
H506 C448 0.930 . S
H507 C449 0.930 . S
H508 C451 0.930 . S
H509 C453 0.929 . S
H510 C454 0.930 . S
H511 C455 0.930 . S
H512 C458 0.930 . S
H513 C461 0.929 . S
H514 C466 0.929 . S
H515 C467 0.930 . S
H516 C474 0.929 . S
H517 C475 0.930 . S
H518 C476 0.930 . S
H519 C477 0.930 . S
H520 C479 0.929 . S
H521 C480 0.930 . S
H522 C481 0.930 . S
H523 C482 0.930 . S
H524 C486 0.929 . S
H525 C488 0.930 . S
H526 C494 0.929 . S
H527 C495 0.930 . S
Li528 N545 1.990 . S
Li528 O588 1.956 . S
Li528 O589 1.970 . S
Li528 O590 1.961 . S
Li529 N553 1.990 . S
Li529 O588 1.970 . S
Li529 O589 1.956 . S
Li529 O591 1.961 . S
Li530 N575 1.990 . S
Li530 O588 1.961 . S
Li530 O590 1.956 . S
Li530 O591 1.970 . S
Li531 N581 1.990 . S
Li531 O589 1.961 . S
Li531 O590 1.970 . S
Li531 O591 1.956 . S
C532 C534 1.348 . S
C532 C535 1.356 . S
C532 O588 1.325 . S
N533 C536 1.314 . S
N533 C537 1.279 . S
C534 C532 1.348 . S
C534 C536 1.353 . S
C534 H592 0.929 . S
C535 C532 1.356 . S
C535 C537 1.358 . S
C535 H593 0.930 . S
C536 N533 1.314 . S
C536 C534 1.353 . S
C536 H594 0.930 . S
C537 N533 1.279 . S
C537 C535 1.358 . S
C537 H595 0.930 . S
C538 C541 1.348 . S
C538 C542 1.356 . S
C538 O589 1.325 . S
C539 N540 1.279 . S
C539 C542 1.358 . S
C539 H596 0.930 . S
N540 C539 1.279 . S
N540 C543 1.314 . S
C541 C538 1.348 . S
C541 C543 1.353 . S
C541 H597 0.929 . S
C542 C538 1.356 . S
C542 C539 1.358 . S
C542 H598 0.930 . S
C543 N540 1.314 . S
C543 C541 1.353 . S
C543 H599 0.930 . S
C544 N545 1.314 . S
C544 C549 1.353 . S
C544 H550 0.930 . S
N545 Li528 1.990 . S
N545 C544 1.314 . S
N545 C547 1.279 . S
C546 C547 1.358 . S
C546 C548 1.356 . S
C546 H600 0.930 . S
C547 N545 1.279 . S
C547 C546 1.358 . S
C547 H551 0.930 . S
C548 C546 1.356 . S
C548 C549 1.348 . S
C549 C544 1.353 . S
C549 C548 1.348 . S
C549 H601 0.929 . S
H550 C544 0.930 . S
H551 C547 0.930 . S
C552 N553 1.314 . S
C552 C554 1.353 . S
C552 H558 0.930 . S
N553 Li529 1.990 . S
N553 C552 1.314 . S
N553 C556 1.279 . S
C554 C552 1.353 . S
C554 C557 1.348 . S
C554 H602 0.929 . S
C555 C556 1.358 . S
C555 C557 1.356 . S
C555 H603 0.930 . S
C556 N553 1.279 . S
C556 C555 1.358 . S
C556 H559 0.930 . S
C557 C554 1.348 . S
C557 C555 1.356 . S
H558 C552 0.930 . S
H559 C556 0.930 . S
C560 C562 1.348 . S
C560 C563 1.356 . S
C560 O590 1.325 . S
N561 C564 1.314 . S
N561 C565 1.279 . S
C562 C560 1.348 . S
C562 C564 1.353 . S
C562 H604 0.929 . S
C563 C560 1.356 . S
C563 C565 1.358 . S
C563 H605 0.930 . S
C564 N561 1.314 . S
C564 C562 1.353 . S
C564 H606 0.930 . S
C565 N561 1.279 . S
C565 C563 1.358 . S
C565 H607 0.930 . S
C566 C567 1.348 . S
C566 C568 1.356 . S
C566 O591 1.325 . S
C567 C566 1.348 . S
C567 C569 1.353 . S
C567 H608 0.929 . S
C568 C566 1.356 . S
C568 C570 1.358 . S
C568 H609 0.930 . S
C569 C567 1.353 . S
C569 N571 1.314 . S
C569 H610 0.930 . S
C570 C568 1.358 . S
C570 N571 1.279 . S
C570 H611 0.930 . S
N571 C569 1.314 . S
N571 C570 1.279 . S
C572 C574 1.353 . S
C572 N575 1.314 . S
C572 H578 0.930 . S
C573 N575 1.279 . S
C573 C576 1.358 . S
C573 H579 0.930 . S
C574 C572 1.353 . S
C574 C577 1.348 . S
C574 H612 0.929 . S
N575 Li530 1.990 . S
N575 C572 1.314 . S
N575 C573 1.279 . S
C576 C573 1.358 . S
C576 C577 1.356 . S
C576 H613 0.930 . S
C577 C574 1.348 . S
C577 C576 1.356 . S
H578 C572 0.930 . S
H579 C573 0.930 . S
C580 N581 1.314 . S
C580 C582 1.353 . S
C580 H586 0.930 . S
N581 Li531 1.990 . S
N581 C580 1.314 . S
N581 C584 1.279 . S
C582 C580 1.353 . S
C582 C585 1.348 . S
C582 H614 0.929 . S
C583 C584 1.358 . S
C583 C585 1.356 . S
C583 H615 0.930 . S
C584 N581 1.279 . S
C584 C583 1.358 . S
C584 H587 0.930 . S
C585 C582 1.348 . S
C585 C583 1.356 . S
H586 C580 0.930 . S
H587 C584 0.930 . S
O588 Li528 1.956 . S
O588 Li529 1.970 . S
O588 Li530 1.961 . S
O588 C532 1.325 . S
O589 Li528 1.970 . S
O589 Li529 1.956 . S
O589 Li531 1.961 . S
O589 C538 1.325 . S
O590 Li528 1.961 . S
O590 Li530 1.956 . S
O590 Li531 1.970 . S
O590 C560 1.325 . S
O591 Li529 1.961 . S
O591 Li530 1.970 . S
O591 Li531 1.956 . S
O591 C566 1.325 . S
H592 C534 0.929 . S
H593 C535 0.930 . S
H594 C536 0.930 . S
H595 C537 0.930 . S
H596 C539 0.930 . S
H597 C541 0.929 . S
H598 C542 0.930 . S
H599 C543 0.930 . S
H600 C546 0.930 . S
H601 C549 0.929 . S
H602 C554 0.929 . S
H603 C555 0.930 . S
H604 C562 0.929 . S
H605 C563 0.930 . S
H606 C564 0.930 . S
H607 C565 0.930 . S
H608 C567 0.929 . S
H609 C568 0.930 . S
H610 C569 0.930 . S
H611 C570 0.930 . S
H612 C574 0.929 . S
H613 C576 0.930 . S
H614 C582 0.929 . S
H615 C583 0.930 . S
Li616 N633 1.990 . S
Li616 O676 1.956 . S
Li616 O677 1.970 . S
Li616 O678 1.961 . S
Li617 N641 1.990 . S
Li617 O676 1.970 . S
Li617 O677 1.956 . S
Li617 O679 1.961 . S
Li618 N663 1.990 . S
Li618 O676 1.961 . S
Li618 O678 1.956 . S
Li618 O679 1.970 . S
Li619 N669 1.990 . S
Li619 O677 1.961 . S
Li619 O678 1.970 . S
Li619 O679 1.956 . S
C620 C622 1.348 . S
C620 C623 1.356 . S
C620 O676 1.325 . S
N621 C624 1.314 . S
N621 C625 1.279 . S
C622 C620 1.348 . S
C622 C624 1.353 . S
C622 H680 0.929 . S
C623 C620 1.356 . S
C623 C625 1.358 . S
C623 H681 0.930 . S
C624 N621 1.314 . S
C624 C622 1.353 . S
C624 H682 0.930 . S
C625 N621 1.279 . S
C625 C623 1.358 . S
C625 H683 0.930 . S
C626 C629 1.348 . S
C626 C630 1.356 . S
C626 O677 1.325 . S
C627 N628 1.279 . S
C627 C630 1.358 . S
C627 H684 0.930 . S
N628 C627 1.279 . S
N628 C631 1.314 . S
C629 C626 1.348 . S
C629 C631 1.353 . S
C629 H685 0.929 . S
C630 C626 1.356 . S
C630 C627 1.358 . S
C630 H686 0.930 . S
C631 N628 1.314 . S
C631 C629 1.353 . S
C631 H687 0.930 . S
C632 N633 1.314 . S
C632 C637 1.353 . S
C632 H638 0.930 . S
N633 Li616 1.990 . S
N633 C632 1.314 . S
N633 C635 1.279 . S
C634 C635 1.358 . S
C634 C636 1.356 . S
C634 H688 0.930 . S
C635 N633 1.279 . S
C635 C634 1.358 . S
C635 H639 0.930 . S
C636 C634 1.356 . S
C636 C637 1.348 . S
C637 C632 1.353 . S
C637 C636 1.348 . S
C637 H689 0.929 . S
H638 C632 0.930 . S
H639 C635 0.930 . S
C640 N641 1.314 . S
C640 C642 1.353 . S
C640 H646 0.930 . S
N641 Li617 1.990 . S
N641 C640 1.314 . S
N641 C644 1.279 . S
C642 C640 1.353 . S
C642 C645 1.348 . S
C642 H690 0.929 . S
C643 C644 1.358 . S
C643 C645 1.356 . S
C643 H691 0.930 . S
C644 N641 1.279 . S
C644 C643 1.358 . S
C644 H647 0.930 . S
C645 C642 1.348 . S
C645 C643 1.356 . S
H646 C640 0.930 . S
H647 C644 0.930 . S
C648 C650 1.348 . S
C648 C651 1.356 . S
C648 O678 1.325 . S
N649 C652 1.314 . S
N649 C653 1.279 . S
C650 C648 1.348 . S
C650 C652 1.353 . S
C650 H692 0.929 . S
C651 C648 1.356 . S
C651 C653 1.358 . S
C651 H693 0.930 . S
C652 N649 1.314 . S
C652 C650 1.353 . S
C652 H694 0.930 . S
C653 N649 1.279 . S
C653 C651 1.358 . S
C653 H695 0.930 . S
C654 C655 1.348 . S
C654 C656 1.356 . S
C654 O679 1.325 . S
C655 C654 1.348 . S
C655 C657 1.353 . S
C655 H696 0.929 . S
C656 C654 1.356 . S
C656 C658 1.358 . S
C656 H697 0.930 . S
C657 C655 1.353 . S
C657 N659 1.314 . S
C657 H698 0.930 . S
C658 C656 1.358 . S
C658 N659 1.279 . S
C658 H699 0.930 . S
N659 C657 1.314 . S
N659 C658 1.279 . S
C660 C662 1.353 . S
C660 N663 1.314 . S
C660 H666 0.930 . S
C661 N663 1.279 . S
C661 C664 1.358 . S
C661 H667 0.930 . S
C662 C660 1.353 . S
C662 C665 1.348 . S
C662 H700 0.929 . S
N663 Li618 1.990 . S
N663 C660 1.314 . S
N663 C661 1.279 . S
C664 C661 1.358 . S
C664 C665 1.356 . S
C664 H701 0.930 . S
C665 C662 1.348 . S
C665 C664 1.356 . S
H666 C660 0.930 . S
H667 C661 0.930 . S
C668 N669 1.314 . S
C668 C670 1.353 . S
C668 H674 0.930 . S
N669 Li619 1.990 . S
N669 C668 1.314 . S
N669 C672 1.279 . S
C670 C668 1.353 . S
C670 C673 1.348 . S
C670 H702 0.929 . S
C671 C672 1.358 . S
C671 C673 1.356 . S
C671 H703 0.930 . S
C672 N669 1.279 . S
C672 C671 1.358 . S
C672 H675 0.930 . S
C673 C670 1.348 . S
C673 C671 1.356 . S
H674 C668 0.930 . S
H675 C672 0.930 . S
O676 Li616 1.956 . S
O676 Li617 1.970 . S
O676 Li618 1.961 . S
O676 C620 1.325 . S
O677 Li616 1.970 . S
O677 Li617 1.956 . S
O677 Li619 1.961 . S
O677 C626 1.325 . S
O678 Li616 1.961 . S
O678 Li618 1.956 . S
O678 Li619 1.970 . S
O678 C648 1.325 . S
O679 Li617 1.961 . S
O679 Li618 1.970 . S
O679 Li619 1.956 . S
O679 C654 1.325 . S
H680 C622 0.929 . S
H681 C623 0.930 . S
H682 C624 0.930 . S
H683 C625 0.930 . S
H684 C627 0.930 . S
H685 C629 0.929 . S
H686 C630 0.930 . S
H687 C631 0.930 . S
H688 C634 0.930 . S
H689 C637 0.929 . S
H690 C642 0.929 . S
H691 C643 0.930 . S
H692 C650 0.929 . S
H693 C651 0.930 . S
H694 C652 0.930 . S
H695 C653 0.930 . S
H696 C655 0.929 . S
H697 C656 0.930 . S
H698 C657 0.930 . S
H699 C658 0.930 . S
H700 C662 0.929 . S
H701 C664 0.930 . S
H702 C670 0.929 . S
H703 C671 0.930 . S
Li704 N721 1.990 . S
Li704 O764 1.956 . S
Li704 O765 1.970 . S
Li704 O766 1.961 . S
Li705 N729 1.990 . S
Li705 O764 1.970 . S
Li705 O765 1.956 . S
Li705 O767 1.961 . S
Li706 N751 1.990 . S
Li706 O764 1.961 . S
Li706 O766 1.956 . S
Li706 O767 1.970 . S
Li707 N757 1.990 . S
Li707 O765 1.961 . S
Li707 O766 1.970 . S
Li707 O767 1.956 . S
C708 C710 1.348 . S
C708 C711 1.356 . S
C708 O764 1.325 . S
N709 C712 1.314 . S
N709 C713 1.279 . S
C710 C708 1.348 . S
C710 C712 1.353 . S
C710 H768 0.929 . S
C711 C708 1.356 . S
C711 C713 1.358 . S
C711 H769 0.930 . S
C712 N709 1.314 . S
C712 C710 1.353 . S
C712 H770 0.930 . S
C713 N709 1.279 . S
C713 C711 1.358 . S
C713 H771 0.930 . S
C714 C717 1.348 . S
C714 C718 1.356 . S
C714 O765 1.325 . S
C715 N716 1.279 . S
C715 C718 1.358 . S
C715 H772 0.930 . S
N716 C715 1.279 . S
N716 C719 1.314 . S
C717 C714 1.348 . S
C717 C719 1.353 . S
C717 H773 0.929 . S
C718 C714 1.356 . S
C718 C715 1.358 . S
C718 H774 0.930 . S
C719 N716 1.314 . S
C719 C717 1.353 . S
C719 H775 0.930 . S
C720 N721 1.314 . S
C720 C725 1.353 . S
C720 H726 0.930 . S
N721 Li704 1.990 . S
N721 C720 1.314 . S
N721 C723 1.279 . S
C722 C723 1.358 . S
C722 C724 1.356 . S
C722 H776 0.930 . S
C723 N721 1.279 . S
C723 C722 1.358 . S
C723 H727 0.930 . S
C724 C722 1.356 . S
C724 C725 1.348 . S
C725 C720 1.353 . S
C725 C724 1.348 . S
C725 H777 0.929 . S
H726 C720 0.930 . S
H727 C723 0.930 . S
C728 N729 1.314 . S
C728 C730 1.353 . S
C728 H734 0.930 . S
N729 Li705 1.990 . S
N729 C728 1.314 . S
N729 C732 1.279 . S
C730 C728 1.353 . S
C730 C733 1.348 . S
C730 H778 0.929 . S
C731 C732 1.358 . S
C731 C733 1.356 . S
C731 H779 0.930 . S
C732 N729 1.279 . S
C732 C731 1.358 . S
C732 H735 0.930 . S
C733 C730 1.348 . S
C733 C731 1.356 . S
H734 C728 0.930 . S
H735 C732 0.930 . S
C736 C738 1.348 . S
C736 C739 1.356 . S
C736 O766 1.325 . S
N737 C740 1.314 . S
N737 C741 1.279 . S
C738 C736 1.348 . S
C738 C740 1.353 . S
C738 H780 0.929 . S
C739 C736 1.356 . S
C739 C741 1.358 . S
C739 H781 0.930 . S
C740 N737 1.314 . S
C740 C738 1.353 . S
C740 H782 0.930 . S
C741 N737 1.279 . S
C741 C739 1.358 . S
C741 H783 0.930 . S
C742 C743 1.348 . S
C742 C744 1.356 . S
C742 O767 1.325 . S
C743 C742 1.348 . S
C743 C745 1.353 . S
C743 H784 0.929 . S
C744 C742 1.356 . S
C744 C746 1.358 . S
C744 H785 0.930 . S
C745 C743 1.353 . S
C745 N747 1.314 . S
C745 H786 0.930 . S
C746 C744 1.358 . S
C746 N747 1.279 . S
C746 H787 0.930 . S
N747 C745 1.314 . S
N747 C746 1.279 . S
C748 C750 1.353 . S
C748 N751 1.314 . S
C748 H754 0.930 . S
C749 N751 1.279 . S
C749 C752 1.358 . S
C749 H755 0.930 . S
C750 C748 1.353 . S
C750 C753 1.348 . S
C750 H788 0.929 . S
N751 Li706 1.990 . S
N751 C748 1.314 . S
N751 C749 1.279 . S
C752 C749 1.358 . S
C752 C753 1.356 . S
C752 H789 0.930 . S
C753 C750 1.348 . S
C753 C752 1.356 . S
H754 C748 0.930 . S
H755 C749 0.930 . S
C756 N757 1.314 . S
C756 C758 1.353 . S
C756 H762 0.930 . S
N757 Li707 1.990 . S
N757 C756 1.314 . S
N757 C760 1.279 . S
C758 C756 1.353 . S
C758 C761 1.348 . S
C758 H790 0.929 . S
C759 C760 1.358 . S
C759 C761 1.356 . S
C759 H791 0.930 . S
C760 N757 1.279 . S
C760 C759 1.358 . S
C760 H763 0.930 . S
C761 C758 1.348 . S
C761 C759 1.356 . S
H762 C756 0.930 . S
H763 C760 0.930 . S
O764 Li704 1.956 . S
O764 Li705 1.970 . S
O764 Li706 1.961 . S
O764 C708 1.325 . S
O765 Li704 1.970 . S
O765 Li705 1.956 . S
O765 Li707 1.961 . S
O765 C714 1.325 . S
O766 Li704 1.961 . S
O766 Li706 1.956 . S
O766 Li707 1.970 . S
O766 C736 1.325 . S
O767 Li705 1.961 . S
O767 Li706 1.970 . S
O767 Li707 1.956 . S
O767 C742 1.325 . S
H768 C710 0.929 . S
H769 C711 0.930 . S
H770 C712 0.930 . S
H771 C713 0.930 . S
H772 C715 0.930 . S
H773 C717 0.929 . S
H774 C718 0.930 . S
H775 C719 0.930 . S
H776 C722 0.930 . S
H777 C725 0.929 . S
H778 C730 0.929 . S
H779 C731 0.930 . S
H780 C738 0.929 . S
H781 C739 0.930 . S
H782 C740 0.930 . S
H783 C741 0.930 . S
H784 C743 0.929 . S
H785 C744 0.930 . S
H786 C745 0.930 . S
H787 C746 0.930 . S
H788 C750 0.929 . S
H789 C752 0.930 . S
H790 C758 0.929 . S
H791 C759 0.930 . S
Li792 N809 1.990 . S
Li792 O852 1.956 . S
Li792 O853 1.970 . S
Li792 O854 1.961 . S
Li793 N817 1.990 . S
Li793 O852 1.970 . S
Li793 O853 1.956 . S
Li793 O855 1.961 . S
Li794 N839 1.990 . S
Li794 O852 1.961 . S
Li794 O854 1.956 . S
Li794 O855 1.970 . S
Li795 N845 1.990 . S
Li795 O853 1.961 . S
Li795 O854 1.970 . S
Li795 O855 1.956 . S
C796 C798 1.348 . S
C796 C799 1.356 . S
C796 O852 1.325 . S
N797 C800 1.314 . S
N797 C801 1.279 . S
C798 C796 1.348 . S
C798 C800 1.353 . S
C798 H856 0.929 . S
C799 C796 1.356 . S
C799 C801 1.358 . S
C799 H857 0.930 . S
C800 N797 1.314 . S
C800 C798 1.353 . S
C800 H858 0.930 . S
C801 N797 1.279 . S
C801 C799 1.358 . S
C801 H859 0.930 . S
C802 C805 1.348 . S
C802 C806 1.356 . S
C802 O853 1.325 . S
C803 N804 1.279 . S
C803 C806 1.358 . S
C803 H860 0.930 . S
N804 C803 1.279 . S
N804 C807 1.314 . S
C805 C802 1.348 . S
C805 C807 1.353 . S
C805 H861 0.929 . S
C806 C802 1.356 . S
C806 C803 1.358 . S
C806 H862 0.930 . S
C807 N804 1.314 . S
C807 C805 1.353 . S
C807 H863 0.930 . S
C808 N809 1.314 . S
C808 C813 1.353 . S
C808 H814 0.930 . S
N809 Li792 1.990 . S
N809 C808 1.314 . S
N809 C811 1.279 . S
C810 C811 1.358 . S
C810 C812 1.356 . S
C810 H864 0.930 . S
C811 N809 1.279 . S
C811 C810 1.358 . S
C811 H815 0.930 . S
C812 C810 1.356 . S
C812 C813 1.348 . S
C813 C808 1.353 . S
C813 C812 1.348 . S
C813 H865 0.929 . S
H814 C808 0.930 . S
H815 C811 0.930 . S
C816 N817 1.314 . S
C816 C818 1.353 . S
C816 H822 0.930 . S
N817 Li793 1.990 . S
N817 C816 1.314 . S
N817 C820 1.279 . S
C818 C816 1.353 . S
C818 C821 1.348 . S
C818 H866 0.929 . S
C819 C820 1.358 . S
C819 C821 1.356 . S
C819 H867 0.930 . S
C820 N817 1.279 . S
C820 C819 1.358 . S
C820 H823 0.930 . S
C821 C818 1.348 . S
C821 C819 1.356 . S
H822 C816 0.930 . S
H823 C820 0.930 . S
C824 C826 1.348 . S
C824 C827 1.356 . S
C824 O854 1.325 . S
N825 C828 1.314 . S
N825 C829 1.279 . S
C826 C824 1.348 . S
C826 C828 1.353 . S
C826 H868 0.929 . S
C827 C824 1.356 . S
C827 C829 1.358 . S
C827 H869 0.930 . S
C828 N825 1.314 . S
C828 C826 1.353 . S
C828 H870 0.930 . S
C829 N825 1.279 . S
C829 C827 1.358 . S
C829 H871 0.930 . S
C830 C831 1.348 . S
C830 C832 1.356 . S
C830 O855 1.325 . S
C831 C830 1.348 . S
C831 C833 1.353 . S
C831 H872 0.929 . S
C832 C830 1.356 . S
C832 C834 1.358 . S
C832 H873 0.930 . S
C833 C831 1.353 . S
C833 N835 1.314 . S
C833 H874 0.930 . S
C834 C832 1.358 . S
C834 N835 1.279 . S
C834 H875 0.930 . S
N835 C833 1.314 . S
N835 C834 1.279 . S
C836 C838 1.353 . S
C836 N839 1.314 . S
C836 H842 0.930 . S
C837 N839 1.279 . S
C837 C840 1.358 . S
C837 H843 0.930 . S
C838 C836 1.353 . S
C838 C841 1.348 . S
C838 H876 0.929 . S
N839 Li794 1.990 . S
N839 C836 1.314 . S
N839 C837 1.279 . S
C840 C837 1.358 . S
C840 C841 1.356 . S
C840 H877 0.930 . S
C841 C838 1.348 . S
C841 C840 1.356 . S
H842 C836 0.930 . S
H843 C837 0.930 . S
C844 N845 1.314 . S
C844 C846 1.353 . S
C844 H850 0.930 . S
N845 Li795 1.990 . S
N845 C844 1.314 . S
N845 C848 1.279 . S
C846 C844 1.353 . S
C846 C849 1.348 . S
C846 H878 0.929 . S
C847 C848 1.358 . S
C847 C849 1.356 . S
C847 H879 0.930 . S
C848 N845 1.279 . S
C848 C847 1.358 . S
C848 H851 0.930 . S
C849 C846 1.348 . S
C849 C847 1.356 . S
H850 C844 0.930 . S
H851 C848 0.930 . S
O852 Li792 1.956 . S
O852 Li793 1.970 . S
O852 Li794 1.961 . S
O852 C796 1.325 . S
O853 Li792 1.970 . S
O853 Li793 1.956 . S
O853 Li795 1.961 . S
O853 C802 1.325 . S
O854 Li792 1.961 . S
O854 Li794 1.956 . S
O854 Li795 1.970 . S
O854 C824 1.325 . S
O855 Li793 1.961 . S
O855 Li794 1.970 . S
O855 Li795 1.956 . S
O855 C830 1.325 . S
H856 C798 0.929 . S
H857 C799 0.930 . S
H858 C800 0.930 . S
H859 C801 0.930 . S
H860 C803 0.930 . S
H861 C805 0.929 . S
H862 C806 0.930 . S
H863 C807 0.930 . S
H864 C810 0.930 . S
H865 C813 0.929 . S
H866 C818 0.929 . S
H867 C819 0.930 . S
H868 C826 0.929 . S
H869 C827 0.930 . S
H870 C828 0.930 . S
H871 C829 0.930 . S
H872 C831 0.929 . S
H873 C832 0.930 . S
H874 C833 0.930 . S
H875 C834 0.930 . S
H876 C838 0.929 . S
H877 C840 0.930 . S
H878 C846 0.929 . S
H879 C847 0.930 . S
Li880 N897 1.990 . S
Li880 O940 1.956 . S
Li880 O941 1.970 . S
Li880 O942 1.961 . S
Li881 N905 1.990 . S
Li881 O940 1.970 . S
Li881 O941 1.956 . S
Li881 O943 1.961 . S
Li882 N927 1.990 . S
Li882 O940 1.961 . S
Li882 O942 1.956 . S
Li882 O943 1.970 . S
Li883 N933 1.990 . S
Li883 O941 1.961 . S
Li883 O942 1.970 . S
Li883 O943 1.956 . S
C884 C886 1.348 . S
C884 C887 1.356 . S
C884 O940 1.325 . S
N885 C888 1.314 . S
N885 C889 1.279 . S
C886 C884 1.348 . S
C886 C888 1.353 . S
C886 H944 0.929 . S
C887 C884 1.356 . S
C887 C889 1.358 . S
C887 H945 0.930 . S
C888 N885 1.314 . S
C888 C886 1.353 . S
C888 H946 0.930 . S
C889 N885 1.279 . S
C889 C887 1.358 . S
C889 H947 0.930 . S
C890 C893 1.348 . S
C890 C894 1.356 . S
C890 O941 1.325 . S
C891 N892 1.279 . S
C891 C894 1.358 . S
C891 H948 0.930 . S
N892 C891 1.279 . S
N892 C895 1.314 . S
C893 C890 1.348 . S
C893 C895 1.353 . S
C893 H949 0.929 . S
C894 C890 1.356 . S
C894 C891 1.358 . S
C894 H950 0.930 . S
C895 N892 1.314 . S
C895 C893 1.353 . S
C895 H951 0.930 . S
C896 N897 1.314 . S
C896 C901 1.353 . S
C896 H902 0.930 . S
N897 Li880 1.990 . S
N897 C896 1.314 . S
N897 C899 1.279 . S
C898 C899 1.358 . S
C898 C900 1.356 . S
C898 H952 0.930 . S
C899 N897 1.279 . S
C899 C898 1.358 . S
C899 H903 0.930 . S
C900 C898 1.356 . S
C900 C901 1.348 . S
C901 C896 1.353 . S
C901 C900 1.348 . S
C901 H953 0.929 . S
H902 C896 0.930 . S
H903 C899 0.930 . S
C904 N905 1.314 . S
C904 C906 1.353 . S
C904 H910 0.930 . S
N905 Li881 1.990 . S
N905 C904 1.314 . S
N905 C908 1.279 . S
C906 C904 1.353 . S
C906 C909 1.348 . S
C906 H954 0.929 . S
C907 C908 1.358 . S
C907 C909 1.356 . S
C907 H955 0.930 . S
C908 N905 1.279 . S
C908 C907 1.358 . S
C908 H911 0.930 . S
C909 C906 1.348 . S
C909 C907 1.356 . S
H910 C904 0.930 . S
H911 C908 0.930 . S
C912 C914 1.348 . S
C912 C915 1.356 . S
C912 O942 1.325 . S
N913 C916 1.314 . S
N913 C917 1.279 . S
C914 C912 1.348 . S
C914 C916 1.353 . S
C914 H956 0.929 . S
C915 C912 1.356 . S
C915 C917 1.358 . S
C915 H957 0.930 . S
C916 N913 1.314 . S
C916 C914 1.353 . S
C916 H958 0.930 . S
C917 N913 1.279 . S
C917 C915 1.358 . S
C917 H959 0.930 . S
C918 C919 1.348 . S
C918 C920 1.356 . S
C918 O943 1.325 . S
C919 C918 1.348 . S
C919 C921 1.353 . S
C919 H960 0.929 . S
C920 C918 1.356 . S
C920 C922 1.358 . S
C920 H961 0.930 . S
C921 C919 1.353 . S
C921 N923 1.314 . S
C921 H962 0.930 . S
C922 C920 1.358 . S
C922 N923 1.279 . S
C922 H963 0.930 . S
N923 C921 1.314 . S
N923 C922 1.279 . S
C924 C926 1.353 . S
C924 N927 1.314 . S
C924 H930 0.930 . S
C925 N927 1.279 . S
C925 C928 1.358 . S
C925 H931 0.930 . S
C926 C924 1.353 . S
C926 C929 1.348 . S
C926 H964 0.929 . S
N927 Li882 1.990 . S
N927 C924 1.314 . S
N927 C925 1.279 . S
C928 C925 1.358 . S
C928 C929 1.356 . S
C928 H965 0.930 . S
C929 C926 1.348 . S
C929 C928 1.356 . S
H930 C924 0.930 . S
H931 C925 0.930 . S
C932 N933 1.314 . S
C932 C934 1.353 . S
C932 H938 0.930 . S
N933 Li883 1.990 . S
N933 C932 1.314 . S
N933 C936 1.279 . S
C934 C932 1.353 . S
C934 C937 1.348 . S
C934 H966 0.929 . S
C935 C936 1.358 . S
C935 C937 1.356 . S
C935 H967 0.930 . S
C936 N933 1.279 . S
C936 C935 1.358 . S
C936 H939 0.930 . S
C937 C934 1.348 . S
C937 C935 1.356 . S
H938 C932 0.930 . S
H939 C936 0.930 . S
O940 Li880 1.956 . S
O940 Li881 1.970 . S
O940 Li882 1.961 . S
O940 C884 1.325 . S
O941 Li880 1.970 . S
O941 Li881 1.956 . S
O941 Li883 1.961 . S
O941 C890 1.325 . S
O942 Li880 1.961 . S
O942 Li882 1.956 . S
O942 Li883 1.970 . S
O942 C912 1.325 . S
O943 Li881 1.961 . S
O943 Li882 1.970 . S
O943 Li883 1.956 . S
O943 C918 1.325 . S
H944 C886 0.929 . S
H945 C887 0.930 . S
H946 C888 0.930 . S
H947 C889 0.930 . S
H948 C891 0.930 . S
H949 C893 0.929 . S
H950 C894 0.930 . S
H951 C895 0.930 . S
H952 C898 0.930 . S
H953 C901 0.929 . S
H954 C906 0.929 . S
H955 C907 0.930 . S
H956 C914 0.929 . S
H957 C915 0.930 . S
H958 C916 0.930 . S
H959 C917 0.930 . S
H960 C919 0.929 . S
H961 C920 0.930 . S
H962 C921 0.930 . S
H963 C922 0.930 . S
H964 C926 0.929 . S
H965 C928 0.930 . S
H966 C934 0.929 . S
H967 C935 0.930 . S
Li968 N985 1.990 . S
Li968 O1028 1.956 . S
Li968 O1029 1.970 . S
Li968 O1030 1.961 . S
Li969 N993 1.990 . S
Li969 O1028 1.970 . S
Li969 O1029 1.956 . S
Li969 O1031 1.961 . S
Li970 N1015 1.990 . S
Li970 O1028 1.961 . S
Li970 O1030 1.956 . S
Li970 O1031 1.970 . S
Li971 N1021 1.990 . S
Li971 O1029 1.961 . S
Li971 O1030 1.970 . S
Li971 O1031 1.956 . S
C972 C974 1.348 . S
C972 C975 1.356 . S
C972 O1028 1.325 . S
N973 C976 1.314 . S
N973 C977 1.279 . S
C974 C972 1.348 . S
C974 C976 1.353 . S
C974 H1032 0.929 . S
C975 C972 1.356 . S
C975 C977 1.358 . S
C975 H1033 0.930 . S
C976 N973 1.314 . S
C976 C974 1.353 . S
C976 H1034 0.930 . S
C977 N973 1.279 . S
C977 C975 1.358 . S
C977 H1035 0.930 . S
C978 C981 1.348 . S
C978 C982 1.356 . S
C978 O1029 1.325 . S
C979 N980 1.279 . S
C979 C982 1.358 . S
C979 H1036 0.930 . S
N980 C979 1.279 . S
N980 C983 1.314 . S
C981 C978 1.348 . S
C981 C983 1.353 . S
C981 H1037 0.929 . S
C982 C978 1.356 . S
C982 C979 1.358 . S
C982 H1038 0.930 . S
C983 N980 1.314 . S
C983 C981 1.353 . S
C983 H1039 0.930 . S
C984 N985 1.314 . S
C984 C989 1.353 . S
C984 H990 0.930 . S
N985 Li968 1.990 . S
N985 C984 1.314 . S
N985 C987 1.279 . S
C986 C987 1.358 . S
C986 C988 1.356 . S
C986 H1040 0.930 . S
C987 N985 1.279 . S
C987 C986 1.358 . S
C987 H991 0.930 . S
C988 C986 1.356 . S
C988 C989 1.348 . S
C989 C984 1.353 . S
C989 C988 1.348 . S
C989 H1041 0.929 . S
H990 C984 0.930 . S
H991 C987 0.930 . S
C992 N993 1.314 . S
C992 C994 1.353 . S
C992 H998 0.930 . S
N993 Li969 1.990 . S
N993 C992 1.314 . S
N993 C996 1.279 . S
C994 C992 1.353 . S
C994 C997 1.348 . S
C994 H1042 0.929 . S
C995 C996 1.358 . S
C995 C997 1.356 . S
C995 H1043 0.930 . S
C996 N993 1.279 . S
C996 C995 1.358 . S
C996 H999 0.930 . S
C997 C994 1.348 . S
C997 C995 1.356 . S
H998 C992 0.930 . S
H999 C996 0.930 . S
C1000 C1002 1.348 . S
C1000 C1003 1.356 . S
C1000 O1030 1.325 . S
N1001 C1004 1.314 . S
N1001 C1005 1.279 . S
C1002 C1000 1.348 . S
C1002 C1004 1.353 . S
C1002 H1044 0.929 . S
C1003 C1000 1.356 . S
C1003 C1005 1.358 . S
C1003 H1045 0.930 . S
C1004 N1001 1.314 . S
C1004 C1002 1.353 . S
C1004 H1046 0.930 . S
C1005 N1001 1.279 . S
C1005 C1003 1.358 . S
C1005 H1047 0.930 . S
C1006 C1007 1.348 . S
C1006 C1008 1.356 . S
C1006 O1031 1.325 . S
C1007 C1006 1.348 . S
C1007 C1009 1.353 . S
C1007 H1048 0.929 . S
C1008 C1006 1.356 . S
C1008 C1010 1.358 . S
C1008 H1049 0.930 . S
C1009 C1007 1.353 . S
C1009 N1011 1.314 . S
C1009 H1050 0.930 . S
C1010 C1008 1.358 . S
C1010 N1011 1.279 . S
C1010 H1051 0.930 . S
N1011 C1009 1.314 . S
N1011 C1010 1.279 . S
C1012 C1014 1.353 . S
C1012 N1015 1.314 . S
C1012 H1018 0.930 . S
C1013 N1015 1.279 . S
C1013 C1016 1.358 . S
C1013 H1019 0.930 . S
C1014 C1012 1.353 . S
C1014 C1017 1.348 . S
C1014 H1052 0.929 . S
N1015 Li970 1.990 . S
N1015 C1012 1.314 . S
N1015 C1013 1.279 . S
C1016 C1013 1.358 . S
C1016 C1017 1.356 . S
C1016 H1053 0.930 . S
C1017 C1014 1.348 . S
C1017 C1016 1.356 . S
H1018 C1012 0.930 . S
H1019 C1013 0.930 . S
C1020 N1021 1.314 . S
C1020 C1022 1.353 . S
C1020 H1026 0.930 . S
N1021 Li971 1.990 . S
N1021 C1020 1.314 . S
N1021 C1024 1.279 . S
C1022 C1020 1.353 . S
C1022 C1025 1.348 . S
C1022 H1054 0.929 . S
C1023 C1024 1.358 . S
C1023 C1025 1.356 . S
C1023 H1055 0.930 . S
C1024 N1021 1.279 . S
C1024 C1023 1.358 . S
C1024 H1027 0.930 . S
C1025 C1022 1.348 . S
C1025 C1023 1.356 . S
H1026 C1020 0.930 . S
H1027 C1024 0.930 . S
O1028 Li968 1.956 . S
O1028 Li969 1.970 . S
O1028 Li970 1.961 . S
O1028 C972 1.325 . S
O1029 Li968 1.970 . S
O1029 Li969 1.956 . S
O1029 Li971 1.961 . S
O1029 C978 1.325 . S
O1030 Li968 1.961 . S
O1030 Li970 1.956 . S
O1030 Li971 1.970 . S
O1030 C1000 1.325 . S
O1031 Li969 1.961 . S
O1031 Li970 1.970 . S
O1031 Li971 1.956 . S
O1031 C1006 1.325 . S
H1032 C974 0.929 . S
H1033 C975 0.930 . S
H1034 C976 0.930 . S
H1035 C977 0.930 . S
H1036 C979 0.930 . S
H1037 C981 0.929 . S
H1038 C982 0.930 . S
H1039 C983 0.930 . S
H1040 C986 0.930 . S
H1041 C989 0.929 . S
H1042 C994 0.929 . S
H1043 C995 0.930 . S
H1044 C1002 0.929 . S
H1045 C1003 0.930 . S
H1046 C1004 0.930 . S
H1047 C1005 0.930 . S
H1048 C1007 0.929 . S
H1049 C1008 0.930 . S
H1050 C1009 0.930 . S
H1051 C1010 0.930 . S
H1052 C1014 0.929 . S
H1053 C1016 0.930 . S
H1054 C1022 0.929 . S
H1055 C1023 0.930 . S
C1056 C1057 1.391 . S
C1056 C1058 1.394 . S
C1056 H1072 0.931 . S
C1057 C1056 1.391 . S
C1057 C1061 1.376 . S
C1058 C1056 1.394 . S
C1058 C1059 1.369 . S
C1058 C1062 1.531 . S
C1059 C1058 1.369 . S
C1059 C1060 1.410 . S
C1059 C1067 1.503 1_454 S
C1060 C1059 1.410 . S
C1060 C1061 1.392 . S
C1060 C1063 1.511 1_455 S
C1061 C1057 1.376 . S
C1061 C1060 1.392 . S
C1061 H1073 0.929 . S
C1062 C1058 1.531 . S
C1062 H1074 0.960 1_454 S
C1062 H1075 0.962 1_554 S
C1062 H1076 0.960 . S
C1063 C1060 1.511 1_655 S
C1063 H1077 0.961 . S
C1063 H1078 0.961 . S
C1063 H1079 0.961 . S
C1064 C1065 1.370 . S
C1064 C1066 1.363 1_655 S
C1064 H1080 0.934 . S
C1065 C1064 1.370 . S
C1065 C1069 1.408 . S
C1066 C1064 1.363 1_455 S
C1066 C1067 1.370 1_455 S
C1066 C1070 1.524 . S
C1067 C1059 1.503 1_656 S
C1067 C1066 1.370 1_655 S
C1067 C1068 1.403 . S
C1068 C1067 1.403 . S
C1068 C1069 1.404 . S
C1068 C1071 1.539 1_556 S
C1069 C1065 1.408 . S
C1069 C1068 1.404 . S
C1069 H1081 0.930 . S
C1070 C1066 1.524 . S
C1070 H1082 0.956 . S
C1070 H1083 0.961 . S
C1070 H1084 0.961 . S
C1071 C1068 1.539 1_554 S
C1071 H1085 0.958 . S
C1071 H1086 0.961 . S
C1071 H1087 0.960 . S
H1072 C1056 0.931 . S
H1073 C1061 0.929 . S
H1074 C1062 0.960 1_656 S
H1075 C1062 0.962 1_556 S
H1076 C1062 0.960 . S
H1077 C1063 0.961 . S
H1078 C1063 0.961 . S
H1079 C1063 0.961 . S
H1080 C1064 0.934 . S
H1081 C1069 0.930 . S
H1082 C1070 0.956 . S
H1083 C1070 0.961 . S
H1084 C1070 0.961 . S
H1085 C1071 0.958 . S
H1086 C1071 0.961 . S
H1087 C1071 0.960 . S
C1088 C1089 1.391 . S
C1088 C1090 1.394 1_565 S
C1088 H1104 0.943 . S
C1089 C1088 1.391 . S
C1089 C1093 1.376 . S
C1090 C1088 1.394 1_545 S
C1090 C1091 1.369 1_545 S
C1090 C1094 1.531 . S
C1091 C1090 1.369 1_565 S
C1091 C1092 1.410 . S
C1091 C1099 1.503 1_565 S
C1092 C1091 1.410 . S
C1092 C1093 1.392 . S
C1092 C1095 1.511 . S
C1093 C1089 1.376 . S
C1093 C1092 1.392 . S
C1093 H1105 0.929 . S
C1094 C1090 1.531 . S
C1094 H1106 0.960 . S
C1094 H1107 0.962 . S
C1094 H1108 0.960 . S
C1095 C1092 1.511 . S
C1095 H1109 0.961 . S
C1095 H1110 0.961 . S
C1095 H1111 0.961 . S
C1096 C1097 1.370 . S
C1096 C1098 1.363 . S
C1096 H1112 0.931 . S
C1097 C1096 1.370 . S
C1097 C1101 1.408 . S
C1098 C1096 1.363 . S
C1098 C1099 1.370 . S
C1098 C1102 1.524 1_545 S
C1099 C1091 1.503 1_545 S
C1099 C1098 1.370 . S
C1099 C1100 1.403 . S
C1100 C1099 1.403 . S
C1100 C1101 1.404 . S
C1100 C1103 1.539 . S
C1101 C1097 1.408 . S
C1101 C1100 1.404 . S
C1101 H1113 0.930 . S
C1102 C1098 1.524 1_565 S
C1102 H1114 0.956 . S
C1102 H1115 0.961 . S
C1102 H1116 0.961 . S
C1103 C1100 1.539 . S
C1103 H1117 0.958 . S
C1103 H1118 0.961 . S
C1103 H1119 0.960 . S
H1104 C1088 0.943 . S
H1105 C1093 0.929 . S
H1106 C1094 0.960 . S
H1107 C1094 0.962 . S
H1108 C1094 0.960 . S
H1109 C1095 0.961 . S
H1110 C1095 0.961 . S
H1111 C1095 0.961 . S
H1112 C1096 0.931 . S
H1113 C1101 0.930 . S
H1114 C1102 0.956 . S
H1115 C1102 0.961 . S
H1116 C1102 0.961 . S
H1117 C1103 0.958 . S
H1118 C1103 0.961 . S
H1119 C1103 0.960 . S
C1120 C1121 1.391 . S
C1120 C1122 1.394 . S
C1120 H1136 0.931 . S
C1121 C1120 1.391 . S
C1121 C1125 1.376 . S
C1122 C1120 1.394 . S
C1122 C1123 1.369 . S
C1122 C1126 1.531 1_554 S
C1123 C1122 1.369 . S
C1123 C1124 1.410 . S
C1123 C1131 1.503 1_554 S
C1124 C1123 1.410 . S
C1124 C1125 1.392 . S
C1124 C1127 1.511 . S
C1125 C1121 1.376 . S
C1125 C1124 1.392 . S
C1125 H1137 0.929 . S
C1126 C1122 1.531 1_556 S
C1126 H1138 0.960 . S
C1126 H1139 0.962 . S
C1126 H1140 0.960 . S
C1127 C1124 1.511 . S
C1127 H1141 0.961 . S
C1127 H1142 0.961 . S
C1127 H1143 0.961 . S
C1128 C1129 1.370 . S
C1128 C1130 1.363 . S
C1128 H1144 0.931 . S
C1129 C1128 1.370 . S
C1129 C1133 1.408 . S
C1130 C1128 1.363 . S
C1130 C1131 1.370 . S
C1130 C1134 1.524 1_556 S
C1131 C1123 1.503 1_556 S
C1131 C1130 1.370 . S
C1131 C1132 1.403 . S
C1132 C1131 1.403 . S
C1132 C1133 1.404 . S
C1132 C1135 1.539 . S
C1133 C1129 1.408 . S
C1133 C1132 1.404 . S
C1133 H1145 0.930 . S
C1134 C1130 1.524 1_554 S
C1134 H1146 0.956 . S
C1134 H1147 0.961 . S
C1134 H1148 0.961 1_554 S
C1135 C1132 1.539 . S
C1135 H1149 0.958 . S
C1135 H1150 0.961 . S
C1135 H1151 0.960 . S
H1136 C1120 0.931 . S
H1137 C1125 0.929 . S
H1138 C1126 0.960 . S
H1139 C1126 0.962 . S
H1140 C1126 0.960 . S
H1141 C1127 0.961 . S
H1142 C1127 0.961 . S
H1143 C1127 0.961 . S
H1144 C1128 0.931 . S
H1145 C1133 0.930 . S
H1146 C1134 0.956 . S
H1147 C1134 0.961 . S
H1148 C1134 0.961 1_556 S
H1149 C1135 0.958 . S
H1150 C1135 0.961 . S
H1151 C1135 0.960 . S
C1152 C1153 1.391 . S
C1152 C1154 1.394 . S
C1152 H1168 0.931 . S
C1153 C1152 1.391 . S
C1153 C1157 1.376 . S
C1154 C1152 1.394 . S
C1154 C1155 1.369 . S
C1154 C1158 1.531 . S
C1155 C1154 1.369 . S
C1155 C1156 1.410 . S
C1155 C1163 1.503 1_455 S
C1156 C1155 1.410 . S
C1156 C1157 1.392 . S
C1156 C1159 1.511 1_455 S
C1157 C1153 1.376 . S
C1157 C1156 1.392 . S
C1157 H1169 0.929 . S
C1158 C1154 1.531 . S
C1158 H1170 0.960 1_455 S
C1158 H1171 0.962 . S
C1158 H1172 0.960 . S
C1159 C1156 1.511 1_655 S
C1159 H1173 0.997 . S
C1159 H1174 0.961 . S
C1159 H1175 0.961 . S
C1160 C1161 1.370 . S
C1160 C1162 1.363 1_655 S
C1160 H1176 0.935 1_655 S
C1161 C1160 1.370 . S
C1161 C1165 1.408 . S
C1162 C1160 1.363 1_455 S
C1162 C1163 1.370 1_455 S
C1162 C1166 1.524 . S
C1163 C1155 1.503 1_655 S
C1163 C1162 1.370 1_655 S
C1163 C1164 1.403 . S
C1164 C1163 1.403 . S
C1164 C1165 1.404 . S
C1164 C1167 1.539 . S
C1165 C1161 1.408 . S
C1165 C1164 1.404 . S
C1165 H1177 0.930 . S
C1166 C1162 1.524 . S
C1166 H1178 0.956 . S
C1166 H1179 0.961 . S
C1166 H1180 0.961 . S
C1167 C1164 1.539 . S
C1167 H1181 0.958 . S
C1167 H1182 0.961 . S
C1167 H1183 0.960 . S
H1168 C1152 0.931 . S
H1169 C1157 0.929 . S
H1170 C1158 0.960 1_655 S
H1171 C1158 0.962 . S
H1172 C1158 0.960 . S
H1173 C1159 0.997 . S
H1174 C1159 0.961 . S
H1175 C1159 0.961 . S
H1176 C1160 0.935 1_455 S
H1177 C1165 0.930 . S
H1178 C1166 0.956 . S
H1179 C1166 0.961 . S
H1180 C1166 0.961 . S
H1181 C1167 0.958 . S
H1182 C1167 0.961 . S
H1183 C1167 0.960 . S
C1184 C1185 1.391 . S
C1184 C1186 1.394 . S
C1184 H1200 0.931 . S
C1185 C1184 1.391 . S
C1185 C1189 1.376 . S
C1186 C1184 1.394 . S
C1186 C1187 1.369 . S
C1186 C1190 1.531 1_545 S
C1187 C1186 1.369 . S
C1187 C1188 1.410 . S
C1187 C1195 1.503 1_546 S
C1188 C1187 1.410 . S
C1188 C1189 1.392 . S
C1188 C1191 1.511 . S
C1189 C1185 1.376 . S
C1189 C1188 1.392 . S
C1189 H1201 0.929 . S
C1190 C1186 1.531 1_565 S
C1190 H1202 0.960 . S
C1190 H1203 0.955 1_565 S
C1190 H1204 0.960 . S
C1191 C1188 1.511 . S
C1191 H1205 0.961 . S
C1191 H1206 0.961 1_556 S
C1191 H1207 0.961 1_545 S
C1192 C1193 1.370 . S
C1192 C1194 1.363 1_565 S
C1192 H1208 0.948 . S
C1193 C1192 1.370 . S
C1193 C1197 1.408 . S
C1194 C1192 1.363 1_545 S
C1194 C1195 1.370 1_545 S
C1194 C1198 1.524 . S
C1195 C1187 1.503 1_564 S
C1195 C1194 1.370 1_565 S
C1195 C1196 1.403 . S
C1196 C1195 1.403 . S
C1196 C1197 1.404 . S
C1196 C1199 1.539 1_554 S
C1197 C1193 1.408 . S
C1197 C1196 1.404 . S
C1197 H1209 0.930 . S
C1198 C1194 1.524 . S
C1198 H1210 0.956 . S
C1198 H1211 0.961 . S
C1198 H1212 0.961 . S
C1199 C1196 1.539 1_556 S
C1199 H1213 0.958 . S
C1199 H1214 0.961 . S
C1199 H1215 0.960 . S
H1200 C1184 0.931 . S
H1201 C1189 0.929 . S
H1202 C1190 0.960 . S
H1203 C1190 0.955 1_545 S
H1204 C1190 0.960 . S
H1205 C1191 0.961 . S
H1206 C1191 0.961 1_554 S
H1207 C1191 0.961 1_565 S
H1208 C1192 0.948 . S
H1209 C1197 0.930 . S
H1210 C1198 0.956 . S
H1211 C1198 0.961 . S
H1212 C1198 0.961 . S
H1213 C1199 0.958 . S
H1214 C1199 0.961 . S
H1215 C1199 0.960 . S
C1216 C1217 1.391 . S
C1216 C1218 1.394 . S
C1216 H1232 0.931 . S
C1217 C1216 1.391 . S
C1217 C1221 1.376 . S
C1218 C1216 1.394 . S
C1218 C1219 1.369 . S
C1218 C1222 1.531 . S
C1219 C1218 1.369 . S
C1219 C1220 1.410 . S
C1219 C1227 1.503 . S
C1220 C1219 1.410 . S
C1220 C1221 1.392 . S
C1220 C1223 1.511 . S
C1221 C1217 1.376 . S
C1221 C1220 1.392 . S
C1221 H1233 0.929 . S
C1222 C1218 1.531 . S
C1222 H1234 0.960 . S
C1222 H1235 0.962 . S
C1222 H1236 0.960 . S
C1223 C1220 1.511 . S
C1223 H1237 0.961 . S
C1223 H1238 0.961 . S
C1223 H1239 0.961 . S
C1224 C1225 1.370 . S
C1224 C1226 1.363 . S
C1224 H1240 0.931 . S
C1225 C1224 1.370 . S
C1225 C1229 1.408 . S
C1226 C1224 1.363 . S
C1226 C1227 1.370 . S
C1226 C1230 1.524 . S
C1227 C1219 1.503 . S
C1227 C1226 1.370 . S
C1227 C1228 1.403 . S
C1228 C1227 1.403 . S
C1228 C1229 1.404 . S
C1228 C1231 1.539 . S
C1229 C1225 1.408 . S
C1229 C1228 1.404 . S
C1229 H1241 0.930 . S
C1230 C1226 1.524 . S
C1230 H1242 0.956 . S
C1230 H1243 0.961 . S
C1230 H1244 0.961 . S
C1231 C1228 1.539 . S
C1231 H1245 0.958 . S
C1231 H1246 0.961 . S
C1231 H1247 0.960 . S
H1232 C1216 0.931 . S
H1233 C1221 0.929 . S
H1234 C1222 0.960 . S
H1235 C1222 0.962 . S
H1236 C1222 0.960 . S
H1237 C1223 0.961 . S
H1238 C1223 0.961 . S
H1239 C1223 0.961 . S
H1240 C1224 0.931 . S
H1241 C1229 0.930 . S
H1242 C1230 0.956 . S
H1243 C1230 0.961 . S
H1244 C1230 0.961 . S
H1245 C1231 0.958 . S
H1246 C1231 0.961 . S
H1247 C1231 0.960 . S
C1248 C1249 1.391 . S
C1248 C1250 1.394 1_655 S
C1248 H1264 0.946 . S
C1249 C1248 1.391 . S
C1249 C1253 1.376 . S
C1250 C1248 1.394 1_455 S
C1250 C1251 1.369 1_455 S
C1250 C1254 1.531 . S
C1251 C1250 1.369 1_655 S
C1251 C1252 1.410 . S
C1251 C1259 1.503 1_656 S
C1252 C1251 1.410 . S
C1252 C1253 1.392 . S
C1252 C1255 1.511 1_556 S
C1253 C1249 1.376 . S
C1253 C1252 1.392 . S
C1253 H1265 0.929 . S
C1254 C1250 1.531 . S
C1254 H1266 0.960 . S
C1254 H1267 0.962 . S
C1254 H1268 0.960 . S
C1255 C1252 1.511 1_554 S
C1255 H1269 0.961 . S
C1255 H1270 0.961 . S
C1255 H1271 0.961 . S
C1256 C1257 1.370 . S
C1256 C1258 1.363 . S
C1256 H1272 0.931 . S
C1257 C1256 1.370 . S
C1257 C1261 1.408 . S
C1258 C1256 1.363 . S
C1258 C1259 1.370 . S
C1258 C1262 1.524 . S
C1259 C1251 1.503 1_454 S
C1259 C1258 1.370 . S
C1259 C1260 1.403 . S
C1260 C1259 1.403 . S
C1260 C1261 1.404 . S
C1260 C1263 1.539 1_455 S
C1261 C1257 1.408 . S
C1261 C1260 1.404 . S
C1261 H1273 0.930 . S
C1262 C1258 1.524 . S
C1262 H1274 0.956 1_554 S
C1262 H1275 0.962 1_455 S
C1262 H1276 0.961 . S
C1263 C1260 1.539 1_655 S
C1263 H1277 0.958 1_655 S
C1263 H1278 0.961 . S
C1263 H1279 0.960 . S
H1264 C1248 0.946 . S
H1265 C1253 0.929 . S
H1266 C1254 0.960 . S
H1267 C1254 0.962 . S
H1268 C1254 0.960 . S
H1269 C1255 0.961 . S
H1270 C1255 0.961 . S
H1271 C1255 0.961 . S
H1272 C1256 0.931 . S
H1273 C1261 0.930 . S
H1274 C1262 0.956 1_556 S
H1275 C1262 0.962 1_655 S
H1276 C1262 0.961 . S
H1277 C1263 0.958 1_455 S
H1278 C1263 0.961 . S
H1279 C1263 0.960 . S
C1280 C1281 1.391 . S
C1280 C1282 1.394 . S
C1280 H1296 0.931 . S
C1281 C1280 1.391 . S
C1281 C1285 1.376 . S
C1282 C1280 1.394 . S
C1282 C1283 1.369 . S
C1282 C1286 1.531 . S
C1283 C1282 1.369 . S
C1283 C1284 1.410 1_565 S
C1283 C1291 1.503 1_565 S
C1284 C1283 1.410 1_545 S
C1284 C1285 1.392 1_545 S
C1284 C1287 1.511 . S
C1285 C1281 1.376 . S
C1285 C1284 1.392 1_565 S
C1285 H1297 0.929 . S
C1286 C1282 1.531 . S
C1286 H1298 0.960 . S
C1286 H1299 0.962 . S
C1286 H1300 0.960 . S
C1287 C1284 1.511 . S
C1287 H1301 0.961 . S
C1287 H1302 0.961 . S
C1287 H1303 0.961 . S
C1288 C1289 1.370 . S
C1288 C1290 1.363 . S
C1288 H1304 0.931 . S
C1289 C1288 1.370 . S
C1289 C1293 1.408 . S
C1290 C1288 1.363 . S
C1290 C1291 1.370 . S
C1290 C1294 1.524 1_545 S
C1291 C1283 1.503 1_545 S
C1291 C1290 1.370 . S
C1291 C1292 1.403 . S
C1292 C1291 1.403 . S
C1292 C1293 1.404 . S
C1292 C1295 1.539 . S
C1293 C1289 1.408 . S
C1293 C1292 1.404 . S
C1293 H1305 0.930 . S
C1294 C1290 1.524 1_565 S
C1294 H1306 0.956 . S
C1294 H1307 0.961 . S
C1294 H1308 0.961 . S
C1295 C1292 1.539 . S
C1295 H1309 0.958 . S
C1295 H1310 0.961 . S
C1295 H1311 0.960 . S
H1296 C1280 0.931 . S
H1297 C1285 0.929 . S
H1298 C1286 0.960 . S
H1299 C1286 0.962 . S
H1300 C1286 0.960 . S
H1301 C1287 0.961 . S
H1302 C1287 0.961 . S
H1303 C1287 0.961 . S
H1304 C1288 0.931 . S
H1305 C1293 0.930 . S
H1306 C1294 0.956 . S
H1307 C1294 0.961 . S
H1308 C1294 0.961 . S
H1309 C1295 0.958 . S
H1310 C1295 0.961 . S
H1311 C1295 0.960 . S
C1312 C1313 1.391 . S
C1312 C1314 1.394 . S
C1312 H1328 0.931 . S
C1313 C1312 1.391 . S
C1313 C1317 1.376 . S
C1314 C1312 1.394 . S
C1314 C1315 1.369 . S
C1314 C1318 1.531 1_556 S
C1315 C1314 1.369 . S
C1315 C1316 1.410 . S
C1315 C1323 1.503 1_556 S
C1316 C1315 1.410 . S
C1316 C1317 1.392 . S
C1316 C1319 1.511 . S
C1317 C1313 1.376 . S
C1317 C1316 1.392 . S
C1317 H1329 0.929 . S
C1318 C1314 1.531 1_554 S
C1318 H1330 0.960 . S
C1318 H1331 0.962 . S
C1318 H1332 0.960 1_554 S
C1319 C1316 1.511 . S
C1319 H1333 0.961 . S
C1319 H1334 0.961 . S
C1319 H1335 0.961 . S
C1320 C1321 1.370 . S
C1320 C1322 1.363 . S
C1320 H1336 0.931 . S
C1321 C1320 1.370 . S
C1321 C1325 1.408 . S
C1322 C1320 1.363 . S
C1322 C1323 1.370 . S
C1322 C1326 1.524 . S
C1323 C1315 1.503 1_554 S
C1323 C1322 1.370 . S
C1323 C1324 1.403 . S
C1324 C1323 1.403 . S
C1324 C1325 1.404 . S
C1324 C1327 1.539 1_554 S
C1325 C1321 1.408 . S
C1325 C1324 1.404 . S
C1325 H1337 0.930 . S
C1326 C1322 1.524 . S
C1326 H1338 0.956 . S
C1326 H1339 0.961 . S
C1326 H1340 0.961 . S
C1327 C1324 1.539 1_556 S
C1327 H1341 0.958 . S
C1327 H1342 0.961 . S
C1327 H1343 0.960 . S
H1328 C1312 0.931 . S
H1329 C1317 0.929 . S
H1330 C1318 0.960 . S
H1331 C1318 0.962 . S
H1332 C1318 0.960 1_556 S
H1333 C1319 0.961 . S
H1334 C1319 0.961 . S
H1335 C1319 0.961 . S
H1336 C1320 0.931 . S
H1337 C1325 0.930 . S
H1338 C1326 0.956 . S
H1339 C1326 0.961 . S
H1340 C1326 0.961 . S
H1341 C1327 0.958 . S
H1342 C1327 0.961 . S
H1343 C1327 0.960 . S
C1344 C1345 1.391 . S
C1344 C1346 1.394 1_655 S
C1344 H1360 0.931 . S
C1345 C1344 1.391 . S
C1345 C1349 1.376 . S
C1346 C1344 1.394 1_455 S
C1346 C1347 1.369 1_455 S
C1346 C1350 1.531 . S
C1347 C1346 1.369 1_655 S
C1347 C1348 1.410 . S
C1347 C1355 1.503 1_655 S
C1348 C1347 1.410 . S
C1348 C1349 1.392 . S
C1348 C1351 1.511 . S
C1349 C1345 1.376 . S
C1349 C1348 1.392 . S
C1349 H1361 0.929 . S
C1350 C1346 1.531 . S
C1350 H1362 0.960 . S
C1350 H1363 0.962 . S
C1350 H1364 0.960 . S
C1351 C1348 1.511 . S
C1351 H1365 0.961 . S
C1351 H1366 0.961 . S
C1351 H1367 0.961 . S
C1352 C1353 1.370 . S
C1352 C1354 1.363 . S
C1352 H1368 0.931 . S
C1353 C1352 1.370 . S
C1353 C1357 1.408 . S
C1354 C1352 1.363 . S
C1354 C1355 1.370 . S
C1354 C1358 1.524 1_455 S
C1355 C1347 1.503 1_455 S
C1355 C1354 1.370 . S
C1355 C1356 1.403 . S
C1356 C1355 1.403 . S
C1356 C1357 1.404 . S
C1356 C1359 1.539 . S
C1357 C1353 1.408 . S
C1357 C1356 1.404 . S
C1357 H1369 0.930 . S
C1358 C1354 1.524 1_655 S
C1358 H1370 0.956 . S
C1358 H1371 0.961 . S
C1358 H1372 0.961 . S
C1359 C1356 1.539 . S
C1359 H1373 0.958 . S
C1359 H1374 0.961 . S
C1359 H1375 0.960 . S
H1360 C1344 0.931 . S
H1361 C1349 0.929 . S
H1362 C1350 0.960 . S
H1363 C1350 0.962 . S
H1364 C1350 0.960 . S
H1365 C1351 0.961 . S
H1366 C1351 0.961 . S
H1367 C1351 0.961 . S
H1368 C1352 0.931 . S
H1369 C1357 0.930 . S
H1370 C1358 0.956 . S
H1371 C1358 0.961 . S
H1372 C1358 0.961 . S
H1373 C1359 0.958 . S
H1374 C1359 0.961 . S
H1375 C1359 0.960 . S
C1376 C1377 1.391 . S
C1376 C1378 1.394 . S
C1376 H1392 0.931 . S
C1377 C1376 1.391 . S
C1377 C1381 1.376 . S
C1378 C1376 1.394 . S
C1378 C1379 1.369 . S
C1378 C1382 1.531 1_556 S
C1379 C1378 1.369 . S
C1379 C1380 1.410 . S
C1379 C1387 1.503 1_546 S
C1380 C1379 1.410 . S
C1380 C1381 1.392 . S
C1380 C1383 1.511 1_545 S
C1381 C1377 1.376 . S
C1381 C1380 1.392 . S
C1381 H1393 0.929 . S
C1382 C1378 1.531 1_554 S
C1382 H1394 0.960 . S
C1382 H1395 0.962 . S
C1382 H1396 0.960 . S
C1383 C1380 1.511 1_565 S
C1383 H1397 0.961 . S
C1383 H1398 0.961 . S
C1383 H1399 0.961 . S
C1384 C1385 1.370 . S
C1384 C1386 1.363 . S
C1384 H1400 0.931 . S
C1385 C1384 1.370 . S
C1385 C1389 1.408 . S
C1386 C1384 1.363 . S
C1386 C1387 1.370 . S
C1386 C1390 1.524 1_554 S
C1387 C1379 1.503 1_564 S
C1387 C1386 1.370 . S
C1387 C1388 1.403 1_565 S
C1388 C1387 1.403 1_545 S
C1388 C1389 1.404 1_545 S
C1388 C1391 1.539 . S
C1389 C1385 1.408 . S
C1389 C1388 1.404 1_565 S
C1389 H1401 0.930 . S
C1390 C1386 1.524 1_556 S
C1390 H1402 0.956 . S
C1390 H1403 0.961 . S
C1390 H1404 0.961 . S
C1391 C1388 1.539 . S
C1391 H1405 0.958 . S
C1391 H1406 0.961 . S
C1391 H1407 0.960 . S
H1392 C1376 0.931 . S
H1393 C1381 0.929 . S
H1394 C1382 0.960 . S
H1395 C1382 0.962 . S
H1396 C1382 0.960 . S
H1397 C1383 0.961 . S
H1398 C1383 0.961 . S
H1399 C1383 0.961 . S
H1400 C1384 0.931 . S
H1401 C1389 0.930 . S
H1402 C1390 0.956 . S
H1403 C1390 0.961 . S
H1404 C1390 0.961 . S
H1405 C1391 0.958 . S
H1406 C1391 0.961 . S
H1407 C1391 0.960 . S
C1408 C1409 1.391 . S
C1408 C1410 1.394 . S
C1408 H1424 0.931 . S
C1409 C1408 1.391 . S
C1409 C1413 1.376 . S
C1410 C1408 1.394 . S
C1410 C1411 1.369 . S
C1410 C1414 1.531 . S
C1411 C1410 1.369 . S
C1411 C1412 1.410 . S
C1411 C1419 1.503 . S
C1412 C1411 1.410 . S
C1412 C1413 1.392 . S
C1412 C1415 1.511 . S
C1413 C1409 1.376 . S
C1413 C1412 1.392 . S
C1413 H1425 0.929 . S
C1414 C1410 1.531 . S
C1414 H1426 0.960 . S
C1414 H1427 0.962 . S
C1414 H1428 0.960 . S
C1415 C1412 1.511 . S
C1415 H1429 0.961 . S
C1415 H1430 0.961 . S
C1415 H1431 0.961 . S
C1416 C1417 1.370 . S
C1416 C1418 1.363 . S
C1416 H1432 0.931 . S
C1417 C1416 1.370 . S
C1417 C1421 1.408 . S
C1418 C1416 1.363 . S
C1418 C1419 1.370 . S
C1418 C1422 1.524 . S
C1419 C1411 1.503 . S
C1419 C1418 1.370 . S
C1419 C1420 1.403 . S
C1420 C1419 1.403 . S
C1420 C1421 1.404 . S
C1420 C1423 1.539 . S
C1421 C1417 1.408 . S
C1421 C1420 1.404 . S
C1421 H1433 0.930 . S
C1422 C1418 1.524 . S
C1422 H1434 0.956 . S
C1422 H1435 0.961 . S
C1422 H1436 0.961 . S
C1423 C1420 1.539 . S
C1423 H1437 0.958 . S
C1423 H1438 0.961 . S
C1423 H1439 0.960 . S
H1424 C1408 0.931 . S
H1425 C1413 0.929 . S
H1426 C1414 0.960 . S
H1427 C1414 0.962 . S
H1428 C1414 0.960 . S
H1429 C1415 0.961 . S
H1430 C1415 0.961 . S
H1431 C1415 0.961 . S
H1432 C1416 0.931 . S
H1433 C1421 0.930 . S
H1434 C1422 0.956 . S
H1435 C1422 0.961 . S
H1436 C1422 0.961 . S
H1437 C1423 0.958 . S
H1438 C1423 0.961 . S
H1439 C1423 0.960 . S
C1440 C1441 1.391 . S
C1440 C1442 1.394 . S
C1440 H1456 0.931 . S
C1441 C1440 1.391 . S
C1441 C1445 1.376 . S
C1442 C1440 1.394 . S
C1442 C1443 1.369 . S
C1442 C1446 1.531 . S
C1443 C1442 1.369 . S
C1443 C1444 1.410 . S
C1443 C1451 1.503 . S
C1444 C1443 1.410 . S
C1444 C1445 1.392 . S
C1444 C1447 1.511 . S
C1445 C1441 1.376 . S
C1445 C1444 1.392 . S
C1445 H1457 0.929 . S
C1446 C1442 1.531 . S
C1446 H1458 0.960 . S
C1446 H1459 0.962 . S
C1446 H1460 0.960 . S
C1447 C1444 1.511 . S
C1447 H1461 0.961 . S
C1447 H1462 0.961 . S
C1447 H1463 0.961 . S
C1448 C1449 1.370 . S
C1448 C1450 1.363 . S
C1448 H1464 0.931 . S
C1449 C1448 1.370 . S
C1449 C1453 1.408 . S
C1450 C1448 1.363 . S
C1450 C1451 1.370 . S
C1450 C1454 1.524 . S
C1451 C1443 1.503 . S
C1451 C1450 1.370 . S
C1451 C1452 1.403 . S
C1452 C1451 1.403 . S
C1452 C1453 1.404 . S
C1452 C1455 1.539 . S
C1453 C1449 1.408 . S
C1453 C1452 1.404 . S
C1453 H1465 0.930 . S
C1454 C1450 1.524 . S
C1454 H1466 0.956 . S
C1454 H1467 0.961 . S
C1454 H1468 0.961 . S
C1455 C1452 1.539 . S
C1455 H1469 0.958 . S
C1455 H1470 0.961 . S
C1455 H1471 0.960 . S
H1456 C1440 0.931 . S
H1457 C1445 0.929 . S
H1458 C1446 0.960 . S
H1459 C1446 0.962 . S
H1460 C1446 0.960 . S
H1461 C1447 0.961 . S
H1462 C1447 0.961 . S
H1463 C1447 0.961 . S
H1464 C1448 0.931 . S
H1465 C1453 0.930 . S
H1466 C1454 0.956 . S
H1467 C1454 0.961 . S
H1468 C1454 0.961 . S
H1469 C1455 0.958 . S
H1470 C1455 0.961 . S
H1471 C1455 0.960 . S
C1472 C1473 1.391 . S
C1472 C1474 1.394 . S
C1472 H1488 0.931 . S
C1473 C1472 1.391 . S
C1473 C1477 1.376 . S
C1474 C1472 1.394 . S
C1474 C1475 1.369 . S
C1474 C1478 1.531 . S
C1475 C1474 1.369 . S
C1475 C1476 1.410 . S
C1475 C1483 1.503 . S
C1476 C1475 1.410 . S
C1476 C1477 1.392 . S
C1476 C1479 1.511 . S
C1477 C1473 1.376 . S
C1477 C1476 1.392 . S
C1477 H1489 0.929 . S
C1478 C1474 1.531 . S
C1478 H1490 0.960 . S
C1478 H1491 0.962 . S
C1478 H1492 0.960 . S
C1479 C1476 1.511 . S
C1479 H1493 0.961 . S
C1479 H1494 0.961 . S
C1479 H1495 0.961 . S
C1480 C1481 1.370 . S
C1480 C1482 1.363 . S
C1480 H1496 0.931 . S
C1481 C1480 1.370 . S
C1481 C1485 1.408 . S
C1482 C1480 1.363 . S
C1482 C1483 1.370 . S
C1482 C1486 1.524 . S
C1483 C1475 1.503 . S
C1483 C1482 1.370 . S
C1483 C1484 1.403 . S
C1484 C1483 1.403 . S
C1484 C1485 1.404 . S
C1484 C1487 1.539 . S
C1485 C1481 1.408 . S
C1485 C1484 1.404 . S
C1485 H1497 0.930 . S
C1486 C1482 1.524 . S
C1486 H1498 0.956 . S
C1486 H1499 0.961 . S
C1486 H1500 0.961 . S
C1487 C1484 1.539 . S
C1487 H1501 0.958 . S
C1487 H1502 0.961 . S
C1487 H1503 0.960 . S
H1488 C1472 0.931 . S
H1489 C1477 0.929 . S
H1490 C1478 0.960 . S
H1491 C1478 0.962 . S
H1492 C1478 0.960 . S
H1493 C1479 0.961 . S
H1494 C1479 0.961 . S
H1495 C1479 0.961 . S
H1496 C1480 0.931 . S
H1497 C1485 0.930 . S
H1498 C1486 0.956 . S
H1499 C1486 0.961 . S
H1500 C1486 0.961 . S
H1501 C1487 0.958 . S
H1502 C1487 0.961 . S
H1503 C1487 0.960 . S
C1504 C1505 1.391 . S
C1504 C1506 1.394 . S
C1504 H1520 0.931 . S
C1505 C1504 1.391 . S
C1505 C1509 1.376 . S
C1506 C1504 1.394 . S
C1506 C1507 1.369 . S
C1506 C1510 1.531 . S
C1507 C1506 1.369 . S
C1507 C1508 1.410 . S
C1507 C1515 1.503 . S
C1508 C1507 1.410 . S
C1508 C1509 1.392 . S
C1508 C1511 1.511 . S
C1509 C1505 1.376 . S
C1509 C1508 1.392 . S
C1509 H1521 0.929 . S
C1510 C1506 1.531 . S
C1510 H1522 0.960 . S
C1510 H1523 0.962 . S
C1510 H1524 0.960 . S
C1511 C1508 1.511 . S
C1511 H1525 0.961 . S
C1511 H1526 0.961 . S
C1511 H1527 0.961 . S
C1512 C1513 1.370 . S
C1512 C1514 1.363 . S
C1512 H1528 0.931 . S
C1513 C1512 1.370 . S
C1513 C1517 1.408 . S
C1514 C1512 1.363 . S
C1514 C1515 1.370 . S
C1514 C1518 1.524 . S
C1515 C1507 1.503 . S
C1515 C1514 1.370 . S
C1515 C1516 1.403 . S
C1516 C1515 1.403 . S
C1516 C1517 1.404 . S
C1516 C1519 1.539 . S
C1517 C1513 1.408 . S
C1517 C1516 1.404 . S
C1517 H1529 0.930 . S
C1518 C1514 1.524 . S
C1518 H1530 0.956 . S
C1518 H1531 0.961 . S
C1518 H1532 0.961 . S
C1519 C1516 1.539 . S
C1519 H1533 0.958 . S
C1519 H1534 0.961 . S
C1519 H1535 0.960 . S
H1520 C1504 0.931 . S
H1521 C1509 0.929 . S
H1522 C1510 0.960 . S
H1523 C1510 0.962 . S
H1524 C1510 0.960 . S
H1525 C1511 0.961 . S
H1526 C1511 0.961 . S
H1527 C1511 0.961 . S
H1528 C1512 0.931 . S
H1529 C1517 0.930 . S
H1530 C1518 0.956 . S
H1531 C1518 0.961 . S
H1532 C1518 0.961 . S
H1533 C1519 0.958 . S
H1534 C1519 0.961 . S
H1535 C1519 0.960 . S
C1536 C1537 1.391 . S
C1536 C1538 1.394 . S
C1536 H1552 0.931 . S
C1537 C1536 1.391 . S
C1537 C1541 1.376 . S
C1538 C1536 1.394 . S
C1538 C1539 1.369 . S
C1538 C1542 1.531 . S
C1539 C1538 1.369 . S
C1539 C1540 1.410 . S
C1539 C1547 1.503 . S
C1540 C1539 1.410 . S
C1540 C1541 1.392 . S
C1540 C1543 1.511 . S
C1541 C1537 1.376 . S
C1541 C1540 1.392 . S
C1541 H1553 0.929 . S
C1542 C1538 1.531 . S
C1542 H1554 0.960 . S
C1542 H1555 0.962 . S
C1542 H1556 0.960 . S
C1543 C1540 1.511 . S
C1543 H1557 0.961 . S
C1543 H1558 0.961 . S
C1543 H1559 0.961 . S
C1544 C1545 1.370 . S
C1544 C1546 1.363 . S
C1544 H1560 0.931 . S
C1545 C1544 1.370 . S
C1545 C1549 1.408 . S
C1546 C1544 1.363 . S
C1546 C1547 1.370 . S
C1546 C1550 1.524 . S
C1547 C1539 1.503 . S
C1547 C1546 1.370 . S
C1547 C1548 1.403 . S
C1548 C1547 1.403 . S
C1548 C1549 1.404 . S
C1548 C1551 1.539 . S
C1549 C1545 1.408 . S
C1549 C1548 1.404 . S
C1549 H1561 0.930 . S
C1550 C1546 1.524 . S
C1550 H1562 0.956 . S
C1550 H1563 0.961 . S
C1550 H1564 0.961 . S
C1551 C1548 1.539 . S
C1551 H1565 0.958 . S
C1551 H1566 0.961 . S
C1551 H1567 0.960 . S
H1552 C1536 0.931 . S
H1553 C1541 0.929 . S
H1554 C1542 0.960 . S
H1555 C1542 0.962 . S
H1556 C1542 0.960 . S
H1557 C1543 0.961 . S
H1558 C1543 0.961 . S
H1559 C1543 0.961 . S
H1560 C1544 0.931 . S
H1561 C1549 0.930 . S
H1562 C1550 0.956 . S
H1563 C1550 0.961 . S
H1564 C1550 0.961 . S
H1565 C1551 0.958 . S
H1566 C1551 0.961 . S
H1567 C1551 0.960 . S
C1568 C1569 1.391 . S
C1568 C1570 1.394 . S
C1568 H1584 0.931 . S
C1569 C1568 1.391 . S
C1569 C1573 1.376 . S
C1570 C1568 1.394 . S
C1570 C1571 1.369 . S
C1570 C1574 1.531 . S
C1571 C1570 1.369 . S
C1571 C1572 1.410 . S
C1571 C1579 1.503 . S
C1572 C1571 1.410 . S
C1572 C1573 1.392 . S
C1572 C1575 1.511 . S
C1573 C1569 1.376 . S
C1573 C1572 1.392 . S
C1573 H1585 0.929 . S
C1574 C1570 1.531 . S
C1574 H1586 0.960 . S
C1574 H1587 0.962 . S
C1574 H1588 0.960 . S
C1575 C1572 1.511 . S
C1575 H1589 0.961 . S
C1575 H1590 0.961 . S
C1575 H1591 0.961 . S
C1576 C1577 1.370 . S
C1576 C1578 1.363 . S
C1576 H1592 0.931 . S
C1577 C1576 1.370 . S
C1577 C1581 1.408 . S
C1578 C1576 1.363 . S
C1578 C1579 1.370 . S
C1578 C1582 1.524 . S
C1579 C1571 1.503 . S
C1579 C1578 1.370 . S
C1579 C1580 1.403 . S
C1580 C1579 1.403 . S
C1580 C1581 1.404 . S
C1580 C1583 1.539 . S
C1581 C1577 1.408 . S
C1581 C1580 1.404 . S
C1581 H1593 0.930 . S
C1582 C1578 1.524 . S
C1582 H1594 0.956 . S
C1582 H1595 0.961 . S
C1582 H1596 0.961 . S
C1583 C1580 1.539 . S
C1583 H1597 0.958 . S
C1583 H1598 0.961 . S
C1583 H1599 0.960 . S
H1584 C1568 0.931 . S
H1585 C1573 0.929 . S
H1586 C1574 0.960 . S
H1587 C1574 0.962 . S
H1588 C1574 0.960 . S
H1589 C1575 0.961 . S
H1590 C1575 0.961 . S
H1591 C1575 0.961 . S
H1592 C1576 0.931 . S
H1593 C1581 0.930 . S
H1594 C1582 0.956 . S
H1595 C1582 0.961 . S
H1596 C1582 0.961 . S
H1597 C1583 0.958 . S
H1598 C1583 0.961 . S
H1599 C1583 0.960 . S
C1600 C1601 1.391 . S
C1600 C1602 1.394 . S
C1600 H1616 0.931 . S
C1601 C1600 1.391 . S
C1601 C1605 1.376 . S
C1602 C1600 1.394 . S
C1602 C1603 1.369 . S
C1602 C1606 1.531 . S
C1603 C1602 1.369 . S
C1603 C1604 1.410 . S
C1603 C1611 1.503 . S
C1604 C1603 1.410 . S
C1604 C1605 1.392 . S
C1604 C1607 1.511 . S
C1605 C1601 1.376 . S
C1605 C1604 1.392 . S
C1605 H1617 0.929 . S
C1606 C1602 1.531 . S
C1606 H1618 0.960 . S
C1606 H1619 0.962 . S
C1606 H1620 0.960 . S
C1607 C1604 1.511 . S
C1607 H1621 0.961 . S
C1607 H1622 0.961 . S
C1607 H1623 0.961 . S
C1608 C1609 1.370 . S
C1608 C1610 1.363 . S
C1608 H1624 0.931 . S
C1609 C1608 1.370 . S
C1609 C1613 1.408 . S
C1610 C1608 1.363 . S
C1610 C1611 1.370 . S
C1610 C1614 1.524 . S
C1611 C1603 1.503 . S
C1611 C1610 1.370 . S
C1611 C1612 1.403 . S
C1612 C1611 1.403 . S
C1612 C1613 1.404 . S
C1612 C1615 1.539 . S
C1613 C1609 1.408 . S
C1613 C1612 1.404 . S
C1613 H1625 0.930 . S
C1614 C1610 1.524 . S
C1614 H1626 0.956 . S
C1614 H1627 0.961 . S
C1614 H1628 0.961 . S
C1615 C1612 1.539 . S
C1615 H1629 0.958 . S
C1615 H1630 0.961 . S
C1615 H1631 0.960 . S
H1616 C1600 0.931 . S
H1617 C1605 0.929 . S
H1618 C1606 0.960 . S
H1619 C1606 0.962 . S
H1620 C1606 0.960 . S
H1621 C1607 0.961 . S
H1622 C1607 0.961 . S
H1623 C1607 0.961 . S
H1624 C1608 0.931 . S
H1625 C1613 0.930 . S
H1626 C1614 0.956 . S
H1627 C1614 0.961 . S
H1628 C1614 0.961 . S
H1629 C1615 0.958 . S
H1630 C1615 0.961 . S
H1631 C1615 0.960 . S
C1632 C1633 1.391 . S
C1632 C1634 1.394 . S
C1632 H1648 0.931 . S
C1633 C1632 1.391 . S
C1633 C1637 1.376 . S
C1634 C1632 1.394 . S
C1634 C1635 1.369 . S
C1634 C1638 1.531 . S
C1635 C1634 1.369 . S
C1635 C1636 1.410 . S
C1635 C1643 1.503 . S
C1636 C1635 1.410 . S
C1636 C1637 1.392 . S
C1636 C1639 1.511 . S
C1637 C1633 1.376 . S
C1637 C1636 1.392 . S
C1637 H1649 0.929 . S
C1638 C1634 1.531 . S
C1638 H1650 0.960 . S
C1638 H1651 0.962 . S
C1638 H1652 0.960 . S
C1639 C1636 1.511 . S
C1639 H1653 0.961 . S
C1639 H1654 0.961 . S
C1639 H1655 0.961 . S
C1640 C1641 1.370 . S
C1640 C1642 1.363 . S
C1640 H1656 0.931 . S
C1641 C1640 1.370 . S
C1641 C1645 1.408 . S
C1642 C1640 1.363 . S
C1642 C1643 1.370 . S
C1642 C1646 1.524 . S
C1643 C1635 1.503 . S
C1643 C1642 1.370 . S
C1643 C1644 1.403 . S
C1644 C1643 1.403 . S
C1644 C1645 1.404 . S
C1644 C1647 1.539 . S
C1645 C1641 1.408 . S
C1645 C1644 1.404 . S
C1645 H1657 0.930 . S
C1646 C1642 1.524 . S
C1646 H1658 0.956 . S
C1646 H1659 0.961 . S
C1646 H1660 0.961 . S
C1647 C1644 1.539 . S
C1647 H1661 0.958 . S
C1647 H1662 0.961 . S
C1647 H1663 0.960 . S
H1648 C1632 0.931 . S
H1649 C1637 0.929 . S
H1650 C1638 0.960 . S
H1651 C1638 0.962 . S
H1652 C1638 0.960 . S
H1653 C1639 0.961 . S
H1654 C1639 0.961 . S
H1655 C1639 0.961 . S
H1656 C1640 0.931 . S
H1657 C1645 0.930 . S
H1658 C1646 0.956 . S
H1659 C1646 0.961 . S
H1660 C1646 0.961 . S
H1661 C1647 0.958 . S
H1662 C1647 0.961 . S
H1663 C1647 0.960 . S
C1664 C1665 1.391 . S
C1664 C1666 1.394 . S
C1664 H1680 0.931 . S
C1665 C1664 1.391 . S
C1665 C1669 1.376 . S
C1666 C1664 1.394 . S
C1666 C1667 1.369 . S
C1666 C1670 1.531 . S
C1667 C1666 1.369 . S
C1667 C1668 1.410 . S
C1667 C1675 1.503 . S
C1668 C1667 1.410 . S
C1668 C1669 1.392 . S
C1668 C1671 1.511 . S
C1669 C1665 1.376 . S
C1669 C1668 1.392 . S
C1669 H1681 0.929 . S
C1670 C1666 1.531 . S
C1670 H1682 0.960 . S
C1670 H1683 0.962 . S
C1670 H1684 0.960 . S
C1671 C1668 1.511 . S
C1671 H1685 0.961 . S
C1671 H1686 0.961 . S
C1671 H1687 0.961 . S
C1672 C1673 1.370 . S
C1672 C1674 1.363 . S
C1672 H1688 0.931 . S
C1673 C1672 1.370 . S
C1673 C1677 1.408 . S
C1674 C1672 1.363 . S
C1674 C1675 1.370 . S
C1674 C1678 1.524 . S
C1675 C1667 1.503 . S
C1675 C1674 1.370 . S
C1675 C1676 1.403 . S
C1676 C1675 1.403 . S
C1676 C1677 1.404 . S
C1676 C1679 1.539 . S
C1677 C1673 1.408 . S
C1677 C1676 1.404 . S
C1677 H1689 0.930 . S
C1678 C1674 1.524 . S
C1678 H1690 0.956 . S
C1678 H1691 0.961 . S
C1678 H1692 0.961 . S
C1679 C1676 1.539 . S
C1679 H1693 0.958 . S
C1679 H1694 0.961 . S
C1679 H1695 0.960 . S
H1680 C1664 0.931 . S
H1681 C1669 0.929 . S
H1682 C1670 0.960 . S
H1683 C1670 0.962 . S
H1684 C1670 0.960 . S
H1685 C1671 0.961 . S
H1686 C1671 0.961 . S
H1687 C1671 0.961 . S
H1688 C1672 0.931 . S
H1689 C1677 0.930 . S
H1690 C1678 0.956 . S
H1691 C1678 0.961 . S
H1692 C1678 0.961 . S
H1693 C1679 0.958 . S
H1694 C1679 0.961 . S
H1695 C1679 0.960 . S
C1696 C1697 1.391 . S
C1696 C1698 1.394 . S
C1696 H1712 0.931 . S
C1697 C1696 1.391 . S
C1697 C1701 1.376 . S
C1698 C1696 1.394 . S
C1698 C1699 1.369 . S
C1698 C1702 1.531 . S
C1699 C1698 1.369 . S
C1699 C1700 1.410 . S
C1699 C1707 1.503 . S
C1700 C1699 1.410 . S
C1700 C1701 1.392 . S
C1700 C1703 1.511 . S
C1701 C1697 1.376 . S
C1701 C1700 1.392 . S
C1701 H1713 0.929 . S
C1702 C1698 1.531 . S
C1702 H1714 0.960 . S
C1702 H1715 0.962 . S
C1702 H1716 0.960 . S
C1703 C1700 1.511 . S
C1703 H1717 0.961 . S
C1703 H1718 0.961 . S
C1703 H1719 0.961 . S
C1704 C1705 1.370 . S
C1704 C1706 1.363 . S
C1704 H1720 0.931 . S
C1705 C1704 1.370 . S
C1705 C1709 1.408 . S
C1706 C1704 1.363 . S
C1706 C1707 1.370 . S
C1706 C1710 1.524 . S
C1707 C1699 1.503 . S
C1707 C1706 1.370 . S
C1707 C1708 1.403 . S
C1708 C1707 1.403 . S
C1708 C1709 1.404 . S
C1708 C1711 1.539 . S
C1709 C1705 1.408 . S
C1709 C1708 1.404 . S
C1709 H1721 0.930 . S
C1710 C1706 1.524 . S
C1710 H1722 0.956 . S
C1710 H1723 0.961 . S
C1710 H1724 0.961 . S
C1711 C1708 1.539 . S
C1711 H1725 0.958 . S
C1711 H1726 0.961 . S
C1711 H1727 0.960 . S
H1712 C1696 0.931 . S
H1713 C1701 0.929 . S
H1714 C1702 0.960 . S
H1715 C1702 0.962 . S
H1716 C1702 0.960 . S
H1717 C1703 0.961 . S
H1718 C1703 0.961 . S
H1719 C1703 0.961 . S
H1720 C1704 0.931 . S
H1721 C1709 0.930 . S
H1722 C1710 0.956 . S
H1723 C1710 0.961 . S
H1724 C1710 0.961 . S
H1725 C1711 0.958 . S
H1726 C1711 0.961 . S
H1727 C1711 0.960 . S
C1728 C1729 1.391 . S
C1728 C1730 1.394 . S
C1728 H1744 0.931 . S
C1729 C1728 1.391 . S
C1729 C1733 1.376 . S
C1730 C1728 1.394 . S
C1730 C1731 1.369 . S
C1730 C1734 1.531 . S
C1731 C1730 1.369 . S
C1731 C1732 1.410 . S
C1731 C1739 1.503 . S
C1732 C1731 1.410 . S
C1732 C1733 1.392 . S
C1732 C1735 1.511 . S
C1733 C1729 1.376 . S
C1733 C1732 1.392 . S
C1733 H1745 0.929 . S
C1734 C1730 1.531 . S
C1734 H1746 0.960 . S
C1734 H1747 0.962 . S
C1734 H1748 0.960 . S
C1735 C1732 1.511 . S
C1735 H1749 0.961 . S
C1735 H1750 0.961 . S
C1735 H1751 0.961 . S
C1736 C1737 1.370 . S
C1736 C1738 1.363 . S
C1736 H1752 0.931 . S
C1737 C1736 1.370 . S
C1737 C1741 1.408 . S
C1738 C1736 1.363 . S
C1738 C1739 1.370 . S
C1738 C1742 1.524 . S
C1739 C1731 1.503 . S
C1739 C1738 1.370 . S
C1739 C1740 1.403 . S
C1740 C1739 1.403 . S
C1740 C1741 1.404 . S
C1740 C1743 1.539 . S
C1741 C1737 1.408 . S
C1741 C1740 1.404 . S
C1741 H1753 0.930 . S
C1742 C1738 1.524 . S
C1742 H1754 0.956 . S
C1742 H1755 0.961 . S
C1742 H1756 0.961 . S
C1743 C1740 1.539 . S
C1743 H1757 0.958 . S
C1743 H1758 0.961 . S
C1743 H1759 0.960 . S
H1744 C1728 0.931 . S
H1745 C1733 0.929 . S
H1746 C1734 0.960 . S
H1747 C1734 0.962 . S
H1748 C1734 0.960 . S
H1749 C1735 0.961 . S
H1750 C1735 0.961 . S
H1751 C1735 0.961 . S
H1752 C1736 0.931 . S
H1753 C1741 0.930 . S
H1754 C1742 0.956 . S
H1755 C1742 0.961 . S
H1756 C1742 0.961 . S
H1757 C1743 0.958 . S
H1758 C1743 0.961 . S
H1759 C1743 0.960 . S
C1760 C1761 1.391 . S
C1760 C1762 1.394 . S
C1760 H1776 0.931 . S
C1761 C1760 1.391 . S
C1761 C1765 1.376 . S
C1762 C1760 1.394 . S
C1762 C1763 1.369 . S
C1762 C1766 1.531 . S
C1763 C1762 1.369 . S
C1763 C1764 1.410 . S
C1763 C1771 1.503 . S
C1764 C1763 1.410 . S
C1764 C1765 1.392 . S
C1764 C1767 1.511 . S
C1765 C1761 1.376 . S
C1765 C1764 1.392 . S
C1765 H1777 0.929 . S
C1766 C1762 1.531 . S
C1766 H1778 0.960 . S
C1766 H1779 0.962 . S
C1766 H1780 0.960 . S
C1767 C1764 1.511 . S
C1767 H1781 0.961 . S
C1767 H1782 0.961 . S
C1767 H1783 0.961 . S
C1768 C1769 1.370 . S
C1768 C1770 1.363 . S
C1768 H1784 0.931 . S
C1769 C1768 1.370 . S
C1769 C1773 1.408 . S
C1770 C1768 1.363 . S
C1770 C1771 1.370 . S
C1770 C1774 1.524 . S
C1771 C1763 1.503 . S
C1771 C1770 1.370 . S
C1771 C1772 1.403 . S
C1772 C1771 1.403 . S
C1772 C1773 1.404 . S
C1772 C1775 1.539 . S
C1773 C1769 1.408 . S
C1773 C1772 1.404 . S
C1773 H1785 0.930 . S
C1774 C1770 1.524 . S
C1774 H1786 0.956 . S
C1774 H1787 0.961 . S
C1774 H1788 0.961 . S
C1775 C1772 1.539 . S
C1775 H1789 0.958 . S
C1775 H1790 0.961 . S
C1775 H1791 0.960 . S
H1776 C1760 0.931 . S
H1777 C1765 0.929 . S
H1778 C1766 0.960 . S
H1779 C1766 0.962 . S
H1780 C1766 0.960 . S
H1781 C1767 0.961 . S
H1782 C1767 0.961 . S
H1783 C1767 0.961 . S
H1784 C1768 0.931 . S
H1785 C1773 0.930 . S
H1786 C1774 0.956 . S
H1787 C1774 0.961 . S
H1788 C1774 0.961 . S
H1789 C1775 0.958 . S
H1790 C1775 0.961 . S
H1791 C1775 0.960 . S
C1792 C1793 1.391 . S
C1792 C1794 1.394 . S
C1792 H1808 0.931 . S
C1793 C1792 1.391 . S
C1793 C1797 1.376 . S
C1794 C1792 1.394 . S
C1794 C1795 1.369 . S
C1794 C1798 1.531 . S
C1795 C1794 1.369 . S
C1795 C1796 1.410 . S
C1795 C1803 1.503 . S
C1796 C1795 1.410 . S
C1796 C1797 1.392 . S
C1796 C1799 1.511 . S
C1797 C1793 1.376 . S
C1797 C1796 1.392 . S
C1797 H1809 0.929 . S
C1798 C1794 1.531 . S
C1798 H1810 0.960 . S
C1798 H1811 0.962 . S
C1798 H1812 0.960 . S
C1799 C1796 1.511 . S
C1799 H1813 0.961 . S
C1799 H1814 0.961 . S
C1799 H1815 0.961 . S
C1800 C1801 1.370 . S
C1800 C1802 1.363 . S
C1800 H1816 0.931 . S
C1801 C1800 1.370 . S
C1801 C1805 1.408 . S
C1802 C1800 1.363 . S
C1802 C1803 1.370 . S
C1802 C1806 1.524 . S
C1803 C1795 1.503 . S
C1803 C1802 1.370 . S
C1803 C1804 1.403 . S
C1804 C1803 1.403 . S
C1804 C1805 1.404 . S
C1804 C1807 1.539 . S
C1805 C1801 1.408 . S
C1805 C1804 1.404 . S
C1805 H1817 0.930 . S
C1806 C1802 1.524 . S
C1806 H1818 0.956 . S
C1806 H1819 0.961 . S
C1806 H1820 0.961 . S
C1807 C1804 1.539 . S
C1807 H1821 0.958 . S
C1807 H1822 0.961 . S
C1807 H1823 0.960 . S
H1808 C1792 0.931 . S
H1809 C1797 0.929 . S
H1810 C1798 0.960 . S
H1811 C1798 0.962 . S
H1812 C1798 0.960 . S
H1813 C1799 0.961 . S
H1814 C1799 0.961 . S
H1815 C1799 0.961 . S
H1816 C1800 0.931 . S
H1817 C1805 0.930 . S
H1818 C1806 0.956 . S
H1819 C1806 0.961 . S
H1820 C1806 0.961 . S
H1821 C1807 0.958 . S
H1822 C1807 0.961 . S
H1823 C1807 0.960 . S
C1057 C57 1.450 . S
C1065 C997 1.450 . S
C1089 C548 1.435 . S
C1097 C145 1.445 . S
C1121 C225 1.456 . S
C1129 C636 1.455 . S
C1153 C733 1.450 . S
C1161 C321 1.450 . S
C1185 C821 1.443 . S
C1193 C401 1.447 . S
C1217 C900 1.447 . S
C1225 C497 1.451 . S
C1249 C293 1.461 . S
C1257 C761 1.456 . S
C1281 C372 1.437 . S
C1289 C849 1.447 . S
C1313 C469 1.436 . S
C1321 C929 1.447 . S
C1345 C1025 1.458 . S
C1353 C29 1.456 . S
C1377 C117 1.439 . S
C1385 C577 1.446 . S
C1409 C196 1.437 . S
C1417 C665 1.448 . S
C1441 C753 1.458 . S
C1449 C20 1.458 . S
C1473 C841 1.443 . S
C1481 C108 1.450 . S
C1505 C205 1.450 . S
C1513 C937 1.452 . S
C1537 C284 1.446 . S
C1545 C1017 1.451 . S
C1569 C381 1.458 . S
C1577 C585 1.456 . S
C1601 C673 1.445 . S
C1609 C460 1.450 . S
C1633 C49 1.025 . S
C1641 C909 1.028 . S
C1665 C988 1.033 . S
C1673 C137 1.032 . S
C1697 C233 1.028 . S
C1705 C557 1.029 . S
C1729 C313 1.029 . S
C1737 C645 1.031 . S
C1761 C409 1.024 . S
C1769 C724 1.029 . S
C1793 C489 1.024 . S
C1801 C812 1.029 . S
