# Generated by pormake.
# Topology wiw, (3)-cn, num edge types: 1
# Building blocks:
#     Node 0, Type 0, BuildingBlock: OLANEW_clean_sbu_2, # of connection points: 3
#     Node 1, Type 0, BuildingBlock: OLANEW_clean_sbu_2, # of connection points: 3
#     Node 2, Type 0, BuildingBlock: OLANEW_clean_sbu_2, # of connection points: 3
#     Node 3, Type 0, BuildingBlock: OLANEW_clean_sbu_2, # of connection points: 3
#     Node 4, Type 0, BuildingBlock: OLANEW_clean_sbu_2, # of connection points: 3
#     Node 5, Type 0, BuildingBlock: OLANEW_clean_sbu_2, # of connection points: 3
#     Node 6, Type 0, BuildingBlock: OLANEW_clean_sbu_2, # of connection points: 3
#     Node 7, Type 0, BuildingBlock: OLANEW_clean_sbu_2, # of connection points: 3
#     Node 8, Type 0, BuildingBlock: OLANEW_clean_sbu_2, # of connection points: 3
#     Node 9, Type 0, BuildingBlock: OLANEW_clean_sbu_2, # of connection points: 3
#     Node 10, Type 0, BuildingBlock: OLANEW_clean_sbu_2, # of connection points: 3
#     Node 11, Type 0, BuildingBlock: OLANEW_clean_sbu_2, # of connection points: 3
#     Node 12, Type 0, BuildingBlock: OLANEW_clean_sbu_2, # of connection points: 3
#     Node 13, Type 0, BuildingBlock: OLANEW_clean_sbu_2, # of connection points: 3
#     Node 14, Type 0, BuildingBlock: OLANEW_clean_sbu_2, # of connection points: 3
#     Node 15, Type 0, BuildingBlock: OLANEW_clean_sbu_2, # of connection points: 3
#     Node 16, Type 0, BuildingBlock: OLANEW_clean_sbu_2, # of connection points: 3
#     Node 17, Type 0, BuildingBlock: OLANEW_clean_sbu_2, # of connection points: 3
#     Node 18, Type 0, BuildingBlock: OLANEW_clean_sbu_2, # of connection points: 3
#     Node 19, Type 0, BuildingBlock: OLANEW_clean_sbu_2, # of connection points: 3
#     Node 20, Type 0, BuildingBlock: OLANEW_clean_sbu_2, # of connection points: 3
#     Node 21, Type 0, BuildingBlock: OLANEW_clean_sbu_2, # of connection points: 3
#     Node 22, Type 0, BuildingBlock: OLANEW_clean_sbu_2, # of connection points: 3
#     Node 23, Type 0, BuildingBlock: OLANEW_clean_sbu_2, # of connection points: 3
#     Node 24, Type 0, BuildingBlock: OLANEW_clean_sbu_2, # of connection points: 3
#     Node 25, Type 0, BuildingBlock: OLANEW_clean_sbu_2, # of connection points: 3
#     Node 26, Type 0, BuildingBlock: OLANEW_clean_sbu_2, # of connection points: 3
#     Node 27, Type 0, BuildingBlock: OLANEW_clean_sbu_2, # of connection points: 3
#     Node 28, Type 0, BuildingBlock: OLANEW_clean_sbu_2, # of connection points: 3
#     Node 29, Type 0, BuildingBlock: OLANEW_clean_sbu_2, # of connection points: 3
#     Node 30, Type 0, BuildingBlock: OLANEW_clean_sbu_2, # of connection points: 3
#     Node 31, Type 0, BuildingBlock: OLANEW_clean_sbu_2, # of connection points: 3
#     Node 32, Type 0, BuildingBlock: OLANEW_clean_sbu_2, # of connection points: 3
#     Node 33, Type 0, BuildingBlock: OLANEW_clean_sbu_2, # of connection points: 3
#     Node 34, Type 0, BuildingBlock: OLANEW_clean_sbu_2, # of connection points: 3
#     Node 35, Type 0, BuildingBlock: OLANEW_clean_sbu_2, # of connection points: 3
#     Edge 36, Type (0, 0), BuildingBlock: KIFKEQ_clean_linker_1, # of connection points: 2
#     Edge 37, Type (0, 0), BuildingBlock: KIFKEQ_clean_linker_1, # of connection points: 2
#     Edge 38, Type (0, 0), BuildingBlock: KIFKEQ_clean_linker_1, # of connection points: 2
#     Edge 39, Type (0, 0), BuildingBlock: KIFKEQ_clean_linker_1, # of connection points: 2
#     Edge 40, Type (0, 0), BuildingBlock: KIFKEQ_clean_linker_1, # of connection points: 2
#     Edge 41, Type (0, 0), BuildingBlock: KIFKEQ_clean_linker_1, # of connection points: 2
#     Edge 42, Type (0, 0), BuildingBlock: KIFKEQ_clean_linker_1, # of connection points: 2
#     Edge 43, Type (0, 0), BuildingBlock: KIFKEQ_clean_linker_1, # of connection points: 2
#     Edge 44, Type (0, 0), BuildingBlock: KIFKEQ_clean_linker_1, # of connection points: 2
#     Edge 45, Type (0, 0), BuildingBlock: KIFKEQ_clean_linker_1, # of connection points: 2
#     Edge 46, Type (0, 0), BuildingBlock: KIFKEQ_clean_linker_1, # of connection points: 2
#     Edge 47, Type (0, 0), BuildingBlock: KIFKEQ_clean_linker_1, # of connection points: 2
#     Edge 48, Type (0, 0), BuildingBlock: KIFKEQ_clean_linker_1, # of connection points: 2
#     Edge 49, Type (0, 0), BuildingBlock: KIFKEQ_clean_linker_1, # of connection points: 2
#     Edge 50, Type (0, 0), BuildingBlock: KIFKEQ_clean_linker_1, # of connection points: 2
#     Edge 51, Type (0, 0), BuildingBlock: KIFKEQ_clean_linker_1, # of connection points: 2
#     Edge 52, Type (0, 0), BuildingBlock: KIFKEQ_clean_linker_1, # of connection points: 2
#     Edge 53, Type (0, 0), BuildingBlock: KIFKEQ_clean_linker_1, # of connection points: 2
#     Edge 54, Type (0, 0), BuildingBlock: KIFKEQ_clean_linker_1, # of connection points: 2
#     Edge 55, Type (0, 0), BuildingBlock: KIFKEQ_clean_linker_1, # of connection points: 2
#     Edge 56, Type (0, 0), BuildingBlock: KIFKEQ_clean_linker_1, # of connection points: 2
#     Edge 57, Type (0, 0), BuildingBlock: KIFKEQ_clean_linker_1, # of connection points: 2
#     Edge 58, Type (0, 0), BuildingBlock: KIFKEQ_clean_linker_1, # of connection points: 2
#     Edge 59, Type (0, 0), BuildingBlock: KIFKEQ_clean_linker_1, # of connection points: 2
#     Edge 60, Type (0, 0), BuildingBlock: KIFKEQ_clean_linker_1, # of connection points: 2
#     Edge 61, Type (0, 0), BuildingBlock: KIFKEQ_clean_linker_1, # of connection points: 2
#     Edge 62, Type (0, 0), BuildingBlock: KIFKEQ_clean_linker_1, # of connection points: 2
#     Edge 63, Type (0, 0), BuildingBlock: KIFKEQ_clean_linker_1, # of connection points: 2
#     Edge 64, Type (0, 0), BuildingBlock: KIFKEQ_clean_linker_1, # of connection points: 2
#     Edge 65, Type (0, 0), BuildingBlock: KIFKEQ_clean_linker_1, # of connection points: 2
#     Edge 66, Type (0, 0), BuildingBlock: KIFKEQ_clean_linker_1, # of connection points: 2
#     Edge 67, Type (0, 0), BuildingBlock: KIFKEQ_clean_linker_1, # of connection points: 2
#     Edge 68, Type (0, 0), BuildingBlock: KIFKEQ_clean_linker_1, # of connection points: 2
#     Edge 69, Type (0, 0), BuildingBlock: KIFKEQ_clean_linker_1, # of connection points: 2
#     Edge 70, Type (0, 0), BuildingBlock: KIFKEQ_clean_linker_1, # of connection points: 2
#     Edge 71, Type (0, 0), BuildingBlock: KIFKEQ_clean_linker_1, # of connection points: 2
#     Edge 72, Type (0, 0), BuildingBlock: KIFKEQ_clean_linker_1, # of connection points: 2
#     Edge 73, Type (0, 0), BuildingBlock: KIFKEQ_clean_linker_1, # of connection points: 2
#     Edge 74, Type (0, 0), BuildingBlock: KIFKEQ_clean_linker_1, # of connection points: 2
#     Edge 75, Type (0, 0), BuildingBlock: KIFKEQ_clean_linker_1, # of connection points: 2
#     Edge 76, Type (0, 0), BuildingBlock: KIFKEQ_clean_linker_1, # of connection points: 2
#     Edge 77, Type (0, 0), BuildingBlock: KIFKEQ_clean_linker_1, # of connection points: 2
#     Edge 78, Type (0, 0), BuildingBlock: KIFKEQ_clean_linker_1, # of connection points: 2
#     Edge 79, Type (0, 0), BuildingBlock: KIFKEQ_clean_linker_1, # of connection points: 2
#     Edge 80, Type (0, 0), BuildingBlock: KIFKEQ_clean_linker_1, # of connection points: 2
#     Edge 81, Type (0, 0), BuildingBlock: KIFKEQ_clean_linker_1, # of connection points: 2
#     Edge 82, Type (0, 0), BuildingBlock: KIFKEQ_clean_linker_1, # of connection points: 2
#     Edge 83, Type (0, 0), BuildingBlock: KIFKEQ_clean_linker_1, # of connection points: 2
#     Edge 84, Type (0, 0), BuildingBlock: KIFKEQ_clean_linker_1, # of connection points: 2
#     Edge 85, Type (0, 0), BuildingBlock: KIFKEQ_clean_linker_1, # of connection points: 2
#     Edge 86, Type (0, 0), BuildingBlock: KIFKEQ_clean_linker_1, # of connection points: 2
#     Edge 87, Type (0, 0), BuildingBlock: KIFKEQ_clean_linker_1, # of connection points: 2
#     Edge 88, Type (0, 0), BuildingBlock: KIFKEQ_clean_linker_1, # of connection points: 2
#     Edge 89, Type (0, 0), BuildingBlock: KIFKEQ_clean_linker_1, # of connection points: 2
# Relax obj value: 0.000
# Max RMSD: 0.044
# Mean RMSD: 0.044
data_MOF--net-wiw--node1-OLANEW_clean_sbu_2--edge1-KIFKEQ_clean_linker_1
_symmetry_space_group_name_H-M    P1
_symmetry_Int_Tables_number       1
_symmetry_cell_setting            triclinic
loop_
_symmetry_equiv_pos_as_xyz
'x, y, z'
_cell_length_a     108.6924
_cell_length_b     108.70323
_cell_length_c     33.140287
_cell_angle_alpha  90.04285
_cell_angle_beta   89.960106
_cell_angle_gamma 119.99759
loop_
_atom_site_label
_atom_site_type_symbol
_atom_site_fract_x
_atom_site_fract_y
_atom_site_fract_z
_atom_type_partial_charge
O0 O 0.33137 0.07445 0.09346 0.0
Cd1 Cd 0.32826 0.07655 0.16567 0.0
O2 O 0.35176 0.09443 0.08932 0.0
Cd3 Cd 0.35047 0.10081 0.15096 0.0
O4 O 0.34735 0.11368 0.19598 0.0
C5 C 0.33488 0.11168 0.20095 0.0
O6 O 0.32434 0.10141 0.18081 0.0
C7 C 0.34203 0.08322 0.07275 0.0
C8 C 0.31032 0.04982 0.19864 0.0
O9 O 0.30533 0.05734 0.18397 0.0
O10 O 0.32382 0.05502 0.19812 0.0
O11 O 0.92672 0.25516 0.08634 0.0
Cd12 Cd 0.92536 0.2497 0.15818 0.0
O13 O 0.90737 0.25682 0.08491 0.0
Cd14 Cd 0.90117 0.24891 0.14637 0.0
O15 O 0.88724 0.23281 0.18968 0.0
C16 C 0.88866 0.22202 0.19512 0.0
O17 O 0.89908 0.22146 0.1767 0.0
C18 C 0.91816 0.25775 0.06706 0.0
C19 C 0.95287 0.26085 0.18805 0.0
O20 O 0.94609 0.24821 0.17372 0.0
O21 O 0.94651 0.26809 0.189 0.0
O22 O 0.75007 0.67697 0.08617 0.0
Cd23 Cd 0.7562 0.68103 0.15769 0.0
O24 O 0.74608 0.65504 0.08574 0.0
Cd25 Cd 0.75436 0.65645 0.1466 0.0
O26 O 0.77027 0.65732 0.18856 0.0
C27 C 0.78203 0.66887 0.19147 0.0
O28 O 0.78375 0.68003 0.17137 0.0
C29 C 0.74618 0.66538 0.0675 0.0
C30 C 0.74403 0.69592 0.19164 0.0
O31 O 0.7564 0.70247 0.17552 0.0
O32 O 0.73751 0.68231 0.19229 0.0
O33 O 0.08035 0.32497 0.38102 0.0
Cd34 Cd 0.0822 0.31846 0.31176 0.0
O35 O 0.10023 0.34554 0.3803 0.0
Cd36 Cd 0.10761 0.34145 0.3233 0.0
O37 O 0.12402 0.33895 0.29258 0.0
C38 C 0.12402 0.32733 0.2968 0.0
O39 O 0.11353 0.3169 0.31666 0.0
C40 C 0.08893 0.33659 0.3983 0.0
C41 C 0.05503 0.30531 0.27841 0.0
O42 O 0.05964 0.29806 0.29685 0.0
O43 O 0.06342 0.31873 0.2748 0.0
O44 O 0.68073 0.75828 0.40547 0.0
Cd45 Cd 0.68365 0.76305 0.33307 0.0
O46 O 0.65813 0.75211 0.40652 0.0
Cd47 Cd 0.65827 0.759 0.34458 0.0
O48 O 0.65724 0.77369 0.30167 0.0
C49 C 0.66797 0.7861 0.29875 0.0
O50 O 0.6795 0.78914 0.31926 0.0
C51 C 0.66912 0.75368 0.4247 0.0
C52 C 0.69682 0.74915 0.29896 0.0
O53 O 0.70414 0.76176 0.31316 0.0
O54 O 0.68324 0.7432 0.30029 0.0
O55 O 0.23521 0.92514 0.41356 0.0
Cd56 Cd 0.22853 0.92467 0.34298 0.0
O57 O 0.25061 0.91814 0.40057 0.0
Cd58 Cd 0.2423 0.91149 0.33961 0.0
O59 O 0.22723 0.89536 0.29811 0.0
C60 C 0.21413 0.88989 0.30671 0.0
O61 O 0.21049 0.89474 0.33815 0.0
C62 C 0.24484 0.92261 0.42555 0.0
C63 C 0.24555 0.95134 0.30851 0.0
O64 O 0.23384 0.94823 0.32611 0.0
O65 O 0.2491 0.94174 0.30671 0.0
O66 O 0.67148 0.93461 0.92694 0.0
Cd67 Cd 0.67747 0.93713 0.85517 0.0
O68 O 0.68008 0.92023 0.92921 0.0
Cd69 Cd 0.6842 0.90428 0.95612 0.0
O70 O 0.68543 0.88483 0.95796 0.0
C71 C 0.67489 0.87324 0.96997 0.0
O72 O 0.66358 0.87331 0.9837 0.0
C73 C 0.67445 0.92652 0.94721 0.0
C74 C 0.68406 0.96347 0.82342 0.0
O75 O 0.67144 0.9528 0.82081 0.0
O76 O 0.69351 0.96171 0.84139 0.0
O77 O 0.05483 0.7548 0.94463 0.0
Cd78 Cd 0.04699 0.76142 0.88335 0.0
O79 O 0.07532 0.77433 0.93874 0.0
Cd80 Cd 0.0976 0.79029 0.94973 0.0
O81 O 0.11934 0.80811 0.94571 0.0
C82 C 0.12999 0.80645 0.95129 0.0
O83 O 0.12784 0.7938 0.96099 0.0
C84 C 0.06728 0.76297 0.95807 0.0
C85 C 0.02516 0.73817 0.84314 0.0
O86 O 0.03821 0.74263 0.83438 0.0
O87 O 0.02246 0.74463 0.8711 0.0
O88 O 0.25159 0.33348 0.96386 0.0
Cd89 Cd 0.24628 0.33392 0.89236 0.0
O90 O 0.23242 0.31283 0.97486 0.0
Cd91 Cd 0.22255 0.31306 0.91784 0.0
O92 O 0.2061 0.3149 0.88524 0.0
C93 C 0.1957 0.3133 0.90668 0.0
O94 O 0.19558 0.31051 0.9453 0.0
C95 C 0.24411 0.32312 0.98731 0.0
C96 C 0.26065 0.32352 0.84637 0.0
O97 O 0.26656 0.33669 0.85594 0.0
O98 O 0.24783 0.31528 0.85803 0.0
O99 O 0.92275 0.64194 0.57394 0.0
Cd100 Cd 0.92282 0.63612 0.64517 0.0
O101 O 0.91045 0.65218 0.59006 0.0
Cd102 Cd 0.89773 0.66218 0.57677 0.0
O103 O 0.88167 0.66866 0.57582 0.0
C104 C 0.86868 0.65901 0.5745 0.0
O105 O 0.8655 0.64567 0.57233 0.0
C106 C 0.91654 0.64869 0.56335 0.0
C107 C 0.94518 0.6581 0.68769 0.0
O108 O 0.94656 0.64813 0.67153 0.0
O109 O 0.93325 0.65768 0.68363 0.0
O110 O 0.32998 0.26812 0.60725 0.0
Cd111 Cd 0.33421 0.27432 0.67881 0.0
O112 O 0.32647 0.24682 0.62009 0.0
Cd113 Cd 0.32337 0.22585 0.60492 0.0
O114 O 0.32182 0.20503 0.60219 0.0
C115 C 0.33111 0.20333 0.58368 0.0
O116 O 0.3415 0.21421 0.56489 0.0
C117 C 0.32719 0.25593 0.59473 0.0
C118 C 0.31714 0.28459 0.70961 0.0
O119 O 0.329 0.29291 0.69229 0.0
O120 O 0.3133 0.27138 0.71209 0.0
O121 O 0.72539 0.08076 0.57686 0.0
Cd122 Cd 0.71898 0.08212 0.64675 0.0
O123 O 0.74762 0.09333 0.59571 0.0
Cd124 Cd 0.77054 0.1057 0.58528 0.0
O125 O 0.79314 0.1215 0.58416 0.0
C126 C 0.79667 0.13443 0.57888 0.0
O127 O 0.78664 0.13764 0.57305 0.0
C128 C 0.73852 0.08672 0.56819 0.0
C129 C 0.71118 0.0569 0.68798 0.0
O130 O 0.70178 0.05911 0.67158 0.0
O131 O 0.72424 0.06664 0.68505 0.0
O132 O 0.98988 0.408 0.41018 0.0
Cd133 Cd 0.9853 0.41088 0.48071 0.0
O134 O 0.01171 0.42611 0.40974 0.0
Cd135 Cd 0.00963 0.43352 0.46924 0.0
O136 O 0.00723 0.44834 0.50847 0.0
C137 C 0.01522 0.46145 0.50066 0.0
O138 O 0.02467 0.46509 0.47166 0.0
C139 C 0.00157 0.41558 0.39181 0.0
C140 C 0.97064 0.38428 0.51731 0.0
O141 O 0.96398 0.38968 0.49949 0.0
O142 O 0.98424 0.39158 0.51837 0.0
O143 O 0.60074 0.57576 0.38001 0.0
Cd144 Cd 0.59602 0.56834 0.45059 0.0
O145 O 0.58767 0.58598 0.38068 0.0
Cd146 Cd 0.57822 0.5768 0.43885 0.0
O147 O 0.56007 0.56015 0.47133 0.0
C148 C 0.55094 0.55024 0.44917 0.0
O149 O 0.55326 0.55077 0.41011 0.0
C150 C 0.59614 0.58304 0.3623 0.0
C151 C 0.62125 0.58152 0.49457 0.0
O152 O 0.61707 0.56955 0.47707 0.0
O153 O 0.61338 0.58716 0.4917 0.0
O154 O 0.42118 0.02105 0.38044 0.0
Cd155 Cd 0.425 0.02015 0.45279 0.0
O156 O 0.41164 0.99793 0.3736 0.0
Cd157 Cd 0.4192 0.99535 0.4321 0.0
O158 O 0.43519 0.99269 0.46452 0.0
C159 C 0.44543 0.99403 0.44279 0.0
O160 O 0.44556 0.99696 0.40427 0.0
C161 C 0.41487 0.00995 0.35868 0.0
C162 C 0.41167 0.03232 0.49564 0.0
O163 O 0.42489 0.0396 0.48665 0.0
O164 O 0.40482 0.01925 0.48482 0.0
O165 O 0.73863 0.65014 0.74762 0.0
Cd166 Cd 0.74212 0.64655 0.67669 0.0
O167 O 0.75519 0.67269 0.74818 0.0
Cd168 Cd 0.76304 0.67169 0.68832 0.0
O169 O 0.77865 0.67051 0.64945 0.0
C170 C 0.7916 0.67877 0.65859 0.0
O171 O 0.79458 0.68774 0.68859 0.0
C172 C 0.74535 0.66193 0.76617 0.0
C173 C 0.71607 0.6324 0.63682 0.0
O174 O 0.72126 0.6255 0.6544 0.0
O175 O 0.72328 0.646 0.6378 0.0
O176 O 0.34891 0.08726 0.74889 0.0
Cd177 Cd 0.34857 0.09061 0.67608 0.0
O178 O 0.32634 0.08077 0.75577 0.0
Cd179 Cd 0.32473 0.08792 0.69547 0.0
O180 O 0.32383 0.10358 0.65619 0.0
C181 C 0.33503 0.11559 0.65219 0.0
O182 O 0.34681 0.11766 0.66936 0.0
C183 C 0.33789 0.0826 0.77092 0.0
C184 C 0.36212 0.07812 0.63596 0.0
O185 O 0.36882 0.0914 0.64459 0.0
O186 O 0.34899 0.07081 0.64594 0.0
O187 O 0.91073 0.26251 0.7463 0.0
Cd188 Cd 0.90506 0.2592 0.67442 0.0
O189 O 0.9216 0.25003 0.74672 0.0
Cd190 Cd 0.91419 0.24194 0.68604 0.0
O191 O 0.8979 0.22562 0.64761 0.0
C192 C 0.89307 0.21291 0.65949 0.0
O193 O 0.89869 0.21062 0.6917 0.0
C194 C 0.9178 0.25789 0.76503 0.0
C195 C 0.91849 0.28557 0.63633 0.0
O196 O 0.90601 0.28051 0.65137 0.0
O197 O 0.92451 0.27803 0.63869 0.0
O198 O 0.30209 0.24478 0.27998 0.0
Cd199 Cd 0.29663 0.2424 0.20793 0.0
O200 O 0.30914 0.22918 0.27564 0.0
Cd201 Cd 0.31849 0.21618 0.29292 0.0
O202 O 0.32536 0.20043 0.29136 0.0
C203 C 0.31743 0.18803 0.3054 0.0
O204 O 0.30537 0.18506 0.32267 0.0
C205 C 0.3071 0.23775 0.29696 0.0
C206 C 0.31139 0.2688 0.17011 0.0
O207 O 0.29914 0.26451 0.18592 0.0
O208 O 0.3166 0.26053 0.17178 0.0
O209 O 0.75468 0.05682 0.27622 0.0
Cd210 Cd 0.75649 0.04997 0.20722 0.0
O211 O 0.76753 0.07926 0.25961 0.0
Cd212 Cd 0.77988 0.1021 0.27144 0.0
O213 O 0.79604 0.12459 0.2704 0.0
C214 C 0.80798 0.1287 0.28722 0.0
O215 O 0.81008 0.11935 0.30649 0.0
C216 C 0.76051 0.06985 0.28602 0.0
C217 C 0.73069 0.03982 0.16694 0.0
O218 O 0.73338 0.03148 0.18761 0.0
O219 O 0.74027 0.05297 0.165 0.0
O220 O 0.94008 0.68059 0.25725 0.0
Cd221 Cd 0.94512 0.68655 0.18577 0.0
O222 O 0.91754 0.67287 0.2456 0.0
Cd223 Cd 0.89542 0.66534 0.26233 0.0
O224 O 0.8738 0.66182 0.26332 0.0
C225 C 0.87145 0.67123 0.27825 0.0
O226 O 0.88204 0.68262 0.29456 0.0
C227 C 0.92742 0.67513 0.27023 0.0
C228 C 0.95855 0.67315 0.1499 0.0
O229 O 0.96576 0.68533 0.16685 0.0
O230 O 0.94498 0.66729 0.15002 0.0
O231 O 0.60186 0.99157 0.94939 0.0
Cd232 Cd 0.60515 0.99253 0.02248 0.0
O233 O 0.58398 0.99501 0.96114 0.0
Cd234 Cd 0.56653 0.99868 0.94497 0.0
O235 O 0.54854 0.0021 0.93636 0.0
C236 C 0.53732 0.99294 0.91848 0.0
O237 O 0.53671 0.98137 0.90421 0.0
C238 C 0.59157 0.99281 0.93614 0.0
C239 C 0.63329 0.00334 0.04624 0.0
O240 O 0.62528 0.99009 0.0385 0.0
O241 O 0.62803 0.01151 0.04222 0.0
O242 O 0.01485 0.60788 0.90644 0.0
Cd243 Cd 0.02153 0.61328 0.9774 0.0
O244 O 0.00593 0.58523 0.91948 0.0
Cd245 Cd 0.99693 0.5628 0.90377 0.0
O246 O 0.99161 0.54059 0.90173 0.0
C247 C 0.00175 0.53795 0.90095 0.0
O248 O 0.01487 0.54863 0.89987 0.0
C249 C 0.00858 0.59507 0.8943 0.0
C250 C 0.00775 0.62608 0.01468 0.0
O251 O 0.0197 0.63354 0.9968 0.0
O252 O 0.0023 0.61255 0.01489 0.0
O253 O 0.38784 0.40042 0.96484 0.0
Cd254 Cd 0.38364 0.39694 0.03745 0.0
O255 O 0.40867 0.41878 0.97857 0.0
Cd256 Cd 0.42983 0.43641 0.96354 0.0
O257 O 0.45115 0.45441 0.95365 0.0
C258 C 0.45308 0.46523 0.93373 0.0
O259 O 0.44204 0.46541 0.9183 0.0
C260 C 0.39947 0.41085 0.95265 0.0
C261 C 0.36797 0.36843 0.05975 0.0
O262 O 0.36179 0.37534 0.04923 0.0
O263 O 0.38159 0.37498 0.05934 0.0
O264 O 0.65677 0.74636 0.74678 0.0
Cd265 Cd 0.65367 0.74778 0.81926 0.0
O266 O 0.6793 0.76296 0.74598 0.0
Cd267 Cd 0.67902 0.7692 0.80847 0.0
O268 O 0.67943 0.78343 0.85569 0.0
C269 C 0.66849 0.78465 0.86037 0.0
O270 O 0.65714 0.77664 0.83856 0.0
C271 C 0.66836 0.75353 0.72761 0.0
C272 C 0.64017 0.72038 0.851 0.0
O273 O 0.63298 0.72595 0.83773 0.0
O274 O 0.65376 0.72791 0.85002 0.0
O275 O 0.25797 0.90415 0.7354 0.0
Cd276 Cd 0.25808 0.89801 0.80621 0.0
O277 O 0.25065 0.91931 0.74812 0.0
Cd278 Cd 0.2443 0.91122 0.8094 0.0
O279 O 0.22855 0.89627 0.85197 0.0
C280 C 0.22346 0.88313 0.84467 0.0
O281 O 0.22845 0.87938 0.81379 0.0
C282 C 0.25517 0.91357 0.7232 0.0
C283 C 0.28526 0.91482 0.83782 0.0
O284 O 0.2816 0.90281 0.82132 0.0
O285 O 0.27596 0.91877 0.83996 0.0
O286 O 0.09562 0.35716 0.71435 0.0
Cd287 Cd 0.10239 0.36043 0.78553 0.0
O288 O 0.08653 0.33399 0.7161 0.0
Cd289 Cd 0.09543 0.33424 0.77518 0.0
O290 O 0.11123 0.33156 0.80854 0.0
C291 C 0.11695 0.32573 0.78857 0.0
O292 O 0.11279 0.32176 0.75122 0.0
C293 C 0.08902 0.34514 0.69698 0.0
C294 C 0.08843 0.3723 0.82669 0.0
O295 O 0.10048 0.38017 0.80973 0.0
O296 O 0.08305 0.35879 0.82456 0.0
O297 O 0.40947 0.00222 0.03867 0.0
Cd298 Cd 0.41227 0.99738 0.96834 0.0
O299 O 0.42984 0.02223 0.04275 0.0
Cd300 Cd 0.43728 0.01942 0.98417 0.0
O301 O 0.45258 0.016 0.95048 0.0
C302 C 0.45167 0.00391 0.95297 0.0
O303 O 0.44096 0.99374 0.9729 0.0
C304 C 0.41816 0.01311 0.05871 0.0
C305 C 0.38548 0.97931 0.93594 0.0
O306 O 0.39264 0.97434 0.95312 0.0
O307 O 0.39113 0.99283 0.93339 0.0
O308 O 0.01752 0.42053 0.07257 0.0
Cd309 Cd 0.02096 0.42707 0.00124 0.0
O310 O 0.99482 0.41398 0.07257 0.0
Cd311 Cd 0.99557 0.42236 0.01223 0.0
O312 O 0.99586 0.43873 0.97342 0.0
C313 C 0.98701 0.44271 0.98234 0.0
O314 O 0.97802 0.43627 0.01202 0.0
C315 C 0.00569 0.41532 0.09097 0.0
C316 C 0.03559 0.41541 0.96268 0.0
O317 O 0.04227 0.42763 0.97965 0.0
O318 O 0.02198 0.40875 0.96366 0.0
O319 O 0.58903 0.59316 0.04578 0.0
Cd320 Cd 0.58079 0.59108 0.97633 0.0
O321 O 0.59072 0.57383 0.04472 0.0
Cd322 Cd 0.57981 0.56665 0.98692 0.0
O323 O 0.56083 0.55094 0.95503 0.0
C324 C 0.54959 0.55175 0.95781 0.0
O325 O 0.55017 0.56263 0.97689 0.0
C326 C 0.59244 0.58485 0.06306 0.0
C327 C 0.59245 0.61834 0.94425 0.0
O328 O 0.58046 0.61254 0.96262 0.0
O329 O 0.59874 0.6111 0.94023 0.0
O330 O 0.97279 0.58873 0.59257 0.0
Cd331 Cd 0.96678 0.58872 0.52151 0.0
O332 O 0.98299 0.57642 0.57605 0.0
Cd333 Cd 0.99321 0.56385 0.58851 0.0
O334 O 0.00034 0.54829 0.58845 0.0
C335 C 0.99099 0.53518 0.58794 0.0
O336 O 0.9775 0.53156 0.58886 0.0
C337 C 0.97963 0.58258 0.6029 0.0
C338 C 0.98904 0.61076 0.47891 0.0
O339 O 0.97926 0.61244 0.49516 0.0
O340 O 0.98826 0.59867 0.48279 0.0
O341 O 0.42425 0.42549 0.63519 0.0
Cd342 Cd 0.43046 0.43003 0.56367 0.0
O343 O 0.4195 0.44284 0.64111 0.0
Cd344 Cd 0.42929 0.45202 0.58325 0.0
O345 O 0.44789 0.46711 0.54902 0.0
C346 C 0.45972 0.4714 0.56672 0.0
O347 O 0.45979 0.46621 0.60248 0.0
C348 C 0.41974 0.43222 0.65623 0.0
C349 C 0.40647 0.41307 0.51695 0.0
O350 O 0.41469 0.40851 0.52885 0.0
O351 O 0.40973 0.42576 0.52657 0.0
O352 O 0.57448 0.99384 0.61569 0.0
Cd353 Cd 0.56823 0.99287 0.54439 0.0
O354 O 0.55578 0.973 0.62846 0.0
Cd355 Cd 0.54546 0.97219 0.57142 0.0
O356 O 0.52945 0.97476 0.53884 0.0
C357 C 0.52419 0.98109 0.55845 0.0
O358 O 0.52888 0.98563 0.5951 0.0
C359 C 0.56736 0.98366 0.64005 0.0
C360 C 0.58268 0.98257 0.49844 0.0
O361 O 0.58781 0.99595 0.50359 0.0
O362 O 0.57064 0.97409 0.51459 0.0
O363 O 0.28037 0.32574 0.29197 0.0
Cd364 Cd 0.28521 0.32488 0.36362 0.0
O365 O 0.26179 0.32748 0.30866 0.0
Cd366 Cd 0.24341 0.33018 0.29711 0.0
O367 O 0.22452 0.3322 0.2893 0.0
C368 C 0.21366 0.32271 0.27076 0.0
O369 O 0.21399 0.31169 0.25566 0.0
C370 C 0.26955 0.32653 0.28146 0.0
C371 C 0.31236 0.34564 0.38775 0.0
O372 O 0.31009 0.33376 0.37313 0.0
O373 O 0.30181 0.34779 0.39041 0.0
O374 O 0.6595 0.93319 0.26353 0.0
Cd375 Cd 0.65558 0.9319 0.33647 0.0
O376 O 0.65148 0.91029 0.26612 0.0
Cd377 Cd 0.64783 0.89001 0.24196 0.0
O378 O 0.64746 0.86982 0.23603 0.0
C379 C 0.65794 0.86938 0.22052 0.0
O380 O 0.66866 0.88114 0.20623 0.0
C381 C 0.65646 0.92167 0.24564 0.0
C382 C 0.63958 0.94394 0.36306 0.0
O383 O 0.65318 0.95126 0.36181 0.0
O384 O 0.63355 0.931 0.35109 0.0
O385 O 0.08748 0.72025 0.22566 0.0
Cd386 Cd 0.09398 0.71184 0.28601 0.0
O387 O 0.10784 0.74004 0.22995 0.0
Cd388 Cd 0.12409 0.76197 0.21635 0.0
O389 O 0.1414 0.784 0.21642 0.0
C390 C 0.13899 0.79415 0.21049 0.0
O391 O 0.12593 0.7912 0.20283 0.0
C392 C 0.09611 0.73249 0.2117 0.0
C393 C 0.07055 0.69016 0.32603 0.0
O394 O 0.07534 0.70321 0.33543 0.0
O395 O 0.07678 0.68738 0.29755 0.0
H396 H 0.24187 0.97441 0.31264 0.0
H397 H 0.27023 0.96071 0.26609 0.0
H398 H 0.25753 0.99822 0.28666 0.0
H399 H 0.28571 0.98444 0.23917 0.0
H400 H 0.31773 0.03196 0.23542 0.0
H401 H 0.302 0.00823 0.26186 0.0
H402 H 0.26555 0.0113 0.22443 0.0
H403 H 0.28128 0.03518 0.19894 0.0
C404 C 0.25139 0.97645 0.29658 0.0
C405 C 0.25481 0.96567 0.29149 0.0
C406 C 0.26034 0.99009 0.2815 0.0
C407 C 0.2729 0.99326 0.26086 0.0
C408 C 0.27624 0.98243 0.25547 0.0
C409 C 0.26731 0.96879 0.27067 0.0
C410 C 0.30636 0.02759 0.23292 0.0
C411 C 0.30076 0.03547 0.21511 0.0
C412 C 0.29733 0.01394 0.24784 0.0
C413 C 0.2825 0.00783 0.24518 0.0
C414 C 0.27691 0.01574 0.22745 0.0
C415 C 0.28594 0.02941 0.21265 0.0
H416 H 0.04241 0.31769 0.2365 0.0
H417 H 0.03418 0.27755 0.28633 0.0
H418 H 0.01779 0.30673 0.21432 0.0
H419 H 0.00947 0.26667 0.26501 0.0
H420 H 0.96973 0.24882 0.18535 0.0
H421 H 0.99454 0.25944 0.20564 0.0
H422 H 0.99436 0.29743 0.2432 0.0
H423 H 0.96967 0.28694 0.22202 0.0
C424 C 0.03535 0.30652 0.24269 0.0
C425 C 0.04026 0.29849 0.2632 0.0
C426 C 0.0212 0.30026 0.23024 0.0
C427 C 0.01162 0.28584 0.23811 0.0
C428 C 0.01659 0.27777 0.25808 0.0
C429 C 0.03076 0.28402 0.27046 0.0
C430 C 0.97498 0.25942 0.19804 0.0
C431 C 0.96773 0.26704 0.20201 0.0
C432 C 0.98918 0.26549 0.20983 0.0
C433 C 0.99646 0.27931 0.22592 0.0
C434 C 0.98915 0.28686 0.23028 0.0
C435 C 0.97496 0.2808 0.21843 0.0
H436 H 0.75396 0.72447 0.1878 0.0
H437 H 0.7189 0.68523 0.23258 0.0
H438 H 0.74254 0.73738 0.21275 0.0
H439 H 0.70766 0.69819 0.25859 0.0
H440 H 0.68434 0.72324 0.26167 0.0
H441 H 0.69585 0.71055 0.2356 0.0
H442 H 0.73661 0.74498 0.27401 0.0
H443 H 0.72515 0.75784 0.29899 0.0
C444 C 0.74387 0.71861 0.20329 0.0
C445 C 0.73733 0.70382 0.20816 0.0
C446 C 0.73734 0.72603 0.21777 0.0
C447 C 0.72416 0.71883 0.23765 0.0
C448 C 0.7177 0.70404 0.24285 0.0
C449 C 0.72419 0.69662 0.22819 0.0
C450 C 0.69576 0.72812 0.26441 0.0
C451 C 0.70383 0.74156 0.28237 0.0
C452 C 0.70236 0.7208 0.24972 0.0
C453 C 0.71716 0.72671 0.25282 0.0
C454 C 0.72522 0.74019 0.27062 0.0
C455 C 0.71863 0.74754 0.28513 0.0
H456 H 0.66848 0.96916 0.76982 0.0
H457 H 0.70791 0.98913 0.83637 0.0
H458 H 0.67499 0.99175 0.73778 0.0
H459 H 0.71418 0.01188 0.80581 0.0
H460 H 0.72844 0.04666 0.71114 0.0
H461 H 0.7217 0.02421 0.74434 0.0
H462 H 0.67798 0.01452 0.74778 0.0
H463 H 0.68469 0.03672 0.71287 0.0
C464 C 0.67847 0.97843 0.77798 0.0
C465 C 0.68771 0.97735 0.80549 0.0
C466 C 0.68218 0.99143 0.75979 0.0
C467 C 0.69515 0.00371 0.76906 0.0
C468 C 0.70425 0.00263 0.79725 0.0
C469 C 0.70061 0.98959 0.81503 0.0
C470 C 0.71739 0.03974 0.71905 0.0
C471 C 0.70709 0.04344 0.7093 0.0
C472 C 0.71352 0.02688 0.73837 0.0
C473 C 0.69927 0.0175 0.74891 0.0
C474 C 0.68901 0.02133 0.73954 0.0
C475 C 0.69286 0.03411 0.71973 0.0
H476 H 0.97084 0.66072 0.70726 0.0
H477 H 0.94623 0.68176 0.71979 0.0
H478 H 0.99011 0.67969 0.74573 0.0
H479 H 0.96563 0.70091 0.75722 0.0
H480 H 0.99666 0.7253 0.85804 0.0
H481 H 0.97746 0.70573 0.8212 0.0
H482 H 0.00811 0.70434 0.74095 0.0
H483 H 0.02734 0.72368 0.77853 0.0
C484 C 0.96957 0.66944 0.71802 0.0
C485 C 0.95699 0.66971 0.71052 0.0
C486 C 0.98066 0.68036 0.7399 0.0
C487 C 0.97944 0.69184 0.75466 0.0
C488 C 0.96686 0.69212 0.74693 0.0
C489 C 0.95576 0.68118 0.72521 0.0
C490 C 0.99931 0.72079 0.83261 0.0
C491 C 0.01353 0.72607 0.82119 0.0
C492 C 0.98829 0.70962 0.81131 0.0
C493 C 0.99121 0.70349 0.77794 0.0
C494 C 0.00546 0.70869 0.76677 0.0
C495 C 0.01649 0.71984 0.78819 0.0
H496 H 0.25021 0.29709 0.81328 0.0
H497 H 0.28892 0.3373 0.82796 0.0
H498 H 0.26335 0.2877 0.77746 0.0
H499 H 0.30216 0.3278 0.79356 0.0
H500 H 0.32046 0.31106 0.70026 0.0
H501 H 0.30632 0.32039 0.73027 0.0
H502 H 0.28005 0.28011 0.78962 0.0
H503 H 0.29388 0.27066 0.75836 0.0
C504 C 0.26153 0.30391 0.80894 0.0
C505 C 0.26852 0.31794 0.82349 0.0
C506 C 0.2691 0.29851 0.78862 0.0
C507 C 0.28385 0.30696 0.78268 0.0
C508 C 0.29078 0.32104 0.79695 0.0
C509 C 0.2832 0.32648 0.81694 0.0
C510 C 0.31162 0.30418 0.71956 0.0
C511 C 0.30831 0.29013 0.72698 0.0
C512 C 0.30355 0.30955 0.73699 0.0
C513 C 0.29205 0.30105 0.76259 0.0
C514 C 0.28867 0.28693 0.76962 0.0
C515 C 0.29667 0.28152 0.75189 0.0
H516 H 0.9095 0.30495 0.63287 0.0
H517 H 0.94421 0.29855 0.59803 0.0
H518 H 0.92208 0.32886 0.60482 0.0
H519 H 0.95663 0.32232 0.56898 0.0
H520 H 0.98158 0.37066 0.56103 0.0
H521 H 0.96884 0.34684 0.58961 0.0
H522 H 0.92945 0.34141 0.54175 0.0
H523 H 0.94213 0.36537 0.51414 0.0
C524 C 0.91976 0.3086 0.6189 0.0
C525 C 0.92587 0.29986 0.61774 0.0
C526 C 0.92695 0.32229 0.60264 0.0
C527 C 0.94039 0.32754 0.5847 0.0
C528 C 0.94641 0.31871 0.58316 0.0
C529 C 0.93924 0.30504 0.59956 0.0
C530 C 0.97019 0.3644 0.55673 0.0
C531 C 0.96287 0.36992 0.53535 0.0
C532 C 0.9629 0.3507 0.57287 0.0
C533 C 0.94812 0.34217 0.56786 0.0
C534 C 0.9408 0.34774 0.54663 0.0
C535 C 0.94808 0.36146 0.53062 0.0
H536 H 0.70305 0.64395 0.59299 0.0
H537 H 0.6975 0.6038 0.63442 0.0
H538 H 0.6801 0.63154 0.55917 0.0
H539 H 0.67438 0.59142 0.60152 0.0
H540 H 0.64111 0.57322 0.50097 0.0
H541 H 0.66396 0.58551 0.53528 0.0
H542 H 0.655 0.61827 0.57337 0.0
H543 H 0.63229 0.60616 0.53811 0.0
C544 C 0.6969 0.63248 0.59504 0.0
C545 C 0.70212 0.62486 0.61631 0.0
C546 C 0.68369 0.62537 0.57587 0.0
C547 C 0.67537 0.61047 0.57766 0.0
C548 C 0.68059 0.60287 0.59904 0.0
C549 C 0.69382 0.60998 0.61808 0.0
C550 C 0.64399 0.58303 0.51675 0.0
C551 C 0.63489 0.58872 0.51673 0.0
C552 C 0.65707 0.59004 0.53662 0.0
C553 C 0.66134 0.6029 0.55707 0.0
C554 C 0.65215 0.60851 0.55739 0.0
C555 C 0.63909 0.60151 0.5374 0.0
H556 H 0.3532 0.04985 0.63037 0.0
H557 H 0.3874 0.0912 0.59554 0.0
H558 H 0.36532 0.03874 0.59819 0.0
H559 H 0.39924 0.0801 0.56153 0.0
H560 H 0.42387 0.05736 0.53727 0.0
H561 H 0.41197 0.06823 0.5722 0.0
H562 H 0.37124 0.03322 0.53553 0.0
H563 H 0.38317 0.02208 0.50242 0.0
C564 C 0.36325 0.05655 0.61543 0.0
C565 C 0.36935 0.07139 0.6155 0.0
C566 C 0.37018 0.05018 0.59672 0.0
C567 C 0.38329 0.05848 0.57708 0.0
C568 C 0.38931 0.07335 0.57696 0.0
C569 C 0.38247 0.07973 0.5962 0.0
C570 C 0.41237 0.05198 0.53686 0.0
C571 C 0.40446 0.03886 0.51717 0.0
C572 C 0.40553 0.05826 0.55664 0.0
C573 C 0.3906 0.05166 0.55668 0.0
C574 C 0.38272 0.03852 0.53686 0.0
C575 C 0.38956 0.03215 0.51762 0.0
H576 H 0.37788 0.35205 0.09302 0.0
H577 H 0.3392 0.35093 0.05637 0.0
H578 H 0.36406 0.3278 0.11794 0.0
H579 H 0.32539 0.32651 0.08005 0.0
H580 H 0.30467 0.28987 0.17027 0.0
H581 H 0.3183 0.31363 0.14193 0.0
H582 H 0.34968 0.30354 0.09796 0.0
H583 H 0.33624 0.27991 0.12753 0.0
C584 C 0.36643 0.34657 0.08987 0.0
C585 C 0.35964 0.35344 0.0729 0.0
C586 C 0.3585 0.33262 0.10395 0.0
C587 C 0.34359 0.32518 0.10113 0.0
C588 C 0.33683 0.33199 0.08337 0.0
C589 C 0.34476 0.34597 0.06956 0.0
C590 C 0.31445 0.2927 0.15443 0.0
C591 C 0.31939 0.28301 0.15126 0.0
C592 C 0.32224 0.30631 0.13793 0.0
C593 C 0.33511 0.31053 0.1176 0.0
C594 C 0.33993 0.30074 0.11394 0.0
C595 C 0.33218 0.28715 0.13069 0.0
H596 H 0.70742 0.01327 0.17193 0.0
H597 H 0.72255 0.05426 0.11608 0.0
H598 H 0.68427 0.00468 0.14078 0.0
H599 H 0.69949 0.04554 0.08385 0.0
H600 H 0.65176 0.03008 0.07366 0.0
H601 H 0.67551 0.03888 0.10096 0.0
H602 H 0.67209 0.99816 0.07747 0.0
H603 H 0.64816 0.98924 0.05134 0.0
C604 C 0.70585 0.02041 0.15266 0.0
C605 C 0.71681 0.03446 0.14658 0.0
C606 C 0.69259 0.01546 0.13456 0.0
C607 C 0.68999 0.02441 0.10974 0.0
C608 C 0.70104 0.03842 0.10324 0.0
C609 C 0.71429 0.0434 0.12153 0.0
C610 C 0.6561 0.02303 0.07415 0.0
C611 C 0.64804 0.00894 0.06053 0.0
C612 C 0.66977 0.0281 0.0896 0.0
C613 C 0.67572 0.01922 0.09157 0.0
C614 C 0.66775 0.00522 0.07708 0.0
C615 C 0.65406 0.00013 0.06185 0.0
H616 H 0.98297 0.61328 0.05778 0.0
H617 H 0.01608 0.65432 0.01657 0.0
H618 H 0.97115 0.62456 0.09108 0.0
H619 H 0.00409 0.66556 0.04904 0.0
H620 H 0.987 0.6824 0.14743 0.0
H621 H 0.99881 0.6709 0.11541 0.0
H622 H 0.95814 0.63666 0.0757 0.0
H623 H 0.9463 0.648 0.10856 0.0
C624 C 0.98769 0.6247 0.05566 0.0
C625 C 0.00048 0.6329 0.03456 0.0
C626 C 0.98087 0.63116 0.07457 0.0
C627 C 0.98667 0.64597 0.07276 0.0
C628 C 0.99944 0.65416 0.05155 0.0
C629 C 0.00627 0.6477 0.03271 0.0
C630 C 0.98057 0.67241 0.13193 0.0
C631 C 0.96571 0.66612 0.13055 0.0
C632 C 0.98735 0.66585 0.11335 0.0
C633 C 0.97943 0.65287 0.09288 0.0
C634 C 0.96455 0.64656 0.09164 0.0
C635 C 0.95777 0.65311 0.11029 0.0
H636 H 0.65241 0.70607 0.88412 0.0
H637 H 0.61172 0.70113 0.85117 0.0
H638 H 0.64067 0.68144 0.90657 0.0
H639 H 0.60002 0.6764 0.87265 0.0
H640 H 0.58279 0.63705 0.95368 0.0
H641 H 0.59428 0.66178 0.93215 0.0
H642 H 0.6284 0.65773 0.87898 0.0
H643 H 0.6171 0.63312 0.90142 0.0
C644 C 0.64096 0.69973 0.88162 0.0
C645 C 0.633 0.70556 0.86586 0.0
C646 C 0.63424 0.68557 0.89421 0.0
C647 C 0.6194 0.67691 0.89122 0.0
C648 C 0.61144 0.6828 0.87581 0.0
C649 C 0.61816 0.69698 0.86333 0.0
C650 C 0.59272 0.64143 0.93726 0.0
C651 C 0.59904 0.63313 0.92933 0.0
C652 C 0.59928 0.65559 0.92477 0.0
C653 C 0.61229 0.66177 0.90395 0.0
C654 C 0.61851 0.65339 0.89555 0.0
C655 C 0.61197 0.63924 0.90815 0.0
H656 H 0.30763 0.91001 0.83398 0.0
H657 H 0.29598 0.94046 0.87599 0.0
H658 H 0.33193 0.92556 0.85681 0.0
H659 H 0.32019 0.95585 0.89965 0.0
H660 H 0.37012 0.95033 0.94067 0.0
H661 H 0.34585 0.93464 0.91781 0.0
H662 H 0.34383 0.9709 0.87291 0.0
H663 H 0.36797 0.98662 0.89659 0.0
C664 C 0.31022 0.91997 0.84836 0.0
C665 C 0.29987 0.92401 0.8531 0.0
C666 C 0.32414 0.92886 0.86162 0.0
C667 C 0.32803 0.94197 0.87997 0.0
C668 C 0.31762 0.94592 0.88506 0.0
C669 C 0.30371 0.93705 0.87175 0.0
C670 C 0.36451 0.95495 0.92581 0.0
C671 C 0.37097 0.96973 0.9205 0.0
C672 C 0.35062 0.94595 0.91254 0.0
C673 C 0.34287 0.95151 0.89362 0.0
C674 C 0.34941 0.96628 0.88795 0.0
C675 C 0.36329 0.97529 0.90126 0.0
H676 H 0.02452 0.39061 0.91994 0.0
H677 H 0.06428 0.42597 0.96074 0.0
H678 H 0.03736 0.38028 0.88733 0.0
H679 H 0.0771 0.41545 0.92909 0.0
H680 H 0.09609 0.40034 0.83103 0.0
H681 H 0.0833 0.4107 0.86359 0.0
H682 H 0.051 0.36897 0.9029 0.0
H683 H 0.06361 0.35856 0.86937 0.0
C684 C 0.036 0.39615 0.92211 0.0
C685 C 0.04338 0.40913 0.94287 0.0
C686 C 0.04336 0.39017 0.90363 0.0
C687 C 0.05827 0.39702 0.90562 0.0
C688 C 0.06563 0.40999 0.92646 0.0
C689 C 0.05828 0.41599 0.9448 0.0
C690 C 0.08627 0.39337 0.84668 0.0
C691 C 0.08086 0.37862 0.84755 0.0
C692 C 0.07897 0.39933 0.86555 0.0
C693 C 0.06611 0.39068 0.88588 0.0
C694 C 0.06076 0.37593 0.887 0.0
C695 C 0.06804 0.36996 0.86799 0.0
H696 H 0.057 0.6617 0.30987 0.0
H697 H 0.05644 0.69246 0.3914 0.0
H698 H 0.03711 0.64264 0.34609 0.0
H699 H 0.03677 0.67334 0.42833 0.0
H700 H 0.99254 0.63685 0.46047 0.0
H701 H 0.01191 0.65599 0.42273 0.0
H702 H 0.03185 0.63036 0.4095 0.0
H703 H 0.01229 0.61111 0.44624 0.0
C704 C 0.05266 0.6644 0.33561 0.0
C705 C 0.05832 0.6786 0.34775 0.0
C706 C 0.0413 0.65345 0.35656 0.0
C707 C 0.03536 0.65643 0.39026 0.0
C708 C 0.04097 0.67067 0.40222 0.0
C709 C 0.0523 0.68163 0.38117 0.0
C710 C 0.00105 0.6353 0.44946 0.0
C711 C 0.00086 0.62245 0.4563 0.0
C712 C 0.01221 0.64631 0.42802 0.0
C713 C 0.02345 0.64473 0.41303 0.0
C714 C 0.02325 0.63187 0.42003 0.0
C715 C 0.01208 0.62085 0.44133 0.0
H716 H 0.38843 0.42034 0.48046 0.0
H717 H 0.3948 0.38471 0.5018 0.0
H718 H 0.3663 0.40474 0.44523 0.0
H719 H 0.37248 0.36904 0.46796 0.0
H720 H 0.33736 0.34572 0.37771 0.0
H721 H 0.36062 0.36266 0.40481 0.0
H722 H 0.34274 0.38635 0.45956 0.0
H723 H 0.31962 0.3697 0.43119 0.0
C724 C 0.3851 0.40918 0.47764 0.0
C725 C 0.39336 0.40376 0.49399 0.0
C726 C 0.37236 0.40021 0.45766 0.0
C727 C 0.36753 0.38559 0.45383 0.0
C728 C 0.37594 0.38026 0.46971 0.0
C729 C 0.38872 0.38924 0.48938 0.0
C730 C 0.33843 0.35461 0.39528 0.0
C731 C 0.32663 0.35633 0.40243 0.0
C732 C 0.35175 0.36429 0.41105 0.0
C733 C 0.35358 0.37585 0.43467 0.0
C734 C 0.34181 0.3777 0.44109 0.0
C735 C 0.32851 0.36809 0.42502 0.0
H736 H 0.57638 0.955 0.49107 0.0
H737 H 0.6069 0.99768 0.45388 0.0
H738 H 0.59 0.94602 0.4562 0.0
H739 H 0.6203 0.98866 0.41776 0.0
H740 H 0.64928 0.96956 0.40052 0.0
H741 H 0.6353 0.97897 0.43102 0.0
H742 H 0.5967 0.94179 0.39155 0.0
H743 H 0.6107 0.93217 0.36226 0.0
C744 C 0.58592 0.96245 0.47503 0.0
C745 C 0.59058 0.97706 0.47539 0.0
C746 C 0.5937 0.95729 0.45478 0.0
C747 C 0.60628 0.9666 0.43411 0.0
C748 C 0.61079 0.9812 0.43388 0.0
C749 C 0.60306 0.98637 0.45439 0.0
C750 C 0.63781 0.96343 0.39816 0.0
C751 C 0.6311 0.95008 0.37915 0.0
C752 C 0.62978 0.96886 0.41546 0.0
C753 C 0.61484 0.96113 0.41392 0.0
C754 C 0.60817 0.94793 0.39399 0.0
C755 C 0.6162 0.94245 0.37695 0.0
H756 H 0.35469 0.1355 0.24084 0.0
H757 H 0.30976 0.11092 0.21496 0.0
H758 H 0.35107 0.15359 0.27349 0.0
H759 H 0.30621 0.12908 0.24681 0.0
H760 H 0.30203 0.16004 0.32718 0.0
H761 H 0.30671 0.14097 0.30944 0.0
H762 H 0.3454 0.17131 0.24927 0.0
H763 H 0.34088 0.19037 0.26762 0.0
C764 C 0.34402 0.13388 0.24248 0.0
C765 C 0.33253 0.12182 0.22496 0.0
C766 C 0.34197 0.14428 0.26099 0.0
C767 C 0.32838 0.14284 0.26248 0.0
C768 C 0.3168 0.13047 0.24658 0.0
C769 C 0.31885 0.12008 0.22805 0.0
C770 C 0.31163 0.16267 0.31063 0.0
C771 C 0.32101 0.17671 0.29849 0.0
C772 C 0.31427 0.15173 0.30031 0.0
C773 C 0.32637 0.15459 0.27768 0.0
C774 C 0.33606 0.16874 0.26707 0.0
C775 C 0.33341 0.17967 0.27737 0.0
H776 H 0.83531 0.14038 0.31452 0.0
H777 H 0.8074 0.1504 0.2472 0.0
H778 H 0.85527 0.16393 0.29966 0.0
H779 H 0.82738 0.17381 0.23184 0.0
H780 H 0.86426 0.21852 0.23006 0.0
H781 H 0.84496 0.19685 0.25944 0.0
H782 H 0.86886 0.17544 0.23888 0.0
H783 H 0.88821 0.1971 0.2102 0.0
C784 C 0.83339 0.14764 0.29686 0.0
C785 C 0.81977 0.14346 0.28174 0.0
C786 C 0.84485 0.16111 0.28821 0.0
C787 C 0.84294 0.17071 0.26434 0.0
C788 C 0.8292 0.16673 0.25065 0.0
C789 C 0.81775 0.15326 0.25924 0.0
C790 C 0.86549 0.20925 0.23236 0.0
C791 C 0.87773 0.20951 0.21744 0.0
C792 C 0.85439 0.19681 0.24899 0.0
C793 C 0.85532 0.18439 0.2512 0.0
C794 C 0.86784 0.18486 0.238 0.0
C795 C 0.87891 0.19727 0.22131 0.0
H796 H 0.86335 0.6902 0.30259 0.0
H797 H 0.84762 0.64966 0.24316 0.0
H798 H 0.8409 0.68936 0.28898 0.0
H799 H 0.82531 0.64896 0.22896 0.0
H800 H 0.78297 0.647 0.2297 0.0
H801 H 0.80379 0.64714 0.25778 0.0
H802 H 0.8295 0.69168 0.22851 0.0
H803 H 0.8087 0.69162 0.20116 0.0
C804 C 0.85507 0.68105 0.28693 0.0
C805 C 0.85734 0.67005 0.27365 0.0
C806 C 0.84223 0.68061 0.27897 0.0
C807 C 0.83135 0.66915 0.25763 0.0
C808 C 0.83341 0.65788 0.24583 0.0
C809 C 0.84625 0.65832 0.25374 0.0
C810 C 0.79302 0.65687 0.22979 0.0
C811 C 0.7942 0.66927 0.21286 0.0
C812 C 0.80497 0.65692 0.24568 0.0
C813 C 0.81833 0.66939 0.2451 0.0
C814 C 0.81935 0.68193 0.22981 0.0
C815 C 0.80743 0.68187 0.21388 0.0
H816 H 0.149 0.34807 0.26416 0.0
H817 H 0.12749 0.30417 0.30226 0.0
H818 H 0.1706 0.34702 0.25192 0.0
H819 H 0.14912 0.30321 0.29051 0.0
H820 H 0.18785 0.30315 0.23958 0.0
H821 H 0.16593 0.3042 0.23912 0.0
H822 H 0.1879 0.34543 0.29616 0.0
H823 H 0.20982 0.34448 0.29621 0.0
C824 C 0.14882 0.33815 0.26948 0.0
C825 C 0.13655 0.32623 0.28452 0.0
C826 C 0.16123 0.33758 0.2627 0.0
C827 C 0.16162 0.32508 0.2706 0.0
C828 C 0.14915 0.31298 0.28383 0.0
C829 C 0.13676 0.31355 0.29077 0.0
C830 C 0.18804 0.31249 0.25171 0.0
C831 C 0.20057 0.32369 0.26816 0.0
C832 C 0.17546 0.31306 0.25158 0.0
C833 C 0.17517 0.32488 0.26767 0.0
C834 C 0.1878 0.33625 0.28308 0.0
C835 C 0.20035 0.33565 0.28338 0.0
H836 H 0.68845 0.81394 0.29058 0.0
H837 H 0.64491 0.78404 0.25899 0.0
H838 H 0.68567 0.83329 0.26422 0.0
H839 H 0.64222 0.80342 0.23181 0.0
H840 H 0.63817 0.84367 0.2514 0.0
H841 H 0.64067 0.82291 0.26248 0.0
H842 H 0.68192 0.8443 0.20531 0.0
H843 H 0.67955 0.86523 0.19488 0.0
C844 C 0.67836 0.81145 0.27732 0.0
C845 C 0.66685 0.79746 0.27736 0.0
C846 C 0.67679 0.82255 0.26194 0.0
C847 C 0.66368 0.81992 0.24619 0.0
C848 C 0.65239 0.80582 0.24433 0.0
C849 C 0.65396 0.79471 0.25971 0.0
C850 C 0.64771 0.8439 0.24072 0.0
C851 C 0.65873 0.85618 0.22266 0.0
C852 C 0.6491 0.83194 0.24683 0.0
C853 C 0.66154 0.83196 0.23499 0.0
C854 C 0.67229 0.84402 0.2153 0.0
C855 C 0.6709 0.85599 0.20917 0.0
H856 H 0.13691 0.8182 0.20799 0.0
H857 H 0.16708 0.80382 0.22581 0.0
H858 H 0.15533 0.84243 0.22403 0.0
H859 H 0.1854 0.82797 0.24236 0.0
H860 H 0.21818 0.87462 0.24749 0.0
H861 H 0.20026 0.85232 0.21696 0.0
H862 H 0.1676 0.85418 0.28653 0.0
H863 H 0.1854 0.87647 0.31653 0.0
C864 C 0.14749 0.82022 0.21493 0.0
C865 C 0.15048 0.80905 0.21603 0.0
C866 C 0.15803 0.83409 0.22429 0.0
C867 C 0.1718 0.83711 0.23476 0.0
C868 C 0.17494 0.82604 0.23407 0.0
C869 C 0.1644 0.81216 0.22485 0.0
C870 C 0.20715 0.87037 0.25581 0.0
C871 C 0.20323 0.87726 0.28469 0.0
C872 C 0.1969 0.85756 0.23848 0.0
C873 C 0.18252 0.85144 0.24948 0.0
C874 C 0.17856 0.85867 0.27705 0.0
C875 C 0.18879 0.87142 0.29448 0.0
H876 H 0.65355 0.84641 0.98839 0.0
H877 H 0.69568 0.86925 0.93682 0.0
H878 H 0.65206 0.82395 0.97024 0.0
H879 H 0.69405 0.84686 0.91793 0.0
H880 H 0.6909 0.80438 0.90515 0.0
H881 H 0.69271 0.825 0.94009 0.0
H882 H 0.64939 0.81173 0.90697 0.0
H883 H 0.64748 0.79103 0.87293 0.0
C884 C 0.66256 0.84665 0.97357 0.0
C885 C 0.67467 0.85964 0.96367 0.0
C886 C 0.66166 0.83377 0.96299 0.0
C887 C 0.67287 0.8336 0.94228 0.0
C888 C 0.68527 0.84658 0.9342 0.0
C889 C 0.68617 0.85945 0.94481 0.0
C890 C 0.68169 0.80575 0.90588 0.0
C891 C 0.66909 0.79613 0.88588 0.0
C892 C 0.68276 0.81761 0.92573 0.0
C893 C 0.67124 0.8201 0.92604 0.0
C894 C 0.65843 0.81009 0.90772 0.0
C895 C 0.65736 0.79824 0.88792 0.0
H896 H 0.13804 0.83383 0.93076 0.0
H897 H 0.15491 0.80595 0.95382 0.0
H898 H 0.16162 0.85266 0.91119 0.0
H899 H 0.17855 0.82491 0.93475 0.0
H900 H 0.21123 0.85436 0.83865 0.0
H901 H 0.18948 0.83633 0.87055 0.0
H902 H 0.18594 0.86902 0.93477 0.0
H903 H 0.2077 0.88716 0.90235 0.0
C904 C 0.14681 0.83177 0.93219 0.0
C905 C 0.14455 0.81833 0.94345 0.0
C906 C 0.16035 0.84261 0.92123 0.0
C907 C 0.17195 0.84026 0.9212 0.0
C908 C 0.16979 0.82699 0.93394 0.0
C909 C 0.15625 0.81615 0.94503 0.0
C910 C 0.20592 0.85772 0.85991 0.0
C911 C 0.21115 0.87221 0.86769 0.0
C912 C 0.19349 0.84736 0.87842 0.0
C913 C 0.18594 0.85124 0.90509 0.0
C914 C 0.19143 0.86571 0.914 0.0
C915 C 0.20393 0.87609 0.8956 0.0
H916 H 0.1932 0.32044 0.82905 0.0
H917 H 0.17184 0.30975 0.94452 0.0
H918 H 0.17419 0.32354 0.80089 0.0
H919 H 0.15273 0.31254 0.91616 0.0
H920 H 0.12911 0.33387 0.86341 0.0
H921 H 0.14821 0.33092 0.8916 0.0
H922 H 0.14933 0.3098 0.78231 0.0
H923 H 0.13049 0.31301 0.75383 0.0
C924 C 0.18441 0.31867 0.84836 0.0
C925 C 0.18405 0.31487 0.88903 0.0
C926 C 0.17348 0.32038 0.83217 0.0
C927 C 0.16194 0.3183 0.8563 0.0
C928 C 0.16156 0.31443 0.89691 0.0
C929 C 0.17248 0.31274 0.91309 0.0
C930 C 0.13342 0.32858 0.84544 0.0
C931 C 0.12829 0.32369 0.80636 0.0
C932 C 0.14433 0.32683 0.86166 0.0
C933 C 0.15032 0.32014 0.83918 0.0
C934 C 0.14511 0.31519 0.8002 0.0
C935 C 0.13423 0.31695 0.78398 0.0
H936 H 0.78921 0.6606 0.59767 0.0
H937 H 0.81994 0.69359 0.6754 0.0
H938 H 0.80789 0.65675 0.57042 0.0
H939 H 0.83845 0.6895 0.64908 0.0
H940 H 0.87144 0.68545 0.5787 0.0
H941 H 0.85284 0.69124 0.59197 0.0
H942 H 0.82163 0.6465 0.59493 0.0
H943 H 0.84012 0.64074 0.58059 0.0
C944 C 0.79996 0.6671 0.60872 0.0
C945 C 0.80306 0.67732 0.63895 0.0
C946 C 0.81065 0.66484 0.59327 0.0
C947 C 0.82466 0.67274 0.60774 0.0
C948 C 0.82783 0.68333 0.63684 0.0
C949 C 0.81717 0.68561 0.65218 0.0
C950 C 0.86059 0.67686 0.58171 0.0
C951 C 0.85729 0.66263 0.57894 0.0
C952 C 0.84993 0.68018 0.58952 0.0
C953 C 0.83575 0.66934 0.59485 0.0
C954 C 0.8324 0.65513 0.59054 0.0
C955 C 0.84304 0.65181 0.58259 0.0
H956 H 0.31179 0.11576 0.62081 0.0
H957 H 0.35686 0.1427 0.64115 0.0
H958 H 0.31037 0.13629 0.5973 0.0
H959 H 0.35537 0.16319 0.61838 0.0
H960 H 0.35036 0.19665 0.55234 0.0
H961 H 0.35096 0.17469 0.56148 0.0
H962 H 0.31209 0.15713 0.63053 0.0
H963 H 0.31134 0.17894 0.62087 0.0
C964 C 0.32142 0.12602 0.61985 0.0
C965 C 0.33442 0.12761 0.63322 0.0
C966 C 0.32059 0.13779 0.6066 0.0
C967 C 0.33273 0.1514 0.6063 0.0
C968 C 0.34584 0.15285 0.61787 0.0
C969 C 0.34667 0.1411 0.63117 0.0
C970 C 0.34185 0.18805 0.56908 0.0
C971 C 0.33086 0.1896 0.58615 0.0
C972 C 0.34224 0.17548 0.57446 0.0
C973 C 0.33162 0.16418 0.5969 0.0
C974 C 0.32036 0.16556 0.61269 0.0
C975 C 0.31998 0.17811 0.60739 0.0
H976 H 0.80722 0.1631 0.57785 0.0
H977 H 0.82009 0.13152 0.58896 0.0
H978 H 0.83146 0.18176 0.59138 0.0
H979 H 0.84448 0.15027 0.60138 0.0
H980 H 0.87923 0.18505 0.68184 0.0
H981 H 0.8568 0.16603 0.65633 0.0
H982 H 0.85565 0.19467 0.568 0.0
H983 H 0.87801 0.21389 0.59441 0.0
C984 C 0.81527 0.16015 0.58252 0.0
C985 C 0.81168 0.14581 0.58278 0.0
C986 C 0.82922 0.17088 0.59 0.0
C987 C 0.83992 0.16752 0.59771 0.0
C988 C 0.83644 0.15321 0.59624 0.0
C989 C 0.82247 0.14246 0.58894 0.0
C990 C 0.8743 0.18728 0.65668 0.0
C991 C 0.88034 0.20104 0.64045 0.0
C992 C 0.86145 0.17632 0.64182 0.0
C993 C 0.85435 0.17882 0.61022 0.0
C994 C 0.86072 0.19244 0.5928 0.0
C995 C 0.87357 0.20344 0.60778 0.0
H996 H 0.97354 0.5066 0.57833 0.0
H997 H 0.01784 0.53891 0.58585 0.0
H998 H 0.98029 0.48888 0.56315 0.0
H999 H 0.02461 0.52107 0.57172 0.0
H1000 H 0.0294 0.48999 0.48659 0.0
H1001 H 0.02414 0.50763 0.51357 0.0
H1002 H 0.99091 0.47546 0.58768 0.0
H1003 H 0.99595 0.45765 0.55976 0.0
C1004 C 0.98473 0.50989 0.57737 0.0
C1005 C 0.99515 0.52421 0.58287 0.0
C1006 C 0.9886 0.49969 0.56894 0.0
C1007 C 0.003 0.50355 0.56598 0.0
C1008 C 0.01342 0.51778 0.57311 0.0
C1009 C 0.00954 0.528 0.58141 0.0
C1010 C 0.02107 0.48668 0.50896 0.0
C1011 C 0.01301 0.47238 0.52071 0.0
C1012 C 0.01811 0.49684 0.52468 0.0
C1013 C 0.00705 0.49297 0.55268 0.0
C1014 C 0.99936 0.47876 0.56568 0.0
C1015 C 0.0023 0.46857 0.54986 0.0
H1016 H 0.46338 0.48534 0.49499 0.0
H1017 H 0.48649 0.48267 0.59754 0.0
H1018 H 0.4855 0.50434 0.4668 0.0
H1019 H 0.50858 0.50145 0.569 0.0
H1020 H 0.54237 0.54611 0.52819 0.0
H1021 H 0.52031 0.5269 0.55605 0.0
H1022 H 0.50774 0.50839 0.43724 0.0
H1023 H 0.52962 0.52769 0.40928 0.0
C1024 C 0.47318 0.48873 0.51137 0.0
C1025 C 0.47316 0.48251 0.54855 0.0
C1026 C 0.48587 0.49958 0.49514 0.0
C1027 C 0.4988 0.50444 0.51573 0.0
C1028 C 0.49878 0.49811 0.55269 0.0
C1029 C 0.48611 0.48727 0.5689 0.0
C1030 C 0.5349 0.53793 0.50804 0.0
C1031 C 0.53775 0.53845 0.46652 0.0
C1032 C 0.5223 0.52689 0.52403 0.0
C1033 C 0.51226 0.51612 0.49884 0.0
C1034 C 0.51515 0.51662 0.45736 0.0
C1035 C 0.52775 0.52765 0.4414 0.0
H1036 H 0.44824 0.98724 0.52058 0.0
H1037 H 0.46872 0.99658 0.40386 0.0
H1038 H 0.46717 0.98389 0.54822 0.0
H1039 H 0.48773 0.99352 0.43165 0.0
H1040 H 0.51122 0.97215 0.48486 0.0
H1041 H 0.49201 0.97505 0.45728 0.0
H1042 H 0.49228 0.99761 0.56497 0.0
H1043 H 0.51123 0.99448 0.59285 0.0
C1044 C 0.4568 0.98864 0.50087 0.0
C1045 C 0.45696 0.99217 0.46003 0.0
C1046 C 0.46769 0.98679 0.51675 0.0
C1047 C 0.47896 0.98843 0.49212 0.0
C1048 C 0.47911 0.99198 0.4513 0.0
C1049 C 0.46824 0.99382 0.43545 0.0
C1050 C 0.50718 0.97774 0.50262 0.0
C1051 C 0.51275 0.98307 0.54106 0.0
C1052 C 0.49621 0.97946 0.48675 0.0
C1053 C 0.49059 0.98655 0.50896 0.0
C1054 C 0.49621 0.99192 0.54733 0.0
C1055 C 0.50716 0.99019 0.56319 0.0
H1056 H 0.53536 0.01587 0.94342 0.0
H1057 H 0.5109 0.97443 0.88859 0.0
H1058 H 0.51432 0.01835 0.94478 0.0
H1059 H 0.48984 0.97703 0.88943 0.0
H1060 H 0.45343 0.97973 0.95638 0.0
H1061 H 0.47405 0.97725 0.94186 0.0
H1062 H 0.49728 0.02099 0.90279 0.0
H1063 H 0.47671 0.02356 0.91794 0.0
C1064 C 0.52553 0.00735 0.93121 0.0
C1065 C 0.52479 0.9949 0.9162 0.0
C1066 C 0.51348 0.00882 0.93171 0.0
C1067 C 0.50039 0.99787 0.91727 0.0
C1068 C 0.49974 0.98558 0.90118 0.0
C1069 C 0.51182 0.98413 0.90056 0.0
C1070 C 0.46286 0.98877 0.94417 0.0
C1071 C 0.46347 0.00189 0.93875 0.0
C1072 C 0.47467 0.98732 0.93563 0.0
C1073 C 0.48735 0.99896 0.9215 0.0
C1074 C 0.48773 0.01189 0.91425 0.0
C1075 C 0.47591 0.01333 0.92271 0.0
H1076 H 0.97598 0.51339 0.90347 0.0
H1077 H 0.02117 0.52911 0.90756 0.0
H1078 H 0.97145 0.48936 0.91599 0.0
H1079 H 0.01665 0.50522 0.92113 0.0
H1080 H 0.00505 0.45935 0.92234 0.0
H1081 H 0.00775 0.4815 0.89562 0.0
H1082 H 0.97369 0.47696 0.97295 0.0
H1083 H 0.97076 0.45475 0.99873 0.0
C1084 C 0.98494 0.51171 0.90679 0.0
C1085 C 0.99893 0.52319 0.90487 0.0
C1086 C 0.98235 0.49795 0.91416 0.0
C1087 C 0.99368 0.49536 0.91988 0.0
C1088 C 0.00767 0.50678 0.91641 0.0
C1089 C 0.01026 0.52052 0.90891 0.0
C1090 C 0.99802 0.463 0.9332 0.0
C1091 C 0.98777 0.45534 0.96291 0.0
C1092 C 0.99961 0.47573 0.91806 0.0
C1093 C 0.99101 0.48108 0.93234 0.0
C1094 C 0.98039 0.4731 0.96088 0.0
C1095 C 0.97878 0.46038 0.97591 0.0
H1096 H 0.46065 0.49105 0.90004 0.0
H1097 H 0.47817 0.46784 0.95944 0.0
H1098 H 0.48423 0.51221 0.89844 0.0
H1099 H 0.50162 0.48899 0.95825 0.0
H1100 H 0.54415 0.52624 0.92616 0.0
H1101 H 0.52098 0.50534 0.91369 0.0
H1102 H 0.50047 0.52894 0.94924 0.0
H1103 H 0.52359 0.54988 0.96117 0.0
C1104 C 0.46953 0.49042 0.9125 0.0
C1105 C 0.46751 0.47778 0.93013 0.0
C1106 C 0.48302 0.50256 0.91171 0.0
C1107 C 0.49479 0.50229 0.9283 0.0
C1108 C 0.49282 0.48952 0.94477 0.0
C1109 C 0.47934 0.47741 0.94573 0.0
C1110 C 0.53471 0.52704 0.93072 0.0
C1111 C 0.53572 0.53969 0.94504 0.0
C1112 C 0.52144 0.51504 0.9238 0.0
C1113 C 0.50889 0.51544 0.93086 0.0
C1114 C 0.50993 0.5283 0.94322 0.0
C1115 C 0.52319 0.54029 0.95027 0.0
H1116 H 0.32262 0.06096 0.02702 0.0
H1117 H 0.36249 0.10047 0.01884 0.0
H1118 H 0.32208 0.05872 0.95375 0.0
H1119 H 0.36178 0.09835 0.94567 0.0
H1120 H 0.36115 0.087 0.81464 0.0
H1121 H 0.36277 0.08511 0.8876 0.0
H1122 H 0.31809 0.07116 0.89895 0.0
H1123 H 0.31638 0.07278 0.82622 0.0
C1124 C 0.33134 0.0691 0.00967 0.0
C1125 C 0.34253 0.08097 0.02881 0.0
C1126 C 0.33099 0.06784 0.96765 0.0
C1127 C 0.34181 0.07842 0.94383 0.0
C1128 C 0.35333 0.08994 0.9631 0.0
C1129 C 0.35369 0.0912 0.00511 0.0
C1130 C 0.35163 0.08336 0.83266 0.0
C1131 C 0.33866 0.08015 0.81459 0.0
C1132 C 0.35259 0.08234 0.87448 0.0
C1133 C 0.34058 0.07806 0.89913 0.0
C1134 C 0.32751 0.07433 0.88085 0.0
C1135 C 0.32655 0.07536 0.83911 0.0
H1136 H 0.91263 0.27542 0.81243 0.0
H1137 H 0.92925 0.24669 0.81666 0.0
H1138 H 0.91483 0.27805 0.88553 0.0
H1139 H 0.93107 0.24901 0.88972 0.0
H1140 H 0.94046 0.26147 0.01986 0.0
H1141 H 0.94259 0.26414 0.94674 0.0
H1142 H 0.90238 0.26316 0.94201 0.0
H1143 H 0.90043 0.26089 0.01501 0.0
C1144 C 0.91685 0.26975 0.8289 0.0
C1145 C 0.92065 0.26074 0.80873 0.0
C1146 C 0.91804 0.2712 0.87084 0.0
C1147 C 0.92299 0.26363 0.89358 0.0
C1148 C 0.92736 0.25512 0.87318 0.0
C1149 C 0.92624 0.25372 0.83123 0.0
C1150 C 0.93216 0.26202 0.00326 0.0
C1151 C 0.92022 0.26085 0.02328 0.0
C1152 C 0.93336 0.26347 0.96131 0.0
C1153 C 0.92261 0.26375 0.93843 0.0
C1154 C 0.91094 0.26315 0.95866 0.0
C1155 C 0.90978 0.26176 0.00059 0.0
H1156 H 0.75923 0.6848 0.81642 0.0
H1157 H 0.72531 0.64104 0.81433 0.0
H1158 H 0.75693 0.68532 0.88927 0.0
H1159 H 0.72279 0.64168 0.88729 0.0
H1160 H 0.7454 0.68535 0.01891 0.0
H1161 H 0.74251 0.6845 0.94582 0.0
H1162 H 0.73694 0.64226 0.94419 0.0
H1163 H 0.73947 0.64296 0.01716 0.0
C1164 C 0.75109 0.67536 0.83138 0.0
C1165 C 0.74257 0.66283 0.80955 0.0
C1166 C 0.74971 0.67569 0.87322 0.0
C1167 C 0.73974 0.6635 0.89421 0.0
C1168 C 0.73073 0.65118 0.87212 0.0
C1169 C 0.73213 0.65084 0.83025 0.0
C1170 C 0.74335 0.6758 0.00302 0.0
C1171 C 0.7428 0.66427 0.02387 0.0
C1172 C 0.74177 0.67535 0.96109 0.0
C1173 C 0.73961 0.66336 0.93908 0.0
C1174 C 0.73843 0.6516 0.96018 0.0
C1175 C 0.73998 0.65204 0.00208 0.0
H1176 H 0.1063 0.35898 0.44679 0.0
H1177 H 0.06576 0.32003 0.44556 0.0
H1178 H 0.10367 0.36152 0.51863 0.0
H1179 H 0.06296 0.32279 0.51742 0.0
H1180 H 0.07647 0.32136 0.6498 0.0
H1181 H 0.0742 0.32021 0.57684 0.0
H1182 H 0.09112 0.3656 0.57235 0.0
H1183 H 0.09375 0.36682 0.64558 0.0
C1184 C 0.09669 0.3511 0.46166 0.0
C1185 C 0.08634 0.33919 0.44051 0.0
C1186 C 0.09512 0.35262 0.50288 0.0
C1187 C 0.08315 0.3423 0.5239 0.0
C1188 C 0.07243 0.33081 0.50226 0.0
C1189 C 0.07401 0.32926 0.46103 0.0
C1190 C 0.0795 0.33108 0.6334 0.0
C1191 C 0.08548 0.34421 0.65352 0.0
C1192 C 0.07811 0.33041 0.59147 0.0
C1193 C 0.0826 0.34284 0.56866 0.0
C1194 C 0.08779 0.35586 0.58899 0.0
C1195 C 0.08922 0.35655 0.63099 0.0
H1196 H 0.69042 0.76894 0.67586 0.0
H1197 H 0.64743 0.73353 0.67957 0.0
H1198 H 0.69044 0.76709 0.60272 0.0
H1199 H 0.6476 0.73143 0.60638 0.0
H1200 H 0.64693 0.7465 0.47635 0.0
H1201 H 0.64696 0.74482 0.54949 0.0
H1202 H 0.69019 0.75309 0.54608 0.0
H1203 H 0.69029 0.75515 0.47281 0.0
C1204 C 0.68104 0.76062 0.66114 0.0
C1205 C 0.66887 0.75147 0.68358 0.0
C1206 C 0.68109 0.75949 0.61915 0.0
C1207 C 0.66899 0.74916 0.5986 0.0
C1208 C 0.65701 0.73967 0.6212 0.0
C1209 C 0.65694 0.74082 0.66319 0.0
C1210 C 0.6564 0.74781 0.4911 0.0
C1211 C 0.66865 0.75109 0.46871 0.0
C1212 C 0.65639 0.74676 0.53311 0.0
C1213 C 0.66861 0.7489 0.55373 0.0
C1214 C 0.68068 0.75162 0.53119 0.0
C1215 C 0.68071 0.75272 0.48916 0.0
H1216 H 0.25227 0.93467 0.68732 0.0
H1217 H 0.26048 0.90051 0.66065 0.0
H1218 H 0.25203 0.93914 0.61534 0.0
H1219 H 0.25977 0.90465 0.58887 0.0
H1220 H 0.26618 0.92001 0.46103 0.0
H1221 H 0.27095 0.92008 0.53292 0.0
H1222 H 0.23641 0.9277 0.55996 0.0
H1223 H 0.23197 0.9281 0.48827 0.0
C1224 C 0.25409 0.92816 0.66612 0.0
C1225 C 0.25629 0.91716 0.67975 0.0
C1226 C 0.25388 0.93067 0.62483 0.0
C1227 C 0.25576 0.92219 0.59621 0.0
C1228 C 0.25846 0.91152 0.60996 0.0
C1229 C 0.25878 0.90908 0.65121 0.0
C1230 C 0.25972 0.92187 0.48233 0.0
C1231 C 0.24863 0.92395 0.46889 0.0
C1232 C 0.2624 0.92183 0.52357 0.0
C1233 C 0.25399 0.92377 0.55233 0.0
C1234 C 0.24323 0.92635 0.53875 0.0
C1235 C 0.24061 0.92648 0.49755 0.0
H1236 H 0.67891 0.94169 0.20287 0.0
H1237 H 0.6398 0.90176 0.19018 0.0
H1238 H 0.6832 0.94183 0.13012 0.0
H1239 H 0.64394 0.9021 0.11728 0.0
H1240 H 0.65161 0.92478 0.98622 0.0
H1241 H 0.64705 0.92265 0.05912 0.0
H1242 H 0.68615 0.92245 0.07929 0.0
H1243 H 0.69057 0.92424 0.00636 0.0
C1244 C 0.67126 0.93296 0.18449 0.0
C1245 C 0.65911 0.92164 0.20202 0.0
C1246 C 0.67374 0.93301 0.14308 0.0
C1247 C 0.66391 0.92195 0.11845 0.0
C1248 C 0.65167 0.91071 0.13585 0.0
C1249 C 0.64937 0.91048 0.17743 0.0
C1250 C 0.65913 0.92412 0.00625 0.0
C1251 C 0.67136 0.92452 0.99078 0.0
C1252 C 0.6565 0.92286 0.04777 0.0
C1253 C 0.66626 0.92237 0.07449 0.0
C1254 C 0.67849 0.92278 0.0591 0.0
C1255 C 0.68094 0.92369 0.0175 0.0
H1256 H 0.08794 0.78036 0.01219 0.0
H1257 H 0.05694 0.73645 0.98889 0.0
H1258 H 0.0954 0.77335 0.07321 0.0
H1259 H 0.06411 0.72951 0.05049 0.0
H1260 H 0.06955 0.72487 0.18547 0.0
H1261 H 0.06286 0.73261 0.12439 0.0
H1262 H 0.10715 0.75929 0.09391 0.0
H1263 H 0.11384 0.75127 0.15445 0.0
C1264 C 0.08296 0.7692 0.01942 0.0
C1265 C 0.07211 0.75894 0.99499 0.0
C1266 C 0.08712 0.7652 0.0547 0.0
C1267 C 0.08035 0.75088 0.06661 0.0
C1268 C 0.06944 0.74064 0.04232 0.0
C1269 C 0.06537 0.74462 0.00695 0.0
C1270 C 0.07787 0.73242 0.1658 0.0
C1271 C 0.09224 0.73771 0.17534 0.0
C1272 C 0.07403 0.73682 0.13078 0.0
C1273 C 0.08449 0.74659 0.10444 0.0
C1274 C 0.09887 0.75195 0.11404 0.0
C1275 C 0.10271 0.74747 0.14899 0.0
H1276 H 0.24329 0.31481 0.2467 0.0
H1277 H 0.28804 0.33674 0.21836 0.0
H1278 H 0.23766 0.31436 0.17552 0.0
H1279 H 0.28242 0.33558 0.14659 0.0
H1280 H 0.26685 0.34462 0.02676 0.0
H1281 H 0.2732 0.34548 0.09766 0.0
H1282 H 0.23808 0.30282 0.11416 0.0
H1283 H 0.23152 0.30208 0.04366 0.0
C1284 C 0.25194 0.3198 0.22533 0.0
C1285 C 0.26612 0.32624 0.23823 0.0
C1286 C 0.24871 0.31924 0.18436 0.0
C1287 C 0.2596 0.32496 0.15528 0.0
C1288 C 0.2738 0.33127 0.16822 0.0
C1289 C 0.27702 0.33186 0.20927 0.0
C1290 C 0.26053 0.33539 0.04546 0.0
C1291 C 0.24863 0.32331 0.02957 0.0
C1292 C 0.26421 0.33587 0.08609 0.0
C1293 C 0.25609 0.32426 0.11169 0.0
C1294 C 0.2444 0.31205 0.09549 0.0
C1295 C 0.2407 0.3116 0.05496 0.0
H1296 H 0.90448 0.65219 0.30374 0.0
H1297 H 0.94389 0.69001 0.33382 0.0
H1298 H 0.90049 0.64569 0.37535 0.0
H1299 H 0.93981 0.68361 0.40535 0.0
H1300 H 0.9193 0.67319 0.53254 0.0
H1301 H 0.92064 0.67976 0.46129 0.0
H1302 H 0.91522 0.63906 0.42657 0.0
H1303 H 0.91403 0.63255 0.49783 0.0
C1304 C 0.91212 0.65924 0.32575 0.0
C1305 C 0.92442 0.67166 0.31342 0.0
C1306 C 0.9099 0.65547 0.36656 0.0
C1307 C 0.91982 0.66419 0.39571 0.0
C1308 C 0.93194 0.67678 0.38345 0.0
C1309 C 0.9343 0.6804 0.34262 0.0
C1310 C 0.91813 0.66557 0.50965 0.0
C1311 C 0.91642 0.65232 0.52054 0.0
C1312 C 0.91902 0.66936 0.46901 0.0
C1313 C 0.91797 0.65988 0.43861 0.0
C1314 C 0.91591 0.6465 0.4495 0.0
C1315 C 0.91531 0.64281 0.49014 0.0
H1316 H 0.3404 0.27419 0.53291 0.0
H1317 H 0.30903 0.23062 0.55827 0.0
H1318 H 0.33651 0.26949 0.4608 0.0
H1319 H 0.30488 0.22589 0.48611 0.0
H1320 H 0.30839 0.21933 0.3517 0.0
H1321 H 0.31452 0.22361 0.42307 0.0
H1322 H 0.31863 0.26514 0.41263 0.0
H1323 H 0.31339 0.26118 0.34105 0.0
C1324 C 0.3327 0.26358 0.52298 0.0
C1325 C 0.32516 0.25272 0.55114 0.0
C1326 C 0.3304 0.26089 0.48168 0.0
C1327 C 0.32033 0.24731 0.46755 0.0
C1328 C 0.3129 0.2364 0.49583 0.0
C1329 C 0.3153 0.23908 0.53722 0.0
C1330 C 0.31105 0.22953 0.36432 0.0
C1331 C 0.31078 0.24005 0.34037 0.0
C1332 C 0.31428 0.23189 0.40549 0.0
C1333 C 0.31719 0.24478 0.42364 0.0
C1334 C 0.31677 0.25522 0.39962 0.0
C1335 C 0.31362 0.25288 0.35857 0.0
H1336 H 0.75951 0.05594 0.35506 0.0
H1337 H 0.75753 0.09221 0.31046 0.0
H1338 H 0.75536 0.06134 0.42367 0.0
H1339 H 0.75339 0.09763 0.37917 0.0
H1340 H 0.72585 0.08715 0.49787 0.0
H1341 H 0.73254 0.08441 0.42928 0.0
H1342 H 0.7677 0.08104 0.47691 0.0
H1343 H 0.76098 0.08373 0.5454 0.0
C1344 C 0.75835 0.06516 0.36006 0.0
C1345 C 0.75904 0.07378 0.32761 0.0
C1346 C 0.75605 0.06829 0.39927 0.0
C1347 C 0.7541 0.07993 0.40666 0.0
C1348 C 0.75486 0.0886 0.37424 0.0
C1349 C 0.7574 0.0856 0.33506 0.0
C1350 C 0.73508 0.08597 0.49355 0.0
C1351 C 0.74303 0.08587 0.52679 0.0
C1352 C 0.73895 0.08449 0.45438 0.0
C1353 C 0.75067 0.08258 0.44787 0.0
C1354 C 0.75863 0.08252 0.48114 0.0
C1355 C 0.75489 0.08421 0.52024 0.0
H1356 H 0.02685 0.4173 0.14021 0.0
H1357 H 0.98266 0.40603 0.14068 0.0
H1358 H 0.02619 0.41479 0.21342 0.0
H1359 H 0.98212 0.40388 0.21371 0.0
H1360 H 0.98218 0.39392 0.34435 0.0
H1361 H 0.98333 0.39113 0.27168 0.0
H1362 H 0.02503 0.42859 0.26889 0.0
H1363 H 0.02403 0.43117 0.3415 0.0
C1364 C 0.01695 0.41414 0.15584 0.0
C1365 C 0.00485 0.41201 0.13459 0.0
C1366 C 0.0166 0.41278 0.19784 0.0
C1367 C 0.00415 0.40927 0.21951 0.0
C1368 C 0.99186 0.40645 0.19802 0.0
C1369 C 0.99219 0.40778 0.15606 0.0
C1370 C 0.99168 0.40144 0.32832 0.0
C1371 C 0.00295 0.41286 0.3487 0.0
C1372 C 0.99231 0.39988 0.28662 0.0
C1373 C 0.00421 0.40971 0.26437 0.0
C1374 C 0.01576 0.42073 0.28509 0.0
C1375 C 0.01515 0.42226 0.32677 0.0
H1376 H 0.5971 0.56743 0.11228 0.0
H1377 H 0.59828 0.60777 0.11052 0.0
H1378 H 0.60116 0.56967 0.18465 0.0
H1379 H 0.60278 0.61021 0.18296 0.0
H1380 H 0.5858 0.59598 0.31337 0.0
H1381 H 0.58818 0.59874 0.24063 0.0
H1382 H 0.6166 0.58172 0.24054 0.0
H1383 H 0.61389 0.57856 0.31349 0.0
C1384 C 0.59854 0.57694 0.12717 0.0
C1385 C 0.59715 0.58732 0.10569 0.0
C1386 C 0.60097 0.57828 0.16874 0.0
C1387 C 0.60216 0.59007 0.18975 0.0
C1388 C 0.60164 0.60087 0.16782 0.0
C1389 C 0.59913 0.5995 0.12625 0.0
C1390 C 0.59275 0.59303 0.298 0.0
C1391 C 0.59949 0.58686 0.31921 0.0
C1392 C 0.5942 0.59471 0.25619 0.0
C1393 C 0.60248 0.59033 0.23461 0.0
C1394 C 0.60993 0.58496 0.25616 0.0
C1395 C 0.60843 0.58322 0.298 0.0
H1396 H 0.42175 0.034 0.3152 0.0
H1397 H 0.40239 0.98843 0.30376 0.0
H1398 H 0.42019 0.03596 0.24223 0.0
H1399 H 0.40116 0.99042 0.23113 0.0
H1400 H 0.39417 0.9959 0.10217 0.0
H1401 H 0.3909 0.99613 0.17488 0.0
H1402 H 0.43263 0.03325 0.18543 0.0
H1403 H 0.43575 0.03326 0.11279 0.0
C1404 C 0.41702 0.02439 0.29722 0.0
C1405 C 0.41233 0.01107 0.31529 0.0
C1406 C 0.41619 0.02552 0.25539 0.0
C1407 C 0.41065 0.01336 0.23078 0.0
C1408 C 0.40533 -0.0 0.24914 0.0
C1409 C 0.40614 0.99886 0.29087 0.0
C1410 C 0.40255 0.00426 0.11992 0.0
C1411 C 0.4153 0.01446 0.10171 0.0
C1412 C 0.4007 0.00435 0.16163 0.0
C1413 C 0.41157 0.0146 0.18607 0.0
C1414 C 0.42397 0.02527 0.16754 0.0
C1415 C 0.4258 0.02522 0.12582 0.0
H1416 H 0.59041 0.00565 0.67722 0.0
H1417 H 0.55473 0.96368 0.69913 0.0
H1418 H 0.59668 0.0078 0.74861 0.0
H1419 H 0.56116 0.96576 0.77012 0.0
H1420 H 0.56566 0.98132 0.89964 0.0
H1421 H 0.56056 0.97931 0.8277 0.0
H1422 H 0.60537 0.99822 0.80171 0.0
H1423 H 0.6105 0.0008 0.87411 0.0
C1424 C 0.58401 0.99682 0.69712 0.0
C1425 C 0.57201 0.98454 0.68249 0.0
C1426 C 0.58763 0.99804 0.738 0.0
C1427 C 0.57933 0.98701 0.76509 0.0
C1428 C 0.56761 0.97456 0.75018 0.0
C1429 C 0.56399 0.97334 0.70939 0.0
C1430 C 0.57445 0.98541 0.87863 0.0
C1431 C 0.5885 0.9916 0.89246 0.0
C1432 C 0.57151 0.98398 0.83735 0.0
C1433 C 0.58257 0.98861 0.80895 0.0
C1434 C 0.59664 0.99471 0.82282 0.0
C1435 C 0.59957 0.99612 0.8642 0.0
H1436 H 0.98463 0.57265 0.86298 0.0
H1437 H 0.02339 0.61059 0.82923 0.0
H1438 H 0.97751 0.56824 0.79193 0.0
H1439 H 0.01631 0.60615 0.75824 0.0
H1440 H 0.00423 0.5852 0.63251 0.0
H1441 H 0.01131 0.58692 0.70333 0.0
H1442 H 0.97115 0.58241 0.74009 0.0
H1443 H 0.96409 0.58075 0.66925 0.0
C1444 C 0.99174 0.57987 0.84029 0.0
C1445 C 0.00463 0.59186 0.85143 0.0
C1446 C 0.98761 0.57743 0.79977 0.0
C1447 C 0.9964 0.58683 0.76971 0.0
C1448 C 0.00942 0.59866 0.78082 0.0
C1449 C 0.01342 0.60123 0.82136 0.0
C1450 C 0.99682 0.58428 0.65576 0.0
C1451 C 0.98355 0.58267 0.64553 0.0
C1452 C 0.00092 0.58541 0.69618 0.0
C1453 C 0.99175 0.58475 0.72706 0.0
C1454 C 0.97835 0.58281 0.71684 0.0
C1455 C 0.97435 0.58194 0.6764 0.0
H1456 H 0.3905 0.39143 0.8918 0.0
H1457 H 0.41374 0.43655 0.91493 0.0
H1458 H 0.39448 0.39601 0.81934 0.0
H1459 H 0.41823 0.44113 0.84296 0.0
H1460 H 0.41059 0.44493 0.71023 0.0
H1461 H 0.40509 0.43931 0.78141 0.0
H1462 H 0.41412 0.40501 0.77024 0.0
H1463 H 0.41942 0.41048 0.69879 0.0
C1464 C 0.39659 0.40231 0.88138 0.0
C1465 C 0.40214 0.41362 0.90902 0.0
C1466 C 0.39893 0.40493 0.83998 0.0
C1467 C 0.40673 0.41893 0.82543 0.0
C1468 C 0.41213 0.43023 0.85317 0.0
C1469 C 0.40981 0.4276 0.8945 0.0
C1470 C 0.41131 0.43612 0.72282 0.0
C1471 C 0.4155 0.42819 0.69881 0.0
C1472 C 0.40824 0.43297 0.76371 0.0
C1473 C 0.40928 0.42179 0.78153 0.0
C1474 C 0.41312 0.41362 0.75732 0.0
C1475 C 0.41622 0.4168 0.71641 0.0
loop_
_geom_bond_atom_site_label_1
_geom_bond_atom_site_label_2
_geom_bond_distance
_geom_bond_site_symmetry_2
_ccdc_geom_bond_type
O0 Cd1 2.300 . S
O0 C7 1.275 . S
Cd1 O0 2.300 . S
Cd1 O9 2.381 . S
Cd1 O10 2.378 . S
O2 Cd3 2.385 . S
O2 C7 1.255 . S
Cd3 O2 2.385 . S
Cd3 O4 2.317 . S
O4 Cd3 2.317 . S
O4 C5 1.232 . S
C5 O4 1.232 . S
C5 O6 1.218 . S
O6 C5 1.218 . S
C7 O0 1.275 . S
C7 O2 1.255 . S
C8 O9 1.258 . S
C8 O10 1.256 . S
O9 Cd1 2.381 . S
O9 C8 1.258 . S
O10 Cd1 2.378 . S
O10 C8 1.256 . S
O11 Cd12 2.300 . S
O11 C18 1.275 . S
Cd12 O11 2.300 . S
Cd12 O20 2.381 . S
Cd12 O21 2.378 . S
O13 Cd14 2.385 . S
O13 C18 1.255 . S
Cd14 O13 2.385 . S
Cd14 O15 2.317 . S
O15 Cd14 2.317 . S
O15 C16 1.232 . S
C16 O15 1.232 . S
C16 O17 1.218 . S
O17 C16 1.218 . S
C18 O11 1.275 . S
C18 O13 1.255 . S
C19 O20 1.258 . S
C19 O21 1.256 . S
O20 Cd12 2.381 . S
O20 C19 1.258 . S
O21 Cd12 2.378 . S
O21 C19 1.256 . S
O22 Cd23 2.300 . S
O22 C29 1.275 . S
Cd23 O22 2.300 . S
Cd23 O31 2.381 . S
Cd23 O32 2.378 . S
O24 Cd25 2.385 . S
O24 C29 1.255 . S
Cd25 O24 2.385 . S
Cd25 O26 2.317 . S
O26 Cd25 2.317 . S
O26 C27 1.232 . S
C27 O26 1.232 . S
C27 O28 1.218 . S
O28 C27 1.218 . S
C29 O22 1.275 . S
C29 O24 1.255 . S
C30 O31 1.258 . S
C30 O32 1.256 . S
O31 Cd23 2.381 . S
O31 C30 1.258 . S
O32 Cd23 2.378 . S
O32 C30 1.256 . S
O33 Cd34 2.300 . S
O33 C40 1.275 . S
Cd34 O33 2.300 . S
Cd34 O42 2.381 . S
Cd34 O43 2.378 . S
O35 Cd36 2.385 . S
O35 C40 1.255 . S
Cd36 O35 2.385 . S
Cd36 O37 2.317 . S
O37 Cd36 2.317 . S
O37 C38 1.232 . S
C38 O37 1.232 . S
C38 O39 1.218 . S
O39 C38 1.218 . S
C40 O33 1.275 . S
C40 O35 1.255 . S
C41 O42 1.258 . S
C41 O43 1.256 . S
O42 Cd34 2.381 . S
O42 C41 1.258 . S
O43 Cd34 2.378 . S
O43 C41 1.256 . S
O44 Cd45 2.300 . S
O44 C51 1.275 . S
Cd45 O44 2.300 . S
Cd45 O53 2.381 . S
Cd45 O54 2.378 . S
O46 Cd47 2.385 . S
O46 C51 1.255 . S
Cd47 O46 2.385 . S
Cd47 O48 2.317 . S
O48 Cd47 2.317 . S
O48 C49 1.232 . S
C49 O48 1.232 . S
C49 O50 1.218 . S
O50 C49 1.218 . S
C51 O44 1.275 . S
C51 O46 1.255 . S
C52 O53 1.258 . S
C52 O54 1.256 . S
O53 Cd45 2.381 . S
O53 C52 1.258 . S
O54 Cd45 2.378 . S
O54 C52 1.256 . S
O55 Cd56 2.300 . S
O55 C62 1.275 . S
Cd56 O55 2.300 . S
Cd56 O64 2.381 . S
Cd56 O65 2.378 . S
O57 Cd58 2.385 . S
O57 C62 1.255 . S
Cd58 O57 2.385 . S
Cd58 O59 2.317 . S
O59 Cd58 2.317 . S
O59 C60 1.232 . S
C60 O59 1.232 . S
C60 O61 1.218 . S
O61 C60 1.218 . S
C62 O55 1.275 . S
C62 O57 1.255 . S
C63 O64 1.258 . S
C63 O65 1.256 . S
O64 Cd56 2.381 . S
O64 C63 1.258 . S
O65 Cd56 2.378 . S
O65 C63 1.256 . S
O66 Cd67 2.300 . S
O66 C73 1.275 . S
Cd67 O66 2.300 . S
Cd67 O75 2.381 . S
Cd67 O76 2.378 . S
O68 Cd69 2.385 . S
O68 C73 1.255 . S
Cd69 O68 2.385 . S
Cd69 O70 2.317 . S
O70 Cd69 2.317 . S
O70 C71 1.232 . S
C71 O70 1.232 . S
C71 O72 1.218 . S
O72 C71 1.218 . S
C73 O66 1.275 . S
C73 O68 1.255 . S
C74 O75 1.258 . S
C74 O76 1.256 . S
O75 Cd67 2.381 . S
O75 C74 1.258 . S
O76 Cd67 2.378 . S
O76 C74 1.256 . S
O77 Cd78 2.300 . S
O77 C84 1.275 . S
Cd78 O77 2.300 . S
Cd78 O86 2.381 . S
Cd78 O87 2.378 . S
O79 Cd80 2.385 . S
O79 C84 1.255 . S
Cd80 O79 2.385 . S
Cd80 O81 2.317 . S
O81 Cd80 2.317 . S
O81 C82 1.232 . S
C82 O81 1.232 . S
C82 O83 1.218 . S
O83 C82 1.218 . S
C84 O77 1.275 . S
C84 O79 1.255 . S
C85 O86 1.258 . S
C85 O87 1.256 . S
O86 Cd78 2.381 . S
O86 C85 1.258 . S
O87 Cd78 2.378 . S
O87 C85 1.256 . S
O88 Cd89 2.300 . S
O88 C95 1.275 . S
Cd89 O88 2.300 . S
Cd89 O97 2.381 . S
Cd89 O98 2.378 . S
O90 Cd91 2.385 . S
O90 C95 1.255 . S
Cd91 O90 2.385 . S
Cd91 O92 2.317 . S
O92 Cd91 2.317 . S
O92 C93 1.232 . S
C93 O92 1.232 . S
C93 O94 1.218 . S
O94 C93 1.218 . S
C95 O88 1.275 . S
C95 O90 1.255 . S
C96 O97 1.258 . S
C96 O98 1.256 . S
O97 Cd89 2.381 . S
O97 C96 1.258 . S
O98 Cd89 2.378 . S
O98 C96 1.256 . S
O99 Cd100 2.300 . S
O99 C106 1.275 . S
Cd100 O99 2.300 . S
Cd100 O108 2.381 . S
Cd100 O109 2.378 . S
O101 Cd102 2.385 . S
O101 C106 1.255 . S
Cd102 O101 2.385 . S
Cd102 O103 2.317 . S
O103 Cd102 2.317 . S
O103 C104 1.232 . S
C104 O103 1.232 . S
C104 O105 1.218 . S
O105 C104 1.218 . S
C106 O99 1.275 . S
C106 O101 1.255 . S
C107 O108 1.258 . S
C107 O109 1.256 . S
O108 Cd100 2.381 . S
O108 C107 1.258 . S
O109 Cd100 2.378 . S
O109 C107 1.256 . S
O110 Cd111 2.300 . S
O110 C117 1.275 . S
Cd111 O110 2.300 . S
Cd111 O119 2.381 . S
Cd111 O120 2.378 . S
O112 Cd113 2.385 . S
O112 C117 1.255 . S
Cd113 O112 2.385 . S
Cd113 O114 2.317 . S
O114 Cd113 2.317 . S
O114 C115 1.232 . S
C115 O114 1.232 . S
C115 O116 1.218 . S
O116 C115 1.218 . S
C117 O110 1.275 . S
C117 O112 1.255 . S
C118 O119 1.258 . S
C118 O120 1.256 . S
O119 Cd111 2.381 . S
O119 C118 1.258 . S
O120 Cd111 2.378 . S
O120 C118 1.256 . S
O121 Cd122 2.300 . S
O121 C128 1.275 . S
Cd122 O121 2.300 . S
Cd122 O130 2.381 . S
Cd122 O131 2.378 . S
O123 Cd124 2.385 . S
O123 C128 1.255 . S
Cd124 O123 2.385 . S
Cd124 O125 2.317 . S
O125 Cd124 2.317 . S
O125 C126 1.232 . S
C126 O125 1.232 . S
C126 O127 1.218 . S
O127 C126 1.218 . S
C128 O121 1.275 . S
C128 O123 1.255 . S
C129 O130 1.258 . S
C129 O131 1.256 . S
O130 Cd122 2.381 . S
O130 C129 1.258 . S
O131 Cd122 2.378 . S
O131 C129 1.256 . S
O132 Cd133 2.300 . S
O132 C139 1.275 . S
Cd133 O132 2.300 . S
Cd133 O141 2.381 . S
Cd133 O142 2.378 . S
O134 Cd135 2.385 . S
O134 C139 1.255 1_455 S
Cd135 O134 2.385 . S
Cd135 O136 2.386 . S
O136 Cd135 2.386 . S
O136 C137 1.206 . S
C137 O136 1.206 . S
C137 O138 1.218 . S
O138 C137 1.218 . S
C139 O132 1.275 . S
C139 O134 1.255 1_655 S
C140 O141 1.258 . S
C140 O142 1.256 . S
O141 Cd133 2.381 . S
O141 C140 1.258 . S
O142 Cd133 2.378 . S
O142 C140 1.256 . S
O143 Cd144 2.300 . S
O143 C150 1.275 . S
Cd144 O143 2.300 . S
Cd144 O152 2.381 . S
Cd144 O153 2.378 . S
O145 Cd146 2.385 . S
O145 C150 1.255 . S
Cd146 O145 2.385 . S
Cd146 O147 2.317 . S
O147 Cd146 2.317 . S
O147 C148 1.232 . S
C148 O147 1.232 . S
C148 O149 1.218 . S
O149 C148 1.218 . S
C150 O143 1.275 . S
C150 O145 1.255 . S
C151 O152 1.258 . S
C151 O153 1.256 . S
O152 Cd144 2.381 . S
O152 C151 1.258 . S
O153 Cd144 2.378 . S
O153 C151 1.256 . S
O154 Cd155 2.300 . S
O154 C161 1.275 . S
Cd155 O154 2.300 . S
Cd155 O163 2.381 . S
Cd155 O164 2.378 . S
O156 Cd157 2.385 . S
O156 C161 1.255 1_565 S
Cd157 O156 2.385 . S
Cd157 O158 2.349 . S
O158 Cd157 2.349 . S
O158 C159 1.268 . S
C159 O158 1.268 . S
C159 O160 1.218 . S
O160 C159 1.218 . S
C161 O154 1.275 . S
C161 O156 1.255 1_545 S
C162 O163 1.258 . S
C162 O164 1.256 . S
O163 Cd155 2.381 . S
O163 C162 1.258 . S
O164 Cd155 2.378 . S
O164 C162 1.256 . S
O165 Cd166 2.300 . S
O165 C172 1.275 . S
Cd166 O165 2.300 . S
Cd166 O174 2.381 . S
Cd166 O175 2.378 . S
O167 Cd168 2.385 . S
O167 C172 1.255 . S
Cd168 O167 2.385 . S
Cd168 O169 2.317 . S
O169 Cd168 2.317 . S
O169 C170 1.232 . S
C170 O169 1.232 . S
C170 O171 1.218 . S
O171 C170 1.218 . S
C172 O165 1.275 . S
C172 O167 1.255 . S
C173 O174 1.258 . S
C173 O175 1.256 . S
O174 Cd166 2.381 . S
O174 C173 1.258 . S
O175 Cd166 2.378 . S
O175 C173 1.256 . S
O176 Cd177 2.300 . S
O176 C183 1.275 . S
Cd177 O176 2.300 . S
Cd177 O185 2.381 . S
Cd177 O186 2.378 . S
O178 Cd179 2.385 . S
O178 C183 1.255 . S
Cd179 O178 2.385 . S
Cd179 O180 2.317 . S
O180 Cd179 2.317 . S
O180 C181 1.232 . S
C181 O180 1.232 . S
C181 O182 1.218 . S
O182 C181 1.218 . S
C183 O176 1.275 . S
C183 O178 1.255 . S
C184 O185 1.258 . S
C184 O186 1.256 . S
O185 Cd177 2.381 . S
O185 C184 1.258 . S
O186 Cd177 2.378 . S
O186 C184 1.256 . S
O187 Cd188 2.300 . S
O187 C194 1.275 . S
Cd188 O187 2.300 . S
Cd188 O196 2.381 . S
Cd188 O197 2.378 . S
O189 Cd190 2.385 . S
O189 C194 1.255 . S
Cd190 O189 2.385 . S
Cd190 O191 2.317 . S
O191 Cd190 2.317 . S
O191 C192 1.232 . S
C192 O191 1.232 . S
C192 O193 1.218 . S
O193 C192 1.218 . S
C194 O187 1.275 . S
C194 O189 1.255 . S
C195 O196 1.258 . S
C195 O197 1.256 . S
O196 Cd188 2.381 . S
O196 C195 1.258 . S
O197 Cd188 2.378 . S
O197 C195 1.256 . S
O198 Cd199 2.300 . S
O198 C205 1.275 . S
Cd199 O198 2.300 . S
Cd199 O207 2.381 . S
Cd199 O208 2.378 . S
O200 Cd201 2.385 . S
O200 C205 1.255 . S
Cd201 O200 2.385 . S
Cd201 O202 2.317 . S
O202 Cd201 2.317 . S
O202 C203 1.232 . S
C203 O202 1.232 . S
C203 O204 1.218 . S
O204 C203 1.218 . S
C205 O198 1.275 . S
C205 O200 1.255 . S
C206 O207 1.258 . S
C206 O208 1.256 . S
O207 Cd199 2.381 . S
O207 C206 1.258 . S
O208 Cd199 2.378 . S
O208 C206 1.256 . S
O209 Cd210 2.300 . S
O209 C216 1.275 . S
Cd210 O209 2.300 . S
Cd210 O218 2.381 . S
Cd210 O219 2.378 . S
O211 Cd212 2.385 . S
O211 C216 1.255 . S
Cd212 O211 2.385 . S
Cd212 O213 2.317 . S
O213 Cd212 2.317 . S
O213 C214 1.232 . S
C214 O213 1.232 . S
C214 O215 1.218 . S
O215 C214 1.218 . S
C216 O209 1.275 . S
C216 O211 1.255 . S
C217 O218 1.258 . S
C217 O219 1.256 . S
O218 Cd210 2.381 . S
O218 C217 1.258 . S
O219 Cd210 2.378 . S
O219 C217 1.256 . S
O220 Cd221 2.300 . S
O220 C227 1.275 . S
Cd221 O220 2.300 . S
Cd221 O229 2.381 . S
Cd221 O230 2.378 . S
O222 Cd223 2.385 . S
O222 C227 1.255 . S
Cd223 O222 2.385 . S
Cd223 O224 2.317 . S
O224 Cd223 2.317 . S
O224 C225 1.232 . S
C225 O224 1.232 . S
C225 O226 1.218 . S
O226 C225 1.218 . S
C227 O220 1.275 . S
C227 O222 1.255 . S
C228 O229 1.258 . S
C228 O230 1.256 . S
O229 Cd221 2.381 . S
O229 C228 1.258 . S
O230 Cd221 2.378 . S
O230 C228 1.256 . S
O231 Cd232 2.300 . S
O231 C238 1.275 . S
Cd232 O231 2.300 . S
Cd232 O240 2.381 . S
Cd232 O241 2.378 1_556 S
O233 Cd234 2.385 . S
O233 C238 1.255 . S
Cd234 O233 2.385 . S
Cd234 O235 2.317 . S
O235 Cd234 2.317 . S
O235 C236 1.232 . S
C236 O235 1.232 . S
C236 O237 1.218 . S
O237 C236 1.218 . S
C238 O231 1.275 . S
C238 O233 1.255 . S
C239 O240 1.258 1_554 S
C239 O241 1.256 . S
O240 Cd232 2.381 . S
O240 C239 1.258 1_556 S
O241 Cd232 2.378 1_554 S
O241 C239 1.256 . S
O242 Cd243 2.300 . S
O242 C249 1.275 . S
Cd243 O242 2.300 . S
Cd243 O251 2.381 . S
Cd243 O252 2.378 1_556 S
O244 Cd245 2.385 . S
O244 C249 1.255 . S
Cd245 O244 2.385 . S
Cd245 O246 2.317 . S
O246 Cd245 2.317 . S
O246 C247 1.232 . S
C247 O246 1.232 . S
C247 O248 1.218 . S
O248 C247 1.218 . S
C249 O242 1.275 . S
C249 O244 1.255 . S
C250 O251 1.258 1_554 S
C250 O252 1.256 . S
O251 Cd243 2.381 . S
O251 C250 1.258 1_556 S
O252 Cd243 2.378 1_554 S
O252 C250 1.256 . S
O253 Cd254 2.300 . S
O253 C260 1.275 . S
Cd254 O253 2.300 . S
Cd254 O262 2.381 . S
Cd254 O263 2.378 1_556 S
O255 Cd256 2.385 . S
O255 C260 1.255 . S
Cd256 O255 2.385 . S
Cd256 O257 2.317 . S
O257 Cd256 2.317 . S
O257 C258 1.232 . S
C258 O257 1.232 . S
C258 O259 1.218 . S
O259 C258 1.218 . S
C260 O253 1.275 . S
C260 O255 1.255 . S
C261 O262 1.258 1_554 S
C261 O263 1.256 . S
O262 Cd254 2.381 . S
O262 C261 1.258 1_556 S
O263 Cd254 2.378 1_554 S
O263 C261 1.256 . S
O264 Cd265 2.300 . S
O264 C271 1.275 . S
Cd265 O264 2.300 . S
Cd265 O273 2.381 . S
Cd265 O274 2.378 . S
O266 Cd267 2.385 . S
O266 C271 1.255 . S
Cd267 O266 2.385 . S
Cd267 O268 2.317 . S
O268 Cd267 2.317 . S
O268 C269 1.232 . S
C269 O268 1.232 . S
C269 O270 1.218 . S
O270 C269 1.218 . S
C271 O264 1.275 . S
C271 O266 1.255 . S
C272 O273 1.258 . S
C272 O274 1.256 . S
O273 Cd265 2.381 . S
O273 C272 1.258 . S
O274 Cd265 2.378 . S
O274 C272 1.256 . S
O275 Cd276 2.300 . S
O275 C282 1.275 . S
Cd276 O275 2.300 . S
Cd276 O284 2.381 . S
Cd276 O285 2.378 . S
O277 Cd278 2.385 . S
O277 C282 1.255 . S
Cd278 O277 2.385 . S
Cd278 O279 2.317 . S
O279 Cd278 2.317 . S
O279 C280 1.232 . S
C280 O279 1.232 . S
C280 O281 1.218 . S
O281 C280 1.218 . S
C282 O275 1.275 . S
C282 O277 1.255 . S
C283 O284 1.258 . S
C283 O285 1.256 . S
O284 Cd276 2.381 . S
O284 C283 1.258 . S
O285 Cd276 2.378 . S
O285 C283 1.256 . S
O286 Cd287 2.300 . S
O286 C293 1.275 . S
Cd287 O286 2.300 . S
Cd287 O295 2.381 . S
Cd287 O296 2.378 . S
O288 Cd289 2.385 . S
O288 C293 1.255 . S
Cd289 O288 2.385 . S
Cd289 O290 2.317 . S
O290 Cd289 2.317 . S
O290 C291 1.232 . S
C291 O290 1.232 . S
C291 O292 1.218 . S
O292 C291 1.218 . S
C293 O286 1.275 . S
C293 O288 1.255 . S
C294 O295 1.258 . S
C294 O296 1.256 . S
O295 Cd287 2.381 . S
O295 C294 1.258 . S
O296 Cd287 2.378 . S
O296 C294 1.256 . S
O297 Cd298 2.300 . S
O297 C304 1.275 . S
Cd298 O297 2.300 . S
Cd298 O306 2.381 . S
Cd298 O307 2.378 1_554 S
O299 Cd300 2.385 . S
O299 C304 1.255 1_545 S
Cd300 O299 2.385 . S
Cd300 O301 2.384 . S
O301 Cd300 2.384 . S
O301 C302 1.206 . S
C302 O301 1.206 . S
C302 O303 1.218 . S
O303 C302 1.218 . S
C304 O297 1.275 . S
C304 O299 1.255 1_565 S
C305 O306 1.258 1_556 S
C305 O307 1.256 . S
O306 Cd298 2.381 . S
O306 C305 1.258 1_554 S
O307 Cd298 2.378 1_556 S
O307 C305 1.256 . S
O308 Cd309 2.300 . S
O308 C315 1.275 . S
Cd309 O308 2.300 . S
Cd309 O317 2.381 . S
Cd309 O318 2.378 1_554 S
O310 Cd311 2.385 . S
O310 C315 1.255 1_655 S
Cd311 O310 2.385 . S
Cd311 O312 2.348 . S
O312 Cd311 2.348 . S
O312 C313 1.267 . S
C313 O312 1.267 . S
C313 O314 1.218 . S
O314 C313 1.218 . S
C315 O308 1.275 . S
C315 O310 1.255 1_455 S
C316 O317 1.258 1_556 S
C316 O318 1.256 . S
O317 Cd309 2.381 . S
O317 C316 1.258 1_554 S
O318 Cd309 2.378 1_556 S
O318 C316 1.256 . S
O319 Cd320 2.300 . S
O319 C326 1.275 . S
Cd320 O319 2.300 . S
Cd320 O328 2.381 . S
Cd320 O329 2.378 1_554 S
O321 Cd322 2.385 . S
O321 C326 1.255 . S
Cd322 O321 2.385 . S
Cd322 O323 2.317 . S
O323 Cd322 2.317 . S
O323 C324 1.232 . S
C324 O323 1.232 . S
C324 O325 1.218 . S
O325 C324 1.218 . S
C326 O319 1.275 . S
C326 O321 1.255 . S
C327 O328 1.258 1_556 S
C327 O329 1.256 . S
O328 Cd320 2.381 . S
O328 C327 1.258 1_554 S
O329 Cd320 2.378 1_556 S
O329 C327 1.256 . S
O330 Cd331 2.300 . S
O330 C337 1.275 . S
Cd331 O330 2.300 . S
Cd331 O339 2.381 . S
Cd331 O340 2.378 . S
O332 Cd333 2.385 . S
O332 C337 1.255 . S
Cd333 O332 2.385 . S
Cd333 O334 2.317 . S
O334 Cd333 2.317 . S
O334 C335 1.232 . S
C335 O334 1.232 . S
C335 O336 1.218 . S
O336 C335 1.218 . S
C337 O330 1.275 . S
C337 O332 1.255 . S
C338 O339 1.258 . S
C338 O340 1.256 . S
O339 Cd331 2.381 . S
O339 C338 1.258 . S
O340 Cd331 2.378 . S
O340 C338 1.256 . S
O341 Cd342 2.300 . S
O341 C348 1.275 . S
Cd342 O341 2.300 . S
Cd342 O350 2.381 . S
Cd342 O351 2.378 . S
O343 Cd344 2.385 . S
O343 C348 1.255 . S
Cd344 O343 2.385 . S
Cd344 O345 2.317 . S
O345 Cd344 2.317 . S
O345 C346 1.232 . S
C346 O345 1.232 . S
C346 O347 1.218 . S
O347 C346 1.218 . S
C348 O341 1.275 . S
C348 O343 1.255 . S
C349 O350 1.258 . S
C349 O351 1.256 . S
O350 Cd342 2.381 . S
O350 C349 1.258 . S
O351 Cd342 2.378 . S
O351 C349 1.256 . S
O352 Cd353 2.300 . S
O352 C359 1.275 . S
Cd353 O352 2.300 . S
Cd353 O361 2.381 . S
Cd353 O362 2.378 . S
O354 Cd355 2.385 . S
O354 C359 1.255 . S
Cd355 O354 2.385 . S
Cd355 O356 2.317 . S
O356 Cd355 2.317 . S
O356 C357 1.232 . S
C357 O356 1.232 . S
C357 O358 1.218 . S
O358 C357 1.218 . S
C359 O352 1.275 . S
C359 O354 1.255 . S
C360 O361 1.258 . S
C360 O362 1.256 . S
O361 Cd353 2.381 . S
O361 C360 1.258 . S
O362 Cd353 2.378 . S
O362 C360 1.256 . S
O363 Cd364 2.300 . S
O363 C370 1.275 . S
Cd364 O363 2.300 . S
Cd364 O372 2.381 . S
Cd364 O373 2.378 . S
O365 Cd366 2.385 . S
O365 C370 1.255 . S
Cd366 O365 2.385 . S
Cd366 O367 2.317 . S
O367 Cd366 2.317 . S
O367 C368 1.232 . S
C368 O367 1.232 . S
C368 O369 1.218 . S
O369 C368 1.218 . S
C370 O363 1.275 . S
C370 O365 1.255 . S
C371 O372 1.258 . S
C371 O373 1.256 . S
O372 Cd364 2.381 . S
O372 C371 1.258 . S
O373 Cd364 2.378 . S
O373 C371 1.256 . S
O374 Cd375 2.300 . S
O374 C381 1.275 . S
Cd375 O374 2.300 . S
Cd375 O383 2.381 . S
Cd375 O384 2.378 . S
O376 Cd377 2.385 . S
O376 C381 1.255 . S
Cd377 O376 2.385 . S
Cd377 O378 2.317 . S
O378 Cd377 2.317 . S
O378 C379 1.232 . S
C379 O378 1.232 . S
C379 O380 1.218 . S
O380 C379 1.218 . S
C381 O374 1.275 . S
C381 O376 1.255 . S
C382 O383 1.258 . S
C382 O384 1.256 . S
O383 Cd375 2.381 . S
O383 C382 1.258 . S
O384 Cd375 2.378 . S
O384 C382 1.256 . S
O385 Cd386 2.300 . S
O385 C392 1.275 . S
Cd386 O385 2.300 . S
Cd386 O394 2.381 . S
Cd386 O395 2.378 . S
O387 Cd388 2.385 . S
O387 C392 1.255 . S
Cd388 O387 2.385 . S
Cd388 O389 2.317 . S
O389 Cd388 2.317 . S
O389 C390 1.232 . S
C390 O389 1.232 . S
C390 O391 1.218 . S
O391 C390 1.218 . S
C392 O385 1.275 . S
C392 O387 1.255 . S
C393 O394 1.258 . S
C393 O395 1.256 . S
O394 Cd386 2.381 . S
O394 C393 1.258 . S
O395 Cd386 2.378 . S
O395 C393 1.256 . S
H396 C404 0.950 . S
H397 C409 0.950 . S
H398 C406 0.950 . S
H399 C408 0.950 . S
H400 C410 0.950 . S
H401 C412 0.950 . S
H402 C414 0.950 . S
H403 C415 0.950 . S
C404 H396 0.950 . S
C404 C405 1.386 . S
C404 C406 1.391 . S
C405 C404 1.386 . S
C405 C409 1.393 . S
C406 H398 0.950 . S
C406 C404 1.391 . S
C406 C407 1.400 . S
C407 C406 1.400 . S
C407 C408 1.398 . S
C407 C413 1.491 1_565 S
C408 H399 0.950 . S
C408 C407 1.398 . S
C408 C409 1.391 . S
C409 H397 0.950 . S
C409 C405 1.393 . S
C409 C408 1.391 . S
C410 H400 0.950 . S
C410 C411 1.386 . S
C410 C412 1.391 . S
C411 C410 1.386 . S
C411 C415 1.393 . S
C412 H401 0.950 . S
C412 C410 1.391 . S
C412 C413 1.400 . S
C413 C407 1.491 1_545 S
C413 C412 1.400 . S
C413 C414 1.398 . S
C414 H402 0.950 . S
C414 C413 1.398 . S
C414 C415 1.391 . S
C415 H403 0.950 . S
C415 C411 1.393 . S
C415 C414 1.391 . S
H416 C424 0.950 . S
H417 C429 0.950 . S
H418 C426 0.950 . S
H419 C428 0.950 . S
H420 C430 0.950 . S
H421 C432 0.950 . S
H422 C434 0.950 . S
H423 C435 0.950 . S
C424 H416 0.950 . S
C424 C425 1.386 . S
C424 C426 1.391 . S
C425 C424 1.386 . S
C425 C429 1.393 . S
C426 H418 0.950 . S
C426 C424 1.391 . S
C426 C427 1.400 . S
C427 C426 1.400 . S
C427 C428 1.398 . S
C427 C433 1.491 1_455 S
C428 H419 0.950 . S
C428 C427 1.398 . S
C428 C429 1.391 . S
C429 H417 0.950 . S
C429 C425 1.393 . S
C429 C428 1.391 . S
C430 H420 0.950 . S
C430 C431 1.386 . S
C430 C432 1.391 . S
C431 C430 1.386 . S
C431 C435 1.393 . S
C432 H421 0.950 . S
C432 C430 1.391 . S
C432 C433 1.400 . S
C433 C427 1.491 1_655 S
C433 C432 1.400 . S
C433 C434 1.398 . S
C434 H422 0.950 . S
C434 C433 1.398 . S
C434 C435 1.391 . S
C435 H423 0.950 . S
C435 C431 1.393 . S
C435 C434 1.391 . S
H436 C444 0.950 . S
H437 C449 0.950 . S
H438 C446 0.950 . S
H439 C448 0.950 . S
H440 C450 0.950 . S
H441 C452 0.950 . S
H442 C454 0.950 . S
H443 C455 0.950 . S
C444 H436 0.950 . S
C444 C445 1.386 . S
C444 C446 1.391 . S
C445 C444 1.386 . S
C445 C449 1.393 . S
C446 H438 0.950 . S
C446 C444 1.391 . S
C446 C447 1.400 . S
C447 C446 1.400 . S
C447 C448 1.398 . S
C447 C453 1.491 . S
C448 H439 0.950 . S
C448 C447 1.398 . S
C448 C449 1.391 . S
C449 H437 0.950 . S
C449 C445 1.393 . S
C449 C448 1.391 . S
C450 H440 0.950 . S
C450 C451 1.386 . S
C450 C452 1.391 . S
C451 C450 1.386 . S
C451 C455 1.393 . S
C452 H441 0.950 . S
C452 C450 1.391 . S
C452 C453 1.400 . S
C453 C447 1.491 . S
C453 C452 1.400 . S
C453 C454 1.398 . S
C454 H442 0.950 . S
C454 C453 1.398 . S
C454 C455 1.391 . S
C455 H443 0.950 . S
C455 C451 1.393 . S
C455 C454 1.391 . S
H456 C464 0.950 . S
H457 C469 0.950 . S
H458 C466 0.950 . S
H459 C468 0.995 . S
H460 C470 0.950 . S
H461 C472 0.950 . S
H462 C474 0.991 . S
H463 C475 0.950 . S
C464 H456 0.950 . S
C464 C465 1.386 . S
C464 C466 1.391 . S
C465 C464 1.386 . S
C465 C469 1.393 . S
C466 H458 0.950 . S
C466 C464 1.391 . S
C466 C467 1.400 . S
C467 C466 1.400 . S
C467 C468 1.398 . S
C467 C473 1.491 1_565 S
C468 H459 0.995 . S
C468 C467 1.398 . S
C468 C469 1.391 . S
C469 H457 0.950 . S
C469 C465 1.393 . S
C469 C468 1.391 . S
C470 H460 0.950 . S
C470 C471 1.386 . S
C470 C472 1.391 . S
C471 C470 1.386 . S
C471 C475 1.393 . S
C472 H461 0.950 . S
C472 C470 1.391 . S
C472 C473 1.400 . S
C473 C467 1.491 1_545 S
C473 C472 1.400 . S
C473 C474 1.398 . S
C474 H462 0.991 . S
C474 C473 1.398 . S
C474 C475 1.391 . S
C475 H463 0.950 . S
C475 C471 1.393 . S
C475 C474 1.391 . S
H476 C484 0.950 . S
H477 C489 0.950 . S
H478 C486 0.950 . S
H479 C488 0.950 . S
H480 C490 0.950 . S
H481 C492 0.950 . S
H482 C494 0.950 . S
H483 C495 0.950 . S
C484 H476 0.950 . S
C484 C485 1.386 . S
C484 C486 1.391 . S
C485 C484 1.386 . S
C485 C489 1.393 . S
C486 H478 0.950 . S
C486 C484 1.391 . S
C486 C487 1.400 . S
C487 C486 1.400 . S
C487 C488 1.398 . S
C487 C493 1.491 1_655 S
C488 H479 0.950 . S
C488 C487 1.398 . S
C488 C489 1.391 . S
C489 H477 0.950 . S
C489 C485 1.393 . S
C489 C488 1.391 . S
C490 H480 0.950 . S
C490 C491 1.386 . S
C490 C492 1.391 . S
C491 C490 1.386 . S
C491 C495 1.393 . S
C492 H481 0.950 . S
C492 C490 1.391 . S
C492 C493 1.400 . S
C493 C487 1.491 1_455 S
C493 C492 1.400 . S
C493 C494 1.398 . S
C494 H482 0.950 . S
C494 C493 1.398 . S
C494 C495 1.391 . S
C495 H483 0.950 . S
C495 C491 1.393 . S
C495 C494 1.391 . S
H496 C504 0.950 . S
H497 C509 0.950 . S
H498 C506 0.950 . S
H499 C508 0.950 . S
H500 C510 0.950 . S
H501 C512 0.950 . S
H502 C514 0.950 . S
H503 C515 0.950 . S
C504 H496 0.950 . S
C504 C505 1.386 . S
C504 C506 1.391 . S
C505 C504 1.386 . S
C505 C509 1.393 . S
C506 H498 0.950 . S
C506 C504 1.391 . S
C506 C507 1.400 . S
C507 C506 1.400 . S
C507 C508 1.398 . S
C507 C513 1.491 . S
C508 H499 0.950 . S
C508 C507 1.398 . S
C508 C509 1.391 . S
C509 H497 0.950 . S
C509 C505 1.393 . S
C509 C508 1.391 . S
C510 H500 0.950 . S
C510 C511 1.386 . S
C510 C512 1.391 . S
C511 C510 1.386 . S
C511 C515 1.393 . S
C512 H501 0.950 . S
C512 C510 1.391 . S
C512 C513 1.400 . S
C513 C507 1.491 . S
C513 C512 1.400 . S
C513 C514 1.398 . S
C514 H502 0.950 . S
C514 C513 1.398 . S
C514 C515 1.391 . S
C515 H503 0.950 . S
C515 C511 1.393 . S
C515 C514 1.391 . S
H516 C524 0.950 . S
H517 C529 0.950 . S
H518 C526 0.950 . S
H519 C528 0.950 . S
H520 C530 0.950 . S
H521 C532 0.950 . S
H522 C534 0.950 . S
H523 C535 0.950 . S
C524 H516 0.950 . S
C524 C525 1.386 . S
C524 C526 1.391 . S
C525 C524 1.386 . S
C525 C529 1.393 . S
C526 H518 0.950 . S
C526 C524 1.391 . S
C526 C527 1.400 . S
C527 C526 1.400 . S
C527 C528 1.398 . S
C527 C533 1.491 . S
C528 H519 0.950 . S
C528 C527 1.398 . S
C528 C529 1.391 . S
C529 H517 0.950 . S
C529 C525 1.393 . S
C529 C528 1.391 . S
C530 H520 0.950 . S
C530 C531 1.386 . S
C530 C532 1.391 . S
C531 C530 1.386 . S
C531 C535 1.393 . S
C532 H521 0.950 . S
C532 C530 1.391 . S
C532 C533 1.400 . S
C533 C527 1.491 . S
C533 C532 1.400 . S
C533 C534 1.398 . S
C534 H522 0.950 . S
C534 C533 1.398 . S
C534 C535 1.391 . S
C535 H523 0.950 . S
C535 C531 1.393 . S
C535 C534 1.391 . S
H536 C544 0.950 . S
H537 C549 0.950 . S
H538 C546 0.950 . S
H539 C548 0.950 . S
H540 C550 0.950 . S
H541 C552 0.950 . S
H542 C554 0.950 . S
H543 C555 0.950 . S
C544 H536 0.950 . S
C544 C545 1.386 . S
C544 C546 1.391 . S
C545 C544 1.386 . S
C545 C549 1.393 . S
C546 H538 0.950 . S
C546 C544 1.391 . S
C546 C547 1.400 . S
C547 C546 1.400 . S
C547 C548 1.398 . S
C547 C553 1.491 . S
C548 H539 0.950 . S
C548 C547 1.398 . S
C548 C549 1.391 . S
C549 H537 0.950 . S
C549 C545 1.393 . S
C549 C548 1.391 . S
C550 H540 0.950 . S
C550 C551 1.386 . S
C550 C552 1.391 . S
C551 C550 1.386 . S
C551 C555 1.393 . S
C552 H541 0.950 . S
C552 C550 1.391 . S
C552 C553 1.400 . S
C553 C547 1.491 . S
C553 C552 1.400 . S
C553 C554 1.398 . S
C554 H542 0.950 . S
C554 C553 1.398 . S
C554 C555 1.391 . S
C555 H543 0.950 . S
C555 C551 1.393 . S
C555 C554 1.391 . S
H556 C564 0.950 . S
H557 C569 0.950 . S
H558 C566 0.950 . S
H559 C568 0.950 . S
H560 C570 0.950 . S
H561 C572 0.950 . S
H562 C574 0.950 . S
H563 C575 0.950 . S
C564 H556 0.950 . S
C564 C565 1.386 . S
C564 C566 1.391 . S
C565 C564 1.386 . S
C565 C569 1.393 . S
C566 H558 0.950 . S
C566 C564 1.391 . S
C566 C567 1.400 . S
C567 C566 1.400 . S
C567 C568 1.398 . S
C567 C573 1.491 . S
C568 H559 0.950 . S
C568 C567 1.398 . S
C568 C569 1.391 . S
C569 H557 0.950 . S
C569 C565 1.393 . S
C569 C568 1.391 . S
C570 H560 0.950 . S
C570 C571 1.386 . S
C570 C572 1.391 . S
C571 C570 1.386 . S
C571 C575 1.393 . S
C572 H561 0.950 . S
C572 C570 1.391 . S
C572 C573 1.400 . S
C573 C567 1.491 . S
C573 C572 1.400 . S
C573 C574 1.398 . S
C574 H562 0.950 . S
C574 C573 1.398 . S
C574 C575 1.391 . S
C575 H563 0.950 . S
C575 C571 1.393 . S
C575 C574 1.391 . S
H576 C584 0.950 . S
H577 C589 0.950 . S
H578 C586 0.950 . S
H579 C588 0.950 . S
H580 C590 0.950 . S
H581 C592 0.950 . S
H582 C594 0.950 . S
H583 C595 0.950 . S
C584 H576 0.950 . S
C584 C585 1.386 . S
C584 C586 1.391 . S
C585 C584 1.386 . S
C585 C589 1.393 . S
C586 H578 0.950 . S
C586 C584 1.391 . S
C586 C587 1.400 . S
C587 C586 1.400 . S
C587 C588 1.398 . S
C587 C593 1.491 . S
C588 H579 0.950 . S
C588 C587 1.398 . S
C588 C589 1.391 . S
C589 H577 0.950 . S
C589 C585 1.393 . S
C589 C588 1.391 . S
C590 H580 0.950 . S
C590 C591 1.386 . S
C590 C592 1.391 . S
C591 C590 1.386 . S
C591 C595 1.393 . S
C592 H581 0.950 . S
C592 C590 1.391 . S
C592 C593 1.400 . S
C593 C587 1.491 . S
C593 C592 1.400 . S
C593 C594 1.398 . S
C594 H582 0.950 . S
C594 C593 1.398 . S
C594 C595 1.391 . S
C595 H583 0.950 . S
C595 C591 1.393 . S
C595 C594 1.391 . S
H596 C604 0.950 . S
H597 C609 0.950 . S
H598 C606 0.950 . S
H599 C608 0.950 . S
H600 C610 0.950 . S
H601 C612 0.950 . S
H602 C614 0.950 . S
H603 C615 0.950 . S
C604 H596 0.950 . S
C604 C605 1.386 . S
C604 C606 1.391 . S
C605 C604 1.386 . S
C605 C609 1.393 . S
C606 H598 0.950 . S
C606 C604 1.391 . S
C606 C607 1.400 . S
C607 C606 1.400 . S
C607 C608 1.398 . S
C607 C613 1.491 . S
C608 H599 0.950 . S
C608 C607 1.398 . S
C608 C609 1.391 . S
C609 H597 0.950 . S
C609 C605 1.393 . S
C609 C608 1.391 . S
C610 H600 0.950 . S
C610 C611 1.386 . S
C610 C612 1.391 . S
C611 C610 1.386 . S
C611 C615 1.393 . S
C612 H601 0.950 . S
C612 C610 1.391 . S
C612 C613 1.400 . S
C613 C607 1.491 . S
C613 C612 1.400 . S
C613 C614 1.398 . S
C614 H602 0.950 . S
C614 C613 1.398 . S
C614 C615 1.391 . S
C615 H603 0.950 . S
C615 C611 1.393 . S
C615 C614 1.391 . S
H616 C624 0.950 . S
H617 C629 0.950 . S
H618 C626 0.950 . S
H619 C628 0.950 . S
H620 C630 0.950 . S
H621 C632 0.950 . S
H622 C634 0.950 . S
H623 C635 0.950 . S
C624 H616 0.950 . S
C624 C625 1.386 . S
C624 C626 1.391 . S
C625 C624 1.386 . S
C625 C629 1.393 . S
C626 H618 0.950 . S
C626 C624 1.391 . S
C626 C627 1.400 . S
C627 C626 1.400 . S
C627 C628 1.398 . S
C627 C633 1.491 . S
C628 H619 0.950 . S
C628 C627 1.398 . S
C628 C629 1.391 . S
C629 H617 0.950 . S
C629 C625 1.393 . S
C629 C628 1.391 . S
C630 H620 0.950 . S
C630 C631 1.386 . S
C630 C632 1.391 . S
C631 C630 1.386 . S
C631 C635 1.393 . S
C632 H621 0.950 . S
C632 C630 1.391 . S
C632 C633 1.400 . S
C633 C627 1.491 . S
C633 C632 1.400 . S
C633 C634 1.398 . S
C634 H622 0.950 . S
C634 C633 1.398 . S
C634 C635 1.391 . S
C635 H623 0.950 . S
C635 C631 1.393 . S
C635 C634 1.391 . S
H636 C644 0.950 . S
H637 C649 0.950 . S
H638 C646 0.950 . S
H639 C648 0.950 . S
H640 C650 0.950 . S
H641 C652 0.950 . S
H642 C654 0.950 . S
H643 C655 0.950 . S
C644 H636 0.950 . S
C644 C645 1.386 . S
C644 C646 1.391 . S
C645 C644 1.386 . S
C645 C649 1.393 . S
C646 H638 0.950 . S
C646 C644 1.391 . S
C646 C647 1.400 . S
C647 C646 1.400 . S
C647 C648 1.398 . S
C647 C653 1.491 . S
C648 H639 0.950 . S
C648 C647 1.398 . S
C648 C649 1.391 . S
C649 H637 0.950 . S
C649 C645 1.393 . S
C649 C648 1.391 . S
C650 H640 0.950 . S
C650 C651 1.386 . S
C650 C652 1.391 . S
C651 C650 1.386 . S
C651 C655 1.393 . S
C652 H641 0.950 . S
C652 C650 1.391 . S
C652 C653 1.400 . S
C653 C647 1.491 . S
C653 C652 1.400 . S
C653 C654 1.398 . S
C654 H642 0.950 . S
C654 C653 1.398 . S
C654 C655 1.391 . S
C655 H643 0.950 . S
C655 C651 1.393 . S
C655 C654 1.391 . S
H656 C664 0.950 . S
H657 C669 0.950 . S
H658 C666 0.950 . S
H659 C668 0.950 . S
H660 C670 0.950 1_554 S
H661 C672 0.950 . S
H662 C674 0.950 . S
H663 C675 0.950 . S
C664 H656 0.950 . S
C664 C665 1.386 . S
C664 C666 1.391 . S
C665 C664 1.386 . S
C665 C669 1.393 . S
C666 H658 0.950 . S
C666 C664 1.391 . S
C666 C667 1.400 . S
C667 C666 1.400 . S
C667 C668 1.398 . S
C667 C673 1.491 . S
C668 H659 0.950 . S
C668 C667 1.398 . S
C668 C669 1.391 . S
C669 H657 0.950 . S
C669 C665 1.393 . S
C669 C668 1.391 . S
C670 H660 0.950 1_556 S
C670 C671 1.386 . S
C670 C672 1.391 . S
C671 C670 1.386 . S
C671 C675 1.393 . S
C672 H661 0.950 . S
C672 C670 1.391 . S
C672 C673 1.400 . S
C673 C667 1.491 . S
C673 C672 1.400 . S
C673 C674 1.398 . S
C674 H662 0.950 . S
C674 C673 1.398 . S
C674 C675 1.391 . S
C675 H663 0.950 . S
C675 C671 1.393 . S
C675 C674 1.391 . S
H676 C684 0.950 . S
H677 C689 0.950 . S
H678 C686 0.950 . S
H679 C688 0.950 . S
H680 C690 0.950 . S
H681 C692 0.950 . S
H682 C694 0.950 . S
H683 C695 0.950 . S
C684 H676 0.950 . S
C684 C685 1.386 . S
C684 C686 1.391 . S
C685 C684 1.386 . S
C685 C689 1.393 . S
C686 H678 0.950 . S
C686 C684 1.391 . S
C686 C687 1.400 . S
C687 C686 1.400 . S
C687 C688 1.398 . S
C687 C693 1.491 . S
C688 H679 0.950 . S
C688 C687 1.398 . S
C688 C689 1.391 . S
C689 H677 0.950 . S
C689 C685 1.393 . S
C689 C688 1.391 . S
C690 H680 0.950 . S
C690 C691 1.386 . S
C690 C692 1.391 . S
C691 C690 1.386 . S
C691 C695 1.393 . S
C692 H681 0.950 . S
C692 C690 1.391 . S
C692 C693 1.400 . S
C693 C687 1.491 . S
C693 C692 1.400 . S
C693 C694 1.398 . S
C694 H682 0.950 . S
C694 C693 1.398 . S
C694 C695 1.391 . S
C695 H683 0.950 . S
C695 C691 1.393 . S
C695 C694 1.391 . S
H696 C704 0.950 . S
H697 C709 0.950 . S
H698 C706 0.950 . S
H699 C708 0.950 . S
H700 C710 0.950 . S
H701 C712 0.950 . S
H702 C714 0.950 . S
H703 C715 0.950 . S
C704 H696 0.950 . S
C704 C705 1.386 . S
C704 C706 1.391 . S
C705 C704 1.386 . S
C705 C709 1.393 . S
C706 H698 0.950 . S
C706 C704 1.391 . S
C706 C707 1.400 . S
C707 C706 1.400 . S
C707 C708 1.398 . S
C707 C713 1.491 . S
C708 H699 0.950 . S
C708 C707 1.398 . S
C708 C709 1.391 . S
C709 H697 0.950 . S
C709 C705 1.393 . S
C709 C708 1.391 . S
C710 H700 0.950 . S
C710 C711 1.386 . S
C710 C712 1.391 . S
C711 C710 1.386 . S
C711 C715 1.393 . S
C712 H701 0.950 . S
C712 C710 1.391 . S
C712 C713 1.400 . S
C713 C707 1.491 . S
C713 C712 1.400 . S
C713 C714 1.398 . S
C714 H702 0.950 . S
C714 C713 1.398 . S
C714 C715 1.391 . S
C715 H703 0.950 . S
C715 C711 1.393 . S
C715 C714 1.391 . S
H716 C724 0.950 . S
H717 C729 0.950 . S
H718 C726 0.950 . S
H719 C728 0.950 . S
H720 C730 0.950 . S
H721 C732 0.950 . S
H722 C734 0.950 . S
H723 C735 0.950 . S
C724 H716 0.950 . S
C724 C725 1.386 . S
C724 C726 1.391 . S
C725 C724 1.386 . S
C725 C729 1.393 . S
C726 H718 0.950 . S
C726 C724 1.391 . S
C726 C727 1.400 . S
C727 C726 1.400 . S
C727 C728 1.398 . S
C727 C733 1.491 . S
C728 H719 0.950 . S
C728 C727 1.398 . S
C728 C729 1.391 . S
C729 H717 0.950 . S
C729 C725 1.393 . S
C729 C728 1.391 . S
C730 H720 0.950 . S
C730 C731 1.386 . S
C730 C732 1.391 . S
C731 C730 1.386 . S
C731 C735 1.393 . S
C732 H721 0.950 . S
C732 C730 1.391 . S
C732 C733 1.400 . S
C733 C727 1.491 . S
C733 C732 1.400 . S
C733 C734 1.398 . S
C734 H722 0.950 . S
C734 C733 1.398 . S
C734 C735 1.391 . S
C735 H723 0.950 . S
C735 C731 1.393 . S
C735 C734 1.391 . S
H736 C744 0.950 . S
H737 C749 0.950 . S
H738 C746 0.950 . S
H739 C748 0.950 . S
H740 C750 0.950 . S
H741 C752 0.950 . S
H742 C754 0.950 . S
H743 C755 0.950 . S
C744 H736 0.950 . S
C744 C745 1.386 . S
C744 C746 1.391 . S
C745 C744 1.386 . S
C745 C749 1.393 . S
C746 H738 0.950 . S
C746 C744 1.391 . S
C746 C747 1.400 . S
C747 C746 1.400 . S
C747 C748 1.398 . S
C747 C753 1.491 . S
C748 H739 0.950 . S
C748 C747 1.398 . S
C748 C749 1.391 . S
C749 H737 0.950 . S
C749 C745 1.393 . S
C749 C748 1.391 . S
C750 H740 0.950 . S
C750 C751 1.386 . S
C750 C752 1.391 . S
C751 C750 1.386 . S
C751 C755 1.393 . S
C752 H741 0.950 . S
C752 C750 1.391 . S
C752 C753 1.400 . S
C753 C747 1.491 . S
C753 C752 1.400 . S
C753 C754 1.398 . S
C754 H742 0.950 . S
C754 C753 1.398 . S
C754 C755 1.391 . S
C755 H743 0.950 . S
C755 C751 1.393 . S
C755 C754 1.391 . S
H756 C764 0.950 . S
H757 C769 0.950 . S
H758 C766 0.950 . S
H759 C768 0.950 . S
H760 C770 0.950 . S
H761 C772 0.950 . S
H762 C774 0.950 . S
H763 C775 0.950 . S
C764 H756 0.950 . S
C764 C765 1.386 . S
C764 C766 1.391 . S
C765 C764 1.386 . S
C765 C769 1.393 . S
C766 H758 0.950 . S
C766 C764 1.391 . S
C766 C767 1.400 . S
C767 C766 1.400 . S
C767 C768 1.398 . S
C767 C773 1.491 . S
C768 H759 0.950 . S
C768 C767 1.398 . S
C768 C769 1.391 . S
C769 H757 0.950 . S
C769 C765 1.393 . S
C769 C768 1.391 . S
C770 H760 0.950 . S
C770 C771 1.386 . S
C770 C772 1.391 . S
C771 C770 1.386 . S
C771 C775 1.393 . S
C772 H761 0.950 . S
C772 C770 1.391 . S
C772 C773 1.400 . S
C773 C767 1.491 . S
C773 C772 1.400 . S
C773 C774 1.398 . S
C774 H762 0.950 . S
C774 C773 1.398 . S
C774 C775 1.391 . S
C775 H763 0.950 . S
C775 C771 1.393 . S
C775 C774 1.391 . S
H776 C784 0.950 . S
H777 C789 0.950 . S
H778 C786 0.950 . S
H779 C788 0.950 . S
H780 C790 0.950 . S
H781 C792 0.950 . S
H782 C794 0.950 . S
H783 C795 0.950 . S
C784 H776 0.950 . S
C784 C785 1.386 . S
C784 C786 1.391 . S
C785 C784 1.386 . S
C785 C789 1.393 . S
C786 H778 0.950 . S
C786 C784 1.391 . S
C786 C787 1.400 . S
C787 C786 1.400 . S
C787 C788 1.398 . S
C787 C793 1.491 . S
C788 H779 0.950 . S
C788 C787 1.398 . S
C788 C789 1.391 . S
C789 H777 0.950 . S
C789 C785 1.393 . S
C789 C788 1.391 . S
C790 H780 0.950 . S
C790 C791 1.386 . S
C790 C792 1.391 . S
C791 C790 1.386 . S
C791 C795 1.393 . S
C792 H781 0.950 . S
C792 C790 1.391 . S
C792 C793 1.400 . S
C793 C787 1.491 . S
C793 C792 1.400 . S
C793 C794 1.398 . S
C794 H782 0.950 . S
C794 C793 1.398 . S
C794 C795 1.391 . S
C795 H783 0.950 . S
C795 C791 1.393 . S
C795 C794 1.391 . S
H796 C804 0.950 . S
H797 C809 0.950 . S
H798 C806 0.950 . S
H799 C808 0.950 . S
H800 C810 0.950 . S
H801 C812 0.950 . S
H802 C814 0.950 . S
H803 C815 0.950 . S
C804 H796 0.950 . S
C804 C805 1.386 . S
C804 C806 1.391 . S
C805 C804 1.386 . S
C805 C809 1.393 . S
C806 H798 0.950 . S
C806 C804 1.391 . S
C806 C807 1.400 . S
C807 C806 1.400 . S
C807 C808 1.398 . S
C807 C813 1.491 . S
C808 H799 0.950 . S
C808 C807 1.398 . S
C808 C809 1.391 . S
C809 H797 0.950 . S
C809 C805 1.393 . S
C809 C808 1.391 . S
C810 H800 0.950 . S
C810 C811 1.386 . S
C810 C812 1.391 . S
C811 C810 1.386 . S
C811 C815 1.393 . S
C812 H801 0.950 . S
C812 C810 1.391 . S
C812 C813 1.400 . S
C813 C807 1.491 . S
C813 C812 1.400 . S
C813 C814 1.398 . S
C814 H802 0.950 . S
C814 C813 1.398 . S
C814 C815 1.391 . S
C815 H803 0.950 . S
C815 C811 1.393 . S
C815 C814 1.391 . S
H816 C824 0.950 . S
H817 C829 0.950 . S
H818 C826 0.950 . S
H819 C828 0.950 . S
H820 C830 0.950 . S
H821 C832 0.950 . S
H822 C834 0.950 . S
H823 C835 0.950 . S
C824 H816 0.950 . S
C824 C825 1.386 . S
C824 C826 1.391 . S
C825 C824 1.386 . S
C825 C829 1.393 . S
C826 H818 0.950 . S
C826 C824 1.391 . S
C826 C827 1.400 . S
C827 C826 1.400 . S
C827 C828 1.398 . S
C827 C833 1.491 . S
C828 H819 0.950 . S
C828 C827 1.398 . S
C828 C829 1.391 . S
C829 H817 0.950 . S
C829 C825 1.393 . S
C829 C828 1.391 . S
C830 H820 0.950 . S
C830 C831 1.386 . S
C830 C832 1.391 . S
C831 C830 1.386 . S
C831 C835 1.393 . S
C832 H821 0.950 . S
C832 C830 1.391 . S
C832 C833 1.400 . S
C833 C827 1.491 . S
C833 C832 1.400 . S
C833 C834 1.398 . S
C834 H822 0.950 . S
C834 C833 1.398 . S
C834 C835 1.391 . S
C835 H823 0.950 . S
C835 C831 1.393 . S
C835 C834 1.391 . S
H836 C844 0.950 . S
H837 C849 0.950 . S
H838 C846 0.950 . S
H839 C848 0.950 . S
H840 C850 0.950 . S
H841 C852 0.950 . S
H842 C854 0.950 . S
H843 C855 0.950 . S
C844 H836 0.950 . S
C844 C845 1.386 . S
C844 C846 1.391 . S
C845 C844 1.386 . S
C845 C849 1.393 . S
C846 H838 0.950 . S
C846 C844 1.391 . S
C846 C847 1.400 . S
C847 C846 1.400 . S
C847 C848 1.398 . S
C847 C853 1.491 . S
C848 H839 0.950 . S
C848 C847 1.398 . S
C848 C849 1.391 . S
C849 H837 0.950 . S
C849 C845 1.393 . S
C849 C848 1.391 . S
C850 H840 0.950 . S
C850 C851 1.386 . S
C850 C852 1.391 . S
C851 C850 1.386 . S
C851 C855 1.393 . S
C852 H841 0.950 . S
C852 C850 1.391 . S
C852 C853 1.400 . S
C853 C847 1.491 . S
C853 C852 1.400 . S
C853 C854 1.398 . S
C854 H842 0.950 . S
C854 C853 1.398 . S
C854 C855 1.391 . S
C855 H843 0.950 . S
C855 C851 1.393 . S
C855 C854 1.391 . S
H856 C864 0.950 . S
H857 C869 0.950 . S
H858 C866 0.950 . S
H859 C868 0.950 . S
H860 C870 0.950 . S
H861 C872 0.950 . S
H862 C874 0.950 . S
H863 C875 0.950 . S
C864 H856 0.950 . S
C864 C865 1.386 . S
C864 C866 1.391 . S
C865 C864 1.386 . S
C865 C869 1.393 . S
C866 H858 0.950 . S
C866 C864 1.391 . S
C866 C867 1.400 . S
C867 C866 1.400 . S
C867 C868 1.398 . S
C867 C873 1.491 . S
C868 H859 0.950 . S
C868 C867 1.398 . S
C868 C869 1.391 . S
C869 H857 0.950 . S
C869 C865 1.393 . S
C869 C868 1.391 . S
C870 H860 0.950 . S
C870 C871 1.386 . S
C870 C872 1.391 . S
C871 C870 1.386 . S
C871 C875 1.393 . S
C872 H861 0.950 . S
C872 C870 1.391 . S
C872 C873 1.400 . S
C873 C867 1.491 . S
C873 C872 1.400 . S
C873 C874 1.398 . S
C874 H862 0.950 . S
C874 C873 1.398 . S
C874 C875 1.391 . S
C875 H863 0.950 . S
C875 C871 1.393 . S
C875 C874 1.391 . S
H876 C884 0.950 . S
H877 C889 0.950 . S
H878 C886 0.950 . S
H879 C888 0.950 . S
H880 C890 0.950 . S
H881 C892 0.950 . S
H882 C894 0.950 . S
H883 C895 0.950 . S
C884 H876 0.950 . S
C884 C885 1.386 . S
C884 C886 1.391 . S
C885 C884 1.386 . S
C885 C889 1.393 . S
C886 H878 0.950 . S
C886 C884 1.391 . S
C886 C887 1.400 . S
C887 C886 1.400 . S
C887 C888 1.398 . S
C887 C893 1.491 . S
C888 H879 0.950 . S
C888 C887 1.398 . S
C888 C889 1.391 . S
C889 H877 0.950 . S
C889 C885 1.393 . S
C889 C888 1.391 . S
C890 H880 0.950 . S
C890 C891 1.386 . S
C890 C892 1.391 . S
C891 C890 1.386 . S
C891 C895 1.393 . S
C892 H881 0.950 . S
C892 C890 1.391 . S
C892 C893 1.400 . S
C893 C887 1.491 . S
C893 C892 1.400 . S
C893 C894 1.398 . S
C894 H882 0.950 . S
C894 C893 1.398 . S
C894 C895 1.391 . S
C895 H883 0.950 . S
C895 C891 1.393 . S
C895 C894 1.391 . S
H896 C904 0.950 . S
H897 C909 0.950 . S
H898 C906 0.950 . S
H899 C908 0.950 . S
H900 C910 0.950 . S
H901 C912 0.950 . S
H902 C914 0.950 . S
H903 C915 0.950 . S
C904 H896 0.950 . S
C904 C905 1.386 . S
C904 C906 1.391 . S
C905 C904 1.386 . S
C905 C909 1.393 . S
C906 H898 0.950 . S
C906 C904 1.391 . S
C906 C907 1.400 . S
C907 C906 1.400 . S
C907 C908 1.398 . S
C907 C913 1.491 . S
C908 H899 0.950 . S
C908 C907 1.398 . S
C908 C909 1.391 . S
C909 H897 0.950 . S
C909 C905 1.393 . S
C909 C908 1.391 . S
C910 H900 0.950 . S
C910 C911 1.386 . S
C910 C912 1.391 . S
C911 C910 1.386 . S
C911 C915 1.393 . S
C912 H901 0.950 . S
C912 C910 1.391 . S
C912 C913 1.400 . S
C913 C907 1.491 . S
C913 C912 1.400 . S
C913 C914 1.398 . S
C914 H902 0.950 . S
C914 C913 1.398 . S
C914 C915 1.391 . S
C915 H903 0.950 . S
C915 C911 1.393 . S
C915 C914 1.391 . S
H916 C924 0.950 . S
H917 C929 0.950 . S
H918 C926 0.950 . S
H919 C928 0.950 . S
H920 C930 0.950 . S
H921 C932 0.950 . S
H922 C934 0.950 . S
H923 C935 0.950 . S
C924 H916 0.950 . S
C924 C925 1.386 . S
C924 C926 1.391 . S
C925 C924 1.386 . S
C925 C929 1.393 . S
C926 H918 0.950 . S
C926 C924 1.391 . S
C926 C927 1.400 . S
C927 C926 1.400 . S
C927 C928 1.398 . S
C927 C933 1.491 . S
C928 H919 0.950 . S
C928 C927 1.398 . S
C928 C929 1.391 . S
C929 H917 0.950 . S
C929 C925 1.393 . S
C929 C928 1.391 . S
C930 H920 0.950 . S
C930 C931 1.386 . S
C930 C932 1.391 . S
C931 C930 1.386 . S
C931 C935 1.393 . S
C932 H921 0.950 . S
C932 C930 1.391 . S
C932 C933 1.400 . S
C933 C927 1.491 . S
C933 C932 1.400 . S
C933 C934 1.398 . S
C934 H922 0.950 . S
C934 C933 1.398 . S
C934 C935 1.391 . S
C935 H923 0.950 . S
C935 C931 1.393 . S
C935 C934 1.391 . S
H936 C944 0.950 . S
H937 C949 0.950 . S
H938 C946 0.950 . S
H939 C948 0.950 . S
H940 C950 0.950 . S
H941 C952 0.950 . S
H942 C954 0.950 . S
H943 C955 0.950 . S
C944 H936 0.950 . S
C944 C945 1.386 . S
C944 C946 1.391 . S
C945 C944 1.386 . S
C945 C949 1.393 . S
C946 H938 0.950 . S
C946 C944 1.391 . S
C946 C947 1.400 . S
C947 C946 1.400 . S
C947 C948 1.398 . S
C947 C953 1.491 . S
C948 H939 0.950 . S
C948 C947 1.398 . S
C948 C949 1.391 . S
C949 H937 0.950 . S
C949 C945 1.393 . S
C949 C948 1.391 . S
C950 H940 0.950 . S
C950 C951 1.386 . S
C950 C952 1.391 . S
C951 C950 1.386 . S
C951 C955 1.393 . S
C952 H941 0.950 . S
C952 C950 1.391 . S
C952 C953 1.400 . S
C953 C947 1.491 . S
C953 C952 1.400 . S
C953 C954 1.398 . S
C954 H942 0.950 . S
C954 C953 1.398 . S
C954 C955 1.391 . S
C955 H943 0.950 . S
C955 C951 1.393 . S
C955 C954 1.391 . S
H956 C964 0.950 . S
H957 C969 0.950 . S
H958 C966 0.950 . S
H959 C968 0.950 . S
H960 C970 0.950 . S
H961 C972 0.950 . S
H962 C974 0.950 . S
H963 C975 0.950 . S
C964 H956 0.950 . S
C964 C965 1.386 . S
C964 C966 1.391 . S
C965 C964 1.386 . S
C965 C969 1.393 . S
C966 H958 0.950 . S
C966 C964 1.391 . S
C966 C967 1.400 . S
C967 C966 1.400 . S
C967 C968 1.398 . S
C967 C973 1.491 . S
C968 H959 0.950 . S
C968 C967 1.398 . S
C968 C969 1.391 . S
C969 H957 0.950 . S
C969 C965 1.393 . S
C969 C968 1.391 . S
C970 H960 0.950 . S
C970 C971 1.386 . S
C970 C972 1.391 . S
C971 C970 1.386 . S
C971 C975 1.393 . S
C972 H961 0.950 . S
C972 C970 1.391 . S
C972 C973 1.400 . S
C973 C967 1.491 . S
C973 C972 1.400 . S
C973 C974 1.398 . S
C974 H962 0.950 . S
C974 C973 1.398 . S
C974 C975 1.391 . S
C975 H963 0.950 . S
C975 C971 1.393 . S
C975 C974 1.391 . S
H976 C984 0.950 . S
H977 C989 0.950 . S
H978 C986 0.950 . S
H979 C988 0.950 . S
H980 C990 0.950 . S
H981 C992 0.950 . S
H982 C994 0.950 . S
H983 C995 0.950 . S
C984 H976 0.950 . S
C984 C985 1.386 . S
C984 C986 1.391 . S
C985 C984 1.386 . S
C985 C989 1.393 . S
C986 H978 0.950 . S
C986 C984 1.391 . S
C986 C987 1.400 . S
C987 C986 1.400 . S
C987 C988 1.398 . S
C987 C993 1.491 . S
C988 H979 0.950 . S
C988 C987 1.398 . S
C988 C989 1.391 . S
C989 H977 0.950 . S
C989 C985 1.393 . S
C989 C988 1.391 . S
C990 H980 0.950 . S
C990 C991 1.386 . S
C990 C992 1.391 . S
C991 C990 1.386 . S
C991 C995 1.393 . S
C992 H981 0.950 . S
C992 C990 1.391 . S
C992 C993 1.400 . S
C993 C987 1.491 . S
C993 C992 1.400 . S
C993 C994 1.398 . S
C994 H982 0.950 . S
C994 C993 1.398 . S
C994 C995 1.391 . S
C995 H983 0.950 . S
C995 C991 1.393 . S
C995 C994 1.391 . S
H996 C1004 0.950 . S
H997 C1009 0.950 . S
H998 C1006 0.950 . S
H999 C1008 0.950 . S
H1000 C1010 0.950 . S
H1001 C1012 0.950 . S
H1002 C1014 0.950 . S
H1003 C1015 0.950 . S
C1004 H996 0.950 . S
C1004 C1005 1.386 1_655 S
C1004 C1006 1.391 . S
C1005 C1004 1.386 1_455 S
C1005 C1009 1.393 . S
C1006 H998 0.950 . S
C1006 C1004 1.391 . S
C1006 C1007 1.367 1_655 S
C1007 C1006 1.367 1_455 S
C1007 C1008 1.412 . S
C1007 C1013 1.531 1_455 S
C1008 H999 0.950 . S
C1008 C1007 1.412 . S
C1008 C1009 1.391 . S
C1009 H997 0.950 . S
C1009 C1005 1.393 . S
C1009 C1008 1.391 . S
C1010 H1000 0.950 . S
C1010 C1011 1.386 1_455 S
C1010 C1012 1.391 . S
C1011 C1010 1.386 1_655 S
C1011 C1015 1.393 . S
C1012 H1001 0.950 . S
C1012 C1010 1.391 . S
C1012 C1013 1.368 1_455 S
C1013 C1007 1.531 1_655 S
C1013 C1012 1.368 1_655 S
C1013 C1014 1.412 . S
C1014 H1002 0.950 . S
C1014 C1013 1.412 . S
C1014 C1015 1.391 . S
C1015 H1003 0.950 . S
C1015 C1011 1.393 . S
C1015 C1014 1.391 . S
H1016 C1024 0.950 . S
H1017 C1029 0.950 . S
H1018 C1026 0.950 . S
H1019 C1028 0.950 . S
H1020 C1030 0.950 . S
H1021 C1032 0.950 . S
H1022 C1034 0.950 . S
H1023 C1035 0.950 . S
C1024 H1016 0.950 . S
C1024 C1025 1.386 . S
C1024 C1026 1.391 . S
C1025 C1024 1.386 . S
C1025 C1029 1.393 . S
C1026 H1018 0.950 . S
C1026 C1024 1.391 . S
C1026 C1027 1.400 . S
C1027 C1026 1.400 . S
C1027 C1028 1.398 . S
C1027 C1033 1.491 . S
C1028 H1019 0.950 . S
C1028 C1027 1.398 . S
C1028 C1029 1.391 . S
C1029 H1017 0.950 . S
C1029 C1025 1.393 . S
C1029 C1028 1.391 . S
C1030 H1020 0.950 . S
C1030 C1031 1.386 . S
C1030 C1032 1.391 . S
C1031 C1030 1.386 . S
C1031 C1035 1.393 . S
C1032 H1021 0.950 . S
C1032 C1030 1.391 . S
C1032 C1033 1.400 . S
C1033 C1027 1.491 . S
C1033 C1032 1.400 . S
C1033 C1034 1.398 . S
C1034 H1022 0.950 . S
C1034 C1033 1.398 . S
C1034 C1035 1.391 . S
C1035 H1023 0.950 . S
C1035 C1031 1.393 . S
C1035 C1034 1.391 . S
H1036 C1044 0.950 . S
H1037 C1049 0.950 . S
H1038 C1046 0.950 . S
H1039 C1048 0.950 . S
H1040 C1050 0.950 . S
H1041 C1052 0.950 . S
H1042 C1054 0.950 . S
H1043 C1055 0.950 . S
C1044 H1036 0.950 . S
C1044 C1045 1.386 . S
C1044 C1046 1.391 . S
C1045 C1044 1.386 . S
C1045 C1049 1.393 1_545 S
C1046 H1038 0.950 . S
C1046 C1044 1.391 . S
C1046 C1047 1.426 . S
C1047 C1046 1.426 . S
C1047 C1048 1.393 1_545 S
C1047 C1053 1.452 1_545 S
C1048 H1039 0.950 . S
C1048 C1047 1.393 1_565 S
C1048 C1049 1.391 . S
C1049 H1037 0.950 . S
C1049 C1045 1.393 1_565 S
C1049 C1048 1.391 . S
C1050 H1040 0.950 . S
C1050 C1051 1.386 . S
C1050 C1052 1.391 . S
C1051 C1050 1.386 . S
C1051 C1055 1.393 1_565 S
C1052 H1041 0.950 . S
C1052 C1050 1.391 . S
C1052 C1053 1.428 . S
C1053 C1047 1.452 1_565 S
C1053 C1052 1.428 . S
C1053 C1054 1.392 1_565 S
C1054 H1042 0.950 . S
C1054 C1053 1.392 1_545 S
C1054 C1055 1.391 . S
C1055 H1043 0.950 . S
C1055 C1051 1.393 1_545 S
C1055 C1054 1.391 . S
H1056 C1064 0.950 . S
H1057 C1069 0.950 . S
H1058 C1066 0.950 . S
H1059 C1068 0.950 . S
H1060 C1070 0.950 . S
H1061 C1072 0.950 . S
H1062 C1074 0.950 . S
H1063 C1075 0.950 . S
C1064 H1056 0.950 . S
C1064 C1065 1.386 . S
C1064 C1066 1.391 . S
C1065 C1064 1.386 . S
C1065 C1069 1.393 1_546 S
C1066 H1058 0.950 . S
C1066 C1064 1.391 . S
C1066 C1067 1.412 . S
C1067 C1066 1.412 . S
C1067 C1068 1.370 1_546 S
C1067 C1073 1.525 1_546 S
C1068 H1059 0.950 . S
C1068 C1067 1.370 1_564 S
C1068 C1069 1.391 . S
C1069 H1057 0.950 . S
C1069 C1065 1.393 1_564 S
C1069 C1068 1.391 . S
C1070 H1060 0.950 . S
C1070 C1071 1.386 . S
C1070 C1072 1.391 . S
C1071 C1070 1.386 . S
C1071 C1075 1.393 1_564 S
C1072 H1061 0.950 . S
C1072 C1070 1.391 . S
C1072 C1073 1.413 . S
C1073 C1067 1.525 1_564 S
C1073 C1072 1.413 . S
C1073 C1074 1.368 1_564 S
C1074 H1062 0.950 . S
C1074 C1073 1.368 1_546 S
C1074 C1075 1.391 . S
C1075 H1063 0.950 . S
C1075 C1071 1.393 1_546 S
C1075 C1074 1.391 . S
H1076 C1084 0.950 . S
H1077 C1089 0.950 . S
H1078 C1086 0.950 . S
H1079 C1088 0.950 . S
H1080 C1090 0.950 . S
H1081 C1092 0.950 . S
H1082 C1094 0.950 . S
H1083 C1095 0.950 . S
C1084 H1076 0.950 . S
C1084 C1085 1.386 1_554 S
C1084 C1086 1.391 . S
C1085 C1084 1.386 1_556 S
C1085 C1089 1.393 1_655 S
C1086 H1078 0.950 . S
C1086 C1084 1.391 . S
C1086 C1087 1.468 1_554 S
C1087 C1086 1.468 1_556 S
C1087 C1088 1.381 1_655 S
C1087 C1093 1.404 1_656 S
C1088 H1079 0.950 . S
C1088 C1087 1.381 1_455 S
C1088 C1089 1.391 . S
C1089 H1077 0.950 . S
C1089 C1085 1.393 1_455 S
C1089 C1088 1.391 . S
C1090 H1080 0.950 . S
C1090 C1091 1.386 1_556 S
C1090 C1092 1.391 . S
C1091 C1090 1.386 1_554 S
C1091 C1095 1.393 1_455 S
C1092 H1081 0.950 . S
C1092 C1090 1.391 . S
C1092 C1093 1.469 1_556 S
C1093 C1087 1.404 1_454 S
C1093 C1092 1.469 1_554 S
C1093 C1094 1.381 1_455 S
C1094 H1082 0.950 . S
C1094 C1093 1.381 1_655 S
C1094 C1095 1.391 . S
C1095 H1083 0.950 . S
C1095 C1091 1.393 1_655 S
C1095 C1094 1.391 . S
H1096 C1104 0.950 . S
H1097 C1109 0.950 . S
H1098 C1106 0.950 . S
H1099 C1108 0.950 . S
H1100 C1110 0.950 . S
H1101 C1112 0.950 . S
H1102 C1114 0.950 . S
H1103 C1115 0.950 . S
C1104 H1096 0.950 . S
C1104 C1105 1.386 1_554 S
C1104 C1106 1.391 . S
C1105 C1104 1.386 1_556 S
C1105 C1109 1.393 . S
C1106 H1098 0.950 . S
C1106 C1104 1.391 . S
C1106 C1107 1.400 1_554 S
C1107 C1106 1.400 1_556 S
C1107 C1108 1.398 . S
C1107 C1113 1.491 1_556 S
C1108 H1099 0.950 . S
C1108 C1107 1.398 . S
C1108 C1109 1.391 . S
C1109 H1097 0.950 . S
C1109 C1105 1.393 . S
C1109 C1108 1.391 . S
C1110 H1100 0.950 . S
C1110 C1111 1.386 1_556 S
C1110 C1112 1.391 . S
C1111 C1110 1.386 1_554 S
C1111 C1115 1.393 . S
C1112 H1101 0.950 . S
C1112 C1110 1.391 . S
C1112 C1113 1.400 1_556 S
C1113 C1107 1.491 1_554 S
C1113 C1112 1.400 1_554 S
C1113 C1114 1.398 . S
C1114 H1102 0.950 . S
C1114 C1113 1.398 . S
C1114 C1115 1.391 . S
C1115 H1103 0.950 . S
C1115 C1111 1.393 . S
C1115 C1114 1.391 . S
H1116 C1124 0.950 1_554 S
H1117 C1129 0.950 . S
H1118 C1126 0.950 . S
H1119 C1128 0.950 . S
H1120 C1130 0.950 . S
H1121 C1132 0.950 . S
H1122 C1134 0.950 . S
H1123 C1135 0.950 . S
C1124 H1116 0.950 1_556 S
C1124 C1125 1.386 1_556 S
C1124 C1126 1.391 . S
C1125 C1124 1.386 1_554 S
C1125 C1129 1.393 . S
C1126 H1118 0.950 . S
C1126 C1124 1.391 . S
C1126 C1127 1.400 . S
C1127 C1126 1.400 . S
C1127 C1128 1.398 . S
C1127 C1133 1.491 . S
C1128 H1119 0.950 . S
C1128 C1127 1.398 . S
C1128 C1129 1.391 1_556 S
C1129 H1117 0.950 . S
C1129 C1125 1.393 . S
C1129 C1128 1.391 1_554 S
C1130 H1120 0.950 . S
C1130 C1131 1.386 . S
C1130 C1132 1.391 . S
C1131 C1130 1.386 . S
C1131 C1135 1.393 . S
C1132 H1121 0.950 . S
C1132 C1130 1.391 . S
C1132 C1133 1.400 . S
C1133 C1127 1.491 . S
C1133 C1132 1.400 . S
C1133 C1134 1.398 . S
C1134 H1122 0.950 . S
C1134 C1133 1.398 . S
C1134 C1135 1.391 . S
C1135 H1123 0.950 . S
C1135 C1131 1.393 . S
C1135 C1134 1.391 . S
H1136 C1144 0.950 . S
H1137 C1149 0.950 . S
H1138 C1146 0.950 . S
H1139 C1148 0.950 . S
H1140 C1150 0.949 1_554 S
H1141 C1152 0.950 . S
H1142 C1154 0.950 . S
H1143 C1155 0.950 . S
C1144 H1136 0.950 . S
C1144 C1145 1.386 . S
C1144 C1146 1.391 . S
C1145 C1144 1.386 . S
C1145 C1149 1.393 . S
C1146 H1138 0.950 . S
C1146 C1144 1.391 . S
C1146 C1147 1.400 . S
C1147 C1146 1.400 . S
C1147 C1148 1.398 . S
C1147 C1153 1.491 . S
C1148 H1139 0.950 . S
C1148 C1147 1.398 . S
C1148 C1149 1.391 . S
C1149 H1137 0.950 . S
C1149 C1145 1.393 . S
C1149 C1148 1.391 . S
C1150 H1140 0.949 1_556 S
C1150 C1151 1.385 1_556 S
C1150 C1152 1.393 . S
C1151 C1150 1.385 1_554 S
C1151 C1155 1.393 . S
C1152 H1141 0.950 . S
C1152 C1150 1.393 . S
C1152 C1153 1.400 . S
C1153 C1147 1.491 . S
C1153 C1152 1.400 . S
C1153 C1154 1.398 . S
C1154 H1142 0.950 . S
C1154 C1153 1.398 . S
C1154 C1155 1.391 1_556 S
C1155 H1143 0.950 . S
C1155 C1151 1.393 . S
C1155 C1154 1.391 1_554 S
H1156 C1164 0.950 . S
H1157 C1169 0.950 . S
H1158 C1166 0.950 . S
H1159 C1168 0.950 . S
H1160 C1170 0.950 . S
H1161 C1172 0.950 . S
H1162 C1174 0.950 . S
H1163 C1175 0.950 . S
C1164 H1156 0.950 . S
C1164 C1165 1.386 . S
C1164 C1166 1.391 . S
C1165 C1164 1.386 . S
C1165 C1169 1.393 . S
C1166 H1158 0.950 . S
C1166 C1164 1.391 . S
C1166 C1167 1.400 . S
C1167 C1166 1.400 . S
C1167 C1168 1.398 . S
C1167 C1173 1.491 . S
C1168 H1159 0.950 . S
C1168 C1167 1.398 . S
C1168 C1169 1.391 . S
C1169 H1157 0.950 . S
C1169 C1165 1.393 . S
C1169 C1168 1.391 . S
C1170 H1160 0.950 . S
C1170 C1171 1.386 . S
C1170 C1172 1.391 1_554 S
C1171 C1170 1.386 . S
C1171 C1175 1.393 . S
C1172 H1161 0.950 . S
C1172 C1170 1.391 1_556 S
C1172 C1173 1.400 . S
C1173 C1167 1.491 . S
C1173 C1172 1.400 . S
C1173 C1174 1.398 . S
C1174 H1162 0.950 . S
C1174 C1173 1.398 . S
C1174 C1175 1.391 1_556 S
C1175 H1163 0.950 . S
C1175 C1171 1.393 . S
C1175 C1174 1.391 1_554 S
H1176 C1184 0.950 . S
H1177 C1189 0.950 . S
H1178 C1186 0.950 . S
H1179 C1188 0.950 . S
H1180 C1190 0.950 . S
H1181 C1192 0.950 . S
H1182 C1194 0.950 . S
H1183 C1195 0.950 . S
C1184 H1176 0.950 . S
C1184 C1185 1.386 . S
C1184 C1186 1.391 . S
C1185 C1184 1.386 . S
C1185 C1189 1.393 . S
C1186 H1178 0.950 . S
C1186 C1184 1.391 . S
C1186 C1187 1.400 . S
C1187 C1186 1.400 . S
C1187 C1188 1.398 . S
C1187 C1193 1.491 . S
C1188 H1179 0.950 . S
C1188 C1187 1.398 . S
C1188 C1189 1.391 . S
C1189 H1177 0.950 . S
C1189 C1185 1.393 . S
C1189 C1188 1.391 . S
C1190 H1180 0.950 . S
C1190 C1191 1.386 . S
C1190 C1192 1.391 . S
C1191 C1190 1.386 . S
C1191 C1195 1.393 . S
C1192 H1181 0.950 . S
C1192 C1190 1.391 . S
C1192 C1193 1.400 . S
C1193 C1187 1.491 . S
C1193 C1192 1.400 . S
C1193 C1194 1.398 . S
C1194 H1182 0.950 . S
C1194 C1193 1.398 . S
C1194 C1195 1.391 . S
C1195 H1183 0.950 . S
C1195 C1191 1.393 . S
C1195 C1194 1.391 . S
H1196 C1204 0.950 . S
H1197 C1209 0.950 . S
H1198 C1206 0.950 . S
H1199 C1208 0.950 . S
H1200 C1210 0.950 . S
H1201 C1212 0.950 . S
H1202 C1214 0.950 . S
H1203 C1215 0.950 . S
C1204 H1196 0.950 . S
C1204 C1205 1.386 . S
C1204 C1206 1.391 . S
C1205 C1204 1.386 . S
C1205 C1209 1.393 . S
C1206 H1198 0.950 . S
C1206 C1204 1.391 . S
C1206 C1207 1.400 . S
C1207 C1206 1.400 . S
C1207 C1208 1.398 . S
C1207 C1213 1.491 . S
C1208 H1199 0.950 . S
C1208 C1207 1.398 . S
C1208 C1209 1.391 . S
C1209 H1197 0.950 . S
C1209 C1205 1.393 . S
C1209 C1208 1.391 . S
C1210 H1200 0.950 . S
C1210 C1211 1.386 . S
C1210 C1212 1.391 . S
C1211 C1210 1.386 . S
C1211 C1215 1.393 . S
C1212 H1201 0.950 . S
C1212 C1210 1.391 . S
C1212 C1213 1.400 . S
C1213 C1207 1.491 . S
C1213 C1212 1.400 . S
C1213 C1214 1.398 . S
C1214 H1202 0.950 . S
C1214 C1213 1.398 . S
C1214 C1215 1.391 . S
C1215 H1203 0.950 . S
C1215 C1211 1.393 . S
C1215 C1214 1.391 . S
H1216 C1224 0.950 . S
H1217 C1229 0.950 . S
H1218 C1226 0.950 . S
H1219 C1228 0.950 . S
H1220 C1230 0.950 . S
H1221 C1232 0.950 . S
H1222 C1234 0.950 . S
H1223 C1235 0.950 . S
C1224 H1216 0.950 . S
C1224 C1225 1.386 . S
C1224 C1226 1.391 . S
C1225 C1224 1.386 . S
C1225 C1229 1.393 . S
C1226 H1218 0.950 . S
C1226 C1224 1.391 . S
C1226 C1227 1.400 . S
C1227 C1226 1.400 . S
C1227 C1228 1.398 . S
C1227 C1233 1.491 . S
C1228 H1219 0.950 . S
C1228 C1227 1.398 . S
C1228 C1229 1.391 . S
C1229 H1217 0.950 . S
C1229 C1225 1.393 . S
C1229 C1228 1.391 . S
C1230 H1220 0.950 . S
C1230 C1231 1.386 . S
C1230 C1232 1.391 . S
C1231 C1230 1.386 . S
C1231 C1235 1.393 . S
C1232 H1221 0.950 . S
C1232 C1230 1.391 . S
C1232 C1233 1.400 . S
C1233 C1227 1.491 . S
C1233 C1232 1.400 . S
C1233 C1234 1.398 . S
C1234 H1222 0.950 . S
C1234 C1233 1.398 . S
C1234 C1235 1.391 . S
C1235 H1223 0.950 . S
C1235 C1231 1.393 . S
C1235 C1234 1.391 . S
H1236 C1244 0.950 . S
H1237 C1249 0.950 . S
H1238 C1246 0.950 . S
H1239 C1248 0.950 . S
H1240 C1250 0.950 . S
H1241 C1252 0.950 . S
H1242 C1254 0.950 . S
H1243 C1255 0.950 1_556 S
C1244 H1236 0.950 . S
C1244 C1245 1.386 . S
C1244 C1246 1.391 . S
C1245 C1244 1.386 . S
C1245 C1249 1.393 . S
C1246 H1238 0.950 . S
C1246 C1244 1.391 . S
C1246 C1247 1.400 . S
C1247 C1246 1.400 . S
C1247 C1248 1.398 . S
C1247 C1253 1.491 . S
C1248 H1239 0.950 . S
C1248 C1247 1.398 . S
C1248 C1249 1.391 . S
C1249 H1237 0.950 . S
C1249 C1245 1.393 . S
C1249 C1248 1.391 . S
C1250 H1240 0.950 . S
C1250 C1251 1.386 . S
C1250 C1252 1.391 1_556 S
C1251 C1250 1.386 . S
C1251 C1255 1.393 1_556 S
C1252 H1241 0.950 . S
C1252 C1250 1.391 1_554 S
C1252 C1253 1.400 . S
C1253 C1247 1.491 . S
C1253 C1252 1.400 . S
C1253 C1254 1.398 . S
C1254 H1242 0.950 . S
C1254 C1253 1.398 . S
C1254 C1255 1.391 . S
C1255 H1243 0.950 1_554 S
C1255 C1251 1.393 1_554 S
C1255 C1254 1.391 . S
H1256 C1264 0.950 . S
H1257 C1269 0.950 . S
H1258 C1266 0.950 . S
H1259 C1268 0.950 . S
H1260 C1270 0.950 . S
H1261 C1272 0.950 . S
H1262 C1274 0.950 . S
H1263 C1275 0.950 . S
C1264 H1256 0.950 . S
C1264 C1265 1.386 . S
C1264 C1266 1.391 1_556 S
C1265 C1264 1.386 . S
C1265 C1269 1.393 . S
C1266 H1258 0.950 . S
C1266 C1264 1.391 1_554 S
C1266 C1267 1.400 . S
C1267 C1266 1.400 . S
C1267 C1268 1.398 . S
C1267 C1273 1.491 . S
C1268 H1259 0.950 . S
C1268 C1267 1.398 . S
C1268 C1269 1.391 1_554 S
C1269 H1257 0.950 . S
C1269 C1265 1.393 . S
C1269 C1268 1.391 1_556 S
C1270 H1260 0.950 . S
C1270 C1271 1.386 . S
C1270 C1272 1.391 . S
C1271 C1270 1.386 . S
C1271 C1275 1.393 . S
C1272 H1261 0.950 . S
C1272 C1270 1.391 . S
C1272 C1273 1.400 . S
C1273 C1267 1.491 . S
C1273 C1272 1.400 . S
C1273 C1274 1.398 . S
C1274 H1262 0.950 . S
C1274 C1273 1.398 . S
C1274 C1275 1.391 . S
C1275 H1263 0.950 . S
C1275 C1271 1.393 . S
C1275 C1274 1.391 . S
H1276 C1284 0.950 . S
H1277 C1289 0.950 . S
H1278 C1286 0.950 . S
H1279 C1288 0.950 . S
H1280 C1290 0.950 . S
H1281 C1292 0.950 . S
H1282 C1294 0.950 . S
H1283 C1295 0.950 . S
C1284 H1276 0.950 . S
C1284 C1285 1.386 . S
C1284 C1286 1.391 . S
C1285 C1284 1.386 . S
C1285 C1289 1.393 . S
C1286 H1278 0.950 . S
C1286 C1284 1.391 . S
C1286 C1287 1.400 . S
C1287 C1286 1.400 . S
C1287 C1288 1.398 . S
C1287 C1293 1.491 . S
C1288 H1279 0.950 . S
C1288 C1287 1.398 . S
C1288 C1289 1.391 . S
C1289 H1277 0.950 . S
C1289 C1285 1.393 . S
C1289 C1288 1.391 . S
C1290 H1280 0.950 . S
C1290 C1291 1.386 . S
C1290 C1292 1.391 1_556 S
C1291 C1290 1.386 . S
C1291 C1295 1.393 . S
C1292 H1281 0.950 . S
C1292 C1290 1.391 1_554 S
C1292 C1293 1.400 . S
C1293 C1287 1.491 . S
C1293 C1292 1.400 . S
C1293 C1294 1.398 . S
C1294 H1282 0.950 . S
C1294 C1293 1.398 . S
C1294 C1295 1.391 1_554 S
C1295 H1283 0.950 . S
C1295 C1291 1.393 . S
C1295 C1294 1.391 1_556 S
H1296 C1304 0.950 . S
H1297 C1309 0.950 . S
H1298 C1306 0.950 . S
H1299 C1308 0.950 . S
H1300 C1310 0.950 . S
H1301 C1312 0.950 . S
H1302 C1314 0.950 . S
H1303 C1315 0.950 . S
C1304 H1296 0.950 . S
C1304 C1305 1.386 . S
C1304 C1306 1.391 . S
C1305 C1304 1.386 . S
C1305 C1309 1.393 . S
C1306 H1298 0.950 . S
C1306 C1304 1.391 . S
C1306 C1307 1.400 . S
C1307 C1306 1.400 . S
C1307 C1308 1.398 . S
C1307 C1313 1.491 . S
C1308 H1299 0.950 . S
C1308 C1307 1.398 . S
C1308 C1309 1.391 . S
C1309 H1297 0.950 . S
C1309 C1305 1.393 . S
C1309 C1308 1.391 . S
C1310 H1300 0.950 . S
C1310 C1311 1.386 . S
C1310 C1312 1.391 . S
C1311 C1310 1.386 . S
C1311 C1315 1.393 . S
C1312 H1301 0.950 . S
C1312 C1310 1.391 . S
C1312 C1313 1.400 . S
C1313 C1307 1.491 . S
C1313 C1312 1.400 . S
C1313 C1314 1.398 . S
C1314 H1302 0.950 . S
C1314 C1313 1.398 . S
C1314 C1315 1.391 . S
C1315 H1303 0.950 . S
C1315 C1311 1.393 . S
C1315 C1314 1.391 . S
H1316 C1324 0.950 . S
H1317 C1329 0.950 . S
H1318 C1326 0.950 . S
H1319 C1328 0.950 . S
H1320 C1330 0.950 . S
H1321 C1332 0.950 . S
H1322 C1334 0.950 . S
H1323 C1335 0.950 . S
C1324 H1316 0.950 . S
C1324 C1325 1.386 . S
C1324 C1326 1.391 . S
C1325 C1324 1.386 . S
C1325 C1329 1.393 . S
C1326 H1318 0.950 . S
C1326 C1324 1.391 . S
C1326 C1327 1.400 . S
C1327 C1326 1.400 . S
C1327 C1328 1.398 . S
C1327 C1333 1.491 . S
C1328 H1319 0.950 . S
C1328 C1327 1.398 . S
C1328 C1329 1.391 . S
C1329 H1317 0.950 . S
C1329 C1325 1.393 . S
C1329 C1328 1.391 . S
C1330 H1320 0.950 . S
C1330 C1331 1.386 . S
C1330 C1332 1.391 . S
C1331 C1330 1.386 . S
C1331 C1335 1.393 . S
C1332 H1321 0.950 . S
C1332 C1330 1.391 . S
C1332 C1333 1.400 . S
C1333 C1327 1.491 . S
C1333 C1332 1.400 . S
C1333 C1334 1.398 . S
C1334 H1322 0.950 . S
C1334 C1333 1.398 . S
C1334 C1335 1.391 . S
C1335 H1323 0.950 . S
C1335 C1331 1.393 . S
C1335 C1334 1.391 . S
H1336 C1344 0.950 . S
H1337 C1349 0.950 . S
H1338 C1346 0.950 . S
H1339 C1348 0.950 . S
H1340 C1350 0.950 . S
H1341 C1352 0.950 . S
H1342 C1354 0.950 . S
H1343 C1355 0.950 . S
C1344 H1336 0.950 . S
C1344 C1345 1.386 . S
C1344 C1346 1.391 . S
C1345 C1344 1.386 . S
C1345 C1349 1.393 . S
C1346 H1338 0.950 . S
C1346 C1344 1.391 . S
C1346 C1347 1.400 . S
C1347 C1346 1.400 . S
C1347 C1348 1.398 . S
C1347 C1353 1.491 . S
C1348 H1339 0.950 . S
C1348 C1347 1.398 . S
C1348 C1349 1.391 . S
C1349 H1337 0.950 . S
C1349 C1345 1.393 . S
C1349 C1348 1.391 . S
C1350 H1340 0.950 . S
C1350 C1351 1.386 . S
C1350 C1352 1.391 . S
C1351 C1350 1.386 . S
C1351 C1355 1.393 . S
C1352 H1341 0.950 . S
C1352 C1350 1.391 . S
C1352 C1353 1.400 . S
C1353 C1347 1.491 . S
C1353 C1352 1.400 . S
C1353 C1354 1.398 . S
C1354 H1342 0.950 . S
C1354 C1353 1.398 . S
C1354 C1355 1.391 . S
C1355 H1343 0.950 . S
C1355 C1351 1.393 . S
C1355 C1354 1.391 . S
H1356 C1364 0.950 . S
H1357 C1369 0.950 . S
H1358 C1366 0.950 . S
H1359 C1368 0.950 . S
H1360 C1370 0.950 . S
H1361 C1372 0.950 . S
H1362 C1374 0.950 . S
H1363 C1375 0.950 . S
C1364 H1356 0.950 . S
C1364 C1365 1.386 . S
C1364 C1366 1.391 . S
C1365 C1364 1.386 . S
C1365 C1369 1.393 1_455 S
C1366 H1358 0.950 . S
C1366 C1364 1.391 . S
C1366 C1367 1.477 . S
C1367 C1366 1.477 . S
C1367 C1368 1.333 1_455 S
C1367 C1373 1.486 1_455 S
C1368 H1359 0.950 . S
C1368 C1367 1.333 1_655 S
C1368 C1369 1.391 . S
C1369 H1357 0.950 . S
C1369 C1365 1.393 1_655 S
C1369 C1368 1.391 . S
C1370 H1360 0.950 . S
C1370 C1371 1.386 . S
C1370 C1372 1.391 . S
C1371 C1370 1.386 . S
C1371 C1375 1.393 1_655 S
C1372 H1361 0.950 . S
C1372 C1370 1.391 . S
C1372 C1373 1.466 . S
C1373 C1367 1.486 1_655 S
C1373 C1372 1.466 . S
C1373 C1374 1.341 1_655 S
C1374 H1362 0.950 . S
C1374 C1373 1.341 1_455 S
C1374 C1375 1.391 . S
C1375 H1363 0.950 . S
C1375 C1371 1.393 1_455 S
C1375 C1374 1.391 . S
H1376 C1384 0.950 . S
H1377 C1389 0.950 . S
H1378 C1386 0.950 . S
H1379 C1388 0.950 . S
H1380 C1390 0.950 . S
H1381 C1392 0.950 . S
H1382 C1394 0.950 . S
H1383 C1395 0.950 . S
C1384 H1376 0.950 . S
C1384 C1385 1.386 . S
C1384 C1386 1.391 . S
C1385 C1384 1.386 . S
C1385 C1389 1.393 . S
C1386 H1378 0.950 . S
C1386 C1384 1.391 . S
C1386 C1387 1.400 . S
C1387 C1386 1.400 . S
C1387 C1388 1.398 . S
C1387 C1393 1.491 . S
C1388 H1379 0.950 . S
C1388 C1387 1.398 . S
C1388 C1389 1.391 . S
C1389 H1377 0.950 . S
C1389 C1385 1.393 . S
C1389 C1388 1.391 . S
C1390 H1380 0.950 . S
C1390 C1391 1.386 . S
C1390 C1392 1.391 . S
C1391 C1390 1.386 . S
C1391 C1395 1.393 . S
C1392 H1381 0.950 . S
C1392 C1390 1.391 . S
C1392 C1393 1.400 . S
C1393 C1387 1.491 . S
C1393 C1392 1.400 . S
C1393 C1394 1.398 . S
C1394 H1382 0.950 . S
C1394 C1393 1.398 . S
C1394 C1395 1.391 . S
C1395 H1383 0.950 . S
C1395 C1391 1.393 . S
C1395 C1394 1.391 . S
H1396 C1404 0.950 . S
H1397 C1409 0.950 . S
H1398 C1406 0.950 . S
H1399 C1408 0.950 . S
H1400 C1410 0.950 . S
H1401 C1412 0.950 . S
H1402 C1414 0.950 . S
H1403 C1415 0.950 . S
C1404 H1396 0.950 . S
C1404 C1405 1.386 . S
C1404 C1406 1.391 . S
C1405 C1404 1.386 . S
C1405 C1409 1.393 1_545 S
C1406 H1398 0.950 . S
C1406 C1404 1.391 . S
C1406 C1407 1.423 . S
C1407 C1406 1.423 . S
C1407 C1408 1.384 1_545 S
C1407 C1413 1.487 1_545 S
C1408 H1399 0.950 . S
C1408 C1407 1.384 1_565 S
C1408 C1409 1.391 . S
C1409 H1397 0.950 . S
C1409 C1405 1.393 1_565 S
C1409 C1408 1.391 . S
C1410 H1400 0.950 . S
C1410 C1411 1.386 . S
C1410 C1412 1.391 . S
C1411 C1410 1.386 . S
C1411 C1415 1.393 1_565 S
C1412 H1401 0.950 . S
C1412 C1410 1.391 . S
C1412 C1413 1.420 . S
C1413 C1407 1.487 1_565 S
C1413 C1412 1.420 . S
C1413 C1414 1.386 1_565 S
C1414 H1402 0.950 . S
C1414 C1413 1.386 1_545 S
C1414 C1415 1.391 . S
C1415 H1403 0.950 . S
C1415 C1411 1.393 1_545 S
C1415 C1414 1.391 . S
H1416 C1424 0.950 . S
H1417 C1429 0.950 . S
H1418 C1426 0.950 . S
H1419 C1428 0.950 . S
H1420 C1430 0.950 . S
H1421 C1432 0.950 . S
H1422 C1434 0.950 . S
H1423 C1435 0.950 . S
C1424 H1416 0.950 . S
C1424 C1425 1.386 . S
C1424 C1426 1.391 . S
C1425 C1424 1.386 . S
C1425 C1429 1.393 1_565 S
C1426 H1418 0.950 . S
C1426 C1424 1.391 . S
C1426 C1427 1.453 . S
C1427 C1426 1.453 . S
C1427 C1428 1.353 1_565 S
C1427 C1433 1.486 1_565 S
C1428 H1419 0.950 . S
C1428 C1427 1.353 1_545 S
C1428 C1429 1.391 . S
C1429 H1417 0.950 . S
C1429 C1425 1.393 1_545 S
C1429 C1428 1.391 . S
C1430 H1420 0.950 . S
C1430 C1431 1.386 . S
C1430 C1432 1.391 . S
C1431 C1430 1.386 . S
C1431 C1435 1.393 1_545 S
C1432 H1421 0.950 . S
C1432 C1430 1.391 . S
C1432 C1433 1.442 . S
C1433 C1427 1.486 1_545 S
C1433 C1432 1.442 . S
C1433 C1434 1.362 1_545 S
C1434 H1422 0.950 . S
C1434 C1433 1.362 1_565 S
C1434 C1435 1.391 . S
C1435 H1423 0.950 . S
C1435 C1431 1.393 1_565 S
C1435 C1434 1.391 . S
H1436 C1444 0.950 . S
H1437 C1449 0.950 . S
H1438 C1446 0.950 . S
H1439 C1448 0.950 . S
H1440 C1450 0.950 . S
H1441 C1452 0.950 . S
H1442 C1454 0.950 . S
H1443 C1455 0.950 . S
C1444 H1436 0.950 . S
C1444 C1445 1.386 . S
C1444 C1446 1.391 . S
C1445 C1444 1.386 . S
C1445 C1449 1.393 1_655 S
C1446 H1438 0.950 . S
C1446 C1444 1.391 . S
C1446 C1447 1.400 . S
C1447 C1446 1.400 . S
C1447 C1448 1.398 1_655 S
C1447 C1453 1.481 1_655 S
C1448 H1439 0.950 . S
C1448 C1447 1.398 1_455 S
C1448 C1449 1.391 . S
C1449 H1437 0.950 . S
C1449 C1445 1.393 1_455 S
C1449 C1448 1.391 . S
C1450 H1440 0.950 . S
C1450 C1451 1.386 . S
C1450 C1452 1.391 . S
C1451 C1450 1.386 . S
C1451 C1455 1.393 1_455 S
C1452 H1441 0.950 . S
C1452 C1450 1.391 . S
C1452 C1453 1.455 . S
C1453 C1447 1.481 1_455 S
C1453 C1452 1.455 . S
C1453 C1454 1.362 1_455 S
C1454 H1442 0.950 . S
C1454 C1453 1.362 1_655 S
C1454 C1455 1.391 . S
C1455 H1443 0.950 . S
C1455 C1451 1.393 1_655 S
C1455 C1454 1.391 . S
H1456 C1464 0.950 . S
H1457 C1469 0.950 . S
H1458 C1466 0.950 . S
H1459 C1468 0.950 . S
H1460 C1470 0.950 . S
H1461 C1472 0.950 . S
H1462 C1474 0.950 . S
H1463 C1475 0.950 . S
C1464 H1456 0.950 . S
C1464 C1465 1.386 . S
C1464 C1466 1.391 . S
C1465 C1464 1.386 . S
C1465 C1469 1.393 . S
C1466 H1458 0.950 . S
C1466 C1464 1.391 . S
C1466 C1467 1.400 . S
C1467 C1466 1.400 . S
C1467 C1468 1.398 . S
C1467 C1473 1.491 . S
C1468 H1459 0.950 . S
C1468 C1467 1.398 . S
C1468 C1469 1.391 . S
C1469 H1457 0.950 . S
C1469 C1465 1.393 . S
C1469 C1468 1.391 . S
C1470 H1460 0.950 . S
C1470 C1471 1.386 . S
C1470 C1472 1.391 . S
C1471 C1470 1.386 . S
C1471 C1475 1.393 . S
C1472 H1461 0.950 . S
C1472 C1470 1.391 . S
C1472 C1473 1.400 . S
C1473 C1467 1.491 . S
C1473 C1472 1.400 . S
C1473 C1474 1.398 . S
C1474 H1462 0.950 . S
C1474 C1473 1.398 . S
C1474 C1475 1.391 . S
C1475 H1463 0.950 . S
C1475 C1471 1.393 . S
C1475 C1474 1.391 . S
C405 C63 1.528 . S
C411 C8 1.530 . S
C425 C41 1.534 . S
C431 C19 1.529 . S
C445 C30 1.527 . S
C451 C52 1.531 . S
C465 C74 1.521 . S
C471 C129 1.509 . S
C485 C107 1.509 . S
C491 C85 1.521 . S
C505 C96 1.523 . S
C511 C118 1.518 . S
C525 C195 1.529 . S
C531 C140 1.528 . S
C545 C173 1.534 . S
C551 C151 1.529 . S
C565 C184 1.534 . S
C571 C162 1.529 . S
C585 C261 1.516 . S
C591 C206 1.523 . S
C605 C217 1.512 . S
C611 C239 1.510 . S
C625 C250 1.522 . S
C631 C228 1.520 . S
C645 C272 1.531 . S
C651 C327 1.533 . S
C665 C283 1.526 . S
C671 C305 1.534 . S
C685 C316 1.531 . S
C691 C294 1.533 . S
C705 C393 1.513 . S
C711 C338 1.523 . S
C725 C349 1.523 . S
C731 C371 1.516 . S
C745 C360 1.514 . S
C751 C382 1.524 . S
C765 C5 1.395 . S
C771 C203 1.253 . S
C785 C214 1.259 . S
C791 C16 1.413 . S
C805 C225 1.262 . S
C811 C27 1.413 . S
C825 C38 1.398 . S
C831 C368 1.252 . S
C845 C49 1.392 . S
C851 C379 1.294 . S
C865 C390 1.287 . S
C871 C60 1.397 . S
C885 C71 1.288 . S
C891 C269 1.397 . S
C905 C82 1.274 . S
C911 C280 1.379 . S
C925 C93 1.256 . S
C931 C291 1.413 . S
C945 C170 1.378 . S
C951 C104 1.301 . S
C965 C181 1.376 . S
C971 C115 1.281 . S
C985 C126 1.299 . S
C991 C192 1.383 . S
C1005 C335 1.300 . S
C1011 C137 1.383 1_655 S
C1025 C346 1.247 . S
C1031 C148 1.408 . S
C1045 C159 1.375 1_545 S
C1051 C357 1.300 . S
C1065 C236 1.283 . S
C1071 C302 1.375 1_565 S
C1085 C247 1.248 . S
C1091 C313 1.402 1_455 S
C1105 C258 1.278 . S
C1111 C324 1.404 . S
C1125 C7 1.506 . S
C1131 C183 1.490 . S
C1145 C194 1.502 . S
C1151 C18 1.493 . S
C1165 C172 1.494 . S
C1171 C29 1.501 . S
C1185 C40 1.495 . S
C1191 C293 1.506 . S
C1205 C271 1.490 . S
C1211 C51 1.507 . S
C1225 C282 1.492 . S
C1231 C62 1.503 . S
C1245 C381 1.459 . S
C1251 C73 1.450 . S
C1265 C84 1.446 . S
C1271 C392 1.445 . S
C1285 C370 1.445 . S
C1291 C95 1.448 . S
C1305 C227 1.463 . S
C1311 C106 1.471 . S
C1325 C117 1.473 . S
C1331 C205 1.469 . S
C1345 C216 1.459 . S
C1351 C128 1.450 . S
C1365 C315 1.508 . S
C1371 C139 1.490 . S
C1385 C326 1.492 . S
C1391 C150 1.504 . S
C1405 C161 1.503 . S
C1411 C304 1.492 . S
C1425 C359 1.470 . S
C1431 C238 1.473 . S
C1445 C249 1.450 . S
C1451 C337 1.459 . S
C1465 C260 1.473 . S
C1471 C348 1.469 . S
