# Generated by pormake.
# Topology ske, (6)-cn, num edge types: 1
# Building blocks:
#     Node 0, Type 0, BuildingBlock: KUMBUR_clean_sbu_1, # of connection points: 6
#     Node 1, Type 0, BuildingBlock: KUMBUR_clean_sbu_1, # of connection points: 6
#     Node 2, Type 0, BuildingBlock: KUMBUR_clean_sbu_1, # of connection points: 6
#     Node 3, Type 0, BuildingBlock: KUMBUR_clean_sbu_1, # of connection points: 6
#     Node 4, Type 0, BuildingBlock: KUMBUR_clean_sbu_1, # of connection points: 6
#     Node 5, Type 0, BuildingBlock: KUMBUR_clean_sbu_1, # of connection points: 6
#     Node 6, Type 0, BuildingBlock: KUMBUR_clean_sbu_1, # of connection points: 6
#     Node 7, Type 0, BuildingBlock: KUMBUR_clean_sbu_1, # of connection points: 6
#     Edge 8, Type (0, 0), BuildingBlock: UVAHIK_clean_linker_0, # of connection points: 2
#     Edge 9, Type (0, 0), BuildingBlock: UVAHIK_clean_linker_0, # of connection points: 2
#     Edge 10, Type (0, 0), BuildingBlock: UVAHIK_clean_linker_0, # of connection points: 2
#     Edge 11, Type (0, 0), BuildingBlock: UVAHIK_clean_linker_0, # of connection points: 2
#     Edge 12, Type (0, 0), BuildingBlock: UVAHIK_clean_linker_0, # of connection points: 2
#     Edge 13, Type (0, 0), BuildingBlock: UVAHIK_clean_linker_0, # of connection points: 2
#     Edge 14, Type (0, 0), BuildingBlock: UVAHIK_clean_linker_0, # of connection points: 2
#     Edge 15, Type (0, 0), BuildingBlock: UVAHIK_clean_linker_0, # of connection points: 2
#     Edge 16, Type (0, 0), BuildingBlock: UVAHIK_clean_linker_0, # of connection points: 2
#     Edge 17, Type (0, 0), BuildingBlock: UVAHIK_clean_linker_0, # of connection points: 2
#     Edge 18, Type (0, 0), BuildingBlock: UVAHIK_clean_linker_0, # of connection points: 2
#     Edge 19, Type (0, 0), BuildingBlock: UVAHIK_clean_linker_0, # of connection points: 2
#     Edge 20, Type (0, 0), BuildingBlock: UVAHIK_clean_linker_0, # of connection points: 2
#     Edge 21, Type (0, 0), BuildingBlock: UVAHIK_clean_linker_0, # of connection points: 2
#     Edge 22, Type (0, 0), BuildingBlock: UVAHIK_clean_linker_0, # of connection points: 2
#     Edge 23, Type (0, 0), BuildingBlock: UVAHIK_clean_linker_0, # of connection points: 2
#     Edge 24, Type (0, 0), BuildingBlock: UVAHIK_clean_linker_0, # of connection points: 2
#     Edge 25, Type (0, 0), BuildingBlock: UVAHIK_clean_linker_0, # of connection points: 2
#     Edge 26, Type (0, 0), BuildingBlock: UVAHIK_clean_linker_0, # of connection points: 2
#     Edge 27, Type (0, 0), BuildingBlock: UVAHIK_clean_linker_0, # of connection points: 2
#     Edge 28, Type (0, 0), BuildingBlock: UVAHIK_clean_linker_0, # of connection points: 2
#     Edge 29, Type (0, 0), BuildingBlock: UVAHIK_clean_linker_0, # of connection points: 2
#     Edge 30, Type (0, 0), BuildingBlock: UVAHIK_clean_linker_0, # of connection points: 2
#     Edge 31, Type (0, 0), BuildingBlock: UVAHIK_clean_linker_0, # of connection points: 2
# Relax obj value: 0.217
# Max RMSD: 0.229
# Mean RMSD: 0.227
data_MOF--net-ske--node1-KUMBUR_clean_sbu_1--edge1-UVAHIK_clean_linker_0
_symmetry_space_group_name_H-M    P1
_symmetry_Int_Tables_number       1
_symmetry_cell_setting            triclinic
loop_
_symmetry_equiv_pos_as_xyz
'x, y, z'
_cell_length_a     115.32736
_cell_length_b     38.60445
_cell_length_c     19.383445
_cell_angle_alpha  97.412354
_cell_angle_beta   89.989292
_cell_angle_gamma 89.998858
loop_
_atom_site_label
_atom_site_type_symbol
_atom_site_fract_x
_atom_site_fract_y
_atom_site_fract_z
_atom_type_partial_charge
Tb0 Tb 0.15176 0.26077 0.54513 0.0
C1 C 0.10811 0.24052 0.69798 0.0
N2 N 0.11124 0.2204 0.63817 0.0
C3 C 0.10646 0.16851 0.68781 0.0
C4 C 0.1044 0.22519 0.75634 0.0
C5 C 0.11024 0.18489 0.63153 0.0
C6 C 0.1036 0.18872 0.75062 0.0
C7 C 0.10619 0.29817 0.76314 0.0
C8 C 0.10905 0.27658 0.7011 0.0
C9 C 0.10276 0.28299 0.82204 0.0
C10 C 0.10182 0.24662 0.81857 0.0
Tb11 Tb 0.11653 0.24963 0.54883 0.0
N12 N 0.11248 0.29041 0.64307 0.0
C13 C 0.10659 0.33439 0.76369 0.0
C14 C 0.11174 0.3257 0.64185 0.0
C15 C 0.10916 0.34817 0.7024 0.0
H16 H 0.1124 0.16926 0.58291 0.0
H17 H 0.10886 0.37611 0.70127 0.0
H18 H 0.15665 0.34189 0.61773 0.0
H19 H 0.16969 0.18648 0.31404 0.0
H20 H 0.11264 0.33698 0.59425 0.0
H21 H 0.10447 0.35187 0.81029 0.0
H22 H 0.15934 0.19448 0.42675 0.0
H23 H 0.1058 0.14033 0.68278 0.0
H24 H 0.10063 0.2992 0.87027 0.0
H25 H 0.09909 0.23533 0.86429 0.0
H26 H 0.16479 0.39609 0.58158 0.0
H27 H 0.10079 0.17593 0.79433 0.0
H28 H 0.17746 0.23787 0.26494 0.0
N29 N 0.15996 0.31145 0.5203 0.0
C30 C 0.16514 0.31005 0.45716 0.0
C31 C 0.16488 0.3721 0.54589 0.0
C32 C 0.17012 0.34 0.43482 0.0
C33 C 0.1602 0.34148 0.56599 0.0
C34 C 0.16972 0.37148 0.47962 0.0
N35 N 0.16126 0.24976 0.44097 0.0
C36 C 0.16292 0.21693 0.40634 0.0
C37 C 0.17184 0.27476 0.35224 0.0
C38 C 0.16598 0.27799 0.41651 0.0
C39 C 0.17302 0.24146 0.31464 0.0
C40 C 0.16867 0.21238 0.34225 0.0
H41 H 0.17341 0.39516 0.46434 0.0
H42 H 0.17938 0.36008 0.35107 0.0
H43 H 0.18089 0.30289 0.27873 0.0
O44 O 0.15915 0.22523 0.60607 0.0
O45 O 0.14362 0.25176 0.44209 0.0
O46 O 0.12323 0.25389 0.44421 0.0
O47 O 0.16858 0.27077 0.5858 0.0
O48 O 0.14508 0.20684 0.53244 0.0
O49 O 0.12535 0.2025 0.50098 0.0
O50 O 0.09957 0.26884 0.53976 0.0
O51 O 0.12869 0.23321 0.6269 0.0
O52 O 0.1417 0.27745 0.63841 0.0
O53 O 0.10373 0.21601 0.50038 0.0
O54 O 0.12318 0.29769 0.51364 0.0
O55 O 0.13963 0.30305 0.57887 0.0
C56 C 0.13337 0.25194 0.41196 0.0
C57 C 0.17953 0.21982 0.59298 0.0
C58 C 0.20034 0.20922 0.6063 0.0
C59 C 0.19944 0.18011 0.55468 0.0
C60 C 0.17887 0.19002 0.54334 0.0
C61 C 0.18879 0.17055 0.52393 0.0
C62 C 0.19028 0.22926 0.62459 0.0
C63 C 0.13572 0.18899 0.50954 0.0
C64 C 0.16911 0.24134 0.61137 0.0
C65 C 0.17558 0.33731 0.3695 0.0
C66 C 0.17645 0.30473 0.32834 0.0
C67 C 0.13555 0.25447 0.66642 0.0
C68 C 0.08879 0.24307 0.44361 0.0
C69 C 0.06974 0.24694 0.38936 0.0
C70 C 0.07531 0.24897 0.32532 0.0
C71 C 0.09413 0.24543 0.37943 0.0
C72 C 0.07662 0.24392 0.44845 0.0
C73 C 0.0874 0.24828 0.32061 0.0
C74 C 0.13253 0.3153 0.53512 0.0
C75 C 0.09574 0.23989 0.50615 0.0
H76 H 0.20699 0.16465 0.53766 0.0
H77 H 0.1707 0.18169 0.51951 0.0
H78 H 0.18821 0.14789 0.48487 0.0
H79 H 0.19072 0.2518 0.6641 0.0
H80 H 0.07033 0.25066 0.27853 0.0
H81 H 0.10347 0.245 0.37476 0.0
H82 H 0.07255 0.24269 0.49849 0.0
H83 H 0.09157 0.24986 0.27107 0.0
Tb84 Tb 0.89769 0.25342 0.55981 0.0
C85 C 0.85119 0.24299 0.39134 0.0
N86 N 0.8577 0.26708 0.43159 0.0
C87 C 0.85646 0.30567 0.34417 0.0
C88 C 0.84737 0.24887 0.32479 0.0
C89 C 0.86008 0.29861 0.40982 0.0
C90 C 0.85014 0.28063 0.30126 0.0
C91 C 0.84242 0.18546 0.37546 0.0
C92 C 0.84876 0.21177 0.41631 0.0
C93 C 0.83856 0.19114 0.30906 0.0
C94 C 0.84103 0.22278 0.2838 0.0
Tb95 Tb 0.86279 0.25275 0.5386 0.0
N96 N 0.85271 0.20712 0.48047 0.0
C97 C 0.84017 0.15423 0.40256 0.0
C98 C 0.85031 0.17702 0.5078 0.0
C99 C 0.84411 0.15006 0.46914 0.0
H100 H 0.86463 0.31852 0.44286 0.0
H101 H 0.84227 0.12622 0.49099 0.0
H102 H 0.89905 0.16951 0.59242 0.0
H103 H 0.91075 0.37357 0.71297 0.0
H104 H 0.85293 0.17417 0.56022 0.0
H105 H 0.83534 0.13334 0.37279 0.0
H106 H 0.90336 0.33704 0.60804 0.0
H107 H 0.8585 0.33053 0.32688 0.0
H108 H 0.83369 0.17123 0.27683 0.0
H109 H 0.83804 0.22676 0.23242 0.0
H110 H 0.90209 0.13888 0.69375 0.0
H111 H 0.8474 0.28614 0.25035 0.0
H112 H 0.91566 0.34644 0.81814 0.0
N113 N 0.90072 0.2205 0.64872 0.0
C114 C 0.90492 0.23872 0.70847 0.0
C115 C 0.90263 0.16709 0.69918 0.0
C116 C 0.90743 0.22196 0.76725 0.0
C117 C 0.90042 0.18482 0.64205 0.0
C118 C 0.90593 0.18581 0.7625 0.0
N119 N 0.90392 0.28997 0.65404 0.0
C120 C 0.90538 0.32507 0.65393 0.0
C121 C 0.91102 0.29424 0.7717 0.0
C122 C 0.9068 0.27442 0.71073 0.0
C123 C 0.91245 0.3303 0.77225 0.0
C124 C 0.90963 0.34575 0.71307 0.0
H125 H 0.90774 0.17195 0.80648 0.0
H126 H 0.91347 0.2292 0.87406 0.0
H127 H 0.91658 0.29246 0.87799 0.0
O128 O 0.91363 0.27659 0.53886 0.0
O129 O 0.88609 0.27636 0.6447 0.0
O130 O 0.87022 0.24076 0.63668 0.0
O131 O 0.91182 0.22102 0.52599 0.0
O132 O 0.89071 0.29879 0.51815 0.0
O133 O 0.87174 0.30362 0.5602 0.0
O134 O 0.84632 0.24347 0.57961 0.0
O135 O 0.87281 0.23734 0.44263 0.0
O136 O 0.89154 0.26021 0.45498 0.0
O137 O 0.85265 0.29576 0.58082 0.0
O138 O 0.87157 0.20831 0.57451 0.0
O139 O 0.88907 0.20446 0.51711 0.0
C140 C 0.87788 0.25993 0.67436 0.0
C141 C 0.92541 0.24484 0.45423 0.0
C142 C 0.94424 0.24486 0.39603 0.0
C143 C 0.93846 0.24217 0.33158 0.0
C144 C 0.91985 0.24197 0.38946 0.0
C145 C 0.92636 0.24069 0.32849 0.0
C146 C 0.93759 0.24614 0.45732 0.0
C147 C 0.88122 0.31693 0.53552 0.0
C148 C 0.9187 0.24702 0.51916 0.0
C149 C 0.91157 0.24164 0.82833 0.0
C150 C 0.9134 0.27764 0.83047 0.0
C151 C 0.88261 0.24771 0.4169 0.0
C152 C 0.83236 0.2864 0.56594 0.0
C153 C 0.81122 0.28853 0.57703 0.0
C154 C 0.81055 0.30131 0.51248 0.0
C155 C 0.83144 0.29992 0.50232 0.0
C156 C 0.82221 0.28112 0.60362 0.0
C157 C 0.8206 0.30714 0.4757 0.0
C158 C 0.87958 0.18993 0.53815 0.0
C159 C 0.84376 0.27637 0.5921 0.0
H160 H 0.94331 0.24073 0.28342 0.0
H161 H 0.91049 0.24071 0.38601 0.0
H162 H 0.92202 0.23847 0.27861 0.0
H163 H 0.94186 0.24869 0.50756 0.0
H164 H 0.80223 0.30744 0.49109 0.0
H165 H 0.83907 0.30493 0.47304 0.0
H166 H 0.82283 0.27077 0.65289 0.0
H167 H 0.82 0.31738 0.42641 0.0
Tb168 Tb 0.15079 0.74261 0.48606 0.0
C169 C 0.10789 0.75287 0.31284 0.0
N170 N 0.11109 0.77535 0.3693 0.0
C171 C 0.10771 0.82401 0.30662 0.0
C172 C 0.10507 0.76501 0.24947 0.0
C173 C 0.11054 0.81063 0.36824 0.0
C174 C 0.10514 0.80108 0.24666 0.0
C175 C 0.10398 0.69343 0.26237 0.0
C176 C 0.10744 0.71766 0.31933 0.0
C177 C 0.10167 0.70507 0.19794 0.0
C178 C 0.10221 0.74081 0.19151 0.0
Tb179 Tb 0.11599 0.75114 0.46647 0.0
N180 N 0.1097 0.70752 0.38263 0.0
C181 C 0.10252 0.65849 0.27261 0.0
C182 C 0.10712 0.67416 0.3943 0.0
C183 C 0.10384 0.64899 0.33926 0.0
H184 H 0.11253 0.82831 0.41458 0.0
H185 H 0.10216 0.6224 0.34855 0.0
H186 H 0.15567 0.65652 0.47268 0.0
H187 H 0.16321 0.84427 0.68993 0.0
H188 H 0.1074 0.66672 0.44608 0.0
H189 H 0.09987 0.63902 0.23023 0.0
H190 H 0.15744 0.81969 0.57047 0.0
H191 H 0.10756 0.85195 0.30532 0.0
H192 H 0.09916 0.68677 0.15331 0.0
H193 H 0.1002 0.74952 0.14193 0.0
H194 H 0.15865 0.61247 0.55237 0.0
H195 H 0.10303 0.81149 0.19889 0.0
H196 H 0.16564 0.80517 0.78068 0.0
N197 N 0.15489 0.69936 0.55357 0.0
C198 C 0.15731 0.71018 0.6215 0.0
C199 C 0.15809 0.63986 0.57283 0.0
C200 C 0.15956 0.68616 0.66877 0.0
C201 C 0.15611 0.66488 0.52794 0.0
C202 C 0.15956 0.65049 0.64392 0.0
N203 N 0.15631 0.76759 0.59454 0.0
C204 C 0.15847 0.80256 0.60996 0.0
C205 C 0.16155 0.75828 0.71111 0.0
C206 C 0.1583 0.74556 0.6425 0.0
C207 C 0.16314 0.79431 0.72847 0.0
C208 C 0.16176 0.81648 0.67738 0.0
H209 H 0.16122 0.63113 0.67849 0.0
H210 H 0.16376 0.68055 0.77585 0.0
H211 H 0.16549 0.74384 0.81297 0.0
O212 O 0.1637 0.77306 0.4445 0.0
O213 O 0.13928 0.76356 0.57322 0.0
O214 O 0.12231 0.73286 0.56275 0.0
O215 O 0.16711 0.72036 0.46031 0.0
O216 O 0.14448 0.79387 0.46339 0.0
O217 O 0.12541 0.79955 0.5054 0.0
O218 O 0.09801 0.74246 0.47357 0.0
O219 O 0.12806 0.76457 0.38581 0.0
O220 O 0.14326 0.72639 0.38195 0.0
O221 O 0.1059 0.78734 0.53134 0.0
O222 O 0.12305 0.70188 0.49421 0.0
O223 O 0.14089 0.69652 0.43958 0.0
C224 C 0.13098 0.74662 0.60103 0.0
C225 C 0.18305 0.75857 0.47209 0.0
C226 C 0.20363 0.77164 0.45604 0.0
C227 C 0.20523 0.7729 0.52836 0.0
C228 C 0.18502 0.75959 0.54371 0.0
C229 C 0.19599 0.76705 0.57164 0.0
C230 C 0.1924 0.76458 0.42826 0.0
C231 C 0.13537 0.81293 0.48671 0.0
C232 C 0.17153 0.74872 0.44236 0.0
C233 C 0.16218 0.69858 0.73844 0.0
C234 C 0.1632 0.73461 0.75954 0.0
C235 C 0.13548 0.74365 0.35019 0.0
C236 C 0.08947 0.76328 0.58099 0.0
C237 C 0.07043 0.75667 0.63372 0.0
C238 C 0.07601 0.75059 0.69565 0.0
C239 C 0.09482 0.75698 0.64315 0.0
C240 C 0.07729 0.76312 0.57651 0.0
C241 C 0.0881 0.75076 0.70015 0.0
C242 C 0.13167 0.68275 0.46564 0.0
C243 C 0.0964 0.7694 0.51984 0.0
H244 H 0.21373 0.77739 0.55157 0.0
H245 H 0.17819 0.75376 0.57809 0.0
H246 H 0.19739 0.76755 0.62698 0.0
H247 H 0.19094 0.76343 0.37279 0.0
H248 H 0.07102 0.74609 0.741 0.0
H249 H 0.10418 0.75687 0.64771 0.0
H250 H 0.07319 0.76744 0.52803 0.0
H251 H 0.09228 0.74606 0.74808 0.0
Tb252 Tb 0.89915 0.75198 0.4669 0.0
C253 C 0.85768 0.71295 0.62499 0.0
N254 N 0.85996 0.70199 0.55695 0.0
C255 C 0.85643 0.6427 0.57641 0.0
C256 C 0.85534 0.68908 0.67243 0.0
C257 C 0.85849 0.66761 0.53141 0.0
C258 C 0.85511 0.65341 0.64759 0.0
C259 C 0.85385 0.76131 0.71477 0.0
C260 C 0.85693 0.74838 0.64598 0.0
C261 C 0.8521 0.73775 0.76334 0.0
C262 C 0.85288 0.70167 0.74223 0.0
Tb263 Tb 0.86425 0.7449 0.48908 0.0
N264 N 0.85901 0.77027 0.59787 0.0
C265 C 0.85251 0.79743 0.73219 0.0
C266 C 0.8571 0.80536 0.61339 0.0
C267 C 0.85398 0.81949 0.68099 0.0
H268 H 0.85874 0.65934 0.47612 0.0
H269 H 0.85271 0.84737 0.69359 0.0
H270 H 0.90279 0.82897 0.41465 0.0
H271 H 0.91229 0.62274 0.3481 0.0
H272 H 0.85817 0.82241 0.57383 0.0
H273 H 0.85014 0.80846 0.78454 0.0
H274 H 0.90739 0.66732 0.44595 0.0
H275 H 0.85566 0.61535 0.55597 0.0
H276 H 0.84993 0.74712 0.81689 0.0
H277 H 0.85123 0.68374 0.77975 0.0
H278 H 0.90768 0.85243 0.30507 0.0
H279 H 0.85337 0.63415 0.68227 0.0
H280 H 0.91442 0.63922 0.22956 0.0
N281 N 0.90396 0.77598 0.36931 0.0
C282 C 0.90697 0.75338 0.31263 0.0
C283 C 0.90742 0.8245 0.30637 0.0
C284 C 0.90974 0.7654 0.24907 0.0
C285 C 0.90464 0.81123 0.36819 0.0
C286 C 0.90981 0.80147 0.24625 0.0
N287 N 0.90512 0.70813 0.38259 0.0
C288 C 0.9076 0.67469 0.39412 0.0
C289 C 0.91057 0.69379 0.26193 0.0
C290 C 0.9073 0.71816 0.31911 0.0
C291 C 0.91192 0.6588 0.27211 0.0
C292 C 0.91068 0.64938 0.33888 0.0
H293 H 0.91188 0.8118 0.19833 0.0
H294 H 0.91437 0.74971 0.14118 0.0
H295 H 0.91518 0.68692 0.15252 0.0
O296 O 0.91708 0.74239 0.47329 0.0
O297 O 0.88695 0.76597 0.38742 0.0
O298 O 0.87159 0.72839 0.38445 0.0
O299 O 0.90951 0.78798 0.53034 0.0
O300 O 0.89192 0.70315 0.49501 0.0
O301 O 0.8739 0.69843 0.44231 0.0
O302 O 0.85146 0.77599 0.44817 0.0
O303 O 0.87599 0.76498 0.57564 0.0
O304 O 0.89291 0.73397 0.56384 0.0
O305 O 0.8478 0.72344 0.46403 0.0
O306 O 0.87083 0.79581 0.46658 0.0
O307 O 0.88997 0.80044 0.50732 0.0
C308 C 0.87943 0.74524 0.3522 0.0
C309 C 0.92583 0.76342 0.57998 0.0
C310 C 0.94487 0.75677 0.63272 0.0
C311 C 0.93928 0.75086 0.69475 0.0
C312 C 0.92047 0.7573 0.64226 0.0
C313 C 0.92719 0.75113 0.6993 0.0
C314 C 0.93801 0.76315 0.57545 0.0
C315 C 0.88313 0.6844 0.46761 0.0
C316 C 0.91889 0.76949 0.51884 0.0
C317 C 0.9124 0.74109 0.19091 0.0
C318 C 0.91281 0.70533 0.19732 0.0
C319 C 0.88428 0.74764 0.60265 0.0
C320 C 0.83204 0.7623 0.47589 0.0
C321 C 0.81143 0.77497 0.45979 0.0
C322 C 0.8099 0.77731 0.53235 0.0
C323 C 0.83015 0.76447 0.54777 0.0
C324 C 0.82263 0.76757 0.43192 0.0
C325 C 0.8192 0.77225 0.57577 0.0
C326 C 0.88003 0.81433 0.49001 0.0
C327 C 0.84352 0.75199 0.44611 0.0
H328 H 0.94426 0.7464 0.74014 0.0
H329 H 0.91112 0.75732 0.64688 0.0
H330 H 0.923 0.74658 0.74731 0.0
H331 H 0.94212 0.76735 0.5269 0.0
H332 H 0.80143 0.78208 0.55574 0.0
H333 H 0.83703 0.7593 0.58237 0.0
H334 H 0.82403 0.76557 0.37626 0.0
H335 H 0.81786 0.77361 0.63134 0.0
Tb336 Tb 0.65202 0.75276 0.0476 0.0
C337 C 0.60992 0.73906 0.21719 0.0
N338 N 0.61412 0.72078 0.15748 0.0
C339 C 0.61224 0.66744 0.20821 0.0
C340 C 0.60741 0.72236 0.27605 0.0
C341 C 0.61443 0.68511 0.15097 0.0
C342 C 0.60893 0.68621 0.27146 0.0
C343 C 0.60381 0.79462 0.28025 0.0
C344 C 0.60805 0.77475 0.21934 0.0
C345 C 0.60142 0.77807 0.33907 0.0
C346 C 0.60326 0.74208 0.33706 0.0
Tb347 Tb 0.61711 0.75363 0.0684 0.0
N348 N 0.61094 0.79027 0.16262 0.0
C349 C 0.60239 0.83067 0.2807 0.0
C350 C 0.60948 0.82536 0.1624 0.0
C351 C 0.60522 0.84608 0.22148 0.0
H352 H 0.61581 0.66974 0.1014 0.0
H353 H 0.60411 0.8739 0.2213 0.0
H354 H 0.65044 0.81786 0.95017 0.0
H355 H 0.67237 0.62586 1.00395 0.0
H356 H 0.61151 0.8373 0.11648 0.0
H357 H 0.59917 0.84685 0.32654 0.0
H358 H 0.66165 0.67422 0.07152 0.0
H359 H 0.61279 0.63923 0.2029 0.0
H360 H 0.59824 0.79292 0.38655 0.0
H361 H 0.60136 0.72968 0.38285 0.0
H362 H 0.65689 0.82924 0.8343 0.0
H363 H 0.60711 0.6724 0.31551 0.0
H364 H 0.67959 0.6323 0.88601 0.0
N365 N 0.65736 0.76644 0.94054 0.0
C366 C 0.66393 0.7421 0.90123 0.0
C367 C 0.65885 0.8045 0.8523 0.0
C368 C 0.6679 0.74759 0.83477 0.0
C369 C 0.65507 0.79781 0.91788 0.0
C370 C 0.66524 0.77922 0.81037 0.0
N371 N 0.66213 0.70674 0.99106 0.0
C372 C 0.6644 0.67679 0.0192 0.0
C373 C 0.67261 0.68445 0.88712 0.0
C374 C 0.66623 0.71101 0.92702 0.0
C375 C 0.67473 0.65337 0.91503 0.0
C376 C 0.67063 0.64959 0.98148 0.0
H377 H 0.66811 0.78444 0.7595 0.0
H378 H 0.67741 0.72494 0.74346 0.0
H379 H 0.68154 0.66965 0.78933 0.0
O380 O 0.6685 0.74374 0.08874 0.0
O381 O 0.64213 0.73798 0.95099 0.0
O382 O 0.62322 0.75968 0.96315 0.0
O383 O 0.66198 0.7959 0.09112 0.0
O384 O 0.64307 0.70855 0.08328 0.0
O385 O 0.62566 0.70453 0.02531 0.0
O386 O 0.60127 0.77711 0.04653 0.0
O387 O 0.62874 0.77678 0.15302 0.0
O388 O 0.64448 0.74073 0.14525 0.0
O389 O 0.60283 0.72152 0.03652 0.0
O390 O 0.62409 0.79895 0.02639 0.0
O391 O 0.64311 0.80378 0.0677 0.0
C392 C 0.63224 0.74776 0.92527 0.0
C393 C 0.68231 0.78728 0.07659 0.0
C394 C 0.70345 0.78968 0.08782 0.0
C395 C 0.7041 0.80325 0.02405 0.0
C396 C 0.68321 0.80157 1.01378 0.0
C397 C 0.69403 0.80932 0.98762 0.0
C398 C 0.69248 0.78176 0.11395 0.0
C399 C 0.63518 0.69009 0.04615 0.0
C400 C 0.67094 0.7767 0.10213 0.0
C401 C 0.67429 0.72126 0.79474 0.0
C402 C 0.67663 0.68976 0.82084 0.0
C403 C 0.63692 0.7603 0.18289 0.0
C404 C 0.58929 0.74478 0.96376 0.0
C405 C 0.5704 0.74431 0.90608 0.0
C406 C 0.57612 0.74011 0.84133 0.0
C407 C 0.59479 0.7405 0.89872 0.0
C408 C 0.57712 0.74664 0.96726 0.0
C409 C 0.58821 0.73823 0.83787 0.0
C410 C 0.63363 0.81701 0.04279 0.0
C411 C 0.59606 0.7476 0.02852 0.0
H412 H 0.71241 0.8098 1.00303 0.0
H413 H 0.67557 0.80677 0.98479 0.0
H414 H 0.69462 0.82017 0.93894 0.0
H415 H 0.69188 0.7708 0.16259 0.0
H416 H 0.57124 0.73775 0.79323 0.0
H417 H 0.60414 0.73883 0.89499 0.0
H418 H 0.57293 0.75034 0.01772 0.0
H419 H 0.5925 0.73487 0.78777 0.0
Tb420 Tb 0.39813 0.75641 0.06965 0.0
C421 C 0.35143 0.74258 0.9016 0.0
N422 N 0.35787 0.76725 0.94091 0.0
C423 C 0.35628 0.80501 0.8522 0.0
C424 C 0.34748 0.74774 0.8349 0.0
C425 C 0.36004 0.79864 0.91802 0.0
C426 C 0.35004 0.77939 0.81026 0.0
C427 C 0.34301 0.68458 0.88772 0.0
C428 C 0.34924 0.71147 0.92761 0.0
C429 C 0.33902 0.68955 0.8212 0.0
C430 C 0.34125 0.72107 0.79486 0.0
Tb431 Tb 0.36322 0.75398 0.04825 0.0
N432 N 0.35332 0.7075 0.99185 0.0
C433 C 0.34101 0.65349 0.91586 0.0
C434 C 0.35117 0.67754 0.0202 0.0
C435 C 0.34507 0.65002 0.98251 0.0
H436 H 0.36456 0.81893 0.95031 0.0
H437 H 0.34343 0.62628 1.00513 0.0
H438 H 0.3997 0.67279 0.10401 0.0
H439 H 0.41056 0.87764 0.22115 0.0
H440 H 0.35391 0.67519 0.07263 0.0
H441 H 0.33626 0.63217 0.88685 0.0
H442 H 0.40335 0.84039 0.11662 0.0
H443 H 0.35815 0.82977 0.83401 0.0
H444 H 0.33422 0.66918 0.78968 0.0
H445 H 0.33816 0.72449 0.74338 0.0
H446 H 0.40285 0.64281 0.20609 0.0
H447 H 0.34719 0.78435 0.75918 0.0
H448 H 0.41559 0.8512 0.32695 0.0
N449 N 0.40125 0.72404 0.15931 0.0
C450 C 0.40537 0.74267 0.21884 0.0
C451 C 0.4033 0.67103 0.21095 0.0
C452 C 0.40793 0.72631 0.27805 0.0
C453 C 0.40104 0.68837 0.15337 0.0
C454 C 0.40655 0.69013 0.27399 0.0
N455 N 0.40414 0.79359 0.16346 0.0
C456 C 0.40543 0.82871 0.16278 0.0
C457 C 0.41121 0.79865 0.28126 0.0
C458 C 0.40709 0.77842 0.22049 0.0
C459 C 0.41247 0.83473 0.28122 0.0
C460 C 0.40958 0.8498 0.22169 0.0
H461 H 0.4084 0.67657 0.31831 0.0
H462 H 0.4139 0.73427 0.38498 0.0
H463 H 0.41674 0.79758 0.38783 0.0
O464 O 0.41388 0.78032 0.04742 0.0
O465 O 0.38637 0.77897 0.15419 0.0
O466 O 0.37078 0.74229 0.14607 0.0
O467 O 0.41255 0.7247 0.03864 0.0
O468 O 0.39093 0.80131 0.02723 0.0
O469 O 0.37191 0.80527 0.06867 0.0
O470 O 0.34673 0.74449 0.08888 0.0
O471 O 0.37321 0.73957 0.95192 0.0
O472 O 0.39203 0.76201 0.96414 0.0
O473 O 0.35311 0.79684 0.09155 0.0
O474 O 0.37237 0.71022 0.0842 0.0
O475 O 0.38982 0.70696 0.02663 0.0
C476 C 0.37825 0.76214 0.18386 0.0
C477 C 0.42598 0.74794 0.96528 0.0
C478 C 0.44487 0.74681 0.90744 0.0
C479 C 0.43914 0.74273 0.84273 0.0
C480 C 0.42047 0.74376 0.90028 0.0
C481 C 0.42705 0.74123 0.83937 0.0
C482 C 0.43815 0.74941 0.96869 0.0
C483 C 0.38129 0.81889 0.04346 0.0
C484 C 0.41921 0.75094 0.03008 0.0
C485 C 0.41198 0.7464 0.33891 0.0
C486 C 0.41365 0.78244 0.34044 0.0
C487 C 0.38307 0.74963 0.92621 0.0
C488 C 0.33283 0.78773 0.07622 0.0
C489 C 0.31167 0.78968 0.08659 0.0
C490 C 0.31107 0.80338 0.02296 0.0
C491 C 0.33197 0.80215 1.01355 0.0
C492 C 0.32263 0.78189 0.11308 0.0
C493 C 0.32116 0.80975 0.98701 0.0
C494 C 0.38036 0.69213 0.04723 0.0
C495 C 0.3442 0.7774 0.1022 0.0
H496 H 0.44402 0.74017 0.79459 0.0
H497 H 0.41112 0.74234 0.8966 0.0
H498 H 0.42275 0.73794 0.7893 0.0
H499 H 0.44236 0.753 0.01911 0.0
H500 H 0.30277 0.80983 1.00168 0.0
H501 H 0.33963 0.80761 0.98498 0.0
H502 H 0.3232 0.77084 0.16162 0.0
H503 H 0.32061 0.8207 0.93845 0.0
Tb504 Tb 0.65089 0.24483 0.98563 0.0
C505 C 0.60832 0.25336 0.80933 0.0
N506 N 0.61129 0.27579 0.86635 0.0
C507 C 0.60788 0.32456 0.80404 0.0
C508 C 0.60561 0.2656 0.74591 0.0
C509 C 0.61062 0.31108 0.86569 0.0
C510 C 0.60553 0.30172 0.7436 0.0
C511 C 0.60488 0.19384 0.75751 0.0
C512 C 0.60804 0.21805 0.8152 0.0
C513 C 0.60268 0.20563 0.6931 0.0
C514 C 0.60303 0.24147 0.68733 0.0
Tb515 Tb 0.61603 0.25142 0.96359 0.0
N516 N 0.61024 0.20774 0.87844 0.0
C517 C 0.60364 0.15872 0.76693 0.0
C518 C 0.60787 0.17411 0.88919 0.0
C519 C 0.60489 0.14897 0.83343 0.0
H520 H 0.61244 0.32869 0.91239 0.0
H521 H 0.60336 0.1222 0.84205 0.0
H522 H 0.65661 0.15944 0.97363 0.0
H523 H 0.66241 0.34823 0.18829 0.0
H524 H 0.60807 0.16645 0.94077 0.0
H525 H 0.60123 0.13926 0.72398 0.0
H526 H 0.65683 0.32275 0.06911 0.0
H527 H 0.60763 0.35252 0.80309 0.0
H528 H 0.6004 0.18736 0.64793 0.0
H529 H 0.6011 0.25026 0.63771 0.0
H530 H 0.65996 0.11586 0.05401 0.0
H531 H 0.6035 0.31221 0.69582 0.0
H532 H 0.66528 0.30974 0.2797 0.0
N533 N 0.6554 0.20232 0.05398 0.0
C534 C 0.65776 0.21358 0.1218 0.0
C535 C 0.65915 0.14324 0.07412 0.0
C536 C 0.66026 0.18996 0.16947 0.0
C537 C 0.65693 0.16791 0.02884 0.0
C538 C 0.66056 0.15424 0.14512 0.0
N539 N 0.65619 0.27071 0.09393 0.0
C540 C 0.65802 0.30588 0.10888 0.0
C541 C 0.6616 0.2623 0.21074 0.0
C542 C 0.65843 0.24907 0.14226 0.0
C543 C 0.66285 0.29848 0.2276 0.0
C544 C 0.66121 0.32031 0.17615 0.0
H545 H 0.66243 0.13517 0.18 0.0
H546 H 0.6646 0.18511 0.27668 0.0
H547 H 0.66576 0.24861 0.31289 0.0
O548 O 0.66352 0.27594 0.94331 0.0
O549 O 0.63919 0.26471 0.07257 0.0
O550 O 0.62226 0.23372 0.06087 0.0
O551 O 0.66739 0.22372 0.96066 0.0
O552 O 0.64419 0.2957 0.9632 0.0
O553 O 0.62509 0.29995 1.00467 0.0
O554 O 0.59812 0.24129 0.9693 0.0
O555 O 0.62825 0.26544 0.88425 0.0
O556 O 0.64353 0.22767 0.88144 0.0
O557 O 0.6055 0.28718 0.02646 0.0
O558 O 0.62323 0.20264 0.99219 0.0
O559 O 0.6413 0.19796 0.94 0.0
C560 C 0.6309 0.2474 0.09962 0.0
C561 C 0.68303 0.26305 0.97066 0.0
C562 C 0.70358 0.27596 0.95316 0.0
C563 C 0.70519 0.27906 0.02573 0.0
C564 C 0.685 0.26597 0.04255 0.0
C565 C 0.69596 0.27424 0.06985 0.0
C566 C 0.69236 0.26806 0.92599 0.0
C567 C 0.63498 0.31406 0.98724 0.0
C568 C 0.67154 0.2522 0.94166 0.0
C569 C 0.66281 0.20285 0.23899 0.0
C570 C 0.66352 0.23899 0.25956 0.0
C571 C 0.63572 0.24453 0.84905 0.0
C572 C 0.58918 0.26226 0.0754 0.0
C573 C 0.57007 0.25552 0.12714 0.0
C574 C 0.57556 0.24947 0.18936 0.0
C575 C 0.59445 0.25602 0.13785 0.0
C576 C 0.57701 0.26199 0.07028 0.0
C577 C 0.58765 0.24974 0.1945 0.0
C578 C 0.6321 0.18392 0.96574 0.0
C579 C 0.59618 0.26841 0.0146 0.0
H580 H 0.71368 0.28424 0.04862 0.0
H581 H 0.67818 0.261 0.07772 0.0
H582 H 0.69737 0.27619 0.12544 0.0
H583 H 0.6909 0.26548 0.87034 0.0
H584 H 0.57051 0.24492 0.23443 0.0
H585 H 0.6038 0.25602 0.14288 0.0
H586 H 0.57298 0.26625 0.02157 0.0
H587 H 0.59177 0.24509 0.24265 0.0
Tb588 Tb 0.39853 0.2519 0.96561 0.0
C589 C 0.35559 0.22033 0.12384 0.0
N590 N 0.35808 0.20802 0.05664 0.0
C591 C 0.35337 0.14986 0.07873 0.0
C592 C 0.35251 0.1976 0.1722 0.0
C593 C 0.35625 0.1736 0.0327 0.0
C594 C 0.35172 0.16181 0.14915 0.0
C595 C 0.35272 0.27022 0.21182 0.0
C596 C 0.35563 0.25604 0.14339 0.0
C597 C 0.35009 0.24766 0.26102 0.0
C598 C 0.35 0.21141 0.24128 0.0
Tb599 Tb 0.36359 0.24902 0.98736 0.0
N600 N 0.3587 0.27692 0.09508 0.0
C601 C 0.35258 0.30659 0.22864 0.0
C602 C 0.35814 0.31252 0.1104 0.0
C603 C 0.35517 0.32782 0.17748 0.0
H604 H 0.35678 0.16444 0.97783 0.0
H605 H 0.35489 0.35596 0.18967 0.0
H606 H 0.40281 0.32858 0.91308 0.0
H607 H 0.41011 0.12136 0.84613 0.0
H608 H 0.35996 0.32904 0.07087 0.0
H609 H 0.35038 0.31852 0.28067 0.0
H610 H 0.40568 0.1663 0.94415 0.0
H611 H 0.35226 0.12245 0.05964 0.0
H612 H 0.34799 0.25799 0.3142 0.0
H613 H 0.34776 0.19434 0.27944 0.0
H614 H 0.40793 0.35155 0.80336 0.0
H615 H 0.3494 0.14344 0.18463 0.0
H616 H 0.41256 0.13777 0.72776 0.0
N617 N 0.40353 0.27547 0.86787 0.0
C618 C 0.40637 0.25261 0.81122 0.0
C619 C 0.40743 0.32365 0.80476 0.0
C620 C 0.40926 0.26436 0.74759 0.0
C621 C 0.40451 0.31065 0.86664 0.0
C622 C 0.40965 0.30041 0.74468 0.0
N623 N 0.40399 0.20748 0.88112 0.0
C624 C 0.40601 0.17374 0.89242 0.0
C625 C 0.40935 0.19269 0.76039 0.0
C626 C 0.40633 0.21735 0.81768 0.0
C627 C 0.41026 0.15756 0.77039 0.0
C628 C 0.40884 0.14818 0.83706 0.0
H629 H 0.41182 0.31054 0.69671 0.0
H630 H 0.41377 0.24827 0.63965 0.0
H631 H 0.41392 0.18544 0.65094 0.0
O632 O 0.41632 0.24026 0.97141 0.0
O633 O 0.38648 0.26634 0.8858 0.0
O634 O 0.37095 0.22963 0.88415 0.0
O635 O 0.40936 0.287 0.0278 0.0
O636 O 0.39081 0.20389 0.99462 0.0
O637 O 0.37259 0.20064 0.94385 0.0
O638 O 0.35191 0.28019 0.9383 0.0
O639 O 0.3755 0.26743 0.07411 0.0
O640 O 0.39211 0.23497 0.06325 0.0
O641 O 0.34652 0.23108 0.96681 0.0
O642 O 0.37093 0.29886 0.96409 0.0
O643 O 0.38998 0.30134 1.00629 0.0
C644 C 0.37884 0.24584 0.85109 0.0
C645 C 0.42552 0.26126 0.0767 0.0
C646 C 0.44464 0.25474 0.12839 0.0
C647 C 0.43916 0.24857 0.19058 0.0
C648 C 0.42026 0.25491 0.1391 0.0
C649 C 0.42707 0.24867 0.19572 0.0
C650 C 0.43768 0.26115 0.07157 0.0
C651 C 0.38167 0.18598 0.96958 0.0
C652 C 0.41852 0.26747 0.01598 0.0
C653 C 0.4117 0.23983 0.68941 0.0
C654 C 0.41174 0.20404 0.69579 0.0
C655 C 0.38343 0.24896 0.1014 0.0
C656 C 0.3319 0.27355 0.96316 0.0
C657 C 0.31129 0.28225 0.93991 0.0
C658 C 0.31021 0.30157 1.00622 0.0
C659 C 0.33048 0.29229 0.0295 0.0
C660 C 0.32223 0.26826 0.91863 0.0
C661 C 0.31974 0.30639 0.05066 0.0
C662 C 0.38031 0.31634 0.98788 0.0
C663 C 0.34329 0.25864 0.94024 0.0
H664 H 0.44422 0.24406 0.23563 0.0
H665 H 0.41091 0.2548 0.14412 0.0
H666 H 0.42296 0.24394 0.24386 0.0
H667 H 0.44171 0.26551 0.02287 0.0
H668 H 0.30191 0.31223 0.02448 0.0
H669 H 0.33759 0.29583 0.06535 0.0
H670 H 0.32321 0.2534 0.86756 0.0
H671 H 0.31876 0.32082 0.10205 0.0
C672 C 0.21932 0.19117 0.65486 0.0
C673 C 0.21175 0.21799 0.64087 0.0
C674 C 0.2302 0.19886 0.68457 0.0
C675 C 0.25212 0.27002 0.71726 0.0
H676 H 0.26467 0.20995 0.84457 0.0
C677 C 0.29304 0.30324 0.88795 0.0
C678 C 0.30084 0.27588 0.89507 0.0
C679 C 0.28255 0.29669 0.85244 0.0
C680 C 0.26135 0.22674 0.80846 0.0
H681 H 0.20977 0.27424 0.64852 0.0
H682 H 0.22858 0.28772 0.70309 0.0
H683 H 0.24542 0.19844 0.79574 0.0
H684 H 0.30386 0.22037 0.86879 0.0
H685 H 0.2855 0.20888 0.80671 0.0
H686 H 0.26804 0.29883 0.73192 0.0
C687 C 0.22619 0.26059 0.68936 0.0
C688 C 0.25029 0.22014 0.78028 0.0
C689 C 0.21531 0.25286 0.65893 0.0
C690 C 0.29807 0.24201 0.86383 0.0
C691 C 0.28751 0.23539 0.82893 0.0
C692 C 0.26316 0.27684 0.74612 0.0
C693 C 0.23383 0.23366 0.70232 0.0
C694 C 0.24552 0.24153 0.73389 0.0
C695 C 0.27955 0.26257 0.82379 0.0
C696 C 0.26792 0.25515 0.79177 0.0
H697 H 0.21685 0.164 0.64299 0.0
H698 H 0.23584 0.17733 0.69267 0.0
H699 H 0.24886 0.28679 0.681 0.0
H700 H 0.29497 0.32967 0.91107 0.0
H701 H 0.2766 0.31817 0.84968 0.0
C702 C 0.71524 0.25729 0.84424 0.0
C703 C 0.71378 0.27957 0.90704 0.0
C704 C 0.72544 0.25842 0.80513 0.0
C705 C 0.75207 0.31251 0.78769 0.0
H706 H 0.76463 0.22504 0.69743 0.0
C707 C 0.79923 0.29915 0.68577 0.0
C708 C 0.80042 0.28375 0.61642 0.0
C709 C 0.78861 0.29778 0.72039 0.0
C710 C 0.76119 0.24967 0.72218 0.0
H711 H 0.72172 0.32188 0.97554 0.0
H712 H 0.73954 0.32276 0.9098 0.0
H713 H 0.74596 0.22544 0.75688 0.0
H714 H 0.79162 0.25362 0.52988 0.0
H715 H 0.77314 0.25049 0.59098 0.0
H716 H 0.76754 0.33642 0.75464 0.0
C717 C 0.73281 0.30468 0.88971 0.0
C718 C 0.75043 0.25001 0.75586 0.0
C719 C 0.72259 0.30382 0.92821 0.0
C720 C 0.79092 0.26582 0.58327 0.0
C721 C 0.78037 0.26392 0.61827 0.0
C722 C 0.7629 0.31205 0.75501 0.0
C723 C 0.73447 0.28171 0.828 0.0
C724 C 0.74572 0.28145 0.78935 0.0
C725 C 0.77904 0.28043 0.68675 0.0
C726 C 0.76759 0.28063 0.72205 0.0
H727 H 0.70869 0.23812 0.82637 0.0
H728 H 0.72626 0.24076 0.75725 0.0
H729 H 0.74867 0.33739 0.8113 0.0
H730 H 0.80639 0.31331 0.71237 0.0
H731 H 0.78784 0.31049 0.77338 0.0
C732 C 0.29958 0.79875 0.1951 0.0
C733 C 0.30082 0.78435 0.12516 0.0
C734 C 0.28892 0.79693 0.2291 0.0
C735 C 0.26141 0.74892 0.22655 0.0
H736 H 0.24896 0.83557 0.3211 0.0
C737 C 0.21532 0.7551 0.34644 0.0
C738 C 0.21384 0.77617 0.41067 0.0
C739 C 0.22556 0.75687 0.30799 0.0
C740 C 0.25234 0.81097 0.2959 0.0
H741 H 0.29209 0.7555 0.03686 0.0
H742 H 0.27354 0.75161 0.09681 0.0
H743 H 0.2679 0.83531 0.26541 0.0
H744 H 0.2218 0.81708 0.48254 0.0
H745 H 0.23969 0.81906 0.41776 0.0
H746 H 0.24607 0.72422 0.25862 0.0
C747 C 0.28075 0.7646 0.12507 0.0
C748 C 0.26321 0.81091 0.26381 0.0
C749 C 0.29134 0.76694 0.09073 0.0
C750 C 0.22269 0.79995 0.43399 0.0
C751 C 0.23294 0.80144 0.39609 0.0
C752 C 0.25061 0.74883 0.25959 0.0
C753 C 0.27936 0.78014 0.1942 0.0
C754 C 0.26787 0.77989 0.22893 0.0
C755 C 0.23462 0.7796 0.33295 0.0
C756 C 0.24591 0.77987 0.29498 0.0
H757 H 0.30672 0.8125 0.22269 0.0
H758 H 0.28811 0.80888 0.28261 0.0
H759 H 0.26482 0.72457 0.2003 0.0
H760 H 0.20874 0.73634 0.32691 0.0
H761 H 0.22639 0.7401 0.25898 0.0
C762 C 0.72379 0.76713 0.09296 0.0
C763 C 0.71427 0.78461 0.12684 0.0
C764 C 0.73435 0.765 0.12769 0.0
C765 C 0.75179 0.81207 0.26591 0.0
H766 H 0.76893 0.72554 0.2635 0.0
C767 C 0.79231 0.80275 0.43686 0.0
C768 C 0.80116 0.77885 0.41437 0.0
C769 C 0.78204 0.8038 0.39891 0.0
C770 C 0.7644 0.75011 0.26369 0.0
H771 H 0.70828 0.81311 0.22381 0.0
H772 H 0.72684 0.80991 0.28438 0.0
H773 H 0.75022 0.72545 0.20467 0.0
H774 H 0.80625 0.73825 0.332 0.0
H775 H 0.78859 0.74127 0.2639 0.0
H776 H 0.766 0.83712 0.3228 0.0
C777 C 0.72609 0.79772 0.23102 0.0
C778 C 0.75361 0.74993 0.23036 0.0
C779 C 0.71546 0.79931 0.19664 0.0
C780 C 0.79967 0.75714 0.35089 0.0
C781 C 0.78943 0.75848 0.31235 0.0
C782 C 0.76264 0.81238 0.29824 0.0
C783 C 0.73568 0.78084 0.19666 0.0
C784 C 0.74715 0.78086 0.23174 0.0
C785 C 0.78036 0.7814 0.33648 0.0
C786 C 0.76907 0.78134 0.29834 0.0
H787 H 0.7231 0.75547 0.03921 0.0
H788 H 0.7416 0.75194 0.09984 0.0
H789 H 0.74709 0.83642 0.26672 0.0
H790 H 0.7932 0.82038 0.48476 0.0
H791 H 0.77529 0.82158 0.41998 0.0
C792 C 0.12795 0.87333 0.52676 0.0
C793 C 0.13608 0.85147 0.48869 0.0
C794 C 0.12834 0.90956 0.52679 0.0
C795 C 0.12657 0.98283 0.48826 0.0
H796 H 0.15591 0.03098 0.47984 0.0
C797 C 0.12808 0.12988 0.46062 0.0
C798 C 0.13667 0.15026 0.49787 0.0
C799 C 0.12843 0.09337 0.45499 0.0
C800 C 0.14763 0.01809 0.48283 0.0
H801 H 0.15104 0.85074 0.42068 0.0
H802 H 0.15154 0.9137 0.41909 0.0
H803 H 0.15572 0.96822 0.48306 0.0
H804 H 0.1525 0.14795 0.55762 0.0
H805 H 0.15296 0.08462 0.54937 0.0
H806 H 0.11849 0.0328 0.49134 0.0
C807 C 0.14499 0.90303 0.4504 0.0
C808 C 0.14751 0.98185 0.48367 0.0
C809 C 0.14468 0.86679 0.45103 0.0
C810 C 0.14578 0.13316 0.52794 0.0
C811 C 0.14606 0.09666 0.52299 0.0
C812 C 0.12669 0.01906 0.48816 0.0
C813 C 0.1368 0.92498 0.48805 0.0
C814 C 0.13697 0.96366 0.48657 0.0
C815 C 0.13731 0.07619 0.48719 0.0
C816 C 0.13722 0.0373 0.48549 0.0
H817 H 0.12126 0.86248 0.55686 0.0
H818 H 0.12203 0.92547 0.55774 0.0
H819 H 0.11826 0.96986 0.48931 0.0
H820 H 0.12098 0.14212 0.43627 0.0
H821 H 0.12167 0.07864 0.42557 0.0
C822 C 0.8721 0.37666 0.55147 0.0
C823 C 0.88136 0.35464 0.52742 0.0
C824 C 0.87227 0.41211 0.54298 0.0
C825 C 0.87204 0.48139 0.48268 0.0
H826 H 0.90093 0.53245 0.51371 0.0
C827 C 0.87753 0.62316 0.4198 0.0
C828 C 0.88344 0.64626 0.46967 0.0
C829 C 0.87735 0.58731 0.42478 0.0
C830 C 0.89278 0.51864 0.50518 0.0
H831 H 0.898 0.35275 0.47449 0.0
H832 H 0.89825 0.41426 0.45961 0.0
H833 H 0.90024 0.47082 0.52871 0.0
H834 H 0.89401 0.65001 0.56277 0.0
H835 H 0.89369 0.58767 0.57159 0.0
H836 H 0.86453 0.52953 0.46062 0.0
C837 C 0.89093 0.40429 0.486 0.0
C838 C 0.89241 0.48319 0.51307 0.0
C839 C 0.89076 0.36891 0.49439 0.0
C840 C 0.88941 0.63279 0.52344 0.0
C841 C 0.88925 0.59705 0.52839 0.0
C842 C 0.87242 0.51689 0.47468 0.0
C843 C 0.88172 0.42636 0.51033 0.0
C844 C 0.88204 0.46413 0.50199 0.0
C845 C 0.88315 0.57388 0.47943 0.0
C846 C 0.88279 0.53594 0.48604 0.0
H847 H 0.86471 0.36658 0.57707 0.0
H848 H 0.86509 0.42848 0.56295 0.0
H849 H 0.86395 0.46739 0.47309 0.0
H850 H 0.87297 0.63286 0.37736 0.0
H851 H 0.87272 0.5701 0.38564 0.0
C852 C 0.86963 0.86941 0.4701 0.0
C853 C 0.8794 0.85295 0.49471 0.0
C854 C 0.86924 0.90579 0.47272 0.0
C855 C 0.88832 0.98341 0.48557 0.0
H856 H 0.86007 0.03447 0.53874 0.0
C857 C 0.87289 0.13413 0.57799 0.0
C858 C 0.87879 0.1514 0.529 0.0
C859 C 0.87252 0.09767 0.57082 0.0
C860 C 0.86805 0.0206 0.5241 0.0
H861 H 0.89632 0.86211 0.54276 0.0
H862 H 0.89557 0.92528 0.54783 0.0
H863 H 0.86035 0.97099 0.534 0.0
H864 H 0.88894 0.14423 0.43422 0.0
H865 H 0.88824 0.08044 0.42122 0.0
H866 H 0.89611 0.033 0.47742 0.0
C867 C 0.88829 0.91007 0.52535 0.0
C868 C 0.86817 0.98419 0.52066 0.0
C869 C 0.88869 0.87377 0.5228 0.0
C870 C 0.88433 0.13154 0.47273 0.0
C871 C 0.88396 0.09504 0.4655 0.0
C872 C 0.88819 0.01978 0.48897 0.0
C873 C 0.8786 0.92653 0.49997 0.0
C874 C 0.87833 0.96517 0.50183 0.0
C875 C 0.8781 0.07766 0.51466 0.0
C876 C 0.87808 0.03885 0.50866 0.0
H877 H 0.86232 0.85424 0.44803 0.0
H878 H 0.86168 0.91761 0.45217 0.0
H879 H 0.89625 0.96954 0.46999 0.0
H880 H 0.86878 0.14879 0.62284 0.0
H881 H 0.86812 0.08516 0.61032 0.0
C882 C 0.13587 0.62108 0.41315 0.0
C883 C 0.13129 0.64455 0.46766 0.0
C884 C 0.13589 0.58508 0.41718 0.0
C885 C 0.1233 0.51791 0.52052 0.0
H886 H 0.14813 0.46023 0.43335 0.0
C887 C 0.13429 0.37843 0.58253 0.0
C888 C 0.1331 0.3525 0.52511 0.0
C889 C 0.13422 0.41378 0.57332 0.0
C890 C 0.14114 0.47611 0.45769 0.0
H891 H 0.12315 0.64895 0.56893 0.0
H892 H 0.12374 0.58688 0.57815 0.0
H893 H 0.14766 0.52255 0.42219 0.0
H894 H 0.13121 0.34278 0.41326 0.0
H895 H 0.13156 0.40493 0.39675 0.0
H896 H 0.11718 0.47143 0.55869 0.0
C897 C 0.12694 0.59561 0.53082 0.0
C898 C 0.14078 0.51182 0.45093 0.0
C899 C 0.12667 0.6314 0.52595 0.0
C900 C 0.13212 0.36242 0.4582 0.0
C901 C 0.13236 0.39779 0.44878 0.0
C902 C 0.12383 0.48245 0.52857 0.0
C903 C 0.13153 0.57175 0.47649 0.0
C904 C 0.13185 0.53336 0.48232 0.0
C905 C 0.13324 0.42376 0.5064 0.0
C906 C 0.13274 0.46126 0.49722 0.0
H907 H 0.1394 0.6306 0.36732 0.0
H908 H 0.13928 0.56778 0.37346 0.0
H909 H 0.1161 0.53304 0.54403 0.0
H910 H 0.13499 0.37133 0.63466 0.0
H911 H 0.13493 0.43337 0.61846 0.0
C912 C 0.63095 0.6314 0.97993 0.0
C913 C 0.63599 0.65155 0.03767 0.0
C914 C 0.63142 0.59488 0.9732 0.0
C915 C 0.63428 0.52229 0.0775 0.0
H916 H 0.64143 0.46688 0.90121 0.0
C917 C 0.62683 0.37333 0.0286 0.0
C918 C 0.6356 0.35273 0.99344 0.0
C919 C 0.62726 0.40974 0.03383 0.0
C920 C 0.63949 0.48202 0.95088 0.0
H921 H 0.64523 0.64945 0.1344 0.0
H922 H 0.64609 0.58578 0.12257 0.0
H923 H 0.64161 0.53069 0.91005 0.0
H924 H 0.65171 0.35449 0.93615 0.0
H925 H 0.65242 0.41818 0.94523 0.0
H926 H 0.63215 0.47374 0.1184 0.0
C927 C 0.64183 0.59812 0.08232 0.0
C928 C 0.63948 0.51852 0.95576 0.0
C929 C 0.64144 0.63456 0.08873 0.0
C930 C 0.64482 0.36951 0.96367 0.0
C931 C 0.64519 0.40599 0.96846 0.0
C932 C 0.63419 0.48585 0.07247 0.0
C933 C 0.63678 0.57783 0.02463 0.0
C934 C 0.63688 0.53906 0.01916 0.0
C935 C 0.63642 0.42651 1.0037 0.0
C936 C 0.63677 0.46528 1.00911 0.0
H937 H 0.62665 0.64389 0.94 0.0
H938 H 0.62735 0.57997 0.92852 0.0
H939 H 0.63214 0.53736 0.12691 0.0
H940 H 0.6196 0.36138 0.05222 0.0
H941 H 0.62031 0.42479 0.06069 0.0
C942 C 0.39036 0.87099 0.99989 0.0
C943 C 0.38115 0.85646 0.03412 0.0
C944 C 0.39025 0.90624 0.99042 0.0
C945 C 0.39131 0.9852 0.01533 0.0
H946 H 0.36292 0.03032 0.9673 0.0
C947 C 0.38785 0.13447 0.02596 0.0
C948 C 0.38162 0.14793 0.97316 0.0
C949 C 0.3877 0.09878 0.03129 0.0
C950 C 0.37095 0.01802 0.98009 0.0
H951 H 0.36454 0.86779 0.08473 0.0
H952 H 0.36445 0.92945 0.06896 0.0
H953 H 0.36277 0.96816 0.97976 0.0
H954 H 0.37058 0.13452 0.88334 0.0
H955 H 0.37034 0.0718 0.89229 0.0
H956 H 0.39954 0.03478 0.01456 0.0
C957 C 0.37169 0.9134 0.04874 0.0
C958 C 0.37083 0.9825 0.98809 0.0
C959 C 0.37179 0.87807 0.05821 0.0
C960 C 0.37534 0.12486 0.92507 0.0
C961 C 0.37518 0.08902 0.93039 0.0
C962 C 0.39143 0.02064 1.00735 0.0
C963 C 0.38095 0.92794 0.01493 0.0
C964 C 0.38101 0.96567 1.00595 0.0
C965 C 0.38136 0.07557 0.98366 0.0
C966 C 0.38124 0.03756 0.98995 0.0
H967 H 0.39766 0.85511 0.97989 0.0
H968 H 0.39743 0.9164 0.96312 0.0
H969 H 0.39929 0.97321 0.02984 0.0
H970 H 0.39274 0.15162 0.06394 0.0
H971 H 0.39241 0.08944 0.07355 0.0
C972 C 0.371 0.37224 0.9632 0.0
C973 C 0.38008 0.35499 0.99323 0.0
C974 C 0.37085 0.40869 0.96781 0.0
C975 C 0.38213 0.48788 0.07203 0.0
H976 H 0.37466 0.53304 0.91008 0.0
C977 C 0.37435 0.63632 0.08939 0.0
C978 C 0.37974 0.6536 0.03856 0.0
C979 C 0.37415 0.59987 0.08278 0.0
C980 C 0.3768 0.52078 0.95564 0.0
H981 H 0.3961 0.3627 0.05197 0.0
H982 H 0.39581 0.4262 0.06006 0.0
H983 H 0.37491 0.46925 0.90067 0.0
H984 H 0.38916 0.64653 0.94112 0.0
H985 H 0.38878 0.5826 0.92928 0.0
H986 H 0.38411 0.53932 0.12692 0.0
C987 C 0.38878 0.4115 0.03321 0.0
C988 C 0.37684 0.4843 0.95043 0.0
C989 C 0.38897 0.37507 0.0282 0.0
C990 C 0.3849 0.63378 0.98086 0.0
C991 C 0.38463 0.59727 0.97394 0.0
C992 C 0.382 0.52432 0.07738 0.0
C993 C 0.37973 0.42872 1.00301 0.0
C994 C 0.37954 0.46745 1.00853 0.0
C995 C 0.37931 0.57993 0.02511 0.0
C996 C 0.37936 0.54118 0.01923 0.0
H997 H 0.36401 0.35763 0.93582 0.0
H998 H 0.3637 0.42124 0.94459 0.0
H999 H 0.38414 0.47567 0.11786 0.0
H1000 H 0.37047 0.65099 0.13503 0.0
H1001 H 0.36992 0.58728 0.12281 0.0
C1002 C 0.62579 0.13262 0.02257 0.0
C1003 C 0.63185 0.14581 0.96877 0.0
C1004 C 0.62594 0.09695 0.02835 0.0
C1005 C 0.64274 0.01633 0.97664 0.0
H1006 H 0.61484 0.97103 0.03173 0.0
C1007 C 0.62413 0.86887 1.00071 0.0
C1008 C 0.63355 0.85464 0.03364 0.0
C1009 C 0.62401 0.90414 0.99131 0.0
C1010 C 0.62269 0.98316 0.01578 0.0
H1011 H 0.64246 0.1319 0.87724 0.0
H1012 H 0.64269 0.06927 0.88696 0.0
H1013 H 0.61425 0.03246 0.01526 0.0
H1014 H 0.65029 0.86659 0.08207 0.0
H1015 H 0.65 0.92828 0.06627 0.0
H1016 H 0.65114 0.96677 0.97616 0.0
C1017 C 0.638 0.08666 0.92554 0.0
C1018 C 0.62238 0.01853 1.00707 0.0
C1019 C 0.63784 0.12245 0.91973 0.0
C1020 C 0.64288 0.87661 0.05657 0.0
C1021 C 0.64276 0.91196 0.0471 0.0
C1022 C 0.64306 0.98091 0.98544 0.0
C1023 C 0.6321 0.07351 0.98019 0.0
C1024 C 0.63241 0.0356 0.98758 0.0
C1025 C 0.6333 0.92619 0.01452 0.0
C1026 C 0.63303 0.96389 1.00517 0.0
H1027 H 0.62111 0.15 0.06125 0.0
H1028 H 0.62142 0.08783 0.07156 0.0
H1029 H 0.65065 0.02875 0.96232 0.0
H1030 H 0.61683 0.85275 0.98166 0.0
H1031 H 0.61667 0.91404 0.965 0.0
C1032 C 0.14066 0.27506 0.30562 0.0
C1033 C 0.13336 0.25211 0.33571 0.0
C1034 C 0.14087 0.27524 0.23351 0.0
C1035 C 0.1245 0.24329 0.06979 0.0
H1036 H 0.15319 0.2671 0.98268 0.0
C1037 C 0.1325 0.22312 0.7708 0.0
C1038 C 0.13611 0.25311 0.7426 0.0
C1039 C 0.13215 0.22281 0.84293 0.0
C1040 C 0.14511 0.26055 1.00639 0.0
H1041 H 0.12055 0.21127 0.31438 0.0
H1042 H 0.12117 0.21038 0.18815 0.0
H1043 H 0.15259 0.26596 0.10798 0.0
H1044 H 0.14281 0.30567 0.76806 0.0
H1045 H 0.14266 0.30455 0.89416 0.0
H1046 H 0.11725 0.23655 0.96682 0.0
C1047 C 0.12654 0.22911 0.21992 0.0
C1048 C 0.14471 0.26012 0.0785 0.0
C1049 C 0.12619 0.22941 0.29237 0.0
C1050 C 0.13994 0.28218 0.7881 0.0
C1051 C 0.13983 0.2816 0.86025 0.0
C1052 C 0.125 0.24303 0.99744 0.0
C1053 C 0.1339 0.25202 0.18919 0.0
C1054 C 0.13437 0.25175 0.11164 0.0
C1055 C 0.13576 0.25209 0.88844 0.0
C1056 C 0.13528 0.25187 0.96508 0.0
H1057 H 0.14605 0.29346 0.33809 0.0
H1058 H 0.14642 0.29403 0.21285 0.0
H1059 H 0.11631 0.23736 0.09279 0.0
H1060 H 0.1298 0.19999 0.73708 0.0
H1061 H 0.12912 0.19954 0.86318 0.0
C1062 C 0.87655 0.22348 0.29591 0.0
C1063 C 0.88323 0.24735 0.34026 0.0
C1064 C 0.8764 0.22473 0.22405 0.0
C1065 C 0.88052 0.28436 0.09353 0.0
H1066 H 0.88371 0.19989 0.96324 0.0
C1067 C 0.88264 0.28812 0.79523 0.0
C1068 C 0.87797 0.25992 0.75097 0.0
C1069 C 0.88351 0.28687 0.867 0.0
C1070 C 0.8826 0.22374 0.99865 0.0
H1071 H 0.89507 0.29113 0.34373 0.0
H1072 H 0.89476 0.29345 0.21801 0.0
H1073 H 0.88486 0.19679 0.08785 0.0
H1074 H 0.87004 0.20888 0.74766 0.0
H1075 H 0.87105 0.20719 0.87268 0.0
H1076 H 0.87789 0.31129 1.00502 0.0
C1077 C 0.88963 0.27375 0.23905 0.0
C1078 C 0.88334 0.22192 0.07025 0.0
C1079 C 0.8899 0.27221 0.31092 0.0
C1080 C 0.87373 0.23101 0.78036 0.0
C1081 C 0.87448 0.22987 0.85215 0.0
C1082 C 0.87961 0.28615 0.02194 0.0
C1083 C 0.88284 0.25011 0.1948 0.0
C1084 C 0.8823 0.25219 0.11856 0.0
C1085 C 0.87952 0.25758 0.89663 0.0
C1086 C 0.88061 0.25584 0.97326 0.0
H1087 H 0.87134 0.20394 0.31685 0.0
H1088 H 0.87101 0.20633 0.19151 0.0
H1089 H 0.87955 0.30811 0.12948 0.0
H1090 H 0.88579 0.31102 0.77419 0.0
H1091 H 0.88756 0.30863 0.89886 0.0
C1092 C 0.13443 0.77417 0.24377 0.0
C1093 C 0.1359 0.74309 0.27324 0.0
C1094 C 0.13394 0.77388 0.1714 0.0
C1095 C 0.13973 0.7172 1.00115 0.0
H1096 H 0.12118 0.78776 0.92756 0.0
C1097 C 0.12874 0.7147 0.70555 0.0
C1098 C 0.13079 0.74598 0.67766 0.0
C1099 C 0.12938 0.71362 0.77769 0.0
C1100 C 0.12645 0.76798 0.94725 0.0
H1101 H 0.13797 0.68717 0.2498 0.0
H1102 H 0.13676 0.68621 0.12346 0.0
H1103 H 0.12206 0.7865 0.05274 0.0
H1104 H 0.13481 0.80084 0.70354 0.0
H1105 H 0.1355 0.79934 0.82964 0.0
H1106 H 0.14373 0.69814 0.89457 0.0
C1107 C 0.13631 0.71118 0.15586 0.0
C1108 C 0.12705 0.76733 0.01945 0.0
C1109 C 0.137 0.71161 0.22851 0.0
C1110 C 0.13318 0.77637 0.72358 0.0
C1111 C 0.13355 0.7755 0.79577 0.0
C1112 C 0.13896 0.71751 0.92877 0.0
C1113 C 0.13471 0.74234 0.12587 0.0
C1114 C 0.1338 0.74217 0.048 0.0
C1115 C 0.13176 0.74404 0.82384 0.0
C1116 C 0.13238 0.74309 0.90086 0.0
H1117 H 0.13363 0.79889 0.27692 0.0
H1118 H 0.133 0.79863 0.15141 0.0
H1119 H 0.14518 0.69769 0.02018 0.0
H1120 H 0.12698 0.69083 0.67141 0.0
H1121 H 0.1279 0.68901 0.79748 0.0
C1122 C 0.88635 0.71521 0.70668 0.0
C1123 C 0.88454 0.74673 0.67921 0.0
C1124 C 0.88571 0.71399 0.77883 0.0
C1125 C 0.88888 0.76818 0.94893 0.0
H1126 H 0.86985 0.69854 0.02178 0.0
C1127 C 0.88052 0.77537 0.24524 0.0
C1128 C 0.87898 0.74443 0.27514 0.0
C1129 C 0.88108 0.77483 0.17281 0.0
C1130 C 0.87538 0.71787 1.00277 0.0
H1131 H 0.8809 0.8018 0.70579 0.0
H1132 H 0.88021 0.80002 0.83173 0.0
H1133 H 0.87142 0.69881 0.89611 0.0
H1134 H 0.87684 0.68852 0.25232 0.0
H1135 H 0.87813 0.68714 0.12585 0.0
H1136 H 0.8932 0.78674 0.05451 0.0
C1137 C 0.88199 0.77611 0.79764 0.0
C1138 C 0.87623 0.71806 0.93034 0.0
C1139 C 0.88237 0.77716 0.7255 0.0
C1140 C 0.87786 0.71286 0.23072 0.0
C1141 C 0.8786 0.71218 0.158 0.0
C1142 C 0.8882 0.76766 0.02116 0.0
C1143 C 0.88355 0.74447 0.82537 0.0
C1144 C 0.88291 0.74343 0.90244 0.0
C1145 C 0.8803 0.74319 0.12761 0.0
C1146 C 0.88132 0.74277 0.04968 0.0
H1147 H 0.88793 0.6913 0.67218 0.0
H1148 H 0.88701 0.68921 0.79832 0.0
H1149 H 0.89423 0.78779 0.92933 0.0
H1150 H 0.88136 0.80016 0.27811 0.0
H1151 H 0.88209 0.79948 0.15251 0.0
C1152 C 0.63215 0.78854 0.30378 0.0
C1153 C 0.6368 0.76029 0.2595 0.0
C1154 C 0.63126 0.78727 0.37554 0.0
C1155 C 0.63216 0.724 0.5071 0.0
H1156 H 0.63513 0.80832 0.63812 0.0
C1157 C 0.63842 0.72387 0.80428 0.0
C1158 C 0.63162 0.74738 0.84865 0.0
C1159 C 0.63854 0.72515 0.73243 0.0
C1160 C 0.63419 0.78459 0.6021 0.0
H1161 H 0.64467 0.70918 0.25619 0.0
H1162 H 0.64366 0.70748 0.38112 0.0
H1163 H 0.63678 0.81161 0.51368 0.0
H1164 H 0.61953 0.79056 0.85216 0.0
H1165 H 0.61981 0.79297 0.72646 0.0
H1166 H 0.62997 0.69696 0.59625 0.0
C1167 C 0.64024 0.73018 0.36065 0.0
C1168 C 0.63509 0.78644 0.53052 0.0
C1169 C 0.641 0.73134 0.28888 0.0
C1170 C 0.6248 0.77192 0.81934 0.0
C1171 C 0.62504 0.77352 0.74749 0.0
C1172 C 0.63145 0.72212 0.57868 0.0
C1173 C 0.63521 0.75792 0.40515 0.0
C1174 C 0.63412 0.75614 0.48178 0.0
C1175 C 0.63195 0.75023 0.70323 0.0
C1176 C 0.63246 0.75238 0.62704 0.0
H1177 H 0.62903 0.81147 0.28276 0.0
H1178 H 0.62723 0.80905 0.40742 0.0
H1179 H 0.63107 0.70016 0.47166 0.0
H1180 H 0.64375 0.70457 0.82519 0.0
H1181 H 0.64402 0.70702 0.69984 0.0
C1182 C 0.39034 0.77373 0.81975 0.0
C1183 C 0.38367 0.74906 0.84953 0.0
C1184 C 0.38995 0.77534 0.74789 0.0
C1185 C 0.37167 0.74663 0.59108 0.0
H1186 H 0.39847 0.77452 0.49069 0.0
C1187 C 0.37407 0.73323 0.28982 0.0
C1188 C 0.37831 0.7622 0.26049 0.0
C1189 C 0.37469 0.73224 0.36169 0.0
C1190 C 0.39089 0.76694 0.51819 0.0
H1191 H 0.37178 0.70566 0.82681 0.0
H1192 H 0.37134 0.70762 0.70196 0.0
H1193 H 0.40001 0.77043 0.61507 0.0
H1194 H 0.38599 0.81352 0.28397 0.0
H1195 H 0.38739 0.81139 0.40954 0.0
H1196 H 0.3627 0.74222 0.49344 0.0
C1197 C 0.3766 0.72663 0.73384 0.0
C1198 C 0.39174 0.76469 0.58968 0.0
C1199 C 0.37691 0.72528 0.80561 0.0
C1200 C 0.38291 0.79052 0.3049 0.0
C1201 C 0.38368 0.78933 0.37673 0.0
C1202 C 0.37089 0.74838 0.51951 0.0
C1203 C 0.38297 0.75203 0.70383 0.0
C1204 C 0.38214 0.75447 0.62733 0.0
C1205 C 0.37962 0.7601 0.40593 0.0
C1206 C 0.38048 0.75859 0.48222 0.0
H1207 H 0.39555 0.79266 0.85229 0.0
H1208 H 0.39487 0.79558 0.72735 0.0
H1209 H 0.36398 0.73952 0.61804 0.0
H1210 H 0.3705 0.71092 0.25703 0.0
H1211 H 0.37153 0.70928 0.38255 0.0
C1212 C 0.63323 0.2767 0.2223 0.0
C1213 C 0.63065 0.24656 0.17624 0.0
C1214 C 0.63377 0.27562 0.29436 0.0
C1215 C 0.62618 0.21964 0.43414 0.0
H1216 H 0.6473 0.28269 0.54349 0.0
C1217 C 0.63695 0.21179 0.72782 0.0
C1218 C 0.63618 0.24358 0.772 0.0
C1219 C 0.63631 0.21107 0.65507 0.0
C1220 C 0.64132 0.26499 0.51379 0.0
H1221 H 0.62656 0.19162 0.16968 0.0
H1222 H 0.62785 0.18917 0.29488 0.0
H1223 H 0.6462 0.28301 0.4181 0.0
H1224 H 0.63432 0.29951 0.77457 0.0
H1225 H 0.63366 0.29844 0.64806 0.0
H1226 H 0.62162 0.20102 0.53058 0.0
C1227 C 0.62917 0.21408 0.27612 0.0
C1228 C 0.6406 0.2653 0.44152 0.0
C1229 C 0.62845 0.21536 0.204 0.0
C1230 C 0.63502 0.27463 0.74186 0.0
C1231 C 0.63465 0.27401 0.66933 0.0
C1232 C 0.62705 0.21893 0.5064 0.0
C1233 C 0.63191 0.24418 0.32277 0.0
C1234 C 0.63291 0.24293 0.40024 0.0
C1235 C 0.63519 0.24222 0.62481 0.0
C1236 C 0.63456 0.24183 0.54734 0.0
H1237 H 0.63488 0.30121 0.20246 0.0
H1238 H 0.63562 0.29968 0.32768 0.0
H1239 H 0.62001 0.2023 0.40525 0.0
H1240 H 0.63768 0.18741 0.74961 0.0
H1241 H 0.63679 0.18615 0.62239 0.0
C1242 C 0.38172 0.27836 0.22449 0.0
C1243 C 0.38348 0.24778 0.17791 0.0
C1244 C 0.38127 0.27719 0.29658 0.0
C1245 C 0.37488 0.21938 0.42929 0.0
H1246 H 0.39266 0.28625 0.5528 0.0
C1247 C 0.3768 0.21362 0.72962 0.0
C1248 C 0.37827 0.24505 0.77404 0.0
C1249 C 0.37744 0.21293 0.65683 0.0
C1250 C 0.38743 0.26769 0.51965 0.0
H1251 H 0.38604 0.19194 0.17033 0.0
H1252 H 0.38502 0.18967 0.29636 0.0
H1253 H 0.39357 0.28743 0.42766 0.0
H1254 H 0.38117 0.30056 0.77691 0.0
H1255 H 0.38174 0.2999 0.65134 0.0
H1256 H 0.36842 0.20025 0.52097 0.0
C1257 C 0.38409 0.21465 0.27716 0.0
C1258 C 0.38804 0.26829 0.44742 0.0
C1259 C 0.38478 0.21596 0.20504 0.0
C1260 C 0.38006 0.27587 0.74407 0.0
C1261 C 0.38052 0.27533 0.67163 0.0
C1262 C 0.37411 0.21912 0.50174 0.0
C1263 C 0.38237 0.24529 0.32402 0.0
C1264 C 0.38177 0.24419 0.40113 0.0
C1265 C 0.3794 0.2438 0.62641 0.0
C1266 C 0.38034 0.24339 0.54843 0.0
H1267 H 0.38067 0.30325 0.20506 0.0
H1268 H 0.37983 0.30125 0.33089 0.0
H1269 H 0.36985 0.20062 0.39525 0.0
H1270 H 0.37557 0.18936 0.75123 0.0
H1271 H 0.37669 0.18796 0.62465 0.0
C1272 C 0.05035 0.26981 0.35593 0.0
C1273 C 0.05682 0.24788 0.39408 0.0
C1274 C 0.03823 0.26998 0.35837 0.0
C1275 C 0.01317 0.24717 0.46269 0.0
H1276 H 0.99633 0.24771 0.28973 0.0
C1277 C 0.96335 0.22693 0.44347 0.0
C1278 C 0.95715 0.24626 0.39901 0.0
C1279 C 0.9755 0.22749 0.44457 0.0
C1280 C 1.00086 0.24805 0.33871 0.0
H1281 H 0.05547 0.20898 0.46511 0.0
H1282 H 0.03431 0.20957 0.46987 0.0
H1283 H 0.01743 0.24828 0.28899 0.0
H1284 H 0.95887 0.28223 0.32249 0.0
H1285 H 0.97998 0.28357 0.32494 0.0
H1286 H 0.99659 0.24718 0.51252 0.0
C1287 C 0.03867 0.22683 0.43841 0.0
C1288 C 0.01299 0.24831 0.33823 0.0
C1289 C 0.05081 0.22655 0.43573 0.0
C1290 C 0.96338 0.26656 0.35648 0.0
C1291 C 0.9755 0.26726 0.35781 0.0
C1292 C 1.00102 0.24707 0.46324 0.0
C1293 C 0.03223 0.24834 0.39929 0.0
C1294 C 0.0193 0.24793 0.40019 0.0
C1295 C 0.98174 0.24753 0.40147 0.0
C1296 C 0.9947 0.24756 0.40124 0.0
H1297 H 0.05466 0.28714 0.32442 0.0
H1298 H 0.03356 0.28733 0.32858 0.0
H1299 H 0.01775 0.24727 0.51146 0.0
H1300 H 0.95883 0.21069 0.47629 0.0
H1301 H 0.97998 0.21158 0.47816 0.0
C1302 C 0.96383 0.78079 0.59439 0.0
C1303 C 0.95779 0.75616 0.62818 0.0
C1304 C 0.97598 0.7808 0.59239 0.0
C1305 C 1.00156 0.75031 0.68361 0.0
H1306 H 0.01828 0.76795 0.5181 0.0
C1307 C 0.05107 0.73116 0.65969 0.0
C1308 C 0.0575 0.75614 0.62916 0.0
C1309 C 0.03894 0.73118 0.65749 0.0
C1310 C 0.01375 0.76335 0.56501 0.0
H1311 H 0.95985 0.71138 0.68414 0.0
H1312 H 0.98095 0.71135 0.68059 0.0
H1313 H 0.9971 0.76793 0.51785 0.0
H1314 H 0.05615 0.8007 0.572 0.0
H1315 H 0.03498 0.80073 0.56816 0.0
H1316 H 0.01816 0.74577 0.73089 0.0
C1317 C 0.97633 0.73118 0.65686 0.0
C1318 C 1.00159 0.76335 0.56487 0.0
C1319 C 0.9642 0.73119 0.65887 0.0
C1320 C 0.05148 0.78083 0.59538 0.0
C1321 C 0.03934 0.78085 0.59318 0.0
C1322 C 0.01369 0.75032 0.68375 0.0
C1323 C 0.98239 0.75615 0.62411 0.0
C1324 C 0.99534 0.75666 0.6241 0.0
C1325 C 0.0329 0.75617 0.6247 0.0
C1326 C 0.01996 0.75667 0.62439 0.0
H1327 H 0.95918 0.80065 0.57088 0.0
H1328 H 0.98035 0.80066 0.56738 0.0
H1329 H 0.99706 0.74577 0.73064 0.0
H1330 H 0.0554 0.71132 0.68494 0.0
H1331 H 0.0343 0.71134 0.68109 0.0
C1332 C 0.5513 0.72881 0.95752 0.0
C1333 C 0.55748 0.74607 0.9095 0.0
C1334 C 0.53916 0.72971 0.95927 0.0
C1335 C 0.51369 0.74531 0.85078 0.0
H1336 H 0.49709 0.75438 0.02617 0.0
C1337 C 0.46413 0.7664 0.86495 0.0
C1338 C 0.45779 0.74812 0.9107 0.0
C1339 C 0.47625 0.76682 0.86646 0.0
C1340 C 0.50159 0.75146 0.9767 0.0
H1341 H 0.55569 0.77872 0.82708 0.0
H1342 H 0.53458 0.78033 0.83018 0.0
H1343 H 0.51826 0.75393 0.02589 0.0
H1344 H 0.45934 0.71591 0.994 0.0
H1345 H 0.48049 0.71663 0.99661 0.0
H1346 H 0.49705 0.74273 0.80153 0.0
C1347 C 0.53909 0.76551 0.86566 0.0
C1348 C 0.51373 0.7512 0.97654 0.0
C1349 C 0.55122 0.7646 0.86389 0.0
C1350 C 0.46392 0.73063 0.95863 0.0
C1351 C 0.47606 0.73105 0.96012 0.0
C1352 C 0.50156 0.74556 0.85095 0.0
C1353 C 0.53289 0.7479 0.91306 0.0
C1354 C 0.51995 0.74818 0.91355 0.0
C1355 C 0.48239 0.74897 0.91373 0.0
C1356 C 0.49534 0.7487 0.91388 0.0
H1357 H 0.55582 0.7139 0.99279 0.0
H1358 H 0.53467 0.71546 0.99585 0.0
H1359 H 0.51816 0.74229 0.80125 0.0
H1360 H 0.4597 0.78068 0.82821 0.0
H1361 H 0.48082 0.78145 0.83086 0.0
C1362 C 0.46409 0.22931 0.15268 0.0
C1363 C 0.45754 0.25435 0.123 0.0
C1364 C 0.4762 0.22922 0.14882 0.0
C1365 C 0.50126 0.28596 0.12239 0.0
H1366 H 0.51795 0.19812 0.09169 0.0
C1367 C 0.55122 0.27963 0.08773 0.0
C1368 C 0.55717 0.25491 0.12179 0.0
C1369 C 0.53908 0.27942 0.08422 0.0
C1370 C 0.51344 0.22289 0.10096 0.0
H1371 H 0.45869 0.299 0.06596 0.0
H1372 H 0.47982 0.29849 0.05826 0.0
H1373 H 0.49682 0.19802 0.09203 0.0
H1374 H 0.55496 0.2101 0.17748 0.0
H1375 H 0.53386 0.21013 0.17245 0.0
H1376 H 0.5179 0.31081 0.1318 0.0
C1377 C 0.47557 0.2791 0.08514 0.0
C1378 C 0.5013 0.22283 0.10117 0.0
C1379 C 0.46344 0.27915 0.08888 0.0
C1380 C 0.55067 0.22979 0.15157 0.0
C1381 C 0.53856 0.22954 0.14793 0.0
C1382 C 0.51341 0.28602 0.12219 0.0
C1383 C 0.48212 0.25417 0.11521 0.0
C1384 C 0.49505 0.25434 0.11242 0.0
C1385 C 0.53259 0.25442 0.11444 0.0
C1386 C 0.51966 0.25447 0.11201 0.0
H1387 H 0.45985 0.20956 0.17865 0.0
H1388 H 0.48095 0.20986 0.17324 0.0
H1389 H 0.49675 0.31071 0.13214 0.0
H1390 H 0.55592 0.29953 0.06472 0.0
H1391 H 0.53479 0.29876 0.05742 0.0
loop_
_geom_bond_atom_site_label_1
_geom_bond_atom_site_label_2
_geom_bond_distance
_geom_bond_site_symmetry_2
_ccdc_geom_bond_type
Tb0 N29 2.617 . S
Tb0 N35 2.572 . S
Tb0 O44 2.465 . S
Tb0 O45 2.387 . S
Tb0 O47 2.428 . S
Tb0 O48 2.308 . S
Tb0 O52 2.349 . S
Tb0 O55 2.393 . S
Tb0 C64 2.802 . S
C1 N2 1.379 . S
C1 C4 1.416 . S
C1 C8 1.424 . S
N2 C1 1.379 . S
N2 C5 1.334 . S
N2 Tb11 2.617 . S
C3 C5 1.390 . S
C3 C6 1.339 . S
C3 H23 0.930 . S
C4 C1 1.416 . S
C4 C6 1.416 . S
C4 C10 1.448 . S
C5 N2 1.334 . S
C5 C3 1.390 . S
C5 H16 0.930 . S
C6 C3 1.339 . S
C6 C4 1.416 . S
C6 H27 0.930 . S
C7 C8 1.413 . S
C7 C9 1.427 . S
C7 C13 1.416 . S
C8 C1 1.424 . S
C8 C7 1.413 . S
C8 N12 1.361 . S
C9 C7 1.427 . S
C9 C10 1.328 . S
C9 H24 0.929 . S
C10 C4 1.448 . S
C10 C9 1.328 . S
C10 H25 0.930 . S
Tb11 N2 2.617 . S
Tb11 N12 2.572 . S
Tb11 O46 2.349 . S
Tb11 O49 2.393 . S
Tb11 O50 2.465 . S
Tb11 O51 2.387 . S
Tb11 O53 2.428 . S
Tb11 O54 2.308 . S
Tb11 C75 2.802 . S
N12 C8 1.361 . S
N12 Tb11 2.572 . S
N12 C14 1.340 . S
C13 C7 1.416 . S
C13 C15 1.332 . S
C13 H21 0.931 . S
C14 N12 1.340 . S
C14 C15 1.407 . S
C14 H20 0.930 . S
C15 C13 1.332 . S
C15 C14 1.407 . S
C15 H17 0.929 . S
H16 C5 0.930 . S
H17 C15 0.929 . S
H18 C33 0.930 . S
H19 C40 0.929 . S
H20 C14 0.930 . S
H21 C13 0.931 . S
H22 C36 0.930 . S
H23 C3 0.930 . S
H24 C9 0.929 . S
H25 C10 0.930 . S
H26 C31 0.930 . S
H27 C6 0.930 . S
H28 C39 0.931 . S
N29 Tb0 2.617 . S
N29 C30 1.379 . S
N29 C33 1.334 . S
C30 N29 1.379 . S
C30 C32 1.416 . S
C30 C38 1.424 . S
C31 H26 0.930 . S
C31 C33 1.390 . S
C31 C34 1.339 . S
C32 C30 1.416 . S
C32 C34 1.416 . S
C32 C65 1.448 . S
C33 H18 0.930 . S
C33 N29 1.334 . S
C33 C31 1.390 . S
C34 C31 1.339 . S
C34 C32 1.416 . S
C34 H41 0.930 . S
N35 Tb0 2.572 . S
N35 C36 1.340 . S
N35 C38 1.361 . S
C36 H22 0.930 . S
C36 N35 1.340 . S
C36 C40 1.407 . S
C37 C38 1.413 . S
C37 C39 1.416 . S
C37 C66 1.427 . S
C38 C30 1.424 . S
C38 N35 1.361 . S
C38 C37 1.413 . S
C39 H28 0.931 . S
C39 C37 1.416 . S
C39 C40 1.332 . S
C40 H19 0.929 . S
C40 C36 1.407 . S
C40 C39 1.332 . S
H41 C34 0.930 . S
H42 C65 0.930 . S
H43 C66 0.929 . S
O44 Tb0 2.465 . S
O44 C64 1.264 . S
O45 Tb0 2.387 . S
O45 C56 1.264 . S
O46 Tb11 2.349 . S
O46 C56 1.243 . S
O47 Tb0 2.428 . S
O47 C64 1.256 . S
O48 Tb0 2.308 . S
O48 C63 1.266 . S
O49 Tb11 2.393 . S
O49 C63 1.248 . S
O50 Tb11 2.465 . S
O50 C75 1.264 . S
O51 Tb11 2.387 . S
O51 C67 1.264 . S
O52 Tb0 2.349 . S
O52 C67 1.243 . S
O53 Tb11 2.428 . S
O53 C75 1.256 . S
O54 Tb11 2.308 . S
O54 C74 1.266 . S
O55 Tb0 2.393 . S
O55 C74 1.248 . S
C56 O45 1.264 . S
C56 O46 1.243 . S
C57 C60 1.399 . S
C57 C62 1.383 . S
C57 C64 1.496 . S
C58 C59 1.399 . S
C58 C62 1.389 . S
C59 C58 1.399 . S
C59 C61 1.380 . S
C59 H76 0.929 . S
C60 C57 1.399 . S
C60 C61 1.392 . S
C60 H77 0.929 . S
C61 C59 1.380 . S
C61 C60 1.392 . S
C61 H78 0.929 . S
C62 C57 1.383 . S
C62 C58 1.389 . S
C62 H79 0.931 . S
C63 O48 1.266 . S
C63 O49 1.248 . S
C64 Tb0 2.802 . S
C64 O44 1.264 . S
C64 O47 1.256 . S
C64 C57 1.496 . S
C65 C32 1.448 . S
C65 H42 0.930 . S
C65 C66 1.328 . S
C66 C37 1.427 . S
C66 H43 0.929 . S
C66 C65 1.328 . S
C67 O51 1.264 . S
C67 O52 1.243 . S
C68 C71 1.399 . S
C68 C72 1.383 . S
C68 C75 1.496 . S
C69 C70 1.399 . S
C69 C72 1.389 . S
C70 C69 1.399 . S
C70 C73 1.380 . S
C70 H80 0.929 . S
C71 C68 1.399 . S
C71 C73 1.392 . S
C71 H81 0.929 . S
C72 C68 1.383 . S
C72 C69 1.389 . S
C72 H82 0.931 . S
C73 C70 1.380 . S
C73 C71 1.392 . S
C73 H83 0.929 . S
C74 O54 1.266 . S
C74 O55 1.248 . S
C75 Tb11 2.802 . S
C75 O50 1.264 . S
C75 O53 1.256 . S
C75 C68 1.496 . S
H76 C59 0.929 . S
H77 C60 0.929 . S
H78 C61 0.929 . S
H79 C62 0.931 . S
H80 C70 0.929 . S
H81 C71 0.929 . S
H82 C72 0.931 . S
H83 C73 0.929 . S
Tb84 N113 2.617 . S
Tb84 N119 2.572 . S
Tb84 O128 2.465 . S
Tb84 O129 2.387 . S
Tb84 O131 2.428 . S
Tb84 O132 2.308 . S
Tb84 O136 2.349 . S
Tb84 O139 2.393 . S
Tb84 C148 2.802 . S
C85 N86 1.379 . S
C85 C88 1.416 . S
C85 C92 1.424 . S
N86 C85 1.379 . S
N86 C89 1.334 . S
N86 Tb95 2.617 . S
C87 C89 1.390 . S
C87 C90 1.339 . S
C87 H107 0.930 . S
C88 C85 1.416 . S
C88 C90 1.416 . S
C88 C94 1.448 . S
C89 N86 1.334 . S
C89 C87 1.390 . S
C89 H100 0.930 . S
C90 C87 1.339 . S
C90 C88 1.416 . S
C90 H111 0.930 . S
C91 C92 1.413 . S
C91 C93 1.427 . S
C91 C97 1.416 . S
C92 C85 1.424 . S
C92 C91 1.413 . S
C92 N96 1.361 . S
C93 C91 1.427 . S
C93 C94 1.328 . S
C93 H108 0.929 . S
C94 C88 1.448 . S
C94 C93 1.328 . S
C94 H109 0.930 . S
Tb95 N86 2.617 . S
Tb95 N96 2.572 . S
Tb95 O130 2.349 . S
Tb95 O133 2.393 . S
Tb95 O134 2.465 . S
Tb95 O135 2.387 . S
Tb95 O137 2.428 . S
Tb95 O138 2.308 . S
Tb95 C159 2.802 . S
N96 C92 1.361 . S
N96 Tb95 2.572 . S
N96 C98 1.340 . S
C97 C91 1.416 . S
C97 C99 1.332 . S
C97 H105 0.931 . S
C98 N96 1.340 . S
C98 C99 1.407 . S
C98 H104 0.930 . S
C99 C97 1.332 . S
C99 C98 1.407 . S
C99 H101 0.929 . S
H100 C89 0.930 . S
H101 C99 0.929 . S
H102 C117 0.930 . S
H103 C124 0.929 . S
H104 C98 0.930 . S
H105 C97 0.931 . S
H106 C120 0.930 . S
H107 C87 0.930 . S
H108 C93 0.929 . S
H109 C94 0.930 . S
H110 C115 0.930 . S
H111 C90 0.930 . S
H112 C123 0.931 . S
N113 Tb84 2.617 . S
N113 C114 1.379 . S
N113 C117 1.334 . S
C114 N113 1.379 . S
C114 C116 1.416 . S
C114 C122 1.424 . S
C115 H110 0.930 . S
C115 C117 1.390 . S
C115 C118 1.339 . S
C116 C114 1.416 . S
C116 C118 1.416 . S
C116 C149 1.448 . S
C117 H102 0.930 . S
C117 N113 1.334 . S
C117 C115 1.390 . S
C118 C115 1.339 . S
C118 C116 1.416 . S
C118 H125 0.930 . S
N119 Tb84 2.572 . S
N119 C120 1.340 . S
N119 C122 1.361 . S
C120 H106 0.930 . S
C120 N119 1.340 . S
C120 C124 1.407 . S
C121 C122 1.413 . S
C121 C123 1.416 . S
C121 C150 1.427 . S
C122 C114 1.424 . S
C122 N119 1.361 . S
C122 C121 1.413 . S
C123 H112 0.931 . S
C123 C121 1.416 . S
C123 C124 1.332 . S
C124 H103 0.929 . S
C124 C120 1.407 . S
C124 C123 1.332 . S
H125 C118 0.930 . S
H126 C149 0.930 . S
H127 C150 0.929 . S
O128 Tb84 2.465 . S
O128 C148 1.264 . S
O129 Tb84 2.387 . S
O129 C140 1.264 . S
O130 Tb95 2.349 . S
O130 C140 1.243 . S
O131 Tb84 2.428 . S
O131 C148 1.256 . S
O132 Tb84 2.308 . S
O132 C147 1.266 . S
O133 Tb95 2.393 . S
O133 C147 1.248 . S
O134 Tb95 2.465 . S
O134 C159 1.264 . S
O135 Tb95 2.387 . S
O135 C151 1.264 . S
O136 Tb84 2.349 . S
O136 C151 1.243 . S
O137 Tb95 2.428 . S
O137 C159 1.256 . S
O138 Tb95 2.308 . S
O138 C158 1.266 . S
O139 Tb84 2.393 . S
O139 C158 1.248 . S
C140 O129 1.264 . S
C140 O130 1.243 . S
C141 C144 1.399 . S
C141 C146 1.383 . S
C141 C148 1.496 . S
C142 C143 1.399 . S
C142 C146 1.389 . S
C143 C142 1.399 . S
C143 C145 1.380 . S
C143 H160 0.929 . S
C144 C141 1.399 . S
C144 C145 1.392 . S
C144 H161 0.929 . S
C145 C143 1.380 . S
C145 C144 1.392 . S
C145 H162 0.929 . S
C146 C141 1.383 . S
C146 C142 1.389 . S
C146 H163 0.931 . S
C147 O132 1.266 . S
C147 O133 1.248 . S
C148 Tb84 2.802 . S
C148 O128 1.264 . S
C148 O131 1.256 . S
C148 C141 1.496 . S
C149 C116 1.448 . S
C149 H126 0.930 . S
C149 C150 1.328 . S
C150 C121 1.427 . S
C150 H127 0.929 . S
C150 C149 1.328 . S
C151 O135 1.264 . S
C151 O136 1.243 . S
C152 C155 1.399 . S
C152 C156 1.383 . S
C152 C159 1.496 . S
C153 C154 1.399 . S
C153 C156 1.389 . S
C154 C153 1.399 . S
C154 C157 1.380 . S
C154 H164 0.929 . S
C155 C152 1.399 . S
C155 C157 1.392 . S
C155 H165 0.929 . S
C156 C152 1.383 . S
C156 C153 1.389 . S
C156 H166 0.931 . S
C157 C154 1.380 . S
C157 C155 1.392 . S
C157 H167 0.929 . S
C158 O138 1.266 . S
C158 O139 1.248 . S
C159 Tb95 2.802 . S
C159 O134 1.264 . S
C159 O137 1.256 . S
C159 C152 1.496 . S
H160 C143 0.929 . S
H161 C144 0.929 . S
H162 C145 0.929 . S
H163 C146 0.931 . S
H164 C154 0.929 . S
H165 C155 0.929 . S
H166 C156 0.931 . S
H167 C157 0.929 . S
Tb168 N197 2.617 . S
Tb168 N203 2.572 . S
Tb168 O212 2.465 . S
Tb168 O213 2.387 . S
Tb168 O215 2.428 . S
Tb168 O216 2.308 . S
Tb168 O220 2.349 . S
Tb168 O223 2.393 . S
Tb168 C232 2.802 . S
C169 N170 1.379 . S
C169 C172 1.416 . S
C169 C176 1.424 . S
N170 C169 1.379 . S
N170 C173 1.334 . S
N170 Tb179 2.617 . S
C171 C173 1.390 . S
C171 C174 1.339 . S
C171 H191 0.930 . S
C172 C169 1.416 . S
C172 C174 1.416 . S
C172 C178 1.448 . S
C173 N170 1.334 . S
C173 C171 1.390 . S
C173 H184 0.930 . S
C174 C171 1.339 . S
C174 C172 1.416 . S
C174 H195 0.930 . S
C175 C176 1.413 . S
C175 C177 1.427 . S
C175 C181 1.416 . S
C176 C169 1.424 . S
C176 C175 1.413 . S
C176 N180 1.361 . S
C177 C175 1.427 . S
C177 C178 1.328 . S
C177 H192 0.929 . S
C178 C172 1.448 . S
C178 C177 1.328 . S
C178 H193 0.930 . S
Tb179 N170 2.617 . S
Tb179 N180 2.572 . S
Tb179 O214 2.349 . S
Tb179 O217 2.393 . S
Tb179 O218 2.465 . S
Tb179 O219 2.387 . S
Tb179 O221 2.428 . S
Tb179 O222 2.308 . S
Tb179 C243 2.802 . S
N180 C176 1.361 . S
N180 Tb179 2.572 . S
N180 C182 1.340 . S
C181 C175 1.416 . S
C181 C183 1.332 . S
C181 H189 0.931 . S
C182 N180 1.340 . S
C182 C183 1.407 . S
C182 H188 0.930 . S
C183 C181 1.332 . S
C183 C182 1.407 . S
C183 H185 0.929 . S
H184 C173 0.930 . S
H185 C183 0.929 . S
H186 C201 0.930 . S
H187 C208 0.929 . S
H188 C182 0.930 . S
H189 C181 0.931 . S
H190 C204 0.930 . S
H191 C171 0.930 . S
H192 C177 0.929 . S
H193 C178 0.930 . S
H194 C199 0.930 . S
H195 C174 0.930 . S
H196 C207 0.931 . S
N197 Tb168 2.617 . S
N197 C198 1.379 . S
N197 C201 1.334 . S
C198 N197 1.379 . S
C198 C200 1.416 . S
C198 C206 1.424 . S
C199 H194 0.930 . S
C199 C201 1.390 . S
C199 C202 1.339 . S
C200 C198 1.416 . S
C200 C202 1.416 . S
C200 C233 1.448 . S
C201 H186 0.930 . S
C201 N197 1.334 . S
C201 C199 1.390 . S
C202 C199 1.339 . S
C202 C200 1.416 . S
C202 H209 0.930 . S
N203 Tb168 2.572 . S
N203 C204 1.340 . S
N203 C206 1.361 . S
C204 H190 0.930 . S
C204 N203 1.340 . S
C204 C208 1.407 . S
C205 C206 1.413 . S
C205 C207 1.416 . S
C205 C234 1.427 . S
C206 C198 1.424 . S
C206 N203 1.361 . S
C206 C205 1.413 . S
C207 H196 0.931 . S
C207 C205 1.416 . S
C207 C208 1.332 . S
C208 H187 0.929 . S
C208 C204 1.407 . S
C208 C207 1.332 . S
H209 C202 0.930 . S
H210 C233 0.930 . S
H211 C234 0.929 . S
O212 Tb168 2.465 . S
O212 C232 1.264 . S
O213 Tb168 2.387 . S
O213 C224 1.264 . S
O214 Tb179 2.349 . S
O214 C224 1.243 . S
O215 Tb168 2.428 . S
O215 C232 1.256 . S
O216 Tb168 2.308 . S
O216 C231 1.266 . S
O217 Tb179 2.393 . S
O217 C231 1.248 . S
O218 Tb179 2.465 . S
O218 C243 1.264 . S
O219 Tb179 2.387 . S
O219 C235 1.264 . S
O220 Tb168 2.349 . S
O220 C235 1.243 . S
O221 Tb179 2.428 . S
O221 C243 1.256 . S
O222 Tb179 2.308 . S
O222 C242 1.266 . S
O223 Tb168 2.393 . S
O223 C242 1.248 . S
C224 O213 1.264 . S
C224 O214 1.243 . S
C225 C228 1.399 . S
C225 C230 1.383 . S
C225 C232 1.496 . S
C226 C227 1.399 . S
C226 C230 1.389 . S
C227 C226 1.399 . S
C227 C229 1.380 . S
C227 H244 0.929 . S
C228 C225 1.399 . S
C228 C229 1.392 . S
C228 H245 0.929 . S
C229 C227 1.380 . S
C229 C228 1.392 . S
C229 H246 0.929 . S
C230 C225 1.383 . S
C230 C226 1.389 . S
C230 H247 0.931 . S
C231 O216 1.266 . S
C231 O217 1.248 . S
C232 Tb168 2.802 . S
C232 O212 1.264 . S
C232 O215 1.256 . S
C232 C225 1.496 . S
C233 C200 1.448 . S
C233 H210 0.930 . S
C233 C234 1.328 . S
C234 C205 1.427 . S
C234 H211 0.929 . S
C234 C233 1.328 . S
C235 O219 1.264 . S
C235 O220 1.243 . S
C236 C239 1.399 . S
C236 C240 1.383 . S
C236 C243 1.496 . S
C237 C238 1.399 . S
C237 C240 1.389 . S
C238 C237 1.399 . S
C238 C241 1.380 . S
C238 H248 0.929 . S
C239 C236 1.399 . S
C239 C241 1.392 . S
C239 H249 0.929 . S
C240 C236 1.383 . S
C240 C237 1.389 . S
C240 H250 0.931 . S
C241 C238 1.380 . S
C241 C239 1.392 . S
C241 H251 0.929 . S
C242 O222 1.266 . S
C242 O223 1.248 . S
C243 Tb179 2.802 . S
C243 O218 1.264 . S
C243 O221 1.256 . S
C243 C236 1.496 . S
H244 C227 0.929 . S
H245 C228 0.929 . S
H246 C229 0.929 . S
H247 C230 0.931 . S
H248 C238 0.929 . S
H249 C239 0.929 . S
H250 C240 0.931 . S
H251 C241 0.929 . S
Tb252 N281 2.617 . S
Tb252 N287 2.572 . S
Tb252 O296 2.465 . S
Tb252 O297 2.387 . S
Tb252 O299 2.428 . S
Tb252 O300 2.308 . S
Tb252 O304 2.349 . S
Tb252 O307 2.393 . S
Tb252 C316 2.802 . S
C253 N254 1.379 . S
C253 C256 1.416 . S
C253 C260 1.424 . S
N254 C253 1.379 . S
N254 C257 1.334 . S
N254 Tb263 2.617 . S
C255 C257 1.390 . S
C255 C258 1.339 . S
C255 H275 0.930 . S
C256 C253 1.416 . S
C256 C258 1.416 . S
C256 C262 1.448 . S
C257 N254 1.334 . S
C257 C255 1.390 . S
C257 H268 0.930 . S
C258 C255 1.339 . S
C258 C256 1.416 . S
C258 H279 0.930 . S
C259 C260 1.413 . S
C259 C261 1.427 . S
C259 C265 1.416 . S
C260 C253 1.424 . S
C260 C259 1.413 . S
C260 N264 1.361 . S
C261 C259 1.427 . S
C261 C262 1.328 . S
C261 H276 0.929 . S
C262 C256 1.448 . S
C262 C261 1.328 . S
C262 H277 0.930 . S
Tb263 N254 2.617 . S
Tb263 N264 2.572 . S
Tb263 O298 2.349 . S
Tb263 O301 2.393 . S
Tb263 O302 2.465 . S
Tb263 O303 2.387 . S
Tb263 O305 2.428 . S
Tb263 O306 2.308 . S
Tb263 C327 2.802 . S
N264 C260 1.361 . S
N264 Tb263 2.572 . S
N264 C266 1.340 . S
C265 C259 1.416 . S
C265 C267 1.332 . S
C265 H273 0.931 . S
C266 N264 1.340 . S
C266 C267 1.407 . S
C266 H272 0.930 . S
C267 C265 1.332 . S
C267 C266 1.407 . S
C267 H269 0.929 . S
H268 C257 0.930 . S
H269 C267 0.929 . S
H270 C285 0.930 . S
H271 C292 0.929 . S
H272 C266 0.930 . S
H273 C265 0.931 . S
H274 C288 0.930 . S
H275 C255 0.930 . S
H276 C261 0.929 . S
H277 C262 0.930 . S
H278 C283 0.930 . S
H279 C258 0.930 . S
H280 C291 0.931 . S
N281 Tb252 2.617 . S
N281 C282 1.379 . S
N281 C285 1.334 . S
C282 N281 1.379 . S
C282 C284 1.416 . S
C282 C290 1.424 . S
C283 H278 0.930 . S
C283 C285 1.390 . S
C283 C286 1.339 . S
C284 C282 1.416 . S
C284 C286 1.416 . S
C284 C317 1.448 . S
C285 H270 0.930 . S
C285 N281 1.334 . S
C285 C283 1.390 . S
C286 C283 1.339 . S
C286 C284 1.416 . S
C286 H293 0.930 . S
N287 Tb252 2.572 . S
N287 C288 1.340 . S
N287 C290 1.361 . S
C288 H274 0.930 . S
C288 N287 1.340 . S
C288 C292 1.407 . S
C289 C290 1.413 . S
C289 C291 1.416 . S
C289 C318 1.427 . S
C290 C282 1.424 . S
C290 N287 1.361 . S
C290 C289 1.413 . S
C291 H280 0.931 . S
C291 C289 1.416 . S
C291 C292 1.332 . S
C292 H271 0.929 . S
C292 C288 1.407 . S
C292 C291 1.332 . S
H293 C286 0.930 . S
H294 C317 0.930 . S
H295 C318 0.929 . S
O296 Tb252 2.465 . S
O296 C316 1.264 . S
O297 Tb252 2.387 . S
O297 C308 1.264 . S
O298 Tb263 2.349 . S
O298 C308 1.243 . S
O299 Tb252 2.428 . S
O299 C316 1.256 . S
O300 Tb252 2.308 . S
O300 C315 1.266 . S
O301 Tb263 2.393 . S
O301 C315 1.248 . S
O302 Tb263 2.465 . S
O302 C327 1.264 . S
O303 Tb263 2.387 . S
O303 C319 1.264 . S
O304 Tb252 2.349 . S
O304 C319 1.243 . S
O305 Tb263 2.428 . S
O305 C327 1.256 . S
O306 Tb263 2.308 . S
O306 C326 1.266 . S
O307 Tb252 2.393 . S
O307 C326 1.248 . S
C308 O297 1.264 . S
C308 O298 1.243 . S
C309 C312 1.399 . S
C309 C314 1.383 . S
C309 C316 1.496 . S
C310 C311 1.399 . S
C310 C314 1.389 . S
C311 C310 1.399 . S
C311 C313 1.380 . S
C311 H328 0.929 . S
C312 C309 1.399 . S
C312 C313 1.392 . S
C312 H329 0.929 . S
C313 C311 1.380 . S
C313 C312 1.392 . S
C313 H330 0.929 . S
C314 C309 1.383 . S
C314 C310 1.389 . S
C314 H331 0.931 . S
C315 O300 1.266 . S
C315 O301 1.248 . S
C316 Tb252 2.802 . S
C316 O296 1.264 . S
C316 O299 1.256 . S
C316 C309 1.496 . S
C317 C284 1.448 . S
C317 H294 0.930 . S
C317 C318 1.328 . S
C318 C289 1.427 . S
C318 H295 0.929 . S
C318 C317 1.328 . S
C319 O303 1.264 . S
C319 O304 1.243 . S
C320 C323 1.399 . S
C320 C324 1.383 . S
C320 C327 1.496 . S
C321 C322 1.399 . S
C321 C324 1.389 . S
C322 C321 1.399 . S
C322 C325 1.380 . S
C322 H332 0.929 . S
C323 C320 1.399 . S
C323 C325 1.392 . S
C323 H333 0.929 . S
C324 C320 1.383 . S
C324 C321 1.389 . S
C324 H334 0.931 . S
C325 C322 1.380 . S
C325 C323 1.392 . S
C325 H335 0.929 . S
C326 O306 1.266 . S
C326 O307 1.248 . S
C327 Tb263 2.802 . S
C327 O302 1.264 . S
C327 O305 1.256 . S
C327 C320 1.496 . S
H328 C311 0.929 . S
H329 C312 0.929 . S
H330 C313 0.929 . S
H331 C314 0.931 . S
H332 C322 0.929 . S
H333 C323 0.929 . S
H334 C324 0.931 . S
H335 C325 0.929 . S
Tb336 N365 2.617 . S
Tb336 N371 2.572 . S
Tb336 O380 2.465 1_556 S
Tb336 O381 2.387 . S
Tb336 O383 2.428 1_556 S
Tb336 O384 2.308 . S
Tb336 O388 2.349 1_556 S
Tb336 O391 2.393 1_556 S
Tb336 C400 2.802 1_556 S
C337 N338 1.379 . S
C337 C340 1.416 . S
C337 C344 1.424 . S
N338 C337 1.379 . S
N338 C341 1.334 . S
N338 Tb347 2.617 . S
C339 C341 1.390 . S
C339 C342 1.339 . S
C339 H359 0.930 . S
C340 C337 1.416 . S
C340 C342 1.416 . S
C340 C346 1.448 . S
C341 N338 1.334 . S
C341 C339 1.390 . S
C341 H352 0.930 . S
C342 C339 1.339 . S
C342 C340 1.416 . S
C342 H363 0.930 . S
C343 C344 1.413 . S
C343 C345 1.427 . S
C343 C349 1.416 . S
C344 C337 1.424 . S
C344 C343 1.413 . S
C344 N348 1.361 . S
C345 C343 1.427 . S
C345 C346 1.328 . S
C345 H360 0.929 . S
C346 C340 1.448 . S
C346 C345 1.328 . S
C346 H361 0.930 . S
Tb347 N338 2.617 . S
Tb347 N348 2.572 . S
Tb347 O382 2.349 1_554 S
Tb347 O385 2.393 1_554 S
Tb347 O386 2.465 1_554 S
Tb347 O387 2.387 . S
Tb347 O389 2.428 1_554 S
Tb347 O390 2.308 . S
Tb347 C411 2.802 1_554 S
N348 C344 1.361 . S
N348 Tb347 2.572 . S
N348 C350 1.340 . S
C349 C343 1.416 . S
C349 C351 1.332 . S
C349 H357 0.931 . S
C350 N348 1.340 . S
C350 C351 1.407 . S
C350 H356 0.930 . S
C351 C349 1.332 . S
C351 C350 1.407 . S
C351 H353 0.929 . S
H352 C341 0.930 . S
H353 C351 0.929 . S
H354 C369 0.930 . S
H355 C376 0.929 . S
H356 C350 0.930 . S
H357 C349 0.931 . S
H358 C372 0.930 . S
H359 C339 0.930 . S
H360 C345 0.929 . S
H361 C346 0.930 . S
H362 C367 0.930 . S
H363 C342 0.930 . S
H364 C375 0.931 . S
N365 Tb336 2.617 . S
N365 C366 1.379 . S
N365 C369 1.334 . S
C366 N365 1.379 . S
C366 C368 1.416 . S
C366 C374 1.424 . S
C367 H362 0.930 . S
C367 C369 1.390 . S
C367 C370 1.339 . S
C368 C366 1.416 . S
C368 C370 1.416 . S
C368 C401 1.448 . S
C369 H354 0.930 . S
C369 N365 1.334 . S
C369 C367 1.390 . S
C370 C367 1.339 . S
C370 C368 1.416 . S
C370 H377 0.930 . S
N371 Tb336 2.572 . S
N371 C372 1.340 . S
N371 C374 1.361 . S
C372 H358 0.930 . S
C372 N371 1.340 . S
C372 C376 1.407 . S
C373 C374 1.413 . S
C373 C375 1.416 . S
C373 C402 1.427 . S
C374 C366 1.424 . S
C374 N371 1.361 . S
C374 C373 1.413 . S
C375 H364 0.931 . S
C375 C373 1.416 . S
C375 C376 1.332 . S
C376 H355 0.929 . S
C376 C372 1.407 . S
C376 C375 1.332 . S
H377 C370 0.930 . S
H378 C401 0.930 . S
H379 C402 0.929 . S
O380 Tb336 2.465 1_554 S
O380 C400 1.264 . S
O381 Tb336 2.387 . S
O381 C392 1.264 . S
O382 Tb347 2.349 1_556 S
O382 C392 1.243 . S
O383 Tb336 2.428 1_554 S
O383 C400 1.256 . S
O384 Tb336 2.308 . S
O384 C399 1.266 . S
O385 Tb347 2.393 1_556 S
O385 C399 1.248 . S
O386 Tb347 2.465 1_556 S
O386 C411 1.264 . S
O387 Tb347 2.387 . S
O387 C403 1.264 . S
O388 Tb336 2.349 1_554 S
O388 C403 1.243 . S
O389 Tb347 2.428 1_556 S
O389 C411 1.256 . S
O390 Tb347 2.308 . S
O390 C410 1.266 . S
O391 Tb336 2.393 1_554 S
O391 C410 1.248 . S
C392 O381 1.264 . S
C392 O382 1.243 . S
C393 C396 1.399 . S
C393 C398 1.383 . S
C393 C400 1.496 . S
C394 C395 1.399 . S
C394 C398 1.389 . S
C395 C394 1.399 . S
C395 C397 1.380 . S
C395 H412 0.929 . S
C396 C393 1.399 . S
C396 C397 1.392 . S
C396 H413 0.929 . S
C397 C395 1.380 . S
C397 C396 1.392 . S
C397 H414 0.929 . S
C398 C393 1.383 . S
C398 C394 1.389 . S
C398 H415 0.931 . S
C399 O384 1.266 . S
C399 O385 1.248 . S
C400 Tb336 2.802 1_554 S
C400 O380 1.264 . S
C400 O383 1.256 . S
C400 C393 1.496 . S
C401 C368 1.448 . S
C401 H378 0.930 . S
C401 C402 1.328 . S
C402 C373 1.427 . S
C402 H379 0.929 . S
C402 C401 1.328 . S
C403 O387 1.264 . S
C403 O388 1.243 . S
C404 C407 1.399 . S
C404 C408 1.383 . S
C404 C411 1.496 . S
C405 C406 1.399 . S
C405 C408 1.389 . S
C406 C405 1.399 . S
C406 C409 1.380 . S
C406 H416 0.929 . S
C407 C404 1.399 . S
C407 C409 1.392 . S
C407 H417 0.929 . S
C408 C404 1.383 . S
C408 C405 1.389 . S
C408 H418 0.931 . S
C409 C406 1.380 . S
C409 C407 1.392 . S
C409 H419 0.929 . S
C410 O390 1.266 . S
C410 O391 1.248 . S
C411 Tb347 2.802 1_556 S
C411 O386 1.264 . S
C411 O389 1.256 . S
C411 C404 1.496 . S
H412 C395 0.929 . S
H413 C396 0.929 . S
H414 C397 0.929 . S
H415 C398 0.931 . S
H416 C406 0.929 . S
H417 C407 0.929 . S
H418 C408 0.931 . S
H419 C409 0.929 . S
Tb420 N449 2.617 . S
Tb420 N455 2.572 . S
Tb420 O464 2.465 1_554 S
Tb420 O465 2.387 . S
Tb420 O467 2.428 1_554 S
Tb420 O468 2.308 . S
Tb420 O472 2.349 1_554 S
Tb420 O475 2.393 1_554 S
Tb420 C484 2.802 1_554 S
C421 N422 1.379 . S
C421 C424 1.416 . S
C421 C428 1.424 . S
N422 C421 1.379 . S
N422 C425 1.334 . S
N422 Tb431 2.617 . S
C423 C425 1.390 . S
C423 C426 1.339 . S
C423 H443 0.930 . S
C424 C421 1.416 . S
C424 C426 1.416 . S
C424 C430 1.448 . S
C425 N422 1.334 . S
C425 C423 1.390 . S
C425 H436 0.930 . S
C426 C423 1.339 . S
C426 C424 1.416 . S
C426 H447 0.930 . S
C427 C428 1.413 . S
C427 C429 1.427 . S
C427 C433 1.416 . S
C428 C421 1.424 . S
C428 C427 1.413 . S
C428 N432 1.361 . S
C429 C427 1.427 . S
C429 C430 1.328 . S
C429 H444 0.929 . S
C430 C424 1.448 . S
C430 C429 1.328 . S
C430 H445 0.930 . S
Tb431 N422 2.617 . S
Tb431 N432 2.572 . S
Tb431 O466 2.349 1_556 S
Tb431 O469 2.393 1_556 S
Tb431 O470 2.465 1_556 S
Tb431 O471 2.387 . S
Tb431 O473 2.428 1_556 S
Tb431 O474 2.308 . S
Tb431 C495 2.802 1_556 S
N432 C428 1.361 . S
N432 Tb431 2.572 . S
N432 C434 1.340 . S
C433 C427 1.416 . S
C433 C435 1.332 . S
C433 H441 0.931 . S
C434 N432 1.340 . S
C434 C435 1.407 . S
C434 H440 0.930 . S
C435 C433 1.332 . S
C435 C434 1.407 . S
C435 H437 0.929 . S
H436 C425 0.930 . S
H437 C435 0.929 . S
H438 C453 0.930 . S
H439 C460 0.929 . S
H440 C434 0.930 . S
H441 C433 0.931 . S
H442 C456 0.930 . S
H443 C423 0.930 . S
H444 C429 0.929 . S
H445 C430 0.930 . S
H446 C451 0.930 . S
H447 C426 0.930 . S
H448 C459 0.931 . S
N449 Tb420 2.617 . S
N449 C450 1.379 . S
N449 C453 1.334 . S
C450 N449 1.379 . S
C450 C452 1.416 . S
C450 C458 1.424 . S
C451 H446 0.930 . S
C451 C453 1.390 . S
C451 C454 1.339 . S
C452 C450 1.416 . S
C452 C454 1.416 . S
C452 C485 1.448 . S
C453 H438 0.930 . S
C453 N449 1.334 . S
C453 C451 1.390 . S
C454 C451 1.339 . S
C454 C452 1.416 . S
C454 H461 0.930 . S
N455 Tb420 2.572 . S
N455 C456 1.340 . S
N455 C458 1.361 . S
C456 H442 0.930 . S
C456 N455 1.340 . S
C456 C460 1.407 . S
C457 C458 1.413 . S
C457 C459 1.416 . S
C457 C486 1.427 . S
C458 C450 1.424 . S
C458 N455 1.361 . S
C458 C457 1.413 . S
C459 H448 0.931 . S
C459 C457 1.416 . S
C459 C460 1.332 . S
C460 H439 0.929 . S
C460 C456 1.407 . S
C460 C459 1.332 . S
H461 C454 0.930 . S
H462 C485 0.930 . S
H463 C486 0.929 . S
O464 Tb420 2.465 1_556 S
O464 C484 1.264 . S
O465 Tb420 2.387 . S
O465 C476 1.264 . S
O466 Tb431 2.349 1_554 S
O466 C476 1.243 . S
O467 Tb420 2.428 1_556 S
O467 C484 1.256 . S
O468 Tb420 2.308 . S
O468 C483 1.266 . S
O469 Tb431 2.393 1_554 S
O469 C483 1.248 . S
O470 Tb431 2.465 1_554 S
O470 C495 1.264 . S
O471 Tb431 2.387 . S
O471 C487 1.264 . S
O472 Tb420 2.349 1_556 S
O472 C487 1.243 . S
O473 Tb431 2.428 1_554 S
O473 C495 1.256 . S
O474 Tb431 2.308 . S
O474 C494 1.266 . S
O475 Tb420 2.393 1_556 S
O475 C494 1.248 . S
C476 O465 1.264 . S
C476 O466 1.243 . S
C477 C480 1.399 . S
C477 C482 1.383 . S
C477 C484 1.496 . S
C478 C479 1.399 . S
C478 C482 1.389 . S
C479 C478 1.399 . S
C479 C481 1.380 . S
C479 H496 0.929 . S
C480 C477 1.399 . S
C480 C481 1.392 . S
C480 H497 0.929 . S
C481 C479 1.380 . S
C481 C480 1.392 . S
C481 H498 0.929 . S
C482 C477 1.383 . S
C482 C478 1.389 . S
C482 H499 0.931 . S
C483 O468 1.266 . S
C483 O469 1.248 . S
C484 Tb420 2.802 1_556 S
C484 O464 1.264 . S
C484 O467 1.256 . S
C484 C477 1.496 . S
C485 C452 1.448 . S
C485 H462 0.930 . S
C485 C486 1.328 . S
C486 C457 1.427 . S
C486 H463 0.929 . S
C486 C485 1.328 . S
C487 O471 1.264 . S
C487 O472 1.243 . S
C488 C491 1.399 . S
C488 C492 1.383 . S
C488 C495 1.496 . S
C489 C490 1.399 . S
C489 C492 1.389 . S
C490 C489 1.399 . S
C490 C493 1.380 . S
C490 H500 0.929 . S
C491 C488 1.399 . S
C491 C493 1.392 . S
C491 H501 0.929 . S
C492 C488 1.383 . S
C492 C489 1.389 . S
C492 H502 0.931 . S
C493 C490 1.380 . S
C493 C491 1.392 . S
C493 H503 0.929 . S
C494 O474 1.266 . S
C494 O475 1.248 . S
C495 Tb431 2.802 1_554 S
C495 O470 1.264 . S
C495 O473 1.256 . S
C495 C488 1.496 . S
H496 C479 0.929 . S
H497 C480 0.929 . S
H498 C481 0.929 . S
H499 C482 0.931 . S
H500 C490 0.929 . S
H501 C491 0.929 . S
H502 C492 0.931 . S
H503 C493 0.929 . S
Tb504 N533 2.617 . S
Tb504 N539 2.572 . S
Tb504 O548 2.465 1_554 S
Tb504 O549 2.387 . S
Tb504 O551 2.428 1_554 S
Tb504 O552 2.308 . S
Tb504 O556 2.349 1_554 S
Tb504 O559 2.393 1_554 S
Tb504 C568 2.802 1_554 S
C505 N506 1.379 . S
C505 C508 1.416 . S
C505 C512 1.424 . S
N506 C505 1.379 . S
N506 C509 1.334 . S
N506 Tb515 2.617 . S
C507 C509 1.390 . S
C507 C510 1.339 . S
C507 H527 0.930 . S
C508 C505 1.416 . S
C508 C510 1.416 . S
C508 C514 1.448 . S
C509 N506 1.334 . S
C509 C507 1.390 . S
C509 H520 0.930 . S
C510 C507 1.339 . S
C510 C508 1.416 . S
C510 H531 0.930 . S
C511 C512 1.413 . S
C511 C513 1.427 . S
C511 C517 1.416 . S
C512 C505 1.424 . S
C512 C511 1.413 . S
C512 N516 1.361 . S
C513 C511 1.427 . S
C513 C514 1.328 . S
C513 H528 0.929 . S
C514 C508 1.448 . S
C514 C513 1.328 . S
C514 H529 0.930 . S
Tb515 N506 2.617 . S
Tb515 N516 2.572 . S
Tb515 O550 2.349 1_556 S
Tb515 O553 2.393 1_556 S
Tb515 O554 2.465 1_556 S
Tb515 O555 2.387 . S
Tb515 O557 2.428 1_556 S
Tb515 O558 2.308 . S
Tb515 C579 2.802 1_556 S
N516 C512 1.361 . S
N516 Tb515 2.572 . S
N516 C518 1.340 . S
C517 C511 1.416 . S
C517 C519 1.332 . S
C517 H525 0.931 . S
C518 N516 1.340 . S
C518 C519 1.407 . S
C518 H524 0.930 . S
C519 C517 1.332 . S
C519 C518 1.407 . S
C519 H521 0.929 . S
H520 C509 0.930 . S
H521 C519 0.929 . S
H522 C537 0.930 . S
H523 C544 0.929 . S
H524 C518 0.930 . S
H525 C517 0.931 . S
H526 C540 0.930 . S
H527 C507 0.930 . S
H528 C513 0.929 . S
H529 C514 0.930 . S
H530 C535 0.930 . S
H531 C510 0.930 . S
H532 C543 0.931 . S
N533 Tb504 2.617 . S
N533 C534 1.379 . S
N533 C537 1.334 . S
C534 N533 1.379 . S
C534 C536 1.416 . S
C534 C542 1.424 . S
C535 H530 0.930 . S
C535 C537 1.390 . S
C535 C538 1.339 . S
C536 C534 1.416 . S
C536 C538 1.416 . S
C536 C569 1.448 . S
C537 H522 0.930 . S
C537 N533 1.334 . S
C537 C535 1.390 . S
C538 C535 1.339 . S
C538 C536 1.416 . S
C538 H545 0.930 . S
N539 Tb504 2.572 . S
N539 C540 1.340 . S
N539 C542 1.361 . S
C540 H526 0.930 . S
C540 N539 1.340 . S
C540 C544 1.407 . S
C541 C542 1.413 . S
C541 C543 1.416 . S
C541 C570 1.427 . S
C542 C534 1.424 . S
C542 N539 1.361 . S
C542 C541 1.413 . S
C543 H532 0.931 . S
C543 C541 1.416 . S
C543 C544 1.332 . S
C544 H523 0.929 . S
C544 C540 1.407 . S
C544 C543 1.332 . S
H545 C538 0.930 . S
H546 C569 0.930 . S
H547 C570 0.929 . S
O548 Tb504 2.465 1_556 S
O548 C568 1.264 . S
O549 Tb504 2.387 . S
O549 C560 1.264 . S
O550 Tb515 2.349 1_554 S
O550 C560 1.243 . S
O551 Tb504 2.428 1_556 S
O551 C568 1.256 . S
O552 Tb504 2.308 . S
O552 C567 1.266 . S
O553 Tb515 2.393 1_554 S
O553 C567 1.248 . S
O554 Tb515 2.465 1_554 S
O554 C579 1.264 . S
O555 Tb515 2.387 . S
O555 C571 1.264 . S
O556 Tb504 2.349 1_556 S
O556 C571 1.243 . S
O557 Tb515 2.428 1_554 S
O557 C579 1.256 . S
O558 Tb515 2.308 . S
O558 C578 1.266 . S
O559 Tb504 2.393 1_556 S
O559 C578 1.248 . S
C560 O549 1.264 . S
C560 O550 1.243 . S
C561 C564 1.399 . S
C561 C566 1.383 . S
C561 C568 1.496 . S
C562 C563 1.399 . S
C562 C566 1.389 . S
C563 C562 1.399 . S
C563 C565 1.380 . S
C563 H580 0.929 . S
C564 C561 1.399 . S
C564 C565 1.392 . S
C564 H581 0.929 . S
C565 C563 1.380 . S
C565 C564 1.392 . S
C565 H582 0.929 . S
C566 C561 1.383 . S
C566 C562 1.389 . S
C566 H583 0.931 . S
C567 O552 1.266 . S
C567 O553 1.248 . S
C568 Tb504 2.802 1_556 S
C568 O548 1.264 . S
C568 O551 1.256 . S
C568 C561 1.496 . S
C569 C536 1.448 . S
C569 H546 0.930 . S
C569 C570 1.328 . S
C570 C541 1.427 . S
C570 H547 0.929 . S
C570 C569 1.328 . S
C571 O555 1.264 . S
C571 O556 1.243 . S
C572 C575 1.399 . S
C572 C576 1.383 . S
C572 C579 1.496 . S
C573 C574 1.399 . S
C573 C576 1.389 . S
C574 C573 1.399 . S
C574 C577 1.380 . S
C574 H584 0.929 . S
C575 C572 1.399 . S
C575 C577 1.392 . S
C575 H585 0.929 . S
C576 C572 1.383 . S
C576 C573 1.389 . S
C576 H586 0.931 . S
C577 C574 1.380 . S
C577 C575 1.392 . S
C577 H587 0.929 . S
C578 O558 1.266 . S
C578 O559 1.248 . S
C579 Tb515 2.802 1_554 S
C579 O554 1.264 . S
C579 O557 1.256 . S
C579 C572 1.496 . S
H580 C563 0.929 . S
H581 C564 0.929 . S
H582 C565 0.929 . S
H583 C566 0.931 . S
H584 C574 0.929 . S
H585 C575 0.929 . S
H586 C576 0.931 . S
H587 C577 0.929 . S
Tb588 N617 2.617 . S
Tb588 N623 2.572 . S
Tb588 O632 2.465 1_556 S
Tb588 O633 2.387 . S
Tb588 O635 2.428 1_556 S
Tb588 O636 2.308 . S
Tb588 O640 2.349 1_556 S
Tb588 O643 2.393 1_556 S
Tb588 C652 2.802 1_556 S
C589 N590 1.379 . S
C589 C592 1.416 . S
C589 C596 1.424 . S
N590 C589 1.379 . S
N590 C593 1.334 . S
N590 Tb599 2.617 . S
C591 C593 1.390 . S
C591 C594 1.339 . S
C591 H611 0.930 . S
C592 C589 1.416 . S
C592 C594 1.416 . S
C592 C598 1.448 . S
C593 N590 1.334 . S
C593 C591 1.390 . S
C593 H604 0.930 . S
C594 C591 1.339 . S
C594 C592 1.416 . S
C594 H615 0.930 . S
C595 C596 1.413 . S
C595 C597 1.427 . S
C595 C601 1.416 . S
C596 C589 1.424 . S
C596 C595 1.413 . S
C596 N600 1.361 . S
C597 C595 1.427 . S
C597 C598 1.328 . S
C597 H612 0.929 . S
C598 C592 1.448 . S
C598 C597 1.328 . S
C598 H613 0.930 . S
Tb599 N590 2.617 . S
Tb599 N600 2.572 . S
Tb599 O634 2.349 1_554 S
Tb599 O637 2.393 1_554 S
Tb599 O638 2.465 1_554 S
Tb599 O639 2.387 . S
Tb599 O641 2.428 1_554 S
Tb599 O642 2.308 . S
Tb599 C663 2.802 1_554 S
N600 C596 1.361 . S
N600 Tb599 2.572 . S
N600 C602 1.340 . S
C601 C595 1.416 . S
C601 C603 1.332 . S
C601 H609 0.931 . S
C602 N600 1.340 . S
C602 C603 1.407 . S
C602 H608 0.930 . S
C603 C601 1.332 . S
C603 C602 1.407 . S
C603 H605 0.929 . S
H604 C593 0.930 . S
H605 C603 0.929 . S
H606 C621 0.930 . S
H607 C628 0.929 . S
H608 C602 0.930 . S
H609 C601 0.931 . S
H610 C624 0.930 . S
H611 C591 0.930 . S
H612 C597 0.929 . S
H613 C598 0.930 . S
H614 C619 0.930 . S
H615 C594 0.930 . S
H616 C627 0.931 . S
N617 Tb588 2.617 . S
N617 C618 1.379 . S
N617 C621 1.334 . S
C618 N617 1.379 . S
C618 C620 1.416 . S
C618 C626 1.424 . S
C619 H614 0.930 . S
C619 C621 1.390 . S
C619 C622 1.339 . S
C620 C618 1.416 . S
C620 C622 1.416 . S
C620 C653 1.448 . S
C621 H606 0.930 . S
C621 N617 1.334 . S
C621 C619 1.390 . S
C622 C619 1.339 . S
C622 C620 1.416 . S
C622 H629 0.930 . S
N623 Tb588 2.572 . S
N623 C624 1.340 . S
N623 C626 1.361 . S
C624 H610 0.930 . S
C624 N623 1.340 . S
C624 C628 1.407 . S
C625 C626 1.413 . S
C625 C627 1.416 . S
C625 C654 1.427 . S
C626 C618 1.424 . S
C626 N623 1.361 . S
C626 C625 1.413 . S
C627 H616 0.931 . S
C627 C625 1.416 . S
C627 C628 1.332 . S
C628 H607 0.929 . S
C628 C624 1.407 . S
C628 C627 1.332 . S
H629 C622 0.930 . S
H630 C653 0.930 . S
H631 C654 0.929 . S
O632 Tb588 2.465 1_554 S
O632 C652 1.264 . S
O633 Tb588 2.387 . S
O633 C644 1.264 . S
O634 Tb599 2.349 1_556 S
O634 C644 1.243 . S
O635 Tb588 2.428 1_554 S
O635 C652 1.256 . S
O636 Tb588 2.308 . S
O636 C651 1.266 . S
O637 Tb599 2.393 1_556 S
O637 C651 1.248 . S
O638 Tb599 2.465 1_556 S
O638 C663 1.264 . S
O639 Tb599 2.387 . S
O639 C655 1.264 . S
O640 Tb588 2.349 1_554 S
O640 C655 1.243 . S
O641 Tb599 2.428 1_556 S
O641 C663 1.256 . S
O642 Tb599 2.308 . S
O642 C662 1.266 . S
O643 Tb588 2.393 1_554 S
O643 C662 1.248 . S
C644 O633 1.264 . S
C644 O634 1.243 . S
C645 C648 1.399 . S
C645 C650 1.383 . S
C645 C652 1.496 . S
C646 C647 1.399 . S
C646 C650 1.389 . S
C647 C646 1.399 . S
C647 C649 1.380 . S
C647 H664 0.929 . S
C648 C645 1.399 . S
C648 C649 1.392 . S
C648 H665 0.929 . S
C649 C647 1.380 . S
C649 C648 1.392 . S
C649 H666 0.929 . S
C650 C645 1.383 . S
C650 C646 1.389 . S
C650 H667 0.931 . S
C651 O636 1.266 . S
C651 O637 1.248 . S
C652 Tb588 2.802 1_554 S
C652 O632 1.264 . S
C652 O635 1.256 . S
C652 C645 1.496 . S
C653 C620 1.448 . S
C653 H630 0.930 . S
C653 C654 1.328 . S
C654 C625 1.427 . S
C654 H631 0.929 . S
C654 C653 1.328 . S
C655 O639 1.264 . S
C655 O640 1.243 . S
C656 C659 1.399 . S
C656 C660 1.383 . S
C656 C663 1.496 . S
C657 C658 1.399 . S
C657 C660 1.389 . S
C658 C657 1.399 . S
C658 C661 1.380 . S
C658 H668 0.929 . S
C659 C656 1.399 . S
C659 C661 1.392 . S
C659 H669 0.929 . S
C660 C656 1.383 . S
C660 C657 1.389 . S
C660 H670 0.931 . S
C661 C658 1.380 . S
C661 C659 1.392 . S
C661 H671 0.929 . S
C662 O642 1.266 . S
C662 O643 1.248 . S
C663 Tb599 2.802 1_556 S
C663 O638 1.264 . S
C663 O641 1.256 . S
C663 C656 1.496 . S
H664 C647 0.929 . S
H665 C648 0.929 . S
H666 C649 0.929 . S
H667 C650 0.931 . S
H668 C658 0.929 . S
H669 C659 0.929 . S
H670 C660 0.931 . S
H671 C661 0.929 . S
C672 C673 1.349 . S
C672 C674 1.327 . S
C672 H697 0.950 . S
C673 C672 1.349 . S
C673 C689 1.349 . S
C674 C672 1.327 . S
C674 C693 1.429 . S
C674 H698 0.950 . S
C675 C692 1.574 . S
C675 C694 1.368 . S
C675 H699 0.949 . S
H676 C680 0.949 . S
C677 C678 1.349 . S
C677 C679 1.327 . S
C677 H700 0.950 . S
C678 C677 1.349 . S
C678 C690 1.349 . S
C679 C677 1.327 . S
C679 C695 1.429 . S
C679 H701 0.950 . S
C680 H676 0.949 . S
C680 C688 1.574 . S
C680 C696 1.368 . S
H681 C689 0.950 . S
H682 C687 0.950 . S
H683 C688 0.949 . S
H684 C690 0.950 . S
H685 C691 0.950 . S
H686 C692 0.949 . S
C687 H682 0.950 . S
C687 C689 1.327 . S
C687 C693 1.429 . S
C688 C680 1.574 . S
C688 H683 0.949 . S
C688 C694 1.368 . S
C689 C673 1.349 . S
C689 H681 0.950 . S
C689 C687 1.327 . S
C690 C678 1.349 . S
C690 H684 0.950 . S
C690 C691 1.327 . S
C691 H685 0.950 . S
C691 C690 1.327 . S
C691 C695 1.429 . S
C692 C675 1.574 . S
C692 H686 0.949 . S
C692 C696 1.368 . S
C693 C674 1.429 . S
C693 C687 1.429 . S
C693 C694 1.523 . S
C694 C675 1.368 . S
C694 C688 1.368 . S
C694 C693 1.523 . S
C695 C679 1.429 . S
C695 C691 1.429 . S
C695 C696 1.523 . S
C696 C680 1.368 . S
C696 C692 1.368 . S
C696 C695 1.523 . S
H697 C672 0.950 . S
H698 C674 0.950 . S
H699 C675 0.949 . S
H700 C677 0.950 . S
H701 C679 0.950 . S
C702 C703 1.349 . S
C702 C704 1.327 . S
C702 H727 0.950 . S
C703 C702 1.349 . S
C703 C719 1.349 . S
C704 C702 1.327 . S
C704 C723 1.429 . S
C704 H728 0.950 . S
C705 C722 1.574 . S
C705 C724 1.368 . S
C705 H729 0.949 . S
H706 C710 0.949 . S
C707 C708 1.349 . S
C707 C709 1.327 . S
C707 H730 0.950 . S
C708 C707 1.349 . S
C708 C720 1.349 . S
C709 C707 1.327 . S
C709 C725 1.429 . S
C709 H731 0.950 . S
C710 H706 0.949 . S
C710 C718 1.574 . S
C710 C726 1.368 . S
H711 C719 0.950 . S
H712 C717 0.950 . S
H713 C718 0.949 . S
H714 C720 0.950 . S
H715 C721 0.950 . S
H716 C722 0.949 . S
C717 H712 0.950 . S
C717 C719 1.327 . S
C717 C723 1.429 . S
C718 C710 1.574 . S
C718 H713 0.949 . S
C718 C724 1.368 . S
C719 C703 1.349 . S
C719 H711 0.950 . S
C719 C717 1.327 . S
C720 C708 1.349 . S
C720 H714 0.950 . S
C720 C721 1.327 . S
C721 H715 0.950 . S
C721 C720 1.327 . S
C721 C725 1.429 . S
C722 C705 1.574 . S
C722 H716 0.949 . S
C722 C726 1.368 . S
C723 C704 1.429 . S
C723 C717 1.429 . S
C723 C724 1.523 . S
C724 C705 1.368 . S
C724 C718 1.368 . S
C724 C723 1.523 . S
C725 C709 1.429 . S
C725 C721 1.429 . S
C725 C726 1.523 . S
C726 C710 1.368 . S
C726 C722 1.368 . S
C726 C725 1.523 . S
H727 C702 0.950 . S
H728 C704 0.950 . S
H729 C705 0.949 . S
H730 C707 0.950 . S
H731 C709 0.950 . S
C732 C733 1.349 . S
C732 C734 1.327 . S
C732 H757 0.950 . S
C733 C732 1.349 . S
C733 C749 1.349 . S
C734 C732 1.327 . S
C734 C753 1.429 . S
C734 H758 0.950 . S
C735 C752 1.574 . S
C735 C754 1.368 . S
C735 H759 0.949 . S
H736 C740 0.949 . S
C737 C738 1.349 . S
C737 C739 1.327 . S
C737 H760 0.950 . S
C738 C737 1.349 . S
C738 C750 1.349 . S
C739 C737 1.327 . S
C739 C755 1.429 . S
C739 H761 0.950 . S
C740 H736 0.949 . S
C740 C748 1.574 . S
C740 C756 1.368 . S
H741 C749 0.950 . S
H742 C747 0.950 . S
H743 C748 0.949 . S
H744 C750 0.950 . S
H745 C751 0.950 . S
H746 C752 0.949 . S
C747 H742 0.950 . S
C747 C749 1.327 . S
C747 C753 1.429 . S
C748 C740 1.574 . S
C748 H743 0.949 . S
C748 C754 1.368 . S
C749 C733 1.349 . S
C749 H741 0.950 . S
C749 C747 1.327 . S
C750 C738 1.349 . S
C750 H744 0.950 . S
C750 C751 1.327 . S
C751 H745 0.950 . S
C751 C750 1.327 . S
C751 C755 1.429 . S
C752 C735 1.574 . S
C752 H746 0.949 . S
C752 C756 1.368 . S
C753 C734 1.429 . S
C753 C747 1.429 . S
C753 C754 1.523 . S
C754 C735 1.368 . S
C754 C748 1.368 . S
C754 C753 1.523 . S
C755 C739 1.429 . S
C755 C751 1.429 . S
C755 C756 1.523 . S
C756 C740 1.368 . S
C756 C752 1.368 . S
C756 C755 1.523 . S
H757 C732 0.950 . S
H758 C734 0.950 . S
H759 C735 0.949 . S
H760 C737 0.950 . S
H761 C739 0.950 . S
C762 C763 1.349 . S
C762 C764 1.327 . S
C762 H787 0.950 . S
C763 C762 1.349 . S
C763 C779 1.349 . S
C764 C762 1.327 . S
C764 C783 1.429 . S
C764 H788 0.950 . S
C765 C782 1.574 . S
C765 C784 1.368 . S
C765 H789 0.949 . S
H766 C770 0.949 . S
C767 C768 1.349 . S
C767 C769 1.327 . S
C767 H790 0.950 . S
C768 C767 1.349 . S
C768 C780 1.349 . S
C769 C767 1.327 . S
C769 C785 1.429 . S
C769 H791 0.950 . S
C770 H766 0.949 . S
C770 C778 1.574 . S
C770 C786 1.368 . S
H771 C779 0.950 . S
H772 C777 0.950 . S
H773 C778 0.949 . S
H774 C780 0.950 . S
H775 C781 0.950 . S
H776 C782 0.949 . S
C777 H772 0.950 . S
C777 C779 1.327 . S
C777 C783 1.429 . S
C778 C770 1.574 . S
C778 H773 0.949 . S
C778 C784 1.368 . S
C779 C763 1.349 . S
C779 H771 0.950 . S
C779 C777 1.327 . S
C780 C768 1.349 . S
C780 H774 0.950 . S
C780 C781 1.327 . S
C781 H775 0.950 . S
C781 C780 1.327 . S
C781 C785 1.429 . S
C782 C765 1.574 . S
C782 H776 0.949 . S
C782 C786 1.368 . S
C783 C764 1.429 . S
C783 C777 1.429 . S
C783 C784 1.523 . S
C784 C765 1.368 . S
C784 C778 1.368 . S
C784 C783 1.523 . S
C785 C769 1.429 . S
C785 C781 1.429 . S
C785 C786 1.523 . S
C786 C770 1.368 . S
C786 C782 1.368 . S
C786 C785 1.523 . S
H787 C762 0.950 . S
H788 C764 0.950 . S
H789 C765 0.949 . S
H790 C767 0.950 . S
H791 C769 0.950 . S
C792 C793 1.349 . S
C792 C794 1.327 . S
C792 H817 0.950 . S
C793 C792 1.349 . S
C793 C809 1.349 . S
C794 C792 1.327 . S
C794 C813 1.429 . S
C794 H818 0.950 . S
C795 C812 1.574 1_565 S
C795 C814 1.368 . S
C795 H819 0.949 . S
H796 C800 0.949 . S
C797 C798 1.349 . S
C797 C799 1.327 . S
C797 H820 0.950 . S
C798 C797 1.349 . S
C798 C810 1.349 . S
C799 C797 1.327 . S
C799 C815 1.429 . S
C799 H821 0.950 . S
C800 H796 0.949 . S
C800 C808 1.574 1_545 S
C800 C816 1.368 . S
H801 C809 0.950 . S
H802 C807 0.950 . S
H803 C808 0.949 . S
H804 C810 0.950 . S
H805 C811 0.950 . S
H806 C812 0.949 . S
C807 H802 0.950 . S
C807 C809 1.327 . S
C807 C813 1.429 . S
C808 C800 1.574 1_565 S
C808 H803 0.949 . S
C808 C814 1.368 . S
C809 C793 1.349 . S
C809 H801 0.950 . S
C809 C807 1.327 . S
C810 C798 1.349 . S
C810 H804 0.950 . S
C810 C811 1.327 . S
C811 H805 0.950 . S
C811 C810 1.327 . S
C811 C815 1.429 . S
C812 C795 1.574 1_545 S
C812 H806 0.949 . S
C812 C816 1.368 . S
C813 C794 1.429 . S
C813 C807 1.429 . S
C813 C814 1.523 . S
C814 C795 1.368 . S
C814 C808 1.368 . S
C814 C813 1.523 . S
C815 C799 1.429 . S
C815 C811 1.429 . S
C815 C816 1.523 . S
C816 C800 1.368 . S
C816 C812 1.368 . S
C816 C815 1.523 . S
H817 C792 0.950 . S
H818 C794 0.950 . S
H819 C795 0.949 . S
H820 C797 0.950 . S
H821 C799 0.950 . S
C822 C823 1.349 . S
C822 C824 1.327 . S
C822 H847 0.950 . S
C823 C822 1.349 . S
C823 C839 1.349 . S
C824 C822 1.327 . S
C824 C843 1.429 . S
C824 H848 0.950 . S
C825 C842 1.574 . S
C825 C844 1.368 . S
C825 H849 0.949 . S
H826 C830 0.949 . S
C827 C828 1.349 . S
C827 C829 1.327 . S
C827 H850 0.950 . S
C828 C827 1.349 . S
C828 C840 1.349 . S
C829 C827 1.327 . S
C829 C845 1.429 . S
C829 H851 0.950 . S
C830 H826 0.949 . S
C830 C838 1.574 . S
C830 C846 1.368 . S
H831 C839 0.950 . S
H832 C837 0.950 . S
H833 C838 0.949 . S
H834 C840 0.950 . S
H835 C841 0.950 . S
H836 C842 0.949 . S
C837 H832 0.950 . S
C837 C839 1.327 . S
C837 C843 1.429 . S
C838 C830 1.574 . S
C838 H833 0.949 . S
C838 C844 1.368 . S
C839 C823 1.349 . S
C839 H831 0.950 . S
C839 C837 1.327 . S
C840 C828 1.349 . S
C840 H834 0.950 . S
C840 C841 1.327 . S
C841 H835 0.950 . S
C841 C840 1.327 . S
C841 C845 1.429 . S
C842 C825 1.574 . S
C842 H836 0.949 . S
C842 C846 1.368 . S
C843 C824 1.429 . S
C843 C837 1.429 . S
C843 C844 1.523 . S
C844 C825 1.368 . S
C844 C838 1.368 . S
C844 C843 1.523 . S
C845 C829 1.429 . S
C845 C841 1.429 . S
C845 C846 1.523 . S
C846 C830 1.368 . S
C846 C842 1.368 . S
C846 C845 1.523 . S
H847 C822 0.950 . S
H848 C824 0.950 . S
H849 C825 0.949 . S
H850 C827 0.950 . S
H851 C829 0.950 . S
C852 C853 1.349 . S
C852 C854 1.327 . S
C852 H877 0.950 . S
C853 C852 1.349 . S
C853 C869 1.349 . S
C854 C852 1.327 . S
C854 C873 1.429 . S
C854 H878 0.950 . S
C855 C872 1.574 1_565 S
C855 C874 1.368 . S
C855 H879 0.949 . S
H856 C860 0.949 . S
C857 C858 1.349 . S
C857 C859 1.327 . S
C857 H880 0.950 . S
C858 C857 1.349 . S
C858 C870 1.349 . S
C859 C857 1.327 . S
C859 C875 1.429 . S
C859 H881 0.950 . S
C860 H856 0.949 . S
C860 C868 1.574 1_545 S
C860 C876 1.368 . S
H861 C869 0.950 . S
H862 C867 0.950 . S
H863 C868 0.949 . S
H864 C870 0.950 . S
H865 C871 0.950 . S
H866 C872 0.949 . S
C867 H862 0.950 . S
C867 C869 1.327 . S
C867 C873 1.429 . S
C868 C860 1.574 1_565 S
C868 H863 0.949 . S
C868 C874 1.368 . S
C869 C853 1.349 . S
C869 H861 0.950 . S
C869 C867 1.327 . S
C870 C858 1.349 . S
C870 H864 0.950 . S
C870 C871 1.327 . S
C871 H865 0.950 . S
C871 C870 1.327 . S
C871 C875 1.429 . S
C872 C855 1.574 1_545 S
C872 H866 0.949 . S
C872 C876 1.368 . S
C873 C854 1.429 . S
C873 C867 1.429 . S
C873 C874 1.523 . S
C874 C855 1.368 . S
C874 C868 1.368 . S
C874 C873 1.523 . S
C875 C859 1.429 . S
C875 C871 1.429 . S
C875 C876 1.523 . S
C876 C860 1.368 . S
C876 C872 1.368 . S
C876 C875 1.523 . S
H877 C852 0.950 . S
H878 C854 0.950 . S
H879 C855 0.949 . S
H880 C857 0.950 . S
H881 C859 0.950 . S
C882 C883 1.349 . S
C882 C884 1.327 . S
C882 H907 0.950 . S
C883 C882 1.349 . S
C883 C899 1.349 . S
C884 C882 1.327 . S
C884 C903 1.429 . S
C884 H908 0.950 . S
C885 C902 1.574 . S
C885 C904 1.368 . S
C885 H909 0.949 . S
H886 C890 0.949 . S
C887 C888 1.349 . S
C887 C889 1.327 . S
C887 H910 0.950 . S
C888 C887 1.349 . S
C888 C900 1.349 . S
C889 C887 1.327 . S
C889 C905 1.429 . S
C889 H911 0.950 . S
C890 H886 0.949 . S
C890 C898 1.574 . S
C890 C906 1.368 . S
H891 C899 0.950 . S
H892 C897 0.950 . S
H893 C898 0.949 . S
H894 C900 0.950 . S
H895 C901 0.950 . S
H896 C902 0.949 . S
C897 H892 0.950 . S
C897 C899 1.327 . S
C897 C903 1.429 . S
C898 C890 1.574 . S
C898 H893 0.949 . S
C898 C904 1.368 . S
C899 C883 1.349 . S
C899 H891 0.950 . S
C899 C897 1.327 . S
C900 C888 1.349 . S
C900 H894 0.950 . S
C900 C901 1.327 . S
C901 H895 0.950 . S
C901 C900 1.327 . S
C901 C905 1.429 . S
C902 C885 1.574 . S
C902 H896 0.949 . S
C902 C906 1.368 . S
C903 C884 1.429 . S
C903 C897 1.429 . S
C903 C904 1.523 . S
C904 C885 1.368 . S
C904 C898 1.368 . S
C904 C903 1.523 . S
C905 C889 1.429 . S
C905 C901 1.429 . S
C905 C906 1.523 . S
C906 C890 1.368 . S
C906 C902 1.368 . S
C906 C905 1.523 . S
H907 C882 0.950 . S
H908 C884 0.950 . S
H909 C885 0.949 . S
H910 C887 0.950 . S
H911 C889 0.950 . S
C912 C913 1.349 . S
C912 C914 1.327 . S
C912 H937 0.950 . S
C913 C912 1.349 . S
C913 C929 1.349 1_556 S
C914 C912 1.327 . S
C914 C933 1.429 . S
C914 H938 0.950 . S
C915 C932 1.574 . S
C915 C934 1.368 1_554 S
C915 H939 0.949 . S
H916 C920 0.949 . S
C917 C918 1.349 . S
C917 C919 1.327 . S
C917 H940 0.950 . S
C918 C917 1.349 . S
C918 C930 1.349 1_554 S
C919 C917 1.327 . S
C919 C935 1.429 . S
C919 H941 0.950 . S
C920 H916 0.949 . S
C920 C928 1.574 . S
C920 C936 1.368 1_556 S
H921 C929 0.950 . S
H922 C927 0.950 . S
H923 C928 0.949 . S
H924 C930 0.950 . S
H925 C931 0.950 . S
H926 C932 0.949 . S
C927 H922 0.950 . S
C927 C929 1.327 . S
C927 C933 1.429 1_554 S
C928 C920 1.574 . S
C928 H923 0.949 . S
C928 C934 1.368 . S
C929 C913 1.349 1_554 S
C929 H921 0.950 . S
C929 C927 1.327 . S
C930 C918 1.349 1_556 S
C930 H924 0.950 . S
C930 C931 1.327 . S
C931 H925 0.950 . S
C931 C930 1.327 . S
C931 C935 1.429 1_556 S
C932 C915 1.574 . S
C932 H926 0.949 . S
C932 C936 1.368 . S
C933 C914 1.429 . S
C933 C927 1.429 1_556 S
C933 C934 1.523 . S
C934 C915 1.368 1_556 S
C934 C928 1.368 . S
C934 C933 1.523 . S
C935 C919 1.429 . S
C935 C931 1.429 1_554 S
C935 C936 1.523 . S
C936 C920 1.368 1_554 S
C936 C932 1.368 . S
C936 C935 1.523 . S
H937 C912 0.950 . S
H938 C914 0.950 . S
H939 C915 0.949 . S
H940 C917 0.950 . S
H941 C919 0.950 . S
C942 C943 1.349 1_556 S
C942 C944 1.327 . S
C942 H967 0.950 . S
C943 C942 1.349 1_554 S
C943 C959 1.349 . S
C944 C942 1.327 . S
C944 C963 1.429 1_556 S
C944 H968 0.950 . S
C945 C962 1.574 1_565 S
C945 C964 1.368 . S
C945 H969 0.949 . S
H946 C950 0.949 . S
C947 C948 1.349 1_554 S
C947 C949 1.327 . S
C947 H970 0.950 . S
C948 C947 1.349 1_556 S
C948 C960 1.349 . S
C949 C947 1.327 . S
C949 C965 1.429 1_554 S
C949 H971 0.950 . S
C950 H946 0.949 . S
C950 C958 1.574 1_545 S
C950 C966 1.368 . S
H951 C959 0.950 . S
H952 C957 0.950 . S
H953 C958 0.949 . S
H954 C960 0.950 . S
H955 C961 0.950 . S
H956 C962 0.949 . S
C957 H952 0.950 . S
C957 C959 1.327 . S
C957 C963 1.429 . S
C958 C950 1.574 1_565 S
C958 H953 0.949 . S
C958 C964 1.368 1_556 S
C959 C943 1.349 . S
C959 H951 0.950 . S
C959 C957 1.327 . S
C960 C948 1.349 . S
C960 H954 0.950 . S
C960 C961 1.327 . S
C961 H955 0.950 . S
C961 C960 1.327 . S
C961 C965 1.429 . S
C962 C945 1.574 1_545 S
C962 H956 0.949 . S
C962 C966 1.368 1_554 S
C963 C944 1.429 1_554 S
C963 C957 1.429 . S
C963 C964 1.523 . S
C964 C945 1.368 . S
C964 C958 1.368 1_554 S
C964 C963 1.523 . S
C965 C949 1.429 1_556 S
C965 C961 1.429 . S
C965 C966 1.523 . S
C966 C950 1.368 . S
C966 C962 1.368 1_556 S
C966 C965 1.523 . S
H967 C942 0.950 . S
H968 C944 0.950 . S
H969 C945 0.949 . S
H970 C947 0.950 . S
H971 C949 0.950 . S
C972 C973 1.349 1_556 S
C972 C974 1.327 . S
C972 H997 0.950 . S
C973 C972 1.349 1_554 S
C973 C989 1.349 . S
C974 C972 1.327 . S
C974 C993 1.429 1_556 S
C974 H998 0.950 . S
C975 C992 1.574 . S
C975 C994 1.368 . S
C975 H999 0.949 . S
H976 C980 0.949 . S
C977 C978 1.349 1_554 S
C977 C979 1.327 . S
C977 H1000 0.950 . S
C978 C977 1.349 1_556 S
C978 C990 1.349 . S
C979 C977 1.327 . S
C979 C995 1.429 1_554 S
C979 H1001 0.950 . S
C980 H976 0.949 . S
C980 C988 1.574 . S
C980 C996 1.368 . S
H981 C989 0.950 . S
H982 C987 0.950 . S
H983 C988 0.949 . S
H984 C990 0.950 . S
H985 C991 0.950 . S
H986 C992 0.949 . S
C987 H982 0.950 . S
C987 C989 1.327 . S
C987 C993 1.429 . S
C988 C980 1.574 . S
C988 H983 0.949 . S
C988 C994 1.368 1_556 S
C989 C973 1.349 . S
C989 H981 0.950 . S
C989 C987 1.327 . S
C990 C978 1.349 . S
C990 H984 0.950 . S
C990 C991 1.327 . S
C991 H985 0.950 . S
C991 C990 1.327 . S
C991 C995 1.429 . S
C992 C975 1.574 . S
C992 H986 0.949 . S
C992 C996 1.368 1_554 S
C993 C974 1.429 1_554 S
C993 C987 1.429 . S
C993 C994 1.523 . S
C994 C975 1.368 . S
C994 C988 1.368 1_554 S
C994 C993 1.523 . S
C995 C979 1.429 1_556 S
C995 C991 1.429 . S
C995 C996 1.523 . S
C996 C980 1.368 . S
C996 C992 1.368 1_556 S
C996 C995 1.523 . S
H997 C972 0.950 . S
H998 C974 0.950 . S
H999 C975 0.949 . S
H1000 C977 0.950 . S
H1001 C979 0.950 . S
C1002 C1003 1.349 1_554 S
C1002 C1004 1.327 . S
C1002 H1027 0.950 . S
C1003 C1002 1.349 1_556 S
C1003 C1019 1.349 . S
C1004 C1002 1.327 . S
C1004 C1023 1.429 1_554 S
C1004 H1028 0.950 . S
C1005 C1022 1.574 1_545 S
C1005 C1024 1.368 . S
C1005 H1029 0.949 . S
H1006 C1010 0.949 . S
C1007 C1008 1.349 1_556 S
C1007 C1009 1.327 . S
C1007 H1030 0.950 . S
C1008 C1007 1.349 1_554 S
C1008 C1020 1.349 . S
C1009 C1007 1.327 . S
C1009 C1025 1.429 1_556 S
C1009 H1031 0.950 . S
C1010 H1006 0.949 . S
C1010 C1018 1.574 1_565 S
C1010 C1026 1.368 . S
H1011 C1019 0.950 . S
H1012 C1017 0.950 . S
H1013 C1018 0.949 . S
H1014 C1020 0.950 . S
H1015 C1021 0.950 . S
H1016 C1022 0.949 . S
C1017 H1012 0.950 . S
C1017 C1019 1.327 . S
C1017 C1023 1.429 . S
C1018 C1010 1.574 1_545 S
C1018 H1013 0.949 . S
C1018 C1024 1.368 1_554 S
C1019 C1003 1.349 . S
C1019 H1011 0.950 . S
C1019 C1017 1.327 . S
C1020 C1008 1.349 . S
C1020 H1014 0.950 . S
C1020 C1021 1.327 . S
C1021 H1015 0.950 . S
C1021 C1020 1.327 . S
C1021 C1025 1.429 . S
C1022 C1005 1.574 1_565 S
C1022 H1016 0.949 . S
C1022 C1026 1.368 1_556 S
C1023 C1004 1.429 1_556 S
C1023 C1017 1.429 . S
C1023 C1024 1.523 . S
C1024 C1005 1.368 . S
C1024 C1018 1.368 1_556 S
C1024 C1023 1.523 . S
C1025 C1009 1.429 1_554 S
C1025 C1021 1.429 . S
C1025 C1026 1.523 . S
C1026 C1010 1.368 . S
C1026 C1022 1.368 1_554 S
C1026 C1025 1.523 . S
H1027 C1002 0.950 . S
H1028 C1004 0.950 . S
H1029 C1005 0.949 . S
H1030 C1007 0.950 . S
H1031 C1009 0.950 . S
C1032 C1033 1.349 . S
C1032 C1034 1.327 . S
C1032 H1057 0.950 . S
C1033 C1032 1.349 . S
C1033 C1049 1.349 . S
C1034 C1032 1.327 . S
C1034 C1053 1.429 . S
C1034 H1058 0.950 . S
C1035 C1052 1.574 1_554 S
C1035 C1054 1.368 . S
C1035 H1059 0.949 . S
H1036 C1040 0.949 . S
C1037 C1038 1.349 . S
C1037 C1039 1.327 . S
C1037 H1060 0.950 . S
C1038 C1037 1.349 . S
C1038 C1050 1.349 . S
C1039 C1037 1.327 . S
C1039 C1055 1.429 . S
C1039 H1061 0.950 . S
C1040 H1036 0.949 . S
C1040 C1048 1.574 1_556 S
C1040 C1056 1.368 . S
H1041 C1049 0.950 . S
H1042 C1047 0.950 . S
H1043 C1048 0.949 . S
H1044 C1050 0.950 . S
H1045 C1051 0.950 . S
H1046 C1052 0.949 . S
C1047 H1042 0.950 . S
C1047 C1049 1.327 . S
C1047 C1053 1.429 . S
C1048 C1040 1.574 1_554 S
C1048 H1043 0.949 . S
C1048 C1054 1.368 . S
C1049 C1033 1.349 . S
C1049 H1041 0.950 . S
C1049 C1047 1.327 . S
C1050 C1038 1.349 . S
C1050 H1044 0.950 . S
C1050 C1051 1.327 . S
C1051 H1045 0.950 . S
C1051 C1050 1.327 . S
C1051 C1055 1.429 . S
C1052 C1035 1.574 1_556 S
C1052 H1046 0.949 . S
C1052 C1056 1.368 . S
C1053 C1034 1.429 . S
C1053 C1047 1.429 . S
C1053 C1054 1.523 . S
C1054 C1035 1.368 . S
C1054 C1048 1.368 . S
C1054 C1053 1.523 . S
C1055 C1039 1.429 . S
C1055 C1051 1.429 . S
C1055 C1056 1.523 . S
C1056 C1040 1.368 . S
C1056 C1052 1.368 . S
C1056 C1055 1.523 . S
H1057 C1032 0.950 . S
H1058 C1034 0.950 . S
H1059 C1035 0.949 . S
H1060 C1037 0.950 . S
H1061 C1039 0.950 . S
C1062 C1063 1.349 . S
C1062 C1064 1.327 . S
C1062 H1087 0.950 . S
C1063 C1062 1.349 . S
C1063 C1079 1.349 . S
C1064 C1062 1.327 . S
C1064 C1083 1.429 . S
C1064 H1088 0.950 . S
C1065 C1082 1.574 1_554 S
C1065 C1084 1.368 . S
C1065 H1089 0.949 . S
H1066 C1070 0.949 . S
C1067 C1068 1.349 . S
C1067 C1069 1.327 . S
C1067 H1090 0.950 . S
C1068 C1067 1.349 . S
C1068 C1080 1.349 . S
C1069 C1067 1.327 . S
C1069 C1085 1.429 . S
C1069 H1091 0.950 . S
C1070 H1066 0.949 . S
C1070 C1078 1.574 1_556 S
C1070 C1086 1.368 . S
H1071 C1079 0.950 . S
H1072 C1077 0.950 . S
H1073 C1078 0.949 . S
H1074 C1080 0.950 . S
H1075 C1081 0.950 . S
H1076 C1082 0.949 . S
C1077 H1072 0.950 . S
C1077 C1079 1.327 . S
C1077 C1083 1.429 . S
C1078 C1070 1.574 1_554 S
C1078 H1073 0.949 . S
C1078 C1084 1.368 . S
C1079 C1063 1.349 . S
C1079 H1071 0.950 . S
C1079 C1077 1.327 . S
C1080 C1068 1.349 . S
C1080 H1074 0.950 . S
C1080 C1081 1.327 . S
C1081 H1075 0.950 . S
C1081 C1080 1.327 . S
C1081 C1085 1.429 . S
C1082 C1065 1.574 1_556 S
C1082 H1076 0.949 . S
C1082 C1086 1.368 . S
C1083 C1064 1.429 . S
C1083 C1077 1.429 . S
C1083 C1084 1.523 . S
C1084 C1065 1.368 . S
C1084 C1078 1.368 . S
C1084 C1083 1.523 . S
C1085 C1069 1.429 . S
C1085 C1081 1.429 . S
C1085 C1086 1.523 . S
C1086 C1070 1.368 . S
C1086 C1082 1.368 . S
C1086 C1085 1.523 . S
H1087 C1062 0.950 . S
H1088 C1064 0.950 . S
H1089 C1065 0.949 . S
H1090 C1067 0.950 . S
H1091 C1069 0.950 . S
C1092 C1093 1.349 . S
C1092 C1094 1.327 . S
C1092 H1117 0.950 . S
C1093 C1092 1.349 . S
C1093 C1109 1.349 . S
C1094 C1092 1.327 . S
C1094 C1113 1.429 . S
C1094 H1118 0.950 . S
C1095 C1112 1.574 1_554 S
C1095 C1114 1.368 . S
C1095 H1119 0.949 . S
H1096 C1100 0.949 . S
C1097 C1098 1.349 . S
C1097 C1099 1.327 . S
C1097 H1120 0.950 . S
C1098 C1097 1.349 . S
C1098 C1110 1.349 . S
C1099 C1097 1.327 . S
C1099 C1115 1.429 . S
C1099 H1121 0.950 . S
C1100 H1096 0.949 . S
C1100 C1108 1.574 1_556 S
C1100 C1116 1.368 . S
H1101 C1109 0.950 . S
H1102 C1107 0.950 . S
H1103 C1108 0.949 . S
H1104 C1110 0.950 . S
H1105 C1111 0.950 . S
H1106 C1112 0.949 . S
C1107 H1102 0.950 . S
C1107 C1109 1.327 . S
C1107 C1113 1.429 . S
C1108 C1100 1.574 1_554 S
C1108 H1103 0.949 . S
C1108 C1114 1.368 . S
C1109 C1093 1.349 . S
C1109 H1101 0.950 . S
C1109 C1107 1.327 . S
C1110 C1098 1.349 . S
C1110 H1104 0.950 . S
C1110 C1111 1.327 . S
C1111 H1105 0.950 . S
C1111 C1110 1.327 . S
C1111 C1115 1.429 . S
C1112 C1095 1.574 1_556 S
C1112 H1106 0.949 . S
C1112 C1116 1.368 . S
C1113 C1094 1.429 . S
C1113 C1107 1.429 . S
C1113 C1114 1.523 . S
C1114 C1095 1.368 . S
C1114 C1108 1.368 . S
C1114 C1113 1.523 . S
C1115 C1099 1.429 . S
C1115 C1111 1.429 . S
C1115 C1116 1.523 . S
C1116 C1100 1.368 . S
C1116 C1112 1.368 . S
C1116 C1115 1.523 . S
H1117 C1092 0.950 . S
H1118 C1094 0.950 . S
H1119 C1095 0.949 . S
H1120 C1097 0.950 . S
H1121 C1099 0.950 . S
C1122 C1123 1.349 . S
C1122 C1124 1.327 . S
C1122 H1147 0.950 . S
C1123 C1122 1.349 . S
C1123 C1139 1.349 . S
C1124 C1122 1.327 . S
C1124 C1143 1.429 . S
C1124 H1148 0.950 . S
C1125 C1142 1.574 1_556 S
C1125 C1144 1.368 . S
C1125 H1149 0.949 . S
H1126 C1130 0.949 . S
C1127 C1128 1.349 . S
C1127 C1129 1.327 . S
C1127 H1150 0.950 . S
C1128 C1127 1.349 . S
C1128 C1140 1.349 . S
C1129 C1127 1.327 . S
C1129 C1145 1.429 . S
C1129 H1151 0.950 . S
C1130 H1126 0.949 . S
C1130 C1138 1.574 1_554 S
C1130 C1146 1.368 . S
H1131 C1139 0.950 . S
H1132 C1137 0.950 . S
H1133 C1138 0.949 . S
H1134 C1140 0.950 . S
H1135 C1141 0.950 . S
H1136 C1142 0.949 . S
C1137 H1132 0.950 . S
C1137 C1139 1.327 . S
C1137 C1143 1.429 . S
C1138 C1130 1.574 1_556 S
C1138 H1133 0.949 . S
C1138 C1144 1.368 . S
C1139 C1123 1.349 . S
C1139 H1131 0.950 . S
C1139 C1137 1.327 . S
C1140 C1128 1.349 . S
C1140 H1134 0.950 . S
C1140 C1141 1.327 . S
C1141 H1135 0.950 . S
C1141 C1140 1.327 . S
C1141 C1145 1.429 . S
C1142 C1125 1.574 1_554 S
C1142 H1136 0.949 . S
C1142 C1146 1.368 . S
C1143 C1124 1.429 . S
C1143 C1137 1.429 . S
C1143 C1144 1.523 . S
C1144 C1125 1.368 . S
C1144 C1138 1.368 . S
C1144 C1143 1.523 . S
C1145 C1129 1.429 . S
C1145 C1141 1.429 . S
C1145 C1146 1.523 . S
C1146 C1130 1.368 . S
C1146 C1142 1.368 . S
C1146 C1145 1.523 . S
H1147 C1122 0.950 . S
H1148 C1124 0.950 . S
H1149 C1125 0.949 . S
H1150 C1127 0.950 . S
H1151 C1129 0.950 . S
C1152 C1153 1.349 . S
C1152 C1154 1.327 . S
C1152 H1177 0.950 . S
C1153 C1152 1.349 . S
C1153 C1169 1.349 . S
C1154 C1152 1.327 . S
C1154 C1173 1.429 . S
C1154 H1178 0.950 . S
C1155 C1172 1.574 . S
C1155 C1174 1.368 . S
C1155 H1179 0.949 . S
H1156 C1160 0.949 . S
C1157 C1158 1.349 . S
C1157 C1159 1.327 . S
C1157 H1180 0.950 . S
C1158 C1157 1.349 . S
C1158 C1170 1.349 . S
C1159 C1157 1.327 . S
C1159 C1175 1.429 . S
C1159 H1181 0.950 . S
C1160 H1156 0.949 . S
C1160 C1168 1.574 . S
C1160 C1176 1.368 . S
H1161 C1169 0.950 . S
H1162 C1167 0.950 . S
H1163 C1168 0.949 . S
H1164 C1170 0.950 . S
H1165 C1171 0.950 . S
H1166 C1172 0.949 . S
C1167 H1162 0.950 . S
C1167 C1169 1.327 . S
C1167 C1173 1.429 . S
C1168 C1160 1.574 . S
C1168 H1163 0.949 . S
C1168 C1174 1.368 . S
C1169 C1153 1.349 . S
C1169 H1161 0.950 . S
C1169 C1167 1.327 . S
C1170 C1158 1.349 . S
C1170 H1164 0.950 . S
C1170 C1171 1.327 . S
C1171 H1165 0.950 . S
C1171 C1170 1.327 . S
C1171 C1175 1.429 . S
C1172 C1155 1.574 . S
C1172 H1166 0.949 . S
C1172 C1176 1.368 . S
C1173 C1154 1.429 . S
C1173 C1167 1.429 . S
C1173 C1174 1.523 . S
C1174 C1155 1.368 . S
C1174 C1168 1.368 . S
C1174 C1173 1.523 . S
C1175 C1159 1.429 . S
C1175 C1171 1.429 . S
C1175 C1176 1.523 . S
C1176 C1160 1.368 . S
C1176 C1172 1.368 . S
C1176 C1175 1.523 . S
H1177 C1152 0.950 . S
H1178 C1154 0.950 . S
H1179 C1155 0.949 . S
H1180 C1157 0.950 . S
H1181 C1159 0.950 . S
C1182 C1183 1.349 . S
C1182 C1184 1.327 . S
C1182 H1207 0.950 . S
C1183 C1182 1.349 . S
C1183 C1199 1.349 . S
C1184 C1182 1.327 . S
C1184 C1203 1.429 . S
C1184 H1208 0.950 . S
C1185 C1202 1.574 . S
C1185 C1204 1.368 . S
C1185 H1209 0.949 . S
H1186 C1190 0.949 . S
C1187 C1188 1.349 . S
C1187 C1189 1.327 . S
C1187 H1210 0.950 . S
C1188 C1187 1.349 . S
C1188 C1200 1.349 . S
C1189 C1187 1.327 . S
C1189 C1205 1.429 . S
C1189 H1211 0.950 . S
C1190 H1186 0.949 . S
C1190 C1198 1.574 . S
C1190 C1206 1.368 . S
H1191 C1199 0.950 . S
H1192 C1197 0.950 . S
H1193 C1198 0.949 . S
H1194 C1200 0.950 . S
H1195 C1201 0.950 . S
H1196 C1202 0.949 . S
C1197 H1192 0.950 . S
C1197 C1199 1.327 . S
C1197 C1203 1.429 . S
C1198 C1190 1.574 . S
C1198 H1193 0.949 . S
C1198 C1204 1.368 . S
C1199 C1183 1.349 . S
C1199 H1191 0.950 . S
C1199 C1197 1.327 . S
C1200 C1188 1.349 . S
C1200 H1194 0.950 . S
C1200 C1201 1.327 . S
C1201 H1195 0.950 . S
C1201 C1200 1.327 . S
C1201 C1205 1.429 . S
C1202 C1185 1.574 . S
C1202 H1196 0.949 . S
C1202 C1206 1.368 . S
C1203 C1184 1.429 . S
C1203 C1197 1.429 . S
C1203 C1204 1.523 . S
C1204 C1185 1.368 . S
C1204 C1198 1.368 . S
C1204 C1203 1.523 . S
C1205 C1189 1.429 . S
C1205 C1201 1.429 . S
C1205 C1206 1.523 . S
C1206 C1190 1.368 . S
C1206 C1202 1.368 . S
C1206 C1205 1.523 . S
H1207 C1182 0.950 . S
H1208 C1184 0.950 . S
H1209 C1185 0.949 . S
H1210 C1187 0.950 . S
H1211 C1189 0.950 . S
C1212 C1213 1.349 . S
C1212 C1214 1.327 . S
C1212 H1237 0.950 . S
C1213 C1212 1.349 . S
C1213 C1229 1.349 . S
C1214 C1212 1.327 . S
C1214 C1233 1.429 . S
C1214 H1238 0.950 . S
C1215 C1232 1.574 . S
C1215 C1234 1.368 . S
C1215 H1239 0.949 . S
H1216 C1220 0.949 . S
C1217 C1218 1.349 . S
C1217 C1219 1.327 . S
C1217 H1240 0.950 . S
C1218 C1217 1.349 . S
C1218 C1230 1.349 . S
C1219 C1217 1.327 . S
C1219 C1235 1.429 . S
C1219 H1241 0.950 . S
C1220 H1216 0.949 . S
C1220 C1228 1.574 . S
C1220 C1236 1.368 . S
H1221 C1229 0.950 . S
H1222 C1227 0.950 . S
H1223 C1228 0.949 . S
H1224 C1230 0.950 . S
H1225 C1231 0.950 . S
H1226 C1232 0.949 . S
C1227 H1222 0.950 . S
C1227 C1229 1.327 . S
C1227 C1233 1.429 . S
C1228 C1220 1.574 . S
C1228 H1223 0.949 . S
C1228 C1234 1.368 . S
C1229 C1213 1.349 . S
C1229 H1221 0.950 . S
C1229 C1227 1.327 . S
C1230 C1218 1.349 . S
C1230 H1224 0.950 . S
C1230 C1231 1.327 . S
C1231 H1225 0.950 . S
C1231 C1230 1.327 . S
C1231 C1235 1.429 . S
C1232 C1215 1.574 . S
C1232 H1226 0.949 . S
C1232 C1236 1.368 . S
C1233 C1214 1.429 . S
C1233 C1227 1.429 . S
C1233 C1234 1.523 . S
C1234 C1215 1.368 . S
C1234 C1228 1.368 . S
C1234 C1233 1.523 . S
C1235 C1219 1.429 . S
C1235 C1231 1.429 . S
C1235 C1236 1.523 . S
C1236 C1220 1.368 . S
C1236 C1232 1.368 . S
C1236 C1235 1.523 . S
H1237 C1212 0.950 . S
H1238 C1214 0.950 . S
H1239 C1215 0.949 . S
H1240 C1217 0.950 . S
H1241 C1219 0.950 . S
C1242 C1243 1.349 . S
C1242 C1244 1.327 . S
C1242 H1267 0.950 . S
C1243 C1242 1.349 . S
C1243 C1259 1.349 . S
C1244 C1242 1.327 . S
C1244 C1263 1.429 . S
C1244 H1268 0.950 . S
C1245 C1262 1.574 . S
C1245 C1264 1.368 . S
C1245 H1269 0.949 . S
H1246 C1250 0.949 . S
C1247 C1248 1.349 . S
C1247 C1249 1.327 . S
C1247 H1270 0.950 . S
C1248 C1247 1.349 . S
C1248 C1260 1.349 . S
C1249 C1247 1.327 . S
C1249 C1265 1.429 . S
C1249 H1271 0.950 . S
C1250 H1246 0.949 . S
C1250 C1258 1.574 . S
C1250 C1266 1.368 . S
H1251 C1259 0.950 . S
H1252 C1257 0.950 . S
H1253 C1258 0.949 . S
H1254 C1260 0.950 . S
H1255 C1261 0.950 . S
H1256 C1262 0.949 . S
C1257 H1252 0.950 . S
C1257 C1259 1.327 . S
C1257 C1263 1.429 . S
C1258 C1250 1.574 . S
C1258 H1253 0.949 . S
C1258 C1264 1.368 . S
C1259 C1243 1.349 . S
C1259 H1251 0.950 . S
C1259 C1257 1.327 . S
C1260 C1248 1.349 . S
C1260 H1254 0.950 . S
C1260 C1261 1.327 . S
C1261 H1255 0.950 . S
C1261 C1260 1.327 . S
C1261 C1265 1.429 . S
C1262 C1245 1.574 . S
C1262 H1256 0.949 . S
C1262 C1266 1.368 . S
C1263 C1244 1.429 . S
C1263 C1257 1.429 . S
C1263 C1264 1.523 . S
C1264 C1245 1.368 . S
C1264 C1258 1.368 . S
C1264 C1263 1.523 . S
C1265 C1249 1.429 . S
C1265 C1261 1.429 . S
C1265 C1266 1.523 . S
C1266 C1250 1.368 . S
C1266 C1262 1.368 . S
C1266 C1265 1.523 . S
H1267 C1242 0.950 . S
H1268 C1244 0.950 . S
H1269 C1245 0.949 . S
H1270 C1247 0.950 . S
H1271 C1249 0.950 . S
C1272 C1273 1.349 . S
C1272 C1274 1.327 . S
C1272 H1297 0.950 . S
C1273 C1272 1.349 . S
C1273 C1289 1.349 . S
C1274 C1272 1.327 . S
C1274 C1293 1.429 . S
C1274 H1298 0.950 . S
C1275 C1292 1.574 1_455 S
C1275 C1294 1.368 . S
C1275 H1299 0.949 . S
H1276 C1280 0.949 . S
C1277 C1278 1.349 . S
C1277 C1279 1.327 . S
C1277 H1300 0.950 . S
C1278 C1277 1.349 . S
C1278 C1290 1.349 . S
C1279 C1277 1.327 . S
C1279 C1295 1.429 . S
C1279 H1301 0.950 . S
C1280 H1276 0.949 . S
C1280 C1288 1.574 1_655 S
C1280 C1296 1.368 . S
H1281 C1289 0.950 . S
H1282 C1287 0.950 . S
H1283 C1288 0.949 . S
H1284 C1290 0.950 . S
H1285 C1291 0.950 . S
H1286 C1292 0.949 . S
C1287 H1282 0.950 . S
C1287 C1289 1.327 . S
C1287 C1293 1.429 . S
C1288 C1280 1.574 1_455 S
C1288 H1283 0.949 . S
C1288 C1294 1.368 . S
C1289 C1273 1.349 . S
C1289 H1281 0.950 . S
C1289 C1287 1.327 . S
C1290 C1278 1.349 . S
C1290 H1284 0.950 . S
C1290 C1291 1.327 . S
C1291 H1285 0.950 . S
C1291 C1290 1.327 . S
C1291 C1295 1.429 . S
C1292 C1275 1.574 1_655 S
C1292 H1286 0.949 . S
C1292 C1296 1.368 . S
C1293 C1274 1.429 . S
C1293 C1287 1.429 . S
C1293 C1294 1.523 . S
C1294 C1275 1.368 . S
C1294 C1288 1.368 . S
C1294 C1293 1.523 . S
C1295 C1279 1.429 . S
C1295 C1291 1.429 . S
C1295 C1296 1.523 . S
C1296 C1280 1.368 . S
C1296 C1292 1.368 . S
C1296 C1295 1.523 . S
H1297 C1272 0.950 . S
H1298 C1274 0.950 . S
H1299 C1275 0.949 . S
H1300 C1277 0.950 . S
H1301 C1279 0.950 . S
C1302 C1303 1.349 . S
C1302 C1304 1.327 . S
C1302 H1327 0.950 . S
C1303 C1302 1.349 . S
C1303 C1319 1.349 . S
C1304 C1302 1.327 . S
C1304 C1323 1.429 . S
C1304 H1328 0.950 . S
C1305 C1322 1.574 1_655 S
C1305 C1324 1.368 . S
C1305 H1329 0.949 . S
H1306 C1310 0.949 . S
C1307 C1308 1.349 . S
C1307 C1309 1.327 . S
C1307 H1330 0.950 . S
C1308 C1307 1.349 . S
C1308 C1320 1.349 . S
C1309 C1307 1.327 . S
C1309 C1325 1.429 . S
C1309 H1331 0.950 . S
C1310 H1306 0.949 . S
C1310 C1318 1.574 1_455 S
C1310 C1326 1.368 . S
H1311 C1319 0.950 . S
H1312 C1317 0.950 . S
H1313 C1318 0.949 . S
H1314 C1320 0.950 . S
H1315 C1321 0.950 . S
H1316 C1322 0.949 . S
C1317 H1312 0.950 . S
C1317 C1319 1.327 . S
C1317 C1323 1.429 . S
C1318 C1310 1.574 1_655 S
C1318 H1313 0.949 . S
C1318 C1324 1.368 . S
C1319 C1303 1.349 . S
C1319 H1311 0.950 . S
C1319 C1317 1.327 . S
C1320 C1308 1.349 . S
C1320 H1314 0.950 . S
C1320 C1321 1.327 . S
C1321 H1315 0.950 . S
C1321 C1320 1.327 . S
C1321 C1325 1.429 . S
C1322 C1305 1.574 1_455 S
C1322 H1316 0.949 . S
C1322 C1326 1.368 . S
C1323 C1304 1.429 . S
C1323 C1317 1.429 . S
C1323 C1324 1.523 . S
C1324 C1305 1.368 . S
C1324 C1318 1.368 . S
C1324 C1323 1.523 . S
C1325 C1309 1.429 . S
C1325 C1321 1.429 . S
C1325 C1326 1.523 . S
C1326 C1310 1.368 . S
C1326 C1322 1.368 . S
C1326 C1325 1.523 . S
H1327 C1302 0.950 . S
H1328 C1304 0.950 . S
H1329 C1305 0.949 . S
H1330 C1307 0.950 . S
H1331 C1309 0.950 . S
C1332 C1333 1.349 . S
C1332 C1334 1.327 . S
C1332 H1357 0.950 . S
C1333 C1332 1.349 . S
C1333 C1349 1.349 . S
C1334 C1332 1.327 . S
C1334 C1353 1.429 . S
C1334 H1358 0.950 . S
C1335 C1352 1.574 . S
C1335 C1354 1.368 . S
C1335 H1359 0.949 . S
H1336 C1340 0.949 . S
C1337 C1338 1.349 . S
C1337 C1339 1.327 . S
C1337 H1360 0.950 . S
C1338 C1337 1.349 . S
C1338 C1350 1.349 . S
C1339 C1337 1.327 . S
C1339 C1355 1.429 . S
C1339 H1361 0.950 . S
C1340 H1336 0.949 . S
C1340 C1348 1.574 . S
C1340 C1356 1.368 . S
H1341 C1349 0.950 . S
H1342 C1347 0.950 . S
H1343 C1348 0.949 . S
H1344 C1350 0.950 . S
H1345 C1351 0.950 . S
H1346 C1352 0.949 . S
C1347 H1342 0.950 . S
C1347 C1349 1.327 . S
C1347 C1353 1.429 . S
C1348 C1340 1.574 . S
C1348 H1343 0.949 . S
C1348 C1354 1.368 . S
C1349 C1333 1.349 . S
C1349 H1341 0.950 . S
C1349 C1347 1.327 . S
C1350 C1338 1.349 . S
C1350 H1344 0.950 . S
C1350 C1351 1.327 . S
C1351 H1345 0.950 . S
C1351 C1350 1.327 . S
C1351 C1355 1.429 . S
C1352 C1335 1.574 . S
C1352 H1346 0.949 . S
C1352 C1356 1.368 . S
C1353 C1334 1.429 . S
C1353 C1347 1.429 . S
C1353 C1354 1.523 . S
C1354 C1335 1.368 . S
C1354 C1348 1.368 . S
C1354 C1353 1.523 . S
C1355 C1339 1.429 . S
C1355 C1351 1.429 . S
C1355 C1356 1.523 . S
C1356 C1340 1.368 . S
C1356 C1352 1.368 . S
C1356 C1355 1.523 . S
H1357 C1332 0.950 . S
H1358 C1334 0.950 . S
H1359 C1335 0.949 . S
H1360 C1337 0.950 . S
H1361 C1339 0.950 . S
C1362 C1363 1.349 . S
C1362 C1364 1.327 . S
C1362 H1387 0.950 . S
C1363 C1362 1.349 . S
C1363 C1379 1.349 . S
C1364 C1362 1.327 . S
C1364 C1383 1.429 . S
C1364 H1388 0.950 . S
C1365 C1382 1.574 . S
C1365 C1384 1.368 . S
C1365 H1389 0.949 . S
H1366 C1370 0.949 . S
C1367 C1368 1.349 . S
C1367 C1369 1.327 . S
C1367 H1390 0.950 . S
C1368 C1367 1.349 . S
C1368 C1380 1.349 . S
C1369 C1367 1.327 . S
C1369 C1385 1.429 . S
C1369 H1391 0.950 . S
C1370 H1366 0.949 . S
C1370 C1378 1.574 . S
C1370 C1386 1.368 . S
H1371 C1379 0.950 . S
H1372 C1377 0.950 . S
H1373 C1378 0.949 . S
H1374 C1380 0.950 . S
H1375 C1381 0.950 . S
H1376 C1382 0.949 . S
C1377 H1372 0.950 . S
C1377 C1379 1.327 . S
C1377 C1383 1.429 . S
C1378 C1370 1.574 . S
C1378 H1373 0.949 . S
C1378 C1384 1.368 . S
C1379 C1363 1.349 . S
C1379 H1371 0.950 . S
C1379 C1377 1.327 . S
C1380 C1368 1.349 . S
C1380 H1374 0.950 . S
C1380 C1381 1.327 . S
C1381 H1375 0.950 . S
C1381 C1380 1.327 . S
C1381 C1385 1.429 . S
C1382 C1365 1.574 . S
C1382 H1376 0.949 . S
C1382 C1386 1.368 . S
C1383 C1364 1.429 . S
C1383 C1377 1.429 . S
C1383 C1384 1.523 . S
C1384 C1365 1.368 . S
C1384 C1378 1.368 . S
C1384 C1383 1.523 . S
C1385 C1369 1.429 . S
C1385 C1381 1.429 . S
C1385 C1386 1.523 . S
C1386 C1370 1.368 . S
C1386 C1382 1.368 . S
C1386 C1385 1.523 . S
H1387 C1362 0.950 . S
H1388 C1364 0.950 . S
H1389 C1365 0.949 . S
H1390 C1367 0.950 . S
H1391 C1369 0.950 . S
C673 C58 1.581 . S
C678 C657 1.580 . S
C703 C562 1.581 . S
C708 C153 1.580 . S
C733 C489 1.581 . S
C738 C226 1.580 . S
C763 C394 1.581 . S
C768 C321 1.580 . S
C793 C231 2.585 . S
C798 C63 2.585 . S
C823 C147 0.511 . S
C828 C315 0.511 . S
C853 C326 2.585 . S
C858 C158 2.585 . S
C883 C242 0.511 . S
C888 C74 0.511 . S
C913 C399 2.596 . S
C918 C567 2.596 . S
C943 C483 0.491 . S
C948 C651 0.492 . S
C973 C662 2.596 . S
C978 C494 2.596 . S
C1003 C578 0.491 . S
C1008 C410 0.492 . S
C1033 C56 1.742 . S
C1038 C67 1.742 . S
C1063 C151 1.742 . S
C1068 C140 1.742 . S
C1093 C235 1.742 . S
C1098 C224 1.742 . S
C1123 C319 1.742 . S
C1128 C308 1.742 . S
C1153 C403 1.742 . S
C1158 C392 1.742 . S
C1183 C487 1.742 . S
C1188 C476 1.742 . S
C1213 C560 1.742 . S
C1218 C571 1.742 . S
C1243 C655 1.742 . S
C1248 C644 1.742 . S
C1273 C69 2.047 . S
C1278 C142 2.047 . S
C1303 C310 2.047 . S
C1308 C237 2.047 . S
C1333 C405 2.048 . S
C1338 C478 2.048 . S
C1363 C646 2.048 . S
C1368 C573 2.048 . S
