# Generated by pormake.
# Topology wio, (6)-cn, num edge types: 1
# Building blocks:
#     Node 0, Type 0, BuildingBlock: BETFEN_clean_sbu_0, # of connection points: 6
#     Node 1, Type 0, BuildingBlock: BETFEN_clean_sbu_0, # of connection points: 6
#     Node 2, Type 0, BuildingBlock: BETFEN_clean_sbu_0, # of connection points: 6
#     Node 3, Type 0, BuildingBlock: BETFEN_clean_sbu_0, # of connection points: 6
#     Node 4, Type 0, BuildingBlock: BETFEN_clean_sbu_0, # of connection points: 6
#     Node 5, Type 0, BuildingBlock: BETFEN_clean_sbu_0, # of connection points: 6
#     Node 6, Type 0, BuildingBlock: BETFEN_clean_sbu_0, # of connection points: 6
#     Node 7, Type 0, BuildingBlock: BETFEN_clean_sbu_0, # of connection points: 6
#     Node 8, Type 0, BuildingBlock: BETFEN_clean_sbu_0, # of connection points: 6
#     Node 9, Type 0, BuildingBlock: BETFEN_clean_sbu_0, # of connection points: 6
#     Node 10, Type 0, BuildingBlock: BETFEN_clean_sbu_0, # of connection points: 6
#     Node 11, Type 0, BuildingBlock: BETFEN_clean_sbu_0, # of connection points: 6
#     Node 12, Type 0, BuildingBlock: BETFEN_clean_sbu_0, # of connection points: 6
#     Node 13, Type 0, BuildingBlock: BETFEN_clean_sbu_0, # of connection points: 6
#     Node 14, Type 0, BuildingBlock: BETFEN_clean_sbu_0, # of connection points: 6
#     Node 15, Type 0, BuildingBlock: BETFEN_clean_sbu_0, # of connection points: 6
#     Node 16, Type 0, BuildingBlock: BETFEN_clean_sbu_0, # of connection points: 6
#     Node 17, Type 0, BuildingBlock: BETFEN_clean_sbu_0, # of connection points: 6
#     Node 18, Type 0, BuildingBlock: BETFEN_clean_sbu_0, # of connection points: 6
#     Node 19, Type 0, BuildingBlock: BETFEN_clean_sbu_0, # of connection points: 6
#     Node 20, Type 0, BuildingBlock: BETFEN_clean_sbu_0, # of connection points: 6
#     Node 21, Type 0, BuildingBlock: BETFEN_clean_sbu_0, # of connection points: 6
#     Node 22, Type 0, BuildingBlock: BETFEN_clean_sbu_0, # of connection points: 6
#     Node 23, Type 0, BuildingBlock: BETFEN_clean_sbu_0, # of connection points: 6
#     Node 24, Type 0, BuildingBlock: BETFEN_clean_sbu_0, # of connection points: 6
#     Node 25, Type 0, BuildingBlock: BETFEN_clean_sbu_0, # of connection points: 6
#     Node 26, Type 0, BuildingBlock: BETFEN_clean_sbu_0, # of connection points: 6
#     Node 27, Type 0, BuildingBlock: BETFEN_clean_sbu_0, # of connection points: 6
#     Node 28, Type 0, BuildingBlock: BETFEN_clean_sbu_0, # of connection points: 6
#     Node 29, Type 0, BuildingBlock: BETFEN_clean_sbu_0, # of connection points: 6
#     Node 30, Type 0, BuildingBlock: BETFEN_clean_sbu_0, # of connection points: 6
#     Node 31, Type 0, BuildingBlock: BETFEN_clean_sbu_0, # of connection points: 6
#     Edge 32, Type (0, 0), BuildingBlock: TEMPAE_clean_linker_10, # of connection points: 2
#     Edge 33, Type (0, 0), BuildingBlock: TEMPAE_clean_linker_10, # of connection points: 2
#     Edge 34, Type (0, 0), BuildingBlock: TEMPAE_clean_linker_10, # of connection points: 2
#     Edge 35, Type (0, 0), BuildingBlock: TEMPAE_clean_linker_10, # of connection points: 2
#     Edge 36, Type (0, 0), BuildingBlock: TEMPAE_clean_linker_10, # of connection points: 2
#     Edge 37, Type (0, 0), BuildingBlock: TEMPAE_clean_linker_10, # of connection points: 2
#     Edge 38, Type (0, 0), BuildingBlock: TEMPAE_clean_linker_10, # of connection points: 2
#     Edge 39, Type (0, 0), BuildingBlock: TEMPAE_clean_linker_10, # of connection points: 2
#     Edge 40, Type (0, 0), BuildingBlock: TEMPAE_clean_linker_10, # of connection points: 2
#     Edge 41, Type (0, 0), BuildingBlock: TEMPAE_clean_linker_10, # of connection points: 2
#     Edge 42, Type (0, 0), BuildingBlock: TEMPAE_clean_linker_10, # of connection points: 2
#     Edge 43, Type (0, 0), BuildingBlock: TEMPAE_clean_linker_10, # of connection points: 2
#     Edge 44, Type (0, 0), BuildingBlock: TEMPAE_clean_linker_10, # of connection points: 2
#     Edge 45, Type (0, 0), BuildingBlock: TEMPAE_clean_linker_10, # of connection points: 2
#     Edge 46, Type (0, 0), BuildingBlock: TEMPAE_clean_linker_10, # of connection points: 2
#     Edge 47, Type (0, 0), BuildingBlock: TEMPAE_clean_linker_10, # of connection points: 2
#     Edge 48, Type (0, 0), BuildingBlock: TEMPAE_clean_linker_10, # of connection points: 2
#     Edge 49, Type (0, 0), BuildingBlock: TEMPAE_clean_linker_10, # of connection points: 2
#     Edge 50, Type (0, 0), BuildingBlock: TEMPAE_clean_linker_10, # of connection points: 2
#     Edge 51, Type (0, 0), BuildingBlock: TEMPAE_clean_linker_10, # of connection points: 2
#     Edge 52, Type (0, 0), BuildingBlock: TEMPAE_clean_linker_10, # of connection points: 2
#     Edge 53, Type (0, 0), BuildingBlock: TEMPAE_clean_linker_10, # of connection points: 2
#     Edge 54, Type (0, 0), BuildingBlock: TEMPAE_clean_linker_10, # of connection points: 2
#     Edge 55, Type (0, 0), BuildingBlock: TEMPAE_clean_linker_10, # of connection points: 2
#     Edge 56, Type (0, 0), BuildingBlock: TEMPAE_clean_linker_10, # of connection points: 2
#     Edge 57, Type (0, 0), BuildingBlock: TEMPAE_clean_linker_10, # of connection points: 2
#     Edge 58, Type (0, 0), BuildingBlock: TEMPAE_clean_linker_10, # of connection points: 2
#     Edge 59, Type (0, 0), BuildingBlock: TEMPAE_clean_linker_10, # of connection points: 2
#     Edge 60, Type (0, 0), BuildingBlock: TEMPAE_clean_linker_10, # of connection points: 2
#     Edge 61, Type (0, 0), BuildingBlock: TEMPAE_clean_linker_10, # of connection points: 2
#     Edge 62, Type (0, 0), BuildingBlock: TEMPAE_clean_linker_10, # of connection points: 2
#     Edge 63, Type (0, 0), BuildingBlock: TEMPAE_clean_linker_10, # of connection points: 2
#     Edge 64, Type (0, 0), BuildingBlock: TEMPAE_clean_linker_10, # of connection points: 2
#     Edge 65, Type (0, 0), BuildingBlock: TEMPAE_clean_linker_10, # of connection points: 2
#     Edge 66, Type (0, 0), BuildingBlock: TEMPAE_clean_linker_10, # of connection points: 2
#     Edge 67, Type (0, 0), BuildingBlock: TEMPAE_clean_linker_10, # of connection points: 2
#     Edge 68, Type (0, 0), BuildingBlock: TEMPAE_clean_linker_10, # of connection points: 2
#     Edge 69, Type (0, 0), BuildingBlock: TEMPAE_clean_linker_10, # of connection points: 2
#     Edge 70, Type (0, 0), BuildingBlock: TEMPAE_clean_linker_10, # of connection points: 2
#     Edge 71, Type (0, 0), BuildingBlock: TEMPAE_clean_linker_10, # of connection points: 2
#     Edge 72, Type (0, 0), BuildingBlock: TEMPAE_clean_linker_10, # of connection points: 2
#     Edge 73, Type (0, 0), BuildingBlock: TEMPAE_clean_linker_10, # of connection points: 2
#     Edge 74, Type (0, 0), BuildingBlock: TEMPAE_clean_linker_10, # of connection points: 2
#     Edge 75, Type (0, 0), BuildingBlock: TEMPAE_clean_linker_10, # of connection points: 2
#     Edge 76, Type (0, 0), BuildingBlock: TEMPAE_clean_linker_10, # of connection points: 2
#     Edge 77, Type (0, 0), BuildingBlock: TEMPAE_clean_linker_10, # of connection points: 2
#     Edge 78, Type (0, 0), BuildingBlock: TEMPAE_clean_linker_10, # of connection points: 2
#     Edge 79, Type (0, 0), BuildingBlock: TEMPAE_clean_linker_10, # of connection points: 2
#     Edge 80, Type (0, 0), BuildingBlock: TEMPAE_clean_linker_10, # of connection points: 2
#     Edge 81, Type (0, 0), BuildingBlock: TEMPAE_clean_linker_10, # of connection points: 2
#     Edge 82, Type (0, 0), BuildingBlock: TEMPAE_clean_linker_10, # of connection points: 2
#     Edge 83, Type (0, 0), BuildingBlock: TEMPAE_clean_linker_10, # of connection points: 2
#     Edge 84, Type (0, 0), BuildingBlock: TEMPAE_clean_linker_10, # of connection points: 2
#     Edge 85, Type (0, 0), BuildingBlock: TEMPAE_clean_linker_10, # of connection points: 2
#     Edge 86, Type (0, 0), BuildingBlock: TEMPAE_clean_linker_10, # of connection points: 2
#     Edge 87, Type (0, 0), BuildingBlock: TEMPAE_clean_linker_10, # of connection points: 2
#     Edge 88, Type (0, 0), BuildingBlock: TEMPAE_clean_linker_10, # of connection points: 2
#     Edge 89, Type (0, 0), BuildingBlock: TEMPAE_clean_linker_10, # of connection points: 2
#     Edge 90, Type (0, 0), BuildingBlock: TEMPAE_clean_linker_10, # of connection points: 2
#     Edge 91, Type (0, 0), BuildingBlock: TEMPAE_clean_linker_10, # of connection points: 2
#     Edge 92, Type (0, 0), BuildingBlock: TEMPAE_clean_linker_10, # of connection points: 2
#     Edge 93, Type (0, 0), BuildingBlock: TEMPAE_clean_linker_10, # of connection points: 2
#     Edge 94, Type (0, 0), BuildingBlock: TEMPAE_clean_linker_10, # of connection points: 2
#     Edge 95, Type (0, 0), BuildingBlock: TEMPAE_clean_linker_10, # of connection points: 2
#     Edge 96, Type (0, 0), BuildingBlock: TEMPAE_clean_linker_10, # of connection points: 2
#     Edge 97, Type (0, 0), BuildingBlock: TEMPAE_clean_linker_10, # of connection points: 2
#     Edge 98, Type (0, 0), BuildingBlock: TEMPAE_clean_linker_10, # of connection points: 2
#     Edge 99, Type (0, 0), BuildingBlock: TEMPAE_clean_linker_10, # of connection points: 2
#     Edge 100, Type (0, 0), BuildingBlock: TEMPAE_clean_linker_10, # of connection points: 2
#     Edge 101, Type (0, 0), BuildingBlock: TEMPAE_clean_linker_10, # of connection points: 2
#     Edge 102, Type (0, 0), BuildingBlock: TEMPAE_clean_linker_10, # of connection points: 2
#     Edge 103, Type (0, 0), BuildingBlock: TEMPAE_clean_linker_10, # of connection points: 2
#     Edge 104, Type (0, 0), BuildingBlock: TEMPAE_clean_linker_10, # of connection points: 2
#     Edge 105, Type (0, 0), BuildingBlock: TEMPAE_clean_linker_10, # of connection points: 2
#     Edge 106, Type (0, 0), BuildingBlock: TEMPAE_clean_linker_10, # of connection points: 2
#     Edge 107, Type (0, 0), BuildingBlock: TEMPAE_clean_linker_10, # of connection points: 2
#     Edge 108, Type (0, 0), BuildingBlock: TEMPAE_clean_linker_10, # of connection points: 2
#     Edge 109, Type (0, 0), BuildingBlock: TEMPAE_clean_linker_10, # of connection points: 2
#     Edge 110, Type (0, 0), BuildingBlock: TEMPAE_clean_linker_10, # of connection points: 2
#     Edge 111, Type (0, 0), BuildingBlock: TEMPAE_clean_linker_10, # of connection points: 2
#     Edge 112, Type (0, 0), BuildingBlock: TEMPAE_clean_linker_10, # of connection points: 2
#     Edge 113, Type (0, 0), BuildingBlock: TEMPAE_clean_linker_10, # of connection points: 2
#     Edge 114, Type (0, 0), BuildingBlock: TEMPAE_clean_linker_10, # of connection points: 2
#     Edge 115, Type (0, 0), BuildingBlock: TEMPAE_clean_linker_10, # of connection points: 2
#     Edge 116, Type (0, 0), BuildingBlock: TEMPAE_clean_linker_10, # of connection points: 2
#     Edge 117, Type (0, 0), BuildingBlock: TEMPAE_clean_linker_10, # of connection points: 2
#     Edge 118, Type (0, 0), BuildingBlock: TEMPAE_clean_linker_10, # of connection points: 2
#     Edge 119, Type (0, 0), BuildingBlock: TEMPAE_clean_linker_10, # of connection points: 2
#     Edge 120, Type (0, 0), BuildingBlock: TEMPAE_clean_linker_10, # of connection points: 2
#     Edge 121, Type (0, 0), BuildingBlock: TEMPAE_clean_linker_10, # of connection points: 2
#     Edge 122, Type (0, 0), BuildingBlock: TEMPAE_clean_linker_10, # of connection points: 2
#     Edge 123, Type (0, 0), BuildingBlock: TEMPAE_clean_linker_10, # of connection points: 2
#     Edge 124, Type (0, 0), BuildingBlock: TEMPAE_clean_linker_10, # of connection points: 2
#     Edge 125, Type (0, 0), BuildingBlock: TEMPAE_clean_linker_10, # of connection points: 2
#     Edge 126, Type (0, 0), BuildingBlock: TEMPAE_clean_linker_10, # of connection points: 2
#     Edge 127, Type (0, 0), BuildingBlock: TEMPAE_clean_linker_10, # of connection points: 2
# Relax obj value: 0.201
# Max RMSD: 0.236
# Mean RMSD: 0.236
data_MOF--net-wio--node1-BETFEN_clean_sbu_0--edge1-TEMPAE_clean_linker_10
_symmetry_space_group_name_H-M    P1
_symmetry_Int_Tables_number       1
_symmetry_cell_setting            triclinic
loop_
_symmetry_equiv_pos_as_xyz
'x, y, z'
_cell_length_a     63.251331
_cell_length_b     63.227603
_cell_length_c     56.20429
_cell_angle_alpha  89.99183
_cell_angle_beta   90.031899
_cell_angle_gamma 89.988579
loop_
_atom_site_label
_atom_site_type_symbol
_atom_site_fract_x
_atom_site_fract_y
_atom_site_fract_z
_atom_type_partial_charge
Pr0 Pr 0.15157 0.11574 0.27819 0.0
Pr1 Pr 0.10436 0.12275 0.28711 0.0
C2 C 0.19072 0.10619 0.26214 0.0
C3 C 0.20627 0.1111 0.2432 0.0
C4 C 0.22674 0.11745 0.24966 0.0
C5 C 0.24227 0.12078 0.23235 0.0
C6 C 0.23779 0.11766 0.20806 0.0
C7 C 0.21708 0.11176 0.20156 0.0
C8 C 0.20149 0.10854 0.21893 0.0
C9 C 0.14245 0.15268 0.30327 0.0
C10 C 0.12135 0.1332 0.2329 0.0
C11 C 0.0671 0.13587 0.30582 0.0
C12 C 0.05211 0.13379 0.32603 0.0
C13 C 0.03038 0.13242 0.32127 0.0
C14 C 0.01561 0.1321 0.33983 0.0
C15 C 0.02216 0.13321 0.36376 0.0
C16 C 0.04403 0.13417 0.36854 0.0
C17 C 0.05884 0.1345 0.34989 0.0
C18 C 0.11371 0.0826 0.26844 0.0
C19 C 0.13334 0.0967 0.32839 0.0
O20 O 0.17378 0.09546 0.25635 0.0
O21 O 0.18711 0.1208 0.2781 0.0
O22 O 0.13206 0.1463 0.28528 0.0
O23 O 0.15843 0.14045 0.30772 0.0
O24 O 0.1054 0.13613 0.24782 0.0
O25 O 0.13941 0.125 0.24018 0.0
O26 O 0.08518 0.14531 0.30972 0.0
O27 O 0.06855 0.12023 0.29069 0.0
O28 O 0.12425 0.09253 0.28377 0.0
O29 O 0.09694 0.09336 0.26251 0.0
O30 O 0.14845 0.09498 0.31228 0.0
O31 O 0.11614 0.10814 0.32401 0.0
H32 H 0.23083 0.11957 0.26824 0.0
H33 H 0.25786 0.12571 0.23806 0.0
H34 H 0.21304 0.10903 0.18309 0.0
H35 H 0.18583 0.10367 0.21335 0.0
H36 H 0.02476 0.13189 0.30306 0.0
H37 H 0.99899 0.1309 0.33538 0.0
H38 H 0.04971 0.13516 0.38668 0.0
H39 H 0.07551 0.13562 0.35414 0.0
Pr40 Pr 0.13982 0.89946 0.52825 0.0
Pr41 Pr 0.13308 0.85216 0.53687 0.0
C42 C 0.14928 0.93871 0.51248 0.0
C43 C 0.14445 0.95433 0.4936 0.0
C44 C 0.13903 0.97504 0.50015 0.0
C45 C 0.1358 0.99061 0.48285 0.0
C46 C 0.13807 0.98591 0.45851 0.0
C47 C 0.14297 0.96496 0.45193 0.0
C48 C 0.14611 0.94932 0.46929 0.0
C49 C 0.10295 0.89009 0.55324 0.0
C50 C 0.12266 0.86932 0.48271 0.0
C51 C 0.12036 0.81483 0.55586 0.0
C52 C 0.12257 0.80047 0.57675 0.0
C53 C 0.14095 0.78836 0.58046 0.0
C54 C 0.14199 0.77358 0.59906 0.0
C55 C 0.12467 0.77044 0.61444 0.0
C56 C 0.10645 0.78287 0.61095 0.0
C57 C 0.10541 0.79761 0.59233 0.0
C58 C 0.17314 0.86186 0.51836 0.0
C59 C 0.15869 0.88122 0.57848 0.0
O60 O 0.16012 0.92184 0.50668 0.0
O61 O 0.13455 0.93497 0.52824 0.0
O62 O 0.10937 0.87977 0.53523 0.0
O63 O 0.11508 0.90613 0.55772 0.0
O64 O 0.11995 0.8532 0.49747 0.0
O65 O 0.13057 0.88745 0.49017 0.0
O66 O 0.11017 0.83263 0.55891 0.0
O67 O 0.13621 0.81657 0.54102 0.0
O68 O 0.16315 0.87224 0.53377 0.0
O69 O 0.16249 0.84508 0.51223 0.0
O70 O 0.16034 0.89647 0.56251 0.0
O71 O 0.14756 0.86388 0.57386 0.0
H72 H 0.1376 0.97928 0.51876 0.0
H73 H 0.13164 0.00642 0.48861 0.0
H74 H 0.145 0.96074 0.4334 0.0
H75 H 0.15021 0.93345 0.46369 0.0
H76 H 0.15448 0.79007 0.56881 0.0
H77 H 0.1564 0.76457 0.60137 0.0
H78 H 0.09271 0.78078 0.62219 0.0
H79 H 0.09092 0.80649 0.5898 0.0
Pr80 Pr 0.35449 0.89069 0.77845 0.0
Pr81 Pr 0.40153 0.88263 0.78772 0.0
C82 C 0.31583 0.90225 0.76254 0.0
C83 C 0.30028 0.8985 0.74347 0.0
C84 C 0.30156 0.88082 0.72843 0.0
C85 C 0.28601 0.87733 0.71103 0.0
C86 C 0.26892 0.89147 0.70842 0.0
C87 C 0.26806 0.90935 0.72332 0.0
C88 C 0.28354 0.91278 0.74065 0.0
C89 C 0.36261 0.85318 0.8029 0.0
C90 C 0.38446 0.87266 0.73332 0.0
C91 C 0.43858 0.86893 0.80648 0.0
C92 C 0.45354 0.87108 0.82672 0.0
C93 C 0.47528 0.87242 0.82202 0.0
C94 C 0.49 0.87292 0.84063 0.0
C95 C 0.4834 0.87201 0.86455 0.0
C96 C 0.46151 0.87105 0.86925 0.0
C97 C 0.44675 0.87056 0.85055 0.0
C98 C 0.39293 0.92315 0.7696 0.0
C99 C 0.37275 0.90832 0.82934 0.0
O100 O 0.3332 0.91224 0.75678 0.0
O101 O 0.31893 0.88693 0.77777 0.0
O102 O 0.37337 0.85967 0.78525 0.0
O103 O 0.34669 0.86553 0.80719 0.0
O104 O 0.4003 0.8694 0.74834 0.0
O105 O 0.36654 0.88122 0.74047 0.0
O106 O 0.42034 0.85986 0.81049 0.0
O107 O 0.4374 0.88442 0.79111 0.0
O108 O 0.38222 0.91323 0.78477 0.0
O109 O 0.40954 0.9122 0.76359 0.0
O110 O 0.35782 0.91064 0.81309 0.0
O111 O 0.38978 0.89669 0.82489 0.0
H112 H 0.31443 0.86963 0.7303 0.0
H113 H 0.28715 0.86337 0.69995 0.0
H114 H 0.25544 0.92082 0.72153 0.0
H115 H 0.28236 0.92659 0.75199 0.0
H116 H 0.48094 0.87282 0.80383 0.0
H117 H 0.50662 0.87411 0.83623 0.0
H118 H 0.45579 0.87021 0.88738 0.0
H119 H 0.43007 0.86948 0.85475 0.0
Pr120 Pr 0.36559 0.10573 0.02616 0.0
Pr121 Pr 0.37095 0.15671 0.03577 0.0
C122 C 0.35177 0.06822 1.00966 0.0
C123 C 0.35781 0.05131 0.99263 0.0
C124 C 0.36069 0.03051 1.00076 0.0
C125 C 0.36495 0.01407 0.98474 0.0
C126 C 0.36624 0.018 0.96011 0.0
C127 C 0.36374 0.03896 0.95207 0.0
C128 C 0.35965 0.0554 0.96811 0.0
C129 C 0.40573 0.11498 0.04568 0.0
C130 C 0.38233 0.13806 0.98179 0.0
C131 C 0.38128 0.19487 0.05415 0.0
C132 C 0.38273 0.2069 0.07684 0.0
C133 C 0.36511 0.20949 0.09181 0.0
C134 C 0.36613 0.22289 0.11167 0.0
C135 C 0.38482 0.23403 0.11714 0.0
C136 C 0.40267 0.23073 0.10261 0.0
C137 C 0.40161 0.21738 0.08271 0.0
C138 C 0.33238 0.14366 1.01618 0.0
C139 C 0.34795 0.1254 0.07746 0.0
O140 O 0.34598 0.08648 1.00066 0.0
O141 O 0.36282 0.06999 0.02933 0.0
O142 O 0.39133 0.12759 0.0396 0.0
O143 O 0.39975 0.0959 0.04023 0.0
O144 O 0.38437 0.15443 0.99648 0.0
O145 O 0.37487 0.11953 0.98886 0.0
O146 O 0.3953 0.18004 0.05009 0.0
O147 O 0.3624 0.19013 0.0462 0.0
O148 O 0.34317 0.13398 0.03157 0.0
O149 O 0.34152 0.16148 1.01057 0.0
O150 O 0.34759 0.10934 0.06227 0.0
O151 O 0.35753 0.14362 0.07247 0.0
H152 H 0.35936 0.02689 0.01955 0.0
H153 H 0.36711 0.99825 0.99169 0.0
H154 H 0.36431 0.04265 0.93327 0.0
H155 H 0.35751 0.07124 0.96117 0.0
H156 H 0.3503 0.20164 0.08785 0.0
H157 H 0.35197 0.22513 0.12219 0.0
H158 H 0.41745 0.23868 0.10642 0.0
H159 H 0.41545 0.21565 0.07153 0.0
Pr160 Pr 0.1508 0.88936 0.2569 0.0
Pr161 Pr 0.10356 0.88267 0.24825 0.0
C162 C 0.19001 0.89888 0.27272 0.0
C163 C 0.20564 0.89386 0.29153 0.0
C164 C 0.22626 0.88823 0.28491 0.0
C165 C 0.24184 0.88478 0.30216 0.0
C166 C 0.23721 0.88703 0.32652 0.0
C167 C 0.21635 0.89216 0.33316 0.0
C168 C 0.20071 0.89552 0.31586 0.0
C169 C 0.14154 0.85253 0.23174 0.0
C170 C 0.12058 0.87229 0.30247 0.0
C171 C 0.06609 0.86993 0.22971 0.0
C172 C 0.05246 0.87065 0.20819 0.0
C173 C 0.04832 0.88961 0.19596 0.0
C174 C 0.0341 0.88994 0.17675 0.0
C175 C 0.0237 0.87134 0.16932 0.0
C176 C 0.02842 0.85232 0.18123 0.0
C177 C 0.04259 0.85201 0.2004 0.0
C178 C 0.11333 0.92265 0.26701 0.0
C179 C 0.13252 0.90802 0.20663 0.0
O180 O 0.17309 0.90956 0.27871 0.0
O181 O 0.18633 0.88434 0.25671 0.0
O182 O 0.13116 0.85891 0.24972 0.0
O183 O 0.1576 0.86467 0.2274 0.0
O184 O 0.10438 0.86989 0.28777 0.0
O185 O 0.13883 0.87989 0.29496 0.0
O186 O 0.08333 0.85857 0.22864 0.0
O187 O 0.0684 0.88725 0.24217 0.0
O188 O 0.12363 0.91276 0.25144 0.0
O189 O 0.09668 0.91188 0.27331 0.0
O190 O 0.14761 0.91001 0.22274 0.0
O191 O 0.1154 0.89653 0.2111 0.0
H192 H 0.23045 0.8868 0.26629 0.0
H193 H 0.25757 0.88044 0.29634 0.0
H194 H 0.2122 0.89421 0.35171 0.0
H195 H 0.18491 0.89978 0.32153 0.0
H196 H 0.05574 0.90423 0.2015 0.0
H197 H 0.03078 0.90492 0.16819 0.0
H198 H 0.02106 0.83762 0.17583 0.0
H199 H 0.04559 0.83717 0.20945 0.0
Pr200 Pr 0.36611 0.90012 0.50738 0.0
Pr201 Pr 0.37292 0.85293 0.49876 0.0
C202 C 0.35656 0.93941 0.52291 0.0
C203 C 0.3616 0.95514 0.54158 0.0
C204 C 0.36703 0.97579 0.53478 0.0
C205 C 0.3705 0.99145 0.55191 0.0
C206 C 0.36846 0.9869 0.57631 0.0
C207 C 0.36353 0.96602 0.58312 0.0
C208 C 0.36016 0.9503 0.56594 0.0
C209 C 0.40295 0.8909 0.48223 0.0
C210 C 0.38301 0.86995 0.55308 0.0
C211 C 0.38574 0.81546 0.48029 0.0
C212 C 0.3851 0.80196 0.45869 0.0
C213 C 0.36634 0.79856 0.44582 0.0
C214 C 0.366 0.78447 0.4265 0.0
C215 C 0.3844 0.77344 0.41961 0.0
C216 C 0.40326 0.77742 0.43218 0.0
C217 C 0.40357 0.79148 0.45145 0.0
C218 C 0.33294 0.86257 0.51753 0.0
C219 C 0.34738 0.8818 0.4572 0.0
O220 O 0.34595 0.9225 0.52909 0.0
O221 O 0.37105 0.93567 0.50688 0.0
O222 O 0.39661 0.88056 0.50026 0.0
O223 O 0.39073 0.90689 0.47778 0.0
O224 O 0.38547 0.85374 0.5384 0.0
O225 O 0.37547 0.88821 0.5455 0.0
O226 O 0.39716 0.83267 0.47941 0.0
O227 O 0.36832 0.8178 0.49255 0.0
O228 O 0.34279 0.87291 0.50196 0.0
O229 O 0.34377 0.84594 0.52382 0.0
O230 O 0.34527 0.89677 0.47342 0.0
O231 O 0.3591 0.86481 0.46153 0.0
H232 H 0.36829 0.9799 0.51612 0.0
H233 H 0.37467 0.0072 0.54597 0.0
H234 H 0.36165 0.96193 0.60171 0.0
H235 H 0.35605 0.93448 0.57174 0.0
H236 H 0.35186 0.80649 0.45093 0.0
H237 H 0.35114 0.78173 0.41744 0.0
H238 H 0.41782 0.76957 0.4272 0.0
H239 H 0.41826 0.79391 0.461 0.0
Pr240 Pr 0.35526 0.11597 0.75681 0.0
Pr241 Pr 0.40241 0.12327 0.74796 0.0
C242 C 0.31627 0.10601 0.77292 0.0
C243 C 0.3007 0.11093 0.7918 0.0
C244 C 0.27996 0.11628 0.78528 0.0
C245 C 0.26445 0.1196 0.80261 0.0
C246 C 0.26924 0.11749 0.82696 0.0
C247 C 0.29021 0.11265 0.83349 0.0
C248 C 0.30578 0.10942 0.81611 0.0
C249 C 0.36412 0.15308 0.73197 0.0
C250 C 0.38521 0.13406 0.80197 0.0
C251 C 0.43963 0.13634 0.72914 0.0
C252 C 0.45444 0.134 0.70879 0.0
C253 C 0.4762 0.13238 0.71333 0.0
C254 C 0.49079 0.13175 0.69461 0.0
C255 C 0.48405 0.13282 0.67075 0.0
C256 C 0.46215 0.13404 0.6662 0.0
C257 C 0.44751 0.13465 0.685 0.0
C258 C 0.39324 0.08309 0.76669 0.0
C259 C 0.37356 0.09728 0.70658 0.0
O260 O 0.33336 0.0956 0.7789 0.0
O261 O 0.31965 0.12048 0.75675 0.0
O262 O 0.37458 0.14666 0.74989 0.0
O263 O 0.3482 0.1408 0.72747 0.0
O264 O 0.40116 0.13702 0.78707 0.0
O265 O 0.36728 0.12555 0.79475 0.0
O266 O 0.42155 0.14579 0.72527 0.0
O267 O 0.43823 0.1208 0.74442 0.0
O268 O 0.38272 0.09292 0.75126 0.0
O269 O 0.40991 0.09396 0.77269 0.0
O270 O 0.35851 0.09533 0.72271 0.0
O271 O 0.39066 0.10884 0.71098 0.0
H272 H 0.27565 0.11759 0.76668 0.0
H273 H 0.24863 0.12372 0.79687 0.0
H274 H 0.29449 0.11072 0.85202 0.0
H275 H 0.32167 0.10538 0.8217 0.0
H276 H 0.48197 0.13187 0.73148 0.0
H277 H 0.50743 0.13036 0.6989 0.0
H278 H 0.45632 0.13501 0.64812 0.0
H279 H 0.43083 0.13595 0.68092 0.0
Pr280 Pr 0.13923 0.10498 1.00718 0.0
Pr281 Pr 0.13326 0.15257 0.99867 0.0
C282 C 0.14848 0.06538 0.02202 0.0
C283 C 0.14581 0.05019 0.04171 0.0
C284 C 0.1605 0.03376 0.0442 0.0
C285 C 0.15785 0.01834 0.06176 0.0
C286 C 0.14037 0.01895 0.07724 0.0
C287 C 0.1259 0.0358 0.07506 0.0
C288 C 0.12859 0.05129 0.05743 0.0
C289 C 0.10302 0.11514 0.98131 0.0
C290 C 0.12268 0.1354 0.05276 0.0
C291 C 0.12127 0.19021 0.97985 0.0
C292 C 0.12369 0.2045 0.95892 0.0
C293 C 0.14176 0.21723 0.956 0.0
C294 C 0.14297 0.23196 0.93737 0.0
C295 C 0.12613 0.23446 0.92118 0.0
C296 C 0.10823 0.22144 0.92388 0.0
C297 C 0.10701 0.20673 0.94253 0.0
C298 C 0.17296 0.14197 1.01763 0.0
C299 C 0.15865 0.1233 0.95714 0.0
O300 O 0.161 0.08154 0.0256 0.0
O301 O 0.13171 0.0701 1.00948 0.0
O302 O 0.10924 0.12521 0.9996 0.0
O303 O 0.11507 0.09901 0.97687 0.0
O304 O 0.11995 0.15148 0.03795 0.0
O305 O 0.13057 0.11722 0.04537 0.0
O306 O 0.11062 0.17266 0.97691 0.0
O307 O 0.13718 0.18808 0.99456 0.0
O308 O 0.16285 0.13192 1.00205 0.0
O309 O 0.16267 0.159 0.02365 0.0
O310 O 0.15973 0.10783 0.97289 0.0
O311 O 0.14782 0.14083 0.96178 0.0
H312 H 0.17395 0.03271 0.03233 0.0
H313 H 0.16957 0.00591 0.06322 0.0
H314 H 0.11222 0.03675 0.0866 0.0
H315 H 0.11709 0.06391 0.05584 0.0
H316 H 0.15489 0.21606 0.9683 0.0
H317 H 0.15714 0.24146 0.9357 0.0
H318 H 0.09485 0.22303 0.912 0.0
H319 H 0.09275 0.1974 0.94442 0.0
Pr320 Pr 0.90254 0.88438 0.74816 0.0
Pr321 Pr 0.85518 0.89069 0.7567 0.0
C322 C 0.9402 0.87185 0.72994 0.0
C323 C 0.95355 0.87173 0.70821 0.0
C324 C 0.95758 0.89022 0.69506 0.0
C325 C 0.97165 0.88985 0.67573 0.0
C326 C 0.98202 0.87101 0.66909 0.0
C327 C 0.97741 0.85243 0.6819 0.0
C328 C 0.96337 0.85282 0.70119 0.0
C329 C 0.8925 0.92433 0.76669 0.0
C330 C 0.87334 0.90915 0.70635 0.0
C331 C 0.81582 0.89984 0.77231 0.0
C332 C 0.80019 0.89469 0.79106 0.0
C333 C 0.77965 0.88879 0.78436 0.0
C334 C 0.76406 0.88521 0.80153 0.0
C335 C 0.76857 0.8876 0.82592 0.0
C336 C 0.78935 0.89302 0.83264 0.0
C337 C 0.805 0.8965 0.81541 0.0
C338 C 0.86487 0.85392 0.73169 0.0
C339 C 0.88559 0.87436 0.8025 0.0
O340 O 0.92336 0.85988 0.73002 0.0
O341 O 0.93743 0.88976 0.74114 0.0
O342 O 0.88214 0.91432 0.75123 0.0
O343 O 0.90921 0.91367 0.77306 0.0
O344 O 0.85832 0.91127 0.7225 0.0
O345 O 0.89046 0.89766 0.71084 0.0
O346 O 0.8326 0.91071 0.77836 0.0
O347 O 0.8197 0.88531 0.75635 0.0
O348 O 0.87514 0.86042 0.74973 0.0
O349 O 0.84869 0.86588 0.72726 0.0
O350 O 0.90189 0.87218 0.7879 0.0
O351 O 0.8672 0.8815 0.79483 0.0
H352 H 0.95021 0.90505 0.69999 0.0
H353 H 0.9749 0.90452 0.66648 0.0
H354 H 0.98476 0.83756 0.67713 0.0
H355 H 0.96048 0.83832 0.71096 0.0
H356 H 0.77555 0.88723 0.76572 0.0
H357 H 0.7484 0.88066 0.79565 0.0
H358 H 0.79341 0.89519 0.8512 0.0
H359 H 0.82073 0.90098 0.82115 0.0
Pr360 Pr 0.87265 0.15282 0.49807 0.0
Pr361 Pr 0.86563 0.10549 0.50678 0.0
C362 C 0.88573 0.1902 0.47959 0.0
C363 C 0.88487 0.20403 0.45827 0.0
C364 C 0.86599 0.20761 0.44569 0.0
C365 C 0.86546 0.222 0.42664 0.0
C366 C 0.8838 0.23313 0.41974 0.0
C367 C 0.90276 0.22897 0.43202 0.0
C368 C 0.90326 0.21462 0.45102 0.0
C369 C 0.83266 0.14337 0.51684 0.0
C370 C 0.84694 0.12398 0.45651 0.0
C371 C 0.85538 0.06619 0.52179 0.0
C372 C 0.85847 0.05082 0.54121 0.0
C373 C 0.87582 0.05202 0.55675 0.0
C374 C 0.87884 0.03647 0.57426 0.0
C375 C 0.86455 0.01947 0.57648 0.0
C376 C 0.84697 0.01873 0.56113 0.0
C377 C 0.84401 0.03421 0.5437 0.0
C378 C 0.90217 0.11468 0.48113 0.0
C379 C 0.88261 0.13566 0.55241 0.0
O380 O 0.89673 0.17274 0.47806 0.0
O381 O 0.8686 0.1881 0.49239 0.0
O382 O 0.84252 0.13287 0.5014 0.0
O383 O 0.84346 0.16006 0.52296 0.0
O384 O 0.84516 0.10879 0.47253 0.0
O385 O 0.85838 0.14114 0.46099 0.0
O386 O 0.84383 0.08286 0.52633 0.0
O387 O 0.87167 0.07026 0.50823 0.0
O388 O 0.89612 0.12497 0.49934 0.0
O389 O 0.88981 0.09879 0.47674 0.0
O390 O 0.88537 0.15177 0.53764 0.0
O391 O 0.87475 0.11749 0.54494 0.0
H392 H 0.85156 0.1996 0.45084 0.0
H393 H 0.85052 0.22486 0.41779 0.0
H394 H 0.91727 0.2369 0.42702 0.0
H395 H 0.91804 0.21205 0.46035 0.0
H396 H 0.88716 0.06479 0.55514 0.0
H397 H 0.89258 0.03752 0.58568 0.0
H398 H 0.8354 0.00617 0.56262 0.0
H399 H 0.83046 0.03308 0.53195 0.0
Pr400 Pr 0.60226 0.12163 0.24813 0.0
Pr401 Pr 0.64974 0.11549 0.25679 0.0
C402 C 0.56472 0.13382 0.22927 0.0
C403 C 0.55047 0.13167 0.20828 0.0
C404 C 0.5379 0.11356 0.20491 0.0
C405 C 0.52316 0.11261 0.18627 0.0
C406 C 0.52053 0.12975 0.17052 0.0
C407 C 0.53342 0.14769 0.17365 0.0
C408 C 0.54813 0.14865 0.19231 0.0
C409 C 0.61242 0.08178 0.26693 0.0
C410 C 0.63158 0.0963 0.2067 0.0
C411 C 0.68917 0.10664 0.27245 0.0
C412 C 0.70473 0.11162 0.29133 0.0
C413 C 0.72522 0.11777 0.28478 0.0
C414 C 0.74078 0.12121 0.30204 0.0
C415 C 0.73627 0.11843 0.32637 0.0
C416 C 0.71553 0.11277 0.33296 0.0
C417 C 0.69991 0.10942 0.31563 0.0
C418 C 0.63982 0.15187 0.23118 0.0
C419 C 0.61934 0.13238 0.30222 0.0
O420 O 0.58227 0.14446 0.22653 0.0
O421 O 0.56679 0.11774 0.24375 0.0
O422 O 0.6228 0.0918 0.25152 0.0
O423 O 0.59552 0.09229 0.27293 0.0
O424 O 0.64681 0.09474 0.2227 0.0
O425 O 0.61419 0.10736 0.21122 0.0
O426 O 0.67252 0.09544 0.27819 0.0
O427 O 0.68513 0.1214 0.25681 0.0
O428 O 0.62963 0.1456 0.24937 0.0
O429 O 0.65607 0.13995 0.22697 0.0
O430 O 0.60318 0.13483 0.28746 0.0
O431 O 0.6376 0.12475 0.2948 0.0
H432 H 0.53917 0.1002 0.21689 0.0
H433 H 0.51377 0.0984 0.18424 0.0
H434 H 0.53173 0.16129 0.16209 0.0
H435 H 0.55736 0.16295 0.19456 0.0
H436 H 0.72932 0.11963 0.26617 0.0
H437 H 0.7564 0.12595 0.29627 0.0
H438 H 0.71148 0.11031 0.35147 0.0
H439 H 0.68421 0.10475 0.32125 0.0
Pr440 Pr 0.6326 0.8535 0.99825 0.0
Pr441 Pr 0.64022 0.90069 1.00687 0.0
C442 C 0.61904 0.8163 0.97983 0.0
C443 C 0.62124 0.80136 0.95959 0.0
C444 C 0.62323 0.77966 0.9643 0.0
C445 C 0.6238 0.76494 0.9457 0.0
C446 C 0.6223 0.77151 0.9218 0.0
C447 C 0.62068 0.79336 0.91709 0.0
C448 C 0.62013 0.80812 0.93576 0.0
C449 C 0.67294 0.86249 1.01643 0.0
C450 C 0.65843 0.88201 0.95643 0.0
C451 C 0.65117 0.93975 0.02199 0.0
C452 C 0.64788 0.95511 0.04134 0.0
C453 C 0.63041 0.95382 0.05668 0.0
C454 C 0.62726 0.96927 0.07424 0.0
C455 C 0.64153 0.98625 0.07673 0.0
C456 C 0.65922 0.98709 0.06157 0.0
C457 C 0.66232 0.97171 0.04407 0.0
C458 C 0.60313 0.89189 0.98193 0.0
C459 C 0.62262 0.87094 0.05243 0.0
O460 O 0.60979 0.83447 0.97582 0.0
O461 O 0.6346 0.81763 0.99508 0.0
O462 O 0.66298 0.87311 1.00119 0.0
O463 O 0.66215 0.84579 0.0225 0.0
O464 O 0.66025 0.89729 0.97233 0.0
O465 O 0.64712 0.86481 0.96113 0.0
O466 O 0.66215 0.92278 0.02696 0.0
O467 O 0.63515 0.93607 1.00787 0.0
O468 O 0.60941 0.88155 1.00001 0.0
O469 O 0.61553 0.90772 0.97737 0.0
O470 O 0.61942 0.85498 0.03758 0.0
O471 O 0.63106 0.88887 0.04506 0.0
H472 H 0.62408 0.77403 0.98248 0.0
H473 H 0.6255 0.74835 0.95009 0.0
H474 H 0.61938 0.79904 0.89897 0.0
H475 H 0.61854 0.82476 0.93155 0.0
H476 H 0.61911 0.94105 0.05488 0.0
H477 H 0.61343 0.96816 0.08552 0.0
H478 H 0.67079 0.99963 0.06328 0.0
H479 H 0.67596 0.97289 0.03249 0.0
Pr480 Pr 0.90179 0.12418 0.78712 0.0
Pr481 Pr 0.85442 0.11737 0.77854 0.0
C482 C 0.9393 0.13708 0.80545 0.0
C483 C 0.95299 0.13663 0.82692 0.0
C484 C 0.95695 0.11788 0.8396 0.0
C485 C 0.97129 0.11774 0.85871 0.0
C486 C 0.982 0.13633 0.86558 0.0
C487 C 0.97746 0.15517 0.85321 0.0
C488 C 0.96317 0.15529 0.83415 0.0
C489 C 0.89216 0.08428 0.76815 0.0
C490 C 0.87295 0.09855 0.82869 0.0
C491 C 0.81495 0.10758 0.76373 0.0
C492 C 0.79977 0.11017 0.74401 0.0
C493 C 0.78322 0.0956 0.74172 0.0
C494 C 0.76783 0.09818 0.7241 0.0
C495 C 0.7686 0.11548 0.70836 0.0
C496 C 0.78555 0.12985 0.71036 0.0
C497 C 0.801 0.12722 0.72805 0.0
C498 C 0.86386 0.15359 0.80471 0.0
C499 C 0.88459 0.13404 0.73278 0.0
O500 O 0.92209 0.1485 0.80632 0.0
O501 O 0.93692 0.11958 0.79332 0.0
O502 O 0.88173 0.09411 0.78368 0.0
O503 O 0.90882 0.09509 0.762 0.0
O504 O 0.85772 0.09682 0.81271 0.0
O505 O 0.89011 0.10999 0.82421 0.0
O506 O 0.83128 0.09531 0.76009 0.0
O507 O 0.81943 0.12437 0.77634 0.0
O508 O 0.87401 0.14774 0.78631 0.0
O509 O 0.84801 0.14117 0.80906 0.0
O510 O 0.90071 0.13683 0.74752 0.0
O511 O 0.86643 0.12623 0.74031 0.0
H512 H 0.9493 0.10324 0.83449 0.0
H513 H 0.97446 0.10288 0.86761 0.0
H514 H 0.98507 0.16987 0.85816 0.0
H515 H 0.96032 0.16998 0.82473 0.0
H516 H 0.78206 0.08228 0.75379 0.0
H517 H 0.75532 0.08654 0.7228 0.0
H518 H 0.78661 0.14339 0.69862 0.0
H519 H 0.81371 0.13864 0.72948 0.0
Pr520 Pr 0.63233 0.15105 0.53629 0.0
Pr521 Pr 0.64021 0.10389 0.52773 0.0
C522 C 0.6184 0.18822 0.55444 0.0
C523 C 0.62108 0.20375 0.57393 0.0
C524 C 0.61544 0.2249 0.56989 0.0
C525 C 0.6167 0.23985 0.5882 0.0
C526 C 0.62369 0.23405 0.6111 0.0
C527 C 0.62949 0.21279 0.61505 0.0
C528 C 0.62821 0.19779 0.59665 0.0
C529 C 0.67281 0.14235 0.51832 0.0
C530 C 0.65824 0.12272 0.57824 0.0
C531 C 0.65127 0.06486 0.51251 0.0
C532 C 0.64799 0.04936 0.49325 0.0
C533 C 0.63066 0.05067 0.47768 0.0
C534 C 0.6275 0.03507 0.46027 0.0
C535 C 0.64159 0.01788 0.45817 0.0
C536 C 0.65914 0.01701 0.47357 0.0
C537 C 0.66226 0.03255 0.49091 0.0
C538 C 0.60301 0.11254 0.55251 0.0
C539 C 0.6222 0.13349 0.48225 0.0
O540 O 0.61026 0.16983 0.55988 0.0
O541 O 0.63322 0.18701 0.53829 0.0
O542 O 0.66288 0.13161 0.53347 0.0
O543 O 0.6619 0.15897 0.51225 0.0
O544 O 0.66003 0.10729 0.56251 0.0
O545 O 0.6471 0.13999 0.57332 0.0
O546 O 0.66211 0.08189 0.50743 0.0
O547 O 0.63532 0.06847 0.52672 0.0
O548 O 0.60928 0.1229 0.53446 0.0
O549 O 0.61546 0.09674 0.5571 0.0
O550 O 0.61879 0.14935 0.49715 0.0
O551 O 0.63096 0.11568 0.48954 0.0
H552 H 0.60974 0.22982 0.55257 0.0
H553 H 0.61178 0.25592 0.5845 0.0
H554 H 0.63518 0.20776 0.63232 0.0
H555 H 0.63265 0.18155 0.6002 0.0
H556 H 0.61948 0.06358 0.47918 0.0
H557 H 0.61378 0.03622 0.4488 0.0
H558 H 0.67057 0.00432 0.47218 0.0
H559 H 0.67579 0.03134 0.50267 0.0
Pr560 Pr 0.60305 0.88208 0.287 0.0
Pr561 Pr 0.65051 0.88847 0.27854 0.0
C562 C 0.56533 0.86966 0.30514 0.0
C563 C 0.55181 0.87007 0.32672 0.0
C564 C 0.5483 0.88872 0.33976 0.0
C565 C 0.53418 0.88883 0.35905 0.0
C566 C 0.52325 0.87031 0.36573 0.0
C567 C 0.52734 0.85158 0.353 0.0
C568 C 0.54142 0.85148 0.33376 0.0
C569 C 0.61313 0.92194 0.26832 0.0
C570 C 0.63217 0.90696 0.32893 0.0
C571 C 0.68996 0.89822 0.26363 0.0
C572 C 0.70518 0.8955 0.24399 0.0
C573 C 0.72174 0.91005 0.24166 0.0
C574 C 0.73714 0.90739 0.22409 0.0
C575 C 0.73637 0.89003 0.20842 0.0
C576 C 0.71941 0.87569 0.21046 0.0
C577 C 0.70394 0.87839 0.22811 0.0
C578 C 0.6408 0.85192 0.30399 0.0
C579 C 0.62015 0.87225 0.23268 0.0
O580 O 0.58231 0.8579 0.30574 0.0
O581 O 0.56802 0.88728 0.29332 0.0
O582 O 0.62343 0.91197 0.28386 0.0
O583 O 0.59642 0.91128 0.26194 0.0
O584 O 0.6475 0.90859 0.31309 0.0
O585 O 0.61483 0.89588 0.32421 0.0
O586 O 0.67358 0.91039 0.25979 0.0
O587 O 0.68553 0.88155 0.27646 0.0
O588 O 0.63057 0.85822 0.28582 0.0
O589 O 0.65688 0.86402 0.30843 0.0
O590 O 0.60396 0.86966 0.24735 0.0
O591 O 0.63841 0.87979 0.24028 0.0
H592 H 0.55615 0.90329 0.3348 0.0
H593 H 0.53135 0.90361 0.36825 0.0
H594 H 0.51956 0.83694 0.35781 0.0
H595 H 0.54393 0.83688 0.32407 0.0
H596 H 0.72291 0.92341 0.25366 0.0
H597 H 0.74966 0.91901 0.22275 0.0
H598 H 0.71833 0.86211 0.19878 0.0
H599 H 0.69122 0.867 0.22957 0.0
Pr600 Pr 0.87289 0.85473 0.03668 0.0
Pr601 Pr 0.86578 0.90198 0.02872 0.0
C602 C 0.88601 0.81725 0.0548 0.0
C603 C 0.88382 0.80245 0.07515 0.0
C604 C 0.88199 0.78071 0.07062 0.0
C605 C 0.88135 0.76612 0.08936 0.0
C606 C 0.88262 0.77288 0.1132 0.0
C607 C 0.88409 0.79476 0.11772 0.0
C608 C 0.8847 0.80939 0.09891 0.0
C609 C 0.83275 0.86411 0.01819 0.0
C610 C 0.84696 0.88301 0.07863 0.0
C611 C 0.85632 0.94141 1.01354 0.0
C612 C 0.86106 0.95701 0.99462 0.0
C613 C 0.8667 0.97767 1.00111 0.0
C614 C 0.87002 0.99318 0.98378 0.0
C615 C 0.86761 0.98847 0.95945 0.0
C616 C 0.86244 0.96756 0.95294 0.0
C617 C 0.85922 0.95199 0.97033 0.0
C618 C 0.90261 0.89251 0.05375 0.0
C619 C 0.88313 0.87244 0.98279 0.0
O620 O 0.89574 0.8352 0.05852 0.0
O621 O 0.87017 0.81892 0.03995 0.0
O622 O 0.84256 0.87457 0.03371 0.0
O623 O 0.84366 0.84756 1.01187 0.0
O624 O 0.84523 0.89845 0.0629 0.0
O625 O 0.85825 0.86583 0.07378 0.0
O626 O 0.84523 0.92468 1.00784 0.0
O627 O 0.87127 0.93744 0.02898 0.0
O628 O 0.8964 0.88247 0.03543 0.0
O629 O 0.89025 0.90829 0.05858 0.0
O630 O 0.88615 0.8563 0.99743 0.0
O631 O 0.87492 0.89039 0.99041 0.0
H632 H 0.88129 0.77495 0.05248 0.0
H633 H 0.87977 0.7495 0.08511 0.0
H634 H 0.88522 0.80059 0.1358 0.0
H635 H 0.88616 0.82608 0.10297 0.0
H636 H 0.86829 0.98191 0.01971 0.0
H637 H 0.87439 0.00894 0.98949 0.0
H638 H 0.86028 0.96335 0.93442 0.0
H639 H 0.85495 0.93615 0.96477 0.0
Pr640 Pr 0.65241 0.61514 0.77955 0.0
Pr641 Pr 0.60508 0.62205 0.78885 0.0
C642 C 0.69137 0.60541 0.7632 0.0
C643 C 0.70643 0.60966 0.74363 0.0
C644 C 0.72706 0.61609 0.74924 0.0
C645 C 0.74214 0.61892 0.73134 0.0
C646 C 0.73702 0.61523 0.70733 0.0
C647 C 0.71614 0.60926 0.70166 0.0
C648 C 0.701 0.60652 0.71962 0.0
C649 C 0.64327 0.65213 0.80444 0.0
C650 C 0.62187 0.63239 0.73447 0.0
C651 C 0.56799 0.63514 0.80802 0.0
C652 C 0.55301 0.63287 0.82827 0.0
C653 C 0.5315 0.6294 0.82352 0.0
C654 C 0.51663 0.62901 0.84199 0.0
C655 C 0.52283 0.63218 0.8658 0.0
C656 C 0.5445 0.63524 0.8706 0.0
C657 C 0.55941 0.63563 0.85206 0.0
C658 C 0.61456 0.58203 0.77011 0.0
C659 C 0.63466 0.5962 0.83 0.0
O660 O 0.67451 0.59416 0.75845 0.0
O661 O 0.68783 0.62073 0.77832 0.0
O662 O 0.63275 0.64558 0.78664 0.0
O663 O 0.65941 0.64007 0.80877 0.0
O664 O 0.60599 0.63538 0.74948 0.0
O665 O 0.63995 0.62417 0.74164 0.0
O666 O 0.58615 0.6444 0.81198 0.0
O667 O 0.56925 0.61975 0.79252 0.0
O668 O 0.62511 0.59202 0.78538 0.0
O669 O 0.59761 0.59259 0.7644 0.0
O670 O 0.64991 0.59492 0.81402 0.0
O671 O 0.61708 0.60703 0.82551 0.0
H672 H 0.73163 0.61866 0.7676 0.0
H673 H 0.75788 0.62396 0.73639 0.0
H674 H 0.71162 0.60611 0.68342 0.0
H675 H 0.68518 0.60161 0.71472 0.0
H676 H 0.5261 0.62731 0.80537 0.0
H677 H 0.50021 0.62619 0.83755 0.0
H678 H 0.5499 0.63786 0.88865 0.0
H679 H 0.57587 0.63846 0.85634 0.0
Pr680 Pr 0.64007 0.39753 0.02901 0.0
Pr681 Pr 0.63062 0.35059 0.03902 0.0
C682 C 0.64712 0.43732 1.01342 0.0
C683 C 0.64734 0.45125 0.99229 0.0
C684 C 0.63156 0.44998 0.97471 0.0
C685 C 0.63026 0.46533 0.95676 0.0
C686 C 0.64471 0.48228 0.95603 0.0
C687 C 0.66105 0.48286 0.97304 0.0
C688 C 0.6623 0.46756 0.99099 0.0
C689 C 0.60661 0.38982 0.06035 0.0
C690 C 0.6212 0.36818 0.98402 0.0
C691 C 0.61207 0.31427 0.05356 0.0
C692 C 0.61382 0.29826 0.07269 0.0
C693 C 0.6325 0.29569 0.08588 0.0
C694 C 0.63346 0.28092 0.10452 0.0
C695 C 0.61572 0.26846 0.11047 0.0
C696 C 0.59702 0.27126 0.0972 0.0
C697 C 0.59611 0.28597 0.07857 0.0
C698 C 0.67258 0.35734 0.02713 0.0
C699 C 0.6611 0.37768 0.07678 0.0
O700 O 0.66239 0.4235 1.01612 0.0
O701 O 0.62869 0.43035 0.02042 0.0
O702 O 0.60975 0.38009 0.04103 0.0
O703 O 0.62114 0.40388 0.0641 0.0
O704 O 0.6208 0.35142 0.99823 0.0
O705 O 0.62718 0.38693 0.99186 0.0
O706 O 0.60573 0.33307 0.06017 0.0
O707 O 0.62699 0.31486 0.03739 0.0
O708 O 0.65722 0.36701 1.01743 0.0
O709 O 0.66635 0.34252 0.04155 0.0
O710 O 0.6637 0.39182 0.0598 0.0
O711 O 0.64656 0.36257 0.07497 0.0
H712 H 0.6198 0.43754 0.9753 0.0
H713 H 0.61742 0.46437 0.94406 0.0
H714 H 0.67275 0.49537 0.97274 0.0
H715 H 0.6746 0.46887 1.00433 0.0
H716 H 0.64632 0.30515 0.08182 0.0
H717 H 0.64821 0.27909 0.11409 0.0
H718 H 0.58294 0.26228 0.10141 0.0
H719 H 0.58144 0.28789 0.06884 0.0
Pr720 Pr 0.85304 0.39234 0.28102 0.0
Pr721 Pr 0.90025 0.38446 0.28882 0.0
C722 C 0.81409 0.40298 0.26519 0.0
C723 C 0.79903 0.3985 0.24569 0.0
C724 C 0.79682 0.37814 0.23597 0.0
C725 C 0.78166 0.37419 0.21827 0.0
C726 C 0.76845 0.39053 0.20989 0.0
C727 C 0.77114 0.41098 0.21937 0.0
C728 C 0.7862 0.41487 0.23708 0.0
C729 C 0.86186 0.35481 0.30505 0.0
C730 C 0.88239 0.37493 0.23483 0.0
C731 C 0.93768 0.3708 0.30658 0.0
C732 C 0.95259 0.37247 0.3269 0.0
C733 C 0.97434 0.3738 0.32229 0.0
C734 C 0.98902 0.37393 0.34096 0.0
C735 C 0.98234 0.37267 0.36482 0.0
C736 C 0.96045 0.37171 0.36944 0.0
C737 C 0.94573 0.37159 0.35069 0.0
C738 C 0.89107 0.42492 0.27099 0.0
C739 C 0.87226 0.40973 0.33156 0.0
O740 O 0.83112 0.4137 0.2598 0.0
O741 O 0.81756 0.3879 0.28064 0.0
O742 O 0.87215 0.36137 0.28708 0.0
O743 O 0.84604 0.36713 0.30992 0.0
O744 O 0.89853 0.37165 0.24939 0.0
O745 O 0.86454 0.38324 0.2426 0.0
O746 O 0.91968 0.36113 0.31015 0.0
O747 O 0.93607 0.38692 0.29212 0.0
O748 O 0.88077 0.41503 0.28657 0.0
O749 O 0.90749 0.41397 0.26436 0.0
O750 O 0.85675 0.412 0.31599 0.0
O751 O 0.88931 0.39841 0.32627 0.0
H752 H 0.80661 0.36523 0.24225 0.0
H753 H 0.78001 0.35823 0.21153 0.0
H754 H 0.76164 0.42407 0.21304 0.0
H755 H 0.78772 0.43073 0.24421 0.0
H756 H 0.98005 0.37448 0.30413 0.0
H757 H 0.00566 0.37514 0.33664 0.0
H758 H 0.95468 0.37061 0.38753 0.0
H759 H 0.92904 0.37051 0.3548 0.0
Pr760 Pr 0.86726 0.60655 0.52595 0.0
Pr761 Pr 0.86954 0.65545 0.53467 0.0
C762 C 0.85744 0.56563 0.51761 0.0
C763 C 0.86222 0.54834 0.50079 0.0
C764 C 0.84914 0.53046 0.50039 0.0
C765 C 0.85214 0.51461 0.48335 0.0
C766 C 0.86836 0.51623 0.46627 0.0
C767 C 0.88166 0.53414 0.46698 0.0
C768 C 0.87857 0.55007 0.48403 0.0
C769 C 0.90655 0.62169 0.54237 0.0
C770 C 0.88109 0.63712 0.48089 0.0
C771 C 0.87807 0.6944 0.55207 0.0
C772 C 0.88023 0.70668 0.57455 0.0
C773 C 0.86325 0.70894 0.5905 0.0
C774 C 0.86483 0.72249 0.61019 0.0
C775 C 0.88344 0.73413 0.61452 0.0
C776 C 0.90067 0.73122 0.59898 0.0
C777 C 0.89905 0.71773 0.57924 0.0
C778 C 0.83206 0.64169 0.51295 0.0
C779 C 0.84662 0.62537 0.5764 0.0
O780 O 0.84682 0.58157 0.50879 0.0
O781 O 0.87229 0.57143 0.5325 0.0
O782 O 0.88856 0.62752 0.54923 0.0
O783 O 0.90474 0.60702 0.52627 0.0
O784 O 0.88533 0.65236 0.49644 0.0
O785 O 0.87153 0.61953 0.48747 0.0
O786 O 0.89291 0.6807 0.54673 0.0
O787 O 0.85912 0.68812 0.54591 0.0
O788 O 0.84222 0.6325 0.52915 0.0
O789 O 0.8414 0.65938 0.50731 0.0
O790 O 0.84937 0.60871 0.56245 0.0
O791 O 0.85386 0.64435 0.57059 0.0
H792 H 0.83625 0.52898 0.51296 0.0
H793 H 0.8413 0.50136 0.48317 0.0
H794 H 0.89445 0.53588 0.45433 0.0
H795 H 0.88873 0.56387 0.48391 0.0
H796 H 0.84848 0.70069 0.58747 0.0
H797 H 0.85111 0.72442 0.6215 0.0
H798 H 0.91539 0.73957 0.60187 0.0
H799 H 0.9124 0.71632 0.56727 0.0
Pr800 Pr 0.64915 0.38746 0.7572 0.0
Pr801 Pr 0.60139 0.3834 0.7501 0.0
C802 C 0.68907 0.39565 0.77178 0.0
C803 C 0.70464 0.39115 0.79082 0.0
C804 C 0.72524 0.38518 0.7845 0.0
C805 C 0.74079 0.3823 0.80193 0.0
C806 C 0.73614 0.38544 0.82617 0.0
C807 C 0.71528 0.39092 0.83251 0.0
C808 C 0.69969 0.39372 0.81504 0.0
C809 C 0.63769 0.35137 0.73193 0.0
C810 C 0.61922 0.37214 0.80377 0.0
C811 C 0.56169 0.37445 0.73481 0.0
C812 C 0.54768 0.37379 0.71371 0.0
C813 C 0.52577 0.37504 0.71713 0.0
C814 C 0.51189 0.3743 0.69776 0.0
C815 C 0.51955 0.37228 0.67434 0.0
C816 C 0.54163 0.37114 0.67093 0.0
C817 C 0.55557 0.37184 0.69044 0.0
C818 C 0.61407 0.42239 0.76921 0.0
C819 C 0.63037 0.40647 0.70731 0.0
O820 O 0.67286 0.40764 0.77702 0.0
O821 O 0.68436 0.38028 0.75715 0.0
O822 O 0.62773 0.35816 0.75004 0.0
O823 O 0.65462 0.36231 0.72777 0.0
O824 O 0.60258 0.37066 0.78956 0.0
O825 O 0.63768 0.37869 0.79568 0.0
O826 O 0.57674 0.36036 0.73636 0.0
O827 O 0.56739 0.39303 0.74268 0.0
O828 O 0.62316 0.41231 0.75287 0.0
O829 O 0.59745 0.41214 0.77654 0.0
O830 O 0.64572 0.40821 0.72314 0.0
O831 O 0.61318 0.3952 0.7121 0.0
H832 H 0.72943 0.38306 0.76596 0.0
H833 H 0.75651 0.37768 0.79635 0.0
H834 H 0.71111 0.39365 0.85094 0.0
H835 H 0.68391 0.39828 0.82047 0.0
H836 H 0.51934 0.37664 0.73491 0.0
H837 H 0.49509 0.37567 0.70115 0.0
H838 H 0.54813 0.36948 0.65321 0.0
H839 H 0.57245 0.37084 0.68736 0.0
Pr840 Pr 0.86515 0.40167 1.00721 0.0
Pr841 Pr 0.87009 0.35414 1.00035 0.0
C842 C 0.85726 0.44185 0.02099 0.0
C843 C 0.86141 0.4574 0.04006 0.0
C844 C 0.86664 0.47821 0.03377 0.0
C845 C 0.86939 0.49369 0.05125 0.0
C846 C 0.86686 0.48876 0.07551 0.0
C847 C 0.86214 0.4677 0.08182 0.0
C848 C 0.85946 0.45217 0.06427 0.0
C849 C 0.90109 0.39043 0.9815 0.0
C850 C 0.88043 0.37198 0.05416 0.0
C851 C 0.88081 0.31549 0.98325 0.0
C852 C 0.88116 0.30225 0.96137 0.0
C853 C 0.86283 0.29845 0.94785 0.0
C854 C 0.86329 0.28444 0.92847 0.0
C855 C 0.88209 0.27386 0.92209 0.0
C856 C 0.90053 0.27824 0.93527 0.0
C857 C 0.90005 0.29221 0.95464 0.0
C858 C 0.8309 0.36613 0.01952 0.0
C859 C 0.84577 0.38269 0.95772 0.0
O860 O 0.84473 0.42595 0.02582 0.0
O861 O 0.87311 0.43669 1.00725 0.0
O862 O 0.89485 0.38087 1.00012 0.0
O863 O 0.88917 0.40653 0.97657 0.0
O864 O 0.88242 0.35535 0.03999 0.0
O865 O 0.87366 0.39034 0.04591 0.0
O866 O 0.89409 0.33131 0.98452 0.0
O867 O 0.86253 0.3197 0.99303 0.0
O868 O 0.84078 0.3753 1.0031 0.0
O869 O 0.84131 0.34953 0.02671 0.0
O870 O 0.84402 0.39811 0.97345 0.0
O871 O 0.85715 0.36558 0.96261 0.0
H872 H 0.86832 0.48258 1.01523 0.0
H873 H 0.87343 0.50959 0.04572 0.0
H874 H 0.85992 0.46333 0.10028 0.0
H875 H 0.85552 0.43618 0.06962 0.0
H876 H 0.84801 0.30596 0.95253 0.0
H877 H 0.84871 0.28139 0.91897 0.0
H878 H 0.91539 0.27075 0.93072 0.0
H879 H 0.91443 0.29488 0.96469 0.0
Pr880 Pr 0.85274 0.61739 0.25681 0.0
Pr881 Pr 0.90002 0.62469 0.24719 0.0
C882 C 0.814 0.60726 0.2736 0.0
C883 C 0.79833 0.6122 0.29241 0.0
C884 C 0.77766 0.61774 0.28579 0.0
C885 C 0.762 0.62087 0.30302 0.0
C886 C 0.76657 0.61837 0.32738 0.0
C887 C 0.78747 0.61337 0.33403 0.0
C888 C 0.80318 0.61033 0.31675 0.0
C889 C 0.86141 0.65441 0.23173 0.0
C890 C 0.88343 0.63552 0.30143 0.0
C891 C 0.9371 0.63782 0.22804 0.0
C892 C 0.951 0.63672 0.2068 0.0
C893 C 0.95515 0.61759 0.19494 0.0
C894 C 0.96962 0.61692 0.17598 0.0
C895 C 0.98028 0.63535 0.16847 0.0
C896 C 0.97556 0.65454 0.18003 0.0
C897 C 0.96113 0.65519 0.19892 0.0
C898 C 0.89092 0.58476 0.26649 0.0
C899 C 0.87067 0.59873 0.20637 0.0
O900 O 0.83129 0.59725 0.27972 0.0
O901 O 0.81707 0.62144 0.25701 0.0
O902 O 0.87209 0.64793 0.24945 0.0
O903 O 0.84527 0.64229 0.22764 0.0
O904 O 0.89937 0.63807 0.28643 0.0
O905 O 0.86524 0.62741 0.29442 0.0
O906 O 0.91947 0.64848 0.22616 0.0
O907 O 0.93531 0.62098 0.24142 0.0
O908 O 0.88026 0.59446 0.25106 0.0
O909 O 0.90766 0.59566 0.27222 0.0
O910 O 0.8559 0.59657 0.2228 0.0
O911 O 0.88765 0.61057 0.21038 0.0
H912 H 0.77349 0.6193 0.26717 0.0
H913 H 0.74624 0.62511 0.29719 0.0
H914 H 0.79159 0.61114 0.35257 0.0
H915 H 0.81899 0.6061 0.32245 0.0
H916 H 0.94753 0.6031 0.20058 0.0
H917 H 0.97292 0.60182 0.16769 0.0
H918 H 0.98312 0.66911 0.17454 0.0
H919 H 0.95813 0.67016 0.20769 0.0
Pr920 Pr 0.63713 0.60429 0.50792 0.0
Pr921 Pr 0.63365 0.65194 0.49998 0.0
C922 C 0.64517 0.56454 0.52321 0.0
C923 C 0.64018 0.54889 0.54202 0.0
C924 C 0.6342 0.52835 0.53539 0.0
C925 C 0.63106 0.51267 0.55261 0.0
C926 C 0.63396 0.5171 0.57694 0.0
C927 C 0.63939 0.5379 0.5836 0.0
C928 C 0.64245 0.55363 0.56634 0.0
C929 C 0.60094 0.61562 0.48271 0.0
C930 C 0.62271 0.63513 0.55418 0.0
C931 C 0.62546 0.6913 0.48308 0.0
C932 C 0.62372 0.70394 0.46082 0.0
C933 C 0.60546 0.71601 0.45662 0.0
C934 C 0.60427 0.72979 0.4371 0.0
C935 C 0.6214 0.73195 0.42126 0.0
C936 C 0.63943 0.71926 0.42508 0.0
C937 C 0.64057 0.70543 0.44458 0.0
C938 C 0.6728 0.63907 0.51859 0.0
C939 C 0.65582 0.62207 0.45753 0.0
O940 O 0.6567 0.58094 0.52901 0.0
O941 O 0.63037 0.56898 0.50774 0.0
O942 O 0.60798 0.62594 0.50047 0.0
O943 O 0.61172 0.59851 0.47891 0.0
O944 O 0.62191 0.65177 0.53988 0.0
O945 O 0.62834 0.61633 0.54616 0.0
O946 O 0.61065 0.67749 0.48769 0.0
O947 O 0.64421 0.6849 0.48964 0.0
O948 O 0.66228 0.62982 0.50272 0.0
O949 O 0.66287 0.65595 0.52577 0.0
O950 O 0.65788 0.60713 0.4738 0.0
O951 O 0.64436 0.6392 0.46197 0.0
H952 H 0.63232 0.52431 0.51678 0.0
H953 H 0.62649 0.497 0.54678 0.0
H954 H 0.64193 0.5419 0.60211 0.0
H955 H 0.64701 0.56935 0.57202 0.0
H956 H 0.59221 0.71517 0.4688 0.0
H957 H 0.58998 0.73895 0.43459 0.0
H958 H 0.65305 0.72055 0.4135 0.0
H959 H 0.65489 0.69634 0.44724 0.0
Pr960 Pr 0.4017 0.38334 0.25082 0.0
Pr961 Pr 0.35445 0.39069 0.25875 0.0
C962 C 0.43916 0.36978 0.23323 0.0
C963 C 0.45404 0.37164 0.21298 0.0
C964 C 0.46004 0.39133 0.20356 0.0
C965 C 0.47525 0.39252 0.18543 0.0
C966 C 0.48479 0.37405 0.17635 0.0
C967 C 0.47826 0.35436 0.18546 0.0
C968 C 0.4631 0.3532 0.20355 0.0
C969 C 0.39236 0.42359 0.26889 0.0
C970 C 0.37357 0.40901 0.20857 0.0
C971 C 0.31513 0.40139 0.27318 0.0
C972 C 0.29951 0.39805 0.29224 0.0
C973 C 0.28241 0.412 0.2941 0.0
C974 C 0.26683 0.40886 0.31136 0.0
C975 C 0.26798 0.39161 0.32714 0.0
C976 C 0.28544 0.37782 0.3255 0.0
C977 C 0.30108 0.38101 0.30817 0.0
C978 C 0.36378 0.35357 0.23411 0.0
C979 C 0.38387 0.3735 0.30477 0.0
O980 O 0.42127 0.36002 0.22938 0.0
O981 O 0.43734 0.38584 0.24776 0.0
O982 O 0.38194 0.41364 0.25346 0.0
O983 O 0.40895 0.41279 0.2753 0.0
O984 O 0.35814 0.41078 0.22426 0.0
O985 O 0.39075 0.39773 0.21348 0.0
O986 O 0.33195 0.41247 0.27846 0.0
O987 O 0.3191 0.38537 0.25918 0.0
O988 O 0.37383 0.35998 0.25231 0.0
O989 O 0.34795 0.36587 0.2292 0.0
O990 O 0.39998 0.37036 0.29015 0.0
O991 O 0.36594 0.38174 0.29715 0.0
H992 H 0.45326 0.40582 0.21045 0.0
H993 H 0.47997 0.40796 0.17901 0.0
H994 H 0.48492 0.33979 0.17865 0.0
H995 H 0.45865 0.33782 0.21044 0.0
H996 H 0.281 0.42531 0.28204 0.0
H997 H 0.25391 0.42006 0.3124 0.0
H998 H 0.28681 0.36433 0.33727 0.0
H999 H 0.31424 0.37009 0.30703 0.0
Pr1000 Pr 0.37211 0.65173 0.99791 0.0
Pr1001 Pr 0.36521 0.60464 1.00704 0.0
C1002 C 0.38498 0.68908 0.97915 0.0
C1003 C 0.38277 0.70393 0.9588 0.0
C1004 C 0.38056 0.72563 0.9634 0.0
C1005 C 0.38007 0.74031 0.94474 0.0
C1006 C 0.38185 0.73372 0.92089 0.0
C1007 C 0.38365 0.71186 0.91627 0.0
C1008 C 0.38414 0.69714 0.93501 0.0
C1009 C 0.33176 0.64244 1.01598 0.0
C1010 C 0.34691 0.62249 0.95637 0.0
C1011 C 0.35563 0.56557 0.0233 0.0
C1012 C 0.36089 0.55005 0.04217 0.0
C1013 C 0.36688 0.52949 0.03564 0.0
C1014 C 0.37055 0.51401 0.05295 0.0
C1015 C 0.36814 0.51865 0.0773 0.0
C1016 C 0.36263 0.53946 0.08385 0.0
C1017 C 0.35907 0.55499 0.06648 0.0
C1018 C 0.40247 0.61362 0.9826 0.0
C1019 C 0.38213 0.63506 0.05238 0.0
O1020 O 0.39463 0.67109 0.97543 0.0
O1021 O 0.3693 0.68753 0.9942 0.0
O1022 O 0.34184 0.63175 1.00089 0.0
O1023 O 0.34245 0.65921 0.02197 0.0
O1024 O 0.34475 0.60761 0.9727 0.0
O1025 O 0.35842 0.63962 0.96073 0.0
O1026 O 0.34516 0.5826 0.02936 0.0
O1027 O 0.3699 0.56904 1.00694 0.0
O1028 O 0.39586 0.62419 1.00037 0.0
O1029 O 0.39035 0.59757 0.97816 0.0
O1030 O 0.3851 0.65097 0.0374 0.0
O1031 O 0.37411 0.61693 0.0451 0.0
H1032 H 0.37951 0.7313 0.98155 0.0
H1033 H 0.37821 0.7569 0.94906 0.0
H1034 H 0.38517 0.70615 0.89819 0.0
H1035 H 0.38591 0.6805 0.93088 0.0
H1036 H 0.36844 0.52528 1.01704 0.0
H1037 H 0.37516 0.49833 0.0472 0.0
H1038 H 0.36043 0.54362 0.10237 0.0
H1039 H 0.35451 0.57073 0.07211 0.0
Pr1040 Pr 0.0989 0.61975 0.74942 0.0
Pr1041 Pr 0.14983 0.6156 0.75883 0.0
C1042 C 0.06057 0.62861 0.73052 0.0
C1043 C 0.04859 0.62803 0.70769 0.0
C1044 C 0.04268 0.60873 0.69712 0.0
C1045 C 0.02959 0.60837 0.67699 0.0
C1046 C 0.02206 0.62728 0.66683 0.0
C1047 C 0.02854 0.6466 0.67695 0.0
C1048 C 0.04156 0.64695 0.69718 0.0
C1049 C 0.1128 0.58151 0.76901 0.0
C1050 C 0.1305 0.59713 0.70773 0.0
C1051 C 0.18756 0.60234 0.77527 0.0
C1052 C 0.20434 0.60841 0.79242 0.0
C1053 C 0.22523 0.61098 0.7845 0.0
C1054 C 0.24157 0.61509 0.80068 0.0
C1055 C 0.23745 0.61654 0.82526 0.0
C1056 C 0.2164 0.61442 0.83307 0.0
C1057 C 0.20005 0.61047 0.81687 0.0
C1058 C 0.13989 0.65556 0.73928 0.0
C1059 C 0.11731 0.63191 0.8032 0.0
O1060 O 0.07544 0.64287 0.733 0.0
O1061 O 0.06528 0.61055 0.7406 0.0
O1062 O 0.12224 0.59242 0.75356 0.0
O1063 O 0.09487 0.59034 0.77473 0.0
O1064 O 0.14671 0.59748 0.72271 0.0
O1065 O 0.11201 0.60606 0.7129 0.0
O1066 O 0.1694 0.59615 0.78415 0.0
O1067 O 0.18563 0.61361 0.75577 0.0
O1068 O 0.12747 0.6409 0.74508 0.0
O1069 O 0.15902 0.64995 0.74494 0.0
O1070 O 0.10093 0.63374 0.78846 0.0
O1071 O 0.13591 0.62465 0.79615 0.0
H1072 H 0.04781 0.59381 0.70464 0.0
H1073 H 0.02519 0.59322 0.66949 0.0
H1074 H 0.02293 0.66147 0.66976 0.0
H1075 H 0.0457 0.66207 0.70498 0.0
H1076 H 0.22898 0.60947 0.76577 0.0
H1077 H 0.25748 0.61699 0.7939 0.0
H1078 H 0.21257 0.61514 0.85183 0.0
H1079 H 0.18413 0.60858 0.82363 0.0
Pr1080 Pr 0.13216 0.35354 0.49804 0.0
Pr1081 Pr 0.13926 0.40077 0.50688 0.0
C1082 C 0.11904 0.31625 0.47933 0.0
C1083 C 0.11997 0.30243 0.458 0.0
C1084 C 0.13896 0.29851 0.44578 0.0
C1085 C 0.13949 0.28418 0.42668 0.0
C1086 C 0.12105 0.27343 0.41936 0.0
C1087 C 0.102 0.2779 0.43129 0.0
C1088 C 0.10149 0.2922 0.45034 0.0
C1089 C 0.17223 0.36287 0.51672 0.0
C1090 C 0.15748 0.38256 0.45644 0.0
C1091 C 0.14905 0.43988 0.52286 0.0
C1092 C 0.14444 0.45538 0.54194 0.0
C1093 C 0.13834 0.47597 0.53565 0.0
C1094 C 0.13525 0.49143 0.5531 0.0
C1095 C 0.13833 0.48674 0.57734 0.0
C1096 C 0.14396 0.46591 0.58366 0.0
C1097 C 0.14696 0.45039 0.56616 0.0
C1098 C 0.10228 0.39172 0.48188 0.0
C1099 C 0.12194 0.37051 0.55225 0.0
O1100 O 0.10816 0.33377 0.47769 0.0
O1101 O 0.13608 0.31824 0.49235 0.0
O1102 O 0.16241 0.37344 0.50129 0.0
O1103 O 0.16139 0.3462 0.52284 0.0
O1104 O 0.15959 0.39764 0.47253 0.0
O1105 O 0.14604 0.36543 0.46096 0.0
O1106 O 0.15988 0.42292 0.52839 0.0
O1107 O 0.13419 0.43631 0.50719 0.0
O1108 O 0.10866 0.38135 0.49988 0.0
O1109 O 0.11451 0.40769 0.47743 0.0
O1110 O 0.11919 0.35444 0.53744 0.0
O1111 O 0.12992 0.38863 0.54487 0.0
H1112 H 0.15346 0.30623 0.45124 0.0
H1113 H 0.1545 0.28107 0.4181 0.0
H1114 H 0.08741 0.27028 0.42597 0.0
H1115 H 0.08662 0.29502 0.45937 0.0
H1116 H 0.13626 0.48021 0.51711 0.0
H1117 H 0.13051 0.50713 0.54753 0.0
H1118 H 0.14665 0.46172 0.6021 0.0
H1119 H 0.15161 0.43462 0.57159 0.0
Pr1120 Pr 0.40117 0.6237 0.28683 0.0
Pr1121 Pr 0.35395 0.61597 0.27837 0.0
C1122 C 0.4383 0.63781 0.3049 0.0
C1123 C 0.45378 0.63531 0.32443 0.0
C1124 C 0.47421 0.64348 0.32151 0.0
C1125 C 0.48907 0.64217 0.3399 0.0
C1126 C 0.48391 0.63257 0.36176 0.0
C1127 C 0.46334 0.62431 0.36461 0.0
C1128 C 0.44842 0.62567 0.34613 0.0
C1129 C 0.39231 0.58332 0.26877 0.0
C1130 C 0.37286 0.59757 0.32876 0.0
C1131 C 0.31482 0.60518 0.26331 0.0
C1132 C 0.29953 0.60816 0.24378 0.0
C1133 C 0.30043 0.62574 0.22854 0.0
C1134 C 0.28494 0.62863 0.21095 0.0
C1135 C 0.26829 0.614 0.20832 0.0
C1136 C 0.26786 0.59618 0.22334 0.0
C1137 C 0.28328 0.59334 0.24087 0.0
C1138 C 0.36286 0.6531 0.3032 0.0
C1139 C 0.38356 0.63347 0.23266 0.0
O1140 O 0.41991 0.64597 0.31027 0.0
O1141 O 0.43709 0.62278 0.28898 0.0
O1142 O 0.38164 0.59328 0.28395 0.0
O1143 O 0.40901 0.59412 0.26276 0.0
O1144 O 0.3573 0.5961 0.31314 0.0
O1145 O 0.39022 0.60856 0.3238 0.0
O1146 O 0.33164 0.59381 0.25885 0.0
O1147 O 0.31867 0.62151 0.27692 0.0
O1148 O 0.37308 0.64681 0.28507 0.0
O1149 O 0.34711 0.64065 0.30794 0.0
O1150 O 0.39946 0.6369 0.24751 0.0
O1151 O 0.36572 0.62488 0.24006 0.0
H1152 H 0.47862 0.65114 0.30499 0.0
H1153 H 0.50456 0.64903 0.33709 0.0
H1154 H 0.45882 0.61659 0.38104 0.0
H1155 H 0.43271 0.61927 0.3488 0.0
H1156 H 0.31291 0.63735 0.23046 0.0
H1157 H 0.28574 0.64257 0.19978 0.0
H1158 H 0.25559 0.58434 0.22153 0.0
H1159 H 0.28239 0.5796 0.25237 0.0
Pr1160 Pr 0.13177 0.65122 0.03705 0.0
Pr1161 Pr 0.13863 0.60392 0.02852 0.0
C1162 C 0.1188 0.68858 0.05565 0.0
C1163 C 0.12096 0.70344 0.07598 0.0
C1164 C 0.12278 0.72517 0.07138 0.0
C1165 C 0.1232 0.73984 0.09005 0.0
C1166 C 0.12174 0.73318 0.11391 0.0
C1167 C 0.12033 0.7113 0.11852 0.0
C1168 C 0.11991 0.69659 0.09977 0.0
C1169 C 0.17181 0.64177 0.01829 0.0
C1170 C 0.15768 0.62237 0.07856 0.0
C1171 C 0.14792 0.56462 1.01273 0.0
C1172 C 0.14316 0.54912 0.99367 0.0
C1173 C 0.13661 0.52868 1.0 0.0
C1174 C 0.13341 0.51318 0.98261 0.0
C1175 C 0.13682 0.51768 0.95838 0.0
C1176 C 0.14289 0.53837 0.95201 0.0
C1177 C 0.146 0.55393 0.96945 0.0
C1178 C 0.10189 0.61341 0.05368 0.0
C1179 C 0.12097 0.63392 0.98311 0.0
O1180 O 0.10919 0.67057 0.05942 0.0
O1181 O 0.1345 0.68703 0.04062 0.0
O1182 O 0.16198 0.63121 0.03372 0.0
O1183 O 0.161 0.65848 1.01228 0.0
O1184 O 0.15932 0.60708 0.06265 0.0
O1185 O 0.14643 0.63963 0.07397 0.0
O1186 O 0.159 0.5814 1.00719 0.0
O1187 O 0.13306 0.56845 0.0283 0.0
O1188 O 0.10816 0.62357 0.03548 0.0
O1189 O 0.11413 0.59748 0.05833 0.0
O1190 O 0.11808 0.64994 0.99794 0.0
O1191 O 0.1293 0.61593 0.99045 0.0
H1192 H 0.12359 0.73088 0.05322 0.0
H1193 H 0.12475 0.75646 0.08574 0.0
H1194 H 0.11905 0.70554 0.13661 0.0
H1195 H 0.11844 0.67992 0.10389 0.0
H1196 H 0.13427 0.52457 0.01853 0.0
H1197 H 0.12833 0.4976 0.98821 0.0
H1198 H 0.14584 0.54242 0.93359 0.0
H1199 H 0.151 0.56958 0.96399 0.0
Pr1200 Pr 0.0997 0.38392 0.78594 0.0
Pr1201 Pr 0.15071 0.38953 0.77685 0.0
C1202 C 0.06147 0.37328 0.8038 0.0
C1203 C 0.04924 0.37165 0.82632 0.0
C1204 C 0.04651 0.38917 0.84144 0.0
C1205 C 0.03291 0.38799 0.8611 0.0
C1206 C 0.02172 0.36925 0.86623 0.0
C1207 C 0.02517 0.35151 0.85157 0.0
C1208 C 0.03871 0.35272 0.83186 0.0
C1209 C 0.11274 0.42247 0.76633 0.0
C1210 C 0.13033 0.40726 0.82788 0.0
C1211 C 0.18809 0.40472 0.76148 0.0
C1212 C 0.20574 0.39941 0.74546 0.0
C1213 C 0.2046 0.3821 0.72987 0.0
C1214 C 0.221 0.37821 0.71365 0.0
C1215 C 0.2388 0.39161 0.71269 0.0
C1216 C 0.23986 0.40877 0.72863 0.0
C1217 C 0.22351 0.41259 0.74482 0.0
C1218 C 0.14167 0.34941 0.79647 0.0
C1219 C 0.11885 0.37254 0.73217 0.0
O1220 O 0.07641 0.35936 0.79984 0.0
O1221 O 0.06617 0.39224 0.79604 0.0
O1222 O 0.12236 0.41176 0.78182 0.0
O1223 O 0.0949 0.41335 0.76072 0.0
O1224 O 0.14649 0.40764 0.81285 0.0
O1225 O 0.11223 0.39753 0.82276 0.0
O1226 O 0.16997 0.40899 0.75119 0.0
O1227 O 0.18616 0.39362 0.78109 0.0
O1228 O 0.12896 0.36374 0.79044 0.0
O1229 O 0.16071 0.35544 0.79096 0.0
O1230 O 0.10239 0.37048 0.74673 0.0
O1231 O 0.13733 0.38002 0.73939 0.0
H1232 H 0.0544 0.40401 0.83773 0.0
H1233 H 0.03057 0.40207 0.87174 0.0
H1234 H 0.01718 0.3367 0.85512 0.0
H1235 H 0.04055 0.33897 0.82056 0.0
H1236 H 0.19093 0.37178 0.73005 0.0
H1237 H 0.21971 0.36474 0.70186 0.0
H1238 H 0.25307 0.41965 0.72817 0.0
H1239 H 0.22457 0.42615 0.75656 0.0
Pr1240 Pr 0.37241 0.35516 0.53915 0.0
Pr1241 Pr 0.3648 0.40237 0.53039 0.0
C1242 C 0.38599 0.3179 0.55749 0.0
C1243 C 0.38532 0.304 0.57874 0.0
C1244 C 0.36651 0.30021 0.59135 0.0
C1245 C 0.36619 0.28579 0.61036 0.0
C1246 C 0.38466 0.27483 0.61718 0.0
C1247 C 0.40355 0.27919 0.60488 0.0
C1248 C 0.40385 0.29358 0.58592 0.0
C1249 C 0.33209 0.36415 0.52101 0.0
C1250 C 0.34757 0.38399 0.5813 0.0
C1251 C 0.35404 0.44138 0.5147 0.0
C1252 C 0.35735 0.45663 0.49516 0.0
C1253 C 0.37478 0.45522 0.47976 0.0
C1254 C 0.37795 0.47059 0.46207 0.0
C1255 C 0.36376 0.48766 0.45951 0.0
C1256 C 0.34611 0.48862 0.47474 0.0
C1257 C 0.34299 0.47331 0.49234 0.0
C1258 C 0.40211 0.39352 0.55492 0.0
C1259 C 0.38189 0.37218 0.48483 0.0
O1260 O 0.39673 0.3355 0.55913 0.0
O1261 O 0.36882 0.31982 0.54468 0.0
O1262 O 0.34194 0.37481 0.53635 0.0
O1263 O 0.34306 0.34765 0.51467 0.0
O1264 O 0.34521 0.39917 0.56535 0.0
O1265 O 0.35895 0.36688 0.57646 0.0
O1266 O 0.34296 0.42442 0.50999 0.0
O1267 O 0.37003 0.43775 0.52888 0.0
O1268 O 0.39558 0.38316 0.53699 0.0
O1269 O 0.38986 0.40946 0.55954 0.0
O1270 O 0.38497 0.35618 0.49964 0.0
O1271 O 0.37378 0.39025 0.49224 0.0
H1272 H 0.35199 0.3081 0.58627 0.0
H1273 H 0.35131 0.28275 0.61924 0.0
H1274 H 0.41815 0.2714 0.60982 0.0
H1275 H 0.41857 0.29633 0.57657 0.0
H1276 H 0.38604 0.44241 0.4816 0.0
H1277 H 0.39175 0.46936 0.45076 0.0
H1278 H 0.3346 0.50121 0.47301 0.0
H1279 H 0.32938 0.47461 0.50395 0.0
C1280 C 0.25059 0.12874 0.16735 0.0
C1281 C 0.25484 0.11986 0.18977 0.0
C1282 C 0.26642 0.13025 0.14984 0.0
C1283 C 0.2871 0.12281 0.15483 0.0
C1284 C 0.29158 0.11412 0.17749 0.0
C1285 C 0.27544 0.11268 0.19459 0.0
C1286 C 0.26095 0.13953 0.12585 0.0
C1287 C 0.31336 0.10592 0.18352 0.0
C1288 C 0.32113 0.10626 0.10222 0.0
C1289 C 0.33415 0.12403 0.09888 0.0
C1290 C 0.30596 0.10563 0.12044 0.0
C1291 C 0.30374 0.12311 0.13595 0.0
C1292 C 0.31721 0.14086 0.13318 0.0
C1293 C 0.33221 0.14114 0.11467 0.0
C1294 C 0.29189 0.08642 0.12263 0.0
C1295 C 0.31544 0.15978 0.14944 0.0
H1296 H 0.23486 0.1346 0.16349 0.0
H1297 H 0.27889 0.10543 0.21163 0.0
H1298 H 0.27157 0.15302 0.1218 0.0
H1299 H 0.26339 0.1275 0.11174 0.0
H1300 H 0.24431 0.14512 0.12496 0.0
H1301 H 0.31461 0.10069 0.20234 0.0
H1302 H 0.31729 0.09234 0.17182 0.0
H1303 H 0.32538 0.11835 0.18025 0.0
H1304 H 0.3223 0.09297 0.09013 0.0
H1305 H 0.34207 0.15499 0.11225 0.0
H1306 H 0.27518 0.09104 0.11959 0.0
H1307 H 0.29293 0.07979 0.14087 0.0
H1308 H 0.29611 0.07383 0.1097 0.0
H1309 H 0.29955 0.16703 0.14756 0.0
H1310 H 0.32756 0.172 0.14552 0.0
H1311 H 0.31714 0.15476 0.16826 0.0
C1312 C 0.15096 0.06821 0.3521 0.0
C1313 C 0.13406 0.08244 0.34944 0.0
C1314 C 0.15104 0.05291 0.37018 0.0
C1315 C 0.13385 0.05178 0.38624 0.0
C1316 C 0.11693 0.06637 0.38405 0.0
C1317 C 0.11722 0.08151 0.36566 0.0
C1318 C 0.16936 0.03765 0.37178 0.0
C1319 C 0.09835 0.06572 0.40086 0.0
C1320 C 0.12633 0.99911 0.41819 0.0
C1321 C 0.13611 0.00299 0.44022 0.0
C1322 C 0.12507 0.01496 0.40066 0.0
C1323 C 0.13371 0.03524 0.40523 0.0
C1324 C 0.14329 0.03935 0.42752 0.0
C1325 C 0.14444 0.02321 0.44465 0.0
C1326 C 0.11478 0.00991 0.37707 0.0
C1327 C 0.15283 0.06068 0.43306 0.0
H1328 H 0.16403 0.06864 0.33965 0.0
H1329 H 0.10403 0.09233 0.36373 0.0
H1330 H 0.17664 0.03841 0.38972 0.0
H1331 H 0.16362 0.02123 0.36915 0.0
H1332 H 0.18176 0.04096 0.35829 0.0
H1333 H 0.08673 0.0785 0.39721 0.0
H1334 H 0.09019 0.05025 0.39933 0.0
H1335 H 0.1039 0.06723 0.41951 0.0
H1336 H 0.1196 0.98367 0.41466 0.0
H1337 H 0.15237 0.02633 0.46138 0.0
H1338 H 0.12651 0.01151 0.36252 0.0
H1339 H 0.10186 0.02132 0.37338 0.0
H1340 H 0.10817 0.99364 0.37658 0.0
H1341 H 0.16627 0.0638 0.42088 0.0
H1342 H 0.15864 0.06173 0.45169 0.0
H1343 H 0.14099 0.07337 0.43012 0.0
C1344 C 0.25689 0.8806 0.66739 0.0
C1345 C 0.25195 0.88776 0.69038 0.0
C1346 C 0.24109 0.87827 0.64994 0.0
C1347 C 0.21981 0.88325 0.65555 0.0
C1348 C 0.21465 0.88992 0.67887 0.0
C1349 C 0.23073 0.89202 0.69597 0.0
C1350 C 0.24726 0.87108 0.62527 0.0
C1351 C 0.19221 0.89542 0.68561 0.0
C1352 C 0.18433 0.90053 0.6045 0.0
C1353 C 0.17264 0.88211 0.59976 0.0
C1354 C 0.1995 0.90112 0.62271 0.0
C1355 C 0.2032 0.88284 0.63666 0.0
C1356 C 0.19113 0.86433 0.6324 0.0
C1357 C 0.17596 0.8642 0.61404 0.0
C1358 C 0.2119 0.92122 0.62669 0.0
C1359 C 0.19463 0.84451 0.64684 0.0
H1360 H 0.27322 0.87742 0.6628 0.0
H1361 H 0.22665 0.89714 0.71379 0.0
H1362 H 0.2374 0.85742 0.61974 0.0
H1363 H 0.24433 0.884 0.61232 0.0
H1364 H 0.26417 0.86645 0.62418 0.0
H1365 H 0.19062 0.89932 0.7048 0.0
H1366 H 0.1868 0.90922 0.67503 0.0
H1367 H 0.18149 0.88205 0.6814 0.0
H1368 H 0.18194 0.91448 0.59362 0.0
H1369 H 0.16716 0.84984 0.61045 0.0
H1370 H 0.22895 0.91826 0.62348 0.0
H1371 H 0.21023 0.92649 0.64543 0.0
H1372 H 0.20666 0.93426 0.61482 0.0
H1373 H 0.21102 0.83874 0.64415 0.0
H1374 H 0.18346 0.83167 0.64191 0.0
H1375 H 0.1928 0.84798 0.66608 0.0
C1376 C 0.35606 0.93747 0.8528 0.0
C1377 C 0.37195 0.92205 0.85083 0.0
C1378 C 0.35602 0.9522 0.87146 0.0
C1379 C 0.37215 0.95147 0.8889 0.0
C1380 C 0.38796 0.93561 0.88745 0.0
C1381 C 0.38774 0.92114 0.86837 0.0
C1382 C 0.33897 0.96893 0.87212 0.0
C1383 C 0.40534 0.93421 0.90578 0.0
C1384 C 0.38142 0.00317 0.92207 0.0
C1385 C 0.36929 1.00029 0.94276 0.0
C1386 C 0.38306 0.98718 0.90477 0.0
C1387 C 0.37251 0.96766 0.90827 0.0
C1388 C 0.3609 0.96433 0.92947 0.0
C1389 C 0.35933 0.98067 0.94636 0.0
C1390 C 0.39551 0.99144 0.88235 0.0
C1391 C 0.34943 0.94377 0.93393 0.0
H1392 H 0.34383 0.9385 0.83933 0.0
H1393 H 0.40012 0.90935 0.86701 0.0
H1394 H 0.3305 0.96837 0.88938 0.0
H1395 H 0.34622 0.98485 0.87057 0.0
H1396 H 0.32726 0.96702 0.85755 0.0
H1397 H 0.4159 0.92042 0.90275 0.0
H1398 H 0.41501 0.94884 0.90535 0.0
H1399 H 0.39844 0.93297 0.92387 0.0
H1400 H 0.38952 0.01805 0.91924 0.0
H1401 H 0.34967 0.97827 0.96203 0.0
H1402 H 0.38473 0.99132 0.86675 0.0
H1403 H 0.40739 0.97879 0.87949 0.0
H1404 H 0.40377 0.00694 0.8829 0.0
H1405 H 0.33632 0.94203 0.92095 0.0
H1406 H 0.34275 0.94291 0.95218 0.0
H1407 H 0.36028 0.93018 0.9313 0.0
C1408 C 0.31926 0.8995 0.43304 0.0
C1409 C 0.33331 0.88248 0.43599 0.0
C1410 C 0.3041 0.89957 0.41481 0.0
C1411 C 0.30293 0.88226 0.3989 0.0
C1412 C 0.31735 0.86524 0.40137 0.0
C1413 C 0.33236 0.86553 0.4199 0.0
C1414 C 0.289 0.91802 0.41292 0.0
C1415 C 0.31666 0.84653 0.38472 0.0
C1416 C 0.2503 0.8751 0.36681 0.0
C1417 C 0.25429 0.88481 0.34478 0.0
C1418 C 0.26611 0.8737 0.38437 0.0
C1419 C 0.28648 0.88211 0.37981 0.0
C1420 C 0.29073 0.89157 0.3575 0.0
C1421 C 0.27461 0.89288 0.34034 0.0
C1422 C 0.26091 0.86356 0.40799 0.0
C1423 C 0.31216 0.90086 0.35196 0.0
H1424 H 0.31971 0.91267 0.44536 0.0
H1425 H 0.34303 0.85225 0.42208 0.0
H1426 H 0.28995 0.92516 0.39492 0.0
H1427 H 0.27253 0.91243 0.41545 0.0
H1428 H 0.29233 0.9305 0.42632 0.0
H1429 H 0.32928 0.83481 0.38862 0.0
H1430 H 0.30109 0.83853 0.38614 0.0
H1431 H 0.31838 0.85193 0.36604 0.0
H1432 H 0.23478 0.86856 0.37034 0.0
H1433 H 0.27783 0.90075 0.32361 0.0
H1434 H 0.26248 0.87538 0.42247 0.0
H1435 H 0.27225 0.85061 0.41184 0.0
H1436 H 0.24461 0.85702 0.40842 0.0
H1437 H 0.31533 0.91441 0.36399 0.0
H1438 H 0.31334 0.90646 0.33327 0.0
H1439 H 0.32472 0.88894 0.35514 0.0
C1440 C 0.38059 1.00022 0.61639 0.0
C1441 C 0.37066 0.00406 0.59444 0.0
C1442 C 0.38197 0.0161 0.63386 0.0
C1443 C 0.3733 0.03637 0.6293 0.0
C1444 C 0.36363 0.04047 0.60706 0.0
C1445 C 0.36236 0.02429 0.58999 0.0
C1446 C 0.39235 0.01105 0.65741 0.0
C1447 C 0.35407 0.0618 0.60153 0.0
C1448 C 0.35597 0.06899 0.68261 0.0
C1449 C 0.37286 0.08321 0.6854 0.0
C1450 C 0.35591 0.05384 0.66439 0.0
C1451 C 0.3731 0.05284 0.64833 0.0
C1452 C 0.38998 0.06745 0.65061 0.0
C1453 C 0.38968 0.08245 0.66914 0.0
C1454 C 0.33762 0.03854 0.66269 0.0
C1455 C 0.40855 0.06695 0.63378 0.0
H1456 H 0.38732 0.98477 0.61993 0.0
H1457 H 0.35432 0.02738 0.57331 0.0
H1458 H 0.40517 0.02256 0.66111 0.0
H1459 H 0.38061 0.01252 0.67199 0.0
H1460 H 0.39908 0.99483 0.65783 0.0
H1461 H 0.34835 0.06289 0.58288 0.0
H1462 H 0.34057 0.06485 0.61365 0.0
H1463 H 0.36587 0.0745 0.60458 0.0
H1464 H 0.3429 0.06931 0.69507 0.0
H1465 H 0.40285 0.09327 0.67117 0.0
H1466 H 0.34339 0.02213 0.66522 0.0
H1467 H 0.33034 0.03939 0.64475 0.0
H1468 H 0.3252 0.04177 0.67619 0.0
H1469 H 0.41681 0.05153 0.63527 0.0
H1470 H 0.42008 0.0798 0.63744 0.0
H1471 H 0.40297 0.06846 0.61513 0.0
C1472 C 0.17403 0.13921 0.91986 0.0
C1473 C 0.17296 0.12242 0.93615 0.0
C1474 C 0.18917 0.13931 0.90148 0.0
C1475 C 0.20363 0.12228 0.8994 0.0
C1476 C 0.20239 0.10516 0.91557 0.0
C1477 C 0.18707 0.10541 0.93362 0.0
C1478 C 0.18994 0.15782 0.88454 0.0
C1479 C 0.21754 0.08674 0.91413 0.0
C1480 C 0.23199 0.11126 0.841 0.0
C1481 C 0.25224 0.11956 0.8453 0.0
C1482 C 0.21591 0.11254 0.85818 0.0
C1483 C 0.22013 0.12221 0.88039 0.0
C1484 C 0.24045 0.1308 0.88485 0.0
C1485 C 0.25622 0.12942 0.86725 0.0
C1486 C 0.19453 0.10306 0.85276 0.0
C1487 C 0.24562 0.14116 0.90835 0.0
H1488 H 0.16331 0.15249 0.9217 0.0
H1489 H 0.18656 0.09239 0.94614 0.0
H1490 H 0.2055 0.16583 0.88593 0.0
H1491 H 0.1883 0.15218 0.86593 0.0
H1492 H 0.17729 0.16958 0.88816 0.0
H1493 H 0.2142 0.07445 0.92775 0.0
H1494 H 0.21669 0.07933 0.89626 0.0
H1495 H 0.23399 0.09241 0.91665 0.0
H1496 H 0.22879 0.10326 0.82434 0.0
H1497 H 0.27169 0.13613 0.87069 0.0
H1498 H 0.18192 0.11499 0.85562 0.0
H1499 H 0.19138 0.08971 0.86507 0.0
H1500 H 0.19341 0.09714 0.83419 0.0
H1501 H 0.23431 0.15419 0.91197 0.0
H1502 H 0.26193 0.14765 0.90878 0.0
H1503 H 0.24395 0.12951 0.92299 0.0
C1504 C 0.15159 0.93367 0.18044 0.0
C1505 C 0.13324 0.92197 0.18535 0.0
C1506 C 0.15197 0.94894 0.16231 0.0
C1507 C 0.13352 0.95272 0.14868 0.0
C1508 C 0.11508 0.94062 0.15311 0.0
C1509 C 0.11517 0.92534 0.17135 0.0
C1510 C 0.17202 0.96136 0.15811 0.0
C1511 C 0.09507 0.94422 0.13903 0.0
C1512 C 0.13059 0.00665 0.11851 0.0
C1513 C 0.13732 1.00188 0.09531 0.0
C1514 C 0.12869 0.99072 0.13588 0.0
C1515 C 0.13366 0.9695 0.12997 0.0
C1516 C 0.13995 0.96452 0.10646 0.0
C1517 C 0.14163 0.98072 0.08945 0.0
C1518 C 0.12192 0.9967 0.16076 0.0
C1519 C 0.14542 0.94214 0.09941 0.0
H1520 H 0.16565 0.93123 0.19112 0.0
H1521 H 0.10085 0.91653 0.1751 0.0
H1522 H 0.17699 0.95987 0.13926 0.0
H1523 H 0.16913 0.97838 0.16159 0.0
H1524 H 0.18522 0.95598 0.16967 0.0
H1525 H 0.08231 0.933 0.14405 0.0
H1526 H 0.08933 0.96059 0.14199 0.0
H1527 H 0.09828 0.94255 0.11972 0.0
H1528 H 0.12737 0.02294 0.12329 0.0
H1529 H 0.14641 0.97677 0.07148 0.0
H1530 H 0.13503 0.99362 0.17343 0.0
H1531 H 0.10833 0.98682 0.16643 0.0
H1532 H 0.11736 0.01362 0.16214 0.0
H1533 H 0.15932 0.93665 0.10976 0.0
H1534 H 0.14913 0.94071 0.08016 0.0
H1535 H 0.13211 0.93136 0.10366 0.0
C1536 C 0.73106 0.89306 0.83951 0.0
C1537 C 0.75147 0.88526 0.84409 0.0
C1538 C 0.71491 0.89166 0.8566 0.0
C1539 C 0.71921 0.88237 0.87901 0.0
C1540 C 0.73966 0.8742 0.8837 0.0
C1541 C 0.7555 0.8757 0.8662 0.0
C1542 C 0.69339 0.90068 0.85091 0.0
C1543 C 0.74493 0.86425 0.90741 0.0
C1544 C 0.68629 0.89982 0.93204 0.0
C1545 C 0.67243 0.88268 0.93518 0.0
C1546 C 0.70142 0.89992 0.9138 0.0
C1547 C 0.70275 0.88251 0.89805 0.0
C1548 C 0.68848 0.86537 0.90067 0.0
C1549 C 0.67351 0.86564 0.91922 0.0
C1550 C 0.71632 0.9185 0.91175 0.0
C1551 C 0.68934 0.84656 0.88417 0.0
H1552 H 0.72779 0.90081 0.82271 0.0
H1553 H 0.77109 0.86935 0.86985 0.0
H1554 H 0.68095 0.88867 0.8542 0.0
H1555 H 0.69007 0.91431 0.86278 0.0
H1556 H 0.69217 0.9061 0.83216 0.0
H1557 H 0.76128 0.85785 0.90793 0.0
H1558 H 0.74324 0.87615 0.92179 0.0
H1559 H 0.7337 0.85124 0.91135 0.0
H1560 H 0.68573 0.91307 0.94425 0.0
H1561 H 0.66297 0.85227 0.92152 0.0
H1562 H 0.71531 0.92549 0.89369 0.0
H1563 H 0.73285 0.91309 0.91436 0.0
H1564 H 0.71287 0.93105 0.92503 0.0
H1565 H 0.68774 0.85184 0.86543 0.0
H1566 H 0.67672 0.83484 0.88804 0.0
H1567 H 0.70491 0.83861 0.88583 0.0
C1568 C 0.87465 0.00728 0.61769 0.0
C1569 C 0.86786 1.00243 0.59453 0.0
C1570 C 0.87671 0.99139 0.63509 0.0
C1571 C 0.87183 0.97014 0.62924 0.0
C1572 C 0.8655 0.96508 0.60576 0.0
C1573 C 0.86367 0.98123 0.58872 0.0
C1574 C 0.88353 0.99745 0.65993 0.0
C1575 C 0.86011 0.94265 0.59878 0.0
C1576 C 0.89055 0.92624 0.67087 0.0
C1577 C 0.87252 0.92292 0.68494 0.0
C1578 C 0.89054 0.9414 0.65251 0.0
C1579 C 0.87205 0.95342 0.64802 0.0
C1580 C 0.85364 0.94966 0.66169 0.0
C1581 C 0.85411 0.93452 0.67995 0.0
C1582 C 0.91051 0.94498 0.63838 0.0
C1583 C 0.83353 0.96199 0.65742 0.0
H1584 H 0.87778 0.02359 0.62243 0.0
H1585 H 0.85883 0.97723 0.57078 0.0
H1586 H 0.87046 0.99439 0.67263 0.0
H1587 H 0.89716 0.98761 0.66561 0.0
H1588 H 0.88806 0.01438 0.66124 0.0
H1589 H 0.85643 0.94116 0.57953 0.0
H1590 H 0.87346 0.93193 0.6031 0.0
H1591 H 0.84622 0.93716 0.60913 0.0
H1592 H 0.9049 0.91751 0.67469 0.0
H1593 H 0.84008 0.9321 0.69067 0.0
H1594 H 0.91625 0.96136 0.64129 0.0
H1595 H 0.90725 0.94327 0.61908 0.0
H1596 H 0.92329 0.93378 0.64341 0.0
H1597 H 0.83636 0.97904 0.66083 0.0
H1598 H 0.82036 0.95661 0.669 0.0
H1599 H 0.82856 0.96041 0.63857 0.0
C1600 C 0.74928 0.12991 0.36684 0.0
C1601 C 0.75337 0.12064 0.3446 0.0
C1602 C 0.76515 0.13136 0.38434 0.0
C1603 C 0.78566 0.12342 0.3795 0.0
C1604 C 0.78999 0.11438 0.35699 0.0
C1605 C 0.77382 0.11303 0.3399 0.0
C1606 C 0.75986 0.14103 0.40817 0.0
C1607 C 0.81158 0.10561 0.35115 0.0
C1608 C 0.83141 0.14041 0.41956 0.0
C1609 C 0.83281 0.12327 0.43535 0.0
C1610 C 0.8163 0.14064 0.40113 0.0
C1611 C 0.80222 0.12335 0.39847 0.0
C1612 C 0.80386 0.10585 0.41407 0.0
C1613 C 0.81911 0.106 0.43219 0.0
C1614 C 0.8151 0.15956 0.38482 0.0
C1615 C 0.78915 0.08711 0.41196 0.0
H1616 H 0.73366 0.13609 0.37059 0.0
H1617 H 0.77712 0.10549 0.32299 0.0
H1618 H 0.76179 0.12904 0.42243 0.0
H1619 H 0.77093 0.15417 0.41218 0.0
H1620 H 0.74342 0.14721 0.40884 0.0
H1621 H 0.81277 0.10027 0.33236 0.0
H1622 H 0.8239 0.11775 0.35443 0.0
H1623 H 0.81511 0.09198 0.36294 0.0
H1624 H 0.84179 0.15389 0.42189 0.0
H1625 H 0.81992 0.09267 0.44429 0.0
H1626 H 0.79939 0.16722 0.38651 0.0
H1627 H 0.8168 0.15445 0.36603 0.0
H1628 H 0.82752 0.17147 0.38881 0.0
H1629 H 0.77258 0.09231 0.4147 0.0
H1630 H 0.79283 0.07452 0.42511 0.0
H1631 H 0.79015 0.08025 0.39383 0.0
C1632 C 0.6423 0.0244 0.08922 0.0
C1633 C 0.63809 0.00317 0.09485 0.0
C1634 C 0.64033 0.04046 0.10634 0.0
C1635 C 0.63383 0.03525 0.12971 0.0
C1636 C 0.62894 0.01396 0.13538 0.0
C1637 C 0.63114 0.99818 0.1179 0.0
C1638 C 0.64574 0.06293 0.09957 0.0
C1639 C 0.62193 0.00777 0.16011 0.0
C1640 C 0.65103 0.07081 0.18067 0.0
C1641 C 0.63256 0.08238 0.18543 0.0
C1642 C 0.65168 0.05566 0.16245 0.0
C1643 C 0.6334 0.05187 0.14856 0.0
C1644 C 0.61483 0.06383 0.15284 0.0
C1645 C 0.61464 0.07898 0.17118 0.0
C1646 C 0.67185 0.04338 0.15841 0.0
C1647 C 0.595 0.06021 0.13845 0.0
H1648 H 0.64725 0.02851 0.07135 0.0
H1649 H 0.628 0.98184 0.1225 0.0
H1650 H 0.63233 0.0736 0.10376 0.0
H1651 H 0.65951 0.06841 0.11014 0.0
H1652 H 0.64962 0.06452 0.08038 0.0
H1653 H 0.61745 0.99081 0.16127 0.0
H1654 H 0.63488 0.01082 0.17298 0.0
H1655 H 0.60822 0.01753 0.16567 0.0
H1656 H 0.66498 0.07328 0.19154 0.0
H1657 H 0.60024 0.0877 0.1748 0.0
H1658 H 0.67703 0.04506 0.13965 0.0
H1659 H 0.66901 0.02631 0.16167 0.0
H1660 H 0.68489 0.04872 0.17022 0.0
H1661 H 0.59841 0.06206 0.1192 0.0
H1662 H 0.58211 0.0713 0.14341 0.0
H1663 H 0.58934 0.04378 0.14118 0.0
C1664 C 0.75646 0.12493 0.66691 0.0
C1665 C 0.7516 0.11846 0.69018 0.0
C1666 C 0.7406 0.12675 0.64944 0.0
C1667 C 0.71934 0.12197 0.65533 0.0
C1668 C 0.71426 0.11594 0.6789 0.0
C1669 C 0.73039 0.11433 0.696 0.0
C1670 C 0.74669 0.13325 0.6245 0.0
C1671 C 0.69183 0.11066 0.68592 0.0
C1672 C 0.67549 0.14032 0.61342 0.0
C1673 C 0.67209 0.12213 0.59962 0.0
C1674 C 0.69066 0.14049 0.63178 0.0
C1675 C 0.70263 0.12201 0.63653 0.0
C1676 C 0.6988 0.10345 0.62312 0.0
C1677 C 0.68364 0.10375 0.60488 0.0
C1678 C 0.69429 0.16062 0.64563 0.0
C1679 C 0.71108 0.08336 0.62768 0.0
H1680 H 0.77278 0.128 0.66215 0.0
H1681 H 0.72637 0.10975 0.71402 0.0
H1682 H 0.74358 0.12003 0.612 0.0
H1683 H 0.7369 0.14684 0.61861 0.0
H1684 H 0.76363 0.13771 0.62314 0.0
H1685 H 0.69033 0.10717 0.70522 0.0
H1686 H 0.68115 0.124 0.68144 0.0
H1687 H 0.68631 0.09668 0.67574 0.0
H1688 H 0.66679 0.15466 0.60943 0.0
H1689 H 0.68117 0.08959 0.59437 0.0
H1690 H 0.71065 0.16633 0.64255 0.0
H1691 H 0.69266 0.15757 0.66498 0.0
H1692 H 0.68307 0.17334 0.64049 0.0
H1693 H 0.72813 0.0861 0.62425 0.0
H1694 H 0.70567 0.07006 0.61627 0.0
H1695 H 0.70948 0.07859 0.64659 0.0
C1696 C 0.63145 0.0056 0.417 0.0
C1697 C 0.63813 1.0008 0.44021 0.0
C1698 C 0.62927 0.98966 0.39968 0.0
C1699 C 0.63391 0.96838 0.40566 0.0
C1700 C 0.64012 0.96336 0.4292 0.0
C1701 C 0.64208 0.97957 0.44615 0.0
C1702 C 0.6226 0.99568 0.37477 0.0
C1703 C 0.64525 0.94091 0.43633 0.0
C1704 C 0.61494 0.92447 0.36418 0.0
C1705 C 0.63301 0.92085 0.35026 0.0
C1706 C 0.61501 0.93972 0.38244 0.0
C1707 C 0.63361 0.95157 0.38697 0.0
C1708 C 0.65204 0.94753 0.37344 0.0
C1709 C 0.65151 0.93228 0.35531 0.0
C1710 C 0.59502 0.94359 0.39643 0.0
C1711 C 0.67225 0.95968 0.37774 0.0
H1712 H 0.6285 0.02193 0.41214 0.0
H1713 H 0.64683 0.9756 0.46413 0.0
H1714 H 0.6357 0.99245 0.36216 0.0
H1715 H 0.60891 0.98595 0.36907 0.0
H1716 H 0.61823 0.01266 0.37335 0.0
H1717 H 0.64883 0.93946 0.45562 0.0
H1718 H 0.63182 0.93031 0.432 0.0
H1719 H 0.65913 0.93522 0.4261 0.0
H1720 H 0.60051 0.91587 0.36033 0.0
H1721 H 0.66558 0.92965 0.34471 0.0
H1722 H 0.58946 0.96001 0.39338 0.0
H1723 H 0.59817 0.94192 0.41576 0.0
H1724 H 0.58214 0.9325 0.39139 0.0
H1725 H 0.66959 0.97674 0.37423 0.0
H1726 H 0.68541 0.95413 0.36625 0.0
H1727 H 0.67714 0.95813 0.39662 0.0
C1728 C 0.82962 0.8653 0.11367 0.0
C1729 C 0.83298 0.88351 0.09989 0.0
C1730 C 0.81439 0.86506 0.13195 0.0
C1731 C 0.80233 0.88349 0.13666 0.0
C1732 C 0.80611 0.90206 0.12324 0.0
C1733 C 0.82131 0.90183 0.10507 0.0
C1734 C 0.8108 0.84493 0.1458 0.0
C1735 C 0.79375 0.92211 0.12775 0.0
C1736 C 0.74851 0.88049 0.16702 0.0
C1737 C 0.75338 0.887 0.19027 0.0
C1738 C 0.76437 0.87866 0.14956 0.0
C1739 C 0.78563 0.88349 0.15545 0.0
C1740 C 0.7907 0.88955 0.17901 0.0
C1741 C 0.77458 0.89116 0.1961 0.0
C1742 C 0.75829 0.87212 0.12463 0.0
C1743 C 0.81313 0.89488 0.18605 0.0
H1744 H 0.83841 0.85101 0.10974 0.0
H1745 H 0.82375 0.91601 0.09457 0.0
H1746 H 0.81246 0.84796 0.16515 0.0
H1747 H 0.79445 0.83919 0.14274 0.0
H1748 H 0.82204 0.83222 0.14064 0.0
H1749 H 0.79909 0.93541 0.11632 0.0
H1750 H 0.77671 0.91929 0.12433 0.0
H1751 H 0.79534 0.92691 0.14665 0.0
H1752 H 0.7322 0.87738 0.16224 0.0
H1753 H 0.7786 0.89577 0.21411 0.0
H1754 H 0.76813 0.85857 0.11875 0.0
H1755 H 0.76132 0.88535 0.11211 0.0
H1756 H 0.74136 0.86759 0.12327 0.0
H1757 H 0.82384 0.88158 0.18157 0.0
H1758 H 0.81463 0.89838 0.20534 0.0
H1759 H 0.81861 0.90888 0.17586 0.0
C1760 C 0.88923 0.08336 0.86589 0.0
C1761 C 0.87224 0.08444 0.84986 0.0
C1762 C 0.88946 0.06834 0.88441 0.0
C1763 C 0.87236 0.05402 0.8869 0.0
C1764 C 0.85503 0.05532 0.87104 0.0
C1765 C 0.85515 0.0705 0.85283 0.0
C1766 C 0.9082 0.06751 0.90103 0.0
C1767 C 0.8365 0.04034 0.87295 0.0
C1768 C 0.87935 1.00139 0.91905 0.0
C1769 C 0.86974 0.00547 0.94111 0.0
C1770 C 0.88075 0.01716 0.90144 0.0
C1771 C 0.87244 0.03758 0.90599 0.0
C1772 C 0.86307 0.04192 0.92833 0.0
C1773 C 0.86176 0.02584 0.94552 0.0
C1774 C 0.89078 0.01186 0.8778 0.0
C1775 C 0.8539 0.06342 0.93386 0.0
H1776 H 0.90256 0.09394 0.86371 0.0
H1777 H 0.84196 0.07105 0.84054 0.0
H1778 H 0.90284 0.06928 0.91972 0.0
H1779 H 0.91608 0.05189 0.89959 0.0
H1780 H 0.91999 0.08006 0.89711 0.0
H1781 H 0.82403 0.04373 0.85955 0.0
H1782 H 0.84198 0.02382 0.87043 0.0
H1783 H 0.82938 0.04135 0.89095 0.0
H1784 H 0.88582 0.98583 0.91553 0.0
H1785 H 0.85397 0.02913 0.96228 0.0
H1786 H 0.9038 0.02309 0.87392 0.0
H1787 H 0.87895 0.01354 0.86334 0.0
H1788 H 0.89719 0.9955 0.87736 0.0
H1789 H 0.86589 0.07591 0.93068 0.0
H1790 H 0.84832 0.06464 0.95254 0.0
H1791 H 0.84038 0.06667 0.92182 0.0
C1792 C 0.74882 0.62559 0.66604 0.0
C1793 C 0.75358 0.61701 0.68847 0.0
C1794 C 0.76432 0.62709 0.64817 0.0
C1795 C 0.78516 0.61995 0.65283 0.0
C1796 C 0.7901 0.61137 0.67542 0.0
C1797 C 0.77428 0.60992 0.69287 0.0
C1798 C 0.75839 0.63624 0.62425 0.0
C1799 C 0.81208 0.60351 0.68109 0.0
C1800 C 0.81992 0.60512 0.60016 0.0
C1801 C 0.83241 0.62331 0.59733 0.0
C1802 C 0.80459 0.60381 0.61817 0.0
C1803 C 0.80171 0.62103 0.63393 0.0
C1804 C 0.81458 0.63925 0.63156 0.0
C1805 C 0.82971 0.64021 0.61325 0.0
C1806 C 0.7911 0.58416 0.61994 0.0
C1807 C 0.8121 0.65789 0.6481 0.0
H1808 H 0.73299 0.63135 0.6625 0.0
H1809 H 0.77808 0.60287 0.70991 0.0
H1810 H 0.76838 0.65024 0.62033 0.0
H1811 H 0.76138 0.62445 0.61002 0.0
H1812 H 0.74152 0.64108 0.62343 0.0
H1813 H 0.81352 0.59784 0.69973 0.0
H1814 H 0.81632 0.59036 0.66893 0.0
H1815 H 0.82377 0.61634 0.6782 0.0
H1816 H 0.82165 0.59205 0.58784 0.0
H1817 H 0.83919 0.65437 0.6112 0.0
H1818 H 0.77425 0.58832 0.61704 0.0
H1819 H 0.79237 0.57724 0.63802 0.0
H1820 H 0.79569 0.57193 0.60671 0.0
H1821 H 0.79591 0.6645 0.64647 0.0
H1822 H 0.82368 0.67066 0.64428 0.0
H1823 H 0.81415 0.65272 0.66682 0.0
C1824 C 0.6179 0.57742 0.86471 0.0
C1825 C 0.6359 0.58202 0.85107 0.0
C1826 C 0.61844 0.56173 0.8825 0.0
C1827 C 0.63744 0.55045 0.88682 0.0
C1828 C 0.6558 0.55555 0.87365 0.0
C1829 C 0.65481 0.57122 0.85599 0.0
C1830 C 0.59851 0.55674 0.89614 0.0
C1831 C 0.67643 0.54406 0.87775 0.0
C1832 C 0.64581 0.52083 0.94504 0.0
C1833 C 0.64231 0.49973 0.93827 0.0
C1834 C 0.64389 0.53749 0.92863 0.0
C1835 C 0.63819 0.53306 0.90479 0.0
C1836 C 0.63424 0.51186 0.89787 0.0
C1837 C 0.63638 0.49547 0.91466 0.0
C1838 C 0.64829 0.55983 0.93673 0.0
C1839 C 0.62815 0.50645 0.8726 0.0
H1840 H 0.60318 0.58554 0.86096 0.0
H1841 H 0.66884 0.57464 0.84563 0.0
H1842 H 0.59347 0.54029 0.89224 0.0
H1843 H 0.6015 0.55774 0.91555 0.0
H1844 H 0.58533 0.56763 0.89154 0.0
H1845 H 0.68949 0.55052 0.86673 0.0
H1846 H 0.68104 0.54512 0.89676 0.0
H1847 H 0.67449 0.52704 0.87345 0.0
H1848 H 0.64995 0.5244 0.96332 0.0
H1849 H 0.63379 0.47925 0.90915 0.0
H1850 H 0.63446 0.57009 0.93293 0.0
H1851 H 0.66191 0.56637 0.9267 0.0
H1852 H 0.6519 0.56073 0.95605 0.0
H1853 H 0.61408 0.51575 0.86714 0.0
H1854 H 0.62458 0.48937 0.87033 0.0
H1855 H 0.64121 0.51074 0.86035 0.0
C1856 C 0.69235 0.39324 0.0977 0.0
C1857 C 0.67593 0.37827 0.09737 0.0
C1858 C 0.70712 0.39392 0.11631 0.0
C1859 C 0.70557 0.37927 0.13526 0.0
C1860 C 0.68915 0.36399 0.13505 0.0
C1861 C 0.67451 0.36366 0.11611 0.0
C1862 C 0.72438 0.41043 0.11567 0.0
C1863 C 0.68707 0.34798 0.15482 0.0
C1864 C 0.7558 0.37286 0.17217 0.0
C1865 C 0.75185 0.38641 0.19148 0.0
C1866 C 0.74058 0.36972 0.15421 0.0
C1867 C 0.72094 0.38046 0.15545 0.0
C1868 C 0.71666 0.39372 0.17517 0.0
C1869 C 0.73207 0.39644 0.19293 0.0
C1870 C 0.74577 0.35542 0.13352 0.0
C1871 C 0.69601 0.40558 0.17715 0.0
H1872 H 0.69385 0.4045 0.08325 0.0
H1873 H 0.66203 0.35192 0.11595 0.0
H1874 H 0.72331 0.42068 0.13165 0.0
H1875 H 0.74011 0.40267 0.11605 0.0
H1876 H 0.72348 0.42058 0.09956 0.0
H1877 H 0.67375 0.33685 0.15182 0.0
H1878 H 0.70192 0.33874 0.15648 0.0
H1879 H 0.68455 0.35621 0.17202 0.0
H1880 H 0.77104 0.36514 0.1707 0.0
H1881 H 0.72862 0.40658 0.20798 0.0
H1882 H 0.74632 0.3648 0.11686 0.0
H1883 H 0.73323 0.34332 0.13129 0.0
H1884 H 0.76121 0.34727 0.13581 0.0
H1885 H 0.69464 0.41704 0.16227 0.0
H1886 H 0.69463 0.41436 0.1942 0.0
H1887 H 0.68251 0.39447 0.17567 0.0
C1888 C 0.87587 0.50517 0.42393 0.0
C1889 C 0.87083 0.49961 0.44746 0.0
C1890 C 0.87702 0.48981 0.40583 0.0
C1891 C 0.87287 0.46832 0.41125 0.0
C1892 C 0.86818 0.46252 0.435 0.0
C1893 C 0.86733 0.47816 0.45278 0.0
C1894 C 0.8822 0.49668 0.38076 0.0
C1895 C 0.86356 0.43983 0.44156 0.0
C1896 C 0.8536 0.43391 0.35999 0.0
C1897 C 0.87201 0.42295 0.35348 0.0
C1898 C 0.85358 0.44831 0.37904 0.0
C1899 C 0.87249 0.45209 0.39187 0.0
C1900 C 0.89102 0.44071 0.38578 0.0
C1901 C 0.89054 0.42621 0.36676 0.0
C1902 C 0.83338 0.45986 0.38508 0.0
C1903 C 0.91156 0.44437 0.39885 0.0
H1904 H 0.87835 0.52165 0.41944 0.0
H1905 H 0.86382 0.47356 0.47092 0.0
H1906 H 0.8957 0.48736 0.37378 0.0
H1907 H 0.86849 0.4936 0.36893 0.0
H1908 H 0.88623 0.51376 0.37969 0.0
H1909 H 0.86082 0.43778 0.46095 0.0
H1910 H 0.84931 0.4343 0.43186 0.0
H1911 H 0.87689 0.42951 0.43613 0.0
H1912 H 0.83918 0.43151 0.34992 0.0
H1913 H 0.90491 0.41797 0.36182 0.0
H1914 H 0.8355 0.47708 0.38209 0.0
H1915 H 0.8295 0.45764 0.40417 0.0
H1916 H 0.81977 0.45436 0.37422 0.0
H1917 H 0.91681 0.46094 0.39613 0.0
H1918 H 0.92431 0.43358 0.39272 0.0
H1919 H 0.90927 0.4421 0.41825 0.0
C1920 C 0.77358 0.39141 0.83993 0.0
C1921 C 0.75315 0.3837 0.84459 0.0
C1922 C 0.78961 0.39053 0.85723 0.0
C1923 C 0.78519 0.38186 0.87992 0.0
C1924 C 0.76473 0.37376 0.88467 0.0
C1925 C 0.74899 0.37478 0.86699 0.0
C1926 C 0.81117 0.39939 0.85143 0.0
C1927 C 0.75924 0.36455 0.90867 0.0
C1928 C 0.83066 0.36572 0.92087 0.0
C1929 C 0.83181 0.38308 0.93639 0.0
C1930 C 0.81575 0.36517 0.90224 0.0
C1931 C 0.80161 0.38235 0.89906 0.0
C1932 C 0.803 0.40006 0.91438 0.0
C1933 C 0.81806 0.40024 0.93274 0.0
C1934 C 0.81478 0.34599 0.8863 0.0
C1935 C 0.78822 0.41869 0.91173 0.0
H1936 H 0.77695 0.39867 0.82288 0.0
H1937 H 0.73339 0.36853 0.87074 0.0
H1938 H 0.8145 0.41321 0.86299 0.0
H1939 H 0.82357 0.38739 0.85505 0.0
H1940 H 0.81245 0.40446 0.83255 0.0
H1941 H 0.74359 0.35658 0.90861 0.0
H1942 H 0.77144 0.353 0.9144 0.0
H1943 H 0.75887 0.37739 0.9221 0.0
H1944 H 0.84107 0.35232 0.92357 0.0
H1945 H 0.81868 0.41372 0.94462 0.0
H1946 H 0.81658 0.35081 0.86743 0.0
H1947 H 0.7991 0.33827 0.88803 0.0
H1948 H 0.82723 0.3342 0.89065 0.0
H1949 H 0.78922 0.42519 0.89344 0.0
H1950 H 0.79181 0.43156 0.92458 0.0
H1951 H 0.77167 0.41347 0.91457 0.0
C1952 C 0.88667 0.58388 0.16891 0.0
C1953 C 0.86989 0.58462 0.18522 0.0
C1954 C 0.88697 0.56885 0.15042 0.0
C1955 C 0.87012 0.5542 0.14822 0.0
C1956 C 0.85296 0.55517 0.16433 0.0
C1957 C 0.85303 0.57035 0.18253 0.0
C1958 C 0.90552 0.56836 0.13355 0.0
C1959 C 0.8347 0.53984 0.16269 0.0
C1960 C 0.85985 0.52584 0.08965 0.0
C1961 C 0.86843 0.50569 0.09397 0.0
C1962 C 0.86076 0.54188 0.1069 0.0
C1963 C 0.87034 0.53774 0.12918 0.0
C1964 C 0.87918 0.51753 0.13366 0.0
C1965 C 0.87815 0.50178 0.116 0.0
C1966 C 0.85101 0.56315 0.10147 0.0
C1967 C 0.88948 0.51245 0.15723 0.0
H1968 H 0.89983 0.59472 0.17087 0.0
H1969 H 0.84 0.57066 0.19504 0.0
H1970 H 0.91372 0.5529 0.13491 0.0
H1971 H 0.89991 0.57 0.11493 0.0
H1972 H 0.91711 0.58114 0.13728 0.0
H1973 H 0.82231 0.54305 0.17621 0.0
H1974 H 0.8274 0.54065 0.14476 0.0
H1975 H 0.84052 0.52344 0.16523 0.0
H1976 H 0.85197 0.52897 0.07289 0.0
H1977 H 0.88506 0.48639 0.11945 0.0
H1978 H 0.86277 0.57591 0.10438 0.0
H1979 H 0.83761 0.56613 0.11374 0.0
H1980 H 0.84512 0.5642 0.08288 0.0
H1981 H 0.90234 0.52391 0.16096 0.0
H1982 H 0.89617 0.49621 0.15768 0.0
H1983 H 0.87773 0.51396 0.17179 0.0
C1984 C 0.72917 0.61197 0.34092 0.0
C1985 C 0.7494 0.62016 0.34559 0.0
C1986 C 0.71297 0.61291 0.35799 0.0
C1987 C 0.71702 0.62214 0.38048 0.0
C1988 C 0.73731 0.63065 0.3853 0.0
C1989 C 0.75321 0.62961 0.36782 0.0
C1990 C 0.69163 0.60352 0.35216 0.0
C1991 C 0.74231 0.64058 0.4091 0.0
C1992 C 0.6708 0.63835 0.42024 0.0
C1993 C 0.6698 0.62133 0.43625 0.0
C1994 C 0.68591 0.63877 0.40184 0.0
C1995 C 0.70041 0.6218 0.39939 0.0
C1996 C 0.69916 0.6044 0.41518 0.0
C1997 C 0.68389 0.60435 0.43329 0.0
C1998 C 0.68668 0.65759 0.38534 0.0
C1999 C 0.71433 0.58601 0.41335 0.0
H2000 H 0.72608 0.60429 0.32404 0.0
H2001 H 0.76865 0.63624 0.37156 0.0
H2002 H 0.68844 0.58991 0.36409 0.0
H2003 H 0.67899 0.61536 0.35526 0.0
H2004 H 0.69063 0.59799 0.33343 0.0
H2005 H 0.75862 0.64708 0.40981 0.0
H2006 H 0.73096 0.65351 0.41294 0.0
H2007 H 0.74057 0.62864 0.42343 0.0
H2008 H 0.66013 0.65163 0.42242 0.0
H2009 H 0.68341 0.59115 0.44558 0.0
H2010 H 0.68514 0.6523 0.3666 0.0
H2011 H 0.7022 0.66563 0.38702 0.0
H2012 H 0.67398 0.66924 0.38918 0.0
H2013 H 0.71369 0.57907 0.39523 0.0
H2014 H 0.71083 0.57339 0.42651 0.0
H2015 H 0.73074 0.59162 0.4163 0.0
C2016 C 0.6138 0.42156 0.67019 0.0
C2017 C 0.63099 0.4204 0.68597 0.0
C2018 C 0.61339 0.43658 0.65168 0.0
C2019 C 0.63052 0.45083 0.64889 0.0
C2020 C 0.64809 0.44939 0.6644 0.0
C2021 C 0.64813 0.43421 0.68263 0.0
C2022 C 0.59439 0.43755 0.63545 0.0
C2023 C 0.66668 0.46426 0.66216 0.0
C2024 C 0.63996 0.47954 0.59027 0.0
C2025 C 0.63212 0.4999 0.59512 0.0
C2026 C 0.639 0.46331 0.60733 0.0
C2027 C 0.63013 0.46746 0.62997 0.0
C2028 C 0.62196 0.48786 0.63495 0.0
C2029 C 0.62302 0.50379 0.61749 0.0
C2030 C 0.64801 0.44185 0.60132 0.0
C2031 C 0.61243 0.49297 0.65891 0.0
H2032 H 0.60043 0.41107 0.67264 0.0
H2033 H 0.66149 0.4336 0.69471 0.0
H2034 H 0.58646 0.45311 0.63737 0.0
H2035 H 0.59945 0.43611 0.61662 0.0
H2036 H 0.58273 0.42488 0.63937 0.0
H2037 H 0.67943 0.46061 0.67512 0.0
H2038 H 0.67335 0.46344 0.64393 0.0
H2039 H 0.66137 0.48078 0.66512 0.0
H2040 H 0.64737 0.47638 0.57326 0.0
H2041 H 0.61667 0.51933 0.62137 0.0
H2042 H 0.63606 0.42935 0.60465 0.0
H2043 H 0.66176 0.43846 0.61298 0.0
H2044 H 0.65322 0.44079 0.58248 0.0
H2045 H 0.59946 0.48174 0.66299 0.0
H2046 H 0.60609 0.50934 0.65971 0.0
H2047 H 0.62456 0.49113 0.67304 0.0
C2048 C 0.18228 0.40196 0.42959 0.0
C2049 C 0.17121 0.38334 0.43503 0.0
C2050 C 0.19743 0.40245 0.41137 0.0
C2051 C 0.20175 0.38385 0.39823 0.0
C2052 C 0.19024 0.36513 0.40316 0.0
C2053 C 0.17504 0.36511 0.42146 0.0
C2054 C 0.20918 0.42281 0.40656 0.0
C2055 C 0.19444 0.34494 0.38963 0.0
C2056 C 0.22967 0.3916 0.33896 0.0
C2057 C 0.25093 0.38816 0.34508 0.0
C2058 C 0.21347 0.38971 0.3559 0.0
C2059 C 0.21855 0.38408 0.3796 0.0
C2060 C 0.23988 0.37993 0.38578 0.0
C2061 C 0.25581 0.38204 0.36847 0.0
C2062 C 0.19095 0.39431 0.34858 0.0
C2063 C 0.24596 0.37385 0.41086 0.0
H2064 H 0.17944 0.41615 0.43993 0.0
H2065 H 0.16672 0.3506 0.42564 0.0
H2066 H 0.22628 0.42056 0.41017 0.0
H2067 H 0.20756 0.42728 0.38756 0.0
H2068 H 0.20335 0.4361 0.4177 0.0
H2069 H 0.18352 0.332 0.39488 0.0
H2070 H 0.19282 0.34773 0.37022 0.0
H2071 H 0.21092 0.33968 0.39288 0.0
H2072 H 0.22566 0.39591 0.32085 0.0
H2073 H 0.27217 0.3795 0.37345 0.0
H2074 H 0.18501 0.40829 0.35846 0.0
H2075 H 0.18058 0.38078 0.35322 0.0
H2076 H 0.18949 0.39749 0.32921 0.0
H2077 H 0.24246 0.38713 0.42315 0.0
H2078 H 0.26299 0.36981 0.41244 0.0
H2079 H 0.23646 0.36009 0.41685 0.0
C2080 C 0.35588 0.43683 0.18394 0.0
C2081 C 0.37304 0.42303 0.18729 0.0
C2082 C 0.35585 0.45192 0.16565 0.0
C2083 C 0.37335 0.45328 0.15005 0.0
C2084 C 0.39054 0.43911 0.15292 0.0
C2085 C 0.39021 0.42417 0.17153 0.0
C2086 C 0.33722 0.46675 0.16335 0.0
C2087 C 0.40946 0.44 0.13659 0.0
C2088 C 0.3629 0.48116 0.09118 0.0
C2089 C 0.37055 0.50165 0.09563 0.0
C2090 C 0.36434 0.46513 0.10843 0.0
C2091 C 0.37349 0.46963 0.13085 0.0
C2092 C 0.38152 0.49016 0.1354 0.0
C2093 C 0.38 0.50589 0.11775 0.0
C2094 C 0.35549 0.4435 0.10287 0.0
C2095 C 0.39131 0.49564 0.15913 0.0
H2096 H 0.34254 0.43623 0.19601 0.0
H2097 H 0.40361 0.4137 0.17401 0.0
H2098 H 0.34254 0.48332 0.16583 0.0
H2099 H 0.3303 0.46557 0.14526 0.0
H2100 H 0.32464 0.46334 0.1766 0.0
H2101 H 0.42129 0.42755 0.14076 0.0
H2102 H 0.40432 0.43812 0.11783 0.0
H2103 H 0.41721 0.45568 0.13807 0.0
H2104 H 0.35523 0.47774 0.07438 0.0
H2105 H 0.38623 0.52153 0.1213 0.0
H2106 H 0.34182 0.44019 0.11466 0.0
H2107 H 0.36755 0.43115 0.10637 0.0
H2108 H 0.35018 0.44212 0.08409 0.0
H2109 H 0.37935 0.49399 0.17345 0.0
H2110 H 0.39762 0.51204 0.15954 0.0
H2111 H 0.40436 0.4845 0.16326 0.0
C2112 C 0.25225 0.6316 0.86338 0.0
C2113 C 0.25507 0.61933 0.84278 0.0
C2114 C 0.26815 0.63305 0.88081 0.0
C2115 C 0.28751 0.62217 0.87753 0.0
C2116 C 0.29076 0.61036 0.85644 0.0
C2117 C 0.27451 0.60899 0.83943 0.0
C2118 C 0.26397 0.64572 0.90311 0.0
C2119 C 0.31115 0.59853 0.85223 0.0
C2120 C 0.33419 0.63722 0.91721 0.0
C2121 C 0.33313 0.62161 0.93494 0.0
C2122 C 0.3197 0.63744 0.89816 0.0
C2123 C 0.30366 0.62181 0.89693 0.0
C2124 C 0.30275 0.60586 0.91457 0.0
C2125 C 0.31751 0.60589 0.93321 0.0
C2126 C 0.32128 0.65462 0.87961 0.0
C2127 C 0.28581 0.58902 0.91414 0.0
H2128 H 0.23749 0.63998 0.86602 0.0
H2129 H 0.27685 0.5992 0.82383 0.0
H2130 H 0.26398 0.63507 0.91881 0.0
H2131 H 0.27672 0.65751 0.90587 0.0
H2132 H 0.24856 0.65414 0.90244 0.0
H2133 H 0.31194 0.59158 0.8341 0.0
H2134 H 0.32488 0.60922 0.85471 0.0
H2135 H 0.31269 0.58557 0.86543 0.0
H2136 H 0.34613 0.64946 0.9184 0.0
H2137 H 0.31636 0.59383 0.94684 0.0
H2138 H 0.30674 0.66444 0.87987 0.0
H2139 H 0.3225 0.64752 0.86162 0.0
H2140 H 0.33515 0.66509 0.88255 0.0
H2141 H 0.26999 0.5965 0.91562 0.0
H2142 H 0.2876 0.57742 0.92885 0.0
H2143 H 0.28623 0.58037 0.89698 0.0
C2144 C 0.14976 0.57002 0.68351 0.0
C2145 C 0.13204 0.58317 0.68647 0.0
C2146 C 0.1505 0.55472 0.66542 0.0
C2147 C 0.13318 0.55253 0.64966 0.0
C2148 C 0.11548 0.56611 0.65208 0.0
C2149 C 0.11509 0.58122 0.67048 0.0
C2150 C 0.16963 0.5405 0.6636 0.0
C2151 C 0.09674 0.56436 0.63556 0.0
C2152 C 0.14385 0.52422 0.5911 0.0
C2153 C 0.13637 0.50371 0.59576 0.0
C2154 C 0.1425 0.54033 0.60826 0.0
C2155 C 0.13361 0.53587 0.63082 0.0
C2156 C 0.12594 0.51526 0.63567 0.0
C2157 C 0.12735 0.49947 0.61809 0.0
C2158 C 0.15097 0.56204 0.60239 0.0
C2159 C 0.11643 0.50982 0.65956 0.0
H2160 H 0.16291 0.57117 0.69581 0.0
H2161 H 0.10128 0.59119 0.67262 0.0
H2162 H 0.16487 0.52383 0.66664 0.0
H2163 H 0.17649 0.54143 0.64547 0.0
H2164 H 0.18208 0.5447 0.67672 0.0
H2165 H 0.0845 0.57651 0.6393 0.0
H2166 H 0.10197 0.56606 0.61681 0.0
H2167 H 0.08945 0.54848 0.63732 0.0
H2168 H 0.15121 0.52765 0.57413 0.0
H2169 H 0.12128 0.48379 0.62183 0.0
H2170 H 0.16438 0.56589 0.61437 0.0
H2171 H 0.13856 0.57416 0.60539 0.0
H2172 H 0.1565 0.56323 0.58369 0.0
H2173 H 0.12831 0.51228 0.67382 0.0
H2174 H 0.11082 0.49319 0.6604 0.0
H2175 H 0.10292 0.52048 0.66341 0.0
C2176 C 0.17472 0.63951 0.11417 0.0
C2177 C 0.17172 0.62161 0.09978 0.0
C2178 C 0.18993 0.63956 0.13248 0.0
C2179 C 0.20237 0.62126 0.13657 0.0
C2180 C 0.199 0.603 0.12251 0.0
C2181 C 0.18377 0.6034 0.10435 0.0
C2182 C 0.19308 0.65937 0.14705 0.0
C2183 C 0.21179 0.58311 0.12633 0.0
C2184 C 0.25604 0.6245 0.16725 0.0
C2185 C 0.25127 0.6172 0.19023 0.0
C2186 C 0.24018 0.62652 0.1498 0.0
C2187 C 0.21903 0.62107 0.15542 0.0
C2188 C 0.21403 0.61422 0.17872 0.0
C2189 C 0.23015 0.61244 0.19581 0.0
C2190 C 0.24617 0.63391 0.12516 0.0
C2191 C 0.19171 0.60822 0.18546 0.0
H2192 H 0.16562 0.65371 0.11072 0.0
H2193 H 0.18163 0.58947 0.09338 0.0
H2194 H 0.1914 0.65575 0.16627 0.0
H2195 H 0.20933 0.66549 0.14431 0.0
H2196 H 0.18162 0.672 0.14226 0.0
H2197 H 0.20678 0.57004 0.11439 0.0
H2198 H 0.22878 0.58641 0.12309 0.0
H2199 H 0.21027 0.57772 0.14504 0.0
H2200 H 0.27229 0.62807 0.16266 0.0
H2201 H 0.22618 0.60722 0.21362 0.0
H2202 H 0.23608 0.64744 0.11975 0.0
H2203 H 0.24342 0.62101 0.11214 0.0
H2204 H 0.26301 0.63881 0.12404 0.0
H2205 H 0.18072 0.62142 0.18141 0.0
H2206 H 0.19023 0.60414 0.20461 0.0
H2207 H 0.18655 0.59441 0.17475 0.0
C2208 C 0.14918 0.43421 0.85275 0.0
C2209 C 0.13146 0.42118 0.84923 0.0
C2210 C 0.14962 0.44945 0.87091 0.0
C2211 C 0.13198 0.45173 0.88617 0.0
C2212 C 0.11426 0.43826 0.8832 0.0
C2213 C 0.11418 0.42318 0.86476 0.0
C2214 C 0.16881 0.46352 0.87334 0.0
C2215 C 0.09517 0.44011 0.89918 0.0
C2216 C 0.14187 0.48002 0.94494 0.0
C2217 C 0.13479 0.50064 0.94004 0.0
C2218 C 0.14056 0.46388 0.92782 0.0
C2219 C 0.13212 0.46839 0.90504 0.0
C2220 C 0.12479 0.48909 0.89996 0.0
C2221 C 0.12615 0.50492 0.9175 0.0
C2222 C 0.14866 0.44208 0.93394 0.0
C2223 C 0.11576 0.49459 0.87585 0.0
H2224 H 0.1626 0.43298 0.84086 0.0
H2225 H 0.10036 0.41331 0.86219 0.0
H2226 H 0.16423 0.48024 0.87029 0.0
H2227 H 0.17529 0.46245 0.89164 0.0
H2228 H 0.1815 0.4593 0.86053 0.0
H2229 H 0.08296 0.42802 0.89508 0.0
H2230 H 0.09998 0.4384 0.91807 0.0
H2231 H 0.088 0.45603 0.89719 0.0
H2232 H 0.14892 0.47655 0.96208 0.0
H2233 H 0.12038 0.52068 0.91357 0.0
H2234 H 0.16233 0.43811 0.92241 0.0
H2235 H 0.13622 0.43008 0.93053 0.0
H2236 H 0.15371 0.44082 0.95283 0.0
H2237 H 0.12792 0.49213 0.8619 0.0
H2238 H 0.1102 0.51123 0.87491 0.0
H2239 H 0.10231 0.48397 0.87161 0.0
C2240 C 0.32334 0.40322 0.60904 0.0
C2241 C 0.33433 0.38467 0.60313 0.0
C2242 C 0.30867 0.40358 0.62778 0.0
C2243 C 0.30472 0.3849 0.64093 0.0
C2244 C 0.3162 0.36625 0.63554 0.0
C2245 C 0.33093 0.36638 0.61677 0.0
C2246 C 0.29695 0.42386 0.63305 0.0
C2247 C 0.31238 0.34597 0.64904 0.0
C2248 C 0.27717 0.39182 0.70068 0.0
C2249 C 0.25589 0.38826 0.69471 0.0
C2250 C 0.29328 0.39026 0.68353 0.0
C2251 C 0.28808 0.38485 0.6598 0.0
C2252 C 0.26674 0.38058 0.65378 0.0
C2253 C 0.25093 0.38239 0.67126 0.0
C2254 C 0.3158 0.39498 0.69068 0.0
C2255 C 0.26052 0.3747 0.62868 0.0
H2256 H 0.32585 0.41745 0.59867 0.0
H2257 H 0.33921 0.35191 0.61226 0.0
H2258 H 0.27982 0.42164 0.62961 0.0
H2259 H 0.29874 0.4281 0.65209 0.0
H2260 H 0.30264 0.43729 0.62203 0.0
H2261 H 0.3234 0.33317 0.64358 0.0
H2262 H 0.31416 0.34869 0.66844 0.0
H2263 H 0.29593 0.34053 0.64596 0.0
H2264 H 0.28127 0.39599 0.7188 0.0
H2265 H 0.23456 0.37984 0.66632 0.0
H2266 H 0.32152 0.40914 0.68095 0.0
H2267 H 0.32627 0.38161 0.68574 0.0
H2268 H 0.31739 0.39795 0.71008 0.0
H2269 H 0.26378 0.38814 0.61653 0.0
H2270 H 0.24351 0.37052 0.62722 0.0
H2271 H 0.27009 0.3611 0.62241 0.0
C2272 C 0.36298 0.5258 0.44669 0.0
C2273 C 0.36723 0.50453 0.44124 0.0
C2274 C 0.36496 0.54179 0.42945 0.0
C2275 C 0.37148 0.53651 0.4061 0.0
C2276 C 0.37642 0.51519 0.40062 0.0
C2277 C 0.37423 0.49947 0.41822 0.0
C2278 C 0.3595 0.56428 0.43608 0.0
C2279 C 0.38344 0.50887 0.37594 0.0
C2280 C 0.35383 0.57187 0.35501 0.0
C2281 C 0.37218 0.58358 0.35007 0.0
C2282 C 0.3534 0.55671 0.37327 0.0
C2283 C 0.37176 0.55306 0.38708 0.0
C2284 C 0.39022 0.56514 0.38259 0.0
C2285 C 0.39021 0.58028 0.36418 0.0
C2286 C 0.33333 0.54431 0.37747 0.0
C2287 C 0.41015 0.56171 0.39687 0.0
H2288 H 0.358 0.52999 0.46452 0.0
H2289 H 0.37741 0.48311 0.41371 0.0
H2290 H 0.37285 0.57497 0.43173 0.0
H2291 H 0.34566 0.56965 0.42555 0.0
H2292 H 0.3557 0.56597 0.45528 0.0
H2293 H 0.38804 0.49194 0.37492 0.0
H2294 H 0.37045 0.51175 0.36306 0.0
H2295 H 0.39708 0.51868 0.37025 0.0
H2296 H 0.33979 0.57422 0.34427 0.0
H2297 H 0.40452 0.58908 0.36044 0.0
H2298 H 0.32817 0.54609 0.39622 0.0
H2299 H 0.3363 0.52724 0.37437 0.0
H2300 H 0.32023 0.54946 0.36564 0.0
H2301 H 0.40682 0.56358 0.41613 0.0
H2302 H 0.42292 0.57289 0.39179 0.0
H2303 H 0.41593 0.54531 0.39417 0.0
C2304 C 0.11038 0.23808 0.4023 0.0
C2305 C 0.12182 0.25704 0.40007 0.0
C2306 C 0.11185 0.22196 0.38508 0.0
C2307 C 0.12511 0.22472 0.36501 0.0
C2308 C 0.13614 0.24408 0.36221 0.0
C2309 C 0.13441 0.25994 0.37974 0.0
C2310 C 0.09992 0.20157 0.38897 0.0
C2311 C 0.15039 0.24778 0.34109 0.0
C2312 C 0.15 0.17521 0.33859 0.0
C2313 C 0.13759 0.17146 0.3183 0.0
C2314 C 0.14609 0.19243 0.35371 0.0
C2315 C 0.12932 0.20652 0.34854 0.0
C2316 C 0.1167 0.20294 0.32801 0.0
C2317 C 0.12095 0.1854 0.31312 0.0
C2318 C 0.15989 0.19541 0.37541 0.0
C2319 C 0.09869 0.21758 0.32183 0.0
H2320 H 0.1008 0.23546 0.418 0.0
H2321 H 0.14305 0.27461 0.37756 0.0
H2322 H 0.09099 0.19716 0.37271 0.0
H2323 H 0.11128 0.1886 0.39266 0.0
H2324 H 0.08868 0.20265 0.40411 0.0
H2325 H 0.15626 0.26432 0.34027 0.0
H2326 H 0.16421 0.237 0.34211 0.0
H2327 H 0.14188 0.24414 0.32432 0.0
H2328 H 0.16286 0.16452 0.34284 0.0
H2329 H 0.1113 0.18262 0.2975 0.0
H2330 H 0.15006 0.19499 0.39174 0.0
H2331 H 0.16768 0.21112 0.37476 0.0
H2332 H 0.17232 0.18306 0.3769 0.0
H2333 H 0.08696 0.21773 0.3365 0.0
H2334 H 0.09057 0.21287 0.30513 0.0
H2335 H 0.10466 0.23399 0.31983 0.0
C2336 C 0.08015 0.89785 0.58823 0.0
C2337 C 0.0841 0.88525 0.56815 0.0
C2338 C 0.06287 0.89402 0.60325 0.0
C2339 C 0.0489 0.87713 0.59819 0.0
C2340 C 0.05271 0.86428 0.57789 0.0
C2341 C 0.0703 0.86847 0.56309 0.0
C2342 C 0.05965 0.90809 0.62469 0.0
C2343 C 0.03823 0.8461 0.57188 0.0
C2344 C 0.0171 0.85932 0.6522 0.0
C2345 C 0.99827 0.87091 0.64964 0.0
C2346 C 0.03321 0.86024 0.63494 0.0
C2347 C 0.03058 0.87311 0.61451 0.0
C2348 C 0.01128 0.88417 0.61133 0.0
C2349 C 0.99542 0.88298 0.62889 0.0
C2350 C 0.05352 0.84827 0.63922 0.0
C2351 C 0.0077 0.898 0.5898 0.0
H2352 H 0.09073 0.91082 0.5924 0.0
H2353 H 0.07324 0.85866 0.54763 0.0
H2354 H 0.04394 0.91585 0.62371 0.0
H2355 H 0.05994 0.89845 0.64118 0.0
H2356 H 0.07195 0.92056 0.62614 0.0
H2357 H 0.04309 0.83782 0.55534 0.0
H2358 H 0.03809 0.83453 0.58672 0.0
H2359 H 0.0218 0.85194 0.56967 0.0
H2360 H 0.01967 0.85011 0.66821 0.0
H2361 H 0.98083 0.89171 0.62646 0.0
H2362 H 0.06647 0.85963 0.64298 0.0
H2363 H 0.05808 0.8392 0.62312 0.0
H2364 H 0.05224 0.83715 0.65446 0.0
H2365 H 0.01835 0.91191 0.59064 0.0
H2366 H 0.99113 0.90373 0.58862 0.0
H2367 H 0.01157 0.88921 0.57329 0.0
C2368 C 0.38444 0.82088 0.81366 0.0
C2369 C 0.36706 0.83418 0.81777 0.0
C2370 C 0.38857 0.80344 0.82873 0.0
C2371 C 0.37499 0.79921 0.84829 0.0
C2372 C 0.35733 0.81251 0.85222 0.0
C2373 C 0.35362 0.8297 0.837 0.0
C2374 C 0.40755 0.78967 0.82389 0.0
C2375 C 0.34241 0.80877 0.8728 0.0
C2376 C 0.37081 0.74584 0.8798 0.0
C2377 C 0.3818 0.74967 0.90111 0.0
C2378 C 0.36944 0.76139 0.86186 0.0
C2379 C 0.37922 0.78135 0.86522 0.0
C2380 C 0.39107 0.78498 0.88623 0.0
C2381 C 0.39224 0.76916 0.90382 0.0
C2382 C 0.35667 0.75677 0.83978 0.0
C2383 C 0.40179 0.80596 0.89064 0.0
H2384 H 0.39486 0.82419 0.79882 0.0
H2385 H 0.34013 0.83985 0.84038 0.0
H2386 H 0.41859 0.79035 0.83922 0.0
H2387 H 0.40256 0.77294 0.82187 0.0
H2388 H 0.41618 0.79459 0.8076 0.0
H2389 H 0.32918 0.82033 0.87316 0.0
H2390 H 0.33568 0.7926 0.87175 0.0
H2391 H 0.35117 0.80992 0.88986 0.0
H2392 H 0.36259 0.73096 0.87746 0.0
H2393 H 0.40119 0.77218 0.9199 0.0
H2394 H 0.36574 0.76114 0.82361 0.0
H2395 H 0.34205 0.76648 0.83989 0.0
H2396 H 0.35211 0.73984 0.83853 0.0
H2397 H 0.41156 0.81051 0.87508 0.0
H2398 H 0.41202 0.80563 0.90671 0.0
H2399 H 0.38964 0.81844 0.89305 0.0
C2400 C 0.43972 0.1042 0.06469 0.0
C2401 C 0.42405 0.11963 0.0614 0.0
C2402 C 0.45598 0.10691 0.0815 0.0
C2403 C 0.45662 0.1255 0.09556 0.0
C2404 C 0.44117 0.14144 0.09182 0.0
C2405 C 0.42504 0.13827 0.07484 0.0
C2406 C 0.47207 0.08949 0.08477 0.0
C2407 C 0.44118 0.1615 0.10637 0.0
C2408 C 0.48401 0.12042 0.15584 0.0
C2409 C 0.50405 0.12912 0.15134 0.0
C2410 C 0.46838 0.11955 0.13803 0.0
C2411 C 0.47275 0.12757 0.115 0.0
C2412 C 0.49283 0.13663 0.11039 0.0
C2413 C 0.5082 0.1373 0.12855 0.0
C2414 C 0.4472 0.10982 0.14383 0.0
C2415 C 0.49821 0.1453 0.08611 0.0
H2416 H 0.43901 0.0897 0.05442 0.0
H2417 H 0.41273 0.14999 0.07283 0.0
H2418 H 0.48831 0.09596 0.08323 0.0
H2419 H 0.47052 0.08264 0.10286 0.0
H2420 H 0.47014 0.0766 0.07152 0.0
H2421 H 0.42925 0.17308 0.09995 0.0
H2422 H 0.4377 0.15768 0.12523 0.0
H2423 H 0.45701 0.16903 0.10586 0.0
H2424 H 0.48044 0.11442 0.17344 0.0
H2425 H 0.52364 0.14389 0.12475 0.0
H2426 H 0.44449 0.09575 0.13243 0.0
H2427 H 0.43434 0.12126 0.13998 0.0
H2428 H 0.44602 0.1049 0.16276 0.0
H2429 H 0.49772 0.13239 0.07276 0.0
H2430 H 0.51413 0.15271 0.08564 0.0
H2431 H 0.48631 0.15726 0.08067 0.0
C2432 C 0.11961 0.82022 0.22128 0.0
C2433 C 0.13681 0.83364 0.21681 0.0
C2434 C 0.11531 0.80281 0.20624 0.0
C2435 C 0.12857 0.79872 0.18636 0.0
C2436 C 0.14603 0.81217 0.18203 0.0
C2437 C 0.14989 0.82935 0.19722 0.0
C2438 C 0.09653 0.78888 0.21147 0.0
C2439 C 0.1606 0.80859 0.1611 0.0
C2440 C 0.13303 0.74541 0.15485 0.0
C2441 C 0.12174 0.7491 0.13371 0.0
C2442 C 0.13439 0.76096 0.17277 0.0
C2443 C 0.12427 0.78078 0.16957 0.0
C2444 C 0.11209 0.78424 0.14876 0.0
C2445 C 0.11095 0.76842 0.13119 0.0
C2446 C 0.14753 0.75654 0.19463 0.0
C2447 C 0.101 0.80505 0.14454 0.0
H2448 H 0.10948 0.82337 0.23641 0.0
H2449 H 0.16323 0.83959 0.19354 0.0
H2450 H 0.08528 0.78938 0.19633 0.0
H2451 H 0.10172 0.77222 0.21352 0.0
H2452 H 0.08806 0.79381 0.22788 0.0
H2453 H 0.17366 0.82031 0.1604 0.0
H2454 H 0.16757 0.79251 0.16204 0.0
H2455 H 0.15151 0.80959 0.14425 0.0
H2456 H 0.14153 0.73066 0.15704 0.0
H2457 H 0.10176 0.77132 0.11524 0.0
H2458 H 0.13864 0.76081 0.21095 0.0
H2459 H 0.16202 0.76641 0.19424 0.0
H2460 H 0.15231 0.73966 0.19583 0.0
H2461 H 0.09144 0.80951 0.1603 0.0
H2462 H 0.09049 0.80455 0.1287 0.0
H2463 H 0.11292 0.8177 0.14181 0.0
C2464 C 0.51022 0.8827 0.40593 0.0
C2465 C 0.50702 0.87072 0.38519 0.0
C2466 C 0.49446 0.88424 0.42357 0.0
C2467 C 0.47491 0.87363 0.42048 0.0
C2468 C 0.47187 0.8609 0.40001 0.0
C2469 C 0.48789 0.85962 0.38267 0.0
C2470 C 0.49845 0.89792 0.44512 0.0
C2471 C 0.45128 0.8494 0.39582 0.0
C2472 C 0.43547 0.86919 0.47217 0.0
C2473 C 0.42179 0.88611 0.46729 0.0
C2474 C 0.45295 0.86491 0.45723 0.0
C2475 C 0.4568 0.87786 0.43703 0.0
C2476 C 0.44302 0.89497 0.43223 0.0
C2477 C 0.42581 0.89886 0.44734 0.0
C2478 C 0.46722 0.84649 0.46296 0.0
C2479 C 0.44634 0.90918 0.41092 0.0
H2480 H 0.52503 0.89105 0.40832 0.0
H2481 H 0.48505 0.85051 0.36666 0.0
H2482 H 0.48799 0.912 0.44449 0.0
H2483 H 0.4946 0.88911 0.46163 0.0
H2484 H 0.51511 0.90339 0.44614 0.0
H2485 H 0.45217 0.83844 0.38041 0.0
H2486 H 0.44672 0.84024 0.41185 0.0
H2487 H 0.43853 0.86107 0.3924 0.0
H2488 H 0.43251 0.85931 0.48756 0.0
H2489 H 0.41534 0.91196 0.44334 0.0
H2490 H 0.48374 0.85206 0.46507 0.0
H2491 H 0.46708 0.83501 0.44803 0.0
H2492 H 0.46236 0.83816 0.47949 0.0
H2493 H 0.46221 0.9166 0.41179 0.0
H2494 H 0.43428 0.92192 0.40977 0.0
H2495 H 0.44569 0.89971 0.39432 0.0
C2496 C 0.37189 0.26118 0.65696 0.0
C2497 C 0.38407 0.2583 0.63631 0.0
C2498 C 0.37027 0.24519 0.67433 0.0
C2499 C 0.381 0.22571 0.67105 0.0
C2500 C 0.39388 0.22297 0.65066 0.0
C2501 C 0.39524 0.23922 0.6336 0.0
C2502 C 0.35644 0.24886 0.69582 0.0
C2503 C 0.40548 0.20246 0.64627 0.0
C2504 C 0.38562 0.18579 0.72227 0.0
C2505 C 0.3688 0.17206 0.71721 0.0
C2506 C 0.38978 0.20346 0.70757 0.0
C2507 C 0.37685 0.20742 0.68738 0.0
C2508 C 0.35985 0.19356 0.68236 0.0
C2509 C 0.35606 0.17619 0.69728 0.0
C2510 C 0.40805 0.21784 0.71355 0.0
C2511 C 0.34568 0.19697 0.66104 0.0
H2512 H 0.36347 0.27594 0.65949 0.0
H2513 H 0.4045 0.23664 0.61765 0.0
H2514 H 0.34247 0.23828 0.69497 0.0
H2515 H 0.36519 0.24492 0.71235 0.0
H2516 H 0.35082 0.26547 0.69698 0.0
H2517 H 0.41646 0.20355 0.6309 0.0
H2518 H 0.41462 0.19779 0.66228 0.0
H2519 H 0.39389 0.18968 0.64268 0.0
H2520 H 0.39553 0.18272 0.73762 0.0
H2521 H 0.34304 0.16566 0.69314 0.0
H2522 H 0.40232 0.2343 0.71582 0.0
H2523 H 0.41957 0.21794 0.69867 0.0
H2524 H 0.41637 0.21289 0.73005 0.0
H2525 H 0.33814 0.21278 0.66206 0.0
H2526 H 0.33306 0.18482 0.65969 0.0
H2527 H 0.3552 0.19656 0.64447 0.0
C2528 C 0.07056 0.13704 0.97138 0.0
C2529 C 0.08434 0.12026 0.96621 0.0
C2530 C 0.05305 0.14145 0.95651 0.0
C2531 C 0.04929 0.12881 0.93604 0.0
C2532 C 0.06324 0.11194 0.93084 0.0
C2533 C 0.08046 0.1079 0.94592 0.0
C2534 C 0.0386 0.15961 0.96266 0.0
C2535 C 0.06006 0.09809 0.90921 0.0
C2536 C 0.99565 0.12357 0.90539 0.0
C2537 C 0.99844 0.13592 0.88484 0.0
C2538 C 0.01161 0.12201 0.92282 0.0
C2539 C 0.03096 0.133 0.91973 0.0
C2540 C 0.03357 0.14611 0.89949 0.0
C2541 C 0.01736 0.14739 0.88235 0.0
C2542 C 0.00806 0.10794 0.94414 0.0
C2543 C 0.05392 0.15802 0.89531 0.0
H2544 H 0.07344 0.14666 0.987 0.0
H2545 H 0.09103 0.09494 0.94166 0.0
H2546 H 0.03841 0.17125 0.9479 0.0
H2547 H 0.02218 0.15377 0.96489 0.0
H2548 H 0.04351 0.16781 0.97925 0.0
H2549 H 0.07236 0.08563 0.90764 0.0
H2550 H 0.04435 0.09033 0.91005 0.0
H2551 H 0.06036 0.10789 0.89284 0.0
H2552 H 0.98101 0.11493 0.90778 0.0
H2553 H 0.01989 0.1568 0.8665 0.0
H2554 H 0.01189 0.11656 0.96078 0.0
H2555 H 0.01877 0.09407 0.94314 0.0
H2556 H 0.99151 0.10214 0.9452 0.0
H2557 H 0.05852 0.16695 0.91149 0.0
H2558 H 0.05268 0.16925 0.88017 0.0
H2559 H 0.06682 0.14663 0.89146 0.0
C2560 C 0.88742 0.82209 0.72102 0.0
C2561 C 0.86973 0.83497 0.71692 0.0
C2562 C 0.89191 0.80473 0.70597 0.0
C2563 C 0.87826 0.80005 0.68659 0.0
C2564 C 0.86026 0.81289 0.68271 0.0
C2565 C 0.85629 0.83011 0.69779 0.0
C2566 C 0.91134 0.79154 0.71064 0.0
C2567 C 0.84518 0.80858 0.66241 0.0
C2568 C 0.89448 0.76965 0.63096 0.0
C2569 C 0.88439 0.75006 0.63432 0.0
C2570 C 0.89378 0.78556 0.64848 0.0
C2571 C 0.88259 0.78201 0.66994 0.0
C2572 C 0.8732 0.76196 0.67393 0.0
C2573 C 0.87424 0.74628 0.65616 0.0
C2574 C 0.90407 0.80664 0.64341 0.0
C2575 C 0.86112 0.75742 0.69651 0.0
H2576 H 0.8978 0.82564 0.73583 0.0
H2577 H 0.84255 0.83991 0.69443 0.0
H2578 H 0.90681 0.77475 0.71325 0.0
H2579 H 0.92201 0.79215 0.69498 0.0
H2580 H 0.92022 0.79702 0.72655 0.0
H2581 H 0.8317 0.81984 0.66206 0.0
H2582 H 0.85369 0.8097 0.6452 0.0
H2583 H 0.83881 0.79228 0.66383 0.0
H2584 H 0.90219 0.77297 0.61417 0.0
H2585 H 0.86675 0.73111 0.65925 0.0
H2586 H 0.91366 0.81186 0.65886 0.0
H2587 H 0.89166 0.81876 0.64042 0.0
H2588 H 0.91438 0.80606 0.62743 0.0
H2589 H 0.87059 0.76202 0.7123 0.0
H2590 H 0.85677 0.74045 0.69811 0.0
H2591 H 0.8464 0.76697 0.69678 0.0
C2592 C 0.00947 0.12175 0.40446 0.0
C2593 C 0.00613 0.13333 0.38345 0.0
C2594 C 0.9938 0.12052 0.42225 0.0
C2595 C 0.97422 0.13109 0.41906 0.0
C2596 C 0.97112 0.14353 0.39838 0.0
C2597 C 0.98705 0.14452 0.38092 0.0
C2598 C 0.99784 0.10708 0.44397 0.0
C2599 C 0.95057 0.15511 0.39417 0.0
C2600 C 0.92506 0.10629 0.44635 0.0
C2601 C 0.92106 0.11924 0.46614 0.0
C2602 C 0.9423 0.10993 0.43119 0.0
C2603 C 0.95613 0.12706 0.43574 0.0
C2604 C 0.95232 0.14022 0.45578 0.0
C2605 C 0.93484 0.13614 0.4708 0.0
C2606 C 0.94557 0.09549 0.41009 0.0
C2607 C 0.96664 0.15866 0.46125 0.0
H2608 H 0.02404 0.11294 0.40664 0.0
H2609 H 0.98442 0.15392 0.36508 0.0
H2610 H 0.99375 0.11593 0.46038 0.0
H2611 H 0.98761 0.09284 0.44337 0.0
H2612 H 0.01458 0.10186 0.44517 0.0
H2613 H 0.95137 0.16574 0.37846 0.0
H2614 H 0.93769 0.14348 0.39125 0.0
H2615 H 0.94626 0.16463 0.41002 0.0
H2616 H 0.91453 0.09318 0.44251 0.0
H2617 H 0.93192 0.14618 0.48606 0.0
H2618 H 0.96147 0.08813 0.41098 0.0
H2619 H 0.94482 0.10477 0.39335 0.0
H2620 H 0.93355 0.0827 0.40918 0.0
H2621 H 0.98315 0.15305 0.46344 0.0
H2622 H 0.9618 0.16718 0.47766 0.0
H2623 H 0.96653 0.16997 0.44616 0.0
C2624 C 0.62797 0.25675 0.15124 0.0
C2625 C 0.61675 0.25248 0.1302 0.0
C2626 C 0.6299 0.24149 0.16938 0.0
C2627 C 0.62038 0.22134 0.16657 0.0
C2628 C 0.60839 0.21718 0.14578 0.0
C2629 C 0.60677 0.23271 0.1279 0.0
C2630 C 0.6428 0.24667 0.19122 0.0
C2631 C 0.59801 0.19595 0.14192 0.0
C2632 C 0.64741 0.17431 0.19583 0.0
C2633 C 0.63449 0.17018 0.21561 0.0
C2634 C 0.64299 0.19088 0.18 0.0
C2635 C 0.6251 0.20387 0.18384 0.0
C2636 C 0.61196 0.19994 0.20386 0.0
C2637 C 0.61684 0.18315 0.21958 0.0
C2638 C 0.65748 0.19436 0.15899 0.0
C2639 C 0.59268 0.21334 0.20853 0.0
H2640 H 0.6354 0.27206 0.15352 0.0
H2641 H 0.59822 0.22905 0.1117 0.0
H2642 H 0.63373 0.24287 0.20757 0.0
H2643 H 0.65733 0.23683 0.19144 0.0
H2644 H 0.6475 0.26359 0.19182 0.0
H2645 H 0.58742 0.19593 0.12615 0.0
H2646 H 0.61035 0.18369 0.1393 0.0
H2647 H 0.58868 0.19134 0.15781 0.0
H2648 H 0.66109 0.16441 0.19253 0.0
H2649 H 0.60682 0.18013 0.23483 0.0
H2650 H 0.66403 0.21063 0.15948 0.0
H2651 H 0.64845 0.19276 0.14216 0.0
H2652 H 0.67085 0.18297 0.15863 0.0
H2653 H 0.59728 0.23022 0.20998 0.0
H2654 H 0.58434 0.20859 0.22508 0.0
H2655 H 0.58152 0.21202 0.19337 0.0
C2656 C 0.51853 0.86104 0.88196 0.0
C2657 C 0.49937 0.87213 0.8843 0.0
C2658 C 0.53441 0.86226 0.89947 0.0
C2659 C 0.53117 0.87482 0.92002 0.0
C2660 C 0.51152 0.88528 0.92304 0.0
C2661 C 0.49591 0.88384 0.90519 0.0
C2662 C 0.55506 0.85082 0.89543 0.0
C2663 C 0.50733 0.89883 0.94463 0.0
C2664 C 0.57058 0.87026 0.97178 0.0
C2665 C 0.58422 0.88723 0.96704 0.0
C2666 C 0.55309 0.86603 0.95683 0.0
C2667 C 0.54919 0.87909 0.93672 0.0
C2668 C 0.56289 0.89629 0.93207 0.0
C2669 C 0.58012 0.90011 0.94721 0.0
C2670 C 0.53887 0.84755 0.96242 0.0
C2671 C 0.55954 0.91062 0.91088 0.0
H2672 H 0.52126 0.85154 0.86621 0.0
H2673 H 0.48128 0.89258 0.90723 0.0
H2674 H 0.56786 0.86253 0.89246 0.0
H2675 H 0.55942 0.84143 0.91137 0.0
H2676 H 0.55438 0.84008 0.87981 0.0
H2677 H 0.49054 0.9039 0.94574 0.0
H2678 H 0.51149 0.89013 0.96112 0.0
H2679 H 0.51743 0.91317 0.94393 0.0
H2680 H 0.57362 0.86025 0.98707 0.0
H2681 H 0.59054 0.91325 0.94332 0.0
H2682 H 0.53913 0.83609 0.94747 0.0
H2683 H 0.5223 0.85305 0.96441 0.0
H2684 H 0.54368 0.83922 0.97896 0.0
H2685 H 0.56037 0.90127 0.8942 0.0
H2686 H 0.57146 0.92348 0.90993 0.0
H2687 H 0.54358 0.91787 0.91169 0.0
C2688 C 0.87024 0.26062 0.88172 0.0
C2689 C 0.88225 0.25769 0.90251 0.0
C2690 C 0.86907 0.24483 0.86406 0.0
C2691 C 0.88014 0.22552 0.86712 0.0
C2692 C 0.89295 0.22279 0.88759 0.0
C2693 C 0.89381 0.23881 0.90498 0.0
C2694 C 0.85526 0.2485 0.84254 0.0
C2695 C 0.90498 0.20249 0.89172 0.0
C2696 C 0.85589 0.17594 0.84007 0.0
C2697 C 0.86852 0.17233 0.81993 0.0
C2698 C 0.85952 0.19312 0.85534 0.0
C2699 C 0.8763 0.2073 0.85053 0.0
C2700 C 0.88919 0.20383 0.8302 0.0
C2701 C 0.88513 0.18639 0.81509 0.0
C2702 C 0.84538 0.19602 0.87675 0.0
C2703 C 0.90728 0.2185 0.82447 0.0
H2704 H 0.86153 0.27522 0.87933 0.0
H2705 H 0.90297 0.23615 0.921 0.0
H2706 H 0.86412 0.24488 0.826 0.0
H2707 H 0.84146 0.23769 0.84318 0.0
H2708 H 0.84937 0.26503 0.84156 0.0
H2709 H 0.91601 0.20368 0.90705 0.0
H2710 H 0.89366 0.18946 0.89526 0.0
H2711 H 0.91414 0.19811 0.87563 0.0
H2712 H 0.84301 0.16518 0.84407 0.0
H2713 H 0.89494 0.18376 0.79957 0.0
H2714 H 0.83756 0.21172 0.87599 0.0
H2715 H 0.85495 0.19558 0.89329 0.0
H2716 H 0.83296 0.18365 0.87795 0.0
H2717 H 0.9013 0.23488 0.82224 0.0
H2718 H 0.91576 0.21376 0.80801 0.0
H2719 H 0.9187 0.21872 0.83946 0.0
C2720 C 0.5192 0.14347 0.65315 0.0
C2721 C 0.4999 0.13261 0.65088 0.0
C2722 C 0.53495 0.14219 0.63552 0.0
C2723 C 0.53143 0.12979 0.61489 0.0
C2724 C 0.51165 0.11957 0.61194 0.0
C2725 C 0.49618 0.12107 0.62992 0.0
C2726 C 0.55574 0.15337 0.63949 0.0
C2727 C 0.50716 0.10621 0.59027 0.0
C2728 C 0.57061 0.13433 0.56293 0.0
C2729 C 0.58413 0.1172 0.56745 0.0
C2730 C 0.55322 0.1386 0.57799 0.0
C2731 C 0.5493 0.12544 0.59801 0.0
C2732 C 0.56286 0.10807 0.60242 0.0
C2733 C 0.57998 0.1042 0.58717 0.0
C2734 C 0.53914 0.15726 0.57264 0.0
C2735 C 0.55948 0.09362 0.6235 0.0
H2736 H 0.52214 0.15285 0.66895 0.0
H2737 H 0.48144 0.11251 0.62792 0.0
H2738 H 0.56844 0.14151 0.64223 0.0
H2739 H 0.56006 0.16284 0.6236 0.0
H2740 H 0.5553 0.16399 0.65522 0.0
H2741 H 0.49031 0.10134 0.58925 0.0
H2742 H 0.5113 0.11497 0.57382 0.0
H2743 H 0.51711 0.09176 0.59078 0.0
H2744 H 0.57369 0.14444 0.54773 0.0
H2745 H 0.59031 0.09094 0.59089 0.0
H2746 H 0.53964 0.16864 0.58766 0.0
H2747 H 0.52251 0.15194 0.57076 0.0
H2748 H 0.54391 0.16562 0.55611 0.0
H2749 H 0.56052 0.10283 0.64026 0.0
H2750 H 0.57126 0.08061 0.62425 0.0
H2751 H 0.54343 0.08656 0.62274 0.0
C2752 C 0.6501 0.82752 0.33719 0.0
C2753 C 0.63614 0.83286 0.3187 0.0
C2754 C 0.64624 0.81029 0.35231 0.0
C2755 C 0.62774 0.79799 0.34921 0.0
C2756 C 0.61359 0.80312 0.33044 0.0
C2757 C 0.61806 0.82039 0.31524 0.0
C2758 C 0.66192 0.80542 0.37186 0.0
C2759 C 0.5936 0.79057 0.32665 0.0
C2760 C 0.63041 0.74399 0.3795 0.0
C2761 C 0.62097 0.74811 0.40166 0.0
C2762 C 0.63172 0.7597 0.36176 0.0
C2763 C 0.62335 0.78014 0.36612 0.0
C2764 C 0.61296 0.78413 0.388 0.0
C2765 C 0.61196 0.76817 0.40545 0.0
C2766 C 0.64294 0.75469 0.33875 0.0
C2767 C 0.60378 0.80562 0.39349 0.0
H2768 H 0.66419 0.83696 0.34001 0.0
H2769 H 0.6073 0.82424 0.30088 0.0
H2770 H 0.65415 0.80695 0.38946 0.0
H2771 H 0.66756 0.78887 0.37023 0.0
H2772 H 0.67584 0.81612 0.37146 0.0
H2773 H 0.58439 0.79629 0.31109 0.0
H2774 H 0.59747 0.77363 0.32396 0.0
H2775 H 0.58348 0.79161 0.34273 0.0
H2776 H 0.63708 0.7285 0.37609 0.0
H2777 H 0.60483 0.77175 0.4225 0.0
H2778 H 0.65793 0.76377 0.33782 0.0
H2779 H 0.63312 0.75955 0.32333 0.0
H2780 H 0.64669 0.73759 0.33706 0.0
H2781 H 0.61678 0.81723 0.39575 0.0
H2782 H 0.59411 0.80553 0.40998 0.0
H2783 H 0.59379 0.81119 0.37851 0.0
C2784 C 0.93557 0.87117 0.0631 0.0
C2785 C 0.92148 0.8876 0.06861 0.0
C2786 C 0.95318 0.86688 0.07785 0.0
C2787 C 0.95672 0.87925 0.09858 0.0
C2788 C 0.94248 0.89581 0.10409 0.0
C2789 C 0.92518 0.89976 0.08911 0.0
C2790 C 0.96797 0.84909 0.07133 0.0
C2791 C 0.94542 0.90937 0.12599 0.0
C2792 C 0.98859 0.86016 0.15204 0.0
C2793 C 0.00737 0.87191 0.14995 0.0
C2794 C 0.97246 0.86154 0.13483 0.0
C2795 C 0.97502 0.87503 0.1149 0.0
C2796 C 0.99423 0.88634 0.1122 0.0
C2797 C 0.0101 0.88468 0.12972 0.0
C2798 C 0.95224 0.84929 0.13859 0.0
C2799 C 0.99771 0.90084 0.09124 0.0
H2800 H 0.93283 0.86171 0.04732 0.0
H2801 H 0.91438 0.91245 0.09362 0.0
H2802 H 0.9843 0.85525 0.06932 0.0
H2803 H 0.96831 0.83718 0.08582 0.0
H2804 H 0.96326 0.84112 0.05454 0.0
H2805 H 0.93296 0.92165 0.12774 0.0
H2806 H 0.94516 0.89932 0.14217 0.0
H2807 H 0.96104 0.91732 0.1254 0.0
H2808 H 0.9861 0.85043 0.16766 0.0
H2809 H 0.02464 0.89355 0.12764 0.0
H2810 H 0.94786 0.84057 0.12219 0.0
H2811 H 0.93916 0.86045 0.14257 0.0
H2812 H 0.95353 0.83784 0.15351 0.0
H2813 H 0.99405 0.89248 0.07438 0.0
H2814 H 0.01419 0.90685 0.09041 0.0
H2815 H 0.98683 0.91456 0.0925 0.0
C2816 C 0.65153 0.67547 0.83885 0.0
C2817 C 0.63842 0.67099 0.81932 0.0
C2818 C 0.64752 0.69263 0.85399 0.0
C2819 C 0.62989 0.70588 0.84965 0.0
C2820 C 0.61662 0.70162 0.82982 0.0
C2821 C 0.62105 0.6842 0.81485 0.0
C2822 C 0.66209 0.69642 0.87489 0.0
C2823 C 0.5977 0.71535 0.82456 0.0
C2824 C 0.61193 0.73611 0.90467 0.0
C2825 C 0.62249 0.75554 0.90208 0.0
C2826 C 0.61327 0.72025 0.88717 0.0
C2827 C 0.62542 0.7238 0.86638 0.0
C2828 C 0.63531 0.74371 0.86311 0.0
C2829 C 0.63377 0.75929 0.88096 0.0
C2830 C 0.60245 0.69931 0.89146 0.0
C2831 C 0.64839 0.74823 0.84124 0.0
H2832 H 0.665 0.66538 0.84252 0.0
H2833 H 0.61088 0.68087 0.79978 0.0
H2834 H 0.66889 0.71256 0.87389 0.0
H2835 H 0.65304 0.69537 0.89175 0.0
H2836 H 0.67528 0.68483 0.87562 0.0
H2837 H 0.58926 0.71032 0.80817 0.0
H2838 H 0.58648 0.71478 0.83971 0.0
H2839 H 0.60272 0.73206 0.82246 0.0
H2840 H 0.60276 0.73316 0.92061 0.0
H2841 H 0.64209 0.77413 0.87873 0.0
H2842 H 0.61453 0.68682 0.89424 0.0
H2843 H 0.59294 0.69469 0.87572 0.0
H2844 H 0.59195 0.69973 0.90729 0.0
H2845 H 0.663 0.73852 0.84168 0.0
H2846 H 0.65297 0.76515 0.83998 0.0
H2847 H 0.63955 0.7438 0.82493 0.0
C2848 C 0.57212 0.37223 0.07086 0.0
C2849 C 0.58832 0.38651 0.0765 0.0
C2850 C 0.55473 0.36937 0.0862 0.0
C2851 C 0.55347 0.38114 0.10764 0.0
C2852 C 0.56984 0.39556 0.11336 0.0
C2853 C 0.58702 0.39804 0.09777 0.0
C2854 C 0.53769 0.35377 0.07948 0.0
C2855 C 0.56922 0.40842 0.136 0.0
C2856 C 0.50074 0.38984 0.13919 0.0
C2857 C 0.50192 0.37528 0.15802 0.0
C2858 C 0.51712 0.39154 0.12234 0.0
C2859 C 0.5352 0.3784 0.12429 0.0
C2860 C 0.53633 0.36343 0.143 0.0
C2861 C 0.51975 0.36207 0.1596 0.0
C2862 C 0.51524 0.40767 0.10265 0.0
C2863 C 0.55532 0.34917 0.14584 0.0
H2864 H 0.57299 0.36333 0.0544 0.0
H2865 H 0.59948 0.40911 0.10228 0.0
H2866 H 0.53615 0.34154 0.09352 0.0
H2867 H 0.52223 0.36199 0.07816 0.0
H2868 H 0.54101 0.3458 0.06227 0.0
H2869 H 0.58316 0.41898 0.13783 0.0
H2870 H 0.55469 0.41825 0.13641 0.0
H2871 H 0.56866 0.39774 0.15164 0.0
H2872 H 0.48695 0.3999 0.13757 0.0
H2873 H 0.52102 0.35098 0.17422 0.0
H2874 H 0.51717 0.39989 0.08509 0.0
H2875 H 0.52804 0.41957 0.10435 0.0
H2876 H 0.49979 0.41603 0.10293 0.0
H2877 H 0.55835 0.34042 0.12907 0.0
H2878 H 0.55326 0.33755 0.16048 0.0
H2879 H 0.56957 0.35884 0.14962 0.0
C2880 C 0.8835 0.32206 0.31442 0.0
C2881 C 0.86666 0.33573 0.31963 0.0
C2882 C 0.88786 0.30439 0.32907 0.0
C2883 C 0.87509 0.30035 0.34936 0.0
C2884 C 0.85804 0.3141 0.3545 0.0
C2885 C 0.85406 0.33149 0.33964 0.0
C2886 C 0.90618 0.29013 0.32295 0.0
C2887 C 0.84403 0.3106 0.37591 0.0
C2888 C 0.87072 0.2466 0.37997 0.0
C2889 C 0.88299 0.2496 0.40054 0.0
C2890 C 0.86889 0.26254 0.36255 0.0
C2891 C 0.8795 0.28209 0.3657 0.0
C2892 C 0.89247 0.28496 0.386 0.0
C2893 C 0.89404 0.26876 0.40311 0.0
C2894 C 0.85496 0.25872 0.34117 0.0
C2895 C 0.90396 0.30556 0.39025 0.0
H2896 H 0.89329 0.3252 0.299 0.0
H2897 H 0.84102 0.34194 0.3439 0.0
H2898 H 0.91784 0.29016 0.33771 0.0
H2899 H 0.90056 0.27362 0.32081 0.0
H2900 H 0.9143 0.29509 0.30634 0.0
H2901 H 0.8313 0.32264 0.37732 0.0
H2902 H 0.83662 0.29472 0.37497 0.0
H2903 H 0.85364 0.31111 0.39242 0.0
H2904 H 0.86239 0.23178 0.37753 0.0
H2905 H 0.90337 0.27146 0.419 0.0
H2906 H 0.86356 0.2627 0.32456 0.0
H2907 H 0.8409 0.26918 0.34209 0.0
H2908 H 0.84947 0.24206 0.34007 0.0
H2909 H 0.91296 0.31026 0.37417 0.0
H2910 H 0.91506 0.30457 0.40554 0.0
H2911 H 0.89231 0.31827 0.3939 0.0
C2912 C 0.92492 0.63885 0.57671 0.0
C2913 C 0.92573 0.62493 0.55727 0.0
C2914 C 0.94163 0.64015 0.59315 0.0
C2915 C 0.95976 0.62726 0.59014 0.0
C2916 C 0.96113 0.61393 0.56989 0.0
C2917 C 0.9441 0.6129 0.55371 0.0
C2918 C 0.9394 0.65462 0.61437 0.0
C2919 C 0.98024 0.60011 0.56582 0.0
C2920 C 0.0085 0.64102 0.62741 0.0
C2921 C 0.00672 0.62681 0.64653 0.0
C2922 C 0.99367 0.64105 0.60866 0.0
C2923 C 0.97647 0.62668 0.60907 0.0
C2924 C 0.97471 0.61219 0.62822 0.0
C2925 C 0.98983 0.61239 0.64659 0.0
C2926 C 0.99628 0.65664 0.58854 0.0
C2927 C 0.95655 0.59674 0.62959 0.0
H2928 H 0.91082 0.64827 0.57958 0.0
H2929 H 0.94488 0.60213 0.53874 0.0
H2930 H 0.93834 0.64504 0.63087 0.0
H2931 H 0.95351 0.66492 0.61607 0.0
H2932 H 0.92512 0.66481 0.61317 0.0
H2933 H 0.97981 0.59218 0.54819 0.0
H2934 H 0.99494 0.60962 0.5671 0.0
H2935 H 0.98103 0.58778 0.57985 0.0
H2936 H 0.02158 0.65208 0.62705 0.0
H2937 H 0.98808 0.60156 0.66141 0.0
H2938 H 0.98258 0.66759 0.58809 0.0
H2939 H 0.99658 0.64816 0.57126 0.0
H2940 H 0.01099 0.66612 0.59025 0.0
H2941 H 0.94137 0.6055 0.63062 0.0
H2942 H 0.95774 0.58612 0.64528 0.0
H2943 H 0.95602 0.5869 0.61326 0.0
C2944 C 0.64982 0.31731 0.71458 0.0
C2945 C 0.63324 0.33152 0.71888 0.0
C2946 C 0.64737 0.30021 0.69884 0.0
C2947 C 0.62801 0.2975 0.68653 0.0
C2948 C 0.61097 0.31147 0.69136 0.0
C2949 C 0.61379 0.32828 0.70756 0.0
C2950 C 0.6659 0.28564 0.69453 0.0
C2951 C 0.59017 0.30945 0.67841 0.0
C2952 C 0.63174 0.27086 0.62578 0.0
C2953 C 0.6248 0.25019 0.63061 0.0
C2954 C 0.63251 0.28638 0.64369 0.0
C2955 C 0.62632 0.28122 0.66721 0.0
C2956 C 0.61932 0.26041 0.67228 0.0
C2957 C 0.61864 0.24518 0.65397 0.0
C2958 C 0.64017 0.30831 0.63743 0.0
C2959 C 0.61263 0.25422 0.69709 0.0
H2960 H 0.66498 0.31994 0.72311 0.0
H2961 H 0.60123 0.33963 0.71013 0.0
H2962 H 0.6609 0.26888 0.69619 0.0
H2963 H 0.67188 0.2879 0.67615 0.0
H2964 H 0.67909 0.28859 0.70716 0.0
H2965 H 0.57794 0.3203 0.68566 0.0
H2966 H 0.59248 0.31315 0.65929 0.0
H2967 H 0.58422 0.29297 0.67952 0.0
H2968 H 0.63687 0.27489 0.60795 0.0
H2969 H 0.61298 0.22939 0.6579 0.0
H2970 H 0.65474 0.312 0.64761 0.0
H2971 H 0.62809 0.32022 0.64246 0.0
H2972 H 0.64365 0.31003 0.61815 0.0
H2973 H 0.626 0.25648 0.70962 0.0
H2974 H 0.60733 0.23749 0.69811 0.0
H2975 H 0.59956 0.26458 0.70318 0.0
C2976 C 0.93293 0.36762 0.97175 0.0
C2977 C 0.91996 0.38508 0.96685 0.0
C2978 C 0.95042 0.36279 0.95705 0.0
C2979 C 0.95507 0.37582 0.93714 0.0
C2980 C 0.94204 0.39352 0.93234 0.0
C2981 C 0.92474 0.39786 0.94714 0.0
C2982 C 0.96382 0.34371 0.9627 0.0
C2983 C 0.94629 0.40791 0.9114 0.0
C2984 C 0.00904 0.37967 0.90727 0.0
C2985 C 0.00565 0.36869 0.88586 0.0
C2986 C 0.99317 0.38106 0.92477 0.0
C2987 C 0.97333 0.3712 0.92094 0.0
C2988 C 0.97018 0.35918 0.89996 0.0
C2989 C 0.98628 0.35813 0.8827 0.0
C2990 C 0.99728 0.39401 0.94686 0.0
C2991 C 0.94934 0.34839 0.89507 0.0
H2992 H 0.92938 0.3577 0.98696 0.0
H2993 H 0.91484 0.41139 0.94314 0.0
H2994 H 0.96362 0.33256 0.94745 0.0
H2995 H 0.98049 0.34859 0.96546 0.0
H2996 H 0.95824 0.33523 0.97883 0.0
H2997 H 0.93479 0.42115 0.91026 0.0
H2998 H 0.96244 0.41465 0.91275 0.0
H2999 H 0.94554 0.39874 0.89459 0.0
H3000 H 0.02403 0.38754 0.9102 0.0
H3001 H 0.98328 0.34977 0.86622 0.0
H3002 H 0.99266 0.38503 0.96299 0.0
H3003 H 0.9875 0.40857 0.94635 0.0
H3004 H 0.01415 0.39868 0.94849 0.0
H3005 H 0.94408 0.33929 0.91087 0.0
H3006 H 0.95026 0.3375 0.87959 0.0
H3007 H 0.93707 0.36049 0.89133 0.0
C3008 C 0.893 0.73766 0.13078 0.0
C3009 C 0.88233 0.75705 0.13307 0.0
C3010 C 0.89158 0.72192 0.14842 0.0
C3011 C 0.87924 0.72557 0.16904 0.0
C3012 C 0.86922 0.74545 0.17201 0.0
C3013 C 0.87084 0.76091 0.15402 0.0
C3014 C 0.90256 0.701 0.14446 0.0
C3015 C 0.85594 0.75007 0.19369 0.0
C3016 C 0.85323 0.67734 0.19693 0.0
C3017 C 0.86622 0.67313 0.21663 0.0
C3018 C 0.85725 0.69438 0.1816 0.0
C3019 C 0.87476 0.70777 0.18594 0.0
C3020 C 0.88791 0.70378 0.20594 0.0
C3021 C 0.88347 0.6865 0.2211 0.0
C3022 C 0.84281 0.69787 0.16053 0.0
C3023 C 0.90672 0.71766 0.21119 0.0
H3024 H 0.90233 0.73463 0.11498 0.0
H3025 H 0.86243 0.77573 0.15601 0.0
H3026 H 0.91202 0.6966 0.16033 0.0
H3027 H 0.89058 0.68841 0.14178 0.0
H3028 H 0.91314 0.70133 0.1287 0.0
H3029 H 0.85121 0.76697 0.1947 0.0
H3030 H 0.84141 0.74025 0.19323 0.0
H3031 H 0.86469 0.74587 0.21013 0.0
H3032 H 0.83986 0.66712 0.19328 0.0
H3033 H 0.89352 0.68341 0.23633 0.0
H3034 H 0.85199 0.69672 0.14376 0.0
H3035 H 0.8359 0.71398 0.16126 0.0
H3036 H 0.8297 0.68619 0.15982 0.0
H3037 H 0.91806 0.71699 0.19615 0.0
H3038 H 0.91507 0.71284 0.22772 0.0
H3039 H 0.9016 0.73437 0.21301 0.0
C3040 C 0.56844 0.60295 0.46226 0.0
C3041 C 0.58108 0.62 0.46951 0.0
C3042 C 0.55134 0.60583 0.44661 0.0
C3043 C 0.54704 0.62622 0.43736 0.0
C3044 C 0.55935 0.64365 0.44523 0.0
C3045 C 0.5761 0.64033 0.4614 0.0
C3046 C 0.53849 0.58683 0.43914 0.0
C3047 C 0.5556 0.6656 0.43557 0.0
C3048 C 0.5213 0.62693 0.37598 0.0
C3049 C 0.50002 0.6312 0.38129 0.0
C3050 C 0.53674 0.62579 0.39397 0.0
C3051 C 0.53087 0.62882 0.41806 0.0
C3052 C 0.50945 0.63319 0.4236 0.0
C3053 C 0.49432 0.63435 0.40521 0.0
C3054 C 0.55934 0.62102 0.38716 0.0
C3055 C 0.50248 0.63643 0.44902 0.0
H3056 H 0.57224 0.58716 0.46845 0.0
H3057 H 0.58604 0.65344 0.46651 0.0
H3058 H 0.52136 0.59013 0.44116 0.0
H3059 H 0.5414 0.58337 0.42007 0.0
H3060 H 0.54248 0.57251 0.44968 0.0
H3061 H 0.56527 0.67771 0.44489 0.0
H3062 H 0.55964 0.66597 0.41636 0.0
H3063 H 0.53867 0.66993 0.43718 0.0
H3064 H 0.52591 0.62411 0.35769 0.0
H3065 H 0.47803 0.63795 0.40956 0.0
H3066 H 0.56425 0.60569 0.39501 0.0
H3067 H 0.57003 0.63335 0.39441 0.0
H3068 H 0.56156 0.6202 0.36758 0.0
H3069 H 0.50568 0.62191 0.45952 0.0
H3070 H 0.48538 0.64025 0.45038 0.0
H3071 H 0.51169 0.64944 0.45727 0.0
C3072 C 0.37411 0.24626 0.15826 0.0
C3073 C 0.38524 0.24989 0.13701 0.0
C3074 C 0.37263 0.26192 0.17601 0.0
C3075 C 0.38255 0.28179 0.1726 0.0
C3076 C 0.39469 0.28518 0.15176 0.0
C3077 C 0.39583 0.26929 0.13426 0.0
C3078 C 0.35956 0.25755 0.19793 0.0
C3079 C 0.40556 0.30607 0.14731 0.0
C3080 C 0.35606 0.33019 0.19956 0.0
C3081 C 0.36886 0.33469 0.21934 0.0
C3082 C 0.36033 0.31303 0.1845 0.0
C3083 C 0.37794 0.29984 0.18912 0.0
C3084 C 0.39094 0.30417 0.20916 0.0
C3085 C 0.38621 0.32152 0.22411 0.0
C3086 C 0.34598 0.30913 0.16343 0.0
C3087 C 0.40993 0.29059 0.21464 0.0
H3088 H 0.3662 0.23124 0.16089 0.0
H3089 H 0.40431 0.27248 0.1179 0.0
H3090 H 0.36849 0.26189 0.21421 0.0
H3091 H 0.34506 0.26742 0.19753 0.0
H3092 H 0.3548 0.24068 0.19922 0.0
H3093 H 0.41647 0.30535 0.13185 0.0
H3094 H 0.3935 0.31844 0.14378 0.0
H3095 H 0.41463 0.31107 0.16324 0.0
H3096 H 0.34261 0.34024 0.19567 0.0
H3097 H 0.39613 0.32484 0.23938 0.0
H3098 H 0.33919 0.29298 0.16444 0.0
H3099 H 0.35519 0.31011 0.14667 0.0
H3100 H 0.33278 0.3207 0.16247 0.0
H3101 H 0.405 0.27387 0.21688 0.0
H3102 H 0.41828 0.2958 0.23102 0.0
H3103 H 0.42121 0.29111 0.19954 0.0
C3104 C 0.48682 0.64182 0.88182 0.0
C3105 C 0.50667 0.63231 0.88535 0.0
C3106 C 0.47089 0.64084 0.89928 0.0
C3107 C 0.47476 0.63009 0.92098 0.0
C3108 C 0.49505 0.62125 0.92511 0.0
C3109 C 0.5107 0.62245 0.9073 0.0
C3110 C 0.44957 0.65054 0.89405 0.0
C3111 C 0.49992 0.60963 0.94791 0.0
C3112 C 0.4344 0.63595 0.97164 0.0
C3113 C 0.4217 0.61803 0.9681 0.0
C3114 C 0.45191 0.64007 0.95668 0.0
C3115 C 0.45688 0.62587 0.93789 0.0
C3116 C 0.44428 0.60761 0.93465 0.0
C3117 C 0.42695 0.60397 0.94967 0.0
C3118 C 0.4649 0.65973 0.96074 0.0
C3119 C 0.44887 0.59198 0.91497 0.0
H3120 H 0.48361 0.64991 0.86521 0.0
H3121 H 0.52588 0.61494 0.91027 0.0
H3122 H 0.43759 0.63784 0.89214 0.0
H3123 H 0.44449 0.66079 0.90901 0.0
H3124 H 0.44968 0.66009 0.87746 0.0
H3125 H 0.51699 0.6058 0.94961 0.0
H3126 H 0.49503 0.6192 0.96351 0.0
H3127 H 0.4908 0.59465 0.94848 0.0
H3128 H 0.43051 0.64684 0.98586 0.0
H3129 H 0.41731 0.59004 0.94675 0.0
H3130 H 0.4639 0.67016 0.9449 0.0
H3131 H 0.48179 0.65547 0.96313 0.0
H3132 H 0.45953 0.66877 0.97657 0.0
H3133 H 0.44752 0.59992 0.89744 0.0
H3134 H 0.4379 0.57826 0.91522 0.0
H3135 H 0.46529 0.58599 0.91658 0.0
C3136 C 0.11673 0.75785 0.65622 0.0
C3137 C 0.12543 0.75396 0.63363 0.0
C3138 C 0.11745 0.74247 0.67438 0.0
C3139 C 0.1271 0.72262 0.66996 0.0
C3140 C 0.13567 0.7185 0.64712 0.0
C3141 C 0.13474 0.73415 0.62932 0.0
C3142 C 0.10819 0.74759 0.69844 0.0
C3143 C 0.14604 0.69757 0.64152 0.0
C3144 C 0.15018 0.68995 0.72079 0.0
C3145 C 0.13506 0.67392 0.72363 0.0
C3146 C 0.14745 0.7062 0.70397 0.0
C3147 C 0.12915 0.70647 0.68941 0.0
C3148 C 0.11349 0.69065 0.69269 0.0
C3149 C 0.11667 0.67456 0.70973 0.0
C3150 C 0.16454 0.72269 0.70122 0.0
C3151 C 0.09376 0.69025 0.6776 0.0
H3152 H 0.10966 0.77312 0.65989 0.0
H3153 H 0.14117 0.73076 0.61187 0.0
H3154 H 0.0964 0.73542 0.70353 0.0
H3155 H 0.12085 0.74734 0.71212 0.0
H3156 H 0.10044 0.76336 0.69877 0.0
H3157 H 0.15137 0.69656 0.62273 0.0
H3158 H 0.15992 0.69518 0.65329 0.0
H3159 H 0.13485 0.68442 0.64503 0.0
H3160 H 0.1645 0.68951 0.7314 0.0
H3161 H 0.10519 0.66199 0.7114 0.0
H3162 H 0.15767 0.73879 0.70259 0.0
H3163 H 0.17183 0.72132 0.68333 0.0
H3164 H 0.17718 0.72103 0.71483 0.0
H3165 H 0.08572 0.70584 0.67823 0.0
H3166 H 0.08244 0.67786 0.68346 0.0
H3167 H 0.09806 0.68721 0.65878 0.0
C3168 C 0.99482 0.38395 0.40566 0.0
C3169 C 0.99827 0.37247 0.38461 0.0
C3170 C 0.01044 0.38519 0.42351 0.0
C3171 C 0.03008 0.37476 0.42032 0.0
C3172 C 0.03328 0.36237 0.39963 0.0
C3173 C 0.01739 0.36135 0.38213 0.0
C3174 C 0.00629 0.39854 0.44527 0.0
C3175 C 0.05392 0.35095 0.39542 0.0
C3176 C 0.07908 0.40003 0.44736 0.0
C3177 C 0.08332 0.38705 0.46708 0.0
C3178 C 0.06179 0.39624 0.43232 0.0
C3179 C 0.04816 0.37897 0.43694 0.0
C3180 C 0.0522 0.36581 0.45693 0.0
C3181 C 0.06974 0.37003 0.47181 0.0
C3182 C 0.05828 0.41068 0.41125 0.0
C3183 C 0.03808 0.34724 0.46247 0.0
H3184 H 0.98021 0.3927 0.40782 0.0
H3185 H 0.0201 0.35201 0.36625 0.0
H3186 H 0.01057 0.38973 0.46165 0.0
H3187 H 0.01632 0.41293 0.44464 0.0
H3188 H 0.98948 0.40352 0.44653 0.0
H3189 H 0.05318 0.3403 0.37973 0.0
H3190 H 0.0667 0.36268 0.39245 0.0
H3191 H 0.05834 0.34149 0.41128 0.0
H3192 H 0.08945 0.41322 0.44349 0.0
H3193 H 0.07287 0.35997 0.48704 0.0
H3194 H 0.0423 0.41788 0.41222 0.0
H3195 H 0.05905 0.40143 0.3945 0.0
H3196 H 0.07016 0.42359 0.41032 0.0
H3197 H 0.0215 0.35266 0.46458 0.0
H3198 H 0.04299 0.33885 0.47894 0.0
H3199 H 0.03834 0.33586 0.44745 0.0
C3200 C 0.3948 0.73803 0.40252 0.0
C3201 C 0.38376 0.75721 0.40014 0.0
C3202 C 0.39332 0.72203 0.38517 0.0
C3203 C 0.38043 0.72512 0.36484 0.0
C3204 C 0.36985 0.74472 0.36189 0.0
C3205 C 0.3716 0.76047 0.37953 0.0
C3206 C 0.40479 0.70138 0.38921 0.0
C3207 C 0.356 0.74878 0.34049 0.0
C3208 C 0.38452 0.6857 0.31307 0.0
C3209 C 0.36765 0.672 0.31806 0.0
C3210 C 0.38887 0.7032 0.32796 0.0
C3211 C 0.37605 0.70705 0.34826 0.0
C3212 C 0.35897 0.69327 0.35317 0.0
C3213 C 0.35501 0.67604 0.33808 0.0
C3214 C 0.40723 0.71749 0.3221 0.0
C3215 C 0.34491 0.69657 0.37459 0.0
H3216 H 0.40404 0.73514 0.41843 0.0
H3217 H 0.36328 0.77532 0.37725 0.0
H3218 H 0.39312 0.68865 0.39268 0.0
H3219 H 0.41381 0.69683 0.37309 0.0
H3220 H 0.41586 0.70221 0.40453 0.0
H3221 H 0.35055 0.76546 0.33957 0.0
H3222 H 0.36466 0.74494 0.32388 0.0
H3223 H 0.34192 0.73834 0.34122 0.0
H3224 H 0.39435 0.6827 0.29765 0.0
H3225 H 0.34195 0.66556 0.34217 0.0
H3226 H 0.41882 0.71731 0.33691 0.0
H3227 H 0.40163 0.73402 0.3201 0.0
H3228 H 0.41541 0.71267 0.30547 0.0
H3229 H 0.35448 0.69587 0.39112 0.0
H3230 H 0.33216 0.68454 0.3758 0.0
H3231 H 0.33753 0.71248 0.37382 0.0
C3232 C 0.07926 0.60612 0.08899 0.0
C3233 C 0.08304 0.61834 0.06856 0.0
C3234 C 0.06195 0.61008 0.10394 0.0
C3235 C 0.04777 0.62671 0.09845 0.0
C3236 C 0.0514 0.63914 0.07779 0.0
C3237 C 0.06903 0.63484 0.06308 0.0
C3238 C 0.05892 0.59646 0.12577 0.0
C3239 C 0.03668 0.657 0.07128 0.0
C3240 C 0.99417 0.62161 0.12919 0.0
C3241 C 0.99683 0.63445 0.14938 0.0
C3242 C 0.01017 0.61977 0.11186 0.0
C3243 C 0.02944 0.63095 0.11471 0.0
C3244 C 0.03197 0.64446 0.13463 0.0
C3245 C 0.01571 0.64603 0.15165 0.0
C3246 C 0.00672 0.60527 0.09089 0.0
C3247 C 0.05225 0.65655 0.13857 0.0
H3248 H 0.09001 0.59337 0.09348 0.0
H3249 H 0.07182 0.64435 0.04735 0.0
H3250 H 0.05917 0.60646 0.14199 0.0
H3251 H 0.04328 0.58855 0.12508 0.0
H3252 H 0.07135 0.58414 0.12753 0.0
H3253 H 0.04145 0.66502 0.05454 0.0
H3254 H 0.02034 0.6509 0.06918 0.0
H3255 H 0.03635 0.66887 0.08582 0.0
H3256 H 0.97958 0.61285 0.12699 0.0
H3257 H 0.01813 0.65581 0.16725 0.0
H3258 H 0.0176 0.59155 0.09217 0.0
H3259 H 0.01041 0.61364 0.07404 0.0
H3260 H 0.99024 0.59927 0.08999 0.0
H3261 H 0.06526 0.64529 0.1425 0.0
H3262 H 0.051 0.66792 0.15357 0.0
H3263 H 0.05671 0.66535 0.12225 0.0
C3264 C 0.15263 0.31552 0.81569 0.0
C3265 C 0.13707 0.331 0.81212 0.0
C3266 C 0.1499 0.29923 0.83247 0.0
C3267 C 0.13114 0.29837 0.84621 0.0
C3268 C 0.11507 0.31363 0.84218 0.0
C3269 C 0.11826 0.32978 0.82524 0.0
C3270 C 0.16745 0.28335 0.83605 0.0
C3271 C 0.09482 0.31339 0.85637 0.0
C3272 C 0.11929 0.24668 0.879 0.0
C3273 C 0.12703 0.25091 0.90197 0.0
C3274 C 0.12016 0.26203 0.86083 0.0
C3275 C 0.12897 0.2822 0.86561 0.0
C3276 C 0.13657 0.28665 0.88881 0.0
C3277 C 0.13551 0.27103 0.90662 0.0
C3278 C 0.11194 0.25655 0.83638 0.0
C3279 C 0.14602 0.30793 0.89479 0.0
H3280 H 0.16726 0.31641 0.80569 0.0
H3281 H 0.10641 0.34194 0.823 0.0
H3282 H 0.17404 0.28499 0.85426 0.0
H3283 H 0.1612 0.26703 0.8344 0.0
H3284 H 0.1805 0.28544 0.82303 0.0
H3285 H 0.08321 0.32522 0.84979 0.0
H3286 H 0.08747 0.29747 0.85568 0.0
H3287 H 0.09835 0.31686 0.87531 0.0
H3288 H 0.11287 0.23117 0.87508 0.0
H3289 H 0.14118 0.27467 0.92435 0.0
H3290 H 0.12504 0.25723 0.82329 0.0
H3291 H 0.09991 0.26829 0.83072 0.0
H3292 H 0.10477 0.24052 0.83574 0.0
H3293 H 0.1602 0.31078 0.88363 0.0
H3294 H 0.15068 0.30914 0.9138 0.0
H3295 H 0.13451 0.32068 0.89076 0.0
C3296 C 0.48507 0.36104 0.65565 0.0
C3297 C 0.5044 0.37189 0.65381 0.0
C3298 C 0.4696 0.3624 0.6377 0.0
C3299 C 0.47344 0.37487 0.61721 0.0
C3300 C 0.49337 0.3849 0.6146 0.0
C3301 C 0.50856 0.38331 0.63289 0.0
C3302 C 0.44867 0.35136 0.6413 0.0
C3303 C 0.49822 0.39829 0.59306 0.0
C3304 C 0.43437 0.3714 0.56502 0.0
C3305 C 0.42099 0.38858 0.56978 0.0
C3306 C 0.45169 0.36676 0.58007 0.0
C3307 C 0.45573 0.37966 0.60027 0.0
C3308 C 0.44237 0.39715 0.60485 0.0
C3309 C 0.42528 0.40135 0.58964 0.0
C3310 C 0.46551 0.34795 0.57455 0.0
C3311 C 0.44591 0.41135 0.62611 0.0
H3312 H 0.48181 0.35177 0.67145 0.0
H3313 H 0.52335 0.39184 0.63123 0.0
H3314 H 0.4361 0.36331 0.64424 0.0
H3315 H 0.4443 0.34222 0.62519 0.0
H3316 H 0.44896 0.34046 0.6568 0.0
H3317 H 0.51518 0.40277 0.59217 0.0
H3318 H 0.49392 0.38976 0.57651 0.0
H3319 H 0.48862 0.41297 0.59367 0.0
H3320 H 0.43123 0.36152 0.54966 0.0
H3321 H 0.41508 0.41469 0.59353 0.0
H3322 H 0.46462 0.33634 0.58931 0.0
H3323 H 0.48225 0.353 0.57306 0.0
H3324 H 0.46079 0.33995 0.55777 0.0
H3325 H 0.44464 0.402 0.64276 0.0
H3326 H 0.43433 0.42454 0.62694 0.0
H3327 H 0.46207 0.41814 0.62553 0.0
C3328 C 0.10103 0.04784 0.25205 0.0
C3329 C 0.11484 0.0592 0.26676 0.0
C3330 C 0.1009 0.02556 0.25219 0.0
C3331 C 0.1147 0.01443 0.26767 0.0
C3332 C 0.12881 0.02587 0.28239 0.0
C3333 C 0.12887 0.04804 0.28154 0.0
C3334 C 0.08588 0.01392 0.23594 0.0
C3335 C 0.14365 0.01471 0.29932 0.0
C3336 C 0.10117 0.95739 0.28398 0.0
C3337 C 0.1146 0.94603 0.26883 0.0
C3338 C 0.10117 0.97968 0.284 0.0
C3339 C 0.1147 0.99081 0.26824 0.0
C3340 C 0.12843 0.97937 0.25311 0.0
C3341 C 0.12838 0.9572 0.25379 0.0
C3342 C 0.08655 0.99132 0.3007 0.0
C3343 C 0.14298 0.99054 0.23588 0.0
H3344 H 0.09017 0.05636 0.24061 0.0
H3345 H 0.13959 0.05665 0.29303 0.0
H3346 H 0.09486 0.00323 0.22399 0.0
H3347 H 0.07504 0.00391 0.24662 0.0
H3348 H 0.07628 0.02485 0.22486 0.0
H3349 H 0.15328 0.02595 0.30998 0.0
H3350 H 0.13452 0.00455 0.3117 0.0
H3351 H 0.15448 0.00423 0.28922 0.0
H3352 H 0.0905 0.94886 0.29563 0.0
H3353 H 0.13882 0.94859 0.24197 0.0
H3354 H 0.07548 1.00135 0.29035 0.0
H3355 H 0.09582 1.00199 0.3124 0.0
H3356 H 0.07721 0.98038 0.31204 0.0
H3357 H 0.13364 1.00081 0.22379 0.0
H3358 H 0.15232 0.9793 0.22489 0.0
H3359 H 0.15407 1.00091 0.24576 0.0
C3360 C 0.20753 0.87723 0.53156 0.0
C3361 C 0.19651 0.86319 0.51669 0.0
C3362 C 0.22969 0.87733 0.53244 0.0
C3363 C 0.24125 0.86338 0.51767 0.0
C3364 C 0.23025 0.84958 0.50208 0.0
C3365 C 0.20798 0.84953 0.5019 0.0
C3366 C 0.24072 0.89218 0.54947 0.0
C3367 C 0.24202 0.83472 0.48577 0.0
C3368 C 0.29839 0.87752 0.50423 0.0
C3369 C 0.30957 0.86372 0.51926 0.0
C3370 C 0.27623 0.87742 0.50339 0.0
C3371 C 0.26483 0.8635 0.51835 0.0
C3372 C 0.27598 0.84996 0.53411 0.0
C3373 C 0.29825 0.85011 0.53424 0.0
C3374 C 0.26505 0.89198 0.48617 0.0
C3375 C 0.26436 0.83516 0.55063 0.0
H3376 H 0.19884 0.88784 0.5431 0.0
H3377 H 0.19955 0.83866 0.49039 0.0
H3378 H 0.25099 0.88306 0.56178 0.0
H3379 H 0.25106 0.90319 0.53945 0.0
H3380 H 0.2294 0.90162 0.56023 0.0
H3381 H 0.23118 0.82514 0.47456 0.0
H3382 H 0.25271 0.84383 0.47395 0.0
H3383 H 0.25204 0.82385 0.49642 0.0
H3384 H 0.30697 0.88809 0.49254 0.0
H3385 H 0.30679 0.83943 0.54587 0.0
H3386 H 0.25447 0.90288 0.49602 0.0
H3387 H 0.25501 0.88262 0.47387 0.0
H3388 H 0.27627 0.90153 0.4754 0.0
H3389 H 0.25359 0.84431 0.56234 0.0
H3390 H 0.27531 0.82581 0.56197 0.0
H3391 H 0.25445 0.82409 0.54015 0.0
C3392 C 0.4055 0.95776 0.75274 0.0
C3393 C 0.39191 0.94654 0.76783 0.0
C3394 C 0.4056 0.98005 0.75259 0.0
C3395 C 0.39202 0.99132 0.76817 0.0
C3396 C 0.37816 0.98001 0.78329 0.0
C3397 C 0.37812 0.95783 0.78274 0.0
C3398 C 0.42034 0.99154 0.7359 0.0
C3399 C 0.36357 0.99132 0.80035 0.0
C3400 C 0.40578 0.04848 0.78363 0.0
C3401 C 0.39207 0.05972 0.76867 0.0
C3402 C 0.40581 0.0262 0.78384 0.0
C3403 C 0.39203 0.01494 0.76846 0.0
C3404 C 0.37803 0.02626 0.7535 0.0
C3405 C 0.37806 0.04844 0.75399 0.0
C3406 C 0.42074 0.01469 0.80033 0.0
C3407 C 0.36322 0.01496 0.73666 0.0
H3408 H 0.41617 0.94913 0.74119 0.0
H3409 H 0.36758 0.94932 0.79453 0.0
H3410 H 0.41115 1.00212 0.724 0.0
H3411 H 0.43135 1.00164 0.74623 0.0
H3412 H 0.42975 0.9805 0.72476 0.0
H3413 H 0.35403 0.98018 0.81124 0.0
H3414 H 0.3729 1.0015 0.81253 0.0
H3415 H 0.35265 1.00179 0.79035 0.0
H3416 H 0.41662 0.0571 0.79499 0.0
H3417 H 0.36742 0.05696 0.74231 0.0
H3418 H 0.43169 0.00465 0.78983 0.0
H3419 H 0.4117 0.00404 0.81227 0.0
H3420 H 0.43023 0.02571 0.81141 0.0
H3421 H 0.37238 0.00473 0.72439 0.0
H3422 H 0.35359 0.02611 0.72587 0.0
H3423 H 0.35238 0.00455 0.74683 0.0
C3424 C 0.20807 0.15377 0.03383 0.0
C3425 C 0.19626 0.13999 0.01954 0.0
C3426 C 0.23033 0.15335 0.03345 0.0
C3427 C 0.24097 0.13902 0.01815 0.0
C3428 C 0.22908 0.12475 1.00412 0.0
C3429 C 0.20693 0.12525 1.0052 0.0
C3430 C 0.24247 0.16857 0.04899 0.0
C3431 C 0.23971 0.10935 0.98741 0.0
C3432 C 0.29702 0.15338 0.99925 0.0
C3433 C 0.30918 0.14074 1.0145 0.0
C3434 C 0.27479 0.15264 0.9999 0.0
C3435 C 0.26451 0.1392 1.01646 0.0
C3436 C 0.27675 0.12605 0.0315 0.0
C3437 C 0.29889 0.12681 0.03014 0.0
C3438 C 0.26229 0.1666 0.98323 0.0
C3439 C 0.26648 0.11163 0.04954 0.0
H3440 H 0.19992 0.16515 0.04497 0.0
H3441 H 0.19796 0.11449 0.9941 0.0
H3442 H 0.25373 0.15978 0.06046 0.0
H3443 H 0.2519 0.17944 0.03771 0.0
H3444 H 0.2319 0.17815 0.06053 0.0
H3445 H 0.22818 0.09907 0.97799 0.0
H3446 H 0.24902 0.11815 0.97391 0.0
H3447 H 0.25092 0.09918 0.99739 0.0
H3448 H 0.30488 0.16416 0.98715 0.0
H3449 H 0.30816 0.11702 0.04205 0.0
H3450 H 0.25266 0.17796 0.99365 0.0
H3451 H 0.2512 0.15688 0.97253 0.0
H3452 H 0.27263 0.17563 0.9709 0.0
H3453 H 0.25682 0.12108 0.06213 0.0
H3454 H 0.27826 0.1024 0.05993 0.0
H3455 H 0.25565 0.10043 0.04046 0.0
C3456 C 0.87687 0.04972 0.78096 0.0
C3457 C 0.89092 0.0609 0.76626 0.0
C3458 C 0.87686 0.02754 0.78168 0.0
C3459 C 0.89094 0.01612 0.76693 0.0
C3460 C 0.90474 0.02727 0.75149 0.0
C3461 C 0.90468 0.04956 0.75147 0.0
C3462 C 0.86201 0.01636 0.79856 0.0
C3463 C 0.91973 0.01565 0.7352 0.0
C3464 C 0.9046 0.95916 0.78346 0.0
C3465 C 0.89117 0.94772 0.76838 0.0
C3466 C 0.90457 0.98144 0.78336 0.0
C3467 C 0.89101 0.9925 0.76755 0.0
C3468 C 0.87728 0.98098 0.75247 0.0
C3469 C 0.87736 0.9588 0.75327 0.0
C3470 C 0.91919 0.99316 0.8 0.0
C3471 C 0.8627 0.99207 0.73519 0.0
H3472 H 0.86618 0.05831 0.7925 0.0
H3473 H 0.91556 0.0581 0.74009 0.0
H3474 H 0.85129 0.00577 0.78846 0.0
H3475 H 0.87116 0.00631 0.81106 0.0
H3476 H 0.85227 0.02758 0.80911 0.0
H3477 H 0.92924 0.02659 0.72405 0.0
H3478 H 0.93066 0.0057 0.74587 0.0
H3479 H 0.91074 0.00489 0.72333 0.0
H3480 H 0.91529 0.95069 0.79516 0.0
H3481 H 0.86694 0.95014 0.74148 0.0
H3482 H 0.90991 0.00385 0.81167 0.0
H3483 H 0.93023 0.00318 0.7896 0.0
H3484 H 0.92858 0.98228 0.81137 0.0
H3485 H 0.85159 1.00244 0.74503 0.0
H3486 H 0.85337 0.98078 0.72426 0.0
H3487 H 0.872 1.00232 0.72307 0.0
C3488 C 0.70742 0.1277 0.53188 0.0
C3489 C 0.6962 0.14142 0.5168 0.0
C3490 C 0.72959 0.12789 0.53273 0.0
C3491 C 0.74095 0.1418 0.51772 0.0
C3492 C 0.72976 0.15531 0.50198 0.0
C3493 C 0.70748 0.15508 0.50184 0.0
C3494 C 0.74082 0.11335 0.54993 0.0
C3495 C 0.74131 0.17012 0.48542 0.0
C3496 C 0.79795 0.15575 0.53364 0.0
C3497 C 0.8093 0.14208 0.51875 0.0
C3498 C 0.77568 0.15569 0.5337 0.0
C3499 C 0.76455 0.14188 0.51824 0.0
C3500 C 0.77599 0.1279 0.50338 0.0
C3501 C 0.79815 0.12801 0.50402 0.0
C3502 C 0.76403 0.17056 0.55011 0.0
C3503 C 0.76483 0.11305 0.48646 0.0
H3504 H 0.69887 0.11711 0.54357 0.0
H3505 H 0.69891 0.16571 0.49017 0.0
H3506 H 0.75114 0.10225 0.54001 0.0
H3507 H 0.75114 0.12269 0.56196 0.0
H3508 H 0.72963 0.10401 0.56097 0.0
H3509 H 0.73033 0.17954 0.4742 0.0
H3510 H 0.75133 0.18114 0.49586 0.0
H3511 H 0.75198 0.16097 0.4736 0.0
H3512 H 0.80647 0.16663 0.54505 0.0
H3513 H 0.80675 0.11739 0.49241 0.0
H3514 H 0.7534 0.16146 0.56201 0.0
H3515 H 0.75397 0.18145 0.53955 0.0
H3516 H 0.77496 0.18012 0.56125 0.0
H3517 H 0.7544 0.10218 0.49656 0.0
H3518 H 0.77607 0.10346 0.47576 0.0
H3519 H 0.75464 0.12219 0.4741 0.0
C3520 C 0.62829 0.04744 0.25425 0.0
C3521 C 0.61396 0.05843 0.26879 0.0
C3522 C 0.62854 0.02526 0.25347 0.0
C3523 C 0.61441 0.01366 0.26798 0.0
C3524 C 0.60034 0.02463 0.28328 0.0
C3525 C 0.60018 0.04691 0.28338 0.0
C3526 C 0.64368 0.01427 0.23676 0.0
C3527 C 0.58528 0.01282 0.29931 0.0
C3528 C 0.6012 0.95669 0.25123 0.0
C3529 C 0.61449 0.9453 0.26654 0.0
C3530 C 0.60119 0.97897 0.25127 0.0
C3531 C 0.61454 0.99006 0.26727 0.0
C3532 C 0.62815 0.9786 0.28254 0.0
C3533 C 0.62813 0.95642 0.28179 0.0
C3534 C 0.58672 0.99064 0.23442 0.0
C3535 C 0.6425 0.98974 0.30002 0.0
H3536 H 0.639 0.05617 0.24287 0.0
H3537 H 0.58909 0.0553 0.29464 0.0
H3538 H 0.65441 0.00378 0.24698 0.0
H3539 H 0.63476 0.00413 0.22414 0.0
H3540 H 0.65339 0.02561 0.22635 0.0
H3541 H 0.57556 0.02364 0.31039 0.0
H3542 H 0.57455 0.00284 0.28845 0.0
H3543 H 0.59423 1.00208 0.31125 0.0
H3544 H 0.59065 0.94819 0.23941 0.0
H3545 H 0.63843 0.94779 0.29375 0.0
H3546 H 0.59607 1.00143 0.22295 0.0
H3547 H 0.57546 1.00055 0.24467 0.0
H3548 H 0.57756 0.97973 0.22285 0.0
H3549 H 0.65361 1.00023 0.29034 0.0
H3550 H 0.65181 0.97848 0.31102 0.0
H3551 H 0.63301 0.99988 0.31208 0.0
C3552 C 0.70734 0.87808 1.00369 0.0
C3553 C 0.6963 0.86379 0.01823 0.0
C3554 C 0.7295 0.87831 1.003 0.0
C3555 C 0.74104 0.8642 1.01762 0.0
C3556 C 0.73002 0.85012 0.03286 0.0
C3557 C 0.70775 0.84997 0.03286 0.0
C3558 C 0.74054 0.89345 0.98632 0.0
C3559 C 0.74177 0.83508 0.049 0.0
C3560 C 0.79819 0.85157 1.00119 0.0
C3561 C 0.80937 0.86506 1.01646 0.0
C3562 C 0.77593 0.85123 1.00121 0.0
C3563 C 0.76463 0.86446 1.01714 0.0
C3564 C 0.77587 0.87823 0.03243 0.0
C3565 C 0.79804 0.87852 0.03171 0.0
C3566 C 0.76449 0.83659 0.98434 0.0
C3567 C 0.76452 0.89245 0.04984 0.0
H3568 H 0.69866 0.88883 0.99228 0.0
H3569 H 0.6993 0.83891 0.04411 0.0
H3570 H 0.7509 0.90427 0.9966 0.0
H3571 H 0.7508 0.88454 0.97383 0.0
H3572 H 0.72923 0.90309 0.97576 0.0
H3573 H 0.73091 0.82526 0.05992 0.0
H3574 H 0.75192 0.82443 0.03824 0.0
H3575 H 0.75232 0.84408 0.06109 0.0
H3576 H 0.80686 0.84114 0.98939 0.0
H3577 H 0.80651 0.88898 0.04364 0.0
H3578 H 0.75373 0.84583 0.9727 0.0
H3579 H 0.75457 0.82533 0.99456 0.0
H3580 H 0.77554 0.82745 0.97295 0.0
H3581 H 0.75407 0.90356 0.04008 0.0
H3582 H 0.77563 0.90178 0.06101 0.0
H3583 H 0.75432 0.88288 0.06175 0.0
C3584 C 0.60183 0.54715 0.75424 0.0
C3585 C 0.61611 0.5587 0.76818 0.0
C3586 C 0.602 0.52488 0.75444 0.0
C3587 C 0.61663 0.51398 0.76914 0.0
C3588 C 0.63129 0.52561 0.78293 0.0
C3589 C 0.631 0.54777 0.78207 0.0
C3590 C 0.58632 0.51301 0.73921 0.0
C3591 C 0.64705 0.51466 0.79895 0.0
C3592 C 0.60358 0.45728 0.78698 0.0
C3593 C 0.61605 0.44569 0.77104 0.0
C3594 C 0.60385 0.47954 0.78682 0.0
C3595 C 0.61666 0.4904 0.77009 0.0
C3596 C 0.62955 0.47873 0.75427 0.0
C3597 C 0.62926 0.45657 0.75511 0.0
C3598 C 0.59018 0.49145 0.80429 0.0
C3599 C 0.64332 0.48963 0.73604 0.0
H3600 H 0.59031 0.5555 0.74348 0.0
H3601 H 0.64212 0.55656 0.7929 0.0
H3602 H 0.59477 0.5021 0.72703 0.0
H3603 H 0.57592 0.50321 0.75066 0.0
H3604 H 0.57628 0.52379 0.72843 0.0
H3605 H 0.65698 0.52604 0.80907 0.0
H3606 H 0.63867 0.50434 0.81183 0.0
H3607 H 0.65756 0.50436 0.78821 0.0
H3608 H 0.59338 0.44895 0.79931 0.0
H3609 H 0.63894 0.44775 0.74268 0.0
H3610 H 0.57859 0.50137 0.79453 0.0
H3611 H 0.60008 0.50225 0.81516 0.0
H3612 H 0.58144 0.4807 0.81642 0.0
H3613 H 0.63341 0.4995 0.72412 0.0
H3614 H 0.65236 0.47823 0.72495 0.0
H3615 H 0.65466 0.50035 0.74506 0.0
C3616 C 0.79605 0.37389 1.001 0.0
C3617 C 0.80763 0.36769 0.02115 0.0
C3618 C 0.77389 0.37382 1.00104 0.0
C3619 C 0.76296 0.36804 0.022 0.0
C3620 C 0.77458 0.36276 0.0428 0.0
C3621 C 0.79683 0.36223 0.04198 0.0
C3622 C 0.76228 0.37888 0.97824 0.0
C3623 C 0.76348 0.3573 0.06577 0.0
C3624 C 0.70415 0.38101 0.02555 0.0
C3625 C 0.69514 0.36101 0.02223 0.0
C3626 C 0.72625 0.38358 0.02585 0.0
C3627 C 0.73949 0.36588 0.02157 0.0
C3628 C 0.73029 0.3459 1.01684 0.0
C3629 C 0.70826 0.34362 0.01784 0.0
C3630 C 0.73542 0.40496 0.03186 0.0
C3631 C 0.74372 0.3268 1.0112 0.0
H3632 H 0.8043 0.37794 0.98474 0.0
H3633 H 0.80578 0.35758 0.05759 0.0
H3634 H 0.75433 0.3644 0.97156 0.0
H3635 H 0.74983 0.3909 0.98141 0.0
H3636 H 0.77306 0.38484 0.96414 0.0
H3637 H 0.77467 0.35601 0.08094 0.0
H3638 H 0.75142 0.36948 0.07003 0.0
H3639 H 0.75509 0.34199 0.06382 0.0
H3640 H 0.69402 0.39441 0.02925 0.0
H3641 H 0.70123 0.32813 1.01543 0.0
H3642 H 0.74668 0.41008 0.01788 0.0
H3643 H 0.7444 0.40387 0.04879 0.0
H3644 H 0.72301 0.41727 0.03386 0.0
H3645 H 0.75477 0.33047 0.99643 0.0
H3646 H 0.73404 0.31286 1.00608 0.0
H3647 H 0.75342 0.3225 0.02692 0.0
C3648 C 0.87548 0.55003 0.25453 0.0
C3649 C 0.88974 0.56142 0.26878 0.0
C3650 C 0.87545 0.52784 0.25426 0.0
C3651 C 0.88975 0.51665 0.26899 0.0
C3652 C 0.90379 0.52803 0.28395 0.0
C3653 C 0.90372 0.5503 0.28354 0.0
C3654 C 0.86035 0.51641 0.23787 0.0
C3655 C 0.91905 0.51666 0.30017 0.0
C3656 C 0.87634 0.45961 0.28416 0.0
C3657 C 0.88988 0.44828 0.26902 0.0
C3658 C 0.87627 0.4818 0.28446 0.0
C3659 C 0.88979 0.49304 0.26889 0.0
C3660 C 0.90311 0.48171 0.25309 0.0
C3661 C 0.90311 0.45943 0.25346 0.0
C3662 C 0.86196 0.4932 0.30173 0.0
C3663 C 0.91749 0.49313 0.23594 0.0
H3664 H 0.86462 0.55845 0.24302 0.0
H3665 H 0.91477 0.55901 0.29456 0.0
H3666 H 0.86932 0.50616 0.22542 0.0
H3667 H 0.84978 0.50598 0.24838 0.0
H3668 H 0.85046 0.52747 0.22727 0.0
H3669 H 0.9287 0.52777 0.31096 0.0
H3670 H 0.91026 0.50604 0.31238 0.0
H3671 H 0.92984 0.5066 0.28949 0.0
H3672 H 0.86609 0.45114 0.29631 0.0
H3673 H 0.91359 0.45075 0.24174 0.0
H3674 H 0.8509 0.50364 0.29188 0.0
H3675 H 0.87149 0.50342 0.31367 0.0
H3676 H 0.85258 0.48211 0.31286 0.0
H3677 H 0.90805 0.50361 0.22419 0.0
H3678 H 0.92671 0.48204 0.22465 0.0
H3679 H 0.92868 0.50332 0.24592 0.0
C3680 C 0.70642 0.62345 0.50343 0.0
C3681 C 0.69615 0.63713 0.51938 0.0
C3682 C 0.72851 0.6233 0.50129 0.0
C3683 C 0.74077 0.63678 0.51588 0.0
C3684 C 0.73057 0.65003 0.53272 0.0
C3685 C 0.70835 0.65017 0.53414 0.0
C3686 C 0.73867 0.60904 0.483 0.0
C3687 C 0.74314 0.66435 0.5489 0.0
C3688 C 0.79878 0.62385 0.5256 0.0
C3689 C 0.80887 0.63878 0.51097 0.0
C3690 C 0.77668 0.62296 0.52726 0.0
C3691 C 0.76425 0.63701 0.51353 0.0
C3692 C 0.77429 0.65142 0.49782 0.0
C3693 C 0.79652 0.65225 0.49686 0.0
C3694 C 0.76669 0.60747 0.54436 0.0
C3695 C 0.76154 0.66634 0.48252 0.0
H3696 H 0.69716 0.61329 0.49193 0.0
H3697 H 0.70051 0.66075 0.54649 0.0
H3698 H 0.74817 0.61859 0.47036 0.0
H3699 H 0.74964 0.59785 0.49188 0.0
H3700 H 0.72684 0.59981 0.4727 0.0
H3701 H 0.73289 0.67332 0.56139 0.0
H3702 H 0.75461 0.65491 0.55942 0.0
H3703 H 0.75237 0.67579 0.53812 0.0
H3704 H 0.8082 0.61336 0.53659 0.0
H3705 H 0.80422 0.66378 0.48553 0.0
H3706 H 0.75536 0.59713 0.53478 0.0
H3707 H 0.75762 0.61617 0.55812 0.0
H3708 H 0.77859 0.59735 0.55342 0.0
H3709 H 0.75015 0.6573 0.47147 0.0
H3710 H 0.77168 0.67599 0.47059 0.0
H3711 H 0.75222 0.67715 0.494 0.0
C3712 C 0.37715 0.5489 0.28203 0.0
C3713 C 0.39122 0.55995 0.26724 0.0
C3714 C 0.37721 0.52675 0.28304 0.0
C3715 C 0.39136 0.51524 0.26848 0.0
C3716 C 0.40521 0.52625 0.25297 0.0
C3717 C 0.40509 0.54852 0.25267 0.0
C3718 C 0.36232 0.51569 0.29999 0.0
C3719 C 0.42027 0.51451 0.23688 0.0
C3720 C 0.4047 0.45837 0.28546 0.0
C3721 C 0.39121 0.44696 0.27042 0.0
C3722 C 0.4048 0.48064 0.28519 0.0
C3723 C 0.39135 0.49167 0.26924 0.0
C3724 C 0.37757 0.48017 0.25421 0.0
C3725 C 0.3775 0.45802 0.25519 0.0
C3726 C 0.41943 0.49238 0.30181 0.0
C3727 C 0.36311 0.49124 0.23678 0.0
H3728 H 0.36638 0.55757 0.29339 0.0
H3729 H 0.41598 0.55699 0.24123 0.0
H3730 H 0.35143 0.50526 0.2899 0.0
H3731 H 0.37141 0.50549 0.3124 0.0
H3732 H 0.35276 0.52699 0.31063 0.0
H3733 H 0.42988 0.52537 0.22574 0.0
H3734 H 0.43108 0.50457 0.24768 0.0
H3735 H 0.41131 0.50373 0.22498 0.0
H3736 H 0.41531 0.4499 0.29724 0.0
H3737 H 0.36702 0.44936 0.24347 0.0
H3738 H 0.41016 0.50313 0.3134 0.0
H3739 H 0.43052 0.50233 0.29139 0.0
H3740 H 0.42877 0.48151 0.31325 0.0
H3741 H 0.35205 0.50177 0.24649 0.0
H3742 H 0.35374 0.47994 0.22591 0.0
H3743 H 0.37252 0.50133 0.22459 0.0
C3744 C 0.29726 0.6272 1.00276 0.0
C3745 C 0.30837 0.64116 1.01765 0.0
C3746 C 0.27508 0.62704 1.0021 0.0
C3747 C 0.26359 0.64088 1.01709 0.0
C3748 C 0.27469 0.65463 0.03265 0.0
C3749 C 0.29697 0.65472 0.03261 0.0
C3750 C 0.26397 0.61228 0.98506 0.0
C3751 C 0.26302 0.66937 0.04918 0.0
C3752 C 0.2064 0.65426 1.00131 0.0
C3753 C 0.19519 0.6406 1.01634 0.0
C3754 C 0.22868 0.65438 1.00115 0.0
C3755 C 0.23997 0.64072 1.01665 0.0
C3756 C 0.22868 0.62675 0.03167 0.0
C3757 C 0.2065 0.62671 0.03113 0.0
C3758 C 0.24014 0.66928 0.98461 0.0
C3759 C 0.24002 0.61208 0.04863 0.0
H3760 H 0.3059 0.61669 0.99106 0.0
H3761 H 0.30545 0.66553 0.04414 0.0
H3762 H 0.25347 0.60139 0.99506 0.0
H3763 H 0.25384 0.62148 0.97271 0.0
H3764 H 0.27523 0.60271 0.97437 0.0
H3765 H 0.25286 0.68026 0.03872 0.0
H3766 H 0.25247 0.66016 0.06107 0.0
H3767 H 0.27393 0.67894 0.06033 0.0
H3768 H 0.19776 0.66502 0.98986 0.0
H3769 H 0.19801 0.61611 0.04288 0.0
H3770 H 0.2509 0.66023 0.9728 0.0
H3771 H 0.25005 0.68037 0.99508 0.0
H3772 H 0.22909 0.67862 0.97338 0.0
H3773 H 0.25049 0.60123 0.03855 0.0
H3774 H 0.2289 0.60247 0.05946 0.0
H3775 H 0.2502 0.62136 0.06087 0.0
C3776 C 0.13097 0.45567 0.77883 0.0
C3777 C 0.11604 0.4456 0.76421 0.0
C3778 C 0.13213 0.47781 0.78014 0.0
C3779 C 0.11832 0.49023 0.76609 0.0
C3780 C 0.10396 0.48016 0.75035 0.0
C3781 C 0.10289 0.45794 0.74973 0.0
C3782 C 0.14754 0.48786 0.79728 0.0
C3783 C 0.08924 0.49286 0.73475 0.0
C3784 C 0.10358 0.54596 0.78576 0.0
C3785 C 0.11619 0.55837 0.77077 0.0
C3786 C 0.1046 0.52375 0.78493 0.0
C3787 C 0.11832 0.51374 0.76846 0.0
C3788 C 0.13157 0.52622 0.75383 0.0
C3789 C 0.13051 0.54836 0.75535 0.0
C3790 C 0.0905 0.51098 0.80117 0.0
C3791 C 0.14631 0.51624 0.73591 0.0
H3792 H 0.14122 0.44626 0.7901 0.0
H3793 H 0.09137 0.45024 0.73837 0.0
H3794 H 0.15772 0.4994 0.78782 0.0
H3795 H 0.13875 0.49669 0.81117 0.0
H3796 H 0.15781 0.47599 0.80619 0.0
H3797 H 0.07981 0.48269 0.72262 0.0
H3798 H 0.07822 0.50213 0.74602 0.0
H3799 H 0.09839 0.5043 0.72389 0.0
H3800 H 0.09252 0.55362 0.79771 0.0
H3801 H 0.14031 0.55781 0.74366 0.0
H3802 H 0.10008 0.49957 0.8116 0.0
H3803 H 0.07911 0.50168 0.79039 0.0
H3804 H 0.08148 0.52112 0.81372 0.0
H3805 H 0.15709 0.50494 0.74493 0.0
H3806 H 0.15597 0.52816 0.72628 0.0
H3807 H 0.13704 0.50712 0.72267 0.0
C3808 C 0.20682 0.37845 0.50451 0.0
C3809 C 0.19557 0.36422 0.51893 0.0
C3810 C 0.22901 0.37869 0.50427 0.0
C3811 C 0.24033 0.36465 0.51917 0.0
C3812 C 0.22908 0.35063 0.53427 0.0
C3813 C 0.20681 0.35048 0.53386 0.0
C3814 C 0.2403 0.39376 0.48773 0.0
C3815 C 0.24059 0.33562 0.55067 0.0
C3816 C 0.29764 0.35168 0.50369 0.0
C3817 C 0.30871 0.36514 0.51908 0.0
C3818 C 0.27537 0.35146 0.50337 0.0
C3819 C 0.26395 0.36482 0.51905 0.0
C3820 C 0.2751 0.37856 0.53447 0.0
C3821 C 0.29728 0.37871 0.53412 0.0
C3822 C 0.26406 0.33682 0.4864 0.0
C3823 C 0.2636 0.39292 0.55162 0.0
H3824 H 0.1983 0.38911 0.49286 0.0
H3825 H 0.19821 0.33946 0.54501 0.0
H3826 H 0.25064 0.40451 0.49813 0.0
H3827 H 0.25061 0.38478 0.47536 0.0
H3828 H 0.22915 0.40348 0.47704 0.0
H3829 H 0.25076 0.32484 0.54012 0.0
H3830 H 0.2511 0.34462 0.56281 0.0
H3831 H 0.22957 0.32595 0.56155 0.0
H3832 H 0.30638 0.34117 0.49205 0.0
H3833 H 0.30568 0.38913 0.54616 0.0
H3834 H 0.25349 0.34607 0.47455 0.0
H3835 H 0.25397 0.32564 0.49651 0.0
H3836 H 0.27521 0.32758 0.47521 0.0
H3837 H 0.25308 0.40384 0.54168 0.0
H3838 H 0.27462 0.40247 0.56266 0.0
H3839 H 0.25346 0.3834 0.56364 0.0
C3840 C 0.11656 0.11919 0.093 0.0
C3841 C 0.1181 0.13749 0.07885 0.0
C3842 C 0.11493 0.12032 0.11795 0.0
C3843 C 0.11496 0.14026 0.12946 0.0
C3844 C 0.11563 0.15886 0.11527 0.0
C3845 C 0.11711 0.15727 0.09019 0.0
C3846 C 0.1141 0.10001 0.13207 0.0
C3847 C 0.11576 0.18046 0.12666 0.0
C3848 C 0.09946 0.13983 0.19566 0.0
C3849 C 0.11925 0.1379 0.20683 0.0
C3850 C 0.09776 0.14148 0.17059 0.0
C3851 C 0.11626 0.14133 0.15625 0.0
C3852 C 0.13626 0.14037 0.16758 0.0
C3853 C 0.13749 0.13863 0.19252 0.0
C3854 C 0.07611 0.14244 0.15939 0.0
C3855 C 0.15648 0.14027 0.15329 0.0
H3856 H 0.11711 0.10378 0.08458 0.0
H3857 H 0.11838 0.17152 0.07957 0.0
H3858 H 0.12876 0.09834 0.14276 0.0
H3859 H 0.10062 0.10034 0.14468 0.0
H3860 H 0.1125 0.08586 0.12049 0.0
H3861 H 0.11403 0.19333 0.11334 0.0
H3862 H 0.10281 0.18179 0.13987 0.0
H3863 H 0.13087 0.18279 0.13635 0.0
H3864 H 0.08525 0.13921 0.2064 0.0
H3865 H 0.15292 0.13734 0.20079 0.0
H3866 H 0.07302 0.12752 0.14959 0.0
H3867 H 0.0753 0.15554 0.14629 0.0
H3868 H 0.06343 0.14467 0.17283 0.0
H3869 H 0.1573 0.12565 0.14241 0.0
H3870 H 0.17078 0.14099 0.16476 0.0
H3871 H 0.15676 0.15389 0.14085 0.0
C3872 C 0.11667 0.8477 0.44514 0.0
C3873 C 0.11801 0.8674 0.4566 0.0
C3874 C 0.11511 0.84626 0.42004 0.0
C3875 C 0.11473 0.86494 0.40597 0.0
C3876 C 0.11509 0.88482 0.4176 0.0
C3877 C 0.11676 0.88579 0.44255 0.0
C3878 C 0.11482 0.82472 0.40852 0.0
C3879 C 0.11461 0.90522 0.40361 0.0
C3880 C 0.1369 0.8665 0.34275 0.0
C3881 C 0.11859 0.86762 0.32857 0.0
C3882 C 0.1358 0.86466 0.36769 0.0
C3883 C 0.11586 0.86399 0.37916 0.0
C3884 C 0.09727 0.86426 0.36494 0.0
C3885 C 0.09884 0.86601 0.33987 0.0
C3886 C 0.1561 0.86432 0.38185 0.0
C3887 C 0.07568 0.86365 0.37629 0.0
H3888 H 0.11771 0.83338 0.45567 0.0
H3889 H 0.1176 0.90115 0.45106 0.0
H3890 H 0.10176 0.82368 0.39538 0.0
H3891 H 0.12983 0.8222 0.3987 0.0
H3892 H 0.11297 0.81181 0.42176 0.0
H3893 H 0.11346 0.91935 0.41528 0.0
H3894 H 0.1292 0.90659 0.39277 0.0
H3895 H 0.10101 0.90526 0.39114 0.0
H3896 H 0.1523 0.86756 0.33439 0.0
H3897 H 0.08457 0.86693 0.32924 0.0
H3898 H 0.15623 0.85063 0.39419 0.0
H3899 H 0.15725 0.87886 0.39282 0.0
H3900 H 0.17031 0.86341 0.37028 0.0
H3901 H 0.07469 0.85046 0.38926 0.0
H3902 H 0.06287 0.86177 0.36292 0.0
H3903 H 0.07293 0.87855 0.38625 0.0
C3904 C 0.36826 0.86669 0.69304 0.0
C3905 C 0.38653 0.86782 0.70727 0.0
C3906 C 0.36942 0.86485 0.66811 0.0
C3907 C 0.38938 0.86424 0.65669 0.0
C3908 C 0.40794 0.8645 0.67097 0.0
C3909 C 0.40631 0.86619 0.69604 0.0
C3910 C 0.34914 0.86448 0.6539 0.0
C3911 C 0.42956 0.86394 0.65969 0.0
C3912 C 0.38879 0.84821 0.59062 0.0
C3913 C 0.38747 0.86796 0.57923 0.0
C3914 C 0.39027 0.84668 0.61572 0.0
C3915 C 0.39057 0.8653 0.62989 0.0
C3916 C 0.3902 0.88523 0.61834 0.0
C3917 C 0.38862 0.88629 0.59337 0.0
C3918 C 0.39056 0.8251 0.62715 0.0
C3919 C 0.3906 0.90557 0.63243 0.0
H3920 H 0.35284 0.86773 0.70138 0.0
H3921 H 0.42054 0.86714 0.70672 0.0
H3922 H 0.34792 0.87911 0.64307 0.0
H3923 H 0.34914 0.8509 0.64141 0.0
H3924 H 0.33492 0.86337 0.66543 0.0
H3925 H 0.44233 0.86199 0.67309 0.0
H3926 H 0.43058 0.85083 0.64662 0.0
H3927 H 0.43232 0.8789 0.64984 0.0
H3928 H 0.38783 0.83393 0.58003 0.0
H3929 H 0.38779 0.90169 0.58494 0.0
H3930 H 0.37554 0.82251 0.63691 0.0
H3931 H 0.4036 0.82402 0.64031 0.0
H3932 H 0.39246 0.81224 0.61385 0.0
H3933 H 0.37597 0.90687 0.64322 0.0
H3934 H 0.39174 0.91975 0.62082 0.0
H3935 H 0.40417 0.90559 0.64493 0.0
C3936 C 0.36879 0.13968 0.84215 0.0
C3937 C 0.38711 0.13917 0.82795 0.0
C3938 C 0.36986 0.14181 0.86704 0.0
C3939 C 0.38978 0.14345 0.87844 0.0
C3940 C 0.40834 0.14387 0.8642 0.0
C3941 C 0.40679 0.14178 0.83917 0.0
C3942 C 0.34959 0.14134 0.88123 0.0
C3943 C 0.4299 0.14558 0.87549 0.0
C3944 C 0.38785 0.15988 0.94429 0.0
C3945 C 0.38732 0.14016 0.95579 0.0
C3946 C 0.38961 0.16133 0.91922 0.0
C3947 C 0.39098 0.14266 0.90523 0.0
C3948 C 0.39151 0.12281 0.91692 0.0
C3949 C 0.38965 0.12182 0.94185 0.0
C3950 C 0.38899 0.18283 0.90761 0.0
C3951 C 0.39303 0.10242 0.90301 0.0
H3952 H 0.35343 0.13788 0.83384 0.0
H3953 H 0.42106 0.14136 0.82851 0.0
H3954 H 0.34912 0.12684 0.89233 0.0
H3955 H 0.34888 0.1551 0.89345 0.0
H3956 H 0.33533 0.14154 0.86968 0.0
H3957 H 0.44255 0.14811 0.86209 0.0
H3958 H 0.43026 0.1588 0.88847 0.0
H3959 H 0.43343 0.13084 0.88544 0.0
H3960 H 0.38599 0.17416 0.95474 0.0
H3961 H 0.38948 0.10645 0.95039 0.0
H3962 H 0.37384 0.18473 0.89788 0.0
H3963 H 0.40192 0.18437 0.8944 0.0
H3964 H 0.39039 0.19583 0.92081 0.0
H3965 H 0.37852 0.10027 0.89218 0.0
H3966 H 0.3949 0.0884 0.91475 0.0
H3967 H 0.40662 0.10303 0.89056 0.0
C3968 C 0.90735 0.86918 0.8401 0.0
C3969 C 0.88761 0.86998 0.82865 0.0
C3970 C 0.90886 0.86775 0.8652 0.0
C3971 C 0.89022 0.86695 0.87928 0.0
C3972 C 0.87032 0.8668 0.86767 0.0
C3973 C 0.86928 0.86837 0.84271 0.0
C3974 C 0.9304 0.86803 0.87671 0.0
C3975 C 0.84997 0.86585 0.88169 0.0
C3976 C 0.88982 0.85095 0.94532 0.0
C3977 C 0.88774 0.87064 0.95668 0.0
C3978 C 0.89147 0.84946 0.92025 0.0
C3979 C 0.89119 0.86808 0.90608 0.0
C3980 C 0.89004 0.88799 0.9176 0.0
C3981 C 0.88828 0.889 0.94255 0.0
C3982 C 0.89258 0.8279 0.90884 0.0
C3983 C 0.88981 0.90832 0.90349 0.0
H3984 H 0.92163 0.87051 0.82956 0.0
H3985 H 0.85389 0.86879 0.83421 0.0
H3986 H 0.93251 0.88308 0.88659 0.0
H3987 H 0.93183 0.85496 0.88978 0.0
H3988 H 0.94334 0.86658 0.86345 0.0
H3989 H 0.83586 0.86436 0.87003 0.0
H3990 H 0.85028 0.85224 0.89415 0.0
H3991 H 0.84826 0.88041 0.89253 0.0
H3992 H 0.88933 0.83664 0.95592 0.0
H3993 H 0.88686 0.90436 0.95097 0.0
H3994 H 0.90576 0.82725 0.89586 0.0
H3995 H 0.87775 0.82482 0.89888 0.0
H3996 H 0.89478 0.81511 0.92218 0.0
H3997 H 0.90345 0.90881 0.8911 0.0
H3998 H 0.89039 0.92254 0.91509 0.0
H3999 H 0.87521 0.90911 0.89256 0.0
C4000 C 0.90633 0.1399 0.69529 0.0
C4001 C 0.88659 0.13849 0.70663 0.0
C4002 C 0.9079 0.1414 0.67019 0.0
C4003 C 0.8893 0.14163 0.65598 0.0
C4004 C 0.86937 0.14117 0.66748 0.0
C4005 C 0.86827 0.13957 0.69245 0.0
C4006 C 0.92949 0.14181 0.65883 0.0
C4007 C 0.84906 0.14151 0.65334 0.0
C4008 C 0.88855 0.15747 0.58985 0.0
C4009 C 0.88715 0.13769 0.57854 0.0
C4010 C 0.8901 0.15907 0.61494 0.0
C4011 C 0.89041 0.14049 0.62918 0.0
C4012 C 0.88998 0.12053 0.6177 0.0
C4013 C 0.88831 0.1194 0.59274 0.0
C4014 C 0.89048 0.18068 0.62628 0.0
C4015 C 0.8904 0.10023 0.63187 0.0
H4016 H 0.9206 0.13901 0.70592 0.0
H4017 H 0.85288 0.13868 0.70085 0.0
H4018 H 0.93215 0.12683 0.64901 0.0
H4019 H 0.93053 0.15489 0.64572 0.0
H4020 H 0.94231 0.14373 0.67217 0.0
H4021 H 0.83486 0.14266 0.66491 0.0
H4022 H 0.84902 0.15506 0.6408 0.0
H4023 H 0.8478 0.12685 0.64258 0.0
H4024 H 0.88759 0.17172 0.57921 0.0
H4025 H 0.88743 0.10398 0.58436 0.0
H4026 H 0.90357 0.18177 0.63937 0.0
H4027 H 0.87551 0.18332 0.63612 0.0
H4028 H 0.89235 0.1935 0.61292 0.0
H4029 H 0.90396 0.10025 0.6444 0.0
H4030 H 0.89158 0.08602 0.62031 0.0
H4031 H 0.87576 0.09894 0.64265 0.0
C4032 C 0.61521 0.15527 0.44509 0.0
C4033 C 0.61734 0.13548 0.45623 0.0
C4034 C 0.61342 0.15696 0.42004 0.0
C4035 C 0.6136 0.13846 0.4057 0.0
C4036 C 0.61472 0.11845 0.41702 0.0
C4037 C 0.61664 0.11723 0.44194 0.0
C4038 C 0.61232 0.17862 0.40886 0.0
C4039 C 0.61481 0.09823 0.40271 0.0
C4040 C 0.59751 0.13777 0.33969 0.0
C4041 C 0.61727 0.13692 0.32831 0.0
C4042 C 0.59597 0.13913 0.36479 0.0
C4043 C 0.61459 0.1398 0.37893 0.0
C4044 C 0.63451 0.13995 0.36739 0.0
C4045 C 0.63558 0.13847 0.34243 0.0
C4046 C 0.57441 0.13886 0.37622 0.0
C4047 C 0.65484 0.14078 0.38147 0.0
H4048 H 0.61581 0.16949 0.45583 0.0
H4049 H 0.61809 0.10181 0.45022 0.0
H4050 H 0.62718 0.1818 0.39902 0.0
H4051 H 0.59917 0.17938 0.39582 0.0
H4052 H 0.61007 0.19129 0.42232 0.0
H4053 H 0.61404 0.08393 0.41418 0.0
H4054 H 0.60121 0.09796 0.39023 0.0
H4055 H 0.62944 0.09739 0.39187 0.0
H4056 H 0.58325 0.13648 0.32909 0.0
H4057 H 0.65098 0.138 0.33398 0.0
H4058 H 0.57305 0.15177 0.3895 0.0
H4059 H 0.57217 0.12371 0.38585 0.0
H4060 H 0.56151 0.14058 0.36294 0.0
H4061 H 0.65453 0.15428 0.39407 0.0
H4062 H 0.66897 0.14235 0.36987 0.0
H4063 H 0.65652 0.12612 0.39217 0.0
C4064 C 0.61598 0.84922 0.08975 0.0
C4065 C 0.61791 0.86897 0.0785 0.0
C4066 C 0.6143 0.8476 0.11482 0.0
C4067 C 0.61439 0.86616 0.12908 0.0
C4068 C 0.61534 0.88613 0.11767 0.0
C4069 C 0.61714 0.88727 0.09273 0.0
C4070 C 0.61337 0.82598 0.1261 0.0
C4071 C 0.61534 0.9064 0.13188 0.0
C4072 C 0.59836 0.86695 0.19511 0.0
C4073 C 0.61812 0.8679 0.20652 0.0
C4074 C 0.59681 0.86555 0.17002 0.0
C4075 C 0.61542 0.86493 0.15588 0.0
C4076 C 0.63534 0.86491 0.16744 0.0
C4077 C 0.63643 0.86645 0.19241 0.0
C4078 C 0.57524 0.86566 0.15857 0.0
C4079 C 0.65567 0.86414 0.15337 0.0
H4080 H 0.61664 0.83496 0.07907 0.0
H4081 H 0.61842 0.90267 0.08438 0.0
H4082 H 0.62826 0.82295 0.13598 0.0
H4083 H 0.60024 0.82518 0.13914 0.0
H4084 H 0.61121 0.81325 0.1127 0.0
H4085 H 0.61449 0.92066 0.12035 0.0
H4086 H 0.60176 0.90665 0.14436 0.0
H4087 H 0.62999 0.90735 0.14271 0.0
H4088 H 0.5841 0.86814 0.2057 0.0
H4089 H 0.65182 0.86697 0.20087 0.0
H4090 H 0.57392 0.85266 0.14541 0.0
H4091 H 0.57294 0.88074 0.1488 0.0
H4092 H 0.56235 0.864 0.17186 0.0
H4093 H 0.65541 0.85061 0.1408 0.0
H4094 H 0.66981 0.86263 0.16499 0.0
H4095 H 0.65728 0.87878 0.14265 0.0
C4096 C 0.59998 0.63925 0.69724 0.0
C4097 C 0.61975 0.63712 0.7084 0.0
C4098 C 0.59829 0.64098 0.67217 0.0
C4099 C 0.61679 0.64068 0.65782 0.0
C4100 C 0.63677 0.63948 0.66914 0.0
C4101 C 0.63799 0.63771 0.69407 0.0
C4102 C 0.57665 0.64221 0.66098 0.0
C4103 C 0.65699 0.63918 0.65485 0.0
C4104 C 0.61668 0.61882 0.59444 0.0
C4105 C 0.6185 0.63716 0.58038 0.0
C4106 C 0.61516 0.61986 0.61941 0.0
C4107 C 0.61548 0.63975 0.63103 0.0
C4108 C 0.61646 0.65839 0.61695 0.0
C4109 C 0.61792 0.6569 0.59186 0.0
C4110 C 0.61411 0.5995 0.63342 0.0
C4111 C 0.61686 0.67994 0.62846 0.0
H4112 H 0.58577 0.63874 0.70799 0.0
H4113 H 0.65342 0.63627 0.70232 0.0
H4114 H 0.57598 0.65538 0.64795 0.0
H4115 H 0.5734 0.62737 0.6511 0.0
H4116 H 0.564 0.64452 0.67443 0.0
H4117 H 0.6713 0.63961 0.66631 0.0
H4118 H 0.6576 0.62462 0.64384 0.0
H4119 H 0.65748 0.65287 0.64252 0.0
H4120 H 0.61695 0.60343 0.58596 0.0
H4121 H 0.61937 0.67118 0.58133 0.0
H4122 H 0.60055 0.59988 0.64593 0.0
H4123 H 0.62869 0.59768 0.64422 0.0
H4124 H 0.61249 0.5854 0.62176 0.0
H4125 H 0.60386 0.6814 0.6416 0.0
H4126 H 0.61539 0.69289 0.61521 0.0
H4127 H 0.63195 0.68199 0.63827 0.0
C4128 C 0.63575 0.36765 0.84419 0.0
C4129 C 0.61745 0.36767 0.82993 0.0
C4130 C 0.63468 0.36571 0.86911 0.0
C4131 C 0.61479 0.3637 0.88048 0.0
C4132 C 0.59626 0.36292 0.8662 0.0
C4133 C 0.59779 0.3649 0.84117 0.0
C4134 C 0.65492 0.36663 0.88337 0.0
C4135 C 0.57472 0.36077 0.87745 0.0
C4136 C 0.61667 0.34669 0.94614 0.0
C4137 C 0.61653 0.36629 0.95792 0.0
C4138 C 0.61521 0.34546 0.92103 0.0
C4139 C 0.61351 0.36424 0.90727 0.0
C4140 C 0.61238 0.38395 0.91921 0.0
C4141 C 0.6139 0.38471 0.94418 0.0
C4142 C 0.61643 0.3241 0.90916 0.0
C4143 C 0.61053 0.40444 0.90553 0.0
H4144 H 0.6511 0.36963 0.83591 0.0
H4145 H 0.58352 0.36492 0.83049 0.0
H4146 H 0.65496 0.38105 0.89463 0.0
H4147 H 0.65599 0.3528 0.89545 0.0
H4148 H 0.6692 0.36693 0.87186 0.0
H4149 H 0.56208 0.35831 0.864 0.0
H4150 H 0.57455 0.34733 0.89014 0.0
H4151 H 0.57102 0.37529 0.88772 0.0
H4152 H 0.61877 0.33234 0.95642 0.0
H4153 H 0.61358 0.39999 0.95292 0.0
H4154 H 0.63162 0.32272 0.89941 0.0
H4155 H 0.60353 0.32234 0.89593 0.0
H4156 H 0.6154 0.31093 0.92219 0.0
H4157 H 0.62502 0.40695 0.89478 0.0
H4158 H 0.60838 0.41831 0.91743 0.0
H4159 H 0.59698 0.4037 0.89302 0.0
C4160 C 0.88564 0.35066 0.09209 0.0
C4161 C 0.88449 0.3703 0.08043 0.0
C4162 C 0.88699 0.34934 0.1172 0.0
C4163 C 0.88735 0.36808 0.13115 0.0
C4164 C 0.88703 0.38791 0.11937 0.0
C4165 C 0.88556 0.38876 0.09437 0.0
C4166 C 0.88719 0.32786 0.12887 0.0
C4167 C 0.88749 0.40837 0.13323 0.0
C4168 C 0.86566 0.36961 0.19466 0.0
C4169 C 0.88409 0.37048 0.20865 0.0
C4170 C 0.86655 0.36791 0.16968 0.0
C4171 C 0.8864 0.36722 0.15799 0.0
C4172 C 0.9051 0.36734 0.17202 0.0
C4173 C 0.90373 0.36886 0.19712 0.0
C4174 C 0.84614 0.36765 0.15573 0.0
C4175 C 0.9266 0.36673 0.16045 0.0
H4176 H 0.88473 0.33627 0.08166 0.0
H4177 H 0.88482 0.40408 0.08575 0.0
H4178 H 0.90042 0.32675 0.14179 0.0
H4179 H 0.8723 0.32555 0.13897 0.0
H4180 H 0.88874 0.31485 0.1157 0.0
H4181 H 0.88855 0.42245 0.12147 0.0
H4182 H 0.87295 0.40975 0.14415 0.0
H4183 H 0.90115 0.4085 0.14562 0.0
H4184 H 0.85034 0.37067 0.20322 0.0
H4185 H 0.91809 0.36962 0.20762 0.0
H4186 H 0.84592 0.35403 0.14329 0.0
H4187 H 0.8449 0.38225 0.14486 0.0
H4188 H 0.83202 0.36667 0.16744 0.0
H4189 H 0.92752 0.35346 0.14759 0.0
H4190 H 0.93953 0.36499 0.17369 0.0
H4191 H 0.92919 0.38157 0.15032 0.0
C4192 C 0.86743 0.64217 0.34158 0.0
C4193 C 0.88566 0.64058 0.32736 0.0
C4194 C 0.86869 0.64405 0.36648 0.0
C4195 C 0.88869 0.64428 0.37783 0.0
C4196 C 0.90722 0.64369 0.36355 0.0
C4197 C 0.90549 0.64192 0.33851 0.0
C4198 C 0.84845 0.64473 0.38073 0.0
C4199 C 0.92887 0.64386 0.37479 0.0
C4200 C 0.88798 0.65939 0.44407 0.0
C4201 C 0.88607 0.63949 0.45498 0.0
C4202 C 0.88979 0.66127 0.41905 0.0
C4203 C 0.88989 0.64285 0.40456 0.0
C4204 C 0.88909 0.62276 0.41569 0.0
C4205 C 0.88713 0.62135 0.44056 0.0
C4206 C 0.89059 0.68301 0.40804 0.0
C4207 C 0.88931 0.60262 0.40122 0.0
H4208 H 0.85198 0.64136 0.33328 0.0
H4209 H 0.91968 0.64064 0.32781 0.0
H4210 H 0.84695 0.63005 0.39141 0.0
H4211 H 0.84874 0.65822 0.39335 0.0
H4212 H 0.83423 0.64621 0.36924 0.0
H4213 H 0.94161 0.64598 0.3614 0.0
H4214 H 0.93004 0.65669 0.38819 0.0
H4215 H 0.93155 0.62868 0.38423 0.0
H4216 H 0.88712 0.67351 0.45496 0.0
H4217 H 0.88592 0.60586 0.44871 0.0
H4218 H 0.87557 0.68614 0.39846 0.0
H4219 H 0.90356 0.68396 0.3948 0.0
H4220 H 0.89291 0.69559 0.42159 0.0
H4221 H 0.87463 0.60159 0.39045 0.0
H4222 H 0.89039 0.58827 0.41257 0.0
H4223 H 0.90284 0.60267 0.38868 0.0
C4224 C 0.40549 0.36741 0.34223 0.0
C4225 C 0.38575 0.36899 0.33088 0.0
C4226 C 0.40703 0.36595 0.36731 0.0
C4227 C 0.38842 0.36589 0.38145 0.0
C4228 C 0.36849 0.36646 0.36994 0.0
C4229 C 0.36742 0.36807 0.34498 0.0
C4230 C 0.42861 0.36543 0.37872 0.0
C4231 C 0.34817 0.36627 0.38405 0.0
C4232 C 0.38772 0.35026 0.44755 0.0
C4233 C 0.38638 0.37008 0.45875 0.0
C4234 C 0.38921 0.34857 0.42249 0.0
C4235 C 0.38954 0.36712 0.40821 0.0
C4236 C 0.3892 0.38712 0.41958 0.0
C4237 C 0.38755 0.38834 0.44451 0.0
C4238 C 0.38947 0.32692 0.41123 0.0
C4239 C 0.38969 0.40737 0.40533 0.0
H4240 H 0.41977 0.36819 0.33162 0.0
H4241 H 0.35204 0.36909 0.33653 0.0
H4242 H 0.43136 0.38045 0.38846 0.0
H4243 H 0.42957 0.3524 0.39189 0.0
H4244 H 0.44143 0.36337 0.36541 0.0
H4245 H 0.33398 0.36511 0.37245 0.0
H4246 H 0.34809 0.35278 0.39667 0.0
H4247 H 0.34696 0.38098 0.39471 0.0
H4248 H 0.38673 0.33605 0.45826 0.0
H4249 H 0.38673 0.40378 0.45285 0.0
H4250 H 0.40254 0.32572 0.39815 0.0
H4251 H 0.37447 0.32433 0.40141 0.0
H4252 H 0.39129 0.31414 0.42464 0.0
H4253 H 0.40324 0.40724 0.3928 0.0
H4254 H 0.39095 0.42161 0.41682 0.0
H4255 H 0.37505 0.4087 0.39454 0.0
C4256 C 0.40528 0.63977 0.19529 0.0
C4257 C 0.38553 0.63808 0.20655 0.0
C4258 C 0.40689 0.64132 0.17021 0.0
C4259 C 0.38833 0.64139 0.15594 0.0
C4260 C 0.36837 0.64071 0.16738 0.0
C4261 C 0.36723 0.63899 0.19233 0.0
C4262 C 0.42851 0.64191 0.15891 0.0
C4263 C 0.34809 0.64091 0.15318 0.0
C4264 C 0.38783 0.65705 0.08974 0.0
C4265 C 0.3866 0.63724 0.07851 0.0
C4266 C 0.38921 0.65874 0.11484 0.0
C4267 C 0.38953 0.64019 0.12914 0.0
C4268 C 0.38927 0.6202 0.11774 0.0
C4269 C 0.38775 0.61899 0.09279 0.0
C4270 C 0.38938 0.68038 0.1261 0.0
C4271 C 0.38973 0.59994 0.13198 0.0
H4272 H 0.41953 0.63899 0.20596 0.0
H4273 H 0.35183 0.63789 0.2007 0.0
H4274 H 0.43133 0.62693 0.14914 0.0
H4275 H 0.42947 0.65497 0.14577 0.0
H4276 H 0.44128 0.64397 0.17229 0.0
H4277 H 0.33387 0.64204 0.16471 0.0
H4278 H 0.34803 0.65442 0.14058 0.0
H4279 H 0.34693 0.62621 0.14248 0.0
H4280 H 0.38684 0.67127 0.07903 0.0
H4281 H 0.38699 0.60354 0.08446 0.0
H4282 H 0.40239 0.6816 0.13927 0.0
H4283 H 0.37433 0.68294 0.13583 0.0
H4284 H 0.39122 0.69317 0.11271 0.0
H4285 H 0.40328 0.60004 0.14452 0.0
H4286 H 0.39095 0.5857 0.12048 0.0
H4287 H 0.37509 0.59864 0.14275 0.0
C4288 C 0.1334 0.63939 0.84318 0.0
C4289 C 0.11512 0.63681 0.8292 0.0
C4290 C 0.13238 0.64107 0.86812 0.0
C4291 C 0.11256 0.64012 0.8798 0.0
C4292 C 0.09391 0.63852 0.86579 0.0
C4293 C 0.09539 0.63694 0.8407 0.0
C4294 C 0.15273 0.64287 0.88206 0.0
C4295 C 0.07244 0.63745 0.87736 0.0
C4296 C 0.11586 0.61761 0.94274 0.0
C4297 C 0.11601 0.63586 0.95708 0.0
C4298 C 0.11376 0.61879 0.91784 0.0
C4299 C 0.11178 0.63875 0.90658 0.0
C4300 C 0.11102 0.65722 0.92096 0.0
C4301 C 0.1131 0.65557 0.94599 0.0
C4302 C 0.11459 0.5986 0.9035 0.0
C4303 C 0.10894 0.67882 0.90983 0.0
H4304 H 0.14877 0.63953 0.83465 0.0
H4305 H 0.08116 0.63488 0.83022 0.0
H4306 H 0.15189 0.65637 0.89462 0.0
H4307 H 0.15514 0.62833 0.89278 0.0
H4308 H 0.16671 0.64505 0.87035 0.0
H4309 H 0.05942 0.63872 0.86417 0.0
H4310 H 0.0708 0.62219 0.88695 0.0
H4311 H 0.07068 0.65026 0.8907 0.0
H4312 H 0.1179 0.60223 0.95094 0.0
H4313 H 0.11323 0.66979 0.95675 0.0
H4314 H 0.1291 0.59845 0.8924 0.0
H4315 H 0.10086 0.59772 0.89126 0.0
H4316 H 0.11465 0.58427 0.91494 0.0
H4317 H 0.12361 0.68264 0.89989 0.0
H4318 H 0.10623 0.69136 0.92333 0.0
H4319 H 0.09571 0.67903 0.89687 0.0
C4320 C 0.13511 0.36535 0.6922 0.0
C4321 C 0.11679 0.36763 0.70616 0.0
C4322 C 0.1341 0.36359 0.66726 0.0
C4323 C 0.11424 0.36419 0.65559 0.0
C4324 C 0.09559 0.3655 0.66958 0.0
C4325 C 0.09707 0.36714 0.69466 0.0
C4326 C 0.15445 0.36209 0.65332 0.0
C4327 C 0.07408 0.36619 0.658 0.0
C4328 C 0.11685 0.38673 0.59264 0.0
C4329 C 0.1172 0.36849 0.5783 0.0
C4330 C 0.11496 0.38552 0.61755 0.0
C4331 C 0.1134 0.36553 0.62882 0.0
C4332 C 0.11286 0.34705 0.61445 0.0
C4333 C 0.11473 0.34873 0.58941 0.0
C4334 C 0.11553 0.40572 0.63188 0.0
C4335 C 0.11122 0.32541 0.6256 0.0
H4336 H 0.15048 0.36549 0.70075 0.0
H4337 H 0.0828 0.36896 0.70512 0.0
H4338 H 0.15378 0.34862 0.64071 0.0
H4339 H 0.15665 0.3767 0.64265 0.0
H4340 H 0.16846 0.36006 0.66503 0.0
H4341 H 0.0611 0.36475 0.67121 0.0
H4342 H 0.07219 0.38139 0.64836 0.0
H4343 H 0.07252 0.3533 0.64472 0.0
H4344 H 0.11857 0.40214 0.58442 0.0
H4345 H 0.11503 0.33451 0.57865 0.0
H4346 H 0.13006 0.40609 0.64295 0.0
H4347 H 0.10181 0.40641 0.64415 0.0
H4348 H 0.11535 0.42005 0.62044 0.0
H4349 H 0.12598 0.32187 0.63551 0.0
H4350 H 0.10871 0.31282 0.61212 0.0
H4351 H 0.09803 0.32497 0.63859 0.0
loop_
_geom_bond_atom_site_label_1
_geom_bond_atom_site_label_2
_geom_bond_distance
_geom_bond_site_symmetry_2
_ccdc_geom_bond_type
Pr0 C2 2.880 . S
Pr0 O20 2.562 . S
Pr0 O21 2.490 . S
Pr0 O22 2.695 . S
Pr0 O23 2.512 . S
Pr0 O25 2.437 . S
Pr0 O28 2.436 . S
Pr0 O30 2.438 . S
Pr1 C11 2.880 . S
Pr1 O22 2.436 . S
Pr1 O24 2.438 . S
Pr1 O26 2.562 . S
Pr1 O27 2.490 . S
Pr1 O28 2.695 . S
Pr1 O29 2.512 . S
Pr1 O31 2.437 . S
C2 Pr0 2.880 . S
C2 C3 1.491 . S
C2 O20 1.254 . S
C2 O21 1.225 . S
C3 C2 1.491 . S
C3 C4 1.392 . S
C3 C8 1.356 . S
C4 C3 1.392 . S
C4 C5 1.368 . S
C4 H32 0.929 . S
C5 C4 1.368 . S
C5 C6 1.386 . S
C5 H33 0.929 . S
C6 C5 1.386 . S
C6 C7 1.373 . S
C7 C6 1.373 . S
C7 C8 1.409 . S
C7 H34 0.931 . S
C8 C3 1.356 . S
C8 C7 1.409 . S
C8 H35 0.930 . S
C9 O22 1.270 . S
C9 O23 1.248 . S
C10 O24 1.267 . S
C10 O25 1.278 . S
C11 Pr1 2.880 . S
C11 C12 1.491 . S
C11 O26 1.254 . S
C11 O27 1.225 . S
C12 C11 1.491 . S
C12 C13 1.392 . S
C12 C17 1.356 . S
C13 C12 1.392 . S
C13 C14 1.368 . S
C13 H36 0.929 . S
C14 C13 1.368 . S
C14 C15 1.386 . S
C14 H37 0.929 . S
C15 C14 1.386 . S
C15 C16 1.373 . S
C16 C15 1.373 . S
C16 C17 1.409 . S
C16 H38 0.931 . S
C17 C12 1.356 . S
C17 C16 1.409 . S
C17 H39 0.930 . S
C18 O28 1.270 . S
C18 O29 1.248 . S
C19 O30 1.267 . S
C19 O31 1.278 . S
O20 Pr0 2.562 . S
O20 C2 1.254 . S
O21 Pr0 2.490 . S
O21 C2 1.225 . S
O22 Pr0 2.695 . S
O22 Pr1 2.436 . S
O22 C9 1.270 . S
O23 Pr0 2.512 . S
O23 C9 1.248 . S
O24 Pr1 2.438 . S
O24 C10 1.267 . S
O25 Pr0 2.437 . S
O25 C10 1.278 . S
O26 Pr1 2.562 . S
O26 C11 1.254 . S
O27 Pr1 2.490 . S
O27 C11 1.225 . S
O28 Pr0 2.436 . S
O28 Pr1 2.695 . S
O28 C18 1.270 . S
O29 Pr1 2.512 . S
O29 C18 1.248 . S
O30 Pr0 2.438 . S
O30 C19 1.267 . S
O31 Pr1 2.437 . S
O31 C19 1.278 . S
H32 C4 0.929 . S
H33 C5 0.929 . S
H34 C7 0.931 . S
H35 C8 0.930 . S
H36 C13 0.929 . S
H37 C14 0.929 . S
H38 C16 0.931 . S
H39 C17 0.930 . S
Pr40 C42 2.880 . S
Pr40 O60 2.562 . S
Pr40 O61 2.490 . S
Pr40 O62 2.695 . S
Pr40 O63 2.512 . S
Pr40 O65 2.437 . S
Pr40 O68 2.436 . S
Pr40 O70 2.438 . S
Pr41 C51 2.880 . S
Pr41 O62 2.436 . S
Pr41 O64 2.438 . S
Pr41 O66 2.562 . S
Pr41 O67 2.490 . S
Pr41 O68 2.695 . S
Pr41 O69 2.512 . S
Pr41 O71 2.437 . S
C42 Pr40 2.880 . S
C42 C43 1.491 . S
C42 O60 1.254 . S
C42 O61 1.225 . S
C43 C42 1.491 . S
C43 C44 1.392 . S
C43 C48 1.356 . S
C44 C43 1.392 . S
C44 C45 1.368 . S
C44 H72 0.929 . S
C45 C44 1.368 . S
C45 C46 1.386 . S
C45 H73 0.885 1_565 S
C46 C45 1.386 . S
C46 C47 1.373 . S
C47 C46 1.373 . S
C47 C48 1.409 . S
C47 H74 0.931 . S
C48 C43 1.356 . S
C48 C47 1.409 . S
C48 H75 0.930 . S
C49 O62 1.270 . S
C49 O63 1.248 . S
C50 O64 1.267 . S
C50 O65 1.278 . S
C51 Pr41 2.880 . S
C51 C52 1.491 . S
C51 O66 1.254 . S
C51 O67 1.225 . S
C52 C51 1.491 . S
C52 C53 1.392 . S
C52 C57 1.356 . S
C53 C52 1.392 . S
C53 C54 1.368 . S
C53 H76 0.929 . S
C54 C53 1.368 . S
C54 C55 1.386 . S
C54 H77 0.929 . S
C55 C54 1.386 . S
C55 C56 1.373 . S
C56 C55 1.373 . S
C56 C57 1.409 . S
C56 H78 0.931 . S
C57 C52 1.356 . S
C57 C56 1.409 . S
C57 H79 0.930 . S
C58 O68 1.270 . S
C58 O69 1.248 . S
C59 O70 1.267 . S
C59 O71 1.278 . S
O60 Pr40 2.562 . S
O60 C42 1.254 . S
O61 Pr40 2.490 . S
O61 C42 1.225 . S
O62 Pr40 2.695 . S
O62 Pr41 2.436 . S
O62 C49 1.270 . S
O63 Pr40 2.512 . S
O63 C49 1.248 . S
O64 Pr41 2.438 . S
O64 C50 1.267 . S
O65 Pr40 2.437 . S
O65 C50 1.278 . S
O66 Pr41 2.562 . S
O66 C51 1.254 . S
O67 Pr41 2.490 . S
O67 C51 1.225 . S
O68 Pr40 2.436 . S
O68 Pr41 2.695 . S
O68 C58 1.270 . S
O69 Pr41 2.512 . S
O69 C58 1.248 . S
O70 Pr40 2.438 . S
O70 C59 1.267 . S
O71 Pr41 2.437 . S
O71 C59 1.278 . S
H72 C44 0.929 . S
H73 C45 0.885 1_545 S
H74 C47 0.931 . S
H75 C48 0.930 . S
H76 C53 0.929 . S
H77 C54 0.929 . S
H78 C56 0.931 . S
H79 C57 0.930 . S
Pr80 C82 2.880 . S
Pr80 O100 2.562 . S
Pr80 O101 2.490 . S
Pr80 O102 2.695 . S
Pr80 O103 2.512 . S
Pr80 O105 2.437 . S
Pr80 O108 2.436 . S
Pr80 O110 2.438 . S
Pr81 C91 2.880 . S
Pr81 O102 2.436 . S
Pr81 O104 2.438 . S
Pr81 O106 2.562 . S
Pr81 O107 2.490 . S
Pr81 O108 2.695 . S
Pr81 O109 2.512 . S
Pr81 O111 2.437 . S
C82 Pr80 2.880 . S
C82 C83 1.491 . S
C82 O100 1.254 . S
C82 O101 1.225 . S
C83 C82 1.491 . S
C83 C84 1.392 . S
C83 C88 1.356 . S
C84 C83 1.392 . S
C84 C85 1.368 . S
C84 H112 0.929 . S
C85 C84 1.368 . S
C85 C86 1.386 . S
C85 H113 0.929 . S
C86 C85 1.386 . S
C86 C87 1.373 . S
C87 C86 1.373 . S
C87 C88 1.409 . S
C87 H114 0.931 . S
C88 C83 1.356 . S
C88 C87 1.409 . S
C88 H115 0.930 . S
C89 O102 1.270 . S
C89 O103 1.248 . S
C90 O104 1.267 . S
C90 O105 1.278 . S
C91 Pr81 2.880 . S
C91 C92 1.491 . S
C91 O106 1.254 . S
C91 O107 1.225 . S
C92 C91 1.491 . S
C92 C93 1.392 . S
C92 C97 1.356 . S
C93 C92 1.392 . S
C93 C94 1.368 . S
C93 H116 0.929 . S
C94 C93 1.368 . S
C94 C95 1.386 . S
C94 H117 0.929 . S
C95 C94 1.386 . S
C95 C96 1.373 . S
C96 C95 1.373 . S
C96 C97 1.409 . S
C96 H118 0.931 . S
C97 C92 1.356 . S
C97 C96 1.409 . S
C97 H119 0.930 . S
C98 O108 1.270 . S
C98 O109 1.248 . S
C99 O110 1.267 . S
C99 O111 1.278 . S
O100 Pr80 2.562 . S
O100 C82 1.254 . S
O101 Pr80 2.490 . S
O101 C82 1.225 . S
O102 Pr80 2.695 . S
O102 Pr81 2.436 . S
O102 C89 1.270 . S
O103 Pr80 2.512 . S
O103 C89 1.248 . S
O104 Pr81 2.438 . S
O104 C90 1.267 . S
O105 Pr80 2.437 . S
O105 C90 1.278 . S
O106 Pr81 2.562 . S
O106 C91 1.254 . S
O107 Pr81 2.490 . S
O107 C91 1.225 . S
O108 Pr80 2.436 . S
O108 Pr81 2.695 . S
O108 C98 1.270 . S
O109 Pr81 2.512 . S
O109 C98 1.248 . S
O110 Pr80 2.438 . S
O110 C99 1.267 . S
O111 Pr81 2.437 . S
O111 C99 1.278 . S
H112 C84 0.929 . S
H113 C85 0.929 . S
H114 C87 0.931 . S
H115 C88 0.930 . S
H116 C93 0.929 . S
H117 C94 0.929 . S
H118 C96 0.931 . S
H119 C97 0.930 . S
Pr120 C122 2.880 1_554 S
Pr120 O140 2.562 1_554 S
Pr120 O141 2.490 . S
Pr120 O142 2.695 . S
Pr120 O143 2.512 . S
Pr120 O145 2.437 1_554 S
Pr120 O148 2.436 . S
Pr120 O150 2.438 . S
Pr121 C131 2.880 . S
Pr121 O142 2.436 . S
Pr121 O144 2.438 1_554 S
Pr121 O146 2.562 . S
Pr121 O147 2.490 . S
Pr121 O148 2.695 . S
Pr121 O149 2.512 . S
Pr121 O151 2.437 . S
C122 Pr120 2.880 1_556 S
C122 C123 1.491 . S
C122 O140 1.254 . S
C122 O141 1.225 1_556 S
C123 C122 1.491 . S
C123 C124 1.392 . S
C123 C128 1.356 . S
C124 C123 1.392 . S
C124 C125 1.368 . S
C124 H152 0.929 . S
C125 C124 1.368 . S
C125 C126 1.386 . S
C125 H153 0.884 1_545 S
C126 C125 1.386 . S
C126 C127 1.373 . S
C127 C126 1.373 . S
C127 C128 1.409 . S
C127 H154 0.931 . S
C128 C123 1.356 . S
C128 C127 1.409 . S
C128 H155 0.930 . S
C129 O142 1.270 . S
C129 O143 1.248 . S
C130 O144 1.267 . S
C130 O145 1.278 . S
C131 Pr121 2.880 . S
C131 C132 1.491 . S
C131 O146 1.254 . S
C131 O147 1.225 . S
C132 C131 1.491 . S
C132 C133 1.392 . S
C132 C137 1.356 . S
C133 C132 1.392 . S
C133 C134 1.368 . S
C133 H156 0.929 . S
C134 C133 1.368 . S
C134 C135 1.386 . S
C134 H157 0.929 . S
C135 C134 1.386 . S
C135 C136 1.373 . S
C136 C135 1.373 . S
C136 C137 1.409 . S
C136 H158 0.931 . S
C137 C132 1.356 . S
C137 C136 1.409 . S
C137 H159 0.930 . S
C138 O148 1.270 . S
C138 O149 1.248 . S
C139 O150 1.267 . S
C139 O151 1.278 . S
O140 Pr120 2.562 1_556 S
O140 C122 1.254 . S
O141 Pr120 2.490 . S
O141 C122 1.225 1_554 S
O142 Pr120 2.695 . S
O142 Pr121 2.436 . S
O142 C129 1.270 . S
O143 Pr120 2.512 . S
O143 C129 1.248 . S
O144 Pr121 2.438 1_556 S
O144 C130 1.267 . S
O145 Pr120 2.437 1_556 S
O145 C130 1.278 . S
O146 Pr121 2.562 . S
O146 C131 1.254 . S
O147 Pr121 2.490 . S
O147 C131 1.225 . S
O148 Pr120 2.436 . S
O148 Pr121 2.695 . S
O148 C138 1.270 . S
O149 Pr121 2.512 . S
O149 C138 1.248 . S
O150 Pr120 2.438 . S
O150 C139 1.267 . S
O151 Pr121 2.437 . S
O151 C139 1.278 . S
H152 C124 0.929 . S
H153 C125 0.884 1_565 S
H154 C127 0.931 . S
H155 C128 0.930 . S
H156 C133 0.929 . S
H157 C134 0.929 . S
H158 C136 0.931 . S
H159 C137 0.930 . S
Pr160 C162 2.880 . S
Pr160 O180 2.562 . S
Pr160 O181 2.490 . S
Pr160 O182 2.695 . S
Pr160 O183 2.512 . S
Pr160 O185 2.437 . S
Pr160 O188 2.436 . S
Pr160 O190 2.438 . S
Pr161 C171 2.880 . S
Pr161 O182 2.436 . S
Pr161 O184 2.438 . S
Pr161 O186 2.562 . S
Pr161 O187 2.490 . S
Pr161 O188 2.695 . S
Pr161 O189 2.512 . S
Pr161 O191 2.437 . S
C162 Pr160 2.880 . S
C162 C163 1.491 . S
C162 O180 1.254 . S
C162 O181 1.225 . S
C163 C162 1.491 . S
C163 C164 1.392 . S
C163 C168 1.356 . S
C164 C163 1.392 . S
C164 C165 1.368 . S
C164 H192 0.929 . S
C165 C164 1.368 . S
C165 C166 1.386 . S
C165 H193 0.929 . S
C166 C165 1.386 . S
C166 C167 1.373 . S
C167 C166 1.373 . S
C167 C168 1.409 . S
C167 H194 0.931 . S
C168 C163 1.356 . S
C168 C167 1.409 . S
C168 H195 0.930 . S
C169 O182 1.270 . S
C169 O183 1.248 . S
C170 O184 1.267 . S
C170 O185 1.278 . S
C171 Pr161 2.880 . S
C171 C172 1.491 . S
C171 O186 1.254 . S
C171 O187 1.225 . S
C172 C171 1.491 . S
C172 C173 1.392 . S
C172 C177 1.356 . S
C173 C172 1.392 . S
C173 C174 1.368 . S
C173 H196 0.929 . S
C174 C173 1.368 . S
C174 C175 1.386 . S
C174 H197 0.929 . S
C175 C174 1.386 . S
C175 C176 1.373 . S
C176 C175 1.373 . S
C176 C177 1.409 . S
C176 H198 0.931 . S
C177 C172 1.356 . S
C177 C176 1.409 . S
C177 H199 0.930 . S
C178 O188 1.270 . S
C178 O189 1.248 . S
C179 O190 1.267 . S
C179 O191 1.278 . S
O180 Pr160 2.562 . S
O180 C162 1.254 . S
O181 Pr160 2.490 . S
O181 C162 1.225 . S
O182 Pr160 2.695 . S
O182 Pr161 2.436 . S
O182 C169 1.270 . S
O183 Pr160 2.512 . S
O183 C169 1.248 . S
O184 Pr161 2.438 . S
O184 C170 1.267 . S
O185 Pr160 2.437 . S
O185 C170 1.278 . S
O186 Pr161 2.562 . S
O186 C171 1.254 . S
O187 Pr161 2.490 . S
O187 C171 1.225 . S
O188 Pr160 2.436 . S
O188 Pr161 2.695 . S
O188 C178 1.270 . S
O189 Pr161 2.512 . S
O189 C178 1.248 . S
O190 Pr160 2.438 . S
O190 C179 1.267 . S
O191 Pr161 2.437 . S
O191 C179 1.278 . S
H192 C164 0.929 . S
H193 C165 0.929 . S
H194 C167 0.931 . S
H195 C168 0.930 . S
H196 C173 0.929 . S
H197 C174 0.929 . S
H198 C176 0.931 . S
H199 C177 0.930 . S
Pr200 C202 2.880 . S
Pr200 O220 2.562 . S
Pr200 O221 2.490 . S
Pr200 O222 2.695 . S
Pr200 O223 2.512 . S
Pr200 O225 2.437 . S
Pr200 O228 2.436 . S
Pr200 O230 2.438 . S
Pr201 C211 2.880 . S
Pr201 O222 2.436 . S
Pr201 O224 2.438 . S
Pr201 O226 2.562 . S
Pr201 O227 2.490 . S
Pr201 O228 2.695 . S
Pr201 O229 2.512 . S
Pr201 O231 2.437 . S
C202 Pr200 2.880 . S
C202 C203 1.491 . S
C202 O220 1.254 . S
C202 O221 1.225 . S
C203 C202 1.491 . S
C203 C204 1.392 . S
C203 C208 1.356 . S
C204 C203 1.392 . S
C204 C205 1.368 . S
C204 H232 0.929 . S
C205 C204 1.368 . S
C205 C206 1.386 . S
C205 H233 0.885 1_565 S
C206 C205 1.386 . S
C206 C207 1.373 . S
C207 C206 1.373 . S
C207 C208 1.409 . S
C207 H234 0.931 . S
C208 C203 1.356 . S
C208 C207 1.409 . S
C208 H235 0.930 . S
C209 O222 1.270 . S
C209 O223 1.248 . S
C210 O224 1.267 . S
C210 O225 1.278 . S
C211 Pr201 2.880 . S
C211 C212 1.491 . S
C211 O226 1.254 . S
C211 O227 1.225 . S
C212 C211 1.491 . S
C212 C213 1.392 . S
C212 C217 1.356 . S
C213 C212 1.392 . S
C213 C214 1.368 . S
C213 H236 0.929 . S
C214 C213 1.368 . S
C214 C215 1.386 . S
C214 H237 0.929 . S
C215 C214 1.386 . S
C215 C216 1.373 . S
C216 C215 1.373 . S
C216 C217 1.409 . S
C216 H238 0.931 . S
C217 C212 1.356 . S
C217 C216 1.409 . S
C217 H239 0.930 . S
C218 O228 1.270 . S
C218 O229 1.248 . S
C219 O230 1.267 . S
C219 O231 1.278 . S
O220 Pr200 2.562 . S
O220 C202 1.254 . S
O221 Pr200 2.490 . S
O221 C202 1.225 . S
O222 Pr200 2.695 . S
O222 Pr201 2.436 . S
O222 C209 1.270 . S
O223 Pr200 2.512 . S
O223 C209 1.248 . S
O224 Pr201 2.438 . S
O224 C210 1.267 . S
O225 Pr200 2.437 . S
O225 C210 1.278 . S
O226 Pr201 2.562 . S
O226 C211 1.254 . S
O227 Pr201 2.490 . S
O227 C211 1.225 . S
O228 Pr200 2.436 . S
O228 Pr201 2.695 . S
O228 C218 1.270 . S
O229 Pr201 2.512 . S
O229 C218 1.248 . S
O230 Pr200 2.438 . S
O230 C219 1.267 . S
O231 Pr201 2.437 . S
O231 C219 1.278 . S
H232 C204 0.929 . S
H233 C205 0.885 1_545 S
H234 C207 0.931 . S
H235 C208 0.930 . S
H236 C213 0.929 . S
H237 C214 0.929 . S
H238 C216 0.931 . S
H239 C217 0.930 . S
Pr240 C242 2.880 . S
Pr240 O260 2.562 . S
Pr240 O261 2.490 . S
Pr240 O262 2.695 . S
Pr240 O263 2.512 . S
Pr240 O265 2.437 . S
Pr240 O268 2.436 . S
Pr240 O270 2.438 . S
Pr241 C251 2.880 . S
Pr241 O262 2.436 . S
Pr241 O264 2.438 . S
Pr241 O266 2.562 . S
Pr241 O267 2.490 . S
Pr241 O268 2.695 . S
Pr241 O269 2.512 . S
Pr241 O271 2.437 . S
C242 Pr240 2.880 . S
C242 C243 1.491 . S
C242 O260 1.254 . S
C242 O261 1.225 . S
C243 C242 1.491 . S
C243 C244 1.392 . S
C243 C248 1.356 . S
C244 C243 1.392 . S
C244 C245 1.368 . S
C244 H272 0.929 . S
C245 C244 1.368 . S
C245 C246 1.386 . S
C245 H273 0.929 . S
C246 C245 1.386 . S
C246 C247 1.373 . S
C247 C246 1.373 . S
C247 C248 1.409 . S
C247 H274 0.931 . S
C248 C243 1.356 . S
C248 C247 1.409 . S
C248 H275 0.930 . S
C249 O262 1.270 . S
C249 O263 1.248 . S
C250 O264 1.267 . S
C250 O265 1.278 . S
C251 Pr241 2.880 . S
C251 C252 1.491 . S
C251 O266 1.254 . S
C251 O267 1.225 . S
C252 C251 1.491 . S
C252 C253 1.392 . S
C252 C257 1.356 . S
C253 C252 1.392 . S
C253 C254 1.368 . S
C253 H276 0.929 . S
C254 C253 1.368 . S
C254 C255 1.386 . S
C254 H277 0.929 . S
C255 C254 1.386 . S
C255 C256 1.373 . S
C256 C255 1.373 . S
C256 C257 1.409 . S
C256 H278 0.931 . S
C257 C252 1.356 . S
C257 C256 1.409 . S
C257 H279 0.930 . S
C258 O268 1.270 . S
C258 O269 1.248 . S
C259 O270 1.267 . S
C259 O271 1.278 . S
O260 Pr240 2.562 . S
O260 C242 1.254 . S
O261 Pr240 2.490 . S
O261 C242 1.225 . S
O262 Pr240 2.695 . S
O262 Pr241 2.436 . S
O262 C249 1.270 . S
O263 Pr240 2.512 . S
O263 C249 1.248 . S
O264 Pr241 2.438 . S
O264 C250 1.267 . S
O265 Pr240 2.437 . S
O265 C250 1.278 . S
O266 Pr241 2.562 . S
O266 C251 1.254 . S
O267 Pr241 2.490 . S
O267 C251 1.225 . S
O268 Pr240 2.436 . S
O268 Pr241 2.695 . S
O268 C258 1.270 . S
O269 Pr241 2.512 . S
O269 C258 1.248 . S
O270 Pr240 2.438 . S
O270 C259 1.267 . S
O271 Pr241 2.437 . S
O271 C259 1.278 . S
H272 C244 0.929 . S
H273 C245 0.929 . S
H274 C247 0.931 . S
H275 C248 0.930 . S
H276 C253 0.929 . S
H277 C254 0.929 . S
H278 C256 0.931 . S
H279 C257 0.930 . S
Pr280 C282 2.880 1_556 S
Pr280 O300 2.562 1_556 S
Pr280 O301 2.490 . S
Pr280 O302 2.695 . S
Pr280 O303 2.512 . S
Pr280 O305 2.437 1_556 S
Pr280 O308 2.436 . S
Pr280 O310 2.438 . S
Pr281 C291 2.880 . S
Pr281 O302 2.436 . S
Pr281 O304 2.438 1_556 S
Pr281 O306 2.562 . S
Pr281 O307 2.490 . S
Pr281 O308 2.695 . S
Pr281 O309 2.512 . S
Pr281 O311 2.437 . S
C282 Pr280 2.880 1_554 S
C282 C283 1.491 . S
C282 O300 1.254 . S
C282 O301 1.225 1_554 S
C283 C282 1.491 . S
C283 C284 1.392 . S
C283 C288 1.356 . S
C284 C283 1.392 . S
C284 C285 1.368 . S
C284 H312 0.929 . S
C285 C284 1.368 . S
C285 C286 1.386 . S
C285 H313 0.885 1_545 S
C286 C285 1.386 . S
C286 C287 1.373 . S
C287 C286 1.373 . S
C287 C288 1.409 . S
C287 H314 0.931 . S
C288 C283 1.356 . S
C288 C287 1.409 . S
C288 H315 0.930 . S
C289 O302 1.270 . S
C289 O303 1.248 . S
C290 O304 1.267 . S
C290 O305 1.278 . S
C291 Pr281 2.880 . S
C291 C292 1.491 . S
C291 O306 1.254 . S
C291 O307 1.225 . S
C292 C291 1.491 . S
C292 C293 1.392 . S
C292 C297 1.356 . S
C293 C292 1.392 . S
C293 C294 1.368 . S
C293 H316 0.929 . S
C294 C293 1.368 . S
C294 C295 1.386 . S
C294 H317 0.929 . S
C295 C294 1.386 . S
C295 C296 1.373 . S
C296 C295 1.373 . S
C296 C297 1.409 . S
C296 H318 0.931 . S
C297 C292 1.356 . S
C297 C296 1.409 . S
C297 H319 0.930 . S
C298 O308 1.270 . S
C298 O309 1.248 . S
C299 O310 1.267 . S
C299 O311 1.278 . S
O300 Pr280 2.562 1_554 S
O300 C282 1.254 . S
O301 Pr280 2.490 . S
O301 C282 1.225 1_556 S
O302 Pr280 2.695 . S
O302 Pr281 2.436 . S
O302 C289 1.270 . S
O303 Pr280 2.512 . S
O303 C289 1.248 . S
O304 Pr281 2.438 1_554 S
O304 C290 1.267 . S
O305 Pr280 2.437 1_554 S
O305 C290 1.278 . S
O306 Pr281 2.562 . S
O306 C291 1.254 . S
O307 Pr281 2.490 . S
O307 C291 1.225 . S
O308 Pr280 2.436 . S
O308 Pr281 2.695 . S
O308 C298 1.270 . S
O309 Pr281 2.512 . S
O309 C298 1.248 . S
O310 Pr280 2.438 . S
O310 C299 1.267 . S
O311 Pr281 2.437 . S
O311 C299 1.278 . S
H312 C284 0.929 . S
H313 C285 0.885 1_565 S
H314 C287 0.931 . S
H315 C288 0.930 . S
H316 C293 0.929 . S
H317 C294 0.929 . S
H318 C296 0.931 . S
H319 C297 0.930 . S
Pr320 C322 2.880 . S
Pr320 O340 2.562 . S
Pr320 O341 2.490 . S
Pr320 O342 2.695 . S
Pr320 O343 2.512 . S
Pr320 O345 2.437 . S
Pr320 O348 2.436 . S
Pr320 O350 2.438 . S
Pr321 C331 2.880 . S
Pr321 O342 2.436 . S
Pr321 O344 2.438 . S
Pr321 O346 2.562 . S
Pr321 O347 2.490 . S
Pr321 O348 2.695 . S
Pr321 O349 2.512 . S
Pr321 O351 2.437 . S
C322 Pr320 2.880 . S
C322 C323 1.491 . S
C322 O340 1.254 . S
C322 O341 1.225 . S
C323 C322 1.491 . S
C323 C324 1.392 . S
C323 C328 1.356 . S
C324 C323 1.392 . S
C324 C325 1.368 . S
C324 H352 0.929 . S
C325 C324 1.368 . S
C325 C326 1.386 . S
C325 H353 0.929 . S
C326 C325 1.386 . S
C326 C327 1.373 . S
C327 C326 1.373 . S
C327 C328 1.409 . S
C327 H354 0.931 . S
C328 C323 1.356 . S
C328 C327 1.409 . S
C328 H355 0.930 . S
C329 O342 1.270 . S
C329 O343 1.248 . S
C330 O344 1.267 . S
C330 O345 1.278 . S
C331 Pr321 2.880 . S
C331 C332 1.491 . S
C331 O346 1.254 . S
C331 O347 1.225 . S
C332 C331 1.491 . S
C332 C333 1.392 . S
C332 C337 1.356 . S
C333 C332 1.392 . S
C333 C334 1.368 . S
C333 H356 0.929 . S
C334 C333 1.368 . S
C334 C335 1.386 . S
C334 H357 0.929 . S
C335 C334 1.386 . S
C335 C336 1.373 . S
C336 C335 1.373 . S
C336 C337 1.409 . S
C336 H358 0.931 . S
C337 C332 1.356 . S
C337 C336 1.409 . S
C337 H359 0.930 . S
C338 O348 1.270 . S
C338 O349 1.248 . S
C339 O350 1.267 . S
C339 O351 1.278 . S
O340 Pr320 2.562 . S
O340 C322 1.254 . S
O341 Pr320 2.490 . S
O341 C322 1.225 . S
O342 Pr320 2.695 . S
O342 Pr321 2.436 . S
O342 C329 1.270 . S
O343 Pr320 2.512 . S
O343 C329 1.248 . S
O344 Pr321 2.438 . S
O344 C330 1.267 . S
O345 Pr320 2.437 . S
O345 C330 1.278 . S
O346 Pr321 2.562 . S
O346 C331 1.254 . S
O347 Pr321 2.490 . S
O347 C331 1.225 . S
O348 Pr320 2.436 . S
O348 Pr321 2.695 . S
O348 C338 1.270 . S
O349 Pr321 2.512 . S
O349 C338 1.248 . S
O350 Pr320 2.438 . S
O350 C339 1.267 . S
O351 Pr321 2.437 . S
O351 C339 1.278 . S
H352 C324 0.929 . S
H353 C325 0.929 . S
H354 C327 0.931 . S
H355 C328 0.930 . S
H356 C333 0.929 . S
H357 C334 0.929 . S
H358 C336 0.931 . S
H359 C337 0.930 . S
Pr360 C362 2.880 . S
Pr360 O380 2.562 . S
Pr360 O381 2.490 . S
Pr360 O382 2.695 . S
Pr360 O383 2.512 . S
Pr360 O385 2.437 . S
Pr360 O388 2.436 . S
Pr360 O390 2.438 . S
Pr361 C371 2.880 . S
Pr361 O382 2.436 . S
Pr361 O384 2.438 . S
Pr361 O386 2.562 . S
Pr361 O387 2.490 . S
Pr361 O388 2.695 . S
Pr361 O389 2.512 . S
Pr361 O391 2.437 . S
C362 Pr360 2.880 . S
C362 C363 1.491 . S
C362 O380 1.254 . S
C362 O381 1.225 . S
C363 C362 1.491 . S
C363 C364 1.392 . S
C363 C368 1.356 . S
C364 C363 1.392 . S
C364 C365 1.368 . S
C364 H392 0.929 . S
C365 C364 1.368 . S
C365 C366 1.386 . S
C365 H393 0.929 . S
C366 C365 1.386 . S
C366 C367 1.373 . S
C367 C366 1.373 . S
C367 C368 1.409 . S
C367 H394 0.931 . S
C368 C363 1.356 . S
C368 C367 1.409 . S
C368 H395 0.930 . S
C369 O382 1.270 . S
C369 O383 1.248 . S
C370 O384 1.267 . S
C370 O385 1.278 . S
C371 Pr361 2.880 . S
C371 C372 1.491 . S
C371 O386 1.254 . S
C371 O387 1.225 . S
C372 C371 1.491 . S
C372 C373 1.392 . S
C372 C377 1.356 . S
C373 C372 1.392 . S
C373 C374 1.368 . S
C373 H396 0.929 . S
C374 C373 1.368 . S
C374 C375 1.386 . S
C374 H397 0.885 1_545 S
C375 C374 1.386 . S
C375 C376 1.373 . S
C376 C375 1.373 . S
C376 C377 1.409 . S
C376 H398 0.931 . S
C377 C372 1.356 . S
C377 C376 1.409 . S
C377 H399 0.930 . S
C378 O388 1.270 . S
C378 O389 1.248 . S
C379 O390 1.267 . S
C379 O391 1.278 . S
O380 Pr360 2.562 . S
O380 C362 1.254 . S
O381 Pr360 2.490 . S
O381 C362 1.225 . S
O382 Pr360 2.695 . S
O382 Pr361 2.436 . S
O382 C369 1.270 . S
O383 Pr360 2.512 . S
O383 C369 1.248 . S
O384 Pr361 2.438 . S
O384 C370 1.267 . S
O385 Pr360 2.437 . S
O385 C370 1.278 . S
O386 Pr361 2.562 . S
O386 C371 1.254 . S
O387 Pr361 2.490 . S
O387 C371 1.225 . S
O388 Pr360 2.436 . S
O388 Pr361 2.695 . S
O388 C378 1.270 . S
O389 Pr361 2.512 . S
O389 C378 1.248 . S
O390 Pr360 2.438 . S
O390 C379 1.267 . S
O391 Pr361 2.437 . S
O391 C379 1.278 . S
H392 C364 0.929 . S
H393 C365 0.929 . S
H394 C367 0.931 . S
H395 C368 0.930 . S
H396 C373 0.929 . S
H397 C374 0.885 1_565 S
H398 C376 0.931 . S
H399 C377 0.930 . S
Pr400 C402 2.880 . S
Pr400 O420 2.562 . S
Pr400 O421 2.490 . S
Pr400 O422 2.695 . S
Pr400 O423 2.512 . S
Pr400 O425 2.437 . S
Pr400 O428 2.436 . S
Pr400 O430 2.438 . S
Pr401 C411 2.880 . S
Pr401 O422 2.436 . S
Pr401 O424 2.438 . S
Pr401 O426 2.562 . S
Pr401 O427 2.490 . S
Pr401 O428 2.695 . S
Pr401 O429 2.512 . S
Pr401 O431 2.437 . S
C402 Pr400 2.880 . S
C402 C403 1.491 . S
C402 O420 1.254 . S
C402 O421 1.225 . S
C403 C402 1.491 . S
C403 C404 1.392 . S
C403 C408 1.356 . S
C404 C403 1.392 . S
C404 C405 1.368 . S
C404 H432 0.929 . S
C405 C404 1.368 . S
C405 C406 1.386 . S
C405 H433 0.929 . S
C406 C405 1.386 . S
C406 C407 1.373 . S
C407 C406 1.373 . S
C407 C408 1.409 . S
C407 H434 0.931 . S
C408 C403 1.356 . S
C408 C407 1.409 . S
C408 H435 0.930 . S
C409 O422 1.270 . S
C409 O423 1.248 . S
C410 O424 1.267 . S
C410 O425 1.278 . S
C411 Pr401 2.880 . S
C411 C412 1.491 . S
C411 O426 1.254 . S
C411 O427 1.225 . S
C412 C411 1.491 . S
C412 C413 1.392 . S
C412 C417 1.356 . S
C413 C412 1.392 . S
C413 C414 1.368 . S
C413 H436 0.929 . S
C414 C413 1.368 . S
C414 C415 1.386 . S
C414 H437 0.929 . S
C415 C414 1.386 . S
C415 C416 1.373 . S
C416 C415 1.373 . S
C416 C417 1.409 . S
C416 H438 0.931 . S
C417 C412 1.356 . S
C417 C416 1.409 . S
C417 H439 0.930 . S
C418 O428 1.270 . S
C418 O429 1.248 . S
C419 O430 1.267 . S
C419 O431 1.278 . S
O420 Pr400 2.562 . S
O420 C402 1.254 . S
O421 Pr400 2.490 . S
O421 C402 1.225 . S
O422 Pr400 2.695 . S
O422 Pr401 2.436 . S
O422 C409 1.270 . S
O423 Pr400 2.512 . S
O423 C409 1.248 . S
O424 Pr401 2.438 . S
O424 C410 1.267 . S
O425 Pr400 2.437 . S
O425 C410 1.278 . S
O426 Pr401 2.562 . S
O426 C411 1.254 . S
O427 Pr401 2.490 . S
O427 C411 1.225 . S
O428 Pr400 2.436 . S
O428 Pr401 2.695 . S
O428 C418 1.270 . S
O429 Pr401 2.512 . S
O429 C418 1.248 . S
O430 Pr400 2.438 . S
O430 C419 1.267 . S
O431 Pr401 2.437 . S
O431 C419 1.278 . S
H432 C404 0.929 . S
H433 C405 0.929 . S
H434 C407 0.931 . S
H435 C408 0.930 . S
H436 C413 0.929 . S
H437 C414 0.929 . S
H438 C416 0.931 . S
H439 C417 0.930 . S
Pr440 C442 2.880 . S
Pr440 O460 2.562 . S
Pr440 O461 2.490 . S
Pr440 O462 2.695 . S
Pr440 O463 2.512 . S
Pr440 O465 2.437 . S
Pr440 O468 2.436 . S
Pr440 O470 2.438 1_556 S
Pr441 C451 2.880 1_556 S
Pr441 O462 2.436 . S
Pr441 O464 2.438 . S
Pr441 O466 2.562 1_556 S
Pr441 O467 2.490 . S
Pr441 O468 2.695 . S
Pr441 O469 2.512 . S
Pr441 O471 2.437 1_556 S
C442 Pr440 2.880 . S
C442 C443 1.491 . S
C442 O460 1.254 . S
C442 O461 1.225 . S
C443 C442 1.491 . S
C443 C444 1.392 . S
C443 C448 1.356 . S
C444 C443 1.392 . S
C444 C445 1.368 . S
C444 H472 0.929 . S
C445 C444 1.368 . S
C445 C446 1.386 . S
C445 H473 0.929 . S
C446 C445 1.386 . S
C446 C447 1.373 . S
C447 C446 1.373 . S
C447 C448 1.409 . S
C447 H474 0.931 . S
C448 C443 1.356 . S
C448 C447 1.409 . S
C448 H475 0.930 . S
C449 O462 1.270 . S
C449 O463 1.248 . S
C450 O464 1.267 . S
C450 O465 1.278 . S
C451 Pr441 2.880 1_554 S
C451 C452 1.491 . S
C451 O466 1.254 . S
C451 O467 1.225 1_554 S
C452 C451 1.491 . S
C452 C453 1.392 . S
C452 C457 1.356 . S
C453 C452 1.392 . S
C453 C454 1.368 . S
C453 H476 0.929 . S
C454 C453 1.368 . S
C454 C455 1.386 . S
C454 H477 0.884 1_565 S
C455 C454 1.386 . S
C455 C456 1.373 . S
C456 C455 1.373 . S
C456 C457 1.409 . S
C456 H478 0.931 . S
C457 C452 1.356 . S
C457 C456 1.409 . S
C457 H479 0.930 . S
C458 O468 1.270 . S
C458 O469 1.248 . S
C459 O470 1.267 . S
C459 O471 1.278 . S
O460 Pr440 2.562 . S
O460 C442 1.254 . S
O461 Pr440 2.490 . S
O461 C442 1.225 . S
O462 Pr440 2.695 . S
O462 Pr441 2.436 . S
O462 C449 1.270 . S
O463 Pr440 2.512 . S
O463 C449 1.248 . S
O464 Pr441 2.438 . S
O464 C450 1.267 . S
O465 Pr440 2.437 . S
O465 C450 1.278 . S
O466 Pr441 2.562 1_554 S
O466 C451 1.254 . S
O467 Pr441 2.490 . S
O467 C451 1.225 1_556 S
O468 Pr440 2.436 . S
O468 Pr441 2.695 . S
O468 C458 1.270 . S
O469 Pr441 2.512 . S
O469 C458 1.248 . S
O470 Pr440 2.438 1_554 S
O470 C459 1.267 . S
O471 Pr441 2.437 1_554 S
O471 C459 1.278 . S
H472 C444 0.929 . S
H473 C445 0.929 . S
H474 C447 0.931 . S
H475 C448 0.930 . S
H476 C453 0.929 . S
H477 C454 0.884 1_545 S
H478 C456 0.931 . S
H479 C457 0.930 . S
Pr480 C482 2.880 . S
Pr480 O500 2.562 . S
Pr480 O501 2.490 . S
Pr480 O502 2.695 . S
Pr480 O503 2.512 . S
Pr480 O505 2.437 . S
Pr480 O508 2.436 . S
Pr480 O510 2.438 . S
Pr481 C491 2.880 . S
Pr481 O502 2.436 . S
Pr481 O504 2.438 . S
Pr481 O506 2.562 . S
Pr481 O507 2.490 . S
Pr481 O508 2.695 . S
Pr481 O509 2.512 . S
Pr481 O511 2.437 . S
C482 Pr480 2.880 . S
C482 C483 1.491 . S
C482 O500 1.254 . S
C482 O501 1.225 . S
C483 C482 1.491 . S
C483 C484 1.392 . S
C483 C488 1.356 . S
C484 C483 1.392 . S
C484 C485 1.368 . S
C484 H512 0.929 . S
C485 C484 1.368 . S
C485 C486 1.386 . S
C485 H513 0.929 . S
C486 C485 1.386 . S
C486 C487 1.373 . S
C487 C486 1.373 . S
C487 C488 1.409 . S
C487 H514 0.931 . S
C488 C483 1.356 . S
C488 C487 1.409 . S
C488 H515 0.930 . S
C489 O502 1.270 . S
C489 O503 1.248 . S
C490 O504 1.267 . S
C490 O505 1.278 . S
C491 Pr481 2.880 . S
C491 C492 1.491 . S
C491 O506 1.254 . S
C491 O507 1.225 . S
C492 C491 1.491 . S
C492 C493 1.392 . S
C492 C497 1.356 . S
C493 C492 1.392 . S
C493 C494 1.368 . S
C493 H516 0.929 . S
C494 C493 1.368 . S
C494 C495 1.386 . S
C494 H517 0.929 . S
C495 C494 1.386 . S
C495 C496 1.373 . S
C496 C495 1.373 . S
C496 C497 1.409 . S
C496 H518 0.931 . S
C497 C492 1.356 . S
C497 C496 1.409 . S
C497 H519 0.930 . S
C498 O508 1.270 . S
C498 O509 1.248 . S
C499 O510 1.267 . S
C499 O511 1.278 . S
O500 Pr480 2.562 . S
O500 C482 1.254 . S
O501 Pr480 2.490 . S
O501 C482 1.225 . S
O502 Pr480 2.695 . S
O502 Pr481 2.436 . S
O502 C489 1.270 . S
O503 Pr480 2.512 . S
O503 C489 1.248 . S
O504 Pr481 2.438 . S
O504 C490 1.267 . S
O505 Pr480 2.437 . S
O505 C490 1.278 . S
O506 Pr481 2.562 . S
O506 C491 1.254 . S
O507 Pr481 2.490 . S
O507 C491 1.225 . S
O508 Pr480 2.436 . S
O508 Pr481 2.695 . S
O508 C498 1.270 . S
O509 Pr481 2.512 . S
O509 C498 1.248 . S
O510 Pr480 2.438 . S
O510 C499 1.267 . S
O511 Pr481 2.437 . S
O511 C499 1.278 . S
H512 C484 0.929 . S
H513 C485 0.929 . S
H514 C487 0.931 . S
H515 C488 0.930 . S
H516 C493 0.929 . S
H517 C494 0.929 . S
H518 C496 0.931 . S
H519 C497 0.930 . S
Pr520 C522 2.880 . S
Pr520 O540 2.562 . S
Pr520 O541 2.490 . S
Pr520 O542 2.695 . S
Pr520 O543 2.512 . S
Pr520 O545 2.437 . S
Pr520 O548 2.436 . S
Pr520 O550 2.438 . S
Pr521 C531 2.880 . S
Pr521 O542 2.436 . S
Pr521 O544 2.438 . S
Pr521 O546 2.562 . S
Pr521 O547 2.490 . S
Pr521 O548 2.695 . S
Pr521 O549 2.512 . S
Pr521 O551 2.437 . S
C522 Pr520 2.880 . S
C522 C523 1.491 . S
C522 O540 1.254 . S
C522 O541 1.225 . S
C523 C522 1.491 . S
C523 C524 1.392 . S
C523 C528 1.356 . S
C524 C523 1.392 . S
C524 C525 1.368 . S
C524 H552 0.929 . S
C525 C524 1.368 . S
C525 C526 1.386 . S
C525 H553 0.929 . S
C526 C525 1.386 . S
C526 C527 1.373 . S
C527 C526 1.373 . S
C527 C528 1.409 . S
C527 H554 0.931 . S
C528 C523 1.356 . S
C528 C527 1.409 . S
C528 H555 0.930 . S
C529 O542 1.270 . S
C529 O543 1.248 . S
C530 O544 1.267 . S
C530 O545 1.278 . S
C531 Pr521 2.880 . S
C531 C532 1.491 . S
C531 O546 1.254 . S
C531 O547 1.225 . S
C532 C531 1.491 . S
C532 C533 1.392 . S
C532 C537 1.356 . S
C533 C532 1.392 . S
C533 C534 1.368 . S
C533 H556 0.929 . S
C534 C533 1.368 . S
C534 C535 1.386 . S
C534 H557 0.885 1_545 S
C535 C534 1.386 . S
C535 C536 1.373 . S
C536 C535 1.373 . S
C536 C537 1.409 . S
C536 H558 0.931 . S
C537 C532 1.356 . S
C537 C536 1.409 . S
C537 H559 0.930 . S
C538 O548 1.270 . S
C538 O549 1.248 . S
C539 O550 1.267 . S
C539 O551 1.278 . S
O540 Pr520 2.562 . S
O540 C522 1.254 . S
O541 Pr520 2.490 . S
O541 C522 1.225 . S
O542 Pr520 2.695 . S
O542 Pr521 2.436 . S
O542 C529 1.270 . S
O543 Pr520 2.512 . S
O543 C529 1.248 . S
O544 Pr521 2.438 . S
O544 C530 1.267 . S
O545 Pr520 2.437 . S
O545 C530 1.278 . S
O546 Pr521 2.562 . S
O546 C531 1.254 . S
O547 Pr521 2.490 . S
O547 C531 1.225 . S
O548 Pr520 2.436 . S
O548 Pr521 2.695 . S
O548 C538 1.270 . S
O549 Pr521 2.512 . S
O549 C538 1.248 . S
O550 Pr520 2.438 . S
O550 C539 1.267 . S
O551 Pr521 2.437 . S
O551 C539 1.278 . S
H552 C524 0.929 . S
H553 C525 0.929 . S
H554 C527 0.931 . S
H555 C528 0.930 . S
H556 C533 0.929 . S
H557 C534 0.885 1_565 S
H558 C536 0.931 . S
H559 C537 0.930 . S
Pr560 C562 2.880 . S
Pr560 O580 2.562 . S
Pr560 O581 2.490 . S
Pr560 O582 2.695 . S
Pr560 O583 2.512 . S
Pr560 O585 2.437 . S
Pr560 O588 2.436 . S
Pr560 O590 2.438 . S
Pr561 C571 2.880 . S
Pr561 O582 2.436 . S
Pr561 O584 2.438 . S
Pr561 O586 2.562 . S
Pr561 O587 2.490 . S
Pr561 O588 2.695 . S
Pr561 O589 2.512 . S
Pr561 O591 2.437 . S
C562 Pr560 2.880 . S
C562 C563 1.491 . S
C562 O580 1.254 . S
C562 O581 1.225 . S
C563 C562 1.491 . S
C563 C564 1.392 . S
C563 C568 1.356 . S
C564 C563 1.392 . S
C564 C565 1.368 . S
C564 H592 0.929 . S
C565 C564 1.368 . S
C565 C566 1.386 . S
C565 H593 0.929 . S
C566 C565 1.386 . S
C566 C567 1.373 . S
C567 C566 1.373 . S
C567 C568 1.409 . S
C567 H594 0.931 . S
C568 C563 1.356 . S
C568 C567 1.409 . S
C568 H595 0.930 . S
C569 O582 1.270 . S
C569 O583 1.248 . S
C570 O584 1.267 . S
C570 O585 1.278 . S
C571 Pr561 2.880 . S
C571 C572 1.491 . S
C571 O586 1.254 . S
C571 O587 1.225 . S
C572 C571 1.491 . S
C572 C573 1.392 . S
C572 C577 1.356 . S
C573 C572 1.392 . S
C573 C574 1.368 . S
C573 H596 0.929 . S
C574 C573 1.368 . S
C574 C575 1.386 . S
C574 H597 0.929 . S
C575 C574 1.386 . S
C575 C576 1.373 . S
C576 C575 1.373 . S
C576 C577 1.409 . S
C576 H598 0.931 . S
C577 C572 1.356 . S
C577 C576 1.409 . S
C577 H599 0.930 . S
C578 O588 1.270 . S
C578 O589 1.248 . S
C579 O590 1.267 . S
C579 O591 1.278 . S
O580 Pr560 2.562 . S
O580 C562 1.254 . S
O581 Pr560 2.490 . S
O581 C562 1.225 . S
O582 Pr560 2.695 . S
O582 Pr561 2.436 . S
O582 C569 1.270 . S
O583 Pr560 2.512 . S
O583 C569 1.248 . S
O584 Pr561 2.438 . S
O584 C570 1.267 . S
O585 Pr560 2.437 . S
O585 C570 1.278 . S
O586 Pr561 2.562 . S
O586 C571 1.254 . S
O587 Pr561 2.490 . S
O587 C571 1.225 . S
O588 Pr560 2.436 . S
O588 Pr561 2.695 . S
O588 C578 1.270 . S
O589 Pr561 2.512 . S
O589 C578 1.248 . S
O590 Pr560 2.438 . S
O590 C579 1.267 . S
O591 Pr561 2.437 . S
O591 C579 1.278 . S
H592 C564 0.929 . S
H593 C565 0.929 . S
H594 C567 0.931 . S
H595 C568 0.930 . S
H596 C573 0.929 . S
H597 C574 0.929 . S
H598 C576 0.931 . S
H599 C577 0.930 . S
Pr600 C602 2.880 . S
Pr600 O620 2.562 . S
Pr600 O621 2.490 . S
Pr600 O622 2.695 . S
Pr600 O623 2.512 . S
Pr600 O625 2.437 . S
Pr600 O628 2.436 . S
Pr600 O630 2.438 1_554 S
Pr601 C611 2.880 1_554 S
Pr601 O622 2.436 . S
Pr601 O624 2.438 . S
Pr601 O626 2.562 1_554 S
Pr601 O627 2.490 . S
Pr601 O628 2.695 . S
Pr601 O629 2.512 . S
Pr601 O631 2.437 1_554 S
C602 Pr600 2.880 . S
C602 C603 1.491 . S
C602 O620 1.254 . S
C602 O621 1.225 . S
C603 C602 1.491 . S
C603 C604 1.392 . S
C603 C608 1.356 . S
C604 C603 1.392 . S
C604 C605 1.368 . S
C604 H632 0.929 . S
C605 C604 1.368 . S
C605 C606 1.386 . S
C605 H633 0.929 . S
C606 C605 1.386 . S
C606 C607 1.373 . S
C607 C606 1.373 . S
C607 C608 1.409 . S
C607 H634 0.931 . S
C608 C603 1.356 . S
C608 C607 1.409 . S
C608 H635 0.930 . S
C609 O622 1.270 . S
C609 O623 1.248 . S
C610 O624 1.267 . S
C610 O625 1.278 . S
C611 Pr601 2.880 1_556 S
C611 C612 1.491 . S
C611 O626 1.254 . S
C611 O627 1.225 1_556 S
C612 C611 1.491 . S
C612 C613 1.392 . S
C612 C617 1.356 . S
C613 C612 1.392 . S
C613 C614 1.368 . S
C613 H636 0.929 . S
C614 C613 1.368 . S
C614 C615 1.386 . S
C614 H637 0.885 1_565 S
C615 C614 1.386 . S
C615 C616 1.373 . S
C616 C615 1.373 . S
C616 C617 1.409 . S
C616 H638 0.931 . S
C617 C612 1.356 . S
C617 C616 1.409 . S
C617 H639 0.930 . S
C618 O628 1.270 . S
C618 O629 1.248 . S
C619 O630 1.267 . S
C619 O631 1.278 . S
O620 Pr600 2.562 . S
O620 C602 1.254 . S
O621 Pr600 2.490 . S
O621 C602 1.225 . S
O622 Pr600 2.695 . S
O622 Pr601 2.436 . S
O622 C609 1.270 . S
O623 Pr600 2.512 . S
O623 C609 1.248 . S
O624 Pr601 2.438 . S
O624 C610 1.267 . S
O625 Pr600 2.437 . S
O625 C610 1.278 . S
O626 Pr601 2.562 1_556 S
O626 C611 1.254 . S
O627 Pr601 2.490 . S
O627 C611 1.225 1_554 S
O628 Pr600 2.436 . S
O628 Pr601 2.695 . S
O628 C618 1.270 . S
O629 Pr601 2.512 . S
O629 C618 1.248 . S
O630 Pr600 2.438 1_556 S
O630 C619 1.267 . S
O631 Pr601 2.437 1_556 S
O631 C619 1.278 . S
H632 C604 0.929 . S
H633 C605 0.929 . S
H634 C607 0.931 . S
H635 C608 0.930 . S
H636 C613 0.929 . S
H637 C614 0.885 1_545 S
H638 C616 0.931 . S
H639 C617 0.930 . S
Pr640 C642 2.880 . S
Pr640 O660 2.562 . S
Pr640 O661 2.490 . S
Pr640 O662 2.695 . S
Pr640 O663 2.512 . S
Pr640 O665 2.437 . S
Pr640 O668 2.436 . S
Pr640 O670 2.438 . S
Pr641 C651 2.880 . S
Pr641 O662 2.436 . S
Pr641 O664 2.438 . S
Pr641 O666 2.562 . S
Pr641 O667 2.490 . S
Pr641 O668 2.695 . S
Pr641 O669 2.512 . S
Pr641 O671 2.437 . S
C642 Pr640 2.880 . S
C642 C643 1.491 . S
C642 O660 1.254 . S
C642 O661 1.225 . S
C643 C642 1.491 . S
C643 C644 1.392 . S
C643 C648 1.356 . S
C644 C643 1.392 . S
C644 C645 1.368 . S
C644 H672 0.929 . S
C645 C644 1.368 . S
C645 C646 1.386 . S
C645 H673 0.929 . S
C646 C645 1.386 . S
C646 C647 1.373 . S
C647 C646 1.373 . S
C647 C648 1.409 . S
C647 H674 0.931 . S
C648 C643 1.356 . S
C648 C647 1.409 . S
C648 H675 0.930 . S
C649 O662 1.270 . S
C649 O663 1.248 . S
C650 O664 1.267 . S
C650 O665 1.278 . S
C651 Pr641 2.880 . S
C651 C652 1.491 . S
C651 O666 1.254 . S
C651 O667 1.225 . S
C652 C651 1.491 . S
C652 C653 1.392 . S
C652 C657 1.356 . S
C653 C652 1.392 . S
C653 C654 1.368 . S
C653 H676 0.929 . S
C654 C653 1.368 . S
C654 C655 1.386 . S
C654 H677 0.929 . S
C655 C654 1.386 . S
C655 C656 1.373 . S
C656 C655 1.373 . S
C656 C657 1.409 . S
C656 H678 0.931 . S
C657 C652 1.356 . S
C657 C656 1.409 . S
C657 H679 0.930 . S
C658 O668 1.270 . S
C658 O669 1.248 . S
C659 O670 1.267 . S
C659 O671 1.278 . S
O660 Pr640 2.562 . S
O660 C642 1.254 . S
O661 Pr640 2.490 . S
O661 C642 1.225 . S
O662 Pr640 2.695 . S
O662 Pr641 2.436 . S
O662 C649 1.270 . S
O663 Pr640 2.512 . S
O663 C649 1.248 . S
O664 Pr641 2.438 . S
O664 C650 1.267 . S
O665 Pr640 2.437 . S
O665 C650 1.278 . S
O666 Pr641 2.562 . S
O666 C651 1.254 . S
O667 Pr641 2.490 . S
O667 C651 1.225 . S
O668 Pr640 2.436 . S
O668 Pr641 2.695 . S
O668 C658 1.270 . S
O669 Pr641 2.512 . S
O669 C658 1.248 . S
O670 Pr640 2.438 . S
O670 C659 1.267 . S
O671 Pr641 2.437 . S
O671 C659 1.278 . S
H672 C644 0.929 . S
H673 C645 0.929 . S
H674 C647 0.931 . S
H675 C648 0.930 . S
H676 C653 0.929 . S
H677 C654 0.929 . S
H678 C656 0.931 . S
H679 C657 0.930 . S
Pr680 C682 2.880 1_554 S
Pr680 O700 2.562 1_554 S
Pr680 O701 2.490 . S
Pr680 O702 2.695 . S
Pr680 O703 2.512 . S
Pr680 O705 2.437 1_554 S
Pr680 O708 2.436 . S
Pr680 O710 2.438 . S
Pr681 C691 2.880 . S
Pr681 O702 2.436 . S
Pr681 O704 2.438 1_554 S
Pr681 O706 2.562 . S
Pr681 O707 2.490 . S
Pr681 O708 2.695 . S
Pr681 O709 2.512 . S
Pr681 O711 2.437 . S
C682 Pr680 2.880 1_556 S
C682 C683 1.491 . S
C682 O700 1.254 . S
C682 O701 1.225 1_556 S
C683 C682 1.491 . S
C683 C684 1.392 . S
C683 C688 1.356 . S
C684 C683 1.392 . S
C684 C685 1.368 . S
C684 H712 0.929 . S
C685 C684 1.368 . S
C685 C686 1.386 . S
C685 H713 0.929 . S
C686 C685 1.386 . S
C686 C687 1.373 . S
C687 C686 1.373 . S
C687 C688 1.409 . S
C687 H714 0.931 . S
C688 C683 1.356 . S
C688 C687 1.409 . S
C688 H715 0.930 . S
C689 O702 1.270 . S
C689 O703 1.248 . S
C690 O704 1.267 . S
C690 O705 1.278 . S
C691 Pr681 2.880 . S
C691 C692 1.491 . S
C691 O706 1.254 . S
C691 O707 1.225 . S
C692 C691 1.491 . S
C692 C693 1.392 . S
C692 C697 1.356 . S
C693 C692 1.392 . S
C693 C694 1.368 . S
C693 H716 0.929 . S
C694 C693 1.368 . S
C694 C695 1.386 . S
C694 H717 0.929 . S
C695 C694 1.386 . S
C695 C696 1.373 . S
C696 C695 1.373 . S
C696 C697 1.409 . S
C696 H718 0.931 . S
C697 C692 1.356 . S
C697 C696 1.409 . S
C697 H719 0.930 . S
C698 O708 1.270 . S
C698 O709 1.248 . S
C699 O710 1.267 . S
C699 O711 1.278 . S
O700 Pr680 2.562 1_556 S
O700 C682 1.254 . S
O701 Pr680 2.490 . S
O701 C682 1.225 1_554 S
O702 Pr680 2.695 . S
O702 Pr681 2.436 . S
O702 C689 1.270 . S
O703 Pr680 2.512 . S
O703 C689 1.248 . S
O704 Pr681 2.438 1_556 S
O704 C690 1.267 . S
O705 Pr680 2.437 1_556 S
O705 C690 1.278 . S
O706 Pr681 2.562 . S
O706 C691 1.254 . S
O707 Pr681 2.490 . S
O707 C691 1.225 . S
O708 Pr680 2.436 . S
O708 Pr681 2.695 . S
O708 C698 1.270 . S
O709 Pr681 2.512 . S
O709 C698 1.248 . S
O710 Pr680 2.438 . S
O710 C699 1.267 . S
O711 Pr681 2.437 . S
O711 C699 1.278 . S
H712 C684 0.929 . S
H713 C685 0.929 . S
H714 C687 0.931 . S
H715 C688 0.930 . S
H716 C693 0.929 . S
H717 C694 0.929 . S
H718 C696 0.931 . S
H719 C697 0.930 . S
Pr720 C722 2.880 . S
Pr720 O740 2.562 . S
Pr720 O741 2.490 . S
Pr720 O742 2.695 . S
Pr720 O743 2.512 . S
Pr720 O745 2.437 . S
Pr720 O748 2.436 . S
Pr720 O750 2.438 . S
Pr721 C731 2.880 . S
Pr721 O742 2.436 . S
Pr721 O744 2.438 . S
Pr721 O746 2.562 . S
Pr721 O747 2.490 . S
Pr721 O748 2.695 . S
Pr721 O749 2.512 . S
Pr721 O751 2.437 . S
C722 Pr720 2.880 . S
C722 C723 1.491 . S
C722 O740 1.254 . S
C722 O741 1.225 . S
C723 C722 1.491 . S
C723 C724 1.392 . S
C723 C728 1.356 . S
C724 C723 1.392 . S
C724 C725 1.368 . S
C724 H752 0.929 . S
C725 C724 1.368 . S
C725 C726 1.386 . S
C725 H753 0.929 . S
C726 C725 1.386 . S
C726 C727 1.373 . S
C727 C726 1.373 . S
C727 C728 1.409 . S
C727 H754 0.931 . S
C728 C723 1.356 . S
C728 C727 1.409 . S
C728 H755 0.930 . S
C729 O742 1.270 . S
C729 O743 1.248 . S
C730 O744 1.267 . S
C730 O745 1.278 . S
C731 Pr721 2.880 . S
C731 C732 1.491 . S
C731 O746 1.254 . S
C731 O747 1.225 . S
C732 C731 1.491 . S
C732 C733 1.392 . S
C732 C737 1.356 . S
C733 C732 1.392 . S
C733 C734 1.368 . S
C733 H756 0.929 . S
C734 C733 1.368 . S
C734 C735 1.386 . S
C734 H757 0.929 . S
C735 C734 1.386 . S
C735 C736 1.373 . S
C736 C735 1.373 . S
C736 C737 1.409 . S
C736 H758 0.931 . S
C737 C732 1.356 . S
C737 C736 1.409 . S
C737 H759 0.930 . S
C738 O748 1.270 . S
C738 O749 1.248 . S
C739 O750 1.267 . S
C739 O751 1.278 . S
O740 Pr720 2.562 . S
O740 C722 1.254 . S
O741 Pr720 2.490 . S
O741 C722 1.225 . S
O742 Pr720 2.695 . S
O742 Pr721 2.436 . S
O742 C729 1.270 . S
O743 Pr720 2.512 . S
O743 C729 1.248 . S
O744 Pr721 2.438 . S
O744 C730 1.267 . S
O745 Pr720 2.437 . S
O745 C730 1.278 . S
O746 Pr721 2.562 . S
O746 C731 1.254 . S
O747 Pr721 2.490 . S
O747 C731 1.225 . S
O748 Pr720 2.436 . S
O748 Pr721 2.695 . S
O748 C738 1.270 . S
O749 Pr721 2.512 . S
O749 C738 1.248 . S
O750 Pr720 2.438 . S
O750 C739 1.267 . S
O751 Pr721 2.437 . S
O751 C739 1.278 . S
H752 C724 0.929 . S
H753 C725 0.929 . S
H754 C727 0.931 . S
H755 C728 0.930 . S
H756 C733 0.929 . S
H757 C734 0.929 . S
H758 C736 0.931 . S
H759 C737 0.930 . S
Pr760 C762 2.880 . S
Pr760 O780 2.562 . S
Pr760 O781 2.490 . S
Pr760 O782 2.695 . S
Pr760 O783 2.512 . S
Pr760 O785 2.437 . S
Pr760 O788 2.436 . S
Pr760 O790 2.438 . S
Pr761 C771 2.880 . S
Pr761 O782 2.436 . S
Pr761 O784 2.438 . S
Pr761 O786 2.562 . S
Pr761 O787 2.490 . S
Pr761 O788 2.695 . S
Pr761 O789 2.512 . S
Pr761 O791 2.437 . S
C762 Pr760 2.880 . S
C762 C763 1.491 . S
C762 O780 1.254 . S
C762 O781 1.225 . S
C763 C762 1.491 . S
C763 C764 1.392 . S
C763 C768 1.356 . S
C764 C763 1.392 . S
C764 C765 1.368 . S
C764 H792 0.929 . S
C765 C764 1.368 . S
C765 C766 1.386 . S
C765 H793 0.929 . S
C766 C765 1.386 . S
C766 C767 1.373 . S
C767 C766 1.373 . S
C767 C768 1.409 . S
C767 H794 0.931 . S
C768 C763 1.356 . S
C768 C767 1.409 . S
C768 H795 0.930 . S
C769 O782 1.270 . S
C769 O783 1.248 . S
C770 O784 1.267 . S
C770 O785 1.278 . S
C771 Pr761 2.880 . S
C771 C772 1.491 . S
C771 O786 1.254 . S
C771 O787 1.225 . S
C772 C771 1.491 . S
C772 C773 1.392 . S
C772 C777 1.356 . S
C773 C772 1.392 . S
C773 C774 1.368 . S
C773 H796 0.929 . S
C774 C773 1.368 . S
C774 C775 1.386 . S
C774 H797 0.929 . S
C775 C774 1.386 . S
C775 C776 1.373 . S
C776 C775 1.373 . S
C776 C777 1.409 . S
C776 H798 0.931 . S
C777 C772 1.356 . S
C777 C776 1.409 . S
C777 H799 0.930 . S
C778 O788 1.270 . S
C778 O789 1.248 . S
C779 O790 1.267 . S
C779 O791 1.278 . S
O780 Pr760 2.562 . S
O780 C762 1.254 . S
O781 Pr760 2.490 . S
O781 C762 1.225 . S
O782 Pr760 2.695 . S
O782 Pr761 2.436 . S
O782 C769 1.270 . S
O783 Pr760 2.512 . S
O783 C769 1.248 . S
O784 Pr761 2.438 . S
O784 C770 1.267 . S
O785 Pr760 2.437 . S
O785 C770 1.278 . S
O786 Pr761 2.562 . S
O786 C771 1.254 . S
O787 Pr761 2.490 . S
O787 C771 1.225 . S
O788 Pr760 2.436 . S
O788 Pr761 2.695 . S
O788 C778 1.270 . S
O789 Pr761 2.512 . S
O789 C778 1.248 . S
O790 Pr760 2.438 . S
O790 C779 1.267 . S
O791 Pr761 2.437 . S
O791 C779 1.278 . S
H792 C764 0.929 . S
H793 C765 0.929 . S
H794 C767 0.931 . S
H795 C768 0.930 . S
H796 C773 0.929 . S
H797 C774 0.929 . S
H798 C776 0.931 . S
H799 C777 0.930 . S
Pr800 C802 2.880 . S
Pr800 O820 2.562 . S
Pr800 O821 2.490 . S
Pr800 O822 2.695 . S
Pr800 O823 2.512 . S
Pr800 O825 2.437 . S
Pr800 O828 2.436 . S
Pr800 O830 2.438 . S
Pr801 C811 2.880 . S
Pr801 O822 2.436 . S
Pr801 O824 2.438 . S
Pr801 O826 2.562 . S
Pr801 O827 2.490 . S
Pr801 O828 2.695 . S
Pr801 O829 2.512 . S
Pr801 O831 2.437 . S
C802 Pr800 2.880 . S
C802 C803 1.491 . S
C802 O820 1.254 . S
C802 O821 1.225 . S
C803 C802 1.491 . S
C803 C804 1.392 . S
C803 C808 1.356 . S
C804 C803 1.392 . S
C804 C805 1.368 . S
C804 H832 0.929 . S
C805 C804 1.368 . S
C805 C806 1.386 . S
C805 H833 0.929 . S
C806 C805 1.386 . S
C806 C807 1.373 . S
C807 C806 1.373 . S
C807 C808 1.409 . S
C807 H834 0.931 . S
C808 C803 1.356 . S
C808 C807 1.409 . S
C808 H835 0.930 . S
C809 O822 1.270 . S
C809 O823 1.248 . S
C810 O824 1.267 . S
C810 O825 1.278 . S
C811 Pr801 2.880 . S
C811 C812 1.491 . S
C811 O826 1.254 . S
C811 O827 1.225 . S
C812 C811 1.491 . S
C812 C813 1.392 . S
C812 C817 1.356 . S
C813 C812 1.392 . S
C813 C814 1.368 . S
C813 H836 0.929 . S
C814 C813 1.368 . S
C814 C815 1.386 . S
C814 H837 0.929 . S
C815 C814 1.386 . S
C815 C816 1.373 . S
C816 C815 1.373 . S
C816 C817 1.409 . S
C816 H838 0.931 . S
C817 C812 1.356 . S
C817 C816 1.409 . S
C817 H839 0.930 . S
C818 O828 1.270 . S
C818 O829 1.248 . S
C819 O830 1.267 . S
C819 O831 1.278 . S
O820 Pr800 2.562 . S
O820 C802 1.254 . S
O821 Pr800 2.490 . S
O821 C802 1.225 . S
O822 Pr800 2.695 . S
O822 Pr801 2.436 . S
O822 C809 1.270 . S
O823 Pr800 2.512 . S
O823 C809 1.248 . S
O824 Pr801 2.438 . S
O824 C810 1.267 . S
O825 Pr800 2.437 . S
O825 C810 1.278 . S
O826 Pr801 2.562 . S
O826 C811 1.254 . S
O827 Pr801 2.490 . S
O827 C811 1.225 . S
O828 Pr800 2.436 . S
O828 Pr801 2.695 . S
O828 C818 1.270 . S
O829 Pr801 2.512 . S
O829 C818 1.248 . S
O830 Pr800 2.438 . S
O830 C819 1.267 . S
O831 Pr801 2.437 . S
O831 C819 1.278 . S
H832 C804 0.929 . S
H833 C805 0.929 . S
H834 C807 0.931 . S
H835 C808 0.930 . S
H836 C813 0.929 . S
H837 C814 0.929 . S
H838 C816 0.931 . S
H839 C817 0.930 . S
Pr840 C842 2.880 1_556 S
Pr840 O860 2.562 1_556 S
Pr840 O861 2.490 . S
Pr840 O862 2.695 . S
Pr840 O863 2.512 . S
Pr840 O865 2.437 1_556 S
Pr840 O868 2.436 . S
Pr840 O870 2.438 . S
Pr841 C851 2.880 . S
Pr841 O862 2.436 . S
Pr841 O864 2.438 1_556 S
Pr841 O866 2.562 . S
Pr841 O867 2.490 . S
Pr841 O868 2.695 . S
Pr841 O869 2.512 . S
Pr841 O871 2.437 . S
C842 Pr840 2.880 1_554 S
C842 C843 1.491 . S
C842 O860 1.254 . S
C842 O861 1.225 1_554 S
C843 C842 1.491 . S
C843 C844 1.392 . S
C843 C848 1.356 . S
C844 C843 1.392 . S
C844 C845 1.368 . S
C844 H872 0.929 . S
C845 C844 1.368 . S
C845 C846 1.386 . S
C845 H873 0.929 . S
C846 C845 1.386 . S
C846 C847 1.373 . S
C847 C846 1.373 . S
C847 C848 1.409 . S
C847 H874 0.931 . S
C848 C843 1.356 . S
C848 C847 1.409 . S
C848 H875 0.930 . S
C849 O862 1.270 . S
C849 O863 1.248 . S
C850 O864 1.267 . S
C850 O865 1.278 . S
C851 Pr841 2.880 . S
C851 C852 1.491 . S
C851 O866 1.254 . S
C851 O867 1.225 . S
C852 C851 1.491 . S
C852 C853 1.392 . S
C852 C857 1.356 . S
C853 C852 1.392 . S
C853 C854 1.368 . S
C853 H876 0.929 . S
C854 C853 1.368 . S
C854 C855 1.386 . S
C854 H877 0.929 . S
C855 C854 1.386 . S
C855 C856 1.373 . S
C856 C855 1.373 . S
C856 C857 1.409 . S
C856 H878 0.931 . S
C857 C852 1.356 . S
C857 C856 1.409 . S
C857 H879 0.930 . S
C858 O868 1.270 . S
C858 O869 1.248 . S
C859 O870 1.267 . S
C859 O871 1.278 . S
O860 Pr840 2.562 1_554 S
O860 C842 1.254 . S
O861 Pr840 2.490 . S
O861 C842 1.225 1_556 S
O862 Pr840 2.695 . S
O862 Pr841 2.436 . S
O862 C849 1.270 . S
O863 Pr840 2.512 . S
O863 C849 1.248 . S
O864 Pr841 2.438 1_554 S
O864 C850 1.267 . S
O865 Pr840 2.437 1_554 S
O865 C850 1.278 . S
O866 Pr841 2.562 . S
O866 C851 1.254 . S
O867 Pr841 2.490 . S
O867 C851 1.225 . S
O868 Pr840 2.436 . S
O868 Pr841 2.695 . S
O868 C858 1.270 . S
O869 Pr841 2.512 . S
O869 C858 1.248 . S
O870 Pr840 2.438 . S
O870 C859 1.267 . S
O871 Pr841 2.437 . S
O871 C859 1.278 . S
H872 C844 0.929 . S
H873 C845 0.929 . S
H874 C847 0.931 . S
H875 C848 0.930 . S
H876 C853 0.929 . S
H877 C854 0.929 . S
H878 C856 0.931 . S
H879 C857 0.930 . S
Pr880 C882 2.880 . S
Pr880 O900 2.562 . S
Pr880 O901 2.490 . S
Pr880 O902 2.695 . S
Pr880 O903 2.512 . S
Pr880 O905 2.437 . S
Pr880 O908 2.436 . S
Pr880 O910 2.438 . S
Pr881 C891 2.880 . S
Pr881 O902 2.436 . S
Pr881 O904 2.438 . S
Pr881 O906 2.562 . S
Pr881 O907 2.490 . S
Pr881 O908 2.695 . S
Pr881 O909 2.512 . S
Pr881 O911 2.437 . S
C882 Pr880 2.880 . S
C882 C883 1.491 . S
C882 O900 1.254 . S
C882 O901 1.225 . S
C883 C882 1.491 . S
C883 C884 1.392 . S
C883 C888 1.356 . S
C884 C883 1.392 . S
C884 C885 1.368 . S
C884 H912 0.929 . S
C885 C884 1.368 . S
C885 C886 1.386 . S
C885 H913 0.929 . S
C886 C885 1.386 . S
C886 C887 1.373 . S
C887 C886 1.373 . S
C887 C888 1.409 . S
C887 H914 0.931 . S
C888 C883 1.356 . S
C888 C887 1.409 . S
C888 H915 0.930 . S
C889 O902 1.270 . S
C889 O903 1.248 . S
C890 O904 1.267 . S
C890 O905 1.278 . S
C891 Pr881 2.880 . S
C891 C892 1.491 . S
C891 O906 1.254 . S
C891 O907 1.225 . S
C892 C891 1.491 . S
C892 C893 1.392 . S
C892 C897 1.356 . S
C893 C892 1.392 . S
C893 C894 1.368 . S
C893 H916 0.929 . S
C894 C893 1.368 . S
C894 C895 1.386 . S
C894 H917 0.929 . S
C895 C894 1.386 . S
C895 C896 1.373 . S
C896 C895 1.373 . S
C896 C897 1.409 . S
C896 H918 0.931 . S
C897 C892 1.356 . S
C897 C896 1.409 . S
C897 H919 0.930 . S
C898 O908 1.270 . S
C898 O909 1.248 . S
C899 O910 1.267 . S
C899 O911 1.278 . S
O900 Pr880 2.562 . S
O900 C882 1.254 . S
O901 Pr880 2.490 . S
O901 C882 1.225 . S
O902 Pr880 2.695 . S
O902 Pr881 2.436 . S
O902 C889 1.270 . S
O903 Pr880 2.512 . S
O903 C889 1.248 . S
O904 Pr881 2.438 . S
O904 C890 1.267 . S
O905 Pr880 2.437 . S
O905 C890 1.278 . S
O906 Pr881 2.562 . S
O906 C891 1.254 . S
O907 Pr881 2.490 . S
O907 C891 1.225 . S
O908 Pr880 2.436 . S
O908 Pr881 2.695 . S
O908 C898 1.270 . S
O909 Pr881 2.512 . S
O909 C898 1.248 . S
O910 Pr880 2.438 . S
O910 C899 1.267 . S
O911 Pr881 2.437 . S
O911 C899 1.278 . S
H912 C884 0.929 . S
H913 C885 0.929 . S
H914 C887 0.931 . S
H915 C888 0.930 . S
H916 C893 0.929 . S
H917 C894 0.929 . S
H918 C896 0.931 . S
H919 C897 0.930 . S
Pr920 C922 2.880 . S
Pr920 O940 2.562 . S
Pr920 O941 2.490 . S
Pr920 O942 2.695 . S
Pr920 O943 2.512 . S
Pr920 O945 2.437 . S
Pr920 O948 2.436 . S
Pr920 O950 2.438 . S
Pr921 C931 2.880 . S
Pr921 O942 2.436 . S
Pr921 O944 2.438 . S
Pr921 O946 2.562 . S
Pr921 O947 2.490 . S
Pr921 O948 2.695 . S
Pr921 O949 2.512 . S
Pr921 O951 2.437 . S
C922 Pr920 2.880 . S
C922 C923 1.491 . S
C922 O940 1.254 . S
C922 O941 1.225 . S
C923 C922 1.491 . S
C923 C924 1.392 . S
C923 C928 1.356 . S
C924 C923 1.392 . S
C924 C925 1.368 . S
C924 H952 0.929 . S
C925 C924 1.368 . S
C925 C926 1.386 . S
C925 H953 0.929 . S
C926 C925 1.386 . S
C926 C927 1.373 . S
C927 C926 1.373 . S
C927 C928 1.409 . S
C927 H954 0.931 . S
C928 C923 1.356 . S
C928 C927 1.409 . S
C928 H955 0.930 . S
C929 O942 1.270 . S
C929 O943 1.248 . S
C930 O944 1.267 . S
C930 O945 1.278 . S
C931 Pr921 2.880 . S
C931 C932 1.491 . S
C931 O946 1.254 . S
C931 O947 1.225 . S
C932 C931 1.491 . S
C932 C933 1.392 . S
C932 C937 1.356 . S
C933 C932 1.392 . S
C933 C934 1.368 . S
C933 H956 0.929 . S
C934 C933 1.368 . S
C934 C935 1.386 . S
C934 H957 0.929 . S
C935 C934 1.386 . S
C935 C936 1.373 . S
C936 C935 1.373 . S
C936 C937 1.409 . S
C936 H958 0.931 . S
C937 C932 1.356 . S
C937 C936 1.409 . S
C937 H959 0.930 . S
C938 O948 1.270 . S
C938 O949 1.248 . S
C939 O950 1.267 . S
C939 O951 1.278 . S
O940 Pr920 2.562 . S
O940 C922 1.254 . S
O941 Pr920 2.490 . S
O941 C922 1.225 . S
O942 Pr920 2.695 . S
O942 Pr921 2.436 . S
O942 C929 1.270 . S
O943 Pr920 2.512 . S
O943 C929 1.248 . S
O944 Pr921 2.438 . S
O944 C930 1.267 . S
O945 Pr920 2.437 . S
O945 C930 1.278 . S
O946 Pr921 2.562 . S
O946 C931 1.254 . S
O947 Pr921 2.490 . S
O947 C931 1.225 . S
O948 Pr920 2.436 . S
O948 Pr921 2.695 . S
O948 C938 1.270 . S
O949 Pr921 2.512 . S
O949 C938 1.248 . S
O950 Pr920 2.438 . S
O950 C939 1.267 . S
O951 Pr921 2.437 . S
O951 C939 1.278 . S
H952 C924 0.929 . S
H953 C925 0.929 . S
H954 C927 0.931 . S
H955 C928 0.930 . S
H956 C933 0.929 . S
H957 C934 0.929 . S
H958 C936 0.931 . S
H959 C937 0.930 . S
Pr960 C962 2.880 . S
Pr960 O980 2.562 . S
Pr960 O981 2.490 . S
Pr960 O982 2.695 . S
Pr960 O983 2.512 . S
Pr960 O985 2.437 . S
Pr960 O988 2.436 . S
Pr960 O990 2.438 . S
Pr961 C971 2.880 . S
Pr961 O982 2.436 . S
Pr961 O984 2.438 . S
Pr961 O986 2.562 . S
Pr961 O987 2.490 . S
Pr961 O988 2.695 . S
Pr961 O989 2.512 . S
Pr961 O991 2.437 . S
C962 Pr960 2.880 . S
C962 C963 1.491 . S
C962 O980 1.254 . S
C962 O981 1.225 . S
C963 C962 1.491 . S
C963 C964 1.392 . S
C963 C968 1.356 . S
C964 C963 1.392 . S
C964 C965 1.368 . S
C964 H992 0.929 . S
C965 C964 1.368 . S
C965 C966 1.386 . S
C965 H993 0.929 . S
C966 C965 1.386 . S
C966 C967 1.373 . S
C967 C966 1.373 . S
C967 C968 1.409 . S
C967 H994 0.931 . S
C968 C963 1.356 . S
C968 C967 1.409 . S
C968 H995 0.930 . S
C969 O982 1.270 . S
C969 O983 1.248 . S
C970 O984 1.267 . S
C970 O985 1.278 . S
C971 Pr961 2.880 . S
C971 C972 1.491 . S
C971 O986 1.254 . S
C971 O987 1.225 . S
C972 C971 1.491 . S
C972 C973 1.392 . S
C972 C977 1.356 . S
C973 C972 1.392 . S
C973 C974 1.368 . S
C973 H996 0.929 . S
C974 C973 1.368 . S
C974 C975 1.386 . S
C974 H997 0.929 . S
C975 C974 1.386 . S
C975 C976 1.373 . S
C976 C975 1.373 . S
C976 C977 1.409 . S
C976 H998 0.931 . S
C977 C972 1.356 . S
C977 C976 1.409 . S
C977 H999 0.930 . S
C978 O988 1.270 . S
C978 O989 1.248 . S
C979 O990 1.267 . S
C979 O991 1.278 . S
O980 Pr960 2.562 . S
O980 C962 1.254 . S
O981 Pr960 2.490 . S
O981 C962 1.225 . S
O982 Pr960 2.695 . S
O982 Pr961 2.436 . S
O982 C969 1.270 . S
O983 Pr960 2.512 . S
O983 C969 1.248 . S
O984 Pr961 2.438 . S
O984 C970 1.267 . S
O985 Pr960 2.437 . S
O985 C970 1.278 . S
O986 Pr961 2.562 . S
O986 C971 1.254 . S
O987 Pr961 2.490 . S
O987 C971 1.225 . S
O988 Pr960 2.436 . S
O988 Pr961 2.695 . S
O988 C978 1.270 . S
O989 Pr961 2.512 . S
O989 C978 1.248 . S
O990 Pr960 2.438 . S
O990 C979 1.267 . S
O991 Pr961 2.437 . S
O991 C979 1.278 . S
H992 C964 0.929 . S
H993 C965 0.929 . S
H994 C967 0.931 . S
H995 C968 0.930 . S
H996 C973 0.929 . S
H997 C974 0.929 . S
H998 C976 0.931 . S
H999 C977 0.930 . S
Pr1000 C1002 2.880 . S
Pr1000 O1020 2.562 . S
Pr1000 O1021 2.490 . S
Pr1000 O1022 2.695 . S
Pr1000 O1023 2.512 . S
Pr1000 O1025 2.437 . S
Pr1000 O1028 2.436 . S
Pr1000 O1030 2.438 1_556 S
Pr1001 C1011 2.880 1_556 S
Pr1001 O1022 2.436 . S
Pr1001 O1024 2.438 . S
Pr1001 O1026 2.562 1_556 S
Pr1001 O1027 2.490 . S
Pr1001 O1028 2.695 . S
Pr1001 O1029 2.512 . S
Pr1001 O1031 2.437 1_556 S
C1002 Pr1000 2.880 . S
C1002 C1003 1.491 . S
C1002 O1020 1.254 . S
C1002 O1021 1.225 . S
C1003 C1002 1.491 . S
C1003 C1004 1.392 . S
C1003 C1008 1.356 . S
C1004 C1003 1.392 . S
C1004 C1005 1.368 . S
C1004 H1032 0.929 . S
C1005 C1004 1.368 . S
C1005 C1006 1.386 . S
C1005 H1033 0.929 . S
C1006 C1005 1.386 . S
C1006 C1007 1.373 . S
C1007 C1006 1.373 . S
C1007 C1008 1.409 . S
C1007 H1034 0.931 . S
C1008 C1003 1.356 . S
C1008 C1007 1.409 . S
C1008 H1035 0.930 . S
C1009 O1022 1.270 . S
C1009 O1023 1.248 . S
C1010 O1024 1.267 . S
C1010 O1025 1.278 . S
C1011 Pr1001 2.880 1_554 S
C1011 C1012 1.491 . S
C1011 O1026 1.254 . S
C1011 O1027 1.225 1_554 S
C1012 C1011 1.491 . S
C1012 C1013 1.392 . S
C1012 C1017 1.356 . S
C1013 C1012 1.392 . S
C1013 C1014 1.368 . S
C1013 H1036 0.929 . S
C1014 C1013 1.368 . S
C1014 C1015 1.386 . S
C1014 H1037 0.929 . S
C1015 C1014 1.386 . S
C1015 C1016 1.373 . S
C1016 C1015 1.373 . S
C1016 C1017 1.409 . S
C1016 H1038 0.931 . S
C1017 C1012 1.356 . S
C1017 C1016 1.409 . S
C1017 H1039 0.930 . S
C1018 O1028 1.270 . S
C1018 O1029 1.248 . S
C1019 O1030 1.267 . S
C1019 O1031 1.278 . S
O1020 Pr1000 2.562 . S
O1020 C1002 1.254 . S
O1021 Pr1000 2.490 . S
O1021 C1002 1.225 . S
O1022 Pr1000 2.695 . S
O1022 Pr1001 2.436 . S
O1022 C1009 1.270 . S
O1023 Pr1000 2.512 . S
O1023 C1009 1.248 . S
O1024 Pr1001 2.438 . S
O1024 C1010 1.267 . S
O1025 Pr1000 2.437 . S
O1025 C1010 1.278 . S
O1026 Pr1001 2.562 1_554 S
O1026 C1011 1.254 . S
O1027 Pr1001 2.490 . S
O1027 C1011 1.225 1_556 S
O1028 Pr1000 2.436 . S
O1028 Pr1001 2.695 . S
O1028 C1018 1.270 . S
O1029 Pr1001 2.512 . S
O1029 C1018 1.248 . S
O1030 Pr1000 2.438 1_554 S
O1030 C1019 1.267 . S
O1031 Pr1001 2.437 1_554 S
O1031 C1019 1.278 . S
H1032 C1004 0.929 . S
H1033 C1005 0.929 . S
H1034 C1007 0.931 . S
H1035 C1008 0.930 . S
H1036 C1013 0.929 . S
H1037 C1014 0.929 . S
H1038 C1016 0.931 . S
H1039 C1017 0.930 . S
Pr1040 C1042 2.880 . S
Pr1040 O1060 2.562 . S
Pr1040 O1061 2.490 . S
Pr1040 O1062 2.695 . S
Pr1040 O1063 2.512 . S
Pr1040 O1065 2.437 . S
Pr1040 O1068 2.436 . S
Pr1040 O1070 2.438 . S
Pr1041 C1051 2.880 . S
Pr1041 O1062 2.436 . S
Pr1041 O1064 2.438 . S
Pr1041 O1066 2.562 . S
Pr1041 O1067 2.490 . S
Pr1041 O1068 2.695 . S
Pr1041 O1069 2.512 . S
Pr1041 O1071 2.437 . S
C1042 Pr1040 2.880 . S
C1042 C1043 1.491 . S
C1042 O1060 1.254 . S
C1042 O1061 1.225 . S
C1043 C1042 1.491 . S
C1043 C1044 1.392 . S
C1043 C1048 1.356 . S
C1044 C1043 1.392 . S
C1044 C1045 1.368 . S
C1044 H1072 0.929 . S
C1045 C1044 1.368 . S
C1045 C1046 1.386 . S
C1045 H1073 0.929 . S
C1046 C1045 1.386 . S
C1046 C1047 1.373 . S
C1047 C1046 1.373 . S
C1047 C1048 1.409 . S
C1047 H1074 0.931 . S
C1048 C1043 1.356 . S
C1048 C1047 1.409 . S
C1048 H1075 0.930 . S
C1049 O1062 1.270 . S
C1049 O1063 1.248 . S
C1050 O1064 1.267 . S
C1050 O1065 1.278 . S
C1051 Pr1041 2.880 . S
C1051 C1052 1.491 . S
C1051 O1066 1.254 . S
C1051 O1067 1.225 . S
C1052 C1051 1.491 . S
C1052 C1053 1.392 . S
C1052 C1057 1.356 . S
C1053 C1052 1.392 . S
C1053 C1054 1.368 . S
C1053 H1076 0.929 . S
C1054 C1053 1.368 . S
C1054 C1055 1.386 . S
C1054 H1077 0.929 . S
C1055 C1054 1.386 . S
C1055 C1056 1.373 . S
C1056 C1055 1.373 . S
C1056 C1057 1.409 . S
C1056 H1078 0.931 . S
C1057 C1052 1.356 . S
C1057 C1056 1.409 . S
C1057 H1079 0.930 . S
C1058 O1068 1.270 . S
C1058 O1069 1.248 . S
C1059 O1070 1.267 . S
C1059 O1071 1.278 . S
O1060 Pr1040 2.562 . S
O1060 C1042 1.254 . S
O1061 Pr1040 2.490 . S
O1061 C1042 1.225 . S
O1062 Pr1040 2.695 . S
O1062 Pr1041 2.436 . S
O1062 C1049 1.270 . S
O1063 Pr1040 2.512 . S
O1063 C1049 1.248 . S
O1064 Pr1041 2.438 . S
O1064 C1050 1.267 . S
O1065 Pr1040 2.437 . S
O1065 C1050 1.278 . S
O1066 Pr1041 2.562 . S
O1066 C1051 1.254 . S
O1067 Pr1041 2.490 . S
O1067 C1051 1.225 . S
O1068 Pr1040 2.436 . S
O1068 Pr1041 2.695 . S
O1068 C1058 1.270 . S
O1069 Pr1041 2.512 . S
O1069 C1058 1.248 . S
O1070 Pr1040 2.438 . S
O1070 C1059 1.267 . S
O1071 Pr1041 2.437 . S
O1071 C1059 1.278 . S
H1072 C1044 0.929 . S
H1073 C1045 0.929 . S
H1074 C1047 0.931 . S
H1075 C1048 0.930 . S
H1076 C1053 0.929 . S
H1077 C1054 0.929 . S
H1078 C1056 0.931 . S
H1079 C1057 0.930 . S
Pr1080 C1082 2.880 . S
Pr1080 O1100 2.562 . S
Pr1080 O1101 2.490 . S
Pr1080 O1102 2.695 . S
Pr1080 O1103 2.512 . S
Pr1080 O1105 2.437 . S
Pr1080 O1108 2.436 . S
Pr1080 O1110 2.438 . S
Pr1081 C1091 2.880 . S
Pr1081 O1102 2.436 . S
Pr1081 O1104 2.438 . S
Pr1081 O1106 2.562 . S
Pr1081 O1107 2.490 . S
Pr1081 O1108 2.695 . S
Pr1081 O1109 2.512 . S
Pr1081 O1111 2.437 . S
C1082 Pr1080 2.880 . S
C1082 C1083 1.491 . S
C1082 O1100 1.254 . S
C1082 O1101 1.225 . S
C1083 C1082 1.491 . S
C1083 C1084 1.392 . S
C1083 C1088 1.356 . S
C1084 C1083 1.392 . S
C1084 C1085 1.368 . S
C1084 H1112 0.929 . S
C1085 C1084 1.368 . S
C1085 C1086 1.386 . S
C1085 H1113 0.929 . S
C1086 C1085 1.386 . S
C1086 C1087 1.373 . S
C1087 C1086 1.373 . S
C1087 C1088 1.409 . S
C1087 H1114 0.931 . S
C1088 C1083 1.356 . S
C1088 C1087 1.409 . S
C1088 H1115 0.930 . S
C1089 O1102 1.270 . S
C1089 O1103 1.248 . S
C1090 O1104 1.267 . S
C1090 O1105 1.278 . S
C1091 Pr1081 2.880 . S
C1091 C1092 1.491 . S
C1091 O1106 1.254 . S
C1091 O1107 1.225 . S
C1092 C1091 1.491 . S
C1092 C1093 1.392 . S
C1092 C1097 1.356 . S
C1093 C1092 1.392 . S
C1093 C1094 1.368 . S
C1093 H1116 0.929 . S
C1094 C1093 1.368 . S
C1094 C1095 1.386 . S
C1094 H1117 0.929 . S
C1095 C1094 1.386 . S
C1095 C1096 1.373 . S
C1096 C1095 1.373 . S
C1096 C1097 1.409 . S
C1096 H1118 0.931 . S
C1097 C1092 1.356 . S
C1097 C1096 1.409 . S
C1097 H1119 0.930 . S
C1098 O1108 1.270 . S
C1098 O1109 1.248 . S
C1099 O1110 1.267 . S
C1099 O1111 1.278 . S
O1100 Pr1080 2.562 . S
O1100 C1082 1.254 . S
O1101 Pr1080 2.490 . S
O1101 C1082 1.225 . S
O1102 Pr1080 2.695 . S
O1102 Pr1081 2.436 . S
O1102 C1089 1.270 . S
O1103 Pr1080 2.512 . S
O1103 C1089 1.248 . S
O1104 Pr1081 2.438 . S
O1104 C1090 1.267 . S
O1105 Pr1080 2.437 . S
O1105 C1090 1.278 . S
O1106 Pr1081 2.562 . S
O1106 C1091 1.254 . S
O1107 Pr1081 2.490 . S
O1107 C1091 1.225 . S
O1108 Pr1080 2.436 . S
O1108 Pr1081 2.695 . S
O1108 C1098 1.270 . S
O1109 Pr1081 2.512 . S
O1109 C1098 1.248 . S
O1110 Pr1080 2.438 . S
O1110 C1099 1.267 . S
O1111 Pr1081 2.437 . S
O1111 C1099 1.278 . S
H1112 C1084 0.929 . S
H1113 C1085 0.929 . S
H1114 C1087 0.931 . S
H1115 C1088 0.930 . S
H1116 C1093 0.929 . S
H1117 C1094 0.929 . S
H1118 C1096 0.931 . S
H1119 C1097 0.930 . S
Pr1120 C1122 2.880 . S
Pr1120 O1140 2.562 . S
Pr1120 O1141 2.490 . S
Pr1120 O1142 2.695 . S
Pr1120 O1143 2.512 . S
Pr1120 O1145 2.437 . S
Pr1120 O1148 2.436 . S
Pr1120 O1150 2.438 . S
Pr1121 C1131 2.880 . S
Pr1121 O1142 2.436 . S
Pr1121 O1144 2.438 . S
Pr1121 O1146 2.562 . S
Pr1121 O1147 2.490 . S
Pr1121 O1148 2.695 . S
Pr1121 O1149 2.512 . S
Pr1121 O1151 2.437 . S
C1122 Pr1120 2.880 . S
C1122 C1123 1.491 . S
C1122 O1140 1.254 . S
C1122 O1141 1.225 . S
C1123 C1122 1.491 . S
C1123 C1124 1.392 . S
C1123 C1128 1.356 . S
C1124 C1123 1.392 . S
C1124 C1125 1.368 . S
C1124 H1152 0.929 . S
C1125 C1124 1.368 . S
C1125 C1126 1.386 . S
C1125 H1153 0.929 . S
C1126 C1125 1.386 . S
C1126 C1127 1.373 . S
C1127 C1126 1.373 . S
C1127 C1128 1.409 . S
C1127 H1154 0.931 . S
C1128 C1123 1.356 . S
C1128 C1127 1.409 . S
C1128 H1155 0.930 . S
C1129 O1142 1.270 . S
C1129 O1143 1.248 . S
C1130 O1144 1.267 . S
C1130 O1145 1.278 . S
C1131 Pr1121 2.880 . S
C1131 C1132 1.491 . S
C1131 O1146 1.254 . S
C1131 O1147 1.225 . S
C1132 C1131 1.491 . S
C1132 C1133 1.392 . S
C1132 C1137 1.356 . S
C1133 C1132 1.392 . S
C1133 C1134 1.368 . S
C1133 H1156 0.929 . S
C1134 C1133 1.368 . S
C1134 C1135 1.386 . S
C1134 H1157 0.929 . S
C1135 C1134 1.386 . S
C1135 C1136 1.373 . S
C1136 C1135 1.373 . S
C1136 C1137 1.409 . S
C1136 H1158 0.931 . S
C1137 C1132 1.356 . S
C1137 C1136 1.409 . S
C1137 H1159 0.930 . S
C1138 O1148 1.270 . S
C1138 O1149 1.248 . S
C1139 O1150 1.267 . S
C1139 O1151 1.278 . S
O1140 Pr1120 2.562 . S
O1140 C1122 1.254 . S
O1141 Pr1120 2.490 . S
O1141 C1122 1.225 . S
O1142 Pr1120 2.695 . S
O1142 Pr1121 2.436 . S
O1142 C1129 1.270 . S
O1143 Pr1120 2.512 . S
O1143 C1129 1.248 . S
O1144 Pr1121 2.438 . S
O1144 C1130 1.267 . S
O1145 Pr1120 2.437 . S
O1145 C1130 1.278 . S
O1146 Pr1121 2.562 . S
O1146 C1131 1.254 . S
O1147 Pr1121 2.490 . S
O1147 C1131 1.225 . S
O1148 Pr1120 2.436 . S
O1148 Pr1121 2.695 . S
O1148 C1138 1.270 . S
O1149 Pr1121 2.512 . S
O1149 C1138 1.248 . S
O1150 Pr1120 2.438 . S
O1150 C1139 1.267 . S
O1151 Pr1121 2.437 . S
O1151 C1139 1.278 . S
H1152 C1124 0.929 . S
H1153 C1125 0.929 . S
H1154 C1127 0.931 . S
H1155 C1128 0.930 . S
H1156 C1133 0.929 . S
H1157 C1134 0.929 . S
H1158 C1136 0.931 . S
H1159 C1137 0.930 . S
Pr1160 C1162 2.880 . S
Pr1160 O1180 2.562 . S
Pr1160 O1181 2.490 . S
Pr1160 O1182 2.695 . S
Pr1160 O1183 2.512 . S
Pr1160 O1185 2.437 . S
Pr1160 O1188 2.436 . S
Pr1160 O1190 2.438 1_554 S
Pr1161 C1171 2.880 1_554 S
Pr1161 O1182 2.436 . S
Pr1161 O1184 2.438 . S
Pr1161 O1186 2.562 1_554 S
Pr1161 O1187 2.490 . S
Pr1161 O1188 2.695 . S
Pr1161 O1189 2.512 . S
Pr1161 O1191 2.437 1_554 S
C1162 Pr1160 2.880 . S
C1162 C1163 1.491 . S
C1162 O1180 1.254 . S
C1162 O1181 1.225 . S
C1163 C1162 1.491 . S
C1163 C1164 1.392 . S
C1163 C1168 1.356 . S
C1164 C1163 1.392 . S
C1164 C1165 1.368 . S
C1164 H1192 0.929 . S
C1165 C1164 1.368 . S
C1165 C1166 1.386 . S
C1165 H1193 0.929 . S
C1166 C1165 1.386 . S
C1166 C1167 1.373 . S
C1167 C1166 1.373 . S
C1167 C1168 1.409 . S
C1167 H1194 0.931 . S
C1168 C1163 1.356 . S
C1168 C1167 1.409 . S
C1168 H1195 0.930 . S
C1169 O1182 1.270 . S
C1169 O1183 1.248 . S
C1170 O1184 1.267 . S
C1170 O1185 1.278 . S
C1171 Pr1161 2.880 1_556 S
C1171 C1172 1.491 . S
C1171 O1186 1.254 . S
C1171 O1187 1.225 1_556 S
C1172 C1171 1.491 . S
C1172 C1173 1.392 . S
C1172 C1177 1.356 . S
C1173 C1172 1.392 . S
C1173 C1174 1.368 . S
C1173 H1196 0.929 . S
C1174 C1173 1.368 . S
C1174 C1175 1.386 . S
C1174 H1197 0.929 . S
C1175 C1174 1.386 . S
C1175 C1176 1.373 . S
C1176 C1175 1.373 . S
C1176 C1177 1.409 . S
C1176 H1198 0.931 . S
C1177 C1172 1.356 . S
C1177 C1176 1.409 . S
C1177 H1199 0.930 . S
C1178 O1188 1.270 . S
C1178 O1189 1.248 . S
C1179 O1190 1.267 . S
C1179 O1191 1.278 . S
O1180 Pr1160 2.562 . S
O1180 C1162 1.254 . S
O1181 Pr1160 2.490 . S
O1181 C1162 1.225 . S
O1182 Pr1160 2.695 . S
O1182 Pr1161 2.436 . S
O1182 C1169 1.270 . S
O1183 Pr1160 2.512 . S
O1183 C1169 1.248 . S
O1184 Pr1161 2.438 . S
O1184 C1170 1.267 . S
O1185 Pr1160 2.437 . S
O1185 C1170 1.278 . S
O1186 Pr1161 2.562 1_556 S
O1186 C1171 1.254 . S
O1187 Pr1161 2.490 . S
O1187 C1171 1.225 1_554 S
O1188 Pr1160 2.436 . S
O1188 Pr1161 2.695 . S
O1188 C1178 1.270 . S
O1189 Pr1161 2.512 . S
O1189 C1178 1.248 . S
O1190 Pr1160 2.438 1_556 S
O1190 C1179 1.267 . S
O1191 Pr1161 2.437 1_556 S
O1191 C1179 1.278 . S
H1192 C1164 0.929 . S
H1193 C1165 0.929 . S
H1194 C1167 0.931 . S
H1195 C1168 0.930 . S
H1196 C1173 0.929 . S
H1197 C1174 0.929 . S
H1198 C1176 0.931 . S
H1199 C1177 0.930 . S
Pr1200 C1202 2.880 . S
Pr1200 O1220 2.562 . S
Pr1200 O1221 2.490 . S
Pr1200 O1222 2.695 . S
Pr1200 O1223 2.512 . S
Pr1200 O1225 2.437 . S
Pr1200 O1228 2.436 . S
Pr1200 O1230 2.438 . S
Pr1201 C1211 2.880 . S
Pr1201 O1222 2.436 . S
Pr1201 O1224 2.438 . S
Pr1201 O1226 2.562 . S
Pr1201 O1227 2.490 . S
Pr1201 O1228 2.695 . S
Pr1201 O1229 2.512 . S
Pr1201 O1231 2.437 . S
C1202 Pr1200 2.880 . S
C1202 C1203 1.491 . S
C1202 O1220 1.254 . S
C1202 O1221 1.225 . S
C1203 C1202 1.491 . S
C1203 C1204 1.392 . S
C1203 C1208 1.356 . S
C1204 C1203 1.392 . S
C1204 C1205 1.368 . S
C1204 H1232 0.929 . S
C1205 C1204 1.368 . S
C1205 C1206 1.386 . S
C1205 H1233 0.929 . S
C1206 C1205 1.386 . S
C1206 C1207 1.373 . S
C1207 C1206 1.373 . S
C1207 C1208 1.409 . S
C1207 H1234 0.931 . S
C1208 C1203 1.356 . S
C1208 C1207 1.409 . S
C1208 H1235 0.930 . S
C1209 O1222 1.270 . S
C1209 O1223 1.248 . S
C1210 O1224 1.267 . S
C1210 O1225 1.278 . S
C1211 Pr1201 2.880 . S
C1211 C1212 1.491 . S
C1211 O1226 1.254 . S
C1211 O1227 1.225 . S
C1212 C1211 1.491 . S
C1212 C1213 1.392 . S
C1212 C1217 1.356 . S
C1213 C1212 1.392 . S
C1213 C1214 1.368 . S
C1213 H1236 0.929 . S
C1214 C1213 1.368 . S
C1214 C1215 1.386 . S
C1214 H1237 0.929 . S
C1215 C1214 1.386 . S
C1215 C1216 1.373 . S
C1216 C1215 1.373 . S
C1216 C1217 1.409 . S
C1216 H1238 0.931 . S
C1217 C1212 1.356 . S
C1217 C1216 1.409 . S
C1217 H1239 0.930 . S
C1218 O1228 1.270 . S
C1218 O1229 1.248 . S
C1219 O1230 1.267 . S
C1219 O1231 1.278 . S
O1220 Pr1200 2.562 . S
O1220 C1202 1.254 . S
O1221 Pr1200 2.490 . S
O1221 C1202 1.225 . S
O1222 Pr1200 2.695 . S
O1222 Pr1201 2.436 . S
O1222 C1209 1.270 . S
O1223 Pr1200 2.512 . S
O1223 C1209 1.248 . S
O1224 Pr1201 2.438 . S
O1224 C1210 1.267 . S
O1225 Pr1200 2.437 . S
O1225 C1210 1.278 . S
O1226 Pr1201 2.562 . S
O1226 C1211 1.254 . S
O1227 Pr1201 2.490 . S
O1227 C1211 1.225 . S
O1228 Pr1200 2.436 . S
O1228 Pr1201 2.695 . S
O1228 C1218 1.270 . S
O1229 Pr1201 2.512 . S
O1229 C1218 1.248 . S
O1230 Pr1200 2.438 . S
O1230 C1219 1.267 . S
O1231 Pr1201 2.437 . S
O1231 C1219 1.278 . S
H1232 C1204 0.929 . S
H1233 C1205 0.929 . S
H1234 C1207 0.931 . S
H1235 C1208 0.930 . S
H1236 C1213 0.929 . S
H1237 C1214 0.929 . S
H1238 C1216 0.931 . S
H1239 C1217 0.930 . S
Pr1240 C1242 2.880 . S
Pr1240 O1260 2.562 . S
Pr1240 O1261 2.490 . S
Pr1240 O1262 2.695 . S
Pr1240 O1263 2.512 . S
Pr1240 O1265 2.437 . S
Pr1240 O1268 2.436 . S
Pr1240 O1270 2.438 . S
Pr1241 C1251 2.880 . S
Pr1241 O1262 2.436 . S
Pr1241 O1264 2.438 . S
Pr1241 O1266 2.562 . S
Pr1241 O1267 2.490 . S
Pr1241 O1268 2.695 . S
Pr1241 O1269 2.512 . S
Pr1241 O1271 2.437 . S
C1242 Pr1240 2.880 . S
C1242 C1243 1.491 . S
C1242 O1260 1.254 . S
C1242 O1261 1.225 . S
C1243 C1242 1.491 . S
C1243 C1244 1.392 . S
C1243 C1248 1.356 . S
C1244 C1243 1.392 . S
C1244 C1245 1.368 . S
C1244 H1272 0.929 . S
C1245 C1244 1.368 . S
C1245 C1246 1.386 . S
C1245 H1273 0.929 . S
C1246 C1245 1.386 . S
C1246 C1247 1.373 . S
C1247 C1246 1.373 . S
C1247 C1248 1.409 . S
C1247 H1274 0.931 . S
C1248 C1243 1.356 . S
C1248 C1247 1.409 . S
C1248 H1275 0.930 . S
C1249 O1262 1.270 . S
C1249 O1263 1.248 . S
C1250 O1264 1.267 . S
C1250 O1265 1.278 . S
C1251 Pr1241 2.880 . S
C1251 C1252 1.491 . S
C1251 O1266 1.254 . S
C1251 O1267 1.225 . S
C1252 C1251 1.491 . S
C1252 C1253 1.392 . S
C1252 C1257 1.356 . S
C1253 C1252 1.392 . S
C1253 C1254 1.368 . S
C1253 H1276 0.929 . S
C1254 C1253 1.368 . S
C1254 C1255 1.386 . S
C1254 H1277 0.929 . S
C1255 C1254 1.386 . S
C1255 C1256 1.373 . S
C1256 C1255 1.373 . S
C1256 C1257 1.409 . S
C1256 H1278 0.931 . S
C1257 C1252 1.356 . S
C1257 C1256 1.409 . S
C1257 H1279 0.930 . S
C1258 O1268 1.270 . S
C1258 O1269 1.248 . S
C1259 O1270 1.267 . S
C1259 O1271 1.278 . S
O1260 Pr1240 2.562 . S
O1260 C1242 1.254 . S
O1261 Pr1240 2.490 . S
O1261 C1242 1.225 . S
O1262 Pr1240 2.695 . S
O1262 Pr1241 2.436 . S
O1262 C1249 1.270 . S
O1263 Pr1240 2.512 . S
O1263 C1249 1.248 . S
O1264 Pr1241 2.438 . S
O1264 C1250 1.267 . S
O1265 Pr1240 2.437 . S
O1265 C1250 1.278 . S
O1266 Pr1241 2.562 . S
O1266 C1251 1.254 . S
O1267 Pr1241 2.490 . S
O1267 C1251 1.225 . S
O1268 Pr1240 2.436 . S
O1268 Pr1241 2.695 . S
O1268 C1258 1.270 . S
O1269 Pr1241 2.512 . S
O1269 C1258 1.248 . S
O1270 Pr1240 2.438 . S
O1270 C1259 1.267 . S
O1271 Pr1241 2.437 . S
O1271 C1259 1.278 . S
H1272 C1244 0.929 . S
H1273 C1245 0.929 . S
H1274 C1247 0.931 . S
H1275 C1248 0.930 . S
H1276 C1253 0.929 . S
H1277 C1254 0.929 . S
H1278 C1256 0.931 . S
H1279 C1257 0.930 . S
C1280 C1281 1.391 . S
C1280 C1282 1.394 . S
C1280 H1296 0.931 . S
C1281 C1280 1.391 . S
C1281 C1285 1.376 . S
C1282 C1280 1.394 . S
C1282 C1283 1.369 . S
C1282 C1286 1.531 . S
C1283 C1282 1.369 . S
C1283 C1284 1.410 . S
C1283 C1291 1.503 . S
C1284 C1283 1.410 . S
C1284 C1285 1.392 . S
C1284 C1287 1.511 . S
C1285 C1281 1.376 . S
C1285 C1284 1.392 . S
C1285 H1297 0.929 . S
C1286 C1282 1.531 . S
C1286 H1298 0.960 . S
C1286 H1299 0.962 . S
C1286 H1300 0.960 . S
C1287 C1284 1.511 . S
C1287 H1301 0.961 . S
C1287 H1302 0.961 . S
C1287 H1303 0.961 . S
C1288 C1289 1.370 . S
C1288 C1290 1.363 . S
C1288 H1304 0.931 . S
C1289 C1288 1.370 . S
C1289 C1293 1.408 . S
C1290 C1288 1.363 . S
C1290 C1291 1.370 . S
C1290 C1294 1.524 . S
C1291 C1283 1.503 . S
C1291 C1290 1.370 . S
C1291 C1292 1.403 . S
C1292 C1291 1.403 . S
C1292 C1293 1.404 . S
C1292 C1295 1.539 . S
C1293 C1289 1.408 . S
C1293 C1292 1.404 . S
C1293 H1305 0.930 . S
C1294 C1290 1.524 . S
C1294 H1306 0.956 . S
C1294 H1307 0.961 . S
C1294 H1308 0.961 . S
C1295 C1292 1.539 . S
C1295 H1309 0.958 . S
C1295 H1310 0.961 . S
C1295 H1311 0.960 . S
H1296 C1280 0.931 . S
H1297 C1285 0.929 . S
H1298 C1286 0.960 . S
H1299 C1286 0.962 . S
H1300 C1286 0.960 . S
H1301 C1287 0.961 . S
H1302 C1287 0.961 . S
H1303 C1287 0.961 . S
H1304 C1288 0.931 . S
H1305 C1293 0.930 . S
H1306 C1294 0.956 . S
H1307 C1294 0.961 . S
H1308 C1294 0.961 . S
H1309 C1295 0.958 . S
H1310 C1295 0.961 . S
H1311 C1295 0.960 . S
C1312 C1313 1.391 . S
C1312 C1314 1.394 . S
C1312 H1328 0.931 . S
C1313 C1312 1.391 . S
C1313 C1317 1.376 . S
C1314 C1312 1.394 . S
C1314 C1315 1.369 . S
C1314 C1318 1.531 . S
C1315 C1314 1.369 . S
C1315 C1316 1.410 . S
C1315 C1323 1.503 . S
C1316 C1315 1.410 . S
C1316 C1317 1.392 . S
C1316 C1319 1.511 . S
C1317 C1313 1.376 . S
C1317 C1316 1.392 . S
C1317 H1329 0.929 . S
C1318 C1314 1.531 . S
C1318 H1330 0.960 . S
C1318 H1331 0.962 . S
C1318 H1332 0.960 . S
C1319 C1316 1.511 . S
C1319 H1333 0.961 . S
C1319 H1334 0.961 . S
C1319 H1335 0.961 . S
C1320 C1321 1.370 1_565 S
C1320 C1322 1.363 1_565 S
C1320 H1336 0.931 . S
C1321 C1320 1.370 1_545 S
C1321 C1325 1.408 . S
C1322 C1320 1.363 1_545 S
C1322 C1323 1.370 . S
C1322 C1326 1.524 . S
C1323 C1315 1.503 . S
C1323 C1322 1.370 . S
C1323 C1324 1.403 . S
C1324 C1323 1.403 . S
C1324 C1325 1.404 . S
C1324 C1327 1.539 . S
C1325 C1321 1.408 . S
C1325 C1324 1.404 . S
C1325 H1337 0.930 . S
C1326 C1322 1.524 . S
C1326 H1338 0.956 . S
C1326 H1339 0.961 . S
C1326 H1340 0.914 1_545 S
C1327 C1324 1.539 . S
C1327 H1341 0.958 . S
C1327 H1342 0.961 . S
C1327 H1343 0.960 . S
H1328 C1312 0.931 . S
H1329 C1317 0.929 . S
H1330 C1318 0.960 . S
H1331 C1318 0.962 . S
H1332 C1318 0.960 . S
H1333 C1319 0.961 . S
H1334 C1319 0.961 . S
H1335 C1319 0.961 . S
H1336 C1320 0.931 . S
H1337 C1325 0.930 . S
H1338 C1326 0.956 . S
H1339 C1326 0.961 . S
H1340 C1326 0.914 1_565 S
H1341 C1327 0.958 . S
H1342 C1327 0.961 . S
H1343 C1327 0.960 . S
C1344 C1345 1.391 . S
C1344 C1346 1.394 . S
C1344 H1360 0.931 . S
C1345 C1344 1.391 . S
C1345 C1349 1.376 . S
C1346 C1344 1.394 . S
C1346 C1347 1.369 . S
C1346 C1350 1.531 . S
C1347 C1346 1.369 . S
C1347 C1348 1.410 . S
C1347 C1355 1.503 . S
C1348 C1347 1.410 . S
C1348 C1349 1.392 . S
C1348 C1351 1.511 . S
C1349 C1345 1.376 . S
C1349 C1348 1.392 . S
C1349 H1361 0.929 . S
C1350 C1346 1.531 . S
C1350 H1362 0.960 . S
C1350 H1363 0.962 . S
C1350 H1364 0.960 . S
C1351 C1348 1.511 . S
C1351 H1365 0.961 . S
C1351 H1366 0.961 . S
C1351 H1367 0.961 . S
C1352 C1353 1.370 . S
C1352 C1354 1.363 . S
C1352 H1368 0.931 . S
C1353 C1352 1.370 . S
C1353 C1357 1.408 . S
C1354 C1352 1.363 . S
C1354 C1355 1.370 . S
C1354 C1358 1.524 . S
C1355 C1347 1.503 . S
C1355 C1354 1.370 . S
C1355 C1356 1.403 . S
C1356 C1355 1.403 . S
C1356 C1357 1.404 . S
C1356 C1359 1.539 . S
C1357 C1353 1.408 . S
C1357 C1356 1.404 . S
C1357 H1369 0.930 . S
C1358 C1354 1.524 . S
C1358 H1370 0.956 . S
C1358 H1371 0.961 . S
C1358 H1372 0.961 . S
C1359 C1356 1.539 . S
C1359 H1373 0.958 . S
C1359 H1374 0.961 . S
C1359 H1375 0.960 . S
H1360 C1344 0.931 . S
H1361 C1349 0.929 . S
H1362 C1350 0.960 . S
H1363 C1350 0.962 . S
H1364 C1350 0.960 . S
H1365 C1351 0.961 . S
H1366 C1351 0.961 . S
H1367 C1351 0.961 . S
H1368 C1352 0.931 . S
H1369 C1357 0.930 . S
H1370 C1358 0.956 . S
H1371 C1358 0.961 . S
H1372 C1358 0.961 . S
H1373 C1359 0.958 . S
H1374 C1359 0.961 . S
H1375 C1359 0.960 . S
C1376 C1377 1.391 . S
C1376 C1378 1.394 . S
C1376 H1392 0.931 . S
C1377 C1376 1.391 . S
C1377 C1381 1.376 . S
C1378 C1376 1.394 . S
C1378 C1379 1.369 . S
C1378 C1382 1.531 . S
C1379 C1378 1.369 . S
C1379 C1380 1.410 . S
C1379 C1387 1.503 . S
C1380 C1379 1.410 . S
C1380 C1381 1.392 . S
C1380 C1383 1.511 . S
C1381 C1377 1.376 . S
C1381 C1380 1.392 . S
C1381 H1393 0.929 . S
C1382 C1378 1.531 . S
C1382 H1394 0.960 . S
C1382 H1395 0.962 . S
C1382 H1396 0.960 . S
C1383 C1380 1.511 . S
C1383 H1397 0.961 . S
C1383 H1398 0.961 . S
C1383 H1399 0.961 . S
C1384 C1385 1.370 1_545 S
C1384 C1386 1.357 1_545 S
C1384 H1400 0.938 . S
C1385 C1384 1.370 1_565 S
C1385 C1389 1.408 . S
C1386 C1384 1.357 1_565 S
C1386 C1387 1.370 . S
C1386 C1390 1.524 . S
C1387 C1379 1.503 . S
C1387 C1386 1.370 . S
C1387 C1388 1.403 . S
C1388 C1387 1.403 . S
C1388 C1389 1.404 . S
C1388 C1391 1.539 . S
C1389 C1385 1.408 . S
C1389 C1388 1.404 . S
C1389 H1401 0.930 . S
C1390 C1386 1.524 . S
C1390 H1402 0.956 . S
C1390 H1403 0.961 . S
C1390 H1404 0.961 1_565 S
C1391 C1388 1.539 . S
C1391 H1405 0.958 . S
C1391 H1406 0.961 . S
C1391 H1407 0.960 . S
H1392 C1376 0.931 . S
H1393 C1381 0.929 . S
H1394 C1382 0.960 . S
H1395 C1382 0.962 . S
H1396 C1382 0.960 . S
H1397 C1383 0.961 . S
H1398 C1383 0.961 . S
H1399 C1383 0.961 . S
H1400 C1384 0.938 . S
H1401 C1389 0.930 . S
H1402 C1390 0.956 . S
H1403 C1390 0.961 . S
H1404 C1390 0.961 1_545 S
H1405 C1391 0.958 . S
H1406 C1391 0.961 . S
H1407 C1391 0.960 . S
C1408 C1409 1.391 . S
C1408 C1410 1.394 . S
C1408 H1424 0.931 . S
C1409 C1408 1.391 . S
C1409 C1413 1.376 . S
C1410 C1408 1.394 . S
C1410 C1411 1.369 . S
C1410 C1414 1.531 . S
C1411 C1410 1.369 . S
C1411 C1412 1.410 . S
C1411 C1419 1.503 . S
C1412 C1411 1.410 . S
C1412 C1413 1.392 . S
C1412 C1415 1.511 . S
C1413 C1409 1.376 . S
C1413 C1412 1.392 . S
C1413 H1425 0.929 . S
C1414 C1410 1.531 . S
C1414 H1426 0.960 . S
C1414 H1427 0.962 . S
C1414 H1428 0.960 . S
C1415 C1412 1.511 . S
C1415 H1429 0.961 . S
C1415 H1430 0.961 . S
C1415 H1431 0.961 . S
C1416 C1417 1.370 . S
C1416 C1418 1.363 . S
C1416 H1432 0.931 . S
C1417 C1416 1.370 . S
C1417 C1421 1.408 . S
C1418 C1416 1.363 . S
C1418 C1419 1.370 . S
C1418 C1422 1.524 . S
C1419 C1411 1.503 . S
C1419 C1418 1.370 . S
C1419 C1420 1.403 . S
C1420 C1419 1.403 . S
C1420 C1421 1.404 . S
C1420 C1423 1.539 . S
C1421 C1417 1.408 . S
C1421 C1420 1.404 . S
C1421 H1433 0.930 . S
C1422 C1418 1.524 . S
C1422 H1434 0.956 . S
C1422 H1435 0.961 . S
C1422 H1436 0.961 . S
C1423 C1420 1.539 . S
C1423 H1437 0.958 . S
C1423 H1438 0.961 . S
C1423 H1439 0.960 . S
H1424 C1408 0.931 . S
H1425 C1413 0.929 . S
H1426 C1414 0.960 . S
H1427 C1414 0.962 . S
H1428 C1414 0.960 . S
H1429 C1415 0.961 . S
H1430 C1415 0.961 . S
H1431 C1415 0.961 . S
H1432 C1416 0.931 . S
H1433 C1421 0.930 . S
H1434 C1422 0.956 . S
H1435 C1422 0.961 . S
H1436 C1422 0.961 . S
H1437 C1423 0.958 . S
H1438 C1423 0.961 . S
H1439 C1423 0.960 . S
C1440 C1441 1.393 . S
C1440 C1442 1.394 1_565 S
C1440 H1456 0.931 . S
C1441 C1440 1.393 . S
C1441 C1445 1.368 1_565 S
C1442 C1440 1.394 1_545 S
C1442 C1443 1.369 . S
C1442 C1446 1.531 . S
C1443 C1442 1.369 . S
C1443 C1444 1.410 . S
C1443 C1451 1.503 . S
C1444 C1443 1.410 . S
C1444 C1445 1.392 . S
C1444 C1447 1.511 . S
C1445 C1441 1.368 1_545 S
C1445 C1444 1.392 . S
C1445 H1457 0.929 . S
C1446 C1442 1.531 . S
C1446 H1458 0.960 . S
C1446 H1459 0.962 . S
C1446 H1460 0.960 1_545 S
C1447 C1444 1.511 . S
C1447 H1461 0.961 . S
C1447 H1462 0.961 . S
C1447 H1463 0.961 . S
C1448 C1449 1.370 . S
C1448 C1450 1.363 . S
C1448 H1464 0.931 . S
C1449 C1448 1.370 . S
C1449 C1453 1.408 . S
C1450 C1448 1.363 . S
C1450 C1451 1.370 . S
C1450 C1454 1.524 . S
C1451 C1443 1.503 . S
C1451 C1450 1.370 . S
C1451 C1452 1.403 . S
C1452 C1451 1.403 . S
C1452 C1453 1.404 . S
C1452 C1455 1.539 . S
C1453 C1449 1.408 . S
C1453 C1452 1.404 . S
C1453 H1465 0.930 . S
C1454 C1450 1.524 . S
C1454 H1466 0.956 . S
C1454 H1467 0.961 . S
C1454 H1468 0.961 . S
C1455 C1452 1.539 . S
C1455 H1469 0.958 . S
C1455 H1470 0.961 . S
C1455 H1471 0.960 . S
H1456 C1440 0.931 . S
H1457 C1445 0.929 . S
H1458 C1446 0.960 . S
H1459 C1446 0.962 . S
H1460 C1446 0.960 1_565 S
H1461 C1447 0.961 . S
H1462 C1447 0.961 . S
H1463 C1447 0.961 . S
H1464 C1448 0.931 . S
H1465 C1453 0.930 . S
H1466 C1454 0.956 . S
H1467 C1454 0.961 . S
H1468 C1454 0.961 . S
H1469 C1455 0.958 . S
H1470 C1455 0.961 . S
H1471 C1455 0.960 . S
C1472 C1473 1.391 . S
C1472 C1474 1.394 . S
C1472 H1488 0.931 . S
C1473 C1472 1.391 . S
C1473 C1477 1.376 . S
C1474 C1472 1.394 . S
C1474 C1475 1.369 . S
C1474 C1478 1.531 . S
C1475 C1474 1.369 . S
C1475 C1476 1.410 . S
C1475 C1483 1.503 . S
C1476 C1475 1.410 . S
C1476 C1477 1.392 . S
C1476 C1479 1.511 . S
C1477 C1473 1.376 . S
C1477 C1476 1.392 . S
C1477 H1489 0.929 . S
C1478 C1474 1.531 . S
C1478 H1490 0.960 . S
C1478 H1491 0.962 . S
C1478 H1492 0.960 . S
C1479 C1476 1.511 . S
C1479 H1493 0.961 . S
C1479 H1494 0.961 . S
C1479 H1495 0.961 . S
C1480 C1481 1.370 . S
C1480 C1482 1.363 . S
C1480 H1496 0.931 . S
C1481 C1480 1.370 . S
C1481 C1485 1.408 . S
C1482 C1480 1.363 . S
C1482 C1483 1.370 . S
C1482 C1486 1.524 . S
C1483 C1475 1.503 . S
C1483 C1482 1.370 . S
C1483 C1484 1.403 . S
C1484 C1483 1.403 . S
C1484 C1485 1.404 . S
C1484 C1487 1.539 . S
C1485 C1481 1.408 . S
C1485 C1484 1.404 . S
C1485 H1497 0.930 . S
C1486 C1482 1.524 . S
C1486 H1498 0.956 . S
C1486 H1499 0.961 . S
C1486 H1500 0.961 . S
C1487 C1484 1.539 . S
C1487 H1501 0.958 . S
C1487 H1502 0.961 . S
C1487 H1503 0.960 . S
H1488 C1472 0.931 . S
H1489 C1477 0.929 . S
H1490 C1478 0.960 . S
H1491 C1478 0.962 . S
H1492 C1478 0.960 . S
H1493 C1479 0.961 . S
H1494 C1479 0.961 . S
H1495 C1479 0.961 . S
H1496 C1480 0.931 . S
H1497 C1485 0.930 . S
H1498 C1486 0.956 . S
H1499 C1486 0.961 . S
H1500 C1486 0.961 . S
H1501 C1487 0.958 . S
H1502 C1487 0.961 . S
H1503 C1487 0.960 . S
C1504 C1505 1.391 . S
C1504 C1506 1.394 . S
C1504 H1520 0.931 . S
C1505 C1504 1.391 . S
C1505 C1509 1.376 . S
C1506 C1504 1.394 . S
C1506 C1507 1.369 . S
C1506 C1510 1.531 . S
C1507 C1506 1.369 . S
C1507 C1508 1.410 . S
C1507 C1515 1.503 . S
C1508 C1507 1.410 . S
C1508 C1509 1.392 . S
C1508 C1511 1.511 . S
C1509 C1505 1.376 . S
C1509 C1508 1.392 . S
C1509 H1521 0.929 . S
C1510 C1506 1.531 . S
C1510 H1522 0.960 . S
C1510 H1523 0.962 . S
C1510 H1524 0.960 . S
C1511 C1508 1.511 . S
C1511 H1525 0.961 . S
C1511 H1526 0.961 . S
C1511 H1527 0.961 . S
C1512 C1513 1.373 . S
C1512 C1514 1.363 . S
C1512 H1528 0.931 1_565 S
C1513 C1512 1.373 . S
C1513 C1517 1.446 . S
C1514 C1512 1.363 . S
C1514 C1515 1.370 . S
C1514 C1518 1.524 . S
C1515 C1507 1.503 . S
C1515 C1514 1.370 . S
C1515 C1516 1.403 . S
C1516 C1515 1.403 . S
C1516 C1517 1.404 . S
C1516 C1519 1.539 . S
C1517 C1513 1.446 . S
C1517 C1516 1.404 . S
C1517 H1529 0.930 . S
C1518 C1514 1.524 . S
C1518 H1530 0.956 . S
C1518 H1531 0.961 . S
C1518 H1532 0.961 . S
C1519 C1516 1.539 . S
C1519 H1533 0.958 . S
C1519 H1534 0.961 . S
C1519 H1535 0.960 . S
H1520 C1504 0.931 . S
H1521 C1509 0.929 . S
H1522 C1510 0.960 . S
H1523 C1510 0.962 . S
H1524 C1510 0.960 . S
H1525 C1511 0.961 . S
H1526 C1511 0.961 . S
H1527 C1511 0.961 . S
H1528 C1512 0.931 1_545 S
H1529 C1517 0.930 . S
H1530 C1518 0.956 . S
H1531 C1518 0.961 . S
H1532 C1518 0.961 . S
H1533 C1519 0.958 . S
H1534 C1519 0.961 . S
H1535 C1519 0.960 . S
C1536 C1537 1.391 . S
C1536 C1538 1.394 . S
C1536 H1552 0.931 . S
C1537 C1536 1.391 . S
C1537 C1541 1.376 . S
C1538 C1536 1.394 . S
C1538 C1539 1.369 . S
C1538 C1542 1.531 . S
C1539 C1538 1.369 . S
C1539 C1540 1.410 . S
C1539 C1547 1.503 . S
C1540 C1539 1.410 . S
C1540 C1541 1.392 . S
C1540 C1543 1.511 . S
C1541 C1537 1.376 . S
C1541 C1540 1.392 . S
C1541 H1553 0.929 . S
C1542 C1538 1.531 . S
C1542 H1554 0.960 . S
C1542 H1555 0.962 . S
C1542 H1556 0.960 . S
C1543 C1540 1.511 . S
C1543 H1557 0.961 . S
C1543 H1558 0.961 . S
C1543 H1559 0.961 . S
C1544 C1545 1.370 . S
C1544 C1546 1.363 . S
C1544 H1560 0.931 . S
C1545 C1544 1.370 . S
C1545 C1549 1.408 . S
C1546 C1544 1.363 . S
C1546 C1547 1.370 . S
C1546 C1550 1.524 . S
C1547 C1539 1.503 . S
C1547 C1546 1.370 . S
C1547 C1548 1.403 . S
C1548 C1547 1.403 . S
C1548 C1549 1.404 . S
C1548 C1551 1.539 . S
C1549 C1545 1.408 . S
C1549 C1548 1.404 . S
C1549 H1561 0.930 . S
C1550 C1546 1.524 . S
C1550 H1562 0.956 . S
C1550 H1563 0.961 . S
C1550 H1564 0.961 . S
C1551 C1548 1.539 . S
C1551 H1565 0.958 . S
C1551 H1566 0.961 . S
C1551 H1567 0.960 . S
H1552 C1536 0.931 . S
H1553 C1541 0.929 . S
H1554 C1542 0.960 . S
H1555 C1542 0.962 . S
H1556 C1542 0.960 . S
H1557 C1543 0.961 . S
H1558 C1543 0.961 . S
H1559 C1543 0.961 . S
H1560 C1544 0.931 . S
H1561 C1549 0.930 . S
H1562 C1550 0.956 . S
H1563 C1550 0.961 . S
H1564 C1550 0.961 . S
H1565 C1551 0.958 . S
H1566 C1551 0.961 . S
H1567 C1551 0.960 . S
C1568 C1569 1.388 1_565 S
C1568 C1570 1.394 . S
C1568 H1584 0.931 1_565 S
C1569 C1568 1.388 1_545 S
C1569 C1573 1.356 1_545 S
C1570 C1568 1.394 . S
C1570 C1571 1.369 . S
C1570 C1574 1.531 . S
C1571 C1570 1.369 . S
C1571 C1572 1.410 . S
C1571 C1579 1.503 . S
C1572 C1571 1.410 . S
C1572 C1573 1.392 . S
C1572 C1575 1.511 . S
C1573 C1569 1.356 1_565 S
C1573 C1572 1.392 . S
C1573 H1585 0.929 . S
C1574 C1570 1.531 . S
C1574 H1586 0.960 . S
C1574 H1587 0.962 . S
C1574 H1588 0.960 . S
C1575 C1572 1.511 . S
C1575 H1589 0.961 . S
C1575 H1590 0.961 . S
C1575 H1591 0.961 . S
C1576 C1577 1.370 . S
C1576 C1578 1.363 . S
C1576 H1592 0.931 . S
C1577 C1576 1.370 . S
C1577 C1581 1.408 . S
C1578 C1576 1.363 . S
C1578 C1579 1.370 . S
C1578 C1582 1.524 . S
C1579 C1571 1.503 . S
C1579 C1578 1.370 . S
C1579 C1580 1.403 . S
C1580 C1579 1.403 . S
C1580 C1581 1.404 . S
C1580 C1583 1.539 . S
C1581 C1577 1.408 . S
C1581 C1580 1.404 . S
C1581 H1593 0.930 . S
C1582 C1578 1.524 . S
C1582 H1594 0.956 . S
C1582 H1595 0.961 . S
C1582 H1596 0.961 . S
C1583 C1580 1.539 . S
C1583 H1597 0.958 . S
C1583 H1598 0.961 . S
C1583 H1599 0.960 . S
H1584 C1568 0.931 1_545 S
H1585 C1573 0.929 . S
H1586 C1574 0.960 . S
H1587 C1574 0.962 . S
H1588 C1574 0.960 . S
H1589 C1575 0.961 . S
H1590 C1575 0.961 . S
H1591 C1575 0.961 . S
H1592 C1576 0.931 . S
H1593 C1581 0.930 . S
H1594 C1582 0.956 . S
H1595 C1582 0.961 . S
H1596 C1582 0.961 . S
H1597 C1583 0.958 . S
H1598 C1583 0.961 . S
H1599 C1583 0.960 . S
C1600 C1601 1.391 . S
C1600 C1602 1.394 . S
C1600 H1616 0.931 . S
C1601 C1600 1.391 . S
C1601 C1605 1.376 . S
C1602 C1600 1.394 . S
C1602 C1603 1.369 . S
C1602 C1606 1.531 . S
C1603 C1602 1.369 . S
C1603 C1604 1.410 . S
C1603 C1611 1.503 . S
C1604 C1603 1.410 . S
C1604 C1605 1.392 . S
C1604 C1607 1.511 . S
C1605 C1601 1.376 . S
C1605 C1604 1.392 . S
C1605 H1617 0.929 . S
C1606 C1602 1.531 . S
C1606 H1618 0.960 . S
C1606 H1619 0.962 . S
C1606 H1620 0.960 . S
C1607 C1604 1.511 . S
C1607 H1621 0.961 . S
C1607 H1622 0.961 . S
C1607 H1623 0.961 . S
C1608 C1609 1.370 . S
C1608 C1610 1.363 . S
C1608 H1624 0.931 . S
C1609 C1608 1.370 . S
C1609 C1613 1.408 . S
C1610 C1608 1.363 . S
C1610 C1611 1.370 . S
C1610 C1614 1.524 . S
C1611 C1603 1.503 . S
C1611 C1610 1.370 . S
C1611 C1612 1.403 . S
C1612 C1611 1.403 . S
C1612 C1613 1.404 . S
C1612 C1615 1.539 . S
C1613 C1609 1.408 . S
C1613 C1612 1.404 . S
C1613 H1625 0.930 . S
C1614 C1610 1.524 . S
C1614 H1626 0.956 . S
C1614 H1627 0.961 . S
C1614 H1628 0.961 . S
C1615 C1612 1.539 . S
C1615 H1629 0.958 . S
C1615 H1630 0.961 . S
C1615 H1631 0.960 . S
H1616 C1600 0.931 . S
H1617 C1605 0.929 . S
H1618 C1606 0.960 . S
H1619 C1606 0.962 . S
H1620 C1606 0.960 . S
H1621 C1607 0.961 . S
H1622 C1607 0.961 . S
H1623 C1607 0.961 . S
H1624 C1608 0.931 . S
H1625 C1613 0.930 . S
H1626 C1614 0.956 . S
H1627 C1614 0.961 . S
H1628 C1614 0.961 . S
H1629 C1615 0.958 . S
H1630 C1615 0.961 . S
H1631 C1615 0.960 . S
C1632 C1633 1.391 . S
C1632 C1634 1.394 . S
C1632 H1648 0.931 . S
C1633 C1632 1.391 . S
C1633 C1637 1.378 . S
C1634 C1632 1.394 . S
C1634 C1635 1.369 . S
C1634 C1638 1.531 . S
C1635 C1634 1.369 . S
C1635 C1636 1.410 . S
C1635 C1643 1.503 . S
C1636 C1635 1.410 . S
C1636 C1637 1.422 . S
C1636 C1639 1.511 . S
C1637 C1633 1.378 . S
C1637 C1636 1.422 . S
C1637 H1649 0.897 1_545 S
C1638 C1634 1.531 . S
C1638 H1650 0.960 . S
C1638 H1651 0.962 . S
C1638 H1652 0.960 . S
C1639 C1636 1.511 . S
C1639 H1653 0.989 . S
C1639 H1654 0.961 . S
C1639 H1655 0.961 . S
C1640 C1641 1.370 . S
C1640 C1642 1.363 . S
C1640 H1656 0.931 . S
C1641 C1640 1.370 . S
C1641 C1645 1.408 . S
C1642 C1640 1.363 . S
C1642 C1643 1.370 . S
C1642 C1646 1.524 . S
C1643 C1635 1.503 . S
C1643 C1642 1.370 . S
C1643 C1644 1.403 . S
C1644 C1643 1.403 . S
C1644 C1645 1.404 . S
C1644 C1647 1.539 . S
C1645 C1641 1.408 . S
C1645 C1644 1.404 . S
C1645 H1657 0.930 . S
C1646 C1642 1.524 . S
C1646 H1658 0.956 . S
C1646 H1659 0.961 . S
C1646 H1660 0.961 . S
C1647 C1644 1.539 . S
C1647 H1661 0.958 . S
C1647 H1662 0.961 . S
C1647 H1663 0.960 . S
H1648 C1632 0.931 . S
H1649 C1637 0.897 1_565 S
H1650 C1638 0.960 . S
H1651 C1638 0.962 . S
H1652 C1638 0.960 . S
H1653 C1639 0.989 . S
H1654 C1639 0.961 . S
H1655 C1639 0.961 . S
H1656 C1640 0.931 . S
H1657 C1645 0.930 . S
H1658 C1646 0.956 . S
H1659 C1646 0.961 . S
H1660 C1646 0.961 . S
H1661 C1647 0.958 . S
H1662 C1647 0.961 . S
H1663 C1647 0.960 . S
C1664 C1665 1.391 . S
C1664 C1666 1.394 . S
C1664 H1680 0.931 . S
C1665 C1664 1.391 . S
C1665 C1669 1.376 . S
C1666 C1664 1.394 . S
C1666 C1667 1.369 . S
C1666 C1670 1.531 . S
C1667 C1666 1.369 . S
C1667 C1668 1.410 . S
C1667 C1675 1.503 . S
C1668 C1667 1.410 . S
C1668 C1669 1.392 . S
C1668 C1671 1.511 . S
C1669 C1665 1.376 . S
C1669 C1668 1.392 . S
C1669 H1681 0.929 . S
C1670 C1666 1.531 . S
C1670 H1682 0.960 . S
C1670 H1683 0.962 . S
C1670 H1684 0.960 . S
C1671 C1668 1.511 . S
C1671 H1685 0.961 . S
C1671 H1686 0.961 . S
C1671 H1687 0.961 . S
C1672 C1673 1.370 . S
C1672 C1674 1.363 . S
C1672 H1688 0.931 . S
C1673 C1672 1.370 . S
C1673 C1677 1.408 . S
C1674 C1672 1.363 . S
C1674 C1675 1.370 . S
C1674 C1678 1.524 . S
C1675 C1667 1.503 . S
C1675 C1674 1.370 . S
C1675 C1676 1.403 . S
C1676 C1675 1.403 . S
C1676 C1677 1.404 . S
C1676 C1679 1.539 . S
C1677 C1673 1.408 . S
C1677 C1676 1.404 . S
C1677 H1689 0.930 . S
C1678 C1674 1.524 . S
C1678 H1690 0.956 . S
C1678 H1691 0.961 . S
C1678 H1692 0.961 . S
C1679 C1676 1.539 . S
C1679 H1693 0.958 . S
C1679 H1694 0.961 . S
C1679 H1695 0.960 . S
H1680 C1664 0.931 . S
H1681 C1669 0.929 . S
H1682 C1670 0.960 . S
H1683 C1670 0.962 . S
H1684 C1670 0.960 . S
H1685 C1671 0.961 . S
H1686 C1671 0.961 . S
H1687 C1671 0.961 . S
H1688 C1672 0.931 . S
H1689 C1677 0.930 . S
H1690 C1678 0.956 . S
H1691 C1678 0.961 . S
H1692 C1678 0.961 . S
H1693 C1679 0.958 . S
H1694 C1679 0.961 . S
H1695 C1679 0.960 . S
C1696 C1697 1.391 . S
C1696 C1698 1.357 1_545 S
C1696 H1712 0.969 . S
C1697 C1696 1.391 . S
C1697 C1701 1.356 1_545 S
C1698 C1696 1.357 1_565 S
C1698 C1699 1.369 . S
C1698 C1702 1.531 . S
C1699 C1698 1.369 . S
C1699 C1700 1.410 . S
C1699 C1707 1.503 . S
C1700 C1699 1.410 . S
C1700 C1701 1.392 . S
C1700 C1703 1.511 . S
C1701 C1697 1.356 1_565 S
C1701 C1700 1.392 . S
C1701 H1713 0.929 . S
C1702 C1698 1.531 . S
C1702 H1714 0.960 . S
C1702 H1715 0.962 . S
C1702 H1716 0.913 1_565 S
C1703 C1700 1.511 . S
C1703 H1717 0.961 . S
C1703 H1718 0.961 . S
C1703 H1719 0.961 . S
C1704 C1705 1.370 . S
C1704 C1706 1.363 . S
C1704 H1720 0.931 . S
C1705 C1704 1.370 . S
C1705 C1709 1.408 . S
C1706 C1704 1.363 . S
C1706 C1707 1.370 . S
C1706 C1710 1.524 . S
C1707 C1699 1.503 . S
C1707 C1706 1.370 . S
C1707 C1708 1.403 . S
C1708 C1707 1.403 . S
C1708 C1709 1.404 . S
C1708 C1711 1.539 . S
C1709 C1705 1.408 . S
C1709 C1708 1.404 . S
C1709 H1721 0.930 . S
C1710 C1706 1.524 . S
C1710 H1722 0.956 . S
C1710 H1723 0.961 . S
C1710 H1724 0.961 . S
C1711 C1708 1.539 . S
C1711 H1725 0.958 . S
C1711 H1726 0.961 . S
C1711 H1727 0.960 . S
H1712 C1696 0.969 . S
H1713 C1701 0.929 . S
H1714 C1702 0.960 . S
H1715 C1702 0.962 . S
H1716 C1702 0.913 1_545 S
H1717 C1703 0.961 . S
H1718 C1703 0.961 . S
H1719 C1703 0.961 . S
H1720 C1704 0.931 . S
H1721 C1709 0.930 . S
H1722 C1710 0.956 . S
H1723 C1710 0.961 . S
H1724 C1710 0.961 . S
H1725 C1711 0.958 . S
H1726 C1711 0.961 . S
H1727 C1711 0.960 . S
C1728 C1729 1.391 . S
C1728 C1730 1.394 . S
C1728 H1744 0.931 . S
C1729 C1728 1.391 . S
C1729 C1733 1.376 . S
C1730 C1728 1.394 . S
C1730 C1731 1.369 . S
C1730 C1734 1.531 . S
C1731 C1730 1.369 . S
C1731 C1732 1.410 . S
C1731 C1739 1.503 . S
C1732 C1731 1.410 . S
C1732 C1733 1.392 . S
C1732 C1735 1.511 . S
C1733 C1729 1.376 . S
C1733 C1732 1.392 . S
C1733 H1745 0.929 . S
C1734 C1730 1.531 . S
C1734 H1746 0.960 . S
C1734 H1747 0.962 . S
C1734 H1748 0.960 . S
C1735 C1732 1.511 . S
C1735 H1749 0.961 . S
C1735 H1750 0.961 . S
C1735 H1751 0.961 . S
C1736 C1737 1.370 . S
C1736 C1738 1.363 . S
C1736 H1752 0.931 . S
C1737 C1736 1.370 . S
C1737 C1741 1.408 . S
C1738 C1736 1.363 . S
C1738 C1739 1.370 . S
C1738 C1742 1.524 . S
C1739 C1731 1.503 . S
C1739 C1738 1.370 . S
C1739 C1740 1.403 . S
C1740 C1739 1.403 . S
C1740 C1741 1.404 . S
C1740 C1743 1.539 . S
C1741 C1737 1.408 . S
C1741 C1740 1.404 . S
C1741 H1753 0.930 . S
C1742 C1738 1.524 . S
C1742 H1754 0.956 . S
C1742 H1755 0.961 . S
C1742 H1756 0.961 . S
C1743 C1740 1.539 . S
C1743 H1757 0.958 . S
C1743 H1758 0.961 . S
C1743 H1759 0.960 . S
H1744 C1728 0.931 . S
H1745 C1733 0.929 . S
H1746 C1734 0.960 . S
H1747 C1734 0.962 . S
H1748 C1734 0.960 . S
H1749 C1735 0.961 . S
H1750 C1735 0.961 . S
H1751 C1735 0.961 . S
H1752 C1736 0.931 . S
H1753 C1741 0.930 . S
H1754 C1742 0.956 . S
H1755 C1742 0.961 . S
H1756 C1742 0.961 . S
H1757 C1743 0.958 . S
H1758 C1743 0.961 . S
H1759 C1743 0.960 . S
C1760 C1761 1.391 . S
C1760 C1762 1.394 . S
C1760 H1776 0.931 . S
C1761 C1760 1.391 . S
C1761 C1765 1.376 . S
C1762 C1760 1.394 . S
C1762 C1763 1.369 . S
C1762 C1766 1.531 . S
C1763 C1762 1.369 . S
C1763 C1764 1.410 . S
C1763 C1771 1.503 . S
C1764 C1763 1.410 . S
C1764 C1765 1.392 . S
C1764 C1767 1.511 . S
C1765 C1761 1.376 . S
C1765 C1764 1.392 . S
C1765 H1777 0.929 . S
C1766 C1762 1.531 . S
C1766 H1778 0.960 . S
C1766 H1779 0.962 . S
C1766 H1780 0.960 . S
C1767 C1764 1.511 . S
C1767 H1781 0.961 . S
C1767 H1782 0.961 . S
C1767 H1783 0.961 . S
C1768 C1769 1.370 1_565 S
C1768 C1770 1.363 1_565 S
C1768 H1784 0.931 . S
C1769 C1768 1.370 1_545 S
C1769 C1773 1.408 . S
C1770 C1768 1.363 1_545 S
C1770 C1771 1.370 . S
C1770 C1774 1.524 . S
C1771 C1763 1.503 . S
C1771 C1770 1.370 . S
C1771 C1772 1.403 . S
C1772 C1771 1.403 . S
C1772 C1773 1.404 . S
C1772 C1775 1.539 . S
C1773 C1769 1.408 . S
C1773 C1772 1.404 . S
C1773 H1785 0.930 . S
C1774 C1770 1.524 . S
C1774 H1786 0.956 . S
C1774 H1787 0.961 . S
C1774 H1788 0.961 1_545 S
C1775 C1772 1.539 . S
C1775 H1789 0.958 . S
C1775 H1790 0.961 . S
C1775 H1791 0.960 . S
H1776 C1760 0.931 . S
H1777 C1765 0.929 . S
H1778 C1766 0.960 . S
H1779 C1766 0.962 . S
H1780 C1766 0.960 . S
H1781 C1767 0.961 . S
H1782 C1767 0.961 . S
H1783 C1767 0.961 . S
H1784 C1768 0.931 . S
H1785 C1773 0.930 . S
H1786 C1774 0.956 . S
H1787 C1774 0.961 . S
H1788 C1774 0.961 1_565 S
H1789 C1775 0.958 . S
H1790 C1775 0.961 . S
H1791 C1775 0.960 . S
C1792 C1793 1.391 . S
C1792 C1794 1.394 . S
C1792 H1808 0.931 . S
C1793 C1792 1.391 . S
C1793 C1797 1.376 . S
C1794 C1792 1.394 . S
C1794 C1795 1.369 . S
C1794 C1798 1.531 . S
C1795 C1794 1.369 . S
C1795 C1796 1.410 . S
C1795 C1803 1.503 . S
C1796 C1795 1.410 . S
C1796 C1797 1.392 . S
C1796 C1799 1.511 . S
C1797 C1793 1.376 . S
C1797 C1796 1.392 . S
C1797 H1809 0.929 . S
C1798 C1794 1.531 . S
C1798 H1810 0.960 . S
C1798 H1811 0.962 . S
C1798 H1812 0.960 . S
C1799 C1796 1.511 . S
C1799 H1813 0.961 . S
C1799 H1814 0.961 . S
C1799 H1815 0.961 . S
C1800 C1801 1.370 . S
C1800 C1802 1.363 . S
C1800 H1816 0.931 . S
C1801 C1800 1.370 . S
C1801 C1805 1.408 . S
C1802 C1800 1.363 . S
C1802 C1803 1.370 . S
C1802 C1806 1.524 . S
C1803 C1795 1.503 . S
C1803 C1802 1.370 . S
C1803 C1804 1.403 . S
C1804 C1803 1.403 . S
C1804 C1805 1.404 . S
C1804 C1807 1.539 . S
C1805 C1801 1.408 . S
C1805 C1804 1.404 . S
C1805 H1817 0.930 . S
C1806 C1802 1.524 . S
C1806 H1818 0.956 . S
C1806 H1819 0.961 . S
C1806 H1820 0.961 . S
C1807 C1804 1.539 . S
C1807 H1821 0.958 . S
C1807 H1822 0.961 . S
C1807 H1823 0.960 . S
H1808 C1792 0.931 . S
H1809 C1797 0.929 . S
H1810 C1798 0.960 . S
H1811 C1798 0.962 . S
H1812 C1798 0.960 . S
H1813 C1799 0.961 . S
H1814 C1799 0.961 . S
H1815 C1799 0.961 . S
H1816 C1800 0.931 . S
H1817 C1805 0.930 . S
H1818 C1806 0.956 . S
H1819 C1806 0.961 . S
H1820 C1806 0.961 . S
H1821 C1807 0.958 . S
H1822 C1807 0.961 . S
H1823 C1807 0.960 . S
C1824 C1825 1.391 . S
C1824 C1826 1.394 . S
C1824 H1840 0.931 . S
C1825 C1824 1.391 . S
C1825 C1829 1.376 . S
C1826 C1824 1.394 . S
C1826 C1827 1.369 . S
C1826 C1830 1.531 . S
C1827 C1826 1.369 . S
C1827 C1828 1.410 . S
C1827 C1835 1.503 . S
C1828 C1827 1.410 . S
C1828 C1829 1.392 . S
C1828 C1831 1.511 . S
C1829 C1825 1.376 . S
C1829 C1828 1.392 . S
C1829 H1841 0.929 . S
C1830 C1826 1.531 . S
C1830 H1842 0.960 . S
C1830 H1843 0.962 . S
C1830 H1844 0.960 . S
C1831 C1828 1.511 . S
C1831 H1845 0.961 . S
C1831 H1846 0.961 . S
C1831 H1847 0.961 . S
C1832 C1833 1.370 . S
C1832 C1834 1.363 . S
C1832 H1848 0.931 . S
C1833 C1832 1.370 . S
C1833 C1837 1.408 . S
C1834 C1832 1.363 . S
C1834 C1835 1.370 . S
C1834 C1838 1.524 . S
C1835 C1827 1.503 . S
C1835 C1834 1.370 . S
C1835 C1836 1.403 . S
C1836 C1835 1.403 . S
C1836 C1837 1.404 . S
C1836 C1839 1.539 . S
C1837 C1833 1.408 . S
C1837 C1836 1.404 . S
C1837 H1849 0.930 . S
C1838 C1834 1.524 . S
C1838 H1850 0.956 . S
C1838 H1851 0.961 . S
C1838 H1852 0.961 . S
C1839 C1836 1.539 . S
C1839 H1853 0.958 . S
C1839 H1854 0.961 . S
C1839 H1855 0.960 . S
H1840 C1824 0.931 . S
H1841 C1829 0.929 . S
H1842 C1830 0.960 . S
H1843 C1830 0.962 . S
H1844 C1830 0.960 . S
H1845 C1831 0.961 . S
H1846 C1831 0.961 . S
H1847 C1831 0.961 . S
H1848 C1832 0.931 . S
H1849 C1837 0.930 . S
H1850 C1838 0.956 . S
H1851 C1838 0.961 . S
H1852 C1838 0.961 . S
H1853 C1839 0.958 . S
H1854 C1839 0.961 . S
H1855 C1839 0.960 . S
C1856 C1857 1.391 . S
C1856 C1858 1.394 . S
C1856 H1872 0.931 . S
C1857 C1856 1.391 . S
C1857 C1861 1.376 . S
C1858 C1856 1.394 . S
C1858 C1859 1.369 . S
C1858 C1862 1.531 . S
C1859 C1858 1.369 . S
C1859 C1860 1.410 . S
C1859 C1867 1.503 . S
C1860 C1859 1.410 . S
C1860 C1861 1.392 . S
C1860 C1863 1.511 . S
C1861 C1857 1.376 . S
C1861 C1860 1.392 . S
C1861 H1873 0.929 . S
C1862 C1858 1.531 . S
C1862 H1874 0.960 . S
C1862 H1875 0.962 . S
C1862 H1876 0.960 . S
C1863 C1860 1.511 . S
C1863 H1877 0.961 . S
C1863 H1878 0.961 . S
C1863 H1879 0.961 . S
C1864 C1865 1.370 . S
C1864 C1866 1.363 . S
C1864 H1880 0.931 . S
C1865 C1864 1.370 . S
C1865 C1869 1.408 . S
C1866 C1864 1.363 . S
C1866 C1867 1.370 . S
C1866 C1870 1.524 . S
C1867 C1859 1.503 . S
C1867 C1866 1.370 . S
C1867 C1868 1.403 . S
C1868 C1867 1.403 . S
C1868 C1869 1.404 . S
C1868 C1871 1.539 . S
C1869 C1865 1.408 . S
C1869 C1868 1.404 . S
C1869 H1881 0.930 . S
C1870 C1866 1.524 . S
C1870 H1882 0.956 . S
C1870 H1883 0.961 . S
C1870 H1884 0.961 . S
C1871 C1868 1.539 . S
C1871 H1885 0.958 . S
C1871 H1886 0.961 . S
C1871 H1887 0.960 . S
H1872 C1856 0.931 . S
H1873 C1861 0.929 . S
H1874 C1862 0.960 . S
H1875 C1862 0.962 . S
H1876 C1862 0.960 . S
H1877 C1863 0.961 . S
H1878 C1863 0.961 . S
H1879 C1863 0.961 . S
H1880 C1864 0.931 . S
H1881 C1869 0.930 . S
H1882 C1870 0.956 . S
H1883 C1870 0.961 . S
H1884 C1870 0.961 . S
H1885 C1871 0.958 . S
H1886 C1871 0.961 . S
H1887 C1871 0.960 . S
C1888 C1889 1.391 . S
C1888 C1890 1.394 . S
C1888 H1904 0.931 . S
C1889 C1888 1.391 . S
C1889 C1893 1.376 . S
C1890 C1888 1.394 . S
C1890 C1891 1.369 . S
C1890 C1894 1.531 . S
C1891 C1890 1.369 . S
C1891 C1892 1.410 . S
C1891 C1899 1.503 . S
C1892 C1891 1.410 . S
C1892 C1893 1.392 . S
C1892 C1895 1.511 . S
C1893 C1889 1.376 . S
C1893 C1892 1.392 . S
C1893 H1905 0.929 . S
C1894 C1890 1.531 . S
C1894 H1906 0.960 . S
C1894 H1907 0.962 . S
C1894 H1908 0.960 . S
C1895 C1892 1.511 . S
C1895 H1909 0.961 . S
C1895 H1910 0.961 . S
C1895 H1911 0.961 . S
C1896 C1897 1.370 . S
C1896 C1898 1.363 . S
C1896 H1912 0.931 . S
C1897 C1896 1.370 . S
C1897 C1901 1.408 . S
C1898 C1896 1.363 . S
C1898 C1899 1.370 . S
C1898 C1902 1.524 . S
C1899 C1891 1.503 . S
C1899 C1898 1.370 . S
C1899 C1900 1.403 . S
C1900 C1899 1.403 . S
C1900 C1901 1.404 . S
C1900 C1903 1.539 . S
C1901 C1897 1.408 . S
C1901 C1900 1.404 . S
C1901 H1913 0.930 . S
C1902 C1898 1.524 . S
C1902 H1914 0.956 . S
C1902 H1915 0.961 . S
C1902 H1916 0.961 . S
C1903 C1900 1.539 . S
C1903 H1917 0.958 . S
C1903 H1918 0.961 . S
C1903 H1919 0.960 . S
H1904 C1888 0.931 . S
H1905 C1893 0.929 . S
H1906 C1894 0.960 . S
H1907 C1894 0.962 . S
H1908 C1894 0.960 . S
H1909 C1895 0.961 . S
H1910 C1895 0.961 . S
H1911 C1895 0.961 . S
H1912 C1896 0.931 . S
H1913 C1901 0.930 . S
H1914 C1902 0.956 . S
H1915 C1902 0.961 . S
H1916 C1902 0.961 . S
H1917 C1903 0.958 . S
H1918 C1903 0.961 . S
H1919 C1903 0.960 . S
C1920 C1921 1.391 . S
C1920 C1922 1.394 . S
C1920 H1936 0.931 . S
C1921 C1920 1.391 . S
C1921 C1925 1.376 . S
C1922 C1920 1.394 . S
C1922 C1923 1.369 . S
C1922 C1926 1.531 . S
C1923 C1922 1.369 . S
C1923 C1924 1.410 . S
C1923 C1931 1.503 . S
C1924 C1923 1.410 . S
C1924 C1925 1.392 . S
C1924 C1927 1.511 . S
C1925 C1921 1.376 . S
C1925 C1924 1.392 . S
C1925 H1937 0.929 . S
C1926 C1922 1.531 . S
C1926 H1938 0.960 . S
C1926 H1939 0.962 . S
C1926 H1940 0.960 . S
C1927 C1924 1.511 . S
C1927 H1941 0.961 . S
C1927 H1942 0.961 . S
C1927 H1943 0.961 . S
C1928 C1929 1.370 . S
C1928 C1930 1.363 . S
C1928 H1944 0.931 . S
C1929 C1928 1.370 . S
C1929 C1933 1.408 . S
C1930 C1928 1.363 . S
C1930 C1931 1.370 . S
C1930 C1934 1.524 . S
C1931 C1923 1.503 . S
C1931 C1930 1.370 . S
C1931 C1932 1.403 . S
C1932 C1931 1.403 . S
C1932 C1933 1.404 . S
C1932 C1935 1.539 . S
C1933 C1929 1.408 . S
C1933 C1932 1.404 . S
C1933 H1945 0.930 . S
C1934 C1930 1.524 . S
C1934 H1946 0.956 . S
C1934 H1947 0.961 . S
C1934 H1948 0.961 . S
C1935 C1932 1.539 . S
C1935 H1949 0.958 . S
C1935 H1950 0.961 . S
C1935 H1951 0.960 . S
H1936 C1920 0.931 . S
H1937 C1925 0.929 . S
H1938 C1926 0.960 . S
H1939 C1926 0.962 . S
H1940 C1926 0.960 . S
H1941 C1927 0.961 . S
H1942 C1927 0.961 . S
H1943 C1927 0.961 . S
H1944 C1928 0.931 . S
H1945 C1933 0.930 . S
H1946 C1934 0.956 . S
H1947 C1934 0.961 . S
H1948 C1934 0.961 . S
H1949 C1935 0.958 . S
H1950 C1935 0.961 . S
H1951 C1935 0.960 . S
C1952 C1953 1.391 . S
C1952 C1954 1.394 . S
C1952 H1968 0.931 . S
C1953 C1952 1.391 . S
C1953 C1957 1.376 . S
C1954 C1952 1.394 . S
C1954 C1955 1.369 . S
C1954 C1958 1.531 . S
C1955 C1954 1.369 . S
C1955 C1956 1.410 . S
C1955 C1963 1.503 . S
C1956 C1955 1.410 . S
C1956 C1957 1.392 . S
C1956 C1959 1.511 . S
C1957 C1953 1.376 . S
C1957 C1956 1.392 . S
C1957 H1969 0.929 . S
C1958 C1954 1.531 . S
C1958 H1970 0.960 . S
C1958 H1971 0.962 . S
C1958 H1972 0.960 . S
C1959 C1956 1.511 . S
C1959 H1973 0.961 . S
C1959 H1974 0.961 . S
C1959 H1975 0.961 . S
C1960 C1961 1.370 . S
C1960 C1962 1.363 . S
C1960 H1976 0.931 . S
C1961 C1960 1.370 . S
C1961 C1965 1.408 . S
C1962 C1960 1.363 . S
C1962 C1963 1.370 . S
C1962 C1966 1.524 . S
C1963 C1955 1.503 . S
C1963 C1962 1.370 . S
C1963 C1964 1.403 . S
C1964 C1963 1.403 . S
C1964 C1965 1.404 . S
C1964 C1967 1.539 . S
C1965 C1961 1.408 . S
C1965 C1964 1.404 . S
C1965 H1977 0.930 . S
C1966 C1962 1.524 . S
C1966 H1978 0.956 . S
C1966 H1979 0.961 . S
C1966 H1980 0.961 . S
C1967 C1964 1.539 . S
C1967 H1981 0.958 . S
C1967 H1982 0.961 . S
C1967 H1983 0.960 . S
H1968 C1952 0.931 . S
H1969 C1957 0.929 . S
H1970 C1958 0.960 . S
H1971 C1958 0.962 . S
H1972 C1958 0.960 . S
H1973 C1959 0.961 . S
H1974 C1959 0.961 . S
H1975 C1959 0.961 . S
H1976 C1960 0.931 . S
H1977 C1965 0.930 . S
H1978 C1966 0.956 . S
H1979 C1966 0.961 . S
H1980 C1966 0.961 . S
H1981 C1967 0.958 . S
H1982 C1967 0.961 . S
H1983 C1967 0.960 . S
C1984 C1985 1.391 . S
C1984 C1986 1.394 . S
C1984 H2000 0.931 . S
C1985 C1984 1.391 . S
C1985 C1989 1.376 . S
C1986 C1984 1.394 . S
C1986 C1987 1.369 . S
C1986 C1990 1.531 . S
C1987 C1986 1.369 . S
C1987 C1988 1.410 . S
C1987 C1995 1.503 . S
C1988 C1987 1.410 . S
C1988 C1989 1.392 . S
C1988 C1991 1.511 . S
C1989 C1985 1.376 . S
C1989 C1988 1.392 . S
C1989 H2001 0.929 . S
C1990 C1986 1.531 . S
C1990 H2002 0.960 . S
C1990 H2003 0.962 . S
C1990 H2004 0.960 . S
C1991 C1988 1.511 . S
C1991 H2005 0.961 . S
C1991 H2006 0.961 . S
C1991 H2007 0.961 . S
C1992 C1993 1.370 . S
C1992 C1994 1.363 . S
C1992 H2008 0.931 . S
C1993 C1992 1.370 . S
C1993 C1997 1.408 . S
C1994 C1992 1.363 . S
C1994 C1995 1.370 . S
C1994 C1998 1.524 . S
C1995 C1987 1.503 . S
C1995 C1994 1.370 . S
C1995 C1996 1.403 . S
C1996 C1995 1.403 . S
C1996 C1997 1.404 . S
C1996 C1999 1.539 . S
C1997 C1993 1.408 . S
C1997 C1996 1.404 . S
C1997 H2009 0.930 . S
C1998 C1994 1.524 . S
C1998 H2010 0.956 . S
C1998 H2011 0.961 . S
C1998 H2012 0.961 . S
C1999 C1996 1.539 . S
C1999 H2013 0.958 . S
C1999 H2014 0.961 . S
C1999 H2015 0.960 . S
H2000 C1984 0.931 . S
H2001 C1989 0.929 . S
H2002 C1990 0.960 . S
H2003 C1990 0.962 . S
H2004 C1990 0.960 . S
H2005 C1991 0.961 . S
H2006 C1991 0.961 . S
H2007 C1991 0.961 . S
H2008 C1992 0.931 . S
H2009 C1997 0.930 . S
H2010 C1998 0.956 . S
H2011 C1998 0.961 . S
H2012 C1998 0.961 . S
H2013 C1999 0.958 . S
H2014 C1999 0.961 . S
H2015 C1999 0.960 . S
C2016 C2017 1.391 . S
C2016 C2018 1.394 . S
C2016 H2032 0.931 . S
C2017 C2016 1.391 . S
C2017 C2021 1.376 . S
C2018 C2016 1.394 . S
C2018 C2019 1.369 . S
C2018 C2022 1.531 . S
C2019 C2018 1.369 . S
C2019 C2020 1.410 . S
C2019 C2027 1.503 . S
C2020 C2019 1.410 . S
C2020 C2021 1.392 . S
C2020 C2023 1.511 . S
C2021 C2017 1.376 . S
C2021 C2020 1.392 . S
C2021 H2033 0.929 . S
C2022 C2018 1.531 . S
C2022 H2034 0.960 . S
C2022 H2035 0.962 . S
C2022 H2036 0.960 . S
C2023 C2020 1.511 . S
C2023 H2037 0.961 . S
C2023 H2038 0.961 . S
C2023 H2039 0.961 . S
C2024 C2025 1.370 . S
C2024 C2026 1.363 . S
C2024 H2040 0.931 . S
C2025 C2024 1.370 . S
C2025 C2029 1.408 . S
C2026 C2024 1.363 . S
C2026 C2027 1.370 . S
C2026 C2030 1.524 . S
C2027 C2019 1.503 . S
C2027 C2026 1.370 . S
C2027 C2028 1.403 . S
C2028 C2027 1.403 . S
C2028 C2029 1.404 . S
C2028 C2031 1.539 . S
C2029 C2025 1.408 . S
C2029 C2028 1.404 . S
C2029 H2041 0.930 . S
C2030 C2026 1.524 . S
C2030 H2042 0.956 . S
C2030 H2043 0.961 . S
C2030 H2044 0.961 . S
C2031 C2028 1.539 . S
C2031 H2045 0.958 . S
C2031 H2046 0.961 . S
C2031 H2047 0.960 . S
H2032 C2016 0.931 . S
H2033 C2021 0.929 . S
H2034 C2022 0.960 . S
H2035 C2022 0.962 . S
H2036 C2022 0.960 . S
H2037 C2023 0.961 . S
H2038 C2023 0.961 . S
H2039 C2023 0.961 . S
H2040 C2024 0.931 . S
H2041 C2029 0.930 . S
H2042 C2030 0.956 . S
H2043 C2030 0.961 . S
H2044 C2030 0.961 . S
H2045 C2031 0.958 . S
H2046 C2031 0.961 . S
H2047 C2031 0.960 . S
C2048 C2049 1.391 . S
C2048 C2050 1.394 . S
C2048 H2064 0.931 . S
C2049 C2048 1.391 . S
C2049 C2053 1.376 . S
C2050 C2048 1.394 . S
C2050 C2051 1.369 . S
C2050 C2054 1.531 . S
C2051 C2050 1.369 . S
C2051 C2052 1.410 . S
C2051 C2059 1.503 . S
C2052 C2051 1.410 . S
C2052 C2053 1.392 . S
C2052 C2055 1.511 . S
C2053 C2049 1.376 . S
C2053 C2052 1.392 . S
C2053 H2065 0.929 . S
C2054 C2050 1.531 . S
C2054 H2066 0.960 . S
C2054 H2067 0.962 . S
C2054 H2068 0.960 . S
C2055 C2052 1.511 . S
C2055 H2069 0.961 . S
C2055 H2070 0.961 . S
C2055 H2071 0.961 . S
C2056 C2057 1.370 . S
C2056 C2058 1.363 . S
C2056 H2072 0.931 . S
C2057 C2056 1.370 . S
C2057 C2061 1.408 . S
C2058 C2056 1.363 . S
C2058 C2059 1.370 . S
C2058 C2062 1.524 . S
C2059 C2051 1.503 . S
C2059 C2058 1.370 . S
C2059 C2060 1.403 . S
C2060 C2059 1.403 . S
C2060 C2061 1.404 . S
C2060 C2063 1.539 . S
C2061 C2057 1.408 . S
C2061 C2060 1.404 . S
C2061 H2073 0.930 . S
C2062 C2058 1.524 . S
C2062 H2074 0.956 . S
C2062 H2075 0.961 . S
C2062 H2076 0.961 . S
C2063 C2060 1.539 . S
C2063 H2077 0.958 . S
C2063 H2078 0.961 . S
C2063 H2079 0.960 . S
H2064 C2048 0.931 . S
H2065 C2053 0.929 . S
H2066 C2054 0.960 . S
H2067 C2054 0.962 . S
H2068 C2054 0.960 . S
H2069 C2055 0.961 . S
H2070 C2055 0.961 . S
H2071 C2055 0.961 . S
H2072 C2056 0.931 . S
H2073 C2061 0.930 . S
H2074 C2062 0.956 . S
H2075 C2062 0.961 . S
H2076 C2062 0.961 . S
H2077 C2063 0.958 . S
H2078 C2063 0.961 . S
H2079 C2063 0.960 . S
C2080 C2081 1.391 . S
C2080 C2082 1.394 . S
C2080 H2096 0.931 . S
C2081 C2080 1.391 . S
C2081 C2085 1.376 . S
C2082 C2080 1.394 . S
C2082 C2083 1.369 . S
C2082 C2086 1.531 . S
C2083 C2082 1.369 . S
C2083 C2084 1.410 . S
C2083 C2091 1.503 . S
C2084 C2083 1.410 . S
C2084 C2085 1.392 . S
C2084 C2087 1.511 . S
C2085 C2081 1.376 . S
C2085 C2084 1.392 . S
C2085 H2097 0.929 . S
C2086 C2082 1.531 . S
C2086 H2098 0.960 . S
C2086 H2099 0.962 . S
C2086 H2100 0.960 . S
C2087 C2084 1.511 . S
C2087 H2101 0.961 . S
C2087 H2102 0.961 . S
C2087 H2103 0.961 . S
C2088 C2089 1.370 . S
C2088 C2090 1.363 . S
C2088 H2104 0.931 . S
C2089 C2088 1.370 . S
C2089 C2093 1.408 . S
C2090 C2088 1.363 . S
C2090 C2091 1.370 . S
C2090 C2094 1.524 . S
C2091 C2083 1.503 . S
C2091 C2090 1.370 . S
C2091 C2092 1.403 . S
C2092 C2091 1.403 . S
C2092 C2093 1.404 . S
C2092 C2095 1.539 . S
C2093 C2089 1.408 . S
C2093 C2092 1.404 . S
C2093 H2105 0.930 . S
C2094 C2090 1.524 . S
C2094 H2106 0.956 . S
C2094 H2107 0.961 . S
C2094 H2108 0.961 . S
C2095 C2092 1.539 . S
C2095 H2109 0.958 . S
C2095 H2110 0.961 . S
C2095 H2111 0.960 . S
H2096 C2080 0.931 . S
H2097 C2085 0.929 . S
H2098 C2086 0.960 . S
H2099 C2086 0.962 . S
H2100 C2086 0.960 . S
H2101 C2087 0.961 . S
H2102 C2087 0.961 . S
H2103 C2087 0.961 . S
H2104 C2088 0.931 . S
H2105 C2093 0.930 . S
H2106 C2094 0.956 . S
H2107 C2094 0.961 . S
H2108 C2094 0.961 . S
H2109 C2095 0.958 . S
H2110 C2095 0.961 . S
H2111 C2095 0.960 . S
C2112 C2113 1.391 . S
C2112 C2114 1.394 . S
C2112 H2128 0.931 . S
C2113 C2112 1.391 . S
C2113 C2117 1.376 . S
C2114 C2112 1.394 . S
C2114 C2115 1.369 . S
C2114 C2118 1.531 . S
C2115 C2114 1.369 . S
C2115 C2116 1.410 . S
C2115 C2123 1.503 . S
C2116 C2115 1.410 . S
C2116 C2117 1.392 . S
C2116 C2119 1.511 . S
C2117 C2113 1.376 . S
C2117 C2116 1.392 . S
C2117 H2129 0.929 . S
C2118 C2114 1.531 . S
C2118 H2130 0.960 . S
C2118 H2131 0.962 . S
C2118 H2132 0.960 . S
C2119 C2116 1.511 . S
C2119 H2133 0.961 . S
C2119 H2134 0.961 . S
C2119 H2135 0.961 . S
C2120 C2121 1.370 . S
C2120 C2122 1.363 . S
C2120 H2136 0.931 . S
C2121 C2120 1.370 . S
C2121 C2125 1.408 . S
C2122 C2120 1.363 . S
C2122 C2123 1.370 . S
C2122 C2126 1.524 . S
C2123 C2115 1.503 . S
C2123 C2122 1.370 . S
C2123 C2124 1.403 . S
C2124 C2123 1.403 . S
C2124 C2125 1.404 . S
C2124 C2127 1.539 . S
C2125 C2121 1.408 . S
C2125 C2124 1.404 . S
C2125 H2137 0.930 . S
C2126 C2122 1.524 . S
C2126 H2138 0.956 . S
C2126 H2139 0.961 . S
C2126 H2140 0.961 . S
C2127 C2124 1.539 . S
C2127 H2141 0.958 . S
C2127 H2142 0.961 . S
C2127 H2143 0.960 . S
H2128 C2112 0.931 . S
H2129 C2117 0.929 . S
H2130 C2118 0.960 . S
H2131 C2118 0.962 . S
H2132 C2118 0.960 . S
H2133 C2119 0.961 . S
H2134 C2119 0.961 . S
H2135 C2119 0.961 . S
H2136 C2120 0.931 . S
H2137 C2125 0.930 . S
H2138 C2126 0.956 . S
H2139 C2126 0.961 . S
H2140 C2126 0.961 . S
H2141 C2127 0.958 . S
H2142 C2127 0.961 . S
H2143 C2127 0.960 . S
C2144 C2145 1.391 . S
C2144 C2146 1.394 . S
C2144 H2160 0.931 . S
C2145 C2144 1.391 . S
C2145 C2149 1.376 . S
C2146 C2144 1.394 . S
C2146 C2147 1.369 . S
C2146 C2150 1.531 . S
C2147 C2146 1.369 . S
C2147 C2148 1.410 . S
C2147 C2155 1.503 . S
C2148 C2147 1.410 . S
C2148 C2149 1.392 . S
C2148 C2151 1.511 . S
C2149 C2145 1.376 . S
C2149 C2148 1.392 . S
C2149 H2161 0.929 . S
C2150 C2146 1.531 . S
C2150 H2162 0.960 . S
C2150 H2163 0.962 . S
C2150 H2164 0.960 . S
C2151 C2148 1.511 . S
C2151 H2165 0.961 . S
C2151 H2166 0.961 . S
C2151 H2167 0.961 . S
C2152 C2153 1.370 . S
C2152 C2154 1.363 . S
C2152 H2168 0.931 . S
C2153 C2152 1.370 . S
C2153 C2157 1.408 . S
C2154 C2152 1.363 . S
C2154 C2155 1.370 . S
C2154 C2158 1.524 . S
C2155 C2147 1.503 . S
C2155 C2154 1.370 . S
C2155 C2156 1.403 . S
C2156 C2155 1.403 . S
C2156 C2157 1.404 . S
C2156 C2159 1.539 . S
C2157 C2153 1.408 . S
C2157 C2156 1.404 . S
C2157 H2169 0.930 . S
C2158 C2154 1.524 . S
C2158 H2170 0.956 . S
C2158 H2171 0.961 . S
C2158 H2172 0.961 . S
C2159 C2156 1.539 . S
C2159 H2173 0.958 . S
C2159 H2174 0.961 . S
C2159 H2175 0.960 . S
H2160 C2144 0.931 . S
H2161 C2149 0.929 . S
H2162 C2150 0.960 . S
H2163 C2150 0.962 . S
H2164 C2150 0.960 . S
H2165 C2151 0.961 . S
H2166 C2151 0.961 . S
H2167 C2151 0.961 . S
H2168 C2152 0.931 . S
H2169 C2157 0.930 . S
H2170 C2158 0.956 . S
H2171 C2158 0.961 . S
H2172 C2158 0.961 . S
H2173 C2159 0.958 . S
H2174 C2159 0.961 . S
H2175 C2159 0.960 . S
C2176 C2177 1.391 . S
C2176 C2178 1.394 . S
C2176 H2192 0.931 . S
C2177 C2176 1.391 . S
C2177 C2181 1.376 . S
C2178 C2176 1.394 . S
C2178 C2179 1.369 . S
C2178 C2182 1.531 . S
C2179 C2178 1.369 . S
C2179 C2180 1.410 . S
C2179 C2187 1.503 . S
C2180 C2179 1.410 . S
C2180 C2181 1.392 . S
C2180 C2183 1.511 . S
C2181 C2177 1.376 . S
C2181 C2180 1.392 . S
C2181 H2193 0.929 . S
C2182 C2178 1.531 . S
C2182 H2194 0.960 . S
C2182 H2195 0.962 . S
C2182 H2196 0.960 . S
C2183 C2180 1.511 . S
C2183 H2197 0.961 . S
C2183 H2198 0.961 . S
C2183 H2199 0.961 . S
C2184 C2185 1.370 . S
C2184 C2186 1.363 . S
C2184 H2200 0.931 . S
C2185 C2184 1.370 . S
C2185 C2189 1.408 . S
C2186 C2184 1.363 . S
C2186 C2187 1.370 . S
C2186 C2190 1.524 . S
C2187 C2179 1.503 . S
C2187 C2186 1.370 . S
C2187 C2188 1.403 . S
C2188 C2187 1.403 . S
C2188 C2189 1.404 . S
C2188 C2191 1.539 . S
C2189 C2185 1.408 . S
C2189 C2188 1.404 . S
C2189 H2201 0.930 . S
C2190 C2186 1.524 . S
C2190 H2202 0.956 . S
C2190 H2203 0.961 . S
C2190 H2204 0.961 . S
C2191 C2188 1.539 . S
C2191 H2205 0.958 . S
C2191 H2206 0.961 . S
C2191 H2207 0.960 . S
H2192 C2176 0.931 . S
H2193 C2181 0.929 . S
H2194 C2182 0.960 . S
H2195 C2182 0.962 . S
H2196 C2182 0.960 . S
H2197 C2183 0.961 . S
H2198 C2183 0.961 . S
H2199 C2183 0.961 . S
H2200 C2184 0.931 . S
H2201 C2189 0.930 . S
H2202 C2190 0.956 . S
H2203 C2190 0.961 . S
H2204 C2190 0.961 . S
H2205 C2191 0.958 . S
H2206 C2191 0.961 . S
H2207 C2191 0.960 . S
C2208 C2209 1.391 . S
C2208 C2210 1.394 . S
C2208 H2224 0.931 . S
C2209 C2208 1.391 . S
C2209 C2213 1.376 . S
C2210 C2208 1.394 . S
C2210 C2211 1.369 . S
C2210 C2214 1.531 . S
C2211 C2210 1.369 . S
C2211 C2212 1.410 . S
C2211 C2219 1.503 . S
C2212 C2211 1.410 . S
C2212 C2213 1.392 . S
C2212 C2215 1.511 . S
C2213 C2209 1.376 . S
C2213 C2212 1.392 . S
C2213 H2225 0.929 . S
C2214 C2210 1.531 . S
C2214 H2226 0.960 . S
C2214 H2227 0.962 . S
C2214 H2228 0.960 . S
C2215 C2212 1.511 . S
C2215 H2229 0.961 . S
C2215 H2230 0.961 . S
C2215 H2231 0.961 . S
C2216 C2217 1.370 . S
C2216 C2218 1.363 . S
C2216 H2232 0.931 . S
C2217 C2216 1.370 . S
C2217 C2221 1.408 . S
C2218 C2216 1.363 . S
C2218 C2219 1.370 . S
C2218 C2222 1.524 . S
C2219 C2211 1.503 . S
C2219 C2218 1.370 . S
C2219 C2220 1.403 . S
C2220 C2219 1.403 . S
C2220 C2221 1.404 . S
C2220 C2223 1.539 . S
C2221 C2217 1.408 . S
C2221 C2220 1.404 . S
C2221 H2233 0.930 . S
C2222 C2218 1.524 . S
C2222 H2234 0.956 . S
C2222 H2235 0.961 . S
C2222 H2236 0.961 . S
C2223 C2220 1.539 . S
C2223 H2237 0.958 . S
C2223 H2238 0.961 . S
C2223 H2239 0.960 . S
H2224 C2208 0.931 . S
H2225 C2213 0.929 . S
H2226 C2214 0.960 . S
H2227 C2214 0.962 . S
H2228 C2214 0.960 . S
H2229 C2215 0.961 . S
H2230 C2215 0.961 . S
H2231 C2215 0.961 . S
H2232 C2216 0.931 . S
H2233 C2221 0.930 . S
H2234 C2222 0.956 . S
H2235 C2222 0.961 . S
H2236 C2222 0.961 . S
H2237 C2223 0.958 . S
H2238 C2223 0.961 . S
H2239 C2223 0.960 . S
C2240 C2241 1.391 . S
C2240 C2242 1.394 . S
C2240 H2256 0.931 . S
C2241 C2240 1.391 . S
C2241 C2245 1.376 . S
C2242 C2240 1.394 . S
C2242 C2243 1.369 . S
C2242 C2246 1.531 . S
C2243 C2242 1.369 . S
C2243 C2244 1.410 . S
C2243 C2251 1.503 . S
C2244 C2243 1.410 . S
C2244 C2245 1.392 . S
C2244 C2247 1.511 . S
C2245 C2241 1.376 . S
C2245 C2244 1.392 . S
C2245 H2257 0.929 . S
C2246 C2242 1.531 . S
C2246 H2258 0.960 . S
C2246 H2259 0.962 . S
C2246 H2260 0.960 . S
C2247 C2244 1.511 . S
C2247 H2261 0.961 . S
C2247 H2262 0.961 . S
C2247 H2263 0.961 . S
C2248 C2249 1.370 . S
C2248 C2250 1.363 . S
C2248 H2264 0.931 . S
C2249 C2248 1.370 . S
C2249 C2253 1.408 . S
C2250 C2248 1.363 . S
C2250 C2251 1.370 . S
C2250 C2254 1.524 . S
C2251 C2243 1.503 . S
C2251 C2250 1.370 . S
C2251 C2252 1.403 . S
C2252 C2251 1.403 . S
C2252 C2253 1.404 . S
C2252 C2255 1.539 . S
C2253 C2249 1.408 . S
C2253 C2252 1.404 . S
C2253 H2265 0.930 . S
C2254 C2250 1.524 . S
C2254 H2266 0.956 . S
C2254 H2267 0.961 . S
C2254 H2268 0.961 . S
C2255 C2252 1.539 . S
C2255 H2269 0.958 . S
C2255 H2270 0.961 . S
C2255 H2271 0.960 . S
H2256 C2240 0.931 . S
H2257 C2245 0.929 . S
H2258 C2246 0.960 . S
H2259 C2246 0.962 . S
H2260 C2246 0.960 . S
H2261 C2247 0.961 . S
H2262 C2247 0.961 . S
H2263 C2247 0.961 . S
H2264 C2248 0.931 . S
H2265 C2253 0.930 . S
H2266 C2254 0.956 . S
H2267 C2254 0.961 . S
H2268 C2254 0.961 . S
H2269 C2255 0.958 . S
H2270 C2255 0.961 . S
H2271 C2255 0.960 . S
C2272 C2273 1.391 . S
C2272 C2274 1.394 . S
C2272 H2288 0.931 . S
C2273 C2272 1.391 . S
C2273 C2277 1.376 . S
C2274 C2272 1.394 . S
C2274 C2275 1.369 . S
C2274 C2278 1.531 . S
C2275 C2274 1.369 . S
C2275 C2276 1.410 . S
C2275 C2283 1.503 . S
C2276 C2275 1.410 . S
C2276 C2277 1.392 . S
C2276 C2279 1.511 . S
C2277 C2273 1.376 . S
C2277 C2276 1.392 . S
C2277 H2289 0.929 . S
C2278 C2274 1.531 . S
C2278 H2290 0.960 . S
C2278 H2291 0.962 . S
C2278 H2292 0.960 . S
C2279 C2276 1.511 . S
C2279 H2293 0.961 . S
C2279 H2294 0.961 . S
C2279 H2295 0.961 . S
C2280 C2281 1.370 . S
C2280 C2282 1.363 . S
C2280 H2296 0.931 . S
C2281 C2280 1.370 . S
C2281 C2285 1.408 . S
C2282 C2280 1.363 . S
C2282 C2283 1.370 . S
C2282 C2286 1.524 . S
C2283 C2275 1.503 . S
C2283 C2282 1.370 . S
C2283 C2284 1.403 . S
C2284 C2283 1.403 . S
C2284 C2285 1.404 . S
C2284 C2287 1.539 . S
C2285 C2281 1.408 . S
C2285 C2284 1.404 . S
C2285 H2297 0.930 . S
C2286 C2282 1.524 . S
C2286 H2298 0.956 . S
C2286 H2299 0.961 . S
C2286 H2300 0.961 . S
C2287 C2284 1.539 . S
C2287 H2301 0.958 . S
C2287 H2302 0.961 . S
C2287 H2303 0.960 . S
H2288 C2272 0.931 . S
H2289 C2277 0.929 . S
H2290 C2278 0.960 . S
H2291 C2278 0.962 . S
H2292 C2278 0.960 . S
H2293 C2279 0.961 . S
H2294 C2279 0.961 . S
H2295 C2279 0.961 . S
H2296 C2280 0.931 . S
H2297 C2285 0.930 . S
H2298 C2286 0.956 . S
H2299 C2286 0.961 . S
H2300 C2286 0.961 . S
H2301 C2287 0.958 . S
H2302 C2287 0.961 . S
H2303 C2287 0.960 . S
C2304 C2305 1.391 . S
C2304 C2306 1.394 . S
C2304 H2320 0.931 . S
C2305 C2304 1.391 . S
C2305 C2309 1.376 . S
C2306 C2304 1.394 . S
C2306 C2307 1.369 . S
C2306 C2310 1.531 . S
C2307 C2306 1.369 . S
C2307 C2308 1.410 . S
C2307 C2315 1.503 . S
C2308 C2307 1.410 . S
C2308 C2309 1.392 . S
C2308 C2311 1.511 . S
C2309 C2305 1.376 . S
C2309 C2308 1.392 . S
C2309 H2321 0.929 . S
C2310 C2306 1.531 . S
C2310 H2322 0.960 . S
C2310 H2323 0.962 . S
C2310 H2324 0.960 . S
C2311 C2308 1.511 . S
C2311 H2325 0.961 . S
C2311 H2326 0.961 . S
C2311 H2327 0.961 . S
C2312 C2313 1.370 . S
C2312 C2314 1.363 . S
C2312 H2328 0.931 . S
C2313 C2312 1.370 . S
C2313 C2317 1.408 . S
C2314 C2312 1.363 . S
C2314 C2315 1.370 . S
C2314 C2318 1.524 . S
C2315 C2307 1.503 . S
C2315 C2314 1.370 . S
C2315 C2316 1.403 . S
C2316 C2315 1.403 . S
C2316 C2317 1.404 . S
C2316 C2319 1.539 . S
C2317 C2313 1.408 . S
C2317 C2316 1.404 . S
C2317 H2329 0.930 . S
C2318 C2314 1.524 . S
C2318 H2330 0.956 . S
C2318 H2331 0.961 . S
C2318 H2332 0.961 . S
C2319 C2316 1.539 . S
C2319 H2333 0.958 . S
C2319 H2334 0.961 . S
C2319 H2335 0.960 . S
H2320 C2304 0.931 . S
H2321 C2309 0.929 . S
H2322 C2310 0.960 . S
H2323 C2310 0.962 . S
H2324 C2310 0.960 . S
H2325 C2311 0.961 . S
H2326 C2311 0.961 . S
H2327 C2311 0.961 . S
H2328 C2312 0.931 . S
H2329 C2317 0.930 . S
H2330 C2318 0.956 . S
H2331 C2318 0.961 . S
H2332 C2318 0.961 . S
H2333 C2319 0.958 . S
H2334 C2319 0.961 . S
H2335 C2319 0.960 . S
C2336 C2337 1.391 . S
C2336 C2338 1.394 . S
C2336 H2352 0.931 . S
C2337 C2336 1.391 . S
C2337 C2341 1.376 . S
C2338 C2336 1.394 . S
C2338 C2339 1.369 . S
C2338 C2342 1.531 . S
C2339 C2338 1.369 . S
C2339 C2340 1.410 . S
C2339 C2347 1.503 . S
C2340 C2339 1.410 . S
C2340 C2341 1.392 . S
C2340 C2343 1.511 . S
C2341 C2337 1.376 . S
C2341 C2340 1.392 . S
C2341 H2353 0.929 . S
C2342 C2338 1.531 . S
C2342 H2354 0.960 . S
C2342 H2355 0.962 . S
C2342 H2356 0.960 . S
C2343 C2340 1.511 . S
C2343 H2357 0.961 . S
C2343 H2358 0.961 . S
C2343 H2359 0.961 . S
C2344 C2345 1.376 . S
C2344 C2346 1.363 . S
C2344 H2360 0.931 1_455 S
C2345 C2344 1.376 . S
C2345 C2349 1.431 . S
C2346 C2344 1.363 . S
C2346 C2347 1.370 . S
C2346 C2350 1.524 . S
C2347 C2339 1.503 . S
C2347 C2346 1.370 . S
C2347 C2348 1.403 . S
C2348 C2347 1.403 . S
C2348 C2349 1.404 . S
C2348 C2351 1.539 . S
C2349 C2345 1.431 . S
C2349 C2348 1.404 . S
C2349 H2361 0.930 . S
C2350 C2346 1.524 . S
C2350 H2362 0.956 . S
C2350 H2363 0.961 . S
C2350 H2364 0.961 . S
C2351 C2348 1.539 . S
C2351 H2365 0.958 . S
C2351 H2366 0.961 . S
C2351 H2367 0.960 . S
H2352 C2336 0.931 . S
H2353 C2341 0.929 . S
H2354 C2342 0.960 . S
H2355 C2342 0.962 . S
H2356 C2342 0.960 . S
H2357 C2343 0.961 . S
H2358 C2343 0.961 . S
H2359 C2343 0.961 . S
H2360 C2344 0.931 1_655 S
H2361 C2349 0.930 . S
H2362 C2350 0.956 . S
H2363 C2350 0.961 . S
H2364 C2350 0.961 . S
H2365 C2351 0.958 . S
H2366 C2351 0.961 . S
H2367 C2351 0.960 . S
C2368 C2369 1.391 . S
C2368 C2370 1.394 . S
C2368 H2384 0.931 . S
C2369 C2368 1.391 . S
C2369 C2373 1.376 . S
C2370 C2368 1.394 . S
C2370 C2371 1.369 . S
C2370 C2374 1.531 . S
C2371 C2370 1.369 . S
C2371 C2372 1.410 . S
C2371 C2379 1.503 . S
C2372 C2371 1.410 . S
C2372 C2373 1.392 . S
C2372 C2375 1.511 . S
C2373 C2369 1.376 . S
C2373 C2372 1.392 . S
C2373 H2385 0.929 . S
C2374 C2370 1.531 . S
C2374 H2386 0.960 . S
C2374 H2387 0.962 . S
C2374 H2388 0.960 . S
C2375 C2372 1.511 . S
C2375 H2389 0.961 . S
C2375 H2390 0.961 . S
C2375 H2391 0.961 . S
C2376 C2377 1.370 . S
C2376 C2378 1.363 . S
C2376 H2392 0.931 . S
C2377 C2376 1.370 . S
C2377 C2381 1.408 . S
C2378 C2376 1.363 . S
C2378 C2379 1.370 . S
C2378 C2382 1.524 . S
C2379 C2371 1.503 . S
C2379 C2378 1.370 . S
C2379 C2380 1.403 . S
C2380 C2379 1.403 . S
C2380 C2381 1.404 . S
C2380 C2383 1.539 . S
C2381 C2377 1.408 . S
C2381 C2380 1.404 . S
C2381 H2393 0.930 . S
C2382 C2378 1.524 . S
C2382 H2394 0.956 . S
C2382 H2395 0.961 . S
C2382 H2396 0.961 . S
C2383 C2380 1.539 . S
C2383 H2397 0.958 . S
C2383 H2398 0.961 . S
C2383 H2399 0.960 . S
H2384 C2368 0.931 . S
H2385 C2373 0.929 . S
H2386 C2374 0.960 . S
H2387 C2374 0.962 . S
H2388 C2374 0.960 . S
H2389 C2375 0.961 . S
H2390 C2375 0.961 . S
H2391 C2375 0.961 . S
H2392 C2376 0.931 . S
H2393 C2381 0.930 . S
H2394 C2382 0.956 . S
H2395 C2382 0.961 . S
H2396 C2382 0.961 . S
H2397 C2383 0.958 . S
H2398 C2383 0.961 . S
H2399 C2383 0.960 . S
C2400 C2401 1.391 . S
C2400 C2402 1.394 . S
C2400 H2416 0.931 . S
C2401 C2400 1.391 . S
C2401 C2405 1.376 . S
C2402 C2400 1.394 . S
C2402 C2403 1.369 . S
C2402 C2406 1.531 . S
C2403 C2402 1.369 . S
C2403 C2404 1.410 . S
C2403 C2411 1.503 . S
C2404 C2403 1.410 . S
C2404 C2405 1.392 . S
C2404 C2407 1.511 . S
C2405 C2401 1.376 . S
C2405 C2404 1.392 . S
C2405 H2417 0.929 . S
C2406 C2402 1.531 . S
C2406 H2418 0.960 . S
C2406 H2419 0.962 . S
C2406 H2420 0.960 . S
C2407 C2404 1.511 . S
C2407 H2421 0.961 . S
C2407 H2422 0.961 . S
C2407 H2423 0.961 . S
C2408 C2409 1.370 . S
C2408 C2410 1.363 . S
C2408 H2424 0.931 . S
C2409 C2408 1.370 . S
C2409 C2413 1.408 . S
C2410 C2408 1.363 . S
C2410 C2411 1.370 . S
C2410 C2414 1.524 . S
C2411 C2403 1.503 . S
C2411 C2410 1.370 . S
C2411 C2412 1.403 . S
C2412 C2411 1.403 . S
C2412 C2413 1.404 . S
C2412 C2415 1.539 . S
C2413 C2409 1.408 . S
C2413 C2412 1.404 . S
C2413 H2425 0.930 . S
C2414 C2410 1.524 . S
C2414 H2426 0.956 . S
C2414 H2427 0.961 . S
C2414 H2428 0.961 . S
C2415 C2412 1.539 . S
C2415 H2429 0.958 . S
C2415 H2430 0.961 . S
C2415 H2431 0.960 . S
H2416 C2400 0.931 . S
H2417 C2405 0.929 . S
H2418 C2406 0.960 . S
H2419 C2406 0.962 . S
H2420 C2406 0.960 . S
H2421 C2407 0.961 . S
H2422 C2407 0.961 . S
H2423 C2407 0.961 . S
H2424 C2408 0.931 . S
H2425 C2413 0.930 . S
H2426 C2414 0.956 . S
H2427 C2414 0.961 . S
H2428 C2414 0.961 . S
H2429 C2415 0.958 . S
H2430 C2415 0.961 . S
H2431 C2415 0.960 . S
C2432 C2433 1.391 . S
C2432 C2434 1.394 . S
C2432 H2448 0.931 . S
C2433 C2432 1.391 . S
C2433 C2437 1.376 . S
C2434 C2432 1.394 . S
C2434 C2435 1.369 . S
C2434 C2438 1.531 . S
C2435 C2434 1.369 . S
C2435 C2436 1.410 . S
C2435 C2443 1.503 . S
C2436 C2435 1.410 . S
C2436 C2437 1.392 . S
C2436 C2439 1.511 . S
C2437 C2433 1.376 . S
C2437 C2436 1.392 . S
C2437 H2449 0.929 . S
C2438 C2434 1.531 . S
C2438 H2450 0.960 . S
C2438 H2451 0.962 . S
C2438 H2452 0.960 . S
C2439 C2436 1.511 . S
C2439 H2453 0.961 . S
C2439 H2454 0.961 . S
C2439 H2455 0.961 . S
C2440 C2441 1.370 . S
C2440 C2442 1.363 . S
C2440 H2456 0.931 . S
C2441 C2440 1.370 . S
C2441 C2445 1.408 . S
C2442 C2440 1.363 . S
C2442 C2443 1.370 . S
C2442 C2446 1.524 . S
C2443 C2435 1.503 . S
C2443 C2442 1.370 . S
C2443 C2444 1.403 . S
C2444 C2443 1.403 . S
C2444 C2445 1.404 . S
C2444 C2447 1.539 . S
C2445 C2441 1.408 . S
C2445 C2444 1.404 . S
C2445 H2457 0.930 . S
C2446 C2442 1.524 . S
C2446 H2458 0.956 . S
C2446 H2459 0.961 . S
C2446 H2460 0.961 . S
C2447 C2444 1.539 . S
C2447 H2461 0.958 . S
C2447 H2462 0.961 . S
C2447 H2463 0.960 . S
H2448 C2432 0.931 . S
H2449 C2437 0.929 . S
H2450 C2438 0.960 . S
H2451 C2438 0.962 . S
H2452 C2438 0.960 . S
H2453 C2439 0.961 . S
H2454 C2439 0.961 . S
H2455 C2439 0.961 . S
H2456 C2440 0.931 . S
H2457 C2445 0.930 . S
H2458 C2446 0.956 . S
H2459 C2446 0.961 . S
H2460 C2446 0.961 . S
H2461 C2447 0.958 . S
H2462 C2447 0.961 . S
H2463 C2447 0.960 . S
C2464 C2465 1.391 . S
C2464 C2466 1.394 . S
C2464 H2480 0.931 . S
C2465 C2464 1.391 . S
C2465 C2469 1.376 . S
C2466 C2464 1.394 . S
C2466 C2467 1.369 . S
C2466 C2470 1.531 . S
C2467 C2466 1.369 . S
C2467 C2468 1.410 . S
C2467 C2475 1.503 . S
C2468 C2467 1.410 . S
C2468 C2469 1.392 . S
C2468 C2471 1.511 . S
C2469 C2465 1.376 . S
C2469 C2468 1.392 . S
C2469 H2481 0.929 . S
C2470 C2466 1.531 . S
C2470 H2482 0.960 . S
C2470 H2483 0.962 . S
C2470 H2484 0.960 . S
C2471 C2468 1.511 . S
C2471 H2485 0.961 . S
C2471 H2486 0.961 . S
C2471 H2487 0.961 . S
C2472 C2473 1.370 . S
C2472 C2474 1.363 . S
C2472 H2488 0.931 . S
C2473 C2472 1.370 . S
C2473 C2477 1.408 . S
C2474 C2472 1.363 . S
C2474 C2475 1.370 . S
C2474 C2478 1.524 . S
C2475 C2467 1.503 . S
C2475 C2474 1.370 . S
C2475 C2476 1.403 . S
C2476 C2475 1.403 . S
C2476 C2477 1.404 . S
C2476 C2479 1.539 . S
C2477 C2473 1.408 . S
C2477 C2476 1.404 . S
C2477 H2489 0.930 . S
C2478 C2474 1.524 . S
C2478 H2490 0.956 . S
C2478 H2491 0.961 . S
C2478 H2492 0.961 . S
C2479 C2476 1.539 . S
C2479 H2493 0.958 . S
C2479 H2494 0.961 . S
C2479 H2495 0.960 . S
H2480 C2464 0.931 . S
H2481 C2469 0.929 . S
H2482 C2470 0.960 . S
H2483 C2470 0.962 . S
H2484 C2470 0.960 . S
H2485 C2471 0.961 . S
H2486 C2471 0.961 . S
H2487 C2471 0.961 . S
H2488 C2472 0.931 . S
H2489 C2477 0.930 . S
H2490 C2478 0.956 . S
H2491 C2478 0.961 . S
H2492 C2478 0.961 . S
H2493 C2479 0.958 . S
H2494 C2479 0.961 . S
H2495 C2479 0.960 . S
C2496 C2497 1.391 . S
C2496 C2498 1.394 . S
C2496 H2512 0.931 . S
C2497 C2496 1.391 . S
C2497 C2501 1.376 . S
C2498 C2496 1.394 . S
C2498 C2499 1.369 . S
C2498 C2502 1.531 . S
C2499 C2498 1.369 . S
C2499 C2500 1.410 . S
C2499 C2507 1.503 . S
C2500 C2499 1.410 . S
C2500 C2501 1.392 . S
C2500 C2503 1.511 . S
C2501 C2497 1.376 . S
C2501 C2500 1.392 . S
C2501 H2513 0.929 . S
C2502 C2498 1.531 . S
C2502 H2514 0.960 . S
C2502 H2515 0.962 . S
C2502 H2516 0.960 . S
C2503 C2500 1.511 . S
C2503 H2517 0.961 . S
C2503 H2518 0.961 . S
C2503 H2519 0.961 . S
C2504 C2505 1.370 . S
C2504 C2506 1.363 . S
C2504 H2520 0.931 . S
C2505 C2504 1.370 . S
C2505 C2509 1.408 . S
C2506 C2504 1.363 . S
C2506 C2507 1.370 . S
C2506 C2510 1.524 . S
C2507 C2499 1.503 . S
C2507 C2506 1.370 . S
C2507 C2508 1.403 . S
C2508 C2507 1.403 . S
C2508 C2509 1.404 . S
C2508 C2511 1.539 . S
C2509 C2505 1.408 . S
C2509 C2508 1.404 . S
C2509 H2521 0.930 . S
C2510 C2506 1.524 . S
C2510 H2522 0.956 . S
C2510 H2523 0.961 . S
C2510 H2524 0.961 . S
C2511 C2508 1.539 . S
C2511 H2525 0.958 . S
C2511 H2526 0.961 . S
C2511 H2527 0.960 . S
H2512 C2496 0.931 . S
H2513 C2501 0.929 . S
H2514 C2502 0.960 . S
H2515 C2502 0.962 . S
H2516 C2502 0.960 . S
H2517 C2503 0.961 . S
H2518 C2503 0.961 . S
H2519 C2503 0.961 . S
H2520 C2504 0.931 . S
H2521 C2509 0.930 . S
H2522 C2510 0.956 . S
H2523 C2510 0.961 . S
H2524 C2510 0.961 . S
H2525 C2511 0.958 . S
H2526 C2511 0.961 . S
H2527 C2511 0.960 . S
C2528 C2529 1.391 . S
C2528 C2530 1.394 . S
C2528 H2544 0.931 . S
C2529 C2528 1.391 . S
C2529 C2533 1.376 . S
C2530 C2528 1.394 . S
C2530 C2531 1.369 . S
C2530 C2534 1.531 . S
C2531 C2530 1.369 . S
C2531 C2532 1.410 . S
C2531 C2539 1.503 . S
C2532 C2531 1.410 . S
C2532 C2533 1.392 . S
C2532 C2535 1.511 . S
C2533 C2529 1.376 . S
C2533 C2532 1.392 . S
C2533 H2545 0.929 . S
C2534 C2530 1.531 . S
C2534 H2546 0.960 . S
C2534 H2547 0.962 . S
C2534 H2548 0.960 . S
C2535 C2532 1.511 . S
C2535 H2549 0.961 . S
C2535 H2550 0.961 . S
C2535 H2551 0.961 . S
C2536 C2537 1.380 . S
C2536 C2538 1.363 . S
C2536 H2552 0.931 . S
C2537 C2536 1.380 . S
C2537 C2541 1.416 . S
C2538 C2536 1.363 . S
C2538 C2539 1.370 . S
C2538 C2542 1.524 . S
C2539 C2531 1.503 . S
C2539 C2538 1.370 . S
C2539 C2540 1.403 . S
C2540 C2539 1.403 . S
C2540 C2541 1.404 . S
C2540 C2543 1.539 . S
C2541 C2537 1.416 . S
C2541 C2540 1.404 . S
C2541 H2553 0.930 . S
C2542 C2538 1.524 . S
C2542 H2554 0.956 . S
C2542 H2555 0.961 . S
C2542 H2556 0.961 . S
C2543 C2540 1.539 . S
C2543 H2557 0.958 . S
C2543 H2558 0.961 . S
C2543 H2559 0.960 . S
H2544 C2528 0.931 . S
H2545 C2533 0.929 . S
H2546 C2534 0.960 . S
H2547 C2534 0.962 . S
H2548 C2534 0.960 . S
H2549 C2535 0.961 . S
H2550 C2535 0.961 . S
H2551 C2535 0.961 . S
H2552 C2536 0.931 . S
H2553 C2541 0.930 . S
H2554 C2542 0.956 . S
H2555 C2542 0.961 . S
H2556 C2542 0.961 . S
H2557 C2543 0.958 . S
H2558 C2543 0.961 . S
H2559 C2543 0.960 . S
C2560 C2561 1.391 . S
C2560 C2562 1.394 . S
C2560 H2576 0.931 . S
C2561 C2560 1.391 . S
C2561 C2565 1.376 . S
C2562 C2560 1.394 . S
C2562 C2563 1.369 . S
C2562 C2566 1.531 . S
C2563 C2562 1.369 . S
C2563 C2564 1.410 . S
C2563 C2571 1.503 . S
C2564 C2563 1.410 . S
C2564 C2565 1.392 . S
C2564 C2567 1.511 . S
C2565 C2561 1.376 . S
C2565 C2564 1.392 . S
C2565 H2577 0.929 . S
C2566 C2562 1.531 . S
C2566 H2578 0.960 . S
C2566 H2579 0.962 . S
C2566 H2580 0.960 . S
C2567 C2564 1.511 . S
C2567 H2581 0.961 . S
C2567 H2582 0.961 . S
C2567 H2583 0.961 . S
C2568 C2569 1.370 . S
C2568 C2570 1.363 . S
C2568 H2584 0.931 . S
C2569 C2568 1.370 . S
C2569 C2573 1.408 . S
C2570 C2568 1.363 . S
C2570 C2571 1.370 . S
C2570 C2574 1.524 . S
C2571 C2563 1.503 . S
C2571 C2570 1.370 . S
C2571 C2572 1.403 . S
C2572 C2571 1.403 . S
C2572 C2573 1.404 . S
C2572 C2575 1.539 . S
C2573 C2569 1.408 . S
C2573 C2572 1.404 . S
C2573 H2585 0.930 . S
C2574 C2570 1.524 . S
C2574 H2586 0.956 . S
C2574 H2587 0.961 . S
C2574 H2588 0.961 . S
C2575 C2572 1.539 . S
C2575 H2589 0.958 . S
C2575 H2590 0.961 . S
C2575 H2591 0.960 . S
H2576 C2560 0.931 . S
H2577 C2565 0.929 . S
H2578 C2566 0.960 . S
H2579 C2566 0.962 . S
H2580 C2566 0.960 . S
H2581 C2567 0.961 . S
H2582 C2567 0.961 . S
H2583 C2567 0.961 . S
H2584 C2568 0.931 . S
H2585 C2573 0.930 . S
H2586 C2574 0.956 . S
H2587 C2574 0.961 . S
H2588 C2574 0.961 . S
H2589 C2575 0.958 . S
H2590 C2575 0.961 . S
H2591 C2575 0.960 . S
C2592 C2593 1.390 1_455 S
C2592 C2594 1.397 1_455 S
C2592 H2608 0.927 . S
C2593 C2592 1.390 1_655 S
C2593 C2597 1.407 . S
C2594 C2592 1.397 1_655 S
C2594 C2595 1.369 . S
C2594 C2598 1.531 . S
C2595 C2594 1.369 . S
C2595 C2596 1.410 . S
C2595 C2603 1.503 . S
C2596 C2595 1.410 . S
C2596 C2597 1.392 . S
C2596 C2599 1.511 . S
C2597 C2593 1.407 . S
C2597 C2596 1.392 . S
C2597 H2609 0.929 . S
C2598 C2594 1.531 . S
C2598 H2610 0.960 . S
C2598 H2611 0.962 . S
C2598 H2612 0.960 . S
C2599 C2596 1.511 . S
C2599 H2613 0.961 . S
C2599 H2614 0.961 . S
C2599 H2615 0.961 . S
C2600 C2601 1.370 . S
C2600 C2602 1.363 . S
C2600 H2616 0.931 . S
C2601 C2600 1.370 . S
C2601 C2605 1.408 . S
C2602 C2600 1.363 . S
C2602 C2603 1.370 . S
C2602 C2606 1.524 . S
C2603 C2595 1.503 . S
C2603 C2602 1.370 . S
C2603 C2604 1.403 . S
C2604 C2603 1.403 . S
C2604 C2605 1.404 . S
C2604 C2607 1.539 . S
C2605 C2601 1.408 . S
C2605 C2604 1.404 . S
C2605 H2617 0.930 . S
C2606 C2602 1.524 . S
C2606 H2618 0.956 . S
C2606 H2619 0.961 . S
C2606 H2620 0.961 . S
C2607 C2604 1.539 . S
C2607 H2621 0.958 . S
C2607 H2622 0.961 . S
C2607 H2623 0.960 . S
H2608 C2592 0.927 . S
H2609 C2597 0.929 . S
H2610 C2598 0.960 . S
H2611 C2598 0.962 . S
H2612 C2598 0.960 . S
H2613 C2599 0.961 . S
H2614 C2599 0.961 . S
H2615 C2599 0.961 . S
H2616 C2600 0.931 . S
H2617 C2605 0.930 . S
H2618 C2606 0.956 . S
H2619 C2606 0.961 . S
H2620 C2606 0.961 . S
H2621 C2607 0.958 . S
H2622 C2607 0.961 . S
H2623 C2607 0.960 . S
C2624 C2625 1.391 . S
C2624 C2626 1.394 . S
C2624 H2640 0.931 . S
C2625 C2624 1.391 . S
C2625 C2629 1.376 . S
C2626 C2624 1.394 . S
C2626 C2627 1.369 . S
C2626 C2630 1.531 . S
C2627 C2626 1.369 . S
C2627 C2628 1.410 . S
C2627 C2635 1.503 . S
C2628 C2627 1.410 . S
C2628 C2629 1.392 . S
C2628 C2631 1.511 . S
C2629 C2625 1.376 . S
C2629 C2628 1.392 . S
C2629 H2641 0.929 . S
C2630 C2626 1.531 . S
C2630 H2642 0.960 . S
C2630 H2643 0.962 . S
C2630 H2644 0.960 . S
C2631 C2628 1.511 . S
C2631 H2645 0.961 . S
C2631 H2646 0.961 . S
C2631 H2647 0.961 . S
C2632 C2633 1.370 . S
C2632 C2634 1.363 . S
C2632 H2648 0.931 . S
C2633 C2632 1.370 . S
C2633 C2637 1.408 . S
C2634 C2632 1.363 . S
C2634 C2635 1.370 . S
C2634 C2638 1.524 . S
C2635 C2627 1.503 . S
C2635 C2634 1.370 . S
C2635 C2636 1.403 . S
C2636 C2635 1.403 . S
C2636 C2637 1.404 . S
C2636 C2639 1.539 . S
C2637 C2633 1.408 . S
C2637 C2636 1.404 . S
C2637 H2649 0.930 . S
C2638 C2634 1.524 . S
C2638 H2650 0.956 . S
C2638 H2651 0.961 . S
C2638 H2652 0.961 . S
C2639 C2636 1.539 . S
C2639 H2653 0.958 . S
C2639 H2654 0.961 . S
C2639 H2655 0.960 . S
H2640 C2624 0.931 . S
H2641 C2629 0.929 . S
H2642 C2630 0.960 . S
H2643 C2630 0.962 . S
H2644 C2630 0.960 . S
H2645 C2631 0.961 . S
H2646 C2631 0.961 . S
H2647 C2631 0.961 . S
H2648 C2632 0.931 . S
H2649 C2637 0.930 . S
H2650 C2638 0.956 . S
H2651 C2638 0.961 . S
H2652 C2638 0.961 . S
H2653 C2639 0.958 . S
H2654 C2639 0.961 . S
H2655 C2639 0.960 . S
C2656 C2657 1.391 . S
C2656 C2658 1.394 . S
C2656 H2672 0.931 . S
C2657 C2656 1.391 . S
C2657 C2661 1.376 . S
C2658 C2656 1.394 . S
C2658 C2659 1.369 . S
C2658 C2662 1.531 . S
C2659 C2658 1.369 . S
C2659 C2660 1.410 . S
C2659 C2667 1.503 . S
C2660 C2659 1.410 . S
C2660 C2661 1.392 . S
C2660 C2663 1.511 . S
C2661 C2657 1.376 . S
C2661 C2660 1.392 . S
C2661 H2673 0.929 . S
C2662 C2658 1.531 . S
C2662 H2674 0.960 . S
C2662 H2675 0.962 . S
C2662 H2676 0.960 . S
C2663 C2660 1.511 . S
C2663 H2677 0.961 . S
C2663 H2678 0.961 . S
C2663 H2679 0.961 . S
C2664 C2665 1.370 . S
C2664 C2666 1.363 . S
C2664 H2680 0.931 . S
C2665 C2664 1.370 . S
C2665 C2669 1.408 . S
C2666 C2664 1.363 . S
C2666 C2667 1.370 . S
C2666 C2670 1.524 . S
C2667 C2659 1.503 . S
C2667 C2666 1.370 . S
C2667 C2668 1.403 . S
C2668 C2667 1.403 . S
C2668 C2669 1.404 . S
C2668 C2671 1.539 . S
C2669 C2665 1.408 . S
C2669 C2668 1.404 . S
C2669 H2681 0.930 . S
C2670 C2666 1.524 . S
C2670 H2682 0.956 . S
C2670 H2683 0.961 . S
C2670 H2684 0.961 . S
C2671 C2668 1.539 . S
C2671 H2685 0.958 . S
C2671 H2686 0.961 . S
C2671 H2687 0.960 . S
H2672 C2656 0.931 . S
H2673 C2661 0.929 . S
H2674 C2662 0.960 . S
H2675 C2662 0.962 . S
H2676 C2662 0.960 . S
H2677 C2663 0.961 . S
H2678 C2663 0.961 . S
H2679 C2663 0.961 . S
H2680 C2664 0.931 . S
H2681 C2669 0.930 . S
H2682 C2670 0.956 . S
H2683 C2670 0.961 . S
H2684 C2670 0.961 . S
H2685 C2671 0.958 . S
H2686 C2671 0.961 . S
H2687 C2671 0.960 . S
C2688 C2689 1.391 . S
C2688 C2690 1.394 . S
C2688 H2704 0.931 . S
C2689 C2688 1.391 . S
C2689 C2693 1.376 . S
C2690 C2688 1.394 . S
C2690 C2691 1.369 . S
C2690 C2694 1.531 . S
C2691 C2690 1.369 . S
C2691 C2692 1.410 . S
C2691 C2699 1.503 . S
C2692 C2691 1.410 . S
C2692 C2693 1.392 . S
C2692 C2695 1.511 . S
C2693 C2689 1.376 . S
C2693 C2692 1.392 . S
C2693 H2705 0.929 . S
C2694 C2690 1.531 . S
C2694 H2706 0.960 . S
C2694 H2707 0.962 . S
C2694 H2708 0.960 . S
C2695 C2692 1.511 . S
C2695 H2709 0.961 . S
C2695 H2710 0.961 . S
C2695 H2711 0.961 . S
C2696 C2697 1.370 . S
C2696 C2698 1.363 . S
C2696 H2712 0.931 . S
C2697 C2696 1.370 . S
C2697 C2701 1.408 . S
C2698 C2696 1.363 . S
C2698 C2699 1.370 . S
C2698 C2702 1.524 . S
C2699 C2691 1.503 . S
C2699 C2698 1.370 . S
C2699 C2700 1.403 . S
C2700 C2699 1.403 . S
C2700 C2701 1.404 . S
C2700 C2703 1.539 . S
C2701 C2697 1.408 . S
C2701 C2700 1.404 . S
C2701 H2713 0.930 . S
C2702 C2698 1.524 . S
C2702 H2714 0.956 . S
C2702 H2715 0.961 . S
C2702 H2716 0.961 . S
C2703 C2700 1.539 . S
C2703 H2717 0.958 . S
C2703 H2718 0.961 . S
C2703 H2719 0.960 . S
H2704 C2688 0.931 . S
H2705 C2693 0.929 . S
H2706 C2694 0.960 . S
H2707 C2694 0.962 . S
H2708 C2694 0.960 . S
H2709 C2695 0.961 . S
H2710 C2695 0.961 . S
H2711 C2695 0.961 . S
H2712 C2696 0.931 . S
H2713 C2701 0.930 . S
H2714 C2702 0.956 . S
H2715 C2702 0.961 . S
H2716 C2702 0.961 . S
H2717 C2703 0.958 . S
H2718 C2703 0.961 . S
H2719 C2703 0.960 . S
C2720 C2721 1.391 . S
C2720 C2722 1.394 . S
C2720 H2736 0.931 . S
C2721 C2720 1.391 . S
C2721 C2725 1.376 . S
C2722 C2720 1.394 . S
C2722 C2723 1.369 . S
C2722 C2726 1.531 . S
C2723 C2722 1.369 . S
C2723 C2724 1.410 . S
C2723 C2731 1.503 . S
C2724 C2723 1.410 . S
C2724 C2725 1.392 . S
C2724 C2727 1.511 . S
C2725 C2721 1.376 . S
C2725 C2724 1.392 . S
C2725 H2737 0.929 . S
C2726 C2722 1.531 . S
C2726 H2738 0.960 . S
C2726 H2739 0.962 . S
C2726 H2740 0.960 . S
C2727 C2724 1.511 . S
C2727 H2741 0.961 . S
C2727 H2742 0.961 . S
C2727 H2743 0.961 . S
C2728 C2729 1.370 . S
C2728 C2730 1.363 . S
C2728 H2744 0.931 . S
C2729 C2728 1.370 . S
C2729 C2733 1.408 . S
C2730 C2728 1.363 . S
C2730 C2731 1.370 . S
C2730 C2734 1.524 . S
C2731 C2723 1.503 . S
C2731 C2730 1.370 . S
C2731 C2732 1.403 . S
C2732 C2731 1.403 . S
C2732 C2733 1.404 . S
C2732 C2735 1.539 . S
C2733 C2729 1.408 . S
C2733 C2732 1.404 . S
C2733 H2745 0.930 . S
C2734 C2730 1.524 . S
C2734 H2746 0.956 . S
C2734 H2747 0.961 . S
C2734 H2748 0.961 . S
C2735 C2732 1.539 . S
C2735 H2749 0.958 . S
C2735 H2750 0.961 . S
C2735 H2751 0.960 . S
H2736 C2720 0.931 . S
H2737 C2725 0.929 . S
H2738 C2726 0.960 . S
H2739 C2726 0.962 . S
H2740 C2726 0.960 . S
H2741 C2727 0.961 . S
H2742 C2727 0.961 . S
H2743 C2727 0.961 . S
H2744 C2728 0.931 . S
H2745 C2733 0.930 . S
H2746 C2734 0.956 . S
H2747 C2734 0.961 . S
H2748 C2734 0.961 . S
H2749 C2735 0.958 . S
H2750 C2735 0.961 . S
H2751 C2735 0.960 . S
C2752 C2753 1.391 . S
C2752 C2754 1.394 . S
C2752 H2768 0.931 . S
C2753 C2752 1.391 . S
C2753 C2757 1.376 . S
C2754 C2752 1.394 . S
C2754 C2755 1.369 . S
C2754 C2758 1.531 . S
C2755 C2754 1.369 . S
C2755 C2756 1.410 . S
C2755 C2763 1.503 . S
C2756 C2755 1.410 . S
C2756 C2757 1.392 . S
C2756 C2759 1.511 . S
C2757 C2753 1.376 . S
C2757 C2756 1.392 . S
C2757 H2769 0.929 . S
C2758 C2754 1.531 . S
C2758 H2770 0.960 . S
C2758 H2771 0.962 . S
C2758 H2772 0.960 . S
C2759 C2756 1.511 . S
C2759 H2773 0.961 . S
C2759 H2774 0.961 . S
C2759 H2775 0.961 . S
C2760 C2761 1.370 . S
C2760 C2762 1.363 . S
C2760 H2776 0.931 . S
C2761 C2760 1.370 . S
C2761 C2765 1.408 . S
C2762 C2760 1.363 . S
C2762 C2763 1.370 . S
C2762 C2766 1.524 . S
C2763 C2755 1.503 . S
C2763 C2762 1.370 . S
C2763 C2764 1.403 . S
C2764 C2763 1.403 . S
C2764 C2765 1.404 . S
C2764 C2767 1.539 . S
C2765 C2761 1.408 . S
C2765 C2764 1.404 . S
C2765 H2777 0.930 . S
C2766 C2762 1.524 . S
C2766 H2778 0.956 . S
C2766 H2779 0.961 . S
C2766 H2780 0.961 . S
C2767 C2764 1.539 . S
C2767 H2781 0.958 . S
C2767 H2782 0.961 . S
C2767 H2783 0.960 . S
H2768 C2752 0.931 . S
H2769 C2757 0.929 . S
H2770 C2758 0.960 . S
H2771 C2758 0.962 . S
H2772 C2758 0.960 . S
H2773 C2759 0.961 . S
H2774 C2759 0.961 . S
H2775 C2759 0.961 . S
H2776 C2760 0.931 . S
H2777 C2765 0.930 . S
H2778 C2766 0.956 . S
H2779 C2766 0.961 . S
H2780 C2766 0.961 . S
H2781 C2767 0.958 . S
H2782 C2767 0.961 . S
H2783 C2767 0.960 . S
C2784 C2785 1.391 . S
C2784 C2786 1.394 . S
C2784 H2800 0.931 . S
C2785 C2784 1.391 . S
C2785 C2789 1.376 . S
C2786 C2784 1.394 . S
C2786 C2787 1.369 . S
C2786 C2790 1.531 . S
C2787 C2786 1.369 . S
C2787 C2788 1.410 . S
C2787 C2795 1.503 . S
C2788 C2787 1.410 . S
C2788 C2789 1.392 . S
C2788 C2791 1.511 . S
C2789 C2785 1.376 . S
C2789 C2788 1.392 . S
C2789 H2801 0.929 . S
C2790 C2786 1.531 . S
C2790 H2802 0.960 . S
C2790 H2803 0.962 . S
C2790 H2804 0.960 . S
C2791 C2788 1.511 . S
C2791 H2805 0.961 . S
C2791 H2806 0.961 . S
C2791 H2807 0.961 . S
C2792 C2793 1.377 . S
C2792 C2794 1.363 . S
C2792 H2808 0.931 1_655 S
C2793 C2792 1.377 . S
C2793 C2797 1.433 . S
C2794 C2792 1.363 . S
C2794 C2795 1.370 . S
C2794 C2798 1.524 . S
C2795 C2787 1.503 . S
C2795 C2794 1.370 . S
C2795 C2796 1.403 . S
C2796 C2795 1.403 . S
C2796 C2797 1.404 . S
C2796 C2799 1.539 . S
C2797 C2793 1.433 . S
C2797 C2796 1.404 . S
C2797 H2809 0.930 . S
C2798 C2794 1.524 . S
C2798 H2810 0.956 . S
C2798 H2811 0.961 . S
C2798 H2812 0.961 . S
C2799 C2796 1.539 . S
C2799 H2813 0.958 . S
C2799 H2814 0.961 . S
C2799 H2815 0.960 . S
H2800 C2784 0.931 . S
H2801 C2789 0.929 . S
H2802 C2790 0.960 . S
H2803 C2790 0.962 . S
H2804 C2790 0.960 . S
H2805 C2791 0.961 . S
H2806 C2791 0.961 . S
H2807 C2791 0.961 . S
H2808 C2792 0.931 1_455 S
H2809 C2797 0.930 . S
H2810 C2798 0.956 . S
H2811 C2798 0.961 . S
H2812 C2798 0.961 . S
H2813 C2799 0.958 . S
H2814 C2799 0.961 . S
H2815 C2799 0.960 . S
C2816 C2817 1.391 . S
C2816 C2818 1.394 . S
C2816 H2832 0.931 . S
C2817 C2816 1.391 . S
C2817 C2821 1.376 . S
C2818 C2816 1.394 . S
C2818 C2819 1.369 . S
C2818 C2822 1.531 . S
C2819 C2818 1.369 . S
C2819 C2820 1.410 . S
C2819 C2827 1.503 . S
C2820 C2819 1.410 . S
C2820 C2821 1.392 . S
C2820 C2823 1.511 . S
C2821 C2817 1.376 . S
C2821 C2820 1.392 . S
C2821 H2833 0.929 . S
C2822 C2818 1.531 . S
C2822 H2834 0.960 . S
C2822 H2835 0.962 . S
C2822 H2836 0.960 . S
C2823 C2820 1.511 . S
C2823 H2837 0.961 . S
C2823 H2838 0.961 . S
C2823 H2839 0.961 . S
C2824 C2825 1.370 . S
C2824 C2826 1.363 . S
C2824 H2840 0.931 . S
C2825 C2824 1.370 . S
C2825 C2829 1.408 . S
C2826 C2824 1.363 . S
C2826 C2827 1.370 . S
C2826 C2830 1.524 . S
C2827 C2819 1.503 . S
C2827 C2826 1.370 . S
C2827 C2828 1.403 . S
C2828 C2827 1.403 . S
C2828 C2829 1.404 . S
C2828 C2831 1.539 . S
C2829 C2825 1.408 . S
C2829 C2828 1.404 . S
C2829 H2841 0.930 . S
C2830 C2826 1.524 . S
C2830 H2842 0.956 . S
C2830 H2843 0.961 . S
C2830 H2844 0.961 . S
C2831 C2828 1.539 . S
C2831 H2845 0.958 . S
C2831 H2846 0.961 . S
C2831 H2847 0.960 . S
H2832 C2816 0.931 . S
H2833 C2821 0.929 . S
H2834 C2822 0.960 . S
H2835 C2822 0.962 . S
H2836 C2822 0.960 . S
H2837 C2823 0.961 . S
H2838 C2823 0.961 . S
H2839 C2823 0.961 . S
H2840 C2824 0.931 . S
H2841 C2829 0.930 . S
H2842 C2830 0.956 . S
H2843 C2830 0.961 . S
H2844 C2830 0.961 . S
H2845 C2831 0.958 . S
H2846 C2831 0.961 . S
H2847 C2831 0.960 . S
C2848 C2849 1.391 . S
C2848 C2850 1.394 . S
C2848 H2864 0.931 . S
C2849 C2848 1.391 . S
C2849 C2853 1.376 . S
C2850 C2848 1.394 . S
C2850 C2851 1.369 . S
C2850 C2854 1.531 . S
C2851 C2850 1.369 . S
C2851 C2852 1.410 . S
C2851 C2859 1.503 . S
C2852 C2851 1.410 . S
C2852 C2853 1.392 . S
C2852 C2855 1.511 . S
C2853 C2849 1.376 . S
C2853 C2852 1.392 . S
C2853 H2865 0.929 . S
C2854 C2850 1.531 . S
C2854 H2866 0.960 . S
C2854 H2867 0.962 . S
C2854 H2868 0.960 . S
C2855 C2852 1.511 . S
C2855 H2869 0.961 . S
C2855 H2870 0.961 . S
C2855 H2871 0.961 . S
C2856 C2857 1.370 . S
C2856 C2858 1.363 . S
C2856 H2872 0.931 . S
C2857 C2856 1.370 . S
C2857 C2861 1.408 . S
C2858 C2856 1.363 . S
C2858 C2859 1.370 . S
C2858 C2862 1.524 . S
C2859 C2851 1.503 . S
C2859 C2858 1.370 . S
C2859 C2860 1.403 . S
C2860 C2859 1.403 . S
C2860 C2861 1.404 . S
C2860 C2863 1.539 . S
C2861 C2857 1.408 . S
C2861 C2860 1.404 . S
C2861 H2873 0.930 . S
C2862 C2858 1.524 . S
C2862 H2874 0.956 . S
C2862 H2875 0.961 . S
C2862 H2876 0.961 . S
C2863 C2860 1.539 . S
C2863 H2877 0.958 . S
C2863 H2878 0.961 . S
C2863 H2879 0.960 . S
H2864 C2848 0.931 . S
H2865 C2853 0.929 . S
H2866 C2854 0.960 . S
H2867 C2854 0.962 . S
H2868 C2854 0.960 . S
H2869 C2855 0.961 . S
H2870 C2855 0.961 . S
H2871 C2855 0.961 . S
H2872 C2856 0.931 . S
H2873 C2861 0.930 . S
H2874 C2862 0.956 . S
H2875 C2862 0.961 . S
H2876 C2862 0.961 . S
H2877 C2863 0.958 . S
H2878 C2863 0.961 . S
H2879 C2863 0.960 . S
C2880 C2881 1.391 . S
C2880 C2882 1.394 . S
C2880 H2896 0.931 . S
C2881 C2880 1.391 . S
C2881 C2885 1.376 . S
C2882 C2880 1.394 . S
C2882 C2883 1.369 . S
C2882 C2886 1.531 . S
C2883 C2882 1.369 . S
C2883 C2884 1.410 . S
C2883 C2891 1.503 . S
C2884 C2883 1.410 . S
C2884 C2885 1.392 . S
C2884 C2887 1.511 . S
C2885 C2881 1.376 . S
C2885 C2884 1.392 . S
C2885 H2897 0.929 . S
C2886 C2882 1.531 . S
C2886 H2898 0.960 . S
C2886 H2899 0.962 . S
C2886 H2900 0.960 . S
C2887 C2884 1.511 . S
C2887 H2901 0.961 . S
C2887 H2902 0.961 . S
C2887 H2903 0.961 . S
C2888 C2889 1.370 . S
C2888 C2890 1.363 . S
C2888 H2904 0.931 . S
C2889 C2888 1.370 . S
C2889 C2893 1.408 . S
C2890 C2888 1.363 . S
C2890 C2891 1.370 . S
C2890 C2894 1.524 . S
C2891 C2883 1.503 . S
C2891 C2890 1.370 . S
C2891 C2892 1.403 . S
C2892 C2891 1.403 . S
C2892 C2893 1.404 . S
C2892 C2895 1.539 . S
C2893 C2889 1.408 . S
C2893 C2892 1.404 . S
C2893 H2905 0.930 . S
C2894 C2890 1.524 . S
C2894 H2906 0.956 . S
C2894 H2907 0.961 . S
C2894 H2908 0.961 . S
C2895 C2892 1.539 . S
C2895 H2909 0.958 . S
C2895 H2910 0.961 . S
C2895 H2911 0.960 . S
H2896 C2880 0.931 . S
H2897 C2885 0.929 . S
H2898 C2886 0.960 . S
H2899 C2886 0.962 . S
H2900 C2886 0.960 . S
H2901 C2887 0.961 . S
H2902 C2887 0.961 . S
H2903 C2887 0.961 . S
H2904 C2888 0.931 . S
H2905 C2893 0.930 . S
H2906 C2894 0.956 . S
H2907 C2894 0.961 . S
H2908 C2894 0.961 . S
H2909 C2895 0.958 . S
H2910 C2895 0.961 . S
H2911 C2895 0.960 . S
C2912 C2913 1.391 . S
C2912 C2914 1.394 . S
C2912 H2928 0.931 . S
C2913 C2912 1.391 . S
C2913 C2917 1.376 . S
C2914 C2912 1.394 . S
C2914 C2915 1.369 . S
C2914 C2918 1.531 . S
C2915 C2914 1.369 . S
C2915 C2916 1.410 . S
C2915 C2923 1.503 . S
C2916 C2915 1.410 . S
C2916 C2917 1.392 . S
C2916 C2919 1.511 . S
C2917 C2913 1.376 . S
C2917 C2916 1.392 . S
C2917 H2929 0.929 . S
C2918 C2914 1.531 . S
C2918 H2930 0.960 . S
C2918 H2931 0.962 . S
C2918 H2932 0.960 . S
C2919 C2916 1.511 . S
C2919 H2933 0.961 . S
C2919 H2934 0.961 . S
C2919 H2935 0.961 . S
C2920 C2921 1.378 . S
C2920 C2922 1.363 . S
C2920 H2936 0.931 1_655 S
C2921 C2920 1.378 . S
C2921 C2925 1.433 . S
C2922 C2920 1.363 . S
C2922 C2923 1.370 . S
C2922 C2926 1.524 . S
C2923 C2915 1.503 . S
C2923 C2922 1.370 . S
C2923 C2924 1.403 . S
C2924 C2923 1.403 . S
C2924 C2925 1.404 . S
C2924 C2927 1.539 . S
C2925 C2921 1.433 . S
C2925 C2924 1.404 . S
C2925 H2937 0.930 . S
C2926 C2922 1.524 . S
C2926 H2938 0.956 . S
C2926 H2939 0.961 . S
C2926 H2940 0.961 . S
C2927 C2924 1.539 . S
C2927 H2941 0.958 . S
C2927 H2942 0.961 . S
C2927 H2943 0.960 . S
H2928 C2912 0.931 . S
H2929 C2917 0.929 . S
H2930 C2918 0.960 . S
H2931 C2918 0.962 . S
H2932 C2918 0.960 . S
H2933 C2919 0.961 . S
H2934 C2919 0.961 . S
H2935 C2919 0.961 . S
H2936 C2920 0.931 1_455 S
H2937 C2925 0.930 . S
H2938 C2926 0.956 . S
H2939 C2926 0.961 . S
H2940 C2926 0.961 . S
H2941 C2927 0.958 . S
H2942 C2927 0.961 . S
H2943 C2927 0.960 . S
C2944 C2945 1.391 . S
C2944 C2946 1.394 . S
C2944 H2960 0.931 . S
C2945 C2944 1.391 . S
C2945 C2949 1.376 . S
C2946 C2944 1.394 . S
C2946 C2947 1.369 . S
C2946 C2950 1.531 . S
C2947 C2946 1.369 . S
C2947 C2948 1.410 . S
C2947 C2955 1.503 . S
C2948 C2947 1.410 . S
C2948 C2949 1.392 . S
C2948 C2951 1.511 . S
C2949 C2945 1.376 . S
C2949 C2948 1.392 . S
C2949 H2961 0.929 . S
C2950 C2946 1.531 . S
C2950 H2962 0.960 . S
C2950 H2963 0.962 . S
C2950 H2964 0.960 . S
C2951 C2948 1.511 . S
C2951 H2965 0.961 . S
C2951 H2966 0.961 . S
C2951 H2967 0.961 . S
C2952 C2953 1.370 . S
C2952 C2954 1.363 . S
C2952 H2968 0.931 . S
C2953 C2952 1.370 . S
C2953 C2957 1.408 . S
C2954 C2952 1.363 . S
C2954 C2955 1.370 . S
C2954 C2958 1.524 . S
C2955 C2947 1.503 . S
C2955 C2954 1.370 . S
C2955 C2956 1.403 . S
C2956 C2955 1.403 . S
C2956 C2957 1.404 . S
C2956 C2959 1.539 . S
C2957 C2953 1.408 . S
C2957 C2956 1.404 . S
C2957 H2969 0.930 . S
C2958 C2954 1.524 . S
C2958 H2970 0.956 . S
C2958 H2971 0.961 . S
C2958 H2972 0.961 . S
C2959 C2956 1.539 . S
C2959 H2973 0.958 . S
C2959 H2974 0.961 . S
C2959 H2975 0.960 . S
H2960 C2944 0.931 . S
H2961 C2949 0.929 . S
H2962 C2950 0.960 . S
H2963 C2950 0.962 . S
H2964 C2950 0.960 . S
H2965 C2951 0.961 . S
H2966 C2951 0.961 . S
H2967 C2951 0.961 . S
H2968 C2952 0.931 . S
H2969 C2957 0.930 . S
H2970 C2958 0.956 . S
H2971 C2958 0.961 . S
H2972 C2958 0.961 . S
H2973 C2959 0.958 . S
H2974 C2959 0.961 . S
H2975 C2959 0.960 . S
C2976 C2977 1.391 . S
C2976 C2978 1.394 . S
C2976 H2992 0.931 . S
C2977 C2976 1.391 . S
C2977 C2981 1.376 . S
C2978 C2976 1.394 . S
C2978 C2979 1.369 . S
C2978 C2982 1.531 . S
C2979 C2978 1.369 . S
C2979 C2980 1.410 . S
C2979 C2987 1.503 . S
C2980 C2979 1.410 . S
C2980 C2981 1.392 . S
C2980 C2983 1.511 . S
C2981 C2977 1.376 . S
C2981 C2980 1.392 . S
C2981 H2993 0.929 . S
C2982 C2978 1.531 . S
C2982 H2994 0.960 . S
C2982 H2995 0.962 . S
C2982 H2996 0.960 . S
C2983 C2980 1.511 . S
C2983 H2997 0.961 . S
C2983 H2998 0.961 . S
C2983 H2999 0.961 . S
C2984 C2985 1.379 . S
C2984 C2986 1.363 . S
C2984 H3000 0.931 . S
C2985 C2984 1.379 . S
C2985 C2989 1.412 . S
C2986 C2984 1.363 . S
C2986 C2987 1.370 . S
C2986 C2990 1.524 . S
C2987 C2979 1.503 . S
C2987 C2986 1.370 . S
C2987 C2988 1.403 . S
C2988 C2987 1.403 . S
C2988 C2989 1.404 . S
C2988 C2991 1.539 . S
C2989 C2985 1.412 . S
C2989 C2988 1.404 . S
C2989 H3001 0.930 1_655 S
C2990 C2986 1.524 . S
C2990 H3002 0.956 . S
C2990 H3003 0.961 . S
C2990 H3004 0.961 . S
C2991 C2988 1.539 . S
C2991 H3005 0.958 . S
C2991 H3006 0.961 . S
C2991 H3007 0.960 . S
H2992 C2976 0.931 . S
H2993 C2981 0.929 . S
H2994 C2982 0.960 . S
H2995 C2982 0.962 . S
H2996 C2982 0.960 . S
H2997 C2983 0.961 . S
H2998 C2983 0.961 . S
H2999 C2983 0.961 . S
H3000 C2984 0.931 . S
H3001 C2989 0.930 1_455 S
H3002 C2990 0.956 . S
H3003 C2990 0.961 . S
H3004 C2990 0.961 . S
H3005 C2991 0.958 . S
H3006 C2991 0.961 . S
H3007 C2991 0.960 . S
C3008 C3009 1.391 . S
C3008 C3010 1.394 . S
C3008 H3024 0.931 . S
C3009 C3008 1.391 . S
C3009 C3013 1.376 . S
C3010 C3008 1.394 . S
C3010 C3011 1.369 . S
C3010 C3014 1.531 . S
C3011 C3010 1.369 . S
C3011 C3012 1.410 . S
C3011 C3019 1.503 . S
C3012 C3011 1.410 . S
C3012 C3013 1.392 . S
C3012 C3015 1.511 . S
C3013 C3009 1.376 . S
C3013 C3012 1.392 . S
C3013 H3025 0.929 . S
C3014 C3010 1.531 . S
C3014 H3026 0.960 . S
C3014 H3027 0.962 . S
C3014 H3028 0.960 . S
C3015 C3012 1.511 . S
C3015 H3029 0.961 . S
C3015 H3030 0.961 . S
C3015 H3031 0.961 . S
C3016 C3017 1.370 . S
C3016 C3018 1.363 . S
C3016 H3032 0.931 . S
C3017 C3016 1.370 . S
C3017 C3021 1.408 . S
C3018 C3016 1.363 . S
C3018 C3019 1.370 . S
C3018 C3022 1.524 . S
C3019 C3011 1.503 . S
C3019 C3018 1.370 . S
C3019 C3020 1.403 . S
C3020 C3019 1.403 . S
C3020 C3021 1.404 . S
C3020 C3023 1.539 . S
C3021 C3017 1.408 . S
C3021 C3020 1.404 . S
C3021 H3033 0.930 . S
C3022 C3018 1.524 . S
C3022 H3034 0.956 . S
C3022 H3035 0.961 . S
C3022 H3036 0.961 . S
C3023 C3020 1.539 . S
C3023 H3037 0.958 . S
C3023 H3038 0.961 . S
C3023 H3039 0.960 . S
H3024 C3008 0.931 . S
H3025 C3013 0.929 . S
H3026 C3014 0.960 . S
H3027 C3014 0.962 . S
H3028 C3014 0.960 . S
H3029 C3015 0.961 . S
H3030 C3015 0.961 . S
H3031 C3015 0.961 . S
H3032 C3016 0.931 . S
H3033 C3021 0.930 . S
H3034 C3022 0.956 . S
H3035 C3022 0.961 . S
H3036 C3022 0.961 . S
H3037 C3023 0.958 . S
H3038 C3023 0.961 . S
H3039 C3023 0.960 . S
C3040 C3041 1.391 . S
C3040 C3042 1.394 . S
C3040 H3056 0.931 . S
C3041 C3040 1.391 . S
C3041 C3045 1.376 . S
C3042 C3040 1.394 . S
C3042 C3043 1.369 . S
C3042 C3046 1.531 . S
C3043 C3042 1.369 . S
C3043 C3044 1.410 . S
C3043 C3051 1.503 . S
C3044 C3043 1.410 . S
C3044 C3045 1.392 . S
C3044 C3047 1.511 . S
C3045 C3041 1.376 . S
C3045 C3044 1.392 . S
C3045 H3057 0.929 . S
C3046 C3042 1.531 . S
C3046 H3058 0.960 . S
C3046 H3059 0.962 . S
C3046 H3060 0.960 . S
C3047 C3044 1.511 . S
C3047 H3061 0.961 . S
C3047 H3062 0.961 . S
C3047 H3063 0.961 . S
C3048 C3049 1.370 . S
C3048 C3050 1.363 . S
C3048 H3064 0.931 . S
C3049 C3048 1.370 . S
C3049 C3053 1.408 . S
C3050 C3048 1.363 . S
C3050 C3051 1.370 . S
C3050 C3054 1.524 . S
C3051 C3043 1.503 . S
C3051 C3050 1.370 . S
C3051 C3052 1.403 . S
C3052 C3051 1.403 . S
C3052 C3053 1.404 . S
C3052 C3055 1.539 . S
C3053 C3049 1.408 . S
C3053 C3052 1.404 . S
C3053 H3065 0.930 . S
C3054 C3050 1.524 . S
C3054 H3066 0.956 . S
C3054 H3067 0.961 . S
C3054 H3068 0.961 . S
C3055 C3052 1.539 . S
C3055 H3069 0.958 . S
C3055 H3070 0.961 . S
C3055 H3071 0.960 . S
H3056 C3040 0.931 . S
H3057 C3045 0.929 . S
H3058 C3046 0.960 . S
H3059 C3046 0.962 . S
H3060 C3046 0.960 . S
H3061 C3047 0.961 . S
H3062 C3047 0.961 . S
H3063 C3047 0.961 . S
H3064 C3048 0.931 . S
H3065 C3053 0.930 . S
H3066 C3054 0.956 . S
H3067 C3054 0.961 . S
H3068 C3054 0.961 . S
H3069 C3055 0.958 . S
H3070 C3055 0.961 . S
H3071 C3055 0.960 . S
C3072 C3073 1.391 . S
C3072 C3074 1.394 . S
C3072 H3088 0.931 . S
C3073 C3072 1.391 . S
C3073 C3077 1.376 . S
C3074 C3072 1.394 . S
C3074 C3075 1.369 . S
C3074 C3078 1.531 . S
C3075 C3074 1.369 . S
C3075 C3076 1.410 . S
C3075 C3083 1.503 . S
C3076 C3075 1.410 . S
C3076 C3077 1.392 . S
C3076 C3079 1.511 . S
C3077 C3073 1.376 . S
C3077 C3076 1.392 . S
C3077 H3089 0.929 . S
C3078 C3074 1.531 . S
C3078 H3090 0.960 . S
C3078 H3091 0.962 . S
C3078 H3092 0.960 . S
C3079 C3076 1.511 . S
C3079 H3093 0.961 . S
C3079 H3094 0.961 . S
C3079 H3095 0.961 . S
C3080 C3081 1.370 . S
C3080 C3082 1.363 . S
C3080 H3096 0.931 . S
C3081 C3080 1.370 . S
C3081 C3085 1.408 . S
C3082 C3080 1.363 . S
C3082 C3083 1.370 . S
C3082 C3086 1.524 . S
C3083 C3075 1.503 . S
C3083 C3082 1.370 . S
C3083 C3084 1.403 . S
C3084 C3083 1.403 . S
C3084 C3085 1.404 . S
C3084 C3087 1.539 . S
C3085 C3081 1.408 . S
C3085 C3084 1.404 . S
C3085 H3097 0.930 . S
C3086 C3082 1.524 . S
C3086 H3098 0.956 . S
C3086 H3099 0.961 . S
C3086 H3100 0.961 . S
C3087 C3084 1.539 . S
C3087 H3101 0.958 . S
C3087 H3102 0.961 . S
C3087 H3103 0.960 . S
H3088 C3072 0.931 . S
H3089 C3077 0.929 . S
H3090 C3078 0.960 . S
H3091 C3078 0.962 . S
H3092 C3078 0.960 . S
H3093 C3079 0.961 . S
H3094 C3079 0.961 . S
H3095 C3079 0.961 . S
H3096 C3080 0.931 . S
H3097 C3085 0.930 . S
H3098 C3086 0.956 . S
H3099 C3086 0.961 . S
H3100 C3086 0.961 . S
H3101 C3087 0.958 . S
H3102 C3087 0.961 . S
H3103 C3087 0.960 . S
C3104 C3105 1.391 . S
C3104 C3106 1.394 . S
C3104 H3120 0.931 . S
C3105 C3104 1.391 . S
C3105 C3109 1.376 . S
C3106 C3104 1.394 . S
C3106 C3107 1.369 . S
C3106 C3110 1.531 . S
C3107 C3106 1.369 . S
C3107 C3108 1.410 . S
C3107 C3115 1.503 . S
C3108 C3107 1.410 . S
C3108 C3109 1.392 . S
C3108 C3111 1.511 . S
C3109 C3105 1.376 . S
C3109 C3108 1.392 . S
C3109 H3121 0.929 . S
C3110 C3106 1.531 . S
C3110 H3122 0.960 . S
C3110 H3123 0.962 . S
C3110 H3124 0.960 . S
C3111 C3108 1.511 . S
C3111 H3125 0.961 . S
C3111 H3126 0.961 . S
C3111 H3127 0.961 . S
C3112 C3113 1.370 . S
C3112 C3114 1.363 . S
C3112 H3128 0.931 . S
C3113 C3112 1.370 . S
C3113 C3117 1.408 . S
C3114 C3112 1.363 . S
C3114 C3115 1.370 . S
C3114 C3118 1.524 . S
C3115 C3107 1.503 . S
C3115 C3114 1.370 . S
C3115 C3116 1.403 . S
C3116 C3115 1.403 . S
C3116 C3117 1.404 . S
C3116 C3119 1.539 . S
C3117 C3113 1.408 . S
C3117 C3116 1.404 . S
C3117 H3129 0.930 . S
C3118 C3114 1.524 . S
C3118 H3130 0.956 . S
C3118 H3131 0.961 . S
C3118 H3132 0.961 . S
C3119 C3116 1.539 . S
C3119 H3133 0.958 . S
C3119 H3134 0.961 . S
C3119 H3135 0.960 . S
H3120 C3104 0.931 . S
H3121 C3109 0.929 . S
H3122 C3110 0.960 . S
H3123 C3110 0.962 . S
H3124 C3110 0.960 . S
H3125 C3111 0.961 . S
H3126 C3111 0.961 . S
H3127 C3111 0.961 . S
H3128 C3112 0.931 . S
H3129 C3117 0.930 . S
H3130 C3118 0.956 . S
H3131 C3118 0.961 . S
H3132 C3118 0.961 . S
H3133 C3119 0.958 . S
H3134 C3119 0.961 . S
H3135 C3119 0.960 . S
C3136 C3137 1.391 . S
C3136 C3138 1.394 . S
C3136 H3152 0.931 . S
C3137 C3136 1.391 . S
C3137 C3141 1.376 . S
C3138 C3136 1.394 . S
C3138 C3139 1.369 . S
C3138 C3142 1.531 . S
C3139 C3138 1.369 . S
C3139 C3140 1.410 . S
C3139 C3147 1.503 . S
C3140 C3139 1.410 . S
C3140 C3141 1.392 . S
C3140 C3143 1.511 . S
C3141 C3137 1.376 . S
C3141 C3140 1.392 . S
C3141 H3153 0.929 . S
C3142 C3138 1.531 . S
C3142 H3154 0.960 . S
C3142 H3155 0.962 . S
C3142 H3156 0.960 . S
C3143 C3140 1.511 . S
C3143 H3157 0.961 . S
C3143 H3158 0.961 . S
C3143 H3159 0.961 . S
C3144 C3145 1.370 . S
C3144 C3146 1.363 . S
C3144 H3160 0.931 . S
C3145 C3144 1.370 . S
C3145 C3149 1.408 . S
C3146 C3144 1.363 . S
C3146 C3147 1.370 . S
C3146 C3150 1.524 . S
C3147 C3139 1.503 . S
C3147 C3146 1.370 . S
C3147 C3148 1.403 . S
C3148 C3147 1.403 . S
C3148 C3149 1.404 . S
C3148 C3151 1.539 . S
C3149 C3145 1.408 . S
C3149 C3148 1.404 . S
C3149 H3161 0.930 . S
C3150 C3146 1.524 . S
C3150 H3162 0.956 . S
C3150 H3163 0.961 . S
C3150 H3164 0.961 . S
C3151 C3148 1.539 . S
C3151 H3165 0.958 . S
C3151 H3166 0.961 . S
C3151 H3167 0.960 . S
H3152 C3136 0.931 . S
H3153 C3141 0.929 . S
H3154 C3142 0.960 . S
H3155 C3142 0.962 . S
H3156 C3142 0.960 . S
H3157 C3143 0.961 . S
H3158 C3143 0.961 . S
H3159 C3143 0.961 . S
H3160 C3144 0.931 . S
H3161 C3149 0.930 . S
H3162 C3150 0.956 . S
H3163 C3150 0.961 . S
H3164 C3150 0.961 . S
H3165 C3151 0.958 . S
H3166 C3151 0.961 . S
H3167 C3151 0.960 . S
C3168 C3169 1.390 1_655 S
C3168 C3170 1.394 1_655 S
C3168 H3184 0.931 . S
C3169 C3168 1.390 1_455 S
C3169 C3173 1.388 . S
C3170 C3168 1.394 1_455 S
C3170 C3171 1.369 . S
C3170 C3174 1.531 . S
C3171 C3170 1.369 . S
C3171 C3172 1.410 . S
C3171 C3179 1.503 . S
C3172 C3171 1.410 . S
C3172 C3173 1.392 . S
C3172 C3175 1.511 . S
C3173 C3169 1.388 . S
C3173 C3172 1.392 . S
C3173 H3185 0.929 . S
C3174 C3170 1.531 . S
C3174 H3186 0.960 . S
C3174 H3187 0.962 . S
C3174 H3188 0.960 . S
C3175 C3172 1.511 . S
C3175 H3189 0.961 . S
C3175 H3190 0.961 . S
C3175 H3191 0.961 . S
C3176 C3177 1.370 . S
C3176 C3178 1.363 . S
C3176 H3192 0.931 . S
C3177 C3176 1.370 . S
C3177 C3181 1.408 . S
C3178 C3176 1.363 . S
C3178 C3179 1.370 . S
C3178 C3182 1.524 . S
C3179 C3171 1.503 . S
C3179 C3178 1.370 . S
C3179 C3180 1.403 . S
C3180 C3179 1.403 . S
C3180 C3181 1.404 . S
C3180 C3183 1.539 . S
C3181 C3177 1.408 . S
C3181 C3180 1.404 . S
C3181 H3193 0.930 . S
C3182 C3178 1.524 . S
C3182 H3194 0.956 . S
C3182 H3195 0.961 . S
C3182 H3196 0.961 . S
C3183 C3180 1.539 . S
C3183 H3197 0.958 . S
C3183 H3198 0.961 . S
C3183 H3199 0.960 . S
H3184 C3168 0.931 . S
H3185 C3173 0.929 . S
H3186 C3174 0.960 . S
H3187 C3174 0.962 . S
H3188 C3174 0.960 . S
H3189 C3175 0.961 . S
H3190 C3175 0.961 . S
H3191 C3175 0.961 . S
H3192 C3176 0.931 . S
H3193 C3181 0.930 . S
H3194 C3182 0.956 . S
H3195 C3182 0.961 . S
H3196 C3182 0.961 . S
H3197 C3183 0.958 . S
H3198 C3183 0.961 . S
H3199 C3183 0.960 . S
C3200 C3201 1.391 . S
C3200 C3202 1.394 . S
C3200 H3216 0.931 . S
C3201 C3200 1.391 . S
C3201 C3205 1.376 . S
C3202 C3200 1.394 . S
C3202 C3203 1.369 . S
C3202 C3206 1.531 . S
C3203 C3202 1.369 . S
C3203 C3204 1.410 . S
C3203 C3211 1.503 . S
C3204 C3203 1.410 . S
C3204 C3205 1.392 . S
C3204 C3207 1.511 . S
C3205 C3201 1.376 . S
C3205 C3204 1.392 . S
C3205 H3217 0.929 . S
C3206 C3202 1.531 . S
C3206 H3218 0.960 . S
C3206 H3219 0.962 . S
C3206 H3220 0.960 . S
C3207 C3204 1.511 . S
C3207 H3221 0.961 . S
C3207 H3222 0.961 . S
C3207 H3223 0.961 . S
C3208 C3209 1.370 . S
C3208 C3210 1.363 . S
C3208 H3224 0.931 . S
C3209 C3208 1.370 . S
C3209 C3213 1.408 . S
C3210 C3208 1.363 . S
C3210 C3211 1.370 . S
C3210 C3214 1.524 . S
C3211 C3203 1.503 . S
C3211 C3210 1.370 . S
C3211 C3212 1.403 . S
C3212 C3211 1.403 . S
C3212 C3213 1.404 . S
C3212 C3215 1.539 . S
C3213 C3209 1.408 . S
C3213 C3212 1.404 . S
C3213 H3225 0.930 . S
C3214 C3210 1.524 . S
C3214 H3226 0.956 . S
C3214 H3227 0.961 . S
C3214 H3228 0.961 . S
C3215 C3212 1.539 . S
C3215 H3229 0.958 . S
C3215 H3230 0.961 . S
C3215 H3231 0.960 . S
H3216 C3200 0.931 . S
H3217 C3205 0.929 . S
H3218 C3206 0.960 . S
H3219 C3206 0.962 . S
H3220 C3206 0.960 . S
H3221 C3207 0.961 . S
H3222 C3207 0.961 . S
H3223 C3207 0.961 . S
H3224 C3208 0.931 . S
H3225 C3213 0.930 . S
H3226 C3214 0.956 . S
H3227 C3214 0.961 . S
H3228 C3214 0.961 . S
H3229 C3215 0.958 . S
H3230 C3215 0.961 . S
H3231 C3215 0.960 . S
C3232 C3233 1.391 . S
C3232 C3234 1.394 . S
C3232 H3248 0.931 . S
C3233 C3232 1.391 . S
C3233 C3237 1.376 . S
C3234 C3232 1.394 . S
C3234 C3235 1.369 . S
C3234 C3238 1.531 . S
C3235 C3234 1.369 . S
C3235 C3236 1.410 . S
C3235 C3243 1.503 . S
C3236 C3235 1.410 . S
C3236 C3237 1.392 . S
C3236 C3239 1.511 . S
C3237 C3233 1.376 . S
C3237 C3236 1.392 . S
C3237 H3249 0.929 . S
C3238 C3234 1.531 . S
C3238 H3250 0.960 . S
C3238 H3251 0.962 . S
C3238 H3252 0.960 . S
C3239 C3236 1.511 . S
C3239 H3253 0.961 . S
C3239 H3254 0.961 . S
C3239 H3255 0.961 . S
C3240 C3241 1.370 . S
C3240 C3242 1.363 . S
C3240 H3256 0.931 . S
C3241 C3240 1.370 . S
C3241 C3245 1.408 . S
C3242 C3240 1.363 . S
C3242 C3243 1.370 . S
C3242 C3246 1.524 . S
C3243 C3235 1.503 . S
C3243 C3242 1.370 . S
C3243 C3244 1.403 . S
C3244 C3243 1.403 . S
C3244 C3245 1.404 . S
C3244 C3247 1.539 . S
C3245 C3241 1.408 . S
C3245 C3244 1.404 . S
C3245 H3257 0.930 1_455 S
C3246 C3242 1.524 . S
C3246 H3258 0.956 . S
C3246 H3259 0.961 . S
C3246 H3260 0.961 . S
C3247 C3244 1.539 . S
C3247 H3261 0.958 . S
C3247 H3262 0.961 . S
C3247 H3263 0.960 . S
H3248 C3232 0.931 . S
H3249 C3237 0.929 . S
H3250 C3238 0.960 . S
H3251 C3238 0.962 . S
H3252 C3238 0.960 . S
H3253 C3239 0.961 . S
H3254 C3239 0.961 . S
H3255 C3239 0.961 . S
H3256 C3240 0.931 . S
H3257 C3245 0.930 1_655 S
H3258 C3246 0.956 . S
H3259 C3246 0.961 . S
H3260 C3246 0.961 . S
H3261 C3247 0.958 . S
H3262 C3247 0.961 . S
H3263 C3247 0.960 . S
C3264 C3265 1.391 . S
C3264 C3266 1.394 . S
C3264 H3280 0.931 . S
C3265 C3264 1.391 . S
C3265 C3269 1.376 . S
C3266 C3264 1.394 . S
C3266 C3267 1.369 . S
C3266 C3270 1.531 . S
C3267 C3266 1.369 . S
C3267 C3268 1.410 . S
C3267 C3275 1.503 . S
C3268 C3267 1.410 . S
C3268 C3269 1.392 . S
C3268 C3271 1.511 . S
C3269 C3265 1.376 . S
C3269 C3268 1.392 . S
C3269 H3281 0.929 . S
C3270 C3266 1.531 . S
C3270 H3282 0.960 . S
C3270 H3283 0.962 . S
C3270 H3284 0.960 . S
C3271 C3268 1.511 . S
C3271 H3285 0.961 . S
C3271 H3286 0.961 . S
C3271 H3287 0.961 . S
C3272 C3273 1.370 . S
C3272 C3274 1.363 . S
C3272 H3288 0.931 . S
C3273 C3272 1.370 . S
C3273 C3277 1.408 . S
C3274 C3272 1.363 . S
C3274 C3275 1.370 . S
C3274 C3278 1.524 . S
C3275 C3267 1.503 . S
C3275 C3274 1.370 . S
C3275 C3276 1.403 . S
C3276 C3275 1.403 . S
C3276 C3277 1.404 . S
C3276 C3279 1.539 . S
C3277 C3273 1.408 . S
C3277 C3276 1.404 . S
C3277 H3289 0.930 . S
C3278 C3274 1.524 . S
C3278 H3290 0.956 . S
C3278 H3291 0.961 . S
C3278 H3292 0.961 . S
C3279 C3276 1.539 . S
C3279 H3293 0.958 . S
C3279 H3294 0.961 . S
C3279 H3295 0.960 . S
H3280 C3264 0.931 . S
H3281 C3269 0.929 . S
H3282 C3270 0.960 . S
H3283 C3270 0.962 . S
H3284 C3270 0.960 . S
H3285 C3271 0.961 . S
H3286 C3271 0.961 . S
H3287 C3271 0.961 . S
H3288 C3272 0.931 . S
H3289 C3277 0.930 . S
H3290 C3278 0.956 . S
H3291 C3278 0.961 . S
H3292 C3278 0.961 . S
H3293 C3279 0.958 . S
H3294 C3279 0.961 . S
H3295 C3279 0.960 . S
C3296 C3297 1.391 . S
C3296 C3298 1.394 . S
C3296 H3312 0.931 . S
C3297 C3296 1.391 . S
C3297 C3301 1.376 . S
C3298 C3296 1.394 . S
C3298 C3299 1.369 . S
C3298 C3302 1.531 . S
C3299 C3298 1.369 . S
C3299 C3300 1.410 . S
C3299 C3307 1.503 . S
C3300 C3299 1.410 . S
C3300 C3301 1.392 . S
C3300 C3303 1.511 . S
C3301 C3297 1.376 . S
C3301 C3300 1.392 . S
C3301 H3313 0.929 . S
C3302 C3298 1.531 . S
C3302 H3314 0.960 . S
C3302 H3315 0.962 . S
C3302 H3316 0.960 . S
C3303 C3300 1.511 . S
C3303 H3317 0.961 . S
C3303 H3318 0.961 . S
C3303 H3319 0.961 . S
C3304 C3305 1.370 . S
C3304 C3306 1.363 . S
C3304 H3320 0.931 . S
C3305 C3304 1.370 . S
C3305 C3309 1.408 . S
C3306 C3304 1.363 . S
C3306 C3307 1.370 . S
C3306 C3310 1.524 . S
C3307 C3299 1.503 . S
C3307 C3306 1.370 . S
C3307 C3308 1.403 . S
C3308 C3307 1.403 . S
C3308 C3309 1.404 . S
C3308 C3311 1.539 . S
C3309 C3305 1.408 . S
C3309 C3308 1.404 . S
C3309 H3321 0.930 . S
C3310 C3306 1.524 . S
C3310 H3322 0.956 . S
C3310 H3323 0.961 . S
C3310 H3324 0.961 . S
C3311 C3308 1.539 . S
C3311 H3325 0.958 . S
C3311 H3326 0.961 . S
C3311 H3327 0.960 . S
H3312 C3296 0.931 . S
H3313 C3301 0.929 . S
H3314 C3302 0.960 . S
H3315 C3302 0.962 . S
H3316 C3302 0.960 . S
H3317 C3303 0.961 . S
H3318 C3303 0.961 . S
H3319 C3303 0.961 . S
H3320 C3304 0.931 . S
H3321 C3309 0.930 . S
H3322 C3310 0.956 . S
H3323 C3310 0.961 . S
H3324 C3310 0.961 . S
H3325 C3311 0.958 . S
H3326 C3311 0.961 . S
H3327 C3311 0.960 . S
C3328 C3329 1.391 . S
C3328 C3330 1.394 . S
C3328 H3344 0.931 . S
C3329 C3328 1.391 . S
C3329 C3333 1.376 . S
C3330 C3328 1.394 . S
C3330 C3331 1.369 . S
C3330 C3334 1.531 . S
C3331 C3330 1.369 . S
C3331 C3332 1.410 . S
C3331 C3339 1.503 1_545 S
C3332 C3331 1.410 . S
C3332 C3333 1.392 . S
C3332 C3335 1.511 . S
C3333 C3329 1.376 . S
C3333 C3332 1.392 . S
C3333 H3345 0.929 . S
C3334 C3330 1.531 . S
C3334 H3346 0.960 1_545 S
C3334 H3347 0.962 . S
C3334 H3348 0.960 . S
C3335 C3332 1.511 . S
C3335 H3349 0.961 . S
C3335 H3350 0.961 1_545 S
C3335 H3351 0.961 . S
C3336 C3337 1.370 . S
C3336 C3338 1.363 . S
C3336 H3352 0.931 . S
C3337 C3336 1.370 . S
C3337 C3341 1.408 . S
C3338 C3336 1.363 . S
C3338 C3339 1.370 . S
C3338 C3342 1.524 . S
C3339 C3331 1.503 1_565 S
C3339 C3338 1.370 . S
C3339 C3340 1.403 . S
C3340 C3339 1.403 . S
C3340 C3341 1.404 . S
C3340 C3343 1.539 . S
C3341 C3337 1.408 . S
C3341 C3340 1.404 . S
C3341 H3353 0.930 . S
C3342 C3338 1.524 . S
C3342 H3354 0.957 . S
C3342 H3355 0.933 1_565 S
C3342 H3356 0.961 . S
C3343 C3340 1.539 . S
C3343 H3357 0.958 . S
C3343 H3358 0.961 . S
C3343 H3359 1.003 . S
H3344 C3328 0.931 . S
H3345 C3333 0.929 . S
H3346 C3334 0.960 1_565 S
H3347 C3334 0.962 . S
H3348 C3334 0.960 . S
H3349 C3335 0.961 . S
H3350 C3335 0.961 1_565 S
H3351 C3335 0.961 . S
H3352 C3336 0.931 . S
H3353 C3341 0.930 . S
H3354 C3342 0.957 . S
H3355 C3342 0.933 1_545 S
H3356 C3342 0.961 . S
H3357 C3343 0.958 . S
H3358 C3343 0.961 . S
H3359 C3343 1.003 . S
C3360 C3361 1.391 . S
C3360 C3362 1.394 . S
C3360 H3376 0.931 . S
C3361 C3360 1.391 . S
C3361 C3365 1.376 . S
C3362 C3360 1.394 . S
C3362 C3363 1.369 . S
C3362 C3366 1.531 . S
C3363 C3362 1.369 . S
C3363 C3364 1.410 . S
C3363 C3371 1.503 . S
C3364 C3363 1.410 . S
C3364 C3365 1.392 . S
C3364 C3367 1.511 . S
C3365 C3361 1.376 . S
C3365 C3364 1.392 . S
C3365 H3377 0.929 . S
C3366 C3362 1.531 . S
C3366 H3378 0.960 . S
C3366 H3379 0.962 . S
C3366 H3380 0.960 . S
C3367 C3364 1.511 . S
C3367 H3381 0.961 . S
C3367 H3382 0.961 . S
C3367 H3383 0.961 . S
C3368 C3369 1.370 . S
C3368 C3370 1.363 . S
C3368 H3384 0.931 . S
C3369 C3368 1.370 . S
C3369 C3373 1.408 . S
C3370 C3368 1.363 . S
C3370 C3371 1.370 . S
C3370 C3374 1.524 . S
C3371 C3363 1.503 . S
C3371 C3370 1.370 . S
C3371 C3372 1.403 . S
C3372 C3371 1.403 . S
C3372 C3373 1.404 . S
C3372 C3375 1.539 . S
C3373 C3369 1.408 . S
C3373 C3372 1.404 . S
C3373 H3385 0.930 . S
C3374 C3370 1.524 . S
C3374 H3386 0.956 . S
C3374 H3387 0.961 . S
C3374 H3388 0.961 . S
C3375 C3372 1.539 . S
C3375 H3389 0.958 . S
C3375 H3390 0.961 . S
C3375 H3391 0.960 . S
H3376 C3360 0.931 . S
H3377 C3365 0.929 . S
H3378 C3366 0.960 . S
H3379 C3366 0.962 . S
H3380 C3366 0.960 . S
H3381 C3367 0.961 . S
H3382 C3367 0.961 . S
H3383 C3367 0.961 . S
H3384 C3368 0.931 . S
H3385 C3373 0.930 . S
H3386 C3374 0.956 . S
H3387 C3374 0.961 . S
H3388 C3374 0.961 . S
H3389 C3375 0.958 . S
H3390 C3375 0.961 . S
H3391 C3375 0.960 . S
C3392 C3393 1.391 . S
C3392 C3394 1.394 . S
C3392 H3408 0.931 . S
C3393 C3392 1.391 . S
C3393 C3397 1.376 . S
C3394 C3392 1.394 . S
C3394 C3395 1.369 . S
C3394 C3398 1.531 . S
C3395 C3394 1.369 . S
C3395 C3396 1.410 . S
C3395 C3403 1.503 1_565 S
C3396 C3395 1.410 . S
C3396 C3397 1.392 . S
C3396 C3399 1.511 . S
C3397 C3393 1.376 . S
C3397 C3396 1.392 . S
C3397 H3409 0.929 . S
C3398 C3394 1.531 . S
C3398 H3410 0.932 1_565 S
C3398 H3411 0.962 . S
C3398 H3412 0.960 . S
C3399 C3396 1.511 . S
C3399 H3413 0.961 . S
C3399 H3414 0.961 1_565 S
C3399 H3415 0.961 . S
C3400 C3401 1.370 . S
C3400 C3402 1.363 . S
C3400 H3416 0.931 . S
C3401 C3400 1.370 . S
C3401 C3405 1.408 . S
C3402 C3400 1.363 . S
C3402 C3403 1.370 . S
C3402 C3406 1.524 . S
C3403 C3395 1.503 1_545 S
C3403 C3402 1.370 . S
C3403 C3404 1.403 . S
C3404 C3403 1.403 . S
C3404 C3405 1.404 . S
C3404 C3407 1.539 . S
C3405 C3401 1.408 . S
C3405 C3404 1.404 . S
C3405 H3417 0.930 . S
C3406 C3402 1.524 . S
C3406 H3418 0.956 . S
C3406 H3419 0.981 . S
C3406 H3420 0.961 . S
C3407 C3404 1.539 . S
C3407 H3421 0.958 . S
C3407 H3422 0.961 . S
C3407 H3423 0.960 1_545 S
H3408 C3392 0.931 . S
H3409 C3397 0.929 . S
H3410 C3398 0.932 1_545 S
H3411 C3398 0.962 . S
H3412 C3398 0.960 . S
H3413 C3399 0.961 . S
H3414 C3399 0.961 1_545 S
H3415 C3399 0.961 . S
H3416 C3400 0.931 . S
H3417 C3405 0.930 . S
H3418 C3406 0.956 . S
H3419 C3406 0.981 . S
H3420 C3406 0.961 . S
H3421 C3407 0.958 . S
H3422 C3407 0.961 . S
H3423 C3407 0.960 1_565 S
C3424 C3425 1.391 1_554 S
C3424 C3426 1.394 . S
C3424 H3440 0.931 . S
C3425 C3424 1.391 1_556 S
C3425 C3429 1.376 . S
C3426 C3424 1.394 . S
C3426 C3427 1.369 1_554 S
C3426 C3430 1.531 . S
C3427 C3426 1.369 1_556 S
C3427 C3428 1.410 . S
C3427 C3435 1.508 . S
C3428 C3427 1.410 . S
C3428 C3429 1.392 . S
C3428 C3431 1.511 . S
C3429 C3425 1.376 . S
C3429 C3428 1.392 . S
C3429 H3441 0.929 . S
C3430 C3426 1.531 . S
C3430 H3442 0.960 . S
C3430 H3443 0.962 . S
C3430 H3444 0.960 . S
C3431 C3428 1.511 . S
C3431 H3445 0.961 . S
C3431 H3446 0.961 . S
C3431 H3447 0.961 . S
C3432 C3433 1.370 . S
C3432 C3434 1.363 . S
C3432 H3448 0.931 . S
C3433 C3432 1.370 . S
C3433 C3437 1.408 1_554 S
C3434 C3432 1.363 . S
C3434 C3435 1.349 1_554 S
C3434 C3438 1.524 . S
C3435 C3427 1.508 . S
C3435 C3434 1.349 1_556 S
C3435 C3436 1.421 . S
C3436 C3435 1.421 . S
C3436 C3437 1.404 . S
C3436 C3439 1.539 . S
C3437 C3433 1.408 1_556 S
C3437 C3436 1.404 . S
C3437 H3449 0.930 . S
C3438 C3434 1.524 . S
C3438 H3450 0.956 . S
C3438 H3451 0.961 . S
C3438 H3452 0.961 . S
C3439 C3436 1.539 . S
C3439 H3453 0.958 . S
C3439 H3454 0.961 . S
C3439 H3455 0.960 . S
H3440 C3424 0.931 . S
H3441 C3429 0.929 . S
H3442 C3430 0.960 . S
H3443 C3430 0.962 . S
H3444 C3430 0.960 . S
H3445 C3431 0.961 . S
H3446 C3431 0.961 . S
H3447 C3431 0.961 . S
H3448 C3432 0.931 . S
H3449 C3437 0.930 . S
H3450 C3438 0.956 . S
H3451 C3438 0.961 . S
H3452 C3438 0.961 . S
H3453 C3439 0.958 . S
H3454 C3439 0.961 . S
H3455 C3439 0.960 . S
C3456 C3457 1.391 . S
C3456 C3458 1.394 . S
C3456 H3472 0.931 . S
C3457 C3456 1.391 . S
C3457 C3461 1.376 . S
C3458 C3456 1.394 . S
C3458 C3459 1.369 . S
C3458 C3462 1.531 . S
C3459 C3458 1.369 . S
C3459 C3460 1.410 . S
C3459 C3467 1.503 1_545 S
C3460 C3459 1.410 . S
C3460 C3461 1.392 . S
C3460 C3463 1.511 . S
C3461 C3457 1.376 . S
C3461 C3460 1.392 . S
C3461 H3473 0.929 . S
C3462 C3458 1.531 . S
C3462 H3474 0.941 1_545 S
C3462 H3475 0.962 . S
C3462 H3476 0.960 . S
C3463 C3460 1.511 . S
C3463 H3477 0.961 . S
C3463 H3478 0.961 1_545 S
C3463 H3479 0.961 . S
C3464 C3465 1.370 . S
C3464 C3466 1.363 . S
C3464 H3480 0.931 . S
C3465 C3464 1.370 . S
C3465 C3469 1.408 . S
C3466 C3464 1.363 . S
C3466 C3467 1.370 . S
C3466 C3470 1.524 . S
C3467 C3459 1.503 1_565 S
C3467 C3466 1.370 . S
C3467 C3468 1.403 . S
C3468 C3467 1.403 . S
C3468 C3469 1.404 . S
C3468 C3471 1.539 . S
C3469 C3465 1.408 . S
C3469 C3468 1.404 . S
C3469 H3481 0.930 . S
C3470 C3466 1.524 . S
C3470 H3482 0.956 . S
C3470 H3483 0.980 . S
C3470 H3484 0.961 . S
C3471 C3468 1.539 . S
C3471 H3485 0.958 . S
C3471 H3486 0.961 . S
C3471 H3487 0.960 1_565 S
H3472 C3456 0.931 . S
H3473 C3461 0.929 . S
H3474 C3462 0.941 1_565 S
H3475 C3462 0.962 . S
H3476 C3462 0.960 . S
H3477 C3463 0.961 . S
H3478 C3463 0.961 1_565 S
H3479 C3463 0.961 . S
H3480 C3464 0.931 . S
H3481 C3469 0.930 . S
H3482 C3470 0.956 . S
H3483 C3470 0.980 . S
H3484 C3470 0.961 . S
H3485 C3471 0.958 . S
H3486 C3471 0.961 . S
H3487 C3471 0.960 1_545 S
C3488 C3489 1.391 . S
C3488 C3490 1.394 . S
C3488 H3504 0.931 . S
C3489 C3488 1.391 . S
C3489 C3493 1.376 . S
C3490 C3488 1.394 . S
C3490 C3491 1.369 . S
C3490 C3494 1.531 . S
C3491 C3490 1.369 . S
C3491 C3492 1.410 . S
C3491 C3499 1.503 . S
C3492 C3491 1.410 . S
C3492 C3493 1.392 . S
C3492 C3495 1.511 . S
C3493 C3489 1.376 . S
C3493 C3492 1.392 . S
C3493 H3505 0.929 . S
C3494 C3490 1.531 . S
C3494 H3506 0.960 . S
C3494 H3507 0.962 . S
C3494 H3508 0.960 . S
C3495 C3492 1.511 . S
C3495 H3509 0.961 . S
C3495 H3510 0.961 . S
C3495 H3511 0.961 . S
C3496 C3497 1.370 . S
C3496 C3498 1.363 . S
C3496 H3512 0.931 . S
C3497 C3496 1.370 . S
C3497 C3501 1.408 . S
C3498 C3496 1.363 . S
C3498 C3499 1.370 . S
C3498 C3502 1.524 . S
C3499 C3491 1.503 . S
C3499 C3498 1.370 . S
C3499 C3500 1.403 . S
C3500 C3499 1.403 . S
C3500 C3501 1.404 . S
C3500 C3503 1.539 . S
C3501 C3497 1.408 . S
C3501 C3500 1.404 . S
C3501 H3513 0.930 . S
C3502 C3498 1.524 . S
C3502 H3514 0.956 . S
C3502 H3515 0.961 . S
C3502 H3516 0.961 . S
C3503 C3500 1.539 . S
C3503 H3517 0.958 . S
C3503 H3518 0.961 . S
C3503 H3519 0.960 . S
H3504 C3488 0.931 . S
H3505 C3493 0.929 . S
H3506 C3494 0.960 . S
H3507 C3494 0.962 . S
H3508 C3494 0.960 . S
H3509 C3495 0.961 . S
H3510 C3495 0.961 . S
H3511 C3495 0.961 . S
H3512 C3496 0.931 . S
H3513 C3501 0.930 . S
H3514 C3502 0.956 . S
H3515 C3502 0.961 . S
H3516 C3502 0.961 . S
H3517 C3503 0.958 . S
H3518 C3503 0.961 . S
H3519 C3503 0.960 . S
C3520 C3521 1.391 . S
C3520 C3522 1.394 . S
C3520 H3536 0.931 . S
C3521 C3520 1.391 . S
C3521 C3525 1.376 . S
C3522 C3520 1.394 . S
C3522 C3523 1.369 . S
C3522 C3526 1.531 . S
C3523 C3522 1.369 . S
C3523 C3524 1.410 . S
C3523 C3531 1.503 1_545 S
C3524 C3523 1.410 . S
C3524 C3525 1.392 . S
C3524 C3527 1.511 . S
C3525 C3521 1.376 . S
C3525 C3524 1.392 . S
C3525 H3537 0.929 . S
C3526 C3522 1.531 . S
C3526 H3538 0.960 1_545 S
C3526 H3539 0.962 . S
C3526 H3540 0.960 . S
C3527 C3524 1.511 . S
C3527 H3541 0.961 . S
C3527 H3542 0.923 1_545 S
C3527 H3543 0.961 . S
C3528 C3529 1.370 . S
C3528 C3530 1.363 . S
C3528 H3544 0.931 . S
C3529 C3528 1.370 . S
C3529 C3533 1.408 . S
C3530 C3528 1.363 . S
C3530 C3531 1.370 . S
C3530 C3534 1.524 . S
C3531 C3523 1.503 1_565 S
C3531 C3530 1.370 . S
C3531 C3532 1.403 . S
C3532 C3531 1.403 . S
C3532 C3533 1.404 . S
C3532 C3535 1.539 . S
C3533 C3529 1.408 . S
C3533 C3532 1.404 . S
C3533 H3545 0.930 . S
C3534 C3530 1.524 . S
C3534 H3546 0.960 . S
C3534 H3547 0.961 1_565 S
C3534 H3548 0.961 . S
C3535 C3532 1.539 . S
C3535 H3549 0.958 . S
C3535 H3550 0.961 . S
C3535 H3551 0.960 . S
H3536 C3520 0.931 . S
H3537 C3525 0.929 . S
H3538 C3526 0.960 1_565 S
H3539 C3526 0.962 . S
H3540 C3526 0.960 . S
H3541 C3527 0.961 . S
H3542 C3527 0.923 1_565 S
H3543 C3527 0.961 . S
H3544 C3528 0.931 . S
H3545 C3533 0.930 . S
H3546 C3534 0.960 . S
H3547 C3534 0.961 1_545 S
H3548 C3534 0.961 . S
H3549 C3535 0.958 . S
H3550 C3535 0.961 . S
H3551 C3535 0.960 . S
C3552 C3553 1.391 . S
C3552 C3554 1.394 . S
C3552 H3568 0.931 . S
C3553 C3552 1.391 . S
C3553 C3557 1.376 1_556 S
C3554 C3552 1.394 . S
C3554 C3555 1.369 1_556 S
C3554 C3558 1.531 . S
C3555 C3554 1.369 1_554 S
C3555 C3556 1.410 . S
C3555 C3563 1.503 . S
C3556 C3555 1.410 . S
C3556 C3557 1.392 . S
C3556 C3559 1.511 . S
C3557 C3553 1.376 1_554 S
C3557 C3556 1.392 . S
C3557 H3569 0.929 . S
C3558 C3554 1.531 . S
C3558 H3570 0.960 . S
C3558 H3571 0.962 . S
C3558 H3572 0.960 . S
C3559 C3556 1.511 . S
C3559 H3573 0.961 . S
C3559 H3574 0.961 . S
C3559 H3575 0.961 . S
C3560 C3561 1.370 1_556 S
C3560 C3562 1.363 . S
C3560 H3576 0.931 . S
C3561 C3560 1.370 1_554 S
C3561 C3565 1.408 . S
C3562 C3560 1.363 . S
C3562 C3563 1.370 1_556 S
C3562 C3566 1.524 . S
C3563 C3555 1.503 . S
C3563 C3562 1.370 1_554 S
C3563 C3564 1.403 . S
C3564 C3563 1.403 . S
C3564 C3565 1.404 . S
C3564 C3567 1.539 . S
C3565 C3561 1.408 . S
C3565 C3564 1.404 . S
C3565 H3577 0.930 . S
C3566 C3562 1.524 . S
C3566 H3578 0.956 . S
C3566 H3579 0.961 . S
C3566 H3580 0.961 . S
C3567 C3564 1.539 . S
C3567 H3581 0.958 . S
C3567 H3582 0.961 . S
C3567 H3583 0.960 . S
H3568 C3552 0.931 . S
H3569 C3557 0.929 . S
H3570 C3558 0.960 . S
H3571 C3558 0.962 . S
H3572 C3558 0.960 . S
H3573 C3559 0.961 . S
H3574 C3559 0.961 . S
H3575 C3559 0.961 . S
H3576 C3560 0.931 . S
H3577 C3565 0.930 . S
H3578 C3566 0.956 . S
H3579 C3566 0.961 . S
H3580 C3566 0.961 . S
H3581 C3567 0.958 . S
H3582 C3567 0.961 . S
H3583 C3567 0.960 . S
C3584 C3585 1.391 . S
C3584 C3586 1.394 . S
C3584 H3600 0.931 . S
C3585 C3584 1.391 . S
C3585 C3589 1.376 . S
C3586 C3584 1.394 . S
C3586 C3587 1.369 . S
C3586 C3590 1.531 . S
C3587 C3586 1.369 . S
C3587 C3588 1.410 . S
C3587 C3595 1.503 . S
C3588 C3587 1.410 . S
C3588 C3589 1.392 . S
C3588 C3591 1.511 . S
C3589 C3585 1.376 . S
C3589 C3588 1.392 . S
C3589 H3601 0.929 . S
C3590 C3586 1.531 . S
C3590 H3602 0.960 . S
C3590 H3603 0.962 . S
C3590 H3604 0.960 . S
C3591 C3588 1.511 . S
C3591 H3605 0.961 . S
C3591 H3606 0.961 . S
C3591 H3607 0.961 . S
C3592 C3593 1.370 . S
C3592 C3594 1.363 . S
C3592 H3608 0.931 . S
C3593 C3592 1.370 . S
C3593 C3597 1.408 . S
C3594 C3592 1.363 . S
C3594 C3595 1.370 . S
C3594 C3598 1.524 . S
C3595 C3587 1.503 . S
C3595 C3594 1.370 . S
C3595 C3596 1.403 . S
C3596 C3595 1.403 . S
C3596 C3597 1.404 . S
C3596 C3599 1.539 . S
C3597 C3593 1.408 . S
C3597 C3596 1.404 . S
C3597 H3609 0.930 . S
C3598 C3594 1.524 . S
C3598 H3610 0.956 . S
C3598 H3611 0.961 . S
C3598 H3612 0.961 . S
C3599 C3596 1.539 . S
C3599 H3613 0.958 . S
C3599 H3614 0.961 . S
C3599 H3615 0.960 . S
H3600 C3584 0.931 . S
H3601 C3589 0.929 . S
H3602 C3590 0.960 . S
H3603 C3590 0.962 . S
H3604 C3590 0.960 . S
H3605 C3591 0.961 . S
H3606 C3591 0.961 . S
H3607 C3591 0.961 . S
H3608 C3592 0.931 . S
H3609 C3597 0.930 . S
H3610 C3598 0.956 . S
H3611 C3598 0.961 . S
H3612 C3598 0.961 . S
H3613 C3599 0.958 . S
H3614 C3599 0.961 . S
H3615 C3599 0.960 . S
C3616 C3617 1.391 . S
C3616 C3618 1.394 . S
C3616 H3632 0.931 . S
C3617 C3616 1.391 . S
C3617 C3621 1.376 1_556 S
C3618 C3616 1.394 . S
C3618 C3619 1.369 . S
C3618 C3622 1.531 . S
C3619 C3618 1.369 . S
C3619 C3620 1.410 1_556 S
C3619 C3627 1.504 . S
C3620 C3619 1.410 1_554 S
C3620 C3621 1.392 . S
C3620 C3623 1.511 . S
C3621 C3617 1.376 1_554 S
C3621 C3620 1.392 . S
C3621 H3633 0.929 . S
C3622 C3618 1.531 . S
C3622 H3634 0.960 . S
C3622 H3635 0.962 . S
C3622 H3636 0.960 . S
C3623 C3620 1.511 . S
C3623 H3637 0.961 . S
C3623 H3638 0.961 . S
C3623 H3639 0.961 . S
C3624 C3625 1.370 . S
C3624 C3626 1.363 . S
C3624 H3640 0.931 . S
C3625 C3624 1.370 . S
C3625 C3629 1.408 1_554 S
C3626 C3624 1.363 . S
C3626 C3627 1.370 1_554 S
C3626 C3630 1.524 . S
C3627 C3619 1.504 . S
C3627 C3626 1.370 1_556 S
C3627 C3628 1.403 . S
C3628 C3627 1.403 . S
C3628 C3629 1.404 . S
C3628 C3631 1.539 . S
C3629 C3625 1.408 1_556 S
C3629 C3628 1.404 . S
C3629 H3641 0.930 . S
C3630 C3626 1.524 . S
C3630 H3642 0.956 1_554 S
C3630 H3643 0.961 . S
C3630 H3644 0.961 . S
C3631 C3628 1.539 . S
C3631 H3645 0.958 . S
C3631 H3646 0.961 1_556 S
C3631 H3647 0.939 1_556 S
H3632 C3616 0.931 . S
H3633 C3621 0.929 . S
H3634 C3622 0.960 . S
H3635 C3622 0.962 . S
H3636 C3622 0.960 . S
H3637 C3623 0.961 . S
H3638 C3623 0.961 . S
H3639 C3623 0.961 . S
H3640 C3624 0.931 . S
H3641 C3629 0.930 . S
H3642 C3630 0.956 1_556 S
H3643 C3630 0.961 . S
H3644 C3630 0.961 . S
H3645 C3631 0.958 . S
H3646 C3631 0.961 1_554 S
H3647 C3631 0.939 1_554 S
C3648 C3649 1.391 . S
C3648 C3650 1.394 . S
C3648 H3664 0.931 . S
C3649 C3648 1.391 . S
C3649 C3653 1.376 . S
C3650 C3648 1.394 . S
C3650 C3651 1.369 . S
C3650 C3654 1.531 . S
C3651 C3650 1.369 . S
C3651 C3652 1.410 . S
C3651 C3659 1.503 . S
C3652 C3651 1.410 . S
C3652 C3653 1.392 . S
C3652 C3655 1.511 . S
C3653 C3649 1.376 . S
C3653 C3652 1.392 . S
C3653 H3665 0.929 . S
C3654 C3650 1.531 . S
C3654 H3666 0.960 . S
C3654 H3667 0.962 . S
C3654 H3668 0.960 . S
C3655 C3652 1.511 . S
C3655 H3669 0.961 . S
C3655 H3670 0.961 . S
C3655 H3671 0.961 . S
C3656 C3657 1.370 . S
C3656 C3658 1.363 . S
C3656 H3672 0.931 . S
C3657 C3656 1.370 . S
C3657 C3661 1.408 . S
C3658 C3656 1.363 . S
C3658 C3659 1.370 . S
C3658 C3662 1.524 . S
C3659 C3651 1.503 . S
C3659 C3658 1.370 . S
C3659 C3660 1.403 . S
C3660 C3659 1.403 . S
C3660 C3661 1.404 . S
C3660 C3663 1.539 . S
C3661 C3657 1.408 . S
C3661 C3660 1.404 . S
C3661 H3673 0.930 . S
C3662 C3658 1.524 . S
C3662 H3674 0.956 . S
C3662 H3675 0.961 . S
C3662 H3676 0.961 . S
C3663 C3660 1.539 . S
C3663 H3677 0.958 . S
C3663 H3678 0.961 . S
C3663 H3679 0.960 . S
H3664 C3648 0.931 . S
H3665 C3653 0.929 . S
H3666 C3654 0.960 . S
H3667 C3654 0.962 . S
H3668 C3654 0.960 . S
H3669 C3655 0.961 . S
H3670 C3655 0.961 . S
H3671 C3655 0.961 . S
H3672 C3656 0.931 . S
H3673 C3661 0.930 . S
H3674 C3662 0.956 . S
H3675 C3662 0.961 . S
H3676 C3662 0.961 . S
H3677 C3663 0.958 . S
H3678 C3663 0.961 . S
H3679 C3663 0.960 . S
C3680 C3681 1.391 . S
C3680 C3682 1.394 . S
C3680 H3696 0.931 . S
C3681 C3680 1.391 . S
C3681 C3685 1.376 . S
C3682 C3680 1.394 . S
C3682 C3683 1.369 . S
C3682 C3686 1.531 . S
C3683 C3682 1.369 . S
C3683 C3684 1.410 . S
C3683 C3691 1.503 . S
C3684 C3683 1.410 . S
C3684 C3685 1.392 . S
C3684 C3687 1.511 . S
C3685 C3681 1.376 . S
C3685 C3684 1.392 . S
C3685 H3697 0.929 . S
C3686 C3682 1.531 . S
C3686 H3698 0.960 . S
C3686 H3699 0.962 . S
C3686 H3700 0.960 . S
C3687 C3684 1.511 . S
C3687 H3701 0.961 . S
C3687 H3702 0.961 . S
C3687 H3703 0.961 . S
C3688 C3689 1.370 . S
C3688 C3690 1.363 . S
C3688 H3704 0.931 . S
C3689 C3688 1.370 . S
C3689 C3693 1.408 . S
C3690 C3688 1.363 . S
C3690 C3691 1.370 . S
C3690 C3694 1.524 . S
C3691 C3683 1.503 . S
C3691 C3690 1.370 . S
C3691 C3692 1.403 . S
C3692 C3691 1.403 . S
C3692 C3693 1.404 . S
C3692 C3695 1.539 . S
C3693 C3689 1.408 . S
C3693 C3692 1.404 . S
C3693 H3705 0.930 . S
C3694 C3690 1.524 . S
C3694 H3706 0.956 . S
C3694 H3707 0.961 . S
C3694 H3708 0.961 . S
C3695 C3692 1.539 . S
C3695 H3709 0.958 . S
C3695 H3710 0.961 . S
C3695 H3711 0.960 . S
H3696 C3680 0.931 . S
H3697 C3685 0.929 . S
H3698 C3686 0.960 . S
H3699 C3686 0.962 . S
H3700 C3686 0.960 . S
H3701 C3687 0.961 . S
H3702 C3687 0.961 . S
H3703 C3687 0.961 . S
H3704 C3688 0.931 . S
H3705 C3693 0.930 . S
H3706 C3694 0.956 . S
H3707 C3694 0.961 . S
H3708 C3694 0.961 . S
H3709 C3695 0.958 . S
H3710 C3695 0.961 . S
H3711 C3695 0.960 . S
C3712 C3713 1.391 . S
C3712 C3714 1.394 . S
C3712 H3728 0.931 . S
C3713 C3712 1.391 . S
C3713 C3717 1.376 . S
C3714 C3712 1.394 . S
C3714 C3715 1.369 . S
C3714 C3718 1.531 . S
C3715 C3714 1.369 . S
C3715 C3716 1.410 . S
C3715 C3723 1.503 . S
C3716 C3715 1.410 . S
C3716 C3717 1.392 . S
C3716 C3719 1.511 . S
C3717 C3713 1.376 . S
C3717 C3716 1.392 . S
C3717 H3729 0.929 . S
C3718 C3714 1.531 . S
C3718 H3730 0.960 . S
C3718 H3731 0.962 . S
C3718 H3732 0.960 . S
C3719 C3716 1.511 . S
C3719 H3733 0.961 . S
C3719 H3734 0.961 . S
C3719 H3735 0.961 . S
C3720 C3721 1.370 . S
C3720 C3722 1.363 . S
C3720 H3736 0.931 . S
C3721 C3720 1.370 . S
C3721 C3725 1.408 . S
C3722 C3720 1.363 . S
C3722 C3723 1.370 . S
C3722 C3726 1.524 . S
C3723 C3715 1.503 . S
C3723 C3722 1.370 . S
C3723 C3724 1.403 . S
C3724 C3723 1.403 . S
C3724 C3725 1.404 . S
C3724 C3727 1.539 . S
C3725 C3721 1.408 . S
C3725 C3724 1.404 . S
C3725 H3737 0.930 . S
C3726 C3722 1.524 . S
C3726 H3738 0.956 . S
C3726 H3739 0.961 . S
C3726 H3740 0.961 . S
C3727 C3724 1.539 . S
C3727 H3741 0.958 . S
C3727 H3742 0.961 . S
C3727 H3743 0.960 . S
H3728 C3712 0.931 . S
H3729 C3717 0.929 . S
H3730 C3718 0.960 . S
H3731 C3718 0.962 . S
H3732 C3718 0.960 . S
H3733 C3719 0.961 . S
H3734 C3719 0.961 . S
H3735 C3719 0.961 . S
H3736 C3720 0.931 . S
H3737 C3725 0.930 . S
H3738 C3726 0.956 . S
H3739 C3726 0.961 . S
H3740 C3726 0.961 . S
H3741 C3727 0.958 . S
H3742 C3727 0.961 . S
H3743 C3727 0.960 . S
C3744 C3745 1.391 . S
C3744 C3746 1.394 . S
C3744 H3760 0.931 . S
C3745 C3744 1.391 . S
C3745 C3749 1.376 1_556 S
C3746 C3744 1.394 . S
C3746 C3747 1.369 1_556 S
C3746 C3750 1.531 . S
C3747 C3746 1.369 1_554 S
C3747 C3748 1.410 . S
C3747 C3755 1.503 . S
C3748 C3747 1.410 . S
C3748 C3749 1.392 . S
C3748 C3751 1.511 . S
C3749 C3745 1.376 1_554 S
C3749 C3748 1.392 . S
C3749 H3761 0.929 . S
C3750 C3746 1.531 . S
C3750 H3762 0.960 . S
C3750 H3763 0.962 . S
C3750 H3764 0.960 . S
C3751 C3748 1.511 . S
C3751 H3765 0.961 . S
C3751 H3766 0.961 . S
C3751 H3767 0.961 . S
C3752 C3753 1.370 1_556 S
C3752 C3754 1.363 . S
C3752 H3768 0.931 . S
C3753 C3752 1.370 1_554 S
C3753 C3757 1.408 . S
C3754 C3752 1.363 . S
C3754 C3755 1.370 1_556 S
C3754 C3758 1.524 . S
C3755 C3747 1.503 . S
C3755 C3754 1.370 1_554 S
C3755 C3756 1.403 . S
C3756 C3755 1.403 . S
C3756 C3757 1.404 . S
C3756 C3759 1.539 . S
C3757 C3753 1.408 . S
C3757 C3756 1.404 . S
C3757 H3769 0.930 . S
C3758 C3754 1.524 . S
C3758 H3770 0.956 . S
C3758 H3771 0.961 . S
C3758 H3772 0.961 . S
C3759 C3756 1.539 . S
C3759 H3773 0.958 . S
C3759 H3774 0.961 . S
C3759 H3775 0.960 . S
H3760 C3744 0.931 . S
H3761 C3749 0.929 . S
H3762 C3750 0.960 . S
H3763 C3750 0.962 . S
H3764 C3750 0.960 . S
H3765 C3751 0.961 . S
H3766 C3751 0.961 . S
H3767 C3751 0.961 . S
H3768 C3752 0.931 . S
H3769 C3757 0.930 . S
H3770 C3758 0.956 . S
H3771 C3758 0.961 . S
H3772 C3758 0.961 . S
H3773 C3759 0.958 . S
H3774 C3759 0.961 . S
H3775 C3759 0.960 . S
C3776 C3777 1.391 . S
C3776 C3778 1.394 . S
C3776 H3792 0.931 . S
C3777 C3776 1.391 . S
C3777 C3781 1.376 . S
C3778 C3776 1.394 . S
C3778 C3779 1.369 . S
C3778 C3782 1.531 . S
C3779 C3778 1.369 . S
C3779 C3780 1.410 . S
C3779 C3787 1.503 . S
C3780 C3779 1.410 . S
C3780 C3781 1.392 . S
C3780 C3783 1.511 . S
C3781 C3777 1.376 . S
C3781 C3780 1.392 . S
C3781 H3793 0.929 . S
C3782 C3778 1.531 . S
C3782 H3794 0.960 . S
C3782 H3795 0.962 . S
C3782 H3796 0.960 . S
C3783 C3780 1.511 . S
C3783 H3797 0.961 . S
C3783 H3798 0.961 . S
C3783 H3799 0.961 . S
C3784 C3785 1.370 . S
C3784 C3786 1.363 . S
C3784 H3800 0.931 . S
C3785 C3784 1.370 . S
C3785 C3789 1.408 . S
C3786 C3784 1.363 . S
C3786 C3787 1.370 . S
C3786 C3790 1.524 . S
C3787 C3779 1.503 . S
C3787 C3786 1.370 . S
C3787 C3788 1.403 . S
C3788 C3787 1.403 . S
C3788 C3789 1.404 . S
C3788 C3791 1.539 . S
C3789 C3785 1.408 . S
C3789 C3788 1.404 . S
C3789 H3801 0.930 . S
C3790 C3786 1.524 . S
C3790 H3802 0.956 . S
C3790 H3803 0.961 . S
C3790 H3804 0.961 . S
C3791 C3788 1.539 . S
C3791 H3805 0.958 . S
C3791 H3806 0.961 . S
C3791 H3807 0.960 . S
H3792 C3776 0.931 . S
H3793 C3781 0.929 . S
H3794 C3782 0.960 . S
H3795 C3782 0.962 . S
H3796 C3782 0.960 . S
H3797 C3783 0.961 . S
H3798 C3783 0.961 . S
H3799 C3783 0.961 . S
H3800 C3784 0.931 . S
H3801 C3789 0.930 . S
H3802 C3790 0.956 . S
H3803 C3790 0.961 . S
H3804 C3790 0.961 . S
H3805 C3791 0.958 . S
H3806 C3791 0.961 . S
H3807 C3791 0.960 . S
C3808 C3809 1.391 . S
C3808 C3810 1.394 . S
C3808 H3824 0.931 . S
C3809 C3808 1.391 . S
C3809 C3813 1.376 . S
C3810 C3808 1.394 . S
C3810 C3811 1.369 . S
C3810 C3814 1.531 . S
C3811 C3810 1.369 . S
C3811 C3812 1.410 . S
C3811 C3819 1.503 . S
C3812 C3811 1.410 . S
C3812 C3813 1.392 . S
C3812 C3815 1.511 . S
C3813 C3809 1.376 . S
C3813 C3812 1.392 . S
C3813 H3825 0.929 . S
C3814 C3810 1.531 . S
C3814 H3826 0.960 . S
C3814 H3827 0.962 . S
C3814 H3828 0.960 . S
C3815 C3812 1.511 . S
C3815 H3829 0.961 . S
C3815 H3830 0.961 . S
C3815 H3831 0.961 . S
C3816 C3817 1.370 . S
C3816 C3818 1.363 . S
C3816 H3832 0.931 . S
C3817 C3816 1.370 . S
C3817 C3821 1.408 . S
C3818 C3816 1.363 . S
C3818 C3819 1.370 . S
C3818 C3822 1.524 . S
C3819 C3811 1.503 . S
C3819 C3818 1.370 . S
C3819 C3820 1.403 . S
C3820 C3819 1.403 . S
C3820 C3821 1.404 . S
C3820 C3823 1.539 . S
C3821 C3817 1.408 . S
C3821 C3820 1.404 . S
C3821 H3833 0.930 . S
C3822 C3818 1.524 . S
C3822 H3834 0.956 . S
C3822 H3835 0.961 . S
C3822 H3836 0.961 . S
C3823 C3820 1.539 . S
C3823 H3837 0.958 . S
C3823 H3838 0.961 . S
C3823 H3839 0.960 . S
H3824 C3808 0.931 . S
H3825 C3813 0.929 . S
H3826 C3814 0.960 . S
H3827 C3814 0.962 . S
H3828 C3814 0.960 . S
H3829 C3815 0.961 . S
H3830 C3815 0.961 . S
H3831 C3815 0.961 . S
H3832 C3816 0.931 . S
H3833 C3821 0.930 . S
H3834 C3822 0.956 . S
H3835 C3822 0.961 . S
H3836 C3822 0.961 . S
H3837 C3823 0.958 . S
H3838 C3823 0.961 . S
H3839 C3823 0.960 . S
C3840 C3841 1.391 . S
C3840 C3842 1.394 . S
C3840 H3856 0.931 . S
C3841 C3840 1.391 . S
C3841 C3845 1.376 . S
C3842 C3840 1.394 . S
C3842 C3843 1.369 . S
C3842 C3846 1.531 . S
C3843 C3842 1.369 . S
C3843 C3844 1.410 . S
C3843 C3851 1.503 . S
C3844 C3843 1.410 . S
C3844 C3845 1.392 . S
C3844 C3847 1.511 . S
C3845 C3841 1.376 . S
C3845 C3844 1.392 . S
C3845 H3857 0.929 . S
C3846 C3842 1.531 . S
C3846 H3858 0.960 . S
C3846 H3859 0.962 . S
C3846 H3860 0.960 . S
C3847 C3844 1.511 . S
C3847 H3861 0.961 . S
C3847 H3862 0.961 . S
C3847 H3863 0.961 . S
C3848 C3849 1.370 . S
C3848 C3850 1.363 . S
C3848 H3864 0.931 . S
C3849 C3848 1.370 . S
C3849 C3853 1.408 . S
C3850 C3848 1.363 . S
C3850 C3851 1.370 . S
C3850 C3854 1.524 . S
C3851 C3843 1.503 . S
C3851 C3850 1.370 . S
C3851 C3852 1.403 . S
C3852 C3851 1.403 . S
C3852 C3853 1.404 . S
C3852 C3855 1.539 . S
C3853 C3849 1.408 . S
C3853 C3852 1.404 . S
C3853 H3865 0.930 . S
C3854 C3850 1.524 . S
C3854 H3866 0.956 . S
C3854 H3867 0.961 . S
C3854 H3868 0.961 . S
C3855 C3852 1.539 . S
C3855 H3869 0.958 . S
C3855 H3870 0.961 . S
C3855 H3871 0.960 . S
H3856 C3840 0.931 . S
H3857 C3845 0.929 . S
H3858 C3846 0.960 . S
H3859 C3846 0.962 . S
H3860 C3846 0.960 . S
H3861 C3847 0.961 . S
H3862 C3847 0.961 . S
H3863 C3847 0.961 . S
H3864 C3848 0.931 . S
H3865 C3853 0.930 . S
H3866 C3854 0.956 . S
H3867 C3854 0.961 . S
H3868 C3854 0.961 . S
H3869 C3855 0.958 . S
H3870 C3855 0.961 . S
H3871 C3855 0.960 . S
C3872 C3873 1.391 . S
C3872 C3874 1.394 . S
C3872 H3888 0.931 . S
C3873 C3872 1.391 . S
C3873 C3877 1.376 . S
C3874 C3872 1.394 . S
C3874 C3875 1.369 . S
C3874 C3878 1.531 . S
C3875 C3874 1.369 . S
C3875 C3876 1.410 . S
C3875 C3883 1.503 . S
C3876 C3875 1.410 . S
C3876 C3877 1.392 . S
C3876 C3879 1.511 . S
C3877 C3873 1.376 . S
C3877 C3876 1.392 . S
C3877 H3889 0.929 . S
C3878 C3874 1.531 . S
C3878 H3890 0.960 . S
C3878 H3891 0.962 . S
C3878 H3892 0.960 . S
C3879 C3876 1.511 . S
C3879 H3893 0.961 . S
C3879 H3894 0.961 . S
C3879 H3895 0.961 . S
C3880 C3881 1.370 . S
C3880 C3882 1.363 . S
C3880 H3896 0.931 . S
C3881 C3880 1.370 . S
C3881 C3885 1.408 . S
C3882 C3880 1.363 . S
C3882 C3883 1.370 . S
C3882 C3886 1.524 . S
C3883 C3875 1.503 . S
C3883 C3882 1.370 . S
C3883 C3884 1.403 . S
C3884 C3883 1.403 . S
C3884 C3885 1.404 . S
C3884 C3887 1.539 . S
C3885 C3881 1.408 . S
C3885 C3884 1.404 . S
C3885 H3897 0.930 . S
C3886 C3882 1.524 . S
C3886 H3898 0.956 . S
C3886 H3899 0.961 . S
C3886 H3900 0.961 . S
C3887 C3884 1.539 . S
C3887 H3901 0.958 . S
C3887 H3902 0.961 . S
C3887 H3903 0.960 . S
H3888 C3872 0.931 . S
H3889 C3877 0.929 . S
H3890 C3878 0.960 . S
H3891 C3878 0.962 . S
H3892 C3878 0.960 . S
H3893 C3879 0.961 . S
H3894 C3879 0.961 . S
H3895 C3879 0.961 . S
H3896 C3880 0.931 . S
H3897 C3885 0.930 . S
H3898 C3886 0.956 . S
H3899 C3886 0.961 . S
H3900 C3886 0.961 . S
H3901 C3887 0.958 . S
H3902 C3887 0.961 . S
H3903 C3887 0.960 . S
C3904 C3905 1.391 . S
C3904 C3906 1.394 . S
C3904 H3920 0.931 . S
C3905 C3904 1.391 . S
C3905 C3909 1.376 . S
C3906 C3904 1.394 . S
C3906 C3907 1.369 . S
C3906 C3910 1.531 . S
C3907 C3906 1.369 . S
C3907 C3908 1.410 . S
C3907 C3915 1.503 . S
C3908 C3907 1.410 . S
C3908 C3909 1.392 . S
C3908 C3911 1.511 . S
C3909 C3905 1.376 . S
C3909 C3908 1.392 . S
C3909 H3921 0.929 . S
C3910 C3906 1.531 . S
C3910 H3922 0.960 . S
C3910 H3923 0.962 . S
C3910 H3924 0.960 . S
C3911 C3908 1.511 . S
C3911 H3925 0.961 . S
C3911 H3926 0.961 . S
C3911 H3927 0.961 . S
C3912 C3913 1.370 . S
C3912 C3914 1.363 . S
C3912 H3928 0.931 . S
C3913 C3912 1.370 . S
C3913 C3917 1.408 . S
C3914 C3912 1.363 . S
C3914 C3915 1.370 . S
C3914 C3918 1.524 . S
C3915 C3907 1.503 . S
C3915 C3914 1.370 . S
C3915 C3916 1.403 . S
C3916 C3915 1.403 . S
C3916 C3917 1.404 . S
C3916 C3919 1.539 . S
C3917 C3913 1.408 . S
C3917 C3916 1.404 . S
C3917 H3929 0.930 . S
C3918 C3914 1.524 . S
C3918 H3930 0.956 . S
C3918 H3931 0.961 . S
C3918 H3932 0.961 . S
C3919 C3916 1.539 . S
C3919 H3933 0.958 . S
C3919 H3934 0.961 . S
C3919 H3935 0.960 . S
H3920 C3904 0.931 . S
H3921 C3909 0.929 . S
H3922 C3910 0.960 . S
H3923 C3910 0.962 . S
H3924 C3910 0.960 . S
H3925 C3911 0.961 . S
H3926 C3911 0.961 . S
H3927 C3911 0.961 . S
H3928 C3912 0.931 . S
H3929 C3917 0.930 . S
H3930 C3918 0.956 . S
H3931 C3918 0.961 . S
H3932 C3918 0.961 . S
H3933 C3919 0.958 . S
H3934 C3919 0.961 . S
H3935 C3919 0.960 . S
C3936 C3937 1.391 . S
C3936 C3938 1.394 . S
C3936 H3952 0.931 . S
C3937 C3936 1.391 . S
C3937 C3941 1.376 . S
C3938 C3936 1.394 . S
C3938 C3939 1.369 . S
C3938 C3942 1.531 . S
C3939 C3938 1.369 . S
C3939 C3940 1.410 . S
C3939 C3947 1.503 . S
C3940 C3939 1.410 . S
C3940 C3941 1.392 . S
C3940 C3943 1.511 . S
C3941 C3937 1.376 . S
C3941 C3940 1.392 . S
C3941 H3953 0.929 . S
C3942 C3938 1.531 . S
C3942 H3954 0.960 . S
C3942 H3955 0.962 . S
C3942 H3956 0.960 . S
C3943 C3940 1.511 . S
C3943 H3957 0.961 . S
C3943 H3958 0.961 . S
C3943 H3959 0.961 . S
C3944 C3945 1.370 . S
C3944 C3946 1.363 . S
C3944 H3960 0.931 . S
C3945 C3944 1.370 . S
C3945 C3949 1.408 . S
C3946 C3944 1.363 . S
C3946 C3947 1.370 . S
C3946 C3950 1.524 . S
C3947 C3939 1.503 . S
C3947 C3946 1.370 . S
C3947 C3948 1.403 . S
C3948 C3947 1.403 . S
C3948 C3949 1.404 . S
C3948 C3951 1.539 . S
C3949 C3945 1.408 . S
C3949 C3948 1.404 . S
C3949 H3961 0.930 . S
C3950 C3946 1.524 . S
C3950 H3962 0.956 . S
C3950 H3963 0.961 . S
C3950 H3964 0.961 . S
C3951 C3948 1.539 . S
C3951 H3965 0.958 . S
C3951 H3966 0.961 . S
C3951 H3967 0.960 . S
H3952 C3936 0.931 . S
H3953 C3941 0.929 . S
H3954 C3942 0.960 . S
H3955 C3942 0.962 . S
H3956 C3942 0.960 . S
H3957 C3943 0.961 . S
H3958 C3943 0.961 . S
H3959 C3943 0.961 . S
H3960 C3944 0.931 . S
H3961 C3949 0.930 . S
H3962 C3950 0.956 . S
H3963 C3950 0.961 . S
H3964 C3950 0.961 . S
H3965 C3951 0.958 . S
H3966 C3951 0.961 . S
H3967 C3951 0.960 . S
C3968 C3969 1.391 . S
C3968 C3970 1.394 . S
C3968 H3984 0.931 . S
C3969 C3968 1.391 . S
C3969 C3973 1.376 . S
C3970 C3968 1.394 . S
C3970 C3971 1.369 . S
C3970 C3974 1.531 . S
C3971 C3970 1.369 . S
C3971 C3972 1.410 . S
C3971 C3979 1.503 . S
C3972 C3971 1.410 . S
C3972 C3973 1.392 . S
C3972 C3975 1.511 . S
C3973 C3969 1.376 . S
C3973 C3972 1.392 . S
C3973 H3985 0.929 . S
C3974 C3970 1.531 . S
C3974 H3986 0.960 . S
C3974 H3987 0.962 . S
C3974 H3988 0.960 . S
C3975 C3972 1.511 . S
C3975 H3989 0.961 . S
C3975 H3990 0.961 . S
C3975 H3991 0.961 . S
C3976 C3977 1.370 . S
C3976 C3978 1.363 . S
C3976 H3992 0.931 . S
C3977 C3976 1.370 . S
C3977 C3981 1.408 . S
C3978 C3976 1.363 . S
C3978 C3979 1.370 . S
C3978 C3982 1.524 . S
C3979 C3971 1.503 . S
C3979 C3978 1.370 . S
C3979 C3980 1.403 . S
C3980 C3979 1.403 . S
C3980 C3981 1.404 . S
C3980 C3983 1.539 . S
C3981 C3977 1.408 . S
C3981 C3980 1.404 . S
C3981 H3993 0.930 . S
C3982 C3978 1.524 . S
C3982 H3994 0.956 . S
C3982 H3995 0.961 . S
C3982 H3996 0.961 . S
C3983 C3980 1.539 . S
C3983 H3997 0.958 . S
C3983 H3998 0.961 . S
C3983 H3999 0.960 . S
H3984 C3968 0.931 . S
H3985 C3973 0.929 . S
H3986 C3974 0.960 . S
H3987 C3974 0.962 . S
H3988 C3974 0.960 . S
H3989 C3975 0.961 . S
H3990 C3975 0.961 . S
H3991 C3975 0.961 . S
H3992 C3976 0.931 . S
H3993 C3981 0.930 . S
H3994 C3982 0.956 . S
H3995 C3982 0.961 . S
H3996 C3982 0.961 . S
H3997 C3983 0.958 . S
H3998 C3983 0.961 . S
H3999 C3983 0.960 . S
C4000 C4001 1.391 . S
C4000 C4002 1.394 . S
C4000 H4016 0.931 . S
C4001 C4000 1.391 . S
C4001 C4005 1.376 . S
C4002 C4000 1.394 . S
C4002 C4003 1.369 . S
C4002 C4006 1.531 . S
C4003 C4002 1.369 . S
C4003 C4004 1.410 . S
C4003 C4011 1.503 . S
C4004 C4003 1.410 . S
C4004 C4005 1.392 . S
C4004 C4007 1.511 . S
C4005 C4001 1.376 . S
C4005 C4004 1.392 . S
C4005 H4017 0.929 . S
C4006 C4002 1.531 . S
C4006 H4018 0.960 . S
C4006 H4019 0.962 . S
C4006 H4020 0.960 . S
C4007 C4004 1.511 . S
C4007 H4021 0.961 . S
C4007 H4022 0.961 . S
C4007 H4023 0.961 . S
C4008 C4009 1.370 . S
C4008 C4010 1.363 . S
C4008 H4024 0.931 . S
C4009 C4008 1.370 . S
C4009 C4013 1.408 . S
C4010 C4008 1.363 . S
C4010 C4011 1.370 . S
C4010 C4014 1.524 . S
C4011 C4003 1.503 . S
C4011 C4010 1.370 . S
C4011 C4012 1.403 . S
C4012 C4011 1.403 . S
C4012 C4013 1.404 . S
C4012 C4015 1.539 . S
C4013 C4009 1.408 . S
C4013 C4012 1.404 . S
C4013 H4025 0.930 . S
C4014 C4010 1.524 . S
C4014 H4026 0.956 . S
C4014 H4027 0.961 . S
C4014 H4028 0.961 . S
C4015 C4012 1.539 . S
C4015 H4029 0.958 . S
C4015 H4030 0.961 . S
C4015 H4031 0.960 . S
H4016 C4000 0.931 . S
H4017 C4005 0.929 . S
H4018 C4006 0.960 . S
H4019 C4006 0.962 . S
H4020 C4006 0.960 . S
H4021 C4007 0.961 . S
H4022 C4007 0.961 . S
H4023 C4007 0.961 . S
H4024 C4008 0.931 . S
H4025 C4013 0.930 . S
H4026 C4014 0.956 . S
H4027 C4014 0.961 . S
H4028 C4014 0.961 . S
H4029 C4015 0.958 . S
H4030 C4015 0.961 . S
H4031 C4015 0.960 . S
C4032 C4033 1.391 . S
C4032 C4034 1.394 . S
C4032 H4048 0.931 . S
C4033 C4032 1.391 . S
C4033 C4037 1.376 . S
C4034 C4032 1.394 . S
C4034 C4035 1.369 . S
C4034 C4038 1.531 . S
C4035 C4034 1.369 . S
C4035 C4036 1.410 . S
C4035 C4043 1.503 . S
C4036 C4035 1.410 . S
C4036 C4037 1.392 . S
C4036 C4039 1.511 . S
C4037 C4033 1.376 . S
C4037 C4036 1.392 . S
C4037 H4049 0.929 . S
C4038 C4034 1.531 . S
C4038 H4050 0.960 . S
C4038 H4051 0.962 . S
C4038 H4052 0.960 . S
C4039 C4036 1.511 . S
C4039 H4053 0.961 . S
C4039 H4054 0.961 . S
C4039 H4055 0.961 . S
C4040 C4041 1.370 . S
C4040 C4042 1.363 . S
C4040 H4056 0.931 . S
C4041 C4040 1.370 . S
C4041 C4045 1.408 . S
C4042 C4040 1.363 . S
C4042 C4043 1.370 . S
C4042 C4046 1.524 . S
C4043 C4035 1.503 . S
C4043 C4042 1.370 . S
C4043 C4044 1.403 . S
C4044 C4043 1.403 . S
C4044 C4045 1.404 . S
C4044 C4047 1.539 . S
C4045 C4041 1.408 . S
C4045 C4044 1.404 . S
C4045 H4057 0.930 . S
C4046 C4042 1.524 . S
C4046 H4058 0.956 . S
C4046 H4059 0.961 . S
C4046 H4060 0.961 . S
C4047 C4044 1.539 . S
C4047 H4061 0.958 . S
C4047 H4062 0.961 . S
C4047 H4063 0.960 . S
H4048 C4032 0.931 . S
H4049 C4037 0.929 . S
H4050 C4038 0.960 . S
H4051 C4038 0.962 . S
H4052 C4038 0.960 . S
H4053 C4039 0.961 . S
H4054 C4039 0.961 . S
H4055 C4039 0.961 . S
H4056 C4040 0.931 . S
H4057 C4045 0.930 . S
H4058 C4046 0.956 . S
H4059 C4046 0.961 . S
H4060 C4046 0.961 . S
H4061 C4047 0.958 . S
H4062 C4047 0.961 . S
H4063 C4047 0.960 . S
C4064 C4065 1.391 . S
C4064 C4066 1.394 . S
C4064 H4080 0.931 . S
C4065 C4064 1.391 . S
C4065 C4069 1.376 . S
C4066 C4064 1.394 . S
C4066 C4067 1.369 . S
C4066 C4070 1.531 . S
C4067 C4066 1.369 . S
C4067 C4068 1.410 . S
C4067 C4075 1.503 . S
C4068 C4067 1.410 . S
C4068 C4069 1.392 . S
C4068 C4071 1.511 . S
C4069 C4065 1.376 . S
C4069 C4068 1.392 . S
C4069 H4081 0.929 . S
C4070 C4066 1.531 . S
C4070 H4082 0.960 . S
C4070 H4083 0.962 . S
C4070 H4084 0.960 . S
C4071 C4068 1.511 . S
C4071 H4085 0.961 . S
C4071 H4086 0.961 . S
C4071 H4087 0.961 . S
C4072 C4073 1.370 . S
C4072 C4074 1.363 . S
C4072 H4088 0.931 . S
C4073 C4072 1.370 . S
C4073 C4077 1.408 . S
C4074 C4072 1.363 . S
C4074 C4075 1.370 . S
C4074 C4078 1.524 . S
C4075 C4067 1.503 . S
C4075 C4074 1.370 . S
C4075 C4076 1.403 . S
C4076 C4075 1.403 . S
C4076 C4077 1.404 . S
C4076 C4079 1.539 . S
C4077 C4073 1.408 . S
C4077 C4076 1.404 . S
C4077 H4089 0.930 . S
C4078 C4074 1.524 . S
C4078 H4090 0.956 . S
C4078 H4091 0.961 . S
C4078 H4092 0.961 . S
C4079 C4076 1.539 . S
C4079 H4093 0.958 . S
C4079 H4094 0.961 . S
C4079 H4095 0.960 . S
H4080 C4064 0.931 . S
H4081 C4069 0.929 . S
H4082 C4070 0.960 . S
H4083 C4070 0.962 . S
H4084 C4070 0.960 . S
H4085 C4071 0.961 . S
H4086 C4071 0.961 . S
H4087 C4071 0.961 . S
H4088 C4072 0.931 . S
H4089 C4077 0.930 . S
H4090 C4078 0.956 . S
H4091 C4078 0.961 . S
H4092 C4078 0.961 . S
H4093 C4079 0.958 . S
H4094 C4079 0.961 . S
H4095 C4079 0.960 . S
C4096 C4097 1.391 . S
C4096 C4098 1.394 . S
C4096 H4112 0.931 . S
C4097 C4096 1.391 . S
C4097 C4101 1.376 . S
C4098 C4096 1.394 . S
C4098 C4099 1.369 . S
C4098 C4102 1.531 . S
C4099 C4098 1.369 . S
C4099 C4100 1.410 . S
C4099 C4107 1.503 . S
C4100 C4099 1.410 . S
C4100 C4101 1.392 . S
C4100 C4103 1.511 . S
C4101 C4097 1.376 . S
C4101 C4100 1.392 . S
C4101 H4113 0.929 . S
C4102 C4098 1.531 . S
C4102 H4114 0.960 . S
C4102 H4115 0.962 . S
C4102 H4116 0.960 . S
C4103 C4100 1.511 . S
C4103 H4117 0.961 . S
C4103 H4118 0.961 . S
C4103 H4119 0.961 . S
C4104 C4105 1.370 . S
C4104 C4106 1.363 . S
C4104 H4120 0.931 . S
C4105 C4104 1.370 . S
C4105 C4109 1.408 . S
C4106 C4104 1.363 . S
C4106 C4107 1.370 . S
C4106 C4110 1.524 . S
C4107 C4099 1.503 . S
C4107 C4106 1.370 . S
C4107 C4108 1.403 . S
C4108 C4107 1.403 . S
C4108 C4109 1.404 . S
C4108 C4111 1.539 . S
C4109 C4105 1.408 . S
C4109 C4108 1.404 . S
C4109 H4121 0.930 . S
C4110 C4106 1.524 . S
C4110 H4122 0.956 . S
C4110 H4123 0.961 . S
C4110 H4124 0.961 . S
C4111 C4108 1.539 . S
C4111 H4125 0.958 . S
C4111 H4126 0.961 . S
C4111 H4127 0.960 . S
H4112 C4096 0.931 . S
H4113 C4101 0.929 . S
H4114 C4102 0.960 . S
H4115 C4102 0.962 . S
H4116 C4102 0.960 . S
H4117 C4103 0.961 . S
H4118 C4103 0.961 . S
H4119 C4103 0.961 . S
H4120 C4104 0.931 . S
H4121 C4109 0.930 . S
H4122 C4110 0.956 . S
H4123 C4110 0.961 . S
H4124 C4110 0.961 . S
H4125 C4111 0.958 . S
H4126 C4111 0.961 . S
H4127 C4111 0.960 . S
C4128 C4129 1.391 . S
C4128 C4130 1.394 . S
C4128 H4144 0.931 . S
C4129 C4128 1.391 . S
C4129 C4133 1.376 . S
C4130 C4128 1.394 . S
C4130 C4131 1.369 . S
C4130 C4134 1.531 . S
C4131 C4130 1.369 . S
C4131 C4132 1.410 . S
C4131 C4139 1.503 . S
C4132 C4131 1.410 . S
C4132 C4133 1.392 . S
C4132 C4135 1.511 . S
C4133 C4129 1.376 . S
C4133 C4132 1.392 . S
C4133 H4145 0.929 . S
C4134 C4130 1.531 . S
C4134 H4146 0.960 . S
C4134 H4147 0.962 . S
C4134 H4148 0.960 . S
C4135 C4132 1.511 . S
C4135 H4149 0.961 . S
C4135 H4150 0.961 . S
C4135 H4151 0.961 . S
C4136 C4137 1.370 . S
C4136 C4138 1.363 . S
C4136 H4152 0.931 . S
C4137 C4136 1.370 . S
C4137 C4141 1.408 . S
C4138 C4136 1.363 . S
C4138 C4139 1.370 . S
C4138 C4142 1.524 . S
C4139 C4131 1.503 . S
C4139 C4138 1.370 . S
C4139 C4140 1.403 . S
C4140 C4139 1.403 . S
C4140 C4141 1.404 . S
C4140 C4143 1.539 . S
C4141 C4137 1.408 . S
C4141 C4140 1.404 . S
C4141 H4153 0.930 . S
C4142 C4138 1.524 . S
C4142 H4154 0.956 . S
C4142 H4155 0.961 . S
C4142 H4156 0.961 . S
C4143 C4140 1.539 . S
C4143 H4157 0.958 . S
C4143 H4158 0.961 . S
C4143 H4159 0.960 . S
H4144 C4128 0.931 . S
H4145 C4133 0.929 . S
H4146 C4134 0.960 . S
H4147 C4134 0.962 . S
H4148 C4134 0.960 . S
H4149 C4135 0.961 . S
H4150 C4135 0.961 . S
H4151 C4135 0.961 . S
H4152 C4136 0.931 . S
H4153 C4141 0.930 . S
H4154 C4142 0.956 . S
H4155 C4142 0.961 . S
H4156 C4142 0.961 . S
H4157 C4143 0.958 . S
H4158 C4143 0.961 . S
H4159 C4143 0.960 . S
C4160 C4161 1.391 . S
C4160 C4162 1.394 . S
C4160 H4176 0.931 . S
C4161 C4160 1.391 . S
C4161 C4165 1.376 . S
C4162 C4160 1.394 . S
C4162 C4163 1.369 . S
C4162 C4166 1.531 . S
C4163 C4162 1.369 . S
C4163 C4164 1.410 . S
C4163 C4171 1.503 . S
C4164 C4163 1.410 . S
C4164 C4165 1.392 . S
C4164 C4167 1.511 . S
C4165 C4161 1.376 . S
C4165 C4164 1.392 . S
C4165 H4177 0.929 . S
C4166 C4162 1.531 . S
C4166 H4178 0.960 . S
C4166 H4179 0.962 . S
C4166 H4180 0.960 . S
C4167 C4164 1.511 . S
C4167 H4181 0.961 . S
C4167 H4182 0.961 . S
C4167 H4183 0.961 . S
C4168 C4169 1.370 . S
C4168 C4170 1.363 . S
C4168 H4184 0.931 . S
C4169 C4168 1.370 . S
C4169 C4173 1.408 . S
C4170 C4168 1.363 . S
C4170 C4171 1.370 . S
C4170 C4174 1.524 . S
C4171 C4163 1.503 . S
C4171 C4170 1.370 . S
C4171 C4172 1.403 . S
C4172 C4171 1.403 . S
C4172 C4173 1.404 . S
C4172 C4175 1.539 . S
C4173 C4169 1.408 . S
C4173 C4172 1.404 . S
C4173 H4185 0.930 . S
C4174 C4170 1.524 . S
C4174 H4186 0.956 . S
C4174 H4187 0.961 . S
C4174 H4188 0.961 . S
C4175 C4172 1.539 . S
C4175 H4189 0.958 . S
C4175 H4190 0.961 . S
C4175 H4191 0.960 . S
H4176 C4160 0.931 . S
H4177 C4165 0.929 . S
H4178 C4166 0.960 . S
H4179 C4166 0.962 . S
H4180 C4166 0.960 . S
H4181 C4167 0.961 . S
H4182 C4167 0.961 . S
H4183 C4167 0.961 . S
H4184 C4168 0.931 . S
H4185 C4173 0.930 . S
H4186 C4174 0.956 . S
H4187 C4174 0.961 . S
H4188 C4174 0.961 . S
H4189 C4175 0.958 . S
H4190 C4175 0.961 . S
H4191 C4175 0.960 . S
C4192 C4193 1.391 . S
C4192 C4194 1.394 . S
C4192 H4208 0.931 . S
C4193 C4192 1.391 . S
C4193 C4197 1.376 . S
C4194 C4192 1.394 . S
C4194 C4195 1.369 . S
C4194 C4198 1.531 . S
C4195 C4194 1.369 . S
C4195 C4196 1.410 . S
C4195 C4203 1.503 . S
C4196 C4195 1.410 . S
C4196 C4197 1.392 . S
C4196 C4199 1.511 . S
C4197 C4193 1.376 . S
C4197 C4196 1.392 . S
C4197 H4209 0.929 . S
C4198 C4194 1.531 . S
C4198 H4210 0.960 . S
C4198 H4211 0.962 . S
C4198 H4212 0.960 . S
C4199 C4196 1.511 . S
C4199 H4213 0.961 . S
C4199 H4214 0.961 . S
C4199 H4215 0.961 . S
C4200 C4201 1.370 . S
C4200 C4202 1.363 . S
C4200 H4216 0.931 . S
C4201 C4200 1.370 . S
C4201 C4205 1.408 . S
C4202 C4200 1.363 . S
C4202 C4203 1.370 . S
C4202 C4206 1.524 . S
C4203 C4195 1.503 . S
C4203 C4202 1.370 . S
C4203 C4204 1.403 . S
C4204 C4203 1.403 . S
C4204 C4205 1.404 . S
C4204 C4207 1.539 . S
C4205 C4201 1.408 . S
C4205 C4204 1.404 . S
C4205 H4217 0.930 . S
C4206 C4202 1.524 . S
C4206 H4218 0.956 . S
C4206 H4219 0.961 . S
C4206 H4220 0.961 . S
C4207 C4204 1.539 . S
C4207 H4221 0.958 . S
C4207 H4222 0.961 . S
C4207 H4223 0.960 . S
H4208 C4192 0.931 . S
H4209 C4197 0.929 . S
H4210 C4198 0.960 . S
H4211 C4198 0.962 . S
H4212 C4198 0.960 . S
H4213 C4199 0.961 . S
H4214 C4199 0.961 . S
H4215 C4199 0.961 . S
H4216 C4200 0.931 . S
H4217 C4205 0.930 . S
H4218 C4206 0.956 . S
H4219 C4206 0.961 . S
H4220 C4206 0.961 . S
H4221 C4207 0.958 . S
H4222 C4207 0.961 . S
H4223 C4207 0.960 . S
C4224 C4225 1.391 . S
C4224 C4226 1.394 . S
C4224 H4240 0.931 . S
C4225 C4224 1.391 . S
C4225 C4229 1.376 . S
C4226 C4224 1.394 . S
C4226 C4227 1.369 . S
C4226 C4230 1.531 . S
C4227 C4226 1.369 . S
C4227 C4228 1.410 . S
C4227 C4235 1.503 . S
C4228 C4227 1.410 . S
C4228 C4229 1.392 . S
C4228 C4231 1.511 . S
C4229 C4225 1.376 . S
C4229 C4228 1.392 . S
C4229 H4241 0.929 . S
C4230 C4226 1.531 . S
C4230 H4242 0.960 . S
C4230 H4243 0.962 . S
C4230 H4244 0.960 . S
C4231 C4228 1.511 . S
C4231 H4245 0.961 . S
C4231 H4246 0.961 . S
C4231 H4247 0.961 . S
C4232 C4233 1.370 . S
C4232 C4234 1.363 . S
C4232 H4248 0.931 . S
C4233 C4232 1.370 . S
C4233 C4237 1.408 . S
C4234 C4232 1.363 . S
C4234 C4235 1.370 . S
C4234 C4238 1.524 . S
C4235 C4227 1.503 . S
C4235 C4234 1.370 . S
C4235 C4236 1.403 . S
C4236 C4235 1.403 . S
C4236 C4237 1.404 . S
C4236 C4239 1.539 . S
C4237 C4233 1.408 . S
C4237 C4236 1.404 . S
C4237 H4249 0.930 . S
C4238 C4234 1.524 . S
C4238 H4250 0.956 . S
C4238 H4251 0.961 . S
C4238 H4252 0.961 . S
C4239 C4236 1.539 . S
C4239 H4253 0.958 . S
C4239 H4254 0.961 . S
C4239 H4255 0.960 . S
H4240 C4224 0.931 . S
H4241 C4229 0.929 . S
H4242 C4230 0.960 . S
H4243 C4230 0.962 . S
H4244 C4230 0.960 . S
H4245 C4231 0.961 . S
H4246 C4231 0.961 . S
H4247 C4231 0.961 . S
H4248 C4232 0.931 . S
H4249 C4237 0.930 . S
H4250 C4238 0.956 . S
H4251 C4238 0.961 . S
H4252 C4238 0.961 . S
H4253 C4239 0.958 . S
H4254 C4239 0.961 . S
H4255 C4239 0.960 . S
C4256 C4257 1.391 . S
C4256 C4258 1.394 . S
C4256 H4272 0.931 . S
C4257 C4256 1.391 . S
C4257 C4261 1.376 . S
C4258 C4256 1.394 . S
C4258 C4259 1.369 . S
C4258 C4262 1.531 . S
C4259 C4258 1.369 . S
C4259 C4260 1.410 . S
C4259 C4267 1.503 . S
C4260 C4259 1.410 . S
C4260 C4261 1.392 . S
C4260 C4263 1.511 . S
C4261 C4257 1.376 . S
C4261 C4260 1.392 . S
C4261 H4273 0.929 . S
C4262 C4258 1.531 . S
C4262 H4274 0.960 . S
C4262 H4275 0.962 . S
C4262 H4276 0.960 . S
C4263 C4260 1.511 . S
C4263 H4277 0.961 . S
C4263 H4278 0.961 . S
C4263 H4279 0.961 . S
C4264 C4265 1.370 . S
C4264 C4266 1.363 . S
C4264 H4280 0.931 . S
C4265 C4264 1.370 . S
C4265 C4269 1.408 . S
C4266 C4264 1.363 . S
C4266 C4267 1.370 . S
C4266 C4270 1.524 . S
C4267 C4259 1.503 . S
C4267 C4266 1.370 . S
C4267 C4268 1.403 . S
C4268 C4267 1.403 . S
C4268 C4269 1.404 . S
C4268 C4271 1.539 . S
C4269 C4265 1.408 . S
C4269 C4268 1.404 . S
C4269 H4281 0.930 . S
C4270 C4266 1.524 . S
C4270 H4282 0.956 . S
C4270 H4283 0.961 . S
C4270 H4284 0.961 . S
C4271 C4268 1.539 . S
C4271 H4285 0.958 . S
C4271 H4286 0.961 . S
C4271 H4287 0.960 . S
H4272 C4256 0.931 . S
H4273 C4261 0.929 . S
H4274 C4262 0.960 . S
H4275 C4262 0.962 . S
H4276 C4262 0.960 . S
H4277 C4263 0.961 . S
H4278 C4263 0.961 . S
H4279 C4263 0.961 . S
H4280 C4264 0.931 . S
H4281 C4269 0.930 . S
H4282 C4270 0.956 . S
H4283 C4270 0.961 . S
H4284 C4270 0.961 . S
H4285 C4271 0.958 . S
H4286 C4271 0.961 . S
H4287 C4271 0.960 . S
C4288 C4289 1.391 . S
C4288 C4290 1.394 . S
C4288 H4304 0.931 . S
C4289 C4288 1.391 . S
C4289 C4293 1.376 . S
C4290 C4288 1.394 . S
C4290 C4291 1.369 . S
C4290 C4294 1.531 . S
C4291 C4290 1.369 . S
C4291 C4292 1.410 . S
C4291 C4299 1.503 . S
C4292 C4291 1.410 . S
C4292 C4293 1.392 . S
C4292 C4295 1.511 . S
C4293 C4289 1.376 . S
C4293 C4292 1.392 . S
C4293 H4305 0.929 . S
C4294 C4290 1.531 . S
C4294 H4306 0.960 . S
C4294 H4307 0.962 . S
C4294 H4308 0.960 . S
C4295 C4292 1.511 . S
C4295 H4309 0.961 . S
C4295 H4310 0.961 . S
C4295 H4311 0.961 . S
C4296 C4297 1.370 . S
C4296 C4298 1.363 . S
C4296 H4312 0.931 . S
C4297 C4296 1.370 . S
C4297 C4301 1.408 . S
C4298 C4296 1.363 . S
C4298 C4299 1.370 . S
C4298 C4302 1.524 . S
C4299 C4291 1.503 . S
C4299 C4298 1.370 . S
C4299 C4300 1.403 . S
C4300 C4299 1.403 . S
C4300 C4301 1.404 . S
C4300 C4303 1.539 . S
C4301 C4297 1.408 . S
C4301 C4300 1.404 . S
C4301 H4313 0.930 . S
C4302 C4298 1.524 . S
C4302 H4314 0.956 . S
C4302 H4315 0.961 . S
C4302 H4316 0.961 . S
C4303 C4300 1.539 . S
C4303 H4317 0.958 . S
C4303 H4318 0.961 . S
C4303 H4319 0.960 . S
H4304 C4288 0.931 . S
H4305 C4293 0.929 . S
H4306 C4294 0.960 . S
H4307 C4294 0.962 . S
H4308 C4294 0.960 . S
H4309 C4295 0.961 . S
H4310 C4295 0.961 . S
H4311 C4295 0.961 . S
H4312 C4296 0.931 . S
H4313 C4301 0.930 . S
H4314 C4302 0.956 . S
H4315 C4302 0.961 . S
H4316 C4302 0.961 . S
H4317 C4303 0.958 . S
H4318 C4303 0.961 . S
H4319 C4303 0.960 . S
C4320 C4321 1.391 . S
C4320 C4322 1.394 . S
C4320 H4336 0.931 . S
C4321 C4320 1.391 . S
C4321 C4325 1.376 . S
C4322 C4320 1.394 . S
C4322 C4323 1.369 . S
C4322 C4326 1.531 . S
C4323 C4322 1.369 . S
C4323 C4324 1.410 . S
C4323 C4331 1.503 . S
C4324 C4323 1.410 . S
C4324 C4325 1.392 . S
C4324 C4327 1.511 . S
C4325 C4321 1.376 . S
C4325 C4324 1.392 . S
C4325 H4337 0.929 . S
C4326 C4322 1.531 . S
C4326 H4338 0.960 . S
C4326 H4339 0.962 . S
C4326 H4340 0.960 . S
C4327 C4324 1.511 . S
C4327 H4341 0.961 . S
C4327 H4342 0.961 . S
C4327 H4343 0.961 . S
C4328 C4329 1.370 . S
C4328 C4330 1.363 . S
C4328 H4344 0.931 . S
C4329 C4328 1.370 . S
C4329 C4333 1.408 . S
C4330 C4328 1.363 . S
C4330 C4331 1.370 . S
C4330 C4334 1.524 . S
C4331 C4323 1.503 . S
C4331 C4330 1.370 . S
C4331 C4332 1.403 . S
C4332 C4331 1.403 . S
C4332 C4333 1.404 . S
C4332 C4335 1.539 . S
C4333 C4329 1.408 . S
C4333 C4332 1.404 . S
C4333 H4345 0.930 . S
C4334 C4330 1.524 . S
C4334 H4346 0.956 . S
C4334 H4347 0.961 . S
C4334 H4348 0.961 . S
C4335 C4332 1.539 . S
C4335 H4349 0.958 . S
C4335 H4350 0.961 . S
C4335 H4351 0.960 . S
H4336 C4320 0.931 . S
H4337 C4325 0.929 . S
H4338 C4326 0.960 . S
H4339 C4326 0.962 . S
H4340 C4326 0.960 . S
H4341 C4327 0.961 . S
H4342 C4327 0.961 . S
H4343 C4327 0.961 . S
H4344 C4328 0.931 . S
H4345 C4333 0.930 . S
H4346 C4334 0.956 . S
H4347 C4334 0.961 . S
H4348 C4334 0.961 . S
H4349 C4335 0.958 . S
H4350 C4335 0.961 . S
H4351 C4335 0.960 . S
C1281 C6 1.080 . S
C1289 C139 1.052 . S
C1313 C19 1.079 . S
C1321 C46 1.080 1_545 S
C1345 C86 1.082 . S
C1353 C59 1.050 . S
C1377 C99 1.079 . S
C1385 C126 1.080 1_565 S
C1409 C219 1.081 . S
C1417 C166 1.081 . S
C1441 C206 1.078 . S
C1449 C259 1.031 . S
C1473 C299 0.985 . S
C1481 C246 1.075 . S
C1505 C179 1.074 . S
C1513 C286 1.041 1_565 S
C1537 C335 1.073 . S
C1545 C450 1.028 . S
C1569 C375 1.093 . S
C1577 C330 1.015 . S
C1601 C415 1.074 . S
C1609 C370 1.033 . S
C1633 C455 1.082 1_545 S
C1641 C410 1.052 . S
C1665 C495 1.080 . S
C1673 C530 1.049 . S
C1697 C535 1.089 . S
C1705 C570 1.016 . S
C1729 C610 1.067 . S
C1737 C575 1.080 . S
C1761 C490 1.076 . S
C1769 C615 1.080 1_545 S
C1793 C646 1.079 . S
C1801 C779 1.050 . S
C1825 C659 1.047 . S
C1833 C686 1.077 . S
C1857 C699 1.038 . S
C1865 C726 1.079 . S
C1889 C766 1.070 . S
C1897 C739 1.027 . S
C1921 C806 1.073 . S
C1929 C859 1.024 . S
C1953 C899 0.983 . S
C1961 C846 1.074 . S
C1985 C886 1.073 . S
C1993 C939 1.024 . S
C2017 C819 0.983 . S
C2025 C926 1.074 . S
C2049 C1090 1.014 . S
C2057 C975 1.076 . S
C2081 C970 1.002 . S
C2089 C1015 1.076 . S
C2113 C1055 1.073 . S
C2121 C1010 1.031 . S
C2145 C1050 0.986 . S
C2153 C1095 1.074 . S
C2177 C1170 1.019 . S
C2185 C1135 1.076 . S
C2209 C1210 0.986 . S
C2217 C1175 1.074 . S
C2241 C1250 1.053 . S
C2249 C1215 1.079 . S
C2273 C1255 1.083 . S
C2281 C1130 1.055 . S
C2305 C1086 1.604 . S
C2313 C9 1.530 . S
C2337 C49 1.500 . S
C2345 C326 1.572 1_455 S
C2369 C89 1.507 . S
C2377 C1006 1.596 . S
C2401 C129 1.539 . S
C2409 C406 1.596 . S
C2433 C169 1.511 . S
C2441 C1166 1.595 . S
C2465 C566 1.584 . S
C2473 C209 1.534 . S
C2497 C1246 1.583 . S
C2505 C249 1.534 . S
C2529 C289 1.562 . S
C2537 C486 1.568 1_455 S
C2561 C338 1.514 . S
C2569 C775 1.600 . S
C2593 C15 1.542 1_655 S
C2601 C378 1.544 . S
C2625 C695 1.593 . S
C2633 C418 1.545 . S
C2657 C95 1.607 . S
C2665 C458 1.527 . S
C2689 C855 1.590 . S
C2697 C498 1.547 . S
C2721 C255 1.607 . S
C2729 C538 1.526 . S
C2753 C578 1.504 . S
C2761 C935 1.594 . S
C2785 C618 1.499 . S
C2793 C175 1.566 1_655 S
C2817 C649 1.560 . S
C2825 C446 1.591 . S
C2849 C689 1.561 . S
C2857 C966 1.586 . S
C2881 C729 1.565 . S
C2889 C366 1.586 . S
C2913 C769 1.546 . S
C2921 C1046 1.557 1_655 S
C2945 C809 1.563 . S
C2953 C526 1.589 . S
C2977 C849 1.565 . S
C2985 C1206 1.573 1_655 S
C3009 C606 1.571 . S
C3017 C889 1.548 . S
C3041 C929 1.563 . S
C3049 C1126 1.589 . S
C3073 C135 1.587 . S
C3081 C978 1.549 . S
C3105 C655 1.606 . S
C3113 C1018 1.531 . S
C3137 C55 1.574 . S
C3145 C1058 1.550 . S
C3169 C735 1.561 1_455 S
C3177 C1098 1.548 . S
C3201 C215 1.588 . S
C3209 C1138 1.527 . S
C3233 C1178 1.567 . S
C3241 C895 1.589 1_455 S
C3265 C1218 1.544 . S
C3273 C295 1.586 . S
C3297 C815 1.607 . S
C3305 C1258 1.527 . S
C3329 C18 0.709 . S
C3337 C178 0.687 . S
C3361 C58 0.650 . S
C3369 C218 0.631 . S
C3393 C98 0.722 . S
C3401 C258 0.655 . S
C3425 C298 0.689 . S
C3433 C138 0.690 . S
C3457 C489 0.680 . S
C3465 C329 0.631 . S
C3489 C529 0.678 . S
C3497 C369 0.689 . S
C3521 C409 0.675 . S
C3529 C569 0.689 . S
C3553 C449 0.730 . S
C3561 C609 0.665 . S
C3585 C658 0.728 . S
C3593 C818 0.677 . S
C3617 C858 0.601 . S
C3625 C698 0.638 . S
C3649 C898 0.594 . S
C3657 C738 0.662 . S
C3681 C938 0.609 . S
C3689 C778 0.635 . S
C3713 C1129 0.663 . S
C3721 C969 0.631 . S
C3745 C1009 0.730 . S
C3753 C1169 0.658 . S
C3777 C1209 0.674 . S
C3785 C1049 0.631 . S
C3809 C1089 0.730 . S
C3817 C1249 0.664 . S
C3841 C290 2.715 . S
C3849 C10 2.722 . S
C3873 C50 2.719 . S
C3881 C170 2.723 . S
C3905 C90 2.712 . S
C3913 C210 2.725 . S
C3937 C250 2.713 . S
C3945 C130 2.725 . S
C3969 C339 2.715 . S
C3977 C619 2.722 . S
C4001 C499 2.714 . S
C4009 C379 2.722 . S
C4033 C539 2.713 . S
C4041 C419 2.725 . S
C4065 C459 2.715 . S
C4073 C579 2.722 . S
C4097 C650 2.722 . S
C4105 C930 2.721 . S
C4129 C810 2.712 . S
C4137 C690 2.725 . S
C4161 C850 2.719 . S
C4169 C730 2.724 . S
C4193 C890 2.713 . S
C4201 C770 2.725 . S
C4225 C979 2.713 . S
C4233 C1259 2.723 . S
C4257 C1139 2.716 . S
C4265 C1019 2.722 . S
C4289 C1059 2.722 . S
C4297 C1179 2.722 . S
C4321 C1219 2.720 . S
C4329 C1099 2.723 . S
