# Generated by pormake.
# Topology wld, (5)-cn, num edge types: 1
# Building blocks:
#     Node 0, Type 0, BuildingBlock: BEQFEK_clean_sbu_0, # of connection points: 5
#     Node 1, Type 0, BuildingBlock: BEQFEK_clean_sbu_0, # of connection points: 5
#     Node 2, Type 0, BuildingBlock: BEQFEK_clean_sbu_0, # of connection points: 5
#     Node 3, Type 0, BuildingBlock: BEQFEK_clean_sbu_0, # of connection points: 5
#     Node 4, Type 0, BuildingBlock: BEQFEK_clean_sbu_0, # of connection points: 5
#     Node 5, Type 0, BuildingBlock: BEQFEK_clean_sbu_0, # of connection points: 5
#     Node 6, Type 0, BuildingBlock: BEQFEK_clean_sbu_0, # of connection points: 5
#     Node 7, Type 0, BuildingBlock: BEQFEK_clean_sbu_0, # of connection points: 5
#     Node 8, Type 0, BuildingBlock: BEQFEK_clean_sbu_0, # of connection points: 5
#     Node 9, Type 0, BuildingBlock: BEQFEK_clean_sbu_0, # of connection points: 5
#     Node 10, Type 0, BuildingBlock: BEQFEK_clean_sbu_0, # of connection points: 5
#     Node 11, Type 0, BuildingBlock: BEQFEK_clean_sbu_0, # of connection points: 5
#     Edge 12, Type (0, 0), BuildingBlock: XUDNAN_clean_linker_2, # of connection points: 2
#     Edge 13, Type (0, 0), BuildingBlock: XUDNAN_clean_linker_2, # of connection points: 2
#     Edge 14, Type (0, 0), BuildingBlock: XUDNAN_clean_linker_2, # of connection points: 2
#     Edge 15, Type (0, 0), BuildingBlock: XUDNAN_clean_linker_2, # of connection points: 2
#     Edge 16, Type (0, 0), BuildingBlock: XUDNAN_clean_linker_2, # of connection points: 2
#     Edge 17, Type (0, 0), BuildingBlock: XUDNAN_clean_linker_2, # of connection points: 2
#     Edge 18, Type (0, 0), BuildingBlock: XUDNAN_clean_linker_2, # of connection points: 2
#     Edge 19, Type (0, 0), BuildingBlock: XUDNAN_clean_linker_2, # of connection points: 2
#     Edge 20, Type (0, 0), BuildingBlock: XUDNAN_clean_linker_2, # of connection points: 2
#     Edge 21, Type (0, 0), BuildingBlock: XUDNAN_clean_linker_2, # of connection points: 2
#     Edge 22, Type (0, 0), BuildingBlock: XUDNAN_clean_linker_2, # of connection points: 2
#     Edge 23, Type (0, 0), BuildingBlock: XUDNAN_clean_linker_2, # of connection points: 2
#     Edge 24, Type (0, 0), BuildingBlock: XUDNAN_clean_linker_2, # of connection points: 2
#     Edge 25, Type (0, 0), BuildingBlock: XUDNAN_clean_linker_2, # of connection points: 2
#     Edge 26, Type (0, 0), BuildingBlock: XUDNAN_clean_linker_2, # of connection points: 2
#     Edge 27, Type (0, 0), BuildingBlock: XUDNAN_clean_linker_2, # of connection points: 2
#     Edge 28, Type (0, 0), BuildingBlock: XUDNAN_clean_linker_2, # of connection points: 2
#     Edge 29, Type (0, 0), BuildingBlock: XUDNAN_clean_linker_2, # of connection points: 2
#     Edge 30, Type (0, 0), BuildingBlock: XUDNAN_clean_linker_2, # of connection points: 2
#     Edge 31, Type (0, 0), BuildingBlock: XUDNAN_clean_linker_2, # of connection points: 2
#     Edge 32, Type (0, 0), BuildingBlock: XUDNAN_clean_linker_2, # of connection points: 2
#     Edge 33, Type (0, 0), BuildingBlock: XUDNAN_clean_linker_2, # of connection points: 2
#     Edge 34, Type (0, 0), BuildingBlock: XUDNAN_clean_linker_2, # of connection points: 2
#     Edge 35, Type (0, 0), BuildingBlock: XUDNAN_clean_linker_2, # of connection points: 2
#     Edge 36, Type (0, 0), BuildingBlock: XUDNAN_clean_linker_2, # of connection points: 2
#     Edge 37, Type (0, 0), BuildingBlock: XUDNAN_clean_linker_2, # of connection points: 2
#     Edge 38, Type (0, 0), BuildingBlock: XUDNAN_clean_linker_2, # of connection points: 2
#     Edge 39, Type (0, 0), BuildingBlock: XUDNAN_clean_linker_2, # of connection points: 2
#     Edge 40, Type (0, 0), BuildingBlock: XUDNAN_clean_linker_2, # of connection points: 2
#     Edge 41, Type (0, 0), BuildingBlock: XUDNAN_clean_linker_2, # of connection points: 2
# Relax obj value: 0.307
# Max RMSD: 0.212
# Mean RMSD: 0.212
data_MOF--net-wld--node1-BEQFEK_clean_sbu_0--edge1-XUDNAN_clean_linker_2
_symmetry_space_group_name_H-M    P1
_symmetry_Int_Tables_number       1
_symmetry_cell_setting            triclinic
loop_
_symmetry_equiv_pos_as_xyz
'x, y, z'
_cell_length_a     39.994202
_cell_length_b     39.96665
_cell_length_c     41.800567
_cell_angle_alpha  90.063752
_cell_angle_beta   90.02284
_cell_angle_gamma 120.01131
loop_
_atom_site_label
_atom_site_type_symbol
_atom_site_fract_x
_atom_site_fract_y
_atom_site_fract_z
_atom_type_partial_charge
Co0 Co 0.38089 0.26637 0.11412 0.0
Co1 Co 0.40228 0.2196 0.16222 0.0
C2 C 0.45428 0.30538 0.14836 0.0
O3 O 0.43504 0.30754 0.12495 0.0
O4 O 0.44285 0.27394 0.16336 0.0
C5 C 0.36231 0.29902 0.05647 0.0
O6 O 0.38874 0.2968 0.03949 0.0
C7 C 0.45737 0.1937 0.17236 0.0
C8 C 0.43708 0.15856 0.21628 0.0
C9 C 0.4657 0.17184 0.19309 0.0
N10 N 0.42493 0.19273 0.18231 0.0
N11 N 0.41288 0.17167 0.20862 0.0
C12 C 0.4808 0.21671 0.14425 0.0
H13 H 0.47135 0.23694 0.13585 0.0
H14 H 0.47708 0.19693 0.12422 0.0
H15 H 0.51192 0.23288 0.15065 0.0
C16 C 0.35823 0.19501 0.07455 0.0
N17 N 0.37615 0.21869 0.09969 0.0
N18 N 0.38595 0.20015 0.12032 0.0
C19 C 0.37502 0.16462 0.109 0.0
C20 C 0.35709 0.16013 0.07973 0.0
C21 C 0.3374 0.20306 0.04867 0.0
H22 H 0.32207 0.21725 0.0589 0.0
H23 H 0.3587 0.22272 0.03088 0.0
H24 H 0.31632 0.17613 0.03619 0.0
O25 O 0.34961 0.25507 0.15352 0.0
O26 O 0.35836 0.21652 0.18654 0.0
H27 H 0.36753 0.13201 0.15183 0.0
H28 H 0.36386 0.1057 0.11556 0.0
C29 C 0.37888 0.1344 0.12723 0.0
H30 H 0.40973 0.14295 0.12873 0.0
H31 H 0.38848 0.16666 0.22153 0.0
O32 O 0.3565 0.28782 0.0854 0.0
C33 C 0.34152 0.23545 0.17924 0.0
Co34 Co 0.73552 0.12161 0.10723 0.0
Co35 Co 0.78373 0.18967 0.15537 0.0
C36 C 0.6975 0.15558 0.14512 0.0
O37 O 0.69471 0.13335 0.12211 0.0
O38 O 0.72953 0.17677 0.15914 0.0
C39 C 0.69757 0.06892 0.05009 0.0
O40 O 0.69528 0.09571 0.03369 0.0
C41 C 0.80883 0.2688 0.1728 0.0
C42 C 0.8636 0.28743 0.19854 0.0
C43 C 0.84036 0.30088 0.18607 0.0
N44 N 0.8135 0.23803 0.17681 0.0
N45 N 0.84572 0.24905 0.19305 0.0
C46 C 0.77847 0.26853 0.15156 0.0
H47 H 0.76816 0.24466 0.1339 0.0
H48 H 0.78967 0.29629 0.13856 0.0
H49 H 0.75364 0.26411 0.16647 0.0
C50 C 0.80004 0.174 0.06339 0.0
N51 N 0.78073 0.16579 0.09142 0.0
N52 N 0.80026 0.19454 0.11156 0.0
C53 C 0.83194 0.22234 0.0966 0.0
C54 C 0.83303 0.21016 0.0657 0.0
C55 C 0.78948 0.1462 0.03616 0.0
H56 H 0.7774 0.11639 0.04538 0.0
H57 H 0.76745 0.14774 0.02113 0.0
H58 H 0.81496 0.15327 0.02102 0.0
O59 O 0.75116 0.10117 0.14353 0.0
O60 O 0.78782 0.14788 0.17777 0.0
H61 H 0.87308 0.25622 0.13276 0.0
H62 H 0.88265 0.28014 0.09445 0.0
C63 C 0.85971 0.26068 0.11117 0.0
H64 H 0.84391 0.27564 0.11802 0.0
H65 H 0.85685 0.231 0.19837 0.0
O66 O 0.71268 0.07635 0.0778 0.0
C67 C 0.77135 0.11264 0.16892 0.0
Co68 Co 0.88434 0.62725 0.11164 0.0
Co69 Co 0.81864 0.59067 0.16305 0.0
C70 C 0.85785 0.5486 0.13566 0.0
O71 O 0.8789 0.57529 0.11609 0.0
O72 O 0.83475 0.55208 0.1544 0.0
C73 C 0.94284 0.64653 0.06276 0.0
O74 O 0.94126 0.61388 0.07035 0.0
C75 C 0.73949 0.53165 0.17728 0.0
C76 C 0.72636 0.55326 0.2214 0.0
C77 C 0.71003 0.52419 0.19859 0.0
N78 N 0.7714 0.5643 0.18643 0.0
N79 N 0.76351 0.57686 0.21305 0.0
C80 C 0.73737 0.50813 0.14855 0.0
H81 H 0.72733 0.51762 0.12754 0.0
H82 H 0.71677 0.477 0.15273 0.0
H83 H 0.76601 0.51205 0.14266 0.0
C84 C 0.82683 0.64236 0.08014 0.0
N85 N 0.83698 0.62558 0.10323 0.0
N86 N 0.80979 0.61116 0.12514 0.0
C87 C 0.78157 0.61864 0.1169 0.0
C88 C 0.79144 0.63869 0.08813 0.0
C89 C 0.85299 0.66574 0.05342 0.0
H90 H 0.87949 0.69041 0.06362 0.0
H91 H 0.86177 0.64766 0.03961 0.0
H92 H 0.8391 0.6771 0.03716 0.0
O93 O 0.90699 0.65625 0.15174 0.0
O94 O 0.86047 0.63336 0.18847 0.0
H95 H 0.7554 0.6178 0.16191 0.0
H96 H 0.72916 0.62057 0.12777 0.0
C97 C 0.74656 0.60815 0.13691 0.0
H98 H 0.72752 0.57645 0.13672 0.0
H99 H 0.78318 0.60201 0.22507 0.0
O100 O 0.92125 0.65648 0.0772 0.0
C101 C 0.89524 0.65672 0.17999 0.0
Co102 Co 0.27352 0.38185 0.39162 0.0
Co103 Co 0.23726 0.41493 0.34343 0.0
C104 C 0.32153 0.4593 0.36103 0.0
O105 O 0.31843 0.43299 0.38002 0.0
O106 O 0.29241 0.45589 0.34582 0.0
C107 C 0.30179 0.37142 0.4523 0.0
O108 O 0.30341 0.40388 0.46071 0.0
C109 C 0.21472 0.47118 0.3259 0.0
C110 C 0.16907 0.44052 0.2897 0.0
C111 C 0.18812 0.47462 0.30702 0.0
N112 N 0.21095 0.4363 0.32062 0.0
N113 N 0.18389 0.4182 0.29872 0.0
C114 C 0.24432 0.50075 0.34795 0.0
H115 H 0.24998 0.48635 0.36822 0.0
H116 H 0.23556 0.52119 0.35719 0.0
H117 H 0.27162 0.51769 0.33449 0.0
C118 C 0.20616 0.36994 0.43061 0.0
N119 N 0.22938 0.38426 0.40486 0.0
N120 N 0.21471 0.39921 0.38508 0.0
C121 C 0.1824 0.39606 0.39827 0.0
C122 C 0.176 0.37742 0.42753 0.0
C123 C 0.20925 0.34451 0.45533 0.0
H124 H 0.22102 0.32723 0.44455 0.0
H125 H 0.22861 0.3627 0.47484 0.0
H126 H 0.18063 0.32444 0.46591 0.0
O127 O 0.25869 0.34737 0.35491 0.0
O128 O 0.23327 0.36948 0.31915 0.0
H129 H 0.14836 0.39813 0.35955 0.0
H130 H 0.13344 0.40578 0.39838 0.0
C131 C 0.15856 0.4113 0.38348 0.0
H132 H 0.17657 0.44297 0.38076 0.0
H133 H 0.17494 0.39031 0.29047 0.0
O134 O 0.29033 0.35787 0.42445 0.0
C135 C 0.24304 0.34494 0.32791 0.0
Co136 Co 0.62298 0.88846 0.3795 0.0
Co137 Co 0.60317 0.81976 0.33178 0.0
C138 C 0.5463 0.84654 0.34871 0.0
O139 O 0.56716 0.87187 0.3695 0.0
O140 O 0.55888 0.82736 0.33395 0.0
C141 C 0.63026 0.92657 0.44003 0.0
O142 O 0.59947 0.89371 0.44768 0.0
C143 C 0.55073 0.73857 0.32004 0.0
C144 C 0.58041 0.72199 0.28429 0.0
C145 C 0.54767 0.70731 0.30331 0.0
N146 N 0.58364 0.77043 0.31141 0.0
N147 N 0.60097 0.76049 0.28954 0.0
C148 C 0.52617 0.73681 0.34777 0.0
H149 H 0.54059 0.76374 0.36211 0.0
H150 H 0.52 0.71189 0.36336 0.0
H151 H 0.49811 0.73224 0.33878 0.0
C152 C 0.65023 0.84266 0.41818 0.0
N153 N 0.63116 0.84703 0.39317 0.0
N154 N 0.62186 0.81835 0.37295 0.0
C155 C 0.63383 0.79472 0.38459 0.0
C156 C 0.65234 0.80937 0.41346 0.0
C157 C 0.67098 0.87227 0.44366 0.0
H158 H 0.68535 0.90163 0.43314 0.0
H159 H 0.64984 0.87014 0.46183 0.0
H160 H 0.69296 0.86757 0.45584 0.0
O161 O 0.6541 0.91116 0.34023 0.0
O162 O 0.64425 0.86338 0.30703 0.0
H163 H 0.64274 0.76792 0.34358 0.0
H164 H 0.64217 0.74493 0.38093 0.0
C165 C 0.6293 0.75963 0.36758 0.0
H166 H 0.59824 0.73848 0.36477 0.0
H167 H 0.62764 0.7796 0.27932 0.0
O168 O 0.64412 0.93076 0.41203 0.0
C169 C 0.66109 0.89931 0.31407 0.0
Co170 Co 0.12507 0.73831 0.38579 0.0
Co171 Co 0.18833 0.78269 0.33337 0.0
C172 C 0.1524 0.69602 0.34757 0.0
O173 O 0.13297 0.69484 0.37216 0.0
O174 O 0.17226 0.72718 0.33201 0.0
C175 C 0.06145 0.69265 0.43189 0.0
O176 O 0.05672 0.66031 0.41957 0.0
C177 C 0.26367 0.79886 0.31414 0.0
C178 C 0.28787 0.85282 0.28617 0.0
C179 C 0.2968 0.8263 0.29906 0.0
N180 N 0.23614 0.80842 0.3106 0.0
N181 N 0.25055 0.84052 0.29351 0.0
C182 C 0.25981 0.76689 0.33533 0.0
H183 H 0.24155 0.76384 0.35633 0.0
H184 H 0.28839 0.77224 0.34377 0.0
H185 H 0.24568 0.73936 0.32169 0.0
C186 C 0.18289 0.80142 0.42608 0.0
N187 N 0.17156 0.78245 0.39799 0.0
N188 N 0.1977 0.80187 0.37606 0.0
C189 C 0.22684 0.83389 0.38961 0.0
C190 C 0.21835 0.83472 0.42172 0.0
C191 C 0.158 0.78979 0.45535 0.0
H192 H 0.13157 0.7912 0.45004 0.0
H193 H 0.14904 0.75946 0.46157 0.0
H194 H 0.17267 0.80882 0.47608 0.0
O195 O 0.10186 0.752 0.34999 0.0
O196 O 0.14549 0.78687 0.31296 0.0
H197 H 0.2544 0.87382 0.35125 0.0
H198 H 0.28253 0.88702 0.38773 0.0
C199 C 0.26255 0.86259 0.3723 0.0
H200 H 0.27833 0.84809 0.36387 0.0
H201 H 0.23556 0.85495 0.28811 0.0
O202 O 0.08778 0.72485 0.42117 0.0
C203 C 0.11103 0.77071 0.32377 0.0
Co204 Co 0.62456 0.73356 0.89304 0.0
Co205 Co 0.59046 0.76891 0.84497 0.0
C206 C 0.54483 0.68624 0.86672 0.0
O207 O 0.57158 0.68977 0.88538 0.0
O208 O 0.54868 0.71449 0.84996 0.0
C209 C 0.63391 0.70721 0.95418 0.0
O210 O 0.60226 0.70785 0.96139 0.0
C211 C 0.53421 0.7915 0.8271 0.0
C212 C 0.5682 0.84228 0.79628 0.0
C213 C 0.5328 0.82136 0.81146 0.0
N214 N 0.569 0.79502 0.82184 0.0
N215 N 0.58877 0.82472 0.80259 0.0
C216 C 0.50576 0.76423 0.85106 0.0
H217 H 0.52041 0.75561 0.86903 0.0
H218 H 0.49079 0.7775 0.86357 0.0
H219 H 0.48373 0.73797 0.8384 0.0
C220 C 0.64078 0.80423 0.93015 0.0
N221 N 0.62574 0.78031 0.90477 0.0
N222 N 0.6096 0.79412 0.88539 0.0
C223 C 0.61273 0.82655 0.8985 0.0
C224 C 0.63263 0.83402 0.92728 0.0
C225 C 0.66591 0.8011 0.95513 0.0
H226 H 0.6824 0.78819 0.9448 0.0
H227 H 0.64764 0.78268 0.97498 0.0
H228 H 0.68653 0.82996 0.96514 0.0
O229 O 0.65434 0.74122 0.85382 0.0
O230 O 0.63299 0.76876 0.81943 0.0
H231 H 0.60785 0.86027 0.86097 0.0
H232 H 0.59874 0.87273 0.90023 0.0
C233 C 0.595 0.84866 0.8847 0.0
H234 H 0.56363 0.82908 0.88189 0.0
H235 H 0.61731 0.83471 0.79571 0.0
O236 O 0.64829 0.71715 0.9264 0.0
C237 C 0.65528 0.75548 0.82642 0.0
Co238 Co 0.26899 0.88925 0.89613 0.0
Co239 Co 0.23253 0.82373 0.84439 0.0
C240 C 0.31511 0.85772 0.86813 0.0
O241 O 0.31273 0.88041 0.8882 0.0
O242 O 0.28661 0.83547 0.85049 0.0
C243 C 0.29678 0.93061 0.95659 0.0
O244 O 0.30188 0.90222 0.96623 0.0
C245 C 0.20534 0.74297 0.83134 0.0
C246 C 0.17885 0.73344 0.78344 0.0
C247 C 0.1867 0.71502 0.80799 0.0
N248 N 0.20785 0.77611 0.82135 0.0
N249 N 0.19184 0.77026 0.79272 0.0
C250 C 0.223 0.73918 0.86177 0.0
H251 H 0.24257 0.76787 0.87242 0.0
H252 H 0.19992 0.72223 0.87937 0.0
H253 H 0.23901 0.72361 0.85721 0.0
C254 C 0.19722 0.83464 0.93071 0.0
N255 N 0.22228 0.84363 0.90627 0.0
N256 N 0.20629 0.81686 0.88397 0.0
C257 C 0.1705 0.79012 0.89351 0.0
C258 C 0.16383 0.80036 0.92347 0.0
C259 C 0.20422 0.85943 0.95961 0.0
H260 H 0.22843 0.86078 0.97349 0.0
H261 H 0.17865 0.84779 0.97549 0.0
H262 H 0.21222 0.88911 0.95209 0.0
O263 O 0.25998 0.91171 0.85781 0.0
O264 O 0.23349 0.86715 0.81964 0.0
H265 H 0.11128 0.74989 0.88045 0.0
H266 H 0.14475 0.73303 0.87408 0.0
C267 C 0.14107 0.75869 0.87262 0.0
H268 H 0.14478 0.7685 0.84742 0.0
H269 H 0.19033 0.79149 0.77934 0.0
O270 O 0.28341 0.92972 0.92891 0.0
C271 C 0.24608 0.90156 0.82981 0.0
Co272 Co 0.11846 0.38619 0.88462 0.0
Co273 Co 0.18614 0.40352 0.83729 0.0
C274 C 0.1559 0.45896 0.84836 0.0
O275 O 0.133 0.43991 0.87106 0.0
O276 O 0.17569 0.44657 0.83423 0.0
C277 C 0.06645 0.37388 0.94083 0.0
O278 O 0.09444 0.40215 0.95709 0.0
C279 C 0.26582 0.45714 0.8223 0.0
C280 C 0.28472 0.42227 0.79495 0.0
C281 C 0.29806 0.45832 0.80885 0.0
N282 N 0.23502 0.42205 0.8169 0.0
N283 N 0.24624 0.4016 0.7998 0.0
C284 C 0.26529 0.48614 0.8448 0.0
H285 H 0.2608 0.50717 0.83083 0.0
H286 H 0.24137 0.47164 0.86224 0.0
H287 H 0.29292 0.50217 0.85808 0.0
C288 C 0.16799 0.37015 0.92892 0.0
N289 N 0.1609 0.38217 0.90085 0.0
N290 N 0.18952 0.39019 0.88097 0.0
C291 C 0.21617 0.3846 0.89613 0.0
C292 C 0.20335 0.37151 0.92697 0.0
C293 C 0.13982 0.35387 0.95593 0.0
H294 H 0.10997 0.3376 0.94649 0.0
H295 H 0.14272 0.3779 0.97117 0.0
H296 H 0.14536 0.33426 0.97093 0.0
O297 O 0.09748 0.35124 0.84764 0.0
O298 O 0.14357 0.35902 0.8137 0.0
H299 H 0.24906 0.37641 0.85969 0.0
H300 H 0.27243 0.38811 0.89835 0.0
C301 C 0.25412 0.39359 0.88182 0.0
H302 H 0.27063 0.42462 0.87578 0.0
H303 H 0.22818 0.3728 0.79325 0.0
O304 O 0.07276 0.36511 0.91317 0.0
C305 C 0.10821 0.34183 0.82222 0.0
Co306 Co 0.74137 0.6292 0.60103 0.0
Co307 Co 0.77521 0.59458 0.65042 0.0
C308 C 0.69305 0.54998 0.62459 0.0
O309 O 0.69622 0.57654 0.60593 0.0
O310 O 0.72104 0.55463 0.64208 0.0
C311 C 0.71574 0.64646 0.54192 0.0
O312 O 0.70978 0.61263 0.53223 0.0
C313 C 0.79903 0.53778 0.65374 0.0
C314 C 0.82615 0.54528 0.70111 0.0
C315 C 0.81762 0.52414 0.67297 0.0
N316 N 0.79686 0.56605 0.66934 0.0
N317 N 0.8128 0.57023 0.69787 0.0
C318 C 0.78325 0.52371 0.62087 0.0
H319 H 0.7641 0.49186 0.62129 0.0
H320 H 0.76701 0.53754 0.61193 0.0
H321 H 0.80722 0.53019 0.60411 0.0
C322 C 0.81286 0.64545 0.56575 0.0
N323 N 0.78767 0.62963 0.59019 0.0
N324 N 0.80278 0.61723 0.6119 0.0
C325 C 0.83812 0.6251 0.60206 0.0
C326 C 0.84525 0.64251 0.57237 0.0
C327 C 0.80689 0.66452 0.53729 0.0
H328 H 0.79903 0.68615 0.54529 0.0
H329 H 0.78293 0.64234 0.52268 0.0
H330 H 0.83296 0.67889 0.52198 0.0
O331 O 0.75011 0.65709 0.64173 0.0
O332 O 0.77472 0.63519 0.67855 0.0
H333 H 0.86155 0.62334 0.64802 0.0
H334 H 0.89677 0.644 0.61631 0.0
C335 C 0.86688 0.6212 0.62229 0.0
H336 H 0.86464 0.5929 0.6175 0.0
H337 H 0.81518 0.59046 0.71486 0.0
O338 O 0.72894 0.65847 0.56976 0.0
C339 C 0.76291 0.65822 0.66985 0.0
Co340 Co 0.37951 0.11645 0.60965 0.0
Co341 Co 0.41489 0.18676 0.65699 0.0
C342 C 0.46009 0.15017 0.63298 0.0
O343 O 0.43295 0.12654 0.61485 0.0
O344 O 0.45629 0.17423 0.65026 0.0
C345 C 0.36006 0.06957 0.55089 0.0
O346 O 0.38604 0.10008 0.53533 0.0
C347 C 0.47226 0.26636 0.66996 0.0
C348 C 0.44365 0.28476 0.70532 0.0
C349 C 0.4763 0.29833 0.68633 0.0
N350 N 0.4386 0.23544 0.67853 0.0
N351 N 0.42211 0.24634 0.70039 0.0
C352 C 0.49636 0.26644 0.64248 0.0
H353 H 0.47916 0.24161 0.62632 0.0
H354 H 0.50803 0.29366 0.6286 0.0
H355 H 0.52109 0.2642 0.65195 0.0
C356 C 0.35695 0.16782 0.57505 0.0
N357 N 0.3765 0.16085 0.598 0.0
N358 N 0.39248 0.19064 0.61767 0.0
C359 C 0.3843 0.21772 0.6074 0.0
C360 C 0.36126 0.20405 0.58038 0.0
C361 C 0.33077 0.13866 0.55105 0.0
H362 H 0.31685 0.10927 0.56152 0.0
H363 H 0.34803 0.13946 0.53001 0.0
H364 H 0.30821 0.14511 0.54278 0.0
O365 O 0.35274 0.09661 0.6504 0.0
O366 O 0.37439 0.1457 0.68459 0.0
H367 H 0.3858 0.25116 0.648 0.0
H368 H 0.38898 0.27434 0.61019 0.0
C369 C 0.39766 0.2559 0.62343 0.0
H370 H 0.42951 0.27192 0.62456 0.0
H371 H 0.39497 0.22813 0.71027 0.0
O372 O 0.3533 0.07222 0.58016 0.0
C373 C 0.35231 0.11003 0.67788 0.0
Co374 Co 0.88452 0.25399 0.60595 0.0
Co375 Co 0.81731 0.22039 0.65553 0.0
C376 C 0.85082 0.30107 0.62843 0.0
O377 O 0.87316 0.29699 0.60911 0.0
O378 O 0.82924 0.27413 0.64756 0.0
C379 C 0.93391 0.28093 0.54745 0.0
O380 O 0.90597 0.28069 0.53075 0.0
C381 C 0.73942 0.20044 0.67203 0.0
C382 C 0.72192 0.15347 0.70728 0.0
C383 C 0.70822 0.17345 0.68961 0.0
N384 N 0.77007 0.19646 0.67878 0.0
N385 N 0.75979 0.16906 0.70053 0.0
C386 C 0.73862 0.22491 0.64521 0.0
H387 H 0.76012 0.22886 0.62666 0.0
H388 H 0.70961 0.21179 0.63401 0.0
H389 H 0.74606 0.25372 0.65481 0.0
C390 C 0.83084 0.17951 0.57218 0.0
N391 N 0.83985 0.20578 0.59583 0.0
N392 N 0.81126 0.19235 0.61659 0.0
C393 C 0.783 0.15747 0.60651 0.0
C394 C 0.79451 0.14793 0.57823 0.0
C395 C 0.85784 0.18308 0.54595 0.0
H396 H 0.88779 0.1967 0.55524 0.0
H397 H 0.85684 0.20182 0.52686 0.0
H398 H 0.84963 0.15447 0.53544 0.0
O399 O 0.90666 0.24987 0.64699 0.0
O400 O 0.85923 0.22201 0.68233 0.0
H401 H 0.75031 0.12589 0.64744 0.0
H402 H 0.72515 0.10739 0.60995 0.0
C403 C 0.74518 0.1339 0.62331 0.0
H404 H 0.73077 0.15121 0.62579 0.0
H405 H 0.77791 0.15933 0.70918 0.0
O406 O 0.92827 0.26974 0.57636 0.0
C407 C 0.8947 0.23652 0.67485 0.0
H408 H 0.63157 0.14302 0.11293 0.0
H409 H 0.68605 0.16888 0.2065 0.0
H410 H 0.63067 0.17141 0.2293 0.0
H411 H 0.59524 0.20801 0.11981 0.0
H412 H 0.55065 0.17754 0.09894 0.0
H413 H 0.59296 0.17424 0.09004 0.0
H414 H 0.55516 0.1009 0.1024 0.0
H415 H 0.51268 0.10398 0.11127 0.0
H416 H 0.53145 0.08452 0.14053 0.0
H417 H 0.57055 0.17248 0.24224 0.0
H418 H 0.51115 0.1771 0.24334 0.0
H419 H 0.49598 0.15304 0.14153 0.0
C420 C 0.63148 0.14869 0.13826 0.0
C421 C 0.66302 0.15555 0.15797 0.0
C422 C 0.66225 0.16362 0.19092 0.0
C423 C 0.63083 0.16493 0.20417 0.0
C424 C 0.6004 0.15847 0.18417 0.0
C425 C 0.60046 0.1508 0.15188 0.0
C426 C 0.56509 0.14754 0.13548 0.0
C427 C 0.57669 0.17869 0.10954 0.0
C428 C 0.53959 0.10681 0.12161 0.0
C429 C 0.54557 0.15494 0.16353 0.0
C430 C 0.56618 0.16062 0.19146 0.0
C431 C 0.55412 0.16814 0.22053 0.0
C432 C 0.52036 0.1706 0.22097 0.0
C433 C 0.49951 0.16619 0.19247 0.0
C434 C 0.51196 0.1576 0.16352 0.0
H435 H 0.7972 0.3359 0.19445 0.0
H436 H 0.90935 0.35707 0.1629 0.0
H437 H 0.92599 0.42276 0.14536 0.0
H438 H 0.78026 0.38393 0.131 0.0
H439 H 0.75741 0.40399 0.1554 0.0
H440 H 0.75506 0.35946 0.16695 0.0
H441 H 0.78492 0.3888 0.22218 0.0
H442 H 0.78679 0.4332 0.21097 0.0
H443 H 0.83007 0.43379 0.22395 0.0
H444 H 0.92809 0.48422 0.12743 0.0
H445 H 0.91892 0.54004 0.11693 0.0
H446 H 0.80607 0.47894 0.16182 0.0
C447 C 0.82543 0.35465 0.18424 0.0
C448 C 0.85205 0.34166 0.17996 0.0
C449 C 0.88876 0.3668 0.16662 0.0
C450 C 0.8983 0.40396 0.15636 0.0
C451 C 0.87094 0.41555 0.16001 0.0
C452 C 0.83552 0.39189 0.17417 0.0
C453 C 0.81129 0.41125 0.17539 0.0
C454 C 0.77379 0.38829 0.15603 0.0
C455 C 0.80279 0.41711 0.21019 0.0
C456 C 0.83846 0.44936 0.15948 0.0
C457 C 0.87257 0.45118 0.15047 0.0
C458 C 0.90164 0.48326 0.13464 0.0
C459 C 0.89607 0.5147 0.12857 0.0
C460 C 0.86188 0.5139 0.13865 0.0
C461 C 0.83264 0.48054 0.15397 0.0
H462 H 0.66277 0.49554 0.14565 0.0
H463 H 0.66473 0.48338 0.24866 0.0
H464 H 0.59739 0.42922 0.24688 0.0
H465 H 0.56198 0.47104 0.13914 0.0
H466 H 0.55418 0.44478 0.10222 0.0
H467 H 0.60149 0.48445 0.11175 0.0
H468 H 0.63046 0.4396 0.10497 0.0
H469 H 0.58332 0.39987 0.09531 0.0
H470 H 0.61065 0.39543 0.12768 0.0
H471 H 0.53319 0.37369 0.2337 0.0
H472 H 0.47411 0.3202 0.21045 0.0
H473 H 0.51239 0.36761 0.11539 0.0
C474 C 0.64923 0.48122 0.16779 0.0
C475 C 0.66923 0.49297 0.19728 0.0
C476 C 0.64993 0.47459 0.22586 0.0
C477 C 0.61176 0.44387 0.22504 0.0
C478 C 0.59323 0.43233 0.19549 0.0
C479 C 0.61113 0.45052 0.16739 0.0
C480 C 0.58504 0.43148 0.13872 0.0
C481 C 0.57508 0.45962 0.12198 0.0
C482 C 0.60347 0.41565 0.1153 0.0
C483 C 0.54994 0.39909 0.15507 0.0
C484 C 0.55541 0.40042 0.18785 0.0
C485 C 0.52835 0.37257 0.20815 0.0
C486 C 0.49498 0.34223 0.19465 0.0
C487 C 0.48868 0.33988 0.16114 0.0
C488 C 0.51624 0.36908 0.1411 0.0
H489 H 0.1702 0.50588 0.35794 0.0
H490 H 0.18479 0.51344 0.25497 0.0
H491 H 0.17225 0.56818 0.25401 0.0
H492 H 0.09382 0.53075 0.36109 0.0
H493 H 0.11182 0.55842 0.39745 0.0
H494 H 0.11955 0.51841 0.3898 0.0
H495 H 0.19329 0.56348 0.39691 0.0
H496 H 0.18579 0.60356 0.40471 0.0
H497 H 0.21794 0.60676 0.37313 0.0
H498 H 0.16405 0.62492 0.26474 0.0
H499 H 0.15832 0.67936 0.28585 0.0
H500 H 0.14735 0.63476 0.38222 0.0
C501 C 0.17102 0.51935 0.33526 0.0
C502 C 0.17934 0.50631 0.30655 0.0
C503 C 0.17882 0.52347 0.27717 0.0
C504 C 0.17171 0.55444 0.27644 0.0
C505 C 0.16454 0.56731 0.30528 0.0
C506 C 0.16382 0.55017 0.33414 0.0
C507 C 0.15643 0.57029 0.36175 0.0
C508 C 0.11812 0.54283 0.3785 0.0
C509 C 0.19039 0.58702 0.38552 0.0
C510 C 0.15396 0.60203 0.34398 0.0
C511 C 0.15862 0.59958 0.31142 0.0
C512 C 0.15985 0.62685 0.29011 0.0
C513 C 0.15669 0.65772 0.30237 0.0
C514 C 0.15209 0.66106 0.33563 0.0
C515 C 0.15009 0.63248 0.35665 0.0
H516 H 0.46926 0.67323 0.30113 0.0
H517 H 0.56214 0.64985 0.31995 0.0
H518 H 0.51439 0.58346 0.33738 0.0
H519 H 0.4102 0.62275 0.3666 0.0
H520 H 0.36518 0.60391 0.34521 0.0
H521 H 0.40642 0.64872 0.33286 0.0
H522 H 0.40136 0.62147 0.27567 0.0
H523 H 0.35976 0.57674 0.28773 0.0
H524 H 0.40085 0.57645 0.27035 0.0
H525 H 0.45643 0.5217 0.35725 0.0
H526 H 0.39252 0.46635 0.37127 0.0
H527 H 0.3376 0.52945 0.3366 0.0
C528 C 0.47938 0.65384 0.30851 0.0
C529 C 0.51918 0.66632 0.30924 0.0
C530 C 0.53163 0.64043 0.31894 0.0
C531 C 0.50477 0.60289 0.32909 0.0
C532 C 0.46565 0.59169 0.32884 0.0
C533 C 0.45295 0.61617 0.31816 0.0
C534 C 0.40939 0.59708 0.31997 0.0
C535 C 0.39709 0.61945 0.34251 0.0
C536 C 0.39181 0.59267 0.28644 0.0
C537 C 0.39955 0.55827 0.3339 0.0
C538 C 0.43237 0.55579 0.3391 0.0
C539 C 0.43051 0.52315 0.3529 0.0
C540 C 0.3941 0.49197 0.36098 0.0
C541 C 0.36001 0.49346 0.35489 0.0
C542 C 0.36303 0.52724 0.34133 0.0
H543 H 0.51065 0.89042 0.36045 0.0
H544 H 0.4926 0.78406 0.31629 0.0
H545 H 0.42951 0.77041 0.29687 0.0
H546 H 0.41034 0.8528 0.38477 0.0
H547 H 0.41028 0.89689 0.37585 0.0
H548 H 0.45452 0.89863 0.38742 0.0
H549 H 0.487 0.93616 0.33549 0.0
H550 H 0.44265 0.93399 0.32355 0.0
H551 H 0.46551 0.91561 0.29731 0.0
H552 H 0.36914 0.76703 0.28147 0.0
H553 H 0.31087 0.77256 0.27407 0.0
H554 H 0.36533 0.88103 0.32605 0.0
C555 C 0.49317 0.86411 0.34703 0.0
C556 C 0.50684 0.83831 0.34011 0.0
C557 C 0.48308 0.80433 0.32215 0.0
C558 C 0.44707 0.79628 0.31075 0.0
C559 C 0.43484 0.82248 0.31724 0.0
C560 C 0.45674 0.85555 0.33512 0.0
C561 C 0.43589 0.87844 0.3384 0.0
C562 C 0.42724 0.88188 0.37371 0.0
C563 C 0.45916 0.91842 0.32275 0.0
C564 C 0.39903 0.85278 0.31976 0.0
C565 C 0.39941 0.8208 0.30769 0.0
C566 C 0.36848 0.79205 0.29055 0.0
C567 C 0.33568 0.79549 0.28629 0.0
C568 C 0.33416 0.82746 0.29895 0.0
C569 C 0.36641 0.85685 0.31545 0.0
H570 H 0.32667 0.80073 0.84358 0.0
H571 H 0.38751 0.91759 0.88138 0.0
H572 H 0.44985 0.92188 0.8685 0.0
H573 H 0.39447 0.77297 0.87407 0.0
H574 H 0.38936 0.74341 0.83977 0.0
H575 H 0.34972 0.74979 0.852 0.0
H576 H 0.34713 0.77427 0.79519 0.0
H577 H 0.3871 0.76846 0.78289 0.0
H578 H 0.38989 0.81467 0.77866 0.0
H579 H 0.50533 0.91462 0.84893 0.0
H580 H 0.55052 0.89323 0.83081 0.0
H581 H 0.45377 0.78015 0.80808 0.0
C582 C 0.35314 0.82715 0.8493 0.0
C583 C 0.35232 0.85893 0.86335 0.0
C584 C 0.38751 0.89286 0.87076 0.0
C585 C 0.42302 0.89565 0.86333 0.0
C586 C 0.4228 0.86407 0.84891 0.0
C587 C 0.38881 0.8302 0.84254 0.0
C588 C 0.3966 0.80005 0.82791 0.0
C589 C 0.38166 0.76446 0.84975 0.0
C590 C 0.37914 0.78871 0.79416 0.0
C591 C 0.44029 0.8224 0.82676 0.0
C592 C 0.4548 0.85942 0.83865 0.0
C593 C 0.49432 0.88566 0.83972 0.0
C594 C 0.51972 0.8734 0.82913 0.0
C595 C 0.50547 0.83515 0.81806 0.0
C596 C 0.46527 0.80955 0.81647 0.0
H597 H 0.142 0.51132 0.88087 0.0
H598 H 0.17752 0.48901 0.78888 0.0
H599 H 0.18527 0.54995 0.76803 0.0
H600 H 0.08993 0.55838 0.85009 0.0
H601 H 0.10655 0.59398 0.88159 0.0
H602 H 0.10087 0.54701 0.88905 0.0
H603 H 0.17212 0.57923 0.90776 0.0
H604 H 0.17801 0.62625 0.90027 0.0
H605 H 0.2099 0.61248 0.88149 0.0
H606 H 0.19055 0.6134 0.7569 0.0
H607 H 0.1973 0.67834 0.75766 0.0
H608 H 0.16014 0.66137 0.85673 0.0
C609 C 0.15093 0.51912 0.85626 0.0
C610 C 0.15898 0.49529 0.83649 0.0
C611 C 0.17126 0.5068 0.80454 0.0
C612 C 0.17559 0.5413 0.79236 0.0
C613 C 0.16782 0.56432 0.81243 0.0
C614 C 0.15598 0.55398 0.84374 0.0
C615 C 0.15182 0.58534 0.86059 0.0
C616 C 0.10979 0.57027 0.87093 0.0
C617 C 0.17962 0.60179 0.88922 0.0
C618 C 0.1635 0.61485 0.83393 0.0
C619 C 0.17214 0.60186 0.80626 0.0
C620 C 0.18389 0.62397 0.77843 0.0
C621 C 0.18753 0.66071 0.77904 0.0
C622 C 0.17999 0.67513 0.80738 0.0
C623 C 0.16718 0.65157 0.83498 0.0
H624 H 0.47533 0.66995 0.84055 0.0
H625 H 0.536 0.61559 0.88173 0.0
H626 H 0.48059 0.55135 0.86877 0.0
H627 H 0.38035 0.59867 0.86956 0.0
H628 H 0.35598 0.60145 0.83425 0.0
H629 H 0.40043 0.64297 0.847 0.0
H630 H 0.42999 0.64634 0.79115 0.0
H631 H 0.38584 0.60449 0.77835 0.0
H632 H 0.43091 0.60464 0.77578 0.0
H633 H 0.41985 0.49312 0.84892 0.0
H634 H 0.35446 0.44478 0.83018 0.0
H635 H 0.33271 0.537 0.80359 0.0
C636 C 0.47687 0.64455 0.84707 0.0
C637 C 0.51007 0.64781 0.86208 0.0
C638 C 0.51082 0.61382 0.87038 0.0
C639 C 0.4796 0.57721 0.8629 0.0
C640 C 0.44769 0.57507 0.84747 0.0
C641 C 0.4458 0.60779 0.84018 0.0
C642 C 0.40772 0.59751 0.82441 0.0
C643 C 0.38477 0.61094 0.84505 0.0
C644 C 0.41402 0.61424 0.7904 0.0
C645 C 0.3886 0.55388 0.82375 0.0
C646 C 0.4123 0.54152 0.83686 0.0
C647 C 0.40097 0.50244 0.83874 0.0
C648 C 0.364 0.47524 0.82779 0.0
C649 C 0.33874 0.4873 0.81555 0.0
C650 C 0.35152 0.52712 0.81297 0.0
H651 H 0.79416 0.4527 0.69851 0.0
H652 H 0.86771 0.53285 0.62574 0.0
H653 H 0.88461 0.48471 0.60632 0.0
H654 H 0.85382 0.4095 0.71556 0.0
H655 H 0.81303 0.36157 0.72053 0.0
H656 H 0.80837 0.40312 0.72961 0.0
H657 H 0.75053 0.37824 0.6904 0.0
H658 H 0.75526 0.33682 0.68097 0.0
H659 H 0.75662 0.36819 0.64943 0.0
H660 H 0.8923 0.42735 0.59408 0.0
H661 H 0.89086 0.36495 0.5902 0.0
H662 H 0.81092 0.32138 0.67015 0.0
C663 C 0.81426 0.46013 0.67883 0.0
C664 C 0.82988 0.49634 0.66361 0.0
C665 C 0.85552 0.50511 0.63758 0.0
C666 C 0.86526 0.478 0.62644 0.0
C667 C 0.84889 0.44219 0.64152 0.0
C668 C 0.82396 0.43316 0.66717 0.0
C669 C 0.80944 0.39211 0.67837 0.0
C670 C 0.82192 0.39156 0.71307 0.0
C671 C 0.76535 0.36739 0.67456 0.0
C672 C 0.83019 0.37961 0.6551 0.0
C673 C 0.85283 0.40891 0.63408 0.0
C674 C 0.8747 0.40416 0.61043 0.0
C675 C 0.87365 0.36858 0.60838 0.0
C676 C 0.85077 0.33815 0.62979 0.0
C677 C 0.82865 0.34392 0.65331 0.0
H678 H 0.68102 0.47968 0.644 0.0
H679 H 0.62072 0.53961 0.61476 0.0
H680 H 0.55837 0.48191 0.62878 0.0
H681 H 0.60815 0.3845 0.61386 0.0
H682 H 0.61554 0.3594 0.64645 0.0
H683 H 0.65483 0.40488 0.63279 0.0
H684 H 0.66385 0.43207 0.6904 0.0
H685 H 0.62417 0.38694 0.70415 0.0
H686 H 0.62361 0.43127 0.71057 0.0
H687 H 0.50334 0.41959 0.65048 0.0
H688 H 0.45864 0.35369 0.6706 0.0
H689 H 0.55494 0.33391 0.68325 0.0
C690 C 0.65463 0.48048 0.64015 0.0
C691 C 0.65559 0.51408 0.6284 0.0
C692 C 0.62053 0.51402 0.62353 0.0
C693 C 0.58507 0.48152 0.63164 0.0
C694 C 0.58526 0.44925 0.64409 0.0
C695 C 0.61907 0.44818 0.64762 0.0
C696 C 0.61146 0.40988 0.66115 0.0
C697 C 0.62318 0.3884 0.63712 0.0
C698 C 0.63199 0.41539 0.69349 0.0
C699 C 0.56812 0.38973 0.66522 0.0
C700 C 0.55356 0.41303 0.65553 0.0
C701 C 0.51437 0.40099 0.65786 0.0
C702 C 0.4893 0.36376 0.66959 0.0
C703 C 0.50355 0.33904 0.67842 0.0
C704 C 0.54346 0.35238 0.67655 0.0
H705 H 0.67495 0.21866 0.69071 0.0
H706 H 0.65062 0.10157 0.67385 0.0
H707 H 0.5847 0.08316 0.65559 0.0
H708 H 0.57842 0.19205 0.72018 0.0
H709 H 0.5792 0.23317 0.7017 0.0
H710 H 0.62365 0.2362 0.71447 0.0
H711 H 0.65103 0.25667 0.65716 0.0
H712 H 0.60639 0.25299 0.64408 0.0
H713 H 0.62509 0.22598 0.62379 0.0
H714 H 0.52371 0.07922 0.63501 0.0
H715 H 0.46784 0.08703 0.62148 0.0
H716 H 0.53111 0.20604 0.65421 0.0
C717 C 0.65538 0.18902 0.68369 0.0
C718 C 0.66746 0.16139 0.68368 0.0
C719 C 0.64147 0.12291 0.6743 0.0
C720 C 0.60423 0.11234 0.66362 0.0
C721 C 0.59348 0.14057 0.66296 0.0
C722 C 0.61798 0.1779 0.67339 0.0
C723 C 0.59921 0.20258 0.67061 0.0
C724 C 0.59485 0.21682 0.70371 0.0
C725 C 0.62178 0.23656 0.64753 0.0
C726 C 0.56043 0.17336 0.65676 0.0
C727 C 0.55789 0.13793 0.65212 0.0
C728 C 0.52518 0.10671 0.63883 0.0
C729 C 0.49375 0.11152 0.63097 0.0
C730 C 0.49514 0.1471 0.63688 0.0
C731 C 0.52917 0.17847 0.64954 0.0
H732 H 0.37106 0.14463 0.01913 0.0
H733 H 0.29581 0.09357 0.10081 0.0
H734 H 0.27051 0.02858 0.07719 0.0
H735 H 0.30022 0.07368 0.95877 0.0
H736 H 0.33863 0.07428 0.93577 0.0
H737 H 0.34698 0.11684 0.95738 0.0
H738 H 0.40493 0.11805 0.98618 0.0
H739 H 0.39619 0.07495 0.96541 0.0
H740 H 0.39743 0.07627 0.00852 0.0
H741 H 0.26332 0.96952 0.0502 0.0
H742 H 0.26319 0.91955 0.01497 0.0
H743 H 0.33779 0.00843 0.94801 0.0
C744 C 0.34824 0.11979 0.03132 0.0
C745 C 0.33558 0.12361 0.06183 0.0
C746 C 0.30589 0.09079 0.07744 0.0
C747 C 0.29152 0.05389 0.0643 0.0
C748 C 0.30631 0.05064 0.03507 0.0
C749 C 0.33295 0.08274 0.01815 0.0
C750 C 0.34468 0.071 0.98756 0.0
C751 C 0.33185 0.08476 0.95812 0.0
C752 C 0.3884 0.08596 0.98691 0.0
C753 C 0.32181 0.02742 0.9907 0.0
C754 C 0.30014 0.0163 0.01844 0.0
C755 C 0.27933 0.97775 0.02799 0.0
C756 C 0.27979 0.94968 0.00814 0.0
C757 C 0.30039 0.96044 0.97901 0.0
C758 C 0.32161 0.9997 0.97018 0.0
H759 H 0.9115 0.24541 0.07309 0.0
H760 H 0.82236 0.22171 0.00302 0.0
H761 H 0.87263 0.26052 0.96302 0.0
H762 H 0.9709 0.34473 0.05162 0.0
H763 H 0.01576 0.34561 0.05894 0.0
H764 H 0.97304 0.31276 0.08089 0.0
H765 H 0.98037 0.25499 0.06197 0.0
H766 H 0.02327 0.28766 0.04013 0.0
H767 H 0.98367 0.2477 0.01978 0.0
H768 H 0.9327 0.30219 0.93108 0.0
H769 H 0.99811 0.34537 0.90965 0.0
H770 H 0.04763 0.34827 0.00261 0.0
C771 C 0.90259 0.24855 0.04934 0.0
C772 C 0.86311 0.2309 0.04111 0.0
C773 C 0.85251 0.23487 0.00966 0.0
C774 C 0.88082 0.25702 0.98692 0.0
C775 C 0.9195 0.27525 0.9962 0.0
C776 C 0.9304 0.27141 0.02671 0.0
C777 C 0.97373 0.29562 0.03117 0.0
C778 C 0.98394 0.32651 0.0572 0.0
C779 C 0.99128 0.26995 0.0387 0.0
C780 C 0.98561 0.31368 -0.00167 0.0
C781 C 0.9539 0.30114 0.97841 0.0
C782 C 0.95767 0.31248 0.94652 0.0
C783 C 0.99485 0.33698 0.93459 0.0
C784 C 0.02763 0.35048 0.95467 0.0
C785 C 0.0229 0.33899 0.98701 0.0
H786 H 0.76706 0.62933 0.02594 0.0
H787 H 0.77075 0.68819 0.11414 0.0
H788 H 0.72965 0.71126 0.08969 0.0
H789 H 0.77283 0.70622 0.9734 0.0
H790 H 0.74183 0.67233 0.94349 0.0
H791 H 0.77186 0.66098 0.96804 0.0
H792 H 0.71134 0.59726 0.9855 0.0
H793 H 0.68105 0.60868 0.96142 0.0
H794 H 0.6713 0.59903 0.00352 0.0
H795 H 0.68274 0.72184 0.05758 0.0
H796 H 0.64206 0.72914 0.01669 0.0
H797 H 0.67477 0.66976 0.94748 0.0
C798 C 0.75963 0.64757 0.03983 0.0
C799 C 0.77106 0.65627 0.07209 0.0
C800 C 0.76125 0.68045 0.0896 0.0
C801 C 0.73808 0.69374 0.07592 0.0
C802 C 0.72603 0.6835 0.0444 0.0
C803 C 0.73729 0.66189 0.02626 0.0
C804 C 0.72115 0.65586 0.99264 0.0
C805 C 0.75387 0.675 0.96793 0.0
C806 C 0.69464 0.61264 0.98536 0.0
C807 C 0.6984 0.67673 0.99497 0.0
C808 C 0.70117 0.69201 0.02517 0.0
C809 C 0.68084 0.71059 0.03368 0.0
C810 C 0.65761 0.71432 0.01045 0.0
C811 C 0.65564 0.7002 0.97907 0.0
C812 C 0.67622 0.68114 0.97129 0.0
H813 H 0.95613 0.28566 0.48435 0.0
H814 H 1.00071 0.31396 0.58133 0.0
H815 H 0.0671 0.34286 0.56087 0.0
H816 H 0.02512 0.25855 0.45747 0.0
H817 H 0.02951 0.27805 0.41783 0.0
H818 H 0.98517 0.26083 0.43981 0.0
H819 H 0.98962 0.32736 0.43277 0.0
H820 H 0.03409 0.34484 0.4109 0.0
H821 H 0.0325 0.37052 0.44581 0.0
H822 H 0.12845 0.36992 0.53051 0.0
H823 H 0.18159 0.3898 0.49162 0.0
H824 H 0.09807 0.33963 0.41462 0.0
C825 C 0.97994 0.29813 0.50116 0.0
C826 C 0.97332 0.29771 0.53438 0.0
C827 C 0.00511 0.31382 0.55577 0.0
C828 C 0.04296 0.33048 0.5444 0.0
C829 C 0.04859 0.33039 0.5116 0.0
C830 C 0.01808 0.31432 0.49024 0.0
C831 C 0.03238 0.31669 0.45627 0.0
C832 C 0.01714 0.27611 0.44202 0.0
C833 C 0.02149 0.34132 0.4352 0.0
C834 C 0.07558 0.33679 0.462 0.0
C835 C 0.08423 0.34475 0.49407 0.0
C836 C 0.1221 0.3637 0.50532 0.0
C837 C 0.15202 0.37476 0.48315 0.0
C838 C 0.14385 0.3665 0.45023 0.0
C839 C 0.10511 0.34701 0.4396 0.0
H840 H 0.6412 0.78428 0.47545 0.0
H841 H 0.71213 0.80183 0.39189 0.0
H842 H 0.73878 0.76427 0.4171 0.0
H843 H 0.71481 0.78867 0.53509 0.0
H844 H 0.67753 0.75252 0.56006 0.0
H845 H 0.66809 0.78507 0.53709 0.0
H846 H 0.60896 0.72629 0.5113 0.0
H847 H 0.61868 0.69356 0.53352 0.0
H848 H 0.61552 0.69045 0.49049 0.0
H849 H 0.7474 0.71475 0.44626 0.0
H850 H 0.7482 0.66662 0.48302 0.0
H851 H 0.67711 0.68588 0.55032 0.0
C852 C 0.66339 0.7813 0.46311 0.0
C853 C 0.67445 0.79533 0.43172 0.0
C854 C 0.70325 0.79087 0.41594 0.0
C855 C 0.71843 0.76956 0.43 0.0
C856 C 0.70528 0.75401 0.46025 0.0
C857 C 0.67941 0.76067 0.47715 0.0
C858 C 0.66913 0.73945 0.50884 0.0
C859 C 0.68324 0.76814 0.53694 0.0
C860 C 0.62549 0.71074 0.51114 0.0
C861 C 0.69191 0.71858 0.50642 0.0
C862 C 0.71233 0.72718 0.47807 0.0
C863 C 0.73246 0.70858 0.46895 0.0
C864 C 0.73243 0.68106 0.48972 0.0
C865 C 0.71297 0.67305 0.51936 0.0
C866 C 0.69261 0.69209 0.52787 0.0
H867 H 0.33292 0.05071 0.48935 0.0
H868 H 0.34347 0.00202 0.5789 0.0
H869 H 0.31041 0.9368 0.55493 0.0
H870 H 0.23708 0.97391 0.47232 0.0
H871 H 0.24431 0.9749 0.42969 0.0
H872 H 0.27149 0.01824 0.45299 0.0
H873 H 0.33533 0.02521 0.43116 0.0
H874 H 0.30831 0.98183 0.40783 0.0
H875 H 0.34456 0.98568 0.4356 0.0
H876 H 0.27737 0.87728 0.52128 0.0
H877 H 0.24122 0.82615 0.48104 0.0
H878 H 0.24583 0.91225 0.41538 0.0
C879 C 0.32857 0.02628 0.50366 0.0
C880 C 0.34093 0.03118 0.53579 0.0
C881 C 0.33413 0.99865 0.55419 0.0
C882 C 0.31556 0.9616 0.54078 0.0
C883 C 0.30341 0.95755 0.50911 0.0
C884 C 0.30916 0.98885 0.49086 0.0
C885 C 0.29091 0.97605 0.4581 0.0
C886 C 0.25905 0.98639 0.45299 0.0
C887 C 0.32162 0.99322 0.43161 0.0
C888 C 0.27418 0.93279 0.46085 0.0
C889 C 0.28223 0.9228 0.4903 0.0
C890 C 0.27057 0.88465 0.49821 0.0
C891 C 0.24996 0.85586 0.47537 0.0
C892 C 0.24071 0.8654 0.44536 0.0
C893 C 0.25287 0.90432 0.43812 0.0
H894 H 0.69647 0.04851 0.98694 0.0
H895 H 0.66881 0.00176 0.08311 0.0
H896 H 0.64909 0.93679 0.06207 0.0
H897 H 0.61948 0.96541 0.94555 0.0
H898 H 0.6492 0.96929 0.91177 0.0
H899 H 0.65905 0.01191 0.93401 0.0
H900 H 0.72934 0.02723 0.94359 0.0
H901 H 0.71967 0.98459 0.92147 0.0
H902 H 0.73782 0.99127 0.96183 0.0
H903 H 0.63194 0.87699 0.03096 0.0
H904 H 0.62002 0.82612 0.9915 0.0
H905 H 0.66436 0.91202 0.91606 0.0
C906 C 0.68572 0.02443 0.00342 0.0
C907 C 0.68377 0.02999 0.0366 0.0
C908 C 0.67042 0.99804 0.05759 0.0
C909 C 0.65912 0.96104 0.04588 0.0
C910 C 0.66185 0.95653 0.01314 0.0
C911 C 0.675 0.98729 0.99217 0.0
C912 C 0.67671 0.97465 0.95827 0.0
C913 C 0.64949 0.98068 0.9361 0.0
C914 C 0.71837 0.99569 0.94555 0.0
C915 C 0.66231 0.93204 0.96354 0.0
C916 C 0.6536 0.92218 0.99533 0.0
C917 C 0.63887 0.88437 0.006 0.0
C918 C 0.63246 0.85574 0.98349 0.0
C919 C 0.64113 0.86512 0.95078 0.0
C920 C 0.65687 0.90393 0.94086 0.0
H921 H 0.99715 0.63726 0.02978 0.0
H922 H 0.95242 0.71562 0.04208 0.0
H923 H 0.00191 0.76179 0.00513 0.0
H924 H 0.09536 0.7081 0.02882 0.0
H925 H 0.10907 0.6849 -0.00127 0.0
H926 H 0.06817 0.65632 0.02408 0.0
H927 H 0.02465 0.62691 0.97412 0.0
H928 H 0.06552 0.65533 0.94857 0.0
H929 H 0.02233 0.65854 0.94459 0.0
H930 H 0.05885 0.80158 0.97034 0.0
H931 H 0.11924 0.83169 0.93864 0.0
H932 H 0.12661 0.72764 0.9481 0.0
C933 C 0.99741 0.66388 0.02437 0.0
C934 C 0.97091 0.67281 0.03887 0.0
C935 C 0.97241 0.70811 0.0313 0.0
C936 C 1.00037 0.73453 0.01028 0.0
C937 C 0.02644 0.72513 0.99683 0.0
C938 C 0.0251 0.69058 0.00334 0.0
C939 C 0.05755 0.68833 0.98668 0.0
C940 C 0.0841 0.68418 0.01104 0.0
C941 C 0.04154 0.65531 0.96202 0.0
C942 C 0.07784 0.72739 0.97045 0.0
C943 C 0.05927 0.74807 0.97648 0.0
C944 C 0.07348 0.78558 0.96522 0.0
C945 C 0.10774 0.80249 0.94745 0.0
C946 C 0.12726 0.78188 0.94134 0.0
C947 C 0.1119 0.74375 0.95254 0.0
H948 H 0.23685 0.32628 0.9211 0.0
H949 H 0.21441 0.39427 0.98954 0.0
H950 H 0.25095 0.38131 0.03073 0.0
H951 H 0.23559 0.25541 0.97564 0.0
H952 H 0.27536 0.25436 0.95637 0.0
H953 H 0.24407 0.2656 0.93348 0.0
H954 H 0.30329 0.3298 0.91503 0.0
H955 H 0.33476 0.31886 0.93795 0.0
H956 H 0.33516 0.36363 0.94458 0.0
H957 H 0.29062 0.36152 0.06405 0.0
H958 H 0.33298 0.33894 0.08667 0.0
H959 H 0.33615 0.29051 0.99457 0.0
C960 C 0.23983 0.33862 0.94472 0.0
C961 C 0.2231 0.36155 0.95213 0.0
C962 C 0.2268 0.3764 0.98348 0.0
C963 C 0.24766 0.36937 0.00693 0.0
C964 C 0.26495 0.34777 -0.00151 0.0
C965 C 0.26147 0.33281 0.96808 0.0
C966 C 0.28478 0.31259 0.96457 0.0
C967 C 0.25836 0.26943 0.95708 0.0
C968 C 0.31637 0.33241 0.93902 0.0
C969 C 0.302 0.31852 0.99779 0.0
C970 C 0.28971 0.33838 0.01711 0.0
C971 C 0.30065 0.34621 0.0491 0.0
C972 C 0.32468 0.33329 0.06171 0.0
C973 C 0.33814 0.31346 0.04223 0.0
C974 C 0.32681 0.30622 0.00981 0.0
H975 H 0.00177 0.63005 0.46258 0.0
H976 H 0.05922 0.75517 0.45545 0.0
H977 H 0.01182 0.75585 0.49235 0.0
H978 H 0.90642 0.61321 0.46374 0.0
H979 H 0.88853 0.57459 0.4926 0.0
H980 H 0.92853 0.58359 0.46723 0.0
H981 H 0.9701 0.59077 0.51713 0.0
H982 H 0.9301 0.58159 0.54268 0.0
H983 H 0.9761 0.62501 0.5479 0.0
H984 H 0.95574 0.7433 0.52629 0.0
H985 H 0.89557 0.71762 0.55804 0.0
H986 H 0.87512 0.60129 0.54511 0.0
C987 C 0.00465 0.6576 0.46911 0.0
C988 C 0.03432 0.69252 0.45607 0.0
C989 C 0.03695 0.72798 0.46516 0.0
C990 C 0.0101 0.72874 0.48612 0.0
C991 C 0.9809 0.69386 0.49811 0.0
C992 C 0.97816 0.65895 0.49029 0.0
C993 C 0.94328 0.62561 0.50606 0.0
C994 C 0.91503 0.59761 0.4809 0.0
C995 C 0.95565 0.60451 0.52986 0.0
C996 C 0.92649 0.64727 0.52326 0.0
C997 C 0.94872 0.68663 0.51835 0.0
C998 C 0.93826 0.71257 0.5306 0.0
C999 C 0.90411 0.69784 0.54838 0.0
C1000 C 0.88108 0.6577 0.55367 0.0
C1001 C 0.89256 0.63215 0.5413 0.0
H1002 H 0.36423 0.2229 0.51707 0.0
H1003 H 0.31464 0.22681 0.60817 0.0
H1004 H 0.29271 0.26932 0.58486 0.0
H1005 H 0.39989 0.31809 0.49522 0.0
H1006 H 0.38781 0.30956 0.45333 0.0
H1007 H 0.39614 0.27603 0.4758 0.0
H1008 H 0.32872 0.21971 0.45974 0.0
H1009 H 0.32047 0.25291 0.43657 0.0
H1010 H 0.2865 0.22381 0.46709 0.0
H1011 H 0.28574 0.31919 0.55445 0.0
H1012 H 0.28274 0.36416 0.51546 0.0
H1013 H 0.33177 0.32409 0.44264 0.0
C1014 C 0.34772 0.23185 0.53169 0.0
C1015 C 0.34151 0.2223 0.56442 0.0
C1016 C 0.31998 0.23442 0.58308 0.0
C1017 C 0.3075 0.25855 0.57009 0.0
C1018 C 0.31589 0.26932 0.53817 0.0
C1019 C 0.33445 0.2555 0.51889 0.0
C1020 C 0.34045 0.27224 0.48549 0.0
C1021 C 0.38364 0.29535 0.47698 0.0
C1022 C 0.31767 0.24026 0.46076 0.0
C1023 C 0.32359 0.29854 0.48942 0.0
C1024 C 0.30988 0.29664 0.52008 0.0
C1025 C 0.29559 0.32037 0.53015 0.0
C1026 C 0.29439 0.34607 0.50802 0.0
C1027 C 0.30687 0.34732 0.47618 0.0
C1028 C 0.3217 0.32331 0.46683 0.0
H1029 H 0.77604 0.13516 0.51414 0.0
H1030 H 0.76659 0.07636 0.60364 0.0
H1031 H 0.72338 0.01358 0.57792 0.0
H1032 H 0.68052 0.07703 0.48784 0.0
H1033 H 0.69185 0.07579 0.44628 0.0
H1034 H 0.72386 0.1163 0.47091 0.0
H1035 H 0.78091 0.10574 0.45658 0.0
H1036 H 0.74921 0.06557 0.43143 0.0
H1037 H 0.77623 0.05897 0.46288 0.0
H1038 H 0.67537 0.95858 0.54471 0.0
H1039 H 0.63376 0.91247 0.50326 0.0
H1040 H 0.67816 0.00507 0.43339 0.0
C1041 C 0.76545 0.10893 0.52802 0.0
C1042 C 0.77387 0.11049 0.56101 0.0
C1043 C 0.75972 0.07569 0.57848 0.0
C1044 C 0.73522 0.03995 0.5641 0.0
C1045 C 0.72598 0.0394 0.53193 0.0
C1046 C 0.74141 0.07277 0.5138 0.0
C1047 C 0.7268 0.06375 0.47958 0.0
C1048 C 0.70443 0.08445 0.47064 0.0
C1049 C 0.76028 0.07412 0.45623 0.0
C1050 C 0.70011 0.02033 0.4816 0.0
C1051 C 0.69983 0.00704 0.51215 0.0
C1052 C 0.67581 0.96848 0.52054 0.0
C1053 C 0.65202 0.94257 0.49691 0.0
C1054 C 0.65285 0.95517 0.46514 0.0
C1055 C 0.6772 0.99462 0.45746 0.0
H1056 H 0.25233 0.34897 0.26291 0.0
H1057 H 0.2294 0.27365 0.34442 0.0
H1058 H 0.2411 0.2296 0.31125 0.0
H1059 H 0.215 0.26918 0.19843 0.0
H1060 H 0.25334 0.30068 0.17179 0.0
H1061 H 0.23294 0.3205 0.19921 0.0
H1062 H 0.30129 0.3667 0.2217 0.0
H1063 H 0.32177 0.34675 0.19484 0.0
H1064 H 0.3297 0.3468 0.2373 0.0
H1065 H 0.26994 0.20272 0.27402 0.0
H1066 H 0.30953 0.19274 0.23387 0.0
H1067 H 0.31283 0.28449 0.17601 0.0
C1068 C 0.2478 0.32216 0.2732 0.0
C1069 C 0.23966 0.31446 0.30603 0.0
C1070 C 0.23543 0.27989 0.31917 0.0
C1071 C 0.24191 0.25462 0.30051 0.0
C1072 C 0.25227 0.26413 0.26863 0.0
C1073 C 0.25449 0.2967 0.25484 0.0
C1074 C 0.27151 0.30325 0.22155 0.0
C1075 C 0.24139 0.29808 0.19625 0.0
C1076 C 0.30823 0.34322 0.21873 0.0
C1077 C 0.28076 0.2709 0.21973 0.0
C1078 C 0.26882 0.24818 0.24683 0.0
C1079 C 0.27841 0.21951 0.2522 0.0
C1080 C 0.30111 0.21419 0.2294 0.0
C1081 C 0.31403 0.23756 0.20168 0.0
C1082 C 0.30282 0.26557 0.19662 0.0
H1083 H 0.76333 0.10577 0.23379 0.0
H1084 H 0.77627 0.0507 0.14914 0.0
H1085 H 0.7593 0.99204 0.1804 0.0
H1086 H 0.79397 0.05479 0.29509 0.0
H1087 H 0.75761 0.0509 0.32274 0.0
H1088 H 0.7807 0.09176 0.29614 0.0
H1089 H 0.71356 0.07648 0.27515 0.0
H1090 H 0.69033 0.03534 0.30114 0.0
H1091 H 0.68133 0.02934 0.25868 0.0
H1092 H 0.72823 0.93574 0.21706 0.0
H1093 H 0.68809 0.88687 0.25735 0.0
H1094 H 0.69426 0.9779 0.31826 0.0
C1095 C 0.76461 0.08208 0.22239 0.0
C1096 C 0.77178 0.08285 0.18931 0.0
C1097 C 0.77138 0.05071 0.17463 0.0
C1098 C 0.76179 0.0173 0.1922 0.0
C1099 C 0.7527 0.0165 0.22444 0.0
C1100 C 0.75453 0.04823 0.23958 0.0
C1101 C 0.73795 0.038 0.27305 0.0
C1102 C 0.76944 0.06018 0.29824 0.0
C1103 C 0.70378 0.0452 0.27721 0.0
C1104 C 0.72472 0.99526 0.27365 0.0
C1105 C 0.73412 0.98354 0.24565 0.0
C1106 C 0.72154 0.9447 0.23945 0.0
C1107 C 0.69854 0.9171 0.26239 0.0
C1108 C 0.68814 0.92847 0.29106 0.0
C1109 C 0.70212 0.9682 0.29683 0.0
H1110 H 0.97386 0.69576 0.17469 0.0
H1111 H 0.88108 0.67663 0.23938 0.0
H1112 H 0.92928 0.71604 0.28053 0.0
H1113 H 0.02859 0.68249 0.23028 0.0
H1114 H 0.07487 0.71827 0.2147 0.0
H1115 H 0.03381 0.6954 0.18852 0.0
H1116 H 0.0443 0.76251 0.17212 0.0
H1117 H 0.08547 0.78565 0.19847 0.0
H1118 H 0.04632 0.79548 0.20255 0.0
H1119 H 0.98612 0.7489 0.3167 0.0
H1120 H 0.0464 0.76857 0.3464 0.0
H1121 H 0.10269 0.76605 0.25858 0.0
C1122 C 0.9636 0.70078 0.19716 0.0
C1123 C 0.92364 0.6834 0.20371 0.0
C1124 C 0.91151 0.68981 0.23376 0.0
C1125 C 0.9387 0.71239 0.25718 0.0
C1126 C 0.97788 0.72841 0.25014 0.0
C1127 C 0.99031 0.72287 0.22084 0.0
C1128 C 0.03359 0.73881 0.22064 0.0
C1129 C 0.04325 0.70684 0.21311 0.0
C1130 C 0.0536 0.77263 0.19704 0.0
C1131 C 0.04343 0.75267 0.2549 0.0
C1132 C 0.01098 0.74722 0.27127 0.0
C1133 C 0.01184 0.75406 0.304 0.0
C1134 C 0.04623 0.76523 0.32067 0.0
C1135 C 0.07928 0.76929 0.30466 0.0
C1136 C 0.07823 0.76434 0.27118 0.0
H1137 H 0.75057 0.65038 0.73495 0.0
H1138 H 0.76843 0.72682 0.65517 0.0
H1139 H 0.75057 0.76573 0.68911 0.0
H1140 H 0.66854 0.64553 0.76241 0.0
H1141 H 0.67784 0.6454 0.8046 0.0
H1142 H 0.69957 0.62796 0.77648 0.0
H1143 H 0.76756 0.67666 0.79827 0.0
H1144 H 0.74596 0.69399 0.82686 0.0
H1145 H 0.78269 0.72736 0.79993 0.0
H1146 H 0.71888 0.78853 0.72772 0.0
H1147 H 0.68087 0.79688 0.77048 0.0
H1148 H 0.68546 0.70757 0.82602 0.0
C1149 C 0.75235 0.67627 0.72513 0.0
C1150 C 0.76107 0.68569 0.69252 0.0
C1151 C 0.76188 0.71911 0.68014 0.0
C1152 C 0.75185 0.74149 0.69925 0.0
C1153 C 0.74144 0.73041 0.73086 0.0
C1154 C 0.7423 0.69902 0.74397 0.0
C1155 C 0.72607 0.69111 0.77761 0.0
C1156 C 0.69093 0.65008 0.78041 0.0
C1157 C 0.75745 0.69769 0.80212 0.0
C1158 C 0.71436 0.72167 0.78064 0.0
C1159 C 0.72378 0.74429 0.75354 0.0
C1160 C 0.71228 0.77175 0.74947 0.0
C1161 C 0.69052 0.77616 0.77376 0.0
C1162 C 0.68067 0.75332 0.80175 0.0
C1163 C 0.69333 0.72618 0.80526 0.0
H1164 H 0.2539 0.9073 0.76442 0.0
H1165 H 0.24448 0.96577 0.84847 0.0
H1166 H 0.26217 0.02382 0.81636 0.0
H1167 H 0.33556 0.98266 0.73574 0.0
H1168 H 0.32373 0.97481 0.69377 0.0
H1169 H 0.30201 0.93489 0.72113 0.0
H1170 H 0.23377 0.91932 0.70291 0.0
H1171 H 0.25534 0.959 0.67505 0.0
H1172 H 0.22097 0.95662 0.70415 0.0
H1173 H 0.2934 0.07912 0.77857 0.0
H1174 H 0.33096 0.12602 0.73601 0.0
H1175 H 0.31854 0.03161 0.67613 0.0
C1176 C 0.25389 0.93172 0.77565 0.0
C1177 C 0.2477 0.93202 0.80883 0.0
C1178 C 0.24913 0.96496 0.82302 0.0
C1179 C 0.25904 0.99807 0.80497 0.0
C1180 C 0.26704 0.99773 0.77265 0.0
C1181 C 0.26389 0.9652 0.75791 0.0
C1182 C 0.27825 0.97387 0.72376 0.0
C1183 C 0.31188 0.96611 0.71832 0.0
C1184 C 0.2451 0.95084 0.70007 0.0
C1185 C 0.29173 0.01663 0.72227 0.0
C1186 C 0.28462 0.02981 0.75054 0.0
C1187 C 0.2982 0.06903 0.75594 0.0
C1188 C 0.31971 0.09549 0.73177 0.0
C1189 C 0.32732 0.08249 0.70265 0.0
C1190 C 0.31252 0.04247 0.69784 0.0
H1191 H 0.10104 0.34159 0.75698 0.0
H1192 H 0.04483 0.27697 0.84266 0.0
H1193 H 0.98555 0.236 0.81183 0.0
H1194 H 0.0254 0.34855 0.72993 0.0
H1195 H 0.03143 0.34349 0.6878 0.0
H1196 H 0.07236 0.36175 0.71414 0.0
H1197 H 0.08621 0.30797 0.69568 0.0
H1198 H 0.04556 0.28983 0.66877 0.0
H1199 H 0.04846 0.2581 0.69784 0.0
H1200 H 0.92923 0.2111 0.77506 0.0
H1201 H 0.88102 0.20097 0.73352 0.0
H1202 H 0.97329 0.2812 0.67131 0.0
C1203 C 0.07687 0.31754 0.76876 0.0
C1204 C 0.07758 0.31195 0.80201 0.0
C1205 C 0.04488 0.28133 0.81708 0.0
C1206 C 0.01109 0.25792 0.79977 0.0
C1207 C 0.01045 0.26537 0.76734 0.0
C1208 C 0.04265 0.29403 0.75178 0.0
C1209 C 0.03281 0.29919 0.7178 0.0
C1210 C 0.04097 0.34069 0.71212 0.0
C1211 C 0.05455 0.2881 0.69359 0.0
C1212 C 0.98987 0.27036 0.71729 0.0
C1213 C 0.97761 0.25079 0.74593 0.0
C1214 C 0.93859 0.22549 0.75219 0.0
C1215 C 0.91137 0.22009 0.72856 0.0
C1216 C 0.92333 0.23997 0.69906 0.0
C1217 C 0.9632 0.26496 0.69335 0.0
loop_
_geom_bond_atom_site_label_1
_geom_bond_atom_site_label_2
_geom_bond_distance
_geom_bond_site_symmetry_2
_ccdc_geom_bond_type
Co0 O3 1.970 . S
Co0 N17 1.989 . S
Co0 O25 1.967 . S
Co0 O32 1.920 . S
Co1 O4 1.966 . S
Co1 N10 2.022 . S
Co1 N18 1.993 . S
Co1 O26 1.941 . S
C2 O3 1.258 . S
C2 O4 1.263 . S
O3 Co0 1.970 . S
O3 C2 1.258 . S
O4 Co1 1.966 . S
O4 C2 1.263 . S
C5 O6 1.235 . S
C5 O32 1.289 . S
O6 C5 1.235 . S
C7 C9 1.400 . S
C7 N10 1.351 . S
C7 C12 1.501 . S
C8 C9 1.387 . S
C8 N11 1.341 . S
C9 C7 1.400 . S
C9 C8 1.387 . S
N10 Co1 2.022 . S
N10 C7 1.351 . S
N10 N11 1.365 . S
N11 C8 1.341 . S
N11 N10 1.365 . S
N11 H31 0.862 . S
C12 C7 1.501 . S
C12 H13 0.961 . S
C12 H14 0.961 . S
C12 H15 0.960 . S
H13 C12 0.961 . S
H14 C12 0.961 . S
H15 C12 0.960 . S
C16 N17 1.342 . S
C16 C20 1.401 . S
C16 C21 1.499 . S
N17 Co0 1.989 . S
N17 C16 1.342 . S
N17 N18 1.388 . S
N18 Co1 1.993 . S
N18 N17 1.388 . S
N18 C19 1.346 . S
C19 N18 1.346 . S
C19 C20 1.396 . S
C19 C29 1.510 . S
C20 C16 1.401 . S
C20 C19 1.396 . S
C21 C16 1.499 . S
C21 H22 0.959 . S
C21 H23 0.960 . S
C21 H24 0.961 . S
H22 C21 0.959 . S
H23 C21 0.960 . S
H24 C21 0.961 . S
O25 Co0 1.967 . S
O25 C33 1.258 . S
O26 Co1 1.941 . S
O26 C33 1.266 . S
H27 C29 0.959 . S
H28 C29 0.961 . S
C29 C19 1.510 . S
C29 H27 0.959 . S
C29 H28 0.961 . S
C29 H30 0.960 . S
H30 C29 0.960 . S
H31 N11 0.862 . S
O32 Co0 1.920 . S
O32 C5 1.289 . S
C33 O25 1.258 . S
C33 O26 1.266 . S
Co34 O37 1.970 . S
Co34 N51 1.989 . S
Co34 O59 1.967 . S
Co34 O66 1.920 . S
Co35 O38 1.966 . S
Co35 N44 2.022 . S
Co35 N52 1.993 . S
Co35 O60 1.941 . S
C36 O37 1.258 . S
C36 O38 1.263 . S
O37 Co34 1.970 . S
O37 C36 1.258 . S
O38 Co35 1.966 . S
O38 C36 1.263 . S
C39 O40 1.235 . S
C39 O66 1.289 . S
O40 C39 1.235 . S
C41 C43 1.400 . S
C41 N44 1.351 . S
C41 C46 1.501 . S
C42 C43 1.387 . S
C42 N45 1.341 . S
C43 C41 1.400 . S
C43 C42 1.387 . S
N44 Co35 2.022 . S
N44 C41 1.351 . S
N44 N45 1.365 . S
N45 C42 1.341 . S
N45 N44 1.365 . S
N45 H65 0.862 . S
C46 C41 1.501 . S
C46 H47 0.961 . S
C46 H48 0.961 . S
C46 H49 0.960 . S
H47 C46 0.961 . S
H48 C46 0.961 . S
H49 C46 0.960 . S
C50 N51 1.342 . S
C50 C54 1.401 . S
C50 C55 1.499 . S
N51 Co34 1.989 . S
N51 C50 1.342 . S
N51 N52 1.388 . S
N52 Co35 1.993 . S
N52 N51 1.388 . S
N52 C53 1.346 . S
C53 N52 1.346 . S
C53 C54 1.396 . S
C53 C63 1.510 . S
C54 C50 1.401 . S
C54 C53 1.396 . S
C55 C50 1.499 . S
C55 H56 0.959 . S
C55 H57 0.960 . S
C55 H58 0.961 . S
H56 C55 0.959 . S
H57 C55 0.960 . S
H58 C55 0.961 . S
O59 Co34 1.967 . S
O59 C67 1.258 . S
O60 Co35 1.941 . S
O60 C67 1.266 . S
H61 C63 0.959 . S
H62 C63 0.961 . S
C63 C53 1.510 . S
C63 H61 0.959 . S
C63 H62 0.961 . S
C63 H64 0.960 . S
H64 C63 0.960 . S
H65 N45 0.862 . S
O66 Co34 1.920 . S
O66 C39 1.289 . S
C67 O59 1.258 . S
C67 O60 1.266 . S
Co68 O71 1.970 . S
Co68 N85 1.989 . S
Co68 O93 1.967 . S
Co68 O100 1.920 . S
Co69 O72 1.966 . S
Co69 N78 2.022 . S
Co69 N86 1.993 . S
Co69 O94 1.941 . S
C70 O71 1.258 . S
C70 O72 1.263 . S
O71 Co68 1.970 . S
O71 C70 1.258 . S
O72 Co69 1.966 . S
O72 C70 1.263 . S
C73 O74 1.235 . S
C73 O100 1.289 . S
O74 C73 1.235 . S
C75 C77 1.400 . S
C75 N78 1.351 . S
C75 C80 1.501 . S
C76 C77 1.387 . S
C76 N79 1.341 . S
C77 C75 1.400 . S
C77 C76 1.387 . S
N78 Co69 2.022 . S
N78 C75 1.351 . S
N78 N79 1.365 . S
N79 C76 1.341 . S
N79 N78 1.365 . S
N79 H99 0.862 . S
C80 C75 1.501 . S
C80 H81 0.961 . S
C80 H82 0.961 . S
C80 H83 0.960 . S
H81 C80 0.961 . S
H82 C80 0.961 . S
H83 C80 0.960 . S
C84 N85 1.342 . S
C84 C88 1.401 . S
C84 C89 1.499 . S
N85 Co68 1.989 . S
N85 C84 1.342 . S
N85 N86 1.388 . S
N86 Co69 1.993 . S
N86 N85 1.388 . S
N86 C87 1.346 . S
C87 N86 1.346 . S
C87 C88 1.396 . S
C87 C97 1.510 . S
C88 C84 1.401 . S
C88 C87 1.396 . S
C89 C84 1.499 . S
C89 H90 0.959 . S
C89 H91 0.960 . S
C89 H92 0.961 . S
H90 C89 0.959 . S
H91 C89 0.960 . S
H92 C89 0.961 . S
O93 Co68 1.967 . S
O93 C101 1.258 . S
O94 Co69 1.941 . S
O94 C101 1.266 . S
H95 C97 0.959 . S
H96 C97 0.961 . S
C97 C87 1.510 . S
C97 H95 0.959 . S
C97 H96 0.961 . S
C97 H98 0.960 . S
H98 C97 0.960 . S
H99 N79 0.862 . S
O100 Co68 1.920 . S
O100 C73 1.289 . S
C101 O93 1.258 . S
C101 O94 1.266 . S
Co102 O105 1.970 . S
Co102 N119 1.989 . S
Co102 O127 1.967 . S
Co102 O134 1.920 . S
Co103 O106 1.966 . S
Co103 N112 2.022 . S
Co103 N120 1.993 . S
Co103 O128 1.941 . S
C104 O105 1.258 . S
C104 O106 1.263 . S
O105 Co102 1.970 . S
O105 C104 1.258 . S
O106 Co103 1.966 . S
O106 C104 1.263 . S
C107 O108 1.235 . S
C107 O134 1.289 . S
O108 C107 1.235 . S
C109 C111 1.400 . S
C109 N112 1.351 . S
C109 C114 1.501 . S
C110 C111 1.387 . S
C110 N113 1.341 . S
C111 C109 1.400 . S
C111 C110 1.387 . S
N112 Co103 2.022 . S
N112 C109 1.351 . S
N112 N113 1.365 . S
N113 C110 1.341 . S
N113 N112 1.365 . S
N113 H133 0.862 . S
C114 C109 1.501 . S
C114 H115 0.961 . S
C114 H116 0.961 . S
C114 H117 0.960 . S
H115 C114 0.961 . S
H116 C114 0.961 . S
H117 C114 0.960 . S
C118 N119 1.342 . S
C118 C122 1.401 . S
C118 C123 1.499 . S
N119 Co102 1.989 . S
N119 C118 1.342 . S
N119 N120 1.388 . S
N120 Co103 1.993 . S
N120 N119 1.388 . S
N120 C121 1.346 . S
C121 N120 1.346 . S
C121 C122 1.396 . S
C121 C131 1.510 . S
C122 C118 1.401 . S
C122 C121 1.396 . S
C123 C118 1.499 . S
C123 H124 0.959 . S
C123 H125 0.960 . S
C123 H126 0.961 . S
H124 C123 0.959 . S
H125 C123 0.960 . S
H126 C123 0.961 . S
O127 Co102 1.967 . S
O127 C135 1.258 . S
O128 Co103 1.941 . S
O128 C135 1.266 . S
H129 C131 0.959 . S
H130 C131 0.961 . S
C131 C121 1.510 . S
C131 H129 0.959 . S
C131 H130 0.961 . S
C131 H132 0.960 . S
H132 C131 0.960 . S
H133 N113 0.862 . S
O134 Co102 1.920 . S
O134 C107 1.289 . S
C135 O127 1.258 . S
C135 O128 1.266 . S
Co136 O139 1.970 . S
Co136 N153 1.989 . S
Co136 O161 1.967 . S
Co136 O168 1.920 . S
Co137 O140 1.966 . S
Co137 N146 2.022 . S
Co137 N154 1.993 . S
Co137 O162 1.941 . S
C138 O139 1.258 . S
C138 O140 1.263 . S
O139 Co136 1.970 . S
O139 C138 1.258 . S
O140 Co137 1.966 . S
O140 C138 1.263 . S
C141 O142 1.235 . S
C141 O168 1.289 . S
O142 C141 1.235 . S
C143 C145 1.400 . S
C143 N146 1.351 . S
C143 C148 1.501 . S
C144 C145 1.387 . S
C144 N147 1.341 . S
C145 C143 1.400 . S
C145 C144 1.387 . S
N146 Co137 2.022 . S
N146 C143 1.351 . S
N146 N147 1.365 . S
N147 C144 1.341 . S
N147 N146 1.365 . S
N147 H167 0.862 . S
C148 C143 1.501 . S
C148 H149 0.961 . S
C148 H150 0.961 . S
C148 H151 0.960 . S
H149 C148 0.961 . S
H150 C148 0.961 . S
H151 C148 0.960 . S
C152 N153 1.342 . S
C152 C156 1.401 . S
C152 C157 1.499 . S
N153 Co136 1.989 . S
N153 C152 1.342 . S
N153 N154 1.388 . S
N154 Co137 1.993 . S
N154 N153 1.388 . S
N154 C155 1.346 . S
C155 N154 1.346 . S
C155 C156 1.396 . S
C155 C165 1.510 . S
C156 C152 1.401 . S
C156 C155 1.396 . S
C157 C152 1.499 . S
C157 H158 0.959 . S
C157 H159 0.960 . S
C157 H160 0.961 . S
H158 C157 0.959 . S
H159 C157 0.960 . S
H160 C157 0.961 . S
O161 Co136 1.967 . S
O161 C169 1.258 . S
O162 Co137 1.941 . S
O162 C169 1.266 . S
H163 C165 0.959 . S
H164 C165 0.961 . S
C165 C155 1.510 . S
C165 H163 0.959 . S
C165 H164 0.961 . S
C165 H166 0.960 . S
H166 C165 0.960 . S
H167 N147 0.862 . S
O168 Co136 1.920 . S
O168 C141 1.289 . S
C169 O161 1.258 . S
C169 O162 1.266 . S
Co170 O173 1.970 . S
Co170 N187 1.989 . S
Co170 O195 1.967 . S
Co170 O202 1.920 . S
Co171 O174 1.966 . S
Co171 N180 2.022 . S
Co171 N188 1.993 . S
Co171 O196 1.941 . S
C172 O173 1.258 . S
C172 O174 1.263 . S
O173 Co170 1.970 . S
O173 C172 1.258 . S
O174 Co171 1.966 . S
O174 C172 1.263 . S
C175 O176 1.235 . S
C175 O202 1.289 . S
O176 C175 1.235 . S
C177 C179 1.400 . S
C177 N180 1.351 . S
C177 C182 1.501 . S
C178 C179 1.387 . S
C178 N181 1.341 . S
C179 C177 1.400 . S
C179 C178 1.387 . S
N180 Co171 2.022 . S
N180 C177 1.351 . S
N180 N181 1.365 . S
N181 C178 1.341 . S
N181 N180 1.365 . S
N181 H201 0.862 . S
C182 C177 1.501 . S
C182 H183 0.961 . S
C182 H184 0.961 . S
C182 H185 0.960 . S
H183 C182 0.961 . S
H184 C182 0.961 . S
H185 C182 0.960 . S
C186 N187 1.342 . S
C186 C190 1.401 . S
C186 C191 1.499 . S
N187 Co170 1.989 . S
N187 C186 1.342 . S
N187 N188 1.388 . S
N188 Co171 1.993 . S
N188 N187 1.388 . S
N188 C189 1.346 . S
C189 N188 1.346 . S
C189 C190 1.396 . S
C189 C199 1.510 . S
C190 C186 1.401 . S
C190 C189 1.396 . S
C191 C186 1.499 . S
C191 H192 0.959 . S
C191 H193 0.960 . S
C191 H194 0.961 . S
H192 C191 0.959 . S
H193 C191 0.960 . S
H194 C191 0.961 . S
O195 Co170 1.967 . S
O195 C203 1.258 . S
O196 Co171 1.941 . S
O196 C203 1.266 . S
H197 C199 0.959 . S
H198 C199 0.961 . S
C199 C189 1.510 . S
C199 H197 0.959 . S
C199 H198 0.961 . S
C199 H200 0.960 . S
H200 C199 0.960 . S
H201 N181 0.862 . S
O202 Co170 1.920 . S
O202 C175 1.289 . S
C203 O195 1.258 . S
C203 O196 1.266 . S
Co204 O207 1.970 . S
Co204 N221 1.989 . S
Co204 O229 1.967 . S
Co204 O236 1.920 . S
Co205 O208 1.966 . S
Co205 N214 2.022 . S
Co205 N222 1.993 . S
Co205 O230 1.941 . S
C206 O207 1.258 . S
C206 O208 1.263 . S
O207 Co204 1.970 . S
O207 C206 1.258 . S
O208 Co205 1.966 . S
O208 C206 1.263 . S
C209 O210 1.235 . S
C209 O236 1.289 . S
O210 C209 1.235 . S
C211 C213 1.400 . S
C211 N214 1.351 . S
C211 C216 1.501 . S
C212 C213 1.387 . S
C212 N215 1.341 . S
C213 C211 1.400 . S
C213 C212 1.387 . S
N214 Co205 2.022 . S
N214 C211 1.351 . S
N214 N215 1.365 . S
N215 C212 1.341 . S
N215 N214 1.365 . S
N215 H235 0.862 . S
C216 C211 1.501 . S
C216 H217 0.961 . S
C216 H218 0.961 . S
C216 H219 0.960 . S
H217 C216 0.961 . S
H218 C216 0.961 . S
H219 C216 0.960 . S
C220 N221 1.342 . S
C220 C224 1.401 . S
C220 C225 1.499 . S
N221 Co204 1.989 . S
N221 C220 1.342 . S
N221 N222 1.388 . S
N222 Co205 1.993 . S
N222 N221 1.388 . S
N222 C223 1.346 . S
C223 N222 1.346 . S
C223 C224 1.396 . S
C223 C233 1.510 . S
C224 C220 1.401 . S
C224 C223 1.396 . S
C225 C220 1.499 . S
C225 H226 0.959 . S
C225 H227 0.960 . S
C225 H228 0.961 . S
H226 C225 0.959 . S
H227 C225 0.960 . S
H228 C225 0.961 . S
O229 Co204 1.967 . S
O229 C237 1.258 . S
O230 Co205 1.941 . S
O230 C237 1.266 . S
H231 C233 0.959 . S
H232 C233 0.961 . S
C233 C223 1.510 . S
C233 H231 0.959 . S
C233 H232 0.961 . S
C233 H234 0.960 . S
H234 C233 0.960 . S
H235 N215 0.862 . S
O236 Co204 1.920 . S
O236 C209 1.289 . S
C237 O229 1.258 . S
C237 O230 1.266 . S
Co238 O241 1.970 . S
Co238 N255 1.989 . S
Co238 O263 1.967 . S
Co238 O270 1.920 . S
Co239 O242 1.966 . S
Co239 N248 2.022 . S
Co239 N256 1.993 . S
Co239 O264 1.941 . S
C240 O241 1.258 . S
C240 O242 1.263 . S
O241 Co238 1.970 . S
O241 C240 1.258 . S
O242 Co239 1.966 . S
O242 C240 1.263 . S
C243 O244 1.235 . S
C243 O270 1.289 . S
O244 C243 1.235 . S
C245 C247 1.400 . S
C245 N248 1.351 . S
C245 C250 1.501 . S
C246 C247 1.387 . S
C246 N249 1.341 . S
C247 C245 1.400 . S
C247 C246 1.387 . S
N248 Co239 2.022 . S
N248 C245 1.351 . S
N248 N249 1.365 . S
N249 C246 1.341 . S
N249 N248 1.365 . S
N249 H269 0.862 . S
C250 C245 1.501 . S
C250 H251 0.961 . S
C250 H252 0.961 . S
C250 H253 0.960 . S
H251 C250 0.961 . S
H252 C250 0.961 . S
H253 C250 0.960 . S
C254 N255 1.342 . S
C254 C258 1.401 . S
C254 C259 1.499 . S
N255 Co238 1.989 . S
N255 C254 1.342 . S
N255 N256 1.388 . S
N256 Co239 1.993 . S
N256 N255 1.388 . S
N256 C257 1.346 . S
C257 N256 1.346 . S
C257 C258 1.396 . S
C257 C267 1.510 . S
C258 C254 1.401 . S
C258 C257 1.396 . S
C259 C254 1.499 . S
C259 H260 0.959 . S
C259 H261 0.960 . S
C259 H262 0.961 . S
H260 C259 0.959 . S
H261 C259 0.960 . S
H262 C259 0.961 . S
O263 Co238 1.967 . S
O263 C271 1.258 . S
O264 Co239 1.941 . S
O264 C271 1.266 . S
H265 C267 0.959 . S
H266 C267 0.961 . S
C267 C257 1.510 . S
C267 H265 0.959 . S
C267 H266 0.961 . S
C267 H268 0.960 . S
H268 C267 0.960 . S
H269 N249 0.862 . S
O270 Co238 1.920 . S
O270 C243 1.289 . S
C271 O263 1.258 . S
C271 O264 1.266 . S
Co272 O275 1.970 . S
Co272 N289 1.989 . S
Co272 O297 1.967 . S
Co272 O304 1.920 . S
Co273 O276 1.966 . S
Co273 N282 2.022 . S
Co273 N290 1.993 . S
Co273 O298 1.941 . S
C274 O275 1.258 . S
C274 O276 1.263 . S
O275 Co272 1.970 . S
O275 C274 1.258 . S
O276 Co273 1.966 . S
O276 C274 1.263 . S
C277 O278 1.235 . S
C277 O304 1.289 . S
O278 C277 1.235 . S
C279 C281 1.400 . S
C279 N282 1.351 . S
C279 C284 1.501 . S
C280 C281 1.387 . S
C280 N283 1.341 . S
C281 C279 1.400 . S
C281 C280 1.387 . S
N282 Co273 2.022 . S
N282 C279 1.351 . S
N282 N283 1.365 . S
N283 C280 1.341 . S
N283 N282 1.365 . S
N283 H303 0.862 . S
C284 C279 1.501 . S
C284 H285 0.961 . S
C284 H286 0.961 . S
C284 H287 0.960 . S
H285 C284 0.961 . S
H286 C284 0.961 . S
H287 C284 0.960 . S
C288 N289 1.342 . S
C288 C292 1.401 . S
C288 C293 1.499 . S
N289 Co272 1.989 . S
N289 C288 1.342 . S
N289 N290 1.388 . S
N290 Co273 1.993 . S
N290 N289 1.388 . S
N290 C291 1.346 . S
C291 N290 1.346 . S
C291 C292 1.396 . S
C291 C301 1.510 . S
C292 C288 1.401 . S
C292 C291 1.396 . S
C293 C288 1.499 . S
C293 H294 0.959 . S
C293 H295 0.960 . S
C293 H296 0.961 . S
H294 C293 0.959 . S
H295 C293 0.960 . S
H296 C293 0.961 . S
O297 Co272 1.967 . S
O297 C305 1.258 . S
O298 Co273 1.941 . S
O298 C305 1.266 . S
H299 C301 0.959 . S
H300 C301 0.961 . S
C301 C291 1.510 . S
C301 H299 0.959 . S
C301 H300 0.961 . S
C301 H302 0.960 . S
H302 C301 0.960 . S
H303 N283 0.862 . S
O304 Co272 1.920 . S
O304 C277 1.289 . S
C305 O297 1.258 . S
C305 O298 1.266 . S
Co306 O309 1.970 . S
Co306 N323 1.989 . S
Co306 O331 1.967 . S
Co306 O338 1.920 . S
Co307 O310 1.966 . S
Co307 N316 2.022 . S
Co307 N324 1.993 . S
Co307 O332 1.941 . S
C308 O309 1.258 . S
C308 O310 1.263 . S
O309 Co306 1.970 . S
O309 C308 1.258 . S
O310 Co307 1.966 . S
O310 C308 1.263 . S
C311 O312 1.235 . S
C311 O338 1.289 . S
O312 C311 1.235 . S
C313 C315 1.400 . S
C313 N316 1.351 . S
C313 C318 1.501 . S
C314 C315 1.387 . S
C314 N317 1.341 . S
C315 C313 1.400 . S
C315 C314 1.387 . S
N316 Co307 2.022 . S
N316 C313 1.351 . S
N316 N317 1.365 . S
N317 C314 1.341 . S
N317 N316 1.365 . S
N317 H337 0.862 . S
C318 C313 1.501 . S
C318 H319 0.961 . S
C318 H320 0.961 . S
C318 H321 0.960 . S
H319 C318 0.961 . S
H320 C318 0.961 . S
H321 C318 0.960 . S
C322 N323 1.342 . S
C322 C326 1.401 . S
C322 C327 1.499 . S
N323 Co306 1.989 . S
N323 C322 1.342 . S
N323 N324 1.388 . S
N324 Co307 1.993 . S
N324 N323 1.388 . S
N324 C325 1.346 . S
C325 N324 1.346 . S
C325 C326 1.396 . S
C325 C335 1.510 . S
C326 C322 1.401 . S
C326 C325 1.396 . S
C327 C322 1.499 . S
C327 H328 0.959 . S
C327 H329 0.960 . S
C327 H330 0.961 . S
H328 C327 0.959 . S
H329 C327 0.960 . S
H330 C327 0.961 . S
O331 Co306 1.967 . S
O331 C339 1.258 . S
O332 Co307 1.941 . S
O332 C339 1.266 . S
H333 C335 0.959 . S
H334 C335 0.961 . S
C335 C325 1.510 . S
C335 H333 0.959 . S
C335 H334 0.961 . S
C335 H336 0.960 . S
H336 C335 0.960 . S
H337 N317 0.862 . S
O338 Co306 1.920 . S
O338 C311 1.289 . S
C339 O331 1.258 . S
C339 O332 1.266 . S
Co340 O343 1.970 . S
Co340 N357 1.989 . S
Co340 O365 1.967 . S
Co340 O372 1.920 . S
Co341 O344 1.966 . S
Co341 N350 2.022 . S
Co341 N358 1.993 . S
Co341 O366 1.941 . S
C342 O343 1.258 . S
C342 O344 1.263 . S
O343 Co340 1.970 . S
O343 C342 1.258 . S
O344 Co341 1.966 . S
O344 C342 1.263 . S
C345 O346 1.235 . S
C345 O372 1.289 . S
O346 C345 1.235 . S
C347 C349 1.400 . S
C347 N350 1.351 . S
C347 C352 1.501 . S
C348 C349 1.387 . S
C348 N351 1.341 . S
C349 C347 1.400 . S
C349 C348 1.387 . S
N350 Co341 2.022 . S
N350 C347 1.351 . S
N350 N351 1.365 . S
N351 C348 1.341 . S
N351 N350 1.365 . S
N351 H371 0.862 . S
C352 C347 1.501 . S
C352 H353 0.961 . S
C352 H354 0.961 . S
C352 H355 0.960 . S
H353 C352 0.961 . S
H354 C352 0.961 . S
H355 C352 0.960 . S
C356 N357 1.342 . S
C356 C360 1.401 . S
C356 C361 1.499 . S
N357 Co340 1.989 . S
N357 C356 1.342 . S
N357 N358 1.388 . S
N358 Co341 1.993 . S
N358 N357 1.388 . S
N358 C359 1.346 . S
C359 N358 1.346 . S
C359 C360 1.396 . S
C359 C369 1.510 . S
C360 C356 1.401 . S
C360 C359 1.396 . S
C361 C356 1.499 . S
C361 H362 0.959 . S
C361 H363 0.960 . S
C361 H364 0.961 . S
H362 C361 0.959 . S
H363 C361 0.960 . S
H364 C361 0.961 . S
O365 Co340 1.967 . S
O365 C373 1.258 . S
O366 Co341 1.941 . S
O366 C373 1.266 . S
H367 C369 0.959 . S
H368 C369 0.961 . S
C369 C359 1.510 . S
C369 H367 0.959 . S
C369 H368 0.961 . S
C369 H370 0.960 . S
H370 C369 0.960 . S
H371 N351 0.862 . S
O372 Co340 1.920 . S
O372 C345 1.289 . S
C373 O365 1.258 . S
C373 O366 1.266 . S
Co374 O377 1.970 . S
Co374 N391 1.989 . S
Co374 O399 1.967 . S
Co374 O406 1.920 . S
Co375 O378 1.966 . S
Co375 N384 2.022 . S
Co375 N392 1.993 . S
Co375 O400 1.941 . S
C376 O377 1.258 . S
C376 O378 1.263 . S
O377 Co374 1.970 . S
O377 C376 1.258 . S
O378 Co375 1.966 . S
O378 C376 1.263 . S
C379 O380 1.235 . S
C379 O406 1.289 . S
O380 C379 1.235 . S
C381 C383 1.400 . S
C381 N384 1.351 . S
C381 C386 1.501 . S
C382 C383 1.387 . S
C382 N385 1.341 . S
C383 C381 1.400 . S
C383 C382 1.387 . S
N384 Co375 2.022 . S
N384 C381 1.351 . S
N384 N385 1.365 . S
N385 C382 1.341 . S
N385 N384 1.365 . S
N385 H405 0.862 . S
C386 C381 1.501 . S
C386 H387 0.961 . S
C386 H388 0.961 . S
C386 H389 0.960 . S
H387 C386 0.961 . S
H388 C386 0.961 . S
H389 C386 0.960 . S
C390 N391 1.342 . S
C390 C394 1.401 . S
C390 C395 1.499 . S
N391 Co374 1.989 . S
N391 C390 1.342 . S
N391 N392 1.388 . S
N392 Co375 1.993 . S
N392 N391 1.388 . S
N392 C393 1.346 . S
C393 N392 1.346 . S
C393 C394 1.396 . S
C393 C403 1.510 . S
C394 C390 1.401 . S
C394 C393 1.396 . S
C395 C390 1.499 . S
C395 H396 0.959 . S
C395 H397 0.960 . S
C395 H398 0.961 . S
H396 C395 0.959 . S
H397 C395 0.960 . S
H398 C395 0.961 . S
O399 Co374 1.967 . S
O399 C407 1.258 . S
O400 Co375 1.941 . S
O400 C407 1.266 . S
H401 C403 0.959 . S
H402 C403 0.961 . S
C403 C393 1.510 . S
C403 H401 0.959 . S
C403 H402 0.961 . S
C403 H404 0.960 . S
H404 C403 0.960 . S
H405 N385 0.862 . S
O406 Co374 1.920 . S
O406 C379 1.289 . S
C407 O399 1.258 . S
C407 O400 1.266 . S
H408 C420 0.930 . S
H409 C422 0.930 . S
H410 C423 0.930 . S
H411 C427 0.959 . S
H412 C427 0.959 . S
H413 C427 0.961 . S
H414 C428 0.960 . S
H415 C428 0.961 . S
H416 C428 0.959 . S
H417 C431 0.929 . S
H418 C432 0.931 . S
H419 C434 0.930 . S
C420 H408 0.930 . S
C420 C421 1.399 . S
C420 C425 1.399 . S
C421 C420 1.399 . S
C421 C422 1.376 . S
C422 H409 0.930 . S
C422 C421 1.376 . S
C422 C423 1.388 . S
C423 H410 0.930 . S
C423 C422 1.388 . S
C423 C424 1.390 . S
C424 C423 1.390 . S
C424 C425 1.394 . S
C424 C430 1.465 . S
C425 C420 1.399 . S
C425 C424 1.394 . S
C425 C426 1.516 . S
C426 C425 1.516 . S
C426 C427 1.502 . S
C426 C428 1.561 . S
C426 C429 1.526 . S
C427 H411 0.959 . S
C427 H412 0.959 . S
C427 H413 0.961 . S
C427 C426 1.502 . S
C428 H414 0.960 . S
C428 H415 0.961 . S
C428 H416 0.959 . S
C428 C426 1.561 . S
C429 C426 1.526 . S
C429 C430 1.396 . S
C429 C434 1.390 . S
C430 C424 1.465 . S
C430 C429 1.396 . S
C430 C431 1.399 . S
C431 H417 0.929 . S
C431 C430 1.399 . S
C431 C432 1.385 . S
C432 H418 0.931 . S
C432 C431 1.385 . S
C432 C433 1.389 . S
C433 C432 1.389 . S
C433 C434 1.387 . S
C434 H419 0.930 . S
C434 C429 1.390 . S
C434 C433 1.387 . S
H435 C447 0.930 . S
H436 C449 0.930 . S
H437 C450 0.930 . S
H438 C454 0.959 . S
H439 C454 0.959 . S
H440 C454 0.961 . S
H441 C455 0.960 . S
H442 C455 0.961 . S
H443 C455 0.959 . S
H444 C458 0.929 . S
H445 C459 0.931 . S
H446 C461 0.930 . S
C447 H435 0.930 . S
C447 C448 1.399 . S
C447 C452 1.399 . S
C448 C447 1.399 . S
C448 C449 1.376 . S
C449 H436 0.930 . S
C449 C448 1.376 . S
C449 C450 1.388 . S
C450 H437 0.930 . S
C450 C449 1.388 . S
C450 C451 1.390 . S
C451 C450 1.390 . S
C451 C452 1.394 . S
C451 C457 1.465 . S
C452 C447 1.399 . S
C452 C451 1.394 . S
C452 C453 1.516 . S
C453 C452 1.516 . S
C453 C454 1.502 . S
C453 C455 1.561 . S
C453 C456 1.526 . S
C454 H438 0.959 . S
C454 H439 0.959 . S
C454 H440 0.961 . S
C454 C453 1.502 . S
C455 H441 0.960 . S
C455 H442 0.961 . S
C455 H443 0.959 . S
C455 C453 1.561 . S
C456 C453 1.526 . S
C456 C457 1.396 . S
C456 C461 1.390 . S
C457 C451 1.465 . S
C457 C456 1.396 . S
C457 C458 1.399 . S
C458 H444 0.929 . S
C458 C457 1.399 . S
C458 C459 1.385 . S
C459 H445 0.931 . S
C459 C458 1.385 . S
C459 C460 1.389 . S
C460 C459 1.389 . S
C460 C461 1.387 . S
C461 H446 0.930 . S
C461 C456 1.390 . S
C461 C460 1.387 . S
H462 C474 0.930 . S
H463 C476 0.930 . S
H464 C477 0.930 . S
H465 C481 0.959 . S
H466 C481 0.959 . S
H467 C481 0.961 . S
H468 C482 0.960 . S
H469 C482 0.961 . S
H470 C482 0.959 . S
H471 C485 0.929 . S
H472 C486 0.931 . S
H473 C488 0.930 . S
C474 H462 0.930 . S
C474 C475 1.399 . S
C474 C479 1.399 . S
C475 C474 1.399 . S
C475 C476 1.376 . S
C476 H463 0.930 . S
C476 C475 1.376 . S
C476 C477 1.388 . S
C477 H464 0.930 . S
C477 C476 1.388 . S
C477 C478 1.390 . S
C478 C477 1.390 . S
C478 C479 1.394 . S
C478 C484 1.465 . S
C479 C474 1.399 . S
C479 C478 1.394 . S
C479 C480 1.516 . S
C480 C479 1.516 . S
C480 C481 1.502 . S
C480 C482 1.561 . S
C480 C483 1.526 . S
C481 H465 0.959 . S
C481 H466 0.959 . S
C481 H467 0.961 . S
C481 C480 1.502 . S
C482 H468 0.960 . S
C482 H469 0.961 . S
C482 H470 0.959 . S
C482 C480 1.561 . S
C483 C480 1.526 . S
C483 C484 1.396 . S
C483 C488 1.390 . S
C484 C478 1.465 . S
C484 C483 1.396 . S
C484 C485 1.399 . S
C485 H471 0.929 . S
C485 C484 1.399 . S
C485 C486 1.385 . S
C486 H472 0.931 . S
C486 C485 1.385 . S
C486 C487 1.389 . S
C487 C486 1.389 . S
C487 C488 1.387 . S
C488 H473 0.930 . S
C488 C483 1.390 . S
C488 C487 1.387 . S
H489 C501 0.930 . S
H490 C503 0.930 . S
H491 C504 0.930 . S
H492 C508 0.959 . S
H493 C508 0.959 . S
H494 C508 0.961 . S
H495 C509 0.960 . S
H496 C509 0.961 . S
H497 C509 0.959 . S
H498 C512 0.929 . S
H499 C513 0.931 . S
H500 C515 0.930 . S
C501 H489 0.930 . S
C501 C502 1.399 . S
C501 C506 1.399 . S
C502 C501 1.399 . S
C502 C503 1.376 . S
C503 H490 0.930 . S
C503 C502 1.376 . S
C503 C504 1.388 . S
C504 H491 0.930 . S
C504 C503 1.388 . S
C504 C505 1.390 . S
C505 C504 1.390 . S
C505 C506 1.394 . S
C505 C511 1.465 . S
C506 C501 1.399 . S
C506 C505 1.394 . S
C506 C507 1.516 . S
C507 C506 1.516 . S
C507 C508 1.502 . S
C507 C509 1.561 . S
C507 C510 1.526 . S
C508 H492 0.959 . S
C508 H493 0.959 . S
C508 H494 0.961 . S
C508 C507 1.502 . S
C509 H495 0.960 . S
C509 H496 0.961 . S
C509 H497 0.959 . S
C509 C507 1.561 . S
C510 C507 1.526 . S
C510 C511 1.396 . S
C510 C515 1.390 . S
C511 C505 1.465 . S
C511 C510 1.396 . S
C511 C512 1.399 . S
C512 H498 0.929 . S
C512 C511 1.399 . S
C512 C513 1.385 . S
C513 H499 0.931 . S
C513 C512 1.385 . S
C513 C514 1.389 . S
C514 C513 1.389 . S
C514 C515 1.387 . S
C515 H500 0.930 . S
C515 C510 1.390 . S
C515 C514 1.387 . S
H516 C528 0.930 . S
H517 C530 0.930 . S
H518 C531 0.930 . S
H519 C535 0.959 . S
H520 C535 0.959 . S
H521 C535 0.961 . S
H522 C536 0.960 . S
H523 C536 0.961 . S
H524 C536 0.959 . S
H525 C539 0.929 . S
H526 C540 0.931 . S
H527 C542 0.930 . S
C528 H516 0.930 . S
C528 C529 1.399 . S
C528 C533 1.399 . S
C529 C528 1.399 . S
C529 C530 1.376 . S
C530 H517 0.930 . S
C530 C529 1.376 . S
C530 C531 1.388 . S
C531 H518 0.930 . S
C531 C530 1.388 . S
C531 C532 1.390 . S
C532 C531 1.390 . S
C532 C533 1.394 . S
C532 C538 1.465 . S
C533 C528 1.399 . S
C533 C532 1.394 . S
C533 C534 1.516 . S
C534 C533 1.516 . S
C534 C535 1.502 . S
C534 C536 1.561 . S
C534 C537 1.526 . S
C535 H519 0.959 . S
C535 H520 0.959 . S
C535 H521 0.961 . S
C535 C534 1.502 . S
C536 H522 0.960 . S
C536 H523 0.961 . S
C536 H524 0.959 . S
C536 C534 1.561 . S
C537 C534 1.526 . S
C537 C538 1.396 . S
C537 C542 1.390 . S
C538 C532 1.465 . S
C538 C537 1.396 . S
C538 C539 1.399 . S
C539 H525 0.929 . S
C539 C538 1.399 . S
C539 C540 1.385 . S
C540 H526 0.931 . S
C540 C539 1.385 . S
C540 C541 1.389 . S
C541 C540 1.389 . S
C541 C542 1.387 . S
C542 H527 0.930 . S
C542 C537 1.390 . S
C542 C541 1.387 . S
H543 C555 0.930 . S
H544 C557 0.930 . S
H545 C558 0.930 . S
H546 C562 0.959 . S
H547 C562 0.959 . S
H548 C562 0.961 . S
H549 C563 0.960 . S
H550 C563 0.961 . S
H551 C563 0.959 . S
H552 C566 0.929 . S
H553 C567 0.931 . S
H554 C569 0.930 . S
C555 H543 0.930 . S
C555 C556 1.399 . S
C555 C560 1.399 . S
C556 C555 1.399 . S
C556 C557 1.376 . S
C557 H544 0.930 . S
C557 C556 1.376 . S
C557 C558 1.388 . S
C558 H545 0.930 . S
C558 C557 1.388 . S
C558 C559 1.390 . S
C559 C558 1.390 . S
C559 C560 1.394 . S
C559 C565 1.465 . S
C560 C555 1.399 . S
C560 C559 1.394 . S
C560 C561 1.516 . S
C561 C560 1.516 . S
C561 C562 1.502 . S
C561 C563 1.561 . S
C561 C564 1.526 . S
C562 H546 0.959 . S
C562 H547 0.959 . S
C562 H548 0.961 . S
C562 C561 1.502 . S
C563 H549 0.960 . S
C563 H550 0.961 . S
C563 H551 0.959 . S
C563 C561 1.561 . S
C564 C561 1.526 . S
C564 C565 1.396 . S
C564 C569 1.390 . S
C565 C559 1.465 . S
C565 C564 1.396 . S
C565 C566 1.399 . S
C566 H552 0.929 . S
C566 C565 1.399 . S
C566 C567 1.385 . S
C567 H553 0.931 . S
C567 C566 1.385 . S
C567 C568 1.389 . S
C568 C567 1.389 . S
C568 C569 1.387 . S
C569 H554 0.930 . S
C569 C564 1.390 . S
C569 C568 1.387 . S
H570 C582 0.930 . S
H571 C584 0.930 . S
H572 C585 0.930 . S
H573 C589 0.959 . S
H574 C589 0.959 . S
H575 C589 0.961 . S
H576 C590 0.960 . S
H577 C590 0.961 . S
H578 C590 0.959 . S
H579 C593 0.929 . S
H580 C594 0.931 . S
H581 C596 0.930 . S
C582 H570 0.930 . S
C582 C583 1.399 . S
C582 C587 1.399 . S
C583 C582 1.399 . S
C583 C584 1.376 . S
C584 H571 0.930 . S
C584 C583 1.376 . S
C584 C585 1.388 . S
C585 H572 0.930 . S
C585 C584 1.388 . S
C585 C586 1.390 . S
C586 C585 1.390 . S
C586 C587 1.394 . S
C586 C592 1.465 . S
C587 C582 1.399 . S
C587 C586 1.394 . S
C587 C588 1.516 . S
C588 C587 1.516 . S
C588 C589 1.502 . S
C588 C590 1.561 . S
C588 C591 1.526 . S
C589 H573 0.959 . S
C589 H574 0.959 . S
C589 H575 0.961 . S
C589 C588 1.502 . S
C590 H576 0.960 . S
C590 H577 0.961 . S
C590 H578 0.959 . S
C590 C588 1.561 . S
C591 C588 1.526 . S
C591 C592 1.396 . S
C591 C596 1.390 . S
C592 C586 1.465 . S
C592 C591 1.396 . S
C592 C593 1.399 . S
C593 H579 0.929 . S
C593 C592 1.399 . S
C593 C594 1.385 . S
C594 H580 0.931 . S
C594 C593 1.385 . S
C594 C595 1.389 . S
C595 C594 1.389 . S
C595 C596 1.387 . S
C596 H581 0.930 . S
C596 C591 1.390 . S
C596 C595 1.387 . S
H597 C609 0.930 . S
H598 C611 0.930 . S
H599 C612 0.930 . S
H600 C616 0.959 . S
H601 C616 0.959 . S
H602 C616 0.961 . S
H603 C617 0.960 . S
H604 C617 0.961 . S
H605 C617 0.959 . S
H606 C620 0.929 . S
H607 C621 0.931 . S
H608 C623 0.930 . S
C609 H597 0.930 . S
C609 C610 1.399 . S
C609 C614 1.399 . S
C610 C609 1.399 . S
C610 C611 1.376 . S
C611 H598 0.930 . S
C611 C610 1.376 . S
C611 C612 1.388 . S
C612 H599 0.930 . S
C612 C611 1.388 . S
C612 C613 1.390 . S
C613 C612 1.390 . S
C613 C614 1.394 . S
C613 C619 1.465 . S
C614 C609 1.399 . S
C614 C613 1.394 . S
C614 C615 1.516 . S
C615 C614 1.516 . S
C615 C616 1.502 . S
C615 C617 1.561 . S
C615 C618 1.526 . S
C616 H600 0.959 . S
C616 H601 0.959 . S
C616 H602 0.961 . S
C616 C615 1.502 . S
C617 H603 0.960 . S
C617 H604 0.961 . S
C617 H605 0.959 . S
C617 C615 1.561 . S
C618 C615 1.526 . S
C618 C619 1.396 . S
C618 C623 1.390 . S
C619 C613 1.465 . S
C619 C618 1.396 . S
C619 C620 1.399 . S
C620 H606 0.929 . S
C620 C619 1.399 . S
C620 C621 1.385 . S
C621 H607 0.931 . S
C621 C620 1.385 . S
C621 C622 1.389 . S
C622 C621 1.389 . S
C622 C623 1.387 . S
C623 H608 0.930 . S
C623 C618 1.390 . S
C623 C622 1.387 . S
H624 C636 0.930 . S
H625 C638 0.930 . S
H626 C639 0.930 . S
H627 C643 0.959 . S
H628 C643 0.959 . S
H629 C643 0.961 . S
H630 C644 0.960 . S
H631 C644 0.961 . S
H632 C644 0.959 . S
H633 C647 0.929 . S
H634 C648 0.931 . S
H635 C650 0.930 . S
C636 H624 0.930 . S
C636 C637 1.399 . S
C636 C641 1.399 . S
C637 C636 1.399 . S
C637 C638 1.376 . S
C638 H625 0.930 . S
C638 C637 1.376 . S
C638 C639 1.388 . S
C639 H626 0.930 . S
C639 C638 1.388 . S
C639 C640 1.390 . S
C640 C639 1.390 . S
C640 C641 1.394 . S
C640 C646 1.465 . S
C641 C636 1.399 . S
C641 C640 1.394 . S
C641 C642 1.516 . S
C642 C641 1.516 . S
C642 C643 1.502 . S
C642 C644 1.561 . S
C642 C645 1.526 . S
C643 H627 0.959 . S
C643 H628 0.959 . S
C643 H629 0.961 . S
C643 C642 1.502 . S
C644 H630 0.960 . S
C644 H631 0.961 . S
C644 H632 0.959 . S
C644 C642 1.561 . S
C645 C642 1.526 . S
C645 C646 1.396 . S
C645 C650 1.390 . S
C646 C640 1.465 . S
C646 C645 1.396 . S
C646 C647 1.399 . S
C647 H633 0.929 . S
C647 C646 1.399 . S
C647 C648 1.385 . S
C648 H634 0.931 . S
C648 C647 1.385 . S
C648 C649 1.389 . S
C649 C648 1.389 . S
C649 C650 1.387 . S
C650 H635 0.930 . S
C650 C645 1.390 . S
C650 C649 1.387 . S
H651 C663 0.930 . S
H652 C665 0.930 . S
H653 C666 0.930 . S
H654 C670 0.959 . S
H655 C670 0.959 . S
H656 C670 0.961 . S
H657 C671 0.960 . S
H658 C671 0.961 . S
H659 C671 0.959 . S
H660 C674 0.929 . S
H661 C675 0.931 . S
H662 C677 0.930 . S
C663 H651 0.930 . S
C663 C664 1.399 . S
C663 C668 1.399 . S
C664 C663 1.399 . S
C664 C665 1.376 . S
C665 H652 0.930 . S
C665 C664 1.376 . S
C665 C666 1.388 . S
C666 H653 0.930 . S
C666 C665 1.388 . S
C666 C667 1.390 . S
C667 C666 1.390 . S
C667 C668 1.394 . S
C667 C673 1.465 . S
C668 C663 1.399 . S
C668 C667 1.394 . S
C668 C669 1.516 . S
C669 C668 1.516 . S
C669 C670 1.502 . S
C669 C671 1.561 . S
C669 C672 1.526 . S
C670 H654 0.959 . S
C670 H655 0.959 . S
C670 H656 0.961 . S
C670 C669 1.502 . S
C671 H657 0.960 . S
C671 H658 0.961 . S
C671 H659 0.959 . S
C671 C669 1.561 . S
C672 C669 1.526 . S
C672 C673 1.396 . S
C672 C677 1.390 . S
C673 C667 1.465 . S
C673 C672 1.396 . S
C673 C674 1.399 . S
C674 H660 0.929 . S
C674 C673 1.399 . S
C674 C675 1.385 . S
C675 H661 0.931 . S
C675 C674 1.385 . S
C675 C676 1.389 . S
C676 C675 1.389 . S
C676 C677 1.387 . S
C677 H662 0.930 . S
C677 C672 1.390 . S
C677 C676 1.387 . S
H678 C690 0.930 . S
H679 C692 0.930 . S
H680 C693 0.930 . S
H681 C697 0.959 . S
H682 C697 0.959 . S
H683 C697 0.961 . S
H684 C698 0.960 . S
H685 C698 0.961 . S
H686 C698 0.959 . S
H687 C701 0.929 . S
H688 C702 0.931 . S
H689 C704 0.930 . S
C690 H678 0.930 . S
C690 C691 1.399 . S
C690 C695 1.399 . S
C691 C690 1.399 . S
C691 C692 1.376 . S
C692 H679 0.930 . S
C692 C691 1.376 . S
C692 C693 1.388 . S
C693 H680 0.930 . S
C693 C692 1.388 . S
C693 C694 1.390 . S
C694 C693 1.390 . S
C694 C695 1.394 . S
C694 C700 1.465 . S
C695 C690 1.399 . S
C695 C694 1.394 . S
C695 C696 1.516 . S
C696 C695 1.516 . S
C696 C697 1.502 . S
C696 C698 1.561 . S
C696 C699 1.526 . S
C697 H681 0.959 . S
C697 H682 0.959 . S
C697 H683 0.961 . S
C697 C696 1.502 . S
C698 H684 0.960 . S
C698 H685 0.961 . S
C698 H686 0.959 . S
C698 C696 1.561 . S
C699 C696 1.526 . S
C699 C700 1.396 . S
C699 C704 1.390 . S
C700 C694 1.465 . S
C700 C699 1.396 . S
C700 C701 1.399 . S
C701 H687 0.929 . S
C701 C700 1.399 . S
C701 C702 1.385 . S
C702 H688 0.931 . S
C702 C701 1.385 . S
C702 C703 1.389 . S
C703 C702 1.389 . S
C703 C704 1.387 . S
C704 H689 0.930 . S
C704 C699 1.390 . S
C704 C703 1.387 . S
H705 C717 0.930 . S
H706 C719 0.930 . S
H707 C720 0.930 . S
H708 C724 0.959 . S
H709 C724 0.959 . S
H710 C724 0.961 . S
H711 C725 0.960 . S
H712 C725 0.961 . S
H713 C725 0.959 . S
H714 C728 0.929 . S
H715 C729 0.931 . S
H716 C731 0.930 . S
C717 H705 0.930 . S
C717 C718 1.399 . S
C717 C722 1.399 . S
C718 C717 1.399 . S
C718 C719 1.376 . S
C719 H706 0.930 . S
C719 C718 1.376 . S
C719 C720 1.388 . S
C720 H707 0.930 . S
C720 C719 1.388 . S
C720 C721 1.390 . S
C721 C720 1.390 . S
C721 C722 1.394 . S
C721 C727 1.465 . S
C722 C717 1.399 . S
C722 C721 1.394 . S
C722 C723 1.516 . S
C723 C722 1.516 . S
C723 C724 1.502 . S
C723 C725 1.561 . S
C723 C726 1.526 . S
C724 H708 0.959 . S
C724 H709 0.959 . S
C724 H710 0.961 . S
C724 C723 1.502 . S
C725 H711 0.960 . S
C725 H712 0.961 . S
C725 H713 0.959 . S
C725 C723 1.561 . S
C726 C723 1.526 . S
C726 C727 1.396 . S
C726 C731 1.390 . S
C727 C721 1.465 . S
C727 C726 1.396 . S
C727 C728 1.399 . S
C728 H714 0.929 . S
C728 C727 1.399 . S
C728 C729 1.385 . S
C729 H715 0.931 . S
C729 C728 1.385 . S
C729 C730 1.389 . S
C730 C729 1.389 . S
C730 C731 1.387 . S
C731 H716 0.930 . S
C731 C726 1.390 . S
C731 C730 1.387 . S
H732 C744 0.930 . S
H733 C746 0.930 . S
H734 C747 0.930 . S
H735 C751 0.959 1_554 S
H736 C751 0.959 . S
H737 C751 0.961 . S
H738 C752 0.960 . S
H739 C752 0.961 . S
H740 C752 0.959 . S
H741 C755 0.929 1_554 S
H742 C756 0.931 . S
H743 C758 0.930 . S
C744 H732 0.930 . S
C744 C745 1.399 . S
C744 C749 1.399 . S
C745 C744 1.399 . S
C745 C746 1.376 . S
C746 H733 0.930 . S
C746 C745 1.376 . S
C746 C747 1.388 . S
C747 H734 0.930 . S
C747 C746 1.388 . S
C747 C748 1.390 . S
C748 C747 1.390 . S
C748 C749 1.394 . S
C748 C754 1.465 . S
C749 C744 1.399 . S
C749 C748 1.394 . S
C749 C750 1.516 1_554 S
C750 C749 1.516 1_556 S
C750 C751 1.502 . S
C750 C752 1.561 . S
C750 C753 1.526 . S
C751 H735 0.959 1_556 S
C751 H736 0.959 . S
C751 H737 0.961 . S
C751 C750 1.502 . S
C752 H738 0.960 . S
C752 H739 0.961 . S
C752 H740 0.959 . S
C752 C750 1.561 . S
C753 C750 1.526 . S
C753 C754 1.396 1_556 S
C753 C758 1.390 1_545 S
C754 C748 1.465 . S
C754 C753 1.396 1_554 S
C754 C755 1.399 1_544 S
C755 H741 0.929 1_556 S
C755 C754 1.399 1_566 S
C755 C756 1.385 . S
C756 H742 0.931 . S
C756 C755 1.385 . S
C756 C757 1.389 . S
C757 C756 1.389 . S
C757 C758 1.387 . S
C758 H743 0.930 . S
C758 C753 1.390 1_565 S
C758 C757 1.387 . S
H759 C771 0.930 . S
H760 C773 0.930 . S
H761 C774 0.930 1_556 S
H762 C778 0.959 . S
H763 C778 0.959 . S
H764 C778 0.961 . S
H765 C779 0.960 . S
H766 C779 0.961 . S
H767 C779 0.959 . S
H768 C782 0.929 . S
H769 C783 0.930 1_655 S
H770 C785 0.930 . S
C771 H759 0.930 . S
C771 C772 1.399 . S
C771 C776 1.399 . S
C772 C771 1.399 . S
C772 C773 1.376 . S
C773 H760 0.930 . S
C773 C772 1.376 . S
C773 C774 1.388 . S
C774 H761 0.930 1_554 S
C774 C773 1.388 . S
C774 C775 1.390 . S
C775 C774 1.390 . S
C775 C776 1.394 . S
C775 C781 1.465 1_554 S
C776 C771 1.399 . S
C776 C775 1.394 . S
C776 C777 1.516 1_655 S
C777 C776 1.516 1_455 S
C777 C778 1.502 . S
C777 C779 1.561 . S
C777 C780 1.526 1_554 S
C778 H762 0.959 . S
C778 H763 0.959 . S
C778 H764 0.961 . S
C778 C777 1.502 . S
C779 H765 0.960 . S
C779 H766 0.961 . S
C779 H767 0.959 . S
C779 C777 1.561 . S
C780 C777 1.526 1_556 S
C780 C781 1.396 1_455 S
C780 C785 1.390 . S
C781 C775 1.465 1_556 S
C781 C780 1.396 1_655 S
C781 C782 1.399 . S
C782 H768 0.929 . S
C782 C781 1.399 . S
C782 C783 1.383 1_655 S
C783 H769 0.930 1_455 S
C783 C782 1.383 1_455 S
C783 C784 1.392 . S
C784 C783 1.392 . S
C784 C785 1.387 . S
C785 H770 0.930 . S
C785 C780 1.390 . S
C785 C784 1.387 . S
H786 C798 0.930 . S
H787 C800 0.930 . S
H788 C801 0.930 . S
H789 C805 0.954 1_554 S
H790 C805 0.959 . S
H791 C805 0.961 . S
H792 C806 0.960 . S
H793 C806 0.961 . S
H794 C806 0.959 . S
H795 C809 0.929 1_554 S
H796 C810 0.931 . S
H797 C812 0.930 . S
C798 H786 0.930 . S
C798 C799 1.399 . S
C798 C803 1.399 . S
C799 C798 1.399 . S
C799 C800 1.376 . S
C800 H787 0.930 . S
C800 C799 1.376 . S
C800 C801 1.388 . S
C801 H788 0.930 . S
C801 C800 1.388 . S
C801 C802 1.390 . S
C802 C801 1.390 . S
C802 C803 1.394 . S
C802 C808 1.465 . S
C803 C798 1.399 . S
C803 C802 1.394 . S
C803 C804 1.516 1_554 S
C804 C803 1.516 1_556 S
C804 C805 1.502 . S
C804 C806 1.561 . S
C804 C807 1.526 . S
C805 H789 0.954 1_556 S
C805 H790 0.959 . S
C805 H791 0.961 . S
C805 C804 1.502 . S
C806 H792 0.960 . S
C806 H793 0.961 . S
C806 H794 0.959 . S
C806 C804 1.561 . S
C807 C804 1.526 . S
C807 C808 1.396 1_556 S
C807 C812 1.390 . S
C808 C802 1.465 . S
C808 C807 1.396 1_554 S
C808 C809 1.399 1_554 S
C809 H795 0.929 1_556 S
C809 C808 1.399 1_556 S
C809 C810 1.385 . S
C810 H796 0.931 . S
C810 C809 1.385 . S
C810 C811 1.389 . S
C811 C810 1.389 . S
C811 C812 1.387 . S
C812 H797 0.930 . S
C812 C807 1.390 . S
C812 C811 1.387 . S
H813 C825 0.930 . S
H814 C827 0.930 . S
H815 C828 0.930 . S
H816 C832 0.959 1_455 S
H817 C832 0.959 . S
H818 C832 0.961 . S
H819 C833 0.960 . S
H820 C833 0.961 . S
H821 C833 0.959 . S
H822 C836 0.929 . S
H823 C837 0.931 . S
H824 C839 0.930 . S
C825 H813 0.930 . S
C825 C826 1.399 . S
C825 C830 1.399 . S
C826 C825 1.399 . S
C826 C827 1.376 . S
C827 H814 0.930 . S
C827 C826 1.376 . S
C827 C828 1.388 1_655 S
C828 H815 0.930 . S
C828 C827 1.388 1_455 S
C828 C829 1.390 . S
C829 C828 1.390 . S
C829 C830 1.394 1_455 S
C829 C835 1.465 . S
C830 C825 1.399 . S
C830 C829 1.394 1_655 S
C830 C831 1.516 . S
C831 C830 1.516 . S
C831 C832 1.502 . S
C831 C833 1.561 . S
C831 C834 1.526 1_655 S
C832 H816 0.959 1_655 S
C832 H817 0.959 . S
C832 H818 0.961 . S
C832 C831 1.502 . S
C833 H819 0.960 . S
C833 H820 0.961 . S
C833 H821 0.959 . S
C833 C831 1.561 . S
C834 C831 1.526 1_455 S
C834 C835 1.396 . S
C834 C839 1.390 . S
C835 C829 1.465 . S
C835 C834 1.396 . S
C835 C836 1.399 . S
C836 H822 0.929 . S
C836 C835 1.399 . S
C836 C837 1.385 . S
C837 H823 0.931 . S
C837 C836 1.385 . S
C837 C838 1.389 . S
C838 C837 1.389 . S
C838 C839 1.387 . S
C839 H824 0.930 . S
C839 C834 1.390 . S
C839 C838 1.387 . S
H840 C852 0.930 . S
H841 C854 0.930 . S
H842 C855 0.930 . S
H843 C859 0.959 . S
H844 C859 0.959 . S
H845 C859 0.961 . S
H846 C860 0.960 . S
H847 C860 0.961 . S
H848 C860 0.959 . S
H849 C863 0.929 . S
H850 C864 0.931 . S
H851 C866 0.930 . S
C852 H840 0.930 . S
C852 C853 1.399 . S
C852 C857 1.399 . S
C853 C852 1.399 . S
C853 C854 1.376 . S
C854 H841 0.930 . S
C854 C853 1.376 . S
C854 C855 1.388 . S
C855 H842 0.930 . S
C855 C854 1.388 . S
C855 C856 1.390 . S
C856 C855 1.390 . S
C856 C857 1.394 . S
C856 C862 1.465 . S
C857 C852 1.399 . S
C857 C856 1.394 . S
C857 C858 1.516 . S
C858 C857 1.516 . S
C858 C859 1.502 . S
C858 C860 1.561 . S
C858 C861 1.526 . S
C859 H843 0.959 . S
C859 H844 0.959 . S
C859 H845 0.961 . S
C859 C858 1.502 . S
C860 H846 0.960 . S
C860 H847 0.961 . S
C860 H848 0.959 . S
C860 C858 1.561 . S
C861 C858 1.526 . S
C861 C862 1.396 . S
C861 C866 1.390 . S
C862 C856 1.465 . S
C862 C861 1.396 . S
C862 C863 1.399 . S
C863 H849 0.929 . S
C863 C862 1.399 . S
C863 C864 1.385 . S
C864 H850 0.931 . S
C864 C863 1.385 . S
C864 C865 1.389 . S
C865 C864 1.389 . S
C865 C866 1.387 . S
C866 H851 0.930 . S
C866 C861 1.390 . S
C866 C865 1.387 . S
H867 C879 0.930 . S
H868 C881 0.930 1_565 S
H869 C882 0.930 . S
H870 C886 0.959 . S
H871 C886 0.959 . S
H872 C886 0.961 . S
H873 C887 0.960 . S
H874 C887 0.961 . S
H875 C887 0.959 1_565 S
H876 C890 0.929 . S
H877 C891 0.931 . S
H878 C893 0.930 . S
C879 H867 0.930 . S
C879 C880 1.399 . S
C879 C884 1.399 . S
C880 C879 1.399 . S
C880 C881 1.376 . S
C881 H868 0.930 1_545 S
C881 C880 1.376 . S
C881 C882 1.388 1_545 S
C882 H869 0.930 . S
C882 C881 1.388 1_565 S
C882 C883 1.390 . S
C883 C882 1.390 . S
C883 C884 1.394 1_565 S
C883 C889 1.465 . S
C884 C879 1.399 . S
C884 C883 1.394 1_545 S
C884 C885 1.516 . S
C885 C884 1.516 . S
C885 C886 1.502 . S
C885 C887 1.561 . S
C885 C888 1.526 1_545 S
C886 H870 0.959 . S
C886 H871 0.959 . S
C886 H872 0.961 . S
C886 C885 1.502 . S
C887 H873 0.960 . S
C887 H874 0.961 . S
C887 H875 0.959 1_545 S
C887 C885 1.561 . S
C888 C885 1.526 1_565 S
C888 C889 1.396 . S
C888 C893 1.390 . S
C889 C883 1.465 . S
C889 C888 1.396 . S
C889 C890 1.399 . S
C890 H876 0.929 . S
C890 C889 1.399 . S
C890 C891 1.385 . S
C891 H877 0.931 . S
C891 C890 1.385 . S
C891 C892 1.389 . S
C892 C891 1.389 . S
C892 C893 1.387 . S
C893 H878 0.930 . S
C893 C888 1.390 . S
C893 C892 1.387 . S
H894 C906 0.930 . S
H895 C908 0.930 . S
H896 C909 0.930 . S
H897 C913 0.959 1_565 S
H898 C913 0.959 . S
H899 C913 0.961 . S
H900 C914 0.960 . S
H901 C914 0.961 . S
H902 C914 0.959 . S
H903 C917 0.929 1_554 S
H904 C918 0.931 . S
H905 C920 0.930 . S
C906 H894 0.930 . S
C906 C907 1.399 . S
C906 C911 1.399 . S
C907 C906 1.399 . S
C907 C908 1.376 . S
C908 H895 0.930 . S
C908 C907 1.376 . S
C908 C909 1.388 1_545 S
C909 H896 0.930 . S
C909 C908 1.388 1_565 S
C909 C910 1.390 . S
C910 C909 1.390 . S
C910 C911 1.394 1_565 S
C910 C916 1.465 1_554 S
C911 C906 1.399 . S
C911 C910 1.394 1_545 S
C911 C912 1.516 1_554 S
C912 C911 1.516 1_556 S
C912 C913 1.502 . S
C912 C914 1.561 . S
C912 C915 1.526 1_545 S
C913 H897 0.959 1_545 S
C913 H898 0.959 . S
C913 H899 0.961 . S
C913 C912 1.502 . S
C914 H900 0.960 . S
C914 H901 0.961 . S
C914 H902 0.959 . S
C914 C912 1.561 . S
C915 C912 1.526 1_565 S
C915 C916 1.396 . S
C915 C920 1.390 . S
C916 C910 1.465 1_556 S
C916 C915 1.396 . S
C916 C917 1.399 . S
C917 H903 0.929 1_556 S
C917 C916 1.399 . S
C917 C918 1.385 . S
C918 H904 0.931 . S
C918 C917 1.385 . S
C918 C919 1.389 . S
C919 C918 1.389 . S
C919 C920 1.387 . S
C920 H905 0.930 . S
C920 C915 1.390 . S
C920 C919 1.387 . S
H921 C933 0.930 . S
H922 C935 0.930 . S
H923 C936 0.930 . S
H924 C940 0.959 . S
H925 C940 0.959 . S
H926 C940 0.961 1_655 S
H927 C941 0.960 . S
H928 C941 0.961 . S
H929 C941 0.959 . S
H930 C944 0.929 . S
H931 C945 0.931 . S
H932 C947 0.930 . S
C933 H921 0.930 . S
C933 C934 1.399 . S
C933 C938 1.399 . S
C934 C933 1.399 . S
C934 C935 1.376 . S
C935 H922 0.930 . S
C935 C934 1.376 . S
C935 C936 1.388 1_655 S
C936 H923 0.930 . S
C936 C935 1.388 1_455 S
C936 C937 1.390 . S
C937 C936 1.390 . S
C937 C938 1.394 1_455 S
C937 C943 1.465 1_554 S
C938 C933 1.399 . S
C938 C937 1.394 1_655 S
C938 C939 1.516 1_654 S
C939 C938 1.516 1_456 S
C939 C940 1.502 . S
C939 C941 1.561 1_455 S
C939 C942 1.526 . S
C940 H924 0.959 . S
C940 H925 0.959 . S
C940 H926 0.961 1_455 S
C940 C939 1.502 . S
C941 H927 0.960 . S
C941 H928 0.961 . S
C941 H929 0.959 . S
C941 C939 1.561 1_655 S
C942 C939 1.526 . S
C942 C943 1.396 . S
C942 C947 1.390 . S
C943 C937 1.465 1_556 S
C943 C942 1.396 . S
C943 C944 1.399 . S
C944 H930 0.929 . S
C944 C943 1.399 . S
C944 C945 1.385 . S
C945 H931 0.931 . S
C945 C944 1.385 . S
C945 C946 1.389 . S
C946 C945 1.389 . S
C946 C947 1.387 . S
C947 H932 0.930 . S
C947 C942 1.390 . S
C947 C946 1.387 . S
H948 C960 0.930 . S
H949 C962 0.930 . S
H950 C963 0.930 . S
H951 C967 0.959 1_554 S
H952 C967 0.959 . S
H953 C967 0.961 . S
H954 C968 0.960 . S
H955 C968 0.961 . S
H956 C968 0.959 . S
H957 C971 0.929 . S
H958 C972 0.931 . S
H959 C974 0.930 . S
C960 H948 0.930 . S
C960 C961 1.399 . S
C960 C965 1.399 . S
C961 C960 1.399 . S
C961 C962 1.376 . S
C962 H949 0.930 . S
C962 C961 1.376 . S
C962 C963 1.388 . S
C963 H950 0.930 . S
C963 C962 1.388 . S
C963 C964 1.390 . S
C964 C963 1.390 . S
C964 C965 1.394 . S
C964 C970 1.465 1_556 S
C965 C960 1.399 . S
C965 C964 1.394 . S
C965 C966 1.516 . S
C966 C965 1.516 . S
C966 C967 1.502 . S
C966 C968 1.561 . S
C966 C969 1.526 1_556 S
C967 H951 0.959 1_556 S
C967 H952 0.959 . S
C967 H953 0.961 . S
C967 C966 1.502 . S
C968 H954 0.960 . S
C968 H955 0.961 . S
C968 H956 0.959 . S
C968 C966 1.561 . S
C969 C966 1.526 1_554 S
C969 C970 1.396 . S
C969 C974 1.390 . S
C970 C964 1.465 1_554 S
C970 C969 1.396 . S
C970 C971 1.399 . S
C971 H957 0.929 . S
C971 C970 1.399 . S
C971 C972 1.385 . S
C972 H958 0.931 . S
C972 C971 1.385 . S
C972 C973 1.389 . S
C973 C972 1.389 . S
C973 C974 1.387 . S
C974 H959 0.930 . S
C974 C969 1.390 . S
C974 C973 1.387 . S
H975 C987 0.930 . S
H976 C989 0.930 . S
H977 C990 0.930 . S
H978 C994 0.959 . S
H979 C994 0.959 . S
H980 C994 0.961 . S
H981 C995 0.960 . S
H982 C995 0.961 . S
H983 C995 0.959 . S
H984 C998 0.929 . S
H985 C999 0.931 . S
H986 C1001 0.930 . S
C987 H975 0.930 . S
C987 C988 1.399 . S
C987 C992 1.399 1_455 S
C988 C987 1.399 . S
C988 C989 1.376 . S
C989 H976 0.930 . S
C989 C988 1.376 . S
C989 C990 1.388 . S
C990 H977 0.930 . S
C990 C989 1.388 . S
C990 C991 1.387 1_455 S
C991 C990 1.387 1_655 S
C991 C992 1.392 . S
C991 C997 1.470 . S
C992 C987 1.399 1_655 S
C992 C991 1.392 . S
C992 C993 1.516 . S
C993 C992 1.516 . S
C993 C994 1.502 . S
C993 C995 1.561 . S
C993 C996 1.526 . S
C994 H978 0.959 . S
C994 H979 0.959 . S
C994 H980 0.961 . S
C994 C993 1.502 . S
C995 H981 0.960 . S
C995 H982 0.961 . S
C995 H983 0.959 . S
C995 C993 1.561 . S
C996 C993 1.526 . S
C996 C997 1.396 . S
C996 C1001 1.390 . S
C997 C991 1.470 . S
C997 C996 1.396 . S
C997 C998 1.399 . S
C998 H984 0.929 . S
C998 C997 1.399 . S
C998 C999 1.385 . S
C999 H985 0.931 . S
C999 C998 1.385 . S
C999 C1000 1.389 . S
C1000 C999 1.389 . S
C1000 C1001 1.387 . S
C1001 H986 0.930 . S
C1001 C996 1.390 . S
C1001 C1000 1.387 . S
H1002 C1014 0.930 . S
H1003 C1016 0.930 . S
H1004 C1017 0.930 . S
H1005 C1021 0.959 . S
H1006 C1021 0.959 . S
H1007 C1021 0.961 . S
H1008 C1022 0.960 . S
H1009 C1022 0.961 . S
H1010 C1022 0.959 . S
H1011 C1025 0.929 . S
H1012 C1026 0.931 . S
H1013 C1028 0.930 . S
C1014 H1002 0.930 . S
C1014 C1015 1.399 . S
C1014 C1019 1.399 . S
C1015 C1014 1.399 . S
C1015 C1016 1.376 . S
C1016 H1003 0.930 . S
C1016 C1015 1.376 . S
C1016 C1017 1.388 . S
C1017 H1004 0.930 . S
C1017 C1016 1.388 . S
C1017 C1018 1.390 . S
C1018 C1017 1.390 . S
C1018 C1019 1.394 . S
C1018 C1024 1.465 . S
C1019 C1014 1.399 . S
C1019 C1018 1.394 . S
C1019 C1020 1.516 . S
C1020 C1019 1.516 . S
C1020 C1021 1.502 . S
C1020 C1022 1.561 . S
C1020 C1023 1.526 . S
C1021 H1005 0.959 . S
C1021 H1006 0.959 . S
C1021 H1007 0.961 . S
C1021 C1020 1.502 . S
C1022 H1008 0.960 . S
C1022 H1009 0.961 . S
C1022 H1010 0.959 . S
C1022 C1020 1.561 . S
C1023 C1020 1.526 . S
C1023 C1024 1.396 . S
C1023 C1028 1.390 . S
C1024 C1018 1.465 . S
C1024 C1023 1.396 . S
C1024 C1025 1.399 . S
C1025 H1011 0.929 . S
C1025 C1024 1.399 . S
C1025 C1026 1.385 . S
C1026 H1012 0.931 . S
C1026 C1025 1.385 . S
C1026 C1027 1.389 . S
C1027 C1026 1.389 . S
C1027 C1028 1.387 . S
C1028 H1013 0.930 . S
C1028 C1023 1.390 . S
C1028 C1027 1.387 . S
H1029 C1041 0.930 . S
H1030 C1043 0.930 . S
H1031 C1044 0.930 . S
H1032 C1048 0.959 . S
H1033 C1048 0.959 . S
H1034 C1048 0.961 . S
H1035 C1049 0.960 . S
H1036 C1049 0.961 . S
H1037 C1049 0.959 . S
H1038 C1052 0.929 . S
H1039 C1053 0.931 . S
H1040 C1055 0.930 . S
C1041 H1029 0.930 . S
C1041 C1042 1.399 . S
C1041 C1046 1.399 . S
C1042 C1041 1.399 . S
C1042 C1043 1.376 . S
C1043 H1030 0.930 . S
C1043 C1042 1.376 . S
C1043 C1044 1.388 . S
C1044 H1031 0.930 . S
C1044 C1043 1.388 . S
C1044 C1045 1.390 . S
C1045 C1044 1.390 . S
C1045 C1046 1.394 . S
C1045 C1051 1.450 1_545 S
C1046 C1041 1.399 . S
C1046 C1045 1.394 . S
C1046 C1047 1.516 . S
C1047 C1046 1.516 . S
C1047 C1048 1.502 . S
C1047 C1049 1.561 . S
C1047 C1050 1.526 . S
C1048 H1032 0.959 . S
C1048 H1033 0.959 . S
C1048 H1034 0.961 . S
C1048 C1047 1.502 . S
C1049 H1035 0.960 . S
C1049 H1036 0.961 . S
C1049 H1037 0.959 . S
C1049 C1047 1.561 . S
C1050 C1047 1.526 . S
C1050 C1051 1.399 1_545 S
C1050 C1055 1.390 1_545 S
C1051 C1045 1.450 1_565 S
C1051 C1050 1.399 1_565 S
C1051 C1052 1.411 . S
C1052 H1038 0.929 . S
C1052 C1051 1.411 . S
C1052 C1053 1.385 . S
C1053 H1039 0.931 . S
C1053 C1052 1.385 . S
C1053 C1054 1.389 . S
C1054 C1053 1.389 . S
C1054 C1055 1.387 . S
C1055 H1040 0.930 . S
C1055 C1050 1.390 1_565 S
C1055 C1054 1.387 . S
H1056 C1068 0.930 . S
H1057 C1070 0.930 . S
H1058 C1071 0.930 . S
H1059 C1075 0.959 . S
H1060 C1075 0.959 . S
H1061 C1075 0.961 . S
H1062 C1076 0.960 . S
H1063 C1076 0.961 . S
H1064 C1076 0.959 . S
H1065 C1079 0.929 . S
H1066 C1080 0.931 . S
H1067 C1082 0.930 . S
C1068 H1056 0.930 . S
C1068 C1069 1.399 . S
C1068 C1073 1.399 . S
C1069 C1068 1.399 . S
C1069 C1070 1.376 . S
C1070 H1057 0.930 . S
C1070 C1069 1.376 . S
C1070 C1071 1.388 . S
C1071 H1058 0.930 . S
C1071 C1070 1.388 . S
C1071 C1072 1.390 . S
C1072 C1071 1.390 . S
C1072 C1073 1.394 . S
C1072 C1078 1.465 . S
C1073 C1068 1.399 . S
C1073 C1072 1.394 . S
C1073 C1074 1.516 . S
C1074 C1073 1.516 . S
C1074 C1075 1.502 . S
C1074 C1076 1.561 . S
C1074 C1077 1.526 . S
C1075 H1059 0.959 . S
C1075 H1060 0.959 . S
C1075 H1061 0.961 . S
C1075 C1074 1.502 . S
C1076 H1062 0.960 . S
C1076 H1063 0.961 . S
C1076 H1064 0.959 . S
C1076 C1074 1.561 . S
C1077 C1074 1.526 . S
C1077 C1078 1.396 . S
C1077 C1082 1.390 . S
C1078 C1072 1.465 . S
C1078 C1077 1.396 . S
C1078 C1079 1.399 . S
C1079 H1065 0.929 . S
C1079 C1078 1.399 . S
C1079 C1080 1.385 . S
C1080 H1066 0.931 . S
C1080 C1079 1.385 . S
C1080 C1081 1.389 . S
C1081 C1080 1.389 . S
C1081 C1082 1.387 . S
C1082 H1067 0.930 . S
C1082 C1077 1.390 . S
C1082 C1081 1.387 . S
H1083 C1095 0.930 . S
H1084 C1097 0.930 . S
H1085 C1098 0.930 . S
H1086 C1102 0.959 . S
H1087 C1102 0.959 . S
H1088 C1102 0.961 . S
H1089 C1103 0.960 . S
H1090 C1103 0.961 . S
H1091 C1103 0.959 . S
H1092 C1106 0.929 . S
H1093 C1107 0.931 . S
H1094 C1109 0.930 . S
C1095 H1083 0.930 . S
C1095 C1096 1.399 . S
C1095 C1100 1.399 . S
C1096 C1095 1.399 . S
C1096 C1097 1.376 . S
C1097 H1084 0.930 . S
C1097 C1096 1.376 . S
C1097 C1098 1.388 . S
C1098 H1085 0.930 . S
C1098 C1097 1.388 . S
C1098 C1099 1.390 . S
C1099 C1098 1.390 . S
C1099 C1100 1.394 . S
C1099 C1105 1.465 1_545 S
C1100 C1095 1.399 . S
C1100 C1099 1.394 . S
C1100 C1101 1.516 . S
C1101 C1100 1.516 . S
C1101 C1102 1.502 . S
C1101 C1103 1.561 . S
C1101 C1104 1.526 1_545 S
C1102 H1086 0.959 . S
C1102 H1087 0.959 . S
C1102 H1088 0.961 . S
C1102 C1101 1.502 . S
C1103 H1089 0.960 . S
C1103 H1090 0.961 . S
C1103 H1091 0.959 . S
C1103 C1101 1.561 . S
C1104 C1101 1.526 1_565 S
C1104 C1105 1.396 . S
C1104 C1109 1.390 . S
C1105 C1099 1.465 1_565 S
C1105 C1104 1.396 . S
C1105 C1106 1.399 . S
C1106 H1092 0.929 . S
C1106 C1105 1.399 . S
C1106 C1107 1.385 . S
C1107 H1093 0.931 . S
C1107 C1106 1.385 . S
C1107 C1108 1.389 . S
C1108 C1107 1.389 . S
C1108 C1109 1.387 . S
C1109 H1094 0.930 . S
C1109 C1104 1.390 . S
C1109 C1108 1.387 . S
H1110 C1122 0.930 . S
H1111 C1124 0.930 . S
H1112 C1125 0.930 . S
H1113 C1129 0.959 . S
H1114 C1129 0.959 . S
H1115 C1129 0.961 . S
H1116 C1130 0.960 . S
H1117 C1130 0.961 . S
H1118 C1130 0.959 . S
H1119 C1133 0.929 . S
H1120 C1134 0.931 . S
H1121 C1136 0.930 . S
C1122 H1110 0.930 . S
C1122 C1123 1.399 . S
C1122 C1127 1.399 . S
C1123 C1122 1.399 . S
C1123 C1124 1.376 . S
C1124 H1111 0.930 . S
C1124 C1123 1.376 . S
C1124 C1125 1.388 . S
C1125 H1112 0.930 . S
C1125 C1124 1.388 . S
C1125 C1126 1.390 . S
C1126 C1125 1.390 . S
C1126 C1127 1.394 . S
C1126 C1132 1.465 1_655 S
C1127 C1122 1.399 . S
C1127 C1126 1.394 . S
C1127 C1128 1.516 1_655 S
C1128 C1127 1.516 1_455 S
C1128 C1129 1.502 . S
C1128 C1130 1.561 . S
C1128 C1131 1.526 . S
C1129 H1113 0.959 . S
C1129 H1114 0.959 . S
C1129 H1115 0.961 . S
C1129 C1128 1.502 . S
C1130 H1116 0.960 . S
C1130 H1117 0.961 . S
C1130 H1118 0.959 . S
C1130 C1128 1.561 . S
C1131 C1128 1.526 . S
C1131 C1132 1.396 . S
C1131 C1136 1.390 . S
C1132 C1126 1.465 1_455 S
C1132 C1131 1.396 . S
C1132 C1133 1.399 . S
C1133 H1119 0.929 . S
C1133 C1132 1.399 . S
C1133 C1134 1.385 . S
C1134 H1120 0.931 . S
C1134 C1133 1.385 . S
C1134 C1135 1.389 . S
C1135 C1134 1.389 . S
C1135 C1136 1.387 . S
C1136 H1121 0.930 . S
C1136 C1131 1.390 . S
C1136 C1135 1.387 . S
H1137 C1149 0.930 . S
H1138 C1151 0.930 . S
H1139 C1152 0.930 . S
H1140 C1156 0.959 . S
H1141 C1156 0.959 . S
H1142 C1156 0.961 . S
H1143 C1157 0.960 . S
H1144 C1157 0.961 . S
H1145 C1157 0.959 . S
H1146 C1160 0.929 . S
H1147 C1161 0.931 . S
H1148 C1163 0.930 . S
C1149 H1137 0.930 . S
C1149 C1150 1.399 . S
C1149 C1154 1.399 . S
C1150 C1149 1.399 . S
C1150 C1151 1.376 . S
C1151 H1138 0.930 . S
C1151 C1150 1.376 . S
C1151 C1152 1.388 . S
C1152 H1139 0.930 . S
C1152 C1151 1.388 . S
C1152 C1153 1.390 . S
C1153 C1152 1.390 . S
C1153 C1154 1.394 . S
C1153 C1159 1.465 . S
C1154 C1149 1.399 . S
C1154 C1153 1.394 . S
C1154 C1155 1.516 . S
C1155 C1154 1.516 . S
C1155 C1156 1.502 . S
C1155 C1157 1.561 . S
C1155 C1158 1.526 . S
C1156 H1140 0.959 . S
C1156 H1141 0.959 . S
C1156 H1142 0.961 . S
C1156 C1155 1.502 . S
C1157 H1143 0.960 . S
C1157 H1144 0.961 . S
C1157 H1145 0.959 . S
C1157 C1155 1.561 . S
C1158 C1155 1.526 . S
C1158 C1159 1.396 . S
C1158 C1163 1.390 . S
C1159 C1153 1.465 . S
C1159 C1158 1.396 . S
C1159 C1160 1.399 . S
C1160 H1146 0.929 . S
C1160 C1159 1.399 . S
C1160 C1161 1.385 . S
C1161 H1147 0.931 . S
C1161 C1160 1.385 . S
C1161 C1162 1.389 . S
C1162 C1161 1.389 . S
C1162 C1163 1.387 . S
C1163 H1148 0.930 . S
C1163 C1158 1.390 . S
C1163 C1162 1.387 . S
H1164 C1176 0.930 . S
H1165 C1178 0.930 . S
H1166 C1179 0.930 . S
H1167 C1183 0.959 . S
H1168 C1183 0.959 . S
H1169 C1183 0.961 . S
H1170 C1184 0.960 . S
H1171 C1184 0.961 . S
H1172 C1184 0.959 . S
H1173 C1187 0.929 . S
H1174 C1188 0.931 . S
H1175 C1190 0.930 . S
C1176 H1164 0.930 . S
C1176 C1177 1.399 . S
C1176 C1181 1.399 . S
C1177 C1176 1.399 . S
C1177 C1178 1.376 . S
C1178 H1165 0.930 . S
C1178 C1177 1.376 . S
C1178 C1179 1.388 . S
C1179 H1166 0.930 . S
C1179 C1178 1.388 . S
C1179 C1180 1.390 . S
C1180 C1179 1.390 . S
C1180 C1181 1.394 . S
C1180 C1186 1.465 1_565 S
C1181 C1176 1.399 . S
C1181 C1180 1.394 . S
C1181 C1182 1.516 . S
C1182 C1181 1.516 . S
C1182 C1183 1.502 . S
C1182 C1184 1.561 . S
C1182 C1185 1.526 1_565 S
C1183 H1167 0.959 . S
C1183 H1168 0.959 . S
C1183 H1169 0.961 . S
C1183 C1182 1.502 . S
C1184 H1170 0.960 . S
C1184 H1171 0.961 . S
C1184 H1172 0.959 . S
C1184 C1182 1.561 . S
C1185 C1182 1.526 1_545 S
C1185 C1186 1.396 . S
C1185 C1190 1.390 . S
C1186 C1180 1.465 1_545 S
C1186 C1185 1.396 . S
C1186 C1187 1.399 . S
C1187 H1173 0.929 . S
C1187 C1186 1.399 . S
C1187 C1188 1.385 . S
C1188 H1174 0.931 . S
C1188 C1187 1.385 . S
C1188 C1189 1.389 . S
C1189 C1188 1.389 . S
C1189 C1190 1.387 . S
C1190 H1175 0.930 . S
C1190 C1185 1.390 . S
C1190 C1189 1.387 . S
H1191 C1203 0.930 . S
H1192 C1205 0.930 . S
H1193 C1206 0.930 . S
H1194 C1210 0.959 . S
H1195 C1210 0.959 . S
H1196 C1210 0.961 . S
H1197 C1211 0.960 . S
H1198 C1211 0.961 . S
H1199 C1211 0.959 . S
H1200 C1214 0.929 . S
H1201 C1215 0.931 . S
H1202 C1217 0.930 . S
C1203 H1191 0.930 . S
C1203 C1204 1.399 . S
C1203 C1208 1.399 . S
C1204 C1203 1.399 . S
C1204 C1205 1.376 . S
C1205 H1192 0.930 . S
C1205 C1204 1.376 . S
C1205 C1206 1.388 . S
C1206 H1193 0.930 . S
C1206 C1205 1.388 . S
C1206 C1207 1.390 . S
C1207 C1206 1.390 . S
C1207 C1208 1.394 . S
C1207 C1213 1.465 1_455 S
C1208 C1203 1.399 . S
C1208 C1207 1.394 . S
C1208 C1209 1.516 . S
C1209 C1208 1.516 . S
C1209 C1210 1.502 . S
C1209 C1211 1.561 . S
C1209 C1212 1.526 1_455 S
C1210 H1194 0.959 . S
C1210 H1195 0.959 . S
C1210 H1196 0.961 . S
C1210 C1209 1.502 . S
C1211 H1197 0.960 . S
C1211 H1198 0.961 . S
C1211 H1199 0.959 . S
C1211 C1209 1.561 . S
C1212 C1209 1.526 1_655 S
C1212 C1213 1.396 . S
C1212 C1217 1.390 . S
C1213 C1207 1.465 1_655 S
C1213 C1212 1.396 . S
C1213 C1214 1.399 . S
C1214 H1200 0.929 . S
C1214 C1213 1.399 . S
C1214 C1215 1.385 . S
C1215 H1201 0.931 . S
C1215 C1214 1.385 . S
C1215 C1216 1.389 . S
C1216 C1215 1.389 . S
C1216 C1217 1.387 . S
C1217 H1202 0.930 . S
C1217 C1212 1.390 . S
C1217 C1216 1.387 . S
C421 C36 1.607 . S
C433 C9 1.627 . S
C448 C43 1.618 . S
C460 C70 1.635 . S
C475 C77 1.629 . S
C487 C2 1.607 . S
C502 C111 1.624 . S
C514 C172 1.610 . S
C529 C145 1.623 . S
C541 C104 1.636 . S
C556 C138 1.609 . S
C568 C179 1.626 . S
C583 C240 1.614 . S
C595 C213 1.635 . S
C610 C274 1.608 . S
C622 C247 1.632 . S
C637 C206 1.635 . S
C649 C281 1.617 . S
C664 C315 1.616 . S
C676 C376 1.634 . S
C691 C308 1.632 . S
C703 C349 1.623 . S
C718 C383 1.623 . S
C730 C342 1.632 . S
C745 C20 1.373 . S
C757 C243 1.335 . S
C772 C54 1.353 . S
C784 C277 1.401 . S
C799 C88 1.374 . S
C811 C209 1.334 . S
C826 C379 1.365 . S
C838 C122 1.348 . S
C853 C156 1.391 . S
C865 C311 1.325 . S
C880 C345 1.398 . S
C892 C190 1.346 . S
C907 C39 1.392 . S
C919 C224 1.359 . S
C934 C73 1.377 . S
C946 C258 1.373 . S
C961 C292 1.363 . S
C973 C5 1.366 . S
C988 C175 1.340 . S
C1000 C326 1.401 . S
C1015 C360 1.406 . S
C1027 C107 1.331 . S
C1042 C394 1.401 . S
C1054 C141 1.328 . S
C1069 C135 1.679 . S
C1081 C33 1.730 . S
C1096 C67 1.664 . S
C1108 C169 1.721 . S
C1123 C101 1.733 . S
C1135 C203 1.670 . S
C1150 C339 1.670 . S
C1162 C237 1.690 . S
C1177 C271 1.696 . S
C1189 C373 1.731 . S
C1204 C305 1.681 . S
C1216 C407 1.733 . S
