# Generated by pormake.
# Topology uno, (4)-cn, num edge types: 1
# Building blocks:
#     Node 0, Type 0, BuildingBlock: QUQFOY_clean_sbu_1, # of connection points: 4
#     Node 1, Type 0, BuildingBlock: QUQFOY_clean_sbu_1, # of connection points: 4
#     Node 2, Type 0, BuildingBlock: QUQFOY_clean_sbu_1, # of connection points: 4
#     Node 3, Type 0, BuildingBlock: QUQFOY_clean_sbu_1, # of connection points: 4
#     Node 4, Type 0, BuildingBlock: QUQFOY_clean_sbu_1, # of connection points: 4
#     Node 5, Type 0, BuildingBlock: QUQFOY_clean_sbu_1, # of connection points: 4
#     Node 6, Type 0, BuildingBlock: QUQFOY_clean_sbu_1, # of connection points: 4
#     Node 7, Type 0, BuildingBlock: QUQFOY_clean_sbu_1, # of connection points: 4
#     Node 8, Type 0, BuildingBlock: QUQFOY_clean_sbu_1, # of connection points: 4
#     Node 9, Type 0, BuildingBlock: QUQFOY_clean_sbu_1, # of connection points: 4
#     Node 10, Type 0, BuildingBlock: QUQFOY_clean_sbu_1, # of connection points: 4
#     Node 11, Type 0, BuildingBlock: QUQFOY_clean_sbu_1, # of connection points: 4
#     Node 12, Type 0, BuildingBlock: QUQFOY_clean_sbu_1, # of connection points: 4
#     Node 13, Type 0, BuildingBlock: QUQFOY_clean_sbu_1, # of connection points: 4
#     Node 14, Type 0, BuildingBlock: QUQFOY_clean_sbu_1, # of connection points: 4
#     Node 15, Type 0, BuildingBlock: QUQFOY_clean_sbu_1, # of connection points: 4
#     Node 16, Type 0, BuildingBlock: QUQFOY_clean_sbu_1, # of connection points: 4
#     Node 17, Type 0, BuildingBlock: QUQFOY_clean_sbu_1, # of connection points: 4
#     Node 18, Type 0, BuildingBlock: QUQFOY_clean_sbu_1, # of connection points: 4
#     Node 19, Type 0, BuildingBlock: QUQFOY_clean_sbu_1, # of connection points: 4
#     Node 20, Type 0, BuildingBlock: QUQFOY_clean_sbu_1, # of connection points: 4
#     Node 21, Type 0, BuildingBlock: QUQFOY_clean_sbu_1, # of connection points: 4
#     Node 22, Type 0, BuildingBlock: QUQFOY_clean_sbu_1, # of connection points: 4
#     Node 23, Type 0, BuildingBlock: QUQFOY_clean_sbu_1, # of connection points: 4
#     Edge 24, Type (0, 0), BuildingBlock: AJUNOK_clean_linker_0, # of connection points: 2
#     Edge 25, Type (0, 0), BuildingBlock: AJUNOK_clean_linker_0, # of connection points: 2
#     Edge 26, Type (0, 0), BuildingBlock: AJUNOK_clean_linker_0, # of connection points: 2
#     Edge 27, Type (0, 0), BuildingBlock: AJUNOK_clean_linker_0, # of connection points: 2
#     Edge 28, Type (0, 0), BuildingBlock: AJUNOK_clean_linker_0, # of connection points: 2
#     Edge 29, Type (0, 0), BuildingBlock: AJUNOK_clean_linker_0, # of connection points: 2
#     Edge 30, Type (0, 0), BuildingBlock: AJUNOK_clean_linker_0, # of connection points: 2
#     Edge 31, Type (0, 0), BuildingBlock: AJUNOK_clean_linker_0, # of connection points: 2
#     Edge 32, Type (0, 0), BuildingBlock: AJUNOK_clean_linker_0, # of connection points: 2
#     Edge 33, Type (0, 0), BuildingBlock: AJUNOK_clean_linker_0, # of connection points: 2
#     Edge 34, Type (0, 0), BuildingBlock: AJUNOK_clean_linker_0, # of connection points: 2
#     Edge 35, Type (0, 0), BuildingBlock: AJUNOK_clean_linker_0, # of connection points: 2
#     Edge 36, Type (0, 0), BuildingBlock: AJUNOK_clean_linker_0, # of connection points: 2
#     Edge 37, Type (0, 0), BuildingBlock: AJUNOK_clean_linker_0, # of connection points: 2
#     Edge 38, Type (0, 0), BuildingBlock: AJUNOK_clean_linker_0, # of connection points: 2
#     Edge 39, Type (0, 0), BuildingBlock: AJUNOK_clean_linker_0, # of connection points: 2
#     Edge 40, Type (0, 0), BuildingBlock: AJUNOK_clean_linker_0, # of connection points: 2
#     Edge 41, Type (0, 0), BuildingBlock: AJUNOK_clean_linker_0, # of connection points: 2
#     Edge 42, Type (0, 0), BuildingBlock: AJUNOK_clean_linker_0, # of connection points: 2
#     Edge 43, Type (0, 0), BuildingBlock: AJUNOK_clean_linker_0, # of connection points: 2
#     Edge 44, Type (0, 0), BuildingBlock: AJUNOK_clean_linker_0, # of connection points: 2
#     Edge 45, Type (0, 0), BuildingBlock: AJUNOK_clean_linker_0, # of connection points: 2
#     Edge 46, Type (0, 0), BuildingBlock: AJUNOK_clean_linker_0, # of connection points: 2
#     Edge 47, Type (0, 0), BuildingBlock: AJUNOK_clean_linker_0, # of connection points: 2
#     Edge 48, Type (0, 0), BuildingBlock: AJUNOK_clean_linker_0, # of connection points: 2
#     Edge 49, Type (0, 0), BuildingBlock: AJUNOK_clean_linker_0, # of connection points: 2
#     Edge 50, Type (0, 0), BuildingBlock: AJUNOK_clean_linker_0, # of connection points: 2
#     Edge 51, Type (0, 0), BuildingBlock: AJUNOK_clean_linker_0, # of connection points: 2
#     Edge 52, Type (0, 0), BuildingBlock: AJUNOK_clean_linker_0, # of connection points: 2
#     Edge 53, Type (0, 0), BuildingBlock: AJUNOK_clean_linker_0, # of connection points: 2
#     Edge 54, Type (0, 0), BuildingBlock: AJUNOK_clean_linker_0, # of connection points: 2
#     Edge 55, Type (0, 0), BuildingBlock: AJUNOK_clean_linker_0, # of connection points: 2
#     Edge 56, Type (0, 0), BuildingBlock: AJUNOK_clean_linker_0, # of connection points: 2
#     Edge 57, Type (0, 0), BuildingBlock: AJUNOK_clean_linker_0, # of connection points: 2
#     Edge 58, Type (0, 0), BuildingBlock: AJUNOK_clean_linker_0, # of connection points: 2
#     Edge 59, Type (0, 0), BuildingBlock: AJUNOK_clean_linker_0, # of connection points: 2
#     Edge 60, Type (0, 0), BuildingBlock: AJUNOK_clean_linker_0, # of connection points: 2
#     Edge 61, Type (0, 0), BuildingBlock: AJUNOK_clean_linker_0, # of connection points: 2
#     Edge 62, Type (0, 0), BuildingBlock: AJUNOK_clean_linker_0, # of connection points: 2
#     Edge 63, Type (0, 0), BuildingBlock: AJUNOK_clean_linker_0, # of connection points: 2
#     Edge 64, Type (0, 0), BuildingBlock: AJUNOK_clean_linker_0, # of connection points: 2
#     Edge 65, Type (0, 0), BuildingBlock: AJUNOK_clean_linker_0, # of connection points: 2
#     Edge 66, Type (0, 0), BuildingBlock: AJUNOK_clean_linker_0, # of connection points: 2
#     Edge 67, Type (0, 0), BuildingBlock: AJUNOK_clean_linker_0, # of connection points: 2
#     Edge 68, Type (0, 0), BuildingBlock: AJUNOK_clean_linker_0, # of connection points: 2
#     Edge 69, Type (0, 0), BuildingBlock: AJUNOK_clean_linker_0, # of connection points: 2
#     Edge 70, Type (0, 0), BuildingBlock: AJUNOK_clean_linker_0, # of connection points: 2
#     Edge 71, Type (0, 0), BuildingBlock: AJUNOK_clean_linker_0, # of connection points: 2
# Relax obj value: 0.293
# Max RMSD: 0.241
# Mean RMSD: 0.241
data_MOF--net-uno--node1-QUQFOY_clean_sbu_1--edge1-AJUNOK_clean_linker_0
_symmetry_space_group_name_H-M    P1
_symmetry_Int_Tables_number       1
_symmetry_cell_setting            triclinic
loop_
_symmetry_equiv_pos_as_xyz
'x, y, z'
_cell_length_a     41.689731
_cell_length_b     41.352369
_cell_length_c     40.900499
_cell_angle_alpha  89.876335
_cell_angle_beta   89.764534
_cell_angle_gamma 89.843769
loop_
_atom_site_label
_atom_site_type_symbol
_atom_site_fract_x
_atom_site_fract_y
_atom_site_fract_z
_atom_type_partial_charge
O0 O 0.10368 0.21065 0.2586 0.0
Cd1 Cd 0.11051 0.19524 0.30651 0.0
Cd2 Cd 0.07662 0.13434 0.2514 0.0
O3 O 0.07931 0.17741 0.22254 0.0
O4 O 0.09642 0.22809 0.33895 0.0
O5 O 0.06767 0.18515 0.32495 0.0
C6 C 0.06937 0.2127 0.3398 0.0
C7 C 0.05763 0.08122 0.25085 0.0
C8 C 0.09225 0.20478 0.23025 0.0
C9 C 0.1375 0.1401 0.29179 0.0
O10 O 0.10747 0.14144 0.28746 0.0
O11 O 0.14814 0.16117 0.31136 0.0
O12 O 0.08294 0.08949 0.23462 0.0
O13 O 0.04045 0.10397 0.26399 0.0
O14 O 0.20666 0.78111 0.4385 0.0
Cd15 Cd 0.19614 0.73199 0.43393 0.0
Cd16 Cd 0.12833 0.78726 0.45462 0.0
O17 O 0.16901 0.81771 0.4533 0.0
O18 O 0.23315 0.70374 0.4455 0.0
O19 O 0.1904 0.71084 0.4773 0.0
C20 C 0.21896 0.69901 0.47335 0.0
C21 C 0.07423 0.7912 0.46724 0.0
C22 C 0.19802 0.81006 0.44531 0.0
C23 C 0.14191 0.73956 0.40318 0.0
O24 O 0.1401 0.7455 0.4335 0.0
O25 O 0.16535 0.72192 0.3947 0.0
O26 O 0.08503 0.80134 0.43938 0.0
O27 O 0.09461 0.7821 0.48928 0.0
O28 O 0.41864 0.82377 0.76304 0.0
Cd29 Cd 0.42671 0.85021 0.80392 0.0
Cd30 Cd 0.44642 0.89172 0.75914 0.0
O31 O 0.4514 0.85012 0.72984 0.0
O32 O 0.43498 0.81634 0.83761 0.0
O33 O 0.47242 0.84936 0.81821 0.0
C34 C 0.46501 0.82377 0.8349 0.0
C35 C 0.47319 0.93978 0.77026 0.0
C36 C 0.43355 0.82571 0.73608 0.0
C37 C 0.38243 0.90199 0.78921 0.0
O38 O 0.3999 0.90384 0.76391 0.0
O39 O 0.39033 0.88373 0.81305 0.0
O40 O 0.46441 0.93304 0.74075 0.0
O41 O 0.47189 0.91687 0.79187 0.0
O42 O 0.31699 0.27228 0.93752 0.0
Cd43 Cd 0.32841 0.31959 0.92625 0.0
Cd44 Cd 0.39093 0.26599 0.96115 0.0
O45 O 0.34832 0.23843 0.96634 0.0
O46 O 0.29092 0.34793 0.9357 0.0
O47 O 0.33353 0.34353 0.96799 0.0
C48 C 0.30427 0.35338 0.96376 0.0
C49 C 0.44541 0.26275 0.9722 0.0
C50 C 0.32197 0.24497 0.95117 0.0
C51 C 0.38182 0.3021 0.89755 0.0
O52 O 0.38188 0.30048 0.92849 0.0
O53 O 0.36085 0.32119 0.88597 0.0
O54 O 0.43267 0.24579 0.94912 0.0
O55 O 0.42635 0.27813 0.99193 0.0
O56 O 0.11854 0.90755 0.28023 0.0
Cd57 Cd 0.07258 0.89505 0.28684 0.0
Cd58 Cd 0.09331 0.85419 0.24092 0.0
O59 O 0.13228 0.88488 0.23352 0.0
O60 O 0.05979 0.9349 0.31144 0.0
O61 O 0.04243 0.92437 0.26172 0.0
C62 C 0.04599 0.94493 0.28511 0.0
C63 C 0.04682 0.84238 0.21295 0.0
C64 C 0.13831 0.90404 0.25703 0.0
C65 C 0.08615 0.82742 0.30814 0.0
O66 O 0.09907 0.82427 0.28015 0.0
O67 O 0.0703 0.85302 0.31546 0.0
O68 O 0.07376 0.82897 0.20456 0.0
O69 O 0.04763 0.86541 0.23424 0.0
O70 O 0.3773 0.73361 0.62034 0.0
Cd71 Cd 0.38435 0.77519 0.59681 0.0
Cd72 Cd 0.32309 0.7144 0.62318 0.0
O73 O 0.35607 0.71072 0.6619 0.0
O74 O 0.42413 0.79498 0.61343 0.0
O75 O 0.41976 0.77234 0.56417 0.0
C76 C 0.43767 0.78418 0.58703 0.0
C77 C 0.29764 0.6823 0.58629 0.0
C78 C 0.37768 0.72937 0.65099 0.0
C79 C 0.31361 0.79001 0.60205 0.0
O80 O 0.30969 0.76135 0.6128 0.0
O81 O 0.34101 0.80046 0.5921 0.0
O82 O 0.28561 0.68647 0.6153 0.0
O83 O 0.32696 0.69146 0.581 0.0
O84 O 0.42194 0.1395 0.7541 0.0
Cd85 Cd 0.4505 0.13198 0.7921 0.0
Cd86 Cd 0.41808 0.19355 0.73457 0.0
O87 O 0.38146 0.15868 0.72903 0.0
O88 O 0.44263 0.08825 0.81185 0.0
O89 O 0.48547 0.09938 0.7818 0.0
C90 C 0.46798 0.07807 0.79679 0.0
C91 C 0.4558 0.216 0.70002 0.0
C92 C 0.39215 0.13755 0.74866 0.0
C93 C 0.43556 0.20316 0.81139 0.0
O94 O 0.42467 0.20862 0.78269 0.0
O95 O 0.44833 0.17579 0.81978 0.0
O96 O 0.42761 0.22896 0.70314 0.0
O97 O 0.46073 0.18802 0.71346 0.0
O98 O 0.14672 0.30066 0.11337 0.0
Cd99 Cd 0.1371 0.26398 0.08375 0.0
Cd100 Cd 0.20059 0.31876 0.1154 0.0
O101 O 0.1683 0.32118 0.15559 0.0
O102 O 0.09643 0.24462 0.09992 0.0
O103 O 0.09982 0.27392 0.05433 0.0
C104 C 0.08224 0.26032 0.07665 0.0
C105 C 0.22453 0.35296 0.07814 0.0
C106 C 0.14675 0.30283 0.14426 0.0
C107 C 0.20755 0.24442 0.09026 0.0
O108 O 0.2129 0.2716 0.10396 0.0
O109 O 0.18037 0.23738 0.07701 0.0
O110 O 0.23768 0.34746 0.10631 0.0
O111 O 0.19541 0.34296 0.07367 0.0
O112 O 0.25698 0.09461 0.21008 0.0
Cd113 Cd 0.29758 0.09153 0.18271 0.0
Cd114 Cd 0.25415 0.06674 0.13897 0.0
O115 O 0.22612 0.06196 0.18122 0.0
O116 O 0.33197 0.08496 0.21586 0.0
O117 O 0.31596 0.04692 0.18147 0.0
C118 C 0.33208 0.05485 0.20726 0.0
C119 C 0.25245 0.03907 0.08874 0.0
C120 C 0.23105 0.07905 0.20675 0.0
C121 C 0.27947 0.13489 0.12997 0.0
O122 O 0.2584 0.11342 0.12575 0.0
O123 O 0.30211 0.13051 0.15042 0.0
O124 O 0.2274 0.05298 0.1008 0.0
O125 O 0.27724 0.03674 0.10748 0.0
O126 O 0.26163 0.9398 0.34154 0.0
Cd127 Cd 0.30923 0.92709 0.3428 0.0
Cd128 Cd 0.24646 0.95515 0.40978 0.0
O129 O 0.21874 0.95827 0.36695 0.0
O130 O 0.32854 0.92808 0.29848 0.0
O131 O 0.33624 0.96609 0.3361 0.0
C132 C 0.339 0.95665 0.30596 0.0
C133 C 0.23673 0.96868 0.46413 0.0
C134 C 0.23229 0.94768 0.34089 0.0
C135 C 0.29394 0.90164 0.39985 0.0
O136 O 0.28843 0.93187 0.39979 0.0
O137 O 0.31454 0.89167 0.37908 0.0
O138 O 0.22672 0.94157 0.45218 0.0
O139 O 0.25019 0.98911 0.44434 0.0
O140 O 0.25213 0.9239 0.71775 0.0
Cd141 Cd 0.21292 0.93324 0.69044 0.0
Cd142 Cd 0.2561 0.95823 0.65555 0.0
O143 O 0.27765 0.96726 0.70075 0.0
O144 O 0.17885 0.9392 0.72397 0.0
O145 O 0.20004 0.97941 0.69495 0.0
C146 C 0.18333 0.96997 0.72002 0.0
C147 C 0.24628 0.9816 0.60543 0.0
C148 C 0.27442 0.9443 0.72151 0.0
C149 C 0.23564 0.89316 0.63965 0.0
O150 O 0.25961 0.91121 0.64445 0.0
O151 O 0.20856 0.8999 0.65265 0.0
O152 O 0.27546 0.97825 0.61566 0.0
O153 O 0.22308 0.97751 0.62622 0.0
O154 O 0.27515 0.11126 0.91032 0.0
Cd155 Cd 0.2746 0.06429 0.89776 0.0
Cd156 Cd 0.23292 0.09141 0.85426 0.0
O157 O 0.23061 0.12957 0.88782 0.0
O158 O 0.29611 0.04603 0.93762 0.0
O159 O 0.24482 0.03869 0.92672 0.0
C160 C 0.26811 0.03687 0.94746 0.0
C161 C 0.1963 0.0604 0.82551 0.0
C162 C 0.2544 0.13337 0.90704 0.0
C163 C 0.29861 0.07409 0.83061 0.0
O164 O 0.27412 0.09205 0.82781 0.0
O165 O 0.30223 0.05614 0.85585 0.0
O166 O 0.19971 0.09087 0.81919 0.0
O167 O 0.21008 0.04905 0.85148 0.0
O168 O 0.71007 0.28015 0.91503 0.0
Cd169 Cd 0.69803 0.23124 0.91418 0.0
Cd170 Cd 0.63533 0.28668 0.94588 0.0
O171 O 0.6758 0.31685 0.93688 0.0
O172 O 0.73413 0.2021 0.92583 0.0
O173 O 0.6941 0.21484 0.95952 0.0
C174 C 0.72172 0.20117 0.9549 0.0
C175 C 0.58181 0.2921 0.96191 0.0
C176 C 0.70276 0.30909 0.92329 0.0
C177 C 0.63974 0.23735 0.89334 0.0
O178 O 0.64295 0.24422 0.92338 0.0
O179 O 0.6615 0.21951 0.88143 0.0
O180 O 0.59155 0.30193 0.93368 0.0
O181 O 0.6032 0.28343 0.98311 0.0
O182 O 0.91783 0.30623 0.2671 0.0
Cd183 Cd 0.91621 0.31605 0.31674 0.0
Cd184 Cd 0.93899 0.38157 0.25888 0.0
O185 O 0.93669 0.34064 0.22877 0.0
O186 O 0.92614 0.27688 0.34267 0.0
O187 O 0.96 0.31784 0.33531 0.0
C188 C 0.95481 0.28858 0.34545 0.0
C189 C 0.94742 0.43613 0.25166 0.0
C190 C 0.92517 0.31312 0.23757 0.0
C191 C 0.88968 0.37198 0.30927 0.0
O192 O 0.91937 0.37187 0.3024 0.0
O193 O 0.8806 0.34983 0.32858 0.0
O194 O 0.92038 0.42313 0.24385 0.0
O195 O 0.97112 0.41737 0.25957 0.0
O196 O 0.82258 0.779 0.41806 0.0
Cd197 Cd 0.85775 0.8121 0.42496 0.0
Cd198 Cd 0.88592 0.7624 0.44661 0.0
O199 O 0.83905 0.74978 0.45991 0.0
O200 O 0.83709 0.85182 0.44442 0.0
O201 O 0.86454 0.81543 0.47262 0.0
C202 C 0.84555 0.84003 0.47252 0.0
C203 C 0.93718 0.76713 0.46892 0.0
C204 C 0.81738 0.75682 0.43891 0.0
C205 C 0.89961 0.77976 0.38031 0.0
O206 O 0.89133 0.75643 0.39842 0.0
O207 O 0.89431 0.80886 0.38933 0.0
O208 O 0.92398 0.73904 0.46527 0.0
O209 O 0.91966 0.79243 0.46411 0.0
O210 O 0.91524 0.64919 0.24584 0.0
Cd211 Cd 0.94368 0.62884 0.28126 0.0
Cd212 Cd 0.92133 0.71174 0.2368 0.0
O213 O 0.87821 0.68543 0.23939 0.0
O214 O 0.92811 0.58641 0.29677 0.0
O215 O 0.97114 0.59315 0.26493 0.0
C216 C 0.95084 0.57392 0.27908 0.0
C217 C 0.93967 0.75811 0.21283 0.0
C218 C 0.88608 0.65725 0.24934 0.0
C219 C 0.95813 0.69182 0.29578 0.0
O220 O 0.95541 0.68911 0.26507 0.0
O221 O 0.96087 0.66554 0.31193 0.0
O222 O 0.92393 0.75923 0.24022 0.0
O223 O 0.94094 0.73087 0.19717 0.0
O224 O 0.59636 0.38349 0.74697 0.0
Cd225 Cd 0.56722 0.39504 0.78391 0.0
Cd226 Cd 0.59699 0.32883 0.72819 0.0
O227 O 0.63587 0.36095 0.7226 0.0
O228 O 0.58123 0.4366 0.80309 0.0
O229 O 0.53662 0.43186 0.77423 0.0
C230 C 0.55754 0.4503 0.78823 0.0
C231 C 0.56363 0.29994 0.6948 0.0
C232 C 0.62642 0.38275 0.7422 0.0
C233 C 0.57585 0.3254 0.80547 0.0
O234 O 0.58697 0.3193 0.77701 0.0
O235 O 0.56445 0.35335 0.8134 0.0
O236 O 0.5916 0.2886 0.70266 0.0
O237 O 0.55696 0.32968 0.70228 0.0
O238 O 0.60558 0.71288 0.75486 0.0
Cd239 Cd 0.5992 0.69463 0.80065 0.0
Cd240 Cd 0.58416 0.64052 0.75949 0.0
O241 O 0.58556 0.67522 0.72223 0.0
O242 O 0.59355 0.73479 0.82723 0.0
O243 O 0.5551 0.69884 0.82036 0.0
C244 C 0.56381 0.72695 0.8309 0.0
C245 C 0.56153 0.58841 0.75943 0.0
C246 C 0.59819 0.70301 0.72657 0.0
C247 C 0.64757 0.64441 0.79823 0.0
O248 O 0.62892 0.63334 0.7767 0.0
O249 O 0.6395 0.6689 0.81523 0.0
O250 O 0.58147 0.59753 0.7372 0.0
O251 O 0.55066 0.61021 0.77913 0.0
O252 O 0.88223 0.23262 0.11269 0.0
Cd253 Cd 0.89134 0.27948 0.10243 0.0
Cd254 Cd 0.82353 0.224 0.11162 0.0
O255 O 0.85403 0.20536 0.14669 0.0
O256 O 0.93362 0.29338 0.11979 0.0
O257 O 0.92557 0.28313 0.06746 0.0
C258 C 0.9455 0.2888 0.09096 0.0
C259 C 0.79863 0.19774 0.06955 0.0
C260 C 0.87854 0.22263 0.14174 0.0
C261 C 0.82164 0.30169 0.117 0.0
O262 O 0.81168 0.27251 0.1172 0.0
O263 O 0.85109 0.30943 0.11166 0.0
O264 O 0.78575 0.19845 0.09842 0.0
O265 O 0.82698 0.20992 0.06562 0.0
O266 O 0.65272 0.79551 0.60997 0.0
Cd267 Cd 0.63047 0.76003 0.5828 0.0
Cd268 Cd 0.7154 0.80182 0.59976 0.0
O269 O 0.69171 0.79935 0.64485 0.0
O270 O 0.59004 0.74467 0.60267 0.0
O271 O 0.59236 0.77447 0.55735 0.0
C272 C 0.57532 0.76087 0.58008 0.0
C273 C 0.75815 0.82964 0.57812 0.0
C274 C 0.66289 0.79088 0.63885 0.0
C275 C 0.69194 0.7404 0.56744 0.0
O276 O 0.69165 0.77106 0.56894 0.0
O277 O 0.66464 0.72668 0.56561 0.0
O278 O 0.76254 0.80297 0.59423 0.0
O279 O 0.72951 0.84198 0.57729 0.0
O280 O 0.77246 0.62698 0.71244 0.0
Cd281 Cd 0.80595 0.61529 0.67848 0.0
Cd282 Cd 0.75706 0.58984 0.65276 0.0
O283 O 0.74343 0.58389 0.7018 0.0
O284 O 0.84516 0.60182 0.70356 0.0
O285 O 0.81254 0.56773 0.67834 0.0
C286 C 0.83597 0.57237 0.69828 0.0
C287 C 0.76261 0.56082 0.60406 0.0
C288 C 0.7503 0.60761 0.72061 0.0
C289 C 0.77475 0.65268 0.62897 0.0
O290 O 0.75139 0.63618 0.63951 0.0
O291 O 0.80343 0.64528 0.63701 0.0
O292 O 0.73457 0.56566 0.61694 0.0
O293 O 0.78736 0.56814 0.62142 0.0
O294 O 0.75297 0.43363 0.81175 0.0
Cd295 Cd 0.80186 0.43048 0.81882 0.0
Cd296 Cd 0.7559 0.44046 0.89453 0.0
O297 O 0.72218 0.44048 0.85648 0.0
O298 O 0.82365 0.43801 0.77624 0.0
O299 O 0.82532 0.47259 0.8176 0.0
C300 C 0.83167 0.46617 0.78724 0.0
C301 C 0.75185 0.4444 0.951 0.0
C302 C 0.72555 0.43693 0.82537 0.0
C303 C 0.80141 0.39445 0.87232 0.0
O304 O 0.79859 0.42409 0.87941 0.0
O305 O 0.81402 0.38878 0.84473 0.0
O306 O 0.74463 0.41789 0.93604 0.0
O307 O 0.75789 0.46977 0.93342 0.0
O308 O 0.72676 0.4174 0.15864 0.0
Cd309 Cd 0.77124 0.43129 0.14699 0.0
Cd310 Cd 0.71978 0.42179 0.21833 0.0
O311 O 0.70669 0.38185 0.19051 0.0
O312 O 0.78321 0.41142 0.10446 0.0
O313 O 0.77185 0.46354 0.11056 0.0
C314 C 0.77724 0.43927 0.0913 0.0
C315 C 0.69156 0.46197 0.24494 0.0
C316 C 0.72171 0.38776 0.16425 0.0
C317 C 0.79662 0.42354 0.21751 0.0
O318 O 0.76811 0.42158 0.22881 0.0
O319 O 0.80281 0.4273 0.18686 0.0
O320 O 0.69478 0.43354 0.25789 0.0
O321 O 0.70143 0.46616 0.21512 0.0
O322 O 0.76364 0.63239 0.42083 0.0
Cd323 Cd 0.77755 0.58655 0.41184 0.0
Cd324 Cd 0.73138 0.60201 0.36304 0.0
O325 O 0.72115 0.64286 0.39045 0.0
O326 O 0.80201 0.57817 0.45323 0.0
O327 O 0.75626 0.55414 0.44202 0.0
C328 C 0.77835 0.56062 0.46307 0.0
C329 C 0.69768 0.56744 0.33436 0.0
C330 C 0.74105 0.65112 0.41246 0.0
C331 C 0.8025 0.59753 0.34488 0.0
O332 O 0.7739 0.60607 0.33886 0.0
O333 O 0.80992 0.58523 0.37254 0.0
O334 O 0.70141 0.59712 0.32535 0.0
O335 O 0.71005 0.55857 0.36192 0.0
C336 C 0.11086 0.28644 0.19154 0.0
C337 C 0.13106 0.2778 0.16532 0.0
C338 C 0.09607 0.26258 0.21125 0.0
C339 C 0.10028 0.22924 0.2049 0.0
H340 H 0.10673 0.31172 0.19706 0.0
H341 H 0.08194 0.27022 0.23215 0.0
S342 S 0.15463 0.19407 0.14283 0.0
N343 N 0.15781 0.23348 0.13786 0.0
N344 N 0.12783 0.18938 0.17215 0.0
C345 C 0.12029 0.22058 0.17889 0.0
C346 C 0.13633 0.24464 0.15995 0.0
C347 C 0.12678 0.79482 0.38313 0.0
C348 C 0.12615 0.76107 0.37888 0.0
C349 C 0.11115 0.81586 0.36157 0.0
C350 C 0.09573 0.80412 0.33368 0.0
H351 H 0.14023 0.80542 0.40267 0.0
H352 H 0.11291 0.84167 0.36573 0.0
S353 S 0.09051 0.71821 0.30849 0.0
N354 N 0.11007 0.717 0.34355 0.0
N355 N 0.08273 0.75678 0.30128 0.0
C356 C 0.09609 0.77055 0.32807 0.0
C357 C 0.11104 0.74899 0.35088 0.0
C358 C 0.42048 0.74721 0.69034 0.0
C359 C 0.39243 0.75405 0.67258 0.0
C360 C 0.43545 0.77125 0.7094 0.0
C361 C 0.42335 0.80306 0.71042 0.0
H362 H 0.43085 0.72318 0.68957 0.0
H363 H 0.45615 0.76477 0.72395 0.0
S364 S 0.34795 0.83191 0.67279 0.0
N365 N 0.35111 0.7938 0.66121 0.0
N366 N 0.38016 0.83913 0.69488 0.0
C367 C 0.3951 0.80988 0.69333 0.0
C368 C 0.37942 0.78534 0.67494 0.0
C369 C 0.41379 0.28538 0.84754 0.0
C370 C 0.39768 0.27691 0.87661 0.0
C371 C 0.42819 0.26158 0.82748 0.0
C372 C 0.42784 0.22843 0.83616 0.0
H373 H 0.41478 0.31047 0.83996 0.0
H374 H 0.43893 0.26906 0.80452 0.0
S375 S 0.38534 0.19308 0.90706 0.0
N376 N 0.37857 0.23225 0.90969 0.0
N377 N 0.40911 0.18878 0.8751 0.0
C378 C 0.41239 0.21995 0.86528 0.0
C379 C 0.39632 0.2438 0.88459 0.0
C380 C 0.21087 0.09293 0.26264 0.0
C381 C 0.20461 0.08753 0.22927 0.0
C382 C 0.18861 0.10916 0.28276 0.0
C383 C 0.15976 0.12158 0.27004 0.0
H384 H 0.23361 0.0855 0.27299 0.0
H385 H 0.19444 0.11275 0.30828 0.0
S386 S 0.13464 0.11698 0.18296 0.0
N387 N 0.16809 0.09588 0.18432 0.0
N388 N 0.12906 0.13076 0.2204 0.0
C389 C 0.154 0.11708 0.23637 0.0
C390 C 0.17566 0.09884 0.21648 0.0
C391 C 0.21355 0.86269 0.42014 0.0
C392 C 0.22218 0.83552 0.43871 0.0
C393 C 0.23698 0.88367 0.40761 0.0
C394 C 0.2699 0.87896 0.41383 0.0
H395 H 0.1887 0.86677 0.4136 0.0
H396 H 0.22913 0.90307 0.39199 0.0
S397 S 0.30504 0.81188 0.46195 0.0
N398 N 0.26603 0.80494 0.46297 0.0
N399 N 0.30982 0.84523 0.44016 0.0
C400 C 0.27883 0.85215 0.43273 0.0
C401 C 0.25503 0.83039 0.44515 0.0
C402 C 0.29862 0.90695 0.76255 0.0
C403 C 0.29832 0.93775 0.74743 0.0
C404 C 0.32447 0.89679 0.78172 0.0
C405 C 0.35079 0.91713 0.78655 0.0
H406 H 0.28008 0.88939 0.75743 0.0
H407 H 0.32551 0.87172 0.78945 0.0
S408 S 0.35821 1.00252 0.75999 0.0
N409 N 0.32384 0.99046 0.74419 0.0
N410 N 0.37262 0.97113 0.78028 0.0
C411 C 0.34893 0.94922 0.77525 0.0
C412 C 0.3227 0.95958 0.75552 0.0
C413 C 0.28003 0.16375 0.95199 0.0
C414 C 0.26214 0.16445 0.92276 0.0
C415 C 0.29798 0.19045 0.96221 0.0
C416 C 0.29844 0.21904 0.94376 0.0
H417 H 0.28208 0.14149 0.96586 0.0
H418 H 0.31276 0.18809 0.9838 0.0
S419 S 0.25299 0.23421 0.86679 0.0
N420 N 0.24398 0.19664 0.87686 0.0
N421 N 0.27696 0.24728 0.89589 0.0
C422 C 0.27845 0.22091 0.91578 0.0
C423 C 0.26035 0.19354 0.90538 0.0
C424 C 0.16998 0.95048 0.27414 0.0
C425 C 0.16991 0.91826 0.26291 0.0
C426 C 0.1909 0.96046 0.29883 0.0
C427 C 0.21353 0.93897 0.31178 0.0
H428 H 0.15112 0.9669 0.2667 0.0
H429 H 0.18838 0.98457 0.30885 0.0
S430 S 0.22764 0.8541 0.28587 0.0
N431 N 0.19709 0.86637 0.26338 0.0
N432 N 0.23805 0.88555 0.30824 0.0
C433 C 0.21661 0.90804 0.29763 0.0
C434 C 0.19467 0.89769 0.27314 0.0
C435 C 0.2833 0.83991 0.58654 0.0
C436 C 0.28647 0.81261 0.60662 0.0
C437 C 0.2614 0.86441 0.59448 0.0
C438 C 0.24256 0.86265 0.6231 0.0
H439 H 0.29909 0.84326 0.56571 0.0
H440 H 0.26182 0.88652 0.58019 0.0
S441 S 0.23924 0.79478 0.68194 0.0
N442 N 0.26619 0.78359 0.65451 0.0
N443 N 0.22596 0.8304 0.66961 0.0
C444 C 0.24316 0.83419 0.64155 0.0
C445 C 0.26514 0.80902 0.63339 0.0
C446 C 0.32134 0.08546 0.77523 0.0
C447 C 0.3259 0.08209 0.80917 0.0
C448 C 0.34335 0.10271 0.7557 0.0
C449 C 0.36999 0.11824 0.76964 0.0
H450 H 0.29995 0.07578 0.76396 0.0
H451 H 0.33898 0.10469 0.72969 0.0
S452 S 0.38898 0.1205 0.85831 0.0
N453 N 0.35804 0.09607 0.85593 0.0
N454 N 0.39611 0.13277 0.82056 0.0
C455 C 0.37384 0.11587 0.80379 0.0
C456 C 0.35271 0.0966 0.82317 0.0
C457 C 0.26922 0.19363 0.13501 0.0
C458 C 0.27235 0.16644 0.11488 0.0
C459 C 0.2495 0.21955 0.12574 0.0
C460 C 0.23202 0.21905 0.09615 0.0
H461 H 0.2794 0.19353 0.15936 0.0
H462 H 0.24613 0.23904 0.1431 0.0
S463 S 0.23744 0.15614 0.03224 0.0
N464 N 0.26063 0.14264 0.06198 0.0
N465 N 0.22311 0.19126 0.04488 0.0
C466 C 0.23732 0.19336 0.07461 0.0
C467 C 0.25778 0.1672 0.08383 0.0
C468 C 0.74818 0.3667 0.86855 0.0
C469 C 0.77706 0.37169 0.8855 0.0
C470 C 0.72304 0.34854 0.88233 0.0
C471 C 0.72613 0.33406 0.91329 0.0
H472 H 0.74501 0.37679 0.8444 0.0
H473 H 0.70151 0.34472 0.86809 0.0
S474 S 0.7983 0.33646 0.96588 0.0
N475 N 0.80783 0.35942 0.93417 0.0
N476 N 0.76144 0.32347 0.95916 0.0
C477 C 0.75531 0.33785 0.92995 0.0
C478 C 0.78057 0.35708 0.91628 0.0
C479 C 0.86785 0.37968 0.25285 0.0
C480 C 0.86627 0.38681 0.28642 0.0
C481 C 0.84691 0.39379 0.23025 0.0
C482 C 0.82243 0.41472 0.24059 0.0
H483 H 0.88507 0.36266 0.24382 0.0
H484 H 0.84884 0.3868 0.20479 0.0
S485 S 0.80547 0.43891 0.32638 0.0
N486 N 0.83725 0.4151 0.32916 0.0
N487 N 0.79651 0.44073 0.2871 0.0
C488 C 0.81981 0.42144 0.27433 0.0
C489 C 0.8418 0.40751 0.29718 0.0
C490 C 0.77946 0.71498 0.46027 0.0
C491 C 0.78851 0.73631 0.43517 0.0
C492 C 0.7578 0.6899 0.45428 0.0
C493 C 0.74506 0.68485 0.42285 0.0
H494 H 0.79103 0.71605 0.48391 0.0
H495 H 0.75448 0.67179 0.47312 0.0
S496 S 0.75587 0.73779 0.35062 0.0
N497 N 0.77837 0.75424 0.3792 0.0
N498 N 0.7386 0.70626 0.36805 0.0
C499 C 0.75042 0.70849 0.3989 0.0
C500 C 0.77223 0.73432 0.40496 0.0
C501 C 0.85505 0.62285 0.32981 0.0
C502 C 0.82695 0.60674 0.32024 0.0
C503 C 0.87418 0.6392 0.30668 0.0
C504 C 0.86582 0.63995 0.27333 0.0
H505 H 0.86129 0.62441 0.35544 0.0
H506 H 0.89515 0.65207 0.31508 0.0
S507 S 0.79652 0.59902 0.23546 0.0
N508 N 0.79308 0.59073 0.27484 0.0
N509 N 0.82908 0.62142 0.23169 0.0
C510 C 0.83861 0.62294 0.26337 0.0
C511 C 0.81923 0.60627 0.28674 0.0
C512 C 0.67743 0.4136 0.75029 0.0
C513 C 0.64971 0.39966 0.76386 0.0
C514 C 0.7008 0.42802 0.77017 0.0
C515 C 0.69738 0.42927 0.80454 0.0
H516 H 0.68142 0.41277 0.72411 0.0
H517 H 0.72233 0.43719 0.75852 0.0
S518 S 0.62971 0.39641 0.85249 0.0
N519 N 0.62155 0.38659 0.81432 0.0
N520 N 0.66351 0.41665 0.85095 0.0
C521 C 0.66926 0.41665 0.81823 0.0
C522 C 0.64606 0.40092 0.79815 0.0
C523 C 0.61386 0.77255 0.66891 0.0
C524 C 0.64613 0.76727 0.6601 0.0
C525 C 0.59727 0.75043 0.68892 0.0
C526 C 0.61187 0.72155 0.69922 0.0
H527 H 0.60169 0.79441 0.66113 0.0
H528 H 0.57332 0.75644 0.69728 0.0
S529 S 0.69553 0.69584 0.68233 0.0
N530 N 0.69195 0.731 0.66342 0.0
N531 N 0.6603 0.68885 0.69951 0.0
C532 C 0.64378 0.71559 0.68985 0.0
C533 C 0.661 0.73855 0.67054 0.0
C534 C 0.62218 0.29213 0.87539 0.0
C535 C 0.62082 0.25853 0.8714 0.0
C536 C 0.60289 0.31299 0.85724 0.0
C537 C 0.5849 0.30178 0.83092 0.0
H538 H 0.63846 0.30279 0.89253 0.0
H539 H 0.60394 0.33837 0.8625 0.0
S540 S 0.57723 0.21602 0.80564 0.0
N541 N 0.6005 0.21456 0.83825 0.0
N542 N 0.56859 0.25463 0.79971 0.0
C543 C 0.58466 0.2682 0.825 0.0
C544 C 0.60216 0.24649 0.8457 0.0
C545 C 0.93496 0.27296 0.19301 0.0
C546 C 0.91364 0.29023 0.21299 0.0
C547 C 0.92354 0.24954 0.1711 0.0
C548 C 0.89053 0.243 0.16856 0.0
H549 H 0.96047 0.27731 0.19465 0.0
H550 H 0.94052 0.23716 0.15535 0.0
S551 S 0.82555 0.27923 0.21888 0.0
N552 N 0.85856 0.29729 0.23136 0.0
N553 N 0.83703 0.25394 0.1899 0.0
C554 C 0.86921 0.25917 0.18964 0.0
C555 C 0.88081 0.28273 0.21189 0.0
C556 C 0.89806 0.75274 0.32763 0.0
C557 C 0.91616 0.77067 0.3501 0.0
C558 C 0.91218 0.72804 0.30913 0.0
C559 C 0.94497 0.72072 0.31213 0.0
H560 H 0.87217 0.75527 0.32715 0.0
H561 H 0.89687 0.71321 0.29412 0.0
S562 S 1.00383 0.76432 0.36305 0.0
N563 N 0.96917 0.78202 0.37145 0.0
N564 N 0.99598 0.73606 0.33571 0.0
C565 C 0.9639 0.74042 0.33208 0.0
C566 C 0.94945 0.76553 0.35108 0.0
C567 C 0.68634 0.60123 0.78621 0.0
C568 C 0.68115 0.63385 0.79458 0.0
C569 C 0.71 0.59228 0.76351 0.0
C570 C 0.73027 0.6156 0.74955 0.0
H571 H 0.66936 0.58316 0.79415 0.0
H572 H 0.71106 0.56738 0.75538 0.0
S573 S 0.73192 0.70318 0.77026 0.0
N574 N 0.70173 0.68854 0.79185 0.0
N575 N 0.74758 0.67197 0.75076 0.0
C576 C 0.72848 0.64758 0.76167 0.0
C577 C 0.70383 0.65662 0.78421 0.0
C578 C 0.79893 0.33925 0.15853 0.0
C579 C 0.79781 0.32636 0.12683 0.0
C580 C 0.77309 0.3572 0.17128 0.0
C581 C 0.74587 0.36421 0.15226 0.0
H582 H 0.81943 0.3345 0.17398 0.0
H583 H 0.77454 0.36581 0.19613 0.0
S584 S 0.73096 0.33549 0.06802 0.0
N585 N 0.76647 0.32023 0.07733 0.0
N586 N 0.71927 0.3566 0.10024 0.0
C587 C 0.74458 0.35166 0.12046 0.0
C588 C 0.77027 0.3322 0.10797 0.0
C589 C 0.76154 0.70979 0.61884 0.0
C590 C 0.76644 0.6787 0.60618 0.0
C591 C 0.7389 0.73073 0.60477 0.0
C592 C 0.7203 0.72122 0.57774 0.0
H593 H 0.77243 0.71656 0.64185 0.0
H594 H 0.73377 0.7529 0.61748 0.0
S595 S 0.72699 0.64333 0.53369 0.0
N596 N 0.75346 0.64043 0.56347 0.0
N597 N 0.71081 0.67969 0.53711 0.0
C598 C 0.727 0.69117 0.56339 0.0
C599 C 0.75027 0.67005 0.57746 0.0
C600 C 0.07673 0.99453 0.27358 0.0
C601 C 0.04659 0.97991 0.27738 0.0
C602 C 0.07969 0.02692 0.26411 0.0
C603 C 0.05251 0.0465 0.25881 0.0
H604 H 0.09833 0.98055 0.27761 0.0
H605 H 0.1036 0.03688 0.26163 0.0
S606 S 0.96791 0.01996 0.26611 0.0
N607 N 0.98892 0.98707 0.27472 0.0
N608 N 0.99427 0.04891 0.25869 0.0
C609 C 0.02208 0.03238 0.26309 0.0
C610 C 0.01914 0.99883 0.27182 0.0
C611 C 0.28947 0.67485 0.52622 0.0
C612 C 0.27632 0.67543 0.558 0.0
C613 C 0.27019 0.67954 0.49855 0.0
C614 C 0.23695 0.68507 0.50148 0.0
H615 H 0.3152 0.67331 0.5227 0.0
H616 H 0.28193 0.68123 0.47493 0.0
S617 S 0.18962 0.68206 0.57853 0.0
N618 N 0.22709 0.67669 0.59026 0.0
N619 N 0.19102 0.68557 0.53835 0.0
C620 C 0.22302 0.68216 0.53277 0.0
C621 C 0.24265 0.67725 0.56098 0.0
C622 C 0.49104 0.03031 0.76626 0.0
C623 C 0.47413 0.04256 0.79354 0.0
C624 C 0.4921 0.99685 0.75951 0.0
C625 C 0.47719 0.9742 0.78032 0.0
H626 H 0.50203 0.04678 0.74894 0.0
H627 H 0.50387 0.98873 0.73733 0.0
S628 S 0.42983 0.99347 0.85492 0.0
N629 N 0.44208 0.029 0.8414 0.0
N630 N 0.44491 0.96656 0.82933 0.0
C631 C 0.46121 0.98605 0.80827 0.0
C632 C 0.45949 0.02005 0.81472 0.0
C633 C 0.23109 0.36315 1.01801 0.0
C634 C 0.24435 0.36376 0.04964 0.0
C635 C 0.25066 0.36329 0.98995 0.0
C636 C 0.28438 0.36392 0.99229 0.0
H637 H 0.20551 0.36003 1.01477 0.0
H638 H 0.23923 0.3602 0.96644 0.0
S639 S 0.33084 0.37306 0.06896 0.0
N640 N 0.29317 0.37068 0.08128 0.0
N641 N 0.32981 0.37076 0.02869 0.0
C642 C 0.29774 0.36815 0.02356 0.0
C643 C 0.27778 0.36813 0.05217 0.0
C644 C 0.28441 0.02504 0.03833 0.0
C645 C 0.25443 0.03152 0.053 0.0
C646 C 0.28825 0.02466 1.00411 0.0
C647 C 0.26222 0.03034 0.98295 0.0
H648 H 0.30557 0.02205 0.05333 0.0
H649 H 0.31216 0.02129 0.99421 0.0
S650 S 0.1782 0.0469 1.00867 0.0
N651 N 0.19784 0.04235 0.04333 0.0
N652 N 0.20501 0.04138 0.97941 0.0
C653 C 0.23177 0.03518 0.99726 0.0
C654 C 0.2279 0.03584 0.0321 0.0
C655 C 0.3507 1.01335 0.28757 0.0
C656 C 0.34756 0.98034 0.27974 0.0
C657 C 0.34907 0.03742 0.26332 0.0
C658 C 0.34408 0.02951 0.23021 0.0
H659 H 0.35195 0.02096 0.31286 0.0
H660 H 0.34907 0.06245 0.27108 0.0
S661 S 0.34199 0.94656 0.19589 0.0
N662 N 0.34509 0.94095 0.23573 0.0
N663 N 0.34171 0.98612 0.19035 0.0
C664 C 0.34449 0.99657 0.22168 0.0
C665 C 0.34633 0.97202 0.24637 0.0
C666 C 0.25913 1.00062 0.54841 0.0
C667 C 0.23983 0.98228 0.56971 0.0
C668 C 0.25665 0.99737 0.51424 0.0
C669 C 0.23553 0.97485 0.50004 0.0
H670 H 0.27682 0.01705 0.55824 0.0
H671 H 0.27253 1.01158 0.49893 0.0
S672 S 0.18107 0.91953 0.54528 0.0
N673 N 0.19927 0.94033 0.57415 0.0
N674 N 0.19527 0.93356 0.5103 0.0
C675 C 0.21602 0.95643 0.52115 0.0
C676 C 0.21803 0.96029 0.55584 0.0
C677 C 0.17845 0.02661 0.74143 0.0
C678 C 0.17652 0.99309 0.74717 0.0
C679 C 0.18147 0.04867 0.76735 0.0
C680 C 0.1833 0.03813 0.80013 0.0
H681 H 0.17972 0.03576 0.71663 0.0
H682 H 0.18498 0.07394 0.76131 0.0
S683 S 0.17505 0.95336 0.82879 0.0
N684 N 0.17289 0.95085 0.78859 0.0
N685 N 0.17919 0.99218 0.83698 0.0
C686 C 0.17874 1.00498 0.80635 0.0
C687 C 0.17518 0.98253 0.77999 0.0
C688 C 0.99388 0.27474 0.05612 0.0
C689 C 0.98096 0.28528 0.08628 0.0
C690 C 0.02669 0.2668 0.05272 0.0
C691 C 0.04754 0.26811 0.07962 0.0
H692 H 0.97843 0.27193 0.0351 0.0
H693 H 0.0356 0.25882 0.02916 0.0
S694 S 0.02723 0.29772 0.16276 0.0
N695 N 0.99311 0.29972 0.14257 0.0
N696 N 0.05378 0.28337 0.13649 0.0
C697 C 0.03524 0.27948 0.10952 0.0
C698 C 1.00226 0.28842 0.11277 0.0
C699 C 0.53105 0.26897 0.94115 0.0
C700 C 0.54734 0.2847 0.96658 0.0
C701 C 0.49865 0.26057 0.9441 0.0
C702 C 0.48078 0.26815 0.97239 0.0
H703 H 0.54355 0.26282 0.91869 0.0
H704 H 0.48734 0.24891 0.92345 0.0
S705 S 0.5124 0.30961 0.04597 0.0
N706 N 0.54372 0.30704 1.0212 0.0
N707 N 0.48218 0.29262 0.02646 0.0
C708 C 0.49688 0.28386 0.99814 0.0
C709 C 0.5303 0.29172 0.99534 0.0
C710 C 0.04065 0.26239 0.35902 0.0
C711 C 0.03967 0.2292 0.35138 0.0
C712 C 0.01255 0.28112 0.36014 0.0
C713 C 0.98233 0.26736 0.35407 0.0
H714 H 0.06342 0.27465 0.36159 0.0
H715 H 0.0148 0.30698 0.36361 0.0
S716 S 0.96606 0.18041 0.33887 0.0
N717 N 1.00543 0.18253 0.3422 0.0
N718 N 0.95277 0.2176 0.34456 0.0
C719 C 0.9807 0.23359 0.34989 0.0
C720 C 1.00934 0.21454 0.3485 0.0
C721 C 0.01842 0.80547 0.48593 0.0
C722 C 0.03977 0.78379 0.47087 0.0
C723 C 0.98521 0.79917 0.48669 0.0
C724 C 0.97241 0.77074 0.47293 0.0
H725 H 0.02729 0.82779 0.49629 0.0
H726 H 0.96937 0.81706 0.49746 0.0
S727 S 0.01888 0.70676 0.43007 0.0
N728 N 0.04618 0.73325 0.44153 0.0
N729 N 0.98419 0.72105 0.4434 0.0
C730 C 0.99386 0.74864 0.45841 0.0
C731 C 0.02744 0.75531 0.45722 0.0
C732 C 0.48992 0.78402 0.55611 0.0
C733 C 0.47291 0.78008 0.58558 0.0
C734 C 0.52306 0.77764 0.55436 0.0
C735 C 0.54006 0.76597 0.58172 0.0
H736 H 0.47758 0.79225 0.53436 0.0
H737 H 0.53537 0.78162 0.53133 0.0
S738 S 0.5057 0.74918 0.6639 0.0
N739 N 0.47519 0.76281 0.64229 0.0
N740 N 0.53675 0.74967 0.63882 0.0
C741 C 0.52299 0.76121 0.61106 0.0
C742 C 0.48962 0.76857 0.61303 0.0
C743 C 0.0157 0.79883 0.18504 0.0
C744 C 0.01575 0.82723 0.20398 0.0
C745 C 0.98908 0.77814 0.18485 0.0
C746 C 0.96161 0.78492 0.20382 0.0
H747 H 0.03726 0.79108 0.1724 0.0
H748 H 0.99137 0.75528 0.17217 0.0
S749 S 0.94654 0.85988 0.25116 0.0
N750 N 0.98347 0.86401 0.23707 0.0
N751 N 0.93381 0.82482 0.23708 0.0
C752 C 0.95989 0.81503 0.21962 0.0
C753 C 0.98686 0.83628 0.21959 0.0
C754 C 0.51481 0.22344 0.69172 0.0
C755 C 0.48338 0.23532 0.68756 0.0
C756 C 0.5414 0.24411 0.69025 0.0
C757 C 0.53765 0.27754 0.68468 0.0
H758 H 0.51884 0.19853 0.69886 0.0
H759 H 0.56467 0.23418 0.69646 0.0
S760 S 0.46152 0.31918 0.6636 0.0
N761 N 0.45083 0.28147 0.6711 0.0
N762 N 0.50078 0.32028 0.66857 0.0
C763 C 0.50688 0.28893 0.67646 0.0
C764 C 0.47975 0.26783 0.67783 0.0
C765 C 0.52931 0.50318 0.77529 0.0
C766 C 0.55751 0.486 0.78337 0.0
C767 C 0.53013 0.53663 0.76812 0.0
C768 C 0.55934 0.55357 0.76768 0.0
H769 H 0.50653 0.49068 0.77439 0.0
H770 H 0.50802 0.54907 0.76213 0.0
S771 S 0.63985 0.52001 0.78639 0.0
N772 N 0.61537 0.48905 0.7906 0.0
N773 N 0.61686 0.55093 0.7761 0.0
C774 C 0.58752 0.53667 0.77566 0.0
C775 C 0.58664 0.50316 0.78374 0.0
C776 C 0.72671 0.19098 1.01477 0.0
C777 C 0.74072 0.19011 0.9834 0.0
C778 C 0.74561 0.19011 0.04296 0.0
C779 C 0.77926 0.18857 0.04083 0.0
H780 H 0.70112 0.19472 1.01766 0.0
H781 H 0.73383 0.19338 0.06638 0.0
S782 S 0.82728 0.1782 0.96506 0.0
N783 N 0.78995 0.18179 0.9522 0.0
N784 N 0.82543 0.18046 1.00531 0.0
C785 C 0.79331 0.18408 1.00988 0.0
C786 C 0.77404 0.18472 0.98111 0.0
C787 C 0.92347 0.52042 0.27781 0.0
C788 C 0.95151 0.53865 0.27268 0.0
C789 C 0.92225 0.48758 0.26973 0.0
C790 C 0.94918 0.47143 0.25677 0.0
H791 H 0.90202 0.53167 0.28765 0.0
H792 H 0.90017 0.47455 0.27444 0.0
S793 S 0.02833 0.50781 0.2385 0.0
N794 N 1.00676 0.53808 0.25319 0.0
N795 N 1.00463 0.47586 0.23918 0.0
C796 C 0.97744 0.48913 0.25177 0.0
C797 C 0.97854 0.52286 0.25937 0.0
C798 C 0.77542 0.85883 0.5275 0.0
C799 C 0.78381 0.842 0.55623 0.0
C800 C 0.79718 0.86184 0.50136 0.0
C801 C 0.82812 0.84827 0.50314 0.0
H802 H 0.75101 0.86709 0.52386 0.0
H803 H 0.78857 0.87207 0.47862 0.0
S804 S 0.8643 0.80922 0.5761 0.0
N805 N 0.82694 0.81699 0.58714 0.0
N806 N 0.86793 0.82303 0.53838 0.0
C807 C 0.838 0.83512 0.53329 0.0
C808 C 0.81579 0.83183 0.55974 0.0
C809 C 0.79709 0.55615 0.55384 0.0
C810 C 0.76658 0.5531 0.56856 0.0
C811 C 0.80093 0.55635 0.51969 0.0
C812 C 0.77454 0.55307 0.4986 0.0
H813 H 0.81811 0.56036 0.56869 0.0
H814 H 0.82468 0.5606 0.50976 0.0
S815 S 0.68979 0.54167 0.52444 0.0
N816 N 0.70969 0.54464 0.55911 0.0
N817 N 0.71695 0.54462 0.4951 0.0
C818 C 0.74416 0.54797 0.51294 0.0
C819 C 0.74018 0.54808 0.5478 0.0
C820 C 0.84713 0.55033 0.75375 0.0
C821 C 0.84601 0.54536 0.71976 0.0
C822 C 0.84536 0.5242 0.77571 0.0
C823 C 0.84269 0.49211 0.76446 0.0
H824 H 0.84633 0.57465 0.76353 0.0
H825 H 0.84371 0.52947 0.80159 0.0
S826 S 0.84575 0.46619 0.67757 0.0
N827 N 0.84672 0.50608 0.67585 0.0
N828 N 0.84451 0.45687 0.71683 0.0
C829 C 0.84511 0.48678 0.7305 0.0
C830 C 0.84642 0.51343 0.70822 0.0
C831 C 0.77043 0.41364 0.03643 0.0
C832 C 0.77256 0.44199 0.0553 0.0
C833 C 0.76241 0.41477 1.0032 0.0
C834 C 0.75698 0.44432 0.987 0.0
H835 H 0.77445 0.39018 0.04747 0.0
H836 H 0.76092 0.39219 0.99002 0.0
S837 S 0.75957 0.52569 0.02494 0.0
N838 N 0.76802 0.50066 0.05523 0.0
N839 N 0.75427 0.50277 0.9924 0.0
C840 C 0.75933 0.47293 1.00538 0.0
C841 C 0.76684 0.47177 0.03953 0.0
C842 C 0.69252 0.54749 0.27716 0.0
C843 C 0.68616 0.54296 0.3107 0.0
C844 C 0.69103 0.5216 0.25509 0.0
C845 C 0.68295 0.49022 0.26571 0.0
H846 H 0.70145 0.57048 0.26826 0.0
H847 H 0.69883 0.52579 0.23015 0.0
S848 S 0.65579 0.46784 0.34927 0.0
N849 N 0.66572 0.50636 0.35224 0.0
N850 N 0.66226 0.45777 0.31075 0.0
C851 C 0.67281 0.48636 0.29838 0.0
C852 C 0.67464 0.51269 0.3209 0.0
C853 C 0.4827 0.76667 0.84413 0.0
C854 C 0.49023 0.79988 0.84395 0.0
C855 C 0.50683 0.74293 0.84272 0.0
C856 C 0.53951 0.75139 0.84148 0.0
H857 H 0.45796 0.75888 0.8426 0.0
H858 H 0.49965 0.71789 0.84041 0.0
S859 S 0.57193 0.8348 0.84779 0.0
N860 N 0.53263 0.8398 0.8475 0.0
N861 N 0.57803 0.79539 0.84568 0.0
C862 C 0.54735 0.78439 0.84492 0.0
C863 C 0.52272 0.80857 0.8459 0.0
loop_
_geom_bond_atom_site_label_1
_geom_bond_atom_site_label_2
_geom_bond_distance
_geom_bond_site_symmetry_2
_ccdc_geom_bond_type
O0 Cd1 2.223 . S
O0 C8 1.315 . S
Cd1 O0 2.223 . S
Cd1 O4 2.297 . S
Cd1 O5 2.439 . S
Cd1 O11 2.240 . S
Cd2 O3 2.240 . S
Cd2 O10 2.223 . S
Cd2 O12 2.297 . S
Cd2 O13 2.439 . S
O3 Cd2 2.240 . S
O3 C8 1.279 . S
O4 Cd1 2.297 . S
O4 C6 1.247 . S
O5 Cd1 2.439 . S
O5 C6 1.208 . S
C6 O4 1.247 . S
C6 O5 1.208 . S
C7 O12 1.247 . S
C7 O13 1.208 . S
C8 O0 1.315 . S
C8 O3 1.279 . S
C9 O10 1.315 . S
C9 O11 1.279 . S
O10 Cd2 2.223 . S
O10 C9 1.315 . S
O11 Cd1 2.240 . S
O11 C9 1.279 . S
O12 Cd2 2.297 . S
O12 C7 1.247 . S
O13 Cd2 2.439 . S
O13 C7 1.208 . S
O14 Cd15 2.223 . S
O14 C22 1.315 . S
Cd15 O14 2.223 . S
Cd15 O18 2.297 . S
Cd15 O19 2.439 . S
Cd15 O25 2.240 . S
Cd16 O17 2.240 . S
Cd16 O24 2.223 . S
Cd16 O26 2.297 . S
Cd16 O27 2.439 . S
O17 Cd16 2.240 . S
O17 C22 1.279 . S
O18 Cd15 2.297 . S
O18 C20 1.247 . S
O19 Cd15 2.439 . S
O19 C20 1.208 . S
C20 O18 1.247 . S
C20 O19 1.208 . S
C21 O26 1.247 . S
C21 O27 1.208 . S
C22 O14 1.315 . S
C22 O17 1.279 . S
C23 O24 1.315 . S
C23 O25 1.279 . S
O24 Cd16 2.223 . S
O24 C23 1.315 . S
O25 Cd15 2.240 . S
O25 C23 1.279 . S
O26 Cd16 2.297 . S
O26 C21 1.247 . S
O27 Cd16 2.439 . S
O27 C21 1.208 . S
O28 Cd29 2.223 . S
O28 C36 1.315 . S
Cd29 O28 2.223 . S
Cd29 O32 2.297 . S
Cd29 O33 2.439 . S
Cd29 O39 2.240 . S
Cd30 O31 2.240 . S
Cd30 O38 2.223 . S
Cd30 O40 2.297 . S
Cd30 O41 2.439 . S
O31 Cd30 2.240 . S
O31 C36 1.279 . S
O32 Cd29 2.297 . S
O32 C34 1.247 . S
O33 Cd29 2.439 . S
O33 C34 1.208 . S
C34 O32 1.247 . S
C34 O33 1.208 . S
C35 O40 1.247 . S
C35 O41 1.208 . S
C36 O28 1.315 . S
C36 O31 1.279 . S
C37 O38 1.315 . S
C37 O39 1.279 . S
O38 Cd30 2.223 . S
O38 C37 1.315 . S
O39 Cd29 2.240 . S
O39 C37 1.279 . S
O40 Cd30 2.297 . S
O40 C35 1.247 . S
O41 Cd30 2.439 . S
O41 C35 1.208 . S
O42 Cd43 2.223 . S
O42 C50 1.315 . S
Cd43 O42 2.223 . S
Cd43 O46 2.297 . S
Cd43 O47 2.439 . S
Cd43 O53 2.240 . S
Cd44 O45 2.240 . S
Cd44 O52 2.223 . S
Cd44 O54 2.297 . S
Cd44 O55 2.439 . S
O45 Cd44 2.240 . S
O45 C50 1.279 . S
O46 Cd43 2.297 . S
O46 C48 1.247 . S
O47 Cd43 2.439 . S
O47 C48 1.208 . S
C48 O46 1.247 . S
C48 O47 1.208 . S
C49 O54 1.247 . S
C49 O55 1.208 . S
C50 O42 1.315 . S
C50 O45 1.279 . S
C51 O52 1.315 . S
C51 O53 1.279 . S
O52 Cd44 2.223 . S
O52 C51 1.315 . S
O53 Cd43 2.240 . S
O53 C51 1.279 . S
O54 Cd44 2.297 . S
O54 C49 1.247 . S
O55 Cd44 2.439 . S
O55 C49 1.208 . S
O56 Cd57 2.223 . S
O56 C64 1.315 . S
Cd57 O56 2.223 . S
Cd57 O60 2.297 . S
Cd57 O61 2.439 . S
Cd57 O67 2.240 . S
Cd58 O59 2.240 . S
Cd58 O66 2.223 . S
Cd58 O68 2.297 . S
Cd58 O69 2.439 . S
O59 Cd58 2.240 . S
O59 C64 1.279 . S
O60 Cd57 2.297 . S
O60 C62 1.247 . S
O61 Cd57 2.439 . S
O61 C62 1.208 . S
C62 O60 1.247 . S
C62 O61 1.208 . S
C63 O68 1.247 . S
C63 O69 1.208 . S
C64 O56 1.315 . S
C64 O59 1.279 . S
C65 O66 1.315 . S
C65 O67 1.279 . S
O66 Cd58 2.223 . S
O66 C65 1.315 . S
O67 Cd57 2.240 . S
O67 C65 1.279 . S
O68 Cd58 2.297 . S
O68 C63 1.247 . S
O69 Cd58 2.439 . S
O69 C63 1.208 . S
O70 Cd71 2.223 . S
O70 C78 1.315 . S
Cd71 O70 2.223 . S
Cd71 O74 2.297 . S
Cd71 O75 2.439 . S
Cd71 O81 2.240 . S
Cd72 O73 2.240 . S
Cd72 O80 2.223 . S
Cd72 O82 2.297 . S
Cd72 O83 2.439 . S
O73 Cd72 2.240 . S
O73 C78 1.279 . S
O74 Cd71 2.297 . S
O74 C76 1.247 . S
O75 Cd71 2.439 . S
O75 C76 1.208 . S
C76 O74 1.247 . S
C76 O75 1.208 . S
C77 O82 1.247 . S
C77 O83 1.208 . S
C78 O70 1.315 . S
C78 O73 1.279 . S
C79 O80 1.315 . S
C79 O81 1.279 . S
O80 Cd72 2.223 . S
O80 C79 1.315 . S
O81 Cd71 2.240 . S
O81 C79 1.279 . S
O82 Cd72 2.297 . S
O82 C77 1.247 . S
O83 Cd72 2.439 . S
O83 C77 1.208 . S
O84 Cd85 2.223 . S
O84 C92 1.315 . S
Cd85 O84 2.223 . S
Cd85 O88 2.297 . S
Cd85 O89 2.439 . S
Cd85 O95 2.240 . S
Cd86 O87 2.240 . S
Cd86 O94 2.223 . S
Cd86 O96 2.297 . S
Cd86 O97 2.439 . S
O87 Cd86 2.240 . S
O87 C92 1.279 . S
O88 Cd85 2.297 . S
O88 C90 1.247 . S
O89 Cd85 2.439 . S
O89 C90 1.208 . S
C90 O88 1.247 . S
C90 O89 1.208 . S
C91 O96 1.247 . S
C91 O97 1.208 . S
C92 O84 1.315 . S
C92 O87 1.279 . S
C93 O94 1.315 . S
C93 O95 1.279 . S
O94 Cd86 2.223 . S
O94 C93 1.315 . S
O95 Cd85 2.240 . S
O95 C93 1.279 . S
O96 Cd86 2.297 . S
O96 C91 1.247 . S
O97 Cd86 2.439 . S
O97 C91 1.208 . S
O98 Cd99 2.223 . S
O98 C106 1.315 . S
Cd99 O98 2.223 . S
Cd99 O102 2.297 . S
Cd99 O103 2.439 . S
Cd99 O109 2.240 . S
Cd100 O101 2.240 . S
Cd100 O108 2.223 . S
Cd100 O110 2.297 . S
Cd100 O111 2.439 . S
O101 Cd100 2.240 . S
O101 C106 1.279 . S
O102 Cd99 2.297 . S
O102 C104 1.247 . S
O103 Cd99 2.439 . S
O103 C104 1.208 . S
C104 O102 1.247 . S
C104 O103 1.208 . S
C105 O110 1.247 . S
C105 O111 1.208 . S
C106 O98 1.315 . S
C106 O101 1.279 . S
C107 O108 1.315 . S
C107 O109 1.279 . S
O108 Cd100 2.223 . S
O108 C107 1.315 . S
O109 Cd99 2.240 . S
O109 C107 1.279 . S
O110 Cd100 2.297 . S
O110 C105 1.247 . S
O111 Cd100 2.439 . S
O111 C105 1.208 . S
O112 Cd113 2.223 . S
O112 C120 1.315 . S
Cd113 O112 2.223 . S
Cd113 O116 2.297 . S
Cd113 O117 2.439 . S
Cd113 O123 2.240 . S
Cd114 O115 2.240 . S
Cd114 O122 2.223 . S
Cd114 O124 2.297 . S
Cd114 O125 2.439 . S
O115 Cd114 2.240 . S
O115 C120 1.279 . S
O116 Cd113 2.297 . S
O116 C118 1.247 . S
O117 Cd113 2.439 . S
O117 C118 1.208 . S
C118 O116 1.247 . S
C118 O117 1.208 . S
C119 O124 1.247 . S
C119 O125 1.208 . S
C120 O112 1.315 . S
C120 O115 1.279 . S
C121 O122 1.315 . S
C121 O123 1.279 . S
O122 Cd114 2.223 . S
O122 C121 1.315 . S
O123 Cd113 2.240 . S
O123 C121 1.279 . S
O124 Cd114 2.297 . S
O124 C119 1.247 . S
O125 Cd114 2.439 . S
O125 C119 1.208 . S
O126 Cd127 2.223 . S
O126 C134 1.315 . S
Cd127 O126 2.223 . S
Cd127 O130 2.297 . S
Cd127 O131 2.439 . S
Cd127 O137 2.240 . S
Cd128 O129 2.240 . S
Cd128 O136 2.223 . S
Cd128 O138 2.297 . S
Cd128 O139 2.439 . S
O129 Cd128 2.240 . S
O129 C134 1.279 . S
O130 Cd127 2.297 . S
O130 C132 1.247 . S
O131 Cd127 2.439 . S
O131 C132 1.208 . S
C132 O130 1.247 . S
C132 O131 1.208 . S
C133 O138 1.247 . S
C133 O139 1.208 . S
C134 O126 1.315 . S
C134 O129 1.279 . S
C135 O136 1.315 . S
C135 O137 1.279 . S
O136 Cd128 2.223 . S
O136 C135 1.315 . S
O137 Cd127 2.240 . S
O137 C135 1.279 . S
O138 Cd128 2.297 . S
O138 C133 1.247 . S
O139 Cd128 2.439 . S
O139 C133 1.208 . S
O140 Cd141 2.223 . S
O140 C148 1.315 . S
Cd141 O140 2.223 . S
Cd141 O144 2.297 . S
Cd141 O145 2.439 . S
Cd141 O151 2.240 . S
Cd142 O143 2.240 . S
Cd142 O150 2.223 . S
Cd142 O152 2.297 . S
Cd142 O153 2.439 . S
O143 Cd142 2.240 . S
O143 C148 1.279 . S
O144 Cd141 2.297 . S
O144 C146 1.247 . S
O145 Cd141 2.439 . S
O145 C146 1.208 . S
C146 O144 1.247 . S
C146 O145 1.208 . S
C147 O152 1.247 . S
C147 O153 1.208 . S
C148 O140 1.315 . S
C148 O143 1.279 . S
C149 O150 1.315 . S
C149 O151 1.279 . S
O150 Cd142 2.223 . S
O150 C149 1.315 . S
O151 Cd141 2.240 . S
O151 C149 1.279 . S
O152 Cd142 2.297 . S
O152 C147 1.247 . S
O153 Cd142 2.439 . S
O153 C147 1.208 . S
O154 Cd155 2.223 . S
O154 C162 1.315 . S
Cd155 O154 2.223 . S
Cd155 O158 2.297 . S
Cd155 O159 2.439 . S
Cd155 O165 2.240 . S
Cd156 O157 2.240 . S
Cd156 O164 2.223 . S
Cd156 O166 2.297 . S
Cd156 O167 2.439 . S
O157 Cd156 2.240 . S
O157 C162 1.279 . S
O158 Cd155 2.297 . S
O158 C160 1.247 . S
O159 Cd155 2.439 . S
O159 C160 1.208 . S
C160 O158 1.247 . S
C160 O159 1.208 . S
C161 O166 1.247 . S
C161 O167 1.208 . S
C162 O154 1.315 . S
C162 O157 1.279 . S
C163 O164 1.315 . S
C163 O165 1.279 . S
O164 Cd156 2.223 . S
O164 C163 1.315 . S
O165 Cd155 2.240 . S
O165 C163 1.279 . S
O166 Cd156 2.297 . S
O166 C161 1.247 . S
O167 Cd156 2.439 . S
O167 C161 1.208 . S
O168 Cd169 2.223 . S
O168 C176 1.315 . S
Cd169 O168 2.223 . S
Cd169 O172 2.297 . S
Cd169 O173 2.439 . S
Cd169 O179 2.240 . S
Cd170 O171 2.240 . S
Cd170 O178 2.223 . S
Cd170 O180 2.297 . S
Cd170 O181 2.439 . S
O171 Cd170 2.240 . S
O171 C176 1.279 . S
O172 Cd169 2.297 . S
O172 C174 1.247 . S
O173 Cd169 2.439 . S
O173 C174 1.208 . S
C174 O172 1.247 . S
C174 O173 1.208 . S
C175 O180 1.247 . S
C175 O181 1.208 . S
C176 O168 1.315 . S
C176 O171 1.279 . S
C177 O178 1.315 . S
C177 O179 1.279 . S
O178 Cd170 2.223 . S
O178 C177 1.315 . S
O179 Cd169 2.240 . S
O179 C177 1.279 . S
O180 Cd170 2.297 . S
O180 C175 1.247 . S
O181 Cd170 2.439 . S
O181 C175 1.208 . S
O182 Cd183 2.223 . S
O182 C190 1.315 . S
Cd183 O182 2.223 . S
Cd183 O186 2.297 . S
Cd183 O187 2.439 . S
Cd183 O193 2.240 . S
Cd184 O185 2.240 . S
Cd184 O192 2.223 . S
Cd184 O194 2.297 . S
Cd184 O195 2.439 . S
O185 Cd184 2.240 . S
O185 C190 1.279 . S
O186 Cd183 2.297 . S
O186 C188 1.247 . S
O187 Cd183 2.439 . S
O187 C188 1.208 . S
C188 O186 1.247 . S
C188 O187 1.208 . S
C189 O194 1.247 . S
C189 O195 1.208 . S
C190 O182 1.315 . S
C190 O185 1.279 . S
C191 O192 1.315 . S
C191 O193 1.279 . S
O192 Cd184 2.223 . S
O192 C191 1.315 . S
O193 Cd183 2.240 . S
O193 C191 1.279 . S
O194 Cd184 2.297 . S
O194 C189 1.247 . S
O195 Cd184 2.439 . S
O195 C189 1.208 . S
O196 Cd197 2.223 . S
O196 C204 1.315 . S
Cd197 O196 2.223 . S
Cd197 O200 2.297 . S
Cd197 O201 2.439 . S
Cd197 O207 2.240 . S
Cd198 O199 2.240 . S
Cd198 O206 2.223 . S
Cd198 O208 2.297 . S
Cd198 O209 2.439 . S
O199 Cd198 2.240 . S
O199 C204 1.279 . S
O200 Cd197 2.297 . S
O200 C202 1.247 . S
O201 Cd197 2.439 . S
O201 C202 1.208 . S
C202 O200 1.247 . S
C202 O201 1.208 . S
C203 O208 1.247 . S
C203 O209 1.208 . S
C204 O196 1.315 . S
C204 O199 1.279 . S
C205 O206 1.315 . S
C205 O207 1.279 . S
O206 Cd198 2.223 . S
O206 C205 1.315 . S
O207 Cd197 2.240 . S
O207 C205 1.279 . S
O208 Cd198 2.297 . S
O208 C203 1.247 . S
O209 Cd198 2.439 . S
O209 C203 1.208 . S
O210 Cd211 2.223 . S
O210 C218 1.315 . S
Cd211 O210 2.223 . S
Cd211 O214 2.297 . S
Cd211 O215 2.439 . S
Cd211 O221 2.240 . S
Cd212 O213 2.240 . S
Cd212 O220 2.223 . S
Cd212 O222 2.297 . S
Cd212 O223 2.439 . S
O213 Cd212 2.240 . S
O213 C218 1.279 . S
O214 Cd211 2.297 . S
O214 C216 1.247 . S
O215 Cd211 2.439 . S
O215 C216 1.208 . S
C216 O214 1.247 . S
C216 O215 1.208 . S
C217 O222 1.247 . S
C217 O223 1.208 . S
C218 O210 1.315 . S
C218 O213 1.279 . S
C219 O220 1.315 . S
C219 O221 1.279 . S
O220 Cd212 2.223 . S
O220 C219 1.315 . S
O221 Cd211 2.240 . S
O221 C219 1.279 . S
O222 Cd212 2.297 . S
O222 C217 1.247 . S
O223 Cd212 2.439 . S
O223 C217 1.208 . S
O224 Cd225 2.223 . S
O224 C232 1.315 . S
Cd225 O224 2.223 . S
Cd225 O228 2.297 . S
Cd225 O229 2.439 . S
Cd225 O235 2.240 . S
Cd226 O227 2.240 . S
Cd226 O234 2.223 . S
Cd226 O236 2.297 . S
Cd226 O237 2.439 . S
O227 Cd226 2.240 . S
O227 C232 1.279 . S
O228 Cd225 2.297 . S
O228 C230 1.247 . S
O229 Cd225 2.439 . S
O229 C230 1.208 . S
C230 O228 1.247 . S
C230 O229 1.208 . S
C231 O236 1.247 . S
C231 O237 1.208 . S
C232 O224 1.315 . S
C232 O227 1.279 . S
C233 O234 1.315 . S
C233 O235 1.279 . S
O234 Cd226 2.223 . S
O234 C233 1.315 . S
O235 Cd225 2.240 . S
O235 C233 1.279 . S
O236 Cd226 2.297 . S
O236 C231 1.247 . S
O237 Cd226 2.439 . S
O237 C231 1.208 . S
O238 Cd239 2.223 . S
O238 C246 1.315 . S
Cd239 O238 2.223 . S
Cd239 O242 2.297 . S
Cd239 O243 2.439 . S
Cd239 O249 2.240 . S
Cd240 O241 2.240 . S
Cd240 O248 2.223 . S
Cd240 O250 2.297 . S
Cd240 O251 2.439 . S
O241 Cd240 2.240 . S
O241 C246 1.279 . S
O242 Cd239 2.297 . S
O242 C244 1.247 . S
O243 Cd239 2.439 . S
O243 C244 1.208 . S
C244 O242 1.247 . S
C244 O243 1.208 . S
C245 O250 1.247 . S
C245 O251 1.208 . S
C246 O238 1.315 . S
C246 O241 1.279 . S
C247 O248 1.315 . S
C247 O249 1.279 . S
O248 Cd240 2.223 . S
O248 C247 1.315 . S
O249 Cd239 2.240 . S
O249 C247 1.279 . S
O250 Cd240 2.297 . S
O250 C245 1.247 . S
O251 Cd240 2.439 . S
O251 C245 1.208 . S
O252 Cd253 2.223 . S
O252 C260 1.315 . S
Cd253 O252 2.223 . S
Cd253 O256 2.297 . S
Cd253 O257 2.439 . S
Cd253 O263 2.240 . S
Cd254 O255 2.240 . S
Cd254 O262 2.223 . S
Cd254 O264 2.297 . S
Cd254 O265 2.439 . S
O255 Cd254 2.240 . S
O255 C260 1.279 . S
O256 Cd253 2.297 . S
O256 C258 1.247 . S
O257 Cd253 2.439 . S
O257 C258 1.208 . S
C258 O256 1.247 . S
C258 O257 1.208 . S
C259 O264 1.247 . S
C259 O265 1.208 . S
C260 O252 1.315 . S
C260 O255 1.279 . S
C261 O262 1.315 . S
C261 O263 1.279 . S
O262 Cd254 2.223 . S
O262 C261 1.315 . S
O263 Cd253 2.240 . S
O263 C261 1.279 . S
O264 Cd254 2.297 . S
O264 C259 1.247 . S
O265 Cd254 2.439 . S
O265 C259 1.208 . S
O266 Cd267 2.223 . S
O266 C274 1.315 . S
Cd267 O266 2.223 . S
Cd267 O270 2.297 . S
Cd267 O271 2.439 . S
Cd267 O277 2.240 . S
Cd268 O269 2.240 . S
Cd268 O276 2.223 . S
Cd268 O278 2.297 . S
Cd268 O279 2.439 . S
O269 Cd268 2.240 . S
O269 C274 1.279 . S
O270 Cd267 2.297 . S
O270 C272 1.247 . S
O271 Cd267 2.439 . S
O271 C272 1.208 . S
C272 O270 1.247 . S
C272 O271 1.208 . S
C273 O278 1.247 . S
C273 O279 1.208 . S
C274 O266 1.315 . S
C274 O269 1.279 . S
C275 O276 1.315 . S
C275 O277 1.279 . S
O276 Cd268 2.223 . S
O276 C275 1.315 . S
O277 Cd267 2.240 . S
O277 C275 1.279 . S
O278 Cd268 2.297 . S
O278 C273 1.247 . S
O279 Cd268 2.439 . S
O279 C273 1.208 . S
O280 Cd281 2.223 . S
O280 C288 1.315 . S
Cd281 O280 2.223 . S
Cd281 O284 2.297 . S
Cd281 O285 2.439 . S
Cd281 O291 2.240 . S
Cd282 O283 2.240 . S
Cd282 O290 2.223 . S
Cd282 O292 2.297 . S
Cd282 O293 2.439 . S
O283 Cd282 2.240 . S
O283 C288 1.279 . S
O284 Cd281 2.297 . S
O284 C286 1.247 . S
O285 Cd281 2.439 . S
O285 C286 1.208 . S
C286 O284 1.247 . S
C286 O285 1.208 . S
C287 O292 1.247 . S
C287 O293 1.208 . S
C288 O280 1.315 . S
C288 O283 1.279 . S
C289 O290 1.315 . S
C289 O291 1.279 . S
O290 Cd282 2.223 . S
O290 C289 1.315 . S
O291 Cd281 2.240 . S
O291 C289 1.279 . S
O292 Cd282 2.297 . S
O292 C287 1.247 . S
O293 Cd282 2.439 . S
O293 C287 1.208 . S
O294 Cd295 2.223 . S
O294 C302 1.315 . S
Cd295 O294 2.223 . S
Cd295 O298 2.297 . S
Cd295 O299 2.439 . S
Cd295 O305 2.240 . S
Cd296 O297 2.240 . S
Cd296 O304 2.223 . S
Cd296 O306 2.297 . S
Cd296 O307 2.439 . S
O297 Cd296 2.240 . S
O297 C302 1.279 . S
O298 Cd295 2.297 . S
O298 C300 1.247 . S
O299 Cd295 2.439 . S
O299 C300 1.208 . S
C300 O298 1.247 . S
C300 O299 1.208 . S
C301 O306 1.247 . S
C301 O307 1.208 . S
C302 O294 1.315 . S
C302 O297 1.279 . S
C303 O304 1.315 . S
C303 O305 1.279 . S
O304 Cd296 2.223 . S
O304 C303 1.315 . S
O305 Cd295 2.240 . S
O305 C303 1.279 . S
O306 Cd296 2.297 . S
O306 C301 1.247 . S
O307 Cd296 2.439 . S
O307 C301 1.208 . S
O308 Cd309 2.223 . S
O308 C316 1.315 . S
Cd309 O308 2.223 . S
Cd309 O312 2.297 . S
Cd309 O313 2.439 . S
Cd309 O319 2.240 . S
Cd310 O311 2.240 . S
Cd310 O318 2.223 . S
Cd310 O320 2.297 . S
Cd310 O321 2.439 . S
O311 Cd310 2.240 . S
O311 C316 1.279 . S
O312 Cd309 2.297 . S
O312 C314 1.247 . S
O313 Cd309 2.439 . S
O313 C314 1.208 . S
C314 O312 1.247 . S
C314 O313 1.208 . S
C315 O320 1.247 . S
C315 O321 1.208 . S
C316 O308 1.315 . S
C316 O311 1.279 . S
C317 O318 1.315 . S
C317 O319 1.279 . S
O318 Cd310 2.223 . S
O318 C317 1.315 . S
O319 Cd309 2.240 . S
O319 C317 1.279 . S
O320 Cd310 2.297 . S
O320 C315 1.247 . S
O321 Cd310 2.439 . S
O321 C315 1.208 . S
O322 Cd323 2.223 . S
O322 C330 1.315 . S
Cd323 O322 2.223 . S
Cd323 O326 2.297 . S
Cd323 O327 2.439 . S
Cd323 O333 2.240 . S
Cd324 O325 2.240 . S
Cd324 O332 2.223 . S
Cd324 O334 2.297 . S
Cd324 O335 2.439 . S
O325 Cd324 2.240 . S
O325 C330 1.279 . S
O326 Cd323 2.297 . S
O326 C328 1.247 . S
O327 Cd323 2.439 . S
O327 C328 1.208 . S
C328 O326 1.247 . S
C328 O327 1.208 . S
C329 O334 1.247 . S
C329 O335 1.208 . S
C330 O322 1.315 . S
C330 O325 1.279 . S
C331 O332 1.315 . S
C331 O333 1.279 . S
O332 Cd324 2.223 . S
O332 C331 1.315 . S
O333 Cd323 2.240 . S
O333 C331 1.279 . S
O334 Cd324 2.297 . S
O334 C329 1.247 . S
O335 Cd324 2.439 . S
O335 C329 1.208 . S
C336 C337 1.369 . S
C336 C338 1.419 . S
C336 H340 0.930 . S
C337 C336 1.369 . S
C337 C346 1.429 . S
C338 C336 1.419 . S
C338 C339 1.363 . S
C338 H341 0.929 . S
C339 C338 1.363 . S
C339 C345 1.428 . S
H340 C336 0.930 . S
H341 C338 0.929 . S
S342 N343 1.613 . S
S342 N344 1.610 . S
N343 S342 1.613 . S
N343 C346 1.350 . S
N344 S342 1.610 . S
N344 C345 1.351 . S
C345 C339 1.428 . S
C345 N344 1.351 . S
C345 C346 1.434 . S
C346 C337 1.429 . S
C346 N343 1.350 . S
C346 C345 1.434 . S
C347 C348 1.369 . S
C347 C349 1.419 . S
C347 H351 0.930 . S
C348 C347 1.369 . S
C348 C357 1.429 . S
C349 C347 1.419 . S
C349 C350 1.363 . S
C349 H352 0.929 . S
C350 C349 1.363 . S
C350 C356 1.428 . S
H351 C347 0.930 . S
H352 C349 0.929 . S
S353 N354 1.613 . S
S353 N355 1.610 . S
N354 S353 1.613 . S
N354 C357 1.350 . S
N355 S353 1.610 . S
N355 C356 1.351 . S
C356 C350 1.428 . S
C356 N355 1.351 . S
C356 C357 1.434 . S
C357 C348 1.429 . S
C357 N354 1.350 . S
C357 C356 1.434 . S
C358 C359 1.369 . S
C358 C360 1.419 . S
C358 H362 0.930 . S
C359 C358 1.369 . S
C359 C368 1.429 . S
C360 C358 1.419 . S
C360 C361 1.363 . S
C360 H363 0.929 . S
C361 C360 1.363 . S
C361 C367 1.428 . S
H362 C358 0.930 . S
H363 C360 0.929 . S
S364 N365 1.613 . S
S364 N366 1.610 . S
N365 S364 1.613 . S
N365 C368 1.350 . S
N366 S364 1.610 . S
N366 C367 1.351 . S
C367 C361 1.428 . S
C367 N366 1.351 . S
C367 C368 1.434 . S
C368 C359 1.429 . S
C368 N365 1.350 . S
C368 C367 1.434 . S
C369 C370 1.369 . S
C369 C371 1.419 . S
C369 H373 0.930 . S
C370 C369 1.369 . S
C370 C379 1.429 . S
C371 C369 1.419 . S
C371 C372 1.363 . S
C371 H374 0.929 . S
C372 C371 1.363 . S
C372 C378 1.428 . S
H373 C369 0.930 . S
H374 C371 0.929 . S
S375 N376 1.613 . S
S375 N377 1.610 . S
N376 S375 1.613 . S
N376 C379 1.350 . S
N377 S375 1.610 . S
N377 C378 1.351 . S
C378 C372 1.428 . S
C378 N377 1.351 . S
C378 C379 1.434 . S
C379 C370 1.429 . S
C379 N376 1.350 . S
C379 C378 1.434 . S
C380 C381 1.369 . S
C380 C382 1.419 . S
C380 H384 0.930 . S
C381 C380 1.369 . S
C381 C390 1.429 . S
C382 C380 1.419 . S
C382 C383 1.363 . S
C382 H385 0.929 . S
C383 C382 1.363 . S
C383 C389 1.428 . S
H384 C380 0.930 . S
H385 C382 0.929 . S
S386 N387 1.613 . S
S386 N388 1.610 . S
N387 S386 1.613 . S
N387 C390 1.350 . S
N388 S386 1.610 . S
N388 C389 1.351 . S
C389 C383 1.428 . S
C389 N388 1.351 . S
C389 C390 1.434 . S
C390 C381 1.429 . S
C390 N387 1.350 . S
C390 C389 1.434 . S
C391 C392 1.369 . S
C391 C393 1.419 . S
C391 H395 0.930 . S
C392 C391 1.369 . S
C392 C401 1.429 . S
C393 C391 1.419 . S
C393 C394 1.363 . S
C393 H396 0.929 . S
C394 C393 1.363 . S
C394 C400 1.428 . S
H395 C391 0.930 . S
H396 C393 0.929 . S
S397 N398 1.613 . S
S397 N399 1.610 . S
N398 S397 1.613 . S
N398 C401 1.350 . S
N399 S397 1.610 . S
N399 C400 1.351 . S
C400 C394 1.428 . S
C400 N399 1.351 . S
C400 C401 1.434 . S
C401 C392 1.429 . S
C401 N398 1.350 . S
C401 C400 1.434 . S
C402 C403 1.369 . S
C402 C404 1.419 . S
C402 H406 0.930 . S
C403 C402 1.369 . S
C403 C412 1.429 . S
C404 C402 1.419 . S
C404 C405 1.363 . S
C404 H407 0.929 . S
C405 C404 1.363 . S
C405 C411 1.428 . S
H406 C402 0.930 . S
H407 C404 0.929 . S
S408 N409 1.613 . S
S408 N410 1.610 . S
N409 S408 1.613 . S
N409 C412 1.350 . S
N410 S408 1.610 . S
N410 C411 1.351 . S
C411 C405 1.428 . S
C411 N410 1.351 . S
C411 C412 1.434 . S
C412 C403 1.429 . S
C412 N409 1.350 . S
C412 C411 1.434 . S
C413 C414 1.369 . S
C413 C415 1.419 . S
C413 H417 0.930 . S
C414 C413 1.369 . S
C414 C423 1.429 . S
C415 C413 1.419 . S
C415 C416 1.363 . S
C415 H418 0.929 . S
C416 C415 1.363 . S
C416 C422 1.428 . S
H417 C413 0.930 . S
H418 C415 0.929 . S
S419 N420 1.613 . S
S419 N421 1.610 . S
N420 S419 1.613 . S
N420 C423 1.350 . S
N421 S419 1.610 . S
N421 C422 1.351 . S
C422 C416 1.428 . S
C422 N421 1.351 . S
C422 C423 1.434 . S
C423 C414 1.429 . S
C423 N420 1.350 . S
C423 C422 1.434 . S
C424 C425 1.369 . S
C424 C426 1.419 . S
C424 H428 0.930 . S
C425 C424 1.369 . S
C425 C434 1.429 . S
C426 C424 1.419 . S
C426 C427 1.363 . S
C426 H429 0.929 . S
C427 C426 1.363 . S
C427 C433 1.428 . S
H428 C424 0.930 . S
H429 C426 0.929 . S
S430 N431 1.613 . S
S430 N432 1.610 . S
N431 S430 1.613 . S
N431 C434 1.350 . S
N432 S430 1.610 . S
N432 C433 1.351 . S
C433 C427 1.428 . S
C433 N432 1.351 . S
C433 C434 1.434 . S
C434 C425 1.429 . S
C434 N431 1.350 . S
C434 C433 1.434 . S
C435 C436 1.369 . S
C435 C437 1.419 . S
C435 H439 0.930 . S
C436 C435 1.369 . S
C436 C445 1.429 . S
C437 C435 1.419 . S
C437 C438 1.363 . S
C437 H440 0.929 . S
C438 C437 1.363 . S
C438 C444 1.428 . S
H439 C435 0.930 . S
H440 C437 0.929 . S
S441 N442 1.613 . S
S441 N443 1.610 . S
N442 S441 1.613 . S
N442 C445 1.350 . S
N443 S441 1.610 . S
N443 C444 1.351 . S
C444 C438 1.428 . S
C444 N443 1.351 . S
C444 C445 1.434 . S
C445 C436 1.429 . S
C445 N442 1.350 . S
C445 C444 1.434 . S
C446 C447 1.369 . S
C446 C448 1.419 . S
C446 H450 0.930 . S
C447 C446 1.369 . S
C447 C456 1.429 . S
C448 C446 1.419 . S
C448 C449 1.363 . S
C448 H451 0.929 . S
C449 C448 1.363 . S
C449 C455 1.428 . S
H450 C446 0.930 . S
H451 C448 0.929 . S
S452 N453 1.613 . S
S452 N454 1.610 . S
N453 S452 1.613 . S
N453 C456 1.350 . S
N454 S452 1.610 . S
N454 C455 1.351 . S
C455 C449 1.428 . S
C455 N454 1.351 . S
C455 C456 1.434 . S
C456 C447 1.429 . S
C456 N453 1.350 . S
C456 C455 1.434 . S
C457 C458 1.369 . S
C457 C459 1.419 . S
C457 H461 0.930 . S
C458 C457 1.369 . S
C458 C467 1.429 . S
C459 C457 1.419 . S
C459 C460 1.363 . S
C459 H462 0.929 . S
C460 C459 1.363 . S
C460 C466 1.428 . S
H461 C457 0.930 . S
H462 C459 0.929 . S
S463 N464 1.613 . S
S463 N465 1.610 . S
N464 S463 1.613 . S
N464 C467 1.350 . S
N465 S463 1.610 . S
N465 C466 1.351 . S
C466 C460 1.428 . S
C466 N465 1.351 . S
C466 C467 1.434 . S
C467 C458 1.429 . S
C467 N464 1.350 . S
C467 C466 1.434 . S
C468 C469 1.369 . S
C468 C470 1.419 . S
C468 H472 0.930 . S
C469 C468 1.369 . S
C469 C478 1.429 . S
C470 C468 1.419 . S
C470 C471 1.363 . S
C470 H473 0.929 . S
C471 C470 1.363 . S
C471 C477 1.428 . S
H472 C468 0.930 . S
H473 C470 0.929 . S
S474 N475 1.613 . S
S474 N476 1.610 . S
N475 S474 1.613 . S
N475 C478 1.350 . S
N476 S474 1.610 . S
N476 C477 1.351 . S
C477 C471 1.428 . S
C477 N476 1.351 . S
C477 C478 1.434 . S
C478 C469 1.429 . S
C478 N475 1.350 . S
C478 C477 1.434 . S
C479 C480 1.369 . S
C479 C481 1.419 . S
C479 H483 0.930 . S
C480 C479 1.369 . S
C480 C489 1.429 . S
C481 C479 1.419 . S
C481 C482 1.363 . S
C481 H484 0.929 . S
C482 C481 1.363 . S
C482 C488 1.428 . S
H483 C479 0.930 . S
H484 C481 0.929 . S
S485 N486 1.613 . S
S485 N487 1.610 . S
N486 S485 1.613 . S
N486 C489 1.350 . S
N487 S485 1.610 . S
N487 C488 1.351 . S
C488 C482 1.428 . S
C488 N487 1.351 . S
C488 C489 1.434 . S
C489 C480 1.429 . S
C489 N486 1.350 . S
C489 C488 1.434 . S
C490 C491 1.369 . S
C490 C492 1.419 . S
C490 H494 0.930 . S
C491 C490 1.369 . S
C491 C500 1.429 . S
C492 C490 1.419 . S
C492 C493 1.363 . S
C492 H495 0.929 . S
C493 C492 1.363 . S
C493 C499 1.428 . S
H494 C490 0.930 . S
H495 C492 0.929 . S
S496 N497 1.613 . S
S496 N498 1.610 . S
N497 S496 1.613 . S
N497 C500 1.350 . S
N498 S496 1.610 . S
N498 C499 1.351 . S
C499 C493 1.428 . S
C499 N498 1.351 . S
C499 C500 1.434 . S
C500 C491 1.429 . S
C500 N497 1.350 . S
C500 C499 1.434 . S
C501 C502 1.369 . S
C501 C503 1.419 . S
C501 H505 0.930 . S
C502 C501 1.369 . S
C502 C511 1.429 . S
C503 C501 1.419 . S
C503 C504 1.363 . S
C503 H506 0.929 . S
C504 C503 1.363 . S
C504 C510 1.428 . S
H505 C501 0.930 . S
H506 C503 0.929 . S
S507 N508 1.613 . S
S507 N509 1.610 . S
N508 S507 1.613 . S
N508 C511 1.350 . S
N509 S507 1.610 . S
N509 C510 1.351 . S
C510 C504 1.428 . S
C510 N509 1.351 . S
C510 C511 1.434 . S
C511 C502 1.429 . S
C511 N508 1.350 . S
C511 C510 1.434 . S
C512 C513 1.369 . S
C512 C514 1.419 . S
C512 H516 0.930 . S
C513 C512 1.369 . S
C513 C522 1.429 . S
C514 C512 1.419 . S
C514 C515 1.363 . S
C514 H517 0.929 . S
C515 C514 1.363 . S
C515 C521 1.428 . S
H516 C512 0.930 . S
H517 C514 0.929 . S
S518 N519 1.613 . S
S518 N520 1.610 . S
N519 S518 1.613 . S
N519 C522 1.350 . S
N520 S518 1.610 . S
N520 C521 1.351 . S
C521 C515 1.428 . S
C521 N520 1.351 . S
C521 C522 1.434 . S
C522 C513 1.429 . S
C522 N519 1.350 . S
C522 C521 1.434 . S
C523 C524 1.369 . S
C523 C525 1.419 . S
C523 H527 0.930 . S
C524 C523 1.369 . S
C524 C533 1.429 . S
C525 C523 1.419 . S
C525 C526 1.363 . S
C525 H528 0.929 . S
C526 C525 1.363 . S
C526 C532 1.428 . S
H527 C523 0.930 . S
H528 C525 0.929 . S
S529 N530 1.613 . S
S529 N531 1.610 . S
N530 S529 1.613 . S
N530 C533 1.350 . S
N531 S529 1.610 . S
N531 C532 1.351 . S
C532 C526 1.428 . S
C532 N531 1.351 . S
C532 C533 1.434 . S
C533 C524 1.429 . S
C533 N530 1.350 . S
C533 C532 1.434 . S
C534 C535 1.369 . S
C534 C536 1.419 . S
C534 H538 0.930 . S
C535 C534 1.369 . S
C535 C544 1.429 . S
C536 C534 1.419 . S
C536 C537 1.363 . S
C536 H539 0.929 . S
C537 C536 1.363 . S
C537 C543 1.428 . S
H538 C534 0.930 . S
H539 C536 0.929 . S
S540 N541 1.613 . S
S540 N542 1.610 . S
N541 S540 1.613 . S
N541 C544 1.350 . S
N542 S540 1.610 . S
N542 C543 1.351 . S
C543 C537 1.428 . S
C543 N542 1.351 . S
C543 C544 1.434 . S
C544 C535 1.429 . S
C544 N541 1.350 . S
C544 C543 1.434 . S
C545 C546 1.369 . S
C545 C547 1.419 . S
C545 H549 0.930 . S
C546 C545 1.369 . S
C546 C555 1.429 . S
C547 C545 1.419 . S
C547 C548 1.363 . S
C547 H550 0.929 . S
C548 C547 1.363 . S
C548 C554 1.428 . S
H549 C545 0.930 . S
H550 C547 0.929 . S
S551 N552 1.613 . S
S551 N553 1.610 . S
N552 S551 1.613 . S
N552 C555 1.350 . S
N553 S551 1.610 . S
N553 C554 1.351 . S
C554 C548 1.428 . S
C554 N553 1.351 . S
C554 C555 1.434 . S
C555 C546 1.429 . S
C555 N552 1.350 . S
C555 C554 1.434 . S
C556 C557 1.369 . S
C556 C558 1.419 . S
C556 H560 0.930 . S
C557 C556 1.369 . S
C557 C566 1.429 . S
C558 C556 1.419 . S
C558 C559 1.363 . S
C558 H561 0.929 . S
C559 C558 1.363 . S
C559 C565 1.428 . S
H560 C556 0.930 . S
H561 C558 0.929 . S
S562 N563 1.613 . S
S562 N564 1.610 . S
N563 S562 1.613 . S
N563 C566 1.350 . S
N564 S562 1.610 . S
N564 C565 1.351 . S
C565 C559 1.428 . S
C565 N564 1.351 . S
C565 C566 1.434 . S
C566 C557 1.429 . S
C566 N563 1.350 . S
C566 C565 1.434 . S
C567 C568 1.369 . S
C567 C569 1.419 . S
C567 H571 0.930 . S
C568 C567 1.369 . S
C568 C577 1.429 . S
C569 C567 1.419 . S
C569 C570 1.363 . S
C569 H572 0.929 . S
C570 C569 1.363 . S
C570 C576 1.428 . S
H571 C567 0.930 . S
H572 C569 0.929 . S
S573 N574 1.613 . S
S573 N575 1.610 . S
N574 S573 1.613 . S
N574 C577 1.350 . S
N575 S573 1.610 . S
N575 C576 1.351 . S
C576 C570 1.428 . S
C576 N575 1.351 . S
C576 C577 1.434 . S
C577 C568 1.429 . S
C577 N574 1.350 . S
C577 C576 1.434 . S
C578 C579 1.369 . S
C578 C580 1.419 . S
C578 H582 0.930 . S
C579 C578 1.369 . S
C579 C588 1.429 . S
C580 C578 1.419 . S
C580 C581 1.363 . S
C580 H583 0.929 . S
C581 C580 1.363 . S
C581 C587 1.428 . S
H582 C578 0.930 . S
H583 C580 0.929 . S
S584 N585 1.613 . S
S584 N586 1.610 . S
N585 S584 1.613 . S
N585 C588 1.350 . S
N586 S584 1.610 . S
N586 C587 1.351 . S
C587 C581 1.428 . S
C587 N586 1.351 . S
C587 C588 1.434 . S
C588 C579 1.429 . S
C588 N585 1.350 . S
C588 C587 1.434 . S
C589 C590 1.369 . S
C589 C591 1.419 . S
C589 H593 0.930 . S
C590 C589 1.369 . S
C590 C599 1.429 . S
C591 C589 1.419 . S
C591 C592 1.363 . S
C591 H594 0.929 . S
C592 C591 1.363 . S
C592 C598 1.428 . S
H593 C589 0.930 . S
H594 C591 0.929 . S
S595 N596 1.613 . S
S595 N597 1.610 . S
N596 S595 1.613 . S
N596 C599 1.350 . S
N597 S595 1.610 . S
N597 C598 1.351 . S
C598 C592 1.428 . S
C598 N597 1.351 . S
C598 C599 1.434 . S
C599 C590 1.429 . S
C599 N596 1.350 . S
C599 C598 1.434 . S
C600 C601 1.369 . S
C600 C602 1.419 1_565 S
C600 H604 0.930 . S
C601 C600 1.369 . S
C601 C610 1.429 . S
C602 C600 1.419 1_545 S
C602 C603 1.363 . S
C602 H605 0.929 . S
C603 C602 1.363 . S
C603 C609 1.428 . S
H604 C600 0.930 . S
H605 C602 0.929 . S
S606 N607 1.613 . S
S606 N608 1.610 1_565 S
N607 S606 1.613 . S
N607 C610 1.350 . S
N608 S606 1.610 1_545 S
N608 C609 1.351 . S
C609 C603 1.428 . S
C609 N608 1.351 . S
C609 C610 1.434 1_545 S
C610 C601 1.429 . S
C610 N607 1.350 . S
C610 C609 1.434 1_565 S
C611 C612 1.369 . S
C611 C613 1.419 . S
C611 H615 0.930 . S
C612 C611 1.369 . S
C612 C621 1.429 . S
C613 C611 1.419 . S
C613 C614 1.363 . S
C613 H616 0.929 . S
C614 C613 1.363 . S
C614 C620 1.428 . S
H615 C611 0.930 . S
H616 C613 0.929 . S
S617 N618 1.613 . S
S617 N619 1.610 . S
N618 S617 1.613 . S
N618 C621 1.350 . S
N619 S617 1.610 . S
N619 C620 1.351 . S
C620 C614 1.428 . S
C620 N619 1.351 . S
C620 C621 1.434 . S
C621 C612 1.429 . S
C621 N618 1.350 . S
C621 C620 1.434 . S
C622 C623 1.369 . S
C622 C624 1.419 1_545 S
C622 H626 0.930 . S
C623 C622 1.369 . S
C623 C632 1.429 . S
C624 C622 1.419 1_565 S
C624 C625 1.363 . S
C624 H627 0.929 . S
C625 C624 1.363 . S
C625 C631 1.428 . S
H626 C622 0.930 . S
H627 C624 0.929 . S
S628 N629 1.613 . S
S628 N630 1.610 1_545 S
N629 S628 1.613 . S
N629 C632 1.350 . S
N630 S628 1.610 1_565 S
N630 C631 1.351 . S
C631 C625 1.428 . S
C631 N630 1.351 . S
C631 C632 1.434 1_565 S
C632 C623 1.429 . S
C632 N629 1.350 . S
C632 C631 1.434 1_545 S
C633 C634 1.369 1_556 S
C633 C635 1.419 . S
C633 H637 0.930 . S
C634 C633 1.369 1_554 S
C634 C643 1.429 . S
C635 C633 1.419 . S
C635 C636 1.363 . S
C635 H638 0.929 . S
C636 C635 1.363 . S
C636 C642 1.428 1_556 S
H637 C633 0.930 . S
H638 C635 0.929 . S
S639 N640 1.613 . S
S639 N641 1.610 . S
N640 S639 1.613 . S
N640 C643 1.350 . S
N641 S639 1.610 . S
N641 C642 1.351 . S
C642 C636 1.428 1_554 S
C642 N641 1.351 . S
C642 C643 1.434 . S
C643 C634 1.429 . S
C643 N640 1.350 . S
C643 C642 1.434 . S
C644 C645 1.369 . S
C644 C646 1.419 1_554 S
C644 H648 0.930 . S
C645 C644 1.369 . S
C645 C654 1.429 . S
C646 C644 1.419 1_556 S
C646 C647 1.363 . S
C646 H649 0.929 . S
C647 C646 1.363 . S
C647 C653 1.444 . S
H648 C644 0.930 . S
H649 C646 0.929 . S
S650 N651 1.613 . S
S650 N652 1.610 . S
N651 S650 1.613 . S
N651 C654 1.350 . S
N652 S650 1.610 . S
N652 C653 1.349 1_554 S
C653 C647 1.444 . S
C653 N652 1.349 1_556 S
C653 C654 1.419 1_556 S
C654 C645 1.429 . S
C654 N651 1.350 . S
C654 C653 1.419 1_554 S
C655 C656 1.369 1_545 S
C655 C657 1.419 . S
C655 H659 0.930 . S
C656 C655 1.369 1_565 S
C656 C665 1.429 . S
C657 C655 1.419 . S
C657 C658 1.363 . S
C657 H660 0.929 . S
C658 C657 1.363 . S
C658 C664 1.428 1_545 S
H659 C655 0.930 . S
H660 C657 0.929 . S
S661 N662 1.613 . S
S661 N663 1.610 . S
N662 S661 1.613 . S
N662 C665 1.350 . S
N663 S661 1.610 . S
N663 C664 1.351 . S
C664 C658 1.428 1_565 S
C664 N663 1.351 . S
C664 C665 1.434 . S
C665 C656 1.429 . S
C665 N662 1.350 . S
C665 C664 1.434 . S
C666 C667 1.369 . S
C666 C668 1.419 . S
C666 H670 0.930 . S
C667 C666 1.369 . S
C667 C676 1.429 . S
C668 C666 1.419 . S
C668 C669 1.363 . S
C668 H671 0.929 . S
C669 C668 1.363 . S
C669 C675 1.428 . S
H670 C666 0.930 . S
H671 C668 0.929 . S
S672 N673 1.613 . S
S672 N674 1.610 . S
N673 S672 1.613 . S
N673 C676 1.350 . S
N674 S672 1.610 . S
N674 C675 1.351 . S
C675 C669 1.428 . S
C675 N674 1.351 . S
C675 C676 1.434 . S
C676 C667 1.429 . S
C676 N673 1.350 . S
C676 C675 1.434 . S
C677 C678 1.369 1_545 S
C677 C679 1.419 . S
C677 H681 0.930 . S
C678 C677 1.369 1_565 S
C678 C687 1.429 . S
C679 C677 1.419 . S
C679 C680 1.363 . S
C679 H682 0.929 . S
C680 C679 1.363 . S
C680 C686 1.428 1_545 S
H681 C677 0.930 . S
H682 C679 0.929 . S
S683 N684 1.613 . S
S683 N685 1.610 . S
N684 S683 1.613 . S
N684 C687 1.350 . S
N685 S683 1.610 . S
N685 C686 1.351 . S
C686 C680 1.428 1_565 S
C686 N685 1.351 . S
C686 C687 1.434 . S
C687 C678 1.429 . S
C687 N684 1.350 . S
C687 C686 1.434 . S
C688 C689 1.369 . S
C688 C690 1.419 1_655 S
C688 H692 0.930 . S
C689 C688 1.369 . S
C689 C698 1.429 . S
C690 C688 1.419 1_455 S
C690 C691 1.363 . S
C690 H693 0.929 . S
C691 C690 1.363 . S
C691 C697 1.428 . S
H692 C688 0.930 . S
H693 C690 0.929 . S
S694 N695 1.613 . S
S694 N696 1.610 1_655 S
N695 S694 1.613 . S
N695 C698 1.350 . S
N696 S694 1.610 1_455 S
N696 C697 1.351 . S
C697 C691 1.428 . S
C697 N696 1.351 . S
C697 C698 1.434 1_455 S
C698 C689 1.429 . S
C698 N695 1.350 . S
C698 C697 1.434 1_655 S
C699 C700 1.369 . S
C699 C701 1.419 . S
C699 H703 0.930 . S
C700 C699 1.369 . S
C700 C709 1.429 . S
C701 C699 1.419 . S
C701 C702 1.363 . S
C701 H704 0.929 . S
C702 C701 1.363 . S
C702 C708 1.428 . S
H703 C699 0.930 . S
H704 C701 0.929 . S
S705 N706 1.613 . S
S705 N707 1.610 . S
N706 S705 1.613 . S
N706 C709 1.350 . S
N707 S705 1.610 . S
N707 C708 1.351 . S
C708 C702 1.428 . S
C708 N707 1.351 . S
C708 C709 1.434 . S
C709 C700 1.429 . S
C709 N706 1.350 . S
C709 C708 1.434 . S
C710 C711 1.369 . S
C710 C712 1.419 1_455 S
C710 H714 0.930 . S
C711 C710 1.369 . S
C711 C720 1.429 . S
C712 C710 1.419 1_655 S
C712 C713 1.363 . S
C712 H715 0.929 . S
C713 C712 1.363 . S
C713 C719 1.428 . S
H714 C710 0.930 . S
H715 C712 0.929 . S
S716 N717 1.604 1_655 S
S716 N718 1.610 . S
N717 S716 1.604 1_455 S
N717 C720 1.350 . S
N718 S716 1.610 . S
N718 C719 1.351 . S
C719 C713 1.428 . S
C719 N718 1.351 . S
C719 C720 1.434 1_655 S
C720 C711 1.429 . S
C720 N717 1.350 . S
C720 C719 1.434 1_455 S
C721 C722 1.369 . S
C721 C723 1.419 1_455 S
C721 H725 0.930 . S
C722 C721 1.369 . S
C722 C731 1.429 . S
C723 C721 1.419 1_655 S
C723 C724 1.363 . S
C723 H726 0.929 . S
C724 C723 1.363 . S
C724 C730 1.428 . S
H725 C721 0.930 . S
H726 C723 0.929 . S
S727 N728 1.613 1_655 S
S727 N729 1.610 . S
N728 S727 1.613 1_455 S
N728 C731 1.350 . S
N729 S727 1.610 . S
N729 C730 1.351 . S
C730 C724 1.428 . S
C730 N729 1.351 . S
C730 C731 1.434 1_655 S
C731 C722 1.429 . S
C731 N728 1.350 . S
C731 C730 1.434 1_455 S
C732 C733 1.369 . S
C732 C734 1.419 . S
C732 H736 0.930 . S
C733 C732 1.369 . S
C733 C742 1.429 . S
C734 C732 1.419 . S
C734 C735 1.363 . S
C734 H737 0.929 . S
C735 C734 1.363 . S
C735 C741 1.428 . S
H736 C732 0.930 . S
H737 C734 0.929 . S
S738 N739 1.613 . S
S738 N740 1.610 . S
N739 S738 1.613 . S
N739 C742 1.350 . S
N740 S738 1.610 . S
N740 C741 1.351 . S
C741 C735 1.428 . S
C741 N740 1.351 . S
C741 C742 1.434 . S
C742 C733 1.429 . S
C742 N739 1.350 . S
C742 C741 1.434 . S
C743 C744 1.369 . S
C743 C745 1.399 1_455 S
C743 H747 0.930 . S
C744 C743 1.369 . S
C744 C753 1.438 . S
C745 C743 1.399 1_655 S
C745 C746 1.384 . S
C745 H748 0.929 . S
C746 C745 1.384 . S
C746 C752 1.428 . S
H747 C743 0.930 . S
H748 C745 0.929 . S
S749 N750 1.613 . S
S749 N751 1.610 . S
N750 S749 1.613 . S
N750 C753 1.349 1_655 S
N751 S749 1.610 . S
N751 C752 1.351 . S
C752 C746 1.428 . S
C752 N751 1.351 . S
C752 C753 1.425 1_655 S
C753 C744 1.438 . S
C753 N750 1.349 1_455 S
C753 C752 1.425 1_455 S
C754 C755 1.369 . S
C754 C756 1.419 . S
C754 H758 0.930 . S
C755 C754 1.369 . S
C755 C764 1.429 . S
C756 C754 1.419 . S
C756 C757 1.363 . S
C756 H759 0.929 . S
C757 C756 1.363 . S
C757 C763 1.428 . S
H758 C754 0.930 . S
H759 C756 0.929 . S
S760 N761 1.613 . S
S760 N762 1.610 . S
N761 S760 1.613 . S
N761 C764 1.350 . S
N762 S760 1.610 . S
N762 C763 1.351 . S
C763 C757 1.428 . S
C763 N762 1.351 . S
C763 C764 1.434 . S
C764 C755 1.429 . S
C764 N761 1.350 . S
C764 C763 1.434 . S
C765 C766 1.369 . S
C765 C767 1.419 . S
C765 H769 0.930 . S
C766 C765 1.369 . S
C766 C775 1.429 . S
C767 C765 1.419 . S
C767 C768 1.363 . S
C767 H770 0.929 . S
C768 C767 1.363 . S
C768 C774 1.428 . S
H769 C765 0.930 . S
H770 C767 0.929 . S
S771 N772 1.613 . S
S771 N773 1.610 . S
N772 S771 1.613 . S
N772 C775 1.350 . S
N773 S771 1.610 . S
N773 C774 1.351 . S
C774 C768 1.428 . S
C774 N773 1.351 . S
C774 C775 1.434 . S
C775 C766 1.429 . S
C775 N772 1.350 . S
C775 C774 1.434 . S
C776 C777 1.369 1_554 S
C776 C778 1.419 . S
C776 H780 0.930 . S
C777 C776 1.369 1_556 S
C777 C786 1.429 . S
C778 C776 1.419 . S
C778 C779 1.363 . S
C778 H781 0.929 . S
C779 C778 1.363 . S
C779 C785 1.428 1_554 S
H780 C776 0.930 . S
H781 C778 0.929 . S
S782 N783 1.613 . S
S782 N784 1.610 . S
N783 S782 1.613 . S
N783 C786 1.350 . S
N784 S782 1.610 . S
N784 C785 1.351 . S
C785 C779 1.428 1_556 S
C785 N784 1.351 . S
C785 C786 1.434 . S
C786 C777 1.429 . S
C786 N783 1.350 . S
C786 C785 1.434 . S
C787 C788 1.369 . S
C787 C789 1.419 . S
C787 H791 0.930 . S
C788 C787 1.369 . S
C788 C797 1.429 . S
C789 C787 1.419 . S
C789 C790 1.363 . S
C789 H792 0.929 . S
C790 C789 1.363 . S
C790 C796 1.428 . S
H791 C787 0.930 . S
H792 C789 0.929 . S
S793 N794 1.613 . S
S793 N795 1.610 . S
N794 S793 1.613 . S
N794 C797 1.350 . S
N795 S793 1.610 . S
N795 C796 1.351 . S
C796 C790 1.428 . S
C796 N795 1.351 . S
C796 C797 1.434 . S
C797 C788 1.429 . S
C797 N794 1.350 . S
C797 C796 1.434 . S
C798 C799 1.369 . S
C798 C800 1.419 . S
C798 H802 0.930 . S
C799 C798 1.369 . S
C799 C808 1.429 . S
C800 C798 1.419 . S
C800 C801 1.363 . S
C800 H803 0.929 . S
C801 C800 1.363 . S
C801 C807 1.428 . S
H802 C798 0.930 . S
H803 C800 0.929 . S
S804 N805 1.613 . S
S804 N806 1.610 . S
N805 S804 1.613 . S
N805 C808 1.350 . S
N806 S804 1.610 . S
N806 C807 1.351 . S
C807 C801 1.428 . S
C807 N806 1.351 . S
C807 C808 1.434 . S
C808 C799 1.429 . S
C808 N805 1.350 . S
C808 C807 1.434 . S
C809 C810 1.369 . S
C809 C811 1.419 . S
C809 H813 0.930 . S
C810 C809 1.369 . S
C810 C819 1.429 . S
C811 C809 1.419 . S
C811 C812 1.363 . S
C811 H814 0.929 . S
C812 C811 1.363 . S
C812 C818 1.428 . S
H813 C809 0.930 . S
H814 C811 0.929 . S
S815 N816 1.613 . S
S815 N817 1.610 . S
N816 S815 1.613 . S
N816 C819 1.350 . S
N817 S815 1.610 . S
N817 C818 1.351 . S
C818 C812 1.428 . S
C818 N817 1.351 . S
C818 C819 1.434 . S
C819 C810 1.429 . S
C819 N816 1.350 . S
C819 C818 1.434 . S
C820 C821 1.369 . S
C820 C822 1.419 . S
C820 H824 0.930 . S
C821 C820 1.369 . S
C821 C830 1.429 . S
C822 C820 1.419 . S
C822 C823 1.363 . S
C822 H825 0.929 . S
C823 C822 1.363 . S
C823 C829 1.428 . S
H824 C820 0.930 . S
H825 C822 0.929 . S
S826 N827 1.613 . S
S826 N828 1.610 . S
N827 S826 1.613 . S
N827 C830 1.350 . S
N828 S826 1.610 . S
N828 C829 1.351 . S
C829 C823 1.428 . S
C829 N828 1.351 . S
C829 C830 1.434 . S
C830 C821 1.429 . S
C830 N827 1.350 . S
C830 C829 1.434 . S
C831 C832 1.369 . S
C831 C833 1.419 1_554 S
C831 H835 0.930 . S
C832 C831 1.369 . S
C832 C841 1.429 . S
C833 C831 1.419 1_556 S
C833 C834 1.363 . S
C833 H836 0.929 . S
C834 C833 1.363 . S
C834 C840 1.428 . S
H835 C831 0.930 . S
H836 C833 0.929 . S
S837 N838 1.613 1_556 S
S837 N839 1.610 . S
N838 S837 1.613 1_554 S
N838 C841 1.350 . S
N839 S837 1.610 . S
N839 C840 1.351 . S
C840 C834 1.428 . S
C840 N839 1.351 . S
C840 C841 1.434 1_556 S
C841 C832 1.429 . S
C841 N838 1.350 . S
C841 C840 1.434 1_554 S
C842 C843 1.369 . S
C842 C844 1.419 . S
C842 H846 0.930 . S
C843 C842 1.369 . S
C843 C852 1.429 . S
C844 C842 1.419 . S
C844 C845 1.363 . S
C844 H847 0.929 . S
C845 C844 1.363 . S
C845 C851 1.428 . S
H846 C842 0.930 . S
H847 C844 0.929 . S
S848 N849 1.613 . S
S848 N850 1.610 . S
N849 S848 1.613 . S
N849 C852 1.350 . S
N850 S848 1.610 . S
N850 C851 1.351 . S
C851 C845 1.428 . S
C851 N850 1.351 . S
C851 C852 1.434 . S
C852 C843 1.429 . S
C852 N849 1.350 . S
C852 C851 1.434 . S
C853 C854 1.369 . S
C853 C855 1.419 . S
C853 H857 0.930 . S
C854 C853 1.369 . S
C854 C863 1.429 . S
C855 C853 1.419 . S
C855 C856 1.363 . S
C855 H858 0.929 . S
C856 C855 1.363 . S
C856 C862 1.428 . S
H857 C853 0.930 . S
H858 C855 0.929 . S
S859 N860 1.613 . S
S859 N861 1.610 . S
N860 S859 1.613 . S
N860 C863 1.350 . S
N861 S859 1.610 . S
N861 C862 1.351 . S
C862 C856 1.428 . S
C862 N861 1.351 . S
C862 C863 1.434 . S
C863 C854 1.429 . S
C863 N860 1.350 . S
C863 C862 1.434 . S
C337 C106 0.974 . S
C339 C8 1.194 . S
C348 C23 1.000 . S
C350 C65 1.184 . S
C359 C78 0.978 . S
C361 C36 1.192 . S
C370 C51 0.974 . S
C372 C93 1.193 . S
C381 C120 1.194 . S
C383 C9 0.979 . S
C392 C22 1.186 . S
C394 C135 0.990 . S
C403 C148 1.190 . S
C405 C37 0.984 . S
C414 C162 0.995 . S
C416 C50 1.186 . S
C425 C64 0.983 . S
C427 C134 1.190 . S
C436 C79 1.187 . S
C438 C149 0.989 . S
C447 C163 1.194 . S
C449 C92 0.979 . S
C458 C121 0.990 . S
C460 C107 1.187 . S
C469 C303 0.998 . S
C471 C176 1.184 . S
C480 C191 1.000 . S
C482 C317 1.183 . S
C491 C204 1.186 . S
C493 C330 0.991 . S
C502 C331 1.184 . S
C504 C218 0.993 . S
C513 C232 0.975 . S
C515 C302 1.193 . S
C524 C274 0.975 . S
C526 C246 1.194 . S
C535 C177 1.000 . S
C537 C233 1.183 . S
C546 C190 1.182 . S
C548 C260 0.997 . S
C557 C205 0.985 . S
C559 C219 1.189 . S
C568 C247 0.991 . S
C570 C288 1.187 . S
C579 C261 1.188 . S
C581 C316 0.988 . S
C590 C289 0.983 . S
C592 C275 1.191 . S
C601 C62 1.734 . S
C603 C7 1.731 . S
C612 C77 1.806 . S
C614 C20 1.812 . S
C623 C90 1.724 . S
C625 C35 1.733 . S
C634 C105 1.809 . S
C636 C48 1.813 . S
C645 C119 1.726 . S
C647 C160 1.735 . S
C656 C132 1.808 . S
C658 C118 1.813 . S
C667 C147 1.731 . S
C669 C133 1.726 . S
C678 C146 1.807 . S
C680 C161 1.813 . S
C689 C258 1.724 . S
C691 C104 1.733 . S
C700 C175 1.729 . S
C702 C49 1.734 . S
C711 C6 1.808 . S
C713 C188 1.808 . S
C722 C21 1.731 . S
C724 C203 1.726 . S
C733 C76 1.730 . S
C735 C272 1.726 . S
C744 C63 1.808 . S
C746 C217 1.808 . S
C755 C91 1.812 . S
C757 C231 1.813 . S
C766 C230 1.724 . S
C768 C245 1.732 . S
C777 C174 1.810 . S
C779 C259 1.813 . S
C788 C216 1.736 . S
C790 C189 1.726 . S
C799 C273 1.806 . S
C801 C202 1.812 . S
C810 C287 1.728 . S
C812 C328 1.734 . S
C821 C286 1.814 . S
C823 C300 1.809 . S
C832 C314 1.736 . S
C834 C301 1.728 . S
C843 C329 1.814 . S
C845 C315 1.811 . S
C854 C34 1.812 . S
C856 C244 1.807 . S
